# Generated by pormake.
# Topology gar, (4,6)-cn, num edge types: 1
# Building blocks:
#     Node 0, Type 0, BuildingBlock: QUQFOY_clean_sbu_3, # of connection points: 4
#     Node 1, Type 0, BuildingBlock: QUQFOY_clean_sbu_3, # of connection points: 4
#     Node 2, Type 0, BuildingBlock: QUQFOY_clean_sbu_3, # of connection points: 4
#     Node 3, Type 0, BuildingBlock: QUQFOY_clean_sbu_3, # of connection points: 4
#     Node 4, Type 0, BuildingBlock: QUQFOY_clean_sbu_3, # of connection points: 4
#     Node 5, Type 0, BuildingBlock: QUQFOY_clean_sbu_3, # of connection points: 4
#     Node 6, Type 0, BuildingBlock: QUQFOY_clean_sbu_3, # of connection points: 4
#     Node 7, Type 0, BuildingBlock: QUQFOY_clean_sbu_3, # of connection points: 4
#     Node 8, Type 0, BuildingBlock: QUQFOY_clean_sbu_3, # of connection points: 4
#     Node 9, Type 0, BuildingBlock: QUQFOY_clean_sbu_3, # of connection points: 4
#     Node 10, Type 0, BuildingBlock: QUQFOY_clean_sbu_3, # of connection points: 4
#     Node 11, Type 0, BuildingBlock: QUQFOY_clean_sbu_3, # of connection points: 4
#     Node 12, Type 0, BuildingBlock: QUQFOY_clean_sbu_3, # of connection points: 4
#     Node 13, Type 0, BuildingBlock: QUQFOY_clean_sbu_3, # of connection points: 4
#     Node 14, Type 0, BuildingBlock: QUQFOY_clean_sbu_3, # of connection points: 4
#     Node 15, Type 0, BuildingBlock: QUQFOY_clean_sbu_3, # of connection points: 4
#     Node 16, Type 0, BuildingBlock: QUQFOY_clean_sbu_3, # of connection points: 4
#     Node 17, Type 0, BuildingBlock: QUQFOY_clean_sbu_3, # of connection points: 4
#     Node 18, Type 0, BuildingBlock: QUQFOY_clean_sbu_3, # of connection points: 4
#     Node 19, Type 0, BuildingBlock: QUQFOY_clean_sbu_3, # of connection points: 4
#     Node 20, Type 0, BuildingBlock: QUQFOY_clean_sbu_3, # of connection points: 4
#     Node 21, Type 0, BuildingBlock: QUQFOY_clean_sbu_3, # of connection points: 4
#     Node 22, Type 0, BuildingBlock: QUQFOY_clean_sbu_3, # of connection points: 4
#     Node 23, Type 0, BuildingBlock: QUQFOY_clean_sbu_3, # of connection points: 4
#     Node 24, Type 1, BuildingBlock: KUMBUR_clean_sbu_1, # of connection points: 6
#     Node 25, Type 1, BuildingBlock: KUMBUR_clean_sbu_1, # of connection points: 6
#     Node 26, Type 1, BuildingBlock: KUMBUR_clean_sbu_1, # of connection points: 6
#     Node 27, Type 1, BuildingBlock: KUMBUR_clean_sbu_1, # of connection points: 6
#     Node 28, Type 1, BuildingBlock: KUMBUR_clean_sbu_1, # of connection points: 6
#     Node 29, Type 1, BuildingBlock: KUMBUR_clean_sbu_1, # of connection points: 6
#     Node 30, Type 1, BuildingBlock: KUMBUR_clean_sbu_1, # of connection points: 6
#     Node 31, Type 1, BuildingBlock: KUMBUR_clean_sbu_1, # of connection points: 6
#     Node 32, Type 1, BuildingBlock: KUMBUR_clean_sbu_1, # of connection points: 6
#     Node 33, Type 1, BuildingBlock: KUMBUR_clean_sbu_1, # of connection points: 6
#     Node 34, Type 1, BuildingBlock: KUMBUR_clean_sbu_1, # of connection points: 6
#     Node 35, Type 1, BuildingBlock: KUMBUR_clean_sbu_1, # of connection points: 6
#     Node 36, Type 1, BuildingBlock: KUMBUR_clean_sbu_1, # of connection points: 6
#     Node 37, Type 1, BuildingBlock: KUMBUR_clean_sbu_1, # of connection points: 6
#     Node 38, Type 1, BuildingBlock: KUMBUR_clean_sbu_1, # of connection points: 6
#     Node 39, Type 1, BuildingBlock: KUMBUR_clean_sbu_1, # of connection points: 6
#     Edge 40, Type (0, 1), BuildingBlock: MIFKUJ_clean_linker_0, # of connection points: 2
#     Edge 41, Type (0, 1), BuildingBlock: MIFKUJ_clean_linker_0, # of connection points: 2
#     Edge 42, Type (0, 1), BuildingBlock: MIFKUJ_clean_linker_0, # of connection points: 2
#     Edge 43, Type (0, 1), BuildingBlock: MIFKUJ_clean_linker_0, # of connection points: 2
#     Edge 44, Type (0, 1), BuildingBlock: MIFKUJ_clean_linker_0, # of connection points: 2
#     Edge 45, Type (0, 1), BuildingBlock: MIFKUJ_clean_linker_0, # of connection points: 2
#     Edge 46, Type (0, 1), BuildingBlock: MIFKUJ_clean_linker_0, # of connection points: 2
#     Edge 47, Type (0, 1), BuildingBlock: MIFKUJ_clean_linker_0, # of connection points: 2
#     Edge 48, Type (0, 1), BuildingBlock: MIFKUJ_clean_linker_0, # of connection points: 2
#     Edge 49, Type (0, 1), BuildingBlock: MIFKUJ_clean_linker_0, # of connection points: 2
#     Edge 50, Type (0, 1), BuildingBlock: MIFKUJ_clean_linker_0, # of connection points: 2
#     Edge 51, Type (0, 1), BuildingBlock: MIFKUJ_clean_linker_0, # of connection points: 2
#     Edge 52, Type (0, 1), BuildingBlock: MIFKUJ_clean_linker_0, # of connection points: 2
#     Edge 53, Type (0, 1), BuildingBlock: MIFKUJ_clean_linker_0, # of connection points: 2
#     Edge 54, Type (0, 1), BuildingBlock: MIFKUJ_clean_linker_0, # of connection points: 2
#     Edge 55, Type (0, 1), BuildingBlock: MIFKUJ_clean_linker_0, # of connection points: 2
#     Edge 56, Type (0, 1), BuildingBlock: MIFKUJ_clean_linker_0, # of connection points: 2
#     Edge 57, Type (0, 1), BuildingBlock: MIFKUJ_clean_linker_0, # of connection points: 2
#     Edge 58, Type (0, 1), BuildingBlock: MIFKUJ_clean_linker_0, # of connection points: 2
#     Edge 59, Type (0, 1), BuildingBlock: MIFKUJ_clean_linker_0, # of connection points: 2
#     Edge 60, Type (0, 1), BuildingBlock: MIFKUJ_clean_linker_0, # of connection points: 2
#     Edge 61, Type (0, 1), BuildingBlock: MIFKUJ_clean_linker_0, # of connection points: 2
#     Edge 62, Type (0, 1), BuildingBlock: MIFKUJ_clean_linker_0, # of connection points: 2
#     Edge 63, Type (0, 1), BuildingBlock: MIFKUJ_clean_linker_0, # of connection points: 2
#     Edge 64, Type (0, 1), BuildingBlock: MIFKUJ_clean_linker_0, # of connection points: 2
#     Edge 65, Type (0, 1), BuildingBlock: MIFKUJ_clean_linker_0, # of connection points: 2
#     Edge 66, Type (0, 1), BuildingBlock: MIFKUJ_clean_linker_0, # of connection points: 2
#     Edge 67, Type (0, 1), BuildingBlock: MIFKUJ_clean_linker_0, # of connection points: 2
#     Edge 68, Type (0, 1), BuildingBlock: MIFKUJ_clean_linker_0, # of connection points: 2
#     Edge 69, Type (0, 1), BuildingBlock: MIFKUJ_clean_linker_0, # of connection points: 2
#     Edge 70, Type (0, 1), BuildingBlock: MIFKUJ_clean_linker_0, # of connection points: 2
#     Edge 71, Type (0, 1), BuildingBlock: MIFKUJ_clean_linker_0, # of connection points: 2
#     Edge 72, Type (0, 1), BuildingBlock: MIFKUJ_clean_linker_0, # of connection points: 2
#     Edge 73, Type (0, 1), BuildingBlock: MIFKUJ_clean_linker_0, # of connection points: 2
#     Edge 74, Type (0, 1), BuildingBlock: MIFKUJ_clean_linker_0, # of connection points: 2
#     Edge 75, Type (0, 1), BuildingBlock: MIFKUJ_clean_linker_0, # of connection points: 2
#     Edge 76, Type (0, 1), BuildingBlock: MIFKUJ_clean_linker_0, # of connection points: 2
#     Edge 77, Type (0, 1), BuildingBlock: MIFKUJ_clean_linker_0, # of connection points: 2
#     Edge 78, Type (0, 1), BuildingBlock: MIFKUJ_clean_linker_0, # of connection points: 2
#     Edge 79, Type (0, 1), BuildingBlock: MIFKUJ_clean_linker_0, # of connection points: 2
#     Edge 80, Type (0, 1), BuildingBlock: MIFKUJ_clean_linker_0, # of connection points: 2
#     Edge 81, Type (0, 1), BuildingBlock: MIFKUJ_clean_linker_0, # of connection points: 2
#     Edge 82, Type (0, 1), BuildingBlock: MIFKUJ_clean_linker_0, # of connection points: 2
#     Edge 83, Type (0, 1), BuildingBlock: MIFKUJ_clean_linker_0, # of connection points: 2
#     Edge 84, Type (0, 1), BuildingBlock: MIFKUJ_clean_linker_0, # of connection points: 2
#     Edge 85, Type (0, 1), BuildingBlock: MIFKUJ_clean_linker_0, # of connection points: 2
#     Edge 86, Type (0, 1), BuildingBlock: MIFKUJ_clean_linker_0, # of connection points: 2
#     Edge 87, Type (0, 1), BuildingBlock: MIFKUJ_clean_linker_0, # of connection points: 2
#     Edge 88, Type (0, 1), BuildingBlock: MIFKUJ_clean_linker_0, # of connection points: 2
#     Edge 89, Type (0, 1), BuildingBlock: MIFKUJ_clean_linker_0, # of connection points: 2
#     Edge 90, Type (0, 1), BuildingBlock: MIFKUJ_clean_linker_0, # of connection points: 2
#     Edge 91, Type (0, 1), BuildingBlock: MIFKUJ_clean_linker_0, # of connection points: 2
#     Edge 92, Type (0, 1), BuildingBlock: MIFKUJ_clean_linker_0, # of connection points: 2
#     Edge 93, Type (0, 1), BuildingBlock: MIFKUJ_clean_linker_0, # of connection points: 2
#     Edge 94, Type (0, 1), BuildingBlock: MIFKUJ_clean_linker_0, # of connection points: 2
#     Edge 95, Type (0, 1), BuildingBlock: MIFKUJ_clean_linker_0, # of connection points: 2
#     Edge 96, Type (0, 1), BuildingBlock: MIFKUJ_clean_linker_0, # of connection points: 2
#     Edge 97, Type (0, 1), BuildingBlock: MIFKUJ_clean_linker_0, # of connection points: 2
#     Edge 98, Type (0, 1), BuildingBlock: MIFKUJ_clean_linker_0, # of connection points: 2
#     Edge 99, Type (0, 1), BuildingBlock: MIFKUJ_clean_linker_0, # of connection points: 2
#     Edge 100, Type (0, 1), BuildingBlock: MIFKUJ_clean_linker_0, # of connection points: 2
#     Edge 101, Type (0, 1), BuildingBlock: MIFKUJ_clean_linker_0, # of connection points: 2
#     Edge 102, Type (0, 1), BuildingBlock: MIFKUJ_clean_linker_0, # of connection points: 2
#     Edge 103, Type (0, 1), BuildingBlock: MIFKUJ_clean_linker_0, # of connection points: 2
#     Edge 104, Type (0, 1), BuildingBlock: MIFKUJ_clean_linker_0, # of connection points: 2
#     Edge 105, Type (0, 1), BuildingBlock: MIFKUJ_clean_linker_0, # of connection points: 2
#     Edge 106, Type (0, 1), BuildingBlock: MIFKUJ_clean_linker_0, # of connection points: 2
#     Edge 107, Type (0, 1), BuildingBlock: MIFKUJ_clean_linker_0, # of connection points: 2
#     Edge 108, Type (0, 1), BuildingBlock: MIFKUJ_clean_linker_0, # of connection points: 2
#     Edge 109, Type (0, 1), BuildingBlock: MIFKUJ_clean_linker_0, # of connection points: 2
#     Edge 110, Type (0, 1), BuildingBlock: MIFKUJ_clean_linker_0, # of connection points: 2
#     Edge 111, Type (0, 1), BuildingBlock: MIFKUJ_clean_linker_0, # of connection points: 2
#     Edge 112, Type (0, 1), BuildingBlock: MIFKUJ_clean_linker_0, # of connection points: 2
#     Edge 113, Type (0, 1), BuildingBlock: MIFKUJ_clean_linker_0, # of connection points: 2
#     Edge 114, Type (0, 1), BuildingBlock: MIFKUJ_clean_linker_0, # of connection points: 2
#     Edge 115, Type (0, 1), BuildingBlock: MIFKUJ_clean_linker_0, # of connection points: 2
#     Edge 116, Type (0, 1), BuildingBlock: MIFKUJ_clean_linker_0, # of connection points: 2
#     Edge 117, Type (0, 1), BuildingBlock: MIFKUJ_clean_linker_0, # of connection points: 2
#     Edge 118, Type (0, 1), BuildingBlock: MIFKUJ_clean_linker_0, # of connection points: 2
#     Edge 119, Type (0, 1), BuildingBlock: MIFKUJ_clean_linker_0, # of connection points: 2
#     Edge 120, Type (0, 1), BuildingBlock: MIFKUJ_clean_linker_0, # of connection points: 2
#     Edge 121, Type (0, 1), BuildingBlock: MIFKUJ_clean_linker_0, # of connection points: 2
#     Edge 122, Type (0, 1), BuildingBlock: MIFKUJ_clean_linker_0, # of connection points: 2
#     Edge 123, Type (0, 1), BuildingBlock: MIFKUJ_clean_linker_0, # of connection points: 2
#     Edge 124, Type (0, 1), BuildingBlock: MIFKUJ_clean_linker_0, # of connection points: 2
#     Edge 125, Type (0, 1), BuildingBlock: MIFKUJ_clean_linker_0, # of connection points: 2
#     Edge 126, Type (0, 1), BuildingBlock: MIFKUJ_clean_linker_0, # of connection points: 2
#     Edge 127, Type (0, 1), BuildingBlock: MIFKUJ_clean_linker_0, # of connection points: 2
#     Edge 128, Type (0, 1), BuildingBlock: MIFKUJ_clean_linker_0, # of connection points: 2
#     Edge 129, Type (0, 1), BuildingBlock: MIFKUJ_clean_linker_0, # of connection points: 2
#     Edge 130, Type (0, 1), BuildingBlock: MIFKUJ_clean_linker_0, # of connection points: 2
#     Edge 131, Type (0, 1), BuildingBlock: MIFKUJ_clean_linker_0, # of connection points: 2
#     Edge 132, Type (0, 1), BuildingBlock: MIFKUJ_clean_linker_0, # of connection points: 2
#     Edge 133, Type (0, 1), BuildingBlock: MIFKUJ_clean_linker_0, # of connection points: 2
#     Edge 134, Type (0, 1), BuildingBlock: MIFKUJ_clean_linker_0, # of connection points: 2
#     Edge 135, Type (0, 1), BuildingBlock: MIFKUJ_clean_linker_0, # of connection points: 2
# Relax obj value: 0.055
# Max RMSD: 0.176
# Mean RMSD: 0.103
data_MOF--net-gar--node1-QUQFOY_clean_sbu_3--node2-KUMBUR_clean_sbu_1--edge1-MIFKUJ_clean_linker_0
_symmetry_space_group_name_H-M    P1
_symmetry_Int_Tables_number       1
_symmetry_cell_setting            triclinic
loop_
_symmetry_equiv_pos_as_xyz
'x, y, z'
_cell_length_a     76.709766
_cell_length_b     77.89336
_cell_length_c     72.776214
_cell_angle_alpha  96.350953
_cell_angle_beta   95.456097
_cell_angle_gamma 100.57379
loop_
_atom_site_label
_atom_site_type_symbol
_atom_site_fract_x
_atom_site_fract_y
_atom_site_fract_z
_atom_type_partial_charge
C0 C 0.99996 0.29594 0.33141 0.0
O1 O 0.00971 0.30548 0.32182 0.0
Cd2 Cd 0.04089 0.31597 0.33311 0.0
O3 O 0.0073 0.29076 0.3458 0.0
Cd4 Cd 0.03989 0.29395 0.36132 0.0
C5 C 0.04142 0.3378 0.3765 0.0
O6 O 0.05803 0.29242 0.33415 0.0
O7 O 0.0733 0.30299 0.36059 0.0
O8 O 0.03734 0.26195 0.36356 0.0
C9 C 0.07332 0.29693 0.34365 0.0
O10 O 0.04333 0.33949 0.35957 0.0
C11 C 0.03757 0.26313 0.3811 0.0
O12 O 0.03938 0.32243 0.38155 0.0
O13 O 0.03887 0.27851 0.38966 0.0
C14 C 0.9789 0.74624 0.70273 0.0
O15 O 0.98679 0.7355 0.71052 0.0
Cd16 Cd 0.01663 0.73159 0.70376 0.0
O17 O 0.98661 0.75474 0.6907 0.0
Cd18 Cd 0.01628 0.75506 0.67633 0.0
C19 C 0.01248 0.7109 0.6602 0.0
O20 O 0.03983 0.75769 0.70471 0.0
O21 O 0.04833 0.75446 0.67742 0.0
O22 O 0.01555 0.78653 0.67376 0.0
C23 C 0.05267 0.7572 0.69487 0.0
O24 O 0.0168 0.70971 0.67724 0.0
C25 C 0.01699 0.7857 0.65647 0.0
O26 O 0.0092 0.72545 0.65551 0.0
O27 O 0.01798 0.77069 0.64829 0.0
C28 C 0.50059 0.79707 0.8311 0.0
O29 O 0.51063 0.80761 0.82269 0.0
Cd30 Cd 0.54212 0.81724 0.83313 0.0
O31 O 0.50758 0.79052 0.84473 0.0
Cd32 Cd 0.53966 0.79336 0.86133 0.0
C33 C 0.54225 0.83784 0.87686 0.0
O34 O 0.5583 0.79306 0.83425 0.0
O35 O 0.57298 0.79952 0.86157 0.0
O36 O 0.53646 0.76126 0.86354 0.0
C37 C 0.57334 0.79558 0.84421 0.0
O38 O 0.54452 0.83983 0.86007 0.0
C39 C 0.53639 0.76242 0.88106 0.0
O40 O 0.53978 0.82232 0.8816 0.0
O41 O 0.53758 0.77781 0.88956 0.0
C42 C 0.47887 0.24736 0.20455 0.0
O43 O 0.4875 0.23815 0.21389 0.0
Cd44 Cd 0.51632 0.23252 0.20568 0.0
O45 O 0.48588 0.25423 0.19112 0.0
Cd46 Cd 0.51621 0.2552 0.17747 0.0
C47 C 0.5114 0.2109 0.16202 0.0
O48 O 0.53991 0.25804 0.20589 0.0
O49 O 0.54837 0.25478 0.17856 0.0
O50 O 0.51512 0.28657 0.1747 0.0
C51 C 0.55272 0.25749 0.19601 0.0
O52 O 0.51485 0.20983 0.17925 0.0
C53 C 0.51699 0.28574 0.15749 0.0
O54 O 0.50935 0.22565 0.15687 0.0
O55 O 0.51831 0.27077 0.14946 0.0
C56 C 0.02154 0.77814 0.13752 0.0
O57 O 0.03193 0.77028 0.14659 0.0
Cd58 Cd 0.06071 0.76557 0.14135 0.0
O59 O 0.02628 0.78519 0.12315 0.0
Cd60 Cd 0.05383 0.78983 0.10461 0.0
C61 C 0.04994 0.74314 0.09562 0.0
O62 O 0.07311 0.7933 0.13407 0.0
O63 O 0.08802 0.79491 0.11089 0.0
O64 O 0.04089 0.81733 0.10106 0.0
C65 C 0.08826 0.79485 0.12833 0.0
O66 O 0.05457 0.74472 0.1131 0.0
C67 C 0.04903 0.82254 0.08769 0.0
O68 O 0.0479 0.75688 0.08782 0.0
O69 O 0.05902 0.81248 0.08135 0.0
C70 C 0.46702 0.76075 0.39943 0.0
O71 O 0.47799 0.76921 0.39008 0.0
Cd72 Cd 0.5088 0.78027 0.39874 0.0
O73 O 0.47246 0.7561 0.41506 0.0
Cd74 Cd 0.50384 0.758 0.43404 0.0
C75 C 0.50798 0.80384 0.44242 0.0
O76 O 0.52018 0.75561 0.40659 0.0
O77 O 0.53699 0.76524 0.43218 0.0
O78 O 0.49436 0.72552 0.43628 0.0
C79 C 0.53588 0.76022 0.41486 0.0
O80 O 0.51048 0.80264 0.42531 0.0
C81 C 0.5026 0.72532 0.45223 0.0
O82 O 0.50426 0.78976 0.4502 0.0
O83 O 0.5104 0.74038 0.46064 0.0
C84 C 0.52122 0.27828 0.63716 0.0
O85 O 0.53172 0.27059 0.64633 0.0
Cd86 Cd 0.56049 0.26554 0.64141 0.0
O87 O 0.52595 0.2854 0.62282 0.0
Cd88 Cd 0.55392 0.29038 0.60492 0.0
C89 C 0.54919 0.24336 0.59588 0.0
O90 O 0.57355 0.29294 0.6338 0.0
O91 O 0.58821 0.2947 0.61041 0.0
O92 O 0.54709 0.32095 0.60516 0.0
C93 C 0.58859 0.29432 0.62784 0.0
O94 O 0.55373 0.24453 0.61334 0.0
C95 C 0.54961 0.32346 0.58858 0.0
O96 O 0.54773 0.25734 0.58827 0.0
O97 O 0.5539 0.31054 0.57887 0.0
C98 C 0.9678 0.26122 0.89899 0.0
O99 O 0.97864 0.27048 0.89013 0.0
Cd100 Cd 0.00946 0.28256 0.89887 0.0
O101 O 0.97327 0.25588 0.91425 0.0
Cd102 Cd 0.00427 0.25753 0.93411 0.0
C103 C 0.00746 0.30397 0.94342 0.0
O104 O 0.02106 0.25826 0.9072 0.0
O105 O 0.03775 0.26336 0.93336 0.0
O106 O 0.00288 0.22495 0.93354 0.0
C107 C 0.03668 0.26122 0.91571 0.0
O108 O 0.00926 0.30351 0.92616 0.0
C109 C 0.00306 0.22388 0.95082 0.0
O110 O 0.00543 0.28959 0.95094 0.0
O111 O 0.00276 0.23825 0.96097 0.0
C112 C 0.41127 0.00693 0.31735 0.0
O113 O 0.42091 0.00197 0.30535 0.0
Cd114 Cd 0.41145 0.99788 0.27308 0.0
O115 O 0.39696 0.01215 0.31294 0.0
Cd116 Cd 0.37838 0.01812 0.28751 0.0
C117 C 0.36903 0.97558 0.27766 0.0
O118 O 0.40152 0.02416 0.27014 0.0
O119 O 0.3758 0.01991 0.2538 0.0
O120 O 0.38135 0.04621 0.30387 0.0
C121 C 0.39269 0.02297 0.2544 0.0
O122 O 0.38419 0.97602 0.27171 0.0
C123 C 0.36472 0.0461 0.30211 0.0
O124 O 0.36413 0.98913 0.28506 0.0
O125 O 0.35409 0.03213 0.29435 0.0
C126 C 0.29239 0.13944 0.51305 0.0
O127 O 0.28084 0.13031 0.52124 0.0
Cd128 Cd 0.25211 0.13553 0.52557 0.0
O129 O 0.28893 0.1527 0.50555 0.0
Cd130 Cd 0.26253 0.16765 0.50144 0.0
C131 C 0.26542 0.17818 0.54836 0.0
O132 O 0.24008 0.14084 0.496 0.0
O133 O 0.22983 0.16446 0.50188 0.0
O134 O 0.27001 0.16927 0.46975 0.0
C135 C 0.22662 0.14791 0.49733 0.0
O136 O 0.25909 0.16186 0.54825 0.0
C137 C 0.26764 0.18487 0.46887 0.0
O138 O 0.26873 0.18444 0.53328 0.0
O139 O 0.26343 0.19291 0.48345 0.0
C140 C 0.10733 0.03858 0.81506 0.0
O141 O 0.10011 0.04932 0.80657 0.0
Cd142 Cd 0.10492 0.05467 0.77513 0.0
O143 O 0.1186 0.03074 0.80766 0.0
Cd144 Cd 0.13344 0.03211 0.77866 0.0
C145 C 0.14786 0.07645 0.78181 0.0
O146 O 0.10702 0.02849 0.75522 0.0
O147 O 0.13278 0.03647 0.74579 0.0
O148 O 0.13465 1.00078 0.77508 0.0
C149 C 0.11602 0.03149 0.74173 0.0
O150 O 0.1318 0.0768 0.77592 0.0
C151 C 0.15142 0.00282 0.77898 0.0
O152 O 0.15225 0.06225 0.78611 0.0
O153 O 0.16008 0.01857 0.78277 0.0
C154 C 0.31749 0.95486 0.99433 0.0
O155 O 0.30835 0.96443 0.98616 0.0
Cd156 Cd 0.27727 0.95244 0.97728 0.0
O157 O 0.31029 0.94084 6e-05 0.0
Cd158 Cd 0.28516 0.92061 0.00462 0.0
C159 C 0.28365 0.91133 0.95871 0.0
O160 O 0.26696 0.94095 0.00388 0.0
O161 O 0.25317 0.91368 0.0025 0.0
O162 O 0.29313 0.92295 0.0373 0.0
C163 C 0.25248 0.9298 0.0022 0.0
O164 O 0.27974 0.92629 0.95664 0.0
C165 C 0.29413 0.90682 0.03683 0.0
O166 O 0.28644 0.90652 0.97468 0.0
O167 O 0.29167 0.89731 0.02108 0.0
C168 C 0.32149 0.41286 0.03127 0.0
O169 O 0.31188 0.42181 0.02275 0.0
Cd170 Cd 0.28135 0.41218 0.01117 0.0
O171 O 0.31474 0.39798 0.036 0.0
Cd172 Cd 0.28388 0.37987 0.03573 0.0
C173 C 0.28318 0.37045 0.98923 0.0
O174 O 0.26865 0.40436 0.03799 0.0
O175 O 0.25108 0.37911 0.0313 0.0
O176 O 0.29171 0.37902 0.06871 0.0
C177 C 0.25283 0.39567 0.03495 0.0
O178 O 0.28137 0.38636 0.9889 0.0
C179 C 0.28596 0.36263 0.06839 0.0
O180 O 0.2848 0.36416 0.00462 0.0
O181 O 0.27985 0.35388 0.05256 0.0
C182 C 0.78951 0.10081 0.04971 0.0
O183 O 0.77695 0.09041 0.05531 0.0
Cd184 Cd 0.74699 0.09489 0.05352 0.0
O185 O 0.78687 0.11367 0.04136 0.0
Cd186 Cd 0.76473 0.12883 0.03086 0.0
C187 C 0.75858 0.13763 0.07521 0.0
O188 O 0.74233 0.10383 0.02379 0.0
O189 O 0.73352 0.12871 0.02492 0.0
O190 O 0.77651 0.13036 0.0018 0.0
C191 C 0.7296 0.11204 0.02275 0.0
O192 O 0.75071 0.12171 0.07515 0.0
C193 C 0.77632 0.14665 0.00217 0.0
O194 O 0.7656 0.14294 0.06121 0.0
O195 O 0.77178 0.15473 0.01652 0.0
C196 C 0.14272 0.5385 0.27483 0.0
O197 O 0.13181 0.54274 0.26271 0.0
Cd198 Cd 0.13822 0.54601 0.23185 0.0
O199 O 0.1573 0.53446 0.27078 0.0
Cd200 Cd 0.17445 0.53076 0.24514 0.0
C201 C 0.17931 0.57325 0.24737 0.0
O202 O 0.15079 0.52169 0.22179 0.0
O203 O 0.17631 0.53111 0.21232 0.0
O204 O 0.17423 0.50277 0.25278 0.0
C205 C 0.1599 0.52419 0.20842 0.0
O206 O 0.16318 0.57052 0.23985 0.0
C207 C 0.19068 0.50319 0.2516 0.0
O208 O 0.18691 0.56082 0.25159 0.0
O209 O 0.20037 0.51763 0.24898 0.0
C210 C 0.82068 0.91171 0.53145 0.0
O211 O 0.81118 0.92034 0.5223 0.0
Cd212 Cd 0.78052 0.91167 0.51074 0.0
O213 O 0.81391 0.89708 0.53669 0.0
Cd214 Cd 0.78311 0.87902 0.53579 0.0
C215 C 0.78042 0.86966 0.48857 0.0
O216 O 0.76824 0.90352 0.53755 0.0
O217 O 0.75033 0.87837 0.53169 0.0
O218 O 0.78649 0.87852 0.56919 0.0
C219 C 0.75235 0.89501 0.53484 0.0
O220 O 0.779 0.88568 0.48827 0.0
C221 C 0.78459 0.86195 0.56852 0.0
O222 O 0.78255 0.86349 0.504 0.0
O223 O 0.78256 0.85298 0.55251 0.0
C224 C 0.94696 0.01156 0.29418 0.0
O225 O 0.95492 0.00216 0.28377 0.0
Cd226 Cd 0.9449 0.99133 0.25178 0.0
O227 O 0.93315 0.01682 0.28747 0.0
Cd228 Cd 0.91639 0.01488 0.25521 0.0
C229 C 0.90169 0.97067 0.2537 0.0
O230 O 0.94219 0.01695 0.23706 0.0
O231 O 0.91622 0.01132 0.22109 0.0
O232 O 0.91545 0.04606 0.26285 0.0
C233 C 0.93303 0.015 0.22127 0.0
O234 O 0.91764 0.96925 0.25155 0.0
C235 C 0.89885 0.04447 0.25793 0.0
O236 O 0.89734 0.98572 0.25587 0.0
O237 O 0.89018 0.02897 0.25223 0.0
C238 C 0.28833 0.59993 0.54791 0.0
O239 O 0.27556 0.58917 0.55273 0.0
Cd240 Cd 0.24624 0.59478 0.55392 0.0
O241 O 0.28613 0.61397 0.54157 0.0
Cd242 Cd 0.26397 0.63009 0.5335 0.0
C243 C 0.26063 0.63583 0.57885 0.0
O244 O 0.24147 0.60584 0.52549 0.0
O245 O 0.2326 0.63059 0.5297 0.0
O246 O 0.2747 0.63343 0.5043 0.0
C247 C 0.2287 0.61397 0.52595 0.0
O248 O 0.25148 0.62029 0.57803 0.0
C249 C 0.27373 0.64962 0.50559 0.0
O250 O 0.26725 0.64165 0.56489 0.0
O251 O 0.26991 0.65691 0.52079 0.0
C252 C 0.44637 0.50899 0.79253 0.0
O253 O 0.45387 0.49938 0.78186 0.0
Cd254 Cd 0.44435 0.49099 0.74955 0.0
O255 O 0.43333 0.5155 0.78598 0.0
Cd256 Cd 0.41615 0.51477 0.75437 0.0
C257 C 0.40113 0.4705 0.75184 0.0
O258 O 0.44133 0.51729 0.73603 0.0
O259 O 0.41533 0.50921 0.72012 0.0
O260 O 0.41596 0.54645 0.75778 0.0
C261 C 0.43203 0.5144 0.72026 0.0
O262 O 0.41707 0.46915 0.7495 0.0
C263 C 0.39921 0.54484 0.75783 0.0
O264 O 0.39676 0.48554 0.75417 0.0
O265 O 0.39023 0.52926 0.75662 0.0
C266 C 0.64465 0.04296 0.77499 0.0
O267 O 0.63346 0.04645 0.76264 0.0
Cd268 Cd 0.63893 0.04953 0.73178 0.0
O269 O 0.65933 0.03892 0.77128 0.0
Cd270 Cd 0.67528 0.0331 0.74507 0.0
C271 C 0.68156 0.07499 0.74244 0.0
O272 O 0.65002 0.02393 0.72462 0.0
O273 O 0.67399 0.02771 0.71111 0.0
O274 O 0.67532 0.00661 0.75615 0.0
C275 C 0.65708 0.02386 0.70969 0.0
O276 O 0.66509 0.07287 0.73626 0.0
C277 C 0.69157 0.00657 0.75426 0.0
O278 O 0.68852 0.06246 0.74745 0.0
O279 O 0.70106 0.02019 0.74951 0.0
C280 C 0.79323 0.64059 0.01132 0.0
O281 O 0.78248 0.6306 0.01957 0.0
Cd282 Cd 0.75457 0.63615 0.02755 0.0
O283 O 0.78912 0.65423 0.00517 0.0
Cd284 Cd 0.76213 0.66829 0.00185 0.0
C285 C 0.76656 0.67952 0.04889 0.0
O286 O 0.74054 0.64106 -0.0013 0.0
O287 O 0.72923 0.66433 0.00178 0.0
O288 O 0.76801 0.66911 0.96947 0.0
C289 C 0.72671 0.64765 -0.00053 0.0
O290 O 0.7619 0.6631 0.04974 0.0
C291 C 0.76677 0.68505 0.969 0.0
O292 O 0.7681 0.68544 0.03334 0.0
O293 O 0.7636 0.69354 0.98385 0.0
C294 C 0.91059 0.51303 0.82114 0.0
O295 O 0.92132 0.5077 0.81062 0.0
Cd296 Cd 0.91385 0.50081 0.77807 0.0
O297 O 0.89598 0.51679 0.81493 0.0
Cd298 Cd 0.87737 0.51878 0.78754 0.0
C299 C 0.87288 0.47588 0.78397 0.0
O300 O 0.90102 0.52458 0.77049 0.0
O301 O 0.87535 0.51903 0.75374 0.0
O302 O 0.87843 0.54713 0.80208 0.0
C303 C 0.89226 0.5224 0.75456 0.0
O304 O 0.88874 0.47748 0.77956 0.0
C305 C 0.8617 0.54633 0.79945 0.0
O306 O 0.86567 0.48905 0.78778 0.0
O307 O 0.85176 0.53182 0.79198 0.0
C308 C 0.81898 0.45042 0.49225 0.0
O309 O 0.80962 0.4608 0.48596 0.0
Cd310 Cd 0.77837 0.45164 0.47941 0.0
O311 O 0.81209 0.43608 0.49767 0.0
Cd312 Cd 0.7854 0.41764 0.50255 0.0
C313 C 0.78149 0.41092 0.45712 0.0
O314 O 0.77096 0.44056 0.50713 0.0
O315 O 0.75354 0.41491 0.50124 0.0
O316 O 0.79772 0.41522 0.53301 0.0
C317 C 0.75534 0.43148 0.50484 0.0
O318 O 0.77823 0.42632 0.45632 0.0
C319 C 0.79154 0.39876 0.53122 0.0
O320 O 0.78475 0.40514 0.4724 0.0
O321 O 0.78374 0.39113 0.51547 0.0
C322 C 0.60696 0.53901 0.31503 0.0
O323 O 0.5985 0.5482 0.30549 0.0
Cd324 Cd 0.60436 0.55444 0.27481 0.0
O325 O 0.61946 0.53237 0.30848 0.0
Cd326 Cd 0.63432 0.53213 0.27913 0.0
C327 C 0.64784 0.57665 0.28403 0.0
O328 O 0.6076 0.52817 0.25585 0.0
O329 O 0.63325 0.53426 0.24581 0.0
O330 O 0.63652 0.50164 0.28309 0.0
C331 C 0.61643 0.53032 0.24209 0.0
O332 O 0.63151 0.57684 0.27911 0.0
C333 C 0.65291 0.50338 0.28076 0.0
O334 O 0.65279 0.56221 0.2864 0.0
O335 O 0.66075 0.51853 0.27795 0.0
Tb336 Tb 0.05057 0.03342 0.03474 0.0
C337 C 0.98834 0.97525 0.98691 0.0
N338 N 0.99818 0.99057 0.98316 0.0
C339 C 0.99811 0.97761 0.95151 0.0
C340 C 0.98355 0.96032 0.97324 0.0
C341 C 0.00231 0.99211 0.96538 0.0
C342 C 0.9889 0.96157 0.95552 0.0
C343 C 0.97057 0.95961 0.008 0.0
C344 C 0.9818 0.9749 0.00402 0.0
C345 C 0.96646 0.94451 0.99474 0.0
C346 C 0.97292 0.94487 0.9774 0.0
Tb347 Tb 0.00258 0.01366 0.00688 0.0
N348 N 0.98579 0.9898 0.01649 0.0
C349 C 0.96336 0.96015 0.02495 0.0
C350 C 0.97797 0.99066 0.03258 0.0
C351 C 0.96692 0.97582 0.03716 0.0
H352 H 0.00848 0.00471 0.96173 0.0
H353 H 0.96092 0.97663 0.04993 0.0
H354 H 0.03963 0.04577 0.07694 0.0
H355 H 0.102 0.06514 0.99658 0.0
H356 H 0.98009 0.00284 0.04175 0.0
H357 H 0.95461 0.94872 0.0285 0.0
H358 H 0.08136 0.03982 0.00504 0.0
H359 H 0.00165 0.97895 0.93762 0.0
H360 H 0.95792 0.93262 0.99757 0.0
H361 H 0.96918 0.93327 0.9671 0.0
H362 H 0.04408 0.07299 0.09876 0.0
H363 H 0.98538 0.95044 0.94463 0.0
H364 H 0.1052 0.09468 0.0145 0.0
N365 N 0.05451 0.05752 0.05681 0.0
C366 C 0.06545 0.07219 0.05305 0.0
C367 C 0.04993 0.07304 0.0858 0.0
C368 C 0.06853 0.0881 0.06525 0.0
C369 C 0.04717 0.05762 0.0732 0.0
C370 C 0.06044 0.08843 0.08169 0.0
N371 N 0.07176 0.05513 0.02658 0.0
C372 C 0.08231 0.05272 0.01273 0.0
C373 C 0.08626 0.08572 0.03331 0.0
C374 C 0.07423 0.07099 0.03732 0.0
C375 C 0.09591 0.08366 0.01811 0.0
C376 C 0.09415 0.06701 0.00798 0.0
H377 H 0.06261 0.10035 0.09152 0.0
H378 H 0.08231 0.11539 0.07002 0.0
H379 H 0.09777 0.11334 0.04198 0.0
O380 O 0.07175 0.02034 0.03221 0.0
O381 O 0.03384 0.05329 0.02952 0.0
O382 O 0.01472 0.04086 0.00273 0.0
O383 O 0.06608 0.03074 0.05939 0.0
O384 O 0.04859 0.03455 0.00483 0.0
O385 O 0.02619 0.01102 0.99251 0.0
O386 O 0.97729 0.01961 0.01012 0.0
O387 O 0.0128 0.99587 0.02489 0.0
O388 O 0.04269 0.00485 0.02369 0.0
O389 O 0.98622 0.01623 0.98311 0.0
O390 O 0.00433 0.02908 0.03459 0.0
O391 O 0.02923 0.02278 0.05038 0.0
C392 C 0.02327 0.0547 0.01447 0.0
C393 C 0.09564 0.02567 0.05656 0.0
C394 C 0.12387 0.01684 0.0523 0.0
C395 C 0.13046 0.02384 0.07076 0.0
C396 C 0.10236 0.03289 0.07499 0.0
C397 C 0.1198 0.03211 0.08196 0.0
C398 C 0.10668 0.01808 0.0452 0.0
C399 C 0.04061 0.02261 0.99104 0.0
C400 C 0.07645 0.02247 0.05014 0.0
C401 C 0.07991 0.10301 0.0609 0.0
C402 C 0.08871 0.10184 0.04493 0.0
C403 C 0.02918 0.993 0.02731 0.0
C404 C 0.9636 0.03278 0.98606 0.0
C405 C 0.9392 0.0481 0.98999 0.0
C406 C 0.93951 0.05241 0.9718 0.0
C407 C 0.964 0.03727 0.96787 0.0
C408 C 0.95135 0.03852 0.99713 0.0
C409 C 0.95206 0.04716 0.96086 0.0
C410 C 0.01313 0.02624 0.05006 0.0
C411 C 0.97335 0.01957 0.99232 0.0
H412 H 0.14369 0.0227 0.07651 0.0
H413 H 0.09396 0.03845 0.0842 0.0
H414 H 0.12483 0.03738 0.09626 0.0
H415 H 0.10148 0.01187 0.03117 0.0
H416 H 0.93001 0.0597 0.96608 0.0
H417 H 0.97305 0.03263 0.95882 0.0
H418 H 0.95048 0.03463 0.01094 0.0
H419 H 0.95221 0.05035 0.94677 0.0
Tb420 Tb 0.2586 0.77282 0.29221 0.0
C421 C 0.30381 0.74625 0.22094 0.0
N422 N 0.30953 0.75911 0.23558 0.0
C423 C 0.33858 0.75161 0.23758 0.0
C424 C 0.31506 0.73502 0.21454 0.0
C425 C 0.32687 0.76231 0.24349 0.0
C426 C 0.33258 0.73773 0.22322 0.0
C427 C 0.28002 0.73109 0.1972 0.0
C428 C 0.28659 0.74435 0.21237 0.0
C429 C 0.29099 0.71958 0.19104 0.0
C430 C 0.30848 0.72154 0.1997 0.0
Tb431 Tb 0.28892 0.77484 0.24537 0.0
N432 N 0.27612 0.75525 0.21934 0.0
C433 C 0.26261 0.72973 0.18873 0.0
C434 C 0.25932 0.7543 0.21056 0.0
C435 C 0.25231 0.74151 0.19535 0.0
H436 H 0.33176 0.77324 0.25433 0.0
H437 H 0.23893 0.74077 0.18875 0.0
H438 H 0.21743 0.77751 0.27999 0.0
H439 H 0.31112 0.81288 0.34332 0.0
H440 H 0.25112 0.76332 0.21487 0.0
H441 H 0.25705 0.71975 0.17704 0.0
H442 H 0.29932 0.79114 0.31652 0.0
H443 H 0.35224 0.75408 0.24412 0.0
H444 H 0.2861 0.70919 0.17956 0.0
H445 H 0.31684 0.71265 0.19474 0.0
H446 H 0.19691 0.79662 0.28999 0.0
H447 H 0.34164 0.72938 0.21875 0.0
H448 H 0.29157 0.83102 0.35771 0.0
N449 N 0.2387 0.78981 0.30081 0.0
C450 C 0.24417 0.80234 0.31575 0.0
C451 C 0.21019 0.79841 0.29735 0.0
C452 C 0.23289 0.81362 0.32197 0.0
C453 C 0.22192 0.78767 0.29162 0.0
C454 C 0.2157 0.81148 0.31259 0.0
N455 N 0.27223 0.79415 0.31663 0.0
C456 C 0.29002 0.79752 0.32319 0.0
C457 C 0.26808 0.8181 0.33897 0.0
C458 C 0.26148 0.80448 0.32409 0.0
C459 C 0.28599 0.82071 0.34632 0.0
C460 C 0.29703 0.81046 0.33828 0.0
H461 H 0.20665 0.8199 0.31689 0.0
H462 H 0.23082 0.83574 0.34196 0.0
H463 H 0.26168 0.83966 0.35687 0.0
O464 O 0.25947 0.75355 0.30985 0.0
O465 O 0.26515 0.79881 0.28473 0.0
O466 O 0.28831 0.79101 0.2718 0.0
O467 O 0.23458 0.75573 0.29483 0.0
O468 O 0.28566 0.76594 0.29687 0.0
O469 O 0.30389 0.77112 0.27233 0.0
O470 O 0.28753 0.79251 0.22596 0.0
O471 O 0.27858 0.74736 0.24761 0.0
O472 O 0.26794 0.7626 0.26816 0.0
O473 O 0.31226 0.79296 0.24285 0.0
O474 O 0.26164 0.78196 0.24259 0.0
O475 O 0.24315 0.76973 0.26415 0.0
C476 C 0.27796 0.80243 0.27444 0.0
C477 C 0.23375 0.74721 0.325 0.0
C478 C 0.2355 0.73953 0.3565 0.0
C479 C 0.21774 0.74154 0.35742 0.0
C480 C 0.21599 0.74913 0.32598 0.0
C481 C 0.20812 0.7465 0.34226 0.0
C482 C 0.24346 0.74288 0.34044 0.0
C483 C 0.30107 0.76666 0.28932 0.0
C484 C 0.24218 0.74847 0.30779 0.0
C485 C 0.23926 0.82691 0.33701 0.0
C486 C 0.25681 0.82912 0.34552 0.0
C487 C 0.26878 0.74702 0.26084 0.0
C488 C 0.3141 0.80104 0.21255 0.0
C489 C 0.31387 0.80965 0.18142 0.0
C490 C 0.33235 0.81002 0.18236 0.0
C491 C 0.33254 0.80146 0.21335 0.0
C492 C 0.30485 0.80462 0.19639 0.0
C493 C 0.34155 0.80571 0.19817 0.0
C494 C 0.24569 0.77717 0.24866 0.0
C495 C 0.3046 0.79901 0.22899 0.0
H496 H 0.21108 0.73872 0.36952 0.0
H497 H 0.20814 0.75242 0.31418 0.0
H498 H 0.19439 0.74783 0.34294 0.0
H499 H 0.25723 0.74163 0.33977 0.0
H500 H 0.33985 0.81421 0.17123 0.0
H501 H 0.34006 0.79892 0.22578 0.0
H502 H 0.29059 0.8041 0.19574 0.0
H503 H 0.3558 0.80624 0.1989 0.0
Tb504 Tb 0.50038 0.01897 0.53237 0.0
C505 C 0.56653 0.05786 0.49236 0.0
N506 N 0.55497 0.04244 0.48619 0.0
C507 C 0.55578 0.04868 0.45466 0.0
C508 C 0.57278 0.06959 0.47992 0.0
C509 C 0.54998 0.03748 0.46755 0.0
C510 C 0.56707 0.0649 0.46089 0.0
C511 C 0.58508 0.07718 0.51809 0.0
C512 C 0.57268 0.06156 0.51115 0.0
C513 C 0.59093 0.08917 0.50586 0.0
C514 C 0.58482 0.08537 0.48681 0.0
Tb515 Tb 0.54689 0.025 0.50848 0.0
N516 N 0.56666 0.04966 0.52257 0.0
C517 C 0.59151 0.08007 0.53704 0.0
C518 C 0.57383 0.05191 0.54075 0.0
C519 C 0.58604 0.06725 0.54837 0.0
H520 H 0.54166 0.02471 0.46259 0.0
H521 H 0.59145 0.06902 0.56289 0.0
H522 H 0.51102 0.01862 0.57817 0.0
H523 H 0.4619 0.96984 0.47809 0.0
H524 H 0.57057 0.0418 0.54932 0.0
H525 H 0.60108 0.09189 0.54293 0.0
H526 H 0.48262 0.99771 0.49036 0.0
H527 H 0.55164 0.04472 0.43993 0.0
H528 H 0.60042 0.10127 0.51094 0.0
H529 H 0.58971 0.09458 0.47748 0.0
H530 H 0.50412 0.99791 0.60085 0.0
H531 H 0.57162 0.07351 0.45087 0.0
H532 H 0.45159 0.94863 0.49956 0.0
N533 N 0.49616 1.00115 0.55503 0.0
C534 C 0.48475 0.98548 0.54929 0.0
C535 C 0.49872 0.9942 0.58636 0.0
C536 C 0.48 0.97349 0.56197 0.0
C537 C 0.50293 0.00577 0.57335 0.0
C538 C 0.48722 0.97799 0.58067 0.0
N539 N 0.48348 0.99279 0.51844 0.0
C540 C 0.47774 0.98891 0.49986 0.0
C541 C 0.46638 0.96505 0.5241 0.0
C542 C 0.47792 0.98132 0.53053 0.0
C543 C 0.46043 0.96102 0.50504 0.0
C544 C 0.46622 0.97296 0.49288 0.0
H545 H 0.4839 0.96912 0.59083 0.0
H546 H 0.46436 0.94808 0.56522 0.0
H547 H 0.45251 0.94069 0.53211 0.0
O548 O 0.47716 0.02789 0.52288 0.0
O549 O 0.51097 0.9951 0.52263 0.0
O550 O 0.52661 1.00128 0.49779 0.0
O551 O 0.48289 0.02459 0.55159 0.0
O552 O 0.50296 0.03236 0.50795 0.0
O553 O 0.52236 0.02112 0.48949 0.0
O554 O 0.56809 0.01228 0.51834 0.0
O555 O 0.53859 0.04998 0.51878 0.0
O556 O 0.51773 0.04544 0.54032 0.0
O557 O 0.56153 0.01471 0.48913 0.0
O558 O 0.54198 0.01355 0.53388 0.0
O559 O 0.52435 0.0278 0.55121 0.0
C560 C 0.51854 0.98993 0.50791 0.0
C561 C 0.46679 0.04683 0.54543 0.0
C562 C 0.44515 0.06597 0.54241 0.0
C563 C 0.45363 0.07653 0.55885 0.0
C564 C 0.47533 0.05779 0.56168 0.0
C565 C 0.46873 0.07253 0.56832 0.0
C566 C 0.4518 0.05115 0.53565 0.0
C567 C 0.50804 0.02784 0.49182 0.0
C568 C 0.47236 0.03011 0.53952 0.0
C569 C 0.46822 0.95742 0.55564 0.0
C570 C 0.46143 0.95322 0.53678 0.0
C571 C 0.5291 0.05584 0.53162 0.0
C572 C 0.58568 0.99966 0.4949 0.0
C573 C 0.61185 0.98632 0.50026 0.0
C574 C 0.61227 0.98324 0.48096 0.0
C575 C 0.58636 0.99615 0.47559 0.0
C576 C 0.59841 0.99443 0.50733 0.0
C577 C 0.59952 0.988 0.46873 0.0
C578 C 0.53895 0.0217 0.54956 0.0
C579 C 0.57175 0.00906 0.50128 0.0
H580 H 0.44853 0.0879 0.56434 0.0
H581 H 0.48689 0.0548 0.5695 0.0
H582 H 0.47519 0.08074 0.58099 0.0
H583 H 0.445 0.04274 0.5232 0.0
H584 H 0.62239 0.97684 0.47532 0.0
H585 H 0.57674 0.9998 0.46562 0.0
H586 H 0.59806 0.99687 0.52223 0.0
H587 H 0.59987 0.98541 0.45386 0.0
Tb588 Tb 0.29953 0.26619 0.77246 0.0
C589 C 0.23577 0.28931 0.72796 0.0
N590 N 0.24589 0.29787 0.74386 0.0
C591 C 0.24715 0.32548 0.73184 0.0
C592 C 0.23102 0.29858 0.7133 0.0
C593 C 0.25136 0.31578 0.74612 0.0
C594 C 0.23698 0.31686 0.71535 0.0
C595 C 0.21903 0.26191 0.7105 0.0
C596 C 0.22995 0.27115 0.7265 0.0
C597 C 0.21435 0.2711 0.69581 0.0
C598 C 0.22036 0.28937 0.69719 0.0
Tb599 Tb 0.25132 0.28027 0.76596 0.0
N600 N 0.235 0.26258 0.74086 0.0
C601 C 0.21286 0.24377 0.7099 0.0
C602 C 0.22798 0.24522 0.7409 0.0
C603 C 0.21716 0.23544 0.72529 0.0
H604 H 0.25858 0.32274 0.75906 0.0
H605 H 0.21182 0.22158 0.72531 0.0
H606 H 0.29114 0.22366 0.77917 0.0
H607 H 0.34291 0.32324 0.81154 0.0
H608 H 0.23007 0.23905 0.75316 0.0
H609 H 0.20436 0.23619 0.69789 0.0
H610 H 0.3227 0.30647 0.78451 0.0
H611 H 0.25155 0.33965 0.73366 0.0
H612 H 0.20596 0.26422 0.68339 0.0
H613 H 0.21654 0.29627 0.68579 0.0
H614 H 0.29747 0.20645 0.80449 0.0
H615 H 0.23361 0.32446 0.70439 0.0
H616 H 0.35015 0.30844 0.83889 0.0
N617 N 0.30459 0.24828 0.79438 0.0
C618 C 0.31512 0.25651 0.81015 0.0
C619 C 0.30241 0.22054 0.80631 0.0
C620 C 0.31968 0.24701 0.82468 0.0
C621 C 0.29856 0.23044 0.79208 0.0
C622 C 0.31295 0.22886 0.82271 0.0
N623 N 0.31687 0.28326 0.79725 0.0
C624 C 0.32484 0.3003 0.7968 0.0
C625 C 0.33353 0.28334 0.82708 0.0
C626 C 0.32173 0.27451 0.81149 0.0
C627 C 0.34085 0.30121 0.82726 0.0
C628 C 0.33669 0.30965 0.81191 0.0
H629 H 0.31609 0.2211 0.83359 0.0
H630 H 0.33471 0.24879 0.85182 0.0
H631 H 0.34705 0.28051 0.8538 0.0
O632 O 0.32012 0.27539 0.75621 0.0
O633 O 0.28708 0.27354 0.79767 0.0
O634 O 0.26878 0.29328 0.79099 0.0
O635 O 0.31966 0.25168 0.76878 0.0
O636 O 0.29699 0.29039 0.7601 0.0
O637 O 0.27428 0.30222 0.77257 0.0
O638 O 0.23094 0.27173 0.78293 0.0
O639 O 0.26437 0.27349 0.74085 0.0
O640 O 0.28178 0.25331 0.7478 0.0
O641 O 0.23025 0.29373 0.76791 0.0
O642 O 0.25373 0.25636 0.77885 0.0
O643 O 0.27618 0.24471 0.76586 0.0
C644 C 0.27847 0.28611 0.80278 0.0
C645 C 0.33678 0.25446 0.74324 0.0
C646 C 0.36205 0.25622 0.72466 0.0
C647 C 0.35714 0.23798 0.71915 0.0
C648 C 0.33202 0.23628 0.73708 0.0
C649 C 0.34217 0.22815 0.72518 0.0
C650 C 0.35175 0.26449 0.73669 0.0
C651 C 0.28946 0.30379 0.76519 0.0
C652 C 0.32819 0.26235 0.75868 0.0
C653 C 0.33102 0.25587 0.84053 0.0
C654 C 0.33801 0.27395 0.84167 0.0
C655 C 0.27321 0.26109 0.73575 0.0
C656 C 0.2134 0.29305 0.7936 0.0
C657 C 0.1875 0.29346 0.81124 0.0
C658 C 0.19213 0.31194 0.81415 0.0
C659 C 0.21791 0.3115 0.79755 0.0
C660 C 0.19828 0.28398 0.80089 0.0
C661 C 0.2072 0.32081 0.80745 0.0
C662 C 0.26164 0.24312 0.77434 0.0
C663 C 0.22217 0.28394 0.77904 0.0
H664 H 0.36499 0.2313 0.71018 0.0
H665 H 0.32081 0.22819 0.74199 0.0
H666 H 0.33863 0.21408 0.7209 0.0
H667 H 0.35584 0.27845 0.74159 0.0
H668 H 0.18413 0.3196 0.82187 0.0
H669 H 0.22928 0.31889 0.79219 0.0
H670 H 0.19441 0.26978 0.79771 0.0
H671 H 0.21053 0.33505 0.80979 0.0
Tb672 Tb 0.03503 1.00035 0.51727 0.0
C673 C 0.00871 0.06239 0.56031 0.0
N674 N 0.00145 0.0546 0.54297 0.0
C675 C 0.97214 0.0555 0.55145 0.0
C676 C 0.99794 0.06602 0.57431 0.0
C677 C 0.98352 0.05253 0.53798 0.0
C678 C 0.97937 0.06177 0.56986 0.0
C679 C 0.03479 0.07968 0.57973 0.0
C680 C 0.02681 0.06913 0.56303 0.0
C681 C 0.02447 0.08186 0.59446 0.0
C682 C 0.00602 0.07501 0.59175 0.0
Tb683 Tb 0.02138 0.04891 0.5227 0.0
N684 N 0.03612 0.06713 0.54829 0.0
C685 C 0.05245 0.08877 0.58051 0.0
C686 C 0.05225 0.07785 0.54804 0.0
C687 C 0.06102 0.08831 0.56437 0.0
H688 H 0.97799 0.04834 0.5236 0.0
H689 H 0.0742 0.09622 0.5644 0.0
H690 H 0.07898 0.00652 0.51427 0.0
H691 H 0.97798 0.96253 0.47139 0.0
H692 H 0.05826 0.07813 0.53523 0.0
H693 H 0.05911 0.09709 0.59306 0.0
H694 H 0.99288 0.98286 0.49882 0.0
H695 H 0.95785 0.05315 0.54758 0.0
H696 H 0.03039 0.08968 0.60756 0.0
H697 H 0.99801 0.07768 0.60282 0.0
H698 H 0.09847 0.99832 0.4913 0.0
H699 H 0.97057 0.06436 0.58018 0.0
H700 H 0.99587 0.9513 0.44801 0.0
N701 N 0.05479 0.99437 0.49706 0.0
C702 C 0.04745 0.98358 0.48117 0.0
C703 C 0.08413 0.99424 0.48819 0.0
C704 C 0.05822 0.97806 0.46791 0.0
C705 C 0.07294 0.99914 0.50106 0.0
C706 C 0.07674 0.98378 0.47146 0.0
N707 N 0.01906 0.98328 0.49143 0.0
C708 C 0.00091 0.97815 0.48892 0.0
C709 C 0.02102 0.96622 0.46222 0.0
C710 C 0.02905 0.97771 0.47836 0.0
C711 C 0.00248 0.96051 0.45992 0.0
C712 C 0.99237 0.96669 0.4732 0.0
H713 H 0.08547 0.97985 0.4616 0.0
H714 H 0.05831 0.96228 0.44145 0.0
H715 H 0.02579 0.95175 0.43661 0.0
O716 O 0.0288 0.97345 0.52256 0.0
O717 O 0.02903 0.01338 0.49237 0.0
O718 O 0.00732 0.02883 0.50037 0.0
O719 O 0.05386 0.99113 0.53415 0.0
O720 O 0.00934 1.00069 0.52742 0.0
O721 O 0.99835 0.02622 0.52207 0.0
O722 O 0.02832 0.06289 0.50018 0.0
O723 O 0.04006 0.04236 0.5445 0.0
O724 O 0.02866 0.01313 0.5434 0.0
O725 O 0.01222 0.07243 0.51972 0.0
O726 O 0.04608 0.04562 0.51067 0.0
O727 O 0.05702 0.02301 0.52335 0.0
C728 C 0.01509 0.02051 0.4878 0.0
C729 C 0.05119 0.9613 0.54139 0.0
C730 C 0.04783 0.93437 0.55651 0.0
C731 C 0.06628 0.93503 0.55669 0.0
C732 C 0.06958 0.96153 0.54192 0.0
C733 C 0.07703 0.94851 0.54953 0.0
C734 C 0.04025 0.94769 0.54889 0.0
C735 C 0.9964 0.00974 0.52633 0.0
C736 C 0.04395 0.97547 0.53306 0.0
C737 C 0.05024 0.9667 0.45176 0.0
C738 C 0.03171 0.96071 0.44899 0.0
C739 C 0.0377 0.02797 0.55252 0.0
C740 C 0.00962 0.08224 0.49022 0.0
C741 C 0.00653 0.10614 0.47149 0.0
C742 C 0.98878 0.09762 0.46542 0.0
C743 C 0.99196 0.07397 0.48375 0.0
C744 C 0.01699 0.09821 0.48381 0.0
C745 C 0.98164 0.08163 0.47137 0.0
C746 C 0.05914 0.03744 0.51535 0.0
C747 C 0.01991 0.07538 0.50498 0.0
H748 H 0.07246 0.92513 0.56262 0.0
H749 H 0.07825 0.97179 0.53633 0.0
H750 H 0.09123 0.94887 0.54989 0.0
H751 H 0.02606 0.94739 0.54868 0.0
H752 H 0.98041 0.10333 0.45594 0.0
H753 H 0.98605 0.0618 0.48859 0.0
H754 H 0.03057 0.10478 0.48896 0.0
H755 H 0.96795 0.07526 0.46657 0.0
Tb756 Tb 0.27822 0.79635 0.75726 0.0
C757 C 0.23522 0.73312 0.79146 0.0
N758 N 0.25086 0.74409 0.79869 0.0
C759 C 0.24086 0.74586 0.82897 0.0
C760 C 0.22163 0.72831 0.80271 0.0
C761 C 0.25399 0.75016 0.81727 0.0
C762 C 0.22456 0.73497 0.82165 0.0
C763 C 0.21706 0.71498 0.76465 0.0
C764 C 0.2329 0.72664 0.77263 0.0
C765 C 0.20342 0.71023 0.77579 0.0
C766 C 0.20568 0.71691 0.79475 0.0
Tb767 Tb 0.27125 0.74946 0.77811 0.0
N768 N 0.24623 0.73187 0.76215 0.0
C769 C 0.21559 0.70822 0.7458 0.0
C770 C 0.24539 0.72435 0.74423 0.0
C771 C 0.22994 0.71273 0.73562 0.0
H772 H 0.26684 0.75767 0.82324 0.0
H773 H 0.22925 0.70696 0.72128 0.0
H774 H 0.27959 0.78566 0.71171 0.0
H775 H 0.32412 0.83997 0.81061 0.0
H776 H 0.25688 0.72671 0.73685 0.0
H777 H 0.20368 0.69912 0.73915 0.0
H778 H 0.29671 0.81839 0.79827 0.0
H779 H 0.24343 0.75071 0.84369 0.0
H780 H 0.19113 0.70129 0.76991 0.0
H781 H 0.19508 0.71304 0.80318 0.0
H782 H 0.30082 0.79269 0.68901 0.0
H783 H 0.21446 0.73157 0.83078 0.0
H784 H 0.34634 0.84958 0.78947 0.0
N785 N 0.29674 0.80103 0.73478 0.0
C786 C 0.3122 0.81288 0.74041 0.0
C787 C 0.30427 0.79831 0.70346 0.0
C788 C 0.32448 0.81772 0.72777 0.0
C789 C 0.29242 0.79405 0.71647 0.0
C790 C 0.3204 0.81013 0.70914 0.0
N791 N 0.3038 0.81484 0.77089 0.0
C792 C 0.30652 0.82197 0.78914 0.0
C793 C 0.33153 0.83265 0.76534 0.0
C794 C 0.31571 0.82025 0.75898 0.0
C795 C 0.33453 0.83976 0.78414 0.0
C796 C 0.322 0.83438 0.79609 0.0
H797 H 0.32948 0.81351 0.69898 0.0
H798 H 0.34989 0.83394 0.72455 0.0
H799 H 0.35606 0.84701 0.75744 0.0
O800 O 0.26716 0.81892 0.76639 0.0
O801 O 0.30303 0.78667 0.7659 0.0
O802 O 0.29747 0.76669 0.78737 0.0
O803 O 0.2702 0.81117 0.73733 0.0
O804 O 0.26675 0.7926 0.78303 0.0
O805 O 0.27981 0.77293 0.79833 0.0
O806 O 0.28209 0.72736 0.76889 0.0
O807 O 0.24705 0.76077 0.7711 0.0
O808 O 0.25277 0.77789 0.74751 0.0
O809 O 0.27612 0.73202 0.79706 0.0
O810 O 0.28309 0.75154 0.752 0.0
O811 O 0.26978 0.77208 0.73916 0.0
C812 C 0.30849 0.77724 0.77863 0.0
C813 C 0.25851 0.83754 0.74263 0.0
C814 C 0.24178 0.86133 0.74585 0.0
C815 C 0.24482 0.86478 0.72777 0.0
C816 C 0.26144 0.84144 0.7246 0.0
C817 C 0.25466 0.85495 0.71728 0.0
C818 C 0.24882 0.84777 0.75343 0.0
C819 C 0.27384 0.7877 0.79819 0.0
C820 C 0.26522 0.82238 0.74924 0.0
C821 C 0.3403 0.83004 0.73407 0.0
C822 C 0.34381 0.83751 0.75279 0.0
C823 C 0.24153 0.769 0.75737 0.0
C824 C 0.29883 0.71566 0.79208 0.0
C825 C 0.31709 0.69309 0.78989 0.0
C826 C 0.32654 0.70053 0.80725 0.0
C827 C 0.30866 0.72309 0.80934 0.0
C828 C 0.30328 0.70073 0.78227 0.0
C829 C 0.32242 0.71552 0.81683 0.0
C830 C 0.27926 0.75989 0.73793 0.0
C831 C 0.2827 0.72199 0.78522 0.0
H832 H 0.23958 0.8752 0.72177 0.0
H833 H 0.26894 0.83395 0.71599 0.0
H834 H 0.25694 0.85774 0.70337 0.0
H835 H 0.24637 0.84493 0.76731 0.0
H836 H 0.33709 0.69469 0.8134 0.0
H837 H 0.30547 0.73447 0.81727 0.0
H838 H 0.29567 0.69474 0.76906 0.0
H839 H 0.32974 0.72115 0.83025 0.0
Tb840 Tb 0.52177 0.03814 0.99433 0.0
C841 C 0.5596 0.00179 0.0632 0.0
N842 N 0.54616 0.99416 0.04976 0.0
C843 C 0.56011 0.96916 0.04447 0.0
C844 C 0.57431 0.99382 0.06736 0.0
C845 C 0.54594 0.9778 0.04078 0.0
C846 C 0.57455 0.97736 0.0576 0.0
C847 C 0.57075 0.025 0.08862 0.0
C848 C 0.55785 0.01707 0.07352 0.0
C849 C 0.58616 0.01793 0.09209 0.0
C850 C 0.58791 0.00228 0.0815 0.0
Tb851 Tb 0.52476 0.01015 0.04275 0.0
N852 N 0.54256 0.0231 0.06984 0.0
C853 C 0.56724 0.03913 0.10031 0.0
C854 C 0.53813 0.03531 0.08259 0.0
C855 C 0.5506 0.04394 0.09762 0.0
H856 H 0.53476 0.97127 0.03095 0.0
H857 H 0.54729 0.05417 0.10722 0.0
H858 H 0.51849 0.07983 0.00659 0.0
H859 H 0.48395 0.98791 0.94008 0.0
H860 H 0.52504 0.03862 0.08124 0.0
H861 H 0.57681 0.0457 0.11203 0.0
H862 H 0.50728 0.99978 0.96568 0.0
H863 H 0.55984 0.95619 0.03722 0.0
H864 H 0.5964 0.024 0.10341 0.0
H865 H 0.59949 0.99654 0.08474 0.0
H866 H 0.49897 0.09998 0.9974 0.0
H867 H 0.58551 0.97066 0.06046 0.0
H868 H 0.46335 0.00644 0.92884 0.0
N869 N 0.50493 0.05828 0.98661 0.0
C870 C 0.4918 0.05273 0.97217 0.0
C871 C 0.49674 0.08669 0.99025 0.0
C872 C 0.48036 0.06389 0.96641 0.0
C873 C 0.50767 0.07512 0.99554 0.0
C874 C 0.48297 0.08103 0.97568 0.0
N875 N 0.50069 0.02527 0.96959 0.0
C876 C 0.49881 0.00832 0.96117 0.0
C877 C 0.47585 0.02928 0.94854 0.0
C878 C 0.48965 0.03571 0.96329 0.0
C879 C 0.47382 0.01189 0.94015 0.0
C880 C 0.48539 1.0014 0.94647 0.0
H881 H 0.47448 0.09 0.97166 0.0
H882 H 0.4577 0.06593 0.94714 0.0
H883 H 0.45369 0.03556 0.93155 0.0
O884 O 0.54135 0.03526 0.97669 0.0
O885 O 0.49506 0.02553 -0.00159 0.0
O886 O 0.51281 0.01879 0.01958 0.0
O887 O 0.53705 0.06099 0.98691 0.0
O888 O 0.52889 0.01129 0.99082 0.0
O889 O 0.52177 0.99386 0.01504 0.0
O890 O 0.50248 0.00945 0.05731 0.0
O891 O 0.54984 0.01778 0.03175 0.0
O892 O 0.53992 0.03974 0.01943 0.0
O893 O 0.51001 0.98546 0.04648 0.0
O894 O 0.52072 0.03806 0.04836 0.0
O895 O 0.51972 0.05343 0.02174 0.0
C896 C 0.49653 0.01747 0.01271 0.0
C897 C 0.54572 0.05689 0.95682 0.0
C898 C 0.55647 0.05218 0.92694 0.0
C899 C 0.54717 0.06458 0.92028 0.0
C900 C 0.53641 0.0694 0.95026 0.0
C901 C 0.53723 0.07325 0.93201 0.0
C902 C 0.55588 0.04853 0.94516 0.0
C903 C 0.52643 0.99602 0.99804 0.0
C904 C 0.54519 0.05208 0.97561 0.0
C905 C 0.46666 0.05758 0.95169 0.0
C906 C 0.46439 0.0403 0.9428 0.0
C907 C 0.55214 0.03031 0.02119 0.0
C908 C 0.49899 0.98651 0.07575 0.0
C909 C 0.49132 0.99151 0.10727 0.0
C910 C 0.49753 0.97632 0.11139 0.0
C911 C 0.50498 0.97122 0.07994 0.0
C912 C 0.49211 0.99649 0.08946 0.0
C913 C 0.50428 0.96622 0.09773 0.0
C914 C 0.51883 0.05218 0.03987 0.0
C915 C 0.50008 0.9925 0.05739 0.0
H916 H 0.54788 0.06773 0.90621 0.0
H917 H 0.52854 0.07616 0.95912 0.0
H918 H 0.53018 0.08296 0.92698 0.0
H919 H 0.56331 0.03907 0.95022 0.0
H920 H 0.4967 0.97199 0.12497 0.0
H921 H 0.51026 0.9632 0.06955 0.0
H922 H 0.48735 0.00824 0.0863 0.0
H923 H 0.50886 0.95443 0.10091 0.0
Tb924 Tb 0.26479 0.2498 0.25444 0.0
C925 C 0.32488 0.30769 0.29802 0.0
N926 N 0.30951 0.29833 0.3027 0.0
C927 C 0.32413 0.29709 0.33304 0.0
C928 C 0.3406 0.31184 0.3107 0.0
C929 C 0.30885 0.29339 0.3201 0.0
C930 C 0.3401 0.30629 0.32832 0.0
C931 C 0.34037 0.32351 0.27551 0.0
C932 C 0.3247 0.31355 0.2806 0.0
C933 C 0.356 0.32772 0.28817 0.0
C934 C 0.35612 0.32189 0.30568 0.0
Tb935 Tb 0.28489 0.29718 0.2822 0.0
N936 N 0.30908 0.30998 0.26896 0.0
C937 C 0.33973 0.32938 0.25803 0.0
C938 C 0.30845 0.31596 0.25201 0.0
C939 C 0.32378 0.32538 0.24615 0.0
H940 H 0.29641 0.28745 0.32452 0.0
H941 H 0.32312 0.3301 0.23271 0.0
H942 H 0.25203 0.25664 0.21087 0.0
H943 H 0.23062 0.20961 0.3008 0.0
H944 H 0.29618 0.31433 0.24319 0.0
H945 H 0.35133 0.33738 0.25373 0.0
H946 H 0.25646 0.22746 0.28977 0.0
H947 H 0.32342 0.29333 0.34686 0.0
H948 H 0.36801 0.33574 0.2847 0.0
H949 H 0.36824 0.32543 0.31535 0.0
H950 H 0.2247 0.25011 0.18899 0.0
H951 H 0.35184 0.30941 0.33852 0.0
H952 H 0.20126 0.20307 0.28152 0.0
N953 N 0.23979 0.24573 0.23311 0.0
C954 C 0.22483 0.23566 0.23781 0.0
C955 C 0.22442 0.24631 0.20284 0.0
C956 C 0.20893 0.23097 0.22538 0.0
C957 C 0.23988 0.25051 0.21558 0.0
C958 C 0.20881 0.23665 0.20782 0.0
N959 N 0.24158 0.23319 0.26588 0.0
C960 C 0.24359 0.22571 0.28186 0.0
C961 C 0.21081 0.21808 0.2599 0.0
C962 C 0.2258 0.22907 0.25468 0.0
C963 C 0.21248 0.21144 0.27694 0.0
C964 C 0.229 0.21517 0.2879 0.0
H965 H 0.19694 0.23315 0.1978 0.0
H966 H 0.18156 0.21651 0.22122 0.0
H967 H 0.18314 0.20547 0.25161 0.0
O968 O 0.27865 0.22909 0.25835 0.0
O969 O 0.24637 0.26145 0.27148 0.0
O970 O 0.25559 0.29171 0.27375 0.0
O971 O 0.26256 0.22988 0.2321 0.0
O972 O 0.27958 0.25191 0.28231 0.0
O973 O 0.27324 0.27687 0.298 0.0
O974 O 0.28898 0.32475 0.28592 0.0
O975 O 0.30301 0.2787 0.27552 0.0
O976 O 0.29 0.26456 0.2471 0.0
O977 O 0.27966 0.30986 0.30749 0.0
O978 O 0.27053 0.29803 0.25478 0.0
O979 O 0.27145 0.27126 0.23773 0.0
C980 C 0.24329 0.2776 0.27478 0.0
C981 C 0.27734 0.20528 0.23307 0.0
C982 C 0.2909 0.17992 0.23632 0.0
C983 C 0.28726 0.17469 0.21705 0.0
C984 C 0.27352 0.19989 0.21379 0.0
C985 C 0.27849 0.18463 0.20585 0.0
C986 C 0.28591 0.19517 0.24429 0.0
C987 C 0.27659 0.26096 0.29768 0.0
C988 C 0.27287 0.22164 0.24139 0.0
C989 C 0.19388 0.22024 0.23059 0.0
C990 C 0.19479 0.21389 0.24786 0.0
C991 C 0.30441 0.27084 0.25891 0.0
C992 C 0.2705 0.33683 0.3059 0.0
C993 C 0.25216 0.35708 0.29598 0.0
C994 C 0.24654 0.359 0.31376 0.0
C995 C 0.26502 0.339 0.32374 0.0
C996 C 0.26411 0.34605 0.29206 0.0
C997 C 0.25304 0.35002 0.32761 0.0
C998 C 0.26901 0.28764 0.23887 0.0
C999 C 0.28331 0.3254 0.30223 0.0
H1000 H 0.29099 0.16282 0.21076 0.0
H1001 H 0.26689 0.20754 0.20484 0.0
H1002 H 0.27558 0.18054 0.191 0.0
H1003 H 0.2889 0.19923 0.25918 0.0
H1004 H 0.23745 0.36773 0.31699 0.0
H1005 H 0.27007 0.33221 0.33469 0.0
H1006 H 0.26839 0.34477 0.27828 0.0
H1007 H 0.2489 0.35171 0.3414 0.0
Tb1008 Tb 0.5345 0.49943 0.01378 0.0
C1009 C 0.51017 0.56319 0.06104 0.0
N1010 N 0.50208 0.55476 0.04419 0.0
C1011 C 0.47335 0.55697 0.05353 0.0
C1012 C 0.50005 0.56855 0.07501 0.0
C1013 C 0.48398 0.55214 0.04002 0.0
C1014 C 0.48141 0.56504 0.07117 0.0
C1015 C 0.5376 0.57673 0.08091 0.0
C1016 C 0.52874 0.56725 0.06396 0.0
C1017 C 0.52757 0.58171 0.09505 0.0
C1018 C 0.50885 0.57761 0.09212 0.0
Tb1019 Tb 0.52093 0.54743 0.02367 0.0
N1020 N 0.53807 0.56205 0.05004 0.0
C1021 C 0.55628 0.58123 0.08297 0.0
C1022 C 0.55617 0.56731 0.05155 0.0
C1023 C 0.56558 0.57668 0.06814 0.0
H1024 H 0.47785 0.54683 0.02607 0.0
H1025 H 0.57997 0.58054 0.06942 0.0
H1026 H 0.57824 0.50321 0.01093 0.0
H1027 H 0.47623 0.46559 0.96728 0.0
H1028 H 0.56337 0.56432 0.04007 0.0
H1029 H 0.5636 0.58856 0.09576 0.0
H1030 H 0.49214 0.4841 0.99565 0.0
H1031 H 0.45899 0.55472 0.05024 0.0
H1032 H 0.53414 0.58897 0.1082 0.0
H1033 H 0.5013 0.5818 0.10305 0.0
H1034 H 0.59731 0.49501 0.98733 0.0
H1035 H 0.47315 0.56894 0.08154 0.0
H1036 H 0.49329 0.45527 0.9425 0.0
N1037 N 0.55389 0.49285 0.99341 0.0
C1038 C 0.54607 0.48321 0.97699 0.0
C1039 C 0.58292 0.49178 0.98418 0.0
C1040 C 0.55647 0.47755 0.96343 0.0
C1041 C 0.57207 0.49678 0.99737 0.0
C1042 C 0.5751 0.48219 0.9671 0.0
N1043 N 0.51787 0.48443 0.98725 0.0
C1044 C 0.4997 0.4796 0.98514 0.0
C1045 C 0.519 0.46795 0.95745 0.0
C1046 C 0.52753 0.47848 0.97402 0.0
C1047 C 0.50033 0.46335 0.95502 0.0
C1048 C 0.49066 0.46917 0.96895 0.0
H1049 H 0.58355 0.47812 0.95702 0.0
H1050 H 0.55578 0.46269 0.93628 0.0
H1051 H 0.52301 0.45428 0.93106 0.0
O1052 O 0.52348 0.4802 0.0302 0.0
O1053 O 0.52418 0.51173 0.98984 0.0
O1054 O 0.50561 0.53064 -0.00055 0.0
O1055 O 0.54599 0.47716 0.01588 0.0
O1056 O 0.51217 0.5033 0.02946 0.0
O1057 O 0.498 0.52503 0.01972 0.0
O1058 O 0.53176 0.56608 0.00646 0.0
O1059 O 0.53052 0.53479 0.04757 0.0
O1060 O 0.54936 0.5159 0.03866 0.0
O1061 O 0.51017 0.57018 0.02168 0.0
O1062 O 0.54306 0.54282 0.00791 0.0
O1063 O 0.55714 0.52179 0.01896 0.0
C1064 C 0.51207 0.52147 0.98633 0.0
C1065 C 0.5433 0.46276 0.04263 0.0
C1066 C 0.54347 0.4379 0.06061 0.0
C1067 C 0.56131 0.44509 0.06767 0.0
C1068 C 0.56091 0.46997 0.05055 0.0
C1069 C 0.56983 0.46114 0.06293 0.0
C1070 C 0.53443 0.44684 0.04806 0.0
C1071 C 0.49758 0.5092 0.02497 0.0
C1072 C 0.53515 0.47039 0.02696 0.0
C1073 C 0.548 0.46719 0.94684 0.0
C1074 C 0.52933 0.46237 0.94388 0.0
C1075 C 0.54265 0.52524 0.05144 0.0
C1076 C 0.51161 0.58329 0.994 0.0
C1077 C 0.51013 0.60687 0.97431 0.0
C1078 C 0.49261 0.59843 0.96719 0.0
C1079 C 0.49399 0.57542 0.98673 0.0
C1080 C 0.51977 0.59905 0.98758 0.0
C1081 C 0.48469 0.58281 0.97326 0.0
C1082 C 0.55768 0.53731 0.01315 0.0
C1083 C 0.52048 0.5763 0.00985 0.0
H1084 H 0.56856 0.43841 0.07721 0.0
H1085 H 0.568 0.48215 0.04666 0.0
H1086 H 0.58351 0.46662 0.06868 0.0
H1087 H 0.52086 0.44109 0.04201 0.0
H1088 H 0.48493 0.60407 0.957 0.0
H1089 H 0.48718 0.56384 0.99194 0.0
H1090 H 0.53316 0.60557 0.99348 0.0
H1091 H 0.47109 0.57663 0.96784 0.0
Tb1092 Tb 0.77787 0.29637 0.2554 0.0
C1093 C 0.7381 0.2324 0.29399 0.0
N1094 N 0.75367 0.24362 0.30077 0.0
C1095 C 0.74561 0.24335 0.33184 0.0
C1096 C 0.72538 0.2266 0.30587 0.0
C1097 C 0.75778 0.24872 0.31949 0.0
C1098 C 0.72925 0.23237 0.32499 0.0
C1099 C 0.71887 0.2151 0.26741 0.0
C1100 C 0.73495 0.2266 0.27504 0.0
C1101 C 0.70607 0.20943 0.27916 0.0
C1102 C 0.70933 0.21514 0.29834 0.0
Tb1103 Tb 0.77259 0.25124 0.27929 0.0
N1104 N 0.74745 0.23277 0.26401 0.0
C1105 C 0.7161 0.20973 0.2482 0.0
C1106 C 0.7451 0.22696 0.24539 0.0
C1107 C 0.72933 0.2156 0.23717 0.0
H1108 H 0.77087 0.25608 0.32495 0.0
H1109 H 0.72743 0.2113 0.22233 0.0
H1110 H 0.78025 0.28871 0.20992 0.0
H1111 H 0.82285 0.33811 0.31129 0.0
H1112 H 0.75525 0.23102 0.23681 0.0
H1113 H 0.70389 0.20096 0.24178 0.0
H1114 H 0.79646 0.31593 0.29781 0.0
H1115 H 0.749 0.24741 0.34666 0.0
H1116 H 0.69362 0.20061 0.27356 0.0
H1117 H 0.69938 0.21057 0.30725 0.0
H1118 H 0.80134 0.29808 0.18777 0.0
H1119 H 0.71987 0.22815 0.33459 0.0
H1120 H 0.8446 0.35048 0.29094 0.0
N1121 N 0.79666 0.30342 0.23363 0.0
C1122 C 0.81171 0.31559 0.23995 0.0
C1123 C 0.80456 0.30292 0.20246 0.0
C1124 C 0.82392 0.3218 0.22773 0.0
C1125 C 0.79283 0.29724 0.2151 0.0
C1126 C 0.82023 0.3152 0.2088 0.0
N1127 N 0.80291 0.31535 0.27015 0.0
C1128 C 0.80566 0.32111 0.28878 0.0
C1129 C 0.83027 0.33463 0.26587 0.0
C1130 C 0.81484 0.32194 0.25877 0.0
C1131 C 0.83306 0.34057 0.28496 0.0
C1132 C 0.82076 0.33368 0.29648 0.0
H1133 H 0.82922 0.31971 0.19895 0.0
H1134 H 0.84873 0.33955 0.22554 0.0
H1135 H 0.85412 0.35096 0.25888 0.0
O1136 O 0.76583 0.31832 0.26374 0.0
O1137 O 0.80294 0.28761 0.26471 0.0
O1138 O 0.79691 0.2714 0.28905 0.0
O1139 O 0.768 0.30968 0.23473 0.0
O1140 O 0.76482 0.29379 0.28056 0.0
O1141 O 0.77751 0.27548 0.29842 0.0
O1142 O 0.78363 0.22873 0.27033 0.0
O1143 O 0.74759 0.26049 0.27049 0.0
O1144 O 0.75377 0.27602 0.24586 0.0
O1145 O 0.78273 0.23773 0.29957 0.0
O1146 O 0.78607 0.25409 0.25444 0.0
O1147 O 0.77237 0.27181 0.23691 0.0
C1148 C 0.80825 0.28013 0.27918 0.0
C1149 C 0.75343 0.33441 0.23962 0.0
C1150 C 0.73961 0.36018 0.24449 0.0
C1151 C 0.73623 0.35968 0.22511 0.0
C1152 C 0.74986 0.3343 0.22026 0.0
C1153 C 0.74128 0.34681 0.21312 0.0
C1154 C 0.74807 0.34735 0.25182 0.0
C1155 C 0.77017 0.28929 0.29666 0.0
C1156 C 0.76251 0.3207 0.2464 0.0
C1157 C 0.83926 0.33453 0.23472 0.0
C1158 C 0.84236 0.341 0.25373 0.0
C1159 C 0.7423 0.26813 0.25614 0.0
C1160 C 0.79526 0.21178 0.29405 0.0
C1161 C 0.81179 0.18804 0.28927 0.0
C1162 C 0.81158 0.18571 0.30809 0.0
C1163 C 0.79515 0.20908 0.31286 0.0
C1164 C 0.80352 0.20104 0.28214 0.0
C1165 C 0.80324 0.19614 0.31978 0.0
C1166 C 0.78057 0.25858 0.23841 0.0
C1167 C 0.78712 0.22619 0.28761 0.0
H1168 H 0.72956 0.36929 0.21922 0.0
H1169 H 0.75364 0.32448 0.21052 0.0
H1170 H 0.73857 0.34654 0.19821 0.0
H1171 H 0.75067 0.34763 0.26676 0.0
H1172 H 0.8179 0.17576 0.31374 0.0
H1173 H 0.78885 0.21704 0.32235 0.0
H1174 H 0.8038 0.20295 0.26764 0.0
H1175 H 0.80313 0.19424 0.33428 0.0
Tb1176 Tb 0.02214 0.53817 0.49328 0.0
C1177 C 0.05908 0.50194 0.56297 0.0
N1178 N 0.04568 0.49432 0.54945 0.0
C1179 C 0.05938 0.46912 0.54451 0.0
C1180 C 0.0736 0.49378 0.5674 0.0
C1181 C 0.04543 0.47793 0.54047 0.0
C1182 C 0.07367 0.47718 0.55786 0.0
C1183 C 0.07106 0.52598 0.58738 0.0
C1184 C 0.05781 0.51774 0.5727 0.0
C1185 C 0.08609 0.51846 0.5913 0.0
C1186 C 0.08732 0.50232 0.58136 0.0
Tb1187 Tb 0.02454 0.51041 0.54208 0.0
N1188 N 0.04295 0.52437 0.56852 0.0
C1189 C 0.06844 0.54112 0.5981 0.0
C1190 C 0.03947 0.53794 0.58034 0.0
C1191 C 0.05235 0.54684 0.59487 0.0
H1192 H 0.03443 0.47157 0.53028 0.0
H1193 H 0.04974 0.55799 0.60371 0.0
H1194 H 0.01798 0.57965 0.50534 0.0
H1195 H 0.98653 0.48794 0.43797 0.0
H1196 H 0.02677 0.54202 0.5789 0.0
H1197 H 0.07833 0.54794 0.60943 0.0
H1198 H 0.00996 0.50053 0.46339 0.0
H1199 H 0.0591 0.45614 0.53728 0.0
H1200 H 0.09654 0.52471 0.60235 0.0
H1201 H 0.09872 0.49639 0.58483 0.0
H1202 H 0.99753 0.59904 0.49648 0.0
H1203 H 0.0845 0.47037 0.56093 0.0
H1204 H 0.96449 0.50538 0.42753 0.0
N1205 N 0.0048 0.55785 0.48542 0.0
C1206 C 0.99159 0.55198 0.47112 0.0
C1207 C 0.99564 0.58579 0.48929 0.0
C1208 C 0.97956 0.56267 0.46562 0.0
C1209 C 0.00715 0.57466 0.49435 0.0
C1210 C 0.98171 0.57974 0.47496 0.0
N1211 N 0.00164 0.52514 0.46817 0.0
C1212 C 1.00066 0.50848 0.45935 0.0
C1213 C 0.9762 0.5283 0.44746 0.0
C1214 C 0.98999 0.53509 0.46212 0.0
C1215 C 0.97491 0.5111 0.4388 0.0
C1216 C 0.98729 0.50122 0.44469 0.0
H1217 H 0.97276 0.58836 0.47115 0.0
H1218 H 0.95631 0.56392 0.44676 0.0
H1219 H 0.95332 0.53377 0.43091 0.0
O1220 O 0.04084 0.53626 0.47429 0.0
O1221 O 0.99522 0.52598 0.49754 0.0
O1222 O 0.01263 0.51845 0.51844 0.0
O1223 O 0.03862 0.56141 0.48841 0.0
O1224 O 0.02965 0.51143 0.49032 0.0
O1225 O 0.02141 0.49411 0.51432 0.0
O1226 O 0.0028 0.50996 0.55744 0.0
O1227 O 0.04992 0.51778 0.53158 0.0
O1228 O 0.03954 0.53915 0.51878 0.0
O1229 O 0.00978 0.48582 0.54615 0.0
O1230 O 0.01946 0.53791 0.54685 0.0
O1231 O 0.01965 0.55354 0.52042 0.0
C1232 C 0.99643 0.51772 0.51175 0.0
C1233 C 0.04801 0.56121 0.45846 0.0
C1234 C 0.05712 0.55916 0.42728 0.0
C1235 C 0.05707 0.57723 0.42718 0.0
C1236 C 0.04801 0.57921 0.45811 0.0
C1237 C 0.05231 0.58709 0.44242 0.0
C1238 C 0.05213 0.55122 0.44285 0.0
C1239 C 0.02677 0.49617 0.49755 0.0
C1240 C 0.04606 0.55329 0.47573 0.0
C1241 C 0.96576 0.55596 0.45109 0.0
C1242 C 0.96407 0.5388 0.44205 0.0
C1243 C 0.05197 0.53002 0.52067 0.0
C1244 C 0.99912 0.48675 0.57562 0.0
C1245 C 0.99175 0.49139 0.60732 0.0
C1246 C 0.99695 0.47553 0.61075 0.0
C1247 C 0.00414 0.47085 0.57916 0.0
C1248 C 0.9929 0.49688 0.58976 0.0
C1249 C 0.0031 0.46534 0.5967 0.0
C1250 C 0.01803 0.55208 0.53836 0.0
C1251 C 1.00017 0.49298 0.55735 0.0
H1252 H 0.06136 0.58398 0.41567 0.0
H1253 H 0.04515 0.5873 0.47011 0.0
H1254 H 0.05257 0.60102 0.44233 0.0
H1255 H 0.05208 0.53733 0.44312 0.0
H1256 H 0.99578 0.47076 0.62409 0.0
H1257 H 0.00887 0.4627 0.56843 0.0
H1258 H 0.98889 0.50911 0.5871 0.0
H1259 H 0.00691 0.45306 0.59936 0.0
Tb1260 Tb 0.79982 0.76533 0.27172 0.0
C1261 C 0.73416 0.79243 0.23164 0.0
N1262 N 0.74616 0.80007 0.24656 0.0
C1263 C 0.74857 0.82804 0.23511 0.0
C1264 C 0.72896 0.80233 0.21773 0.0
C1265 C 0.75327 0.8177 0.24859 0.0
C1266 C 0.73638 0.82034 0.21961 0.0
C1267 C 0.71517 0.76598 0.21467 0.0
C1268 C 0.72741 0.77448 0.23009 0.0
C1269 C 0.70977 0.77582 0.20088 0.0
C1270 C 0.71668 0.79394 0.20239 0.0
Tb1271 Tb 0.75218 0.78179 0.26775 0.0
N1272 N 0.7335 0.76524 0.24333 0.0
C1273 C 0.70891 0.74781 0.21347 0.0
C1274 C 0.72694 0.74766 0.24255 0.0
C1275 C 0.71477 0.73866 0.22753 0.0
H1276 H 0.76219 0.82397 0.26082 0.0
H1277 H 0.70981 0.7247 0.22693 0.0
H1278 H 0.79143 0.72424 0.28176 0.0
H1279 H 0.84449 0.82413 0.30679 0.0
H1280 H 0.73068 0.74053 0.25355 0.0
H1281 H 0.6995 0.74075 0.20185 0.0
H1282 H 0.82385 0.80616 0.28099 0.0
H1283 H 0.75424 0.84198 0.23676 0.0
H1284 H 0.70038 0.76951 0.18892 0.0
H1285 H 0.71249 0.80133 0.19158 0.0
H1286 H 0.79933 0.70825 0.30771 0.0
H1287 H 0.73275 0.82841 0.20921 0.0
H1288 H 0.85349 0.81069 0.33454 0.0
N1289 N 0.80655 0.74899 0.29464 0.0
C1290 C 0.81817 0.75775 0.30938 0.0
C1291 C 0.80463 0.72221 0.30843 0.0
C1292 C 0.82341 0.74907 0.32436 0.0
C1293 C 0.79993 0.73137 0.29385 0.0
C1294 C 0.81637 0.7311 0.3238 0.0
N1295 N 0.81901 0.78347 0.29483 0.0
C1296 C 0.82654 0.80048 0.29345 0.0
C1297 C 0.83707 0.7851 0.32426 0.0
C1298 C 0.82469 0.77557 0.30944 0.0
C1299 C 0.84388 0.8029 0.32348 0.0
C1300 C 0.83874 0.81057 0.30789 0.0
H1301 H 0.82006 0.72394 0.33503 0.0
H1302 H 0.83988 0.75211 0.35087 0.0
H1303 H 0.85229 0.7835 0.35044 0.0
O1304 O 0.82129 0.77259 0.25546 0.0
O1305 O 0.78849 0.77159 0.29799 0.0
O1306 O 0.77256 0.7928 0.29117 0.0
O1307 O 0.81454 0.74635 0.26348 0.0
O1308 O 0.79818 0.78956 0.25895 0.0
O1309 O 0.77688 0.80168 0.27346 0.0
O1310 O 0.73028 0.77353 0.28326 0.0
O1311 O 0.76273 0.77472 0.24115 0.0
O1312 O 0.77932 0.75433 0.2486 0.0
O1313 O 0.737 0.80016 0.27631 0.0
O1314 O 0.75356 0.75737 0.28006 0.0
O1315 O 0.77539 0.74484 0.2667 0.0
C1316 C 0.78005 0.78423 0.30324 0.0
C1317 C 0.83915 0.75062 0.24478 0.0
C1318 C 0.86589 0.75525 0.22839 0.0
C1319 C 0.86557 0.73705 0.22684 0.0
C1320 C 0.83933 0.73249 0.24285 0.0
C1321 C 0.85238 0.72581 0.23393 0.0
C1322 C 0.85246 0.76209 0.23725 0.0
C1323 C 0.7905 0.80297 0.26363 0.0
C1324 C 0.82489 0.75684 0.25469 0.0
C1325 C 0.83558 0.75856 0.33927 0.0
C1326 C 0.84253 0.77648 0.33912 0.0
C1327 C 0.7724 0.76298 0.23631 0.0
C1328 C 0.71142 0.79486 0.29353 0.0
C1329 C 0.68539 0.78995 0.31096 0.0
C1330 C 0.68359 0.80743 0.30992 0.0
C1331 C 0.70911 0.81232 0.29286 0.0
C1332 C 0.69941 0.78358 0.30273 0.0
C1333 C 0.69536 0.81849 0.30098 0.0
C1334 C 0.76085 0.74369 0.27531 0.0
C1335 C 0.72632 0.78915 0.28425 0.0
H1336 H 0.87561 0.73149 0.22003 0.0
H1337 H 0.8293 0.72332 0.24824 0.0
H1338 H 0.85231 0.71181 0.23258 0.0
H1339 H 0.8526 0.7761 0.23858 0.0
H1340 H 0.67299 0.81256 0.31615 0.0
H1341 H 0.71796 0.82134 0.28597 0.0
H1342 H 0.7009 0.77009 0.30345 0.0
H1343 H 0.6938 0.83195 0.30031 0.0
Tb1344 Tb 0.75913 0.27515 0.79345 0.0
C1345 C 0.80282 0.24344 0.72282 0.0
N1346 N 0.80866 0.25653 0.73723 0.0
C1347 C 0.8376 0.24875 0.7395 0.0
C1348 C 0.81404 0.23214 0.71652 0.0
C1349 C 0.82593 0.25952 0.74535 0.0
C1350 C 0.83159 0.23489 0.72513 0.0
C1351 C 0.77876 0.22765 0.69969 0.0
C1352 C 0.78548 0.24132 0.71445 0.0
C1353 C 0.78978 0.21622 0.69351 0.0
C1354 C 0.8074 0.21847 0.70189 0.0
Tb1355 Tb 0.78833 0.27298 0.7462 0.0
N1356 N 0.77503 0.25231 0.72125 0.0
C1357 C 0.76112 0.22579 0.69167 0.0
C1358 C 0.75795 0.25082 0.71291 0.0
C1359 C 0.75074 0.23752 0.69825 0.0
H1360 H 0.83086 0.27047 0.75617 0.0
H1361 H 0.73713 0.23631 0.69206 0.0
H1362 H 0.71732 0.27847 0.78254 0.0
H1363 H 0.81384 0.32061 0.83663 0.0
H1364 H 0.7496 0.25968 0.71727 0.0
H1365 H 0.75542 0.21543 0.68036 0.0
H1366 H 0.80068 0.29639 0.81235 0.0
H1367 H 0.85124 0.25117 0.74607 0.0
H1368 H 0.78481 0.20559 0.68227 0.0
H1369 H 0.81577 0.20958 0.69695 0.0
H1370 H 0.69656 0.29708 0.79325 0.0
H1371 H 0.84063 0.22652 0.72068 0.0
H1372 H 0.79463 0.3385 0.85212 0.0
N1373 N 0.73928 0.29217 0.80187 0.0
C1374 C 0.74524 0.30552 0.81591 0.0
C1375 C 0.71024 0.29963 0.79974 0.0
C1376 C 0.73388 0.31654 0.82248 0.0
C1377 C 0.72209 0.28919 0.79359 0.0
C1378 C 0.71613 0.31332 0.81432 0.0
N1379 N 0.77367 0.29849 0.81512 0.0
C1380 C 0.79181 0.30304 0.81957 0.0
C1381 C 0.7702 0.32342 0.83641 0.0
C1382 C 0.76307 0.30877 0.82286 0.0
C1383 C 0.78862 0.32733 0.84182 0.0
C1384 C 0.79948 0.31725 0.83314 0.0
H1385 H 0.70697 0.32148 0.81898 0.0
H1386 H 0.7322 0.33925 0.84186 0.0
H1387 H 0.76409 0.34535 0.85399 0.0
O1388 O 0.76094 0.25833 0.81373 0.0
O1389 O 0.76616 0.30011 0.78352 0.0
O1390 O 0.78914 0.29046 0.77194 0.0
O1391 O 0.73585 0.25751 0.79716 0.0
O1392 O 0.78585 0.26784 0.79881 0.0
O1393 O 0.80357 0.27063 0.77356 0.0
O1394 O 0.78562 0.29152 0.72792 0.0
O1395 O 0.77656 0.24618 0.7497 0.0
O1396 O 0.76786 0.26335 0.77001 0.0
O1397 O 0.81163 0.28877 0.73979 0.0
O1398 O 0.76129 0.28059 0.74298 0.0
O1399 O 0.74285 0.27096 0.76576 0.0
C1400 C 0.77948 0.30258 0.77361 0.0
C1401 C 0.73523 0.25201 0.82851 0.0
C1402 C 0.7345 0.24269 0.85918 0.0
C1403 C 0.72036 0.25142 0.8622 0.0
C1404 C 0.72112 0.2608 0.8316 0.0
C1405 C 0.71376 0.26051 0.84844 0.0
C1406 C 0.74181 0.24303 0.84233 0.0
C1407 C 0.80095 0.26734 0.79099 0.0
C1408 C 0.74382 0.25212 0.81138 0.0
C1409 C 0.74072 0.33066 0.83658 0.0
C1410 C 0.75886 0.33411 0.84351 0.0
C1411 C 0.76757 0.24735 0.76352 0.0
C1412 C 0.80862 0.29515 0.70886 0.0
C1413 C 0.80582 0.30477 0.67852 0.0
C1414 C 0.82046 0.29746 0.67384 0.0
C1415 C 0.82319 0.28759 0.70418 0.0
C1416 C 0.79975 0.30329 0.69576 0.0
C1417 C 0.82895 0.28862 0.6866 0.0
C1418 C 0.74544 0.27712 0.74958 0.0
C1419 C 0.80279 0.29564 0.72743 0.0
H1420 H 0.71453 0.25129 0.87518 0.0
H1421 H 0.71576 0.26784 0.82112 0.0
H1422 H 0.70291 0.26731 0.85081 0.0
H1423 H 0.75256 0.23606 0.83984 0.0
H1424 H 0.8255 0.29894 0.66058 0.0
H1425 H 0.83028 0.28116 0.71408 0.0
H1426 H 0.78868 0.30938 0.69936 0.0
H1427 H 0.8403 0.28302 0.68308 0.0
Tb1428 Tb 0.76397 0.74702 0.75398 0.0
C1429 C 0.82381 0.80607 0.79794 0.0
N1430 N 0.80799 0.79728 0.80226 0.0
C1431 C 0.8216 0.79662 0.83328 0.0
C1432 C 0.8392 0.81023 0.81109 0.0
C1433 C 0.80657 0.79325 0.81999 0.0
C1434 C 0.83802 0.80499 0.82877 0.0
C1435 C 0.8399 0.82275 0.77635 0.0
C1436 C 0.82423 0.81231 0.7808 0.0
C1437 C 0.8553 0.8266 0.78927 0.0
C1438 C 0.85499 0.8203 0.80656 0.0
Tb1439 Tb 0.7842 0.7949 0.77987 0.0
N1440 N 0.80892 0.8089 0.76886 0.0
C1441 C 0.83941 0.82965 0.75937 0.0
C1442 C 0.80802 0.81664 0.75293 0.0
C1443 C 0.82333 0.82671 0.74769 0.0
H1444 H 0.79381 0.78823 0.82439 0.0
H1445 H 0.82263 0.83252 0.73487 0.0
H1446 H 0.75115 0.75662 0.71184 0.0
H1447 H 0.72764 0.71262 0.80371 0.0
H1448 H 0.79544 0.81534 0.74447 0.0
H1449 H 0.8512 0.83771 0.75545 0.0
H1450 H 0.7545 0.72694 0.79148 0.0
H1451 H 0.82035 0.79329 0.84722 0.0
H1452 H 0.86735 0.83489 0.78621 0.0
H1453 H 0.86688 0.82374 0.81655 0.0
H1454 H 0.72333 0.75189 0.6908 0.0
H1455 H 0.84952 0.80801 0.83928 0.0
H1456 H 0.69812 0.70848 0.78514 0.0
N1457 N 0.73878 0.74588 0.7342 0.0
C1458 C 0.72353 0.73681 0.73942 0.0
C1459 C 0.72312 0.74789 0.70458 0.0
C1460 C 0.70729 0.73353 0.72759 0.0
C1461 C 0.73888 0.75093 0.71679 0.0
C1462 C 0.70723 0.73927 0.71003 0.0
N1463 N 0.74034 0.7335 0.76748 0.0
C1464 C 0.74171 0.72656 0.78386 0.0
C1465 C 0.70863 0.72162 0.76269 0.0
C1466 C 0.72427 0.73074 0.75672 0.0
C1467 C 0.70985 0.71549 0.78003 0.0
C1468 C 0.72647 0.71788 0.79059 0.0
H1469 H 0.69506 0.73681 0.70046 0.0
H1470 H 0.67914 0.72173 0.7246 0.0
H1471 H 0.68025 0.7115 0.75539 0.0
O1472 O 0.76108 0.71943 0.75043 0.0
O1473 O 0.74531 0.76526 0.76075 0.0
O1474 O 0.75835 0.78253 0.78796 0.0
O1475 O 0.76878 0.73454 0.72844 0.0
O1476 O 0.77823 0.74766 0.78187 0.0
O1477 O 0.77529 0.77452 0.79712 0.0
O1478 O 0.77328 0.81653 0.77342 0.0
O1479 O 0.8016 0.78229 0.76251 0.0
O1480 O 0.79317 0.75244 0.76308 0.0
O1481 O 0.78833 0.81695 0.80017 0.0
O1482 O 0.76846 0.79175 0.75253 0.0
O1483 O 0.77522 0.76687 0.73731 0.0
C1484 C 0.74394 0.77435 0.77683 0.0
C1485 C 0.77736 0.70704 0.72787 0.0
C1486 C 0.79576 0.68558 0.73436 0.0
C1487 C 0.7972 0.68225 0.71523 0.0
C1488 C 0.77892 0.7035 0.70883 0.0
C1489 C 0.78887 0.69122 0.70258 0.0
C1490 C 0.78591 0.69813 0.74065 0.0
C1491 C 0.77853 0.75855 0.79718 0.0
C1492 C 0.76553 0.71895 0.7336 0.0
C1493 C 0.69173 0.72441 0.73352 0.0
C1494 C 0.69237 0.71858 0.75106 0.0
C1495 C 0.80525 0.76636 0.76106 0.0
C1496 C 0.7675 0.83572 0.79847 0.0
C1497 C 0.7517 0.85947 0.79565 0.0
C1498 C 0.75139 0.86195 0.81495 0.0
C1499 C 0.76666 0.83764 0.8178 0.0
C1500 C 0.75952 0.84632 0.78747 0.0
C1501 C 0.75847 0.8507 0.82597 0.0
C1502 C 0.77173 0.78271 0.73738 0.0
C1503 C 0.77923 0.82542 0.78972 0.0
H1504 H 0.80435 0.67233 0.70997 0.0
H1505 H 0.77216 0.71003 0.69874 0.0
H1506 H 0.78983 0.68841 0.68785 0.0
H1507 H 0.7847 0.70074 0.75537 0.0
H1508 H 0.74575 0.87254 0.8214 0.0
H1509 H 0.77291 0.82963 0.82664 0.0
H1510 H 0.76047 0.84521 0.7726 0.0
H1511 H 0.75813 0.85248 0.84088 0.0
Tb1512 Tb 0.55161 0.53588 0.53509 0.0
C1513 C 0.49146 0.47731 0.48807 0.0
N1514 N 0.50156 0.49241 0.4841 0.0
C1515 C 0.50498 0.47782 0.45422 0.0
C1516 C 0.48803 0.46173 0.47536 0.0
C1517 C 0.5079 0.49298 0.46722 0.0
C1518 C 0.49514 0.46207 0.45837 0.0
C1519 C 0.47243 0.46271 0.50878 0.0
C1520 C 0.4839 0.47776 0.50464 0.0
C1521 C 0.46938 0.447 0.49641 0.0
C1522 C 0.47719 0.4465 0.47977 0.0
Tb1523 Tb 0.50459 0.51639 0.50618 0.0
N1524 N 0.48694 0.49325 0.51615 0.0
C1525 C 0.46376 0.46415 0.52479 0.0
C1526 C 0.4772 0.49511 0.5307 0.0
C1527 C 0.46591 0.48051 0.53561 0.0
H1528 H 0.51458 0.50523 0.46334 0.0
H1529 H 0.45858 0.48199 0.5475 0.0
H1530 H 0.54448 0.54565 0.57934 0.0
H1531 H 0.58148 0.57573 0.48564 0.0
H1532 H 0.47773 0.50789 0.53834 0.0
H1533 H 0.45475 0.45295 0.52843 0.0
H1534 H 0.56683 0.54857 0.49598 0.0
H1535 H 0.51004 0.47836 0.44087 0.0
H1536 H 0.46061 0.4353 0.49933 0.0
H1537 H 0.4744 0.4344 0.47018 0.0
H1538 H 0.5519 0.57163 0.60319 0.0
H1539 H 0.49272 0.45041 0.44817 0.0
H1540 H 0.5902 0.60302 0.50794 0.0
N1541 N 0.55527 0.55927 0.55789 0.0
C1542 C 0.56464 0.5746 0.55359 0.0
C1543 C 0.55535 0.57271 0.58923 0.0
C1544 C 0.56965 0.58966 0.56701 0.0
C1545 C 0.55075 0.55808 0.5755 0.0
C1546 C 0.56484 0.58856 0.58498 0.0
N1547 N 0.56406 0.56044 0.52292 0.0
C1548 C 0.56901 0.56043 0.50541 0.0
C1549 C 0.57882 0.59093 0.53063 0.0
C1550 C 0.56925 0.57518 0.5356 0.0
C1551 C 0.58297 0.59116 0.51235 0.0
C1552 C 0.57801 0.57583 0.4997 0.0
H1553 H 0.56856 0.59981 0.59572 0.0
H1554 H 0.58347 0.61692 0.57233 0.0
H1555 H 0.59139 0.61806 0.54047 0.0
O1556 O 0.57717 0.53187 0.53028 0.0
O1557 O 0.53417 0.55516 0.52904 0.0
O1558 O 0.51837 0.54245 0.50112 0.0
O1559 O 0.5705 0.53697 0.55813 0.0
O1560 O 0.55128 0.52068 0.50736 0.0
O1561 O 0.5265 0.5266 0.49128 0.0
O1562 O 0.4822 0.52782 0.51005 0.0
O1563 O 0.51974 0.49595 0.51423 0.0
O1564 O 0.54066 0.5085 0.53969 0.0
O1565 O 0.48629 0.51573 0.48255 0.0
O1566 O 0.5053 0.52848 0.53526 0.0
O1567 O 0.53139 0.52491 0.55182 0.0
C1568 C 0.52423 0.55639 0.51356 0.0
C1569 C 0.59163 0.51909 0.55369 0.0
C1570 C 0.61331 0.50103 0.54757 0.0
C1571 C 0.61135 0.49419 0.56442 0.0
C1572 C 0.58958 0.51231 0.57069 0.0
C1573 C 0.59944 0.49986 0.57598 0.0
C1574 C 0.60358 0.51341 0.54229 0.0
C1575 C 0.54174 0.52137 0.49154 0.0
C1576 C 0.58245 0.53286 0.548 0.0
C1577 C 0.5794 0.60526 0.56215 0.0
C1578 C 0.58393 0.6059 0.54401 0.0
C1579 C 0.53086 0.49462 0.52884 0.0
C1580 C 0.45977 0.52828 0.48427 0.0
C1581 C 0.43286 0.53953 0.48851 0.0
C1582 C 0.4277 0.53626 0.46924 0.0
C1583 C 0.45466 0.52513 0.46495 0.0
C1584 C 0.44889 0.53565 0.49595 0.0
C1585 C 0.43867 0.52917 0.45749 0.0
C1586 C 0.51455 0.52626 0.55072 0.0
C1587 C 0.47632 0.5239 0.49238 0.0
H1588 H 0.61921 0.48479 0.56871 0.0
H1589 H 0.58059 0.51672 0.57995 0.0
H1590 H 0.598 0.49478 0.58912 0.0
H1591 H 0.6056 0.51885 0.52937 0.0
H1592 H 0.41531 0.53934 0.46333 0.0
H1593 H 0.46297 0.51954 0.45565 0.0
H1594 H 0.45268 0.53809 0.5109 0.0
H1595 H 0.43476 0.52676 0.44261 0.0
Tb1596 Tb 0.00202 0.52137 0.03246 0.0
C1597 C 0.06613 0.55761 0.9927 0.0
N1598 N 0.05372 0.54266 0.98689 0.0
C1599 C 0.05101 0.55047 0.95594 0.0
C1600 C 0.07141 0.56969 0.98029 0.0
C1601 C 0.04618 0.53888 0.96878 0.0
C1602 C 0.06368 0.56595 0.96171 0.0
C1603 C 0.08594 0.57645 0.01796 0.0
C1604 C 0.07329 0.56095 0.01132 0.0
C1605 C 0.09137 0.58847 0.0056 0.0
C1606 C 0.08414 0.5851 0.98682 0.0
Tb1607 Tb 0.048 0.52449 0.00893 0.0
N1608 N 0.06745 0.54917 0.02299 0.0
C1609 C 0.09274 0.57938 0.03682 0.0
C1610 C 0.07463 0.55159 0.04117 0.0
C1611 C 0.0871 0.56686 0.04845 0.0
H1612 H 0.03684 0.52667 0.96406 0.0
H1613 H 0.0926 0.56881 0.06295 0.0
H1614 H 0.01353 0.51779 0.07691 0.0
H1615 H 0.95449 0.48007 0.9788 0.0
H1616 H 0.07121 0.54166 0.05 0.0
H1617 H 0.10249 0.59113 0.04248 0.0
H1618 H 0.97633 0.50678 0.99244 0.0
H1619 H 0.04508 0.54739 0.94157 0.0
H1620 H 0.10113 0.60043 0.01043 0.0
H1621 H 0.08842 0.59452 0.97747 0.0
H1622 H 0.0063 0.49587 0.09843 0.0
H1623 H 0.06742 0.57488 0.95171 0.0
H1624 H 0.94612 0.45613 0.99792 0.0
N1625 N 0.99672 0.50229 0.05378 0.0
C1626 C 0.98436 0.48737 0.04763 0.0
C1627 C 1.00015 0.49325 0.08413 0.0
C1628 C 0.97958 0.47463 0.05951 0.0
C1629 C 0.00445 0.50553 0.07182 0.0
C1630 C 0.98771 0.4777 0.07795 0.0
N1631 N 0.98198 0.49726 0.01807 0.0
C1632 C 0.97368 0.49603 0.00045 0.0
C1633 C 0.96384 0.46952 0.02228 0.0
C1634 C 0.97668 0.48479 0.02921 0.0
C1635 C 0.9561 0.46765 0.00378 0.0
C1636 C 0.96089 0.48107 0.99289 0.0
H1637 H 0.98438 0.46824 0.08754 0.0
H1638 H 0.96301 0.44935 0.06155 0.0
H1639 H 0.94917 0.44491 0.029 0.0
O1640 O 0.97999 0.53353 0.02541 0.0
O1641 O 0.01202 0.49627 0.02644 0.0
O1642 O 0.0281 0.49975 0.00134 0.0
O1643 O 0.98833 0.53009 0.05406 0.0
O1644 O 0.00316 0.53069 0.00536 0.0
O1645 O 0.02287 0.51576 0.99184 0.0
O1646 O 0.07019 0.51276 0.01681 0.0
O1647 O 0.03801 0.54961 0.01467 0.0
O1648 O 0.02179 0.54625 0.03971 0.0
O1649 O 0.06176 0.51503 0.98784 0.0
O1650 O 0.04658 0.51498 0.03584 0.0
O1651 O 0.02717 0.53012 0.04959 0.0
C1652 C 0.01942 0.48966 0.01229 0.0
C1653 C 0.96273 0.54395 0.04977 0.0
C1654 C 0.93976 0.56163 0.04597 0.0
C1655 C 0.93664 0.5605 0.06454 0.0
C1656 C 0.95925 0.54293 0.06828 0.0
C1657 C 0.94626 0.55111 0.07556 0.0
C1658 C 0.95272 0.55316 0.03848 0.0
C1659 C 0.01039 0.52502 0.99086 0.0
C1660 C 0.97717 0.53577 0.04282 0.0
C1661 C 0.96688 0.45929 0.05262 0.0
C1662 C 0.95902 0.45676 0.03407 0.0
C1663 C 0.03034 0.55627 0.0286 0.0
C1664 C 0.08716 0.50105 0.99276 0.0
C1665 C 0.11269 0.48684 0.99807 0.0
C1666 C 0.1137 0.4846 0.97884 0.0
C1667 C 0.08842 0.49854 0.97352 0.0
C1668 C 0.09932 0.49501 0.0051 0.0
C1669 C 0.10159 0.49036 0.96665 0.0
C1670 C 0.03964 0.52079 0.05049 0.0
C1671 C 0.07288 0.50968 -0.00058 0.0
H1672 H 0.9266 0.56679 0.07047 0.0
H1673 H 0.96663 0.53584 0.07723 0.0
H1674 H 0.94369 0.55024 0.08983 0.0
H1675 H 0.95523 0.55408 0.02418 0.0
H1676 H 0.12381 0.47819 0.97322 0.0
H1677 H 0.07919 0.50287 0.96368 0.0
H1678 H 0.09847 0.49667 0.01995 0.0
H1679 H 0.10238 0.48844 0.95182 0.0
H1680 H 0.02589 0.20218 0.94169 0.0
H1681 H 0.03003 0.17498 0.95357 0.0
H1682 H 0.98786 0.1788 0.98815 0.0
H1683 H 0.98509 0.2072 0.97751 0.0
H1684 H 0.00793 0.1648 0.00652 0.0
H1685 H 0.9862 0.14749 0.94192 0.0
H1686 H 0.98551 0.14827 0.90806 0.0
H1687 H 0.03808 0.13638 0.9098 0.0
H1688 H 0.03915 0.13568 0.94369 0.0
H1689 H 0.99459 0.07117 0.01615 0.0
H1690 H 0.99144 0.10002 0.00684 0.0
H1691 H 0.04485 0.10752 0.99128 0.0
H1692 H 0.04823 0.07895 0.00129 0.0
H1693 H 0.01844 0.11487 0.96337 0.0
H1694 H 0.03836 0.13132 0.02879 0.0
H1695 H 0.03739 0.13003 0.06238 0.0
H1696 H 0.98478 0.14197 0.05804 0.0
H1697 H 0.98535 0.1431 0.02434 0.0
C1698 C 0.01749 0.19726 0.95186 0.0
C1699 C 0.00507 0.20697 0.95848 0.0
C1700 C 0.01967 0.18137 0.95854 0.0
C1701 C 0.00883 0.17391 0.97141 0.0
C1702 C 0.99647 0.1838 0.9782 0.0
C1703 C 0.99479 0.20015 0.97203 0.0
C1704 C 0.01061 0.15616 0.97792 0.0
C1705 C 0.00989 0.15389 0.99685 0.0
C1706 C 0.01352 0.14151 0.96577 0.0
C1707 C 0.0128 0.14167 0.94536 0.0
C1708 C 0.99763 0.1451 0.93508 0.0
C1709 C 0.99717 0.14552 0.91589 0.0
C1710 C 0.01176 0.14241 0.90679 0.0
C1711 C 0.0268 0.13879 0.91686 0.0
C1712 C 0.02733 0.13835 0.93606 0.0
C1713 C 0.00575 0.07908 0.01098 0.0
C1714 C 0.02173 0.07276 0.00968 0.0
C1715 C 0.00394 0.09563 0.00561 0.0
C1716 C 0.01789 0.10624 -0.00172 0.0
C1717 C 0.03383 0.09981 0.99686 0.0
C1718 C 0.0358 0.08345 0.00268 0.0
C1719 C 0.0157 0.12371 0.99177 0.0
C1720 C 0.01635 0.12585 0.97288 0.0
C1721 C 0.01231 0.13804 0.00383 0.0
C1722 C 0.01183 0.13711 0.02401 0.0
C1723 C 0.02651 0.13349 0.03496 0.0
C1724 C 0.02605 0.13284 0.05403 0.0
C1725 C 0.01102 0.13589 0.06233 0.0
C1726 C 0.99641 0.1396 0.05158 0.0
C1727 C 0.9968 0.14025 0.0325 0.0
H1728 H 0.0107 0.13541 0.07711 0.0
H1729 H 0.01139 0.14278 0.89194 0.0
H1730 H 0.08977 0.78309 0.16241 0.0
H1731 H 0.11588 0.77951 0.18234 0.0
H1732 H 0.15003 0.80023 0.14289 0.0
H1733 H 0.12364 0.80275 0.12225 0.0
H1734 H 0.16287 0.77531 0.15503 0.0
H1735 H 0.14339 0.82435 0.18795 0.0
H1736 H 0.12155 0.83935 0.20257 0.0
H1737 H 0.11414 0.80073 0.24037 0.0
H1738 H 0.13579 0.78539 0.22583 0.0
H1739 H 0.24367 0.79581 0.21866 0.0
H1740 H 0.21709 0.7981 0.19828 0.0
H1741 H 0.18386 0.76535 0.23043 0.0
H1742 H 0.21038 0.76217 0.25023 0.0
H1743 H 0.17076 0.79634 0.22272 0.0
H1744 H 0.18699 0.74621 0.18905 0.0
H1745 H 0.2068 0.729 0.17379 0.0
H1746 H 0.21981 0.76896 0.13841 0.0
H1747 H 0.19979 0.78628 0.15328 0.0
C1748 C 0.10283 0.78693 0.15793 0.0
C1749 C 0.10453 0.79333 0.1407 0.0
C1750 C 0.11788 0.78502 0.1695 0.0
C1751 C 0.13523 0.79003 0.16457 0.0
C1752 C 0.13693 0.79632 0.14725 0.0
C1753 C 0.1218 0.79785 0.13543 0.0
C1754 C 0.15148 0.78842 0.17724 0.0
C1755 C 0.16464 0.78027 0.16974 0.0
C1756 C 0.15384 0.79424 0.19671 0.0
C1757 C 0.14111 0.80366 0.20571 0.0
C1758 C 0.13706 0.81903 0.19934 0.0
C1759 C 0.12471 0.82759 0.20761 0.0
C1760 C 0.11644 0.82097 0.22236 0.0
C1761 C 0.12055 0.80583 0.22893 0.0
C1762 C 0.13288 0.79721 0.2207 0.0
C1763 C 0.23074 0.78903 0.22143 0.0
C1764 C 0.22934 0.77901 0.23642 0.0
C1765 C 0.2155 0.79034 0.2097 0.0
C1766 C 0.19836 0.78194 0.21276 0.0
C1767 C 0.19686 0.77208 0.22779 0.0
C1768 C 0.21212 0.77044 0.23928 0.0
C1769 C 0.18207 0.78353 0.20037 0.0
C1770 C 0.16895 0.7916 0.20795 0.0
C1771 C 0.17969 0.77763 0.18102 0.0
C1772 C 0.19208 0.7676 0.17239 0.0
C1773 C 0.19419 0.75137 0.17811 0.0
C1774 C 0.20536 0.74156 0.16946 0.0
C1775 C 0.21465 0.74793 0.15522 0.0
C1776 C 0.21265 0.76407 0.14948 0.0
C1777 C 0.20131 0.77384 0.15794 0.0
H1778 H 0.22337 0.74034 0.14862 0.0
H1779 H 0.10686 0.8276 0.22872 0.0
H1780 H 0.49855 0.8151 0.4776 0.0
H1781 H 0.50001 0.84577 0.49172 0.0
H1782 H 0.52134 0.86469 0.44338 0.0
H1783 H 0.5203 0.83479 0.42966 0.0
H1784 H 0.5393 0.88408 0.47231 0.0
H1785 H 0.47582 0.86249 0.4532 0.0
H1786 H 0.44651 0.84328 0.45367 0.0
H1787 H 0.44873 0.85949 0.51234 0.0
H1788 H 0.47816 0.87864 0.51225 0.0
H1789 H 0.52755 0.97275 0.47589 0.0
H1790 H 0.52544 0.94105 0.46733 0.0
H1791 H 0.50437 0.93108 0.5188 0.0
H1792 H 0.50649 0.96264 0.52742 0.0
H1793 H 0.48689 0.90661 0.49253 0.0
H1794 H 0.54796 0.93088 0.51113 0.0
H1795 H 0.57713 0.95025 0.51164 0.0
H1796 H 0.58087 0.92822 0.45572 0.0
H1797 H 0.55109 0.90938 0.45446 0.0
C1798 C 0.50365 0.82582 0.47007 0.0
C1799 C 0.50925 0.8222 0.45237 0.0
C1800 C 0.50436 0.84342 0.4781 0.0
C1801 C 0.51067 0.85782 0.46862 0.0
C1802 C 0.51645 0.85408 0.45116 0.0
C1803 C 0.51576 0.83673 0.44324 0.0
C1804 C 0.51164 0.87686 0.47642 0.0
C1805 C 0.52773 0.88898 0.47651 0.0
C1806 C 0.49686 0.88344 0.4827 0.0
C1807 C 0.47929 0.87179 0.48276 0.0
C1808 C 0.47013 0.86182 0.46623 0.0
C1809 C 0.45348 0.85098 0.46643 0.0
C1810 C 0.44579 0.85012 0.48304 0.0
C1811 C 0.45472 0.86013 0.49949 0.0
C1812 C 0.47138 0.87098 0.49938 0.0
C1813 C 0.52243 0.96385 0.4854 0.0
C1814 C 0.51709 0.97047 0.50234 0.0
C1815 C 0.52127 0.94561 0.4805 0.0
C1816 C 0.51489 0.9334 0.49244 0.0
C1817 C 0.50929 0.94 0.50922 0.0
C1818 C 0.51049 0.9582 0.51414 0.0
C1819 C 0.51438 0.9139 0.48767 0.0
C1820 C 0.49846 0.90173 0.48831 0.0
C1821 C 0.52937 0.90722 0.48212 0.0
C1822 C 0.54715 0.91881 0.48265 0.0
C1823 C 0.55484 0.93033 0.49882 0.0
C1824 C 0.57153 0.94122 0.49924 0.0
C1825 C 0.58096 0.94038 0.48376 0.0
C1826 C 0.57356 0.92884 0.46771 0.0
C1827 C 0.5567 0.91813 0.46709 0.0
H1828 H 0.59403 0.94858 0.48421 0.0
H1829 H 0.43289 0.84173 0.48315 0.0
H1830 H 0.50813 0.26288 0.66604 0.0
H1831 H 0.47998 0.26327 0.67821 0.0
H1832 H 0.46503 0.29471 0.63641 0.0
H1833 H 0.4939 0.29463 0.624 0.0
H1834 H 0.45642 0.30643 0.67176 0.0
H1835 H 0.445 0.25187 0.63186 0.0
H1836 H 0.45074 0.2234 0.61795 0.0
H1837 H 0.45187 0.20505 0.67148 0.0
H1838 H 0.44634 0.23347 0.68575 0.0
H1839 H 0.36471 0.27849 0.69794 0.0
H1840 H 0.3911 0.28747 0.68179 0.0
H1841 H 0.42253 0.26332 0.71986 0.0
H1842 H 0.39631 0.25439 0.73589 0.0
H1843 H 0.41967 0.2494 0.68119 0.0
H1844 H 0.43368 0.30504 0.72123 0.0
H1845 H 0.42927 0.334 0.73524 0.0
H1846 H 0.42309 0.35042 0.68098 0.0
H1847 H 0.42722 0.32145 0.66662 0.0
C1848 C 0.49899 0.26993 0.65925 0.0
C1849 C 0.50344 0.27869 0.64389 0.0
C1850 C 0.48273 0.27005 0.66627 0.0
C1851 C 0.47016 0.27877 0.65812 0.0
C1852 C 0.47447 0.28779 0.6429 0.0
C1853 C 0.49095 0.28768 0.63577 0.0
C1854 C 0.45274 0.27821 0.66594 0.0
C1855 C 0.44811 0.29397 0.67342 0.0
C1856 C 0.44197 0.26198 0.66841 0.0
C1857 C 0.44533 0.24485 0.65988 0.0
C1858 C 0.44659 0.24181 0.64069 0.0
C1859 C 0.44978 0.22567 0.63273 0.0
C1860 C 0.45169 0.21244 0.64383 0.0
C1861 C 0.45038 0.21531 0.6629 0.0
C1862 C 0.44718 0.23142 0.67092 0.0
C1863 C 0.37745 0.27574 0.70326 0.0
C1864 C 0.37851 0.26584 0.71822 0.0
C1865 C 0.3925 0.28082 0.694 0.0
C1866 C 0.40882 0.27602 0.69955 0.0
C1867 C 0.41011 0.26718 0.7153 0.0
C1868 C 0.39515 0.26214 0.72452 0.0
C1869 C 0.42366 0.27757 0.68756 0.0
C1870 C 0.42774 0.2619 0.67923 0.0
C1871 C 0.43375 0.29387 0.68427 0.0
C1872 C 0.43044 0.31095 0.69283 0.0
C1873 C 0.43106 0.3147 0.71226 0.0
C1874 C 0.42871 0.33116 0.72027 0.0
C1875 C 0.42581 0.34401 0.709 0.0
C1876 C 0.42526 0.34043 0.68969 0.0
C1877 C 0.42761 0.324 0.68161 0.0
H1878 H 0.42407 0.35677 0.71524 0.0
H1879 H 0.45416 0.19995 0.63764 0.0
H1880 H 0.00864 0.8176 0.66836 0.0
H1881 H 0.01025 0.84359 0.65188 0.0
H1882 H 0.02895 0.81567 0.60558 0.0
H1883 H 0.02713 0.78961 0.62184 0.0
H1884 H 0.04931 0.8496 0.61677 0.0
H1885 H 0.98712 0.82163 0.60197 0.0
H1886 H 0.95737 0.80898 0.61003 0.0
H1887 H 0.95439 0.85874 0.64023 0.0
H1888 H 0.98427 0.87162 0.63256 0.0
H1889 H 0.0442 0.89951 0.54501 0.0
H1890 H 0.03469 0.87519 0.5626 0.0
H1891 H 0.01928 0.91117 0.60455 0.0
H1892 H 0.02865 0.93569 0.58667 0.0
H1893 H 0.99669 0.87541 0.59846 0.0
H1894 H 0.05764 0.90401 0.61297 0.0
H1895 H 0.08745 0.91735 0.60567 0.0
H1896 H 0.09332 0.86736 0.57824 0.0
H1897 H 0.06333 0.8538 0.58502 0.0
C1898 C 0.01304 0.81697 0.65464 0.0
C1899 C 0.01772 0.80147 0.64642 0.0
C1900 C 0.0139 0.83184 0.6452 0.0
C1901 C 0.01965 0.83162 0.62741 0.0
C1902 C 0.02445 0.8162 0.61926 0.0
C1903 C 0.02335 0.80126 0.62856 0.0
C1904 C 0.02101 0.84748 0.61736 0.0
C1905 C 0.03776 0.8551 0.61264 0.0
C1906 C 0.00608 0.85515 0.61251 0.0
C1907 C 0.988 0.84754 0.61684 0.0
C1908 C 0.98017 0.82984 0.61043 0.0
C1909 C 0.96328 0.82264 0.61492 0.0
C1910 C 0.95402 0.83304 0.62568 0.0
C1911 C 0.9616 0.85069 0.63192 0.0
C1912 C 0.9785 0.85796 0.62749 0.0
C1913 C 0.0382 0.90216 0.55765 0.0
C1914 C 0.03726 0.91952 0.56448 0.0
C1915 C 0.03283 0.88825 0.56776 0.0
C1916 C 0.02653 0.89134 0.58508 0.0
C1917 C 0.02409 0.90843 0.59123 0.0
C1918 C 0.02942 0.92244 0.58099 0.0
C1919 C 0.02493 0.87718 0.59751 0.0
C1920 C 0.00824 0.86995 0.60271 0.0
C1921 C 0.03995 0.86995 0.6031 0.0
C1922 C 0.05817 0.87792 0.59937 0.0
C1923 C 0.06523 0.89589 0.60527 0.0
C1924 C 0.08216 0.90349 0.60122 0.0
C1925 C 0.09226 0.89322 0.59147 0.0
C1926 C 0.08547 0.87531 0.58578 0.0
C1927 C 0.0685 0.86765 0.58972 0.0
H1928 H 0.10537 0.89912 0.58835 0.0
H1929 H 0.94095 0.82743 0.62916 0.0
H1930 H 0.47359 0.77641 0.84636 0.0
H1931 H 0.44117 0.77235 0.83789 0.0
H1932 H 0.45006 0.80555 0.79473 0.0
H1933 H 0.48221 0.80974 0.80314 0.0
H1934 H 0.42478 0.8148 0.81308 0.0
H1935 H 0.43611 0.75985 0.78558 0.0
H1936 H 0.44674 0.73178 0.78451 0.0
H1937 H 0.41112 0.71439 0.82375 0.0
H1938 H 0.40048 0.74249 0.82529 0.0
H1939 H 0.33681 0.7953 0.76308 0.0
H1940 H 0.36878 0.79876 0.77276 0.0
H1941 H 0.35743 0.76659 0.81631 0.0
H1942 H 0.32542 0.76348 0.80705 0.0
H1943 H 0.38373 0.75674 0.79871 0.0
H1944 H 0.37229 0.81205 0.82576 0.0
H1945 H 0.36292 0.8408 0.82743 0.0
H1946 H 0.39896 0.85748 0.78837 0.0
H1947 H 0.4085 0.82883 0.78632 0.0
C1948 C 0.46866 0.78273 0.83496 0.0
C1949 C 0.48072 0.7934 0.82547 0.0
C1950 C 0.45004 0.78036 0.83007 0.0
C1951 C 0.44293 0.78857 0.81554 0.0
C1952 C 0.45499 0.79908 0.80601 0.0
C1953 C 0.47351 0.80141 0.81083 0.0
C1954 C 0.42306 0.78673 0.81048 0.0
C1955 C 0.41588 0.80205 0.80971 0.0
C1956 C 0.41115 0.77019 0.80646 0.0
C1957 C 0.41767 0.75338 0.80574 0.0
C1958 C 0.43069 0.75012 0.79414 0.0
C1959 C 0.43668 0.73419 0.79342 0.0
C1960 C 0.42965 0.72134 0.80411 0.0
C1961 C 0.41659 0.72438 0.81552 0.0
C1962 C 0.41057 0.74031 0.81633 0.0
C1963 C 0.341 0.78927 0.77498 0.0
C1964 C 0.32825 0.7794 0.78443 0.0
C1965 C 0.35943 0.79119 0.78048 0.0
C1966 C 0.36575 0.78313 0.79548 0.0
C1967 C 0.35307 0.77303 0.80475 0.0
C1968 C 0.33465 0.77127 0.7994 0.0
C1969 C 0.38549 0.78482 0.80122 0.0
C1970 C 0.39263 0.76948 0.80211 0.0
C1971 C 0.3974 0.80136 0.80526 0.0
C1972 C 0.391 0.81823 0.80577 0.0
C1973 C 0.37807 0.82176 0.81735 0.0
C1974 C 0.37279 0.83806 0.81844 0.0
C1975 C 0.38039 0.85095 0.80807 0.0
C1976 C 0.39314 0.84751 0.79644 0.0
C1977 C 0.3985 0.83125 0.79532 0.0
H1978 H 0.37635 0.86359 0.80903 0.0
H1979 H 0.43429 0.709 0.8035 0.0
H1980 H 0.49806 0.20448 0.12456 0.0
H1981 H 0.49847 0.17835 0.10231 0.0
H1982 H 0.5248 0.15562 0.14579 0.0
H1983 H 0.52414 0.18126 0.168 0.0
H1984 H 0.54121 0.15432 0.11277 0.0
H1985 H 0.48239 0.13991 0.13235 0.0
H1986 H 0.452 0.14438 0.13684 0.0
H1987 H 0.44024 0.14519 0.07809 0.0
H1988 H 0.47067 0.14095 0.07329 0.0
H1989 H 0.53827 0.06703 0.07327 0.0
H1990 H 0.5359 0.09372 0.09281 0.0
H1991 H 0.49659 0.10382 0.05097 0.0
H1992 H 0.49738 0.07571 0.03259 0.0
H1993 H 0.48672 0.1134 0.0812 0.0
H1994 H 0.54463 0.12653 0.06062 0.0
H1995 H 0.57508 0.12258 0.05552 0.0
H1996 H 0.58912 0.12554 0.11448 0.0
H1997 H 0.55871 0.12929 0.11992 0.0
C1998 C 0.50384 0.19387 0.12939 0.0
C1999 C 0.51099 0.19504 0.14816 0.0
C2000 C 0.50405 0.17891 0.11665 0.0
C2001 C 0.51167 0.16493 0.12233 0.0
C2002 C 0.51887 0.16616 0.141 0.0
C2003 C 0.51838 0.18088 0.15374 0.0
C2004 C 0.51251 0.14907 0.10898 0.0
C2005 C 0.52929 0.14529 0.10593 0.0
C2006 C 0.49703 0.13753 0.09959 0.0
C2007 C 0.47887 0.14036 0.1025 0.0
C2008 C 0.47339 0.14125 0.12042 0.0
C2009 C 0.45614 0.14369 0.12301 0.0
C2010 C 0.44422 0.14514 0.10777 0.0
C2011 C 0.44951 0.14412 0.0899 0.0
C2012 C 0.46675 0.14169 0.08723 0.0
C2013 C 0.52851 0.07443 0.06865 0.0
C2014 C 0.51753 0.06875 0.0517 0.0
C2015 C 0.52761 0.0902 0.07955 0.0
C2016 C 0.51632 0.1013 0.07338 0.0
C2017 C 0.50546 0.0957 0.05624 0.0
C2018 C 0.50602 0.07964 0.0456 0.0
C2019 C 0.51552 0.1184 0.08494 0.0
C2020 C 0.49873 0.12245 0.08774 0.0
C2021 C 0.53105 0.13036 0.09391 0.0
C2022 C 0.54934 0.12805 0.09065 0.0
C2023 C 0.55418 0.12622 0.07248 0.0
C2024 C 0.57143 0.12403 0.06954 0.0
C2025 C 0.58401 0.12377 0.08467 0.0
C2026 C 0.57936 0.12573 0.10278 0.0
C2027 C 0.56213 0.12791 0.1058 0.0
H2028 H 0.59736 0.12208 0.08236 0.0
H2029 H 0.43086 0.147 0.1098 0.0
H2030 H 0.10513 0.32077 0.34786 0.0
H2031 H 0.13299 0.31755 0.33477 0.0
H2032 H 0.10823 0.26525 0.30882 0.0
H2033 H 0.08007 0.26881 0.32105 0.0
H2034 H 0.14502 0.27014 0.33172 0.0
H2035 H 0.11354 0.28977 0.28094 0.0
H2036 H 0.0968 0.30904 0.26494 0.0
H2037 H 0.14136 0.35227 0.27944 0.0
H2038 H 0.15825 0.33333 0.29589 0.0
H2039 H 0.21473 0.25194 0.27961 0.0
H2040 H 0.18608 0.25504 0.28969 0.0
H2041 H 0.20256 0.31155 0.29628 0.0
H2042 H 0.23113 0.30842 0.28502 0.0
H2043 H 0.16921 0.30419 0.28298 0.0
H2044 H 0.20085 0.28407 0.33398 0.0
H2045 H 0.2172 0.26443 0.34995 0.0
H2046 H 0.17216 0.22175 0.3352 0.0
H2047 H 0.15565 0.24104 0.31884 0.0
C2048 C 0.10558 0.30863 0.33925 0.0
C2049 C 0.09028 0.29508 0.33548 0.0
C2050 C 0.12155 0.30679 0.33174 0.0
C2051 C 0.12288 0.29113 0.32074 0.0
C2052 C 0.10767 0.27749 0.31718 0.0
C2053 C 0.09151 0.27956 0.32414 0.0
C2054 C 0.14021 0.28893 0.31332 0.0
C2055 C 0.15021 0.27743 0.3209 0.0
C2056 C 0.1473 0.29865 0.29944 0.0
C2057 C 0.13705 0.3102 0.28994 0.0
C2058 C 0.11967 0.30346 0.281 0.0
C2059 C 0.11018 0.31431 0.27178 0.0
C2060 C 0.11798 0.3319 0.27125 0.0
C2061 C 0.13531 0.33866 0.27992 0.0
C2062 C 0.14484 0.32787 0.28921 0.0
C2063 C 0.21231 0.26506 0.28282 0.0
C2064 C 0.22547 0.27985 0.28108 0.0
C2065 C 0.19581 0.26686 0.28899 0.0
C2066 C 0.19191 0.28356 0.29425 0.0
C2067 C 0.20498 0.29844 0.29243 0.0
C2068 C 0.22146 0.29662 0.28597 0.0
C2069 C 0.17431 0.28546 0.30148 0.0
C2070 C 0.16418 0.29691 0.29387 0.0
C2071 C 0.16708 0.27565 0.31536 0.0
C2072 C 0.17708 0.26398 0.32501 0.0
C2073 C 0.19449 0.27046 0.33399 0.0
C2074 C 0.20378 0.25939 0.34313 0.0
C2075 C 0.19574 0.24184 0.34356 0.0
C2076 C 0.17839 0.23533 0.33483 0.0
C2077 C 0.16906 0.24633 0.32562 0.0
H2078 H 0.20293 0.23331 0.3507 0.0
H2079 H 0.11063 0.34026 0.26405 0.0
H2080 H 0.96792 0.01516 0.2161 0.0
H2081 H 0.98174 0.01806 0.18738 0.0
H2082 H 0.93133 0.02304 0.15879 0.0
H2083 H 0.91731 0.01936 0.18726 0.0
H2084 H 0.94545 0.00204 0.13789 0.0
H2085 H 0.96861 0.05926 0.17311 0.0
H2086 H 0.98401 0.07951 0.20073 0.0
H2087 H 0.03173 0.05886 0.1953 0.0
H2088 H 0.01655 0.03835 0.16777 0.0
H2089 H 0.98182 0.03662 0.05809 0.0
H2090 H 0.96817 0.03515 0.08728 0.0
H2091 H 0.01177 0.01372 0.11109 0.0
H2092 H 0.02509 0.01447 0.08202 0.0
H2093 H 0.00174 0.04394 0.13428 0.0
H2094 H 0.9779 0.98369 0.10551 0.0
H2095 H 0.9622 0.95952 0.08146 0.0
H2096 H 0.91713 0.98494 0.07607 0.0
H2097 H 0.93248 0.00906 0.10039 0.0
C2098 C 0.9598 0.01692 0.20369 0.0
C2099 C 0.94152 0.01703 0.20395 0.0
C2100 C 0.96776 0.01872 0.18728 0.0
C2101 C 0.9577 0.02111 0.1709 0.0
C2102 C 0.93943 0.02126 0.1712 0.0
C2103 C 0.93141 0.01915 0.18751 0.0
C2104 C 0.96593 0.02271 0.15321 0.0
C2105 C 0.95755 0.01152 0.13712 0.0
C2106 C 0.98211 0.03458 0.15217 0.0
C2107 C 0.9914 0.04719 0.16845 0.0
C2108 C 0.98237 0.059 0.17785 0.0
C2109 C 0.99106 0.07052 0.19348 0.0
C2110 C 0.00883 0.07045 0.19978 0.0
C2111 C 0.01797 0.0589 0.19041 0.0
C2112 C 0.00934 0.04735 0.17477 0.0
C2113 C 0.98845 0.03154 0.06951 0.0
C2114 C 0.0046 0.02574 0.06764 0.0
C2115 C 0.98066 0.03071 0.08617 0.0
C2116 C 0.98901 0.02437 0.10135 0.0
C2117 C 0.00515 0.01874 0.09959 0.0
C2118 C 0.01274 0.01922 0.0829 0.0
C2119 C 0.98094 0.02355 0.11909 0.0
C2120 C 0.98945 0.03477 0.13514 0.0
C2121 C 0.96494 0.01167 0.12023 0.0
C2122 C 0.95637 0.9982 0.10452 0.0
C2123 C 0.96472 0.98418 0.09902 0.0
C2124 C 0.9558 0.9704 0.08554 0.0
C2125 C 0.93865 0.97067 0.07729 0.0
C2126 C 0.93039 0.98473 0.08249 0.0
C2127 C 0.93915 0.99842 0.09618 0.0
H2128 H 0.9318 0.96002 0.06679 0.0
H2129 H 0.01552 0.07935 0.21191 0.0
H2130 H 0.28897 0.64204 0.47415 0.0
H2131 H 0.28528 0.65501 0.44508 0.0
H2132 H 0.25311 0.6888 0.47053 0.0
H2133 H 0.25708 0.67638 0.49955 0.0
H2134 H 0.23961 0.67026 0.43213 0.0
H2135 H 0.29071 0.70846 0.47163 0.0
H2136 H 0.31877 0.70992 0.49187 0.0
H2137 H 0.34117 0.68621 0.4459 0.0
H2138 H 0.31305 0.68431 0.42548 0.0
H2139 H 0.23535 0.74644 0.39423 0.0
H2140 H 0.24796 0.73076 0.41794 0.0
H2141 H 0.27113 0.70154 0.37615 0.0
H2142 H 0.25784 0.71615 0.35226 0.0
H2143 H 0.29135 0.71373 0.41854 0.0
H2144 H 0.23852 0.67932 0.37769 0.0
H2145 H 0.20904 0.67822 0.36027 0.0
H2146 H 0.1889 0.69489 0.41096 0.0
H2147 H 0.21841 0.69642 0.4286 0.0
C2148 C 0.28133 0.6524 0.47352 0.0
C2149 C 0.27363 0.65855 0.48906 0.0
C2150 C 0.27903 0.65954 0.45696 0.0
C2151 C 0.26875 0.67257 0.45585 0.0
C2152 C 0.26091 0.67856 0.47126 0.0
C2153 C 0.2635 0.67174 0.48787 0.0
C2154 C 0.26759 0.68152 0.43936 0.0
C2155 C 0.25093 0.67955 0.42891 0.0
C2156 C 0.28243 0.69359 0.43545 0.0
C2157 C 0.29987 0.69631 0.44705 0.0
C2158 C 0.30169 0.70368 0.46583 0.0
C2159 C 0.31755 0.7045 0.47735 0.0
C2160 C 0.33176 0.69817 0.47017 0.0
C2161 C 0.33016 0.69113 0.45142 0.0
C2162 C 0.31428 0.69019 0.43986 0.0
C2163 C 0.24329 0.73684 0.39013 0.0
C2164 C 0.24536 0.7324 0.37135 0.0
C2165 C 0.25075 0.72818 0.40369 0.0
C2166 C 0.26046 0.71518 0.3986 0.0
C2167 C 0.26389 0.71179 0.38021 0.0
C2168 C 0.25619 0.72016 0.36661 0.0
C2169 C 0.2633 0.70256 0.41142 0.0
C2170 C 0.2802 0.70395 0.42125 0.0
C2171 C 0.24864 0.68992 0.41481 0.0
C2172 C 0.23066 0.68809 0.40442 0.0
C2173 C 0.22781 0.68281 0.38509 0.0
C2174 C 0.21111 0.68212 0.37518 0.0
C2175 C 0.19711 0.68652 0.3845 0.0
C2176 C 0.19976 0.69151 0.40376 0.0
C2177 C 0.21646 0.69227 0.41373 0.0
H2178 H 0.18421 0.68602 0.37681 0.0
H2179 H 0.34399 0.69872 0.47914 0.0
H2180 H 0.66694 0.02367 0.67454 0.0
H2181 H 0.64773 0.02598 0.6463 0.0
H2182 H 0.60456 0.03128 0.67923 0.0
H2183 H 0.62269 0.02734 0.70666 0.0
H2184 H 0.5943 0.00621 0.65303 0.0
H2185 H 0.62563 0.06594 0.659 0.0
H2186 H 0.65119 0.09083 0.66191 0.0
H2187 H 0.66586 0.07062 0.60949 0.0
H2188 H 0.6405 0.0455 0.60636 0.0
H2189 H 0.53973 0.04054 0.58331 0.0
H2190 H 0.561 0.04135 0.61073 0.0
H2191 H 0.58585 0.00344 0.5805 0.0
H2192 H 0.56414 0.0017 0.55334 0.0
H2193 H 0.60543 0.04494 0.60394 0.0
H2194 H 0.57201 0.98266 0.60272 0.0
H2195 H 0.54317 0.96207 0.60112 0.0
H2196 H 0.52958 0.99317 0.64816 0.0
H2197 H 0.55822 0.01413 0.64975 0.0
C2198 C 0.65332 0.02523 0.67558 0.0
C2199 C 0.64622 0.02516 0.69263 0.0
C2200 C 0.64253 0.02685 0.65963 0.0
C2201 C 0.62488 0.02886 0.66091 0.0
C2202 C 0.61817 0.02965 0.67808 0.0
C2203 C 0.62859 0.02737 0.69373 0.0
C2204 C 0.61244 0.02771 0.64427 0.0
C2205 C 0.59676 0.01479 0.64239 0.0
C2206 C 0.61575 0.03888 0.63047 0.0
C2207 C 0.63132 0.05369 0.63258 0.0
C2208 C 0.63445 0.06667 0.64821 0.0
C2209 C 0.64886 0.08087 0.64986 0.0
C2210 C 0.66019 0.08227 0.63593 0.0
C2211 C 0.65711 0.06949 0.6203 0.0
C2212 C 0.64271 0.05528 0.61857 0.0
C2213 C 0.54942 0.03204 0.58269 0.0
C2214 C 0.55032 0.02097 0.56638 0.0
C2215 C 0.56157 0.03269 0.59817 0.0
C2216 C 0.57471 0.02249 0.5972 0.0
C2217 C 0.5756 0.01132 0.58113 0.0
C2218 C 0.56324 0.01036 0.56578 0.0
C2219 C 0.58771 0.02362 0.61308 0.0
C2220 C 0.60333 0.03643 0.6147 0.0
C2221 C 0.58415 0.01283 0.627 0.0
C2222 C 0.56711 1.00006 0.62618 0.0
C2223 C 0.56278 0.9852 0.61257 0.0
C2224 C 0.54649 0.97345 0.61169 0.0
C2225 C 0.53451 0.97635 0.62448 0.0
C2226 C 0.53884 0.99097 0.63822 0.0
C2227 C 0.55509 0.00279 0.63911 0.0
H2228 H 0.52191 0.96724 0.62378 0.0
H2229 H 0.67132 0.09328 0.63722 0.0
H2230 H 0.28089 0.33447 0.9821 0.0
H2231 H 0.28083 0.31708 0.95173 0.0
H2232 H 0.28741 0.36476 0.92591 0.0
H2233 H 0.28712 0.38197 0.95572 0.0
H2234 H 0.26073 0.34064 0.90792 0.0
H2235 H 0.32177 0.34204 0.93369 0.0
H2236 H 0.34438 0.33618 0.95737 0.0
H2237 H 0.32177 0.28085 0.94681 0.0
H2238 H 0.29887 0.28642 0.92322 0.0
H2239 H 0.27963 0.31991 0.81752 0.0
H2240 H 0.28131 0.33164 0.85025 0.0
H2241 H 0.28242 0.27989 0.86579 0.0
H2242 H 0.28195 0.26837 0.83291 0.0
H2243 H 0.30265 0.30181 0.89061 0.0
H2244 H 0.2416 0.30039 0.86506 0.0
H2245 H 0.21541 0.30663 0.84652 0.0
H2246 H 0.23675 0.36218 0.85847 0.0
H2247 H 0.263 0.35625 0.87714 0.0
C2248 C 0.28242 0.34121 0.96993 0.0
C2249 C 0.28385 0.3596 0.97133 0.0
C2250 C 0.28248 0.33127 0.95263 0.0
C2251 C 0.28417 0.33963 0.93655 0.0
C2252 C 0.28601 0.358 0.93809 0.0
C2253 C 0.2858 0.36784 0.9552 0.0
C2254 C 0.28295 0.32955 0.91776 0.0
C2255 C 0.27004 0.33229 0.90408 0.0
C2256 C 0.29456 0.31804 0.91296 0.0
C2257 C 0.30853 0.31466 0.92683 0.0
C2258 C 0.32157 0.32863 0.9365 0.0
C2259 C 0.33444 0.32536 0.94989 0.0
C2260 C 0.33449 0.30816 0.95362 0.0
C2261 C 0.32171 0.29417 0.94391 0.0
C2262 C 0.30879 0.29738 0.93052 0.0
C2263 C 0.28025 0.31105 0.82793 0.0
C2264 C 0.28035 0.29319 0.8227 0.0
C2265 C 0.28105 0.31772 0.84667 0.0
C2266 C 0.28128 0.30655 0.86058 0.0
C2267 C 0.28203 0.28878 0.85538 0.0
C2268 C 0.28173 0.28218 0.8366 0.0
C2269 C 0.28083 0.31357 0.88044 0.0
C2270 C 0.29328 0.3101 0.89438 0.0
C2271 C 0.26877 0.32451 0.88561 0.0
C2272 C 0.25423 0.32787 0.87245 0.0
C2273 C 0.24083 0.3139 0.86346 0.0
C2274 C 0.22592 0.31741 0.85303 0.0
C2275 C 0.22436 0.33482 0.85147 0.0
C2276 C 0.23793 0.34872 0.85981 0.0
C2277 C 0.25279 0.3453 0.87033 0.0
H2278 H 0.21257 0.33763 0.84401 0.0
H2279 H 0.34445 0.30566 0.96401 0.0
H2280 H 0.92887 0.01999 0.32388 0.0
H2281 H 0.94007 0.02353 0.35714 0.0
H2282 H 0.99199 0.01697 0.34289 0.0
H2283 H 0.98079 0.01289 0.30995 0.0
H2284 H 0.98206 0.99592 0.36648 0.0
H2285 H 0.9824 0.05757 0.36317 0.0
H2286 H 0.96922 0.08324 0.3569 0.0
H2287 H 0.93181 0.07111 0.39613 0.0
H2288 H 0.94465 0.04526 0.4025 0.0
H2289 H 0.03106 0.01251 0.4565 0.0
H2290 H 0.01937 0.01237 0.42402 0.0
H2291 H 0.97035 0.02465 0.44154 0.0
H2292 H 0.98234 0.02567 0.47397 0.0
H2293 H 0.97787 0.04314 0.41642 0.0
H2294 H 0.97262 0.97966 0.41525 0.0
H2295 H 0.98146 0.9511 0.41809 0.0
H2296 H 0.02571 0.96565 0.38726 0.0
H2297 H 0.01657 0.99397 0.38348 0.0
C2298 C 0.94274 0.01957 0.32789 0.0
C2299 C 0.95389 0.01596 0.31427 0.0
C2300 C 0.94916 0.02167 0.34692 0.0
C2301 C 0.96694 0.02053 0.35264 0.0
C2302 C 0.97822 0.01777 0.33894 0.0
C2303 C 0.97177 0.01543 0.32006 0.0
C2304 C 0.97358 0.02056 0.37264 0.0
C2305 C 0.98138 0.00645 0.37732 0.0
C2306 C 0.97211 0.03385 0.38703 0.0
C2307 C 0.96437 0.04937 0.38316 0.0
C2308 C 0.97127 0.06029 0.37034 0.0
C2309 C 0.96388 0.0749 0.3668 0.0
C2310 C 0.94965 0.07877 0.37606 0.0
C2311 C 0.94282 0.06808 0.38894 0.0
C2312 C 0.95016 0.05347 0.39254 0.0
C2313 C 0.01775 0.01508 0.45342 0.0
C2314 C 0.0077 0.01918 0.4679 0.0
C2315 C 0.01096 0.01484 0.43476 0.0
C2316 C 0.99377 0.01825 0.43008 0.0
C2317 C 0.98365 0.02205 0.44459 0.0
C2318 C 0.99054 0.02258 0.46321 0.0
C2319 C 0.98655 0.01852 0.41022 0.0
C2320 C 0.9786 0.03266 0.40556 0.0
C2321 C 0.98768 0.00516 0.39577 0.0
C2322 C 0.99409 0.98896 0.39935 0.0
C2323 C 0.98436 0.97683 0.4093 0.0
C2324 C 0.98935 0.96065 0.41095 0.0
C2325 C 0.00428 0.95664 0.40308 0.0
C2326 C 0.01419 0.96878 0.39341 0.0
C2327 C 0.00903 0.98483 0.39137 0.0
H2328 H 0.00809 0.94409 0.40435 0.0
H2329 H 0.94395 0.09008 0.37329 0.0
H2330 H 0.23827 0.63807 0.60564 0.0
H2331 H 0.24259 0.66137 0.63236 0.0
H2332 H 0.29414 0.68353 0.61697 0.0
H2333 H 0.28997 0.66058 0.5905 0.0
H2334 H 0.29256 0.67963 0.65575 0.0
H2335 H 0.26113 0.70162 0.60308 0.0
H2336 H 0.2354 0.69976 0.57931 0.0
H2337 H 0.20005 0.6976 0.62171 0.0
H2338 H 0.22555 0.69936 0.64568 0.0
H2339 H 0.30817 0.75501 0.72072 0.0
H2340 H 0.30743 0.73817 0.68996 0.0
H2341 H 0.24959 0.7272 0.68491 0.0
H2342 H 0.25061 0.74642 0.71356 0.0
H2343 H 0.25633 0.72615 0.65411 0.0
H2344 H 0.28186 0.69965 0.70617 0.0
H2345 H 0.30441 0.69876 0.73248 0.0
H2346 H 0.34566 0.70447 0.69636 0.0
H2347 H 0.32337 0.7055 0.6699 0.0
C2348 C 0.25061 0.64777 0.60826 0.0
C2349 C 0.26376 0.64777 0.59615 0.0
C2350 C 0.25297 0.66102 0.6233 0.0
C2351 C 0.26857 0.67405 0.62624 0.0
C2352 C 0.28203 0.67351 0.61469 0.0
C2353 C 0.27961 0.66048 0.59966 0.0
C2354 C 0.27099 0.68867 0.64109 0.0
C2355 C 0.28467 0.68986 0.65556 0.0
C2356 C 0.26046 0.70166 0.64064 0.0
C2357 C 0.24521 0.70047 0.62612 0.0
C2358 C 0.24785 0.70061 0.60729 0.0
C2359 C 0.23331 0.69963 0.5938 0.0
C2360 C 0.2161 0.69853 0.59899 0.0
C2361 C 0.21338 0.69845 0.6177 0.0
C2362 C 0.22787 0.69947 0.63123 0.0
C2363 C 0.29544 0.74916 0.71265 0.0
C2364 C 0.27941 0.75105 0.7195 0.0
C2365 C 0.29497 0.73951 0.69527 0.0
C2366 C 0.27847 0.73063 0.68556 0.0
C2367 C 0.26254 0.73373 0.69206 0.0
C2368 C 0.26307 0.74443 0.7086 0.0
C2369 C 0.27738 0.71686 0.66972 0.0
C2370 C 0.26417 0.71592 0.65468 0.0
C2371 C 0.28769 0.70353 0.67024 0.0
C2372 C 0.30101 0.70281 0.68614 0.0
C2373 C 0.29575 0.70075 0.70388 0.0
C2374 C 0.30848 0.70023 0.71881 0.0
C2375 C 0.32645 0.70159 0.7161 0.0
C2376 C 0.33174 0.70344 0.69845 0.0
C2377 C 0.31908 0.70397 0.68349 0.0
H2378 H 0.33628 0.70119 0.72766 0.0
H2379 H 0.20487 0.69777 0.58853 0.0
H2380 H 0.6172 0.01897 0.78124 0.0
H2381 H 0.60691 0.01395 0.81127 0.0
H2382 H 0.64955 0.05554 0.83894 0.0
H2383 H 0.6605 0.05995 0.80869 0.0
H2384 H 0.63968 0.0262 0.85994 0.0
H2385 H 0.61413 0.06811 0.82835 0.0
H2386 H 0.60078 0.07886 0.80075 0.0
H2387 H 0.55619 0.03552 0.79467 0.0
H2388 H 0.56943 0.02436 0.82209 0.0
H2389 H 0.59216 0.05942 0.93027 0.0
H2390 H 0.61131 0.04933 0.90834 0.0
H2391 H 0.56519 0.01471 0.87659 0.0
H2392 H 0.54598 0.02579 0.89828 0.0
H2393 H 0.57872 0.03943 0.85824 0.0
H2394 H 0.6061 0.99837 0.89252 0.0
H2395 H 0.62217 0.98884 0.91942 0.0
H2396 H 0.66415 0.03422 0.92261 0.0
H2397 H 0.64865 0.04372 0.89539 0.0
C2398 C 0.62442 0.02687 0.79381 0.0
C2399 C 0.63917 0.04015 0.793 0.0
C2400 C 0.61876 0.02385 0.81084 0.0
C2401 C 0.62743 0.03454 0.82707 0.0
C2402 C 0.64285 0.04718 0.82643 0.0
C2403 C 0.64885 0.04988 0.8093 0.0
C2404 C 0.61839 0.03437 0.8438 0.0
C2405 C 0.62638 0.02915 0.85979 0.0
C2406 C 0.60116 0.03832 0.8433 0.0
C2407 C 0.59284 0.04533 0.82718 0.0
C2408 C 0.60152 0.06083 0.82108 0.0
C2409 C 0.59397 0.067 0.80547 0.0
C2410 C 0.57766 0.05786 0.79594 0.0
C2411 C 0.56882 0.04258 0.80206 0.0
C2412 C 0.57633 0.03634 0.81765 0.0
C2413 C 0.58633 0.0494 0.91883 0.0
C2414 C 0.56781 0.04376 0.9154 0.0
C2415 C 0.59725 0.04331 0.90653 0.0
C2416 C 0.58966 0.03125 0.89083 0.0
C2417 C 0.57126 0.02405 0.88866 0.0
C2418 C 0.5603 0.03051 0.90078 0.0
C2419 C 0.59951 0.03041 0.87454 0.0
C2420 C 0.59181 0.03597 0.85853 0.0
C2421 C 0.61713 0.02723 0.87535 0.0
C2422 C 0.62615 0.0218 0.89203 0.0
C2423 C 0.61869 0.00637 0.89905 0.0
C2424 C 0.62773 1.00094 0.91431 0.0
C2425 C 0.64405 0.01102 0.92285 0.0
C2426 C 0.65149 0.02645 0.91602 0.0
C2427 C 0.64266 0.03178 0.9006 0.0
H2428 H 0.65098 0.00681 0.93469 0.0
H2429 H 0.57186 0.06263 0.78383 0.0
H2430 H 0.29706 0.37885 0.10381 0.0
H2431 H 0.29339 0.3664 0.13283 0.0
H2432 H 0.26955 0.31574 0.10177 0.0
H2433 H 0.27288 0.32825 0.07256 0.0
H2434 H 0.25033 0.32329 0.12887 0.0
H2435 H 0.31198 0.32382 0.12446 0.0
H2436 H 0.34326 0.33602 0.12076 0.0
H2437 H 0.34719 0.37282 0.17017 0.0
H2438 H 0.31582 0.36104 0.17402 0.0
H2439 H 0.27744 0.27457 0.20511 0.0
H2440 H 0.27756 0.28797 0.17653 0.0
H2441 H 0.26205 0.33355 0.2044 0.0
H2442 H 0.26024 0.31948 0.23294 0.0
H2443 H 0.29985 0.3291 0.17964 0.0
H2444 H 0.23543 0.32757 0.18163 0.0
H2445 H 0.20503 0.31204 0.1847 0.0
H2446 H 0.20751 0.27373 0.13832 0.0
H2447 H 0.23819 0.28876 0.13537 0.0
C2448 C 0.2912 0.36501 0.10311 0.0
C2449 C 0.28528 0.35453 0.08586 0.0
C2450 C 0.28914 0.35789 0.11975 0.0
C2451 C 0.28128 0.3401 0.11951 0.0
C2452 C 0.27562 0.32952 0.1023 0.0
C2453 C 0.27763 0.33665 0.08561 0.0
C2454 C 0.27851 0.33276 0.13725 0.0
C2455 C 0.2612 0.32454 0.13992 0.0
C2456 C 0.29264 0.33444 0.15177 0.0
C2457 C 0.31146 0.34169 0.14939 0.0
C2458 C 0.31944 0.33465 0.13443 0.0
C2459 C 0.33721 0.34146 0.13233 0.0
C2460 C 0.34719 0.35523 0.14518 0.0
C2461 C 0.33943 0.36219 0.1602 0.0
C2462 C 0.32166 0.35544 0.16235 0.0
C2463 C 0.27319 0.28707 0.20508 0.0
C2464 C 0.26817 0.29563 0.22125 0.0
C2465 C 0.27352 0.29481 0.18872 0.0
C2466 C 0.26943 0.31153 0.18827 0.0
C2467 C 0.26475 0.32038 0.20437 0.0
C2468 C 0.26382 0.31237 0.22067 0.0
C2469 C 0.2717 0.3201 0.1713 0.0
C2470 C 0.28898 0.32826 0.16867 0.0
C2471 C 0.25764 0.31815 0.15675 0.0
C2472 C 0.23926 0.30906 0.15858 0.0
C2473 C 0.22965 0.31563 0.17235 0.0
C2474 C 0.21233 0.30696 0.17401 0.0
C2475 C 0.20438 0.29184 0.16179 0.0
C2476 C 0.21372 0.28539 0.14785 0.0
C2477 C 0.23109 0.29396 0.1462 0.0
H2478 H 0.19096 0.28518 0.16306 0.0
H2479 H 0.36095 0.36047 0.14354 0.0
H2480 H 0.22432 0.9223 0.02101 0.0
H2481 H 0.19798 0.93573 0.01919 0.0
H2482 H 0.21676 0.96286 0.97398 0.0
H2483 H 0.24374 0.9502 0.97665 0.0
H2484 H 0.20867 0.9844 0.00178 0.0
H2485 H 0.17916 0.93027 0.96531 0.0
H2486 H 0.17566 0.89795 0.95994 0.0
H2487 H 0.15355 0.89386 0.01167 0.0
H2488 H 0.15712 0.92618 0.01748 0.0
H2489 H 0.13423 0.02309 0.01863 0.0
H2490 H 0.15086 0.0056 -0.00082 0.0
H2491 H 0.15137 0.96953 0.04011 0.0
H2492 H 0.13502 0.98709 0.05962 0.0
H2493 H 0.14658 0.95258 0.00316 0.0
H2494 H 0.18331 1.00151 0.04398 0.0
H2495 H 0.19434 0.03255 0.05719 0.0
H2496 H 0.20845 0.04504 0.00385 0.0
H2497 H 0.19696 0.01411 0.99017 0.0
C2498 C 0.22251 0.9308 0.01044 0.0
C2499 C 0.2357 0.93536 -0.00105 0.0
C2500 C 0.20751 0.93835 0.0093 0.0
C2501 C 0.20533 0.9499 0.99611 0.0
C2502 C 0.21824 0.95383 0.98406 0.0
C2503 C 0.23351 0.94667 0.9856 0.0
C2504 C 0.19052 0.95932 0.99661 0.0
C2505 C 0.1949 0.97761 0.00127 0.0
C2506 C 0.17282 0.95017 0.99642 0.0
C2507 C 0.16819 0.93068 0.99171 0.0
C2508 C 0.17327 0.92246 0.9754 0.0
C2509 C 0.1714 0.90415 0.97234 0.0
C2510 C 0.16432 0.89386 0.98542 0.0
C2511 C 0.15891 0.90185 0.00148 0.0
C2512 C 0.16076 0.92017 0.00462 0.0
C2513 C 0.13794 0.0114 0.02336 0.0
C2514 C 0.13398 0.0066 0.04075 0.0
C2515 C 0.14714 1.00136 0.0122 0.0
C2516 C 0.15222 0.98635 0.01829 0.0
C2517 C 0.14741 0.98105 0.03521 0.0
C2518 C 0.13845 0.99122 0.04647 0.0
C2519 C 0.16485 0.97768 0.00869 0.0
C2520 C 0.16006 0.95954 0.00245 0.0
C2521 C 0.1824 0.98689 0.00785 0.0
C2522 C 0.18879 0.0056 0.01592 0.0
C2523 C 0.18839 0.01094 0.03496 0.0
C2524 C 0.1948 0.0285 0.04256 0.0
C2525 C 0.20196 0.04079 0.03134 0.0
C2526 C 0.20275 0.03553 0.01249 0.0
C2527 C 0.19623 0.018 0.00479 0.0
H2528 H 0.207 0.05437 0.03727 0.0
H2529 H 0.16309 0.87969 0.98314 0.0
H2530 H 0.69498 0.65815 0.00378 0.0
H2531 H 0.66612 0.63943 0.00615 0.0
H2532 H 0.68992 0.59337 -0.0001 0.0
H2533 H 0.71866 0.6119 0.99727 0.0
H2534 H 0.65882 0.58784 0.97868 0.0
H2535 H 0.68069 0.61007 0.04232 0.0
H2536 H 0.69261 0.63264 0.06927 0.0
H2537 H 0.64541 0.6547 0.06241 0.0
H2538 H 0.63331 0.63239 0.03525 0.0
H2539 H 0.59137 0.53195 0.02409 0.0
H2540 H 0.61996 0.55061 0.02067 0.0
H2541 H 0.59217 0.58688 0.9953 0.0
H2542 H 0.56365 0.56786 0.9974 0.0
H2543 H 0.62486 0.59702 0.03248 0.0
H2544 H 0.605 0.57525 0.96617 0.0
H2545 H 0.59387 0.5515 0.94014 0.0
H2546 H 0.63877 0.52751 0.95358 0.0
H2547 H 0.64993 0.55094 0.98 0.0
C2548 C 0.69403 0.64403 0.00286 0.0
C2549 C 0.70908 0.6365 0.00034 0.0
C2550 C 0.67757 0.63336 0.00432 0.0
C2551 C 0.67592 0.61502 0.00339 0.0
C2552 C 0.69089 0.60749 0.00066 0.0
C2553 C 0.70731 0.61811 -0.00082 0.0
C2554 C 0.65856 0.60356 0.00496 0.0
C2555 C 0.6515 0.58982 0.99053 0.0
C2556 C 0.64891 0.60618 0.02034 0.0
C2557 C 0.65619 0.61968 0.03661 0.0
C2558 C 0.67293 0.61983 0.04644 0.0
C2559 C 0.6797 0.63256 0.06179 0.0
C2560 C 0.6698 0.64513 0.06752 0.0
C2561 C 0.65308 0.64497 0.05794 0.0
C2562 C 0.64625 0.63228 0.04257 0.0
C2563 C 0.5913 0.54361 0.01731 0.0
C2564 C 0.57513 0.54818 0.01074 0.0
C2565 C 0.60765 0.55435 0.01557 0.0
C2566 C 0.60806 0.56998 0.00762 0.0
C2567 C 0.59204 0.57476 0.00134 0.0
C2568 C 0.57574 0.56384 0.00262 0.0
C2569 C 0.62524 0.58157 0.00618 0.0
C2570 C 0.63225 0.59521 0.02065 0.0
C2571 C 0.63493 0.57883 0.99094 0.0
C2572 C 0.62808 0.56462 0.97528 0.0
C2573 C 0.61231 0.56473 0.9638 0.0
C2574 C 0.60604 0.55138 0.94892 0.0
C2575 C 0.61555 0.53794 0.94527 0.0
C2576 C 0.63137 0.53787 0.95648 0.0
C2577 C 0.63766 0.55117 0.97142 0.0
H2578 H 0.61071 0.52764 0.93371 0.0
H2579 H 0.67506 0.65496 0.0794 0.0
H2580 H 0.64269 0.47215 0.29438 0.0
H2581 H 0.65763 0.44682 0.29289 0.0
H2582 H 0.69871 0.47508 0.2649 0.0
H2583 H 0.68407 0.50051 0.26663 0.0
H2584 H 0.68312 0.44048 0.24714 0.0
H2585 H 0.70866 0.47093 0.30784 0.0
H2586 H 0.70736 0.48448 0.33981 0.0
H2587 H 0.68015 0.43491 0.35302 0.0
H2588 H 0.68104 0.42111 0.321 0.0
H2589 H 0.75136 0.39509 0.24531 0.0
H2590 H 0.73637 0.4185 0.25679 0.0
H2591 H 0.69975 0.381 0.28099 0.0
H2592 H 0.71485 0.35734 0.26938 0.0
H2593 H 0.70987 0.41752 0.3019 0.0
H2594 H 0.6856 0.3865 0.24194 0.0
H2595 H 0.68659 0.37279 0.20997 0.0
H2596 H 0.71003 0.42303 0.19512 0.0
H2597 H 0.70956 0.43699 0.22715 0.0
C2598 C 0.65498 0.47299 0.28803 0.0
C2599 C 0.66223 0.48833 0.28064 0.0
C2600 C 0.6635 0.45854 0.28724 0.0
C2601 C 0.67928 0.45911 0.27882 0.0
C2602 C 0.68655 0.4744 0.27147 0.0
C2603 C 0.67821 0.48894 0.27253 0.0
C2604 C 0.688 0.44361 0.27704 0.0
C2605 C 0.68907 0.43554 0.2591 0.0
C2606 C 0.69519 0.4368 0.2927 0.0
C2607 C 0.69472 0.44504 0.31196 0.0
C2608 C 0.70224 0.46296 0.3175 0.0
C2609 C 0.70161 0.47067 0.33565 0.0
C2610 C 0.69363 0.46058 0.34842 0.0
C2611 C 0.6863 0.44272 0.3431 0.0
C2612 C 0.68687 0.43494 0.32495 0.0
C2613 C 0.74053 0.39196 0.25367 0.0
C2614 C 0.73416 0.37446 0.25639 0.0
C2615 C 0.73194 0.40531 0.26016 0.0
C2616 C 0.71677 0.40141 0.26942 0.0
C2617 C 0.71142 0.38424 0.27381 0.0
C2618 C 0.72007 0.37078 0.26726 0.0
C2619 C 0.70537 0.41474 0.27198 0.0
C2620 C 0.70373 0.42234 0.28997 0.0
C2621 C 0.69746 0.42109 0.25636 0.0
C2622 C 0.69772 0.41276 0.23703 0.0
C2623 C 0.69115 0.3946 0.23192 0.0
C2624 C 0.69159 0.38678 0.21378 0.0
C2625 C 0.69842 0.39702 0.20053 0.0
C2626 C 0.70478 0.41511 0.20541 0.0
C2627 C 0.70443 0.42298 0.22356 0.0
H2628 H 0.69873 0.39095 0.18648 0.0
H2629 H 0.69316 0.46657 0.36247 0.0
H2630 H 0.83909 0.48292 0.50209 0.0
H2631 H 0.87151 0.48997 0.50977 0.0
H2632 H 0.87416 0.43528 0.49527 0.0
H2633 H 0.84161 0.42805 0.48803 0.0
H2634 H 0.89556 0.45206 0.52922 0.0
H2635 H 0.88652 0.45875 0.46511 0.0
H2636 H 0.87004 0.4674 0.43799 0.0
H2637 H 0.88402 0.52161 0.46227 0.0
H2638 H 0.90043 0.51326 0.48966 0.0
H2639 H 0.98714 0.48286 0.51158 0.0
H2640 H 0.95762 0.4672 0.5161 0.0
H2641 H 0.94214 0.51685 0.53195 0.0
H2642 H 0.97182 0.53257 0.52748 0.0
H2643 H 0.92825 0.49749 0.49553 0.0
H2644 H 0.9365 0.48827 0.56125 0.0
H2645 H 0.95291 0.47753 0.58706 0.0
H2646 H 0.94243 0.4256 0.55671 0.0
H2647 H 0.92584 0.43592 0.53073 0.0
C2648 C 0.84666 0.47252 0.50034 0.0
C2649 C 0.83819 0.45507 0.49446 0.0
C2650 C 0.86499 0.47645 0.5049 0.0
C2651 C 0.87488 0.46303 0.50306 0.0
C2652 C 0.8665 0.44562 0.49691 0.0
C2653 C 0.84811 0.44163 0.49262 0.0
C2654 C 0.89416 0.46772 0.5066 0.0
C2655 C 0.90289 0.46178 0.52177 0.0
C2656 C 0.90343 0.48007 0.49649 0.0
C2657 C 0.89472 0.48537 0.47944 0.0
C2658 C 0.88613 0.47252 0.46464 0.0
C2659 C 0.87677 0.47737 0.44924 0.0
C2660 C 0.87598 0.49504 0.44841 0.0
C2661 C 0.88468 0.50793 0.46292 0.0
C2662 C 0.89408 0.50316 0.47836 0.0
C2663 C 0.9777 0.49029 0.51697 0.0
C2664 C 0.98127 0.5087 0.51918 0.0
C2665 C 0.96099 0.48139 0.51968 0.0
C2666 C 0.94798 0.49102 0.52429 0.0
C2667 C 0.95228 0.50939 0.52855 0.0
C2668 C 0.96898 0.51829 0.52581 0.0
C2669 C 0.92943 0.48278 0.51899 0.0
C2670 C 0.92099 0.48774 0.50304 0.0
C2671 C 0.92072 0.46921 0.52806 0.0
C2672 C 0.92996 0.46287 0.54404 0.0
C2673 C 0.93769 0.47455 0.56008 0.0
C2674 C 0.94703 0.46857 0.57473 0.0
C2675 C 0.9488 0.45097 0.57349 0.0
C2676 C 0.94105 0.43924 0.55766 0.0
C2677 C 0.93159 0.44512 0.54301 0.0
H2678 H 0.95614 0.44642 0.58482 0.0
H2679 H 0.86863 0.49876 0.43653 0.0
H2680 H 0.37917 0.07352 0.28667 0.0
H2681 H 0.36648 0.09898 0.28157 0.0
H2682 H 0.32453 0.08193 0.31506 0.0
H2683 H 0.33636 0.05493 0.31841 0.0
H2684 H 0.31187 0.09031 0.28362 0.0
H2685 H 0.36185 0.11922 0.32975 0.0
H2686 H 0.39389 0.12347 0.3411 0.0
H2687 H 0.40755 0.14411 0.29091 0.0
H2688 H 0.37565 0.13975 0.27913 0.0
H2689 H 0.27892 0.1663 0.26649 0.0
H2690 H 0.29263 0.14682 0.28508 0.0
H2691 H 0.33643 0.15085 0.25165 0.0
H2692 H 0.3227 0.17026 0.23299 0.0
H2693 H 0.34731 0.15111 0.2889 0.0
H2694 H 0.30398 0.11937 0.24016 0.0
H2695 H 0.27479 0.10986 0.22112 0.0
H2696 H 0.25164 0.09012 0.26794 0.0
H2697 H 0.28062 0.10007 0.28748 0.0
C2698 C 0.36754 0.07548 0.29342 0.0
C2699 C 0.35885 0.06271 0.30329 0.0
C2700 C 0.36037 0.09009 0.29061 0.0
C2701 C 0.34504 0.09274 0.29864 0.0
C2702 C 0.33662 0.08021 0.3091 0.0
C2703 C 0.34336 0.065 0.31114 0.0
C2704 C 0.33692 0.10764 0.29422 0.0
C2705 C 0.31934 0.10376 0.28543 0.0
C2706 C 0.3472 0.12491 0.29564 0.0
C2707 C 0.3663 0.12929 0.30364 0.0
C2708 C 0.37168 0.12485 0.32123 0.0
C2709 C 0.38983 0.12718 0.32768 0.0
C2710 C 0.40274 0.1341 0.31675 0.0
C2711 C 0.39754 0.13884 0.2994 0.0
C2712 C 0.37941 0.13651 0.29287 0.0
C2713 C 0.29159 0.16316 0.26334 0.0
C2714 C 0.29973 0.16939 0.24825 0.0
C2715 C 0.29937 0.15216 0.27393 0.0
C2716 C 0.31539 0.14743 0.26955 0.0
C2717 C 0.32404 0.15445 0.25515 0.0
C2718 C 0.31616 0.16529 0.24442 0.0
C2719 C 0.32221 0.13376 0.27863 0.0
C2720 C 0.33955 0.13785 0.288 0.0
C2721 C 0.312 0.11649 0.27708 0.0
C2722 C 0.29441 0.11089 0.26545 0.0
C2723 C 0.29261 0.11335 0.24654 0.0
C2724 C 0.2761 0.10782 0.23562 0.0
C2725 C 0.26133 0.0995 0.24335 0.0
C2726 C 0.26306 0.09669 0.26201 0.0
C2727 C 0.27951 0.10233 0.27304 0.0
H2728 H 0.24858 0.09515 0.23485 0.0
H2729 H 0.41678 0.13575 0.32171 0.0
H2730 H 0.31619 0.14452 0.4871 0.0
H2731 H 0.34446 0.13374 0.48648 0.0
H2732 H 0.33629 0.11264 0.53806 0.0
H2733 H 0.30841 0.12314 0.5387 0.0
H2734 H 0.37037 0.13013 0.5381 0.0
H2735 H 0.32527 0.08693 0.49776 0.0
H2736 H 0.30258 0.07726 0.47045 0.0
H2737 H 0.34236 0.09122 0.43411 0.0
H2738 H 0.36525 0.10129 0.46128 0.0
H2739 H 0.41265 0.06256 0.5545 0.0
H2740 H 0.38773 0.07565 0.543 0.0
H2741 H 0.4167 0.09337 0.49842 0.0
H2742 H 0.44166 0.07993 0.50982 0.0
H2743 H 0.37627 0.08199 0.48974 0.0
H2744 H 0.42237 0.12119 0.53274 0.0
H2745 H 0.44342 0.12845 0.56154 0.0
H2746 H 0.39966 0.12005 0.5943 0.0
H2747 H 0.37837 0.11237 0.56568 0.0
C2748 C 0.32061 0.13774 0.49836 0.0
C2749 C 0.31007 0.13453 0.51288 0.0
C2750 C 0.33665 0.13154 0.49794 0.0
C2751 C 0.34238 0.12232 0.51219 0.0
C2752 C 0.33212 0.11972 0.52694 0.0
C2753 C 0.31613 0.12565 0.52723 0.0
C2754 C 0.35873 0.11476 0.51194 0.0
C2755 C 0.37173 0.11972 0.52743 0.0
C2756 C 0.36061 0.10134 0.49788 0.0
C2757 C 0.34692 0.09511 0.48155 0.0
C2758 C 0.32915 0.0881 0.48396 0.0
C2759 C 0.31626 0.08253 0.46851 0.0
C2760 C 0.32101 0.08369 0.45056 0.0
C2761 C 0.33869 0.09038 0.44803 0.0
C2762 C 0.35163 0.09603 0.46345 0.0
C2763 C 0.41342 0.06877 0.54191 0.0
C2764 C 0.42896 0.07036 0.53303 0.0
C2765 C 0.39924 0.07622 0.53535 0.0
C2766 C 0.40051 0.08563 0.52 0.0
C2767 C 0.41548 0.0861 0.51023 0.0
C2768 C 0.42968 0.07849 0.51675 0.0
C2769 C 0.38747 0.09702 0.51622 0.0
C2770 C 0.37518 0.0928 0.50006 0.0
C2771 C 0.38602 0.111 0.5298 0.0
C2772 C 0.39878 0.11614 0.54705 0.0
C2773 C 0.41724 0.12081 0.54608 0.0
C2774 C 0.42922 0.12498 0.56238 0.0
C2775 C 0.42288 0.1247 0.57974 0.0
C2776 C 0.40455 0.12027 0.58084 0.0
C2777 C 0.39252 0.11602 0.56459 0.0
H2778 H 0.43218 0.12793 0.59234 0.0
H2779 H 0.31101 0.07937 0.43861 0.0
H2780 H 0.68447 0.58156 0.28552 0.0
H2781 H 0.70545 0.60942 0.28546 0.0
H2782 H 0.66196 0.63746 0.28731 0.0
H2783 H 0.64102 0.60985 0.28701 0.0
H2784 H 0.68088 0.64672 0.26069 0.0
H2785 H 0.69393 0.63991 0.32515 0.0
H2786 H 0.70295 0.62493 0.35159 0.0
H2787 H 0.75364 0.62372 0.33156 0.0
H2788 H 0.74482 0.63848 0.30485 0.0
H2789 H 0.73177 0.73545 0.29414 0.0
H2790 H 0.714 0.70623 0.29558 0.0
H2791 H 0.74909 0.68236 0.26257 0.0
H2792 H 0.76639 0.7115 0.26008 0.0
H2793 H 0.73613 0.67049 0.30395 0.0
H2794 H 0.72126 0.6751 0.23783 0.0
H2795 H 0.71088 0.68879 0.21093 0.0
H2796 H 0.6628 0.69398 0.23495 0.0
H2797 H 0.67301 0.68048 0.26211 0.0
C2798 C 0.67944 0.5937 0.28617 0.0
C2799 C 0.66105 0.59345 0.28613 0.0
C2800 C 0.69145 0.60963 0.28618 0.0
C2801 C 0.68529 0.62557 0.28637 0.0
C2802 C 0.66703 0.62535 0.28702 0.0
C2803 C 0.65507 0.60951 0.28687 0.0
C2804 C 0.69747 0.64239 0.28469 0.0
C2805 C 0.69288 0.65193 0.27028 0.0
C2806 C 0.71337 0.64908 0.2969 0.0
C2807 C 0.71863 0.6401 0.31288 0.0
C2808 C 0.70693 0.63629 0.32628 0.0
C2809 C 0.71202 0.62787 0.34134 0.0
C2810 C 0.72883 0.62332 0.34322 0.0
C2811 C 0.74061 0.62722 0.33006 0.0
C2812 C 0.73557 0.63562 0.31497 0.0
C2813 C 0.73578 0.72402 0.28719 0.0
C2814 C 0.75074 0.72589 0.27723 0.0
C2815 C 0.72558 0.70734 0.28803 0.0
C2816 C 0.73026 0.69222 0.27916 0.0
C2817 C 0.7453 0.69393 0.2695 0.0
C2818 C 0.75529 0.71061 0.26829 0.0
C2819 C 0.71937 0.67466 0.28008 0.0
C2820 C 0.72417 0.6651 0.29436 0.0
C2821 C 0.70363 0.66791 0.2678 0.0
C2822 C 0.69805 0.6771 0.25215 0.0
C2823 C 0.70864 0.67947 0.23755 0.0
C2824 C 0.70271 0.68704 0.22217 0.0
C2825 C 0.68618 0.69223 0.22122 0.0
C2826 C 0.6756 0.68996 0.2357 0.0
C2827 C 0.68145 0.68236 0.25109 0.0
H2828 H 0.6816 0.69806 0.20929 0.0
H2829 H 0.73275 0.61682 0.35489 0.0
H2830 H 0.83827 0.4673 0.79057 0.0
H2831 H 0.82125 0.43783 0.79148 0.0
H2832 H 0.86804 0.41596 0.7826 0.0
H2833 H 0.88521 0.44529 0.78143 0.0
H2834 H 0.84013 0.40281 0.75658 0.0
H2835 H 0.85305 0.41393 0.82187 0.0
H2836 H 0.85555 0.42946 0.85365 0.0
H2837 H 0.79852 0.42364 0.84971 0.0
H2838 H 0.79567 0.40838 0.81769 0.0
H2839 H 0.8141 0.31555 0.77096 0.0
H2840 H 0.82795 0.34646 0.77388 0.0
H2841 H 0.77626 0.36091 0.77467 0.0
H2842 H 0.76217 0.32973 0.77238 0.0
H2843 H 0.80404 0.37852 0.80427 0.0
H2844 H 0.79564 0.36297 0.73584 0.0
H2845 H 0.7989 0.34097 0.70997 0.0
H2846 H 0.85554 0.35068 0.72592 0.0
H2847 H 0.85264 0.37272 0.75186 0.0
C2848 C 0.84499 0.45623 0.78898 0.0
C2849 C 0.86292 0.45844 0.78552 0.0
C2850 C 0.83531 0.43953 0.78973 0.0
C2851 C 0.84355 0.42503 0.78712 0.0
C2852 C 0.86164 0.42723 0.7846 0.0
C2853 C 0.87131 0.44389 0.78378 0.0
C2854 C 0.83274 0.40743 0.78434 0.0
C2855 C 0.83224 0.39749 0.76701 0.0
C2856 C 0.82254 0.40079 0.79804 0.0
C2857 C 0.82416 0.41027 0.8172 0.0
C2858 C 0.84104 0.4162 0.82763 0.0
C2859 C 0.84252 0.4249 0.84573 0.0
C2860 C 0.82721 0.42762 0.85366 0.0
C2861 C 0.81038 0.42159 0.84351 0.0
C2862 C 0.80882 0.41292 0.82537 0.0
C2863 C 0.80563 0.32525 0.77131 0.0
C2864 C 0.78714 0.32047 0.7714 0.0
C2865 C 0.81355 0.34283 0.7731 0.0
C2866 C 0.80297 0.35565 0.77436 0.0
C2867 C 0.78444 0.35095 0.77371 0.0
C2868 C 0.77649 0.3333 0.77222 0.0
C2869 C 0.81159 0.37404 0.77661 0.0
C2870 C 0.81158 0.38416 0.79375 0.0
C2871 C 0.82202 0.38063 0.76309 0.0
C2872 C 0.8239 0.36944 0.74581 0.0
C2873 C 0.80881 0.36057 0.73367 0.0
C2874 C 0.8106 0.348 0.71907 0.0
C2875 C 0.82741 0.34425 0.71652 0.0
C2876 C 0.84254 0.35354 0.72802 0.0
C2877 C 0.84084 0.36614 0.74259 0.0
H2878 H 0.82882 0.33405 0.70578 0.0
H2879 H 0.82838 0.43433 0.8677 0.0
H2880 H 0.07457 0.84639 0.0743 0.0
H2881 H 0.07201 0.87517 0.06439 0.0
H2882 H 0.01682 0.86648 0.07424 0.0
H2883 H 0.01957 0.83814 0.08501 0.0
H2884 H 0.02429 0.87939 0.03805 0.0
H2885 H 0.04206 0.89346 0.10358 0.0
H2886 H 0.06064 0.89517 0.13351 0.0
H2887 H 0.10524 0.92496 0.11204 0.0
H2888 H 0.08701 0.92313 0.08181 0.0
H2889 H 0.00392 0.96455 0.0329 0.0
H2890 H 0.00796 0.93624 0.04192 0.0
H2891 H 0.06501 0.95283 0.04476 0.0
H2892 H 0.06096 0.98138 0.03539 0.0
H2893 H 0.05743 0.93569 0.07382 0.0
H2894 H 0.0398 0.92237 0.00851 0.0
H2895 H 0.02116 0.9215 0.97876 0.0
H2896 H 0.97667 0.89068 -0.0006 0.0
H2897 H 0.99496 0.89162 0.02942 0.0
C2898 C 0.06185 0.85055 0.0743 0.0
C2899 C 0.04726 0.83974 0.08044 0.0
C2900 C 0.06041 0.86712 0.06868 0.0
C2901 C 0.04419 0.87325 0.06847 0.0
C2902 C 0.02951 0.86227 0.07419 0.0
C2903 C 0.03111 0.84598 0.08038 0.0
C2904 C 0.04253 0.89099 0.06238 0.0
C2905 C 0.03142 0.89168 0.04602 0.0
C2906 C 0.05208 0.90724 0.07236 0.0
C2907 C 0.06325 0.90787 0.0903 0.0
C2908 C 0.05591 0.90011 0.10511 0.0
C2909 C 0.06636 0.90117 0.12217 0.0
C2910 C 0.08414 0.91009 0.12465 0.0
C2911 C 0.09149 0.91798 0.11007 0.0
C2912 C 0.08111 0.91693 0.09297 0.0
C2913 C 0.01736 0.96225 0.03514 0.0
C2914 C 0.03204 0.97545 0.03298 0.0
C2915 C 0.01968 0.94585 0.04038 0.0
C2916 C 0.03682 0.94192 0.04384 0.0
C2917 C 0.05158 0.95522 0.04211 0.0
C2918 C 0.04924 0.97164 0.03665 0.0
C2919 C 0.03917 0.92414 0.04945 0.0
C2920 C 0.05039 0.92342 0.06574 0.0
C2921 C 0.02978 0.90784 0.03935 0.0
C2922 C 0.01872 0.90722 0.02131 0.0
C2923 C 0.026 0.91553 0.00678 0.0
C2924 C 0.0155 0.91501 0.98985 0.0
C2925 C 0.99773 0.90609 0.98722 0.0
C2926 C 0.99043 0.89762 0.00148 0.0
C2927 C 0.00086 0.89814 0.01845 0.0
H2928 H 0.98963 0.90569 0.9741 0.0
H2929 H 0.09218 0.91095 0.13789 0.0
H2930 H 0.95466 0.24762 0.86356 0.0
H2931 H 0.92515 0.24731 0.84754 0.0
H2932 H 0.90838 0.26742 0.89918 0.0
H2933 H 0.93803 0.26714 0.91548 0.0
H2934 H 0.88055 0.24485 0.87793 0.0
H2935 H 0.92258 0.29526 0.86733 0.0
H2936 H 0.95099 0.3109 0.8587 0.0
H2937 H 0.93911 0.28213 0.80372 0.0
H2938 H 0.91072 0.26615 0.8121 0.0
H2939 H 0.80694 0.27279 0.82946 0.0
H2940 H 0.83393 0.27147 0.84947 0.0
H2941 H 0.85784 0.25387 0.80136 0.0
H2942 H 0.831 0.25542 0.78138 0.0
H2943 H 0.88188 0.27728 0.82295 0.0
H2944 H 0.84077 0.22581 0.83396 0.0
H2945 H 0.81222 0.21018 0.84228 0.0
H2946 H 0.82209 0.24117 0.89615 0.0
H2947 H 0.85065 0.25714 0.88805 0.0
C2948 C 0.94453 0.25149 0.87164 0.0
C2949 C 0.94867 0.25723 0.89084 0.0
C2950 C 0.92767 0.25153 0.8624 0.0
C2951 C 0.91452 0.2578 0.87194 0.0
C2952 C 0.91824 0.26259 0.89139 0.0
C2953 C 0.93516 0.2623 0.90076 0.0
C2954 C 0.89749 0.26019 0.86128 0.0
C2955 C 0.88086 0.25217 0.86609 0.0
C2956 C 0.89768 0.26957 0.8456 0.0
C2957 C 0.91457 0.27942 0.84039 0.0
C2958 C 0.92606 0.29222 0.85343 0.0
C2959 C 0.94215 0.30114 0.84858 0.0
C2960 C 0.94686 0.29749 0.83069 0.0
C2961 C 0.93544 0.28494 0.81758 0.0
C2962 C 0.91933 0.27597 0.82236 0.0
C2963 C 0.81793 0.26871 0.82303 0.0
C2964 C 0.81685 0.26488 0.8035 0.0
C2965 C 0.83342 0.26782 0.83461 0.0
C2966 C 0.84817 0.26256 0.82709 0.0
C2967 C 0.84691 0.25824 0.80766 0.0
C2968 C 0.83149 0.2593 0.7961 0.0
C2969 C 0.8649 0.26159 0.83929 0.0
C2970 C 0.88152 0.26999 0.83482 0.0
C2971 C 0.86467 0.25259 0.85524 0.0
C2972 C 0.84778 0.24273 0.86036 0.0
C2973 C 0.83683 0.22932 0.84756 0.0
C2974 C 0.82065 0.22041 0.85223 0.0
C2975 C 0.81535 0.22469 0.86972 0.0
C2976 C 0.82623 0.23787 0.88261 0.0
C2977 C 0.84243 0.24683 0.878 0.0
H2978 H 0.80283 0.21774 0.87328 0.0
H2979 H 0.95934 0.30439 0.82697 0.0
H2980 H 0.53726 0.2132 0.60998 0.0
H2981 H 0.53403 0.18283 0.59625 0.0
H2982 H 0.54849 0.19996 0.54451 0.0
H2983 H 0.55172 0.23107 0.55842 0.0
H2984 H 0.52102 0.1688 0.53909 0.0
H2985 H 0.57929 0.18694 0.57311 0.0
H2986 H 0.6013 0.20053 0.60009 0.0
H2987 H 0.57605 0.16355 0.63368 0.0
H2988 H 0.55373 0.14989 0.60697 0.0
H2989 H 0.54146 0.08234 0.51111 0.0
H2990 H 0.5442 0.11428 0.51905 0.0
H2991 H 0.52515 0.10611 0.57181 0.0
H2992 H 0.52189 0.07416 0.56376 0.0
H2993 H 0.55678 0.13338 0.57409 0.0
H2994 H 0.498 0.11623 0.54164 0.0
H2995 H 0.4748 0.10273 0.51572 0.0
H2996 H 0.50005 0.13741 0.4799 0.0
H2997 H 0.52362 0.15094 0.50557 0.0
C2998 C 0.5397 0.21072 0.5956 0.0
C2999 C 0.545 0.22488 0.58548 0.0
C3000 C 0.53785 0.19314 0.58773 0.0
C3001 C 0.54137 0.18881 0.5694 0.0
C3002 C 0.54579 0.2028 0.55875 0.0
C3003 C 0.5476 0.22065 0.5667 0.0
C3004 C 0.54107 0.16973 0.56217 0.0
C3005 C 0.52916 0.16119 0.54652 0.0
C3006 C 0.55126 0.15939 0.572 0.0
C3007 C 0.56476 0.16747 0.58806 0.0
C3008 C 0.57837 0.18178 0.58629 0.0
C3009 C 0.59091 0.18949 0.60153 0.0
C3010 C 0.59006 0.18293 0.6186 0.0
C3011 C 0.57669 0.16862 0.62045 0.0
C3012 C 0.5641 0.16087 0.60526 0.0
C3013 C 0.53787 0.08729 0.52444 0.0
C3014 C 0.53146 0.07548 0.53677 0.0
C3015 C 0.53936 0.10564 0.52893 0.0
C3016 C 0.53482 0.11279 0.54604 0.0
C3017 C 0.52873 0.10106 0.55851 0.0
C3018 C 0.52685 0.0827 0.55386 0.0
C3019 C 0.53668 0.13244 0.55114 0.0
C3020 C 0.54885 0.14105 0.56647 0.0
C3021 C 0.52669 0.14274 0.54104 0.0
C3022 C 0.51275 0.13443 0.52546 0.0
C3023 C 0.49877 0.12082 0.52817 0.0
C3024 C 0.48551 0.1132 0.51354 0.0
C3025 C 0.48599 0.11916 0.49614 0.0
C3026 C 0.49973 0.13277 0.49336 0.0
C3027 C 0.51304 0.14042 0.50796 0.0
H3028 H 0.47568 0.11328 0.48484 0.0
H3029 H 0.59977 0.18892 0.63039 0.0
H3030 H 0.57133 0.77117 0.42862 0.0
H3031 H 0.59725 0.77387 0.41112 0.0
H3032 H 0.56228 0.75625 0.35987 0.0
H3033 H 0.53642 0.75324 0.37729 0.0
H3034 H 0.58927 0.74035 0.35942 0.0
H3035 H 0.5833 0.80003 0.37258 0.0
H3036 H 0.58074 0.82757 0.39143 0.0
H3037 H 0.63217 0.82986 0.42164 0.0
H3038 H 0.63493 0.80217 0.40313 0.0
H3039 H 0.65237 0.77122 0.297 0.0
H3040 H 0.62741 0.76278 0.31497 0.0
H3041 H 0.66323 0.77822 0.36591 0.0
H3042 H 0.68811 0.78678 0.34786 0.0
H3043 H 0.6359 0.79466 0.3667 0.0
H3044 H 0.64118 0.73414 0.35116 0.0
H3045 H 0.6422 0.70679 0.33102 0.0
H3046 H 0.59043 0.7071 0.30299 0.0
H3047 H 0.58918 0.73455 0.32281 0.0
C3048 C 0.56916 0.76787 0.41362 0.0
C3049 C 0.55176 0.76195 0.40439 0.0
C3050 C 0.58401 0.76952 0.40359 0.0
C3051 C 0.58181 0.76542 0.38407 0.0
C3052 C 0.56443 0.75947 0.37488 0.0
C3053 C 0.54961 0.75779 0.38489 0.0
C3054 C 0.59757 0.76691 0.37324 0.0
C3055 C 0.59936 0.75232 0.36087 0.0
C3056 C 0.61095 0.7824 0.37524 0.0
C3057 C 0.60922 0.7989 0.38662 0.0
C3058 C 0.59398 0.8063 0.38338 0.0
C3059 C 0.59251 0.82196 0.39398 0.0
C3060 C 0.60626 0.83043 0.40777 0.0
C3061 C 0.62152 0.82326 0.41098 0.0
C3062 C 0.62304 0.80758 0.40044 0.0
C3063 C 0.65503 0.772 0.31198 0.0
C3064 C 0.67227 0.77925 0.32101 0.0
C3065 C 0.64072 0.76729 0.3223 0.0
C3066 C 0.64333 0.76983 0.3419 0.0
C3067 C 0.6608 0.77609 0.35085 0.0
C3068 C 0.67509 0.78076 0.34052 0.0
C3069 C 0.62774 0.76801 0.353 0.0
C3070 C 0.62591 0.78263 0.36535 0.0
C3071 C 0.61415 0.75265 0.35071 0.0
C3072 C 0.61519 0.73651 0.33834 0.0
C3073 C 0.63012 0.7285 0.34054 0.0
C3074 C 0.63071 0.71294 0.32923 0.0
C3075 C 0.61642 0.70525 0.3157 0.0
C3076 C 0.60151 0.71309 0.31344 0.0
C3077 C 0.60085 0.72864 0.32472 0.0
H3078 H 0.61688 0.69317 0.30699 0.0
H3079 H 0.60511 0.84257 0.41594 0.0
H3080 H 0.0166 0.25454 0.4082 0.0
H3081 H 0.01371 0.22817 0.4239 0.0
H3082 H 0.05374 0.21022 0.39295 0.0
H3083 H 0.05526 0.23587 0.37596 0.0
H3084 H 0.03186 0.18337 0.39581 0.0
H3085 H 0.06056 0.23087 0.44272 0.0
H3086 H 0.06378 0.26008 0.46111 0.0
H3087 H 0.01424 0.2431 0.48279 0.0
H3088 H 0.01059 0.21388 0.46433 0.0
H3089 H 0.03699 0.11586 0.45485 0.0
H3090 H 0.04607 0.14308 0.44098 0.0
H3091 H 1.00077 0.16247 0.45976 0.0
H3092 H 0.99177 0.13545 0.47356 0.0
H3093 H 0.0295 0.1887 0.46402 0.0
H3094 H 1.00051 0.1419 0.4149 0.0
H3095 H 0.99734 0.11313 0.39564 0.0
H3096 H 0.04917 0.12927 0.37835 0.0
H3097 H 0.05277 0.15805 0.39774 0.0
C3098 C 0.02477 0.24495 0.40479 0.0
C3099 C 0.03628 0.24734 0.39101 0.0
C3100 C 0.02328 0.22989 0.41392 0.0
C3101 C 0.03396 0.21726 0.41025 0.0
C3102 C 0.04538 0.21966 0.39628 0.0
C3103 C 0.04633 0.23439 0.3866 0.0
C3104 C 0.03302 0.20153 0.42073 0.0
C3105 C 0.03171 0.18468 0.41079 0.0
C3106 C 0.03267 0.2029 0.44032 0.0
C3107 C 0.03527 0.22021 0.45207 0.0
C3108 C 0.05036 0.23337 0.45141 0.0
C3109 C 0.05224 0.24994 0.46182 0.0
C3110 C 0.03921 0.25345 0.47309 0.0
C3111 C 0.02432 0.24037 0.47406 0.0
C3112 C 0.02236 0.22379 0.46366 0.0
C3113 C 0.02916 0.12608 0.45624 0.0
C3114 C 0.01356 0.12343 0.46514 0.0
C3115 C 0.03428 0.14159 0.4482 0.0
C3116 C 0.02395 0.15481 0.449 0.0
C3117 C 0.00893 0.15251 0.45879 0.0
C3118 C 0.00374 0.137 0.46663 0.0
C3119 C 0.02804 0.17068 0.43904 0.0
C3120 C 0.02996 0.18753 0.44909 0.0
C3121 C 0.02919 0.16932 0.41961 0.0
C3122 C 0.027 0.15204 0.40795 0.0
C3123 C 0.01129 0.13926 0.40711 0.0
C3124 C 0.00941 0.12296 0.39616 0.0
C3125 C 0.02307 0.11935 0.38583 0.0
C3126 C 0.03862 0.13206 0.3864 0.0
C3127 C 0.04059 0.14836 0.39737 0.0
H3128 H 0.02158 0.10673 0.37735 0.0
H3129 H 0.04066 0.26631 0.48108 0.0
H3130 H 0.56659 0.24998 0.23007 0.0
H3131 H 0.59802 0.25111 0.24134 0.0
H3132 H 0.61381 0.27176 0.19149 0.0
H3133 H 0.58248 0.2695 0.1798 0.0
H3134 H 0.6331 0.25044 0.19728 0.0
H3135 H 0.61884 0.29653 0.24017 0.0
H3136 H 0.60208 0.30902 0.26389 0.0
H3137 H 0.61529 0.27235 0.30031 0.0
H3138 H 0.63196 0.25951 0.27672 0.0
H3139 H 0.72583 0.28034 0.22632 0.0
H3140 H 0.69396 0.27872 0.21765 0.0
H3141 H 0.68195 0.25156 0.26479 0.0
H3142 H 0.71389 0.25369 0.27392 0.0
H3143 H 0.66083 0.27479 0.26139 0.0
H3144 H 0.6763 0.22991 0.21908 0.0
H3145 H 0.69384 0.21808 0.19577 0.0
H3146 H 0.67865 0.25315 0.15837 0.0
H3147 H 0.66125 0.26541 0.18158 0.0
C3148 C 0.5768 0.25491 0.22162 0.0
C3149 C 0.57191 0.2597 0.20403 0.0
C3150 C 0.5949 0.25567 0.22812 0.0
C3151 C 0.60873 0.2618 0.21752 0.0
C3152 C 0.60371 0.26688 0.20009 0.0
C3153 C 0.58567 0.26568 0.19341 0.0
C3154 C 0.62827 0.26245 0.22399 0.0
C3155 C 0.63909 0.25606 0.21126 0.0
C3156 C 0.63642 0.26918 0.24241 0.0
C3157 C 0.62647 0.27695 0.2566 0.0
C3158 C 0.61807 0.29107 0.25319 0.0
C3159 C 0.6086 0.29821 0.26662 0.0
C3160 C 0.60758 0.29145 0.28357 0.0
C3161 C 0.61607 0.27755 0.28716 0.0
C3162 C 0.62554 0.27035 0.27378 0.0
C3163 C 0.71647 0.27394 0.23486 0.0
C3164 C 0.72264 0.26687 0.25069 0.0
C3165 C 0.69811 0.27297 0.22982 0.0
C3166 C 0.68526 0.26472 0.24031 0.0
C3167 C 0.69141 0.25792 0.25631 0.0
C3168 C 0.70979 0.25899 0.26144 0.0
C3169 C 0.66553 0.26318 0.23454 0.0
C3170 C 0.65474 0.26927 0.24742 0.0
C3171 C 0.65739 0.25626 0.21625 0.0
C3172 C 0.66757 0.24866 0.20213 0.0
C3173 C 0.67677 0.23516 0.20592 0.0
C3174 C 0.68669 0.22838 0.19272 0.0
C3175 C 0.68738 0.23487 0.17561 0.0
C3176 C 0.67811 0.24814 0.17163 0.0
C3177 C 0.66821 0.255 0.1848 0.0
H3178 H 0.69507 0.22961 0.16541 0.0
H3179 H 0.60023 0.29699 0.29394 0.0
H3180 H 0.54023 0.8404 0.91495 0.0
H3181 H 0.53853 0.86664 0.93626 0.0
H3182 H 0.54041 0.89743 0.8905 0.0
H3183 H 0.54265 0.87159 0.86943 0.0
H3184 H 0.56041 0.91623 0.91883 0.0
H3185 H 0.50006 0.88099 0.91133 0.0
H3186 H 0.47747 0.85447 0.91337 0.0
H3187 H 0.49402 0.85824 0.97197 0.0
H3188 H 0.5168 0.88467 0.97023 0.0
H3189 H 0.53704 0.99335 0.96266 0.0
H3190 H 0.53874 0.96698 0.94232 0.0
H3191 H 0.52435 0.93537 0.98572 0.0
H3192 H 0.51882 0.96115 0.00427 0.0
H3193 H 0.51182 0.91627 0.95903 0.0
H3194 H 0.57233 0.95077 0.96794 0.0
H3195 H 0.59442 0.978 0.96723 0.0
H3196 H 0.57959 0.97545 0.90845 0.0
H3197 H 0.55731 0.94828 0.90883 0.0
C3198 C 0.54035 0.85277 0.90944 0.0
C3199 C 0.54161 0.85373 0.89037 0.0
C3200 C 0.53924 0.86782 0.92165 0.0
C3201 C 0.53908 0.88419 0.91509 0.0
C3202 C 0.54052 0.88512 0.8961 0.0
C3203 C 0.54178 0.8702 0.88398 0.0
C3204 C 0.53747 0.90042 0.92773 0.0
C3205 C 0.54973 0.91623 0.92759 0.0
C3206 C 0.52388 0.90059 0.93964 0.0
C3207 C 0.51023 0.88468 0.9406 0.0
C3208 C 0.49895 0.87608 0.92461 0.0
C3209 C 0.4861 0.86109 0.92572 0.0
C3210 C 0.48435 0.85465 0.94277 0.0
C3211 C 0.49541 0.86322 0.95876 0.0
C3212 C 0.50827 0.87821 0.95773 0.0
C3213 C 0.53404 0.98078 0.96788 0.0
C3214 C 0.52838 0.97976 0.98567 0.0
C3215 C 0.53547 0.96554 0.95626 0.0
C3216 C 0.53266 0.94881 0.9625 0.0
C3217 C 0.52693 0.94785 0.98027 0.0
C3218 C 0.5243 0.9629 0.99133 0.0
C3219 C 0.53499 0.9323 0.95053 0.0
C3220 C 0.52278 0.91638 0.95065 0.0
C3221 C 0.5489 0.93195 0.93891 0.0
C3222 C 0.56306 0.94761 0.93846 0.0
C3223 C 0.57384 0.95599 0.95486 0.0
C3224 C 0.58635 0.97143 0.95452 0.0
C3225 C 0.5883 0.9785 0.93784 0.0
C3226 C 0.578 0.96998 0.92138 0.0
C3227 C 0.56546 0.95454 0.92164 0.0
H3228 H 0.59775 0.99063 0.93772 0.0
H3229 H 0.47439 0.84305 0.9436 0.0
H3230 H 0.95504 0.72414 0.71954 0.0
H3231 H 0.92582 0.72792 0.72829 0.0
H3232 H 0.93226 0.77776 0.7068 0.0
H3233 H 0.96149 0.77386 0.69758 0.0
H3234 H 0.91971 0.77943 0.74199 0.0
H3235 H 0.90373 0.74426 0.68315 0.0
H3236 H 0.90282 0.71936 0.6588 0.0
H3237 H 0.87939 0.68322 0.69424 0.0
H3238 H 0.88043 0.7079 0.71894 0.0
H3239 H 0.82983 0.79043 0.74729 0.0
H3240 H 0.85888 0.78772 0.738 0.0
H3241 H 0.85076 0.73437 0.75099 0.0
H3242 H 0.82141 0.73717 0.76058 0.0
H3243 H 0.86444 0.73523 0.7195 0.0
H3244 H 0.88102 0.77108 0.77877 0.0
H3245 H 0.88379 0.7962 0.80337 0.0
H3246 H 0.90634 0.83162 0.76681 0.0
H3247 H 0.90355 0.80674 0.74191 0.0
C3248 C 0.95028 0.73591 0.71656 0.0
C3249 C 0.96079 0.74866 0.70775 0.0
C3250 C 0.93344 0.73803 0.72156 0.0
C3251 C 0.92658 0.7531 0.7182 0.0
C3252 C 0.9371 0.76598 0.70958 0.0
C3253 C 0.95385 0.7637 0.70422 0.0
C3254 C 0.90863 0.75539 0.72395 0.0
C3255 C 0.90758 0.7699 0.73683 0.0
C3256 C 0.89272 0.74282 0.71765 0.0
C3257 C 0.89238 0.72791 0.70299 0.0
C3258 C 0.89859 0.73099 0.68584 0.0
C3259 C 0.898 0.71692 0.67195 0.0
C3260 C 0.89111 0.69971 0.67499 0.0
C3261 C 0.88477 0.69655 0.69192 0.0
C3262 C 0.88536 0.71057 0.70587 0.0
C3263 C 0.83425 0.77822 0.74865 0.0
C3264 C 0.82319 0.7642 0.75522 0.0
C3265 C 0.85105 0.77665 0.74321 0.0
C3266 C 0.85751 0.76095 0.74406 0.0
C3267 C 0.84636 0.74674 0.75027 0.0
C3268 C 0.82948 0.74834 0.75579 0.0
C3269 C 0.87547 0.7592 0.73781 0.0
C3270 C 0.87653 0.74479 0.72474 0.0
C3271 C 0.89139 0.77194 0.7439 0.0
C3272 C 0.89197 0.78704 0.75843 0.0
C3273 C 0.88636 0.78425 0.77589 0.0
C3274 C 0.88804 0.79843 0.78993 0.0
C3275 C 0.89539 0.81546 0.7867 0.0
C3276 C 0.90077 0.8184 0.76933 0.0
C3277 C 0.89914 0.80427 0.75525 0.0
H3278 H 0.89684 0.8264 0.79765 0.0
H3279 H 0.89063 0.68884 0.6642 0.0
H3280 H 0.09008 0.00789 0.82494 0.0
H3281 H 0.07993 0.00297 0.85534 0.0
H3282 H 0.10418 0.05662 0.87741 0.0
H3283 H 0.11372 0.06173 0.84681 0.0
H3284 H 0.10954 0.02966 0.90214 0.0
H3285 H 0.06431 0.05137 0.86653 0.0
H3286 H 0.04367 0.05188 0.83859 0.0
H3287 H 0.01638 0.99946 0.84302 0.0
H3288 H 0.03713 0.99852 0.87083 0.0
H3289 H 0.05997 0.05031 0.97735 0.0
H3290 H 0.07257 0.05021 0.9477 0.0
H3291 H 0.0503 0.9948 0.93381 0.0
H3292 H 0.03869 0.9945 0.96408 0.0
H3293 H 0.04407 0.02016 0.90487 0.0
H3294 H 0.08892 1.00008 0.94299 0.0
H3295 H 0.10932 1.00145 0.97165 0.0
H3296 H 0.13709 0.05254 0.96321 0.0
H3297 H 0.11664 0.05162 0.93465 0.0
C3298 C 0.09336 0.01853 0.83637 0.0
C3299 C 0.10257 0.03519 0.83365 0.0
C3300 C 0.0876 0.01572 0.85369 0.0
C3301 C 0.09135 0.02943 0.86862 0.0
C3302 C 0.10123 0.04587 0.86609 0.0
C3303 C 0.10657 0.0488 0.84864 0.0
C3304 C 0.08373 0.02705 0.8864 0.0
C3305 C 0.09525 0.02764 0.90276 0.0
C3306 C 0.06507 0.02424 0.88717 0.0
C3307 C 0.05243 0.02478 0.8706 0.0
C3308 C 0.05403 0.03988 0.86144 0.0
C3309 C 0.0423 0.04026 0.84564 0.0
C3310 C 0.02877 0.02568 0.83899 0.0
C3311 C 0.02691 0.01072 0.84816 0.0
C3312 C 0.03866 0.01025 0.86395 0.0
C3313 C 0.05795 0.03803 0.96813 0.0
C3314 C 0.04817 0.02243 0.97301 0.0
C3315 C 0.06504 0.03804 0.95113 0.0
C3316 C 0.06227 0.02253 0.93856 0.0
C3317 C 0.05243 0.00694 0.94328 0.0
C3318 C 0.04568 0.00683 0.9605 0.0
C3319 C 0.06986 0.02273 0.92058 0.0
C3320 C 0.05834 0.02186 0.9042 0.0
C3321 C 0.08852 0.02541 0.91984 0.0
C3322 C 0.10113 0.02585 0.93676 0.0
C3323 C 0.09928 0.01168 0.94732 0.0
C3324 C 0.11087 0.01236 0.96354 0.0
C3325 C 0.12446 0.02709 0.96928 0.0
C3326 C 0.12654 0.04114 0.95876 0.0
C3327 C 0.11496 0.04054 0.94254 0.0
H3328 H 0.13341 0.02761 0.98184 0.0
H3329 H 0.01968 0.026 0.82676 0.0
H3330 H 0.81327 0.40744 0.56388 0.0
H3331 H 0.80976 0.39326 0.5921 0.0
H3332 H 0.76395 0.35609 0.56339 0.0
H3333 H 0.76752 0.36988 0.53511 0.0
H3334 H 0.76135 0.37214 0.60263 0.0
H3335 H 0.797 0.34144 0.56344 0.0
H3336 H 0.8219 0.34065 0.5445 0.0
H3337 H 0.85946 0.36419 0.59215 0.0
H3338 H 0.83472 0.36551 0.61126 0.0
H3339 H 0.77469 0.2975 0.65528 0.0
H3340 H 0.76439 0.31705 0.63395 0.0
H3341 H 0.80959 0.35804 0.65661 0.0
H3342 H 0.8206 0.33827 0.67634 0.0
H3343 H 0.80886 0.33933 0.6196 0.0
H3344 H 0.77392 0.36888 0.6597 0.0
H3345 H 0.74939 0.37212 0.67854 0.0
H3346 H 0.71098 0.35202 0.63063 0.0
H3347 H 0.73527 0.34836 0.61156 0.0
C3348 C 0.80255 0.39619 0.56364 0.0
C3349 C 0.79083 0.38949 0.54743 0.0
C3350 C 0.80042 0.38833 0.5797 0.0
C3351 C 0.78646 0.37392 0.5796 0.0
C3352 C 0.77461 0.36739 0.56355 0.0
C3353 C 0.77691 0.37502 0.54742 0.0
C3354 C 0.78563 0.36428 0.59554 0.0
C3355 C 0.77156 0.36479 0.60642 0.0
C3356 C 0.7991 0.35491 0.60012 0.0
C3357 C 0.814 0.35377 0.58871 0.0
C3358 C 0.81055 0.34661 0.56983 0.0
C3359 C 0.82464 0.34605 0.55907 0.0
C3360 C 0.84225 0.35242 0.5671 0.0
C3361 C 0.84581 0.35931 0.58593 0.0
C3362 C 0.83176 0.35997 0.59673 0.0
C3363 C 0.78218 0.31078 0.65569 0.0
C3364 C 0.79858 0.31643 0.6669 0.0
C3365 C 0.77609 0.322 0.64399 0.0
C3366 C 0.78623 0.33891 0.64399 0.0
C3367 C 0.80155 0.34507 0.65672 0.0
C3368 C 0.80794 0.33373 0.66778 0.0
C3369 C 0.78489 0.34759 0.62736 0.0
C3370 C 0.79852 0.34662 0.61599 0.0
C3371 C 0.77106 0.35655 0.62257 0.0
C3372 C 0.75645 0.35804 0.63426 0.0
C3373 C 0.76025 0.36483 0.65324 0.0
C3374 C 0.74638 0.36683 0.66395 0.0
C3375 C 0.72863 0.36219 0.65581 0.0
C3376 C 0.72472 0.35554 0.63694 0.0
C3377 C 0.73854 0.3535 0.62618 0.0
H3378 H 0.71792 0.36382 0.6641 0.0
H3379 H 0.85314 0.35197 0.55875 0.0
H3380 H 0.39505 0.99439 0.34588 0.0
H3381 H 0.40671 1.0015 0.37915 0.0
H3382 H 0.45306 0.03564 0.36478 0.0
H3383 H 0.44195 0.02792 0.33179 0.0
H3384 H 0.45764 0.00449 0.38154 0.0
H3385 H 0.4256 0.05395 0.38688 0.0
H3386 H 0.39916 0.06773 0.38819 0.0
H3387 H 0.38208 0.03737 0.4313 0.0
H3388 H 0.40828 0.02325 0.43008 0.0
H3389 H 0.51743 0.0388 0.45915 0.0
H3390 H 0.49755 0.03769 0.43085 0.0
H3391 H 0.45226 0.0209 0.46012 0.0
H3392 H 0.47202 0.02338 0.48851 0.0
H3393 H 0.44327 0.03966 0.4371 0.0
H3394 H 0.47416 0.99086 0.43364 0.0
H3395 H 0.49979 0.97579 0.43358 0.0
H3396 H 0.51733 1.00159 0.38752 0.0
H3397 H 0.49199 0.017 0.38748 0.0
C3398 C 0.40776 0.00332 0.35005 0.0
C3399 C 0.41816 0.01014 0.33672 0.0
C3400 C 0.41411 0.00765 0.36884 0.0
C3401 C 0.43052 0.01916 0.37407 0.0
C3402 C 0.44028 0.0268 0.36072 0.0
C3403 C 0.43422 0.02211 0.34205 0.0
C3404 C 0.43974 0.02024 0.39256 0.0
C3405 C 0.45461 0.01222 0.39377 0.0
C3406 C 0.43499 0.02957 0.40837 0.0
C3407 C 0.41873 0.03732 0.40814 0.0
C3408 C 0.41603 0.04996 0.39638 0.0
C3409 C 0.40114 0.05792 0.39719 0.0
C3410 C 0.3889 0.05337 0.40975 0.0
C3411 C 0.39151 0.04084 0.42152 0.0
C3412 C 0.40637 0.03285 0.42076 0.0
C3413 C 0.50336 0.03469 0.45945 0.0
C3414 C 0.49639 0.02988 0.4756 0.0
C3415 C 0.49197 0.03422 0.44338 0.0
C3416 C 0.47359 0.02831 0.44331 0.0
C3417 C 0.46649 0.02513 0.45986 0.0
C3418 C 0.47785 0.02638 0.47604 0.0
C3419 C 0.46179 0.02466 0.42591 0.0
C3420 C 0.44628 0.03181 0.42497 0.0
C3421 C 0.46574 0.0142 0.41032 0.0
C3422 C 0.48124 0.00519 0.41067 0.0
C3423 C 0.48357 0.99343 0.42361 0.0
C3424 C 0.49804 0.98481 0.42357 0.0
C3425 C 0.51019 0.98775 0.41057 0.0
C3426 C 0.50792 0.99934 0.3976 0.0
C3427 C 0.49351 0.00801 0.3976 0.0
H3428 H 0.52135 0.98103 0.41053 0.0
H3429 H 0.37744 0.05961 0.41042 0.0
H3430 H 0.74838 0.70522 0.05913 0.0
H3431 H 0.74992 0.72129 0.09036 0.0
H3432 H 0.79343 0.69695 0.10931 0.0
H3433 H 0.79097 0.68006 0.07842 0.0
H3434 H 0.77136 0.69448 0.13288 0.0
H3435 H 0.79753 0.74355 0.1026 0.0
H3436 H 0.79844 0.76347 0.07845 0.0
H3437 H 0.75004 0.77842 0.09362 0.0
H3438 H 0.74875 0.75847 0.11774 0.0
H3439 H 0.79475 0.74322 0.22171 0.0
H3440 H 0.79479 0.73128 0.18939 0.0
H3441 H 0.75058 0.75575 0.17322 0.0
H3442 H 0.7514 0.76884 0.20548 0.0
H3443 H 0.77202 0.75824 0.14814 0.0
H3444 H 0.74622 0.70948 0.17878 0.0
H3445 H 0.74508 0.68923 0.20262 0.0
H3446 H 0.79272 0.67329 0.18644 0.0
H3447 H 0.79427 0.6936 0.16268 0.0
C3448 C 0.7585 0.70366 0.06992 0.0
C3449 C 0.76968 0.69161 0.06644 0.0
C3450 C 0.75943 0.71287 0.08778 0.0
C3451 C 0.77194 0.71055 0.1023 0.0
C3452 C 0.7836 0.69898 0.09847 0.0
C3453 C 0.78232 0.68944 0.08079 0.0
C3454 C 0.77213 0.7191 0.12177 0.0
C3455 C 0.77181 0.7085 0.1362 0.0
C3456 C 0.77207 0.73727 0.1262 0.0
C3457 C 0.77298 0.74943 0.11187 0.0
C3458 C 0.78704 0.75103 0.10072 0.0
C3459 C 0.78763 0.76234 0.08705 0.0
C3460 C 0.77429 0.77218 0.08448 0.0
C3461 C 0.76037 0.77079 0.09562 0.0
C3462 C 0.75971 0.75951 0.10931 0.0
C3463 C 0.78502 0.74612 0.2113 0.0
C3464 C 0.77271 0.75664 0.21634 0.0
C3465 C 0.78498 0.73914 0.19278 0.0
C3466 C 0.77229 0.74205 0.17883 0.0
C3467 C 0.76037 0.75307 0.18371 0.0
C3468 C 0.76072 0.76045 0.20224 0.0
C3469 C 0.77154 0.73366 0.15923 0.0
C3470 C 0.77165 0.74425 0.1448 0.0
C3471 C 0.77142 0.71544 0.15477 0.0
C3472 C 0.77043 0.70317 0.16904 0.0
C3473 C 0.75651 0.70174 0.18038 0.0
C3474 C 0.75578 0.69023 0.19387 0.0
C3475 C 0.76883 0.68001 0.19606 0.0
C3476 C 0.78262 0.68123 0.18474 0.0
C3477 C 0.78342 0.69272 0.17125 0.0
H3478 H 0.76825 0.67111 0.20651 0.0
H3479 H 0.77476 0.7809 0.07387 0.0
H3480 H 0.13028 0.04659 0.71303 0.0
H3481 H 0.11597 0.04583 0.68135 0.0
H3482 H 0.06807 0.01377 0.69493 0.0
H3483 H 0.08221 0.01476 0.72687 0.0
H3484 H 0.08049 1.00159 0.66016 0.0
H3485 H 0.06655 0.05378 0.69223 0.0
H3486 H 0.07369 0.08245 0.71218 0.0
H3487 H 0.10781 0.10395 0.67345 0.0
H3488 H 0.10108 0.0753 0.6534 0.0
H3489 H 0.02602 0.00585 0.57718 0.0
H3490 H 0.03843 0.0062 0.60939 0.0
H3491 H 0.07968 0.05059 0.60397 0.0
H3492 H 0.0666 0.05085 0.57201 0.0
H3493 H 0.06999 0.05617 0.63555 0.0
H3494 H 0.08548 0.00468 0.60378 0.0
H3495 H 0.08158 0.9756 0.58498 0.0
H3496 H 0.04739 0.95247 0.62279 0.0
H3497 H 0.05089 0.98147 0.64171 0.0
C3498 C 0.1167 0.03936 0.7093 0.0
C3499 C 0.10736 0.03075 0.72247 0.0
C3500 C 0.10853 0.03899 0.69119 0.0
C3501 C 0.09093 0.02981 0.6858 0.0
C3502 C 0.08165 0.02095 0.69881 0.0
C3503 C 0.08972 0.02157 0.71705 0.0
C3504 C 0.08232 0.0295 0.66655 0.0
C3505 C 0.07792 0.01344 0.65479 0.0
C3506 C 0.0795 0.04507 0.65946 0.0
C3507 C 0.08344 0.06235 0.67141 0.0
C3508 C 0.07569 0.06457 0.68805 0.0
C3509 C 0.07965 0.08083 0.69936 0.0
C3510 C 0.09124 0.095 0.69411 0.0
C3511 C 0.09886 0.09295 0.67751 0.0
C3512 C 0.09496 0.07672 0.66616 0.0
C3513 C 0.03774 0.01569 0.58288 0.0
C3514 C 0.04535 0.02832 0.57206 0.0
C3515 C 0.04495 0.01579 0.60129 0.0
C3516 C 0.06031 0.02816 0.60917 0.0
C3517 C 0.06786 0.04086 0.59834 0.0
C3518 C 0.06038 0.04102 0.58004 0.0
C3519 C 0.06822 0.02817 0.62878 0.0
C3520 C 0.0725 0.04421 0.64074 0.0
C3521 C 0.07116 0.01256 0.63596 0.0
C3522 C 0.06835 0.99529 0.62409 0.0
C3523 C 0.07695 0.99345 0.60797 0.0
C3524 C 0.07485 0.97696 0.59731 0.0
C3525 C 0.06428 0.96221 0.60272 0.0
C3526 C 0.0556 0.96392 0.61865 0.0
C3527 C 0.05764 0.98037 0.62934 0.0
H3528 H 0.06293 0.94942 0.59468 0.0
H3529 H 0.09428 0.10758 0.70289 0.0
H3530 H 0.77789 0.37559 0.45329 0.0
H3531 H 0.7801 0.3563 0.42542 0.0
H3532 H 0.79017 0.40116 0.39525 0.0
H3533 H 0.78776 0.42076 0.42326 0.0
H3534 H 0.76121 0.37531 0.38048 0.0
H3535 H 0.82304 0.3784 0.40501 0.0
H3536 H 0.84707 0.37605 0.42911 0.0
H3537 H 0.82365 0.32174 0.43006 0.0
H3538 H 0.79936 0.3238 0.4062 0.0
H3539 H 0.76333 0.32231 0.2979 0.0
H3540 H 0.76823 0.34423 0.32467 0.0
H3541 H 0.77604 0.30476 0.36035 0.0
H3542 H 0.77518 0.28377 0.33317 0.0
H3543 H 0.79875 0.33024 0.37181 0.0
H3544 H 0.73572 0.32549 0.35442 0.0
H3545 H 0.70899 0.32462 0.33235 0.0
H3546 H 0.72959 0.37737 0.32216 0.0
H3547 H 0.75652 0.37849 0.34405 0.0
C3548 C 0.78074 0.38139 0.44077 0.0
C3549 C 0.78247 0.39957 0.44021 0.0
C3550 C 0.78226 0.3704 0.42501 0.0
C3551 C 0.78568 0.37751 0.40863 0.0
C3552 C 0.78776 0.39567 0.40804 0.0
C3553 C 0.78612 0.40672 0.42383 0.0
C3554 C 0.78407 0.36558 0.39151 0.0
C3555 C 0.76959 0.36561 0.3783 0.0
C3556 C 0.79451 0.35251 0.38953 0.0
C3557 C 0.80931 0.3513 0.40382 0.0
C3558 C 0.82294 0.36599 0.41043 0.0
C3559 C 0.83663 0.3647 0.42405 0.0
C3560 C 0.83688 0.34877 0.43112 0.0
C3561 C 0.82346 0.33407 0.42457 0.0
C3562 C 0.80975 0.33529 0.41098 0.0
C3563 C 0.76602 0.31817 0.31138 0.0
C3564 C 0.76888 0.30113 0.3133 0.0
C3565 C 0.76853 0.33075 0.3268 0.0
C3566 C 0.77202 0.32606 0.34459 0.0
C3567 C 0.77341 0.30869 0.3467 0.0
C3568 C 0.77246 0.29648 0.33111 0.0
C3569 C 0.77547 0.33954 0.36088 0.0
C3570 C 0.79032 0.33988 0.37387 0.0
C3571 C 0.76477 0.3524 0.36326 0.0
C3572 C 0.74816 0.35204 0.35081 0.0
C3573 C 0.73453 0.33691 0.34749 0.0
C3574 C 0.71936 0.33636 0.335 0.0
C3575 C 0.71761 0.35092 0.32585 0.0
C3576 C 0.73096 0.36611 0.32928 0.0
C3577 C 0.74615 0.36673 0.34176 0.0
H3578 H 0.7059 0.35044 0.3161 0.0
H3579 H 0.84748 0.3478 0.44166 0.0
H3580 H 0.37784 0.0156 0.21792 0.0
H3581 H 0.39388 0.01082 0.1907 0.0
H3582 H 0.44322 0.01752 0.22697 0.0
H3583 H 0.42773 0.02277 0.25381 0.0
H3584 H 0.44469 0.04007 0.20143 0.0
H3585 H 0.42775 0.97865 0.20481 0.0
H3586 H 0.40784 0.9502 0.20608 0.0
H3587 H 0.37995 0.95346 0.15295 0.0
H3588 H 0.39964 0.98203 0.15142 0.0
H3589 H 0.50286 0.00184 0.14418 0.0
H3590 H 0.48548 0.01298 0.16774 0.0
H3591 H 0.44322 0.01457 0.12479 0.0
H3592 H 0.46043 0.00366 0.10122 0.0
H3593 H 0.43597 0.9895 0.15153 0.0
H3594 H 0.45798 0.05202 0.14969 0.0
H3595 H 0.47999 0.0798 0.15177 0.0
H3596 H 0.50206 0.07194 0.20597 0.0
H3597 H 0.48022 0.04413 0.20418 0.0
C3598 C 0.3921 0.01606 0.21997 0.0
C3599 C 0.40162 0.01994 0.23785 0.0
C3600 C 0.40114 0.0131 0.20454 0.0
C3601 C 0.41964 0.01392 0.20703 0.0
C3602 C 0.42893 0.01697 0.2249 0.0
C3603 C 0.42004 0.02009 0.24018 0.0
C3604 C 0.42989 0.01392 0.19116 0.0
C3605 C 0.44289 0.02897 0.19053 0.0
C3606 C 0.42721 0.9995 0.17703 0.0
C3607 C 0.41497 0.98262 0.17814 0.0
C3608 C 0.41721 0.97342 0.19351 0.0
C3609 C 0.40602 0.95724 0.19424 0.0
C3610 C 0.39258 0.95007 0.17965 0.0
C3611 C 0.39033 0.95906 0.16427 0.0
C3612 C 0.40151 0.97524 0.16345 0.0
C3613 C 0.49004 0.00495 0.13978 0.0
C3614 C 0.48274 1.00141 0.12101 0.0
C3615 C 0.48028 0.01153 0.15315 0.0
C3616 C 0.46315 0.01447 0.14783 0.0
C3617 C 0.4565 0.01242 0.129 0.0
C3618 C 0.46631 0.00606 0.11562 0.0
C3619 C 0.45088 0.01563 0.16188 0.0
C3620 C 0.43752 1.00072 0.16224 0.0
C3621 C 0.45368 0.0299 0.1762 0.0
C3622 C 0.46762 0.04591 0.17668 0.0
C3623 C 0.46772 0.05609 0.16191 0.0
C3624 C 0.48009 0.07189 0.16309 0.0
C3625 C 0.49246 0.0776 0.17896 0.0
C3626 C 0.49251 0.0675 0.19367 0.0
C3627 C 0.48013 0.05173 0.19259 0.0
H3628 H 0.50196 0.08988 0.17988 0.0
H3629 H 0.38396 0.93752 0.18022 0.0
H3630 H 0.74004 0.68796 0.9431 0.0
H3631 H 0.74284 0.7003 0.91362 0.0
H3632 H 0.8002 0.7121 0.92658 0.0
H3633 H 0.79733 0.69968 0.95603 0.0
H3634 H 0.78783 0.73977 0.91424 0.0
H3635 H 0.78021 0.67779 0.89428 0.0
H3636 H 0.76606 0.6463 0.88983 0.0
H3637 H 0.71899 0.65798 0.86106 0.0
H3638 H 0.73277 0.68958 0.86556 0.0
H3639 H 0.80427 0.74458 0.8155 0.0
H3640 H 0.80337 0.73346 0.84595 0.0
H3641 H 0.75076 0.74499 0.84888 0.0
H3642 H 0.75203 0.75691 0.81911 0.0
H3643 H 0.76173 0.70588 0.85298 0.0
H3644 H 0.7686 0.76821 0.87538 0.0
H3645 H 0.78328 0.79948 0.87874 0.0
H3646 H 0.83193 0.78683 0.90275 0.0
H3647 H 0.81763 0.75536 0.89903 0.0
C3648 C 0.7532 0.69328 0.9396 0.0
C3649 C 0.76848 0.69309 0.95174 0.0
C3650 C 0.75481 0.70018 0.92275 0.0
C3651 C 0.77174 0.70701 0.91781 0.0
C3652 C 0.78701 0.70691 0.93009 0.0
C3653 C 0.78539 0.69987 0.94688 0.0
C3654 C 0.77351 0.71465 0.90007 0.0
C3655 C 0.78229 0.73226 0.90085 0.0
C3656 C 0.76601 0.705 0.88257 0.0
C3657 C 0.75744 0.68609 0.88049 0.0
C3658 C 0.76675 0.67368 0.88724 0.0
C3659 C 0.75882 0.6558 0.88464 0.0
C3660 C 0.74162 0.65015 0.87523 0.0
C3661 C 0.7323 0.66237 0.86839 0.0
C3662 C 0.74016 0.68027 0.87097 0.0
C3663 C 0.7926 0.74474 0.82275 0.0
C3664 C 0.77817 0.7514 0.81506 0.0
C3665 C 0.79213 0.73853 0.8401 0.0
C3666 C 0.77706 0.73859 0.84966 0.0
C3667 C 0.76258 0.74507 0.84181 0.0
C3668 C 0.7633 0.75179 0.82484 0.0
C3669 C 0.77589 0.73089 0.86728 0.0
C3670 C 0.76726 0.71329 0.86643 0.0
C3671 C 0.78342 0.74055 0.88469 0.0
C3672 C 0.79217 0.75937 0.88648 0.0
C3673 C 0.78254 0.77202 0.88097 0.0
C3674 C 0.79076 0.7898 0.88304 0.0
C3675 C 0.80857 0.79513 0.89083 0.0
C3676 C 0.81817 0.78267 0.8966 0.0
C3677 C 0.81002 0.76486 0.89448 0.0
H3678 H 0.81489 0.80891 0.8925 0.0
H3679 H 0.73553 0.63629 0.87317 0.0
H3680 H 0.79922 0.08348 0.02042 0.0
H3681 H 0.82898 0.07782 0.0165 0.0
H3682 H 0.84814 0.10312 0.07249 0.0
H3683 H 0.81815 0.10939 0.07617 0.0
H3684 H 0.87205 0.10885 0.04042 0.0
H3685 H 0.83734 0.06358 0.07112 0.0
H3686 H 0.80736 0.04597 0.07227 0.0
H3687 H 0.80713 0.02111 0.01654 0.0
H3688 H 0.83693 0.0389 0.0149 0.0
H3689 H 0.94438 0.06656 0.02454 0.0
H3690 H 0.92133 0.07531 0.04272 0.0
H3691 H 0.88049 0.04773 -0.00095 0.0
H3692 H 0.90346 0.039 0.98095 0.0
H3693 H 0.87026 0.04433 0.03335 0.0
H3694 H 0.89764 0.08857 -0.00153 0.0
H3695 H 0.92258 0.10916 0.98907 0.0
H3696 H 0.93245 0.13778 0.04415 0.0
H3697 H 0.9079 0.11696 0.05407 0.0
C3698 C 0.80982 0.08768 0.03188 0.0
C3699 C 0.80664 0.09608 0.04883 0.0
C3700 C 0.82673 0.08478 0.02954 0.0
C3701 C 0.84045 0.08993 0.04433 0.0
C3702 C 0.83752 0.09906 0.06107 0.0
C3703 C 0.8205 0.10223 0.06331 0.0
C3704 C 0.85684 0.08327 0.04281 0.0
C3705 C 0.87208 0.09486 0.03958 0.0
C3706 C 0.85619 0.06493 0.04103 0.0
C3707 C 0.83948 0.05245 0.04297 0.0
C3708 C 0.83099 0.05419 0.0592 0.0
C3709 C 0.81397 0.04428 0.05988 0.0
C3710 C 0.80538 0.03239 0.04451 0.0
C3711 C 0.81385 0.03027 0.02848 0.0
C3712 C 0.83084 0.04023 0.02768 0.0
C3713 C 0.93044 0.06228 0.01902 0.0
C3714 C 0.92551 0.05259 0.00127 0.0
C3715 C 0.91738 0.06714 0.02939 0.0
C3716 C 0.89936 0.06224 0.02206 0.0
C3717 C 0.8944 0.0516 0.00484 0.0
C3718 C 0.90744 0.04688 0.99443 0.0
C3719 C 0.88575 0.06991 0.03098 0.0
C3720 C 0.87083 0.05844 0.03532 0.0
C3721 C 0.88649 0.08835 0.03316 0.0
C3722 C 0.90121 0.10093 0.02715 0.0
C3723 C 0.9053 0.09907 0.00868 0.0
C3724 C 0.91936 0.1108 0.00324 0.0
C3725 C 0.92918 0.1247 0.01604 0.0
C3726 C 0.92491 0.12692 0.03428 0.0
C3727 C 0.91097 0.11512 0.03984 0.0
H3728 H 0.94004 0.13379 0.0118 0.0
H3729 H 0.79213 0.02484 0.045 0.0
H3730 H 0.33712 0.44646 0.04415 0.0
H3731 H 0.36862 0.45997 0.04557 0.0
H3732 H 0.3808 0.40931 0.02747 0.0
H3733 H 0.34912 0.39553 0.02682 0.0
H3734 H 0.40806 0.43038 0.05257 0.0
H3735 H 0.37378 0.43587 0.99541 0.0
H3736 H 0.34817 0.443 0.97668 0.0
H3737 H 0.36206 0.49669 0.00268 0.0
H3738 H 0.38763 0.48984 0.02171 0.0
H3739 H 0.49032 0.4736 0.02595 0.0
H3740 H 0.46197 0.45473 0.02774 0.0
H3741 H 0.43734 0.50033 0.03369 0.0
H3742 H 0.4653 0.51896 0.02949 0.0
H3743 H 0.41662 0.47791 0.01227 0.0
H3744 H 0.44995 0.47171 0.07163 0.0
H3745 H 0.47519 0.46399 0.0905 0.0
H3746 H 0.46354 0.41179 0.0605 0.0
H3747 H 0.43823 0.41917 0.04152 0.0
C3748 C 0.34659 0.43815 0.04089 0.0
C3749 C 0.34078 0.42003 0.03523 0.0
C3750 C 0.36455 0.44587 0.04164 0.0
C3751 C 0.37695 0.43571 0.03614 0.0
C3752 C 0.3714 0.41737 0.03166 0.0
C3753 C 0.35337 0.40953 0.03131 0.0
C3754 C 0.39515 0.44468 0.03352 0.0
C3755 C 0.41003 0.4407 0.04367 0.0
C3756 C 0.39767 0.45808 0.02186 0.0
C3757 C 0.38257 0.46232 0.01004 0.0
C3758 C 0.37134 0.44918 0.99716 0.0
C3759 C 0.35683 0.45318 0.98649 0.0
C3760 C 0.35348 0.47028 0.9885 0.0
C3761 C 0.36467 0.48345 0.00113 0.0
C3762 C 0.3792 0.47953 0.01183 0.0
C3763 C 0.47896 0.47973 0.02771 0.0
C3764 C 0.48029 0.498 0.02757 0.0
C3765 C 0.46264 0.46882 0.02899 0.0
C3766 C 0.44741 0.476 0.03139 0.0
C3767 C 0.44883 0.49432 0.03183 0.0
C3768 C 0.46496 0.50511 0.02957 0.0
C3769 C 0.42973 0.46454 0.03228 0.0
C3770 C 0.41484 0.46778 0.02141 0.0
C3771 C 0.4273 0.45052 0.04334 0.0
C3772 C 0.44228 0.44603 0.05509 0.0
C3773 C 0.45278 0.45859 0.06908 0.0
C3774 C 0.46708 0.45426 0.07981 0.0
C3775 C 0.47095 0.43739 0.07672 0.0
C3776 C 0.46049 0.42481 0.06295 0.0
C3777 C 0.44614 0.42904 0.05224 0.0
H3778 H 0.48205 0.43408 0.085 0.0
H3779 H 0.34221 0.47334 0.98026 0.0
H3780 H 0.41052 0.5763 0.74541 0.0
H3781 H 0.39562 0.60151 0.74588 0.0
H3782 H 0.35412 0.57391 0.77404 0.0
H3783 H 0.36837 0.54826 0.77232 0.0
H3784 H 0.33917 0.58868 0.75014 0.0
H3785 H 0.39153 0.6104 0.79546 0.0
H3786 H 0.42372 0.61853 0.80665 0.0
H3787 H 0.43132 0.654 0.76565 0.0
H3788 H 0.39922 0.64594 0.7541 0.0
H3789 H 0.30726 0.65957 0.79731 0.0
H3790 H 0.31942 0.63394 0.7859 0.0
H3791 H 0.35017 0.66522 0.75039 0.0
H3792 H 0.33785 0.69088 0.7618 0.0
H3793 H 0.37083 0.64977 0.77307 0.0
H3794 H 0.31747 0.63046 0.73087 0.0
H3795 H 0.28518 0.62244 0.72029 0.0
H3796 H 0.27928 0.58265 0.75686 0.0
H3797 H 0.31149 0.59055 0.76782 0.0
C3798 C 0.39823 0.57568 0.75173 0.0
C3799 C 0.39059 0.56036 0.75886 0.0
C3800 C 0.38977 0.59017 0.75213 0.0
C3801 C 0.37384 0.58987 0.7603 0.0
C3802 C 0.36634 0.57455 0.76758 0.0
C3803 C 0.37451 0.55989 0.76668 0.0
C3804 C 0.36462 0.6052 0.76094 0.0
C3805 C 0.34611 0.60199 0.75542 0.0
C3806 C 0.37368 0.62279 0.76701 0.0
C3807 C 0.39302 0.62739 0.77377 0.0
C3808 C 0.4001 0.61981 0.78873 0.0
C3809 C 0.41832 0.62444 0.79516 0.0
C3810 C 0.42957 0.63673 0.78682 0.0
C3811 C 0.42261 0.64445 0.77206 0.0
C3812 C 0.40441 0.63986 0.76558 0.0
C3813 C 0.3162 0.66076 0.78665 0.0
C3814 C 0.3216 0.67705 0.7803 0.0
C3815 C 0.32312 0.64614 0.78011 0.0
C3816 C 0.33567 0.64762 0.76723 0.0
C3817 C 0.34046 0.66375 0.76027 0.0
C3818 C 0.3334 0.67835 0.7667 0.0
C3819 C 0.34537 0.63305 0.76298 0.0
C3820 C 0.36396 0.63644 0.76771 0.0
C3821 C 0.33637 0.61561 0.75642 0.0
C3822 C 0.31689 0.61121 0.75028 0.0
C3823 C 0.30926 0.62014 0.73681 0.0
C3824 C 0.29097 0.61557 0.7307 0.0
C3825 C 0.28018 0.60207 0.73793 0.0
C3826 C 0.28765 0.59311 0.75129 0.0
C3827 C 0.30592 0.59762 0.75743 0.0
H3828 H 0.26604 0.59853 0.73314 0.0
H3829 H 0.44366 0.64031 0.79184 0.0
H3830 H 0.20146 0.62735 0.53961 0.0
H3831 H 0.17225 0.61052 0.54386 0.0
H3832 H 0.18809 0.56232 0.52309 0.0
H3833 H 0.21717 0.57887 0.51865 0.0
H3834 H 0.15963 0.5741 0.50185 0.0
H3835 H 0.17959 0.5641 0.56392 0.0
H3836 H 0.19327 0.57293 0.59644 0.0
H3837 H 0.1532 0.60354 0.6068 0.0
H3838 H 0.13941 0.59511 0.57426 0.0
H3839 H 0.07851 0.51391 0.51083 0.0
H3840 H 0.11016 0.52811 0.51297 0.0
H3841 H 0.09678 0.57851 0.53002 0.0
H3842 H 0.06532 0.56468 0.52721 0.0
H3843 H 0.12419 0.56454 0.55469 0.0
H3844 H 0.10679 0.57952 0.49475 0.0
H3845 H 0.09373 0.57549 0.46194 0.0
H3846 H 0.12913 0.54069 0.44757 0.0
H3847 H 0.14208 0.54411 0.48046 0.0
C3848 C 0.19869 0.61316 0.53604 0.0
C3849 C 0.21123 0.60435 0.52838 0.0
C3850 C 0.18228 0.60362 0.53888 0.0
C3851 C 0.17846 0.58534 0.53399 0.0
C3852 C 0.1912 0.57645 0.52716 0.0
C3853 C 0.20756 0.58593 0.52434 0.0
C3854 C 0.1601 0.5762 0.53173 0.0
C3855 C 0.15192 0.57158 0.51337 0.0
C3856 C 0.15025 0.57399 0.54695 0.0
C3857 C 0.15856 0.5791 0.56656 0.0
C3858 C 0.17379 0.57287 0.57306 0.0
C3859 C 0.18154 0.57776 0.59152 0.0
C3860 C 0.17414 0.58882 0.60366 0.0
C3861 C 0.15894 0.59498 0.59738 0.0
C3862 C 0.15113 0.59013 0.57893 0.0
C3863 C 0.08243 0.52806 0.51453 0.0
C3864 C 0.06986 0.53835 0.51874 0.0
C3865 C 0.10028 0.53604 0.51585 0.0
C3866 C 0.10535 0.55414 0.52177 0.0
C3867 C 0.09276 0.56449 0.52546 0.0
C3868 C 0.07494 0.55663 0.52366 0.0
C3869 C 0.12399 0.56221 0.52485 0.0
C3870 C 0.13208 0.56678 0.54326 0.0
C3871 C 0.13375 0.56487 0.50971 0.0
C3872 C 0.12521 0.56185 0.49014 0.0
C3873 C 0.11151 0.57068 0.4847 0.0
C3874 C 0.1042 0.56859 0.46607 0.0
C3875 C 0.11065 0.55789 0.4527 0.0
C3876 C 0.12417 0.54898 0.45797 0.0
C3877 C 0.13147 0.55096 0.47661 0.0
H3878 H 0.10534 0.55667 0.43822 0.0
H3879 H 0.18017 0.5926 0.61795 0.0
H3880 H 0.6713 0.97417 0.74889 0.0
H3881 H 0.68136 0.9464 0.74756 0.0
H3882 H 0.73619 0.97421 0.75899 0.0
H3883 H 0.72614 0.00244 0.7595 0.0
H3884 H 0.7316 0.94498 0.73289 0.0
H3885 H 0.71549 0.96058 0.79354 0.0
H3886 H 0.69601 0.9702 0.81602 0.0
H3887 H 0.65613 0.92368 0.79689 0.0
H3888 H 0.67526 0.91392 0.77403 0.0
H3889 H 0.76981 0.89135 0.7913 0.0
H3890 H 0.75922 0.91258 0.77273 0.0
H3891 H 0.70983 0.87541 0.75468 0.0
H3892 H 0.72072 0.85393 0.77281 0.0
H3893 H 0.70862 0.90662 0.77885 0.0
H3894 H 0.73116 0.88926 0.72235 0.0
H3895 H 0.75325 0.88166 0.702 0.0
H3896 H 0.7852 0.9336 0.71688 0.0
H3897 H 0.76359 0.94139 0.73773 0.0
C3898 C 0.68551 0.97441 0.75124 0.0
C3899 C 0.69804 0.9903 0.75476 0.0
C3900 C 0.69119 0.95858 0.75027 0.0
C3901 C 0.7094 0.95847 0.75342 0.0
C3902 C 0.72205 0.97427 0.75653 0.0
C3903 C 0.71635 0.99024 0.75707 0.0
C3904 C 0.71497 0.94179 0.75496 0.0
C3905 C 0.7268 0.93655 0.743 0.0
C3906 C 0.70817 0.93092 0.76794 0.0
C3907 C 0.69674 0.93661 0.78192 0.0
C3908 C 0.70251 0.95246 0.79402 0.0
C3909 C 0.69154 0.95794 0.80684 0.0
C3910 C 0.67482 0.94758 0.80784 0.0
C3911 C 0.66907 0.9317 0.79607 0.0
C3912 C 0.67998 0.92619 0.78318 0.0
C3913 C 0.75681 0.88775 0.78312 0.0
C3914 C 0.74561 0.8716 0.78393 0.0
C3915 C 0.75098 0.89961 0.77225 0.0
C3916 C 0.73386 0.89536 0.76235 0.0
C3917 C 0.72317 0.87868 0.76212 0.0
C3918 C 0.72915 0.86669 0.77276 0.0
C3919 C 0.72564 0.90976 0.75699 0.0
C3920 C 0.71323 0.91475 0.7684 0.0
C3921 C 0.73251 0.92063 0.74403 0.0
C3922 C 0.74577 0.91585 0.73177 0.0
C3923 C 0.743 0.899 0.72149 0.0
C3924 C 0.75544 0.89467 0.70981 0.0
C3925 C 0.77064 0.90713 0.70816 0.0
C3926 C 0.77343 0.92395 0.71818 0.0
C3927 C 0.7611 0.92832 0.72995 0.0
H3928 H 0.78025 0.90375 0.69913 0.0
H3929 H 0.66633 0.95185 0.81777 0.0
H3930 H 0.75375 0.92912 0.52943 0.0
H3931 H 0.72917 0.94488 0.52702 0.0
H3932 H 0.69233 0.89798 0.53485 0.0
H3933 H 0.71696 0.88184 0.53647 0.0
H3934 H 0.67847 0.91384 0.50843 0.0
H3935 H 0.70793 0.93354 0.57085 0.0
H3936 H 0.73417 0.94574 0.59397 0.0
H3937 H 0.74335 0.99316 0.56833 0.0
H3938 H 0.71728 0.98116 0.54494 0.0
H3939 H 0.60755 0.95827 0.51977 0.0
H3940 H 0.63115 0.94286 0.52991 0.0
H3941 H 0.67084 0.98513 0.51672 0.0
H3942 H 0.64719 1.00032 0.50625 0.0
H3943 H 0.6824 0.97094 0.54789 0.0
H3944 H 0.65495 0.95191 0.48527 0.0
H3945 H 0.63032 0.94016 0.46022 0.0
H3946 H 0.61899 0.89185 0.48398 0.0
H3947 H 0.64326 0.90349 0.5095 0.0
C3948 C 0.74042 0.92214 0.53067 0.0
C3949 C 0.73726 0.90428 0.53328 0.0
C3950 C 0.72639 0.93121 0.5294 0.0
C3951 C 0.70896 0.92275 0.53124 0.0
C3952 C 0.7057 0.90481 0.53354 0.0
C3953 C 0.71974 0.89561 0.53448 0.0
C3954 C 0.69417 0.93265 0.53048 0.0
C3955 C 0.67914 0.92611 0.51736 0.0
C3956 C 0.69532 0.94898 0.54171 0.0
C3957 C 0.71068 0.95642 0.55611 0.0
C3958 C 0.71556 0.94655 0.57013 0.0
C3959 C 0.73041 0.95343 0.58327 0.0
C3960 C 0.74043 0.9702 0.58261 0.0
C3961 C 0.73557 0.98017 0.56884 0.0
C3962 C 0.72073 0.97336 0.55566 0.0
C3963 C 0.62131 0.96454 0.51971 0.0
C3964 C 0.62559 0.98045 0.51228 0.0
C3965 C 0.63478 0.95568 0.52535 0.0
C3966 C 0.6527 0.96273 0.52374 0.0
C3967 C 0.6571 0.97945 0.51803 0.0
C3968 C 0.64362 0.98818 0.51218 0.0
C3969 C 0.66663 0.95199 0.52603 0.0
C3970 C 0.68156 0.95846 0.53928 0.0
C3971 C 0.66547 0.93567 0.51477 0.0
C3972 C 0.65073 0.92871 0.49952 0.0
C3973 C 0.64704 0.93888 0.48533 0.0
C3974 C 0.63317 0.93223 0.47101 0.0
C3975 C 0.62304 0.91531 0.47056 0.0
C3976 C 0.62679 0.90499 0.4844 0.0
C3977 C 0.64058 0.91163 0.49882 0.0
H3978 H 0.61233 0.91016 0.45943 0.0
H3979 H 0.75195 0.97549 0.59277 0.0
H3980 H 0.36854 0.4582 0.73131 0.0
H3981 H 0.3484 0.42995 0.73202 0.0
H3982 H 0.38401 0.41887 0.77691 0.0
H3983 H 0.40466 0.44635 0.77506 0.0
H3984 H 0.37454 0.39109 0.7556 0.0
H3985 H 0.34029 0.43229 0.78109 0.0
H3986 H 0.32498 0.45754 0.78144 0.0
H3987 H 0.29115 0.43264 0.73164 0.0
H3988 H 0.30639 0.40734 0.73089 0.0
H3989 H 0.30415 0.33064 0.79241 0.0
H3990 H 0.32283 0.35901 0.7887 0.0
H3991 H 0.31345 0.34558 0.72904 0.0
H3992 H 0.29587 0.31664 0.73278 0.0
H3993 H 0.30907 0.38455 0.75614 0.0
H3994 H 0.34548 0.34314 0.73166 0.0
H3995 H 0.36104 0.31828 0.7337 0.0
H3996 H 0.39161 0.34476 0.78477 0.0
H3997 H 0.37573 0.36951 0.78335 0.0
C3998 C 0.37191 0.44971 0.74136 0.0
C3999 C 0.38807 0.45436 0.75315 0.0
C4000 C 0.36036 0.4336 0.74188 0.0
C4001 C 0.36445 0.42222 0.75472 0.0
C4002 C 0.38049 0.42723 0.76677 0.0
C4003 C 0.39226 0.44299 0.76581 0.0
C4004 C 0.35251 0.40483 0.75531 0.0
C4005 C 0.36025 0.38982 0.75587 0.0
C4006 C 0.33375 0.40283 0.75536 0.0
C4007 C 0.3246 0.41803 0.75584 0.0
C4008 C 0.32966 0.43227 0.77016 0.0
C4009 C 0.32099 0.44657 0.77044 0.0
C4010 C 0.30714 0.44672 0.75654 0.0
C4011 C 0.3019 0.43253 0.74238 0.0
C4012 C 0.31053 0.4182 0.74203 0.0
C4013 C 0.30611 0.33382 0.77853 0.0
C4014 C 0.29884 0.32152 0.76286 0.0
C4015 C 0.31679 0.34993 0.77643 0.0
C4016 C 0.31977 0.35419 0.75861 0.0
C4017 C 0.31163 0.34232 0.74291 0.0
C4018 C 0.30155 0.32591 0.74503 0.0
C4019 C 0.33122 0.3712 0.75649 0.0
C4020 C 0.32337 0.38603 0.75577 0.0
C4021 C 0.3499 0.37309 0.75654 0.0
C4022 C 0.35905 0.35797 0.75765 0.0
C4023 C 0.35517 0.34347 0.74357 0.0
C4024 C 0.36413 0.32943 0.74456 0.0
C4025 C 0.37722 0.32988 0.75942 0.0
C4026 C 0.38137 0.34436 0.77333 0.0
C4027 C 0.37235 0.35837 0.77247 0.0
H4028 H 0.38422 0.31906 0.7601 0.0
H4029 H 0.30044 0.4578 0.75678 0.0
H4030 H 0.21528 0.58453 0.25362 0.0
H4031 H 0.23132 0.61499 0.26176 0.0
H4032 H 0.18112 0.63266 0.2611 0.0
H4033 H 0.16501 0.6024 0.25257 0.0
H4034 H 0.20386 0.64855 0.23883 0.0
H4035 H 0.2068 0.63318 0.3021 0.0
H4036 H 0.21473 0.61552 0.3266 0.0
H4037 H 0.26984 0.62768 0.31731 0.0
H4038 H 0.26221 0.64525 0.29261 0.0
H4039 H 0.23387 0.73668 0.26339 0.0
H4040 H 0.219 0.70732 0.26782 0.0
H4041 H 0.26998 0.69108 0.27301 0.0
H4042 H 0.28503 0.72105 0.27002 0.0
H4043 H 0.24761 0.67428 0.29412 0.0
H4044 H 0.24709 0.68553 0.23071 0.0
H4045 H 0.24205 0.70048 0.20313 0.0
H4046 H 0.18621 0.69398 0.20935 0.0
H4047 H 0.19092 0.6789 0.23699 0.0
C4048 C 0.20772 0.59493 0.25535 0.0
C4049 C 0.18899 0.59129 0.25233 0.0
C4050 C 0.21685 0.6122 0.26015 0.0
C4051 C 0.20726 0.62579 0.26223 0.0
C4052 C 0.18859 0.62215 0.25961 0.0
C4053 C 0.17947 0.60496 0.25459 0.0
C4054 C 0.21661 0.64405 0.26508 0.0
C4055 C 0.21316 0.65432 0.2511 0.0
C4056 C 0.22938 0.65101 0.28061 0.0
C4057 C 0.2339 0.64041 0.29542 0.0
C4058 C 0.22058 0.63197 0.30518 0.0
C4059 C 0.22504 0.622 0.31913 0.0
C4060 C 0.24277 0.62045 0.32348 0.0
C4061 C 0.25611 0.62888 0.31392 0.0
C4062 C 0.25173 0.63886 0.29997 0.0
C4063 C 0.24193 0.72715 0.26664 0.0
C4064 C 0.26047 0.73095 0.26697 0.0
C4065 C 0.23345 0.71036 0.26881 0.0
C4066 C 0.24348 0.69719 0.27041 0.0
C4067 C 0.26215 0.70124 0.27182 0.0
C4068 C 0.27066 0.71817 0.27004 0.0
C4069 C 0.23439 0.67887 0.26816 0.0
C4070 C 0.23807 0.66855 0.28204 0.0
C4071 C 0.22219 0.67162 0.25222 0.0
C4072 C 0.2194 0.68129 0.23605 0.0
C4073 C 0.23378 0.68747 0.22633 0.0
C4074 C 0.23097 0.69593 0.21065 0.0
C4075 C 0.21385 0.6983 0.20455 0.0
C4076 C 0.19948 0.69219 0.21412 0.0
C4077 C 0.2022 0.68364 0.22976 0.0
H4078 H 0.2117 0.70478 0.19237 0.0
H4079 H 0.24619 0.61273 0.33429 0.0
H4080 H 0.5274 0.7192 0.47961 0.0
H4081 H 0.53107 0.69098 0.49004 0.0
H4082 H 0.48479 0.66431 0.45261 0.0
H4083 H 0.48134 0.6924 0.44178 0.0
H4084 H 0.48506 0.65284 0.48828 0.0
H4085 H 0.5244 0.66029 0.44126 0.0
H4086 H 0.54877 0.67549 0.42564 0.0
H4087 H 0.586 0.67704 0.47403 0.0
H4088 H 0.56178 0.66206 0.49005 0.0
H4089 H 0.5007 0.56344 0.48574 0.0
H4090 H 0.49677 0.59199 0.4766 0.0
H4091 H 0.5379 0.61851 0.52015 0.0
H4092 H 0.54082 0.59013 0.53033 0.0
H4093 H 0.54066 0.62996 0.48139 0.0
H4094 H 0.50279 0.62537 0.52927 0.0
H4095 H 0.47919 0.61211 0.54703 0.0
H4096 H 0.4405 0.60595 0.49895 0.0
H4097 H 0.4639 0.61931 0.48085 0.0
C4098 C 0.51789 0.70737 0.47367 0.0
C4099 C 0.504 0.70826 0.45984 0.0
C4100 C 0.52008 0.69114 0.47959 0.0
C4101 C 0.50829 0.67527 0.47212 0.0
C4102 C 0.49413 0.67621 0.45868 0.0
C4103 C 0.49216 0.69237 0.45247 0.0
C4104 C 0.51076 0.65777 0.4782 0.0
C4105 C 0.49714 0.64779 0.48647 0.0
C4106 C 0.52667 0.65111 0.47645 0.0
C4107 C 0.54123 0.66026 0.46694 0.0
C4108 C 0.53775 0.66404 0.44865 0.0
C4109 C 0.55154 0.67258 0.43971 0.0
C4110 C 0.56892 0.67728 0.44886 0.0
C4111 C 0.57253 0.67342 0.46697 0.0
C4112 C 0.55878 0.6649 0.47599 0.0
C4113 C 0.50894 0.5753 0.49347 0.0
C4114 C 0.52152 0.57417 0.50856 0.0
C4115 C 0.50666 0.59171 0.48817 0.0
C4116 C 0.51721 0.60758 0.49743 0.0
C4117 C 0.52972 0.60656 0.51253 0.0
C4118 C 0.53152 0.59017 0.51828 0.0
C4119 C 0.51496 0.62513 0.49144 0.0
C4120 C 0.52858 0.63504 0.48313 0.0
C4121 C 0.49915 0.63183 0.4933 0.0
C4122 C 0.48511 0.62316 0.50368 0.0
C4123 C 0.48928 0.62101 0.52241 0.0
C4124 C 0.47593 0.61361 0.53257 0.0
C4125 C 0.45835 0.60833 0.52414 0.0
C4126 C 0.4541 0.61024 0.50547 0.0
C4127 C 0.4674 0.61774 0.49526 0.0
H4128 H 0.44805 0.60284 0.53215 0.0
H4129 H 0.57958 0.68387 0.44191 0.0
H4130 H 0.5901 0.28099 0.66103 0.0
H4131 H 0.61623 0.2776 0.68099 0.0
H4132 H 0.65048 0.30142 0.6432 0.0
H4133 H 0.62406 0.30363 0.6224 0.0
H4134 H 0.6645 0.27717 0.65455 0.0
H4135 H 0.64184 0.32307 0.68915 0.0
H4136 H 0.61894 0.33622 0.70405 0.0
H4137 H 0.61251 0.2955 0.73951 0.0
H4138 H 0.63522 0.282 0.72467 0.0
H4139 H 0.74408 0.29457 0.7187 0.0
H4140 H 0.71784 0.29718 0.69811 0.0
H4141 H 0.68368 0.26667 0.73137 0.0
H4142 H 0.70987 0.26369 0.75182 0.0
H4143 H 0.66993 0.29464 0.72279 0.0
H4144 H 0.68903 0.2472 0.68651 0.0
H4145 H 0.71013 0.23207 0.6707 0.0
H4146 H 0.72312 0.27541 0.63948 0.0
H4147 H 0.70168 0.29055 0.65475 0.0
C4148 C 0.60318 0.28551 0.6569 0.0
C4149 C 0.60489 0.29269 0.64007 0.0
C4150 C 0.61825 0.28374 0.66852 0.0
C4151 C 0.63563 0.28972 0.66412 0.0
C4152 C 0.63736 0.29676 0.64717 0.0
C4153 C 0.62221 0.29809 0.63524 0.0
C4154 C 0.65187 0.28834 0.67694 0.0
C4155 C 0.66572 0.28135 0.66941 0.0
C4156 C 0.65357 0.29318 0.69657 0.0
C4157 C 0.64013 0.30146 0.7057 0.0
C4158 C 0.63549 0.31689 0.70008 0.0
C4159 C 0.62254 0.3244 0.70851 0.0
C4160 C 0.61425 0.31668 0.72269 0.0
C4161 C 0.61893 0.30147 0.72852 0.0
C4162 C 0.63186 0.29389 0.72012 0.0
C4163 C 0.73101 0.28835 0.72168 0.0
C4164 C 0.72925 0.27904 0.73717 0.0
C4165 C 0.71594 0.2898 0.70977 0.0
C4166 C 0.69862 0.28202 0.71297 0.0
C4167 C 0.6968 0.27287 0.72853 0.0
C4168 C 0.71188 0.27129 0.74036 0.0
C4169 C 0.68246 0.28366 0.7003 0.0
C4170 C 0.66867 0.29065 0.70789 0.0
C4171 C 0.68078 0.27884 0.68077 0.0
C4172 C 0.69394 0.27005 0.67189 0.0
C4173 C 0.69649 0.25353 0.67636 0.0
C4174 C 0.70844 0.24493 0.66745 0.0
C4175 C 0.71812 0.25286 0.65425 0.0
C4176 C 0.71568 0.26931 0.64976 0.0
C4177 C 0.70353 0.27785 0.65843 0.0
H4178 H 0.72743 0.2462 0.64743 0.0
H4179 H 0.60421 0.3225 0.72918 0.0
H4180 H 0.01609 0.31711 0.98151 0.0
H4181 H 0.01816 0.34777 0.99602 0.0
H4182 H 0.99991 0.36182 0.94289 0.0
H4183 H 0.99812 0.33187 0.92856 0.0
H4184 H 0.02742 0.38537 0.95735 0.0
H4185 H 0.97376 0.35755 0.98159 0.0
H4186 H 0.95658 0.33682 -0.00036 0.0
H4187 H 0.9923 0.35899 0.04906 0.0
H4188 H 0.0098 0.37971 0.03125 0.0
H4189 H 0.01157 0.47107 0.9775 0.0
H4190 H 0.00852 0.43949 0.96838 0.0
H4191 H 0.0193 0.43228 0.02603 0.0
H4192 H 0.02066 0.46388 0.03522 0.0
H4193 H 0.99866 0.40501 0.01191 0.0
H4194 H 0.05178 0.43352 0.98927 0.0
H4195 H 0.07 0.45434 0.9721 0.0
H4196 H 0.03782 0.43076 0.92087 0.0
H4197 H 0.01927 0.40997 0.93775 0.0
C4198 C 0.01231 0.3267 0.97302 0.0
C4199 C 0.00709 0.32183 0.95375 0.0
C4200 C 0.01349 0.34432 0.98133 0.0
C4201 C 0.00928 0.35745 0.97062 0.0
C4202 C 0.0035 0.35229 0.95159 0.0
C4203 C 0.00245 0.33494 0.94336 0.0
C4204 C 0.01137 0.37668 0.97851 0.0
C4205 C 0.02097 0.3896 0.96921 0.0
C4206 C 0.00365 0.38256 0.99443 0.0
C4207 C 0.9932 0.37001 0.00504 0.0
C4208 C 0.97804 0.35788 0.99627 0.0
C4209 C 0.96822 0.34617 0.00646 0.0
C4210 C 0.97338 0.34654 0.02547 0.0
C4211 C 0.98834 0.35868 0.03433 0.0
C4212 C 0.9982 0.37041 0.0242 0.0
C4213 C 0.01315 0.46273 0.98826 0.0
C4214 C 0.01653 0.4701 0.0071 0.0
C4215 C 0.01167 0.44456 0.98301 0.0
C4216 C 0.01444 0.43316 0.99632 0.0
C4217 C 0.01727 0.4405 0.01527 0.0
C4218 C 0.01809 0.45867 0.02058 0.0
C4219 C 0.01437 0.41378 0.99045 0.0
C4220 C 0.00524 0.40085 0.00013 0.0
C4221 C 0.02279 0.40784 0.975 0.0
C4222 C 0.03406 0.42026 0.96481 0.0
C4223 C 0.04855 0.43283 0.97436 0.0
C4224 C 0.05893 0.44463 0.96468 0.0
C4225 C 0.05505 0.44389 0.94542 0.0
C4226 C 0.04081 0.43132 0.93579 0.0
C4227 C 0.03037 0.41952 0.9454 0.0
H4228 H 0.06309 0.45304 0.93795 0.0
H4229 H 0.96576 0.33747 0.03334 0.0
H4230 H 0.00998 0.76631 0.16884 0.0
H4231 H 0.98173 0.76669 0.18083 0.0
H4232 H 0.96413 0.79193 0.13461 0.0
H4233 H 0.99306 0.79183 0.12232 0.0
H4234 H 0.95486 0.80634 0.16886 0.0
H4235 H 0.94683 0.74911 0.13466 0.0
H4236 H 0.95476 0.72067 0.12399 0.0
H4237 H 0.95767 0.70798 0.17999 0.0
H4238 H 0.94996 0.73642 0.19104 0.0
H4239 H 0.86434 0.77345 0.19814 0.0
H4240 H 0.88939 0.78287 0.18027 0.0
H4241 H 0.92588 0.76953 0.22266 0.0
H4242 H 0.90111 0.7604 0.24049 0.0
H4243 H 0.92179 0.74986 0.18434 0.0
H4244 H 0.93295 0.8085 0.21859 0.0
H4245 H 0.92636 0.83751 0.22936 0.0
H4246 H 0.9174 0.84753 0.17273 0.0
H4247 H 0.9237 0.81846 0.16161 0.0
C4248 C 1.00022 0.77197 0.16103 0.0
C4249 C 0.0039 0.77892 0.14442 0.0
C4250 C 0.98393 0.77212 0.16798 0.0
C4251 C 0.97059 0.77904 0.15852 0.0
C4252 C 0.97418 0.78641 0.14212 0.0
C4253 C 0.9907 0.7863 0.13508 0.0
C4254 C 0.95306 0.77824 0.16615 0.0
C4255 C 0.94735 0.79395 0.17183 0.0
C4256 C 0.94331 0.76212 0.17027 0.0
C4257 C 0.94788 0.74494 0.16368 0.0
C4258 C 0.94926 0.7403 0.14472 0.0
C4259 C 0.9537 0.72417 0.1386 0.0
C4260 C 0.95673 0.71253 0.15131 0.0
C4261 C 0.9553 0.71699 0.17016 0.0
C4262 C 0.95086 0.7331 0.17635 0.0
C4263 C 0.87783 0.77335 0.20402 0.0
C4264 C 0.8808 0.7663 0.22077 0.0
C4265 C 0.89212 0.77862 0.19375 0.0
C4266 C 0.90952 0.77682 0.20008 0.0
C4267 C 0.91261 0.77108 0.2175 0.0
C4268 C 0.89845 0.76596 0.22775 0.0
C4269 C 0.92394 0.77798 0.1876 0.0
C4270 C 0.92902 0.76224 0.18099 0.0
C4271 C 0.93296 0.79403 0.1826 0.0
C4272 C 0.92846 0.81116 0.18926 0.0
C4273 C 0.92926 0.81675 0.20842 0.0
C4274 C 0.92568 0.83325 0.21459 0.0
C4275 C 0.92137 0.84432 0.20174 0.0
C4276 C 0.92066 0.83892 0.18267 0.0
C4277 C 0.92423 0.82243 0.17643 0.0
H4278 H 0.91866 0.85712 0.20655 0.0
H4279 H 0.96018 0.70006 0.14655 0.0
H4280 H 0.52897 0.29006 0.12371 0.0
H4281 H 0.53101 0.31608 0.10737 0.0
H4282 H 0.50886 0.34303 0.15173 0.0
H4283 H 0.50707 0.31711 0.16837 0.0
H4284 H 0.49349 0.34696 0.11574 0.0
H4285 H 0.55103 0.35499 0.15003 0.0
H4286 H 0.57963 0.34762 0.16166 0.0
H4287 H 0.59301 0.34006 0.10575 0.0
H4288 H 0.56435 0.34714 0.09376 0.0
H4289 H 0.51725 0.43219 0.08346 0.0
H4290 H 0.50974 0.40639 0.09986 0.0
H4291 H 0.54275 0.3793 0.06679 0.0
H4292 H 0.55128 0.40561 0.0517 0.0
H4293 H 0.55196 0.37658 0.09987 0.0
H4294 H 0.49276 0.36796 0.06555 0.0
H4295 H 0.46402 0.37582 0.05516 0.0
H4296 H 0.45373 0.38548 0.11197 0.0
H4297 H 0.48246 0.37779 0.12271 0.0
C4298 C 0.52449 0.3015 0.13 0.0
C4299 C 0.51786 0.30147 0.14738 0.0
C4300 C 0.52572 0.3164 0.12065 0.0
C4301 C 0.52014 0.33158 0.12831 0.0
C4302 C 0.51323 0.3315 0.14551 0.0
C4303 C 0.51227 0.31668 0.15504 0.0
C4304 C 0.52175 0.3475 0.11836 0.0
C4305 C 0.50628 0.35358 0.11238 0.0
C4306 C 0.53839 0.3561 0.11387 0.0
C4307 C 0.55543 0.35138 0.12098 0.0
C4308 C 0.55996 0.35153 0.14019 0.0
C4309 C 0.57621 0.34746 0.14686 0.0
C4310 C 0.5881 0.34332 0.13445 0.0
C4311 C 0.58377 0.34323 0.11535 0.0
C4312 C 0.56752 0.34728 0.10861 0.0
C4313 C 0.52262 0.42058 0.07959 0.0
C4314 C 0.53497 0.42094 0.0665 0.0
C4315 C 0.51822 0.40572 0.08885 0.0
C4316 C 0.52569 0.39069 0.08474 0.0
C4317 C 0.53693 0.39068 0.07052 0.0
C4318 C 0.54168 0.40567 0.06171 0.0
C4319 C 0.52356 0.37574 0.09632 0.0
C4320 C 0.53905 0.36994 0.10292 0.0
C4321 C 0.50692 0.36749 0.10139 0.0
C4322 C 0.48985 0.37248 0.09493 0.0
C4323 C 0.48445 0.37191 0.07583 0.0
C4324 C 0.46813 0.37627 0.06988 0.0
C4325 C 0.45708 0.38118 0.0829 0.0
C4326 C 0.46231 0.3817 0.1019 0.0
C4327 C 0.47859 0.37732 0.10792 0.0
H4328 H 0.44446 0.38456 0.07826 0.0
H4329 H 0.6007 0.34022 0.13964 0.0
H4330 H 0.97306 0.28594 0.35319 0.0
H4331 H 0.94071 0.28238 0.34485 0.0
H4332 H 0.94943 0.29261 0.28906 0.0
H4333 H 0.98159 0.29691 0.29756 0.0
H4334 H 0.92694 0.31019 0.29897 0.0
H4335 H 0.93039 0.24972 0.30294 0.0
H4336 H 0.93794 0.22465 0.31781 0.0
H4337 H 0.90525 0.23494 0.36089 0.0
H4338 H 0.8977 0.26023 0.34642 0.0
H4339 H 0.83602 0.28946 0.25864 0.0
H4340 H 0.86786 0.29103 0.26721 0.0
H4341 H 0.85738 0.2778 0.32167 0.0
H4342 H 0.82537 0.27517 0.31268 0.0
H4343 H 0.8808 0.2615 0.31282 0.0
H4344 H 0.88027 0.3238 0.31068 0.0
H4345 H 0.87562 0.35073 0.29757 0.0
H4346 H 0.9031 0.33682 0.25111 0.0
H4347 H 0.90835 0.31007 0.26423 0.0
C4348 C 0.96806 0.28722 0.33908 0.0
C4349 C 0.98007 0.29175 0.32609 0.0
C4350 C 0.94945 0.28509 0.33425 0.0
C4351 C 0.94229 0.28706 0.31617 0.0
C4352 C 0.95434 0.2911 0.30312 0.0
C4353 C 0.97286 0.29349 0.30801 0.0
C4354 C 0.92249 0.28593 0.31094 0.0
C4355 C 0.91693 0.29934 0.3018 0.0
C4356 C 0.90908 0.27215 0.31498 0.0
C4357 C 0.91364 0.25698 0.3237 0.0
C4358 C 0.92493 0.24672 0.31567 0.0
C4359 C 0.92919 0.23246 0.32401 0.0
C4360 C 0.92212 0.22824 0.34032 0.0
C4361 C 0.91074 0.23824 0.34828 0.0
C4362 C 0.90646 0.25254 0.34001 0.0
C4363 C 0.84047 0.28698 0.27251 0.0
C4364 C 0.82796 0.28219 0.28493 0.0
C4365 C 0.85887 0.28806 0.27752 0.0
C4366 C 0.86549 0.28492 0.29536 0.0
C4367 C 0.85294 0.2803 0.30782 0.0
C4368 C 0.83451 0.27886 0.30267 0.0
C4369 C 0.88525 0.28581 0.30083 0.0
C4370 C 0.89081 0.27234 0.31 0.0
C4371 C 0.89873 0.29953 0.29681 0.0
C4372 C 0.89452 0.3149 0.28832 0.0
C4373 C 0.88513 0.32641 0.29757 0.0
C4374 C 0.88247 0.34167 0.29018 0.0
C4375 C 0.88895 0.34542 0.27346 0.0
C4376 C 0.89808 0.3339 0.26406 0.0
C4377 C 0.901 0.31875 0.27151 0.0
H4378 H 0.88698 0.35731 0.26783 0.0
H4379 H 0.92543 0.21718 0.34675 0.0
H4380 H 0.03288 0.68596 0.66243 0.0
H4381 H 0.0331 0.66026 0.63997 0.0
H4382 H 0.99188 0.67443 0.60358 0.0
H4383 H 0.99199 0.70071 0.62593 0.0
H4384 H 0.98681 0.63627 0.61157 0.0
H4385 H 0.02878 0.68123 0.58966 0.0
H4386 H 0.05486 0.70566 0.59364 0.0
H4387 H 0.08865 0.67154 0.61304 0.0
H4388 H 0.06269 0.64695 0.60944 0.0
H4389 H 0.99187 0.57151 0.53544 0.0
H4390 H 0.99029 0.59919 0.5545 0.0
H4391 H 0.04035 0.59789 0.58628 0.0
H4392 H 0.04205 0.57053 0.56695 0.0
H4393 H 0.04008 0.6305 0.57944 0.0
H4394 H 1.00055 0.58666 0.6038 0.0
H4395 H 0.97561 0.56154 0.6031 0.0
H4396 H 0.93862 0.59228 0.58283 0.0
H4397 H 0.9634 0.61752 0.58312 0.0
C4398 C 0.02384 0.68367 0.64965 0.0
C4399 C 0.01238 0.69543 0.64603 0.0
C4400 C 0.02402 0.66895 0.63678 0.0
C4401 C 0.0125 0.66533 0.62006 0.0
C4402 C 0.00089 0.67692 0.6164 0.0
C4403 C 0.00101 0.69198 0.62913 0.0
C4404 C 0.0128 0.64942 0.60659 0.0
C4405 C 0.99828 0.63514 0.6042 0.0
C4406 C 0.02806 0.64762 0.59757 0.0
C4407 C 0.04375 0.66229 0.59944 0.0
C4408 C 0.04174 0.67897 0.59491 0.0
C4409 C 0.05651 0.69284 0.59707 0.0
C4410 C 0.0734 0.69017 0.60363 0.0
C4411 C 0.07556 0.67359 0.60797 0.0
C4412 C 0.06082 0.65968 0.60585 0.0
C4413 C 0.00242 0.5771 0.54662 0.0
C4414 C 0.01673 0.56852 0.5502 0.0
C4415 C 0.00153 0.59292 0.55753 0.0
C4416 C 0.01505 0.60062 0.57215 0.0
C4417 C 0.02963 0.59225 0.5753 0.0
C4418 C 0.03045 0.57641 0.56445 0.0
C4419 C 0.01398 0.61727 0.58422 0.0
C4420 C 0.02845 0.63165 0.58652 0.0
C4421 C 0.99881 0.61904 0.59347 0.0
C4422 C 0.98386 0.60391 0.59326 0.0
C4423 C 0.98712 0.58802 0.59902 0.0
C4424 C 0.97301 0.57376 0.59873 0.0
C4425 C 0.95555 0.57529 0.59286 0.0
C4426 C 0.95216 0.5911 0.58733 0.0
C4427 C 0.96623 0.60539 0.58755 0.0
H4428 H 0.94464 0.56425 0.59266 0.0
H4429 H 0.08481 0.70093 0.60532 0.0
H4430 H 0.57873 0.78776 0.80736 0.0
H4431 H 0.60652 0.78392 0.79472 0.0
H4432 H 0.63441 0.79407 0.85029 0.0
H4433 H 0.60685 0.79833 0.86287 0.0
H4434 H 0.65454 0.81047 0.82905 0.0
H4435 H 0.6214 0.75092 0.82266 0.0
H4436 H 0.59509 0.72735 0.81187 0.0
H4437 H 0.60119 0.73487 0.75509 0.0
H4438 H 0.62742 0.75866 0.76557 0.0
H4439 H 0.73589 0.78466 0.81183 0.0
H4440 H 0.70713 0.78763 0.82199 0.0
H4441 H 0.6818 0.77127 0.7657 0.0
H4442 H 0.71067 0.76756 0.75563 0.0
H4443 H 0.65941 0.75838 0.78559 0.0
H4444 H 0.69161 0.8185 0.79177 0.0
H4445 H 0.71415 0.84552 0.80251 0.0
H4446 H 0.70847 0.83834 0.8594 0.0
H4447 H 0.68579 0.81133 0.84904 0.0
C4448 C 0.59078 0.78918 0.81691 0.0
C4449 C 0.59037 0.79334 0.83622 0.0
C4450 C 0.60674 0.78683 0.80964 0.0
C4451 C 0.62281 0.78837 0.82145 0.0
C4452 C 0.62239 0.79271 0.84071 0.0
C4453 C 0.60649 0.79514 0.84795 0.0
C4454 C 0.64016 0.78595 0.81396 0.0
C4455 C 0.6556 0.7989 0.81977 0.0
C4456 C 0.64173 0.77124 0.80125 0.0
C4457 C 0.62628 0.75665 0.7949 0.0
C4458 C 0.61709 0.74759 0.80787 0.0
C4459 C 0.60219 0.73419 0.80182 0.0
C4460 C 0.59645 0.72964 0.7828 0.0
C4461 C 0.60564 0.73842 0.76981 0.0
C4462 C 0.62054 0.75184 0.7758 0.0
C4463 C 0.72425 0.7817 0.80151 0.0
C4464 C 0.72586 0.77591 0.7828 0.0
C4465 C 0.70763 0.78361 0.80736 0.0
C4466 C 0.69192 0.78026 0.79467 0.0
C4467 C 0.69346 0.77413 0.77598 0.0
C4468 C 0.71011 0.77197 0.77015 0.0
C4469 C 0.67406 0.78286 0.80097 0.0
C4470 C 0.65845 0.76995 0.7949 0.0
C4471 C 0.67227 0.79768 0.81347 0.0
C4472 C 0.68714 0.81284 0.81962 0.0
C4473 C 0.69539 0.82253 0.80656 0.0
C4474 C 0.70812 0.8379 0.81259 0.0
C4475 C 0.71274 0.84363 0.83162 0.0
C4476 C 0.70486 0.83388 0.84467 0.0
C4477 C 0.69205 0.81858 0.83874 0.0
H4478 H 0.72228 0.85572 0.83632 0.0
H4479 H 0.58488 0.71929 0.77814 0.0
H4480 H 0.46402 0.53471 0.71628 0.0
H4481 H 0.47821 0.53748 0.68764 0.0
H4482 H 0.43365 0.50041 0.65665 0.0
H4483 H 0.4191 0.49798 0.68515 0.0
H4484 H 0.47219 0.49488 0.65293 0.0
H4485 H 0.43302 0.53792 0.64969 0.0
H4486 H 0.42226 0.56407 0.66288 0.0
H4487 H 0.47534 0.59499 0.66781 0.0
H4488 H 0.48644 0.56895 0.65487 0.0
H4489 H 0.49678 0.49724 0.56311 0.0
H4490 H 0.48063 0.49587 0.59011 0.0
H4491 H 0.50236 0.55123 0.6077 0.0
H4492 H 0.51392 0.55329 0.57774 0.0
H4493 H 0.47587 0.54783 0.62039 0.0
H4494 H 0.51696 0.50756 0.6246 0.0
H4495 H 0.53019 0.4823 0.61342 0.0
H4496 H 0.47942 0.44753 0.61118 0.0
H4497 H 0.46584 0.47255 0.62184 0.0
C4498 C 0.45724 0.52718 0.70335 0.0
C4499 C 0.44047 0.51611 0.70293 0.0
C4500 C 0.46534 0.52881 0.68703 0.0
C4501 C 0.45696 0.51914 0.67009 0.0
C4502 C 0.44029 0.50797 0.66963 0.0
C4503 C 0.43199 0.50664 0.68587 0.0
C4504 C 0.46569 0.52051 0.65286 0.0
C4505 C 0.47301 0.50638 0.64565 0.0
C4506 C 0.46733 0.53581 0.64394 0.0
C4507 C 0.46057 0.55147 0.65148 0.0
C4508 C 0.44241 0.55026 0.65373 0.0
C4509 C 0.43625 0.56507 0.66112 0.0
C4510 C 0.44811 0.58117 0.66622 0.0
C4511 C 0.46616 0.58251 0.66387 0.0
C4512 C 0.47239 0.56774 0.65649 0.0
C4513 C 0.49717 0.50926 0.57225 0.0
C4514 C 0.5059 0.52547 0.56794 0.0
C4515 C 0.48867 0.50836 0.58834 0.0
C4516 C 0.49077 0.52323 0.60188 0.0
C4517 C 0.50024 0.53942 0.59776 0.0
C4518 C 0.50719 0.5406 0.58072 0.0
C4519 C 0.48285 0.52209 0.61996 0.0
C4520 C 0.47557 0.53631 0.62752 0.0
C4521 C 0.48194 0.50707 0.62967 0.0
C4522 C 0.49037 0.49196 0.62391 0.0
C4523 C 0.50864 0.49452 0.62169 0.0
C4524 C 0.51618 0.48024 0.61535 0.0
C4525 C 0.50564 0.46332 0.61146 0.0
C4526 C 0.48757 0.46062 0.61404 0.0
C4527 C 0.47994 0.47484 0.62025 0.0
H4528 H 0.51148 0.45229 0.6065 0.0
H4529 H 0.44332 0.59262 0.67196 0.0
H4530 H 0.747 0.15095 0.98254 0.0
H4531 H 0.74474 0.16406 0.95371 0.0
H4532 H 0.80206 0.17233 0.95436 0.0
H4533 H 0.80428 0.15887 0.98347 0.0
H4534 H 0.78628 0.20239 0.95228 0.0
H4535 H 0.77689 0.14277 0.92214 0.0
H4536 H 0.76266 0.11132 0.91799 0.0
H4537 H 0.71142 0.1245 0.90458 0.0
H4538 H 0.72522 0.15604 0.90908 0.0
H4539 H 0.76927 0.24416 0.87213 0.0
H4540 H 0.7809 0.2256 0.89339 0.0
H4541 H 0.72704 0.1998 0.89839 0.0
H4542 H 0.71537 0.21818 0.87695 0.0
H4543 H 0.74738 0.17636 0.89376 0.0
H4544 H 0.75045 0.23113 0.93086 0.0
H4545 H 0.75864 0.26294 0.94178 0.0
H4546 H 0.81406 0.25955 0.94892 0.0
H4547 H 0.80624 0.22776 0.9375 0.0
C4548 C 0.75907 0.15547 0.97638 0.0
C4549 C 0.77581 0.15423 0.98496 0.0
C4550 C 0.75776 0.1627 0.9599 0.0
C4551 C 0.77322 0.16878 0.95186 0.0
C4552 C 0.79003 0.16739 0.96035 0.0
C4553 C 0.79131 0.1599 0.97686 0.0
C4554 C 0.77162 0.17853 0.93592 0.0
C4555 C 0.77832 0.19669 0.93914 0.0
C4556 C 0.76038 0.17096 0.91939 0.0
C4557 C 0.75215 0.15186 0.91595 0.0
C4558 C 0.76258 0.139 0.91836 0.0
C4559 C 0.75457 0.12113 0.91597 0.0
C4560 C 0.73615 0.11592 0.91101 0.0
C4561 C 0.7257 0.12855 0.90839 0.0
C4562 C 0.73362 0.14643 0.91083 0.0
C4563 C 0.75995 0.23454 0.87785 0.0
C4564 C 0.74144 0.23262 0.87314 0.0
C4565 C 0.7666 0.22396 0.88989 0.0
C4566 C 0.75481 0.21135 0.89734 0.0
C4567 C 0.73632 0.20944 0.89266 0.0
C4568 C 0.72967 0.22007 0.88068 0.0
C4569 C 0.76163 0.20034 0.91038 0.0
C4570 C 0.75592 0.18201 0.90656 0.0
C4571 C 0.77296 0.20782 0.9269 0.0
C4572 C 0.77778 0.22712 0.93289 0.0
C4573 C 0.76442 0.23722 0.93437 0.0
C4574 C 0.76899 0.25524 0.94073 0.0
C4575 C 0.78687 0.26329 0.94593 0.0
C4576 C 0.80022 0.25332 0.94476 0.0
C4577 C 0.79573 0.23531 0.93828 0.0
H4578 H 0.79038 0.27722 0.95097 0.0
H4579 H 0.72998 0.10209 0.90921 0.0
H4580 H 0.14979 0.55327 0.19883 0.0
H4581 H 0.12822 0.55462 0.17213 0.0
H4582 H 0.12712 0.4999 0.15292 0.0
H4583 H 0.14835 0.49843 0.1799 0.0
H4584 H 0.13138 0.52482 0.12577 0.0
H4585 H 0.09632 0.50683 0.1748 0.0
H4586 H 0.08449 0.50879 0.20512 0.0
H4587 H 0.06725 0.55658 0.19466 0.0
H4588 H 0.07932 0.55512 0.16443 0.0
H4589 H 0.05682 0.49561 0.06093 0.0
H4590 H 0.0778 0.49821 0.08903 0.0
H4591 H 0.06598 0.54901 0.1076 0.0
H4592 H 0.04459 0.54622 0.07991 0.0
H4593 H 0.06918 0.52982 0.1353 0.0
H4594 H 0.1023 0.54668 0.08517 0.0
H4595 H 0.11237 0.54344 0.05396 0.0
H4596 H 0.13207 0.49727 0.06587 0.0
H4597 H 0.1221 0.50015 0.09711 0.0
C4598 C 0.14519 0.54173 0.18857 0.0
C4599 C 0.15065 0.52583 0.19083 0.0
C4600 C 0.13285 0.54246 0.17362 0.0
C4601 C 0.12618 0.52731 0.16097 0.0
C4602 C 0.13229 0.51163 0.16278 0.0
C4603 C 0.14441 0.51083 0.1779 0.0
C4604 C 0.11276 0.52768 0.14571 0.0
C4605 C 0.11773 0.52584 0.12774 0.0
C4606 C 0.09526 0.52957 0.14873 0.0
C4607 C 0.08912 0.53108 0.1675 0.0
C4608 C 0.0904 0.51798 0.17913 0.0
C4609 C 0.08354 0.51895 0.19626 0.0
C4610 C 0.07523 0.53286 0.20187 0.0
C4611 C 0.07379 0.54587 0.19036 0.0
C4612 C 0.08068 0.545 0.17325 0.0
C4613 C 0.05853 0.50712 0.07125 0.0
C4614 C 0.04944 0.52079 0.06843 0.0
C4615 C 0.0705 0.50866 0.08709 0.0
C4616 C 0.07365 0.52403 0.09985 0.0
C4617 C 0.06371 0.53717 0.09765 0.0
C4618 C 0.0515 0.53551 0.08198 0.0
C4619 C 0.08769 0.52656 0.1153 0.0
C4620 C 0.08289 0.52909 0.13332 0.0
C4621 C 0.10538 0.52535 0.11233 0.0
C4622 C 0.11131 0.52357 0.09346 0.0
C4623 C 0.10865 0.53576 0.08109 0.0
C4624 C 0.11437 0.53401 0.06341 0.0
C4625 C 0.12278 0.52014 0.05793 0.0
C4626 C 0.12555 0.50801 0.07014 0.0
C4627 C 0.11991 0.50972 0.08785 0.0
H4628 H 0.12718 0.5188 0.04423 0.0
H4629 H 0.06981 0.5335 0.21507 0.0
H4630 H 0.77859 0.87985 0.45393 0.0
H4631 H 0.7779 0.86212 0.42417 0.0
H4632 H 0.78029 0.81633 0.45192 0.0
H4633 H 0.7813 0.83422 0.48218 0.0
H4634 H 0.803 0.8195 0.42471 0.0
H4635 H 0.741 0.82056 0.42854 0.0
H4636 H 0.71557 0.83498 0.43412 0.0
H4637 H 0.72664 0.86569 0.38959 0.0
H4638 H 0.75226 0.85161 0.38389 0.0
H4639 H 0.78714 0.76765 0.33386 0.0
H4640 H 0.78675 0.77893 0.36669 0.0
H4641 H 0.77629 0.82803 0.35038 0.0
H4642 H 0.776 0.8167 0.31789 0.0
H4643 H 0.75503 0.8187 0.3737 0.0
H4644 H 0.81861 0.82286 0.37286 0.0
H4645 H 0.84669 0.81256 0.36876 0.0
H4646 H 0.83456 0.77524 0.40719 0.0
H4647 H 0.80643 0.78542 0.4116 0.0
C4648 C 0.7789 0.866 0.45384 0.0
C4649 C 0.77988 0.85846 0.47053 0.0
C4650 C 0.77843 0.85584 0.43672 0.0
C4651 C 0.77871 0.83782 0.43575 0.0
C4652 C 0.77994 0.83021 0.45235 0.0
C4653 C 0.78048 0.84043 0.46961 0.0
C4654 C 0.778 0.82722 0.4173 0.0
C4655 C 0.79232 0.81896 0.41363 0.0
C4656 C 0.76429 0.8269 0.40273 0.0
C4657 C 0.74859 0.83506 0.40583 0.0
C4658 C 0.73804 0.83042 0.41998 0.0
C4659 C 0.72359 0.83854 0.42316 0.0
C4660 C 0.7195 0.85125 0.41223 0.0
C4661 C 0.72981 0.85583 0.39804 0.0
C4662 C 0.74427 0.84775 0.39479 0.0
C4663 C 0.78487 0.78088 0.33736 0.0
C4664 C 0.78142 0.79119 0.32325 0.0
C4665 C 0.78472 0.78736 0.35613 0.0
C4666 C 0.78147 0.80439 0.36112 0.0
C4667 C 0.7786 0.8148 0.34699 0.0
C4668 C 0.77848 0.80828 0.32834 0.0
C4669 C 0.78038 0.8114 0.38083 0.0
C4670 C 0.76562 0.81893 0.38479 0.0
C4671 C 0.79384 0.81132 0.39556 0.0
C4672 C 0.81035 0.80474 0.39238 0.0
C4673 C 0.82185 0.81234 0.38028 0.0
C4674 C 0.83781 0.80658 0.37797 0.0
C4675 C 0.84238 0.7932 0.38766 0.0
C4676 C 0.831 0.78557 0.39968 0.0
C4677 C 0.81507 0.79136 0.40213 0.0
H4678 H 0.85476 0.78879 0.38589 0.0
H4679 H 0.70834 0.85755 0.41474 0.0
H4680 H 0.43981 0.53404 0.81943 0.0
H4681 H 0.44987 0.53782 0.85298 0.0
H4682 H 0.47625 0.49369 0.84489 0.0
H4683 H 0.4665 0.48994 0.81159 0.0
H4684 H 0.45611 0.49214 0.87463 0.0
H4685 H 0.50161 0.53332 0.85196 0.0
H4686 H 0.512 0.558 0.83464 0.0
H4687 H 0.48684 0.59191 0.86943 0.0
H4688 H 0.47642 0.56744 0.88707 0.0
H4689 H 0.52197 0.5052 0.95451 0.0
H4690 H 0.50894 0.50427 0.92239 0.0
H4691 H 0.47424 0.53865 0.94083 0.0
H4692 H 0.48578 0.53802 0.97316 0.0
H4693 H 0.49644 0.54652 0.90693 0.0
H4694 H 0.45376 0.50474 0.93192 0.0
H4695 H 0.4444 0.47946 0.9487 0.0
H4696 H 0.46405 0.44564 0.90832 0.0
H4697 H 0.47408 0.47088 0.89161 0.0
C4698 C 0.44778 0.52518 0.82482 0.0
C4699 C 0.45242 0.51175 0.81281 0.0
C4700 C 0.45353 0.52737 0.84397 0.0
C4701 C 0.46382 0.51603 0.85142 0.0
C4702 C 0.4683 0.50255 0.83946 0.0
C4703 C 0.46278 0.50051 0.82038 0.0
C4704 C 0.47011 0.51812 0.87163 0.0
C4705 C 0.46498 0.504 0.88166 0.0
C4706 C 0.48146 0.53368 0.88088 0.0
C4707 C 0.48812 0.54854 0.87071 0.0
C4708 C 0.49828 0.54605 0.8559 0.0
C4709 C 0.50422 0.56 0.84607 0.0
C4710 C 0.50009 0.57652 0.85095 0.0
C4711 C 0.49008 0.57913 0.86573 0.0
C4712 C 0.48422 0.56524 0.87569 0.0
C4713 C 0.51128 0.5122 0.95189 0.0
C4714 C 0.50477 0.52146 0.96662 0.0
C4715 C 0.50405 0.5119 0.93344 0.0
C4716 C 0.49067 0.52143 0.92928 0.0
C4717 C 0.48461 0.53125 0.94378 0.0
C4718 C 0.49131 0.53096 0.96228 0.0
C4719 C 0.48254 0.52048 0.90981 0.0
C4720 C 0.48739 0.53476 0.89993 0.0
C4721 C 0.47098 0.50501 0.90067 0.0
C4722 C 0.46495 0.48979 0.91067 0.0
C4723 C 0.45637 0.49199 0.92677 0.0
C4724 C 0.45088 0.47765 0.93624 0.0
C4725 C 0.45365 0.46096 0.92959 0.0
C4726 C 0.46193 0.45859 0.91347 0.0
C4727 C 0.46756 0.47292 0.90401 0.0
H4728 H 0.44938 0.44987 0.93694 0.0
H4729 H 0.50466 0.58731 0.8433 0.0
H4730 H 0.75097 0.13054 0.10976 0.0
H4731 H 0.7564 0.15151 0.13822 0.0
H4732 H 0.77565 0.19367 0.10702 0.0
H4733 H 0.77038 0.17297 0.07856 0.0
H4734 H 0.79822 0.19316 0.13847 0.0
H4735 H 0.73688 0.19169 0.11946 0.0
H4736 H 0.70532 0.17825 0.10907 0.0
H4737 H 0.70104 0.15647 0.1605 0.0
H4738 H 0.73271 0.16953 0.17108 0.0
H4739 H 0.76771 0.261 0.20276 0.0
H4740 H 0.76816 0.24065 0.17525 0.0
H4741 H 0.7935 0.20786 0.20887 0.0
H4742 H 0.79564 0.22949 0.23617 0.0
H4743 H 0.75018 0.20326 0.1771 0.0
H4744 H 0.81688 0.20384 0.19151 0.0
H4745 H 0.8469 0.22232 0.20028 0.0
H4746 H 0.83903 0.25098 0.15404 0.0
H4747 H 0.80864 0.23308 0.14548 0.0
C4748 C 0.75621 0.1443 0.10895 0.0
C4749 C 0.76039 0.15015 0.09205 0.0
C4750 C 0.75933 0.15617 0.12515 0.0
C4751 C 0.76649 0.17394 0.12448 0.0
C4752 C 0.77029 0.1799 0.10763 0.0
C4753 C 0.76721 0.16807 0.09146 0.0
C4754 C 0.77012 0.18638 0.14147 0.0
C4755 C 0.78776 0.19532 0.14699 0.0
C4756 C 0.75632 0.18924 0.15222 0.0
C4757 C 0.73725 0.18136 0.14594 0.0
C4758 C 0.72927 0.18386 0.12847 0.0
C4759 C 0.71135 0.17635 0.12256 0.0
C4760 C 0.7012 0.16644 0.13408 0.0
C4761 C 0.70894 0.16409 0.15157 0.0
C4762 C 0.72688 0.17155 0.15753 0.0
C4763 C 0.77457 0.25022 0.2042 0.0
C4764 C 0.78228 0.24728 0.22155 0.0
C4765 C 0.77447 0.23842 0.18851 0.0
C4766 C 0.7813 0.22317 0.19017 0.0
C4767 C 0.78892 0.22003 0.20736 0.0
C4768 C 0.78987 0.23229 0.22293 0.0
C4769 C 0.77827 0.20962 0.17425 0.0
C4770 C 0.76067 0.20066 0.1688 0.0
C4771 C 0.79198 0.20708 0.16334 0.0
C4772 C 0.8104 0.2174 0.16812 0.0
C4773 C 0.82144 0.21428 0.18342 0.0
C4774 C 0.83853 0.22462 0.18833 0.0
C4775 C 0.84483 0.23789 0.17779 0.0
C4776 C 0.83408 0.24078 0.16227 0.0
C4777 C 0.81691 0.23058 0.15742 0.0
H4778 H 0.85807 0.24587 0.18159 0.0
H4779 H 0.68733 0.16064 0.12949 0.0
H4780 H 0.12341 0.5591 0.2932 0.0
H4781 H 0.1155 0.55776 0.32481 0.0
H4782 H 0.14481 0.51605 0.33098 0.0
H4783 H 0.1532 0.51762 0.29943 0.0
H4784 H 0.1066 0.50896 0.33531 0.0
H4785 H 0.16027 0.54899 0.35948 0.0
H4786 H 0.18408 0.57521 0.36061 0.0
H4787 H 0.14619 0.60882 0.36873 0.0
H4788 H 0.12208 0.58285 0.36734 0.0
H4789 H 0.07698 0.53334 0.43029 0.0
H4790 H 0.09404 0.52191 0.40696 0.0
H4791 H 0.0716 0.55128 0.36713 0.0
H4792 H 0.05372 0.56225 0.39002 0.0
H4793 H 0.11411 0.5583 0.38649 0.0
H4794 H 0.06106 0.52003 0.34986 0.0
H4795 H 0.0357 0.49487 0.34347 0.0
H4796 H 0.071 0.45949 0.35493 0.0
H4797 H 0.09654 0.48456 0.36176 0.0
C4798 C 0.1283 0.54979 0.30138 0.0
C4799 C 0.13864 0.53828 0.29396 0.0
C4800 C 0.12401 0.5492 0.31943 0.0
C4801 C 0.1298 0.53693 0.33009 0.0
C4802 C 0.1405 0.52571 0.32291 0.0
C4803 C 0.14513 0.52656 0.30496 0.0
C4804 C 0.12217 0.53427 0.34743 0.0
C4805 C 0.10861 0.51943 0.34692 0.0
C4806 C 0.12481 0.54814 0.36221 0.0
C4807 C 0.13933 0.5639 0.36331 0.0
C4808 C 0.15697 0.56197 0.36141 0.0
C4809 C 0.17054 0.5768 0.36211 0.0
C4810 C 0.16665 0.59367 0.36475 0.0
C4811 C 0.14919 0.59575 0.36672 0.0
C4812 C 0.13558 0.58096 0.36603 0.0
C4813 C 0.07495 0.53682 0.41636 0.0
C4814 C 0.06427 0.54915 0.41219 0.0
C4815 C 0.08478 0.53021 0.40307 0.0
C4816 C 0.08393 0.53575 0.38548 0.0
C4817 C 0.07219 0.54678 0.38071 0.0
C4818 C 0.06223 0.55326 0.39389 0.0
C4819 C 0.09789 0.53353 0.37362 0.0
C4820 C 0.11266 0.54745 0.37537 0.0
C4821 C 0.09609 0.51906 0.35968 0.0
C4822 C 0.0806 0.50422 0.35691 0.0
C4823 C 0.06334 0.50696 0.35153 0.0
C4824 C 0.04895 0.49269 0.34767 0.0
C4825 C 0.0517 0.4756 0.34895 0.0
C4826 C 0.06886 0.47275 0.3541 0.0
C4827 C 0.08328 0.48698 0.35801 0.0
H4828 H 0.04057 0.46456 0.34583 0.0
H4829 H 0.17716 0.60513 0.36526 0.0
H4830 H 0.75952 0.86361 0.59179 0.0
H4831 H 0.75654 0.85001 0.62033 0.0
H4832 H 0.80422 0.82916 0.61293 0.0
H4833 H 0.80634 0.84176 0.58352 0.0
H4834 H 0.781 0.8054 0.62331 0.0
H4835 H 0.80206 0.86776 0.64773 0.0
H4836 H 0.80026 0.89924 0.64989 0.0
H4837 H 0.74707 0.88727 0.66511 0.0
H4838 H 0.74862 0.85577 0.66319 0.0
H4839 H 0.79577 0.78076 0.71273 0.0
H4840 H 0.79778 0.79461 0.68431 0.0
H4841 H 0.75092 0.81607 0.69423 0.0
H4842 H 0.74972 0.80315 0.72345 0.0
H4843 H 0.77271 0.83947 0.68246 0.0
H4844 H 0.75128 0.7783 0.66029 0.0
H4845 H 0.75118 0.74643 0.65747 0.0
H4846 H 0.80217 0.75515 0.6366 0.0
H4847 H 0.80268 0.7871 0.63956 0.0
C4848 C 0.76931 0.85606 0.59631 0.0
C4849 C 0.78313 0.85363 0.5856 0.0
C4850 C 0.76774 0.84847 0.61272 0.0
C4851 C 0.78042 0.83891 0.61915 0.0
C4852 C 0.79429 0.83651 0.60834 0.0
C4853 C 0.79552 0.84367 0.59158 0.0
C4854 C 0.77888 0.83087 0.63672 0.0
C4855 C 0.77949 0.81294 0.63631 0.0
C4856 C 0.77613 0.84045 0.65358 0.0
C4857 C 0.77542 0.85943 0.65518 0.0
C4858 C 0.78999 0.87187 0.65152 0.0
C4859 C 0.78902 0.8897 0.65273 0.0
C4860 C 0.77354 0.89524 0.65756 0.0
C4861 C 0.75904 0.88297 0.66134 0.0
C4862 C 0.75999 0.86514 0.6603 0.0
C4863 C 0.78588 0.78839 0.70875 0.0
C4864 C 0.77251 0.79084 0.7201 0.0
C4865 C 0.78696 0.79623 0.69245 0.0
C4866 C 0.77423 0.80605 0.68677 0.0
C4867 C 0.76088 0.80853 0.69823 0.0
C4868 C 0.76015 0.80113 0.71487 0.0
C4869 C 0.7751 0.81402 0.66912 0.0
C4870 C 0.77429 0.83192 0.66949 0.0
C4871 C 0.77741 0.80433 0.65215 0.0
C4872 C 0.77707 0.7851 0.65028 0.0
C4873 C 0.76251 0.77343 0.65521 0.0
C4874 C 0.76238 0.75535 0.65357 0.0
C4875 C 0.77667 0.74878 0.64689 0.0
C4876 C 0.79111 0.76026 0.64179 0.0
C4877 C 0.79132 0.77835 0.64342 0.0
H4878 H 0.77655 0.73478 0.64563 0.0
H4879 H 0.7728 0.90904 0.65846 0.0
H4880 H 0.72099 0.41627 0.4914 0.0
H4881 H 0.69578 0.43145 0.48841 0.0
H4882 H 0.73118 0.48116 0.50838 0.0
H4883 H 0.75631 0.46632 0.51147 0.0
H4884 H 0.70305 0.4653 0.53082 0.0
H4885 H 0.71472 0.48239 0.47106 0.0
H4886 H 0.72095 0.47502 0.43884 0.0
H4887 H 0.66949 0.44083 0.42608 0.0
H4888 H 0.66306 0.44779 0.45839 0.0
H4889 H 0.64582 0.52021 0.5461 0.0
H4890 H 0.66899 0.51156 0.52819 0.0
H4891 H 0.63274 0.4634 0.50426 0.0
H4892 H 0.60947 0.47211 0.52223 0.0
H4893 H 0.66103 0.47877 0.48061 0.0
H4894 H 0.65095 0.45978 0.54114 0.0
H4895 H 0.64676 0.46392 0.57438 0.0
H4896 H 0.69775 0.49902 0.58649 0.0
H4897 H 0.70197 0.49553 0.55319 0.0
C4898 C 0.72336 0.43046 0.49488 0.0
C4899 C 0.74036 0.44017 0.50202 0.0
C4900 C 0.70912 0.43906 0.49284 0.0
C4901 C 0.71197 0.45728 0.49796 0.0
C4902 C 0.72906 0.46708 0.5041 0.0
C4903 C 0.74324 0.45856 0.50611 0.0
C4904 C 0.69691 0.4654 0.50135 0.0
C4905 C 0.694 0.46857 0.51992 0.0
C4906 C 0.68514 0.46893 0.48686 0.0
C4907 C 0.68842 0.46558 0.46715 0.0
C4908 C 0.70473 0.47329 0.46139 0.0
C4909 C 0.70831 0.46917 0.44312 0.0
C4910 C 0.69562 0.45746 0.43042 0.0
C4911 C 0.67929 0.44992 0.43594 0.0
C4912 C 0.67565 0.45398 0.45422 0.0
C4913 C 0.64282 0.50795 0.53672 0.0
C4914 C 0.62641 0.49638 0.53582 0.0
C4915 C 0.65581 0.50323 0.52629 0.0
C4916 C 0.65239 0.48688 0.51509 0.0
C4917 C 0.63539 0.47611 0.5128 0.0
C4918 C 0.62237 0.48084 0.52331 0.0
C4919 C 0.66749 0.47918 0.51023 0.0
C4920 C 0.67025 0.47578 0.49148 0.0
C4921 C 0.67931 0.4753 0.5246 0.0
C4922 C 0.67657 0.47772 0.54459 0.0
C4923 C 0.66109 0.46866 0.55082 0.0
C4924 C 0.65875 0.47084 0.56969 0.0
C4925 C 0.67193 0.48181 0.58253 0.0
C4926 C 0.68749 0.49062 0.57652 0.0
C4927 C 0.68984 0.48859 0.55764 0.0
H4928 H 0.67013 0.48341 0.59715 0.0
H4929 H 0.69844 0.45422 0.41629 0.0
H4930 H 0.21498 0.11351 0.48302 0.0
H4931 H 0.18637 0.09464 0.48589 0.0
H4932 H 0.16975 0.13854 0.516 0.0
H4933 H 0.19827 0.15762 0.51295 0.0
H4934 H 0.16599 0.10585 0.53311 0.0
H4935 H 0.15162 0.12714 0.47438 0.0
H4936 H 0.15749 0.13242 0.44254 0.0
H4937 H 0.15347 0.07693 0.42675 0.0
H4938 H 0.14781 0.07136 0.45859 0.0
H4939 H 0.07931 0.06231 0.54124 0.0
H4940 H 0.10576 0.08295 0.53684 0.0
H4941 H 0.10986 0.05047 0.48574 0.0
H4942 H 0.08023 0.03313 0.48773 0.0
H4943 H 0.1212 0.07855 0.4793 0.0
H4944 H 0.1372 0.05575 0.537 0.0
H4945 H 0.13296 0.0493 0.56893 0.0
H4946 H 0.13689 0.10437 0.58715 0.0
H4947 H 0.14098 0.11112 0.55534 0.0
C4948 C 0.20516 0.11919 0.49008 0.0
C4949 C 0.20881 0.13702 0.49773 0.0
C4950 C 0.18886 0.1084 0.49171 0.0
C4951 C 0.17603 0.11525 0.50116 0.0
C4952 C 0.17955 0.13308 0.50867 0.0
C4953 C 0.19576 0.14395 0.50681 0.0
C4954 C 0.1591 0.10363 0.50352 0.0
C4955 C 0.15605 0.09988 0.52144 0.0
C4956 C 0.14657 0.09553 0.48817 0.0
C4957 C 0.14941 0.09885 0.46889 0.0
C4958 C 0.15206 0.11608 0.46414 0.0
C4959 C 0.15535 0.11912 0.44609 0.0
C4960 C 0.15588 0.10502 0.43264 0.0
C4961 C 0.15305 0.08784 0.43719 0.0
C4962 C 0.14978 0.08473 0.45522 0.0
C4963 C 0.08543 0.06025 0.52864 0.0
C4964 C 0.07737 0.04681 0.51444 0.0
C4965 C 0.1012 0.07153 0.52652 0.0
C4966 C 0.11063 0.06817 0.51127 0.0
C4967 C 0.10305 0.0537 0.49763 0.0
C4968 C 0.08627 0.04349 0.49891 0.0
C4969 C 0.12785 0.08003 0.50911 0.0
C4970 C 0.13105 0.08405 0.49116 0.0
C4971 C 0.14085 0.08794 0.52446 0.0
C4972 C 0.13933 0.08391 0.54377 0.0
C4973 C 0.13722 0.06647 0.54784 0.0
C4974 C 0.13479 0.06277 0.56591 0.0
C4975 C 0.13463 0.07641 0.58004 0.0
C4976 C 0.13703 0.09381 0.57619 0.0
C4977 C 0.13945 0.09759 0.55816 0.0
H4978 H 0.13265 0.07351 0.59399 0.0
H4979 H 0.15847 0.10741 0.41869 0.0
H4980 H 0.13959 0.9701 0.75972 0.0
H4981 H 0.1545 0.94496 0.75885 0.0
H4982 H 0.1978 0.97548 0.79814 0.0
H4983 H 0.18337 1.00104 0.79805 0.0
H4984 H 0.21105 0.95895 0.77292 0.0
H4985 H 0.16294 0.93973 0.80893 0.0
H4986 H 0.13149 0.93295 0.81508 0.0
H4987 H 0.11879 0.89508 0.76584 0.0
H4988 H 0.1501 0.90176 0.75928 0.0
H4989 H 0.25264 0.88536 0.77698 0.0
H4990 H 0.23686 0.90845 0.7884 0.0
H4991 H 0.19147 0.88541 0.74783 0.0
H4992 H 0.20707 0.86233 0.73678 0.0
H4993 H 0.18012 0.89822 0.77804 0.0
H4994 H 0.22528 0.91901 0.73956 0.0
H4995 H 0.25559 0.92638 0.73031 0.0
H4996 H 0.27267 0.96158 0.78116 0.0
H4997 H 0.24251 0.95419 0.79084 0.0
C4998 C 0.15226 0.97141 0.76822 0.0
C4999 C 0.16033 0.98751 0.77896 0.0
C5000 C 0.16071 0.95695 0.76788 0.0
C5001 C 0.17712 0.95808 0.7788 0.0
C5002 C 0.18512 0.97418 0.78964 0.0
C5003 C 0.17689 0.9888 0.7896 0.0
C5004 C 0.18645 0.94285 0.77805 0.0
C5005 C 0.20437 0.94575 0.77452 0.0
C5006 C 0.17765 0.92545 0.7795 0.0
C5007 C 0.15886 0.92132 0.78358 0.0
C5008 C 0.15342 0.93001 0.79938 0.0
C5009 C 0.13562 0.92618 0.80294 0.0
C5010 C 0.12315 0.91361 0.79085 0.0
C5011 C 0.12846 0.90481 0.7752 0.0
C5012 C 0.14624 0.90859 0.77157 0.0
C5013 C 0.23905 0.88494 0.77105 0.0
C5014 C 0.23099 0.87212 0.75608 0.0
C5015 C 0.23013 0.89822 0.77738 0.0
C5016 C 0.21311 0.8989 0.7687 0.0
C5017 C 0.20459 0.88525 0.75472 0.0
C5018 C 0.21347 0.87204 0.74844 0.0
C5019 C 0.20463 0.91439 0.77288 0.0
C5020 C 0.18688 0.91152 0.77694 0.0
C5021 C 0.21347 0.9318 0.77164 0.0
C5022 C 0.23173 0.93583 0.76606 0.0
C5023 C 0.23556 0.92815 0.74888 0.0
C5024 C 0.2527 0.93236 0.74353 0.0
C5025 C 0.26607 0.94439 0.75517 0.0
C5026 C 0.26232 0.95222 0.77219 0.0
C5027 C 0.24522 0.948 0.77762 0.0
H5028 H 0.27931 0.94768 0.75098 0.0
H5029 H 0.10938 0.91068 0.79362 0.0
H5030 H 0.33882 0.9868 0.00562 0.0
H5031 H 0.3714 0.9924 0.01297 0.0
H5032 H 0.37148 0.93747 0.99615 0.0
H5033 H 0.33897 0.93175 0.98922 0.0
H5034 H 0.39479 0.95263 0.02954 0.0
H5035 H 0.38307 0.961 0.96599 0.0
H5036 H 0.36581 0.97107 0.94037 0.0
H5037 H 0.38283 0.02466 0.96607 0.0
H5038 H 0.40007 0.01488 0.99196 0.0
H5039 H 0.48713 0.98232 0.01019 0.0
H5040 H 0.45712 0.96636 0.01287 0.0
H5041 H 0.44203 0.01538 0.03226 0.0
H5042 H 0.47207 0.03135 0.02957 0.0
H5043 H 0.42731 0.99729 0.9948 0.0
H5044 H 0.43666 0.98621 0.06044 0.0
H5045 H 0.45489 0.97476 0.08427 0.0
H5046 H 0.44464 0.92417 0.05101 0.0
H5047 H 0.42624 0.93526 0.027 0.0
C5048 C 0.34589 0.97607 0.00337 0.0
C5049 C 0.33675 0.95899 0.99678 0.0
C5050 C 0.36428 0.97915 0.00777 0.0
C5051 C 0.37351 0.96523 0.00512 0.0
C5052 C 0.36438 0.94818 -0.00152 0.0
C5053 C 0.346 0.94506 0.99433 0.0
C5054 C 0.39288 0.96907 0.00764 0.0
C5055 C 0.40203 0.9622 0.02185 0.0
C5056 C 0.40208 0.98109 0.99712 0.0
C5057 C 0.39287 0.98721 0.9809 0.0
C5058 C 0.38319 0.97494 0.96614 0.0
C5059 C 0.37338 0.98059 0.95159 0.0
C5060 C 0.37323 0.9985 0.95159 0.0
C5061 C 0.38301 0.0108 0.96607 0.0
C5062 C 0.39286 0.00522 0.98065 0.0
C5063 C 0.47763 0.98945 0.01595 0.0
C5064 C 0.48146 0.00783 0.01975 0.0
C5065 C 0.46063 0.98039 0.01751 0.0
C5066 C 0.44767 0.98987 0.02266 0.0
C5067 C 0.45213 0.00804 0.02838 0.0
C5068 C 0.46908 0.01708 0.02678 0.0
C5069 C 0.429 0.98189 0.01761 0.0
C5070 C 0.42011 0.98764 0.00246 0.0
C5071 C 0.42028 0.96856 0.02693 0.0
C5072 C 0.43002 0.96152 0.04201 0.0
C5073 C 0.43819 0.97261 0.05829 0.0
C5074 C 0.44859 0.96622 0.07179 0.0
C5075 C 0.45097 0.9488 0.06914 0.0
C5076 C 0.44275 0.93766 0.05307 0.0
C5077 C 0.43225 0.94394 0.03956 0.0
H5078 H 0.45918 0.94396 0.07954 0.0
H5079 H 0.36552 0.00284 0.94039 0.0
H5080 H 0.82954 0.55193 0.80962 0.0
H5081 H 0.81731 0.57863 0.80618 0.0
H5082 H 0.86604 0.60226 0.78571 0.0
H5083 H 0.87861 0.57674 0.79078 0.0
H5084 H 0.85613 0.62593 0.80414 0.0
H5085 H 0.82657 0.5795 0.75591 0.0
H5086 H 0.80907 0.54984 0.74395 0.0
H5087 H 0.76526 0.56125 0.77257 0.0
H5088 H 0.78257 0.59096 0.78477 0.0
H5089 H 0.82861 0.67682 0.73562 0.0
H5090 H 0.83947 0.65564 0.75384 0.0
H5091 H 0.7915 0.64956 0.781 0.0
H5092 H 0.78022 0.67026 0.76229 0.0
H5093 H 0.7983 0.61823 0.76446 0.0
H5094 H 0.83395 0.66959 0.80788 0.0
H5095 H 0.85618 0.69743 0.81519 0.0
H5096 H 0.89376 0.67394 0.78589 0.0
H5097 H 0.87181 0.64599 0.77854 0.0
C5098 C 0.83767 0.56316 0.80498 0.0
C5099 C 0.85495 0.56256 0.80062 0.0
C5100 C 0.83069 0.57823 0.80282 0.0
C5101 C 0.84068 0.59229 0.79543 0.0
C5102 C 0.85815 0.59172 0.79167 0.0
C5103 C 0.86534 0.57711 0.79457 0.0
C5104 C 0.83296 0.60732 0.79043 0.0
C5105 C 0.84344 0.62421 0.79548 0.0
C5106 C 0.8165 0.60506 0.77905 0.0
C5107 C 0.8059 0.58738 0.77138 0.0
C5108 C 0.81321 0.57566 0.75967 0.0
C5109 C 0.80334 0.55885 0.75285 0.0
C5110 C 0.78608 0.55365 0.75754 0.0
C5111 C 0.77863 0.56529 0.76897 0.0
C5112 C 0.78845 0.58213 0.77581 0.0
C5113 C 0.82048 0.67112 0.74564 0.0
C5114 C 0.80353 0.67505 0.74744 0.0
C5115 C 0.82679 0.65921 0.75619 0.0
C5116 C 0.81633 0.65123 0.76886 0.0
C5117 C 0.79977 0.65574 0.77135 0.0
C5118 C 0.79341 0.66761 0.76074 0.0
C5119 C 0.82174 0.63672 0.77782 0.0
C5120 C 0.81076 0.61992 0.77348 0.0
C5121 C 0.83838 0.63883 0.78874 0.0
C5122 C 0.85123 0.65582 0.79261 0.0
C5123 C 0.84691 0.67045 0.8029 0.0
C5124 C 0.85948 0.68621 0.80711 0.0
C5125 C 0.87636 0.68746 0.80099 0.0
C5126 C 0.88071 0.67296 0.79064 0.0
C5127 C 0.86824 0.65716 0.78652 0.0
H5128 H 0.88607 0.69966 0.80428 0.0
H5129 H 0.77847 0.54062 0.7523 0.0
H5130 H 0.79802 0.61169 0.99007 0.0
H5131 H 0.82558 0.60017 0.98914 0.0
H5132 H 0.85413 0.64591 0.02614 0.0
H5133 H 0.82658 0.65784 0.02631 0.0
H5134 H 0.87552 0.63466 0.0019 0.0
H5135 H 0.83703 0.60865 0.04376 0.0
H5136 H 0.80818 0.59402 0.05236 0.0
H5137 H 0.8073 0.5496 0.01145 0.0
H5138 H 0.83609 0.56407 0.00247 0.0
H5139 H 0.93937 0.59643 0.05242 0.0
H5140 H 0.91674 0.61153 0.03944 0.0
H5141 H 0.89271 0.56425 0.0023 0.0
H5142 H 0.91546 0.54908 0.01543 0.0
H5143 H 0.8692 0.57584 0.02353 0.0
H5144 H 0.91119 0.60238 0.98486 0.0
H5145 H 0.94005 0.61864 0.97791 0.0
H5146 H 0.93513 0.6633 0.01589 0.0
H5147 H 0.90632 0.64727 0.02317 0.0
C5148 C 0.81032 0.61946 0.99756 0.0
C5149 C 0.81034 0.63557 0.00825 0.0
C5150 C 0.82601 0.61287 0.99711 0.0
C5151 C 0.84182 0.62199 0.00791 0.0
C5152 C 0.84208 0.63865 0.01773 0.0
C5153 C 0.8264 0.64544 0.01784 0.0
C5154 C 0.85741 0.61329 0.01044 0.0
C5155 C 0.8742 0.62185 0.00671 0.0
C5156 C 0.85564 0.59649 0.01659 0.0
C5157 C 0.83863 0.58749 0.02235 0.0
C5158 C 0.83066 0.59578 0.03657 0.0
C5159 C 0.81432 0.58752 0.04151 0.0
C5160 C 0.8059 0.5709 0.03243 0.0
C5161 C 0.81385 0.56247 0.01846 0.0
C5162 C 0.83019 0.57068 0.01346 0.0
C5163 C 0.9296 0.58949 0.04105 0.0
C5164 C 0.9291 0.57166 0.03486 0.0
C5165 C 0.9167 0.59812 0.0336 0.0
C5166 C 0.90302 0.58905 0.01986 0.0
C5167 C 0.90317 0.57151 0.01285 0.0
C5168 C 0.9162 0.5629 0.02023 0.0
C5169 C 0.8874 0.59711 0.01482 0.0
C5170 C 0.87054 0.58849 0.01834 0.0
C5171 C 0.88924 0.61398 0.00886 0.0
C5172 C 0.90663 0.62359 0.0046 0.0
C5173 C 0.91632 0.61563 0.99182 0.0
C5174 C 0.93264 0.62482 0.98778 0.0
C5175 C 0.9394 0.642 0.99644 0.0
C5176 C 0.92986 0.65001 0.00917 0.0
C5177 C 0.91351 0.6409 0.01321 0.0
H5178 H 0.95201 0.64913 0.99326 0.0
H5179 H 0.79323 0.56455 0.03624 0.0
H5180 H 0.17209 0.09359 0.8112 0.0
H5181 H 0.19303 0.12189 0.81208 0.0
H5182 H 0.17521 0.12343 0.75437 0.0
H5183 H 0.15391 0.09569 0.75369 0.0
H5184 H 0.21438 0.13041 0.76545 0.0
H5185 H 0.15943 0.14706 0.78169 0.0
H5186 H 0.13441 0.14725 0.80056 0.0
H5187 H 0.17131 0.1693 0.84915 0.0
H5188 H 0.1966 0.16892 0.83062 0.0
H5189 H 0.25027 0.2155 0.74731 0.0
H5190 H 0.23143 0.18728 0.74993 0.0
H5191 H 0.23455 0.20189 0.80939 0.0
H5192 H 0.25141 0.23116 0.80615 0.0
H5193 H 0.20415 0.18557 0.79992 0.0
H5194 H 0.25951 0.17039 0.78398 0.0
H5195 H 0.28462 0.17059 0.76513 0.0
H5196 H 0.24819 0.14546 0.71719 0.0
H5197 H 0.22285 0.14533 0.73568 0.0
C5198 C 0.17281 0.09998 0.79873 0.0
C5199 C 0.1615 0.09256 0.78236 0.0
C5200 C 0.18466 0.11611 0.79925 0.0
C5201 C 0.1856 0.12471 0.78328 0.0
C5202 C 0.17466 0.11699 0.76682 0.0
C5203 C 0.16252 0.1012 0.76645 0.0
C5204 C 0.19783 0.14187 0.78355 0.0
C5205 C 0.21221 0.14252 0.77297 0.0
C5206 C 0.19513 0.15753 0.79367 0.0
C5207 C 0.17993 0.15769 0.80482 0.0
C5208 C 0.16224 0.15172 0.79645 0.0
C5209 C 0.148 0.15192 0.80707 0.0
C5210 C 0.15127 0.15821 0.82606 0.0
C5211 C 0.1688 0.16437 0.83445 0.0
C5212 C 0.18309 0.16416 0.8239 0.0
C5213 C 0.24699 0.21256 0.76093 0.0
C5214 C 0.25228 0.22534 0.77655 0.0
C5215 C 0.23635 0.19633 0.7625 0.0
C5216 C 0.23197 0.19196 0.78 0.0
C5217 C 0.2377 0.20474 0.79572 0.0
C5218 C 0.24747 0.2214 0.79394 0.0
C5219 C 0.22102 0.17434 0.78177 0.0
C5220 C 0.20675 0.17353 0.79269 0.0
C5221 C 0.22398 0.15843 0.77213 0.0
C5222 C 0.23929 0.1579 0.76121 0.0
C5223 C 0.25687 0.1649 0.76942 0.0
C5224 C 0.27113 0.16503 0.75879 0.0
C5225 C 0.268 0.15805 0.73997 0.0
C5226 C 0.2506 0.15085 0.73177 0.0
C5227 C 0.23629 0.15071 0.74232 0.0
H5228 H 0.27905 0.15821 0.73175 0.0
H5229 H 0.14023 0.15838 0.83425 0.0
H5230 H 0.36123 0.94874 0.24958 0.0
H5231 H 0.34216 0.91989 0.25024 0.0
H5232 H 0.33271 0.93618 0.30649 0.0
H5233 H 0.35125 0.96518 0.30572 0.0
H5234 H 0.34831 0.90297 0.29665 0.0
H5235 H 0.29937 0.93205 0.28421 0.0
H5236 H 0.28263 0.95136 0.26822 0.0
H5237 H 0.28032 0.91854 0.21623 0.0
H5238 H 0.29725 0.89914 0.23192 0.0
H5239 H 0.28767 0.82621 0.3048 0.0
H5240 H 0.30187 0.8569 0.30603 0.0
H5241 H 0.29921 0.85042 0.24599 0.0
H5242 H 0.2836 0.81988 0.24484 0.0
H5243 H 0.28914 0.87976 0.25979 0.0
H5244 H 0.33771 0.84969 0.27366 0.0
H5245 H 0.35295 0.83017 0.29096 0.0
H5246 H 0.35606 0.86516 0.34163 0.0
H5247 H 0.34038 0.88467 0.32468 0.0
C5248 C 0.35488 0.9461 0.26193 0.0
C5249 C 0.35742 0.95883 0.27756 0.0
C5250 C 0.34404 0.92987 0.26227 0.0
C5251 C 0.33616 0.92638 0.27836 0.0
C5252 C 0.33868 0.93904 0.29398 0.0
C5253 C 0.34915 0.95541 0.2935 0.0
C5254 C 0.32644 0.90887 0.27922 0.0
C5255 C 0.33524 0.89782 0.2889 0.0
C5256 C 0.3097 0.90257 0.26874 0.0
C5257 C 0.29976 0.91429 0.25918 0.0
C5258 C 0.29548 0.92908 0.26933 0.0
C5259 C 0.2859 0.94 0.26033 0.0
C5260 C 0.28047 0.93621 0.24121 0.0
C5261 C 0.28457 0.92147 0.23104 0.0
C5262 C 0.29414 0.9105 0.23998 0.0
C5263 C 0.29012 0.83136 0.29193 0.0
C5264 C 0.28543 0.82075 0.27473 0.0
C5265 C 0.29829 0.84876 0.29264 0.0
C5266 C 0.30202 0.8555 0.27614 0.0
C5267 C 0.2967 0.8451 0.25885 0.0
C5268 C 0.2882 0.82771 0.25817 0.0
C5269 C 0.31108 0.87361 0.27699 0.0
C5270 C 0.30219 0.88482 0.26761 0.0
C5271 C 0.32776 0.88005 0.28785 0.0
C5272 C 0.33769 0.86855 0.29792 0.0
C5273 C 0.34154 0.85317 0.28851 0.0
C5274 C 0.35027 0.84211 0.29827 0.0
C5275 C 0.35544 0.8464 0.31742 0.0
C5276 C 0.35201 0.86183 0.32681 0.0
C5277 C 0.34319 0.87289 0.31713 0.0
H5278 H 0.36209 0.8378 0.32504 0.0
H5279 H 0.27303 0.94467 0.23427 0.0
H5280 H 0.55692 0.3348 0.55457 0.0
H5281 H 0.55399 0.36301 0.54359 0.0
H5282 H 0.53524 0.37979 0.59529 0.0
H5283 H 0.53806 0.35173 0.60619 0.0
H5284 H 0.51554 0.38929 0.56877 0.0
H5285 H 0.57877 0.39619 0.58311 0.0
H5286 H 0.60879 0.38935 0.58168 0.0
H5287 H 0.60447 0.39305 0.52305 0.0
H5288 H 0.5743 0.39967 0.52408 0.0
H5289 H 0.53161 0.48372 0.56356 0.0
H5290 H 0.53396 0.45451 0.57226 0.0
H5291 H 0.53595 0.43536 0.51483 0.0
H5292 H 0.53264 0.46435 0.50596 0.0
H5293 H 0.56404 0.42695 0.54284 0.0
H5294 H 0.50117 0.42127 0.5291 0.0
H5295 H 0.47119 0.4279 0.5308 0.0
H5296 H 0.47489 0.42171 0.58879 0.0
H5297 H 0.50521 0.41558 0.58766 0.0
C5298 C 0.55217 0.34447 0.56363 0.0
C5299 C 0.54774 0.34072 0.58136 0.0
C5300 C 0.55059 0.36079 0.55736 0.0
C5301 C 0.54451 0.37399 0.56855 0.0
C5302 C 0.53995 0.37012 0.58618 0.0
C5303 C 0.54162 0.35391 0.59247 0.0
C5304 C 0.5425 0.39158 0.56199 0.0
C5305 C 0.52632 0.39755 0.56336 0.0
C5306 C 0.55622 0.40254 0.55438 0.0
C5307 C 0.57418 0.39818 0.55363 0.0
C5308 C 0.58414 0.39533 0.56987 0.0
C5309 C 0.6012 0.39155 0.56914 0.0
C5310 C 0.6085 0.3907 0.55227 0.0
C5311 C 0.59877 0.39366 0.5361 0.0
C5312 C 0.58169 0.39743 0.53675 0.0
C5313 C 0.53248 0.47328 0.55274 0.0
C5314 C 0.53198 0.47654 0.53401 0.0
C5315 C 0.53382 0.45649 0.55775 0.0
C5316 C 0.53528 0.4425 0.54429 0.0
C5317 C 0.53492 0.44578 0.52558 0.0
C5318 C 0.53296 0.46241 0.52049 0.0
C5319 C 0.53718 0.42458 0.5498 0.0
C5320 C 0.55331 0.41863 0.54826 0.0
C5321 C 0.52347 0.41366 0.55735 0.0
C5322 C 0.50565 0.4183 0.55837 0.0
C5323 C 0.49581 0.42175 0.54234 0.0
C5324 C 0.47873 0.42542 0.5432 0.0
C5325 C 0.47125 0.42556 0.55997 0.0
C5326 C 0.48083 0.42192 0.5759 0.0
C5327 C 0.49797 0.41835 0.57516 0.0
H5328 H 0.45797 0.42831 0.56057 0.0
H5329 H 0.62173 0.3878 0.55174 0.0
H5330 H 0.43652 0.76475 0.41587 0.0
H5331 H 0.4067 0.76408 0.39936 0.0
H5332 H 0.42515 0.74708 0.34749 0.0
H5333 H 0.45464 0.74811 0.36373 0.0
H5334 H 0.41094 0.77443 0.34384 0.0
H5335 H 0.39369 0.72032 0.36939 0.0
H5336 H 0.38906 0.70129 0.39411 0.0
H5337 H 0.35405 0.73285 0.41715 0.0
H5338 H 0.3587 0.75226 0.39272 0.0
H5339 H 0.33315 0.75936 0.2795 0.0
H5340 H 0.35967 0.7573 0.29931 0.0
H5341 H 0.33222 0.76508 0.34768 0.0
H5342 H 0.30517 0.76578 0.32758 0.0
H5343 H 0.35102 0.74452 0.35544 0.0
H5344 H 0.3701 0.79984 0.33019 0.0
H5345 H 0.3775 0.81977 0.30668 0.0
H5346 H 0.41008 0.78588 0.28323 0.0
H5347 H 0.40315 0.76585 0.30666 0.0
C5348 C 0.43398 0.76036 0.40105 0.0
C5349 C 0.44795 0.75643 0.39112 0.0
C5350 C 0.41694 0.76005 0.39157 0.0
C5351 C 0.41356 0.75565 0.37203 0.0
C5352 C 0.42729 0.75071 0.36246 0.0
C5353 C 0.44419 0.75118 0.37181 0.0
C5354 C 0.39652 0.75753 0.36105 0.0
C5355 C 0.39783 0.76772 0.3463 0.0
C5356 C 0.37928 0.74934 0.3645 0.0
C5357 C 0.37673 0.73788 0.37937 0.0
C5358 C 0.38517 0.72333 0.37985 0.0
C5359 C 0.38251 0.71245 0.39379 0.0
C5360 C 0.37132 0.7159 0.40723 0.0
C5361 C 0.36275 0.73023 0.40676 0.0
C5362 C 0.3654 0.74117 0.39287 0.0
C5363 C 0.33274 0.76103 0.29428 0.0
C5364 C 0.31703 0.76381 0.30167 0.0
C5365 C 0.34815 0.75991 0.30581 0.0
C5366 C 0.34862 0.76194 0.32534 0.0
C5367 C 0.33266 0.76383 0.33277 0.0
C5368 C 0.31707 0.76443 0.32114 0.0
C5369 C 0.36537 0.76128 0.33787 0.0
C5370 C 0.36404 0.75139 0.353 0.0
C5371 C 0.38272 0.76975 0.33478 0.0
C5372 C 0.3859 0.78124 0.32002 0.0
C5373 C 0.37865 0.79653 0.31987 0.0
C5374 C 0.38281 0.80788 0.30662 0.0
C5375 C 0.39408 0.80403 0.2934 0.0
C5376 C 0.40129 0.78883 0.29342 0.0
C5377 C 0.3973 0.77751 0.30671 0.0
H5378 H 0.3973 0.81288 0.28321 0.0
H5379 H 0.36924 0.70743 0.41798 0.0
H5380 H 0.05025 0.71284 0.11096 0.0
H5381 H 0.04653 0.68285 0.09634 0.0
H5382 H 0.03855 0.69967 0.04229 0.0
H5383 H 0.0422 0.73054 0.05713 0.0
H5384 H 0.01485 0.66669 0.04606 0.0
H5385 H 0.07815 0.68973 0.05606 0.0
H5386 H 0.10633 0.70553 0.07442 0.0
H5387 H 0.10019 0.66865 0.11416 0.0
H5388 H 0.07187 0.65276 0.09615 0.0
H5389 H 0.03223 0.58179 0.00496 0.0
H5390 H 0.03457 0.61379 0.01315 0.0
H5391 H 0.03732 0.60727 0.07129 0.0
H5392 H 0.03424 0.57536 0.06317 0.0
H5393 H 0.06428 0.63578 0.06183 0.0
H5394 H 0.00139 0.61443 0.0553 0.0
H5395 H 0.97209 0.59836 0.03972 0.0
H5396 H 0.97639 0.63104 0.99592 0.0
H5397 H 0.00581 0.64725 0.0112 0.0
C5398 C 0.04771 0.71049 0.09591 0.0
C5399 C 0.04677 0.72457 0.08536 0.0
C5400 C 0.04558 0.69305 0.08752 0.0
C5401 C 0.04252 0.68872 0.06811 0.0
C5402 C 0.04098 0.70253 0.05732 0.0
C5403 C 0.04313 0.72026 0.06583 0.0
C5404 C 0.04163 0.66984 0.05969 0.0
C5405 C 0.02586 0.66009 0.04911 0.0
C5406 C 0.05565 0.66077 0.0641 0.0
C5407 C 0.07284 0.67011 0.07479 0.0
C5408 C 0.08277 0.68504 0.06875 0.0
C5409 C 0.09877 0.69401 0.0791 0.0
C5410 C 0.10503 0.68811 0.09546 0.0
C5411 C 0.09533 0.6732 0.10148 0.0
C5412 C 0.07932 0.66419 0.09119 0.0
C5413 C 0.03335 0.58719 0.01948 0.0
C5414 C 0.03294 0.57591 0.03338 0.0
C5415 C 0.03461 0.60552 0.02417 0.0
C5416 C 0.03603 0.6131 0.04289 0.0
C5417 C 0.03616 0.60188 0.05676 0.0
C5418 C 0.03437 0.58356 0.05207 0.0
C5419 C 0.03759 0.63268 0.04818 0.0
C5420 C 0.05344 0.64248 0.05837 0.0
C5421 C 0.02357 0.64166 0.04359 0.0
C5422 C 0.00594 0.6319 0.03426 0.0
C5423 C 0.99618 0.61808 0.04225 0.0
C5424 C 0.9795 0.60901 0.03352 0.0
C5425 C 0.97235 0.6137 0.01685 0.0
C5426 C 0.9819 0.62747 0.00887 0.0
C5427 C 0.99858 0.63661 0.01757 0.0
H5428 H 0.95942 0.60667 0.01014 0.0
H5429 H 0.11741 0.69509 0.10346 0.0
H5430 H 0.06782 0.24955 0.92353 0.0
H5431 H 0.093 0.25075 0.90505 0.0
H5432 H 0.06708 0.27944 0.86679 0.0
H5433 H 0.04133 0.27679 0.88437 0.0
H5434 H 0.0805 0.25888 0.84729 0.0
H5435 H 0.1067 0.29793 0.90379 0.0
H5436 H 0.11457 0.30514 0.9378 0.0
H5437 H 0.14461 0.26373 0.93786 0.0
H5438 H 0.13681 0.25621 0.90386 0.0
H5439 H 0.15401 0.3004 0.80563 0.0
H5440 H 0.12856 0.29119 0.82239 0.0
H5441 H 0.15809 0.25821 0.85136 0.0
H5442 H 0.18393 0.26783 0.8347 0.0
H5443 H 0.14351 0.27707 0.87558 0.0
H5444 H 0.1193 0.24063 0.8178 0.0
H5445 H 0.11018 0.23336 0.78397 0.0
H5446 H 0.07578 0.27106 0.78639 0.0
H5447 H 0.08477 0.27863 0.82019 0.0
C5448 C 0.06761 0.25619 0.91122 0.0
C5449 C 0.05265 0.26316 0.90545 0.0
C5450 C 0.08211 0.25701 0.90067 0.0
C5451 C 0.08238 0.26555 0.88454 0.0
C5452 C 0.06741 0.27271 0.87903 0.0
C5453 C 0.05268 0.27131 0.88917 0.0
C5454 C 0.09785 0.26678 0.87308 0.0
C5455 C 0.09424 0.26312 0.85357 0.0
C5456 C 0.116 0.27163 0.881 0.0
C5457 C 0.12107 0.27644 0.90133 0.0
C5458 C 0.11496 0.29036 0.91107 0.0
C5459 C 0.11941 0.29449 0.93034 0.0
C5460 C 0.13006 0.28488 0.93999 0.0
C5461 C 0.13636 0.27117 0.93037 0.0
C5462 C 0.13197 0.26699 0.9111 0.0
C5463 C 0.15498 0.29089 0.81529 0.0
C5464 C 0.17103 0.28482 0.81876 0.0
C5465 C 0.14032 0.28553 0.82485 0.0
C5466 C 0.14115 0.27383 0.83816 0.0
C5467 C 0.15698 0.26721 0.84118 0.0
C5468 C 0.17171 0.27256 0.8315 0.0
C5469 C 0.12607 0.26976 0.8498 0.0
C5470 C 0.12976 0.2728 0.86934 0.0
C5471 C 0.10796 0.26458 0.8419 0.0
C5472 C 0.10283 0.26029 0.8215 0.0
C5473 C 0.10991 0.24748 0.81109 0.0
C5474 C 0.10472 0.24327 0.79192 0.0
C5475 C 0.09244 0.25177 0.78303 0.0
C5476 C 0.08529 0.26449 0.79329 0.0
C5477 C 0.0904 0.26871 0.81245 0.0
H5478 H 0.08843 0.24849 0.7682 0.0
H5479 H 0.13344 0.28806 0.95491 0.0
H5480 H 0.5167 0.75446 0.90942 0.0
H5481 H 0.51448 0.72838 0.92559 0.0
H5482 H 0.55241 0.70932 0.89236 0.0
H5483 H 0.55322 0.73464 0.87501 0.0
H5484 H 0.53117 0.68283 0.8968 0.0
H5485 H 0.56181 0.7308 0.94208 0.0
H5486 H 0.56605 0.7602 0.96033 0.0
H5487 H 0.51785 0.74407 0.98473 0.0
H5488 H 0.51321 0.71465 0.96645 0.0
H5489 H 0.53975 0.6162 0.95615 0.0
H5490 H 0.54795 0.6432 0.94159 0.0
H5491 H 0.50427 0.66327 0.96353 0.0
H5492 H 0.49626 0.63655 0.97808 0.0
H5493 H 0.53224 0.68938 0.96546 0.0
H5494 H 0.50211 0.64117 0.91811 0.0
H5495 H 0.49917 0.61213 0.89951 0.0
H5496 H 0.54929 0.62935 0.87903 0.0
H5497 H 0.55273 0.65837 0.89787 0.0
C5498 C 0.52453 0.74466 0.90558 0.0
C5499 C 0.53523 0.74666 0.89105 0.0
C5500 C 0.52343 0.72978 0.91499 0.0
C5501 C 0.53376 0.71692 0.91081 0.0
C5502 C 0.54433 0.71891 0.89609 0.0
C5503 C 0.54487 0.73346 0.88618 0.0
C5504 C 0.53336 0.7014 0.92158 0.0
C5505 C 0.53175 0.68441 0.91185 0.0
C5506 C 0.53399 0.7031 0.9413 0.0
C5507 C 0.53712 0.72056 0.95282 0.0
C5508 C 0.55212 0.73354 0.95134 0.0
C5509 C 0.55457 0.75021 0.96166 0.0
C5510 C 0.54221 0.75401 0.97366 0.0
C5511 C 0.52742 0.74111 0.97543 0.0
C5512 C 0.52488 0.72442 0.96512 0.0
C5513 C 0.5322 0.62658 0.95819 0.0
C5514 C 0.51735 0.62425 0.96825 0.0
C5515 C 0.53676 0.64195 0.9497 0.0
C5516 C 0.52654 0.65527 0.95111 0.0
C5517 C 0.51235 0.65327 0.96207 0.0
C5518 C 0.50777 0.63796 0.97041 0.0
C5519 C 0.52981 0.67092 0.94063 0.0
C5520 C 0.53194 0.68792 0.95043 0.0
C5521 C 0.53 0.66925 0.92103 0.0
C5522 C 0.52778 0.65185 0.90959 0.0
C5523 C 0.51257 0.63871 0.90976 0.0
C5524 C 0.51081 0.62226 0.89916 0.0
C5525 C 0.52406 0.61888 0.88813 0.0
C5526 C 0.53906 0.63197 0.88762 0.0
C5527 C 0.54094 0.64841 0.89828 0.0
H5528 H 0.52272 0.60613 0.87996 0.0
H5529 H 0.5441 0.76694 0.9816 0.0
H5530 H 0.08236 0.76389 0.67689 0.0
H5531 H 0.11353 0.76584 0.68879 0.0
H5532 H 0.0981 0.75631 0.74277 0.0
H5533 H 0.06667 0.75507 0.73098 0.0
H5534 H 0.12799 0.77931 0.74789 0.0
H5535 H 0.11016 0.72334 0.70989 0.0
H5536 H 0.09732 0.70274 0.68161 0.0
H5537 H 0.1365 0.72936 0.65067 0.0
H5538 H 0.14944 0.75026 0.67871 0.0
H5539 H 0.21355 0.75841 0.77746 0.0
H5540 H 0.1815 0.75629 0.76841 0.0
H5541 H 0.19272 0.77367 0.71581 0.0
H5542 H 0.22469 0.77587 0.72476 0.0
H5543 H 0.16468 0.74524 0.71146 0.0
H5544 H 0.18196 0.80146 0.7491 0.0
H5545 H 0.1948 0.82227 0.77719 0.0
H5546 H 0.15683 0.79485 0.80886 0.0
H5547 H 0.14392 0.77369 0.78099 0.0
C5548 C 0.08552 0.76226 0.69135 0.0
C5549 C 0.07184 0.75921 0.7029 0.0
C5550 C 0.10347 0.76323 0.69814 0.0
C5551 C 0.10842 0.76074 0.71664 0.0
C5552 C 0.09482 0.75816 0.72841 0.0
C5553 C 0.07678 0.75745 0.72165 0.0
C5554 C 0.12769 0.76083 0.72348 0.0
C5555 C 0.13586 0.77158 0.74004 0.0
C5556 C 0.13837 0.75107 0.71324 0.0
C5557 C 0.13067 0.73845 0.69638 0.0
C5558 C 0.11597 0.72486 0.69703 0.0
C5559 C 0.10868 0.71313 0.68105 0.0
C5560 C 0.11606 0.71477 0.66435 0.0
C5561 C 0.13078 0.72812 0.66361 0.0
C5562 C 0.13811 0.7399 0.67955 0.0
C5563 C 0.20923 0.7617 0.76393 0.0
C5564 C 0.22186 0.7673 0.75188 0.0
C5565 C 0.19083 0.7606 0.7588 0.0
C5566 C 0.18453 0.76492 0.74142 0.0
C5567 C 0.19711 0.77026 0.72929 0.0
C5568 C 0.21547 0.77156 0.73448 0.0
C5569 C 0.16491 0.76378 0.7357 0.0
C5570 C 0.15672 0.75283 0.71935 0.0
C5571 C 0.15425 0.77329 0.74617 0.0
C5572 C 0.16212 0.78585 0.763 0.0
C5573 C 0.17647 0.79974 0.7621 0.0
C5574 C 0.18373 0.81163 0.77797 0.0
C5575 C 0.17667 0.80985 0.79482 0.0
C5576 C 0.16231 0.79618 0.79581 0.0
C5577 C 0.15502 0.78424 0.77998 0.0
H5578 H 0.18229 0.81908 0.80709 0.0
H5579 H 0.11039 0.70568 0.65198 0.0
H5580 H 0.03577 0.33979 0.41367 0.0
H5581 H 0.03396 0.36601 0.43492 0.0
H5582 H 0.04363 0.39821 0.39104 0.0
H5583 H 0.0457 0.37225 0.36992 0.0
H5584 H 0.06243 0.41467 0.42229 0.0
H5585 H 1.00075 0.385 0.40547 0.0
H5586 H 0.97515 0.36018 0.4029 0.0
H5587 H 0.98247 0.35993 0.4621 0.0
H5588 H 0.00824 0.38462 0.46499 0.0
H5589 H 0.04039 0.49349 0.46373 0.0
H5590 H 0.04255 0.467 0.4437 0.0
H5591 H 0.02174 0.43511 0.48453 0.0
H5592 H 0.01702 0.46135 0.50316 0.0
H5593 H 0.0094 0.41773 0.45549 0.0
H5594 H 0.07088 0.44687 0.47333 0.0
H5595 H 0.09676 0.47152 0.47672 0.0
H5596 H 0.09114 0.47223 0.41755 0.0
H5597 H 0.06514 0.44769 0.41383 0.0
C5598 C 0.03758 0.35246 0.40854 0.0
C5599 C 0.04088 0.35376 0.38996 0.0
C5600 C 0.03643 0.36749 0.42072 0.0
C5601 C 0.03843 0.38425 0.41465 0.0
C5602 C 0.04201 0.38556 0.3962 0.0
C5603 C 0.04316 0.37059 0.38406 0.0
C5604 C 0.0369 0.40045 0.42731 0.0
C5605 C 0.05076 0.41537 0.42945 0.0
C5606 C 0.02196 0.40142 0.43719 0.0
C5607 C 0.00654 0.38652 0.43541 0.0
C5608 C 0.99699 0.37955 0.41792 0.0
C5609 C 0.98242 0.36553 0.41641 0.0
C5610 C 0.97722 0.35845 0.43232 0.0
C5611 C 0.98653 0.36541 0.44978 0.0
C5612 C 0.00111 0.37942 0.45137 0.0
C5613 C 0.03613 0.48085 0.46846 0.0
C5614 C 0.02887 0.47984 0.48548 0.0
C5615 C 0.03771 0.46555 0.45703 0.0
C5616 C 0.03301 0.44871 0.46265 0.0
C5617 C 0.02572 0.44773 0.47966 0.0
C5618 C 0.02337 0.46295 0.49066 0.0
C5619 C 0.03505 0.43213 0.45071 0.0
C5620 C 0.02124 0.4171 0.44861 0.0
C5621 C 0.0502 0.43097 0.44111 0.0
C5622 C 0.06599 0.44554 0.44333 0.0
C5623 C 0.07514 0.45232 0.46106 0.0
C5624 C 0.08983 0.46627 0.46303 0.0
C5625 C 0.09557 0.47345 0.44736 0.0
C5626 C 0.08668 0.46666 0.42967 0.0
C5627 C 0.07199 0.45271 0.42762 0.0
H5628 H 0.10692 0.48427 0.44893 0.0
H5629 H 0.96593 0.3476 0.43112 0.0
H5630 H 0.46326 0.23957 0.23588 0.0
H5631 H 0.43414 0.24358 0.24436 0.0
H5632 H 0.42352 0.26464 0.19301 0.0
H5633 H 0.45314 0.26127 0.18479 0.0
H5634 H 0.41112 0.28287 0.21798 0.0
H5635 H 0.40317 0.22052 0.20276 0.0
H5636 H 0.41019 0.19099 0.20408 0.0
H5637 H 0.40417 0.19512 0.26237 0.0
H5638 H 0.39733 0.22477 0.26145 0.0
H5639 H 0.31514 0.26957 0.22383 0.0
H5640 H 0.34447 0.26637 0.21445 0.0
H5641 H 0.36399 0.26453 0.27152 0.0
H5642 H 0.33488 0.26847 0.28108 0.0
H5643 H 0.37081 0.23581 0.24271 0.0
H5644 H 0.38498 0.29978 0.25839 0.0
H5645 H 0.3816 0.33056 0.25752 0.0
H5646 H 0.37489 0.32218 0.19779 0.0
H5647 H 0.37919 0.29154 0.19831 0.0
C5648 C 0.45477 0.24503 0.22629 0.0
C5649 C 0.46074 0.24998 0.20953 0.0
C5650 C 0.43789 0.24719 0.23113 0.0
C5651 C 0.42607 0.25405 0.21923 0.0
C5652 C 0.4321 0.25922 0.20255 0.0
C5653 C 0.44914 0.25726 0.19779 0.0
C5654 C 0.40777 0.25621 0.22442 0.0
C5655 C 0.40228 0.27236 0.22303 0.0
C5656 C 0.39598 0.24283 0.2315 0.0
C5657 C 0.39989 0.22493 0.23206 0.0
C5658 C 0.40344 0.21517 0.21588 0.0
C5659 C 0.40738 0.19841 0.21655 0.0
C5660 C 0.40767 0.1912 0.23331 0.0
C5661 C 0.40396 0.20072 0.24941 0.0
C5662 C 0.40003 0.2175 0.24881 0.0
C5663 C 0.32568 0.26855 0.23442 0.0
C5664 C 0.32251 0.2692 0.25324 0.0
C5665 C 0.34253 0.26676 0.22903 0.0
C5666 C 0.35662 0.26512 0.24221 0.0
C5667 C 0.35346 0.26573 0.26101 0.0
C5668 C 0.33676 0.26802 0.26648 0.0
C5669 C 0.37442 0.26242 0.23628 0.0
C5670 C 0.37971 0.24618 0.23749 0.0
C5671 C 0.38597 0.27558 0.22889 0.0
C5672 C 0.3821 0.29339 0.22839 0.0
C5673 C 0.38258 0.30446 0.24508 0.0
C5674 C 0.38064 0.3219 0.24465 0.0
C5675 C 0.37771 0.32824 0.22763 0.0
C5676 C 0.37702 0.31721 0.21096 0.0
C5677 C 0.37938 0.29987 0.21131 0.0
H5678 H 0.37612 0.34174 0.22737 0.0
H5679 H 0.41075 0.17823 0.2338 0.0
H5680 H 0.61177 0.51167 0.33449 0.0
H5681 H 0.60261 0.50663 0.36522 0.0
H5682 H 0.58266 0.55501 0.36901 0.0
H5683 H 0.59135 0.55991 0.33823 0.0
H5684 H 0.6036 0.55046 0.402 0.0
H5685 H 0.55423 0.51989 0.35815 0.0
H5686 H 0.53944 0.49888 0.33089 0.0
H5687 H 0.55421 0.4561 0.35719 0.0
H5688 H 0.56944 0.47693 0.38448 0.0
H5689 H 0.53788 0.54199 0.46446 0.0
H5690 H 0.55165 0.54256 0.43564 0.0
H5691 H 0.57782 0.5004 0.44932 0.0
H5692 H 0.56443 0.50016 0.4789 0.0
H5693 H 0.55629 0.49948 0.40863 0.0
H5694 H 0.60393 0.53135 0.45426 0.0
H5695 H 0.61791 0.55346 0.48092 0.0
H5696 H 0.60527 0.59482 0.4508 0.0
H5697 H 0.59076 0.5729 0.42411 0.0
C5698 C 0.6055 0.52125 0.34192 0.0
C5699 C 0.6022 0.53614 0.3339 0.0
C5700 C 0.60024 0.51834 0.35944 0.0
C5701 C 0.59192 0.53043 0.36937 0.0
C5702 C 0.58907 0.54552 0.3616 0.0
C5703 C 0.59396 0.54825 0.34396 0.0
C5704 C 0.58578 0.52723 0.38769 0.0
C5705 C 0.59326 0.53932 0.40345 0.0
C5706 C 0.57243 0.51257 0.3896 0.0
C5707 C 0.56323 0.5 0.37325 0.0
C5708 C 0.55452 0.50603 0.35804 0.0
C5709 C 0.54603 0.49415 0.34259 0.0
C5710 C 0.54595 0.47617 0.34227 0.0
C5711 C 0.55434 0.47004 0.35743 0.0
C5712 C 0.56291 0.48188 0.37289 0.0
C5713 C 0.54652 0.53276 0.46137 0.0
C5714 C 0.55012 0.52103 0.47397 0.0
C5715 C 0.55439 0.53315 0.44489 0.0
C5716 C 0.56575 0.52156 0.44038 0.0
C5717 C 0.5691 0.50947 0.45263 0.0
C5718 C 0.56154 0.50939 0.4695 0.0
C5719 C 0.57423 0.52264 0.42294 0.0
C5720 C 0.56697 0.51035 0.40726 0.0
C5721 C 0.58769 0.5372 0.42105 0.0
C5722 C 0.59607 0.55043 0.43723 0.0
C5723 C 0.60387 0.54513 0.45341 0.0
C5724 C 0.61197 0.55764 0.4685 0.0
C5725 C 0.61254 0.57554 0.46753 0.0
C5726 C 0.60487 0.58095 0.45151 0.0
C5727 C 0.59668 0.56848 0.4364 0.0
H5728 H 0.61884 0.58521 0.47922 0.0
H5729 H 0.53935 0.46699 0.33031 0.0
H5730 H 0.27757 0.9143 0.06677 0.0
H5731 H 0.27283 0.89642 0.09199 0.0
H5732 H 0.30785 0.86351 0.07044 0.0
H5733 H 0.3115 0.88067 0.04437 0.0
H5734 H 0.27786 0.84418 0.07671 0.0
H5735 H 0.31988 0.89566 0.11204 0.0
H5736 H 0.32836 0.92756 0.12295 0.0
H5737 H 0.27945 0.92575 0.14757 0.0
H5738 H 0.27068 0.89385 0.13673 0.0
H5739 H 0.31891 0.80553 0.14456 0.0
H5740 H 0.30637 0.82004 0.12009 0.0
H5741 H 0.27326 0.84143 0.15785 0.0
H5742 H 0.28701 0.8285 0.18286 0.0
H5743 H 0.29103 0.86631 0.14407 0.0
H5744 H 0.25396 0.81241 0.11577 0.0
H5745 H 0.24574 0.78064 0.10433 0.0
H5746 H 0.28506 0.78651 0.06606 0.0
H5747 H 0.2936 0.81825 0.07732 0.0
C5748 C 0.28456 0.90349 0.06773 0.0
C5749 C 0.29492 0.89874 0.05385 0.0
C5750 C 0.28182 0.89328 0.08208 0.0
C5751 C 0.28999 0.87868 0.08303 0.0
C5752 C 0.30126 0.87464 0.06975 0.0
C5753 C 0.30352 0.88449 0.05506 0.0
C5754 C 0.28635 0.86704 0.09733 0.0
C5755 C 0.28079 0.84893 0.09148 0.0
C5756 C 0.28904 0.87344 0.1165 0.0
C5757 C 0.29459 0.89246 0.12349 0.0
C5758 C 0.31095 0.9021 0.11978 0.0
C5759 C 0.3158 0.92016 0.12594 0.0
C5760 C 0.30444 0.92868 0.13591 0.0
C5761 C 0.28824 0.91913 0.13984 0.0
C5762 C 0.28335 0.90106 0.13374 0.0
C5763 C 0.30892 0.81325 0.14766 0.0
C5764 C 0.30419 0.81597 0.16575 0.0
C5765 C 0.3014 0.8212 0.13352 0.0
C5766 C 0.28865 0.83161 0.13708 0.0
C5767 C 0.28297 0.83334 0.15478 0.0
C5768 C 0.29081 0.82578 0.16905 0.0
C5769 C 0.28401 0.84317 0.12346 0.0
C5770 C 0.28763 0.8614 0.12937 0.0
C5771 C 0.27959 0.83684 0.10433 0.0
C5772 C 0.27441 0.81773 0.09741 0.0
C5773 C 0.2609 0.80691 0.10496 0.0
C5774 C 0.25617 0.78891 0.09849 0.0
C5775 C 0.26487 0.78156 0.08448 0.0
C5776 C 0.27829 0.79221 0.07687 0.0
C5777 C 0.28303 0.81023 0.08324 0.0
H5778 H 0.26121 0.76761 0.07952 0.0
H5779 H 0.30819 0.94267 0.14061 0.0
H5780 H 0.9051 0.48917 0.84506 0.0
H5781 H 0.91678 0.49382 0.87822 0.0
H5782 H 0.93794 0.54841 0.87404 0.0
H5783 H 0.9262 0.54377 0.84099 0.0
H5784 H 0.96242 0.52371 0.8783 0.0
H5785 H 0.913 0.54378 0.90398 0.0
H5786 H 0.88175 0.54235 0.91011 0.0
H5787 H 0.88271 0.49523 0.9354 0.0
H5788 H 0.9139 0.49621 0.92917 0.0
H5789 H 0.00106 0.55246 0.97573 0.0
H5790 H 0.98138 0.55058 0.94655 0.0
H5791 H 0.97705 0.49412 0.93829 0.0
H5792 H 0.99772 0.49611 0.9665 0.0
H5793 H 0.94342 0.51957 0.94121 0.0
H5794 H 0.98941 0.49557 0.90923 0.0
H5795 H 0.02076 0.49614 0.90396 0.0
H5796 H 0.02535 0.54871 0.88976 0.0
H5797 H 0.99412 0.54863 0.89559 0.0
C5798 C 0.9119 0.50219 0.8515 0.0
C5799 C 0.91544 0.51607 0.8409 0.0
C5800 C 0.91819 0.50491 0.87032 0.0
C5801 C 0.92804 0.52144 0.87827 0.0
C5802 C 0.93012 0.53567 0.86796 0.0
C5803 C 0.92377 0.53296 0.84921 0.0
C5804 C 0.94037 0.52243 0.89486 0.0
C5805 C 0.95831 0.52306 0.89212 0.0
C5806 C 0.93463 0.52079 0.91251 0.0
C5807 C 0.91573 0.51995 0.91587 0.0
C5808 C 0.90648 0.53297 0.9106 0.0
C5809 C 0.88879 0.53228 0.91417 0.0
C5810 C 0.88023 0.51867 0.92308 0.0
C5811 C 0.88934 0.50574 0.92846 0.0
C5812 C 0.90703 0.50636 0.92493 0.0
C5813 C 0.99616 0.5398 0.96732 0.0
C5814 C 1.00062 0.52443 0.97292 0.0
C5815 C 0.98504 0.53872 0.95092 0.0
C5816 C 0.9781 0.52224 0.9406 0.0
C5817 C 0.98273 0.50691 0.9461 0.0
C5818 C 0.99443 0.50807 0.96203 0.0
C5819 C 0.96525 0.52104 0.9245 0.0
C5820 C 0.94735 0.52025 0.92733 0.0
C5821 C 0.97086 0.52213 0.9068 0.0
C5822 C 0.98961 0.52226 0.90333 0.0
C5823 C 0.99722 0.50738 0.90539 0.0
C5824 C 0.01494 0.50759 0.90222 0.0
C5825 C 0.02509 0.5225 0.89667 0.0
C5826 C 0.01751 0.53722 0.89421 0.0
C5827 C 0.99982 0.53712 0.89749 0.0
H5828 H 0.03879 0.52262 0.89416 0.0
H5829 H 0.86654 0.51818 0.92585 0.0
H5830 H 0.2754 0.16878 0.58186 0.0
H5831 H 0.27772 0.18574 0.61248 0.0
H5832 H 0.26493 0.23002 0.58698 0.0
H5833 H 0.26325 0.21313 0.55596 0.0
H5834 H 0.28978 0.2407 0.6178 0.0
H5835 H 0.23236 0.20116 0.60393 0.0
H5836 H 0.21228 0.17231 0.59437 0.0
H5837 H 0.23686 0.1515 0.64022 0.0
H5838 H 0.25723 0.18015 0.64991 0.0
H5839 H 0.26373 0.27698 0.70532 0.0
H5840 H 0.26308 0.26568 0.6723 0.0
H5841 H 0.28033 0.21916 0.68809 0.0
H5842 H 0.28109 0.23024 0.72082 0.0
H5843 H 0.25106 0.21186 0.66098 0.0
H5844 H 0.30914 0.24858 0.67419 0.0
H5845 H 0.33118 0.27603 0.68446 0.0
H5846 H 0.30772 0.3008 0.64115 0.0
H5847 H 0.28527 0.27356 0.63083 0.0
C5848 C 0.27327 0.18221 0.58272 0.0
C5849 C 0.26889 0.18956 0.56653 0.0
C5850 C 0.27454 0.19188 0.60026 0.0
C5851 C 0.27097 0.20898 0.60209 0.0
C5852 C 0.26756 0.21677 0.58592 0.0
C5853 C 0.26661 0.20714 0.56822 0.0
C5854 C 0.26989 0.21812 0.62091 0.0
C5855 C 0.28105 0.23458 0.62712 0.0
C5856 C 0.25881 0.20995 0.63328 0.0
C5857 C 0.24637 0.19279 0.62758 0.0
C5858 C 0.23353 0.19041 0.61192 0.0
C5859 C 0.2221 0.17409 0.60648 0.0
C5860 C 0.22331 0.16007 0.61667 0.0
C5861 C 0.23593 0.16236 0.63234 0.0
C5862 C 0.2474 0.17864 0.63783 0.0
C5863 C 0.26732 0.26432 0.70173 0.0
C5864 C 0.27242 0.2545 0.71572 0.0
C5865 C 0.26706 0.25795 0.68288 0.0
C5866 C 0.27174 0.24161 0.67777 0.0
C5867 C 0.27668 0.23179 0.69172 0.0
C5868 C 0.27714 0.23819 0.71046 0.0
C5869 C 0.27108 0.23429 0.65794 0.0
C5870 C 0.25956 0.21815 0.65156 0.0
C5871 C 0.28201 0.24264 0.6456 0.0
C5872 C 0.29533 0.25911 0.65192 0.0
C5873 C 0.30851 0.25995 0.66701 0.0
C5874 C 0.32112 0.27545 0.6728 0.0
C5875 C 0.32081 0.29018 0.66351 0.0
C5876 C 0.3079 0.2894 0.64837 0.0
C5877 C 0.29522 0.27393 0.64255 0.0
H5878 H 0.33061 0.30216 0.66799 0.0
H5879 H 0.21446 0.14745 0.61243 0.0
H5880 H 0.6326 0.53644 0.21101 0.0
H5881 H 0.61856 0.53628 0.17947 0.0
H5882 H 0.56652 0.52316 0.19791 0.0
H5883 H 0.58057 0.52313 0.22965 0.0
H5884 H 0.56791 0.50366 0.16579 0.0
H5885 H 0.5821 0.56433 0.18848 0.0
H5886 H 0.60073 0.59241 0.20373 0.0
H5887 H 0.63567 0.59138 0.16106 0.0
H5888 H 0.61741 0.56311 0.14571 0.0
H5889 H 0.5241 0.52706 0.08145 0.0
H5890 H 0.53527 0.5276 0.11432 0.0
H5891 H 0.58797 0.5261 0.09909 0.0
H5892 H 0.57671 0.52485 0.06611 0.0
H5893 H 0.58418 0.5539 0.13028 0.0
H5894 H 0.56792 0.49125 0.10848 0.0
H5895 H 0.54816 0.46298 0.0957 0.0
H5896 H 0.51453 0.46887 0.13881 0.0
H5897 H 0.53376 0.49745 0.15167 0.0
C5898 C 0.61816 0.53351 0.2084 0.0
C5899 C 0.6077 0.52983 0.22288 0.0
C5900 C 0.61014 0.53353 0.19034 0.0
C5901 C 0.59146 0.52996 0.18632 0.0
C5902 C 0.58096 0.52602 0.20068 0.0
C5903 C 0.589 0.52603 0.21882 0.0
C5904 C 0.58305 0.52998 0.167 0.0
C5905 C 0.57123 0.51477 0.15813 0.0
C5906 C 0.58747 0.54442 0.15693 0.0
C5907 C 0.59847 0.56149 0.16604 0.0
C5908 C 0.59384 0.57 0.18242 0.0
C5909 C 0.60433 0.58597 0.19108 0.0
C5910 C 0.6194 0.59365 0.18339 0.0
C5911 C 0.624 0.5854 0.16701 0.0
C5912 C 0.61358 0.5694 0.15832 0.0
C5913 C 0.53806 0.52677 0.08513 0.0
C5914 C 0.54953 0.52579 0.07125 0.0
C5915 C 0.54439 0.52704 0.10388 0.0
C5916 C 0.56242 0.52679 0.10912 0.0
C5917 C 0.57399 0.52619 0.09531 0.0
C5918 C 0.56755 0.52542 0.0765 0.0
C5919 C 0.56931 0.52746 0.12903 0.0
C5920 C 0.58079 0.54285 0.138 0.0
C5921 C 0.56424 0.51333 0.13933 0.0
C5922 C 0.55214 0.49667 0.13086 0.0
C5923 C 0.55611 0.48673 0.11502 0.0
C5924 C 0.54506 0.47059 0.10781 0.0
C5925 C 0.53011 0.46416 0.11639 0.0
C5926 C 0.52609 0.47391 0.13214 0.0
C5927 C 0.53703 0.49009 0.13937 0.0
H5928 H 0.52167 0.45159 0.11096 0.0
H5929 H 0.6275 0.60602 0.19011 0.0
H5930 H 0.2812 0.91727 0.92235 0.0
H5931 H 0.28108 0.8958 0.89513 0.0
H5932 H 0.28843 0.8565 0.931 0.0
H5933 H 0.28883 0.87773 0.95821 0.0
H5934 H 0.30882 0.85644 0.90117 0.0
H5935 H 0.24707 0.85809 0.91349 0.0
H5936 H 0.22187 0.8733 0.91741 0.0
H5937 H 0.22507 0.8897 0.8632 0.0
H5938 H 0.25038 0.87471 0.85904 0.0
H5939 H 0.28664 0.78267 0.8333 0.0
H5940 H 0.28648 0.80159 0.86214 0.0
H5941 H 0.26385 0.83801 0.83091 0.0
H5942 H 0.26082 0.81771 0.80285 0.0
H5943 H 0.2514 0.83913 0.85999 0.0
H5944 H 0.31223 0.83926 0.84577 0.0
H5945 H 0.33736 0.82454 0.83973 0.0
H5946 H 0.3383 0.80804 0.89413 0.0
H5947 H 0.31283 0.82221 0.90029 0.0
C5948 C 0.28293 0.9041 0.92443 0.0
C5949 C 0.28474 0.89907 0.94234 0.0
C5950 C 0.28291 0.89194 0.90893 0.0
C5951 C 0.28455 0.87469 0.91128 0.0
C5952 C 0.28716 0.86984 0.9291 0.0
C5953 C 0.28726 0.88196 0.94456 0.0
C5954 C 0.2822 0.86118 0.89524 0.0
C5955 C 0.29633 0.85257 0.89206 0.0
C5956 C 0.26593 0.85649 0.88347 0.0
C5957 C 0.25068 0.86541 0.88603 0.0
C5958 C 0.24245 0.86503 0.90247 0.0
C5959 C 0.22814 0.87359 0.90472 0.0
C5960 C 0.2219 0.88249 0.89058 0.0
C5961 C 0.22992 0.88281 0.87414 0.0
C5962 C 0.24423 0.87427 0.87182 0.0
C5963 C 0.2808 0.79424 0.83273 0.0
C5964 C 0.27347 0.79852 0.81583 0.0
C5965 C 0.28119 0.80532 0.84916 0.0
C5966 C 0.2757 0.82148 0.84859 0.0
C5967 C 0.26815 0.82559 0.83174 0.0
C5968 C 0.2666 0.814 0.81562 0.0
C5969 C 0.27829 0.8346 0.86521 0.0
C5970 C 0.26408 0.84304 0.86877 0.0
C5971 C 0.29474 0.83953 0.87688 0.0
C5972 C 0.31057 0.83171 0.87345 0.0
C5973 C 0.31781 0.8325 0.85644 0.0
C5974 C 0.3321 0.82423 0.85299 0.0
C5975 C 0.33948 0.81542 0.86656 0.0
C5976 C 0.33259 0.81488 0.88363 0.0
C5977 C 0.31822 0.82301 0.88711 0.0
H5978 H 0.35052 0.809 0.86383 0.0
H5979 H 0.21082 0.88911 0.89235 0.0
H5980 H 0.92648 0.51857 0.75382 0.0
H5981 H 0.94227 0.51522 0.7268 0.0
H5982 H 0.89504 0.51818 0.69093 0.0
H5983 H 0.87859 0.52061 0.71817 0.0
H5984 H 0.91434 0.49342 0.67685 0.0
H5985 H 0.92592 0.55435 0.70462 0.0
H5986 H 0.93392 0.57681 0.73226 0.0
H5987 H 0.98535 0.56287 0.74158 0.0
H5988 H 0.97752 0.54004 0.71423 0.0
H5989 H 0.96248 0.50644 0.60218 0.0
H5990 H 0.94574 0.51714 0.62629 0.0
H5991 H 0.98644 0.51054 0.66859 0.0
H5992 H 0.00329 0.49953 0.64448 0.0
H5993 H 0.96872 0.53957 0.67778 0.0
H5994 H 0.95779 0.47791 0.65476 0.0
H5995 H 0.95076 0.45224 0.63045 0.0
H5996 H 0.89916 0.46409 0.61567 0.0
H5997 H 0.9062 0.49035 0.63939 0.0
C5998 C 0.91932 0.51835 0.74021 0.0
C5999 C 0.90138 0.52013 0.73803 0.0
C6000 C 0.92839 0.51643 0.72482 0.0
C6001 C 0.91988 0.51695 0.70708 0.0
C6002 C 0.90177 0.51797 0.70466 0.0
C6003 C 0.89249 0.51948 0.72014 0.0
C6004 C 0.93042 0.51754 0.69135 0.0
C6005 C 0.92595 0.50372 0.67672 0.0
C6006 C 0.94586 0.53078 0.69178 0.0
C6007 C 0.95113 0.54548 0.70733 0.0
C6008 C 0.93896 0.55611 0.71251 0.0
C6009 C 0.94344 0.56886 0.72818 0.0
C6010 C 0.96014 0.57127 0.73866 0.0
C6011 C 0.97243 0.56101 0.73343 0.0
C6012 C 0.96799 0.54817 0.71782 0.0
C6013 C 0.96812 0.50761 0.61657 0.0
C6014 C 0.98384 0.50148 0.62155 0.0
C6015 C 0.95858 0.51387 0.63028 0.0
C6016 C 0.96478 0.51423 0.64905 0.0
C6017 C 0.98149 0.51017 0.65407 0.0
C6018 C 0.99093 0.50367 0.64035 0.0
C6019 C 0.95252 0.51552 0.66315 0.0
C6020 C 0.95678 0.52958 0.67757 0.0
C6021 C 0.93705 0.50231 0.66274 0.0
C6022 C 0.93272 0.4864 0.64855 0.0
C6023 C 0.94508 0.47528 0.6461 0.0
C6024 C 0.94108 0.46059 0.63244 0.0
C6025 C 0.92457 0.4566 0.62143 0.0
C6026 C 0.912 0.46728 0.62411 0.0
C6027 C 0.91603 0.48212 0.6376 0.0
H6028 H 0.92147 0.44519 0.61089 0.0
H6029 H 0.96354 0.58109 0.75084 0.0
H6030 H 0.25574 0.21424 0.45962 0.0
H6031 H 0.25708 0.22649 0.43003 0.0
H6032 H 0.28405 0.18579 0.40906 0.0
H6033 H 0.28258 0.17337 0.43844 0.0
H6034 H 0.30032 0.21916 0.40279 0.0
H6035 H 0.24201 0.1827 0.39414 0.0
H6036 H 0.21128 0.17123 0.40031 0.0
H6037 H 0.19801 0.22207 0.39678 0.0
H6038 H 0.22876 0.23394 0.39092 0.0
H6039 H 0.29228 0.23368 0.30708 0.0
H6040 H 0.29145 0.2206 0.33622 0.0
H6041 H 0.26019 0.2576 0.35706 0.0
H6042 H 0.26067 0.27043 0.328 0.0
H6043 H 0.24619 0.22529 0.36301 0.0
H6044 H 0.30482 0.26214 0.37291 0.0
H6045 H 0.33538 0.27339 0.36594 0.0
H6046 H 0.34762 0.22182 0.36621 0.0
H6047 H 0.31714 0.21023 0.37316 0.0
C6048 C 0.26202 0.20795 0.44873 0.0
C6049 C 0.26911 0.19287 0.45139 0.0
C6050 C 0.26267 0.21489 0.4318 0.0
C6051 C 0.27057 0.20697 0.41731 0.0
C6052 C 0.27788 0.19208 0.42005 0.0
C6053 C 0.27702 0.18501 0.43685 0.0
C6054 C 0.27157 0.21441 0.39944 0.0
C6055 C 0.28847 0.22032 0.39397 0.0
C6056 C 0.25612 0.21621 0.38812 0.0
C6057 C 0.23781 0.20928 0.39241 0.0
C6058 C 0.23264 0.19152 0.39499 0.0
C6059 C 0.21518 0.18492 0.39835 0.0
C6060 C 0.20272 0.19594 0.39903 0.0
C6061 C 0.20769 0.21357 0.39634 0.0
C6062 C 0.22514 0.22024 0.39301 0.0
C6063 C 0.28526 0.239 0.31791 0.0
C6064 C 0.27656 0.25307 0.31526 0.0
C6065 C 0.28488 0.23161 0.33458 0.0
C6066 C 0.27588 0.23823 0.3489 0.0
C6067 C 0.26723 0.25229 0.34624 0.0
C6068 C 0.26759 0.25965 0.32963 0.0
C6069 C 0.27493 0.23025 0.36647 0.0
C6070 C 0.25804 0.22419 0.37186 0.0
C6071 C 0.29038 0.22836 0.37773 0.0
C6072 C 0.30864 0.23528 0.37336 0.0
C6073 C 0.31398 0.25316 0.37132 0.0
C6074 C 0.33128 0.25961 0.3674 0.0
C6075 C 0.34338 0.24831 0.3655 0.0
C6076 C 0.33822 0.23055 0.36762 0.0
C6077 C 0.32095 0.22404 0.3716 0.0
H6078 H 0.35677 0.25333 0.36247 0.0
H6079 H 0.18919 0.19078 0.40156 0.0
H6080 H 0.29595 0.56876 0.53537 0.0
H6081 H 0.32563 0.56291 0.53118 0.0
H6082 H 0.34953 0.61603 0.55595 0.0
H6083 H 0.31965 0.62219 0.55932 0.0
H6084 H 0.36317 0.60362 0.52272 0.0
H6085 H 0.35319 0.5862 0.58284 0.0
H6086 H 0.33102 0.57291 0.60219 0.0
H6087 H 0.32342 0.5234 0.56713 0.0
H6088 H 0.34543 0.53646 0.54745 0.0
H6089 H 0.44174 0.56974 0.51255 0.0
H6090 H 0.42169 0.58314 0.53168 0.0
H6091 H 0.37907 0.53874 0.51206 0.0
H6092 H 0.39884 0.52543 0.49279 0.0
H6093 H 0.38024 0.55276 0.55058 0.0
H6094 H 0.38331 0.56949 0.48852 0.0
H6095 H 0.39792 0.58218 0.46305 0.0
H6096 H 0.41316 0.63243 0.49704 0.0
H6097 H 0.3992 0.61983 0.52302 0.0
C6098 C 0.30759 0.57901 0.54021 0.0
C6099 C 0.30587 0.59572 0.548 0.0
C6100 C 0.32441 0.57577 0.53768 0.0
C6101 C 0.33957 0.58902 0.5436 0.0
C6102 C 0.33787 0.60574 0.55143 0.0
C6103 C 0.32097 0.60912 0.55353 0.0
C6104 C 0.35717 0.58489 0.54196 0.0
C6105 C 0.36742 0.59299 0.5293 0.0
C6106 C 0.36219 0.57084 0.55046 0.0
C6107 C 0.35118 0.56223 0.56385 0.0
C6108 C 0.34705 0.57238 0.57948 0.0
C6109 C 0.3344 0.56493 0.59041 0.0
C6110 C 0.32587 0.5473 0.58594 0.0
C6111 C 0.33014 0.53702 0.57066 0.0
C6112 C 0.34279 0.54441 0.55967 0.0
C6113 C 0.42814 0.56284 0.51258 0.0
C6114 C 0.4215 0.54687 0.50102 0.0
C6115 C 0.41689 0.57038 0.52353 0.0
C6116 C 0.39911 0.5619 0.52306 0.0
C6117 C 0.39286 0.54535 0.51255 0.0
C6118 C 0.40398 0.53793 0.5014 0.0
C6119 C 0.38621 0.5713 0.53102 0.0
C6120 C 0.37675 0.56411 0.54482 0.0
C6121 C 0.38179 0.58613 0.52338 0.0
C6122 C 0.39061 0.59359 0.50791 0.0
C6123 C 0.39011 0.58314 0.49073 0.0
C6124 C 0.39821 0.59034 0.47617 0.0
C6125 C 0.40652 0.60809 0.47844 0.0
C6126 C 0.40677 0.61867 0.49532 0.0
C6127 C 0.39886 0.61147 0.51001 0.0
H6128 H 0.41274 0.61366 0.46713 0.0
H6129 H 0.31591 0.54162 0.59428 0.0
H6130 H 0.84893 0.89554 0.52609 0.0
H6131 H 0.88036 0.91038 0.52755 0.0
H6132 H 0.86644 0.95954 0.54846 0.0
H6133 H 0.8352 0.94496 0.54628 0.0
H6134 H 0.88272 0.96204 0.51769 0.0
H6135 H 0.89217 0.93547 0.57549 0.0
H6136 H 0.89204 0.90987 0.5927 0.0
H6137 H 0.92679 0.88989 0.55645 0.0
H6138 H 0.92698 0.91526 0.53892 0.0
H6139 H 0.96441 0.02113 0.53028 0.0
H6140 H 0.93608 0.00371 0.53517 0.0
H6141 H 0.95876 0.95682 0.53005 0.0
H6142 H 0.9876 0.97452 0.52873 0.0
H6143 H 0.93793 0.95085 0.55128 0.0
H6144 H 0.92958 0.97297 0.4927 0.0
H6145 H 0.92995 0.9955 0.47134 0.0
H6146 H 0.89331 0.01918 0.50192 0.0
H6147 H 0.89289 0.99693 0.52359 0.0
C6148 C 0.85278 0.9094 0.53145 0.0
C6149 C 0.8398 0.91922 0.53599 0.0
C6150 C 0.87068 0.91786 0.53228 0.0
C6151 C 0.8757 0.93609 0.53805 0.0
C6152 C 0.86283 0.94551 0.54383 0.0
C6153 C 0.84503 0.93719 0.54265 0.0
C6154 C 0.89372 0.94601 0.53623 0.0
C6155 C 0.89483 0.95973 0.52517 0.0
C6156 C 0.90955 0.94232 0.5451 0.0
C6157 C 0.90947 0.9272 0.55582 0.0
C6158 C 0.89969 0.92556 0.57113 0.0
C6159 C 0.89963 0.9111 0.58095 0.0
C6160 C 0.90936 0.89825 0.57565 0.0
C6161 C 0.91924 0.89984 0.56054 0.0
C6162 C 0.91935 0.91427 0.55068 0.0
C6163 C 0.9636 0.00731 0.53073 0.0
C6164 C 0.97857 0.99956 0.52902 0.0
C6165 C 0.94712 0.99712 0.53307 0.0
C6166 C 0.94488 0.97868 0.53229 0.0
C6167 C 0.95986 0.97094 0.53073 0.0
C6168 C 0.97648 0.98124 0.52969 0.0
C6169 C 0.92707 0.96735 0.53297 0.0
C6170 C 0.92595 0.95324 0.54366 0.0
C6171 C 0.91125 0.97015 0.52304 0.0
C6172 C 0.91131 0.98337 0.50984 0.0
C6173 C 0.92165 0.98302 0.49489 0.0
C6174 C 0.92187 0.99574 0.48274 0.0
C6175 C 0.91169 0.00878 0.48529 0.0
C6176 C 0.9012 0.00909 0.49996 0.0
C6177 C 0.90095 0.99642 0.51217 0.0
H6178 H 0.91189 0.01863 0.47588 0.0
H6179 H 0.90928 0.88706 0.58326 0.0
H6180 H 0.86405 0.04541 0.24614 0.0
H6181 H 0.85002 0.07126 0.24682 0.0
H6182 H 0.90009 0.10448 0.27104 0.0
H6183 H 0.91414 0.07873 0.27056 0.0
H6184 H 0.87323 0.11141 0.28956 0.0
H6185 H 0.88421 0.10493 0.22571 0.0
H6186 H 0.88308 0.08925 0.19413 0.0
H6187 H 0.82576 0.07965 0.18836 0.0
H6188 H 0.82655 0.0951 0.22 0.0
H6189 H 0.84734 0.19196 0.28777 0.0
H6190 H 0.86312 0.16873 0.27721 0.0
H6191 H 0.81272 0.13446 0.25608 0.0
H6192 H 0.79695 0.15787 0.26646 0.0
H6193 H 0.84016 0.12855 0.23472 0.0
H6194 H 0.82928 0.1336 0.29901 0.0
H6195 H 0.8303 0.14895 0.33071 0.0
H6196 H 0.88761 0.16066 0.33576 0.0
H6197 H 0.88692 0.1456 0.30395 0.0
C6198 C 0.87207 0.05822 0.2516 0.0
C6199 C 0.8902 0.06001 0.25838 0.0
C6200 C 0.86407 0.07301 0.25184 0.0
C6201 C 0.87405 0.08984 0.2588 0.0
C6202 C 0.89214 0.09163 0.26556 0.0
C6203 C 0.90015 0.07689 0.26529 0.0
C6204 C 0.86547 0.10549 0.25998 0.0
C6205 C 0.86628 0.11532 0.27749 0.0
C6206 C 0.85598 0.11032 0.24433 0.0
C6207 C 0.85545 0.10102 0.2253 0.0
C6208 C 0.87136 0.09934 0.21777 0.0
C6209 C 0.87078 0.09053 0.19984 0.0
C6210 C 0.85436 0.08342 0.18927 0.0
C6211 C 0.83848 0.08515 0.19658 0.0
C6212 C 0.83898 0.09395 0.2145 0.0
C6213 C 0.83973 0.17973 0.28012 0.0
C6214 C 0.82101 0.17666 0.27772 0.0
C6215 C 0.84871 0.16643 0.27424 0.0
C6216 C 0.83906 0.14977 0.26618 0.0
C6217 C 0.82041 0.14722 0.26228 0.0
C6218 C 0.81142 0.16058 0.26811 0.0
C6219 C 0.84813 0.1345 0.26425 0.0
C6220 C 0.84729 0.1247 0.2467 0.0
C6221 C 0.8576 0.1296 0.27988 0.0
C6222 C 0.85804 0.13866 0.29902 0.0
C6223 C 0.8421 0.13958 0.30682 0.0
C6224 C 0.84261 0.14821 0.32482 0.0
C6225 C 0.85901 0.15582 0.33522 0.0
C6226 C 0.87492 0.15479 0.32767 0.0
C6227 C 0.87447 0.14621 0.30965 0.0
H6228 H 0.85938 0.16247 0.34916 0.0
H6229 H 0.85393 0.0766 0.17539 0.0
H6230 H 0.70626 0.12544 0.04306 0.0
H6231 H 0.67669 0.11003 0.04817 0.0
H6232 H 0.68448 0.06326 0.01486 0.0
H6233 H 0.71423 0.07846 0.00994 0.0
H6234 H 0.65614 0.08535 0.00324 0.0
H6235 H 0.68115 0.05635 0.05266 0.0
H6236 H 0.69779 0.05541 0.0831 0.0
H6237 H 0.66258 0.08385 0.11055 0.0
H6238 H 0.64591 0.08524 0.08024 0.0
H6239 H 0.57701 0.02102 0.00041 0.0
H6240 H 0.60822 0.0368 0.00266 0.0
H6241 H 0.59801 0.07532 0.04571 0.0
H6242 H 0.56698 0.05982 0.04328 0.0
H6243 H 0.62739 0.0593 0.05466 0.0
H6244 H 0.60175 0.0883 0.00924 0.0
H6245 H 0.58523 0.09418 0.98071 0.0
H6246 H 0.62144 0.07244 0.94773 0.0
H6247 H 0.63758 0.06547 0.97595 0.0
C6248 C 0.70163 0.11186 0.0369 0.0
C6249 C 0.71203 0.10313 0.02565 0.0
C6250 C 0.68506 0.10304 0.0402 0.0
C6251 C 0.67887 0.08561 0.03208 0.0
C6252 C 0.68948 0.07667 0.02145 0.0
C6253 C 0.70616 0.08538 0.0184 0.0
C6254 C 0.66005 0.07826 0.03089 0.0
C6255 C 0.64977 0.0793 0.01427 0.0
C6256 C 0.6521 0.07161 0.04595 0.0
C6257 C 0.66245 0.07115 0.06412 0.0
C6258 C 0.67713 0.06267 0.06514 0.0
C6259 C 0.68652 0.06198 0.0824 0.0
C6260 C 0.68129 0.06963 0.09874 0.0
C6261 C 0.66665 0.07798 0.09788 0.0
C6262 C 0.65723 0.07872 0.08066 0.0
C6263 C 0.58159 0.03294 0.01015 0.0
C6264 C 0.57012 0.03949 0.02164 0.0
C6265 C 0.59914 0.04188 0.01139 0.0
C6266 C 0.60502 0.05708 0.0243 0.0
C6267 C 0.59344 0.06359 0.03571 0.0
C6268 C 0.57592 0.05484 0.03428 0.0
C6269 C 0.62359 0.06568 0.02663 0.0
C6270 C 0.63376 0.06517 0.04353 0.0
C6271 C 0.63141 0.07333 0.01201 0.0
C6272 C 0.62076 0.0761 0.99479 0.0
C6273 C 0.60591 0.08428 0.99589 0.0
C6274 C 0.59662 0.08787 0.97976 0.0
C6275 C 0.60226 0.0837 0.96243 0.0
C6276 C 0.61701 0.07562 0.96116 0.0
C6277 C 0.62617 0.07173 0.97722 0.0
H6278 H 0.59523 0.08682 0.95001 0.0
H6279 H 0.68855 0.06904 0.11209 0.0
H6280 H 0.22543 0.49919 0.25304 0.0
H6281 H 0.2359 0.47118 0.25189 0.0
H6282 H 0.18135 0.44292 0.24681 0.0
H6283 H 0.17087 0.47048 0.24839 0.0
H6284 H 0.203 0.43674 0.27641 0.0
H6285 H 0.20307 0.43812 0.21035 0.0
H6286 H 0.21103 0.45391 0.18384 0.0
H6287 H 0.26673 0.45957 0.20304 0.0
H6288 H 0.25907 0.4439 0.22977 0.0
H6289 H 0.21847 0.35459 0.27972 0.0
H6290 H 0.20768 0.37623 0.26193 0.0
H6291 H 0.26177 0.40489 0.26394 0.0
H6292 H 0.27263 0.38281 0.28106 0.0
H6293 H 0.24 0.41037 0.233 0.0
H6294 H 0.24054 0.41266 0.29988 0.0
H6295 H 0.23366 0.40244 0.32975 0.0
H6296 H 0.17751 0.39436 0.31148 0.0
H6297 H 0.1841 0.40431 0.2814 0.0
C6298 C 0.21576 0.48696 0.25168 0.0
C6299 C 0.19744 0.48692 0.25122 0.0
C6300 C 0.2217 0.47107 0.25074 0.0
C6301 C 0.20929 0.45518 0.24909 0.0
C6302 C 0.19101 0.45515 0.24801 0.0
C6303 C 0.18512 0.47091 0.24916 0.0
C6304 C 0.21525 0.43872 0.25114 0.0
C6305 C 0.21073 0.43071 0.26671 0.0
C6306 C 0.22582 0.43148 0.23873 0.0
C6307 C 0.23051 0.43981 0.22203 0.0
C6308 C 0.21702 0.44267 0.20887 0.0
C6309 C 0.22147 0.45163 0.19383 0.0
C6310 C 0.23938 0.45773 0.19175 0.0
C6311 C 0.25287 0.45478 0.20464 0.0
C6312 C 0.24848 0.4458 0.2197 0.0
C6313 C 0.22802 0.36516 0.2757 0.0
C6314 C 0.24623 0.36743 0.28191 0.0
C6315 C 0.22192 0.37739 0.26548 0.0
C6316 C 0.23395 0.39225 0.26206 0.0
C6317 C 0.25235 0.39347 0.2665 0.0
C6318 C 0.2585 0.38101 0.27639 0.0
C6319 C 0.22723 0.40806 0.25808 0.0
C6320 C 0.23185 0.41613 0.2424 0.0
C6321 C 0.21678 0.41563 0.27053 0.0
C6322 C 0.21282 0.40891 0.28828 0.0
C6323 C 0.22674 0.40844 0.30213 0.0
C6324 C 0.22289 0.40277 0.31913 0.0
C6325 C 0.20516 0.39767 0.32248 0.0
C6326 C 0.19124 0.39823 0.30884 0.0
C6327 C 0.19502 0.40387 0.29181 0.0
H6328 H 0.20221 0.39335 0.33567 0.0
H6329 H 0.2428 0.46476 0.18016 0.0
H6330 H 0.2173 0.38144 0.03417 0.0
H6331 H 0.1922 0.39687 0.03195 0.0
H6332 H 0.22882 0.44549 0.02925 0.0
H6333 H 0.25385 0.43033 0.03217 0.0
H6334 H 0.20605 0.45185 0.05139 0.0
H6335 H 0.20176 0.42077 0.99012 0.0
H6336 H 0.19949 0.39497 0.96646 0.0
H6337 H 0.1498 0.3712 0.98396 0.0
H6338 H 0.15189 0.39677 0.0079 0.0
H6339 H 0.14784 0.50067 0.00731 0.0
H6340 H 0.17073 0.48514 0.01893 0.0
H6341 H 0.12963 0.44134 0.02619 0.0
H6342 H 0.10671 0.45695 0.0144 0.0
H6343 H 0.15319 0.43129 0.00416 0.0
H6344 H 0.15783 0.46634 0.0641 0.0
H6345 H 0.16188 0.4936 0.08613 0.0
H6346 H 0.2129 0.51209 0.06811 0.0
H6347 H 0.2091 0.48503 0.04587 0.0
C6348 C 0.21994 0.39541 0.0331 0.0
C6349 C 0.23751 0.40468 0.03338 0.0
C6350 C 0.2056 0.40421 0.03174 0.0
C6351 C 0.20858 0.42234 0.03026 0.0
C6352 C 0.22616 0.43154 0.03048 0.0
C6353 C 0.24046 0.42284 0.03211 0.0
C6354 C 0.19353 0.4319 0.02873 0.0
C6355 C 0.19455 0.44742 0.04095 0.0
C6356 C 0.17837 0.426 0.01533 0.0
C6357 C 0.17709 0.41059 0.00096 0.0
C6358 C 0.19042 0.40997 0.98903 0.0
C6359 C 0.18916 0.3954 0.97555 0.0
C6360 C 0.17454 0.38143 0.97375 0.0
C6361 C 0.16113 0.38202 0.9854 0.0
C6362 C 0.16234 0.39655 -0.00108 0.0
C6363 C 0.14374 0.48804 0.01213 0.0
C6364 C 0.12561 0.48002 0.0102 0.0
C6365 C 0.15679 0.47914 0.01873 0.0
C6366 C 0.15192 0.46205 0.02347 0.0
C6367 C 0.1337 0.45452 0.02267 0.0
C6368 C 0.12062 0.46348 0.01613 0.0
C6369 C 0.16576 0.4513 0.02677 0.0
C6370 C 0.16455 0.43558 0.01478 0.0
C6371 C 0.18098 0.45728 0.04006 0.0
C6372 C 0.18311 0.47369 0.05323 0.0
C6373 C 0.16984 0.47629 0.06471 0.0
C6374 C 0.17211 0.49169 0.07727 0.0
C6375 C 0.18761 0.50458 0.07848 0.0
C6376 C 0.20089 0.5021 0.06716 0.0
C6377 C 0.1987 0.48672 0.0546 0.0
H6378 H 0.18935 0.51649 0.08823 0.0
H6379 H 0.17358 0.37016 0.9633 0.0
H6380 H 0.89992 0.951 0.28201 0.0
H6381 H 0.87946 0.92317 0.28326 0.0
H6382 H 0.8541 0.92575 0.22833 0.0
H6383 H 0.87407 0.95419 0.2276 0.0
H6384 H 0.82966 0.91319 0.24822 0.0
H6385 H 0.88613 0.89871 0.23668 0.0
H6386 H 0.9187 0.90069 0.24226 0.0
H6387 H 0.91343 0.88453 0.29633 0.0
H6388 H 0.88083 0.88261 0.29112 0.0
H6389 H 0.80146 0.81544 0.2322 0.0
H6390 H 0.81872 0.84496 0.22979 0.0
H6391 H 0.81966 0.85928 0.28887 0.0
H6392 H 0.80153 0.83031 0.2911 0.0
H6393 H 0.85577 0.86252 0.26527 0.0
H6394 H 0.79864 0.87887 0.27633 0.0
H6395 H 0.76611 0.8758 0.26908 0.0
H6396 H 0.77302 0.88783 0.21375 0.0
H6397 H 0.80563 0.89041 0.22052 0.0
C6398 C 0.88981 0.94567 0.27033 0.0
C6399 C 0.88847 0.95462 0.25473 0.0
C6400 C 0.87823 0.92969 0.27095 0.0
C6401 C 0.86547 0.92204 0.25569 0.0
C6402 C 0.86385 0.93129 0.24025 0.0
C6403 C 0.87523 0.9475 0.23981 0.0
C6404 C 0.85409 0.90432 0.2558 0.0
C6405 C 0.83545 0.90211 0.25176 0.0
C6406 C 0.8615 0.88973 0.26049 0.0
C6407 C 0.88106 0.89065 0.26356 0.0
C6408 C 0.89193 0.89566 0.24979 0.0
C6409 C 0.91039 0.89676 0.25288 0.0
C6410 C 0.91813 0.89278 0.26966 0.0
C6411 C 0.90742 0.88762 0.28334 0.0
C6412 C 0.88894 0.88649 0.28032 0.0
C6413 C 0.8052 0.82503 0.24456 0.0
C6414 C 0.80017 0.82076 0.26179 0.0
C6415 C 0.81501 0.8418 0.2432 0.0
C6416 C 0.82032 0.85427 0.25915 0.0
C6417 C 0.81547 0.8499 0.27639 0.0
C6418 C 0.8051 0.83343 0.27763 0.0
C6419 C 0.83154 0.87165 0.258 0.0
C6420 C 0.85011 0.87368 0.26172 0.0
C6421 C 0.8241 0.88598 0.25288 0.0
C6422 C 0.80454 0.88447 0.24881 0.0
C6423 C 0.79322 0.88053 0.26251 0.0
C6424 C 0.77476 0.87896 0.25852 0.0
C6425 C 0.76749 0.88156 0.24094 0.0
C6426 C 0.77867 0.88575 0.22733 0.0
C6427 C 0.79713 0.88724 0.23123 0.0
H6428 H 0.7532 0.88036 0.23788 0.0
H6429 H 0.93243 0.89366 0.27204 0.0
H6430 H 0.67075 0.10543 0.73681 0.0
H6431 H 0.68852 0.13503 0.74444 0.0
H6432 H 0.7347 0.11392 0.76207 0.0
H6433 H 0.71703 0.0841 0.75467 0.0
H6434 H 0.727 0.14148 0.78763 0.0
H6435 H 0.73593 0.12887 0.72394 0.0
H6436 H 0.72572 0.11661 0.69118 0.0
H6437 H 0.69178 0.15446 0.68695 0.0
H6438 H 0.70158 0.16679 0.7198 0.0
H6439 H 0.78351 0.22486 0.78069 0.0
H6440 H 0.76917 0.19457 0.78312 0.0
H6441 H 0.71796 0.20604 0.7641 0.0
H6442 H 0.73233 0.23621 0.7615 0.0
H6443 H 0.73218 0.18222 0.73967 0.0
H6444 H 0.72026 0.19198 0.80388 0.0
H6445 H 0.72971 0.2042 0.83678 0.0
H6446 H 0.77002 0.17261 0.83937 0.0
H6447 H 0.76068 0.16007 0.80646 0.0
C6448 C 0.68471 0.10704 0.74213 0.0
C6449 C 0.69254 0.09256 0.74521 0.0
C6450 C 0.69477 0.12388 0.7465 0.0
C6451 C 0.71275 0.12632 0.75372 0.0
C6452 C 0.72076 0.112 0.75654 0.0
C6453 C 0.71068 0.0951 0.75221 0.0
C6454 C 0.72296 0.14409 0.75835 0.0
C6455 C 0.72853 0.1504 0.77718 0.0
C6456 C 0.72461 0.1554 0.74453 0.0
C6457 C 0.71947 0.14874 0.72439 0.0
C6458 C 0.72629 0.13459 0.71604 0.0
C6459 C 0.72055 0.1276 0.69745 0.0
C6460 C 0.7081 0.13474 0.687 0.0
C6461 C 0.70145 0.14896 0.69507 0.0
C6462 C 0.70713 0.15599 0.71366 0.0
C6463 C 0.76909 0.221 0.77796 0.0
C6464 C 0.75879 0.23239 0.77103 0.0
C6465 C 0.76097 0.20389 0.77939 0.0
C6466 C 0.74267 0.19838 0.77367 0.0
C6467 C 0.73212 0.21037 0.76863 0.0
C6468 C 0.74025 0.22747 0.76725 0.0
C6469 C 0.73548 0.17974 0.76903 0.0
C6470 C 0.73079 0.17328 0.75011 0.0
C6471 C 0.73475 0.16834 0.78272 0.0
C6472 C 0.73978 0.1751 0.80274 0.0
C6473 C 0.73111 0.18761 0.81149 0.0
C6474 C 0.73646 0.19461 0.83013 0.0
C6475 C 0.75052 0.18925 0.84015 0.0
C6476 C 0.75912 0.17673 0.83159 0.0
C6477 C 0.75374 0.1696 0.81298 0.0
H6478 H 0.75471 0.19476 0.85455 0.0
H6479 H 0.70361 0.12925 0.67264 0.0
loop_
_geom_bond_atom_site_label_1
_geom_bond_atom_site_label_2
_geom_bond_distance
_geom_bond_site_symmetry_2
_ccdc_geom_bond_type
C0 O1 1.306 . S
C0 O3 1.160 . S
O1 C0 1.306 . S
O1 Cd2 2.228 . S
Cd2 O1 2.228 . S
Cd2 O6 2.273 . S
Cd2 O10 2.277 . S
O3 C0 1.160 . S
O3 Cd4 2.203 . S
Cd4 O3 2.203 . S
Cd4 O6 2.411 . S
Cd4 O7 2.333 . S
Cd4 O8 2.352 . S
Cd4 O12 2.277 . S
Cd4 O13 2.356 . S
C5 O10 1.209 . S
C5 O12 1.226 . S
O6 Cd2 2.273 . S
O6 Cd4 2.411 . S
O6 C9 1.320 . S
O7 Cd4 2.333 . S
O7 C9 1.214 . S
O8 Cd4 2.352 . S
O8 C11 1.258 . S
C9 O6 1.320 . S
C9 O7 1.214 . S
O10 Cd2 2.277 . S
O10 C5 1.209 . S
C11 O8 1.258 . S
C11 O13 1.282 . S
O12 Cd4 2.277 . S
O12 C5 1.226 . S
O13 Cd4 2.356 . S
O13 C11 1.282 . S
C14 O15 1.306 . S
C14 O17 1.160 . S
O15 C14 1.306 . S
O15 Cd16 2.228 1_655 S
Cd16 O15 2.228 1_455 S
Cd16 O20 2.273 . S
Cd16 O24 2.277 . S
O17 C14 1.160 . S
O17 Cd18 2.203 1_655 S
Cd18 O17 2.203 1_455 S
Cd18 O20 2.411 . S
Cd18 O21 2.333 . S
Cd18 O22 2.352 . S
Cd18 O26 2.277 . S
Cd18 O27 2.356 . S
C19 O24 1.209 . S
C19 O26 1.226 . S
O20 Cd16 2.273 . S
O20 Cd18 2.411 . S
O20 C23 1.320 . S
O21 Cd18 2.333 . S
O21 C23 1.214 . S
O22 Cd18 2.352 . S
O22 C25 1.258 . S
C23 O20 1.320 . S
C23 O21 1.214 . S
O24 Cd16 2.277 . S
O24 C19 1.209 . S
C25 O22 1.258 . S
C25 O27 1.282 . S
O26 Cd18 2.277 . S
O26 C19 1.226 . S
O27 Cd18 2.356 . S
O27 C25 1.282 . S
C28 O29 1.306 . S
C28 O31 1.160 . S
O29 C28 1.306 . S
O29 Cd30 2.228 . S
Cd30 O29 2.228 . S
Cd30 O34 2.273 . S
Cd30 O38 2.277 . S
O31 C28 1.160 . S
O31 Cd32 2.203 . S
Cd32 O31 2.203 . S
Cd32 O34 2.411 . S
Cd32 O35 2.333 . S
Cd32 O36 2.352 . S
Cd32 O40 2.277 . S
Cd32 O41 2.356 . S
C33 O38 1.209 . S
C33 O40 1.226 . S
O34 Cd30 2.273 . S
O34 Cd32 2.411 . S
O34 C37 1.320 . S
O35 Cd32 2.333 . S
O35 C37 1.214 . S
O36 Cd32 2.352 . S
O36 C39 1.258 . S
C37 O34 1.320 . S
C37 O35 1.214 . S
O38 Cd30 2.277 . S
O38 C33 1.209 . S
C39 O36 1.258 . S
C39 O41 1.282 . S
O40 Cd32 2.277 . S
O40 C33 1.226 . S
O41 Cd32 2.356 . S
O41 C39 1.282 . S
C42 O43 1.306 . S
C42 O45 1.160 . S
O43 C42 1.306 . S
O43 Cd44 2.228 . S
Cd44 O43 2.228 . S
Cd44 O48 2.273 . S
Cd44 O52 2.277 . S
O45 C42 1.160 . S
O45 Cd46 2.203 . S
Cd46 O45 2.203 . S
Cd46 O48 2.411 . S
Cd46 O49 2.333 . S
Cd46 O50 2.352 . S
Cd46 O54 2.277 . S
Cd46 O55 2.356 . S
C47 O52 1.209 . S
C47 O54 1.226 . S
O48 Cd44 2.273 . S
O48 Cd46 2.411 . S
O48 C51 1.320 . S
O49 Cd46 2.333 . S
O49 C51 1.214 . S
O50 Cd46 2.352 . S
O50 C53 1.258 . S
C51 O48 1.320 . S
C51 O49 1.214 . S
O52 Cd44 2.277 . S
O52 C47 1.209 . S
C53 O50 1.258 . S
C53 O55 1.282 . S
O54 Cd46 2.277 . S
O54 C47 1.226 . S
O55 Cd46 2.356 . S
O55 C53 1.282 . S
C56 O57 1.306 . S
C56 O59 1.160 . S
O57 C56 1.306 . S
O57 Cd58 2.228 . S
Cd58 O57 2.228 . S
Cd58 O62 2.273 . S
Cd58 O66 2.277 . S
O59 C56 1.160 . S
O59 Cd60 2.203 . S
Cd60 O59 2.203 . S
Cd60 O62 2.411 . S
Cd60 O63 2.333 . S
Cd60 O64 2.352 . S
Cd60 O68 2.277 . S
Cd60 O69 2.356 . S
C61 O66 1.209 . S
C61 O68 1.226 . S
O62 Cd58 2.273 . S
O62 Cd60 2.411 . S
O62 C65 1.320 . S
O63 Cd60 2.333 . S
O63 C65 1.214 . S
O64 Cd60 2.352 . S
O64 C67 1.258 . S
C65 O62 1.320 . S
C65 O63 1.214 . S
O66 Cd58 2.277 . S
O66 C61 1.209 . S
C67 O64 1.258 . S
C67 O69 1.282 . S
O68 Cd60 2.277 . S
O68 C61 1.226 . S
O69 Cd60 2.356 . S
O69 C67 1.282 . S
C70 O71 1.306 . S
C70 O73 1.160 . S
O71 C70 1.306 . S
O71 Cd72 2.228 . S
Cd72 O71 2.228 . S
Cd72 O76 2.273 . S
Cd72 O80 2.277 . S
O73 C70 1.160 . S
O73 Cd74 2.203 . S
Cd74 O73 2.203 . S
Cd74 O76 2.411 . S
Cd74 O77 2.333 . S
Cd74 O78 2.352 . S
Cd74 O82 2.277 . S
Cd74 O83 2.356 . S
C75 O80 1.209 . S
C75 O82 1.226 . S
O76 Cd72 2.273 . S
O76 Cd74 2.411 . S
O76 C79 1.320 . S
O77 Cd74 2.333 . S
O77 C79 1.214 . S
O78 Cd74 2.352 . S
O78 C81 1.258 . S
C79 O76 1.320 . S
C79 O77 1.214 . S
O80 Cd72 2.277 . S
O80 C75 1.209 . S
C81 O78 1.258 . S
C81 O83 1.282 . S
O82 Cd74 2.277 . S
O82 C75 1.226 . S
O83 Cd74 2.356 . S
O83 C81 1.282 . S
C84 O85 1.306 . S
C84 O87 1.160 . S
O85 C84 1.306 . S
O85 Cd86 2.228 . S
Cd86 O85 2.228 . S
Cd86 O90 2.273 . S
Cd86 O94 2.277 . S
O87 C84 1.160 . S
O87 Cd88 2.203 . S
Cd88 O87 2.203 . S
Cd88 O90 2.411 . S
Cd88 O91 2.333 . S
Cd88 O92 2.352 . S
Cd88 O96 2.277 . S
Cd88 O97 2.356 . S
C89 O94 1.209 . S
C89 O96 1.226 . S
O90 Cd86 2.273 . S
O90 Cd88 2.411 . S
O90 C93 1.320 . S
O91 Cd88 2.333 . S
O91 C93 1.214 . S
O92 Cd88 2.352 . S
O92 C95 1.258 . S
C93 O90 1.320 . S
C93 O91 1.214 . S
O94 Cd86 2.277 . S
O94 C89 1.209 . S
C95 O92 1.258 . S
C95 O97 1.282 . S
O96 Cd88 2.277 . S
O96 C89 1.226 . S
O97 Cd88 2.356 . S
O97 C95 1.282 . S
C98 O99 1.306 . S
C98 O101 1.160 . S
O99 C98 1.306 . S
O99 Cd100 2.228 1_655 S
Cd100 O99 2.228 1_455 S
Cd100 O104 2.273 . S
Cd100 O108 2.277 . S
O101 C98 1.160 . S
O101 Cd102 2.203 1_655 S
Cd102 O101 2.203 1_455 S
Cd102 O104 2.411 . S
Cd102 O105 2.333 . S
Cd102 O106 2.352 1_455 S
Cd102 O110 2.277 . S
Cd102 O111 2.356 . S
C103 O108 1.209 . S
C103 O110 1.226 . S
O104 Cd100 2.273 . S
O104 Cd102 2.411 . S
O104 C107 1.320 . S
O105 Cd102 2.333 . S
O105 C107 1.214 . S
O106 Cd102 2.352 1_655 S
O106 C109 1.263 . S
C107 O104 1.320 . S
C107 O105 1.214 . S
O108 Cd100 2.277 . S
O108 C103 1.209 . S
C109 O106 1.263 . S
C109 O111 1.280 1_655 S
O110 Cd102 2.277 . S
O110 C103 1.226 . S
O111 Cd102 2.356 . S
O111 C109 1.280 1_455 S
C112 O113 1.306 . S
C112 O115 1.160 . S
O113 C112 1.306 . S
O113 Cd114 2.228 1_545 S
Cd114 O113 2.228 1_565 S
Cd114 O118 2.273 1_565 S
Cd114 O122 2.277 . S
O115 C112 1.160 . S
O115 Cd116 2.203 . S
Cd116 O115 2.203 . S
Cd116 O118 2.411 . S
Cd116 O119 2.333 . S
Cd116 O120 2.352 . S
Cd116 O124 2.277 1_545 S
Cd116 O125 2.356 . S
C117 O122 1.209 . S
C117 O124 1.226 . S
O118 Cd114 2.273 1_545 S
O118 Cd116 2.411 . S
O118 C121 1.320 . S
O119 Cd116 2.333 . S
O119 C121 1.214 . S
O120 Cd116 2.352 . S
O120 C123 1.258 . S
C121 O118 1.320 . S
C121 O119 1.214 . S
O122 Cd114 2.277 . S
O122 C117 1.209 . S
C123 O120 1.258 . S
C123 O125 1.282 . S
O124 Cd116 2.277 1_565 S
O124 C117 1.226 . S
O125 Cd116 2.356 . S
O125 C123 1.282 . S
C126 O127 1.306 . S
C126 O129 1.160 . S
O127 C126 1.306 . S
O127 Cd128 2.228 . S
Cd128 O127 2.228 . S
Cd128 O132 2.273 . S
Cd128 O136 2.277 . S
O129 C126 1.160 . S
O129 Cd130 2.203 . S
Cd130 O129 2.203 . S
Cd130 O132 2.411 . S
Cd130 O133 2.333 . S
Cd130 O134 2.352 . S
Cd130 O138 2.277 . S
Cd130 O139 2.356 . S
C131 O136 1.209 . S
C131 O138 1.226 . S
O132 Cd128 2.273 . S
O132 Cd130 2.411 . S
O132 C135 1.320 . S
O133 Cd130 2.333 . S
O133 C135 1.214 . S
O134 Cd130 2.352 . S
O134 C137 1.258 . S
C135 O132 1.320 . S
C135 O133 1.214 . S
O136 Cd128 2.277 . S
O136 C131 1.209 . S
C137 O134 1.258 . S
C137 O139 1.282 . S
O138 Cd130 2.277 . S
O138 C131 1.226 . S
O139 Cd130 2.356 . S
O139 C137 1.282 . S
C140 O141 1.306 . S
C140 O143 1.160 . S
O141 C140 1.306 . S
O141 Cd142 2.228 . S
Cd142 O141 2.228 . S
Cd142 O146 2.273 . S
Cd142 O150 2.277 . S
O143 C140 1.160 . S
O143 Cd144 2.203 . S
Cd144 O143 2.203 . S
Cd144 O146 2.411 . S
Cd144 O147 2.333 . S
Cd144 O148 2.302 1_545 S
Cd144 O152 2.277 . S
Cd144 O153 2.356 . S
C145 O150 1.209 . S
C145 O152 1.226 . S
O146 Cd142 2.273 . S
O146 Cd144 2.411 . S
O146 C149 1.320 . S
O147 Cd144 2.333 . S
O147 C149 1.214 . S
O148 Cd144 2.302 1_565 S
O148 C151 1.258 . S
C149 O146 1.320 . S
C149 O147 1.214 . S
O150 Cd142 2.277 . S
O150 C145 1.209 . S
C151 O148 1.258 . S
C151 O153 1.247 1_565 S
O152 Cd144 2.277 . S
O152 C145 1.226 . S
O153 Cd144 2.356 . S
O153 C151 1.247 1_545 S
C154 O155 1.299 1_554 S
C154 O157 1.166 . S
O155 C154 1.299 1_556 S
O155 Cd156 2.228 . S
Cd156 O155 2.228 . S
Cd156 O160 2.283 . S
Cd156 O164 2.277 . S
O157 C154 1.166 . S
O157 Cd158 2.203 . S
Cd158 O157 2.203 . S
Cd158 O160 2.409 1_554 S
Cd158 O161 2.331 . S
Cd158 O162 2.352 . S
Cd158 O166 2.277 1_554 S
Cd158 O167 2.356 . S
C159 O164 1.209 . S
C159 O166 1.226 . S
O160 Cd156 2.283 . S
O160 Cd158 2.409 1_556 S
O160 C163 1.321 . S
O161 Cd158 2.331 . S
O161 C163 1.202 1_554 S
O162 Cd158 2.352 . S
O162 C165 1.258 . S
C163 O160 1.321 . S
C163 O161 1.202 1_556 S
O164 Cd156 2.277 . S
O164 C159 1.209 . S
C165 O162 1.258 . S
C165 O167 1.282 . S
O166 Cd158 2.277 1_556 S
O166 C159 1.226 . S
O167 Cd158 2.356 . S
O167 C165 1.282 . S
C168 O169 1.306 . S
C168 O171 1.160 . S
O169 C168 1.306 . S
O169 Cd170 2.228 . S
Cd170 O169 2.228 . S
Cd170 O174 2.273 . S
Cd170 O178 2.277 . S
O171 C168 1.160 . S
O171 Cd172 2.203 . S
Cd172 O171 2.203 . S
Cd172 O174 2.411 . S
Cd172 O175 2.333 . S
Cd172 O176 2.352 . S
Cd172 O180 2.277 . S
Cd172 O181 2.356 . S
C173 O178 1.208 1_556 S
C173 O180 1.187 1_556 S
O174 Cd170 2.273 . S
O174 Cd172 2.411 . S
O174 C177 1.320 . S
O175 Cd172 2.333 . S
O175 C177 1.214 . S
O176 Cd172 2.352 . S
O176 C179 1.258 . S
C177 O174 1.320 . S
C177 O175 1.214 . S
O178 Cd170 2.277 . S
O178 C173 1.208 1_554 S
C179 O176 1.258 . S
C179 O181 1.282 . S
O180 Cd172 2.277 . S
O180 C173 1.187 1_554 S
O181 Cd172 2.356 . S
O181 C179 1.282 . S
C182 O183 1.306 . S
C182 O185 1.160 . S
O183 C182 1.306 . S
O183 Cd184 2.228 . S
Cd184 O183 2.228 . S
Cd184 O188 2.273 . S
Cd184 O192 2.277 . S
O185 C182 1.160 . S
O185 Cd186 2.203 . S
Cd186 O185 2.203 . S
Cd186 O188 2.411 . S
Cd186 O189 2.333 . S
Cd186 O190 2.352 . S
Cd186 O194 2.277 . S
Cd186 O195 2.356 . S
C187 O192 1.209 . S
C187 O194 1.226 . S
O188 Cd184 2.273 . S
O188 Cd186 2.411 . S
O188 C191 1.320 . S
O189 Cd186 2.333 . S
O189 C191 1.214 . S
O190 Cd186 2.352 . S
O190 C193 1.258 . S
C191 O188 1.320 . S
C191 O189 1.214 . S
O192 Cd184 2.277 . S
O192 C187 1.209 . S
C193 O190 1.258 . S
C193 O195 1.282 . S
O194 Cd186 2.277 . S
O194 C187 1.226 . S
O195 Cd186 2.356 . S
O195 C193 1.282 . S
C196 O197 1.306 . S
C196 O199 1.160 . S
O197 C196 1.306 . S
O197 Cd198 2.228 . S
Cd198 O197 2.228 . S
Cd198 O202 2.273 . S
Cd198 O206 2.277 . S
O199 C196 1.160 . S
O199 Cd200 2.203 . S
Cd200 O199 2.203 . S
Cd200 O202 2.411 . S
Cd200 O203 2.333 . S
Cd200 O204 2.352 . S
Cd200 O208 2.277 . S
Cd200 O209 2.356 . S
C201 O206 1.209 . S
C201 O208 1.226 . S
O202 Cd198 2.273 . S
O202 Cd200 2.411 . S
O202 C205 1.320 . S
O203 Cd200 2.333 . S
O203 C205 1.214 . S
O204 Cd200 2.352 . S
O204 C207 1.258 . S
C205 O202 1.320 . S
C205 O203 1.214 . S
O206 Cd198 2.277 . S
O206 C201 1.209 . S
C207 O204 1.258 . S
C207 O209 1.282 . S
O208 Cd200 2.277 . S
O208 C201 1.226 . S
O209 Cd200 2.356 . S
O209 C207 1.282 . S
C210 O211 1.306 . S
C210 O213 1.160 . S
O211 C210 1.306 . S
O211 Cd212 2.228 . S
Cd212 O211 2.228 . S
Cd212 O216 2.273 . S
Cd212 O220 2.277 . S
O213 C210 1.160 . S
O213 Cd214 2.203 . S
Cd214 O213 2.203 . S
Cd214 O216 2.411 . S
Cd214 O217 2.333 . S
Cd214 O218 2.352 . S
Cd214 O222 2.277 . S
Cd214 O223 2.356 . S
C215 O220 1.209 . S
C215 O222 1.226 . S
O216 Cd212 2.273 . S
O216 Cd214 2.411 . S
O216 C219 1.320 . S
O217 Cd214 2.333 . S
O217 C219 1.214 . S
O218 Cd214 2.352 . S
O218 C221 1.258 . S
C219 O216 1.320 . S
C219 O217 1.214 . S
O220 Cd212 2.277 . S
O220 C215 1.209 . S
C221 O218 1.258 . S
C221 O223 1.282 . S
O222 Cd214 2.277 . S
O222 C215 1.226 . S
O223 Cd214 2.356 . S
O223 C221 1.282 . S
C224 O225 1.306 . S
C224 O227 1.160 . S
O225 C224 1.306 . S
O225 Cd226 2.228 1_545 S
Cd226 O225 2.228 1_565 S
Cd226 O230 2.273 1_565 S
Cd226 O234 2.277 . S
O227 C224 1.160 . S
O227 Cd228 2.203 . S
Cd228 O227 2.203 . S
Cd228 O230 2.411 . S
Cd228 O231 2.333 . S
Cd228 O232 2.352 . S
Cd228 O236 2.277 1_545 S
Cd228 O237 2.356 . S
C229 O234 1.209 . S
C229 O236 1.226 . S
O230 Cd226 2.273 1_545 S
O230 Cd228 2.411 . S
O230 C233 1.320 . S
O231 Cd228 2.333 . S
O231 C233 1.214 . S
O232 Cd228 2.352 . S
O232 C235 1.258 . S
C233 O230 1.320 . S
C233 O231 1.214 . S
O234 Cd226 2.277 . S
O234 C229 1.209 . S
C235 O232 1.258 . S
C235 O237 1.282 . S
O236 Cd228 2.277 1_565 S
O236 C229 1.226 . S
O237 Cd228 2.356 . S
O237 C235 1.282 . S
C238 O239 1.306 . S
C238 O241 1.160 . S
O239 C238 1.306 . S
O239 Cd240 2.228 . S
Cd240 O239 2.228 . S
Cd240 O244 2.273 . S
Cd240 O248 2.277 . S
O241 C238 1.160 . S
O241 Cd242 2.203 . S
Cd242 O241 2.203 . S
Cd242 O244 2.411 . S
Cd242 O245 2.333 . S
Cd242 O246 2.352 . S
Cd242 O250 2.277 . S
Cd242 O251 2.356 . S
C243 O248 1.209 . S
C243 O250 1.226 . S
O244 Cd240 2.273 . S
O244 Cd242 2.411 . S
O244 C247 1.320 . S
O245 Cd242 2.333 . S
O245 C247 1.214 . S
O246 Cd242 2.352 . S
O246 C249 1.258 . S
C247 O244 1.320 . S
C247 O245 1.214 . S
O248 Cd240 2.277 . S
O248 C243 1.209 . S
C249 O246 1.258 . S
C249 O251 1.282 . S
O250 Cd242 2.277 . S
O250 C243 1.226 . S
O251 Cd242 2.356 . S
O251 C249 1.282 . S
C252 O253 1.306 . S
C252 O255 1.160 . S
O253 C252 1.306 . S
O253 Cd254 2.228 . S
Cd254 O253 2.228 . S
Cd254 O258 2.273 . S
Cd254 O262 2.277 . S
O255 C252 1.160 . S
O255 Cd256 2.203 . S
Cd256 O255 2.203 . S
Cd256 O258 2.411 . S
Cd256 O259 2.333 . S
Cd256 O260 2.352 . S
Cd256 O264 2.277 . S
Cd256 O265 2.356 . S
C257 O262 1.209 . S
C257 O264 1.226 . S
O258 Cd254 2.273 . S
O258 Cd256 2.411 . S
O258 C261 1.320 . S
O259 Cd256 2.333 . S
O259 C261 1.214 . S
O260 Cd256 2.352 . S
O260 C263 1.258 . S
C261 O258 1.320 . S
C261 O259 1.214 . S
O262 Cd254 2.277 . S
O262 C257 1.209 . S
C263 O260 1.258 . S
C263 O265 1.282 . S
O264 Cd256 2.277 . S
O264 C257 1.226 . S
O265 Cd256 2.356 . S
O265 C263 1.282 . S
C266 O267 1.306 . S
C266 O269 1.160 . S
O267 C266 1.306 . S
O267 Cd268 2.228 . S
Cd268 O267 2.228 . S
Cd268 O272 2.273 . S
Cd268 O276 2.277 . S
O269 C266 1.160 . S
O269 Cd270 2.203 . S
Cd270 O269 2.203 . S
Cd270 O272 2.411 . S
Cd270 O273 2.333 . S
Cd270 O274 2.352 . S
Cd270 O278 2.277 . S
Cd270 O279 2.356 . S
C271 O276 1.209 . S
C271 O278 1.226 . S
O272 Cd268 2.273 . S
O272 Cd270 2.411 . S
O272 C275 1.320 . S
O273 Cd270 2.333 . S
O273 C275 1.214 . S
O274 Cd270 2.352 . S
O274 C277 1.258 . S
C275 O272 1.320 . S
C275 O273 1.214 . S
O276 Cd268 2.277 . S
O276 C271 1.209 . S
C277 O274 1.258 . S
C277 O279 1.282 . S
O278 Cd270 2.277 . S
O278 C271 1.226 . S
O279 Cd270 2.356 . S
O279 C277 1.282 . S
C280 O281 1.306 . S
C280 O283 1.160 . S
O281 C280 1.306 . S
O281 Cd282 2.228 . S
Cd282 O281 2.228 . S
Cd282 O286 2.273 . S
Cd282 O290 2.277 . S
O283 C280 1.160 . S
O283 Cd284 2.203 . S
Cd284 O283 2.203 . S
Cd284 O286 2.411 . S
Cd284 O287 2.333 . S
Cd284 O288 2.352 1_554 S
Cd284 O292 2.277 . S
Cd284 O293 2.356 1_554 S
C285 O290 1.209 . S
C285 O292 1.226 . S
O286 Cd282 2.273 . S
O286 Cd284 2.411 . S
O286 C289 1.320 . S
O287 Cd284 2.333 . S
O287 C289 1.214 . S
O288 Cd284 2.352 1_556 S
O288 C291 1.258 . S
C289 O286 1.320 . S
C289 O287 1.214 . S
O290 Cd282 2.277 . S
O290 C285 1.209 . S
C291 O288 1.258 . S
C291 O293 1.282 . S
O292 Cd284 2.277 . S
O292 C285 1.226 . S
O293 Cd284 2.356 1_556 S
O293 C291 1.282 . S
C294 O295 1.306 . S
C294 O297 1.160 . S
O295 C294 1.306 . S
O295 Cd296 2.228 . S
Cd296 O295 2.228 . S
Cd296 O300 2.273 . S
Cd296 O304 2.277 . S
O297 C294 1.160 . S
O297 Cd298 2.203 . S
Cd298 O297 2.203 . S
Cd298 O300 2.411 . S
Cd298 O301 2.333 . S
Cd298 O302 2.352 . S
Cd298 O306 2.277 . S
Cd298 O307 2.356 . S
C299 O304 1.209 . S
C299 O306 1.226 . S
O300 Cd296 2.273 . S
O300 Cd298 2.411 . S
O300 C303 1.320 . S
O301 Cd298 2.333 . S
O301 C303 1.214 . S
O302 Cd298 2.352 . S
O302 C305 1.258 . S
C303 O300 1.320 . S
C303 O301 1.214 . S
O304 Cd296 2.277 . S
O304 C299 1.209 . S
C305 O302 1.258 . S
C305 O307 1.282 . S
O306 Cd298 2.277 . S
O306 C299 1.226 . S
O307 Cd298 2.356 . S
O307 C305 1.282 . S
C308 O309 1.306 . S
C308 O311 1.160 . S
O309 C308 1.306 . S
O309 Cd310 2.228 . S
Cd310 O309 2.228 . S
Cd310 O314 2.273 . S
Cd310 O318 2.277 . S
O311 C308 1.160 . S
O311 Cd312 2.203 . S
Cd312 O311 2.203 . S
Cd312 O314 2.411 . S
Cd312 O315 2.333 . S
Cd312 O316 2.352 . S
Cd312 O320 2.277 . S
Cd312 O321 2.356 . S
C313 O318 1.209 . S
C313 O320 1.226 . S
O314 Cd310 2.273 . S
O314 Cd312 2.411 . S
O314 C317 1.320 . S
O315 Cd312 2.333 . S
O315 C317 1.214 . S
O316 Cd312 2.352 . S
O316 C319 1.258 . S
C317 O314 1.320 . S
C317 O315 1.214 . S
O318 Cd310 2.277 . S
O318 C313 1.209 . S
C319 O316 1.258 . S
C319 O321 1.282 . S
O320 Cd312 2.277 . S
O320 C313 1.226 . S
O321 Cd312 2.356 . S
O321 C319 1.282 . S
C322 O323 1.306 . S
C322 O325 1.160 . S
O323 C322 1.306 . S
O323 Cd324 2.228 . S
Cd324 O323 2.228 . S
Cd324 O328 2.273 . S
Cd324 O332 2.277 . S
O325 C322 1.160 . S
O325 Cd326 2.203 . S
Cd326 O325 2.203 . S
Cd326 O328 2.411 . S
Cd326 O329 2.333 . S
Cd326 O330 2.352 . S
Cd326 O334 2.277 . S
Cd326 O335 2.356 . S
C327 O332 1.209 . S
C327 O334 1.226 . S
O328 Cd324 2.273 . S
O328 Cd326 2.411 . S
O328 C331 1.320 . S
O329 Cd326 2.333 . S
O329 C331 1.214 . S
O330 Cd326 2.352 . S
O330 C333 1.258 . S
C331 O328 1.320 . S
C331 O329 1.214 . S
O332 Cd324 2.277 . S
O332 C327 1.209 . S
C333 O330 1.258 . S
C333 O335 1.282 . S
O334 Cd326 2.277 . S
O334 C327 1.226 . S
O335 Cd326 2.356 . S
O335 C333 1.282 . S
Tb336 N365 2.617 . S
Tb336 N371 2.572 . S
Tb336 O380 2.465 . S
Tb336 O381 2.387 . S
Tb336 O383 2.428 . S
Tb336 O384 2.308 . S
Tb336 O388 2.349 . S
Tb336 O391 2.393 . S
Tb336 C400 2.802 . S
C337 N338 1.379 . S
C337 C340 1.416 . S
C337 C344 1.424 1_556 S
N338 C337 1.379 . S
N338 C341 1.334 . S
N338 Tb347 2.619 1_566 S
C339 C341 1.390 . S
C339 C342 1.339 . S
C339 H359 0.930 . S
C340 C337 1.416 . S
C340 C342 1.416 . S
C340 C346 1.448 . S
C341 N338 1.334 . S
C341 C339 1.390 . S
C341 H352 0.930 . S
C342 C339 1.339 . S
C342 C340 1.416 . S
C342 H363 0.930 . S
C343 C344 1.413 . S
C343 C345 1.427 1_554 S
C343 C349 1.416 . S
C344 C337 1.424 1_554 S
C344 C343 1.413 . S
C344 N348 1.361 . S
C345 C343 1.427 1_556 S
C345 C346 1.328 . S
C345 H360 0.927 1_556 S
C346 C340 1.448 . S
C346 C345 1.328 . S
C346 H361 0.930 . S
Tb347 N338 2.619 1_544 S
Tb347 N348 2.578 1_545 S
Tb347 O382 2.347 1_655 S
Tb347 O385 2.385 1_654 S
Tb347 O386 2.476 . S
Tb347 O387 2.379 1_645 S
Tb347 O389 2.436 1_554 S
Tb347 O390 2.306 1_655 S
Tb347 C411 2.813 . S
N348 C344 1.361 . S
N348 Tb347 2.578 1_565 S
N348 C350 1.340 . S
C349 C343 1.416 . S
C349 C351 1.332 . S
C349 H357 0.931 . S
C350 N348 1.340 . S
C350 C351 1.407 . S
C350 H356 0.930 . S
C351 C349 1.332 . S
C351 C350 1.407 . S
C351 H353 0.929 . S
H352 C341 0.930 . S
H353 C351 0.929 . S
H354 C369 0.930 . S
H355 C376 0.929 1_556 S
H356 C350 0.930 . S
H357 C349 0.931 . S
H358 C372 0.930 . S
H359 C339 0.930 . S
H360 C345 0.927 1_554 S
H361 C346 0.930 . S
H362 C367 0.930 . S
H363 C342 0.930 . S
H364 C375 0.931 . S
N365 Tb336 2.617 . S
N365 C366 1.379 . S
N365 C369 1.334 . S
C366 N365 1.379 . S
C366 C368 1.416 . S
C366 C374 1.424 . S
C367 H362 0.930 . S
C367 C369 1.390 . S
C367 C370 1.339 . S
C368 C366 1.416 . S
C368 C370 1.416 . S
C368 C401 1.448 . S
C369 H354 0.930 . S
C369 N365 1.334 . S
C369 C367 1.390 . S
C370 C367 1.339 . S
C370 C368 1.416 . S
C370 H377 0.930 . S
N371 Tb336 2.572 . S
N371 C372 1.340 . S
N371 C374 1.361 . S
C372 H358 0.930 . S
C372 N371 1.340 . S
C372 C376 1.407 . S
C373 C374 1.413 . S
C373 C375 1.416 . S
C373 C402 1.427 . S
C374 C366 1.424 . S
C374 N371 1.361 . S
C374 C373 1.413 . S
C375 H364 0.931 . S
C375 C373 1.416 . S
C375 C376 1.332 . S
C376 H355 0.929 1_554 S
C376 C372 1.407 . S
C376 C375 1.332 . S
H377 C370 0.930 . S
H378 C401 0.930 . S
H379 C402 0.929 . S
O380 Tb336 2.465 . S
O380 C400 1.264 . S
O381 Tb336 2.387 . S
O381 C392 1.264 . S
O382 Tb347 2.347 1_455 S
O382 C392 1.243 . S
O383 Tb336 2.428 . S
O383 C400 1.256 . S
O384 Tb336 2.308 . S
O384 C399 1.266 1_554 S
O385 Tb347 2.385 1_456 S
O385 C399 1.248 . S
O386 Tb347 2.476 . S
O386 C411 1.264 . S
O387 Tb347 2.379 1_465 S
O387 C403 1.264 . S
O388 Tb336 2.349 . S
O388 C403 1.243 1_545 S
O389 Tb347 2.436 1_556 S
O389 C411 1.256 1_556 S
O390 Tb347 2.306 1_455 S
O390 C410 1.266 . S
O391 Tb336 2.393 . S
O391 C410 1.248 . S
C392 O381 1.264 . S
C392 O382 1.243 . S
C393 C396 1.399 . S
C393 C398 1.383 . S
C393 C400 1.496 . S
C394 C395 1.405 . S
C394 C398 1.393 . S
C395 C394 1.405 . S
C395 C397 1.393 . S
C395 H412 0.910 1_545 S
C396 C393 1.399 . S
C396 C397 1.392 . S
C396 H413 0.929 . S
C397 C395 1.393 . S
C397 C396 1.392 . S
C397 H414 0.929 . S
C398 C393 1.383 . S
C398 C394 1.393 . S
C398 H415 0.931 . S
C399 O384 1.266 1_556 S
C399 O385 1.248 . S
C400 Tb336 2.802 . S
C400 O380 1.264 . S
C400 O383 1.256 . S
C400 C393 1.496 . S
C401 C368 1.448 . S
C401 H378 0.930 . S
C401 C402 1.328 . S
C402 C373 1.427 . S
C402 H379 0.929 . S
C402 C401 1.328 . S
C403 O387 1.264 . S
C403 O388 1.243 1_565 S
C404 C407 1.417 . S
C404 C408 1.368 1_556 S
C404 C411 1.494 1_556 S
C405 C406 1.399 1_554 S
C405 C408 1.389 . S
C406 C405 1.399 1_556 S
C406 C409 1.380 . S
C406 H416 0.929 . S
C407 C404 1.417 . S
C407 C409 1.392 . S
C407 H417 0.929 . S
C408 C404 1.368 1_554 S
C408 C405 1.389 . S
C408 H418 0.931 . S
C409 C406 1.380 . S
C409 C407 1.392 . S
C409 H419 0.929 . S
C410 O390 1.266 . S
C410 O391 1.248 . S
C411 Tb347 2.813 . S
C411 O386 1.264 . S
C411 O389 1.256 1_554 S
C411 C404 1.494 1_554 S
H412 C395 0.910 1_565 S
H413 C396 0.929 . S
H414 C397 0.929 . S
H415 C398 0.931 . S
H416 C406 0.929 . S
H417 C407 0.929 . S
H418 C408 0.931 . S
H419 C409 0.929 . S
Tb420 N449 2.617 . S
Tb420 N455 2.572 . S
Tb420 O464 2.465 . S
Tb420 O465 2.387 . S
Tb420 O467 2.428 . S
Tb420 O468 2.308 . S
Tb420 O472 2.349 . S
Tb420 O475 2.393 . S
Tb420 C484 2.802 . S
C421 N422 1.379 . S
C421 C424 1.416 . S
C421 C428 1.424 . S
N422 C421 1.379 . S
N422 C425 1.334 . S
N422 Tb431 2.617 . S
C423 C425 1.390 . S
C423 C426 1.339 . S
C423 H443 0.930 . S
C424 C421 1.416 . S
C424 C426 1.416 . S
C424 C430 1.448 . S
C425 N422 1.334 . S
C425 C423 1.390 . S
C425 H436 0.930 . S
C426 C423 1.339 . S
C426 C424 1.416 . S
C426 H447 0.930 . S
C427 C428 1.413 . S
C427 C429 1.427 . S
C427 C433 1.416 . S
C428 C421 1.424 . S
C428 C427 1.413 . S
C428 N432 1.361 . S
C429 C427 1.427 . S
C429 C430 1.328 . S
C429 H444 0.929 . S
C430 C424 1.448 . S
C430 C429 1.328 . S
C430 H445 0.930 . S
Tb431 N422 2.617 . S
Tb431 N432 2.572 . S
Tb431 O466 2.349 . S
Tb431 O469 2.393 . S
Tb431 O470 2.465 . S
Tb431 O471 2.387 . S
Tb431 O473 2.428 . S
Tb431 O474 2.308 . S
Tb431 C495 2.802 . S
N432 C428 1.361 . S
N432 Tb431 2.572 . S
N432 C434 1.340 . S
C433 C427 1.416 . S
C433 C435 1.332 . S
C433 H441 0.931 . S
C434 N432 1.340 . S
C434 C435 1.407 . S
C434 H440 0.930 . S
C435 C433 1.332 . S
C435 C434 1.407 . S
C435 H437 0.929 . S
H436 C425 0.930 . S
H437 C435 0.929 . S
H438 C453 0.930 . S
H439 C460 0.929 . S
H440 C434 0.930 . S
H441 C433 0.931 . S
H442 C456 0.930 . S
H443 C423 0.930 . S
H444 C429 0.929 . S
H445 C430 0.930 . S
H446 C451 0.930 . S
H447 C426 0.930 . S
H448 C459 0.931 . S
N449 Tb420 2.617 . S
N449 C450 1.379 . S
N449 C453 1.334 . S
C450 N449 1.379 . S
C450 C452 1.416 . S
C450 C458 1.424 . S
C451 H446 0.930 . S
C451 C453 1.390 . S
C451 C454 1.339 . S
C452 C450 1.416 . S
C452 C454 1.416 . S
C452 C485 1.448 . S
C453 H438 0.930 . S
C453 N449 1.334 . S
C453 C451 1.390 . S
C454 C451 1.339 . S
C454 C452 1.416 . S
C454 H461 0.930 . S
N455 Tb420 2.572 . S
N455 C456 1.340 . S
N455 C458 1.361 . S
C456 H442 0.930 . S
C456 N455 1.340 . S
C456 C460 1.407 . S
C457 C458 1.413 . S
C457 C459 1.416 . S
C457 C486 1.427 . S
C458 C450 1.424 . S
C458 N455 1.361 . S
C458 C457 1.413 . S
C459 H448 0.931 . S
C459 C457 1.416 . S
C459 C460 1.332 . S
C460 H439 0.929 . S
C460 C456 1.407 . S
C460 C459 1.332 . S
H461 C454 0.930 . S
H462 C485 0.930 . S
H463 C486 0.929 . S
O464 Tb420 2.465 . S
O464 C484 1.264 . S
O465 Tb420 2.387 . S
O465 C476 1.264 . S
O466 Tb431 2.349 . S
O466 C476 1.243 . S
O467 Tb420 2.428 . S
O467 C484 1.256 . S
O468 Tb420 2.308 . S
O468 C483 1.266 . S
O469 Tb431 2.393 . S
O469 C483 1.248 . S
O470 Tb431 2.465 . S
O470 C495 1.264 . S
O471 Tb431 2.387 . S
O471 C487 1.264 . S
O472 Tb420 2.349 . S
O472 C487 1.243 . S
O473 Tb431 2.428 . S
O473 C495 1.256 . S
O474 Tb431 2.308 . S
O474 C494 1.266 . S
O475 Tb420 2.393 . S
O475 C494 1.248 . S
C476 O465 1.264 . S
C476 O466 1.243 . S
C477 C480 1.399 . S
C477 C482 1.383 . S
C477 C484 1.496 . S
C478 C479 1.399 . S
C478 C482 1.389 . S
C479 C478 1.399 . S
C479 C481 1.380 . S
C479 H496 0.929 . S
C480 C477 1.399 . S
C480 C481 1.392 . S
C480 H497 0.929 . S
C481 C479 1.380 . S
C481 C480 1.392 . S
C481 H498 0.929 . S
C482 C477 1.383 . S
C482 C478 1.389 . S
C482 H499 0.931 . S
C483 O468 1.266 . S
C483 O469 1.248 . S
C484 Tb420 2.802 . S
C484 O464 1.264 . S
C484 O467 1.256 . S
C484 C477 1.496 . S
C485 C452 1.448 . S
C485 H462 0.930 . S
C485 C486 1.328 . S
C486 C457 1.427 . S
C486 H463 0.929 . S
C486 C485 1.328 . S
C487 O471 1.264 . S
C487 O472 1.243 . S
C488 C491 1.399 . S
C488 C492 1.383 . S
C488 C495 1.496 . S
C489 C490 1.399 . S
C489 C492 1.389 . S
C490 C489 1.399 . S
C490 C493 1.380 . S
C490 H500 0.929 . S
C491 C488 1.399 . S
C491 C493 1.392 . S
C491 H501 0.929 . S
C492 C488 1.383 . S
C492 C489 1.389 . S
C492 H502 0.931 . S
C493 C490 1.380 . S
C493 C491 1.392 . S
C493 H503 0.929 . S
C494 O474 1.266 . S
C494 O475 1.248 . S
C495 Tb431 2.802 . S
C495 O470 1.264 . S
C495 O473 1.256 . S
C495 C488 1.496 . S
H496 C479 0.929 . S
H497 C480 0.929 . S
H498 C481 0.929 . S
H499 C482 0.931 . S
H500 C490 0.929 . S
H501 C491 0.929 . S
H502 C492 0.931 . S
H503 C493 0.929 . S
Tb504 N533 2.617 1_545 S
Tb504 N539 2.572 1_545 S
Tb504 O548 2.465 . S
Tb504 O549 2.387 1_545 S
Tb504 O551 2.428 . S
Tb504 O552 2.308 . S
Tb504 O556 2.349 . S
Tb504 O559 2.393 . S
Tb504 C568 2.802 . S
C505 N506 1.379 . S
C505 C508 1.416 . S
C505 C512 1.424 . S
N506 C505 1.379 . S
N506 C509 1.334 . S
N506 Tb515 2.617 . S
C507 C509 1.390 . S
C507 C510 1.339 . S
C507 H527 0.930 . S
C508 C505 1.416 . S
C508 C510 1.416 . S
C508 C514 1.448 . S
C509 N506 1.334 . S
C509 C507 1.390 . S
C509 H520 0.930 . S
C510 C507 1.339 . S
C510 C508 1.416 . S
C510 H531 0.930 . S
C511 C512 1.413 . S
C511 C513 1.427 . S
C511 C517 1.416 . S
C512 C505 1.424 . S
C512 C511 1.413 . S
C512 N516 1.361 . S
C513 C511 1.427 . S
C513 C514 1.328 . S
C513 H528 0.929 . S
C514 C508 1.448 . S
C514 C513 1.328 . S
C514 H529 0.930 . S
Tb515 N506 2.617 . S
Tb515 N516 2.572 . S
Tb515 O550 2.349 1_545 S
Tb515 O553 2.393 . S
Tb515 O554 2.465 . S
Tb515 O555 2.387 . S
Tb515 O557 2.428 . S
Tb515 O558 2.308 . S
Tb515 C579 2.802 . S
N516 C512 1.361 . S
N516 Tb515 2.572 . S
N516 C518 1.340 . S
C517 C511 1.416 . S
C517 C519 1.332 . S
C517 H525 0.931 . S
C518 N516 1.340 . S
C518 C519 1.407 . S
C518 H524 0.930 . S
C519 C517 1.332 . S
C519 C518 1.407 . S
C519 H521 0.929 . S
H520 C509 0.930 . S
H521 C519 0.929 . S
H522 C537 0.933 . S
H523 C544 0.929 . S
H524 C518 0.930 . S
H525 C517 0.931 . S
H526 C540 0.930 . S
H527 C507 0.930 . S
H528 C513 0.929 . S
H529 C514 0.930 . S
H530 C535 0.930 . S
H531 C510 0.930 . S
H532 C543 0.931 . S
N533 Tb504 2.617 1_565 S
N533 C534 1.379 . S
N533 C537 1.335 1_565 S
C534 N533 1.379 . S
C534 C536 1.416 . S
C534 C542 1.424 . S
C535 H530 0.930 . S
C535 C537 1.387 1_565 S
C535 C538 1.339 . S
C536 C534 1.416 . S
C536 C538 1.416 . S
C536 C569 1.448 . S
C537 H522 0.933 . S
C537 N533 1.335 1_545 S
C537 C535 1.387 1_545 S
C538 C535 1.339 . S
C538 C536 1.416 . S
C538 H545 0.930 . S
N539 Tb504 2.572 1_565 S
N539 C540 1.340 . S
N539 C542 1.361 . S
C540 H526 0.930 . S
C540 N539 1.340 . S
C540 C544 1.407 . S
C541 C542 1.413 . S
C541 C543 1.416 . S
C541 C570 1.427 . S
C542 C534 1.424 . S
C542 N539 1.361 . S
C542 C541 1.413 . S
C543 H532 0.931 . S
C543 C541 1.416 . S
C543 C544 1.332 . S
C544 H523 0.929 . S
C544 C540 1.407 . S
C544 C543 1.332 . S
H545 C538 0.930 . S
H546 C569 0.930 . S
H547 C570 0.929 . S
O548 Tb504 2.465 . S
O548 C568 1.264 . S
O549 Tb504 2.387 1_565 S
O549 C560 1.264 . S
O550 Tb515 2.349 1_565 S
O550 C560 1.243 . S
O551 Tb504 2.428 . S
O551 C568 1.256 . S
O552 Tb504 2.308 . S
O552 C567 1.266 . S
O553 Tb515 2.393 . S
O553 C567 1.248 . S
O554 Tb515 2.465 . S
O554 C579 1.264 . S
O555 Tb515 2.387 . S
O555 C571 1.264 . S
O556 Tb504 2.349 . S
O556 C571 1.243 . S
O557 Tb515 2.428 . S
O557 C579 1.256 . S
O558 Tb515 2.308 . S
O558 C578 1.266 . S
O559 Tb504 2.393 . S
O559 C578 1.248 . S
C560 O549 1.264 . S
C560 O550 1.243 . S
C561 C564 1.399 . S
C561 C566 1.383 . S
C561 C568 1.496 . S
C562 C563 1.399 . S
C562 C566 1.389 . S
C563 C562 1.399 . S
C563 C565 1.380 . S
C563 H580 0.929 . S
C564 C561 1.399 . S
C564 C565 1.392 . S
C564 H581 0.929 . S
C565 C563 1.380 . S
C565 C564 1.392 . S
C565 H582 0.929 . S
C566 C561 1.383 . S
C566 C562 1.389 . S
C566 H583 0.931 . S
C567 O552 1.266 . S
C567 O553 1.248 . S
C568 Tb504 2.802 . S
C568 O548 1.264 . S
C568 O551 1.256 . S
C568 C561 1.496 . S
C569 C536 1.448 . S
C569 H546 0.930 . S
C569 C570 1.328 . S
C570 C541 1.427 . S
C570 H547 0.929 . S
C570 C569 1.328 . S
C571 O555 1.264 . S
C571 O556 1.243 . S
C572 C575 1.399 . S
C572 C576 1.383 . S
C572 C579 1.496 1_565 S
C573 C574 1.399 . S
C573 C576 1.389 . S
C574 C573 1.399 . S
C574 C577 1.380 . S
C574 H584 0.929 . S
C575 C572 1.399 . S
C575 C577 1.392 . S
C575 H585 0.929 . S
C576 C572 1.383 . S
C576 C573 1.389 . S
C576 H586 0.931 . S
C577 C574 1.380 . S
C577 C575 1.392 . S
C577 H587 0.929 . S
C578 O558 1.266 . S
C578 O559 1.248 . S
C579 Tb515 2.802 . S
C579 O554 1.264 . S
C579 O557 1.256 . S
C579 C572 1.496 1_545 S
H580 C563 0.929 . S
H581 C564 0.929 . S
H582 C565 0.929 . S
H583 C566 0.931 . S
H584 C574 0.929 . S
H585 C575 0.929 . S
H586 C576 0.931 . S
H587 C577 0.929 . S
Tb588 N617 2.617 . S
Tb588 N623 2.572 . S
Tb588 O632 2.465 . S
Tb588 O633 2.387 . S
Tb588 O635 2.428 . S
Tb588 O636 2.308 . S
Tb588 O640 2.349 . S
Tb588 O643 2.393 . S
Tb588 C652 2.802 . S
C589 N590 1.379 . S
C589 C592 1.416 . S
C589 C596 1.424 . S
N590 C589 1.379 . S
N590 C593 1.334 . S
N590 Tb599 2.617 . S
C591 C593 1.390 . S
C591 C594 1.339 . S
C591 H611 0.930 . S
C592 C589 1.416 . S
C592 C594 1.416 . S
C592 C598 1.448 . S
C593 N590 1.334 . S
C593 C591 1.390 . S
C593 H604 0.930 . S
C594 C591 1.339 . S
C594 C592 1.416 . S
C594 H615 0.930 . S
C595 C596 1.413 . S
C595 C597 1.427 . S
C595 C601 1.416 . S
C596 C589 1.424 . S
C596 C595 1.413 . S
C596 N600 1.361 . S
C597 C595 1.427 . S
C597 C598 1.328 . S
C597 H612 0.929 . S
C598 C592 1.448 . S
C598 C597 1.328 . S
C598 H613 0.930 . S
Tb599 N590 2.617 . S
Tb599 N600 2.572 . S
Tb599 O634 2.349 . S
Tb599 O637 2.393 . S
Tb599 O638 2.465 . S
Tb599 O639 2.387 . S
Tb599 O641 2.428 . S
Tb599 O642 2.308 . S
Tb599 C663 2.802 . S
N600 C596 1.361 . S
N600 Tb599 2.572 . S
N600 C602 1.340 . S
C601 C595 1.416 . S
C601 C603 1.332 . S
C601 H609 0.931 . S
C602 N600 1.340 . S
C602 C603 1.407 . S
C602 H608 0.930 . S
C603 C601 1.332 . S
C603 C602 1.407 . S
C603 H605 0.929 . S
H604 C593 0.930 . S
H605 C603 0.929 . S
H606 C621 0.930 . S
H607 C628 0.929 . S
H608 C602 0.930 . S
H609 C601 0.931 . S
H610 C624 0.930 . S
H611 C591 0.930 . S
H612 C597 0.929 . S
H613 C598 0.930 . S
H614 C619 0.930 . S
H615 C594 0.930 . S
H616 C627 0.931 . S
N617 Tb588 2.617 . S
N617 C618 1.379 . S
N617 C621 1.334 . S
C618 N617 1.379 . S
C618 C620 1.416 . S
C618 C626 1.424 . S
C619 H614 0.930 . S
C619 C621 1.390 . S
C619 C622 1.339 . S
C620 C618 1.416 . S
C620 C622 1.416 . S
C620 C653 1.448 . S
C621 H606 0.930 . S
C621 N617 1.334 . S
C621 C619 1.390 . S
C622 C619 1.339 . S
C622 C620 1.416 . S
C622 H629 0.930 . S
N623 Tb588 2.572 . S
N623 C624 1.340 . S
N623 C626 1.361 . S
C624 H610 0.930 . S
C624 N623 1.340 . S
C624 C628 1.407 . S
C625 C626 1.413 . S
C625 C627 1.416 . S
C625 C654 1.427 . S
C626 C618 1.424 . S
C626 N623 1.361 . S
C626 C625 1.413 . S
C627 H616 0.931 . S
C627 C625 1.416 . S
C627 C628 1.332 . S
C628 H607 0.929 . S
C628 C624 1.407 . S
C628 C627 1.332 . S
H629 C622 0.930 . S
H630 C653 0.930 . S
H631 C654 0.929 . S
O632 Tb588 2.465 . S
O632 C652 1.264 . S
O633 Tb588 2.387 . S
O633 C644 1.264 . S
O634 Tb599 2.349 . S
O634 C644 1.243 . S
O635 Tb588 2.428 . S
O635 C652 1.256 . S
O636 Tb588 2.308 . S
O636 C651 1.266 . S
O637 Tb599 2.393 . S
O637 C651 1.248 . S
O638 Tb599 2.465 . S
O638 C663 1.264 . S
O639 Tb599 2.387 . S
O639 C655 1.264 . S
O640 Tb588 2.349 . S
O640 C655 1.243 . S
O641 Tb599 2.428 . S
O641 C663 1.256 . S
O642 Tb599 2.308 . S
O642 C662 1.266 . S
O643 Tb588 2.393 . S
O643 C662 1.248 . S
C644 O633 1.264 . S
C644 O634 1.243 . S
C645 C648 1.399 . S
C645 C650 1.383 . S
C645 C652 1.496 . S
C646 C647 1.399 . S
C646 C650 1.389 . S
C647 C646 1.399 . S
C647 C649 1.380 . S
C647 H664 0.929 . S
C648 C645 1.399 . S
C648 C649 1.392 . S
C648 H665 0.929 . S
C649 C647 1.380 . S
C649 C648 1.392 . S
C649 H666 0.929 . S
C650 C645 1.383 . S
C650 C646 1.389 . S
C650 H667 0.931 . S
C651 O636 1.266 . S
C651 O637 1.248 . S
C652 Tb588 2.802 . S
C652 O632 1.264 . S
C652 O635 1.256 . S
C652 C645 1.496 . S
C653 C620 1.448 . S
C653 H630 0.930 . S
C653 C654 1.328 . S
C654 C625 1.427 . S
C654 H631 0.929 . S
C654 C653 1.328 . S
C655 O639 1.264 . S
C655 O640 1.243 . S
C656 C659 1.399 . S
C656 C660 1.383 . S
C656 C663 1.496 . S
C657 C658 1.399 . S
C657 C660 1.389 . S
C658 C657 1.399 . S
C658 C661 1.380 . S
C658 H668 0.929 . S
C659 C656 1.399 . S
C659 C661 1.392 . S
C659 H669 0.929 . S
C660 C656 1.383 . S
C660 C657 1.389 . S
C660 H670 0.931 . S
C661 C658 1.380 . S
C661 C659 1.392 . S
C661 H671 0.929 . S
C662 O642 1.266 . S
C662 O643 1.248 . S
C663 Tb599 2.802 . S
C663 O638 1.264 . S
C663 O641 1.256 . S
C663 C656 1.496 . S
H664 C647 0.929 . S
H665 C648 0.929 . S
H666 C649 0.929 . S
H667 C650 0.931 . S
H668 C658 0.929 . S
H669 C659 0.929 . S
H670 C660 0.931 . S
H671 C661 0.929 . S
Tb672 N701 2.617 . S
Tb672 N707 2.572 . S
Tb672 O716 2.465 . S
Tb672 O717 2.387 1_565 S
Tb672 O719 2.428 . S
Tb672 O720 2.308 1_565 S
Tb672 O724 2.349 1_565 S
Tb672 O727 2.393 1_565 S
Tb672 C736 2.802 . S
C673 N674 1.379 1_455 S
C673 C676 1.416 1_455 S
C673 C680 1.424 . S
N674 C673 1.379 1_655 S
N674 C677 1.334 . S
N674 Tb683 2.617 1_655 S
C675 C677 1.390 . S
C675 C678 1.339 . S
C675 H695 0.930 . S
C676 C673 1.416 1_655 S
C676 C678 1.416 . S
C676 C682 1.448 1_655 S
C677 N674 1.334 . S
C677 C675 1.390 . S
C677 H688 0.930 . S
C678 C675 1.339 . S
C678 C676 1.416 . S
C678 H699 0.930 . S
C679 C680 1.413 . S
C679 C681 1.427 . S
C679 C685 1.416 . S
C680 C673 1.424 . S
C680 C679 1.413 . S
C680 N684 1.361 . S
C681 C679 1.427 . S
C681 C682 1.328 . S
C681 H696 0.929 . S
C682 C676 1.448 1_455 S
C682 C681 1.328 . S
C682 H697 0.951 . S
Tb683 N674 2.617 1_455 S
Tb683 N684 2.572 . S
Tb683 O718 2.349 . S
Tb683 O721 2.393 1_455 S
Tb683 O722 2.465 . S
Tb683 O723 2.387 . S
Tb683 O725 2.428 1_455 S
Tb683 O726 2.308 . S
Tb683 C747 2.802 . S
N684 C680 1.361 . S
N684 Tb683 2.572 . S
N684 C686 1.340 . S
C685 C679 1.416 . S
C685 C687 1.332 . S
C685 H693 0.931 . S
C686 N684 1.340 . S
C686 C687 1.407 . S
C686 H692 0.930 . S
C687 C685 1.332 . S
C687 C686 1.407 . S
C687 H689 0.929 . S
H688 C677 0.930 . S
H689 C687 0.929 . S
H690 C705 0.930 1_545 S
H691 C712 0.929 . S
H692 C686 0.930 . S
H693 C685 0.931 . S
H694 C708 0.930 1_655 S
H695 C675 0.930 . S
H696 C681 0.929 . S
H697 C682 0.951 . S
H698 C703 0.930 . S
H699 C678 0.930 . S
H700 C711 0.931 1_655 S
N701 Tb672 2.617 . S
N701 C702 1.379 . S
N701 C705 1.334 . S
C702 N701 1.379 . S
C702 C704 1.416 . S
C702 C710 1.424 . S
C703 H698 0.930 . S
C703 C705 1.390 . S
C703 C706 1.339 . S
C704 C702 1.416 . S
C704 C706 1.416 . S
C704 C737 1.448 . S
C705 H690 0.930 1_565 S
C705 N701 1.334 . S
C705 C703 1.390 . S
C706 C703 1.339 . S
C706 C704 1.416 . S
C706 H713 0.930 . S
N707 Tb672 2.572 . S
N707 C708 1.340 . S
N707 C710 1.361 . S
C708 H694 0.930 1_455 S
C708 N707 1.340 . S
C708 C712 1.407 1_455 S
C709 C710 1.413 . S
C709 C711 1.416 . S
C709 C738 1.427 . S
C710 C702 1.424 . S
C710 N707 1.361 . S
C710 C709 1.413 . S
C711 H700 0.931 1_455 S
C711 C709 1.416 . S
C711 C712 1.332 1_455 S
C712 H691 0.929 . S
C712 C708 1.407 1_655 S
C712 C711 1.332 1_655 S
H713 C706 0.930 . S
H714 C737 0.930 . S
H715 C738 0.929 . S
O716 Tb672 2.465 . S
O716 C736 1.264 . S
O717 Tb672 2.387 1_545 S
O717 C728 1.264 . S
O718 Tb683 2.349 . S
O718 C728 1.243 . S
O719 Tb672 2.428 . S
O719 C736 1.256 . S
O720 Tb672 2.308 1_545 S
O720 C735 1.266 1_455 S
O721 Tb683 2.393 1_655 S
O721 C735 1.248 . S
O722 Tb683 2.465 . S
O722 C747 1.264 . S
O723 Tb683 2.387 . S
O723 C739 1.264 . S
O724 Tb672 2.349 1_545 S
O724 C739 1.243 . S
O725 Tb683 2.428 1_655 S
O725 C747 1.256 1_655 S
O726 Tb683 2.308 . S
O726 C746 1.266 . S
O727 Tb672 2.393 1_545 S
O727 C746 1.248 . S
C728 O717 1.264 . S
C728 O718 1.243 . S
C729 C732 1.399 . S
C729 C734 1.383 . S
C729 C736 1.496 . S
C730 C731 1.399 . S
C730 C734 1.389 . S
C731 C730 1.399 . S
C731 C733 1.380 . S
C731 H748 0.929 . S
C732 C729 1.399 . S
C732 C733 1.392 . S
C732 H749 0.929 . S
C733 C731 1.380 . S
C733 C732 1.392 . S
C733 H750 0.929 . S
C734 C729 1.383 . S
C734 C730 1.389 . S
C734 H751 0.931 . S
C735 O720 1.266 1_655 S
C735 O721 1.248 . S
C736 Tb672 2.802 . S
C736 O716 1.264 . S
C736 O719 1.256 . S
C736 C729 1.496 . S
C737 C704 1.448 . S
C737 H714 0.930 . S
C737 C738 1.328 . S
C738 C709 1.427 . S
C738 H715 0.929 . S
C738 C737 1.328 . S
C739 O723 1.264 . S
C739 O724 1.243 . S
C740 C743 1.399 1_455 S
C740 C744 1.383 . S
C740 C747 1.496 . S
C741 C742 1.399 . S
C741 C744 1.389 . S
C742 C741 1.399 . S
C742 C745 1.380 1_455 S
C742 H752 0.921 1_455 S
C743 C740 1.399 1_655 S
C743 C745 1.392 . S
C743 H753 0.929 . S
C744 C740 1.383 . S
C744 C741 1.389 . S
C744 H754 0.931 . S
C745 C742 1.380 1_655 S
C745 C743 1.392 . S
C745 H755 0.929 . S
C746 O726 1.266 . S
C746 O727 1.248 . S
C747 Tb683 2.802 . S
C747 O722 1.264 . S
C747 O725 1.256 1_455 S
C747 C740 1.496 . S
H748 C731 0.929 . S
H749 C732 0.929 . S
H750 C733 0.929 . S
H751 C734 0.931 . S
H752 C742 0.921 1_655 S
H753 C743 0.929 . S
H754 C744 0.931 . S
H755 C745 0.929 . S
Tb756 N785 2.617 . S
Tb756 N791 2.572 . S
Tb756 O800 2.465 . S
Tb756 O801 2.387 . S
Tb756 O803 2.428 . S
Tb756 O804 2.308 . S
Tb756 O808 2.349 . S
Tb756 O811 2.393 . S
Tb756 C820 2.802 . S
C757 N758 1.379 . S
C757 C760 1.416 . S
C757 C764 1.424 . S
N758 C757 1.379 . S
N758 C761 1.334 . S
N758 Tb767 2.617 . S
C759 C761 1.390 . S
C759 C762 1.339 . S
C759 H779 0.930 . S
C760 C757 1.416 . S
C760 C762 1.416 . S
C760 C766 1.448 . S
C761 N758 1.334 . S
C761 C759 1.390 . S
C761 H772 0.930 . S
C762 C759 1.339 . S
C762 C760 1.416 . S
C762 H783 0.930 . S
C763 C764 1.413 . S
C763 C765 1.427 . S
C763 C769 1.416 . S
C764 C757 1.424 . S
C764 C763 1.413 . S
C764 N768 1.361 . S
C765 C763 1.427 . S
C765 C766 1.328 . S
C765 H780 0.929 . S
C766 C760 1.448 . S
C766 C765 1.328 . S
C766 H781 0.930 . S
Tb767 N758 2.617 . S
Tb767 N768 2.572 . S
Tb767 O802 2.349 . S
Tb767 O805 2.393 . S
Tb767 O806 2.465 . S
Tb767 O807 2.387 . S
Tb767 O809 2.428 . S
Tb767 O810 2.308 . S
Tb767 C831 2.802 . S
N768 C764 1.361 . S
N768 Tb767 2.572 . S
N768 C770 1.340 . S
C769 C763 1.416 . S
C769 C771 1.332 . S
C769 H777 0.931 . S
C770 N768 1.340 . S
C770 C771 1.407 . S
C770 H776 0.930 . S
C771 C769 1.332 . S
C771 C770 1.407 . S
C771 H773 0.929 . S
H772 C761 0.930 . S
H773 C771 0.929 . S
H774 C789 0.930 . S
H775 C796 0.929 . S
H776 C770 0.930 . S
H777 C769 0.931 . S
H778 C792 0.930 . S
H779 C759 0.930 . S
H780 C765 0.929 . S
H781 C766 0.930 . S
H782 C787 0.930 . S
H783 C762 0.930 . S
H784 C795 0.931 . S
N785 Tb756 2.617 . S
N785 C786 1.379 . S
N785 C789 1.334 . S
C786 N785 1.379 . S
C786 C788 1.416 . S
C786 C794 1.424 . S
C787 H782 0.930 . S
C787 C789 1.390 . S
C787 C790 1.339 . S
C788 C786 1.416 . S
C788 C790 1.416 . S
C788 C821 1.448 . S
C789 H774 0.930 . S
C789 N785 1.334 . S
C789 C787 1.390 . S
C790 C787 1.339 . S
C790 C788 1.416 . S
C790 H797 0.930 . S
N791 Tb756 2.572 . S
N791 C792 1.340 . S
N791 C794 1.361 . S
C792 H778 0.930 . S
C792 N791 1.340 . S
C792 C796 1.407 . S
C793 C794 1.413 . S
C793 C795 1.416 . S
C793 C822 1.427 . S
C794 C786 1.424 . S
C794 N791 1.361 . S
C794 C793 1.413 . S
C795 H784 0.931 . S
C795 C793 1.416 . S
C795 C796 1.332 . S
C796 H775 0.929 . S
C796 C792 1.407 . S
C796 C795 1.332 . S
H797 C790 0.930 . S
H798 C821 0.930 . S
H799 C822 0.929 . S
O800 Tb756 2.465 . S
O800 C820 1.264 . S
O801 Tb756 2.387 . S
O801 C812 1.264 . S
O802 Tb767 2.349 . S
O802 C812 1.243 . S
O803 Tb756 2.428 . S
O803 C820 1.256 . S
O804 Tb756 2.308 . S
O804 C819 1.266 . S
O805 Tb767 2.393 . S
O805 C819 1.248 . S
O806 Tb767 2.465 . S
O806 C831 1.264 . S
O807 Tb767 2.387 . S
O807 C823 1.264 . S
O808 Tb756 2.349 . S
O808 C823 1.243 . S
O809 Tb767 2.428 . S
O809 C831 1.256 . S
O810 Tb767 2.308 . S
O810 C830 1.266 . S
O811 Tb756 2.393 . S
O811 C830 1.248 . S
C812 O801 1.264 . S
C812 O802 1.243 . S
C813 C816 1.399 . S
C813 C818 1.383 . S
C813 C820 1.496 . S
C814 C815 1.399 . S
C814 C818 1.389 . S
C815 C814 1.399 . S
C815 C817 1.380 . S
C815 H832 0.929 . S
C816 C813 1.399 . S
C816 C817 1.392 . S
C816 H833 0.929 . S
C817 C815 1.380 . S
C817 C816 1.392 . S
C817 H834 0.929 . S
C818 C813 1.383 . S
C818 C814 1.389 . S
C818 H835 0.931 . S
C819 O804 1.266 . S
C819 O805 1.248 . S
C820 Tb756 2.802 . S
C820 O800 1.264 . S
C820 O803 1.256 . S
C820 C813 1.496 . S
C821 C788 1.448 . S
C821 H798 0.930 . S
C821 C822 1.328 . S
C822 C793 1.427 . S
C822 H799 0.929 . S
C822 C821 1.328 . S
C823 O807 1.264 . S
C823 O808 1.243 . S
C824 C827 1.399 . S
C824 C828 1.383 . S
C824 C831 1.496 . S
C825 C826 1.399 . S
C825 C828 1.389 . S
C826 C825 1.399 . S
C826 C829 1.380 . S
C826 H836 0.929 . S
C827 C824 1.399 . S
C827 C829 1.392 . S
C827 H837 0.929 . S
C828 C824 1.383 . S
C828 C825 1.389 . S
C828 H838 0.931 . S
C829 C826 1.380 . S
C829 C827 1.392 . S
C829 H839 0.929 . S
C830 O810 1.266 . S
C830 O811 1.248 . S
C831 Tb767 2.802 . S
C831 O806 1.264 . S
C831 O809 1.256 . S
C831 C824 1.496 . S
H832 C815 0.929 . S
H833 C816 0.929 . S
H834 C817 0.929 . S
H835 C818 0.931 . S
H836 C826 0.929 . S
H837 C827 0.929 . S
H838 C828 0.931 . S
H839 C829 0.929 . S
Tb840 N869 2.617 . S
Tb840 N875 2.572 . S
Tb840 O884 2.465 . S
Tb840 O885 2.387 1_556 S
Tb840 O887 2.428 . S
Tb840 O888 2.308 . S
Tb840 O892 2.349 1_556 S
Tb840 O895 2.393 1_556 S
Tb840 C904 2.802 . S
C841 N842 1.373 1_545 S
C841 C844 1.397 1_545 S
C841 C848 1.449 . S
N842 C841 1.373 1_565 S
N842 C845 1.334 . S
N842 Tb851 2.617 1_565 S
C843 C845 1.390 . S
C843 C846 1.339 . S
C843 H863 0.930 . S
C844 C841 1.397 1_565 S
C844 C846 1.416 . S
C844 C850 1.442 1_565 S
C845 N842 1.334 . S
C845 C843 1.390 . S
C845 H856 0.930 . S
C846 C843 1.339 . S
C846 C844 1.416 . S
C846 H867 0.930 . S
C847 C848 1.413 . S
C847 C849 1.427 . S
C847 C853 1.416 . S
C848 C841 1.449 . S
C848 C847 1.413 . S
C848 N852 1.361 . S
C849 C847 1.427 . S
C849 C850 1.351 . S
C849 H864 0.929 . S
C850 C844 1.442 1_545 S
C850 C849 1.351 . S
C850 H865 0.914 1_545 S
Tb851 N842 2.617 1_545 S
Tb851 N852 2.572 . S
Tb851 O886 2.349 . S
Tb851 O889 2.393 1_545 S
Tb851 O890 2.465 . S
Tb851 O891 2.387 . S
Tb851 O893 2.428 1_545 S
Tb851 O894 2.308 . S
Tb851 C915 2.802 . S
N852 C848 1.361 . S
N852 Tb851 2.572 . S
N852 C854 1.340 . S
C853 C847 1.416 . S
C853 C855 1.332 . S
C853 H861 0.931 . S
C854 N852 1.340 . S
C854 C855 1.407 . S
C854 H860 0.930 . S
C855 C853 1.332 . S
C855 C854 1.407 . S
C855 H857 0.929 . S
H856 C845 0.930 . S
H857 C855 0.929 . S
H858 C873 0.907 1_554 S
H859 C880 0.929 . S
H860 C854 0.930 . S
H861 C853 0.931 . S
H862 C876 0.930 1_565 S
H863 C843 0.930 . S
H864 C849 0.929 . S
H865 C850 0.914 1_565 S
H866 C871 0.930 . S
H867 C846 0.930 . S
H868 C879 0.931 1_565 S
N869 Tb840 2.617 . S
N869 C870 1.379 . S
N869 C873 1.334 . S
C870 N869 1.379 . S
C870 C872 1.416 . S
C870 C878 1.424 . S
C871 H866 0.930 . S
C871 C873 1.390 . S
C871 C874 1.339 . S
C872 C870 1.416 . S
C872 C874 1.416 . S
C872 C905 1.448 . S
C873 H858 0.907 1_556 S
C873 N869 1.334 . S
C873 C871 1.390 . S
C874 C871 1.339 . S
C874 C872 1.416 . S
C874 H881 0.930 . S
N875 Tb840 2.572 . S
N875 C876 1.340 . S
N875 C878 1.361 . S
C876 H862 0.930 1_545 S
C876 N875 1.340 . S
C876 C880 1.407 1_545 S
C877 C878 1.413 . S
C877 C879 1.416 . S
C877 C906 1.427 . S
C878 C870 1.424 . S
C878 N875 1.361 . S
C878 C877 1.413 . S
C879 H868 0.931 1_545 S
C879 C877 1.416 . S
C879 C880 1.332 1_545 S
C880 H859 0.929 . S
C880 C876 1.407 1_565 S
C880 C879 1.332 1_565 S
H881 C874 0.930 . S
H882 C905 0.930 . S
H883 C906 0.929 . S
O884 Tb840 2.465 . S
O884 C904 1.264 . S
O885 Tb840 2.387 1_554 S
O885 C896 1.264 . S
O886 Tb851 2.349 . S
O886 C896 1.243 . S
O887 Tb840 2.428 . S
O887 C904 1.256 . S
O888 Tb840 2.308 . S
O888 C903 1.266 1_546 S
O889 Tb851 2.393 1_565 S
O889 C903 1.248 . S
O890 Tb851 2.465 . S
O890 C915 1.264 . S
O891 Tb851 2.387 . S
O891 C907 1.264 . S
O892 Tb840 2.349 1_554 S
O892 C907 1.243 . S
O893 Tb851 2.428 1_565 S
O893 C915 1.256 1_565 S
O894 Tb851 2.308 . S
O894 C914 1.266 . S
O895 Tb840 2.393 1_554 S
O895 C914 1.248 . S
C896 O885 1.264 . S
C896 O886 1.243 . S
C897 C900 1.399 . S
C897 C902 1.383 . S
C897 C904 1.496 . S
C898 C899 1.399 . S
C898 C902 1.389 . S
C899 C898 1.399 . S
C899 C901 1.380 . S
C899 H916 0.929 . S
C900 C897 1.399 . S
C900 C901 1.392 . S
C900 H917 0.929 . S
C901 C899 1.380 . S
C901 C900 1.392 . S
C901 H918 0.929 . S
C902 C897 1.383 . S
C902 C898 1.389 . S
C902 H919 0.931 . S
C903 O888 1.266 1_564 S
C903 O889 1.248 . S
C904 Tb840 2.802 . S
C904 O884 1.264 . S
C904 O887 1.256 . S
C904 C897 1.496 . S
C905 C872 1.448 . S
C905 H882 0.930 . S
C905 C906 1.328 . S
C906 C877 1.427 . S
C906 H883 0.929 . S
C906 C905 1.328 . S
C907 O891 1.264 . S
C907 O892 1.243 . S
C908 C911 1.399 . S
C908 C912 1.383 1_565 S
C908 C915 1.496 1_565 S
C909 C910 1.399 1_545 S
C909 C912 1.389 . S
C910 C909 1.399 1_565 S
C910 C913 1.380 . S
C910 H920 0.929 . S
C911 C908 1.399 . S
C911 C913 1.392 . S
C911 H921 0.929 . S
C912 C908 1.383 1_545 S
C912 C909 1.389 . S
C912 H922 0.931 . S
C913 C910 1.380 . S
C913 C911 1.392 . S
C913 H923 0.929 . S
C914 O894 1.266 . S
C914 O895 1.248 . S
C915 Tb851 2.802 . S
C915 O890 1.264 . S
C915 O893 1.256 1_545 S
C915 C908 1.496 1_545 S
H916 C899 0.929 . S
H917 C900 0.929 . S
H918 C901 0.929 . S
H919 C902 0.931 . S
H920 C910 0.929 . S
H921 C911 0.929 . S
H922 C912 0.931 . S
H923 C913 0.929 . S
Tb924 N953 2.617 . S
Tb924 N959 2.572 . S
Tb924 O968 2.465 . S
Tb924 O969 2.387 . S
Tb924 O971 2.428 . S
Tb924 O972 2.308 . S
Tb924 O976 2.349 . S
Tb924 O979 2.393 . S
Tb924 C988 2.802 . S
C925 N926 1.379 . S
C925 C928 1.416 . S
C925 C932 1.424 . S
N926 C925 1.379 . S
N926 C929 1.334 . S
N926 Tb935 2.617 . S
C927 C929 1.390 . S
C927 C930 1.339 . S
C927 H947 0.930 . S
C928 C925 1.416 . S
C928 C930 1.416 . S
C928 C934 1.448 . S
C929 N926 1.334 . S
C929 C927 1.390 . S
C929 H940 0.930 . S
C930 C927 1.339 . S
C930 C928 1.416 . S
C930 H951 0.930 . S
C931 C932 1.413 . S
C931 C933 1.427 . S
C931 C937 1.416 . S
C932 C925 1.424 . S
C932 C931 1.413 . S
C932 N936 1.361 . S
C933 C931 1.427 . S
C933 C934 1.328 . S
C933 H948 0.929 . S
C934 C928 1.448 . S
C934 C933 1.328 . S
C934 H949 0.930 . S
Tb935 N926 2.617 . S
Tb935 N936 2.572 . S
Tb935 O970 2.349 . S
Tb935 O973 2.393 . S
Tb935 O974 2.465 . S
Tb935 O975 2.387 . S
Tb935 O977 2.428 . S
Tb935 O978 2.308 . S
Tb935 C999 2.802 . S
N936 C932 1.361 . S
N936 Tb935 2.572 . S
N936 C938 1.340 . S
C937 C931 1.416 . S
C937 C939 1.332 . S
C937 H945 0.931 . S
C938 N936 1.340 . S
C938 C939 1.407 . S
C938 H944 0.930 . S
C939 C937 1.332 . S
C939 C938 1.407 . S
C939 H941 0.929 . S
H940 C929 0.930 . S
H941 C939 0.929 . S
H942 C957 0.930 . S
H943 C964 0.929 . S
H944 C938 0.930 . S
H945 C937 0.931 . S
H946 C960 0.930 . S
H947 C927 0.930 . S
H948 C933 0.929 . S
H949 C934 0.930 . S
H950 C955 0.930 . S
H951 C930 0.930 . S
H952 C963 0.931 . S
N953 Tb924 2.617 . S
N953 C954 1.379 . S
N953 C957 1.334 . S
C954 N953 1.379 . S
C954 C956 1.416 . S
C954 C962 1.424 . S
C955 H950 0.930 . S
C955 C957 1.390 . S
C955 C958 1.339 . S
C956 C954 1.416 . S
C956 C958 1.416 . S
C956 C989 1.448 . S
C957 H942 0.930 . S
C957 N953 1.334 . S
C957 C955 1.390 . S
C958 C955 1.339 . S
C958 C956 1.416 . S
C958 H965 0.930 . S
N959 Tb924 2.572 . S
N959 C960 1.340 . S
N959 C962 1.361 . S
C960 H946 0.930 . S
C960 N959 1.340 . S
C960 C964 1.407 . S
C961 C962 1.413 . S
C961 C963 1.416 . S
C961 C990 1.427 . S
C962 C954 1.424 . S
C962 N959 1.361 . S
C962 C961 1.413 . S
C963 H952 0.931 . S
C963 C961 1.416 . S
C963 C964 1.332 . S
C964 H943 0.929 . S
C964 C960 1.407 . S
C964 C963 1.332 . S
H965 C958 0.930 . S
H966 C989 0.930 . S
H967 C990 0.929 . S
O968 Tb924 2.465 . S
O968 C988 1.264 . S
O969 Tb924 2.387 . S
O969 C980 1.264 . S
O970 Tb935 2.349 . S
O970 C980 1.243 . S
O971 Tb924 2.428 . S
O971 C988 1.256 . S
O972 Tb924 2.308 . S
O972 C987 1.266 . S
O973 Tb935 2.393 . S
O973 C987 1.248 . S
O974 Tb935 2.465 . S
O974 C999 1.264 . S
O975 Tb935 2.387 . S
O975 C991 1.264 . S
O976 Tb924 2.349 . S
O976 C991 1.243 . S
O977 Tb935 2.428 . S
O977 C999 1.256 . S
O978 Tb935 2.308 . S
O978 C998 1.266 . S
O979 Tb924 2.393 . S
O979 C998 1.248 . S
C980 O969 1.264 . S
C980 O970 1.243 . S
C981 C984 1.399 . S
C981 C986 1.383 . S
C981 C988 1.496 . S
C982 C983 1.399 . S
C982 C986 1.389 . S
C983 C982 1.399 . S
C983 C985 1.380 . S
C983 H1000 0.929 . S
C984 C981 1.399 . S
C984 C985 1.392 . S
C984 H1001 0.929 . S
C985 C983 1.380 . S
C985 C984 1.392 . S
C985 H1002 0.929 . S
C986 C981 1.383 . S
C986 C982 1.389 . S
C986 H1003 0.931 . S
C987 O972 1.266 . S
C987 O973 1.248 . S
C988 Tb924 2.802 . S
C988 O968 1.264 . S
C988 O971 1.256 . S
C988 C981 1.496 . S
C989 C956 1.448 . S
C989 H966 0.930 . S
C989 C990 1.328 . S
C990 C961 1.427 . S
C990 H967 0.929 . S
C990 C989 1.328 . S
C991 O975 1.264 . S
C991 O976 1.243 . S
C992 C995 1.399 . S
C992 C996 1.383 . S
C992 C999 1.496 . S
C993 C994 1.399 . S
C993 C996 1.389 . S
C994 C993 1.399 . S
C994 C997 1.380 . S
C994 H1004 0.929 . S
C995 C992 1.399 . S
C995 C997 1.392 . S
C995 H1005 0.929 . S
C996 C992 1.383 . S
C996 C993 1.389 . S
C996 H1006 0.931 . S
C997 C994 1.380 . S
C997 C995 1.392 . S
C997 H1007 0.929 . S
C998 O978 1.266 . S
C998 O979 1.248 . S
C999 Tb935 2.802 . S
C999 O974 1.264 . S
C999 O977 1.256 . S
C999 C992 1.496 . S
H1000 C983 0.929 . S
H1001 C984 0.929 . S
H1002 C985 0.929 . S
H1003 C986 0.931 . S
H1004 C994 0.929 . S
H1005 C995 0.929 . S
H1006 C996 0.931 . S
H1007 C997 0.929 . S
Tb1008 N1037 2.617 1_554 S
Tb1008 N1043 2.572 1_554 S
Tb1008 O1052 2.465 . S
Tb1008 O1053 2.387 1_554 S
Tb1008 O1055 2.428 . S
Tb1008 O1056 2.308 . S
Tb1008 O1060 2.349 . S
Tb1008 O1063 2.393 . S
Tb1008 C1072 2.802 . S
C1009 N1010 1.379 . S
C1009 C1012 1.416 . S
C1009 C1016 1.424 . S
N1010 C1009 1.379 . S
N1010 C1013 1.334 . S
N1010 Tb1019 2.617 . S
C1011 C1013 1.390 . S
C1011 C1014 1.339 . S
C1011 H1031 0.930 . S
C1012 C1009 1.416 . S
C1012 C1014 1.416 . S
C1012 C1018 1.448 . S
C1013 N1010 1.334 . S
C1013 C1011 1.390 . S
C1013 H1024 0.930 . S
C1014 C1011 1.339 . S
C1014 C1012 1.416 . S
C1014 H1035 0.930 . S
C1015 C1016 1.413 . S
C1015 C1017 1.427 . S
C1015 C1021 1.416 . S
C1016 C1009 1.424 . S
C1016 C1015 1.413 . S
C1016 N1020 1.361 . S
C1017 C1015 1.427 . S
C1017 C1018 1.328 . S
C1017 H1032 0.929 . S
C1018 C1012 1.448 . S
C1018 C1017 1.328 . S
C1018 H1033 0.930 . S
Tb1019 N1010 2.617 . S
Tb1019 N1020 2.572 . S
Tb1019 O1054 2.349 1_554 S
Tb1019 O1057 2.393 . S
Tb1019 O1058 2.465 . S
Tb1019 O1059 2.387 . S
Tb1019 O1061 2.428 . S
Tb1019 O1062 2.308 . S
Tb1019 C1083 2.802 . S
N1020 C1016 1.361 . S
N1020 Tb1019 2.572 . S
N1020 C1022 1.340 . S
C1021 C1015 1.416 . S
C1021 C1023 1.332 . S
C1021 H1029 0.931 . S
C1022 N1020 1.340 . S
C1022 C1023 1.407 . S
C1022 H1028 0.930 . S
C1023 C1021 1.332 . S
C1023 C1022 1.407 . S
C1023 H1025 0.929 . S
H1024 C1013 0.930 . S
H1025 C1023 0.929 . S
H1026 C1041 0.893 1_554 S
H1027 C1048 0.929 . S
H1028 C1022 0.930 . S
H1029 C1021 0.931 . S
H1030 C1044 0.937 . S
H1031 C1011 0.930 . S
H1032 C1017 0.929 . S
H1033 C1018 0.930 . S
H1034 C1039 0.930 . S
H1035 C1014 0.930 . S
H1036 C1047 0.931 . S
N1037 Tb1008 2.617 1_556 S
N1037 C1038 1.379 . S
N1037 C1041 1.334 . S
C1038 N1037 1.379 . S
C1038 C1040 1.416 . S
C1038 C1046 1.424 . S
C1039 H1034 0.930 . S
C1039 C1041 1.390 . S
C1039 C1042 1.339 . S
C1040 C1038 1.416 . S
C1040 C1042 1.416 . S
C1040 C1073 1.448 . S
C1041 H1026 0.893 1_556 S
C1041 N1037 1.334 . S
C1041 C1039 1.390 . S
C1042 C1039 1.339 . S
C1042 C1040 1.416 . S
C1042 H1049 0.930 . S
N1043 Tb1008 2.572 1_556 S
N1043 C1044 1.340 . S
N1043 C1046 1.361 . S
C1044 H1030 0.937 . S
C1044 N1043 1.340 . S
C1044 C1048 1.407 . S
C1045 C1046 1.413 . S
C1045 C1047 1.416 . S
C1045 C1074 1.427 . S
C1046 C1038 1.424 . S
C1046 N1043 1.361 . S
C1046 C1045 1.413 . S
C1047 H1036 0.931 . S
C1047 C1045 1.416 . S
C1047 C1048 1.332 . S
C1048 H1027 0.929 . S
C1048 C1044 1.407 . S
C1048 C1047 1.332 . S
H1049 C1042 0.930 . S
H1050 C1073 0.930 . S
H1051 C1074 0.929 . S
O1052 Tb1008 2.465 . S
O1052 C1072 1.264 . S
O1053 Tb1008 2.387 1_556 S
O1053 C1064 1.264 . S
O1054 Tb1019 2.349 1_556 S
O1054 C1064 1.243 . S
O1055 Tb1008 2.428 . S
O1055 C1072 1.256 . S
O1056 Tb1008 2.308 . S
O1056 C1071 1.266 . S
O1057 Tb1019 2.393 . S
O1057 C1071 1.248 . S
O1058 Tb1019 2.465 . S
O1058 C1083 1.264 . S
O1059 Tb1019 2.387 . S
O1059 C1075 1.264 . S
O1060 Tb1008 2.349 . S
O1060 C1075 1.243 . S
O1061 Tb1019 2.428 . S
O1061 C1083 1.256 . S
O1062 Tb1019 2.308 . S
O1062 C1082 1.266 . S
O1063 Tb1008 2.393 . S
O1063 C1082 1.248 . S
C1064 O1053 1.264 . S
C1064 O1054 1.243 . S
C1065 C1068 1.399 . S
C1065 C1070 1.383 . S
C1065 C1072 1.496 . S
C1066 C1067 1.399 . S
C1066 C1070 1.389 . S
C1067 C1066 1.399 . S
C1067 C1069 1.380 . S
C1067 H1084 0.929 . S
C1068 C1065 1.399 . S
C1068 C1069 1.392 . S
C1068 H1085 0.929 . S
C1069 C1067 1.380 . S
C1069 C1068 1.392 . S
C1069 H1086 0.929 . S
C1070 C1065 1.383 . S
C1070 C1066 1.389 . S
C1070 H1087 0.931 . S
C1071 O1056 1.266 . S
C1071 O1057 1.248 . S
C1072 Tb1008 2.802 . S
C1072 O1052 1.264 . S
C1072 O1055 1.256 . S
C1072 C1065 1.496 . S
C1073 C1040 1.448 . S
C1073 H1050 0.930 . S
C1073 C1074 1.328 . S
C1074 C1045 1.427 . S
C1074 H1051 0.929 . S
C1074 C1073 1.328 . S
C1075 O1059 1.264 . S
C1075 O1060 1.243 . S
C1076 C1079 1.399 . S
C1076 C1080 1.383 . S
C1076 C1083 1.496 1_556 S
C1077 C1078 1.399 . S
C1077 C1080 1.389 . S
C1078 C1077 1.399 . S
C1078 C1081 1.380 . S
C1078 H1088 0.929 . S
C1079 C1076 1.399 . S
C1079 C1081 1.392 . S
C1079 H1089 0.929 . S
C1080 C1076 1.383 . S
C1080 C1077 1.389 . S
C1080 H1090 0.931 . S
C1081 C1078 1.380 . S
C1081 C1079 1.392 . S
C1081 H1091 0.929 . S
C1082 O1062 1.266 . S
C1082 O1063 1.248 . S
C1083 Tb1019 2.802 . S
C1083 O1058 1.264 . S
C1083 O1061 1.256 . S
C1083 C1076 1.496 1_554 S
H1084 C1067 0.929 . S
H1085 C1068 0.929 . S
H1086 C1069 0.929 . S
H1087 C1070 0.931 . S
H1088 C1078 0.929 . S
H1089 C1079 0.929 . S
H1090 C1080 0.931 . S
H1091 C1081 0.929 . S
Tb1092 N1121 2.617 . S
Tb1092 N1127 2.572 . S
Tb1092 O1136 2.465 . S
Tb1092 O1137 2.387 . S
Tb1092 O1139 2.428 . S
Tb1092 O1140 2.308 . S
Tb1092 O1144 2.349 . S
Tb1092 O1147 2.393 . S
Tb1092 C1156 2.802 . S
C1093 N1094 1.379 . S
C1093 C1096 1.416 . S
C1093 C1100 1.424 . S
N1094 C1093 1.379 . S
N1094 C1097 1.334 . S
N1094 Tb1103 2.617 . S
C1095 C1097 1.390 . S
C1095 C1098 1.339 . S
C1095 H1115 0.930 . S
C1096 C1093 1.416 . S
C1096 C1098 1.416 . S
C1096 C1102 1.448 . S
C1097 N1094 1.334 . S
C1097 C1095 1.390 . S
C1097 H1108 0.930 . S
C1098 C1095 1.339 . S
C1098 C1096 1.416 . S
C1098 H1119 0.930 . S
C1099 C1100 1.413 . S
C1099 C1101 1.427 . S
C1099 C1105 1.416 . S
C1100 C1093 1.424 . S
C1100 C1099 1.413 . S
C1100 N1104 1.361 . S
C1101 C1099 1.427 . S
C1101 C1102 1.328 . S
C1101 H1116 0.929 . S
C1102 C1096 1.448 . S
C1102 C1101 1.328 . S
C1102 H1117 0.930 . S
Tb1103 N1094 2.617 . S
Tb1103 N1104 2.572 . S
Tb1103 O1138 2.349 . S
Tb1103 O1141 2.393 . S
Tb1103 O1142 2.465 . S
Tb1103 O1143 2.387 . S
Tb1103 O1145 2.428 . S
Tb1103 O1146 2.308 . S
Tb1103 C1167 2.802 . S
N1104 C1100 1.361 . S
N1104 Tb1103 2.572 . S
N1104 C1106 1.340 . S
C1105 C1099 1.416 . S
C1105 C1107 1.332 . S
C1105 H1113 0.931 . S
C1106 N1104 1.340 . S
C1106 C1107 1.407 . S
C1106 H1112 0.930 . S
C1107 C1105 1.332 . S
C1107 C1106 1.407 . S
C1107 H1109 0.929 . S
H1108 C1097 0.930 . S
H1109 C1107 0.929 . S
H1110 C1125 0.930 . S
H1111 C1132 0.929 . S
H1112 C1106 0.930 . S
H1113 C1105 0.931 . S
H1114 C1128 0.930 . S
H1115 C1095 0.930 . S
H1116 C1101 0.929 . S
H1117 C1102 0.930 . S
H1118 C1123 0.930 . S
H1119 C1098 0.930 . S
H1120 C1131 0.931 . S
N1121 Tb1092 2.617 . S
N1121 C1122 1.379 . S
N1121 C1125 1.334 . S
C1122 N1121 1.379 . S
C1122 C1124 1.416 . S
C1122 C1130 1.424 . S
C1123 H1118 0.930 . S
C1123 C1125 1.390 . S
C1123 C1126 1.339 . S
C1124 C1122 1.416 . S
C1124 C1126 1.416 . S
C1124 C1157 1.448 . S
C1125 H1110 0.930 . S
C1125 N1121 1.334 . S
C1125 C1123 1.390 . S
C1126 C1123 1.339 . S
C1126 C1124 1.416 . S
C1126 H1133 0.930 . S
N1127 Tb1092 2.572 . S
N1127 C1128 1.340 . S
N1127 C1130 1.361 . S
C1128 H1114 0.930 . S
C1128 N1127 1.340 . S
C1128 C1132 1.407 . S
C1129 C1130 1.413 . S
C1129 C1131 1.416 . S
C1129 C1158 1.427 . S
C1130 C1122 1.424 . S
C1130 N1127 1.361 . S
C1130 C1129 1.413 . S
C1131 H1120 0.931 . S
C1131 C1129 1.416 . S
C1131 C1132 1.332 . S
C1132 H1111 0.929 . S
C1132 C1128 1.407 . S
C1132 C1131 1.332 . S
H1133 C1126 0.930 . S
H1134 C1157 0.930 . S
H1135 C1158 0.929 . S
O1136 Tb1092 2.465 . S
O1136 C1156 1.264 . S
O1137 Tb1092 2.387 . S
O1137 C1148 1.264 . S
O1138 Tb1103 2.349 . S
O1138 C1148 1.243 . S
O1139 Tb1092 2.428 . S
O1139 C1156 1.256 . S
O1140 Tb1092 2.308 . S
O1140 C1155 1.266 . S
O1141 Tb1103 2.393 . S
O1141 C1155 1.248 . S
O1142 Tb1103 2.465 . S
O1142 C1167 1.264 . S
O1143 Tb1103 2.387 . S
O1143 C1159 1.264 . S
O1144 Tb1092 2.349 . S
O1144 C1159 1.243 . S
O1145 Tb1103 2.428 . S
O1145 C1167 1.256 . S
O1146 Tb1103 2.308 . S
O1146 C1166 1.266 . S
O1147 Tb1092 2.393 . S
O1147 C1166 1.248 . S
C1148 O1137 1.264 . S
C1148 O1138 1.243 . S
C1149 C1152 1.399 . S
C1149 C1154 1.383 . S
C1149 C1156 1.496 . S
C1150 C1151 1.399 . S
C1150 C1154 1.389 . S
C1151 C1150 1.399 . S
C1151 C1153 1.380 . S
C1151 H1168 0.929 . S
C1152 C1149 1.399 . S
C1152 C1153 1.392 . S
C1152 H1169 0.929 . S
C1153 C1151 1.380 . S
C1153 C1152 1.392 . S
C1153 H1170 0.929 . S
C1154 C1149 1.383 . S
C1154 C1150 1.389 . S
C1154 H1171 0.931 . S
C1155 O1140 1.266 . S
C1155 O1141 1.248 . S
C1156 Tb1092 2.802 . S
C1156 O1136 1.264 . S
C1156 O1139 1.256 . S
C1156 C1149 1.496 . S
C1157 C1124 1.448 . S
C1157 H1134 0.930 . S
C1157 C1158 1.328 . S
C1158 C1129 1.427 . S
C1158 H1135 0.929 . S
C1158 C1157 1.328 . S
C1159 O1143 1.264 . S
C1159 O1144 1.243 . S
C1160 C1163 1.399 . S
C1160 C1164 1.383 . S
C1160 C1167 1.496 . S
C1161 C1162 1.399 . S
C1161 C1164 1.389 . S
C1162 C1161 1.399 . S
C1162 C1165 1.380 . S
C1162 H1172 0.929 . S
C1163 C1160 1.399 . S
C1163 C1165 1.392 . S
C1163 H1173 0.929 . S
C1164 C1160 1.383 . S
C1164 C1161 1.389 . S
C1164 H1174 0.931 . S
C1165 C1162 1.380 . S
C1165 C1163 1.392 . S
C1165 H1175 0.929 . S
C1166 O1146 1.266 . S
C1166 O1147 1.248 . S
C1167 Tb1103 2.802 . S
C1167 O1142 1.264 . S
C1167 O1145 1.256 . S
C1167 C1160 1.496 . S
H1168 C1151 0.929 . S
H1169 C1152 0.929 . S
H1170 C1153 0.929 . S
H1171 C1154 0.931 . S
H1172 C1162 0.929 . S
H1173 C1163 0.929 . S
H1174 C1164 0.931 . S
H1175 C1165 0.929 . S
Tb1176 N1205 2.617 1_455 S
Tb1176 N1211 2.572 1_455 S
Tb1176 O1220 2.465 . S
Tb1176 O1221 2.387 1_455 S
Tb1176 O1223 2.428 . S
Tb1176 O1224 2.308 . S
Tb1176 O1228 2.349 . S
Tb1176 O1231 2.393 . S
Tb1176 C1240 2.802 . S
C1177 N1178 1.379 . S
C1177 C1180 1.416 . S
C1177 C1184 1.424 . S
N1178 C1177 1.379 . S
N1178 C1181 1.334 . S
N1178 Tb1187 2.617 . S
C1179 C1181 1.390 . S
C1179 C1182 1.339 . S
C1179 H1199 0.930 . S
C1180 C1177 1.416 . S
C1180 C1182 1.416 . S
C1180 C1186 1.448 . S
C1181 N1178 1.334 . S
C1181 C1179 1.390 . S
C1181 H1192 0.930 . S
C1182 C1179 1.339 . S
C1182 C1180 1.416 . S
C1182 H1203 0.930 . S
C1183 C1184 1.413 . S
C1183 C1185 1.427 . S
C1183 C1189 1.416 . S
C1184 C1177 1.424 . S
C1184 C1183 1.413 . S
C1184 N1188 1.361 . S
C1185 C1183 1.427 . S
C1185 C1186 1.328 . S
C1185 H1200 0.929 . S
C1186 C1180 1.448 . S
C1186 C1185 1.328 . S
C1186 H1201 0.930 . S
Tb1187 N1178 2.617 . S
Tb1187 N1188 2.572 . S
Tb1187 O1222 2.349 1_455 S
Tb1187 O1225 2.393 . S
Tb1187 O1226 2.465 . S
Tb1187 O1227 2.387 . S
Tb1187 O1229 2.428 . S
Tb1187 O1230 2.308 . S
Tb1187 C1251 2.802 . S
N1188 C1184 1.361 . S
N1188 Tb1187 2.572 . S
N1188 C1190 1.340 . S
C1189 C1183 1.416 . S
C1189 C1191 1.332 . S
C1189 H1197 0.931 . S
C1190 N1188 1.340 . S
C1190 C1191 1.407 . S
C1190 H1196 0.930 . S
C1191 C1189 1.332 . S
C1191 C1190 1.407 . S
C1191 H1193 0.929 . S
H1192 C1181 0.930 . S
H1193 C1191 0.929 . S
H1194 C1209 0.901 1_455 S
H1195 C1216 0.929 . S
H1196 C1190 0.930 . S
H1197 C1189 0.931 . S
H1198 C1212 0.930 1_455 S
H1199 C1179 0.930 . S
H1200 C1185 0.929 . S
H1201 C1186 0.930 . S
H1202 C1207 0.930 . S
H1203 C1182 0.930 . S
H1204 C1215 0.931 . S
N1205 Tb1176 2.617 1_655 S
N1205 C1206 1.379 . S
N1205 C1209 1.327 . S
C1206 N1205 1.379 . S
C1206 C1208 1.416 . S
C1206 C1214 1.424 . S
C1207 H1202 0.930 . S
C1207 C1209 1.427 . S
C1207 C1210 1.339 . S
C1208 C1206 1.416 . S
C1208 C1210 1.416 . S
C1208 C1241 1.448 . S
C1209 H1194 0.901 1_655 S
C1209 N1205 1.327 . S
C1209 C1207 1.427 . S
C1210 C1207 1.339 . S
C1210 C1208 1.416 . S
C1210 H1217 0.930 . S
N1211 Tb1176 2.572 1_655 S
N1211 C1212 1.340 . S
N1211 C1214 1.361 . S
C1212 H1198 0.930 1_655 S
C1212 N1211 1.340 . S
C1212 C1216 1.407 . S
C1213 C1214 1.413 . S
C1213 C1215 1.416 . S
C1213 C1242 1.427 . S
C1214 C1206 1.424 . S
C1214 N1211 1.361 . S
C1214 C1213 1.413 . S
C1215 H1204 0.931 . S
C1215 C1213 1.416 . S
C1215 C1216 1.332 . S
C1216 H1195 0.929 . S
C1216 C1212 1.407 . S
C1216 C1215 1.332 . S
H1217 C1210 0.930 . S
H1218 C1241 0.930 . S
H1219 C1242 0.929 . S
O1220 Tb1176 2.465 . S
O1220 C1240 1.264 . S
O1221 Tb1176 2.387 1_655 S
O1221 C1232 1.264 . S
O1222 Tb1187 2.349 1_655 S
O1222 C1232 1.243 . S
O1223 Tb1176 2.428 . S
O1223 C1240 1.256 . S
O1224 Tb1176 2.308 . S
O1224 C1239 1.266 . S
O1225 Tb1187 2.393 . S
O1225 C1239 1.248 . S
O1226 Tb1187 2.465 . S
O1226 C1251 1.264 . S
O1227 Tb1187 2.387 . S
O1227 C1243 1.264 . S
O1228 Tb1176 2.349 . S
O1228 C1243 1.243 . S
O1229 Tb1187 2.428 . S
O1229 C1251 1.256 . S
O1230 Tb1187 2.308 . S
O1230 C1250 1.266 . S
O1231 Tb1176 2.393 . S
O1231 C1250 1.248 . S
C1232 O1221 1.264 . S
C1232 O1222 1.243 . S
C1233 C1236 1.399 . S
C1233 C1238 1.383 . S
C1233 C1240 1.496 . S
C1234 C1235 1.399 . S
C1234 C1238 1.389 . S
C1235 C1234 1.399 . S
C1235 C1237 1.380 . S
C1235 H1252 0.929 . S
C1236 C1233 1.399 . S
C1236 C1237 1.392 . S
C1236 H1253 0.929 . S
C1237 C1235 1.380 . S
C1237 C1236 1.392 . S
C1237 H1254 0.929 . S
C1238 C1233 1.383 . S
C1238 C1234 1.389 . S
C1238 H1255 0.931 . S
C1239 O1224 1.266 . S
C1239 O1225 1.248 . S
C1240 Tb1176 2.802 . S
C1240 O1220 1.264 . S
C1240 O1223 1.256 . S
C1240 C1233 1.496 . S
C1241 C1208 1.448 . S
C1241 H1218 0.930 . S
C1241 C1242 1.328 . S
C1242 C1213 1.427 . S
C1242 H1219 0.929 . S
C1242 C1241 1.328 . S
C1243 O1227 1.264 . S
C1243 O1228 1.243 . S
C1244 C1247 1.399 . S
C1244 C1248 1.383 . S
C1244 C1251 1.496 1_655 S
C1245 C1246 1.399 . S
C1245 C1248 1.389 . S
C1246 C1245 1.399 . S
C1246 C1249 1.380 . S
C1246 H1256 0.929 . S
C1247 C1244 1.399 . S
C1247 C1249 1.392 . S
C1247 H1257 0.929 . S
C1248 C1244 1.383 . S
C1248 C1245 1.389 . S
C1248 H1258 0.931 . S
C1249 C1246 1.380 . S
C1249 C1247 1.392 . S
C1249 H1259 0.929 . S
C1250 O1230 1.266 . S
C1250 O1231 1.248 . S
C1251 Tb1187 2.802 . S
C1251 O1226 1.264 . S
C1251 O1229 1.256 . S
C1251 C1244 1.496 1_455 S
H1252 C1235 0.929 . S
H1253 C1236 0.929 . S
H1254 C1237 0.929 . S
H1255 C1238 0.931 . S
H1256 C1246 0.929 . S
H1257 C1247 0.929 . S
H1258 C1248 0.931 . S
H1259 C1249 0.929 . S
Tb1260 N1289 2.617 . S
Tb1260 N1295 2.572 . S
Tb1260 O1304 2.465 . S
Tb1260 O1305 2.387 . S
Tb1260 O1307 2.428 . S
Tb1260 O1308 2.308 . S
Tb1260 O1312 2.349 . S
Tb1260 O1315 2.393 . S
Tb1260 C1324 2.802 . S
C1261 N1262 1.379 . S
C1261 C1264 1.416 . S
C1261 C1268 1.424 . S
N1262 C1261 1.379 . S
N1262 C1265 1.334 . S
N1262 Tb1271 2.617 . S
C1263 C1265 1.390 . S
C1263 C1266 1.339 . S
C1263 H1283 0.930 . S
C1264 C1261 1.416 . S
C1264 C1266 1.416 . S
C1264 C1270 1.448 . S
C1265 N1262 1.334 . S
C1265 C1263 1.390 . S
C1265 H1276 0.930 . S
C1266 C1263 1.339 . S
C1266 C1264 1.416 . S
C1266 H1287 0.930 . S
C1267 C1268 1.413 . S
C1267 C1269 1.427 . S
C1267 C1273 1.416 . S
C1268 C1261 1.424 . S
C1268 C1267 1.413 . S
C1268 N1272 1.361 . S
C1269 C1267 1.427 . S
C1269 C1270 1.328 . S
C1269 H1284 0.929 . S
C1270 C1264 1.448 . S
C1270 C1269 1.328 . S
C1270 H1285 0.930 . S
Tb1271 N1262 2.617 . S
Tb1271 N1272 2.572 . S
Tb1271 O1306 2.349 . S
Tb1271 O1309 2.393 . S
Tb1271 O1310 2.465 . S
Tb1271 O1311 2.387 . S
Tb1271 O1313 2.428 . S
Tb1271 O1314 2.308 . S
Tb1271 C1335 2.802 . S
N1272 C1268 1.361 . S
N1272 Tb1271 2.572 . S
N1272 C1274 1.340 . S
C1273 C1267 1.416 . S
C1273 C1275 1.332 . S
C1273 H1281 0.931 . S
C1274 N1272 1.340 . S
C1274 C1275 1.407 . S
C1274 H1280 0.930 . S
C1275 C1273 1.332 . S
C1275 C1274 1.407 . S
C1275 H1277 0.929 . S
H1276 C1265 0.930 . S
H1277 C1275 0.929 . S
H1278 C1293 0.930 . S
H1279 C1300 0.929 . S
H1280 C1274 0.930 . S
H1281 C1273 0.931 . S
H1282 C1296 0.930 . S
H1283 C1263 0.930 . S
H1284 C1269 0.929 . S
H1285 C1270 0.930 . S
H1286 C1291 0.930 . S
H1287 C1266 0.930 . S
H1288 C1299 0.931 . S
N1289 Tb1260 2.617 . S
N1289 C1290 1.379 . S
N1289 C1293 1.334 . S
C1290 N1289 1.379 . S
C1290 C1292 1.416 . S
C1290 C1298 1.424 . S
C1291 H1286 0.930 . S
C1291 C1293 1.390 . S
C1291 C1294 1.339 . S
C1292 C1290 1.416 . S
C1292 C1294 1.416 . S
C1292 C1325 1.448 . S
C1293 H1278 0.930 . S
C1293 N1289 1.334 . S
C1293 C1291 1.390 . S
C1294 C1291 1.339 . S
C1294 C1292 1.416 . S
C1294 H1301 0.930 . S
N1295 Tb1260 2.572 . S
N1295 C1296 1.340 . S
N1295 C1298 1.361 . S
C1296 H1282 0.930 . S
C1296 N1295 1.340 . S
C1296 C1300 1.407 . S
C1297 C1298 1.413 . S
C1297 C1299 1.416 . S
C1297 C1326 1.427 . S
C1298 C1290 1.424 . S
C1298 N1295 1.361 . S
C1298 C1297 1.413 . S
C1299 H1288 0.931 . S
C1299 C1297 1.416 . S
C1299 C1300 1.332 . S
C1300 H1279 0.929 . S
C1300 C1296 1.407 . S
C1300 C1299 1.332 . S
H1301 C1294 0.930 . S
H1302 C1325 0.930 . S
H1303 C1326 0.929 . S
O1304 Tb1260 2.465 . S
O1304 C1324 1.264 . S
O1305 Tb1260 2.387 . S
O1305 C1316 1.264 . S
O1306 Tb1271 2.349 . S
O1306 C1316 1.243 . S
O1307 Tb1260 2.428 . S
O1307 C1324 1.256 . S
O1308 Tb1260 2.308 . S
O1308 C1323 1.266 . S
O1309 Tb1271 2.393 . S
O1309 C1323 1.248 . S
O1310 Tb1271 2.465 . S
O1310 C1335 1.264 . S
O1311 Tb1271 2.387 . S
O1311 C1327 1.264 . S
O1312 Tb1260 2.349 . S
O1312 C1327 1.243 . S
O1313 Tb1271 2.428 . S
O1313 C1335 1.256 . S
O1314 Tb1271 2.308 . S
O1314 C1334 1.266 . S
O1315 Tb1260 2.393 . S
O1315 C1334 1.248 . S
C1316 O1305 1.264 . S
C1316 O1306 1.243 . S
C1317 C1320 1.399 . S
C1317 C1322 1.383 . S
C1317 C1324 1.496 . S
C1318 C1319 1.399 . S
C1318 C1322 1.389 . S
C1319 C1318 1.399 . S
C1319 C1321 1.380 . S
C1319 H1336 0.929 . S
C1320 C1317 1.399 . S
C1320 C1321 1.392 . S
C1320 H1337 0.929 . S
C1321 C1319 1.380 . S
C1321 C1320 1.392 . S
C1321 H1338 0.929 . S
C1322 C1317 1.383 . S
C1322 C1318 1.389 . S
C1322 H1339 0.931 . S
C1323 O1308 1.266 . S
C1323 O1309 1.248 . S
C1324 Tb1260 2.802 . S
C1324 O1304 1.264 . S
C1324 O1307 1.256 . S
C1324 C1317 1.496 . S
C1325 C1292 1.448 . S
C1325 H1302 0.930 . S
C1325 C1326 1.328 . S
C1326 C1297 1.427 . S
C1326 H1303 0.929 . S
C1326 C1325 1.328 . S
C1327 O1311 1.264 . S
C1327 O1312 1.243 . S
C1328 C1331 1.399 . S
C1328 C1332 1.383 . S
C1328 C1335 1.496 . S
C1329 C1330 1.399 . S
C1329 C1332 1.389 . S
C1330 C1329 1.399 . S
C1330 C1333 1.380 . S
C1330 H1340 0.929 . S
C1331 C1328 1.399 . S
C1331 C1333 1.392 . S
C1331 H1341 0.929 . S
C1332 C1328 1.383 . S
C1332 C1329 1.389 . S
C1332 H1342 0.931 . S
C1333 C1330 1.380 . S
C1333 C1331 1.392 . S
C1333 H1343 0.929 . S
C1334 O1314 1.266 . S
C1334 O1315 1.248 . S
C1335 Tb1271 2.802 . S
C1335 O1310 1.264 . S
C1335 O1313 1.256 . S
C1335 C1328 1.496 . S
H1336 C1319 0.929 . S
H1337 C1320 0.929 . S
H1338 C1321 0.929 . S
H1339 C1322 0.931 . S
H1340 C1330 0.929 . S
H1341 C1331 0.929 . S
H1342 C1332 0.931 . S
H1343 C1333 0.929 . S
Tb1344 N1373 2.617 . S
Tb1344 N1379 2.572 . S
Tb1344 O1388 2.465 . S
Tb1344 O1389 2.387 . S
Tb1344 O1391 2.428 . S
Tb1344 O1392 2.308 . S
Tb1344 O1396 2.349 . S
Tb1344 O1399 2.393 . S
Tb1344 C1408 2.802 . S
C1345 N1346 1.379 . S
C1345 C1348 1.416 . S
C1345 C1352 1.424 . S
N1346 C1345 1.379 . S
N1346 C1349 1.334 . S
N1346 Tb1355 2.617 . S
C1347 C1349 1.390 . S
C1347 C1350 1.339 . S
C1347 H1367 0.930 . S
C1348 C1345 1.416 . S
C1348 C1350 1.416 . S
C1348 C1354 1.448 . S
C1349 N1346 1.334 . S
C1349 C1347 1.390 . S
C1349 H1360 0.930 . S
C1350 C1347 1.339 . S
C1350 C1348 1.416 . S
C1350 H1371 0.930 . S
C1351 C1352 1.413 . S
C1351 C1353 1.427 . S
C1351 C1357 1.416 . S
C1352 C1345 1.424 . S
C1352 C1351 1.413 . S
C1352 N1356 1.361 . S
C1353 C1351 1.427 . S
C1353 C1354 1.328 . S
C1353 H1368 0.929 . S
C1354 C1348 1.448 . S
C1354 C1353 1.328 . S
C1354 H1369 0.930 . S
Tb1355 N1346 2.617 . S
Tb1355 N1356 2.572 . S
Tb1355 O1390 2.349 . S
Tb1355 O1393 2.393 . S
Tb1355 O1394 2.465 . S
Tb1355 O1395 2.387 . S
Tb1355 O1397 2.428 . S
Tb1355 O1398 2.308 . S
Tb1355 C1419 2.802 . S
N1356 C1352 1.361 . S
N1356 Tb1355 2.572 . S
N1356 C1358 1.340 . S
C1357 C1351 1.416 . S
C1357 C1359 1.332 . S
C1357 H1365 0.931 . S
C1358 N1356 1.340 . S
C1358 C1359 1.407 . S
C1358 H1364 0.930 . S
C1359 C1357 1.332 . S
C1359 C1358 1.407 . S
C1359 H1361 0.929 . S
H1360 C1349 0.930 . S
H1361 C1359 0.929 . S
H1362 C1377 0.930 . S
H1363 C1384 0.929 . S
H1364 C1358 0.930 . S
H1365 C1357 0.931 . S
H1366 C1380 0.930 . S
H1367 C1347 0.930 . S
H1368 C1353 0.929 . S
H1369 C1354 0.930 . S
H1370 C1375 0.930 . S
H1371 C1350 0.930 . S
H1372 C1383 0.931 . S
N1373 Tb1344 2.617 . S
N1373 C1374 1.379 . S
N1373 C1377 1.334 . S
C1374 N1373 1.379 . S
C1374 C1376 1.416 . S
C1374 C1382 1.424 . S
C1375 H1370 0.930 . S
C1375 C1377 1.390 . S
C1375 C1378 1.339 . S
C1376 C1374 1.416 . S
C1376 C1378 1.416 . S
C1376 C1409 1.448 . S
C1377 H1362 0.930 . S
C1377 N1373 1.334 . S
C1377 C1375 1.390 . S
C1378 C1375 1.339 . S
C1378 C1376 1.416 . S
C1378 H1385 0.930 . S
N1379 Tb1344 2.572 . S
N1379 C1380 1.340 . S
N1379 C1382 1.361 . S
C1380 H1366 0.930 . S
C1380 N1379 1.340 . S
C1380 C1384 1.407 . S
C1381 C1382 1.413 . S
C1381 C1383 1.416 . S
C1381 C1410 1.427 . S
C1382 C1374 1.424 . S
C1382 N1379 1.361 . S
C1382 C1381 1.413 . S
C1383 H1372 0.931 . S
C1383 C1381 1.416 . S
C1383 C1384 1.332 . S
C1384 H1363 0.929 . S
C1384 C1380 1.407 . S
C1384 C1383 1.332 . S
H1385 C1378 0.930 . S
H1386 C1409 0.930 . S
H1387 C1410 0.929 . S
O1388 Tb1344 2.465 . S
O1388 C1408 1.264 . S
O1389 Tb1344 2.387 . S
O1389 C1400 1.264 . S
O1390 Tb1355 2.349 . S
O1390 C1400 1.243 . S
O1391 Tb1344 2.428 . S
O1391 C1408 1.256 . S
O1392 Tb1344 2.308 . S
O1392 C1407 1.266 . S
O1393 Tb1355 2.393 . S
O1393 C1407 1.248 . S
O1394 Tb1355 2.465 . S
O1394 C1419 1.264 . S
O1395 Tb1355 2.387 . S
O1395 C1411 1.264 . S
O1396 Tb1344 2.349 . S
O1396 C1411 1.243 . S
O1397 Tb1355 2.428 . S
O1397 C1419 1.256 . S
O1398 Tb1355 2.308 . S
O1398 C1418 1.266 . S
O1399 Tb1344 2.393 . S
O1399 C1418 1.248 . S
C1400 O1389 1.264 . S
C1400 O1390 1.243 . S
C1401 C1404 1.399 . S
C1401 C1406 1.383 . S
C1401 C1408 1.496 . S
C1402 C1403 1.399 . S
C1402 C1406 1.389 . S
C1403 C1402 1.399 . S
C1403 C1405 1.380 . S
C1403 H1420 0.929 . S
C1404 C1401 1.399 . S
C1404 C1405 1.392 . S
C1404 H1421 0.929 . S
C1405 C1403 1.380 . S
C1405 C1404 1.392 . S
C1405 H1422 0.929 . S
C1406 C1401 1.383 . S
C1406 C1402 1.389 . S
C1406 H1423 0.931 . S
C1407 O1392 1.266 . S
C1407 O1393 1.248 . S
C1408 Tb1344 2.802 . S
C1408 O1388 1.264 . S
C1408 O1391 1.256 . S
C1408 C1401 1.496 . S
C1409 C1376 1.448 . S
C1409 H1386 0.930 . S
C1409 C1410 1.328 . S
C1410 C1381 1.427 . S
C1410 H1387 0.929 . S
C1410 C1409 1.328 . S
C1411 O1395 1.264 . S
C1411 O1396 1.243 . S
C1412 C1415 1.399 . S
C1412 C1416 1.383 . S
C1412 C1419 1.496 . S
C1413 C1414 1.399 . S
C1413 C1416 1.389 . S
C1414 C1413 1.399 . S
C1414 C1417 1.380 . S
C1414 H1424 0.929 . S
C1415 C1412 1.399 . S
C1415 C1417 1.392 . S
C1415 H1425 0.929 . S
C1416 C1412 1.383 . S
C1416 C1413 1.389 . S
C1416 H1426 0.931 . S
C1417 C1414 1.380 . S
C1417 C1415 1.392 . S
C1417 H1427 0.929 . S
C1418 O1398 1.266 . S
C1418 O1399 1.248 . S
C1419 Tb1355 2.802 . S
C1419 O1394 1.264 . S
C1419 O1397 1.256 . S
C1419 C1412 1.496 . S
H1420 C1403 0.929 . S
H1421 C1404 0.929 . S
H1422 C1405 0.929 . S
H1423 C1406 0.931 . S
H1424 C1414 0.929 . S
H1425 C1415 0.929 . S
H1426 C1416 0.931 . S
H1427 C1417 0.929 . S
Tb1428 N1457 2.617 . S
Tb1428 N1463 2.572 . S
Tb1428 O1472 2.465 . S
Tb1428 O1473 2.387 . S
Tb1428 O1475 2.428 . S
Tb1428 O1476 2.308 . S
Tb1428 O1480 2.349 . S
Tb1428 O1483 2.393 . S
Tb1428 C1492 2.802 . S
C1429 N1430 1.379 . S
C1429 C1432 1.416 . S
C1429 C1436 1.424 . S
N1430 C1429 1.379 . S
N1430 C1433 1.334 . S
N1430 Tb1439 2.617 . S
C1431 C1433 1.390 . S
C1431 C1434 1.339 . S
C1431 H1451 0.930 . S
C1432 C1429 1.416 . S
C1432 C1434 1.416 . S
C1432 C1438 1.448 . S
C1433 N1430 1.334 . S
C1433 C1431 1.390 . S
C1433 H1444 0.930 . S
C1434 C1431 1.339 . S
C1434 C1432 1.416 . S
C1434 H1455 0.930 . S
C1435 C1436 1.413 . S
C1435 C1437 1.427 . S
C1435 C1441 1.416 . S
C1436 C1429 1.424 . S
C1436 C1435 1.413 . S
C1436 N1440 1.361 . S
C1437 C1435 1.427 . S
C1437 C1438 1.328 . S
C1437 H1452 0.929 . S
C1438 C1432 1.448 . S
C1438 C1437 1.328 . S
C1438 H1453 0.930 . S
Tb1439 N1430 2.617 . S
Tb1439 N1440 2.572 . S
Tb1439 O1474 2.349 . S
Tb1439 O1477 2.393 . S
Tb1439 O1478 2.465 . S
Tb1439 O1479 2.387 . S
Tb1439 O1481 2.428 . S
Tb1439 O1482 2.308 . S
Tb1439 C1503 2.802 . S
N1440 C1436 1.361 . S
N1440 Tb1439 2.572 . S
N1440 C1442 1.340 . S
C1441 C1435 1.416 . S
C1441 C1443 1.332 . S
C1441 H1449 0.931 . S
C1442 N1440 1.340 . S
C1442 C1443 1.407 . S
C1442 H1448 0.930 . S
C1443 C1441 1.332 . S
C1443 C1442 1.407 . S
C1443 H1445 0.929 . S
H1444 C1433 0.930 . S
H1445 C1443 0.929 . S
H1446 C1461 0.930 . S
H1447 C1468 0.929 . S
H1448 C1442 0.930 . S
H1449 C1441 0.931 . S
H1450 C1464 0.930 . S
H1451 C1431 0.930 . S
H1452 C1437 0.929 . S
H1453 C1438 0.930 . S
H1454 C1459 0.930 . S
H1455 C1434 0.930 . S
H1456 C1467 0.931 . S
N1457 Tb1428 2.617 . S
N1457 C1458 1.379 . S
N1457 C1461 1.334 . S
C1458 N1457 1.379 . S
C1458 C1460 1.416 . S
C1458 C1466 1.424 . S
C1459 H1454 0.930 . S
C1459 C1461 1.390 . S
C1459 C1462 1.339 . S
C1460 C1458 1.416 . S
C1460 C1462 1.416 . S
C1460 C1493 1.448 . S
C1461 H1446 0.930 . S
C1461 N1457 1.334 . S
C1461 C1459 1.390 . S
C1462 C1459 1.339 . S
C1462 C1460 1.416 . S
C1462 H1469 0.930 . S
N1463 Tb1428 2.572 . S
N1463 C1464 1.340 . S
N1463 C1466 1.361 . S
C1464 H1450 0.930 . S
C1464 N1463 1.340 . S
C1464 C1468 1.407 . S
C1465 C1466 1.413 . S
C1465 C1467 1.416 . S
C1465 C1494 1.427 . S
C1466 C1458 1.424 . S
C1466 N1463 1.361 . S
C1466 C1465 1.413 . S
C1467 H1456 0.931 . S
C1467 C1465 1.416 . S
C1467 C1468 1.332 . S
C1468 H1447 0.929 . S
C1468 C1464 1.407 . S
C1468 C1467 1.332 . S
H1469 C1462 0.930 . S
H1470 C1493 0.930 . S
H1471 C1494 0.929 . S
O1472 Tb1428 2.465 . S
O1472 C1492 1.264 . S
O1473 Tb1428 2.387 . S
O1473 C1484 1.264 . S
O1474 Tb1439 2.349 . S
O1474 C1484 1.243 . S
O1475 Tb1428 2.428 . S
O1475 C1492 1.256 . S
O1476 Tb1428 2.308 . S
O1476 C1491 1.266 . S
O1477 Tb1439 2.393 . S
O1477 C1491 1.248 . S
O1478 Tb1439 2.465 . S
O1478 C1503 1.264 . S
O1479 Tb1439 2.387 . S
O1479 C1495 1.264 . S
O1480 Tb1428 2.349 . S
O1480 C1495 1.243 . S
O1481 Tb1439 2.428 . S
O1481 C1503 1.256 . S
O1482 Tb1439 2.308 . S
O1482 C1502 1.266 . S
O1483 Tb1428 2.393 . S
O1483 C1502 1.248 . S
C1484 O1473 1.264 . S
C1484 O1474 1.243 . S
C1485 C1488 1.399 . S
C1485 C1490 1.383 . S
C1485 C1492 1.496 . S
C1486 C1487 1.399 . S
C1486 C1490 1.389 . S
C1487 C1486 1.399 . S
C1487 C1489 1.380 . S
C1487 H1504 0.929 . S
C1488 C1485 1.399 . S
C1488 C1489 1.392 . S
C1488 H1505 0.929 . S
C1489 C1487 1.380 . S
C1489 C1488 1.392 . S
C1489 H1506 0.929 . S
C1490 C1485 1.383 . S
C1490 C1486 1.389 . S
C1490 H1507 0.931 . S
C1491 O1476 1.266 . S
C1491 O1477 1.248 . S
C1492 Tb1428 2.802 . S
C1492 O1472 1.264 . S
C1492 O1475 1.256 . S
C1492 C1485 1.496 . S
C1493 C1460 1.448 . S
C1493 H1470 0.930 . S
C1493 C1494 1.328 . S
C1494 C1465 1.427 . S
C1494 H1471 0.929 . S
C1494 C1493 1.328 . S
C1495 O1479 1.264 . S
C1495 O1480 1.243 . S
C1496 C1499 1.399 . S
C1496 C1500 1.383 . S
C1496 C1503 1.496 . S
C1497 C1498 1.399 . S
C1497 C1500 1.389 . S
C1498 C1497 1.399 . S
C1498 C1501 1.380 . S
C1498 H1508 0.929 . S
C1499 C1496 1.399 . S
C1499 C1501 1.392 . S
C1499 H1509 0.929 . S
C1500 C1496 1.383 . S
C1500 C1497 1.389 . S
C1500 H1510 0.931 . S
C1501 C1498 1.380 . S
C1501 C1499 1.392 . S
C1501 H1511 0.929 . S
C1502 O1482 1.266 . S
C1502 O1483 1.248 . S
C1503 Tb1439 2.802 . S
C1503 O1478 1.264 . S
C1503 O1481 1.256 . S
C1503 C1496 1.496 . S
H1504 C1487 0.929 . S
H1505 C1488 0.929 . S
H1506 C1489 0.929 . S
H1507 C1490 0.931 . S
H1508 C1498 0.929 . S
H1509 C1499 0.929 . S
H1510 C1500 0.931 . S
H1511 C1501 0.929 . S
Tb1512 N1541 2.617 . S
Tb1512 N1547 2.572 . S
Tb1512 O1556 2.465 . S
Tb1512 O1557 2.387 . S
Tb1512 O1559 2.428 . S
Tb1512 O1560 2.308 . S
Tb1512 O1564 2.349 . S
Tb1512 O1567 2.393 . S
Tb1512 C1576 2.802 . S
C1513 N1514 1.379 . S
C1513 C1516 1.416 . S
C1513 C1520 1.424 . S
N1514 C1513 1.379 . S
N1514 C1517 1.334 . S
N1514 Tb1523 2.617 . S
C1515 C1517 1.390 . S
C1515 C1518 1.339 . S
C1515 H1535 0.930 . S
C1516 C1513 1.416 . S
C1516 C1518 1.416 . S
C1516 C1522 1.448 . S
C1517 N1514 1.334 . S
C1517 C1515 1.390 . S
C1517 H1528 0.930 . S
C1518 C1515 1.339 . S
C1518 C1516 1.416 . S
C1518 H1539 0.930 . S
C1519 C1520 1.413 . S
C1519 C1521 1.427 . S
C1519 C1525 1.416 . S
C1520 C1513 1.424 . S
C1520 C1519 1.413 . S
C1520 N1524 1.361 . S
C1521 C1519 1.427 . S
C1521 C1522 1.328 . S
C1521 H1536 0.929 . S
C1522 C1516 1.448 . S
C1522 C1521 1.328 . S
C1522 H1537 0.930 . S
Tb1523 N1514 2.617 . S
Tb1523 N1524 2.572 . S
Tb1523 O1558 2.349 . S
Tb1523 O1561 2.393 . S
Tb1523 O1562 2.465 . S
Tb1523 O1563 2.387 . S
Tb1523 O1565 2.428 . S
Tb1523 O1566 2.308 . S
Tb1523 C1587 2.802 . S
N1524 C1520 1.361 . S
N1524 Tb1523 2.572 . S
N1524 C1526 1.340 . S
C1525 C1519 1.416 . S
C1525 C1527 1.332 . S
C1525 H1533 0.931 . S
C1526 N1524 1.340 . S
C1526 C1527 1.407 . S
C1526 H1532 0.930 . S
C1527 C1525 1.332 . S
C1527 C1526 1.407 . S
C1527 H1529 0.929 . S
H1528 C1517 0.930 . S
H1529 C1527 0.929 . S
H1530 C1545 0.930 . S
H1531 C1552 0.929 . S
H1532 C1526 0.930 . S
H1533 C1525 0.931 . S
H1534 C1548 0.930 . S
H1535 C1515 0.930 . S
H1536 C1521 0.929 . S
H1537 C1522 0.930 . S
H1538 C1543 0.930 . S
H1539 C1518 0.930 . S
H1540 C1551 0.931 . S
N1541 Tb1512 2.617 . S
N1541 C1542 1.379 . S
N1541 C1545 1.334 . S
C1542 N1541 1.379 . S
C1542 C1544 1.416 . S
C1542 C1550 1.424 . S
C1543 H1538 0.930 . S
C1543 C1545 1.390 . S
C1543 C1546 1.339 . S
C1544 C1542 1.416 . S
C1544 C1546 1.416 . S
C1544 C1577 1.448 . S
C1545 H1530 0.930 . S
C1545 N1541 1.334 . S
C1545 C1543 1.390 . S
C1546 C1543 1.339 . S
C1546 C1544 1.416 . S
C1546 H1553 0.930 . S
N1547 Tb1512 2.572 . S
N1547 C1548 1.340 . S
N1547 C1550 1.361 . S
C1548 H1534 0.930 . S
C1548 N1547 1.340 . S
C1548 C1552 1.407 . S
C1549 C1550 1.413 . S
C1549 C1551 1.416 . S
C1549 C1578 1.427 . S
C1550 C1542 1.424 . S
C1550 N1547 1.361 . S
C1550 C1549 1.413 . S
C1551 H1540 0.931 . S
C1551 C1549 1.416 . S
C1551 C1552 1.332 . S
C1552 H1531 0.929 . S
C1552 C1548 1.407 . S
C1552 C1551 1.332 . S
H1553 C1546 0.930 . S
H1554 C1577 0.930 . S
H1555 C1578 0.929 . S
O1556 Tb1512 2.465 . S
O1556 C1576 1.264 . S
O1557 Tb1512 2.387 . S
O1557 C1568 1.264 . S
O1558 Tb1523 2.349 . S
O1558 C1568 1.243 . S
O1559 Tb1512 2.428 . S
O1559 C1576 1.256 . S
O1560 Tb1512 2.308 . S
O1560 C1575 1.266 . S
O1561 Tb1523 2.393 . S
O1561 C1575 1.248 . S
O1562 Tb1523 2.465 . S
O1562 C1587 1.264 . S
O1563 Tb1523 2.387 . S
O1563 C1579 1.264 . S
O1564 Tb1512 2.349 . S
O1564 C1579 1.243 . S
O1565 Tb1523 2.428 . S
O1565 C1587 1.256 . S
O1566 Tb1523 2.308 . S
O1566 C1586 1.266 . S
O1567 Tb1512 2.393 . S
O1567 C1586 1.248 . S
C1568 O1557 1.264 . S
C1568 O1558 1.243 . S
C1569 C1572 1.399 . S
C1569 C1574 1.383 . S
C1569 C1576 1.496 . S
C1570 C1571 1.399 . S
C1570 C1574 1.389 . S
C1571 C1570 1.399 . S
C1571 C1573 1.380 . S
C1571 H1588 0.929 . S
C1572 C1569 1.399 . S
C1572 C1573 1.392 . S
C1572 H1589 0.929 . S
C1573 C1571 1.380 . S
C1573 C1572 1.392 . S
C1573 H1590 0.929 . S
C1574 C1569 1.383 . S
C1574 C1570 1.389 . S
C1574 H1591 0.931 . S
C1575 O1560 1.266 . S
C1575 O1561 1.248 . S
C1576 Tb1512 2.802 . S
C1576 O1556 1.264 . S
C1576 O1559 1.256 . S
C1576 C1569 1.496 . S
C1577 C1544 1.448 . S
C1577 H1554 0.930 . S
C1577 C1578 1.328 . S
C1578 C1549 1.427 . S
C1578 H1555 0.929 . S
C1578 C1577 1.328 . S
C1579 O1563 1.264 . S
C1579 O1564 1.243 . S
C1580 C1583 1.399 . S
C1580 C1584 1.383 . S
C1580 C1587 1.496 . S
C1581 C1582 1.399 . S
C1581 C1584 1.389 . S
C1582 C1581 1.399 . S
C1582 C1585 1.380 . S
C1582 H1592 0.929 . S
C1583 C1580 1.399 . S
C1583 C1585 1.392 . S
C1583 H1593 0.929 . S
C1584 C1580 1.383 . S
C1584 C1581 1.389 . S
C1584 H1594 0.931 . S
C1585 C1582 1.380 . S
C1585 C1583 1.392 . S
C1585 H1595 0.929 . S
C1586 O1566 1.266 . S
C1586 O1567 1.248 . S
C1587 Tb1523 2.802 . S
C1587 O1562 1.264 . S
C1587 O1565 1.256 . S
C1587 C1580 1.496 . S
H1588 C1571 0.929 . S
H1589 C1572 0.929 . S
H1590 C1573 0.929 . S
H1591 C1574 0.931 . S
H1592 C1582 0.929 . S
H1593 C1583 0.929 . S
H1594 C1584 0.931 . S
H1595 C1585 0.929 . S
Tb1596 N1625 2.603 1_455 S
Tb1596 N1631 2.538 1_455 S
Tb1596 O1640 2.421 1_455 S
Tb1596 O1641 2.415 . S
Tb1596 O1643 2.391 1_455 S
Tb1596 O1644 2.319 . S
Tb1596 O1648 2.366 . S
Tb1596 O1651 2.429 . S
Tb1596 C1660 2.757 1_455 S
C1597 N1598 1.379 . S
C1597 C1600 1.416 . S
C1597 C1604 1.424 1_556 S
N1598 C1597 1.379 . S
N1598 C1601 1.334 . S
N1598 Tb1607 2.617 1_556 S
C1599 C1601 1.390 . S
C1599 C1602 1.339 . S
C1599 H1619 0.930 . S
C1600 C1597 1.416 . S
C1600 C1602 1.416 . S
C1600 C1606 1.448 . S
C1601 N1598 1.334 . S
C1601 C1599 1.390 . S
C1601 H1612 0.930 . S
C1602 C1599 1.339 . S
C1602 C1600 1.416 . S
C1602 H1623 0.930 . S
C1603 C1604 1.413 . S
C1603 C1605 1.427 . S
C1603 C1609 1.416 . S
C1604 C1597 1.424 1_554 S
C1604 C1603 1.413 . S
C1604 N1608 1.361 . S
C1605 C1603 1.427 . S
C1605 C1606 1.328 1_554 S
C1605 H1620 0.929 . S
C1606 C1600 1.448 . S
C1606 C1605 1.328 1_556 S
C1606 H1621 0.930 . S
Tb1607 N1598 2.617 1_554 S
Tb1607 N1608 2.572 . S
Tb1607 O1642 2.349 . S
Tb1607 O1645 2.393 1_554 S
Tb1607 O1646 2.465 . S
Tb1607 O1647 2.387 . S
Tb1607 O1649 2.428 1_554 S
Tb1607 O1650 2.308 . S
Tb1607 C1671 2.802 . S
N1608 C1604 1.361 . S
N1608 Tb1607 2.572 . S
N1608 C1610 1.340 . S
C1609 C1603 1.416 . S
C1609 C1611 1.332 . S
C1609 H1617 0.931 . S
C1610 N1608 1.340 . S
C1610 C1611 1.407 . S
C1610 H1616 0.930 . S
C1611 C1609 1.332 . S
C1611 C1610 1.407 . S
C1611 H1613 0.929 . S
H1612 C1601 0.930 . S
H1613 C1611 0.929 . S
H1614 C1629 0.930 1_455 S
H1615 C1636 0.929 . S
H1616 C1610 0.930 . S
H1617 C1609 0.931 . S
H1618 C1632 0.930 1_556 S
H1619 C1599 0.930 . S
H1620 C1605 0.929 . S
H1621 C1606 0.930 . S
H1622 C1627 0.930 . S
H1623 C1602 0.930 . S
H1624 C1635 0.931 . S
N1625 Tb1596 2.603 1_655 S
N1625 C1626 1.379 . S
N1625 C1629 1.334 . S
C1626 N1625 1.379 . S
C1626 C1628 1.416 . S
C1626 C1634 1.424 . S
C1627 H1622 0.930 . S
C1627 C1629 1.390 . S
C1627 C1630 1.339 . S
C1628 C1626 1.416 . S
C1628 C1630 1.416 . S
C1628 C1661 1.448 . S
C1629 H1614 0.930 1_655 S
C1629 N1625 1.334 . S
C1629 C1627 1.390 . S
C1630 C1627 1.339 . S
C1630 C1628 1.416 . S
C1630 H1637 0.930 . S
N1631 Tb1596 2.538 1_655 S
N1631 C1632 1.340 . S
N1631 C1634 1.361 . S
C1632 H1618 0.930 1_554 S
C1632 N1631 1.340 . S
C1632 C1636 1.407 1_554 S
C1633 C1634 1.413 . S
C1633 C1635 1.416 . S
C1633 C1662 1.427 . S
C1634 C1626 1.424 . S
C1634 N1631 1.361 . S
C1634 C1633 1.413 . S
C1635 H1624 0.931 . S
C1635 C1633 1.416 . S
C1635 C1636 1.332 1_554 S
C1636 H1615 0.929 . S
C1636 C1632 1.407 1_556 S
C1636 C1635 1.332 1_556 S
H1637 C1630 0.930 . S
H1638 C1661 0.930 . S
H1639 C1662 0.929 . S
O1640 Tb1596 2.421 1_655 S
O1640 C1660 1.264 . S
O1641 Tb1596 2.415 . S
O1641 C1652 1.264 . S
O1642 Tb1607 2.349 . S
O1642 C1652 1.243 . S
O1643 Tb1596 2.391 1_655 S
O1643 C1660 1.256 . S
O1644 Tb1596 2.319 . S
O1644 C1659 1.266 1_554 S
O1645 Tb1607 2.393 1_556 S
O1645 C1659 1.248 . S
O1646 Tb1607 2.465 . S
O1646 C1671 1.264 . S
O1647 Tb1607 2.387 . S
O1647 C1663 1.264 . S
O1648 Tb1596 2.366 . S
O1648 C1663 1.243 . S
O1649 Tb1607 2.428 1_556 S
O1649 C1671 1.256 1_556 S
O1650 Tb1607 2.308 . S
O1650 C1670 1.266 . S
O1651 Tb1596 2.429 . S
O1651 C1670 1.248 . S
C1652 O1641 1.264 . S
C1652 O1642 1.243 . S
C1653 C1656 1.399 . S
C1653 C1658 1.383 . S
C1653 C1660 1.496 . S
C1654 C1655 1.399 . S
C1654 C1658 1.389 . S
C1655 C1654 1.399 . S
C1655 C1657 1.380 . S
C1655 H1672 0.929 . S
C1656 C1653 1.399 . S
C1656 C1657 1.392 . S
C1656 H1673 0.929 . S
C1657 C1655 1.380 . S
C1657 C1656 1.392 . S
C1657 H1674 0.929 . S
C1658 C1653 1.383 . S
C1658 C1654 1.389 . S
C1658 H1675 0.931 . S
C1659 O1644 1.266 1_556 S
C1659 O1645 1.248 . S
C1660 Tb1596 2.757 1_655 S
C1660 O1640 1.264 . S
C1660 O1643 1.256 . S
C1660 C1653 1.496 . S
C1661 C1628 1.448 . S
C1661 H1638 0.930 . S
C1661 C1662 1.328 . S
C1662 C1633 1.427 . S
C1662 H1639 0.929 . S
C1662 C1661 1.328 . S
C1663 O1647 1.264 . S
C1663 O1648 1.243 . S
C1664 C1667 1.443 . S
C1664 C1668 1.350 1_556 S
C1664 C1671 1.488 1_556 S
C1665 C1666 1.399 1_554 S
C1665 C1668 1.389 . S
C1666 C1665 1.399 1_556 S
C1666 C1669 1.380 . S
C1666 H1676 0.929 . S
C1667 C1664 1.443 . S
C1667 C1669 1.392 . S
C1667 H1677 0.929 . S
C1668 C1664 1.350 1_554 S
C1668 C1665 1.389 . S
C1668 H1678 0.931 . S
C1669 C1666 1.380 . S
C1669 C1667 1.392 . S
C1669 H1679 0.929 . S
C1670 O1650 1.266 . S
C1670 O1651 1.248 . S
C1671 Tb1607 2.802 . S
C1671 O1646 1.264 . S
C1671 O1649 1.256 1_554 S
C1671 C1664 1.488 1_554 S
H1672 C1655 0.929 . S
H1673 C1656 0.929 . S
H1674 C1657 0.929 . S
H1675 C1658 0.931 . S
H1676 C1666 0.929 . S
H1677 C1667 0.929 . S
H1678 C1668 0.931 . S
H1679 C1669 0.929 . S
H1680 C1698 0.951 . S
H1681 C1700 0.951 . S
H1682 C1702 0.950 . S
H1683 C1703 0.950 . S
H1684 C1705 0.950 1_554 S
H1685 C1708 0.950 . S
H1686 C1709 0.950 . S
H1687 C1711 0.950 . S
H1688 C1712 0.950 . S
H1689 C1713 0.951 1_655 S
H1690 C1715 0.951 1_655 S
H1691 C1717 0.950 . S
H1692 C1718 0.943 1_556 S
H1693 C1720 0.950 . S
H1694 C1723 0.950 . S
H1695 C1724 0.950 . S
H1696 C1726 0.950 . S
H1697 C1727 0.950 . S
C1698 H1680 0.951 . S
C1698 C1699 1.400 . S
C1698 C1700 1.388 . S
C1699 C1698 1.400 . S
C1699 C1703 1.361 1_455 S
C1700 H1681 0.951 . S
C1700 C1698 1.388 . S
C1700 C1701 1.366 . S
C1701 C1700 1.366 . S
C1701 C1702 1.414 1_455 S
C1701 C1704 1.499 . S
C1702 H1682 0.950 . S
C1702 C1701 1.414 1_655 S
C1702 C1703 1.374 . S
C1703 H1683 0.950 . S
C1703 C1699 1.361 1_655 S
C1703 C1702 1.374 . S
C1704 C1701 1.499 . S
C1704 C1705 1.373 . S
C1704 C1706 1.389 . S
C1705 H1684 0.950 1_556 S
C1705 C1704 1.373 . S
C1705 C1721 1.377 1_556 S
C1706 C1704 1.389 . S
C1706 C1707 1.524 . S
C1706 C1720 1.377 . S
C1707 C1706 1.524 . S
C1707 C1708 1.397 1_455 S
C1707 C1712 1.363 . S
C1708 H1685 0.950 . S
C1708 C1707 1.397 1_655 S
C1708 C1709 1.334 . S
C1709 H1686 0.950 . S
C1709 C1708 1.334 . S
C1709 C1710 1.287 1_655 S
C1710 C1709 1.287 1_455 S
C1710 C1711 1.524 . S
C1710 H1729 0.913 . S
C1711 H1687 0.950 . S
C1711 C1710 1.524 . S
C1711 C1712 1.415 . S
C1712 H1688 0.950 . S
C1712 C1707 1.363 . S
C1712 C1711 1.415 . S
C1713 H1689 0.951 1_455 S
C1713 C1714 1.366 . S
C1713 C1715 1.388 . S
C1714 C1713 1.366 . S
C1714 C1718 1.385 . S
C1715 H1690 0.951 1_455 S
C1715 C1713 1.388 . S
C1715 C1716 1.336 1_554 S
C1716 C1715 1.336 1_556 S
C1716 C1717 1.426 . S
C1716 C1719 1.520 . S
C1717 H1691 0.950 . S
C1717 C1716 1.426 . S
C1717 C1718 1.374 1_556 S
C1718 H1692 0.943 1_554 S
C1718 C1714 1.385 . S
C1718 C1717 1.374 1_554 S
C1719 C1716 1.520 . S
C1719 C1720 1.373 . S
C1719 C1721 1.389 1_556 S
C1720 H1693 0.950 . S
C1720 C1706 1.377 . S
C1720 C1719 1.373 . S
C1721 C1705 1.377 1_554 S
C1721 C1719 1.389 1_554 S
C1721 C1722 1.524 . S
C1722 C1721 1.524 . S
C1722 C1723 1.397 . S
C1722 C1727 1.363 1_455 S
C1723 H1694 0.950 . S
C1723 C1722 1.397 . S
C1723 C1724 1.334 . S
C1724 H1695 0.950 . S
C1724 C1723 1.334 . S
C1724 C1725 1.287 . S
C1725 C1724 1.287 . S
C1725 C1726 1.524 1_455 S
C1725 H1728 0.999 . S
C1726 H1696 0.950 . S
C1726 C1725 1.524 1_655 S
C1726 C1727 1.415 . S
C1727 H1697 0.950 . S
C1727 C1722 1.363 1_655 S
C1727 C1726 1.415 . S
H1728 C1725 0.999 . S
H1729 C1710 0.913 . S
H1730 C1748 0.951 . S
H1731 C1750 0.951 . S
H1732 C1752 0.950 . S
H1733 C1753 0.950 . S
H1734 C1755 0.950 . S
H1735 C1758 0.950 . S
H1736 C1759 0.950 . S
H1737 C1761 0.950 . S
H1738 C1762 0.950 . S
H1739 C1763 0.951 . S
H1740 C1765 0.951 . S
H1741 C1767 0.950 . S
H1742 C1768 0.950 . S
H1743 C1770 0.950 . S
H1744 C1773 0.950 . S
H1745 C1774 0.950 . S
H1746 C1776 0.950 . S
H1747 C1777 0.950 . S
C1748 H1730 0.951 . S
C1748 C1749 1.366 . S
C1748 C1750 1.388 . S
C1749 C1748 1.366 . S
C1749 C1753 1.385 . S
C1750 H1731 0.951 . S
C1750 C1748 1.388 . S
C1750 C1751 1.366 . S
C1751 C1750 1.366 . S
C1751 C1752 1.414 . S
C1751 C1754 1.499 . S
C1752 H1732 0.950 . S
C1752 C1751 1.414 . S
C1752 C1753 1.374 . S
C1753 H1733 0.950 . S
C1753 C1749 1.385 . S
C1753 C1752 1.374 . S
C1754 C1751 1.499 . S
C1754 C1755 1.373 . S
C1754 C1756 1.389 . S
C1755 H1734 0.950 . S
C1755 C1754 1.373 . S
C1755 C1771 1.377 . S
C1756 C1754 1.389 . S
C1756 C1757 1.524 . S
C1756 C1770 1.377 . S
C1757 C1756 1.524 . S
C1757 C1758 1.397 . S
C1757 C1762 1.363 . S
C1758 H1735 0.950 . S
C1758 C1757 1.397 . S
C1758 C1759 1.334 . S
C1759 H1736 0.950 . S
C1759 C1758 1.334 . S
C1759 C1760 1.287 . S
C1760 C1759 1.287 . S
C1760 C1761 1.524 . S
C1760 H1779 0.913 . S
C1761 H1737 0.950 . S
C1761 C1760 1.524 . S
C1761 C1762 1.415 . S
C1762 H1738 0.950 . S
C1762 C1757 1.363 . S
C1762 C1761 1.415 . S
C1763 H1739 0.951 . S
C1763 C1764 1.366 . S
C1763 C1765 1.388 . S
C1764 C1763 1.366 . S
C1764 C1768 1.385 . S
C1765 H1740 0.951 . S
C1765 C1763 1.388 . S
C1765 C1766 1.366 . S
C1766 C1765 1.366 . S
C1766 C1767 1.414 . S
C1766 C1769 1.499 . S
C1767 H1741 0.950 . S
C1767 C1766 1.414 . S
C1767 C1768 1.374 . S
C1768 H1742 0.950 . S
C1768 C1764 1.385 . S
C1768 C1767 1.374 . S
C1769 C1766 1.499 . S
C1769 C1770 1.373 . S
C1769 C1771 1.389 . S
C1770 H1743 0.950 . S
C1770 C1756 1.377 . S
C1770 C1769 1.373 . S
C1771 C1755 1.377 . S
C1771 C1769 1.389 . S
C1771 C1772 1.524 . S
C1772 C1771 1.524 . S
C1772 C1773 1.397 . S
C1772 C1777 1.363 . S
C1773 H1744 0.950 . S
C1773 C1772 1.397 . S
C1773 C1774 1.334 . S
C1774 H1745 0.950 . S
C1774 C1773 1.334 . S
C1774 C1775 1.287 . S
C1775 C1774 1.287 . S
C1775 C1776 1.524 . S
C1775 H1778 0.999 . S
C1776 H1746 0.950 . S
C1776 C1775 1.524 . S
C1776 C1777 1.415 . S
C1777 H1747 0.950 . S
C1777 C1772 1.363 . S
C1777 C1776 1.415 . S
H1778 C1775 0.999 . S
H1779 C1760 0.913 . S
H1780 C1798 0.951 . S
H1781 C1800 0.951 . S
H1782 C1802 0.950 . S
H1783 C1803 0.950 . S
H1784 C1805 0.950 . S
H1785 C1808 0.950 . S
H1786 C1809 0.950 . S
H1787 C1811 0.950 . S
H1788 C1812 0.950 . S
H1789 C1813 0.951 . S
H1790 C1815 0.951 . S
H1791 C1817 0.950 . S
H1792 C1818 0.950 . S
H1793 C1820 0.950 . S
H1794 C1823 0.950 . S
H1795 C1824 0.950 . S
H1796 C1826 0.950 . S
H1797 C1827 0.950 . S
C1798 H1780 0.951 . S
C1798 C1799 1.366 . S
C1798 C1800 1.388 . S
C1799 C1798 1.366 . S
C1799 C1803 1.385 . S
C1800 H1781 0.951 . S
C1800 C1798 1.388 . S
C1800 C1801 1.366 . S
C1801 C1800 1.366 . S
C1801 C1802 1.414 . S
C1801 C1804 1.499 . S
C1802 H1782 0.950 . S
C1802 C1801 1.414 . S
C1802 C1803 1.374 . S
C1803 H1783 0.950 . S
C1803 C1799 1.385 . S
C1803 C1802 1.374 . S
C1804 C1801 1.499 . S
C1804 C1805 1.373 . S
C1804 C1806 1.389 . S
C1805 H1784 0.950 . S
C1805 C1804 1.373 . S
C1805 C1821 1.377 . S
C1806 C1804 1.389 . S
C1806 C1807 1.524 . S
C1806 C1820 1.377 . S
C1807 C1806 1.524 . S
C1807 C1808 1.397 . S
C1807 C1812 1.363 . S
C1808 H1785 0.950 . S
C1808 C1807 1.397 . S
C1808 C1809 1.334 . S
C1809 H1786 0.950 . S
C1809 C1808 1.334 . S
C1809 C1810 1.287 . S
C1810 C1809 1.287 . S
C1810 C1811 1.524 . S
C1810 H1829 0.913 . S
C1811 H1787 0.950 . S
C1811 C1810 1.524 . S
C1811 C1812 1.415 . S
C1812 H1788 0.950 . S
C1812 C1807 1.363 . S
C1812 C1811 1.415 . S
C1813 H1789 0.951 . S
C1813 C1814 1.366 . S
C1813 C1815 1.388 . S
C1814 C1813 1.366 . S
C1814 C1818 1.385 . S
C1815 H1790 0.951 . S
C1815 C1813 1.388 . S
C1815 C1816 1.366 . S
C1816 C1815 1.366 . S
C1816 C1817 1.414 . S
C1816 C1819 1.499 . S
C1817 H1791 0.950 . S
C1817 C1816 1.414 . S
C1817 C1818 1.374 . S
C1818 H1792 0.950 . S
C1818 C1814 1.385 . S
C1818 C1817 1.374 . S
C1819 C1816 1.499 . S
C1819 C1820 1.373 . S
C1819 C1821 1.389 . S
C1820 H1793 0.950 . S
C1820 C1806 1.377 . S
C1820 C1819 1.373 . S
C1821 C1805 1.377 . S
C1821 C1819 1.389 . S
C1821 C1822 1.524 . S
C1822 C1821 1.524 . S
C1822 C1823 1.397 . S
C1822 C1827 1.363 . S
C1823 H1794 0.950 . S
C1823 C1822 1.397 . S
C1823 C1824 1.334 . S
C1824 H1795 0.950 . S
C1824 C1823 1.334 . S
C1824 C1825 1.287 . S
C1825 C1824 1.287 . S
C1825 C1826 1.524 . S
C1825 H1828 0.999 . S
C1826 H1796 0.950 . S
C1826 C1825 1.524 . S
C1826 C1827 1.415 . S
C1827 H1797 0.950 . S
C1827 C1822 1.363 . S
C1827 C1826 1.415 . S
H1828 C1825 0.999 . S
H1829 C1810 0.913 . S
H1830 C1848 0.951 . S
H1831 C1850 0.951 . S
H1832 C1852 0.950 . S
H1833 C1853 0.950 . S
H1834 C1855 0.950 . S
H1835 C1858 0.950 . S
H1836 C1859 0.950 . S
H1837 C1861 0.950 . S
H1838 C1862 0.950 . S
H1839 C1863 0.951 . S
H1840 C1865 0.951 . S
H1841 C1867 0.950 . S
H1842 C1868 0.950 . S
H1843 C1870 0.950 . S
H1844 C1873 0.950 . S
H1845 C1874 0.950 . S
H1846 C1876 0.950 . S
H1847 C1877 0.950 . S
C1848 H1830 0.951 . S
C1848 C1849 1.366 . S
C1848 C1850 1.388 . S
C1849 C1848 1.366 . S
C1849 C1853 1.385 . S
C1850 H1831 0.951 . S
C1850 C1848 1.388 . S
C1850 C1851 1.366 . S
C1851 C1850 1.366 . S
C1851 C1852 1.414 . S
C1851 C1854 1.499 . S
C1852 H1832 0.950 . S
C1852 C1851 1.414 . S
C1852 C1853 1.374 . S
C1853 H1833 0.950 . S
C1853 C1849 1.385 . S
C1853 C1852 1.374 . S
C1854 C1851 1.499 . S
C1854 C1855 1.373 . S
C1854 C1856 1.389 . S
C1855 H1834 0.950 . S
C1855 C1854 1.373 . S
C1855 C1871 1.377 . S
C1856 C1854 1.389 . S
C1856 C1857 1.524 . S
C1856 C1870 1.377 . S
C1857 C1856 1.524 . S
C1857 C1858 1.397 . S
C1857 C1862 1.363 . S
C1858 H1835 0.950 . S
C1858 C1857 1.397 . S
C1858 C1859 1.334 . S
C1859 H1836 0.950 . S
C1859 C1858 1.334 . S
C1859 C1860 1.287 . S
C1860 C1859 1.287 . S
C1860 C1861 1.524 . S
C1860 H1879 0.913 . S
C1861 H1837 0.950 . S
C1861 C1860 1.524 . S
C1861 C1862 1.415 . S
C1862 H1838 0.950 . S
C1862 C1857 1.363 . S
C1862 C1861 1.415 . S
C1863 H1839 0.951 . S
C1863 C1864 1.366 . S
C1863 C1865 1.388 . S
C1864 C1863 1.366 . S
C1864 C1868 1.385 . S
C1865 H1840 0.951 . S
C1865 C1863 1.388 . S
C1865 C1866 1.366 . S
C1866 C1865 1.366 . S
C1866 C1867 1.414 . S
C1866 C1869 1.499 . S
C1867 H1841 0.950 . S
C1867 C1866 1.414 . S
C1867 C1868 1.374 . S
C1868 H1842 0.950 . S
C1868 C1864 1.385 . S
C1868 C1867 1.374 . S
C1869 C1866 1.499 . S
C1869 C1870 1.373 . S
C1869 C1871 1.389 . S
C1870 H1843 0.950 . S
C1870 C1856 1.377 . S
C1870 C1869 1.373 . S
C1871 C1855 1.377 . S
C1871 C1869 1.389 . S
C1871 C1872 1.524 . S
C1872 C1871 1.524 . S
C1872 C1873 1.397 . S
C1872 C1877 1.363 . S
C1873 H1844 0.950 . S
C1873 C1872 1.397 . S
C1873 C1874 1.334 . S
C1874 H1845 0.950 . S
C1874 C1873 1.334 . S
C1874 C1875 1.287 . S
C1875 C1874 1.287 . S
C1875 C1876 1.524 . S
C1875 H1878 0.999 . S
C1876 H1846 0.950 . S
C1876 C1875 1.524 . S
C1876 C1877 1.415 . S
C1877 H1847 0.950 . S
C1877 C1872 1.363 . S
C1877 C1876 1.415 . S
H1878 C1875 0.999 . S
H1879 C1860 0.913 . S
H1880 C1898 0.951 . S
H1881 C1900 0.951 . S
H1882 C1902 0.950 . S
H1883 C1903 0.950 . S
H1884 C1905 0.950 . S
H1885 C1908 0.950 . S
H1886 C1909 0.950 . S
H1887 C1911 0.950 . S
H1888 C1912 0.950 . S
H1889 C1913 0.951 . S
H1890 C1915 0.951 . S
H1891 C1917 0.950 . S
H1892 C1918 0.950 . S
H1893 C1920 0.950 1_655 S
H1894 C1923 0.950 . S
H1895 C1924 0.950 . S
H1896 C1926 0.950 . S
H1897 C1927 0.950 . S
C1898 H1880 0.951 . S
C1898 C1899 1.366 . S
C1898 C1900 1.388 . S
C1899 C1898 1.366 . S
C1899 C1903 1.385 . S
C1900 H1881 0.951 . S
C1900 C1898 1.388 . S
C1900 C1901 1.366 . S
C1901 C1900 1.366 . S
C1901 C1902 1.414 . S
C1901 C1904 1.499 . S
C1902 H1882 0.950 . S
C1902 C1901 1.414 . S
C1902 C1903 1.374 . S
C1903 H1883 0.950 . S
C1903 C1899 1.385 . S
C1903 C1902 1.374 . S
C1904 C1901 1.499 . S
C1904 C1905 1.373 . S
C1904 C1906 1.389 . S
C1905 H1884 0.950 . S
C1905 C1904 1.373 . S
C1905 C1921 1.377 . S
C1906 C1904 1.389 . S
C1906 C1907 1.524 1_455 S
C1906 C1920 1.377 . S
C1907 C1906 1.524 1_655 S
C1907 C1908 1.397 . S
C1907 C1912 1.363 . S
C1908 H1885 0.950 . S
C1908 C1907 1.397 . S
C1908 C1909 1.334 . S
C1909 H1886 0.950 . S
C1909 C1908 1.334 . S
C1909 C1910 1.287 . S
C1910 C1909 1.287 . S
C1910 C1911 1.524 . S
C1910 H1929 0.913 . S
C1911 H1887 0.950 . S
C1911 C1910 1.524 . S
C1911 C1912 1.415 . S
C1912 H1888 0.950 . S
C1912 C1907 1.363 . S
C1912 C1911 1.415 . S
C1913 H1889 0.951 . S
C1913 C1914 1.366 . S
C1913 C1915 1.388 . S
C1914 C1913 1.366 . S
C1914 C1918 1.385 . S
C1915 H1890 0.951 . S
C1915 C1913 1.388 . S
C1915 C1916 1.366 . S
C1916 C1915 1.366 . S
C1916 C1917 1.414 . S
C1916 C1919 1.499 . S
C1917 H1891 0.950 . S
C1917 C1916 1.414 . S
C1917 C1918 1.374 . S
C1918 H1892 0.950 . S
C1918 C1914 1.385 . S
C1918 C1917 1.374 . S
C1919 C1916 1.499 . S
C1919 C1920 1.373 . S
C1919 C1921 1.389 . S
C1920 H1893 0.950 1_455 S
C1920 C1906 1.377 . S
C1920 C1919 1.373 . S
C1921 C1905 1.377 . S
C1921 C1919 1.389 . S
C1921 C1922 1.524 . S
C1922 C1921 1.524 . S
C1922 C1923 1.397 . S
C1922 C1927 1.363 . S
C1923 H1894 0.950 . S
C1923 C1922 1.397 . S
C1923 C1924 1.334 . S
C1924 H1895 0.950 . S
C1924 C1923 1.334 . S
C1924 C1925 1.287 . S
C1925 C1924 1.287 . S
C1925 C1926 1.524 . S
C1925 H1928 0.999 . S
C1926 H1896 0.950 . S
C1926 C1925 1.524 . S
C1926 C1927 1.415 . S
C1927 H1897 0.950 . S
C1927 C1922 1.363 . S
C1927 C1926 1.415 . S
H1928 C1925 0.999 . S
H1929 C1910 0.913 . S
H1930 C1948 0.951 . S
H1931 C1950 0.951 . S
H1932 C1952 0.950 . S
H1933 C1953 0.950 . S
H1934 C1955 0.950 . S
H1935 C1958 0.950 . S
H1936 C1959 0.950 . S
H1937 C1961 0.950 . S
H1938 C1962 0.950 . S
H1939 C1963 0.951 . S
H1940 C1965 0.951 . S
H1941 C1967 0.950 . S
H1942 C1968 0.950 . S
H1943 C1970 0.950 . S
H1944 C1973 0.950 . S
H1945 C1974 0.950 . S
H1946 C1976 0.950 . S
H1947 C1977 0.950 . S
C1948 H1930 0.951 . S
C1948 C1949 1.366 . S
C1948 C1950 1.388 . S
C1949 C1948 1.366 . S
C1949 C1953 1.385 . S
C1950 H1931 0.951 . S
C1950 C1948 1.388 . S
C1950 C1951 1.366 . S
C1951 C1950 1.366 . S
C1951 C1952 1.414 . S
C1951 C1954 1.499 . S
C1952 H1932 0.950 . S
C1952 C1951 1.414 . S
C1952 C1953 1.374 . S
C1953 H1933 0.950 . S
C1953 C1949 1.385 . S
C1953 C1952 1.374 . S
C1954 C1951 1.499 . S
C1954 C1955 1.373 . S
C1954 C1956 1.389 . S
C1955 H1934 0.950 . S
C1955 C1954 1.373 . S
C1955 C1971 1.377 . S
C1956 C1954 1.389 . S
C1956 C1957 1.524 . S
C1956 C1970 1.377 . S
C1957 C1956 1.524 . S
C1957 C1958 1.397 . S
C1957 C1962 1.363 . S
C1958 H1935 0.950 . S
C1958 C1957 1.397 . S
C1958 C1959 1.334 . S
C1959 H1936 0.950 . S
C1959 C1958 1.334 . S
C1959 C1960 1.287 . S
C1960 C1959 1.287 . S
C1960 C1961 1.524 . S
C1960 H1979 0.913 . S
C1961 H1937 0.950 . S
C1961 C1960 1.524 . S
C1961 C1962 1.415 . S
C1962 H1938 0.950 . S
C1962 C1957 1.363 . S
C1962 C1961 1.415 . S
C1963 H1939 0.951 . S
C1963 C1964 1.366 . S
C1963 C1965 1.388 . S
C1964 C1963 1.366 . S
C1964 C1968 1.385 . S
C1965 H1940 0.951 . S
C1965 C1963 1.388 . S
C1965 C1966 1.366 . S
C1966 C1965 1.366 . S
C1966 C1967 1.414 . S
C1966 C1969 1.499 . S
C1967 H1941 0.950 . S
C1967 C1966 1.414 . S
C1967 C1968 1.374 . S
C1968 H1942 0.950 . S
C1968 C1964 1.385 . S
C1968 C1967 1.374 . S
C1969 C1966 1.499 . S
C1969 C1970 1.373 . S
C1969 C1971 1.389 . S
C1970 H1943 0.950 . S
C1970 C1956 1.377 . S
C1970 C1969 1.373 . S
C1971 C1955 1.377 . S
C1971 C1969 1.389 . S
C1971 C1972 1.524 . S
C1972 C1971 1.524 . S
C1972 C1973 1.397 . S
C1972 C1977 1.363 . S
C1973 H1944 0.950 . S
C1973 C1972 1.397 . S
C1973 C1974 1.334 . S
C1974 H1945 0.950 . S
C1974 C1973 1.334 . S
C1974 C1975 1.287 . S
C1975 C1974 1.287 . S
C1975 C1976 1.524 . S
C1975 H1978 0.999 . S
C1976 H1946 0.950 . S
C1976 C1975 1.524 . S
C1976 C1977 1.415 . S
C1977 H1947 0.950 . S
C1977 C1972 1.363 . S
C1977 C1976 1.415 . S
H1978 C1975 0.999 . S
H1979 C1960 0.913 . S
H1980 C1998 0.951 . S
H1981 C2000 0.951 . S
H1982 C2002 0.950 . S
H1983 C2003 0.950 . S
H1984 C2005 0.950 . S
H1985 C2008 0.950 . S
H1986 C2009 0.950 . S
H1987 C2011 0.950 . S
H1988 C2012 0.950 . S
H1989 C2013 0.951 . S
H1990 C2015 0.951 . S
H1991 C2017 0.950 . S
H1992 C2018 0.950 . S
H1993 C2020 0.950 . S
H1994 C2023 0.950 . S
H1995 C2024 0.950 . S
H1996 C2026 0.950 . S
H1997 C2027 0.950 . S
C1998 H1980 0.951 . S
C1998 C1999 1.366 . S
C1998 C2000 1.388 . S
C1999 C1998 1.366 . S
C1999 C2003 1.385 . S
C2000 H1981 0.951 . S
C2000 C1998 1.388 . S
C2000 C2001 1.366 . S
C2001 C2000 1.366 . S
C2001 C2002 1.414 . S
C2001 C2004 1.499 . S
C2002 H1982 0.950 . S
C2002 C2001 1.414 . S
C2002 C2003 1.374 . S
C2003 H1983 0.950 . S
C2003 C1999 1.385 . S
C2003 C2002 1.374 . S
C2004 C2001 1.499 . S
C2004 C2005 1.373 . S
C2004 C2006 1.389 . S
C2005 H1984 0.950 . S
C2005 C2004 1.373 . S
C2005 C2021 1.377 . S
C2006 C2004 1.389 . S
C2006 C2007 1.524 . S
C2006 C2020 1.377 . S
C2007 C2006 1.524 . S
C2007 C2008 1.397 . S
C2007 C2012 1.363 . S
C2008 H1985 0.950 . S
C2008 C2007 1.397 . S
C2008 C2009 1.334 . S
C2009 H1986 0.950 . S
C2009 C2008 1.334 . S
C2009 C2010 1.287 . S
C2010 C2009 1.287 . S
C2010 C2011 1.524 . S
C2010 H2029 0.913 . S
C2011 H1987 0.950 . S
C2011 C2010 1.524 . S
C2011 C2012 1.415 . S
C2012 H1988 0.950 . S
C2012 C2007 1.363 . S
C2012 C2011 1.415 . S
C2013 H1989 0.951 . S
C2013 C2014 1.366 . S
C2013 C2015 1.388 . S
C2014 C2013 1.366 . S
C2014 C2018 1.385 . S
C2015 H1990 0.951 . S
C2015 C2013 1.388 . S
C2015 C2016 1.366 . S
C2016 C2015 1.366 . S
C2016 C2017 1.414 . S
C2016 C2019 1.499 . S
C2017 H1991 0.950 . S
C2017 C2016 1.414 . S
C2017 C2018 1.374 . S
C2018 H1992 0.950 . S
C2018 C2014 1.385 . S
C2018 C2017 1.374 . S
C2019 C2016 1.499 . S
C2019 C2020 1.373 . S
C2019 C2021 1.389 . S
C2020 H1993 0.950 . S
C2020 C2006 1.377 . S
C2020 C2019 1.373 . S
C2021 C2005 1.377 . S
C2021 C2019 1.389 . S
C2021 C2022 1.524 . S
C2022 C2021 1.524 . S
C2022 C2023 1.397 . S
C2022 C2027 1.363 . S
C2023 H1994 0.950 . S
C2023 C2022 1.397 . S
C2023 C2024 1.334 . S
C2024 H1995 0.950 . S
C2024 C2023 1.334 . S
C2024 C2025 1.287 . S
C2025 C2024 1.287 . S
C2025 C2026 1.524 . S
C2025 H2028 0.999 . S
C2026 H1996 0.950 . S
C2026 C2025 1.524 . S
C2026 C2027 1.415 . S
C2027 H1997 0.950 . S
C2027 C2022 1.363 . S
C2027 C2026 1.415 . S
H2028 C2025 0.999 . S
H2029 C2010 0.913 . S
H2030 C2048 0.951 . S
H2031 C2050 0.951 . S
H2032 C2052 0.950 . S
H2033 C2053 0.950 . S
H2034 C2055 0.950 . S
H2035 C2058 0.950 . S
H2036 C2059 0.950 . S
H2037 C2061 0.950 . S
H2038 C2062 0.950 . S
H2039 C2063 0.951 . S
H2040 C2065 0.951 . S
H2041 C2067 0.950 . S
H2042 C2068 0.950 . S
H2043 C2070 0.950 . S
H2044 C2073 0.950 . S
H2045 C2074 0.950 . S
H2046 C2076 0.950 . S
H2047 C2077 0.950 . S
C2048 H2030 0.951 . S
C2048 C2049 1.366 . S
C2048 C2050 1.388 . S
C2049 C2048 1.366 . S
C2049 C2053 1.385 . S
C2050 H2031 0.951 . S
C2050 C2048 1.388 . S
C2050 C2051 1.366 . S
C2051 C2050 1.366 . S
C2051 C2052 1.414 . S
C2051 C2054 1.499 . S
C2052 H2032 0.950 . S
C2052 C2051 1.414 . S
C2052 C2053 1.374 . S
C2053 H2033 0.950 . S
C2053 C2049 1.385 . S
C2053 C2052 1.374 . S
C2054 C2051 1.499 . S
C2054 C2055 1.373 . S
C2054 C2056 1.389 . S
C2055 H2034 0.950 . S
C2055 C2054 1.373 . S
C2055 C2071 1.377 . S
C2056 C2054 1.389 . S
C2056 C2057 1.524 . S
C2056 C2070 1.377 . S
C2057 C2056 1.524 . S
C2057 C2058 1.397 . S
C2057 C2062 1.363 . S
C2058 H2035 0.950 . S
C2058 C2057 1.397 . S
C2058 C2059 1.334 . S
C2059 H2036 0.950 . S
C2059 C2058 1.334 . S
C2059 C2060 1.287 . S
C2060 C2059 1.287 . S
C2060 C2061 1.524 . S
C2060 H2079 0.913 . S
C2061 H2037 0.950 . S
C2061 C2060 1.524 . S
C2061 C2062 1.415 . S
C2062 H2038 0.950 . S
C2062 C2057 1.363 . S
C2062 C2061 1.415 . S
C2063 H2039 0.951 . S
C2063 C2064 1.366 . S
C2063 C2065 1.388 . S
C2064 C2063 1.366 . S
C2064 C2068 1.385 . S
C2065 H2040 0.951 . S
C2065 C2063 1.388 . S
C2065 C2066 1.366 . S
C2066 C2065 1.366 . S
C2066 C2067 1.414 . S
C2066 C2069 1.499 . S
C2067 H2041 0.950 . S
C2067 C2066 1.414 . S
C2067 C2068 1.374 . S
C2068 H2042 0.950 . S
C2068 C2064 1.385 . S
C2068 C2067 1.374 . S
C2069 C2066 1.499 . S
C2069 C2070 1.373 . S
C2069 C2071 1.389 . S
C2070 H2043 0.950 . S
C2070 C2056 1.377 . S
C2070 C2069 1.373 . S
C2071 C2055 1.377 . S
C2071 C2069 1.389 . S
C2071 C2072 1.524 . S
C2072 C2071 1.524 . S
C2072 C2073 1.397 . S
C2072 C2077 1.363 . S
C2073 H2044 0.950 . S
C2073 C2072 1.397 . S
C2073 C2074 1.334 . S
C2074 H2045 0.950 . S
C2074 C2073 1.334 . S
C2074 C2075 1.287 . S
C2075 C2074 1.287 . S
C2075 C2076 1.524 . S
C2075 H2078 0.999 . S
C2076 H2046 0.950 . S
C2076 C2075 1.524 . S
C2076 C2077 1.415 . S
C2077 H2047 0.950 . S
C2077 C2072 1.363 . S
C2077 C2076 1.415 . S
H2078 C2075 0.999 . S
H2079 C2060 0.913 . S
H2080 C2098 0.951 . S
H2081 C2100 0.951 . S
H2082 C2102 0.950 . S
H2083 C2103 0.950 . S
H2084 C2105 0.950 . S
H2085 C2108 0.950 . S
H2086 C2109 0.950 . S
H2087 C2111 0.950 . S
H2088 C2112 0.950 . S
H2089 C2113 0.951 . S
H2090 C2115 0.951 . S
H2091 C2117 0.950 . S
H2092 C2118 0.950 . S
H2093 C2120 0.903 1_455 S
H2094 C2123 0.950 . S
H2095 C2124 0.950 . S
H2096 C2126 0.950 . S
H2097 C2127 0.950 1_545 S
C2098 H2080 0.951 . S
C2098 C2099 1.366 . S
C2098 C2100 1.388 . S
C2099 C2098 1.366 . S
C2099 C2103 1.385 . S
C2100 H2081 0.951 . S
C2100 C2098 1.388 . S
C2100 C2101 1.366 . S
C2101 C2100 1.366 . S
C2101 C2102 1.414 . S
C2101 C2104 1.499 . S
C2102 H2082 0.950 . S
C2102 C2101 1.414 . S
C2102 C2103 1.374 . S
C2103 H2083 0.950 . S
C2103 C2099 1.385 . S
C2103 C2102 1.374 . S
C2104 C2101 1.499 . S
C2104 C2105 1.373 . S
C2104 C2106 1.389 . S
C2105 H2084 0.950 . S
C2105 C2104 1.373 . S
C2105 C2121 1.377 . S
C2106 C2104 1.389 . S
C2106 C2107 1.524 . S
C2106 C2120 1.377 . S
C2107 C2106 1.524 . S
C2107 C2108 1.397 . S
C2107 C2112 1.363 1_655 S
C2108 H2085 0.950 . S
C2108 C2107 1.397 . S
C2108 C2109 1.334 . S
C2109 H2086 0.950 . S
C2109 C2108 1.334 . S
C2109 C2110 1.287 1_655 S
C2110 C2109 1.287 1_455 S
C2110 C2111 1.524 . S
C2110 H2129 0.913 . S
C2111 H2087 0.950 . S
C2111 C2110 1.524 . S
C2111 C2112 1.415 . S
C2112 H2088 0.950 . S
C2112 C2107 1.363 1_455 S
C2112 C2111 1.415 . S
C2113 H2089 0.951 . S
C2113 C2114 1.366 1_655 S
C2113 C2115 1.388 . S
C2114 C2113 1.366 1_455 S
C2114 C2118 1.385 . S
C2115 H2090 0.951 . S
C2115 C2113 1.388 . S
C2115 C2116 1.366 . S
C2116 C2115 1.366 . S
C2116 C2117 1.414 1_655 S
C2116 C2119 1.499 . S
C2117 H2091 0.950 . S
C2117 C2116 1.414 1_455 S
C2117 C2118 1.374 . S
C2118 H2092 0.950 . S
C2118 C2114 1.385 . S
C2118 C2117 1.374 . S
C2119 C2116 1.499 . S
C2119 C2120 1.373 . S
C2119 C2121 1.389 . S
C2120 H2093 0.903 1_655 S
C2120 C2106 1.377 . S
C2120 C2119 1.373 . S
C2121 C2105 1.377 . S
C2121 C2119 1.389 . S
C2121 C2122 1.524 1_545 S
C2122 C2121 1.524 1_565 S
C2122 C2123 1.397 . S
C2122 C2127 1.363 . S
C2123 H2094 0.950 . S
C2123 C2122 1.397 . S
C2123 C2124 1.334 . S
C2124 H2095 0.950 . S
C2124 C2123 1.334 . S
C2124 C2125 1.287 . S
C2125 C2124 1.287 . S
C2125 C2126 1.524 . S
C2125 H2128 0.999 . S
C2126 H2096 0.950 . S
C2126 C2125 1.524 . S
C2126 C2127 1.415 . S
C2127 H2097 0.950 1_565 S
C2127 C2122 1.363 . S
C2127 C2126 1.415 . S
H2128 C2125 0.999 . S
H2129 C2110 0.913 . S
H2130 C2148 0.951 . S
H2131 C2150 0.951 . S
H2132 C2152 0.950 . S
H2133 C2153 0.950 . S
H2134 C2155 0.950 . S
H2135 C2158 0.950 . S
H2136 C2159 0.950 . S
H2137 C2161 0.950 . S
H2138 C2162 0.950 . S
H2139 C2163 0.951 . S
H2140 C2165 0.951 . S
H2141 C2167 0.950 . S
H2142 C2168 0.950 . S
H2143 C2170 0.950 . S
H2144 C2173 0.950 . S
H2145 C2174 0.950 . S
H2146 C2176 0.950 . S
H2147 C2177 0.950 . S
C2148 H2130 0.951 . S
C2148 C2149 1.366 . S
C2148 C2150 1.388 . S
C2149 C2148 1.366 . S
C2149 C2153 1.385 . S
C2150 H2131 0.951 . S
C2150 C2148 1.388 . S
C2150 C2151 1.366 . S
C2151 C2150 1.366 . S
C2151 C2152 1.414 . S
C2151 C2154 1.499 . S
C2152 H2132 0.950 . S
C2152 C2151 1.414 . S
C2152 C2153 1.374 . S
C2153 H2133 0.950 . S
C2153 C2149 1.385 . S
C2153 C2152 1.374 . S
C2154 C2151 1.499 . S
C2154 C2155 1.373 . S
C2154 C2156 1.389 . S
C2155 H2134 0.950 . S
C2155 C2154 1.373 . S
C2155 C2171 1.377 . S
C2156 C2154 1.389 . S
C2156 C2157 1.524 . S
C2156 C2170 1.377 . S
C2157 C2156 1.524 . S
C2157 C2158 1.397 . S
C2157 C2162 1.363 . S
C2158 H2135 0.950 . S
C2158 C2157 1.397 . S
C2158 C2159 1.334 . S
C2159 H2136 0.950 . S
C2159 C2158 1.334 . S
C2159 C2160 1.287 . S
C2160 C2159 1.287 . S
C2160 C2161 1.524 . S
C2160 H2179 0.913 . S
C2161 H2137 0.950 . S
C2161 C2160 1.524 . S
C2161 C2162 1.415 . S
C2162 H2138 0.950 . S
C2162 C2157 1.363 . S
C2162 C2161 1.415 . S
C2163 H2139 0.951 . S
C2163 C2164 1.366 . S
C2163 C2165 1.388 . S
C2164 C2163 1.366 . S
C2164 C2168 1.385 . S
C2165 H2140 0.951 . S
C2165 C2163 1.388 . S
C2165 C2166 1.366 . S
C2166 C2165 1.366 . S
C2166 C2167 1.414 . S
C2166 C2169 1.499 . S
C2167 H2141 0.950 . S
C2167 C2166 1.414 . S
C2167 C2168 1.374 . S
C2168 H2142 0.950 . S
C2168 C2164 1.385 . S
C2168 C2167 1.374 . S
C2169 C2166 1.499 . S
C2169 C2170 1.373 . S
C2169 C2171 1.389 . S
C2170 H2143 0.950 . S
C2170 C2156 1.377 . S
C2170 C2169 1.373 . S
C2171 C2155 1.377 . S
C2171 C2169 1.389 . S
C2171 C2172 1.524 . S
C2172 C2171 1.524 . S
C2172 C2173 1.397 . S
C2172 C2177 1.363 . S
C2173 H2144 0.950 . S
C2173 C2172 1.397 . S
C2173 C2174 1.334 . S
C2174 H2145 0.950 . S
C2174 C2173 1.334 . S
C2174 C2175 1.287 . S
C2175 C2174 1.287 . S
C2175 C2176 1.524 . S
C2175 H2178 0.999 . S
C2176 H2146 0.950 . S
C2176 C2175 1.524 . S
C2176 C2177 1.415 . S
C2177 H2147 0.950 . S
C2177 C2172 1.363 . S
C2177 C2176 1.415 . S
H2178 C2175 0.999 . S
H2179 C2160 0.913 . S
H2180 C2198 0.951 . S
H2181 C2200 0.951 . S
H2182 C2202 0.950 . S
H2183 C2203 0.950 . S
H2184 C2205 0.950 . S
H2185 C2208 0.950 . S
H2186 C2209 0.950 . S
H2187 C2211 0.950 . S
H2188 C2212 0.950 . S
H2189 C2213 0.951 . S
H2190 C2215 0.951 . S
H2191 C2217 0.950 . S
H2192 C2218 0.950 . S
H2193 C2220 0.950 . S
H2194 C2223 0.950 . S
H2195 C2224 0.950 . S
H2196 C2226 0.950 . S
H2197 C2227 0.989 . S
C2198 H2180 0.951 . S
C2198 C2199 1.366 . S
C2198 C2200 1.388 . S
C2199 C2198 1.366 . S
C2199 C2203 1.385 . S
C2200 H2181 0.951 . S
C2200 C2198 1.388 . S
C2200 C2201 1.366 . S
C2201 C2200 1.366 . S
C2201 C2202 1.414 . S
C2201 C2204 1.499 . S
C2202 H2182 0.950 . S
C2202 C2201 1.414 . S
C2202 C2203 1.374 . S
C2203 H2183 0.950 . S
C2203 C2199 1.385 . S
C2203 C2202 1.374 . S
C2204 C2201 1.499 . S
C2204 C2205 1.373 . S
C2204 C2206 1.389 . S
C2205 H2184 0.950 . S
C2205 C2204 1.373 . S
C2205 C2221 1.377 . S
C2206 C2204 1.389 . S
C2206 C2207 1.524 . S
C2206 C2220 1.377 . S
C2207 C2206 1.524 . S
C2207 C2208 1.397 . S
C2207 C2212 1.363 . S
C2208 H2185 0.950 . S
C2208 C2207 1.397 . S
C2208 C2209 1.334 . S
C2209 H2186 0.950 . S
C2209 C2208 1.334 . S
C2209 C2210 1.287 . S
C2210 C2209 1.287 . S
C2210 C2211 1.524 . S
C2210 H2229 0.913 . S
C2211 H2187 0.950 . S
C2211 C2210 1.524 . S
C2211 C2212 1.415 . S
C2212 H2188 0.950 . S
C2212 C2207 1.363 . S
C2212 C2211 1.415 . S
C2213 H2189 0.951 . S
C2213 C2214 1.366 . S
C2213 C2215 1.388 . S
C2214 C2213 1.366 . S
C2214 C2218 1.385 . S
C2215 H2190 0.951 . S
C2215 C2213 1.388 . S
C2215 C2216 1.366 . S
C2216 C2215 1.366 . S
C2216 C2217 1.414 . S
C2216 C2219 1.499 . S
C2217 H2191 0.950 . S
C2217 C2216 1.414 . S
C2217 C2218 1.374 . S
C2218 H2192 0.950 . S
C2218 C2214 1.385 . S
C2218 C2217 1.374 . S
C2219 C2216 1.499 . S
C2219 C2220 1.373 . S
C2219 C2221 1.389 . S
C2220 H2193 0.950 . S
C2220 C2206 1.377 . S
C2220 C2219 1.373 . S
C2221 C2205 1.377 . S
C2221 C2219 1.389 . S
C2221 C2222 1.553 . S
C2222 C2221 1.553 . S
C2222 C2223 1.365 1_545 S
C2222 C2227 1.362 . S
C2223 H2194 0.950 . S
C2223 C2222 1.365 1_565 S
C2223 C2224 1.334 . S
C2224 H2195 0.950 . S
C2224 C2223 1.334 . S
C2224 C2225 1.287 . S
C2225 C2224 1.287 . S
C2225 C2226 1.524 . S
C2225 H2228 0.999 . S
C2226 H2196 0.950 . S
C2226 C2225 1.524 . S
C2226 C2227 1.381 1_565 S
C2227 H2197 0.989 . S
C2227 C2222 1.362 . S
C2227 C2226 1.381 1_545 S
H2228 C2225 0.999 . S
H2229 C2210 0.913 . S
H2230 C2248 0.951 . S
H2231 C2250 0.951 . S
H2232 C2252 0.950 . S
H2233 C2253 0.950 . S
H2234 C2255 0.950 . S
H2235 C2258 0.950 . S
H2236 C2259 0.950 . S
H2237 C2261 0.950 . S
H2238 C2262 0.950 . S
H2239 C2263 0.951 . S
H2240 C2265 0.951 . S
H2241 C2267 0.950 . S
H2242 C2268 0.950 . S
H2243 C2270 0.950 . S
H2244 C2273 0.950 . S
H2245 C2274 0.950 . S
H2246 C2276 0.950 . S
H2247 C2277 0.950 . S
C2248 H2230 0.951 . S
C2248 C2249 1.366 . S
C2248 C2250 1.388 . S
C2249 C2248 1.366 . S
C2249 C2253 1.385 . S
C2250 H2231 0.951 . S
C2250 C2248 1.388 . S
C2250 C2251 1.366 . S
C2251 C2250 1.366 . S
C2251 C2252 1.414 . S
C2251 C2254 1.499 . S
C2252 H2232 0.950 . S
C2252 C2251 1.414 . S
C2252 C2253 1.374 . S
C2253 H2233 0.950 . S
C2253 C2249 1.385 . S
C2253 C2252 1.374 . S
C2254 C2251 1.499 . S
C2254 C2255 1.373 . S
C2254 C2256 1.389 . S
C2255 H2234 0.950 . S
C2255 C2254 1.373 . S
C2255 C2271 1.377 . S
C2256 C2254 1.389 . S
C2256 C2257 1.524 . S
C2256 C2270 1.377 . S
C2257 C2256 1.524 . S
C2257 C2258 1.397 . S
C2257 C2262 1.363 . S
C2258 H2235 0.950 . S
C2258 C2257 1.397 . S
C2258 C2259 1.334 . S
C2259 H2236 0.950 . S
C2259 C2258 1.334 . S
C2259 C2260 1.287 . S
C2260 C2259 1.287 . S
C2260 C2261 1.524 . S
C2260 H2279 0.913 . S
C2261 H2237 0.950 . S
C2261 C2260 1.524 . S
C2261 C2262 1.415 . S
C2262 H2238 0.950 . S
C2262 C2257 1.363 . S
C2262 C2261 1.415 . S
C2263 H2239 0.951 . S
C2263 C2264 1.366 . S
C2263 C2265 1.388 . S
C2264 C2263 1.366 . S
C2264 C2268 1.385 . S
C2265 H2240 0.951 . S
C2265 C2263 1.388 . S
C2265 C2266 1.366 . S
C2266 C2265 1.366 . S
C2266 C2267 1.414 . S
C2266 C2269 1.499 . S
C2267 H2241 0.950 . S
C2267 C2266 1.414 . S
C2267 C2268 1.374 . S
C2268 H2242 0.950 . S
C2268 C2264 1.385 . S
C2268 C2267 1.374 . S
C2269 C2266 1.499 . S
C2269 C2270 1.373 . S
C2269 C2271 1.389 . S
C2270 H2243 0.950 . S
C2270 C2256 1.377 . S
C2270 C2269 1.373 . S
C2271 C2255 1.377 . S
C2271 C2269 1.389 . S
C2271 C2272 1.524 . S
C2272 C2271 1.524 . S
C2272 C2273 1.397 . S
C2272 C2277 1.363 . S
C2273 H2244 0.950 . S
C2273 C2272 1.397 . S
C2273 C2274 1.334 . S
C2274 H2245 0.950 . S
C2274 C2273 1.334 . S
C2274 C2275 1.287 . S
C2275 C2274 1.287 . S
C2275 C2276 1.524 . S
C2275 H2278 0.999 . S
C2276 H2246 0.950 . S
C2276 C2275 1.524 . S
C2276 C2277 1.415 . S
C2277 H2247 0.950 . S
C2277 C2272 1.363 . S
C2277 C2276 1.415 . S
H2278 C2275 0.999 . S
H2279 C2260 0.913 . S
H2280 C2298 0.951 . S
H2281 C2300 0.951 . S
H2282 C2302 0.950 . S
H2283 C2303 0.950 . S
H2284 C2305 0.950 1_565 S
H2285 C2308 0.950 . S
H2286 C2309 0.950 . S
H2287 C2311 0.950 . S
H2288 C2312 0.950 . S
H2289 C2313 0.951 . S
H2290 C2315 0.951 . S
H2291 C2317 0.950 . S
H2292 C2318 0.950 . S
H2293 C2320 0.950 . S
H2294 C2323 0.950 . S
H2295 C2324 0.950 . S
H2296 C2326 0.950 . S
H2297 C2327 0.950 . S
C2298 H2280 0.951 . S
C2298 C2299 1.366 . S
C2298 C2300 1.388 . S
C2299 C2298 1.366 . S
C2299 C2303 1.385 . S
C2300 H2281 0.951 . S
C2300 C2298 1.388 . S
C2300 C2301 1.366 . S
C2301 C2300 1.366 . S
C2301 C2302 1.414 . S
C2301 C2304 1.499 . S
C2302 H2282 0.950 . S
C2302 C2301 1.414 . S
C2302 C2303 1.374 . S
C2303 H2283 0.950 . S
C2303 C2299 1.385 . S
C2303 C2302 1.374 . S
C2304 C2301 1.499 . S
C2304 C2305 1.373 . S
C2304 C2306 1.389 . S
C2305 H2284 0.950 1_545 S
C2305 C2304 1.373 . S
C2305 C2321 1.377 . S
C2306 C2304 1.389 . S
C2306 C2307 1.524 . S
C2306 C2320 1.377 . S
C2307 C2306 1.524 . S
C2307 C2308 1.397 . S
C2307 C2312 1.363 . S
C2308 H2285 0.950 . S
C2308 C2307 1.397 . S
C2308 C2309 1.334 . S
C2309 H2286 0.950 . S
C2309 C2308 1.334 . S
C2309 C2310 1.287 . S
C2310 C2309 1.287 . S
C2310 C2311 1.524 . S
C2310 H2329 0.913 . S
C2311 H2287 0.950 . S
C2311 C2310 1.524 . S
C2311 C2312 1.415 . S
C2312 H2288 0.950 . S
C2312 C2307 1.363 . S
C2312 C2311 1.415 . S
C2313 H2289 0.951 . S
C2313 C2314 1.366 . S
C2313 C2315 1.388 . S
C2314 C2313 1.366 . S
C2314 C2318 1.385 1_455 S
C2315 H2290 0.951 . S
C2315 C2313 1.388 . S
C2315 C2316 1.366 1_455 S
C2316 C2315 1.366 1_655 S
C2316 C2317 1.414 . S
C2316 C2319 1.499 . S
C2317 H2291 0.950 . S
C2317 C2316 1.414 . S
C2317 C2318 1.374 . S
C2318 H2292 0.950 . S
C2318 C2314 1.385 1_655 S
C2318 C2317 1.374 . S
C2319 C2316 1.499 . S
C2319 C2320 1.373 . S
C2319 C2321 1.389 . S
C2320 H2293 0.950 . S
C2320 C2306 1.377 . S
C2320 C2319 1.373 . S
C2321 C2305 1.377 . S
C2321 C2319 1.389 . S
C2321 C2322 1.524 1_545 S
C2322 C2321 1.524 1_565 S
C2322 C2323 1.397 . S
C2322 C2327 1.363 1_655 S
C2323 H2294 0.950 . S
C2323 C2322 1.397 . S
C2323 C2324 1.334 . S
C2324 H2295 0.950 . S
C2324 C2323 1.334 . S
C2324 C2325 1.287 1_655 S
C2325 C2324 1.287 1_455 S
C2325 C2326 1.524 . S
C2325 H2328 0.999 . S
C2326 H2296 0.950 . S
C2326 C2325 1.524 . S
C2326 C2327 1.415 . S
C2327 H2297 0.950 . S
C2327 C2322 1.363 1_455 S
C2327 C2326 1.415 . S
H2328 C2325 0.999 . S
H2329 C2310 0.913 . S
H2330 C2348 0.951 . S
H2331 C2350 0.951 . S
H2332 C2352 0.950 . S
H2333 C2353 0.950 . S
H2334 C2355 0.950 . S
H2335 C2358 0.950 . S
H2336 C2359 0.950 . S
H2337 C2361 0.950 . S
H2338 C2362 0.950 . S
H2339 C2363 0.951 . S
H2340 C2365 0.951 . S
H2341 C2367 0.950 . S
H2342 C2368 0.950 . S
H2343 C2370 0.950 . S
H2344 C2373 0.950 . S
H2345 C2374 0.950 . S
H2346 C2376 0.950 . S
H2347 C2377 0.950 . S
C2348 H2330 0.951 . S
C2348 C2349 1.366 . S
C2348 C2350 1.388 . S
C2349 C2348 1.366 . S
C2349 C2353 1.385 . S
C2350 H2331 0.951 . S
C2350 C2348 1.388 . S
C2350 C2351 1.366 . S
C2351 C2350 1.366 . S
C2351 C2352 1.414 . S
C2351 C2354 1.499 . S
C2352 H2332 0.950 . S
C2352 C2351 1.414 . S
C2352 C2353 1.374 . S
C2353 H2333 0.950 . S
C2353 C2349 1.385 . S
C2353 C2352 1.374 . S
C2354 C2351 1.499 . S
C2354 C2355 1.373 . S
C2354 C2356 1.389 . S
C2355 H2334 0.950 . S
C2355 C2354 1.373 . S
C2355 C2371 1.377 . S
C2356 C2354 1.389 . S
C2356 C2357 1.524 . S
C2356 C2370 1.377 . S
C2357 C2356 1.524 . S
C2357 C2358 1.397 . S
C2357 C2362 1.363 . S
C2358 H2335 0.950 . S
C2358 C2357 1.397 . S
C2358 C2359 1.334 . S
C2359 H2336 0.950 . S
C2359 C2358 1.334 . S
C2359 C2360 1.287 . S
C2360 C2359 1.287 . S
C2360 C2361 1.524 . S
C2360 H2379 0.913 . S
C2361 H2337 0.950 . S
C2361 C2360 1.524 . S
C2361 C2362 1.415 . S
C2362 H2338 0.950 . S
C2362 C2357 1.363 . S
C2362 C2361 1.415 . S
C2363 H2339 0.951 . S
C2363 C2364 1.366 . S
C2363 C2365 1.388 . S
C2364 C2363 1.366 . S
C2364 C2368 1.385 . S
C2365 H2340 0.951 . S
C2365 C2363 1.388 . S
C2365 C2366 1.366 . S
C2366 C2365 1.366 . S
C2366 C2367 1.414 . S
C2366 C2369 1.499 . S
C2367 H2341 0.950 . S
C2367 C2366 1.414 . S
C2367 C2368 1.374 . S
C2368 H2342 0.950 . S
C2368 C2364 1.385 . S
C2368 C2367 1.374 . S
C2369 C2366 1.499 . S
C2369 C2370 1.373 . S
C2369 C2371 1.389 . S
C2370 H2343 0.950 . S
C2370 C2356 1.377 . S
C2370 C2369 1.373 . S
C2371 C2355 1.377 . S
C2371 C2369 1.389 . S
C2371 C2372 1.524 . S
C2372 C2371 1.524 . S
C2372 C2373 1.397 . S
C2372 C2377 1.363 . S
C2373 H2344 0.950 . S
C2373 C2372 1.397 . S
C2373 C2374 1.334 . S
C2374 H2345 0.950 . S
C2374 C2373 1.334 . S
C2374 C2375 1.287 . S
C2375 C2374 1.287 . S
C2375 C2376 1.524 . S
C2375 H2378 0.999 . S
C2376 H2346 0.950 . S
C2376 C2375 1.524 . S
C2376 C2377 1.415 . S
C2377 H2347 0.950 . S
C2377 C2372 1.363 . S
C2377 C2376 1.415 . S
H2378 C2375 0.999 . S
H2379 C2360 0.913 . S
H2380 C2398 0.951 . S
H2381 C2400 0.951 . S
H2382 C2402 0.950 . S
H2383 C2403 0.950 . S
H2384 C2405 0.950 . S
H2385 C2408 0.950 . S
H2386 C2409 0.950 . S
H2387 C2411 0.950 . S
H2388 C2412 0.950 . S
H2389 C2413 0.951 . S
H2390 C2415 0.951 . S
H2391 C2417 0.950 . S
H2392 C2418 0.950 . S
H2393 C2420 0.950 . S
H2394 C2423 0.950 . S
H2395 C2424 0.950 1_565 S
H2396 C2426 0.950 . S
H2397 C2427 0.950 . S
C2398 H2380 0.951 . S
C2398 C2399 1.366 . S
C2398 C2400 1.388 . S
C2399 C2398 1.366 . S
C2399 C2403 1.385 . S
C2400 H2381 0.951 . S
C2400 C2398 1.388 . S
C2400 C2401 1.366 . S
C2401 C2400 1.366 . S
C2401 C2402 1.414 . S
C2401 C2404 1.499 . S
C2402 H2382 0.950 . S
C2402 C2401 1.414 . S
C2402 C2403 1.374 . S
C2403 H2383 0.950 . S
C2403 C2399 1.385 . S
C2403 C2402 1.374 . S
C2404 C2401 1.499 . S
C2404 C2405 1.373 . S
C2404 C2406 1.389 . S
C2405 H2384 0.950 . S
C2405 C2404 1.373 . S
C2405 C2421 1.377 . S
C2406 C2404 1.389 . S
C2406 C2407 1.524 . S
C2406 C2420 1.377 . S
C2407 C2406 1.524 . S
C2407 C2408 1.397 . S
C2407 C2412 1.363 . S
C2408 H2385 0.950 . S
C2408 C2407 1.397 . S
C2408 C2409 1.334 . S
C2409 H2386 0.950 . S
C2409 C2408 1.334 . S
C2409 C2410 1.287 . S
C2410 C2409 1.287 . S
C2410 C2411 1.524 . S
C2410 H2429 0.913 . S
C2411 H2387 0.950 . S
C2411 C2410 1.524 . S
C2411 C2412 1.415 . S
C2412 H2388 0.950 . S
C2412 C2407 1.363 . S
C2412 C2411 1.415 . S
C2413 H2389 0.951 . S
C2413 C2414 1.366 . S
C2413 C2415 1.388 . S
C2414 C2413 1.366 . S
C2414 C2418 1.385 . S
C2415 H2390 0.951 . S
C2415 C2413 1.388 . S
C2415 C2416 1.366 . S
C2416 C2415 1.366 . S
C2416 C2417 1.414 . S
C2416 C2419 1.499 . S
C2417 H2391 0.950 . S
C2417 C2416 1.414 . S
C2417 C2418 1.374 . S
C2418 H2392 0.950 . S
C2418 C2414 1.385 . S
C2418 C2417 1.374 . S
C2419 C2416 1.499 . S
C2419 C2420 1.373 . S
C2419 C2421 1.389 . S
C2420 H2393 0.950 . S
C2420 C2406 1.377 . S
C2420 C2419 1.373 . S
C2421 C2405 1.377 . S
C2421 C2419 1.389 . S
C2421 C2422 1.524 . S
C2422 C2421 1.524 . S
C2422 C2423 1.397 . S
C2422 C2427 1.363 . S
C2423 H2394 0.950 . S
C2423 C2422 1.397 . S
C2423 C2424 1.334 . S
C2424 H2395 0.950 1_545 S
C2424 C2423 1.334 . S
C2424 C2425 1.287 . S
C2425 C2424 1.287 . S
C2425 C2426 1.524 . S
C2425 H2428 0.999 . S
C2426 H2396 0.950 . S
C2426 C2425 1.524 . S
C2426 C2427 1.415 . S
C2427 H2397 0.950 . S
C2427 C2422 1.363 . S
C2427 C2426 1.415 . S
H2428 C2425 0.999 . S
H2429 C2410 0.913 . S
H2430 C2448 0.951 . S
H2431 C2450 0.951 . S
H2432 C2452 0.950 . S
H2433 C2453 0.950 . S
H2434 C2455 0.950 . S
H2435 C2458 0.950 . S
H2436 C2459 0.950 . S
H2437 C2461 0.950 . S
H2438 C2462 0.950 . S
H2439 C2463 0.951 . S
H2440 C2465 0.951 . S
H2441 C2467 0.950 . S
H2442 C2468 0.950 . S
H2443 C2470 0.950 . S
H2444 C2473 0.950 . S
H2445 C2474 0.950 . S
H2446 C2476 0.950 . S
H2447 C2477 0.950 . S
C2448 H2430 0.951 . S
C2448 C2449 1.366 . S
C2448 C2450 1.388 . S
C2449 C2448 1.366 . S
C2449 C2453 1.385 . S
C2450 H2431 0.951 . S
C2450 C2448 1.388 . S
C2450 C2451 1.366 . S
C2451 C2450 1.366 . S
C2451 C2452 1.414 . S
C2451 C2454 1.499 . S
C2452 H2432 0.950 . S
C2452 C2451 1.414 . S
C2452 C2453 1.374 . S
C2453 H2433 0.950 . S
C2453 C2449 1.385 . S
C2453 C2452 1.374 . S
C2454 C2451 1.499 . S
C2454 C2455 1.373 . S
C2454 C2456 1.389 . S
C2455 H2434 0.950 . S
C2455 C2454 1.373 . S
C2455 C2471 1.377 . S
C2456 C2454 1.389 . S
C2456 C2457 1.524 . S
C2456 C2470 1.377 . S
C2457 C2456 1.524 . S
C2457 C2458 1.397 . S
C2457 C2462 1.363 . S
C2458 H2435 0.950 . S
C2458 C2457 1.397 . S
C2458 C2459 1.334 . S
C2459 H2436 0.950 . S
C2459 C2458 1.334 . S
C2459 C2460 1.287 . S
C2460 C2459 1.287 . S
C2460 C2461 1.524 . S
C2460 H2479 0.913 . S
C2461 H2437 0.950 . S
C2461 C2460 1.524 . S
C2461 C2462 1.415 . S
C2462 H2438 0.950 . S
C2462 C2457 1.363 . S
C2462 C2461 1.415 . S
C2463 H2439 0.951 . S
C2463 C2464 1.366 . S
C2463 C2465 1.388 . S
C2464 C2463 1.366 . S
C2464 C2468 1.385 . S
C2465 H2440 0.951 . S
C2465 C2463 1.388 . S
C2465 C2466 1.366 . S
C2466 C2465 1.366 . S
C2466 C2467 1.414 . S
C2466 C2469 1.499 . S
C2467 H2441 0.950 . S
C2467 C2466 1.414 . S
C2467 C2468 1.374 . S
C2468 H2442 0.950 . S
C2468 C2464 1.385 . S
C2468 C2467 1.374 . S
C2469 C2466 1.499 . S
C2469 C2470 1.373 . S
C2469 C2471 1.389 . S
C2470 H2443 0.950 . S
C2470 C2456 1.377 . S
C2470 C2469 1.373 . S
C2471 C2455 1.377 . S
C2471 C2469 1.389 . S
C2471 C2472 1.524 . S
C2472 C2471 1.524 . S
C2472 C2473 1.397 . S
C2472 C2477 1.363 . S
C2473 H2444 0.950 . S
C2473 C2472 1.397 . S
C2473 C2474 1.334 . S
C2474 H2445 0.950 . S
C2474 C2473 1.334 . S
C2474 C2475 1.287 . S
C2475 C2474 1.287 . S
C2475 C2476 1.524 . S
C2475 H2478 0.999 . S
C2476 H2446 0.950 . S
C2476 C2475 1.524 . S
C2476 C2477 1.415 . S
C2477 H2447 0.950 . S
C2477 C2472 1.363 . S
C2477 C2476 1.415 . S
H2478 C2475 0.999 . S
H2479 C2460 0.913 . S
H2480 C2498 0.951 . S
H2481 C2500 0.951 . S
H2482 C2502 0.950 . S
H2483 C2503 0.950 . S
H2484 C2505 0.950 . S
H2485 C2508 0.950 . S
H2486 C2509 0.950 . S
H2487 C2511 0.950 . S
H2488 C2512 0.950 . S
H2489 C2513 0.951 . S
H2490 C2515 0.951 . S
H2491 C2517 0.950 . S
H2492 C2518 0.950 . S
H2493 C2520 0.950 . S
H2494 C2523 0.950 . S
H2495 C2524 0.950 . S
H2496 C2526 0.950 . S
H2497 C2527 0.950 1_556 S
C2498 H2480 0.951 . S
C2498 C2499 1.366 1_554 S
C2498 C2500 1.388 . S
C2499 C2498 1.366 1_556 S
C2499 C2503 1.385 . S
C2500 H2481 0.951 . S
C2500 C2498 1.388 . S
C2500 C2501 1.366 . S
C2501 C2500 1.366 . S
C2501 C2502 1.414 1_554 S
C2501 C2504 1.499 . S
C2502 H2482 0.950 . S
C2502 C2501 1.414 1_556 S
C2502 C2503 1.374 . S
C2503 H2483 0.950 . S
C2503 C2499 1.385 . S
C2503 C2502 1.374 . S
C2504 C2501 1.499 . S
C2504 C2505 1.373 . S
C2504 C2506 1.389 . S
C2505 H2484 0.950 . S
C2505 C2504 1.373 . S
C2505 C2521 1.377 . S
C2506 C2504 1.389 . S
C2506 C2507 1.524 . S
C2506 C2520 1.377 . S
C2507 C2506 1.524 . S
C2507 C2508 1.397 1_554 S
C2507 C2512 1.363 . S
C2508 H2485 0.950 . S
C2508 C2507 1.397 1_556 S
C2508 C2509 1.334 . S
C2509 H2486 0.950 . S
C2509 C2508 1.334 . S
C2509 C2510 1.287 . S
C2510 C2509 1.287 . S
C2510 C2511 1.524 1_556 S
C2510 H2529 0.913 . S
C2511 H2487 0.950 . S
C2511 C2510 1.524 1_554 S
C2511 C2512 1.415 . S
C2512 H2488 0.950 . S
C2512 C2507 1.363 . S
C2512 C2511 1.415 . S
C2513 H2489 0.951 . S
C2513 C2514 1.366 1_545 S
C2513 C2515 1.388 1_545 S
C2514 C2513 1.366 1_565 S
C2514 C2518 1.385 . S
C2515 H2490 0.951 . S
C2515 C2513 1.388 1_565 S
C2515 C2516 1.366 . S
C2516 C2515 1.366 . S
C2516 C2517 1.414 . S
C2516 C2519 1.499 . S
C2517 H2491 0.950 . S
C2517 C2516 1.414 . S
C2517 C2518 1.374 . S
C2518 H2492 0.950 . S
C2518 C2514 1.385 . S
C2518 C2517 1.374 . S
C2519 C2516 1.499 . S
C2519 C2520 1.373 . S
C2519 C2521 1.389 . S
C2520 H2493 0.950 . S
C2520 C2506 1.377 . S
C2520 C2519 1.373 . S
C2521 C2505 1.377 . S
C2521 C2519 1.389 . S
C2521 C2522 1.524 1_565 S
C2522 C2521 1.524 1_545 S
C2522 C2523 1.397 . S
C2522 C2527 1.363 . S
C2523 H2494 0.950 . S
C2523 C2522 1.397 . S
C2523 C2524 1.334 . S
C2524 H2495 0.950 . S
C2524 C2523 1.334 . S
C2524 C2525 1.287 . S
C2525 C2524 1.287 . S
C2525 C2526 1.524 . S
C2525 H2528 0.999 . S
C2526 H2496 0.950 . S
C2526 C2525 1.524 . S
C2526 C2527 1.415 . S
C2527 H2497 0.950 1_554 S
C2527 C2522 1.363 . S
C2527 C2526 1.415 . S
H2528 C2525 0.999 . S
H2529 C2510 0.913 . S
H2530 C2548 0.951 . S
H2531 C2550 0.951 . S
H2532 C2552 0.950 . S
H2533 C2553 0.962 . S
H2534 C2555 0.950 . S
H2535 C2558 0.950 . S
H2536 C2559 0.950 . S
H2537 C2561 0.950 . S
H2538 C2562 0.950 . S
H2539 C2563 0.951 . S
H2540 C2565 0.951 . S
H2541 C2567 0.950 . S
H2542 C2568 0.950 . S
H2543 C2570 0.950 . S
H2544 C2573 0.950 . S
H2545 C2574 0.950 . S
H2546 C2576 0.950 . S
H2547 C2577 0.950 . S
C2548 H2530 0.951 . S
C2548 C2549 1.366 . S
C2548 C2550 1.388 . S
C2549 C2548 1.366 . S
C2549 C2553 1.385 . S
C2550 H2531 0.951 . S
C2550 C2548 1.388 . S
C2550 C2551 1.366 . S
C2551 C2550 1.366 . S
C2551 C2552 1.414 . S
C2551 C2554 1.499 . S
C2552 H2532 0.950 . S
C2552 C2551 1.414 . S
C2552 C2553 1.374 . S
C2553 H2533 0.962 . S
C2553 C2549 1.385 . S
C2553 C2552 1.374 . S
C2554 C2551 1.499 . S
C2554 C2555 1.373 1_554 S
C2554 C2556 1.389 . S
C2555 H2534 0.950 . S
C2555 C2554 1.373 1_556 S
C2555 C2571 1.377 . S
C2556 C2554 1.389 . S
C2556 C2557 1.524 . S
C2556 C2570 1.377 . S
C2557 C2556 1.524 . S
C2557 C2558 1.397 . S
C2557 C2562 1.363 . S
C2558 H2535 0.950 . S
C2558 C2557 1.397 . S
C2558 C2559 1.334 . S
C2559 H2536 0.950 . S
C2559 C2558 1.334 . S
C2559 C2560 1.287 . S
C2560 C2559 1.287 . S
C2560 C2561 1.524 . S
C2560 H2579 0.913 . S
C2561 H2537 0.950 . S
C2561 C2560 1.524 . S
C2561 C2562 1.415 . S
C2562 H2538 0.950 . S
C2562 C2557 1.363 . S
C2562 C2561 1.415 . S
C2563 H2539 0.951 . S
C2563 C2564 1.366 . S
C2563 C2565 1.388 . S
C2564 C2563 1.366 . S
C2564 C2568 1.385 . S
C2565 H2540 0.951 . S
C2565 C2563 1.388 . S
C2565 C2566 1.366 . S
C2566 C2565 1.366 . S
C2566 C2567 1.414 . S
C2566 C2569 1.499 . S
C2567 H2541 0.950 . S
C2567 C2566 1.414 . S
C2567 C2568 1.374 . S
C2568 H2542 0.950 . S
C2568 C2564 1.385 . S
C2568 C2567 1.374 . S
C2569 C2566 1.499 . S
C2569 C2570 1.373 . S
C2569 C2571 1.389 1_554 S
C2570 H2543 0.950 . S
C2570 C2556 1.377 . S
C2570 C2569 1.373 . S
C2571 C2555 1.377 . S
C2571 C2569 1.389 1_556 S
C2571 C2572 1.524 . S
C2572 C2571 1.524 . S
C2572 C2573 1.397 . S
C2572 C2577 1.363 . S
C2573 H2544 0.950 . S
C2573 C2572 1.397 . S
C2573 C2574 1.334 . S
C2574 H2545 0.950 . S
C2574 C2573 1.334 . S
C2574 C2575 1.287 . S
C2575 C2574 1.287 . S
C2575 C2576 1.524 . S
C2575 H2578 0.999 . S
C2576 H2546 0.950 . S
C2576 C2575 1.524 . S
C2576 C2577 1.415 . S
C2577 H2547 0.950 . S
C2577 C2572 1.363 . S
C2577 C2576 1.415 . S
H2578 C2575 0.999 . S
H2579 C2560 0.913 . S
H2580 C2598 0.951 . S
H2581 C2600 0.951 . S
H2582 C2602 0.950 . S
H2583 C2603 0.950 . S
H2584 C2605 0.950 . S
H2585 C2608 0.950 . S
H2586 C2609 0.950 . S
H2587 C2611 0.950 . S
H2588 C2612 0.950 . S
H2589 C2613 0.951 . S
H2590 C2615 0.951 . S
H2591 C2617 0.950 . S
H2592 C2618 0.950 . S
H2593 C2620 0.950 . S
H2594 C2623 0.950 . S
H2595 C2624 0.950 . S
H2596 C2626 0.950 . S
H2597 C2627 0.950 . S
C2598 H2580 0.951 . S
C2598 C2599 1.366 . S
C2598 C2600 1.388 . S
C2599 C2598 1.366 . S
C2599 C2603 1.385 . S
C2600 H2581 0.951 . S
C2600 C2598 1.388 . S
C2600 C2601 1.366 . S
C2601 C2600 1.366 . S
C2601 C2602 1.414 . S
C2601 C2604 1.499 . S
C2602 H2582 0.950 . S
C2602 C2601 1.414 . S
C2602 C2603 1.374 . S
C2603 H2583 0.950 . S
C2603 C2599 1.385 . S
C2603 C2602 1.374 . S
C2604 C2601 1.499 . S
C2604 C2605 1.373 . S
C2604 C2606 1.389 . S
C2605 H2584 0.950 . S
C2605 C2604 1.373 . S
C2605 C2621 1.377 . S
C2606 C2604 1.389 . S
C2606 C2607 1.524 . S
C2606 C2620 1.377 . S
C2607 C2606 1.524 . S
C2607 C2608 1.397 . S
C2607 C2612 1.363 . S
C2608 H2585 0.950 . S
C2608 C2607 1.397 . S
C2608 C2609 1.334 . S
C2609 H2586 0.950 . S
C2609 C2608 1.334 . S
C2609 C2610 1.287 . S
C2610 C2609 1.287 . S
C2610 C2611 1.524 . S
C2610 H2629 0.913 . S
C2611 H2587 0.950 . S
C2611 C2610 1.524 . S
C2611 C2612 1.415 . S
C2612 H2588 0.950 . S
C2612 C2607 1.363 . S
C2612 C2611 1.415 . S
C2613 H2589 0.951 . S
C2613 C2614 1.366 . S
C2613 C2615 1.388 . S
C2614 C2613 1.366 . S
C2614 C2618 1.385 . S
C2615 H2590 0.951 . S
C2615 C2613 1.388 . S
C2615 C2616 1.366 . S
C2616 C2615 1.366 . S
C2616 C2617 1.414 . S
C2616 C2619 1.499 . S
C2617 H2591 0.950 . S
C2617 C2616 1.414 . S
C2617 C2618 1.374 . S
C2618 H2592 0.950 . S
C2618 C2614 1.385 . S
C2618 C2617 1.374 . S
C2619 C2616 1.499 . S
C2619 C2620 1.373 . S
C2619 C2621 1.389 . S
C2620 H2593 0.950 . S
C2620 C2606 1.377 . S
C2620 C2619 1.373 . S
C2621 C2605 1.377 . S
C2621 C2619 1.389 . S
C2621 C2622 1.524 . S
C2622 C2621 1.524 . S
C2622 C2623 1.397 . S
C2622 C2627 1.363 . S
C2623 H2594 0.950 . S
C2623 C2622 1.397 . S
C2623 C2624 1.334 . S
C2624 H2595 0.950 . S
C2624 C2623 1.334 . S
C2624 C2625 1.287 . S
C2625 C2624 1.287 . S
C2625 C2626 1.524 . S
C2625 H2628 0.999 . S
C2626 H2596 0.950 . S
C2626 C2625 1.524 . S
C2626 C2627 1.415 . S
C2627 H2597 0.950 . S
C2627 C2622 1.363 . S
C2627 C2626 1.415 . S
H2628 C2625 0.999 . S
H2629 C2610 0.913 . S
H2630 C2648 0.951 . S
H2631 C2650 0.951 . S
H2632 C2652 0.950 . S
H2633 C2653 0.950 . S
H2634 C2655 0.950 . S
H2635 C2658 0.950 . S
H2636 C2659 0.950 . S
H2637 C2661 0.950 . S
H2638 C2662 0.950 . S
H2639 C2663 0.951 . S
H2640 C2665 0.951 . S
H2641 C2667 0.950 . S
H2642 C2668 0.950 . S
H2643 C2670 0.950 . S
H2644 C2673 0.950 . S
H2645 C2674 0.950 . S
H2646 C2676 0.950 . S
H2647 C2677 0.950 . S
C2648 H2630 0.951 . S
C2648 C2649 1.366 . S
C2648 C2650 1.388 . S
C2649 C2648 1.366 . S
C2649 C2653 1.385 . S
C2650 H2631 0.951 . S
C2650 C2648 1.388 . S
C2650 C2651 1.366 . S
C2651 C2650 1.366 . S
C2651 C2652 1.414 . S
C2651 C2654 1.499 . S
C2652 H2632 0.950 . S
C2652 C2651 1.414 . S
C2652 C2653 1.374 . S
C2653 H2633 0.950 . S
C2653 C2649 1.385 . S
C2653 C2652 1.374 . S
C2654 C2651 1.499 . S
C2654 C2655 1.373 . S
C2654 C2656 1.389 . S
C2655 H2634 0.950 . S
C2655 C2654 1.373 . S
C2655 C2671 1.377 . S
C2656 C2654 1.389 . S
C2656 C2657 1.524 . S
C2656 C2670 1.377 . S
C2657 C2656 1.524 . S
C2657 C2658 1.397 . S
C2657 C2662 1.363 . S
C2658 H2635 0.950 . S
C2658 C2657 1.397 . S
C2658 C2659 1.334 . S
C2659 H2636 0.950 . S
C2659 C2658 1.334 . S
C2659 C2660 1.287 . S
C2660 C2659 1.287 . S
C2660 C2661 1.524 . S
C2660 H2679 0.913 . S
C2661 H2637 0.950 . S
C2661 C2660 1.524 . S
C2661 C2662 1.415 . S
C2662 H2638 0.950 . S
C2662 C2657 1.363 . S
C2662 C2661 1.415 . S
C2663 H2639 0.951 . S
C2663 C2664 1.366 . S
C2663 C2665 1.388 . S
C2664 C2663 1.366 . S
C2664 C2668 1.385 . S
C2665 H2640 0.951 . S
C2665 C2663 1.388 . S
C2665 C2666 1.366 . S
C2666 C2665 1.366 . S
C2666 C2667 1.414 . S
C2666 C2669 1.499 . S
C2667 H2641 0.950 . S
C2667 C2666 1.414 . S
C2667 C2668 1.374 . S
C2668 H2642 0.950 . S
C2668 C2664 1.385 . S
C2668 C2667 1.374 . S
C2669 C2666 1.499 . S
C2669 C2670 1.373 . S
C2669 C2671 1.389 . S
C2670 H2643 0.950 . S
C2670 C2656 1.377 . S
C2670 C2669 1.373 . S
C2671 C2655 1.377 . S
C2671 C2669 1.389 . S
C2671 C2672 1.524 . S
C2672 C2671 1.524 . S
C2672 C2673 1.397 . S
C2672 C2677 1.363 . S
C2673 H2644 0.950 . S
C2673 C2672 1.397 . S
C2673 C2674 1.334 . S
C2674 H2645 0.950 . S
C2674 C2673 1.334 . S
C2674 C2675 1.287 . S
C2675 C2674 1.287 . S
C2675 C2676 1.524 . S
C2675 H2678 0.999 . S
C2676 H2646 0.950 . S
C2676 C2675 1.524 . S
C2676 C2677 1.415 . S
C2677 H2647 0.950 . S
C2677 C2672 1.363 . S
C2677 C2676 1.415 . S
H2678 C2675 0.999 . S
H2679 C2660 0.913 . S
H2680 C2698 0.951 . S
H2681 C2700 0.951 . S
H2682 C2702 0.950 . S
H2683 C2703 0.950 . S
H2684 C2705 0.950 . S
H2685 C2708 0.950 . S
H2686 C2709 0.950 . S
H2687 C2711 0.950 . S
H2688 C2712 0.950 . S
H2689 C2713 0.951 . S
H2690 C2715 0.951 . S
H2691 C2717 0.950 . S
H2692 C2718 0.950 . S
H2693 C2720 0.950 . S
H2694 C2723 0.950 . S
H2695 C2724 0.950 . S
H2696 C2726 0.950 . S
H2697 C2727 0.950 . S
C2698 H2680 0.951 . S
C2698 C2699 1.366 . S
C2698 C2700 1.388 . S
C2699 C2698 1.366 . S
C2699 C2703 1.385 . S
C2700 H2681 0.951 . S
C2700 C2698 1.388 . S
C2700 C2701 1.366 . S
C2701 C2700 1.366 . S
C2701 C2702 1.414 . S
C2701 C2704 1.499 . S
C2702 H2682 0.950 . S
C2702 C2701 1.414 . S
C2702 C2703 1.374 . S
C2703 H2683 0.950 . S
C2703 C2699 1.385 . S
C2703 C2702 1.374 . S
C2704 C2701 1.499 . S
C2704 C2705 1.373 . S
C2704 C2706 1.389 . S
C2705 H2684 0.950 . S
C2705 C2704 1.373 . S
C2705 C2721 1.377 . S
C2706 C2704 1.389 . S
C2706 C2707 1.524 . S
C2706 C2720 1.377 . S
C2707 C2706 1.524 . S
C2707 C2708 1.397 . S
C2707 C2712 1.363 . S
C2708 H2685 0.950 . S
C2708 C2707 1.397 . S
C2708 C2709 1.334 . S
C2709 H2686 0.950 . S
C2709 C2708 1.334 . S
C2709 C2710 1.287 . S
C2710 C2709 1.287 . S
C2710 C2711 1.524 . S
C2710 H2729 0.913 . S
C2711 H2687 0.950 . S
C2711 C2710 1.524 . S
C2711 C2712 1.415 . S
C2712 H2688 0.950 . S
C2712 C2707 1.363 . S
C2712 C2711 1.415 . S
C2713 H2689 0.951 . S
C2713 C2714 1.366 . S
C2713 C2715 1.388 . S
C2714 C2713 1.366 . S
C2714 C2718 1.385 . S
C2715 H2690 0.951 . S
C2715 C2713 1.388 . S
C2715 C2716 1.366 . S
C2716 C2715 1.366 . S
C2716 C2717 1.414 . S
C2716 C2719 1.499 . S
C2717 H2691 0.950 . S
C2717 C2716 1.414 . S
C2717 C2718 1.374 . S
C2718 H2692 0.950 . S
C2718 C2714 1.385 . S
C2718 C2717 1.374 . S
C2719 C2716 1.499 . S
C2719 C2720 1.373 . S
C2719 C2721 1.389 . S
C2720 H2693 0.950 . S
C2720 C2706 1.377 . S
C2720 C2719 1.373 . S
C2721 C2705 1.377 . S
C2721 C2719 1.389 . S
C2721 C2722 1.524 . S
C2722 C2721 1.524 . S
C2722 C2723 1.397 . S
C2722 C2727 1.363 . S
C2723 H2694 0.950 . S
C2723 C2722 1.397 . S
C2723 C2724 1.334 . S
C2724 H2695 0.950 . S
C2724 C2723 1.334 . S
C2724 C2725 1.287 . S
C2725 C2724 1.287 . S
C2725 C2726 1.524 . S
C2725 H2728 0.999 . S
C2726 H2696 0.950 . S
C2726 C2725 1.524 . S
C2726 C2727 1.415 . S
C2727 H2697 0.950 . S
C2727 C2722 1.363 . S
C2727 C2726 1.415 . S
H2728 C2725 0.999 . S
H2729 C2710 0.913 . S
H2730 C2748 0.951 . S
H2731 C2750 0.951 . S
H2732 C2752 0.950 . S
H2733 C2753 0.950 . S
H2734 C2755 0.950 . S
H2735 C2758 0.950 . S
H2736 C2759 0.950 . S
H2737 C2761 0.950 . S
H2738 C2762 0.950 . S
H2739 C2763 0.951 . S
H2740 C2765 0.951 . S
H2741 C2767 0.950 . S
H2742 C2768 0.950 . S
H2743 C2770 0.950 . S
H2744 C2773 0.950 . S
H2745 C2774 0.950 . S
H2746 C2776 0.950 . S
H2747 C2777 0.950 . S
C2748 H2730 0.951 . S
C2748 C2749 1.366 . S
C2748 C2750 1.388 . S
C2749 C2748 1.366 . S
C2749 C2753 1.385 . S
C2750 H2731 0.951 . S
C2750 C2748 1.388 . S
C2750 C2751 1.366 . S
C2751 C2750 1.366 . S
C2751 C2752 1.414 . S
C2751 C2754 1.499 . S
C2752 H2732 0.950 . S
C2752 C2751 1.414 . S
C2752 C2753 1.374 . S
C2753 H2733 0.950 . S
C2753 C2749 1.385 . S
C2753 C2752 1.374 . S
C2754 C2751 1.499 . S
C2754 C2755 1.373 . S
C2754 C2756 1.389 . S
C2755 H2734 0.950 . S
C2755 C2754 1.373 . S
C2755 C2771 1.377 . S
C2756 C2754 1.389 . S
C2756 C2757 1.524 . S
C2756 C2770 1.377 . S
C2757 C2756 1.524 . S
C2757 C2758 1.397 . S
C2757 C2762 1.363 . S
C2758 H2735 0.950 . S
C2758 C2757 1.397 . S
C2758 C2759 1.334 . S
C2759 H2736 0.950 . S
C2759 C2758 1.334 . S
C2759 C2760 1.287 . S
C2760 C2759 1.287 . S
C2760 C2761 1.524 . S
C2760 H2779 0.913 . S
C2761 H2737 0.950 . S
C2761 C2760 1.524 . S
C2761 C2762 1.415 . S
C2762 H2738 0.950 . S
C2762 C2757 1.363 . S
C2762 C2761 1.415 . S
C2763 H2739 0.951 . S
C2763 C2764 1.366 . S
C2763 C2765 1.388 . S
C2764 C2763 1.366 . S
C2764 C2768 1.385 . S
C2765 H2740 0.951 . S
C2765 C2763 1.388 . S
C2765 C2766 1.366 . S
C2766 C2765 1.366 . S
C2766 C2767 1.414 . S
C2766 C2769 1.499 . S
C2767 H2741 0.950 . S
C2767 C2766 1.414 . S
C2767 C2768 1.374 . S
C2768 H2742 0.950 . S
C2768 C2764 1.385 . S
C2768 C2767 1.374 . S
C2769 C2766 1.499 . S
C2769 C2770 1.373 . S
C2769 C2771 1.389 . S
C2770 H2743 0.950 . S
C2770 C2756 1.377 . S
C2770 C2769 1.373 . S
C2771 C2755 1.377 . S
C2771 C2769 1.389 . S
C2771 C2772 1.524 . S
C2772 C2771 1.524 . S
C2772 C2773 1.397 . S
C2772 C2777 1.363 . S
C2773 H2744 0.950 . S
C2773 C2772 1.397 . S
C2773 C2774 1.334 . S
C2774 H2745 0.950 . S
C2774 C2773 1.334 . S
C2774 C2775 1.287 . S
C2775 C2774 1.287 . S
C2775 C2776 1.524 . S
C2775 H2778 0.999 . S
C2776 H2746 0.950 . S
C2776 C2775 1.524 . S
C2776 C2777 1.415 . S
C2777 H2747 0.950 . S
C2777 C2772 1.363 . S
C2777 C2776 1.415 . S
H2778 C2775 0.999 . S
H2779 C2760 0.913 . S
H2780 C2798 0.951 . S
H2781 C2800 0.951 . S
H2782 C2802 0.950 . S
H2783 C2803 0.950 . S
H2784 C2805 0.950 . S
H2785 C2808 0.950 . S
H2786 C2809 0.950 . S
H2787 C2811 0.950 . S
H2788 C2812 0.950 . S
H2789 C2813 0.951 . S
H2790 C2815 0.951 . S
H2791 C2817 0.950 . S
H2792 C2818 0.950 . S
H2793 C2820 0.950 . S
H2794 C2823 0.950 . S
H2795 C2824 0.950 . S
H2796 C2826 0.950 . S
H2797 C2827 0.950 . S
C2798 H2780 0.951 . S
C2798 C2799 1.366 . S
C2798 C2800 1.388 . S
C2799 C2798 1.366 . S
C2799 C2803 1.385 . S
C2800 H2781 0.951 . S
C2800 C2798 1.388 . S
C2800 C2801 1.366 . S
C2801 C2800 1.366 . S
C2801 C2802 1.414 . S
C2801 C2804 1.499 . S
C2802 H2782 0.950 . S
C2802 C2801 1.414 . S
C2802 C2803 1.374 . S
C2803 H2783 0.950 . S
C2803 C2799 1.385 . S
C2803 C2802 1.374 . S
C2804 C2801 1.499 . S
C2804 C2805 1.373 . S
C2804 C2806 1.389 . S
C2805 H2784 0.950 . S
C2805 C2804 1.373 . S
C2805 C2821 1.377 . S
C2806 C2804 1.389 . S
C2806 C2807 1.524 . S
C2806 C2820 1.377 . S
C2807 C2806 1.524 . S
C2807 C2808 1.397 . S
C2807 C2812 1.363 . S
C2808 H2785 0.950 . S
C2808 C2807 1.397 . S
C2808 C2809 1.334 . S
C2809 H2786 0.950 . S
C2809 C2808 1.334 . S
C2809 C2810 1.287 . S
C2810 C2809 1.287 . S
C2810 C2811 1.524 . S
C2810 H2829 0.913 . S
C2811 H2787 0.950 . S
C2811 C2810 1.524 . S
C2811 C2812 1.415 . S
C2812 H2788 0.950 . S
C2812 C2807 1.363 . S
C2812 C2811 1.415 . S
C2813 H2789 0.951 . S
C2813 C2814 1.366 . S
C2813 C2815 1.388 . S
C2814 C2813 1.366 . S
C2814 C2818 1.385 . S
C2815 H2790 0.951 . S
C2815 C2813 1.388 . S
C2815 C2816 1.366 . S
C2816 C2815 1.366 . S
C2816 C2817 1.414 . S
C2816 C2819 1.499 . S
C2817 H2791 0.950 . S
C2817 C2816 1.414 . S
C2817 C2818 1.374 . S
C2818 H2792 0.950 . S
C2818 C2814 1.385 . S
C2818 C2817 1.374 . S
C2819 C2816 1.499 . S
C2819 C2820 1.373 . S
C2819 C2821 1.389 . S
C2820 H2793 0.950 . S
C2820 C2806 1.377 . S
C2820 C2819 1.373 . S
C2821 C2805 1.377 . S
C2821 C2819 1.389 . S
C2821 C2822 1.524 . S
C2822 C2821 1.524 . S
C2822 C2823 1.397 . S
C2822 C2827 1.363 . S
C2823 H2794 0.950 . S
C2823 C2822 1.397 . S
C2823 C2824 1.334 . S
C2824 H2795 0.950 . S
C2824 C2823 1.334 . S
C2824 C2825 1.287 . S
C2825 C2824 1.287 . S
C2825 C2826 1.524 . S
C2825 H2828 0.999 . S
C2826 H2796 0.950 . S
C2826 C2825 1.524 . S
C2826 C2827 1.415 . S
C2827 H2797 0.950 . S
C2827 C2822 1.363 . S
C2827 C2826 1.415 . S
H2828 C2825 0.999 . S
H2829 C2810 0.913 . S
H2830 C2848 0.951 . S
H2831 C2850 0.951 . S
H2832 C2852 0.950 . S
H2833 C2853 0.950 . S
H2834 C2855 0.950 . S
H2835 C2858 0.950 . S
H2836 C2859 0.950 . S
H2837 C2861 0.950 . S
H2838 C2862 0.950 . S
H2839 C2863 0.951 . S
H2840 C2865 0.951 . S
H2841 C2867 0.950 . S
H2842 C2868 0.950 . S
H2843 C2870 0.950 . S
H2844 C2873 0.950 . S
H2845 C2874 0.950 . S
H2846 C2876 0.950 . S
H2847 C2877 0.950 . S
C2848 H2830 0.951 . S
C2848 C2849 1.366 . S
C2848 C2850 1.388 . S
C2849 C2848 1.366 . S
C2849 C2853 1.385 . S
C2850 H2831 0.951 . S
C2850 C2848 1.388 . S
C2850 C2851 1.366 . S
C2851 C2850 1.366 . S
C2851 C2852 1.414 . S
C2851 C2854 1.499 . S
C2852 H2832 0.950 . S
C2852 C2851 1.414 . S
C2852 C2853 1.374 . S
C2853 H2833 0.950 . S
C2853 C2849 1.385 . S
C2853 C2852 1.374 . S
C2854 C2851 1.499 . S
C2854 C2855 1.373 . S
C2854 C2856 1.389 . S
C2855 H2834 0.950 . S
C2855 C2854 1.373 . S
C2855 C2871 1.377 . S
C2856 C2854 1.389 . S
C2856 C2857 1.524 . S
C2856 C2870 1.377 . S
C2857 C2856 1.524 . S
C2857 C2858 1.397 . S
C2857 C2862 1.363 . S
C2858 H2835 0.950 . S
C2858 C2857 1.397 . S
C2858 C2859 1.334 . S
C2859 H2836 0.950 . S
C2859 C2858 1.334 . S
C2859 C2860 1.287 . S
C2860 C2859 1.287 . S
C2860 C2861 1.524 . S
C2860 H2879 0.913 . S
C2861 H2837 0.950 . S
C2861 C2860 1.524 . S
C2861 C2862 1.415 . S
C2862 H2838 0.950 . S
C2862 C2857 1.363 . S
C2862 C2861 1.415 . S
C2863 H2839 0.951 . S
C2863 C2864 1.366 . S
C2863 C2865 1.388 . S
C2864 C2863 1.366 . S
C2864 C2868 1.385 . S
C2865 H2840 0.951 . S
C2865 C2863 1.388 . S
C2865 C2866 1.366 . S
C2866 C2865 1.366 . S
C2866 C2867 1.414 . S
C2866 C2869 1.499 . S
C2867 H2841 0.950 . S
C2867 C2866 1.414 . S
C2867 C2868 1.374 . S
C2868 H2842 0.950 . S
C2868 C2864 1.385 . S
C2868 C2867 1.374 . S
C2869 C2866 1.499 . S
C2869 C2870 1.373 . S
C2869 C2871 1.389 . S
C2870 H2843 0.950 . S
C2870 C2856 1.377 . S
C2870 C2869 1.373 . S
C2871 C2855 1.377 . S
C2871 C2869 1.389 . S
C2871 C2872 1.524 . S
C2872 C2871 1.524 . S
C2872 C2873 1.397 . S
C2872 C2877 1.363 . S
C2873 H2844 0.950 . S
C2873 C2872 1.397 . S
C2873 C2874 1.334 . S
C2874 H2845 0.950 . S
C2874 C2873 1.334 . S
C2874 C2875 1.287 . S
C2875 C2874 1.287 . S
C2875 C2876 1.524 . S
C2875 H2878 0.999 . S
C2876 H2846 0.950 . S
C2876 C2875 1.524 . S
C2876 C2877 1.415 . S
C2877 H2847 0.950 . S
C2877 C2872 1.363 . S
C2877 C2876 1.415 . S
H2878 C2875 0.999 . S
H2879 C2860 0.913 . S
H2880 C2898 0.951 . S
H2881 C2900 0.951 . S
H2882 C2902 0.950 . S
H2883 C2903 0.950 . S
H2884 C2905 0.950 . S
H2885 C2908 0.950 . S
H2886 C2909 0.950 . S
H2887 C2911 0.950 . S
H2888 C2912 0.950 . S
H2889 C2913 0.951 . S
H2890 C2915 0.951 . S
H2891 C2917 0.950 . S
H2892 C2918 0.950 . S
H2893 C2920 0.950 . S
H2894 C2923 0.950 . S
H2895 C2924 0.950 . S
H2896 C2926 0.950 . S
H2897 C2927 0.950 1_655 S
C2898 H2880 0.951 . S
C2898 C2899 1.366 . S
C2898 C2900 1.388 . S
C2899 C2898 1.366 . S
C2899 C2903 1.385 . S
C2900 H2881 0.951 . S
C2900 C2898 1.388 . S
C2900 C2901 1.366 . S
C2901 C2900 1.366 . S
C2901 C2902 1.414 . S
C2901 C2904 1.499 . S
C2902 H2882 0.950 . S
C2902 C2901 1.414 . S
C2902 C2903 1.374 . S
C2903 H2883 0.950 . S
C2903 C2899 1.385 . S
C2903 C2902 1.374 . S
C2904 C2901 1.499 . S
C2904 C2905 1.373 . S
C2904 C2906 1.389 . S
C2905 H2884 0.950 . S
C2905 C2904 1.373 . S
C2905 C2921 1.377 . S
C2906 C2904 1.389 . S
C2906 C2907 1.524 . S
C2906 C2920 1.377 . S
C2907 C2906 1.524 . S
C2907 C2908 1.397 . S
C2907 C2912 1.363 . S
C2908 H2885 0.950 . S
C2908 C2907 1.397 . S
C2908 C2909 1.334 . S
C2909 H2886 0.950 . S
C2909 C2908 1.334 . S
C2909 C2910 1.287 . S
C2910 C2909 1.287 . S
C2910 C2911 1.524 . S
C2910 H2929 0.913 . S
C2911 H2887 0.950 . S
C2911 C2910 1.524 . S
C2911 C2912 1.415 . S
C2912 H2888 0.950 . S
C2912 C2907 1.363 . S
C2912 C2911 1.415 . S
C2913 H2889 0.951 . S
C2913 C2914 1.366 . S
C2913 C2915 1.388 . S
C2914 C2913 1.366 . S
C2914 C2918 1.385 . S
C2915 H2890 0.951 . S
C2915 C2913 1.388 . S
C2915 C2916 1.366 . S
C2916 C2915 1.366 . S
C2916 C2917 1.414 . S
C2916 C2919 1.499 . S
C2917 H2891 0.950 . S
C2917 C2916 1.414 . S
C2917 C2918 1.374 . S
C2918 H2892 0.950 . S
C2918 C2914 1.385 . S
C2918 C2917 1.374 . S
C2919 C2916 1.499 . S
C2919 C2920 1.373 . S
C2919 C2921 1.389 . S
C2920 H2893 0.950 . S
C2920 C2906 1.377 . S
C2920 C2919 1.373 . S
C2921 C2905 1.377 . S
C2921 C2919 1.389 . S
C2921 C2922 1.524 . S
C2922 C2921 1.524 . S
C2922 C2923 1.397 . S
C2922 C2927 1.363 . S
C2923 H2894 0.950 . S
C2923 C2922 1.397 . S
C2923 C2924 1.334 1_554 S
C2924 H2895 0.950 . S
C2924 C2923 1.334 1_556 S
C2924 C2925 1.287 . S
C2925 C2924 1.287 . S
C2925 C2926 1.524 1_456 S
C2925 H2928 0.999 1_455 S
C2926 H2896 0.950 . S
C2926 C2925 1.524 1_654 S
C2926 C2927 1.415 1_655 S
C2927 H2897 0.950 1_455 S
C2927 C2922 1.363 . S
C2927 C2926 1.415 1_455 S
H2928 C2925 0.999 1_655 S
H2929 C2910 0.913 . S
H2930 C2948 0.951 . S
H2931 C2950 0.951 . S
H2932 C2952 0.950 . S
H2933 C2953 0.950 . S
H2934 C2955 0.950 . S
H2935 C2958 0.950 . S
H2936 C2959 0.950 . S
H2937 C2961 0.950 . S
H2938 C2962 0.950 . S
H2939 C2963 0.951 . S
H2940 C2965 0.951 . S
H2941 C2967 0.950 . S
H2942 C2968 0.950 . S
H2943 C2970 0.950 . S
H2944 C2973 0.950 . S
H2945 C2974 0.950 . S
H2946 C2976 0.950 . S
H2947 C2977 0.950 . S
C2948 H2930 0.951 . S
C2948 C2949 1.366 . S
C2948 C2950 1.388 . S
C2949 C2948 1.366 . S
C2949 C2953 1.385 . S
C2950 H2931 0.951 . S
C2950 C2948 1.388 . S
C2950 C2951 1.366 . S
C2951 C2950 1.366 . S
C2951 C2952 1.414 . S
C2951 C2954 1.499 . S
C2952 H2932 0.950 . S
C2952 C2951 1.414 . S
C2952 C2953 1.374 . S
C2953 H2933 0.950 . S
C2953 C2949 1.385 . S
C2953 C2952 1.374 . S
C2954 C2951 1.499 . S
C2954 C2955 1.373 . S
C2954 C2956 1.389 . S
C2955 H2934 0.950 . S
C2955 C2954 1.373 . S
C2955 C2971 1.377 . S
C2956 C2954 1.389 . S
C2956 C2957 1.524 . S
C2956 C2970 1.377 . S
C2957 C2956 1.524 . S
C2957 C2958 1.397 . S
C2957 C2962 1.363 . S
C2958 H2935 0.950 . S
C2958 C2957 1.397 . S
C2958 C2959 1.334 . S
C2959 H2936 0.950 . S
C2959 C2958 1.334 . S
C2959 C2960 1.287 . S
C2960 C2959 1.287 . S
C2960 C2961 1.524 . S
C2960 H2979 0.913 . S
C2961 H2937 0.950 . S
C2961 C2960 1.524 . S
C2961 C2962 1.415 . S
C2962 H2938 0.950 . S
C2962 C2957 1.363 . S
C2962 C2961 1.415 . S
C2963 H2939 0.951 . S
C2963 C2964 1.366 . S
C2963 C2965 1.388 . S
C2964 C2963 1.366 . S
C2964 C2968 1.385 . S
C2965 H2940 0.951 . S
C2965 C2963 1.388 . S
C2965 C2966 1.366 . S
C2966 C2965 1.366 . S
C2966 C2967 1.414 . S
C2966 C2969 1.499 . S
C2967 H2941 0.950 . S
C2967 C2966 1.414 . S
C2967 C2968 1.374 . S
C2968 H2942 0.950 . S
C2968 C2964 1.385 . S
C2968 C2967 1.374 . S
C2969 C2966 1.499 . S
C2969 C2970 1.373 . S
C2969 C2971 1.389 . S
C2970 H2943 0.950 . S
C2970 C2956 1.377 . S
C2970 C2969 1.373 . S
C2971 C2955 1.377 . S
C2971 C2969 1.389 . S
C2971 C2972 1.524 . S
C2972 C2971 1.524 . S
C2972 C2973 1.397 . S
C2972 C2977 1.363 . S
C2973 H2944 0.950 . S
C2973 C2972 1.397 . S
C2973 C2974 1.334 . S
C2974 H2945 0.950 . S
C2974 C2973 1.334 . S
C2974 C2975 1.287 . S
C2975 C2974 1.287 . S
C2975 C2976 1.524 . S
C2975 H2978 0.999 . S
C2976 H2946 0.950 . S
C2976 C2975 1.524 . S
C2976 C2977 1.415 . S
C2977 H2947 0.950 . S
C2977 C2972 1.363 . S
C2977 C2976 1.415 . S
H2978 C2975 0.999 . S
H2979 C2960 0.913 . S
H2980 C2998 0.951 . S
H2981 C3000 0.951 . S
H2982 C3002 0.950 . S
H2983 C3003 0.950 . S
H2984 C3005 0.950 . S
H2985 C3008 0.950 . S
H2986 C3009 0.950 . S
H2987 C3011 0.950 . S
H2988 C3012 0.950 . S
H2989 C3013 0.951 . S
H2990 C3015 0.951 . S
H2991 C3017 0.950 . S
H2992 C3018 0.950 . S
H2993 C3020 0.950 . S
H2994 C3023 0.950 . S
H2995 C3024 0.950 . S
H2996 C3026 0.950 . S
H2997 C3027 0.950 . S
C2998 H2980 0.951 . S
C2998 C2999 1.366 . S
C2998 C3000 1.388 . S
C2999 C2998 1.366 . S
C2999 C3003 1.385 . S
C3000 H2981 0.951 . S
C3000 C2998 1.388 . S
C3000 C3001 1.366 . S
C3001 C3000 1.366 . S
C3001 C3002 1.414 . S
C3001 C3004 1.499 . S
C3002 H2982 0.950 . S
C3002 C3001 1.414 . S
C3002 C3003 1.374 . S
C3003 H2983 0.950 . S
C3003 C2999 1.385 . S
C3003 C3002 1.374 . S
C3004 C3001 1.499 . S
C3004 C3005 1.373 . S
C3004 C3006 1.389 . S
C3005 H2984 0.950 . S
C3005 C3004 1.373 . S
C3005 C3021 1.377 . S
C3006 C3004 1.389 . S
C3006 C3007 1.524 . S
C3006 C3020 1.377 . S
C3007 C3006 1.524 . S
C3007 C3008 1.397 . S
C3007 C3012 1.363 . S
C3008 H2985 0.950 . S
C3008 C3007 1.397 . S
C3008 C3009 1.334 . S
C3009 H2986 0.950 . S
C3009 C3008 1.334 . S
C3009 C3010 1.287 . S
C3010 C3009 1.287 . S
C3010 C3011 1.524 . S
C3010 H3029 0.913 . S
C3011 H2987 0.950 . S
C3011 C3010 1.524 . S
C3011 C3012 1.415 . S
C3012 H2988 0.950 . S
C3012 C3007 1.363 . S
C3012 C3011 1.415 . S
C3013 H2989 0.951 . S
C3013 C3014 1.366 . S
C3013 C3015 1.388 . S
C3014 C3013 1.366 . S
C3014 C3018 1.385 . S
C3015 H2990 0.951 . S
C3015 C3013 1.388 . S
C3015 C3016 1.366 . S
C3016 C3015 1.366 . S
C3016 C3017 1.414 . S
C3016 C3019 1.499 . S
C3017 H2991 0.950 . S
C3017 C3016 1.414 . S
C3017 C3018 1.374 . S
C3018 H2992 0.950 . S
C3018 C3014 1.385 . S
C3018 C3017 1.374 . S
C3019 C3016 1.499 . S
C3019 C3020 1.373 . S
C3019 C3021 1.389 . S
C3020 H2993 0.950 . S
C3020 C3006 1.377 . S
C3020 C3019 1.373 . S
C3021 C3005 1.377 . S
C3021 C3019 1.389 . S
C3021 C3022 1.524 . S
C3022 C3021 1.524 . S
C3022 C3023 1.397 . S
C3022 C3027 1.363 . S
C3023 H2994 0.950 . S
C3023 C3022 1.397 . S
C3023 C3024 1.334 . S
C3024 H2995 0.950 . S
C3024 C3023 1.334 . S
C3024 C3025 1.287 . S
C3025 C3024 1.287 . S
C3025 C3026 1.524 . S
C3025 H3028 0.999 . S
C3026 H2996 0.950 . S
C3026 C3025 1.524 . S
C3026 C3027 1.415 . S
C3027 H2997 0.950 . S
C3027 C3022 1.363 . S
C3027 C3026 1.415 . S
H3028 C3025 0.999 . S
H3029 C3010 0.913 . S
H3030 C3048 0.951 . S
H3031 C3050 0.951 . S
H3032 C3052 0.950 . S
H3033 C3053 0.950 . S
H3034 C3055 0.950 . S
H3035 C3058 0.950 . S
H3036 C3059 0.950 . S
H3037 C3061 0.950 . S
H3038 C3062 0.950 . S
H3039 C3063 0.951 . S
H3040 C3065 0.951 . S
H3041 C3067 0.950 . S
H3042 C3068 0.950 . S
H3043 C3070 0.950 . S
H3044 C3073 0.950 . S
H3045 C3074 0.950 . S
H3046 C3076 0.950 . S
H3047 C3077 0.950 . S
C3048 H3030 0.951 . S
C3048 C3049 1.366 . S
C3048 C3050 1.388 . S
C3049 C3048 1.366 . S
C3049 C3053 1.385 . S
C3050 H3031 0.951 . S
C3050 C3048 1.388 . S
C3050 C3051 1.366 . S
C3051 C3050 1.366 . S
C3051 C3052 1.414 . S
C3051 C3054 1.499 . S
C3052 H3032 0.950 . S
C3052 C3051 1.414 . S
C3052 C3053 1.374 . S
C3053 H3033 0.950 . S
C3053 C3049 1.385 . S
C3053 C3052 1.374 . S
C3054 C3051 1.499 . S
C3054 C3055 1.373 . S
C3054 C3056 1.389 . S
C3055 H3034 0.950 . S
C3055 C3054 1.373 . S
C3055 C3071 1.377 . S
C3056 C3054 1.389 . S
C3056 C3057 1.524 . S
C3056 C3070 1.377 . S
C3057 C3056 1.524 . S
C3057 C3058 1.397 . S
C3057 C3062 1.363 . S
C3058 H3035 0.950 . S
C3058 C3057 1.397 . S
C3058 C3059 1.334 . S
C3059 H3036 0.950 . S
C3059 C3058 1.334 . S
C3059 C3060 1.287 . S
C3060 C3059 1.287 . S
C3060 C3061 1.524 . S
C3060 H3079 0.913 . S
C3061 H3037 0.950 . S
C3061 C3060 1.524 . S
C3061 C3062 1.415 . S
C3062 H3038 0.950 . S
C3062 C3057 1.363 . S
C3062 C3061 1.415 . S
C3063 H3039 0.951 . S
C3063 C3064 1.366 . S
C3063 C3065 1.388 . S
C3064 C3063 1.366 . S
C3064 C3068 1.385 . S
C3065 H3040 0.951 . S
C3065 C3063 1.388 . S
C3065 C3066 1.366 . S
C3066 C3065 1.366 . S
C3066 C3067 1.414 . S
C3066 C3069 1.499 . S
C3067 H3041 0.950 . S
C3067 C3066 1.414 . S
C3067 C3068 1.374 . S
C3068 H3042 0.950 . S
C3068 C3064 1.385 . S
C3068 C3067 1.374 . S
C3069 C3066 1.499 . S
C3069 C3070 1.373 . S
C3069 C3071 1.389 . S
C3070 H3043 0.950 . S
C3070 C3056 1.377 . S
C3070 C3069 1.373 . S
C3071 C3055 1.377 . S
C3071 C3069 1.389 . S
C3071 C3072 1.524 . S
C3072 C3071 1.524 . S
C3072 C3073 1.397 . S
C3072 C3077 1.363 . S
C3073 H3044 0.950 . S
C3073 C3072 1.397 . S
C3073 C3074 1.334 . S
C3074 H3045 0.950 . S
C3074 C3073 1.334 . S
C3074 C3075 1.287 . S
C3075 C3074 1.287 . S
C3075 C3076 1.524 . S
C3075 H3078 0.999 . S
C3076 H3046 0.950 . S
C3076 C3075 1.524 . S
C3076 C3077 1.415 . S
C3077 H3047 0.950 . S
C3077 C3072 1.363 . S
C3077 C3076 1.415 . S
H3078 C3075 0.999 . S
H3079 C3060 0.913 . S
H3080 C3098 0.951 . S
H3081 C3100 0.951 . S
H3082 C3102 0.950 . S
H3083 C3103 0.950 . S
H3084 C3105 0.950 . S
H3085 C3108 0.950 . S
H3086 C3109 0.950 . S
H3087 C3111 0.950 . S
H3088 C3112 0.950 . S
H3089 C3113 0.951 . S
H3090 C3115 0.951 . S
H3091 C3117 0.950 . S
H3092 C3118 0.950 . S
H3093 C3120 0.950 . S
H3094 C3123 0.950 . S
H3095 C3124 0.950 . S
H3096 C3126 0.950 . S
H3097 C3127 0.950 . S
C3098 H3080 0.951 . S
C3098 C3099 1.366 . S
C3098 C3100 1.388 . S
C3099 C3098 1.366 . S
C3099 C3103 1.385 . S
C3100 H3081 0.951 . S
C3100 C3098 1.388 . S
C3100 C3101 1.366 . S
C3101 C3100 1.366 . S
C3101 C3102 1.414 . S
C3101 C3104 1.499 . S
C3102 H3082 0.950 . S
C3102 C3101 1.414 . S
C3102 C3103 1.374 . S
C3103 H3083 0.950 . S
C3103 C3099 1.385 . S
C3103 C3102 1.374 . S
C3104 C3101 1.499 . S
C3104 C3105 1.373 . S
C3104 C3106 1.389 . S
C3105 H3084 0.950 . S
C3105 C3104 1.373 . S
C3105 C3121 1.377 . S
C3106 C3104 1.389 . S
C3106 C3107 1.524 . S
C3106 C3120 1.377 . S
C3107 C3106 1.524 . S
C3107 C3108 1.397 . S
C3107 C3112 1.363 . S
C3108 H3085 0.950 . S
C3108 C3107 1.397 . S
C3108 C3109 1.334 . S
C3109 H3086 0.950 . S
C3109 C3108 1.334 . S
C3109 C3110 1.287 . S
C3110 C3109 1.287 . S
C3110 C3111 1.524 . S
C3110 H3129 0.913 . S
C3111 H3087 0.950 . S
C3111 C3110 1.524 . S
C3111 C3112 1.415 . S
C3112 H3088 0.950 . S
C3112 C3107 1.363 . S
C3112 C3111 1.415 . S
C3113 H3089 0.951 . S
C3113 C3114 1.366 . S
C3113 C3115 1.388 . S
C3114 C3113 1.366 . S
C3114 C3118 1.385 . S
C3115 H3090 0.951 . S
C3115 C3113 1.388 . S
C3115 C3116 1.366 . S
C3116 C3115 1.366 . S
C3116 C3117 1.414 . S
C3116 C3119 1.499 . S
C3117 H3091 0.950 . S
C3117 C3116 1.414 . S
C3117 C3118 1.374 . S
C3118 H3092 0.950 . S
C3118 C3114 1.385 . S
C3118 C3117 1.374 . S
C3119 C3116 1.499 . S
C3119 C3120 1.373 . S
C3119 C3121 1.389 . S
C3120 H3093 0.950 . S
C3120 C3106 1.377 . S
C3120 C3119 1.373 . S
C3121 C3105 1.377 . S
C3121 C3119 1.389 . S
C3121 C3122 1.524 . S
C3122 C3121 1.524 . S
C3122 C3123 1.397 . S
C3122 C3127 1.363 . S
C3123 H3094 0.950 . S
C3123 C3122 1.397 . S
C3123 C3124 1.334 . S
C3124 H3095 0.950 . S
C3124 C3123 1.334 . S
C3124 C3125 1.287 . S
C3125 C3124 1.287 . S
C3125 C3126 1.524 . S
C3125 H3128 0.999 . S
C3126 H3096 0.950 . S
C3126 C3125 1.524 . S
C3126 C3127 1.415 . S
C3127 H3097 0.950 . S
C3127 C3122 1.363 . S
C3127 C3126 1.415 . S
H3128 C3125 0.999 . S
H3129 C3110 0.913 . S
H3130 C3148 0.951 . S
H3131 C3150 0.951 . S
H3132 C3152 0.950 . S
H3133 C3153 0.950 . S
H3134 C3155 0.950 . S
H3135 C3158 0.950 . S
H3136 C3159 0.950 . S
H3137 C3161 0.950 . S
H3138 C3162 0.950 . S
H3139 C3163 0.951 . S
H3140 C3165 0.951 . S
H3141 C3167 0.950 . S
H3142 C3168 0.950 . S
H3143 C3170 0.950 . S
H3144 C3173 0.950 . S
H3145 C3174 0.950 . S
H3146 C3176 0.950 . S
H3147 C3177 0.950 . S
C3148 H3130 0.951 . S
C3148 C3149 1.366 . S
C3148 C3150 1.388 . S
C3149 C3148 1.366 . S
C3149 C3153 1.385 . S
C3150 H3131 0.951 . S
C3150 C3148 1.388 . S
C3150 C3151 1.366 . S
C3151 C3150 1.366 . S
C3151 C3152 1.414 . S
C3151 C3154 1.499 . S
C3152 H3132 0.950 . S
C3152 C3151 1.414 . S
C3152 C3153 1.374 . S
C3153 H3133 0.950 . S
C3153 C3149 1.385 . S
C3153 C3152 1.374 . S
C3154 C3151 1.499 . S
C3154 C3155 1.373 . S
C3154 C3156 1.389 . S
C3155 H3134 0.950 . S
C3155 C3154 1.373 . S
C3155 C3171 1.377 . S
C3156 C3154 1.389 . S
C3156 C3157 1.524 . S
C3156 C3170 1.377 . S
C3157 C3156 1.524 . S
C3157 C3158 1.397 . S
C3157 C3162 1.363 . S
C3158 H3135 0.950 . S
C3158 C3157 1.397 . S
C3158 C3159 1.334 . S
C3159 H3136 0.950 . S
C3159 C3158 1.334 . S
C3159 C3160 1.287 . S
C3160 C3159 1.287 . S
C3160 C3161 1.524 . S
C3160 H3179 0.913 . S
C3161 H3137 0.950 . S
C3161 C3160 1.524 . S
C3161 C3162 1.415 . S
C3162 H3138 0.950 . S
C3162 C3157 1.363 . S
C3162 C3161 1.415 . S
C3163 H3139 0.951 . S
C3163 C3164 1.366 . S
C3163 C3165 1.388 . S
C3164 C3163 1.366 . S
C3164 C3168 1.385 . S
C3165 H3140 0.951 . S
C3165 C3163 1.388 . S
C3165 C3166 1.366 . S
C3166 C3165 1.366 . S
C3166 C3167 1.414 . S
C3166 C3169 1.499 . S
C3167 H3141 0.950 . S
C3167 C3166 1.414 . S
C3167 C3168 1.374 . S
C3168 H3142 0.950 . S
C3168 C3164 1.385 . S
C3168 C3167 1.374 . S
C3169 C3166 1.499 . S
C3169 C3170 1.373 . S
C3169 C3171 1.389 . S
C3170 H3143 0.950 . S
C3170 C3156 1.377 . S
C3170 C3169 1.373 . S
C3171 C3155 1.377 . S
C3171 C3169 1.389 . S
C3171 C3172 1.524 . S
C3172 C3171 1.524 . S
C3172 C3173 1.397 . S
C3172 C3177 1.363 . S
C3173 H3144 0.950 . S
C3173 C3172 1.397 . S
C3173 C3174 1.334 . S
C3174 H3145 0.950 . S
C3174 C3173 1.334 . S
C3174 C3175 1.287 . S
C3175 C3174 1.287 . S
C3175 C3176 1.524 . S
C3175 H3178 0.999 . S
C3176 H3146 0.950 . S
C3176 C3175 1.524 . S
C3176 C3177 1.415 . S
C3177 H3147 0.950 . S
C3177 C3172 1.363 . S
C3177 C3176 1.415 . S
H3178 C3175 0.999 . S
H3179 C3160 0.913 . S
H3180 C3198 0.951 . S
H3181 C3200 0.951 . S
H3182 C3202 0.950 . S
H3183 C3203 0.950 . S
H3184 C3205 0.950 . S
H3185 C3208 0.950 . S
H3186 C3209 0.950 . S
H3187 C3211 0.950 . S
H3188 C3212 0.950 . S
H3189 C3213 0.951 . S
H3190 C3215 0.951 . S
H3191 C3217 0.950 . S
H3192 C3218 0.950 1_554 S
H3193 C3220 0.950 . S
H3194 C3223 0.950 . S
H3195 C3224 0.950 . S
H3196 C3226 0.950 . S
H3197 C3227 0.950 . S
C3198 H3180 0.951 . S
C3198 C3199 1.366 . S
C3198 C3200 1.388 . S
C3199 C3198 1.366 . S
C3199 C3203 1.385 . S
C3200 H3181 0.951 . S
C3200 C3198 1.388 . S
C3200 C3201 1.366 . S
C3201 C3200 1.366 . S
C3201 C3202 1.414 . S
C3201 C3204 1.499 . S
C3202 H3182 0.950 . S
C3202 C3201 1.414 . S
C3202 C3203 1.374 . S
C3203 H3183 0.950 . S
C3203 C3199 1.385 . S
C3203 C3202 1.374 . S
C3204 C3201 1.499 . S
C3204 C3205 1.373 . S
C3204 C3206 1.389 . S
C3205 H3184 0.950 . S
C3205 C3204 1.373 . S
C3205 C3221 1.377 . S
C3206 C3204 1.389 . S
C3206 C3207 1.524 . S
C3206 C3220 1.377 . S
C3207 C3206 1.524 . S
C3207 C3208 1.397 . S
C3207 C3212 1.363 . S
C3208 H3185 0.950 . S
C3208 C3207 1.397 . S
C3208 C3209 1.334 . S
C3209 H3186 0.950 . S
C3209 C3208 1.334 . S
C3209 C3210 1.287 . S
C3210 C3209 1.287 . S
C3210 C3211 1.524 . S
C3210 H3229 0.913 . S
C3211 H3187 0.950 . S
C3211 C3210 1.524 . S
C3211 C3212 1.415 . S
C3212 H3188 0.950 . S
C3212 C3207 1.363 . S
C3212 C3211 1.415 . S
C3213 H3189 0.951 . S
C3213 C3214 1.366 . S
C3213 C3215 1.388 . S
C3214 C3213 1.366 . S
C3214 C3218 1.385 . S
C3215 H3190 0.951 . S
C3215 C3213 1.388 . S
C3215 C3216 1.366 . S
C3216 C3215 1.366 . S
C3216 C3217 1.414 . S
C3216 C3219 1.499 . S
C3217 H3191 0.950 . S
C3217 C3216 1.414 . S
C3217 C3218 1.374 . S
C3218 H3192 0.950 1_556 S
C3218 C3214 1.385 . S
C3218 C3217 1.374 . S
C3219 C3216 1.499 . S
C3219 C3220 1.373 . S
C3219 C3221 1.389 . S
C3220 H3193 0.950 . S
C3220 C3206 1.377 . S
C3220 C3219 1.373 . S
C3221 C3205 1.377 . S
C3221 C3219 1.389 . S
C3221 C3222 1.524 . S
C3222 C3221 1.524 . S
C3222 C3223 1.397 . S
C3222 C3227 1.363 . S
C3223 H3194 0.950 . S
C3223 C3222 1.397 . S
C3223 C3224 1.334 . S
C3224 H3195 0.950 . S
C3224 C3223 1.334 . S
C3224 C3225 1.287 . S
C3225 C3224 1.287 . S
C3225 C3226 1.524 . S
C3225 H3228 0.999 . S
C3226 H3196 0.950 . S
C3226 C3225 1.524 . S
C3226 C3227 1.415 . S
C3227 H3197 0.950 . S
C3227 C3222 1.363 . S
C3227 C3226 1.415 . S
H3228 C3225 0.999 . S
H3229 C3210 0.913 . S
H3230 C3248 0.951 . S
H3231 C3250 0.951 . S
H3232 C3252 0.950 . S
H3233 C3253 0.950 . S
H3234 C3255 0.950 . S
H3235 C3258 0.950 . S
H3236 C3259 0.950 . S
H3237 C3261 0.950 . S
H3238 C3262 0.950 . S
H3239 C3263 0.951 . S
H3240 C3265 0.951 . S
H3241 C3267 0.950 . S
H3242 C3268 0.950 . S
H3243 C3270 0.950 . S
H3244 C3273 0.950 . S
H3245 C3274 0.950 . S
H3246 C3276 0.950 . S
H3247 C3277 0.950 . S
C3248 H3230 0.951 . S
C3248 C3249 1.366 . S
C3248 C3250 1.388 . S
C3249 C3248 1.366 . S
C3249 C3253 1.385 . S
C3250 H3231 0.951 . S
C3250 C3248 1.388 . S
C3250 C3251 1.366 . S
C3251 C3250 1.366 . S
C3251 C3252 1.414 . S
C3251 C3254 1.499 . S
C3252 H3232 0.950 . S
C3252 C3251 1.414 . S
C3252 C3253 1.374 . S
C3253 H3233 0.950 . S
C3253 C3249 1.385 . S
C3253 C3252 1.374 . S
C3254 C3251 1.499 . S
C3254 C3255 1.373 . S
C3254 C3256 1.389 . S
C3255 H3234 0.950 . S
C3255 C3254 1.373 . S
C3255 C3271 1.377 . S
C3256 C3254 1.389 . S
C3256 C3257 1.524 . S
C3256 C3270 1.377 . S
C3257 C3256 1.524 . S
C3257 C3258 1.397 . S
C3257 C3262 1.363 . S
C3258 H3235 0.950 . S
C3258 C3257 1.397 . S
C3258 C3259 1.334 . S
C3259 H3236 0.950 . S
C3259 C3258 1.334 . S
C3259 C3260 1.287 . S
C3260 C3259 1.287 . S
C3260 C3261 1.524 . S
C3260 H3279 0.913 . S
C3261 H3237 0.950 . S
C3261 C3260 1.524 . S
C3261 C3262 1.415 . S
C3262 H3238 0.950 . S
C3262 C3257 1.363 . S
C3262 C3261 1.415 . S
C3263 H3239 0.951 . S
C3263 C3264 1.366 . S
C3263 C3265 1.388 . S
C3264 C3263 1.366 . S
C3264 C3268 1.385 . S
C3265 H3240 0.951 . S
C3265 C3263 1.388 . S
C3265 C3266 1.366 . S
C3266 C3265 1.366 . S
C3266 C3267 1.414 . S
C3266 C3269 1.499 . S
C3267 H3241 0.950 . S
C3267 C3266 1.414 . S
C3267 C3268 1.374 . S
C3268 H3242 0.950 . S
C3268 C3264 1.385 . S
C3268 C3267 1.374 . S
C3269 C3266 1.499 . S
C3269 C3270 1.373 . S
C3269 C3271 1.389 . S
C3270 H3243 0.950 . S
C3270 C3256 1.377 . S
C3270 C3269 1.373 . S
C3271 C3255 1.377 . S
C3271 C3269 1.389 . S
C3271 C3272 1.524 . S
C3272 C3271 1.524 . S
C3272 C3273 1.397 . S
C3272 C3277 1.363 . S
C3273 H3244 0.950 . S
C3273 C3272 1.397 . S
C3273 C3274 1.334 . S
C3274 H3245 0.950 . S
C3274 C3273 1.334 . S
C3274 C3275 1.287 . S
C3275 C3274 1.287 . S
C3275 C3276 1.524 . S
C3275 H3278 0.999 . S
C3276 H3246 0.950 . S
C3276 C3275 1.524 . S
C3276 C3277 1.415 . S
C3277 H3247 0.950 . S
C3277 C3272 1.363 . S
C3277 C3276 1.415 . S
H3278 C3275 0.999 . S
H3279 C3260 0.913 . S
H3280 C3298 0.951 . S
H3281 C3300 0.951 . S
H3282 C3302 0.950 . S
H3283 C3303 0.950 . S
H3284 C3305 0.950 . S
H3285 C3308 0.950 . S
H3286 C3309 0.950 . S
H3287 C3311 0.950 . S
H3288 C3312 0.994 . S
H3289 C3313 0.951 . S
H3290 C3315 0.951 . S
H3291 C3317 0.950 1_565 S
H3292 C3318 0.950 1_565 S
H3293 C3320 0.950 . S
H3294 C3323 0.950 . S
H3295 C3324 0.949 . S
H3296 C3326 0.950 . S
H3297 C3327 0.950 . S
C3298 H3280 0.951 . S
C3298 C3299 1.366 . S
C3298 C3300 1.388 . S
C3299 C3298 1.366 . S
C3299 C3303 1.385 . S
C3300 H3281 0.951 . S
C3300 C3298 1.388 . S
C3300 C3301 1.366 . S
C3301 C3300 1.366 . S
C3301 C3302 1.414 . S
C3301 C3304 1.499 . S
C3302 H3282 0.950 . S
C3302 C3301 1.414 . S
C3302 C3303 1.374 . S
C3303 H3283 0.950 . S
C3303 C3299 1.385 . S
C3303 C3302 1.374 . S
C3304 C3301 1.499 . S
C3304 C3305 1.373 . S
C3304 C3306 1.389 . S
C3305 H3284 0.950 . S
C3305 C3304 1.373 . S
C3305 C3321 1.377 . S
C3306 C3304 1.389 . S
C3306 C3307 1.524 . S
C3306 C3320 1.377 . S
C3307 C3306 1.524 . S
C3307 C3308 1.397 . S
C3307 C3312 1.363 . S
C3308 H3285 0.950 . S
C3308 C3307 1.397 . S
C3308 C3309 1.334 . S
C3309 H3286 0.950 . S
C3309 C3308 1.334 . S
C3309 C3310 1.287 . S
C3310 C3309 1.287 . S
C3310 C3311 1.524 . S
C3310 H3329 0.913 . S
C3311 H3287 0.950 . S
C3311 C3310 1.524 . S
C3311 C3312 1.415 . S
C3312 H3288 0.994 . S
C3312 C3307 1.363 . S
C3312 C3311 1.415 . S
C3313 H3289 0.951 . S
C3313 C3314 1.366 . S
C3313 C3315 1.388 . S
C3314 C3313 1.366 . S
C3314 C3318 1.385 . S
C3315 H3290 0.951 . S
C3315 C3313 1.388 . S
C3315 C3316 1.366 . S
C3316 C3315 1.366 . S
C3316 C3317 1.414 . S
C3316 C3319 1.499 . S
C3317 H3291 0.950 1_545 S
C3317 C3316 1.414 . S
C3317 C3318 1.374 . S
C3318 H3292 0.950 1_545 S
C3318 C3314 1.385 . S
C3318 C3317 1.374 . S
C3319 C3316 1.499 . S
C3319 C3320 1.373 . S
C3319 C3321 1.389 . S
C3320 H3293 0.950 . S
C3320 C3306 1.377 . S
C3320 C3319 1.373 . S
C3321 C3305 1.377 . S
C3321 C3319 1.389 . S
C3321 C3322 1.524 . S
C3322 C3321 1.524 . S
C3322 C3323 1.397 . S
C3322 C3327 1.363 . S
C3323 H3294 0.950 . S
C3323 C3322 1.397 . S
C3323 C3324 1.334 . S
C3324 H3295 0.949 . S
C3324 C3323 1.334 . S
C3324 C3325 1.287 . S
C3325 C3324 1.287 . S
C3325 C3326 1.524 . S
C3325 H3328 0.999 . S
C3326 H3296 0.950 . S
C3326 C3325 1.524 . S
C3326 C3327 1.415 . S
C3327 H3297 0.950 . S
C3327 C3322 1.363 . S
C3327 C3326 1.415 . S
H3328 C3325 0.999 . S
H3329 C3310 0.913 . S
H3330 C3348 0.951 . S
H3331 C3350 0.951 . S
H3332 C3352 0.950 . S
H3333 C3353 0.950 . S
H3334 C3355 0.950 . S
H3335 C3358 0.950 . S
H3336 C3359 0.950 . S
H3337 C3361 0.950 . S
H3338 C3362 0.950 . S
H3339 C3363 0.951 . S
H3340 C3365 0.951 . S
H3341 C3367 0.950 . S
H3342 C3368 0.950 . S
H3343 C3370 0.950 . S
H3344 C3373 0.950 . S
H3345 C3374 0.950 . S
H3346 C3376 0.950 . S
H3347 C3377 0.950 . S
C3348 H3330 0.951 . S
C3348 C3349 1.366 . S
C3348 C3350 1.388 . S
C3349 C3348 1.366 . S
C3349 C3353 1.385 . S
C3350 H3331 0.951 . S
C3350 C3348 1.388 . S
C3350 C3351 1.366 . S
C3351 C3350 1.366 . S
C3351 C3352 1.414 . S
C3351 C3354 1.499 . S
C3352 H3332 0.950 . S
C3352 C3351 1.414 . S
C3352 C3353 1.374 . S
C3353 H3333 0.950 . S
C3353 C3349 1.385 . S
C3353 C3352 1.374 . S
C3354 C3351 1.499 . S
C3354 C3355 1.373 . S
C3354 C3356 1.389 . S
C3355 H3334 0.950 . S
C3355 C3354 1.373 . S
C3355 C3371 1.377 . S
C3356 C3354 1.389 . S
C3356 C3357 1.524 . S
C3356 C3370 1.377 . S
C3357 C3356 1.524 . S
C3357 C3358 1.397 . S
C3357 C3362 1.363 . S
C3358 H3335 0.950 . S
C3358 C3357 1.397 . S
C3358 C3359 1.334 . S
C3359 H3336 0.950 . S
C3359 C3358 1.334 . S
C3359 C3360 1.287 . S
C3360 C3359 1.287 . S
C3360 C3361 1.524 . S
C3360 H3379 0.913 . S
C3361 H3337 0.950 . S
C3361 C3360 1.524 . S
C3361 C3362 1.415 . S
C3362 H3338 0.950 . S
C3362 C3357 1.363 . S
C3362 C3361 1.415 . S
C3363 H3339 0.951 . S
C3363 C3364 1.366 . S
C3363 C3365 1.388 . S
C3364 C3363 1.366 . S
C3364 C3368 1.385 . S
C3365 H3340 0.951 . S
C3365 C3363 1.388 . S
C3365 C3366 1.366 . S
C3366 C3365 1.366 . S
C3366 C3367 1.414 . S
C3366 C3369 1.499 . S
C3367 H3341 0.950 . S
C3367 C3366 1.414 . S
C3367 C3368 1.374 . S
C3368 H3342 0.950 . S
C3368 C3364 1.385 . S
C3368 C3367 1.374 . S
C3369 C3366 1.499 . S
C3369 C3370 1.373 . S
C3369 C3371 1.389 . S
C3370 H3343 0.950 . S
C3370 C3356 1.377 . S
C3370 C3369 1.373 . S
C3371 C3355 1.377 . S
C3371 C3369 1.389 . S
C3371 C3372 1.524 . S
C3372 C3371 1.524 . S
C3372 C3373 1.397 . S
C3372 C3377 1.363 . S
C3373 H3344 0.950 . S
C3373 C3372 1.397 . S
C3373 C3374 1.334 . S
C3374 H3345 0.950 . S
C3374 C3373 1.334 . S
C3374 C3375 1.287 . S
C3375 C3374 1.287 . S
C3375 C3376 1.524 . S
C3375 H3378 0.999 . S
C3376 H3346 0.950 . S
C3376 C3375 1.524 . S
C3376 C3377 1.415 . S
C3377 H3347 0.950 . S
C3377 C3372 1.363 . S
C3377 C3376 1.415 . S
H3378 C3375 0.999 . S
H3379 C3360 0.913 . S
H3380 C3398 0.948 1_565 S
H3381 C3400 0.951 . S
H3382 C3402 0.950 . S
H3383 C3403 0.950 . S
H3384 C3405 0.950 . S
H3385 C3408 0.950 . S
H3386 C3409 0.950 . S
H3387 C3411 0.950 . S
H3388 C3412 0.950 . S
H3389 C3413 0.951 . S
H3390 C3415 0.951 . S
H3391 C3417 0.950 . S
H3392 C3418 0.950 . S
H3393 C3420 0.950 . S
H3394 C3423 0.950 . S
H3395 C3424 0.950 . S
H3396 C3426 0.950 1_545 S
H3397 C3427 0.950 . S
C3398 H3380 0.948 1_545 S
C3398 C3399 1.366 . S
C3398 C3400 1.388 . S
C3399 C3398 1.366 . S
C3399 C3403 1.385 . S
C3400 H3381 0.951 . S
C3400 C3398 1.388 . S
C3400 C3401 1.366 . S
C3401 C3400 1.366 . S
C3401 C3402 1.414 . S
C3401 C3404 1.499 . S
C3402 H3382 0.950 . S
C3402 C3401 1.414 . S
C3402 C3403 1.374 . S
C3403 H3383 0.950 . S
C3403 C3399 1.385 . S
C3403 C3402 1.374 . S
C3404 C3401 1.499 . S
C3404 C3405 1.373 . S
C3404 C3406 1.389 . S
C3405 H3384 0.950 . S
C3405 C3404 1.373 . S
C3405 C3421 1.377 . S
C3406 C3404 1.389 . S
C3406 C3407 1.524 . S
C3406 C3420 1.377 . S
C3407 C3406 1.524 . S
C3407 C3408 1.397 . S
C3407 C3412 1.363 . S
C3408 H3385 0.950 . S
C3408 C3407 1.397 . S
C3408 C3409 1.334 . S
C3409 H3386 0.950 . S
C3409 C3408 1.334 . S
C3409 C3410 1.287 . S
C3410 C3409 1.287 . S
C3410 C3411 1.524 . S
C3410 H3429 0.913 . S
C3411 H3387 0.950 . S
C3411 C3410 1.524 . S
C3411 C3412 1.415 . S
C3412 H3388 0.950 . S
C3412 C3407 1.363 . S
C3412 C3411 1.415 . S
C3413 H3389 0.951 . S
C3413 C3414 1.366 . S
C3413 C3415 1.388 . S
C3414 C3413 1.366 . S
C3414 C3418 1.385 . S
C3415 H3390 0.951 . S
C3415 C3413 1.388 . S
C3415 C3416 1.366 . S
C3416 C3415 1.366 . S
C3416 C3417 1.414 . S
C3416 C3419 1.499 . S
C3417 H3391 0.950 . S
C3417 C3416 1.414 . S
C3417 C3418 1.374 . S
C3418 H3392 0.950 . S
C3418 C3414 1.385 . S
C3418 C3417 1.374 . S
C3419 C3416 1.499 . S
C3419 C3420 1.373 . S
C3419 C3421 1.389 . S
C3420 H3393 0.950 . S
C3420 C3406 1.377 . S
C3420 C3419 1.373 . S
C3421 C3405 1.377 . S
C3421 C3419 1.389 . S
C3421 C3422 1.524 . S
C3422 C3421 1.524 . S
C3422 C3423 1.397 1_545 S
C3422 C3427 1.363 . S
C3423 H3394 0.950 . S
C3423 C3422 1.397 1_565 S
C3423 C3424 1.334 . S
C3424 H3395 0.950 . S
C3424 C3423 1.334 . S
C3424 C3425 1.287 . S
C3425 C3424 1.287 . S
C3425 C3426 1.524 . S
C3425 H3428 0.999 . S
C3426 H3396 0.950 1_565 S
C3426 C3425 1.524 . S
C3426 C3427 1.415 1_565 S
C3427 H3397 0.950 . S
C3427 C3422 1.363 . S
C3427 C3426 1.415 1_545 S
H3428 C3425 0.999 . S
H3429 C3410 0.913 . S
H3430 C3448 0.951 . S
H3431 C3450 0.951 . S
H3432 C3452 0.950 . S
H3433 C3453 0.950 . S
H3434 C3455 0.950 . S
H3435 C3458 0.950 . S
H3436 C3459 0.950 . S
H3437 C3461 0.950 . S
H3438 C3462 0.950 . S
H3439 C3463 0.951 . S
H3440 C3465 0.951 . S
H3441 C3467 0.950 . S
H3442 C3468 0.950 . S
H3443 C3470 0.950 . S
H3444 C3473 0.950 . S
H3445 C3474 0.950 . S
H3446 C3476 0.950 . S
H3447 C3477 0.950 . S
C3448 H3430 0.951 . S
C3448 C3449 1.366 . S
C3448 C3450 1.388 . S
C3449 C3448 1.366 . S
C3449 C3453 1.385 . S
C3450 H3431 0.951 . S
C3450 C3448 1.388 . S
C3450 C3451 1.366 . S
C3451 C3450 1.366 . S
C3451 C3452 1.414 . S
C3451 C3454 1.499 . S
C3452 H3432 0.950 . S
C3452 C3451 1.414 . S
C3452 C3453 1.374 . S
C3453 H3433 0.950 . S
C3453 C3449 1.385 . S
C3453 C3452 1.374 . S
C3454 C3451 1.499 . S
C3454 C3455 1.373 . S
C3454 C3456 1.389 . S
C3455 H3434 0.950 . S
C3455 C3454 1.373 . S
C3455 C3471 1.377 . S
C3456 C3454 1.389 . S
C3456 C3457 1.524 . S
C3456 C3470 1.377 . S
C3457 C3456 1.524 . S
C3457 C3458 1.397 . S
C3457 C3462 1.363 . S
C3458 H3435 0.950 . S
C3458 C3457 1.397 . S
C3458 C3459 1.334 . S
C3459 H3436 0.950 . S
C3459 C3458 1.334 . S
C3459 C3460 1.287 . S
C3460 C3459 1.287 . S
C3460 C3461 1.524 . S
C3460 H3479 0.913 . S
C3461 H3437 0.950 . S
C3461 C3460 1.524 . S
C3461 C3462 1.415 . S
C3462 H3438 0.950 . S
C3462 C3457 1.363 . S
C3462 C3461 1.415 . S
C3463 H3439 0.951 . S
C3463 C3464 1.366 . S
C3463 C3465 1.388 . S
C3464 C3463 1.366 . S
C3464 C3468 1.385 . S
C3465 H3440 0.951 . S
C3465 C3463 1.388 . S
C3465 C3466 1.366 . S
C3466 C3465 1.366 . S
C3466 C3467 1.414 . S
C3466 C3469 1.499 . S
C3467 H3441 0.950 . S
C3467 C3466 1.414 . S
C3467 C3468 1.374 . S
C3468 H3442 0.950 . S
C3468 C3464 1.385 . S
C3468 C3467 1.374 . S
C3469 C3466 1.499 . S
C3469 C3470 1.373 . S
C3469 C3471 1.389 . S
C3470 H3443 0.950 . S
C3470 C3456 1.377 . S
C3470 C3469 1.373 . S
C3471 C3455 1.377 . S
C3471 C3469 1.389 . S
C3471 C3472 1.524 . S
C3472 C3471 1.524 . S
C3472 C3473 1.397 . S
C3472 C3477 1.363 . S
C3473 H3444 0.950 . S
C3473 C3472 1.397 . S
C3473 C3474 1.334 . S
C3474 H3445 0.950 . S
C3474 C3473 1.334 . S
C3474 C3475 1.287 . S
C3475 C3474 1.287 . S
C3475 C3476 1.524 . S
C3475 H3478 0.999 . S
C3476 H3446 0.950 . S
C3476 C3475 1.524 . S
C3476 C3477 1.415 . S
C3477 H3447 0.950 . S
C3477 C3472 1.363 . S
C3477 C3476 1.415 . S
H3478 C3475 0.999 . S
H3479 C3460 0.913 . S
H3480 C3498 0.951 . S
H3481 C3500 0.951 . S
H3482 C3502 0.950 . S
H3483 C3503 0.950 . S
H3484 C3505 0.976 . S
H3485 C3508 0.950 . S
H3486 C3509 0.950 . S
H3487 C3511 0.950 . S
H3488 C3512 0.950 . S
H3489 C3513 0.951 . S
H3490 C3515 0.951 . S
H3491 C3517 0.950 . S
H3492 C3518 0.950 . S
H3493 C3520 0.950 . S
H3494 C3523 0.932 1_545 S
H3495 C3524 0.950 . S
H3496 C3526 0.950 . S
H3497 C3527 0.950 . S
C3498 H3480 0.951 . S
C3498 C3499 1.366 . S
C3498 C3500 1.388 . S
C3499 C3498 1.366 . S
C3499 C3503 1.385 . S
C3500 H3481 0.951 . S
C3500 C3498 1.388 . S
C3500 C3501 1.366 . S
C3501 C3500 1.366 . S
C3501 C3502 1.414 . S
C3501 C3504 1.499 . S
C3502 H3482 0.950 . S
C3502 C3501 1.414 . S
C3502 C3503 1.374 . S
C3503 H3483 0.950 . S
C3503 C3499 1.385 . S
C3503 C3502 1.374 . S
C3504 C3501 1.499 . S
C3504 C3505 1.373 . S
C3504 C3506 1.389 . S
C3505 H3484 0.976 . S
C3505 C3504 1.373 . S
C3505 C3521 1.377 . S
C3506 C3504 1.389 . S
C3506 C3507 1.524 . S
C3506 C3520 1.377 . S
C3507 C3506 1.524 . S
C3507 C3508 1.397 . S
C3507 C3512 1.363 . S
C3508 H3485 0.950 . S
C3508 C3507 1.397 . S
C3508 C3509 1.334 . S
C3509 H3486 0.950 . S
C3509 C3508 1.334 . S
C3509 C3510 1.287 . S
C3510 C3509 1.287 . S
C3510 C3511 1.524 . S
C3510 H3529 0.913 . S
C3511 H3487 0.950 . S
C3511 C3510 1.524 . S
C3511 C3512 1.415 . S
C3512 H3488 0.950 . S
C3512 C3507 1.363 . S
C3512 C3511 1.415 . S
C3513 H3489 0.951 . S
C3513 C3514 1.366 . S
C3513 C3515 1.388 . S
C3514 C3513 1.366 . S
C3514 C3518 1.385 . S
C3515 H3490 0.951 . S
C3515 C3513 1.388 . S
C3515 C3516 1.366 . S
C3516 C3515 1.366 . S
C3516 C3517 1.414 . S
C3516 C3519 1.499 . S
C3517 H3491 0.950 . S
C3517 C3516 1.414 . S
C3517 C3518 1.374 . S
C3518 H3492 0.950 . S
C3518 C3514 1.385 . S
C3518 C3517 1.374 . S
C3519 C3516 1.499 . S
C3519 C3520 1.373 . S
C3519 C3521 1.389 . S
C3520 H3493 0.950 . S
C3520 C3506 1.377 . S
C3520 C3519 1.373 . S
C3521 C3505 1.377 . S
C3521 C3519 1.389 . S
C3521 C3522 1.524 1_545 S
C3522 C3521 1.524 1_565 S
C3522 C3523 1.397 . S
C3522 C3527 1.363 . S
C3523 H3494 0.932 1_565 S
C3523 C3522 1.397 . S
C3523 C3524 1.334 . S
C3524 H3495 0.950 . S
C3524 C3523 1.334 . S
C3524 C3525 1.287 . S
C3525 C3524 1.287 . S
C3525 C3526 1.524 . S
C3525 H3528 0.999 . S
C3526 H3496 0.950 . S
C3526 C3525 1.524 . S
C3526 C3527 1.415 . S
C3527 H3497 0.950 . S
C3527 C3522 1.363 . S
C3527 C3526 1.415 . S
H3528 C3525 0.999 . S
H3529 C3510 0.913 . S
H3530 C3548 0.951 . S
H3531 C3550 0.951 . S
H3532 C3552 0.950 . S
H3533 C3553 0.950 . S
H3534 C3555 0.950 . S
H3535 C3558 0.950 . S
H3536 C3559 0.950 . S
H3537 C3561 0.950 . S
H3538 C3562 0.950 . S
H3539 C3563 0.951 . S
H3540 C3565 0.951 . S
H3541 C3567 0.950 . S
H3542 C3568 0.950 . S
H3543 C3570 0.950 . S
H3544 C3573 0.950 . S
H3545 C3574 0.950 . S
H3546 C3576 0.950 . S
H3547 C3577 0.950 . S
C3548 H3530 0.951 . S
C3548 C3549 1.366 . S
C3548 C3550 1.388 . S
C3549 C3548 1.366 . S
C3549 C3553 1.385 . S
C3550 H3531 0.951 . S
C3550 C3548 1.388 . S
C3550 C3551 1.366 . S
C3551 C3550 1.366 . S
C3551 C3552 1.414 . S
C3551 C3554 1.499 . S
C3552 H3532 0.950 . S
C3552 C3551 1.414 . S
C3552 C3553 1.374 . S
C3553 H3533 0.950 . S
C3553 C3549 1.385 . S
C3553 C3552 1.374 . S
C3554 C3551 1.499 . S
C3554 C3555 1.373 . S
C3554 C3556 1.389 . S
C3555 H3534 0.950 . S
C3555 C3554 1.373 . S
C3555 C3571 1.377 . S
C3556 C3554 1.389 . S
C3556 C3557 1.524 . S
C3556 C3570 1.377 . S
C3557 C3556 1.524 . S
C3557 C3558 1.397 . S
C3557 C3562 1.363 . S
C3558 H3535 0.950 . S
C3558 C3557 1.397 . S
C3558 C3559 1.334 . S
C3559 H3536 0.950 . S
C3559 C3558 1.334 . S
C3559 C3560 1.287 . S
C3560 C3559 1.287 . S
C3560 C3561 1.524 . S
C3560 H3579 0.913 . S
C3561 H3537 0.950 . S
C3561 C3560 1.524 . S
C3561 C3562 1.415 . S
C3562 H3538 0.950 . S
C3562 C3557 1.363 . S
C3562 C3561 1.415 . S
C3563 H3539 0.951 . S
C3563 C3564 1.366 . S
C3563 C3565 1.388 . S
C3564 C3563 1.366 . S
C3564 C3568 1.385 . S
C3565 H3540 0.951 . S
C3565 C3563 1.388 . S
C3565 C3566 1.366 . S
C3566 C3565 1.366 . S
C3566 C3567 1.414 . S
C3566 C3569 1.499 . S
C3567 H3541 0.950 . S
C3567 C3566 1.414 . S
C3567 C3568 1.374 . S
C3568 H3542 0.950 . S
C3568 C3564 1.385 . S
C3568 C3567 1.374 . S
C3569 C3566 1.499 . S
C3569 C3570 1.373 . S
C3569 C3571 1.389 . S
C3570 H3543 0.950 . S
C3570 C3556 1.377 . S
C3570 C3569 1.373 . S
C3571 C3555 1.377 . S
C3571 C3569 1.389 . S
C3571 C3572 1.524 . S
C3572 C3571 1.524 . S
C3572 C3573 1.397 . S
C3572 C3577 1.363 . S
C3573 H3544 0.950 . S
C3573 C3572 1.397 . S
C3573 C3574 1.334 . S
C3574 H3545 0.950 . S
C3574 C3573 1.334 . S
C3574 C3575 1.287 . S
C3575 C3574 1.287 . S
C3575 C3576 1.524 . S
C3575 H3578 0.999 . S
C3576 H3546 0.950 . S
C3576 C3575 1.524 . S
C3576 C3577 1.415 . S
C3577 H3547 0.950 . S
C3577 C3572 1.363 . S
C3577 C3576 1.415 . S
H3578 C3575 0.999 . S
H3579 C3560 0.913 . S
H3580 C3598 0.951 . S
H3581 C3600 0.951 . S
H3582 C3602 0.950 . S
H3583 C3603 0.950 . S
H3584 C3605 0.950 . S
H3585 C3608 0.950 . S
H3586 C3609 0.950 . S
H3587 C3611 0.950 . S
H3588 C3612 0.950 . S
H3589 C3613 0.951 . S
H3590 C3615 0.951 . S
H3591 C3617 0.950 . S
H3592 C3618 0.950 . S
H3593 C3620 0.950 . S
H3594 C3623 0.950 . S
H3595 C3624 0.950 . S
H3596 C3626 0.950 . S
H3597 C3627 0.950 . S
C3598 H3580 0.951 . S
C3598 C3599 1.366 . S
C3598 C3600 1.388 . S
C3599 C3598 1.366 . S
C3599 C3603 1.385 . S
C3600 H3581 0.951 . S
C3600 C3598 1.388 . S
C3600 C3601 1.366 . S
C3601 C3600 1.366 . S
C3601 C3602 1.414 . S
C3601 C3604 1.499 . S
C3602 H3582 0.950 . S
C3602 C3601 1.414 . S
C3602 C3603 1.374 . S
C3603 H3583 0.950 . S
C3603 C3599 1.385 . S
C3603 C3602 1.374 . S
C3604 C3601 1.499 . S
C3604 C3605 1.373 . S
C3604 C3606 1.389 1_545 S
C3605 H3584 0.950 . S
C3605 C3604 1.373 . S
C3605 C3621 1.377 . S
C3606 C3604 1.389 1_565 S
C3606 C3607 1.524 . S
C3606 C3620 1.377 . S
C3607 C3606 1.524 . S
C3607 C3608 1.397 . S
C3607 C3612 1.363 . S
C3608 H3585 0.950 . S
C3608 C3607 1.397 . S
C3608 C3609 1.334 . S
C3609 H3586 0.950 . S
C3609 C3608 1.334 . S
C3609 C3610 1.287 . S
C3610 C3609 1.287 . S
C3610 C3611 1.524 . S
C3610 H3629 0.913 . S
C3611 H3587 0.950 . S
C3611 C3610 1.524 . S
C3611 C3612 1.415 . S
C3612 H3588 0.950 . S
C3612 C3607 1.363 . S
C3612 C3611 1.415 . S
C3613 H3589 0.951 . S
C3613 C3614 1.366 . S
C3613 C3615 1.388 . S
C3614 C3613 1.366 . S
C3614 C3618 1.385 . S
C3615 H3590 0.951 . S
C3615 C3613 1.388 . S
C3615 C3616 1.366 . S
C3616 C3615 1.366 . S
C3616 C3617 1.414 . S
C3616 C3619 1.499 . S
C3617 H3591 0.950 . S
C3617 C3616 1.414 . S
C3617 C3618 1.374 . S
C3618 H3592 0.950 . S
C3618 C3614 1.385 . S
C3618 C3617 1.374 . S
C3619 C3616 1.499 . S
C3619 C3620 1.373 1_545 S
C3619 C3621 1.389 . S
C3620 H3593 0.950 . S
C3620 C3606 1.377 . S
C3620 C3619 1.373 1_565 S
C3621 C3605 1.377 . S
C3621 C3619 1.389 . S
C3621 C3622 1.524 . S
C3622 C3621 1.524 . S
C3622 C3623 1.397 . S
C3622 C3627 1.363 . S
C3623 H3594 0.950 . S
C3623 C3622 1.397 . S
C3623 C3624 1.334 . S
C3624 H3595 0.950 . S
C3624 C3623 1.334 . S
C3624 C3625 1.287 . S
C3625 C3624 1.287 . S
C3625 C3626 1.524 . S
C3625 H3628 0.999 . S
C3626 H3596 0.950 . S
C3626 C3625 1.524 . S
C3626 C3627 1.415 . S
C3627 H3597 0.950 . S
C3627 C3622 1.363 . S
C3627 C3626 1.415 . S
H3628 C3625 0.999 . S
H3629 C3610 0.913 . S
H3630 C3648 0.951 . S
H3631 C3650 0.951 . S
H3632 C3652 0.950 . S
H3633 C3653 0.950 . S
H3634 C3655 0.950 . S
H3635 C3658 0.950 . S
H3636 C3659 0.950 . S
H3637 C3661 0.950 . S
H3638 C3662 0.950 . S
H3639 C3663 0.951 . S
H3640 C3665 0.951 . S
H3641 C3667 0.950 . S
H3642 C3668 0.950 . S
H3643 C3670 0.950 . S
H3644 C3673 0.950 . S
H3645 C3674 0.950 . S
H3646 C3676 0.950 . S
H3647 C3677 0.950 . S
C3648 H3630 0.951 . S
C3648 C3649 1.366 . S
C3648 C3650 1.388 . S
C3649 C3648 1.366 . S
C3649 C3653 1.385 . S
C3650 H3631 0.951 . S
C3650 C3648 1.388 . S
C3650 C3651 1.366 . S
C3651 C3650 1.366 . S
C3651 C3652 1.414 . S
C3651 C3654 1.499 . S
C3652 H3632 0.950 . S
C3652 C3651 1.414 . S
C3652 C3653 1.374 . S
C3653 H3633 0.950 . S
C3653 C3649 1.385 . S
C3653 C3652 1.374 . S
C3654 C3651 1.499 . S
C3654 C3655 1.373 . S
C3654 C3656 1.389 . S
C3655 H3634 0.950 . S
C3655 C3654 1.373 . S
C3655 C3671 1.377 . S
C3656 C3654 1.389 . S
C3656 C3657 1.524 . S
C3656 C3670 1.377 . S
C3657 C3656 1.524 . S
C3657 C3658 1.397 . S
C3657 C3662 1.363 . S
C3658 H3635 0.950 . S
C3658 C3657 1.397 . S
C3658 C3659 1.334 . S
C3659 H3636 0.950 . S
C3659 C3658 1.334 . S
C3659 C3660 1.287 . S
C3660 C3659 1.287 . S
C3660 C3661 1.524 . S
C3660 H3679 0.913 . S
C3661 H3637 0.950 . S
C3661 C3660 1.524 . S
C3661 C3662 1.415 . S
C3662 H3638 0.950 . S
C3662 C3657 1.363 . S
C3662 C3661 1.415 . S
C3663 H3639 0.951 . S
C3663 C3664 1.366 . S
C3663 C3665 1.388 . S
C3664 C3663 1.366 . S
C3664 C3668 1.385 . S
C3665 H3640 0.951 . S
C3665 C3663 1.388 . S
C3665 C3666 1.366 . S
C3666 C3665 1.366 . S
C3666 C3667 1.414 . S
C3666 C3669 1.499 . S
C3667 H3641 0.950 . S
C3667 C3666 1.414 . S
C3667 C3668 1.374 . S
C3668 H3642 0.950 . S
C3668 C3664 1.385 . S
C3668 C3667 1.374 . S
C3669 C3666 1.499 . S
C3669 C3670 1.373 . S
C3669 C3671 1.389 . S
C3670 H3643 0.950 . S
C3670 C3656 1.377 . S
C3670 C3669 1.373 . S
C3671 C3655 1.377 . S
C3671 C3669 1.389 . S
C3671 C3672 1.524 . S
C3672 C3671 1.524 . S
C3672 C3673 1.397 . S
C3672 C3677 1.363 . S
C3673 H3644 0.950 . S
C3673 C3672 1.397 . S
C3673 C3674 1.334 . S
C3674 H3645 0.950 . S
C3674 C3673 1.334 . S
C3674 C3675 1.287 . S
C3675 C3674 1.287 . S
C3675 C3676 1.524 . S
C3675 H3678 0.999 . S
C3676 H3646 0.950 . S
C3676 C3675 1.524 . S
C3676 C3677 1.415 . S
C3677 H3647 0.950 . S
C3677 C3672 1.363 . S
C3677 C3676 1.415 . S
H3678 C3675 0.999 . S
H3679 C3660 0.913 . S
H3680 C3698 0.951 . S
H3681 C3700 0.951 . S
H3682 C3702 0.950 . S
H3683 C3703 0.950 . S
H3684 C3705 0.950 . S
H3685 C3708 0.950 . S
H3686 C3709 0.950 . S
H3687 C3711 0.950 . S
H3688 C3712 0.950 . S
H3689 C3713 0.951 . S
H3690 C3715 0.951 . S
H3691 C3717 0.950 . S
H3692 C3718 0.950 1_556 S
H3693 C3720 0.950 . S
H3694 C3723 0.950 . S
H3695 C3724 0.950 1_556 S
H3696 C3726 0.950 . S
H3697 C3727 0.950 . S
C3698 H3680 0.951 . S
C3698 C3699 1.366 . S
C3698 C3700 1.388 . S
C3699 C3698 1.366 . S
C3699 C3703 1.385 . S
C3700 H3681 0.951 . S
C3700 C3698 1.388 . S
C3700 C3701 1.366 . S
C3701 C3700 1.366 . S
C3701 C3702 1.414 . S
C3701 C3704 1.499 . S
C3702 H3682 0.950 . S
C3702 C3701 1.414 . S
C3702 C3703 1.374 . S
C3703 H3683 0.950 . S
C3703 C3699 1.385 . S
C3703 C3702 1.374 . S
C3704 C3701 1.499 . S
C3704 C3705 1.373 . S
C3704 C3706 1.389 . S
C3705 H3684 0.950 . S
C3705 C3704 1.373 . S
C3705 C3721 1.377 . S
C3706 C3704 1.389 . S
C3706 C3707 1.524 . S
C3706 C3720 1.377 . S
C3707 C3706 1.524 . S
C3707 C3708 1.397 . S
C3707 C3712 1.363 . S
C3708 H3685 0.950 . S
C3708 C3707 1.397 . S
C3708 C3709 1.334 . S
C3709 H3686 0.950 . S
C3709 C3708 1.334 . S
C3709 C3710 1.287 . S
C3710 C3709 1.287 . S
C3710 C3711 1.524 . S
C3710 H3729 0.913 . S
C3711 H3687 0.950 . S
C3711 C3710 1.524 . S
C3711 C3712 1.415 . S
C3712 H3688 0.950 . S
C3712 C3707 1.363 . S
C3712 C3711 1.415 . S
C3713 H3689 0.951 . S
C3713 C3714 1.366 . S
C3713 C3715 1.388 . S
C3714 C3713 1.366 . S
C3714 C3718 1.385 . S
C3715 H3690 0.951 . S
C3715 C3713 1.388 . S
C3715 C3716 1.366 . S
C3716 C3715 1.366 . S
C3716 C3717 1.414 . S
C3716 C3719 1.499 . S
C3717 H3691 0.950 . S
C3717 C3716 1.414 . S
C3717 C3718 1.374 . S
C3718 H3692 0.950 1_554 S
C3718 C3714 1.385 . S
C3718 C3717 1.374 . S
C3719 C3716 1.499 . S
C3719 C3720 1.373 . S
C3719 C3721 1.389 . S
C3720 H3693 0.950 . S
C3720 C3706 1.377 . S
C3720 C3719 1.373 . S
C3721 C3705 1.377 . S
C3721 C3719 1.389 . S
C3721 C3722 1.524 . S
C3722 C3721 1.524 . S
C3722 C3723 1.397 . S
C3722 C3727 1.363 . S
C3723 H3694 0.950 . S
C3723 C3722 1.397 . S
C3723 C3724 1.334 . S
C3724 H3695 0.950 1_554 S
C3724 C3723 1.334 . S
C3724 C3725 1.287 . S
C3725 C3724 1.287 . S
C3725 C3726 1.524 . S
C3725 H3728 0.999 . S
C3726 H3696 0.950 . S
C3726 C3725 1.524 . S
C3726 C3727 1.415 . S
C3727 H3697 0.950 . S
C3727 C3722 1.363 . S
C3727 C3726 1.415 . S
H3728 C3725 0.999 . S
H3729 C3710 0.913 . S
H3730 C3748 0.951 . S
H3731 C3750 0.951 . S
H3732 C3752 0.950 . S
H3733 C3753 0.950 . S
H3734 C3755 0.950 . S
H3735 C3758 0.956 . S
H3736 C3759 0.950 . S
H3737 C3761 0.950 . S
H3738 C3762 0.950 . S
H3739 C3763 0.951 . S
H3740 C3765 0.951 . S
H3741 C3767 0.950 . S
H3742 C3768 0.950 . S
H3743 C3770 0.950 . S
H3744 C3773 0.950 . S
H3745 C3774 0.950 . S
H3746 C3776 0.950 . S
H3747 C3777 0.950 . S
C3748 H3730 0.951 . S
C3748 C3749 1.366 . S
C3748 C3750 1.388 . S
C3749 C3748 1.366 . S
C3749 C3753 1.385 . S
C3750 H3731 0.951 . S
C3750 C3748 1.388 . S
C3750 C3751 1.366 . S
C3751 C3750 1.366 . S
C3751 C3752 1.414 . S
C3751 C3754 1.499 . S
C3752 H3732 0.950 . S
C3752 C3751 1.414 . S
C3752 C3753 1.374 . S
C3753 H3733 0.950 . S
C3753 C3749 1.385 . S
C3753 C3752 1.374 . S
C3754 C3751 1.499 . S
C3754 C3755 1.373 . S
C3754 C3756 1.389 . S
C3755 H3734 0.950 . S
C3755 C3754 1.373 . S
C3755 C3771 1.377 . S
C3756 C3754 1.389 . S
C3756 C3757 1.524 . S
C3756 C3770 1.377 . S
C3757 C3756 1.524 . S
C3757 C3758 1.361 1_554 S
C3757 C3762 1.363 . S
C3758 H3735 0.956 . S
C3758 C3757 1.361 1_556 S
C3758 C3759 1.367 . S
C3759 H3736 0.950 . S
C3759 C3758 1.367 . S
C3759 C3760 1.287 . S
C3760 C3759 1.287 . S
C3760 C3761 1.524 1_556 S
C3760 H3779 0.913 . S
C3761 H3737 0.950 . S
C3761 C3760 1.524 1_554 S
C3761 C3762 1.415 . S
C3762 H3738 0.950 . S
C3762 C3757 1.363 . S
C3762 C3761 1.415 . S
C3763 H3739 0.951 . S
C3763 C3764 1.366 . S
C3763 C3765 1.388 . S
C3764 C3763 1.366 . S
C3764 C3768 1.385 . S
C3765 H3740 0.951 . S
C3765 C3763 1.388 . S
C3765 C3766 1.366 . S
C3766 C3765 1.366 . S
C3766 C3767 1.414 . S
C3766 C3769 1.499 . S
C3767 H3741 0.950 . S
C3767 C3766 1.414 . S
C3767 C3768 1.374 . S
C3768 H3742 0.950 . S
C3768 C3764 1.385 . S
C3768 C3767 1.374 . S
C3769 C3766 1.499 . S
C3769 C3770 1.373 . S
C3769 C3771 1.389 . S
C3770 H3743 0.950 . S
C3770 C3756 1.377 . S
C3770 C3769 1.373 . S
C3771 C3755 1.377 . S
C3771 C3769 1.389 . S
C3771 C3772 1.524 . S
C3772 C3771 1.524 . S
C3772 C3773 1.397 . S
C3772 C3777 1.363 . S
C3773 H3744 0.950 . S
C3773 C3772 1.397 . S
C3773 C3774 1.334 . S
C3774 H3745 0.950 . S
C3774 C3773 1.334 . S
C3774 C3775 1.287 . S
C3775 C3774 1.287 . S
C3775 C3776 1.524 . S
C3775 H3778 0.999 . S
C3776 H3746 0.950 . S
C3776 C3775 1.524 . S
C3776 C3777 1.415 . S
C3777 H3747 0.950 . S
C3777 C3772 1.363 . S
C3777 C3776 1.415 . S
H3778 C3775 0.999 . S
H3779 C3760 0.913 . S
H3780 C3798 0.951 . S
H3781 C3800 0.951 . S
H3782 C3802 0.950 . S
H3783 C3803 0.950 . S
H3784 C3805 0.950 . S
H3785 C3808 0.950 . S
H3786 C3809 0.950 . S
H3787 C3811 0.950 . S
H3788 C3812 0.950 . S
H3789 C3813 0.951 . S
H3790 C3815 0.951 . S
H3791 C3817 0.950 . S
H3792 C3818 0.950 . S
H3793 C3820 0.950 . S
H3794 C3823 0.950 . S
H3795 C3824 0.950 . S
H3796 C3826 0.950 . S
H3797 C3827 0.950 . S
C3798 H3780 0.951 . S
C3798 C3799 1.366 . S
C3798 C3800 1.388 . S
C3799 C3798 1.366 . S
C3799 C3803 1.385 . S
C3800 H3781 0.951 . S
C3800 C3798 1.388 . S
C3800 C3801 1.366 . S
C3801 C3800 1.366 . S
C3801 C3802 1.414 . S
C3801 C3804 1.499 . S
C3802 H3782 0.950 . S
C3802 C3801 1.414 . S
C3802 C3803 1.374 . S
C3803 H3783 0.950 . S
C3803 C3799 1.385 . S
C3803 C3802 1.374 . S
C3804 C3801 1.499 . S
C3804 C3805 1.373 . S
C3804 C3806 1.389 . S
C3805 H3784 0.950 . S
C3805 C3804 1.373 . S
C3805 C3821 1.377 . S
C3806 C3804 1.389 . S
C3806 C3807 1.524 . S
C3806 C3820 1.377 . S
C3807 C3806 1.524 . S
C3807 C3808 1.397 . S
C3807 C3812 1.363 . S
C3808 H3785 0.950 . S
C3808 C3807 1.397 . S
C3808 C3809 1.334 . S
C3809 H3786 0.950 . S
C3809 C3808 1.334 . S
C3809 C3810 1.287 . S
C3810 C3809 1.287 . S
C3810 C3811 1.524 . S
C3810 H3829 0.913 . S
C3811 H3787 0.950 . S
C3811 C3810 1.524 . S
C3811 C3812 1.415 . S
C3812 H3788 0.950 . S
C3812 C3807 1.363 . S
C3812 C3811 1.415 . S
C3813 H3789 0.951 . S
C3813 C3814 1.366 . S
C3813 C3815 1.388 . S
C3814 C3813 1.366 . S
C3814 C3818 1.385 . S
C3815 H3790 0.951 . S
C3815 C3813 1.388 . S
C3815 C3816 1.366 . S
C3816 C3815 1.366 . S
C3816 C3817 1.414 . S
C3816 C3819 1.499 . S
C3817 H3791 0.950 . S
C3817 C3816 1.414 . S
C3817 C3818 1.374 . S
C3818 H3792 0.950 . S
C3818 C3814 1.385 . S
C3818 C3817 1.374 . S
C3819 C3816 1.499 . S
C3819 C3820 1.373 . S
C3819 C3821 1.389 . S
C3820 H3793 0.950 . S
C3820 C3806 1.377 . S
C3820 C3819 1.373 . S
C3821 C3805 1.377 . S
C3821 C3819 1.389 . S
C3821 C3822 1.524 . S
C3822 C3821 1.524 . S
C3822 C3823 1.397 . S
C3822 C3827 1.363 . S
C3823 H3794 0.950 . S
C3823 C3822 1.397 . S
C3823 C3824 1.334 . S
C3824 H3795 0.950 . S
C3824 C3823 1.334 . S
C3824 C3825 1.287 . S
C3825 C3824 1.287 . S
C3825 C3826 1.524 . S
C3825 H3828 0.999 . S
C3826 H3796 0.950 . S
C3826 C3825 1.524 . S
C3826 C3827 1.415 . S
C3827 H3797 0.950 . S
C3827 C3822 1.363 . S
C3827 C3826 1.415 . S
H3828 C3825 0.999 . S
H3829 C3810 0.913 . S
H3830 C3848 0.951 . S
H3831 C3850 0.951 . S
H3832 C3852 0.950 . S
H3833 C3853 0.950 . S
H3834 C3855 0.950 . S
H3835 C3858 0.950 . S
H3836 C3859 0.950 . S
H3837 C3861 0.950 . S
H3838 C3862 0.950 . S
H3839 C3863 0.951 . S
H3840 C3865 0.951 . S
H3841 C3867 0.950 . S
H3842 C3868 0.950 . S
H3843 C3870 0.950 . S
H3844 C3873 0.950 . S
H3845 C3874 0.950 . S
H3846 C3876 0.950 . S
H3847 C3877 0.950 . S
C3848 H3830 0.951 . S
C3848 C3849 1.366 . S
C3848 C3850 1.388 . S
C3849 C3848 1.366 . S
C3849 C3853 1.385 . S
C3850 H3831 0.951 . S
C3850 C3848 1.388 . S
C3850 C3851 1.366 . S
C3851 C3850 1.366 . S
C3851 C3852 1.414 . S
C3851 C3854 1.499 . S
C3852 H3832 0.950 . S
C3852 C3851 1.414 . S
C3852 C3853 1.374 . S
C3853 H3833 0.950 . S
C3853 C3849 1.385 . S
C3853 C3852 1.374 . S
C3854 C3851 1.499 . S
C3854 C3855 1.373 . S
C3854 C3856 1.389 . S
C3855 H3834 0.950 . S
C3855 C3854 1.373 . S
C3855 C3871 1.377 . S
C3856 C3854 1.389 . S
C3856 C3857 1.524 . S
C3856 C3870 1.377 . S
C3857 C3856 1.524 . S
C3857 C3858 1.397 . S
C3857 C3862 1.363 . S
C3858 H3835 0.950 . S
C3858 C3857 1.397 . S
C3858 C3859 1.334 . S
C3859 H3836 0.950 . S
C3859 C3858 1.334 . S
C3859 C3860 1.287 . S
C3860 C3859 1.287 . S
C3860 C3861 1.524 . S
C3860 H3879 0.913 . S
C3861 H3837 0.950 . S
C3861 C3860 1.524 . S
C3861 C3862 1.415 . S
C3862 H3838 0.950 . S
C3862 C3857 1.363 . S
C3862 C3861 1.415 . S
C3863 H3839 0.951 . S
C3863 C3864 1.366 . S
C3863 C3865 1.388 . S
C3864 C3863 1.366 . S
C3864 C3868 1.385 . S
C3865 H3840 0.951 . S
C3865 C3863 1.388 . S
C3865 C3866 1.366 . S
C3866 C3865 1.366 . S
C3866 C3867 1.414 . S
C3866 C3869 1.499 . S
C3867 H3841 0.950 . S
C3867 C3866 1.414 . S
C3867 C3868 1.374 . S
C3868 H3842 0.950 . S
C3868 C3864 1.385 . S
C3868 C3867 1.374 . S
C3869 C3866 1.499 . S
C3869 C3870 1.373 . S
C3869 C3871 1.389 . S
C3870 H3843 0.950 . S
C3870 C3856 1.377 . S
C3870 C3869 1.373 . S
C3871 C3855 1.377 . S
C3871 C3869 1.389 . S
C3871 C3872 1.524 . S
C3872 C3871 1.524 . S
C3872 C3873 1.397 . S
C3872 C3877 1.363 . S
C3873 H3844 0.950 . S
C3873 C3872 1.397 . S
C3873 C3874 1.334 . S
C3874 H3845 0.950 . S
C3874 C3873 1.334 . S
C3874 C3875 1.287 . S
C3875 C3874 1.287 . S
C3875 C3876 1.524 . S
C3875 H3878 0.999 . S
C3876 H3846 0.950 . S
C3876 C3875 1.524 . S
C3876 C3877 1.415 . S
C3877 H3847 0.950 . S
C3877 C3872 1.363 . S
C3877 C3876 1.415 . S
H3878 C3875 0.999 . S
H3879 C3860 0.913 . S
H3880 C3898 0.951 . S
H3881 C3900 0.951 . S
H3882 C3902 0.950 . S
H3883 C3903 0.950 1_545 S
H3884 C3905 0.950 . S
H3885 C3908 0.950 . S
H3886 C3909 0.950 . S
H3887 C3911 0.950 . S
H3888 C3912 0.950 . S
H3889 C3913 0.951 . S
H3890 C3915 0.951 . S
H3891 C3917 0.950 . S
H3892 C3918 0.950 . S
H3893 C3920 0.950 . S
H3894 C3923 0.950 . S
H3895 C3924 0.950 . S
H3896 C3926 0.950 . S
H3897 C3927 0.950 . S
C3898 H3880 0.951 . S
C3898 C3899 1.366 . S
C3898 C3900 1.388 . S
C3899 C3898 1.366 . S
C3899 C3903 1.385 . S
C3900 H3881 0.951 . S
C3900 C3898 1.388 . S
C3900 C3901 1.366 . S
C3901 C3900 1.366 . S
C3901 C3902 1.414 . S
C3901 C3904 1.499 . S
C3902 H3882 0.950 . S
C3902 C3901 1.414 . S
C3902 C3903 1.374 . S
C3903 H3883 0.950 1_565 S
C3903 C3899 1.385 . S
C3903 C3902 1.374 . S
C3904 C3901 1.499 . S
C3904 C3905 1.373 . S
C3904 C3906 1.389 . S
C3905 H3884 0.950 . S
C3905 C3904 1.373 . S
C3905 C3921 1.377 . S
C3906 C3904 1.389 . S
C3906 C3907 1.524 . S
C3906 C3920 1.377 . S
C3907 C3906 1.524 . S
C3907 C3908 1.397 . S
C3907 C3912 1.363 . S
C3908 H3885 0.950 . S
C3908 C3907 1.397 . S
C3908 C3909 1.334 . S
C3909 H3886 0.950 . S
C3909 C3908 1.334 . S
C3909 C3910 1.287 . S
C3910 C3909 1.287 . S
C3910 C3911 1.524 . S
C3910 H3929 0.913 . S
C3911 H3887 0.950 . S
C3911 C3910 1.524 . S
C3911 C3912 1.415 . S
C3912 H3888 0.950 . S
C3912 C3907 1.363 . S
C3912 C3911 1.415 . S
C3913 H3889 0.951 . S
C3913 C3914 1.366 . S
C3913 C3915 1.388 . S
C3914 C3913 1.366 . S
C3914 C3918 1.385 . S
C3915 H3890 0.951 . S
C3915 C3913 1.388 . S
C3915 C3916 1.366 . S
C3916 C3915 1.366 . S
C3916 C3917 1.414 . S
C3916 C3919 1.499 . S
C3917 H3891 0.950 . S
C3917 C3916 1.414 . S
C3917 C3918 1.374 . S
C3918 H3892 0.950 . S
C3918 C3914 1.385 . S
C3918 C3917 1.374 . S
C3919 C3916 1.499 . S
C3919 C3920 1.373 . S
C3919 C3921 1.389 . S
C3920 H3893 0.950 . S
C3920 C3906 1.377 . S
C3920 C3919 1.373 . S
C3921 C3905 1.377 . S
C3921 C3919 1.389 . S
C3921 C3922 1.524 . S
C3922 C3921 1.524 . S
C3922 C3923 1.397 . S
C3922 C3927 1.363 . S
C3923 H3894 0.950 . S
C3923 C3922 1.397 . S
C3923 C3924 1.334 . S
C3924 H3895 0.950 . S
C3924 C3923 1.334 . S
C3924 C3925 1.287 . S
C3925 C3924 1.287 . S
C3925 C3926 1.524 . S
C3925 H3928 0.999 . S
C3926 H3896 0.950 . S
C3926 C3925 1.524 . S
C3926 C3927 1.415 . S
C3927 H3897 0.950 . S
C3927 C3922 1.363 . S
C3927 C3926 1.415 . S
H3928 C3925 0.999 . S
H3929 C3910 0.913 . S
H3930 C3948 0.951 . S
H3931 C3950 0.951 . S
H3932 C3952 0.950 . S
H3933 C3953 0.950 . S
H3934 C3955 0.950 . S
H3935 C3958 0.950 . S
H3936 C3959 0.950 . S
H3937 C3961 0.950 . S
H3938 C3962 0.950 . S
H3939 C3963 0.951 . S
H3940 C3965 0.951 . S
H3941 C3967 0.950 . S
H3942 C3968 0.950 . S
H3943 C3970 0.950 . S
H3944 C3973 0.950 . S
H3945 C3974 0.950 . S
H3946 C3976 0.950 . S
H3947 C3977 0.950 . S
C3948 H3930 0.951 . S
C3948 C3949 1.366 . S
C3948 C3950 1.388 . S
C3949 C3948 1.366 . S
C3949 C3953 1.385 . S
C3950 H3931 0.951 . S
C3950 C3948 1.388 . S
C3950 C3951 1.366 . S
C3951 C3950 1.366 . S
C3951 C3952 1.414 . S
C3951 C3954 1.499 . S
C3952 H3932 0.950 . S
C3952 C3951 1.414 . S
C3952 C3953 1.374 . S
C3953 H3933 0.950 . S
C3953 C3949 1.385 . S
C3953 C3952 1.374 . S
C3954 C3951 1.499 . S
C3954 C3955 1.373 . S
C3954 C3956 1.389 . S
C3955 H3934 0.950 . S
C3955 C3954 1.373 . S
C3955 C3971 1.377 . S
C3956 C3954 1.389 . S
C3956 C3957 1.524 . S
C3956 C3970 1.377 . S
C3957 C3956 1.524 . S
C3957 C3958 1.397 . S
C3957 C3962 1.363 . S
C3958 H3935 0.950 . S
C3958 C3957 1.397 . S
C3958 C3959 1.334 . S
C3959 H3936 0.950 . S
C3959 C3958 1.334 . S
C3959 C3960 1.287 . S
C3960 C3959 1.287 . S
C3960 C3961 1.524 . S
C3960 H3979 0.913 . S
C3961 H3937 0.950 . S
C3961 C3960 1.524 . S
C3961 C3962 1.415 . S
C3962 H3938 0.950 . S
C3962 C3957 1.363 . S
C3962 C3961 1.415 . S
C3963 H3939 0.951 . S
C3963 C3964 1.366 . S
C3963 C3965 1.388 . S
C3964 C3963 1.366 . S
C3964 C3968 1.385 . S
C3965 H3940 0.951 . S
C3965 C3963 1.388 . S
C3965 C3966 1.366 . S
C3966 C3965 1.366 . S
C3966 C3967 1.414 . S
C3966 C3969 1.499 . S
C3967 H3941 0.950 . S
C3967 C3966 1.414 . S
C3967 C3968 1.374 . S
C3968 H3942 0.950 . S
C3968 C3964 1.385 . S
C3968 C3967 1.374 . S
C3969 C3966 1.499 . S
C3969 C3970 1.373 . S
C3969 C3971 1.389 . S
C3970 H3943 0.950 . S
C3970 C3956 1.377 . S
C3970 C3969 1.373 . S
C3971 C3955 1.377 . S
C3971 C3969 1.389 . S
C3971 C3972 1.524 . S
C3972 C3971 1.524 . S
C3972 C3973 1.397 . S
C3972 C3977 1.363 . S
C3973 H3944 0.950 . S
C3973 C3972 1.397 . S
C3973 C3974 1.334 . S
C3974 H3945 0.950 . S
C3974 C3973 1.334 . S
C3974 C3975 1.287 . S
C3975 C3974 1.287 . S
C3975 C3976 1.524 . S
C3975 H3978 0.999 . S
C3976 H3946 0.950 . S
C3976 C3975 1.524 . S
C3976 C3977 1.415 . S
C3977 H3947 0.950 . S
C3977 C3972 1.363 . S
C3977 C3976 1.415 . S
H3978 C3975 0.999 . S
H3979 C3960 0.913 . S
H3980 C3998 0.951 . S
H3981 C4000 0.951 . S
H3982 C4002 0.950 . S
H3983 C4003 0.950 . S
H3984 C4005 0.950 . S
H3985 C4008 0.950 . S
H3986 C4009 0.950 . S
H3987 C4011 0.950 . S
H3988 C4012 0.950 . S
H3989 C4013 0.951 . S
H3990 C4015 0.951 . S
H3991 C4017 0.950 . S
H3992 C4018 0.950 . S
H3993 C4020 0.950 . S
H3994 C4023 0.950 . S
H3995 C4024 0.950 . S
H3996 C4026 0.950 . S
H3997 C4027 0.950 . S
C3998 H3980 0.951 . S
C3998 C3999 1.366 . S
C3998 C4000 1.388 . S
C3999 C3998 1.366 . S
C3999 C4003 1.385 . S
C4000 H3981 0.951 . S
C4000 C3998 1.388 . S
C4000 C4001 1.366 . S
C4001 C4000 1.366 . S
C4001 C4002 1.414 . S
C4001 C4004 1.499 . S
C4002 H3982 0.950 . S
C4002 C4001 1.414 . S
C4002 C4003 1.374 . S
C4003 H3983 0.950 . S
C4003 C3999 1.385 . S
C4003 C4002 1.374 . S
C4004 C4001 1.499 . S
C4004 C4005 1.373 . S
C4004 C4006 1.389 . S
C4005 H3984 0.950 . S
C4005 C4004 1.373 . S
C4005 C4021 1.377 . S
C4006 C4004 1.389 . S
C4006 C4007 1.524 . S
C4006 C4020 1.377 . S
C4007 C4006 1.524 . S
C4007 C4008 1.397 . S
C4007 C4012 1.363 . S
C4008 H3985 0.950 . S
C4008 C4007 1.397 . S
C4008 C4009 1.334 . S
C4009 H3986 0.950 . S
C4009 C4008 1.334 . S
C4009 C4010 1.287 . S
C4010 C4009 1.287 . S
C4010 C4011 1.524 . S
C4010 H4029 0.913 . S
C4011 H3987 0.950 . S
C4011 C4010 1.524 . S
C4011 C4012 1.415 . S
C4012 H3988 0.950 . S
C4012 C4007 1.363 . S
C4012 C4011 1.415 . S
C4013 H3989 0.951 . S
C4013 C4014 1.366 . S
C4013 C4015 1.388 . S
C4014 C4013 1.366 . S
C4014 C4018 1.385 . S
C4015 H3990 0.951 . S
C4015 C4013 1.388 . S
C4015 C4016 1.366 . S
C4016 C4015 1.366 . S
C4016 C4017 1.414 . S
C4016 C4019 1.499 . S
C4017 H3991 0.950 . S
C4017 C4016 1.414 . S
C4017 C4018 1.374 . S
C4018 H3992 0.950 . S
C4018 C4014 1.385 . S
C4018 C4017 1.374 . S
C4019 C4016 1.499 . S
C4019 C4020 1.373 . S
C4019 C4021 1.389 . S
C4020 H3993 0.950 . S
C4020 C4006 1.377 . S
C4020 C4019 1.373 . S
C4021 C4005 1.377 . S
C4021 C4019 1.389 . S
C4021 C4022 1.524 . S
C4022 C4021 1.524 . S
C4022 C4023 1.397 . S
C4022 C4027 1.363 . S
C4023 H3994 0.950 . S
C4023 C4022 1.397 . S
C4023 C4024 1.334 . S
C4024 H3995 0.950 . S
C4024 C4023 1.334 . S
C4024 C4025 1.287 . S
C4025 C4024 1.287 . S
C4025 C4026 1.524 . S
C4025 H4028 0.999 . S
C4026 H3996 0.950 . S
C4026 C4025 1.524 . S
C4026 C4027 1.415 . S
C4027 H3997 0.950 . S
C4027 C4022 1.363 . S
C4027 C4026 1.415 . S
H4028 C4025 0.999 . S
H4029 C4010 0.913 . S
H4030 C4048 0.951 . S
H4031 C4050 0.951 . S
H4032 C4052 0.950 . S
H4033 C4053 0.950 . S
H4034 C4055 0.950 . S
H4035 C4058 0.950 . S
H4036 C4059 0.950 . S
H4037 C4061 0.950 . S
H4038 C4062 0.950 . S
H4039 C4063 0.951 . S
H4040 C4065 0.951 . S
H4041 C4067 0.950 . S
H4042 C4068 0.950 . S
H4043 C4070 0.950 . S
H4044 C4073 0.950 . S
H4045 C4074 0.950 . S
H4046 C4076 0.950 . S
H4047 C4077 0.950 . S
C4048 H4030 0.951 . S
C4048 C4049 1.366 . S
C4048 C4050 1.388 . S
C4049 C4048 1.366 . S
C4049 C4053 1.385 . S
C4050 H4031 0.951 . S
C4050 C4048 1.388 . S
C4050 C4051 1.366 . S
C4051 C4050 1.366 . S
C4051 C4052 1.414 . S
C4051 C4054 1.499 . S
C4052 H4032 0.950 . S
C4052 C4051 1.414 . S
C4052 C4053 1.374 . S
C4053 H4033 0.950 . S
C4053 C4049 1.385 . S
C4053 C4052 1.374 . S
C4054 C4051 1.499 . S
C4054 C4055 1.373 . S
C4054 C4056 1.389 . S
C4055 H4034 0.950 . S
C4055 C4054 1.373 . S
C4055 C4071 1.377 . S
C4056 C4054 1.389 . S
C4056 C4057 1.524 . S
C4056 C4070 1.377 . S
C4057 C4056 1.524 . S
C4057 C4058 1.397 . S
C4057 C4062 1.363 . S
C4058 H4035 0.950 . S
C4058 C4057 1.397 . S
C4058 C4059 1.334 . S
C4059 H4036 0.950 . S
C4059 C4058 1.334 . S
C4059 C4060 1.287 . S
C4060 C4059 1.287 . S
C4060 C4061 1.524 . S
C4060 H4079 0.913 . S
C4061 H4037 0.950 . S
C4061 C4060 1.524 . S
C4061 C4062 1.415 . S
C4062 H4038 0.950 . S
C4062 C4057 1.363 . S
C4062 C4061 1.415 . S
C4063 H4039 0.951 . S
C4063 C4064 1.366 . S
C4063 C4065 1.388 . S
C4064 C4063 1.366 . S
C4064 C4068 1.385 . S
C4065 H4040 0.951 . S
C4065 C4063 1.388 . S
C4065 C4066 1.366 . S
C4066 C4065 1.366 . S
C4066 C4067 1.414 . S
C4066 C4069 1.499 . S
C4067 H4041 0.950 . S
C4067 C4066 1.414 . S
C4067 C4068 1.374 . S
C4068 H4042 0.950 . S
C4068 C4064 1.385 . S
C4068 C4067 1.374 . S
C4069 C4066 1.499 . S
C4069 C4070 1.373 . S
C4069 C4071 1.389 . S
C4070 H4043 0.950 . S
C4070 C4056 1.377 . S
C4070 C4069 1.373 . S
C4071 C4055 1.377 . S
C4071 C4069 1.389 . S
C4071 C4072 1.524 . S
C4072 C4071 1.524 . S
C4072 C4073 1.397 . S
C4072 C4077 1.363 . S
C4073 H4044 0.950 . S
C4073 C4072 1.397 . S
C4073 C4074 1.334 . S
C4074 H4045 0.950 . S
C4074 C4073 1.334 . S
C4074 C4075 1.287 . S
C4075 C4074 1.287 . S
C4075 C4076 1.524 . S
C4075 H4078 0.999 . S
C4076 H4046 0.950 . S
C4076 C4075 1.524 . S
C4076 C4077 1.415 . S
C4077 H4047 0.950 . S
C4077 C4072 1.363 . S
C4077 C4076 1.415 . S
H4078 C4075 0.999 . S
H4079 C4060 0.913 . S
H4080 C4098 0.951 . S
H4081 C4100 0.951 . S
H4082 C4102 0.950 . S
H4083 C4103 0.950 . S
H4084 C4105 0.950 . S
H4085 C4108 0.950 . S
H4086 C4109 0.950 . S
H4087 C4111 0.950 . S
H4088 C4112 0.950 . S
H4089 C4113 0.951 . S
H4090 C4115 0.951 . S
H4091 C4117 0.950 . S
H4092 C4118 0.950 . S
H4093 C4120 0.950 . S
H4094 C4123 0.950 . S
H4095 C4124 0.950 . S
H4096 C4126 0.950 . S
H4097 C4127 0.950 . S
C4098 H4080 0.951 . S
C4098 C4099 1.366 . S
C4098 C4100 1.388 . S
C4099 C4098 1.366 . S
C4099 C4103 1.385 . S
C4100 H4081 0.951 . S
C4100 C4098 1.388 . S
C4100 C4101 1.366 . S
C4101 C4100 1.366 . S
C4101 C4102 1.414 . S
C4101 C4104 1.499 . S
C4102 H4082 0.950 . S
C4102 C4101 1.414 . S
C4102 C4103 1.374 . S
C4103 H4083 0.950 . S
C4103 C4099 1.385 . S
C4103 C4102 1.374 . S
C4104 C4101 1.499 . S
C4104 C4105 1.373 . S
C4104 C4106 1.389 . S
C4105 H4084 0.950 . S
C4105 C4104 1.373 . S
C4105 C4121 1.377 . S
C4106 C4104 1.389 . S
C4106 C4107 1.524 . S
C4106 C4120 1.377 . S
C4107 C4106 1.524 . S
C4107 C4108 1.397 . S
C4107 C4112 1.363 . S
C4108 H4085 0.950 . S
C4108 C4107 1.397 . S
C4108 C4109 1.334 . S
C4109 H4086 0.950 . S
C4109 C4108 1.334 . S
C4109 C4110 1.287 . S
C4110 C4109 1.287 . S
C4110 C4111 1.524 . S
C4110 H4129 0.913 . S
C4111 H4087 0.950 . S
C4111 C4110 1.524 . S
C4111 C4112 1.415 . S
C4112 H4088 0.950 . S
C4112 C4107 1.363 . S
C4112 C4111 1.415 . S
C4113 H4089 0.951 . S
C4113 C4114 1.366 . S
C4113 C4115 1.388 . S
C4114 C4113 1.366 . S
C4114 C4118 1.385 . S
C4115 H4090 0.951 . S
C4115 C4113 1.388 . S
C4115 C4116 1.366 . S
C4116 C4115 1.366 . S
C4116 C4117 1.414 . S
C4116 C4119 1.499 . S
C4117 H4091 0.950 . S
C4117 C4116 1.414 . S
C4117 C4118 1.374 . S
C4118 H4092 0.950 . S
C4118 C4114 1.385 . S
C4118 C4117 1.374 . S
C4119 C4116 1.499 . S
C4119 C4120 1.373 . S
C4119 C4121 1.389 . S
C4120 H4093 0.950 . S
C4120 C4106 1.377 . S
C4120 C4119 1.373 . S
C4121 C4105 1.377 . S
C4121 C4119 1.389 . S
C4121 C4122 1.524 . S
C4122 C4121 1.524 . S
C4122 C4123 1.397 . S
C4122 C4127 1.363 . S
C4123 H4094 0.950 . S
C4123 C4122 1.397 . S
C4123 C4124 1.334 . S
C4124 H4095 0.950 . S
C4124 C4123 1.334 . S
C4124 C4125 1.287 . S
C4125 C4124 1.287 . S
C4125 C4126 1.524 . S
C4125 H4128 0.999 . S
C4126 H4096 0.950 . S
C4126 C4125 1.524 . S
C4126 C4127 1.415 . S
C4127 H4097 0.950 . S
C4127 C4122 1.363 . S
C4127 C4126 1.415 . S
H4128 C4125 0.999 . S
H4129 C4110 0.913 . S
H4130 C4148 0.951 . S
H4131 C4150 0.951 . S
H4132 C4152 0.950 . S
H4133 C4153 0.950 . S
H4134 C4155 0.950 . S
H4135 C4158 0.950 . S
H4136 C4159 0.950 . S
H4137 C4161 0.950 . S
H4138 C4162 0.950 . S
H4139 C4163 0.951 . S
H4140 C4165 0.951 . S
H4141 C4167 0.950 . S
H4142 C4168 0.950 . S
H4143 C4170 0.950 . S
H4144 C4173 0.950 . S
H4145 C4174 0.950 . S
H4146 C4176 0.950 . S
H4147 C4177 0.950 . S
C4148 H4130 0.951 . S
C4148 C4149 1.366 . S
C4148 C4150 1.388 . S
C4149 C4148 1.366 . S
C4149 C4153 1.385 . S
C4150 H4131 0.951 . S
C4150 C4148 1.388 . S
C4150 C4151 1.366 . S
C4151 C4150 1.366 . S
C4151 C4152 1.414 . S
C4151 C4154 1.499 . S
C4152 H4132 0.950 . S
C4152 C4151 1.414 . S
C4152 C4153 1.374 . S
C4153 H4133 0.950 . S
C4153 C4149 1.385 . S
C4153 C4152 1.374 . S
C4154 C4151 1.499 . S
C4154 C4155 1.373 . S
C4154 C4156 1.389 . S
C4155 H4134 0.950 . S
C4155 C4154 1.373 . S
C4155 C4171 1.377 . S
C4156 C4154 1.389 . S
C4156 C4157 1.524 . S
C4156 C4170 1.377 . S
C4157 C4156 1.524 . S
C4157 C4158 1.397 . S
C4157 C4162 1.363 . S
C4158 H4135 0.950 . S
C4158 C4157 1.397 . S
C4158 C4159 1.334 . S
C4159 H4136 0.950 . S
C4159 C4158 1.334 . S
C4159 C4160 1.287 . S
C4160 C4159 1.287 . S
C4160 C4161 1.524 . S
C4160 H4179 0.913 . S
C4161 H4137 0.950 . S
C4161 C4160 1.524 . S
C4161 C4162 1.415 . S
C4162 H4138 0.950 . S
C4162 C4157 1.363 . S
C4162 C4161 1.415 . S
C4163 H4139 0.951 . S
C4163 C4164 1.366 . S
C4163 C4165 1.388 . S
C4164 C4163 1.366 . S
C4164 C4168 1.385 . S
C4165 H4140 0.951 . S
C4165 C4163 1.388 . S
C4165 C4166 1.366 . S
C4166 C4165 1.366 . S
C4166 C4167 1.414 . S
C4166 C4169 1.499 . S
C4167 H4141 0.950 . S
C4167 C4166 1.414 . S
C4167 C4168 1.374 . S
C4168 H4142 0.950 . S
C4168 C4164 1.385 . S
C4168 C4167 1.374 . S
C4169 C4166 1.499 . S
C4169 C4170 1.373 . S
C4169 C4171 1.389 . S
C4170 H4143 0.950 . S
C4170 C4156 1.377 . S
C4170 C4169 1.373 . S
C4171 C4155 1.377 . S
C4171 C4169 1.389 . S
C4171 C4172 1.524 . S
C4172 C4171 1.524 . S
C4172 C4173 1.397 . S
C4172 C4177 1.363 . S
C4173 H4144 0.950 . S
C4173 C4172 1.397 . S
C4173 C4174 1.334 . S
C4174 H4145 0.950 . S
C4174 C4173 1.334 . S
C4174 C4175 1.287 . S
C4175 C4174 1.287 . S
C4175 C4176 1.524 . S
C4175 H4178 0.999 . S
C4176 H4146 0.950 . S
C4176 C4175 1.524 . S
C4176 C4177 1.415 . S
C4177 H4147 0.950 . S
C4177 C4172 1.363 . S
C4177 C4176 1.415 . S
H4178 C4175 0.999 . S
H4179 C4160 0.913 . S
H4180 C4198 0.951 . S
H4181 C4200 0.951 . S
H4182 C4202 0.950 1_655 S
H4183 C4203 0.938 1_655 S
H4184 C4205 0.950 . S
H4185 C4208 0.950 . S
H4186 C4209 0.947 1_556 S
H4187 C4211 0.950 . S
H4188 C4212 0.950 1_455 S
H4189 C4213 0.951 . S
H4190 C4215 0.951 . S
H4191 C4217 0.950 . S
H4192 C4218 0.950 . S
H4193 C4220 0.964 . S
H4194 C4223 0.950 . S
H4195 C4224 0.950 . S
H4196 C4226 0.950 . S
H4197 C4227 0.950 . S
C4198 H4180 0.951 . S
C4198 C4199 1.366 . S
C4198 C4200 1.388 . S
C4199 C4198 1.366 . S
C4199 C4203 1.409 . S
C4200 H4181 0.951 . S
C4200 C4198 1.388 . S
C4200 C4201 1.366 . S
C4201 C4200 1.366 . S
C4201 C4202 1.414 . S
C4201 C4204 1.499 . S
C4202 H4182 0.950 1_455 S
C4202 C4201 1.414 . S
C4202 C4203 1.366 . S
C4203 H4183 0.938 1_455 S
C4203 C4199 1.409 . S
C4203 C4202 1.366 . S
C4204 C4201 1.499 . S
C4204 C4205 1.373 . S
C4204 C4206 1.389 . S
C4205 H4184 0.950 . S
C4205 C4204 1.373 . S
C4205 C4221 1.377 . S
C4206 C4204 1.389 . S
C4206 C4207 1.524 1_456 S
C4206 C4220 1.373 1_556 S
C4207 C4206 1.524 1_654 S
C4207 C4208 1.397 1_554 S
C4207 C4212 1.363 . S
C4208 H4185 0.950 . S
C4208 C4207 1.397 1_556 S
C4208 C4209 1.334 1_556 S
C4209 H4186 0.947 1_554 S
C4209 C4208 1.334 1_554 S
C4209 C4210 1.287 . S
C4210 C4209 1.287 . S
C4210 C4211 1.524 . S
C4210 H4229 0.913 . S
C4211 H4187 0.950 . S
C4211 C4210 1.524 . S
C4211 C4212 1.415 . S
C4212 H4188 0.950 1_655 S
C4212 C4207 1.363 . S
C4212 C4211 1.415 . S
C4213 H4189 0.951 . S
C4213 C4214 1.366 1_556 S
C4213 C4215 1.388 . S
C4214 C4213 1.366 1_554 S
C4214 C4218 1.385 . S
C4215 H4190 0.951 . S
C4215 C4213 1.388 . S
C4215 C4216 1.366 . S
C4216 C4215 1.366 . S
C4216 C4217 1.414 1_556 S
C4216 C4219 1.499 . S
C4217 H4191 0.950 . S
C4217 C4216 1.414 1_554 S
C4217 C4218 1.374 . S
C4218 H4192 0.950 . S
C4218 C4214 1.385 . S
C4218 C4217 1.374 . S
C4219 C4216 1.499 . S
C4219 C4220 1.363 1_556 S
C4219 C4221 1.389 . S
C4220 H4193 0.964 . S
C4220 C4206 1.373 1_554 S
C4220 C4219 1.363 1_554 S
C4221 C4205 1.377 . S
C4221 C4219 1.389 . S
C4221 C4222 1.524 . S
C4222 C4221 1.524 . S
C4222 C4223 1.397 . S
C4222 C4227 1.363 . S
C4223 H4194 0.950 . S
C4223 C4222 1.397 . S
C4223 C4224 1.334 . S
C4224 H4195 0.950 . S
C4224 C4223 1.334 . S
C4224 C4225 1.287 . S
C4225 C4224 1.287 . S
C4225 C4226 1.524 . S
C4225 H4228 0.999 . S
C4226 H4196 0.950 . S
C4226 C4225 1.524 . S
C4226 C4227 1.415 . S
C4227 H4197 0.950 . S
C4227 C4222 1.363 . S
C4227 C4226 1.415 . S
H4228 C4225 0.999 . S
H4229 C4210 0.913 . S
H4230 C4248 0.978 . S
H4231 C4250 0.951 . S
H4232 C4252 0.950 . S
H4233 C4253 0.950 . S
H4234 C4255 0.950 . S
H4235 C4258 0.950 . S
H4236 C4259 0.950 . S
H4237 C4261 0.950 . S
H4238 C4262 0.950 . S
H4239 C4263 0.951 . S
H4240 C4265 0.951 . S
H4241 C4267 0.950 . S
H4242 C4268 0.950 . S
H4243 C4270 0.950 . S
H4244 C4273 0.950 . S
H4245 C4274 0.950 . S
H4246 C4276 0.950 . S
H4247 C4277 0.950 . S
C4248 H4230 0.978 . S
C4248 C4249 1.366 . S
C4248 C4250 1.361 1_455 S
C4249 C4248 1.366 . S
C4249 C4253 1.338 1_455 S
C4250 H4231 0.951 . S
C4250 C4248 1.361 1_655 S
C4250 C4251 1.366 . S
C4251 C4250 1.366 . S
C4251 C4252 1.414 . S
C4251 C4254 1.499 . S
C4252 H4232 0.950 . S
C4252 C4251 1.414 . S
C4252 C4253 1.374 . S
C4253 H4233 0.950 . S
C4253 C4249 1.338 1_655 S
C4253 C4252 1.374 . S
C4254 C4251 1.499 . S
C4254 C4255 1.373 . S
C4254 C4256 1.389 . S
C4255 H4234 0.950 . S
C4255 C4254 1.373 . S
C4255 C4271 1.377 . S
C4256 C4254 1.389 . S
C4256 C4257 1.524 . S
C4256 C4270 1.377 . S
C4257 C4256 1.524 . S
C4257 C4258 1.397 . S
C4257 C4262 1.363 . S
C4258 H4235 0.950 . S
C4258 C4257 1.397 . S
C4258 C4259 1.334 . S
C4259 H4236 0.950 . S
C4259 C4258 1.334 . S
C4259 C4260 1.287 . S
C4260 C4259 1.287 . S
C4260 C4261 1.524 . S
C4260 H4279 0.913 . S
C4261 H4237 0.950 . S
C4261 C4260 1.524 . S
C4261 C4262 1.415 . S
C4262 H4238 0.950 . S
C4262 C4257 1.363 . S
C4262 C4261 1.415 . S
C4263 H4239 0.951 . S
C4263 C4264 1.366 . S
C4263 C4265 1.388 . S
C4264 C4263 1.366 . S
C4264 C4268 1.385 . S
C4265 H4240 0.951 . S
C4265 C4263 1.388 . S
C4265 C4266 1.366 . S
C4266 C4265 1.366 . S
C4266 C4267 1.414 . S
C4266 C4269 1.499 . S
C4267 H4241 0.950 . S
C4267 C4266 1.414 . S
C4267 C4268 1.374 . S
C4268 H4242 0.950 . S
C4268 C4264 1.385 . S
C4268 C4267 1.374 . S
C4269 C4266 1.499 . S
C4269 C4270 1.373 . S
C4269 C4271 1.389 . S
C4270 H4243 0.950 . S
C4270 C4256 1.377 . S
C4270 C4269 1.373 . S
C4271 C4255 1.377 . S
C4271 C4269 1.389 . S
C4271 C4272 1.524 . S
C4272 C4271 1.524 . S
C4272 C4273 1.397 . S
C4272 C4277 1.363 . S
C4273 H4244 0.950 . S
C4273 C4272 1.397 . S
C4273 C4274 1.334 . S
C4274 H4245 0.950 . S
C4274 C4273 1.334 . S
C4274 C4275 1.287 . S
C4275 C4274 1.287 . S
C4275 C4276 1.524 . S
C4275 H4278 0.999 . S
C4276 H4246 0.950 . S
C4276 C4275 1.524 . S
C4276 C4277 1.415 . S
C4277 H4247 0.950 . S
C4277 C4272 1.363 . S
C4277 C4276 1.415 . S
H4278 C4275 0.999 . S
H4279 C4260 0.913 . S
H4280 C4298 0.951 . S
H4281 C4300 0.951 . S
H4282 C4302 0.950 . S
H4283 C4303 0.950 . S
H4284 C4305 0.950 . S
H4285 C4308 0.950 . S
H4286 C4309 0.950 . S
H4287 C4311 0.950 . S
H4288 C4312 0.950 . S
H4289 C4313 0.951 . S
H4290 C4315 0.951 . S
H4291 C4317 0.950 . S
H4292 C4318 0.950 . S
H4293 C4320 0.950 . S
H4294 C4323 0.950 . S
H4295 C4324 0.950 . S
H4296 C4326 0.950 . S
H4297 C4327 0.950 . S
C4298 H4280 0.951 . S
C4298 C4299 1.366 . S
C4298 C4300 1.388 . S
C4299 C4298 1.366 . S
C4299 C4303 1.385 . S
C4300 H4281 0.951 . S
C4300 C4298 1.388 . S
C4300 C4301 1.366 . S
C4301 C4300 1.366 . S
C4301 C4302 1.414 . S
C4301 C4304 1.499 . S
C4302 H4282 0.950 . S
C4302 C4301 1.414 . S
C4302 C4303 1.374 . S
C4303 H4283 0.950 . S
C4303 C4299 1.385 . S
C4303 C4302 1.374 . S
C4304 C4301 1.499 . S
C4304 C4305 1.373 . S
C4304 C4306 1.389 . S
C4305 H4284 0.950 . S
C4305 C4304 1.373 . S
C4305 C4321 1.377 . S
C4306 C4304 1.389 . S
C4306 C4307 1.524 . S
C4306 C4320 1.377 . S
C4307 C4306 1.524 . S
C4307 C4308 1.397 . S
C4307 C4312 1.363 . S
C4308 H4285 0.950 . S
C4308 C4307 1.397 . S
C4308 C4309 1.334 . S
C4309 H4286 0.950 . S
C4309 C4308 1.334 . S
C4309 C4310 1.287 . S
C4310 C4309 1.287 . S
C4310 C4311 1.524 . S
C4310 H4329 0.913 . S
C4311 H4287 0.950 . S
C4311 C4310 1.524 . S
C4311 C4312 1.415 . S
C4312 H4288 0.950 . S
C4312 C4307 1.363 . S
C4312 C4311 1.415 . S
C4313 H4289 0.951 . S
C4313 C4314 1.366 . S
C4313 C4315 1.388 . S
C4314 C4313 1.366 . S
C4314 C4318 1.385 . S
C4315 H4290 0.951 . S
C4315 C4313 1.388 . S
C4315 C4316 1.366 . S
C4316 C4315 1.366 . S
C4316 C4317 1.414 . S
C4316 C4319 1.499 . S
C4317 H4291 0.950 . S
C4317 C4316 1.414 . S
C4317 C4318 1.374 . S
C4318 H4292 0.950 . S
C4318 C4314 1.385 . S
C4318 C4317 1.374 . S
C4319 C4316 1.499 . S
C4319 C4320 1.373 . S
C4319 C4321 1.389 . S
C4320 H4293 0.950 . S
C4320 C4306 1.377 . S
C4320 C4319 1.373 . S
C4321 C4305 1.377 . S
C4321 C4319 1.389 . S
C4321 C4322 1.524 . S
C4322 C4321 1.524 . S
C4322 C4323 1.397 . S
C4322 C4327 1.363 . S
C4323 H4294 0.950 . S
C4323 C4322 1.397 . S
C4323 C4324 1.334 . S
C4324 H4295 0.950 . S
C4324 C4323 1.334 . S
C4324 C4325 1.287 . S
C4325 C4324 1.287 . S
C4325 C4326 1.524 . S
C4325 H4328 0.999 . S
C4326 H4296 0.950 . S
C4326 C4325 1.524 . S
C4326 C4327 1.415 . S
C4327 H4297 0.950 . S
C4327 C4322 1.363 . S
C4327 C4326 1.415 . S
H4328 C4325 0.999 . S
H4329 C4310 0.913 . S
H4330 C4348 0.951 . S
H4331 C4350 0.951 . S
H4332 C4352 0.950 . S
H4333 C4353 0.950 . S
H4334 C4355 0.950 . S
H4335 C4358 0.950 . S
H4336 C4359 0.950 . S
H4337 C4361 0.950 . S
H4338 C4362 0.950 . S
H4339 C4363 0.951 . S
H4340 C4365 0.951 . S
H4341 C4367 0.950 . S
H4342 C4368 0.950 . S
H4343 C4370 0.950 . S
H4344 C4373 0.950 . S
H4345 C4374 0.950 . S
H4346 C4376 0.950 . S
H4347 C4377 0.950 . S
C4348 H4330 0.951 . S
C4348 C4349 1.366 . S
C4348 C4350 1.388 . S
C4349 C4348 1.366 . S
C4349 C4353 1.385 . S
C4350 H4331 0.951 . S
C4350 C4348 1.388 . S
C4350 C4351 1.366 . S
C4351 C4350 1.366 . S
C4351 C4352 1.414 . S
C4351 C4354 1.499 . S
C4352 H4332 0.950 . S
C4352 C4351 1.414 . S
C4352 C4353 1.374 . S
C4353 H4333 0.950 . S
C4353 C4349 1.385 . S
C4353 C4352 1.374 . S
C4354 C4351 1.499 . S
C4354 C4355 1.373 . S
C4354 C4356 1.389 . S
C4355 H4334 0.950 . S
C4355 C4354 1.373 . S
C4355 C4371 1.377 . S
C4356 C4354 1.389 . S
C4356 C4357 1.524 . S
C4356 C4370 1.377 . S
C4357 C4356 1.524 . S
C4357 C4358 1.397 . S
C4357 C4362 1.363 . S
C4358 H4335 0.950 . S
C4358 C4357 1.397 . S
C4358 C4359 1.334 . S
C4359 H4336 0.950 . S
C4359 C4358 1.334 . S
C4359 C4360 1.287 . S
C4360 C4359 1.287 . S
C4360 C4361 1.524 . S
C4360 H4379 0.913 . S
C4361 H4337 0.950 . S
C4361 C4360 1.524 . S
C4361 C4362 1.415 . S
C4362 H4338 0.950 . S
C4362 C4357 1.363 . S
C4362 C4361 1.415 . S
C4363 H4339 0.951 . S
C4363 C4364 1.366 . S
C4363 C4365 1.388 . S
C4364 C4363 1.366 . S
C4364 C4368 1.385 . S
C4365 H4340 0.951 . S
C4365 C4363 1.388 . S
C4365 C4366 1.366 . S
C4366 C4365 1.366 . S
C4366 C4367 1.414 . S
C4366 C4369 1.499 . S
C4367 H4341 0.950 . S
C4367 C4366 1.414 . S
C4367 C4368 1.374 . S
C4368 H4342 0.950 . S
C4368 C4364 1.385 . S
C4368 C4367 1.374 . S
C4369 C4366 1.499 . S
C4369 C4370 1.373 . S
C4369 C4371 1.389 . S
C4370 H4343 0.950 . S
C4370 C4356 1.377 . S
C4370 C4369 1.373 . S
C4371 C4355 1.377 . S
C4371 C4369 1.389 . S
C4371 C4372 1.524 . S
C4372 C4371 1.524 . S
C4372 C4373 1.397 . S
C4372 C4377 1.363 . S
C4373 H4344 0.950 . S
C4373 C4372 1.397 . S
C4373 C4374 1.334 . S
C4374 H4345 0.950 . S
C4374 C4373 1.334 . S
C4374 C4375 1.287 . S
C4375 C4374 1.287 . S
C4375 C4376 1.524 . S
C4375 H4378 0.999 . S
C4376 H4346 0.950 . S
C4376 C4375 1.524 . S
C4376 C4377 1.415 . S
C4377 H4347 0.950 . S
C4377 C4372 1.363 . S
C4377 C4376 1.415 . S
H4378 C4375 0.999 . S
H4379 C4360 0.913 . S
H4380 C4398 0.951 . S
H4381 C4400 0.951 . S
H4382 C4402 0.950 . S
H4383 C4403 0.950 . S
H4384 C4405 0.950 . S
H4385 C4408 0.950 . S
H4386 C4409 0.950 . S
H4387 C4411 0.950 . S
H4388 C4412 0.950 . S
H4389 C4413 0.951 1_655 S
H4390 C4415 0.951 1_655 S
H4391 C4417 0.950 . S
H4392 C4418 0.950 . S
H4393 C4420 0.950 . S
H4394 C4423 0.950 . S
H4395 C4424 0.950 . S
H4396 C4426 0.950 . S
H4397 C4427 0.950 . S
C4398 H4380 0.951 . S
C4398 C4399 1.366 . S
C4398 C4400 1.388 . S
C4399 C4398 1.366 . S
C4399 C4403 1.385 1_455 S
C4400 H4381 0.951 . S
C4400 C4398 1.388 . S
C4400 C4401 1.366 . S
C4401 C4400 1.366 . S
C4401 C4402 1.414 1_455 S
C4401 C4404 1.499 . S
C4402 H4382 0.950 . S
C4402 C4401 1.414 1_655 S
C4402 C4403 1.374 . S
C4403 H4383 0.950 . S
C4403 C4399 1.385 1_655 S
C4403 C4402 1.374 . S
C4404 C4401 1.499 . S
C4404 C4405 1.373 1_455 S
C4404 C4406 1.389 . S
C4405 H4384 0.950 . S
C4405 C4404 1.373 1_655 S
C4405 C4421 1.390 . S
C4406 C4404 1.389 . S
C4406 C4407 1.524 . S
C4406 C4420 1.377 . S
C4407 C4406 1.524 . S
C4407 C4408 1.397 . S
C4407 C4412 1.363 . S
C4408 H4385 0.950 . S
C4408 C4407 1.397 . S
C4408 C4409 1.334 . S
C4409 H4386 0.950 . S
C4409 C4408 1.334 . S
C4409 C4410 1.287 . S
C4410 C4409 1.287 . S
C4410 C4411 1.524 . S
C4410 H4429 0.913 . S
C4411 H4387 0.950 . S
C4411 C4410 1.524 . S
C4411 C4412 1.415 . S
C4412 H4388 0.950 . S
C4412 C4407 1.363 . S
C4412 C4411 1.415 . S
C4413 H4389 0.951 1_455 S
C4413 C4414 1.366 . S
C4413 C4415 1.388 . S
C4414 C4413 1.366 . S
C4414 C4418 1.385 . S
C4415 H4390 0.951 1_455 S
C4415 C4413 1.388 . S
C4415 C4416 1.366 . S
C4416 C4415 1.366 . S
C4416 C4417 1.414 . S
C4416 C4419 1.499 . S
C4417 H4391 0.950 . S
C4417 C4416 1.414 . S
C4417 C4418 1.374 . S
C4418 H4392 0.950 . S
C4418 C4414 1.385 . S
C4418 C4417 1.374 . S
C4419 C4416 1.499 . S
C4419 C4420 1.373 . S
C4419 C4421 1.346 1_455 S
C4420 H4393 0.950 . S
C4420 C4406 1.377 . S
C4420 C4419 1.373 . S
C4421 C4405 1.390 . S
C4421 C4419 1.346 1_655 S
C4421 C4422 1.557 . S
C4422 C4421 1.557 . S
C4422 C4423 1.397 . S
C4422 C4427 1.363 . S
C4423 H4394 0.950 . S
C4423 C4422 1.397 . S
C4423 C4424 1.334 . S
C4424 H4395 0.950 . S
C4424 C4423 1.334 . S
C4424 C4425 1.287 . S
C4425 C4424 1.287 . S
C4425 C4426 1.524 . S
C4425 H4428 0.999 . S
C4426 H4396 0.950 . S
C4426 C4425 1.524 . S
C4426 C4427 1.415 . S
C4427 H4397 0.950 . S
C4427 C4422 1.363 . S
C4427 C4426 1.415 . S
H4428 C4425 0.999 . S
H4429 C4410 0.913 . S
H4430 C4448 0.951 . S
H4431 C4450 0.951 . S
H4432 C4452 0.950 . S
H4433 C4453 0.950 . S
H4434 C4455 0.950 . S
H4435 C4458 0.950 . S
H4436 C4459 0.950 . S
H4437 C4461 0.950 . S
H4438 C4462 0.950 . S
H4439 C4463 0.951 . S
H4440 C4465 0.951 . S
H4441 C4467 0.950 . S
H4442 C4468 0.950 . S
H4443 C4470 0.950 . S
H4444 C4473 0.950 . S
H4445 C4474 0.950 . S
H4446 C4476 0.950 . S
H4447 C4477 0.950 . S
C4448 H4430 0.951 . S
C4448 C4449 1.366 . S
C4448 C4450 1.388 . S
C4449 C4448 1.366 . S
C4449 C4453 1.385 . S
C4450 H4431 0.951 . S
C4450 C4448 1.388 . S
C4450 C4451 1.366 . S
C4451 C4450 1.366 . S
C4451 C4452 1.414 . S
C4451 C4454 1.499 . S
C4452 H4432 0.950 . S
C4452 C4451 1.414 . S
C4452 C4453 1.374 . S
C4453 H4433 0.950 . S
C4453 C4449 1.385 . S
C4453 C4452 1.374 . S
C4454 C4451 1.499 . S
C4454 C4455 1.373 . S
C4454 C4456 1.389 . S
C4455 H4434 0.950 . S
C4455 C4454 1.373 . S
C4455 C4471 1.377 . S
C4456 C4454 1.389 . S
C4456 C4457 1.524 . S
C4456 C4470 1.377 . S
C4457 C4456 1.524 . S
C4457 C4458 1.397 . S
C4457 C4462 1.363 . S
C4458 H4435 0.950 . S
C4458 C4457 1.397 . S
C4458 C4459 1.334 . S
C4459 H4436 0.950 . S
C4459 C4458 1.334 . S
C4459 C4460 1.287 . S
C4460 C4459 1.287 . S
C4460 C4461 1.524 . S
C4460 H4479 0.913 . S
C4461 H4437 0.950 . S
C4461 C4460 1.524 . S
C4461 C4462 1.415 . S
C4462 H4438 0.950 . S
C4462 C4457 1.363 . S
C4462 C4461 1.415 . S
C4463 H4439 0.951 . S
C4463 C4464 1.366 . S
C4463 C4465 1.388 . S
C4464 C4463 1.366 . S
C4464 C4468 1.385 . S
C4465 H4440 0.951 . S
C4465 C4463 1.388 . S
C4465 C4466 1.366 . S
C4466 C4465 1.366 . S
C4466 C4467 1.414 . S
C4466 C4469 1.499 . S
C4467 H4441 0.950 . S
C4467 C4466 1.414 . S
C4467 C4468 1.374 . S
C4468 H4442 0.950 . S
C4468 C4464 1.385 . S
C4468 C4467 1.374 . S
C4469 C4466 1.499 . S
C4469 C4470 1.373 . S
C4469 C4471 1.389 . S
C4470 H4443 0.950 . S
C4470 C4456 1.377 . S
C4470 C4469 1.373 . S
C4471 C4455 1.377 . S
C4471 C4469 1.389 . S
C4471 C4472 1.524 . S
C4472 C4471 1.524 . S
C4472 C4473 1.397 . S
C4472 C4477 1.363 . S
C4473 H4444 0.950 . S
C4473 C4472 1.397 . S
C4473 C4474 1.334 . S
C4474 H4445 0.950 . S
C4474 C4473 1.334 . S
C4474 C4475 1.287 . S
C4475 C4474 1.287 . S
C4475 C4476 1.524 . S
C4475 H4478 0.999 . S
C4476 H4446 0.950 . S
C4476 C4475 1.524 . S
C4476 C4477 1.415 . S
C4477 H4447 0.950 . S
C4477 C4472 1.363 . S
C4477 C4476 1.415 . S
H4478 C4475 0.999 . S
H4479 C4460 0.913 . S
H4480 C4498 0.951 . S
H4481 C4500 0.951 . S
H4482 C4502 0.950 . S
H4483 C4503 0.950 . S
H4484 C4505 0.950 . S
H4485 C4508 0.950 . S
H4486 C4509 0.950 . S
H4487 C4511 0.950 . S
H4488 C4512 0.950 . S
H4489 C4513 0.951 . S
H4490 C4515 0.951 . S
H4491 C4517 0.950 . S
H4492 C4518 0.950 . S
H4493 C4520 0.950 . S
H4494 C4523 0.950 . S
H4495 C4524 0.950 . S
H4496 C4526 0.950 . S
H4497 C4527 0.950 . S
C4498 H4480 0.951 . S
C4498 C4499 1.366 . S
C4498 C4500 1.388 . S
C4499 C4498 1.366 . S
C4499 C4503 1.385 . S
C4500 H4481 0.951 . S
C4500 C4498 1.388 . S
C4500 C4501 1.366 . S
C4501 C4500 1.366 . S
C4501 C4502 1.414 . S
C4501 C4504 1.499 . S
C4502 H4482 0.950 . S
C4502 C4501 1.414 . S
C4502 C4503 1.374 . S
C4503 H4483 0.950 . S
C4503 C4499 1.385 . S
C4503 C4502 1.374 . S
C4504 C4501 1.499 . S
C4504 C4505 1.373 . S
C4504 C4506 1.389 . S
C4505 H4484 0.950 . S
C4505 C4504 1.373 . S
C4505 C4521 1.377 . S
C4506 C4504 1.389 . S
C4506 C4507 1.524 . S
C4506 C4520 1.377 . S
C4507 C4506 1.524 . S
C4507 C4508 1.397 . S
C4507 C4512 1.363 . S
C4508 H4485 0.950 . S
C4508 C4507 1.397 . S
C4508 C4509 1.334 . S
C4509 H4486 0.950 . S
C4509 C4508 1.334 . S
C4509 C4510 1.287 . S
C4510 C4509 1.287 . S
C4510 C4511 1.524 . S
C4510 H4529 0.913 . S
C4511 H4487 0.950 . S
C4511 C4510 1.524 . S
C4511 C4512 1.415 . S
C4512 H4488 0.950 . S
C4512 C4507 1.363 . S
C4512 C4511 1.415 . S
C4513 H4489 0.951 . S
C4513 C4514 1.366 . S
C4513 C4515 1.388 . S
C4514 C4513 1.366 . S
C4514 C4518 1.385 . S
C4515 H4490 0.951 . S
C4515 C4513 1.388 . S
C4515 C4516 1.366 . S
C4516 C4515 1.366 . S
C4516 C4517 1.414 . S
C4516 C4519 1.499 . S
C4517 H4491 0.950 . S
C4517 C4516 1.414 . S
C4517 C4518 1.374 . S
C4518 H4492 0.950 . S
C4518 C4514 1.385 . S
C4518 C4517 1.374 . S
C4519 C4516 1.499 . S
C4519 C4520 1.373 . S
C4519 C4521 1.389 . S
C4520 H4493 0.950 . S
C4520 C4506 1.377 . S
C4520 C4519 1.373 . S
C4521 C4505 1.377 . S
C4521 C4519 1.389 . S
C4521 C4522 1.524 . S
C4522 C4521 1.524 . S
C4522 C4523 1.397 . S
C4522 C4527 1.363 . S
C4523 H4494 0.950 . S
C4523 C4522 1.397 . S
C4523 C4524 1.334 . S
C4524 H4495 0.950 . S
C4524 C4523 1.334 . S
C4524 C4525 1.287 . S
C4525 C4524 1.287 . S
C4525 C4526 1.524 . S
C4525 H4528 0.999 . S
C4526 H4496 0.950 . S
C4526 C4525 1.524 . S
C4526 C4527 1.415 . S
C4527 H4497 0.950 . S
C4527 C4522 1.363 . S
C4527 C4526 1.415 . S
H4528 C4525 0.999 . S
H4529 C4510 0.913 . S
H4530 C4548 0.951 . S
H4531 C4550 0.951 . S
H4532 C4552 0.950 . S
H4533 C4553 0.984 . S
H4534 C4555 0.950 . S
H4535 C4558 0.950 . S
H4536 C4559 0.950 . S
H4537 C4561 0.950 . S
H4538 C4562 0.950 . S
H4539 C4563 0.951 . S
H4540 C4565 0.951 . S
H4541 C4567 0.950 . S
H4542 C4568 0.950 . S
H4543 C4570 0.950 . S
H4544 C4573 0.950 . S
H4545 C4574 0.950 . S
H4546 C4576 0.950 . S
H4547 C4577 0.950 . S
C4548 H4530 0.951 . S
C4548 C4549 1.366 . S
C4548 C4550 1.388 . S
C4549 C4548 1.366 . S
C4549 C4553 1.385 . S
C4550 H4531 0.951 . S
C4550 C4548 1.388 . S
C4550 C4551 1.366 . S
C4551 C4550 1.366 . S
C4551 C4552 1.414 . S
C4551 C4554 1.499 . S
C4552 H4532 0.950 . S
C4552 C4551 1.414 . S
C4552 C4553 1.374 . S
C4553 H4533 0.984 . S
C4553 C4549 1.385 . S
C4553 C4552 1.374 . S
C4554 C4551 1.499 . S
C4554 C4555 1.373 . S
C4554 C4556 1.389 . S
C4555 H4534 0.950 . S
C4555 C4554 1.373 . S
C4555 C4571 1.377 . S
C4556 C4554 1.389 . S
C4556 C4557 1.524 . S
C4556 C4570 1.377 . S
C4557 C4556 1.524 . S
C4557 C4558 1.397 . S
C4557 C4562 1.363 . S
C4558 H4535 0.950 . S
C4558 C4557 1.397 . S
C4558 C4559 1.334 . S
C4559 H4536 0.950 . S
C4559 C4558 1.334 . S
C4559 C4560 1.287 . S
C4560 C4559 1.287 . S
C4560 C4561 1.524 . S
C4560 H4579 0.913 . S
C4561 H4537 0.950 . S
C4561 C4560 1.524 . S
C4561 C4562 1.415 . S
C4562 H4538 0.950 . S
C4562 C4557 1.363 . S
C4562 C4561 1.415 . S
C4563 H4539 0.951 . S
C4563 C4564 1.366 . S
C4563 C4565 1.388 . S
C4564 C4563 1.366 . S
C4564 C4568 1.385 . S
C4565 H4540 0.951 . S
C4565 C4563 1.388 . S
C4565 C4566 1.366 . S
C4566 C4565 1.366 . S
C4566 C4567 1.414 . S
C4566 C4569 1.499 . S
C4567 H4541 0.950 . S
C4567 C4566 1.414 . S
C4567 C4568 1.374 . S
C4568 H4542 0.950 . S
C4568 C4564 1.385 . S
C4568 C4567 1.374 . S
C4569 C4566 1.499 . S
C4569 C4570 1.373 . S
C4569 C4571 1.389 . S
C4570 H4543 0.950 . S
C4570 C4556 1.377 . S
C4570 C4569 1.373 . S
C4571 C4555 1.377 . S
C4571 C4569 1.389 . S
C4571 C4572 1.524 . S
C4572 C4571 1.524 . S
C4572 C4573 1.397 . S
C4572 C4577 1.363 . S
C4573 H4544 0.950 . S
C4573 C4572 1.397 . S
C4573 C4574 1.334 . S
C4574 H4545 0.950 . S
C4574 C4573 1.334 . S
C4574 C4575 1.287 . S
C4575 C4574 1.287 . S
C4575 C4576 1.524 . S
C4575 H4578 0.999 . S
C4576 H4546 0.950 . S
C4576 C4575 1.524 . S
C4576 C4577 1.415 . S
C4577 H4547 0.950 . S
C4577 C4572 1.363 . S
C4577 C4576 1.415 . S
H4578 C4575 0.999 . S
H4579 C4560 0.913 . S
H4580 C4598 0.951 . S
H4581 C4600 0.951 . S
H4582 C4602 0.950 . S
H4583 C4603 0.950 . S
H4584 C4605 0.950 . S
H4585 C4608 0.950 . S
H4586 C4609 0.950 . S
H4587 C4611 0.950 . S
H4588 C4612 0.950 . S
H4589 C4613 0.951 . S
H4590 C4615 0.951 . S
H4591 C4617 0.950 . S
H4592 C4618 0.950 . S
H4593 C4620 0.950 . S
H4594 C4623 0.950 . S
H4595 C4624 0.950 . S
H4596 C4626 0.950 . S
H4597 C4627 0.950 . S
C4598 H4580 0.951 . S
C4598 C4599 1.366 . S
C4598 C4600 1.388 . S
C4599 C4598 1.366 . S
C4599 C4603 1.385 . S
C4600 H4581 0.951 . S
C4600 C4598 1.388 . S
C4600 C4601 1.366 . S
C4601 C4600 1.366 . S
C4601 C4602 1.414 . S
C4601 C4604 1.499 . S
C4602 H4582 0.950 . S
C4602 C4601 1.414 . S
C4602 C4603 1.374 . S
C4603 H4583 0.950 . S
C4603 C4599 1.385 . S
C4603 C4602 1.374 . S
C4604 C4601 1.499 . S
C4604 C4605 1.373 . S
C4604 C4606 1.389 . S
C4605 H4584 0.950 . S
C4605 C4604 1.373 . S
C4605 C4621 1.377 . S
C4606 C4604 1.389 . S
C4606 C4607 1.524 . S
C4606 C4620 1.377 . S
C4607 C4606 1.524 . S
C4607 C4608 1.397 . S
C4607 C4612 1.363 . S
C4608 H4585 0.950 . S
C4608 C4607 1.397 . S
C4608 C4609 1.334 . S
C4609 H4586 0.950 . S
C4609 C4608 1.334 . S
C4609 C4610 1.287 . S
C4610 C4609 1.287 . S
C4610 C4611 1.524 . S
C4610 H4629 0.913 . S
C4611 H4587 0.950 . S
C4611 C4610 1.524 . S
C4611 C4612 1.415 . S
C4612 H4588 0.950 . S
C4612 C4607 1.363 . S
C4612 C4611 1.415 . S
C4613 H4589 0.951 . S
C4613 C4614 1.366 . S
C4613 C4615 1.388 . S
C4614 C4613 1.366 . S
C4614 C4618 1.385 . S
C4615 H4590 0.951 . S
C4615 C4613 1.388 . S
C4615 C4616 1.366 . S
C4616 C4615 1.366 . S
C4616 C4617 1.414 . S
C4616 C4619 1.499 . S
C4617 H4591 0.950 . S
C4617 C4616 1.414 . S
C4617 C4618 1.374 . S
C4618 H4592 0.950 . S
C4618 C4614 1.385 . S
C4618 C4617 1.374 . S
C4619 C4616 1.499 . S
C4619 C4620 1.373 . S
C4619 C4621 1.389 . S
C4620 H4593 0.950 . S
C4620 C4606 1.377 . S
C4620 C4619 1.373 . S
C4621 C4605 1.377 . S
C4621 C4619 1.389 . S
C4621 C4622 1.524 . S
C4622 C4621 1.524 . S
C4622 C4623 1.397 . S
C4622 C4627 1.363 . S
C4623 H4594 0.950 . S
C4623 C4622 1.397 . S
C4623 C4624 1.334 . S
C4624 H4595 0.950 . S
C4624 C4623 1.334 . S
C4624 C4625 1.287 . S
C4625 C4624 1.287 . S
C4625 C4626 1.524 . S
C4625 H4628 0.999 . S
C4626 H4596 0.950 . S
C4626 C4625 1.524 . S
C4626 C4627 1.415 . S
C4627 H4597 0.950 . S
C4627 C4622 1.363 . S
C4627 C4626 1.415 . S
H4628 C4625 0.999 . S
H4629 C4610 0.913 . S
H4630 C4648 0.951 . S
H4631 C4650 0.951 . S
H4632 C4652 0.950 . S
H4633 C4653 0.950 . S
H4634 C4655 0.950 . S
H4635 C4658 0.950 . S
H4636 C4659 0.950 . S
H4637 C4661 0.950 . S
H4638 C4662 0.950 . S
H4639 C4663 0.951 . S
H4640 C4665 0.951 . S
H4641 C4667 0.950 . S
H4642 C4668 0.950 . S
H4643 C4670 0.950 . S
H4644 C4673 0.950 . S
H4645 C4674 0.950 . S
H4646 C4676 0.950 . S
H4647 C4677 0.950 . S
C4648 H4630 0.951 . S
C4648 C4649 1.366 . S
C4648 C4650 1.388 . S
C4649 C4648 1.366 . S
C4649 C4653 1.385 . S
C4650 H4631 0.951 . S
C4650 C4648 1.388 . S
C4650 C4651 1.366 . S
C4651 C4650 1.366 . S
C4651 C4652 1.414 . S
C4651 C4654 1.499 . S
C4652 H4632 0.950 . S
C4652 C4651 1.414 . S
C4652 C4653 1.374 . S
C4653 H4633 0.950 . S
C4653 C4649 1.385 . S
C4653 C4652 1.374 . S
C4654 C4651 1.499 . S
C4654 C4655 1.373 . S
C4654 C4656 1.389 . S
C4655 H4634 0.950 . S
C4655 C4654 1.373 . S
C4655 C4671 1.377 . S
C4656 C4654 1.389 . S
C4656 C4657 1.524 . S
C4656 C4670 1.377 . S
C4657 C4656 1.524 . S
C4657 C4658 1.397 . S
C4657 C4662 1.363 . S
C4658 H4635 0.950 . S
C4658 C4657 1.397 . S
C4658 C4659 1.334 . S
C4659 H4636 0.950 . S
C4659 C4658 1.334 . S
C4659 C4660 1.287 . S
C4660 C4659 1.287 . S
C4660 C4661 1.524 . S
C4660 H4679 0.913 . S
C4661 H4637 0.950 . S
C4661 C4660 1.524 . S
C4661 C4662 1.415 . S
C4662 H4638 0.950 . S
C4662 C4657 1.363 . S
C4662 C4661 1.415 . S
C4663 H4639 0.951 . S
C4663 C4664 1.366 . S
C4663 C4665 1.388 . S
C4664 C4663 1.366 . S
C4664 C4668 1.385 . S
C4665 H4640 0.951 . S
C4665 C4663 1.388 . S
C4665 C4666 1.366 . S
C4666 C4665 1.366 . S
C4666 C4667 1.414 . S
C4666 C4669 1.499 . S
C4667 H4641 0.950 . S
C4667 C4666 1.414 . S
C4667 C4668 1.374 . S
C4668 H4642 0.950 . S
C4668 C4664 1.385 . S
C4668 C4667 1.374 . S
C4669 C4666 1.499 . S
C4669 C4670 1.373 . S
C4669 C4671 1.389 . S
C4670 H4643 0.950 . S
C4670 C4656 1.377 . S
C4670 C4669 1.373 . S
C4671 C4655 1.377 . S
C4671 C4669 1.389 . S
C4671 C4672 1.524 . S
C4672 C4671 1.524 . S
C4672 C4673 1.397 . S
C4672 C4677 1.363 . S
C4673 H4644 0.950 . S
C4673 C4672 1.397 . S
C4673 C4674 1.334 . S
C4674 H4645 0.950 . S
C4674 C4673 1.334 . S
C4674 C4675 1.287 . S
C4675 C4674 1.287 . S
C4675 C4676 1.524 . S
C4675 H4678 0.999 . S
C4676 H4646 0.950 . S
C4676 C4675 1.524 . S
C4676 C4677 1.415 . S
C4677 H4647 0.950 . S
C4677 C4672 1.363 . S
C4677 C4676 1.415 . S
H4678 C4675 0.999 . S
H4679 C4660 0.913 . S
H4680 C4698 0.951 . S
H4681 C4700 0.951 . S
H4682 C4702 0.950 . S
H4683 C4703 0.950 . S
H4684 C4705 0.950 . S
H4685 C4708 0.950 . S
H4686 C4709 0.950 . S
H4687 C4711 0.950 . S
H4688 C4712 0.950 . S
H4689 C4713 0.951 . S
H4690 C4715 0.951 . S
H4691 C4717 0.950 . S
H4692 C4718 0.950 . S
H4693 C4720 0.950 . S
H4694 C4723 0.950 . S
H4695 C4724 0.950 . S
H4696 C4726 0.950 . S
H4697 C4727 0.950 . S
C4698 H4680 0.951 . S
C4698 C4699 1.366 . S
C4698 C4700 1.388 . S
C4699 C4698 1.366 . S
C4699 C4703 1.385 . S
C4700 H4681 0.951 . S
C4700 C4698 1.388 . S
C4700 C4701 1.366 . S
C4701 C4700 1.366 . S
C4701 C4702 1.414 . S
C4701 C4704 1.499 . S
C4702 H4682 0.950 . S
C4702 C4701 1.414 . S
C4702 C4703 1.374 . S
C4703 H4683 0.950 . S
C4703 C4699 1.385 . S
C4703 C4702 1.374 . S
C4704 C4701 1.499 . S
C4704 C4705 1.373 . S
C4704 C4706 1.389 . S
C4705 H4684 0.950 . S
C4705 C4704 1.373 . S
C4705 C4721 1.377 . S
C4706 C4704 1.389 . S
C4706 C4707 1.524 . S
C4706 C4720 1.377 . S
C4707 C4706 1.524 . S
C4707 C4708 1.397 . S
C4707 C4712 1.363 . S
C4708 H4685 0.950 . S
C4708 C4707 1.397 . S
C4708 C4709 1.334 . S
C4709 H4686 0.950 . S
C4709 C4708 1.334 . S
C4709 C4710 1.287 . S
C4710 C4709 1.287 . S
C4710 C4711 1.524 . S
C4710 H4729 0.913 . S
C4711 H4687 0.950 . S
C4711 C4710 1.524 . S
C4711 C4712 1.415 . S
C4712 H4688 0.950 . S
C4712 C4707 1.363 . S
C4712 C4711 1.415 . S
C4713 H4689 0.951 . S
C4713 C4714 1.366 . S
C4713 C4715 1.388 . S
C4714 C4713 1.366 . S
C4714 C4718 1.385 . S
C4715 H4690 0.951 . S
C4715 C4713 1.388 . S
C4715 C4716 1.366 . S
C4716 C4715 1.366 . S
C4716 C4717 1.414 . S
C4716 C4719 1.499 . S
C4717 H4691 0.950 . S
C4717 C4716 1.414 . S
C4717 C4718 1.374 . S
C4718 H4692 0.950 . S
C4718 C4714 1.385 . S
C4718 C4717 1.374 . S
C4719 C4716 1.499 . S
C4719 C4720 1.373 . S
C4719 C4721 1.389 . S
C4720 H4693 0.950 . S
C4720 C4706 1.377 . S
C4720 C4719 1.373 . S
C4721 C4705 1.377 . S
C4721 C4719 1.389 . S
C4721 C4722 1.524 . S
C4722 C4721 1.524 . S
C4722 C4723 1.397 . S
C4722 C4727 1.363 . S
C4723 H4694 0.950 . S
C4723 C4722 1.397 . S
C4723 C4724 1.334 . S
C4724 H4695 0.950 . S
C4724 C4723 1.334 . S
C4724 C4725 1.287 . S
C4725 C4724 1.287 . S
C4725 C4726 1.524 . S
C4725 H4728 0.999 . S
C4726 H4696 0.950 . S
C4726 C4725 1.524 . S
C4726 C4727 1.415 . S
C4727 H4697 0.950 . S
C4727 C4722 1.363 . S
C4727 C4726 1.415 . S
H4728 C4725 0.999 . S
H4729 C4710 0.913 . S
H4730 C4748 0.951 . S
H4731 C4750 0.951 . S
H4732 C4752 0.950 . S
H4733 C4753 0.950 . S
H4734 C4755 0.950 . S
H4735 C4758 0.950 . S
H4736 C4759 0.950 . S
H4737 C4761 0.950 . S
H4738 C4762 0.950 . S
H4739 C4763 0.951 . S
H4740 C4765 0.951 . S
H4741 C4767 0.950 . S
H4742 C4768 0.950 . S
H4743 C4770 0.950 . S
H4744 C4773 0.950 . S
H4745 C4774 0.950 . S
H4746 C4776 0.950 . S
H4747 C4777 0.950 . S
C4748 H4730 0.951 . S
C4748 C4749 1.366 . S
C4748 C4750 1.388 . S
C4749 C4748 1.366 . S
C4749 C4753 1.385 . S
C4750 H4731 0.951 . S
C4750 C4748 1.388 . S
C4750 C4751 1.366 . S
C4751 C4750 1.366 . S
C4751 C4752 1.414 . S
C4751 C4754 1.499 . S
C4752 H4732 0.950 . S
C4752 C4751 1.414 . S
C4752 C4753 1.374 . S
C4753 H4733 0.950 . S
C4753 C4749 1.385 . S
C4753 C4752 1.374 . S
C4754 C4751 1.499 . S
C4754 C4755 1.373 . S
C4754 C4756 1.389 . S
C4755 H4734 0.950 . S
C4755 C4754 1.373 . S
C4755 C4771 1.377 . S
C4756 C4754 1.389 . S
C4756 C4757 1.524 . S
C4756 C4770 1.377 . S
C4757 C4756 1.524 . S
C4757 C4758 1.397 . S
C4757 C4762 1.363 . S
C4758 H4735 0.950 . S
C4758 C4757 1.397 . S
C4758 C4759 1.334 . S
C4759 H4736 0.950 . S
C4759 C4758 1.334 . S
C4759 C4760 1.287 . S
C4760 C4759 1.287 . S
C4760 C4761 1.524 . S
C4760 H4779 0.913 . S
C4761 H4737 0.950 . S
C4761 C4760 1.524 . S
C4761 C4762 1.415 . S
C4762 H4738 0.950 . S
C4762 C4757 1.363 . S
C4762 C4761 1.415 . S
C4763 H4739 0.951 . S
C4763 C4764 1.366 . S
C4763 C4765 1.388 . S
C4764 C4763 1.366 . S
C4764 C4768 1.385 . S
C4765 H4740 0.951 . S
C4765 C4763 1.388 . S
C4765 C4766 1.366 . S
C4766 C4765 1.366 . S
C4766 C4767 1.414 . S
C4766 C4769 1.499 . S
C4767 H4741 0.950 . S
C4767 C4766 1.414 . S
C4767 C4768 1.374 . S
C4768 H4742 0.950 . S
C4768 C4764 1.385 . S
C4768 C4767 1.374 . S
C4769 C4766 1.499 . S
C4769 C4770 1.373 . S
C4769 C4771 1.389 . S
C4770 H4743 0.950 . S
C4770 C4756 1.377 . S
C4770 C4769 1.373 . S
C4771 C4755 1.377 . S
C4771 C4769 1.389 . S
C4771 C4772 1.524 . S
C4772 C4771 1.524 . S
C4772 C4773 1.397 . S
C4772 C4777 1.363 . S
C4773 H4744 0.950 . S
C4773 C4772 1.397 . S
C4773 C4774 1.334 . S
C4774 H4745 0.950 . S
C4774 C4773 1.334 . S
C4774 C4775 1.287 . S
C4775 C4774 1.287 . S
C4775 C4776 1.524 . S
C4775 H4778 0.999 . S
C4776 H4746 0.950 . S
C4776 C4775 1.524 . S
C4776 C4777 1.415 . S
C4777 H4747 0.950 . S
C4777 C4772 1.363 . S
C4777 C4776 1.415 . S
H4778 C4775 0.999 . S
H4779 C4760 0.913 . S
H4780 C4798 0.951 . S
H4781 C4800 0.951 . S
H4782 C4802 0.950 . S
H4783 C4803 0.950 . S
H4784 C4805 0.950 . S
H4785 C4808 0.950 . S
H4786 C4809 0.950 . S
H4787 C4811 0.950 . S
H4788 C4812 0.950 . S
H4789 C4813 0.951 . S
H4790 C4815 0.951 . S
H4791 C4817 0.950 . S
H4792 C4818 0.950 . S
H4793 C4820 0.950 . S
H4794 C4823 0.950 . S
H4795 C4824 0.950 . S
H4796 C4826 0.950 . S
H4797 C4827 0.950 . S
C4798 H4780 0.951 . S
C4798 C4799 1.366 . S
C4798 C4800 1.388 . S
C4799 C4798 1.366 . S
C4799 C4803 1.385 . S
C4800 H4781 0.951 . S
C4800 C4798 1.388 . S
C4800 C4801 1.366 . S
C4801 C4800 1.366 . S
C4801 C4802 1.414 . S
C4801 C4804 1.499 . S
C4802 H4782 0.950 . S
C4802 C4801 1.414 . S
C4802 C4803 1.374 . S
C4803 H4783 0.950 . S
C4803 C4799 1.385 . S
C4803 C4802 1.374 . S
C4804 C4801 1.499 . S
C4804 C4805 1.373 . S
C4804 C4806 1.389 . S
C4805 H4784 0.950 . S
C4805 C4804 1.373 . S
C4805 C4821 1.377 . S
C4806 C4804 1.389 . S
C4806 C4807 1.524 . S
C4806 C4820 1.377 . S
C4807 C4806 1.524 . S
C4807 C4808 1.397 . S
C4807 C4812 1.363 . S
C4808 H4785 0.950 . S
C4808 C4807 1.397 . S
C4808 C4809 1.334 . S
C4809 H4786 0.950 . S
C4809 C4808 1.334 . S
C4809 C4810 1.287 . S
C4810 C4809 1.287 . S
C4810 C4811 1.524 . S
C4810 H4829 0.913 . S
C4811 H4787 0.950 . S
C4811 C4810 1.524 . S
C4811 C4812 1.415 . S
C4812 H4788 0.950 . S
C4812 C4807 1.363 . S
C4812 C4811 1.415 . S
C4813 H4789 0.951 . S
C4813 C4814 1.366 . S
C4813 C4815 1.388 . S
C4814 C4813 1.366 . S
C4814 C4818 1.385 . S
C4815 H4790 0.951 . S
C4815 C4813 1.388 . S
C4815 C4816 1.366 . S
C4816 C4815 1.366 . S
C4816 C4817 1.414 . S
C4816 C4819 1.499 . S
C4817 H4791 0.950 . S
C4817 C4816 1.414 . S
C4817 C4818 1.374 . S
C4818 H4792 0.950 . S
C4818 C4814 1.385 . S
C4818 C4817 1.374 . S
C4819 C4816 1.499 . S
C4819 C4820 1.373 . S
C4819 C4821 1.389 . S
C4820 H4793 0.950 . S
C4820 C4806 1.377 . S
C4820 C4819 1.373 . S
C4821 C4805 1.377 . S
C4821 C4819 1.389 . S
C4821 C4822 1.524 . S
C4822 C4821 1.524 . S
C4822 C4823 1.397 . S
C4822 C4827 1.363 . S
C4823 H4794 0.950 . S
C4823 C4822 1.397 . S
C4823 C4824 1.334 . S
C4824 H4795 0.950 . S
C4824 C4823 1.334 . S
C4824 C4825 1.287 . S
C4825 C4824 1.287 . S
C4825 C4826 1.524 . S
C4825 H4828 0.999 . S
C4826 H4796 0.950 . S
C4826 C4825 1.524 . S
C4826 C4827 1.415 . S
C4827 H4797 0.950 . S
C4827 C4822 1.363 . S
C4827 C4826 1.415 . S
H4828 C4825 0.999 . S
H4829 C4810 0.913 . S
H4830 C4848 0.951 . S
H4831 C4850 0.951 . S
H4832 C4852 0.950 . S
H4833 C4853 0.950 . S
H4834 C4855 0.950 . S
H4835 C4858 0.950 . S
H4836 C4859 0.950 . S
H4837 C4861 0.950 . S
H4838 C4862 0.950 . S
H4839 C4863 0.951 . S
H4840 C4865 0.951 . S
H4841 C4867 0.950 . S
H4842 C4868 0.950 . S
H4843 C4870 0.950 . S
H4844 C4873 0.950 . S
H4845 C4874 0.950 . S
H4846 C4876 0.950 . S
H4847 C4877 0.950 . S
C4848 H4830 0.951 . S
C4848 C4849 1.366 . S
C4848 C4850 1.388 . S
C4849 C4848 1.366 . S
C4849 C4853 1.385 . S
C4850 H4831 0.951 . S
C4850 C4848 1.388 . S
C4850 C4851 1.366 . S
C4851 C4850 1.366 . S
C4851 C4852 1.414 . S
C4851 C4854 1.499 . S
C4852 H4832 0.950 . S
C4852 C4851 1.414 . S
C4852 C4853 1.374 . S
C4853 H4833 0.950 . S
C4853 C4849 1.385 . S
C4853 C4852 1.374 . S
C4854 C4851 1.499 . S
C4854 C4855 1.373 . S
C4854 C4856 1.389 . S
C4855 H4834 0.950 . S
C4855 C4854 1.373 . S
C4855 C4871 1.377 . S
C4856 C4854 1.389 . S
C4856 C4857 1.524 . S
C4856 C4870 1.377 . S
C4857 C4856 1.524 . S
C4857 C4858 1.397 . S
C4857 C4862 1.363 . S
C4858 H4835 0.950 . S
C4858 C4857 1.397 . S
C4858 C4859 1.334 . S
C4859 H4836 0.950 . S
C4859 C4858 1.334 . S
C4859 C4860 1.287 . S
C4860 C4859 1.287 . S
C4860 C4861 1.524 . S
C4860 H4879 0.913 . S
C4861 H4837 0.950 . S
C4861 C4860 1.524 . S
C4861 C4862 1.415 . S
C4862 H4838 0.950 . S
C4862 C4857 1.363 . S
C4862 C4861 1.415 . S
C4863 H4839 0.951 . S
C4863 C4864 1.366 . S
C4863 C4865 1.388 . S
C4864 C4863 1.366 . S
C4864 C4868 1.385 . S
C4865 H4840 0.951 . S
C4865 C4863 1.388 . S
C4865 C4866 1.366 . S
C4866 C4865 1.366 . S
C4866 C4867 1.414 . S
C4866 C4869 1.499 . S
C4867 H4841 0.950 . S
C4867 C4866 1.414 . S
C4867 C4868 1.374 . S
C4868 H4842 0.950 . S
C4868 C4864 1.385 . S
C4868 C4867 1.374 . S
C4869 C4866 1.499 . S
C4869 C4870 1.373 . S
C4869 C4871 1.389 . S
C4870 H4843 0.950 . S
C4870 C4856 1.377 . S
C4870 C4869 1.373 . S
C4871 C4855 1.377 . S
C4871 C4869 1.389 . S
C4871 C4872 1.524 . S
C4872 C4871 1.524 . S
C4872 C4873 1.397 . S
C4872 C4877 1.363 . S
C4873 H4844 0.950 . S
C4873 C4872 1.397 . S
C4873 C4874 1.334 . S
C4874 H4845 0.950 . S
C4874 C4873 1.334 . S
C4874 C4875 1.287 . S
C4875 C4874 1.287 . S
C4875 C4876 1.524 . S
C4875 H4878 0.999 . S
C4876 H4846 0.950 . S
C4876 C4875 1.524 . S
C4876 C4877 1.415 . S
C4877 H4847 0.950 . S
C4877 C4872 1.363 . S
C4877 C4876 1.415 . S
H4878 C4875 0.999 . S
H4879 C4860 0.913 . S
H4880 C4898 0.951 . S
H4881 C4900 0.951 . S
H4882 C4902 0.950 . S
H4883 C4903 0.950 . S
H4884 C4905 0.950 . S
H4885 C4908 0.950 . S
H4886 C4909 0.950 . S
H4887 C4911 0.950 . S
H4888 C4912 0.950 . S
H4889 C4913 0.951 . S
H4890 C4915 0.951 . S
H4891 C4917 0.950 . S
H4892 C4918 0.950 . S
H4893 C4920 0.950 . S
H4894 C4923 0.950 . S
H4895 C4924 0.950 . S
H4896 C4926 0.950 . S
H4897 C4927 0.950 . S
C4898 H4880 0.951 . S
C4898 C4899 1.366 . S
C4898 C4900 1.388 . S
C4899 C4898 1.366 . S
C4899 C4903 1.385 . S
C4900 H4881 0.951 . S
C4900 C4898 1.388 . S
C4900 C4901 1.366 . S
C4901 C4900 1.366 . S
C4901 C4902 1.414 . S
C4901 C4904 1.499 . S
C4902 H4882 0.950 . S
C4902 C4901 1.414 . S
C4902 C4903 1.374 . S
C4903 H4883 0.950 . S
C4903 C4899 1.385 . S
C4903 C4902 1.374 . S
C4904 C4901 1.499 . S
C4904 C4905 1.373 . S
C4904 C4906 1.389 . S
C4905 H4884 0.950 . S
C4905 C4904 1.373 . S
C4905 C4921 1.377 . S
C4906 C4904 1.389 . S
C4906 C4907 1.524 . S
C4906 C4920 1.377 . S
C4907 C4906 1.524 . S
C4907 C4908 1.397 . S
C4907 C4912 1.363 . S
C4908 H4885 0.950 . S
C4908 C4907 1.397 . S
C4908 C4909 1.334 . S
C4909 H4886 0.950 . S
C4909 C4908 1.334 . S
C4909 C4910 1.287 . S
C4910 C4909 1.287 . S
C4910 C4911 1.524 . S
C4910 H4929 0.913 . S
C4911 H4887 0.950 . S
C4911 C4910 1.524 . S
C4911 C4912 1.415 . S
C4912 H4888 0.950 . S
C4912 C4907 1.363 . S
C4912 C4911 1.415 . S
C4913 H4889 0.951 . S
C4913 C4914 1.366 . S
C4913 C4915 1.388 . S
C4914 C4913 1.366 . S
C4914 C4918 1.385 . S
C4915 H4890 0.951 . S
C4915 C4913 1.388 . S
C4915 C4916 1.366 . S
C4916 C4915 1.366 . S
C4916 C4917 1.414 . S
C4916 C4919 1.499 . S
C4917 H4891 0.950 . S
C4917 C4916 1.414 . S
C4917 C4918 1.374 . S
C4918 H4892 0.950 . S
C4918 C4914 1.385 . S
C4918 C4917 1.374 . S
C4919 C4916 1.499 . S
C4919 C4920 1.373 . S
C4919 C4921 1.389 . S
C4920 H4893 0.950 . S
C4920 C4906 1.377 . S
C4920 C4919 1.373 . S
C4921 C4905 1.377 . S
C4921 C4919 1.389 . S
C4921 C4922 1.524 . S
C4922 C4921 1.524 . S
C4922 C4923 1.397 . S
C4922 C4927 1.363 . S
C4923 H4894 0.950 . S
C4923 C4922 1.397 . S
C4923 C4924 1.334 . S
C4924 H4895 0.950 . S
C4924 C4923 1.334 . S
C4924 C4925 1.287 . S
C4925 C4924 1.287 . S
C4925 C4926 1.524 . S
C4925 H4928 0.999 . S
C4926 H4896 0.950 . S
C4926 C4925 1.524 . S
C4926 C4927 1.415 . S
C4927 H4897 0.950 . S
C4927 C4922 1.363 . S
C4927 C4926 1.415 . S
H4928 C4925 0.999 . S
H4929 C4910 0.913 . S
H4930 C4948 0.951 . S
H4931 C4950 0.951 . S
H4932 C4952 0.950 . S
H4933 C4953 0.950 . S
H4934 C4955 0.950 . S
H4935 C4958 0.950 . S
H4936 C4959 0.950 . S
H4937 C4961 0.950 . S
H4938 C4962 0.950 . S
H4939 C4963 0.951 . S
H4940 C4965 0.951 . S
H4941 C4967 0.950 . S
H4942 C4968 0.950 . S
H4943 C4970 0.950 . S
H4944 C4973 0.950 . S
H4945 C4974 0.950 . S
H4946 C4976 0.950 . S
H4947 C4977 0.950 . S
C4948 H4930 0.951 . S
C4948 C4949 1.366 . S
C4948 C4950 1.388 . S
C4949 C4948 1.366 . S
C4949 C4953 1.385 . S
C4950 H4931 0.951 . S
C4950 C4948 1.388 . S
C4950 C4951 1.366 . S
C4951 C4950 1.366 . S
C4951 C4952 1.414 . S
C4951 C4954 1.499 . S
C4952 H4932 0.950 . S
C4952 C4951 1.414 . S
C4952 C4953 1.374 . S
C4953 H4933 0.950 . S
C4953 C4949 1.385 . S
C4953 C4952 1.374 . S
C4954 C4951 1.499 . S
C4954 C4955 1.373 . S
C4954 C4956 1.389 . S
C4955 H4934 0.950 . S
C4955 C4954 1.373 . S
C4955 C4971 1.377 . S
C4956 C4954 1.389 . S
C4956 C4957 1.524 . S
C4956 C4970 1.377 . S
C4957 C4956 1.524 . S
C4957 C4958 1.397 . S
C4957 C4962 1.363 . S
C4958 H4935 0.950 . S
C4958 C4957 1.397 . S
C4958 C4959 1.334 . S
C4959 H4936 0.950 . S
C4959 C4958 1.334 . S
C4959 C4960 1.287 . S
C4960 C4959 1.287 . S
C4960 C4961 1.524 . S
C4960 H4979 0.913 . S
C4961 H4937 0.950 . S
C4961 C4960 1.524 . S
C4961 C4962 1.415 . S
C4962 H4938 0.950 . S
C4962 C4957 1.363 . S
C4962 C4961 1.415 . S
C4963 H4939 0.951 . S
C4963 C4964 1.366 . S
C4963 C4965 1.388 . S
C4964 C4963 1.366 . S
C4964 C4968 1.385 . S
C4965 H4940 0.951 . S
C4965 C4963 1.388 . S
C4965 C4966 1.366 . S
C4966 C4965 1.366 . S
C4966 C4967 1.414 . S
C4966 C4969 1.499 . S
C4967 H4941 0.950 . S
C4967 C4966 1.414 . S
C4967 C4968 1.374 . S
C4968 H4942 0.950 . S
C4968 C4964 1.385 . S
C4968 C4967 1.374 . S
C4969 C4966 1.499 . S
C4969 C4970 1.373 . S
C4969 C4971 1.389 . S
C4970 H4943 0.950 . S
C4970 C4956 1.377 . S
C4970 C4969 1.373 . S
C4971 C4955 1.377 . S
C4971 C4969 1.389 . S
C4971 C4972 1.524 . S
C4972 C4971 1.524 . S
C4972 C4973 1.397 . S
C4972 C4977 1.363 . S
C4973 H4944 0.950 . S
C4973 C4972 1.397 . S
C4973 C4974 1.334 . S
C4974 H4945 0.950 . S
C4974 C4973 1.334 . S
C4974 C4975 1.287 . S
C4975 C4974 1.287 . S
C4975 C4976 1.524 . S
C4975 H4978 0.999 . S
C4976 H4946 0.950 . S
C4976 C4975 1.524 . S
C4976 C4977 1.415 . S
C4977 H4947 0.950 . S
C4977 C4972 1.363 . S
C4977 C4976 1.415 . S
H4978 C4975 0.999 . S
H4979 C4960 0.913 . S
H4980 C4998 0.951 . S
H4981 C5000 0.951 . S
H4982 C5002 0.950 . S
H4983 C5003 0.950 . S
H4984 C5005 0.950 . S
H4985 C5008 0.950 . S
H4986 C5009 0.950 . S
H4987 C5011 0.950 . S
H4988 C5012 0.950 . S
H4989 C5013 0.951 . S
H4990 C5015 0.951 . S
H4991 C5017 0.950 . S
H4992 C5018 0.950 . S
H4993 C5020 0.950 . S
H4994 C5023 0.950 . S
H4995 C5024 0.950 . S
H4996 C5026 0.950 . S
H4997 C5027 0.950 . S
C4998 H4980 0.951 . S
C4998 C4999 1.366 . S
C4998 C5000 1.388 . S
C4999 C4998 1.366 . S
C4999 C5003 1.385 . S
C5000 H4981 0.951 . S
C5000 C4998 1.388 . S
C5000 C5001 1.366 . S
C5001 C5000 1.366 . S
C5001 C5002 1.414 . S
C5001 C5004 1.499 . S
C5002 H4982 0.950 . S
C5002 C5001 1.414 . S
C5002 C5003 1.374 . S
C5003 H4983 0.950 . S
C5003 C4999 1.385 . S
C5003 C5002 1.374 . S
C5004 C5001 1.499 . S
C5004 C5005 1.373 . S
C5004 C5006 1.389 . S
C5005 H4984 0.950 . S
C5005 C5004 1.373 . S
C5005 C5021 1.377 . S
C5006 C5004 1.389 . S
C5006 C5007 1.524 . S
C5006 C5020 1.377 . S
C5007 C5006 1.524 . S
C5007 C5008 1.397 . S
C5007 C5012 1.363 . S
C5008 H4985 0.950 . S
C5008 C5007 1.397 . S
C5008 C5009 1.334 . S
C5009 H4986 0.950 . S
C5009 C5008 1.334 . S
C5009 C5010 1.287 . S
C5010 C5009 1.287 . S
C5010 C5011 1.524 . S
C5010 H5029 0.913 . S
C5011 H4987 0.950 . S
C5011 C5010 1.524 . S
C5011 C5012 1.415 . S
C5012 H4988 0.950 . S
C5012 C5007 1.363 . S
C5012 C5011 1.415 . S
C5013 H4989 0.951 . S
C5013 C5014 1.366 . S
C5013 C5015 1.388 . S
C5014 C5013 1.366 . S
C5014 C5018 1.385 . S
C5015 H4990 0.951 . S
C5015 C5013 1.388 . S
C5015 C5016 1.366 . S
C5016 C5015 1.366 . S
C5016 C5017 1.414 . S
C5016 C5019 1.499 . S
C5017 H4991 0.950 . S
C5017 C5016 1.414 . S
C5017 C5018 1.374 . S
C5018 H4992 0.950 . S
C5018 C5014 1.385 . S
C5018 C5017 1.374 . S
C5019 C5016 1.499 . S
C5019 C5020 1.373 . S
C5019 C5021 1.389 . S
C5020 H4993 0.950 . S
C5020 C5006 1.377 . S
C5020 C5019 1.373 . S
C5021 C5005 1.377 . S
C5021 C5019 1.389 . S
C5021 C5022 1.524 . S
C5022 C5021 1.524 . S
C5022 C5023 1.397 . S
C5022 C5027 1.363 . S
C5023 H4994 0.950 . S
C5023 C5022 1.397 . S
C5023 C5024 1.334 . S
C5024 H4995 0.950 . S
C5024 C5023 1.334 . S
C5024 C5025 1.287 . S
C5025 C5024 1.287 . S
C5025 C5026 1.524 . S
C5025 H5028 0.999 . S
C5026 H4996 0.950 . S
C5026 C5025 1.524 . S
C5026 C5027 1.415 . S
C5027 H4997 0.950 . S
C5027 C5022 1.363 . S
C5027 C5026 1.415 . S
H5028 C5025 0.999 . S
H5029 C5010 0.913 . S
H5030 C5048 0.951 . S
H5031 C5050 0.951 . S
H5032 C5052 0.957 . S
H5033 C5053 0.950 1_556 S
H5034 C5055 0.950 . S
H5035 C5058 0.950 . S
H5036 C5059 0.950 . S
H5037 C5061 0.950 . S
H5038 C5062 0.950 . S
H5039 C5063 0.951 . S
H5040 C5065 0.951 . S
H5041 C5067 0.950 . S
H5042 C5068 0.950 . S
H5043 C5070 0.947 . S
H5044 C5073 0.950 . S
H5045 C5074 0.950 . S
H5046 C5076 0.950 . S
H5047 C5077 0.950 . S
C5048 H5030 0.951 . S
C5048 C5049 1.366 . S
C5048 C5050 1.388 . S
C5049 C5048 1.366 . S
C5049 C5053 1.388 . S
C5050 H5031 0.951 . S
C5050 C5048 1.388 . S
C5050 C5051 1.366 . S
C5051 C5050 1.366 . S
C5051 C5052 1.414 . S
C5051 C5054 1.499 . S
C5052 H5032 0.957 . S
C5052 C5051 1.414 . S
C5052 C5053 1.372 . S
C5053 H5033 0.950 1_554 S
C5053 C5049 1.388 . S
C5053 C5052 1.372 . S
C5054 C5051 1.499 . S
C5054 C5055 1.373 . S
C5054 C5056 1.389 1_554 S
C5055 H5034 0.950 . S
C5055 C5054 1.373 . S
C5055 C5071 1.377 . S
C5056 C5054 1.389 1_556 S
C5056 C5057 1.524 . S
C5056 C5070 1.377 . S
C5057 C5056 1.524 . S
C5057 C5058 1.397 . S
C5057 C5062 1.363 1_565 S
C5058 H5035 0.950 . S
C5058 C5057 1.397 . S
C5058 C5059 1.334 . S
C5059 H5036 0.950 . S
C5059 C5058 1.334 . S
C5059 C5060 1.287 . S
C5060 C5059 1.287 . S
C5060 C5061 1.524 1_565 S
C5060 H5079 0.913 . S
C5061 H5037 0.950 . S
C5061 C5060 1.524 1_545 S
C5061 C5062 1.415 . S
C5062 H5038 0.950 . S
C5062 C5057 1.363 1_545 S
C5062 C5061 1.415 . S
C5063 H5039 0.951 . S
C5063 C5064 1.366 1_565 S
C5063 C5065 1.388 . S
C5064 C5063 1.366 1_545 S
C5064 C5068 1.385 . S
C5065 H5040 0.951 . S
C5065 C5063 1.388 . S
C5065 C5066 1.366 . S
C5066 C5065 1.366 . S
C5066 C5067 1.414 1_565 S
C5066 C5069 1.499 . S
C5067 H5041 0.950 . S
C5067 C5066 1.414 1_545 S
C5067 C5068 1.374 . S
C5068 H5042 0.950 . S
C5068 C5064 1.385 . S
C5068 C5067 1.374 . S
C5069 C5066 1.499 . S
C5069 C5070 1.377 1_554 S
C5069 C5071 1.389 . S
C5070 H5043 0.947 . S
C5070 C5056 1.377 . S
C5070 C5069 1.377 1_556 S
C5071 C5055 1.377 . S
C5071 C5069 1.389 . S
C5071 C5072 1.524 . S
C5072 C5071 1.524 . S
C5072 C5073 1.397 . S
C5072 C5077 1.363 . S
C5073 H5044 0.950 . S
C5073 C5072 1.397 . S
C5073 C5074 1.334 . S
C5074 H5045 0.950 . S
C5074 C5073 1.334 . S
C5074 C5075 1.287 . S
C5075 C5074 1.287 . S
C5075 C5076 1.524 . S
C5075 H5078 0.999 . S
C5076 H5046 0.950 . S
C5076 C5075 1.524 . S
C5076 C5077 1.415 . S
C5077 H5047 0.950 . S
C5077 C5072 1.363 . S
C5077 C5076 1.415 . S
H5078 C5075 0.999 . S
H5079 C5060 0.913 . S
H5080 C5098 0.951 . S
H5081 C5100 0.951 . S
H5082 C5102 0.950 . S
H5083 C5103 0.950 . S
H5084 C5105 0.950 . S
H5085 C5108 0.950 . S
H5086 C5109 0.950 . S
H5087 C5111 0.950 . S
H5088 C5112 0.950 . S
H5089 C5113 0.951 . S
H5090 C5115 0.951 . S
H5091 C5117 0.950 . S
H5092 C5118 0.950 . S
H5093 C5120 0.950 . S
H5094 C5123 0.950 . S
H5095 C5124 0.950 . S
H5096 C5126 0.950 . S
H5097 C5127 0.950 . S
C5098 H5080 0.951 . S
C5098 C5099 1.366 . S
C5098 C5100 1.388 . S
C5099 C5098 1.366 . S
C5099 C5103 1.385 . S
C5100 H5081 0.951 . S
C5100 C5098 1.388 . S
C5100 C5101 1.366 . S
C5101 C5100 1.366 . S
C5101 C5102 1.414 . S
C5101 C5104 1.499 . S
C5102 H5082 0.950 . S
C5102 C5101 1.414 . S
C5102 C5103 1.374 . S
C5103 H5083 0.950 . S
C5103 C5099 1.385 . S
C5103 C5102 1.374 . S
C5104 C5101 1.499 . S
C5104 C5105 1.373 . S
C5104 C5106 1.389 . S
C5105 H5084 0.950 . S
C5105 C5104 1.373 . S
C5105 C5121 1.377 . S
C5106 C5104 1.389 . S
C5106 C5107 1.524 . S
C5106 C5120 1.377 . S
C5107 C5106 1.524 . S
C5107 C5108 1.397 . S
C5107 C5112 1.363 . S
C5108 H5085 0.950 . S
C5108 C5107 1.397 . S
C5108 C5109 1.334 . S
C5109 H5086 0.950 . S
C5109 C5108 1.334 . S
C5109 C5110 1.287 . S
C5110 C5109 1.287 . S
C5110 C5111 1.524 . S
C5110 H5129 0.913 . S
C5111 H5087 0.950 . S
C5111 C5110 1.524 . S
C5111 C5112 1.415 . S
C5112 H5088 0.950 . S
C5112 C5107 1.363 . S
C5112 C5111 1.415 . S
C5113 H5089 0.951 . S
C5113 C5114 1.366 . S
C5113 C5115 1.388 . S
C5114 C5113 1.366 . S
C5114 C5118 1.385 . S
C5115 H5090 0.951 . S
C5115 C5113 1.388 . S
C5115 C5116 1.366 . S
C5116 C5115 1.366 . S
C5116 C5117 1.414 . S
C5116 C5119 1.499 . S
C5117 H5091 0.950 . S
C5117 C5116 1.414 . S
C5117 C5118 1.374 . S
C5118 H5092 0.950 . S
C5118 C5114 1.385 . S
C5118 C5117 1.374 . S
C5119 C5116 1.499 . S
C5119 C5120 1.373 . S
C5119 C5121 1.389 . S
C5120 H5093 0.950 . S
C5120 C5106 1.377 . S
C5120 C5119 1.373 . S
C5121 C5105 1.377 . S
C5121 C5119 1.389 . S
C5121 C5122 1.524 . S
C5122 C5121 1.524 . S
C5122 C5123 1.397 . S
C5122 C5127 1.363 . S
C5123 H5094 0.950 . S
C5123 C5122 1.397 . S
C5123 C5124 1.334 . S
C5124 H5095 0.950 . S
C5124 C5123 1.334 . S
C5124 C5125 1.287 . S
C5125 C5124 1.287 . S
C5125 C5126 1.524 . S
C5125 H5128 0.999 . S
C5126 H5096 0.950 . S
C5126 C5125 1.524 . S
C5126 C5127 1.415 . S
C5127 H5097 0.950 . S
C5127 C5122 1.363 . S
C5127 C5126 1.415 . S
H5128 C5125 0.999 . S
H5129 C5110 0.913 . S
H5130 C5148 0.930 1_556 S
H5131 C5150 0.951 1_556 S
H5132 C5152 0.950 . S
H5133 C5153 0.950 . S
H5134 C5155 0.950 . S
H5135 C5158 0.950 . S
H5136 C5159 0.950 . S
H5137 C5161 0.950 . S
H5138 C5162 0.950 . S
H5139 C5163 0.951 . S
H5140 C5165 0.951 . S
H5141 C5167 0.950 . S
H5142 C5168 0.950 . S
H5143 C5170 0.950 . S
H5144 C5173 0.950 . S
H5145 C5174 0.950 . S
H5146 C5176 0.950 . S
H5147 C5177 0.950 . S
C5148 H5130 0.930 1_554 S
C5148 C5149 1.383 . S
C5148 C5150 1.393 . S
C5149 C5148 1.383 . S
C5149 C5153 1.385 . S
C5150 H5131 0.951 1_554 S
C5150 C5148 1.393 . S
C5150 C5151 1.366 . S
C5151 C5150 1.366 . S
C5151 C5152 1.414 . S
C5151 C5154 1.499 . S
C5152 H5132 0.950 . S
C5152 C5151 1.414 . S
C5152 C5153 1.374 . S
C5153 H5133 0.950 . S
C5153 C5149 1.385 . S
C5153 C5152 1.374 . S
C5154 C5151 1.499 . S
C5154 C5155 1.373 . S
C5154 C5156 1.389 . S
C5155 H5134 0.950 . S
C5155 C5154 1.373 . S
C5155 C5171 1.377 . S
C5156 C5154 1.389 . S
C5156 C5157 1.524 . S
C5156 C5170 1.377 . S
C5157 C5156 1.524 . S
C5157 C5158 1.397 . S
C5157 C5162 1.363 . S
C5158 H5135 0.950 . S
C5158 C5157 1.397 . S
C5158 C5159 1.334 . S
C5159 H5136 0.950 . S
C5159 C5158 1.334 . S
C5159 C5160 1.287 . S
C5160 C5159 1.287 . S
C5160 C5161 1.524 . S
C5160 H5179 0.913 . S
C5161 H5137 0.950 . S
C5161 C5160 1.524 . S
C5161 C5162 1.415 . S
C5162 H5138 0.950 . S
C5162 C5157 1.363 . S
C5162 C5161 1.415 . S
C5163 H5139 0.951 . S
C5163 C5164 1.366 . S
C5163 C5165 1.388 . S
C5164 C5163 1.366 . S
C5164 C5168 1.385 . S
C5165 H5140 0.951 . S
C5165 C5163 1.388 . S
C5165 C5166 1.366 . S
C5166 C5165 1.366 . S
C5166 C5167 1.414 . S
C5166 C5169 1.499 . S
C5167 H5141 0.950 . S
C5167 C5166 1.414 . S
C5167 C5168 1.374 . S
C5168 H5142 0.950 . S
C5168 C5164 1.385 . S
C5168 C5167 1.374 . S
C5169 C5166 1.499 . S
C5169 C5170 1.373 . S
C5169 C5171 1.389 . S
C5170 H5143 0.950 . S
C5170 C5156 1.377 . S
C5170 C5169 1.373 . S
C5171 C5155 1.377 . S
C5171 C5169 1.389 . S
C5171 C5172 1.524 . S
C5172 C5171 1.524 . S
C5172 C5173 1.397 1_554 S
C5172 C5177 1.363 . S
C5173 H5144 0.950 . S
C5173 C5172 1.397 1_556 S
C5173 C5174 1.334 . S
C5174 H5145 0.950 . S
C5174 C5173 1.334 . S
C5174 C5175 1.296 . S
C5175 C5174 1.296 . S
C5175 C5176 1.503 1_556 S
C5175 H5178 1.010 . S
C5176 H5146 0.950 . S
C5176 C5175 1.503 1_554 S
C5176 C5177 1.415 . S
C5177 H5147 0.950 . S
C5177 C5172 1.363 . S
C5177 C5176 1.415 . S
H5178 C5175 1.010 . S
H5179 C5160 0.913 . S
H5180 C5198 0.951 . S
H5181 C5200 0.951 . S
H5182 C5202 0.950 . S
H5183 C5203 0.950 . S
H5184 C5205 0.950 . S
H5185 C5208 0.950 . S
H5186 C5209 0.950 . S
H5187 C5211 0.950 . S
H5188 C5212 0.950 . S
H5189 C5213 0.951 . S
H5190 C5215 0.951 . S
H5191 C5217 0.950 . S
H5192 C5218 0.950 . S
H5193 C5220 0.950 . S
H5194 C5223 0.950 . S
H5195 C5224 0.950 . S
H5196 C5226 0.950 . S
H5197 C5227 0.950 . S
C5198 H5180 0.951 . S
C5198 C5199 1.366 . S
C5198 C5200 1.388 . S
C5199 C5198 1.366 . S
C5199 C5203 1.385 . S
C5200 H5181 0.951 . S
C5200 C5198 1.388 . S
C5200 C5201 1.366 . S
C5201 C5200 1.366 . S
C5201 C5202 1.414 . S
C5201 C5204 1.499 . S
C5202 H5182 0.950 . S
C5202 C5201 1.414 . S
C5202 C5203 1.374 . S
C5203 H5183 0.950 . S
C5203 C5199 1.385 . S
C5203 C5202 1.374 . S
C5204 C5201 1.499 . S
C5204 C5205 1.373 . S
C5204 C5206 1.389 . S
C5205 H5184 0.950 . S
C5205 C5204 1.373 . S
C5205 C5221 1.377 . S
C5206 C5204 1.389 . S
C5206 C5207 1.524 . S
C5206 C5220 1.377 . S
C5207 C5206 1.524 . S
C5207 C5208 1.397 . S
C5207 C5212 1.363 . S
C5208 H5185 0.950 . S
C5208 C5207 1.397 . S
C5208 C5209 1.334 . S
C5209 H5186 0.950 . S
C5209 C5208 1.334 . S
C5209 C5210 1.287 . S
C5210 C5209 1.287 . S
C5210 C5211 1.524 . S
C5210 H5229 0.913 . S
C5211 H5187 0.950 . S
C5211 C5210 1.524 . S
C5211 C5212 1.415 . S
C5212 H5188 0.950 . S
C5212 C5207 1.363 . S
C5212 C5211 1.415 . S
C5213 H5189 0.951 . S
C5213 C5214 1.366 . S
C5213 C5215 1.388 . S
C5214 C5213 1.366 . S
C5214 C5218 1.385 . S
C5215 H5190 0.951 . S
C5215 C5213 1.388 . S
C5215 C5216 1.366 . S
C5216 C5215 1.366 . S
C5216 C5217 1.414 . S
C5216 C5219 1.499 . S
C5217 H5191 0.950 . S
C5217 C5216 1.414 . S
C5217 C5218 1.374 . S
C5218 H5192 0.950 . S
C5218 C5214 1.385 . S
C5218 C5217 1.374 . S
C5219 C5216 1.499 . S
C5219 C5220 1.373 . S
C5219 C5221 1.389 . S
C5220 H5193 0.950 . S
C5220 C5206 1.377 . S
C5220 C5219 1.373 . S
C5221 C5205 1.377 . S
C5221 C5219 1.389 . S
C5221 C5222 1.524 . S
C5222 C5221 1.524 . S
C5222 C5223 1.397 . S
C5222 C5227 1.363 . S
C5223 H5194 0.950 . S
C5223 C5222 1.397 . S
C5223 C5224 1.334 . S
C5224 H5195 0.950 . S
C5224 C5223 1.334 . S
C5224 C5225 1.287 . S
C5225 C5224 1.287 . S
C5225 C5226 1.524 . S
C5225 H5228 0.999 . S
C5226 H5196 0.950 . S
C5226 C5225 1.524 . S
C5226 C5227 1.415 . S
C5227 H5197 0.950 . S
C5227 C5222 1.363 . S
C5227 C5226 1.415 . S
H5228 C5225 0.999 . S
H5229 C5210 0.913 . S
H5230 C5248 0.951 . S
H5231 C5250 0.951 . S
H5232 C5252 0.950 . S
H5233 C5253 0.950 . S
H5234 C5255 0.950 . S
H5235 C5258 0.950 . S
H5236 C5259 0.950 . S
H5237 C5261 0.950 . S
H5238 C5262 0.950 . S
H5239 C5263 0.951 . S
H5240 C5265 0.951 . S
H5241 C5267 0.950 . S
H5242 C5268 0.950 . S
H5243 C5270 0.950 . S
H5244 C5273 0.950 . S
H5245 C5274 0.950 . S
H5246 C5276 0.950 . S
H5247 C5277 0.950 . S
C5248 H5230 0.951 . S
C5248 C5249 1.366 . S
C5248 C5250 1.388 . S
C5249 C5248 1.366 . S
C5249 C5253 1.385 . S
C5250 H5231 0.951 . S
C5250 C5248 1.388 . S
C5250 C5251 1.366 . S
C5251 C5250 1.366 . S
C5251 C5252 1.414 . S
C5251 C5254 1.499 . S
C5252 H5232 0.950 . S
C5252 C5251 1.414 . S
C5252 C5253 1.374 . S
C5253 H5233 0.950 . S
C5253 C5249 1.385 . S
C5253 C5252 1.374 . S
C5254 C5251 1.499 . S
C5254 C5255 1.373 . S
C5254 C5256 1.389 . S
C5255 H5234 0.950 . S
C5255 C5254 1.373 . S
C5255 C5271 1.377 . S
C5256 C5254 1.389 . S
C5256 C5257 1.524 . S
C5256 C5270 1.377 . S
C5257 C5256 1.524 . S
C5257 C5258 1.397 . S
C5257 C5262 1.363 . S
C5258 H5235 0.950 . S
C5258 C5257 1.397 . S
C5258 C5259 1.334 . S
C5259 H5236 0.950 . S
C5259 C5258 1.334 . S
C5259 C5260 1.287 . S
C5260 C5259 1.287 . S
C5260 C5261 1.524 . S
C5260 H5279 0.913 . S
C5261 H5237 0.950 . S
C5261 C5260 1.524 . S
C5261 C5262 1.415 . S
C5262 H5238 0.950 . S
C5262 C5257 1.363 . S
C5262 C5261 1.415 . S
C5263 H5239 0.951 . S
C5263 C5264 1.366 . S
C5263 C5265 1.388 . S
C5264 C5263 1.366 . S
C5264 C5268 1.385 . S
C5265 H5240 0.951 . S
C5265 C5263 1.388 . S
C5265 C5266 1.366 . S
C5266 C5265 1.366 . S
C5266 C5267 1.414 . S
C5266 C5269 1.499 . S
C5267 H5241 0.950 . S
C5267 C5266 1.414 . S
C5267 C5268 1.374 . S
C5268 H5242 0.950 . S
C5268 C5264 1.385 . S
C5268 C5267 1.374 . S
C5269 C5266 1.499 . S
C5269 C5270 1.373 . S
C5269 C5271 1.389 . S
C5270 H5243 0.950 . S
C5270 C5256 1.377 . S
C5270 C5269 1.373 . S
C5271 C5255 1.377 . S
C5271 C5269 1.389 . S
C5271 C5272 1.524 . S
C5272 C5271 1.524 . S
C5272 C5273 1.397 . S
C5272 C5277 1.363 . S
C5273 H5244 0.950 . S
C5273 C5272 1.397 . S
C5273 C5274 1.334 . S
C5274 H5245 0.950 . S
C5274 C5273 1.334 . S
C5274 C5275 1.287 . S
C5275 C5274 1.287 . S
C5275 C5276 1.524 . S
C5275 H5278 0.999 . S
C5276 H5246 0.950 . S
C5276 C5275 1.524 . S
C5276 C5277 1.415 . S
C5277 H5247 0.950 . S
C5277 C5272 1.363 . S
C5277 C5276 1.415 . S
H5278 C5275 0.999 . S
H5279 C5260 0.913 . S
H5280 C5298 0.951 . S
H5281 C5300 0.951 . S
H5282 C5302 0.950 . S
H5283 C5303 0.950 . S
H5284 C5305 0.950 . S
H5285 C5308 0.950 . S
H5286 C5309 0.950 . S
H5287 C5311 0.950 . S
H5288 C5312 0.950 . S
H5289 C5313 0.951 . S
H5290 C5315 0.951 . S
H5291 C5317 0.950 . S
H5292 C5318 0.950 . S
H5293 C5320 0.950 . S
H5294 C5323 0.950 . S
H5295 C5324 0.950 . S
H5296 C5326 0.950 . S
H5297 C5327 0.950 . S
C5298 H5280 0.951 . S
C5298 C5299 1.366 . S
C5298 C5300 1.388 . S
C5299 C5298 1.366 . S
C5299 C5303 1.385 . S
C5300 H5281 0.951 . S
C5300 C5298 1.388 . S
C5300 C5301 1.366 . S
C5301 C5300 1.366 . S
C5301 C5302 1.414 . S
C5301 C5304 1.499 . S
C5302 H5282 0.950 . S
C5302 C5301 1.414 . S
C5302 C5303 1.374 . S
C5303 H5283 0.950 . S
C5303 C5299 1.385 . S
C5303 C5302 1.374 . S
C5304 C5301 1.499 . S
C5304 C5305 1.373 . S
C5304 C5306 1.389 . S
C5305 H5284 0.950 . S
C5305 C5304 1.373 . S
C5305 C5321 1.377 . S
C5306 C5304 1.389 . S
C5306 C5307 1.524 . S
C5306 C5320 1.377 . S
C5307 C5306 1.524 . S
C5307 C5308 1.397 . S
C5307 C5312 1.363 . S
C5308 H5285 0.950 . S
C5308 C5307 1.397 . S
C5308 C5309 1.334 . S
C5309 H5286 0.950 . S
C5309 C5308 1.334 . S
C5309 C5310 1.287 . S
C5310 C5309 1.287 . S
C5310 C5311 1.524 . S
C5310 H5329 0.913 . S
C5311 H5287 0.950 . S
C5311 C5310 1.524 . S
C5311 C5312 1.415 . S
C5312 H5288 0.950 . S
C5312 C5307 1.363 . S
C5312 C5311 1.415 . S
C5313 H5289 0.951 . S
C5313 C5314 1.366 . S
C5313 C5315 1.388 . S
C5314 C5313 1.366 . S
C5314 C5318 1.385 . S
C5315 H5290 0.951 . S
C5315 C5313 1.388 . S
C5315 C5316 1.366 . S
C5316 C5315 1.366 . S
C5316 C5317 1.414 . S
C5316 C5319 1.499 . S
C5317 H5291 0.950 . S
C5317 C5316 1.414 . S
C5317 C5318 1.374 . S
C5318 H5292 0.950 . S
C5318 C5314 1.385 . S
C5318 C5317 1.374 . S
C5319 C5316 1.499 . S
C5319 C5320 1.373 . S
C5319 C5321 1.389 . S
C5320 H5293 0.950 . S
C5320 C5306 1.377 . S
C5320 C5319 1.373 . S
C5321 C5305 1.377 . S
C5321 C5319 1.389 . S
C5321 C5322 1.524 . S
C5322 C5321 1.524 . S
C5322 C5323 1.397 . S
C5322 C5327 1.363 . S
C5323 H5294 0.950 . S
C5323 C5322 1.397 . S
C5323 C5324 1.334 . S
C5324 H5295 0.950 . S
C5324 C5323 1.334 . S
C5324 C5325 1.287 . S
C5325 C5324 1.287 . S
C5325 C5326 1.524 . S
C5325 H5328 0.999 . S
C5326 H5296 0.950 . S
C5326 C5325 1.524 . S
C5326 C5327 1.415 . S
C5327 H5297 0.950 . S
C5327 C5322 1.363 . S
C5327 C5326 1.415 . S
H5328 C5325 0.999 . S
H5329 C5310 0.913 . S
H5330 C5348 0.951 . S
H5331 C5350 0.951 . S
H5332 C5352 0.950 . S
H5333 C5353 0.950 . S
H5334 C5355 0.950 . S
H5335 C5358 0.950 . S
H5336 C5359 0.950 . S
H5337 C5361 0.950 . S
H5338 C5362 0.950 . S
H5339 C5363 0.951 . S
H5340 C5365 0.951 . S
H5341 C5367 0.950 . S
H5342 C5368 0.950 . S
H5343 C5370 0.950 . S
H5344 C5373 0.950 . S
H5345 C5374 0.950 . S
H5346 C5376 0.950 . S
H5347 C5377 0.950 . S
C5348 H5330 0.951 . S
C5348 C5349 1.366 . S
C5348 C5350 1.388 . S
C5349 C5348 1.366 . S
C5349 C5353 1.385 . S
C5350 H5331 0.951 . S
C5350 C5348 1.388 . S
C5350 C5351 1.366 . S
C5351 C5350 1.366 . S
C5351 C5352 1.414 . S
C5351 C5354 1.499 . S
C5352 H5332 0.950 . S
C5352 C5351 1.414 . S
C5352 C5353 1.374 . S
C5353 H5333 0.950 . S
C5353 C5349 1.385 . S
C5353 C5352 1.374 . S
C5354 C5351 1.499 . S
C5354 C5355 1.373 . S
C5354 C5356 1.389 . S
C5355 H5334 0.950 . S
C5355 C5354 1.373 . S
C5355 C5371 1.377 . S
C5356 C5354 1.389 . S
C5356 C5357 1.524 . S
C5356 C5370 1.377 . S
C5357 C5356 1.524 . S
C5357 C5358 1.397 . S
C5357 C5362 1.363 . S
C5358 H5335 0.950 . S
C5358 C5357 1.397 . S
C5358 C5359 1.334 . S
C5359 H5336 0.950 . S
C5359 C5358 1.334 . S
C5359 C5360 1.287 . S
C5360 C5359 1.287 . S
C5360 C5361 1.524 . S
C5360 H5379 0.913 . S
C5361 H5337 0.950 . S
C5361 C5360 1.524 . S
C5361 C5362 1.415 . S
C5362 H5338 0.950 . S
C5362 C5357 1.363 . S
C5362 C5361 1.415 . S
C5363 H5339 0.951 . S
C5363 C5364 1.366 . S
C5363 C5365 1.388 . S
C5364 C5363 1.366 . S
C5364 C5368 1.385 . S
C5365 H5340 0.951 . S
C5365 C5363 1.388 . S
C5365 C5366 1.366 . S
C5366 C5365 1.366 . S
C5366 C5367 1.414 . S
C5366 C5369 1.499 . S
C5367 H5341 0.950 . S
C5367 C5366 1.414 . S
C5367 C5368 1.374 . S
C5368 H5342 0.950 . S
C5368 C5364 1.385 . S
C5368 C5367 1.374 . S
C5369 C5366 1.499 . S
C5369 C5370 1.373 . S
C5369 C5371 1.389 . S
C5370 H5343 0.950 . S
C5370 C5356 1.377 . S
C5370 C5369 1.373 . S
C5371 C5355 1.377 . S
C5371 C5369 1.389 . S
C5371 C5372 1.524 . S
C5372 C5371 1.524 . S
C5372 C5373 1.397 . S
C5372 C5377 1.363 . S
C5373 H5344 0.950 . S
C5373 C5372 1.397 . S
C5373 C5374 1.334 . S
C5374 H5345 0.950 . S
C5374 C5373 1.334 . S
C5374 C5375 1.287 . S
C5375 C5374 1.287 . S
C5375 C5376 1.524 . S
C5375 H5378 0.999 . S
C5376 H5346 0.950 . S
C5376 C5375 1.524 . S
C5376 C5377 1.415 . S
C5377 H5347 0.950 . S
C5377 C5372 1.363 . S
C5377 C5376 1.415 . S
H5378 C5375 0.999 . S
H5379 C5360 0.913 . S
H5380 C5398 0.951 . S
H5381 C5400 0.951 . S
H5382 C5402 0.950 . S
H5383 C5403 0.950 . S
H5384 C5405 0.950 . S
H5385 C5408 0.950 . S
H5386 C5409 0.950 . S
H5387 C5411 0.950 . S
H5388 C5412 0.950 . S
H5389 C5413 0.951 . S
H5390 C5415 0.951 . S
H5391 C5417 0.950 . S
H5392 C5418 0.950 . S
H5393 C5420 0.950 . S
H5394 C5423 0.950 . S
H5395 C5424 0.950 . S
H5396 C5426 0.950 . S
H5397 C5427 0.950 1_455 S
C5398 H5380 0.951 . S
C5398 C5399 1.366 . S
C5398 C5400 1.388 . S
C5399 C5398 1.366 . S
C5399 C5403 1.385 . S
C5400 H5381 0.951 . S
C5400 C5398 1.388 . S
C5400 C5401 1.366 . S
C5401 C5400 1.366 . S
C5401 C5402 1.414 . S
C5401 C5404 1.499 . S
C5402 H5382 0.950 . S
C5402 C5401 1.414 . S
C5402 C5403 1.374 . S
C5403 H5383 0.950 . S
C5403 C5399 1.385 . S
C5403 C5402 1.374 . S
C5404 C5401 1.499 . S
C5404 C5405 1.373 . S
C5404 C5406 1.389 . S
C5405 H5384 0.950 . S
C5405 C5404 1.373 . S
C5405 C5421 1.377 . S
C5406 C5404 1.389 . S
C5406 C5407 1.524 . S
C5406 C5420 1.377 . S
C5407 C5406 1.524 . S
C5407 C5408 1.397 . S
C5407 C5412 1.363 . S
C5408 H5385 0.950 . S
C5408 C5407 1.397 . S
C5408 C5409 1.334 . S
C5409 H5386 0.950 . S
C5409 C5408 1.334 . S
C5409 C5410 1.287 . S
C5410 C5409 1.287 . S
C5410 C5411 1.524 . S
C5410 H5429 0.913 . S
C5411 H5387 0.950 . S
C5411 C5410 1.524 . S
C5411 C5412 1.415 . S
C5412 H5388 0.950 . S
C5412 C5407 1.363 . S
C5412 C5411 1.415 . S
C5413 H5389 0.951 . S
C5413 C5414 1.366 . S
C5413 C5415 1.388 . S
C5414 C5413 1.366 . S
C5414 C5418 1.385 . S
C5415 H5390 0.951 . S
C5415 C5413 1.388 . S
C5415 C5416 1.366 . S
C5416 C5415 1.366 . S
C5416 C5417 1.414 . S
C5416 C5419 1.499 . S
C5417 H5391 0.950 . S
C5417 C5416 1.414 . S
C5417 C5418 1.374 . S
C5418 H5392 0.950 . S
C5418 C5414 1.385 . S
C5418 C5417 1.374 . S
C5419 C5416 1.499 . S
C5419 C5420 1.373 . S
C5419 C5421 1.389 . S
C5420 H5393 0.950 . S
C5420 C5406 1.377 . S
C5420 C5419 1.373 . S
C5421 C5405 1.377 . S
C5421 C5419 1.389 . S
C5421 C5422 1.524 . S
C5422 C5421 1.524 . S
C5422 C5423 1.397 1_455 S
C5422 C5427 1.363 1_455 S
C5423 H5394 0.950 . S
C5423 C5422 1.397 1_655 S
C5423 C5424 1.334 . S
C5424 H5395 0.950 . S
C5424 C5423 1.334 . S
C5424 C5425 1.287 . S
C5425 C5424 1.287 . S
C5425 C5426 1.524 . S
C5425 H5428 0.999 . S
C5426 H5396 0.950 . S
C5426 C5425 1.524 . S
C5426 C5427 1.415 . S
C5427 H5397 0.950 1_655 S
C5427 C5422 1.363 1_655 S
C5427 C5426 1.415 . S
H5428 C5425 0.999 . S
H5429 C5410 0.913 . S
H5430 C5448 0.951 . S
H5431 C5450 0.951 . S
H5432 C5452 0.950 . S
H5433 C5453 0.950 . S
H5434 C5455 0.950 . S
H5435 C5458 0.950 . S
H5436 C5459 0.950 . S
H5437 C5461 0.950 . S
H5438 C5462 0.950 . S
H5439 C5463 0.951 . S
H5440 C5465 0.951 . S
H5441 C5467 0.950 . S
H5442 C5468 0.950 . S
H5443 C5470 0.950 . S
H5444 C5473 0.950 . S
H5445 C5474 0.950 . S
H5446 C5476 0.950 . S
H5447 C5477 0.950 . S
C5448 H5430 0.951 . S
C5448 C5449 1.366 . S
C5448 C5450 1.388 . S
C5449 C5448 1.366 . S
C5449 C5453 1.385 . S
C5450 H5431 0.951 . S
C5450 C5448 1.388 . S
C5450 C5451 1.366 . S
C5451 C5450 1.366 . S
C5451 C5452 1.414 . S
C5451 C5454 1.499 . S
C5452 H5432 0.950 . S
C5452 C5451 1.414 . S
C5452 C5453 1.374 . S
C5453 H5433 0.950 . S
C5453 C5449 1.385 . S
C5453 C5452 1.374 . S
C5454 C5451 1.499 . S
C5454 C5455 1.373 . S
C5454 C5456 1.389 . S
C5455 H5434 0.950 . S
C5455 C5454 1.373 . S
C5455 C5471 1.377 . S
C5456 C5454 1.389 . S
C5456 C5457 1.524 . S
C5456 C5470 1.377 . S
C5457 C5456 1.524 . S
C5457 C5458 1.397 . S
C5457 C5462 1.363 . S
C5458 H5435 0.950 . S
C5458 C5457 1.397 . S
C5458 C5459 1.334 . S
C5459 H5436 0.950 . S
C5459 C5458 1.334 . S
C5459 C5460 1.287 . S
C5460 C5459 1.287 . S
C5460 C5461 1.524 . S
C5460 H5479 0.913 . S
C5461 H5437 0.950 . S
C5461 C5460 1.524 . S
C5461 C5462 1.415 . S
C5462 H5438 0.950 . S
C5462 C5457 1.363 . S
C5462 C5461 1.415 . S
C5463 H5439 0.951 . S
C5463 C5464 1.366 . S
C5463 C5465 1.388 . S
C5464 C5463 1.366 . S
C5464 C5468 1.385 . S
C5465 H5440 0.951 . S
C5465 C5463 1.388 . S
C5465 C5466 1.366 . S
C5466 C5465 1.366 . S
C5466 C5467 1.414 . S
C5466 C5469 1.499 . S
C5467 H5441 0.950 . S
C5467 C5466 1.414 . S
C5467 C5468 1.374 . S
C5468 H5442 0.950 . S
C5468 C5464 1.385 . S
C5468 C5467 1.374 . S
C5469 C5466 1.499 . S
C5469 C5470 1.373 . S
C5469 C5471 1.389 . S
C5470 H5443 0.950 . S
C5470 C5456 1.377 . S
C5470 C5469 1.373 . S
C5471 C5455 1.377 . S
C5471 C5469 1.389 . S
C5471 C5472 1.524 . S
C5472 C5471 1.524 . S
C5472 C5473 1.397 . S
C5472 C5477 1.363 . S
C5473 H5444 0.950 . S
C5473 C5472 1.397 . S
C5473 C5474 1.334 . S
C5474 H5445 0.950 . S
C5474 C5473 1.334 . S
C5474 C5475 1.287 . S
C5475 C5474 1.287 . S
C5475 C5476 1.524 . S
C5475 H5478 0.999 . S
C5476 H5446 0.950 . S
C5476 C5475 1.524 . S
C5476 C5477 1.415 . S
C5477 H5447 0.950 . S
C5477 C5472 1.363 . S
C5477 C5476 1.415 . S
H5478 C5475 0.999 . S
H5479 C5460 0.913 . S
H5480 C5498 0.951 . S
H5481 C5500 0.951 . S
H5482 C5502 0.950 . S
H5483 C5503 0.950 . S
H5484 C5505 0.950 . S
H5485 C5508 0.950 . S
H5486 C5509 0.950 . S
H5487 C5511 0.950 . S
H5488 C5512 0.950 . S
H5489 C5513 0.951 . S
H5490 C5515 0.951 . S
H5491 C5517 0.950 . S
H5492 C5518 0.950 . S
H5493 C5520 0.950 . S
H5494 C5523 0.950 . S
H5495 C5524 0.950 . S
H5496 C5526 0.950 . S
H5497 C5527 0.950 . S
C5498 H5480 0.951 . S
C5498 C5499 1.366 . S
C5498 C5500 1.388 . S
C5499 C5498 1.366 . S
C5499 C5503 1.385 . S
C5500 H5481 0.951 . S
C5500 C5498 1.388 . S
C5500 C5501 1.366 . S
C5501 C5500 1.366 . S
C5501 C5502 1.414 . S
C5501 C5504 1.499 . S
C5502 H5482 0.950 . S
C5502 C5501 1.414 . S
C5502 C5503 1.374 . S
C5503 H5483 0.950 . S
C5503 C5499 1.385 . S
C5503 C5502 1.374 . S
C5504 C5501 1.499 . S
C5504 C5505 1.373 . S
C5504 C5506 1.389 . S
C5505 H5484 0.950 . S
C5505 C5504 1.373 . S
C5505 C5521 1.377 . S
C5506 C5504 1.389 . S
C5506 C5507 1.524 . S
C5506 C5520 1.377 . S
C5507 C5506 1.524 . S
C5507 C5508 1.397 . S
C5507 C5512 1.363 . S
C5508 H5485 0.950 . S
C5508 C5507 1.397 . S
C5508 C5509 1.334 . S
C5509 H5486 0.950 . S
C5509 C5508 1.334 . S
C5509 C5510 1.287 . S
C5510 C5509 1.287 . S
C5510 C5511 1.524 . S
C5510 H5529 0.913 . S
C5511 H5487 0.950 . S
C5511 C5510 1.524 . S
C5511 C5512 1.415 . S
C5512 H5488 0.950 . S
C5512 C5507 1.363 . S
C5512 C5511 1.415 . S
C5513 H5489 0.951 . S
C5513 C5514 1.366 . S
C5513 C5515 1.388 . S
C5514 C5513 1.366 . S
C5514 C5518 1.385 . S
C5515 H5490 0.951 . S
C5515 C5513 1.388 . S
C5515 C5516 1.366 . S
C5516 C5515 1.366 . S
C5516 C5517 1.414 . S
C5516 C5519 1.499 . S
C5517 H5491 0.950 . S
C5517 C5516 1.414 . S
C5517 C5518 1.374 . S
C5518 H5492 0.950 . S
C5518 C5514 1.385 . S
C5518 C5517 1.374 . S
C5519 C5516 1.499 . S
C5519 C5520 1.373 . S
C5519 C5521 1.389 . S
C5520 H5493 0.950 . S
C5520 C5506 1.377 . S
C5520 C5519 1.373 . S
C5521 C5505 1.377 . S
C5521 C5519 1.389 . S
C5521 C5522 1.524 . S
C5522 C5521 1.524 . S
C5522 C5523 1.397 . S
C5522 C5527 1.363 . S
C5523 H5494 0.950 . S
C5523 C5522 1.397 . S
C5523 C5524 1.334 . S
C5524 H5495 0.950 . S
C5524 C5523 1.334 . S
C5524 C5525 1.287 . S
C5525 C5524 1.287 . S
C5525 C5526 1.524 . S
C5525 H5528 0.999 . S
C5526 H5496 0.950 . S
C5526 C5525 1.524 . S
C5526 C5527 1.415 . S
C5527 H5497 0.950 . S
C5527 C5522 1.363 . S
C5527 C5526 1.415 . S
H5528 C5525 0.999 . S
H5529 C5510 0.913 . S
H5530 C5548 0.951 . S
H5531 C5550 0.951 . S
H5532 C5552 0.950 . S
H5533 C5553 0.950 . S
H5534 C5555 0.950 . S
H5535 C5558 0.950 . S
H5536 C5559 0.950 . S
H5537 C5561 0.950 . S
H5538 C5562 0.950 . S
H5539 C5563 0.951 . S
H5540 C5565 0.951 . S
H5541 C5567 0.950 . S
H5542 C5568 0.950 . S
H5543 C5570 0.950 . S
H5544 C5573 0.950 . S
H5545 C5574 0.950 . S
H5546 C5576 0.950 . S
H5547 C5577 0.950 . S
C5548 H5530 0.951 . S
C5548 C5549 1.366 . S
C5548 C5550 1.388 . S
C5549 C5548 1.366 . S
C5549 C5553 1.385 . S
C5550 H5531 0.951 . S
C5550 C5548 1.388 . S
C5550 C5551 1.366 . S
C5551 C5550 1.366 . S
C5551 C5552 1.414 . S
C5551 C5554 1.499 . S
C5552 H5532 0.950 . S
C5552 C5551 1.414 . S
C5552 C5553 1.374 . S
C5553 H5533 0.950 . S
C5553 C5549 1.385 . S
C5553 C5552 1.374 . S
C5554 C5551 1.499 . S
C5554 C5555 1.373 . S
C5554 C5556 1.389 . S
C5555 H5534 0.950 . S
C5555 C5554 1.373 . S
C5555 C5571 1.377 . S
C5556 C5554 1.389 . S
C5556 C5557 1.524 . S
C5556 C5570 1.377 . S
C5557 C5556 1.524 . S
C5557 C5558 1.397 . S
C5557 C5562 1.363 . S
C5558 H5535 0.950 . S
C5558 C5557 1.397 . S
C5558 C5559 1.334 . S
C5559 H5536 0.950 . S
C5559 C5558 1.334 . S
C5559 C5560 1.287 . S
C5560 C5559 1.287 . S
C5560 C5561 1.524 . S
C5560 H5579 0.913 . S
C5561 H5537 0.950 . S
C5561 C5560 1.524 . S
C5561 C5562 1.415 . S
C5562 H5538 0.950 . S
C5562 C5557 1.363 . S
C5562 C5561 1.415 . S
C5563 H5539 0.951 . S
C5563 C5564 1.366 . S
C5563 C5565 1.388 . S
C5564 C5563 1.366 . S
C5564 C5568 1.385 . S
C5565 H5540 0.951 . S
C5565 C5563 1.388 . S
C5565 C5566 1.366 . S
C5566 C5565 1.366 . S
C5566 C5567 1.414 . S
C5566 C5569 1.499 . S
C5567 H5541 0.950 . S
C5567 C5566 1.414 . S
C5567 C5568 1.374 . S
C5568 H5542 0.950 . S
C5568 C5564 1.385 . S
C5568 C5567 1.374 . S
C5569 C5566 1.499 . S
C5569 C5570 1.373 . S
C5569 C5571 1.389 . S
C5570 H5543 0.950 . S
C5570 C5556 1.377 . S
C5570 C5569 1.373 . S
C5571 C5555 1.377 . S
C5571 C5569 1.389 . S
C5571 C5572 1.524 . S
C5572 C5571 1.524 . S
C5572 C5573 1.397 . S
C5572 C5577 1.363 . S
C5573 H5544 0.950 . S
C5573 C5572 1.397 . S
C5573 C5574 1.334 . S
C5574 H5545 0.950 . S
C5574 C5573 1.334 . S
C5574 C5575 1.287 . S
C5575 C5574 1.287 . S
C5575 C5576 1.524 . S
C5575 H5578 0.999 . S
C5576 H5546 0.950 . S
C5576 C5575 1.524 . S
C5576 C5577 1.415 . S
C5577 H5547 0.950 . S
C5577 C5572 1.363 . S
C5577 C5576 1.415 . S
H5578 C5575 0.999 . S
H5579 C5560 0.913 . S
H5580 C5598 0.951 . S
H5581 C5600 0.951 . S
H5582 C5602 0.950 . S
H5583 C5603 0.950 . S
H5584 C5605 0.950 . S
H5585 C5608 0.948 . S
H5586 C5609 0.950 . S
H5587 C5611 0.950 . S
H5588 C5612 0.969 . S
H5589 C5613 0.951 . S
H5590 C5615 0.951 . S
H5591 C5617 0.950 . S
H5592 C5618 0.950 . S
H5593 C5620 0.950 . S
H5594 C5623 0.950 . S
H5595 C5624 0.950 . S
H5596 C5626 0.950 . S
H5597 C5627 0.950 . S
C5598 H5580 0.951 . S
C5598 C5599 1.366 . S
C5598 C5600 1.388 . S
C5599 C5598 1.366 . S
C5599 C5603 1.385 . S
C5600 H5581 0.951 . S
C5600 C5598 1.388 . S
C5600 C5601 1.366 . S
C5601 C5600 1.366 . S
C5601 C5602 1.414 . S
C5601 C5604 1.499 . S
C5602 H5582 0.950 . S
C5602 C5601 1.414 . S
C5602 C5603 1.374 . S
C5603 H5583 0.950 . S
C5603 C5599 1.385 . S
C5603 C5602 1.374 . S
C5604 C5601 1.499 . S
C5604 C5605 1.373 . S
C5604 C5606 1.389 . S
C5605 H5584 0.950 . S
C5605 C5604 1.373 . S
C5605 C5621 1.377 . S
C5606 C5604 1.389 . S
C5606 C5607 1.524 . S
C5606 C5620 1.377 . S
C5607 C5606 1.524 . S
C5607 C5608 1.397 1_455 S
C5607 C5612 1.378 . S
C5608 H5585 0.948 . S
C5608 C5607 1.397 1_655 S
C5608 C5609 1.334 . S
C5609 H5586 0.950 . S
C5609 C5608 1.334 . S
C5609 C5610 1.287 . S
C5610 C5609 1.287 . S
C5610 C5611 1.524 . S
C5610 H5629 0.913 . S
C5611 H5587 0.950 . S
C5611 C5610 1.524 . S
C5611 C5612 1.383 1_655 S
C5612 H5588 0.969 . S
C5612 C5607 1.378 . S
C5612 C5611 1.383 1_455 S
C5613 H5589 0.951 . S
C5613 C5614 1.366 . S
C5613 C5615 1.388 . S
C5614 C5613 1.366 . S
C5614 C5618 1.385 . S
C5615 H5590 0.951 . S
C5615 C5613 1.388 . S
C5615 C5616 1.366 . S
C5616 C5615 1.366 . S
C5616 C5617 1.414 . S
C5616 C5619 1.499 . S
C5617 H5591 0.950 . S
C5617 C5616 1.414 . S
C5617 C5618 1.374 . S
C5618 H5592 0.950 . S
C5618 C5614 1.385 . S
C5618 C5617 1.374 . S
C5619 C5616 1.499 . S
C5619 C5620 1.373 . S
C5619 C5621 1.389 . S
C5620 H5593 0.950 . S
C5620 C5606 1.377 . S
C5620 C5619 1.373 . S
C5621 C5605 1.377 . S
C5621 C5619 1.389 . S
C5621 C5622 1.524 . S
C5622 C5621 1.524 . S
C5622 C5623 1.397 . S
C5622 C5627 1.363 . S
C5623 H5594 0.950 . S
C5623 C5622 1.397 . S
C5623 C5624 1.334 . S
C5624 H5595 0.950 . S
C5624 C5623 1.334 . S
C5624 C5625 1.287 . S
C5625 C5624 1.287 . S
C5625 C5626 1.524 . S
C5625 H5628 0.999 . S
C5626 H5596 0.950 . S
C5626 C5625 1.524 . S
C5626 C5627 1.415 . S
C5627 H5597 0.950 . S
C5627 C5622 1.363 . S
C5627 C5626 1.415 . S
H5628 C5625 0.999 . S
H5629 C5610 0.913 . S
H5630 C5648 0.951 . S
H5631 C5650 0.951 . S
H5632 C5652 0.950 . S
H5633 C5653 0.950 . S
H5634 C5655 0.950 . S
H5635 C5658 0.950 . S
H5636 C5659 0.950 . S
H5637 C5661 0.950 . S
H5638 C5662 0.950 . S
H5639 C5663 0.951 . S
H5640 C5665 0.951 . S
H5641 C5667 0.950 . S
H5642 C5668 0.950 . S
H5643 C5670 0.950 . S
H5644 C5673 0.950 . S
H5645 C5674 0.950 . S
H5646 C5676 0.950 . S
H5647 C5677 0.950 . S
C5648 H5630 0.951 . S
C5648 C5649 1.366 . S
C5648 C5650 1.388 . S
C5649 C5648 1.366 . S
C5649 C5653 1.385 . S
C5650 H5631 0.951 . S
C5650 C5648 1.388 . S
C5650 C5651 1.366 . S
C5651 C5650 1.366 . S
C5651 C5652 1.414 . S
C5651 C5654 1.499 . S
C5652 H5632 0.950 . S
C5652 C5651 1.414 . S
C5652 C5653 1.374 . S
C5653 H5633 0.950 . S
C5653 C5649 1.385 . S
C5653 C5652 1.374 . S
C5654 C5651 1.499 . S
C5654 C5655 1.373 . S
C5654 C5656 1.389 . S
C5655 H5634 0.950 . S
C5655 C5654 1.373 . S
C5655 C5671 1.377 . S
C5656 C5654 1.389 . S
C5656 C5657 1.524 . S
C5656 C5670 1.377 . S
C5657 C5656 1.524 . S
C5657 C5658 1.397 . S
C5657 C5662 1.363 . S
C5658 H5635 0.950 . S
C5658 C5657 1.397 . S
C5658 C5659 1.334 . S
C5659 H5636 0.950 . S
C5659 C5658 1.334 . S
C5659 C5660 1.287 . S
C5660 C5659 1.287 . S
C5660 C5661 1.524 . S
C5660 H5679 0.913 . S
C5661 H5637 0.950 . S
C5661 C5660 1.524 . S
C5661 C5662 1.415 . S
C5662 H5638 0.950 . S
C5662 C5657 1.363 . S
C5662 C5661 1.415 . S
C5663 H5639 0.951 . S
C5663 C5664 1.366 . S
C5663 C5665 1.388 . S
C5664 C5663 1.366 . S
C5664 C5668 1.385 . S
C5665 H5640 0.951 . S
C5665 C5663 1.388 . S
C5665 C5666 1.366 . S
C5666 C5665 1.366 . S
C5666 C5667 1.414 . S
C5666 C5669 1.499 . S
C5667 H5641 0.950 . S
C5667 C5666 1.414 . S
C5667 C5668 1.374 . S
C5668 H5642 0.950 . S
C5668 C5664 1.385 . S
C5668 C5667 1.374 . S
C5669 C5666 1.499 . S
C5669 C5670 1.373 . S
C5669 C5671 1.389 . S
C5670 H5643 0.950 . S
C5670 C5656 1.377 . S
C5670 C5669 1.373 . S
C5671 C5655 1.377 . S
C5671 C5669 1.389 . S
C5671 C5672 1.524 . S
C5672 C5671 1.524 . S
C5672 C5673 1.397 . S
C5672 C5677 1.363 . S
C5673 H5644 0.950 . S
C5673 C5672 1.397 . S
C5673 C5674 1.334 . S
C5674 H5645 0.950 . S
C5674 C5673 1.334 . S
C5674 C5675 1.287 . S
C5675 C5674 1.287 . S
C5675 C5676 1.524 . S
C5675 H5678 0.999 . S
C5676 H5646 0.950 . S
C5676 C5675 1.524 . S
C5676 C5677 1.415 . S
C5677 H5647 0.950 . S
C5677 C5672 1.363 . S
C5677 C5676 1.415 . S
H5678 C5675 0.999 . S
H5679 C5660 0.913 . S
H5680 C5698 0.951 . S
H5681 C5700 0.951 . S
H5682 C5702 0.950 . S
H5683 C5703 0.950 . S
H5684 C5705 0.950 . S
H5685 C5708 0.950 . S
H5686 C5709 0.950 . S
H5687 C5711 0.950 . S
H5688 C5712 0.950 . S
H5689 C5713 0.951 . S
H5690 C5715 0.951 . S
H5691 C5717 0.950 . S
H5692 C5718 0.950 . S
H5693 C5720 0.950 . S
H5694 C5723 0.950 . S
H5695 C5724 0.950 . S
H5696 C5726 0.950 . S
H5697 C5727 0.950 . S
C5698 H5680 0.951 . S
C5698 C5699 1.366 . S
C5698 C5700 1.388 . S
C5699 C5698 1.366 . S
C5699 C5703 1.385 . S
C5700 H5681 0.951 . S
C5700 C5698 1.388 . S
C5700 C5701 1.366 . S
C5701 C5700 1.366 . S
C5701 C5702 1.414 . S
C5701 C5704 1.499 . S
C5702 H5682 0.950 . S
C5702 C5701 1.414 . S
C5702 C5703 1.374 . S
C5703 H5683 0.950 . S
C5703 C5699 1.385 . S
C5703 C5702 1.374 . S
C5704 C5701 1.499 . S
C5704 C5705 1.373 . S
C5704 C5706 1.389 . S
C5705 H5684 0.950 . S
C5705 C5704 1.373 . S
C5705 C5721 1.377 . S
C5706 C5704 1.389 . S
C5706 C5707 1.524 . S
C5706 C5720 1.377 . S
C5707 C5706 1.524 . S
C5707 C5708 1.397 . S
C5707 C5712 1.363 . S
C5708 H5685 0.950 . S
C5708 C5707 1.397 . S
C5708 C5709 1.334 . S
C5709 H5686 0.950 . S
C5709 C5708 1.334 . S
C5709 C5710 1.287 . S
C5710 C5709 1.287 . S
C5710 C5711 1.524 . S
C5710 H5729 0.913 . S
C5711 H5687 0.950 . S
C5711 C5710 1.524 . S
C5711 C5712 1.415 . S
C5712 H5688 0.950 . S
C5712 C5707 1.363 . S
C5712 C5711 1.415 . S
C5713 H5689 0.951 . S
C5713 C5714 1.366 . S
C5713 C5715 1.388 . S
C5714 C5713 1.366 . S
C5714 C5718 1.385 . S
C5715 H5690 0.951 . S
C5715 C5713 1.388 . S
C5715 C5716 1.366 . S
C5716 C5715 1.366 . S
C5716 C5717 1.414 . S
C5716 C5719 1.499 . S
C5717 H5691 0.950 . S
C5717 C5716 1.414 . S
C5717 C5718 1.374 . S
C5718 H5692 0.950 . S
C5718 C5714 1.385 . S
C5718 C5717 1.374 . S
C5719 C5716 1.499 . S
C5719 C5720 1.373 . S
C5719 C5721 1.389 . S
C5720 H5693 0.950 . S
C5720 C5706 1.377 . S
C5720 C5719 1.373 . S
C5721 C5705 1.377 . S
C5721 C5719 1.389 . S
C5721 C5722 1.524 . S
C5722 C5721 1.524 . S
C5722 C5723 1.397 . S
C5722 C5727 1.363 . S
C5723 H5694 0.950 . S
C5723 C5722 1.397 . S
C5723 C5724 1.334 . S
C5724 H5695 0.950 . S
C5724 C5723 1.334 . S
C5724 C5725 1.287 . S
C5725 C5724 1.287 . S
C5725 C5726 1.524 . S
C5725 H5728 0.999 . S
C5726 H5696 0.950 . S
C5726 C5725 1.524 . S
C5726 C5727 1.415 . S
C5727 H5697 0.950 . S
C5727 C5722 1.363 . S
C5727 C5726 1.415 . S
H5728 C5725 0.999 . S
H5729 C5710 0.913 . S
H5730 C5748 0.951 . S
H5731 C5750 0.951 . S
H5732 C5752 0.950 . S
H5733 C5753 0.950 . S
H5734 C5755 0.950 . S
H5735 C5758 0.950 . S
H5736 C5759 0.950 . S
H5737 C5761 0.950 . S
H5738 C5762 0.950 . S
H5739 C5763 0.951 . S
H5740 C5765 0.951 . S
H5741 C5767 0.950 . S
H5742 C5768 0.950 . S
H5743 C5770 0.950 . S
H5744 C5773 0.950 . S
H5745 C5774 0.950 . S
H5746 C5776 0.950 . S
H5747 C5777 0.950 . S
C5748 H5730 0.951 . S
C5748 C5749 1.366 . S
C5748 C5750 1.388 . S
C5749 C5748 1.366 . S
C5749 C5753 1.385 . S
C5750 H5731 0.951 . S
C5750 C5748 1.388 . S
C5750 C5751 1.366 . S
C5751 C5750 1.366 . S
C5751 C5752 1.414 . S
C5751 C5754 1.499 . S
C5752 H5732 0.950 . S
C5752 C5751 1.414 . S
C5752 C5753 1.374 . S
C5753 H5733 0.950 . S
C5753 C5749 1.385 . S
C5753 C5752 1.374 . S
C5754 C5751 1.499 . S
C5754 C5755 1.373 . S
C5754 C5756 1.389 . S
C5755 H5734 0.950 . S
C5755 C5754 1.373 . S
C5755 C5771 1.377 . S
C5756 C5754 1.389 . S
C5756 C5757 1.524 . S
C5756 C5770 1.377 . S
C5757 C5756 1.524 . S
C5757 C5758 1.397 . S
C5757 C5762 1.363 . S
C5758 H5735 0.950 . S
C5758 C5757 1.397 . S
C5758 C5759 1.334 . S
C5759 H5736 0.950 . S
C5759 C5758 1.334 . S
C5759 C5760 1.287 . S
C5760 C5759 1.287 . S
C5760 C5761 1.524 . S
C5760 H5779 0.913 . S
C5761 H5737 0.950 . S
C5761 C5760 1.524 . S
C5761 C5762 1.415 . S
C5762 H5738 0.950 . S
C5762 C5757 1.363 . S
C5762 C5761 1.415 . S
C5763 H5739 0.951 . S
C5763 C5764 1.366 . S
C5763 C5765 1.388 . S
C5764 C5763 1.366 . S
C5764 C5768 1.385 . S
C5765 H5740 0.951 . S
C5765 C5763 1.388 . S
C5765 C5766 1.366 . S
C5766 C5765 1.366 . S
C5766 C5767 1.414 . S
C5766 C5769 1.499 . S
C5767 H5741 0.950 . S
C5767 C5766 1.414 . S
C5767 C5768 1.374 . S
C5768 H5742 0.950 . S
C5768 C5764 1.385 . S
C5768 C5767 1.374 . S
C5769 C5766 1.499 . S
C5769 C5770 1.373 . S
C5769 C5771 1.389 . S
C5770 H5743 0.950 . S
C5770 C5756 1.377 . S
C5770 C5769 1.373 . S
C5771 C5755 1.377 . S
C5771 C5769 1.389 . S
C5771 C5772 1.524 . S
C5772 C5771 1.524 . S
C5772 C5773 1.397 . S
C5772 C5777 1.363 . S
C5773 H5744 0.950 . S
C5773 C5772 1.397 . S
C5773 C5774 1.334 . S
C5774 H5745 0.950 . S
C5774 C5773 1.334 . S
C5774 C5775 1.287 . S
C5775 C5774 1.287 . S
C5775 C5776 1.524 . S
C5775 H5778 0.999 . S
C5776 H5746 0.950 . S
C5776 C5775 1.524 . S
C5776 C5777 1.415 . S
C5777 H5747 0.950 . S
C5777 C5772 1.363 . S
C5777 C5776 1.415 . S
H5778 C5775 0.999 . S
H5779 C5760 0.913 . S
H5780 C5798 0.951 . S
H5781 C5800 0.951 . S
H5782 C5802 0.950 . S
H5783 C5803 0.950 . S
H5784 C5805 0.950 . S
H5785 C5808 0.950 . S
H5786 C5809 0.950 . S
H5787 C5811 0.950 . S
H5788 C5812 0.950 . S
H5789 C5813 0.951 . S
H5790 C5815 0.951 . S
H5791 C5817 0.950 . S
H5792 C5818 0.950 . S
H5793 C5820 0.950 . S
H5794 C5823 0.950 . S
H5795 C5824 0.950 . S
H5796 C5826 0.950 . S
H5797 C5827 0.950 . S
C5798 H5780 0.951 . S
C5798 C5799 1.366 . S
C5798 C5800 1.388 . S
C5799 C5798 1.366 . S
C5799 C5803 1.385 . S
C5800 H5781 0.951 . S
C5800 C5798 1.388 . S
C5800 C5801 1.366 . S
C5801 C5800 1.366 . S
C5801 C5802 1.414 . S
C5801 C5804 1.499 . S
C5802 H5782 0.950 . S
C5802 C5801 1.414 . S
C5802 C5803 1.374 . S
C5803 H5783 0.950 . S
C5803 C5799 1.385 . S
C5803 C5802 1.374 . S
C5804 C5801 1.499 . S
C5804 C5805 1.373 . S
C5804 C5806 1.389 . S
C5805 H5784 0.950 . S
C5805 C5804 1.373 . S
C5805 C5821 1.377 . S
C5806 C5804 1.389 . S
C5806 C5807 1.524 . S
C5806 C5820 1.377 . S
C5807 C5806 1.524 . S
C5807 C5808 1.397 . S
C5807 C5812 1.363 . S
C5808 H5785 0.950 . S
C5808 C5807 1.397 . S
C5808 C5809 1.334 . S
C5809 H5786 0.950 . S
C5809 C5808 1.334 . S
C5809 C5810 1.287 . S
C5810 C5809 1.287 . S
C5810 C5811 1.524 . S
C5810 H5829 0.913 . S
C5811 H5787 0.950 . S
C5811 C5810 1.524 . S
C5811 C5812 1.415 . S
C5812 H5788 0.950 . S
C5812 C5807 1.363 . S
C5812 C5811 1.415 . S
C5813 H5789 0.951 . S
C5813 C5814 1.365 1_455 S
C5813 C5815 1.388 1_455 S
C5814 C5813 1.365 1_655 S
C5814 C5818 1.391 . S
C5815 H5790 0.951 . S
C5815 C5813 1.388 1_655 S
C5815 C5816 1.366 . S
C5816 C5815 1.366 . S
C5816 C5817 1.414 . S
C5816 C5819 1.499 . S
C5817 H5791 0.950 . S
C5817 C5816 1.414 . S
C5817 C5818 1.374 . S
C5818 H5792 0.950 . S
C5818 C5814 1.391 . S
C5818 C5817 1.374 . S
C5819 C5816 1.499 . S
C5819 C5820 1.373 . S
C5819 C5821 1.389 . S
C5820 H5793 0.950 . S
C5820 C5806 1.377 . S
C5820 C5819 1.373 . S
C5821 C5805 1.377 . S
C5821 C5819 1.389 . S
C5821 C5822 1.524 . S
C5822 C5821 1.524 . S
C5822 C5823 1.397 . S
C5822 C5827 1.363 . S
C5823 H5794 0.950 . S
C5823 C5822 1.397 . S
C5823 C5824 1.334 1_655 S
C5824 H5795 0.950 . S
C5824 C5823 1.334 1_455 S
C5824 C5825 1.287 . S
C5825 C5824 1.287 . S
C5825 C5826 1.524 . S
C5825 H5828 0.999 . S
C5826 H5796 0.950 . S
C5826 C5825 1.524 . S
C5826 C5827 1.415 1_455 S
C5827 H5797 0.950 . S
C5827 C5822 1.363 . S
C5827 C5826 1.415 1_655 S
H5828 C5825 0.999 . S
H5829 C5810 0.913 . S
H5830 C5848 0.951 . S
H5831 C5850 0.951 . S
H5832 C5852 0.950 . S
H5833 C5853 0.950 . S
H5834 C5855 0.950 . S
H5835 C5858 0.950 . S
H5836 C5859 0.950 . S
H5837 C5861 0.950 . S
H5838 C5862 0.950 . S
H5839 C5863 0.951 . S
H5840 C5865 0.951 . S
H5841 C5867 0.950 . S
H5842 C5868 0.950 . S
H5843 C5870 0.950 . S
H5844 C5873 0.950 . S
H5845 C5874 0.950 . S
H5846 C5876 0.950 . S
H5847 C5877 0.950 . S
C5848 H5830 0.951 . S
C5848 C5849 1.366 . S
C5848 C5850 1.388 . S
C5849 C5848 1.366 . S
C5849 C5853 1.385 . S
C5850 H5831 0.951 . S
C5850 C5848 1.388 . S
C5850 C5851 1.366 . S
C5851 C5850 1.366 . S
C5851 C5852 1.414 . S
C5851 C5854 1.499 . S
C5852 H5832 0.950 . S
C5852 C5851 1.414 . S
C5852 C5853 1.374 . S
C5853 H5833 0.950 . S
C5853 C5849 1.385 . S
C5853 C5852 1.374 . S
C5854 C5851 1.499 . S
C5854 C5855 1.373 . S
C5854 C5856 1.389 . S
C5855 H5834 0.950 . S
C5855 C5854 1.373 . S
C5855 C5871 1.377 . S
C5856 C5854 1.389 . S
C5856 C5857 1.524 . S
C5856 C5870 1.377 . S
C5857 C5856 1.524 . S
C5857 C5858 1.397 . S
C5857 C5862 1.363 . S
C5858 H5835 0.950 . S
C5858 C5857 1.397 . S
C5858 C5859 1.334 . S
C5859 H5836 0.950 . S
C5859 C5858 1.334 . S
C5859 C5860 1.287 . S
C5860 C5859 1.287 . S
C5860 C5861 1.524 . S
C5860 H5879 0.913 . S
C5861 H5837 0.950 . S
C5861 C5860 1.524 . S
C5861 C5862 1.415 . S
C5862 H5838 0.950 . S
C5862 C5857 1.363 . S
C5862 C5861 1.415 . S
C5863 H5839 0.951 . S
C5863 C5864 1.366 . S
C5863 C5865 1.388 . S
C5864 C5863 1.366 . S
C5864 C5868 1.385 . S
C5865 H5840 0.951 . S
C5865 C5863 1.388 . S
C5865 C5866 1.366 . S
C5866 C5865 1.366 . S
C5866 C5867 1.414 . S
C5866 C5869 1.499 . S
C5867 H5841 0.950 . S
C5867 C5866 1.414 . S
C5867 C5868 1.374 . S
C5868 H5842 0.950 . S
C5868 C5864 1.385 . S
C5868 C5867 1.374 . S
C5869 C5866 1.499 . S
C5869 C5870 1.373 . S
C5869 C5871 1.389 . S
C5870 H5843 0.950 . S
C5870 C5856 1.377 . S
C5870 C5869 1.373 . S
C5871 C5855 1.377 . S
C5871 C5869 1.389 . S
C5871 C5872 1.524 . S
C5872 C5871 1.524 . S
C5872 C5873 1.397 . S
C5872 C5877 1.363 . S
C5873 H5844 0.950 . S
C5873 C5872 1.397 . S
C5873 C5874 1.334 . S
C5874 H5845 0.950 . S
C5874 C5873 1.334 . S
C5874 C5875 1.287 . S
C5875 C5874 1.287 . S
C5875 C5876 1.524 . S
C5875 H5878 0.999 . S
C5876 H5846 0.950 . S
C5876 C5875 1.524 . S
C5876 C5877 1.415 . S
C5877 H5847 0.950 . S
C5877 C5872 1.363 . S
C5877 C5876 1.415 . S
H5878 C5875 0.999 . S
H5879 C5860 0.913 . S
H5880 C5898 0.951 . S
H5881 C5900 0.951 . S
H5882 C5902 0.950 . S
H5883 C5903 0.950 . S
H5884 C5905 0.950 . S
H5885 C5908 0.950 . S
H5886 C5909 0.950 . S
H5887 C5911 0.950 . S
H5888 C5912 0.950 . S
H5889 C5913 0.951 . S
H5890 C5915 0.951 . S
H5891 C5917 0.950 . S
H5892 C5918 0.950 . S
H5893 C5920 0.950 . S
H5894 C5923 0.950 . S
H5895 C5924 0.950 . S
H5896 C5926 0.950 . S
H5897 C5927 0.950 . S
C5898 H5880 0.951 . S
C5898 C5899 1.366 . S
C5898 C5900 1.388 . S
C5899 C5898 1.366 . S
C5899 C5903 1.385 . S
C5900 H5881 0.951 . S
C5900 C5898 1.388 . S
C5900 C5901 1.366 . S
C5901 C5900 1.366 . S
C5901 C5902 1.414 . S
C5901 C5904 1.499 . S
C5902 H5882 0.950 . S
C5902 C5901 1.414 . S
C5902 C5903 1.374 . S
C5903 H5883 0.950 . S
C5903 C5899 1.385 . S
C5903 C5902 1.374 . S
C5904 C5901 1.499 . S
C5904 C5905 1.373 . S
C5904 C5906 1.389 . S
C5905 H5884 0.950 . S
C5905 C5904 1.373 . S
C5905 C5921 1.377 . S
C5906 C5904 1.389 . S
C5906 C5907 1.524 . S
C5906 C5920 1.377 . S
C5907 C5906 1.524 . S
C5907 C5908 1.397 . S
C5907 C5912 1.363 . S
C5908 H5885 0.950 . S
C5908 C5907 1.397 . S
C5908 C5909 1.334 . S
C5909 H5886 0.950 . S
C5909 C5908 1.334 . S
C5909 C5910 1.287 . S
C5910 C5909 1.287 . S
C5910 C5911 1.524 . S
C5910 H5929 0.913 . S
C5911 H5887 0.950 . S
C5911 C5910 1.524 . S
C5911 C5912 1.415 . S
C5912 H5888 0.950 . S
C5912 C5907 1.363 . S
C5912 C5911 1.415 . S
C5913 H5889 0.951 . S
C5913 C5914 1.366 . S
C5913 C5915 1.388 . S
C5914 C5913 1.366 . S
C5914 C5918 1.385 . S
C5915 H5890 0.951 . S
C5915 C5913 1.388 . S
C5915 C5916 1.366 . S
C5916 C5915 1.366 . S
C5916 C5917 1.414 . S
C5916 C5919 1.499 . S
C5917 H5891 0.950 . S
C5917 C5916 1.414 . S
C5917 C5918 1.374 . S
C5918 H5892 0.950 . S
C5918 C5914 1.385 . S
C5918 C5917 1.374 . S
C5919 C5916 1.499 . S
C5919 C5920 1.373 . S
C5919 C5921 1.389 . S
C5920 H5893 0.950 . S
C5920 C5906 1.377 . S
C5920 C5919 1.373 . S
C5921 C5905 1.377 . S
C5921 C5919 1.389 . S
C5921 C5922 1.524 . S
C5922 C5921 1.524 . S
C5922 C5923 1.397 . S
C5922 C5927 1.363 . S
C5923 H5894 0.950 . S
C5923 C5922 1.397 . S
C5923 C5924 1.334 . S
C5924 H5895 0.950 . S
C5924 C5923 1.334 . S
C5924 C5925 1.287 . S
C5925 C5924 1.287 . S
C5925 C5926 1.524 . S
C5925 H5928 0.999 . S
C5926 H5896 0.950 . S
C5926 C5925 1.524 . S
C5926 C5927 1.415 . S
C5927 H5897 0.950 . S
C5927 C5922 1.363 . S
C5927 C5926 1.415 . S
H5928 C5925 0.999 . S
H5929 C5910 0.913 . S
H5930 C5948 0.951 . S
H5931 C5950 0.951 . S
H5932 C5952 0.950 . S
H5933 C5953 0.950 . S
H5934 C5955 0.950 . S
H5935 C5958 0.950 . S
H5936 C5959 0.950 . S
H5937 C5961 0.950 . S
H5938 C5962 0.950 . S
H5939 C5963 0.951 . S
H5940 C5965 0.951 . S
H5941 C5967 0.950 . S
H5942 C5968 0.950 . S
H5943 C5970 0.950 . S
H5944 C5973 0.950 . S
H5945 C5974 0.950 . S
H5946 C5976 0.950 . S
H5947 C5977 0.950 . S
C5948 H5930 0.951 . S
C5948 C5949 1.366 . S
C5948 C5950 1.388 . S
C5949 C5948 1.366 . S
C5949 C5953 1.385 . S
C5950 H5931 0.951 . S
C5950 C5948 1.388 . S
C5950 C5951 1.366 . S
C5951 C5950 1.366 . S
C5951 C5952 1.414 . S
C5951 C5954 1.499 . S
C5952 H5932 0.950 . S
C5952 C5951 1.414 . S
C5952 C5953 1.374 . S
C5953 H5933 0.950 . S
C5953 C5949 1.385 . S
C5953 C5952 1.374 . S
C5954 C5951 1.499 . S
C5954 C5955 1.373 . S
C5954 C5956 1.389 . S
C5955 H5934 0.950 . S
C5955 C5954 1.373 . S
C5955 C5971 1.377 . S
C5956 C5954 1.389 . S
C5956 C5957 1.524 . S
C5956 C5970 1.377 . S
C5957 C5956 1.524 . S
C5957 C5958 1.397 . S
C5957 C5962 1.363 . S
C5958 H5935 0.950 . S
C5958 C5957 1.397 . S
C5958 C5959 1.334 . S
C5959 H5936 0.950 . S
C5959 C5958 1.334 . S
C5959 C5960 1.287 . S
C5960 C5959 1.287 . S
C5960 C5961 1.524 . S
C5960 H5979 0.913 . S
C5961 H5937 0.950 . S
C5961 C5960 1.524 . S
C5961 C5962 1.415 . S
C5962 H5938 0.950 . S
C5962 C5957 1.363 . S
C5962 C5961 1.415 . S
C5963 H5939 0.951 . S
C5963 C5964 1.366 . S
C5963 C5965 1.388 . S
C5964 C5963 1.366 . S
C5964 C5968 1.385 . S
C5965 H5940 0.951 . S
C5965 C5963 1.388 . S
C5965 C5966 1.366 . S
C5966 C5965 1.366 . S
C5966 C5967 1.414 . S
C5966 C5969 1.499 . S
C5967 H5941 0.950 . S
C5967 C5966 1.414 . S
C5967 C5968 1.374 . S
C5968 H5942 0.950 . S
C5968 C5964 1.385 . S
C5968 C5967 1.374 . S
C5969 C5966 1.499 . S
C5969 C5970 1.373 . S
C5969 C5971 1.389 . S
C5970 H5943 0.950 . S
C5970 C5956 1.377 . S
C5970 C5969 1.373 . S
C5971 C5955 1.377 . S
C5971 C5969 1.389 . S
C5971 C5972 1.524 . S
C5972 C5971 1.524 . S
C5972 C5973 1.397 . S
C5972 C5977 1.363 . S
C5973 H5944 0.950 . S
C5973 C5972 1.397 . S
C5973 C5974 1.334 . S
C5974 H5945 0.950 . S
C5974 C5973 1.334 . S
C5974 C5975 1.287 . S
C5975 C5974 1.287 . S
C5975 C5976 1.524 . S
C5975 H5978 0.999 . S
C5976 H5946 0.950 . S
C5976 C5975 1.524 . S
C5976 C5977 1.415 . S
C5977 H5947 0.950 . S
C5977 C5972 1.363 . S
C5977 C5976 1.415 . S
H5978 C5975 0.999 . S
H5979 C5960 0.913 . S
H5980 C5998 0.951 . S
H5981 C6000 0.951 . S
H5982 C6002 0.950 . S
H5983 C6003 0.950 . S
H5984 C6005 0.950 . S
H5985 C6008 0.950 . S
H5986 C6009 0.950 . S
H5987 C6011 0.950 . S
H5988 C6012 0.950 . S
H5989 C6013 0.951 . S
H5990 C6015 0.951 . S
H5991 C6017 0.950 . S
H5992 C6018 0.950 . S
H5993 C6020 0.950 . S
H5994 C6023 0.950 . S
H5995 C6024 0.950 . S
H5996 C6026 0.950 . S
H5997 C6027 0.950 . S
C5998 H5980 0.951 . S
C5998 C5999 1.366 . S
C5998 C6000 1.388 . S
C5999 C5998 1.366 . S
C5999 C6003 1.385 . S
C6000 H5981 0.951 . S
C6000 C5998 1.388 . S
C6000 C6001 1.366 . S
C6001 C6000 1.366 . S
C6001 C6002 1.414 . S
C6001 C6004 1.499 . S
C6002 H5982 0.950 . S
C6002 C6001 1.414 . S
C6002 C6003 1.374 . S
C6003 H5983 0.950 . S
C6003 C5999 1.385 . S
C6003 C6002 1.374 . S
C6004 C6001 1.499 . S
C6004 C6005 1.373 . S
C6004 C6006 1.389 . S
C6005 H5984 0.950 . S
C6005 C6004 1.373 . S
C6005 C6021 1.377 . S
C6006 C6004 1.389 . S
C6006 C6007 1.524 . S
C6006 C6020 1.377 . S
C6007 C6006 1.524 . S
C6007 C6008 1.397 . S
C6007 C6012 1.363 . S
C6008 H5985 0.950 . S
C6008 C6007 1.397 . S
C6008 C6009 1.334 . S
C6009 H5986 0.950 . S
C6009 C6008 1.334 . S
C6009 C6010 1.287 . S
C6010 C6009 1.287 . S
C6010 C6011 1.524 . S
C6010 H6029 0.913 . S
C6011 H5987 0.950 . S
C6011 C6010 1.524 . S
C6011 C6012 1.415 . S
C6012 H5988 0.950 . S
C6012 C6007 1.363 . S
C6012 C6011 1.415 . S
C6013 H5989 0.951 . S
C6013 C6014 1.366 . S
C6013 C6015 1.388 . S
C6014 C6013 1.366 . S
C6014 C6018 1.385 . S
C6015 H5990 0.951 . S
C6015 C6013 1.388 . S
C6015 C6016 1.366 . S
C6016 C6015 1.366 . S
C6016 C6017 1.414 . S
C6016 C6019 1.499 . S
C6017 H5991 0.950 . S
C6017 C6016 1.414 . S
C6017 C6018 1.374 . S
C6018 H5992 0.950 . S
C6018 C6014 1.385 . S
C6018 C6017 1.374 . S
C6019 C6016 1.499 . S
C6019 C6020 1.373 . S
C6019 C6021 1.389 . S
C6020 H5993 0.950 . S
C6020 C6006 1.377 . S
C6020 C6019 1.373 . S
C6021 C6005 1.377 . S
C6021 C6019 1.389 . S
C6021 C6022 1.524 . S
C6022 C6021 1.524 . S
C6022 C6023 1.397 . S
C6022 C6027 1.363 . S
C6023 H5994 0.950 . S
C6023 C6022 1.397 . S
C6023 C6024 1.334 . S
C6024 H5995 0.950 . S
C6024 C6023 1.334 . S
C6024 C6025 1.287 . S
C6025 C6024 1.287 . S
C6025 C6026 1.524 . S
C6025 H6028 0.999 . S
C6026 H5996 0.950 . S
C6026 C6025 1.524 . S
C6026 C6027 1.415 . S
C6027 H5997 0.950 . S
C6027 C6022 1.363 . S
C6027 C6026 1.415 . S
H6028 C6025 0.999 . S
H6029 C6010 0.913 . S
H6030 C6048 0.951 . S
H6031 C6050 0.951 . S
H6032 C6052 0.950 . S
H6033 C6053 0.950 . S
H6034 C6055 0.950 . S
H6035 C6058 0.950 . S
H6036 C6059 0.950 . S
H6037 C6061 0.950 . S
H6038 C6062 0.950 . S
H6039 C6063 0.951 . S
H6040 C6065 0.951 . S
H6041 C6067 0.950 . S
H6042 C6068 0.950 . S
H6043 C6070 0.950 . S
H6044 C6073 0.950 . S
H6045 C6074 0.950 . S
H6046 C6076 0.950 . S
H6047 C6077 0.950 . S
C6048 H6030 0.951 . S
C6048 C6049 1.366 . S
C6048 C6050 1.388 . S
C6049 C6048 1.366 . S
C6049 C6053 1.385 . S
C6050 H6031 0.951 . S
C6050 C6048 1.388 . S
C6050 C6051 1.366 . S
C6051 C6050 1.366 . S
C6051 C6052 1.414 . S
C6051 C6054 1.499 . S
C6052 H6032 0.950 . S
C6052 C6051 1.414 . S
C6052 C6053 1.374 . S
C6053 H6033 0.950 . S
C6053 C6049 1.385 . S
C6053 C6052 1.374 . S
C6054 C6051 1.499 . S
C6054 C6055 1.373 . S
C6054 C6056 1.389 . S
C6055 H6034 0.950 . S
C6055 C6054 1.373 . S
C6055 C6071 1.377 . S
C6056 C6054 1.389 . S
C6056 C6057 1.524 . S
C6056 C6070 1.377 . S
C6057 C6056 1.524 . S
C6057 C6058 1.397 . S
C6057 C6062 1.363 . S
C6058 H6035 0.950 . S
C6058 C6057 1.397 . S
C6058 C6059 1.334 . S
C6059 H6036 0.950 . S
C6059 C6058 1.334 . S
C6059 C6060 1.287 . S
C6060 C6059 1.287 . S
C6060 C6061 1.524 . S
C6060 H6079 0.913 . S
C6061 H6037 0.950 . S
C6061 C6060 1.524 . S
C6061 C6062 1.415 . S
C6062 H6038 0.950 . S
C6062 C6057 1.363 . S
C6062 C6061 1.415 . S
C6063 H6039 0.951 . S
C6063 C6064 1.366 . S
C6063 C6065 1.388 . S
C6064 C6063 1.366 . S
C6064 C6068 1.385 . S
C6065 H6040 0.951 . S
C6065 C6063 1.388 . S
C6065 C6066 1.366 . S
C6066 C6065 1.366 . S
C6066 C6067 1.414 . S
C6066 C6069 1.499 . S
C6067 H6041 0.950 . S
C6067 C6066 1.414 . S
C6067 C6068 1.374 . S
C6068 H6042 0.950 . S
C6068 C6064 1.385 . S
C6068 C6067 1.374 . S
C6069 C6066 1.499 . S
C6069 C6070 1.373 . S
C6069 C6071 1.389 . S
C6070 H6043 0.950 . S
C6070 C6056 1.377 . S
C6070 C6069 1.373 . S
C6071 C6055 1.377 . S
C6071 C6069 1.389 . S
C6071 C6072 1.524 . S
C6072 C6071 1.524 . S
C6072 C6073 1.397 . S
C6072 C6077 1.363 . S
C6073 H6044 0.950 . S
C6073 C6072 1.397 . S
C6073 C6074 1.334 . S
C6074 H6045 0.950 . S
C6074 C6073 1.334 . S
C6074 C6075 1.287 . S
C6075 C6074 1.287 . S
C6075 C6076 1.524 . S
C6075 H6078 0.999 . S
C6076 H6046 0.950 . S
C6076 C6075 1.524 . S
C6076 C6077 1.415 . S
C6077 H6047 0.950 . S
C6077 C6072 1.363 . S
C6077 C6076 1.415 . S
H6078 C6075 0.999 . S
H6079 C6060 0.913 . S
H6080 C6098 0.951 . S
H6081 C6100 0.951 . S
H6082 C6102 0.950 . S
H6083 C6103 0.950 . S
H6084 C6105 0.950 . S
H6085 C6108 0.950 . S
H6086 C6109 0.950 . S
H6087 C6111 0.950 . S
H6088 C6112 0.950 . S
H6089 C6113 0.951 . S
H6090 C6115 0.951 . S
H6091 C6117 0.950 . S
H6092 C6118 0.950 . S
H6093 C6120 0.950 . S
H6094 C6123 0.950 . S
H6095 C6124 0.950 . S
H6096 C6126 0.950 . S
H6097 C6127 0.950 . S
C6098 H6080 0.951 . S
C6098 C6099 1.366 . S
C6098 C6100 1.388 . S
C6099 C6098 1.366 . S
C6099 C6103 1.385 . S
C6100 H6081 0.951 . S
C6100 C6098 1.388 . S
C6100 C6101 1.366 . S
C6101 C6100 1.366 . S
C6101 C6102 1.414 . S
C6101 C6104 1.499 . S
C6102 H6082 0.950 . S
C6102 C6101 1.414 . S
C6102 C6103 1.374 . S
C6103 H6083 0.950 . S
C6103 C6099 1.385 . S
C6103 C6102 1.374 . S
C6104 C6101 1.499 . S
C6104 C6105 1.373 . S
C6104 C6106 1.389 . S
C6105 H6084 0.950 . S
C6105 C6104 1.373 . S
C6105 C6121 1.377 . S
C6106 C6104 1.389 . S
C6106 C6107 1.524 . S
C6106 C6120 1.377 . S
C6107 C6106 1.524 . S
C6107 C6108 1.397 . S
C6107 C6112 1.363 . S
C6108 H6085 0.950 . S
C6108 C6107 1.397 . S
C6108 C6109 1.334 . S
C6109 H6086 0.950 . S
C6109 C6108 1.334 . S
C6109 C6110 1.287 . S
C6110 C6109 1.287 . S
C6110 C6111 1.524 . S
C6110 H6129 0.913 . S
C6111 H6087 0.950 . S
C6111 C6110 1.524 . S
C6111 C6112 1.415 . S
C6112 H6088 0.950 . S
C6112 C6107 1.363 . S
C6112 C6111 1.415 . S
C6113 H6089 0.951 . S
C6113 C6114 1.366 . S
C6113 C6115 1.388 . S
C6114 C6113 1.366 . S
C6114 C6118 1.385 . S
C6115 H6090 0.951 . S
C6115 C6113 1.388 . S
C6115 C6116 1.366 . S
C6116 C6115 1.366 . S
C6116 C6117 1.414 . S
C6116 C6119 1.499 . S
C6117 H6091 0.950 . S
C6117 C6116 1.414 . S
C6117 C6118 1.374 . S
C6118 H6092 0.950 . S
C6118 C6114 1.385 . S
C6118 C6117 1.374 . S
C6119 C6116 1.499 . S
C6119 C6120 1.373 . S
C6119 C6121 1.389 . S
C6120 H6093 0.950 . S
C6120 C6106 1.377 . S
C6120 C6119 1.373 . S
C6121 C6105 1.377 . S
C6121 C6119 1.389 . S
C6121 C6122 1.524 . S
C6122 C6121 1.524 . S
C6122 C6123 1.397 . S
C6122 C6127 1.363 . S
C6123 H6094 0.950 . S
C6123 C6122 1.397 . S
C6123 C6124 1.334 . S
C6124 H6095 0.950 . S
C6124 C6123 1.334 . S
C6124 C6125 1.287 . S
C6125 C6124 1.287 . S
C6125 C6126 1.524 . S
C6125 H6128 0.999 . S
C6126 H6096 0.950 . S
C6126 C6125 1.524 . S
C6126 C6127 1.415 . S
C6127 H6097 0.950 . S
C6127 C6122 1.363 . S
C6127 C6126 1.415 . S
H6128 C6125 0.999 . S
H6129 C6110 0.913 . S
H6130 C6148 0.951 . S
H6131 C6150 0.951 . S
H6132 C6152 0.950 . S
H6133 C6153 0.950 . S
H6134 C6155 0.950 . S
H6135 C6158 0.950 . S
H6136 C6159 0.950 . S
H6137 C6161 0.950 . S
H6138 C6162 0.950 . S
H6139 C6163 0.992 . S
H6140 C6165 0.951 . S
H6141 C6167 0.950 . S
H6142 C6168 0.950 . S
H6143 C6170 0.950 . S
H6144 C6173 0.950 . S
H6145 C6174 0.950 . S
H6146 C6176 0.950 . S
H6147 C6177 0.950 . S
C6148 H6130 0.951 . S
C6148 C6149 1.366 . S
C6148 C6150 1.388 . S
C6149 C6148 1.366 . S
C6149 C6153 1.385 . S
C6150 H6131 0.951 . S
C6150 C6148 1.388 . S
C6150 C6151 1.366 . S
C6151 C6150 1.366 . S
C6151 C6152 1.414 . S
C6151 C6154 1.499 . S
C6152 H6132 0.950 . S
C6152 C6151 1.414 . S
C6152 C6153 1.374 . S
C6153 H6133 0.950 . S
C6153 C6149 1.385 . S
C6153 C6152 1.374 . S
C6154 C6151 1.499 . S
C6154 C6155 1.373 . S
C6154 C6156 1.389 . S
C6155 H6134 0.950 . S
C6155 C6154 1.373 . S
C6155 C6171 1.377 . S
C6156 C6154 1.389 . S
C6156 C6157 1.524 . S
C6156 C6170 1.377 . S
C6157 C6156 1.524 . S
C6157 C6158 1.397 . S
C6157 C6162 1.363 . S
C6158 H6135 0.950 . S
C6158 C6157 1.397 . S
C6158 C6159 1.334 . S
C6159 H6136 0.950 . S
C6159 C6158 1.334 . S
C6159 C6160 1.287 . S
C6160 C6159 1.287 . S
C6160 C6161 1.524 . S
C6160 H6179 0.913 . S
C6161 H6137 0.950 . S
C6161 C6160 1.524 . S
C6161 C6162 1.415 . S
C6162 H6138 0.950 . S
C6162 C6157 1.363 . S
C6162 C6161 1.415 . S
C6163 H6139 0.992 . S
C6163 C6164 1.343 1_545 S
C6163 C6165 1.370 1_545 S
C6164 C6163 1.343 1_565 S
C6164 C6168 1.385 . S
C6165 H6140 0.951 . S
C6165 C6163 1.370 1_565 S
C6165 C6166 1.366 . S
C6166 C6165 1.366 . S
C6166 C6167 1.414 . S
C6166 C6169 1.499 . S
C6167 H6141 0.950 . S
C6167 C6166 1.414 . S
C6167 C6168 1.374 . S
C6168 H6142 0.950 . S
C6168 C6164 1.385 . S
C6168 C6167 1.374 . S
C6169 C6166 1.499 . S
C6169 C6170 1.373 . S
C6169 C6171 1.389 . S
C6170 H6143 0.950 . S
C6170 C6156 1.377 . S
C6170 C6169 1.373 . S
C6171 C6155 1.377 . S
C6171 C6169 1.389 . S
C6171 C6172 1.524 . S
C6172 C6171 1.524 . S
C6172 C6173 1.397 . S
C6172 C6177 1.363 . S
C6173 H6144 0.950 . S
C6173 C6172 1.397 . S
C6173 C6174 1.334 . S
C6174 H6145 0.950 . S
C6174 C6173 1.334 . S
C6174 C6175 1.287 1_565 S
C6175 C6174 1.287 1_545 S
C6175 C6176 1.524 . S
C6175 H6178 0.999 . S
C6176 H6146 0.950 . S
C6176 C6175 1.524 . S
C6176 C6177 1.415 1_545 S
C6177 H6147 0.950 . S
C6177 C6172 1.363 . S
C6177 C6176 1.415 1_565 S
H6178 C6175 0.999 . S
H6179 C6160 0.913 . S
H6180 C6198 0.951 . S
H6181 C6200 0.951 . S
H6182 C6202 0.950 . S
H6183 C6203 0.950 . S
H6184 C6205 0.950 . S
H6185 C6208 0.950 . S
H6186 C6209 0.950 . S
H6187 C6211 0.950 . S
H6188 C6212 0.950 . S
H6189 C6213 0.951 . S
H6190 C6215 0.951 . S
H6191 C6217 0.950 . S
H6192 C6218 0.950 . S
H6193 C6220 0.950 . S
H6194 C6223 0.950 . S
H6195 C6224 0.950 . S
H6196 C6226 0.950 . S
H6197 C6227 0.950 . S
C6198 H6180 0.951 . S
C6198 C6199 1.366 . S
C6198 C6200 1.388 . S
C6199 C6198 1.366 . S
C6199 C6203 1.385 . S
C6200 H6181 0.951 . S
C6200 C6198 1.388 . S
C6200 C6201 1.366 . S
C6201 C6200 1.366 . S
C6201 C6202 1.414 . S
C6201 C6204 1.499 . S
C6202 H6182 0.950 . S
C6202 C6201 1.414 . S
C6202 C6203 1.374 . S
C6203 H6183 0.950 . S
C6203 C6199 1.385 . S
C6203 C6202 1.374 . S
C6204 C6201 1.499 . S
C6204 C6205 1.373 . S
C6204 C6206 1.389 . S
C6205 H6184 0.950 . S
C6205 C6204 1.373 . S
C6205 C6221 1.377 . S
C6206 C6204 1.389 . S
C6206 C6207 1.524 . S
C6206 C6220 1.377 . S
C6207 C6206 1.524 . S
C6207 C6208 1.397 . S
C6207 C6212 1.363 . S
C6208 H6185 0.950 . S
C6208 C6207 1.397 . S
C6208 C6209 1.334 . S
C6209 H6186 0.950 . S
C6209 C6208 1.334 . S
C6209 C6210 1.287 . S
C6210 C6209 1.287 . S
C6210 C6211 1.524 . S
C6210 H6229 0.913 . S
C6211 H6187 0.950 . S
C6211 C6210 1.524 . S
C6211 C6212 1.415 . S
C6212 H6188 0.950 . S
C6212 C6207 1.363 . S
C6212 C6211 1.415 . S
C6213 H6189 0.951 . S
C6213 C6214 1.366 . S
C6213 C6215 1.388 . S
C6214 C6213 1.366 . S
C6214 C6218 1.385 . S
C6215 H6190 0.951 . S
C6215 C6213 1.388 . S
C6215 C6216 1.366 . S
C6216 C6215 1.366 . S
C6216 C6217 1.414 . S
C6216 C6219 1.499 . S
C6217 H6191 0.950 . S
C6217 C6216 1.414 . S
C6217 C6218 1.374 . S
C6218 H6192 0.950 . S
C6218 C6214 1.385 . S
C6218 C6217 1.374 . S
C6219 C6216 1.499 . S
C6219 C6220 1.373 . S
C6219 C6221 1.389 . S
C6220 H6193 0.950 . S
C6220 C6206 1.377 . S
C6220 C6219 1.373 . S
C6221 C6205 1.377 . S
C6221 C6219 1.389 . S
C6221 C6222 1.524 . S
C6222 C6221 1.524 . S
C6222 C6223 1.397 . S
C6222 C6227 1.363 . S
C6223 H6194 0.950 . S
C6223 C6222 1.397 . S
C6223 C6224 1.334 . S
C6224 H6195 0.950 . S
C6224 C6223 1.334 . S
C6224 C6225 1.287 . S
C6225 C6224 1.287 . S
C6225 C6226 1.524 . S
C6225 H6228 0.999 . S
C6226 H6196 0.950 . S
C6226 C6225 1.524 . S
C6226 C6227 1.415 . S
C6227 H6197 0.950 . S
C6227 C6222 1.363 . S
C6227 C6226 1.415 . S
H6228 C6225 0.999 . S
H6229 C6210 0.913 . S
H6230 C6248 0.951 . S
H6231 C6250 0.951 . S
H6232 C6252 0.950 . S
H6233 C6253 0.950 . S
H6234 C6255 0.950 . S
H6235 C6258 0.950 . S
H6236 C6259 0.950 . S
H6237 C6261 0.950 . S
H6238 C6262 0.950 . S
H6239 C6263 0.951 . S
H6240 C6265 0.951 . S
H6241 C6267 0.950 . S
H6242 C6268 0.950 . S
H6243 C6270 0.950 . S
H6244 C6273 0.950 1_554 S
H6245 C6274 0.950 . S
H6246 C6276 0.950 . S
H6247 C6277 0.950 . S
C6248 H6230 0.951 . S
C6248 C6249 1.366 . S
C6248 C6250 1.388 . S
C6249 C6248 1.366 . S
C6249 C6253 1.385 . S
C6250 H6231 0.951 . S
C6250 C6248 1.388 . S
C6250 C6251 1.366 . S
C6251 C6250 1.366 . S
C6251 C6252 1.414 . S
C6251 C6254 1.499 . S
C6252 H6232 0.950 . S
C6252 C6251 1.414 . S
C6252 C6253 1.374 . S
C6253 H6233 0.950 . S
C6253 C6249 1.385 . S
C6253 C6252 1.374 . S
C6254 C6251 1.499 . S
C6254 C6255 1.373 . S
C6254 C6256 1.389 . S
C6255 H6234 0.950 . S
C6255 C6254 1.373 . S
C6255 C6271 1.377 . S
C6256 C6254 1.389 . S
C6256 C6257 1.524 . S
C6256 C6270 1.377 . S
C6257 C6256 1.524 . S
C6257 C6258 1.397 . S
C6257 C6262 1.363 . S
C6258 H6235 0.950 . S
C6258 C6257 1.397 . S
C6258 C6259 1.334 . S
C6259 H6236 0.950 . S
C6259 C6258 1.334 . S
C6259 C6260 1.287 . S
C6260 C6259 1.287 . S
C6260 C6261 1.524 . S
C6260 H6279 0.913 . S
C6261 H6237 0.950 . S
C6261 C6260 1.524 . S
C6261 C6262 1.415 . S
C6262 H6238 0.950 . S
C6262 C6257 1.363 . S
C6262 C6261 1.415 . S
C6263 H6239 0.951 . S
C6263 C6264 1.366 . S
C6263 C6265 1.388 . S
C6264 C6263 1.366 . S
C6264 C6268 1.385 . S
C6265 H6240 0.951 . S
C6265 C6263 1.388 . S
C6265 C6266 1.366 . S
C6266 C6265 1.366 . S
C6266 C6267 1.414 . S
C6266 C6269 1.499 . S
C6267 H6241 0.950 . S
C6267 C6266 1.414 . S
C6267 C6268 1.374 . S
C6268 H6242 0.950 . S
C6268 C6264 1.385 . S
C6268 C6267 1.374 . S
C6269 C6266 1.499 . S
C6269 C6270 1.373 . S
C6269 C6271 1.389 . S
C6270 H6243 0.950 . S
C6270 C6256 1.377 . S
C6270 C6269 1.373 . S
C6271 C6255 1.377 . S
C6271 C6269 1.389 . S
C6271 C6272 1.524 1_554 S
C6272 C6271 1.524 1_556 S
C6272 C6273 1.397 . S
C6272 C6277 1.363 . S
C6273 H6244 0.950 1_556 S
C6273 C6272 1.397 . S
C6273 C6274 1.334 . S
C6274 H6245 0.950 . S
C6274 C6273 1.334 . S
C6274 C6275 1.287 . S
C6275 C6274 1.287 . S
C6275 C6276 1.524 . S
C6275 H6278 0.999 . S
C6276 H6246 0.950 . S
C6276 C6275 1.524 . S
C6276 C6277 1.415 . S
C6277 H6247 0.950 . S
C6277 C6272 1.363 . S
C6277 C6276 1.415 . S
H6278 C6275 0.999 . S
H6279 C6260 0.913 . S
H6280 C6298 0.951 . S
H6281 C6300 0.951 . S
H6282 C6302 0.950 . S
H6283 C6303 0.950 . S
H6284 C6305 0.950 . S
H6285 C6308 0.950 . S
H6286 C6309 0.950 . S
H6287 C6311 0.950 . S
H6288 C6312 0.950 . S
H6289 C6313 0.951 . S
H6290 C6315 0.951 . S
H6291 C6317 0.950 . S
H6292 C6318 0.950 . S
H6293 C6320 0.950 . S
H6294 C6323 0.950 . S
H6295 C6324 0.950 . S
H6296 C6326 0.950 . S
H6297 C6327 0.950 . S
C6298 H6280 0.951 . S
C6298 C6299 1.366 . S
C6298 C6300 1.388 . S
C6299 C6298 1.366 . S
C6299 C6303 1.385 . S
C6300 H6281 0.951 . S
C6300 C6298 1.388 . S
C6300 C6301 1.366 . S
C6301 C6300 1.366 . S
C6301 C6302 1.414 . S
C6301 C6304 1.499 . S
C6302 H6282 0.950 . S
C6302 C6301 1.414 . S
C6302 C6303 1.374 . S
C6303 H6283 0.950 . S
C6303 C6299 1.385 . S
C6303 C6302 1.374 . S
C6304 C6301 1.499 . S
C6304 C6305 1.373 . S
C6304 C6306 1.389 . S
C6305 H6284 0.950 . S
C6305 C6304 1.373 . S
C6305 C6321 1.377 . S
C6306 C6304 1.389 . S
C6306 C6307 1.524 . S
C6306 C6320 1.377 . S
C6307 C6306 1.524 . S
C6307 C6308 1.397 . S
C6307 C6312 1.363 . S
C6308 H6285 0.950 . S
C6308 C6307 1.397 . S
C6308 C6309 1.334 . S
C6309 H6286 0.950 . S
C6309 C6308 1.334 . S
C6309 C6310 1.287 . S
C6310 C6309 1.287 . S
C6310 C6311 1.524 . S
C6310 H6329 0.913 . S
C6311 H6287 0.950 . S
C6311 C6310 1.524 . S
C6311 C6312 1.415 . S
C6312 H6288 0.950 . S
C6312 C6307 1.363 . S
C6312 C6311 1.415 . S
C6313 H6289 0.951 . S
C6313 C6314 1.366 . S
C6313 C6315 1.388 . S
C6314 C6313 1.366 . S
C6314 C6318 1.385 . S
C6315 H6290 0.951 . S
C6315 C6313 1.388 . S
C6315 C6316 1.366 . S
C6316 C6315 1.366 . S
C6316 C6317 1.414 . S
C6316 C6319 1.499 . S
C6317 H6291 0.950 . S
C6317 C6316 1.414 . S
C6317 C6318 1.374 . S
C6318 H6292 0.950 . S
C6318 C6314 1.385 . S
C6318 C6317 1.374 . S
C6319 C6316 1.499 . S
C6319 C6320 1.373 . S
C6319 C6321 1.389 . S
C6320 H6293 0.950 . S
C6320 C6306 1.377 . S
C6320 C6319 1.373 . S
C6321 C6305 1.377 . S
C6321 C6319 1.389 . S
C6321 C6322 1.524 . S
C6322 C6321 1.524 . S
C6322 C6323 1.397 . S
C6322 C6327 1.363 . S
C6323 H6294 0.950 . S
C6323 C6322 1.397 . S
C6323 C6324 1.334 . S
C6324 H6295 0.950 . S
C6324 C6323 1.334 . S
C6324 C6325 1.287 . S
C6325 C6324 1.287 . S
C6325 C6326 1.524 . S
C6325 H6328 0.999 . S
C6326 H6296 0.950 . S
C6326 C6325 1.524 . S
C6326 C6327 1.415 . S
C6327 H6297 0.950 . S
C6327 C6322 1.363 . S
C6327 C6326 1.415 . S
H6328 C6325 0.999 . S
H6329 C6310 0.913 . S
H6330 C6348 0.951 . S
H6331 C6350 0.951 . S
H6332 C6352 0.950 . S
H6333 C6353 0.950 . S
H6334 C6355 0.950 . S
H6335 C6358 0.950 . S
H6336 C6359 0.950 . S
H6337 C6361 0.950 . S
H6338 C6362 0.948 1_554 S
H6339 C6363 0.951 . S
H6340 C6365 0.951 . S
H6341 C6367 0.950 . S
H6342 C6368 0.950 . S
H6343 C6370 0.950 . S
H6344 C6373 0.950 . S
H6345 C6374 0.950 . S
H6346 C6376 0.950 . S
H6347 C6377 0.950 . S
C6348 H6330 0.951 . S
C6348 C6349 1.366 . S
C6348 C6350 1.388 . S
C6349 C6348 1.366 . S
C6349 C6353 1.385 . S
C6350 H6331 0.951 . S
C6350 C6348 1.388 . S
C6350 C6351 1.366 . S
C6351 C6350 1.366 . S
C6351 C6352 1.414 . S
C6351 C6354 1.499 . S
C6352 H6332 0.950 . S
C6352 C6351 1.414 . S
C6352 C6353 1.374 . S
C6353 H6333 0.950 . S
C6353 C6349 1.385 . S
C6353 C6352 1.374 . S
C6354 C6351 1.499 . S
C6354 C6355 1.373 . S
C6354 C6356 1.389 . S
C6355 H6334 0.950 . S
C6355 C6354 1.373 . S
C6355 C6371 1.377 . S
C6356 C6354 1.389 . S
C6356 C6357 1.524 . S
C6356 C6370 1.377 . S
C6357 C6356 1.524 . S
C6357 C6358 1.397 1_554 S
C6357 C6362 1.363 1_554 S
C6358 H6335 0.950 . S
C6358 C6357 1.397 1_556 S
C6358 C6359 1.334 . S
C6359 H6336 0.950 . S
C6359 C6358 1.334 . S
C6359 C6360 1.287 . S
C6360 C6359 1.287 . S
C6360 C6361 1.524 . S
C6360 H6379 0.913 . S
C6361 H6337 0.950 . S
C6361 C6360 1.524 . S
C6361 C6362 1.417 . S
C6362 H6338 0.948 1_556 S
C6362 C6357 1.363 1_556 S
C6362 C6361 1.417 . S
C6363 H6339 0.951 . S
C6363 C6364 1.366 . S
C6363 C6365 1.388 . S
C6364 C6363 1.366 . S
C6364 C6368 1.385 . S
C6365 H6340 0.951 . S
C6365 C6363 1.388 . S
C6365 C6366 1.366 . S
C6366 C6365 1.366 . S
C6366 C6367 1.414 . S
C6366 C6369 1.499 . S
C6367 H6341 0.950 . S
C6367 C6366 1.414 . S
C6367 C6368 1.374 . S
C6368 H6342 0.950 . S
C6368 C6364 1.385 . S
C6368 C6367 1.374 . S
C6369 C6366 1.499 . S
C6369 C6370 1.373 . S
C6369 C6371 1.389 . S
C6370 H6343 0.950 . S
C6370 C6356 1.377 . S
C6370 C6369 1.373 . S
C6371 C6355 1.377 . S
C6371 C6369 1.389 . S
C6371 C6372 1.524 . S
C6372 C6371 1.524 . S
C6372 C6373 1.397 . S
C6372 C6377 1.363 . S
C6373 H6344 0.950 . S
C6373 C6372 1.397 . S
C6373 C6374 1.334 . S
C6374 H6345 0.950 . S
C6374 C6373 1.334 . S
C6374 C6375 1.287 . S
C6375 C6374 1.287 . S
C6375 C6376 1.524 . S
C6375 H6378 0.999 . S
C6376 H6346 0.950 . S
C6376 C6375 1.524 . S
C6376 C6377 1.415 . S
C6377 H6347 0.950 . S
C6377 C6372 1.363 . S
C6377 C6376 1.415 . S
H6378 C6375 0.999 . S
H6379 C6360 0.913 . S
H6380 C6398 0.951 . S
H6381 C6400 0.951 . S
H6382 C6402 0.950 . S
H6383 C6403 0.950 . S
H6384 C6405 0.950 . S
H6385 C6408 0.950 . S
H6386 C6409 0.950 . S
H6387 C6411 0.950 . S
H6388 C6412 0.950 . S
H6389 C6413 0.951 . S
H6390 C6415 0.951 . S
H6391 C6417 0.950 . S
H6392 C6418 0.950 . S
H6393 C6420 0.950 . S
H6394 C6423 0.950 . S
H6395 C6424 0.950 . S
H6396 C6426 0.950 . S
H6397 C6427 0.950 . S
C6398 H6380 0.951 . S
C6398 C6399 1.366 . S
C6398 C6400 1.388 . S
C6399 C6398 1.366 . S
C6399 C6403 1.385 . S
C6400 H6381 0.951 . S
C6400 C6398 1.388 . S
C6400 C6401 1.366 . S
C6401 C6400 1.366 . S
C6401 C6402 1.414 . S
C6401 C6404 1.499 . S
C6402 H6382 0.950 . S
C6402 C6401 1.414 . S
C6402 C6403 1.374 . S
C6403 H6383 0.950 . S
C6403 C6399 1.385 . S
C6403 C6402 1.374 . S
C6404 C6401 1.499 . S
C6404 C6405 1.373 . S
C6404 C6406 1.389 . S
C6405 H6384 0.950 . S
C6405 C6404 1.373 . S
C6405 C6421 1.377 . S
C6406 C6404 1.389 . S
C6406 C6407 1.524 . S
C6406 C6420 1.377 . S
C6407 C6406 1.524 . S
C6407 C6408 1.397 . S
C6407 C6412 1.363 . S
C6408 H6385 0.950 . S
C6408 C6407 1.397 . S
C6408 C6409 1.334 . S
C6409 H6386 0.950 . S
C6409 C6408 1.334 . S
C6409 C6410 1.287 . S
C6410 C6409 1.287 . S
C6410 C6411 1.524 . S
C6410 H6429 0.913 . S
C6411 H6387 0.950 . S
C6411 C6410 1.524 . S
C6411 C6412 1.415 . S
C6412 H6388 0.950 . S
C6412 C6407 1.363 . S
C6412 C6411 1.415 . S
C6413 H6389 0.951 . S
C6413 C6414 1.366 . S
C6413 C6415 1.388 . S
C6414 C6413 1.366 . S
C6414 C6418 1.385 . S
C6415 H6390 0.951 . S
C6415 C6413 1.388 . S
C6415 C6416 1.366 . S
C6416 C6415 1.366 . S
C6416 C6417 1.414 . S
C6416 C6419 1.499 . S
C6417 H6391 0.950 . S
C6417 C6416 1.414 . S
C6417 C6418 1.374 . S
C6418 H6392 0.950 . S
C6418 C6414 1.385 . S
C6418 C6417 1.374 . S
C6419 C6416 1.499 . S
C6419 C6420 1.373 . S
C6419 C6421 1.389 . S
C6420 H6393 0.950 . S
C6420 C6406 1.377 . S
C6420 C6419 1.373 . S
C6421 C6405 1.377 . S
C6421 C6419 1.389 . S
C6421 C6422 1.524 . S
C6422 C6421 1.524 . S
C6422 C6423 1.397 . S
C6422 C6427 1.363 . S
C6423 H6394 0.950 . S
C6423 C6422 1.397 . S
C6423 C6424 1.334 . S
C6424 H6395 0.950 . S
C6424 C6423 1.334 . S
C6424 C6425 1.287 . S
C6425 C6424 1.287 . S
C6425 C6426 1.524 . S
C6425 H6428 0.999 . S
C6426 H6396 0.950 . S
C6426 C6425 1.524 . S
C6426 C6427 1.415 . S
C6427 H6397 0.950 . S
C6427 C6422 1.363 . S
C6427 C6426 1.415 . S
H6428 C6425 0.999 . S
H6429 C6410 0.913 . S
H6430 C6448 0.951 . S
H6431 C6450 0.951 . S
H6432 C6452 0.950 . S
H6433 C6453 0.950 . S
H6434 C6455 0.950 . S
H6435 C6458 0.950 . S
H6436 C6459 0.950 . S
H6437 C6461 0.950 . S
H6438 C6462 0.950 . S
H6439 C6463 0.951 . S
H6440 C6465 0.951 . S
H6441 C6467 0.950 . S
H6442 C6468 0.950 . S
H6443 C6470 0.950 . S
H6444 C6473 0.950 . S
H6445 C6474 0.950 . S
H6446 C6476 0.950 . S
H6447 C6477 0.950 . S
C6448 H6430 0.951 . S
C6448 C6449 1.366 . S
C6448 C6450 1.388 . S
C6449 C6448 1.366 . S
C6449 C6453 1.385 . S
C6450 H6431 0.951 . S
C6450 C6448 1.388 . S
C6450 C6451 1.366 . S
C6451 C6450 1.366 . S
C6451 C6452 1.414 . S
C6451 C6454 1.499 . S
C6452 H6432 0.950 . S
C6452 C6451 1.414 . S
C6452 C6453 1.374 . S
C6453 H6433 0.950 . S
C6453 C6449 1.385 . S
C6453 C6452 1.374 . S
C6454 C6451 1.499 . S
C6454 C6455 1.373 . S
C6454 C6456 1.389 . S
C6455 H6434 0.950 . S
C6455 C6454 1.373 . S
C6455 C6471 1.377 . S
C6456 C6454 1.389 . S
C6456 C6457 1.524 . S
C6456 C6470 1.377 . S
C6457 C6456 1.524 . S
C6457 C6458 1.397 . S
C6457 C6462 1.363 . S
C6458 H6435 0.950 . S
C6458 C6457 1.397 . S
C6458 C6459 1.334 . S
C6459 H6436 0.950 . S
C6459 C6458 1.334 . S
C6459 C6460 1.287 . S
C6460 C6459 1.287 . S
C6460 C6461 1.524 . S
C6460 H6479 0.913 . S
C6461 H6437 0.950 . S
C6461 C6460 1.524 . S
C6461 C6462 1.415 . S
C6462 H6438 0.950 . S
C6462 C6457 1.363 . S
C6462 C6461 1.415 . S
C6463 H6439 0.951 . S
C6463 C6464 1.366 . S
C6463 C6465 1.388 . S
C6464 C6463 1.366 . S
C6464 C6468 1.385 . S
C6465 H6440 0.951 . S
C6465 C6463 1.388 . S
C6465 C6466 1.366 . S
C6466 C6465 1.366 . S
C6466 C6467 1.414 . S
C6466 C6469 1.499 . S
C6467 H6441 0.950 . S
C6467 C6466 1.414 . S
C6467 C6468 1.374 . S
C6468 H6442 0.950 . S
C6468 C6464 1.385 . S
C6468 C6467 1.374 . S
C6469 C6466 1.499 . S
C6469 C6470 1.373 . S
C6469 C6471 1.389 . S
C6470 H6443 0.950 . S
C6470 C6456 1.377 . S
C6470 C6469 1.373 . S
C6471 C6455 1.377 . S
C6471 C6469 1.389 . S
C6471 C6472 1.524 . S
C6472 C6471 1.524 . S
C6472 C6473 1.397 . S
C6472 C6477 1.363 . S
C6473 H6444 0.950 . S
C6473 C6472 1.397 . S
C6473 C6474 1.334 . S
C6474 H6445 0.950 . S
C6474 C6473 1.334 . S
C6474 C6475 1.287 . S
C6475 C6474 1.287 . S
C6475 C6476 1.524 . S
C6475 H6478 0.999 . S
C6476 H6446 0.950 . S
C6476 C6475 1.524 . S
C6476 C6477 1.415 . S
C6477 H6447 0.950 . S
C6477 C6472 1.363 . S
C6477 C6476 1.415 . S
H6478 C6475 0.999 . S
H6479 C6460 0.913 . S
C1699 C109 1.935 1_455 S
C1714 C392 1.955 . S
C1749 C65 1.833 . S
C1764 C494 1.815 . S
C1799 C75 1.801 . S
C1814 C560 1.804 . S
C1864 C646 1.483 . S
C1849 C84 1.596 . S
C1899 C25 1.569 . S
C1914 C730 1.466 . S
C1964 C812 1.739 . S
C1949 C28 1.735 . S
C2014 C914 1.841 . S
C1999 C47 1.847 . S
C2049 C9 1.937 . S
C2064 C980 1.960 . S
C2114 C410 1.620 . S
C2099 C233 1.653 . S
C2149 C249 0.833 . S
C2164 C478 0.817 . S
C2214 C578 1.109 . S
C2199 C275 1.123 . S
C2264 C644 1.608 . S
C2249 C173 1.654 . S
C2299 C224 1.652 . S
C2314 C728 1.659 . S
C2364 C830 1.112 . S
C2349 C243 1.121 . S
C2414 C898 0.850 . S
C2399 C266 0.880 . S
C2464 C998 1.473 . S
C2449 C179 1.501 . S
C2514 C394 0.905 1_565 S
C2499 C163 0.935 . S
C2549 C289 1.672 . S
C2564 C1082 1.646 . S
C2614 C1150 1.251 . S
C2599 C333 1.320 . S
C2664 C1232 0.732 . S
C2649 C308 0.732 . S
C2699 C123 0.903 . S
C2714 C982 0.883 . S
C2749 C126 1.404 . S
C2764 C562 1.333 . S
C2799 C327 1.704 . S
C2814 C1334 1.685 . S
C2864 C1400 0.867 . S
C2849 C299 0.867 . S
C2914 C403 1.978 . S
C2899 C67 1.978 . S
C2964 C1407 1.857 . S
C2949 C98 1.839 . S
C2999 C89 1.839 . S
C3014 C571 1.843 . S
C3049 C79 1.656 . S
C3064 C1329 1.527 . S
C3114 C741 1.490 . S
C3099 C11 1.602 . S
C3149 C51 1.771 . S
C3164 C1159 1.788 . S
C3214 C903 1.899 1_556 S
C3199 C33 1.908 . S
C3264 C1495 1.973 . S
C3249 C14 1.977 . S
C3314 C399 1.618 . S
C3299 C140 1.659 . S
C3364 C1413 0.832 . S
C3349 C319 0.856 . S
C3399 C112 1.135 . S
C3414 C567 1.135 . S
C3449 C285 1.639 . S
C3464 C1327 1.638 . S
C3499 C149 1.703 . S
C3514 C739 1.707 . S
C3564 C1155 1.167 . S
C3549 C313 1.178 . S
C3599 C121 0.953 . S
C3614 C909 0.905 . S
C3649 C291 1.554 . S
C3664 C1491 1.523 . S
C3699 C182 0.937 . S
C3714 C405 0.904 . S
C3749 C168 1.680 . S
C3764 C1071 1.675 . S
C3799 C263 1.363 . S
C3814 C825 1.282 . S
C3849 C247 0.794 . S
C3864 C1243 0.795 . S
C3914 C1497 0.882 . S
C3899 C277 0.910 1_565 S
C3949 C219 1.449 . S
C3964 C573 1.354 . S
C4014 C651 1.734 . S
C3999 C257 1.755 . S
C4064 C487 0.883 . S
C4049 C201 0.884 . S
C4099 C81 1.948 . S
C4114 C1568 1.955 . S
C4164 C1418 1.815 . S
C4149 C93 1.832 . S
C4199 C103 1.801 . S
C4214 C1652 1.804 . S
C4249 C56 1.646 . S
C4264 C1318 1.483 . S
C4299 C53 1.569 . S
C4314 C1066 1.464 . S
C4364 C1148 1.739 . S
C4349 C0 1.735 1_655 S
C4414 C1250 1.840 . S
C4399 C19 1.848 . S
C4464 C1484 1.960 . S
C4449 C37 1.937 . S
C4514 C1586 1.621 . S
C4499 C261 1.653 . S
C4549 C193 0.833 1_556 S
C4564 C1402 0.816 . S
C4614 C1670 1.109 . S
C4599 C205 1.123 . S
C4664 C1316 1.608 . S
C4649 C215 1.610 . S
C4714 C1064 1.658 . S
C4699 C252 1.652 . S
C4749 C187 1.121 . S
C4764 C1166 1.112 . S
C4814 C1234 0.850 . S
C4799 C196 0.879 . S
C4849 C221 1.501 . S
C4864 C1502 1.474 . S
C4914 C1570 0.909 . S
C4899 C317 0.934 . S
C4949 C135 1.672 . S
C4964 C746 1.647 . S
C5014 C814 1.251 . S
C4999 C151 1.366 . S
C5064 C896 0.732 . S
C5049 C154 0.733 . S
C5114 C1486 0.881 . S
C5099 C305 0.904 . S
C5149 C280 1.404 . S
C5164 C1654 1.332 . S
C5214 C662 1.685 . S
C5199 C145 1.704 . S
C5264 C476 0.867 . S
C5249 C117 0.867 . S
C5299 C95 1.978 . S
C5314 C1579 1.978 . S
C5364 C483 1.857 . S
C5349 C70 1.838 . S
C5399 C61 1.839 . S
C5414 C1663 1.843 . S
C5449 C107 1.656 . S
C5464 C657 1.527 . S
C5499 C39 1.602 . S
C5514 C1077 1.490 . S
C5564 C823 1.789 . S
C5549 C23 1.772 . S
C5599 C5 1.908 . S
C5614 C1239 1.899 . S
C5649 C42 1.977 . S
C5664 C991 1.973 . S
C5714 C1575 1.618 . S
C5699 C322 1.659 . S
C5749 C165 0.855 . S
C5764 C489 0.828 . S
C5814 C1659 1.128 1_655 S
C5799 C294 1.136 . S
C5849 C131 1.639 . S
C5864 C655 1.638 . S
C5899 C331 1.703 . S
C5914 C1075 1.707 . S
C5964 C819 1.169 . S
C5949 C159 1.185 . S
C5999 C303 0.953 . S
C6014 C1245 0.908 . S
C6064 C987 1.523 . S
C6049 C137 1.554 . S
C6114 C1581 0.904 . S
C6099 C238 0.937 . S
C6164 C735 1.675 1_565 S
C6149 C210 1.679 . S
C6199 C235 1.363 . S
C6214 C1161 1.284 . S
C6264 C907 0.795 . S
C6249 C191 0.793 . S
C6299 C207 0.909 . S
C6314 C993 0.885 . S
C6349 C177 1.449 . S
C6364 C1665 1.352 . S
C6414 C1323 1.734 . S
C6399 C229 1.755 . S
C6464 C1411 0.883 . S
C6449 C271 0.884 . S
