# Generated by pormake.
# Topology zzz, (3,6)-cn, num edge types: 1
# Building blocks:
#     Node 0, Type 0, BuildingBlock: OLANEW_clean_sbu_2, # of connection points: 3
#     Node 1, Type 0, BuildingBlock: OLANEW_clean_sbu_2, # of connection points: 3
#     Node 2, Type 0, BuildingBlock: OLANEW_clean_sbu_2, # of connection points: 3
#     Node 3, Type 0, BuildingBlock: OLANEW_clean_sbu_2, # of connection points: 3
#     Node 4, Type 0, BuildingBlock: OLANEW_clean_sbu_2, # of connection points: 3
#     Node 5, Type 0, BuildingBlock: OLANEW_clean_sbu_2, # of connection points: 3
#     Node 6, Type 0, BuildingBlock: OLANEW_clean_sbu_2, # of connection points: 3
#     Node 7, Type 0, BuildingBlock: OLANEW_clean_sbu_2, # of connection points: 3
#     Node 8, Type 1, BuildingBlock: NUHQIS_clean_sbu_0, # of connection points: 6
#     Node 9, Type 1, BuildingBlock: NUHQIS_clean_sbu_0, # of connection points: 6
#     Node 10, Type 1, BuildingBlock: NUHQIS_clean_sbu_0, # of connection points: 6
#     Node 11, Type 1, BuildingBlock: NUHQIS_clean_sbu_0, # of connection points: 6
#     Edge 12, Type (0, 1), BuildingBlock: MIFKUJ_clean_linker_0, # of connection points: 2
#     Edge 13, Type (0, 1), BuildingBlock: MIFKUJ_clean_linker_0, # of connection points: 2
#     Edge 14, Type (0, 1), BuildingBlock: MIFKUJ_clean_linker_0, # of connection points: 2
#     Edge 15, Type (0, 1), BuildingBlock: MIFKUJ_clean_linker_0, # of connection points: 2
#     Edge 16, Type (0, 1), BuildingBlock: MIFKUJ_clean_linker_0, # of connection points: 2
#     Edge 17, Type (0, 1), BuildingBlock: MIFKUJ_clean_linker_0, # of connection points: 2
#     Edge 18, Type (0, 1), BuildingBlock: MIFKUJ_clean_linker_0, # of connection points: 2
#     Edge 19, Type (0, 1), BuildingBlock: MIFKUJ_clean_linker_0, # of connection points: 2
#     Edge 20, Type (0, 1), BuildingBlock: MIFKUJ_clean_linker_0, # of connection points: 2
#     Edge 21, Type (0, 1), BuildingBlock: MIFKUJ_clean_linker_0, # of connection points: 2
#     Edge 22, Type (0, 1), BuildingBlock: MIFKUJ_clean_linker_0, # of connection points: 2
#     Edge 23, Type (0, 1), BuildingBlock: MIFKUJ_clean_linker_0, # of connection points: 2
#     Edge 24, Type (0, 1), BuildingBlock: MIFKUJ_clean_linker_0, # of connection points: 2
#     Edge 25, Type (0, 1), BuildingBlock: MIFKUJ_clean_linker_0, # of connection points: 2
#     Edge 26, Type (0, 1), BuildingBlock: MIFKUJ_clean_linker_0, # of connection points: 2
#     Edge 27, Type (0, 1), BuildingBlock: MIFKUJ_clean_linker_0, # of connection points: 2
#     Edge 28, Type (0, 1), BuildingBlock: MIFKUJ_clean_linker_0, # of connection points: 2
#     Edge 29, Type (0, 1), BuildingBlock: MIFKUJ_clean_linker_0, # of connection points: 2
#     Edge 30, Type (0, 1), BuildingBlock: MIFKUJ_clean_linker_0, # of connection points: 2
#     Edge 31, Type (0, 1), BuildingBlock: MIFKUJ_clean_linker_0, # of connection points: 2
#     Edge 32, Type (0, 1), BuildingBlock: MIFKUJ_clean_linker_0, # of connection points: 2
#     Edge 33, Type (0, 1), BuildingBlock: MIFKUJ_clean_linker_0, # of connection points: 2
#     Edge 34, Type (0, 1), BuildingBlock: MIFKUJ_clean_linker_0, # of connection points: 2
#     Edge 35, Type (0, 1), BuildingBlock: MIFKUJ_clean_linker_0, # of connection points: 2
# Relax obj value: 0.197
# Max RMSD: 0.146
# Mean RMSD: 0.144
data_MOF--net-zzz--node1-OLANEW_clean_sbu_2--node2-NUHQIS_clean_sbu_0--edge1-MIFKUJ_clean_linker_0
_symmetry_space_group_name_H-M    P1
_symmetry_Int_Tables_number       1
_symmetry_cell_setting            triclinic
loop_
_symmetry_equiv_pos_as_xyz
'x, y, z'
_cell_length_a     71.595997
_cell_length_b     71.607069
_cell_length_c     20.090765
_cell_angle_alpha  89.995979
_cell_angle_beta   90.020496
_cell_angle_gamma 90.00865
loop_
_atom_site_label
_atom_site_type_symbol
_atom_site_fract_x
_atom_site_fract_y
_atom_site_fract_z
_atom_type_partial_charge
O0 O 0.75558 0.5817 0.15293 0.0
Cd1 Cd 0.7271 0.59965 0.17148 0.0
O2 O 0.74324 0.55841 0.20904 0.0
Cd3 Cd 0.74913 0.53234 0.26008 0.0
O4 O 0.77403 0.52323 0.31231 0.0
C5 C 0.77452 0.51791 0.37257 0.0
O6 O 0.75888 0.51619 0.40621 0.0
C7 C 0.75682 0.5653 0.17653 0.0
C8 C 0.69631 0.58207 0.11439 0.0
O9 O 0.706 0.59395 0.08148 0.0
O10 O 0.70115 0.57855 0.17453 0.0
O11 O 0.91536 0.74606 0.12573 0.0
Cd12 Cd 0.89844 0.7183 0.16236 0.0
O13 O 0.93606 0.74144 0.20452 0.0
Cd14 Cd 0.95836 0.75224 0.26739 0.0
O15 O 0.96851 0.7777 0.31347 0.0
C16 C 0.95603 0.7902 0.31934 0.0
O17 O 0.93899 0.78647 0.29892 0.0
C18 C 0.93007 0.75118 0.15605 0.0
C19 C 0.91193 0.6859 0.10291 0.0
O20 O 0.89916 0.6957 0.07498 0.0
O21 O 0.91835 0.69146 0.1591 0.0
O22 O 0.75882 0.93267 0.12845 0.0
Cd23 Cd 0.78637 0.91837 0.17877 0.0
O24 O 0.759 0.94909 0.21987 0.0
Cd25 Cd 0.74977 0.96913 0.29477 0.0
O26 O 0.7285 0.97605 0.36781 0.0
C27 C 0.71958 0.96198 0.38958 0.0
O28 O 0.72463 0.94523 0.36971 0.0
C29 C 0.75127 0.94513 0.16449 0.0
C30 C 0.8192 0.9316 0.12201 0.0
O31 O 0.81219 0.91593 0.10388 0.0
O32 O 0.81071 0.94098 0.16708 0.0
O33 O 0.55012 0.76239 0.17152 0.0
Cd34 Cd 0.55843 0.79126 0.22906 0.0
O35 O 0.53493 0.75706 0.26381 0.0
Cd36 Cd 0.52092 0.73894 0.33487 0.0
O37 O 0.51677 0.71414 0.39496 0.0
C38 C 0.5315 0.7053 0.41062 0.0
O39 O 0.54775 0.71192 0.39137 0.0
C40 C 0.53983 0.75168 0.20605 0.0
C41 C 0.54773 0.82317 0.16021 0.0
O42 O 0.56439 0.81675 0.15541 0.0
O43 O 0.53609 0.81441 0.19728 0.0
O44 O 0.2671 0.53989 0.17754 0.0
Cd45 Cd 0.29819 0.53973 0.1283 0.0
O46 O 0.262 0.5155 0.11484 0.0
Cd47 Cd 0.24633 0.49242 0.07101 0.0
O48 O 0.2228 0.48203 0.01347 0.0
C49 C 0.21672 0.49327 0.96961 0.0
O50 O 0.22553 0.50917 0.96046 0.0
C51 C 0.25601 0.52727 0.15732 0.0
C52 C 0.3249 0.52792 0.21949 0.0
O53 O 0.32163 0.54534 0.21052 0.0
O54 O 0.31554 0.51608 0.18514 0.0
O55 O 0.95898 0.2707 0.09825 0.0
Cd56 Cd 0.96277 0.29862 0.03025 0.0
O57 O 0.98822 0.2653 0.07261 0.0
Cd58 Cd 0.01182 0.24604 0.06712 0.0
O59 O 0.02526 0.21936 0.04628 0.0
C60 C 0.01533 0.2049 0.05578 0.0
O61 O 0.99821 0.20694 0.07796 0.0
C62 C 0.9735 0.26066 0.1039 0.0
C63 C 0.9744 0.32725 0.1137 0.0
O64 O 0.95715 0.32539 0.09804 0.0
O65 O 0.98624 0.31589 0.08828 0.0
O66 O 0.2392 0.95326 0.09292 0.0
Cd67 Cd 0.20837 0.95204 0.04203 0.0
O68 O 0.24155 0.98096 0.04811 0.0
Cd69 Cd 0.25624 0.00585 0.01421 0.0
O70 O 0.27744 0.02155 0.96098 0.0
C71 C 0.28565 0.01236 0.91554 0.0
O72 O 0.28039 0.99506 0.90423 0.0
C73 C 0.24863 0.96805 0.08364 0.0
C74 C 0.1823 0.96567 0.13214 0.0
O75 O 0.18582 0.94815 0.12823 0.0
O76 O 0.19091 0.97673 0.09245 0.0
O77 O 0.51449 0.23739 0.04745 0.0
Cd78 Cd 0.50714 0.20865 0.98774 0.0
O79 O 0.48883 0.23212 0.10428 0.0
Cd80 Cd 0.46665 0.24451 0.16411 0.0
O81 O 0.45813 0.27228 0.13258 0.0
C82 C 0.45945 0.27442 0.06997 0.0
O83 O 0.46363 0.25984 0.03317 0.0
C84 C 0.50299 0.24229 0.09229 0.0
C85 C 0.50246 0.17985 0.07891 0.0
O86 O 0.51808 0.1822 0.04892 0.0
O87 O 0.48895 0.19088 0.06476 0.0
Tb88 Tb 0.0226 0.98655 0.72742 0.0
Eu89 Eu 0.99596 0.01202 0.62878 0.0
C90 C 0.0395 0.0045 0.59958 0.0
C91 C 0.0208 0.03009 0.74093 0.0
C92 C 0.03389 0.94788 0.83699 0.0
C93 C 0.03478 0.92534 0.92738 0.0
C94 C 0.04216 0.94111 0.89545 0.0
C95 C 0.01841 0.93855 0.8101 0.0
C96 C 0.01101 0.92292 0.84198 0.0
C97 C 0.01891 0.91626 0.90153 0.0
C98 C 0.03993 0.96568 0.8076 0.0
O99 O 0.99395 0.9791 0.74993 0.0
O100 O 0.98038 0.00701 0.72442 0.0
O101 O 0.98751 0.98215 0.61178 0.0
O102 O 0.01544 0.96907 0.64253 0.0
C103 C 0.98025 0.99107 0.7565 0.0
O104 O 0.97616 0.03496 0.61718 0.0
O105 O 0.98413 0.0184 0.53135 0.0
O106 O 0.02265 0.00592 0.57409 0.0
O107 O 0.04226 0.00111 0.66321 0.0
O108 O 0.01972 0.01407 0.77237 0.0
O109 O 0.01617 0.03159 0.67807 0.0
C110 C 0.99929 0.96811 0.61158 0.0
O111 O 0.04271 0.9656 0.74346 0.0
O112 O 0.03001 0.98003 0.82582 0.0
C113 C 0.97596 0.05008 0.51295 0.0
C114 C 0.97701 0.0834 0.43798 0.0
C115 C 0.96049 0.07772 0.47005 0.0
C116 C 0.95998 0.06122 0.50698 0.0
C117 C 0.99256 0.05566 0.48157 0.0
C118 C 0.99308 0.07217 0.44424 0.0
C119 C 0.97489 0.03291 0.55285 0.0
H120 H 0.0411 0.92067 0.97346 0.0
H121 H 0.05398 0.9483 0.91734 0.0
H122 H 0.01172 0.94364 0.76524 0.0
H123 H 0.99894 0.9162 0.8203 0.0
H124 H 0.94797 0.08618 0.46756 0.0
H125 H 0.94708 0.0572 0.53131 0.0
H126 H 0.0051 0.04727 0.4859 0.0
H127 H 0.00599 0.07604 0.41981 0.0
Tb128 Tb 0.513 0.02647 0.73208 0.0
Eu129 Eu 0.49269 0.99786 0.62595 0.0
C130 C 0.50207 0.04057 0.59087 0.0
C131 C 0.46945 0.02587 0.71537 0.0
C132 C 0.54908 0.03975 0.84754 0.0
C133 C 0.57409 0.04497 0.92718 0.0
C134 C 0.55719 0.05057 0.89794 0.0
C135 C 0.55798 0.02331 0.82673 0.0
C136 C 0.5747 0.01768 0.8559 0.0
C137 C 0.58305 0.02844 0.90635 0.0
C138 C 0.53115 0.04493 0.81698 0.0
O139 O 0.51851 0.99815 0.76501 0.0
O140 O 0.49157 0.985 0.72802 0.0
O141 O 0.52279 0.98906 0.62929 0.0
O142 O 0.53421 0.01759 0.66137 0.0
C143 C 0.50585 0.98503 0.76867 0.0
O144 O 0.47279 0.97545 0.60829 0.0
O145 O 0.48854 0.98673 0.52559 0.0
O146 O 0.50241 0.02322 0.5697 0.0
O147 O 0.50203 0.04471 0.65467 0.0
O148 O 0.48338 0.026 0.75805 0.0
O149 O 0.47127 0.01911 0.65515 0.0
C150 C 0.53669 0.00087 0.63591 0.0
O151 O 0.53181 0.04822 0.75318 0.0
O152 O 0.51724 0.03397 0.83206 0.0
C153 C 0.45771 0.97666 0.50463 0.0
C154 C 0.42384 0.977 0.43302 0.0
C155 C 0.43799 0.96408 0.41727 0.0
C156 C 0.45476 0.96391 0.4529 0.0
C157 C 0.44385 0.98984 0.51978 0.0
C158 C 0.42704 0.98998 0.48439 0.0
C159 C 0.47498 0.97571 0.5439 0.0
H160 H 0.58021 0.05365 0.96553 0.0
H161 H 0.55047 0.06329 0.91468 0.0
H162 H 0.5519 0.0147 0.78808 0.0
H163 H 0.58094 0.00469 0.83947 0.0
H164 H 0.43613 0.95411 0.37728 0.0
H165 H 0.46537 0.95369 0.44044 0.0
H166 H 0.4459 -0.00019 0.55969 0.0
H167 H 0.41639 -2e-05 0.49833 0.0
Tb168 Tb 0.49215 0.49829 0.79158 0.0
Eu169 Eu 0.51939 0.47722 0.68082 0.0
C170 C 0.47499 0.48263 0.66086 0.0
C171 C 0.49697 0.45465 0.79162 0.0
C172 C 0.4783 0.53434 0.91114 0.0
C173 C 0.47035 0.56664 0.93589 0.0
C174 C 0.46562 0.54927 0.90863 0.0
C175 C 0.49565 0.53701 0.94254 0.0
C176 C 0.50042 0.55434 0.96938 0.0
C177 C 0.48791 0.56941 0.96581 0.0
C178 C 0.47394 0.51657 0.87704 0.0
O179 O 0.52045 0.50697 0.81475 0.0
O180 O 0.53702 0.48237 0.77165 0.0
O181 O 0.52546 0.5079 0.67202 0.0
O182 O 0.49695 0.51777 0.71032 0.0
C183 C 0.53574 0.49692 0.81106 0.0
O184 O 0.54032 0.45623 0.65676 0.0
O185 O 0.52918 0.47382 0.57847 0.0
O186 O 0.49159 0.48304 0.63299 0.0
O187 O 0.47284 0.48393 0.72569 0.0
O188 O 0.49618 0.46994 0.82759 0.0
O189 O 0.50201 0.45497 0.72893 0.0
C190 C 0.51259 0.52083 0.67797 0.0
O191 O 0.47093 0.51775 0.81323 0.0
O192 O 0.48461 0.50237 0.89143 0.0
C193 C 0.53654 0.44271 0.55074 0.0
C194 C 0.53151 0.41081 0.47038 0.0
C195 C 0.54469 0.42454 0.45286 0.0
C196 C 0.5472 0.44034 0.49287 0.0
C197 C 0.52319 0.4292 0.56792 0.0
C198 C 0.52075 0.41336 0.52825 0.0
C199 C 0.53939 0.45927 0.59278 0.0
H200 H 0.46047 0.57804 0.93178 0.0
H201 H 0.45221 0.5476 0.88433 0.0
H202 H 0.50568 0.52576 0.94564 0.0
H203 H 0.51394 0.55593 0.99292 0.0
H204 H 0.55327 0.4229 0.40886 0.0
H205 H 0.55754 0.45067 0.47881 0.0
H206 H 0.51468 0.43088 0.61212 0.0
H207 H 0.5103 0.40317 0.54254 0.0
Tb208 Tb 0.98661 0.48208 0.74968 0.0
Eu209 Eu 0.00224 0.50891 0.62754 0.0
C210 C 0.00203 0.4646 0.61609 0.0
C211 C 0.02874 0.49133 0.73839 0.0
C212 C 0.95805 0.46844 0.8927 0.0
C213 C 0.92879 0.45961 0.94533 0.0
C214 C 0.94458 0.45488 0.90796 0.0
C215 C 0.95576 0.48672 0.91689 0.0
C216 C 0.9401 0.4914 0.95475 0.0
C217 C 0.92631 0.47798 0.96842 0.0
C218 C 0.97329 0.46395 0.84613 0.0
O219 O 0.98858 0.51062 0.78742 0.0
O220 O 0.98425 0.52719 0.69112 0.0
O221 O 0.97294 0.50084 0.59946 0.0
O222 O 0.96181 0.49396 0.70401 0.0
C223 C 0.98346 0.52592 0.75613 0.0
O224 O 0.01817 0.53348 0.59672 0.0
O225 O 0.00598 0.51524 0.52232 0.0
O226 O 0.0116 0.47984 0.604 0.0
O227 O 0.98963 0.46362 0.66425 0.0
O228 O 0.01662 0.47782 0.74714 0.0
O229 O 0.02407 0.50674 0.70739 0.0
C230 C 0.95906 0.49754 0.6406 0.0
O231 O 0.96812 0.46149 0.78457 0.0
O232 O 0.98831 0.47421 0.85022 0.0
C233 C 0.03575 0.5281 0.49942 0.0
C234 C 0.07124 0.52674 0.43868 0.0
C235 C 0.06348 0.54391 0.45837 0.0
C236 C 0.04585 0.54458 0.48824 0.0
C237 C 0.04353 0.5109 0.48015 0.0
C238 C 0.06107 0.51025 0.44967 0.0
C239 C 0.01758 0.52893 0.53385 0.0
H240 H 0.91838 0.449 0.95535 0.0
H241 H 0.946 0.44076 0.88924 0.0
H242 H 0.96577 0.49756 0.90484 0.0
H243 H 0.93841 0.50574 0.97093 0.0
H244 H 0.07101 0.55684 0.45022 0.0
H245 H 0.04016 0.55796 0.50316 0.0
H246 H 0.03617 0.49793 0.48919 0.0
H247 H 0.06684 0.49681 0.4359 0.0
H248 H 0.17533 0.00214 0.1644 0.0
H249 H 0.154 0.01389 0.24987 0.0
H250 H 0.13756 0.95739 0.2964 0.0
H251 H 0.15915 0.94556 0.21257 0.0
H252 H 0.11784 0.01238 0.26418 0.0
H253 H 0.12829 0.95225 0.45702 0.0
H254 H 0.15362 0.93168 0.49633 0.0
H255 H 0.19445 0.97174 0.43207 0.0
H256 H 0.16936 0.99267 0.39325 0.0
H257 H 0.03948 -0.00019 0.46539 0.0
H258 H 0.06623 0.99892 0.39111 0.0
H259 H 0.10288 0.0116 0.55576 0.0
H260 H 0.07604 0.0116 0.63137 0.0
H261 H 0.11714 0.98514 0.4912 0.0
H262 H 0.09348 0.04384 0.4233 0.0
H263 H 0.07017 0.06712 0.38747 0.0
H264 H 0.05939 0.03536 0.21031 0.0
H265 H 0.08248 0.01181 0.24529 0.0
C266 C 0.16718 0.99223 0.19294 0.0
C267 C 0.16898 0.97291 0.18201 0.0
C268 C 0.155 0.99897 0.24171 0.0
C269 C 0.14442 0.98652 0.2803 0.0
C270 C 0.14592 0.96725 0.26837 0.0
C271 C 0.15818 0.9605 0.2201 0.0
C272 C 0.13146 0.99352 0.33213 0.0
C273 C 0.11774 0.00656 0.31402 0.0
C274 C 0.13174 0.98642 0.39785 0.0
C275 C 0.14692 0.97398 0.4218 0.0
C276 C 0.14266 0.95672 0.45161 0.0
C277 C 0.15698 0.94499 0.47373 0.0
C278 C 0.17563 0.95038 0.46656 0.0
C279 C 0.18 0.96755 0.43741 0.0
C280 C 0.16573 0.97934 0.41525 0.0
C281 C 0.0532 0.00266 0.48578 0.0
C282 C 0.05567 0.00574 0.55427 0.0
C283 C 0.06851 0.00231 0.44302 0.0
C284 C 0.0866 0.00553 0.46741 0.0
C285 C 0.08906 0.00911 0.53567 0.0
C286 C 0.07373 0.00911 0.57882 0.0
C287 C 0.10295 0.00343 0.42252 0.0
C288 C 0.11736 0.99128 0.44186 0.0
C289 C 0.10358 0.0118 0.35861 0.0
C290 C 0.08969 0.026 0.33714 0.0
C291 C 0.08607 0.04177 0.37686 0.0
C292 C 0.07291 0.05503 0.35663 0.0
C293 C 0.06331 0.05273 0.29661 0.0
C294 C 0.06687 0.03717 0.25666 0.0
C295 C 0.08003 0.02387 0.27662 0.0
H296 H 0.05312 0.06301 0.28103 0.0
H297 H 0.1867 0.94127 0.48368 0.0
H298 H 0.52327 0.14825 0.09426 0.0
H299 H 0.52045 0.1247 0.18225 0.0
H300 H 0.47454 0.15526 0.26825 0.0
H301 H 0.47692 0.17864 0.1794 0.0
H302 H 0.50724 0.14415 0.35715 0.0
H303 H 0.46139 0.11999 0.2029 0.0
H304 H 0.45027 0.10951 0.09285 0.0
H305 H 0.49269 0.06715 0.08854 0.0
H306 H 0.50421 0.07753 0.19823 0.0
H307 H 0.4871 0.07552 0.60386 0.0
H308 H 0.48484 0.09966 0.51782 0.0
H309 H 0.51407 0.06373 0.38018 0.0
H310 H 0.51551 0.03936 0.46474 0.0
H311 H 0.48717 0.07875 0.31803 0.0
H312 H 0.53491 0.10262 0.46286 0.0
H313 H 0.54868 0.11284 0.56934 0.0
H314 H 0.50666 0.1553 0.58781 0.0
H315 H 0.49249 0.14517 0.48179 0.0
C316 C 0.51249 0.14987 0.13162 0.0
C317 C 0.50029 0.16523 0.13005 0.0
C318 C 0.51088 0.13642 0.18164 0.0
C319 C 0.49728 0.13832 0.23138 0.0
C320 C 0.48508 0.15362 0.23004 0.0
C321 C 0.48642 0.16687 0.17922 0.0
C322 C 0.49628 0.12457 0.28594 0.0
C323 C 0.50256 0.12991 0.3492 0.0
C324 C 0.4907 0.10595 0.27445 0.0
C325 C 0.48378 0.09968 0.20849 0.0
C326 C 0.46846 0.10857 0.1782 0.0
C327 C 0.46205 0.10261 0.11596 0.0
C328 C 0.47081 0.08772 0.08363 0.0
C329 C 0.48594 0.0787 0.11359 0.0
C330 C 0.4924 0.0846 0.17584 0.0
C331 C 0.49311 0.07288 0.5553 0.0
C332 C 0.5015 0.05562 0.54089 0.0
C333 C 0.49187 0.08668 0.50621 0.0
C334 C 0.49947 0.08363 0.44257 0.0
C335 C 0.50801 0.06642 0.42865 0.0
C336 C 0.50889 0.05252 0.47711 0.0
C337 C 0.49841 0.09816 0.38987 0.0
C338 C 0.49174 0.093 0.32665 0.0
C339 C 0.50402 0.11687 0.40109 0.0
C340 C 0.51252 0.123 0.4648 0.0
C341 C 0.52853 0.11404 0.48989 0.0
C342 C 0.53642 0.11983 0.55011 0.0
C343 C 0.52852 0.13467 0.58542 0.0
C344 C 0.51274 0.14379 0.56047 0.0
C345 C 0.50478 0.13804 0.5003 0.0
H346 H 0.53465 0.13914 0.63203 0.0
H347 H 0.46584 0.08314 0.03543 0.0
H348 H 0.352 0.54894 0.2785 0.0
H349 H 0.3762 0.53845 0.35554 0.0
H350 H 0.35374 0.48253 0.34891 0.0
H351 H 0.32993 0.49281 0.2697 0.0
H352 H 0.37614 0.5252 0.47402 0.0
H353 H 0.38828 0.45075 0.36945 0.0
H354 H 0.3861 0.43383 0.26271 0.0
H355 H 0.39418 0.48515 0.15599 0.0
H356 H 0.39663 0.50233 0.26203 0.0
H357 H 0.43807 0.48121 0.69748 0.0
H358 H 0.41086 0.48531 0.62521 0.0
H359 H 0.4471 0.48894 0.45413 0.0
H360 H 0.47419 0.48429 0.52526 0.0
H361 H 0.41684 0.47114 0.42081 0.0
H362 H 0.43119 0.52826 0.53489 0.0
H363 H 0.43699 0.54813 0.63302 0.0
H364 H 0.38162 0.53689 0.70469 0.0
H365 H 0.37559 0.51671 0.60737 0.0
C366 C 0.35223 0.5344 0.29341 0.0
C367 C 0.33916 0.52167 0.2677 0.0
C368 C 0.36603 0.52843 0.33765 0.0
C369 C 0.36694 0.50965 0.35755 0.0
C370 C 0.35358 0.497 0.33327 0.0
C371 C 0.33994 0.50291 0.28818 0.0
C372 C 0.38202 0.50338 0.40311 0.0
C373 C 0.38496 0.51331 0.46246 0.0
C374 C 0.39376 0.48805 0.38774 0.0
C375 C 0.3924 0.47784 0.32368 0.0
C376 C 0.38962 0.45841 0.32318 0.0
C377 C 0.38834 0.44877 0.26282 0.0
C378 C 0.38993 0.45842 0.20261 0.0
C379 C 0.39287 0.47771 0.20264 0.0
C380 C 0.39418 0.4874 0.26286 0.0
C381 C 0.44022 0.48257 0.64434 0.0
C382 C 0.45833 0.48265 0.61728 0.0
C383 C 0.42466 0.48499 0.60314 0.0
C384 C 0.42697 0.48778 0.53442 0.0
C385 C 0.44496 0.48684 0.50699 0.0
C386 C 0.46047 0.48425 0.54793 0.0
C387 C 0.41096 0.493 0.49141 0.0
C388 C 0.40783 0.48286 0.43269 0.0
C389 C 0.3995 0.50858 0.50604 0.0
C390 C 0.40302 0.52082 0.56429 0.0
C391 C 0.4203 0.52993 0.57183 0.0
C392 C 0.42362 0.54125 0.62726 0.0
C393 C 0.4097 0.54372 0.67517 0.0
C394 C 0.3924 0.53492 0.66761 0.0
C395 C 0.38902 0.52355 0.61233 0.0
H396 H 0.4123 0.55249 0.71806 0.0
H397 H 0.38892 0.45094 0.15594 0.0
H398 H 0.00693 0.32835 0.18453 0.0
H399 H 0.01507 0.34989 0.27448 0.0
H400 H 0.96367 0.38003 0.24166 0.0
H401 H 0.95512 0.35809 0.15374 0.0
H402 H 0.02158 0.38518 0.28817 0.0
H403 H 0.94537 0.3951 0.38302 0.0
H404 H 0.91596 0.3772 0.38825 0.0
H405 H 0.94679 0.3258 0.38066 0.0
H406 H 0.97638 0.34339 0.37632 0.0
H407 H 0.01332 0.4656 0.48702 0.0
H408 H 0.01249 0.44022 0.40652 0.0
H409 H 0.995 0.40209 0.56101 0.0
H410 H 0.99476 0.42782 0.6411 0.0
H411 H 0.97421 0.39693 0.46338 0.0
H412 H 0.04008 0.4006 0.48215 0.0
H413 H 0.07105 0.41563 0.48583 0.0
H414 H 0.06433 0.43409 0.28392 0.0
H415 H 0.0332 0.41941 0.27928 0.0
C416 C 0.99743 0.33966 0.19623 0.0
C417 C 0.98029 0.34143 0.1627 0.0
C418 C 0.00211 0.35197 0.24758 0.0
C419 C 0.9898 0.36633 0.26582 0.0
C420 C 0.97316 0.36873 0.22974 0.0
C421 C 0.96833 0.35625 0.17926 0.0
C422 C 0.994 0.37847 0.32378 0.0
C423 C 0.01127 0.38772 0.32668 0.0
C424 C 0.98082 0.38129 0.3753 0.0
C425 C 0.96308 0.37058 0.37878 0.0
C426 C 0.94587 0.37998 0.3828 0.0
C427 C 0.92917 0.36989 0.38553 0.0
C428 C 0.9295 0.35038 0.3846 0.0
C429 C 0.94654 0.34092 0.38116 0.0
C430 C 0.96328 0.35094 0.37849 0.0
C431 C 0.00961 0.45173 0.50411 0.0
C432 C 0.00406 0.44866 0.57027 0.0
C433 C 0.00925 0.43717 0.45803 0.0
C434 C 0.0039 0.41911 0.47763 0.0
C435 C 0.99912 0.41589 0.54453 0.0
C436 C 0.99904 0.43057 0.59032 0.0
C437 C 0.00165 0.4041 0.4272 0.0
C438 C 0.98468 0.39429 0.42552 0.0
C439 C 0.0154 0.40029 0.37831 0.0
C440 C 0.03423 0.40898 0.38054 0.0
C441 C 0.04516 0.40795 0.43864 0.0
C442 C 0.06275 0.4164 0.44089 0.0
C443 C 0.06964 0.42583 0.38519 0.0
C444 C 0.05897 0.42678 0.32704 0.0
C445 C 0.04136 0.41837 0.32453 0.0
H446 H 0.08326 0.43238 0.38705 0.0
H447 H 0.91656 0.34259 0.38666 0.0
H448 H 0.84674 0.91147 0.0619 0.0
H449 H 0.87505 0.92349 0.00823 0.0
H450 H 0.85856 0.97978 0.05652 0.0
H451 H 0.83049 0.96785 0.11225 0.0
H452 H 0.86841 0.97024 0.91282 0.0
H453 H 0.89039 0.96795 0.13773 0.0
H454 H 0.8975 0.95434 0.24747 0.0
H455 H 0.9333 0.91379 0.15532 0.0
H456 H 0.92596 0.92679 0.0448 0.0
H457 H 0.95123 0.01352 0.79458 0.0
H458 H 0.9243 0.00493 0.86275 0.0
H459 H 0.94553 0.94872 0.87995 0.0
H460 H 0.97271 0.95731 0.81353 0.0
H461 H 0.93292 0.96013 0.9956 0.0
H462 H 0.90967 0.96029 0.7712 0.0
H463 H 0.90346 0.97366 0.66025 0.0
H464 H 0.8706 0.01719 0.74897 0.0
H465 H 0.87682 0.00422 0.8606 0.0
C466 C 0.84922 0.92639 0.06145 0.0
C467 C 0.83646 0.93875 0.09114 0.0
C468 C 0.86539 0.9332 0.03108 0.0
C469 C 0.86883 0.95247 0.02882 0.0
C470 C 0.8561 0.96485 0.05817 0.0
C471 C 0.84015 0.95803 0.08998 0.0
C472 C 0.88531 0.95964 0.99297 0.0
C473 C 0.88254 0.96832 0.93124 0.0
C474 C 0.90365 0.95663 0.01662 0.0
C475 C 0.90739 0.94819 0.08278 0.0
C476 C 0.89947 0.95589 0.14067 0.0
C477 C 0.9036 0.94832 0.20309 0.0
C478 C 0.91578 0.93315 0.20839 0.0
C479 C 0.92377 0.92546 0.1512 0.0
C480 C 0.91961 0.93291 0.08862 0.0
C481 C 0.95017 0.99933 0.81292 0.0
C482 C 0.96405 0.98607 0.79835 0.0
C483 C 0.93474 0.99443 0.85168 0.0
C484 C 0.93276 0.97611 0.87563 0.0
C485 C 0.94675 0.96293 0.86194 0.0
C486 C 0.96226 0.96786 0.82377 0.0
C487 C 0.91612 0.97058 0.9148 0.0
C488 C 0.91883 0.96215 0.97713 0.0
C489 C 0.89771 0.97363 0.89136 0.0
C490 C 0.89388 0.9814 0.82429 0.0
C491 C 0.90124 0.9728 0.76708 0.0
C492 C 0.8977 0.98029 0.70407 0.0
C493 C 0.88669 0.9963 0.69758 0.0
C494 C 0.87915 0.00481 0.75408 0.0
C495 C 0.88266 0.99739 0.81723 0.0
H496 H 0.88396 0.00207 0.64875 0.0
H497 H 0.91911 0.92748 0.25686 0.0
H498 H 0.57047 0.84996 0.10801 0.0
H499 H 0.56118 0.87834 0.04864 0.0
H500 H 0.50322 0.86321 0.07066 0.0
H501 H 0.51236 0.83495 0.13143 0.0
H502 H 0.51556 0.87363 0.93618 0.0
H503 H 0.51539 0.8961 0.1612 0.0
H504 H 0.52851 0.9009 0.27334 0.0
H505 H 0.57453 0.93133 0.18973 0.0
H506 H 0.56173 0.92664 0.07684 0.0
H507 H 0.48052 0.95828 0.80475 0.0
H508 H 0.4857 0.93156 0.87822 0.0
H509 H 0.54266 0.94927 0.90955 0.0
H510 H 0.53739 0.97633 0.8382 0.0
H511 H 0.52887 0.93729 0.0217 0.0
H512 H 0.5307 0.91392 0.79753 0.0
H513 H 0.51882 0.9086 0.68387 0.0
H514 H 0.47157 0.87907 0.76291 0.0
H515 H 0.48304 0.88444 0.87716 0.0
C516 C 0.55575 0.85269 0.10032 0.0
C517 C 0.54213 0.84026 0.12429 0.0
C518 C 0.55048 0.86892 0.06668 0.0
C519 C 0.53154 0.87283 0.05568 0.0
C520 C 0.5179 0.86039 0.07893 0.0
C521 C 0.52315 0.84431 0.11367 0.0
C522 C 0.52608 0.88975 0.01842 0.0
C523 C 0.51814 0.88759 0.95516 0.0
C524 C 0.52997 0.90784 0.04284 0.0
C525 C 0.53769 0.91085 0.11053 0.0
C526 C 0.52838 0.90371 0.16665 0.0
C527 C 0.53572 0.90647 0.23035 0.0
C528 C 0.55235 0.91641 0.23862 0.0
C529 C 0.56163 0.92368 0.1832 0.0
C530 C 0.55432 0.921 0.11935 0.0
C531 C 0.49411 0.95652 0.82758 0.0
C532 C 0.50858 0.96932 0.81527 0.0
C533 C 0.49708 0.94121 0.86936 0.0
C534 C 0.51468 0.93822 0.89844 0.0
C535 C 0.52898 0.95127 0.8876 0.0
C536 C 0.52595 0.96671 0.8466 0.0
C537 C 0.5184 0.92126 0.93878 0.0
C538 C 0.52611 0.92338 0.00266 0.0
C539 C 0.5145 0.90309 0.91454 0.0
C540 C 0.50762 0.89976 0.8459 0.0
C541 C 0.5177 0.90641 0.79068 0.0
C542 C 0.51105 0.90337 0.72616 0.0
C543 C 0.49442 0.89355 0.71618 0.0
C544 C 0.48443 0.8867 0.77072 0.0
C545 C 0.49101 0.88973 0.83536 0.0
H546 H 0.4893 0.8912 0.66618 0.0
H547 H 0.558 0.91848 0.288 0.0
H548 H 0.67315 0.55614 0.17094 0.0
H549 H 0.64624 0.54071 0.11994 0.0
H550 H 0.65583 0.57113 0.93778 0.0
H551 H 0.6826 0.58679 0.9886 0.0
H552 H 0.61961 0.57133 0.96987 0.0
H553 H 0.66816 0.52551 0.95068 0.0
H554 H 0.69338 0.50499 0.99115 0.0
H555 H 0.65466 0.47685 0.11987 0.0
H556 H 0.62924 0.49739 0.08083 0.0
H557 H 0.57232 0.48802 0.78716 0.0
H558 H 0.59996 0.50169 0.83978 0.0
H559 H 0.56455 0.53371 0.97081 0.0
H560 H 0.537 0.52069 0.91683 0.0
H561 H 0.61448 0.50228 0.95947 0.0
H562 H 0.58352 0.57581 0.0019 0.0
H563 H 0.55929 0.59643 0.95483 0.0
H564 H 0.5647 0.5693 0.76523 0.0
H565 H 0.5892 0.54871 0.81089 0.0
C566 C 0.66954 0.55955 0.12001 0.0
C567 C 0.68003 0.57267 0.08376 0.0
C568 C 0.6542 0.55066 0.09087 0.0
C569 C 0.64914 0.55465 0.02486 0.0
C570 C 0.65949 0.56785 0.98878 0.0
C571 C 0.67482 0.57675 0.01786 0.0
C572 C 0.63295 0.5452 0.9935 0.0
C573 C 0.61848 0.55624 0.96758 0.0
C574 C 0.63159 0.52551 0.98985 0.0
C575 C 0.64684 0.51311 0.01329 0.0
C576 C 0.66505 0.51505 0.98801 0.0
C577 C 0.67938 0.5034 0.01061 0.0
C578 C 0.67563 0.48966 0.05817 0.0
C579 C 0.65754 0.48752 0.0831 0.0
C580 C 0.64317 0.49915 0.06071 0.0
C581 C 0.57044 0.49786 0.82756 0.0
C582 C 0.55246 0.50343 0.84742 0.0
C583 C 0.58624 0.50565 0.85761 0.0
C584 C 0.58432 0.51902 0.90831 0.0
C585 C 0.56638 0.5238 0.93062 0.0
C586 C 0.55062 0.51626 0.89993 0.0
C587 C 0.60104 0.52841 0.93636 0.0
C588 C 0.61559 0.51737 0.96178 0.0
C589 C 0.60261 0.54813 0.93855 0.0
C590 C 0.58811 0.56063 0.91003 0.0
C591 C 0.57962 0.57431 0.95008 0.0
C592 C 0.56582 0.58598 0.92367 0.0
C593 C 0.56045 0.58416 0.85713 0.0
C594 C 0.56886 0.57067 0.81681 0.0
C595 C 0.5827 0.55899 0.84294 0.0
H596 H 0.54984 0.59327 0.8368 0.0
H597 H 0.68674 0.48065 0.07561 0.0
H598 H 0.90358 0.67251 0.9792 0.0
H599 H 0.91556 0.64429 0.92615 0.0
H600 H 0.94804 0.63193 0.10168 0.0
H601 H 0.93645 0.66043 0.15452 0.0
H602 H 0.96845 0.62636 0.9967 0.0
H603 H 0.90803 0.60845 0.06358 0.0
H604 H 0.87386 0.60841 0.07723 0.0
H605 H 0.86685 0.60273 0.86597 0.0
H606 H 0.90101 0.60308 0.8508 0.0
H607 H 0.98697 0.53217 0.88997 0.0
H608 H 0.97479 0.5587 0.95367 0.0
H609 H 0.95133 0.582 0.77427 0.0
H610 H 0.96363 0.55574 0.71005 0.0
H611 H 0.92649 0.58042 0.88792 0.0
H612 H 0.98885 0.60064 0.82718 0.0
H613 H 0.0231 0.5973 0.82205 0.0
H614 H 0.02573 0.59513 0.03544 0.0
H615 H 0.99144 0.59819 0.04178 0.0
C616 C 0.91324 0.66377 0.00662 0.0
C617 C 0.91904 0.66869 0.07112 0.0
C618 C 0.92 0.64758 0.97634 0.0
C619 C 0.93251 0.63584 0.01025 0.0
C620 C 0.93839 0.64076 0.07459 0.0
C621 C 0.93172 0.65703 0.10476 0.0
C622 C 0.93979 0.61871 0.97774 0.0
C623 C 0.95922 0.61618 0.97393 0.0
C624 C 0.92778 0.60546 0.94747 0.0
C625 C 0.90716 0.60607 0.95595 0.0
C626 C 0.89923 0.60755 0.01984 0.0
C627 C 0.87984 0.60737 0.0279 0.0
C628 C 0.86819 0.60564 0.97249 0.0
C629 C 0.8759 0.60411 0.90886 0.0
C630 C 0.89529 0.60429 0.9005 0.0
C631 C 0.97928 0.54297 0.86406 0.0
C632 C 0.97638 0.54195 0.79491 0.0
C633 C 0.97236 0.55809 0.90049 0.0
C634 C 0.96227 0.57228 0.86845 0.0
C635 C 0.95913 0.57116 0.79971 0.0
C636 C 0.96625 0.55621 0.76312 0.0
C637 C 0.95497 0.58836 0.90641 0.0
C638 C 0.93558 0.59066 0.91108 0.0
C639 C 0.96696 0.60115 0.93872 0.0
C640 C 0.98757 0.59944 0.93492 0.0
C641 C 0.99671 0.59928 0.87298 0.0
C642 C 0.01614 0.59747 0.86986 0.0
C643 C 0.02658 0.59595 0.92838 0.0
C644 C 0.01762 0.59629 0.99015 0.0
C645 C 0.9982 0.59807 0.99354 0.0
H646 H 0.04162 0.59455 0.92586 0.0
H647 H 0.85318 0.60544 0.97886 0.0
H648 H 0.94531 0.23521 0.11404 0.0
H649 H 0.94582 0.20555 0.17508 0.0
H650 H 0.00116 0.2182 0.24749 0.0
H651 H 0.00075 0.24769 0.1858 0.0
H652 H -0.00026 0.1839 0.19654 0.0
H653 H 0.96349 0.21933 0.35107 0.0
H654 H 0.93776 0.23978 0.38764 0.0
H655 H 0.89771 0.19862 0.32602 0.0
H656 H 0.9232 0.17802 0.2882 0.0
H657 H 0.00501 0.10957 0.43238 0.0
H658 H 0.00467 0.13955 0.37408 0.0
H659 H 0.94948 0.12762 0.29929 0.0
H660 H 0.94985 0.09747 0.35605 0.0
H661 H 0.95126 0.16194 0.35428 0.0
H662 H 0.98588 0.12649 0.19733 0.0
H663 H 0.01064 0.10596 0.15384 0.0
H664 H 0.05218 0.14641 0.20823 0.0
H665 H 0.0277 0.16705 0.25343 0.0
C666 C 0.95748 0.23168 0.14348 0.0
C667 C 0.97315 0.24346 0.14417 0.0
C668 C 0.95775 0.21481 0.17854 0.0
C669 C 0.97354 0.20967 0.2159 0.0
C670 C 0.98889 0.22183 0.21867 0.0
C671 C 0.98869 0.23859 0.18314 0.0
C672 C 0.97452 0.19113 0.24868 0.0
C673 C 0.98922 0.17911 0.23136 0.0
C674 C 0.96062 0.18485 0.2934 0.0
C675 C 0.94526 0.1972 0.31622 0.0
C676 C 0.94919 0.2147 0.3448 0.0
C677 C 0.93465 0.2263 0.36586 0.0
C678 C 0.91611 0.22052 0.35901 0.0
C679 C 0.91208 0.20309 0.33123 0.0
C680 C 0.92657 0.19143 0.31004 0.0
C681 C 0.99294 0.11315 0.40253 0.0
C682 C 0.97741 0.10113 0.39928 0.0
C683 C 0.99275 0.13033 0.36939 0.0
C684 C 0.97704 0.13581 0.33234 0.0
C685 C 0.96169 0.12371 0.32796 0.0
C686 C 0.9619 0.10652 0.36073 0.0
C687 C 0.97625 0.15451 0.30074 0.0
C688 C 0.96166 0.16662 0.31874 0.0
C689 C 0.99009 0.16075 0.25562 0.0
C690 C 0.00494 0.14818 0.22996 0.0
C691 C 0.00031 0.1309 0.20104 0.0
C692 C 0.0143 0.11926 0.17586 0.0
C693 C 0.03299 0.12482 0.17868 0.0
C694 C 0.03771 0.14208 0.20641 0.0
C695 C 0.02378 0.15374 0.2319 0.0
H696 H 0.0438 0.11578 0.15919 0.0
H697 H 0.90487 0.22953 0.37535 0.0
H698 H 0.26693 -6e-05 0.12273 0.0
H699 H 0.2975 0.00227 0.17626 0.0
H700 H 0.30286 0.94231 0.17075 0.0
H701 H 0.27256 0.93992 0.11517 0.0
H702 H 0.30953 0.9564 0.29373 0.0
H703 H 0.32861 0.96936 0.06962 0.0
H704 H 0.33089 0.98521 0.96096 0.0
H705 H 0.34639 0.03628 0.05824 0.0
H706 H 0.3438 0.02088 0.16767 0.0
H707 H 0.40375 0.94647 0.39282 0.0
H708 H 0.3742 0.94596 0.33236 0.0
H709 H 0.37285 0.00619 0.33317 0.0
H710 H 0.40287 0.00684 0.39122 0.0
H711 H 0.36389 0.993 0.21389 0.0
H712 H 0.34489 0.98033 0.43785 0.0
H713 H 0.34531 0.96396 0.54593 0.0
H714 H 0.3304 0.91262 0.44929 0.0
H715 H 0.3302 0.92858 0.34047 0.0
C716 C 0.2749 0.98731 0.13045 0.0
C717 C 0.26753 0.96978 0.11295 0.0
C718 C 0.2923 0.98865 0.16182 0.0
C719 C 0.30254 0.97248 0.1769 0.0
C720 C 0.29522 0.95497 0.15937 0.0
C721 C 0.27791 0.95364 0.12765 0.0
C722 C 0.3203 0.97366 0.21472 0.0
C723 C 0.3215 0.96423 0.27587 0.0
C724 C 0.33569 0.98437 0.19244 0.0
C725 C 0.33582 0.99399 0.12699 0.0
C726 C 0.33214 0.98406 0.06801 0.0
C727 C 0.33357 0.99294 0.00626 0.0
C728 C 0.33883 0.0117 0.00286 0.0
C729 C 0.34233 0.02174 0.06109 0.0
C730 C 0.34086 0.01295 0.12296 0.0
C731 C 0.39729 0.95963 0.37958 0.0
C732 C 0.40572 0.97671 0.39683 0.0
C733 C 0.38025 0.9593 0.34574 0.0
C734 C 0.37117 0.97603 0.32907 0.0
C735 C 0.37957 0.99311 0.34586 0.0
C736 C 0.39666 0.99345 0.3795 0.0
C737 C 0.35314 0.97569 0.29259 0.0
C738 C 0.35186 0.98529 0.23188 0.0
C739 C 0.33764 0.96523 0.31539 0.0
C740 C 0.33769 0.95562 0.38089 0.0
C741 C 0.34185 0.96552 0.43955 0.0
C742 C 0.34202 0.95633 0.50096 0.0
C743 C 0.33791 0.93728 0.50443 0.0
C744 C 0.33359 0.92738 0.44651 0.0
C745 C 0.33343 0.93649 0.38497 0.0
H746 H 0.33805 0.9302 0.55202 0.0
H747 H 0.34038 0.01844 0.95516 0.0
H748 H 0.50193 0.24754 0.22543 0.0
H749 H 0.50671 0.27661 0.28667 0.0
H750 H 0.51315 0.30633 0.1009 0.0
H751 H 0.50974 0.27681 0.03995 0.0
H752 H 0.53738 0.31876 0.18023 0.0
H753 H 0.47151 0.30874 0.20843 0.0
H754 H 0.44262 0.29174 0.23838 0.0
H755 H 0.4625 0.28537 0.43866 0.0
H756 H 0.49137 0.30237 0.40983 0.0
H757 H 0.52933 0.40848 0.33447 0.0
H758 H 0.52454 0.38044 0.26683 0.0
H759 H 0.52354 0.34677 0.44495 0.0
H760 H 0.52812 0.37474 0.51267 0.0
H761 H 0.4958 0.33744 0.36599 0.0
H762 H 0.56181 0.34782 0.33701 0.0
H763 H 0.58984 0.366 0.30704 0.0
H764 H 0.5693 0.37232 0.10745 0.0
H765 H 0.54103 0.35438 0.13648 0.0
C766 C 0.50438 0.26032 0.1979 0.0
C767 C 0.5055 0.26004 0.12825 0.0
C768 C 0.50691 0.27699 0.23281 0.0
C769 C 0.50987 0.29388 0.19863 0.0
C770 C 0.51089 0.29355 0.12865 0.0
C771 C 0.50895 0.27673 0.09379 0.0
C772 C 0.51263 0.31167 0.236 0.0
C773 C 0.52806 0.32297 0.22005 0.0
C774 C 0.50083 0.31707 0.2893 0.0
C775 C 0.4836 0.30666 0.30668 0.0
C776 C 0.4697 0.30358 0.25862 0.0
C777 C 0.45335 0.294 0.27544 0.0
C778 C 0.45078 0.28739 0.34023 0.0
C779 C 0.46451 0.29046 0.38844 0.0
C780 C 0.48084 0.30012 0.37194 0.0
C781 C 0.52827 0.39506 0.35909 0.0
C782 C 0.52907 0.39381 0.4289 0.0
C783 C 0.52556 0.37905 0.32039 0.0
C784 C 0.52386 0.36145 0.35073 0.0
C785 C 0.52476 0.36019 0.42041 0.0
C786 C 0.52733 0.37619 0.45908 0.0
C787 C 0.52054 0.34436 0.3104 0.0
C788 C 0.50503 0.33322 0.32587 0.0
C789 C 0.53221 0.33917 0.25665 0.0
C790 C 0.54923 0.34992 0.23912 0.0
C791 C 0.56321 0.35321 0.28688 0.0
C792 C 0.57915 0.36345 0.27003 0.0
C793 C 0.58133 0.37035 0.20544 0.0
C794 C 0.56759 0.36699 0.15749 0.0
C795 C 0.55161 0.35677 0.1741 0.0
H796 H 0.59368 0.37828 0.1925 0.0
H797 H 0.43813 0.27995 0.35312 0.0
H798 H 0.22421 0.51476 0.09489 0.0
H799 H 0.19281 0.51248 0.1409 0.0
H800 H 0.21208 0.53834 0.32248 0.0
H801 H 0.24388 0.5391 0.27839 0.0
H802 H 0.18976 0.51113 0.35237 0.0
H803 H 0.1878 0.56147 0.19386 0.0
H804 H 0.19149 0.5759 0.08326 0.0
H805 H 0.15007 0.53885 0.00288 0.0
H806 H 0.14611 0.52423 0.11298 0.0
H807 H 0.10313 0.54393 0.48086 0.0
H808 H 0.13427 0.54224 0.43066 0.0
H809 H 0.11285 0.50627 0.27632 0.0
H810 H 0.08167 0.50772 0.32683 0.0
H811 H 0.13533 0.53681 0.22989 0.0
H812 H 0.13835 0.48577 0.38414 0.0
H813 H 0.13551 0.4698 0.49244 0.0
H814 H 0.17424 0.50855 0.57929 0.0
H815 H 0.17735 0.52475 0.47134 0.0
C816 C 0.22195 0.51925 0.14543 0.0
C817 C 0.23671 0.52643 0.18376 0.0
C818 C 0.20383 0.51841 0.17122 0.0
C819 C 0.19998 0.52538 0.23511 0.0
C820 C 0.21468 0.53279 0.27317 0.0
C821 C 0.23283 0.53333 0.24775 0.0
C822 C 0.18069 0.52498 0.26266 0.0
C823 C 0.17794 0.517 0.3258 0.0
C824 C 0.16509 0.53211 0.22726 0.0
C825 C 0.167 0.54141 0.16146 0.0
C826 C 0.17958 0.55629 0.15252 0.0
C827 C 0.18168 0.56456 0.08993 0.0
C828 C 0.17112 0.55821 0.03596 0.0
C829 C 0.15832 0.54369 0.04463 0.0
C830 C 0.15614 0.53541 0.10715 0.0
C831 C 0.10505 0.53576 0.43601 0.0
C832 C 0.09 0.52599 0.40761 0.0
C833 C 0.12284 0.53469 0.40772 0.0
C834 C 0.12582 0.52407 0.34999 0.0
C835 C 0.11079 0.5145 0.32097 0.0
C836 C 0.09306 0.51529 0.34993 0.0
C837 C 0.14463 0.52325 0.31954 0.0
C838 C 0.14724 0.53097 0.25606 0.0
C839 C 0.16011 0.51595 0.35447 0.0
C840 C 0.15798 0.50654 0.41982 0.0
C841 C 0.14617 0.49096 0.42645 0.0
C842 C 0.1446 0.4818 0.48763 0.0
C843 C 0.15473 0.48812 0.54265 0.0
C844 C 0.16645 0.50363 0.53657 0.0
C845 C 0.16817 0.51277 0.47535 0.0
H846 H 0.15342 0.48107 0.59007 0.0
H847 H 0.1728 0.5646 0.98751 0.0
H848 H 0.91373 0.78322 0.11235 0.0
H849 H 0.92914 0.81223 0.07828 0.0
H850 H 0.98286 0.78783 0.1216 0.0
H851 H 0.96753 0.75871 0.15464 0.0
H852 H 0.98037 0.82461 0.16463 0.0
H853 H 0.96804 0.78936 0.96502 0.0
H854 H 0.94832 0.77189 0.88592 0.0
H855 H 0.91383 0.82029 0.85752 0.0
H856 H 0.93321 0.83799 0.93719 0.0
H857 H 0.03623 0.88687 0.96442 0.0
H858 H 0.02142 0.85989 0.01792 0.0
H859 H 0.96709 0.88245 0.9717 0.0
H860 H 0.98169 0.90947 0.91934 0.0
H861 H 0.97008 0.84668 0.93346 0.0
H862 H 0.98429 0.88307 0.12453 0.0
H863 H 0.00278 0.90038 0.20729 0.0
H864 H 0.03316 0.85051 0.25562 0.0
H865 H 0.01514 0.83292 0.17196 0.0
C866 C 0.92882 0.78408 0.11478 0.0
C867 C 0.93942 0.76882 0.13714 0.0
C868 C 0.9376 0.80066 0.09549 0.0
C869 C 0.95716 0.80217 0.09725 0.0
C870 C 0.96776 0.78703 0.12047 0.0
C871 C 0.95897 0.77044 0.13972 0.0
C872 C 0.96658 0.81916 0.07148 0.0
C873 C 0.97842 0.82933 0.11378 0.0
C874 C 0.96357 0.82552 0.0057 0.0
C875 C 0.95197 0.81493 0.95753 0.0
C876 C 0.95617 0.79623 0.94227 0.0
C877 C 0.94507 0.7863 0.89728 0.0
C878 C 0.9298 0.79496 0.86685 0.0
C879 C 0.92564 0.81359 0.88121 0.0
C880 C 0.93669 0.82359 0.92623 0.0
C881 C 0.02113 0.88621 0.96654 0.0
C882 C 0.01016 0.90025 0.93698 0.0
C883 C 0.01269 0.87078 0.99709 0.0
C884 C 0.99315 0.86917 0.99881 0.0
C885 C 0.98219 0.88334 0.97056 0.0
C886 C 0.99058 0.89874 0.94027 0.0
C887 C 0.984 0.85226 0.02645 0.0
C888 C 0.97219 0.84202 0.98431 0.0
C889 C 0.98711 0.84593 0.09237 0.0
C890 C 0.99852 0.85669 0.14093 0.0
C891 C 0.99517 0.87583 0.15166 0.0
C892 C 0.00551 0.8857 0.19908 0.0
C893 C 0.01919 0.87658 0.23649 0.0
C894 C 0.02258 0.85757 0.22649 0.0
C895 C 0.0123 0.84765 0.17903 0.0
H896 H 0.02712 0.88422 0.27341 0.0
H897 H 0.92123 0.78724 0.83203 0.0
H898 H 0.73947 0.94999 0.03679 0.0
H899 H 0.71107 0.96545 0.99809 0.0
H900 H 0.69567 0.97731 0.20142 0.0
H901 H 0.7231 0.96039 0.24001 0.0
H902 H 0.6664 0.96783 0.13961 0.0
H903 H 0.71493 0.01148 0.08895 0.0
H904 H 0.74465 0.02257 0.04113 0.0
H905 H 0.72514 0.00914 0.84473 0.0
H906 H 0.69539 0.99773 0.89146 0.0
H907 H 0.59366 0.03003 0.0379 0.0
H908 H 0.62249 0.01806 0.08765 0.0
H909 H 0.64124 -0.00012 0.89411 0.0
H910 H 0.61307 0.01266 0.84379 0.0
H911 H 0.66897 0.01494 0.95893 0.0
H912 H 0.62053 0.96978 0.01489 0.0
H913 H 0.59073 0.96003 0.066 0.0
H914 H 0.6103 0.97821 0.25741 0.0
H915 H 0.64011 0.98824 0.20733 0.0
C916 C 0.73003 0.95591 0.07326 0.0
C917 C 0.73402 0.95465 0.14163 0.0
C918 C 0.71387 0.96493 0.05104 0.0
C919 C 0.70146 0.97317 0.09664 0.0
C920 C 0.70516 0.97144 0.16502 0.0
C921 C 0.72115 0.96212 0.18721 0.0
C922 C 0.68442 0.98313 0.07312 0.0
C923 C 0.66704 0.97834 0.1008 0.0
C924 C 0.6851 0.99676 0.02201 0.0
C925 C 0.703 0.0036 0.9938 0.0
C926 C 0.71703 0.01077 0.03561 0.0
C927 C 0.73388 0.01713 0.00869 0.0
C928 C 0.7368 0.01652 0.93996 0.0
C929 C 0.72287 0.00958 0.89797 0.0
C930 C 0.70601 0.00318 0.92464 0.0
C931 C 0.60406 0.02375 0.00581 0.0
C932 C 0.60093 0.02215 0.93688 0.0
C933 C 0.62044 0.01669 0.03447 0.0
C934 C 0.63389 0.00771 0.99485 0.0
C935 C 0.63103 0.0066 0.92586 0.0
C936 C 0.61479 0.01378 0.8972 0.0
C937 C 0.651 0.99935 0.02446 0.0
C938 C 0.6684 0.0045 0.99803 0.0
C939 C 0.65033 0.98622 0.07715 0.0
C940 C 0.63246 0.97997 0.1072 0.0
C941 C 0.61842 0.9718 0.06779 0.0
C942 C 0.60154 0.96621 0.09659 0.0
C943 C 0.59859 0.96859 0.16483 0.0
C944 C 0.61257 0.97643 0.20453 0.0
C945 C 0.62947 0.98205 0.17597 0.0
H946 H 0.58548 0.96437 0.18693 0.0
H947 H 0.74985 0.02145 0.91922 0.0
H948 H 0.56003 0.72884 0.12485 0.0
H949 H 0.55148 0.69769 0.08464 0.0
H950 H 0.49889 0.70151 0.18859 0.0
H951 H 0.50733 0.73266 0.22829 0.0
H952 H 0.5144 0.6679 0.20739 0.0
H953 H 0.50158 0.70752 0.02014 0.0
H954 H 0.50859 0.73111 0.93425 0.0
H955 H 0.55211 0.69619 0.85602 0.0
H956 H 0.54553 0.6725 0.94206 0.0
H957 H 0.4668 0.59387 0.03896 0.0
H958 H 0.47601 0.62469 0.0807 0.0
H959 H 0.53054 0.6179 0.99286 0.0
H960 H 0.5215 0.58711 0.95132 0.0
H961 H 0.51443 0.65261 0.96652 0.0
H962 H 0.5258 0.61217 0.15116 0.0
H963 H 0.51874 0.58888 0.2378 0.0
H964 H 0.47753 0.62547 0.32182 0.0
H965 H 0.48404 0.64887 0.23478 0.0
C966 C 0.54664 0.72303 0.13898 0.0
C967 C 0.53452 0.73301 0.18087 0.0
C968 C 0.54175 0.70525 0.11594 0.0
C969 C 0.52451 0.69726 0.13346 0.0
C970 C 0.51234 0.70729 0.17497 0.0
C971 C 0.51725 0.72504 0.19811 0.0
C972 C 0.51909 0.67849 0.10843 0.0
C973 C 0.51414 0.66463 0.15467 0.0
C974 C 0.51918 0.67409 0.03971 0.0
C975 C 0.52319 0.68833 0.988 0.0
C976 C 0.51275 0.70495 0.98498 0.0
C977 C 0.51663 0.71832 0.9362 0.0
C978 C 0.53082 0.71517 0.88983 0.0
C979 C 0.54114 0.69862 0.89204 0.0
C980 C 0.53734 0.68521 0.94078 0.0
C981 C 0.48073 0.59898 0.02834 0.0
C982 C 0.49342 0.58805 0.99179 0.0
C983 C 0.486 0.61652 0.05252 0.0
C984 C 0.50399 0.6235 0.04013 0.0
C985 C 0.51661 0.61273 0.00305 0.0
C986 C 0.51144 0.59511 0.97967 0.0
C987 C 0.50963 0.64211 0.06542 0.0
C988 C 0.51465 0.65591 0.01923 0.0
C989 C 0.50949 0.64645 0.13414 0.0
C990 C 0.5052 0.63218 0.18562 0.0
C991 C 0.51497 0.61514 0.18729 0.0
C992 C 0.51112 0.60193 0.23667 0.0
C993 C 0.49761 0.60565 0.28504 0.0
C994 C 0.48793 0.62258 0.28413 0.0
C995 C 0.4917 0.63582 0.23478 0.0
H996 H 0.49473 0.59545 0.32346 0.0
H997 H 0.53379 0.72554 0.85208 0.0
H998 H 0.76044 0.53237 0.11196 0.0
H999 H 0.78924 0.51532 0.08834 0.0
H1000 H 0.82052 0.55598 0.2018 0.0
H1001 H 0.79176 0.57383 0.22017 0.0
H1002 H 0.83883 0.5504 0.10182 0.0
H1003 H 0.81361 0.50537 0.25325 0.0
H1004 H 0.79063 0.48391 0.3041 0.0
H1005 H 0.78594 0.45421 0.11927 0.0
H1006 H 0.8089 0.4755 0.06778 0.0
H1007 H 0.92269 0.49906 0.08112 0.0
H1008 H 0.89378 0.5113 0.12948 0.0
H1009 H 0.86169 0.48233 0.97988 0.0
H1010 H 0.89052 0.4698 0.93205 0.0
H1011 H 0.84482 0.4814 0.10306 0.0
H1012 H 0.87319 0.52822 0.95834 0.0
H1013 H 0.90096 0.54655 0.92578 0.0
H1014 H 0.90269 0.57167 0.11963 0.0
H1015 H 0.8751 0.55335 0.15368 0.0
C1016 C 0.77351 0.53754 0.13196 0.0
C1017 C 0.77404 0.55439 0.16737 0.0
C1018 C 0.78998 0.52766 0.11932 0.0
C1019 C 0.80721 0.53407 0.14412 0.0
C1020 C 0.80752 0.55069 0.18163 0.0
C1021 C 0.79112 0.5609 0.19232 0.0
C1022 C 0.82502 0.52442 0.12617 0.0
C1023 C 0.84013 0.53532 0.10377 0.0
C1024 C 0.82693 0.50469 0.12695 0.0
C1025 C 0.81265 0.49225 0.15661 0.0
C1026 C 0.80738 0.49447 0.22342 0.0
C1027 C 0.79447 0.48228 0.25236 0.0
C1028 C 0.7867 0.46783 0.21476 0.0
C1029 C 0.79192 0.46547 0.14827 0.0
C1030 C 0.80492 0.47755 0.11929 0.0
C1031 C 0.90944 0.49516 0.05905 0.0
C1032 C 0.90884 0.4836 0.00257 0.0
C1033 C 0.89296 0.50215 0.08664 0.0
C1034 C 0.87563 0.498 0.05744 0.0
C1035 C 0.87493 0.48573 0.00307 0.0
C1036 C 0.89139 0.47857 0.97587 0.0
C1037 C 0.85837 0.50741 0.08062 0.0
C1038 C 0.84338 0.49648 0.10268 0.0
C1039 C 0.85674 0.52708 0.08136 0.0
C1040 C 0.8722 0.53932 0.05873 0.0
C1041 C 0.87945 0.53772 0.9939 0.0
C1042 C 0.89517 0.54806 0.97524 0.0
C1043 C 0.90364 0.56011 0.02082 0.0
C1044 C 0.89617 0.56222 0.08459 0.0
C1045 C 0.88046 0.55192 0.10352 0.0
H1046 H 0.91602 0.56779 0.00685 0.0
H1047 H 0.77672 0.4584 0.23725 0.0
H1048 H 0.04544 0.19645 0.97757 0.0
H1049 H 0.05344 0.16581 0.93129 0.0
H1050 H 0.00857 0.14067 0.04274 0.0
H1051 H 3e-05 0.17117 0.08721 0.0
H1052 H 0.04497 0.11906 0.03252 0.0
H1053 H 0.9969 0.15179 0.90259 0.0
H1054 H 0.98538 0.17906 0.83983 0.0
H1055 H 0.03239 0.17535 0.70776 0.0
H1056 H 0.04432 0.14819 0.7705 0.0
H1057 H 0.01372 0.03761 0.87097 0.0
H1058 H 0.01964 0.0667 0.93039 0.0
H1059 H 0.04655 0.08933 0.7556 0.0
H1060 H 0.03938 0.06062 0.69471 0.0
H1061 H 0.02505 0.11348 0.79688 0.0
H1062 H 0.07024 0.07694 0.91118 0.0
H1063 H 0.08345 0.05058 0.97462 0.0
H1064 H 0.0455 0.06159 0.13535 0.0
H1065 H 0.03183 0.08776 0.07242 0.0
C1066 C 0.03752 0.18434 0.99325 0.0
C1067 C 0.02204 0.18624 0.03579 0.0
C1068 C 0.04214 0.16688 0.96694 0.0
C1069 C 0.03158 0.15109 0.98381 0.0
C1070 C 0.01695 0.15272 0.02971 0.0
C1071 C 0.01207 0.17019 0.05489 0.0
C1072 C 0.034 0.13341 0.94723 0.0
C1073 C 0.04063 0.11766 0.98106 0.0
C1074 C 0.02887 0.13195 0.87962 0.0
C1075 C 0.02161 0.14815 0.84168 0.0
C1076 C 0.00486 0.15691 0.86055 0.0
C1077 C 0.99824 0.17231 0.82493 0.0
C1078 C 0.00818 0.17898 0.76997 0.0
C1079 C 0.02473 0.1702 0.75042 0.0
C1080 C 0.03142 0.1548 0.78598 0.0
C1081 C 0.02109 0.04874 0.84559 0.0
C1082 C 0.02602 0.04698 0.77829 0.0
C1083 C 0.02467 0.06532 0.87981 0.0
C1084 C 0.03387 0.08021 0.84808 0.0
C1085 C 0.03942 0.07811 0.78133 0.0
C1086 C 0.03533 0.06173 0.74651 0.0
C1087 C 0.03588 0.09856 0.88209 0.0
C1088 C 0.0299 0.11461 0.84788 0.0
C1089 C 0.04191 0.10024 0.94917 0.0
C1090 C 0.04992 0.08428 0.9868 0.0
C1091 C 0.06459 0.07364 0.95978 0.0
C1092 C 0.07218 0.05873 0.99571 0.0
C1093 C 0.06531 0.05439 0.05894 0.0
C1094 C 0.05082 0.06494 0.08637 0.0
C1095 C 0.04315 0.07983 0.0506 0.0
H1096 H 0.07123 0.04287 0.08669 0.0
H1097 H 0.00303 0.1909 0.74243 0.0
H1098 H 0.2992 0.04813 0.9213 0.0
H1099 H 0.32835 0.05978 0.87293 0.0
H1100 H 0.33841 0.00565 0.7854 0.0
H1101 H 0.3092 0.99421 0.8313 0.0
H1102 H 0.3612 0.04947 0.90348 0.0
H1103 H 0.36605 0.00703 0.65298 0.0
H1104 H 0.34564 0.99868 0.55885 0.0
H1105 H 0.3089 0.04406 0.6071 0.0
H1106 H 0.32934 0.05305 0.70044 0.0
H1107 H 0.45191 0.01956 0.83303 0.0
H1108 H 0.41931 0.02623 0.85946 0.0
H1109 H 0.41309 0.05469 0.671 0.0
H1110 H 0.44531 0.04664 0.64266 0.0
H1111 H 0.38636 0.03404 0.6804 0.0
H1112 H 0.41083 0.07733 0.83374 0.0
H1113 H 0.43077 0.08997 0.92316 0.0
H1114 H 0.40767 0.05045 0.06115 0.0
H1115 H 0.38782 0.03735 0.97246 0.0
C1116 C 0.30746 0.03887 0.89048 0.0
C1117 C 0.30197 0.02022 0.88044 0.0
C1118 C 0.32409 0.04555 0.86286 0.0
C1119 C 0.33554 0.03367 0.82501 0.0
C1120 C 0.32966 0.01526 0.81295 0.0
C1121 C 0.31298 0.00866 0.83985 0.0
C1122 C 0.35461 0.0395 0.80504 0.0
C1123 C 0.36669 0.04637 0.8544 0.0
C1124 C 0.36164 0.03604 0.74042 0.0
C1125 C 0.34922 0.03066 0.6842 0.0
C1126 C 0.35369 0.01532 0.64338 0.0
C1127 C 0.34209 0.01045 0.59013 0.0
C1128 C 0.32594 0.02076 0.5772 0.0
C1129 C 0.32138 0.03603 0.61733 0.0
C1130 C 0.33297 0.04102 0.67044 0.0
C1131 C 0.44362 0.02754 0.79798 0.0
C1132 C 0.45095 0.03255 0.73585 0.0
C1133 C 0.42501 0.03151 0.81325 0.0
C1134 C 0.41365 0.04121 0.76763 0.0
C1135 C 0.42144 0.04712 0.70697 0.0
C1136 C 0.43985 0.04259 0.69083 0.0
C1137 C 0.39324 0.04315 0.77981 0.0
C1138 C 0.38089 0.03767 0.729 0.0
C1139 C 0.38589 0.04851 0.84244 0.0
C1140 C 0.39787 0.05629 0.89617 0.0
C1141 C 0.41009 0.07123 0.88301 0.0
C1142 C 0.42137 0.07849 0.93362 0.0
C1143 C 0.42049 0.07101 0.99776 0.0
C1144 C 0.40833 0.05624 0.01144 0.0
C1145 C 0.39704 0.04891 0.96102 0.0
H1146 H 0.4292 0.07667 0.0369 0.0
H1147 H 0.31697 0.01695 0.53598 0.0
H1148 H 0.44772 0.30738 0.1256 0.0
H1149 H 0.45261 0.33887 0.08136 0.0
H1150 H 0.47579 0.31537 0.9017 0.0
H1151 H 0.4717 0.28405 0.94663 0.0
H1152 H 0.49803 0.34167 0.95048 0.0
H1153 H 0.43224 0.33557 0.90497 0.0
H1154 H 0.39922 0.32975 0.93306 0.0
H1155 H 0.4 0.37573 0.07022 0.0
H1156 H 0.43312 0.38167 0.04357 0.0
H1157 H 0.50043 0.41979 0.7376 0.0
H1158 H 0.49246 0.38995 0.78893 0.0
H1159 H 0.47433 0.41855 0.96645 0.0
H1160 H 0.4822 0.44857 0.91545 0.0
H1161 H 0.44966 0.39081 0.92642 0.0
H1162 H 0.51514 0.39735 0.9696 0.0
H1163 H 0.54815 0.4032 0.94138 0.0
H1164 H 0.54783 0.35626 0.8084 0.0
H1165 H 0.51474 0.35026 0.83524 0.0
C1166 C 0.45388 0.30896 0.07678 0.0
C1167 C 0.45964 0.29327 0.04019 0.0
C1168 C 0.45649 0.32694 0.05124 0.0
C1169 C 0.46461 0.32945 0.98824 0.0
C1170 C 0.46961 0.31375 0.95058 0.0
C1171 C 0.46712 0.29584 0.9762 0.0
C1172 C 0.46888 0.34837 0.96259 0.0
C1173 C 0.48739 0.35232 0.94444 0.0
C1174 C 0.45512 0.36246 0.95683 0.0
C1175 C 0.43521 0.35893 0.9728 0.0
C1176 C 0.42541 0.34434 0.94154 0.0
C1177 C 0.40667 0.34104 0.95711 0.0
C1178 C 0.39753 0.35233 0.00354 0.0
C1179 C 0.4071 0.36698 0.03435 0.0
C1180 C 0.42585 0.37033 0.01899 0.0
C1181 C 0.49474 0.41979 0.78755 0.0
C1182 C 0.49204 0.43657 0.82256 0.0
C1183 C 0.49024 0.40271 0.81685 0.0
C1184 C 0.48297 0.40207 0.88166 0.0
C1185 C 0.47996 0.41878 0.9164 0.0
C1186 C 0.48454 0.4359 0.88725 0.0
C1187 C 0.47869 0.38389 0.91308 0.0
C1188 C 0.46026 0.38013 0.93264 0.0
C1189 C 0.4925 0.36992 0.92015 0.0
C1190 C 0.51241 0.37346 0.90399 0.0
C1191 C 0.52207 0.38836 0.93395 0.0
C1192 C 0.5408 0.39169 0.91829 0.0
C1193 C 0.55006 0.38014 0.87301 0.0
C1194 C 0.54063 0.3652 0.84342 0.0
C1195 C 0.52189 0.36182 0.8589 0.0
H1196 H 0.56457 0.38273 0.86094 0.0
H1197 H 0.38302 0.34976 0.01552 0.0
H1198 H 0.1966 0.51762 0.89413 0.0
H1199 H 0.16546 0.51302 0.84801 0.0
H1200 H 0.16531 0.45619 0.91948 0.0
H1201 H 0.19639 0.46086 0.96763 0.0
H1202 H 0.14979 0.49013 0.75837 0.0
H1203 H 0.11954 0.4462 0.97249 0.0
H1204 H 0.12618 0.43874 0.09001 0.0
H1205 H 0.15343 0.49166 0.11454 0.0
H1206 H 0.14632 0.49981 0.9978 0.0
H1207 H 0.04504 0.46028 0.79345 0.0
H1208 H 0.0778 0.45648 0.82625 0.0
H1209 H 0.08893 0.51349 0.76922 0.0
H1210 H 0.05652 0.51733 0.73544 0.0
H1211 H 0.09919 0.47444 0.91774 0.0
H1212 H 0.1303 0.51719 0.69898 0.0
H1213 H 0.12232 0.52417 0.582 0.0
H1214 H 0.093 0.47206 0.56661 0.0
H1215 H 0.10091 0.46468 0.68315 0.0
C1216 C 0.19007 0.50406 0.89944 0.0
C1217 C 0.19887 0.48965 0.93514 0.0
C1218 C 0.17227 0.50144 0.87281 0.0
C1219 C 0.16297 0.48435 0.8811 0.0
C1220 C 0.17214 0.46959 0.91349 0.0
C1221 C 0.18989 0.47226 0.94084 0.0
C1222 C 0.14326 0.48263 0.85967 0.0
C1223 C 0.13873 0.48675 0.79326 0.0
C1224 C 0.12887 0.47773 0.90487 0.0
C1225 C 0.13262 0.47347 0.97601 0.0
C1226 C 0.12681 0.45633 0.00308 0.0
C1227 C 0.1306 0.45201 0.0696 0.0
C1228 C 0.14021 0.46475 0.10963 0.0
C1229 C 0.14591 0.48189 0.0834 0.0
C1230 C 0.14197 0.48637 0.01709 0.0
C1231 C 0.05447 0.47201 0.78802 0.0
C1232 C 0.0482 0.48907 0.76142 0.0
C1233 C 0.07315 0.46981 0.80681 0.0
C1234 C 0.08583 0.4846 0.79905 0.0
C1235 C 0.07946 0.50177 0.77425 0.0
C1236 C 0.06088 0.50396 0.75526 0.0
C1237 C 0.10574 0.48232 0.81701 0.0
C1238 C 0.1103 0.47749 0.88266 0.0
C1239 C 0.12016 0.48648 0.77116 0.0
C1240 C 0.11609 0.49046 0.70002 0.0
C1241 C 0.12224 0.50718 0.67053 0.0
C1242 C 0.11763 0.51125 0.60443 0.0
C1243 C 0.10703 0.49863 0.56717 0.0
C1244 C 0.1011 0.48187 0.59571 0.0
C1245 C 0.10563 0.47775 0.66178 0.0
H1246 H 0.10357 0.50171 0.51595 0.0
H1247 H 0.14323 0.46134 0.16101 0.0
H1248 H 0.93145 0.81738 0.35545 0.0
H1249 H 0.93848 0.84788 0.40352 0.0
H1250 H 0.9974 0.83545 0.39591 0.0
H1251 H 0.99046 0.80464 0.34902 0.0
H1252 H 0.98616 0.85086 0.51627 0.0
H1253 H 0.97629 0.86281 0.28045 0.0
H1254 H 0.95698 0.86055 0.17893 0.0
H1255 H 0.91375 0.89257 0.27255 0.0
H1256 H 0.93261 0.89487 0.37495 0.0
H1257 H 0.02255 0.93937 0.5799 0.0
H1258 H 0.01451 0.90984 0.52722 0.0
H1259 H 0.95692 0.92717 0.51343 0.0
H1260 H 0.965 0.95716 0.56474 0.0
H1261 H 0.96638 0.90936 0.40395 0.0
H1262 H 0.96972 0.89537 0.63415 0.0
H1263 H 0.98251 0.89502 0.74795 0.0
H1264 H 0.03129 0.86608 0.67846 0.0
H1265 H 0.01861 0.86606 0.56409 0.0
C1266 C 0.94591 0.82111 0.36397 0.0
C1267 C 0.96041 0.80862 0.34842 0.0
C1268 C 0.9499 0.83857 0.39129 0.0
C1269 C 0.96846 0.84398 0.40251 0.0
C1270 C 0.98297 0.83151 0.38754 0.0
C1271 C 0.97899 0.81395 0.36069 0.0
C1272 C 0.97271 0.86266 0.43013 0.0
C1273 C 0.98215 0.86366 0.49116 0.0
C1274 C 0.96662 0.8793 0.39879 0.0
C1275 C 0.95588 0.87898 0.33551 0.0
C1276 C 0.9627 0.86944 0.27933 0.0
C1277 C 0.95184 0.86814 0.22166 0.0
C1278 C 0.93423 0.87648 0.21922 0.0
C1279 C 0.92745 0.88621 0.2744 0.0
C1280 C 0.93823 0.88755 0.33223 0.0
C1281 C 0.00817 0.93697 0.56555 0.0
C1282 C 0.99438 0.95057 0.57697 0.0
C1283 C 0.00358 0.92002 0.53562 0.0
C1284 C 0.98505 0.91613 0.51751 0.0
C1285 C 0.9713 0.92986 0.52718 0.0
C1286 C 0.97593 0.94696 0.5566 0.0
C1287 C 0.98013 0.89757 0.48969 0.0
C1288 C 0.97055 0.89658 0.4288 0.0
C1289 C 0.98548 0.88086 0.52217 0.0
C1290 C 0.99331 0.88089 0.59054 0.0
C1291 C 0.98323 0.88905 0.64308 0.0
C1292 C 0.99045 0.88888 0.70771 0.0
C1293 C 0.00779 0.88069 0.72043 0.0
C1294 C 0.01788 0.87248 0.66853 0.0
C1295 C 0.01064 0.87247 0.60383 0.0
H1296 H 0.01338 0.88063 0.77052 0.0
H1297 H 0.92584 0.87541 0.17457 0.0
H1298 H 0.70631 0.99406 0.44676 0.0
H1299 H 0.67593 0.99851 0.50054 0.0
H1300 H 0.6635 0.94006 0.47397 0.0
H1301 H 0.69382 0.93541 0.42093 0.0
H1302 H 0.63668 0.96445 0.42096 0.0
H1303 H 0.67058 0.95484 0.62359 0.0
H1304 H 0.69527 0.96022 0.70695 0.0
H1305 H 0.6765 0.01668 0.73315 0.0
H1306 H 0.6519 0.01177 0.64896 0.0
H1307 H 0.54845 0.9672 0.58577 0.0
H1308 H 0.58013 0.95875 0.55117 0.0
H1309 H 0.59931 0.01411 0.60157 0.0
H1310 H 0.56798 0.02252 0.63745 0.0
H1311 H 0.62298 0.98924 0.64615 0.0
H1312 H 0.59072 0.0002 0.44033 0.0
H1313 H 0.56682 0.99611 0.35315 0.0
H1314 H 0.58339 0.93893 0.32806 0.0
H1315 H 0.60702 0.94251 0.41631 0.0
C1316 C 0.69723 0.9821 0.45339 0.0
C1317 C 0.70239 0.96441 0.42921 0.0
C1318 C 0.67994 0.98465 0.48431 0.0
C1319 C 0.66755 0.96959 0.49111 0.0
C1320 C 0.67293 0.95182 0.46914 0.0
C1321 C 0.69026 0.94921 0.43894 0.0
C1322 C 0.64832 0.97271 0.51525 0.0
C1323 C 0.63359 0.96955 0.47063 0.0
C1324 C 0.64453 0.97991 0.57929 0.0
C1325 C 0.65951 0.98299 0.62926 0.0
C1326 C 0.67185 0.96848 0.64645 0.0
C1327 C 0.68581 0.97143 0.69402 0.0
C1328 C 0.68749 0.9888 0.72515 0.0
C1329 C 0.6752 0.00324 0.70887 0.0
C1330 C 0.66125 0.00038 0.66122 0.0
C1331 C 0.55942 0.97757 0.58936 0.0
C1332 C 0.55566 0.99555 0.61405 0.0
C1333 C 0.57749 0.97274 0.56939 0.0
C1334 C 0.59204 0.98587 0.5732 0.0
C1335 C 0.58831 0.00376 0.59824 0.0
C1336 C 0.57034 0.00855 0.61848 0.0
C1337 C 0.61124 0.98108 0.55167 0.0
C1338 C 0.62599 0.98398 0.59666 0.0
C1339 C 0.6151 0.97385 0.48755 0.0
C1340 C 0.60045 0.97154 0.43584 0.0
C1341 C 0.58906 0.98666 0.41703 0.0
C1342 C 0.57557 0.98444 0.36731 0.0
C1343 C 0.57346 0.96722 0.33547 0.0
C1344 C 0.58488 0.9522 0.35316 0.0
C1345 C 0.59832 0.95432 0.4031 0.0
H1346 H 0.56307 0.96553 0.29678 0.0
H1347 H 0.6983 0.99104 0.76198 0.0
H1348 H 0.56037 0.68269 0.44794 0.0
H1349 H 0.55838 0.65172 0.49859 0.0
H1350 H 0.4983 0.65601 0.50323 0.0
H1351 H 0.50013 0.68707 0.45311 0.0
H1352 H 0.51299 0.64048 0.61809 0.0
H1353 H 0.51991 0.63512 0.38124 0.0
H1354 H 0.5359 0.64102 0.27488 0.0
H1355 H 0.58326 0.6094 0.34143 0.0
H1356 H 0.56809 0.60431 0.45009 0.0
H1357 H 0.48606 0.54682 0.64993 0.0
H1358 H 0.49066 0.57822 0.60627 0.0
H1359 H 0.55007 0.56857 0.59565 0.0
H1360 H 0.54552 0.53677 0.63806 0.0
H1361 H 0.53745 0.58703 0.48718 0.0
H1362 H 0.53057 0.59194 0.72325 0.0
H1363 H 0.51503 0.5867 0.831 0.0
H1364 H 0.46783 0.61882 0.76593 0.0
H1365 H 0.4827 0.6236 0.65659 0.0
C1366 C 0.54673 0.67713 0.4603 0.0
C1367 C 0.53038 0.68725 0.44596 0.0
C1368 C 0.54564 0.65945 0.48921 0.0
C1369 C 0.52819 0.65154 0.50387 0.0
C1370 C 0.5119 0.6619 0.49218 0.0
C1371 C 0.51297 0.6796 0.46328 0.0
C1372 C 0.52683 0.63208 0.52789 0.0
C1373 C 0.51818 0.62875 0.58934 0.0
C1374 C 0.53402 0.6169 0.49062 0.0
C1375 C 0.54293 0.61954 0.4244 0.0
C1376 C 0.53383 0.62961 0.3737 0.0
C1377 C 0.54276 0.63283 0.31292 0.0
C1378 C 0.56052 0.62549 0.3012 0.0
C1379 C 0.56948 0.61507 0.35055 0.0
C1380 C 0.56078 0.61212 0.41196 0.0
C1381 C 0.50012 0.55132 0.6381 0.0
C1382 C 0.51547 0.53939 0.64789 0.0
C1383 C 0.50271 0.56929 0.61325 0.0
C1384 C 0.52073 0.57583 0.59892 0.0
C1385 C 0.53606 0.56378 0.60666 0.0
C1386 C 0.53344 0.54566 0.6309 0.0
C1387 C 0.52351 0.59539 0.57733 0.0
C1388 C 0.53238 0.59875 0.51624 0.0
C1389 C 0.51656 0.61062 0.61498 0.0
C1390 C 0.50773 0.60802 0.68135 0.0
C1391 C 0.51681 0.59777 0.73162 0.0
C1392 C 0.50812 0.59489 0.79307 0.0
C1393 C 0.4905 0.6025 0.80545 0.0
C1394 C 0.48149 0.61294 0.75628 0.0
C1395 C 0.49002 0.6157 0.69447 0.0
H1396 H 0.48382 0.60034 0.8531 0.0
H1397 H 0.56734 0.6279 0.2539 0.0
H1398 H 0.80826 0.53081 0.33161 0.0
H1399 H 0.83871 0.52517 0.38186 0.0
H1400 H 0.81269 0.49318 0.5384 0.0
H1401 H 0.78194 0.49859 0.48749 0.0
H1402 H 0.83965 0.51838 0.58453 0.0
H1403 H 0.83491 0.46997 0.42159 0.0
H1404 H 0.82869 0.45661 0.3107 0.0
H1405 H 0.87215 0.49048 0.22652 0.0
H1406 H 0.87856 0.50419 0.33695 0.0
H1407 H 0.92731 0.48539 0.70232 0.0
H1408 H 0.8953 0.48704 0.66085 0.0
H1409 H 0.91484 0.51404 0.48187 0.0
H1410 H 0.94696 0.51191 0.52207 0.0
H1411 H 0.88993 0.48866 0.45158 0.0
H1412 H 0.8935 0.53847 0.61291 0.0
H1413 H 0.89949 0.55228 0.72337 0.0
H1414 H 0.85795 0.51652 0.81003 0.0
H1415 H 0.85185 0.50234 0.70014 0.0
C1416 C 0.80899 0.52238 0.37632 0.0
C1417 C 0.79277 0.5148 0.40489 0.0
C1418 C 0.8264 0.51923 0.40507 0.0
C1419 C 0.82795 0.50852 0.46321 0.0
C1420 C 0.81175 0.50139 0.49324 0.0
C1421 C 0.79424 0.50448 0.46417 0.0
C1422 C 0.84661 0.5049 0.49204 0.0
C1423 C 0.85059 0.51158 0.5561 0.0
C1424 C 0.8609 0.49638 0.45414 0.0
C1425 C 0.85717 0.48815 0.38756 0.0
C1426 C 0.84309 0.47465 0.3794 0.0
C1427 C 0.83956 0.46698 0.31669 0.0
C1428 C 0.85006 0.47264 0.26172 0.0
C1429 C 0.86408 0.48606 0.26925 0.0
C1430 C 0.8677 0.49375 0.33194 0.0
C1431 C 0.9248 0.49171 0.65415 0.0
C1432 C 0.93967 0.49859 0.61557 0.0
C1433 C 0.90647 0.4927 0.63062 0.0
C1434 C 0.90262 0.50091 0.56867 0.0
C1435 C 0.91747 0.50765 0.52985 0.0
C1436 C 0.93583 0.50646 0.55296 0.0
C1437 C 0.88316 0.50244 0.5439 0.0
C1438 C 0.87901 0.49534 0.48044 0.0
C1439 C 0.86874 0.51065 0.58234 0.0
C1440 C 0.87234 0.51922 0.6484 0.0
C1441 C 0.88573 0.53346 0.65559 0.0
C1442 C 0.88913 0.54137 0.71808 0.0
C1443 C 0.87913 0.53526 0.77367 0.0
C1444 C 0.86569 0.52123 0.7669 0.0
C1445 C 0.86224 0.51327 0.70453 0.0
H1446 H 0.88173 0.54143 0.82193 0.0
H1447 H 0.84733 0.46661 0.21334 0.0
loop_
_geom_bond_atom_site_label_1
_geom_bond_atom_site_label_2
_geom_bond_distance
_geom_bond_site_symmetry_2
_ccdc_geom_bond_type
O0 Cd1 2.300 . S
O0 C7 1.275 . S
Cd1 O0 2.300 . S
Cd1 O9 2.381 . S
Cd1 O10 2.378 . S
O2 Cd3 2.385 . S
O2 C7 1.255 . S
Cd3 O2 2.385 . S
Cd3 O4 2.317 . S
O4 Cd3 2.317 . S
O4 C5 1.232 . S
C5 O4 1.232 . S
C5 O6 1.218 . S
O6 C5 1.218 . S
C7 O0 1.275 . S
C7 O2 1.255 . S
C8 O9 1.258 . S
C8 O10 1.256 . S
O9 Cd1 2.381 . S
O9 C8 1.258 . S
O10 Cd1 2.378 . S
O10 C8 1.256 . S
O11 Cd12 2.300 1_655 S
O11 C18 1.275 1_655 S
Cd12 O11 2.300 1_455 S
Cd12 O20 2.381 1_455 S
Cd12 O21 2.378 . S
O13 Cd14 2.385 . S
O13 C18 1.255 . S
Cd14 O13 2.385 . S
Cd14 O15 2.317 . S
O15 Cd14 2.317 . S
O15 C16 1.232 . S
C16 O15 1.232 . S
C16 O17 1.218 . S
O17 C16 1.218 . S
C18 O11 1.275 1_455 S
C18 O13 1.255 . S
C19 O20 1.258 1_455 S
C19 O21 1.256 . S
O20 Cd12 2.381 1_655 S
O20 C19 1.258 1_655 S
O21 Cd12 2.378 . S
O21 C19 1.256 . S
O22 Cd23 2.300 1_565 S
O22 C29 1.275 1_565 S
Cd23 O22 2.300 1_545 S
Cd23 O31 2.381 1_545 S
Cd23 O32 2.378 . S
O24 Cd25 2.385 . S
O24 C29 1.255 . S
Cd25 O24 2.385 . S
Cd25 O26 2.317 . S
O26 Cd25 2.317 . S
O26 C27 1.232 . S
C27 O26 1.232 . S
C27 O28 1.218 . S
O28 C27 1.218 . S
C29 O22 1.275 1_545 S
C29 O24 1.255 . S
C30 O31 1.258 1_545 S
C30 O32 1.256 . S
O31 Cd23 2.381 1_565 S
O31 C30 1.258 1_565 S
O32 Cd23 2.378 . S
O32 C30 1.256 . S
O33 Cd34 2.300 . S
O33 C40 1.275 . S
Cd34 O33 2.300 . S
Cd34 O42 2.381 . S
Cd34 O43 2.378 . S
O35 Cd36 2.385 . S
O35 C40 1.255 . S
Cd36 O35 2.385 . S
Cd36 O37 2.317 . S
O37 Cd36 2.317 . S
O37 C38 1.232 . S
C38 O37 1.232 . S
C38 O39 1.218 . S
O39 C38 1.218 . S
C40 O33 1.275 . S
C40 O35 1.255 . S
C41 O42 1.258 . S
C41 O43 1.256 . S
O42 Cd34 2.381 . S
O42 C41 1.258 . S
O43 Cd34 2.378 . S
O43 C41 1.256 . S
O44 Cd45 2.300 . S
O44 C51 1.275 . S
Cd45 O44 2.300 . S
Cd45 O53 2.381 . S
Cd45 O54 2.378 . S
O46 Cd47 2.385 . S
O46 C51 1.255 . S
Cd47 O46 2.385 . S
Cd47 O48 2.317 1_554 S
O48 Cd47 2.317 1_556 S
O48 C49 1.232 . S
C49 O48 1.232 . S
C49 O50 1.218 . S
O50 C49 1.218 . S
C51 O44 1.275 . S
C51 O46 1.255 . S
C52 O53 1.258 . S
C52 O54 1.256 . S
O53 Cd45 2.381 . S
O53 C52 1.258 . S
O54 Cd45 2.378 . S
O54 C52 1.256 . S
O55 Cd56 2.300 1_655 S
O55 C62 1.275 1_655 S
Cd56 O55 2.300 1_455 S
Cd56 O64 2.381 1_455 S
Cd56 O65 2.378 . S
O57 Cd58 2.385 . S
O57 C62 1.255 . S
Cd58 O57 2.385 . S
Cd58 O59 2.317 1_554 S
O59 Cd58 2.317 1_556 S
O59 C60 1.232 . S
C60 O59 1.232 . S
C60 O61 1.218 . S
O61 C60 1.218 . S
C62 O55 1.275 1_455 S
C62 O57 1.255 . S
C63 O64 1.258 1_455 S
C63 O65 1.256 . S
O64 Cd56 2.381 1_655 S
O64 C63 1.258 1_655 S
O65 Cd56 2.378 . S
O65 C63 1.256 . S
O66 Cd67 2.300 1_565 S
O66 C73 1.275 1_565 S
Cd67 O66 2.300 1_545 S
Cd67 O75 2.381 1_545 S
Cd67 O76 2.378 . S
O68 Cd69 2.385 . S
O68 C73 1.255 . S
Cd69 O68 2.385 . S
Cd69 O70 2.317 1_554 S
O70 Cd69 2.317 1_556 S
O70 C71 1.232 . S
C71 O70 1.232 . S
C71 O72 1.218 . S
O72 C71 1.218 . S
C73 O66 1.275 1_545 S
C73 O68 1.255 . S
C74 O75 1.258 1_545 S
C74 O76 1.256 . S
O75 Cd67 2.381 1_565 S
O75 C74 1.258 1_565 S
O76 Cd67 2.378 . S
O76 C74 1.256 . S
O77 Cd78 2.300 . S
O77 C84 1.275 . S
Cd78 O77 2.300 . S
Cd78 O86 2.381 . S
Cd78 O87 2.378 . S
O79 Cd80 2.385 . S
O79 C84 1.255 . S
Cd80 O79 2.385 . S
Cd80 O81 2.317 1_554 S
O81 Cd80 2.317 1_556 S
O81 C82 1.232 . S
C82 O81 1.232 . S
C82 O83 1.218 . S
O83 C82 1.218 . S
C84 O77 1.275 . S
C84 O79 1.255 . S
C85 O86 1.258 . S
C85 O87 1.256 . S
O86 Cd78 2.381 . S
O86 C85 1.258 . S
O87 Cd78 2.378 . S
O87 C85 1.256 . S
Tb88 C98 2.825 . S
Tb88 O99 2.347 1_455 S
Tb88 O102 2.366 . S
Tb88 O107 2.418 . S
Tb88 O108 2.384 1_565 S
Tb88 O111 2.479 . S
Tb88 O112 2.471 . S
Eu89 O100 2.418 . S
Eu89 O101 2.384 1_545 S
Eu89 O104 2.479 . S
Eu89 O105 2.471 . S
Eu89 O106 2.347 1_655 S
Eu89 O109 2.366 . S
Eu89 C119 2.825 . S
C90 O106 1.259 1_565 S
C90 O107 1.265 . S
C91 O108 1.255 . S
C91 O109 1.265 1_455 S
C92 C94 1.380 . S
C92 C95 1.374 . S
C92 C98 1.507 . S
C93 C94 1.384 . S
C93 C97 1.387 . S
C93 H120 0.930 . S
C94 C92 1.380 . S
C94 C93 1.384 . S
C94 H121 0.931 . S
C95 C92 1.374 . S
C95 C96 1.390 . S
C95 H122 0.930 1_455 S
C96 C95 1.390 . S
C96 C97 1.391 . S
C96 H123 0.930 1_455 S
C97 C93 1.387 . S
C97 C96 1.391 . S
C98 Tb88 2.825 . S
C98 C92 1.507 . S
C98 O111 1.238 . S
C98 O112 1.247 . S
O99 Tb88 2.347 1_655 S
O99 C103 1.259 1_565 S
O100 Eu89 2.418 . S
O100 C103 1.265 . S
O101 Eu89 2.384 1_565 S
O101 C110 1.255 . S
O102 Tb88 2.366 . S
O102 C110 1.265 1_455 S
C103 O99 1.259 1_545 S
C103 O100 1.265 . S
O104 Eu89 2.479 . S
O104 C119 1.238 . S
O105 Eu89 2.471 . S
O105 C119 1.247 . S
O106 Eu89 2.347 1_455 S
O106 C90 1.259 1_545 S
O107 Tb88 2.418 . S
O107 C90 1.265 . S
O108 Tb88 2.384 1_545 S
O108 C91 1.255 . S
O109 Eu89 2.366 . S
O109 C91 1.265 1_655 S
C110 O101 1.255 . S
C110 O102 1.265 1_655 S
O111 Tb88 2.479 . S
O111 C98 1.238 . S
O112 Tb88 2.471 . S
O112 C98 1.247 . S
C113 C116 1.380 . S
C113 C117 1.374 . S
C113 C119 1.507 . S
C114 C115 1.387 . S
C114 C118 1.391 . S
C115 C114 1.387 . S
C115 C116 1.384 . S
C115 H124 0.930 . S
C116 C113 1.380 . S
C116 C115 1.384 . S
C116 H125 0.931 . S
C117 C113 1.374 . S
C117 C118 1.390 . S
C117 H126 0.930 1_655 S
C118 C114 1.391 . S
C118 C117 1.390 . S
C118 H127 0.930 1_655 S
C119 Eu89 2.825 . S
C119 O104 1.238 . S
C119 O105 1.247 . S
C119 C113 1.507 . S
H120 C93 0.930 . S
H121 C94 0.931 . S
H122 C95 0.930 1_655 S
H123 C96 0.930 1_655 S
H124 C115 0.930 . S
H125 C116 0.931 . S
H126 C117 0.930 1_455 S
H127 C118 0.930 1_455 S
Tb128 C138 2.825 . S
Tb128 O139 2.347 1_545 S
Tb128 O142 2.366 . S
Tb128 O147 2.418 . S
Tb128 O148 2.384 . S
Tb128 O151 2.479 . S
Tb128 O152 2.471 . S
Eu129 O140 2.418 . S
Eu129 O141 2.384 . S
Eu129 O144 2.479 . S
Eu129 O145 2.471 . S
Eu129 O146 2.347 1_565 S
Eu129 O149 2.366 . S
Eu129 C159 2.825 . S
C130 O146 1.259 . S
C130 O147 1.265 . S
C131 O148 1.255 . S
C131 O149 1.265 1_545 S
C132 C134 1.380 . S
C132 C135 1.374 . S
C132 C138 1.507 . S
C133 C134 1.384 . S
C133 C137 1.387 . S
C133 H160 0.930 . S
C134 C132 1.380 . S
C134 C133 1.384 . S
C134 H161 0.931 . S
C135 C132 1.374 . S
C135 C136 1.390 . S
C135 H162 0.930 1_545 S
C136 C135 1.390 . S
C136 C137 1.391 . S
C136 H163 0.930 1_545 S
C137 C133 1.387 . S
C137 C136 1.391 . S
C138 Tb128 2.825 . S
C138 C132 1.507 . S
C138 O151 1.238 . S
C138 O152 1.247 . S
O139 Tb128 2.347 1_565 S
O139 C143 1.259 . S
O140 Eu129 2.418 . S
O140 C143 1.265 . S
O141 Eu129 2.384 . S
O141 C150 1.255 . S
O142 Tb128 2.366 . S
O142 C150 1.265 1_545 S
C143 O139 1.259 . S
C143 O140 1.265 . S
O144 Eu129 2.479 . S
O144 C159 1.238 . S
O145 Eu129 2.471 . S
O145 C159 1.247 . S
O146 Eu129 2.347 1_545 S
O146 C130 1.259 . S
O147 Tb128 2.418 . S
O147 C130 1.265 . S
O148 Tb128 2.384 . S
O148 C131 1.255 . S
O149 Eu129 2.366 . S
O149 C131 1.265 1_565 S
C150 O141 1.255 . S
C150 O142 1.265 1_565 S
O151 Tb128 2.479 . S
O151 C138 1.238 . S
O152 Tb128 2.471 . S
O152 C138 1.247 . S
C153 C156 1.380 . S
C153 C157 1.374 . S
C153 C159 1.507 . S
C154 C155 1.387 . S
C154 C158 1.391 . S
C155 C154 1.387 . S
C155 C156 1.384 . S
C155 H164 0.930 . S
C156 C153 1.380 . S
C156 C155 1.384 . S
C156 H165 0.931 . S
C157 C153 1.374 . S
C157 C158 1.390 . S
C157 H166 0.930 1_565 S
C158 C154 1.391 . S
C158 C157 1.390 . S
C158 H167 0.930 1_565 S
C159 Eu129 2.825 . S
C159 O144 1.238 . S
C159 O145 1.247 . S
C159 C153 1.507 . S
H160 C133 0.930 . S
H161 C134 0.931 . S
H162 C135 0.930 1_565 S
H163 C136 0.930 1_565 S
H164 C155 0.930 . S
H165 C156 0.931 . S
H166 C157 0.930 1_545 S
H167 C158 0.930 1_545 S
Tb168 C178 2.825 . S
Tb168 O179 2.347 . S
Tb168 O182 2.366 . S
Tb168 O187 2.418 . S
Tb168 O188 2.384 . S
Tb168 O191 2.479 . S
Tb168 O192 2.471 . S
Eu169 O180 2.418 . S
Eu169 O181 2.384 . S
Eu169 O184 2.479 . S
Eu169 O185 2.471 . S
Eu169 O186 2.347 . S
Eu169 O189 2.366 . S
Eu169 C199 2.825 . S
C170 O186 1.259 . S
C170 O187 1.265 . S
C171 O188 1.255 . S
C171 O189 1.265 . S
C172 C174 1.380 . S
C172 C175 1.374 . S
C172 C178 1.507 . S
C173 C174 1.384 . S
C173 C177 1.387 . S
C173 H200 0.930 . S
C174 C172 1.380 . S
C174 C173 1.384 . S
C174 H201 0.931 . S
C175 C172 1.374 . S
C175 C176 1.390 . S
C175 H202 0.930 . S
C176 C175 1.390 . S
C176 C177 1.391 . S
C176 H203 0.930 . S
C177 C173 1.387 . S
C177 C176 1.391 . S
C178 Tb168 2.825 . S
C178 C172 1.507 . S
C178 O191 1.238 . S
C178 O192 1.247 . S
O179 Tb168 2.347 . S
O179 C183 1.259 . S
O180 Eu169 2.418 . S
O180 C183 1.265 . S
O181 Eu169 2.384 . S
O181 C190 1.255 . S
O182 Tb168 2.366 . S
O182 C190 1.265 . S
C183 O179 1.259 . S
C183 O180 1.265 . S
O184 Eu169 2.479 . S
O184 C199 1.238 . S
O185 Eu169 2.471 . S
O185 C199 1.247 . S
O186 Eu169 2.347 . S
O186 C170 1.259 . S
O187 Tb168 2.418 . S
O187 C170 1.265 . S
O188 Tb168 2.384 . S
O188 C171 1.255 . S
O189 Eu169 2.366 . S
O189 C171 1.265 . S
C190 O181 1.255 . S
C190 O182 1.265 . S
O191 Tb168 2.479 . S
O191 C178 1.238 . S
O192 Tb168 2.471 . S
O192 C178 1.247 . S
C193 C196 1.380 . S
C193 C197 1.374 . S
C193 C199 1.507 . S
C194 C195 1.387 . S
C194 C198 1.391 . S
C195 C194 1.387 . S
C195 C196 1.384 . S
C195 H204 0.930 . S
C196 C193 1.380 . S
C196 C195 1.384 . S
C196 H205 0.931 . S
C197 C193 1.374 . S
C197 C198 1.390 . S
C197 H206 0.930 . S
C198 C194 1.391 . S
C198 C197 1.390 . S
C198 H207 0.930 . S
C199 Eu169 2.825 . S
C199 O184 1.238 . S
C199 O185 1.247 . S
C199 C193 1.507 . S
H200 C173 0.930 . S
H201 C174 0.931 . S
H202 C175 0.930 . S
H203 C176 0.930 . S
H204 C195 0.930 . S
H205 C196 0.931 . S
H206 C197 0.930 . S
H207 C198 0.930 . S
Tb208 C218 2.825 . S
Tb208 O219 2.347 . S
Tb208 O222 2.366 . S
Tb208 O227 2.418 . S
Tb208 O228 2.384 1_655 S
Tb208 O231 2.479 . S
Tb208 O232 2.471 . S
Eu209 O220 2.418 . S
Eu209 O221 2.384 1_455 S
Eu209 O224 2.479 . S
Eu209 O225 2.471 . S
Eu209 O226 2.347 . S
Eu209 O229 2.366 . S
Eu209 C239 2.825 . S
C210 O226 1.259 1_655 S
C210 O227 1.265 . S
C211 O228 1.255 . S
C211 O229 1.265 . S
C212 C214 1.380 . S
C212 C215 1.374 . S
C212 C218 1.507 . S
C213 C214 1.384 . S
C213 C217 1.387 . S
C213 H240 0.930 . S
C214 C212 1.380 . S
C214 C213 1.384 . S
C214 H241 0.931 . S
C215 C212 1.374 . S
C215 C216 1.390 . S
C215 H242 0.930 . S
C216 C215 1.390 . S
C216 C217 1.391 . S
C216 H243 0.930 . S
C217 C213 1.387 . S
C217 C216 1.391 . S
C218 Tb208 2.825 . S
C218 C212 1.507 . S
C218 O231 1.238 . S
C218 O232 1.247 . S
O219 Tb208 2.347 . S
O219 C223 1.259 1_655 S
O220 Eu209 2.418 . S
O220 C223 1.265 . S
O221 Eu209 2.384 1_655 S
O221 C230 1.255 . S
O222 Tb208 2.366 . S
O222 C230 1.265 . S
C223 O219 1.259 1_455 S
C223 O220 1.265 . S
O224 Eu209 2.479 . S
O224 C239 1.238 . S
O225 Eu209 2.471 . S
O225 C239 1.247 . S
O226 Eu209 2.347 . S
O226 C210 1.259 1_455 S
O227 Tb208 2.418 . S
O227 C210 1.265 . S
O228 Tb208 2.384 1_455 S
O228 C211 1.255 . S
O229 Eu209 2.366 . S
O229 C211 1.265 . S
C230 O221 1.255 . S
C230 O222 1.265 . S
O231 Tb208 2.479 . S
O231 C218 1.238 . S
O232 Tb208 2.471 . S
O232 C218 1.247 . S
C233 C236 1.380 . S
C233 C237 1.374 . S
C233 C239 1.507 . S
C234 C235 1.387 . S
C234 C238 1.391 . S
C235 C234 1.387 . S
C235 C236 1.384 . S
C235 H244 0.930 . S
C236 C233 1.380 . S
C236 C235 1.384 . S
C236 H245 0.931 . S
C237 C233 1.374 . S
C237 C238 1.390 . S
C237 H246 0.930 . S
C238 C234 1.391 . S
C238 C237 1.390 . S
C238 H247 0.930 . S
C239 Eu209 2.825 . S
C239 O224 1.238 . S
C239 O225 1.247 . S
C239 C233 1.507 . S
H240 C213 0.930 . S
H241 C214 0.931 . S
H242 C215 0.930 . S
H243 C216 0.930 . S
H244 C235 0.930 . S
H245 C236 0.931 . S
H246 C237 0.930 . S
H247 C238 0.930 . S
H248 C266 0.951 . S
H249 C268 0.951 . S
H250 C270 0.950 . S
H251 C271 0.950 . S
H252 C273 0.950 . S
H253 C276 0.950 . S
H254 C277 0.950 . S
H255 C279 0.950 . S
H256 C280 0.950 . S
H257 C281 0.951 . S
H258 C283 0.951 . S
H259 C285 0.950 . S
H260 C286 0.950 . S
H261 C288 0.950 . S
H262 C291 0.950 . S
H263 C292 0.950 . S
H264 C294 0.980 . S
H265 C295 0.950 . S
C266 H248 0.951 . S
C266 C267 1.405 . S
C266 C268 1.388 . S
C267 C266 1.405 . S
C267 C271 1.346 1_545 S
C268 H249 0.951 . S
C268 C266 1.388 . S
C268 C269 1.371 . S
C269 C268 1.371 . S
C269 C270 1.409 1_545 S
C269 C272 1.498 1_545 S
C270 H250 0.950 . S
C270 C269 1.409 1_565 S
C270 C271 1.374 . S
C271 H251 0.950 . S
C271 C267 1.346 1_565 S
C271 C270 1.374 . S
C272 C269 1.498 1_565 S
C272 C273 1.372 1_565 S
C272 C274 1.389 . S
C273 H252 0.950 . S
C273 C272 1.372 1_545 S
C273 C289 1.377 . S
C274 C272 1.389 . S
C274 C275 1.535 . S
C274 C288 1.373 1_565 S
C275 C274 1.535 . S
C275 C276 1.397 . S
C275 C280 1.363 1_565 S
C276 H253 0.950 . S
C276 C275 1.397 . S
C276 C277 1.334 . S
C277 H254 0.950 . S
C277 C276 1.334 . S
C277 C278 1.287 . S
C278 C277 1.287 . S
C278 C279 1.524 1_565 S
C278 H297 0.913 . S
C279 H255 0.950 . S
C279 C278 1.524 1_545 S
C279 C280 1.415 . S
C280 H256 0.950 . S
C280 C275 1.363 1_545 S
C280 C279 1.415 . S
C281 H257 0.951 . S
C281 C282 1.333 1_565 S
C281 C283 1.388 . S
C282 C281 1.333 1_545 S
C282 C286 1.420 . S
C283 H258 0.951 . S
C283 C281 1.388 . S
C283 C284 1.366 1_565 S
C284 C283 1.366 1_545 S
C284 C285 1.414 . S
C284 C287 1.499 . S
C285 H259 0.950 . S
C285 C284 1.414 . S
C285 C286 1.374 . S
C286 H260 0.950 . S
C286 C282 1.420 . S
C286 C285 1.374 . S
C287 C284 1.499 . S
C287 C288 1.375 . S
C287 C289 1.389 . S
C288 H261 0.950 . S
C288 C274 1.373 1_545 S
C288 C287 1.375 . S
C289 C273 1.377 . S
C289 C287 1.389 . S
C289 C290 1.524 . S
C290 C289 1.524 . S
C290 C291 1.397 . S
C290 C295 1.363 1_545 S
C291 H262 0.950 . S
C291 C290 1.397 . S
C291 C292 1.334 . S
C292 H263 0.950 . S
C292 C291 1.334 . S
C292 C293 1.287 . S
C293 C292 1.287 . S
C293 C294 1.481 1_545 S
C293 H296 0.999 . S
C294 H264 0.980 . S
C294 C293 1.481 1_565 S
C294 C295 1.426 . S
C295 H265 0.950 . S
C295 C290 1.363 1_565 S
C295 C294 1.426 . S
H296 C293 0.999 . S
H297 C278 0.913 . S
H298 C316 0.951 . S
H299 C318 0.951 . S
H300 C320 0.950 . S
H301 C321 0.950 . S
H302 C323 0.950 . S
H303 C326 0.950 . S
H304 C327 0.950 . S
H305 C329 0.950 . S
H306 C330 0.950 . S
H307 C331 0.951 . S
H308 C333 0.951 . S
H309 C335 0.950 . S
H310 C336 0.950 . S
H311 C338 0.950 . S
H312 C341 0.950 . S
H313 C342 0.950 . S
H314 C344 0.950 . S
H315 C345 0.950 . S
C316 H298 0.951 . S
C316 C317 1.366 . S
C316 C318 1.388 . S
C317 C316 1.366 . S
C317 C321 1.385 . S
C318 H299 0.951 . S
C318 C316 1.388 . S
C318 C319 1.366 . S
C319 C318 1.366 . S
C319 C320 1.414 . S
C319 C322 1.499 . S
C320 H300 0.950 . S
C320 C319 1.414 . S
C320 C321 1.374 . S
C321 H301 0.950 . S
C321 C317 1.385 . S
C321 C320 1.374 . S
C322 C319 1.499 . S
C322 C323 1.373 . S
C322 C324 1.389 . S
C323 H302 0.950 . S
C323 C322 1.373 . S
C323 C339 1.377 . S
C324 C322 1.389 . S
C324 C325 1.524 . S
C324 C338 1.377 . S
C325 C324 1.524 . S
C325 C326 1.397 . S
C325 C330 1.363 . S
C326 H303 0.950 . S
C326 C325 1.397 . S
C326 C327 1.334 . S
C327 H304 0.950 . S
C327 C326 1.334 . S
C327 C328 1.287 . S
C328 C327 1.287 . S
C328 C329 1.524 . S
C328 H347 0.913 . S
C329 H305 0.950 . S
C329 C328 1.524 . S
C329 C330 1.415 . S
C330 H306 0.950 . S
C330 C325 1.363 . S
C330 C329 1.415 . S
C331 H307 0.951 . S
C331 C332 1.366 . S
C331 C333 1.388 . S
C332 C331 1.366 . S
C332 C336 1.385 . S
C333 H308 0.951 . S
C333 C331 1.388 . S
C333 C334 1.366 . S
C334 C333 1.366 . S
C334 C335 1.414 . S
C334 C337 1.499 . S
C335 H309 0.950 . S
C335 C334 1.414 . S
C335 C336 1.374 . S
C336 H310 0.950 . S
C336 C332 1.385 . S
C336 C335 1.374 . S
C337 C334 1.499 . S
C337 C338 1.373 . S
C337 C339 1.389 . S
C338 H311 0.950 . S
C338 C324 1.377 . S
C338 C337 1.373 . S
C339 C323 1.377 . S
C339 C337 1.389 . S
C339 C340 1.524 . S
C340 C339 1.524 . S
C340 C341 1.397 . S
C340 C345 1.363 . S
C341 H312 0.950 . S
C341 C340 1.397 . S
C341 C342 1.334 . S
C342 H313 0.950 . S
C342 C341 1.334 . S
C342 C343 1.287 . S
C343 C342 1.287 . S
C343 C344 1.524 . S
C343 H346 0.999 . S
C344 H314 0.950 . S
C344 C343 1.524 . S
C344 C345 1.415 . S
C345 H315 0.950 . S
C345 C340 1.363 . S
C345 C344 1.415 . S
H346 C343 0.999 . S
H347 C328 0.913 . S
H348 C366 0.951 . S
H349 C368 0.951 . S
H350 C370 0.950 . S
H351 C371 0.950 . S
H352 C373 0.950 . S
H353 C376 0.950 . S
H354 C377 0.950 . S
H355 C379 0.950 . S
H356 C380 0.950 . S
H357 C381 0.951 . S
H358 C383 0.951 . S
H359 C385 0.950 . S
H360 C386 0.950 . S
H361 C388 0.950 . S
H362 C391 0.950 . S
H363 C392 0.950 . S
H364 C394 0.950 . S
H365 C395 0.950 . S
C366 H348 0.951 . S
C366 C367 1.366 . S
C366 C368 1.388 . S
C367 C366 1.366 . S
C367 C371 1.385 . S
C368 H349 0.951 . S
C368 C366 1.388 . S
C368 C369 1.366 . S
C369 C368 1.366 . S
C369 C370 1.414 . S
C369 C372 1.499 . S
C370 H350 0.950 . S
C370 C369 1.414 . S
C370 C371 1.374 . S
C371 H351 0.950 . S
C371 C367 1.385 . S
C371 C370 1.374 . S
C372 C369 1.499 . S
C372 C373 1.373 . S
C372 C374 1.389 . S
C373 H352 0.950 . S
C373 C372 1.373 . S
C373 C389 1.377 . S
C374 C372 1.389 . S
C374 C375 1.524 . S
C374 C388 1.377 . S
C375 C374 1.524 . S
C375 C376 1.397 . S
C375 C380 1.363 . S
C376 H353 0.950 . S
C376 C375 1.397 . S
C376 C377 1.334 . S
C377 H354 0.950 . S
C377 C376 1.334 . S
C377 C378 1.287 . S
C378 C377 1.287 . S
C378 C379 1.524 . S
C378 H397 0.913 . S
C379 H355 0.950 . S
C379 C378 1.524 . S
C379 C380 1.415 . S
C380 H356 0.950 . S
C380 C375 1.363 . S
C380 C379 1.415 . S
C381 H357 0.951 . S
C381 C382 1.366 . S
C381 C383 1.388 . S
C382 C381 1.366 . S
C382 C386 1.385 . S
C383 H358 0.951 . S
C383 C381 1.388 . S
C383 C384 1.366 . S
C384 C383 1.366 . S
C384 C385 1.414 . S
C384 C387 1.499 . S
C385 H359 0.950 . S
C385 C384 1.414 . S
C385 C386 1.374 . S
C386 H360 0.950 . S
C386 C382 1.385 . S
C386 C385 1.374 . S
C387 C384 1.499 . S
C387 C388 1.373 . S
C387 C389 1.389 . S
C388 H361 0.950 . S
C388 C374 1.377 . S
C388 C387 1.373 . S
C389 C373 1.377 . S
C389 C387 1.389 . S
C389 C390 1.524 . S
C390 C389 1.524 . S
C390 C391 1.397 . S
C390 C395 1.363 . S
C391 H362 0.950 . S
C391 C390 1.397 . S
C391 C392 1.334 . S
C392 H363 0.950 . S
C392 C391 1.334 . S
C392 C393 1.287 . S
C393 C392 1.287 . S
C393 C394 1.524 . S
C393 H396 0.999 . S
C394 H364 0.950 . S
C394 C393 1.524 . S
C394 C395 1.415 . S
C395 H365 0.950 . S
C395 C390 1.363 . S
C395 C394 1.415 . S
H396 C393 0.999 . S
H397 C378 0.913 . S
H398 C416 0.951 . S
H399 C418 0.951 . S
H400 C420 0.950 . S
H401 C421 0.950 . S
H402 C423 0.950 . S
H403 C426 0.950 . S
H404 C427 0.950 . S
H405 C429 0.950 . S
H406 C430 0.950 . S
H407 C431 0.951 . S
H408 C433 0.951 . S
H409 C435 0.957 . S
H410 C436 0.959 . S
H411 C438 0.950 . S
H412 C441 0.950 . S
H413 C442 0.950 . S
H414 C444 0.950 . S
H415 C445 0.950 . S
C416 H398 0.951 . S
C416 C417 1.360 1_655 S
C416 C418 1.388 . S
C417 C416 1.360 1_455 S
C417 C421 1.391 . S
C418 H399 0.951 . S
C418 C416 1.388 . S
C418 C419 1.366 . S
C419 C418 1.366 . S
C419 C420 1.414 1_655 S
C419 C422 1.499 . S
C420 H400 0.950 . S
C420 C419 1.414 1_455 S
C420 C421 1.374 . S
C421 H401 0.950 . S
C421 C417 1.391 . S
C421 C420 1.374 . S
C422 C419 1.499 . S
C422 C423 1.372 1_655 S
C422 C424 1.390 . S
C423 H402 0.950 . S
C423 C422 1.372 1_455 S
C423 C439 1.377 . S
C424 C422 1.390 . S
C424 C425 1.524 . S
C424 C438 1.377 . S
C425 C424 1.524 . S
C425 C426 1.397 . S
C425 C430 1.363 . S
C426 H403 0.950 . S
C426 C425 1.397 . S
C426 C427 1.334 . S
C427 H404 0.950 . S
C427 C426 1.334 . S
C427 C428 1.287 . S
C428 C427 1.287 . S
C428 C429 1.524 . S
C428 H447 0.913 . S
C429 H405 0.950 . S
C429 C428 1.524 . S
C429 C430 1.415 . S
C430 H406 0.950 . S
C430 C425 1.363 . S
C430 C429 1.415 . S
C431 H407 0.951 . S
C431 C432 1.373 . S
C431 C433 1.388 . S
C432 C431 1.373 . S
C432 C436 1.379 1_455 S
C433 H408 0.951 . S
C433 C431 1.388 . S
C433 C434 1.366 . S
C434 C433 1.366 . S
C434 C435 1.409 1_455 S
C434 C437 1.499 . S
C435 H409 0.957 . S
C435 C434 1.409 1_655 S
C435 C436 1.374 . S
C436 H410 0.959 . S
C436 C432 1.379 1_655 S
C436 C435 1.374 . S
C437 C434 1.499 . S
C437 C438 1.373 1_455 S
C437 C439 1.389 . S
C438 H411 0.950 . S
C438 C424 1.377 . S
C438 C437 1.373 1_655 S
C439 C423 1.377 . S
C439 C437 1.389 . S
C439 C440 1.524 . S
C440 C439 1.524 . S
C440 C441 1.397 . S
C440 C445 1.363 . S
C441 H412 0.950 . S
C441 C440 1.397 . S
C441 C442 1.334 . S
C442 H413 0.950 . S
C442 C441 1.334 . S
C442 C443 1.287 . S
C443 C442 1.287 . S
C443 C444 1.524 . S
C443 H446 0.999 . S
C444 H414 0.950 . S
C444 C443 1.524 . S
C444 C445 1.415 . S
C445 H415 0.950 . S
C445 C440 1.363 . S
C445 C444 1.415 . S
H446 C443 0.999 . S
H447 C428 0.913 . S
H448 C466 0.951 . S
H449 C468 0.951 . S
H450 C470 0.950 . S
H451 C471 0.950 . S
H452 C473 0.950 . S
H453 C476 0.950 . S
H454 C477 0.950 . S
H455 C479 0.950 . S
H456 C480 0.950 1_556 S
H457 C481 0.951 . S
H458 C483 0.951 . S
H459 C485 0.950 . S
H460 C486 0.950 . S
H461 C488 0.950 . S
H462 C491 0.950 . S
H463 C492 0.950 . S
H464 C494 0.950 . S
H465 C495 0.950 1_554 S
C466 H448 0.951 . S
C466 C467 1.396 . S
C466 C468 1.388 . S
C467 C466 1.396 . S
C467 C471 1.356 1_565 S
C468 H449 0.951 . S
C468 C466 1.388 . S
C468 C469 1.366 . S
C469 C468 1.366 . S
C469 C470 1.414 1_565 S
C469 C472 1.501 . S
C470 H450 0.950 . S
C470 C469 1.414 1_545 S
C470 C471 1.374 . S
C471 H451 0.950 . S
C471 C467 1.356 1_545 S
C471 C470 1.374 . S
C472 C469 1.501 . S
C472 C473 1.319 1_565 S
C472 C474 1.442 . S
C473 H452 0.950 . S
C473 C472 1.319 1_545 S
C473 C489 1.377 1_554 S
C474 C472 1.442 . S
C474 C475 1.524 . S
C474 C488 1.377 1_554 S
C475 C474 1.524 . S
C475 C476 1.397 . S
C475 C480 1.363 . S
C476 H453 0.950 . S
C476 C475 1.397 . S
C476 C477 1.334 . S
C477 H454 0.950 . S
C477 C476 1.334 . S
C477 C478 1.287 . S
C478 C477 1.287 . S
C478 C479 1.524 . S
C478 H497 0.913 . S
C479 H455 0.950 . S
C479 C478 1.524 . S
C479 C480 1.415 . S
C480 H456 0.950 1_554 S
C480 C475 1.363 . S
C480 C479 1.415 . S
C481 H457 0.951 . S
C481 C482 1.338 1_545 S
C481 C483 1.388 . S
C482 C481 1.338 1_565 S
C482 C486 1.413 . S
C483 H458 0.951 . S
C483 C481 1.388 . S
C483 C484 1.366 1_545 S
C484 C483 1.366 1_565 S
C484 C485 1.413 . S
C484 C487 1.498 . S
C485 H459 0.950 . S
C485 C484 1.413 . S
C485 C486 1.374 . S
C486 H460 0.950 . S
C486 C482 1.413 . S
C486 C485 1.374 . S
C487 C484 1.498 . S
C487 C488 1.396 . S
C487 C489 1.367 1_565 S
C488 H461 0.950 . S
C488 C474 1.377 1_556 S
C488 C487 1.396 . S
C489 C473 1.377 1_556 S
C489 C487 1.367 1_545 S
C489 C490 1.524 . S
C490 C489 1.524 . S
C490 C491 1.397 . S
C490 C495 1.363 . S
C491 H462 0.950 . S
C491 C490 1.397 . S
C491 C492 1.334 . S
C492 H463 0.950 . S
C492 C491 1.334 . S
C492 C493 1.287 . S
C493 C492 1.287 . S
C493 C494 1.524 . S
C493 H496 0.999 . S
C494 H464 0.950 . S
C494 C493 1.524 . S
C494 C495 1.415 . S
C495 H465 0.950 1_556 S
C495 C490 1.363 . S
C495 C494 1.415 . S
H496 C493 0.999 . S
H497 C478 0.913 . S
H498 C516 0.951 . S
H499 C518 0.951 . S
H500 C520 0.950 . S
H501 C521 0.950 . S
H502 C523 0.950 . S
H503 C526 0.950 . S
H504 C527 0.950 . S
H505 C529 0.950 . S
H506 C530 0.950 . S
H507 C531 0.951 . S
H508 C533 0.951 . S
H509 C535 0.950 . S
H510 C536 0.950 . S
H511 C538 0.950 . S
H512 C541 0.950 . S
H513 C542 0.950 . S
H514 C544 0.950 . S
H515 C545 0.950 . S
C516 H498 0.951 . S
C516 C517 1.366 . S
C516 C518 1.388 . S
C517 C516 1.366 . S
C517 C521 1.385 . S
C518 H499 0.951 . S
C518 C516 1.388 . S
C518 C519 1.366 . S
C519 C518 1.366 . S
C519 C520 1.414 . S
C519 C522 1.499 . S
C520 H500 0.950 . S
C520 C519 1.414 . S
C520 C521 1.374 . S
C521 H501 0.950 . S
C521 C517 1.385 . S
C521 C520 1.374 . S
C522 C519 1.499 . S
C522 C523 1.373 1_554 S
C522 C524 1.389 . S
C523 H502 0.950 . S
C523 C522 1.373 1_556 S
C523 C539 1.377 . S
C524 C522 1.389 . S
C524 C525 1.524 . S
C524 C538 1.377 . S
C525 C524 1.524 . S
C525 C526 1.397 . S
C525 C530 1.363 . S
C526 H503 0.950 . S
C526 C525 1.397 . S
C526 C527 1.334 . S
C527 H504 0.950 . S
C527 C526 1.334 . S
C527 C528 1.287 . S
C528 C527 1.287 . S
C528 C529 1.524 . S
C528 H547 0.913 . S
C529 H505 0.950 . S
C529 C528 1.524 . S
C529 C530 1.415 . S
C530 H506 0.950 . S
C530 C525 1.363 . S
C530 C529 1.415 . S
C531 H507 0.951 . S
C531 C532 1.366 . S
C531 C533 1.388 . S
C532 C531 1.366 . S
C532 C536 1.385 . S
C533 H508 0.951 . S
C533 C531 1.388 . S
C533 C534 1.366 . S
C534 C533 1.366 . S
C534 C535 1.414 . S
C534 C537 1.499 . S
C535 H509 0.950 . S
C535 C534 1.414 . S
C535 C536 1.374 . S
C536 H510 0.950 . S
C536 C532 1.385 . S
C536 C535 1.374 . S
C537 C534 1.499 . S
C537 C538 1.373 1_556 S
C537 C539 1.389 . S
C538 H511 0.950 . S
C538 C524 1.377 . S
C538 C537 1.373 1_554 S
C539 C523 1.377 . S
C539 C537 1.389 . S
C539 C540 1.524 . S
C540 C539 1.524 . S
C540 C541 1.397 . S
C540 C545 1.363 . S
C541 H512 0.950 . S
C541 C540 1.397 . S
C541 C542 1.334 . S
C542 H513 0.950 . S
C542 C541 1.334 . S
C542 C543 1.287 . S
C543 C542 1.287 . S
C543 C544 1.524 . S
C543 H546 0.999 . S
C544 H514 0.950 . S
C544 C543 1.524 . S
C544 C545 1.415 . S
C545 H515 0.950 . S
C545 C540 1.363 . S
C545 C544 1.415 . S
H546 C543 0.999 . S
H547 C528 0.913 . S
H548 C566 0.951 . S
H549 C568 0.951 . S
H550 C570 0.950 . S
H551 C571 0.950 . S
H552 C573 0.950 . S
H553 C576 0.950 . S
H554 C577 0.950 . S
H555 C579 0.950 . S
H556 C580 0.950 . S
H557 C581 0.951 . S
H558 C583 0.951 . S
H559 C585 0.950 . S
H560 C586 0.950 . S
H561 C588 0.950 . S
H562 C591 0.950 . S
H563 C592 0.950 . S
H564 C594 0.950 . S
H565 C595 0.950 . S
C566 H548 0.951 . S
C566 C567 1.366 . S
C566 C568 1.388 . S
C567 C566 1.366 . S
C567 C571 1.385 . S
C568 H549 0.951 . S
C568 C566 1.388 . S
C568 C569 1.366 . S
C569 C568 1.366 . S
C569 C570 1.414 . S
C569 C572 1.499 . S
C570 H550 0.950 . S
C570 C569 1.414 . S
C570 C571 1.374 . S
C571 H551 0.950 . S
C571 C567 1.385 . S
C571 C570 1.374 . S
C572 C569 1.499 . S
C572 C573 1.373 1_554 S
C572 C574 1.389 . S
C573 H552 0.950 . S
C573 C572 1.373 1_556 S
C573 C589 1.377 . S
C574 C572 1.389 . S
C574 C575 1.524 . S
C574 C588 1.377 1_554 S
C575 C574 1.524 . S
C575 C576 1.397 . S
C575 C580 1.363 . S
C576 H553 0.950 . S
C576 C575 1.397 . S
C576 C577 1.334 . S
C577 H554 0.950 . S
C577 C576 1.334 . S
C577 C578 1.287 . S
C578 C577 1.287 . S
C578 C579 1.524 . S
C578 H597 0.913 . S
C579 H555 0.950 . S
C579 C578 1.524 . S
C579 C580 1.415 . S
C580 H556 0.950 . S
C580 C575 1.363 . S
C580 C579 1.415 . S
C581 H557 0.951 . S
C581 C582 1.366 . S
C581 C583 1.388 . S
C582 C581 1.366 . S
C582 C586 1.385 . S
C583 H558 0.951 . S
C583 C581 1.388 . S
C583 C584 1.366 . S
C584 C583 1.366 . S
C584 C585 1.414 . S
C584 C587 1.499 . S
C585 H559 0.950 . S
C585 C584 1.414 . S
C585 C586 1.374 . S
C586 H560 0.950 . S
C586 C582 1.385 . S
C586 C585 1.374 . S
C587 C584 1.499 . S
C587 C588 1.373 . S
C587 C589 1.389 . S
C588 H561 0.950 . S
C588 C574 1.377 1_556 S
C588 C587 1.373 . S
C589 C573 1.377 . S
C589 C587 1.389 . S
C589 C590 1.524 . S
C590 C589 1.524 . S
C590 C591 1.397 . S
C590 C595 1.363 . S
C591 H562 0.950 . S
C591 C590 1.397 . S
C591 C592 1.334 . S
C592 H563 0.950 . S
C592 C591 1.334 . S
C592 C593 1.287 . S
C593 C592 1.287 . S
C593 C594 1.524 . S
C593 H596 0.999 . S
C594 H564 0.950 . S
C594 C593 1.524 . S
C594 C595 1.415 . S
C595 H565 0.950 . S
C595 C590 1.363 . S
C595 C594 1.415 . S
H596 C593 0.999 . S
H597 C578 0.913 . S
H598 C616 0.951 . S
H599 C618 0.951 . S
H600 C620 0.950 . S
H601 C621 0.950 . S
H602 C623 0.950 . S
H603 C626 0.950 . S
H604 C627 0.950 . S
H605 C629 0.950 . S
H606 C630 0.950 . S
H607 C631 0.951 . S
H608 C633 0.951 . S
H609 C635 0.950 . S
H610 C636 0.950 . S
H611 C638 0.950 . S
H612 C641 0.950 . S
H613 C642 0.950 . S
H614 C644 0.950 . S
H615 C645 0.950 . S
C616 H598 0.951 . S
C616 C617 1.380 . S
C616 C618 1.388 . S
C617 C616 1.380 . S
C617 C621 1.372 1_655 S
C618 H599 0.951 . S
C618 C616 1.388 . S
C618 C619 1.366 . S
C619 C618 1.366 . S
C619 C620 1.414 1_655 S
C619 C622 1.499 . S
C620 H600 0.950 . S
C620 C619 1.414 1_455 S
C620 C621 1.374 . S
C621 H601 0.950 . S
C621 C617 1.372 1_455 S
C621 C620 1.374 . S
C622 C619 1.499 . S
C622 C623 1.373 1_655 S
C622 C624 1.389 . S
C623 H602 0.950 . S
C623 C622 1.373 1_455 S
C623 C639 1.377 1_554 S
C624 C622 1.389 . S
C624 C625 1.524 . S
C624 C638 1.377 1_554 S
C625 C624 1.524 . S
C625 C626 1.397 . S
C625 C630 1.363 1_554 S
C626 H603 0.950 . S
C626 C625 1.397 . S
C626 C627 1.334 . S
C627 H604 0.950 . S
C627 C626 1.334 . S
C627 C628 1.287 . S
C628 C627 1.287 . S
C628 C629 1.524 1_554 S
C628 H647 0.913 . S
C629 H605 0.950 . S
C629 C628 1.524 1_556 S
C629 C630 1.415 . S
C630 H606 0.950 . S
C630 C625 1.363 1_556 S
C630 C629 1.415 . S
C631 H607 0.951 . S
C631 C632 1.352 1_455 S
C631 C633 1.388 . S
C632 C631 1.352 1_655 S
C632 C636 1.398 . S
C633 H608 0.951 . S
C633 C631 1.388 . S
C633 C634 1.368 . S
C634 C633 1.368 . S
C634 C635 1.411 1_455 S
C634 C637 1.499 . S
C635 H609 0.950 . S
C635 C634 1.411 1_655 S
C635 C636 1.374 . S
C636 H610 0.950 . S
C636 C632 1.398 . S
C636 C635 1.374 . S
C637 C634 1.499 . S
C637 C638 1.374 1_455 S
C637 C639 1.389 . S
C638 H611 0.950 . S
C638 C624 1.377 1_556 S
C638 C637 1.374 1_655 S
C639 C623 1.377 1_556 S
C639 C637 1.389 . S
C639 C640 1.524 . S
C640 C639 1.524 . S
C640 C641 1.397 . S
C640 C645 1.363 1_556 S
C641 H612 0.950 . S
C641 C640 1.397 . S
C641 C642 1.334 . S
C642 H613 0.950 . S
C642 C641 1.334 . S
C642 C643 1.287 . S
C643 C642 1.287 . S
C643 C644 1.524 1_556 S
C643 H646 0.999 . S
C644 H614 0.950 . S
C644 C643 1.524 1_554 S
C644 C645 1.415 . S
C645 H615 0.950 . S
C645 C640 1.363 1_554 S
C645 C644 1.415 . S
H646 C643 0.999 . S
H647 C628 0.913 . S
H648 C666 0.951 . S
H649 C668 0.951 . S
H650 C670 0.950 . S
H651 C671 0.950 . S
H652 C673 0.950 . S
H653 C676 0.950 . S
H654 C677 0.950 . S
H655 C679 0.950 . S
H656 C680 0.950 . S
H657 C681 0.951 1_455 S
H658 C683 0.969 . S
H659 C685 0.950 . S
H660 C686 0.950 . S
H661 C688 0.950 . S
H662 C691 0.914 1_655 S
H663 C692 0.950 . S
H664 C694 0.950 . S
H665 C695 0.950 . S
C666 H648 0.951 . S
C666 C667 1.366 1_655 S
C666 C668 1.388 . S
C667 C666 1.366 1_455 S
C667 C671 1.385 . S
C668 H649 0.951 . S
C668 C666 1.388 . S
C668 C669 1.366 . S
C669 C668 1.366 . S
C669 C670 1.414 1_655 S
C669 C672 1.499 . S
C670 H650 0.950 . S
C670 C669 1.414 1_455 S
C670 C671 1.374 . S
C671 H651 0.950 . S
C671 C667 1.385 . S
C671 C670 1.374 . S
C672 C669 1.499 . S
C672 C673 1.373 1_655 S
C672 C674 1.389 . S
C673 H652 0.950 . S
C673 C672 1.373 1_455 S
C673 C689 1.385 . S
C674 C672 1.389 . S
C674 C675 1.524 . S
C674 C688 1.377 . S
C675 C674 1.524 . S
C675 C676 1.397 . S
C675 C680 1.363 . S
C676 H653 0.950 . S
C676 C675 1.397 . S
C676 C677 1.334 . S
C677 H654 0.950 . S
C677 C676 1.334 . S
C677 C678 1.287 . S
C678 C677 1.287 . S
C678 C679 1.524 . S
C678 H697 0.913 . S
C679 H655 0.950 . S
C679 C678 1.524 . S
C679 C680 1.415 . S
C680 H656 0.950 . S
C680 C675 1.363 . S
C680 C679 1.415 . S
C681 H657 0.951 1_655 S
C681 C682 1.366 . S
C681 C683 1.385 1_655 S
C682 C681 1.366 . S
C682 C686 1.385 . S
C683 H658 0.969 . S
C683 C681 1.385 1_455 S
C683 C684 1.351 1_455 S
C684 C683 1.351 1_655 S
C684 C685 1.414 . S
C684 C687 1.499 . S
C685 H659 0.950 . S
C685 C684 1.414 . S
C685 C686 1.374 . S
C686 H660 0.950 . S
C686 C682 1.385 . S
C686 C685 1.374 . S
C687 C684 1.499 . S
C687 C688 1.373 . S
C687 C689 1.359 1_655 S
C688 H661 0.950 . S
C688 C674 1.377 . S
C688 C687 1.373 . S
C689 C673 1.385 . S
C689 C687 1.359 1_455 S
C689 C690 1.548 . S
C690 C689 1.548 . S
C690 C691 1.417 . S
C690 C695 1.363 . S
C691 H662 0.914 1_455 S
C691 C690 1.417 . S
C691 C692 1.349 . S
C692 H663 0.950 . S
C692 C691 1.349 . S
C692 C693 1.287 . S
C693 C692 1.287 . S
C693 C694 1.524 . S
C693 H696 0.999 . S
C694 H664 0.950 . S
C694 C693 1.524 . S
C694 C695 1.415 . S
C695 H665 0.950 . S
C695 C690 1.363 . S
C695 C694 1.415 . S
H696 C693 0.999 . S
H697 C678 0.913 . S
H698 C716 0.951 . S
H699 C718 0.951 . S
H700 C720 0.950 . S
H701 C721 0.950 . S
H702 C723 0.950 . S
H703 C726 0.950 . S
H704 C727 0.950 . S
H705 C729 0.962 . S
H706 C730 0.950 . S
H707 C731 0.951 . S
H708 C733 0.951 . S
H709 C735 0.950 1_545 S
H710 C736 0.950 1_545 S
H711 C738 0.950 . S
H712 C741 0.950 . S
H713 C742 0.950 . S
H714 C744 0.950 . S
H715 C745 0.950 . S
C716 H698 0.951 . S
C716 C717 1.366 . S
C716 C718 1.388 . S
C717 C716 1.366 . S
C717 C721 1.385 1_545 S
C718 H699 0.951 . S
C718 C716 1.388 . S
C718 C719 1.366 1_545 S
C719 C718 1.366 1_565 S
C719 C720 1.414 . S
C719 C722 1.499 . S
C720 H700 0.950 . S
C720 C719 1.414 . S
C720 C721 1.374 . S
C721 H701 0.950 . S
C721 C717 1.385 1_565 S
C721 C720 1.374 . S
C722 C719 1.499 . S
C722 C723 1.373 . S
C722 C724 1.389 . S
C723 H702 0.950 . S
C723 C722 1.373 . S
C723 C739 1.377 . S
C724 C722 1.389 . S
C724 C725 1.524 . S
C724 C738 1.377 . S
C725 C724 1.524 . S
C725 C726 1.397 . S
C725 C730 1.363 1_565 S
C726 H703 0.950 . S
C726 C725 1.397 . S
C726 C727 1.334 . S
C727 H704 0.950 . S
C727 C726 1.334 . S
C727 C728 1.287 . S
C728 C727 1.287 . S
C728 C729 1.508 1_565 S
C728 H747 0.913 1_554 S
C729 H705 0.962 . S
C729 C728 1.508 1_545 S
C729 C730 1.417 . S
C730 H706 0.950 . S
C730 C725 1.363 1_545 S
C730 C729 1.417 . S
C731 H707 0.951 . S
C731 C732 1.366 . S
C731 C733 1.388 . S
C732 C731 1.366 . S
C732 C736 1.385 . S
C733 H708 0.951 . S
C733 C731 1.388 . S
C733 C734 1.366 . S
C734 C733 1.366 . S
C734 C735 1.414 . S
C734 C737 1.499 . S
C735 H709 0.950 1_565 S
C735 C734 1.414 . S
C735 C736 1.374 . S
C736 H710 0.950 1_565 S
C736 C732 1.385 . S
C736 C735 1.374 . S
C737 C734 1.499 . S
C737 C738 1.373 . S
C737 C739 1.389 . S
C738 H711 0.950 . S
C738 C724 1.377 . S
C738 C737 1.373 . S
C739 C723 1.377 . S
C739 C737 1.389 . S
C739 C740 1.524 . S
C740 C739 1.524 . S
C740 C741 1.397 1_565 S
C740 C745 1.363 . S
C741 H712 0.950 . S
C741 C740 1.397 1_545 S
C741 C742 1.334 . S
C742 H713 0.950 . S
C742 C741 1.334 . S
C742 C743 1.287 1_545 S
C743 C742 1.287 1_565 S
C743 C744 1.524 . S
C743 H746 0.999 . S
C744 H714 0.950 . S
C744 C743 1.524 . S
C744 C745 1.415 . S
C745 H715 0.950 . S
C745 C740 1.363 . S
C745 C744 1.415 . S
H746 C743 0.999 . S
H747 C728 0.913 1_556 S
H748 C766 0.951 . S
H749 C768 0.951 . S
H750 C770 0.950 . S
H751 C771 0.950 . S
H752 C773 0.950 . S
H753 C776 0.950 . S
H754 C777 0.950 . S
H755 C779 0.950 . S
H756 C780 0.950 . S
H757 C781 0.951 . S
H758 C783 0.951 . S
H759 C785 0.950 . S
H760 C786 0.950 . S
H761 C788 0.950 . S
H762 C791 0.950 . S
H763 C792 0.950 . S
H764 C794 0.950 . S
H765 C795 0.950 . S
C766 H748 0.951 . S
C766 C767 1.366 . S
C766 C768 1.388 . S
C767 C766 1.366 . S
C767 C771 1.385 . S
C768 H749 0.951 . S
C768 C766 1.388 . S
C768 C769 1.366 . S
C769 C768 1.366 . S
C769 C770 1.414 . S
C769 C772 1.499 . S
C770 H750 0.950 . S
C770 C769 1.414 . S
C770 C771 1.374 . S
C771 H751 0.950 . S
C771 C767 1.385 . S
C771 C770 1.374 . S
C772 C769 1.499 . S
C772 C773 1.373 . S
C772 C774 1.389 . S
C773 H752 0.950 . S
C773 C772 1.373 . S
C773 C789 1.377 . S
C774 C772 1.389 . S
C774 C775 1.524 . S
C774 C788 1.377 . S
C775 C774 1.524 . S
C775 C776 1.397 . S
C775 C780 1.363 . S
C776 H753 0.950 . S
C776 C775 1.397 . S
C776 C777 1.334 . S
C777 H754 0.950 . S
C777 C776 1.334 . S
C777 C778 1.287 . S
C778 C777 1.287 . S
C778 C779 1.524 . S
C778 H797 0.913 . S
C779 H755 0.950 . S
C779 C778 1.524 . S
C779 C780 1.415 . S
C780 H756 0.950 . S
C780 C775 1.363 . S
C780 C779 1.415 . S
C781 H757 0.951 . S
C781 C782 1.366 . S
C781 C783 1.388 . S
C782 C781 1.366 . S
C782 C786 1.385 . S
C783 H758 0.951 . S
C783 C781 1.388 . S
C783 C784 1.366 . S
C784 C783 1.366 . S
C784 C785 1.414 . S
C784 C787 1.499 . S
C785 H759 0.950 . S
C785 C784 1.414 . S
C785 C786 1.374 . S
C786 H760 0.950 . S
C786 C782 1.385 . S
C786 C785 1.374 . S
C787 C784 1.499 . S
C787 C788 1.373 . S
C787 C789 1.389 . S
C788 H761 0.950 . S
C788 C774 1.377 . S
C788 C787 1.373 . S
C789 C773 1.377 . S
C789 C787 1.389 . S
C789 C790 1.524 . S
C790 C789 1.524 . S
C790 C791 1.397 . S
C790 C795 1.363 . S
C791 H762 0.950 . S
C791 C790 1.397 . S
C791 C792 1.334 . S
C792 H763 0.950 . S
C792 C791 1.334 . S
C792 C793 1.287 . S
C793 C792 1.287 . S
C793 C794 1.524 . S
C793 H796 0.999 . S
C794 H764 0.950 . S
C794 C793 1.524 . S
C794 C795 1.415 . S
C795 H765 0.950 . S
C795 C790 1.363 . S
C795 C794 1.415 . S
H796 C793 0.999 . S
H797 C778 0.913 . S
H798 C816 0.951 . S
H799 C818 0.951 . S
H800 C820 0.950 . S
H801 C821 0.950 . S
H802 C823 0.950 . S
H803 C826 0.950 . S
H804 C827 0.950 . S
H805 C829 0.950 . S
H806 C830 0.950 . S
H807 C831 0.951 . S
H808 C833 0.951 . S
H809 C835 0.950 . S
H810 C836 0.950 . S
H811 C838 0.950 . S
H812 C841 0.950 . S
H813 C842 0.950 . S
H814 C844 0.950 . S
H815 C845 0.950 . S
C816 H798 0.951 . S
C816 C817 1.366 . S
C816 C818 1.388 . S
C817 C816 1.366 . S
C817 C821 1.385 . S
C818 H799 0.951 . S
C818 C816 1.388 . S
C818 C819 1.366 . S
C819 C818 1.366 . S
C819 C820 1.414 . S
C819 C822 1.499 . S
C820 H800 0.950 . S
C820 C819 1.414 . S
C820 C821 1.374 . S
C821 H801 0.950 . S
C821 C817 1.385 . S
C821 C820 1.374 . S
C822 C819 1.499 . S
C822 C823 1.373 . S
C822 C824 1.389 . S
C823 H802 0.950 . S
C823 C822 1.373 . S
C823 C839 1.377 . S
C824 C822 1.389 . S
C824 C825 1.524 . S
C824 C838 1.377 . S
C825 C824 1.524 . S
C825 C826 1.397 . S
C825 C830 1.363 . S
C826 H803 0.950 . S
C826 C825 1.397 . S
C826 C827 1.334 . S
C827 H804 0.950 . S
C827 C826 1.334 . S
C827 C828 1.287 . S
C828 C827 1.287 . S
C828 C829 1.524 . S
C828 H847 0.913 1_554 S
C829 H805 0.950 . S
C829 C828 1.524 . S
C829 C830 1.415 . S
C830 H806 0.950 . S
C830 C825 1.363 . S
C830 C829 1.415 . S
C831 H807 0.951 . S
C831 C832 1.366 . S
C831 C833 1.388 . S
C832 C831 1.366 . S
C832 C836 1.385 . S
C833 H808 0.951 . S
C833 C831 1.388 . S
C833 C834 1.366 . S
C834 C833 1.366 . S
C834 C835 1.414 . S
C834 C837 1.499 . S
C835 H809 0.950 . S
C835 C834 1.414 . S
C835 C836 1.374 . S
C836 H810 0.950 . S
C836 C832 1.385 . S
C836 C835 1.374 . S
C837 C834 1.499 . S
C837 C838 1.373 . S
C837 C839 1.389 . S
C838 H811 0.950 . S
C838 C824 1.377 . S
C838 C837 1.373 . S
C839 C823 1.377 . S
C839 C837 1.389 . S
C839 C840 1.524 . S
C840 C839 1.524 . S
C840 C841 1.397 . S
C840 C845 1.363 . S
C841 H812 0.950 . S
C841 C840 1.397 . S
C841 C842 1.334 . S
C842 H813 0.950 . S
C842 C841 1.334 . S
C842 C843 1.287 . S
C843 C842 1.287 . S
C843 C844 1.524 . S
C843 H846 0.999 . S
C844 H814 0.950 . S
C844 C843 1.524 . S
C844 C845 1.415 . S
C845 H815 0.950 . S
C845 C840 1.363 . S
C845 C844 1.415 . S
H846 C843 0.999 . S
H847 C828 0.913 1_556 S
H848 C866 0.951 . S
H849 C868 0.951 . S
H850 C870 0.950 . S
H851 C871 0.950 . S
H852 C873 0.950 . S
H853 C876 0.950 . S
H854 C877 0.950 . S
H855 C879 0.949 1_556 S
H856 C880 0.950 . S
H857 C881 0.951 . S
H858 C883 0.951 . S
H859 C885 0.941 1_654 S
H860 C886 0.950 1_655 S
H861 C888 0.950 1_556 S
H862 C891 0.950 . S
H863 C892 0.950 . S
H864 C894 0.950 . S
H865 C895 0.950 . S
C866 H848 0.951 . S
C866 C867 1.366 . S
C866 C868 1.388 . S
C867 C866 1.366 . S
C867 C871 1.385 1_655 S
C868 H849 0.951 . S
C868 C866 1.388 . S
C868 C869 1.366 1_655 S
C869 C868 1.366 1_455 S
C869 C870 1.414 . S
C869 C872 1.499 . S
C870 H850 0.950 . S
C870 C869 1.414 . S
C870 C871 1.374 . S
C871 H851 0.950 . S
C871 C867 1.385 1_455 S
C871 C870 1.374 . S
C872 C869 1.499 . S
C872 C873 1.373 . S
C872 C874 1.389 1_455 S
C873 H852 0.950 . S
C873 C872 1.373 . S
C873 C889 1.377 . S
C874 C872 1.389 1_655 S
C874 C875 1.524 . S
C874 C888 1.377 . S
C875 C874 1.524 . S
C875 C876 1.397 . S
C875 C880 1.363 . S
C876 H853 0.950 . S
C876 C875 1.397 . S
C876 C877 1.334 1_554 S
C877 H854 0.950 . S
C877 C876 1.334 1_556 S
C877 C878 1.287 . S
C878 C877 1.287 . S
C878 C879 1.522 1_556 S
C878 H897 0.913 . S
C879 H855 0.949 1_554 S
C879 C878 1.522 1_554 S
C879 C880 1.418 . S
C880 H856 0.950 . S
C880 C875 1.363 . S
C880 C879 1.418 . S
C881 H857 0.951 . S
C881 C882 1.366 . S
C881 C883 1.388 . S
C882 C881 1.366 . S
C882 C886 1.385 . S
C883 H858 0.951 . S
C883 C881 1.388 . S
C883 C884 1.366 . S
C884 C883 1.366 . S
C884 C885 1.422 . S
C884 C887 1.499 1_556 S
C885 H859 0.941 1_456 S
C885 C884 1.422 . S
C885 C886 1.375 . S
C886 H860 0.950 1_455 S
C886 C882 1.385 . S
C886 C885 1.375 . S
C887 C884 1.499 1_554 S
C887 C888 1.373 1_455 S
C887 C889 1.389 . S
C888 H861 0.950 1_554 S
C888 C874 1.377 . S
C888 C887 1.373 1_655 S
C889 C873 1.377 . S
C889 C887 1.389 . S
C889 C890 1.524 . S
C890 C889 1.524 . S
C890 C891 1.397 . S
C890 C895 1.363 . S
C891 H862 0.950 . S
C891 C890 1.397 . S
C891 C892 1.334 . S
C892 H863 0.950 . S
C892 C891 1.334 . S
C892 C893 1.287 . S
C893 C892 1.287 . S
C893 C894 1.524 . S
C893 H896 0.999 . S
C894 H864 0.950 . S
C894 C893 1.524 . S
C894 C895 1.415 . S
C895 H865 0.950 . S
C895 C890 1.363 . S
C895 C894 1.415 . S
H896 C893 0.999 . S
H897 C878 0.913 . S
H898 C916 0.951 . S
H899 C918 0.951 . S
H900 C920 0.950 . S
H901 C921 0.950 . S
H902 C923 0.950 . S
H903 C926 0.950 . S
H904 C927 0.950 . S
H905 C929 0.950 1_565 S
H906 C930 0.939 1_565 S
H907 C931 0.951 . S
H908 C933 0.951 . S
H909 C935 0.950 1_565 S
H910 C936 0.950 1_565 S
H911 C938 0.950 . S
H912 C941 0.950 . S
H913 C942 0.950 . S
H914 C944 0.950 . S
H915 C945 0.950 . S
C916 H898 0.951 . S
C916 C917 1.366 . S
C916 C918 1.388 . S
C917 C916 1.366 . S
C917 C921 1.385 1_565 S
C918 H899 0.951 . S
C918 C916 1.388 . S
C918 C919 1.366 1_565 S
C919 C918 1.366 1_545 S
C919 C920 1.414 . S
C919 C922 1.499 . S
C920 H900 0.950 . S
C920 C919 1.414 . S
C920 C921 1.374 . S
C921 H901 0.950 . S
C921 C917 1.385 1_545 S
C921 C920 1.374 . S
C922 C919 1.499 . S
C922 C923 1.373 . S
C922 C924 1.389 . S
C923 H902 0.950 . S
C923 C922 1.373 . S
C923 C939 1.377 . S
C924 C922 1.389 . S
C924 C925 1.524 1_554 S
C924 C938 1.377 1_554 S
C925 C924 1.524 1_556 S
C925 C926 1.397 1_556 S
C925 C930 1.372 . S
C926 H903 0.950 . S
C926 C925 1.397 1_554 S
C926 C927 1.334 1_554 S
C927 H904 0.950 . S
C927 C926 1.334 1_556 S
C927 C928 1.287 . S
C928 C927 1.287 . S
C928 C929 1.524 . S
C928 H947 0.913 . S
C929 H905 0.950 1_545 S
C929 C928 1.524 . S
C929 C930 1.417 . S
C930 H906 0.939 1_545 S
C930 C925 1.372 . S
C930 C929 1.417 . S
C931 H907 0.951 . S
C931 C932 1.366 . S
C931 C933 1.388 1_556 S
C932 C931 1.366 . S
C932 C936 1.385 . S
C933 H908 0.951 . S
C933 C931 1.388 1_554 S
C933 C934 1.366 1_554 S
C934 C933 1.366 1_556 S
C934 C935 1.414 . S
C934 C937 1.499 1_556 S
C935 H909 0.950 1_545 S
C935 C934 1.414 . S
C935 C936 1.374 . S
C936 H910 0.950 1_545 S
C936 C932 1.385 . S
C936 C935 1.374 . S
C937 C934 1.499 1_554 S
C937 C938 1.373 1_554 S
C937 C939 1.389 . S
C938 H911 0.950 . S
C938 C924 1.377 1_556 S
C938 C937 1.373 1_556 S
C939 C923 1.377 . S
C939 C937 1.389 . S
C939 C940 1.524 . S
C940 C939 1.524 . S
C940 C941 1.397 1_545 S
C940 C945 1.363 . S
C941 H912 0.950 . S
C941 C940 1.397 1_565 S
C941 C942 1.334 . S
C942 H913 0.950 . S
C942 C941 1.334 . S
C942 C943 1.281 1_565 S
C943 C942 1.281 1_545 S
C943 C944 1.532 . S
C943 H946 0.998 1_545 S
C944 H914 0.950 . S
C944 C943 1.532 . S
C944 C945 1.415 . S
C945 H915 0.950 . S
C945 C940 1.363 . S
C945 C944 1.415 . S
H946 C943 0.998 1_565 S
H947 C928 0.913 . S
H948 C966 0.951 . S
H949 C968 0.951 . S
H950 C970 0.950 . S
H951 C971 0.950 . S
H952 C973 0.950 . S
H953 C976 0.950 1_554 S
H954 C977 0.950 . S
H955 C979 0.950 . S
H956 C980 0.950 . S
H957 C981 0.951 . S
H958 C983 0.951 1_554 S
H959 C985 0.950 . S
H960 C986 0.950 . S
H961 C988 0.950 . S
H962 C991 0.950 . S
H963 C992 0.950 . S
H964 C994 0.950 . S
H965 C995 0.950 . S
C966 H948 0.951 . S
C966 C967 1.366 . S
C966 C968 1.388 . S
C967 C966 1.366 . S
C967 C971 1.385 . S
C968 H949 0.951 . S
C968 C966 1.388 . S
C968 C969 1.366 . S
C969 C968 1.366 . S
C969 C970 1.414 . S
C969 C972 1.499 . S
C970 H950 0.950 . S
C970 C969 1.414 . S
C970 C971 1.374 . S
C971 H951 0.950 . S
C971 C967 1.385 . S
C971 C970 1.374 . S
C972 C969 1.499 . S
C972 C973 1.373 . S
C972 C974 1.389 . S
C973 H952 0.950 . S
C973 C972 1.373 . S
C973 C989 1.377 . S
C974 C972 1.389 . S
C974 C975 1.524 1_554 S
C974 C988 1.377 1_554 S
C975 C974 1.524 1_556 S
C975 C976 1.397 . S
C975 C980 1.363 . S
C976 H953 0.950 1_556 S
C976 C975 1.397 . S
C976 C977 1.334 . S
C977 H954 0.950 . S
C977 C976 1.334 . S
C977 C978 1.287 . S
C978 C977 1.287 . S
C978 C979 1.524 . S
C978 H997 0.913 . S
C979 H955 0.950 . S
C979 C978 1.524 . S
C979 C980 1.415 . S
C980 H956 0.950 . S
C980 C975 1.363 . S
C980 C979 1.415 . S
C981 H957 0.951 . S
C981 C982 1.366 . S
C981 C983 1.388 . S
C982 C981 1.366 . S
C982 C986 1.385 . S
C983 H958 0.951 1_556 S
C983 C981 1.388 . S
C983 C984 1.366 . S
C984 C983 1.366 . S
C984 C985 1.414 . S
C984 C987 1.499 1_556 S
C985 H959 0.950 . S
C985 C984 1.414 . S
C985 C986 1.374 . S
C986 H960 0.950 . S
C986 C982 1.385 . S
C986 C985 1.374 . S
C987 C984 1.499 1_554 S
C987 C988 1.373 1_554 S
C987 C989 1.389 . S
C988 H961 0.950 . S
C988 C974 1.377 1_556 S
C988 C987 1.373 1_556 S
C989 C973 1.377 . S
C989 C987 1.389 . S
C989 C990 1.524 . S
C990 C989 1.524 . S
C990 C991 1.397 . S
C990 C995 1.363 . S
C991 H962 0.950 . S
C991 C990 1.397 . S
C991 C992 1.334 . S
C992 H963 0.950 . S
C992 C991 1.334 . S
C992 C993 1.287 . S
C993 C992 1.287 . S
C993 C994 1.524 . S
C993 H996 0.999 . S
C994 H964 0.950 . S
C994 C993 1.524 . S
C994 C995 1.415 . S
C995 H965 0.950 . S
C995 C990 1.363 . S
C995 C994 1.415 . S
H996 C993 0.999 . S
H997 C978 0.913 . S
H998 C1016 0.951 . S
H999 C1018 0.951 . S
H1000 C1020 0.950 . S
H1001 C1021 0.950 . S
H1002 C1023 0.950 . S
H1003 C1026 0.950 . S
H1004 C1027 0.950 . S
H1005 C1029 0.950 . S
H1006 C1030 0.950 . S
H1007 C1031 0.951 . S
H1008 C1033 0.951 . S
H1009 C1035 0.950 . S
H1010 C1036 0.950 . S
H1011 C1038 0.950 . S
H1012 C1041 0.950 . S
H1013 C1042 0.950 . S
H1014 C1044 0.950 . S
H1015 C1045 0.950 . S
C1016 H998 0.951 . S
C1016 C1017 1.366 . S
C1016 C1018 1.388 . S
C1017 C1016 1.366 . S
C1017 C1021 1.385 . S
C1018 H999 0.951 . S
C1018 C1016 1.388 . S
C1018 C1019 1.366 . S
C1019 C1018 1.366 . S
C1019 C1020 1.414 . S
C1019 C1022 1.499 . S
C1020 H1000 0.950 . S
C1020 C1019 1.414 . S
C1020 C1021 1.374 . S
C1021 H1001 0.950 . S
C1021 C1017 1.385 . S
C1021 C1020 1.374 . S
C1022 C1019 1.499 . S
C1022 C1023 1.373 . S
C1022 C1024 1.389 . S
C1023 H1002 0.950 . S
C1023 C1022 1.373 . S
C1023 C1039 1.377 . S
C1024 C1022 1.389 . S
C1024 C1025 1.524 . S
C1024 C1038 1.377 . S
C1025 C1024 1.524 . S
C1025 C1026 1.397 . S
C1025 C1030 1.363 . S
C1026 H1003 0.950 . S
C1026 C1025 1.397 . S
C1026 C1027 1.334 . S
C1027 H1004 0.950 . S
C1027 C1026 1.334 . S
C1027 C1028 1.287 . S
C1028 C1027 1.287 . S
C1028 C1029 1.524 . S
C1028 H1047 0.913 . S
C1029 H1005 0.950 . S
C1029 C1028 1.524 . S
C1029 C1030 1.415 . S
C1030 H1006 0.950 . S
C1030 C1025 1.363 . S
C1030 C1029 1.415 . S
C1031 H1007 0.951 . S
C1031 C1032 1.366 . S
C1031 C1033 1.388 1_556 S
C1032 C1031 1.366 . S
C1032 C1036 1.385 . S
C1033 H1008 0.951 . S
C1033 C1031 1.388 1_554 S
C1033 C1034 1.366 1_554 S
C1034 C1033 1.366 1_556 S
C1034 C1035 1.414 . S
C1034 C1037 1.499 1_556 S
C1035 H1009 0.950 . S
C1035 C1034 1.414 . S
C1035 C1036 1.374 . S
C1036 H1010 0.950 . S
C1036 C1032 1.385 . S
C1036 C1035 1.374 . S
C1037 C1034 1.499 1_554 S
C1037 C1038 1.373 . S
C1037 C1039 1.389 . S
C1038 H1011 0.950 . S
C1038 C1024 1.377 . S
C1038 C1037 1.373 . S
C1039 C1023 1.377 . S
C1039 C1037 1.389 . S
C1039 C1040 1.524 . S
C1040 C1039 1.524 . S
C1040 C1041 1.397 1_554 S
C1040 C1045 1.363 . S
C1041 H1012 0.950 . S
C1041 C1040 1.397 1_556 S
C1041 C1042 1.334 . S
C1042 H1013 0.950 . S
C1042 C1041 1.334 . S
C1042 C1043 1.287 . S
C1043 C1042 1.287 . S
C1043 C1044 1.524 1_556 S
C1043 H1046 0.999 . S
C1044 H1014 0.950 . S
C1044 C1043 1.524 1_554 S
C1044 C1045 1.415 . S
C1045 H1015 0.950 . S
C1045 C1040 1.363 . S
C1045 C1044 1.415 . S
H1046 C1043 0.999 . S
H1047 C1028 0.913 . S
H1048 C1066 0.951 . S
H1049 C1068 0.951 . S
H1050 C1070 0.950 . S
H1051 C1071 0.950 . S
H1052 C1073 0.950 . S
H1053 C1076 0.950 . S
H1054 C1077 0.950 . S
H1055 C1079 0.950 . S
H1056 C1080 0.950 1_455 S
H1057 C1081 0.951 . S
H1058 C1083 0.951 . S
H1059 C1085 0.950 . S
H1060 C1086 0.950 . S
H1061 C1088 0.967 . S
H1062 C1091 0.950 . S
H1063 C1092 0.950 . S
H1064 C1094 0.950 . S
H1065 C1095 0.950 . S
C1066 H1048 0.951 . S
C1066 C1067 1.366 . S
C1066 C1068 1.388 . S
C1067 C1066 1.366 . S
C1067 C1071 1.385 1_455 S
C1068 H1049 0.951 . S
C1068 C1066 1.388 . S
C1068 C1069 1.366 . S
C1069 C1068 1.366 . S
C1069 C1070 1.414 1_455 S
C1069 C1072 1.499 . S
C1070 H1050 0.950 . S
C1070 C1069 1.414 1_655 S
C1070 C1071 1.374 . S
C1071 H1051 0.950 . S
C1071 C1067 1.385 1_655 S
C1071 C1070 1.374 . S
C1072 C1069 1.499 . S
C1072 C1073 1.373 . S
C1072 C1074 1.389 1_455 S
C1073 H1052 0.950 . S
C1073 C1072 1.373 . S
C1073 C1089 1.377 . S
C1074 C1072 1.389 1_655 S
C1074 C1075 1.524 . S
C1074 C1088 1.384 . S
C1075 C1074 1.524 . S
C1075 C1076 1.397 . S
C1075 C1080 1.363 . S
C1076 H1053 0.950 . S
C1076 C1075 1.397 . S
C1076 C1077 1.334 . S
C1077 H1054 0.950 . S
C1077 C1076 1.334 . S
C1077 C1078 1.287 . S
C1078 C1077 1.287 . S
C1078 C1079 1.524 . S
C1078 H1097 0.913 . S
C1079 H1055 0.950 . S
C1079 C1078 1.524 . S
C1079 C1080 1.415 . S
C1080 H1056 0.950 1_655 S
C1080 C1075 1.363 . S
C1080 C1079 1.415 . S
C1081 H1057 0.951 . S
C1081 C1082 1.366 1_655 S
C1081 C1083 1.388 . S
C1082 C1081 1.366 1_455 S
C1082 C1086 1.385 . S
C1083 H1058 0.951 . S
C1083 C1081 1.388 . S
C1083 C1084 1.366 1_655 S
C1084 C1083 1.366 1_455 S
C1084 C1085 1.414 . S
C1084 C1087 1.499 . S
C1085 H1059 0.950 . S
C1085 C1084 1.414 . S
C1085 C1086 1.374 . S
C1086 H1060 0.950 . S
C1086 C1082 1.385 . S
C1086 C1085 1.374 . S
C1087 C1084 1.499 . S
C1087 C1088 1.353 1_455 S
C1087 C1089 1.389 . S
C1088 H1061 0.967 . S
C1088 C1074 1.384 . S
C1088 C1087 1.353 1_655 S
C1089 C1073 1.377 . S
C1089 C1087 1.389 . S
C1089 C1090 1.524 . S
C1090 C1089 1.524 . S
C1090 C1091 1.397 . S
C1090 C1095 1.363 . S
C1091 H1062 0.950 . S
C1091 C1090 1.397 . S
C1091 C1092 1.334 . S
C1092 H1063 0.950 . S
C1092 C1091 1.334 . S
C1092 C1093 1.297 . S
C1093 C1092 1.297 . S
C1093 C1094 1.520 1_556 S
C1093 H1096 0.991 1_556 S
C1094 H1064 0.950 . S
C1094 C1093 1.520 1_554 S
C1094 C1095 1.415 1_554 S
C1095 H1065 0.950 . S
C1095 C1090 1.363 . S
C1095 C1094 1.415 1_556 S
H1096 C1093 0.991 1_554 S
H1097 C1078 0.913 . S
H1098 C1116 0.951 . S
H1099 C1118 0.951 . S
H1100 C1120 0.950 . S
H1101 C1121 0.950 . S
H1102 C1123 0.942 1_565 S
H1103 C1126 0.950 . S
H1104 C1127 0.950 . S
H1105 C1129 0.950 . S
H1106 C1130 0.950 . S
H1107 C1131 0.951 . S
H1108 C1133 0.951 . S
H1109 C1135 0.950 . S
H1110 C1136 0.950 . S
H1111 C1138 0.950 . S
H1112 C1141 0.950 . S
H1113 C1142 0.950 . S
H1114 C1144 0.950 . S
H1115 C1145 0.950 . S
C1116 H1098 0.951 . S
C1116 C1117 1.366 . S
C1116 C1118 1.388 . S
C1117 C1116 1.366 . S
C1117 C1121 1.385 1_545 S
C1118 H1099 0.951 . S
C1118 C1116 1.388 . S
C1118 C1119 1.366 . S
C1119 C1118 1.366 . S
C1119 C1120 1.414 1_545 S
C1119 C1122 1.499 . S
C1120 H1100 0.950 . S
C1120 C1119 1.414 1_565 S
C1120 C1121 1.374 . S
C1121 H1101 0.950 . S
C1121 C1117 1.385 1_565 S
C1121 C1120 1.374 . S
C1122 C1119 1.499 . S
C1122 C1123 1.379 . S
C1122 C1124 1.389 . S
C1123 H1102 0.942 1_545 S
C1123 C1122 1.379 . S
C1123 C1139 1.383 . S
C1124 C1122 1.389 . S
C1124 C1125 1.524 . S
C1124 C1138 1.377 . S
C1125 C1124 1.524 . S
C1125 C1126 1.397 1_545 S
C1125 C1130 1.363 . S
C1126 H1103 0.950 . S
C1126 C1125 1.397 1_565 S
C1126 C1127 1.334 . S
C1127 H1104 0.950 . S
C1127 C1126 1.334 . S
C1127 C1128 1.287 1_565 S
C1128 C1127 1.287 1_545 S
C1128 C1129 1.524 . S
C1128 H1147 0.913 . S
C1129 H1105 0.950 . S
C1129 C1128 1.524 . S
C1129 C1130 1.415 . S
C1130 H1106 0.950 . S
C1130 C1125 1.363 . S
C1130 C1129 1.415 . S
C1131 H1107 0.951 . S
C1131 C1132 1.366 1_565 S
C1131 C1133 1.388 . S
C1132 C1131 1.366 1_545 S
C1132 C1136 1.385 . S
C1133 H1108 0.951 . S
C1133 C1131 1.388 . S
C1133 C1134 1.366 1_565 S
C1134 C1133 1.366 1_545 S
C1134 C1135 1.414 . S
C1134 C1137 1.499 . S
C1135 H1109 0.950 . S
C1135 C1134 1.414 . S
C1135 C1136 1.374 . S
C1136 H1110 0.950 . S
C1136 C1132 1.385 . S
C1136 C1135 1.374 . S
C1137 C1134 1.499 . S
C1137 C1138 1.373 . S
C1137 C1139 1.389 . S
C1138 H1111 0.950 . S
C1138 C1124 1.377 . S
C1138 C1137 1.373 . S
C1139 C1123 1.383 . S
C1139 C1137 1.389 . S
C1139 C1140 1.524 . S
C1140 C1139 1.524 . S
C1140 C1141 1.397 . S
C1140 C1145 1.363 1_545 S
C1141 H1112 0.950 . S
C1141 C1140 1.397 . S
C1141 C1142 1.334 . S
C1142 H1113 0.950 . S
C1142 C1141 1.334 . S
C1142 C1143 1.287 1_556 S
C1143 C1142 1.287 1_554 S
C1143 C1144 1.524 1_545 S
C1143 H1146 0.999 . S
C1144 H1114 0.950 . S
C1144 C1143 1.524 1_565 S
C1144 C1145 1.415 1_554 S
C1145 H1115 0.950 . S
C1145 C1140 1.363 1_565 S
C1145 C1144 1.415 1_556 S
H1146 C1143 0.999 . S
H1147 C1128 0.913 . S
H1148 C1166 0.951 . S
H1149 C1168 0.951 . S
H1150 C1170 0.950 . S
H1151 C1171 0.950 . S
H1152 C1173 0.950 . S
H1153 C1176 0.950 . S
H1154 C1177 0.950 . S
H1155 C1179 0.950 . S
H1156 C1180 0.950 . S
H1157 C1181 0.951 . S
H1158 C1183 0.951 . S
H1159 C1185 0.950 . S
H1160 C1186 0.950 . S
H1161 C1188 0.950 . S
H1162 C1191 0.950 . S
H1163 C1192 0.950 . S
H1164 C1194 0.950 . S
H1165 C1195 0.950 . S
C1166 H1148 0.951 . S
C1166 C1167 1.366 . S
C1166 C1168 1.388 . S
C1167 C1166 1.366 . S
C1167 C1171 1.385 . S
C1168 H1149 0.951 . S
C1168 C1166 1.388 . S
C1168 C1169 1.366 . S
C1169 C1168 1.366 . S
C1169 C1170 1.414 . S
C1169 C1172 1.499 . S
C1170 H1150 0.950 . S
C1170 C1169 1.414 . S
C1170 C1171 1.374 . S
C1171 H1151 0.950 . S
C1171 C1167 1.385 . S
C1171 C1170 1.374 . S
C1172 C1169 1.499 . S
C1172 C1173 1.373 . S
C1172 C1174 1.389 . S
C1173 H1152 0.950 . S
C1173 C1172 1.373 . S
C1173 C1189 1.377 . S
C1174 C1172 1.389 . S
C1174 C1175 1.524 . S
C1174 C1188 1.377 . S
C1175 C1174 1.524 . S
C1175 C1176 1.397 . S
C1175 C1180 1.363 . S
C1176 H1153 0.950 . S
C1176 C1175 1.397 . S
C1176 C1177 1.334 . S
C1177 H1154 0.950 . S
C1177 C1176 1.334 . S
C1177 C1178 1.287 . S
C1178 C1177 1.287 . S
C1178 C1179 1.524 . S
C1178 H1197 0.913 . S
C1179 H1155 0.950 . S
C1179 C1178 1.524 . S
C1179 C1180 1.415 . S
C1180 H1156 0.950 . S
C1180 C1175 1.363 . S
C1180 C1179 1.415 . S
C1181 H1157 0.951 . S
C1181 C1182 1.366 . S
C1181 C1183 1.388 . S
C1182 C1181 1.366 . S
C1182 C1186 1.385 . S
C1183 H1158 0.951 . S
C1183 C1181 1.388 . S
C1183 C1184 1.366 . S
C1184 C1183 1.366 . S
C1184 C1185 1.414 . S
C1184 C1187 1.499 . S
C1185 H1159 0.950 . S
C1185 C1184 1.414 . S
C1185 C1186 1.374 . S
C1186 H1160 0.950 . S
C1186 C1182 1.385 . S
C1186 C1185 1.374 . S
C1187 C1184 1.499 . S
C1187 C1188 1.373 . S
C1187 C1189 1.389 . S
C1188 H1161 0.950 . S
C1188 C1174 1.377 . S
C1188 C1187 1.373 . S
C1189 C1173 1.377 . S
C1189 C1187 1.389 . S
C1189 C1190 1.524 . S
C1190 C1189 1.524 . S
C1190 C1191 1.397 . S
C1190 C1195 1.363 . S
C1191 H1162 0.950 . S
C1191 C1190 1.397 . S
C1191 C1192 1.334 . S
C1192 H1163 0.950 . S
C1192 C1191 1.334 . S
C1192 C1193 1.287 . S
C1193 C1192 1.287 . S
C1193 C1194 1.524 . S
C1193 H1196 0.999 . S
C1194 H1164 0.950 . S
C1194 C1193 1.524 . S
C1194 C1195 1.415 . S
C1195 H1165 0.950 . S
C1195 C1190 1.363 . S
C1195 C1194 1.415 . S
H1196 C1193 0.999 . S
H1197 C1178 0.913 . S
H1198 C1216 0.951 . S
H1199 C1218 0.951 . S
H1200 C1220 0.950 . S
H1201 C1221 0.950 . S
H1202 C1223 0.950 . S
H1203 C1226 0.950 . S
H1204 C1227 0.950 . S
H1205 C1229 0.950 . S
H1206 C1230 0.950 . S
H1207 C1231 0.951 . S
H1208 C1233 0.951 . S
H1209 C1235 0.950 . S
H1210 C1236 0.950 . S
H1211 C1238 0.950 . S
H1212 C1241 0.950 . S
H1213 C1242 0.950 . S
H1214 C1244 0.950 . S
H1215 C1245 0.950 . S
C1216 H1198 0.951 . S
C1216 C1217 1.366 . S
C1216 C1218 1.388 . S
C1217 C1216 1.366 . S
C1217 C1221 1.385 . S
C1218 H1199 0.951 . S
C1218 C1216 1.388 . S
C1218 C1219 1.366 . S
C1219 C1218 1.366 . S
C1219 C1220 1.414 . S
C1219 C1222 1.499 . S
C1220 H1200 0.950 . S
C1220 C1219 1.414 . S
C1220 C1221 1.374 . S
C1221 H1201 0.950 . S
C1221 C1217 1.385 . S
C1221 C1220 1.374 . S
C1222 C1219 1.499 . S
C1222 C1223 1.373 . S
C1222 C1224 1.389 . S
C1223 H1202 0.950 . S
C1223 C1222 1.373 . S
C1223 C1239 1.377 . S
C1224 C1222 1.389 . S
C1224 C1225 1.524 . S
C1224 C1238 1.377 . S
C1225 C1224 1.524 . S
C1225 C1226 1.397 . S
C1225 C1230 1.363 . S
C1226 H1203 0.950 . S
C1226 C1225 1.397 . S
C1226 C1227 1.334 1_556 S
C1227 H1204 0.950 . S
C1227 C1226 1.334 1_554 S
C1227 C1228 1.287 . S
C1228 C1227 1.287 . S
C1228 C1229 1.524 . S
C1228 H1247 0.913 . S
C1229 H1205 0.950 . S
C1229 C1228 1.524 . S
C1229 C1230 1.415 1_554 S
C1230 H1206 0.950 . S
C1230 C1225 1.363 . S
C1230 C1229 1.415 1_556 S
C1231 H1207 0.951 . S
C1231 C1232 1.366 . S
C1231 C1233 1.388 . S
C1232 C1231 1.366 . S
C1232 C1236 1.385 . S
C1233 H1208 0.951 . S
C1233 C1231 1.388 . S
C1233 C1234 1.366 . S
C1234 C1233 1.366 . S
C1234 C1235 1.414 . S
C1234 C1237 1.499 . S
C1235 H1209 0.950 . S
C1235 C1234 1.414 . S
C1235 C1236 1.374 . S
C1236 H1210 0.950 . S
C1236 C1232 1.385 . S
C1236 C1235 1.374 . S
C1237 C1234 1.499 . S
C1237 C1238 1.373 . S
C1237 C1239 1.389 . S
C1238 H1211 0.950 . S
C1238 C1224 1.377 . S
C1238 C1237 1.373 . S
C1239 C1223 1.377 . S
C1239 C1237 1.389 . S
C1239 C1240 1.524 . S
C1240 C1239 1.524 . S
C1240 C1241 1.397 . S
C1240 C1245 1.363 . S
C1241 H1212 0.950 . S
C1241 C1240 1.397 . S
C1241 C1242 1.334 . S
C1242 H1213 0.950 . S
C1242 C1241 1.334 . S
C1242 C1243 1.287 . S
C1243 C1242 1.287 . S
C1243 C1244 1.524 . S
C1243 H1246 0.999 . S
C1244 H1214 0.950 . S
C1244 C1243 1.524 . S
C1244 C1245 1.415 . S
C1245 H1215 0.950 . S
C1245 C1240 1.363 . S
C1245 C1244 1.415 . S
H1246 C1243 0.999 . S
H1247 C1228 0.913 . S
H1248 C1266 0.951 . S
H1249 C1268 0.951 . S
H1250 C1270 0.950 . S
H1251 C1271 0.950 . S
H1252 C1273 0.950 . S
H1253 C1276 0.950 . S
H1254 C1277 0.950 . S
H1255 C1279 0.950 . S
H1256 C1280 0.950 . S
H1257 C1281 0.951 . S
H1258 C1283 0.951 . S
H1259 C1285 0.950 . S
H1260 C1286 0.950 . S
H1261 C1288 0.950 . S
H1262 C1291 0.950 1_655 S
H1263 C1292 0.950 . S
H1264 C1294 0.950 . S
H1265 C1295 0.950 . S
C1266 H1248 0.951 . S
C1266 C1267 1.366 . S
C1266 C1268 1.388 . S
C1267 C1266 1.366 . S
C1267 C1271 1.385 1_655 S
C1268 H1249 0.951 . S
C1268 C1266 1.388 . S
C1268 C1269 1.366 . S
C1269 C1268 1.366 . S
C1269 C1270 1.414 1_655 S
C1269 C1272 1.499 . S
C1270 H1250 0.950 . S
C1270 C1269 1.414 1_455 S
C1270 C1271 1.374 . S
C1271 H1251 0.950 . S
C1271 C1267 1.385 1_455 S
C1271 C1270 1.374 . S
C1272 C1269 1.499 . S
C1272 C1273 1.373 1_655 S
C1272 C1274 1.389 . S
C1273 H1252 0.950 . S
C1273 C1272 1.373 1_455 S
C1273 C1289 1.377 . S
C1274 C1272 1.389 . S
C1274 C1275 1.524 . S
C1274 C1288 1.377 . S
C1275 C1274 1.524 . S
C1275 C1276 1.397 . S
C1275 C1280 1.363 . S
C1276 H1253 0.950 . S
C1276 C1275 1.397 . S
C1276 C1277 1.334 . S
C1277 H1254 0.950 . S
C1277 C1276 1.334 . S
C1277 C1278 1.287 . S
C1278 C1277 1.287 . S
C1278 C1279 1.524 . S
C1278 H1297 0.913 . S
C1279 H1255 0.950 . S
C1279 C1278 1.524 . S
C1279 C1280 1.415 . S
C1280 H1256 0.950 . S
C1280 C1275 1.363 . S
C1280 C1279 1.415 . S
C1281 H1257 0.951 . S
C1281 C1282 1.366 1_455 S
C1281 C1283 1.388 . S
C1282 C1281 1.366 1_655 S
C1282 C1286 1.385 . S
C1283 H1258 0.951 . S
C1283 C1281 1.388 . S
C1283 C1284 1.366 1_455 S
C1284 C1283 1.366 1_655 S
C1284 C1285 1.414 . S
C1284 C1287 1.499 . S
C1285 H1259 0.950 . S
C1285 C1284 1.414 . S
C1285 C1286 1.374 . S
C1286 H1260 0.950 . S
C1286 C1282 1.385 . S
C1286 C1285 1.374 . S
C1287 C1284 1.499 . S
C1287 C1288 1.373 . S
C1287 C1289 1.389 1_655 S
C1288 H1261 0.950 . S
C1288 C1274 1.377 . S
C1288 C1287 1.373 . S
C1289 C1273 1.377 . S
C1289 C1287 1.389 1_455 S
C1289 C1290 1.524 . S
C1290 C1289 1.524 . S
C1290 C1291 1.397 . S
C1290 C1295 1.363 . S
C1291 H1262 0.950 1_455 S
C1291 C1290 1.397 . S
C1291 C1292 1.334 . S
C1292 H1263 0.950 . S
C1292 C1291 1.334 . S
C1292 C1293 1.287 . S
C1293 C1292 1.287 . S
C1293 C1294 1.524 . S
C1293 H1296 0.999 . S
C1294 H1264 0.950 . S
C1294 C1293 1.524 . S
C1294 C1295 1.415 . S
C1295 H1265 0.950 . S
C1295 C1290 1.363 . S
C1295 C1294 1.415 . S
H1296 C1293 0.999 . S
H1297 C1278 0.913 . S
H1298 C1316 0.951 . S
H1299 C1318 0.951 . S
H1300 C1320 0.950 . S
H1301 C1321 0.950 . S
H1302 C1323 0.950 . S
H1303 C1326 0.950 . S
H1304 C1327 0.950 . S
H1305 C1329 0.950 . S
H1306 C1330 0.950 . S
H1307 C1331 0.951 . S
H1308 C1333 0.951 . S
H1309 C1335 0.950 . S
H1310 C1336 0.950 . S
H1311 C1338 0.950 . S
H1312 C1341 0.950 . S
H1313 C1342 0.950 . S
H1314 C1344 0.950 . S
H1315 C1345 0.950 . S
C1316 H1298 0.951 . S
C1316 C1317 1.366 1_545 S
C1316 C1318 1.388 . S
C1317 C1316 1.366 1_565 S
C1317 C1321 1.385 . S
C1318 H1299 0.951 . S
C1318 C1316 1.388 . S
C1318 C1319 1.366 1_545 S
C1319 C1318 1.366 1_565 S
C1319 C1320 1.414 . S
C1319 C1322 1.499 . S
C1320 H1300 0.950 . S
C1320 C1319 1.414 . S
C1320 C1321 1.374 . S
C1321 H1301 0.950 . S
C1321 C1317 1.385 . S
C1321 C1320 1.374 . S
C1322 C1319 1.499 . S
C1322 C1323 1.373 . S
C1322 C1324 1.389 1_565 S
C1323 H1302 0.950 . S
C1323 C1322 1.373 . S
C1323 C1339 1.377 . S
C1324 C1322 1.389 1_545 S
C1324 C1325 1.524 . S
C1324 C1338 1.377 . S
C1325 C1324 1.524 . S
C1325 C1326 1.397 . S
C1325 C1330 1.363 . S
C1326 H1303 0.950 . S
C1326 C1325 1.397 . S
C1326 C1327 1.334 . S
C1327 H1304 0.950 . S
C1327 C1326 1.334 . S
C1327 C1328 1.287 . S
C1328 C1327 1.287 . S
C1328 C1329 1.524 . S
C1328 H1347 0.913 . S
C1329 H1305 0.950 . S
C1329 C1328 1.524 . S
C1329 C1330 1.415 . S
C1330 H1306 0.950 . S
C1330 C1325 1.363 . S
C1330 C1329 1.415 . S
C1331 H1307 0.951 . S
C1331 C1332 1.366 . S
C1331 C1333 1.388 . S
C1332 C1331 1.366 . S
C1332 C1336 1.385 1_565 S
C1333 H1308 0.951 . S
C1333 C1331 1.388 . S
C1333 C1334 1.366 . S
C1334 C1333 1.366 . S
C1334 C1335 1.414 1_565 S
C1334 C1337 1.499 . S
C1335 H1309 0.950 . S
C1335 C1334 1.414 1_545 S
C1335 C1336 1.374 . S
C1336 H1310 0.950 . S
C1336 C1332 1.385 1_545 S
C1336 C1335 1.374 . S
C1337 C1334 1.499 . S
C1337 C1338 1.373 1_565 S
C1337 C1339 1.389 . S
C1338 H1311 0.950 . S
C1338 C1324 1.377 . S
C1338 C1337 1.373 1_545 S
C1339 C1323 1.377 . S
C1339 C1337 1.389 . S
C1339 C1340 1.524 . S
C1340 C1339 1.524 . S
C1340 C1341 1.397 . S
C1340 C1345 1.363 . S
C1341 H1312 0.950 . S
C1341 C1340 1.397 . S
C1341 C1342 1.334 . S
C1342 H1313 0.950 . S
C1342 C1341 1.334 . S
C1342 C1343 1.287 . S
C1343 C1342 1.287 . S
C1343 C1344 1.524 . S
C1343 H1346 0.999 . S
C1344 H1314 0.950 . S
C1344 C1343 1.524 . S
C1344 C1345 1.415 . S
C1345 H1315 0.950 . S
C1345 C1340 1.363 . S
C1345 C1344 1.415 . S
H1346 C1343 0.999 . S
H1347 C1328 0.913 . S
H1348 C1366 0.951 . S
H1349 C1368 0.951 . S
H1350 C1370 0.950 . S
H1351 C1371 0.950 . S
H1352 C1373 0.950 . S
H1353 C1376 0.950 . S
H1354 C1377 0.950 . S
H1355 C1379 0.950 . S
H1356 C1380 0.950 . S
H1357 C1381 0.951 . S
H1358 C1383 0.951 . S
H1359 C1385 0.950 . S
H1360 C1386 0.950 . S
H1361 C1388 0.950 . S
H1362 C1391 0.950 . S
H1363 C1392 0.950 . S
H1364 C1394 0.950 . S
H1365 C1395 0.950 . S
C1366 H1348 0.951 . S
C1366 C1367 1.366 . S
C1366 C1368 1.388 . S
C1367 C1366 1.366 . S
C1367 C1371 1.385 . S
C1368 H1349 0.951 . S
C1368 C1366 1.388 . S
C1368 C1369 1.366 . S
C1369 C1368 1.366 . S
C1369 C1370 1.414 . S
C1369 C1372 1.499 . S
C1370 H1350 0.950 . S
C1370 C1369 1.414 . S
C1370 C1371 1.374 . S
C1371 H1351 0.950 . S
C1371 C1367 1.385 . S
C1371 C1370 1.374 . S
C1372 C1369 1.499 . S
C1372 C1373 1.373 . S
C1372 C1374 1.389 . S
C1373 H1352 0.950 . S
C1373 C1372 1.373 . S
C1373 C1389 1.377 . S
C1374 C1372 1.389 . S
C1374 C1375 1.524 . S
C1374 C1388 1.377 . S
C1375 C1374 1.524 . S
C1375 C1376 1.397 . S
C1375 C1380 1.363 . S
C1376 H1353 0.950 . S
C1376 C1375 1.397 . S
C1376 C1377 1.334 . S
C1377 H1354 0.950 . S
C1377 C1376 1.334 . S
C1377 C1378 1.287 . S
C1378 C1377 1.287 . S
C1378 C1379 1.524 . S
C1378 H1397 0.913 . S
C1379 H1355 0.950 . S
C1379 C1378 1.524 . S
C1379 C1380 1.415 . S
C1380 H1356 0.950 . S
C1380 C1375 1.363 . S
C1380 C1379 1.415 . S
C1381 H1357 0.951 . S
C1381 C1382 1.366 . S
C1381 C1383 1.388 . S
C1382 C1381 1.366 . S
C1382 C1386 1.385 . S
C1383 H1358 0.951 . S
C1383 C1381 1.388 . S
C1383 C1384 1.366 . S
C1384 C1383 1.366 . S
C1384 C1385 1.414 . S
C1384 C1387 1.499 . S
C1385 H1359 0.950 . S
C1385 C1384 1.414 . S
C1385 C1386 1.374 . S
C1386 H1360 0.950 . S
C1386 C1382 1.385 . S
C1386 C1385 1.374 . S
C1387 C1384 1.499 . S
C1387 C1388 1.373 . S
C1387 C1389 1.389 . S
C1388 H1361 0.950 . S
C1388 C1374 1.377 . S
C1388 C1387 1.373 . S
C1389 C1373 1.377 . S
C1389 C1387 1.389 . S
C1389 C1390 1.524 . S
C1390 C1389 1.524 . S
C1390 C1391 1.397 . S
C1390 C1395 1.363 . S
C1391 H1362 0.950 . S
C1391 C1390 1.397 . S
C1391 C1392 1.334 . S
C1392 H1363 0.950 . S
C1392 C1391 1.334 . S
C1392 C1393 1.287 . S
C1393 C1392 1.287 . S
C1393 C1394 1.524 . S
C1393 H1396 0.999 . S
C1394 H1364 0.950 . S
C1394 C1393 1.524 . S
C1394 C1395 1.415 . S
C1395 H1365 0.950 . S
C1395 C1390 1.363 . S
C1395 C1394 1.415 . S
H1396 C1393 0.999 . S
H1397 C1378 0.913 . S
H1398 C1416 0.951 . S
H1399 C1418 0.951 . S
H1400 C1420 0.950 . S
H1401 C1421 0.950 . S
H1402 C1423 0.950 . S
H1403 C1426 0.950 . S
H1404 C1427 0.950 . S
H1405 C1429 0.950 . S
H1406 C1430 0.950 . S
H1407 C1431 0.951 . S
H1408 C1433 0.951 . S
H1409 C1435 0.950 . S
H1410 C1436 0.950 . S
H1411 C1438 0.950 . S
H1412 C1441 0.950 . S
H1413 C1442 0.950 . S
H1414 C1444 0.950 . S
H1415 C1445 0.950 . S
C1416 H1398 0.951 . S
C1416 C1417 1.366 . S
C1416 C1418 1.388 . S
C1417 C1416 1.366 . S
C1417 C1421 1.385 . S
C1418 H1399 0.951 . S
C1418 C1416 1.388 . S
C1418 C1419 1.366 . S
C1419 C1418 1.366 . S
C1419 C1420 1.414 . S
C1419 C1422 1.499 . S
C1420 H1400 0.950 . S
C1420 C1419 1.414 . S
C1420 C1421 1.374 . S
C1421 H1401 0.950 . S
C1421 C1417 1.385 . S
C1421 C1420 1.374 . S
C1422 C1419 1.499 . S
C1422 C1423 1.373 . S
C1422 C1424 1.389 . S
C1423 H1402 0.950 . S
C1423 C1422 1.373 . S
C1423 C1439 1.377 . S
C1424 C1422 1.389 . S
C1424 C1425 1.524 . S
C1424 C1438 1.377 . S
C1425 C1424 1.524 . S
C1425 C1426 1.397 . S
C1425 C1430 1.363 . S
C1426 H1403 0.950 . S
C1426 C1425 1.397 . S
C1426 C1427 1.334 . S
C1427 H1404 0.950 . S
C1427 C1426 1.334 . S
C1427 C1428 1.287 . S
C1428 C1427 1.287 . S
C1428 C1429 1.524 . S
C1428 H1447 0.913 . S
C1429 H1405 0.950 . S
C1429 C1428 1.524 . S
C1429 C1430 1.415 . S
C1430 H1406 0.950 . S
C1430 C1425 1.363 . S
C1430 C1429 1.415 . S
C1431 H1407 0.951 . S
C1431 C1432 1.366 . S
C1431 C1433 1.388 . S
C1432 C1431 1.366 . S
C1432 C1436 1.385 . S
C1433 H1408 0.951 . S
C1433 C1431 1.388 . S
C1433 C1434 1.366 . S
C1434 C1433 1.366 . S
C1434 C1435 1.414 . S
C1434 C1437 1.499 . S
C1435 H1409 0.950 . S
C1435 C1434 1.414 . S
C1435 C1436 1.374 . S
C1436 H1410 0.950 . S
C1436 C1432 1.385 . S
C1436 C1435 1.374 . S
C1437 C1434 1.499 . S
C1437 C1438 1.373 . S
C1437 C1439 1.389 . S
C1438 H1411 0.950 . S
C1438 C1424 1.377 . S
C1438 C1437 1.373 . S
C1439 C1423 1.377 . S
C1439 C1437 1.389 . S
C1439 C1440 1.524 . S
C1440 C1439 1.524 . S
C1440 C1441 1.397 . S
C1440 C1445 1.363 . S
C1441 H1412 0.950 . S
C1441 C1440 1.397 . S
C1441 C1442 1.334 . S
C1442 H1413 0.950 . S
C1442 C1441 1.334 . S
C1442 C1443 1.287 . S
C1443 C1442 1.287 . S
C1443 C1444 1.524 . S
C1443 H1446 0.999 . S
C1444 H1414 0.950 . S
C1444 C1443 1.524 . S
C1444 C1445 1.415 . S
C1445 H1415 0.950 . S
C1445 C1440 1.363 . S
C1445 C1444 1.415 . S
H1446 C1443 0.999 . S
H1447 C1428 0.913 . S
C267 C74 1.701 . S
C282 C90 1.753 1_545 S
C332 C130 1.758 . S
C317 C85 1.693 . S
C382 C170 1.758 . S
C367 C52 1.694 . S
C432 C210 1.754 1_455 S
C417 C63 1.699 . S
C482 C103 1.755 1_565 S
C467 C30 1.690 1_565 S
C517 C41 1.693 . S
C532 C143 1.757 . S
C567 C8 1.693 . S
C582 C183 1.757 . S
C617 C19 1.690 1_655 S
C632 C223 1.755 1_655 S
C682 C114 0.436 . S
C667 C62 0.444 . S
C732 C154 0.436 . S
C717 C73 0.443 . S
C782 C194 0.435 . S
C767 C84 0.444 . S
C817 C51 0.443 . S
C832 C234 0.436 . S
C867 C18 0.489 1_655 S
C882 C97 0.436 . S
C932 C137 0.436 . S
C917 C29 0.491 1_565 S
C982 C177 0.437 . S
C967 C40 0.491 . S
C1017 C7 0.491 . S
C1032 C217 0.436 . S
C1067 C60 1.582 . S
C1082 C91 2.051 . S
C1117 C71 1.583 . S
C1132 C131 2.051 . S
C1182 C171 2.051 . S
C1167 C82 1.584 . S
C1232 C211 2.051 . S
C1217 C49 1.585 . S
C1267 C16 1.617 1_655 S
C1282 C110 2.052 . S
C1332 C150 2.051 . S
C1317 C27 1.617 1_565 S
C1382 C190 2.050 . S
C1367 C38 1.616 . S
C1417 C5 1.618 . S
C1432 C230 2.051 . S
