# Generated by pormake.
# Topology ocu, (6,8)-cn, num edge types: 1
# Building blocks:
#     Node 0, Type 0, BuildingBlock: MIFKUJ_clean_sbu_0, # of connection points: 6
#     Node 1, Type 0, BuildingBlock: MIFKUJ_clean_sbu_0, # of connection points: 6
#     Node 2, Type 0, BuildingBlock: MIFKUJ_clean_sbu_0, # of connection points: 6
#     Node 3, Type 0, BuildingBlock: MIFKUJ_clean_sbu_0, # of connection points: 6
#     Node 4, Type 0, BuildingBlock: MIFKUJ_clean_sbu_0, # of connection points: 6
#     Node 5, Type 0, BuildingBlock: MIFKUJ_clean_sbu_0, # of connection points: 6
#     Node 6, Type 0, BuildingBlock: MIFKUJ_clean_sbu_0, # of connection points: 6
#     Node 7, Type 0, BuildingBlock: MIFKUJ_clean_sbu_0, # of connection points: 6
#     Node 8, Type 1, BuildingBlock: GIZVER_clean_sbu_0, # of connection points: 8
#     Node 9, Type 1, BuildingBlock: GIZVER_clean_sbu_0, # of connection points: 8
#     Node 10, Type 1, BuildingBlock: GIZVER_clean_sbu_0, # of connection points: 8
#     Node 11, Type 1, BuildingBlock: GIZVER_clean_sbu_0, # of connection points: 8
#     Node 12, Type 1, BuildingBlock: GIZVER_clean_sbu_0, # of connection points: 8
#     Node 13, Type 1, BuildingBlock: GIZVER_clean_sbu_0, # of connection points: 8
#     Edge 14, Type (0, 1), BuildingBlock: AJUNOK_clean_linker_0, # of connection points: 2
#     Edge 15, Type (0, 1), BuildingBlock: AJUNOK_clean_linker_0, # of connection points: 2
#     Edge 16, Type (0, 1), BuildingBlock: AJUNOK_clean_linker_0, # of connection points: 2
#     Edge 17, Type (0, 1), BuildingBlock: AJUNOK_clean_linker_0, # of connection points: 2
#     Edge 18, Type (0, 1), BuildingBlock: AJUNOK_clean_linker_0, # of connection points: 2
#     Edge 19, Type (0, 1), BuildingBlock: AJUNOK_clean_linker_0, # of connection points: 2
#     Edge 20, Type (0, 1), BuildingBlock: AJUNOK_clean_linker_0, # of connection points: 2
#     Edge 21, Type (0, 1), BuildingBlock: AJUNOK_clean_linker_0, # of connection points: 2
#     Edge 22, Type (0, 1), BuildingBlock: AJUNOK_clean_linker_0, # of connection points: 2
#     Edge 23, Type (0, 1), BuildingBlock: AJUNOK_clean_linker_0, # of connection points: 2
#     Edge 24, Type (0, 1), BuildingBlock: AJUNOK_clean_linker_0, # of connection points: 2
#     Edge 25, Type (0, 1), BuildingBlock: AJUNOK_clean_linker_0, # of connection points: 2
#     Edge 26, Type (0, 1), BuildingBlock: AJUNOK_clean_linker_0, # of connection points: 2
#     Edge 27, Type (0, 1), BuildingBlock: AJUNOK_clean_linker_0, # of connection points: 2
#     Edge 28, Type (0, 1), BuildingBlock: AJUNOK_clean_linker_0, # of connection points: 2
#     Edge 29, Type (0, 1), BuildingBlock: AJUNOK_clean_linker_0, # of connection points: 2
#     Edge 30, Type (0, 1), BuildingBlock: AJUNOK_clean_linker_0, # of connection points: 2
#     Edge 31, Type (0, 1), BuildingBlock: AJUNOK_clean_linker_0, # of connection points: 2
#     Edge 32, Type (0, 1), BuildingBlock: AJUNOK_clean_linker_0, # of connection points: 2
#     Edge 33, Type (0, 1), BuildingBlock: AJUNOK_clean_linker_0, # of connection points: 2
#     Edge 34, Type (0, 1), BuildingBlock: AJUNOK_clean_linker_0, # of connection points: 2
#     Edge 35, Type (0, 1), BuildingBlock: AJUNOK_clean_linker_0, # of connection points: 2
#     Edge 36, Type (0, 1), BuildingBlock: AJUNOK_clean_linker_0, # of connection points: 2
#     Edge 37, Type (0, 1), BuildingBlock: AJUNOK_clean_linker_0, # of connection points: 2
#     Edge 38, Type (0, 1), BuildingBlock: AJUNOK_clean_linker_0, # of connection points: 2
#     Edge 39, Type (0, 1), BuildingBlock: AJUNOK_clean_linker_0, # of connection points: 2
#     Edge 40, Type (0, 1), BuildingBlock: AJUNOK_clean_linker_0, # of connection points: 2
#     Edge 41, Type (0, 1), BuildingBlock: AJUNOK_clean_linker_0, # of connection points: 2
#     Edge 42, Type (0, 1), BuildingBlock: AJUNOK_clean_linker_0, # of connection points: 2
#     Edge 43, Type (0, 1), BuildingBlock: AJUNOK_clean_linker_0, # of connection points: 2
#     Edge 44, Type (0, 1), BuildingBlock: AJUNOK_clean_linker_0, # of connection points: 2
#     Edge 45, Type (0, 1), BuildingBlock: AJUNOK_clean_linker_0, # of connection points: 2
#     Edge 46, Type (0, 1), BuildingBlock: AJUNOK_clean_linker_0, # of connection points: 2
#     Edge 47, Type (0, 1), BuildingBlock: AJUNOK_clean_linker_0, # of connection points: 2
#     Edge 48, Type (0, 1), BuildingBlock: AJUNOK_clean_linker_0, # of connection points: 2
#     Edge 49, Type (0, 1), BuildingBlock: AJUNOK_clean_linker_0, # of connection points: 2
#     Edge 50, Type (0, 1), BuildingBlock: AJUNOK_clean_linker_0, # of connection points: 2
#     Edge 51, Type (0, 1), BuildingBlock: AJUNOK_clean_linker_0, # of connection points: 2
#     Edge 52, Type (0, 1), BuildingBlock: AJUNOK_clean_linker_0, # of connection points: 2
#     Edge 53, Type (0, 1), BuildingBlock: AJUNOK_clean_linker_0, # of connection points: 2
#     Edge 54, Type (0, 1), BuildingBlock: AJUNOK_clean_linker_0, # of connection points: 2
#     Edge 55, Type (0, 1), BuildingBlock: AJUNOK_clean_linker_0, # of connection points: 2
#     Edge 56, Type (0, 1), BuildingBlock: AJUNOK_clean_linker_0, # of connection points: 2
#     Edge 57, Type (0, 1), BuildingBlock: AJUNOK_clean_linker_0, # of connection points: 2
#     Edge 58, Type (0, 1), BuildingBlock: AJUNOK_clean_linker_0, # of connection points: 2
#     Edge 59, Type (0, 1), BuildingBlock: AJUNOK_clean_linker_0, # of connection points: 2
#     Edge 60, Type (0, 1), BuildingBlock: AJUNOK_clean_linker_0, # of connection points: 2
#     Edge 61, Type (0, 1), BuildingBlock: AJUNOK_clean_linker_0, # of connection points: 2
# Relax obj value: 0.110
# Max RMSD: 0.215
# Mean RMSD: 0.161
data_MOF--net-ocu--node1-MIFKUJ_clean_sbu_0--node2-GIZVER_clean_sbu_0--edge1-AJUNOK_clean_linker_0
_symmetry_space_group_name_H-M    P1
_symmetry_Int_Tables_number       1
_symmetry_cell_setting            triclinic
loop_
_symmetry_equiv_pos_as_xyz
'x, y, z'
_cell_length_a     33.099161
_cell_length_b     35.000644
_cell_length_c     22.793263
_cell_angle_alpha  91.721942
_cell_angle_beta   93.959413
_cell_angle_gamma 112.93733
loop_
_atom_site_label
_atom_site_type_symbol
_atom_site_fract_x
_atom_site_fract_y
_atom_site_fract_z
_atom_type_partial_charge
Zn0 Zn 0.22165 0.30562 0.2596 0.0
Zn1 Zn 0.29497 0.2336 0.26705 0.0
C2 C 0.17467 0.33235 0.33478 0.0
O3 O 0.14632 0.29633 0.31128 0.0
C4 C 0.34012 0.21009 0.18631 0.0
O5 O 0.36857 0.24556 0.21127 0.0
O6 O 0.17989 0.31237 0.19333 0.0
O7 O 0.28579 0.33391 0.23354 0.0
O8 O 0.32352 0.29385 0.2393 0.0
C9 C 0.19537 0.33519 0.15106 0.0
O10 O 0.23689 0.34553 0.14207 0.0
O11 O 0.21437 0.34464 0.32176 0.0
C12 C 0.31894 0.18515 0.3414 0.0
O13 O 0.2825 0.1605 0.3108 0.0
O14 O 0.33473 0.22364 0.33166 0.0
O15 O 0.23293 0.20738 0.29807 0.0
O16 O 0.19429 0.24667 0.29495 0.0
O17 O 0.30065 0.19672 0.20042 0.0
C18 C 0.32113 0.32831 0.22672 0.0
C19 C 0.19813 0.21286 0.30834 0.0
Zn20 Zn 0.76494 0.31944 0.23174 0.0
Zn21 Zn 0.75822 0.22708 0.34273 0.0
C22 C 0.71971 0.35683 0.16891 0.0
O23 O 0.7417 0.34658 0.12986 0.0
C24 C 0.81649 0.19625 0.40005 0.0
O25 O 0.80781 0.21527 0.44504 0.0
O26 O 0.82044 0.35367 0.20249 0.0
O27 O 0.77616 0.30485 0.31157 0.0
O28 O 0.78693 0.28122 0.39408 0.0
C29 C 0.84051 0.39063 0.22396 0.0
O30 O 0.8246 0.40521 0.26638 0.0
O31 O 0.72407 0.34857 0.22234 0.0
C32 C 0.66882 0.18959 0.35668 0.0
O33 O 0.66647 0.21971 0.32551 0.0
O34 O 0.70586 0.19039 0.37648 0.0
O35 O 0.73439 0.22773 0.25561 0.0
O36 O 0.73533 0.26698 0.18187 0.0
O37 O 0.79964 0.19792 0.34879 0.0
C38 C 0.79302 0.31235 0.36417 0.0
C39 C 0.72185 0.23125 0.20235 0.0
Zn40 Zn 0.80296 0.7301 0.25008 0.0
Zn41 Zn 0.73318 0.80818 0.26357 0.0
C42 C 0.85437 0.70732 0.33188 0.0
O43 O 0.88406 0.73799 0.3072 0.0
C44 C 0.68687 0.83173 0.1771 0.0
O45 O 0.65635 0.79946 0.19766 0.0
O46 O 0.83448 0.71813 0.18353 0.0
O47 O 0.73842 0.70742 0.2255 0.0
O48 O 0.70196 0.74842 0.23489 0.0
C49 C 0.82284 0.67976 0.16847 0.0
O50 O 0.78993 0.65251 0.19335 0.0
O51 O 0.81395 0.69684 0.3145 0.0
C52 C 0.71411 0.86259 0.34035 0.0
O53 O 0.75031 0.88798 0.31955 0.0
O54 O 0.70016 0.82395 0.32518 0.0
O55 O 0.79624 0.82936 0.29334 0.0
O56 O 0.833 0.78869 0.28339 0.0
O57 O 0.72669 0.84159 0.19677 0.0
C58 C 0.70294 0.71342 0.22088 0.0
C59 C 0.83147 0.82309 0.29938 0.0
Zn60 Zn 0.21782 0.78808 0.26989 0.0
Zn61 Zn 0.29766 0.74718 0.23676 0.0
C62 C 0.16057 0.73058 0.3432 0.0
O63 O 0.13885 0.7547 0.33602 0.0
C64 C 0.33814 0.82288 0.17395 0.0
O65 O 0.29836 0.82204 0.16246 0.0
O66 O 0.19169 0.82892 0.29359 0.0
O67 O 0.28225 0.81932 0.27762 0.0
O68 O 0.30662 0.77607 0.31969 0.0
C69 C 0.2023 0.84648 0.3453 0.0
O70 O 0.22864 0.83652 0.3817 0.0
O71 O 0.19747 0.73999 0.32172 0.0
C72 C 0.31479 0.68407 0.17622 0.0
O73 O 0.29563 0.69779 0.13436 0.0
O74 O 0.31946 0.70004 0.2287 0.0
O75 O 0.23798 0.7277 0.18849 0.0
O76 O 0.19412 0.76204 0.18999 0.0
O77 O 0.34298 0.79269 0.19829 0.0
C78 C 0.30479 0.81184 0.31933 0.0
C79 C 0.20321 0.73245 0.16944 0.0
Zn80 Zn 0.24749 0.79645 0.73949 0.0
Zn81 Zn 0.28315 0.72502 0.77986 0.0
C82 C 0.18869 0.82457 0.66827 0.0
O83 O 0.18636 0.79408 0.63134 0.0
C84 C 0.32638 0.69038 0.8558 0.0
O85 O 0.31196 0.71089 0.89241 0.0
O86 O 0.29303 0.81557 0.68386 0.0
O87 O 0.28281 0.82044 0.81957 0.0
O88 O 0.31985 0.7802 0.82016 0.0
C89 C 0.32943 0.81209 0.67897 0.0
O90 O 0.34072 0.78692 0.71134 0.0
O91 O 0.21072 0.82994 0.7182 0.0
C92 C 0.20901 0.65921 0.79922 0.0
O93 O 0.23048 0.64248 0.76794 0.0
O94 O 0.22708 0.69753 0.81592 0.0
O95 O 0.26372 0.71861 0.69284 0.0
O96 O 0.20971 0.73586 0.71645 0.0
O97 O 0.31791 0.69104 0.80062 0.0
C98 C 0.3163 0.81326 0.83784 0.0
C99 C 0.22343 0.71339 0.68509 0.0
Zn100 Zn 0.30013 0.22202 0.7597 0.0
Zn101 Zn 0.23873 0.307 0.74983 0.0
C102 C 0.35359 0.19977 0.83743 0.0
O103 O 0.38224 0.22901 0.80921 0.0
C104 C 0.18599 0.32514 0.66593 0.0
O105 O 0.15847 0.29388 0.69201 0.0
O106 O 0.3303 0.207 0.69418 0.0
O107 O 0.23625 0.19664 0.73509 0.0
O108 O 0.21028 0.24594 0.72937 0.0
C109 C 0.31309 0.16822 0.67931 0.0
O110 O 0.27741 0.14494 0.70333 0.0
O111 O 0.31284 0.19131 0.82573 0.0
C112 C 0.21662 0.35675 0.82953 0.0
O113 O 0.25231 0.38446 0.8105 0.0
O114 O 0.20459 0.31895 0.81158 0.0
O115 O 0.3017 0.3323 0.78262 0.0
O116 O 0.32666 0.28212 0.78782 0.0
O117 O 0.22694 0.33729 0.68139 0.0
C118 C 0.20496 0.20814 0.72322 0.0
C119 C 0.33174 0.31965 0.79779 0.0
Zn120 Zn 0.71877 0.2763 0.7782 0.0
Zn121 Zn 0.79582 0.23739 0.75402 0.0
C122 C 0.64933 0.21492 0.81678 0.0
O123 O 0.63357 0.23496 0.7801 0.0
C124 C 0.85958 0.295 0.68249 0.0
O125 O 0.87444 0.26559 0.67525 0.0
O126 O 0.6908 0.31778 0.79816 0.0
O127 O 0.78299 0.30903 0.80396 0.0
O128 O 0.80152 0.25953 0.83776 0.0
C129 C 0.69378 0.32704 0.85338 0.0
O130 O 0.71332 0.30976 0.8896 0.0
O131 O 0.69084 0.22857 0.82863 0.0
C132 C 0.80889 0.16222 0.72249 0.0
O133 O 0.7657 0.14522 0.718 0.0
O134 O 0.82872 0.19983 0.74285 0.0
O135 O 0.73689 0.20625 0.71251 0.0
O136 O 0.7001 0.24646 0.69534 0.0
O137 O 0.82609 0.28833 0.71096 0.0
C138 C 0.80769 0.29777 0.83823 0.0
C139 C 0.70616 0.21307 0.68465 0.0
Zn140 Zn 0.73209 0.80539 0.77519 0.0
Zn141 Zn 0.7961 0.72811 0.76742 0.0
C142 C 0.70287 0.83427 0.87801 0.0
O143 O 0.68657 0.79459 0.88773 0.0
C144 C 0.84911 0.70005 0.70682 0.0
O145 O 0.87499 0.73584 0.73368 0.0
O146 O 0.69054 0.81309 0.71136 0.0
O147 O 0.79325 0.8317 0.74207 0.0
O148 O 0.82391 0.78628 0.73181 0.0
C149 C 0.70337 0.82736 0.66219 0.0
O150 O 0.74112 0.82832 0.64641 0.0
O151 O 0.72842 0.84661 0.83726 0.0
C152 C 0.82255 0.69977 0.87519 0.0
O153 O 0.7803 0.68473 0.88212 0.0
O154 O 0.83696 0.72656 0.83711 0.0
O155 O 0.73269 0.69939 0.79442 0.0
O156 O 0.70199 0.74493 0.80385 0.0
O157 O 0.80779 0.68813 0.71046 0.0
C158 C 0.82399 0.82233 0.72392 0.0
C159 C 0.70099 0.70833 0.81015 0.0
Co160 Co 0.06023 0.95088 0.48557 0.0
Co161 Co 0.06121 0.96861 0.5941 0.0
Co162 Co 0.013 0.01763 0.51965 0.0
O163 O 0.063 0.99921 0.52963 0.0
H164 H 0.09128 0.02213 0.52982 0.0
O165 O 0.96256 0.03535 0.51043 0.0
Co166 Co 0.96244 0.08073 0.5589 0.0
Co167 Co 0.96433 0.06879 0.45064 0.0
H168 H 0.93451 1.0119 0.50738 0.0
O169 O 0.11235 0.97059 0.6312 0.0
O170 O 0.06873 0.92359 0.5596 0.0
O171 O 1.00776 0.9469 0.6315 0.0
O172 O 0.97013 0.97156 0.56925 0.0
O173 O 0.03854 0.05494 0.59121 0.0
O174 O 0.95857 0.11974 0.60517 0.0
O175 O 0.90381 0.06035 0.5681 0.0
O176 O 0.02396 0.1076 0.55891 0.0
O177 O 0.0556 0.06389 0.46913 0.0
O178 O 0.01793 0.09356 0.41569 0.0
O179 O 0.95268 0.11002 0.48818 0.0
O180 O 0.91331 0.06446 0.41198 0.0
C181 C 0.1032 0.93215 0.44613 0.0
C182 C 0.97727 0.94131 0.44981 0.0
C183 C 0.97163 0.94804 0.61153 0.0
C184 C 0.10243 0.93612 0.59961 0.0
C185 C 0.9174 0.09473 0.60173 0.0
C186 C 0.04716 0.09361 0.59145 0.0
C187 C 0.05377 0.09007 0.4307 0.0
C188 C 0.92045 0.09731 0.44605 0.0
O189 O 0.06145 0.90894 0.44296 0.0
O190 O 0.11852 0.96788 0.47668 0.0
O191 O 0.98776 0.98022 0.44817 0.0
O192 O 0.99837 0.92723 0.48592 0.0
Co193 Co 0.5604 0.95041 0.98997 0.0
Co194 Co 0.5779 0.9838 0.09775 0.0
Co195 Co 0.51702 0.02037 0.02854 0.0
O196 O 0.56733 1.00314 0.02515 0.0
H197 H 0.59365 0.02549 0.01485 0.0
O198 O 0.46715 0.03739 0.03292 0.0
Co199 Co 0.47393 0.09209 0.05711 0.0
Co200 Co 0.45359 0.04769 0.95686 0.0
H201 H 0.4414 0.01615 0.04655 0.0
O202 O 0.63249 0.98402 0.11969 0.0
O203 O 0.57518 0.93331 0.06794 0.0
O204 O 0.53306 0.96881 0.15249 0.0
O205 O 0.48679 0.97984 0.08694 0.0
O206 O 0.55258 0.06339 0.09197 0.0
O207 O 0.47404 0.14083 0.08023 0.0
O208 O 0.41661 0.07884 0.06889 0.0
O209 O 0.53683 0.11356 0.05232 0.0
O210 O 0.54596 0.06142 0.96902 0.0
O211 O 0.49268 0.04772 0.89807 0.0
O212 O 0.46199 0.10242 0.9733 0.0
O213 O 0.4005 0.04947 0.9333 0.0
C214 C 0.60039 0.92595 0.95248 0.0
C215 C 0.47248 0.93885 0.96962 0.0
C216 C 0.49448 0.96454 0.13412 0.0
C217 C 0.61462 0.94663 0.095 0.0
C218 C 0.43231 0.11866 0.08316 0.0
C219 C 0.56257 0.10191 0.08468 0.0
C220 C 0.53292 0.06549 0.91659 0.0
C221 C 0.42232 0.08892 0.94665 0.0
O222 O 0.55886 0.90386 0.9563 0.0
O223 O 0.61727 0.96477 0.97295 0.0
O224 O 0.48072 0.97734 0.96512 0.0
O225 O 0.49914 0.92797 1.00088 0.0
Co226 Co 0.05775 0.44417 0.96773 0.0
Co227 Co 0.07355 0.48454 0.06972 0.0
Co228 Co 0.01482 0.5179 0.98207 0.0
O229 O 0.06378 0.49849 0.99289 0.0
H230 H 0.09086 0.51928 0.98156 0.0
O231 O 0.96605 0.53782 0.97349 0.0
Co232 Co 0.97327 0.59161 1.00608 0.0
Co233 Co 0.95574 0.55581 0.90048 0.0
H234 H 0.93874 0.51664 0.9834 0.0
O235 O 0.12714 0.48252 0.09822 0.0
O236 O 0.06921 0.43117 0.04989 0.0
O237 O 0.02826 0.47939 0.12139 0.0
O238 O 0.98471 0.48924 0.0497 0.0
O239 O 0.05203 0.56696 0.03525 0.0
O240 O 0.97375 0.63887 0.03812 0.0
O241 O 0.91718 0.57651 0.02377 0.0
O242 O 0.03378 0.61451 0.9931 0.0
O243 O 0.04485 0.54715 0.91338 0.0
O244 O 1.00167 0.56552 0.84987 0.0
O245 O 0.95933 0.60745 0.92754 0.0
O246 O 0.90116 0.55766 0.87666 0.0
C247 C 0.09958 0.41933 0.93856 0.0
C248 C 0.9695 0.4304 0.94272 0.0
C249 C 0.99116 0.47824 0.10086 0.0
C250 C 0.10777 0.44384 0.07896 0.0
C251 C 0.9326 0.61548 0.04303 0.0
C252 C 0.06114 0.60465 0.02419 0.0
C253 C 0.03775 0.5624 0.86544 0.0
C254 C 0.91987 0.59491 0.90162 0.0
O255 O 0.0582 0.39597 0.94187 0.0
O256 O 0.1143 0.45874 0.95496 0.0
O257 O 0.97739 0.46773 0.92961 0.0
O258 O 0.99681 0.42229 0.97664 0.0
Co259 Co 0.56023 0.44511 0.98798 0.0
Co260 Co 0.56352 0.47035 0.09612 0.0
Co261 Co 0.51351 0.51387 0.01809 0.0
O262 O 0.56379 0.49599 0.0266 0.0
H263 H 0.5919 0.51868 0.02409 0.0
O264 O 0.46288 0.53123 1.00964 0.0
Co265 Co 0.4628 0.57846 0.05411 0.0
Co266 Co 0.46338 0.56078 0.94578 0.0
H267 H 0.43495 0.50776 1.00858 0.0
O268 O 0.61591 0.47521 0.13218 0.0
O269 O 0.56999 0.42406 0.06617 0.0
O270 O 0.5113 0.45053 0.13715 0.0
O271 O 0.47168 0.46921 0.06999 0.0
O272 O 0.53988 0.55233 0.08855 0.0
O273 O 0.45837 0.6194 0.09721 0.0
O274 O 0.40371 0.55963 0.06103 0.0
O275 O 0.5249 0.60447 0.05539 0.0
O276 O 0.55548 0.55965 0.96647 0.0
O277 O 0.51504 0.58166 0.90523 0.0
O278 O 0.45475 0.60511 0.97954 0.0
O279 O 0.41205 0.55601 0.90875 0.0
C280 C 0.60261 0.42249 0.9526 0.0
C281 C 0.47755 0.43556 0.95205 0.0
C282 C 0.47436 0.44909 0.11582 0.0
C283 C 0.60554 0.43991 0.10264 0.0
C284 C 0.41687 0.59506 0.09214 0.0
C285 C 0.54889 0.59103 0.08758 0.0
C286 C 0.5522 0.58238 0.92387 0.0
C287 C 0.4219 0.59134 0.93827 0.0
O288 O 0.56086 0.3997 0.95185 0.0
O289 O 0.61833 0.46036 0.97685 0.0
O290 O 0.48711 0.47436 0.94825 0.0
O291 O 0.49865 0.42303 0.99047 0.0
Co292 Co 0.08979 0.4768 0.52837 0.0
Co293 Co 0.06201 0.48242 0.42357 0.0
Co294 Co 1.00936 0.51423 0.51556 0.0
O295 O 0.03475 0.47393 0.4919 0.0
H296 H 0.01264 0.44591 0.4887 0.0
O297 O 0.98461 0.55493 0.53967 0.0
Co298 Co 0.93173 0.5545 0.50173 0.0
Co299 Co 0.95378 0.5444 0.60419 0.0
H300 H 1.00698 0.58279 0.54382 0.0
O301 O 0.05951 0.43693 0.37921 0.0
O302 O 0.11238 0.47555 0.44996 0.0
O303 O 0.07681 0.53588 0.39477 0.0
O304 O 0.04196 0.5578 0.46 0.0
O305 O 0.95871 0.4855 0.45448 0.0
O306 O 0.88528 0.55908 0.46472 0.0
O307 O 0.95045 0.60975 0.49736 0.0
O308 O 0.90597 0.49559 0.49921 0.0
O309 O 0.97732 0.4707 0.57115 0.0
O310 O 0.93623 0.48966 0.62985 0.0
O311 O 0.90756 0.55827 0.57923 0.0
O312 O 0.96112 0.58821 0.65367 0.0
C313 C 0.11385 0.43425 0.5559 0.0
C314 C 0.09937 0.55699 0.56632 0.0
C315 C 0.0668 0.56417 0.41755 0.0
C316 C 0.09645 0.4444 0.41049 0.0
C317 C 0.91139 0.59825 0.46953 0.0
C318 C 0.91851 0.473 0.46631 0.0
C319 C 0.94981 0.46286 0.6104 0.0
C320 C 0.92596 0.58665 0.62254 0.0
O321 O 0.13813 0.47386 0.56254 0.0
O322 O 0.07382 0.42169 0.53079 0.0
O323 O 0.05908 0.54254 0.57719 0.0
O324 O 0.11355 0.53613 0.53271 0.0
Co325 Co 0.59059 0.97228 0.54003 0.0
Co326 Co 0.54801 0.9585 0.43613 0.0
Co327 Co 0.50673 1.00542 0.51642 0.0
O328 O 0.53212 0.96322 0.51085 0.0
H329 H 0.51159 0.93629 0.52054 0.0
O330 O 0.4821 0.04868 0.52265 0.0
Co331 Co 0.42788 0.04539 0.48372 0.0
Co332 Co 0.4573 0.04891 0.59266 0.0
H333 H 0.50476 0.07591 0.51914 0.0
O334 O 0.55328 0.91107 0.40811 0.0
O335 O 0.60619 0.9672 0.45732 0.0
O336 O 0.54428 0.99859 0.3822 0.0
O337 O 0.54186 0.04024 0.45618 0.0
O338 O 0.46039 0.97201 0.45444 0.0
O339 O 0.37997 0.04766 0.44753 0.0
O340 O 0.44385 0.10092 0.47797 0.0
O341 O 0.40407 0.98596 0.48175 0.0
O342 O 0.47068 0.96933 0.57505 0.0
O343 O 0.44349 1.00114 0.63755 0.0
O344 O 0.40476 0.04949 0.56151 0.0
O345 O 0.45702 0.09711 0.6248 0.0
C346 C 0.62035 0.9336 0.56748 0.0
C347 C 0.59356 0.05417 0.56778 0.0
C348 C 0.54644 0.03355 0.40238 0.0
C349 C 0.59435 0.93161 0.42709 0.0
C350 C 0.40364 0.08742 0.45325 0.0
C351 C 0.41937 0.96138 0.45831 0.0
C352 C 0.44988 0.9696 0.61958 0.0
C353 C 0.41824 0.08325 0.59634 0.0
O354 O 0.64301 0.97361 0.56832 0.0
O355 O 0.57884 0.91826 0.54829 0.0
O356 O 0.55332 0.03846 0.5784 0.0
O357 O 0.61008 0.03253 0.539 0.0
C358 C 0.12969 0.19039 0.36529 0.0
C359 C 0.16255 0.18041 0.34056 0.0
C360 C 0.09648 0.16151 0.39597 0.0
C361 C 0.09396 0.12075 0.40458 0.0
H362 H 0.12937 0.22098 0.36095 0.0
H363 H 0.07197 0.17128 0.41282 0.0
S364 S 0.16999 0.07697 0.34715 0.0
N365 N 0.18901 0.12513 0.32603 0.0
N366 N 0.12717 0.07172 0.38423 0.0
C367 C 0.12668 0.1102 0.38092 0.0
C368 C 0.16056 0.13962 0.34894 0.0
C369 C 0.86899 0.1765 0.46402 0.0
C370 C 0.8436 0.17149 0.40995 0.0
C371 C 0.89394 0.15264 0.47528 0.0
C372 C 0.89399 0.1224 0.43324 0.0
H373 H 0.86976 0.19913 0.49804 0.0
H374 H 0.913 0.15775 0.51747 0.0
S375 S 0.83289 0.09706 0.2845 0.0
N376 N 0.82018 0.13414 0.31382 0.0
N377 N 0.86654 0.0891 0.33487 0.0
C378 C 0.86868 0.11709 0.37892 0.0
C379 C 0.84369 0.1417 0.36728 0.0
C380 C 0.90105 0.84249 0.364 0.0
C381 C 0.8703 0.85476 0.33304 0.0
C382 C 0.93554 0.87075 0.40154 0.0
C383 C 0.94078 0.91244 0.40929 0.0
H384 H 0.89776 0.8105 0.36089 0.0
H385 H 0.95805 0.85963 0.42491 0.0
S386 S 0.87019 0.96081 0.33615 0.0
N387 N 0.8482 0.91174 0.31066 0.0
N388 N 0.91291 0.96503 0.38169 0.0
C389 C 0.91084 0.92545 0.37756 0.0
C390 C 0.87563 0.89657 0.33936 0.0
C391 C 0.13751 0.8657 0.34395 0.0
C392 C 0.18047 0.87306 0.367 0.0
C393 C 0.11368 0.88648 0.36858 0.0
C394 C 0.13208 0.91592 0.41663 0.0
H395 H 0.12133 0.84231 0.30834 0.0
H396 H 0.08002 0.87856 0.35066 0.0
S397 S 0.24554 0.9504 0.48811 0.0
N398 N 0.24211 0.91442 0.43713 0.0
N399 N 0.19717 0.95405 0.48309 0.0
C400 C 0.17595 0.92549 0.43787 0.0
C401 C 0.20015 0.90382 0.41323 0.0
C402 C 0.13244 0.84123 0.60614 0.0
C403 C 0.16785 0.85372 0.65027 0.0
C404 C 0.1121 0.86823 0.58886 0.0
C405 C 0.12661 0.90897 0.61463 0.0
H406 H 0.11975 0.81006 0.58546 0.0
H407 H 0.08434 0.85676 0.55575 0.0
S408 S 0.22207 0.95857 0.72668 0.0
N409 N 0.21891 0.91065 0.71568 0.0
N410 N 0.18156 0.96144 0.68309 0.0
C411 C 0.16331 0.92232 0.65704 0.0
C412 C 0.18363 0.89472 0.67494 0.0
C413 C 0.16308 0.14265 0.66235 0.0
C414 C 0.16306 0.17743 0.69499 0.0
C415 C 0.12511 0.11538 0.62942 0.0
C416 C 0.08609 0.12232 0.62733 0.0
H417 H 0.19295 0.13706 0.66066 0.0
H418 H 0.12665 0.08934 0.60411 0.0
S419 S 0.06658 0.20462 0.71186 0.0
N420 N 0.11895 0.21387 0.72939 0.0
N421 N 0.04802 0.16369 0.66446 0.0
C422 C 0.08499 0.15595 0.66116 0.0
C423 C 0.1234 0.18323 0.69588 0.0
C424 C 0.87964 0.15453 0.71095 0.0
C425 C 0.83417 0.14042 0.69568 0.0
C426 C 0.90559 0.13824 0.68152 0.0
C427 C 0.8873 0.10726 0.63522 0.0
H428 H 0.89562 0.17907 0.74517 0.0
H429 H 0.94063 0.15082 0.6946 0.0
S430 S 0.76967 0.05921 0.57819 0.0
N431 N 0.77148 0.09287 0.63171 0.0
N432 N 0.82069 0.06247 0.57609 0.0
C433 C 0.84164 0.09185 0.62047 0.0
C434 C 0.81499 0.1084 0.65074 0.0
C435 C 0.86417 0.89582 0.6884 0.0
C436 C 0.86013 0.854 0.69164 0.0
C437 C 0.89851 0.92598 0.65998 0.0
C438 C 0.93059 0.91583 0.63337 0.0
H439 H 0.84105 0.90569 0.70903 0.0
H440 H 0.90082 0.95772 0.66079 0.0
S441 S 0.93277 0.8105 0.62193 0.0
N442 N 0.88999 0.80423 0.65951 0.0
N443 N 0.95378 0.86013 0.60806 0.0
C444 C 0.92589 0.87399 0.63419 0.0
C445 C 0.89106 0.84342 0.6626 0.0
C446 C 0.39538 0.20489 0.12213 0.0
C447 C 0.35677 0.18459 0.15005 0.0
C448 C 0.41823 0.18285 0.09822 0.0
C449 C 0.40351 0.13953 0.10133 0.0
H450 H 0.4092 0.23846 0.12089 0.0
H451 H 0.44855 0.20025 0.07885 0.0
S452 S 0.30171 0.07098 0.16463 0.0
N453 N 0.30271 0.11824 0.17545 0.0
N454 N 0.34574 0.07652 0.13006 0.0
C455 C 0.36328 0.11834 0.12549 0.0
C456 C 0.33986 0.14095 0.14998 0.0
C457 C 0.91916 0.43795 0.22548 0.0
C458 C 0.87758 0.41791 0.19468 0.0
C459 C 0.95626 0.45825 0.19509 0.0
C460 C 0.95218 0.45942 0.13344 0.0
H461 H 0.9233 0.43631 0.27266 0.0
H462 H 0.98823 0.47248 0.21976 0.0
S463 S 0.84858 0.41327 0.03417 0.0
N464 N 0.83336 0.40177 0.10095 0.0
N465 N 0.90229 0.43993 0.04322 0.0
C466 C 0.90998 0.44075 0.10278 0.0
C467 C 0.87277 0.41995 0.13366 0.0
C468 C 0.63001 0.8466 0.11648 0.0
C469 C 0.67336 0.86062 0.14302 0.0
C470 C 0.61217 0.87465 0.09686 0.0
C471 C 0.63693 0.91773 0.10374 0.0
H472 H 0.60882 0.81383 0.11384 0.0
H473 H 0.57787 0.86246 0.07978 0.0
S474 S 0.75479 0.96989 0.15928 0.0
N475 N 0.74276 0.91998 0.16673 0.0
N476 N 0.70914 0.9728 0.12996 0.0
C477 C 0.68162 0.93194 0.1248 0.0
C478 C 0.69992 0.90332 0.14436 0.0
C479 C 0.13793 0.7099 0.0948 0.0
C480 C 0.1709 0.70089 0.1263 0.0
C481 C 0.1037 0.67905 0.05954 0.0
C482 C 0.10078 0.63783 0.05495 0.0
H483 H 0.13787 0.7408 0.09854 0.0
H484 H 0.0784 0.68734 0.03769 0.0
S485 S 0.18035 0.59843 0.12534 0.0
N486 N 0.19956 0.64797 0.14818 0.0
N487 N 0.13556 0.59028 0.08164 0.0
C488 C 0.13459 0.62878 0.08411 0.0
C489 C 0.16955 0.66021 0.11982 0.0
C490 C 0.35827 0.88583 0.88561 0.0
C491 C 0.35403 0.84438 0.87633 0.0
C492 C 0.39634 0.91623 0.91619 0.0
C493 C 0.43157 0.90635 0.93911 0.0
H494 H 0.33259 0.8952 0.86777 0.0
H495 H 0.39827 0.94778 0.92145 0.0
S496 S 0.43729 0.80254 0.92724 0.0
N497 N 0.38895 0.79539 0.89367 0.0
N498 N 0.45942 0.85196 0.95038 0.0
C499 C 0.42733 0.86491 0.93108 0.0
C500 C 0.38893 0.83416 0.89997 0.0
C501 C 0.20175 0.41273 0.88221 0.0
C502 C 0.18785 0.37045 0.86406 0.0
C503 C 0.17339 0.42791 0.90797 0.0
C504 C 0.1299 0.40147 0.91651 0.0
H505 H 0.23445 0.43468 0.87498 0.0
H506 H 0.18543 0.46093 0.91965 0.0
S507 S 0.07871 0.28722 0.88289 0.0
N508 N 0.12872 0.30161 0.86096 0.0
N509 N 0.07542 0.33017 0.90957 0.0
C510 C 0.11621 0.3587 0.90147 0.0
C511 C 0.14519 0.34318 0.87525 0.0
C512 C 0.63612 0.1521 0.87475 0.0
C513 C 0.61922 0.17604 0.8402 0.0
C514 C 0.60801 0.11512 0.897 0.0
C515 C 0.56204 0.10042 0.88479 0.0
H516 H 0.67128 0.1622 0.88539 0.0
H517 H 0.62233 0.09833 0.92494 0.0
S518 S 0.50089 0.15207 0.7978 0.0
N519 N 0.55324 0.18279 0.79613 0.0
N520 N 0.5008 0.11296 0.8364 0.0
C521 C 0.54473 0.12368 0.84942 0.0
C522 C 0.57322 0.16162 0.82765 0.0
C523 C 0.89374 0.68999 0.88194 0.0
C524 C 0.8492 0.67584 0.89397 0.0
C525 C 0.91697 0.66403 0.88651 0.0
C526 C 0.89617 0.62278 0.90191 0.0
H527 H 0.91031 0.72073 0.86641 0.0
H528 H 0.95076 0.67567 0.87521 0.0
S529 S 0.78304 0.5724 0.94744 0.0
N530 N 0.78744 0.61927 0.93023 0.0
N531 N 0.83087 0.5703 0.9361 0.0
C532 C 0.85279 0.60895 0.91751 0.0
C533 C 0.82942 0.63562 0.91448 0.0
C534 C 0.19604 0.40353 0.12277 0.0
C535 C 0.1722 0.36055 0.12616 0.0
C536 C 0.17496 0.42991 0.10653 0.0
C537 C 0.12922 0.41436 0.09177 0.0
H538 H 0.23116 0.4173 0.13516 0.0
H539 H 0.19473 0.4629 0.10624 0.0
S540 S 0.05245 0.30338 0.08756 0.0
N541 N 0.10086 0.30314 0.11022 0.0
N542 N 0.06114 0.3524 0.07733 0.0
C543 C 0.10523 0.37105 0.09207 0.0
C544 C 0.1267 0.34427 0.11004 0.0
C545 C 0.14938 0.59114 0.81249 0.0
C546 C 0.16328 0.63439 0.80977 0.0
C547 C 0.10674 0.56688 0.82583 0.0
C548 C 0.07644 0.585 0.8348 0.0
H549 H 0.17218 0.57621 0.8071 0.0
H550 H 0.098 0.5341 0.83188 0.0
S551 S 0.09518 0.69613 0.8265 0.0
N552 N 0.14273 0.69401 0.81332 0.0
N553 N 0.06179 0.64787 0.83631 0.0
C554 C 0.08893 0.6277 0.82823 0.0
C555 C 0.13272 0.65263 0.81638 0.0
C556 C 0.41376 0.18679 0.89354 0.0
C557 C 0.3687 0.17343 0.87491 0.0
C558 C 0.43053 0.15992 0.92018 0.0
C559 C 0.4029 0.11859 0.92837 0.0
H560 H 0.43662 0.21777 0.88544 0.0
H561 H 0.46574 0.17102 0.93139 0.0
S562 S 0.28151 0.07009 0.89543 0.0
N563 N 0.29598 0.11755 0.87269 0.0
N564 N 0.3276 0.06698 0.92251 0.0
C565 C 0.35735 0.1057 0.91383 0.0
C566 C 0.34019 0.13318 0.88719 0.0
C567 C 0.85487 0.37259 0.8657 0.0
C568 C 0.84827 0.33038 0.8686 0.0
C569 C 0.89388 0.40457 0.88992 0.0
C570 C 0.92798 0.39583 0.91864 0.0
H571 H 0.82989 0.38127 0.84378 0.0
H572 H 0.89724 0.43642 0.88597 0.0
S573 S 0.92733 0.29054 0.93931 0.0
N574 N 0.87924 0.28165 0.90325 0.0
N575 N 0.95239 0.34155 0.9492 0.0
C576 C 0.92161 0.35372 0.92285 0.0
C577 C 0.88186 0.3211 0.89785 0.0
C578 C 0.69791 0.8962 0.93125 0.0
C579 C 0.67816 0.85929 0.89517 0.0
C580 C 0.67307 0.91886 0.9482 0.0
C581 C 0.62796 0.90531 0.92909 0.0
H582 H 0.73229 0.907 0.94748 0.0
H583 H 0.68888 0.94629 0.97787 0.0
S584 S 0.56312 0.81344 0.82749 0.0
N585 N 0.61255 0.81235 0.83665 0.0
N586 N 0.56604 0.85455 0.86778 0.0
C587 C 0.6087 0.86935 0.89091 0.0
C588 C 0.63378 0.84644 0.8741 0.0
C589 C 0.83617 0.62203 0.11738 0.0
C590 C 0.84906 0.66502 0.13009 0.0
C591 C 0.86275 0.60643 0.08774 0.0
C592 C 0.90344 0.63312 0.06966 0.0
H593 H 0.80579 0.59993 0.13186 0.0
H594 H 0.85178 0.57304 0.08055 0.0
S595 S 0.94976 0.74854 0.08469 0.0
N596 N 0.90342 0.73429 0.11698 0.0
N597 N 0.95328 0.70499 0.06109 0.0
C598 C 0.91568 0.6763 0.07912 0.0
C599 C 0.88852 0.69223 0.10926 0.0
C600 C 0.41983 0.85959 0.17726 0.0
C601 C 0.37782 0.86087 0.16773 0.0
C602 C 0.45824 0.89479 0.17221 0.0
C603 C 0.45609 0.93259 0.1573 0.0
H604 H 0.42321 0.83085 0.18721 0.0
H605 H 0.48956 0.89157 0.17623 0.0
S606 S 0.35518 0.9544 0.13594 0.0
N607 N 0.33691 0.90453 0.14857 0.0
N608 N 0.40932 0.97072 0.13917 0.0
C609 C 0.41462 0.93507 0.15118 0.0
C610 C 0.37543 0.8992 0.15613 0.0
C611 C 0.66438 0.15759 0.19222 0.0
C612 C 0.68541 0.19608 0.16753 0.0
C613 C 0.62547 0.12674 0.16444 0.0
C614 C 0.60578 0.13323 0.11089 0.0
H615 H 0.67736 0.15173 0.23422 0.0
H616 H 0.60985 0.09821 0.18622 0.0
S617 S 0.65078 0.22565 0.02268 0.0
N618 N 0.68568 0.23662 0.08212 0.0
N619 N 0.61286 0.17911 0.03095 0.0
C620 C 0.62768 0.17052 0.08403 0.0
C621 C 0.66741 0.20171 0.11191 0.0
C622 C 0.6652 0.63849 0.85886 0.0
C623 C 0.66313 0.67598 0.83933 0.0
C624 C 0.63066 0.60881 0.88783 0.0
C625 C 0.59184 0.61474 0.89816 0.0
H626 H 0.69388 0.63186 0.85182 0.0
H627 H 0.63401 0.58063 0.90092 0.0
S628 S 0.56961 0.70769 0.85837 0.0
N629 N 0.61814 0.71664 0.83428 0.0
N630 N 0.55488 0.6625 0.88835 0.0
C631 C 0.58979 0.65233 0.8796 0.0
C632 C 0.6247 0.6823 0.85043 0.0
C633 C 0.34984 0.63149 0.8445 0.0
C634 C 0.3509 0.66594 0.87856 0.0
C635 C 0.37248 0.60749 0.86485 0.0
C636 C 0.39803 0.61755 0.91951 0.0
H637 H 0.33088 0.62258 0.80202 0.0
H638 H 0.37024 0.58108 0.83681 0.0
S639 S 0.41251 0.70587 0.02475 0.0
N640 N 0.37876 0.70889 0.96999 0.0
N641 N 0.42412 0.66553 1.00641 0.0
C642 C 0.40003 0.65251 0.95359 0.0
C643 C 0.37566 0.67618 0.93366 0.0
C644 C 0.38629 0.39118 0.82843 0.0
C645 C 0.37099 0.34815 0.83461 0.0
C646 C 0.42099 0.41914 0.86629 0.0
C647 C 0.44151 0.40512 0.91209 0.0
H648 H 0.37108 0.40341 0.79433 0.0
H649 H 0.43151 0.45203 0.85973 0.0
S650 S 0.41171 0.29533 0.94912 0.0
N651 N 0.37752 0.29285 0.89154 0.0
N652 N 0.44314 0.34513 0.96217 0.0
C653 C 0.42648 0.36205 0.91871 0.0
C654 C 0.39115 0.33364 0.8801 0.0
C655 C 0.65714 0.34666 0.93439 0.0
C656 C 0.6731 0.35406 0.87831 0.0
C657 C 0.63599 0.37026 0.95906 0.0
C658 C 0.63137 0.40322 0.92972 0.0
H659 H 0.65963 0.32142 0.95873 0.0
H660 H 0.62229 0.36206 1.00094 0.0
S661 S 0.66952 0.43737 0.7839 0.0
N662 N 0.68384 0.39771 0.79499 0.0
N663 N 0.64531 0.44303 0.84269 0.0
C664 C 0.64838 0.41203 0.8747 0.0
C665 C 0.66898 0.38724 0.84869 0.0
C666 C 0.64844 0.36503 0.17093 0.0
C667 C 0.69042 0.37742 0.15023 0.0
C668 C 0.61992 0.38412 0.15274 0.0
C669 C 0.63316 0.41667 0.1146 0.0
H670 H 0.63753 0.3403 0.20096 0.0
H671 H 0.58793 0.37427 0.16992 0.0
S672 S 0.74009 0.46128 0.04965 0.0
N673 N 0.74358 0.4237 0.08913 0.0
N674 N 0.69097 0.46137 0.05814 0.0
C675 C 0.67511 0.42959 0.09416 0.0
C676 C 0.70352 0.40935 0.11106 0.0
C677 C 0.62731 0.69042 0.17005 0.0
C678 C 0.66257 0.68034 0.19173 0.0
C679 C 0.59076 0.66131 0.1366 0.0
C680 C 0.58763 0.62069 0.12404 0.0
H681 H 0.62822 0.72136 0.1775 0.0
H682 H 0.56482 0.67088 0.12036 0.0
S683 S 0.66954 0.57736 0.17339 0.0
N684 N 0.69096 0.62602 0.20054 0.0
N685 N 0.62211 0.57112 0.1376 0.0
C686 C 0.6219 0.6096 0.1469 0.0
C687 C 0.65936 0.63943 0.18076 0.0
C688 C 0.37443 0.65706 0.19196 0.0
C689 C 0.33574 0.65501 0.15986 0.0
C690 C 0.39917 0.63556 0.17117 0.0
C691 C 0.38561 0.61022 0.11837 0.0
H692 H 0.38718 0.67738 0.23156 0.0
H693 H 0.43007 0.63998 0.19564 0.0
S694 S 0.28472 0.59125 0.02048 0.0
N695 N 0.28374 0.62368 0.07399 0.0
N696 N 0.32943 0.5821 0.03656 0.0
C697 C 0.3455 0.60562 0.08793 0.0
C698 C 0.32085 0.62838 0.1082 0.0
C699 C 0.39948 0.35558 0.19598 0.0
C700 C 0.35963 0.3611 0.19948 0.0
C701 C 0.43542 0.38394 0.16894 0.0
C702 C 0.43389 0.41952 0.1427 0.0
H703 H 0.4033 0.32898 0.21455 0.0
H704 H 0.46484 0.37747 0.16816 0.0
S705 S 0.33871 0.45063 0.14074 0.0
N706 N 0.32221 0.40714 0.1756 0.0
N707 N 0.38896 0.45908 0.1232 0.0
C708 C 0.39446 0.42574 0.14557 0.0
C709 C 0.35785 0.39714 0.17434 0.0
C710 C 0.84236 0.63405 0.6507 0.0
C711 C 0.86889 0.67276 0.67997 0.0
C712 C 0.86092 0.60671 0.62993 0.0
C713 C 0.90655 0.61685 0.63866 0.0
H714 H 0.80695 0.62442 0.64477 0.0
H715 H 0.83926 0.57689 0.60884 0.0
S716 S 0.99109 0.71571 0.70749 0.0
N717 N 0.94392 0.72074 0.71233 0.0
N718 N 0.97805 0.66947 0.67425 0.0
C719 C 0.93347 0.656 0.66575 0.0
C720 C 0.91486 0.6839 0.68616 0.0
C721 C 0.40654 0.86377 0.68053 0.0
C722 C 0.36308 0.847 0.65374 0.0
C723 C 0.43512 0.9043 0.67045 0.0
C724 C 0.42018 0.92903 0.63512 0.0
H725 H 0.41771 0.84655 0.71188 0.0
H726 H 0.46843 0.91668 0.69139 0.0
S727 S 0.3122 0.89736 0.54842 0.0
N728 N 0.30924 0.85593 0.58343 0.0
N729 N 0.36151 0.9332 0.56904 0.0
C730 C 0.37785 0.91186 0.60589 0.0
C731 C 0.3497 0.87037 0.61381 0.0
C732 C 0.19524 0.392 0.62144 0.0
C733 C 0.16867 0.35022 0.62879 0.0
C734 C 0.17737 0.41849 0.59599 0.0
C735 C 0.13229 0.4042 0.57664 0.0
H736 H 0.22966 0.40497 0.63802 0.0
H737 H 0.19898 0.45076 0.59313 0.0
S738 S 0.04986 0.2959 0.57882 0.0
N739 N 0.09598 0.29457 0.60923 0.0
N740 N 0.06236 0.34444 0.56168 0.0
C741 C 0.10594 0.36182 0.58033 0.0
C742 C 0.12414 0.33483 0.60635 0.0
C743 C 0.69398 0.15336 0.61358 0.0
C744 C 0.67631 0.17864 0.64293 0.0
C745 C 0.66701 0.11403 0.58734 0.0
C746 C 0.62109 0.09803 0.58964 0.0
H747 H 0.72933 0.16324 0.61343 0.0
H748 H 0.68259 0.09538 0.5675 0.0
S749 S 0.55805 0.1546 0.65362 0.0
N750 N 0.60998 0.18702 0.66667 0.0
N751 N 0.55883 0.11305 0.61831 0.0
C752 C 0.60278 0.12434 0.61523 0.0
C753 C 0.63044 0.16467 0.64139 0.0
C754 C 0.86463 0.37358 0.36687 0.0
C755 C 0.8231 0.35421 0.38828 0.0
C756 C 0.89545 0.4117 0.39273 0.0
C757 C 0.88573 0.43204 0.44069 0.0
H758 H 0.87367 0.35878 0.3305 0.0
H759 H 0.92716 0.42528 0.37503 0.0
S760 S 0.78281 0.3913 0.51677 0.0
N761 N 0.77495 0.35597 0.46273 0.0
N762 N 0.83212 0.4278 0.511 0.0
C763 C 0.84447 0.41221 0.46329 0.0
C764 C 0.81342 0.37321 0.43729 0.0
C765 C 0.64152 0.8547 0.37571 0.0
C766 C 0.6862 0.87967 0.37152 0.0
C767 C 0.6126 0.87163 0.39576 0.0
C768 C 0.62714 0.91418 0.41299 0.0
H769 H 0.62816 0.82212 0.36088 0.0
H770 H 0.57822 0.85125 0.39629 0.0
S771 S 0.74208 0.99222 0.41706 0.0
N772 N 0.74453 0.94861 0.39144 0.0
N773 N 0.69004 0.98032 0.42906 0.0
C774 C 0.67225 0.93907 0.41249 0.0
C775 C 0.70178 0.92185 0.39176 0.0
C776 C 0.14132 0.65453 0.33657 0.0
C777 C 0.13817 0.68917 0.36523 0.0
C778 C 0.11695 0.61429 0.35258 0.0
C779 C 0.08888 0.60709 0.39849 0.0
H780 H 0.16192 0.65844 0.3004 0.0
H781 H 0.12053 0.58867 0.32883 0.0
S782 S 0.07209 0.68854 0.49018 0.0
N783 N 0.10648 0.71459 0.44256 0.0
N784 N 0.06134 0.63903 0.47422 0.0
C785 C 0.0861 0.64186 0.42815 0.0
C786 C 0.1106 0.68285 0.41116 0.0
C787 C 0.38803 0.17841 0.38267 0.0
C788 C 0.34211 0.16622 0.38102 0.0
C789 C 0.40855 0.15395 0.40906 0.0
C790 C 0.38359 0.11649 0.43379 0.0
H791 H 0.40777 0.20543 0.36033 0.0
H792 H 0.44362 0.16317 0.40705 0.0
S793 S 0.26371 0.07577 0.45079 0.0
N794 N 0.27357 0.11808 0.41435 0.0
N795 N 0.31164 0.07179 0.46223 0.0
C796 C 0.33825 0.10593 0.43625 0.0
C797 C 0.31764 0.13092 0.41028 0.0
C798 C 0.63673 0.84268 0.63616 0.0
C799 C 0.68163 0.85181 0.63122 0.0
C800 C 0.61687 0.86869 0.61376 0.0
C801 C 0.6415 0.90542 0.58723 0.0
H802 H 0.61696 0.81563 0.65842 0.0
H803 H 0.58232 0.86072 0.61918 0.0
S804 S 0.75979 0.94284 0.56157 0.0
N805 N 0.74971 0.89938 0.59523 0.0
N806 N 0.71264 0.9488 0.55523 0.0
C807 C 0.68616 0.91453 0.58101 0.0
C808 C 0.70615 0.88754 0.60239 0.0
C809 C 0.63862 0.11375 0.33834 0.0
C810 C 0.63162 0.14973 0.35388 0.0
C811 C 0.60684 0.07448 0.34542 0.0
C812 C 0.56791 0.07037 0.37017 0.0
H813 H 0.66999 0.116 0.32406 0.0
H814 H 0.6151 0.04775 0.33799 0.0
S815 S 0.53127 0.15476 0.4082 0.0
N816 N 0.58087 0.179 0.38593 0.0
N817 N 0.521 0.1046 0.40179 0.0
C818 C 0.55863 0.10587 0.37996 0.0
C819 C 0.59076 0.14592 0.37145 0.0
C820 C 0.83907 0.64172 0.38276 0.0
C821 C 0.86822 0.68236 0.3737 0.0
C822 C 0.853 0.61543 0.41589 0.0
C823 C 0.89657 0.62879 0.44165 0.0
H824 H 0.80568 0.6294 0.36211 0.0
H825 H 0.82959 0.58393 0.41976 0.0
S826 S 0.98405 0.73456 0.43811 0.0
N827 N 0.94138 0.73635 0.39809 0.0
N828 N 0.96754 0.68692 0.46075 0.0
C829 C 0.92532 0.67026 0.43606 0.0
C830 C 0.91116 0.69702 0.40191 0.0
C831 C 0.32454 0.88419 0.36062 0.0
C832 C 0.33281 0.84749 0.36071 0.0
C833 C 0.35135 0.92005 0.39481 0.0
C834 C 0.38871 0.92144 0.42898 0.0
H835 H 0.29753 0.88584 0.3327 0.0
H836 H 0.34387 0.9475 0.39224 0.0
S837 S 0.4253 0.83453 0.44699 0.0
N838 N 0.38053 0.81472 0.40065 0.0
N839 N 0.43234 0.88315 0.46326 0.0
C840 C 0.3974 0.88515 0.43058 0.0
C841 C 0.36919 0.84797 0.39683 0.0
C842 C 0.18244 0.4039 0.3703 0.0
C843 C 0.15814 0.36053 0.36588 0.0
C844 C 0.16327 0.43133 0.38838 0.0
C845 C 0.11916 0.41615 0.40177 0.0
H846 H 0.21557 0.41687 0.35665 0.0
H847 H 0.18215 0.46452 0.38848 0.0
S848 S 0.04425 0.30579 0.40846 0.0
N849 N 0.08981 0.30403 0.38568 0.0
N850 N 0.05373 0.35562 0.4173 0.0
C851 C 0.09573 0.37309 0.40181 0.0
C852 C 0.11528 0.34524 0.38455 0.0
C853 C 0.38269 0.16924 0.64205 0.0
C854 C 0.33728 0.14802 0.64641 0.0
C855 C 0.4082 0.14825 0.62287 0.0
C856 C 0.38923 0.1054 0.60666 0.0
H857 H 0.39924 0.20174 0.65683 0.0
H858 H 0.44342 0.16546 0.62282 0.0
S859 S 0.27095 0.03651 0.60332 0.0
N860 N 0.27361 0.08248 0.62727 0.0
N861 N 0.32186 0.04313 0.59156 0.0
C862 C 0.34345 0.0844 0.60672 0.0
C863 C 0.3174 0.10571 0.62651 0.0
C864 C 0.87956 0.37124 0.69247 0.0
C865 C 0.884 0.3372 0.66361 0.0
C866 C 0.90217 0.41175 0.67624 0.0
C867 C 0.92999 0.41996 0.63015 0.0
H868 H 0.85851 0.36669 0.72821 0.0
H869 H 0.89722 0.43673 0.69973 0.0
S870 S 0.95239 0.34115 0.53995 0.0
N871 N 0.91822 0.31393 0.58698 0.0
N872 N 0.96052 0.39008 0.55563 0.0
C873 C 0.93509 0.38608 0.60123 0.0
C874 C 0.91215 0.34472 0.61814 0.0
C875 C 0.20596 0.64777 0.62186 0.0
C876 C 0.19126 0.67537 0.6511 0.0
C877 C 0.17614 0.61001 0.59388 0.0
C878 C 0.1303 0.59793 0.59447 0.0
H879 H 0.24085 0.65498 0.62131 0.0
H880 H 0.18928 0.58977 0.57267 0.0
S881 S 0.07451 0.66019 0.6614 0.0
N882 N 0.12747 0.68908 0.67517 0.0
N883 N 0.07176 0.61767 0.62511 0.0
C884 C 0.11516 0.62563 0.62253 0.0
C885 C 0.14548 0.66441 0.65003 0.0
loop_
_geom_bond_atom_site_label_1
_geom_bond_atom_site_label_2
_geom_bond_distance
_geom_bond_site_symmetry_2
_ccdc_geom_bond_type
Zn0 O6 1.969 . S
Zn0 O7 1.965 . S
Zn0 O11 2.024 . S
Zn0 O16 1.969 . S
Zn1 O8 1.969 . S
Zn1 O14 1.969 . S
Zn1 O15 1.965 . S
Zn1 O17 2.024 . S
C2 O3 1.229 . S
C2 O11 1.058 . S
O3 C2 1.229 . S
C4 O5 1.229 . S
C4 O17 1.058 . S
O5 C4 1.229 . S
O6 Zn0 1.969 . S
O6 C9 1.267 . S
O7 Zn0 1.965 . S
O7 C18 1.260 . S
O8 Zn1 1.969 . S
O8 C18 1.258 . S
C9 O6 1.267 . S
C9 O10 1.228 . S
O10 C9 1.228 . S
O11 Zn0 2.024 . S
O11 C2 1.058 . S
C12 O13 1.228 . S
C12 O14 1.267 . S
O13 C12 1.228 . S
O14 Zn1 1.969 . S
O14 C12 1.267 . S
O15 Zn1 1.965 . S
O15 C19 1.260 . S
O16 Zn0 1.969 . S
O16 C19 1.258 . S
O17 Zn1 2.024 . S
O17 C4 1.058 . S
C18 O7 1.260 . S
C18 O8 1.258 . S
C19 O15 1.260 . S
C19 O16 1.258 . S
Zn20 O26 1.969 . S
Zn20 O27 1.965 . S
Zn20 O31 2.024 . S
Zn20 O36 1.969 . S
Zn21 O28 1.969 . S
Zn21 O34 1.969 . S
Zn21 O35 1.965 . S
Zn21 O37 2.024 . S
C22 O23 1.229 . S
C22 O31 1.058 . S
O23 C22 1.229 . S
C24 O25 1.229 . S
C24 O37 1.058 . S
O25 C24 1.229 . S
O26 Zn20 1.969 . S
O26 C29 1.267 . S
O27 Zn20 1.965 . S
O27 C38 1.260 . S
O28 Zn21 1.969 . S
O28 C38 1.258 . S
C29 O26 1.267 . S
C29 O30 1.228 . S
O30 C29 1.228 . S
O31 Zn20 2.024 . S
O31 C22 1.058 . S
C32 O33 1.228 . S
C32 O34 1.267 . S
O33 C32 1.228 . S
O34 Zn21 1.969 . S
O34 C32 1.267 . S
O35 Zn21 1.965 . S
O35 C39 1.260 . S
O36 Zn20 1.969 . S
O36 C39 1.258 . S
O37 Zn21 2.024 . S
O37 C24 1.058 . S
C38 O27 1.260 . S
C38 O28 1.258 . S
C39 O35 1.260 . S
C39 O36 1.258 . S
Zn40 O46 1.969 . S
Zn40 O47 1.965 . S
Zn40 O51 2.024 . S
Zn40 O56 1.969 . S
Zn41 O48 1.969 . S
Zn41 O54 1.969 . S
Zn41 O55 1.965 . S
Zn41 O57 2.024 . S
C42 O43 1.229 . S
C42 O51 1.058 . S
O43 C42 1.229 . S
C44 O45 1.229 . S
C44 O57 1.058 . S
O45 C44 1.229 . S
O46 Zn40 1.969 . S
O46 C49 1.267 . S
O47 Zn40 1.965 . S
O47 C58 1.260 . S
O48 Zn41 1.969 . S
O48 C58 1.258 . S
C49 O46 1.267 . S
C49 O50 1.228 . S
O50 C49 1.228 . S
O51 Zn40 2.024 . S
O51 C42 1.058 . S
C52 O53 1.228 . S
C52 O54 1.267 . S
O53 C52 1.228 . S
O54 Zn41 1.969 . S
O54 C52 1.267 . S
O55 Zn41 1.965 . S
O55 C59 1.260 . S
O56 Zn40 1.969 . S
O56 C59 1.258 . S
O57 Zn41 2.024 . S
O57 C44 1.058 . S
C58 O47 1.260 . S
C58 O48 1.258 . S
C59 O55 1.260 . S
C59 O56 1.258 . S
Zn60 O66 1.969 . S
Zn60 O67 1.965 . S
Zn60 O71 2.024 . S
Zn60 O76 1.969 . S
Zn61 O68 1.969 . S
Zn61 O74 1.969 . S
Zn61 O75 1.965 . S
Zn61 O77 2.024 . S
C62 O63 1.229 . S
C62 O71 1.058 . S
O63 C62 1.229 . S
C64 O65 1.229 . S
C64 O77 1.058 . S
O65 C64 1.229 . S
O66 Zn60 1.969 . S
O66 C69 1.267 . S
O67 Zn60 1.965 . S
O67 C78 1.260 . S
O68 Zn61 1.969 . S
O68 C78 1.258 . S
C69 O66 1.267 . S
C69 O70 1.228 . S
O70 C69 1.228 . S
O71 Zn60 2.024 . S
O71 C62 1.058 . S
C72 O73 1.228 . S
C72 O74 1.267 . S
O73 C72 1.228 . S
O74 Zn61 1.969 . S
O74 C72 1.267 . S
O75 Zn61 1.965 . S
O75 C79 1.260 . S
O76 Zn60 1.969 . S
O76 C79 1.258 . S
O77 Zn61 2.024 . S
O77 C64 1.058 . S
C78 O67 1.260 . S
C78 O68 1.258 . S
C79 O75 1.260 . S
C79 O76 1.258 . S
Zn80 O86 1.969 . S
Zn80 O87 1.965 . S
Zn80 O91 2.024 . S
Zn80 O96 1.969 . S
Zn81 O88 1.969 . S
Zn81 O94 1.969 . S
Zn81 O95 1.965 . S
Zn81 O97 2.024 . S
C82 O83 1.229 . S
C82 O91 1.058 . S
O83 C82 1.229 . S
C84 O85 1.229 . S
C84 O97 1.058 . S
O85 C84 1.229 . S
O86 Zn80 1.969 . S
O86 C89 1.267 . S
O87 Zn80 1.965 . S
O87 C98 1.260 . S
O88 Zn81 1.969 . S
O88 C98 1.258 . S
C89 O86 1.267 . S
C89 O90 1.228 . S
O90 C89 1.228 . S
O91 Zn80 2.024 . S
O91 C82 1.058 . S
C92 O93 1.228 . S
C92 O94 1.267 . S
O93 C92 1.228 . S
O94 Zn81 1.969 . S
O94 C92 1.267 . S
O95 Zn81 1.965 . S
O95 C99 1.260 . S
O96 Zn80 1.969 . S
O96 C99 1.258 . S
O97 Zn81 2.024 . S
O97 C84 1.058 . S
C98 O87 1.260 . S
C98 O88 1.258 . S
C99 O95 1.260 . S
C99 O96 1.258 . S
Zn100 O106 1.969 . S
Zn100 O107 1.965 . S
Zn100 O111 2.024 . S
Zn100 O116 1.969 . S
Zn101 O108 1.969 . S
Zn101 O114 1.969 . S
Zn101 O115 1.965 . S
Zn101 O117 2.024 . S
C102 O103 1.229 . S
C102 O111 1.058 . S
O103 C102 1.229 . S
C104 O105 1.229 . S
C104 O117 1.058 . S
O105 C104 1.229 . S
O106 Zn100 1.969 . S
O106 C109 1.267 . S
O107 Zn100 1.965 . S
O107 C118 1.260 . S
O108 Zn101 1.969 . S
O108 C118 1.258 . S
C109 O106 1.267 . S
C109 O110 1.228 . S
O110 C109 1.228 . S
O111 Zn100 2.024 . S
O111 C102 1.058 . S
C112 O113 1.228 . S
C112 O114 1.267 . S
O113 C112 1.228 . S
O114 Zn101 1.969 . S
O114 C112 1.267 . S
O115 Zn101 1.965 . S
O115 C119 1.260 . S
O116 Zn100 1.969 . S
O116 C119 1.258 . S
O117 Zn101 2.024 . S
O117 C104 1.058 . S
C118 O107 1.260 . S
C118 O108 1.258 . S
C119 O115 1.260 . S
C119 O116 1.258 . S
Zn120 O126 1.969 . S
Zn120 O127 1.965 . S
Zn120 O131 2.024 . S
Zn120 O136 1.969 . S
Zn121 O128 1.969 . S
Zn121 O134 1.969 . S
Zn121 O135 1.965 . S
Zn121 O137 2.024 . S
C122 O123 1.229 . S
C122 O131 1.058 . S
O123 C122 1.229 . S
C124 O125 1.229 . S
C124 O137 1.058 . S
O125 C124 1.229 . S
O126 Zn120 1.969 . S
O126 C129 1.267 . S
O127 Zn120 1.965 . S
O127 C138 1.260 . S
O128 Zn121 1.969 . S
O128 C138 1.258 . S
C129 O126 1.267 . S
C129 O130 1.228 . S
O130 C129 1.228 . S
O131 Zn120 2.024 . S
O131 C122 1.058 . S
C132 O133 1.228 . S
C132 O134 1.267 . S
O133 C132 1.228 . S
O134 Zn121 1.969 . S
O134 C132 1.267 . S
O135 Zn121 1.965 . S
O135 C139 1.260 . S
O136 Zn120 1.969 . S
O136 C139 1.258 . S
O137 Zn121 2.024 . S
O137 C124 1.058 . S
C138 O127 1.260 . S
C138 O128 1.258 . S
C139 O135 1.260 . S
C139 O136 1.258 . S
Zn140 O146 1.969 . S
Zn140 O147 1.965 . S
Zn140 O151 2.024 . S
Zn140 O156 1.969 . S
Zn141 O148 1.969 . S
Zn141 O154 1.969 . S
Zn141 O155 1.965 . S
Zn141 O157 2.024 . S
C142 O143 1.229 . S
C142 O151 1.058 . S
O143 C142 1.229 . S
C144 O145 1.229 . S
C144 O157 1.058 . S
O145 C144 1.229 . S
O146 Zn140 1.969 . S
O146 C149 1.267 . S
O147 Zn140 1.965 . S
O147 C158 1.260 . S
O148 Zn141 1.969 . S
O148 C158 1.258 . S
C149 O146 1.267 . S
C149 O150 1.228 . S
O150 C149 1.228 . S
O151 Zn140 2.024 . S
O151 C142 1.058 . S
C152 O153 1.228 . S
C152 O154 1.267 . S
O153 C152 1.228 . S
O154 Zn141 1.969 . S
O154 C152 1.267 . S
O155 Zn141 1.965 . S
O155 C159 1.260 . S
O156 Zn140 1.969 . S
O156 C159 1.258 . S
O157 Zn141 2.024 . S
O157 C144 1.058 . S
C158 O147 1.260 . S
C158 O148 1.258 . S
C159 O155 1.260 . S
C159 O156 1.258 . S
Co160 O163 2.042 . S
Co160 O170 2.264 . S
Co160 O189 2.286 . S
Co160 O190 2.069 . S
Co160 O192 2.015 1_455 S
Co161 O163 2.122 . S
Co161 O169 2.073 . S
Co161 O170 2.327 . S
Co161 O171 1.976 1_455 S
Co162 O163 2.089 1_545 S
Co162 O165 2.085 1_455 S
Co162 O172 2.110 1_445 S
Co162 O173 2.144 . S
Co162 O177 2.112 . S
Co162 O191 2.143 1_445 S
O163 Co160 2.042 . S
O163 Co161 2.122 . S
O163 Co162 2.089 1_565 S
O163 H164 0.980 . S
H164 O163 0.980 . S
O165 Co162 2.085 1_655 S
O165 Co166 2.042 . S
O165 Co167 2.122 . S
O165 H168 0.980 . S
Co166 O165 2.042 . S
Co166 O174 2.286 . S
Co166 O175 2.069 . S
Co166 O176 2.015 1_655 S
Co166 O179 2.264 . S
Co167 O165 2.122 . S
Co167 O178 1.976 1_655 S
Co167 O179 2.327 . S
Co167 O180 2.073 . S
H168 O165 0.980 . S
O169 Co161 2.073 . S
O169 C184 1.245 . S
O170 Co160 2.264 . S
O170 Co161 2.327 . S
O170 C184 1.257 . S
O171 Co161 1.976 1_655 S
O171 C183 1.251 . S
O172 Co162 2.110 1_665 S
O172 C183 1.274 . S
O173 Co162 2.144 . S
O173 C186 1.246 . S
O174 Co166 2.286 . S
O174 C185 1.259 . S
O175 Co166 2.069 . S
O175 C185 1.289 . S
O176 Co166 2.015 1_455 S
O176 C186 1.257 . S
O177 Co162 2.112 . S
O177 C187 1.274 . S
O178 Co167 1.976 1_455 S
O178 C187 1.251 . S
O179 Co166 2.264 . S
O179 Co167 2.327 . S
O179 C188 1.257 . S
O180 Co167 2.073 . S
O180 C188 1.245 . S
C181 O189 1.259 . S
C181 O190 1.289 . S
C182 O191 1.246 . S
C182 O192 1.257 . S
C183 O171 1.251 . S
C183 O172 1.274 . S
C184 O169 1.245 . S
C184 O170 1.257 . S
C185 O174 1.259 . S
C185 O175 1.289 . S
C186 O173 1.246 . S
C186 O176 1.257 . S
C187 O177 1.274 . S
C187 O178 1.251 . S
C188 O179 1.257 . S
C188 O180 1.245 . S
O189 Co160 2.286 . S
O189 C181 1.259 . S
O190 Co160 2.069 . S
O190 C181 1.289 . S
O191 Co162 2.143 1_665 S
O191 C182 1.246 . S
O192 Co160 2.015 1_655 S
O192 C182 1.257 . S
Co193 O196 2.042 1_556 S
Co193 O203 2.264 1_556 S
Co193 O222 2.286 . S
Co193 O223 2.069 . S
Co193 O225 2.015 . S
Co194 O196 2.122 . S
Co194 O202 2.073 . S
Co194 O203 2.327 . S
Co194 O204 1.976 . S
Co195 O196 2.087 1_545 S
Co195 O198 2.087 1_554 S
Co195 O205 2.111 1_545 S
Co195 O206 2.143 . S
Co195 O210 2.111 1_554 S
Co195 O224 2.143 1_544 S
O196 Co193 2.042 1_554 S
O196 Co194 2.122 . S
O196 Co195 2.087 1_565 S
O196 H197 0.980 . S
H197 O196 0.980 . S
O198 Co195 2.087 1_556 S
O198 Co199 2.042 1_556 S
O198 Co200 2.122 . S
O198 H201 0.980 . S
Co199 O198 2.042 1_554 S
Co199 O207 2.286 . S
Co199 O208 2.069 . S
Co199 O209 2.015 . S
Co199 O212 2.264 1_554 S
Co200 O198 2.122 . S
Co200 O211 1.976 . S
Co200 O212 2.327 . S
Co200 O213 2.073 . S
H201 O198 0.980 . S
O202 Co194 2.073 . S
O202 C217 1.245 . S
O203 Co193 2.264 1_554 S
O203 Co194 2.327 . S
O203 C217 1.257 . S
O204 Co194 1.976 . S
O204 C216 1.251 . S
O205 Co195 2.111 1_565 S
O205 C216 1.274 . S
O206 Co195 2.143 . S
O206 C219 1.246 . S
O207 Co199 2.286 . S
O207 C218 1.259 . S
O208 Co199 2.069 . S
O208 C218 1.289 . S
O209 Co199 2.015 . S
O209 C219 1.257 . S
O210 Co195 2.111 1_556 S
O210 C220 1.274 . S
O211 Co200 1.976 . S
O211 C220 1.251 . S
O212 Co199 2.264 1_556 S
O212 Co200 2.327 . S
O212 C221 1.257 . S
O213 Co200 2.073 . S
O213 C221 1.245 . S
C214 O222 1.259 . S
C214 O223 1.289 . S
C215 O224 1.246 . S
C215 O225 1.257 . S
C216 O204 1.251 . S
C216 O205 1.274 . S
C217 O202 1.245 . S
C217 O203 1.257 . S
C218 O207 1.259 . S
C218 O208 1.289 . S
C219 O206 1.246 . S
C219 O209 1.257 . S
C220 O210 1.274 . S
C220 O211 1.251 . S
C221 O212 1.257 . S
C221 O213 1.245 . S
O222 Co193 2.286 . S
O222 C214 1.259 . S
O223 Co193 2.069 . S
O223 C214 1.289 . S
O224 Co195 2.143 1_566 S
O224 C215 1.246 . S
O225 Co193 2.015 . S
O225 C215 1.257 . S
Co226 O229 2.042 1_556 S
Co226 O236 2.264 1_556 S
Co226 O255 2.286 . S
Co226 O256 2.069 . S
Co226 O258 2.015 1_455 S
Co227 O229 2.122 . S
Co227 O235 2.073 . S
Co227 O236 2.327 . S
Co227 O237 1.976 1_455 S
Co228 O229 2.089 . S
Co228 O231 2.085 1_454 S
Co228 O238 2.110 1_455 S
Co228 O239 2.144 . S
Co228 O243 2.113 1_554 S
Co228 O257 2.143 1_454 S
O229 Co226 2.042 1_554 S
O229 Co227 2.122 . S
O229 Co228 2.089 . S
O229 H230 0.980 . S
H230 O229 0.980 . S
O231 Co228 2.085 1_656 S
O231 Co232 2.042 1_556 S
O231 Co233 2.122 . S
O231 H234 0.980 . S
Co232 O231 2.042 1_554 S
Co232 O240 2.286 . S
Co232 O241 2.069 . S
Co232 O242 2.015 1_655 S
Co232 O245 2.264 1_554 S
Co233 O231 2.122 . S
Co233 O244 1.976 1_655 S
Co233 O245 2.327 . S
Co233 O246 2.073 . S
H234 O231 0.980 . S
O235 Co227 2.073 . S
O235 C250 1.245 . S
O236 Co226 2.264 1_554 S
O236 Co227 2.327 . S
O236 C250 1.257 . S
O237 Co227 1.976 1_655 S
O237 C249 1.251 . S
O238 Co228 2.110 1_655 S
O238 C249 1.274 . S
O239 Co228 2.144 . S
O239 C252 1.246 . S
O240 Co232 2.286 . S
O240 C251 1.259 . S
O241 Co232 2.069 . S
O241 C251 1.289 . S
O242 Co232 2.015 1_455 S
O242 C252 1.257 . S
O243 Co228 2.113 1_556 S
O243 C253 1.274 . S
O244 Co233 1.976 1_455 S
O244 C253 1.251 . S
O245 Co232 2.264 1_556 S
O245 Co233 2.327 . S
O245 C254 1.257 . S
O246 Co233 2.073 . S
O246 C254 1.245 . S
C247 O255 1.259 . S
C247 O256 1.289 . S
C248 O257 1.246 . S
C248 O258 1.257 . S
C249 O237 1.251 . S
C249 O238 1.274 . S
C250 O235 1.245 . S
C250 O236 1.257 . S
C251 O240 1.259 . S
C251 O241 1.289 . S
C252 O239 1.246 . S
C252 O242 1.257 . S
C253 O243 1.274 . S
C253 O244 1.251 . S
C254 O245 1.257 . S
C254 O246 1.245 . S
O255 Co226 2.286 . S
O255 C247 1.259 . S
O256 Co226 2.069 . S
O256 C247 1.289 . S
O257 Co228 2.143 1_656 S
O257 C248 1.246 . S
O258 Co226 2.015 1_655 S
O258 C248 1.257 . S
Co259 O262 2.042 1_556 S
Co259 O269 2.264 1_556 S
Co259 O288 2.286 . S
Co259 O289 2.069 . S
Co259 O291 2.015 . S
Co260 O262 2.122 . S
Co260 O268 2.073 . S
Co260 O269 2.327 . S
Co260 O270 1.976 . S
Co261 O262 2.087 . S
Co261 O264 2.087 1_554 S
Co261 O271 2.111 . S
Co261 O272 2.143 . S
Co261 O276 2.111 1_554 S
Co261 O290 2.143 1_554 S
O262 Co259 2.042 1_554 S
O262 Co260 2.122 . S
O262 Co261 2.087 . S
O262 H263 0.980 . S
H263 O262 0.980 . S
O264 Co261 2.087 1_556 S
O264 Co265 2.042 1_556 S
O264 Co266 2.122 . S
O264 H267 0.980 . S
Co265 O264 2.042 1_554 S
Co265 O273 2.286 . S
Co265 O274 2.069 . S
Co265 O275 2.015 . S
Co265 O278 2.264 1_554 S
Co266 O264 2.122 . S
Co266 O277 1.976 . S
Co266 O278 2.327 . S
Co266 O279 2.073 . S
H267 O264 0.980 . S
O268 Co260 2.073 . S
O268 C283 1.245 . S
O269 Co259 2.264 1_554 S
O269 Co260 2.327 . S
O269 C283 1.257 . S
O270 Co260 1.976 . S
O270 C282 1.251 . S
O271 Co261 2.111 . S
O271 C282 1.274 . S
O272 Co261 2.143 . S
O272 C285 1.246 . S
O273 Co265 2.286 . S
O273 C284 1.259 . S
O274 Co265 2.069 . S
O274 C284 1.289 . S
O275 Co265 2.015 . S
O275 C285 1.257 . S
O276 Co261 2.111 1_556 S
O276 C286 1.274 . S
O277 Co266 1.976 . S
O277 C286 1.251 . S
O278 Co265 2.264 1_556 S
O278 Co266 2.327 . S
O278 C287 1.257 . S
O279 Co266 2.073 . S
O279 C287 1.245 . S
C280 O288 1.259 . S
C280 O289 1.289 . S
C281 O290 1.246 . S
C281 O291 1.257 . S
C282 O270 1.251 . S
C282 O271 1.274 . S
C283 O268 1.245 . S
C283 O269 1.257 . S
C284 O273 1.259 . S
C284 O274 1.289 . S
C285 O272 1.246 . S
C285 O275 1.257 . S
C286 O276 1.274 . S
C286 O277 1.251 . S
C287 O278 1.257 . S
C287 O279 1.245 . S
O288 Co259 2.286 . S
O288 C280 1.259 . S
O289 Co259 2.069 . S
O289 C280 1.289 . S
O290 Co261 2.143 1_556 S
O290 C281 1.246 . S
O291 Co259 2.015 . S
O291 C281 1.257 . S
Co292 O295 2.042 . S
Co292 O302 2.264 . S
Co292 O321 2.286 . S
Co292 O322 2.069 . S
Co292 O324 2.015 . S
Co293 O295 2.122 . S
Co293 O301 2.073 . S
Co293 O302 2.327 . S
Co293 O303 1.976 . S
Co294 O295 2.089 . S
Co294 O297 2.085 1_455 S
Co294 O304 2.112 . S
Co294 O305 2.142 1_455 S
Co294 O309 2.111 1_455 S
Co294 O323 2.145 . S
O295 Co292 2.042 . S
O295 Co293 2.122 . S
O295 Co294 2.089 . S
O295 H296 0.980 . S
H296 O295 0.980 . S
O297 Co294 2.085 1_655 S
O297 Co298 2.042 . S
O297 Co299 2.122 . S
O297 H300 0.980 . S
Co298 O297 2.042 . S
Co298 O306 2.286 . S
Co298 O307 2.069 . S
Co298 O308 2.015 . S
Co298 O311 2.264 . S
Co299 O297 2.122 . S
Co299 O310 1.976 . S
Co299 O311 2.327 . S
Co299 O312 2.073 . S
H300 O297 0.980 . S
O301 Co293 2.073 . S
O301 C316 1.245 . S
O302 Co292 2.264 . S
O302 Co293 2.327 . S
O302 C316 1.257 . S
O303 Co293 1.976 . S
O303 C315 1.251 . S
O304 Co294 2.112 . S
O304 C315 1.274 . S
O305 Co294 2.142 1_655 S
O305 C318 1.246 . S
O306 Co298 2.286 . S
O306 C317 1.259 . S
O307 Co298 2.069 . S
O307 C317 1.289 . S
O308 Co298 2.015 . S
O308 C318 1.257 . S
O309 Co294 2.111 1_655 S
O309 C319 1.274 . S
O310 Co299 1.976 . S
O310 C319 1.251 . S
O311 Co298 2.264 . S
O311 Co299 2.327 . S
O311 C320 1.257 . S
O312 Co299 2.073 . S
O312 C320 1.245 . S
C313 O321 1.259 . S
C313 O322 1.289 . S
C314 O323 1.246 . S
C314 O324 1.257 . S
C315 O303 1.251 . S
C315 O304 1.274 . S
C316 O301 1.245 . S
C316 O302 1.257 . S
C317 O306 1.259 . S
C317 O307 1.289 . S
C318 O305 1.246 . S
C318 O308 1.257 . S
C319 O309 1.274 . S
C319 O310 1.251 . S
C320 O311 1.257 . S
C320 O312 1.245 . S
O321 Co292 2.286 . S
O321 C313 1.259 . S
O322 Co292 2.069 . S
O322 C313 1.289 . S
O323 Co294 2.145 . S
O323 C314 1.246 . S
O324 Co292 2.015 . S
O324 C314 1.257 . S
Co325 O328 2.042 . S
Co325 O335 2.264 . S
Co325 O354 2.286 . S
Co325 O355 2.069 . S
Co325 O357 2.015 1_565 S
Co326 O328 2.122 . S
Co326 O334 2.073 . S
Co326 O335 2.327 . S
Co326 O336 1.976 1_565 S
Co327 O328 2.087 1_545 S
Co327 O330 2.087 . S
Co327 O337 2.111 . S
Co327 O338 2.143 1_545 S
Co327 O342 2.111 1_545 S
Co327 O356 2.143 . S
O328 Co325 2.042 . S
O328 Co326 2.122 . S
O328 Co327 2.087 1_565 S
O328 H329 0.980 . S
H329 O328 0.980 . S
O330 Co327 2.087 . S
O330 Co331 2.042 . S
O330 Co332 2.122 . S
O330 H333 0.980 . S
Co331 O330 2.042 . S
Co331 O339 2.286 . S
Co331 O340 2.069 . S
Co331 O341 2.015 1_545 S
Co331 O344 2.264 . S
Co332 O330 2.122 . S
Co332 O343 1.976 1_545 S
Co332 O344 2.327 . S
Co332 O345 2.073 . S
H333 O330 0.980 . S
O334 Co326 2.073 . S
O334 C349 1.245 . S
O335 Co325 2.264 . S
O335 Co326 2.327 . S
O335 C349 1.257 . S
O336 Co326 1.976 1_545 S
O336 C348 1.251 . S
O337 Co327 2.111 . S
O337 C348 1.274 . S
O338 Co327 2.143 1_565 S
O338 C351 1.246 . S
O339 Co331 2.286 . S
O339 C350 1.259 . S
O340 Co331 2.069 . S
O340 C350 1.289 . S
O341 Co331 2.015 1_565 S
O341 C351 1.257 . S
O342 Co327 2.111 1_565 S
O342 C352 1.274 . S
O343 Co332 1.976 1_565 S
O343 C352 1.251 . S
O344 Co331 2.264 . S
O344 Co332 2.327 . S
O344 C353 1.257 . S
O345 Co332 2.073 . S
O345 C353 1.245 . S
C346 O354 1.259 . S
C346 O355 1.289 . S
C347 O356 1.246 . S
C347 O357 1.257 . S
C348 O336 1.251 . S
C348 O337 1.274 . S
C349 O334 1.245 . S
C349 O335 1.257 . S
C350 O339 1.259 . S
C350 O340 1.289 . S
C351 O338 1.246 . S
C351 O341 1.257 . S
C352 O342 1.274 . S
C352 O343 1.251 . S
C353 O344 1.257 . S
C353 O345 1.245 . S
O354 Co325 2.286 . S
O354 C346 1.259 . S
O355 Co325 2.069 . S
O355 C346 1.289 . S
O356 Co327 2.143 . S
O356 C347 1.246 . S
O357 Co325 2.015 1_545 S
O357 C347 1.257 . S
C358 C359 1.369 . S
C358 C360 1.419 . S
C358 H362 0.930 . S
C359 C358 1.369 . S
C359 C368 1.429 . S
C360 C358 1.419 . S
C360 C361 1.363 . S
C360 H363 0.929 . S
C361 C360 1.363 . S
C361 C367 1.428 . S
H362 C358 0.930 . S
H363 C360 0.929 . S
S364 N365 1.613 . S
S364 N366 1.610 . S
N365 S364 1.613 . S
N365 C368 1.350 . S
N366 S364 1.610 . S
N366 C367 1.351 . S
C367 C361 1.428 . S
C367 N366 1.351 . S
C367 C368 1.434 . S
C368 C359 1.429 . S
C368 N365 1.350 . S
C368 C367 1.434 . S
C369 C370 1.369 . S
C369 C371 1.419 . S
C369 H373 0.930 . S
C370 C369 1.369 . S
C370 C379 1.429 . S
C371 C369 1.419 . S
C371 C372 1.363 . S
C371 H374 0.929 . S
C372 C371 1.363 . S
C372 C378 1.428 . S
H373 C369 0.930 . S
H374 C371 0.929 . S
S375 N376 1.613 . S
S375 N377 1.610 . S
N376 S375 1.613 . S
N376 C379 1.350 . S
N377 S375 1.610 . S
N377 C378 1.351 . S
C378 C372 1.428 . S
C378 N377 1.351 . S
C378 C379 1.434 . S
C379 C370 1.429 . S
C379 N376 1.350 . S
C379 C378 1.434 . S
C380 C381 1.369 . S
C380 C382 1.419 . S
C380 H384 0.930 . S
C381 C380 1.369 . S
C381 C390 1.429 . S
C382 C380 1.419 . S
C382 C383 1.363 . S
C382 H385 0.929 . S
C383 C382 1.363 . S
C383 C389 1.428 . S
H384 C380 0.930 . S
H385 C382 0.929 . S
S386 N387 1.613 . S
S386 N388 1.610 . S
N387 S386 1.613 . S
N387 C390 1.350 . S
N388 S386 1.610 . S
N388 C389 1.351 . S
C389 C383 1.428 . S
C389 N388 1.351 . S
C389 C390 1.434 . S
C390 C381 1.429 . S
C390 N387 1.350 . S
C390 C389 1.434 . S
C391 C392 1.369 . S
C391 C393 1.419 . S
C391 H395 0.930 . S
C392 C391 1.369 . S
C392 C401 1.429 . S
C393 C391 1.419 . S
C393 C394 1.363 . S
C393 H396 0.929 . S
C394 C393 1.363 . S
C394 C400 1.428 . S
H395 C391 0.930 . S
H396 C393 0.929 . S
S397 N398 1.613 . S
S397 N399 1.610 . S
N398 S397 1.613 . S
N398 C401 1.350 . S
N399 S397 1.610 . S
N399 C400 1.351 . S
C400 C394 1.428 . S
C400 N399 1.351 . S
C400 C401 1.434 . S
C401 C392 1.429 . S
C401 N398 1.350 . S
C401 C400 1.434 . S
C402 C403 1.369 . S
C402 C404 1.419 . S
C402 H406 0.930 . S
C403 C402 1.369 . S
C403 C412 1.429 . S
C404 C402 1.419 . S
C404 C405 1.363 . S
C404 H407 0.929 . S
C405 C404 1.363 . S
C405 C411 1.428 . S
H406 C402 0.930 . S
H407 C404 0.929 . S
S408 N409 1.613 . S
S408 N410 1.610 . S
N409 S408 1.613 . S
N409 C412 1.350 . S
N410 S408 1.610 . S
N410 C411 1.351 . S
C411 C405 1.428 . S
C411 N410 1.351 . S
C411 C412 1.434 . S
C412 C403 1.429 . S
C412 N409 1.350 . S
C412 C411 1.434 . S
C413 C414 1.369 . S
C413 C415 1.419 . S
C413 H417 0.930 . S
C414 C413 1.369 . S
C414 C423 1.429 . S
C415 C413 1.419 . S
C415 C416 1.363 . S
C415 H418 0.929 . S
C416 C415 1.363 . S
C416 C422 1.428 . S
H417 C413 0.930 . S
H418 C415 0.929 . S
S419 N420 1.613 . S
S419 N421 1.610 . S
N420 S419 1.613 . S
N420 C423 1.350 . S
N421 S419 1.610 . S
N421 C422 1.351 . S
C422 C416 1.428 . S
C422 N421 1.351 . S
C422 C423 1.434 . S
C423 C414 1.429 . S
C423 N420 1.350 . S
C423 C422 1.434 . S
C424 C425 1.369 . S
C424 C426 1.419 . S
C424 H428 0.930 . S
C425 C424 1.369 . S
C425 C434 1.429 . S
C426 C424 1.419 . S
C426 C427 1.363 . S
C426 H429 0.929 . S
C427 C426 1.363 . S
C427 C433 1.428 . S
H428 C424 0.930 . S
H429 C426 0.929 . S
S430 N431 1.613 . S
S430 N432 1.610 . S
N431 S430 1.613 . S
N431 C434 1.350 . S
N432 S430 1.610 . S
N432 C433 1.351 . S
C433 C427 1.428 . S
C433 N432 1.351 . S
C433 C434 1.434 . S
C434 C425 1.429 . S
C434 N431 1.350 . S
C434 C433 1.434 . S
C435 C436 1.369 . S
C435 C437 1.419 . S
C435 H439 0.930 . S
C436 C435 1.369 . S
C436 C445 1.429 . S
C437 C435 1.419 . S
C437 C438 1.363 . S
C437 H440 0.929 . S
C438 C437 1.363 . S
C438 C444 1.428 . S
H439 C435 0.930 . S
H440 C437 0.929 . S
S441 N442 1.613 . S
S441 N443 1.610 . S
N442 S441 1.613 . S
N442 C445 1.350 . S
N443 S441 1.610 . S
N443 C444 1.351 . S
C444 C438 1.428 . S
C444 N443 1.351 . S
C444 C445 1.434 . S
C445 C436 1.429 . S
C445 N442 1.350 . S
C445 C444 1.434 . S
C446 C447 1.369 . S
C446 C448 1.419 . S
C446 H450 0.930 . S
C447 C446 1.369 . S
C447 C456 1.429 . S
C448 C446 1.419 . S
C448 C449 1.363 . S
C448 H451 0.929 . S
C449 C448 1.363 . S
C449 C455 1.428 . S
H450 C446 0.930 . S
H451 C448 0.929 . S
S452 N453 1.613 . S
S452 N454 1.610 . S
N453 S452 1.613 . S
N453 C456 1.350 . S
N454 S452 1.610 . S
N454 C455 1.351 . S
C455 C449 1.428 . S
C455 N454 1.351 . S
C455 C456 1.434 . S
C456 C447 1.429 . S
C456 N453 1.350 . S
C456 C455 1.434 . S
C457 C458 1.369 . S
C457 C459 1.419 . S
C457 H461 0.930 . S
C458 C457 1.369 . S
C458 C467 1.429 . S
C459 C457 1.419 . S
C459 C460 1.363 . S
C459 H462 0.929 . S
C460 C459 1.363 . S
C460 C466 1.428 . S
H461 C457 0.930 . S
H462 C459 0.929 . S
S463 N464 1.613 1_556 S
S463 N465 1.610 . S
N464 S463 1.613 1_554 S
N464 C467 1.350 . S
N465 S463 1.610 . S
N465 C466 1.351 1_556 S
C466 C460 1.428 . S
C466 N465 1.351 1_554 S
C466 C467 1.434 . S
C467 C458 1.429 . S
C467 N464 1.350 . S
C467 C466 1.434 . S
C468 C469 1.369 . S
C468 C470 1.419 . S
C468 H472 0.930 . S
C469 C468 1.369 . S
C469 C478 1.429 . S
C470 C468 1.419 . S
C470 C471 1.363 . S
C470 H473 0.929 . S
C471 C470 1.363 . S
C471 C477 1.428 . S
H472 C468 0.930 . S
H473 C470 0.929 . S
S474 N475 1.613 . S
S474 N476 1.610 . S
N475 S474 1.613 . S
N475 C478 1.350 . S
N476 S474 1.610 . S
N476 C477 1.351 . S
C477 C471 1.428 . S
C477 N476 1.351 . S
C477 C478 1.434 . S
C478 C469 1.429 . S
C478 N475 1.350 . S
C478 C477 1.434 . S
C479 C480 1.369 . S
C479 C481 1.419 . S
C479 H483 0.930 . S
C480 C479 1.369 . S
C480 C489 1.429 . S
C481 C479 1.419 . S
C481 C482 1.363 . S
C481 H484 0.929 . S
C482 C481 1.363 . S
C482 C488 1.428 . S
H483 C479 0.930 . S
H484 C481 0.929 . S
S485 N486 1.613 . S
S485 N487 1.610 . S
N486 S485 1.613 . S
N486 C489 1.350 . S
N487 S485 1.610 . S
N487 C488 1.351 . S
C488 C482 1.428 . S
C488 N487 1.351 . S
C488 C489 1.434 . S
C489 C480 1.429 . S
C489 N486 1.350 . S
C489 C488 1.434 . S
C490 C491 1.369 . S
C490 C492 1.419 . S
C490 H494 0.930 . S
C491 C490 1.369 . S
C491 C500 1.429 . S
C492 C490 1.419 . S
C492 C493 1.363 . S
C492 H495 0.929 . S
C493 C492 1.363 . S
C493 C499 1.428 . S
H494 C490 0.930 . S
H495 C492 0.929 . S
S496 N497 1.613 . S
S496 N498 1.610 . S
N497 S496 1.613 . S
N497 C500 1.350 . S
N498 S496 1.610 . S
N498 C499 1.351 . S
C499 C493 1.428 . S
C499 N498 1.351 . S
C499 C500 1.434 . S
C500 C491 1.429 . S
C500 N497 1.350 . S
C500 C499 1.434 . S
C501 C502 1.369 . S
C501 C503 1.419 . S
C501 H505 0.930 . S
C502 C501 1.369 . S
C502 C511 1.429 . S
C503 C501 1.419 . S
C503 C504 1.363 . S
C503 H506 0.929 . S
C504 C503 1.363 . S
C504 C510 1.428 . S
H505 C501 0.930 . S
H506 C503 0.929 . S
S507 N508 1.613 . S
S507 N509 1.610 . S
N508 S507 1.613 . S
N508 C511 1.350 . S
N509 S507 1.610 . S
N509 C510 1.351 . S
C510 C504 1.428 . S
C510 N509 1.351 . S
C510 C511 1.434 . S
C511 C502 1.429 . S
C511 N508 1.350 . S
C511 C510 1.434 . S
C512 C513 1.369 . S
C512 C514 1.419 . S
C512 H516 0.930 . S
C513 C512 1.369 . S
C513 C522 1.429 . S
C514 C512 1.419 . S
C514 C515 1.363 . S
C514 H517 0.929 . S
C515 C514 1.363 . S
C515 C521 1.428 . S
H516 C512 0.930 . S
H517 C514 0.929 . S
S518 N519 1.613 . S
S518 N520 1.610 . S
N519 S518 1.613 . S
N519 C522 1.350 . S
N520 S518 1.610 . S
N520 C521 1.351 . S
C521 C515 1.428 . S
C521 N520 1.351 . S
C521 C522 1.434 . S
C522 C513 1.429 . S
C522 N519 1.350 . S
C522 C521 1.434 . S
C523 C524 1.369 . S
C523 C525 1.419 . S
C523 H527 0.930 . S
C524 C523 1.369 . S
C524 C533 1.429 . S
C525 C523 1.419 . S
C525 C526 1.363 . S
C525 H528 0.929 . S
C526 C525 1.363 . S
C526 C532 1.428 . S
H527 C523 0.930 . S
H528 C525 0.929 . S
S529 N530 1.613 . S
S529 N531 1.610 . S
N530 S529 1.613 . S
N530 C533 1.350 . S
N531 S529 1.610 . S
N531 C532 1.351 . S
C532 C526 1.428 . S
C532 N531 1.351 . S
C532 C533 1.434 . S
C533 C524 1.429 . S
C533 N530 1.350 . S
C533 C532 1.434 . S
C534 C535 1.369 . S
C534 C536 1.419 . S
C534 H538 0.930 . S
C535 C534 1.369 . S
C535 C544 1.429 . S
C536 C534 1.419 . S
C536 C537 1.363 . S
C536 H539 0.929 . S
C537 C536 1.363 . S
C537 C543 1.428 . S
H538 C534 0.930 . S
H539 C536 0.929 . S
S540 N541 1.613 1_556 S
S540 N542 1.610 . S
N541 S540 1.613 1_554 S
N541 C544 1.350 . S
N542 S540 1.610 . S
N542 C543 1.351 1_556 S
C543 C537 1.428 . S
C543 N542 1.351 1_554 S
C543 C544 1.434 . S
C544 C535 1.429 . S
C544 N541 1.350 . S
C544 C543 1.434 . S
C545 C546 1.369 . S
C545 C547 1.419 . S
C545 H549 0.930 . S
C546 C545 1.369 . S
C546 C555 1.429 . S
C547 C545 1.419 . S
C547 C548 1.363 . S
C547 H550 0.929 . S
C548 C547 1.363 . S
C548 C554 1.428 . S
H549 C545 0.930 . S
H550 C547 0.929 . S
S551 N552 1.613 . S
S551 N553 1.610 . S
N552 S551 1.613 . S
N552 C555 1.350 . S
N553 S551 1.610 . S
N553 C554 1.351 . S
C554 C548 1.428 . S
C554 N553 1.351 . S
C554 C555 1.434 . S
C555 C546 1.429 . S
C555 N552 1.350 . S
C555 C554 1.434 . S
C556 C557 1.369 . S
C556 C558 1.419 . S
C556 H560 0.930 . S
C557 C556 1.369 . S
C557 C566 1.429 . S
C558 C556 1.419 . S
C558 C559 1.363 . S
C558 H561 0.929 . S
C559 C558 1.363 . S
C559 C565 1.428 . S
H560 C556 0.930 . S
H561 C558 0.929 . S
S562 N563 1.613 . S
S562 N564 1.610 . S
N563 S562 1.613 . S
N563 C566 1.350 . S
N564 S562 1.610 . S
N564 C565 1.351 . S
C565 C559 1.428 . S
C565 N564 1.351 . S
C565 C566 1.434 . S
C566 C557 1.429 . S
C566 N563 1.350 . S
C566 C565 1.434 . S
C567 C568 1.369 . S
C567 C569 1.419 . S
C567 H571 0.930 . S
C568 C567 1.369 . S
C568 C577 1.429 . S
C569 C567 1.419 . S
C569 C570 1.363 . S
C569 H572 0.929 . S
C570 C569 1.363 . S
C570 C576 1.428 . S
H571 C567 0.930 . S
H572 C569 0.929 . S
S573 N574 1.613 . S
S573 N575 1.610 . S
N574 S573 1.613 . S
N574 C577 1.350 . S
N575 S573 1.610 . S
N575 C576 1.351 . S
C576 C570 1.428 . S
C576 N575 1.351 . S
C576 C577 1.434 . S
C577 C568 1.429 . S
C577 N574 1.350 . S
C577 C576 1.434 . S
C578 C579 1.369 . S
C578 C580 1.419 . S
C578 H582 0.930 . S
C579 C578 1.369 . S
C579 C588 1.429 . S
C580 C578 1.419 . S
C580 C581 1.363 . S
C580 H583 0.929 . S
C581 C580 1.363 . S
C581 C587 1.428 . S
H582 C578 0.930 . S
H583 C580 0.929 . S
S584 N585 1.613 . S
S584 N586 1.610 . S
N585 S584 1.613 . S
N585 C588 1.350 . S
N586 S584 1.610 . S
N586 C587 1.351 . S
C587 C581 1.428 . S
C587 N586 1.351 . S
C587 C588 1.434 . S
C588 C579 1.429 . S
C588 N585 1.350 . S
C588 C587 1.434 . S
C589 C590 1.369 . S
C589 C591 1.419 . S
C589 H593 0.930 . S
C590 C589 1.369 . S
C590 C599 1.429 . S
C591 C589 1.419 . S
C591 C592 1.363 . S
C591 H594 0.929 . S
C592 C591 1.363 . S
C592 C598 1.428 . S
H593 C589 0.930 . S
H594 C591 0.929 . S
S595 N596 1.613 . S
S595 N597 1.610 . S
N596 S595 1.613 . S
N596 C599 1.350 . S
N597 S595 1.610 . S
N597 C598 1.351 . S
C598 C592 1.428 . S
C598 N597 1.351 . S
C598 C599 1.434 . S
C599 C590 1.429 . S
C599 N596 1.350 . S
C599 C598 1.434 . S
C600 C601 1.369 . S
C600 C602 1.419 . S
C600 H604 0.930 . S
C601 C600 1.369 . S
C601 C610 1.429 . S
C602 C600 1.419 . S
C602 C603 1.363 . S
C602 H605 0.929 . S
C603 C602 1.363 . S
C603 C609 1.428 . S
H604 C600 0.930 . S
H605 C602 0.929 . S
S606 N607 1.613 1_556 S
S606 N608 1.610 . S
N607 S606 1.613 1_554 S
N607 C610 1.350 . S
N608 S606 1.610 . S
N608 C609 1.351 1_556 S
C609 C603 1.428 . S
C609 N608 1.351 1_554 S
C609 C610 1.434 . S
C610 C601 1.429 . S
C610 N607 1.350 . S
C610 C609 1.434 . S
C611 C612 1.369 . S
C611 C613 1.419 . S
C611 H615 0.930 . S
C612 C611 1.369 . S
C612 C621 1.429 . S
C613 C611 1.419 . S
C613 C614 1.363 . S
C613 H616 0.929 . S
C614 C613 1.363 . S
C614 C620 1.428 . S
H615 C611 0.930 . S
H616 C613 0.929 . S
S617 N618 1.613 . S
S617 N619 1.610 . S
N618 S617 1.613 . S
N618 C621 1.350 . S
N619 S617 1.610 . S
N619 C620 1.351 . S
C620 C614 1.428 . S
C620 N619 1.351 . S
C620 C621 1.434 . S
C621 C612 1.429 . S
C621 N618 1.350 . S
C621 C620 1.434 . S
C622 C623 1.369 . S
C622 C624 1.419 . S
C622 H626 0.930 . S
C623 C622 1.369 . S
C623 C632 1.429 . S
C624 C622 1.419 . S
C624 C625 1.363 . S
C624 H627 0.929 . S
C625 C624 1.363 . S
C625 C631 1.428 . S
H626 C622 0.930 . S
H627 C624 0.929 . S
S628 N629 1.613 . S
S628 N630 1.610 . S
N629 S628 1.613 . S
N629 C632 1.350 . S
N630 S628 1.610 . S
N630 C631 1.351 . S
C631 C625 1.428 . S
C631 N630 1.351 . S
C631 C632 1.434 . S
C632 C623 1.429 . S
C632 N629 1.350 . S
C632 C631 1.434 . S
C633 C634 1.369 . S
C633 C635 1.419 . S
C633 H637 0.930 . S
C634 C633 1.369 . S
C634 C643 1.429 . S
C635 C633 1.419 . S
C635 C636 1.363 . S
C635 H638 0.929 . S
C636 C635 1.363 . S
C636 C642 1.428 . S
H637 C633 0.930 . S
H638 C635 0.929 . S
S639 N640 1.613 . S
S639 N641 1.610 . S
N640 S639 1.613 . S
N640 C643 1.350 . S
N641 S639 1.610 . S
N641 C642 1.351 . S
C642 C636 1.428 . S
C642 N641 1.351 . S
C642 C643 1.434 . S
C643 C634 1.429 . S
C643 N640 1.350 . S
C643 C642 1.434 . S
C644 C645 1.369 . S
C644 C646 1.419 . S
C644 H648 0.930 . S
C645 C644 1.369 . S
C645 C654 1.429 . S
C646 C644 1.419 . S
C646 C647 1.363 . S
C646 H649 0.929 . S
C647 C646 1.363 . S
C647 C653 1.428 . S
H648 C644 0.930 . S
H649 C646 0.929 . S
S650 N651 1.613 . S
S650 N652 1.610 . S
N651 S650 1.613 . S
N651 C654 1.350 . S
N652 S650 1.610 . S
N652 C653 1.351 . S
C653 C647 1.428 . S
C653 N652 1.351 . S
C653 C654 1.434 . S
C654 C645 1.429 . S
C654 N651 1.350 . S
C654 C653 1.434 . S
C655 C656 1.369 . S
C655 C657 1.419 . S
C655 H659 0.930 . S
C656 C655 1.369 . S
C656 C665 1.429 . S
C657 C655 1.419 . S
C657 C658 1.363 . S
C657 H660 0.929 . S
C658 C657 1.363 . S
C658 C664 1.428 . S
H659 C655 0.930 . S
H660 C657 0.929 . S
S661 N662 1.613 . S
S661 N663 1.610 . S
N662 S661 1.613 . S
N662 C665 1.350 . S
N663 S661 1.610 . S
N663 C664 1.351 . S
C664 C658 1.428 . S
C664 N663 1.351 . S
C664 C665 1.434 . S
C665 C656 1.429 . S
C665 N662 1.350 . S
C665 C664 1.434 . S
C666 C667 1.369 . S
C666 C668 1.419 . S
C666 H670 0.930 . S
C667 C666 1.369 . S
C667 C676 1.429 . S
C668 C666 1.419 . S
C668 C669 1.363 . S
C668 H671 0.929 . S
C669 C668 1.363 . S
C669 C675 1.428 . S
H670 C666 0.930 . S
H671 C668 0.929 . S
S672 N673 1.613 . S
S672 N674 1.610 . S
N673 S672 1.613 . S
N673 C676 1.350 . S
N674 S672 1.610 . S
N674 C675 1.351 . S
C675 C669 1.428 . S
C675 N674 1.351 . S
C675 C676 1.434 . S
C676 C667 1.429 . S
C676 N673 1.350 . S
C676 C675 1.434 . S
C677 C678 1.369 . S
C677 C679 1.419 . S
C677 H681 0.930 . S
C678 C677 1.369 . S
C678 C687 1.429 . S
C679 C677 1.419 . S
C679 C680 1.363 . S
C679 H682 0.929 . S
C680 C679 1.363 . S
C680 C686 1.428 . S
H681 C677 0.930 . S
H682 C679 0.929 . S
S683 N684 1.613 . S
S683 N685 1.610 . S
N684 S683 1.613 . S
N684 C687 1.350 . S
N685 S683 1.610 . S
N685 C686 1.351 . S
C686 C680 1.428 . S
C686 N685 1.351 . S
C686 C687 1.434 . S
C687 C678 1.429 . S
C687 N684 1.350 . S
C687 C686 1.434 . S
C688 C689 1.369 . S
C688 C690 1.419 . S
C688 H692 0.930 . S
C689 C688 1.369 . S
C689 C698 1.429 . S
C690 C688 1.419 . S
C690 C691 1.363 . S
C690 H693 0.929 . S
C691 C690 1.363 . S
C691 C697 1.428 . S
H692 C688 0.930 . S
H693 C690 0.929 . S
S694 N695 1.613 1_556 S
S694 N696 1.608 1_556 S
N695 S694 1.613 1_554 S
N695 C698 1.350 . S
N696 S694 1.608 1_554 S
N696 C697 1.360 . S
C697 C691 1.428 . S
C697 N696 1.360 . S
C697 C698 1.434 . S
C698 C689 1.429 . S
C698 N695 1.350 . S
C698 C697 1.434 . S
C699 C700 1.369 . S
C699 C701 1.419 . S
C699 H703 0.930 . S
C700 C699 1.369 . S
C700 C709 1.429 . S
C701 C699 1.419 . S
C701 C702 1.363 . S
C701 H704 0.929 . S
C702 C701 1.363 . S
C702 C708 1.428 . S
H703 C699 0.930 . S
H704 C701 0.929 . S
S705 N706 1.613 . S
S705 N707 1.610 . S
N706 S705 1.613 . S
N706 C709 1.350 . S
N707 S705 1.610 . S
N707 C708 1.351 . S
C708 C702 1.428 . S
C708 N707 1.351 . S
C708 C709 1.434 . S
C709 C700 1.429 . S
C709 N706 1.350 . S
C709 C708 1.434 . S
C710 C711 1.369 . S
C710 C712 1.419 . S
C710 H714 0.930 . S
C711 C710 1.369 . S
C711 C720 1.429 . S
C712 C710 1.419 . S
C712 C713 1.363 . S
C712 H715 0.929 . S
C713 C712 1.363 . S
C713 C719 1.428 . S
H714 C710 0.930 . S
H715 C712 0.929 . S
S716 N717 1.613 . S
S716 N718 1.610 . S
N717 S716 1.613 . S
N717 C720 1.350 . S
N718 S716 1.610 . S
N718 C719 1.351 . S
C719 C713 1.428 . S
C719 N718 1.351 . S
C719 C720 1.434 . S
C720 C711 1.429 . S
C720 N717 1.350 . S
C720 C719 1.434 . S
C721 C722 1.369 . S
C721 C723 1.419 . S
C721 H725 0.930 . S
C722 C721 1.369 . S
C722 C731 1.429 . S
C723 C721 1.419 . S
C723 C724 1.363 . S
C723 H726 0.929 . S
C724 C723 1.363 . S
C724 C730 1.428 . S
H725 C721 0.930 . S
H726 C723 0.929 . S
S727 N728 1.613 . S
S727 N729 1.610 . S
N728 S727 1.613 . S
N728 C731 1.350 . S
N729 S727 1.610 . S
N729 C730 1.351 . S
C730 C724 1.428 . S
C730 N729 1.351 . S
C730 C731 1.434 . S
C731 C722 1.429 . S
C731 N728 1.350 . S
C731 C730 1.434 . S
C732 C733 1.369 . S
C732 C734 1.419 . S
C732 H736 0.930 . S
C733 C732 1.369 . S
C733 C742 1.429 . S
C734 C732 1.419 . S
C734 C735 1.363 . S
C734 H737 0.929 . S
C735 C734 1.363 . S
C735 C741 1.428 . S
H736 C732 0.930 . S
H737 C734 0.929 . S
S738 N739 1.613 . S
S738 N740 1.610 . S
N739 S738 1.613 . S
N739 C742 1.350 . S
N740 S738 1.610 . S
N740 C741 1.351 . S
C741 C735 1.428 . S
C741 N740 1.351 . S
C741 C742 1.434 . S
C742 C733 1.429 . S
C742 N739 1.350 . S
C742 C741 1.434 . S
C743 C744 1.369 . S
C743 C745 1.419 . S
C743 H747 0.930 . S
C744 C743 1.369 . S
C744 C753 1.429 . S
C745 C743 1.419 . S
C745 C746 1.363 . S
C745 H748 0.929 . S
C746 C745 1.363 . S
C746 C752 1.428 . S
H747 C743 0.930 . S
H748 C745 0.929 . S
S749 N750 1.613 . S
S749 N751 1.610 . S
N750 S749 1.613 . S
N750 C753 1.350 . S
N751 S749 1.610 . S
N751 C752 1.351 . S
C752 C746 1.428 . S
C752 N751 1.351 . S
C752 C753 1.434 . S
C753 C744 1.429 . S
C753 N750 1.350 . S
C753 C752 1.434 . S
C754 C755 1.369 . S
C754 C756 1.419 . S
C754 H758 0.930 . S
C755 C754 1.369 . S
C755 C764 1.429 . S
C756 C754 1.419 . S
C756 C757 1.363 . S
C756 H759 0.929 . S
C757 C756 1.363 . S
C757 C763 1.428 . S
H758 C754 0.930 . S
H759 C756 0.929 . S
S760 N761 1.613 . S
S760 N762 1.610 . S
N761 S760 1.613 . S
N761 C764 1.350 . S
N762 S760 1.610 . S
N762 C763 1.351 . S
C763 C757 1.428 . S
C763 N762 1.351 . S
C763 C764 1.434 . S
C764 C755 1.429 . S
C764 N761 1.350 . S
C764 C763 1.434 . S
C765 C766 1.369 . S
C765 C767 1.419 . S
C765 H769 0.930 . S
C766 C765 1.369 . S
C766 C775 1.429 . S
C767 C765 1.419 . S
C767 C768 1.363 . S
C767 H770 0.929 . S
C768 C767 1.363 . S
C768 C774 1.428 . S
H769 C765 0.930 . S
H770 C767 0.929 . S
S771 N772 1.613 . S
S771 N773 1.610 . S
N772 S771 1.613 . S
N772 C775 1.350 . S
N773 S771 1.610 . S
N773 C774 1.351 . S
C774 C768 1.428 . S
C774 N773 1.351 . S
C774 C775 1.434 . S
C775 C766 1.429 . S
C775 N772 1.350 . S
C775 C774 1.434 . S
C776 C777 1.369 . S
C776 C778 1.419 . S
C776 H780 0.930 . S
C777 C776 1.369 . S
C777 C786 1.429 . S
C778 C776 1.419 . S
C778 C779 1.363 . S
C778 H781 0.929 . S
C779 C778 1.363 . S
C779 C785 1.428 . S
H780 C776 0.930 . S
H781 C778 0.929 . S
S782 N783 1.613 . S
S782 N784 1.610 . S
N783 S782 1.613 . S
N783 C786 1.350 . S
N784 S782 1.610 . S
N784 C785 1.351 . S
C785 C779 1.428 . S
C785 N784 1.351 . S
C785 C786 1.434 . S
C786 C777 1.429 . S
C786 N783 1.350 . S
C786 C785 1.434 . S
C787 C788 1.369 . S
C787 C789 1.419 . S
C787 H791 0.930 . S
C788 C787 1.369 . S
C788 C797 1.429 . S
C789 C787 1.419 . S
C789 C790 1.363 . S
C789 H792 0.929 . S
C790 C789 1.363 . S
C790 C796 1.428 . S
H791 C787 0.930 . S
H792 C789 0.929 . S
S793 N794 1.613 . S
S793 N795 1.610 . S
N794 S793 1.613 . S
N794 C797 1.350 . S
N795 S793 1.610 . S
N795 C796 1.351 . S
C796 C790 1.428 . S
C796 N795 1.351 . S
C796 C797 1.434 . S
C797 C788 1.429 . S
C797 N794 1.350 . S
C797 C796 1.434 . S
C798 C799 1.369 . S
C798 C800 1.419 . S
C798 H802 0.930 . S
C799 C798 1.369 . S
C799 C808 1.429 . S
C800 C798 1.419 . S
C800 C801 1.363 . S
C800 H803 0.929 . S
C801 C800 1.363 . S
C801 C807 1.428 . S
H802 C798 0.930 . S
H803 C800 0.929 . S
S804 N805 1.613 . S
S804 N806 1.610 . S
N805 S804 1.613 . S
N805 C808 1.350 . S
N806 S804 1.610 . S
N806 C807 1.351 . S
C807 C801 1.428 . S
C807 N806 1.351 . S
C807 C808 1.434 . S
C808 C799 1.429 . S
C808 N805 1.350 . S
C808 C807 1.434 . S
C809 C810 1.369 . S
C809 C811 1.419 . S
C809 H813 0.930 . S
C810 C809 1.369 . S
C810 C819 1.429 . S
C811 C809 1.419 . S
C811 C812 1.363 . S
C811 H814 0.929 . S
C812 C811 1.363 . S
C812 C818 1.428 . S
H813 C809 0.930 . S
H814 C811 0.929 . S
S815 N816 1.613 . S
S815 N817 1.610 . S
N816 S815 1.613 . S
N816 C819 1.350 . S
N817 S815 1.610 . S
N817 C818 1.351 . S
C818 C812 1.428 . S
C818 N817 1.351 . S
C818 C819 1.434 . S
C819 C810 1.429 . S
C819 N816 1.350 . S
C819 C818 1.434 . S
C820 C821 1.369 . S
C820 C822 1.419 . S
C820 H824 0.930 . S
C821 C820 1.369 . S
C821 C830 1.429 . S
C822 C820 1.419 . S
C822 C823 1.363 . S
C822 H825 0.929 . S
C823 C822 1.363 . S
C823 C829 1.428 . S
H824 C820 0.930 . S
H825 C822 0.929 . S
S826 N827 1.613 . S
S826 N828 1.610 . S
N827 S826 1.613 . S
N827 C830 1.350 . S
N828 S826 1.610 . S
N828 C829 1.351 . S
C829 C823 1.428 . S
C829 N828 1.351 . S
C829 C830 1.434 . S
C830 C821 1.429 . S
C830 N827 1.350 . S
C830 C829 1.434 . S
C831 C832 1.369 . S
C831 C833 1.419 . S
C831 H835 0.930 . S
C832 C831 1.369 . S
C832 C841 1.429 . S
C833 C831 1.419 . S
C833 C834 1.363 . S
C833 H836 0.929 . S
C834 C833 1.363 . S
C834 C840 1.428 . S
H835 C831 0.930 . S
H836 C833 0.929 . S
S837 N838 1.613 . S
S837 N839 1.610 . S
N838 S837 1.613 . S
N838 C841 1.350 . S
N839 S837 1.610 . S
N839 C840 1.351 . S
C840 C834 1.428 . S
C840 N839 1.351 . S
C840 C841 1.434 . S
C841 C832 1.429 . S
C841 N838 1.350 . S
C841 C840 1.434 . S
C842 C843 1.369 . S
C842 C844 1.419 . S
C842 H846 0.930 . S
C843 C842 1.369 . S
C843 C852 1.429 . S
C844 C842 1.419 . S
C844 C845 1.363 . S
C844 H847 0.929 . S
C845 C844 1.363 . S
C845 C851 1.428 . S
H846 C842 0.930 . S
H847 C844 0.929 . S
S848 N849 1.613 . S
S848 N850 1.610 . S
N849 S848 1.613 . S
N849 C852 1.350 . S
N850 S848 1.610 . S
N850 C851 1.351 . S
C851 C845 1.428 . S
C851 N850 1.351 . S
C851 C852 1.434 . S
C852 C843 1.429 . S
C852 N849 1.350 . S
C852 C851 1.434 . S
C853 C854 1.369 . S
C853 C855 1.419 . S
C853 H857 0.930 . S
C854 C853 1.369 . S
C854 C863 1.429 . S
C855 C853 1.419 . S
C855 C856 1.363 . S
C855 H858 0.929 . S
C856 C855 1.363 . S
C856 C862 1.428 . S
H857 C853 0.930 . S
H858 C855 0.929 . S
S859 N860 1.613 . S
S859 N861 1.610 . S
N860 S859 1.613 . S
N860 C863 1.350 . S
N861 S859 1.610 . S
N861 C862 1.351 . S
C862 C856 1.428 . S
C862 N861 1.351 . S
C862 C863 1.434 . S
C863 C854 1.429 . S
C863 N860 1.350 . S
C863 C862 1.434 . S
C864 C865 1.369 . S
C864 C866 1.419 . S
C864 H868 0.930 . S
C865 C864 1.369 . S
C865 C874 1.429 . S
C866 C864 1.419 . S
C866 C867 1.363 . S
C866 H869 0.929 . S
C867 C866 1.363 . S
C867 C873 1.428 . S
H868 C864 0.930 . S
H869 C866 0.929 . S
S870 N871 1.613 . S
S870 N872 1.610 . S
N871 S870 1.613 . S
N871 C874 1.350 . S
N872 S870 1.610 . S
N872 C873 1.351 . S
C873 C867 1.428 . S
C873 N872 1.351 . S
C873 C874 1.434 . S
C874 C865 1.429 . S
C874 N871 1.350 . S
C874 C873 1.434 . S
C875 C876 1.369 . S
C875 C877 1.419 . S
C875 H879 0.930 . S
C876 C875 1.369 . S
C876 C885 1.429 . S
C877 C875 1.419 . S
C877 C878 1.363 . S
C877 H880 0.929 . S
C878 C877 1.363 . S
C878 C884 1.428 . S
H879 C875 0.930 . S
H880 C877 0.929 . S
S881 N882 1.613 . S
S881 N883 1.610 . S
N882 S881 1.613 . S
N882 C885 1.350 . S
N883 S881 1.610 . S
N883 C884 1.351 . S
C884 C878 1.428 . S
C884 N883 1.351 . S
C884 C885 1.434 . S
C885 C876 1.429 . S
C885 N882 1.350 . S
C885 C884 1.434 . S
C361 C187 1.973 . S
C359 C19 2.077 . S
C372 C188 1.755 . S
C370 C24 1.757 . S
C383 C182 1.396 . S
C381 C59 1.377 . S
C392 C69 1.122 . S
C394 C181 1.173 . S
C403 C82 1.756 . S
C405 C184 1.756 . S
C416 C186 1.390 . S
C414 C118 1.373 . S
C425 C132 1.134 . S
C427 C185 1.171 . S
C436 C158 2.074 . S
C438 C183 1.968 . S
C449 C218 1.830 . S
C447 C4 1.562 . S
C458 C29 1.079 . S
C460 C249 1.067 . S
C471 C217 1.544 . S
C469 C44 1.424 . S
C482 C252 1.312 . S
C480 C79 1.266 . S
C491 C98 1.497 . S
C493 C215 1.487 . S
C504 C247 1.465 . S
C502 C112 1.371 . S
C513 C122 1.163 . S
C515 C220 1.232 . S
C524 C152 1.236 . S
C526 C254 1.304 . S
C535 C9 1.246 . S
C537 C250 1.307 . S
C546 C92 1.075 . S
C548 C253 1.059 . S
C559 C221 1.548 . S
C557 C102 1.432 . S
C570 C248 1.308 . S
C568 C138 1.278 . S
C579 C142 1.563 . S
C581 C214 1.831 . S
C590 C49 1.382 . S
C592 C251 1.463 . S
C603 C216 1.237 . S
C601 C64 1.172 . S
C612 C39 1.497 . S
C614 C219 1.486 . S
C623 C159 2.061 . S
C625 C286 1.978 . S
C634 C84 1.486 . S
C636 C287 1.511 . S
C647 C281 1.393 . S
C645 C119 1.390 . S
C658 C280 1.433 . S
C656 C129 1.407 . S
C667 C22 1.481 . S
C669 C283 1.512 . S
C680 C285 1.393 . S
C678 C58 1.397 . S
C689 C72 1.400 . S
C691 C284 1.433 . S
C700 C18 2.060 . S
C702 C282 1.981 . S
C711 C144 1.687 . S
C713 C320 1.795 . S
C724 C352 0.917 . S
C722 C89 0.896 . S
C733 C104 1.372 . S
C735 C313 1.517 . S
C744 C139 1.529 . S
C746 C347 1.588 . S
C757 C318 1.345 . S
C755 C38 1.350 . S
C766 C52 1.508 . S
C768 C349 1.591 . S
C779 C315 1.409 . S
C777 C62 1.384 . S
C790 C350 1.426 . S
C788 C12 1.237 . S
C801 C346 1.426 . S
C799 C149 1.226 . S
C810 C32 0.904 . S
C812 C348 0.922 . S
C821 C42 1.370 . S
C823 C317 1.517 . S
C834 C351 1.590 . S
C832 C78 1.538 . S
C843 C2 1.687 . S
C845 C316 1.795 . S
C854 C109 1.510 . S
C856 C353 1.590 . S
C867 C319 1.410 . S
C865 C124 1.386 . S
C878 C314 1.349 . S
C876 C99 1.346 . S
