# Generated by pormake.
# Topology nia, (6,6)-cn, num edge types: 1
# Building blocks:
#     Node 0, Type 0, BuildingBlock: BETGAK_clean_sbu_0, # of connection points: 6
#     Node 1, Type 0, BuildingBlock: BETGAK_clean_sbu_0, # of connection points: 6
#     Node 2, Type 1, BuildingBlock: MIDCAF_clean_sbu_0, # of connection points: 6
#     Node 3, Type 1, BuildingBlock: MIDCAF_clean_sbu_0, # of connection points: 6
#     Edge 4, Type (0, 1), BuildingBlock: MIFKUJ_clean_linker_0, # of connection points: 2
#     Edge 5, Type (0, 1), BuildingBlock: MIFKUJ_clean_linker_0, # of connection points: 2
#     Edge 6, Type (0, 1), BuildingBlock: MIFKUJ_clean_linker_0, # of connection points: 2
#     Edge 7, Type (0, 1), BuildingBlock: MIFKUJ_clean_linker_0, # of connection points: 2
#     Edge 8, Type (0, 1), BuildingBlock: MIFKUJ_clean_linker_0, # of connection points: 2
#     Edge 9, Type (0, 1), BuildingBlock: MIFKUJ_clean_linker_0, # of connection points: 2
#     Edge 10, Type (0, 1), BuildingBlock: MIFKUJ_clean_linker_0, # of connection points: 2
#     Edge 11, Type (0, 1), BuildingBlock: MIFKUJ_clean_linker_0, # of connection points: 2
#     Edge 12, Type (0, 1), BuildingBlock: MIFKUJ_clean_linker_0, # of connection points: 2
#     Edge 13, Type (0, 1), BuildingBlock: MIFKUJ_clean_linker_0, # of connection points: 2
#     Edge 14, Type (0, 1), BuildingBlock: MIFKUJ_clean_linker_0, # of connection points: 2
#     Edge 15, Type (0, 1), BuildingBlock: MIFKUJ_clean_linker_0, # of connection points: 2
# Relax obj value: 0.290
# Max RMSD: 0.260
# Mean RMSD: 0.237
data_MOF--net-nia--node1-BETGAK_clean_sbu_0--node2-MIDCAF_clean_sbu_0--edge1-MIFKUJ_clean_linker_0
_symmetry_space_group_name_H-M    P1
_symmetry_Int_Tables_number       1
_symmetry_cell_setting            triclinic
loop_
_symmetry_equiv_pos_as_xyz
'x, y, z'
_cell_length_a     31.802516
_cell_length_b     34.776603
_cell_length_c     42.476504
_cell_angle_alpha  74.723289
_cell_angle_beta   99.330398
_cell_angle_gamma 127.005
loop_
_atom_site_label
_atom_site_type_symbol
_atom_site_fract_x
_atom_site_fract_y
_atom_site_fract_z
_atom_type_partial_charge
La0 La 0.07207 0.04502 0.05126 0.0
La1 La 0.99218 0.95971 1.01551 0.0
C2 C 0.15636 0.12174 0.0647 0.0
C3 C 0.1789 0.16332 0.08049 0.0
C4 C 0.15553 0.15813 0.10811 0.0
C5 C 0.18252 0.19521 0.1261 0.0
C6 C 0.23324 0.23807 0.11676 0.0
C7 C 0.25533 0.24393 0.08822 0.0
C8 C 0.2284 0.20683 0.07031 0.0
C9 C 0.97835 0.98547 0.08114 0.0
C10 C 0.98643 0.04806 1.00373 0.0
C11 C 0.92421 0.88221 0.99464 0.0
C12 C 0.92581 0.86398 0.96774 0.0
C13 C 0.97196 0.89076 0.94943 0.0
C14 C 0.97421 0.87296 0.92436 0.0
C15 C 0.93043 0.82779 0.91732 0.0
C16 C 0.88405 0.80131 0.93563 0.0
C17 C 0.88178 0.81937 0.96059 0.0
C18 C 0.08253 0.03275 0.9846 0.0
C19 C 0.0657 0.94738 0.07061 0.0
O20 O 0.13347 0.07807 0.08408 0.0
O21 O 0.13133 0.12123 0.0368 0.0
O22 O 0.01912 0.02468 0.09049 0.0
O23 O 0.99284 0.98255 0.0567 0.0
O24 O 0.03591 0.07471 1.01423 0.0
O25 O 0.95799 -0.00052 1.00899 0.0
O26 O 0.92587 0.92206 0.98605 0.0
O27 O 0.95615 0.88464 1.01894 0.0
O28 O 0.03801 0.00618 0.97045 0.0
O29 O 0.07582 0.01496 1.01463 0.0
O30 O 0.02097 0.92488 0.05408 0.0
O31 O 0.0947 0.9952 0.06966 0.0
H32 H 0.11733 0.12474 0.11642 0.0
H33 H 0.16404 0.19 0.14764 0.0
H34 H 0.29442 0.27625 0.08046 0.0
H35 H 0.24727 0.21124 0.04925 0.0
H36 H 1.0065 0.92518 0.95476 0.0
H37 H 1.01032 0.89449 0.9106 0.0
H38 H 0.84992 0.76592 0.93132 0.0
H39 H 0.84596 0.79816 0.97462 0.0
La40 La 0.99992 0.01955 0.53887 0.0
La41 La 0.05498 0.98591 0.5159 0.0
C42 C 0.95474 0.05585 0.54727 0.0
C43 C 0.94467 0.06827 0.5746 0.0
C44 C 0.92604 0.0352 0.60492 0.0
C45 C 0.91366 0.04664 0.62969 0.0
C46 C 0.92011 0.09154 0.62477 0.0
C47 C 0.94005 0.12503 0.59468 0.0
C48 C 0.95203 0.11342 0.56987 0.0
C49 C 0.98155 0.93594 0.57452 0.0
C50 C 0.95468 0.96549 0.47848 0.0
C51 C 0.10105 0.94877 0.51089 0.0
C52 C 0.1139 0.93365 0.48688 0.0
C53 C 0.10103 0.94104 0.45368 0.0
C54 C 0.11708 0.92896 0.43126 0.0
C55 C 0.14654 0.90973 0.44176 0.0
C56 C 0.15812 0.90149 0.4752 0.0
C57 C 0.14197 0.91335 0.49748 0.0
C58 C 0.07325 0.0692 0.47995 0.0
C59 C 0.10115 0.04076 0.57566 0.0
O60 O 1.00364 0.08249 0.53771 0.0
O61 O 0.93051 0.00905 0.54807 0.0
O62 O 0.98386 0.96816 0.58598 0.0
O63 O 0.98597 0.94966 0.54393 0.0
O64 O 0.95973 0.99787 0.49264 0.0
O65 O 0.98465 0.94988 0.48681 0.0
O66 O 0.05157 0.92266 0.51909 0.0
O67 O 0.12433 0.99604 0.50705 0.0
O68 O 0.07147 0.03701 0.46871 0.0
O69 O 0.06884 0.05584 0.51061 0.0
O70 O 0.09601 0.00864 0.56133 0.0
O71 O 0.07035 0.05545 0.56824 0.0
H72 H 0.92036 0.00022 0.60937 0.0
H73 H 0.89892 0.02029 0.65268 0.0
H74 H 0.9449 0.15965 0.58992 0.0
H75 H 0.96623 0.13944 0.5467 0.0
H76 H 0.07943 0.95683 0.44509 0.0
H77 H 0.10772 0.93589 0.40565 0.0
H78 H 0.17984 0.88591 0.48421 0.0
H79 H 0.15212 0.9073 0.52303 0.0
Zn80 Zn 0.35116 0.65782 0.21694 0.0
Zn81 Zn 0.3897 0.67224 0.32934 0.0
Zn82 Zn 0.37665 0.67521 0.26984 0.0
C83 C 0.489 0.71739 0.30258 0.0
C84 C 0.31274 0.57439 0.32111 0.0
O85 O 0.33961 0.71146 0.24261 0.0
O86 O 0.2876 0.65848 0.21108 0.0
C87 C 0.45799 0.73084 0.20934 0.0
O88 O 0.46188 0.70977 0.27593 0.0
O89 O 0.46679 0.7034 0.32948 0.0
O90 O 0.33829 0.59896 0.34309 0.0
O91 O 0.32048 0.59679 0.29113 0.0
O92 O 0.41759 0.7163 0.19118 0.0
O93 O 0.45131 0.71404 0.24065 0.0
O94 O 0.42669 0.65765 0.25856 0.0
O95 O 0.35499 0.60026 0.23661 0.0
C96 C 0.39969 0.61586 0.25004 0.0
O97 O 0.35845 0.72434 0.27609 0.0
O98 O 0.36813 0.71572 0.32962 0.0
C99 C 0.30139 0.69514 0.22193 0.0
C100 C 0.35673 0.73409 0.30281 0.0
Zn101 Zn 0.68204 0.32309 0.85212 0.0
Zn102 Zn 0.68758 0.3317 0.7294 0.0
Zn103 Zn 0.68322 0.32621 0.79015 0.0
C104 C 0.73391 0.42697 0.73161 0.0
C105 C 0.58089 0.27056 0.74658 0.0
O106 O 0.72169 0.29011 0.81764 0.0
O107 O 0.71132 0.28498 0.86917 0.0
C108 C 0.74852 0.42224 0.8215 0.0
O109 O 0.72561 0.4058 0.76223 0.0
O110 O 0.71946 0.40155 0.71054 0.0
O111 O 0.61101 0.28436 0.72373 0.0
O112 O 0.60029 0.28436 0.77388 0.0
O113 O 0.73089 0.39491 0.84929 0.0
O114 O 0.734 0.40335 0.79604 0.0
O115 O 0.59913 0.28564 0.8065 0.0
O116 O 0.60655 0.29077 0.85823 0.0
C117 C 0.57811 0.27691 0.83349 0.0
O118 O 0.71823 0.28854 0.78384 0.0
O119 O 0.7304 0.3081 0.73049 0.0
C120 C 0.72809 0.27703 0.84845 0.0
C121 C 0.73484 0.28718 0.7586 0.0
H122 H 0.02806 0.85235 0.07116 0.0
H123 H 0.06598 0.80852 0.09924 0.0
H124 H 0.18742 0.9344 0.1403 0.0
H125 H 0.1505 0.9787 0.11191 0.0
H126 H 0.22923 0.90156 0.11651 0.0
H127 H 0.0828 0.8273 0.1866 0.0
H128 H 0.98944 0.78398 0.19931 0.0
H129 H 0.94828 0.66052 0.16376 0.0
H130 H 0.04133 0.70338 0.15044 0.0
H131 H 0.33675 0.788 0.22508 0.0
H132 H 0.29419 0.82922 0.20315 0.0
H133 H 0.16676 0.70152 0.1658 0.0
H134 H 0.20752 0.65911 0.18943 0.0
H135 H 0.12767 0.73563 0.18877 0.0
H136 H 0.2718 0.8095 0.11679 0.0
H137 H 0.36446 0.85225 0.10265 0.0
H138 H 0.40909 0.97565 0.13985 0.0
H139 H 0.31675 0.93335 0.15458 0.0
C140 C 0.06255 0.87057 0.08639 0.0
C141 C 0.08616 0.91911 0.08923 0.0
C142 C 0.08415 0.84538 0.10253 0.0
C143 C 0.1294 0.86796 0.12215 0.0
C144 C 0.15259 0.91617 0.12529 0.0
C145 C 0.13125 0.94143 0.10906 0.0
C146 C 0.15382 0.84223 0.13855 0.0
C147 C 0.20717 0.86556 0.13269 0.0
C148 C 0.12484 0.79471 0.15901 0.0
C149 C 0.06896 0.76874 0.16726 0.0
C150 C 0.05379 0.79105 0.18129 0.0
C151 C 1.00093 0.76655 0.18864 0.0
C152 C 0.96294 0.71958 0.18227 0.0
C153 C 0.97774 0.69693 0.16864 0.0
C154 C 0.03054 0.72128 0.16122 0.0
C155 C 0.29924 0.76842 0.21265 0.0
C156 C 0.27524 0.72003 0.20939 0.0
C157 C 0.27518 0.79225 0.19977 0.0
C158 C 0.22754 0.76888 0.18228 0.0
C159 C 0.20342 0.72044 0.17917 0.0
C160 C 0.22697 0.6963 0.19256 0.0
C161 C 0.20314 0.79495 0.16671 0.0
C162 C 0.14979 0.77169 0.17268 0.0
C163 C 0.23201 0.84244 0.14613 0.0
C164 C 0.28747 0.86807 0.13706 0.0
C165 C 0.30144 0.84563 0.12213 0.0
C166 C 0.35388 0.86979 0.11399 0.0
C167 C 0.39266 0.91658 0.12043 0.0
C168 C 0.37903 0.93937 0.13492 0.0
C169 C 0.32664 0.91535 0.14314 0.0
H170 H 0.43324 0.93522 0.11411 0.0
H171 H 0.92204 0.70069 0.18797 0.0
H172 H 0.18903 0.04337 0.58248 0.0
H173 H 0.26 0.07724 0.62191 0.0
H174 H 0.1802 0.11685 0.66454 0.0
H175 H 0.10941 0.08458 0.62379 0.0
H176 H 0.2818 0.1887 0.66 0.0
H177 H 0.1828 0.01559 0.70271 0.0
H178 H 0.13512 0.92856 0.70013 0.0
H179 H 0.27757 0.95758 0.67301 0.0
H180 H 0.32585 0.04505 0.67462 0.0
H181 H 0.50264 0.26763 0.76952 0.0
H182 H 0.40958 0.22112 0.753 0.0
H183 H 0.43946 0.15891 0.69152 0.0
H184 H 0.53083 0.2031 0.70907 0.0
H185 H 0.34876 0.09193 0.7191 0.0
H186 H 0.43937 0.26563 0.663 0.0
H187 H 0.48857 0.35404 0.66264 0.0
H188 H 0.36334 0.32318 0.71508 0.0
H189 H 0.31367 0.23451 0.71598 0.0
C190 C 0.18626 0.05898 0.60034 0.0
C191 C 0.14337 0.06087 0.60025 0.0
C192 C 0.22682 0.07814 0.62304 0.0
C193 C 0.22482 0.09839 0.64684 0.0
C194 C 0.18234 0.10097 0.64661 0.0
C195 C 0.14196 0.0825 0.62338 0.0
C196 C 0.26821 0.11787 0.67111 0.0
C197 C 0.2957 0.16715 0.67354 0.0
C198 C 0.28661 0.08994 0.68878 0.0
C199 C 0.2579 0.03696 0.68871 0.0
C200 C 0.20391 0.00345 0.69609 0.0
C201 C 0.17677 0.95401 0.69476 0.0
C202 C 0.20334 0.93754 0.68642 0.0
C203 C 0.25708 0.97041 0.67948 0.0
C204 C 0.28435 0.01991 0.68062 0.0
C205 C 0.48865 0.24259 0.75347 0.0
C206 C 0.52371 0.23863 0.74077 0.0
C207 C 0.43571 0.21661 0.74362 0.0
C208 C 0.41758 0.1869 0.72066 0.0
C209 C 0.45232 0.18147 0.70924 0.0
C210 C 0.50469 0.20699 0.71916 0.0
C211 C 0.36371 0.16325 0.70654 0.0
C212 C 0.3341 0.11307 0.70613 0.0
C213 C 0.34357 0.19036 0.69071 0.0
C214 C 0.3731 0.24357 0.68979 0.0
C215 C 0.42248 0.27775 0.67454 0.0
C216 C 0.45043 0.32786 0.67424 0.0
C217 C 0.42915 0.3442 0.68889 0.0
C218 C 0.3798 0.31047 0.70378 0.0
C219 C 0.35172 0.26031 0.70417 0.0
H220 H 0.45085 0.38301 0.68865 0.0
H221 H 0.18244 0.89934 0.68529 0.0
H222 H 0.24203 0.22269 0.18338 0.0
H223 H 0.29186 0.28462 0.21714 0.0
H224 H 0.34427 0.40014 0.13048 0.0
H225 H 0.29449 0.3385 0.09659 0.0
H226 H 0.42408 0.42221 0.17586 0.0
H227 H 0.23933 0.36144 0.17415 0.0
H228 H 0.14439 0.29656 0.18375 0.0
H229 H 0.17523 0.25763 0.28494 0.0
H230 H 0.27057 0.3221 0.27583 0.0
H231 H 0.44976 0.62458 0.20083 0.0
H232 H 0.44485 0.55671 0.19017 0.0
H233 H 0.38895 0.47525 0.28828 0.0
H234 H 0.39107 0.54273 0.29805 0.0
H235 H 0.32088 0.42527 0.24979 0.0
H236 H 0.5035 0.50266 0.25405 0.0
H237 H 0.59756 0.57066 0.24476 0.0
H238 H 0.57429 0.57951 0.14139 0.0
H239 H 0.47985 0.51229 0.14993 0.0
C240 C 0.26393 0.26129 0.17152 0.0
C241 C 0.26383 0.27567 0.13729 0.0
C242 C 0.29273 0.29662 0.19084 0.0
C243 C 0.32161 0.34701 0.17634 0.0
C244 C 0.32258 0.36147 0.14218 0.0
C245 C 0.29396 0.32619 0.12284 0.0
C246 C 0.34784 0.38483 0.19653 0.0
C247 C 0.40179 0.42312 0.19211 0.0
C248 C 0.31918 0.38473 0.21879 0.0
C249 C 0.262 0.3461 0.22424 0.0
C250 C 0.22587 0.3388 0.19839 0.0
C251 C 0.17203 0.30219 0.20376 0.0
C252 C 0.15384 0.27293 0.23493 0.0
C253 C 0.18945 0.28032 0.26082 0.0
C254 C 0.24335 0.31688 0.25558 0.0
C255 C 0.4394 0.59334 0.22067 0.0
C256 C 0.42127 0.58876 0.25029 0.0
C257 C 0.43653 0.5543 0.21461 0.0
C258 C 0.41635 0.5104 0.23838 0.0
C259 C 0.40446 0.50853 0.26949 0.0
C260 C 0.40638 0.54733 0.27529 0.0
C261 C 0.39727 0.46435 0.22837 0.0
C262 C 0.34429 0.42416 0.23457 0.0
C263 C 0.42712 0.46273 0.20801 0.0
C264 C 0.48436 0.50231 0.20268 0.0
C265 C 0.51833 0.51918 0.22931 0.0
C266 C 0.57176 0.55765 0.22417 0.0
C267 C 0.59188 0.57939 0.19251 0.0
C268 C 0.55865 0.56259 0.16592 0.0
C269 C 0.50515 0.5242 0.1709 0.0
H270 H 0.63323 0.60925 0.18858 0.0
H271 H 0.11214 0.24461 0.23904 0.0
H272 H 0.9724 0.17882 0.64473 0.0
H273 H 0.94127 0.19936 0.68216 0.0
H274 H 0.8003 0.05027 0.69992 0.0
H275 H 0.83084 0.02973 0.66204 0.0
H276 H 0.77606 0.1132 0.68423 0.0
H277 H 0.89057 0.09415 0.76038 0.0
H278 H 0.97099 0.10295 0.7847 0.0
H279 H 0.0502 0.2582 0.77445 0.0
H280 H 0.97064 0.25062 0.74939 0.0
H281 H 0.6918 0.19005 0.78475 0.0
H282 H 0.72382 0.14402 0.77675 0.0
H283 H 0.86249 0.27966 0.72922 0.0
H284 H 0.82994 0.32515 0.73628 0.0
H285 H 0.87958 0.2077 0.77092 0.0
H286 H 0.76765 0.22412 0.68263 0.0
H287 H 0.68474 0.21293 0.66166 0.0
H288 H 0.59875 0.05695 0.69918 0.0
H289 H 0.68121 0.06742 0.72083 0.0
C290 C 0.93496 0.15029 0.65681 0.0
C291 C 0.90398 0.10271 0.65022 0.0
C292 C 0.91746 0.16193 0.67853 0.0
C293 C 0.86855 0.12628 0.69412 0.0
C294 C 0.83826 0.07834 0.68833 0.0
C295 C 0.85591 0.06659 0.66676 0.0
C296 C 0.84683 0.14063 0.7135 0.0
C297 C 0.79826 0.13273 0.70375 0.0
C298 C 0.87578 0.16658 0.73885 0.0
C299 C 0.92461 0.17184 0.75266 0.0
C300 C 0.92533 0.13032 0.76284 0.0
C301 C 0.97076 0.13507 0.77686 0.0
C302 C 1.0157 0.18112 0.78105 0.0
C303 C 1.01537 0.22256 0.77113 0.0
C304 C 0.9701 0.21805 0.757 0.0
C305 C 0.72976 0.20994 0.77346 0.0
C306 C 0.75854 0.26094 0.76106 0.0
C307 C 0.74797 0.18376 0.76889 0.0
C308 C 0.79543 0.20851 0.75227 0.0
C309 C 0.82598 0.25994 0.74224 0.0
C310 C 0.80732 0.28584 0.74617 0.0
C311 C 0.81003 0.18115 0.74093 0.0
C312 C 0.85718 0.18696 0.75197 0.0
C313 C 0.77977 0.15293 0.71696 0.0
C314 C 0.73038 0.14661 0.7037 0.0
C315 C 0.73098 0.18751 0.68665 0.0
C316 C 0.68411 0.1813 0.67461 0.0
C317 C 0.63647 0.13428 0.67918 0.0
C318 C 0.63566 0.09336 0.69573 0.0
C319 C 0.68243 0.09941 0.70789 0.0
H320 H 0.60021 0.12953 0.66983 0.0
H321 H 0.05075 0.18467 0.79205 0.0
H322 H 0.88583 0.91476 0.05546 0.0
H323 H 0.79623 0.86896 0.0763 0.0
H324 H 0.85959 0.94102 0.1579 0.0
H325 H 0.94882 0.9873 0.13694 0.0
H326 H 0.77902 0.83831 0.17563 0.0
H327 H 0.81125 0.98172 0.09534 0.0
H328 H 0.83498 0.03536 0.04034 0.0
H329 H 0.70319 0.91524 0.9994 0.0
H330 H 0.67929 0.86059 0.05407 0.0
H331 H 0.55444 0.79031 0.23623 0.0
H332 H 0.64137 0.83111 0.21383 0.0
H333 H 0.56812 0.77622 0.12587 0.0
H334 H 0.48127 0.73578 0.1484 0.0
H335 H 0.65231 0.86625 0.10983 0.0
H336 H 0.61676 0.72272 0.18554 0.0
H337 H 0.59053 0.66306 0.23816 0.0
H338 H 0.72433 0.77368 0.28488 0.0
H339 H 0.75072 0.83455 0.23267 0.0
C340 C 0.88058 0.92057 0.07793 0.0
C341 C 0.9243 0.9548 0.09449 0.0
C342 C 0.82939 0.89445 0.0898 0.0
C343 C 0.82104 0.90171 0.11862 0.0
C344 C 0.86492 0.93471 0.13568 0.0
C345 C 0.9159 0.96125 0.12361 0.0
C346 C 0.76674 0.87652 0.1305 0.0
C347 C 0.75149 0.8448 0.1614 0.0
C348 C 0.73009 0.88366 0.11153 0.0
C349 C 0.74381 0.9169 0.07877 0.0
C350 C 0.78755 0.96663 0.07459 0.0
C351 C 0.80102 0.99723 0.04347 0.0
C352 C 0.77069 0.97866 1.0164 0.0
C353 C 0.7267 0.92953 1.02039 0.0
C354 C 0.71317 0.89873 0.05143 0.0
C355 C 0.55695 0.78668 0.21233 0.0
C356 C 0.51091 0.75912 0.19453 0.0
C357 C 0.6067 0.81012 0.19937 0.0
C358 C 0.61165 0.80607 0.16828 0.0
C359 C 0.56567 0.77992 0.14992 0.0
C360 C 0.51591 0.75678 0.16286 0.0
C361 C 0.66458 0.82835 0.15525 0.0
C362 C 0.67964 0.85954 0.12411 0.0
C363 C 0.70067 0.81987 0.17372 0.0
C364 C 0.68544 0.78338 0.2052 0.0
C365 C 0.64037 0.73451 0.20708 0.0
C366 C 0.62543 0.70049 0.23685 0.0
C367 C 0.65559 0.71471 0.26488 0.0
C368 C 0.70086 0.76291 0.26317 0.0
C369 C 0.71584 0.79719 0.23349 0.0
H370 H 0.64397 0.68834 0.28792 0.0
H371 H 0.78122 0.00231 0.99234 0.0
H372 H 0.96573 0.901 0.64021 0.0
H373 H 0.92647 0.81619 0.67061 0.0
H374 H 0.91252 0.77205 0.58142 0.0
H375 H 0.9514 0.85671 0.55092 0.0
H376 H 0.82288 0.71029 0.6137 0.0
H377 H 1.00404 0.78598 0.64011 0.0
H378 H 0.09273 0.84096 0.66182 0.0
H379 H 0.02994 0.7858 0.75852 0.0
H380 H 0.94079 0.73122 0.73715 0.0
H381 H 0.7926 0.48381 0.67698 0.0
H382 H 0.83353 0.57116 0.6546 0.0
H383 H 0.7788 0.58056 0.73675 0.0
H384 H 0.73456 0.49158 0.75854 0.0
H385 H 0.89982 0.65887 0.71186 0.0
H386 H 0.71682 0.5863 0.6819 0.0
H387 H 0.63166 0.52499 0.65936 0.0
H388 H 0.70514 0.57056 0.56749 0.0
H389 H 0.79095 0.6316 0.58969 0.0
C390 C 0.95469 0.87325 0.62715 0.0
C391 C 0.96158 0.88548 0.59316 0.0
C392 C 0.93239 0.8248 0.64459 0.0
C393 C 0.91655 0.78756 0.6284 0.0
C394 C 0.92427 0.80001 0.5945 0.0
C395 C 0.94675 0.84848 0.57708 0.0
C396 C 0.88967 0.73527 0.64638 0.0
C397 C 0.8401 0.69933 0.63507 0.0
C398 C 0.91149 0.72059 0.67465 0.0
C399 C 0.9652 0.75539 0.68694 0.0
C400 C 1.00882 0.78636 0.66588 0.0
C401 C 0.05937 0.8173 0.67816 0.0
C402 C 0.06694 0.81709 0.71153 0.0
C403 C 0.02402 0.78622 0.73264 0.0
C404 C 0.97349 0.75544 0.72044 0.0
C405 C 0.78913 0.50429 0.6904 0.0
C406 C 0.76116 0.48089 0.71996 0.0
C407 C 0.81269 0.55427 0.67756 0.0
C408 C 0.80928 0.58226 0.69402 0.0
C409 C 0.78204 0.5595 0.72377 0.0
C410 C 0.75728 0.50888 0.73635 0.0
C411 C 0.83361 0.63503 0.67926 0.0
C412 C 0.88269 0.67067 0.69089 0.0
C413 C 0.81198 0.64953 0.65105 0.0
C414 C 0.76038 0.61316 0.63757 0.0
C415 C 0.71492 0.5829 0.657 0.0
C416 C 0.66651 0.54828 0.64426 0.0
C417 C 0.66301 0.54379 0.61204 0.0
C418 C 0.70791 0.57403 0.59246 0.0
C419 C 0.75643 0.60868 0.6051 0.0
H420 H 0.6255 0.51696 0.60222 0.0
H421 H 0.10605 0.84042 0.72118 0.0
H422 H 0.24418 0.93143 0.44014 0.0
H423 H 0.27555 0.90909 0.40448 0.0
H424 H 0.12626 0.84252 0.35385 0.0
H425 H 0.09398 0.8639 0.39025 0.0
H426 H 0.15703 0.78248 0.36983 0.0
H427 H 0.23577 0.94934 0.31592 0.0
H428 H 0.28592 0.03889 0.31115 0.0
H429 H 0.42381 0.04656 0.3492 0.0
H430 H 0.37432 0.95692 0.35465 0.0
H431 H 0.26596 0.7211 0.27666 0.0
H432 H 0.22757 0.76064 0.28611 0.0
H433 H 0.36205 0.84595 0.34553 0.0
H434 H 0.40168 0.80876 0.33423 0.0
H435 H 0.32935 0.89963 0.31339 0.0
H436 H 0.24545 0.73213 0.37778 0.0
H437 H 0.19583 0.64218 0.38456 0.0
H438 H 0.06812 0.63637 0.3278 0.0
H439 H 0.11731 0.72642 0.3204 0.0
C440 C 0.21793 0.91205 0.42142 0.0
C441 C 0.16641 0.89912 0.41821 0.0
C442 C 0.23617 0.89979 0.40077 0.0
C443 C 0.20353 0.87461 0.37619 0.0
C444 C 0.15225 0.8622 0.37252 0.0
C445 C 0.13396 0.87466 0.3932 0.0
C446 C 0.22236 0.85875 0.35596 0.0
C447 C 0.19408 0.80827 0.35679 0.0
C448 C 0.27107 0.89223 0.33929 0.0
C449 C 0.30119 0.94629 0.33584 0.0
C450 C 0.2767 0.97005 0.32347 0.0
C451 C 0.30503 0.02085 0.32061 0.0
C452 C 0.35799 0.04839 0.3299 0.0
C453 C 0.38278 0.02518 0.342 0.0
C454 C 0.35462 0.97438 0.34493 0.0
C455 C 0.28842 0.75021 0.29023 0.0
C456 C 0.33752 0.76319 0.30377 0.0
C457 C 0.26599 0.77202 0.29626 0.0
C458 C 0.29155 0.80589 0.31693 0.0
C459 C 0.34159 0.82016 0.32941 0.0
C460 C 0.3642 0.79885 0.32301 0.0
C461 C 0.26487 0.82329 0.32822 0.0
C462 C 0.2917 0.87403 0.32575 0.0
C463 C 0.21493 0.79006 0.34353 0.0
C464 C 0.18524 0.73597 0.34824 0.0
C465 C 0.2069 0.71166 0.36661 0.0
C466 C 0.17886 0.66069 0.37058 0.0
C467 C 0.12892 0.6336 0.35654 0.0
C468 C 0.10685 0.65741 0.3386 0.0
C469 C 0.13476 0.7084 0.33453 0.0
H470 H 0.10728 0.59414 0.35963 0.0
H471 H 0.37985 0.08771 0.32769 0.0
H472 H 0.17953 0.06162 1.01091 0.0
H473 H 0.26181 0.105 0.98137 0.0
H474 H 0.18326 0.11774 0.89051 0.0
H475 H 0.10073 0.07268 0.91985 0.0
H476 H 0.23825 0.09019 0.88192 0.0
H477 H 0.27457 0.21754 0.93037 0.0
H478 H 0.28211 0.2531 0.97592 0.0
H479 H 0.40062 0.23324 1.02089 0.0
H480 H 0.39317 0.1968 0.97586 0.0
H481 H 0.53199 0.32103 0.83447 0.0
H482 H 0.44361 0.2815 0.85411 0.0
H483 H 0.4098 0.13878 0.86332 0.0
H484 H 0.49791 0.17873 0.84259 0.0
H485 H 0.41022 0.23314 0.91162 0.0
H486 H 0.28931 0.05165 0.86822 0.0
H487 H 0.26807 0.01704 0.81934 0.0
H488 H 0.30848 0.15452 0.75792 0.0
H489 H 0.33202 0.19044 0.8063 0.0
C490 C 0.18009 0.07418 0.98467 0.0
C491 C 0.13376 0.06376 0.96764 0.0
C492 C 0.2272 0.09913 0.96777 0.0
C493 C 0.22915 0.11509 0.93358 0.0
C494 C 0.18298 0.10569 0.91679 0.0
C495 C 0.13584 0.08018 0.9336 0.0
C496 C 0.27844 0.13992 0.91502 0.0
C497 C 0.27583 0.12152 0.88848 0.0
C498 C 0.32762 0.18118 0.92312 0.0
C499 C 0.33299 0.20407 0.94986 0.0
C500 C 0.30205 0.22053 0.95005 0.0
C501 C 0.3063 0.24084 0.97578 0.0
C502 C 0.34174 0.24533 1.00132 0.0
C503 C 0.37314 0.22969 1.00111 0.0
C504 C 0.36895 0.20924 0.97548 0.0
C505 C 0.50481 0.2812 0.83947 0.0
C506 C 0.52128 0.25286 0.83651 0.0
C507 C 0.45445 0.25855 0.85104 0.0
C508 C 0.41959 0.20696 0.86042 0.0
C509 C 0.4352 0.17853 0.85581 0.0
C510 C 0.4856 0.20131 0.8439 0.0
C511 C 0.36993 0.18368 0.8782 0.0
C512 C 0.37262 0.20201 0.90493 0.0
C513 C 0.32052 0.14304 0.86988 0.0
C514 C 0.31293 0.12378 0.84076 0.0
C515 C 0.29462 0.0747 0.8442 0.0
C516 C 0.28236 0.05493 0.8166 0.0
C517 C 0.28737 0.08368 0.7855 0.0
C518 C 0.30556 0.13254 0.78193 0.0
C519 C 0.31886 0.15279 0.80942 0.0
H520 H 0.27648 0.06781 0.76427 0.0
H521 H 0.34493 0.26101 1.02123 0.0
H522 H 0.09156 0.10316 0.41459 0.0
H523 H 0.12424 0.18577 0.3825 0.0
H524 H 0.12717 0.22992 0.46913 0.0
H525 H 0.09453 0.14716 0.50139 0.0
H526 H 0.08685 0.26368 0.41652 0.0
H527 H 0.23833 0.26024 0.43919 0.0
H528 H 0.29053 0.22929 0.43889 0.0
H529 H 0.2844 0.25711 0.33415 0.0
H530 H 0.23151 0.28758 0.33392 0.0
H531 H 0.26512 0.52128 0.37978 0.0
H532 H 0.21565 0.43275 0.40022 0.0
H533 H 0.22975 0.41441 0.30681 0.0
H534 H 0.28027 0.50414 0.28605 0.0
H535 H 0.25513 0.36425 0.35626 0.0
H536 H 0.11035 0.37363 0.33255 0.0
H537 H 0.05849 0.40525 0.33173 0.0
H538 H 0.05122 0.36663 0.4364 0.0
H539 H 0.10373 0.33542 0.43789 0.0
C540 C 0.099 0.13043 0.4268 0.0
C541 C 0.09057 0.11868 0.46056 0.0
C542 C 0.11784 0.17771 0.40842 0.0
C543 C 0.12878 0.21438 0.42339 0.0
C544 C 0.11908 0.20233 0.45699 0.0
C545 C 0.10041 0.15502 0.47543 0.0
C546 C 0.15109 0.26545 0.4042 0.0
C547 C 0.12388 0.28582 0.4036 0.0
C548 C 0.1985 0.29388 0.38627 0.0
C549 C 0.23024 0.27545 0.38653 0.0
C550 C 0.24761 0.25925 0.41611 0.0
C551 C 0.27745 0.2419 0.41605 0.0
C552 C 0.29058 0.24102 0.38653 0.0
C553 C 0.27406 0.25764 0.35701 0.0
C554 C 0.24415 0.27493 0.35696 0.0
C555 C 0.2571 0.49848 0.36331 0.0
C556 C 0.27653 0.51985 0.33121 0.0
C557 C 0.22848 0.44765 0.37505 0.0
C558 C 0.21832 0.41657 0.35505 0.0
C559 C 0.23678 0.43756 0.32268 0.0
C560 C 0.26527 0.48877 0.31075 0.0
C561 C 0.19139 0.36285 0.36907 0.0
C562 C 0.21773 0.34195 0.36879 0.0
C563 C 0.14305 0.33384 0.38605 0.0
C564 C 0.11133 0.35247 0.38533 0.0
C565 C 0.09805 0.37221 0.35541 0.0
C566 C 0.06847 0.39001 0.35482 0.0
C567 C 0.05165 0.38803 0.38399 0.0
C568 C 0.06429 0.36815 0.41382 0.0
C569 C 0.09391 0.35033 0.41455 0.0
H570 H 0.02875 0.40184 0.38349 0.0
H571 H 0.31372 0.22761 0.38653 0.0
H572 H 0.89534 0.00658 0.96853 0.0
H573 H 0.85445 0.04513 0.93663 0.0
H574 H 0.97894 0.18255 0.96475 0.0
H575 H 0.02154 0.14434 0.99585 0.0
H576 H 0.81111 0.07727 0.95062 0.0
H577 H 0.9972 0.27981 0.90978 0.0
H578 H 0.08752 0.32266 0.89073 0.0
H579 H 0.04167 0.19291 0.86166 0.0
H580 H 0.95111 0.14942 0.88038 0.0
H581 H 0.72073 0.22226 0.90906 0.0
H582 H 0.76685 0.18524 0.9311 0.0
H583 H 0.84096 0.23738 0.83776 0.0
H584 H 0.8008 0.28119 0.81748 0.0
H585 H 0.90699 0.2427 0.87762 0.0
H586 H 0.72976 0.10906 0.87071 0.0
H587 H 0.63335 0.0561 0.8772 0.0
H588 H 0.65132 0.02994 0.98143 0.0
H589 H 0.74788 0.08336 0.97562 0.0
C590 C 0.91432 0.04511 0.96793 0.0
C591 C 0.96181 0.07235 0.98486 0.0
C592 C 0.89073 0.06717 0.94959 0.0
C593 C 0.91357 0.117 0.9479 0.0
C594 C 0.96094 0.14435 0.96497 0.0
C595 C 0.9851 0.12237 0.98302 0.0
C596 C 0.88629 0.13929 0.92958 0.0
C597 C 0.83216 0.11339 0.93461 0.0
C598 C 0.91283 0.1855 0.90747 0.0
C599 C 0.96756 0.21121 0.89687 0.0
C600 C 1.00644 0.26043 0.89937 0.0
C601 C 0.05767 0.28482 0.88863 0.0
C602 C 0.07038 0.26045 0.87513 0.0
C603 C 0.03188 0.21165 0.87232 0.0
C604 C 0.98065 0.18707 0.8831 0.0
C605 C 0.74679 0.2259 0.89314 0.0
C606 C 0.75477 0.25255 0.8607 0.0
C607 C 0.77276 0.204 0.90569 0.0
C608 C 0.80584 0.20627 0.88584 0.0
C609 C 0.81486 0.23388 0.85359 0.0
C610 C 0.79046 0.25763 0.84148 0.0
C611 C 0.8319 0.18106 0.89931 0.0
C612 C 0.88579 0.2064 0.89346 0.0
C613 C 0.80431 0.13275 0.919 0.0
C614 C 0.74616 0.10065 0.9227 0.0
C615 C 0.71319 0.09233 0.89503 0.0
C616 C 0.65849 0.06219 0.89859 0.0
C617 C 0.63623 0.03978 0.92971 0.0
C618 C 0.66862 0.04739 0.95734 0.0
C619 C 0.72335 0.07758 0.95393 0.0
H620 H 0.59388 0.01644 0.93241 0.0
H621 H 0.11002 0.27944 0.86675 0.0
H622 H 0.92224 0.88902 0.45072 0.0
H623 H 0.85242 0.8543 0.4104 0.0
H624 H 0.82716 0.96425 0.40659 0.0
H625 H 0.89602 0.99838 0.44763 0.0
H626 H 0.73793 0.8784 0.41329 0.0
H627 H 0.88516 0.9644 0.34293 0.0
H628 H 0.96921 0.98927 0.32413 0.0
H629 H 0.89868 0.8401 0.31883 0.0
H630 H 0.81437 0.81414 0.3381 0.0
H631 H 0.55291 0.81595 0.29056 0.0
H632 H 0.6445 0.86643 0.30855 0.0
H633 H 0.64518 0.73827 0.33601 0.0
H634 H 0.55315 0.68758 0.31774 0.0
H635 H 0.74944 0.83733 0.31306 0.0
H636 H 0.60599 0.75158 0.39057 0.0
H637 H 0.52133 0.72849 0.40689 0.0
H638 H 0.58721 0.88108 0.39679 0.0
H639 H 0.67201 0.90508 0.37979 0.0
C640 C 0.90217 0.90614 0.44112 0.0
C641 C 0.91453 0.94634 0.45256 0.0
C642 C 0.86245 0.88641 0.41783 0.0
C643 C 0.83482 0.90693 0.40512 0.0
C644 C 0.84792 0.94776 0.41601 0.0
C645 C 0.88729 0.96723 0.43952 0.0
C646 C 0.78953 0.88353 0.38252 0.0
C647 C 0.74095 0.87022 0.39115 0.0
C648 C 0.79284 0.87173 0.35388 0.0
C649 C 0.84355 0.88723 0.34233 0.0
C650 C 0.88768 0.93679 0.33807 0.0
C651 C 0.93536 0.9511 0.32726 0.0
C652 C 0.93933 0.91626 0.32039 0.0
C653 C 0.89557 0.86704 0.32422 0.0
C654 C 0.84782 0.85251 0.33507 0.0
C655 C 0.57355 0.79914 0.2989 0.0
C656 C 0.54664 0.74825 0.30244 0.0
C657 C 0.62572 0.82792 0.30922 0.0
C658 C 0.6513 0.80593 0.32385 0.0
C659 C 0.62611 0.75589 0.32458 0.0
C660 C 0.5737 0.72701 0.31419 0.0
C661 C 0.69867 0.8323 0.34418 0.0
C662 C 0.7471 0.84586 0.3352 0.0
C663 C 0.69558 0.84456 0.37253 0.0
C664 C 0.6451 0.83012 0.3836 0.0
C665 C 0.60228 0.7802 0.39161 0.0
C666 C 0.55429 0.76695 0.40099 0.0
C667 C 0.54885 0.8033 0.40279 0.0
C668 C 0.59146 0.85297 0.39533 0.0
C669 C 0.63949 0.86642 0.38583 0.0
H670 H 0.51165 0.79298 0.41004 0.0
H671 H 0.97627 0.92743 0.31201 0.0
H672 H 1.01383 0.83003 0.9047 0.0
H673 H 1.01485 0.78574 0.86919 0.0
H674 H 0.85489 0.73137 0.83958 0.0
H675 H 0.8547 0.77771 0.87353 0.0
H676 H 0.96104 0.69395 0.88016 0.0
H677 H 0.81977 0.6922 0.76859 0.0
H678 H 0.81357 0.75256 0.72642 0.0
H679 H 0.97298 0.86809 0.74612 0.0
H680 H 0.98075 0.80845 0.78795 0.0
H681 H 0.74565 0.47318 0.85797 0.0
H682 H 0.80667 0.56091 0.85738 0.0
H683 H 0.89371 0.58101 0.77921 0.0
H684 H 0.83285 0.49175 0.78035 0.0
H685 H 0.86468 0.65451 0.77595 0.0
H686 H 0.96163 0.59665 0.83521 0.0
H687 H 0.9747 0.5375 0.87328 0.0
H688 H 0.91764 0.5498 0.95238 0.0
H689 H 0.90337 0.60839 0.9147 0.0
C690 C 0.97951 0.8101 0.88974 0.0
C691 C 0.93384 0.80684 0.89233 0.0
C692 C 0.98011 0.7846 0.86951 0.0
C693 C 0.93504 0.75518 0.8516 0.0
C694 C 0.89058 0.7544 0.85264 0.0
C695 C 0.89011 0.7802 0.87261 0.0
C696 C 0.93042 0.71855 0.83682 0.0
C697 C 0.94128 0.6863 0.85692 0.0
C698 C 0.90624 0.70916 0.80599 0.0
C699 C 0.90072 0.74562 0.78177 0.0
C700 C 0.85364 0.73041 0.76398 0.0
C701 C 0.84984 0.76457 0.74007 0.0
C702 C 0.89277 0.81415 0.73369 0.0
C703 C 0.93962 0.82971 0.75123 0.0
C704 C 0.94367 0.79574 0.77516 0.0
C705 C 0.7777 0.49616 0.8406 0.0
C706 C 0.78439 0.47589 0.81904 0.0
C707 C 0.81236 0.54623 0.84021 0.0
C708 C 0.85453 0.57712 0.81832 0.0
C709 C 0.86117 0.5575 0.79621 0.0
C710 C 0.8265 0.50681 0.79685 0.0
C711 C 0.89185 0.62931 0.82052 0.0
C712 C 0.88668 0.66403 0.79835 0.0
C713 C 0.92248 0.64182 0.84903 0.0
C714 C 0.93143 0.60696 0.87207 0.0
C715 C 0.95159 0.58654 0.86069 0.0
C716 C 0.95924 0.55312 0.88221 0.0
C717 C 0.94702 0.53991 0.91523 0.0
C718 C 0.92718 0.56014 0.9268 0.0
C719 C 0.9194 0.59355 0.90537 0.0
H720 H 0.95295 0.51401 0.93186 0.0
H721 H 0.8898 0.84048 0.71507 0.0
loop_
_geom_bond_atom_site_label_1
_geom_bond_atom_site_label_2
_geom_bond_distance
_geom_bond_site_symmetry_2
_ccdc_geom_bond_type
La0 C2 2.928 . S
La0 O20 2.521 . S
La0 O21 2.628 . S
La0 O22 2.554 1_445 S
La0 O23 2.757 1_445 S
La0 O24 2.470 . S
La0 O29 2.482 1_554 S
La0 O31 2.503 1_545 S
La1 C11 2.928 . S
La1 O23 2.482 1_556 S
La1 O25 2.503 1_565 S
La1 O26 2.521 . S
La1 O27 2.628 . S
La1 O28 2.554 1_665 S
La1 O29 2.757 1_665 S
La1 O30 2.470 1_656 S
C2 La0 2.928 . S
C2 C3 1.503 . S
C2 O20 1.261 . S
C2 O21 1.243 . S
C3 C2 1.503 . S
C3 C4 1.394 . S
C3 C8 1.373 . S
C4 C3 1.394 . S
C4 C5 1.380 . S
C4 H32 0.930 . S
C5 C4 1.380 . S
C5 C6 1.376 . S
C5 H33 0.930 . S
C6 C5 1.376 . S
C6 C7 1.370 . S
C7 C6 1.370 . S
C7 C8 1.396 . S
C7 H34 0.929 . S
C8 C3 1.373 . S
C8 C7 1.396 . S
C8 H35 0.929 . S
C9 O22 1.240 . S
C9 O23 1.289 . S
C10 O24 1.258 1_656 S
C10 O25 1.256 . S
C11 La1 2.928 . S
C11 C12 1.503 . S
C11 O26 1.261 . S
C11 O27 1.243 . S
C12 C11 1.503 . S
C12 C13 1.394 . S
C12 C17 1.373 . S
C13 C12 1.394 . S
C13 C14 1.380 . S
C13 H36 0.930 . S
C14 C13 1.380 . S
C14 C15 1.376 . S
C14 H37 0.930 . S
C15 C14 1.376 . S
C15 C16 1.370 . S
C16 C15 1.370 . S
C16 C17 1.396 . S
C16 H38 0.929 . S
C17 C12 1.373 . S
C17 C16 1.396 . S
C17 H39 0.929 . S
C18 O28 1.240 . S
C18 O29 1.289 . S
C19 O30 1.258 . S
C19 O31 1.256 . S
O20 La0 2.521 . S
O20 C2 1.261 . S
O21 La0 2.628 . S
O21 C2 1.243 . S
O22 La0 2.554 1_665 S
O22 C9 1.240 . S
O23 La0 2.757 1_665 S
O23 La1 2.482 1_554 S
O23 C9 1.289 . S
O24 La0 2.470 . S
O24 C10 1.258 1_454 S
O25 La1 2.503 1_545 S
O25 C10 1.256 . S
O26 La1 2.521 . S
O26 C11 1.261 . S
O27 La1 2.628 . S
O27 C11 1.243 . S
O28 La1 2.554 1_445 S
O28 C18 1.240 . S
O29 La0 2.482 1_556 S
O29 La1 2.757 1_445 S
O29 C18 1.289 . S
O30 La1 2.470 1_454 S
O30 C19 1.258 . S
O31 La0 2.503 1_565 S
O31 C19 1.256 . S
H32 C4 0.930 . S
H33 C5 0.930 . S
H34 C7 0.929 . S
H35 C8 0.929 . S
H36 C13 0.930 . S
H37 C14 0.930 . S
H38 C16 0.929 . S
H39 C17 0.929 . S
La40 C42 2.928 1_455 S
La40 O60 2.521 1_455 S
La40 O61 2.628 1_455 S
La40 O62 2.554 1_445 S
La40 O63 2.757 1_545 S
La40 O64 2.470 1_445 S
La40 O69 2.482 . S
La40 O71 2.503 . S
La41 C51 2.928 . S
La41 O63 2.482 . S
La41 O65 2.503 1_455 S
La41 O66 2.532 1_565 S
La41 O67 2.628 . S
La41 O68 2.554 1_565 S
La41 O69 2.757 1_565 S
La41 O70 2.470 1_565 S
C42 La40 2.928 1_655 S
C42 C43 1.503 . S
C42 O60 1.261 . S
C42 O61 1.243 . S
C43 C42 1.503 . S
C43 C44 1.394 . S
C43 C48 1.373 . S
C44 C43 1.394 . S
C44 C45 1.380 . S
C44 H72 0.930 . S
C45 C44 1.380 . S
C45 C46 1.376 . S
C45 H73 0.930 . S
C46 C45 1.376 . S
C46 C47 1.370 . S
C47 C46 1.370 . S
C47 C48 1.396 . S
C47 H74 0.929 . S
C48 C43 1.373 . S
C48 C47 1.396 . S
C48 H75 0.929 . S
C49 O62 1.240 . S
C49 O63 1.289 1_655 S
C50 O64 1.258 . S
C50 O65 1.256 . S
C51 La41 2.928 . S
C51 C52 1.503 . S
C51 O66 1.245 1_565 S
C51 O67 1.243 . S
C52 C51 1.503 . S
C52 C53 1.394 . S
C52 C57 1.373 . S
C53 C52 1.394 . S
C53 C54 1.380 . S
C53 H76 0.930 1_565 S
C54 C53 1.380 . S
C54 C55 1.376 . S
C54 H77 0.931 . S
C55 C54 1.376 . S
C55 C56 1.370 . S
C56 C55 1.370 . S
C56 C57 1.396 . S
C56 H78 0.929 . S
C57 C52 1.373 . S
C57 C56 1.396 . S
C57 H79 0.929 . S
C58 O68 1.240 . S
C58 O69 1.289 . S
C59 O70 1.258 . S
C59 O71 1.256 . S
O60 La40 2.521 1_655 S
O60 C42 1.261 . S
O61 La40 2.628 1_655 S
O61 C42 1.243 . S
O62 La40 2.554 1_665 S
O62 C49 1.240 . S
O63 La40 2.757 1_565 S
O63 La41 2.482 . S
O63 C49 1.289 1_455 S
O64 La40 2.470 1_665 S
O64 C50 1.258 . S
O65 La41 2.503 1_655 S
O65 C50 1.256 . S
O66 La41 2.532 1_545 S
O66 C51 1.245 1_545 S
O67 La41 2.628 . S
O67 C51 1.243 . S
O68 La41 2.554 1_545 S
O68 C58 1.240 . S
O69 La40 2.482 . S
O69 La41 2.757 1_545 S
O69 C58 1.289 . S
O70 La41 2.470 1_545 S
O70 C59 1.258 . S
O71 La40 2.503 . S
O71 C59 1.256 . S
H72 C44 0.930 . S
H73 C45 0.930 . S
H74 C47 0.929 . S
H75 C48 0.929 . S
H76 C53 0.930 1_545 S
H77 C54 0.931 . S
H78 C56 0.929 . S
H79 C57 0.929 . S
Zn80 O86 1.920 . S
Zn80 O92 1.898 . S
Zn80 O95 1.905 . S
Zn81 O89 1.905 . S
Zn81 O90 1.898 . S
Zn81 O98 1.920 . S
Zn82 O85 2.080 . S
Zn82 O88 2.114 . S
Zn82 O91 2.120 . S
Zn82 O93 2.120 . S
Zn82 O94 2.114 . S
Zn82 O97 2.080 . S
C83 O88 1.166 . S
C83 O89 1.182 . S
C84 O90 1.167 . S
C84 O91 1.299 . S
O85 Zn82 2.080 . S
O85 C99 1.305 . S
O86 Zn80 1.920 . S
O86 C99 1.234 . S
C87 O92 1.167 . S
C87 O93 1.299 . S
O88 Zn82 2.114 . S
O88 C83 1.166 . S
O89 Zn81 1.905 . S
O89 C83 1.182 . S
O90 Zn81 1.898 . S
O90 C84 1.167 . S
O91 Zn82 2.120 . S
O91 C84 1.299 . S
O92 Zn80 1.898 . S
O92 C87 1.167 . S
O93 Zn82 2.120 . S
O93 C87 1.299 . S
O94 Zn82 2.114 . S
O94 C96 1.166 . S
O95 Zn80 1.905 . S
O95 C96 1.182 . S
C96 O94 1.166 . S
C96 O95 1.182 . S
O97 Zn82 2.080 . S
O97 C100 1.305 . S
O98 Zn81 1.920 . S
O98 C100 1.234 . S
C99 O85 1.305 . S
C99 O86 1.234 . S
C100 O97 1.305 . S
C100 O98 1.234 . S
Zn101 O107 1.920 . S
Zn101 O113 1.898 . S
Zn101 O116 1.905 . S
Zn102 O110 1.905 . S
Zn102 O111 1.898 . S
Zn102 O119 1.920 . S
Zn103 O106 2.080 . S
Zn103 O109 2.114 . S
Zn103 O112 2.120 . S
Zn103 O114 2.120 . S
Zn103 O115 2.114 . S
Zn103 O118 2.080 . S
C104 O109 1.166 . S
C104 O110 1.182 . S
C105 O111 1.167 . S
C105 O112 1.299 . S
O106 Zn103 2.080 . S
O106 C120 1.305 . S
O107 Zn101 1.920 . S
O107 C120 1.234 . S
C108 O113 1.167 . S
C108 O114 1.299 . S
O109 Zn103 2.114 . S
O109 C104 1.166 . S
O110 Zn102 1.905 . S
O110 C104 1.182 . S
O111 Zn102 1.898 . S
O111 C105 1.167 . S
O112 Zn103 2.120 . S
O112 C105 1.299 . S
O113 Zn101 1.898 . S
O113 C108 1.167 . S
O114 Zn103 2.120 . S
O114 C108 1.299 . S
O115 Zn103 2.114 . S
O115 C117 1.166 . S
O116 Zn101 1.905 . S
O116 C117 1.182 . S
C117 O115 1.166 . S
C117 O116 1.182 . S
O118 Zn103 2.080 . S
O118 C121 1.305 . S
O119 Zn102 1.920 . S
O119 C121 1.234 . S
C120 O106 1.305 . S
C120 O107 1.234 . S
C121 O118 1.305 . S
C121 O119 1.234 . S
H122 C140 0.951 . S
H123 C142 0.951 . S
H124 C144 0.950 . S
H125 C145 0.950 . S
H126 C147 0.950 . S
H127 C150 0.950 . S
H128 C151 0.950 . S
H129 C153 0.950 . S
H130 C154 0.950 . S
H131 C155 0.951 . S
H132 C157 0.951 . S
H133 C159 0.950 . S
H134 C160 0.950 . S
H135 C162 0.950 . S
H136 C165 0.950 . S
H137 C166 0.950 . S
H138 C168 0.950 . S
H139 C169 0.950 . S
C140 H122 0.951 . S
C140 C141 1.366 . S
C140 C142 1.388 . S
C141 C140 1.366 . S
C141 C145 1.385 . S
C142 H123 0.951 . S
C142 C140 1.388 . S
C142 C143 1.366 . S
C143 C142 1.366 . S
C143 C144 1.414 . S
C143 C146 1.499 . S
C144 H124 0.950 . S
C144 C143 1.414 . S
C144 C145 1.374 . S
C145 H125 0.950 . S
C145 C141 1.385 . S
C145 C144 1.374 . S
C146 C143 1.499 . S
C146 C147 1.373 . S
C146 C148 1.389 . S
C147 H126 0.950 . S
C147 C146 1.373 . S
C147 C163 1.377 . S
C148 C146 1.389 . S
C148 C149 1.524 . S
C148 C162 1.377 . S
C149 C148 1.524 . S
C149 C150 1.397 . S
C149 C154 1.363 . S
C150 H127 0.950 . S
C150 C149 1.397 . S
C150 C151 1.334 . S
C151 H128 0.950 . S
C151 C150 1.334 . S
C151 C152 1.287 1_455 S
C152 C151 1.287 1_655 S
C152 C153 1.524 . S
C152 H171 0.913 . S
C153 H129 0.950 . S
C153 C152 1.524 . S
C153 C154 1.415 1_655 S
C154 H130 0.950 . S
C154 C149 1.363 . S
C154 C153 1.415 1_455 S
C155 H131 0.951 . S
C155 C156 1.366 . S
C155 C157 1.388 . S
C156 C155 1.366 . S
C156 C160 1.385 . S
C157 H132 0.951 . S
C157 C155 1.388 . S
C157 C158 1.366 . S
C158 C157 1.366 . S
C158 C159 1.414 . S
C158 C161 1.499 . S
C159 H133 0.950 . S
C159 C158 1.414 . S
C159 C160 1.374 . S
C160 H134 0.950 . S
C160 C156 1.385 . S
C160 C159 1.374 . S
C161 C158 1.499 . S
C161 C162 1.373 . S
C161 C163 1.389 . S
C162 H135 0.950 . S
C162 C148 1.377 . S
C162 C161 1.373 . S
C163 C147 1.377 . S
C163 C161 1.389 . S
C163 C164 1.524 . S
C164 C163 1.524 . S
C164 C165 1.397 . S
C164 C169 1.363 . S
C165 H136 0.950 . S
C165 C164 1.397 . S
C165 C166 1.334 . S
C166 H137 0.950 . S
C166 C165 1.334 . S
C166 C167 1.287 . S
C167 C166 1.287 . S
C167 C168 1.524 . S
C167 H170 0.999 . S
C168 H138 0.950 . S
C168 C167 1.524 . S
C168 C169 1.415 . S
C169 H139 0.950 . S
C169 C164 1.363 . S
C169 C168 1.415 . S
H170 C167 0.999 . S
H171 C152 0.913 . S
H172 C190 0.951 . S
H173 C192 0.951 . S
H174 C194 0.950 . S
H175 C195 0.950 . S
H176 C197 0.950 . S
H177 C200 0.950 . S
H178 C201 0.950 . S
H179 C203 0.950 . S
H180 C204 0.950 . S
H181 C205 0.951 . S
H182 C207 0.951 . S
H183 C209 0.950 . S
H184 C210 0.950 . S
H185 C212 0.950 . S
H186 C215 0.950 . S
H187 C216 0.950 . S
H188 C218 0.950 . S
H189 C219 0.950 . S
C190 H172 0.951 . S
C190 C191 1.366 . S
C190 C192 1.388 . S
C191 C190 1.366 . S
C191 C195 1.385 . S
C192 H173 0.951 . S
C192 C190 1.388 . S
C192 C193 1.366 . S
C193 C192 1.366 . S
C193 C194 1.414 . S
C193 C196 1.499 . S
C194 H174 0.950 . S
C194 C193 1.414 . S
C194 C195 1.374 . S
C195 H175 0.950 . S
C195 C191 1.385 . S
C195 C194 1.374 . S
C196 C193 1.499 . S
C196 C197 1.373 . S
C196 C198 1.389 . S
C197 H176 0.950 . S
C197 C196 1.373 . S
C197 C213 1.377 . S
C198 C196 1.389 . S
C198 C199 1.524 . S
C198 C212 1.377 . S
C199 C198 1.524 . S
C199 C200 1.397 . S
C199 C204 1.363 . S
C200 H177 0.950 . S
C200 C199 1.397 . S
C200 C201 1.334 1_545 S
C201 H178 0.950 . S
C201 C200 1.334 1_565 S
C201 C202 1.287 . S
C202 C201 1.287 . S
C202 C203 1.524 . S
C202 H221 0.913 . S
C203 H179 0.950 . S
C203 C202 1.524 . S
C203 C204 1.415 1_565 S
C204 H180 0.950 . S
C204 C199 1.363 . S
C204 C203 1.415 1_545 S
C205 H181 0.951 . S
C205 C206 1.366 . S
C205 C207 1.388 . S
C206 C205 1.366 . S
C206 C210 1.385 . S
C207 H182 0.951 . S
C207 C205 1.388 . S
C207 C208 1.366 . S
C208 C207 1.366 . S
C208 C209 1.414 . S
C208 C211 1.499 . S
C209 H183 0.950 . S
C209 C208 1.414 . S
C209 C210 1.374 . S
C210 H184 0.950 . S
C210 C206 1.385 . S
C210 C209 1.374 . S
C211 C208 1.499 . S
C211 C212 1.373 . S
C211 C213 1.389 . S
C212 H185 0.950 . S
C212 C198 1.377 . S
C212 C211 1.373 . S
C213 C197 1.377 . S
C213 C211 1.389 . S
C213 C214 1.524 . S
C214 C213 1.524 . S
C214 C215 1.397 . S
C214 C219 1.363 . S
C215 H186 0.950 . S
C215 C214 1.397 . S
C215 C216 1.334 . S
C216 H187 0.950 . S
C216 C215 1.334 . S
C216 C217 1.287 . S
C217 C216 1.287 . S
C217 C218 1.524 . S
C217 H220 0.999 . S
C218 H188 0.950 . S
C218 C217 1.524 . S
C218 C219 1.415 . S
C219 H189 0.950 . S
C219 C214 1.363 . S
C219 C218 1.415 . S
H220 C217 0.999 . S
H221 C202 0.913 . S
H222 C240 0.951 . S
H223 C242 0.951 . S
H224 C244 0.950 . S
H225 C245 0.950 . S
H226 C247 0.950 . S
H227 C250 0.950 . S
H228 C251 0.950 . S
H229 C253 0.950 . S
H230 C254 0.950 . S
H231 C255 0.951 . S
H232 C257 0.951 . S
H233 C259 0.950 . S
H234 C260 0.950 . S
H235 C262 0.950 . S
H236 C265 0.950 . S
H237 C266 0.950 . S
H238 C268 0.950 . S
H239 C269 0.950 . S
C240 H222 0.951 . S
C240 C241 1.366 . S
C240 C242 1.388 . S
C241 C240 1.366 . S
C241 C245 1.385 . S
C242 H223 0.951 . S
C242 C240 1.388 . S
C242 C243 1.366 . S
C243 C242 1.366 . S
C243 C244 1.414 . S
C243 C246 1.499 . S
C244 H224 0.950 . S
C244 C243 1.414 . S
C244 C245 1.374 . S
C245 H225 0.950 . S
C245 C241 1.385 . S
C245 C244 1.374 . S
C246 C243 1.499 . S
C246 C247 1.373 . S
C246 C248 1.389 . S
C247 H226 0.950 . S
C247 C246 1.373 . S
C247 C263 1.377 . S
C248 C246 1.389 . S
C248 C249 1.524 . S
C248 C262 1.377 . S
C249 C248 1.524 . S
C249 C250 1.397 . S
C249 C254 1.363 . S
C250 H227 0.950 . S
C250 C249 1.397 . S
C250 C251 1.334 . S
C251 H228 0.950 . S
C251 C250 1.334 . S
C251 C252 1.287 . S
C252 C251 1.287 . S
C252 C253 1.524 . S
C252 H271 0.913 . S
C253 H229 0.950 . S
C253 C252 1.524 . S
C253 C254 1.415 . S
C254 H230 0.950 . S
C254 C249 1.363 . S
C254 C253 1.415 . S
C255 H231 0.951 . S
C255 C256 1.366 . S
C255 C257 1.388 . S
C256 C255 1.366 . S
C256 C260 1.385 . S
C257 H232 0.951 . S
C257 C255 1.388 . S
C257 C258 1.366 . S
C258 C257 1.366 . S
C258 C259 1.414 . S
C258 C261 1.499 . S
C259 H233 0.950 . S
C259 C258 1.414 . S
C259 C260 1.374 . S
C260 H234 0.950 . S
C260 C256 1.385 . S
C260 C259 1.374 . S
C261 C258 1.499 . S
C261 C262 1.373 . S
C261 C263 1.389 . S
C262 H235 0.950 . S
C262 C248 1.377 . S
C262 C261 1.373 . S
C263 C247 1.377 . S
C263 C261 1.389 . S
C263 C264 1.524 . S
C264 C263 1.524 . S
C264 C265 1.397 . S
C264 C269 1.363 . S
C265 H236 0.950 . S
C265 C264 1.397 . S
C265 C266 1.334 . S
C266 H237 0.950 . S
C266 C265 1.334 . S
C266 C267 1.287 . S
C267 C266 1.287 . S
C267 C268 1.524 . S
C267 H270 0.999 . S
C268 H238 0.950 . S
C268 C267 1.524 . S
C268 C269 1.415 . S
C269 H239 0.950 . S
C269 C264 1.363 . S
C269 C268 1.415 . S
H270 C267 0.999 . S
H271 C252 0.913 . S
H272 C290 0.951 . S
H273 C292 0.951 . S
H274 C294 0.950 . S
H275 C295 0.950 . S
H276 C297 0.950 . S
H277 C300 0.950 . S
H278 C301 0.950 . S
H279 C303 0.950 . S
H280 C304 0.950 . S
H281 C305 0.951 . S
H282 C307 0.951 . S
H283 C309 0.950 . S
H284 C310 0.950 . S
H285 C312 0.950 . S
H286 C315 0.950 . S
H287 C316 0.950 . S
H288 C318 0.950 . S
H289 C319 0.950 . S
C290 H272 0.951 . S
C290 C291 1.366 . S
C290 C292 1.388 . S
C291 C290 1.366 . S
C291 C295 1.385 . S
C292 H273 0.951 . S
C292 C290 1.388 . S
C292 C293 1.366 . S
C293 C292 1.366 . S
C293 C294 1.414 . S
C293 C296 1.499 . S
C294 H274 0.950 . S
C294 C293 1.414 . S
C294 C295 1.374 . S
C295 H275 0.950 . S
C295 C291 1.385 . S
C295 C294 1.374 . S
C296 C293 1.499 . S
C296 C297 1.373 . S
C296 C298 1.389 . S
C297 H276 0.950 . S
C297 C296 1.373 . S
C297 C313 1.377 . S
C298 C296 1.389 . S
C298 C299 1.524 . S
C298 C312 1.377 . S
C299 C298 1.524 . S
C299 C300 1.397 . S
C299 C304 1.363 . S
C300 H277 0.950 . S
C300 C299 1.397 . S
C300 C301 1.334 . S
C301 H278 0.950 . S
C301 C300 1.334 . S
C301 C302 1.287 . S
C302 C301 1.287 . S
C302 C303 1.524 . S
C302 H321 0.913 . S
C303 H279 0.950 . S
C303 C302 1.524 . S
C303 C304 1.415 . S
C304 H280 0.950 . S
C304 C299 1.363 . S
C304 C303 1.415 . S
C305 H281 0.951 . S
C305 C306 1.366 . S
C305 C307 1.388 . S
C306 C305 1.366 . S
C306 C310 1.385 . S
C307 H282 0.951 . S
C307 C305 1.388 . S
C307 C308 1.366 . S
C308 C307 1.366 . S
C308 C309 1.414 . S
C308 C311 1.499 . S
C309 H283 0.950 . S
C309 C308 1.414 . S
C309 C310 1.374 . S
C310 H284 0.950 . S
C310 C306 1.385 . S
C310 C309 1.374 . S
C311 C308 1.499 . S
C311 C312 1.373 . S
C311 C313 1.389 . S
C312 H285 0.950 . S
C312 C298 1.377 . S
C312 C311 1.373 . S
C313 C297 1.377 . S
C313 C311 1.389 . S
C313 C314 1.524 . S
C314 C313 1.524 . S
C314 C315 1.397 . S
C314 C319 1.363 . S
C315 H286 0.950 . S
C315 C314 1.397 . S
C315 C316 1.334 . S
C316 H287 0.950 . S
C316 C315 1.334 . S
C316 C317 1.287 . S
C317 C316 1.287 . S
C317 C318 1.524 . S
C317 H320 0.999 . S
C318 H288 0.950 . S
C318 C317 1.524 . S
C318 C319 1.415 . S
C319 H289 0.950 . S
C319 C314 1.363 . S
C319 C318 1.415 . S
H320 C317 0.999 . S
H321 C302 0.913 . S
H322 C340 0.951 . S
H323 C342 0.951 . S
H324 C344 0.950 . S
H325 C345 0.950 . S
H326 C347 0.950 . S
H327 C350 0.950 . S
H328 C351 0.950 . S
H329 C353 0.950 . S
H330 C354 0.950 . S
H331 C355 0.951 . S
H332 C357 0.951 . S
H333 C359 0.950 . S
H334 C360 0.950 . S
H335 C362 0.950 . S
H336 C365 0.950 . S
H337 C366 0.950 . S
H338 C368 0.950 . S
H339 C369 0.950 . S
C340 H322 0.951 . S
C340 C341 1.366 . S
C340 C342 1.388 . S
C341 C340 1.366 . S
C341 C345 1.385 . S
C342 H323 0.951 . S
C342 C340 1.388 . S
C342 C343 1.366 . S
C343 C342 1.366 . S
C343 C344 1.414 . S
C343 C346 1.499 . S
C344 H324 0.950 . S
C344 C343 1.414 . S
C344 C345 1.374 . S
C345 H325 0.950 . S
C345 C341 1.385 . S
C345 C344 1.374 . S
C346 C343 1.499 . S
C346 C347 1.373 . S
C346 C348 1.389 . S
C347 H326 0.950 . S
C347 C346 1.373 . S
C347 C363 1.377 . S
C348 C346 1.389 . S
C348 C349 1.524 . S
C348 C362 1.377 . S
C349 C348 1.524 . S
C349 C350 1.397 . S
C349 C354 1.363 . S
C350 H327 0.950 . S
C350 C349 1.397 . S
C350 C351 1.334 1_565 S
C351 H328 0.950 . S
C351 C350 1.334 1_545 S
C351 C352 1.287 . S
C352 C351 1.287 . S
C352 C353 1.524 1_545 S
C352 H371 0.913 . S
C353 H329 0.950 . S
C353 C352 1.524 1_565 S
C353 C354 1.415 . S
C354 H330 0.950 . S
C354 C349 1.363 . S
C354 C353 1.415 . S
C355 H331 0.951 . S
C355 C356 1.366 . S
C355 C357 1.388 . S
C356 C355 1.366 . S
C356 C360 1.385 . S
C357 H332 0.951 . S
C357 C355 1.388 . S
C357 C358 1.366 . S
C358 C357 1.366 . S
C358 C359 1.414 . S
C358 C361 1.499 . S
C359 H333 0.950 . S
C359 C358 1.414 . S
C359 C360 1.374 . S
C360 H334 0.950 . S
C360 C356 1.385 . S
C360 C359 1.374 . S
C361 C358 1.499 . S
C361 C362 1.373 . S
C361 C363 1.389 . S
C362 H335 0.950 . S
C362 C348 1.377 . S
C362 C361 1.373 . S
C363 C347 1.377 . S
C363 C361 1.389 . S
C363 C364 1.524 . S
C364 C363 1.524 . S
C364 C365 1.397 . S
C364 C369 1.363 . S
C365 H336 0.950 . S
C365 C364 1.397 . S
C365 C366 1.334 . S
C366 H337 0.950 . S
C366 C365 1.334 . S
C366 C367 1.287 . S
C367 C366 1.287 . S
C367 C368 1.524 . S
C367 H370 0.999 . S
C368 H338 0.950 . S
C368 C367 1.524 . S
C368 C369 1.415 . S
C369 H339 0.950 . S
C369 C364 1.363 . S
C369 C368 1.415 . S
H370 C367 0.999 . S
H371 C352 0.913 . S
H372 C390 0.951 . S
H373 C392 0.951 . S
H374 C394 0.950 . S
H375 C395 0.950 . S
H376 C397 0.950 . S
H377 C400 0.950 . S
H378 C401 0.950 . S
H379 C403 0.950 . S
H380 C404 0.950 . S
H381 C405 0.951 . S
H382 C407 0.951 . S
H383 C409 0.950 . S
H384 C410 0.950 . S
H385 C412 0.950 . S
H386 C415 0.950 . S
H387 C416 0.950 . S
H388 C418 0.950 . S
H389 C419 0.950 . S
C390 H372 0.951 . S
C390 C391 1.366 . S
C390 C392 1.388 . S
C391 C390 1.366 . S
C391 C395 1.385 . S
C392 H373 0.951 . S
C392 C390 1.388 . S
C392 C393 1.366 . S
C393 C392 1.366 . S
C393 C394 1.414 . S
C393 C396 1.499 . S
C394 H374 0.950 . S
C394 C393 1.414 . S
C394 C395 1.374 . S
C395 H375 0.950 . S
C395 C391 1.385 . S
C395 C394 1.374 . S
C396 C393 1.499 . S
C396 C397 1.373 . S
C396 C398 1.389 . S
C397 H376 0.950 . S
C397 C396 1.373 . S
C397 C413 1.377 . S
C398 C396 1.389 . S
C398 C399 1.524 . S
C398 C412 1.377 . S
C399 C398 1.524 . S
C399 C400 1.397 . S
C399 C404 1.363 . S
C400 H377 0.950 . S
C400 C399 1.397 . S
C400 C401 1.334 1_655 S
C401 H378 0.950 . S
C401 C400 1.334 1_455 S
C401 C402 1.287 . S
C402 C401 1.287 . S
C402 C403 1.524 . S
C402 H421 0.913 . S
C403 H379 0.950 . S
C403 C402 1.524 . S
C403 C404 1.415 1_455 S
C404 H380 0.950 . S
C404 C399 1.363 . S
C404 C403 1.415 1_655 S
C405 H381 0.951 . S
C405 C406 1.366 . S
C405 C407 1.388 . S
C406 C405 1.366 . S
C406 C410 1.385 . S
C407 H382 0.951 . S
C407 C405 1.388 . S
C407 C408 1.366 . S
C408 C407 1.366 . S
C408 C409 1.414 . S
C408 C411 1.499 . S
C409 H383 0.950 . S
C409 C408 1.414 . S
C409 C410 1.374 . S
C410 H384 0.950 . S
C410 C406 1.385 . S
C410 C409 1.374 . S
C411 C408 1.499 . S
C411 C412 1.373 . S
C411 C413 1.389 . S
C412 H385 0.950 . S
C412 C398 1.377 . S
C412 C411 1.373 . S
C413 C397 1.377 . S
C413 C411 1.389 . S
C413 C414 1.524 . S
C414 C413 1.524 . S
C414 C415 1.397 . S
C414 C419 1.363 . S
C415 H386 0.950 . S
C415 C414 1.397 . S
C415 C416 1.334 . S
C416 H387 0.950 . S
C416 C415 1.334 . S
C416 C417 1.287 . S
C417 C416 1.287 . S
C417 C418 1.524 . S
C417 H420 0.999 . S
C418 H388 0.950 . S
C418 C417 1.524 . S
C418 C419 1.415 . S
C419 H389 0.950 . S
C419 C414 1.363 . S
C419 C418 1.415 . S
H420 C417 0.999 . S
H421 C402 0.913 . S
H422 C440 0.951 . S
H423 C442 0.951 . S
H424 C444 0.950 . S
H425 C445 0.950 . S
H426 C447 0.950 . S
H427 C450 0.950 . S
H428 C451 0.950 . S
H429 C453 0.950 . S
H430 C454 0.950 . S
H431 C455 0.951 . S
H432 C457 0.951 . S
H433 C459 0.950 . S
H434 C460 0.950 . S
H435 C462 0.950 . S
H436 C465 0.950 . S
H437 C466 0.950 . S
H438 C468 0.950 . S
H439 C469 0.950 . S
C440 H422 0.951 . S
C440 C441 1.366 . S
C440 C442 1.388 . S
C441 C440 1.366 . S
C441 C445 1.385 . S
C442 H423 0.951 . S
C442 C440 1.388 . S
C442 C443 1.366 . S
C443 C442 1.366 . S
C443 C444 1.414 . S
C443 C446 1.499 . S
C444 H424 0.950 . S
C444 C443 1.414 . S
C444 C445 1.374 . S
C445 H425 0.950 . S
C445 C441 1.385 . S
C445 C444 1.374 . S
C446 C443 1.499 . S
C446 C447 1.373 . S
C446 C448 1.389 . S
C447 H426 0.950 . S
C447 C446 1.373 . S
C447 C463 1.377 . S
C448 C446 1.389 . S
C448 C449 1.524 . S
C448 C462 1.377 . S
C449 C448 1.524 . S
C449 C450 1.397 . S
C449 C454 1.363 . S
C450 H427 0.950 . S
C450 C449 1.397 . S
C450 C451 1.334 1_565 S
C451 H428 0.950 . S
C451 C450 1.334 1_545 S
C451 C452 1.287 . S
C452 C451 1.287 . S
C452 C453 1.524 . S
C452 H471 0.913 . S
C453 H429 0.950 . S
C453 C452 1.524 . S
C453 C454 1.415 1_545 S
C454 H430 0.950 . S
C454 C449 1.363 . S
C454 C453 1.415 1_565 S
C455 H431 0.951 . S
C455 C456 1.366 . S
C455 C457 1.388 . S
C456 C455 1.366 . S
C456 C460 1.385 . S
C457 H432 0.951 . S
C457 C455 1.388 . S
C457 C458 1.366 . S
C458 C457 1.366 . S
C458 C459 1.414 . S
C458 C461 1.499 . S
C459 H433 0.950 . S
C459 C458 1.414 . S
C459 C460 1.374 . S
C460 H434 0.950 . S
C460 C456 1.385 . S
C460 C459 1.374 . S
C461 C458 1.499 . S
C461 C462 1.373 . S
C461 C463 1.389 . S
C462 H435 0.950 . S
C462 C448 1.377 . S
C462 C461 1.373 . S
C463 C447 1.377 . S
C463 C461 1.389 . S
C463 C464 1.524 . S
C464 C463 1.524 . S
C464 C465 1.397 . S
C464 C469 1.363 . S
C465 H436 0.950 . S
C465 C464 1.397 . S
C465 C466 1.334 . S
C466 H437 0.950 . S
C466 C465 1.334 . S
C466 C467 1.287 . S
C467 C466 1.287 . S
C467 C468 1.524 . S
C467 H470 0.999 . S
C468 H438 0.950 . S
C468 C467 1.524 . S
C468 C469 1.415 . S
C469 H439 0.950 . S
C469 C464 1.363 . S
C469 C468 1.415 . S
H470 C467 0.999 . S
H471 C452 0.913 . S
H472 C490 0.951 . S
H473 C492 0.951 . S
H474 C494 0.950 . S
H475 C495 0.950 . S
H476 C497 0.950 . S
H477 C500 0.950 . S
H478 C501 0.950 . S
H479 C503 0.928 1_554 S
H480 C504 0.950 . S
H481 C505 0.951 . S
H482 C507 0.951 . S
H483 C509 0.950 . S
H484 C510 0.950 . S
H485 C512 0.950 . S
H486 C515 0.950 . S
H487 C516 0.950 . S
H488 C518 0.950 . S
H489 C519 0.950 . S
C490 H472 0.951 . S
C490 C491 1.366 . S
C490 C492 1.388 . S
C491 C490 1.366 . S
C491 C495 1.385 . S
C492 H473 0.951 . S
C492 C490 1.388 . S
C492 C493 1.366 . S
C493 C492 1.366 . S
C493 C494 1.414 . S
C493 C496 1.499 . S
C494 H474 0.950 . S
C494 C493 1.414 . S
C494 C495 1.374 . S
C495 H475 0.950 . S
C495 C491 1.385 . S
C495 C494 1.374 . S
C496 C493 1.499 . S
C496 C497 1.373 . S
C496 C498 1.389 . S
C497 H476 0.950 . S
C497 C496 1.373 . S
C497 C513 1.377 . S
C498 C496 1.389 . S
C498 C499 1.524 . S
C498 C512 1.377 . S
C499 C498 1.524 . S
C499 C500 1.397 . S
C499 C504 1.363 . S
C500 H477 0.950 . S
C500 C499 1.397 . S
C500 C501 1.334 . S
C501 H478 0.950 . S
C501 C500 1.334 . S
C501 C502 1.287 . S
C502 C501 1.287 . S
C502 C503 1.524 . S
C502 H521 0.942 . S
C503 H479 0.928 1_556 S
C503 C502 1.524 . S
C503 C504 1.415 . S
C504 H480 0.950 . S
C504 C499 1.363 . S
C504 C503 1.415 . S
C505 H481 0.951 . S
C505 C506 1.366 . S
C505 C507 1.388 . S
C506 C505 1.366 . S
C506 C510 1.385 . S
C507 H482 0.951 . S
C507 C505 1.388 . S
C507 C508 1.366 . S
C508 C507 1.366 . S
C508 C509 1.414 . S
C508 C511 1.499 . S
C509 H483 0.950 . S
C509 C508 1.414 . S
C509 C510 1.374 . S
C510 H484 0.950 . S
C510 C506 1.385 . S
C510 C509 1.374 . S
C511 C508 1.499 . S
C511 C512 1.373 . S
C511 C513 1.389 . S
C512 H485 0.950 . S
C512 C498 1.377 . S
C512 C511 1.373 . S
C513 C497 1.377 . S
C513 C511 1.389 . S
C513 C514 1.524 . S
C514 C513 1.524 . S
C514 C515 1.397 . S
C514 C519 1.363 . S
C515 H486 0.950 . S
C515 C514 1.397 . S
C515 C516 1.334 . S
C516 H487 0.950 . S
C516 C515 1.334 . S
C516 C517 1.287 . S
C517 C516 1.287 . S
C517 C518 1.524 . S
C517 H520 0.999 . S
C518 H488 0.950 . S
C518 C517 1.524 . S
C518 C519 1.415 . S
C519 H489 0.950 . S
C519 C514 1.363 . S
C519 C518 1.415 . S
H520 C517 0.999 . S
H521 C502 0.942 . S
H522 C540 0.951 . S
H523 C542 0.951 . S
H524 C544 0.950 . S
H525 C545 0.950 . S
H526 C547 0.950 . S
H527 C550 0.950 . S
H528 C551 0.950 . S
H529 C553 0.950 . S
H530 C554 0.950 . S
H531 C555 0.951 . S
H532 C557 0.951 . S
H533 C559 0.950 . S
H534 C560 0.950 . S
H535 C562 0.950 . S
H536 C565 0.950 . S
H537 C566 0.950 . S
H538 C568 0.950 . S
H539 C569 0.950 . S
C540 H522 0.951 . S
C540 C541 1.366 . S
C540 C542 1.388 . S
C541 C540 1.366 . S
C541 C545 1.385 . S
C542 H523 0.951 . S
C542 C540 1.388 . S
C542 C543 1.366 . S
C543 C542 1.366 . S
C543 C544 1.414 . S
C543 C546 1.499 . S
C544 H524 0.950 . S
C544 C543 1.414 . S
C544 C545 1.374 . S
C545 H525 0.950 . S
C545 C541 1.385 . S
C545 C544 1.374 . S
C546 C543 1.499 . S
C546 C547 1.373 . S
C546 C548 1.389 . S
C547 H526 0.950 . S
C547 C546 1.373 . S
C547 C563 1.377 . S
C548 C546 1.389 . S
C548 C549 1.524 . S
C548 C562 1.377 . S
C549 C548 1.524 . S
C549 C550 1.397 . S
C549 C554 1.363 . S
C550 H527 0.950 . S
C550 C549 1.397 . S
C550 C551 1.334 . S
C551 H528 0.950 . S
C551 C550 1.334 . S
C551 C552 1.287 . S
C552 C551 1.287 . S
C552 C553 1.524 . S
C552 H571 0.913 . S
C553 H529 0.950 . S
C553 C552 1.524 . S
C553 C554 1.415 . S
C554 H530 0.950 . S
C554 C549 1.363 . S
C554 C553 1.415 . S
C555 H531 0.951 . S
C555 C556 1.366 . S
C555 C557 1.388 . S
C556 C555 1.366 . S
C556 C560 1.385 . S
C557 H532 0.951 . S
C557 C555 1.388 . S
C557 C558 1.366 . S
C558 C557 1.366 . S
C558 C559 1.414 . S
C558 C561 1.499 . S
C559 H533 0.950 . S
C559 C558 1.414 . S
C559 C560 1.374 . S
C560 H534 0.950 . S
C560 C556 1.385 . S
C560 C559 1.374 . S
C561 C558 1.499 . S
C561 C562 1.373 . S
C561 C563 1.389 . S
C562 H535 0.950 . S
C562 C548 1.377 . S
C562 C561 1.373 . S
C563 C547 1.377 . S
C563 C561 1.389 . S
C563 C564 1.524 . S
C564 C563 1.524 . S
C564 C565 1.397 . S
C564 C569 1.363 . S
C565 H536 0.950 . S
C565 C564 1.397 . S
C565 C566 1.334 . S
C566 H537 0.950 . S
C566 C565 1.334 . S
C566 C567 1.287 . S
C567 C566 1.287 . S
C567 C568 1.524 . S
C567 H570 0.999 . S
C568 H538 0.950 . S
C568 C567 1.524 . S
C568 C569 1.415 . S
C569 H539 0.950 . S
C569 C564 1.363 . S
C569 C568 1.415 . S
H570 C567 0.999 . S
H571 C552 0.913 . S
H572 C590 0.951 . S
H573 C592 0.951 . S
H574 C594 0.950 . S
H575 C595 0.950 . S
H576 C597 0.950 . S
H577 C600 0.950 . S
H578 C601 0.950 . S
H579 C603 0.950 . S
H580 C604 0.950 . S
H581 C605 0.951 . S
H582 C607 0.951 . S
H583 C609 0.950 . S
H584 C610 0.950 . S
H585 C612 0.950 . S
H586 C615 0.950 . S
H587 C616 0.950 . S
H588 C618 0.950 . S
H589 C619 0.950 . S
C590 H572 0.951 . S
C590 C591 1.366 . S
C590 C592 1.388 . S
C591 C590 1.366 . S
C591 C595 1.385 . S
C592 H573 0.951 . S
C592 C590 1.388 . S
C592 C593 1.366 . S
C593 C592 1.366 . S
C593 C594 1.414 . S
C593 C596 1.499 . S
C594 H574 0.950 . S
C594 C593 1.414 . S
C594 C595 1.374 . S
C595 H575 0.950 . S
C595 C591 1.385 . S
C595 C594 1.374 . S
C596 C593 1.499 . S
C596 C597 1.373 . S
C596 C598 1.389 . S
C597 H576 0.950 . S
C597 C596 1.373 . S
C597 C613 1.377 . S
C598 C596 1.389 . S
C598 C599 1.524 . S
C598 C612 1.377 . S
C599 C598 1.524 . S
C599 C600 1.397 . S
C599 C604 1.363 . S
C600 H577 0.950 . S
C600 C599 1.397 . S
C600 C601 1.334 1_655 S
C601 H578 0.950 . S
C601 C600 1.334 1_455 S
C601 C602 1.287 . S
C602 C601 1.287 . S
C602 C603 1.524 . S
C602 H621 0.913 . S
C603 H579 0.950 . S
C603 C602 1.524 . S
C603 C604 1.415 1_455 S
C604 H580 0.950 . S
C604 C599 1.363 . S
C604 C603 1.415 1_655 S
C605 H581 0.951 . S
C605 C606 1.366 . S
C605 C607 1.388 . S
C606 C605 1.366 . S
C606 C610 1.385 . S
C607 H582 0.951 . S
C607 C605 1.388 . S
C607 C608 1.366 . S
C608 C607 1.366 . S
C608 C609 1.414 . S
C608 C611 1.499 . S
C609 H583 0.950 . S
C609 C608 1.414 . S
C609 C610 1.374 . S
C610 H584 0.950 . S
C610 C606 1.385 . S
C610 C609 1.374 . S
C611 C608 1.499 . S
C611 C612 1.373 . S
C611 C613 1.389 . S
C612 H585 0.950 . S
C612 C598 1.377 . S
C612 C611 1.373 . S
C613 C597 1.377 . S
C613 C611 1.389 . S
C613 C614 1.524 . S
C614 C613 1.524 . S
C614 C615 1.397 . S
C614 C619 1.363 . S
C615 H586 0.950 . S
C615 C614 1.397 . S
C615 C616 1.334 . S
C616 H587 0.950 . S
C616 C615 1.334 . S
C616 C617 1.287 . S
C617 C616 1.287 . S
C617 C618 1.524 . S
C617 H620 0.999 1_545 S
C618 H588 0.950 . S
C618 C617 1.524 . S
C618 C619 1.415 . S
C619 H589 0.950 . S
C619 C614 1.363 . S
C619 C618 1.415 . S
H620 C617 0.999 1_565 S
H621 C602 0.913 . S
H622 C640 0.951 . S
H623 C642 0.951 . S
H624 C644 0.950 . S
H625 C645 0.950 . S
H626 C647 0.950 . S
H627 C650 0.950 . S
H628 C651 0.950 1_545 S
H629 C653 0.950 . S
H630 C654 0.950 . S
H631 C655 0.951 . S
H632 C657 0.951 . S
H633 C659 0.950 . S
H634 C660 0.950 . S
H635 C662 0.950 . S
H636 C665 0.950 . S
H637 C666 0.950 . S
H638 C668 0.950 . S
H639 C669 0.950 . S
C640 H622 0.951 . S
C640 C641 1.366 . S
C640 C642 1.388 . S
C641 C640 1.366 . S
C641 C645 1.385 . S
C642 H623 0.951 . S
C642 C640 1.388 . S
C642 C643 1.366 . S
C643 C642 1.366 . S
C643 C644 1.414 . S
C643 C646 1.499 . S
C644 H624 0.950 . S
C644 C643 1.414 . S
C644 C645 1.374 . S
C645 H625 0.950 . S
C645 C641 1.385 . S
C645 C644 1.374 . S
C646 C643 1.499 . S
C646 C647 1.373 . S
C646 C648 1.389 . S
C647 H626 0.950 . S
C647 C646 1.373 . S
C647 C663 1.377 . S
C648 C646 1.389 . S
C648 C649 1.524 . S
C648 C662 1.377 . S
C649 C648 1.524 . S
C649 C650 1.397 . S
C649 C654 1.363 . S
C650 H627 0.950 . S
C650 C649 1.397 . S
C650 C651 1.334 . S
C651 H628 0.950 1_565 S
C651 C650 1.334 . S
C651 C652 1.287 . S
C652 C651 1.287 . S
C652 C653 1.524 . S
C652 H671 0.913 . S
C653 H629 0.950 . S
C653 C652 1.524 . S
C653 C654 1.415 . S
C654 H630 0.950 . S
C654 C649 1.363 . S
C654 C653 1.415 . S
C655 H631 0.951 . S
C655 C656 1.366 . S
C655 C657 1.388 . S
C656 C655 1.366 . S
C656 C660 1.385 . S
C657 H632 0.951 . S
C657 C655 1.388 . S
C657 C658 1.366 . S
C658 C657 1.366 . S
C658 C659 1.414 . S
C658 C661 1.499 . S
C659 H633 0.950 . S
C659 C658 1.414 . S
C659 C660 1.374 . S
C660 H634 0.950 . S
C660 C656 1.385 . S
C660 C659 1.374 . S
C661 C658 1.499 . S
C661 C662 1.373 . S
C661 C663 1.389 . S
C662 H635 0.950 . S
C662 C648 1.377 . S
C662 C661 1.373 . S
C663 C647 1.377 . S
C663 C661 1.389 . S
C663 C664 1.524 . S
C664 C663 1.524 . S
C664 C665 1.397 . S
C664 C669 1.363 . S
C665 H636 0.950 . S
C665 C664 1.397 . S
C665 C666 1.334 . S
C666 H637 0.950 . S
C666 C665 1.334 . S
C666 C667 1.287 . S
C667 C666 1.287 . S
C667 C668 1.524 . S
C667 H670 0.999 . S
C668 H638 0.950 . S
C668 C667 1.524 . S
C668 C669 1.415 . S
C669 H639 0.950 . S
C669 C664 1.363 . S
C669 C668 1.415 . S
H670 C667 0.999 . S
H671 C652 0.913 . S
H672 C690 0.951 . S
H673 C692 0.951 . S
H674 C694 0.950 . S
H675 C695 0.950 . S
H676 C697 0.950 . S
H677 C700 0.950 . S
H678 C701 0.950 . S
H679 C703 0.950 . S
H680 C704 0.950 . S
H681 C705 0.951 . S
H682 C707 0.951 . S
H683 C709 0.950 . S
H684 C710 0.950 . S
H685 C712 0.950 . S
H686 C715 0.950 . S
H687 C716 0.950 . S
H688 C718 0.950 . S
H689 C719 0.950 . S
C690 H672 0.951 . S
C690 C691 1.366 . S
C690 C692 1.388 . S
C691 C690 1.366 . S
C691 C695 1.385 . S
C692 H673 0.951 . S
C692 C690 1.388 . S
C692 C693 1.366 . S
C693 C692 1.366 . S
C693 C694 1.414 . S
C693 C696 1.499 . S
C694 H674 0.950 . S
C694 C693 1.414 . S
C694 C695 1.374 . S
C695 H675 0.950 . S
C695 C691 1.385 . S
C695 C694 1.374 . S
C696 C693 1.499 . S
C696 C697 1.373 . S
C696 C698 1.389 . S
C697 H676 0.950 . S
C697 C696 1.373 . S
C697 C713 1.377 . S
C698 C696 1.389 . S
C698 C699 1.524 . S
C698 C712 1.377 . S
C699 C698 1.524 . S
C699 C700 1.397 . S
C699 C704 1.363 . S
C700 H677 0.950 . S
C700 C699 1.397 . S
C700 C701 1.334 . S
C701 H678 0.950 . S
C701 C700 1.334 . S
C701 C702 1.287 . S
C702 C701 1.287 . S
C702 C703 1.524 . S
C702 H721 0.913 . S
C703 H679 0.950 . S
C703 C702 1.524 . S
C703 C704 1.415 . S
C704 H680 0.950 . S
C704 C699 1.363 . S
C704 C703 1.415 . S
C705 H681 0.951 . S
C705 C706 1.366 . S
C705 C707 1.388 . S
C706 C705 1.366 . S
C706 C710 1.385 . S
C707 H682 0.951 . S
C707 C705 1.388 . S
C707 C708 1.366 . S
C708 C707 1.366 . S
C708 C709 1.414 . S
C708 C711 1.499 . S
C709 H683 0.950 . S
C709 C708 1.414 . S
C709 C710 1.374 . S
C710 H684 0.950 . S
C710 C706 1.385 . S
C710 C709 1.374 . S
C711 C708 1.499 . S
C711 C712 1.373 . S
C711 C713 1.389 . S
C712 H685 0.950 . S
C712 C698 1.377 . S
C712 C711 1.373 . S
C713 C697 1.377 . S
C713 C711 1.389 . S
C713 C714 1.524 . S
C714 C713 1.524 . S
C714 C715 1.397 . S
C714 C719 1.363 . S
C715 H686 0.950 . S
C715 C714 1.397 . S
C715 C716 1.334 . S
C716 H687 0.950 . S
C716 C715 1.334 . S
C716 C717 1.287 . S
C717 C716 1.287 . S
C717 C718 1.524 . S
C717 H720 0.999 . S
C718 H688 0.950 . S
C718 C717 1.524 . S
C718 C719 1.415 . S
C719 H689 0.950 . S
C719 C714 1.363 . S
C719 C718 1.415 . S
H720 C717 0.999 . S
H721 C702 0.913 . S
C141 C19 1.874 . S
C156 C99 1.816 . S
C191 C59 1.118 . S
C206 C105 1.056 . S
C241 C6 0.755 . S
C256 C96 0.753 . S
C291 C46 1.255 . S
C306 C121 1.150 . S
C341 C9 2.096 . S
C356 C87 1.988 . S
C406 C104 2.292 . S
C391 C49 2.369 . S
C441 C55 1.163 . S
C456 C100 1.085 . S
C506 C117 1.784 . S
C491 C18 1.853 . S
C556 C84 2.127 . S
C541 C58 2.224 . S
C606 C120 1.994 . S
C591 C10 2.042 . S
C656 C83 1.263 . S
C641 C50 1.324 . S
C706 C108 0.754 . S
C691 C15 0.755 . S
