# Generated by pormake.
# Topology iac, (4,6)-cn, num edge types: 1
# Building blocks:
#     Node 0, Type 0, BuildingBlock: GALJAG_clean_sbu_0, # of connection points: 4
#     Node 1, Type 0, BuildingBlock: GALJAG_clean_sbu_0, # of connection points: 4
#     Node 2, Type 0, BuildingBlock: GALJAG_clean_sbu_0, # of connection points: 4
#     Node 3, Type 0, BuildingBlock: GALJAG_clean_sbu_0, # of connection points: 4
#     Node 4, Type 0, BuildingBlock: GALJAG_clean_sbu_0, # of connection points: 4
#     Node 5, Type 0, BuildingBlock: GALJAG_clean_sbu_0, # of connection points: 4
#     Node 6, Type 0, BuildingBlock: GALJAG_clean_sbu_0, # of connection points: 4
#     Node 7, Type 0, BuildingBlock: GALJAG_clean_sbu_0, # of connection points: 4
#     Node 8, Type 0, BuildingBlock: GALJAG_clean_sbu_0, # of connection points: 4
#     Node 9, Type 0, BuildingBlock: GALJAG_clean_sbu_0, # of connection points: 4
#     Node 10, Type 0, BuildingBlock: GALJAG_clean_sbu_0, # of connection points: 4
#     Node 11, Type 0, BuildingBlock: GALJAG_clean_sbu_0, # of connection points: 4
#     Node 12, Type 0, BuildingBlock: GALJAG_clean_sbu_0, # of connection points: 4
#     Node 13, Type 0, BuildingBlock: GALJAG_clean_sbu_0, # of connection points: 4
#     Node 14, Type 0, BuildingBlock: GALJAG_clean_sbu_0, # of connection points: 4
#     Node 15, Type 0, BuildingBlock: GALJAG_clean_sbu_0, # of connection points: 4
#     Node 16, Type 0, BuildingBlock: GALJAG_clean_sbu_0, # of connection points: 4
#     Node 17, Type 0, BuildingBlock: GALJAG_clean_sbu_0, # of connection points: 4
#     Node 18, Type 0, BuildingBlock: GALJAG_clean_sbu_0, # of connection points: 4
#     Node 19, Type 0, BuildingBlock: GALJAG_clean_sbu_0, # of connection points: 4
#     Node 20, Type 0, BuildingBlock: GALJAG_clean_sbu_0, # of connection points: 4
#     Node 21, Type 0, BuildingBlock: GALJAG_clean_sbu_0, # of connection points: 4
#     Node 22, Type 0, BuildingBlock: GALJAG_clean_sbu_0, # of connection points: 4
#     Node 23, Type 0, BuildingBlock: GALJAG_clean_sbu_0, # of connection points: 4
#     Node 24, Type 1, BuildingBlock: CIFDUS_clean_sbu_1, # of connection points: 6
#     Node 25, Type 1, BuildingBlock: CIFDUS_clean_sbu_1, # of connection points: 6
#     Node 26, Type 1, BuildingBlock: CIFDUS_clean_sbu_1, # of connection points: 6
#     Node 27, Type 1, BuildingBlock: CIFDUS_clean_sbu_1, # of connection points: 6
#     Node 28, Type 1, BuildingBlock: CIFDUS_clean_sbu_1, # of connection points: 6
#     Node 29, Type 1, BuildingBlock: CIFDUS_clean_sbu_1, # of connection points: 6
#     Node 30, Type 1, BuildingBlock: CIFDUS_clean_sbu_1, # of connection points: 6
#     Node 31, Type 1, BuildingBlock: CIFDUS_clean_sbu_1, # of connection points: 6
#     Node 32, Type 1, BuildingBlock: CIFDUS_clean_sbu_1, # of connection points: 6
#     Node 33, Type 1, BuildingBlock: CIFDUS_clean_sbu_1, # of connection points: 6
#     Node 34, Type 1, BuildingBlock: CIFDUS_clean_sbu_1, # of connection points: 6
#     Node 35, Type 1, BuildingBlock: CIFDUS_clean_sbu_1, # of connection points: 6
#     Node 36, Type 1, BuildingBlock: CIFDUS_clean_sbu_1, # of connection points: 6
#     Node 37, Type 1, BuildingBlock: CIFDUS_clean_sbu_1, # of connection points: 6
#     Node 38, Type 1, BuildingBlock: CIFDUS_clean_sbu_1, # of connection points: 6
#     Node 39, Type 1, BuildingBlock: CIFDUS_clean_sbu_1, # of connection points: 6
#     Edge 40, Type (0, 1), BuildingBlock: XIVTED_clean_linker_0, # of connection points: 2
#     Edge 41, Type (0, 1), BuildingBlock: XIVTED_clean_linker_0, # of connection points: 2
#     Edge 42, Type (0, 1), BuildingBlock: XIVTED_clean_linker_0, # of connection points: 2
#     Edge 43, Type (0, 1), BuildingBlock: XIVTED_clean_linker_0, # of connection points: 2
#     Edge 44, Type (0, 1), BuildingBlock: XIVTED_clean_linker_0, # of connection points: 2
#     Edge 45, Type (0, 1), BuildingBlock: XIVTED_clean_linker_0, # of connection points: 2
#     Edge 46, Type (0, 1), BuildingBlock: XIVTED_clean_linker_0, # of connection points: 2
#     Edge 47, Type (0, 1), BuildingBlock: XIVTED_clean_linker_0, # of connection points: 2
#     Edge 48, Type (0, 1), BuildingBlock: XIVTED_clean_linker_0, # of connection points: 2
#     Edge 49, Type (0, 1), BuildingBlock: XIVTED_clean_linker_0, # of connection points: 2
#     Edge 50, Type (0, 1), BuildingBlock: XIVTED_clean_linker_0, # of connection points: 2
#     Edge 51, Type (0, 1), BuildingBlock: XIVTED_clean_linker_0, # of connection points: 2
#     Edge 52, Type (0, 1), BuildingBlock: XIVTED_clean_linker_0, # of connection points: 2
#     Edge 53, Type (0, 1), BuildingBlock: XIVTED_clean_linker_0, # of connection points: 2
#     Edge 54, Type (0, 1), BuildingBlock: XIVTED_clean_linker_0, # of connection points: 2
#     Edge 55, Type (0, 1), BuildingBlock: XIVTED_clean_linker_0, # of connection points: 2
#     Edge 56, Type (0, 1), BuildingBlock: XIVTED_clean_linker_0, # of connection points: 2
#     Edge 57, Type (0, 1), BuildingBlock: XIVTED_clean_linker_0, # of connection points: 2
#     Edge 58, Type (0, 1), BuildingBlock: XIVTED_clean_linker_0, # of connection points: 2
#     Edge 59, Type (0, 1), BuildingBlock: XIVTED_clean_linker_0, # of connection points: 2
#     Edge 60, Type (0, 1), BuildingBlock: XIVTED_clean_linker_0, # of connection points: 2
#     Edge 61, Type (0, 1), BuildingBlock: XIVTED_clean_linker_0, # of connection points: 2
#     Edge 62, Type (0, 1), BuildingBlock: XIVTED_clean_linker_0, # of connection points: 2
#     Edge 63, Type (0, 1), BuildingBlock: XIVTED_clean_linker_0, # of connection points: 2
#     Edge 64, Type (0, 1), BuildingBlock: XIVTED_clean_linker_0, # of connection points: 2
#     Edge 65, Type (0, 1), BuildingBlock: XIVTED_clean_linker_0, # of connection points: 2
#     Edge 66, Type (0, 1), BuildingBlock: XIVTED_clean_linker_0, # of connection points: 2
#     Edge 67, Type (0, 1), BuildingBlock: XIVTED_clean_linker_0, # of connection points: 2
#     Edge 68, Type (0, 1), BuildingBlock: XIVTED_clean_linker_0, # of connection points: 2
#     Edge 69, Type (0, 1), BuildingBlock: XIVTED_clean_linker_0, # of connection points: 2
#     Edge 70, Type (0, 1), BuildingBlock: XIVTED_clean_linker_0, # of connection points: 2
#     Edge 71, Type (0, 1), BuildingBlock: XIVTED_clean_linker_0, # of connection points: 2
#     Edge 72, Type (0, 1), BuildingBlock: XIVTED_clean_linker_0, # of connection points: 2
#     Edge 73, Type (0, 1), BuildingBlock: XIVTED_clean_linker_0, # of connection points: 2
#     Edge 74, Type (0, 1), BuildingBlock: XIVTED_clean_linker_0, # of connection points: 2
#     Edge 75, Type (0, 1), BuildingBlock: XIVTED_clean_linker_0, # of connection points: 2
#     Edge 76, Type (0, 1), BuildingBlock: XIVTED_clean_linker_0, # of connection points: 2
#     Edge 77, Type (0, 1), BuildingBlock: XIVTED_clean_linker_0, # of connection points: 2
#     Edge 78, Type (0, 1), BuildingBlock: XIVTED_clean_linker_0, # of connection points: 2
#     Edge 79, Type (0, 1), BuildingBlock: XIVTED_clean_linker_0, # of connection points: 2
#     Edge 80, Type (0, 1), BuildingBlock: XIVTED_clean_linker_0, # of connection points: 2
#     Edge 81, Type (0, 1), BuildingBlock: XIVTED_clean_linker_0, # of connection points: 2
#     Edge 82, Type (0, 1), BuildingBlock: XIVTED_clean_linker_0, # of connection points: 2
#     Edge 83, Type (0, 1), BuildingBlock: XIVTED_clean_linker_0, # of connection points: 2
#     Edge 84, Type (0, 1), BuildingBlock: XIVTED_clean_linker_0, # of connection points: 2
#     Edge 85, Type (0, 1), BuildingBlock: XIVTED_clean_linker_0, # of connection points: 2
#     Edge 86, Type (0, 1), BuildingBlock: XIVTED_clean_linker_0, # of connection points: 2
#     Edge 87, Type (0, 1), BuildingBlock: XIVTED_clean_linker_0, # of connection points: 2
#     Edge 88, Type (0, 1), BuildingBlock: XIVTED_clean_linker_0, # of connection points: 2
#     Edge 89, Type (0, 1), BuildingBlock: XIVTED_clean_linker_0, # of connection points: 2
#     Edge 90, Type (0, 1), BuildingBlock: XIVTED_clean_linker_0, # of connection points: 2
#     Edge 91, Type (0, 1), BuildingBlock: XIVTED_clean_linker_0, # of connection points: 2
#     Edge 92, Type (0, 1), BuildingBlock: XIVTED_clean_linker_0, # of connection points: 2
#     Edge 93, Type (0, 1), BuildingBlock: XIVTED_clean_linker_0, # of connection points: 2
#     Edge 94, Type (0, 1), BuildingBlock: XIVTED_clean_linker_0, # of connection points: 2
#     Edge 95, Type (0, 1), BuildingBlock: XIVTED_clean_linker_0, # of connection points: 2
#     Edge 96, Type (0, 1), BuildingBlock: XIVTED_clean_linker_0, # of connection points: 2
#     Edge 97, Type (0, 1), BuildingBlock: XIVTED_clean_linker_0, # of connection points: 2
#     Edge 98, Type (0, 1), BuildingBlock: XIVTED_clean_linker_0, # of connection points: 2
#     Edge 99, Type (0, 1), BuildingBlock: XIVTED_clean_linker_0, # of connection points: 2
#     Edge 100, Type (0, 1), BuildingBlock: XIVTED_clean_linker_0, # of connection points: 2
#     Edge 101, Type (0, 1), BuildingBlock: XIVTED_clean_linker_0, # of connection points: 2
#     Edge 102, Type (0, 1), BuildingBlock: XIVTED_clean_linker_0, # of connection points: 2
#     Edge 103, Type (0, 1), BuildingBlock: XIVTED_clean_linker_0, # of connection points: 2
#     Edge 104, Type (0, 1), BuildingBlock: XIVTED_clean_linker_0, # of connection points: 2
#     Edge 105, Type (0, 1), BuildingBlock: XIVTED_clean_linker_0, # of connection points: 2
#     Edge 106, Type (0, 1), BuildingBlock: XIVTED_clean_linker_0, # of connection points: 2
#     Edge 107, Type (0, 1), BuildingBlock: XIVTED_clean_linker_0, # of connection points: 2
#     Edge 108, Type (0, 1), BuildingBlock: XIVTED_clean_linker_0, # of connection points: 2
#     Edge 109, Type (0, 1), BuildingBlock: XIVTED_clean_linker_0, # of connection points: 2
#     Edge 110, Type (0, 1), BuildingBlock: XIVTED_clean_linker_0, # of connection points: 2
#     Edge 111, Type (0, 1), BuildingBlock: XIVTED_clean_linker_0, # of connection points: 2
#     Edge 112, Type (0, 1), BuildingBlock: XIVTED_clean_linker_0, # of connection points: 2
#     Edge 113, Type (0, 1), BuildingBlock: XIVTED_clean_linker_0, # of connection points: 2
#     Edge 114, Type (0, 1), BuildingBlock: XIVTED_clean_linker_0, # of connection points: 2
#     Edge 115, Type (0, 1), BuildingBlock: XIVTED_clean_linker_0, # of connection points: 2
#     Edge 116, Type (0, 1), BuildingBlock: XIVTED_clean_linker_0, # of connection points: 2
#     Edge 117, Type (0, 1), BuildingBlock: XIVTED_clean_linker_0, # of connection points: 2
#     Edge 118, Type (0, 1), BuildingBlock: XIVTED_clean_linker_0, # of connection points: 2
#     Edge 119, Type (0, 1), BuildingBlock: XIVTED_clean_linker_0, # of connection points: 2
#     Edge 120, Type (0, 1), BuildingBlock: XIVTED_clean_linker_0, # of connection points: 2
#     Edge 121, Type (0, 1), BuildingBlock: XIVTED_clean_linker_0, # of connection points: 2
#     Edge 122, Type (0, 1), BuildingBlock: XIVTED_clean_linker_0, # of connection points: 2
#     Edge 123, Type (0, 1), BuildingBlock: XIVTED_clean_linker_0, # of connection points: 2
#     Edge 124, Type (0, 1), BuildingBlock: XIVTED_clean_linker_0, # of connection points: 2
#     Edge 125, Type (0, 1), BuildingBlock: XIVTED_clean_linker_0, # of connection points: 2
#     Edge 126, Type (0, 1), BuildingBlock: XIVTED_clean_linker_0, # of connection points: 2
#     Edge 127, Type (0, 1), BuildingBlock: XIVTED_clean_linker_0, # of connection points: 2
#     Edge 128, Type (0, 1), BuildingBlock: XIVTED_clean_linker_0, # of connection points: 2
#     Edge 129, Type (0, 1), BuildingBlock: XIVTED_clean_linker_0, # of connection points: 2
#     Edge 130, Type (0, 1), BuildingBlock: XIVTED_clean_linker_0, # of connection points: 2
#     Edge 131, Type (0, 1), BuildingBlock: XIVTED_clean_linker_0, # of connection points: 2
#     Edge 132, Type (0, 1), BuildingBlock: XIVTED_clean_linker_0, # of connection points: 2
#     Edge 133, Type (0, 1), BuildingBlock: XIVTED_clean_linker_0, # of connection points: 2
#     Edge 134, Type (0, 1), BuildingBlock: XIVTED_clean_linker_0, # of connection points: 2
#     Edge 135, Type (0, 1), BuildingBlock: XIVTED_clean_linker_0, # of connection points: 2
# Relax obj value: 0.123
# Max RMSD: 0.166
# Mean RMSD: 0.133
data_MOF--net-iac--node1-GALJAG_clean_sbu_0--node2-CIFDUS_clean_sbu_1--edge1-XIVTED_clean_linker_0
_symmetry_space_group_name_H-M    P1
_symmetry_Int_Tables_number       1
_symmetry_cell_setting            triclinic
loop_
_symmetry_equiv_pos_as_xyz
'x, y, z'
_cell_length_a     54.700293
_cell_length_b     54.384212
_cell_length_c     54.656643
_cell_angle_alpha  90.037267
_cell_angle_beta   89.818771
_cell_angle_gamma 90.043346
loop_
_atom_site_label
_atom_site_type_symbol
_atom_site_fract_x
_atom_site_fract_y
_atom_site_fract_z
_atom_type_partial_charge
In0 In -0.00141 0.25462 0.12395 0.0
O1 O 0.01051 0.22881 0.09262 0.0
O2 O 0.99301 0.21276 0.12335 0.0
C3 C -0.00439 0.298 0.0993 0.0
C4 C 0.95468 0.25692 0.14687 0.0
C5 C 0.03995 0.25557 0.15122 0.0
O6 O 0.98945 0.27774 0.08986 0.0
O7 O 0.00448 0.29617 0.12047 0.0
O8 O 0.01915 0.26058 0.1599 0.0
O9 O 0.04008 0.25084 0.12861 0.0
C10 C 0.00339 0.20932 0.10298 0.0
O11 O 0.97442 0.25298 0.15808 0.0
O12 O 0.95688 0.25843 0.12393 0.0
In13 In 0.0013 0.75177 0.37313 0.0
O14 O 0.02195 0.7612 0.33773 0.0
O15 O 0.04042 0.74113 0.36541 0.0
C16 C 0.95789 0.74701 0.35197 0.0
C17 C 0.00384 0.71166 0.40103 0.0
C18 C 0.00028 0.79701 0.39236 0.0
O19 O 0.97748 0.74894 0.33979 0.0
O20 O 0.96046 0.74559 0.37486 0.0
O21 O 0.01751 0.78229 0.39674 0.0
O22 O 0.98381 0.78879 0.37872 0.0
C23 C 0.04126 0.75051 0.34439 0.0
O24 O 0.00137 0.73277 0.4104 0.0
O25 O 0.00401 0.711 0.37796 0.0
In26 In 0.49998 0.75525 0.62371 0.0
O27 O 0.48902 0.78142 0.59227 0.0
O28 O 0.51665 0.79301 0.61683 0.0
C29 C 0.50156 0.71136 0.59951 0.0
C30 C 0.53822 0.75424 0.65519 0.0
C31 C 0.45667 0.758 0.64782 0.0
O32 O 0.5138 0.7298 0.5925 0.0
O33 O 0.48779 0.7156 0.61753 0.0
O34 O 0.47458 0.74566 0.65553 0.0
O35 O 0.46046 0.76895 0.62786 0.0
C36 C 0.50322 0.79847 0.59897 0.0
O37 O 0.51927 0.7669 0.65906 0.0
O38 O 0.53798 0.74222 0.63545 0.0
In39 In 0.50104 0.25039 0.87247 0.0
O40 O 0.52057 0.24793 0.8351 0.0
O41 O 0.54134 0.25428 0.86742 0.0
C42 C 0.4542 0.24788 0.85956 0.0
C43 C 0.50438 0.21254 0.90373 0.0
C44 C 0.50475 0.29735 0.88477 0.0
O45 O 0.47066 0.23723 0.84713 0.0
O46 O 0.46145 0.25912 0.87832 0.0
O47 O 0.51337 0.28039 0.89798 0.0
O48 O 0.49422 0.29059 0.8654 0.0
C49 C 0.54131 0.25206 0.84448 0.0
O50 O 0.49744 0.23355 0.91052 0.0
O51 O 0.50945 0.21062 0.88129 0.0
In52 In 0.13028 0.00011 0.25606 0.0
O53 O 0.16425 0.9758 0.26253 0.0
O54 O 0.13151 0.95826 0.25169 0.0
C55 C 0.15199 0.04488 0.25032 0.0
C56 C 0.10371 -0.00025 0.21409 0.0
C57 C 0.10948 -0.00153 0.30121 0.0
O58 O 0.1632 0.0248 0.24723 0.0
O59 O 0.12999 0.04245 0.25701 0.0
O60 O 0.09744 -0.0033 0.28167 0.0
O61 O 0.13198 0.00253 0.29812 0.0
C62 C 0.15342 0.95579 0.25819 0.0
O63 O 0.09416 -0.00309 0.23494 0.0
O64 O 0.12663 0.00245 0.2143 0.0
In65 In 0.25808 0.87912 0.50252 0.0
O66 O 0.23774 0.91472 0.5113 0.0
O67 O 0.21872 0.88597 0.4929 0.0
C68 C 0.30323 0.89696 0.49891 0.0
C69 C 0.25354 0.85332 0.54391 0.0
C70 C 0.25558 0.85714 0.45903 0.0
O71 O 0.28451 0.90943 0.49383 0.0
O72 O 0.29917 0.87598 0.50785 0.0
O73 O 0.24731 0.84739 0.47831 0.0
O74 O 0.26514 0.87801 0.46171 0.0
C75 C 0.2181 0.90744 0.50156 0.0
O76 O 0.26024 0.8435 0.52409 0.0
O77 O 0.2501 0.87625 0.54301 0.0
In78 In 0.37924 0.00482 0.74858 0.0
O79 O 0.34343 0.0222 0.73561 0.0
O80 O 0.36981 0.0449 0.75327 0.0
C81 C 0.36036 0.95939 0.75104 0.0
C82 C 0.40955 0.00949 0.71018 0.0
C83 C 0.39832 0.00188 0.79361 0.0
O84 O 0.35041 0.97753 0.76145 0.0
O85 O 0.37887 0.96447 0.7383 0.0
O86 O 0.40852 0.99227 0.77522 0.0
O87 O 0.3794 0.01418 0.78902 0.0
C88 C 0.3489 0.04324 0.74375 0.0
O89 O 0.41508 0.01796 0.73099 0.0
O90 O 0.38863 -0.00015 0.70877 0.0
In91 In 0.25558 0.12858 -0.00174 0.0
O92 O 0.28005 0.09551 0.00758 0.0
O93 O 0.29435 0.12331 0.98429 0.0
C94 C 0.20989 0.10917 -0.00371 0.0
C95 C 0.26024 0.15256 0.04159 0.0
C96 C 0.25793 0.15029 0.95405 0.0
O97 O 0.22894 0.09683 0.99185 0.0
O98 O 0.21384 0.13112 0.00263 0.0
O99 O 0.26354 0.16165 0.97346 0.0
O100 O 0.25023 0.12866 0.95723 0.0
C101 C 0.29783 0.10309 0.99481 0.0
O102 O 0.25635 0.16354 0.02161 0.0
O103 O 0.26156 0.12947 0.0398 0.0
In104 In 0.75801 0.379 0.00135 0.0
O105 O 0.75803 0.34289 0.02333 0.0
O106 O 0.75462 0.37684 0.04228 0.0
C107 C 0.75443 0.35964 0.95665 0.0
C108 C 0.71817 0.40785 0.00214 0.0
C109 C 0.80262 0.39848 -0.00306 0.0
O110 O 0.74524 0.34924 0.97522 0.0
O111 O 0.76556 0.37947 0.96077 0.0
O112 O 0.78324 0.411 -0.00376 0.0
O113 O 0.79971 0.37585 0.00131 0.0
C114 C 0.75512 0.35374 0.04355 0.0
O115 O 0.73775 0.4139 0.01266 0.0
O116 O 0.71865 0.38727 0.99157 0.0
In117 In 0.87826 0.50438 0.25077 0.0
O118 O 0.91378 0.51743 0.2323 0.0
O119 O 0.88636 0.5003 0.21056 0.0
C120 C 0.89839 0.50089 0.29542 0.0
C121 C 0.84706 0.54233 0.24697 0.0
C122 C 0.85962 0.45878 0.25362 0.0
O123 O 0.9086 0.49234 0.27652 0.0
O124 O 0.87896 0.51264 0.29154 0.0
O125 O 0.84944 0.47708 0.26349 0.0
O126 O 0.87834 0.46371 0.24114 0.0
C127 C 0.90752 0.50948 0.21148 0.0
O128 O 0.84231 0.52148 0.23796 0.0
O129 O 0.86779 0.54417 0.25689 0.0
In130 In 0.7578 0.62867 0.49713 0.0
O131 O 0.77856 0.59215 0.49753 0.0
O132 O 0.79911 0.62488 0.49282 0.0
C133 C 0.71325 0.60736 0.4924 0.0
C134 C 0.76086 0.64808 0.54306 0.0
C135 C 0.76128 0.65285 0.45417 0.0
O136 O 0.733 0.59558 0.49449 0.0
O137 O 0.71567 0.6305 0.49287 0.0
O138 O 0.75731 0.66403 0.4741 0.0
O139 O 0.76231 0.6298 0.45596 0.0
C140 C 0.7992 0.60175 0.4937 0.0
O141 O 0.76939 0.65871 0.52441 0.0
O142 O 0.75031 0.628 0.53858 0.0
In143 In 0.63407 0.49801 0.75153 0.0
O144 O 0.66761 0.47373 0.7605 0.0
O145 O 0.63826 0.45771 0.74101 0.0
C146 C 0.66075 0.54039 0.75096 0.0
C147 C 0.6026 0.50032 0.71319 0.0
C148 C 0.60911 0.49908 0.79437 0.0
O149 O 0.65086 0.5317 0.76991 0.0
O150 O 0.65868 0.52688 0.7323 0.0
O151 O 0.60703 0.5156 0.77827 0.0
O152 O 0.62321 0.48169 0.78861 0.0
C153 C 0.65856 0.45448 0.7513 0.0
O154 O 0.59607 0.4932 0.73419 0.0
O155 O 0.62484 0.50618 0.71155 0.0
In156 In 0.00818 0.7526 0.8722 0.0
O157 O 0.03555 0.75439 0.84056 0.0
O158 O 0.04986 0.7502 0.8763 0.0
C159 C 0.96711 0.75356 0.84435 0.0
C160 C 0.00669 0.70805 0.89474 0.0
C161 C 0.00474 0.79639 0.89618 0.0
O162 O 0.98776 0.74783 0.8358 0.0
O163 O 0.96701 0.75808 0.86697 0.0
O164 O 0.00533 0.77595 0.90706 0.0
O165 O 0.00698 0.79492 0.87321 0.0
C166 C 0.05419 0.75106 0.85365 0.0
O167 O 0.00365 0.72806 0.90599 0.0
O168 O 0.00924 0.71035 0.87196 0.0
In169 In 0.00051 0.25132 0.62185 0.0
O170 O 0.98665 0.27388 0.58942 0.0
O171 O 0.01523 0.28838 0.61166 0.0
C172 C -0.00019 0.2075 0.60008 0.0
C173 C 0.04577 0.25404 0.63976 0.0
C174 C 0.96267 0.25524 0.65322 0.0
O175 O 0.00119 0.22731 0.58817 0.0
O176 O -0.00301 0.20994 0.62283 0.0
O177 O 0.98146 0.24288 0.65819 0.0
O178 O 0.96283 0.26524 0.63244 0.0
C179 C 0.00155 0.29123 0.59341 0.0
O180 O 0.02784 0.26502 0.64944 0.0
O181 O 0.04077 0.24109 0.62133 0.0
In182 In 0.50853 0.25459 0.37406 0.0
O183 O 0.53576 0.24934 0.3428 0.0
O184 O 0.55021 0.2562 0.37817 0.0
C185 C 0.46755 0.25489 0.34629 0.0
C186 C 0.50971 0.21133 0.39882 0.0
C187 C 0.50212 0.3 0.39381 0.0
O188 O 0.48861 0.25235 0.33713 0.0
O189 O 0.46713 0.25652 0.3693 0.0
O190 O 0.4972 0.28036 0.40513 0.0
O191 O 0.51141 0.2968 0.37284 0.0
C192 C 0.55454 0.25106 0.35606 0.0
O193 O 0.51235 0.23183 0.4093 0.0
O194 O 0.50519 0.21276 0.37628 0.0
In195 In 0.50119 0.75006 0.12316 0.0
O196 O 0.50471 0.72272 0.09247 0.0
O197 O 0.49868 0.70899 0.12869 0.0
C198 C 0.5015 0.79148 0.09655 0.0
C199 C 0.46143 0.74989 0.15208 0.0
C200 C 0.54707 0.75111 0.13967 0.0
O201 O 0.49308 0.77167 0.08795 0.0
O202 O 0.50811 0.79041 0.11852 0.0
O203 O 0.52927 0.75971 0.15167 0.0
O204 O 0.54173 0.74138 0.11949 0.0
C205 C 0.50246 0.7043 0.10639 0.0
O206 O 0.4827 0.75321 0.16023 0.0
O207 O 0.46002 0.74735 0.12915 0.0
In208 In 0.87896 -0.00184 0.74549 0.0
O209 O 0.90951 0.00415 0.71778 0.0
O210 O 0.87472 0.99333 0.70416 0.0
C211 C 0.90497 0.00114 0.78736 0.0
C212 C 0.85853 0.04314 0.74132 0.0
C213 C 0.85772 0.95392 0.75406 0.0
O214 O 0.91425 0.99283 0.76779 0.0
O215 O 0.88288 0.00763 0.78563 0.0
O216 O 0.84679 0.97404 0.75803 0.0
O217 O 0.87892 0.9562 0.74515 0.0
C218 C 0.89628 3e-05 0.69931 0.0
O219 O 0.84608 0.02367 0.73875 0.0
O220 O 0.8806 0.03971 0.74689 0.0
In221 In 0.75556 0.12871 0.50062 0.0
O222 O 0.77389 0.09139 0.50103 0.0
O223 O 0.79671 0.12317 0.50135 0.0
C224 C 0.70954 0.11264 0.50077 0.0
C225 C 0.75541 0.14797 0.54516 0.0
C226 C 0.7548 0.15245 0.4577 0.0
O227 O 0.72696 0.10029 0.49189 0.0
O228 O 0.71536 0.13292 0.51022 0.0
O229 O 0.76269 0.16278 0.47682 0.0
O230 O 0.74856 0.13035 0.46032 0.0
C231 C 0.79526 0.1 0.50185 0.0
O232 O 0.7544 0.16119 0.52616 0.0
O233 O 0.75749 0.12515 0.54155 0.0
In234 In 0.63196 0.00609 0.24763 0.0
O235 O 0.66986 0.989 0.25295 0.0
O236 O 0.63941 0.96533 0.24676 0.0
C237 C 0.64265 0.05393 0.24683 0.0
C238 C 0.61879 -0.00174 0.20137 0.0
C239 C 0.6044 0.00717 0.28845 0.0
O240 O 0.6574 0.03814 0.25514 0.0
O241 O 0.62289 0.0455 0.2385 0.0
O242 O 0.59482 0.0072 0.26747 0.0
O243 O 0.62735 0.00542 0.28853 0.0
C244 C 0.66212 0.96729 0.25004 0.0
O245 O 0.60612 0.99091 0.21936 0.0
O246 O 0.63806 0.00984 0.20675 0.0
In247 In 0.74248 0.87697 0.0125 0.0
O248 O 0.71635 0.90946 0.01882 0.0
O249 O 0.70161 0.87526 0.00694 0.0
C250 C 0.78801 0.89622 0.01047 0.0
C251 C 0.73799 0.85885 0.05799 0.0
C252 C 0.74231 0.85517 0.96819 0.0
O253 O 0.76901 0.90842 0.00529 0.0
O254 O 0.78407 0.87433 0.01715 0.0
O255 O 0.74321 0.84296 0.98792 0.0
O256 O 0.74197 0.87823 0.97091 0.0
C257 C 0.6975 0.89705 0.01356 0.0
O258 O 0.73661 0.84523 0.03924 0.0
O259 O 0.74285 0.88111 0.05373 0.0
In260 In 0.25553 0.62903 0.00091 0.0
O261 O 0.25397 0.66148 0.02621 0.0
O262 O 0.25213 0.62552 0.04194 0.0
C263 C 0.2577 0.65545 0.9598 0.0
C264 C 0.29619 0.6018 0.00546 0.0
C265 C 0.20968 0.61286 0.99567 0.0
O266 O 0.26274 0.66483 0.98029 0.0
O267 O 0.25315 0.63274 0.96011 0.0
O268 O 0.22788 0.6012 0.98738 0.0
O269 O 0.21466 0.63246 0.00685 0.0
C270 C 0.25163 0.64849 0.04523 0.0
O271 O 0.27515 0.59234 0.00611 0.0
O272 O 0.29661 0.62469 0.0018 0.0
In273 In 0.12705 0.50193 0.74553 0.0
O274 O 0.16376 0.48238 0.7421 0.0
O275 O 0.13491 0.46401 0.76088 0.0
C276 C 0.14145 0.54886 0.74454 0.0
C277 C 0.1118 0.49117 0.70032 0.0
C278 C 0.09952 0.50868 0.78577 0.0
O279 O 0.15422 0.53191 0.75374 0.0
O280 O 0.12163 0.54205 0.73494 0.0
O281 O 0.08984 0.50342 0.7654 0.0
O282 O 0.12255 0.50957 0.78559 0.0
C283 C 0.15676 0.46349 0.7535 0.0
O284 O 0.09906 0.48631 0.71907 0.0
O285 O 0.13205 0.50135 0.70455 0.0
In286 In 0.24277 0.37962 0.51052 0.0
O287 O 0.2387 0.34547 0.53462 0.0
O288 O 0.24065 0.38053 0.55195 0.0
C289 C 0.24196 0.35691 0.46628 0.0
C290 C 0.19863 0.40149 0.51502 0.0
C291 C 0.28789 0.40063 0.50983 0.0
O292 O 0.24509 0.34543 0.48614 0.0
O293 O 0.23953 0.37985 0.4687 0.0
O294 O 0.26922 0.41077 0.50081 0.0
O295 O 0.28388 0.37999 0.51957 0.0
C296 C 0.23781 0.35763 0.55437 0.0
O297 O 0.21836 0.41325 0.51794 0.0
O298 O 0.20135 0.3794 0.50865 0.0
In299 In 0.38004 0.50023 0.24425 0.0
O300 O 0.41106 0.5086 0.2174 0.0
O301 O 0.37741 0.49586 0.20275 0.0
C302 C 0.40597 0.4967 0.28606 0.0
C303 C 0.35977 0.54566 0.24348 0.0
C304 C 0.35628 0.45695 0.25119 0.0
O305 O 0.41575 0.49298 0.26536 0.0
O306 O 0.38368 0.50267 0.28533 0.0
O307 O 0.34627 0.47757 0.25493 0.0
O308 O 0.37779 0.4582 0.24281 0.0
C309 C 0.39864 0.5039 0.19852 0.0
O310 O 0.34822 0.5267 0.23674 0.0
O311 O 0.38089 0.54149 0.25161 0.0
O312 O 0.03292 0.02261 0.99491 0.0
Mn313 Mn 0.00059 0.00268 0.0017 0.0
O314 O 0.06312 0.99511 0.99033 0.0
Mn315 Mn 0.04625 0.97024 0.00613 0.0
O316 O 0.9676 0.98331 0.00757 0.0
O317 O 0.98496 0.0348 0.01064 0.0
Mn318 Mn 0.9568 0.03818 -0.0041 0.0
O319 O 0.99089 0.00666 0.96446 0.0
O320 O 0.93771 0.01184 0.00563 0.0
O321 O 0.01045 -0.00074 0.0387 0.0
O322 O 0.04289 0.97378 0.0398 0.0
O323 O 0.96094 0.06624 0.01451 0.0
O324 O 0.96424 0.03814 0.96292 0.0
C325 C 0.02118 0.94774 0.98648 0.0
C326 C 0.05502 0.01701 0.98915 0.0
C327 C 0.94487 0.98962 0.00795 0.0
C328 C 0.98154 0.05619 0.02031 0.0
C329 C 0.97759 0.02205 0.95241 0.0
C330 C 0.02711 0.98742 0.05037 0.0
O331 O 0.01646 0.96998 0.99366 0.0
O332 O 0.04281 0.93989 0.99192 0.0
O333 O 0.28989 0.74933 0.24638 0.0
Mn334 Mn 0.25257 0.74726 0.25338 0.0
O335 O 0.29503 0.77823 0.21728 0.0
Mn336 Mn 0.2621 0.78366 0.21123 0.0
O337 O 0.21493 0.74487 0.25993 0.0
O338 O 0.25863 0.71372 0.267 0.0
Mn339 Mn 0.24001 0.70786 0.29241 0.0
O340 O 0.25731 0.76282 0.28755 0.0
O341 O 0.20871 0.70937 0.28002 0.0
O342 O 0.24684 0.73091 0.21974 0.0
O343 O 0.24648 0.76089 0.19154 0.0
O344 O 0.25933 0.68021 0.28826 0.0
O345 O 0.24746 0.73272 0.31438 0.0
C346 C 0.24089 0.8041 0.23691 0.0
C347 C 0.30342 0.76245 0.23232 0.0
C348 C 0.20075 0.72805 0.26846 0.0
C349 C 0.26808 0.69225 0.26982 0.0
C350 C 0.25369 0.75481 0.30933 0.0
C351 C 0.24284 0.7387 0.19806 0.0
O352 O 0.2473 0.7814 0.23985 0.0
O353 O 0.24842 0.81402 0.21675 0.0
O354 O 0.47245 0.98536 0.49297 0.0
Mn355 Mn 0.50367 0.00577 0.49892 0.0
O356 O 0.44098 0.01182 0.48992 0.0
Mn357 Mn 0.45714 0.03805 0.50444 0.0
O358 O 0.53534 0.02551 0.50391 0.0
O359 O 0.52107 0.97453 0.50808 0.0
Mn360 Mn 0.54603 0.9705 0.48841 0.0
O361 O 0.51272 0.00287 0.46165 0.0
O362 O 0.5647 -0.00103 0.49147 0.0
O363 O 0.49487 0.00951 0.53566 0.0
O364 O 0.46303 0.03575 0.53791 0.0
O365 O 0.54725 0.94452 0.50993 0.0
O366 O 0.53133 0.96669 0.45844 0.0
C367 C 0.48281 0.05915 0.48318 0.0
C368 C 0.45018 0.99035 0.48796 0.0
C369 C 0.55747 0.02029 0.49822 0.0
C370 C 0.52742 0.95422 0.51851 0.0
C371 C 0.52209 0.98565 0.44863 0.0
C372 C 0.47942 0.02237 0.54784 0.0
O373 O 0.48643 0.0372 0.4911 0.0
O374 O 0.46149 0.06786 0.4886 0.0
O375 O 0.28053 0.25503 0.77272 0.0
Mn376 Mn 0.24855 0.25177 0.75302 0.0
O377 O 0.31161 0.25942 0.74596 0.0
Mn378 Mn 0.29431 0.24776 0.7191 0.0
O379 O 0.21614 0.2487 0.73368 0.0
O380 O 0.23208 0.24197 0.78389 0.0
Mn381 Mn 0.20443 0.25726 0.78887 0.0
O382 O 0.24089 0.28877 0.75955 0.0
O383 O 0.18577 0.24919 0.76184 0.0
O384 O 0.25644 0.21502 0.74651 0.0
O385 O 0.2876 0.21416 0.71927 0.0
O386 O 0.20919 0.23666 0.81556 0.0
O387 O 0.21336 0.2901 0.7903 0.0
C388 C 0.26819 0.27116 0.70102 0.0
C389 C 0.30296 0.25938 0.76768 0.0
C390 C 0.19348 0.24795 0.73977 0.0
C391 C 0.22942 0.2312 0.80457 0.0
C392 C 0.22791 0.30059 0.77527 0.0
C393 C 0.27152 0.20349 0.73259 0.0
O394 O 0.26533 0.2613 0.72213 0.0
O395 O 0.28912 0.2664 0.69107 0.0
O396 O -0.00368 0.96756 0.48648 0.0
Mn397 Mn 0.00431 0.00048 0.50257 0.0
O398 O 0.00452 0.93783 0.5141 0.0
Mn399 Mn 0.01638 0.95801 0.53903 0.0
O400 O 0.013 0.03377 0.51842 0.0
O401 O 0.00816 0.01473 0.46926 0.0
Mn402 Mn 0.99266 0.04268 0.46595 0.0
O403 O 0.96746 0.00928 0.50359 0.0
O404 O 0.00806 0.06246 0.48895 0.0
O405 O 0.04112 0.99142 0.50177 0.0
O406 O 0.04863 0.96783 0.53482 0.0
O407 O 0.00777 0.03615 0.43615 0.0
O408 O 0.96013 0.03486 0.47207 0.0
C409 C 0.99044 0.98237 0.55654 0.0
C410 C -0.00272 0.94509 0.4931 0.0
C411 C 0.01491 0.0558 0.5103 0.0
C412 C 0.01584 0.0168 0.44716 0.0
C413 C 0.95295 0.02145 0.48984 0.0
C414 C 0.05574 0.98036 0.51637 0.0
O415 O 0.00018 0.98559 0.53546 0.0
O416 O -0.00169 0.96295 0.56759 0.0
O417 O 0.27749 0.78312 0.7554 0.0
Mn418 Mn 0.25311 0.75401 0.7503 0.0
O419 O 0.2543 0.81593 0.76576 0.0
Mn420 Mn 0.22487 0.80394 0.75408 0.0
O421 O 0.22838 0.72499 0.74547 0.0
O422 O 0.28031 0.73296 0.73702 0.0
Mn423 Mn 0.27657 0.70273 0.74853 0.0
O424 O 0.25962 0.74298 0.78551 0.0
O425 O 0.24971 0.69313 0.73057 0.0
O426 O 0.24536 0.76623 0.71534 0.0
O427 O 0.22232 0.80044 0.7203 0.0
O428 O 0.30883 0.70597 0.73886 0.0
O429 O 0.27008 0.70333 0.78206 0.0
C430 C 0.20589 0.77658 0.77568 0.0
C431 C 0.27495 0.80524 0.76335 0.0
C432 C 0.22944 0.70374 0.73519 0.0
C433 C 0.30337 0.72868 0.73455 0.0
C434 C 0.26395 0.72199 0.79473 0.0
C435 C 0.23231 0.78392 0.70689 0.0
O436 O 0.22572 0.77347 0.76369 0.0
O437 O 0.19777 0.79882 0.77437 0.0
O438 O 0.48086 -0.00099 0.96964 0.0
Mn439 Mn 0.5013 0.00412 0.0012 0.0
O440 O 0.50749 -0.00162 0.93802 0.0
Mn441 Mn 0.53459 0.00978 0.95496 0.0
O442 O 0.52191 0.00834 0.03308 0.0
O443 O 0.47031 0.01204 0.0186 0.0
Mn444 Mn 0.46898 -0.00131 0.04769 0.0
O445 O 0.4976 0.9673 0.0096 0.0
O446 O 0.495 0.01248 0.06405 0.0
O447 O 0.50592 0.04123 0.99301 0.0
O448 O 0.53472 0.04286 0.96331 0.0
O449 O 0.43977 0.01537 0.04354 0.0
O450 O 0.4727 0.96513 0.04256 0.0
C451 C 0.55176 0.98409 0.97955 0.0
C452 C 0.48607 0.99576 0.94698 0.0
C453 C 0.5168 0.01184 0.05577 0.0
C454 C 0.44896 0.02102 0.02246 0.0
C455 C 0.48634 0.95524 0.02628 0.0
C456 C 0.52066 0.05315 0.97901 0.0
O457 O 0.5318 0.99564 0.98353 0.0
O458 O 0.56177 0.98952 0.95881 0.0
O459 O 0.28884 0.25415 0.26283 0.0
Mn460 Mn 0.25127 0.2533 0.25456 0.0
O461 O 0.29617 0.22253 0.28829 0.0
Mn462 Mn 0.26359 0.21611 0.29513 0.0
O463 O 0.21368 0.25249 0.24601 0.0
O464 O 0.25476 0.28785 0.24216 0.0
Mn465 Mn 0.23865 0.29154 0.21464 0.0
O466 O 0.25928 0.23883 0.21978 0.0
O467 O 0.20622 0.28536 0.22213 0.0
O468 O 0.24324 0.26818 0.28922 0.0
O469 O 0.24852 0.23783 0.31661 0.0
O470 O 0.2527 0.32168 0.22133 0.0
O471 O 0.25304 0.2696 0.19289 0.0
C472 C 0.24232 0.19549 0.26956 0.0
C473 C 0.30349 0.24044 0.27517 0.0
C474 C 0.19898 0.26677 0.23433 0.0
C475 C 0.26131 0.31057 0.24036 0.0
C476 C 0.25966 0.24765 0.19789 0.0
C477 C 0.24233 0.25978 0.31122 0.0
O478 O 0.24783 0.21852 0.26709 0.0
O479 O 0.25077 0.1854 0.28922 0.0
O480 O 0.49787 0.46605 0.98066 0.0
Mn481 Mn 0.50424 0.4969 0.00128 0.0
O482 O 0.49936 0.43344 0.00632 0.0
Mn483 Mn 0.51016 0.45005 0.03413 0.0
O484 O 0.51086 0.52722 0.02244 0.0
O485 O 0.51408 0.51552 0.96959 0.0
Mn486 Mn 0.49178 0.53921 0.97121 0.0
O487 O 0.46702 0.50594 0.00078 0.0
O488 O 0.49658 0.55794 -0.00081 0.0
O489 O 0.54076 0.48704 0.0042 0.0
O490 O 0.54319 0.45839 0.034 0.0
O491 O 0.50841 0.5473 0.94428 0.0
O492 O 0.46137 0.52594 0.96652 0.0
C493 C 0.48492 0.47514 0.05189 0.0
C494 C 0.49599 0.44307 0.98525 0.0
C495 C 0.50553 0.54974 0.01903 0.0
C496 C 0.52027 0.52735 0.94953 0.0
C497 C 0.45265 0.51538 0.98508 0.0
C498 C 0.55303 0.4733 0.01879 0.0
O499 O 0.49602 0.47876 0.03159 0.0
O500 O 0.49021 0.45422 0.06169 0.0
O501 O 0.77788 0.28229 0.25799 0.0
Mn502 Mn 0.75233 0.25483 0.25033 0.0
O503 O 0.75598 0.31558 0.26949 0.0
Mn504 Mn 0.7257 0.30473 0.25905 0.0
O505 O 0.72638 0.22782 0.2432 0.0
O506 O 0.77871 0.23572 0.23388 0.0
Mn507 Mn 0.77511 0.20397 0.23871 0.0
O508 O 0.76022 0.23788 0.28287 0.0
O509 O 0.74537 0.19658 0.22434 0.0
O510 O 0.74407 0.27117 0.2173 0.0
O511 O 0.72077 0.30433 0.22531 0.0
O512 O 0.80385 0.20811 0.22095 0.0
O513 O 0.77541 0.20061 0.27275 0.0
C514 C 0.7075 0.2773 0.28104 0.0
C515 C 0.77621 0.30423 0.2666 0.0
C516 C 0.72599 0.20753 0.23129 0.0
C517 C 0.79884 0.23127 0.2226 0.0
C518 C 0.76837 0.21656 0.28854 0.0
C519 C 0.73082 0.28928 0.21037 0.0
O520 O 0.72602 0.27359 0.26711 0.0
O521 O 0.70019 0.29988 0.28115 0.0
O522 O 0.97707 0.49608 0.47241 0.0
Mn523 Mn -0.00148 0.5044 0.50291 0.0
O524 O 0.00316 0.48712 0.44167 0.0
Mn525 Mn 0.03083 0.50025 0.45603 0.0
O526 O 0.01977 0.5126 0.53383 0.0
O527 O 0.96878 0.51712 0.51996 0.0
Mn528 Mn 0.96918 0.50898 0.55119 0.0
O529 O 0.99236 0.46988 0.51616 0.0
O530 O 0.9939 0.52977 0.56075 0.0
O531 O 0.00565 0.53928 0.48937 0.0
O532 O 0.03239 0.53429 0.45821 0.0
O533 O 0.9369 0.51474 0.54304 0.0
O534 O 0.97722 0.47573 0.55402 0.0
C535 C 0.04854 0.4795 0.48435 0.0
C536 C 0.98165 0.48815 0.45072 0.0
C537 C 0.01553 0.52414 0.55403 0.0
C538 C 0.94534 0.51639 0.521 0.0
C539 C 0.9856 0.46202 0.53706 0.0
C540 C 0.02012 0.54786 0.4729 0.0
O541 O 0.02831 0.49119 0.48661 0.0
O542 O 0.05797 0.4809 0.46269 0.0
O543 O 0.78216 0.75727 0.27026 0.0
Mn544 Mn 0.74941 0.75213 0.25218 0.0
O545 O 0.8118 0.75379 0.24154 0.0
Mn546 Mn 0.7928 0.74202 0.21598 0.0
O547 O 0.71683 0.74758 0.23378 0.0
O548 O 0.73295 0.74655 0.28416 0.0
Mn549 Mn 0.70591 0.76366 0.28724 0.0
O550 O 0.74283 0.78978 0.25434 0.0
O551 O 0.68649 0.75364 0.26124 0.0
O552 O 0.75624 0.71441 0.24946 0.0
O553 O 0.78283 0.70943 0.21809 0.0
O554 O 0.70996 0.74634 0.31624 0.0
O555 O 0.71614 0.79612 0.28515 0.0
C556 C 0.76835 0.76853 0.19976 0.0
C557 C 0.8045 0.75872 0.26325 0.0
C558 C 0.6942 0.74874 0.23968 0.0
C559 C 0.72991 0.7387 0.30606 0.0
C560 C 0.73079 0.80399 0.26873 0.0
C561 C 0.76832 0.70084 0.23436 0.0
O562 O 0.76546 0.75789 0.22034 0.0
O563 O 0.78781 0.76152 0.1883 0.0
O564 O 0.79129 0.25032 0.74472 0.0
Mn565 Mn 0.75481 0.24506 0.75437 0.0
O566 O 0.79189 0.27928 0.71531 0.0
Mn567 Mn 0.75846 0.28 0.70999 0.0
O568 O 0.71833 0.23989 0.76454 0.0
O569 O 0.76491 0.2134 0.76978 0.0
Mn570 Mn 0.75039 0.2087 0.79797 0.0
O571 O 0.7604 0.26383 0.78672 0.0
O572 O 0.71755 0.20766 0.79037 0.0
O573 O 0.74828 0.22602 0.72218 0.0
O574 O 0.74511 0.25435 0.69235 0.0
O575 O 0.77076 0.18193 0.79319 0.0
O576 O 0.75857 0.23565 0.81702 0.0
C577 C 0.73568 0.29869 0.73567 0.0
C578 C 0.80269 0.26491 0.73021 0.0
C579 C 0.70681 0.22429 0.77794 0.0
C580 C 0.77598 0.19278 0.77279 0.0
C581 C 0.76086 0.25769 0.80932 0.0
C582 C 0.74314 0.2324 0.70024 0.0
O583 O 0.74516 0.27726 0.73918 0.0
O584 O 0.74098 0.3085 0.71477 0.0
O585 O 0.78841 0.75277 0.76244 0.0
Mn586 Mn 0.75079 0.7528 0.75458 0.0
O587 O 0.79548 0.72201 0.78884 0.0
Mn588 Mn 0.76301 0.71908 0.7981 0.0
O589 O 0.71326 0.7535 0.74602 0.0
O590 O 0.75612 0.78511 0.7382 0.0
Mn591 Mn 0.74135 0.78689 0.70981 0.0
O592 O 0.75775 0.73389 0.72183 0.0
O593 O 0.70848 0.78308 0.71742 0.0
O594 O 0.74376 0.77164 0.78753 0.0
O595 O 0.75073 0.74411 0.81757 0.0
O596 O 0.75761 0.81657 0.71427 0.0
O597 O 0.75517 0.76171 0.69134 0.0
C598 C 0.73779 0.69833 0.77661 0.0
C599 C 0.80301 0.73898 0.77468 0.0
C600 C 0.6998 0.76699 0.73209 0.0
C601 C 0.76462 0.80685 0.73464 0.0
C602 C 0.7597 0.74008 0.69919 0.0
C603 C 0.74402 0.76533 0.81025 0.0
O604 O 0.74559 0.72007 0.77104 0.0
O605 O 0.7468 0.68947 0.79661 0.0
O606 O 0.53748 0.51543 0.49476 0.0
Mn607 Mn 0.50229 0.50112 0.50148 0.0
O608 O 0.5634 0.48424 0.50292 0.0
Mn609 Mn 0.54076 0.46135 0.51421 0.0
O610 O 0.46739 0.48645 0.50803 0.0
O611 O 0.48967 0.53553 0.50657 0.0
Mn612 Mn 0.46392 0.53988 0.4878 0.0
O613 O 0.4939 0.50123 0.46372 0.0
O614 O 0.44101 0.51613 0.49659 0.0
O615 O 0.51037 0.50047 0.53916 0.0
O616 O 0.53129 0.46569 0.54649 0.0
O617 O 0.46767 0.56883 0.50482 0.0
O618 O 0.47484 0.53676 0.45605 0.0
C619 C 0.51597 0.44471 0.48857 0.0
C620 C 0.55925 0.50643 0.49633 0.0
C621 C 0.44558 0.49437 0.50411 0.0
C622 C 0.48624 0.55773 0.51439 0.0
C623 C 0.48413 0.51661 0.44878 0.0
C624 C 0.5204 0.48502 0.5539 0.0
O625 O 0.51446 0.46685 0.49677 0.0
O626 O 0.53421 0.4325 0.49733 0.0
O627 O 0.97313 0.48802 0.99205 0.0
Mn628 Mn 0.00636 0.50391 0.00067 0.0
O629 O 0.94425 0.51716 0.99553 0.0
Mn630 Mn 0.9641 0.53993 0.01122 0.0
O631 O 0.04019 0.51951 0.00862 0.0
O632 O 0.01935 0.46969 0.00442 0.0
Mn633 Mn 0.04827 0.46685 0.99086 0.0
O634 O 0.0157 0.50452 0.96373 0.0
O635 O 0.06757 0.48866 0.00803 0.0
O636 O -0.00234 0.50377 0.03796 0.0
O637 O 0.97076 0.53455 0.04397 0.0
O638 O 0.04046 0.43606 0.00292 0.0
O639 O 0.04449 0.47533 0.95823 0.0
C640 C 0.98978 0.56077 0.99029 0.0
C641 C 0.95113 0.49555 0.98961 0.0
C642 C 0.06199 0.5112 0.01136 0.0
C643 C 0.0206 0.44674 0.01016 0.0
C644 C 0.03075 0.49249 0.95024 0.0
C645 C 0.98491 0.5178 0.05196 0.0
O646 O 0.99272 0.53803 -0.00356 0.0
O647 O 0.96956 0.57049 -0.0021 0.0
H648 H 0.0251 0.19695 0.05925 0.0
H649 H 0.98499 0.05677 0.06986 0.0
H650 H 0.9916 0.16479 0.12322 0.0
H651 H 0.01523 0.08895 0.00456 0.0
H652 H -0.00211 0.09305 0.09309 0.0
H653 H 0.03021 0.15567 0.04194 0.0
C654 C 0.01889 0.18121 0.0697 0.0
C655 C 0.00746 0.1844 0.09253 0.0
C656 C 0.00242 0.09193 0.07382 0.0
C657 C 0.01345 0.13699 0.0729 0.0
C658 C -0.00455 0.07098 0.06067 0.0
C659 C -0.00089 0.06994 0.03532 0.0
C660 C 0.01259 0.11213 0.06133 0.0
C661 C 0.01221 0.08906 0.02415 0.0
C662 C 0.02195 0.15761 0.05987 0.0
C663 C 0.00013 0.16327 0.10539 0.0
N664 N 0.01798 0.10965 0.03708 0.0
N665 N 0.00303 0.14055 0.09531 0.0
H666 H 0.07532 0.71484 0.34741 0.0
H667 H 0.17556 0.77164 0.26713 0.0
H668 H 0.05578 0.779 0.30538 0.0
H669 H 0.16539 0.69307 0.27138 0.0
H670 H 0.13297 0.77734 0.28023 0.0
H671 H 0.1109 0.70896 0.32122 0.0
C672 C 0.07856 0.7277 0.33261 0.0
C673 C 0.0627 0.74742 0.32846 0.0
C674 C 0.13993 0.75889 0.27751 0.0
C675 C 0.10339 0.74085 0.29853 0.0
C676 C 0.16415 0.75562 0.26992 0.0
C677 C 0.1741 0.73186 0.26871 0.0
C678 C 0.12602 0.73826 0.28414 0.0
C679 C 0.15858 0.71172 0.27269 0.0
C680 C 0.09869 0.72419 0.31753 0.0
C681 C 0.06766 0.76352 0.30901 0.0
N682 N 0.13547 0.71538 0.28081 0.0
N683 N 0.08792 0.76013 0.29486 0.0
H684 H 0.47133 0.81792 0.56517 0.0
H685 H 0.5384 0.94844 0.56633 0.0
H686 H 0.53298 0.83692 0.61046 0.0
H687 H 0.487 0.92694 0.51093 0.0
H688 H 0.52757 0.9118 0.58993 0.0
H689 H 0.46965 0.86072 0.55083 0.0
C690 C 0.48459 0.83102 0.57197 0.0
C691 C 0.50254 0.82374 0.58879 0.0
C692 C 0.51797 0.91547 0.57302 0.0
C693 C 0.50041 0.87274 0.57289 0.0
C694 C 0.52383 0.93664 0.55981 0.0
C695 C 0.51319 0.94084 0.53693 0.0
C696 C 0.50176 0.89816 0.56293 0.0
C697 C 0.49499 0.92465 0.52887 0.0
C698 C 0.48347 0.85548 0.56397 0.0
C699 C 0.51897 0.84161 0.59733 0.0
N700 N 0.49017 0.90369 0.5416 0.0
N701 N 0.51756 0.86518 0.58923 0.0
H702 H 0.42281 0.28553 0.86753 0.0
H703 H 0.30986 0.22419 0.80144 0.0
H704 H 0.428 0.21387 0.83395 0.0
H705 H 0.33535 0.29578 0.779 0.0
H706 H 0.34414 0.22147 0.83024 0.0
H707 H 0.38139 0.28992 0.85087 0.0
C708 C 0.41501 0.27056 0.85703 0.0
C709 C 0.42871 0.2494 0.85175 0.0
C710 C 0.34173 0.238 0.81946 0.0
C711 C 0.38166 0.25405 0.83363 0.0
C712 C 0.3223 0.23961 0.8032 0.0
C713 C 0.32022 0.26014 0.78791 0.0
C714 C 0.3586 0.25731 0.82066 0.0
C715 C 0.33672 0.27961 0.79047 0.0
C716 C 0.39154 0.27312 0.84764 0.0
C717 C 0.41799 0.23054 0.83809 0.0
N718 N 0.35545 0.27771 0.8066 0.0
N719 N 0.39493 0.23329 0.82945 0.0
H720 H 0.96029 0.82655 0.3949 0.0
H721 H 0.03077 0.93637 0.45876 0.0
H722 H 0.03707 0.82354 0.41285 0.0
H723 H 0.95951 0.9135 0.48387 0.0
H724 H 0.0304 0.90316 0.42845 0.0
H725 H 0.95763 0.86685 0.41492 0.0
C726 C 0.97661 0.8345 0.40285 0.0
C727 C -0.00112 0.82172 0.40271 0.0
C728 C 0.01472 0.9057 0.44035 0.0
C729 C -0.00402 0.86746 0.42477 0.0
C730 C 0.01494 0.92443 0.45754 0.0
C731 C -0.00465 0.92696 0.47382 0.0
C732 C 0.99461 0.88983 0.43941 0.0
C733 C 0.97505 0.91155 0.47169 0.0
C734 C 0.97503 0.85736 0.41415 0.0
C735 C 0.01953 0.83275 0.41297 0.0
N736 N 0.97521 0.89333 0.45471 0.0
N737 N 0.01758 0.85512 0.42368 0.0
H738 H 0.43928 0.72469 0.68047 0.0
H739 H 0.33049 0.77 0.74541 0.0
H740 H 0.41987 0.79228 0.64409 0.0
H741 H 0.3157 0.71697 0.68879 0.0
H742 H 0.36756 0.78292 0.72271 0.0
H743 H 0.39892 0.7242 0.70009 0.0
C744 C 0.42667 0.7396 0.67691 0.0
C745 C 0.43285 0.75852 0.66064 0.0
C746 C 0.35558 0.76911 0.71495 0.0
C747 C 0.38711 0.75824 0.68336 0.0
C748 C 0.3344 0.76197 0.72769 0.0
C749 C 0.31985 0.74282 0.71858 0.0
C750 C 0.36226 0.75646 0.69354 0.0
C751 C 0.32624 0.73216 0.69609 0.0
C752 C 0.40376 0.73929 0.68809 0.0
C753 C 0.41568 0.77729 0.65645 0.0
N754 N 0.3473 0.73867 0.68464 0.0
N755 N 0.39341 0.77671 0.66776 0.0
H756 H 0.47928 0.20325 0.94628 0.0
H757 H 0.55896 0.08355 0.97065 0.0
H758 H 0.53681 0.17541 0.89977 0.0
H759 H 0.48184 0.08405 0.9875 0.0
H760 H 0.55643 0.12682 0.95928 0.0
H761 H 0.48482 0.16743 0.9735 0.0
C762 C 0.49321 0.18975 0.94201 0.0
C763 C 0.50754 0.19199 0.92078 0.0
C764 C 0.54018 0.11758 0.96598 0.0
C765 C 0.51442 0.15211 0.95186 0.0
C766 C 0.54159 0.09297 0.97247 0.0
C767 C 0.52041 0.08016 0.97922 0.0
C768 C 0.51739 0.12931 0.96595 0.0
C769 C 0.49848 0.0933 0.98193 0.0
C770 C 0.49634 0.16951 0.95748 0.0
C771 C 0.52527 0.17417 0.91586 0.0
N772 N 0.49735 0.1172 0.97465 0.0
N773 N 0.52828 0.15502 0.93135 0.0
H774 H 0.08372 0.23385 0.14028 0.0
H775 H 0.15918 0.29494 0.24452 0.0
H776 H 0.04674 0.2746 0.1971 0.0
H777 H 0.18041 0.22462 0.21508 0.0
H778 H 0.11811 0.28917 0.22752 0.0
H779 H 0.12034 0.23215 0.166 0.0
C780 C 0.08332 0.24244 0.15816 0.0
C781 C 0.06223 0.25453 0.16652 0.0
C782 C 0.13155 0.2747 0.22533 0.0
C783 C 0.10402 0.2527 0.19595 0.0
C784 C 0.15488 0.27791 0.23518 0.0
C785 C 0.17303 0.2601 0.23138 0.0
C786 C 0.1267 0.25402 0.21076 0.0
C787 C 0.16677 0.2386 0.21868 0.0
C788 C 0.10411 0.24125 0.17291 0.0
C789 C 0.06266 0.26518 0.18993 0.0
N790 N 0.14428 0.2364 0.20827 0.0
N791 N 0.08334 0.26433 0.2037 0.0
H792 H 0.11447 0.02345 0.1714 0.0
H793 H 0.0239 0.95371 0.08715 0.0
H794 H 0.06005 0.97684 0.20484 0.0
H795 H 0.04006 0.02992 0.07303 0.0
H796 H 0.03906 0.95879 0.1292 0.0
H797 H 0.0907 0.02319 0.13335 0.0
C798 C 0.09752 0.01317 0.17071 0.0
C799 C 0.08924 7e-05 0.19122 0.0
C800 C 0.03877 0.97452 0.11705 0.0
C801 C 0.06224 -0.00061 0.14774 0.0
C802 C 0.03003 0.97166 0.09318 0.0
C803 C 0.03044 0.99153 0.07684 0.0
C804 C 0.04893 -0.0029 0.12421 0.0
C805 C 0.03911 0.01428 0.08527 0.0
C806 C 0.0839 0.01319 0.1491 0.0
C807 C 0.06705 0.98718 0.1894 0.0
N808 N 0.04854 0.01634 0.10822 0.0
N809 N 0.05451 0.98679 0.16789 0.0
H810 H 0.27741 0.87088 0.41595 0.0
H811 H 0.22197 0.75466 0.34673 0.0
H812 H 0.23012 0.81603 0.44812 0.0
H813 H 0.2827 0.79566 0.31689 0.0
H814 H 0.21996 0.78293 0.38083 0.0
H815 H 0.27545 0.84868 0.37679 0.0
C816 C 0.26655 0.85426 0.4147 0.0
C817 C 0.25406 0.84502 0.43521 0.0
C818 C 0.23391 0.78574 0.36701 0.0
C819 C 0.25165 0.82001 0.39096 0.0
C820 C 0.23516 0.76951 0.34761 0.0
C821 C 0.25305 0.77246 0.32951 0.0
C822 C 0.25095 0.80491 0.36866 0.0
C823 C 0.26898 0.79262 0.33088 0.0
C824 C 0.26548 0.84168 0.39246 0.0
C825 C 0.24019 0.82361 0.43279 0.0
N826 N 0.26782 0.80803 0.35049 0.0
N827 N 0.23941 0.81182 0.41107 0.0
H828 H 0.40843 0.9789 0.67121 0.0
H829 H 0.47501 0.05928 0.58121 0.0
H830 H 0.44895 0.03978 0.70151 0.0
H831 H 0.48262 0.98062 0.5749 0.0
H832 H 0.46605 0.05445 0.62499 0.0
H833 H 0.43444 0.98012 0.63492 0.0
C834 C 0.42294 0.99244 0.67026 0.0
C835 C 0.42639 0.00951 0.68915 0.0
C836 C 0.47034 0.03835 0.61413 0.0
C837 C 0.45602 0.01104 0.64768 0.0
C838 C 0.47527 0.04107 0.58923 0.0
C839 C 0.47914 0.02026 0.57459 0.0
C840 C 0.46834 0.01465 0.62399 0.0
C841 C 0.47954 -0.00294 0.58568 0.0
C842 C 0.43793 0.99291 0.6497 0.0
C843 C 0.44563 0.02648 0.68715 0.0
N844 N 0.47342 0.99477 0.60967 0.0
N845 N 0.45945 0.02725 0.6664 0.0
H846 H 0.27844 0.19457 0.94121 0.0
H847 H 0.23279 0.18161 0.80513 0.0
H848 H 0.24636 0.12898 0.91052 0.0
H849 H 0.26574 0.24741 0.8338 0.0
H850 H 0.24901 0.15847 0.83975 0.0
H851 H 0.28309 0.21124 0.89979 0.0
C852 C 0.27241 0.18368 0.92576 0.0
C853 C 0.26148 0.16062 0.92931 0.0
C854 C 0.25341 0.17783 0.83818 0.0
C855 C 0.26697 0.17937 0.88195 0.0
C856 C 0.24446 0.1909 0.81818 0.0
C857 C 0.24792 0.21633 0.81684 0.0
C858 C 0.26507 0.19058 0.85727 0.0
C859 C 0.26274 0.22773 0.83435 0.0
C860 C 0.27528 0.19308 0.90211 0.0
C861 C 0.25448 0.14704 0.90865 0.0
N862 N 0.27025 0.21491 0.85429 0.0
N863 N 0.25708 0.15674 0.88592 0.0
H864 H 0.06422 0.98023 0.31114 0.0
H865 H 0.06519 0.0194 0.44941 0.0
H866 H 0.1293 0.00698 0.34673 0.0
H867 H 0.00616 0.97985 0.41552 0.0
H868 H 0.09205 0.00774 0.41537 0.0
H869 H 0.04515 0.97432 0.35101 0.0
C870 C 0.07451 0.98489 0.3274 0.0
C871 C 0.0982 0.99458 0.32558 0.0
C872 C 0.07349 0.00083 0.41575 0.0
C873 C 0.07641 0.9878 0.37157 0.0
C874 C 0.05828 0.00718 0.43537 0.0
C875 C 0.03351 0.0006 0.43506 0.0
C876 C 0.06355 0.98825 0.39561 0.0
C877 C 0.0252 0.98525 0.41632 0.0
C878 C 0.06368 0.98128 0.35024 0.0
C879 C 0.11083 -0.00019 0.34731 0.0
N880 N 0.04003 0.98004 0.39702 0.0
N881 N 0.09964 -0.00327 0.36942 0.0
H882 H 0.26759 0.80613 0.55448 0.0
H883 H 0.19731 0.80929 0.6823 0.0
H884 H 0.22659 0.86765 0.58298 0.0
H885 H 0.26148 0.76446 0.6708 0.0
H886 H 0.19845 0.8211 0.63935 0.0
H887 H 0.25741 0.78272 0.5917 0.0
C888 C 0.25642 0.81463 0.56853 0.0
C889 C 0.24816 0.83891 0.56596 0.0
C890 C 0.21209 0.80842 0.64618 0.0
C891 C 0.23599 0.81225 0.60769 0.0
C892 C 0.21148 0.80169 0.67066 0.0
C893 C 0.22988 0.78662 0.68025 0.0
C894 C 0.23134 0.8002 0.6313 0.0
C895 C 0.24729 0.7766 0.66418 0.0
C896 C 0.25055 0.80127 0.58956 0.0
C897 C 0.2336 0.8491 0.58445 0.0
N898 N 0.24793 0.78401 0.64045 0.0
N899 N 0.22797 0.8357 0.60453 0.0
H900 H 0.38445 0.02609 0.83517 0.0
H901 H 0.48536 0.95855 0.91419 0.0
H902 H 0.4302 0.96695 0.80913 0.0
H903 H 0.44296 0.01982 0.94068 0.0
H904 H 0.45764 0.9546 0.87949 0.0
H905 H 0.39903 0.01853 0.87679 0.0
C906 C 0.39753 0.01148 0.83827 0.0
C907 C 0.40668 -0.00248 0.81871 0.0
C908 C 0.45408 0.96867 0.89306 0.0
C909 C 0.42305 0.98851 0.86609 0.0
C910 C 0.46984 0.97085 0.91285 0.0
C911 C 0.46647 0.98975 0.92988 0.0
C912 C 0.43539 0.98608 0.88997 0.0
C913 C 0.44605 0.00506 0.92774 0.0
C914 C 0.40569 0.00705 0.862 0.0
C915 C 0.42322 0.97855 0.82366 0.0
N916 N 0.43151 0.00328 0.90771 0.0
N917 N 0.43102 0.97472 0.84685 0.0
H918 H 0.26078 0.2021 0.04918 0.0
H919 H 0.25783 0.19692 0.19457 0.0
H920 H 0.26641 0.13313 0.08769 0.0
H921 H 0.27575 0.26191 0.15292 0.0
H922 H 0.26115 0.1724 0.15682 0.0
H923 H 0.26513 0.22387 0.08792 0.0
C924 C 0.263 0.19152 0.06581 0.0
C925 C 0.26316 0.16577 0.06517 0.0
C926 C 0.2647 0.19197 0.1561 0.0
C927 C 0.26816 0.19065 0.10984 0.0
C928 C 0.26294 0.20595 0.17765 0.0
C929 C 0.2661 0.23159 0.17685 0.0
C930 C 0.26951 0.20381 0.1337 0.0
C931 C 0.27265 0.2423 0.15438 0.0
C932 C 0.26562 0.20397 0.08796 0.0
C933 C 0.26611 0.15303 0.08737 0.0
N934 N 0.27383 0.22845 0.13376 0.0
N935 N 0.26831 0.16559 0.10886 0.0
H936 H 0.16622 0.12661 0.0144 0.0
H937 H 0.09059 0.01594 0.95448 0.0
H938 H 0.19689 0.06918 0.96937 0.0
H939 H 0.0609 0.06177 0.01164 0.0
H940 H 0.12648 0.04259 0.95236 0.0
H941 H 0.12528 0.10902 0.00783 0.0
C942 C 0.16432 0.11038 0.00307 0.0
C943 C 0.185 0.0991 0.99269 0.0
C944 C 0.11203 0.04706 0.96519 0.0
C945 C 0.13835 0.0793 0.98468 0.0
C946 C 0.09147 0.03195 0.96627 0.0
C947 C 0.073 0.03649 0.9835 0.0
C948 C 0.11443 0.06659 0.98185 0.0
C949 C 0.07483 0.05763 -0.00186 0.0
C950 C 0.14098 0.10042 -0.00072 0.0
C951 C 0.18152 0.07823 0.97806 0.0
N952 N 0.09549 0.07167 -0.00264 0.0
N953 N 0.15871 0.06904 0.97451 0.0
H954 H 0.67928 0.40494 0.97158 0.0
H955 H 0.58728 0.46982 0.0548 0.0
H956 H 0.70711 0.44559 0.03337 0.0
H957 H 0.57899 0.47418 0.97646 0.0
H958 H 0.63084 0.46052 0.04904 0.0
H959 H 0.64133 0.42848 0.97403 0.0
C960 C 0.67745 0.419 0.98552 0.0
C961 C 0.69616 0.42328 0.00243 0.0
C962 C 0.61955 0.46408 0.03318 0.0
C963 C 0.65291 0.44996 0.00544 0.0
C964 C 0.59479 0.46925 0.03644 0.0
C965 C 0.57969 0.47247 0.01604 0.0
C966 C 0.62881 0.46126 0.00939 0.0
C967 C 0.59015 0.47174 0.99262 0.0
C968 C 0.65593 0.43253 0.98677 0.0
C969 C 0.69298 0.44174 0.02008 0.0
N970 N 0.61402 0.46554 0.98988 0.0
N971 N 0.67145 0.45415 0.02148 0.0
H972 H 0.8295 0.44289 0.28983 0.0
H973 H 0.81629 0.30917 0.23708 0.0
H974 H 0.87293 0.41704 0.22902 0.0
H975 H 0.7854 0.33311 0.3057 0.0
H976 H 0.84345 0.34508 0.23742 0.0
H977 H 0.81763 0.4007 0.29868 0.0
C978 C 0.83641 0.42827 0.27825 0.0
C979 C 0.85181 0.4334 0.25841 0.0
C980 C 0.83126 0.34207 0.25278 0.0
C981 C 0.83845 0.38496 0.26845 0.0
C982 C 0.816 0.32144 0.25271 0.0
C983 C 0.79833 0.31871 0.27111 0.0
C984 C 0.82848 0.35984 0.27131 0.0
C985 C 0.79852 0.33501 0.29094 0.0
C986 C 0.8299 0.40412 0.28347 0.0
C987 C 0.86072 0.41377 0.2443 0.0
N988 N 0.81297 0.35521 0.29026 0.0
N989 N 0.85362 0.39037 0.24938 0.0
H990 H 0.84436 0.61838 0.48002 0.0
H991 H 0.90548 0.49066 0.50783 0.0
H992 H 0.80462 0.55188 0.49672 0.0
H993 H 0.94635 0.55613 0.49074 0.0
H994 H 0.86876 0.50969 0.49128 0.0
H995 H 0.88141 0.59401 0.47392 0.0
C996 C 0.84343 0.59862 0.48235 0.0
C997 C 0.82152 0.58715 0.48937 0.0
C998 C 0.88585 0.51971 0.49036 0.0
C999 C 0.86379 0.55914 0.48221 0.0
C1000 C 0.9069 0.50868 0.49946 0.0
C1001 C 0.9287 0.5221 0.50092 0.0
C1002 C 0.88665 0.54453 0.48334 0.0
C1003 C 0.92972 0.54534 0.49003 0.0
C1004 C 0.86454 0.5847 0.47864 0.0
C1005 C 0.82123 0.56149 0.49168 0.0
N1006 N 0.90872 0.55621 0.48237 0.0
N1007 N 0.84212 0.54838 0.48841 0.0
H1008 H 0.13059 0.09063 0.25068 0.0
H1009 H 0.25916 0.15935 0.24034 0.0
H1010 H 0.20004 0.05466 0.23991 0.0
H1011 H 0.19289 0.19569 0.26265 0.0
H1012 H 0.23532 0.1233 0.22839 0.0
H1013 H 0.15084 0.13061 0.24537 0.0
C1014 C 0.15008 0.09113 0.24717 0.0
C1015 C 0.1637 0.06924 0.24616 0.0
C1016 C 0.2258 0.13937 0.23522 0.0
C1017 C 0.18696 0.11495 0.23987 0.0
C1018 C 0.2394 0.16014 0.24162 0.0
C1019 C 0.22794 0.1805 0.25239 0.0
C1020 C 0.20057 0.13877 0.24009 0.0
C1021 C 0.20236 0.18038 0.25421 0.0
C1022 C 0.1616 0.11395 0.24401 0.0
C1023 C 0.18882 0.07102 0.2411 0.0
N1024 N 0.18954 0.1596 0.24864 0.0
N1025 N 0.19963 0.09341 0.23838 0.0
H1026 H 0.31428 0.92883 0.46278 0.0
H1027 H 0.44832 0.94548 0.50922 0.0
H1028 H 0.34738 0.88216 0.51718 0.0
H1029 H 0.41504 0.98955 0.45298 0.0
H1030 H 0.41621 0.91475 0.50421 0.0
H1031 H 0.35454 0.94371 0.45112 0.0
C1032 C 0.33013 0.92186 0.47238 0.0
C1033 C 0.32763 0.90506 0.49161 0.0
C1034 C 0.41625 0.93078 0.49246 0.0
C1035 C 0.37369 0.92207 0.47852 0.0
C1036 C 0.43467 0.9482 0.49522 0.0
C1037 C 0.43391 0.97005 0.48174 0.0
C1038 C 0.3969 0.93564 0.47637 0.0
C1039 C 0.41574 0.9731 0.46412 0.0
C1040 C 0.35313 0.93011 0.46552 0.0
C1041 C 0.34866 0.89571 0.50273 0.0
N1042 N 0.39766 0.95621 0.46218 0.0
N1043 N 0.37092 0.9048 0.4964 0.0
H1044 H 0.84586 0.58098 0.27828 0.0
H1045 H 0.76778 0.66566 0.19888 0.0
H1046 H 0.80803 0.54986 0.21641 0.0
H1047 H 0.77037 0.67538 0.27709 0.0
H1048 H 0.78 0.62265 0.2041 0.0
H1049 H 0.81771 0.61575 0.27786 0.0
C1050 C 0.83154 0.58147 0.26464 0.0
C1051 C 0.82942 0.56277 0.24713 0.0
C1052 C 0.77714 0.63398 0.22016 0.0
C1053 C 0.79723 0.60251 0.2465 0.0
C1054 C 0.77019 0.65847 0.2172 0.0
C1055 C 0.76832 0.67401 0.23761 0.0
C1056 C 0.78304 0.62539 0.2436 0.0
C1057 C 0.77157 0.66392 0.26094 0.0
C1058 C 0.8153 0.60115 0.2646 0.0
C1059 C 0.81034 0.56409 0.23008 0.0
N1060 N 0.77948 0.64037 0.26329 0.0
N1061 N 0.79522 0.58396 0.22984 0.0
H1062 H 0.69906 0.44077 0.7779 0.0
H1063 H 0.68649 0.30077 0.73654 0.0
H1064 H 0.64135 0.4113 0.7329 0.0
H1065 H 0.75082 0.32982 0.77126 0.0
H1066 H 0.66457 0.33855 0.74669 0.0
H1067 H 0.7143 0.39876 0.78438 0.0
C1068 C 0.68968 0.42551 0.76929 0.0
C1069 C 0.6691 0.42959 0.75454 0.0
C1070 C 0.68325 0.33644 0.75285 0.0
C1071 C 0.68607 0.38156 0.76232 0.0
C1072 C 0.69558 0.31461 0.74753 0.0
C1073 C 0.72045 0.31234 0.75302 0.0
C1074 C 0.6961 0.35617 0.7634 0.0
C1075 C 0.73158 0.33097 0.76678 0.0
C1076 C 0.69823 0.40154 0.7732 0.0
C1077 C 0.65741 0.40909 0.74421 0.0
N1078 N 0.71953 0.35246 0.77095 0.0
N1079 N 0.66611 0.38606 0.7482 0.0
H1080 H 0.99478 0.84178 0.87663 0.0
H1081 H -0.00086 0.90846 0.00686 0.0
H1082 H 0.00457 0.80467 0.94562 0.0
H1083 H 0.00767 0.94682 0.93859 0.0
H1084 H 0.98819 0.87113 0.98443 0.0
H1085 H 0.98847 0.88056 0.89878 0.0
C1086 C -0.00433 0.84179 0.89642 0.0
C1087 C 0.00065 0.82 0.90927 0.0
C1088 C 0.99163 0.8879 0.9743 0.0
C1089 C 0.99316 0.86428 0.93472 0.0
C1090 C -0.00257 0.90933 0.98713 0.0
C1091 C 0.00398 0.93081 0.97452 0.0
C1092 C 0.99273 0.88787 0.94861 0.0
C1093 C 0.00221 0.93079 0.94895 0.0
C1094 C 0.9919 0.8639 0.90904 0.0
C1095 C 0.00104 0.82104 0.93494 0.0
N1096 N -0.00281 0.90951 0.93678 0.0
N1097 N -0.00244 0.8428 0.94677 0.0
H1098 H 0.92954 0.29212 0.65402 0.0
H1099 H 0.83278 0.22481 0.73331 0.0
H1100 H 0.94936 0.22515 0.69125 0.0
H1101 H 0.83329 0.30354 0.72407 0.0
H1102 H 0.87596 0.2236 0.72081 0.0
H1103 H 0.89416 0.29612 0.68083 0.0
C1104 C 0.92644 0.27831 0.66797 0.0
C1105 C 0.94214 0.25818 0.67035 0.0
C1106 C 0.86678 0.24119 0.72225 0.0
C1107 C 0.9016 0.26247 0.70098 0.0
C1108 C 0.84223 0.24188 0.72943 0.0
C1109 C 0.82951 0.26425 0.72913 0.0
C1110 C 0.8783 0.26301 0.71466 0.0
C1111 C 0.8424 0.28587 0.7239 0.0
C1112 C 0.90639 0.2807 0.68343 0.0
C1113 C 0.9375 0.24089 0.68886 0.0
N1114 N 0.866 0.28467 0.71645 0.0
N1115 N 0.91728 0.24316 0.70327 0.0
H1116 H 0.51385 0.20291 0.44806 0.0
H1117 H 0.49588 0.05943 0.4351 0.0
H1118 H 0.51324 0.16556 0.37842 0.0
H1119 H 0.50841 0.09595 0.5038 0.0
H1120 H 0.51017 0.0963 0.41356 0.0
H1121 H 0.51776 0.16316 0.46857 0.0
C1122 C 0.51468 0.18634 0.43708 0.0
C1123 C 0.51274 0.1875 0.41154 0.0
C1124 C 0.51058 0.09604 0.43336 0.0
C1125 C 0.51749 0.14186 0.43483 0.0
C1126 C 0.50278 0.07483 0.44561 0.0
C1127 C 0.50102 0.07483 0.47116 0.0
C1128 C 0.51606 0.11738 0.44688 0.0
C1129 C 0.5096 0.09535 0.48403 0.0
C1130 C 0.51709 0.16363 0.44877 0.0
C1131 C 0.51415 0.16546 0.3982 0.0
N1132 N 0.51624 0.11603 0.47177 0.0
N1133 N 0.5162 0.14354 0.41 0.0
H1134 H 0.5863 0.72216 0.12748 0.0
H1135 H 0.66746 0.78805 0.22905 0.0
H1136 H 0.56474 0.78433 0.17161 0.0
H1137 H 0.68225 0.71409 0.20485 0.0
H1138 H 0.63622 0.79186 0.19772 0.0
H1139 H 0.62713 0.7236 0.1464 0.0
C1140 C 0.59031 0.73624 0.14092 0.0
C1141 C 0.57217 0.75281 0.14858 0.0
C1142 C 0.64622 0.77474 0.19917 0.0
C1143 C 0.6183 0.7548 0.16961 0.0
C1144 C 0.66387 0.77254 0.21711 0.0
C1145 C 0.67651 0.75044 0.2199 0.0
C1146 C 0.64075 0.75445 0.18433 0.0
C1147 C 0.67218 0.73117 0.20348 0.0
C1148 C 0.61347 0.73704 0.15162 0.0
C1149 C 0.57811 0.77088 0.1657 0.0
N1150 N 0.65412 0.73339 0.18654 0.0
N1151 N 0.60063 0.77131 0.17573 0.0
H1152 H -0.00129 0.16228 0.62174 0.0
H1153 H 0.04022 0.09712 0.49854 0.0
H1154 H 0.01544 0.19905 0.5537 0.0
H1155 H 0.00886 0.05809 0.55971 0.0
H1156 H 0.04418 0.13362 0.52417 0.0
H1157 H 0.0124 0.12342 0.60366 0.0
C1158 C 0.0051 0.16211 0.60296 0.0
C1159 C 0.00556 0.18371 0.58898 0.0
C1160 C 0.03677 0.11695 0.53212 0.0
C1161 C 0.02178 0.13981 0.5686 0.0
C1162 C 0.03456 0.09618 0.51754 0.0
C1163 C 0.02334 0.07505 0.52692 0.0
C1164 C 0.02709 0.11659 0.55593 0.0
C1165 C 0.01708 0.07432 0.55177 0.0
C1166 C 0.01318 0.14006 0.5928 0.0
C1167 C 0.01438 0.1827 0.56494 0.0
N1168 N 0.01839 0.09513 0.56536 0.0
N1169 N 0.02208 0.16106 0.55548 0.0
H1170 H 0.56756 0.23521 0.31045 0.0
H1171 H 0.70576 0.26908 0.32988 0.0
H1172 H 0.59821 0.25504 0.38036 0.0
H1173 H 0.67586 0.24472 0.26129 0.0
H1174 H 0.66981 0.2527 0.35107 0.0
H1175 H 0.60879 0.22909 0.29439 0.0
C1176 C 0.58299 0.23826 0.32244 0.0
C1177 C 0.57947 0.24634 0.34657 0.0
C1178 C 0.67139 0.25016 0.33147 0.0
C1179 C 0.62685 0.23926 0.32832 0.0
C1180 C 0.69208 0.25922 0.31945 0.0
C1181 C 0.69355 0.25828 0.29389 0.0
C1182 C 0.65182 0.24089 0.31762 0.0
C1183 C 0.6753 0.24571 0.28108 0.0
C1184 C 0.60656 0.23454 0.31333 0.0
C1185 C 0.60012 0.24938 0.36146 0.0
N1186 N 0.65484 0.23805 0.293 0.0
N1187 N 0.62294 0.24622 0.35199 0.0
H1188 H 0.52496 0.83279 0.11075 0.0
H1189 H 0.47741 0.91328 -0.00049 0.0
H1190 H 0.48625 0.8013 0.04956 0.0
H1191 H 0.51427 0.94105 0.06337 0.0
H1192 H 0.48781 0.87103 0.0123 0.0
H1193 H 0.52866 0.87115 0.08864 0.0
C1194 C 0.5172 0.83398 0.09258 0.0
C1195 C 0.50464 0.81411 0.08221 0.0
C1196 C 0.49387 0.88643 0.02329 0.0
C1197 C 0.50863 0.85823 0.05671 0.0
C1198 C 0.48789 0.91036 0.01603 0.0
C1199 C 0.49435 0.93017 0.03099 0.0
C1200 C 0.50638 0.88279 0.04546 0.0
C1201 C 0.50838 0.92594 0.05186 0.0
C1202 C 0.51945 0.8559 0.07985 0.0
C1203 C 0.49554 0.81647 0.05837 0.0
N1204 N 0.5137 0.90268 0.05863 0.0
N1205 N 0.49734 0.83838 0.0465 0.0
H1206 H 0.9262 0.78083 0.85299 0.0
H1207 H 0.84089 0.70731 0.76776 0.0
H1208 H 0.95753 0.72998 0.80111 0.0
H1209 H 0.82469 0.78296 0.78465 0.0
H1210 H 0.88365 0.71441 0.77921 0.0
H1211 H 0.88845 0.78142 0.82896 0.0
C1212 C 0.92513 0.76985 0.83649 0.0
C1213 C 0.94484 0.75506 0.82917 0.0
C1214 C 0.87089 0.72962 0.77982 0.0
C1215 C 0.9017 0.75546 0.8018 0.0
C1216 C 0.84656 0.72558 0.77325 0.0
C1217 C 0.82938 0.7446 0.77525 0.0
C1218 C 0.87779 0.75254 0.7894 0.0
C1219 C 0.83749 0.7679 0.78269 0.0
C1220 C 0.9037 0.77038 0.82267 0.0
C1221 C 0.94264 0.74147 0.80745 0.0
N1222 N 0.86102 0.77108 0.79014 0.0
N1223 N 0.92125 0.74158 0.79477 0.0
H1224 H 0.89232 0.02918 0.82637 0.0
H1225 H 0.98724 0.9823 0.9221 0.0
H1226 H 0.94886 0.98007 0.80091 0.0
H1227 H 0.96078 0.05702 0.92116 0.0
H1228 H 0.97285 0.97727 0.87966 0.0
H1229 H 0.9148 0.03505 0.86432 0.0
C1230 C 0.9095 0.01959 0.82878 0.0
C1231 C 0.91879 0.0042 0.81041 0.0
C1232 C 0.97071 0.99485 0.88872 0.0
C1233 C 0.94461 0.01074 0.85406 0.0
C1234 C 0.97901 -0.00222 0.91286 0.0
C1235 C 0.97483 0.01995 0.92544 0.0
C1236 C 0.95788 0.01412 0.87744 0.0
C1237 C 0.96397 0.0394 0.91249 0.0
C1238 C 0.92241 0.02309 0.85039 0.0
C1239 C 0.94117 0.99221 0.81461 0.0
N1240 N 0.95548 0.03587 0.88948 0.0
N1241 N 0.95328 0.99553 0.83618 0.0
H1242 H 0.7346 0.19169 0.55629 0.0
H1243 H 0.76281 0.18672 0.69542 0.0
H1244 H 0.76469 0.12624 0.58913 0.0
H1245 H 0.70958 0.23584 0.66419 0.0
H1246 H 0.76049 0.16109 0.65872 0.0
H1247 H 0.72376 0.20676 0.59678 0.0
C1248 C 0.73911 0.18061 0.57212 0.0
C1249 C 0.75079 0.15791 0.56956 0.0
C1250 C 0.74875 0.17705 0.66022 0.0
C1251 C 0.73827 0.17481 0.61585 0.0
C1252 C 0.74995 0.19152 0.68122 0.0
C1253 C 0.73676 0.21353 0.68238 0.0
C1254 C 0.73454 0.18508 0.64043 0.0
C1255 C 0.72051 0.21925 0.66353 0.0
C1256 C 0.73256 0.189 0.59519 0.0
C1257 C 0.75584 0.14399 0.59052 0.0
N1258 N 0.7202 0.20534 0.64302 0.0
N1259 N 0.74981 0.15283 0.61295 0.0
H1260 H 0.55444 0.01187 0.29496 0.0
H1261 H 0.56794 0.9783 0.43413 0.0
H1262 H 0.62265 0.00791 0.33426 0.0
H1263 H 0.49952 0.00839 0.40883 0.0
H1264 H 0.58673 0.98864 0.3958 0.0
H1265 H 0.53238 0.01156 0.33445 0.0
C1266 C 0.56472 0.01104 0.31183 0.0
C1267 C 0.59035 0.00912 0.3114 0.0
C1268 C 0.56759 0.99309 0.39833 0.0
C1269 C 0.5655 0.00893 0.35605 0.0
C1270 C 0.55669 0.98683 0.42021 0.0
C1271 C 0.53193 0.99184 0.42437 0.0
C1272 C 0.55371 0.00423 0.37995 0.0
C1273 C 0.51858 0.00382 0.40601 0.0
C1274 C 0.55217 0.01106 0.33425 0.0
C1275 C 0.60289 0.00878 0.33365 0.0
N1276 N 0.5296 0.00933 0.3842 0.0
N1277 N 0.59034 0.0084 0.35496 0.0
H1278 H 0.71452 0.81682 0.07213 0.0
H1279 H 0.77804 0.81701 0.19777 0.0
H1280 H 0.7515 0.88062 0.10086 0.0
H1281 H 0.72413 0.7629 0.17801 0.0
H1282 H 0.76099 0.84513 0.16753 0.0
H1283 H 0.7109 0.80054 0.11368 0.0
C1284 C 0.72182 0.8274 0.08724 0.0
C1285 C 0.73401 0.84968 0.08306 0.0
C1286 C 0.75228 0.82745 0.17025 0.0
C1287 C 0.73004 0.83122 0.13057 0.0
C1288 C 0.76193 0.81151 0.18764 0.0
C1289 C 0.75254 0.78771 0.18997 0.0
C1290 C 0.73389 0.81895 0.15445 0.0
C1291 C 0.73186 0.78118 0.17648 0.0
C1292 C 0.7195 0.81827 0.11099 0.0
C1293 C 0.74245 0.86308 0.10328 0.0
N1294 N 0.7236 0.79649 0.15868 0.0
N1295 N 0.74079 0.85339 0.12613 0.0
H1296 H 0.87647 0.98312 0.65633 0.0
H1297 H 0.99457 0.02405 0.58316 0.0
H1298 H 0.93524 0.02748 0.68485 0.0
H1299 H 0.94209 0.97201 0.55575 0.0
H1300 H 0.96507 0.03713 0.6142 0.0
H1301 H 0.89317 0.98868 0.61493 0.0
C1302 C 0.89278 0.99416 0.65384 0.0
C1303 C 0.905 0.00419 0.67406 0.0
C1304 C 0.95961 0.02341 0.60092 0.0
C1305 C 0.92384 0.01106 0.62692 0.0
C1306 C 0.97632 0.01633 0.58292 0.0
C1307 C 0.9706 -0.00292 0.56699 0.0
C1308 C 0.93747 0.01045 0.60341 0.0
C1309 C 0.94705 0.98696 0.56787 0.0
C1310 C 0.90219 -0.00253 0.63023 0.0
C1311 C 0.92572 0.01876 0.66983 0.0
N1312 N 0.93149 0.99332 0.58624 0.0
N1313 N 0.9346 0.02156 0.64679 0.0
H1314 H 0.73605 0.13326 0.41613 0.0
H1315 H 0.76352 0.24629 0.32886 0.0
H1316 H 0.76904 0.19931 0.44501 0.0
H1317 H 0.76923 0.17012 0.30697 0.0
H1318 H 0.75683 0.2329 0.37126 0.0
H1319 H 0.73726 0.15111 0.37537 0.0
C1320 C 0.74352 0.15158 0.4139 0.0
C1321 C 0.75322 0.16457 0.43378 0.0
C1322 C 0.75971 0.21928 0.35708 0.0
C1323 C 0.75458 0.18498 0.38725 0.0
C1324 C 0.76361 0.22681 0.33298 0.0
C1325 C 0.76712 0.20925 0.31441 0.0
C1326 C 0.75885 0.19409 0.36234 0.0
C1327 C 0.76688 0.18429 0.3207 0.0
C1328 C 0.74419 0.1617 0.39065 0.0
C1329 C 0.76195 0.18852 0.42997 0.0
N1330 N 0.7626 0.17747 0.34412 0.0
N1331 N 0.76268 0.19798 0.40694 0.0
H1332 H 0.63275 0.02446 0.16084 0.0
H1333 H 0.51311 0.98149 0.09371 0.0
H1334 H 0.58611 0.96499 0.18445 0.0
H1335 H 0.56398 0.03082 0.05847 0.0
H1336 H 0.54299 0.97272 0.12475 0.0
H1337 H 0.61223 0.02415 0.12092 0.0
C1338 C 0.61855 0.01102 0.15741 0.0
C1339 C 0.61048 0.99521 0.17606 0.0
C1340 C 0.5479 0.98547 0.11034 0.0
C1341 C 0.58719 0.99477 0.13088 0.0
C1342 C 0.53066 0.99074 0.09273 0.0
C1343 C 0.53588 0.00751 0.07402 0.0
C1344 C 0.57057 -0.00253 0.10978 0.0
C1345 C 0.55919 0.01819 0.07302 0.0
C1346 C 0.60689 0.01086 0.13468 0.0
C1347 C 0.59235 0.97795 0.17074 0.0
N1348 N 0.57568 0.01337 0.09109 0.0
N1349 N 0.58112 0.97841 0.14874 0.0
H1350 H 0.73272 0.80709 0.95785 0.0
H1351 H 0.75721 0.8141 0.81509 0.0
H1352 H 0.74746 0.87674 0.92304 0.0
H1353 H 0.71614 0.75619 0.85 0.0
H1354 H 0.75412 0.83851 0.85305 0.0
H1355 H 0.72843 0.7882 0.9176 0.0
C1356 C 0.73513 0.81839 0.9417 0.0
C1357 C 0.74051 0.84348 0.94379 0.0
C1358 C 0.74534 0.82067 0.85214 0.0
C1359 C 0.73561 0.82197 0.89749 0.0
C1360 C 0.74692 0.80688 0.83045 0.0
C1361 C 0.73714 0.78302 0.82961 0.0
C1362 C 0.7341 0.81031 0.87293 0.0
C1363 C 0.72424 0.77436 0.85007 0.0
C1364 C 0.73248 0.80766 0.91869 0.0
C1365 C 0.74331 0.85729 0.9222 0.0
N1366 N 0.7234 0.78781 0.87094 0.0
N1367 N 0.74104 0.84632 0.89989 0.0
H1368 H 0.80157 0.93598 0.98386 0.0
H1369 H 0.93801 0.94621 0.03469 0.0
H1370 H 0.83112 0.88015 0.03129 0.0
H1371 H 0.90737 0.99014 0.97676 0.0
H1372 H 0.90119 0.91959 0.03321 0.0
H1373 H 0.84186 0.95442 0.98059 0.0
C1374 C 0.81661 0.92763 0.99368 0.0
C1375 C 0.81291 0.90673 0.00812 0.0
C1376 C 0.90278 0.93495 0.02071 0.0
C1377 C 0.85951 0.92798 0.00471 0.0
C1378 C 0.92374 0.95006 0.02155 0.0
C1379 C 0.92533 0.97081 0.00634 0.0
C1380 C 0.88365 0.94076 0.00445 0.0
C1381 C 0.90656 0.97481 0.98938 0.0
C1382 C 0.83975 0.9381 0.99173 0.0
C1383 C 0.83322 0.89644 0.0201 0.0
N1384 N 0.88658 0.96016 0.98907 0.0
N1385 N 0.85567 0.90736 0.01841 0.0
H1386 H 0.30118 0.55174 0.01097 0.0
H1387 H 0.44482 0.5626 0.99335 0.0
H1388 H 0.34246 0.61933 0.00765 0.0
H1389 H 0.40919 0.49202 -0.00182 0.0
H1390 H 0.40729 0.58259 0.00518 0.0
H1391 H 0.3398 0.52862 0.01256 0.0
C1392 C 0.31834 0.56168 0.01073 0.0
C1393 C 0.31873 0.58742 0.00856 0.0
C1394 C 0.40739 0.56273 0.00384 0.0
C1395 C 0.36255 0.56131 0.01054 0.0
C1396 C 0.42886 0.55132 -0.00303 0.0
C1397 C 0.42972 0.52579 0.99413 0.0
C1398 C 0.38626 0.54861 0.00756 0.0
C1399 C 0.40888 0.51187 -0.00033 0.0
C1400 C 0.34029 0.54851 0.01173 0.0
C1401 C 0.3413 0.59949 0.00881 0.0
N1402 N 0.38764 0.52357 0.00575 0.0
N1403 N 0.36223 0.58632 0.00954 0.0
H1404 H 0.17312 0.56892 0.77661 0.0
H1405 H 0.19209 0.69177 0.7033 0.0
H1406 H 0.12629 0.58744 0.716 0.0
H1407 H 0.22133 0.67742 0.77484 0.0
H1408 H 0.16385 0.65667 0.70865 0.0
H1409 H 0.18772 0.611 0.77769 0.0
C1410 C 0.16591 0.58196 0.76351 0.0
C1411 C 0.14893 0.57471 0.74587 0.0
C1412 C 0.17601 0.6617 0.72342 0.0
C1413 C 0.16568 0.62302 0.74675 0.0
C1414 C 0.19198 0.68164 0.72035 0.0
C1415 C 0.20874 0.68725 0.73882 0.0
C1416 C 0.17754 0.64734 0.7448 0.0
C1417 C 0.20829 0.67374 0.7605 0.0
C1418 C 0.17408 0.60609 0.76422 0.0
C1419 C 0.13972 0.5924 0.72965 0.0
N1420 N 0.19322 0.65421 0.76278 0.0
N1421 N 0.14859 0.61578 0.73014 0.0
H1422 H 0.18714 0.44822 0.53019 0.0
H1423 H 0.04846 0.4309 0.49529 0.0
H1424 H 0.15439 0.37876 0.51067 0.0
H1425 H 0.08069 0.50018 0.5152 0.0
H1426 H 0.08372 0.4096 0.51276 0.0
H1427 H 0.14621 0.46576 0.5351 0.0
C1428 C 0.17134 0.43665 0.52703 0.0
C1429 C 0.17416 0.41221 0.51937 0.0
C1430 C 0.08272 0.42943 0.51422 0.0
C1431 C 0.12727 0.43204 0.52509 0.0
C1432 C 0.0624 0.44153 0.50457 0.0
C1433 C 0.06176 0.46725 0.50408 0.0
C1434 C 0.10267 0.44333 0.52274 0.0
C1435 C 0.08044 0.4803 0.51572 0.0
C1436 C 0.14796 0.4466 0.53002 0.0
C1437 C 0.15306 0.39787 0.51606 0.0
N1438 N 0.10046 0.46824 0.52409 0.0
N1439 N 0.13054 0.40809 0.5186 0.0
H1440 H 0.81469 0.9438 0.77793 0.0
H1441 H 0.81407 0.80524 0.73336 0.0
H1442 H 0.87581 0.90845 0.74242 0.0
H1443 H 0.7535 0.84007 0.76987 0.0
H1444 H 0.84062 0.83915 0.74615 0.0
H1445 H 0.79548 0.90352 0.78355 0.0
C1446 C 0.82411 0.92755 0.7714 0.0
C1447 C 0.84662 0.92956 0.75919 0.0
C1448 C 0.82172 0.83908 0.75207 0.0
C1449 C 0.82472 0.88332 0.76551 0.0
C1450 C 0.80667 0.81952 0.74507 0.0
C1451 C 0.78168 0.81996 0.75068 0.0
C1452 C 0.81144 0.85942 0.76425 0.0
C1453 C 0.77276 0.83909 0.76534 0.0
C1454 C 0.81321 0.90452 0.77474 0.0
C1455 C 0.85824 0.90782 0.75157 0.0
N1456 N 0.78751 0.85834 0.77122 0.0
N1457 N 0.84701 0.88568 0.75452 0.0
H1458 H 0.67118 0.12389 0.531 0.0
H1459 H 0.585 0.03081 0.45907 0.0
H1460 H 0.69056 0.08361 0.46575 0.0
H1461 H 0.56912 0.05518 0.53249 0.0
H1462 H 0.61835 0.06037 0.45672 0.0
H1463 H 0.62927 0.10769 0.5279 0.0
C1464 C 0.66647 0.11183 0.51594 0.0
C1465 C 0.6842 0.10452 0.49886 0.0
C1466 C 0.60755 0.05943 0.47335 0.0
C1467 C 0.63683 0.08664 0.49493 0.0
C1468 C 0.58864 0.04256 0.47469 0.0
C1469 C 0.57511 0.04024 0.49629 0.0
C1470 C 0.61332 0.07357 0.49402 0.0
C1471 C 0.57971 0.05628 0.51575 0.0
C1472 C 0.64268 0.10271 0.51415 0.0
C1473 C 0.67744 0.08915 0.47957 0.0
N1474 N 0.59896 0.07204 0.5144 0.0
N1475 N 0.65428 0.08065 0.47818 0.0
H1476 H 0.19473 0.44718 0.72519 0.0
H1477 H 0.21789 0.33207 0.81261 0.0
H1478 H 0.15482 0.4318 0.79163 0.0
H1479 H 0.23513 0.33042 0.73555 0.0
H1480 H 0.20616 0.37516 0.8087 0.0
H1481 H 0.21932 0.40992 0.73197 0.0
C1482 C 0.19144 0.43613 0.74136 0.0
C1483 C 0.17274 0.44231 0.75786 0.0
C1484 C 0.21289 0.36547 0.79272 0.0
C1485 C 0.20086 0.40042 0.7659 0.0
C1486 C 0.21969 0.34096 0.79495 0.0
C1487 C 0.22707 0.32762 0.77427 0.0
C1488 C 0.21326 0.37665 0.76961 0.0
C1489 C 0.22944 0.34008 0.7519 0.0
C1490 C 0.2054 0.41497 0.74517 0.0
C1491 C 0.16896 0.42746 0.7784 0.0
N1492 N 0.22208 0.36389 0.75002 0.0
N1493 N 0.18293 0.4072 0.78187 0.0
H1494 H 0.37857 0.58813 0.26252 0.0
H1495 H 0.25984 0.66454 0.22986 0.0
H1496 H 0.31884 0.56072 0.21894 0.0
H1497 H 0.3172 0.6916 0.27634 0.0
H1498 H 0.28671 0.63142 0.21609 0.0
H1499 H 0.36118 0.62948 0.26003 0.0
C1500 C 0.36184 0.59084 0.25231 0.0
C1501 C 0.34982 0.57087 0.24137 0.0
C1502 C 0.29381 0.64502 0.22868 0.0
C1503 C 0.32997 0.61824 0.23816 0.0
C1504 C 0.27861 0.66426 0.23611 0.0
C1505 C 0.28651 0.68091 0.25395 0.0
C1506 C 0.31675 0.64208 0.2398 0.0
C1507 C 0.3106 0.67916 0.26235 0.0
C1508 C 0.35201 0.61449 0.25077 0.0
C1509 C 0.32841 0.5755 0.22811 0.0
N1510 N 0.32475 0.65973 0.25561 0.0
N1511 N 0.31907 0.59865 0.22706 0.0
H1512 H 0.53251 0.6956 0.56275 0.0
H1513 H 0.47596 0.56041 0.5627 0.0
H1514 H 0.4776 0.6696 0.61331 0.0
H1515 H 0.52651 0.5862 0.50799 0.0
H1516 H 0.48497 0.59668 0.58755 0.0
H1517 H 0.53713 0.65346 0.54717 0.0
C1518 C 0.5214 0.68107 0.57053 0.0
C1519 C 0.50438 0.68624 0.58913 0.0
C1520 C 0.49473 0.59413 0.57047 0.0
C1521 C 0.50985 0.6379 0.57168 0.0
C1522 C 0.48995 0.57312 0.55653 0.0
C1523 C 0.50055 0.57036 0.53332 0.0
C1524 C 0.50989 0.6127 0.56087 0.0
C1525 C 0.51807 0.58766 0.52588 0.0
C1526 C 0.52419 0.65698 0.56178 0.0
C1527 C 0.49074 0.66658 0.59877 0.0
N1528 N 0.52179 0.60842 0.53932 0.0
N1529 N 0.49367 0.64342 0.58987 0.0
H1530 H 0.54964 0.24267 0.79533 0.0
H1531 H 0.68664 0.219 0.82226 0.0
H1532 H 0.58542 0.26545 0.86191 0.0
H1533 H 0.66924 0.24198 0.74873 0.0
H1534 H 0.64609 0.23062 0.8354 0.0
H1535 H 0.59015 0.23944 0.77542 0.0
C1536 C 0.56591 0.24727 0.80561 0.0
C1537 C 0.56433 0.2535 0.83051 0.0
C1538 C 0.65099 0.23306 0.81633 0.0
C1539 C 0.60998 0.24983 0.80813 0.0
C1540 C 0.67404 0.22606 0.8087 0.0
C1541 C 0.68114 0.22916 0.78427 0.0
C1542 C 0.6345 0.24285 0.79942 0.0
C1543 C 0.66424 0.23914 0.7677 0.0
C1544 C 0.58887 0.24556 0.79423 0.0
C1545 C 0.5858 0.25984 0.8429 0.0
N1546 N 0.64136 0.24543 0.77553 0.0
N1547 N 0.60772 0.25742 0.83172 0.0
H1548 H 0.97728 0.30701 0.05345 0.0
H1549 H 0.01211 0.44886 0.05904 0.0
H1550 H 0.00434 0.3439 0.1178 0.0
H1551 H 0.99054 0.41115 0.99334 0.0
H1552 H -0.00216 0.41371 0.08324 0.0
H1553 H 0.9724 0.34701 0.03348 0.0
C1554 C 0.98215 0.32352 0.0634 0.0
C1555 C 0.99178 0.32206 0.08712 0.0
C1556 C -0.00455 0.41339 0.06359 0.0
C1557 C 0.98601 0.36799 0.06447 0.0
C1558 C 0.00316 0.43369 0.04984 0.0
C1559 C 0.00238 0.43282 0.02425 0.0
C1560 C 0.98734 0.39204 0.0515 0.0
C1561 C 0.99135 0.41245 0.0131 0.0
C1562 C 0.9792 0.34638 0.05205 0.0
C1563 C -0.00267 0.34412 0.0993 0.0
N1564 N 0.9847 0.39264 0.02673 0.0
N1565 N 0.99461 0.3661 0.08777 0.0
H1566 H 0.94907 0.76494 0.30677 0.0
H1567 H 0.80678 0.74598 0.31161 0.0
H1568 H 0.91259 0.73997 0.37238 0.0
H1569 H 0.84468 0.78648 0.25525 0.0
H1570 H 0.84339 0.7485 0.33729 0.0
H1571 H 0.90983 0.77604 0.28959 0.0
C1572 C 0.93269 0.76147 0.31743 0.0
C1573 C 0.93395 0.7511 0.34079 0.0
C1574 C 0.84347 0.75731 0.31953 0.0
C1575 C 0.88883 0.76398 0.32134 0.0
C1576 C 0.82259 0.75597 0.30498 0.0
C1577 C 0.82324 0.76531 0.2811 0.0
C1578 C 0.86484 0.76794 0.30985 0.0
C1579 C 0.8439 0.77831 0.2733 0.0
C1580 C 0.91027 0.76818 0.30777 0.0
C1581 C 0.91224 0.74759 0.35409 0.0
N1582 N 0.86407 0.77888 0.2875 0.0
N1583 N 0.89041 0.75377 0.34402 0.0
H1584 H 0.54024 0.32057 0.91032 0.0
H1585 H 0.45857 0.41269 0.97193 0.0
H1586 H 0.46949 0.3315 0.8774 0.0
H1587 H 0.53138 0.43604 0.95235 0.0
H1588 H 0.46063 0.3811 0.9396 0.0
H1589 H 0.53742 0.36159 0.92867 0.0
C1590 C 0.52433 0.33185 0.9067 0.0
C1591 C 0.50499 0.32292 0.89261 0.0
C1592 C 0.47584 0.39362 0.94208 0.0
C1593 C 0.50141 0.36895 0.91375 0.0
C1594 C 0.47471 0.41135 0.96046 0.0
C1595 C 0.49486 0.42661 0.96443 0.0
C1596 C 0.49756 0.39087 0.92861 0.0
C1597 C 0.51553 0.42444 0.94949 0.0
C1598 C 0.52279 0.35514 0.91697 0.0
C1599 C 0.48472 0.338 0.88825 0.0
N1600 N 0.51664 0.40638 0.93249 0.0
N1601 N 0.48309 0.36022 0.8994 0.0
H1602 H 0.9452 0.25212 0.19573 0.0
H1603 H 0.80223 0.25444 0.17869 0.0
H1604 H 0.91058 0.27038 0.1273 0.0
H1605 H 0.8375 0.2473 0.24858 0.0
H1606 H 0.84081 0.26908 0.16101 0.0
H1607 H 0.90591 0.25685 0.21651 0.0
C1608 C 0.92932 0.25723 0.18509 0.0
C1609 C 0.93106 0.26038 0.15968 0.0
C1610 C 0.84 0.26508 0.1804 0.0
C1611 C 0.88593 0.26604 0.18339 0.0
C1612 C 0.81787 0.25708 0.19052 0.0
C1613 C 0.81687 0.24972 0.21504 0.0
C1614 C 0.86124 0.26498 0.19484 0.0
C1615 C 0.83765 0.25291 0.22957 0.0
C1616 C 0.90689 0.26013 0.19699 0.0
C1617 C 0.90995 0.26729 0.14686 0.0
N1618 N 0.85918 0.25977 0.21914 0.0
N1619 N 0.8882 0.26962 0.1588 0.0
H1620 H 0.02797 0.67135 0.38587 0.0
H1621 H 0.9891 0.5837 0.49021 0.0
H1622 H 0.99125 0.70199 0.44889 0.0
H1623 H 0.05541 0.57316 0.44835 0.0
H1624 H 0.98862 0.62693 0.47742 0.0
H1625 H 0.03647 0.6343 0.40902 0.0
C1626 C 0.02165 0.6702 0.40465 0.0
C1627 C 0.00871 0.68954 0.41549 0.0
C1628 C 0.00352 0.6152 0.47156 0.0
C1629 C 0.01836 0.64716 0.44211 0.0
C1630 C 0.00378 0.59056 0.47875 0.0
C1631 C 0.02185 0.57466 0.46959 0.0
C1632 C 0.02129 0.62364 0.45502 0.0
C1633 C 0.04065 0.58456 0.45514 0.0
C1634 C 0.02677 0.64918 0.41795 0.0
C1635 C 0.00121 0.6873 0.43996 0.0
N1636 N 0.03962 0.60831 0.44792 0.0
N1637 N 0.0058 0.66616 0.45246 0.0
H1638 H 0.54971 0.78808 0.69033 0.0
H1639 H 0.67605 0.72307 0.72656 0.0
H1640 H 0.57486 0.72019 0.65816 0.0
H1641 H 0.66354 0.80109 0.7323 0.0
H1642 H 0.63372 0.71779 0.7123 0.0
H1643 H 0.58655 0.78914 0.71581 0.0
C1644 C 0.56284 0.77324 0.68887 0.0
C1645 C 0.5594 0.75415 0.67196 0.0
C1646 C 0.64012 0.73597 0.71724 0.0
C1647 C 0.6013 0.75505 0.70126 0.0
C1648 C 0.66412 0.73894 0.72565 0.0
C1649 C 0.67321 0.76256 0.73051 0.0
C1650 C 0.62515 0.75674 0.71407 0.0
C1651 C 0.65717 0.78259 0.72864 0.0
C1652 C 0.58383 0.77386 0.70338 0.0
C1653 C 0.57698 0.73539 0.67078 0.0
N1654 N 0.63398 0.77927 0.72042 0.0
N1655 N 0.5972 0.73632 0.6852 0.0
H1656 H 0.55892 0.47632 0.70736 0.0
H1657 H 0.535 0.52896 0.57282 0.0
H1658 H 0.60825 0.52614 0.67069 0.0
H1659 H 0.51506 0.4552 0.59373 0.0
H1660 H 0.5516 0.53567 0.61403 0.0
H1661 H 0.53313 0.47569 0.67058 0.0
C1662 C 0.56415 0.48734 0.6917 0.0
C1663 C 0.58585 0.50113 0.69196 0.0
C1664 C 0.54302 0.51825 0.60973 0.0
C1665 C 0.55627 0.50087 0.65021 0.0
C1666 C 0.53329 0.51451 0.58637 0.0
C1667 C 0.52366 0.49149 0.57994 0.0
C1668 C 0.54263 0.49899 0.62686 0.0
C1669 C 0.52235 0.4732 0.59802 0.0
C1670 C 0.54947 0.48695 0.67077 0.0
C1671 C 0.59178 0.51509 0.67117 0.0
N1672 N 0.53183 0.47729 0.62065 0.0
N1673 N 0.57708 0.51462 0.65114 0.0
H1674 H 0.78209 0.37125 0.91671 0.0
H1675 H 0.72214 0.2637 0.83828 0.0
H1676 H 0.72232 0.3252 0.94057 0.0
H1677 H 0.79182 0.29603 0.8201 0.0
H1678 H 0.7166 0.29424 0.87041 0.0
H1679 H 0.78081 0.35127 0.8765 0.0
C1680 C 0.76855 0.3571 0.91335 0.0
C1681 C 0.7526 0.34937 0.93198 0.0
C1682 C 0.73314 0.29474 0.85947 0.0
C1683 C 0.7509 0.32688 0.88636 0.0
C1684 C 0.73634 0.27729 0.8413 0.0
C1685 C 0.75782 0.27709 0.82739 0.0
C1686 C 0.75182 0.31178 0.86405 0.0
C1687 C 0.77531 0.29546 0.83105 0.0
C1688 C 0.76784 0.34578 0.89049 0.0
C1689 C 0.73526 0.33125 0.9268 0.0
N1690 N 0.77215 0.31196 0.84951 0.0
N1691 N 0.73497 0.3205 0.90447 0.0
H1692 H 0.90115 0.48365 0.16965 0.0
H1693 H 0.99145 0.55152 0.08798 0.0
H1694 H 0.9516 0.53332 0.20487 0.0
H1695 H 0.97609 0.4748 0.07567 0.0
H1696 H 0.97897 0.54673 0.13087 0.0
H1697 H 0.92814 0.48185 0.13424 0.0
C1698 C 0.91797 0.49418 0.16995 0.0
C1699 C 0.92406 0.50884 0.19013 0.0
C1700 C 0.97911 0.53078 0.11899 0.0
C1701 C 0.95507 0.50677 0.14958 0.0
C1702 C 0.98618 0.53349 0.0946 0.0
C1703 C 0.98458 0.51351 0.07845 0.0
C1704 C 0.96954 0.50819 0.1268 0.0
C1705 C 0.97763 0.49056 0.08767 0.0
C1706 C 0.93351 0.49287 0.14985 0.0
C1707 C 0.94618 0.52195 0.18955 0.0
N1708 N 0.96966 0.48865 0.11116 0.0
N1709 N 0.96079 0.52097 0.16932 0.0
H1710 H 0.76589 0.70228 0.44549 0.0
H1711 H 0.73746 0.68934 0.30673 0.0
H1712 H 0.76565 0.63189 0.40904 0.0
H1713 H 0.76112 0.75745 0.33907 0.0
H1714 H 0.75466 0.667 0.34156 0.0
H1715 H 0.76961 0.72248 0.40567 0.0
C1716 C 0.76671 0.69109 0.4291 0.0
C1717 C 0.76485 0.66544 0.43049 0.0
C1718 C 0.75689 0.68676 0.34069 0.0
C1719 C 0.76914 0.68832 0.38489 0.0
C1720 C 0.74735 0.69943 0.32065 0.0
C1721 C 0.74805 0.72511 0.32021 0.0
C1722 C 0.76631 0.70012 0.36062 0.0
C1723 C 0.76034 0.73755 0.33892 0.0
C1724 C 0.76908 0.70258 0.40638 0.0
C1725 C 0.76653 0.65177 0.40874 0.0
N1726 N 0.76852 0.72498 0.35871 0.0
N1727 N 0.76815 0.66338 0.3868 0.0
H1728 H 0.60304 0.46284 0.82892 0.0
H1729 H 0.55197 0.55788 0.92767 0.0
H1730 H 0.58949 0.5398 0.81557 0.0
H1731 H 0.53282 0.4811 0.93217 0.0
H1732 H 0.57609 0.54952 0.89122 0.0
H1733 H 0.58543 0.46752 0.87024 0.0
C1734 C 0.59632 0.48067 0.83467 0.0
C1735 C 0.59756 0.50097 0.81879 0.0
C1736 C 0.56699 0.53436 0.90032 0.0
C1737 C 0.57818 0.50647 0.86594 0.0
C1738 C 0.55342 0.53905 0.92131 0.0
C1739 C 0.54026 0.52015 0.93283 0.0
C1740 C 0.56745 0.51055 0.89057 0.0
C1741 C 0.54281 0.49612 0.92383 0.0
C1742 C 0.58636 0.48329 0.85818 0.0
C1743 C 0.58871 0.52364 0.82711 0.0
N1744 N 0.55591 0.49199 0.90289 0.0
N1745 N 0.57957 0.52579 0.85012 0.0
H1746 H 0.7575 0.304 0.05359 0.0
H1747 H 0.70379 0.32485 0.18776 0.0
H1748 H 0.74125 0.37447 0.08625 0.0
H1749 H 0.75266 0.2643 0.1724 0.0
H1750 H 0.70631 0.33699 0.14496 0.0
H1751 H 0.74687 0.28406 0.0928 0.0
C1752 C 0.75175 0.31521 0.06894 0.0
C1753 C 0.7503 0.34091 0.06677 0.0
C1754 C 0.7163 0.3209 0.15097 0.0
C1755 C 0.73757 0.3184 0.11081 0.0
C1756 C 0.71486 0.31394 0.17539 0.0
C1757 C 0.72871 0.29404 0.18387 0.0
C1758 C 0.73169 0.30795 0.13495 0.0
C1759 C 0.74218 0.28018 0.16676 0.0
C1760 C 0.74562 0.30386 0.09113 0.0
C1761 C 0.74269 0.35464 0.0871 0.0
N1762 N 0.74368 0.28764 0.14307 0.0
N1763 N 0.73651 0.34321 0.10818 0.0
H1764 H 0.93255 0.46722 0.30875 0.0
H1765 H 0.93751 0.51149 0.44628 0.0
H1766 H 0.88282 0.52109 0.33859 0.0
H1767 H 0.9804 0.45191 0.41676 0.0
H1768 H 0.91136 0.50987 0.40999 0.0
H1769 H 0.94572 0.45713 0.35006 0.0
C1770 C 0.92453 0.47704 0.32405 0.0
C1771 C 0.90699 0.49537 0.32028 0.0
C1772 C 0.92612 0.49674 0.41174 0.0
C1773 C 0.92183 0.48386 0.36771 0.0
C1774 C 0.94088 0.49752 0.43256 0.0
C1775 C 0.96146 0.48227 0.43404 0.0
C1776 C 0.93226 0.4807 0.39247 0.0
C1777 C 0.96505 0.46444 0.41588 0.0
C1778 C 0.93183 0.47109 0.34768 0.0
C1779 C 0.89672 0.5071 0.34075 0.0
N1780 N 0.9509 0.46446 0.3956 0.0
N1781 N 0.90454 0.50138 0.36363 0.0
H1782 H 0.73519 0.63531 0.58433 0.0
H1783 H 0.79536 0.74218 0.66465 0.0
H1784 H 0.79264 0.68336 0.55896 0.0
H1785 H 0.73677 0.69622 0.69095 0.0
H1786 H 0.79926 0.71585 0.62855 0.0
H1787 H 0.739 0.65323 0.62536 0.0
C1788 C 0.74872 0.64951 0.58745 0.0
C1789 C 0.7634 0.65811 0.56814 0.0
C1790 C 0.78573 0.71126 0.6423 0.0
C1791 C 0.76807 0.67849 0.61507 0.0
C1792 C 0.78364 0.7262 0.66297 0.0
C1793 C 0.76571 0.72132 0.68066 0.0
C1794 C 0.76928 0.69167 0.63895 0.0
C1795 C 0.75095 0.70043 0.67773 0.0
C1796 C 0.75093 0.65969 0.61088 0.0
C1797 C 0.78068 0.67648 0.57321 0.0
N1798 N 0.75275 0.68659 0.65701 0.0
N1799 N 0.78247 0.68608 0.59611 0.0
H1800 H 0.66631 0.62675 0.48931 0.0
H1801 H 0.60703 0.49266 0.49813 0.0
H1802 H 0.70602 0.55823 0.48991 0.0
H1803 H 0.5619 0.55651 0.48536 0.0
H1804 H 0.64298 0.51801 0.4951 0.0
H1805 H 0.62766 0.60323 0.48743 0.0
C1806 C 0.66692 0.60684 0.48895 0.0
C1807 C 0.68946 0.59442 0.49004 0.0
C1808 C 0.62533 0.52665 0.49266 0.0
C1809 C 0.64557 0.5676 0.4879 0.0
C1810 C 0.60456 0.51205 0.49439 0.0
C1811 C 0.58112 0.52231 0.49202 0.0
C1812 C 0.62311 0.552 0.48852 0.0
C1813 C 0.57954 0.54774 0.48731 0.0
C1814 C 0.6449 0.59347 0.48783 0.0
C1815 C 0.68919 0.56867 0.48934 0.0
N1816 N 0.60027 0.56179 0.48584 0.0
N1817 N 0.66773 0.55625 0.48845 0.0
H1818 H 0.21055 0.95367 0.52024 0.0
H1819 H 0.07116 0.95505 0.47727 0.0
H1820 H 0.17531 0.89557 0.47959 0.0
H1821 H 0.09708 -0.00281 0.53874 0.0
H1822 H 0.11293 0.94112 0.46934 0.0
H1823 H 0.17225 0.97723 0.51908 0.0
C1824 C 0.19482 0.94597 0.51099 0.0
C1825 C 0.19591 0.92257 0.50026 0.0
C1826 C 0.10962 0.9539 0.48419 0.0
C1827 C 0.15256 0.94932 0.49863 0.0
C1828 C 0.08591 0.96196 0.48857 0.0
C1829 C 0.08103 0.97714 0.50864 0.0
C1830 C 0.12847 0.9613 0.49995 0.0
C1831 C 0.1004 0.98536 0.52314 0.0
C1832 C 0.17309 0.9594 0.5103 0.0
C1833 C 0.17517 0.91347 0.48828 0.0
N1834 N 0.12344 0.97719 0.51859 0.0
N1835 N 0.15431 0.92682 0.4879 0.0
H1836 H 0.37352 0.91846 0.7253 0.0
H1837 H 0.28398 0.83357 0.80295 0.0
H1838 H 0.33032 0.94248 0.78704 0.0
H1839 H 0.31369 0.81265 0.73287 0.0
H1840 H 0.3117 0.86878 0.8039 0.0
H1841 H 0.36074 0.87603 0.73332 0.0
C1842 C 0.36136 0.91476 0.74054 0.0
C1843 C 0.35248 0.93394 0.75524 0.0
C1844 C 0.31262 0.85618 0.78857 0.0
C1845 C 0.33836 0.88565 0.7648 0.0
C1846 C 0.29698 0.83602 0.78814 0.0
C1847 C 0.29653 0.82051 0.76769 0.0
C1848 C 0.3274 0.86107 0.76811 0.0
C1849 C 0.31365 0.82424 0.74897 0.0
C1850 C 0.35425 0.89058 0.74521 0.0
C1851 C 0.3371 0.92823 0.77495 0.0
N1852 N 0.32808 0.84458 0.74933 0.0
N1853 N 0.33043 0.90458 0.77909 0.0
H1854 H 0.31994 0.07575 0.02996 0.0
H1855 H 0.42162 0.00601 0.98387 0.0
H1856 H 0.32947 0.10219 0.95613 0.0
H1857 H 0.44297 0.06993 0.02512 0.0
H1858 H 0.3848 0.02804 0.97022 0.0
H1859 H 0.36134 0.05826 0.02827 0.0
C1860 C 0.33058 0.07744 0.01329 0.0
C1861 C 0.32145 0.09032 0.99317 0.0
C1862 C 0.39822 0.03755 0.98128 0.0
C1863 C 0.36818 0.07034 0.99111 0.0
C1864 C 0.41926 0.02515 0.98885 0.0
C1865 C 0.43524 0.03638 0.00544 0.0
C1866 C 0.39325 0.06092 0.9909 0.0
C1867 C 0.43107 0.06086 0.01213 0.0
C1868 C 0.35408 0.06765 0.01239 0.0
C1869 C 0.33608 0.09241 0.97204 0.0
N1870 N 0.41 0.07213 0.00546 0.0
N1871 N 0.35888 0.0824 0.97146 0.0
H1872 H 0.67812 0.56685 0.71133 0.0
H1873 H 0.69238 0.68816 0.79218 0.0
H1874 H 0.66604 0.57183 0.78924 0.0
H1875 H 0.74247 0.67419 0.73291 0.0
H1876 H 0.67 0.65075 0.78162 0.0
H1877 H 0.69175 0.61017 0.71135 0.0
C1878 C 0.67852 0.57693 0.72842 0.0
C1879 C 0.67109 0.56563 0.75038 0.0
C1880 C 0.68541 0.65626 0.77038 0.0
C1881 C 0.68575 0.61507 0.75028 0.0
C1882 C 0.69791 0.67782 0.77613 0.0
C1883 C 0.71919 0.6842 0.76332 0.0
C1884 C 0.69439 0.64088 0.7518 0.0
C1885 C 0.72596 0.66992 0.74302 0.0
C1886 C 0.68609 0.60162 0.72834 0.0
C1887 C 0.67162 0.57968 0.7719 0.0
N1888 N 0.71385 0.64853 0.73811 0.0
N1889 N 0.67869 0.6036 0.77127 0.0
H1890 H 0.8485 0.37806 0.00075 0.0
H1891 H 0.91007 0.50524 0.96347 0.0
H1892 H 0.81035 0.4434 0.97746 0.0
H1893 H 0.95 0.44595 -0.0028 0.0
H1894 H 0.87558 0.47755 0.95728 0.0
H1895 H 0.88747 0.39811 0.9902 0.0
C1896 C 0.84835 0.39655 0.99339 0.0
C1897 C 0.82633 0.4094 0.99055 0.0
C1898 C 0.89197 0.47046 0.96581 0.0
C1899 C 0.87033 0.43202 0.97804 0.0
C1900 C 0.91161 0.48627 0.96933 0.0
C1901 C 0.93248 0.47797 0.9815 0.0
C1902 C 0.893 0.44644 0.97521 0.0
C1903 C 0.93395 0.45309 0.98811 0.0
C1904 C 0.87049 0.40787 0.98722 0.0
C1905 C 0.82697 0.43306 0.9805 0.0
N1906 N 0.91415 0.43826 0.98544 0.0
N1907 N 0.8486 0.44363 0.97477 0.0
H1908 H 0.34991 0.08309 0.7734 0.0
H1909 H 0.27589 0.17038 0.69533 0.0
H1910 H 0.30925 0.05081 0.71393 0.0
H1911 H 0.27145 0.17608 0.77387 0.0
H1912 H 0.28803 0.1271 0.69954 0.0
H1913 H 0.32285 0.11873 0.7724 0.0
C1914 C 0.3352 0.0835 0.76017 0.0
C1915 C 0.33191 0.06419 0.74353 0.0
C1916 C 0.28367 0.13767 0.71578 0.0
C1917 C 0.30108 0.10487 0.74224 0.0
C1918 C 0.27684 0.16226 0.7134 0.0
C1919 C 0.27279 0.17662 0.73432 0.0
C1920 C 0.28737 0.12792 0.73921 0.0
C1921 C 0.27429 0.16546 0.75735 0.0
C1922 C 0.31963 0.10367 0.75982 0.0
C1923 C 0.31243 0.06548 0.72694 0.0
N1924 N 0.28217 0.14189 0.75925 0.0
N1925 N 0.29796 0.08583 0.72633 0.0
H1926 H 0.13191 0.91061 0.254 0.0
H1927 H 0.25783 0.83847 0.26816 0.0
H1928 H 0.20093 0.94518 0.27044 0.0
H1929 H 0.1916 0.80551 0.24138 0.0
H1930 H 0.23466 0.87505 0.28018 0.0
H1931 H 0.15115 0.87031 0.25865 0.0
C1932 C 0.15114 0.90973 0.25859 0.0
C1933 C 0.16494 0.93132 0.26141 0.0
C1934 C 0.22497 0.85951 0.27245 0.0
C1935 C 0.18707 0.88515 0.26698 0.0
C1936 C 0.23813 0.83845 0.26604 0.0
C1937 C 0.22648 0.81888 0.25413 0.0
C1938 C 0.20005 0.86109 0.26651 0.0
C1939 C 0.20111 0.82003 0.25102 0.0
C1940 C 0.16207 0.88669 0.26139 0.0
C1941 C 0.18967 0.92903 0.26779 0.0
N1942 N 0.18878 0.841 0.25673 0.0
N1943 N 0.19999 0.90638 0.27014 0.0
H1944 H 0.51024 0.34539 0.37307 0.0
H1945 H 0.47811 0.41404 0.49755 0.0
H1946 H 0.48094 0.31085 0.43787 0.0
H1947 H 0.51916 0.44731 0.43901 0.0
H1948 H 0.46634 0.38061 0.47004 0.0
H1949 H 0.50291 0.3858 0.39177 0.0
C1950 C 0.5022 0.34629 0.39118 0.0
C1951 C 0.49676 0.32468 0.40417 0.0
C1952 C 0.4773 0.39558 0.4629 0.0
C1953 C 0.48803 0.37083 0.42553 0.0
C1954 C 0.48365 0.41489 0.47852 0.0
C1955 C 0.4997 0.43329 0.4705 0.0
C1956 C 0.48757 0.39447 0.43931 0.0
C1957 C 0.50673 0.43338 0.44582 0.0
C1958 C 0.49787 0.36936 0.40177 0.0
C1959 C 0.48587 0.32698 0.42735 0.0
N1960 N 0.50115 0.41388 0.4312 0.0
N1961 N 0.48212 0.34957 0.43735 0.0
H1962 H 0.41825 0.72659 0.14329 0.0
H1963 H 0.34122 0.79447 0.23723 0.0
H1964 H 0.45625 0.76929 0.19781 0.0
H1965 H 0.32433 0.7186 0.22189 0.0
H1966 H 0.38327 0.78744 0.22307 0.0
H1967 H 0.38242 0.725 0.17032 0.0
C1968 C 0.41901 0.73559 0.16096 0.0
C1969 C 0.44 0.74835 0.1683 0.0
C1970 C 0.37054 0.77218 0.2235 0.0
C1971 C 0.39933 0.7467 0.19901 0.0
C1972 C 0.34668 0.77617 0.23159 0.0
C1973 C 0.32957 0.75704 0.23069 0.0
C1974 C 0.37678 0.74926 0.21352 0.0
C1975 C 0.33721 0.7337 0.22297 0.0
C1976 C 0.39876 0.73441 0.17645 0.0
C1977 C 0.44027 0.75943 0.19149 0.0
N1978 N 0.36017 0.73059 0.21394 0.0
N1979 N 0.41999 0.7588 0.20589 0.0
H1980 H 0.01837 0.66292 0.87517 0.0
H1981 H 0.01633 0.59886 0.00651 0.0
H1982 H 0.00106 0.69887 0.94345 0.0
H1983 H -0.00102 0.55825 0.94121 0.0
H1984 H 0.02642 0.63465 0.98146 0.0
H1985 H 0.02374 0.62396 0.89746 0.0
C1986 C 0.0156 0.66261 0.89479 0.0
C1987 C 0.00904 0.68414 0.90748 0.0
C1988 C 0.02116 0.61769 0.9725 0.0
C1989 C 0.0158 0.63998 0.93295 0.0
C1990 C 0.01587 0.59713 0.98675 0.0
C1991 C 0.00684 0.57569 0.97584 0.0
C1992 C 0.01717 0.61681 0.94717 0.0
C1993 C 0.00605 0.57449 0.95022 0.0
C1994 C 0.01884 0.64045 0.90745 0.0
C1995 C 0.00605 0.68276 0.93292 0.0
N1996 N 0.01061 0.59504 0.93666 0.0
N1997 N 0.00945 0.66111 0.94477 0.0
H1998 H 0.06226 0.2893 0.67031 0.0
H1999 H 0.19087 0.22484 0.69475 0.0
H2000 H 0.08585 0.2255 0.62963 0.0
H2001 H 0.1551 0.27813 0.74111 0.0
H2002 H 0.15779 0.23005 0.66445 0.0
H2003 H 0.10229 0.29172 0.68913 0.0
C2004 C 0.07597 0.27579 0.66535 0.0
C2005 C 0.07066 0.25673 0.64908 0.0
C2006 C 0.15744 0.24067 0.68121 0.0
C2007 C 0.11637 0.25904 0.67083 0.0
C2008 C 0.17613 0.23761 0.69842 0.0
C2009 C 0.17506 0.25049 0.72063 0.0
C2010 C 0.13825 0.25711 0.68632 0.0
C2011 C 0.15607 0.26723 0.72453 0.0
C2012 C 0.09885 0.27719 0.67601 0.0
C2013 C 0.08923 0.24014 0.64262 0.0
N2014 N 0.13843 0.26998 0.70761 0.0
N2015 N 0.11129 0.24134 0.65394 0.0
H2016 H 0.53113 0.69032 0.06864 0.0
H2017 H 0.4758 0.55967 0.05728 0.0
H2018 H 0.48353 0.66179 0.12496 0.0
H2019 H 0.54452 0.57941 0.02394 0.0
H2020 H 0.47945 0.59507 0.08487 0.0
H2021 H 0.53754 0.64867 0.05357 0.0
C2022 C 0.52197 0.67518 0.07774 0.0
C2023 C 0.5064 0.67928 0.09764 0.0
C2024 C 0.49409 0.59124 0.07204 0.0
C2025 C 0.51354 0.63179 0.08063 0.0
C2026 C 0.492 0.57114 0.05642 0.0
C2027 C 0.5099 0.5671 0.03859 0.0
C2028 C 0.51393 0.6074 0.06915 0.0
C2029 C 0.5304 0.58232 0.03757 0.0
C2030 C 0.52587 0.65142 0.06939 0.0
C2031 C 0.49542 0.65917 0.1093 0.0
N2032 N 0.53171 0.60216 0.05246 0.0
N2033 N 0.49882 0.63616 0.10029 0.0
H2034 H 0.09747 0.74397 0.87795 0.0
H2035 H 0.17357 0.74633 0.7537 0.0
H2036 H 0.06675 0.7473 0.80541 0.0
H2037 H 0.20385 0.76485 0.82392 0.0
H2038 H 0.13699 0.73031 0.77414 0.0
H2039 H 0.13807 0.73763 0.85976 0.0
C2040 C 0.09925 0.74334 0.85822 0.0
C2041 C 0.0788 0.7468 0.84314 0.0
C2042 C 0.15197 0.73709 0.78517 0.0
C2043 C 0.125 0.73904 0.82231 0.0
C2044 C 0.17298 0.74587 0.77352 0.0
C2045 C 0.19142 0.75713 0.78725 0.0
C2046 C 0.14949 0.73993 0.81062 0.0
C2047 C 0.18979 0.75644 0.8128 0.0
C2048 C 0.12237 0.73951 0.84788 0.0
C2049 C 0.08208 0.74525 0.81772 0.0
N2050 N 0.16886 0.74851 0.82373 0.0
N2051 N 0.10475 0.7417 0.80812 0.0
H2052 H 0.03703 0.32596 0.59388 0.0
H2053 H 0.95337 0.42539 0.52851 0.0
H2054 H 0.96757 0.3084 0.56091 0.0
H2055 H 0.02561 0.44044 0.55588 0.0
H2056 H 0.95959 0.38149 0.53674 0.0
H2057 H 0.03521 0.36673 0.57577 0.0
C2058 C 0.02149 0.33065 0.58256 0.0
C2059 C 0.00215 0.31408 0.57923 0.0
C2060 C 0.97415 0.39434 0.54083 0.0
C2061 C -0.00021 0.36076 0.55872 0.0
C2062 C 0.9705 0.41925 0.5363 0.0
C2063 C 0.98889 0.43608 0.54202 0.0
C2064 C -0.00369 0.38653 0.55118 0.0
C2065 C 0.01096 0.42771 0.55169 0.0
C2066 C 0.02047 0.35393 0.57221 0.0
C2067 C 0.98269 0.32084 0.5641 0.0
N2068 N 0.01403 0.40341 0.55616 0.0
N2069 N 0.98179 0.34391 0.55468 0.0
H2070 H 0.42578 0.27987 0.35693 0.0
H2071 H 0.34192 0.20984 0.2672 0.0
H2072 H 0.45838 0.23347 0.30182 0.0
H2073 H 0.32432 0.28413 0.28817 0.0
H2074 H 0.3844 0.21686 0.27967 0.0
H2075 H 0.38782 0.28068 0.33322 0.0
C2076 C 0.42492 0.2699 0.33978 0.0
C2077 C 0.44509 0.25637 0.3314 0.0
C2078 C 0.37141 0.23183 0.28095 0.0
C2079 C 0.40171 0.25696 0.30441 0.0
C2080 C 0.34724 0.22786 0.27379 0.0
C2081 C 0.32974 0.2465 0.27654 0.0
C2082 C 0.37786 0.25428 0.29183 0.0
C2083 C 0.33738 0.26941 0.28551 0.0
C2084 C 0.40337 0.27056 0.32618 0.0
C2085 C 0.44316 0.24402 0.30893 0.0
N2086 N 0.36078 0.27249 0.29342 0.0
N2087 N 0.42165 0.24418 0.29643 0.0
H2088 H 0.45544 0.48989 0.29427 0.0
H2089 H 0.43728 0.51073 0.43786 0.0
H2090 H 0.38629 0.49803 0.33157 0.0
H2091 H 0.50909 0.50223 0.40635 0.0
H2092 H 0.41911 0.50079 0.39879 0.0
H2093 H 0.47615 0.48947 0.33431 0.0
C2094 C 0.44463 0.49145 0.31083 0.0
C2095 C 0.41914 0.4945 0.30959 0.0
C2096 C 0.43885 0.50085 0.40016 0.0
C2097 C 0.44257 0.49387 0.35517 0.0
C2098 C 0.44924 0.50653 0.42256 0.0
C2099 C 0.47467 0.5076 0.42518 0.0
C2100 C 0.45391 0.49652 0.37978 0.0
C2101 C 0.48936 0.50177 0.40491 0.0
C2102 C 0.45645 0.49117 0.33363 0.0
C2103 C 0.40599 0.4961 0.33156 0.0
N2104 N 0.47874 0.49679 0.38281 0.0
N2105 N 0.41784 0.49591 0.35328 0.0
H2106 H 0.23643 0.69491 0.05398 0.0
H2107 H 0.25682 0.69086 0.19435 0.0
H2108 H 0.25346 0.62652 0.09018 0.0
H2109 H 0.21331 0.74648 0.15904 0.0
H2110 H 0.25257 0.66471 0.15821 0.0
H2111 H 0.22604 0.71295 0.09329 0.0
C2112 C 0.23804 0.68373 0.0703 0.0
C2113 C 0.24609 0.65937 0.06903 0.0
C2114 C 0.24337 0.68233 0.15865 0.0
C2115 C 0.23415 0.67979 0.11403 0.0
C2116 C 0.24573 0.69718 0.17927 0.0
C2117 C 0.23589 0.72096 0.17923 0.0
C2118 C 0.2313 0.69163 0.13803 0.0
C2119 C 0.22177 0.72849 0.15933 0.0
C2120 C 0.23178 0.6939 0.0927 0.0
C2121 C 0.2475 0.6455 0.09059 0.0
N2122 N 0.22022 0.71399 0.13928 0.0
N2123 N 0.24191 0.65606 0.11241 0.0
H2124 H 0.0501 0.50243 0.79465 0.0
H2125 H 0.07256 0.51426 0.93773 0.0
H2126 H 0.1174 0.52567 0.82861 0.0
H2127 H 0.00284 0.49266 0.90822 0.0
H2128 H 0.08622 0.52581 0.897 0.0
H2129 H 0.02952 0.50563 0.83469 0.0
C2130 C 0.06045 0.5084 0.81044 0.0
C2131 C 0.08562 0.5131 0.80851 0.0
C2132 C 0.06781 0.5188 0.89923 0.0
C2133 C 0.06238 0.51686 0.85396 0.0
C2134 C 0.06006 0.51221 0.9225 0.0
C2135 C 0.03679 0.50218 0.92601 0.0
C2136 C 0.05238 0.51475 0.87912 0.0
C2137 C 0.02106 0.50012 0.90596 0.0
C2138 C 0.04872 0.51027 0.83321 0.0
C2139 C 0.0981 0.52125 0.82934 0.0
N2140 N 0.02932 0.50593 0.88311 0.0
N2141 N 0.08644 0.52259 0.85116 0.0
H2142 H 0.23634 0.38024 0.59895 0.0
H2143 H 0.23395 0.25293 0.67038 0.0
H2144 H 0.2286 0.30916 0.56471 0.0
H2145 H 0.26271 0.3205 0.69957 0.0
H2146 H 0.21682 0.27587 0.63582 0.0
H2147 H 0.23207 0.36076 0.63903 0.0
C2148 C 0.23361 0.36054 0.59986 0.0
C2149 C 0.23351 0.34617 0.57851 0.0
C2150 C 0.22611 0.28582 0.65023 0.0
C2151 C 0.22832 0.32385 0.6243 0.0
C2152 C 0.23557 0.2728 0.67008 0.0
C2153 C 0.2496 0.285 0.68771 0.0
C2154 C 0.23106 0.31108 0.64806 0.0
C2155 C 0.25175 0.31058 0.68637 0.0
C2156 C 0.23102 0.34947 0.62273 0.0
C2157 C 0.22935 0.32082 0.58075 0.0
N2158 N 0.24295 0.32278 0.6666 0.0
N2159 N 0.22722 0.31041 0.60327 0.0
H2160 H 0.43998 0.52861 0.18476 0.0
H2161 H 0.43546 0.47339 0.05191 0.0
H2162 H 0.37796 0.48984 0.15512 0.0
H2163 H 0.49649 0.51419 0.08046 0.0
H2164 H 0.40959 0.48996 0.08458 0.0
H2165 H 0.45655 0.53304 0.14341 0.0
C2166 C 0.42984 0.52104 0.16952 0.0
C2167 C 0.40798 0.50812 0.17344 0.0
C2168 C 0.42844 0.49595 0.08335 0.0
C2169 C 0.42681 0.51311 0.12601 0.0
C2170 C 0.4431 0.48668 0.06454 0.0
C2171 C 0.46806 0.49235 0.06379 0.0
C2172 C 0.43913 0.51028 0.10189 0.0
C2173 C 0.47727 0.50938 0.0806 0.0
C2174 C 0.43919 0.52376 0.14587 0.0
C2175 C 0.3952 0.49939 0.15297 0.0
N2176 N 0.46295 0.51731 0.09938 0.0
N2177 N 0.40502 0.50165 0.13019 0.0
H2178 H 0.27316 0.70277 0.95074 0.0
H2179 H 0.22885 0.6926 0.81253 0.0
H2180 H 0.23515 0.64132 0.91832 0.0
H2181 H 0.28439 0.74395 0.83493 0.0
H2182 H 0.22112 0.68232 0.8551 0.0
H2183 H 0.26884 0.72539 0.91192 0.0
C2184 C 0.26389 0.69413 0.93551 0.0
C2185 C 0.25507 0.66997 0.93737 0.0
C2186 C 0.23498 0.69591 0.85083 0.0
C2187 C 0.24959 0.69565 0.89373 0.0
C2188 C 0.23949 0.70159 0.82654 0.0
C2189 C 0.258 0.7182 0.82045 0.0
C2190 C 0.24957 0.70649 0.86908 0.0
C2191 C 0.27049 0.73042 0.83917 0.0
C2192 C 0.26133 0.70703 0.91354 0.0
C2193 C 0.24276 0.65968 0.91744 0.0
N2194 N 0.26647 0.72387 0.86286 0.0
N2195 N 0.2405 0.67254 0.89644 0.0
H2196 H 0.0693 0.46947 0.68607 0.0
H2197 H 0.06588 0.52079 0.5503 0.0
H2198 H 0.13264 0.50754 0.65777 0.0
H2199 H 0.0066 0.52264 0.60266 0.0
H2200 H 0.09342 0.50683 0.5833 0.0
H2201 H 0.04899 0.47553 0.64684 0.0
C2202 C 0.07909 0.47868 0.67145 0.0
C2203 C 0.10224 0.48884 0.67535 0.0
C2204 C 0.07435 0.51042 0.58728 0.0
C2205 C 0.07911 0.49614 0.63088 0.0
C2206 C 0.05877 0.5185 0.56863 0.0
C2207 C 0.03388 0.52251 0.57361 0.0
C2208 C 0.06454 0.50584 0.61059 0.0
C2209 C 0.02558 0.51978 0.59777 0.0
C2210 C 0.0675 0.48222 0.64917 0.0
C2211 C 0.11444 0.50004 0.65559 0.0
N2212 N 0.04075 0.51121 0.61518 0.0
N2213 N 0.10247 0.50395 0.63419 0.0
H2214 H 0.24041 0.37751 0.42028 0.0
H2215 H 0.22209 0.24705 0.35493 0.0
H2216 H 0.2394 0.30762 0.45756 0.0
H2217 H 0.2487 0.31006 0.31498 0.0
H2218 H 0.21936 0.27219 0.39175 0.0
H2219 H 0.2365 0.35574 0.38095 0.0
C2220 C 0.23935 0.35762 0.4202 0.0
C2221 C 0.24025 0.34433 0.44225 0.0
C2222 C 0.22567 0.28062 0.37493 0.0
C2223 C 0.23536 0.31949 0.3975 0.0
C2224 C 0.22711 0.2663 0.35384 0.0
C2225 C 0.23602 0.27634 0.33191 0.0
C2226 C 0.23337 0.30523 0.37433 0.0
C2227 C 0.24183 0.30155 0.33153 0.0
C2228 C 0.2371 0.34526 0.39778 0.0
C2229 C 0.23882 0.31863 0.44107 0.0
N2230 N 0.24072 0.3151 0.35255 0.0
N2231 N 0.23635 0.30711 0.41915 0.0
H2232 H 0.30462 0.43244 0.47546 0.0
H2233 H 0.43355 0.45975 0.5395 0.0
H2234 H 0.32734 0.3939 0.5404 0.0
H2235 H 0.41036 0.48941 0.47026 0.0
H2236 H 0.39632 0.43391 0.54037 0.0
H2237 H 0.3447 0.45183 0.47307 0.0
C2238 C 0.31808 0.42818 0.48932 0.0
C2239 C 0.31256 0.41181 0.50829 0.0
C2240 C 0.39957 0.44593 0.52491 0.0
C2241 C 0.3587 0.43426 0.50596 0.0
C2242 C 0.42076 0.46063 0.52444 0.0
C2243 C 0.42469 0.47707 0.50504 0.0
C2244 C 0.38254 0.44761 0.50568 0.0
C2245 C 0.40771 0.47744 0.48588 0.0
C2246 C 0.34106 0.43918 0.48793 0.0
C2247 C 0.33088 0.40655 0.52552 0.0
N2248 N 0.38747 0.46308 0.48673 0.0
N2249 N 0.35308 0.41799 0.52413 0.0
H2250 H 0.8401 0.11268 0.51906 0.0
H2251 H 0.91342 0.01107 0.46166 0.0
H2252 H 0.7991 0.05132 0.49036 0.0
H2253 H 0.93457 0.03663 0.53321 0.0
H2254 H 0.87137 0.02458 0.46996 0.0
H2255 H 0.87607 0.08613 0.5223 0.0
C2256 C 0.8387 0.0936 0.51352 0.0
C2257 C 0.81681 0.08414 0.5042 0.0
C2258 C 0.88509 0.02654 0.48408 0.0
C2259 C 0.85761 0.05395 0.50779 0.0
C2260 C 0.90894 0.01891 0.47935 0.0
C2261 C 0.92719 0.02303 0.49675 0.0
C2262 C 0.88003 0.03929 0.50581 0.0
C2263 C 0.9208 0.03326 0.51939 0.0
C2264 C 0.85905 0.07844 0.51568 0.0
C2265 C 0.81579 0.05926 0.49748 0.0
N2266 N 0.89778 0.04184 0.52303 0.0
N2267 N 0.83614 0.04504 0.49891 0.0
H2268 H 0.67332 0.07898 0.27687 0.0
H2269 H 0.70508 0.18195 0.19373 0.0
H2270 H 0.62446 0.08844 0.21577 0.0
H2271 H 0.69767 0.19849 0.27055 0.0
H2272 H 0.67592 0.14791 0.19883 0.0
H2273 H 0.68466 0.12245 0.2738 0.0
C2274 C 0.66489 0.0903 0.26295 0.0
C2275 C 0.64823 0.08026 0.24634 0.0
C2276 C 0.68001 0.15966 0.21431 0.0
C2277 C 0.66116 0.12947 0.24264 0.0
C2278 C 0.69655 0.17897 0.2114 0.0
C2279 C 0.70353 0.19294 0.23174 0.0
C2280 C 0.67149 0.15386 0.23784 0.0
C2281 C 0.69238 0.18828 0.25439 0.0
C2282 C 0.67111 0.11505 0.26139 0.0
C2283 C 0.63754 0.09564 0.22877 0.0
N2284 N 0.67746 0.16855 0.25705 0.0
N2285 N 0.64467 0.11949 0.22692 0.0
H2286 H 0.6808 0.93613 0.04058 0.0
H2287 H 0.55427 0.93527 0.97192 0.0
H2288 H 0.65694 0.87917 0.99117 0.0
H2289 H 0.57562 0.99212 0.02234 0.0
H2290 H 0.58648 0.90886 0.98797 0.0
H2291 H 0.63886 0.95209 0.04194 0.0
C2292 C 0.66673 0.92706 0.02999 0.0
C2293 C 0.67238 0.90671 0.01528 0.0
C2294 C 0.58378 0.92681 -0.00387 0.0
C2295 C 0.62452 0.92468 0.01679 0.0
C2296 C 0.56517 0.94173 0.98715 0.0
C2297 C 0.56263 0.96581 -0.00423 0.0
C2298 C 0.60035 0.93649 0.01323 0.0
C2299 C 0.57721 0.97358 0.01527 0.0
C2300 C 0.64278 0.93598 0.03096 0.0
C2301 C 0.6534 0.89514 0.00248 0.0
N2302 N 0.59599 0.95917 0.02296 0.0
N2303 N 0.63043 0.9045 0.00324 0.0
H2304 H 0.31093 0.44955 0.27131 0.0
H2305 H 0.31081 0.30696 0.24245 0.0
H2306 H 0.37426 0.41024 0.24509 0.0
H2307 H 0.24947 0.346 0.2729 0.0
H2308 H 0.33734 0.34178 0.25277 0.0
H2309 H 0.29076 0.4103 0.27961 0.0
C2310 C 0.32063 0.43265 0.26734 0.0
C2311 C 0.34413 0.43321 0.25699 0.0
C2312 C 0.31824 0.34246 0.25797 0.0
C2313 C 0.32115 0.38802 0.26658 0.0
C2314 C 0.30319 0.32236 0.25248 0.0
C2315 C 0.27797 0.32373 0.25683 0.0
C2316 C 0.30777 0.36413 0.26744 0.0
C2317 C 0.26888 0.3443 0.2693 0.0
C2318 C 0.30917 0.41019 0.27225 0.0
C2319 C 0.35595 0.41069 0.25264 0.0
N2320 N 0.28362 0.36394 0.27367 0.0
N2321 N 0.34424 0.38904 0.25716 0.0
H2322 H 0.19287 0.57744 0.96514 0.0
H2323 H 0.06083 0.56074 0.02301 0.0
H2324 H 0.1699 0.62651 0.02288 0.0
H2325 H 0.10967 0.50191 0.00177 0.0
H2326 H 0.09456 0.59024 0.01644 0.0
H2327 H 0.15382 0.55596 0.96844 0.0
C2328 C 0.17947 0.58381 0.97833 0.0
C2329 C 0.18475 0.60314 0.99431 0.0
C2330 C 0.09763 0.5708 0.01342 0.0
C2331 C 0.14051 0.57861 -0.00159 0.0
C2332 C 0.07861 0.554 0.01736 0.0
C2333 C 0.08241 0.52881 0.01291 0.0
C2334 C 0.12006 0.5622 0.00432 0.0
C2335 C 0.10575 0.52105 0.00554 0.0
C2336 C 0.15729 0.57159 0.98023 0.0
C2337 C 0.16654 0.61127 0.0106 0.0
N2338 N 0.1235 0.53771 0.00113 0.0
N2339 N 0.14521 0.59859 0.01262 0.0
H2340 H 0.65553 0.92562 0.22394 0.0
H2341 H 0.73341 0.84121 0.30202 0.0
H2342 H 0.7049 0.9599 0.27504 0.0
H2343 H 0.72656 0.82657 0.22484 0.0
H2344 H 0.72336 0.88452 0.29436 0.0
H2345 H 0.68029 0.88827 0.22521 0.0
C2346 C 0.67173 0.92528 0.2353 0.0
C2347 C 0.67817 0.94565 0.24958 0.0
C2348 C 0.72483 0.87195 0.27905 0.0
C2349 C 0.70626 0.90306 0.25134 0.0
C2350 C 0.73049 0.84734 0.2834 0.0
C2351 C 0.73083 0.83052 0.26398 0.0
C2352 C 0.71859 0.87935 0.2553 0.0
C2353 C 0.72675 0.83914 0.24019 0.0
C2354 C 0.68594 0.90411 0.23582 0.0
C2355 C 0.69939 0.94444 0.26385 0.0
N2356 N 0.72012 0.8629 0.23656 0.0
N2357 N 0.71247 0.92319 0.26484 0.0
H2358 H 0.81448 0.05663 0.72144 0.0
H2359 H 0.82547 0.19161 0.77245 0.0
H2360 H 0.88029 0.08669 0.75287 0.0
H2361 H 0.76195 0.16416 0.73511 0.0
H2362 H 0.84932 0.15728 0.75608 0.0
H2363 H 0.7979 0.09835 0.71823 0.0
C2364 C 0.82543 0.07202 0.72763 0.0
C2365 C 0.84852 0.06817 0.73799 0.0
C2366 C 0.83039 0.15915 0.75069 0.0
C2367 C 0.82975 0.11592 0.73438 0.0
C2368 C 0.8169 0.17898 0.75975 0.0
C2369 C 0.79186 0.18069 0.75486 0.0
C2370 C 0.81842 0.14058 0.73736 0.0
C2371 C 0.78135 0.16356 0.73893 0.0
C2372 C 0.81607 0.09585 0.72561 0.0
C2373 C 0.86221 0.08879 0.74516 0.0
N2374 N 0.79453 0.14385 0.73118 0.0
N2375 N 0.85248 0.11171 0.74358 0.0
loop_
_geom_bond_atom_site_label_1
_geom_bond_atom_site_label_2
_geom_bond_distance
_geom_bond_site_symmetry_2
_ccdc_geom_bond_type
In0 O1 2.293 . S
In0 O2 2.326 . S
In0 O6 2.266 . S
In0 O7 2.326 . S
In0 O8 2.266 . S
In0 O9 2.326 . S
In0 O11 2.294 1_455 S
In0 O12 2.326 1_455 S
O1 In0 2.293 . S
O1 C10 1.240 1_455 S
O2 In0 2.326 . S
O2 C10 1.252 1_455 S
C3 O6 1.252 . S
C3 O7 1.260 . S
C4 O11 1.240 . S
C4 O12 1.252 . S
C5 O8 1.252 . S
C5 O9 1.260 . S
O6 In0 2.266 . S
O6 C3 1.252 . S
O7 In0 2.326 . S
O7 C3 1.260 . S
O8 In0 2.266 . S
O8 C5 1.252 . S
O9 In0 2.326 . S
O9 C5 1.260 . S
C10 O1 1.240 1_655 S
C10 O2 1.252 1_655 S
O11 In0 2.294 1_655 S
O11 C4 1.240 . S
O12 In0 2.326 1_655 S
O12 C4 1.252 . S
In13 O14 2.294 . S
In13 O15 2.326 . S
In13 O19 2.266 1_455 S
In13 O20 2.326 1_455 S
In13 O21 2.266 . S
In13 O22 2.326 . S
In13 O24 2.294 . S
In13 O25 2.326 . S
O14 In13 2.294 . S
O14 C23 1.240 . S
O15 In13 2.326 . S
O15 C23 1.252 . S
C16 O19 1.252 . S
C16 O20 1.260 . S
C17 O24 1.240 . S
C17 O25 1.252 . S
C18 O21 1.252 . S
C18 O22 1.260 . S
O19 In13 2.266 1_655 S
O19 C16 1.252 . S
O20 In13 2.326 1_655 S
O20 C16 1.260 . S
O21 In13 2.266 . S
O21 C18 1.252 . S
O22 In13 2.326 . S
O22 C18 1.260 . S
C23 O14 1.240 . S
C23 O15 1.252 . S
O24 In13 2.294 . S
O24 C17 1.240 . S
O25 In13 2.326 . S
O25 C17 1.252 . S
In26 O27 2.294 . S
In26 O28 2.326 . S
In26 O32 2.266 . S
In26 O33 2.326 . S
In26 O34 2.266 . S
In26 O35 2.326 . S
In26 O37 2.294 . S
In26 O38 2.326 . S
O27 In26 2.294 . S
O27 C36 1.240 . S
O28 In26 2.326 . S
O28 C36 1.252 . S
C29 O32 1.252 . S
C29 O33 1.260 . S
C30 O37 1.240 . S
C30 O38 1.252 . S
C31 O34 1.252 . S
C31 O35 1.260 . S
O32 In26 2.266 . S
O32 C29 1.252 . S
O33 In26 2.326 . S
O33 C29 1.260 . S
O34 In26 2.266 . S
O34 C31 1.252 . S
O35 In26 2.326 . S
O35 C31 1.260 . S
C36 O27 1.240 . S
C36 O28 1.252 . S
O37 In26 2.294 . S
O37 C30 1.240 . S
O38 In26 2.326 . S
O38 C30 1.252 . S
In39 O40 2.294 . S
In39 O41 2.326 . S
In39 O45 2.266 . S
In39 O46 2.326 . S
In39 O47 2.266 . S
In39 O48 2.326 . S
In39 O50 2.294 . S
In39 O51 2.326 . S
O40 In39 2.294 . S
O40 C49 1.240 . S
O41 In39 2.326 . S
O41 C49 1.252 . S
C42 O45 1.252 . S
C42 O46 1.260 . S
C43 O50 1.240 . S
C43 O51 1.252 . S
C44 O47 1.252 . S
C44 O48 1.260 . S
O45 In39 2.266 . S
O45 C42 1.252 . S
O46 In39 2.326 . S
O46 C42 1.260 . S
O47 In39 2.266 . S
O47 C44 1.252 . S
O48 In39 2.326 . S
O48 C44 1.260 . S
C49 O40 1.240 . S
C49 O41 1.252 . S
O50 In39 2.294 . S
O50 C43 1.240 . S
O51 In39 2.326 . S
O51 C43 1.252 . S
In52 O53 2.294 1_545 S
In52 O54 2.326 1_545 S
In52 O58 2.266 . S
In52 O59 2.326 . S
In52 O60 2.266 . S
In52 O61 2.326 . S
In52 O63 2.294 1_545 S
In52 O64 2.327 1_545 S
O53 In52 2.294 1_565 S
O53 C62 1.240 . S
O54 In52 2.326 1_565 S
O54 C62 1.252 . S
C55 O58 1.252 . S
C55 O59 1.260 . S
C56 O63 1.240 . S
C56 O64 1.252 . S
C57 O60 1.252 . S
C57 O61 1.260 . S
O58 In52 2.266 . S
O58 C55 1.252 . S
O59 In52 2.326 . S
O59 C55 1.260 . S
O60 In52 2.266 . S
O60 C57 1.252 . S
O61 In52 2.326 . S
O61 C57 1.260 . S
C62 O53 1.240 . S
C62 O54 1.252 . S
O63 In52 2.294 1_565 S
O63 C56 1.240 . S
O64 In52 2.327 1_565 S
O64 C56 1.252 . S
In65 O66 2.294 . S
In65 O67 2.326 . S
In65 O71 2.266 . S
In65 O72 2.326 . S
In65 O73 2.266 . S
In65 O74 2.326 . S
In65 O76 2.294 . S
In65 O77 2.326 . S
O66 In65 2.294 . S
O66 C75 1.240 . S
O67 In65 2.326 . S
O67 C75 1.252 . S
C68 O71 1.252 . S
C68 O72 1.260 . S
C69 O76 1.240 . S
C69 O77 1.252 . S
C70 O73 1.252 . S
C70 O74 1.260 . S
O71 In65 2.266 . S
O71 C68 1.252 . S
O72 In65 2.326 . S
O72 C68 1.260 . S
O73 In65 2.266 . S
O73 C70 1.252 . S
O74 In65 2.326 . S
O74 C70 1.260 . S
C75 O66 1.240 . S
C75 O67 1.252 . S
O76 In65 2.294 . S
O76 C69 1.240 . S
O77 In65 2.326 . S
O77 C69 1.252 . S
In78 O79 2.294 . S
In78 O80 2.326 . S
In78 O84 2.266 1_545 S
In78 O85 2.326 1_545 S
In78 O86 2.266 . S
In78 O87 2.326 . S
In78 O89 2.294 . S
In78 O90 2.326 . S
O79 In78 2.294 . S
O79 C88 1.240 . S
O80 In78 2.326 . S
O80 C88 1.252 . S
C81 O84 1.252 . S
C81 O85 1.260 . S
C82 O89 1.240 . S
C82 O90 1.252 . S
C83 O86 1.252 . S
C83 O87 1.260 . S
O84 In78 2.266 1_565 S
O84 C81 1.252 . S
O85 In78 2.326 1_565 S
O85 C81 1.260 . S
O86 In78 2.266 . S
O86 C83 1.252 . S
O87 In78 2.326 . S
O87 C83 1.260 . S
C88 O79 1.240 . S
C88 O80 1.252 . S
O89 In78 2.294 . S
O89 C82 1.240 . S
O90 In78 2.326 . S
O90 C82 1.252 . S
In91 O92 2.294 . S
In91 O93 2.326 . S
In91 O97 2.266 . S
In91 O98 2.326 . S
In91 O99 2.266 1_554 S
In91 O100 2.326 1_554 S
In91 O102 2.294 . S
In91 O103 2.326 . S
O92 In91 2.294 . S
O92 C101 1.240 . S
O93 In91 2.326 . S
O93 C101 1.252 . S
C94 O97 1.252 . S
C94 O98 1.260 . S
C95 O102 1.240 . S
C95 O103 1.252 . S
C96 O99 1.252 . S
C96 O100 1.260 . S
O97 In91 2.266 . S
O97 C94 1.252 . S
O98 In91 2.326 . S
O98 C94 1.260 . S
O99 In91 2.266 1_556 S
O99 C96 1.252 . S
O100 In91 2.326 1_556 S
O100 C96 1.260 . S
C101 O92 1.240 . S
C101 O93 1.252 . S
O102 In91 2.294 . S
O102 C95 1.240 . S
O103 In91 2.326 . S
O103 C95 1.252 . S
In104 O105 2.294 . S
In104 O106 2.326 . S
In104 O110 2.266 1_554 S
In104 O111 2.326 1_554 S
In104 O112 2.266 1_554 S
In104 O113 2.326 . S
In104 O115 2.294 . S
In104 O116 2.326 . S
O105 In104 2.294 . S
O105 C114 1.240 . S
O106 In104 2.326 . S
O106 C114 1.252 . S
C107 O110 1.252 . S
C107 O111 1.260 . S
C108 O115 1.240 . S
C108 O116 1.252 . S
C109 O112 1.252 1_554 S
C109 O113 1.262 . S
O110 In104 2.266 1_556 S
O110 C107 1.252 . S
O111 In104 2.326 1_556 S
O111 C107 1.260 . S
O112 In104 2.266 1_556 S
O112 C109 1.252 1_556 S
O113 In104 2.326 . S
O113 C109 1.262 . S
C114 O105 1.240 . S
C114 O106 1.252 . S
O115 In104 2.294 . S
O115 C108 1.240 . S
O116 In104 2.326 . S
O116 C108 1.252 . S
In117 O118 2.294 . S
In117 O119 2.326 . S
In117 O123 2.266 . S
In117 O124 2.326 . S
In117 O125 2.266 . S
In117 O126 2.326 . S
In117 O128 2.294 . S
In117 O129 2.326 . S
O118 In117 2.294 . S
O118 C127 1.240 . S
O119 In117 2.326 . S
O119 C127 1.252 . S
C120 O123 1.252 . S
C120 O124 1.260 . S
C121 O128 1.240 . S
C121 O129 1.252 . S
C122 O125 1.252 . S
C122 O126 1.260 . S
O123 In117 2.266 . S
O123 C120 1.252 . S
O124 In117 2.326 . S
O124 C120 1.260 . S
O125 In117 2.266 . S
O125 C122 1.252 . S
O126 In117 2.326 . S
O126 C122 1.260 . S
C127 O118 1.240 . S
C127 O119 1.252 . S
O128 In117 2.294 . S
O128 C121 1.240 . S
O129 In117 2.326 . S
O129 C121 1.252 . S
In130 O131 2.294 . S
In130 O132 2.326 . S
In130 O136 2.266 . S
In130 O137 2.326 . S
In130 O138 2.266 . S
In130 O139 2.326 . S
In130 O141 2.294 . S
In130 O142 2.326 . S
O131 In130 2.294 . S
O131 C140 1.240 . S
O132 In130 2.326 . S
O132 C140 1.252 . S
C133 O136 1.252 . S
C133 O137 1.260 . S
C134 O141 1.240 . S
C134 O142 1.252 . S
C135 O138 1.252 . S
C135 O139 1.260 . S
O136 In130 2.266 . S
O136 C133 1.252 . S
O137 In130 2.326 . S
O137 C133 1.260 . S
O138 In130 2.266 . S
O138 C135 1.252 . S
O139 In130 2.326 . S
O139 C135 1.260 . S
C140 O131 1.240 . S
C140 O132 1.252 . S
O141 In130 2.294 . S
O141 C134 1.240 . S
O142 In130 2.326 . S
O142 C134 1.252 . S
In143 O144 2.294 . S
In143 O145 2.326 . S
In143 O149 2.266 . S
In143 O150 2.326 . S
In143 O151 2.266 . S
In143 O152 2.326 . S
In143 O154 2.294 . S
In143 O155 2.326 . S
O144 In143 2.294 . S
O144 C153 1.240 . S
O145 In143 2.326 . S
O145 C153 1.252 . S
C146 O149 1.252 . S
C146 O150 1.260 . S
C147 O154 1.240 . S
C147 O155 1.252 . S
C148 O151 1.252 . S
C148 O152 1.260 . S
O149 In143 2.266 . S
O149 C146 1.252 . S
O150 In143 2.326 . S
O150 C146 1.260 . S
O151 In143 2.266 . S
O151 C148 1.252 . S
O152 In143 2.326 . S
O152 C148 1.260 . S
C153 O144 1.240 . S
C153 O145 1.252 . S
O154 In143 2.294 . S
O154 C147 1.240 . S
O155 In143 2.326 . S
O155 C147 1.252 . S
In156 O157 2.294 . S
In156 O158 2.326 . S
In156 O162 2.266 1_455 S
In156 O163 2.326 1_455 S
In156 O164 2.266 . S
In156 O165 2.326 . S
In156 O167 2.294 . S
In156 O168 2.326 . S
O157 In156 2.294 . S
O157 C166 1.240 . S
O158 In156 2.326 . S
O158 C166 1.252 . S
C159 O162 1.252 . S
C159 O163 1.260 . S
C160 O167 1.240 . S
C160 O168 1.252 . S
C161 O164 1.252 . S
C161 O165 1.260 . S
O162 In156 2.266 1_655 S
O162 C159 1.252 . S
O163 In156 2.326 1_655 S
O163 C159 1.260 . S
O164 In156 2.266 . S
O164 C161 1.252 . S
O165 In156 2.326 . S
O165 C161 1.260 . S
C166 O157 1.240 . S
C166 O158 1.252 . S
O167 In156 2.294 . S
O167 C160 1.240 . S
O168 In156 2.326 . S
O168 C160 1.252 . S
In169 O170 2.294 . S
In169 O171 2.326 . S
In169 O175 2.266 . S
In169 O176 2.326 . S
In169 O177 2.266 1_455 S
In169 O178 2.326 1_455 S
In169 O180 2.294 . S
In169 O181 2.326 . S
O170 In169 2.294 . S
O170 C179 1.240 . S
O171 In169 2.326 . S
O171 C179 1.252 . S
C172 O175 1.252 . S
C172 O176 1.260 . S
C173 O180 1.240 . S
C173 O181 1.252 . S
C174 O177 1.252 . S
C174 O178 1.260 . S
O175 In169 2.266 . S
O175 C172 1.252 . S
O176 In169 2.326 . S
O176 C172 1.260 . S
O177 In169 2.266 1_655 S
O177 C174 1.252 . S
O178 In169 2.326 1_655 S
O178 C174 1.260 . S
C179 O170 1.240 . S
C179 O171 1.252 . S
O180 In169 2.294 . S
O180 C173 1.240 . S
O181 In169 2.326 . S
O181 C173 1.252 . S
In182 O183 2.294 . S
In182 O184 2.326 . S
In182 O188 2.266 . S
In182 O189 2.326 . S
In182 O190 2.266 . S
In182 O191 2.326 . S
In182 O193 2.294 . S
In182 O194 2.326 . S
O183 In182 2.294 . S
O183 C192 1.240 . S
O184 In182 2.326 . S
O184 C192 1.252 . S
C185 O188 1.252 . S
C185 O189 1.260 . S
C186 O193 1.240 . S
C186 O194 1.252 . S
C187 O190 1.252 . S
C187 O191 1.260 . S
O188 In182 2.266 . S
O188 C185 1.252 . S
O189 In182 2.326 . S
O189 C185 1.260 . S
O190 In182 2.266 . S
O190 C187 1.252 . S
O191 In182 2.326 . S
O191 C187 1.260 . S
C192 O183 1.240 . S
C192 O184 1.252 . S
O193 In182 2.294 . S
O193 C186 1.240 . S
O194 In182 2.326 . S
O194 C186 1.252 . S
In195 O196 2.294 . S
In195 O197 2.326 . S
In195 O201 2.266 . S
In195 O202 2.326 . S
In195 O203 2.266 . S
In195 O204 2.326 . S
In195 O206 2.294 . S
In195 O207 2.326 . S
O196 In195 2.294 . S
O196 C205 1.240 . S
O197 In195 2.326 . S
O197 C205 1.252 . S
C198 O201 1.252 . S
C198 O202 1.260 . S
C199 O206 1.240 . S
C199 O207 1.252 . S
C200 O203 1.252 . S
C200 O204 1.260 . S
O201 In195 2.266 . S
O201 C198 1.252 . S
O202 In195 2.326 . S
O202 C198 1.260 . S
O203 In195 2.266 . S
O203 C200 1.252 . S
O204 In195 2.326 . S
O204 C200 1.260 . S
C205 O196 1.240 . S
C205 O197 1.252 . S
O206 In195 2.294 . S
O206 C199 1.240 . S
O207 In195 2.326 . S
O207 C199 1.252 . S
In208 O209 2.294 . S
In208 O210 2.326 . S
In208 O214 2.266 1_545 S
In208 O215 2.328 . S
In208 O216 2.266 1_545 S
In208 O217 2.326 1_545 S
In208 O219 2.294 . S
In208 O220 2.326 . S
O209 In208 2.294 . S
O209 C218 1.240 . S
O210 In208 2.326 . S
O210 C218 1.252 . S
C211 O214 1.252 . S
C211 O215 1.257 1_565 S
C212 O219 1.240 . S
C212 O220 1.252 . S
C213 O216 1.252 . S
C213 O217 1.260 . S
O214 In208 2.266 1_565 S
O214 C211 1.252 . S
O215 In208 2.328 . S
O215 C211 1.257 1_545 S
O216 In208 2.266 1_565 S
O216 C213 1.252 . S
O217 In208 2.326 1_565 S
O217 C213 1.260 . S
C218 O209 1.240 . S
C218 O210 1.252 . S
O219 In208 2.294 . S
O219 C212 1.240 . S
O220 In208 2.326 . S
O220 C212 1.252 . S
In221 O222 2.294 . S
In221 O223 2.326 . S
In221 O227 2.266 . S
In221 O228 2.326 . S
In221 O229 2.266 . S
In221 O230 2.326 . S
In221 O232 2.294 . S
In221 O233 2.326 . S
O222 In221 2.294 . S
O222 C231 1.240 . S
O223 In221 2.326 . S
O223 C231 1.252 . S
C224 O227 1.252 . S
C224 O228 1.260 . S
C225 O232 1.240 . S
C225 O233 1.252 . S
C226 O229 1.252 . S
C226 O230 1.260 . S
O227 In221 2.266 . S
O227 C224 1.252 . S
O228 In221 2.326 . S
O228 C224 1.260 . S
O229 In221 2.266 . S
O229 C226 1.252 . S
O230 In221 2.326 . S
O230 C226 1.260 . S
C231 O222 1.240 . S
C231 O223 1.252 . S
O232 In221 2.294 . S
O232 C225 1.240 . S
O233 In221 2.326 . S
O233 C225 1.252 . S
In234 O235 2.294 1_545 S
In234 O236 2.326 1_545 S
In234 O240 2.266 . S
In234 O241 2.326 . S
In234 O242 2.266 . S
In234 O243 2.326 . S
In234 O245 2.298 . S
In234 O246 2.326 . S
O235 In234 2.294 1_565 S
O235 C244 1.240 . S
O236 In234 2.326 1_565 S
O236 C244 1.252 . S
C237 O240 1.252 . S
C237 O241 1.260 . S
C238 O245 1.240 . S
C238 O246 1.253 . S
C239 O242 1.252 . S
C239 O243 1.260 . S
O240 In234 2.266 . S
O240 C237 1.252 . S
O241 In234 2.326 . S
O241 C237 1.260 . S
O242 In234 2.266 . S
O242 C239 1.252 . S
O243 In234 2.326 . S
O243 C239 1.260 . S
C244 O235 1.240 . S
C244 O236 1.252 . S
O245 In234 2.298 . S
O245 C238 1.240 . S
O246 In234 2.326 . S
O246 C238 1.253 . S
In247 O248 2.294 . S
In247 O249 2.326 . S
In247 O253 2.266 . S
In247 O254 2.326 . S
In247 O255 2.266 1_554 S
In247 O256 2.326 1_554 S
In247 O258 2.294 . S
In247 O259 2.326 . S
O248 In247 2.294 . S
O248 C257 1.240 . S
O249 In247 2.326 . S
O249 C257 1.252 . S
C250 O253 1.252 . S
C250 O254 1.260 . S
C251 O258 1.240 . S
C251 O259 1.252 . S
C252 O255 1.252 . S
C252 O256 1.260 . S
O253 In247 2.266 . S
O253 C250 1.252 . S
O254 In247 2.326 . S
O254 C250 1.260 . S
O255 In247 2.266 1_556 S
O255 C252 1.252 . S
O256 In247 2.326 1_556 S
O256 C252 1.260 . S
C257 O248 1.240 . S
C257 O249 1.252 . S
O258 In247 2.294 . S
O258 C251 1.240 . S
O259 In247 2.326 . S
O259 C251 1.252 . S
In260 O261 2.294 . S
In260 O262 2.326 . S
In260 O266 2.266 1_554 S
In260 O267 2.326 1_554 S
In260 O268 2.266 1_554 S
In260 O269 2.329 . S
In260 O271 2.294 . S
In260 O272 2.326 . S
O261 In260 2.294 . S
O261 C270 1.240 . S
O262 In260 2.326 . S
O262 C270 1.252 . S
C263 O266 1.252 . S
C263 O267 1.260 . S
C264 O271 1.240 . S
C264 O272 1.252 . S
C265 O268 1.252 . S
C265 O269 1.256 1_556 S
O266 In260 2.266 1_556 S
O266 C263 1.252 . S
O267 In260 2.326 1_556 S
O267 C263 1.260 . S
O268 In260 2.266 1_556 S
O268 C265 1.252 . S
O269 In260 2.329 . S
O269 C265 1.256 1_554 S
C270 O261 1.240 . S
C270 O262 1.252 . S
O271 In260 2.294 . S
O271 C264 1.240 . S
O272 In260 2.326 . S
O272 C264 1.252 . S
In273 O274 2.294 . S
In273 O275 2.326 . S
In273 O279 2.266 . S
In273 O280 2.326 . S
In273 O281 2.266 . S
In273 O282 2.326 . S
In273 O284 2.294 . S
In273 O285 2.326 . S
O274 In273 2.294 . S
O274 C283 1.240 . S
O275 In273 2.326 . S
O275 C283 1.252 . S
C276 O279 1.252 . S
C276 O280 1.260 . S
C277 O284 1.240 . S
C277 O285 1.252 . S
C278 O281 1.252 . S
C278 O282 1.260 . S
O279 In273 2.266 . S
O279 C276 1.252 . S
O280 In273 2.326 . S
O280 C276 1.260 . S
O281 In273 2.266 . S
O281 C278 1.252 . S
O282 In273 2.326 . S
O282 C278 1.260 . S
C283 O274 1.240 . S
C283 O275 1.252 . S
O284 In273 2.294 . S
O284 C277 1.240 . S
O285 In273 2.326 . S
O285 C277 1.252 . S
In286 O287 2.294 . S
In286 O288 2.326 . S
In286 O292 2.266 . S
In286 O293 2.326 . S
In286 O294 2.266 . S
In286 O295 2.326 . S
In286 O297 2.294 . S
In286 O298 2.326 . S
O287 In286 2.294 . S
O287 C296 1.240 . S
O288 In286 2.326 . S
O288 C296 1.252 . S
C289 O292 1.252 . S
C289 O293 1.260 . S
C290 O297 1.240 . S
C290 O298 1.252 . S
C291 O294 1.252 . S
C291 O295 1.260 . S
O292 In286 2.266 . S
O292 C289 1.252 . S
O293 In286 2.326 . S
O293 C289 1.260 . S
O294 In286 2.266 . S
O294 C291 1.252 . S
O295 In286 2.326 . S
O295 C291 1.260 . S
C296 O287 1.240 . S
C296 O288 1.252 . S
O297 In286 2.294 . S
O297 C290 1.240 . S
O298 In286 2.326 . S
O298 C290 1.252 . S
In299 O300 2.294 . S
In299 O301 2.326 . S
In299 O305 2.266 . S
In299 O306 2.326 . S
In299 O307 2.266 . S
In299 O308 2.326 . S
In299 O310 2.294 . S
In299 O311 2.326 . S
O300 In299 2.294 . S
O300 C309 1.240 . S
O301 In299 2.326 . S
O301 C309 1.252 . S
C302 O305 1.252 . S
C302 O306 1.260 . S
C303 O310 1.240 . S
C303 O311 1.252 . S
C304 O307 1.252 . S
C304 O308 1.260 . S
O305 In299 2.266 . S
O305 C302 1.252 . S
O306 In299 2.326 . S
O306 C302 1.260 . S
O307 In299 2.266 . S
O307 C304 1.252 . S
O308 In299 2.326 . S
O308 C304 1.260 . S
C309 O300 1.240 . S
C309 O301 1.252 . S
O310 In299 2.294 . S
O310 C303 1.240 . S
O311 In299 2.326 . S
O311 C303 1.252 . S
O312 Mn313 2.170 1_556 S
O312 C326 1.244 . S
Mn313 O312 2.170 1_554 S
Mn313 O316 2.154 1_445 S
Mn313 O317 2.232 1_455 S
Mn313 O319 2.163 1_454 S
Mn313 O321 2.158 1_545 S
Mn313 O331 2.210 1_544 S
O314 Mn315 2.087 1_556 S
O314 C326 1.256 1_565 S
Mn315 O314 2.087 1_554 S
Mn315 O322 2.089 . S
Mn315 O331 2.290 1_554 S
Mn315 O332 2.251 1_554 S
O316 Mn313 2.154 1_665 S
O316 C327 1.239 . S
O317 Mn313 2.232 1_655 S
O317 Mn318 2.290 1_554 S
O317 C328 1.278 . S
Mn318 O317 2.290 1_556 S
Mn318 O320 2.087 1_556 S
Mn318 O323 2.251 1_556 S
Mn318 O324 2.087 . S
O319 Mn313 2.163 1_656 S
O319 C329 1.244 . S
O320 Mn318 2.087 1_554 S
O320 C327 1.261 1_545 S
O321 Mn313 2.158 1_565 S
O321 C330 1.239 . S
O322 Mn315 2.089 . S
O322 C330 1.256 . S
O323 Mn318 2.251 1_554 S
O323 C328 1.241 . S
O324 Mn318 2.087 . S
O324 C329 1.256 . S
C325 O331 1.278 . S
C325 O332 1.241 . S
C326 O312 1.244 . S
C326 O314 1.256 1_545 S
C327 O316 1.239 . S
C327 O320 1.261 1_565 S
C328 O317 1.278 . S
C328 O323 1.241 . S
C329 O319 1.244 . S
C329 O324 1.256 . S
C330 O321 1.239 . S
C330 O322 1.256 . S
O331 Mn313 2.210 1_566 S
O331 Mn315 2.290 1_556 S
O331 C325 1.278 . S
O332 Mn315 2.251 1_556 S
O332 C325 1.241 . S
O333 Mn334 2.163 . S
O333 C347 1.244 . S
Mn334 O333 2.163 . S
Mn334 O337 2.160 . S
Mn334 O338 2.221 . S
Mn334 O340 2.163 . S
Mn334 O342 2.160 . S
Mn334 O352 2.221 . S
O335 Mn336 2.087 . S
O335 C347 1.256 . S
Mn336 O335 2.087 . S
Mn336 O343 2.089 . S
Mn336 O352 2.290 . S
Mn336 O353 2.251 . S
O337 Mn334 2.160 . S
O337 C348 1.239 . S
O338 Mn334 2.221 . S
O338 Mn339 2.290 . S
O338 C349 1.278 . S
Mn339 O338 2.290 . S
Mn339 O341 2.089 . S
Mn339 O344 2.251 . S
Mn339 O345 2.087 . S
O340 Mn334 2.163 . S
O340 C350 1.244 . S
O341 Mn339 2.089 . S
O341 C348 1.256 . S
O342 Mn334 2.160 . S
O342 C351 1.239 . S
O343 Mn336 2.089 . S
O343 C351 1.256 . S
O344 Mn339 2.251 . S
O344 C349 1.241 . S
O345 Mn339 2.087 . S
O345 C350 1.256 . S
C346 O352 1.278 . S
C346 O353 1.241 . S
C347 O333 1.244 . S
C347 O335 1.256 . S
C348 O337 1.239 . S
C348 O341 1.256 . S
C349 O338 1.278 . S
C349 O344 1.241 . S
C350 O340 1.244 . S
C350 O345 1.256 . S
C351 O342 1.239 . S
C351 O343 1.256 . S
O352 Mn334 2.221 . S
O352 Mn336 2.290 . S
O352 C346 1.278 . S
O353 Mn336 2.251 . S
O353 C346 1.241 . S
O354 Mn355 2.163 1_565 S
O354 C368 1.244 . S
Mn355 O354 2.163 1_545 S
Mn355 O358 2.160 . S
Mn355 O359 2.221 1_545 S
Mn355 O361 2.163 . S
Mn355 O363 2.160 . S
Mn355 O373 2.221 . S
O356 Mn357 2.087 . S
O356 C368 1.256 1_545 S
Mn357 O356 2.087 . S
Mn357 O364 2.089 . S
Mn357 O373 2.290 . S
Mn357 O374 2.251 . S
O358 Mn355 2.160 . S
O358 C369 1.239 . S
O359 Mn355 2.221 1_565 S
O359 Mn360 2.290 . S
O359 C370 1.278 . S
Mn360 O359 2.290 . S
Mn360 O362 2.089 1_565 S
Mn360 O365 2.251 . S
Mn360 O366 2.087 . S
O361 Mn355 2.163 . S
O361 C371 1.234 1_545 S
O362 Mn360 2.089 1_545 S
O362 C369 1.256 . S
O363 Mn355 2.160 . S
O363 C372 1.239 . S
O364 Mn357 2.089 . S
O364 C372 1.256 . S
O365 Mn360 2.251 . S
O365 C370 1.241 . S
O366 Mn360 2.087 . S
O366 C371 1.270 . S
C367 O373 1.278 . S
C367 O374 1.241 . S
C368 O354 1.244 . S
C368 O356 1.256 1_565 S
C369 O358 1.239 . S
C369 O362 1.256 . S
C370 O359 1.278 . S
C370 O365 1.241 . S
C371 O361 1.234 1_565 S
C371 O366 1.270 . S
C372 O363 1.239 . S
C372 O364 1.256 . S
O373 Mn355 2.221 . S
O373 Mn357 2.290 . S
O373 C367 1.278 . S
O374 Mn357 2.251 . S
O374 C367 1.241 . S
O375 Mn376 2.163 . S
O375 C389 1.244 . S
Mn376 O375 2.163 . S
Mn376 O379 2.160 . S
Mn376 O380 2.221 . S
Mn376 O382 2.163 . S
Mn376 O384 2.160 . S
Mn376 O394 2.221 . S
O377 Mn378 2.087 . S
O377 C389 1.256 . S
Mn378 O377 2.087 . S
Mn378 O385 2.089 . S
Mn378 O394 2.290 . S
Mn378 O395 2.251 . S
O379 Mn376 2.160 . S
O379 C390 1.239 . S
O380 Mn376 2.221 . S
O380 Mn381 2.290 . S
O380 C391 1.278 . S
Mn381 O380 2.290 . S
Mn381 O383 2.089 . S
Mn381 O386 2.251 . S
Mn381 O387 2.087 . S
O382 Mn376 2.163 . S
O382 C392 1.244 . S
O383 Mn381 2.089 . S
O383 C390 1.256 . S
O384 Mn376 2.160 . S
O384 C393 1.239 . S
O385 Mn378 2.089 . S
O385 C393 1.256 . S
O386 Mn381 2.251 . S
O386 C391 1.241 . S
O387 Mn381 2.087 . S
O387 C392 1.256 . S
C388 O394 1.278 . S
C388 O395 1.241 . S
C389 O375 1.244 . S
C389 O377 1.256 . S
C390 O379 1.239 . S
C390 O383 1.256 . S
C391 O380 1.278 . S
C391 O386 1.241 . S
C392 O382 1.244 . S
C392 O387 1.256 . S
C393 O384 1.239 . S
C393 O385 1.256 . S
O394 Mn376 2.221 . S
O394 Mn378 2.290 . S
O394 C388 1.278 . S
O395 Mn378 2.251 . S
O395 C388 1.241 . S
O396 Mn397 2.163 1_565 S
O396 C410 1.244 1_455 S
Mn397 O396 2.163 1_545 S
Mn397 O400 2.160 . S
Mn397 O401 2.221 . S
Mn397 O403 2.163 1_455 S
Mn397 O405 2.150 1_545 S
Mn397 O415 2.217 1_445 S
O398 Mn399 2.087 1_655 S
O398 C410 1.256 . S
Mn399 O398 2.087 1_455 S
Mn399 O406 2.089 . S
Mn399 O415 2.283 1_455 S
Mn399 O416 2.251 1_455 S
O400 Mn397 2.160 . S
O400 C411 1.239 . S
O401 Mn397 2.221 . S
O401 Mn402 2.290 1_455 S
O401 C412 1.278 . S
Mn402 O401 2.290 1_655 S
Mn402 O404 2.089 1_655 S
Mn402 O407 2.251 1_655 S
Mn402 O408 2.087 . S
O403 Mn397 2.163 1_655 S
O403 C413 1.244 . S
O404 Mn402 2.089 1_455 S
O404 C411 1.256 . S
O405 Mn397 2.150 1_565 S
O405 C414 1.270 . S
O406 Mn399 2.089 . S
O406 C414 1.256 . S
O407 Mn402 2.251 1_455 S
O407 C412 1.241 . S
O408 Mn402 2.087 . S
O408 C413 1.256 . S
C409 O415 1.293 . S
C409 O416 1.241 . S
C410 O396 1.244 1_655 S
C410 O398 1.256 . S
C411 O400 1.239 . S
C411 O404 1.256 . S
C412 O401 1.278 . S
C412 O407 1.241 . S
C413 O403 1.244 . S
C413 O408 1.256 . S
C414 O405 1.270 . S
C414 O406 1.256 . S
O415 Mn397 2.217 1_665 S
O415 Mn399 2.283 1_655 S
O415 C409 1.293 . S
O416 Mn399 2.251 1_655 S
O416 C409 1.241 . S
O417 Mn418 2.163 . S
O417 C431 1.244 . S
Mn418 O417 2.163 . S
Mn418 O421 2.160 . S
Mn418 O422 2.221 . S
Mn418 O424 2.163 . S
Mn418 O426 2.160 . S
Mn418 O436 2.221 . S
O419 Mn420 2.087 . S
O419 C431 1.256 . S
Mn420 O419 2.087 . S
Mn420 O427 2.089 . S
Mn420 O436 2.290 . S
Mn420 O437 2.251 . S
O421 Mn418 2.160 . S
O421 C432 1.239 . S
O422 Mn418 2.221 . S
O422 Mn423 2.290 . S
O422 C433 1.278 . S
Mn423 O422 2.290 . S
Mn423 O425 2.089 . S
Mn423 O428 2.251 . S
Mn423 O429 2.087 . S
O424 Mn418 2.163 . S
O424 C434 1.244 . S
O425 Mn423 2.089 . S
O425 C432 1.256 . S
O426 Mn418 2.160 . S
O426 C435 1.239 . S
O427 Mn420 2.089 . S
O427 C435 1.256 . S
O428 Mn423 2.251 . S
O428 C433 1.241 . S
O429 Mn423 2.087 . S
O429 C434 1.256 . S
C430 O436 1.278 . S
C430 O437 1.241 . S
C431 O417 1.244 . S
C431 O419 1.256 . S
C432 O421 1.239 . S
C432 O425 1.256 . S
C433 O422 1.278 . S
C433 O428 1.241 . S
C434 O424 1.244 . S
C434 O429 1.256 . S
C435 O426 1.239 . S
C435 O427 1.256 . S
O436 Mn418 2.221 . S
O436 Mn420 2.290 . S
O436 C430 1.278 . S
O437 Mn420 2.251 . S
O437 C430 1.241 . S
O438 Mn439 2.163 1_566 S
O438 C452 1.244 . S
Mn439 O438 2.163 1_544 S
Mn439 O442 2.160 . S
Mn439 O443 2.221 . S
Mn439 O445 2.163 1_545 S
Mn439 O447 2.171 . S
Mn439 O457 2.221 1_544 S
O440 Mn441 2.087 1_565 S
O440 C452 1.256 . S
Mn441 O440 2.087 1_545 S
Mn441 O448 2.089 . S
Mn441 O457 2.290 1_545 S
Mn441 O458 2.251 1_545 S
O442 Mn439 2.160 . S
O442 C453 1.239 . S
O443 Mn439 2.221 . S
O443 Mn444 2.290 1_545 S
O443 C454 1.278 . S
Mn444 O443 2.290 1_565 S
Mn444 O446 2.091 . S
Mn444 O449 2.251 1_565 S
Mn444 O450 2.087 . S
O445 Mn439 2.163 1_565 S
O445 C455 1.244 . S
O446 Mn444 2.091 . S
O446 C453 1.248 1_565 S
O447 Mn439 2.171 . S
O447 C456 1.206 1_554 S
O448 Mn441 2.089 . S
O448 C456 1.256 . S
O449 Mn444 2.251 1_545 S
O449 C454 1.241 . S
O450 Mn444 2.087 . S
O450 C455 1.256 . S
C451 O457 1.278 . S
C451 O458 1.241 . S
C452 O438 1.244 . S
C452 O440 1.256 . S
C453 O442 1.239 . S
C453 O446 1.248 1_545 S
C454 O443 1.278 . S
C454 O449 1.241 . S
C455 O445 1.244 . S
C455 O450 1.256 . S
C456 O447 1.206 1_556 S
C456 O448 1.256 . S
O457 Mn439 2.221 1_566 S
O457 Mn441 2.290 1_565 S
O457 C451 1.278 . S
O458 Mn441 2.251 1_565 S
O458 C451 1.241 . S
O459 Mn460 2.163 . S
O459 C473 1.244 . S
Mn460 O459 2.163 . S
Mn460 O463 2.160 . S
Mn460 O464 2.221 . S
Mn460 O466 2.163 . S
Mn460 O468 2.160 . S
Mn460 O478 2.221 . S
O461 Mn462 2.087 . S
O461 C473 1.256 . S
Mn462 O461 2.087 . S
Mn462 O469 2.089 . S
Mn462 O478 2.290 . S
Mn462 O479 2.251 . S
O463 Mn460 2.160 . S
O463 C474 1.239 . S
O464 Mn460 2.221 . S
O464 Mn465 2.290 . S
O464 C475 1.278 . S
Mn465 O464 2.290 . S
Mn465 O467 2.089 . S
Mn465 O470 2.251 . S
Mn465 O471 2.087 . S
O466 Mn460 2.163 . S
O466 C476 1.244 . S
O467 Mn465 2.089 . S
O467 C474 1.256 . S
O468 Mn460 2.160 . S
O468 C477 1.239 . S
O469 Mn462 2.089 . S
O469 C477 1.256 . S
O470 Mn465 2.251 . S
O470 C475 1.241 . S
O471 Mn465 2.087 . S
O471 C476 1.256 . S
C472 O478 1.278 . S
C472 O479 1.241 . S
C473 O459 1.244 . S
C473 O461 1.256 . S
C474 O463 1.239 . S
C474 O467 1.256 . S
C475 O464 1.278 . S
C475 O470 1.241 . S
C476 O466 1.244 . S
C476 O471 1.256 . S
C477 O468 1.239 . S
C477 O469 1.256 . S
O478 Mn460 2.221 . S
O478 Mn462 2.290 . S
O478 C472 1.278 . S
O479 Mn462 2.251 . S
O479 C472 1.241 . S
O480 Mn481 2.163 1_556 S
O480 C494 1.244 . S
Mn481 O480 2.163 1_554 S
Mn481 O484 2.160 . S
Mn481 O485 2.221 1_554 S
Mn481 O487 2.163 . S
Mn481 O489 2.160 . S
Mn481 O499 2.221 . S
O482 Mn483 2.087 . S
O482 C494 1.256 1_554 S
Mn483 O482 2.087 . S
Mn483 O490 2.089 . S
Mn483 O499 2.290 . S
Mn483 O500 2.251 . S
O484 Mn481 2.160 . S
O484 C495 1.239 . S
O485 Mn481 2.221 1_556 S
O485 Mn486 2.290 . S
O485 C496 1.278 . S
Mn486 O485 2.290 . S
Mn486 O488 2.089 1_556 S
Mn486 O491 2.251 . S
Mn486 O492 2.087 . S
O487 Mn481 2.163 . S
O487 C497 1.244 1_554 S
O488 Mn486 2.089 1_554 S
O488 C495 1.256 . S
O489 Mn481 2.160 . S
O489 C498 1.239 . S
O490 Mn483 2.089 . S
O490 C498 1.256 . S
O491 Mn486 2.251 . S
O491 C496 1.241 . S
O492 Mn486 2.087 . S
O492 C497 1.256 . S
C493 O499 1.278 . S
C493 O500 1.241 . S
C494 O480 1.244 . S
C494 O482 1.256 1_556 S
C495 O484 1.239 . S
C495 O488 1.256 . S
C496 O485 1.278 . S
C496 O491 1.241 . S
C497 O487 1.244 1_556 S
C497 O492 1.256 . S
C498 O489 1.239 . S
C498 O490 1.256 . S
O499 Mn481 2.221 . S
O499 Mn483 2.290 . S
O499 C493 1.278 . S
O500 Mn483 2.251 . S
O500 C493 1.241 . S
O501 Mn502 2.163 . S
O501 C515 1.244 . S
Mn502 O501 2.163 . S
Mn502 O505 2.160 . S
Mn502 O506 2.221 . S
Mn502 O508 2.163 . S
Mn502 O510 2.160 . S
Mn502 O520 2.221 . S
O503 Mn504 2.087 . S
O503 C515 1.256 . S
Mn504 O503 2.087 . S
Mn504 O511 2.089 . S
Mn504 O520 2.290 . S
Mn504 O521 2.251 . S
O505 Mn502 2.160 . S
O505 C516 1.239 . S
O506 Mn502 2.221 . S
O506 Mn507 2.290 . S
O506 C517 1.278 . S
Mn507 O506 2.290 . S
Mn507 O509 2.089 . S
Mn507 O512 2.251 . S
Mn507 O513 2.087 . S
O508 Mn502 2.163 . S
O508 C518 1.244 . S
O509 Mn507 2.089 . S
O509 C516 1.256 . S
O510 Mn502 2.160 . S
O510 C519 1.239 . S
O511 Mn504 2.089 . S
O511 C519 1.256 . S
O512 Mn507 2.251 . S
O512 C517 1.241 . S
O513 Mn507 2.087 . S
O513 C518 1.256 . S
C514 O520 1.278 . S
C514 O521 1.241 . S
C515 O501 1.244 . S
C515 O503 1.256 . S
C516 O505 1.239 . S
C516 O509 1.256 . S
C517 O506 1.278 . S
C517 O512 1.241 . S
C518 O508 1.244 . S
C518 O513 1.256 . S
C519 O510 1.239 . S
C519 O511 1.256 . S
O520 Mn502 2.221 . S
O520 Mn504 2.290 . S
O520 C514 1.278 . S
O521 Mn504 2.251 . S
O521 C514 1.241 . S
O522 Mn523 2.163 1_655 S
O522 C536 1.244 . S
Mn523 O522 2.163 1_455 S
Mn523 O526 2.160 . S
Mn523 O527 2.221 1_455 S
Mn523 O529 2.163 . S
Mn523 O531 2.160 . S
Mn523 O541 2.221 . S
O524 Mn525 2.087 . S
O524 C536 1.256 1_455 S
Mn525 O524 2.087 . S
Mn525 O532 2.089 . S
Mn525 O541 2.290 . S
Mn525 O542 2.251 . S
O526 Mn523 2.160 . S
O526 C537 1.239 . S
O527 Mn523 2.221 1_655 S
O527 Mn528 2.290 . S
O527 C538 1.278 . S
Mn528 O527 2.290 . S
Mn528 O530 2.089 1_655 S
Mn528 O533 2.251 . S
Mn528 O534 2.087 . S
O529 Mn523 2.163 . S
O529 C539 1.244 1_455 S
O530 Mn528 2.089 1_455 S
O530 C537 1.256 . S
O531 Mn523 2.160 . S
O531 C540 1.239 . S
O532 Mn525 2.089 . S
O532 C540 1.256 . S
O533 Mn528 2.251 . S
O533 C538 1.241 . S
O534 Mn528 2.087 . S
O534 C539 1.256 . S
C535 O541 1.278 . S
C535 O542 1.241 . S
C536 O522 1.244 . S
C536 O524 1.256 1_655 S
C537 O526 1.239 . S
C537 O530 1.256 . S
C538 O527 1.278 . S
C538 O533 1.241 . S
C539 O529 1.244 1_655 S
C539 O534 1.256 . S
C540 O531 1.239 . S
C540 O532 1.256 . S
O541 Mn523 2.221 . S
O541 Mn525 2.290 . S
O541 C535 1.278 . S
O542 Mn525 2.251 . S
O542 C535 1.241 . S
O543 Mn544 2.163 . S
O543 C557 1.244 . S
Mn544 O543 2.163 . S
Mn544 O547 2.160 . S
Mn544 O548 2.221 . S
Mn544 O550 2.163 . S
Mn544 O552 2.160 . S
Mn544 O562 2.221 . S
O545 Mn546 2.087 . S
O545 C557 1.256 . S
Mn546 O545 2.087 . S
Mn546 O553 2.089 . S
Mn546 O562 2.290 . S
Mn546 O563 2.251 . S
O547 Mn544 2.160 . S
O547 C558 1.239 . S
O548 Mn544 2.221 . S
O548 Mn549 2.290 . S
O548 C559 1.278 . S
Mn549 O548 2.290 . S
Mn549 O551 2.089 . S
Mn549 O554 2.251 . S
Mn549 O555 2.087 . S
O550 Mn544 2.163 . S
O550 C560 1.244 . S
O551 Mn549 2.089 . S
O551 C558 1.256 . S
O552 Mn544 2.160 . S
O552 C561 1.239 . S
O553 Mn546 2.089 . S
O553 C561 1.256 . S
O554 Mn549 2.251 . S
O554 C559 1.241 . S
O555 Mn549 2.087 . S
O555 C560 1.256 . S
C556 O562 1.278 . S
C556 O563 1.241 . S
C557 O543 1.244 . S
C557 O545 1.256 . S
C558 O547 1.239 . S
C558 O551 1.256 . S
C559 O548 1.278 . S
C559 O554 1.241 . S
C560 O550 1.244 . S
C560 O555 1.256 . S
C561 O552 1.239 . S
C561 O553 1.256 . S
O562 Mn544 2.221 . S
O562 Mn546 2.290 . S
O562 C556 1.278 . S
O563 Mn546 2.251 . S
O563 C556 1.241 . S
O564 Mn565 2.163 . S
O564 C578 1.244 . S
Mn565 O564 2.163 . S
Mn565 O568 2.160 . S
Mn565 O569 2.221 . S
Mn565 O571 2.163 . S
Mn565 O573 2.160 . S
Mn565 O583 2.221 . S
O566 Mn567 2.087 . S
O566 C578 1.256 . S
Mn567 O566 2.087 . S
Mn567 O574 2.089 . S
Mn567 O583 2.290 . S
Mn567 O584 2.251 . S
O568 Mn565 2.160 . S
O568 C579 1.239 . S
O569 Mn565 2.221 . S
O569 Mn570 2.290 . S
O569 C580 1.278 . S
Mn570 O569 2.290 . S
Mn570 O572 2.089 . S
Mn570 O575 2.251 . S
Mn570 O576 2.087 . S
O571 Mn565 2.163 . S
O571 C581 1.244 . S
O572 Mn570 2.089 . S
O572 C579 1.256 . S
O573 Mn565 2.160 . S
O573 C582 1.239 . S
O574 Mn567 2.089 . S
O574 C582 1.256 . S
O575 Mn570 2.251 . S
O575 C580 1.241 . S
O576 Mn570 2.087 . S
O576 C581 1.256 . S
C577 O583 1.278 . S
C577 O584 1.241 . S
C578 O564 1.244 . S
C578 O566 1.256 . S
C579 O568 1.239 . S
C579 O572 1.256 . S
C580 O569 1.278 . S
C580 O575 1.241 . S
C581 O571 1.244 . S
C581 O576 1.256 . S
C582 O573 1.239 . S
C582 O574 1.256 . S
O583 Mn565 2.221 . S
O583 Mn567 2.290 . S
O583 C577 1.278 . S
O584 Mn567 2.251 . S
O584 C577 1.241 . S
O585 Mn586 2.163 . S
O585 C599 1.244 . S
Mn586 O585 2.163 . S
Mn586 O589 2.160 . S
Mn586 O590 2.221 . S
Mn586 O592 2.163 . S
Mn586 O594 2.160 . S
Mn586 O604 2.221 . S
O587 Mn588 2.087 . S
O587 C599 1.256 . S
Mn588 O587 2.087 . S
Mn588 O595 2.089 . S
Mn588 O604 2.290 . S
Mn588 O605 2.251 . S
O589 Mn586 2.160 . S
O589 C600 1.239 . S
O590 Mn586 2.221 . S
O590 Mn591 2.290 . S
O590 C601 1.278 . S
Mn591 O590 2.290 . S
Mn591 O593 2.089 . S
Mn591 O596 2.251 . S
Mn591 O597 2.087 . S
O592 Mn586 2.163 . S
O592 C602 1.244 . S
O593 Mn591 2.089 . S
O593 C600 1.256 . S
O594 Mn586 2.160 . S
O594 C603 1.239 . S
O595 Mn588 2.089 . S
O595 C603 1.256 . S
O596 Mn591 2.251 . S
O596 C601 1.241 . S
O597 Mn591 2.087 . S
O597 C602 1.256 . S
C598 O604 1.278 . S
C598 O605 1.241 . S
C599 O585 1.244 . S
C599 O587 1.256 . S
C600 O589 1.239 . S
C600 O593 1.256 . S
C601 O590 1.278 . S
C601 O596 1.241 . S
C602 O592 1.244 . S
C602 O597 1.256 . S
C603 O594 1.239 . S
C603 O595 1.256 . S
O604 Mn586 2.221 . S
O604 Mn588 2.290 . S
O604 C598 1.278 . S
O605 Mn588 2.251 . S
O605 C598 1.241 . S
O606 Mn607 2.163 . S
O606 C620 1.244 . S
Mn607 O606 2.163 . S
Mn607 O610 2.160 . S
Mn607 O611 2.221 . S
Mn607 O613 2.163 . S
Mn607 O615 2.160 . S
Mn607 O625 2.221 . S
O608 Mn609 2.087 . S
O608 C620 1.256 . S
Mn609 O608 2.087 . S
Mn609 O616 2.089 . S
Mn609 O625 2.290 . S
Mn609 O626 2.251 . S
O610 Mn607 2.160 . S
O610 C621 1.239 . S
O611 Mn607 2.221 . S
O611 Mn612 2.290 . S
O611 C622 1.278 . S
Mn612 O611 2.290 . S
Mn612 O614 2.089 . S
Mn612 O617 2.251 . S
Mn612 O618 2.087 . S
O613 Mn607 2.163 . S
O613 C623 1.244 . S
O614 Mn612 2.089 . S
O614 C621 1.256 . S
O615 Mn607 2.160 . S
O615 C624 1.239 . S
O616 Mn609 2.089 . S
O616 C624 1.256 . S
O617 Mn612 2.251 . S
O617 C622 1.241 . S
O618 Mn612 2.087 . S
O618 C623 1.256 . S
C619 O625 1.278 . S
C619 O626 1.241 . S
C620 O606 1.244 . S
C620 O608 1.256 . S
C621 O610 1.239 . S
C621 O614 1.256 . S
C622 O611 1.278 . S
C622 O617 1.241 . S
C623 O613 1.244 . S
C623 O618 1.256 . S
C624 O615 1.239 . S
C624 O616 1.256 . S
O625 Mn607 2.221 . S
O625 Mn609 2.290 . S
O625 C619 1.278 . S
O626 Mn609 2.251 . S
O626 C619 1.241 . S
O627 Mn628 2.163 1_656 S
O627 C641 1.244 . S
Mn628 O627 2.163 1_454 S
Mn628 O631 2.160 . S
Mn628 O632 2.221 . S
Mn628 O634 2.163 1_554 S
Mn628 O636 2.160 . S
Mn628 O646 2.221 1_454 S
O629 Mn630 2.087 1_556 S
O629 C641 1.256 . S
Mn630 O629 2.087 1_554 S
Mn630 O637 2.089 . S
Mn630 O646 2.290 1_554 S
Mn630 O647 2.251 1_554 S
O631 Mn628 2.160 . S
O631 C642 1.239 . S
O632 Mn628 2.221 . S
O632 Mn633 2.290 1_554 S
O632 C643 1.278 . S
Mn633 O632 2.290 1_556 S
Mn633 O635 2.089 . S
Mn633 O638 2.249 1_556 S
Mn633 O639 2.087 . S
O634 Mn628 2.163 1_556 S
O634 C644 1.244 . S
O635 Mn633 2.089 . S
O635 C642 1.256 1_556 S
O636 Mn628 2.160 . S
O636 C645 1.239 1_455 S
O637 Mn630 2.089 . S
O637 C645 1.256 . S
O638 Mn633 2.249 1_554 S
O638 C643 1.247 . S
O639 Mn633 2.087 . S
O639 C644 1.256 . S
C640 O646 1.278 . S
C640 O647 1.241 . S
C641 O627 1.244 . S
C641 O629 1.256 . S
C642 O631 1.239 . S
C642 O635 1.256 1_554 S
C643 O632 1.278 . S
C643 O638 1.247 . S
C644 O634 1.244 . S
C644 O639 1.256 . S
C645 O636 1.239 1_655 S
C645 O637 1.256 . S
O646 Mn628 2.221 1_656 S
O646 Mn630 2.290 1_556 S
O646 C640 1.278 . S
O647 Mn630 2.251 1_556 S
O647 C640 1.241 . S
H648 C654 0.930 . S
H649 C658 0.930 . S
H650 C663 0.929 . S
H651 C661 0.929 . S
H652 C656 0.929 . S
H653 C662 0.929 . S
C654 H648 0.930 . S
C654 C655 1.346 1_455 S
C654 C662 1.378 . S
C655 C654 1.346 1_655 S
C655 C663 1.456 . S
C656 H652 0.929 . S
C656 C658 1.378 . S
C656 C660 1.350 . S
C657 C660 1.463 . S
C657 C662 1.350 1_655 S
C657 N665 1.427 . S
C658 H649 0.930 . S
C658 C656 1.378 . S
C658 C659 1.367 . S
C659 C658 1.367 . S
C659 C661 1.433 1_655 S
C660 C656 1.350 . S
C660 C657 1.463 . S
C660 N664 1.427 1_655 S
C661 H651 0.929 . S
C661 C659 1.433 1_455 S
C661 N664 1.384 . S
C662 H653 0.929 . S
C662 C654 1.378 . S
C662 C657 1.350 1_455 S
C663 H650 0.929 . S
C663 C655 1.456 . S
C663 N665 1.384 . S
N664 C660 1.427 1_455 S
N664 C661 1.384 . S
N665 C657 1.427 . S
N665 C663 1.384 . S
H666 C672 0.930 . S
H667 C676 0.930 . S
H668 C681 0.929 . S
H669 C679 0.929 . S
H670 C674 0.929 . S
H671 C680 0.929 . S
C672 H666 0.930 . S
C672 C673 1.367 . S
C672 C680 1.378 . S
C673 C672 1.367 . S
C673 C681 1.433 . S
C674 H670 0.929 . S
C674 C676 1.378 . S
C674 C678 1.350 . S
C675 C678 1.463 . S
C675 C680 1.350 . S
C675 N683 1.427 . S
C676 H667 0.930 . S
C676 C674 1.378 . S
C676 C677 1.367 . S
C677 C676 1.367 . S
C677 C679 1.433 . S
C678 C674 1.350 . S
C678 C675 1.463 . S
C678 N682 1.427 . S
C679 H669 0.929 . S
C679 C677 1.433 . S
C679 N682 1.384 . S
C680 H671 0.929 . S
C680 C672 1.378 . S
C680 C675 1.350 . S
C681 H668 0.929 . S
C681 C673 1.433 . S
C681 N683 1.384 . S
N682 C678 1.427 . S
N682 C679 1.384 . S
N683 C675 1.427 . S
N683 C681 1.384 . S
H684 C690 0.930 . S
H685 C694 0.930 . S
H686 C699 0.929 . S
H687 C697 0.929 . S
H688 C692 0.929 . S
H689 C698 0.929 . S
C690 H684 0.930 . S
C690 C691 1.367 . S
C690 C698 1.378 . S
C691 C690 1.367 . S
C691 C699 1.433 . S
C692 H688 0.929 . S
C692 C694 1.378 . S
C692 C696 1.350 . S
C693 C696 1.463 . S
C693 C698 1.350 . S
C693 N701 1.427 . S
C694 H685 0.930 . S
C694 C692 1.378 . S
C694 C695 1.367 . S
C695 C694 1.367 . S
C695 C697 1.433 . S
C696 C692 1.350 . S
C696 C693 1.463 . S
C696 N700 1.427 . S
C697 H687 0.929 . S
C697 C695 1.433 . S
C697 N700 1.384 . S
C698 H689 0.929 . S
C698 C690 1.378 . S
C698 C693 1.350 . S
C699 H686 0.929 . S
C699 C691 1.433 . S
C699 N701 1.384 . S
N700 C696 1.427 . S
N700 C697 1.384 . S
N701 C693 1.427 . S
N701 C699 1.384 . S
H702 C708 0.930 . S
H703 C712 0.930 . S
H704 C717 0.929 . S
H705 C715 0.929 . S
H706 C710 0.929 . S
H707 C716 0.929 . S
C708 H702 0.930 . S
C708 C709 1.367 . S
C708 C716 1.378 . S
C709 C708 1.367 . S
C709 C717 1.433 . S
C710 H706 0.929 . S
C710 C712 1.378 . S
C710 C714 1.350 . S
C711 C714 1.463 . S
C711 C716 1.350 . S
C711 N719 1.427 . S
C712 H703 0.930 . S
C712 C710 1.378 . S
C712 C713 1.367 . S
C713 C712 1.367 . S
C713 C715 1.433 . S
C714 C710 1.350 . S
C714 C711 1.463 . S
C714 N718 1.427 . S
C715 H705 0.929 . S
C715 C713 1.433 . S
C715 N718 1.384 . S
C716 H707 0.929 . S
C716 C708 1.378 . S
C716 C711 1.350 . S
C717 H704 0.929 . S
C717 C709 1.433 . S
C717 N719 1.384 . S
N718 C714 1.427 . S
N718 C715 1.384 . S
N719 C711 1.427 . S
N719 C717 1.384 . S
H720 C726 0.930 . S
H721 C730 0.930 . S
H722 C735 0.929 . S
H723 C733 0.929 . S
H724 C728 0.929 . S
H725 C734 0.929 . S
C726 H720 0.930 . S
C726 C727 1.367 1_655 S
C726 C734 1.378 . S
C727 C726 1.367 1_455 S
C727 C735 1.433 . S
C728 H724 0.929 . S
C728 C730 1.378 . S
C728 C732 1.354 . S
C729 C732 1.462 1_655 S
C729 C734 1.368 . S
C729 N737 1.408 1_655 S
C730 H721 0.930 . S
C730 C728 1.378 . S
C730 C731 1.367 1_455 S
C731 C730 1.367 1_655 S
C731 C733 1.433 . S
C732 C728 1.354 . S
C732 C729 1.462 1_455 S
C732 N736 1.423 1_455 S
C733 H723 0.929 . S
C733 C731 1.433 . S
C733 N736 1.384 . S
C734 H725 0.929 . S
C734 C726 1.378 . S
C734 C729 1.368 . S
C735 H722 0.929 . S
C735 C727 1.433 . S
C735 N737 1.384 . S
N736 C732 1.423 1_655 S
N736 C733 1.384 . S
N737 C729 1.408 1_455 S
N737 C735 1.384 . S
H738 C744 0.930 . S
H739 C748 0.930 . S
H740 C753 0.929 . S
H741 C751 0.929 . S
H742 C746 0.929 . S
H743 C752 0.929 . S
C744 H738 0.930 . S
C744 C745 1.367 . S
C744 C752 1.378 . S
C745 C744 1.367 . S
C745 C753 1.433 . S
C746 H742 0.929 . S
C746 C748 1.378 . S
C746 C750 1.350 . S
C747 C750 1.463 . S
C747 C752 1.350 . S
C747 N755 1.427 . S
C748 H739 0.930 . S
C748 C746 1.378 . S
C748 C749 1.367 . S
C749 C748 1.367 . S
C749 C751 1.433 . S
C750 C746 1.350 . S
C750 C747 1.463 . S
C750 N754 1.427 . S
C751 H741 0.929 . S
C751 C749 1.433 . S
C751 N754 1.384 . S
C752 H743 0.929 . S
C752 C744 1.378 . S
C752 C747 1.350 . S
C753 H740 0.929 . S
C753 C745 1.433 . S
C753 N755 1.384 . S
N754 C750 1.427 . S
N754 C751 1.384 . S
N755 C747 1.427 . S
N755 C753 1.384 . S
H756 C762 0.930 . S
H757 C766 0.930 . S
H758 C771 0.929 . S
H759 C769 0.929 . S
H760 C764 0.929 . S
H761 C770 0.929 . S
C762 H756 0.930 . S
C762 C763 1.367 . S
C762 C770 1.378 . S
C763 C762 1.367 . S
C763 C771 1.433 . S
C764 H760 0.929 . S
C764 C766 1.378 . S
C764 C768 1.350 . S
C765 C768 1.463 . S
C765 C770 1.350 . S
C765 N773 1.427 . S
C766 H757 0.930 . S
C766 C764 1.378 . S
C766 C767 1.367 . S
C767 C766 1.367 . S
C767 C769 1.433 . S
C768 C764 1.350 . S
C768 C765 1.463 . S
C768 N772 1.427 . S
C769 H759 0.929 . S
C769 C767 1.433 . S
C769 N772 1.384 . S
C770 H761 0.929 . S
C770 C762 1.378 . S
C770 C765 1.350 . S
C771 H758 0.929 . S
C771 C763 1.433 . S
C771 N773 1.384 . S
N772 C768 1.427 . S
N772 C769 1.384 . S
N773 C765 1.427 . S
N773 C771 1.384 . S
H774 C780 0.930 . S
H775 C784 0.930 . S
H776 C789 0.929 . S
H777 C787 0.929 . S
H778 C782 0.929 . S
H779 C788 0.929 . S
C780 H774 0.930 . S
C780 C781 1.367 . S
C780 C788 1.378 . S
C781 C780 1.367 . S
C781 C789 1.433 . S
C782 H778 0.929 . S
C782 C784 1.378 . S
C782 C786 1.350 . S
C783 C786 1.463 . S
C783 C788 1.350 . S
C783 N791 1.427 . S
C784 H775 0.930 . S
C784 C782 1.378 . S
C784 C785 1.367 . S
C785 C784 1.367 . S
C785 C787 1.433 . S
C786 C782 1.350 . S
C786 C783 1.463 . S
C786 N790 1.427 . S
C787 H777 0.929 . S
C787 C785 1.433 . S
C787 N790 1.384 . S
C788 H779 0.929 . S
C788 C780 1.378 . S
C788 C783 1.350 . S
C789 H776 0.929 . S
C789 C781 1.433 . S
C789 N791 1.384 . S
N790 C786 1.427 . S
N790 C787 1.384 . S
N791 C783 1.427 . S
N791 C789 1.384 . S
H792 C798 0.930 . S
H793 C802 0.930 . S
H794 C807 0.929 . S
H795 C805 0.929 . S
H796 C800 0.929 . S
H797 C806 0.929 . S
C798 H792 0.930 . S
C798 C799 1.367 1_545 S
C798 C806 1.378 . S
C799 C798 1.367 1_565 S
C799 C807 1.433 . S
C800 H796 0.929 . S
C800 C802 1.378 . S
C800 C804 1.350 . S
C801 C804 1.463 . S
C801 C806 1.350 1_565 S
C801 N809 1.427 . S
C802 H793 0.930 . S
C802 C800 1.378 . S
C802 C803 1.367 . S
C803 C802 1.367 . S
C803 C805 1.433 1_565 S
C804 C800 1.350 . S
C804 C801 1.463 . S
C804 N808 1.427 1_565 S
C805 H795 0.929 . S
C805 C803 1.433 1_545 S
C805 N808 1.384 . S
C806 H797 0.929 . S
C806 C798 1.378 . S
C806 C801 1.350 1_545 S
C807 H794 0.929 . S
C807 C799 1.433 . S
C807 N809 1.384 . S
N808 C804 1.427 1_545 S
N808 C805 1.384 . S
N809 C801 1.427 . S
N809 C807 1.384 . S
H810 C816 0.930 . S
H811 C820 0.930 . S
H812 C825 0.929 . S
H813 C823 0.929 . S
H814 C818 0.929 . S
H815 C824 0.929 . S
C816 H810 0.930 . S
C816 C817 1.367 . S
C816 C824 1.378 . S
C817 C816 1.367 . S
C817 C825 1.433 . S
C818 H814 0.929 . S
C818 C820 1.378 . S
C818 C822 1.350 . S
C819 C822 1.463 . S
C819 C824 1.350 . S
C819 N827 1.427 . S
C820 H811 0.930 . S
C820 C818 1.378 . S
C820 C821 1.367 . S
C821 C820 1.367 . S
C821 C823 1.433 . S
C822 C818 1.350 . S
C822 C819 1.463 . S
C822 N826 1.427 . S
C823 H813 0.929 . S
C823 C821 1.433 . S
C823 N826 1.384 . S
C824 H815 0.929 . S
C824 C816 1.378 . S
C824 C819 1.350 . S
C825 H812 0.929 . S
C825 C817 1.433 . S
C825 N827 1.384 . S
N826 C822 1.427 . S
N826 C823 1.384 . S
N827 C819 1.427 . S
N827 C825 1.384 . S
H828 C834 0.930 . S
H829 C838 0.930 . S
H830 C843 0.929 . S
H831 C841 0.929 1_565 S
H832 C836 0.929 . S
H833 C842 0.929 . S
C834 H828 0.930 . S
C834 C835 1.367 1_565 S
C834 C842 1.378 . S
C835 C834 1.367 1_545 S
C835 C843 1.433 . S
C836 H832 0.929 . S
C836 C838 1.378 . S
C836 C840 1.350 . S
C837 C840 1.463 . S
C837 C842 1.350 1_545 S
C837 N845 1.427 . S
C838 H829 0.930 . S
C838 C836 1.378 . S
C838 C839 1.367 . S
C839 C838 1.367 . S
C839 C841 1.433 . S
C840 C836 1.350 . S
C840 C837 1.463 . S
C840 N844 1.427 . S
C841 H831 0.929 1_545 S
C841 C839 1.433 . S
C841 N844 1.384 . S
C842 H833 0.929 . S
C842 C834 1.378 . S
C842 C837 1.350 1_565 S
C843 H830 0.929 . S
C843 C835 1.433 . S
C843 N845 1.384 . S
N844 C840 1.427 . S
N844 C841 1.384 . S
N845 C837 1.427 . S
N845 C843 1.384 . S
H846 C852 0.930 . S
H847 C856 0.930 . S
H848 C861 0.929 . S
H849 C859 0.929 . S
H850 C854 0.929 . S
H851 C860 0.929 . S
C852 H846 0.930 . S
C852 C853 1.367 . S
C852 C860 1.378 . S
C853 C852 1.367 . S
C853 C861 1.433 . S
C854 H850 0.929 . S
C854 C856 1.378 . S
C854 C858 1.350 . S
C855 C858 1.463 . S
C855 C860 1.350 . S
C855 N863 1.427 . S
C856 H847 0.930 . S
C856 C854 1.378 . S
C856 C857 1.367 . S
C857 C856 1.367 . S
C857 C859 1.433 . S
C858 C854 1.350 . S
C858 C855 1.463 . S
C858 N862 1.427 . S
C859 H849 0.929 . S
C859 C857 1.433 . S
C859 N862 1.384 . S
C860 H851 0.929 . S
C860 C852 1.378 . S
C860 C855 1.350 . S
C861 H848 0.929 . S
C861 C853 1.433 . S
C861 N863 1.384 . S
N862 C858 1.427 . S
N862 C859 1.384 . S
N863 C855 1.427 . S
N863 C861 1.384 . S
H864 C870 0.930 . S
H865 C874 0.930 . S
H866 C879 0.929 . S
H867 C877 0.928 1_565 S
H868 C872 0.929 . S
H869 C878 0.929 . S
C870 H864 0.930 . S
C870 C871 1.367 1_565 S
C870 C878 1.378 . S
C871 C870 1.367 1_545 S
C871 C879 1.433 . S
C872 H868 0.929 . S
C872 C874 1.378 . S
C872 C876 1.350 . S
C873 C876 1.463 . S
C873 C878 1.350 1_545 S
C873 N881 1.427 . S
C874 H865 0.930 . S
C874 C872 1.378 . S
C874 C875 1.367 . S
C875 C874 1.367 . S
C875 C877 1.434 . S
C876 C872 1.350 . S
C876 C873 1.463 . S
C876 N880 1.414 1_545 S
C877 H867 0.928 1_545 S
C877 C875 1.434 . S
C877 N880 1.383 1_545 S
C878 H869 0.929 . S
C878 C870 1.378 . S
C878 C873 1.350 1_565 S
C879 H866 0.929 . S
C879 C871 1.433 . S
C879 N881 1.384 . S
N880 C876 1.414 1_565 S
N880 C877 1.383 1_565 S
N881 C873 1.427 . S
N881 C879 1.384 . S
H882 C888 0.930 . S
H883 C892 0.930 . S
H884 C897 0.929 . S
H885 C895 0.929 . S
H886 C890 0.929 . S
H887 C896 0.929 . S
C888 H882 0.930 . S
C888 C889 1.367 . S
C888 C896 1.378 . S
C889 C888 1.367 . S
C889 C897 1.433 . S
C890 H886 0.929 . S
C890 C892 1.378 . S
C890 C894 1.350 . S
C891 C894 1.463 . S
C891 C896 1.350 . S
C891 N899 1.427 . S
C892 H883 0.930 . S
C892 C890 1.378 . S
C892 C893 1.367 . S
C893 C892 1.367 . S
C893 C895 1.433 . S
C894 C890 1.350 . S
C894 C891 1.463 . S
C894 N898 1.427 . S
C895 H885 0.929 . S
C895 C893 1.433 . S
C895 N898 1.384 . S
C896 H887 0.929 . S
C896 C888 1.378 . S
C896 C891 1.350 . S
C897 H884 0.929 . S
C897 C889 1.433 . S
C897 N899 1.384 . S
N898 C894 1.427 . S
N898 C895 1.384 . S
N899 C891 1.427 . S
N899 C897 1.384 . S
H900 C906 0.930 . S
H901 C910 0.930 . S
H902 C915 0.929 . S
H903 C913 0.929 . S
H904 C908 0.929 . S
H905 C914 0.929 . S
C906 H900 0.930 . S
C906 C907 1.401 . S
C906 C914 1.378 . S
C907 C906 1.401 . S
C907 C915 1.396 1_545 S
C908 H904 0.929 . S
C908 C910 1.378 . S
C908 C912 1.350 . S
C909 C912 1.463 . S
C909 C914 1.350 1_565 S
C909 N917 1.427 . S
C910 H901 0.930 . S
C910 C908 1.378 . S
C910 C911 1.367 . S
C911 C910 1.367 . S
C911 C913 1.433 1_565 S
C912 C908 1.350 . S
C912 C909 1.463 . S
C912 N916 1.427 1_565 S
C913 H903 0.929 . S
C913 C911 1.433 1_545 S
C913 N916 1.384 . S
C914 H905 0.929 . S
C914 C906 1.378 . S
C914 C909 1.350 1_545 S
C915 H902 0.929 . S
C915 C907 1.396 1_565 S
C915 N917 1.384 . S
N916 C912 1.427 1_545 S
N916 C913 1.384 . S
N917 C909 1.427 . S
N917 C915 1.384 . S
H918 C924 0.930 . S
H919 C928 0.930 . S
H920 C933 0.929 . S
H921 C931 0.929 . S
H922 C926 0.929 . S
H923 C932 0.929 . S
C924 H918 0.930 . S
C924 C925 1.367 . S
C924 C932 1.378 . S
C925 C924 1.367 . S
C925 C933 1.433 . S
C926 H922 0.929 . S
C926 C928 1.378 . S
C926 C930 1.350 . S
C927 C930 1.463 . S
C927 C932 1.350 . S
C927 N935 1.427 . S
C928 H919 0.930 . S
C928 C926 1.378 . S
C928 C929 1.367 . S
C929 C928 1.367 . S
C929 C931 1.433 . S
C930 C926 1.350 . S
C930 C927 1.463 . S
C930 N934 1.427 . S
C931 H921 0.929 . S
C931 C929 1.433 . S
C931 N934 1.384 . S
C932 H923 0.929 . S
C932 C924 1.378 . S
C932 C927 1.350 . S
C933 H920 0.929 . S
C933 C925 1.433 . S
C933 N935 1.384 . S
N934 C930 1.427 . S
N934 C931 1.384 . S
N935 C927 1.427 . S
N935 C933 1.384 . S
H936 C942 0.930 . S
H937 C946 0.930 . S
H938 C951 0.929 . S
H939 C949 0.929 . S
H940 C944 0.929 . S
H941 C950 0.929 . S
C942 H936 0.930 . S
C942 C943 1.378 . S
C942 C950 1.378 . S
C943 C942 1.378 . S
C943 C951 1.421 1_554 S
C944 H940 0.929 . S
C944 C946 1.378 . S
C944 C948 1.350 . S
C945 C948 1.463 . S
C945 C950 1.350 1_556 S
C945 N953 1.427 . S
C946 H937 0.930 . S
C946 C944 1.378 . S
C946 C947 1.367 . S
C947 C946 1.367 . S
C947 C949 1.433 1_556 S
C948 C944 1.350 . S
C948 C945 1.463 . S
C948 N952 1.427 1_556 S
C949 H939 0.929 . S
C949 C947 1.433 1_554 S
C949 N952 1.384 . S
C950 H941 0.929 . S
C950 C942 1.378 . S
C950 C945 1.350 1_554 S
C951 H938 0.929 . S
C951 C943 1.421 1_556 S
C951 N953 1.384 . S
N952 C948 1.427 1_554 S
N952 C949 1.384 . S
N953 C945 1.427 . S
N953 C951 1.384 . S
H954 C960 0.930 . S
H955 C964 0.930 . S
H956 C969 0.929 . S
H957 C967 0.929 . S
H958 C962 0.929 . S
H959 C968 0.929 . S
C960 H954 0.930 . S
C960 C961 1.367 1_556 S
C960 C968 1.378 . S
C961 C960 1.367 1_554 S
C961 C969 1.433 . S
C962 H958 0.929 . S
C962 C964 1.378 . S
C962 C966 1.350 . S
C963 C966 1.463 . S
C963 C968 1.350 1_554 S
C963 N971 1.427 . S
C964 H955 0.930 . S
C964 C962 1.378 . S
C964 C965 1.367 . S
C965 C964 1.367 . S
C965 C967 1.433 1_554 S
C966 C962 1.350 . S
C966 C963 1.463 . S
C966 N970 1.427 1_554 S
C967 H957 0.929 . S
C967 C965 1.433 1_556 S
C967 N970 1.384 . S
C968 H959 0.929 . S
C968 C960 1.378 . S
C968 C963 1.350 1_556 S
C969 H956 0.929 . S
C969 C961 1.433 . S
C969 N971 1.384 . S
N970 C966 1.427 1_556 S
N970 C967 1.384 . S
N971 C963 1.427 . S
N971 C969 1.384 . S
H972 C978 0.930 . S
H973 C982 0.930 . S
H974 C987 0.929 . S
H975 C985 0.929 . S
H976 C980 0.929 . S
H977 C986 0.929 . S
C978 H972 0.930 . S
C978 C979 1.367 . S
C978 C986 1.378 . S
C979 C978 1.367 . S
C979 C987 1.433 . S
C980 H976 0.929 . S
C980 C982 1.378 . S
C980 C984 1.350 . S
C981 C984 1.463 . S
C981 C986 1.350 . S
C981 N989 1.427 . S
C982 H973 0.930 . S
C982 C980 1.378 . S
C982 C983 1.367 . S
C983 C982 1.367 . S
C983 C985 1.433 . S
C984 C980 1.350 . S
C984 C981 1.463 . S
C984 N988 1.427 . S
C985 H975 0.929 . S
C985 C983 1.433 . S
C985 N988 1.384 . S
C986 H977 0.929 . S
C986 C978 1.378 . S
C986 C981 1.350 . S
C987 H974 0.929 . S
C987 C979 1.433 . S
C987 N989 1.384 . S
N988 C984 1.427 . S
N988 C985 1.384 . S
N989 C981 1.427 . S
N989 C987 1.384 . S
H990 C996 0.930 . S
H991 C1000 0.930 . S
H992 C1005 0.929 . S
H993 C1003 0.929 . S
H994 C998 0.929 . S
H995 C1004 0.929 . S
C996 H990 0.930 . S
C996 C997 1.367 . S
C996 C1004 1.378 . S
C997 C996 1.367 . S
C997 C1005 1.433 . S
C998 H994 0.929 . S
C998 C1000 1.378 . S
C998 C1002 1.350 . S
C999 C1002 1.463 . S
C999 C1004 1.350 . S
C999 N1007 1.427 . S
C1000 H991 0.930 . S
C1000 C998 1.378 . S
C1000 C1001 1.367 . S
C1001 C1000 1.367 . S
C1001 C1003 1.433 . S
C1002 C998 1.350 . S
C1002 C999 1.463 . S
C1002 N1006 1.427 . S
C1003 H993 0.929 . S
C1003 C1001 1.433 . S
C1003 N1006 1.384 . S
C1004 H995 0.929 . S
C1004 C996 1.378 . S
C1004 C999 1.350 . S
C1005 H992 0.929 . S
C1005 C997 1.433 . S
C1005 N1007 1.384 . S
N1006 C1002 1.427 . S
N1006 C1003 1.384 . S
N1007 C999 1.427 . S
N1007 C1005 1.384 . S
H1008 C1014 0.930 . S
H1009 C1018 0.930 . S
H1010 C1023 0.929 . S
H1011 C1021 0.929 . S
H1012 C1016 0.929 . S
H1013 C1022 0.929 . S
C1014 H1008 0.930 . S
C1014 C1015 1.367 . S
C1014 C1022 1.378 . S
C1015 C1014 1.367 . S
C1015 C1023 1.433 . S
C1016 H1012 0.929 . S
C1016 C1018 1.378 . S
C1016 C1020 1.350 . S
C1017 C1020 1.463 . S
C1017 C1022 1.350 . S
C1017 N1025 1.427 . S
C1018 H1009 0.930 . S
C1018 C1016 1.378 . S
C1018 C1019 1.367 . S
C1019 C1018 1.367 . S
C1019 C1021 1.433 . S
C1020 C1016 1.350 . S
C1020 C1017 1.463 . S
C1020 N1024 1.427 . S
C1021 H1011 0.929 . S
C1021 C1019 1.433 . S
C1021 N1024 1.384 . S
C1022 H1013 0.929 . S
C1022 C1014 1.378 . S
C1022 C1017 1.350 . S
C1023 H1010 0.929 . S
C1023 C1015 1.433 . S
C1023 N1025 1.384 . S
N1024 C1020 1.427 . S
N1024 C1021 1.384 . S
N1025 C1017 1.427 . S
N1025 C1023 1.384 . S
H1026 C1032 0.930 . S
H1027 C1036 0.930 . S
H1028 C1041 0.929 . S
H1029 C1039 0.929 . S
H1030 C1034 0.929 . S
H1031 C1040 0.929 . S
C1032 H1026 0.930 . S
C1032 C1033 1.367 . S
C1032 C1040 1.378 . S
C1033 C1032 1.367 . S
C1033 C1041 1.433 . S
C1034 H1030 0.929 . S
C1034 C1036 1.378 . S
C1034 C1038 1.350 . S
C1035 C1038 1.463 . S
C1035 C1040 1.350 . S
C1035 N1043 1.427 . S
C1036 H1027 0.930 . S
C1036 C1034 1.378 . S
C1036 C1037 1.367 . S
C1037 C1036 1.367 . S
C1037 C1039 1.433 . S
C1038 C1034 1.350 . S
C1038 C1035 1.463 . S
C1038 N1042 1.427 . S
C1039 H1029 0.929 . S
C1039 C1037 1.433 . S
C1039 N1042 1.384 . S
C1040 H1031 0.929 . S
C1040 C1032 1.378 . S
C1040 C1035 1.350 . S
C1041 H1028 0.929 . S
C1041 C1033 1.433 . S
C1041 N1043 1.384 . S
N1042 C1038 1.427 . S
N1042 C1039 1.384 . S
N1043 C1035 1.427 . S
N1043 C1041 1.384 . S
H1044 C1050 0.930 . S
H1045 C1054 0.930 . S
H1046 C1059 0.929 . S
H1047 C1057 0.929 . S
H1048 C1052 0.929 . S
H1049 C1058 0.929 . S
C1050 H1044 0.930 . S
C1050 C1051 1.367 . S
C1050 C1058 1.378 . S
C1051 C1050 1.367 . S
C1051 C1059 1.433 . S
C1052 H1048 0.929 . S
C1052 C1054 1.378 . S
C1052 C1056 1.350 . S
C1053 C1056 1.463 . S
C1053 C1058 1.350 . S
C1053 N1061 1.427 . S
C1054 H1045 0.930 . S
C1054 C1052 1.378 . S
C1054 C1055 1.367 . S
C1055 C1054 1.367 . S
C1055 C1057 1.433 . S
C1056 C1052 1.350 . S
C1056 C1053 1.463 . S
C1056 N1060 1.427 . S
C1057 H1047 0.929 . S
C1057 C1055 1.433 . S
C1057 N1060 1.384 . S
C1058 H1049 0.929 . S
C1058 C1050 1.378 . S
C1058 C1053 1.350 . S
C1059 H1046 0.929 . S
C1059 C1051 1.433 . S
C1059 N1061 1.384 . S
N1060 C1056 1.427 . S
N1060 C1057 1.384 . S
N1061 C1053 1.427 . S
N1061 C1059 1.384 . S
H1062 C1068 0.930 . S
H1063 C1072 0.930 . S
H1064 C1077 0.929 . S
H1065 C1075 0.929 . S
H1066 C1070 0.929 . S
H1067 C1076 0.929 . S
C1068 H1062 0.930 . S
C1068 C1069 1.367 . S
C1068 C1076 1.378 . S
C1069 C1068 1.367 . S
C1069 C1077 1.433 . S
C1070 H1066 0.929 . S
C1070 C1072 1.378 . S
C1070 C1074 1.350 . S
C1071 C1074 1.463 . S
C1071 C1076 1.350 . S
C1071 N1079 1.427 . S
C1072 H1063 0.930 . S
C1072 C1070 1.378 . S
C1072 C1073 1.367 . S
C1073 C1072 1.367 . S
C1073 C1075 1.433 . S
C1074 C1070 1.350 . S
C1074 C1071 1.463 . S
C1074 N1078 1.427 . S
C1075 H1065 0.929 . S
C1075 C1073 1.433 . S
C1075 N1078 1.384 . S
C1076 H1067 0.929 . S
C1076 C1068 1.378 . S
C1076 C1071 1.350 . S
C1077 H1064 0.929 . S
C1077 C1069 1.433 . S
C1077 N1079 1.384 . S
N1078 C1074 1.427 . S
N1078 C1075 1.384 . S
N1079 C1071 1.427 . S
N1079 C1077 1.384 . S
H1080 C1086 0.930 . S
H1081 C1090 0.930 . S
H1082 C1095 0.929 . S
H1083 C1093 0.929 . S
H1084 C1088 0.929 . S
H1085 C1094 0.929 . S
C1086 H1080 0.930 . S
C1086 C1087 1.367 1_655 S
C1086 C1094 1.378 . S
C1087 C1086 1.367 1_455 S
C1087 C1095 1.433 . S
C1088 H1084 0.929 . S
C1088 C1090 1.378 . S
C1088 C1092 1.350 . S
C1089 C1092 1.463 . S
C1089 C1094 1.350 1_455 S
C1089 N1097 1.427 . S
C1090 H1081 0.930 . S
C1090 C1088 1.378 . S
C1090 C1091 1.367 . S
C1091 C1090 1.367 . S
C1091 C1093 1.433 1_455 S
C1092 C1088 1.350 . S
C1092 C1089 1.463 . S
C1092 N1096 1.427 1_455 S
C1093 H1083 0.929 . S
C1093 C1091 1.433 1_655 S
C1093 N1096 1.384 . S
C1094 H1085 0.929 . S
C1094 C1086 1.378 . S
C1094 C1089 1.350 1_655 S
C1095 H1082 0.929 . S
C1095 C1087 1.433 . S
C1095 N1097 1.384 . S
N1096 C1092 1.427 1_655 S
N1096 C1093 1.384 . S
N1097 C1089 1.427 . S
N1097 C1095 1.384 . S
H1098 C1104 0.930 . S
H1099 C1108 0.930 . S
H1100 C1113 0.929 . S
H1101 C1111 0.929 . S
H1102 C1106 0.929 . S
H1103 C1112 0.929 . S
C1104 H1098 0.930 . S
C1104 C1105 1.367 . S
C1104 C1112 1.378 . S
C1105 C1104 1.367 . S
C1105 C1113 1.433 . S
C1106 H1102 0.929 . S
C1106 C1108 1.378 . S
C1106 C1110 1.350 . S
C1107 C1110 1.463 . S
C1107 C1112 1.350 . S
C1107 N1115 1.427 . S
C1108 H1099 0.930 . S
C1108 C1106 1.378 . S
C1108 C1109 1.367 . S
C1109 C1108 1.367 . S
C1109 C1111 1.433 . S
C1110 C1106 1.350 . S
C1110 C1107 1.463 . S
C1110 N1114 1.427 . S
C1111 H1101 0.929 . S
C1111 C1109 1.433 . S
C1111 N1114 1.384 . S
C1112 H1103 0.929 . S
C1112 C1104 1.378 . S
C1112 C1107 1.350 . S
C1113 H1100 0.929 . S
C1113 C1105 1.433 . S
C1113 N1115 1.384 . S
N1114 C1110 1.427 . S
N1114 C1111 1.384 . S
N1115 C1107 1.427 . S
N1115 C1113 1.384 . S
H1116 C1122 0.930 . S
H1117 C1126 0.930 . S
H1118 C1131 0.929 . S
H1119 C1129 0.929 . S
H1120 C1124 0.929 . S
H1121 C1130 0.929 . S
C1122 H1116 0.930 . S
C1122 C1123 1.367 . S
C1122 C1130 1.378 . S
C1123 C1122 1.367 . S
C1123 C1131 1.433 . S
C1124 H1120 0.929 . S
C1124 C1126 1.378 . S
C1124 C1128 1.350 . S
C1125 C1128 1.463 . S
C1125 C1130 1.350 . S
C1125 N1133 1.427 . S
C1126 H1117 0.930 . S
C1126 C1124 1.378 . S
C1126 C1127 1.367 . S
C1127 C1126 1.367 . S
C1127 C1129 1.433 . S
C1128 C1124 1.350 . S
C1128 C1125 1.463 . S
C1128 N1132 1.427 . S
C1129 H1119 0.929 . S
C1129 C1127 1.433 . S
C1129 N1132 1.384 . S
C1130 H1121 0.929 . S
C1130 C1122 1.378 . S
C1130 C1125 1.350 . S
C1131 H1118 0.929 . S
C1131 C1123 1.433 . S
C1131 N1133 1.384 . S
N1132 C1128 1.427 . S
N1132 C1129 1.384 . S
N1133 C1125 1.427 . S
N1133 C1131 1.384 . S
H1134 C1140 0.930 . S
H1135 C1144 0.930 . S
H1136 C1149 0.929 . S
H1137 C1147 0.929 . S
H1138 C1142 0.929 . S
H1139 C1148 0.929 . S
C1140 H1134 0.930 . S
C1140 C1141 1.367 . S
C1140 C1148 1.378 . S
C1141 C1140 1.367 . S
C1141 C1149 1.433 . S
C1142 H1138 0.929 . S
C1142 C1144 1.378 . S
C1142 C1146 1.350 . S
C1143 C1146 1.463 . S
C1143 C1148 1.350 . S
C1143 N1151 1.427 . S
C1144 H1135 0.930 . S
C1144 C1142 1.378 . S
C1144 C1145 1.367 . S
C1145 C1144 1.367 . S
C1145 C1147 1.433 . S
C1146 C1142 1.350 . S
C1146 C1143 1.463 . S
C1146 N1150 1.427 . S
C1147 H1137 0.929 . S
C1147 C1145 1.433 . S
C1147 N1150 1.384 . S
C1148 H1139 0.929 . S
C1148 C1140 1.378 . S
C1148 C1143 1.350 . S
C1149 H1136 0.929 . S
C1149 C1141 1.433 . S
C1149 N1151 1.384 . S
N1150 C1146 1.427 . S
N1150 C1147 1.384 . S
N1151 C1143 1.427 . S
N1151 C1149 1.384 . S
H1152 C1158 0.930 . S
H1153 C1162 0.930 . S
H1154 C1167 0.929 . S
H1155 C1165 0.929 . S
H1156 C1160 0.929 . S
H1157 C1166 0.939 . S
C1158 H1152 0.930 . S
C1158 C1159 1.367 1_655 S
C1158 C1166 1.383 . S
C1159 C1158 1.367 1_455 S
C1159 C1167 1.433 . S
C1160 H1156 0.929 . S
C1160 C1162 1.378 . S
C1160 C1164 1.350 . S
C1161 C1164 1.463 . S
C1161 C1166 1.337 1_455 S
C1161 N1169 1.427 . S
C1162 H1153 0.930 . S
C1162 C1160 1.378 . S
C1162 C1163 1.367 . S
C1163 C1162 1.367 . S
C1163 C1165 1.433 . S
C1164 C1160 1.350 . S
C1164 C1161 1.463 . S
C1164 N1168 1.427 . S
C1165 H1155 0.929 . S
C1165 C1163 1.433 . S
C1165 N1168 1.384 . S
C1166 H1157 0.939 . S
C1166 C1158 1.383 . S
C1166 C1161 1.337 1_655 S
C1167 H1154 0.929 . S
C1167 C1159 1.433 . S
C1167 N1169 1.384 . S
N1168 C1164 1.427 . S
N1168 C1165 1.384 . S
N1169 C1161 1.427 . S
N1169 C1167 1.384 . S
H1170 C1176 0.930 . S
H1171 C1180 0.930 . S
H1172 C1185 0.929 . S
H1173 C1183 0.929 . S
H1174 C1178 0.929 . S
H1175 C1184 0.929 . S
C1176 H1170 0.930 . S
C1176 C1177 1.367 . S
C1176 C1184 1.378 . S
C1177 C1176 1.367 . S
C1177 C1185 1.433 . S
C1178 H1174 0.929 . S
C1178 C1180 1.378 . S
C1178 C1182 1.350 . S
C1179 C1182 1.463 . S
C1179 C1184 1.350 . S
C1179 N1187 1.427 . S
C1180 H1171 0.930 . S
C1180 C1178 1.378 . S
C1180 C1181 1.367 . S
C1181 C1180 1.367 . S
C1181 C1183 1.433 . S
C1182 C1178 1.350 . S
C1182 C1179 1.463 . S
C1182 N1186 1.427 . S
C1183 H1173 0.929 . S
C1183 C1181 1.433 . S
C1183 N1186 1.384 . S
C1184 H1175 0.929 . S
C1184 C1176 1.378 . S
C1184 C1179 1.350 . S
C1185 H1172 0.929 . S
C1185 C1177 1.433 . S
C1185 N1187 1.384 . S
N1186 C1182 1.427 . S
N1186 C1183 1.384 . S
N1187 C1179 1.427 . S
N1187 C1185 1.384 . S
H1188 C1194 0.930 . S
H1189 C1198 0.930 . S
H1190 C1203 0.929 . S
H1191 C1201 0.929 . S
H1192 C1196 0.929 . S
H1193 C1202 0.929 . S
C1194 H1188 0.930 . S
C1194 C1195 1.367 . S
C1194 C1202 1.378 . S
C1195 C1194 1.367 . S
C1195 C1203 1.433 . S
C1196 H1192 0.929 . S
C1196 C1198 1.378 . S
C1196 C1200 1.350 . S
C1197 C1200 1.463 . S
C1197 C1202 1.350 . S
C1197 N1205 1.427 . S
C1198 H1189 0.930 . S
C1198 C1196 1.378 . S
C1198 C1199 1.367 . S
C1199 C1198 1.367 . S
C1199 C1201 1.433 . S
C1200 C1196 1.350 . S
C1200 C1197 1.463 . S
C1200 N1204 1.427 . S
C1201 H1191 0.929 . S
C1201 C1199 1.433 . S
C1201 N1204 1.384 . S
C1202 H1193 0.929 . S
C1202 C1194 1.378 . S
C1202 C1197 1.350 . S
C1203 H1190 0.929 . S
C1203 C1195 1.433 . S
C1203 N1205 1.384 . S
N1204 C1200 1.427 . S
N1204 C1201 1.384 . S
N1205 C1197 1.427 . S
N1205 C1203 1.384 . S
H1206 C1212 0.930 . S
H1207 C1216 0.930 . S
H1208 C1221 0.929 . S
H1209 C1219 0.929 . S
H1210 C1214 0.929 . S
H1211 C1220 0.929 . S
C1212 H1206 0.930 . S
C1212 C1213 1.367 . S
C1212 C1220 1.378 . S
C1213 C1212 1.367 . S
C1213 C1221 1.433 . S
C1214 H1210 0.929 . S
C1214 C1216 1.378 . S
C1214 C1218 1.350 . S
C1215 C1218 1.463 . S
C1215 C1220 1.350 . S
C1215 N1223 1.427 . S
C1216 H1207 0.930 . S
C1216 C1214 1.378 . S
C1216 C1217 1.367 . S
C1217 C1216 1.367 . S
C1217 C1219 1.433 . S
C1218 C1214 1.350 . S
C1218 C1215 1.463 . S
C1218 N1222 1.427 . S
C1219 H1209 0.929 . S
C1219 C1217 1.433 . S
C1219 N1222 1.384 . S
C1220 H1211 0.929 . S
C1220 C1212 1.378 . S
C1220 C1215 1.350 . S
C1221 H1208 0.929 . S
C1221 C1213 1.433 . S
C1221 N1223 1.384 . S
N1222 C1218 1.427 . S
N1222 C1219 1.384 . S
N1223 C1215 1.427 . S
N1223 C1221 1.384 . S
H1224 C1230 0.930 . S
H1225 C1234 0.930 . S
H1226 C1239 0.929 . S
H1227 C1237 0.929 . S
H1228 C1232 0.929 . S
H1229 C1238 0.929 . S
C1230 H1224 0.930 . S
C1230 C1231 1.367 1_545 S
C1230 C1238 1.378 . S
C1231 C1230 1.367 1_565 S
C1231 C1239 1.433 . S
C1232 H1228 0.929 . S
C1232 C1234 1.378 . S
C1232 C1236 1.350 1_565 S
C1233 C1236 1.463 . S
C1233 C1238 1.350 . S
C1233 N1241 1.427 1_545 S
C1234 H1225 0.930 . S
C1234 C1232 1.378 . S
C1234 C1235 1.367 1_565 S
C1235 C1234 1.367 1_545 S
C1235 C1237 1.433 . S
C1236 C1232 1.350 1_545 S
C1236 C1233 1.463 . S
C1236 N1240 1.427 . S
C1237 H1227 0.929 . S
C1237 C1235 1.433 . S
C1237 N1240 1.384 . S
C1238 H1229 0.929 . S
C1238 C1230 1.378 . S
C1238 C1233 1.350 . S
C1239 H1226 0.929 . S
C1239 C1231 1.433 . S
C1239 N1241 1.384 . S
N1240 C1236 1.427 . S
N1240 C1237 1.384 . S
N1241 C1233 1.427 1_565 S
N1241 C1239 1.384 . S
H1242 C1248 0.930 . S
H1243 C1252 0.930 . S
H1244 C1257 0.929 . S
H1245 C1255 0.929 . S
H1246 C1250 0.929 . S
H1247 C1256 0.929 . S
C1248 H1242 0.930 . S
C1248 C1249 1.367 . S
C1248 C1256 1.378 . S
C1249 C1248 1.367 . S
C1249 C1257 1.433 . S
C1250 H1246 0.929 . S
C1250 C1252 1.378 . S
C1250 C1254 1.350 . S
C1251 C1254 1.463 . S
C1251 C1256 1.350 . S
C1251 N1259 1.427 . S
C1252 H1243 0.930 . S
C1252 C1250 1.378 . S
C1252 C1253 1.367 . S
C1253 C1252 1.367 . S
C1253 C1255 1.433 . S
C1254 C1250 1.350 . S
C1254 C1251 1.463 . S
C1254 N1258 1.427 . S
C1255 H1245 0.929 . S
C1255 C1253 1.433 . S
C1255 N1258 1.384 . S
C1256 H1247 0.929 . S
C1256 C1248 1.378 . S
C1256 C1251 1.350 . S
C1257 H1244 0.929 . S
C1257 C1249 1.433 . S
C1257 N1259 1.384 . S
N1258 C1254 1.427 . S
N1258 C1255 1.384 . S
N1259 C1251 1.427 . S
N1259 C1257 1.384 . S
H1260 C1266 0.930 . S
H1261 C1270 0.930 . S
H1262 C1275 0.929 . S
H1263 C1273 0.929 . S
H1264 C1268 0.929 . S
H1265 C1274 0.929 . S
C1266 H1260 0.930 . S
C1266 C1267 1.367 . S
C1266 C1274 1.378 . S
C1267 C1266 1.367 . S
C1267 C1275 1.433 1_545 S
C1268 H1264 0.929 . S
C1268 C1270 1.378 . S
C1268 C1272 1.350 1_565 S
C1269 C1272 1.463 . S
C1269 C1274 1.350 . S
C1269 N1277 1.427 1_545 S
C1270 H1261 0.930 . S
C1270 C1268 1.378 . S
C1270 C1271 1.367 1_565 S
C1271 C1270 1.367 1_545 S
C1271 C1273 1.433 . S
C1272 C1268 1.350 1_545 S
C1272 C1269 1.463 . S
C1272 N1276 1.427 . S
C1273 H1263 0.929 . S
C1273 C1271 1.433 . S
C1273 N1276 1.384 . S
C1274 H1265 0.929 . S
C1274 C1266 1.378 . S
C1274 C1269 1.350 . S
C1275 H1262 0.929 . S
C1275 C1267 1.433 1_565 S
C1275 N1277 1.384 . S
N1276 C1272 1.427 . S
N1276 C1273 1.384 . S
N1277 C1269 1.427 1_565 S
N1277 C1275 1.384 . S
H1278 C1284 0.930 . S
H1279 C1288 0.930 . S
H1280 C1293 0.929 . S
H1281 C1291 0.929 . S
H1282 C1286 0.929 . S
H1283 C1292 0.929 . S
C1284 H1278 0.930 . S
C1284 C1285 1.367 . S
C1284 C1292 1.378 . S
C1285 C1284 1.367 . S
C1285 C1293 1.433 . S
C1286 H1282 0.929 . S
C1286 C1288 1.378 . S
C1286 C1290 1.350 . S
C1287 C1290 1.463 . S
C1287 C1292 1.350 . S
C1287 N1295 1.427 . S
C1288 H1279 0.930 . S
C1288 C1286 1.378 . S
C1288 C1289 1.367 . S
C1289 C1288 1.367 . S
C1289 C1291 1.433 . S
C1290 C1286 1.350 . S
C1290 C1287 1.463 . S
C1290 N1294 1.427 . S
C1291 H1281 0.929 . S
C1291 C1289 1.433 . S
C1291 N1294 1.384 . S
C1292 H1283 0.929 . S
C1292 C1284 1.378 . S
C1292 C1287 1.350 . S
C1293 H1280 0.929 . S
C1293 C1285 1.433 . S
C1293 N1295 1.384 . S
N1294 C1290 1.427 . S
N1294 C1291 1.384 . S
N1295 C1287 1.427 . S
N1295 C1293 1.384 . S
H1296 C1302 0.930 . S
H1297 C1306 0.930 . S
H1298 C1311 0.929 . S
H1299 C1309 0.929 . S
H1300 C1304 0.929 . S
H1301 C1310 0.929 . S
C1302 H1296 0.930 . S
C1302 C1303 1.367 1_565 S
C1302 C1310 1.378 . S
C1303 C1302 1.367 1_545 S
C1303 C1311 1.433 . S
C1304 H1300 0.929 . S
C1304 C1306 1.378 . S
C1304 C1308 1.350 . S
C1305 C1308 1.463 . S
C1305 C1310 1.350 1_545 S
C1305 N1313 1.427 . S
C1306 H1297 0.930 . S
C1306 C1304 1.378 . S
C1306 C1307 1.367 1_545 S
C1307 C1306 1.367 1_565 S
C1307 C1309 1.433 . S
C1308 C1304 1.350 . S
C1308 C1305 1.463 . S
C1308 N1312 1.427 1_545 S
C1309 H1299 0.929 . S
C1309 C1307 1.433 . S
C1309 N1312 1.384 . S
C1310 H1301 0.929 . S
C1310 C1302 1.378 . S
C1310 C1305 1.350 1_565 S
C1311 H1298 0.929 . S
C1311 C1303 1.433 . S
C1311 N1313 1.384 . S
N1312 C1308 1.427 1_565 S
N1312 C1309 1.384 . S
N1313 C1305 1.427 . S
N1313 C1311 1.384 . S
H1314 C1320 0.930 . S
H1315 C1324 0.930 . S
H1316 C1329 0.929 . S
H1317 C1327 0.929 . S
H1318 C1322 0.929 . S
H1319 C1328 0.929 . S
C1320 H1314 0.930 . S
C1320 C1321 1.367 . S
C1320 C1328 1.378 . S
C1321 C1320 1.367 . S
C1321 C1329 1.433 . S
C1322 H1318 0.929 . S
C1322 C1324 1.378 . S
C1322 C1326 1.350 . S
C1323 C1326 1.463 . S
C1323 C1328 1.350 . S
C1323 N1331 1.427 . S
C1324 H1315 0.930 . S
C1324 C1322 1.378 . S
C1324 C1325 1.367 . S
C1325 C1324 1.367 . S
C1325 C1327 1.433 . S
C1326 C1322 1.350 . S
C1326 C1323 1.463 . S
C1326 N1330 1.427 . S
C1327 H1317 0.929 . S
C1327 C1325 1.433 . S
C1327 N1330 1.384 . S
C1328 H1319 0.929 . S
C1328 C1320 1.378 . S
C1328 C1323 1.350 . S
C1329 H1316 0.929 . S
C1329 C1321 1.433 . S
C1329 N1331 1.384 . S
N1330 C1326 1.427 . S
N1330 C1327 1.384 . S
N1331 C1323 1.427 . S
N1331 C1329 1.384 . S
H1332 C1338 0.930 . S
H1333 C1342 0.930 . S
H1334 C1347 0.929 . S
H1335 C1345 0.929 . S
H1336 C1340 0.929 . S
H1337 C1346 0.929 . S
C1338 H1332 0.930 . S
C1338 C1339 1.393 . S
C1338 C1346 1.378 . S
C1339 C1338 1.393 . S
C1339 C1347 1.411 1_545 S
C1340 H1336 0.929 . S
C1340 C1342 1.378 . S
C1340 C1344 1.350 1_565 S
C1341 C1344 1.463 . S
C1341 C1346 1.350 . S
C1341 N1349 1.427 1_545 S
C1342 H1333 0.930 . S
C1342 C1340 1.378 . S
C1342 C1343 1.367 1_565 S
C1343 C1342 1.367 1_545 S
C1343 C1345 1.433 . S
C1344 C1340 1.350 1_545 S
C1344 C1341 1.463 . S
C1344 N1348 1.427 . S
C1345 H1335 0.929 . S
C1345 C1343 1.433 . S
C1345 N1348 1.384 . S
C1346 H1337 0.929 . S
C1346 C1338 1.378 . S
C1346 C1341 1.350 . S
C1347 H1334 0.929 . S
C1347 C1339 1.411 1_565 S
C1347 N1349 1.384 . S
N1348 C1344 1.427 . S
N1348 C1345 1.384 . S
N1349 C1341 1.427 1_565 S
N1349 C1347 1.384 . S
H1350 C1356 0.930 . S
H1351 C1360 0.930 . S
H1352 C1365 0.929 . S
H1353 C1363 0.929 . S
H1354 C1358 0.929 . S
H1355 C1364 0.929 . S
C1356 H1350 0.930 . S
C1356 C1357 1.367 . S
C1356 C1364 1.378 . S
C1357 C1356 1.367 . S
C1357 C1365 1.433 . S
C1358 H1354 0.929 . S
C1358 C1360 1.378 . S
C1358 C1362 1.350 . S
C1359 C1362 1.463 . S
C1359 C1364 1.350 . S
C1359 N1367 1.427 . S
C1360 H1351 0.930 . S
C1360 C1358 1.378 . S
C1360 C1361 1.367 . S
C1361 C1360 1.367 . S
C1361 C1363 1.433 . S
C1362 C1358 1.350 . S
C1362 C1359 1.463 . S
C1362 N1366 1.427 . S
C1363 H1353 0.929 . S
C1363 C1361 1.433 . S
C1363 N1366 1.384 . S
C1364 H1355 0.929 . S
C1364 C1356 1.378 . S
C1364 C1359 1.350 . S
C1365 H1352 0.929 . S
C1365 C1357 1.433 . S
C1365 N1367 1.384 . S
N1366 C1362 1.427 . S
N1366 C1363 1.384 . S
N1367 C1359 1.427 . S
N1367 C1365 1.384 . S
H1368 C1374 0.930 . S
H1369 C1378 0.930 . S
H1370 C1383 0.929 . S
H1371 C1381 0.929 1_556 S
H1372 C1376 0.929 . S
H1373 C1382 0.929 . S
C1374 H1368 0.930 . S
C1374 C1375 1.367 1_556 S
C1374 C1382 1.378 . S
C1375 C1374 1.367 1_554 S
C1375 C1383 1.433 . S
C1376 H1372 0.929 . S
C1376 C1378 1.378 . S
C1376 C1380 1.350 . S
C1377 C1380 1.463 . S
C1377 C1382 1.350 1_554 S
C1377 N1385 1.427 . S
C1378 H1369 0.930 . S
C1378 C1376 1.378 . S
C1378 C1379 1.367 . S
C1379 C1378 1.367 . S
C1379 C1381 1.433 . S
C1380 C1376 1.350 . S
C1380 C1377 1.463 . S
C1380 N1384 1.425 1_554 S
C1381 H1371 0.929 1_554 S
C1381 C1379 1.433 . S
C1381 N1384 1.383 1_554 S
C1382 H1373 0.929 . S
C1382 C1374 1.378 . S
C1382 C1377 1.350 1_556 S
C1383 H1370 0.929 . S
C1383 C1375 1.433 . S
C1383 N1385 1.384 . S
N1384 C1380 1.425 1_556 S
N1384 C1381 1.383 1_556 S
N1385 C1377 1.427 . S
N1385 C1383 1.384 . S
H1386 C1392 0.930 . S
H1387 C1396 0.930 . S
H1388 C1401 0.939 . S
H1389 C1399 0.929 . S
H1390 C1394 0.929 . S
H1391 C1400 0.929 . S
C1392 H1386 0.930 . S
C1392 C1393 1.367 . S
C1392 C1400 1.378 . S
C1393 C1392 1.367 . S
C1393 C1401 1.422 1_554 S
C1394 H1390 0.929 . S
C1394 C1396 1.378 . S
C1394 C1398 1.350 1_556 S
C1395 C1398 1.463 . S
C1395 C1400 1.350 . S
C1395 N1403 1.427 1_554 S
C1396 H1387 0.930 . S
C1396 C1394 1.378 . S
C1396 C1397 1.360 1_556 S
C1397 C1396 1.360 1_554 S
C1397 C1399 1.441 . S
C1398 C1394 1.350 1_554 S
C1398 C1395 1.463 . S
C1398 N1402 1.427 . S
C1399 H1389 0.929 . S
C1399 C1397 1.441 . S
C1399 N1402 1.384 . S
C1400 H1391 0.929 . S
C1400 C1392 1.378 . S
C1400 C1395 1.350 . S
C1401 H1388 0.939 . S
C1401 C1393 1.422 1_556 S
C1401 N1403 1.386 . S
N1402 C1398 1.427 . S
N1402 C1399 1.384 . S
N1403 C1395 1.427 1_556 S
N1403 C1401 1.386 . S
H1404 C1410 0.930 . S
H1405 C1414 0.930 . S
H1406 C1419 0.929 . S
H1407 C1417 0.929 . S
H1408 C1412 0.929 . S
H1409 C1418 0.929 . S
C1410 H1404 0.930 . S
C1410 C1411 1.367 . S
C1410 C1418 1.378 . S
C1411 C1410 1.367 . S
C1411 C1419 1.433 . S
C1412 H1408 0.929 . S
C1412 C1414 1.378 . S
C1412 C1416 1.350 . S
C1413 C1416 1.463 . S
C1413 C1418 1.350 . S
C1413 N1421 1.427 . S
C1414 H1405 0.930 . S
C1414 C1412 1.378 . S
C1414 C1415 1.367 . S
C1415 C1414 1.367 . S
C1415 C1417 1.433 . S
C1416 C1412 1.350 . S
C1416 C1413 1.463 . S
C1416 N1420 1.427 . S
C1417 H1407 0.929 . S
C1417 C1415 1.433 . S
C1417 N1420 1.384 . S
C1418 H1409 0.929 . S
C1418 C1410 1.378 . S
C1418 C1413 1.350 . S
C1419 H1406 0.929 . S
C1419 C1411 1.433 . S
C1419 N1421 1.384 . S
N1420 C1416 1.427 . S
N1420 C1417 1.384 . S
N1421 C1413 1.427 . S
N1421 C1419 1.384 . S
H1422 C1428 0.930 . S
H1423 C1432 0.930 . S
H1424 C1437 0.929 . S
H1425 C1435 0.929 . S
H1426 C1430 0.929 . S
H1427 C1436 0.929 . S
C1428 H1422 0.930 . S
C1428 C1429 1.367 . S
C1428 C1436 1.378 . S
C1429 C1428 1.367 . S
C1429 C1437 1.433 . S
C1430 H1426 0.929 . S
C1430 C1432 1.378 . S
C1430 C1434 1.350 . S
C1431 C1434 1.463 . S
C1431 C1436 1.350 . S
C1431 N1439 1.427 . S
C1432 H1423 0.930 . S
C1432 C1430 1.378 . S
C1432 C1433 1.367 . S
C1433 C1432 1.367 . S
C1433 C1435 1.433 . S
C1434 C1430 1.350 . S
C1434 C1431 1.463 . S
C1434 N1438 1.427 . S
C1435 H1425 0.929 . S
C1435 C1433 1.433 . S
C1435 N1438 1.384 . S
C1436 H1427 0.929 . S
C1436 C1428 1.378 . S
C1436 C1431 1.350 . S
C1437 H1424 0.929 . S
C1437 C1429 1.433 . S
C1437 N1439 1.384 . S
N1438 C1434 1.427 . S
N1438 C1435 1.384 . S
N1439 C1431 1.427 . S
N1439 C1437 1.384 . S
H1440 C1446 0.930 . S
H1441 C1450 0.930 . S
H1442 C1455 0.929 . S
H1443 C1453 0.929 . S
H1444 C1448 0.929 . S
H1445 C1454 0.929 . S
C1446 H1440 0.930 . S
C1446 C1447 1.367 . S
C1446 C1454 1.378 . S
C1447 C1446 1.367 . S
C1447 C1455 1.433 . S
C1448 H1444 0.929 . S
C1448 C1450 1.378 . S
C1448 C1452 1.350 . S
C1449 C1452 1.463 . S
C1449 C1454 1.350 . S
C1449 N1457 1.427 . S
C1450 H1441 0.930 . S
C1450 C1448 1.378 . S
C1450 C1451 1.367 . S
C1451 C1450 1.367 . S
C1451 C1453 1.433 . S
C1452 C1448 1.350 . S
C1452 C1449 1.463 . S
C1452 N1456 1.427 . S
C1453 H1443 0.929 . S
C1453 C1451 1.433 . S
C1453 N1456 1.384 . S
C1454 H1445 0.929 . S
C1454 C1446 1.378 . S
C1454 C1449 1.350 . S
C1455 H1442 0.929 . S
C1455 C1447 1.433 . S
C1455 N1457 1.384 . S
N1456 C1452 1.427 . S
N1456 C1453 1.384 . S
N1457 C1449 1.427 . S
N1457 C1455 1.384 . S
H1458 C1464 0.930 . S
H1459 C1468 0.930 . S
H1460 C1473 0.929 . S
H1461 C1471 0.929 . S
H1462 C1466 0.929 . S
H1463 C1472 0.929 . S
C1464 H1458 0.930 . S
C1464 C1465 1.367 . S
C1464 C1472 1.378 . S
C1465 C1464 1.367 . S
C1465 C1473 1.433 . S
C1466 H1462 0.929 . S
C1466 C1468 1.378 . S
C1466 C1470 1.350 . S
C1467 C1470 1.463 . S
C1467 C1472 1.350 . S
C1467 N1475 1.427 . S
C1468 H1459 0.930 . S
C1468 C1466 1.378 . S
C1468 C1469 1.367 . S
C1469 C1468 1.367 . S
C1469 C1471 1.433 . S
C1470 C1466 1.350 . S
C1470 C1467 1.463 . S
C1470 N1474 1.427 . S
C1471 H1461 0.929 . S
C1471 C1469 1.433 . S
C1471 N1474 1.384 . S
C1472 H1463 0.929 . S
C1472 C1464 1.378 . S
C1472 C1467 1.350 . S
C1473 H1460 0.929 . S
C1473 C1465 1.433 . S
C1473 N1475 1.384 . S
N1474 C1470 1.427 . S
N1474 C1471 1.384 . S
N1475 C1467 1.427 . S
N1475 C1473 1.384 . S
H1476 C1482 0.930 . S
H1477 C1486 0.930 . S
H1478 C1491 0.929 . S
H1479 C1489 0.929 . S
H1480 C1484 0.929 . S
H1481 C1490 0.929 . S
C1482 H1476 0.930 . S
C1482 C1483 1.367 . S
C1482 C1490 1.378 . S
C1483 C1482 1.367 . S
C1483 C1491 1.433 . S
C1484 H1480 0.929 . S
C1484 C1486 1.378 . S
C1484 C1488 1.350 . S
C1485 C1488 1.463 . S
C1485 C1490 1.350 . S
C1485 N1493 1.427 . S
C1486 H1477 0.930 . S
C1486 C1484 1.378 . S
C1486 C1487 1.367 . S
C1487 C1486 1.367 . S
C1487 C1489 1.433 . S
C1488 C1484 1.350 . S
C1488 C1485 1.463 . S
C1488 N1492 1.427 . S
C1489 H1479 0.929 . S
C1489 C1487 1.433 . S
C1489 N1492 1.384 . S
C1490 H1481 0.929 . S
C1490 C1482 1.378 . S
C1490 C1485 1.350 . S
C1491 H1478 0.929 . S
C1491 C1483 1.433 . S
C1491 N1493 1.384 . S
N1492 C1488 1.427 . S
N1492 C1489 1.384 . S
N1493 C1485 1.427 . S
N1493 C1491 1.384 . S
H1494 C1500 0.930 . S
H1495 C1504 0.930 . S
H1496 C1509 0.929 . S
H1497 C1507 0.929 . S
H1498 C1502 0.929 . S
H1499 C1508 0.929 . S
C1500 H1494 0.930 . S
C1500 C1501 1.367 . S
C1500 C1508 1.378 . S
C1501 C1500 1.367 . S
C1501 C1509 1.433 . S
C1502 H1498 0.929 . S
C1502 C1504 1.378 . S
C1502 C1506 1.350 . S
C1503 C1506 1.463 . S
C1503 C1508 1.350 . S
C1503 N1511 1.427 . S
C1504 H1495 0.930 . S
C1504 C1502 1.378 . S
C1504 C1505 1.367 . S
C1505 C1504 1.367 . S
C1505 C1507 1.433 . S
C1506 C1502 1.350 . S
C1506 C1503 1.463 . S
C1506 N1510 1.427 . S
C1507 H1497 0.929 . S
C1507 C1505 1.433 . S
C1507 N1510 1.384 . S
C1508 H1499 0.929 . S
C1508 C1500 1.378 . S
C1508 C1503 1.350 . S
C1509 H1496 0.929 . S
C1509 C1501 1.433 . S
C1509 N1511 1.384 . S
N1510 C1506 1.427 . S
N1510 C1507 1.384 . S
N1511 C1503 1.427 . S
N1511 C1509 1.384 . S
H1512 C1518 0.930 . S
H1513 C1522 0.930 . S
H1514 C1527 0.929 . S
H1515 C1525 0.929 . S
H1516 C1520 0.929 . S
H1517 C1526 0.929 . S
C1518 H1512 0.930 . S
C1518 C1519 1.367 . S
C1518 C1526 1.378 . S
C1519 C1518 1.367 . S
C1519 C1527 1.433 . S
C1520 H1516 0.929 . S
C1520 C1522 1.378 . S
C1520 C1524 1.350 . S
C1521 C1524 1.463 . S
C1521 C1526 1.350 . S
C1521 N1529 1.427 . S
C1522 H1513 0.930 . S
C1522 C1520 1.378 . S
C1522 C1523 1.367 . S
C1523 C1522 1.367 . S
C1523 C1525 1.433 . S
C1524 C1520 1.350 . S
C1524 C1521 1.463 . S
C1524 N1528 1.427 . S
C1525 H1515 0.929 . S
C1525 C1523 1.433 . S
C1525 N1528 1.384 . S
C1526 H1517 0.929 . S
C1526 C1518 1.378 . S
C1526 C1521 1.350 . S
C1527 H1514 0.929 . S
C1527 C1519 1.433 . S
C1527 N1529 1.384 . S
N1528 C1524 1.427 . S
N1528 C1525 1.384 . S
N1529 C1521 1.427 . S
N1529 C1527 1.384 . S
H1530 C1536 0.930 . S
H1531 C1540 0.930 . S
H1532 C1545 0.929 . S
H1533 C1543 0.929 . S
H1534 C1538 0.929 . S
H1535 C1544 0.929 . S
C1536 H1530 0.930 . S
C1536 C1537 1.367 . S
C1536 C1544 1.378 . S
C1537 C1536 1.367 . S
C1537 C1545 1.433 . S
C1538 H1534 0.929 . S
C1538 C1540 1.378 . S
C1538 C1542 1.350 . S
C1539 C1542 1.463 . S
C1539 C1544 1.350 . S
C1539 N1547 1.427 . S
C1540 H1531 0.930 . S
C1540 C1538 1.378 . S
C1540 C1541 1.367 . S
C1541 C1540 1.367 . S
C1541 C1543 1.433 . S
C1542 C1538 1.350 . S
C1542 C1539 1.463 . S
C1542 N1546 1.427 . S
C1543 H1533 0.929 . S
C1543 C1541 1.433 . S
C1543 N1546 1.384 . S
C1544 H1535 0.929 . S
C1544 C1536 1.378 . S
C1544 C1539 1.350 . S
C1545 H1532 0.929 . S
C1545 C1537 1.433 . S
C1545 N1547 1.384 . S
N1546 C1542 1.427 . S
N1546 C1543 1.384 . S
N1547 C1539 1.427 . S
N1547 C1545 1.384 . S
H1548 C1554 0.930 1_655 S
H1549 C1558 0.930 . S
H1550 C1563 0.929 . S
H1551 C1561 0.933 1_556 S
H1552 C1556 0.929 . S
H1553 C1562 0.937 . S
C1554 H1548 0.930 1_455 S
C1554 C1555 1.367 . S
C1554 C1562 1.378 . S
C1555 C1554 1.367 . S
C1555 C1563 1.433 . S
C1556 H1552 0.929 . S
C1556 C1558 1.378 . S
C1556 C1560 1.350 . S
C1557 C1560 1.463 . S
C1557 C1562 1.350 . S
C1557 N1565 1.427 . S
C1558 H1549 0.930 . S
C1558 C1556 1.378 . S
C1558 C1559 1.367 . S
C1559 C1558 1.367 . S
C1559 C1561 1.433 . S
C1560 C1556 1.350 . S
C1560 C1557 1.463 . S
C1560 N1564 1.427 . S
C1561 H1551 0.933 1_554 S
C1561 C1559 1.433 . S
C1561 N1564 1.384 . S
C1562 H1553 0.937 . S
C1562 C1554 1.378 . S
C1562 C1557 1.350 . S
C1563 H1550 0.929 . S
C1563 C1555 1.433 . S
C1563 N1565 1.384 . S
N1564 C1560 1.427 . S
N1564 C1561 1.384 . S
N1565 C1557 1.427 . S
N1565 C1563 1.384 . S
H1566 C1572 0.930 . S
H1567 C1576 0.930 . S
H1568 C1581 0.929 . S
H1569 C1579 0.929 . S
H1570 C1574 0.929 . S
H1571 C1580 0.929 . S
C1572 H1566 0.930 . S
C1572 C1573 1.367 . S
C1572 C1580 1.378 . S
C1573 C1572 1.367 . S
C1573 C1581 1.433 . S
C1574 H1570 0.929 . S
C1574 C1576 1.378 . S
C1574 C1578 1.350 . S
C1575 C1578 1.463 . S
C1575 C1580 1.350 . S
C1575 N1583 1.427 . S
C1576 H1567 0.930 . S
C1576 C1574 1.378 . S
C1576 C1577 1.367 . S
C1577 C1576 1.367 . S
C1577 C1579 1.433 . S
C1578 C1574 1.350 . S
C1578 C1575 1.463 . S
C1578 N1582 1.427 . S
C1579 H1569 0.929 . S
C1579 C1577 1.433 . S
C1579 N1582 1.384 . S
C1580 H1571 0.929 . S
C1580 C1572 1.378 . S
C1580 C1575 1.350 . S
C1581 H1568 0.929 . S
C1581 C1573 1.433 . S
C1581 N1583 1.384 . S
N1582 C1578 1.427 . S
N1582 C1579 1.384 . S
N1583 C1575 1.427 . S
N1583 C1581 1.384 . S
H1584 C1590 0.930 . S
H1585 C1594 0.930 . S
H1586 C1599 0.929 . S
H1587 C1597 0.929 . S
H1588 C1592 0.929 . S
H1589 C1598 0.929 . S
C1590 H1584 0.930 . S
C1590 C1591 1.367 . S
C1590 C1598 1.378 . S
C1591 C1590 1.367 . S
C1591 C1599 1.433 . S
C1592 H1588 0.929 . S
C1592 C1594 1.378 . S
C1592 C1596 1.350 . S
C1593 C1596 1.463 . S
C1593 C1598 1.350 . S
C1593 N1601 1.427 . S
C1594 H1585 0.930 . S
C1594 C1592 1.378 . S
C1594 C1595 1.367 . S
C1595 C1594 1.367 . S
C1595 C1597 1.433 . S
C1596 C1592 1.350 . S
C1596 C1593 1.463 . S
C1596 N1600 1.427 . S
C1597 H1587 0.929 . S
C1597 C1595 1.433 . S
C1597 N1600 1.384 . S
C1598 H1589 0.929 . S
C1598 C1590 1.378 . S
C1598 C1593 1.350 . S
C1599 H1586 0.929 . S
C1599 C1591 1.433 . S
C1599 N1601 1.384 . S
N1600 C1596 1.427 . S
N1600 C1597 1.384 . S
N1601 C1593 1.427 . S
N1601 C1599 1.384 . S
H1602 C1608 0.930 . S
H1603 C1612 0.930 . S
H1604 C1617 0.929 . S
H1605 C1615 0.929 . S
H1606 C1610 0.929 . S
H1607 C1616 0.929 . S
C1608 H1602 0.930 . S
C1608 C1609 1.367 . S
C1608 C1616 1.378 . S
C1609 C1608 1.367 . S
C1609 C1617 1.433 . S
C1610 H1606 0.929 . S
C1610 C1612 1.378 . S
C1610 C1614 1.350 . S
C1611 C1614 1.463 . S
C1611 C1616 1.350 . S
C1611 N1619 1.427 . S
C1612 H1603 0.930 . S
C1612 C1610 1.378 . S
C1612 C1613 1.367 . S
C1613 C1612 1.367 . S
C1613 C1615 1.433 . S
C1614 C1610 1.350 . S
C1614 C1611 1.463 . S
C1614 N1618 1.427 . S
C1615 H1605 0.929 . S
C1615 C1613 1.433 . S
C1615 N1618 1.384 . S
C1616 H1607 0.929 . S
C1616 C1608 1.378 . S
C1616 C1611 1.350 . S
C1617 H1604 0.929 . S
C1617 C1609 1.433 . S
C1617 N1619 1.384 . S
N1618 C1614 1.427 . S
N1618 C1615 1.384 . S
N1619 C1611 1.427 . S
N1619 C1617 1.384 . S
H1620 C1626 0.930 . S
H1621 C1630 0.930 1_655 S
H1622 C1635 0.940 . S
H1623 C1633 0.929 . S
H1624 C1628 0.929 1_655 S
H1625 C1634 0.929 . S
C1626 H1620 0.930 . S
C1626 C1627 1.367 . S
C1626 C1634 1.378 . S
C1627 C1626 1.367 . S
C1627 C1635 1.423 1_455 S
C1628 H1624 0.929 1_455 S
C1628 C1630 1.378 . S
C1628 C1632 1.350 . S
C1629 C1632 1.463 . S
C1629 C1634 1.350 . S
C1629 N1637 1.427 . S
C1630 H1621 0.930 1_455 S
C1630 C1628 1.378 . S
C1630 C1631 1.367 . S
C1631 C1630 1.367 . S
C1631 C1633 1.433 . S
C1632 C1628 1.350 . S
C1632 C1629 1.463 . S
C1632 N1636 1.427 . S
C1633 H1623 0.929 . S
C1633 C1631 1.433 . S
C1633 N1636 1.384 . S
C1634 H1625 0.929 . S
C1634 C1626 1.378 . S
C1634 C1629 1.350 . S
C1635 H1622 0.940 . S
C1635 C1627 1.423 1_655 S
C1635 N1637 1.383 1_655 S
N1636 C1632 1.427 . S
N1636 C1633 1.384 . S
N1637 C1629 1.427 . S
N1637 C1635 1.383 1_455 S
H1638 C1644 0.930 . S
H1639 C1648 0.930 . S
H1640 C1653 0.929 . S
H1641 C1651 0.929 . S
H1642 C1646 0.929 . S
H1643 C1652 0.929 . S
C1644 H1638 0.930 . S
C1644 C1645 1.367 . S
C1644 C1652 1.378 . S
C1645 C1644 1.367 . S
C1645 C1653 1.433 . S
C1646 H1642 0.929 . S
C1646 C1648 1.378 . S
C1646 C1650 1.350 . S
C1647 C1650 1.463 . S
C1647 C1652 1.350 . S
C1647 N1655 1.427 . S
C1648 H1639 0.930 . S
C1648 C1646 1.378 . S
C1648 C1649 1.367 . S
C1649 C1648 1.367 . S
C1649 C1651 1.433 . S
C1650 C1646 1.350 . S
C1650 C1647 1.463 . S
C1650 N1654 1.427 . S
C1651 H1641 0.929 . S
C1651 C1649 1.433 . S
C1651 N1654 1.384 . S
C1652 H1643 0.929 . S
C1652 C1644 1.378 . S
C1652 C1647 1.350 . S
C1653 H1640 0.929 . S
C1653 C1645 1.433 . S
C1653 N1655 1.384 . S
N1654 C1650 1.427 . S
N1654 C1651 1.384 . S
N1655 C1647 1.427 . S
N1655 C1653 1.384 . S
H1656 C1662 0.930 . S
H1657 C1666 0.930 . S
H1658 C1671 0.929 . S
H1659 C1669 0.929 . S
H1660 C1664 0.929 . S
H1661 C1670 0.929 . S
C1662 H1656 0.930 . S
C1662 C1663 1.367 . S
C1662 C1670 1.378 . S
C1663 C1662 1.367 . S
C1663 C1671 1.433 . S
C1664 H1660 0.929 . S
C1664 C1666 1.378 . S
C1664 C1668 1.350 . S
C1665 C1668 1.463 . S
C1665 C1670 1.350 . S
C1665 N1673 1.427 . S
C1666 H1657 0.930 . S
C1666 C1664 1.378 . S
C1666 C1667 1.367 . S
C1667 C1666 1.367 . S
C1667 C1669 1.433 . S
C1668 C1664 1.350 . S
C1668 C1665 1.463 . S
C1668 N1672 1.427 . S
C1669 H1659 0.929 . S
C1669 C1667 1.433 . S
C1669 N1672 1.384 . S
C1670 H1661 0.929 . S
C1670 C1662 1.378 . S
C1670 C1665 1.350 . S
C1671 H1658 0.929 . S
C1671 C1663 1.433 . S
C1671 N1673 1.384 . S
N1672 C1668 1.427 . S
N1672 C1669 1.384 . S
N1673 C1665 1.427 . S
N1673 C1671 1.384 . S
H1674 C1680 0.930 . S
H1675 C1684 0.930 . S
H1676 C1689 0.929 . S
H1677 C1687 0.929 . S
H1678 C1682 0.929 . S
H1679 C1688 0.929 . S
C1680 H1674 0.930 . S
C1680 C1681 1.367 . S
C1680 C1688 1.378 . S
C1681 C1680 1.367 . S
C1681 C1689 1.433 . S
C1682 H1678 0.929 . S
C1682 C1684 1.378 . S
C1682 C1686 1.350 . S
C1683 C1686 1.463 . S
C1683 C1688 1.350 . S
C1683 N1691 1.427 . S
C1684 H1675 0.930 . S
C1684 C1682 1.378 . S
C1684 C1685 1.367 . S
C1685 C1684 1.367 . S
C1685 C1687 1.433 . S
C1686 C1682 1.350 . S
C1686 C1683 1.463 . S
C1686 N1690 1.427 . S
C1687 H1677 0.929 . S
C1687 C1685 1.433 . S
C1687 N1690 1.384 . S
C1688 H1679 0.929 . S
C1688 C1680 1.378 . S
C1688 C1683 1.350 . S
C1689 H1676 0.929 . S
C1689 C1681 1.433 . S
C1689 N1691 1.384 . S
N1690 C1686 1.427 . S
N1690 C1687 1.384 . S
N1691 C1683 1.427 . S
N1691 C1689 1.384 . S
H1692 C1698 0.930 . S
H1693 C1702 0.930 1_455 S
H1694 C1707 0.929 . S
H1695 C1705 0.929 . S
H1696 C1700 0.929 . S
H1697 C1706 0.929 . S
C1698 H1692 0.930 . S
C1698 C1699 1.367 . S
C1698 C1706 1.378 . S
C1699 C1698 1.367 . S
C1699 C1707 1.433 . S
C1700 H1696 0.929 . S
C1700 C1702 1.378 . S
C1700 C1704 1.350 . S
C1701 C1704 1.463 . S
C1701 C1706 1.350 . S
C1701 N1709 1.427 . S
C1702 H1693 0.930 1_655 S
C1702 C1700 1.378 . S
C1702 C1703 1.367 . S
C1703 C1702 1.367 . S
C1703 C1705 1.433 . S
C1704 C1700 1.350 . S
C1704 C1701 1.463 . S
C1704 N1708 1.427 . S
C1705 H1695 0.929 . S
C1705 C1703 1.433 . S
C1705 N1708 1.384 . S
C1706 H1697 0.929 . S
C1706 C1698 1.378 . S
C1706 C1701 1.350 . S
C1707 H1694 0.929 . S
C1707 C1699 1.433 . S
C1707 N1709 1.384 . S
N1708 C1704 1.427 . S
N1708 C1705 1.384 . S
N1709 C1701 1.427 . S
N1709 C1707 1.384 . S
H1710 C1716 0.930 . S
H1711 C1720 0.930 . S
H1712 C1725 0.929 . S
H1713 C1723 0.929 . S
H1714 C1718 0.929 . S
H1715 C1724 0.929 . S
C1716 H1710 0.930 . S
C1716 C1717 1.367 . S
C1716 C1724 1.378 . S
C1717 C1716 1.367 . S
C1717 C1725 1.433 . S
C1718 H1714 0.929 . S
C1718 C1720 1.378 . S
C1718 C1722 1.350 . S
C1719 C1722 1.463 . S
C1719 C1724 1.350 . S
C1719 N1727 1.427 . S
C1720 H1711 0.930 . S
C1720 C1718 1.378 . S
C1720 C1721 1.367 . S
C1721 C1720 1.367 . S
C1721 C1723 1.433 . S
C1722 C1718 1.350 . S
C1722 C1719 1.463 . S
C1722 N1726 1.427 . S
C1723 H1713 0.929 . S
C1723 C1721 1.433 . S
C1723 N1726 1.384 . S
C1724 H1715 0.929 . S
C1724 C1716 1.378 . S
C1724 C1719 1.350 . S
C1725 H1712 0.929 . S
C1725 C1717 1.433 . S
C1725 N1727 1.384 . S
N1726 C1722 1.427 . S
N1726 C1723 1.384 . S
N1727 C1719 1.427 . S
N1727 C1725 1.384 . S
H1728 C1734 0.930 . S
H1729 C1738 0.930 . S
H1730 C1743 0.929 . S
H1731 C1741 0.929 . S
H1732 C1736 0.929 . S
H1733 C1742 0.929 . S
C1734 H1728 0.930 . S
C1734 C1735 1.367 . S
C1734 C1742 1.378 . S
C1735 C1734 1.367 . S
C1735 C1743 1.433 . S
C1736 H1732 0.929 . S
C1736 C1738 1.378 . S
C1736 C1740 1.350 . S
C1737 C1740 1.463 . S
C1737 C1742 1.350 . S
C1737 N1745 1.427 . S
C1738 H1729 0.930 . S
C1738 C1736 1.378 . S
C1738 C1739 1.367 . S
C1739 C1738 1.367 . S
C1739 C1741 1.433 . S
C1740 C1736 1.350 . S
C1740 C1737 1.463 . S
C1740 N1744 1.427 . S
C1741 H1731 0.929 . S
C1741 C1739 1.433 . S
C1741 N1744 1.384 . S
C1742 H1733 0.929 . S
C1742 C1734 1.378 . S
C1742 C1737 1.350 . S
C1743 H1730 0.929 . S
C1743 C1735 1.433 . S
C1743 N1745 1.384 . S
N1744 C1740 1.427 . S
N1744 C1741 1.384 . S
N1745 C1737 1.427 . S
N1745 C1743 1.384 . S
H1746 C1752 0.930 . S
H1747 C1756 0.930 . S
H1748 C1761 0.929 . S
H1749 C1759 0.929 . S
H1750 C1754 0.929 . S
H1751 C1760 0.929 . S
C1752 H1746 0.930 . S
C1752 C1753 1.367 . S
C1752 C1760 1.378 . S
C1753 C1752 1.367 . S
C1753 C1761 1.433 . S
C1754 H1750 0.929 . S
C1754 C1756 1.378 . S
C1754 C1758 1.350 . S
C1755 C1758 1.463 . S
C1755 C1760 1.350 . S
C1755 N1763 1.427 . S
C1756 H1747 0.930 . S
C1756 C1754 1.378 . S
C1756 C1757 1.367 . S
C1757 C1756 1.367 . S
C1757 C1759 1.433 . S
C1758 C1754 1.350 . S
C1758 C1755 1.463 . S
C1758 N1762 1.427 . S
C1759 H1749 0.929 . S
C1759 C1757 1.433 . S
C1759 N1762 1.384 . S
C1760 H1751 0.929 . S
C1760 C1752 1.378 . S
C1760 C1755 1.350 . S
C1761 H1748 0.929 . S
C1761 C1753 1.433 . S
C1761 N1763 1.384 . S
N1762 C1758 1.427 . S
N1762 C1759 1.384 . S
N1763 C1755 1.427 . S
N1763 C1761 1.384 . S
H1764 C1770 0.930 . S
H1765 C1774 0.930 . S
H1766 C1779 0.929 . S
H1767 C1777 0.929 . S
H1768 C1772 0.929 . S
H1769 C1778 0.929 . S
C1770 H1764 0.930 . S
C1770 C1771 1.367 . S
C1770 C1778 1.378 . S
C1771 C1770 1.367 . S
C1771 C1779 1.433 . S
C1772 H1768 0.929 . S
C1772 C1774 1.378 . S
C1772 C1776 1.350 . S
C1773 C1776 1.463 . S
C1773 C1778 1.350 . S
C1773 N1781 1.427 . S
C1774 H1765 0.930 . S
C1774 C1772 1.378 . S
C1774 C1775 1.367 . S
C1775 C1774 1.367 . S
C1775 C1777 1.433 . S
C1776 C1772 1.350 . S
C1776 C1773 1.463 . S
C1776 N1780 1.427 . S
C1777 H1767 0.929 . S
C1777 C1775 1.433 . S
C1777 N1780 1.384 . S
C1778 H1769 0.929 . S
C1778 C1770 1.378 . S
C1778 C1773 1.350 . S
C1779 H1766 0.929 . S
C1779 C1771 1.433 . S
C1779 N1781 1.384 . S
N1780 C1776 1.427 . S
N1780 C1777 1.384 . S
N1781 C1773 1.427 . S
N1781 C1779 1.384 . S
H1782 C1788 0.930 . S
H1783 C1792 0.930 . S
H1784 C1797 0.929 . S
H1785 C1795 0.929 . S
H1786 C1790 0.929 . S
H1787 C1796 0.929 . S
C1788 H1782 0.930 . S
C1788 C1789 1.367 . S
C1788 C1796 1.378 . S
C1789 C1788 1.367 . S
C1789 C1797 1.433 . S
C1790 H1786 0.929 . S
C1790 C1792 1.378 . S
C1790 C1794 1.350 . S
C1791 C1794 1.463 . S
C1791 C1796 1.350 . S
C1791 N1799 1.427 . S
C1792 H1783 0.930 . S
C1792 C1790 1.378 . S
C1792 C1793 1.367 . S
C1793 C1792 1.367 . S
C1793 C1795 1.433 . S
C1794 C1790 1.350 . S
C1794 C1791 1.463 . S
C1794 N1798 1.427 . S
C1795 H1785 0.929 . S
C1795 C1793 1.433 . S
C1795 N1798 1.384 . S
C1796 H1787 0.929 . S
C1796 C1788 1.378 . S
C1796 C1791 1.350 . S
C1797 H1784 0.929 . S
C1797 C1789 1.433 . S
C1797 N1799 1.384 . S
N1798 C1794 1.427 . S
N1798 C1795 1.384 . S
N1799 C1791 1.427 . S
N1799 C1797 1.384 . S
H1800 C1806 0.930 . S
H1801 C1810 0.930 . S
H1802 C1815 0.929 . S
H1803 C1813 0.929 . S
H1804 C1808 0.929 . S
H1805 C1814 0.929 . S
C1806 H1800 0.930 . S
C1806 C1807 1.367 . S
C1806 C1814 1.378 . S
C1807 C1806 1.367 . S
C1807 C1815 1.433 . S
C1808 H1804 0.929 . S
C1808 C1810 1.378 . S
C1808 C1812 1.350 . S
C1809 C1812 1.463 . S
C1809 C1814 1.350 . S
C1809 N1817 1.427 . S
C1810 H1801 0.930 . S
C1810 C1808 1.378 . S
C1810 C1811 1.367 . S
C1811 C1810 1.367 . S
C1811 C1813 1.433 . S
C1812 C1808 1.350 . S
C1812 C1809 1.463 . S
C1812 N1816 1.427 . S
C1813 H1803 0.929 . S
C1813 C1811 1.433 . S
C1813 N1816 1.384 . S
C1814 H1805 0.929 . S
C1814 C1806 1.378 . S
C1814 C1809 1.350 . S
C1815 H1802 0.929 . S
C1815 C1807 1.433 . S
C1815 N1817 1.384 . S
N1816 C1812 1.427 . S
N1816 C1813 1.384 . S
N1817 C1809 1.427 . S
N1817 C1815 1.384 . S
H1818 C1824 0.930 . S
H1819 C1828 0.930 . S
H1820 C1833 0.929 . S
H1821 C1831 0.929 1_545 S
H1822 C1826 0.929 . S
H1823 C1832 0.929 . S
C1824 H1818 0.930 . S
C1824 C1825 1.367 . S
C1824 C1832 1.378 . S
C1825 C1824 1.367 . S
C1825 C1833 1.433 . S
C1826 H1822 0.929 . S
C1826 C1828 1.378 . S
C1826 C1830 1.350 . S
C1827 C1830 1.463 . S
C1827 C1832 1.350 . S
C1827 N1835 1.427 . S
C1828 H1819 0.930 . S
C1828 C1826 1.378 . S
C1828 C1829 1.367 . S
C1829 C1828 1.367 . S
C1829 C1831 1.433 . S
C1830 C1826 1.350 . S
C1830 C1827 1.463 . S
C1830 N1834 1.427 . S
C1831 H1821 0.929 1_565 S
C1831 C1829 1.433 . S
C1831 N1834 1.384 . S
C1832 H1823 0.929 . S
C1832 C1824 1.378 . S
C1832 C1827 1.350 . S
C1833 H1820 0.929 . S
C1833 C1825 1.433 . S
C1833 N1835 1.384 . S
N1834 C1830 1.427 . S
N1834 C1831 1.384 . S
N1835 C1827 1.427 . S
N1835 C1833 1.384 . S
H1836 C1842 0.930 . S
H1837 C1846 0.930 . S
H1838 C1851 0.929 . S
H1839 C1849 0.929 . S
H1840 C1844 0.929 . S
H1841 C1850 0.929 . S
C1842 H1836 0.930 . S
C1842 C1843 1.367 . S
C1842 C1850 1.378 . S
C1843 C1842 1.367 . S
C1843 C1851 1.433 . S
C1844 H1840 0.929 . S
C1844 C1846 1.378 . S
C1844 C1848 1.350 . S
C1845 C1848 1.463 . S
C1845 C1850 1.350 . S
C1845 N1853 1.427 . S
C1846 H1837 0.930 . S
C1846 C1844 1.378 . S
C1846 C1847 1.367 . S
C1847 C1846 1.367 . S
C1847 C1849 1.433 . S
C1848 C1844 1.350 . S
C1848 C1845 1.463 . S
C1848 N1852 1.427 . S
C1849 H1839 0.929 . S
C1849 C1847 1.433 . S
C1849 N1852 1.384 . S
C1850 H1841 0.929 . S
C1850 C1842 1.378 . S
C1850 C1845 1.350 . S
C1851 H1838 0.929 . S
C1851 C1843 1.433 . S
C1851 N1853 1.384 . S
N1852 C1848 1.427 . S
N1852 C1849 1.384 . S
N1853 C1845 1.427 . S
N1853 C1851 1.384 . S
H1854 C1860 0.930 . S
H1855 C1864 0.930 . S
H1856 C1869 0.929 . S
H1857 C1867 0.929 . S
H1858 C1862 0.929 . S
H1859 C1868 0.929 . S
C1860 H1854 0.930 . S
C1860 C1861 1.367 . S
C1860 C1868 1.378 . S
C1861 C1860 1.367 . S
C1861 C1869 1.433 1_554 S
C1862 H1858 0.929 . S
C1862 C1864 1.378 . S
C1862 C1866 1.350 1_556 S
C1863 C1866 1.463 . S
C1863 C1868 1.350 . S
C1863 N1871 1.427 1_554 S
C1864 H1855 0.930 . S
C1864 C1862 1.378 . S
C1864 C1865 1.367 1_556 S
C1865 C1864 1.367 1_554 S
C1865 C1867 1.433 . S
C1866 C1862 1.350 1_554 S
C1866 C1863 1.463 . S
C1866 N1870 1.427 . S
C1867 H1857 0.929 . S
C1867 C1865 1.433 . S
C1867 N1870 1.384 . S
C1868 H1859 0.929 . S
C1868 C1860 1.378 . S
C1868 C1863 1.350 . S
C1869 H1856 0.929 . S
C1869 C1861 1.433 1_556 S
C1869 N1871 1.384 . S
N1870 C1866 1.427 . S
N1870 C1867 1.384 . S
N1871 C1863 1.427 1_556 S
N1871 C1869 1.384 . S
H1872 C1878 0.930 . S
H1873 C1882 0.930 . S
H1874 C1887 0.929 . S
H1875 C1885 0.929 . S
H1876 C1880 0.929 . S
H1877 C1886 0.929 . S
C1878 H1872 0.930 . S
C1878 C1879 1.367 . S
C1878 C1886 1.378 . S
C1879 C1878 1.367 . S
C1879 C1887 1.433 . S
C1880 H1876 0.929 . S
C1880 C1882 1.378 . S
C1880 C1884 1.350 . S
C1881 C1884 1.463 . S
C1881 C1886 1.350 . S
C1881 N1889 1.427 . S
C1882 H1873 0.930 . S
C1882 C1880 1.378 . S
C1882 C1883 1.367 . S
C1883 C1882 1.367 . S
C1883 C1885 1.433 . S
C1884 C1880 1.350 . S
C1884 C1881 1.463 . S
C1884 N1888 1.427 . S
C1885 H1875 0.929 . S
C1885 C1883 1.433 . S
C1885 N1888 1.384 . S
C1886 H1877 0.929 . S
C1886 C1878 1.378 . S
C1886 C1881 1.350 . S
C1887 H1874 0.929 . S
C1887 C1879 1.433 . S
C1887 N1889 1.384 . S
N1888 C1884 1.427 . S
N1888 C1885 1.384 . S
N1889 C1881 1.427 . S
N1889 C1887 1.384 . S
H1890 C1896 0.930 . S
H1891 C1900 0.930 . S
H1892 C1905 0.929 . S
H1893 C1903 0.930 1_554 S
H1894 C1898 0.929 . S
H1895 C1904 0.933 . S
C1896 H1890 0.930 . S
C1896 C1897 1.367 1_554 S
C1896 C1904 1.380 . S
C1897 C1896 1.367 1_556 S
C1897 C1905 1.433 . S
C1898 H1894 0.929 . S
C1898 C1900 1.378 . S
C1898 C1902 1.350 . S
C1899 C1902 1.463 . S
C1899 C1904 1.345 1_556 S
C1899 N1907 1.427 . S
C1900 H1891 0.930 . S
C1900 C1898 1.378 . S
C1900 C1901 1.367 . S
C1901 C1900 1.367 . S
C1901 C1903 1.433 . S
C1902 C1898 1.350 . S
C1902 C1899 1.463 . S
C1902 N1906 1.427 . S
C1903 H1893 0.930 1_556 S
C1903 C1901 1.433 . S
C1903 N1906 1.384 . S
C1904 H1895 0.933 . S
C1904 C1896 1.380 . S
C1904 C1899 1.345 1_554 S
C1905 H1892 0.929 . S
C1905 C1897 1.433 . S
C1905 N1907 1.384 . S
N1906 C1902 1.427 . S
N1906 C1903 1.384 . S
N1907 C1899 1.427 . S
N1907 C1905 1.384 . S
H1908 C1914 0.930 . S
H1909 C1918 0.930 . S
H1910 C1923 0.929 . S
H1911 C1921 0.929 . S
H1912 C1916 0.929 . S
H1913 C1922 0.929 . S
C1914 H1908 0.930 . S
C1914 C1915 1.367 . S
C1914 C1922 1.378 . S
C1915 C1914 1.367 . S
C1915 C1923 1.433 . S
C1916 H1912 0.929 . S
C1916 C1918 1.378 . S
C1916 C1920 1.350 . S
C1917 C1920 1.463 . S
C1917 C1922 1.350 . S
C1917 N1925 1.427 . S
C1918 H1909 0.930 . S
C1918 C1916 1.378 . S
C1918 C1919 1.367 . S
C1919 C1918 1.367 . S
C1919 C1921 1.433 . S
C1920 C1916 1.350 . S
C1920 C1917 1.463 . S
C1920 N1924 1.427 . S
C1921 H1911 0.929 . S
C1921 C1919 1.433 . S
C1921 N1924 1.384 . S
C1922 H1913 0.929 . S
C1922 C1914 1.378 . S
C1922 C1917 1.350 . S
C1923 H1910 0.929 . S
C1923 C1915 1.433 . S
C1923 N1925 1.384 . S
N1924 C1920 1.427 . S
N1924 C1921 1.384 . S
N1925 C1917 1.427 . S
N1925 C1923 1.384 . S
H1926 C1932 0.930 . S
H1927 C1936 0.930 . S
H1928 C1941 0.929 . S
H1929 C1939 0.929 . S
H1930 C1934 0.929 . S
H1931 C1940 0.929 . S
C1932 H1926 0.930 . S
C1932 C1933 1.367 . S
C1932 C1940 1.378 . S
C1933 C1932 1.367 . S
C1933 C1941 1.433 . S
C1934 H1930 0.929 . S
C1934 C1936 1.378 . S
C1934 C1938 1.350 . S
C1935 C1938 1.463 . S
C1935 C1940 1.350 . S
C1935 N1943 1.427 . S
C1936 H1927 0.930 . S
C1936 C1934 1.378 . S
C1936 C1937 1.367 . S
C1937 C1936 1.367 . S
C1937 C1939 1.433 . S
C1938 C1934 1.350 . S
C1938 C1935 1.463 . S
C1938 N1942 1.427 . S
C1939 H1929 0.929 . S
C1939 C1937 1.433 . S
C1939 N1942 1.384 . S
C1940 H1931 0.929 . S
C1940 C1932 1.378 . S
C1940 C1935 1.350 . S
C1941 H1928 0.929 . S
C1941 C1933 1.433 . S
C1941 N1943 1.384 . S
N1942 C1938 1.427 . S
N1942 C1939 1.384 . S
N1943 C1935 1.427 . S
N1943 C1941 1.384 . S
H1944 C1950 0.930 . S
H1945 C1954 0.930 . S
H1946 C1959 0.929 . S
H1947 C1957 0.929 . S
H1948 C1952 0.929 . S
H1949 C1958 0.929 . S
C1950 H1944 0.930 . S
C1950 C1951 1.367 . S
C1950 C1958 1.378 . S
C1951 C1950 1.367 . S
C1951 C1959 1.433 . S
C1952 H1948 0.929 . S
C1952 C1954 1.378 . S
C1952 C1956 1.350 . S
C1953 C1956 1.463 . S
C1953 C1958 1.350 . S
C1953 N1961 1.427 . S
C1954 H1945 0.930 . S
C1954 C1952 1.378 . S
C1954 C1955 1.367 . S
C1955 C1954 1.367 . S
C1955 C1957 1.433 . S
C1956 C1952 1.350 . S
C1956 C1953 1.463 . S
C1956 N1960 1.427 . S
C1957 H1947 0.929 . S
C1957 C1955 1.433 . S
C1957 N1960 1.384 . S
C1958 H1949 0.929 . S
C1958 C1950 1.378 . S
C1958 C1953 1.350 . S
C1959 H1946 0.929 . S
C1959 C1951 1.433 . S
C1959 N1961 1.384 . S
N1960 C1956 1.427 . S
N1960 C1957 1.384 . S
N1961 C1953 1.427 . S
N1961 C1959 1.384 . S
H1962 C1968 0.930 . S
H1963 C1972 0.930 . S
H1964 C1977 0.929 . S
H1965 C1975 0.929 . S
H1966 C1970 0.929 . S
H1967 C1976 0.929 . S
C1968 H1962 0.930 . S
C1968 C1969 1.367 . S
C1968 C1976 1.378 . S
C1969 C1968 1.367 . S
C1969 C1977 1.433 . S
C1970 H1966 0.929 . S
C1970 C1972 1.378 . S
C1970 C1974 1.350 . S
C1971 C1974 1.463 . S
C1971 C1976 1.350 . S
C1971 N1979 1.427 . S
C1972 H1963 0.930 . S
C1972 C1970 1.378 . S
C1972 C1973 1.367 . S
C1973 C1972 1.367 . S
C1973 C1975 1.433 . S
C1974 C1970 1.350 . S
C1974 C1971 1.463 . S
C1974 N1978 1.427 . S
C1975 H1965 0.929 . S
C1975 C1973 1.433 . S
C1975 N1978 1.384 . S
C1976 H1967 0.929 . S
C1976 C1968 1.378 . S
C1976 C1971 1.350 . S
C1977 H1964 0.929 . S
C1977 C1969 1.433 . S
C1977 N1979 1.384 . S
N1978 C1974 1.427 . S
N1978 C1975 1.384 . S
N1979 C1971 1.427 . S
N1979 C1977 1.384 . S
H1980 C1986 0.930 . S
H1981 C1990 0.930 . S
H1982 C1995 0.929 . S
H1983 C1993 0.929 . S
H1984 C1988 0.929 . S
H1985 C1994 0.929 . S
C1986 H1980 0.930 . S
C1986 C1987 1.367 . S
C1986 C1994 1.378 . S
C1987 C1986 1.367 . S
C1987 C1995 1.433 1_455 S
C1988 H1984 0.929 . S
C1988 C1990 1.378 . S
C1988 C1992 1.350 1_655 S
C1989 C1992 1.463 . S
C1989 C1994 1.350 . S
C1989 N1997 1.427 1_455 S
C1990 H1981 0.930 . S
C1990 C1988 1.378 . S
C1990 C1991 1.368 . S
C1991 C1990 1.368 . S
C1991 C1993 1.432 1_655 S
C1992 C1988 1.350 1_455 S
C1992 C1989 1.463 . S
C1992 N1996 1.427 . S
C1993 H1983 0.929 . S
C1993 C1991 1.432 1_455 S
C1993 N1996 1.384 . S
C1994 H1985 0.929 . S
C1994 C1986 1.378 . S
C1994 C1989 1.350 . S
C1995 H1982 0.929 . S
C1995 C1987 1.433 1_655 S
C1995 N1997 1.384 . S
N1996 C1992 1.427 . S
N1996 C1993 1.384 . S
N1997 C1989 1.427 1_655 S
N1997 C1995 1.384 . S
H1998 C2004 0.930 . S
H1999 C2008 0.930 . S
H2000 C2013 0.929 . S
H2001 C2011 0.929 . S
H2002 C2006 0.929 . S
H2003 C2012 0.929 . S
C2004 H1998 0.930 . S
C2004 C2005 1.367 . S
C2004 C2012 1.378 . S
C2005 C2004 1.367 . S
C2005 C2013 1.433 . S
C2006 H2002 0.929 . S
C2006 C2008 1.378 . S
C2006 C2010 1.350 . S
C2007 C2010 1.463 . S
C2007 C2012 1.350 . S
C2007 N2015 1.427 . S
C2008 H1999 0.930 . S
C2008 C2006 1.378 . S
C2008 C2009 1.367 . S
C2009 C2008 1.367 . S
C2009 C2011 1.433 . S
C2010 C2006 1.350 . S
C2010 C2007 1.463 . S
C2010 N2014 1.427 . S
C2011 H2001 0.929 . S
C2011 C2009 1.433 . S
C2011 N2014 1.384 . S
C2012 H2003 0.929 . S
C2012 C2004 1.378 . S
C2012 C2007 1.350 . S
C2013 H2000 0.929 . S
C2013 C2005 1.433 . S
C2013 N2015 1.384 . S
N2014 C2010 1.427 . S
N2014 C2011 1.384 . S
N2015 C2007 1.427 . S
N2015 C2013 1.384 . S
H2016 C2022 0.930 . S
H2017 C2026 0.930 . S
H2018 C2031 0.929 . S
H2019 C2029 0.929 . S
H2020 C2024 0.929 . S
H2021 C2030 0.929 . S
C2022 H2016 0.930 . S
C2022 C2023 1.367 . S
C2022 C2030 1.378 . S
C2023 C2022 1.367 . S
C2023 C2031 1.433 . S
C2024 H2020 0.929 . S
C2024 C2026 1.378 . S
C2024 C2028 1.350 . S
C2025 C2028 1.463 . S
C2025 C2030 1.350 . S
C2025 N2033 1.427 . S
C2026 H2017 0.930 . S
C2026 C2024 1.378 . S
C2026 C2027 1.367 . S
C2027 C2026 1.367 . S
C2027 C2029 1.433 . S
C2028 C2024 1.350 . S
C2028 C2025 1.463 . S
C2028 N2032 1.427 . S
C2029 H2019 0.929 . S
C2029 C2027 1.433 . S
C2029 N2032 1.384 . S
C2030 H2021 0.929 . S
C2030 C2022 1.378 . S
C2030 C2025 1.350 . S
C2031 H2018 0.929 . S
C2031 C2023 1.433 . S
C2031 N2033 1.384 . S
N2032 C2028 1.427 . S
N2032 C2029 1.384 . S
N2033 C2025 1.427 . S
N2033 C2031 1.384 . S
H2034 C2040 0.930 . S
H2035 C2044 0.930 . S
H2036 C2049 0.929 . S
H2037 C2047 0.929 . S
H2038 C2042 0.929 . S
H2039 C2048 0.929 . S
C2040 H2034 0.930 . S
C2040 C2041 1.367 . S
C2040 C2048 1.378 . S
C2041 C2040 1.367 . S
C2041 C2049 1.433 . S
C2042 H2038 0.929 . S
C2042 C2044 1.378 . S
C2042 C2046 1.350 . S
C2043 C2046 1.463 . S
C2043 C2048 1.350 . S
C2043 N2051 1.427 . S
C2044 H2035 0.930 . S
C2044 C2042 1.378 . S
C2044 C2045 1.367 . S
C2045 C2044 1.367 . S
C2045 C2047 1.433 . S
C2046 C2042 1.350 . S
C2046 C2043 1.463 . S
C2046 N2050 1.427 . S
C2047 H2037 0.929 . S
C2047 C2045 1.433 . S
C2047 N2050 1.384 . S
C2048 H2039 0.929 . S
C2048 C2040 1.378 . S
C2048 C2043 1.350 . S
C2049 H2036 0.929 . S
C2049 C2041 1.433 . S
C2049 N2051 1.384 . S
N2050 C2046 1.427 . S
N2050 C2047 1.384 . S
N2051 C2043 1.427 . S
N2051 C2049 1.384 . S
H2052 C2058 0.930 . S
H2053 C2062 0.930 . S
H2054 C2067 0.929 . S
H2055 C2065 0.929 . S
H2056 C2060 0.929 . S
H2057 C2066 0.929 . S
C2058 H2052 0.930 . S
C2058 C2059 1.367 . S
C2058 C2066 1.378 . S
C2059 C2058 1.367 . S
C2059 C2067 1.433 1_455 S
C2060 H2056 0.929 . S
C2060 C2062 1.378 . S
C2060 C2064 1.350 1_655 S
C2061 C2064 1.463 . S
C2061 C2066 1.350 . S
C2061 N2069 1.427 1_455 S
C2062 H2053 0.930 . S
C2062 C2060 1.378 . S
C2062 C2063 1.335 1_655 S
C2063 C2062 1.335 1_455 S
C2063 C2065 1.469 . S
C2064 C2060 1.350 1_455 S
C2064 C2061 1.463 . S
C2064 N2068 1.427 . S
C2065 H2055 0.929 . S
C2065 C2063 1.469 . S
C2065 N2068 1.384 . S
C2066 H2057 0.929 . S
C2066 C2058 1.378 . S
C2066 C2061 1.350 . S
C2067 H2054 0.929 . S
C2067 C2059 1.433 1_655 S
C2067 N2069 1.384 . S
N2068 C2064 1.427 . S
N2068 C2065 1.384 . S
N2069 C2061 1.427 1_655 S
N2069 C2067 1.384 . S
H2070 C2076 0.930 . S
H2071 C2080 0.930 . S
H2072 C2085 0.929 . S
H2073 C2083 0.929 . S
H2074 C2078 0.929 . S
H2075 C2084 0.929 . S
C2076 H2070 0.930 . S
C2076 C2077 1.367 . S
C2076 C2084 1.378 . S
C2077 C2076 1.367 . S
C2077 C2085 1.433 . S
C2078 H2074 0.929 . S
C2078 C2080 1.378 . S
C2078 C2082 1.350 . S
C2079 C2082 1.463 . S
C2079 C2084 1.350 . S
C2079 N2087 1.427 . S
C2080 H2071 0.930 . S
C2080 C2078 1.378 . S
C2080 C2081 1.367 . S
C2081 C2080 1.367 . S
C2081 C2083 1.433 . S
C2082 C2078 1.350 . S
C2082 C2079 1.463 . S
C2082 N2086 1.427 . S
C2083 H2073 0.929 . S
C2083 C2081 1.433 . S
C2083 N2086 1.384 . S
C2084 H2075 0.929 . S
C2084 C2076 1.378 . S
C2084 C2079 1.350 . S
C2085 H2072 0.929 . S
C2085 C2077 1.433 . S
C2085 N2087 1.384 . S
N2086 C2082 1.427 . S
N2086 C2083 1.384 . S
N2087 C2079 1.427 . S
N2087 C2085 1.384 . S
H2088 C2094 0.930 . S
H2089 C2098 0.930 . S
H2090 C2103 0.929 . S
H2091 C2101 0.929 . S
H2092 C2096 0.929 . S
H2093 C2102 0.929 . S
C2094 H2088 0.930 . S
C2094 C2095 1.367 . S
C2094 C2102 1.378 . S
C2095 C2094 1.367 . S
C2095 C2103 1.433 . S
C2096 H2092 0.929 . S
C2096 C2098 1.378 . S
C2096 C2100 1.350 . S
C2097 C2100 1.463 . S
C2097 C2102 1.350 . S
C2097 N2105 1.427 . S
C2098 H2089 0.930 . S
C2098 C2096 1.378 . S
C2098 C2099 1.367 . S
C2099 C2098 1.367 . S
C2099 C2101 1.433 . S
C2100 C2096 1.350 . S
C2100 C2097 1.463 . S
C2100 N2104 1.427 . S
C2101 H2091 0.929 . S
C2101 C2099 1.433 . S
C2101 N2104 1.384 . S
C2102 H2093 0.929 . S
C2102 C2094 1.378 . S
C2102 C2097 1.350 . S
C2103 H2090 0.929 . S
C2103 C2095 1.433 . S
C2103 N2105 1.384 . S
N2104 C2100 1.427 . S
N2104 C2101 1.384 . S
N2105 C2097 1.427 . S
N2105 C2103 1.384 . S
H2106 C2112 0.930 . S
H2107 C2116 0.930 . S
H2108 C2121 0.929 . S
H2109 C2119 0.929 . S
H2110 C2114 0.929 . S
H2111 C2120 0.929 . S
C2112 H2106 0.930 . S
C2112 C2113 1.367 . S
C2112 C2120 1.378 . S
C2113 C2112 1.367 . S
C2113 C2121 1.433 . S
C2114 H2110 0.929 . S
C2114 C2116 1.378 . S
C2114 C2118 1.350 . S
C2115 C2118 1.463 . S
C2115 C2120 1.350 . S
C2115 N2123 1.427 . S
C2116 H2107 0.930 . S
C2116 C2114 1.378 . S
C2116 C2117 1.367 . S
C2117 C2116 1.367 . S
C2117 C2119 1.433 . S
C2118 C2114 1.350 . S
C2118 C2115 1.463 . S
C2118 N2122 1.427 . S
C2119 H2109 0.929 . S
C2119 C2117 1.433 . S
C2119 N2122 1.384 . S
C2120 H2111 0.929 . S
C2120 C2112 1.378 . S
C2120 C2115 1.350 . S
C2121 H2108 0.929 . S
C2121 C2113 1.433 . S
C2121 N2123 1.384 . S
N2122 C2118 1.427 . S
N2122 C2119 1.384 . S
N2123 C2115 1.427 . S
N2123 C2121 1.384 . S
H2124 C2130 0.930 . S
H2125 C2134 0.930 . S
H2126 C2139 0.929 . S
H2127 C2137 0.929 . S
H2128 C2132 0.929 . S
H2129 C2138 0.929 . S
C2130 H2124 0.930 . S
C2130 C2131 1.367 . S
C2130 C2138 1.378 . S
C2131 C2130 1.367 . S
C2131 C2139 1.433 . S
C2132 H2128 0.929 . S
C2132 C2134 1.378 . S
C2132 C2136 1.350 . S
C2133 C2136 1.463 . S
C2133 C2138 1.350 . S
C2133 N2141 1.427 . S
C2134 H2125 0.930 . S
C2134 C2132 1.378 . S
C2134 C2135 1.367 . S
C2135 C2134 1.367 . S
C2135 C2137 1.433 . S
C2136 C2132 1.350 . S
C2136 C2133 1.463 . S
C2136 N2140 1.427 . S
C2137 H2127 0.929 . S
C2137 C2135 1.433 . S
C2137 N2140 1.384 . S
C2138 H2129 0.929 . S
C2138 C2130 1.378 . S
C2138 C2133 1.350 . S
C2139 H2126 0.929 . S
C2139 C2131 1.433 . S
C2139 N2141 1.384 . S
N2140 C2136 1.427 . S
N2140 C2137 1.384 . S
N2141 C2133 1.427 . S
N2141 C2139 1.384 . S
H2142 C2148 0.930 . S
H2143 C2152 0.930 . S
H2144 C2157 0.929 . S
H2145 C2155 0.929 . S
H2146 C2150 0.929 . S
H2147 C2156 0.929 . S
C2148 H2142 0.930 . S
C2148 C2149 1.367 . S
C2148 C2156 1.378 . S
C2149 C2148 1.367 . S
C2149 C2157 1.433 . S
C2150 H2146 0.929 . S
C2150 C2152 1.378 . S
C2150 C2154 1.350 . S
C2151 C2154 1.463 . S
C2151 C2156 1.350 . S
C2151 N2159 1.427 . S
C2152 H2143 0.930 . S
C2152 C2150 1.378 . S
C2152 C2153 1.367 . S
C2153 C2152 1.367 . S
C2153 C2155 1.433 . S
C2154 C2150 1.350 . S
C2154 C2151 1.463 . S
C2154 N2158 1.427 . S
C2155 H2145 0.929 . S
C2155 C2153 1.433 . S
C2155 N2158 1.384 . S
C2156 H2147 0.929 . S
C2156 C2148 1.378 . S
C2156 C2151 1.350 . S
C2157 H2144 0.929 . S
C2157 C2149 1.433 . S
C2157 N2159 1.384 . S
N2158 C2154 1.427 . S
N2158 C2155 1.384 . S
N2159 C2151 1.427 . S
N2159 C2157 1.384 . S
H2160 C2166 0.930 . S
H2161 C2170 0.930 . S
H2162 C2175 0.929 . S
H2163 C2173 0.929 . S
H2164 C2168 0.929 . S
H2165 C2174 0.929 . S
C2166 H2160 0.930 . S
C2166 C2167 1.367 . S
C2166 C2174 1.378 . S
C2167 C2166 1.367 . S
C2167 C2175 1.433 . S
C2168 H2164 0.929 . S
C2168 C2170 1.378 . S
C2168 C2172 1.350 . S
C2169 C2172 1.463 . S
C2169 C2174 1.350 . S
C2169 N2177 1.427 . S
C2170 H2161 0.930 . S
C2170 C2168 1.378 . S
C2170 C2171 1.367 . S
C2171 C2170 1.367 . S
C2171 C2173 1.433 . S
C2172 C2168 1.350 . S
C2172 C2169 1.463 . S
C2172 N2176 1.427 . S
C2173 H2163 0.929 . S
C2173 C2171 1.433 . S
C2173 N2176 1.384 . S
C2174 H2165 0.929 . S
C2174 C2166 1.378 . S
C2174 C2169 1.350 . S
C2175 H2162 0.929 . S
C2175 C2167 1.433 . S
C2175 N2177 1.384 . S
N2176 C2172 1.427 . S
N2176 C2173 1.384 . S
N2177 C2169 1.427 . S
N2177 C2175 1.384 . S
H2178 C2184 0.930 . S
H2179 C2188 0.930 . S
H2180 C2193 0.929 . S
H2181 C2191 0.929 . S
H2182 C2186 0.929 . S
H2183 C2192 0.929 . S
C2184 H2178 0.930 . S
C2184 C2185 1.367 . S
C2184 C2192 1.378 . S
C2185 C2184 1.367 . S
C2185 C2193 1.433 . S
C2186 H2182 0.929 . S
C2186 C2188 1.378 . S
C2186 C2190 1.350 . S
C2187 C2190 1.463 . S
C2187 C2192 1.350 . S
C2187 N2195 1.427 . S
C2188 H2179 0.930 . S
C2188 C2186 1.378 . S
C2188 C2189 1.367 . S
C2189 C2188 1.367 . S
C2189 C2191 1.433 . S
C2190 C2186 1.350 . S
C2190 C2187 1.463 . S
C2190 N2194 1.427 . S
C2191 H2181 0.929 . S
C2191 C2189 1.433 . S
C2191 N2194 1.384 . S
C2192 H2183 0.929 . S
C2192 C2184 1.378 . S
C2192 C2187 1.350 . S
C2193 H2180 0.929 . S
C2193 C2185 1.433 . S
C2193 N2195 1.384 . S
N2194 C2190 1.427 . S
N2194 C2191 1.384 . S
N2195 C2187 1.427 . S
N2195 C2193 1.384 . S
H2196 C2202 0.930 . S
H2197 C2206 0.930 . S
H2198 C2211 0.929 . S
H2199 C2209 0.929 . S
H2200 C2204 0.929 . S
H2201 C2210 0.929 . S
C2202 H2196 0.930 . S
C2202 C2203 1.367 . S
C2202 C2210 1.378 . S
C2203 C2202 1.367 . S
C2203 C2211 1.433 . S
C2204 H2200 0.929 . S
C2204 C2206 1.378 . S
C2204 C2208 1.350 . S
C2205 C2208 1.463 . S
C2205 C2210 1.350 . S
C2205 N2213 1.427 . S
C2206 H2197 0.930 . S
C2206 C2204 1.378 . S
C2206 C2207 1.367 . S
C2207 C2206 1.367 . S
C2207 C2209 1.433 . S
C2208 C2204 1.350 . S
C2208 C2205 1.463 . S
C2208 N2212 1.427 . S
C2209 H2199 0.929 . S
C2209 C2207 1.433 . S
C2209 N2212 1.384 . S
C2210 H2201 0.929 . S
C2210 C2202 1.378 . S
C2210 C2205 1.350 . S
C2211 H2198 0.929 . S
C2211 C2203 1.433 . S
C2211 N2213 1.384 . S
N2212 C2208 1.427 . S
N2212 C2209 1.384 . S
N2213 C2205 1.427 . S
N2213 C2211 1.384 . S
H2214 C2220 0.930 . S
H2215 C2224 0.930 . S
H2216 C2229 0.929 . S
H2217 C2227 0.929 . S
H2218 C2222 0.929 . S
H2219 C2228 0.929 . S
C2220 H2214 0.930 . S
C2220 C2221 1.367 . S
C2220 C2228 1.378 . S
C2221 C2220 1.367 . S
C2221 C2229 1.433 . S
C2222 H2218 0.929 . S
C2222 C2224 1.378 . S
C2222 C2226 1.350 . S
C2223 C2226 1.463 . S
C2223 C2228 1.350 . S
C2223 N2231 1.427 . S
C2224 H2215 0.930 . S
C2224 C2222 1.378 . S
C2224 C2225 1.367 . S
C2225 C2224 1.367 . S
C2225 C2227 1.433 . S
C2226 C2222 1.350 . S
C2226 C2223 1.463 . S
C2226 N2230 1.427 . S
C2227 H2217 0.929 . S
C2227 C2225 1.433 . S
C2227 N2230 1.384 . S
C2228 H2219 0.929 . S
C2228 C2220 1.378 . S
C2228 C2223 1.350 . S
C2229 H2216 0.929 . S
C2229 C2221 1.433 . S
C2229 N2231 1.384 . S
N2230 C2226 1.427 . S
N2230 C2227 1.384 . S
N2231 C2223 1.427 . S
N2231 C2229 1.384 . S
H2232 C2238 0.930 . S
H2233 C2242 0.930 . S
H2234 C2247 0.929 . S
H2235 C2245 0.929 . S
H2236 C2240 0.929 . S
H2237 C2246 0.929 . S
C2238 H2232 0.930 . S
C2238 C2239 1.367 . S
C2238 C2246 1.378 . S
C2239 C2238 1.367 . S
C2239 C2247 1.433 . S
C2240 H2236 0.929 . S
C2240 C2242 1.378 . S
C2240 C2244 1.350 . S
C2241 C2244 1.463 . S
C2241 C2246 1.350 . S
C2241 N2249 1.427 . S
C2242 H2233 0.930 . S
C2242 C2240 1.378 . S
C2242 C2243 1.367 . S
C2243 C2242 1.367 . S
C2243 C2245 1.433 . S
C2244 C2240 1.350 . S
C2244 C2241 1.463 . S
C2244 N2248 1.427 . S
C2245 H2235 0.929 . S
C2245 C2243 1.433 . S
C2245 N2248 1.384 . S
C2246 H2237 0.929 . S
C2246 C2238 1.378 . S
C2246 C2241 1.350 . S
C2247 H2234 0.929 . S
C2247 C2239 1.433 . S
C2247 N2249 1.384 . S
N2248 C2244 1.427 . S
N2248 C2245 1.384 . S
N2249 C2241 1.427 . S
N2249 C2247 1.384 . S
H2250 C2256 0.930 . S
H2251 C2260 0.930 . S
H2252 C2265 0.929 . S
H2253 C2263 0.929 . S
H2254 C2258 0.929 . S
H2255 C2264 0.929 . S
C2256 H2250 0.930 . S
C2256 C2257 1.367 . S
C2256 C2264 1.378 . S
C2257 C2256 1.367 . S
C2257 C2265 1.433 . S
C2258 H2254 0.929 . S
C2258 C2260 1.378 . S
C2258 C2262 1.350 . S
C2259 C2262 1.463 . S
C2259 C2264 1.350 . S
C2259 N2267 1.427 . S
C2260 H2251 0.930 . S
C2260 C2258 1.378 . S
C2260 C2261 1.367 . S
C2261 C2260 1.367 . S
C2261 C2263 1.433 . S
C2262 C2258 1.350 . S
C2262 C2259 1.463 . S
C2262 N2266 1.427 . S
C2263 H2253 0.929 . S
C2263 C2261 1.433 . S
C2263 N2266 1.384 . S
C2264 H2255 0.929 . S
C2264 C2256 1.378 . S
C2264 C2259 1.350 . S
C2265 H2252 0.929 . S
C2265 C2257 1.433 . S
C2265 N2267 1.384 . S
N2266 C2262 1.427 . S
N2266 C2263 1.384 . S
N2267 C2259 1.427 . S
N2267 C2265 1.384 . S
H2268 C2274 0.930 . S
H2269 C2278 0.930 . S
H2270 C2283 0.929 . S
H2271 C2281 0.929 . S
H2272 C2276 0.929 . S
H2273 C2282 0.929 . S
C2274 H2268 0.930 . S
C2274 C2275 1.367 . S
C2274 C2282 1.378 . S
C2275 C2274 1.367 . S
C2275 C2283 1.433 . S
C2276 H2272 0.929 . S
C2276 C2278 1.378 . S
C2276 C2280 1.350 . S
C2277 C2280 1.463 . S
C2277 C2282 1.350 . S
C2277 N2285 1.427 . S
C2278 H2269 0.930 . S
C2278 C2276 1.378 . S
C2278 C2279 1.367 . S
C2279 C2278 1.367 . S
C2279 C2281 1.433 . S
C2280 C2276 1.350 . S
C2280 C2277 1.463 . S
C2280 N2284 1.427 . S
C2281 H2271 0.929 . S
C2281 C2279 1.433 . S
C2281 N2284 1.384 . S
C2282 H2273 0.929 . S
C2282 C2274 1.378 . S
C2282 C2277 1.350 . S
C2283 H2270 0.929 . S
C2283 C2275 1.433 . S
C2283 N2285 1.384 . S
N2284 C2280 1.427 . S
N2284 C2281 1.384 . S
N2285 C2277 1.427 . S
N2285 C2283 1.384 . S
H2286 C2292 0.930 . S
H2287 C2296 0.930 . S
H2288 C2301 0.929 . S
H2289 C2299 0.929 . S
H2290 C2294 0.929 . S
H2291 C2300 0.929 . S
C2292 H2286 0.930 . S
C2292 C2293 1.367 . S
C2292 C2300 1.378 . S
C2293 C2292 1.367 . S
C2293 C2301 1.433 1_554 S
C2294 H2290 0.929 . S
C2294 C2296 1.378 . S
C2294 C2298 1.350 1_556 S
C2295 C2298 1.463 . S
C2295 C2300 1.350 . S
C2295 N2303 1.427 1_554 S
C2296 H2287 0.930 . S
C2296 C2294 1.378 . S
C2296 C2297 1.367 . S
C2297 C2296 1.367 . S
C2297 C2299 1.433 1_556 S
C2298 C2294 1.350 1_554 S
C2298 C2295 1.463 . S
C2298 N2302 1.427 . S
C2299 H2289 0.929 . S
C2299 C2297 1.433 1_554 S
C2299 N2302 1.384 . S
C2300 H2291 0.929 . S
C2300 C2292 1.378 . S
C2300 C2295 1.350 . S
C2301 H2288 0.929 . S
C2301 C2293 1.433 1_556 S
C2301 N2303 1.384 . S
N2302 C2298 1.427 . S
N2302 C2299 1.384 . S
N2303 C2295 1.427 1_556 S
N2303 C2301 1.384 . S
H2304 C2310 0.930 . S
H2305 C2314 0.930 . S
H2306 C2319 0.929 . S
H2307 C2317 0.929 . S
H2308 C2312 0.929 . S
H2309 C2318 0.929 . S
C2310 H2304 0.930 . S
C2310 C2311 1.367 . S
C2310 C2318 1.378 . S
C2311 C2310 1.367 . S
C2311 C2319 1.433 . S
C2312 H2308 0.929 . S
C2312 C2314 1.378 . S
C2312 C2316 1.350 . S
C2313 C2316 1.463 . S
C2313 C2318 1.350 . S
C2313 N2321 1.427 . S
C2314 H2305 0.930 . S
C2314 C2312 1.378 . S
C2314 C2315 1.367 . S
C2315 C2314 1.367 . S
C2315 C2317 1.433 . S
C2316 C2312 1.350 . S
C2316 C2313 1.463 . S
C2316 N2320 1.427 . S
C2317 H2307 0.929 . S
C2317 C2315 1.433 . S
C2317 N2320 1.384 . S
C2318 H2309 0.929 . S
C2318 C2310 1.378 . S
C2318 C2313 1.350 . S
C2319 H2306 0.929 . S
C2319 C2311 1.433 . S
C2319 N2321 1.384 . S
N2320 C2316 1.427 . S
N2320 C2317 1.384 . S
N2321 C2313 1.427 . S
N2321 C2319 1.384 . S
H2322 C2328 0.930 . S
H2323 C2332 0.930 . S
H2324 C2337 0.929 . S
H2325 C2335 0.929 . S
H2326 C2330 0.929 . S
H2327 C2336 0.929 . S
C2328 H2322 0.930 . S
C2328 C2329 1.367 . S
C2328 C2336 1.378 . S
C2329 C2328 1.367 . S
C2329 C2337 1.433 1_556 S
C2330 H2326 0.929 . S
C2330 C2332 1.378 . S
C2330 C2334 1.350 . S
C2331 C2334 1.463 . S
C2331 C2336 1.350 1_554 S
C2331 N2339 1.427 . S
C2332 H2323 0.930 . S
C2332 C2330 1.378 . S
C2332 C2333 1.367 . S
C2333 C2332 1.367 . S
C2333 C2335 1.433 1_554 S
C2334 C2330 1.350 . S
C2334 C2331 1.463 . S
C2334 N2338 1.427 1_554 S
C2335 H2325 0.929 . S
C2335 C2333 1.433 1_556 S
C2335 N2338 1.384 . S
C2336 H2327 0.929 . S
C2336 C2328 1.378 . S
C2336 C2331 1.350 1_556 S
C2337 H2324 0.929 . S
C2337 C2329 1.433 1_554 S
C2337 N2339 1.384 . S
N2338 C2334 1.427 1_556 S
N2338 C2335 1.384 . S
N2339 C2331 1.427 . S
N2339 C2337 1.384 . S
H2340 C2346 0.930 . S
H2341 C2350 0.930 . S
H2342 C2355 0.929 . S
H2343 C2353 0.929 . S
H2344 C2348 0.929 . S
H2345 C2354 0.929 . S
C2346 H2340 0.930 . S
C2346 C2347 1.367 . S
C2346 C2354 1.378 . S
C2347 C2346 1.367 . S
C2347 C2355 1.433 . S
C2348 H2344 0.929 . S
C2348 C2350 1.378 . S
C2348 C2352 1.350 . S
C2349 C2352 1.463 . S
C2349 C2354 1.350 . S
C2349 N2357 1.427 . S
C2350 H2341 0.930 . S
C2350 C2348 1.378 . S
C2350 C2351 1.367 . S
C2351 C2350 1.367 . S
C2351 C2353 1.433 . S
C2352 C2348 1.350 . S
C2352 C2349 1.463 . S
C2352 N2356 1.427 . S
C2353 H2343 0.929 . S
C2353 C2351 1.433 . S
C2353 N2356 1.384 . S
C2354 H2345 0.929 . S
C2354 C2346 1.378 . S
C2354 C2349 1.350 . S
C2355 H2342 0.929 . S
C2355 C2347 1.433 . S
C2355 N2357 1.384 . S
N2356 C2352 1.427 . S
N2356 C2353 1.384 . S
N2357 C2349 1.427 . S
N2357 C2355 1.384 . S
H2358 C2364 0.930 . S
H2359 C2368 0.930 . S
H2360 C2373 0.929 . S
H2361 C2371 0.929 . S
H2362 C2366 0.929 . S
H2363 C2372 0.929 . S
C2364 H2358 0.930 . S
C2364 C2365 1.367 . S
C2364 C2372 1.378 . S
C2365 C2364 1.367 . S
C2365 C2373 1.433 . S
C2366 H2362 0.929 . S
C2366 C2368 1.378 . S
C2366 C2370 1.350 . S
C2367 C2370 1.463 . S
C2367 C2372 1.350 . S
C2367 N2375 1.427 . S
C2368 H2359 0.930 . S
C2368 C2366 1.378 . S
C2368 C2369 1.367 . S
C2369 C2368 1.367 . S
C2369 C2371 1.433 . S
C2370 C2366 1.350 . S
C2370 C2367 1.463 . S
C2370 N2374 1.427 . S
C2371 H2361 0.929 . S
C2371 C2369 1.433 . S
C2371 N2374 1.384 . S
C2372 H2363 0.929 . S
C2372 C2364 1.378 . S
C2372 C2367 1.350 . S
C2373 H2360 0.929 . S
C2373 C2365 1.433 . S
C2373 N2375 1.384 . S
N2374 C2370 1.427 . S
N2374 C2371 1.384 . S
N2375 C2367 1.427 . S
N2375 C2373 1.384 . S
C659 C328 1.388 . S
C655 C10 1.511 . S
C673 C23 1.381 . S
C677 C348 1.335 . S
C691 C36 1.494 . S
C695 C370 1.372 . S
C713 C389 1.482 . S
C709 C42 1.513 . S
C727 C18 1.494 . S
C731 C410 1.468 . S
C749 C433 1.462 . S
C745 C31 1.565 . S
C767 C456 1.306 . S
C763 C43 1.360 . S
C781 C5 1.491 . S
C785 C474 1.437 . S
C799 C56 1.483 . S
C803 C330 1.429 . S
C817 C70 1.520 . S
C821 C350 1.491 . S
C839 C372 1.337 . S
C835 C82 1.383 . S
C857 C391 1.432 . S
C853 C96 1.556 . S
C871 C57 1.563 . S
C875 C412 1.449 . S
C893 C435 1.294 . S
C889 C69 1.346 . S
C911 C452 1.486 . S
C907 C83 1.516 . S
C929 C476 1.464 . S
C925 C95 1.480 . S
C947 C326 1.459 . S
C943 C94 1.487 . S
C965 C498 1.303 . S
C961 C108 1.347 . S
C979 C122 1.493 . S
C983 C515 1.469 . S
C1001 C538 1.425 . S
C997 C140 1.554 . S
C1015 C55 1.520 . S
C1019 C472 1.390 . S
C1037 C368 1.497 . S
C1033 C68 1.519 . S
C1051 C121 1.366 . S
C1055 C561 1.316 . S
C1073 C577 1.374 . S
C1069 C153 1.495 . S
C1087 C161 1.218 . S
C1091 C325 1.122 . S
C1109 C578 1.181 . S
C1105 C174 1.198 . S
C1123 C186 1.288 . S
C1127 C367 1.215 . S
C1141 C200 1.141 . S
C1145 C558 1.109 . S
C1163 C411 1.110 . S
C1159 C172 1.145 . S
C1181 C514 1.170 . S
C1177 C192 1.256 . S
C1199 C455 1.207 . S
C1195 C198 1.224 . S
C1217 C599 1.262 . S
C1213 C159 1.287 . S
C1235 C329 1.264 . S
C1231 C211 1.278 . S
C1249 C225 1.133 . S
C1253 C582 1.108 . S
C1271 C371 1.164 1_545 S
C1267 C239 1.199 . S
C1285 C251 1.231 . S
C1289 C556 1.145 . S
C1303 C218 1.258 . S
C1307 C409 1.180 . S
C1321 C226 1.233 . S
C1325 C518 1.213 . S
C1343 C453 1.097 . S
C1339 C238 1.131 . S
C1357 C252 1.190 . S
C1361 C603 1.167 . S
C1375 C250 1.195 . S
C1379 C327 1.173 . S
C1393 C264 1.226 . S
C1397 C497 1.190 1_554 S
C1411 C276 1.140 . S
C1415 C432 1.120 . S
C1429 C290 1.230 . S
C1433 C535 1.157 . S
C1451 C601 1.128 . S
C1447 C213 1.216 . S
C1469 C369 1.108 . S
C1465 C224 1.142 . S
C1487 C392 1.189 . S
C1483 C283 1.218 . S
C1505 C349 1.216 . S
C1501 C303 1.293 . S
C1519 C29 1.518 . S
C1523 C622 1.390 . S
C1541 C579 1.324 . S
C1537 C49 1.379 . S
C1559 C643 1.387 . S
C1555 C3 1.499 . S
C1573 C16 1.511 . S
C1577 C557 1.489 . S
C1591 C44 1.493 . S
C1595 C494 1.473 . S
C1613 C517 1.454 . S
C1609 C4 1.556 . S
C1631 C540 1.320 . S
C1627 C17 1.364 . S
C1649 C600 1.426 . S
C1645 C30 1.482 . S
C1667 C624 1.422 . S
C1663 C147 1.482 . S
C1681 C107 1.523 . S
C1685 C581 1.495 . S
C1699 C127 1.385 . S
C1703 C645 1.340 . S
C1721 C559 1.443 . S
C1717 C135 1.559 . S
C1739 C496 1.439 . S
C1735 C148 1.562 . S
C1753 C114 1.344 . S
C1757 C519 1.292 . S
C1775 C536 1.485 . S
C1771 C120 1.510 . S
C1789 C134 1.481 . S
C1793 C602 1.457 . S
C1811 C620 1.457 . S
C1807 C133 1.489 . S
C1829 C414 1.295 . S
C1825 C75 1.346 . S
C1847 C431 1.470 . S
C1843 C81 1.494 . S
C1861 C101 1.554 . S
C1865 C454 1.446 . S
C1883 C598 1.386 . S
C1879 C146 1.517 . S
C1897 C109 1.521 1_556 S
C1901 C641 1.494 . S
C1919 C393 1.316 . S
C1915 C88 1.364 . S
C1937 C346 1.377 . S
C1933 C62 1.495 . S
C1951 C187 1.215 . S
C1955 C619 1.131 . S
C1973 C347 1.170 . S
C1969 C199 1.195 . S
C1991 C640 1.191 . S
C1987 C160 1.293 . S
C2005 C173 1.134 . S
C2009 C390 1.117 . S
C2023 C205 1.130 . S
C2027 C495 1.103 . S
C2041 C166 1.258 . S
C2045 C430 1.159 . S
C2059 C179 1.217 . S
C2063 C539 1.183 1_455 S
C2077 C185 1.286 . S
C2081 C473 1.261 . S
C2099 C623 1.254 . S
C2095 C302 1.282 . S
C2113 C270 1.138 . S
C2117 C351 1.114 . S
C2135 C644 1.170 . S
C2131 C278 1.198 . S
C2149 C296 1.235 . S
C2153 C388 1.148 . S
C2167 C309 1.264 . S
C2171 C493 1.170 . S
C2189 C434 1.204 . S
C2185 C263 1.230 . S
C2203 C277 1.134 . S
C2207 C537 1.118 . S
C2225 C477 1.156 . S
C2221 C289 1.195 . S
C2243 C621 1.171 . S
C2239 C291 1.197 . S
C2261 C413 1.203 . S
C2257 C231 1.227 . S
C2275 C237 1.141 . S
C2279 C516 1.121 . S
C2297 C451 1.141 . S
C2293 C257 1.232 . S
C2315 C475 1.137 . S
C2311 C304 1.212 . S
C2329 C265 1.145 . S
C2333 C642 1.125 . S
C2351 C560 1.191 . S
C2347 C244 1.216 . S
C2369 C580 1.201 . S
C2365 C212 1.293 . S
