# Generated by pormake.
# Topology pyr, (3,6)-cn, num edge types: 1
# Building blocks:
#     Node 0, Type 0, BuildingBlock: OLANEW_clean_sbu_2, # of connection points: 3
#     Node 1, Type 0, BuildingBlock: OLANEW_clean_sbu_2, # of connection points: 3
#     Node 2, Type 0, BuildingBlock: OLANEW_clean_sbu_2, # of connection points: 3
#     Node 3, Type 0, BuildingBlock: OLANEW_clean_sbu_2, # of connection points: 3
#     Node 4, Type 0, BuildingBlock: OLANEW_clean_sbu_2, # of connection points: 3
#     Node 5, Type 0, BuildingBlock: OLANEW_clean_sbu_2, # of connection points: 3
#     Node 6, Type 0, BuildingBlock: OLANEW_clean_sbu_2, # of connection points: 3
#     Node 7, Type 0, BuildingBlock: OLANEW_clean_sbu_2, # of connection points: 3
#     Node 8, Type 1, BuildingBlock: GEDQOX_clean_sbu_0, # of connection points: 6
#     Node 9, Type 1, BuildingBlock: GEDQOX_clean_sbu_0, # of connection points: 6
#     Node 10, Type 1, BuildingBlock: GEDQOX_clean_sbu_0, # of connection points: 6
#     Node 11, Type 1, BuildingBlock: GEDQOX_clean_sbu_0, # of connection points: 6
#     Edge 12, Type (0, 1), BuildingBlock: UVAHIK_clean_linker_0, # of connection points: 2
#     Edge 13, Type (0, 1), BuildingBlock: UVAHIK_clean_linker_0, # of connection points: 2
#     Edge 14, Type (0, 1), BuildingBlock: UVAHIK_clean_linker_0, # of connection points: 2
#     Edge 15, Type (0, 1), BuildingBlock: UVAHIK_clean_linker_0, # of connection points: 2
#     Edge 16, Type (0, 1), BuildingBlock: UVAHIK_clean_linker_0, # of connection points: 2
#     Edge 17, Type (0, 1), BuildingBlock: UVAHIK_clean_linker_0, # of connection points: 2
#     Edge 18, Type (0, 1), BuildingBlock: UVAHIK_clean_linker_0, # of connection points: 2
#     Edge 19, Type (0, 1), BuildingBlock: UVAHIK_clean_linker_0, # of connection points: 2
#     Edge 20, Type (0, 1), BuildingBlock: UVAHIK_clean_linker_0, # of connection points: 2
#     Edge 21, Type (0, 1), BuildingBlock: UVAHIK_clean_linker_0, # of connection points: 2
#     Edge 22, Type (0, 1), BuildingBlock: UVAHIK_clean_linker_0, # of connection points: 2
#     Edge 23, Type (0, 1), BuildingBlock: UVAHIK_clean_linker_0, # of connection points: 2
#     Edge 24, Type (0, 1), BuildingBlock: UVAHIK_clean_linker_0, # of connection points: 2
#     Edge 25, Type (0, 1), BuildingBlock: UVAHIK_clean_linker_0, # of connection points: 2
#     Edge 26, Type (0, 1), BuildingBlock: UVAHIK_clean_linker_0, # of connection points: 2
#     Edge 27, Type (0, 1), BuildingBlock: UVAHIK_clean_linker_0, # of connection points: 2
#     Edge 28, Type (0, 1), BuildingBlock: UVAHIK_clean_linker_0, # of connection points: 2
#     Edge 29, Type (0, 1), BuildingBlock: UVAHIK_clean_linker_0, # of connection points: 2
#     Edge 30, Type (0, 1), BuildingBlock: UVAHIK_clean_linker_0, # of connection points: 2
#     Edge 31, Type (0, 1), BuildingBlock: UVAHIK_clean_linker_0, # of connection points: 2
#     Edge 32, Type (0, 1), BuildingBlock: UVAHIK_clean_linker_0, # of connection points: 2
#     Edge 33, Type (0, 1), BuildingBlock: UVAHIK_clean_linker_0, # of connection points: 2
#     Edge 34, Type (0, 1), BuildingBlock: UVAHIK_clean_linker_0, # of connection points: 2
#     Edge 35, Type (0, 1), BuildingBlock: UVAHIK_clean_linker_0, # of connection points: 2
# Relax obj value: 0.140
# Max RMSD: 0.178
# Mean RMSD: 0.130
data_MOF--net-pyr--node1-OLANEW_clean_sbu_2--node2-GEDQOX_clean_sbu_0--edge1-UVAHIK_clean_linker_0
_symmetry_space_group_name_H-M    P1
_symmetry_Int_Tables_number       1
_symmetry_cell_setting            triclinic
loop_
_symmetry_equiv_pos_as_xyz
'x, y, z'
_cell_length_a     54.343252
_cell_length_b     54.25913
_cell_length_c     47.520467
_cell_angle_alpha  93.264007
_cell_angle_beta   93.496939
_cell_angle_gamma 95.044685
loop_
_atom_site_label
_atom_site_type_symbol
_atom_site_fract_x
_atom_site_fract_y
_atom_site_fract_z
_atom_type_partial_charge
O0 O 0.23531 0.16922 0.1489 0.0
Cd1 Cd 0.20043 0.20068 0.15082 0.0
O2 O 0.23232 0.13996 0.18094 0.0
Cd3 Cd 0.20515 0.13168 0.21629 0.0
O4 O 0.18431 0.12096 0.25619 0.0
C5 C 0.16779 0.10259 0.25725 0.0
O6 O 0.16177 0.08857 0.23396 0.0
C7 C 0.24322 0.14991 0.16028 0.0
C8 C 0.18164 0.24285 0.12206 0.0
O9 O 0.19974 0.24582 0.141 0.0
O10 O 0.17353 0.22028 0.11483 0.0
O11 O 0.3704 0.76384 0.82817 0.0
Cd12 Cd 0.34765 0.73507 0.79191 0.0
O13 O 0.33523 0.77757 0.83955 0.0
Cd14 Cd 0.3107 0.75533 0.80807 0.0
O15 O 0.27795 0.7633 0.78296 0.0
C16 C 0.2702 0.78364 0.7916 0.0
O17 O 0.28194 0.7961 0.81368 0.0
C18 C 0.35865 0.77835 0.84321 0.0
C19 C 0.37691 0.7054 0.76101 0.0
O20 O 0.37498 0.728 0.75544 0.0
O21 O 0.36525 0.69679 0.7815 0.0
O22 O 0.73626 0.47096 0.90558 0.0
Cd23 Cd 0.69221 0.47136 0.89541 0.0
O24 O 0.73128 0.43232 0.8898 0.0
Cd25 Cd 0.73544 0.39323 0.88019 0.0
O26 O 0.7191 0.35643 0.88743 0.0
C27 C 0.71448 0.35336 0.91294 0.0
O28 O 0.72132 0.37146 0.93213 0.0
C29 C 0.74564 0.45071 0.9005 0.0
C30 C 0.682 0.47303 0.83779 0.0
O31 O 0.68751 0.49289 0.85365 0.0
O32 O 0.68131 0.45218 0.84927 0.0
O33 O 0.8932 0.7531 0.34498 0.0
Cd34 Cd 0.89311 0.79342 0.32496 0.0
O35 O 0.90876 0.73028 0.37698 0.0
Cd36 Cd 0.92452 0.72699 0.41974 0.0
O37 O 0.88499 0.72359 0.42279 0.0
C38 C 0.87211 0.74131 0.42898 0.0
O39 O 0.88293 0.76316 0.438 0.0
C40 C 0.90527 0.7515 0.36837 0.0
C41 C 0.91583 0.78096 0.27702 0.0
O42 O 0.89226 0.7814 0.27651 0.0
O43 O 0.92881 0.78936 0.29951 0.0
O44 O 0.88376 0.85757 0.85767 0.0
Cd45 Cd 0.88428 0.8177 0.88768 0.0
O46 O 0.856 0.88604 0.86133 0.0
Cd47 Cd 0.82125 0.90094 0.8824 0.0
O48 O 0.78503 0.91646 0.89906 0.0
C49 C 0.77845 0.9175 0.92471 0.0
O50 O 0.79318 0.9091 0.94419 0.0
C51 C 0.87507 0.87783 0.84981 0.0
C52 C 0.91436 0.77728 0.90364 0.0
O53 O 0.90566 0.77879 0.87808 0.0
O54 O 0.91071 0.79533 0.92111 0.0
O55 O 0.72228 0.24717 0.26372 0.0
Cd56 Cd 0.7521 0.27643 0.29213 0.0
O57 O 0.69153 0.27111 0.26263 0.0
Cd58 Cd 0.70783 0.30102 0.29297 0.0
O59 O 0.70401 0.33161 0.32423 0.0
C60 C 0.69455 0.35072 0.31579 0.0
O61 O 0.68894 0.35197 0.28865 0.0
C62 C 0.70044 0.25105 0.25498 0.0
C63 C 0.78715 0.25175 0.32212 0.0
O64 O 0.76849 0.25948 0.33403 0.0
O65 O 0.78938 0.25576 0.29605 0.0
O66 O 0.41011 0.64113 0.16551 0.0
Cd67 Cd 0.39737 0.59808 0.17341 0.0
O68 O 0.37436 0.64776 0.18132 0.0
Cd69 Cd 0.34273 0.66731 0.19181 0.0
O70 O 0.30641 0.64997 0.17766 0.0
C71 C 0.3053 0.63855 0.15344 0.0
O72 O 0.32502 0.63972 0.13872 0.0
C73 C 0.39434 0.65618 0.17141 0.0
C74 C 0.40868 0.58995 0.2296 0.0
O75 O 0.42459 0.5881 0.21094 0.0
O76 O 0.38691 0.59523 0.22162 0.0
O77 O 0.19678 0.26759 0.68554 0.0
Cd78 Cd 0.22203 0.24442 0.65588 0.0
O79 O 0.22454 0.26048 0.71839 0.0
Cd80 Cd 0.24217 0.25309 0.7596 0.0
O81 O 0.21863 0.22194 0.73883 0.0
C82 C 0.19572 0.21865 0.743 0.0
O83 O 0.18698 0.23125 0.76397 0.0
C84 C 0.20509 0.27074 0.71114 0.0
C85 C 0.25637 0.28183 0.64368 0.0
O86 O 0.23723 0.27533 0.62692 0.0
O87 O 0.26019 0.26924 0.66529 0.0
Nd88 Nd 0.03658 0.98954 0.56052 0.0
Nd89 Nd 0.99791 0.02384 0.55559 0.0
C90 C 0.06368 0.95199 0.56607 0.0
C91 C 0.075 0.93854 0.58875 0.0
C92 C 0.06492 0.91465 0.59386 0.0
C93 C 0.07664 0.90094 0.61373 0.0
C94 C 0.09876 0.91082 0.62861 0.0
C95 C 0.10847 0.935 0.62405 0.0
C96 C 0.09668 0.94876 0.60434 0.0
C97 C 0.05072 0.0362 0.58384 0.0
C98 C 0.99484 0.98981 0.60949 0.0
C99 C 0.97179 0.06208 0.54927 0.0
C100 C 0.96313 0.07721 0.52665 0.0
C101 C 0.97024 0.10273 0.52847 0.0
C102 C 0.9605 0.11788 0.50872 0.0
C103 C 0.94331 0.10775 0.48693 0.0
C104 C 0.93696 0.08203 0.48445 0.0
C105 C 0.94683 0.06685 0.50411 0.0
C106 C 0.98503 0.97776 0.52943 0.0
C107 C 0.03977 0.0226 0.50658 0.0
O108 O 0.03952 0.94915 0.56208 0.0
O109 O 0.07299 0.97473 0.56351 0.0
O110 O 0.06504 0.02291 0.56992 0.0
O111 O 0.03019 0.0243 0.58688 0.0
O112 O 1.01129 0.97734 0.59653 0.0
O113 O 0.98873 0.01101 0.59983 0.0
O114 O 0.99556 0.06445 0.55632 0.0
O115 O 0.96191 0.03921 0.54905 0.0
O116 O 0.97007 0.98961 0.54419 0.0
O117 O 1.00533 0.9904 0.52813 0.0
O118 O 0.02408 0.03594 0.51984 0.0
O119 O 0.04442 1.00085 0.51576 0.0
H120 H 0.04825 0.90636 0.5821 0.0
H121 H 0.06858 0.88245 0.61713 0.0
H122 H 0.12568 0.94297 0.63491 0.0
H123 H 0.10498 0.96712 0.60084 0.0
H124 H 0.9829 0.11106 0.54559 0.0
H125 H 0.96601 0.13761 0.51086 0.0
H126 H 0.92356 0.07374 0.46803 0.0
H127 H 0.94112 0.04716 0.50208 0.0
Nd128 Nd 0.51062 0.01361 0.06945 0.0
Nd129 Nd 0.50797 0.0415 0.02647 0.0
C130 C 0.51058 0.97721 0.10433 0.0
C131 C 0.49745 0.95229 0.10537 0.0
C132 C 0.50862 0.93131 0.0957 0.0
C133 C 0.49702 0.90761 0.09782 0.0
C134 C 0.47409 0.90433 0.10988 0.0
C135 C 0.46254 0.92531 0.11883 0.0
C136 C 0.47413 0.94909 0.11665 0.0
C137 C 0.47134 0.04367 0.07455 0.0
C138 C 0.48058 0.98909 0.01244 0.0
C139 C 0.50537 0.0787 0.99324 0.0
C140 C 0.52235 0.1005 0.98807 0.0
C141 C 0.52276 0.12255 0.00519 0.0
C142 C 0.53899 0.14305 1.00049 0.0
C143 C 0.55514 0.14195 0.97857 0.0
C144 C 0.55485 0.11984 0.96158 0.0
C145 C 0.53856 0.09936 0.96621 0.0
C146 C 0.54756 0.0126 0.01926 0.0
C147 C 0.54278 0.06382 0.08283 0.0
O148 O 0.52617 0.98007 0.08475 0.0
O149 O 0.49773 0.9962 0.10773 0.0
O150 O 0.48939 0.04266 0.09345 0.0
O151 O 0.47548 0.03073 0.05249 0.0
O152 O 0.49608 0.98476 0.03341 0.0
O153 O 0.47757 0.01217 0.00744 0.0
O154 O 0.49621 0.0785 0.018 0.0
O155 O 0.51178 0.05705 0.98466 0.0
O156 O 0.53035 0.01578 1.00014 0.0
O157 O 0.54315 0.02382 0.04249 0.0
O158 O 0.52859 0.06946 0.06109 0.0
O159 O 0.54199 0.04071 0.08946 0.0
H160 H 0.52656 0.93316 0.08687 0.0
H161 H 0.50621 0.89179 0.09037 0.0
H162 H 0.44498 0.92335 0.12848 0.0
H163 H 0.46503 0.96489 0.12432 0.0
H164 H 0.51047 0.12407 0.02219 0.0
H165 H 0.53853 0.15991 0.01371 0.0
H166 H 0.56733 0.11829 0.94478 0.0
H167 H 0.53874 0.08262 0.95269 0.0
Nd168 Nd 0.52139 0.51393 0.53352 0.0
Nd169 Nd 0.55931 0.55703 0.53796 0.0
C170 C 0.48377 0.48086 0.52196 0.0
C171 C 0.46221 0.47578 0.53865 0.0
C172 C 0.44378 0.49243 0.53979 0.0
C173 C 0.42492 0.48915 0.55812 0.0
C174 C 0.42407 0.46914 0.57554 0.0
C175 C 0.44246 0.4525 0.57439 0.0
C176 C 0.46132 0.45576 0.55606 0.0
C177 C 0.5522 0.51559 0.58132 0.0
C178 C 0.51401 0.56064 0.57595 0.0
C179 C 0.5987 0.58884 0.54149 0.0
C180 C 0.62216 0.59018 0.52782 0.0
C181 C 0.64422 0.58734 0.54364 0.0
C182 C 0.66682 0.59123 0.53156 0.0
C183 C 0.66759 0.59847 0.50368 0.0
C184 C 0.6454 0.59937 0.48723 0.0
C185 C 0.62285 0.5952 0.49918 0.0
C186 C 0.51847 0.56178 0.50258 0.0
C187 C 0.56951 0.50859 0.49777 0.0
O188 O 0.48541 0.50235 0.51062 0.0
O189 O 0.50496 0.47517 0.53333 0.0
O190 O 0.52871 0.50868 0.58056 0.0
O191 O 0.55893 0.52026 0.55717 0.0
O192 O 0.50227 0.54389 0.55752 0.0
O193 O 0.53808 0.56597 0.57621 0.0
O194 O 0.59536 0.57171 0.55953 0.0
O195 O 0.57894 0.59126 0.52519 0.0
O196 O 0.52862 0.57947 0.52005 0.0
O197 O 0.53031 0.54299 0.50366 0.0
O198 O 0.57742 0.5315 0.50691 0.0
O199 O 0.54852 0.49757 0.50504 0.0
H200 H 0.44403 0.50823 0.52683 0.0
H201 H 0.41089 0.50214 0.55852 0.0
H202 H 0.44188 0.4365 0.58705 0.0
H203 H 0.47535 0.44276 0.55573 0.0
H204 H 0.64407 0.58311 0.56565 0.0
H205 H 0.68373 0.59011 0.54453 0.0
H206 H 0.6454 0.60517 0.46579 0.0
H207 H 0.60609 0.59712 0.48626 0.0
Nd208 Nd 0.02259 0.50468 0.03817 0.0
Nd209 Nd 0.05205 0.50249 0.98272 0.0
C210 C 0.99331 0.50061 0.07969 0.0
C211 C 0.98623 0.52068 0.09855 0.0
C212 C 0.9615 0.52172 0.10497 0.0
C213 C 0.95422 0.54296 0.11903 0.0
C214 C 0.97162 0.56335 0.12645 0.0
C215 C 0.9965 0.56182 0.12092 0.0
C216 C 1.00372 0.54075 0.10701 0.0
C217 C 0.06639 0.53424 0.04102 0.0
C218 C 0.0182 0.5497 0.99511 0.0
C219 C 0.0859 0.50635 0.94585 0.0
C220 C 0.09326 0.48839 0.92445 0.0
C221 C 0.11631 0.4789 0.9283 0.0
C222 C 0.12209 0.45899 0.91098 0.0
C223 C 0.10494 0.44841 0.88943 0.0
C224 C 0.08235 0.45861 0.88469 0.0
C225 C 0.07648 0.47842 0.90215 0.0
C226 C 1.00539 0.4776 0.97309 0.0
C227 C 0.05674 0.45687 0.02532 0.0
O228 O 0.98477 0.50106 0.05332 0.0
O229 O 0.01669 0.49634 0.0823 0.0
O230 O 0.04709 0.53984 0.05402 0.0
O231 O 0.06234 0.51297 0.02873 0.0
O232 O 1.00726 0.53714 0.01482 0.0
O233 O 0.03771 0.54176 0.98301 0.0
O234 O 0.09083 0.50107 0.97203 0.0
O235 O 0.06399 0.51432 0.94158 0.0
O236 O 0.02126 0.47844 0.95375 0.0
O237 O 0.01546 0.48842 0.99519 0.0
O238 O 0.06364 0.46656 1.00168 0.0
O239 O 0.04083 0.46731 0.0415 0.0
H240 H 0.94772 0.50656 0.09816 0.0
H241 H 0.93489 0.54385 0.12303 0.0
H242 H 1.01031 0.57718 0.12683 0.0
H243 H 0.0229 0.54058 0.10206 0.0
H244 H 0.12947 0.48627 0.94542 0.0
H245 H 0.13981 0.45162 0.91472 0.0
H246 H 0.06882 0.45063 0.86824 0.0
H247 H 0.05845 0.48523 0.89878 0.0
C248 C 0.16076 0.10958 0.31032 0.0
C249 C 0.15509 0.0963 0.28395 0.0
C250 C 0.14863 0.10271 0.33475 0.0
C251 C 0.10942 0.04889 0.3626 0.0
H252 H 0.09677 0.09703 0.42205 0.0
C253 C 0.06846 0.01705 0.46685 0.0
C254 C 0.05257 0.03186 0.48123 0.0
C255 C 0.08102 0.02551 0.44363 0.0
C256 C 0.09987 0.08323 0.40561 0.0
H257 H 0.13141 0.06538 0.26337 0.0
H258 H 0.11041 0.05398 0.30481 0.0
H259 H 0.11798 0.11065 0.38096 0.0
H260 H 0.03791 0.06771 0.48189 0.0
H261 H 0.0594 0.08235 0.44129 0.0
H262 H 0.09079 0.02158 0.38658 0.0
C263 C 0.12462 0.06937 0.30721 0.0
C264 C 0.11247 0.09109 0.38198 0.0
C265 C 0.13669 0.07615 0.28303 0.0
C266 C 0.04981 0.0556 0.47146 0.0
C267 C 0.06243 0.06412 0.44815 0.0
C268 C 0.09682 0.04109 0.38608 0.0
C269 C 0.13038 0.08227 0.33375 0.0
C270 C 0.11744 0.07409 0.35982 0.0
C271 C 0.07829 0.04922 0.43362 0.0
C272 C 0.09174 0.05801 0.4082 0.0
H273 H 0.17473 0.1252 0.31218 0.0
H274 H 0.15395 0.11322 0.35455 0.0
H275 H 0.11302 0.03487 0.34666 0.0
H276 H 0.0714 0.99875 0.47361 0.0
H277 H 0.09327 0.01342 0.43382 0.0
C278 C 0.35859 0.81589 0.87628 0.0
C279 C 0.37191 0.79781 0.86323 0.0
C280 C 0.37087 0.83595 0.89266 0.0
C281 C 0.42729 0.85832 0.93508 0.0
H282 H 0.41107 0.92357 0.91509 0.0
C283 C 0.48098 0.9467 0.9893 0.0
C284 C 0.46847 0.968 0.99388 0.0
C285 C 0.46977 0.92617 0.97271 0.0
C286 C 0.4156 0.90557 0.92139 0.0
H287 H 0.40865 0.78615 0.85833 0.0
H288 H 0.43014 0.82112 0.88775 0.0
H289 H 0.39054 0.88678 0.88887 0.0
H290 H 0.43437 0.98457 0.98459 0.0
H291 H 0.41409 0.94826 0.95676 0.0
H292 H 0.45157 0.87674 0.96827 0.0
C293 C 0.41013 0.81974 0.88487 0.0
C294 C 0.40391 0.88446 0.90616 0.0
C295 C 0.39784 0.79975 0.86804 0.0
C296 C 0.44449 0.96843 0.98127 0.0
C297 C 0.43297 0.94759 0.96516 0.0
C298 C 0.43868 0.87941 0.95068 0.0
C299 C 0.39677 0.83833 0.89681 0.0
C300 C 0.40963 0.86062 0.91282 0.0
C301 C 0.4454 0.92603 0.96073 0.0
C302 C 0.43309 0.90344 0.94406 0.0
H303 H 0.33861 0.81501 0.87319 0.0
H304 H 0.36007 0.8498 0.90194 0.0
H305 H 0.43187 0.84016 0.94086 0.0
H306 H 0.49966 0.94597 0.99839 0.0
H307 H 0.48038 0.91043 0.96923 0.0
C308 C 0.66462 0.45324 0.79116 0.0
C309 C 0.67533 0.47435 0.80741 0.0
C310 C 0.65554 0.45524 0.76336 0.0
C311 C 0.65526 0.49505 0.70318 0.0
H312 H 0.58603 0.47026 0.69266 0.0
C313 C 0.58958 0.52584 0.61422 0.0
C314 C 0.56941 0.50923 0.604 0.0
C315 C 0.60528 0.51976 0.63667 0.0
C316 C 0.60549 0.4768 0.69474 0.0
H317 H 0.68649 0.5137 0.80674 0.0
H318 H 0.67057 0.51712 0.75817 0.0
H319 H 0.60985 0.46178 0.73509 0.0
H320 H 0.55048 0.47286 0.60729 0.0
H321 H 0.57857 0.46147 0.64509 0.0
H322 H 0.65093 0.51 0.66266 0.0
C323 C 0.66923 0.49909 0.76694 0.0
C324 C 0.61912 0.47197 0.71921 0.0
C325 C 0.67814 0.49715 0.79481 0.0
C326 C 0.56569 0.48611 0.61541 0.0
C327 C 0.58174 0.47971 0.63715 0.0
C328 C 0.6417 0.49954 0.67833 0.0
C329 C 0.65722 0.47831 0.7513 0.0
C330 C 0.64399 0.48132 0.72384 0.0
C331 C 0.60134 0.49667 0.64864 0.0
C332 C 0.61653 0.49073 0.674 0.0
H333 H 0.66235 0.43538 0.80024 0.0
H334 H 0.64649 0.43891 0.75156 0.0
H335 H 0.67448 0.50242 0.70633 0.0
H336 H 0.59267 0.54379 0.60553 0.0
H337 H 0.61996 0.53344 0.64513 0.0
C338 C 0.94919 0.75588 0.2613 0.0
C339 C 0.92683 0.76621 0.25495 0.0
C340 C 0.9558 0.73588 0.24457 0.0
C341 C 0.94147 0.69913 0.17699 0.0
H342 H 0.95729 0.644 0.22128 0.0
C343 C 0.97279 0.60924 0.12804 0.0
C344 C 0.96406 0.58677 0.13878 0.0
C345 C 0.96762 0.63166 0.14088 0.0
C346 C 0.95265 0.65918 0.20869 0.0
H347 H 0.89522 0.76552 0.22471 0.0
H348 H 0.90695 0.73088 0.1953 0.0
H349 H 0.95218 0.68404 0.24514 0.0
H350 H 0.94239 0.56988 0.17054 0.0
H351 H 0.93293 0.60942 0.19299 0.0
H352 H 0.94131 0.6741 0.14059 0.0
C353 C 0.91925 0.73804 0.21326 0.0
C354 C 0.95017 0.68217 0.22228 0.0
C355 C 0.91254 0.7579 0.23008 0.0
C356 C 0.94927 0.58703 0.16194 0.0
C357 C 0.94409 0.60956 0.17487 0.0
C358 C 0.94394 0.67614 0.16341 0.0
C359 C 0.94031 0.72616 0.22111 0.0
C360 C 0.94459 0.70235 0.20652 0.0
C361 C 0.95352 0.63206 0.16463 0.0
C362 C 0.9496 0.65599 0.17913 0.0
H363 H 0.96055 0.76183 0.28042 0.0
H364 H 0.97237 0.72725 0.25076 0.0
H365 H 0.93713 0.71439 0.16439 0.0
H366 H 0.98396 0.60946 0.10992 0.0
H367 H 0.9753 0.64871 0.1327 0.0
C368 C 0.27007 0.11371 0.15269 0.0
C369 C 0.26615 0.13888 0.14967 0.0
C370 C 0.29144 0.10346 0.14312 0.0
C371 C 0.35717 0.12071 0.12559 0.0
H372 H 0.35321 0.05463 0.0891 0.0
C373 C 0.44646 0.0704 0.10557 0.0
C374 C 0.44745 0.05492 0.08085 0.0
C375 C 0.42444 0.08058 0.11271 0.0
C376 C 0.35483 0.07318 0.09911 0.0
H377 H 0.28272 0.17279 0.1341 0.0
H378 H 0.32005 0.15529 0.11836 0.0
H379 H 0.3155 0.07204 0.10366 0.0
H380 H 0.42515 0.03818 0.04429 0.0
H381 H 0.38665 0.05569 0.05676 0.0
H382 H 0.39642 0.12188 0.12131 0.0
C383 C 0.30637 0.14327 0.12788 0.0
C384 C 0.33302 0.08317 0.10779 0.0
C385 C 0.28471 0.15337 0.13683 0.0
C386 C 0.42536 0.05002 0.06345 0.0
C387 C 0.40311 0.06001 0.0708 0.0
C388 C 0.37898 0.1106 0.11733 0.0
C389 C 0.31022 0.11805 0.13072 0.0
C390 C 0.33368 0.1072 0.12121 0.0
C391 C 0.40216 0.0756 0.09562 0.0
C392 C 0.37838 0.08658 0.1039 0.0
H393 H 0.25643 0.10173 0.16233 0.0
H394 H 0.29347 0.08408 0.14601 0.0
H395 H 0.35885 0.13913 0.13596 0.0
H396 H 0.46289 0.07467 0.11968 0.0
H397 H 0.42485 0.09207 0.13215 0.0
C398 C 0.23662 0.78107 0.75271 0.0
C399 C 0.24934 0.79398 0.77647 0.0
C400 C 0.21771 0.79164 0.73779 0.0
C401 C 0.17565 0.84151 0.74321 0.0
H402 H 0.17536 0.837 0.66145 0.0
C403 C 0.1245 0.9059 0.673 0.0
C404 C 0.11256 0.89547 0.64749 0.0
C405 C 0.13911 0.89183 0.68966 0.0
C406 C 0.17496 0.8381 0.68425 0.0
H407 H 0.25196 0.82788 0.80351 0.0
H408 H 0.21947 0.84646 0.77718 0.0
H409 H 0.20465 0.81508 0.68895 0.0
H410 H 0.1063 0.86214 0.61954 0.0
H411 H 0.13115 0.83735 0.64916 0.0
H412 H 0.14629 0.86503 0.73842 0.0
C413 C 0.22373 0.82801 0.77034 0.0
C414 C 0.19171 0.82552 0.7 0.0
C415 C 0.2425 0.81742 0.78531 0.0
C416 C 0.11499 0.87057 0.6393 0.0
C417 C 0.12947 0.85648 0.65604 0.0
C418 C 0.15894 0.85413 0.72745 0.0
C419 C 0.21128 0.81532 0.74632 0.0
C420 C 0.19238 0.82729 0.72963 0.0
C421 C 0.1419 0.86708 0.68117 0.0
C422 C 0.15861 0.8527 0.69786 0.0
H423 H 0.24142 0.76292 0.74547 0.0
H424 H 0.20819 0.7813 0.71954 0.0
H425 H 0.17551 0.84292 0.76602 0.0
H426 H 0.12278 0.925 0.67992 0.0
H427 H 0.14873 0.90054 0.7088 0.0
C428 C 0.78635 0.47035 0.9211 0.0
C429 C 0.77228 0.4492 0.90831 0.0
C430 C 0.81128 0.46965 0.92927 0.0
C431 C 0.86619 0.44101 0.91388 0.0
H432 H 0.88917 0.46414 0.99047 0.0
C433 C 0.97031 0.44983 0.94915 0.0
C434 C 0.97887 0.46967 0.96842 0.0
C435 C 0.94488 0.44364 0.94355 0.0
C436 C 0.88324 0.45795 0.96888 0.0
H437 H 0.77409 0.41084 0.89353 0.0
H438 H 0.81783 0.40974 0.9078 0.0
H439 H 0.84515 0.46073 0.97663 0.0
H440 H 0.96805 0.499 0.9965 0.0
H441 H 0.924 0.48952 0.98555 0.0
H442 H 0.90415 0.43981 0.90531 0.0
C443 C 0.80916 0.42675 0.91154 0.0
C444 C 0.85796 0.45576 0.96111 0.0
C445 C 0.78402 0.42739 0.90349 0.0
C446 C 0.9618 0.48326 0.982 0.0
C447 C 0.93648 0.47765 0.97577 0.0
C448 C 0.89158 0.44375 0.92144 0.0
C449 C 0.82285 0.44785 0.92469 0.0
C450 C 0.84929 0.4476 0.93348 0.0
C451 C 0.92758 0.45776 0.95643 0.0
C452 C 0.9005 0.45266 0.94895 0.0
H453 H 0.77813 0.4876 0.92494 0.0
H454 H 0.82163 0.48628 0.93896 0.0
H455 H 0.85984 0.43485 0.89236 0.0
H456 H 0.98328 0.43911 0.93848 0.0
H457 H 0.93885 0.4279 0.92899 0.0
C458 C 0.83131 0.74631 0.44852 0.0
C459 C 0.84515 0.73629 0.42749 0.0
C460 C 0.80739 0.73579 0.45182 0.0
C461 C 0.75698 0.68908 0.42685 0.0
H462 H 0.77266 0.66 0.49778 0.0
C463 C 0.69605 0.60714 0.46526 0.0
C464 C 0.6907 0.61002 0.49375 0.0
C465 C 0.71475 0.62265 0.45482 0.0
C466 C 0.76777 0.66816 0.47816 0.0
H467 H 0.84399 0.71072 0.39056 0.0
H468 H 0.80215 0.69243 0.39632 0.0
H469 H 0.80038 0.69323 0.48236 0.0
H470 H 0.70119 0.63065 0.53383 0.0
H471 H 0.73347 0.65734 0.51587 0.0
H472 H 0.72399 0.66414 0.42297 0.0
C473 C 0.8097 0.70808 0.41035 0.0
C474 C 0.78353 0.68729 0.46947 0.0
C475 C 0.8337 0.7183 0.40733 0.0
C476 C 0.70524 0.62753 0.51194 0.0
C477 C 0.72372 0.64299 0.50156 0.0
C478 C 0.74077 0.67018 0.43591 0.0
C479 C 0.79721 0.71553 0.43383 0.0
C480 C 0.77823 0.69794 0.44388 0.0
C481 C 0.72825 0.64117 0.47278 0.0
C482 C 0.74605 0.65965 0.46174 0.0
H483 H 0.83977 0.76038 0.46409 0.0
H484 H 0.79788 0.74171 0.47007 0.0
H485 H 0.75299 0.69676 0.4067 0.0
H486 H 0.68511 0.59366 0.45087 0.0
H487 H 0.71817 0.6206 0.43263 0.0
C488 C 0.17812 0.28943 0.11915 0.0
C489 C 0.1695 0.26472 0.11032 0.0
C490 C 0.16597 0.30974 0.1096 0.0
C491 C 0.11833 0.32765 0.05412 0.0
H492 H 0.11914 0.38697 0.10367 0.0
C493 C 0.08017 0.41895 0.01556 0.0
C494 C 0.06821 0.43398 0.03463 0.0
C495 C 0.09191 0.39824 0.02445 0.0
C496 C 0.11845 0.37055 0.08949 0.0
H497 H 0.14075 0.24268 0.08405 0.0
H498 H 0.11959 0.27766 0.06775 0.0
H499 H 0.14 0.3518 0.11945 0.0
H500 H 0.05968 0.43857 0.07846 0.0
H501 H 0.08009 0.40279 0.09393 0.0
H502 H 0.09631 0.34634 0.0244 0.0
C503 C 0.13609 0.28156 0.08178 0.0
C504 C 0.13086 0.35025 0.09847 0.0
C505 C 0.14829 0.26125 0.09131 0.0
C506 C 0.06843 0.42748 0.06297 0.0
C507 C 0.08046 0.40695 0.07195 0.0
C508 C 0.10597 0.34799 0.04512 0.0
C509 C 0.14455 0.30632 0.09082 0.0
C510 C 0.13113 0.32828 0.08102 0.0
C511 C 0.0925 0.39187 0.05289 0.0
C512 C 0.10573 0.3699 0.06261 0.0
H513 H 0.19428 0.29317 0.13376 0.0
H514 H 0.17364 0.32824 0.11691 0.0
H515 H 0.11806 0.31149 0.03963 0.0
H516 H 0.08056 0.42322 0.9936 0.0
H517 H 0.10105 0.38752 0.00898 0.0
C518 C 0.69544 0.32736 0.94903 0.0
C519 C 0.69963 0.33094 0.9206 0.0
C520 C 0.68 0.30709 0.95626 0.0
C521 C 0.62857 0.26312 0.92708 0.0
H522 H 0.64752 0.22353 0.98889 0.0
C523 C 0.5753 0.17002 0.94505 0.0
C524 C 0.57177 0.16398 0.97295 0.0
C525 C 0.59073 0.19084 0.93959 0.0
C526 C 0.64179 0.23461 0.97184 0.0
H527 H 0.69126 0.31586 0.87745 0.0
H528 H 0.66435 0.28038 0.89013 0.0
H529 H 0.67513 0.25899 0.97759 0.0
H530 H 0.58179 0.175 0.01707 0.0
H531 H 0.60821 0.21186 0.00754 0.0
H532 H 0.59518 0.23899 0.92139 0.0
C533 C 0.67286 0.29342 0.90677 0.0
C534 C 0.65764 0.25486 0.96534 0.0
C535 C 0.68841 0.31361 0.89955 0.0
C536 C 0.58396 0.17929 0.99533 0.0
C537 C 0.59931 0.20024 0.98987 0.0
C538 C 0.61267 0.243 0.93367 0.0
C539 C 0.66835 0.2901 0.93517 0.0
C540 C 0.65129 0.26911 0.94269 0.0
C541 C 0.60285 0.20624 0.96192 0.0
C542 C 0.61923 0.22834 0.95591 0.0
H543 H 0.7038 0.3404 0.96574 0.0
H544 H 0.67671 0.30506 0.9783 0.0
H545 H 0.623 0.27411 0.90986 0.0
H546 H 0.5659 0.15881 0.92735 0.0
H547 H 0.59333 0.19473 0.91782 0.0
C548 C 0.93771 0.77541 0.40101 0.0
C549 C 0.91477 0.77414 0.3855 0.0
C550 C 0.9463 0.79671 0.41786 0.0
C551 C 0.94295 0.86293 0.42342 0.0
H552 H 0.96259 0.86019 0.50302 0.0
C553 C 0.99237 0.94597 0.49186 0.0
C554 C 0.97883 0.95332 0.51463 0.0
C555 C 0.98596 0.92317 0.477 0.0
C556 C 0.95723 0.86109 0.48079 0.0
H557 H 0.88272 0.79388 0.37541 0.0
H558 H 0.8983 0.83164 0.40386 0.0
H559 H 0.94822 0.82176 0.47464 0.0
H560 H 0.94893 0.94244 0.54075 0.0
H561 H 0.93812 0.902 0.51509 0.0
H562 H 0.95222 0.90215 0.42941 0.0
C563 C 0.90949 0.81607 0.40314 0.0
C564 C 0.94913 0.83923 0.46462 0.0
C565 C 0.90071 0.79462 0.38673 0.0
C566 C 0.95942 0.9372 0.52303 0.0
C567 C 0.95338 0.91411 0.50856 0.0
C568 C 0.9515 0.88466 0.43941 0.0
C569 C 0.93231 0.81724 0.41889 0.0
C570 C 0.94167 0.84007 0.43589 0.0
C571 C 0.96634 0.90716 0.48516 0.0
C572 C 0.95847 0.88392 0.46824 0.0
H573 H 0.94918 0.7601 0.39981 0.0
H574 H 0.9641 0.79737 0.42959 0.0
H575 H 0.93743 0.86394 0.40124 0.0
H576 H 1.00751 0.9581 0.4851 0.0
H577 H 0.99621 0.91807 0.45903 0.0
C578 C 0.41109 0.70041 0.72911 0.0
C579 C 0.3917 0.68963 0.74377 0.0
C580 C 0.42455 0.68569 0.71188 0.0
C581 C 0.43626 0.61997 0.69455 0.0
H582 H 0.46095 0.64807 0.62732 0.0
C583 C 0.47649 0.56448 0.60285 0.0
C584 C 0.49997 0.5743 0.59598 0.0
C585 C 0.46308 0.57778 0.6216 0.0
C586 C 0.45417 0.64009 0.64608 0.0
H587 H 0.37103 0.65508 0.75198 0.0
H588 H 0.39355 0.62944 0.7207 0.0
H589 H 0.43742 0.67269 0.65841 0.0
H590 H 0.52792 0.60555 0.60303 0.0
H591 H 0.50413 0.629 0.63533 0.0
H592 H 0.45237 0.58693 0.68113 0.0
C593 C 0.39909 0.64913 0.72323 0.0
C594 C 0.44088 0.65421 0.66408 0.0
C595 C 0.38605 0.66383 0.74104 0.0
C596 C 0.50988 0.59753 0.60809 0.0
C597 C 0.49629 0.61098 0.6264 0.0
C598 C 0.44912 0.60567 0.67616 0.0
C599 C 0.41845 0.6599 0.7083 0.0
C600 C 0.43201 0.64447 0.68876 0.0
C601 C 0.47281 0.60121 0.63322 0.0
C602 C 0.45838 0.61578 0.65204 0.0
H603 H 0.41599 0.72025 0.73109 0.0
H604 H 0.43976 0.69462 0.70144 0.0
H605 H 0.43009 0.61192 0.71351 0.0
H606 H 0.46855 0.54653 0.59384 0.0
H607 H 0.44492 0.57002 0.62659 0.0
C608 C 0.90524 0.87959 0.81073 0.0
C609 C 0.88713 0.89088 0.8258 0.0
C610 C 0.91651 0.89084 0.78809 0.0
C611 C 0.92722 0.9518 0.75315 0.0
H612 H 0.94608 0.90926 0.69141 0.0
C613 C 0.96596 0.99252 0.6501 0.0
C614 C 0.98285 0.97949 0.63498 0.0
C615 C 0.95442 0.98246 0.67338 0.0
C616 C 0.9414 0.92166 0.70852 0.0
H617 H 0.86724 0.92375 0.82805 0.0
H618 H 0.8868 0.94339 0.7887 0.0
H619 H 0.92623 0.89111 0.7307 0.0
H620 H 1.00061 0.94527 0.63342 0.0
H621 H 0.98109 0.92807 0.67365 0.0
H622 H 0.94247 0.98237 0.73083 0.0
C623 C 0.89243 0.92563 0.79456 0.0
C624 C 0.92982 0.91108 0.7314 0.0
C625 C 0.88098 0.91422 0.81724 0.0
C626 C 0.98779 0.95606 0.64423 0.0
C627 C 0.97626 0.94599 0.66744 0.0
C628 C 0.9389 0.96241 0.73022 0.0
C629 C 0.91036 0.9141 0.77929 0.0
C630 C 0.9225 0.92584 0.75437 0.0
C631 C 0.95917 0.95885 0.68255 0.0
C632 C 0.94637 0.94759 0.70735 0.0
H633 H 0.91078 0.86171 0.8163 0.0
H634 H 0.9304 0.88124 0.77769 0.0
H635 H 0.92236 0.96409 0.77026 0.0
H636 H 0.96147 0.01056 0.64384 0.0
H637 H 0.94132 0.99313 0.68382 0.0
C638 C 0.69278 0.20825 0.23086 0.0
C639 C 0.68513 0.2321 0.23603 0.0
C640 C 0.67789 0.19025 0.21364 0.0
C641 C 0.61274 0.17538 0.18342 0.0
H642 H 0.64193 0.12685 0.13596 0.0
C643 C 0.55556 0.10849 0.0986 0.0
C644 C 0.55948 0.08326 0.09962 0.0
C645 C 0.57107 0.1267 0.11485 0.0
C646 C 0.63352 0.14022 0.14923 0.0
H647 H 0.65607 0.25586 0.2264 0.0
H648 H 0.63054 0.22487 0.19596 0.0
H649 H 0.66871 0.15867 0.16436 0.0
H650 H 0.58315 0.05751 0.11817 0.0
H651 H 0.61059 0.08938 0.14588 0.0
H652 H 0.57754 0.15716 0.16767 0.0
C653 C 0.64769 0.21971 0.20577 0.0
C654 C 0.64887 0.15843 0.16565 0.0
C655 C 0.66246 0.23762 0.22314 0.0
C656 C 0.57953 0.07675 0.11695 0.0
C657 C 0.59534 0.09501 0.13273 0.0
C658 C 0.59742 0.1574 0.1667 0.0
C659 C 0.65503 0.19565 0.20094 0.0
C660 C 0.63872 0.17628 0.18309 0.0
C661 C 0.5912 0.12019 0.13204 0.0
C662 C 0.6076 0.13954 0.14948 0.0
H663 H 0.71011 0.20332 0.24049 0.0
H664 H 0.68414 0.17192 0.21082 0.0
H665 H 0.60412 0.18836 0.19696 0.0
H666 H 0.54029 0.11416 0.08551 0.0
H667 H 0.56748 0.14596 0.11376 0.0
C668 C 0.44094 0.5881 0.26863 0.0
C669 C 0.41576 0.58696 0.25958 0.0
C670 C 0.44808 0.58649 0.29702 0.0
C671 C 0.43186 0.56141 0.36172 0.0
H672 H 0.47868 0.61427 0.39612 0.0
C673 C 0.4781 0.55791 0.47457 0.0
C674 C 0.50324 0.56646 0.47753 0.0
C675 C 0.46399 0.56172 0.44985 0.0
C676 C 0.46576 0.59926 0.38681 0.0
H677 H 0.37826 0.5826 0.27303 0.0
H678 H 0.391 0.5791 0.32309 0.0
H679 H 0.46003 0.61794 0.34885 0.0
H680 H 0.53392 0.58473 0.45761 0.0
H681 H 0.50975 0.59076 0.4141 0.0
H682 H 0.43872 0.54198 0.39895 0.0
C683 C 0.40501 0.58155 0.30798 0.0
C684 C 0.45496 0.6015 0.35989 0.0
C685 C 0.3978 0.58361 0.27948 0.0
C686 C 0.51435 0.57849 0.45571 0.0
C687 C 0.50043 0.58203 0.43096 0.0
C688 C 0.443 0.55896 0.38861 0.0
C689 C 0.43023 0.58336 0.31691 0.0
C690 C 0.43843 0.58235 0.34688 0.0
C691 C 0.47504 0.57387 0.42777 0.0
C692 C 0.46063 0.57759 0.40107 0.0
H693 H 0.4552 0.59071 0.25384 0.0
H694 H 0.46765 0.58767 0.30349 0.0
H695 H 0.41918 0.5464 0.35192 0.0
H696 H 0.46941 0.54837 0.49132 0.0
H697 H 0.44449 0.5553 0.44811 0.0
C698 C 0.17256 0.29902 0.72117 0.0
C699 C 0.19144 0.28508 0.73139 0.0
C700 C 0.1601 0.31351 0.73969 0.0
C701 C 0.16785 0.34274 0.81204 0.0
H702 H 0.09982 0.35672 0.79586 0.0
C703 C 0.12028 0.40661 0.88603 0.0
C704 C 0.11035 0.42624 0.8726 0.0
C705 C 0.12663 0.38612 0.87012 0.0
C706 C 0.11879 0.3528 0.8006 0.0
H707 H 0.2115 0.27556 0.7695 0.0
H708 H 0.18883 0.29901 0.80163 0.0
H709 H 0.11783 0.32613 0.76565 0.0
H710 H 0.09839 0.43968 0.83236 0.0
H711 H 0.10971 0.40372 0.80438 0.0
H712 H 0.16873 0.36931 0.84701 0.0
C713 C 0.18424 0.29953 0.77918 0.0
C714 C 0.12917 0.33548 0.78328 0.0
C715 C 0.19721 0.28573 0.7606 0.0
C716 C 0.10594 0.42467 0.84313 0.0
C717 C 0.11227 0.40413 0.8272 0.0
C718 C 0.15736 0.35967 0.82955 0.0
C719 C 0.16588 0.31398 0.76893 0.0
C720 C 0.15397 0.33062 0.78854 0.0
C721 C 0.12309 0.38498 0.8406 0.0
C722 C 0.13293 0.36512 0.82368 0.0
H723 H 0.16779 0.29929 0.69873 0.0
H724 H 0.14646 0.32486 0.73095 0.0
H725 H 0.18716 0.33994 0.81642 0.0
H726 H 0.12333 0.4072 0.90881 0.0
H727 H 0.13475 0.37138 0.88083 0.0
C728 C 0.74924 0.9288 0.96237 0.0
C729 C 0.75464 0.92787 0.93361 0.0
C730 C 0.7275 0.93814 0.97171 0.0
C731 C 0.67334 0.97446 0.94866 0.0
H732 H 0.64714 0.95176 0.01769 0.0
C733 C 0.5762 0.99892 0.98258 0.0
C734 C 0.57195 1.00333 0.01137 0.0
C735 C 0.59845 0.99034 0.97394 0.0
C736 C 0.65422 0.95864 0.99853 0.0
H737 H 0.74025 0.93654 0.89223 0.0
H738 H 0.70216 0.95226 0.90816 0.0
H739 H 0.68414 0.93544 1.0006 0.0
H740 H 0.58856 1.00159 0.05368 0.0
H741 H 0.62743 0.98629 0.0387 0.0
H742 H 0.64298 0.99727 0.94643 0.0
C743 C 0.71509 0.9461 0.92388 0.0
C744 C 0.6758 0.94922 0.98855 0.0
C745 C 0.73709 0.93682 0.91452 0.0
C746 C 0.59098 0.99856 0.03133 0.0
C747 C 0.61333 0.98961 0.02263 0.0
C748 C 0.65164 0.98368 0.95852 0.0
C749 C 0.7097 0.94695 0.95279 0.0
C750 C 0.68602 0.95691 0.96335 0.0
C751 C 0.6176 0.98545 0.99365 0.0
C752 C 0.64152 0.97598 0.98367 0.0
H753 H 0.76201 0.92233 0.97809 0.0
H754 H 0.72501 0.93873 0.99413 0.0
H755 H 0.68032 0.98156 0.92959 0.0
H756 H 0.56219 1.0022 0.96637 0.0
H757 H 0.60039 0.98712 0.95152 0.0
C758 C 0.81972 0.22192 0.32378 0.0
C759 C 0.80537 0.23833 0.33796 0.0
C760 C 0.83605 0.20832 0.339 0.0
C761 C 0.84858 0.18812 0.41145 0.0
H762 H 0.91039 0.1709 0.38229 0.0
C763 C 0.92195 0.14593 0.47983 0.0
C764 C 0.93058 0.12416 0.46828 0.0
C765 C 0.90819 0.16053 0.46293 0.0
C766 C 0.89312 0.17555 0.39054 0.0
H767 H 0.7976 0.25429 0.37894 0.0
H768 H 0.82695 0.23169 0.40541 0.0
H769 H 0.88359 0.19575 0.35476 0.0
H770 H 0.93229 0.10095 0.42985 0.0
H771 H 0.90788 0.12655 0.40022 0.0
H772 H 0.85849 0.16843 0.44751 0.0
C773 C 0.8249 0.22837 0.38266 0.0
C774 C 0.87769 0.18965 0.37478 0.0
C775 C 0.8082 0.2415 0.36751 0.0
C776 C 0.92572 0.11758 0.43931 0.0
C777 C 0.91198 0.13227 0.42234 0.0
C778 C 0.86415 0.1744 0.42732 0.0
C779 C 0.83871 0.21126 0.36867 0.0
C780 C 0.85525 0.19618 0.38512 0.0
C781 C 0.90281 0.15363 0.43417 0.0
C782 C 0.88654 0.16808 0.41704 0.0
H783 H 0.8178 0.21905 0.30098 0.0
H784 H 0.84609 0.19508 0.32751 0.0
H785 H 0.83116 0.19212 0.41978 0.0
H786 H 0.9251 0.15129 0.50215 0.0
H787 H 0.90144 0.17705 0.47243 0.0
C788 C 0.27878 0.6164 0.11333 0.0
C789 C 0.28245 0.62365 0.14225 0.0
C790 C 0.25661 0.60325 0.10259 0.0
C791 C 0.19189 0.59617 0.11891 0.0
H792 H 0.18476 0.54354 0.05948 0.0
C793 C 0.09617 0.55062 0.08056 0.0
C794 C 0.09144 0.54407 0.05166 0.0
C795 C 0.1202 0.55784 0.09158 0.0
C796 C 0.18647 0.55842 0.07586 0.0
H797 H 0.26667 0.62133 0.18294 0.0
H798 H 0.22812 0.59815 0.16429 0.0
H799 H 0.22613 0.55943 0.07936 0.0
H800 H 0.10778 0.53975 0.01151 0.0
H801 H 0.14994 0.55395 0.03047 0.0
H802 H 0.15266 0.59603 0.11507 0.0
C803 C 0.24208 0.60318 0.14979 0.0
C804 C 0.21014 0.5674 0.08732 0.0
C805 C 0.26411 0.61649 0.16046 0.0
C806 C 0.1111 0.54493 0.03385 0.0
C807 C 0.1352 0.55276 0.0448 0.0
C808 C 0.1684 0.58742 0.10736 0.0
C809 C 0.23782 0.59703 0.12066 0.0
C810 C 0.21301 0.58636 0.10901 0.0
C811 C 0.14001 0.55932 0.07384 0.0
C812 C 0.16532 0.5684 0.08576 0.0
H813 H 0.29271 0.62154 0.09884 0.0
H814 H 0.25378 0.59891 0.08003 0.0
H815 H 0.19351 0.61119 0.13513 0.0
H816 H 0.08138 0.54941 0.09485 0.0
H817 H 0.12325 0.56201 0.11414 0.0
C818 C 0.26754 0.31803 0.61572 0.0
C819 C 0.27239 0.30441 0.63934 0.0
C820 C 0.28117 0.34051 0.6126 0.0
C821 C 0.32246 0.39057 0.65128 0.0
H822 H 0.34301 0.40201 0.57607 0.0
C823 C 0.40538 0.4536 0.61859 0.0
C824 C 0.40244 0.46346 0.59201 0.0
C825 C 0.3853 0.44075 0.62982 0.0
C826 C 0.33692 0.39938 0.59708 0.0
H827 H 0.29529 0.30359 0.67828 0.0
H828 H 0.31975 0.34267 0.67229 0.0
H829 H 0.31774 0.36438 0.58384 0.0
H830 H 0.37578 0.47097 0.5584 0.0
H831 H 0.34077 0.44893 0.57829 0.0
H832 H 0.34313 0.42532 0.66452 0.0
C833 C 0.30506 0.33612 0.65651 0.0
C834 C 0.32251 0.37777 0.60155 0.0
C835 C 0.2913 0.3136 0.65971 0.0
C836 C 0.37861 0.46348 0.57887 0.0
C837 C 0.35857 0.45078 0.59017 0.0
C838 C 0.33721 0.41225 0.64682 0.0
C839 C 0.30008 0.34976 0.6329 0.0
C840 C 0.31511 0.3731 0.62864 0.0
C841 C 0.36222 0.43777 0.61453 0.0
C842 C 0.34444 0.41676 0.61962 0.0
H843 H 0.25294 0.31156 0.5998 0.0
H844 H 0.27668 0.35077 0.59437 0.0
H845 H 0.31685 0.38748 0.67237 0.0
H846 H 0.42355 0.45392 0.62939 0.0
H847 H 0.38848 0.43094 0.64875 0.0
C848 C 0.92997 0.75025 0.94205 0.0
C849 C 0.92678 0.75481 0.91313 0.0
C850 C 0.94007 0.72862 0.95101 0.0
C851 C 0.97864 0.67776 0.92829 0.0
H852 H 0.94908 0.64283 0.98836 0.0
C853 C 0.01364 0.5831 0.9601 0.0
C854 C 1.00836 0.57351 0.98622 0.0
C855 C 1.00397 0.60499 0.95139 0.0
C856 C 0.9582 0.65229 0.97193 0.0
H857 H 0.93237 0.7395 0.87115 0.0
H858 H 0.95047 0.70231 0.8867 0.0
H859 H 0.93293 0.68063 0.97364 0.0
H860 H 0.98902 0.58036 0.02393 0.0
H861 H 0.97353 0.61876 0.00997 0.0
H862 H 1.00454 0.65037 0.92705 0.0
C863 C 0.94503 0.71552 0.90257 0.0
C864 C 0.94861 0.67425 0.96328 0.0
C865 C 0.93451 0.73696 0.89357 0.0
C866 C 0.9934 0.58688 1.00354 0.0
C867 C 0.98422 0.60912 0.99518 0.0
C868 C 0.98861 0.65611 0.93733 0.0
C869 C 0.94782 0.71077 0.93147 0.0
C870 C 0.95849 0.68737 0.94113 0.0
C871 C 0.98903 0.61873 0.96872 0.0
C872 C 0.97856 0.64259 0.95928 0.0
H873 H 0.9242 0.76326 0.95792 0.0
H874 H 0.942 0.726 0.97343 0.0
H875 H 0.98715 0.68731 0.91146 0.0
H876 H 0.02491 0.57338 0.94594 0.0
H877 H 1.00808 0.61068 0.93064 0.0
C878 C 0.42382 0.69359 0.16964 0.0
C879 C 0.39937 0.68266 0.16652 0.0
C880 C 0.42913 0.71844 0.16448 0.0
C881 C 0.40654 0.76874 0.12521 0.0
H882 H 0.45458 0.80915 0.17586 0.0
C883 C 0.43764 0.87242 0.11039 0.0
C884 C 0.46323 0.87911 0.11498 0.0
C885 C 0.42756 0.84893 0.11672 0.0
C886 C 0.44125 0.79805 0.16142 0.0
H887 H 0.36139 0.6888 0.1544 0.0
H888 H 0.37068 0.73258 0.14568 0.0
H889 H 0.44068 0.76739 0.1877 0.0
H890 H 0.49827 0.86644 0.12968 0.0
H891 H 0.48083 0.82549 0.14008 0.0
H892 H 0.40757 0.79941 0.09863 0.0
C893 C 0.38565 0.72189 0.15243 0.0
C894 C 0.43326 0.77419 0.16824 0.0
C895 C 0.38029 0.69697 0.15782 0.0
C896 C 0.47853 0.86177 0.12559 0.0
C897 C 0.4685 0.83842 0.13191 0.0
C898 C 0.41459 0.79271 0.11833 0.0
C899 C 0.41013 0.73285 0.15583 0.0
C900 C 0.41628 0.75908 0.14991 0.0
C901 C 0.44289 0.83185 0.12794 0.0
C902 C 0.43247 0.80736 0.13609 0.0
H903 H 0.43887 0.68291 0.17616 0.0
H904 H 0.44824 0.72627 0.16678 0.0
H905 H 0.39351 0.75742 0.11064 0.0
H906 H 0.42544 0.88536 0.102 0.0
H907 H 0.40775 0.84435 0.11348 0.0
C908 C 0.1879 0.19032 0.69945 0.0
C909 C 0.17863 0.20482 0.72111 0.0
C910 C 0.17182 0.17767 0.67839 0.0
C911 C 0.10789 0.17103 0.64518 0.0
H912 H 0.11912 0.10139 0.63869 0.0
C913 C 0.07418 0.076 0.57571 0.0
C914 C 0.05691 0.06275 0.59126 0.0
C915 C 0.08424 0.09965 0.58546 0.0
C916 C 0.11592 0.12085 0.64016 0.0
H917 H 0.14544 0.21888 0.73651 0.0
H918 H 0.11728 0.1963 0.69995 0.0
H919 H 0.14856 0.13037 0.66707 0.0
H920 H 0.03423 0.06461 0.62708 0.0
H921 H 0.05279 0.10596 0.64496 0.0
H922 H 0.07461 0.16077 0.61845 0.0
C923 C 0.13698 0.19476 0.69933 0.0
C924 C 0.13282 0.13746 0.65618 0.0
C925 C 0.15307 0.20731 0.72053 0.0
C926 C 0.04776 0.07447 0.615 0.0
C927 C 0.05811 0.09814 0.62499 0.0
C928 C 0.09083 0.15422 0.62895 0.0
C929 C 0.14616 0.17934 0.67847 0.0
C930 C 0.12895 0.16267 0.65912 0.0
C931 C 0.07726 0.11026 0.61097 0.0
C932 C 0.09476 0.129 0.62671 0.0
H933 H 0.20755 0.18846 0.69894 0.0
H934 H 0.17942 0.16613 0.66234 0.0
H935 H 0.10458 0.19044 0.64702 0.0
H936 H 0.08103 0.0675 0.5569 0.0
H937 H 0.09912 0.10866 0.5745 0.0
C938 C 0.67555 0.39026 0.32668 0.0
C939 C 0.68744 0.37003 0.33628 0.0
C940 C 0.6665 0.40717 0.34581 0.0
C941 C 0.64485 0.41069 0.41741 0.0
H942 H 0.64303 0.48039 0.40404 0.0
C943 C 0.57669 0.46989 0.46998 0.0
C944 C 0.58491 0.49436 0.47963 0.0
C945 C 0.59153 0.45588 0.45384 0.0
C946 C 0.64367 0.46104 0.40828 0.0
H947 H 0.70014 0.35235 0.37364 0.0
H948 H 0.68469 0.38213 0.40707 0.0
H949 H 0.66656 0.4545 0.37407 0.0
H950 H 0.61505 0.52342 0.47978 0.0
H951 H 0.64116 0.49873 0.45168 0.0
H952 H 0.62221 0.41725 0.45177 0.0
C953 C 0.68198 0.38463 0.38468 0.0
C954 C 0.65691 0.44616 0.39094 0.0
C955 C 0.69097 0.36766 0.36552 0.0
C956 C 0.60819 0.50463 0.47258 0.0
C957 C 0.6231 0.49053 0.45643 0.0
C958 C 0.63176 0.42558 0.43482 0.0
C959 C 0.66922 0.40429 0.375 0.0
C960 C 0.65729 0.42072 0.39501 0.0
C961 C 0.61497 0.46596 0.44708 0.0
C962 C 0.63062 0.45079 0.43008 0.0
H963 H 0.67252 0.39267 0.30431 0.0
H964 H 0.6565 0.42192 0.33762 0.0
H965 H 0.64451 0.39113 0.42096 0.0
H966 H 0.55881 0.46142 0.47496 0.0
H967 H 0.58453 0.43718 0.44645 0.0
loop_
_geom_bond_atom_site_label_1
_geom_bond_atom_site_label_2
_geom_bond_distance
_geom_bond_site_symmetry_2
_ccdc_geom_bond_type
O0 Cd1 2.300 . S
O0 C7 1.275 . S
Cd1 O0 2.300 . S
Cd1 O9 2.381 . S
Cd1 O10 2.378 . S
O2 Cd3 2.385 . S
O2 C7 1.255 . S
Cd3 O2 2.385 . S
Cd3 O4 2.317 . S
O4 Cd3 2.317 . S
O4 C5 1.232 . S
C5 O4 1.232 . S
C5 O6 1.218 . S
O6 C5 1.218 . S
C7 O0 1.275 . S
C7 O2 1.255 . S
C8 O9 1.258 . S
C8 O10 1.256 . S
O9 Cd1 2.381 . S
O9 C8 1.258 . S
O10 Cd1 2.378 . S
O10 C8 1.256 . S
O11 Cd12 2.300 . S
O11 C18 1.275 . S
Cd12 O11 2.300 . S
Cd12 O20 2.381 . S
Cd12 O21 2.378 . S
O13 Cd14 2.385 . S
O13 C18 1.255 . S
Cd14 O13 2.385 . S
Cd14 O15 2.317 . S
O15 Cd14 2.317 . S
O15 C16 1.232 . S
C16 O15 1.232 . S
C16 O17 1.218 . S
O17 C16 1.218 . S
C18 O11 1.275 . S
C18 O13 1.255 . S
C19 O20 1.258 . S
C19 O21 1.256 . S
O20 Cd12 2.381 . S
O20 C19 1.258 . S
O21 Cd12 2.378 . S
O21 C19 1.256 . S
O22 Cd23 2.300 . S
O22 C29 1.275 . S
Cd23 O22 2.300 . S
Cd23 O31 2.381 . S
Cd23 O32 2.378 . S
O24 Cd25 2.385 . S
O24 C29 1.255 . S
Cd25 O24 2.385 . S
Cd25 O26 2.317 . S
O26 Cd25 2.317 . S
O26 C27 1.232 . S
C27 O26 1.232 . S
C27 O28 1.218 . S
O28 C27 1.218 . S
C29 O22 1.275 . S
C29 O24 1.255 . S
C30 O31 1.258 . S
C30 O32 1.256 . S
O31 Cd23 2.381 . S
O31 C30 1.258 . S
O32 Cd23 2.378 . S
O32 C30 1.256 . S
O33 Cd34 2.300 . S
O33 C40 1.275 . S
Cd34 O33 2.300 . S
Cd34 O42 2.381 . S
Cd34 O43 2.378 . S
O35 Cd36 2.385 . S
O35 C40 1.255 . S
Cd36 O35 2.385 . S
Cd36 O37 2.317 . S
O37 Cd36 2.317 . S
O37 C38 1.232 . S
C38 O37 1.232 . S
C38 O39 1.218 . S
O39 C38 1.218 . S
C40 O33 1.275 . S
C40 O35 1.255 . S
C41 O42 1.258 . S
C41 O43 1.256 . S
O42 Cd34 2.381 . S
O42 C41 1.258 . S
O43 Cd34 2.378 . S
O43 C41 1.256 . S
O44 Cd45 2.300 . S
O44 C51 1.275 . S
Cd45 O44 2.300 . S
Cd45 O53 2.381 . S
Cd45 O54 2.378 . S
O46 Cd47 2.385 . S
O46 C51 1.255 . S
Cd47 O46 2.385 . S
Cd47 O48 2.317 . S
O48 Cd47 2.317 . S
O48 C49 1.232 . S
C49 O48 1.232 . S
C49 O50 1.218 . S
O50 C49 1.218 . S
C51 O44 1.275 . S
C51 O46 1.255 . S
C52 O53 1.258 . S
C52 O54 1.256 . S
O53 Cd45 2.381 . S
O53 C52 1.258 . S
O54 Cd45 2.378 . S
O54 C52 1.256 . S
O55 Cd56 2.300 . S
O55 C62 1.275 . S
Cd56 O55 2.300 . S
Cd56 O64 2.381 . S
Cd56 O65 2.378 . S
O57 Cd58 2.385 . S
O57 C62 1.255 . S
Cd58 O57 2.385 . S
Cd58 O59 2.317 . S
O59 Cd58 2.317 . S
O59 C60 1.232 . S
C60 O59 1.232 . S
C60 O61 1.218 . S
O61 C60 1.218 . S
C62 O55 1.275 . S
C62 O57 1.255 . S
C63 O64 1.258 . S
C63 O65 1.256 . S
O64 Cd56 2.381 . S
O64 C63 1.258 . S
O65 Cd56 2.378 . S
O65 C63 1.256 . S
O66 Cd67 2.300 . S
O66 C73 1.275 . S
Cd67 O66 2.300 . S
Cd67 O75 2.381 . S
Cd67 O76 2.378 . S
O68 Cd69 2.385 . S
O68 C73 1.255 . S
Cd69 O68 2.385 . S
Cd69 O70 2.317 . S
O70 Cd69 2.317 . S
O70 C71 1.232 . S
C71 O70 1.232 . S
C71 O72 1.218 . S
O72 C71 1.218 . S
C73 O66 1.275 . S
C73 O68 1.255 . S
C74 O75 1.258 . S
C74 O76 1.256 . S
O75 Cd67 2.381 . S
O75 C74 1.258 . S
O76 Cd67 2.378 . S
O76 C74 1.256 . S
O77 Cd78 2.300 . S
O77 C84 1.275 . S
Cd78 O77 2.300 . S
Cd78 O86 2.381 . S
Cd78 O87 2.378 . S
O79 Cd80 2.385 . S
O79 C84 1.255 . S
Cd80 O79 2.385 . S
Cd80 O81 2.317 . S
O81 Cd80 2.317 . S
O81 C82 1.232 . S
C82 O81 1.232 . S
C82 O83 1.218 . S
O83 C82 1.218 . S
C84 O77 1.275 . S
C84 O79 1.255 . S
C85 O86 1.258 . S
C85 O87 1.256 . S
O86 Cd78 2.381 . S
O86 C85 1.258 . S
O87 Cd78 2.378 . S
O87 C85 1.256 . S
Nd88 C90 2.836 . S
Nd88 O108 2.500 . S
Nd88 O109 2.492 . S
Nd88 O110 2.487 1_565 S
Nd88 O111 2.682 1_565 S
Nd88 O112 2.410 . S
Nd88 O117 2.414 1_455 S
Nd88 O119 2.424 1_565 S
Nd89 C99 2.836 . S
Nd89 O111 2.414 1_655 S
Nd89 O113 2.424 1_545 S
Nd89 O114 2.500 . S
Nd89 O115 2.492 . S
Nd89 O116 2.487 1_545 S
Nd89 O117 2.682 1_545 S
Nd89 O118 2.411 . S
C90 Nd88 2.836 . S
C90 C91 1.498 . S
C90 O108 1.258 . S
C90 O109 1.239 . S
C91 C90 1.498 . S
C91 C92 1.366 . S
C91 C96 1.407 . S
C92 C91 1.366 . S
C92 C93 1.392 . S
C92 H120 0.930 . S
C93 C92 1.392 . S
C93 C94 1.398 . S
C93 H121 0.929 . S
C94 C93 1.398 . S
C94 C95 1.352 . S
C95 C94 1.352 . S
C95 C96 1.384 . S
C95 H122 0.930 . S
C96 C91 1.407 . S
C96 C95 1.384 . S
C96 H123 0.929 . S
C97 O110 1.241 . S
C97 O111 1.273 . S
C98 O112 1.251 1_655 S
C98 O113 1.268 . S
C99 Nd89 2.836 . S
C99 C100 1.498 . S
C99 O114 1.258 . S
C99 O115 1.239 . S
C100 C99 1.498 . S
C100 C101 1.366 . S
C100 C105 1.407 . S
C101 C100 1.366 . S
C101 C102 1.392 . S
C101 H124 0.930 . S
C102 C101 1.392 . S
C102 C103 1.398 . S
C102 H125 0.929 . S
C103 C102 1.398 . S
C103 C104 1.352 . S
C104 C103 1.352 . S
C104 C105 1.384 . S
C104 H126 0.930 . S
C105 C100 1.407 . S
C105 C104 1.384 . S
C105 H127 0.929 . S
C106 O116 1.241 . S
C106 O117 1.273 . S
C107 O118 1.249 1_455 S
C107 O119 1.268 . S
O108 Nd88 2.500 . S
O108 C90 1.258 . S
O109 Nd88 2.492 . S
O109 C90 1.239 . S
O110 Nd88 2.487 1_545 S
O110 C97 1.241 . S
O111 Nd88 2.682 1_545 S
O111 Nd89 2.414 1_455 S
O111 C97 1.273 . S
O112 Nd88 2.410 . S
O112 C98 1.251 1_455 S
O113 Nd89 2.424 1_565 S
O113 C98 1.268 . S
O114 Nd89 2.500 . S
O114 C99 1.258 . S
O115 Nd89 2.492 . S
O115 C99 1.239 . S
O116 Nd89 2.487 1_565 S
O116 C106 1.241 . S
O117 Nd88 2.414 1_655 S
O117 Nd89 2.682 1_565 S
O117 C106 1.273 . S
O118 Nd89 2.411 . S
O118 C107 1.249 1_655 S
O119 Nd88 2.424 1_545 S
O119 C107 1.268 . S
H120 C92 0.930 . S
H121 C93 0.929 . S
H122 C95 0.930 . S
H123 C96 0.929 . S
H124 C101 0.930 . S
H125 C102 0.929 . S
H126 C104 0.930 . S
H127 C105 0.929 . S
Nd128 C130 2.836 . S
Nd128 O148 2.500 . S
Nd128 O149 2.492 . S
Nd128 O150 2.487 1_565 S
Nd128 O151 2.682 1_565 S
Nd128 O152 2.410 . S
Nd128 O157 2.414 . S
Nd128 O159 2.424 1_565 S
Nd129 C139 2.836 . S
Nd129 O151 2.414 . S
Nd129 O153 2.424 1_544 S
Nd129 O154 2.500 . S
Nd129 O155 2.492 1_554 S
Nd129 O156 2.487 . S
Nd129 O157 2.682 1_545 S
Nd129 O158 2.410 . S
C130 Nd128 2.836 . S
C130 C131 1.498 . S
C130 O148 1.258 . S
C130 O149 1.239 . S
C131 C130 1.498 . S
C131 C132 1.366 . S
C131 C136 1.407 . S
C132 C131 1.366 . S
C132 C133 1.392 . S
C132 H160 0.930 . S
C133 C132 1.392 . S
C133 C134 1.398 . S
C133 H161 0.929 . S
C134 C133 1.398 . S
C134 C135 1.352 . S
C135 C134 1.352 . S
C135 C136 1.384 . S
C135 H162 0.930 . S
C136 C131 1.407 . S
C136 C135 1.384 . S
C136 H163 0.929 . S
C137 O150 1.241 . S
C137 O151 1.273 . S
C138 O152 1.251 . S
C138 O153 1.268 1_554 S
C139 Nd129 2.836 . S
C139 C140 1.498 1_554 S
C139 O154 1.258 . S
C139 O155 1.239 1_554 S
C140 C139 1.498 1_556 S
C140 C141 1.366 1_556 S
C140 C145 1.407 . S
C141 C140 1.366 1_554 S
C141 C142 1.392 . S
C141 H164 0.930 . S
C142 C141 1.392 . S
C142 C143 1.398 1_554 S
C142 H165 0.929 . S
C143 C142 1.398 1_556 S
C143 C144 1.352 . S
C144 C143 1.352 . S
C144 C145 1.384 . S
C144 H166 0.930 . S
C145 C140 1.407 . S
C145 C144 1.384 . S
C145 H167 0.929 . S
C146 O156 1.241 1_565 S
C146 O157 1.273 . S
C147 O158 1.251 . S
C147 O159 1.268 . S
O148 Nd128 2.500 . S
O148 C130 1.258 . S
O149 Nd128 2.492 . S
O149 C130 1.239 . S
O150 Nd128 2.487 1_545 S
O150 C137 1.241 . S
O151 Nd128 2.682 1_545 S
O151 Nd129 2.414 . S
O151 C137 1.273 . S
O152 Nd128 2.410 . S
O152 C138 1.251 . S
O153 Nd129 2.424 1_566 S
O153 C138 1.268 1_556 S
O154 Nd129 2.500 . S
O154 C139 1.258 . S
O155 Nd129 2.492 1_556 S
O155 C139 1.239 1_556 S
O156 Nd129 2.487 . S
O156 C146 1.241 1_545 S
O157 Nd128 2.414 . S
O157 Nd129 2.682 1_565 S
O157 C146 1.273 . S
O158 Nd129 2.410 . S
O158 C147 1.251 . S
O159 Nd128 2.424 1_545 S
O159 C147 1.268 . S
H160 C132 0.930 . S
H161 C133 0.929 . S
H162 C135 0.930 . S
H163 C136 0.929 . S
H164 C141 0.930 . S
H165 C142 0.929 . S
H166 C144 0.930 . S
H167 C145 0.929 . S
Nd168 C170 2.836 . S
Nd168 O188 2.500 . S
Nd168 O189 2.492 . S
Nd168 O190 2.487 . S
Nd168 O191 2.682 . S
Nd168 O192 2.410 . S
Nd168 O197 2.414 . S
Nd168 O199 2.424 . S
Nd169 C179 2.836 . S
Nd169 O191 2.414 . S
Nd169 O193 2.424 . S
Nd169 O194 2.500 . S
Nd169 O195 2.492 . S
Nd169 O196 2.487 . S
Nd169 O197 2.682 . S
Nd169 O198 2.410 . S
C170 Nd168 2.836 . S
C170 C171 1.498 . S
C170 O188 1.258 . S
C170 O189 1.239 . S
C171 C170 1.498 . S
C171 C172 1.366 . S
C171 C176 1.407 . S
C172 C171 1.366 . S
C172 C173 1.392 . S
C172 H200 0.930 . S
C173 C172 1.392 . S
C173 C174 1.398 . S
C173 H201 0.929 . S
C174 C173 1.398 . S
C174 C175 1.352 . S
C175 C174 1.352 . S
C175 C176 1.384 . S
C175 H202 0.930 . S
C176 C171 1.407 . S
C176 C175 1.384 . S
C176 H203 0.929 . S
C177 O190 1.241 . S
C177 O191 1.273 . S
C178 O192 1.251 . S
C178 O193 1.268 . S
C179 Nd169 2.836 . S
C179 C180 1.498 . S
C179 O194 1.258 . S
C179 O195 1.239 . S
C180 C179 1.498 . S
C180 C181 1.366 . S
C180 C185 1.407 . S
C181 C180 1.366 . S
C181 C182 1.392 . S
C181 H204 0.930 . S
C182 C181 1.392 . S
C182 C183 1.398 . S
C182 H205 0.929 . S
C183 C182 1.398 . S
C183 C184 1.352 . S
C184 C183 1.352 . S
C184 C185 1.384 . S
C184 H206 0.930 . S
C185 C180 1.407 . S
C185 C184 1.384 . S
C185 H207 0.929 . S
C186 O196 1.241 . S
C186 O197 1.273 . S
C187 O198 1.251 . S
C187 O199 1.268 . S
O188 Nd168 2.500 . S
O188 C170 1.258 . S
O189 Nd168 2.492 . S
O189 C170 1.239 . S
O190 Nd168 2.487 . S
O190 C177 1.241 . S
O191 Nd168 2.682 . S
O191 Nd169 2.414 . S
O191 C177 1.273 . S
O192 Nd168 2.410 . S
O192 C178 1.251 . S
O193 Nd169 2.424 . S
O193 C178 1.268 . S
O194 Nd169 2.500 . S
O194 C179 1.258 . S
O195 Nd169 2.492 . S
O195 C179 1.239 . S
O196 Nd169 2.487 . S
O196 C186 1.241 . S
O197 Nd168 2.414 . S
O197 Nd169 2.682 . S
O197 C186 1.273 . S
O198 Nd169 2.410 . S
O198 C187 1.251 . S
O199 Nd168 2.424 . S
O199 C187 1.268 . S
H200 C172 0.930 . S
H201 C173 0.929 . S
H202 C175 0.930 . S
H203 C176 0.929 . S
H204 C181 0.930 . S
H205 C182 0.929 . S
H206 C184 0.930 . S
H207 C185 0.929 . S
Nd208 C210 2.836 1_455 S
Nd208 O228 2.500 1_455 S
Nd208 O229 2.492 . S
Nd208 O230 2.487 . S
Nd208 O231 2.682 . S
Nd208 O232 2.410 . S
Nd208 O237 2.414 1_454 S
Nd208 O239 2.424 . S
Nd209 C219 2.836 . S
Nd209 O231 2.414 1_556 S
Nd209 O233 2.424 . S
Nd209 O234 2.500 . S
Nd209 O235 2.492 . S
Nd209 O236 2.487 1_455 S
Nd209 O237 2.682 1_455 S
Nd209 O238 2.410 . S
C210 Nd208 2.836 1_655 S
C210 C211 1.498 . S
C210 O228 1.258 . S
C210 O229 1.239 1_655 S
C211 C210 1.498 . S
C211 C212 1.366 . S
C211 C216 1.407 . S
C212 C211 1.366 . S
C212 C213 1.392 . S
C212 H240 0.930 . S
C213 C212 1.392 . S
C213 C214 1.398 . S
C213 H241 0.929 . S
C214 C213 1.398 . S
C214 C215 1.352 . S
C215 C214 1.352 . S
C215 C216 1.384 . S
C215 H242 0.930 . S
C216 C211 1.407 . S
C216 C215 1.384 . S
C216 H243 0.929 1_655 S
C217 O230 1.241 . S
C217 O231 1.273 . S
C218 O232 1.251 1_556 S
C218 O233 1.268 . S
C219 Nd209 2.836 . S
C219 C220 1.498 . S
C219 O234 1.258 . S
C219 O235 1.239 . S
C220 C219 1.498 . S
C220 C221 1.366 . S
C220 C225 1.407 . S
C221 C220 1.366 . S
C221 C222 1.392 . S
C221 H244 0.930 . S
C222 C221 1.392 . S
C222 C223 1.398 . S
C222 H245 0.929 . S
C223 C222 1.398 . S
C223 C224 1.352 . S
C224 C223 1.352 . S
C224 C225 1.384 . S
C224 H246 0.930 . S
C225 C220 1.407 . S
C225 C224 1.384 . S
C225 H247 0.929 . S
C226 O236 1.241 . S
C226 O237 1.273 . S
C227 O238 1.251 1_554 S
C227 O239 1.268 . S
O228 Nd208 2.500 1_655 S
O228 C210 1.258 . S
O229 Nd208 2.492 . S
O229 C210 1.239 1_455 S
O230 Nd208 2.487 . S
O230 C217 1.241 . S
O231 Nd208 2.682 . S
O231 Nd209 2.414 1_554 S
O231 C217 1.273 . S
O232 Nd208 2.410 . S
O232 C218 1.251 1_554 S
O233 Nd209 2.424 . S
O233 C218 1.268 . S
O234 Nd209 2.500 . S
O234 C219 1.258 . S
O235 Nd209 2.492 . S
O235 C219 1.239 . S
O236 Nd209 2.487 1_655 S
O236 C226 1.241 . S
O237 Nd208 2.414 1_656 S
O237 Nd209 2.682 1_655 S
O237 C226 1.273 . S
O238 Nd209 2.410 . S
O238 C227 1.251 1_556 S
O239 Nd208 2.424 . S
O239 C227 1.268 . S
H240 C212 0.930 . S
H241 C213 0.929 . S
H242 C215 0.930 . S
H243 C216 0.929 1_455 S
H244 C221 0.930 . S
H245 C222 0.929 . S
H246 C224 0.930 . S
H247 C225 0.929 . S
C248 C249 1.349 . S
C248 C250 1.327 . S
C248 H273 0.950 . S
C249 C248 1.349 . S
C249 C265 1.349 . S
C250 C248 1.327 . S
C250 C269 1.429 . S
C250 H274 0.950 . S
C251 C268 1.574 . S
C251 C270 1.368 . S
C251 H275 0.949 . S
H252 C256 0.949 . S
C253 C254 1.349 . S
C253 C255 1.327 . S
C253 H276 0.950 . S
C254 C253 1.349 . S
C254 C266 1.349 . S
C255 C253 1.327 . S
C255 C271 1.429 . S
C255 H277 0.950 . S
C256 H252 0.949 . S
C256 C264 1.574 . S
C256 C272 1.368 . S
H257 C265 0.950 . S
H258 C263 0.950 . S
H259 C264 0.949 . S
H260 C266 0.950 . S
H261 C267 0.950 . S
H262 C268 0.949 . S
C263 H258 0.950 . S
C263 C265 1.327 . S
C263 C269 1.429 . S
C264 C256 1.574 . S
C264 H259 0.949 . S
C264 C270 1.368 . S
C265 C249 1.349 . S
C265 H257 0.950 . S
C265 C263 1.327 . S
C266 C254 1.349 . S
C266 H260 0.950 . S
C266 C267 1.327 . S
C267 H261 0.950 . S
C267 C266 1.327 . S
C267 C271 1.429 . S
C268 C251 1.574 . S
C268 H262 0.949 . S
C268 C272 1.368 . S
C269 C250 1.429 . S
C269 C263 1.429 . S
C269 C270 1.523 . S
C270 C251 1.368 . S
C270 C264 1.368 . S
C270 C269 1.523 . S
C271 C255 1.429 . S
C271 C267 1.429 . S
C271 C272 1.523 . S
C272 C256 1.368 . S
C272 C268 1.368 . S
C272 C271 1.523 . S
H273 C248 0.950 . S
H274 C250 0.950 . S
H275 C251 0.949 . S
H276 C253 0.950 . S
H277 C255 0.950 . S
C278 C279 1.349 . S
C278 C280 1.327 . S
C278 H303 0.950 . S
C279 C278 1.349 . S
C279 C295 1.349 . S
C280 C278 1.327 . S
C280 C299 1.429 . S
C280 H304 0.950 . S
C281 C298 1.574 . S
C281 C300 1.368 . S
C281 H305 0.949 . S
H282 C286 0.949 . S
C283 C284 1.349 . S
C283 C285 1.327 . S
C283 H306 0.950 . S
C284 C283 1.349 . S
C284 C296 1.349 . S
C285 C283 1.327 . S
C285 C301 1.429 . S
C285 H307 0.950 . S
C286 H282 0.949 . S
C286 C294 1.574 . S
C286 C302 1.368 . S
H287 C295 0.950 . S
H288 C293 0.950 . S
H289 C294 0.949 . S
H290 C296 0.950 . S
H291 C297 0.950 . S
H292 C298 0.949 . S
C293 H288 0.950 . S
C293 C295 1.327 . S
C293 C299 1.429 . S
C294 C286 1.574 . S
C294 H289 0.949 . S
C294 C300 1.368 . S
C295 C279 1.349 . S
C295 H287 0.950 . S
C295 C293 1.327 . S
C296 C284 1.349 . S
C296 H290 0.950 . S
C296 C297 1.327 . S
C297 H291 0.950 . S
C297 C296 1.327 . S
C297 C301 1.429 . S
C298 C281 1.574 . S
C298 H292 0.949 . S
C298 C302 1.368 . S
C299 C280 1.429 . S
C299 C293 1.429 . S
C299 C300 1.523 . S
C300 C281 1.368 . S
C300 C294 1.368 . S
C300 C299 1.523 . S
C301 C285 1.429 . S
C301 C297 1.429 . S
C301 C302 1.523 . S
C302 C286 1.368 . S
C302 C298 1.368 . S
C302 C301 1.523 . S
H303 C278 0.950 . S
H304 C280 0.950 . S
H305 C281 0.949 . S
H306 C283 0.950 . S
H307 C285 0.950 . S
C308 C309 1.349 . S
C308 C310 1.327 . S
C308 H333 0.950 . S
C309 C308 1.349 . S
C309 C325 1.349 . S
C310 C308 1.327 . S
C310 C329 1.429 . S
C310 H334 0.950 . S
C311 C328 1.574 . S
C311 C330 1.368 . S
C311 H335 0.949 . S
H312 C316 0.949 . S
C313 C314 1.349 . S
C313 C315 1.327 . S
C313 H336 0.950 . S
C314 C313 1.349 . S
C314 C326 1.349 . S
C315 C313 1.327 . S
C315 C331 1.429 . S
C315 H337 0.950 . S
C316 H312 0.949 . S
C316 C324 1.574 . S
C316 C332 1.368 . S
H317 C325 0.950 . S
H318 C323 0.950 . S
H319 C324 0.949 . S
H320 C326 0.950 . S
H321 C327 0.950 . S
H322 C328 0.949 . S
C323 H318 0.950 . S
C323 C325 1.327 . S
C323 C329 1.429 . S
C324 C316 1.574 . S
C324 H319 0.949 . S
C324 C330 1.368 . S
C325 C309 1.349 . S
C325 H317 0.950 . S
C325 C323 1.327 . S
C326 C314 1.349 . S
C326 H320 0.950 . S
C326 C327 1.327 . S
C327 H321 0.950 . S
C327 C326 1.327 . S
C327 C331 1.429 . S
C328 C311 1.574 . S
C328 H322 0.949 . S
C328 C332 1.368 . S
C329 C310 1.429 . S
C329 C323 1.429 . S
C329 C330 1.523 . S
C330 C311 1.368 . S
C330 C324 1.368 . S
C330 C329 1.523 . S
C331 C315 1.429 . S
C331 C327 1.429 . S
C331 C332 1.523 . S
C332 C316 1.368 . S
C332 C328 1.368 . S
C332 C331 1.523 . S
H333 C308 0.950 . S
H334 C310 0.950 . S
H335 C311 0.949 . S
H336 C313 0.950 . S
H337 C315 0.950 . S
C338 C339 1.349 . S
C338 C340 1.327 . S
C338 H363 0.950 . S
C339 C338 1.349 . S
C339 C355 1.349 . S
C340 C338 1.327 . S
C340 C359 1.429 . S
C340 H364 0.950 . S
C341 C358 1.574 . S
C341 C360 1.368 . S
C341 H365 0.949 . S
H342 C346 0.949 . S
C343 C344 1.349 . S
C343 C345 1.327 . S
C343 H366 0.950 . S
C344 C343 1.349 . S
C344 C356 1.349 . S
C345 C343 1.327 . S
C345 C361 1.429 . S
C345 H367 0.950 . S
C346 H342 0.949 . S
C346 C354 1.574 . S
C346 C362 1.368 . S
H347 C355 0.950 . S
H348 C353 0.950 . S
H349 C354 0.949 . S
H350 C356 0.950 . S
H351 C357 0.950 . S
H352 C358 0.949 . S
C353 H348 0.950 . S
C353 C355 1.327 . S
C353 C359 1.429 . S
C354 C346 1.574 . S
C354 H349 0.949 . S
C354 C360 1.368 . S
C355 C339 1.349 . S
C355 H347 0.950 . S
C355 C353 1.327 . S
C356 C344 1.349 . S
C356 H350 0.950 . S
C356 C357 1.327 . S
C357 H351 0.950 . S
C357 C356 1.327 . S
C357 C361 1.429 . S
C358 C341 1.574 . S
C358 H352 0.949 . S
C358 C362 1.368 . S
C359 C340 1.429 . S
C359 C353 1.429 . S
C359 C360 1.523 . S
C360 C341 1.368 . S
C360 C354 1.368 . S
C360 C359 1.523 . S
C361 C345 1.429 . S
C361 C357 1.429 . S
C361 C362 1.523 . S
C362 C346 1.368 . S
C362 C358 1.368 . S
C362 C361 1.523 . S
H363 C338 0.950 . S
H364 C340 0.950 . S
H365 C341 0.949 . S
H366 C343 0.950 . S
H367 C345 0.950 . S
C368 C369 1.349 . S
C368 C370 1.327 . S
C368 H393 0.950 . S
C369 C368 1.349 . S
C369 C385 1.349 . S
C370 C368 1.327 . S
C370 C389 1.429 . S
C370 H394 0.950 . S
C371 C388 1.574 . S
C371 C390 1.368 . S
C371 H395 0.949 . S
H372 C376 0.949 . S
C373 C374 1.349 . S
C373 C375 1.327 . S
C373 H396 0.950 . S
C374 C373 1.349 . S
C374 C386 1.349 . S
C375 C373 1.327 . S
C375 C391 1.429 . S
C375 H397 0.950 . S
C376 H372 0.949 . S
C376 C384 1.574 . S
C376 C392 1.368 . S
H377 C385 0.950 . S
H378 C383 0.950 . S
H379 C384 0.949 . S
H380 C386 0.950 . S
H381 C387 0.950 . S
H382 C388 0.949 . S
C383 H378 0.950 . S
C383 C385 1.327 . S
C383 C389 1.429 . S
C384 C376 1.574 . S
C384 H379 0.949 . S
C384 C390 1.368 . S
C385 C369 1.349 . S
C385 H377 0.950 . S
C385 C383 1.327 . S
C386 C374 1.349 . S
C386 H380 0.950 . S
C386 C387 1.327 . S
C387 H381 0.950 . S
C387 C386 1.327 . S
C387 C391 1.429 . S
C388 C371 1.574 . S
C388 H382 0.949 . S
C388 C392 1.368 . S
C389 C370 1.429 . S
C389 C383 1.429 . S
C389 C390 1.523 . S
C390 C371 1.368 . S
C390 C384 1.368 . S
C390 C389 1.523 . S
C391 C375 1.429 . S
C391 C387 1.429 . S
C391 C392 1.523 . S
C392 C376 1.368 . S
C392 C388 1.368 . S
C392 C391 1.523 . S
H393 C368 0.950 . S
H394 C370 0.950 . S
H395 C371 0.949 . S
H396 C373 0.950 . S
H397 C375 0.950 . S
C398 C399 1.349 . S
C398 C400 1.327 . S
C398 H423 0.950 . S
C399 C398 1.349 . S
C399 C415 1.349 . S
C400 C398 1.327 . S
C400 C419 1.429 . S
C400 H424 0.950 . S
C401 C418 1.574 . S
C401 C420 1.368 . S
C401 H425 0.949 . S
H402 C406 0.949 . S
C403 C404 1.349 . S
C403 C405 1.327 . S
C403 H426 0.950 . S
C404 C403 1.349 . S
C404 C416 1.349 . S
C405 C403 1.327 . S
C405 C421 1.429 . S
C405 H427 0.950 . S
C406 H402 0.949 . S
C406 C414 1.574 . S
C406 C422 1.368 . S
H407 C415 0.950 . S
H408 C413 0.950 . S
H409 C414 0.949 . S
H410 C416 0.950 . S
H411 C417 0.950 . S
H412 C418 0.949 . S
C413 H408 0.950 . S
C413 C415 1.327 . S
C413 C419 1.429 . S
C414 C406 1.574 . S
C414 H409 0.949 . S
C414 C420 1.368 . S
C415 C399 1.349 . S
C415 H407 0.950 . S
C415 C413 1.327 . S
C416 C404 1.349 . S
C416 H410 0.950 . S
C416 C417 1.327 . S
C417 H411 0.950 . S
C417 C416 1.327 . S
C417 C421 1.429 . S
C418 C401 1.574 . S
C418 H412 0.949 . S
C418 C422 1.368 . S
C419 C400 1.429 . S
C419 C413 1.429 . S
C419 C420 1.523 . S
C420 C401 1.368 . S
C420 C414 1.368 . S
C420 C419 1.523 . S
C421 C405 1.429 . S
C421 C417 1.429 . S
C421 C422 1.523 . S
C422 C406 1.368 . S
C422 C418 1.368 . S
C422 C421 1.523 . S
H423 C398 0.950 . S
H424 C400 0.950 . S
H425 C401 0.949 . S
H426 C403 0.950 . S
H427 C405 0.950 . S
C428 C429 1.349 . S
C428 C430 1.327 . S
C428 H453 0.950 . S
C429 C428 1.349 . S
C429 C445 1.349 . S
C430 C428 1.327 . S
C430 C449 1.429 . S
C430 H454 0.950 . S
C431 C448 1.574 . S
C431 C450 1.368 . S
C431 H455 0.949 . S
H432 C436 0.949 . S
C433 C434 1.349 . S
C433 C435 1.327 . S
C433 H456 0.950 . S
C434 C433 1.349 . S
C434 C446 1.349 . S
C435 C433 1.327 . S
C435 C451 1.429 . S
C435 H457 0.950 . S
C436 H432 0.949 . S
C436 C444 1.574 . S
C436 C452 1.368 . S
H437 C445 0.950 . S
H438 C443 0.950 . S
H439 C444 0.949 . S
H440 C446 0.950 . S
H441 C447 0.950 . S
H442 C448 0.949 . S
C443 H438 0.950 . S
C443 C445 1.327 . S
C443 C449 1.429 . S
C444 C436 1.574 . S
C444 H439 0.949 . S
C444 C450 1.368 . S
C445 C429 1.349 . S
C445 H437 0.950 . S
C445 C443 1.327 . S
C446 C434 1.349 . S
C446 H440 0.950 . S
C446 C447 1.327 . S
C447 H441 0.950 . S
C447 C446 1.327 . S
C447 C451 1.429 . S
C448 C431 1.574 . S
C448 H442 0.949 . S
C448 C452 1.368 . S
C449 C430 1.429 . S
C449 C443 1.429 . S
C449 C450 1.523 . S
C450 C431 1.368 . S
C450 C444 1.368 . S
C450 C449 1.523 . S
C451 C435 1.429 . S
C451 C447 1.429 . S
C451 C452 1.523 . S
C452 C436 1.368 . S
C452 C448 1.368 . S
C452 C451 1.523 . S
H453 C428 0.950 . S
H454 C430 0.950 . S
H455 C431 0.949 . S
H456 C433 0.950 . S
H457 C435 0.950 . S
C458 C459 1.349 . S
C458 C460 1.327 . S
C458 H483 0.950 . S
C459 C458 1.349 . S
C459 C475 1.349 . S
C460 C458 1.327 . S
C460 C479 1.429 . S
C460 H484 0.950 . S
C461 C478 1.574 . S
C461 C480 1.368 . S
C461 H485 0.949 . S
H462 C466 0.949 . S
C463 C464 1.349 . S
C463 C465 1.327 . S
C463 H486 0.950 . S
C464 C463 1.349 . S
C464 C476 1.349 . S
C465 C463 1.327 . S
C465 C481 1.429 . S
C465 H487 0.950 . S
C466 H462 0.949 . S
C466 C474 1.574 . S
C466 C482 1.368 . S
H467 C475 0.950 . S
H468 C473 0.950 . S
H469 C474 0.949 . S
H470 C476 0.950 . S
H471 C477 0.950 . S
H472 C478 0.949 . S
C473 H468 0.950 . S
C473 C475 1.327 . S
C473 C479 1.429 . S
C474 C466 1.574 . S
C474 H469 0.949 . S
C474 C480 1.368 . S
C475 C459 1.349 . S
C475 H467 0.950 . S
C475 C473 1.327 . S
C476 C464 1.349 . S
C476 H470 0.950 . S
C476 C477 1.327 . S
C477 H471 0.950 . S
C477 C476 1.327 . S
C477 C481 1.429 . S
C478 C461 1.574 . S
C478 H472 0.949 . S
C478 C482 1.368 . S
C479 C460 1.429 . S
C479 C473 1.429 . S
C479 C480 1.523 . S
C480 C461 1.368 . S
C480 C474 1.368 . S
C480 C479 1.523 . S
C481 C465 1.429 . S
C481 C477 1.429 . S
C481 C482 1.523 . S
C482 C466 1.368 . S
C482 C478 1.368 . S
C482 C481 1.523 . S
H483 C458 0.950 . S
H484 C460 0.950 . S
H485 C461 0.949 . S
H486 C463 0.950 . S
H487 C465 0.950 . S
C488 C489 1.349 . S
C488 C490 1.327 . S
C488 H513 0.950 . S
C489 C488 1.349 . S
C489 C505 1.349 . S
C490 C488 1.327 . S
C490 C509 1.429 . S
C490 H514 0.950 . S
C491 C508 1.574 . S
C491 C510 1.368 . S
C491 H515 0.949 . S
H492 C496 0.949 . S
C493 C494 1.349 . S
C493 C495 1.327 . S
C493 H516 0.945 1_554 S
C494 C493 1.349 . S
C494 C506 1.349 . S
C495 C493 1.327 . S
C495 C511 1.429 . S
C495 H517 0.950 . S
C496 H492 0.949 . S
C496 C504 1.574 . S
C496 C512 1.368 . S
H497 C505 0.950 . S
H498 C503 0.950 . S
H499 C504 0.949 . S
H500 C506 0.950 . S
H501 C507 0.950 . S
H502 C508 0.949 . S
C503 H498 0.950 . S
C503 C505 1.327 . S
C503 C509 1.429 . S
C504 C496 1.574 . S
C504 H499 0.949 . S
C504 C510 1.368 . S
C505 C489 1.349 . S
C505 H497 0.950 . S
C505 C503 1.327 . S
C506 C494 1.349 . S
C506 H500 0.950 . S
C506 C507 1.327 . S
C507 H501 0.950 . S
C507 C506 1.327 . S
C507 C511 1.429 . S
C508 C491 1.574 . S
C508 H502 0.949 . S
C508 C512 1.368 . S
C509 C490 1.429 . S
C509 C503 1.429 . S
C509 C510 1.523 . S
C510 C491 1.368 . S
C510 C504 1.368 . S
C510 C509 1.523 . S
C511 C495 1.429 . S
C511 C507 1.429 . S
C511 C512 1.523 . S
C512 C496 1.368 . S
C512 C508 1.368 . S
C512 C511 1.523 . S
H513 C488 0.950 . S
H514 C490 0.950 . S
H515 C491 0.949 . S
H516 C493 0.945 1_556 S
H517 C495 0.950 . S
C518 C519 1.349 . S
C518 C520 1.327 . S
C518 H543 0.950 . S
C519 C518 1.349 . S
C519 C535 1.349 . S
C520 C518 1.327 . S
C520 C539 1.429 . S
C520 H544 0.950 . S
C521 C538 1.574 . S
C521 C540 1.368 . S
C521 H545 0.949 . S
H522 C526 0.949 . S
C523 C524 1.349 . S
C523 C525 1.327 . S
C523 H546 0.950 . S
C524 C523 1.349 . S
C524 C536 1.349 . S
C525 C523 1.327 . S
C525 C541 1.429 . S
C525 H547 0.950 . S
C526 H522 0.949 . S
C526 C534 1.574 . S
C526 C542 1.368 . S
H527 C535 0.950 . S
H528 C533 0.950 . S
H529 C534 0.949 . S
H530 C536 0.950 1_554 S
H531 C537 0.950 1_554 S
H532 C538 0.949 . S
C533 H528 0.950 . S
C533 C535 1.327 . S
C533 C539 1.429 . S
C534 C526 1.574 . S
C534 H529 0.949 . S
C534 C540 1.368 . S
C535 C519 1.349 . S
C535 H527 0.950 . S
C535 C533 1.327 . S
C536 C524 1.349 . S
C536 H530 0.950 1_556 S
C536 C537 1.327 . S
C537 H531 0.950 1_556 S
C537 C536 1.327 . S
C537 C541 1.429 . S
C538 C521 1.574 . S
C538 H532 0.949 . S
C538 C542 1.368 . S
C539 C520 1.429 . S
C539 C533 1.429 . S
C539 C540 1.523 . S
C540 C521 1.368 . S
C540 C534 1.368 . S
C540 C539 1.523 . S
C541 C525 1.429 . S
C541 C537 1.429 . S
C541 C542 1.523 . S
C542 C526 1.368 . S
C542 C538 1.368 . S
C542 C541 1.523 . S
H543 C518 0.950 . S
H544 C520 0.950 . S
H545 C521 0.949 . S
H546 C523 0.950 . S
H547 C525 0.950 . S
C548 C549 1.349 . S
C548 C550 1.327 . S
C548 H573 0.950 . S
C549 C548 1.349 . S
C549 C565 1.349 . S
C550 C548 1.327 . S
C550 C569 1.429 . S
C550 H574 0.950 . S
C551 C568 1.574 . S
C551 C570 1.368 . S
C551 H575 0.949 . S
H552 C556 0.949 . S
C553 C554 1.349 . S
C553 C555 1.327 . S
C553 H576 0.950 . S
C554 C553 1.349 . S
C554 C566 1.349 . S
C555 C553 1.327 . S
C555 C571 1.429 . S
C555 H577 0.950 . S
C556 H552 0.949 . S
C556 C564 1.574 . S
C556 C572 1.368 . S
H557 C565 0.950 . S
H558 C563 0.950 . S
H559 C564 0.949 . S
H560 C566 0.950 . S
H561 C567 0.950 . S
H562 C568 0.949 . S
C563 H558 0.950 . S
C563 C565 1.327 . S
C563 C569 1.429 . S
C564 C556 1.574 . S
C564 H559 0.949 . S
C564 C570 1.368 . S
C565 C549 1.349 . S
C565 H557 0.950 . S
C565 C563 1.327 . S
C566 C554 1.349 . S
C566 H560 0.950 . S
C566 C567 1.327 . S
C567 H561 0.950 . S
C567 C566 1.327 . S
C567 C571 1.429 . S
C568 C551 1.574 . S
C568 H562 0.949 . S
C568 C572 1.368 . S
C569 C550 1.429 . S
C569 C563 1.429 . S
C569 C570 1.523 . S
C570 C551 1.368 . S
C570 C564 1.368 . S
C570 C569 1.523 . S
C571 C555 1.429 . S
C571 C567 1.429 . S
C571 C572 1.523 . S
C572 C556 1.368 . S
C572 C568 1.368 . S
C572 C571 1.523 . S
H573 C548 0.950 . S
H574 C550 0.950 . S
H575 C551 0.949 . S
H576 C553 0.950 . S
H577 C555 0.950 . S
C578 C579 1.349 . S
C578 C580 1.327 . S
C578 H603 0.950 . S
C579 C578 1.349 . S
C579 C595 1.349 . S
C580 C578 1.327 . S
C580 C599 1.429 . S
C580 H604 0.950 . S
C581 C598 1.574 . S
C581 C600 1.368 . S
C581 H605 0.949 . S
H582 C586 0.949 . S
C583 C584 1.349 . S
C583 C585 1.327 . S
C583 H606 0.950 . S
C584 C583 1.349 . S
C584 C596 1.349 . S
C585 C583 1.327 . S
C585 C601 1.429 . S
C585 H607 0.950 . S
C586 H582 0.949 . S
C586 C594 1.574 . S
C586 C602 1.368 . S
H587 C595 0.950 . S
H588 C593 0.950 . S
H589 C594 0.949 . S
H590 C596 0.950 . S
H591 C597 0.950 . S
H592 C598 0.949 . S
C593 H588 0.950 . S
C593 C595 1.327 . S
C593 C599 1.429 . S
C594 C586 1.574 . S
C594 H589 0.949 . S
C594 C600 1.368 . S
C595 C579 1.349 . S
C595 H587 0.950 . S
C595 C593 1.327 . S
C596 C584 1.349 . S
C596 H590 0.950 . S
C596 C597 1.327 . S
C597 H591 0.950 . S
C597 C596 1.327 . S
C597 C601 1.429 . S
C598 C581 1.574 . S
C598 H592 0.949 . S
C598 C602 1.368 . S
C599 C580 1.429 . S
C599 C593 1.429 . S
C599 C600 1.523 . S
C600 C581 1.368 . S
C600 C594 1.368 . S
C600 C599 1.523 . S
C601 C585 1.429 . S
C601 C597 1.429 . S
C601 C602 1.523 . S
C602 C586 1.368 . S
C602 C598 1.368 . S
C602 C601 1.523 . S
H603 C578 0.950 . S
H604 C580 0.950 . S
H605 C581 0.949 . S
H606 C583 0.950 . S
H607 C585 0.950 . S
C608 C609 1.349 . S
C608 C610 1.327 . S
C608 H633 0.950 . S
C609 C608 1.349 . S
C609 C625 1.349 . S
C610 C608 1.327 . S
C610 C629 1.429 . S
C610 H634 0.950 . S
C611 C628 1.574 . S
C611 C630 1.368 . S
C611 H635 0.949 . S
H612 C616 0.949 . S
C613 C614 1.349 . S
C613 C615 1.327 . S
C613 H636 0.950 . S
C614 C613 1.349 . S
C614 C626 1.349 . S
C615 C613 1.327 . S
C615 C631 1.429 . S
C615 H637 0.950 . S
C616 H612 0.949 . S
C616 C624 1.574 . S
C616 C632 1.368 . S
H617 C625 0.950 . S
H618 C623 0.950 . S
H619 C624 0.949 . S
H620 C626 0.950 . S
H621 C627 0.950 . S
H622 C628 0.949 . S
C623 H618 0.950 . S
C623 C625 1.327 . S
C623 C629 1.429 . S
C624 C616 1.574 . S
C624 H619 0.949 . S
C624 C630 1.368 . S
C625 C609 1.349 . S
C625 H617 0.950 . S
C625 C623 1.327 . S
C626 C614 1.349 . S
C626 H620 0.950 . S
C626 C627 1.327 . S
C627 H621 0.950 . S
C627 C626 1.327 . S
C627 C631 1.429 . S
C628 C611 1.574 . S
C628 H622 0.949 . S
C628 C632 1.368 . S
C629 C610 1.429 . S
C629 C623 1.429 . S
C629 C630 1.523 . S
C630 C611 1.368 . S
C630 C624 1.368 . S
C630 C629 1.523 . S
C631 C615 1.429 . S
C631 C627 1.429 . S
C631 C632 1.523 . S
C632 C616 1.368 . S
C632 C628 1.368 . S
C632 C631 1.523 . S
H633 C608 0.950 . S
H634 C610 0.950 . S
H635 C611 0.949 . S
H636 C613 0.950 . S
H637 C615 0.950 . S
C638 C639 1.349 . S
C638 C640 1.327 . S
C638 H663 0.950 . S
C639 C638 1.349 . S
C639 C655 1.349 . S
C640 C638 1.327 . S
C640 C659 1.429 . S
C640 H664 0.950 . S
C641 C658 1.574 . S
C641 C660 1.368 . S
C641 H665 0.949 . S
H642 C646 0.949 . S
C643 C644 1.349 . S
C643 C645 1.327 . S
C643 H666 0.950 . S
C644 C643 1.349 . S
C644 C656 1.349 . S
C645 C643 1.327 . S
C645 C661 1.429 . S
C645 H667 0.950 . S
C646 H642 0.949 . S
C646 C654 1.574 . S
C646 C662 1.368 . S
H647 C655 0.950 . S
H648 C653 0.950 . S
H649 C654 0.949 . S
H650 C656 0.950 . S
H651 C657 0.950 . S
H652 C658 0.949 . S
C653 H648 0.950 . S
C653 C655 1.327 . S
C653 C659 1.429 . S
C654 C646 1.574 . S
C654 H649 0.949 . S
C654 C660 1.368 . S
C655 C639 1.349 . S
C655 H647 0.950 . S
C655 C653 1.327 . S
C656 C644 1.349 . S
C656 H650 0.950 . S
C656 C657 1.327 . S
C657 H651 0.950 . S
C657 C656 1.327 . S
C657 C661 1.429 . S
C658 C641 1.574 . S
C658 H652 0.949 . S
C658 C662 1.368 . S
C659 C640 1.429 . S
C659 C653 1.429 . S
C659 C660 1.523 . S
C660 C641 1.368 . S
C660 C654 1.368 . S
C660 C659 1.523 . S
C661 C645 1.429 . S
C661 C657 1.429 . S
C661 C662 1.523 . S
C662 C646 1.368 . S
C662 C658 1.368 . S
C662 C661 1.523 . S
H663 C638 0.950 . S
H664 C640 0.950 . S
H665 C641 0.949 . S
H666 C643 0.950 . S
H667 C645 0.950 . S
C668 C669 1.349 . S
C668 C670 1.327 . S
C668 H693 0.950 . S
C669 C668 1.349 . S
C669 C685 1.349 . S
C670 C668 1.327 . S
C670 C689 1.429 . S
C670 H694 0.950 . S
C671 C688 1.574 . S
C671 C690 1.368 . S
C671 H695 0.949 . S
H672 C676 0.949 . S
C673 C674 1.349 . S
C673 C675 1.327 . S
C673 H696 0.950 . S
C674 C673 1.349 . S
C674 C686 1.349 . S
C675 C673 1.327 . S
C675 C691 1.429 . S
C675 H697 0.950 . S
C676 H672 0.949 . S
C676 C684 1.574 . S
C676 C692 1.368 . S
H677 C685 0.950 . S
H678 C683 0.950 . S
H679 C684 0.949 . S
H680 C686 0.950 . S
H681 C687 0.950 . S
H682 C688 0.949 . S
C683 H678 0.950 . S
C683 C685 1.327 . S
C683 C689 1.429 . S
C684 C676 1.574 . S
C684 H679 0.949 . S
C684 C690 1.368 . S
C685 C669 1.349 . S
C685 H677 0.950 . S
C685 C683 1.327 . S
C686 C674 1.349 . S
C686 H680 0.950 . S
C686 C687 1.327 . S
C687 H681 0.950 . S
C687 C686 1.327 . S
C687 C691 1.429 . S
C688 C671 1.574 . S
C688 H682 0.949 . S
C688 C692 1.368 . S
C689 C670 1.429 . S
C689 C683 1.429 . S
C689 C690 1.523 . S
C690 C671 1.368 . S
C690 C684 1.368 . S
C690 C689 1.523 . S
C691 C675 1.429 . S
C691 C687 1.429 . S
C691 C692 1.523 . S
C692 C676 1.368 . S
C692 C688 1.368 . S
C692 C691 1.523 . S
H693 C668 0.950 . S
H694 C670 0.950 . S
H695 C671 0.949 . S
H696 C673 0.950 . S
H697 C675 0.950 . S
C698 C699 1.349 . S
C698 C700 1.327 . S
C698 H723 0.950 . S
C699 C698 1.349 . S
C699 C715 1.349 . S
C700 C698 1.327 . S
C700 C719 1.429 . S
C700 H724 0.950 . S
C701 C718 1.574 . S
C701 C720 1.368 . S
C701 H725 0.949 . S
H702 C706 0.949 . S
C703 C704 1.349 . S
C703 C705 1.327 . S
C703 H726 0.950 . S
C704 C703 1.349 . S
C704 C716 1.349 . S
C705 C703 1.327 . S
C705 C721 1.429 . S
C705 H727 0.950 . S
C706 H702 0.949 . S
C706 C714 1.574 . S
C706 C722 1.368 . S
H707 C715 0.950 . S
H708 C713 0.950 . S
H709 C714 0.949 . S
H710 C716 0.950 . S
H711 C717 0.950 . S
H712 C718 0.949 . S
C713 H708 0.950 . S
C713 C715 1.327 . S
C713 C719 1.429 . S
C714 C706 1.574 . S
C714 H709 0.949 . S
C714 C720 1.368 . S
C715 C699 1.349 . S
C715 H707 0.950 . S
C715 C713 1.327 . S
C716 C704 1.349 . S
C716 H710 0.950 . S
C716 C717 1.327 . S
C717 H711 0.950 . S
C717 C716 1.327 . S
C717 C721 1.429 . S
C718 C701 1.574 . S
C718 H712 0.949 . S
C718 C722 1.368 . S
C719 C700 1.429 . S
C719 C713 1.429 . S
C719 C720 1.523 . S
C720 C701 1.368 . S
C720 C714 1.368 . S
C720 C719 1.523 . S
C721 C705 1.429 . S
C721 C717 1.429 . S
C721 C722 1.523 . S
C722 C706 1.368 . S
C722 C718 1.368 . S
C722 C721 1.523 . S
H723 C698 0.950 . S
H724 C700 0.950 . S
H725 C701 0.949 . S
H726 C703 0.950 . S
H727 C705 0.950 . S
C728 C729 1.349 . S
C728 C730 1.327 . S
C728 H753 0.950 . S
C729 C728 1.349 . S
C729 C745 1.349 . S
C730 C728 1.327 . S
C730 C749 1.429 . S
C730 H754 0.950 . S
C731 C748 1.574 . S
C731 C750 1.368 . S
C731 H755 0.949 . S
H732 C736 0.949 . S
C733 C734 1.349 1_556 S
C733 C735 1.327 . S
C733 H756 0.950 . S
C734 C733 1.349 1_554 S
C734 C746 1.349 . S
C735 C733 1.327 . S
C735 C751 1.429 . S
C735 H757 0.950 . S
C736 H732 0.949 . S
C736 C744 1.574 1_554 S
C736 C752 1.368 1_554 S
H737 C745 0.950 . S
H738 C743 0.950 . S
H739 C744 0.949 1_554 S
H740 C746 0.950 . S
H741 C747 0.950 . S
H742 C748 0.949 . S
C743 H738 0.950 . S
C743 C745 1.327 . S
C743 C749 1.429 . S
C744 C736 1.574 1_556 S
C744 H739 0.949 1_556 S
C744 C750 1.368 . S
C745 C729 1.349 . S
C745 H737 0.950 . S
C745 C743 1.327 . S
C746 C734 1.349 . S
C746 H740 0.950 . S
C746 C747 1.327 . S
C747 H741 0.950 . S
C747 C746 1.327 . S
C747 C751 1.429 1_554 S
C748 C731 1.574 . S
C748 H742 0.949 . S
C748 C752 1.368 . S
C749 C730 1.429 . S
C749 C743 1.429 . S
C749 C750 1.523 . S
C750 C731 1.368 . S
C750 C744 1.368 . S
C750 C749 1.523 . S
C751 C735 1.429 . S
C751 C747 1.429 1_556 S
C751 C752 1.523 . S
C752 C736 1.368 1_556 S
C752 C748 1.368 . S
C752 C751 1.523 . S
H753 C728 0.950 . S
H754 C730 0.950 . S
H755 C731 0.949 . S
H756 C733 0.950 . S
H757 C735 0.950 . S
C758 C759 1.349 . S
C758 C760 1.327 . S
C758 H783 0.950 . S
C759 C758 1.349 . S
C759 C775 1.349 . S
C760 C758 1.327 . S
C760 C779 1.429 . S
C760 H784 0.950 . S
C761 C778 1.574 . S
C761 C780 1.368 . S
C761 H785 0.949 . S
H762 C766 0.949 . S
C763 C764 1.349 . S
C763 C765 1.327 . S
C763 H786 0.950 . S
C764 C763 1.349 . S
C764 C776 1.349 . S
C765 C763 1.327 . S
C765 C781 1.429 . S
C765 H787 0.950 . S
C766 H762 0.949 . S
C766 C774 1.574 . S
C766 C782 1.368 . S
H767 C775 0.950 . S
H768 C773 0.950 . S
H769 C774 0.949 . S
H770 C776 0.950 . S
H771 C777 0.950 . S
H772 C778 0.949 . S
C773 H768 0.950 . S
C773 C775 1.327 . S
C773 C779 1.429 . S
C774 C766 1.574 . S
C774 H769 0.949 . S
C774 C780 1.368 . S
C775 C759 1.349 . S
C775 H767 0.950 . S
C775 C773 1.327 . S
C776 C764 1.349 . S
C776 H770 0.950 . S
C776 C777 1.327 . S
C777 H771 0.950 . S
C777 C776 1.327 . S
C777 C781 1.429 . S
C778 C761 1.574 . S
C778 H772 0.949 . S
C778 C782 1.368 . S
C779 C760 1.429 . S
C779 C773 1.429 . S
C779 C780 1.523 . S
C780 C761 1.368 . S
C780 C774 1.368 . S
C780 C779 1.523 . S
C781 C765 1.429 . S
C781 C777 1.429 . S
C781 C782 1.523 . S
C782 C766 1.368 . S
C782 C778 1.368 . S
C782 C781 1.523 . S
H783 C758 0.950 . S
H784 C760 0.950 . S
H785 C761 0.949 . S
H786 C763 0.950 . S
H787 C765 0.950 . S
C788 C789 1.349 . S
C788 C790 1.327 . S
C788 H813 0.950 . S
C789 C788 1.349 . S
C789 C805 1.349 . S
C790 C788 1.327 . S
C790 C809 1.429 . S
C790 H814 0.950 . S
C791 C808 1.574 . S
C791 C810 1.368 . S
C791 H815 0.949 . S
H792 C796 0.949 . S
C793 C794 1.349 . S
C793 C795 1.327 . S
C793 H816 0.950 . S
C794 C793 1.349 . S
C794 C806 1.349 . S
C795 C793 1.327 . S
C795 C811 1.429 . S
C795 H817 0.950 . S
C796 H792 0.949 . S
C796 C804 1.574 . S
C796 C812 1.368 . S
H797 C805 0.950 . S
H798 C803 0.950 . S
H799 C804 0.949 . S
H800 C806 0.950 1_556 S
H801 C807 0.950 . S
H802 C808 0.949 . S
C803 H798 0.950 . S
C803 C805 1.327 . S
C803 C809 1.429 . S
C804 C796 1.574 . S
C804 H799 0.949 . S
C804 C810 1.368 . S
C805 C789 1.349 . S
C805 H797 0.950 . S
C805 C803 1.327 . S
C806 C794 1.349 . S
C806 H800 0.950 1_554 S
C806 C807 1.327 . S
C807 H801 0.950 . S
C807 C806 1.327 . S
C807 C811 1.429 . S
C808 C791 1.574 . S
C808 H802 0.949 . S
C808 C812 1.368 . S
C809 C790 1.429 . S
C809 C803 1.429 . S
C809 C810 1.523 . S
C810 C791 1.368 . S
C810 C804 1.368 . S
C810 C809 1.523 . S
C811 C795 1.429 . S
C811 C807 1.429 . S
C811 C812 1.523 . S
C812 C796 1.368 . S
C812 C808 1.368 . S
C812 C811 1.523 . S
H813 C788 0.950 . S
H814 C790 0.950 . S
H815 C791 0.949 . S
H816 C793 0.950 . S
H817 C795 0.950 . S
C818 C819 1.349 . S
C818 C820 1.327 . S
C818 H843 0.950 . S
C819 C818 1.349 . S
C819 C835 1.349 . S
C820 C818 1.327 . S
C820 C839 1.429 . S
C820 H844 0.950 . S
C821 C838 1.574 . S
C821 C840 1.368 . S
C821 H845 0.949 . S
H822 C826 0.949 . S
C823 C824 1.349 . S
C823 C825 1.327 . S
C823 H846 0.950 . S
C824 C823 1.349 . S
C824 C836 1.349 . S
C825 C823 1.327 . S
C825 C841 1.429 . S
C825 H847 0.950 . S
C826 H822 0.949 . S
C826 C834 1.574 . S
C826 C842 1.368 . S
H827 C835 0.950 . S
H828 C833 0.950 . S
H829 C834 0.949 . S
H830 C836 0.950 . S
H831 C837 0.950 . S
H832 C838 0.949 . S
C833 H828 0.950 . S
C833 C835 1.327 . S
C833 C839 1.429 . S
C834 C826 1.574 . S
C834 H829 0.949 . S
C834 C840 1.368 . S
C835 C819 1.349 . S
C835 H827 0.950 . S
C835 C833 1.327 . S
C836 C824 1.349 . S
C836 H830 0.950 . S
C836 C837 1.327 . S
C837 H831 0.950 . S
C837 C836 1.327 . S
C837 C841 1.429 . S
C838 C821 1.574 . S
C838 H832 0.949 . S
C838 C842 1.368 . S
C839 C820 1.429 . S
C839 C833 1.429 . S
C839 C840 1.523 . S
C840 C821 1.368 . S
C840 C834 1.368 . S
C840 C839 1.523 . S
C841 C825 1.429 . S
C841 C837 1.429 . S
C841 C842 1.523 . S
C842 C826 1.368 . S
C842 C838 1.368 . S
C842 C841 1.523 . S
H843 C818 0.950 . S
H844 C820 0.950 . S
H845 C821 0.949 . S
H846 C823 0.950 . S
H847 C825 0.950 . S
C848 C849 1.349 . S
C848 C850 1.327 . S
C848 H873 0.950 . S
C849 C848 1.349 . S
C849 C865 1.349 . S
C850 C848 1.327 . S
C850 C869 1.429 . S
C850 H874 0.950 . S
C851 C868 1.574 . S
C851 C870 1.368 . S
C851 H875 0.949 . S
H852 C856 0.949 1_554 S
C853 C854 1.349 . S
C853 C855 1.327 . S
C853 H876 0.950 1_655 S
C854 C853 1.349 . S
C854 C866 1.349 1_556 S
C855 C853 1.327 . S
C855 C871 1.429 . S
C855 H877 0.950 . S
C856 H852 0.949 1_556 S
C856 C864 1.574 . S
C856 C872 1.368 . S
H857 C865 0.950 . S
H858 C863 0.950 . S
H859 C864 0.970 . S
H860 C866 0.950 . S
H861 C867 0.950 1_554 S
H862 C868 0.949 . S
C863 H858 0.950 . S
C863 C865 1.327 . S
C863 C869 1.429 . S
C864 C856 1.574 . S
C864 H859 0.970 . S
C864 C870 1.368 . S
C865 C849 1.349 . S
C865 H857 0.950 . S
C865 C863 1.327 . S
C866 C854 1.349 1_554 S
C866 H860 0.950 . S
C866 C867 1.327 1_554 S
C867 H861 0.950 1_556 S
C867 C866 1.327 1_556 S
C867 C871 1.429 . S
C868 C851 1.574 . S
C868 H862 0.949 . S
C868 C872 1.368 . S
C869 C850 1.429 . S
C869 C863 1.429 . S
C869 C870 1.523 . S
C870 C851 1.368 . S
C870 C864 1.368 . S
C870 C869 1.523 . S
C871 C855 1.429 . S
C871 C867 1.429 . S
C871 C872 1.523 . S
C872 C856 1.368 . S
C872 C868 1.368 . S
C872 C871 1.523 . S
H873 C848 0.950 . S
H874 C850 0.950 . S
H875 C851 0.949 . S
H876 C853 0.950 1_455 S
H877 C855 0.950 . S
C878 C879 1.349 . S
C878 C880 1.327 . S
C878 H903 0.950 . S
C879 C878 1.349 . S
C879 C895 1.349 . S
C880 C878 1.327 . S
C880 C899 1.429 . S
C880 H904 0.950 . S
C881 C898 1.574 . S
C881 C900 1.368 . S
C881 H905 0.949 . S
H882 C886 0.949 . S
C883 C884 1.349 . S
C883 C885 1.327 . S
C883 H906 0.950 . S
C884 C883 1.349 . S
C884 C896 1.349 . S
C885 C883 1.327 . S
C885 C901 1.429 . S
C885 H907 0.950 . S
C886 H882 0.949 . S
C886 C894 1.574 . S
C886 C902 1.368 . S
H887 C895 0.950 . S
H888 C893 0.950 . S
H889 C894 0.949 . S
H890 C896 0.950 . S
H891 C897 0.950 . S
H892 C898 0.949 . S
C893 H888 0.950 . S
C893 C895 1.327 . S
C893 C899 1.429 . S
C894 C886 1.574 . S
C894 H889 0.949 . S
C894 C900 1.368 . S
C895 C879 1.349 . S
C895 H887 0.950 . S
C895 C893 1.327 . S
C896 C884 1.349 . S
C896 H890 0.950 . S
C896 C897 1.327 . S
C897 H891 0.950 . S
C897 C896 1.327 . S
C897 C901 1.429 . S
C898 C881 1.574 . S
C898 H892 0.949 . S
C898 C902 1.368 . S
C899 C880 1.429 . S
C899 C893 1.429 . S
C899 C900 1.523 . S
C900 C881 1.368 . S
C900 C894 1.368 . S
C900 C899 1.523 . S
C901 C885 1.429 . S
C901 C897 1.429 . S
C901 C902 1.523 . S
C902 C886 1.368 . S
C902 C898 1.368 . S
C902 C901 1.523 . S
H903 C878 0.950 . S
H904 C880 0.950 . S
H905 C881 0.949 . S
H906 C883 0.950 . S
H907 C885 0.950 . S
C908 C909 1.349 . S
C908 C910 1.327 . S
C908 H933 0.950 . S
C909 C908 1.349 . S
C909 C925 1.349 . S
C910 C908 1.327 . S
C910 C929 1.429 . S
C910 H934 0.950 . S
C911 C928 1.574 . S
C911 C930 1.368 . S
C911 H935 0.949 . S
H912 C916 0.949 . S
C913 C914 1.349 . S
C913 C915 1.327 . S
C913 H936 0.950 . S
C914 C913 1.349 . S
C914 C926 1.349 . S
C915 C913 1.327 . S
C915 C931 1.429 . S
C915 H937 0.950 . S
C916 H912 0.949 . S
C916 C924 1.574 . S
C916 C932 1.368 . S
H917 C925 0.950 . S
H918 C923 0.950 . S
H919 C924 0.949 . S
H920 C926 0.950 . S
H921 C927 0.950 . S
H922 C928 0.949 . S
C923 H918 0.950 . S
C923 C925 1.327 . S
C923 C929 1.429 . S
C924 C916 1.574 . S
C924 H919 0.949 . S
C924 C930 1.368 . S
C925 C909 1.349 . S
C925 H917 0.950 . S
C925 C923 1.327 . S
C926 C914 1.349 . S
C926 H920 0.950 . S
C926 C927 1.327 . S
C927 H921 0.950 . S
C927 C926 1.327 . S
C927 C931 1.429 . S
C928 C911 1.574 . S
C928 H922 0.949 . S
C928 C932 1.368 . S
C929 C910 1.429 . S
C929 C923 1.429 . S
C929 C930 1.523 . S
C930 C911 1.368 . S
C930 C924 1.368 . S
C930 C929 1.523 . S
C931 C915 1.429 . S
C931 C927 1.429 . S
C931 C932 1.523 . S
C932 C916 1.368 . S
C932 C928 1.368 . S
C932 C931 1.523 . S
H933 C908 0.950 . S
H934 C910 0.950 . S
H935 C911 0.949 . S
H936 C913 0.950 . S
H937 C915 0.950 . S
C938 C939 1.349 . S
C938 C940 1.327 . S
C938 H963 0.950 . S
C939 C938 1.349 . S
C939 C955 1.349 . S
C940 C938 1.327 . S
C940 C959 1.429 . S
C940 H964 0.950 . S
C941 C958 1.574 . S
C941 C960 1.368 . S
C941 H965 0.949 . S
H942 C946 0.949 . S
C943 C944 1.349 . S
C943 C945 1.327 . S
C943 H966 0.950 . S
C944 C943 1.349 . S
C944 C956 1.349 . S
C945 C943 1.327 . S
C945 C961 1.429 . S
C945 H967 0.950 . S
C946 H942 0.949 . S
C946 C954 1.574 . S
C946 C962 1.368 . S
H947 C955 0.950 . S
H948 C953 0.950 . S
H949 C954 0.949 . S
H950 C956 0.950 . S
H951 C957 0.950 . S
H952 C958 0.949 . S
C953 H948 0.950 . S
C953 C955 1.327 . S
C953 C959 1.429 . S
C954 C946 1.574 . S
C954 H949 0.949 . S
C954 C960 1.368 . S
C955 C939 1.349 . S
C955 H947 0.950 . S
C955 C953 1.327 . S
C956 C944 1.349 . S
C956 H950 0.950 . S
C956 C957 1.327 . S
C957 H951 0.950 . S
C957 C956 1.327 . S
C957 C961 1.429 . S
C958 C941 1.574 . S
C958 H952 0.949 . S
C958 C962 1.368 . S
C959 C940 1.429 . S
C959 C953 1.429 . S
C959 C960 1.523 . S
C960 C941 1.368 . S
C960 C954 1.368 . S
C960 C959 1.523 . S
C961 C945 1.429 . S
C961 C957 1.429 . S
C961 C962 1.523 . S
C962 C946 1.368 . S
C962 C958 1.368 . S
C962 C961 1.523 . S
H963 C938 0.950 . S
H964 C940 0.950 . S
H965 C941 0.949 . S
H966 C943 0.950 . S
H967 C945 0.950 . S
C249 C5 3.080 . S
C254 C107 3.266 . S
C279 C18 2.331 . S
C284 C138 2.347 1_556 S
C314 C177 0.898 . S
C309 C30 0.916 . S
C339 C41 0.292 . S
C344 C214 0.292 . S
C374 C137 3.233 . S
C369 C7 3.273 . S
C404 C94 1.751 . S
C399 C16 1.646 . S
C434 C226 1.341 . S
C429 C29 1.319 . S
C464 C183 0.598 . S
C459 C38 0.699 . S
C489 C8 2.494 . S
C494 C227 2.488 . S
C524 C143 1.490 . S
C519 C27 1.325 . S
C549 C40 0.521 . S
C554 C106 0.504 . S
C579 C19 2.103 . S
C584 C178 2.100 . S
C614 C98 3.033 . S
C609 C51 2.962 . S
C639 C62 2.431 . S
C644 C147 2.506 . S
C669 C74 1.130 . S
C674 C186 1.110 . S
C699 C84 0.474 . S
C704 C223 0.266 . S
C729 C49 3.106 . S
C734 C146 3.240 . S
C764 C103 1.464 . S
C759 C63 1.463 . S
C794 C217 1.185 . S
C789 C71 1.062 . S
C824 C174 0.680 . S
C819 C85 0.673 . S
C849 C52 2.341 . S
C854 C218 2.353 1_655 S
C884 C134 1.483 . S
C879 C73 1.410 . S
C914 C97 0.424 . S
C909 C82 0.610 . S
C939 C60 2.436 . S
C944 C187 2.489 . S
