# Generated by pormake.
# Topology llj, (12,3)-cn, num edge types: 1
# Building blocks:
#     Node 0, Type 0, BuildingBlock: QEWDON_clean_sbu_0, # of connection points: 12
#     Node 1, Type 0, BuildingBlock: QEWDON_clean_sbu_0, # of connection points: 12
#     Node 2, Type 1, BuildingBlock: WUSLED_clean_sbu_0, # of connection points: 3
#     Node 3, Type 1, BuildingBlock: WUSLED_clean_sbu_0, # of connection points: 3
#     Node 4, Type 1, BuildingBlock: WUSLED_clean_sbu_0, # of connection points: 3
#     Node 5, Type 1, BuildingBlock: WUSLED_clean_sbu_0, # of connection points: 3
#     Node 6, Type 1, BuildingBlock: WUSLED_clean_sbu_0, # of connection points: 3
#     Node 7, Type 1, BuildingBlock: WUSLED_clean_sbu_0, # of connection points: 3
#     Node 8, Type 1, BuildingBlock: WUSLED_clean_sbu_0, # of connection points: 3
#     Node 9, Type 1, BuildingBlock: WUSLED_clean_sbu_0, # of connection points: 3
#     Edge 10, Type (0, 1), BuildingBlock: OJICUG_clean_linker_0, # of connection points: 2
#     Edge 11, Type (0, 1), BuildingBlock: OJICUG_clean_linker_0, # of connection points: 2
#     Edge 12, Type (0, 1), BuildingBlock: OJICUG_clean_linker_0, # of connection points: 2
#     Edge 13, Type (0, 1), BuildingBlock: OJICUG_clean_linker_0, # of connection points: 2
#     Edge 14, Type (0, 1), BuildingBlock: OJICUG_clean_linker_0, # of connection points: 2
#     Edge 15, Type (0, 1), BuildingBlock: OJICUG_clean_linker_0, # of connection points: 2
#     Edge 16, Type (0, 1), BuildingBlock: OJICUG_clean_linker_0, # of connection points: 2
#     Edge 17, Type (0, 1), BuildingBlock: OJICUG_clean_linker_0, # of connection points: 2
#     Edge 18, Type (0, 1), BuildingBlock: OJICUG_clean_linker_0, # of connection points: 2
#     Edge 19, Type (0, 1), BuildingBlock: OJICUG_clean_linker_0, # of connection points: 2
#     Edge 20, Type (0, 1), BuildingBlock: OJICUG_clean_linker_0, # of connection points: 2
#     Edge 21, Type (0, 1), BuildingBlock: OJICUG_clean_linker_0, # of connection points: 2
#     Edge 22, Type (0, 1), BuildingBlock: OJICUG_clean_linker_0, # of connection points: 2
#     Edge 23, Type (0, 1), BuildingBlock: OJICUG_clean_linker_0, # of connection points: 2
#     Edge 24, Type (0, 1), BuildingBlock: OJICUG_clean_linker_0, # of connection points: 2
#     Edge 25, Type (0, 1), BuildingBlock: OJICUG_clean_linker_0, # of connection points: 2
#     Edge 26, Type (0, 1), BuildingBlock: OJICUG_clean_linker_0, # of connection points: 2
#     Edge 27, Type (0, 1), BuildingBlock: OJICUG_clean_linker_0, # of connection points: 2
#     Edge 28, Type (0, 1), BuildingBlock: OJICUG_clean_linker_0, # of connection points: 2
#     Edge 29, Type (0, 1), BuildingBlock: OJICUG_clean_linker_0, # of connection points: 2
#     Edge 30, Type (0, 1), BuildingBlock: OJICUG_clean_linker_0, # of connection points: 2
#     Edge 31, Type (0, 1), BuildingBlock: OJICUG_clean_linker_0, # of connection points: 2
#     Edge 32, Type (0, 1), BuildingBlock: OJICUG_clean_linker_0, # of connection points: 2
#     Edge 33, Type (0, 1), BuildingBlock: OJICUG_clean_linker_0, # of connection points: 2
# Relax obj value: 0.010
# Max RMSD: 0.052
# Mean RMSD: 0.048
data_MOF--net-llj--node1-QEWDON_clean_sbu_0--node2-WUSLED_clean_sbu_0--edge1-OJICUG_clean_linker_0
_symmetry_space_group_name_H-M    P1
_symmetry_Int_Tables_number       1
_symmetry_cell_setting            triclinic
loop_
_symmetry_equiv_pos_as_xyz
'x, y, z'
_cell_length_a     38.91264
_cell_length_b     39.028462
_cell_length_c     26.75524
_cell_angle_alpha  90.461601
_cell_angle_beta   90.195811
_cell_angle_gamma 89.891772
loop_
_atom_site_label
_atom_site_type_symbol
_atom_site_fract_x
_atom_site_fract_y
_atom_site_fract_z
_atom_type_partial_charge
Zn0 Zn 0.96703 0.08803 0.97201 0.0
Zn1 Zn 0.95339 0.07782 0.09013 0.0
O2 O 0.98618 0.06669 0.03441 0.0
H3 H 1.00186 0.04749 0.03395 0.0
C4 C 0.90034 0.03099 0.90766 0.0
O5 O 0.90394 0.04475 0.95235 0.0
Zn6 Zn 0.0483 0.93702 0.09556 0.0
Zn7 Zn 0.0443 0.93506 0.9756 0.0
O8 O 0.01914 0.95045 0.03696 0.0
H9 H 1.0041 0.97014 0.03716 0.0
Zn10 Zn 0.91646 0.96806 0.96319 0.0
O11 O 0.93682 0.98893 0.02569 0.0
Zn12 Zn 0.92588 0.95801 0.08308 0.0
H13 H 0.9544 0.00631 0.02523 0.0
Zn14 Zn 0.09516 0.05136 0.9789 0.0
O15 O 0.07078 0.02771 0.03575 0.0
H16 H 0.05416 0.00963 0.03128 0.0
Zn17 Zn 0.07629 0.05739 0.0967 0.0
C18 C 0.10611 0.99162 0.91482 0.0
O19 O 0.09644 0.9766 0.95617 0.0
O20 O 0.92647 0.12 0.9861 0.0
O21 O 0.91728 0.11383 0.06771 0.0
O22 O 0.08399 0.90268 0.99131 0.0
O23 O 0.08588 0.90175 0.07455 0.0
O24 O 0.88627 0.92638 0.97774 0.0
O25 O 0.89209 0.91982 0.06005 0.0
C26 C 0.0138 0.08814 0.15224 0.0
O27 O 0.12474 0.09202 1.0022 0.0
O28 O 0.11108 0.09611 0.0829 0.0
O29 O 0.01843 0.92986 0.90813 0.0
C30 C 0.90981 0.1275 0.02562 0.0
O31 O 0.99853 0.09803 0.91125 0.0
C32 C 0.98364 0.92281 0.14534 0.0
O33 O 0.90456 0.99886 0.90228 0.0
C34 C 0.09711 0.89176 0.03183 0.0
O35 O 0.10802 0.02411 0.91419 0.0
C36 C 0.91425 0.01899 0.1431 0.0
O37 O 0.98148 0.09336 0.1501 0.0
O38 O 0.02875 0.07588 0.11371 0.0
C39 C 0.87915 0.9106 0.01792 0.0
O40 O 0.01604 0.91811 0.14816 0.0
O41 O 0.97175 0.93876 0.10758 0.0
C42 C 0.08468 0.99589 0.15633 0.0
O43 O 0.90688 0.98725 0.13966 0.0
O44 O 0.9305 0.03264 0.10712 0.0
C45 C 0.12786 0.10654 0.04483 0.0
O46 O 0.09179 0.02769 0.15409 0.0
O47 O 0.06947 0.98205 0.11908 0.0
C48 C 0.00734 0.90047 0.89536 0.0
O49 O 0.01239 0.87451 0.92551 0.0
C50 C 0.0305 0.10347 0.91691 0.0
O51 O 0.04385 0.10223 0.96204 0.0
Zn52 Zn 0.46544 0.5852 0.47235 0.0
Zn53 Zn 0.45397 0.57637 0.59095 0.0
O54 O 0.48659 0.56585 0.53484 0.0
H55 H 0.50242 0.54677 0.53426 0.0
C56 C 0.40747 0.52605 0.40011 0.0
O57 O 0.41438 0.54055 0.44345 0.0
Zn58 Zn 0.54807 0.4364 0.59381 0.0
Zn59 Zn 0.54252 0.43475 0.47364 0.0
O60 O 0.51878 0.45105 0.53579 0.0
H61 H 0.50399 0.47093 0.53651 0.0
Zn62 Zn 0.41979 0.4643 0.45916 0.0
O63 O 0.4369 0.48731 0.52238 0.0
Zn64 Zn 0.42608 0.45632 0.57974 0.0
H65 H 0.45317 0.50593 0.52266 0.0
Zn66 Zn 0.5968 0.54806 0.48057 0.0
O67 O 0.57142 0.52559 0.53719 0.0
H68 H 0.55397 0.50839 0.53215 0.0
Zn69 Zn 0.57708 0.5554 0.59793 0.0
C70 C 0.61318 0.48728 0.42075 0.0
O71 O 0.60859 0.47295 0.46449 0.0
O72 O 0.42409 0.61608 0.48704 0.0
O73 O 0.41788 0.6127 0.56966 0.0
O74 O 0.58029 0.40001 0.48812 0.0
O75 O 0.58505 0.40096 0.57116 0.0
O76 O 0.3899 0.42239 0.47348 0.0
O77 O 0.39326 0.41758 0.55631 0.0
C78 C 0.51464 0.58616 0.65306 0.0
O79 O 0.62654 0.58873 0.50347 0.0
O80 O 0.61238 0.59361 0.58393 0.0
O81 O 0.51688 0.43236 0.4056 0.0
C82 C 0.40877 0.62479 0.5272 0.0
O83 O 0.49602 0.59628 0.41096 0.0
C84 C 0.48357 0.42206 0.64346 0.0
O85 O 0.40826 0.49357 0.39657 0.0
C86 C 0.59437 0.38949 0.52822 0.0
O87 O 0.60973 0.51956 0.41712 0.0
C88 C 0.41333 0.51683 0.64069 0.0
O89 O 0.48229 0.59126 0.65114 0.0
O90 O 0.52957 0.57417 0.61433 0.0
C91 C 0.38175 0.40735 0.51383 0.0
O92 O 0.51596 0.4174 0.64661 0.0
O93 O 0.47183 0.43754 0.60518 0.0
C94 C 0.58416 0.494 0.6571 0.0
O95 O 0.40597 0.48517 0.63579 0.0
O96 O 0.43088 0.53091 0.60636 0.0
C97 C 0.62951 0.60356 0.54591 0.0
O98 O 0.59174 0.52571 0.65584 0.0
O99 O 0.56982 0.4807 0.61874 0.0
C100 C 0.48598 0.42205 0.40237 0.0
O101 O 0.46974 0.41324 0.44327 0.0
C102 C 0.52849 0.5985 0.41522 0.0
O103 O 0.54274 0.59326 0.45909 0.0
C104 C 0.35808 0.34407 0.88196 0.0
C105 C 0.38498 0.36682 0.89297 0.0
C106 C 0.3972 0.37281 0.80418 0.0
C107 C 0.40437 0.38105 0.85446 0.0
C108 C 0.36973 0.35047 0.79338 0.0
C109 C 0.35039 0.33618 0.832 0.0
U110 U 0.34306 0.33232 0.02027 0.0
O111 O 0.29586 0.32616 0.06421 0.0
O112 O 0.33509 0.28566 0.06445 0.0
C113 C 0.30413 0.29504 0.07853 0.0
C114 C 0.33893 0.32765 0.92253 0.0
C115 C 0.27725 0.2688 0.07299 0.0
C116 C 0.23167 0.24114 0.02536 0.0
C117 C 0.25701 0.26642 0.02961 0.0
C118 C 0.24671 0.22026 0.10762 0.0
C119 C 0.22626 0.21764 0.06427 0.0
C120 C 0.2719 0.24561 0.11189 0.0
C121 C 0.39909 0.38359 0.11122 0.0
C122 C 0.40333 0.37076 0.19972 0.0
C123 C 0.43092 0.4214 0.16687 0.0
C124 C 0.41872 0.41318 0.11908 0.0
C125 C 0.42379 0.40004 0.20768 0.0
C126 C 0.39103 0.36264 0.15189 0.0
C127 C 0.3881 0.37442 0.06027 0.0
O128 O 0.35714 0.30649 0.94995 0.0
O129 O 0.31931 0.34819 0.94926 0.0
O130 O 0.35679 0.38384 0.04791 0.0
O131 O 0.39566 0.34304 0.04583 0.0
H132 H 0.39123 0.37324 0.93142 0.0
H133 H 0.42501 0.3985 0.86406 0.0
H134 H 0.36376 0.34328 0.75515 0.0
H135 H 0.32978 0.31856 0.82287 0.0
H136 H 0.21616 0.24017 0.99169 0.0
H137 H 0.2608 0.28408 0.99909 0.0
H138 H 0.24373 0.2023 0.13794 0.0
H139 H 0.28741 0.24697 0.14556 0.0
H140 H 0.39765 0.35355 0.23013 0.0
H141 H 0.44609 0.44443 0.17179 0.0
H142 H 0.42498 0.42973 0.0881 0.0
H143 H 0.3758 0.33969 0.14645 0.0
C144 C 0.67867 0.36486 0.16867 0.0
C145 C 0.65373 0.39035 0.16131 0.0
C146 C 0.65492 0.40447 0.2503 0.0
C147 C 0.64193 0.40999 0.20181 0.0
C148 C 0.67987 0.37875 0.25723 0.0
C149 C 0.69159 0.35916 0.21678 0.0
U150 U 0.68347 0.34328 0.02916 0.0
O151 O 0.72855 0.331 0.98312 0.0
O152 O 0.68755 0.29296 0.99169 0.0
C153 C 0.71868 0.29921 0.97522 0.0
C154 C 0.69201 0.34448 0.12657 0.0
C155 C 0.74463 0.27276 0.98601 0.0
C156 C 0.78885 0.24849 0.03975 0.0
C157 C 0.76308 0.2729 0.03123 0.0
C158 C 0.77714 0.22296 0.95865 0.0
C159 C 0.79655 0.22351 1.0032 0.0
C160 C 0.75152 0.2474 0.95015 0.0
C161 C 0.62899 0.39702 0.93746 0.0
C162 C 0.63468 0.39688 0.84687 0.0
C163 C 0.59369 0.43479 0.8871 0.0
C164 C 0.60319 0.42192 0.93368 0.0
C165 C 0.60984 0.42303 0.84323 0.0
C166 C 0.64431 0.38405 0.89376 0.0
C167 C 0.64083 0.38696 0.98755 0.0
O168 O 0.66961 0.32455 0.10378 0.0
O169 O 0.7119 0.36113 0.09555 0.0
O170 O 0.67303 0.39417 0.99807 0.0
O171 O 0.63134 0.35656 1.00311 0.0
H172 H 0.64351 0.39508 0.12428 0.0
H173 H 0.62244 0.42929 0.19519 0.0
H174 H 0.69086 0.37414 0.29381 0.0
H175 H 0.711 0.33969 0.22303 0.0
H176 H 0.80341 0.24982 0.07428 0.0
H177 H 0.75796 0.29224 0.05954 0.0
H178 H 0.78187 0.20371 0.9301 0.0
H179 H 0.73733 0.24671 0.91523 0.0
H180 H 0.64772 0.38748 0.81378 0.0
H181 H 0.57417 0.45459 0.88548 0.0
H182 H 0.59102 0.43216 0.96699 0.0
H183 H 0.66435 0.36481 0.89605 0.0
C184 C 0.64907 0.67134 0.1687 0.0
C185 C 0.62294 0.64742 0.15924 0.0
C186 C 0.61092 0.64398 0.24842 0.0
C187 C 0.60402 0.63384 0.19877 0.0
C188 C 0.63743 0.66774 0.25755 0.0
C189 C 0.6563 0.68129 0.218 0.0
U190 U 0.66647 0.68125 0.02962 0.0
O191 O 0.67653 0.72757 0.98599 0.0
O192 O 0.71552 0.68691 0.9896 0.0
C193 C 0.7082 0.71828 0.97549 0.0
C194 C 0.66836 0.68666 0.12745 0.0
C195 C 0.73489 0.74416 0.98565 0.0
C196 C 0.75907 0.78998 0.03697 0.0
C197 C 0.73451 0.76421 0.0295 0.0
C198 C 0.78532 0.77499 0.95778 0.0
C199 C 0.78446 0.79606 1.00077 0.0
C200 C 0.76073 0.74941 0.95029 0.0
C201 C 0.6108 0.62896 0.93712 0.0
C202 C 0.60775 0.63818 0.8474 0.0
C203 C 0.57448 0.59281 0.88501 0.0
C204 C 0.58787 0.60154 0.93191 0.0
C205 C 0.58372 0.61141 0.84231 0.0
C206 C 0.62113 0.64695 0.89451 0.0
C207 C 0.62195 0.63935 0.9876 0.0
O208 O 0.68808 0.66549 0.10201 0.0
O209 O 0.65052 0.7074 0.09885 0.0
O210 O 0.61457 0.67105 1.00065 0.0
O211 O 0.65302 0.62983 1.00111 0.0
H212 H 0.61706 0.63945 0.12127 0.0
H213 H 0.58406 0.61533 0.19047 0.0
H214 H 0.6431 0.67649 0.2952 0.0
H215 H 0.67631 0.69987 0.22588 0.0
H216 H 0.7575 0.80582 0.07031 0.0
H217 H 0.71485 0.76037 0.05748 0.0
H218 H 0.8049 0.77845 0.9296 0.0
H219 H 0.76163 0.73398 0.91646 0.0
H220 H 0.61521 0.65314 0.81531 0.0
H221 H 0.55649 0.57172 0.88228 0.0
H222 H 0.57972 0.5873 0.96438 0.0
H223 H 0.63884 0.66824 0.8979 0.0
C224 C 0.32912 0.64779 0.15817 0.0
C225 C 0.35137 0.62051 0.14683 0.0
C226 C 0.35882 0.60892 0.23559 0.0
C227 C 0.3661 0.60121 0.18523 0.0
C228 C 0.33678 0.6366 0.24658 0.0
C229 C 0.32206 0.65583 0.20818 0.0
U230 U 0.314 0.66582 0.02019 0.0
O231 O 0.26547 0.67587 0.98033 0.0
O232 O 0.30639 0.71453 0.98094 0.0
C233 C 0.2743 0.70741 0.9694 0.0
C234 C 0.31224 0.66727 0.11825 0.0
C235 C 0.24881 0.73398 0.98216 0.0
C236 C 0.22475 0.77618 0.03986 0.0
C237 C 0.24882 0.75037 0.02913 0.0
C238 C 0.19995 0.76868 0.95733 0.0
C239 C 0.20027 0.78594 1.00379 0.0
C240 C 0.22402 0.74307 0.94665 0.0
C241 C 0.36436 0.60989 0.92494 0.0
C242 C 0.3605 0.61296 0.83424 0.0
C243 C 0.3939 0.56795 0.87318 0.0
C244 C 0.3856 0.58108 0.92028 0.0
C245 C 0.38106 0.58337 0.82958 0.0
C246 C 0.35206 0.62606 0.88169 0.0
C247 C 0.35483 0.62158 0.97545 0.0
O248 O 0.33244 0.68707 0.09188 0.0
O249 O 0.29048 0.64963 0.09067 0.0
O250 O 0.32345 0.61418 0.9897 0.0
O251 O 0.36451 0.65266 0.98844 0.0
H252 H 0.35709 0.614 0.10829 0.0
H253 H 0.38324 0.58032 0.1755 0.0
H254 H 0.33023 0.64294 0.28487 0.0
H255 H 0.30479 0.67671 0.21752 0.0
H256 H 0.22583 0.78899 0.07588 0.0
H257 H 0.26764 0.74347 0.05725 0.0
H258 H 0.18102 0.77492 0.92907 0.0
H259 H 0.22335 0.73045 0.91043 0.0
H260 H 0.35011 0.62528 0.80135 0.0
H261 H 0.41022 0.54548 0.87089 0.0
H262 H 0.39544 0.56837 0.95325 0.0
H263 H 0.33557 0.64838 0.88467 0.0
C264 C 0.85979 0.8398 0.38176 0.0
C265 C 0.8871 0.86193 0.39331 0.0
C266 C 0.89813 0.8703 0.30469 0.0
C267 C 0.90608 0.87706 0.35516 0.0
C268 C 0.87024 0.84861 0.29335 0.0
C269 C 0.85127 0.83342 0.33163 0.0
U270 U 0.85015 0.82289 0.51923 0.0
O271 O 0.80487 0.8178 0.56757 0.0
O272 O 0.84155 0.77523 0.5607 0.0
C273 C 0.81196 0.78579 0.57872 0.0
C274 C 0.84121 0.82245 0.42203 0.0
C275 C 0.78344 0.76131 0.57388 0.0
C276 C 0.73654 0.73575 0.52654 0.0
C277 C 0.76301 0.75986 0.53064 0.0
C278 C 0.7507 0.71436 0.60886 0.0
C279 C 0.73019 0.71253 0.5655 0.0
C280 C 0.77703 0.73854 0.61296 0.0
C281 C 0.91355 0.86738 0.60722 0.0
C282 C 0.91343 0.85758 0.69671 0.0
C283 C 0.95583 0.89529 0.66038 0.0
C284 C 0.94174 0.88929 0.61302 0.0
C285 C 0.94193 0.8794 0.70278 0.0
C286 C 0.89934 0.85162 0.64927 0.0
C287 C 0.8997 0.86068 0.55704 0.0
O288 O 0.85922 0.79909 0.44569 0.0
O289 O 0.82396 0.84277 0.45237 0.0
O290 O 0.86853 0.87238 0.54871 0.0
O291 O 0.90446 0.82938 0.53998 0.0
H292 H 0.894 0.86716 0.43189 0.0
H293 H 0.92705 0.89399 0.36521 0.0
H294 H 0.86368 0.84259 0.2549 0.0
H295 H 0.83034 0.81629 0.3221 0.0
H296 H 0.72102 0.73536 0.49288 0.0
H297 H 0.76764 0.77723 0.50001 0.0
H298 H 0.74697 0.69658 0.63922 0.0
H299 H 0.7927 0.7392 0.64651 0.0
H300 H 0.90189 0.84526 0.72865 0.0
H301 H 0.97806 0.91183 0.66363 0.0
H302 H 0.95308 0.90151 0.58083 0.0
H303 H 0.87749 0.83462 0.64533 0.0
C304 C 0.17769 0.86839 0.6679 0.0
C305 C 0.15928 0.89848 0.65752 0.0
C306 C 0.15061 0.90855 0.74658 0.0
C307 C 0.14593 0.91846 0.69656 0.0
C308 C 0.16865 0.87805 0.7566 0.0
C309 C 0.1821 0.8582 0.71756 0.0
U310 U 0.18766 0.84733 0.52963 0.0
O311 O 0.2346 0.83693 0.48627 0.0
O312 O 0.19411 0.79793 0.4907 0.0
C313 C 0.22564 0.8051 0.47664 0.0
C314 C 0.19317 0.84798 0.62742 0.0
C315 C 0.25202 0.77899 0.48745 0.0
C316 C 0.27583 0.73369 0.53933 0.0
C317 C 0.25079 0.75887 0.53075 0.0
C318 C 0.3041 0.74929 0.46231 0.0
C319 C 0.3026 0.72833 0.50487 0.0
C320 C 0.27902 0.77421 0.45366 0.0
C321 C 0.1336 0.90117 0.43717 0.0
C322 C 0.13734 0.89909 0.34639 0.0
C323 C 0.10058 0.94097 0.38699 0.0
C324 C 0.11001 0.92815 0.43359 0.0
C325 C 0.11461 0.92709 0.34288 0.0
C326 C 0.14691 0.88628 0.39334 0.0
C327 C 0.14491 0.89049 0.48717 0.0
O328 O 0.1721 0.82749 0.60301 0.0
O329 O 0.21388 0.86495 0.59792 0.0
O330 O 0.17671 0.89834 0.49921 0.0
O331 O 0.13592 0.85959 0.50121 0.0
H332 H 0.15553 0.90664 0.61927 0.0
H333 H 0.13183 0.94157 0.6876 0.0
H334 H 0.17305 0.86991 0.7947 0.0
H335 H 0.19633 0.83508 0.7262 0.0
H336 H 0.27376 0.71796 0.57233 0.0
H337 H 0.2303 0.76236 0.55764 0.0
H338 H 0.32475 0.7465 0.43554 0.0
H339 H 0.28067 0.78974 0.42036 0.0
H340 H 0.1487 0.88802 0.31307 0.0
H341 H 0.08267 0.96224 0.38551 0.0
H342 H 0.0994 0.93986 0.46702 0.0
H343 H 0.16523 0.86541 0.39551 0.0
C344 C 0.15106 0.17216 0.66776 0.0
C345 C 0.1273 0.14563 0.6601 0.0
C346 C 0.11326 0.14622 0.74885 0.0
C347 C 0.10859 0.13272 0.70033 0.0
C348 C 0.13736 0.17266 0.75618 0.0
C349 C 0.15607 0.18549 0.71596 0.0
U350 U 0.16711 0.18065 0.52799 0.0
O351 O 0.17732 0.2265 0.48342 0.0
O352 O 0.21586 0.1854 0.48695 0.0
C353 C 0.20884 0.2168 0.47267 0.0
C354 C 0.17005 0.18678 0.62569 0.0
C355 C 0.23588 0.24238 0.48245 0.0
C356 C 0.2599 0.28911 0.53209 0.0
C357 C 0.23491 0.26375 0.52493 0.0
C358 C 0.28782 0.27107 0.45547 0.0
C359 C 0.2864 0.29342 0.49702 0.0
C360 C 0.26275 0.24591 0.44823 0.0
C361 C 0.11014 0.12915 0.43678 0.0
C362 C 0.1078 0.13822 0.347 0.0
C363 C 0.07249 0.09443 0.38467 0.0
C364 C 0.08607 0.10273 0.43161 0.0
C365 C 0.08269 0.11248 0.3419 0.0
C366 C 0.12138 0.14655 0.39414 0.0
C367 C 0.12163 0.13925 0.4872 0.0
O368 O 0.18919 0.16511 0.60015 0.0
O369 O 0.15217 0.20752 0.59716 0.0
O370 O 0.11478 0.17105 0.5003 0.0
O371 O 0.15265 0.1293 0.50031 0.0
H372 H 0.12309 0.13509 0.623 0.0
H373 H 0.09055 0.11211 0.69344 0.0
H374 H 0.14123 0.18403 0.79282 0.0
H375 H 0.17418 0.20612 0.72241 0.0
H376 H 0.25784 0.30598 0.56427 0.0
H377 H 0.21448 0.26126 0.55207 0.0
H378 H 0.30822 0.27314 0.42825 0.0
H379 H 0.26412 0.22943 0.4155 0.0
H380 H 0.11602 0.15275 0.31488 0.0
H381 H 0.05363 0.07411 0.38193 0.0
H382 H 0.07721 0.08896 0.46411 0.0
H383 H 0.13998 0.16708 0.39752 0.0
C384 C 0.82907 0.15242 0.66028 0.0
C385 C 0.85482 0.12787 0.6519 0.0
C386 C 0.85546 0.1139 0.74061 0.0
C387 C 0.86795 0.10879 0.69175 0.0
C388 C 0.82975 0.13876 0.74862 0.0
C389 C 0.81672 0.15782 0.7088 0.0
U390 U 0.81897 0.17132 0.52091 0.0
O391 O 0.77216 0.18288 0.47809 0.0
O392 O 0.81348 0.221 0.48308 0.0
C393 C 0.78169 0.21455 0.46922 0.0
C394 C 0.8142 0.172 0.61881 0.0
C395 C 0.75626 0.24125 0.48178 0.0
C396 C 0.71248 0.26516 0.53684 0.0
C397 C 0.73778 0.24046 0.52681 0.0
C398 C 0.72482 0.29234 0.45785 0.0
C399 C 0.7053 0.2911 0.50207 0.0
C400 C 0.74993 0.26761 0.4478 0.0
C401 C 0.87009 0.11557 0.42654 0.0
C402 C 0.86342 0.11603 0.33602 0.0
C403 C 0.90252 0.07576 0.37482 0.0
C404 C 0.89425 0.08913 0.42183 0.0
C405 C 0.88675 0.08855 0.33141 0.0
C406 C 0.85502 0.12936 0.38334 0.0
C407 C 0.85992 0.12674 0.47707 0.0
O408 O 0.83573 0.19141 0.59408 0.0
O409 O 0.79313 0.15479 0.58956 0.0
O410 O 0.8281 0.11985 0.48976 0.0
O411 O 0.87 0.15742 0.49141 0.0
H412 H 0.86462 0.12337 0.61455 0.0
H413 H 0.88799 0.09016 0.68432 0.0
H414 H 0.81913 0.14302 0.78551 0.0
H415 H 0.79669 0.17656 0.71583 0.0
H416 H 0.69786 0.2633 0.57108 0.0
H417 H 0.7425 0.22041 0.55375 0.0
H418 H 0.72053 0.31234 0.4307 0.0
H419 H 0.76416 0.26885 0.41312 0.0
H420 H 0.85074 0.12629 0.30329 0.0
H421 H 0.92095 0.05497 0.3725 0.0
H422 H 0.90622 0.07825 0.45473 0.0
H423 H 0.83624 0.1498 0.38634 0.0
C424 C 0.15653 0.15295 0.09585 0.0
C425 C 0.1521 0.13571 0.04994 0.0
H426 H 0.18284 0.19265 0.13623 0.0
C427 C 0.17162 0.14625 0.00864 0.0
H428 H 0.14183 0.14565 0.12837 0.0
C429 C 0.19532 0.17293 0.01325 0.0
C430 C 0.20008 0.18996 0.05922 0.0
H431 H 0.16898 0.13361 0.97264 0.0
H432 H 0.21046 0.17966 0.98091 0.0
C433 C 0.18022 0.17978 0.10042 0.0
C434 C 0.87442 0.16819 0.97516 0.0
C435 C 0.88104 0.15244 0.02136 0.0
H436 H 0.84336 0.203 0.93362 0.0
C437 C 0.85976 0.16057 0.06219 0.0
H438 H 0.89032 0.16289 0.94285 0.0
C439 C 0.83234 0.1837 0.05663 0.0
C440 C 0.82563 0.19907 0.01012 0.0
H441 H 0.86407 0.1489 0.09826 0.0
H442 H 0.81609 0.18911 0.08851 0.0
C443 C 0.84721 0.19114 0.96967 0.0
C444 C 0.84669 0.86155 0.05689 0.0
C445 C 0.85505 0.88114 0.01473 0.0
H446 H 0.81814 0.81903 0.08563 0.0
C447 C 0.83994 0.87246 0.96849 0.0
H448 H 0.85785 0.86749 0.09307 0.0
C449 C 0.8172 0.84503 0.96434 0.0
C450 C 0.80892 0.82522 0.0062 0.0
H451 H 0.84548 0.887 0.93517 0.0
H452 H 0.8057 0.83966 0.9282 0.0
C453 C 0.82381 0.83388 0.05267 0.0
C454 C 0.14299 0.863 0.98191 0.0
C455 C 0.12556 0.8665 0.02765 0.0
H456 H 0.18044 0.83579 0.93913 0.0
C457 C 0.13446 0.84457 0.0671 0.0
H458 H 0.13731 0.87978 0.9509 0.0
C459 C 0.15923 0.81874 0.06001 0.0
C460 C 0.17561 0.81452 0.01343 0.0
H461 H 0.12151 0.84661 0.10277 0.0
H462 H 0.16472 0.80142 0.09043 0.0
C463 C 0.16768 0.83754 0.97499 0.0
C464 C 0.67399 0.64246 0.50972 0.0
C465 C 0.65412 0.63243 0.55094 0.0
H466 H 0.71365 0.67494 0.48213 0.0
C467 C 0.65868 0.64975 0.59676 0.0
H468 H 0.67125 0.62975 0.4738 0.0
C469 C 0.68291 0.67609 0.60136 0.0
C470 C 0.70318 0.68569 0.56029 0.0
H471 H 0.64371 0.64284 0.62921 0.0
H472 H 0.6857 0.68898 0.63713 0.0
C473 C 0.69821 0.66866 0.51437 0.0
C474 C 0.36766 0.66785 0.56523 0.0
C475 C 0.38012 0.64983 0.5233 0.0
H476 H 0.33382 0.70727 0.59237 0.0
C477 C 0.3657 0.65675 0.47616 0.0
H478 H 0.37821 0.66313 0.60205 0.0
C479 C 0.34022 0.68157 0.4707 0.0
C480 C 0.32851 0.70056 0.51211 0.0
H481 H 0.37421 0.64306 0.44306 0.0
H482 H 0.32969 0.68588 0.43374 0.0
C483 C 0.34215 0.69306 0.55966 0.0
C484 C 0.34783 0.35955 0.5532 0.0
C485 C 0.35793 0.37771 0.5105 0.0
H486 H 0.31771 0.31839 0.58254 0.0
C487 C 0.34462 0.36758 0.4637 0.0
H488 H 0.35763 0.3666 0.5898 0.0
C489 C 0.32169 0.34029 0.45963 0.0
C490 C 0.31146 0.32209 0.50214 0.0
H491 H 0.35163 0.38095 0.42992 0.0
H492 H 0.31147 0.3339 0.42303 0.0
C493 C 0.32482 0.33203 0.54906 0.0
C494 C 0.62875 0.34854 0.47634 0.0
C495 C 0.62222 0.36354 0.52339 0.0
H496 H 0.65921 0.31391 0.43315 0.0
C497 C 0.64287 0.35391 0.5642 0.0
H498 H 0.61322 0.35488 0.44402 0.0
C499 C 0.66979 0.33026 0.55768 0.0
C500 C 0.67656 0.31583 0.51025 0.0
H501 H 0.63857 0.36497 0.60091 0.0
H502 H 0.68569 0.32378 0.58955 0.0
C503 C 0.6554 0.32507 0.46992 0.0
C504 C 0.06794 0.09847 0.20235 0.0
C505 C 0.03215 0.09399 0.20024 0.0
H506 H 0.11217 0.10763 0.24871 0.0
C507 C 0.01333 0.09549 0.24497 0.0
H508 H 0.08307 0.09794 0.16865 0.0
C509 C 0.02984 0.10117 0.29066 0.0
C510 C 0.06564 0.10569 0.29293 0.0
H511 H 0.98569 0.09216 0.24482 0.0
H512 H 0.0144 0.1026 0.32422 0.0
C513 C 0.08454 0.10436 0.24822 0.0
C514 C 0.90635 0.07375 0.1932 0.0
C515 C 0.90648 0.03776 0.19024 0.0
H516 H 0.8999 0.11826 0.24022 0.0
C517 C 0.89942 0.01899 0.23366 0.0
H518 H 0.91125 0.08894 0.1604 0.0
C519 C 0.89298 0.03562 0.27898 0.0
C520 C 0.89318 0.07155 0.2823 0.0
H521 H 0.89929 0.99123 0.23291 0.0
H522 H 0.88759 0.02024 0.31154 0.0
C523 C 0.89958 0.09053 0.2388 0.0
C524 C 0.97615 0.89816 0.23067 0.0
C525 C 0.96125 0.91057 0.18636 0.0
H526 H 0.96811 0.87557 0.30222 0.0
C527 C 0.92529 0.91022 0.18175 0.0
H528 H 1.00379 0.89799 0.23572 0.0
C529 C 0.90472 0.89745 0.22015 0.0
C530 C 0.91969 0.88482 0.26422 0.0
H531 H 0.91293 0.91934 0.14837 0.0
H532 H 0.87707 0.89759 0.21537 0.0
C533 C 0.95566 0.8855 0.26908 0.0
C534 C 0.09135 0.94119 0.20584 0.0
C535 C 0.09256 0.97715 0.20303 0.0
H536 H 0.09756 0.8969 0.25244 0.0
C537 C 0.10149 0.99601 0.24616 0.0
H538 H 0.08486 0.92593 0.17325 0.0
C539 C 0.10869 0.97958 0.29098 0.0
C540 C 0.1073 0.94373 0.29417 0.0
H541 H 0.10272 0.02374 0.24558 0.0
H542 H 0.11564 0.99506 0.32324 0.0
C543 C 0.09886 0.92459 0.25103 0.0
C544 C 0.11109 0.9351 0.87045 0.0
C545 C 0.11578 0.9708 0.87046 0.0
H546 H 0.118 0.88756 0.83134 0.0
C547 C 0.1305 0.98611 0.82827 0.0
H548 H 0.09926 0.92254 0.90183 0.0
C549 C 0.14119 0.96601 0.78762 0.0
C550 C 0.13742 0.93017 0.78834 0.0
H551 H 0.13438 0.01357 0.82698 0.0
H552 H 0.15329 0.97845 0.75624 0.0
C553 C 0.12186 0.91501 0.82999 0.0
C554 C 0.03736 0.11595 0.82568 0.0
C555 C 0.05205 0.1127 0.87349 0.0
H556 H 0.04495 0.12945 0.74918 0.0
C557 C 0.08731 0.11932 0.87963 0.0
H558 H 0.01026 0.11109 0.81961 0.0
C559 C 0.10729 0.12957 0.83909 0.0
C560 C 0.09246 0.13353 0.79145 0.0
H561 H 0.09947 0.11697 0.91587 0.0
H562 H 0.13438 0.13444 0.84513 0.0
C563 C 0.05732 0.12628 0.78516 0.0
C564 C 0.88424 0.0877 0.8708 0.0
C565 C 0.89026 0.05242 0.8645 0.0
H566 H 0.86926 0.13486 0.83673 0.0
C567 C 0.88579 0.0377 0.81678 0.0
H568 H 0.88742 0.09987 0.90699 0.0
C569 C 0.87501 0.05771 0.77651 0.0
C570 C 0.86849 0.09293 0.78294 0.0
H571 H 0.89017 0.01058 0.81059 0.0
H572 H 0.87097 0.04535 0.74059 0.0
C573 C 0.87355 0.10773 0.83052 0.0
C574 C 0.98482 0.92293 0.81402 0.0
C575 C 0.98969 0.89535 0.84678 0.0
H576 H 0.96549 0.93964 0.74327 0.0
C577 C 0.97795 0.86268 0.83237 0.0
H578 H 0.99342 0.94846 0.82406 0.0
C579 C 0.96209 0.85761 0.78596 0.0
C580 C 0.95762 0.88508 0.75289 0.0
H581 H 0.98132 0.84088 0.8567 0.0
H582 H 0.95402 0.83198 0.77555 0.0
C583 C 0.96898 0.91784 0.76759 0.0
C584 C 0.56874 0.59742 0.70279 0.0
C585 C 0.5331 0.59185 0.701 0.0
H586 H 0.61289 0.60785 0.74878 0.0
C587 C 0.5145 0.59244 0.74595 0.0
H588 H 0.58368 0.59761 0.6689 0.0
C589 C 0.53107 0.59838 0.79153 0.0
C590 C 0.5667 0.60414 0.79346 0.0
H591 H 0.48697 0.58827 0.74602 0.0
H592 H 0.51577 0.59913 0.82527 0.0
C593 C 0.58539 0.60362 0.74854 0.0
C594 C 0.40588 0.57082 0.69279 0.0
C595 C 0.40374 0.535 0.68763 0.0
H596 H 0.40038 0.61443 0.74179 0.0
C597 C 0.39287 0.51572 0.72885 0.0
H598 H 0.41365 0.58645 0.66168 0.0
C599 C 0.38518 0.53162 0.77429 0.0
C600 C 0.388 0.5673 0.77998 0.0
H601 H 0.3908 0.48808 0.72642 0.0
H602 H 0.37698 0.51584 0.80516 0.0
C603 C 0.39798 0.58686 0.73853 0.0
C604 C 0.42511 0.40947 0.6794 0.0
C605 C 0.46101 0.41052 0.68473 0.0
H606 H 0.37674 0.39717 0.71279 0.0
C607 C 0.47564 0.39969 0.73012 0.0
H608 H 0.41297 0.41734 0.64516 0.0
C609 C 0.45493 0.3879 0.76892 0.0
C610 C 0.41902 0.38652 0.76336 0.0
H611 H 0.50322 0.40013 0.73573 0.0
H612 H 0.46717 0.37917 0.80295 0.0
C613 C 0.40434 0.39758 0.71817 0.0
C614 C 0.59576 0.4932 0.7486 0.0
C615 C 0.59019 0.47477 0.70393 0.0
H616 H 0.60636 0.49138 0.82685 0.0
C617 C 0.59086 0.43876 0.70517 0.0
H618 H 0.59531 0.52096 0.74919 0.0
C619 C 0.59735 0.42164 0.75028 0.0
C620 C 0.60275 0.44029 0.79489 0.0
H621 H 0.58688 0.42388 0.67136 0.0
H622 H 0.59786 0.39389 0.75038 0.0
C623 C 0.60183 0.47622 0.79337 0.0
C624 C 0.62813 0.43068 0.38163 0.0
C625 C 0.62285 0.46612 0.37671 0.0
H626 H 0.64157 0.3834 0.34574 0.0
C627 C 0.62734 0.48106 0.32954 0.0
H628 H 0.625 0.41834 0.41738 0.0
C629 C 0.6373 0.46105 0.28841 0.0
C630 C 0.64296 0.42562 0.29349 0.0
H631 H 0.62351 0.50831 0.32444 0.0
H632 H 0.64131 0.47351 0.25289 0.0
C633 C 0.63795 0.41066 0.34056 0.0
C634 C 0.5343 0.61621 0.32574 0.0
C635 C 0.54976 0.60845 0.37187 0.0
H636 H 0.54135 0.63383 0.25095 0.0
C637 C 0.58564 0.61121 0.37652 0.0
H638 H 0.50672 0.61437 0.32085 0.0
C639 C 0.60553 0.62218 0.3363 0.0
C640 C 0.59002 0.63063 0.29045 0.0
H641 H 0.5984 0.60522 0.4114 0.0
H642 H 0.63311 0.62404 0.34114 0.0
C643 C 0.55419 0.62718 0.28552 0.0
C644 C 0.38642 0.53176 0.31175 0.0
C645 C 0.39707 0.5472 0.35686 0.0
H646 H 0.3657 0.53906 0.23837 0.0
C647 C 0.39662 0.58312 0.36084 0.0
H648 H 0.38651 0.50414 0.30738 0.0
C649 C 0.38484 0.60314 0.32123 0.0
C650 C 0.37331 0.58771 0.27658 0.0
H651 H 0.40505 0.59584 0.39477 0.0
H652 H 0.3847 0.63075 0.32566 0.0
C653 C 0.37467 0.5518 0.27206 0.0
C654 C 0.48796 0.42447 0.30896 0.0
C655 C 0.4693 0.4182 0.35281 0.0
H656 H 0.4885 0.42316 0.22912 0.0
C657 C 0.43503 0.40717 0.34868 0.0
H658 H 0.51445 0.43291 0.31075 0.0
C659 C 0.41999 0.40187 0.30168 0.0
C660 C 0.43892 0.40743 0.25778 0.0
H661 H 0.41988 0.40225 0.38172 0.0
H662 H 0.39354 0.39335 0.29974 0.0
C663 C 0.47299 0.41908 0.26205 0.0
loop_
_geom_bond_atom_site_label_1
_geom_bond_atom_site_label_2
_geom_bond_distance
_geom_bond_site_symmetry_2
_ccdc_geom_bond_type
Zn0 O2 1.933 1_556 S
Zn0 O20 1.985 . S
Zn0 O31 1.955 . S
Zn1 O2 1.911 . S
Zn1 O21 1.970 . S
Zn1 O37 1.945 . S
Zn1 O44 1.981 . S
O2 Zn0 1.933 1_554 S
O2 Zn1 1.911 . S
O2 H3 0.841 1_655 S
H3 O2 0.841 1_455 S
C4 O5 1.246 . S
C4 O33 1.276 1_545 S
O5 C4 1.246 . S
Zn6 O8 1.911 . S
Zn6 O23 1.970 . S
Zn6 O40 1.945 . S
Zn6 O47 1.981 . S
Zn7 O8 1.933 1_556 S
Zn7 O22 1.985 . S
Zn7 O29 1.955 . S
O8 Zn6 1.911 . S
O8 Zn7 1.933 1_554 S
O8 H9 0.841 1_455 S
H9 O8 0.841 1_655 S
Zn10 O11 1.933 1_556 S
Zn10 O24 1.985 . S
Zn10 O33 1.955 . S
O11 Zn10 1.933 1_554 S
O11 Zn12 1.911 . S
O11 H13 0.841 1_565 S
Zn12 O11 1.911 . S
Zn12 O25 1.970 . S
Zn12 O41 1.981 . S
Zn12 O43 1.945 . S
H13 O11 0.841 1_545 S
Zn14 O15 1.933 1_556 S
Zn14 O27 1.985 . S
Zn14 O35 1.955 . S
O15 Zn14 1.933 1_554 S
O15 H16 0.841 1_545 S
O15 Zn17 1.911 . S
H16 O15 0.841 1_565 S
Zn17 O15 1.911 . S
Zn17 O28 1.970 . S
Zn17 O38 1.981 . S
Zn17 O46 1.945 . S
C18 O19 1.246 . S
C18 O35 1.276 1_565 S
O19 C18 1.246 . S
O20 Zn0 1.985 . S
O20 C30 1.245 1_556 S
O21 Zn1 1.970 . S
O21 C30 1.263 . S
O22 Zn7 1.985 . S
O22 C34 1.245 1_556 S
O23 Zn6 1.970 . S
O23 C34 1.263 . S
O24 Zn10 1.985 . S
O24 C39 1.245 1_556 S
O25 Zn12 1.970 . S
O25 C39 1.263 . S
C26 O37 1.262 1_455 S
C26 O38 1.245 . S
O27 Zn14 1.985 . S
O27 C45 1.245 1_556 S
O28 Zn17 1.970 . S
O28 C45 1.263 . S
O29 Zn7 1.955 . S
O29 C48 1.276 1_455 S
C30 O20 1.245 1_554 S
C30 O21 1.263 . S
O31 Zn0 1.955 . S
O31 C50 1.276 1_655 S
C32 O40 1.262 1_655 S
C32 O41 1.245 . S
O33 C4 1.276 1_565 S
O33 Zn10 1.955 . S
C34 O22 1.245 1_554 S
C34 O23 1.263 . S
O35 Zn14 1.955 . S
O35 C18 1.276 1_545 S
C36 O43 1.262 1_545 S
C36 O44 1.245 . S
O37 Zn1 1.945 . S
O37 C26 1.262 1_655 S
O38 Zn17 1.981 . S
O38 C26 1.245 . S
C39 O24 1.245 1_554 S
C39 O25 1.263 . S
O40 Zn6 1.945 . S
O40 C32 1.262 1_455 S
O41 Zn12 1.981 . S
O41 C32 1.245 . S
C42 O46 1.262 1_565 S
C42 O47 1.245 . S
O43 Zn12 1.945 . S
O43 C36 1.262 1_565 S
O44 Zn1 1.981 . S
O44 C36 1.245 . S
C45 O27 1.245 1_554 S
C45 O28 1.263 . S
O46 Zn17 1.945 . S
O46 C42 1.262 1_545 S
O47 Zn6 1.981 . S
O47 C42 1.245 . S
C48 O29 1.276 1_655 S
C48 O49 1.246 . S
O49 C48 1.246 . S
C50 O31 1.276 1_455 S
C50 O51 1.246 . S
O51 C50 1.246 . S
Zn52 O54 1.933 . S
Zn52 O72 1.985 . S
Zn52 O83 1.955 . S
Zn53 O54 1.911 . S
Zn53 O73 1.970 . S
Zn53 O89 1.945 . S
Zn53 O96 1.981 . S
O54 Zn52 1.933 . S
O54 Zn53 1.911 . S
O54 H55 0.841 . S
H55 O54 0.841 . S
C56 O57 1.246 . S
C56 O85 1.276 . S
O57 C56 1.246 . S
Zn58 O60 1.911 . S
Zn58 O75 1.970 . S
Zn58 O92 1.945 . S
Zn58 O99 1.981 . S
Zn59 O60 1.933 . S
Zn59 O74 1.985 . S
Zn59 O81 1.955 . S
O60 Zn58 1.911 . S
O60 Zn59 1.933 . S
O60 H61 0.841 . S
H61 O60 0.841 . S
Zn62 O63 1.933 . S
Zn62 O76 1.985 . S
Zn62 O85 1.955 . S
O63 Zn62 1.933 . S
O63 Zn64 1.911 . S
O63 H65 0.841 . S
Zn64 O63 1.911 . S
Zn64 O77 1.970 . S
Zn64 O93 1.981 . S
Zn64 O95 1.945 . S
H65 O63 0.841 . S
Zn66 O67 1.933 . S
Zn66 O79 1.985 . S
Zn66 O87 1.955 . S
O67 Zn66 1.933 . S
O67 H68 0.841 . S
O67 Zn69 1.911 . S
H68 O67 0.841 . S
Zn69 O67 1.911 . S
Zn69 O80 1.970 . S
Zn69 O90 1.981 . S
Zn69 O98 1.945 . S
C70 O71 1.246 . S
C70 O87 1.276 . S
O71 C70 1.246 . S
O72 Zn52 1.985 . S
O72 C82 1.245 . S
O73 Zn53 1.970 . S
O73 C82 1.263 . S
O74 Zn59 1.985 . S
O74 C86 1.245 . S
O75 Zn58 1.970 . S
O75 C86 1.263 . S
O76 Zn62 1.985 . S
O76 C91 1.245 . S
O77 Zn64 1.970 . S
O77 C91 1.263 . S
C78 O89 1.262 . S
C78 O90 1.245 . S
O79 Zn66 1.985 . S
O79 C97 1.245 . S
O80 Zn69 1.970 . S
O80 C97 1.263 . S
O81 Zn59 1.955 . S
O81 C100 1.276 . S
C82 O72 1.245 . S
C82 O73 1.263 . S
O83 Zn52 1.955 . S
O83 C102 1.276 . S
C84 O92 1.262 . S
C84 O93 1.245 . S
O85 C56 1.276 . S
O85 Zn62 1.955 . S
C86 O74 1.245 . S
C86 O75 1.263 . S
O87 Zn66 1.955 . S
O87 C70 1.276 . S
C88 O95 1.262 . S
C88 O96 1.245 . S
O89 Zn53 1.945 . S
O89 C78 1.262 . S
O90 Zn69 1.981 . S
O90 C78 1.245 . S
C91 O76 1.245 . S
C91 O77 1.263 . S
O92 Zn58 1.945 . S
O92 C84 1.262 . S
O93 Zn64 1.981 . S
O93 C84 1.245 . S
C94 O98 1.262 . S
C94 O99 1.245 . S
O95 Zn64 1.945 . S
O95 C88 1.262 . S
O96 Zn53 1.981 . S
O96 C88 1.245 . S
C97 O79 1.245 . S
C97 O80 1.263 . S
O98 Zn69 1.945 . S
O98 C94 1.262 . S
O99 Zn58 1.981 . S
O99 C94 1.245 . S
C100 O81 1.276 . S
C100 O101 1.246 . S
O101 C100 1.246 . S
C102 O83 1.276 . S
C102 O103 1.246 . S
O103 C102 1.246 . S
C104 C105 1.264 . S
C104 C109 1.479 . S
C104 C114 1.465 . S
C105 C104 1.264 . S
C105 C107 1.339 . S
C105 H132 0.931 . S
C106 C107 1.395 . S
C106 C108 1.320 . S
C107 C105 1.339 . S
C107 C106 1.395 . S
C107 H133 0.929 . S
C108 C106 1.320 . S
C108 C109 1.405 . S
C108 H134 0.930 . S
C109 C104 1.479 . S
C109 C108 1.405 . S
C109 H135 0.931 . S
U110 O111 2.454 1_554 S
U110 O112 2.458 . S
U110 C113 2.984 . S
U110 C114 2.847 1_554 S
U110 C127 2.882 . S
U110 O128 2.441 1_554 S
U110 O129 2.420 1_554 S
U110 O130 2.455 . S
U110 O131 2.449 . S
O111 U110 2.454 1_556 S
O111 C113 1.353 1_556 S
O112 U110 2.458 . S
O112 C113 1.286 . S
C113 U110 2.984 . S
C113 O111 1.353 1_554 S
C113 O112 1.286 . S
C113 C115 1.363 . S
C114 C104 1.465 . S
C114 U110 2.847 1_556 S
C114 O128 1.249 . S
C114 O129 1.202 . S
C115 C113 1.363 . S
C115 C117 1.408 1_554 S
C115 C120 1.342 . S
C116 C117 1.310 . S
C116 C119 1.461 1_556 S
C116 H136 0.932 . S
C117 C115 1.408 1_556 S
C117 C116 1.310 . S
C117 H137 0.930 . S
C118 C119 1.474 . S
C118 C120 1.285 . S
C118 H138 0.929 . S
C119 C116 1.461 1_554 S
C119 C118 1.474 . S
C120 C115 1.342 . S
C120 C118 1.285 . S
C120 H139 0.930 . S
C121 C124 1.424 . S
C121 C126 1.245 . S
C121 C127 1.428 . S
C122 C125 1.260 . S
C122 C126 1.477 . S
C122 H140 0.932 . S
C123 C124 1.384 . S
C123 C125 1.479 . S
C123 H141 0.929 . S
C124 C121 1.424 . S
C124 C123 1.384 . S
C124 H142 0.928 . S
C125 C122 1.260 . S
C125 C123 1.479 . S
C126 C121 1.245 . S
C126 C122 1.477 . S
C126 H143 0.932 . S
C127 U110 2.882 . S
C127 C121 1.428 . S
C127 O130 1.301 . S
C127 O131 1.282 . S
O128 U110 2.441 1_556 S
O128 C114 1.249 . S
O129 U110 2.420 1_556 S
O129 C114 1.202 . S
O130 U110 2.455 . S
O130 C127 1.301 . S
O131 U110 2.449 . S
O131 C127 1.282 . S
H132 C105 0.931 . S
H133 C107 0.929 . S
H134 C108 0.930 . S
H135 C109 0.931 . S
H136 C116 0.932 . S
H137 C117 0.930 . S
H138 C118 0.929 . S
H139 C120 0.930 . S
H140 C122 0.932 . S
H141 C123 0.929 . S
H142 C124 0.928 . S
H143 C126 0.932 . S
C144 C145 1.264 . S
C144 C149 1.479 . S
C144 C154 1.465 . S
C145 C144 1.264 . S
C145 C147 1.339 . S
C145 H172 0.931 . S
C146 C147 1.395 . S
C146 C148 1.320 . S
C147 C145 1.339 . S
C147 C146 1.395 . S
C147 H173 0.929 . S
C148 C146 1.320 . S
C148 C149 1.405 . S
C148 H174 0.930 . S
C149 C144 1.479 . S
C149 C148 1.405 . S
C149 H175 0.931 . S
U150 O151 2.454 . S
U150 O152 2.458 1_554 S
U150 C153 2.984 . S
U150 C154 2.847 . S
U150 C167 2.882 1_554 S
U150 O168 2.441 . S
U150 O169 2.420 . S
U150 O170 2.455 1_554 S
U150 O171 2.449 1_554 S
O151 U150 2.454 . S
O151 C153 1.353 . S
O152 U150 2.458 1_556 S
O152 C153 1.286 1_556 S
C153 U150 2.984 . S
C153 O151 1.353 . S
C153 O152 1.286 1_554 S
C153 C155 1.363 . S
C154 C144 1.465 . S
C154 U150 2.847 . S
C154 O168 1.249 . S
C154 O169 1.202 . S
C155 C153 1.363 . S
C155 C157 1.408 . S
C155 C160 1.342 1_554 S
C156 C157 1.310 . S
C156 C159 1.461 . S
C156 H176 0.932 . S
C157 C155 1.408 . S
C157 C156 1.310 . S
C157 H177 0.930 . S
C158 C159 1.474 1_556 S
C158 C160 1.285 . S
C158 H178 0.929 . S
C159 C156 1.461 . S
C159 C158 1.474 1_554 S
C160 C155 1.342 1_556 S
C160 C158 1.285 . S
C160 H179 0.930 . S
C161 C164 1.424 . S
C161 C166 1.245 . S
C161 C167 1.428 . S
C162 C165 1.260 . S
C162 C166 1.477 . S
C162 H180 0.932 . S
C163 C164 1.384 . S
C163 C165 1.479 . S
C163 H181 0.929 . S
C164 C161 1.424 . S
C164 C163 1.384 . S
C164 H182 0.928 . S
C165 C162 1.260 . S
C165 C163 1.479 . S
C166 C161 1.245 . S
C166 C162 1.477 . S
C166 H183 0.932 . S
C167 U150 2.882 1_556 S
C167 C161 1.428 . S
C167 O170 1.301 . S
C167 O171 1.282 . S
O168 U150 2.441 . S
O168 C154 1.249 . S
O169 U150 2.420 . S
O169 C154 1.202 . S
O170 U150 2.455 1_556 S
O170 C167 1.301 . S
O171 U150 2.449 1_556 S
O171 C167 1.282 . S
H172 C145 0.931 . S
H173 C147 0.929 . S
H174 C148 0.930 . S
H175 C149 0.931 . S
H176 C156 0.932 . S
H177 C157 0.930 . S
H178 C158 0.929 . S
H179 C160 0.930 . S
H180 C162 0.932 . S
H181 C163 0.929 . S
H182 C164 0.928 . S
H183 C166 0.932 . S
C184 C185 1.264 . S
C184 C189 1.479 . S
C184 C194 1.465 . S
C185 C184 1.264 . S
C185 C187 1.339 . S
C185 H212 0.931 . S
C186 C187 1.395 . S
C186 C188 1.320 . S
C187 C185 1.339 . S
C187 C186 1.395 . S
C187 H213 0.929 . S
C188 C186 1.320 . S
C188 C189 1.405 . S
C188 H214 0.930 . S
C189 C184 1.479 . S
C189 C188 1.405 . S
C189 H215 0.931 . S
U190 O191 2.454 . S
U190 O192 2.458 1_554 S
U190 C193 2.984 . S
U190 C194 2.847 . S
U190 C207 2.882 1_554 S
U190 O208 2.441 . S
U190 O209 2.420 . S
U190 O210 2.455 1_554 S
U190 O211 2.449 1_554 S
O191 U190 2.454 . S
O191 C193 1.353 . S
O192 U190 2.458 1_556 S
O192 C193 1.286 1_556 S
C193 U190 2.984 . S
C193 O191 1.353 . S
C193 O192 1.286 1_554 S
C193 C195 1.363 . S
C194 C184 1.465 . S
C194 U190 2.847 . S
C194 O208 1.249 . S
C194 O209 1.202 . S
C195 C193 1.363 . S
C195 C197 1.408 . S
C195 C200 1.342 1_554 S
C196 C197 1.310 . S
C196 C199 1.461 . S
C196 H216 0.932 . S
C197 C195 1.408 . S
C197 C196 1.310 . S
C197 H217 0.930 . S
C198 C199 1.474 1_556 S
C198 C200 1.285 . S
C198 H218 0.929 . S
C199 C196 1.461 . S
C199 C198 1.474 1_554 S
C200 C195 1.342 1_556 S
C200 C198 1.285 . S
C200 H219 0.930 . S
C201 C204 1.424 . S
C201 C206 1.245 . S
C201 C207 1.428 . S
C202 C205 1.260 . S
C202 C206 1.477 . S
C202 H220 0.932 . S
C203 C204 1.384 . S
C203 C205 1.479 . S
C203 H221 0.929 . S
C204 C201 1.424 . S
C204 C203 1.384 . S
C204 H222 0.928 . S
C205 C202 1.260 . S
C205 C203 1.479 . S
C206 C201 1.245 . S
C206 C202 1.477 . S
C206 H223 0.932 . S
C207 U190 2.882 1_556 S
C207 C201 1.428 . S
C207 O210 1.301 . S
C207 O211 1.282 . S
O208 U190 2.441 . S
O208 C194 1.249 . S
O209 U190 2.420 . S
O209 C194 1.202 . S
O210 U190 2.455 1_556 S
O210 C207 1.301 . S
O211 U190 2.449 1_556 S
O211 C207 1.282 . S
H212 C185 0.931 . S
H213 C187 0.929 . S
H214 C188 0.930 . S
H215 C189 0.931 . S
H216 C196 0.932 . S
H217 C197 0.930 . S
H218 C198 0.929 . S
H219 C200 0.930 . S
H220 C202 0.932 . S
H221 C203 0.929 . S
H222 C204 0.928 . S
H223 C206 0.932 . S
C224 C225 1.264 . S
C224 C229 1.479 . S
C224 C234 1.465 . S
C225 C224 1.264 . S
C225 C227 1.339 . S
C225 H252 0.931 . S
C226 C227 1.395 . S
C226 C228 1.320 . S
C227 C225 1.339 . S
C227 C226 1.395 . S
C227 H253 0.929 . S
C228 C226 1.320 . S
C228 C229 1.405 . S
C228 H254 0.930 . S
C229 C224 1.479 . S
C229 C228 1.405 . S
C229 H255 0.931 . S
U230 O231 2.454 . S
U230 O232 2.458 1_554 S
U230 C233 2.984 . S
U230 C234 2.847 . S
U230 C247 2.882 1_554 S
U230 O248 2.441 . S
U230 O249 2.420 . S
U230 O250 2.455 1_554 S
U230 O251 2.449 1_554 S
O231 U230 2.454 . S
O231 C233 1.353 . S
O232 U230 2.458 1_556 S
O232 C233 1.286 1_556 S
C233 U230 2.984 . S
C233 O231 1.353 . S
C233 O232 1.286 1_554 S
C233 C235 1.363 . S
C234 C224 1.465 . S
C234 U230 2.847 . S
C234 O248 1.249 . S
C234 O249 1.202 . S
C235 C233 1.363 . S
C235 C237 1.408 . S
C235 C240 1.342 1_554 S
C236 C237 1.310 . S
C236 C239 1.461 . S
C236 H256 0.932 . S
C237 C235 1.408 . S
C237 C236 1.310 . S
C237 H257 0.930 . S
C238 C239 1.474 1_556 S
C238 C240 1.285 . S
C238 H258 0.929 . S
C239 C236 1.461 . S
C239 C238 1.474 1_554 S
C240 C235 1.342 1_556 S
C240 C238 1.285 . S
C240 H259 0.930 . S
C241 C244 1.424 . S
C241 C246 1.245 . S
C241 C247 1.428 . S
C242 C245 1.260 . S
C242 C246 1.477 . S
C242 H260 0.932 . S
C243 C244 1.384 . S
C243 C245 1.479 . S
C243 H261 0.929 . S
C244 C241 1.424 . S
C244 C243 1.384 . S
C244 H262 0.928 . S
C245 C242 1.260 . S
C245 C243 1.479 . S
C246 C241 1.245 . S
C246 C242 1.477 . S
C246 H263 0.932 . S
C247 U230 2.882 1_556 S
C247 C241 1.428 . S
C247 O250 1.301 . S
C247 O251 1.282 . S
O248 U230 2.441 . S
O248 C234 1.249 . S
O249 U230 2.420 . S
O249 C234 1.202 . S
O250 U230 2.455 1_556 S
O250 C247 1.301 . S
O251 U230 2.449 1_556 S
O251 C247 1.282 . S
H252 C225 0.931 . S
H253 C227 0.929 . S
H254 C228 0.930 . S
H255 C229 0.931 . S
H256 C236 0.932 . S
H257 C237 0.930 . S
H258 C238 0.929 . S
H259 C240 0.930 . S
H260 C242 0.932 . S
H261 C243 0.929 . S
H262 C244 0.928 . S
H263 C246 0.932 . S
C264 C265 1.264 . S
C264 C269 1.479 . S
C264 C274 1.465 . S
C265 C264 1.264 . S
C265 C267 1.339 . S
C265 H292 0.931 . S
C266 C267 1.395 . S
C266 C268 1.320 . S
C267 C265 1.339 . S
C267 C266 1.395 . S
C267 H293 0.929 . S
C268 C266 1.320 . S
C268 C269 1.405 . S
C268 H294 0.930 . S
C269 C264 1.479 . S
C269 C268 1.405 . S
C269 H295 0.931 . S
U270 O271 2.454 . S
U270 O272 2.458 . S
U270 C273 2.984 . S
U270 C274 2.847 . S
U270 C287 2.882 . S
U270 O288 2.441 . S
U270 O289 2.420 . S
U270 O290 2.455 . S
U270 O291 2.449 . S
O271 U270 2.454 . S
O271 C273 1.353 . S
O272 U270 2.458 . S
O272 C273 1.286 . S
C273 U270 2.984 . S
C273 O271 1.353 . S
C273 O272 1.286 . S
C273 C275 1.363 . S
C274 C264 1.465 . S
C274 U270 2.847 . S
C274 O288 1.249 . S
C274 O289 1.202 . S
C275 C273 1.363 . S
C275 C277 1.408 . S
C275 C280 1.342 . S
C276 C277 1.310 . S
C276 C279 1.461 . S
C276 H296 0.932 . S
C277 C275 1.408 . S
C277 C276 1.310 . S
C277 H297 0.930 . S
C278 C279 1.474 . S
C278 C280 1.285 . S
C278 H298 0.929 . S
C279 C276 1.461 . S
C279 C278 1.474 . S
C280 C275 1.342 . S
C280 C278 1.285 . S
C280 H299 0.930 . S
C281 C284 1.424 . S
C281 C286 1.245 . S
C281 C287 1.428 . S
C282 C285 1.260 . S
C282 C286 1.477 . S
C282 H300 0.932 . S
C283 C284 1.384 . S
C283 C285 1.479 . S
C283 H301 0.929 . S
C284 C281 1.424 . S
C284 C283 1.384 . S
C284 H302 0.928 . S
C285 C282 1.260 . S
C285 C283 1.479 . S
C286 C281 1.245 . S
C286 C282 1.477 . S
C286 H303 0.932 . S
C287 U270 2.882 . S
C287 C281 1.428 . S
C287 O290 1.301 . S
C287 O291 1.282 . S
O288 U270 2.441 . S
O288 C274 1.249 . S
O289 U270 2.420 . S
O289 C274 1.202 . S
O290 U270 2.455 . S
O290 C287 1.301 . S
O291 U270 2.449 . S
O291 C287 1.282 . S
H292 C265 0.931 . S
H293 C267 0.929 . S
H294 C268 0.930 . S
H295 C269 0.931 . S
H296 C276 0.932 . S
H297 C277 0.930 . S
H298 C278 0.929 . S
H299 C280 0.930 . S
H300 C282 0.932 . S
H301 C283 0.929 . S
H302 C284 0.928 . S
H303 C286 0.932 . S
C304 C305 1.264 . S
C304 C309 1.479 . S
C304 C314 1.465 . S
C305 C304 1.264 . S
C305 C307 1.339 . S
C305 H332 0.931 . S
C306 C307 1.395 . S
C306 C308 1.320 . S
C307 C305 1.339 . S
C307 C306 1.395 . S
C307 H333 0.929 . S
C308 C306 1.320 . S
C308 C309 1.405 . S
C308 H334 0.930 . S
C309 C304 1.479 . S
C309 C308 1.405 . S
C309 H335 0.931 . S
U310 O311 2.454 . S
U310 O312 2.458 . S
U310 C313 2.984 . S
U310 C314 2.847 . S
U310 C327 2.882 . S
U310 O328 2.441 . S
U310 O329 2.420 . S
U310 O330 2.455 . S
U310 O331 2.449 . S
O311 U310 2.454 . S
O311 C313 1.353 . S
O312 U310 2.458 . S
O312 C313 1.286 . S
C313 U310 2.984 . S
C313 O311 1.353 . S
C313 O312 1.286 . S
C313 C315 1.363 . S
C314 C304 1.465 . S
C314 U310 2.847 . S
C314 O328 1.249 . S
C314 O329 1.202 . S
C315 C313 1.363 . S
C315 C317 1.408 . S
C315 C320 1.342 . S
C316 C317 1.310 . S
C316 C319 1.461 . S
C316 H336 0.932 . S
C317 C315 1.408 . S
C317 C316 1.310 . S
C317 H337 0.930 . S
C318 C319 1.474 . S
C318 C320 1.285 . S
C318 H338 0.929 . S
C319 C316 1.461 . S
C319 C318 1.474 . S
C320 C315 1.342 . S
C320 C318 1.285 . S
C320 H339 0.930 . S
C321 C324 1.424 . S
C321 C326 1.245 . S
C321 C327 1.428 . S
C322 C325 1.260 . S
C322 C326 1.477 . S
C322 H340 0.932 . S
C323 C324 1.384 . S
C323 C325 1.479 . S
C323 H341 0.929 . S
C324 C321 1.424 . S
C324 C323 1.384 . S
C324 H342 0.928 . S
C325 C322 1.260 . S
C325 C323 1.479 . S
C326 C321 1.245 . S
C326 C322 1.477 . S
C326 H343 0.932 . S
C327 U310 2.882 . S
C327 C321 1.428 . S
C327 O330 1.301 . S
C327 O331 1.282 . S
O328 U310 2.441 . S
O328 C314 1.249 . S
O329 U310 2.420 . S
O329 C314 1.202 . S
O330 U310 2.455 . S
O330 C327 1.301 . S
O331 U310 2.449 . S
O331 C327 1.282 . S
H332 C305 0.931 . S
H333 C307 0.929 . S
H334 C308 0.930 . S
H335 C309 0.931 . S
H336 C316 0.932 . S
H337 C317 0.930 . S
H338 C318 0.929 . S
H339 C320 0.930 . S
H340 C322 0.932 . S
H341 C323 0.929 . S
H342 C324 0.928 . S
H343 C326 0.932 . S
C344 C345 1.264 . S
C344 C349 1.479 . S
C344 C354 1.465 . S
C345 C344 1.264 . S
C345 C347 1.339 . S
C345 H372 0.931 . S
C346 C347 1.395 . S
C346 C348 1.320 . S
C347 C345 1.339 . S
C347 C346 1.395 . S
C347 H373 0.929 . S
C348 C346 1.320 . S
C348 C349 1.405 . S
C348 H374 0.930 . S
C349 C344 1.479 . S
C349 C348 1.405 . S
C349 H375 0.931 . S
U350 O351 2.454 . S
U350 O352 2.458 . S
U350 C353 2.984 . S
U350 C354 2.847 . S
U350 C367 2.882 . S
U350 O368 2.441 . S
U350 O369 2.420 . S
U350 O370 2.455 . S
U350 O371 2.449 . S
O351 U350 2.454 . S
O351 C353 1.353 . S
O352 U350 2.458 . S
O352 C353 1.286 . S
C353 U350 2.984 . S
C353 O351 1.353 . S
C353 O352 1.286 . S
C353 C355 1.363 . S
C354 C344 1.465 . S
C354 U350 2.847 . S
C354 O368 1.249 . S
C354 O369 1.202 . S
C355 C353 1.363 . S
C355 C357 1.408 . S
C355 C360 1.342 . S
C356 C357 1.310 . S
C356 C359 1.461 . S
C356 H376 0.932 . S
C357 C355 1.408 . S
C357 C356 1.310 . S
C357 H377 0.930 . S
C358 C359 1.474 . S
C358 C360 1.285 . S
C358 H378 0.929 . S
C359 C356 1.461 . S
C359 C358 1.474 . S
C360 C355 1.342 . S
C360 C358 1.285 . S
C360 H379 0.930 . S
C361 C364 1.424 . S
C361 C366 1.245 . S
C361 C367 1.428 . S
C362 C365 1.260 . S
C362 C366 1.477 . S
C362 H380 0.932 . S
C363 C364 1.384 . S
C363 C365 1.479 . S
C363 H381 0.929 . S
C364 C361 1.424 . S
C364 C363 1.384 . S
C364 H382 0.928 . S
C365 C362 1.260 . S
C365 C363 1.479 . S
C366 C361 1.245 . S
C366 C362 1.477 . S
C366 H383 0.932 . S
C367 U350 2.882 . S
C367 C361 1.428 . S
C367 O370 1.301 . S
C367 O371 1.282 . S
O368 U350 2.441 . S
O368 C354 1.249 . S
O369 U350 2.420 . S
O369 C354 1.202 . S
O370 U350 2.455 . S
O370 C367 1.301 . S
O371 U350 2.449 . S
O371 C367 1.282 . S
H372 C345 0.931 . S
H373 C347 0.929 . S
H374 C348 0.930 . S
H375 C349 0.931 . S
H376 C356 0.932 . S
H377 C357 0.930 . S
H378 C358 0.929 . S
H379 C360 0.930 . S
H380 C362 0.932 . S
H381 C363 0.929 . S
H382 C364 0.928 . S
H383 C366 0.932 . S
C384 C385 1.264 . S
C384 C389 1.479 . S
C384 C394 1.465 . S
C385 C384 1.264 . S
C385 C387 1.339 . S
C385 H412 0.931 . S
C386 C387 1.395 . S
C386 C388 1.320 . S
C387 C385 1.339 . S
C387 C386 1.395 . S
C387 H413 0.929 . S
C388 C386 1.320 . S
C388 C389 1.405 . S
C388 H414 0.930 . S
C389 C384 1.479 . S
C389 C388 1.405 . S
C389 H415 0.931 . S
U390 O391 2.454 . S
U390 O392 2.458 . S
U390 C393 2.984 . S
U390 C394 2.847 . S
U390 C407 2.882 . S
U390 O408 2.441 . S
U390 O409 2.420 . S
U390 O410 2.455 . S
U390 O411 2.449 . S
O391 U390 2.454 . S
O391 C393 1.353 . S
O392 U390 2.458 . S
O392 C393 1.286 . S
C393 U390 2.984 . S
C393 O391 1.353 . S
C393 O392 1.286 . S
C393 C395 1.363 . S
C394 C384 1.465 . S
C394 U390 2.847 . S
C394 O408 1.249 . S
C394 O409 1.202 . S
C395 C393 1.363 . S
C395 C397 1.408 . S
C395 C400 1.342 . S
C396 C397 1.310 . S
C396 C399 1.461 . S
C396 H416 0.932 . S
C397 C395 1.408 . S
C397 C396 1.310 . S
C397 H417 0.930 . S
C398 C399 1.474 . S
C398 C400 1.285 . S
C398 H418 0.929 . S
C399 C396 1.461 . S
C399 C398 1.474 . S
C400 C395 1.342 . S
C400 C398 1.285 . S
C400 H419 0.930 . S
C401 C404 1.424 . S
C401 C406 1.245 . S
C401 C407 1.428 . S
C402 C405 1.260 . S
C402 C406 1.477 . S
C402 H420 0.932 . S
C403 C404 1.384 . S
C403 C405 1.479 . S
C403 H421 0.929 . S
C404 C401 1.424 . S
C404 C403 1.384 . S
C404 H422 0.928 . S
C405 C402 1.260 . S
C405 C403 1.479 . S
C406 C401 1.245 . S
C406 C402 1.477 . S
C406 H423 0.932 . S
C407 U390 2.882 . S
C407 C401 1.428 . S
C407 O410 1.301 . S
C407 O411 1.282 . S
O408 U390 2.441 . S
O408 C394 1.249 . S
O409 U390 2.420 . S
O409 C394 1.202 . S
O410 U390 2.455 . S
O410 C407 1.301 . S
O411 U390 2.449 . S
O411 C407 1.282 . S
H412 C385 0.931 . S
H413 C387 0.929 . S
H414 C388 0.930 . S
H415 C389 0.931 . S
H416 C396 0.932 . S
H417 C397 0.930 . S
H418 C398 0.929 . S
H419 C400 0.930 . S
H420 C402 0.932 . S
H421 C403 0.929 . S
H422 C404 0.928 . S
H423 C406 0.932 . S
C424 C425 1.387 . S
C424 H428 0.950 . S
C424 C433 1.390 . S
C425 C424 1.387 . S
C425 C427 1.387 1_554 S
H426 C433 0.950 . S
C427 C425 1.387 1_556 S
C427 C429 1.390 . S
C427 H431 0.950 . S
H428 C424 0.950 . S
C429 C427 1.390 . S
C429 C430 1.387 1_556 S
C429 H432 0.950 . S
C430 C429 1.387 1_554 S
C430 C433 1.387 . S
H431 C427 0.950 . S
H432 C429 0.950 . S
C433 C424 1.390 . S
C433 H426 0.950 . S
C433 C430 1.387 . S
C434 C435 1.387 1_556 S
C434 H438 0.950 . S
C434 C443 1.390 . S
C435 C434 1.387 1_554 S
C435 C437 1.387 . S
H436 C443 0.950 . S
C437 C435 1.387 . S
C437 C439 1.390 . S
C437 H441 0.950 . S
H438 C434 0.950 . S
C439 C437 1.390 . S
C439 C440 1.387 . S
C439 H442 0.950 . S
C440 C439 1.387 . S
C440 C443 1.387 1_554 S
H441 C437 0.950 . S
H442 C439 0.950 . S
C443 C434 1.390 . S
C443 H436 0.950 . S
C443 C440 1.387 1_556 S
C444 C445 1.387 . S
C444 H448 0.950 . S
C444 C453 1.390 . S
C445 C444 1.387 . S
C445 C447 1.387 1_554 S
H446 C453 0.950 . S
C447 C445 1.387 1_556 S
C447 C449 1.390 . S
C447 H451 0.950 . S
H448 C444 0.950 . S
C449 C447 1.390 . S
C449 C450 1.387 1_556 S
C449 H452 0.950 . S
C450 C449 1.387 1_554 S
C450 C453 1.387 . S
H451 C447 0.950 . S
H452 C449 0.950 . S
C453 C444 1.390 . S
C453 H446 0.950 . S
C453 C450 1.387 . S
C454 C455 1.387 1_556 S
C454 H458 0.950 . S
C454 C463 1.390 . S
C455 C454 1.387 1_554 S
C455 C457 1.387 . S
H456 C463 0.950 . S
C457 C455 1.387 . S
C457 C459 1.390 . S
C457 H461 0.950 . S
H458 C454 0.950 . S
C459 C457 1.390 . S
C459 C460 1.387 . S
C459 H462 0.950 . S
C460 C459 1.387 . S
C460 C463 1.387 1_554 S
H461 C457 0.950 . S
H462 C459 0.950 . S
C463 C454 1.390 . S
C463 H456 0.950 . S
C463 C460 1.387 1_556 S
C464 C465 1.387 . S
C464 H468 0.950 . S
C464 C473 1.390 . S
C465 C464 1.387 . S
C465 C467 1.387 . S
H466 C473 0.950 . S
C467 C465 1.387 . S
C467 C469 1.390 . S
C467 H471 0.950 . S
H468 C464 0.950 . S
C469 C467 1.390 . S
C469 C470 1.387 . S
C469 H472 0.950 . S
C470 C469 1.387 . S
C470 C473 1.387 . S
H471 C467 0.950 . S
H472 C469 0.950 . S
C473 C464 1.390 . S
C473 H466 0.950 . S
C473 C470 1.387 . S
C474 C475 1.387 . S
C474 H478 0.950 . S
C474 C483 1.390 . S
C475 C474 1.387 . S
C475 C477 1.387 . S
H476 C483 0.950 . S
C477 C475 1.387 . S
C477 C479 1.390 . S
C477 H481 0.950 . S
H478 C474 0.950 . S
C479 C477 1.390 . S
C479 C480 1.387 . S
C479 H482 0.950 . S
C480 C479 1.387 . S
C480 C483 1.387 . S
H481 C477 0.950 . S
H482 C479 0.950 . S
C483 C474 1.390 . S
C483 H476 0.950 . S
C483 C480 1.387 . S
C484 C485 1.387 . S
C484 H488 0.950 . S
C484 C493 1.390 . S
C485 C484 1.387 . S
C485 C487 1.387 . S
H486 C493 0.950 . S
C487 C485 1.387 . S
C487 C489 1.390 . S
C487 H491 0.950 . S
H488 C484 0.950 . S
C489 C487 1.390 . S
C489 C490 1.387 . S
C489 H492 0.950 . S
C490 C489 1.387 . S
C490 C493 1.387 . S
H491 C487 0.950 . S
H492 C489 0.950 . S
C493 C484 1.390 . S
C493 H486 0.950 . S
C493 C490 1.387 . S
C494 C495 1.387 . S
C494 H498 0.950 . S
C494 C503 1.390 . S
C495 C494 1.387 . S
C495 C497 1.387 . S
H496 C503 0.950 . S
C497 C495 1.387 . S
C497 C499 1.390 . S
C497 H501 0.950 . S
H498 C494 0.950 . S
C499 C497 1.390 . S
C499 C500 1.387 . S
C499 H502 0.950 . S
C500 C499 1.387 . S
C500 C503 1.387 . S
H501 C497 0.950 . S
H502 C499 0.950 . S
C503 C494 1.390 . S
C503 H496 0.950 . S
C503 C500 1.387 . S
C504 C505 1.387 . S
C504 H508 0.950 . S
C504 C513 1.390 . S
C505 C504 1.387 . S
C505 C507 1.387 . S
H506 C513 0.950 . S
C507 C505 1.387 . S
C507 C509 1.390 . S
C507 H511 0.950 1_455 S
H508 C504 0.950 . S
C509 C507 1.390 . S
C509 C510 1.387 . S
C509 H512 0.950 1_455 S
C510 C509 1.387 . S
C510 C513 1.387 . S
H511 C507 0.950 1_655 S
H512 C509 0.950 1_655 S
C513 C504 1.390 . S
C513 H506 0.950 . S
C513 C510 1.387 . S
C514 C515 1.387 . S
C514 H518 0.950 . S
C514 C523 1.390 . S
C515 C514 1.387 . S
C515 C517 1.387 . S
H516 C523 0.950 . S
C517 C515 1.387 . S
C517 C519 1.390 . S
C517 H521 0.950 1_545 S
H518 C514 0.950 . S
C519 C517 1.390 . S
C519 C520 1.387 . S
C519 H522 0.950 1_545 S
C520 C519 1.387 . S
C520 C523 1.387 . S
H521 C517 0.950 1_565 S
H522 C519 0.950 1_565 S
C523 C514 1.390 . S
C523 H516 0.950 . S
C523 C520 1.387 . S
C524 C525 1.387 . S
C524 H528 0.950 1_655 S
C524 C533 1.390 . S
C525 C524 1.387 . S
C525 C527 1.387 . S
H526 C533 0.950 1_455 S
C527 C525 1.387 . S
C527 C529 1.390 . S
C527 H531 0.950 . S
H528 C524 0.950 1_455 S
C529 C527 1.390 . S
C529 C530 1.387 . S
C529 H532 0.950 . S
C530 C529 1.387 . S
C530 C533 1.387 . S
H531 C527 0.950 . S
H532 C529 0.950 . S
C533 C524 1.390 . S
C533 H526 0.950 1_655 S
C533 C530 1.387 . S
C534 C535 1.387 . S
C534 H538 0.950 . S
C534 C543 1.390 . S
C535 C534 1.387 . S
C535 C537 1.387 . S
H536 C543 0.950 . S
C537 C535 1.387 . S
C537 C539 1.390 . S
C537 H541 0.950 1_565 S
H538 C534 0.950 . S
C539 C537 1.390 . S
C539 C540 1.387 . S
C539 H542 0.950 1_565 S
C540 C539 1.387 . S
C540 C543 1.387 . S
H541 C537 0.950 1_545 S
H542 C539 0.950 1_545 S
C543 C534 1.390 . S
C543 H536 0.950 . S
C543 C540 1.387 . S
C544 C545 1.387 . S
C544 H548 0.950 . S
C544 C553 1.390 . S
C545 C544 1.387 . S
C545 C547 1.387 . S
H546 C553 0.950 . S
C547 C545 1.387 . S
C547 C549 1.390 . S
C547 H551 0.950 1_565 S
H548 C544 0.950 . S
C549 C547 1.390 . S
C549 C550 1.387 . S
C549 H552 0.950 1_565 S
C550 C549 1.387 . S
C550 C553 1.387 . S
H551 C547 0.950 1_545 S
H552 C549 0.950 1_545 S
C553 C544 1.390 . S
C553 H546 0.950 . S
C553 C550 1.387 . S
C554 C555 1.387 . S
C554 H558 0.950 1_455 S
C554 C563 1.390 . S
C555 C554 1.387 . S
C555 C557 1.387 . S
H556 C563 0.950 1_655 S
C557 C555 1.387 . S
C557 C559 1.390 . S
C557 H561 0.950 . S
H558 C554 0.950 1_655 S
C559 C557 1.390 . S
C559 C560 1.387 . S
C559 H562 0.950 . S
C560 C559 1.387 . S
C560 C563 1.387 . S
H561 C557 0.950 . S
H562 C559 0.950 . S
C563 C554 1.390 . S
C563 H556 0.950 1_455 S
C563 C560 1.387 . S
C564 C565 1.387 . S
C564 H568 0.950 . S
C564 C573 1.390 . S
C565 C564 1.387 . S
C565 C567 1.387 . S
H566 C573 0.950 . S
C567 C565 1.387 . S
C567 C569 1.390 . S
C567 H571 0.950 1_545 S
H568 C564 0.950 . S
C569 C567 1.390 . S
C569 C570 1.387 . S
C569 H572 0.950 1_545 S
C570 C569 1.387 . S
C570 C573 1.387 . S
H571 C567 0.950 1_565 S
H572 C569 0.950 1_565 S
C573 C564 1.390 . S
C573 H566 0.950 . S
C573 C570 1.387 . S
C574 C575 1.387 . S
C574 H578 0.950 . S
C574 C583 1.390 . S
C575 C574 1.387 . S
C575 C577 1.387 . S
H576 C583 0.950 . S
C577 C575 1.387 . S
C577 C579 1.390 . S
C577 H581 0.950 . S
H578 C574 0.950 . S
C579 C577 1.390 . S
C579 C580 1.387 . S
C579 H582 0.950 . S
C580 C579 1.387 . S
C580 C583 1.387 . S
H581 C577 0.950 . S
H582 C579 0.950 . S
C583 C574 1.390 . S
C583 H576 0.950 . S
C583 C580 1.387 . S
C584 C585 1.387 . S
C584 H588 0.950 . S
C584 C593 1.390 . S
C585 C584 1.387 . S
C585 C587 1.387 . S
H586 C593 0.950 . S
C587 C585 1.387 . S
C587 C589 1.390 . S
C587 H591 0.950 . S
H588 C584 0.950 . S
C589 C587 1.390 . S
C589 C590 1.387 . S
C589 H592 0.950 . S
C590 C589 1.387 . S
C590 C593 1.387 . S
H591 C587 0.950 . S
H592 C589 0.950 . S
C593 C584 1.390 . S
C593 H586 0.950 . S
C593 C590 1.387 . S
C594 C595 1.387 . S
C594 H598 0.950 . S
C594 C603 1.390 . S
C595 C594 1.387 . S
C595 C597 1.387 . S
H596 C603 0.950 . S
C597 C595 1.387 . S
C597 C599 1.390 . S
C597 H601 0.950 . S
H598 C594 0.950 . S
C599 C597 1.390 . S
C599 C600 1.387 . S
C599 H602 0.950 . S
C600 C599 1.387 . S
C600 C603 1.387 . S
H601 C597 0.950 . S
H602 C599 0.950 . S
C603 C594 1.390 . S
C603 H596 0.950 . S
C603 C600 1.387 . S
C604 C605 1.387 . S
C604 H608 0.950 . S
C604 C613 1.390 . S
C605 C604 1.387 . S
C605 C607 1.387 . S
H606 C613 0.950 . S
C607 C605 1.387 . S
C607 C609 1.390 . S
C607 H611 0.950 . S
H608 C604 0.950 . S
C609 C607 1.390 . S
C609 C610 1.387 . S
C609 H612 0.950 . S
C610 C609 1.387 . S
C610 C613 1.387 . S
H611 C607 0.950 . S
H612 C609 0.950 . S
C613 C604 1.390 . S
C613 H606 0.950 . S
C613 C610 1.387 . S
C614 C615 1.387 . S
C614 H618 0.950 . S
C614 C623 1.390 . S
C615 C614 1.387 . S
C615 C617 1.387 . S
H616 C623 0.950 . S
C617 C615 1.387 . S
C617 C619 1.390 . S
C617 H621 0.950 . S
H618 C614 0.950 . S
C619 C617 1.390 . S
C619 C620 1.387 . S
C619 H622 0.950 . S
C620 C619 1.387 . S
C620 C623 1.387 . S
H621 C617 0.950 . S
H622 C619 0.950 . S
C623 C614 1.390 . S
C623 H616 0.950 . S
C623 C620 1.387 . S
C624 C625 1.387 . S
C624 H628 0.950 . S
C624 C633 1.390 . S
C625 C624 1.387 . S
C625 C627 1.387 . S
H626 C633 0.950 . S
C627 C625 1.387 . S
C627 C629 1.390 . S
C627 H631 0.950 . S
H628 C624 0.950 . S
C629 C627 1.390 . S
C629 C630 1.387 . S
C629 H632 0.950 . S
C630 C629 1.387 . S
C630 C633 1.387 . S
H631 C627 0.950 . S
H632 C629 0.950 . S
C633 C624 1.390 . S
C633 H626 0.950 . S
C633 C630 1.387 . S
C634 C635 1.387 . S
C634 H638 0.950 . S
C634 C643 1.390 . S
C635 C634 1.387 . S
C635 C637 1.387 . S
H636 C643 0.950 . S
C637 C635 1.387 . S
C637 C639 1.390 . S
C637 H641 0.950 . S
H638 C634 0.950 . S
C639 C637 1.390 . S
C639 C640 1.387 . S
C639 H642 0.950 . S
C640 C639 1.387 . S
C640 C643 1.387 . S
H641 C637 0.950 . S
H642 C639 0.950 . S
C643 C634 1.390 . S
C643 H636 0.950 . S
C643 C640 1.387 . S
C644 C645 1.387 . S
C644 H648 0.950 . S
C644 C653 1.390 . S
C645 C644 1.387 . S
C645 C647 1.387 . S
H646 C653 0.950 . S
C647 C645 1.387 . S
C647 C649 1.390 . S
C647 H651 0.950 . S
H648 C644 0.950 . S
C649 C647 1.390 . S
C649 C650 1.387 . S
C649 H652 0.950 . S
C650 C649 1.387 . S
C650 C653 1.387 . S
H651 C647 0.950 . S
H652 C649 0.950 . S
C653 C644 1.390 . S
C653 H646 0.950 . S
C653 C650 1.387 . S
C654 C655 1.387 . S
C654 H658 0.950 . S
C654 C663 1.390 . S
C655 C654 1.387 . S
C655 C657 1.387 . S
H656 C663 0.950 . S
C657 C655 1.387 . S
C657 C659 1.390 . S
C657 H661 0.950 . S
H658 C654 0.950 . S
C659 C657 1.390 . S
C659 C660 1.387 . S
C659 H662 0.950 . S
C660 C659 1.387 . S
C660 C663 1.387 . S
H661 C657 0.950 . S
H662 C659 0.950 . S
C663 C654 1.390 . S
C663 H656 0.950 . S
C663 C660 1.387 . S
C425 C45 1.683 . S
C430 C119 1.697 . S
C435 C30 1.681 . S
C440 C159 1.705 . S
C445 C39 1.683 . S
C450 C199 1.707 . S
C460 C239 1.705 . S
C455 C34 1.681 . S
C465 C97 1.680 . S
C470 C279 1.694 . S
C480 C319 1.708 . S
C475 C82 1.684 . S
C490 C359 1.707 . S
C485 C91 1.683 . S
C500 C399 1.705 . S
C495 C86 1.681 . S
C510 C365 1.672 . S
C505 C26 1.556 . S
C520 C405 1.695 . S
C515 C36 1.577 . S
C530 C266 1.562 . S
C525 C32 1.541 . S
C540 C325 1.692 . S
C535 C42 1.577 . S
C545 C18 1.594 . S
C550 C306 1.750 . S
C560 C346 1.771 . S
C555 C50 1.618 . S
C565 C4 1.594 . S
C570 C386 1.747 . S
C575 C48 1.631 . S
C580 C285 1.653 . S
C590 C205 1.672 . S
C585 C78 1.556 . S
C595 C88 1.577 . S
C600 C245 1.695 . S
C610 C106 1.565 . S
C605 C84 1.545 . S
C620 C165 1.690 . S
C615 C94 1.574 . S
C630 C146 1.750 . S
C625 C70 1.594 . S
C640 C186 1.771 . S
C635 C102 1.618 . S
C645 C56 1.597 . S
C650 C226 1.748 . S
C655 C100 1.631 . S
C660 C125 1.653 . S
