# Generated by pormake.
# Topology dag, (6,3)-cn, num edge types: 1
# Building blocks:
#     Node 0, Type 0, BuildingBlock: OJICUG_clean_sbu_0, # of connection points: 6
#     Node 1, Type 0, BuildingBlock: OJICUG_clean_sbu_0, # of connection points: 6
#     Node 2, Type 0, BuildingBlock: OJICUG_clean_sbu_0, # of connection points: 6
#     Node 3, Type 0, BuildingBlock: OJICUG_clean_sbu_0, # of connection points: 6
#     Node 4, Type 1, BuildingBlock: OLANEW_clean_sbu_2, # of connection points: 3
#     Node 5, Type 1, BuildingBlock: OLANEW_clean_sbu_2, # of connection points: 3
#     Node 6, Type 1, BuildingBlock: OLANEW_clean_sbu_2, # of connection points: 3
#     Node 7, Type 1, BuildingBlock: OLANEW_clean_sbu_2, # of connection points: 3
#     Node 8, Type 1, BuildingBlock: OLANEW_clean_sbu_2, # of connection points: 3
#     Node 9, Type 1, BuildingBlock: OLANEW_clean_sbu_2, # of connection points: 3
#     Node 10, Type 1, BuildingBlock: OLANEW_clean_sbu_2, # of connection points: 3
#     Node 11, Type 1, BuildingBlock: OLANEW_clean_sbu_2, # of connection points: 3
#     Edge 12, Type (0, 1), BuildingBlock: EZIPEK_clean_linker_0, # of connection points: 2
#     Edge 13, Type (0, 1), BuildingBlock: EZIPEK_clean_linker_0, # of connection points: 2
#     Edge 14, Type (0, 1), BuildingBlock: EZIPEK_clean_linker_0, # of connection points: 2
#     Edge 15, Type (0, 1), BuildingBlock: EZIPEK_clean_linker_0, # of connection points: 2
#     Edge 16, Type (0, 1), BuildingBlock: EZIPEK_clean_linker_0, # of connection points: 2
#     Edge 17, Type (0, 1), BuildingBlock: EZIPEK_clean_linker_0, # of connection points: 2
#     Edge 18, Type (0, 1), BuildingBlock: EZIPEK_clean_linker_0, # of connection points: 2
#     Edge 19, Type (0, 1), BuildingBlock: EZIPEK_clean_linker_0, # of connection points: 2
#     Edge 20, Type (0, 1), BuildingBlock: EZIPEK_clean_linker_0, # of connection points: 2
#     Edge 21, Type (0, 1), BuildingBlock: EZIPEK_clean_linker_0, # of connection points: 2
#     Edge 22, Type (0, 1), BuildingBlock: EZIPEK_clean_linker_0, # of connection points: 2
#     Edge 23, Type (0, 1), BuildingBlock: EZIPEK_clean_linker_0, # of connection points: 2
#     Edge 24, Type (0, 1), BuildingBlock: EZIPEK_clean_linker_0, # of connection points: 2
#     Edge 25, Type (0, 1), BuildingBlock: EZIPEK_clean_linker_0, # of connection points: 2
#     Edge 26, Type (0, 1), BuildingBlock: EZIPEK_clean_linker_0, # of connection points: 2
#     Edge 27, Type (0, 1), BuildingBlock: EZIPEK_clean_linker_0, # of connection points: 2
#     Edge 28, Type (0, 1), BuildingBlock: EZIPEK_clean_linker_0, # of connection points: 2
#     Edge 29, Type (0, 1), BuildingBlock: EZIPEK_clean_linker_0, # of connection points: 2
#     Edge 30, Type (0, 1), BuildingBlock: EZIPEK_clean_linker_0, # of connection points: 2
#     Edge 31, Type (0, 1), BuildingBlock: EZIPEK_clean_linker_0, # of connection points: 2
#     Edge 32, Type (0, 1), BuildingBlock: EZIPEK_clean_linker_0, # of connection points: 2
#     Edge 33, Type (0, 1), BuildingBlock: EZIPEK_clean_linker_0, # of connection points: 2
#     Edge 34, Type (0, 1), BuildingBlock: EZIPEK_clean_linker_0, # of connection points: 2
#     Edge 35, Type (0, 1), BuildingBlock: EZIPEK_clean_linker_0, # of connection points: 2
# Relax obj value: 0.128
# Max RMSD: 0.164
# Mean RMSD: 0.127
data_MOF--net-dag--node1-OJICUG_clean_sbu_0--node2-OLANEW_clean_sbu_2--edge1-EZIPEK_clean_linker_0
_symmetry_space_group_name_H-M    P1
_symmetry_Int_Tables_number       1
_symmetry_cell_setting            triclinic
loop_
_symmetry_equiv_pos_as_xyz
'x, y, z'
_cell_length_a     31.684405
_cell_length_b     29.117435
_cell_length_c     30.877983
_cell_angle_alpha  92.363531
_cell_angle_beta   94.28812
_cell_angle_gamma 91.33401
loop_
_atom_site_label
_atom_site_type_symbol
_atom_site_fract_x
_atom_site_fract_y
_atom_site_fract_z
_atom_type_partial_charge
Sc0 Sc 0.07841 0.89475 0.01545 0.0
Sc1 Sc 0.1152 0.7848 0.98739 0.0
Sc2 Sc 0.18838 0.87486 0.02029 0.0
O3 O 0.12729 0.85153 0.00763 0.0
C4 C 0.14651 0.9634 0.97919 0.0
C5 C 0.04837 0.83943 0.9268 0.0
C6 C 0.19559 0.81088 0.93539 0.0
C7 C 0.03863 0.8005 0.04668 0.0
C8 C 0.14125 0.91935 0.09962 0.0
C9 C 0.19245 0.774 0.05813 0.0
O10 O 0.10888 0.95244 0.98701 0.0
O11 O 0.07008 0.80409 0.93522 0.0
O12 O 0.20788 0.84579 0.95959 0.0
O13 O 0.03924 0.84396 0.04403 0.0
O14 O 0.17451 0.90616 0.08242 0.0
O15 O 0.15811 0.759 0.03792 0.0
O16 O 0.10435 0.91676 0.08001 0.0
O17 O 0.06533 0.77492 0.02974 0.0
O18 O 0.20762 0.81421 0.05371 0.0
O19 O 0.04886 0.87529 0.95195 0.0
O20 O 0.1779 0.93835 0.98835 0.0
O21 O 0.16385 0.78546 0.94223 0.0
Sc22 Sc 0.72877 0.62685 0.4841 0.0
Sc23 Sc 0.65741 0.71142 0.44782 0.0
Sc24 Sc 0.61863 0.60381 0.47677 0.0
O25 O 0.66827 0.64744 0.46978 0.0
C26 C 0.68524 0.53563 0.43843 0.0
C27 C 0.73372 0.6768 0.39417 0.0
C28 C 0.58257 0.65386 0.39266 0.0
C29 C 0.73791 0.73138 0.51644 0.0
C30 C 0.68036 0.58409 0.56024 0.0
C31 C 0.58703 0.70001 0.51503 0.0
O32 O 0.71764 0.5607 0.45061 0.0
O33 O 0.69981 0.69907 0.3972 0.0
O34 O 0.58554 0.61876 0.41568 0.0
O35 O 0.74784 0.68969 0.51946 0.0
O36 O 0.6443 0.5836 0.5393 0.0
O37 O 0.61259 0.726 0.49649 0.0
O38 O 0.71411 0.59874 0.54503 0.0
O39 O 0.70739 0.74444 0.49115 0.0
O40 O 0.58521 0.65647 0.5095 0.0
O41 O 0.74973 0.6529 0.42457 0.0
O42 O 0.64759 0.54706 0.44455 0.0
O43 O 0.60613 0.68955 0.40054 0.0
Sc44 Sc 0.84049 0.23952 0.01286 0.0
Sc45 Sc 0.77149 0.1462 0.97638 0.0
Sc46 Sc 0.88138 0.13364 0.9814 0.0
O47 O 0.83108 0.17328 0.99014 0.0
C48 C 0.91411 0.23027 0.94979 0.0
C49 C 0.76408 0.24502 0.93906 0.0
C50 C 0.82155 0.09659 0.90175 0.0
C51 C 0.76099 0.20951 0.06173 0.0
C52 C 0.91099 0.18738 0.06989 0.0
C53 C 0.81692 0.06519 0.02318 0.0
O54 O 0.88661 0.25461 0.96706 0.0
O55 O 0.75459 0.20222 0.93545 0.0
O56 O 0.85785 0.11136 0.91699 0.0
O57 O 0.79588 0.23161 0.06104 0.0
O58 O 0.91 0.15189 0.04466 0.0
O59 O 0.78407 0.08888 0.01661 0.0
O60 O 0.88959 0.22294 0.06208 0.0
O61 O 0.7467 0.1808 0.03181 0.0
O62 O 0.85267 0.07555 0.00971 0.0
O63 O 0.79221 0.26282 0.96669 0.0
O64 O 0.91627 0.18715 0.95341 0.0
O65 O 0.78788 0.10488 0.92034 0.0
Sc66 Sc 0.36445 0.36348 0.55129 0.0
Sc67 Sc 0.25927 0.32798 0.56436 0.0
Sc68 Sc 0.34427 0.25275 0.587 0.0
O69 O 0.32256 0.31472 0.56749 0.0
C70 C 0.40585 0.27273 0.51322 0.0
C71 C 0.28846 0.37273 0.47838 0.0
C72 C 0.26057 0.22325 0.52788 0.0
C73 C 0.29862 0.42601 0.5987 0.0
C74 C 0.4125 0.32344 0.63519 0.0
C75 C 0.27302 0.27407 0.65228 0.0
O76 O 0.4004 0.3158 0.51486 0.0
O77 O 0.25975 0.35527 0.49991 0.0
O78 O 0.29729 0.21522 0.54483 0.0
O79 O 0.33488 0.41792 0.58573 0.0
O80 O 0.39409 0.284 0.63137 0.0
O81 O 0.25304 0.30288 0.62904 0.0
O82 O 0.40501 0.35512 0.60886 0.0
O83 O 0.26771 0.39711 0.59357 0.0
O84 O 0.305 0.25285 0.64044 0.0
O85 O 0.32717 0.37679 0.49247 0.0
O86 O 0.38675 0.24498 0.53614 0.0
O87 O 0.24251 0.26146 0.53304 0.0
O88 O 0.16237 0.96688 0.30904 0.0
Cd89 Cd 0.14905 0.98774 0.38458 0.0
O90 O 0.12415 0.02468 0.28767 0.0
Cd91 Cd 0.08951 0.06372 0.23851 0.0
O92 O 0.04768 0.10145 0.19421 0.0
C93 C 0.02483 0.13329 0.20822 0.0
O94 O 0.0273 0.14498 0.24989 0.0
C95 C 0.14482 0.98917 0.2784 0.0
C96 C 0.18505 0.06883 0.42363 0.0
O97 O 0.20413 0.03066 0.427 0.0
O98 O 0.14991 0.06927 0.40022 0.0
O99 O 0.28815 0.63822 0.68452 0.0
Cd100 Cd 0.30788 0.71858 0.70461 0.0
O101 O 0.34833 0.62891 0.65412 0.0
Cd102 Cd 0.37635 0.69815 0.66514 0.0
O103 O 0.42497 0.73506 0.63271 0.0
C104 C 0.46041 0.71547 0.63329 0.0
O105 O 0.46655 0.67978 0.65741 0.0
C106 C 0.31294 0.61285 0.66429 0.0
C107 C 0.27504 0.75017 0.78125 0.0
O108 O 0.25314 0.75098 0.74468 0.0
O109 O 0.31249 0.73438 0.78172 0.0
O110 O 0.88868 0.6706 0.1194 0.0
Cd111 Cd 0.81503 0.65812 0.13535 0.0
O112 O 0.86993 0.73982 0.13812 0.0
Cd113 Cd 0.87736 0.81378 0.13689 0.0
O114 O 0.86678 0.88198 0.11381 0.0
C115 C 0.82959 0.89735 0.11296 0.0
O116 O 0.79906 0.87306 0.12831 0.0
C117 C 0.89694 0.71352 0.12266 0.0
C118 C 0.79718 0.6685 0.22243 0.0
O119 O 0.79473 0.6291 0.20219 0.0
O120 O 0.80957 0.70295 0.2018 0.0
O121 O 0.69274 0.50677 0.75936 0.0
Cd122 Cd 0.67251 0.48703 0.831 0.0
O123 O 0.62527 0.51132 0.73746 0.0
Cd124 Cd 0.60185 0.47225 0.78989 0.0
O125 O 0.56205 0.41051 0.77707 0.0
C126 C 0.52584 0.41842 0.75891 0.0
O127 O 0.5146 0.46123 0.75481 0.0
C128 C 0.66406 0.51724 0.7308 0.0
C129 C 0.69559 0.40001 0.855 0.0
O130 O 0.72107 0.4347 0.8626 0.0
O131 O 0.65935 0.40598 0.83499 0.0
O132 O 0.67218 0.33775 0.32608 0.0
Cd133 Cd 0.64922 0.26012 0.30097 0.0
O134 O 0.65624 0.32585 0.3929 0.0
Cd135 Cd 0.62861 0.25712 0.37905 0.0
O136 O 0.56993 0.22656 0.39823 0.0
C137 C 0.54716 0.2576 0.41372 0.0
O138 O 0.56005 0.30079 0.41345 0.0
C139 C 0.67026 0.35221 0.36522 0.0
C140 C 0.67961 0.24097 0.22062 0.0
O141 O 0.64308 0.25838 0.22328 0.0
O142 O 0.70123 0.23165 0.25576 0.0
O143 O 0.26074 0.12482 0.92655 0.0
Cd144 Cd 0.30072 0.19389 0.91025 0.0
O145 O 0.20631 0.15951 0.89648 0.0
Cd146 Cd 0.13952 0.16895 0.8797 0.0
O147 O 0.07616 0.19463 0.88353 0.0
C148 C 0.06834 0.237 0.88039 0.0
O149 O 0.09848 0.26631 0.87199 0.0
C150 C 0.2213 0.12524 0.91595 0.0
C151 C 0.27644 0.22573 0.82854 0.0
O152 O 0.30635 0.19717 0.83386 0.0
O153 O 0.25718 0.23896 0.8617 0.0
O154 O 0.40796 0.63377 0.25994 0.0
Cd155 Cd 0.34023 0.60093 0.22719 0.0
O156 O 0.42051 0.57057 0.29529 0.0
Cd157 Cd 0.36009 0.53376 0.27847 0.0
O158 O 0.31685 0.48247 0.3023 0.0
C159 C 0.31666 0.48433 0.34346 0.0
O160 O 0.33822 0.51763 0.36577 0.0
C161 C 0.43192 0.61068 0.28532 0.0
C162 C 0.29244 0.65883 0.17382 0.0
O163 O 0.32174 0.63458 0.15882 0.0
O164 O 0.28616 0.65651 0.21421 0.0
O165 O 0.94283 0.88224 0.74835 0.0
Cd166 Cd 0.90788 0.91014 0.67936 0.0
O167 O 0.8947 0.83382 0.76893 0.0
Cd168 Cd 0.84932 0.87159 0.7293 0.0
O169 O 0.8315 0.94291 0.73942 0.0
C170 C 0.80906 0.94912 0.77139 0.0
O171 O 0.79337 0.91287 0.78911 0.0
C172 C 0.93157 0.85218 0.77435 0.0
C173 C 0.85154 0.85325 0.62531 0.0
O174 O 0.89162 0.84785 0.626 0.0
O175 O 0.83784 0.88505 0.65001 0.0
C176 C 0.16205 0.98144 0.15708 0.0
C177 C 0.14518 0.93658 0.1457 0.0
C178 C 0.12641 0.92753 0.22048 0.0
C179 C 0.14529 0.97135 0.23265 0.0
N180 N 0.18671 0.03735 0.21458 0.0
N181 N 0.12064 0.86303 0.16815 0.0
C182 C 0.16462 -0.00231 0.20146 0.0
C183 C 0.13013 0.90848 0.17791 0.0
N184 N 0.17481 0.00878 0.12532 0.0
N185 N 0.10302 0.905 0.24889 0.0
H186 H 0.12299 0.84786 0.13725 0.0
H187 H 0.11414 0.83952 0.19144 0.0
H188 H 0.09862 0.91803 0.28014 0.0
H189 H 0.08462 0.8755 0.2401 0.0
H190 H 0.18245 0.04365 0.13034 0.0
H191 H 0.17562 -0.00297 0.09305 0.0
H192 H 0.20522 0.05577 0.1945 0.0
H193 H 0.18925 0.05017 0.24674 0.0
C194 C 0.56548 0.73478 0.5857 0.0
C195 C 0.55468 0.72012 0.54188 0.0
C196 C 0.47988 0.71285 0.55601 0.0
C197 C 0.49082 0.7253 0.6005 0.0
N198 N 0.54101 0.75904 0.65568 0.0
N199 N 0.50175 0.70864 0.48239 0.0
C200 C 0.53275 0.74008 0.61462 0.0
C201 C 0.51173 0.7141 0.52612 0.0
N202 N 0.60708 0.7412 0.6 0.0
N203 N 0.44005 0.69617 0.54284 0.0
H204 H 0.52492 0.70856 0.46017 0.0
H205 H 0.47092 0.70855 0.46807 0.0
H206 H 0.4155 0.69425 0.56336 0.0
H207 H 0.4319 0.68108 0.51211 0.0
H208 H 0.61784 0.74638 0.63255 0.0
H209 H 0.63113 0.73976 0.5788 0.0
H210 H 0.57012 0.77388 0.66716 0.0
H211 H 0.51737 0.76339 0.67719 0.0
C212 C 0.83206 0.02478 0.09183 0.0
C213 C 0.81422 0.02355 0.04829 0.0
C214 C 0.79862 0.94104 0.0508 0.0
C215 C 0.82068 0.94134 0.09259 0.0
N216 N 0.85918 0.98202 0.15329 0.0
N217 N 0.78329 0.98145 0.98445 0.0
C218 C 0.8374 0.98291 0.11337 0.0
C219 C 0.79768 0.98204 0.0274 0.0
N220 N 0.84338 0.06618 0.11255 0.0
N221 N 0.77901 0.90144 0.03334 0.0
H222 H 0.78132 0.01103 0.96653 0.0
H223 H 0.77576 0.95151 0.96563 0.0
H224 H 0.78085 0.87007 0.04835 0.0
H225 H 0.75852 0.90008 0.00533 0.0
H226 H 0.85265 0.07026 0.14554 0.0
H227 H 0.84063 0.09737 0.09726 0.0
H228 H 0.87661 0.00989 0.16807 0.0
H229 H 0.86142 0.95243 0.17117 0.0
C230 C 0.4869 0.34568 0.65906 0.0
C231 C 0.44582 0.33368 0.67069 0.0
C232 C 0.46485 0.3624 0.74556 0.0
C233 C 0.50241 0.38219 0.73147 0.0
N234 N 0.55065 0.39258 0.67552 0.0
N235 N 0.39574 0.32669 0.72523 0.0
C236 C 0.51436 0.37293 0.68865 0.0
C237 C 0.43508 0.33991 0.71434 0.0
N238 N 0.49933 0.33098 0.61947 0.0
N239 N 0.45783 0.36558 0.7887 0.0
H240 H 0.37387 0.3088 0.70353 0.0
H241 H 0.38409 0.33451 0.7552 0.0
H242 H 0.47939 0.38202 0.81185 0.0
H243 H 0.43277 0.34906 0.80215 0.0
H244 H 0.53013 0.33471 0.61029 0.0
H245 H 0.47949 0.31117 0.59717 0.0
H246 H 0.55838 0.39211 0.64333 0.0
H247 H 0.57229 0.41167 0.69654 0.0
C248 C 0.71037 0.45415 0.43782 0.0
C249 C 0.69097 0.49077 0.41563 0.0
C250 C 0.66279 0.43752 0.35679 0.0
C251 C 0.68199 0.40054 0.37886 0.0
N252 N 0.73432 0.37573 0.43305 0.0
N253 N 0.66314 0.5197 0.34788 0.0
C254 C 0.70916 0.40958 0.41709 0.0
C255 C 0.67196 0.48316 0.37301 0.0
N256 N 0.72815 0.46131 0.47931 0.0
N257 N 0.63335 0.42939 0.32249 0.0
H258 H 0.67066 0.55347 0.35889 0.0
H259 H 0.65318 0.51607 0.31495 0.0
H260 H 0.62385 0.39663 0.31024 0.0
H261 H 0.61531 0.45528 0.30872 0.0
H262 H 0.73784 0.43473 0.499 0.0
H263 H 0.73098 0.49367 0.49511 0.0
H264 H 0.75755 0.38134 0.45854 0.0
H265 H 0.73496 0.34311 0.41781 0.0
C266 C 0.98148 0.27549 0.94962 0.0
C267 C 0.94715 0.25197 0.92564 0.0
C268 C 0.99052 0.23977 0.86411 0.0
C269 C 0.02666 0.25306 0.89187 0.0
N270 N 0.05768 0.28665 0.95996 0.0
N271 N 0.91571 0.21791 0.85839 0.0
C272 C 0.02241 0.2732 0.9339 0.0
C273 C 0.9505 0.237 0.88184 0.0
N274 N 0.97508 0.29854 0.98791 0.0
N275 N -0.00499 0.22914 0.82122 0.0
H276 H 0.88578 0.21774 0.87045 0.0
H277 H 0.91643 0.20156 0.82787 0.0
H278 H 0.02432 0.2314 0.80795 0.0
H279 H 0.96979 0.22179 0.79825 0.0
H280 H -0.00193 0.31938 0.00537 0.0
H281 H 0.94541 0.30034 0.00022 0.0
H282 H 0.05726 0.29587 0.99285 0.0
H283 H 0.08807 0.28656 0.94917 0.0
C284 C 0.29706 0.37327 0.39949 0.0
C285 C 0.2774 0.392 0.43548 0.0
C286 C 0.26562 0.46309 0.39729 0.0
C287 C 0.29498 0.44867 0.36735 0.0
N288 N 0.33721 0.38847 0.33781 0.0
N289 N 0.23635 0.45163 0.46668 0.0
C290 C 0.30928 0.40276 0.36687 0.0
C291 C 0.25861 0.4356 0.43327 0.0
N292 N 0.3044 0.32729 0.39727 0.0
N293 N 0.24503 0.5033 0.39122 0.0
H294 H 0.22918 0.43133 0.49232 0.0
H295 H 0.22619 0.48524 0.4699 0.0
H296 H 0.24959 0.5234 0.36465 0.0
H297 H 0.221 0.51462 0.4099 0.0
H298 H 0.31519 0.31029 0.37005 0.0
H299 H 0.29516 0.30563 0.4212 0.0
H300 H 0.35273 0.35739 0.33966 0.0
H301 H 0.3467 0.40862 0.31302 0.0
C302 C 0.033 0.83387 0.84526 0.0
C303 C 0.01821 0.8377 0.88749 0.0
C304 C 0.94595 0.84857 0.85583 0.0
C305 C 0.96023 0.84258 0.81333 0.0
N306 N 0.01526 0.81879 0.76809 0.0
N307 N 0.95936 0.837 0.93276 0.0
C308 C 0.0032 0.83198 0.80823 0.0
C309 C 0.97429 0.84138 0.89265 0.0
N310 N 0.07553 0.83407 0.84042 0.0
N311 N 0.90619 0.86391 0.86157 0.0
H312 H 0.97898 0.83208 0.96073 0.0
H313 H 0.92726 0.83383 0.93763 0.0
H314 H 0.88378 0.8699 0.83623 0.0
H315 H 0.8965 0.87476 0.89175 0.0
H316 H 0.08838 0.83666 0.81051 0.0
H317 H 0.09826 0.83536 0.86671 0.0
H318 H 0.04512 0.80641 0.76288 0.0
H319 H -0.00597 0.81579 0.74056 0.0
C320 C 0.84755 0.02413 0.86775 0.0
C321 C 0.81978 0.06177 0.86512 0.0
C322 C 0.78531 0.02696 0.79731 0.0
C323 C 0.81552 0.99183 0.79877 0.0
N324 N 0.88311 0.96564 0.82796 0.0
N325 N 0.76758 0.10366 0.82289 0.0
C326 C 0.84934 -0.00645 0.83137 0.0
C327 C 0.79013 0.06466 0.82848 0.0
N328 N 0.86971 0.01496 0.90602 0.0
N329 N 0.75181 0.02385 0.76676 0.0
H330 H 0.77125 0.13219 0.84453 0.0
H331 H 0.74823 0.1093 0.79496 0.0
H332 H 0.74865 -0.0024 0.74258 0.0
H333 H 0.72625 0.0457 0.76689 0.0
H334 H 0.88696 0.98519 0.91017 0.0
H335 H 0.86671 0.03351 0.9351 0.0
H336 H 0.91034 0.96879 0.84915 0.0
H337 H 0.88589 0.94287 0.80146 0.0
C338 C 0.43285 0.26372 0.43969 0.0
C339 C 0.43779 0.25509 0.48455 0.0
C340 C 0.50976 0.22875 0.47593 0.0
C341 C 0.50752 0.24661 0.43385 0.0
N342 N 0.46701 0.27832 0.37369 0.0
N343 N 0.48075 0.22884 0.54628 0.0
C344 C 0.46881 0.26266 0.41489 0.0
C345 C 0.4758 0.23625 0.50276 0.0
N346 N 0.39358 0.27244 0.421 0.0
N347 N 0.54471 0.20565 0.49056 0.0
H348 H 0.45672 0.23305 0.5672 0.0
H349 H 0.50958 0.22127 0.56249 0.0
H350 H 0.57061 0.20063 0.47217 0.0
H351 H 0.54653 0.18782 0.51916 0.0
H352 H 0.38692 0.27525 0.38772 0.0
H353 H 0.36677 0.27242 0.43866 0.0
H354 H 0.44147 0.29581 0.35979 0.0
H355 H 0.49213 0.27517 0.35381 0.0
C356 C 0.16909 0.00638 0.9162 0.0
C357 C 0.15506 0.00758 0.95867 0.0
C358 C 0.17224 0.09031 0.96631 0.0
C359 C 0.19354 0.08671 0.92753 0.0
N360 N 0.2119 0.04229 0.86441 0.0
N361 N 0.14046 0.05057 0.02395 0.0
C362 C 0.19149 0.04509 0.90187 0.0
C363 C 0.15507 0.04977 0.9834 0.0
N364 N 0.15967 0.96857 0.8893 0.0
N365 N 0.16864 0.13245 0.98671 0.0
H366 H 0.12563 0.02217 0.03638 0.0
H367 H 0.14442 0.0786 0.04603 0.0
H368 H 0.18152 0.16254 0.97532 0.0
H369 H 0.15019 0.13832 0.01279 0.0
H370 H 0.16591 0.96653 0.85666 0.0
H371 H 0.14124 0.94107 0.89871 0.0
H372 H 0.21588 0.01155 0.84693 0.0
H373 H 0.22677 0.07065 0.85187 0.0
C374 C 0.54806 0.61479 0.32459 0.0
C375 C 0.54937 0.65227 0.35557 0.0
C376 C 0.47554 0.66895 0.33339 0.0
C377 C 0.47346 0.62981 0.30426 0.0
N378 N 0.51011 0.57371 0.26286 0.0
N379 N 0.51991 0.72506 0.37651 0.0
C380 C 0.51063 0.60536 0.29688 0.0
C381 C 0.51504 0.68283 0.3556 0.0
N382 N 0.58269 0.58806 0.32213 0.0
N383 N 0.43938 0.69099 0.34239 0.0
H384 H 0.54826 0.73707 0.39264 0.0
H385 H 0.4971 0.7502 0.37398 0.0
H386 H 0.40973 0.68217 0.32704 0.0
H387 H 0.43822 0.71575 0.36758 0.0
H388 H 0.58251 0.55671 0.30466 0.0
H389 H 0.61173 0.59734 0.33867 0.0
H390 H 0.53684 0.55713 0.25328 0.0
H391 H 0.4833 0.56698 0.24159 0.0
C392 C 0.28553 0.4841 0.65897 0.0
C393 C 0.29157 0.47396 0.61455 0.0
C394 C 0.29673 0.55651 0.60214 0.0
C395 C 0.29942 0.56586 0.64767 0.0
N396 N 0.29729 0.53901 0.7203 0.0
N397 N 0.30235 0.50047 0.54297 0.0
C398 C 0.29334 0.52989 0.6764 0.0
C399 C 0.29658 0.51025 0.58579 0.0
N400 N 0.2723 0.45012 0.68432 0.0
N401 N 0.29339 0.59202 0.57454 0.0
H402 H 0.2999 0.46723 0.52902 0.0
H403 H 0.31169 0.52494 0.52171 0.0
H404 H 0.29251 0.62633 0.58557 0.0
H405 H 0.28716 0.58742 0.54103 0.0
H406 H 0.26415 0.45591 0.7161 0.0
H407 H 0.26507 0.41689 0.67188 0.0
H408 H 0.29815 0.51354 0.74302 0.0
H409 H 0.30252 0.57213 0.73412 0.0
C410 C 0.97367 0.74885 0.04006 0.0
C411 C 0.00271 0.77789 0.06661 0.0
C412 C 0.96512 0.75978 0.13084 0.0
C413 C 0.93451 0.73358 0.10378 0.0
N414 N 0.90472 0.7105 0.03174 0.0
N415 N 0.02298 0.81623 0.13606 0.0
C416 C 0.9376 0.72977 0.05818 0.0
C417 C -0.00258 0.78502 0.11167 0.0
N418 N 0.98018 0.73975 0.99727 0.0
N419 N 0.96406 0.75925 0.17502 0.0
H420 H 0.04776 0.83416 0.12351 0.0
H421 H 0.01786 0.82687 0.16779 0.0
H422 H 0.94098 0.74094 0.19008 0.0
H423 H 0.98786 0.7736 0.19683 0.0
H424 H 0.96368 0.71397 0.97815 0.0
H425 H 0.00363 0.75603 0.98111 0.0
H426 H 0.90264 0.71192 -0.00199 0.0
H427 H 0.87738 0.69657 0.04338 0.0
C428 C 0.69245 0.5953 0.64144 0.0
C429 C 0.68268 0.56554 0.60425 0.0
C430 C 0.66555 0.50251 0.65071 0.0
C431 C 0.67507 0.53237 0.68786 0.0
N432 N 0.70532 0.60368 0.71992 0.0
N433 N 0.6685 0.48906 0.57293 0.0
C434 C 0.69134 0.57759 0.68362 0.0
C435 C 0.6718 0.51853 0.60877 0.0
N436 N 0.70019 0.64107 0.6364 0.0
N437 N 0.64981 0.45903 0.65561 0.0
H438 H 0.67252 0.49976 0.54167 0.0
H439 H 0.66511 0.45353 0.57427 0.0
H440 H 0.64807 0.44472 0.68587 0.0
H441 H 0.6368 0.43764 0.62997 0.0
H442 H 0.70249 0.66572 0.6619 0.0
H443 H 0.70149 0.6551 0.60605 0.0
H444 H 0.72168 0.635 0.71899 0.0
H445 H 0.7034 0.59246 0.75136 0.0
C446 C 0.98345 0.19239 0.10737 0.0
C447 C 0.93924 0.18628 0.10992 0.0
C448 C 0.95072 0.15118 0.18027 0.0
C449 C -0.00487 0.15631 0.17739 0.0
N450 N 0.0536 0.192 0.14472 0.0
N451 N 0.8802 0.1717 0.15247 0.0
C452 C 0.01145 0.18028 0.14294 0.0
C453 C 0.92272 0.1699 0.14787 0.0
N454 N -0.00145 0.20817 0.07024 0.0
N455 N 0.9353 0.12567 0.21208 0.0
H456 H 0.85902 0.18475 0.12883 0.0
H457 H 0.86645 0.16413 0.18101 0.0
H458 H 0.95463 0.11099 0.23628 0.0
H459 H 0.9035 0.11609 0.21276 0.0
H460 H 0.03037 0.20811 0.06395 0.0
H461 H 0.97871 0.21959 0.0446 0.0
H462 H 0.06695 0.213 0.12263 0.0
H463 H 0.07477 0.18407 0.17071 0.0
C464 C 0.22543 0.69774 0.07498 0.0
C465 C 0.21617 0.74349 0.08847 0.0
C466 C 0.26013 0.7349 0.1565 0.0
C467 C 0.26577 0.68791 0.14484 0.0
N468 N 0.24442 0.62194 0.0976 0.0
N469 N 0.21617 0.80105 0.14724 0.0
C470 C 0.24573 0.66853 0.10539 0.0
C471 C 0.23103 0.76077 0.13078 0.0
N472 N 0.21671 0.68249 0.03273 0.0
N473 N 0.28385 0.7556 0.19098 0.0
H474 H 0.19361 0.82025 0.13027 0.0
H475 H 0.22273 0.81273 0.17945 0.0
H476 H 0.30663 0.73846 0.20984 0.0
H477 H 0.28403 0.79092 0.19803 0.0
H478 H 0.22735 0.65135 0.02039 0.0
H479 H 0.20256 0.7025 0.00884 0.0
H480 H 0.22643 0.60579 0.07143 0.0
H481 H 0.25739 0.59901 0.11966 0.0
C482 C 0.79601 0.79203 0.52435 0.0
C483 C 0.76423 0.76616 0.54332 0.0
C484 C 0.79143 0.79515 0.61596 0.0
C485 C 0.82156 0.82331 0.59696 0.0
N486 N 0.84762 0.85524 0.53288 0.0
N487 N 0.72604 0.74997 0.60561 0.0
C488 C 0.82251 0.82364 0.55104 0.0
C489 C 0.76024 0.76989 0.5887 0.0
N490 N 0.8018 0.78526 0.48114 0.0
N491 N 0.79393 0.79063 0.65996 0.0
H492 H 0.70277 0.73132 0.58626 0.0
H493 H 0.71875 0.7554 0.63772 0.0
H494 H 0.81707 0.80749 0.68098 0.0
H495 H 0.77572 0.76686 0.67526 0.0
H496 H 0.82753 0.79895 0.46644 0.0
H497 H 0.78239 0.76325 0.46038 0.0
H498 H 0.84635 0.8605 0.49966 0.0
H499 H 0.86727 0.87908 0.55131 0.0
C500 C 0.73278 0.18019 0.12928 0.0
C501 C 0.73663 0.21635 0.10028 0.0
C502 C 0.70313 0.26906 0.15023 0.0
C503 C 0.69693 0.23217 0.178 0.0
N504 N 0.69697 0.15068 0.1893 0.0
N505 N 0.71768 0.292 0.07812 0.0
C506 C 0.70913 0.1871 0.16613 0.0
C507 C 0.71935 0.25985 0.10921 0.0
N508 N 0.75326 0.13995 0.12272 0.0
N509 N 0.69576 0.31321 0.16393 0.0
H510 H 0.72916 0.28624 0.0476 0.0
H511 H 0.70146 0.32255 0.08101 0.0
H512 H 0.68469 0.32174 0.1941 0.0
H513 H 0.7042 0.34184 0.14704 0.0
H514 H 0.75573 0.11457 0.14551 0.0
H515 H 0.77085 0.13342 0.09605 0.0
H516 H 0.70122 0.11654 0.17954 0.0
H517 H 0.67885 0.1543 0.21603 0.0
C518 C 0.27617 0.29993 0.73083 0.0
C519 C 0.2619 0.26713 0.69731 0.0
C520 C 0.24811 0.21037 0.75135 0.0
C521 C 0.26463 0.2423 0.78466 0.0
N522 N 0.28423 0.32047 0.80806 0.0
N523 N 0.22518 0.19606 0.67494 0.0
C524 C 0.27476 0.28832 0.77503 0.0
C525 C 0.24471 0.2239 0.70749 0.0
N526 N 0.29413 0.34074 0.7203 0.0
N527 N 0.23673 0.16682 0.76176 0.0
H528 H 0.22235 0.20568 0.64272 0.0
H529 H 0.20894 0.1655 0.67993 0.0
H530 H 0.23605 0.15695 0.79382 0.0
H531 H 0.22912 0.14005 0.73897 0.0
H532 H 0.30892 0.36456 0.74286 0.0
H533 H 0.29707 0.34959 0.6883 0.0
H534 H 0.28763 0.35552 0.80339 0.0
H535 H 0.28549 0.31278 0.84077 0.0
C536 C 0.77058 0.63523 0.33448 0.0
C537 C 0.7541 0.67645 0.35213 0.0
C538 C 0.76395 0.71296 0.28345 0.0
C539 C 0.78529 0.67361 0.2682 0.0
N540 N 0.82189 0.60461 0.28806 0.0
N541 N 0.74883 0.75884 0.34716 0.0
C542 C 0.79286 0.63709 0.29654 0.0
C543 C 0.7552 0.71678 0.32788 0.0
N544 N 0.76276 0.59363 0.35156 0.0
N545 N 0.7493 0.74529 0.25565 0.0
H546 H 0.74498 0.76348 0.38029 0.0
H547 H 0.75265 0.78942 0.33128 0.0
H548 H 0.75095 0.74238 0.22213 0.0
H549 H 0.73059 0.77224 0.26546 0.0
H550 H 0.77163 0.56272 0.337 0.0
H551 H 0.74276 0.58913 0.37632 0.0
H552 H 0.8302 0.57927 0.30982 0.0
H553 H 0.84145 0.60665 0.26246 0.0
C554 C 0.76153 0.2955 0.87564 0.0
C555 C 0.74109 0.27684 0.91048 0.0
C556 C 0.68671 0.33503 0.90465 0.0
C557 C 0.70771 0.35444 0.8704 0.0
N558 N 0.75822 0.34759 0.81613 0.0
N559 N 0.67991 0.27106 0.95193 0.0
C560 C 0.74301 0.33281 0.85358 0.0
C561 C 0.70198 0.29389 0.92265 0.0
N562 N 0.79932 0.27839 0.86471 0.0
N563 N 0.65405 0.35756 0.92195 0.0
H564 H 0.69089 0.24148 0.96651 0.0
H565 H 0.64928 0.279 0.9591 0.0
H566 H 0.64175 0.3877 0.90971 0.0
H567 H 0.64083 0.34827 0.95028 0.0
H568 H 0.81861 0.29386 0.84335 0.0
H569 H 0.81237 0.24938 0.87864 0.0
H570 H 0.78147 0.33086 0.7999 0.0
H571 H 0.74487 0.37456 0.79906 0.0
C572 C 0.20064 0.16555 0.51069 0.0
C573 C 0.23876 0.18664 0.49904 0.0
C574 C 0.24099 0.13142 0.43696 0.0
C575 C 0.20238 0.11093 0.44801 0.0
N576 N 0.14198 0.11181 0.49135 0.0
N577 N 0.29034 0.19673 0.44642 0.0
C578 C 0.18099 0.12928 0.48346 0.0
C579 C 0.25761 0.17152 0.46083 0.0
N580 N 0.18443 0.17855 0.54902 0.0
N581 N 0.26194 0.11233 0.40379 0.0
H582 H 0.30275 0.22677 0.46261 0.0
H583 H 0.30279 0.19049 0.41655 0.0
H584 H 0.24942 0.08496 0.38362 0.0
H585 H 0.2927 0.12192 0.3976 0.0
H586 H 0.16003 0.16078 0.5624 0.0
H587 H 0.19716 0.20572 0.56922 0.0
H588 H 0.1224 0.12728 0.51297 0.0
H589 H 0.12771 0.08314 0.47441 0.0
C590 C 0.24292 0.75729 0.89788 0.0
C591 C 0.21961 0.7982 0.89753 0.0
C592 C 0.23954 0.8116 0.82389 0.0
C593 C 0.25737 0.76729 0.82191 0.0
N594 N 0.26943 0.69442 0.85506 0.0
N595 N 0.19073 0.86155 0.85832 0.0
C596 C 0.25756 0.73919 0.85848 0.0
C597 C 0.21665 0.82476 0.86005 0.0
N598 N 0.25187 0.7363 0.93613 0.0
N599 N 0.24584 0.84183 0.79214 0.0
H600 H 0.17362 0.87208 0.88431 0.0
H601 H 0.1835 0.87902 0.83005 0.0
H602 H 0.2638 0.8342 0.76593 0.0
H603 H 0.23705 0.87606 0.79416 0.0
H604 H 0.27207 0.7087 0.93915 0.0
H605 H 0.24274 0.74974 0.96574 0.0
H606 H 0.26594 0.67124 0.87944 0.0
H607 H 0.27873 0.67899 0.82637 0.0
loop_
_geom_bond_atom_site_label_1
_geom_bond_atom_site_label_2
_geom_bond_distance
_geom_bond_site_symmetry_2
_ccdc_geom_bond_type
Sc0 O3 2.025 . S
Sc0 O10 2.105 1_554 S
Sc0 O13 2.105 . S
Sc0 O16 2.105 . S
Sc0 O19 2.105 1_554 S
Sc1 O3 2.025 1_556 S
Sc1 O11 2.105 . S
Sc1 O15 2.105 1_556 S
Sc1 O17 2.105 1_556 S
Sc1 O21 2.105 . S
Sc2 O3 2.025 . S
Sc2 O12 2.105 1_554 S
Sc2 O14 2.105 . S
Sc2 O18 2.105 . S
Sc2 O20 2.105 1_554 S
O3 Sc0 2.025 . S
O3 Sc1 2.025 1_554 S
O3 Sc2 2.025 . S
C4 O10 1.268 . S
C4 O20 1.268 . S
C5 O11 1.268 . S
C5 O19 1.268 . S
C6 O12 1.268 . S
C6 O21 1.268 . S
C7 O13 1.268 . S
C7 O17 1.268 . S
C8 O14 1.268 . S
C8 O16 1.268 . S
C9 O15 1.268 . S
C9 O18 1.268 . S
O10 Sc0 2.105 1_556 S
O10 C4 1.268 . S
O11 Sc1 2.105 . S
O11 C5 1.268 . S
O12 Sc2 2.105 1_556 S
O12 C6 1.268 . S
O13 Sc0 2.105 . S
O13 C7 1.268 . S
O14 Sc2 2.105 . S
O14 C8 1.268 . S
O15 Sc1 2.105 1_554 S
O15 C9 1.268 . S
O16 Sc0 2.105 . S
O16 C8 1.268 . S
O17 Sc1 2.105 1_554 S
O17 C7 1.268 . S
O18 Sc2 2.105 . S
O18 C9 1.268 . S
O19 Sc0 2.105 1_556 S
O19 C5 1.268 . S
O20 Sc2 2.105 1_556 S
O20 C4 1.268 . S
O21 Sc1 2.105 . S
O21 C6 1.268 . S
Sc22 O25 2.025 . S
Sc22 O32 2.105 . S
Sc22 O35 2.105 . S
Sc22 O38 2.105 . S
Sc22 O41 2.105 . S
Sc23 O25 2.025 . S
Sc23 O33 2.105 . S
Sc23 O37 2.105 . S
Sc23 O39 2.105 . S
Sc23 O43 2.105 . S
Sc24 O25 2.025 . S
Sc24 O34 2.105 . S
Sc24 O36 2.105 . S
Sc24 O40 2.105 . S
Sc24 O42 2.105 . S
O25 Sc22 2.025 . S
O25 Sc23 2.025 . S
O25 Sc24 2.025 . S
C26 O32 1.268 . S
C26 O42 1.268 . S
C27 O33 1.268 . S
C27 O41 1.268 . S
C28 O34 1.268 . S
C28 O43 1.268 . S
C29 O35 1.268 . S
C29 O39 1.268 . S
C30 O36 1.268 . S
C30 O38 1.268 . S
C31 O37 1.268 . S
C31 O40 1.268 . S
O32 Sc22 2.105 . S
O32 C26 1.268 . S
O33 Sc23 2.105 . S
O33 C27 1.268 . S
O34 Sc24 2.105 . S
O34 C28 1.268 . S
O35 Sc22 2.105 . S
O35 C29 1.268 . S
O36 Sc24 2.105 . S
O36 C30 1.268 . S
O37 Sc23 2.105 . S
O37 C31 1.268 . S
O38 Sc22 2.105 . S
O38 C30 1.268 . S
O39 Sc23 2.105 . S
O39 C29 1.268 . S
O40 Sc24 2.105 . S
O40 C31 1.268 . S
O41 Sc22 2.105 . S
O41 C27 1.268 . S
O42 Sc24 2.105 . S
O42 C26 1.268 . S
O43 Sc23 2.105 . S
O43 C28 1.268 . S
Sc44 O47 2.025 . S
Sc44 O54 2.105 . S
Sc44 O57 2.105 . S
Sc44 O60 2.105 . S
Sc44 O63 2.105 1_554 S
Sc45 O47 2.025 . S
Sc45 O55 2.105 1_554 S
Sc45 O59 2.105 . S
Sc45 O61 2.105 . S
Sc45 O65 2.105 1_554 S
Sc46 O47 2.025 . S
Sc46 O56 2.105 1_554 S
Sc46 O58 2.105 . S
Sc46 O62 2.105 . S
Sc46 O64 2.105 1_554 S
O47 Sc44 2.025 . S
O47 Sc45 2.025 . S
O47 Sc46 2.025 . S
C48 O54 1.268 1_556 S
C48 O64 1.268 . S
C49 O55 1.268 . S
C49 O63 1.268 . S
C50 O56 1.268 . S
C50 O65 1.268 . S
C51 O57 1.268 . S
C51 O61 1.268 . S
C52 O58 1.268 . S
C52 O60 1.268 . S
C53 O59 1.268 . S
C53 O62 1.268 . S
O54 Sc44 2.105 . S
O54 C48 1.268 1_554 S
O55 Sc45 2.105 1_556 S
O55 C49 1.268 . S
O56 Sc46 2.105 1_556 S
O56 C50 1.268 . S
O57 Sc44 2.105 . S
O57 C51 1.268 . S
O58 Sc46 2.105 . S
O58 C52 1.268 . S
O59 Sc45 2.105 . S
O59 C53 1.268 . S
O60 Sc44 2.105 . S
O60 C52 1.268 . S
O61 Sc45 2.105 . S
O61 C51 1.268 . S
O62 Sc46 2.105 . S
O62 C53 1.268 . S
O63 Sc44 2.105 1_556 S
O63 C49 1.268 . S
O64 Sc46 2.105 1_556 S
O64 C48 1.268 . S
O65 Sc45 2.105 1_556 S
O65 C50 1.268 . S
Sc66 O69 2.025 . S
Sc66 O76 2.105 . S
Sc66 O79 2.105 . S
Sc66 O82 2.105 . S
Sc66 O85 2.105 . S
Sc67 O69 2.025 . S
Sc67 O77 2.105 . S
Sc67 O81 2.105 . S
Sc67 O83 2.105 . S
Sc67 O87 2.105 . S
Sc68 O69 2.025 . S
Sc68 O78 2.105 . S
Sc68 O80 2.105 . S
Sc68 O84 2.105 . S
Sc68 O86 2.105 . S
O69 Sc66 2.025 . S
O69 Sc67 2.025 . S
O69 Sc68 2.025 . S
C70 O76 1.268 . S
C70 O86 1.268 . S
C71 O77 1.268 . S
C71 O85 1.268 . S
C72 O78 1.268 . S
C72 O87 1.268 . S
C73 O79 1.268 . S
C73 O83 1.268 . S
C74 O80 1.268 . S
C74 O82 1.268 . S
C75 O81 1.268 . S
C75 O84 1.268 . S
O76 Sc66 2.105 . S
O76 C70 1.268 . S
O77 Sc67 2.105 . S
O77 C71 1.268 . S
O78 Sc68 2.105 . S
O78 C72 1.268 . S
O79 Sc66 2.105 . S
O79 C73 1.268 . S
O80 Sc68 2.105 . S
O80 C74 1.268 . S
O81 Sc67 2.105 . S
O81 C75 1.268 . S
O82 Sc66 2.105 . S
O82 C74 1.268 . S
O83 Sc67 2.105 . S
O83 C73 1.268 . S
O84 Sc68 2.105 . S
O84 C75 1.268 . S
O85 Sc66 2.105 . S
O85 C71 1.268 . S
O86 Sc68 2.105 . S
O86 C70 1.268 . S
O87 Sc67 2.105 . S
O87 C72 1.268 . S
O88 Cd89 2.300 . S
O88 C95 1.275 . S
Cd89 O88 2.300 . S
Cd89 O97 2.381 . S
Cd89 O98 2.378 . S
O90 Cd91 2.385 . S
O90 C95 1.255 . S
Cd91 O90 2.385 . S
Cd91 O92 2.317 . S
O92 Cd91 2.317 . S
O92 C93 1.232 . S
C93 O92 1.232 . S
C93 O94 1.218 . S
O94 C93 1.218 . S
C95 O88 1.275 . S
C95 O90 1.255 . S
C96 O97 1.258 . S
C96 O98 1.256 . S
O97 Cd89 2.381 . S
O97 C96 1.258 . S
O98 Cd89 2.378 . S
O98 C96 1.256 . S
O99 Cd100 2.300 . S
O99 C106 1.275 . S
Cd100 O99 2.300 . S
Cd100 O108 2.381 . S
Cd100 O109 2.378 . S
O101 Cd102 2.385 . S
O101 C106 1.255 . S
Cd102 O101 2.385 . S
Cd102 O103 2.317 . S
O103 Cd102 2.317 . S
O103 C104 1.232 . S
C104 O103 1.232 . S
C104 O105 1.218 . S
O105 C104 1.218 . S
C106 O99 1.275 . S
C106 O101 1.255 . S
C107 O108 1.258 . S
C107 O109 1.256 . S
O108 Cd100 2.381 . S
O108 C107 1.258 . S
O109 Cd100 2.378 . S
O109 C107 1.256 . S
O110 Cd111 2.300 . S
O110 C117 1.275 . S
Cd111 O110 2.300 . S
Cd111 O119 2.381 . S
Cd111 O120 2.378 . S
O112 Cd113 2.385 . S
O112 C117 1.255 . S
Cd113 O112 2.385 . S
Cd113 O114 2.317 . S
O114 Cd113 2.317 . S
O114 C115 1.232 . S
C115 O114 1.232 . S
C115 O116 1.218 . S
O116 C115 1.218 . S
C117 O110 1.275 . S
C117 O112 1.255 . S
C118 O119 1.258 . S
C118 O120 1.256 . S
O119 Cd111 2.381 . S
O119 C118 1.258 . S
O120 Cd111 2.378 . S
O120 C118 1.256 . S
O121 Cd122 2.300 . S
O121 C128 1.275 . S
Cd122 O121 2.300 . S
Cd122 O130 2.381 . S
Cd122 O131 2.378 . S
O123 Cd124 2.385 . S
O123 C128 1.255 . S
Cd124 O123 2.385 . S
Cd124 O125 2.317 . S
O125 Cd124 2.317 . S
O125 C126 1.232 . S
C126 O125 1.232 . S
C126 O127 1.218 . S
O127 C126 1.218 . S
C128 O121 1.275 . S
C128 O123 1.255 . S
C129 O130 1.258 . S
C129 O131 1.256 . S
O130 Cd122 2.381 . S
O130 C129 1.258 . S
O131 Cd122 2.378 . S
O131 C129 1.256 . S
O132 Cd133 2.300 . S
O132 C139 1.275 . S
Cd133 O132 2.300 . S
Cd133 O141 2.381 . S
Cd133 O142 2.378 . S
O134 Cd135 2.385 . S
O134 C139 1.255 . S
Cd135 O134 2.385 . S
Cd135 O136 2.317 . S
O136 Cd135 2.317 . S
O136 C137 1.232 . S
C137 O136 1.232 . S
C137 O138 1.218 . S
O138 C137 1.218 . S
C139 O132 1.275 . S
C139 O134 1.255 . S
C140 O141 1.258 . S
C140 O142 1.256 . S
O141 Cd133 2.381 . S
O141 C140 1.258 . S
O142 Cd133 2.378 . S
O142 C140 1.256 . S
O143 Cd144 2.300 . S
O143 C150 1.275 . S
Cd144 O143 2.300 . S
Cd144 O152 2.381 . S
Cd144 O153 2.378 . S
O145 Cd146 2.385 . S
O145 C150 1.255 . S
Cd146 O145 2.385 . S
Cd146 O147 2.317 . S
O147 Cd146 2.317 . S
O147 C148 1.232 . S
C148 O147 1.232 . S
C148 O149 1.218 . S
O149 C148 1.218 . S
C150 O143 1.275 . S
C150 O145 1.255 . S
C151 O152 1.258 . S
C151 O153 1.256 . S
O152 Cd144 2.381 . S
O152 C151 1.258 . S
O153 Cd144 2.378 . S
O153 C151 1.256 . S
O154 Cd155 2.300 . S
O154 C161 1.275 . S
Cd155 O154 2.300 . S
Cd155 O163 2.381 . S
Cd155 O164 2.378 . S
O156 Cd157 2.385 . S
O156 C161 1.255 . S
Cd157 O156 2.385 . S
Cd157 O158 2.317 . S
O158 Cd157 2.317 . S
O158 C159 1.232 . S
C159 O158 1.232 . S
C159 O160 1.218 . S
O160 C159 1.218 . S
C161 O154 1.275 . S
C161 O156 1.255 . S
C162 O163 1.258 . S
C162 O164 1.256 . S
O163 Cd155 2.381 . S
O163 C162 1.258 . S
O164 Cd155 2.378 . S
O164 C162 1.256 . S
O165 Cd166 2.300 . S
O165 C172 1.275 . S
Cd166 O165 2.300 . S
Cd166 O174 2.381 . S
Cd166 O175 2.378 . S
O167 Cd168 2.385 . S
O167 C172 1.255 . S
Cd168 O167 2.385 . S
Cd168 O169 2.317 . S
O169 Cd168 2.317 . S
O169 C170 1.232 . S
C170 O169 1.232 . S
C170 O171 1.218 . S
O171 C170 1.218 . S
C172 O165 1.275 . S
C172 O167 1.255 . S
C173 O174 1.258 . S
C173 O175 1.256 . S
O174 Cd166 2.381 . S
O174 C173 1.258 . S
O175 Cd166 2.378 . S
O175 C173 1.256 . S
C176 C177 1.363 . S
C176 C182 1.379 1_565 S
C176 N184 1.356 . S
C177 C176 1.363 . S
C177 C183 1.363 . S
C178 C179 1.363 . S
C178 C183 1.379 . S
C178 N185 1.356 . S
C179 C178 1.363 . S
C179 C182 1.363 1_565 S
N180 C182 1.356 . S
N180 H192 0.984 . S
N180 H193 0.985 . S
N181 C183 1.356 . S
N181 H186 0.984 . S
N181 H187 0.985 . S
C182 C176 1.379 1_545 S
C182 C179 1.363 1_545 S
C182 N180 1.356 . S
C183 C177 1.363 . S
C183 C178 1.379 . S
C183 N181 1.356 . S
N184 C176 1.356 . S
N184 H190 0.984 1_565 S
N184 H191 0.984 . S
N185 C178 1.356 . S
N185 H188 0.984 . S
N185 H189 0.985 . S
H186 N181 0.984 . S
H187 N181 0.985 . S
H188 N185 0.984 . S
H189 N185 0.985 . S
H190 N184 0.984 1_545 S
H191 N184 0.984 . S
H192 N180 0.984 . S
H193 N180 0.985 . S
C194 C195 1.363 . S
C194 C200 1.379 . S
C194 N202 1.356 . S
C195 C194 1.363 . S
C195 C201 1.363 . S
C196 C197 1.363 . S
C196 C201 1.379 . S
C196 N203 1.356 . S
C197 C196 1.363 . S
C197 C200 1.363 . S
N198 C200 1.356 . S
N198 H210 0.984 . S
N198 H211 0.985 . S
N199 C201 1.356 . S
N199 H204 0.984 . S
N199 H205 0.985 . S
C200 C194 1.379 . S
C200 C197 1.363 . S
C200 N198 1.356 . S
C201 C195 1.363 . S
C201 C196 1.379 . S
C201 N199 1.356 . S
N202 C194 1.356 . S
N202 H208 0.984 . S
N202 H209 0.984 . S
N203 C196 1.356 . S
N203 H206 0.984 . S
N203 H207 0.985 . S
H204 N199 0.984 . S
H205 N199 0.985 . S
H206 N203 0.984 . S
H207 N203 0.985 . S
H208 N202 0.984 . S
H209 N202 0.984 . S
H210 N198 0.984 . S
H211 N198 0.985 . S
C212 C213 1.360 1_565 S
C212 C218 1.379 . S
C212 N220 1.356 1_565 S
C213 C212 1.360 1_545 S
C213 C219 1.360 1_545 S
C214 C215 1.363 . S
C214 C219 1.379 . S
C214 N221 1.356 . S
C215 C214 1.363 . S
C215 C218 1.363 . S
N216 C218 1.356 . S
N216 H228 0.984 . S
N216 H229 0.985 . S
N217 C219 1.356 1_545 S
N217 H222 0.984 . S
N217 H223 0.985 1_544 S
C218 C212 1.379 . S
C218 C215 1.363 . S
C218 N216 1.356 . S
C219 C213 1.360 1_565 S
C219 C214 1.379 . S
C219 N217 1.356 1_565 S
N220 C212 1.356 1_545 S
N220 H226 0.984 . S
N220 H227 0.984 . S
N221 C214 1.356 . S
N221 H224 0.984 . S
N221 H225 0.985 1_554 S
H222 N217 0.984 . S
H223 N217 0.985 1_566 S
H224 N221 0.984 . S
H225 N221 0.985 1_556 S
H226 N220 0.984 . S
H227 N220 0.984 . S
H228 N216 0.984 . S
H229 N216 0.985 . S
C230 C231 1.363 . S
C230 C236 1.379 . S
C230 N238 1.356 . S
C231 C230 1.363 . S
C231 C237 1.363 . S
C232 C233 1.363 . S
C232 C237 1.379 . S
C232 N239 1.356 . S
C233 C232 1.363 . S
C233 C236 1.363 . S
N234 C236 1.356 . S
N234 H246 0.984 . S
N234 H247 0.985 . S
N235 C237 1.356 . S
N235 H240 0.984 . S
N235 H241 0.985 . S
C236 C230 1.379 . S
C236 C233 1.363 . S
C236 N234 1.356 . S
C237 C231 1.363 . S
C237 C232 1.379 . S
C237 N235 1.356 . S
N238 C230 1.356 . S
N238 H244 0.984 . S
N238 H245 0.984 . S
N239 C232 1.356 . S
N239 H242 0.984 . S
N239 H243 0.985 . S
H240 N235 0.984 . S
H241 N235 0.985 . S
H242 N239 0.984 . S
H243 N239 0.985 . S
H244 N238 0.984 . S
H245 N238 0.984 . S
H246 N234 0.984 . S
H247 N234 0.985 . S
C248 C249 1.363 . S
C248 C254 1.379 . S
C248 N256 1.356 . S
C249 C248 1.363 . S
C249 C255 1.363 . S
C250 C251 1.363 . S
C250 C255 1.379 . S
C250 N257 1.356 . S
C251 C250 1.363 . S
C251 C254 1.363 . S
N252 C254 1.356 . S
N252 H264 0.984 . S
N252 H265 0.985 . S
N253 C255 1.356 . S
N253 H258 0.984 . S
N253 H259 0.985 . S
C254 C248 1.379 . S
C254 C251 1.363 . S
C254 N252 1.356 . S
C255 C249 1.363 . S
C255 C250 1.379 . S
C255 N253 1.356 . S
N256 C248 1.356 . S
N256 H262 0.984 . S
N256 H263 0.984 . S
N257 C250 1.356 . S
N257 H260 0.984 . S
N257 H261 0.985 . S
H258 N253 0.984 . S
H259 N253 0.985 . S
H260 N257 0.984 . S
H261 N257 0.985 . S
H262 N256 0.984 . S
H263 N256 0.984 . S
H264 N252 0.984 . S
H265 N252 0.985 . S
C266 C267 1.363 1_455 S
C266 C272 1.379 . S
C266 N274 1.356 1_456 S
C267 C266 1.363 1_655 S
C267 C273 1.363 . S
C268 C269 1.363 . S
C268 C273 1.379 1_455 S
C268 N275 1.356 . S
C269 C268 1.363 . S
C269 C272 1.363 . S
N270 C272 1.356 1_554 S
N270 H282 0.984 . S
N270 H283 0.985 1_554 S
N271 C273 1.356 . S
N271 H276 0.984 . S
N271 H277 0.985 . S
C272 C266 1.379 . S
C272 C269 1.363 . S
C272 N270 1.356 1_556 S
C273 C267 1.363 . S
C273 C268 1.379 1_655 S
C273 N271 1.356 . S
N274 C266 1.356 1_654 S
N274 H280 0.984 1_655 S
N274 H281 0.984 . S
N275 C268 1.356 . S
N275 H278 0.984 . S
N275 H279 0.985 . S
H276 N271 0.984 . S
H277 N271 0.985 . S
H278 N275 0.984 . S
H279 N275 0.985 . S
H280 N274 0.984 1_455 S
H281 N274 0.984 . S
H282 N270 0.984 . S
H283 N270 0.985 1_556 S
C284 C285 1.363 . S
C284 C290 1.379 . S
C284 N292 1.356 . S
C285 C284 1.363 . S
C285 C291 1.363 . S
C286 C287 1.363 . S
C286 C291 1.379 . S
C286 N293 1.356 . S
C287 C286 1.363 . S
C287 C290 1.363 . S
N288 C290 1.356 . S
N288 H300 0.984 . S
N288 H301 0.985 . S
N289 C291 1.356 . S
N289 H294 0.984 . S
N289 H295 0.985 . S
C290 C284 1.379 . S
C290 C287 1.363 . S
C290 N288 1.356 . S
C291 C285 1.363 . S
C291 C286 1.379 . S
C291 N289 1.356 . S
N292 C284 1.356 . S
N292 H298 0.984 . S
N292 H299 0.984 . S
N293 C286 1.356 . S
N293 H296 0.984 . S
N293 H297 0.985 . S
H294 N289 0.984 . S
H295 N289 0.985 . S
H296 N293 0.984 . S
H297 N293 0.985 . S
H298 N292 0.984 . S
H299 N292 0.984 . S
H300 N288 0.984 . S
H301 N288 0.985 . S
C302 C303 1.363 . S
C302 C308 1.379 . S
C302 N310 1.356 . S
C303 C302 1.363 . S
C303 C309 1.363 1_455 S
C304 C305 1.363 . S
C304 C309 1.379 . S
C304 N311 1.356 . S
C305 C304 1.363 . S
C305 C308 1.363 1_655 S
N306 C308 1.356 . S
N306 H318 0.984 . S
N306 H319 0.985 . S
N307 C309 1.356 . S
N307 H312 0.984 1_655 S
N307 H313 0.985 . S
C308 C302 1.379 . S
C308 C305 1.363 1_455 S
C308 N306 1.356 . S
C309 C303 1.363 1_655 S
C309 C304 1.379 . S
C309 N307 1.356 . S
N310 C302 1.356 . S
N310 H316 0.984 . S
N310 H317 0.984 . S
N311 C304 1.356 . S
N311 H314 0.984 . S
N311 H315 0.985 . S
H312 N307 0.984 1_455 S
H313 N307 0.985 . S
H314 N311 0.984 . S
H315 N311 0.985 . S
H316 N310 0.984 . S
H317 N310 0.984 . S
H318 N306 0.984 . S
H319 N306 0.985 . S
C320 C321 1.363 . S
C320 C326 1.379 . S
C320 N328 1.356 . S
C321 C320 1.363 . S
C321 C327 1.363 . S
C322 C323 1.363 . S
C322 C327 1.379 . S
C322 N329 1.356 . S
C323 C322 1.363 . S
C323 C326 1.363 . S
N324 C326 1.356 1_565 S
N324 H336 0.984 . S
N324 H337 0.985 . S
N325 C327 1.356 . S
N325 H330 0.984 . S
N325 H331 0.985 . S
C326 C320 1.379 . S
C326 C323 1.363 . S
C326 N324 1.356 1_545 S
C327 C321 1.363 . S
C327 C322 1.379 . S
C327 N325 1.356 . S
N328 C320 1.356 . S
N328 H334 0.984 1_545 S
N328 H335 0.984 . S
N329 C322 1.356 . S
N329 H332 0.984 . S
N329 H333 0.985 . S
H330 N325 0.984 . S
H331 N325 0.985 . S
H332 N329 0.984 . S
H333 N329 0.985 . S
H334 N328 0.984 1_565 S
H335 N328 0.984 . S
H336 N324 0.984 . S
H337 N324 0.985 . S
C338 C339 1.363 . S
C338 C344 1.379 . S
C338 N346 1.356 . S
C339 C338 1.363 . S
C339 C345 1.363 . S
C340 C341 1.363 . S
C340 C345 1.379 . S
C340 N347 1.356 . S
C341 C340 1.363 . S
C341 C344 1.363 . S
N342 C344 1.356 . S
N342 H354 0.984 . S
N342 H355 0.985 . S
N343 C345 1.356 . S
N343 H348 0.984 . S
N343 H349 0.985 . S
C344 C338 1.379 . S
C344 C341 1.363 . S
C344 N342 1.356 . S
C345 C339 1.363 . S
C345 C340 1.379 . S
C345 N343 1.356 . S
N346 C338 1.356 . S
N346 H352 0.984 . S
N346 H353 0.984 . S
N347 C340 1.356 . S
N347 H350 0.984 . S
N347 H351 0.985 . S
H348 N343 0.984 . S
H349 N343 0.985 . S
H350 N347 0.984 . S
H351 N347 0.985 . S
H352 N346 0.984 . S
H353 N346 0.984 . S
H354 N342 0.984 . S
H355 N342 0.985 . S
C356 C357 1.363 . S
C356 C362 1.379 . S
C356 N364 1.356 1_545 S
C357 C356 1.363 . S
C357 C363 1.363 . S
C358 C359 1.363 . S
C358 C363 1.379 . S
C358 N365 1.356 . S
C359 C358 1.363 . S
C359 C362 1.363 . S
N360 C362 1.356 . S
N360 H372 0.984 . S
N360 H373 0.985 . S
N361 C363 1.356 1_554 S
N361 H366 0.984 . S
N361 H367 0.985 . S
C362 C356 1.379 . S
C362 C359 1.363 . S
C362 N360 1.356 . S
C363 C357 1.363 . S
C363 C358 1.379 . S
C363 N361 1.356 1_556 S
N364 C356 1.356 1_565 S
N364 H370 0.984 . S
N364 H371 0.984 . S
N365 C358 1.356 . S
N365 H368 0.984 . S
N365 H369 0.985 1_556 S
H366 N361 0.984 . S
H367 N361 0.985 . S
H368 N365 0.984 . S
H369 N365 0.985 1_554 S
H370 N364 0.984 . S
H371 N364 0.984 . S
H372 N360 0.984 . S
H373 N360 0.985 . S
C374 C375 1.363 . S
C374 C380 1.379 . S
C374 N382 1.356 . S
C375 C374 1.363 . S
C375 C381 1.363 . S
C376 C377 1.363 . S
C376 C381 1.379 . S
C376 N383 1.356 . S
C377 C376 1.363 . S
C377 C380 1.363 . S
N378 C380 1.356 . S
N378 H390 0.984 . S
N378 H391 0.985 . S
N379 C381 1.356 . S
N379 H384 0.984 . S
N379 H385 0.985 . S
C380 C374 1.379 . S
C380 C377 1.363 . S
C380 N378 1.356 . S
C381 C375 1.363 . S
C381 C376 1.379 . S
C381 N379 1.356 . S
N382 C374 1.356 . S
N382 H388 0.984 . S
N382 H389 0.984 . S
N383 C376 1.356 . S
N383 H386 0.984 . S
N383 H387 0.985 . S
H384 N379 0.984 . S
H385 N379 0.985 . S
H386 N383 0.984 . S
H387 N383 0.985 . S
H388 N382 0.984 . S
H389 N382 0.984 . S
H390 N378 0.984 . S
H391 N378 0.985 . S
C392 C393 1.363 . S
C392 C398 1.379 . S
C392 N400 1.356 . S
C393 C392 1.363 . S
C393 C399 1.363 . S
C394 C395 1.363 . S
C394 C399 1.379 . S
C394 N401 1.356 . S
C395 C394 1.363 . S
C395 C398 1.363 . S
N396 C398 1.356 . S
N396 H408 0.984 . S
N396 H409 0.985 . S
N397 C399 1.356 . S
N397 H402 0.984 . S
N397 H403 0.985 . S
C398 C392 1.379 . S
C398 C395 1.363 . S
C398 N396 1.356 . S
C399 C393 1.363 . S
C399 C394 1.379 . S
C399 N397 1.356 . S
N400 C392 1.356 . S
N400 H406 0.984 . S
N400 H407 0.984 . S
N401 C394 1.356 . S
N401 H404 0.984 . S
N401 H405 0.985 . S
H402 N397 0.984 . S
H403 N397 0.985 . S
H404 N401 0.984 . S
H405 N401 0.985 . S
H406 N400 0.984 . S
H407 N400 0.984 . S
H408 N396 0.984 . S
H409 N396 0.985 . S
C410 C411 1.363 1_655 S
C410 C416 1.379 . S
C410 N418 1.356 1_655 S
C411 C410 1.363 1_455 S
C411 C417 1.363 1_455 S
C412 C413 1.363 . S
C412 C417 1.379 . S
C412 N419 1.356 . S
C413 C412 1.363 . S
C413 C416 1.363 . S
N414 C416 1.356 . S
N414 H426 0.984 . S
N414 H427 0.985 . S
N415 C417 1.356 1_455 S
N415 H420 0.984 . S
N415 H421 0.985 . S
C416 C410 1.379 . S
C416 C413 1.363 . S
C416 N414 1.356 . S
C417 C411 1.363 1_655 S
C417 C412 1.379 . S
C417 N415 1.356 1_655 S
N418 C410 1.356 1_455 S
N418 H424 0.984 1_454 S
N418 H425 0.984 . S
N419 C412 1.356 . S
N419 H422 0.984 . S
N419 H423 0.985 . S
H420 N415 0.984 . S
H421 N415 0.985 . S
H422 N419 0.984 . S
H423 N419 0.985 . S
H424 N418 0.984 1_656 S
H425 N418 0.984 . S
H426 N414 0.984 . S
H427 N414 0.985 . S
C428 C429 1.363 . S
C428 C434 1.379 . S
C428 N436 1.356 . S
C429 C428 1.363 . S
C429 C435 1.363 . S
C430 C431 1.363 . S
C430 C435 1.379 . S
C430 N437 1.356 . S
C431 C430 1.363 . S
C431 C434 1.363 . S
N432 C434 1.356 . S
N432 H444 0.984 . S
N432 H445 0.985 . S
N433 C435 1.356 . S
N433 H438 0.984 . S
N433 H439 0.985 . S
C434 C428 1.379 . S
C434 C431 1.363 . S
C434 N432 1.356 . S
C435 C429 1.363 . S
C435 C430 1.379 . S
C435 N433 1.356 . S
N436 C428 1.356 . S
N436 H442 0.984 . S
N436 H443 0.984 . S
N437 C430 1.356 . S
N437 H440 0.984 . S
N437 H441 0.985 . S
H438 N433 0.984 . S
H439 N433 0.985 . S
H440 N437 0.984 . S
H441 N437 0.985 . S
H442 N436 0.984 . S
H443 N436 0.984 . S
H444 N432 0.984 . S
H445 N432 0.985 . S
C446 C447 1.363 . S
C446 C452 1.379 . S
C446 N454 1.356 . S
C447 C446 1.363 . S
C447 C453 1.363 . S
C448 C449 1.363 . S
C448 C453 1.379 . S
C448 N455 1.356 . S
C449 C448 1.363 . S
C449 C452 1.363 . S
N450 C452 1.356 1_455 S
N450 H462 0.984 . S
N450 H463 0.985 . S
N451 C453 1.356 . S
N451 H456 0.984 . S
N451 H457 0.985 . S
C452 C446 1.379 . S
C452 C449 1.363 . S
C452 N450 1.356 1_655 S
C453 C447 1.363 . S
C453 C448 1.379 . S
C453 N451 1.356 . S
N454 C446 1.356 . S
N454 H460 0.984 . S
N454 H461 0.984 . S
N455 C448 1.356 . S
N455 H458 0.984 . S
N455 H459 0.985 . S
H456 N451 0.984 . S
H457 N451 0.985 . S
H458 N455 0.984 . S
H459 N455 0.985 . S
H460 N454 0.984 . S
H461 N454 0.984 . S
H462 N450 0.984 . S
H463 N450 0.985 . S
C464 C465 1.363 . S
C464 C470 1.379 . S
C464 N472 1.356 . S
C465 C464 1.363 . S
C465 C471 1.363 . S
C466 C467 1.363 . S
C466 C471 1.379 . S
C466 N473 1.356 . S
C467 C466 1.363 . S
C467 C470 1.363 . S
N468 C470 1.356 . S
N468 H480 0.984 . S
N468 H481 0.985 . S
N469 C471 1.356 . S
N469 H474 0.984 . S
N469 H475 0.985 . S
C470 C464 1.379 . S
C470 C467 1.363 . S
C470 N468 1.356 . S
C471 C465 1.363 . S
C471 C466 1.379 . S
C471 N469 1.356 . S
N472 C464 1.356 . S
N472 H478 0.984 . S
N472 H479 0.984 . S
N473 C466 1.356 . S
N473 H476 0.984 . S
N473 H477 0.985 . S
H474 N469 0.984 . S
H475 N469 0.985 . S
H476 N473 0.984 . S
H477 N473 0.985 . S
H478 N472 0.984 . S
H479 N472 0.984 . S
H480 N468 0.984 . S
H481 N468 0.985 . S
C482 C483 1.363 . S
C482 C488 1.379 . S
C482 N490 1.356 . S
C483 C482 1.363 . S
C483 C489 1.363 . S
C484 C485 1.363 . S
C484 C489 1.379 . S
C484 N491 1.356 . S
C485 C484 1.363 . S
C485 C488 1.363 . S
N486 C488 1.356 . S
N486 H498 0.984 . S
N486 H499 0.985 . S
N487 C489 1.356 . S
N487 H492 0.984 . S
N487 H493 0.985 . S
C488 C482 1.379 . S
C488 C485 1.363 . S
C488 N486 1.356 . S
C489 C483 1.363 . S
C489 C484 1.379 . S
C489 N487 1.356 . S
N490 C482 1.356 . S
N490 H496 0.984 . S
N490 H497 0.984 . S
N491 C484 1.356 . S
N491 H494 0.984 . S
N491 H495 0.985 . S
H492 N487 0.984 . S
H493 N487 0.985 . S
H494 N491 0.984 . S
H495 N491 0.985 . S
H496 N490 0.984 . S
H497 N490 0.984 . S
H498 N486 0.984 . S
H499 N486 0.985 . S
C500 C501 1.363 . S
C500 C506 1.379 . S
C500 N508 1.356 . S
C501 C500 1.363 . S
C501 C507 1.363 . S
C502 C503 1.363 . S
C502 C507 1.379 . S
C502 N509 1.356 . S
C503 C502 1.363 . S
C503 C506 1.363 . S
N504 C506 1.356 . S
N504 H516 0.984 . S
N504 H517 0.985 . S
N505 C507 1.356 . S
N505 H510 0.984 . S
N505 H511 0.985 . S
C506 C500 1.379 . S
C506 C503 1.363 . S
C506 N504 1.356 . S
C507 C501 1.363 . S
C507 C502 1.379 . S
C507 N505 1.356 . S
N508 C500 1.356 . S
N508 H514 0.984 . S
N508 H515 0.984 . S
N509 C502 1.356 . S
N509 H512 0.984 . S
N509 H513 0.985 . S
H510 N505 0.984 . S
H511 N505 0.985 . S
H512 N509 0.984 . S
H513 N509 0.985 . S
H514 N508 0.984 . S
H515 N508 0.984 . S
H516 N504 0.984 . S
H517 N504 0.985 . S
C518 C519 1.363 . S
C518 C524 1.379 . S
C518 N526 1.356 . S
C519 C518 1.363 . S
C519 C525 1.363 . S
C520 C521 1.363 . S
C520 C525 1.379 . S
C520 N527 1.356 . S
C521 C520 1.363 . S
C521 C524 1.363 . S
N522 C524 1.356 . S
N522 H534 0.984 . S
N522 H535 0.985 . S
N523 C525 1.356 . S
N523 H528 0.984 . S
N523 H529 0.985 . S
C524 C518 1.379 . S
C524 C521 1.363 . S
C524 N522 1.356 . S
C525 C519 1.363 . S
C525 C520 1.379 . S
C525 N523 1.356 . S
N526 C518 1.356 . S
N526 H532 0.984 . S
N526 H533 0.984 . S
N527 C520 1.356 . S
N527 H530 0.984 . S
N527 H531 0.985 . S
H528 N523 0.984 . S
H529 N523 0.985 . S
H530 N527 0.984 . S
H531 N527 0.985 . S
H532 N526 0.984 . S
H533 N526 0.984 . S
H534 N522 0.984 . S
H535 N522 0.985 . S
C536 C537 1.363 . S
C536 C542 1.379 . S
C536 N544 1.356 . S
C537 C536 1.363 . S
C537 C543 1.363 . S
C538 C539 1.363 . S
C538 C543 1.379 . S
C538 N545 1.356 . S
C539 C538 1.363 . S
C539 C542 1.363 . S
N540 C542 1.356 . S
N540 H552 0.984 . S
N540 H553 0.985 . S
N541 C543 1.356 . S
N541 H546 0.984 . S
N541 H547 0.985 . S
C542 C536 1.379 . S
C542 C539 1.363 . S
C542 N540 1.356 . S
C543 C537 1.363 . S
C543 C538 1.379 . S
C543 N541 1.356 . S
N544 C536 1.356 . S
N544 H550 0.984 . S
N544 H551 0.984 . S
N545 C538 1.356 . S
N545 H548 0.984 . S
N545 H549 0.985 . S
H546 N541 0.984 . S
H547 N541 0.985 . S
H548 N545 0.984 . S
H549 N545 0.985 . S
H550 N544 0.984 . S
H551 N544 0.984 . S
H552 N540 0.984 . S
H553 N540 0.985 . S
C554 C555 1.363 . S
C554 C560 1.379 . S
C554 N562 1.356 . S
C555 C554 1.363 . S
C555 C561 1.363 . S
C556 C557 1.363 . S
C556 C561 1.379 . S
C556 N563 1.356 . S
C557 C556 1.363 . S
C557 C560 1.363 . S
N558 C560 1.356 . S
N558 H570 0.984 . S
N558 H571 0.985 . S
N559 C561 1.356 . S
N559 H564 0.984 . S
N559 H565 0.985 . S
C560 C554 1.379 . S
C560 C557 1.363 . S
C560 N558 1.356 . S
C561 C555 1.363 . S
C561 C556 1.379 . S
C561 N559 1.356 . S
N562 C554 1.356 . S
N562 H568 0.984 . S
N562 H569 0.984 . S
N563 C556 1.356 . S
N563 H566 0.984 . S
N563 H567 0.985 . S
H564 N559 0.984 . S
H565 N559 0.985 . S
H566 N563 0.984 . S
H567 N563 0.985 . S
H568 N562 0.984 . S
H569 N562 0.984 . S
H570 N558 0.984 . S
H571 N558 0.985 . S
C572 C573 1.363 . S
C572 C578 1.379 . S
C572 N580 1.356 . S
C573 C572 1.363 . S
C573 C579 1.363 . S
C574 C575 1.363 . S
C574 C579 1.379 . S
C574 N581 1.356 . S
C575 C574 1.363 . S
C575 C578 1.363 . S
N576 C578 1.356 . S
N576 H588 0.984 . S
N576 H589 0.985 . S
N577 C579 1.356 . S
N577 H582 0.984 . S
N577 H583 0.985 . S
C578 C572 1.379 . S
C578 C575 1.363 . S
C578 N576 1.356 . S
C579 C573 1.363 . S
C579 C574 1.379 . S
C579 N577 1.356 . S
N580 C572 1.356 . S
N580 H586 0.984 . S
N580 H587 0.984 . S
N581 C574 1.356 . S
N581 H584 0.984 . S
N581 H585 0.985 . S
H582 N577 0.984 . S
H583 N577 0.985 . S
H584 N581 0.984 . S
H585 N581 0.985 . S
H586 N580 0.984 . S
H587 N580 0.984 . S
H588 N576 0.984 . S
H589 N576 0.985 . S
C590 C591 1.363 . S
C590 C596 1.379 . S
C590 N598 1.356 . S
C591 C590 1.363 . S
C591 C597 1.363 . S
C592 C593 1.363 . S
C592 C597 1.379 . S
C592 N599 1.356 . S
C593 C592 1.363 . S
C593 C596 1.363 . S
N594 C596 1.356 . S
N594 H606 0.984 . S
N594 H607 0.985 . S
N595 C597 1.356 . S
N595 H600 0.984 . S
N595 H601 0.985 . S
C596 C590 1.379 . S
C596 C593 1.363 . S
C596 N594 1.356 . S
C597 C591 1.363 . S
C597 C592 1.379 . S
C597 N595 1.356 . S
N598 C590 1.356 . S
N598 H604 0.984 . S
N598 H605 0.984 . S
N599 C592 1.356 . S
N599 H602 0.984 . S
N599 H603 0.985 . S
H600 N595 0.984 . S
H601 N595 0.985 . S
H602 N599 0.984 . S
H603 N599 0.985 . S
H604 N598 0.984 . S
H605 N598 0.984 . S
H606 N594 0.984 . S
H607 N594 0.985 . S
C177 C8 1.646 . S
C179 C95 1.526 1_565 S
C195 C31 1.514 . S
C197 C104 1.136 . S
C213 C53 1.308 . S
C215 C115 1.006 . S
C233 C126 1.150 . S
C231 C74 1.208 . S
C251 C139 1.389 . S
C249 C26 1.362 . S
C267 C48 1.282 . S
C269 C148 0.922 . S
C285 C71 1.233 . S
C287 C159 1.130 . S
C303 C5 1.730 . S
C305 C172 1.607 . S
C321 C50 1.307 . S
C323 C170 0.907 1_545 S
C341 C137 1.209 . S
C339 C70 1.438 . S
C359 C150 1.594 . S
C357 C4 1.654 1_545 S
C375 C28 1.694 . S
C377 C161 1.714 . S
C395 C106 1.427 . S
C393 C73 1.435 . S
C411 C7 1.718 . S
C413 C117 1.646 . S
C431 C128 1.564 . S
C429 C30 1.566 . S
C449 C93 0.914 1_655 S
C447 C52 1.309 . S
C467 C162 1.501 . S
C465 C9 1.461 . S
C485 C173 1.484 . S
C483 C29 1.526 . S
C501 C51 1.421 . S
C503 C140 1.394 . S
C521 C151 1.444 . S
C519 C75 1.543 . S
C539 C118 1.564 . S
C537 C27 1.673 . S
C555 C49 1.420 . S
C557 C129 1.416 . S
C575 C96 1.434 . S
C573 C72 1.487 . S
C593 C107 1.446 . S
C591 C6 1.497 . S
