# Generated by pormake.
# Topology fgl, (4,4)-cn, num edge types: 1
# Building blocks:
#     Node 0, Type 0, BuildingBlock: ESEHIV_clean_sbu_0, # of connection points: 4
#     Node 1, Type 0, BuildingBlock: ESEHIV_clean_sbu_0, # of connection points: 4
#     Node 2, Type 0, BuildingBlock: ESEHIV_clean_sbu_0, # of connection points: 4
#     Node 3, Type 0, BuildingBlock: ESEHIV_clean_sbu_0, # of connection points: 4
#     Node 4, Type 0, BuildingBlock: ESEHIV_clean_sbu_0, # of connection points: 4
#     Node 5, Type 0, BuildingBlock: ESEHIV_clean_sbu_0, # of connection points: 4
#     Node 6, Type 0, BuildingBlock: ESEHIV_clean_sbu_0, # of connection points: 4
#     Node 7, Type 0, BuildingBlock: ESEHIV_clean_sbu_0, # of connection points: 4
#     Node 8, Type 0, BuildingBlock: ESEHIV_clean_sbu_0, # of connection points: 4
#     Node 9, Type 0, BuildingBlock: ESEHIV_clean_sbu_0, # of connection points: 4
#     Node 10, Type 0, BuildingBlock: ESEHIV_clean_sbu_0, # of connection points: 4
#     Node 11, Type 0, BuildingBlock: ESEHIV_clean_sbu_0, # of connection points: 4
#     Node 12, Type 0, BuildingBlock: ESEHIV_clean_sbu_0, # of connection points: 4
#     Node 13, Type 0, BuildingBlock: ESEHIV_clean_sbu_0, # of connection points: 4
#     Node 14, Type 0, BuildingBlock: ESEHIV_clean_sbu_0, # of connection points: 4
#     Node 15, Type 0, BuildingBlock: ESEHIV_clean_sbu_0, # of connection points: 4
#     Node 16, Type 0, BuildingBlock: ESEHIV_clean_sbu_0, # of connection points: 4
#     Node 17, Type 0, BuildingBlock: ESEHIV_clean_sbu_0, # of connection points: 4
#     Node 18, Type 1, BuildingBlock: NAHDIM_clean_sbu_0, # of connection points: 4
#     Node 19, Type 1, BuildingBlock: NAHDIM_clean_sbu_0, # of connection points: 4
#     Node 20, Type 1, BuildingBlock: NAHDIM_clean_sbu_0, # of connection points: 4
#     Node 21, Type 1, BuildingBlock: NAHDIM_clean_sbu_0, # of connection points: 4
#     Node 22, Type 1, BuildingBlock: NAHDIM_clean_sbu_0, # of connection points: 4
#     Node 23, Type 1, BuildingBlock: NAHDIM_clean_sbu_0, # of connection points: 4
#     Node 24, Type 1, BuildingBlock: NAHDIM_clean_sbu_0, # of connection points: 4
#     Node 25, Type 1, BuildingBlock: NAHDIM_clean_sbu_0, # of connection points: 4
#     Node 26, Type 1, BuildingBlock: NAHDIM_clean_sbu_0, # of connection points: 4
#     Node 27, Type 1, BuildingBlock: NAHDIM_clean_sbu_0, # of connection points: 4
#     Node 28, Type 1, BuildingBlock: NAHDIM_clean_sbu_0, # of connection points: 4
#     Node 29, Type 1, BuildingBlock: NAHDIM_clean_sbu_0, # of connection points: 4
#     Node 30, Type 1, BuildingBlock: NAHDIM_clean_sbu_0, # of connection points: 4
#     Node 31, Type 1, BuildingBlock: NAHDIM_clean_sbu_0, # of connection points: 4
#     Node 32, Type 1, BuildingBlock: NAHDIM_clean_sbu_0, # of connection points: 4
#     Node 33, Type 1, BuildingBlock: NAHDIM_clean_sbu_0, # of connection points: 4
#     Node 34, Type 1, BuildingBlock: NAHDIM_clean_sbu_0, # of connection points: 4
#     Node 35, Type 1, BuildingBlock: NAHDIM_clean_sbu_0, # of connection points: 4
#     Edge 36, Type (0, 1), None
#     Edge 37, Type (0, 1), None
#     Edge 38, Type (0, 1), None
#     Edge 39, Type (0, 1), None
#     Edge 40, Type (0, 1), None
#     Edge 41, Type (0, 1), None
#     Edge 42, Type (0, 1), None
#     Edge 43, Type (0, 1), None
#     Edge 44, Type (0, 1), None
#     Edge 45, Type (0, 1), None
#     Edge 46, Type (0, 1), None
#     Edge 47, Type (0, 1), None
#     Edge 48, Type (0, 1), None
#     Edge 49, Type (0, 1), None
#     Edge 50, Type (0, 1), None
#     Edge 51, Type (0, 1), None
#     Edge 52, Type (0, 1), None
#     Edge 53, Type (0, 1), None
#     Edge 54, Type (0, 1), None
#     Edge 55, Type (0, 1), None
#     Edge 56, Type (0, 1), None
#     Edge 57, Type (0, 1), None
#     Edge 58, Type (0, 1), None
#     Edge 59, Type (0, 1), None
#     Edge 60, Type (0, 1), None
#     Edge 61, Type (0, 1), None
#     Edge 62, Type (0, 1), None
#     Edge 63, Type (0, 1), None
#     Edge 64, Type (0, 1), None
#     Edge 65, Type (0, 1), None
#     Edge 66, Type (0, 1), None
#     Edge 67, Type (0, 1), None
#     Edge 68, Type (0, 1), None
#     Edge 69, Type (0, 1), None
#     Edge 70, Type (0, 1), None
#     Edge 71, Type (0, 1), None
#     Edge 72, Type (0, 1), None
#     Edge 73, Type (0, 1), None
#     Edge 74, Type (0, 1), None
#     Edge 75, Type (0, 1), None
#     Edge 76, Type (0, 1), None
#     Edge 77, Type (0, 1), None
#     Edge 78, Type (0, 1), None
#     Edge 79, Type (0, 1), None
#     Edge 80, Type (0, 1), None
#     Edge 81, Type (0, 1), None
#     Edge 82, Type (0, 1), None
#     Edge 83, Type (0, 1), None
#     Edge 84, Type (0, 1), None
#     Edge 85, Type (0, 1), None
#     Edge 86, Type (0, 1), None
#     Edge 87, Type (0, 1), None
#     Edge 88, Type (0, 1), None
#     Edge 89, Type (0, 1), None
#     Edge 90, Type (0, 1), None
#     Edge 91, Type (0, 1), None
#     Edge 92, Type (0, 1), None
#     Edge 93, Type (0, 1), None
#     Edge 94, Type (0, 1), None
#     Edge 95, Type (0, 1), None
#     Edge 96, Type (0, 1), None
#     Edge 97, Type (0, 1), None
#     Edge 98, Type (0, 1), None
#     Edge 99, Type (0, 1), None
#     Edge 100, Type (0, 1), None
#     Edge 101, Type (0, 1), None
#     Edge 102, Type (0, 1), None
#     Edge 103, Type (0, 1), None
#     Edge 104, Type (0, 1), None
#     Edge 105, Type (0, 1), None
#     Edge 106, Type (0, 1), None
#     Edge 107, Type (0, 1), None
# Relax obj value: 0.063
# Max RMSD: 0.187
# Mean RMSD: 0.112
data_MOF--net-fgl--node1-ESEHIV_clean_sbu_0--node2-NAHDIM_clean_sbu_0--edge1-none
_symmetry_space_group_name_H-M    P1
_symmetry_Int_Tables_number       1
_symmetry_cell_setting            triclinic
loop_
_symmetry_equiv_pos_as_xyz
'x, y, z'
_cell_length_a     34.269449
_cell_length_b     35.202832
_cell_length_c     24.329445
_cell_angle_alpha  88.455945
_cell_angle_beta   90.465887
_cell_angle_gamma 118.95833
loop_
_atom_site_label
_atom_site_type_symbol
_atom_site_fract_x
_atom_site_fract_y
_atom_site_fract_z
_atom_type_partial_charge
Cu0 Cu 0.05941 0.5371 0.01377 0.0
N1 N 0.04179 0.54883 0.08158 0.0
N2 N 0.04044 0.59826 0.13702 0.0
C3 C 0.02808 0.57871 0.08794 0.0
C4 C 0.06129 0.57907 0.16338 0.0
C5 C 0.06221 0.54896 0.12926 0.0
O6 O 0.0791 0.59195 0.97344 0.0
C7 C 0.08274 0.47837 0.0527 0.0
O8 O 0.04231 0.46404 0.07248 0.0
H9 H 1.01429 0.58967 0.05496 0.0
H10 H 0.08165 0.53263 0.13633 0.0
N11 N 1.01714 0.49265 0.9709 0.0
N12 N 0.99604 0.44493 0.90327 0.0
C13 C 0.03021 0.47917 0.92683 0.0
C14 C 0.97292 0.46591 0.97576 0.0
C15 C 0.95971 0.43647 0.93363 0.0
C16 C 0.04894 0.59733 0.94888 0.0
O17 O 1.00981 0.56355 0.94031 0.0
H18 H 0.06455 0.49395 0.91296 0.0
H19 H 0.95206 0.46725 1.00794 0.0
O20 O 0.10151 0.51522 0.02721 0.0
H21 H 0.07738 0.58818 0.20301 0.0
H22 H 0.92619 0.41053 0.92649 0.0
Cu23 Cu 0.54323 0.57549 0.04365 0.0
N24 N 0.5444 0.59942 0.97432 0.0
N25 N 0.575 0.62803 0.8927 0.0
C26 C 0.5826 0.62165 0.94556 0.0
C27 C 0.53027 0.60967 0.88794 0.0
C28 C 0.51139 0.59211 0.93864 0.0
O29 O 0.59904 0.6185 0.07818 0.0
C30 C 0.4979 0.49046 1.00768 0.0
O31 O 0.46941 0.50406 0.99483 0.0
H32 H 0.61522 0.63086 0.96248 0.0
H33 H 0.47615 0.57378 0.94798 0.0
N34 N 0.49573 0.56687 0.08863 0.0
N35 N 0.4503 0.53823 0.16111 0.0
C36 C 0.48936 0.54674 0.13797 0.0
C37 C 0.45949 0.57177 0.08006 0.0
C38 C 0.43123 0.5541 0.12517 0.0
C39 C 0.60294 0.65566 0.08887 0.0
O40 O 0.56861 0.66208 0.08077 0.0
H41 H 0.51232 0.53684 0.15544 0.0
H42 H 0.45324 0.58563 0.04304 0.0
O43 O 0.53455 0.51664 0.03103 0.0
H44 H 0.51251 0.60855 0.85046 0.0
H45 H 0.39886 0.55195 0.1303 0.0
Cu46 Cu 0.51764 0.04557 0.03915 0.0
N47 N 0.49408 1.01342 0.97756 0.0
N48 N 0.4621 1.00518 0.89619 0.0
C49 C 0.46106 1.01454 0.9491 0.0
C50 C 0.49553 0.99553 0.89164 0.0
C51 C 0.51558 1.00103 0.94228 0.0
O52 O 0.46899 0.04676 0.07858 0.0
C53 C 0.56522 0.11887 0.96573 0.0
O54 O 0.52793 0.10758 0.93905 0.0
H55 H 0.4412 0.02821 0.96491 0.0
H56 H 0.54667 1.0012 0.95097 0.0
N57 N 0.54643 0.02137 0.0796 0.0
N58 N 0.60119 0.01981 0.12751 0.0
C59 C 0.58356 0.04452 0.10875 0.0
C60 C 0.54041 0.98064 0.07933 0.0
C61 C 0.57425 0.9795 0.10932 0.0
C62 C 0.45752 0.03296 0.12788 0.0
O63 O 0.48197 0.02097 0.15772 0.0
H64 H 0.59757 0.07896 0.11553 0.0
H65 H 0.51401 0.95403 0.05775 0.0
O66 O 0.56463 0.10128 1.01242 0.0
H67 H 0.50736 0.98931 0.85358 0.0
H68 H 0.57855 0.95134 0.11733 0.0
Cu69 Cu 0.5495 0.05747 0.50448 0.0
N70 N 0.55235 0.04075 0.43383 0.0
N71 N 0.58043 0.03835 0.35279 0.0
C72 C 0.58872 0.05841 0.40121 0.0
C73 C 0.53732 1.00702 0.35496 0.0
C74 C 0.52006 1.00853 0.40525 0.0
O75 O 0.60533 0.06824 0.54157 0.0
C76 C 0.49942 0.0989 0.4744 0.0
O77 O 0.47742 0.06305 0.44694 0.0
H78 H 0.6206 0.08503 0.41306 0.0
H79 H 0.48647 0.98756 0.42008 0.0
N80 N 0.50256 1.01323 0.54359 0.0
N81 N 0.45196 0.98515 0.61068 0.0
C82 C 0.48167 0.0216 0.58391 0.0
C83 C 0.48499 0.9697 0.54392 0.0
C84 C 0.45353 0.95213 0.58572 0.0
C85 C 0.61485 0.03723 0.54526 0.0
O86 O 0.5872 0.99951 0.52462 0.0
H87 H 0.48996 0.05421 0.59522 0.0
H88 H 0.49536 0.95217 0.51715 0.0
O89 O 0.53446 0.10512 0.5009 0.0
H90 H 0.51966 0.98444 0.32273 0.0
H91 H 0.43469 0.91817 0.59804 0.0
Cu92 Cu 0.03917 0.57663 0.54567 0.0
N93 N 0.07304 0.55978 0.59082 0.0
N94 N 0.0735 0.51351 0.65576 0.0
C95 C 0.05529 0.53824 0.63868 0.0
C96 C 0.10514 0.52071 0.61796 0.0
C97 C 0.10456 0.54909 0.57764 0.0
O98 O 0.99199 0.5214 0.52093 0.0
C99 C 0.05535 0.649 0.59955 0.0
O100 O 0.09599 0.65668 0.58849 0.0
H101 H 0.02588 0.53678 0.65704 0.0
H102 H 0.12245 0.55749 0.53891 0.0
N103 N 0.06392 0.60997 0.4811 0.0
N104 N 0.06041 0.64078 0.40088 0.0
C105 C 0.03746 0.61043 0.44007 0.0
C106 C 0.10539 0.64112 0.46733 0.0
C107 C 0.10331 0.66028 0.41766 0.0
C108 C 1.00715 0.50537 0.48604 0.0
O109 O 0.04882 0.5282 0.46971 0.0
H110 H 1.00161 0.58974 0.44011 0.0
H111 H 0.13468 0.65027 0.49237 0.0
O112 O 1.02243 0.61229 0.58787 0.0
H113 H 0.12477 0.50416 0.61716 0.0
H114 H 0.13103 0.68676 0.39601 0.0
Cu115 Cu 0.53539 0.58606 0.49831 0.0
N116 N 0.58816 0.58797 0.47297 0.0
N117 N 0.66255 0.62192 0.46421 0.0
C118 C 0.62773 0.60618 0.49953 0.0
C119 C 0.6446 0.61176 0.41374 0.0
C120 C 0.59905 0.59124 0.41921 0.0
O121 O 0.55439 0.63597 0.54485 0.0
C122 C 0.48599 0.54985 0.40662 0.0
O123 O 0.50266 0.52378 0.41628 0.0
H124 H 0.6314 0.61356 0.54262 0.0
H125 H 0.5763 0.58509 0.38547 0.0
N126 N 0.49634 0.53788 0.54162 0.0
N127 N 0.43907 0.47176 0.55769 0.0
C128 C 0.47851 0.49528 0.53143 0.0
C129 C 0.46789 0.54068 0.57715 0.0
C130 C 0.43271 0.49995 0.5875 0.0
C131 C 0.56849 0.63025 0.59128 0.0
O132 O 0.56682 0.59282 0.60285 0.0
H133 H 0.49198 0.48218 0.50198 0.0
H134 H 0.47026 0.57084 0.59025 0.0
O135 O 0.49861 0.58345 0.43562 0.0
H136 H 0.66299 0.62235 0.37532 0.0
H137 H 0.40323 0.49217 0.61164 0.0
Cu138 Cu 0.73262 0.89574 0.36712 0.0
N139 N 0.74658 0.94707 0.33052 0.0
N140 N 0.73097 0.99764 0.2986 0.0
C141 C 0.71747 0.9621 0.33093 0.0
C142 C 0.77047 1.00572 0.27683 0.0
C143 C 0.78016 0.97409 0.29688 0.0
O144 O 0.70865 0.90143 0.43831 0.0
C145 C 0.71493 0.85121 0.27026 0.0
O146 O 0.75648 0.88163 0.26295 0.0
H147 H 0.68633 0.94643 0.35372 0.0
H148 H 0.80884 0.97049 0.28672 0.0
N149 N 0.78122 0.88747 0.37957 0.0
N150 N 0.81563 0.84812 0.39003 0.0
C151 C 0.77627 0.8474 0.38456 0.0
C152 C 0.82538 0.91491 0.38184 0.0
C153 C 0.84691 0.89047 0.38862 0.0
C154 C 0.73384 0.93491 0.46645 0.0
O155 O 0.77464 0.96098 0.44897 0.0
H156 H 0.74416 0.81819 0.38383 0.0
H157 H 0.84073 0.94991 0.37826 0.0
O158 O 0.69508 0.85001 0.31532 0.0
H159 H 0.79052 0.03216 0.24833 0.0
H160 H 0.88253 0.90278 0.39212 0.0
Cu161 Cu 0.20941 0.90628 0.37518 0.0
N162 N 0.1617 0.88647 0.32521 0.0
N163 N 0.11893 0.82403 0.28273 0.0
C164 C 0.1296 0.84466 0.33079 0.0
C165 C 0.1425 0.85429 0.24398 0.0
C166 C 0.16809 0.89295 0.27015 0.0
O167 O 0.1891 0.86332 0.43687 0.0
C168 C 0.2743 0.9466 0.29561 0.0
O169 O 0.26206 0.97602 0.30389 0.0
H170 H 0.12011 0.82727 0.36978 0.0
H171 H 0.19393 0.92194 0.25036 0.0
N172 N 0.23 0.9607 0.40688 0.0
N173 N 0.28324 0.0229 0.44094 0.0
C174 C 0.27092 0.98136 0.42934 0.0
C175 C 0.21517 0.98983 0.40538 0.0
C176 C 0.24808 0.02839 0.42662 0.0
C177 C 0.15468 0.85807 0.46369 0.0
O178 O 0.13619 0.88207 0.45003 0.0
H179 H 0.29253 0.96699 0.43316 0.0
H180 H 0.18402 0.98434 0.38719 0.0
O181 O 0.2583 0.91249 0.32693 0.0
H182 H 0.14347 0.84833 0.2007 0.0
H183 H 0.24715 0.05865 0.42844 0.0
Cu184 Cu 0.16444 0.36304 0.36951 0.0
N185 N 0.13317 0.33274 0.30924 0.0
N186 N 0.10537 0.33163 0.22615 0.0
C187 C 0.11023 0.34664 0.27732 0.0
C188 C 0.12479 0.30618 0.22608 0.0
C189 C 0.14233 0.30722 0.27764 0.0
O190 O 0.12439 0.37898 0.40622 0.0
C191 C 0.25207 0.43877 0.3553 0.0
O192 O 0.25538 0.44301 0.40886 0.0
H193 H 0.10187 0.37119 0.28945 0.0
H194 H 0.16409 0.29418 0.28939 0.0
N195 N 0.1803 0.32838 0.41383 0.0
N196 N 0.21932 0.30535 0.46573 0.0
C197 C 0.22101 0.33776 0.433 0.0
C198 C 0.15223 0.28843 0.43423 0.0
C199 C 0.17614 0.27416 0.46636 0.0
C200 C 0.12319 0.4135 0.39249 0.0
O201 O 0.1542 0.44237 0.35967 0.0
H202 H 0.25099 0.36816 0.4247 0.0
H203 H 0.11665 0.27131 0.42714 0.0
O204 O 0.21635 0.40994 0.33435 0.0
H205 H 0.12887 0.29064 0.19042 0.0
H206 H 0.16253 0.24385 0.48989 0.0
Cu207 Cu 0.21471 0.35658 0.84407 0.0
N208 N 0.22021 0.33139 0.78064 0.0
N209 N 0.25115 0.33188 0.70035 0.0
C210 C 0.24226 0.35528 0.73605 0.0
C211 C 0.23323 0.29139 0.72266 0.0
C212 C 0.2141 0.29119 0.77249 0.0
O213 O 0.27359 0.38225 0.87988 0.0
C214 C 0.15128 0.37765 0.80289 0.0
O215 O 0.13054 0.33555 0.79562 0.0
H216 H 0.25459 0.38995 0.73208 0.0
H217 H 0.19957 0.26444 0.80201 0.0
N218 N 0.17244 0.31767 0.89361 0.0
N219 N 0.12156 0.29853 0.95996 0.0
C220 C 0.14931 0.33039 0.92534 0.0
C221 C 0.1589 0.27598 0.9086 0.0
C222 C 0.12725 0.26401 0.94993 0.0
C223 C 0.2887 0.35664 0.8947 0.0
O224 O 0.26396 0.31482 0.88722 0.0
H225 H 0.15378 0.36305 0.924 0.0
H226 H 0.17167 0.25602 0.89189 0.0
O227 O 0.191 0.39575 0.82216 0.0
H228 H 0.23565 0.26451 0.70554 0.0
H229 H 0.11058 0.23286 0.97156 0.0
Cu230 Cu 0.70842 0.9177 0.87061 0.0
N231 N 0.66694 0.86352 0.84438 0.0
N232 N 0.65122 0.80196 0.80289 0.0
C233 C 0.68073 0.8347 0.83337 0.0
C234 C 0.6167 0.80981 0.79491 0.0
C235 C 0.62641 0.84791 0.82106 0.0
O236 O 0.73979 0.90271 0.92945 0.0
C237 C 0.71803 0.95085 0.76279 0.0
O238 O 0.67456 0.93182 0.7684 0.0
H239 H 0.71332 0.83927 0.84474 0.0
H240 H 0.60662 0.86429 0.82014 0.0
N241 N 0.68651 0.95233 0.90167 0.0
N242 N 0.68582 1.01507 0.91344 0.0
C243 C 0.68719 0.9875 0.87687 0.0
C244 C 0.68388 0.95786 0.95592 0.0
C245 C 0.68336 0.99641 0.9633 0.0
C246 C 0.71524 0.87354 0.96538 0.0
O247 O 0.67173 0.85667 0.96218 0.0
H248 H 0.69314 0.99514 0.83342 0.0
H249 H 0.68631 0.93746 0.98825 0.0
O250 O 0.74165 0.94962 0.80338 0.0
H251 H 0.58708 0.78992 0.77137 0.0
H252 H 0.68335 1.01054 1.0023 0.0
Cu253 Cu 0.21297 0.88237 0.87115 0.0
N254 N 0.17929 0.87699 0.80826 0.0
N255 N 0.14163 0.8436 0.73332 0.0
C256 C 0.16488 0.84174 0.77708 0.0
C257 C 0.14146 0.88178 0.73666 0.0
C258 C 0.16484 0.90242 0.78321 0.0
O259 O 0.18309 0.82362 0.90044 0.0
C260 C 0.28916 0.93504 0.81349 0.0
O261 O 0.26567 0.95466 0.80232 0.0
H262 H 0.17145 0.81512 0.78653 0.0
H263 H 0.17117 0.93377 0.79723 0.0
N264 N 0.21373 0.92079 0.924 0.0
N265 N 0.23214 0.96093 0.99952 0.0
C266 C 0.23948 0.93319 0.96945 0.0
C267 C 0.1892 0.94119 0.92564 0.0
C268 C 0.20054 0.96603 0.97202 0.0
C269 C 0.14231 0.81069 0.91168 0.0
O270 O 0.12811 0.83926 0.91281 0.0
H271 H 0.26337 0.92238 0.9799 0.0
H272 H 0.16458 0.93809 0.89547 0.0
O273 O 0.27298 0.90169 0.84549 0.0
H274 H 0.12562 0.89385 0.70771 0.0
H275 H 0.1867 0.98639 0.98439 0.0
Cu276 Cu 0.4286 0.24096 0.72706 0.0
N277 N 0.45518 0.2918 0.68366 0.0
N278 N 0.42323 0.32132 0.62982 0.0
C279 C 0.43099 0.31262 0.68174 0.0
C280 C 0.44665 0.30929 0.59734 0.0
C281 C 0.46737 0.29221 0.63085 0.0
O282 O 0.4024 0.25345 0.79182 0.0
C283 C 0.4062 0.18749 0.63668 0.0
O284 O 0.44833 0.19803 0.64218 0.0
H285 H 0.41147 0.3127 0.71646 0.0
H286 H 0.48462 0.27556 0.61648 0.0
N287 N 0.46495 0.21806 0.75114 0.0
N288 N 0.47995 0.16342 0.76406 0.0
C289 C 0.44792 0.175 0.75951 0.0
C290 C 0.50955 0.23479 0.75214 0.0
C291 C 0.51897 0.20095 0.76065 0.0
C292 C 0.42744 0.28444 0.82348 0.0
O293 O 0.47049 0.3063 0.81347 0.0
H294 H 0.41258 0.15226 0.75731 0.0
H295 H 0.53334 0.26849 0.74342 0.0
O296 O 0.38768 0.19939 0.67306 0.0
H297 H 0.44618 0.30981 0.55282 0.0
H298 H 0.55176 0.20349 0.7604 0.0
Cu299 Cu 0.88288 0.22407 0.68784 0.0
N300 N 0.89063 0.25699 0.62338 0.0
N301 N 0.92423 0.30243 0.55246 0.0
C302 C 0.92993 0.28441 0.59927 0.0
C303 C 0.87979 0.28558 0.54651 0.0
C304 C 0.85914 0.25741 0.59026 0.0
O305 O 0.93939 0.2495 0.72931 0.0
C306 C 0.82625 0.14261 0.64389 0.0
O307 O 0.80128 0.16103 0.63556 0.0
H308 H 0.96197 0.29078 0.61561 0.0
H309 H 0.8236 0.2383 0.59686 0.0
N310 N 0.83608 0.22012 0.73142 0.0
N311 N 0.78181 0.19158 0.79476 0.0
C312 C 0.82087 0.19523 0.77753 0.0
C313 C 0.80578 0.23313 0.71957 0.0
C314 C 0.77208 0.21536 0.75851 0.0
C315 C 0.96486 0.28902 0.7428 0.0
O316 O 1.00211 0.29877 0.7688 0.0
H317 H 0.8372 0.17854 0.79662 0.0
H318 H 0.8072 0.25304 0.6843 0.0
O319 O 0.86439 0.16431 0.66629 0.0
H320 H 0.86342 0.29286 0.51281 0.0
H321 H 0.74281 0.21953 0.75998 0.0
Cu322 Cu 0.85293 0.71743 0.69908 0.0
N323 N 0.85818 0.76826 0.66315 0.0
N324 N 0.84152 0.77264 0.57455 0.0
C325 C 0.82551 0.75811 0.62548 0.0
C326 C 0.88577 0.79707 0.5801 0.0
C327 C 0.89549 0.79651 0.63515 0.0
O328 O 0.78737 0.67966 0.70546 0.0
C329 C 0.92946 0.72875 0.64838 0.0
O330 O 0.94541 0.75912 0.68515 0.0
H331 H 0.79176 0.73241 0.63189 0.0
H332 H 0.92862 0.81257 0.65207 0.0
N333 N 0.87555 0.71853 0.77111 0.0
N334 N 0.90364 0.69413 0.83869 0.0
C335 C 0.90783 0.7083 0.78586 0.0
C336 C 0.85097 0.71074 0.81731 0.0
C337 C 0.86777 0.6954 0.85846 0.0
C338 C 0.76607 0.69668 0.72844 0.0
O339 O 0.7887 0.73639 0.74649 0.0
H340 H 0.93046 0.70581 0.75746 0.0
H341 H 0.82035 0.71209 0.82034 0.0
O342 O 0.88755 0.70177 0.64864 0.0
H343 H 0.90938 0.81284 0.54675 0.0
H344 H 0.85416 0.68531 0.8996 0.0
Cu345 Cu 0.88054 0.73516 0.15079 0.0
N346 N 0.88657 0.72298 0.07809 0.0
N347 N 0.93244 0.729 1.00959 0.0
C348 C 0.91729 0.7123 0.06047 0.0
C349 C 0.9096 0.74953 0.99382 0.0
C350 C 0.88137 0.74561 0.03574 0.0
O351 O 0.93748 0.7495 0.18487 0.0
C352 C 0.82092 0.76479 0.13002 0.0
O353 O 0.79969 0.72518 0.11137 0.0
H354 H 0.93258 0.69801 0.08682 0.0
H355 H 0.86306 0.7633 0.03744 0.0
N356 N 0.83915 0.69149 0.19615 0.0
N357 N 0.80504 0.66908 0.27728 0.0
C358 C 0.83971 0.70048 0.24939 0.0
C359 C 0.80306 0.65237 0.18957 0.0
C360 C 0.78175 0.63828 0.24018 0.0
C361 C 0.94297 0.71777 0.2024 0.0
O362 O 0.91015 0.6778 0.19931 0.0
H363 H 0.86386 0.73112 0.26643 0.0
H364 H 0.79187 0.63648 0.15069 0.0
O365 O 0.86015 0.77862 0.14958 0.0
H366 H 0.91466 0.76809 0.95578 0.0
H367 H 0.75043 0.60904 0.24826 0.0
Cu368 Cu 0.39828 0.2557 0.22232 0.0
N369 N 0.35784 0.1991 0.20141 0.0
N370 N 0.33966 0.13167 0.17698 0.0
C371 C 0.36872 0.16709 0.20421 0.0
C372 C 0.30864 0.14132 0.15667 0.0
C373 C 0.31997 0.18307 0.17185 0.0
O374 O 0.43285 0.24639 0.28132 0.0
C375 C 0.40642 0.29299 0.11824 0.0
O376 O 0.3641 0.27916 0.12877 0.0
H377 H 0.39904 0.1708 0.22314 0.0
H378 H 0.30292 0.20098 0.15985 0.0
N379 N 0.37334 0.28882 0.24932 0.0
N380 N 0.37281 0.34989 0.27192 0.0
C381 C 0.39806 0.3307 0.26332 0.0
C382 C 0.33078 0.28101 0.24968 0.0
C383 C 0.33034 0.3187 0.26369 0.0
C384 C 0.41193 0.2294 0.32645 0.0
O385 O 0.37167 0.22443 0.33266 0.0
H386 H 0.43417 0.34738 0.26413 0.0
H387 H 0.30235 0.25081 0.23798 0.0
O388 O 0.43011 0.28664 0.1545 0.0
H389 H 0.28059 0.12029 0.1315 0.0
H390 H 0.30125 0.32313 0.26596 0.0
Cu391 Cu 0.8607 0.26435 0.18006 0.0
N392 N 0.82639 0.25537 0.11774 0.0
N393 N 0.78104 0.21617 0.05124 0.0
C394 C 0.79997 0.21523 0.09942 0.0
C395 C 0.79579 0.25861 0.03876 0.0
C396 C 0.8239 0.2829 0.08024 0.0
O397 O 0.8223 0.21751 0.22901 0.0
C398 C 0.93211 0.27338 0.11487 0.0
O399 O 0.91316 0.2859 0.07677 0.0
H400 H 0.79578 0.18597 0.12044 0.0
H401 H 0.84223 0.31794 0.08205 0.0
N402 N 0.87884 0.31716 0.21319 0.0
N403 N 0.91282 0.36725 0.27645 0.0
C404 C 0.90851 0.33079 0.25428 0.0
C405 C 0.86412 0.34629 0.20838 0.0
C406 C 0.88522 0.3775 0.24763 0.0
C407 C 0.79329 0.21924 0.25957 0.0
O408 O 0.79377 0.25629 0.26654 0.0
H409 H 0.92491 0.31291 0.26938 0.0
H410 H 0.83855 0.34398 0.18017 0.0
O411 O 0.9138 0.26086 0.16198 0.0
H412 H 0.78737 0.27115 1.00206 0.0
H413 H 0.8794 0.40446 0.25569 0.0
C414 C 0.03675 0.63282 0.15485 0.0
O415 O 1.01141 0.64575 0.1286 0.0
O416 O 0.99181 0.69288 0.23775 0.0
Zn417 Zn 0.05295 0.69668 0.24648 0.0
O418 O 0.06841 0.68079 0.32214 0.0
C419 C 0.09461 0.78031 0.27813 0.0
O420 O 0.06862 0.75693 0.31915 0.0
O421 O 0.05708 0.65197 0.19829 0.0
C422 C 0.04336 0.64957 0.35446 0.0
O423 O 1.00114 0.6252 0.34187 0.0
C424 C 0.98719 0.7244 0.21743 0.0
O425 O 1.02226 0.761 0.20259 0.0
O426 O 0.09685 0.76096 0.23559 0.0
C427 C 0.44942 0.53618 0.36744 0.0
O428 O 0.43092 0.56053 0.35614 0.0
O429 O 0.32997 0.47205 0.34258 0.0
Zn430 Zn 0.37971 0.47194 0.29941 0.0
O431 O 0.39554 0.50711 0.22744 0.0
C432 C 0.38786 0.39253 0.28308 0.0
O433 O 0.4306 0.41852 0.29096 0.0
O434 O 0.43322 0.49833 0.34803 0.0
C435 C 0.43385 0.51592 0.2094 0.0
O436 O 0.45746 0.5021 0.23788 0.0
C437 C 0.29207 0.45758 0.32037 0.0
O438 O 0.28813 0.44859 0.26789 0.0
O439 O 0.36104 0.40796 0.28484 0.0
C440 C 0.70838 0.01983 0.29028 0.0
O441 O 0.67095 1.00823 0.31696 0.0
O442 O 0.64987 0.07684 0.31355 0.0
Zn443 Zn 0.69166 0.0867 0.24906 0.0
O444 O 0.74164 0.14709 0.24244 0.0
C445 C 0.63638 0.03256 0.1619 0.0
O446 O 0.64712 1.00399 0.1825 0.0
O447 O 0.72319 0.05206 0.25713 0.0
C448 C 0.75373 0.17853 0.27463 0.0
O449 O 0.72937 0.17525 0.31772 0.0
C450 C 0.60937 0.04688 0.31063 0.0
O451 O 0.59584 0.02315 0.26672 0.0
O452 O 0.6546 0.0707 0.18072 0.0
C453 C 0.99828 0.42351 0.85855 0.0
O454 O 0.96181 0.3912 0.83897 0.0
O455 O 0.07293 0.45668 0.70559 0.0
Zn456 Zn 0.04393 0.40796 0.76485 0.0
O457 O 0.08537 0.3815 0.77961 0.0
C458 C 0.95336 0.3236 0.73027 0.0
O459 O 0.91309 0.31295 0.71301 0.0
O460 O 0.03569 0.43491 0.8349 0.0
C461 C 0.12669 0.40197 0.79245 0.0
O462 O 0.14662 0.44422 0.79811 0.0
C463 C 0.05784 0.48312 0.69768 0.0
O464 O 0.02466 0.47895 0.72865 0.0
O465 O 0.98063 0.36381 0.73776 0.0
C466 C 0.58851 0.66411 0.63191 0.0
O467 O 0.58774 0.70095 0.6266 0.0
O468 O 0.5939 0.64895 0.80337 0.0
Zn469 Zn 0.63377 0.68677 0.7424 0.0
O470 O 0.6987 0.69799 0.74643 0.0
C471 C 0.65642 0.76846 0.78489 0.0
O472 O 0.68906 0.76251 0.80416 0.0
O473 O 0.6059 0.65597 0.67372 0.0
C474 C 0.71691 0.67671 0.72747 0.0
O475 O 0.69266 0.6402 0.70211 0.0
C476 C 0.60609 0.6486 0.85262 0.0
O477 O 0.64871 0.66995 0.86476 0.0
O478 O 0.62913 0.74144 0.75133 0.0
C479 C 0.42982 0.98383 0.65721 0.0
O480 O 0.40681 0.94722 0.68527 0.0
O481 O 0.44968 1.01064 0.80526 0.0
Zn482 Zn 0.41696 0.02701 0.75079 0.0
O483 O 0.43398 0.09033 0.75923 0.0
C484 C 0.33481 0.95413 0.79264 0.0
O485 O 0.3598 0.93645 0.8057 0.0
O486 O 0.43496 0.0192 0.67636 0.0
C487 C 0.47336 0.12206 0.76392 0.0
O488 O 0.50748 0.1147 0.76476 0.0
C489 C 0.44024 1.013 0.85481 0.0
O490 O 0.41117 0.02613 0.86546 0.0
O491 O 0.35145 0.9904 0.76646 0.0
C492 C 0.71703 0.94774 0.51473 0.0
O493 O 0.67522 0.92435 0.53027 0.0
O494 O 0.66522 1.01123 0.57309 0.0
Zn495 Zn 0.72319 1.01152 0.60002 0.0
O496 O 0.71146 0.97746 0.6742 0.0
C497 C 0.8077 0.09629 0.63114 0.0
O498 O 0.83038 0.0758 0.64188 0.0
O499 O 0.74219 0.98357 0.53853 0.0
C500 C 0.73752 0.97557 0.71096 0.0
O501 O 0.78089 0.99698 0.70369 0.0
C502 C 0.657 0.0431 0.57018 0.0
O503 O 0.6868 0.0814 0.58723 0.0
O504 O 0.76776 0.07562 0.61354 0.0
C505 C 0.12211 0.81281 0.69466 0.0
O506 O 0.12425 0.77654 0.69827 0.0
O507 O 1.00251 0.75672 0.61513 0.0
Zn508 Zn 0.06765 0.7763 0.59539 0.0
O509 O 0.09435 0.8135 0.52489 0.0
C510 C 0.04833 0.6855 0.61287 0.0
O511 O 1.01024 0.6783 0.63405 0.0
O512 O 0.10103 0.81859 0.65517 0.0
C513 C 0.1338 0.82452 0.50786 0.0
O514 O 0.15683 0.80821 0.53245 0.0
C515 C 0.96167 0.72804 0.60934 0.0
O516 O 0.95007 0.69652 0.57456 0.0
O517 O 0.07702 0.72366 0.59665 0.0
C518 C 0.39162 0.33232 0.6153 0.0
O519 O 0.37657 0.34864 0.6523 0.0
O520 O 0.28886 0.32382 0.62891 0.0
Zn521 Zn 0.33071 0.34866 0.56391 0.0
O522 O 0.37102 0.41241 0.57309 0.0
C523 C 0.25249 0.30617 0.49775 0.0
O524 O 0.24327 0.27506 0.53479 0.0
O525 O 0.37421 0.32509 0.56753 0.0
C526 C 0.40924 0.42947 0.55012 0.0
O527 O 0.41914 0.40603 0.51776 0.0
C528 C 0.27712 0.34756 0.65466 0.0
O529 O 0.29232 0.38818 0.63827 0.0
O530 O 0.29122 0.33935 0.49719 0.0
C531 C 0.69392 0.81921 0.22632 0.0
O532 O 0.65324 0.78667 0.23203 0.0
O533 O 0.70663 0.82706 0.04316 0.0
Zn534 Zn 0.70892 0.79001 0.11094 0.0
O535 O 0.75937 0.7748 0.10662 0.0
C536 C 0.64665 0.69325 0.10256 0.0
O537 O 0.68273 0.68915 0.10192 0.0
O538 O 0.71679 0.8232 0.18306 0.0
C539 C 0.79714 0.79023 0.13047 0.0
O540 O 0.81108 0.82448 0.16114 0.0
C541 C 0.73364 0.85717 1.01003 0.0
O542 O 0.77684 0.87271 0.01512 0.0
O543 O 0.65012 0.73087 0.10832 0.0
C544 C 0.25314 0.98121 0.04645 0.0
O545 O 0.24395 1.00976 0.0682 0.0
O546 O 0.30082 0.97972 0.20878 0.0
Zn547 Zn 0.32141 1.00998 0.13319 0.0
O548 O 0.38582 0.02662 0.11574 0.0
C549 C 0.34298 0.09507 0.16995 0.0
O550 O 0.37437 0.09024 0.19533 0.0
O551 O 0.28303 0.97423 0.06863 0.0
C552 C 0.41404 0.02521 0.14884 0.0
O553 O 0.40254 1.01238 0.20016 0.0
C554 C 0.29762 0.9504 0.24342 0.0
O555 O 0.31158 0.92292 0.23096 0.0
O556 O 0.31619 0.06518 0.1388 0.0
C557 C 0.09608 0.30255 0.99923 0.0
O558 O 0.07375 0.27067 0.03495 0.0
O559 O 0.0921 0.33223 0.13463 0.0
Zn560 Zn 0.06726 0.34796 0.06874 0.0
O561 O 0.07462 0.40905 0.07039 0.0
C562 C 0.97866 0.28412 0.10765 0.0
O563 O 0.99953 0.27628 0.14807 0.0
O564 O 0.09596 0.33845 1.00375 0.0
C565 C 0.09997 0.4473 0.05115 0.0
O566 O 0.13521 0.45561 0.02156 0.0
C567 C 0.08941 0.3443 0.18235 0.0
O568 O 0.07143 0.36951 0.18874 0.0
O569 O 1.00074 0.3097 0.06808 0.0
C570 C 0.40851 0.29807 0.8688 0.0
O571 O 0.36531 0.27735 0.87787 0.0
O572 O 0.34787 0.34569 0.92992 0.0
Zn573 Zn 0.40938 0.35549 0.95785 0.0
O574 O 0.39898 0.32193 0.03188 0.0
C575 C 0.48474 0.44452 0.99744 0.0
O576 O 0.50792 0.42688 0.01803 0.0
O577 O 0.43354 0.3311 0.89759 0.0
C578 C 0.42491 0.31654 0.06545 0.0
O579 O 0.4675 0.33313 0.05392 0.0
C580 C 0.33404 0.37273 0.91763 0.0
O581 O 0.36066 0.41452 0.92309 0.0
O582 O 0.44808 0.42121 0.97236 0.0
C583 C 0.75357 0.18137 0.02124 0.0
O584 O 0.74085 0.14166 0.03984 0.0
O585 O 0.63718 0.12979 0.9504 0.0
Zn586 Zn 0.69747 0.13983 0.9267 0.0
O587 O 0.71975 0.16488 0.85033 0.0
C588 C 0.68979 0.05493 0.902 0.0
O589 O 0.68775 0.06687 0.85088 0.0
O590 O 0.73985 0.18707 0.97493 0.0
C591 C 0.75809 0.16906 0.84007 0.0
O592 O 0.77556 0.15275 0.8755 0.0
C593 C 0.60773 0.13992 0.93561 0.0
O594 O 0.61254 0.16231 0.88974 0.0
O595 O 0.69577 0.08118 0.94039 0.0
C596 C 0.05232 0.6405 0.9446 0.0
O597 O 0.08296 0.67252 0.97262 0.0
O598 O 0.97753 0.69986 0.98894 0.0
Zn599 Zn 1.01085 0.69718 0.92124 0.0
O600 O 0.06867 0.75398 0.9206 0.0
C601 C 0.92913 0.68048 0.86724 0.0
O602 O 0.91326 0.65736 0.91293 0.0
O603 O 1.02044 0.64431 0.92256 0.0
C604 C 0.10926 0.76458 0.91184 0.0
O605 O 0.12022 0.73573 0.89566 0.0
C606 C 0.96609 0.72901 0.98054 0.0
O607 O 0.98251 0.75526 0.93733 0.0
O608 O 0.97063 0.69628 0.85628 0.0
C609 C 0.38441 0.1674 0.58474 0.0
O610 O 0.34153 0.1526 0.57728 0.0
O611 O 0.4028 0.18793 0.40877 0.0
Zn612 Zn 0.39887 0.14261 0.468 0.0
O613 O 0.44259 0.11827 0.45565 0.0
C614 C 0.32482 0.05356 0.45647 0.0
O615 O 0.35652 0.04308 0.46345 0.0
O616 O 0.40883 0.166 0.54622 0.0
C617 C 0.47922 0.12756 0.48026 0.0
O618 O 0.49527 0.1586 0.51621 0.0
C619 C 0.42792 0.20822 0.36757 0.0
O620 O 0.46316 0.20403 0.35727 0.0
O621 O 0.33455 0.09322 0.45991 0.0
C622 C 0.93665 0.3863 0.32209 0.0
O623 O 0.93441 0.41894 0.34388 0.0
O624 O 0.94543 0.34486 0.47473 0.0
Zn625 Zn 0.98873 0.38692 0.41959 0.0
O626 O 0.04668 0.38386 0.41802 0.0
C627 C 0.98271 0.46021 0.46959 0.0
O628 O 0.94454 0.43264 0.49272 0.0
O629 O 0.95885 0.3704 0.34606 0.0
C630 C 0.08309 0.41726 0.40377 0.0
O631 O 0.08291 0.45361 0.39071 0.0
C632 C 0.95636 0.33133 0.5179 0.0
O633 O 0.99875 0.34539 0.52859 0.0
O634 O 1.00316 0.44697 0.43872 0.0
C635 C 0.79308 0.67232 0.32927 0.0
O636 O 0.75448 0.64269 0.34935 0.0
O637 O 0.83442 0.74665 0.48768 0.0
Zn638 Zn 0.79345 0.72339 0.42193 0.0
O639 O 0.7874 0.77502 0.39896 0.0
C640 C 0.70575 0.65072 0.47535 0.0
O641 O 0.71988 0.65806 0.52632 0.0
O642 O 0.81687 0.70678 0.35605 0.0
C643 C 0.82128 0.81282 0.39744 0.0
O644 O 0.86122 0.81742 0.40613 0.0
C645 C 0.81784 0.75654 0.52794 0.0
O646 O 0.77552 0.74618 0.52654 0.0
O647 O 0.73122 0.67355 0.436 0.0
loop_
_geom_bond_atom_site_label_1
_geom_bond_atom_site_label_2
_geom_bond_distance
_geom_bond_site_symmetry_2
_ccdc_geom_bond_type
Cu0 N1 2.011 . S
Cu0 O6 1.969 1_554 S
Cu0 N11 1.974 1_554 S
Cu0 O20 1.964 . S
N1 Cu0 2.011 . S
N1 C3 1.263 . S
N1 C5 1.389 . S
N2 C3 1.358 . S
N2 C4 1.400 . S
C3 N1 1.263 . S
C3 N2 1.358 . S
C3 H9 0.930 . S
C4 N2 1.400 . S
C4 C5 1.351 . S
C4 H21 0.930 . S
C5 N1 1.389 . S
C5 C4 1.351 . S
C5 H10 0.930 . S
O6 Cu0 1.969 1_556 S
O6 C16 1.282 . S
C7 O8 1.261 . S
C7 O20 1.251 . S
O8 C7 1.261 . S
H9 C3 0.930 . S
H10 C5 0.930 . S
N11 Cu0 1.974 1_556 S
N11 C13 1.335 . S
N11 C14 1.390 . S
N12 C13 1.345 . S
N12 C15 1.336 . S
C13 N11 1.335 . S
C13 N12 1.345 . S
C13 H18 0.930 . S
C14 N11 1.390 . S
C14 C15 1.346 . S
C14 H19 0.930 . S
C15 N12 1.336 . S
C15 C14 1.346 . S
C15 H22 0.929 . S
C16 O6 1.282 . S
C16 O17 1.216 1_455 S
O17 C16 1.216 1_655 S
H18 C13 0.930 . S
H19 C14 0.930 . S
O20 Cu0 1.964 . S
O20 C7 1.251 . S
H21 C4 0.930 . S
H22 C15 0.929 . S
Cu23 N24 1.999 1_554 S
Cu23 O29 1.974 . S
Cu23 N34 1.985 . S
Cu23 O43 1.959 1_554 S
N24 Cu23 1.999 1_556 S
N24 C26 1.263 . S
N24 C28 1.389 . S
N25 C26 1.358 . S
N25 C27 1.400 . S
C26 N24 1.263 . S
C26 N25 1.358 . S
C26 H32 0.930 . S
C27 N25 1.400 . S
C27 C28 1.351 . S
C27 H44 0.930 . S
C28 N24 1.389 . S
C28 C27 1.351 . S
C28 H33 0.930 . S
O29 Cu23 1.974 . S
O29 C39 1.282 . S
C30 O31 1.261 . S
C30 O43 1.251 . S
O31 C30 1.261 . S
H32 C26 0.930 . S
H33 C28 0.930 . S
N34 Cu23 1.985 . S
N34 C36 1.335 . S
N34 C37 1.390 . S
N35 C36 1.345 . S
N35 C38 1.336 . S
C36 N34 1.335 . S
C36 N35 1.345 . S
C36 H41 0.930 . S
C37 N34 1.390 . S
C37 C38 1.346 . S
C37 H42 0.930 . S
C38 N35 1.336 . S
C38 C37 1.346 . S
C38 H45 0.929 . S
C39 O29 1.282 . S
C39 O40 1.216 . S
O40 C39 1.216 . S
H41 C36 0.930 . S
H42 C37 0.930 . S
O43 Cu23 1.959 1_556 S
O43 C30 1.251 . S
H44 C27 0.930 . S
H45 C38 0.929 . S
Cu46 N47 1.999 1_554 S
Cu46 O52 1.974 . S
Cu46 N57 1.985 1_565 S
Cu46 O66 1.959 1_564 S
N47 Cu46 1.999 1_556 S
N47 C49 1.263 . S
N47 C51 1.389 . S
N48 C49 1.358 . S
N48 C50 1.400 . S
C49 N47 1.263 . S
C49 N48 1.358 . S
C49 H55 0.930 . S
C50 N48 1.400 . S
C50 C51 1.351 . S
C50 H67 0.930 . S
C51 N47 1.389 . S
C51 C50 1.351 . S
C51 H56 0.930 . S
O52 Cu46 1.974 . S
O52 C62 1.282 1_565 S
C53 O54 1.261 . S
C53 O66 1.251 . S
O54 C53 1.261 . S
H55 C49 0.930 . S
H56 C51 0.930 . S
N57 Cu46 1.985 1_545 S
N57 C59 1.335 . S
N57 C60 1.390 . S
N58 C59 1.345 . S
N58 C61 1.336 . S
C59 N57 1.335 . S
C59 N58 1.345 . S
C59 H64 0.910 1_545 S
C60 N57 1.390 . S
C60 C61 1.346 . S
C60 H65 0.930 . S
C61 N58 1.336 . S
C61 C60 1.346 . S
C61 H68 0.929 . S
C62 O52 1.282 1_545 S
C62 O63 1.216 . S
O63 C62 1.216 . S
H64 C59 0.910 1_565 S
H65 C60 0.930 . S
O66 Cu46 1.959 1_546 S
O66 C53 1.251 . S
H67 C50 0.930 . S
H68 C61 0.929 . S
Cu69 N70 1.999 . S
Cu69 O75 1.974 . S
Cu69 N80 1.985 . S
Cu69 O89 1.959 . S
N70 Cu69 1.999 . S
N70 C72 1.263 . S
N70 C74 1.389 . S
N71 C72 1.358 . S
N71 C73 1.400 . S
C72 N70 1.263 . S
C72 N71 1.358 . S
C72 H78 0.930 . S
C73 N71 1.400 . S
C73 C74 1.351 . S
C73 H90 0.930 . S
C74 N70 1.389 . S
C74 C73 1.351 . S
C74 H79 0.930 . S
O75 Cu69 1.974 . S
O75 C85 1.282 . S
C76 O77 1.261 . S
C76 O89 1.251 . S
O77 C76 1.261 . S
H78 C72 0.930 . S
H79 C74 0.930 . S
N80 Cu69 1.985 . S
N80 C82 1.335 . S
N80 C83 1.390 . S
N81 C82 1.345 . S
N81 C84 1.336 . S
C82 N80 1.335 . S
C82 N81 1.345 . S
C82 H87 0.930 . S
C83 N80 1.390 . S
C83 C84 1.346 . S
C83 H88 0.930 1_545 S
C84 N81 1.336 . S
C84 C83 1.346 . S
C84 H91 0.929 1_545 S
C85 O75 1.282 . S
C85 O86 1.216 1_545 S
O86 C85 1.216 1_565 S
H87 C82 0.930 . S
H88 C83 0.930 1_565 S
O89 Cu69 1.959 . S
O89 C76 1.251 . S
H90 C73 0.930 . S
H91 C84 0.929 1_565 S
Cu92 N93 1.999 . S
Cu92 O98 1.974 1_455 S
Cu92 N103 1.985 . S
Cu92 O112 1.959 . S
N93 Cu92 1.999 . S
N93 C95 1.263 . S
N93 C97 1.389 1_455 S
N94 C95 1.358 . S
N94 C96 1.400 1_455 S
C95 N93 1.263 . S
C95 N94 1.358 . S
C95 H101 0.930 . S
C96 N94 1.400 1_655 S
C96 C97 1.351 . S
C96 H113 0.930 . S
C97 N93 1.389 1_655 S
C97 C96 1.351 . S
C97 H102 0.930 . S
O98 Cu92 1.974 1_655 S
O98 C108 1.282 1_655 S
C99 O100 1.261 . S
C99 O112 1.251 . S
O100 C99 1.261 . S
H101 C95 0.930 . S
H102 C97 0.930 . S
N103 Cu92 1.985 . S
N103 C105 1.345 . S
N103 C106 1.390 . S
N104 C105 1.346 . S
N104 C107 1.336 . S
C105 N103 1.345 . S
C105 N104 1.346 . S
C105 H110 0.921 1_455 S
C106 N103 1.390 . S
C106 C107 1.346 . S
C106 H111 0.930 . S
C107 N104 1.336 . S
C107 C106 1.346 . S
C107 H114 0.929 . S
C108 O98 1.282 1_455 S
C108 O109 1.216 . S
O109 C108 1.216 . S
H110 C105 0.921 1_655 S
H111 C106 0.930 . S
O112 Cu92 1.959 . S
O112 C99 1.251 . S
H113 C96 0.930 . S
H114 C107 0.929 . S
Cu115 N116 1.999 . S
Cu115 O121 1.974 . S
Cu115 N126 1.985 . S
Cu115 O135 1.959 . S
N116 Cu115 1.999 . S
N116 C118 1.263 . S
N116 C120 1.389 . S
N117 C118 1.358 . S
N117 C119 1.400 . S
C118 N116 1.263 . S
C118 N117 1.358 . S
C118 H124 0.930 . S
C119 N117 1.400 . S
C119 C120 1.351 . S
C119 H136 0.930 . S
C120 N116 1.389 . S
C120 C119 1.351 . S
C120 H125 0.930 . S
O121 Cu115 1.974 . S
O121 C131 1.282 . S
C122 O123 1.261 . S
C122 O135 1.251 . S
O123 C122 1.261 . S
H124 C118 0.930 . S
H125 C120 0.930 . S
N126 Cu115 1.985 . S
N126 C128 1.335 . S
N126 C129 1.390 . S
N127 C128 1.345 . S
N127 C130 1.336 . S
C128 N126 1.335 . S
C128 N127 1.345 . S
C128 H133 0.930 . S
C129 N126 1.390 . S
C129 C130 1.346 . S
C129 H134 0.930 . S
C130 N127 1.336 . S
C130 C129 1.346 . S
C130 H137 0.929 . S
C131 O121 1.282 . S
C131 O132 1.216 . S
O132 C131 1.216 . S
H133 C128 0.930 . S
H134 C129 0.930 . S
O135 Cu115 1.959 . S
O135 C122 1.251 . S
H136 C119 0.930 . S
H137 C130 0.929 . S
Cu138 N139 1.999 . S
Cu138 O144 1.974 . S
Cu138 N149 1.985 . S
Cu138 O158 1.959 . S
N139 Cu138 1.999 . S
N139 C141 1.263 . S
N139 C143 1.389 . S
N140 C141 1.358 . S
N140 C142 1.400 . S
C141 N139 1.263 . S
C141 N140 1.358 . S
C141 H147 0.930 . S
C142 N140 1.400 . S
C142 C143 1.351 . S
C142 H159 0.930 . S
C143 N139 1.389 . S
C143 C142 1.351 . S
C143 H148 0.930 . S
O144 Cu138 1.974 . S
O144 C154 1.282 . S
C145 O146 1.261 . S
C145 O158 1.251 . S
O146 C145 1.261 . S
H147 C141 0.930 . S
H148 C143 0.930 . S
N149 Cu138 1.985 . S
N149 C151 1.335 . S
N149 C152 1.390 . S
N150 C151 1.345 . S
N150 C153 1.336 . S
C151 N149 1.335 . S
C151 N150 1.345 . S
C151 H156 0.930 . S
C152 N149 1.390 . S
C152 C153 1.346 . S
C152 H157 0.930 . S
C153 N150 1.336 . S
C153 C152 1.346 . S
C153 H160 0.929 . S
C154 O144 1.282 . S
C154 O155 1.216 . S
O155 C154 1.216 . S
H156 C151 0.930 . S
H157 C152 0.930 . S
O158 Cu138 1.959 . S
O158 C145 1.251 . S
H159 C142 0.930 . S
H160 C153 0.929 . S
Cu161 N162 1.999 . S
Cu161 O167 1.974 . S
Cu161 N172 1.985 . S
Cu161 O181 1.959 . S
N162 Cu161 1.999 . S
N162 C164 1.263 . S
N162 C166 1.389 . S
N163 C164 1.358 . S
N163 C165 1.400 . S
C164 N162 1.263 . S
C164 N163 1.358 . S
C164 H170 0.930 . S
C165 N163 1.400 . S
C165 C166 1.351 . S
C165 H182 0.930 . S
C166 N162 1.389 . S
C166 C165 1.351 . S
C166 H171 0.930 . S
O167 Cu161 1.974 . S
O167 C177 1.282 . S
C168 O169 1.261 . S
C168 O181 1.251 . S
O169 C168 1.261 . S
H170 C164 0.930 . S
H171 C166 0.930 . S
N172 Cu161 1.985 . S
N172 C174 1.335 . S
N172 C175 1.390 . S
N173 C174 1.345 . S
N173 C176 1.336 . S
C174 N172 1.335 . S
C174 N173 1.345 . S
C174 H179 0.930 . S
C175 N172 1.390 . S
C175 C176 1.346 . S
C175 H180 0.930 . S
C176 N173 1.336 . S
C176 C175 1.346 . S
C176 H183 0.929 . S
C177 O167 1.282 . S
C177 O178 1.216 . S
O178 C177 1.216 . S
H179 C174 0.930 . S
H180 C175 0.930 . S
O181 Cu161 1.959 . S
O181 C168 1.251 . S
H182 C165 0.930 . S
H183 C176 0.929 . S
Cu184 N185 1.999 . S
Cu184 O190 1.974 . S
Cu184 N195 1.985 . S
Cu184 O204 1.959 . S
N185 Cu184 1.999 . S
N185 C187 1.263 . S
N185 C189 1.389 . S
N186 C187 1.358 . S
N186 C188 1.400 . S
C187 N185 1.263 . S
C187 N186 1.358 . S
C187 H193 0.930 . S
C188 N186 1.400 . S
C188 C189 1.351 . S
C188 H205 0.930 . S
C189 N185 1.389 . S
C189 C188 1.351 . S
C189 H194 0.930 . S
O190 Cu184 1.974 . S
O190 C200 1.282 . S
C191 O192 1.261 . S
C191 O204 1.251 . S
O192 C191 1.261 . S
H193 C187 0.930 . S
H194 C189 0.930 . S
N195 Cu184 1.985 . S
N195 C197 1.335 . S
N195 C198 1.390 . S
N196 C197 1.345 . S
N196 C199 1.336 . S
C197 N195 1.335 . S
C197 N196 1.345 . S
C197 H202 0.930 . S
C198 N195 1.390 . S
C198 C199 1.346 . S
C198 H203 0.930 . S
C199 N196 1.336 . S
C199 C198 1.346 . S
C199 H206 0.929 . S
C200 O190 1.282 . S
C200 O201 1.216 . S
O201 C200 1.216 . S
H202 C197 0.930 . S
H203 C198 0.930 . S
O204 Cu184 1.959 . S
O204 C191 1.251 . S
H205 C188 0.930 . S
H206 C199 0.929 . S
Cu207 N208 1.999 . S
Cu207 O213 1.974 . S
Cu207 N218 1.985 . S
Cu207 O227 1.959 . S
N208 Cu207 1.999 . S
N208 C210 1.263 . S
N208 C212 1.389 . S
N209 C210 1.358 . S
N209 C211 1.400 . S
C210 N208 1.263 . S
C210 N209 1.358 . S
C210 H216 0.930 . S
C211 N209 1.400 . S
C211 C212 1.351 . S
C211 H228 0.930 . S
C212 N208 1.389 . S
C212 C211 1.351 . S
C212 H217 0.930 . S
O213 Cu207 1.974 . S
O213 C223 1.282 . S
C214 O215 1.261 . S
C214 O227 1.251 . S
O215 C214 1.261 . S
H216 C210 0.930 . S
H217 C212 0.930 . S
N218 Cu207 1.985 . S
N218 C220 1.335 . S
N218 C221 1.390 . S
N219 C220 1.345 . S
N219 C222 1.336 1_556 S
C220 N218 1.335 . S
C220 N219 1.345 . S
C220 H225 0.930 . S
C221 N218 1.390 . S
C221 C222 1.346 1_556 S
C221 H226 0.930 . S
C222 N219 1.336 1_554 S
C222 C221 1.346 1_554 S
C222 H229 0.929 . S
C223 O213 1.282 . S
C223 O224 1.216 . S
O224 C223 1.216 . S
H225 C220 0.930 . S
H226 C221 0.930 . S
O227 Cu207 1.959 . S
O227 C214 1.251 . S
H228 C211 0.930 . S
H229 C222 0.929 . S
Cu230 N231 1.999 . S
Cu230 O236 1.974 . S
Cu230 N241 1.985 . S
Cu230 O250 1.959 . S
N231 Cu230 1.999 . S
N231 C233 1.263 . S
N231 C235 1.389 . S
N232 C233 1.358 . S
N232 C234 1.400 . S
C233 N231 1.263 . S
C233 N232 1.358 . S
C233 H239 0.930 . S
C234 N232 1.400 . S
C234 C235 1.351 . S
C234 H251 0.930 . S
C235 N231 1.389 . S
C235 C234 1.351 . S
C235 H240 0.930 . S
O236 Cu230 1.974 . S
O236 C246 1.282 . S
C237 O238 1.261 . S
C237 O250 1.251 . S
O238 C237 1.261 . S
H239 C233 0.930 . S
H240 C235 0.930 . S
N241 Cu230 1.985 . S
N241 C243 1.335 . S
N241 C244 1.390 . S
N242 C243 1.345 . S
N242 C245 1.336 . S
C243 N241 1.335 . S
C243 N242 1.345 . S
C243 H248 0.930 . S
C244 N241 1.390 . S
C244 C245 1.346 . S
C244 H249 0.930 . S
C245 N242 1.336 . S
C245 C244 1.346 . S
C245 H252 0.929 . S
C246 O236 1.282 . S
C246 O247 1.216 . S
O247 C246 1.216 . S
H248 C243 0.930 . S
H249 C244 0.930 . S
O250 Cu230 1.959 . S
O250 C237 1.251 . S
H251 C234 0.930 . S
H252 C245 0.929 . S
Cu253 N254 1.999 . S
Cu253 O259 1.974 . S
Cu253 N264 1.985 . S
Cu253 O273 1.959 . S
N254 Cu253 1.999 . S
N254 C256 1.263 . S
N254 C258 1.389 . S
N255 C256 1.358 . S
N255 C257 1.400 . S
C256 N254 1.263 . S
C256 N255 1.358 . S
C256 H262 0.930 . S
C257 N255 1.400 . S
C257 C258 1.351 . S
C257 H274 0.930 . S
C258 N254 1.389 . S
C258 C257 1.351 . S
C258 H263 0.930 . S
O259 Cu253 1.974 . S
O259 C269 1.282 . S
C260 O261 1.261 . S
C260 O273 1.251 . S
O261 C260 1.261 . S
H262 C256 0.930 . S
H263 C258 0.930 . S
N264 Cu253 1.985 . S
N264 C266 1.335 . S
N264 C267 1.390 . S
N265 C266 1.345 . S
N265 C268 1.336 1_556 S
C266 N264 1.335 . S
C266 N265 1.345 . S
C266 H271 0.930 . S
C267 N264 1.390 . S
C267 C268 1.346 1_556 S
C267 H272 0.930 . S
C268 N265 1.336 1_554 S
C268 C267 1.346 1_554 S
C268 H275 0.929 . S
C269 O259 1.282 . S
C269 O270 1.216 . S
O270 C269 1.216 . S
H271 C266 0.930 . S
H272 C267 0.930 . S
O273 Cu253 1.959 . S
O273 C260 1.251 . S
H274 C257 0.930 . S
H275 C268 0.929 . S
Cu276 N277 1.999 . S
Cu276 O282 1.974 . S
Cu276 N287 1.985 . S
Cu276 O296 1.959 . S
N277 Cu276 1.999 . S
N277 C279 1.263 . S
N277 C281 1.389 . S
N278 C279 1.358 . S
N278 C280 1.400 . S
C279 N277 1.263 . S
C279 N278 1.358 . S
C279 H285 0.930 . S
C280 N278 1.400 . S
C280 C281 1.351 . S
C280 H297 0.930 . S
C281 N277 1.389 . S
C281 C280 1.351 . S
C281 H286 0.930 . S
O282 Cu276 1.974 . S
O282 C292 1.282 . S
C283 O284 1.261 . S
C283 O296 1.251 . S
O284 C283 1.261 . S
H285 C279 0.930 . S
H286 C281 0.930 . S
N287 Cu276 1.985 . S
N287 C289 1.335 . S
N287 C290 1.390 . S
N288 C289 1.345 . S
N288 C291 1.336 . S
C289 N287 1.335 . S
C289 N288 1.345 . S
C289 H294 0.930 . S
C290 N287 1.390 . S
C290 C291 1.346 . S
C290 H295 0.930 . S
C291 N288 1.336 . S
C291 C290 1.346 . S
C291 H298 0.929 . S
C292 O282 1.282 . S
C292 O293 1.216 . S
O293 C292 1.216 . S
H294 C289 0.930 . S
H295 C290 0.930 . S
O296 Cu276 1.959 . S
O296 C283 1.251 . S
H297 C280 0.930 . S
H298 C291 0.929 . S
Cu299 N300 1.999 . S
Cu299 O305 1.974 . S
Cu299 N310 1.985 . S
Cu299 O319 1.959 . S
N300 Cu299 1.999 . S
N300 C302 1.263 . S
N300 C304 1.389 . S
N301 C302 1.358 . S
N301 C303 1.400 . S
C302 N300 1.263 . S
C302 N301 1.358 . S
C302 H308 0.930 . S
C303 N301 1.400 . S
C303 C304 1.351 . S
C303 H320 0.930 . S
C304 N300 1.389 . S
C304 C303 1.351 . S
C304 H309 0.930 . S
O305 Cu299 1.974 . S
O305 C315 1.282 . S
C306 O307 1.261 . S
C306 O319 1.251 . S
O307 C306 1.261 . S
H308 C302 0.930 . S
H309 C304 0.930 . S
N310 Cu299 1.985 . S
N310 C312 1.335 . S
N310 C313 1.390 . S
N311 C312 1.345 . S
N311 C314 1.336 . S
C312 N310 1.335 . S
C312 N311 1.345 . S
C312 H317 0.930 . S
C313 N310 1.390 . S
C313 C314 1.346 . S
C313 H318 0.930 . S
C314 N311 1.336 . S
C314 C313 1.346 . S
C314 H321 0.929 . S
C315 O305 1.282 . S
C315 O316 1.216 . S
O316 C315 1.216 . S
H317 C312 0.930 . S
H318 C313 0.930 . S
O319 Cu299 1.959 . S
O319 C306 1.251 . S
H320 C303 0.930 . S
H321 C314 0.929 . S
Cu322 N323 1.999 . S
Cu322 O328 1.974 . S
Cu322 N333 1.985 . S
Cu322 O342 1.959 . S
N323 Cu322 1.999 . S
N323 C325 1.263 . S
N323 C327 1.389 . S
N324 C325 1.358 . S
N324 C326 1.400 . S
C325 N323 1.263 . S
C325 N324 1.358 . S
C325 H331 0.930 . S
C326 N324 1.400 . S
C326 C327 1.351 . S
C326 H343 0.930 . S
C327 N323 1.389 . S
C327 C326 1.351 . S
C327 H332 0.930 . S
O328 Cu322 1.974 . S
O328 C338 1.282 . S
C329 O330 1.261 . S
C329 O342 1.251 . S
O330 C329 1.261 . S
H331 C325 0.930 . S
H332 C327 0.930 . S
N333 Cu322 1.985 . S
N333 C335 1.335 . S
N333 C336 1.390 . S
N334 C335 1.345 . S
N334 C337 1.336 . S
C335 N333 1.335 . S
C335 N334 1.345 . S
C335 H340 0.930 . S
C336 N333 1.390 . S
C336 C337 1.346 . S
C336 H341 0.930 . S
C337 N334 1.336 . S
C337 C336 1.346 . S
C337 H344 0.929 . S
C338 O328 1.282 . S
C338 O339 1.216 . S
O339 C338 1.216 . S
H340 C335 0.930 . S
H341 C336 0.930 . S
O342 Cu322 1.959 . S
O342 C329 1.251 . S
H343 C326 0.930 . S
H344 C337 0.929 . S
Cu345 N346 1.999 . S
Cu345 O351 1.974 . S
Cu345 N356 1.985 . S
Cu345 O365 1.959 . S
N346 Cu345 1.999 . S
N346 C348 1.263 . S
N346 C350 1.389 . S
N347 C348 1.358 . S
N347 C349 1.400 1_554 S
C348 N346 1.263 . S
C348 N347 1.358 . S
C348 H354 0.930 . S
C349 N347 1.400 1_556 S
C349 C350 1.351 1_556 S
C349 H366 0.930 . S
C350 N346 1.389 . S
C350 C349 1.351 1_554 S
C350 H355 0.930 . S
O351 Cu345 1.974 . S
O351 C361 1.282 . S
C352 O353 1.261 . S
C352 O365 1.251 . S
O353 C352 1.261 . S
H354 C348 0.930 . S
H355 C350 0.930 . S
N356 Cu345 1.985 . S
N356 C358 1.335 . S
N356 C359 1.390 . S
N357 C358 1.345 . S
N357 C360 1.336 . S
C358 N356 1.335 . S
C358 N357 1.345 . S
C358 H363 0.930 . S
C359 N356 1.390 . S
C359 C360 1.346 . S
C359 H364 0.930 . S
C360 N357 1.336 . S
C360 C359 1.346 . S
C360 H367 0.929 . S
C361 O351 1.282 . S
C361 O362 1.216 . S
O362 C361 1.216 . S
H363 C358 0.930 . S
H364 C359 0.930 . S
O365 Cu345 1.959 . S
O365 C352 1.251 . S
H366 C349 0.930 . S
H367 C360 0.929 . S
Cu368 N369 1.999 . S
Cu368 O374 1.974 . S
Cu368 N379 1.985 . S
Cu368 O388 1.959 . S
N369 Cu368 1.999 . S
N369 C371 1.263 . S
N369 C373 1.389 . S
N370 C371 1.358 . S
N370 C372 1.400 . S
C371 N369 1.263 . S
C371 N370 1.358 . S
C371 H377 0.930 . S
C372 N370 1.400 . S
C372 C373 1.351 . S
C372 H389 0.930 . S
C373 N369 1.389 . S
C373 C372 1.351 . S
C373 H378 0.930 . S
O374 Cu368 1.974 . S
O374 C384 1.282 . S
C375 O376 1.261 . S
C375 O388 1.251 . S
O376 C375 1.261 . S
H377 C371 0.930 . S
H378 C373 0.930 . S
N379 Cu368 1.985 . S
N379 C381 1.335 . S
N379 C382 1.390 . S
N380 C381 1.345 . S
N380 C383 1.336 . S
C381 N379 1.335 . S
C381 N380 1.345 . S
C381 H386 0.930 . S
C382 N379 1.390 . S
C382 C383 1.346 . S
C382 H387 0.930 . S
C383 N380 1.336 . S
C383 C382 1.346 . S
C383 H390 0.929 . S
C384 O374 1.282 . S
C384 O385 1.216 . S
O385 C384 1.216 . S
H386 C381 0.930 . S
H387 C382 0.930 . S
O388 Cu368 1.959 . S
O388 C375 1.251 . S
H389 C372 0.930 . S
H390 C383 0.929 . S
Cu391 N392 1.999 . S
Cu391 O397 1.974 . S
Cu391 N402 1.985 . S
Cu391 O411 1.959 . S
N392 Cu391 1.999 . S
N392 C394 1.263 . S
N392 C396 1.389 . S
N393 C394 1.358 . S
N393 C395 1.400 . S
C394 N392 1.263 . S
C394 N393 1.358 . S
C394 H400 0.930 . S
C395 N393 1.400 . S
C395 C396 1.351 . S
C395 H412 0.930 1_554 S
C396 N392 1.389 . S
C396 C395 1.351 . S
C396 H401 0.930 . S
O397 Cu391 1.974 . S
O397 C407 1.282 . S
C398 O399 1.261 . S
C398 O411 1.251 . S
O399 C398 1.261 . S
H400 C394 0.930 . S
H401 C396 0.930 . S
N402 Cu391 1.985 . S
N402 C404 1.335 . S
N402 C405 1.390 . S
N403 C404 1.345 . S
N403 C406 1.336 . S
C404 N402 1.335 . S
C404 N403 1.345 . S
C404 H409 0.930 . S
C405 N402 1.390 . S
C405 C406 1.346 . S
C405 H410 0.930 . S
C406 N403 1.336 . S
C406 C405 1.346 . S
C406 H413 0.929 . S
C407 O397 1.282 . S
C407 O408 1.216 . S
O408 C407 1.216 . S
H409 C404 0.930 . S
H410 C405 0.930 . S
O411 Cu391 1.959 . S
O411 C398 1.251 . S
H412 C395 0.930 1_556 S
H413 C406 0.929 . S
C414 O415 1.160 1_455 S
C414 O421 1.185 . S
O415 C414 1.160 1_655 S
O416 Zn417 1.899 1_655 S
O416 C424 1.284 . S
Zn417 O416 1.899 1_455 S
Zn417 O418 2.032 1_455 S
Zn417 O421 2.086 . S
Zn417 O426 1.977 . S
O418 Zn417 2.032 1_655 S
O418 C422 1.278 . S
C419 O420 1.203 . S
C419 O426 1.267 . S
O420 C419 1.203 . S
O421 C414 1.185 . S
O421 Zn417 2.086 . S
C422 O418 1.278 . S
C422 O423 1.211 1_655 S
O423 C422 1.211 1_455 S
C424 O416 1.284 . S
C424 O425 1.273 . S
O425 C424 1.273 . S
O426 Zn417 1.977 . S
O426 C419 1.267 . S
C427 O428 1.160 . S
C427 O434 1.185 . S
O428 C427 1.160 . S
O429 Zn430 1.899 . S
O429 C437 1.284 . S
Zn430 O429 1.899 . S
Zn430 O431 2.032 . S
Zn430 O434 2.086 . S
Zn430 O439 1.977 . S
O431 Zn430 2.032 . S
O431 C435 1.278 . S
C432 O433 1.203 . S
C432 O439 1.267 . S
O433 C432 1.203 . S
O434 C427 1.185 . S
O434 Zn430 2.086 . S
C435 O431 1.278 . S
C435 O436 1.211 . S
O436 C435 1.211 . S
C437 O429 1.284 . S
C437 O438 1.273 . S
O438 C437 1.273 . S
O439 Zn430 1.977 . S
O439 C432 1.267 . S
C440 O441 1.160 . S
C440 O447 1.185 . S
O441 C440 1.160 . S
O442 Zn443 1.899 . S
O442 C450 1.284 . S
Zn443 O442 1.899 . S
Zn443 O444 2.032 . S
Zn443 O447 2.086 . S
Zn443 O452 1.977 . S
O444 Zn443 2.032 . S
O444 C448 1.278 . S
C445 O446 1.203 . S
C445 O452 1.267 . S
O446 C445 1.203 . S
O447 C440 1.185 . S
O447 Zn443 2.086 . S
C448 O444 1.278 . S
C448 O449 1.211 . S
O449 C448 1.211 . S
C450 O442 1.284 . S
C450 O451 1.273 . S
O451 C450 1.273 . S
O452 Zn443 1.977 . S
O452 C445 1.267 . S
C453 O454 1.160 . S
C453 O460 1.187 . S
O454 C453 1.160 . S
O455 Zn456 1.899 . S
O455 C463 1.284 . S
Zn456 O455 1.899 . S
Zn456 O457 2.032 . S
Zn456 O460 2.093 . S
Zn456 O465 1.977 1_455 S
O457 Zn456 2.032 . S
O457 C461 1.278 . S
C458 O459 1.203 . S
C458 O465 1.267 . S
O459 C458 1.203 . S
O460 C453 1.187 . S
O460 Zn456 2.093 . S
C461 O457 1.278 . S
C461 O462 1.211 . S
O462 C461 1.211 . S
C463 O455 1.284 . S
C463 O464 1.273 . S
O464 C463 1.273 . S
O465 Zn456 1.977 1_655 S
O465 C458 1.267 . S
C466 O467 1.160 . S
C466 O473 1.185 . S
O467 C466 1.160 . S
O468 Zn469 1.899 . S
O468 C476 1.284 . S
Zn469 O468 1.899 . S
Zn469 O470 2.032 . S
Zn469 O473 2.086 . S
Zn469 O478 1.977 . S
O470 Zn469 2.032 . S
O470 C474 1.278 . S
C471 O472 1.203 . S
C471 O478 1.267 . S
O472 C471 1.203 . S
O473 C466 1.185 . S
O473 Zn469 2.086 . S
C474 O470 1.278 . S
C474 O475 1.211 . S
O475 C474 1.211 . S
C476 O468 1.284 . S
C476 O477 1.273 . S
O477 C476 1.273 . S
O478 Zn469 1.977 . S
O478 C471 1.267 . S
C479 O480 1.160 . S
C479 O486 1.185 1_545 S
O480 C479 1.160 . S
O481 Zn482 1.899 . S
O481 C489 1.284 1_565 S
Zn482 O481 1.899 . S
Zn482 O483 2.032 1_565 S
Zn482 O486 2.086 . S
Zn482 O491 1.977 . S
O483 Zn482 2.032 1_545 S
O483 C487 1.278 . S
C484 O485 1.203 . S
C484 O491 1.267 . S
O485 C484 1.203 . S
O486 C479 1.185 1_565 S
O486 Zn482 2.086 . S
C487 O483 1.278 . S
C487 O488 1.211 . S
O488 C487 1.211 . S
C489 O481 1.284 1_545 S
C489 O490 1.273 . S
O490 C489 1.273 . S
O491 Zn482 1.977 . S
O491 C484 1.267 . S
C492 O493 1.160 . S
C492 O499 1.185 . S
O493 C492 1.160 . S
O494 Zn495 1.899 . S
O494 C502 1.285 1_545 S
Zn495 O494 1.899 . S
Zn495 O496 2.032 1_545 S
Zn495 O499 2.086 1_545 S
Zn495 O504 1.977 . S
O496 Zn495 2.032 1_565 S
O496 C500 1.278 . S
C497 O498 1.203 . S
C497 O504 1.267 . S
O498 C497 1.203 . S
O499 C492 1.185 . S
O499 Zn495 2.086 1_565 S
C500 O496 1.278 . S
C500 O501 1.211 . S
O501 C500 1.211 . S
C502 O494 1.285 1_565 S
C502 O503 1.275 . S
O503 C502 1.275 . S
O504 Zn495 1.977 . S
O504 C497 1.267 . S
C505 O506 1.160 . S
C505 O512 1.185 . S
O506 C505 1.160 . S
O507 Zn508 1.899 1_655 S
O507 C515 1.284 . S
Zn508 O507 1.899 1_455 S
Zn508 O509 2.032 . S
Zn508 O512 2.086 . S
Zn508 O517 1.977 . S
O509 Zn508 2.032 . S
O509 C513 1.278 . S
C510 O511 1.203 . S
C510 O517 1.267 . S
O511 C510 1.203 . S
O512 C505 1.185 . S
O512 Zn508 2.086 . S
C513 O509 1.278 . S
C513 O514 1.211 . S
O514 C513 1.211 . S
C515 O507 1.284 . S
C515 O516 1.273 . S
O516 C515 1.273 . S
O517 Zn508 1.977 . S
O517 C510 1.267 . S
C518 O519 1.160 . S
C518 O525 1.185 . S
O519 C518 1.160 . S
O520 Zn521 1.899 . S
O520 C528 1.284 . S
Zn521 O520 1.899 . S
Zn521 O522 2.032 . S
Zn521 O525 2.086 . S
Zn521 O530 1.977 . S
O522 Zn521 2.032 . S
O522 C526 1.278 . S
C523 O524 1.203 . S
C523 O530 1.267 . S
O524 C523 1.203 . S
O525 C518 1.185 . S
O525 Zn521 2.086 . S
C526 O522 1.278 . S
C526 O527 1.211 . S
O527 C526 1.211 . S
C528 O520 1.284 . S
C528 O529 1.273 . S
O529 C528 1.273 . S
O530 Zn521 1.977 . S
O530 C523 1.267 . S
C531 O532 1.160 . S
C531 O538 1.185 . S
O532 C531 1.160 . S
O533 Zn534 1.899 . S
O533 C541 1.284 1_554 S
Zn534 O533 1.899 . S
Zn534 O535 2.032 . S
Zn534 O538 2.086 . S
Zn534 O543 1.977 . S
O535 Zn534 2.032 . S
O535 C539 1.278 . S
C536 O537 1.203 . S
C536 O543 1.267 . S
O537 C536 1.203 . S
O538 C531 1.185 . S
O538 Zn534 2.086 . S
C539 O535 1.278 . S
C539 O540 1.211 . S
O540 C539 1.211 . S
C541 O533 1.284 1_556 S
C541 O542 1.273 . S
O542 C541 1.273 . S
O543 Zn534 1.977 . S
O543 C536 1.267 . S
C544 O545 1.160 . S
C544 O551 1.185 . S
O545 C544 1.160 . S
O546 Zn547 1.899 . S
O546 C554 1.284 . S
Zn547 O546 1.899 . S
Zn547 O548 2.032 . S
Zn547 O551 2.086 . S
Zn547 O556 1.977 1_565 S
O548 Zn547 2.032 . S
O548 C552 1.278 . S
C549 O550 1.203 . S
C549 O556 1.267 . S
O550 C549 1.203 . S
O551 C544 1.185 . S
O551 Zn547 2.086 . S
C552 O548 1.278 . S
C552 O553 1.211 1_565 S
O553 C552 1.211 1_545 S
C554 O546 1.284 . S
C554 O555 1.273 . S
O555 C554 1.273 . S
O556 Zn547 1.977 1_545 S
O556 C549 1.267 . S
C557 O558 1.160 . S
C557 O564 1.185 . S
O558 C557 1.160 . S
O559 Zn560 1.899 . S
O559 C567 1.284 . S
Zn560 O559 1.899 . S
Zn560 O561 2.032 . S
Zn560 O564 2.086 . S
Zn560 O569 1.977 1_455 S
O561 Zn560 2.032 . S
O561 C565 1.278 . S
C562 O563 1.203 . S
C562 O569 1.267 . S
O563 C562 1.203 . S
O564 C557 1.185 . S
O564 Zn560 2.086 . S
C565 O561 1.278 . S
C565 O566 1.211 . S
O566 C565 1.211 . S
C567 O559 1.284 . S
C567 O568 1.273 . S
O568 C567 1.273 . S
O569 Zn560 1.977 1_655 S
O569 C562 1.267 . S
C570 O571 1.160 . S
C570 O577 1.185 . S
O571 C570 1.160 . S
O572 Zn573 1.899 . S
O572 C580 1.284 . S
Zn573 O572 1.899 . S
Zn573 O574 2.032 . S
Zn573 O577 2.086 . S
Zn573 O582 1.977 . S
O574 Zn573 2.032 . S
O574 C578 1.278 1_556 S
C575 O576 1.203 . S
C575 O582 1.267 . S
O576 C575 1.203 . S
O577 C570 1.185 . S
O577 Zn573 2.086 . S
C578 O574 1.278 1_554 S
C578 O579 1.211 . S
O579 C578 1.211 . S
C580 O572 1.284 . S
C580 O581 1.273 . S
O581 C580 1.273 . S
O582 Zn573 1.977 . S
O582 C575 1.267 . S
C583 O584 1.160 . S
C583 O590 1.185 1_554 S
O584 C583 1.160 . S
O585 Zn586 1.899 . S
O585 C593 1.284 . S
Zn586 O585 1.899 . S
Zn586 O587 2.032 . S
Zn586 O590 2.086 . S
Zn586 O595 1.977 . S
O587 Zn586 2.032 . S
O587 C591 1.278 . S
C588 O589 1.203 . S
C588 O595 1.267 . S
O589 C588 1.203 . S
O590 C583 1.185 1_556 S
O590 Zn586 2.086 . S
C591 O587 1.278 . S
C591 O592 1.211 . S
O592 C591 1.211 . S
C593 O585 1.284 . S
C593 O594 1.273 . S
O594 C593 1.273 . S
O595 Zn586 1.977 . S
O595 C588 1.267 . S
C596 O597 1.160 . S
C596 O603 1.194 . S
O597 C596 1.160 . S
O598 Zn599 1.899 . S
O598 C606 1.284 . S
Zn599 O598 1.899 . S
Zn599 O600 2.032 1_655 S
Zn599 O603 2.073 1_655 S
Zn599 O608 1.977 . S
O600 Zn599 2.032 1_455 S
O600 C604 1.278 . S
C601 O602 1.203 . S
C601 O608 1.267 . S
O602 C601 1.203 . S
O603 C596 1.194 . S
O603 Zn599 2.073 1_455 S
C604 O600 1.278 . S
C604 O605 1.211 . S
O605 C604 1.211 . S
C606 O598 1.284 . S
C606 O607 1.273 . S
O607 C606 1.273 . S
O608 Zn599 1.977 . S
O608 C601 1.267 . S
C609 O610 1.160 . S
C609 O616 1.185 . S
O610 C609 1.160 . S
O611 Zn612 1.899 . S
O611 C619 1.284 . S
Zn612 O611 1.899 . S
Zn612 O613 2.032 . S
Zn612 O616 2.086 . S
Zn612 O621 1.977 . S
O613 Zn612 2.032 . S
O613 C617 1.278 . S
C614 O615 1.203 . S
C614 O621 1.267 . S
O615 C614 1.203 . S
O616 C609 1.185 . S
O616 Zn612 2.086 . S
C617 O613 1.278 . S
C617 O618 1.211 . S
O618 C617 1.211 . S
C619 O611 1.284 . S
C619 O620 1.273 . S
O620 C619 1.273 . S
O621 Zn612 1.977 . S
O621 C614 1.267 . S
C622 O623 1.160 . S
C622 O629 1.185 . S
O623 C622 1.160 . S
O624 Zn625 1.899 . S
O624 C632 1.284 . S
Zn625 O624 1.899 . S
Zn625 O626 2.032 1_655 S
Zn625 O629 2.086 . S
Zn625 O634 1.977 . S
O626 Zn625 2.032 1_455 S
O626 C630 1.278 . S
C627 O628 1.204 . S
C627 O634 1.267 . S
O628 C627 1.204 . S
O629 C622 1.185 . S
O629 Zn625 2.086 . S
C630 O626 1.278 . S
C630 O631 1.211 . S
O631 C630 1.211 . S
C632 O624 1.284 . S
C632 O633 1.273 . S
O633 C632 1.273 . S
O634 Zn625 1.977 . S
O634 C627 1.267 . S
C635 O636 1.160 . S
C635 O642 1.185 . S
O636 C635 1.160 . S
O637 Zn638 1.899 . S
O637 C645 1.284 . S
Zn638 O637 1.899 . S
Zn638 O639 2.032 . S
Zn638 O642 2.086 . S
Zn638 O647 1.977 . S
O639 Zn638 2.032 . S
O639 C643 1.278 . S
C640 O641 1.203 . S
C640 O647 1.267 . S
O641 C640 1.203 . S
O642 C635 1.185 . S
O642 Zn638 2.086 . S
C643 O639 1.278 . S
C643 O644 1.211 . S
O644 C643 1.211 . S
C645 O637 1.284 . S
C645 O646 1.273 . S
O646 C645 1.273 . S
O647 Zn638 1.977 . S
O647 C640 1.267 . S
C7 C565 1.284 . S
C536 C39 2.085 . S
C552 C62 1.725 1_565 S
C76 C617 2.054 . S
C108 C627 1.381 1_455 S
N117 C640 1.673 . S
C596 C16 1.231 . S
C30 C575 2.117 . S
C593 C53 1.778 . S
C85 C502 2.186 1_545 S
C510 C99 1.789 . S
N127 C526 1.145 . S
N150 C643 0.961 . S
C614 N173 1.571 1_545 S
C630 C200 1.317 . S
C214 C461 1.701 . S
N232 C471 1.641 . S
C260 C484 1.453 . S
C440 N140 1.071 1_545 S
N163 C419 1.234 . S
C437 C191 1.854 . S
C580 C223 2.372 . S
C588 N242 1.660 1_545 S
C604 C269 1.505 . S
N288 C487 1.551 . S
C315 C458 1.490 . S
C338 C474 1.749 . S
C352 C539 2.008 . S
C549 N370 1.790 . S
C562 C398 1.644 . S
C518 N278 0.852 . S
C306 C497 1.899 . S
C329 C515 1.872 . S
C424 C361 1.766 . S
N380 C432 1.599 . S
C448 C407 1.408 . S
C453 N12 1.602 . S
N25 C476 2.065 . S
C489 N48 1.599 1_545 S
C479 N81 1.346 . S
C463 N94 2.054 . S
C466 C131 1.487 . S
C414 N2 1.881 . S
N35 C435 1.400 . S
N58 C445 1.534 . S
C450 N71 1.137 . S
C422 N104 1.332 1_655 S
C427 C122 1.612 . S
C145 C531 2.681 . S
C168 C554 2.375 . S
N186 C567 1.758 . S
C557 N219 1.103 1_554 S
C541 C246 2.238 . S
C544 N265 1.301 1_554 S
C492 C154 2.439 . S
C177 C513 2.262 . S
N196 C523 0.939 . S
N209 C528 0.783 . S
C237 C500 2.122 . S
C505 N255 1.250 . S
C283 C609 2.042 . S
N301 C632 1.752 . S
N324 C645 1.873 . S
C635 N357 0.907 . S
C619 C384 2.432 . S
N403 C622 1.002 . S
C292 C570 2.151 . S
C591 N311 1.355 . S
N334 C601 1.419 . S
N347 C606 1.397 1_554 S
C578 C375 2.268 . S
N393 C583 1.356 . S
