# Generated by pormake.
# Topology pth, (4,4)-cn, num edge types: 1
# Building blocks:
#     Node 0, Type 0, BuildingBlock: KUFVIS_clean_sbu_0, # of connection points: 4
#     Node 1, Type 0, BuildingBlock: KUFVIS_clean_sbu_0, # of connection points: 4
#     Node 2, Type 0, BuildingBlock: KUFVIS_clean_sbu_0, # of connection points: 4
#     Node 3, Type 1, BuildingBlock: NAWXER_clean_sbu_0, # of connection points: 4
#     Node 4, Type 1, BuildingBlock: NAWXER_clean_sbu_0, # of connection points: 4
#     Node 5, Type 1, BuildingBlock: NAWXER_clean_sbu_0, # of connection points: 4
#     Edge 6, Type (0, 1), BuildingBlock: ZUJKAS_clean_linker_0, # of connection points: 2
#     Edge 7, Type (0, 1), BuildingBlock: ZUJKAS_clean_linker_0, # of connection points: 2
#     Edge 8, Type (0, 1), BuildingBlock: ZUJKAS_clean_linker_0, # of connection points: 2
#     Edge 9, Type (0, 1), BuildingBlock: ZUJKAS_clean_linker_0, # of connection points: 2
#     Edge 10, Type (0, 1), BuildingBlock: ZUJKAS_clean_linker_0, # of connection points: 2
#     Edge 11, Type (0, 1), BuildingBlock: ZUJKAS_clean_linker_0, # of connection points: 2
#     Edge 12, Type (0, 1), BuildingBlock: ZUJKAS_clean_linker_0, # of connection points: 2
#     Edge 13, Type (0, 1), BuildingBlock: ZUJKAS_clean_linker_0, # of connection points: 2
#     Edge 14, Type (0, 1), BuildingBlock: ZUJKAS_clean_linker_0, # of connection points: 2
#     Edge 15, Type (0, 1), BuildingBlock: ZUJKAS_clean_linker_0, # of connection points: 2
#     Edge 16, Type (0, 1), BuildingBlock: ZUJKAS_clean_linker_0, # of connection points: 2
#     Edge 17, Type (0, 1), BuildingBlock: ZUJKAS_clean_linker_0, # of connection points: 2
# Relax obj value: 0.009
# Max RMSD: 0.080
# Mean RMSD: 0.046
data_MOF--net-pth--node1-KUFVIS_clean_sbu_0--node2-NAWXER_clean_sbu_0--edge1-ZUJKAS_clean_linker_0
_symmetry_space_group_name_H-M    P1
_symmetry_Int_Tables_number       1
_symmetry_cell_setting            triclinic
loop_
_symmetry_equiv_pos_as_xyz
'x, y, z'
_cell_length_a     29.314298
_cell_length_b     29.307912
_cell_length_c     74.736914
_cell_angle_alpha  90.387025
_cell_angle_beta   91.708605
_cell_angle_gamma 119.95434
loop_
_atom_site_label
_atom_site_type_symbol
_atom_site_fract_x
_atom_site_fract_y
_atom_site_fract_z
_atom_type_partial_charge
Mn0 Mn 0.06478 0.10553 0.07218 0.0
Mn1 Mn 0.0146 0.17069 0.04951 0.0
C2 C 1.00835 0.06586 0.04757 0.0
C3 C 0.05909 0.05045 0.09548 0.0
C4 C 0.1266 0.19252 0.04568 0.0
O5 O 0.07935 0.16588 0.08943 0.0
O6 O 0.03988 0.20305 0.07387 0.0
C7 C 0.92176 0.14079 0.07141 0.0
N8 N 0.94239 0.14203 0.05522 0.0
C9 C 0.85614 0.09738 0.04073 0.0
C10 C 0.83397 0.09593 0.05724 0.0
C11 C 0.86693 0.11764 0.07265 0.0
C12 C 0.91104 0.12103 0.04033 0.0
H13 H 0.94694 0.15722 0.0833 0.0
C14 C 0.06495 0.20025 0.08779 0.0
O15 O 0.10381 0.08161 0.08835 0.0
O16 O 0.01834 0.05264 0.08945 0.0
N17 N 0.98831 0.14357 0.02576 0.0
C18 C 0.01587 0.14722 0.01095 0.0
C19 C 0.98867 0.12685 0.99443 0.0
C20 C 0.93354 0.10343 0.99327 0.0
C21 C 0.90614 0.10099 0.00863 0.0
C22 C 0.93539 0.12232 0.02469 0.0
H23 H 0.05825 0.16524 0.01176 0.0
O24 O 0.03945 0.04899 0.05317 0.0
O25 O 0.01059 0.10482 0.05673 0.0
O26 O 0.12356 0.15707 0.05623 0.0
O27 O 0.08858 0.20137 0.04256 0.0
C28 C 0.85091 0.07781 0.00866 0.0
C29 C 0.8259 0.07575 0.02472 0.0
H30 H 0.7917 0.07797 0.05826 0.0
H31 H 0.85011 0.11644 0.08545 0.0
H32 H 0.01012 0.12902 0.98263 0.0
H33 H 0.91265 0.08734 0.98054 0.0
H34 H 0.82725 0.06101 0.99643 0.0
H35 H 0.78336 0.05723 0.02461 0.0
Mn36 Mn 0.03723 0.09863 0.406 0.0
Mn37 Mn 0.08329 0.21164 0.4303 0.0
C38 C 0.09654 0.11707 0.42978 0.0
C39 C 0.04378 0.05162 0.38184 0.0
C40 C 0.97431 0.11699 0.43437 0.0
O41 O 0.0188 0.14327 0.38987 0.0
O42 O 0.05404 0.21815 0.40666 0.0
C43 C 0.17212 0.2811 0.40782 0.0
N44 N 0.15399 0.25966 0.42399 0.0
C45 C 0.24144 0.30588 0.43755 0.0
C46 C 0.261 0.32875 0.42106 0.0
C47 C 0.22619 0.31623 0.40613 0.0
C48 C 0.18714 0.27141 0.43845 0.0
H49 H 0.14554 0.27137 0.39628 0.0
C50 C 0.0299 0.19091 0.39244 0.0
O51 O 0.99926 0.03604 0.38945 0.0
O52 O 0.08377 0.0954 0.38784 0.0
N53 N 0.11316 0.2111 0.45338 0.0
C54 C 0.08834 0.18374 0.46808 0.0
C55 C 0.11779 0.19084 0.48407 0.0
C56 C 0.17234 0.22617 0.48481 0.0
C57 C 0.19692 0.25428 0.46956 0.0
C58 C 0.16545 0.24599 0.45405 0.0
H59 H 0.04647 0.15636 0.46758 0.0
O60 O 0.06642 0.06894 0.42399 0.0
O61 O 0.09119 0.15301 0.42145 0.0
O62 O 0.97826 0.08722 0.42272 0.0
O63 O 0.01099 0.16413 0.43804 0.0
C64 C 0.25157 0.28944 0.46903 0.0
C65 C 0.27382 0.31517 0.45304 0.0
H66 H 0.30272 0.35561 0.41967 0.0
H67 H 0.24103 0.33351 0.39333 0.0
H68 H 0.09854 0.16894 0.49578 0.0
H69 H 0.195 0.23116 0.49711 0.0
H70 H 0.27693 0.29641 0.48079 0.0
H71 H 0.31597 0.34158 0.45273 0.0
Mn72 Mn 0.05962 0.09098 0.73905 0.0
Mn73 Mn 0.01522 0.15991 0.76209 0.0
C74 C 0.11044 0.14718 0.76259 0.0
C75 C 0.10388 0.07974 0.71546 0.0
C76 C 0.97769 0.04475 0.76818 0.0
O77 O 1.00151 0.08656 0.72217 0.0
O78 O 0.97539 0.13281 0.73888 0.0
C79 C 0.04963 0.24861 0.73726 0.0
N80 N 0.04911 0.23079 0.75408 0.0
C81 C 0.09907 0.31926 0.76621 0.0
C82 C 0.09988 0.33859 0.74904 0.0
C83 C 0.07524 0.30309 0.73449 0.0
C84 C 0.07311 0.26458 0.76813 0.0
H85 H 0.03061 0.22148 0.72605 0.0
C86 C 0.97221 0.10659 0.72467 0.0
O87 O 0.06784 0.03992 0.72377 0.0
O88 O 0.11333 0.12624 0.72054 0.0
N89 N 0.04964 0.18971 0.78479 0.0
C90 C 0.04729 0.1647 0.80032 0.0
C91 C 0.06967 0.19456 0.8162 0.0
C92 C 0.094 0.24974 0.81595 0.0
C93 C 0.09645 0.27462 0.79979 0.0
C94 C 0.07266 0.24279 0.78446 0.0
H95 H 0.02822 0.1223 0.80062 0.0
O96 O 0.11724 0.10869 0.75742 0.0
O97 O 0.07424 0.15217 0.75377 0.0
O98 O 1.00479 0.03973 0.7561 0.0
O99 O 0.97883 0.08804 0.77164 0.0
C100 C 0.12187 0.32977 0.79827 0.0
C101 C 0.12347 0.35209 0.78147 0.0
H102 H 0.11957 0.38058 0.74686 0.0
H103 H 0.07587 0.31769 0.72119 0.0
H104 H 0.06799 0.1751 0.82862 0.0
H105 H 0.1111 0.27267 0.82824 0.0
H106 H 0.14085 0.35539 0.8099 0.0
H107 H 0.14374 0.39454 0.78041 0.0
C108 C 0.08609 0.68668 0.26415 0.0
C109 C 0.09701 0.57036 0.21908 0.0
O110 O 0.12794 0.68868 0.25888 0.0
Zn111 Zn 0.09415 0.62985 0.24166 0.0
O112 O 0.04129 0.65137 0.25746 0.0
Zn113 Zn 0.00978 0.58831 0.23807 0.0
O114 O 0.96744 0.52707 0.25241 0.0
O115 O 0.05291 0.56335 0.2583 0.0
O116 O 0.04996 0.5603 0.22184 0.0
O117 O 0.13558 0.60832 0.22768 0.0
O118 O 0.06364 0.66052 0.22176 0.0
O119 O 0.97688 0.61258 0.22044 0.0
C120 C 1.00553 0.5274 0.26116 0.0
C121 C 0.01909 0.65127 0.21496 0.0
C122 C 0.61117 0.11266 0.59139 0.0
C123 C 0.49314 0.12889 0.54732 0.0
O124 O 0.57213 0.06842 0.58591 0.0
Zn125 Zn 0.50483 0.03895 0.56807 0.0
O126 O 0.61537 0.15523 0.58555 0.0
Zn127 Zn 0.55298 0.12327 0.56955 0.0
O128 O 0.48986 0.09052 0.58761 0.0
O129 O 0.44608 1.00408 0.58395 0.0
O130 O 0.53421 0.16663 0.55498 0.0
O131 O 0.47942 0.08123 0.55112 0.0
O132 O 0.52002 0.99855 0.55088 0.0
O133 O 0.57374 0.08445 0.54972 0.0
C134 C 0.45193 0.04541 0.59183 0.0
C135 C 0.55889 0.03763 0.54393 0.0
C136 C 0.53572 0.52589 0.93198 0.0
C137 C 0.65097 0.63367 0.88487 0.0
O138 O 0.52333 0.55868 0.92535 0.0
Zn139 Zn 0.54972 0.61786 0.90539 0.0
O140 O 0.57545 0.52443 0.92626 0.0
Zn141 Zn 0.59541 0.57968 0.90885 0.0
O142 O 0.61956 0.64757 0.92569 0.0
O143 O 0.56987 0.68253 0.91896 0.0
O144 O 0.65712 0.60134 0.89447 0.0
O145 O 0.61293 0.64213 0.88766 0.0
O146 O 0.48931 0.58874 0.88886 0.0
O147 O 0.53081 0.5432 0.88944 0.0
C148 C 0.60742 0.68342 0.9282 0.0
C149 C 0.4935 0.55003 0.88315 0.0
H150 H 0.12019 0.21221 0.11964 0.0
H151 H 0.14093 0.27777 0.14369 0.0
H152 H 0.0597 0.34234 0.11348 0.0
H153 H 0.03927 0.27788 0.08943 0.0
H154 H 0.15851 0.41934 0.12849 0.0
H155 H 0.03279 0.27434 0.17853 0.0
H156 H 0.08159 0.26328 0.16853 0.0
H157 H 0.0273 0.25759 0.15498 0.0
C158 C 0.1067 0.24033 0.11811 0.0
C159 C 0.07783 0.23947 0.10257 0.0
C160 C 0.11853 0.2777 0.13189 0.0
C161 C 0.10153 0.31467 0.13041 0.0
C162 C 0.0733 0.31424 0.11488 0.0
H163 H 0.02159 0.48913 0.19863 0.0
H164 H 0.03182 0.42998 0.17836 0.0
C165 C 0.06149 0.2771 0.10115 0.0
C166 C 0.11171 0.35341 0.14505 0.0
H167 H 0.07409 0.36382 0.18696 0.0
C168 C 0.1408 0.40735 0.1414 0.0
C169 C 0.08827 0.33749 0.16182 0.0
C170 C 0.0554 0.28008 0.16627 0.0
C171 C 0.1453 0.44575 0.15381 0.0
C172 C 0.12049 0.42971 0.17035 0.0
C173 C 0.0933 0.37593 0.17429 0.0
C174 C 0.11626 0.46707 0.18272 0.0
C175 C 0.17397 0.50291 0.14877 0.0
C176 C 0.16057 0.50794 0.19191 0.0
C177 C 0.15491 0.54233 0.2036 0.0
C178 C 0.10481 0.53614 0.20629 0.0
C179 C 0.0608 0.49522 0.19694 0.0
C180 C 0.06649 0.46112 0.18535 0.0
H181 H 0.18486 0.50802 0.13451 0.0
H182 H 0.14923 0.52105 0.15119 0.0
H183 H 0.2106 0.5246 0.15725 0.0
H184 H 0.19931 0.51286 0.19019 0.0
H185 H 0.18953 0.57326 0.21066 0.0
H186 H 0.95754 0.16055 0.46412 0.0
H187 H 0.87697 0.12742 0.48058 0.0
H188 H 0.79846 0.99354 0.44413 0.0
H189 H 0.87941 0.02634 0.42744 0.0
H190 H 0.74212 0.05003 0.45112 0.0
H191 H 0.81036 0.9972 0.51344 0.0
H192 H 0.85577 0.06183 0.5058 0.0
H193 H 0.84182 1.00491 0.49235 0.0
C194 C 0.92335 0.12392 0.45957 0.0
C195 C 0.92513 0.0961 0.44442 0.0
C196 C 0.87737 0.10488 0.4691 0.0
C197 C 0.83205 0.05768 0.46373 0.0
C198 C 0.83326 0.02984 0.44857 0.0
H199 H 0.56449 0.94913 0.53531 0.0
H200 H 0.62311 0.94261 0.51381 0.0
C201 C 0.87955 0.04865 0.43907 0.0
C202 C 0.78308 0.03929 0.47364 0.0
H203 H 0.73558 0.00945 0.51567 0.0
C204 C 0.74017 0.04009 0.46514 0.0
C205 C 0.78036 0.02568 0.49185 0.0
C206 C 0.82433 0.0218 0.50139 0.0
C207 C 0.69607 0.03116 0.47473 0.0
C208 C 0.69517 0.02152 0.49328 0.0
C209 C 0.73645 0.01711 0.50147 0.0
C210 C 0.65543 0.02256 0.50482 0.0
C211 C 0.65156 0.03381 0.46509 0.0
C212 C 0.65419 0.06951 0.50682 0.0
C213 C 0.62138 0.07345 0.5191 0.0
C214 C 0.58891 0.03046 0.52967 0.0
C215 C 0.58881 0.98277 0.52727 0.0
C216 C 0.6223 0.97904 0.51505 0.0
H217 H 0.65018 0.02519 0.45052 0.0
H218 H 0.613 1.00565 0.47067 0.0
H219 H 0.65763 0.07416 0.46674 0.0
H220 H 0.68009 0.10386 0.49932 0.0
H221 H 0.62236 0.11073 0.52059 0.0
H222 H 0.94414 0.94069 0.76071 0.0
H223 H 0.88907 0.86471 0.77889 0.0
H224 H 0.88364 0.96833 0.81897 0.0
H225 H 0.93642 0.04395 0.80059 0.0
H226 H 0.90237 0.83598 0.81126 0.0
H227 H 0.73053 0.86587 0.81148 0.0
H228 H 0.78504 0.90226 0.79719 0.0
H229 H 0.78887 0.9229 0.82023 0.0
C230 C 0.93089 0.94726 0.77335 0.0
C231 C 0.94428 0.99844 0.77909 0.0
C232 C 0.89953 0.90378 0.78375 0.0
C233 C 0.88126 0.9106 0.80015 0.0
C234 C 0.89581 0.96178 0.80612 0.0
H235 H 0.7586 0.68896 0.88695 0.0
H236 H 0.81643 0.75261 0.86528 0.0
C237 C 0.92634 1.00512 0.79561 0.0
C238 C 0.84727 0.86439 0.8111 0.0
H239 H 0.73205 0.80697 0.83306 0.0
C240 C 0.86483 0.82926 0.81589 0.0
C241 C 0.79782 0.85494 0.81687 0.0
C242 C 0.7742 0.88818 0.81101 0.0
C243 C 0.83489 0.78574 0.82664 0.0
C244 C 0.78685 0.77811 0.83325 0.0
C245 C 0.769 0.81279 0.82815 0.0
C246 C 0.75389 0.73473 0.84543 0.0
C247 C 0.85469 0.74803 0.83047 0.0
C248 C 0.6995 0.70338 0.84161 0.0
C249 C 0.66651 0.66841 0.85418 0.0
C250 C 0.68728 0.66303 0.87066 0.0
C251 C 0.74192 0.69182 0.87416 0.0
C252 C 0.77495 0.72802 0.86173 0.0
H253 H 0.8808 0.7488 0.81985 0.0
H254 H 0.87812 0.75994 0.84331 0.0
H255 H 0.82166 0.70702 0.83155 0.0
H256 H 0.68218 0.70754 0.82916 0.0
H257 H 0.62439 0.64668 0.85124 0.0
H258 H 0.96952 0.97924 0.11156 0.0
H259 H 0.95853 0.9097 0.13182 0.0
H260 H 0.1246 0.96306 0.13016 0.0
H261 H 0.13588 0.03251 0.10963 0.0
H262 H 0.06029 0.85481 0.12386 0.0
H263 H 1.00124 0.91877 0.18479 0.0
H264 H 0.96272 0.91299 0.16487 0.0
H265 H 0.0315 0.9619 0.16635 0.0
C266 C 1.0039 0.97668 0.11567 0.0
C267 C 0.05365 0.01151 0.10901 0.0
C268 C 0.99754 0.93699 0.12733 0.0
C269 C 0.04082 0.93156 0.13267 0.0
C270 C 0.0907 0.96672 0.12626 0.0
H271 H 0.10264 0.7278 0.19789 0.0
H272 H 0.10362 0.7919 0.17714 0.0
C273 C 0.09711 0.00646 0.11457 0.0
C274 C 0.03359 0.88751 0.14417 0.0
H275 H 0.99437 0.83467 0.18533 0.0
C276 C 0.04599 0.85047 0.13731 0.0
C277 C 0.01441 0.88162 0.16166 0.0
C278 C 1.00209 0.92113 0.16996 0.0
C279 C 0.03981 0.80776 0.14746 0.0
C280 C 0.02144 0.80233 0.16504 0.0
C281 C 1.00816 0.83879 0.17181 0.0
C282 C 0.01951 0.7614 0.17705 0.0
C283 C 0.05276 0.7686 0.13925 0.0
C284 C 0.97181 0.72316 0.18409 0.0
C285 C 0.97103 0.68613 0.19606 0.0
C286 C 0.01809 0.68733 0.20134 0.0
C287 C 0.0656 0.72557 0.19412 0.0
C288 C 0.06628 0.76218 0.18215 0.0
H289 H 0.05156 0.76946 0.12439 0.0
H290 H 0.09317 0.77862 0.14378 0.0
H291 H 0.02499 0.72795 0.14346 0.0
H292 H 0.93531 0.72217 0.18039 0.0
H293 H 0.93387 0.65741 0.20146 0.0
H294 H 0.19946 0.18498 0.42418 0.0
H295 H 0.27573 0.20235 0.4436 0.0
H296 H 0.17154 0.09074 0.48127 0.0
H297 H 0.09518 0.07421 0.46198 0.0
H298 H 0.25425 0.18651 0.49738 0.0
H299 H 0.32744 0.09583 0.44862 0.0
H300 H 0.31799 0.14806 0.44033 0.0
H301 H 0.26209 0.08723 0.44663 0.0
C302 C 0.19302 0.16502 0.43679 0.0
C303 C 0.14173 0.12958 0.44197 0.0
C304 C 0.23648 0.1745 0.44775 0.0
C305 C 0.22924 0.14774 0.46384 0.0
C306 C 0.1779 0.11207 0.46896 0.0
H307 H 0.40854 0.05549 0.52753 0.0
H308 H 0.35052 0.06888 0.50708 0.0
C309 C 0.13445 0.10254 0.45798 0.0
C310 C 0.275 0.15484 0.47501 0.0
H311 H 0.37607 0.12853 0.47581 0.0
C312 C 0.28132 0.17442 0.49265 0.0
C313 C 0.31002 0.13881 0.46875 0.0
C314 C 0.30407 0.11592 0.4501 0.0
C315 C 0.32085 0.17687 0.50441 0.0
C316 C 0.35517 0.15982 0.49824 0.0
C317 C 0.34991 0.14194 0.48042 0.0
C318 C 0.39219 0.15368 0.51056 0.0
C319 C 0.32399 0.19517 0.52355 0.0
C320 C 0.43542 0.19714 0.51921 0.0
C321 C 0.46906 0.18962 0.53104 0.0
C322 C 0.45982 0.13852 0.53435 0.0
C323 C 0.41687 0.0954 0.52539 0.0
C324 C 0.38359 0.10294 0.51364 0.0
H325 H 0.28976 0.19976 0.52682 0.0
H326 H 0.32593 0.16684 0.5329 0.0
H327 H 0.36043 0.23381 0.52583 0.0
H328 H 0.44311 0.23672 0.51682 0.0
H329 H 0.50184 0.22363 0.5377 0.0
H330 H 0.15425 0.13272 0.79311 0.0
H331 H 0.22178 0.20084 0.81329 0.0
H332 H 0.22136 0.32111 0.78033 0.0
H333 H 0.15839 0.25305 0.75929 0.0
H334 H 0.31473 0.35078 0.78954 0.0
H335 H 0.22382 0.23621 0.84408 0.0
H336 H 0.17739 0.24485 0.83046 0.0
H337 H 0.20293 0.28108 0.85129 0.0
C338 C 0.16857 0.1738 0.79032 0.0
C339 C 0.14907 0.18788 0.77524 0.0
C340 C 0.20677 0.21273 0.80192 0.0
C341 C 0.22525 0.26638 0.79886 0.0
C342 C 0.20717 0.28016 0.78331 0.0
H343 H 0.39736 0.53676 0.87209 0.0
H344 H 0.33268 0.46937 0.85094 0.0
C345 C 0.17037 0.2413 0.77144 0.0
C346 C 0.26497 0.30857 0.81126 0.0
H347 H 0.29321 0.35096 0.85508 0.0
C348 C 0.30952 0.3508 0.80384 0.0
C349 C 0.25898 0.30877 0.83005 0.0
C350 C 0.21292 0.26545 0.83936 0.0
C351 C 0.34766 0.39292 0.81455 0.0
C352 C 0.34142 0.39281 0.83319 0.0
C353 C 0.29739 0.35092 0.84071 0.0
C354 C 0.38121 0.43505 0.84523 0.0
C355 C 0.39434 0.43751 0.80591 0.0
C356 C 0.42963 0.43778 0.84894 0.0
C357 C 0.46631 0.47574 0.86105 0.0
C358 C 0.45532 0.51188 0.86964 0.0
C359 C 0.40705 0.50964 0.86564 0.0
C360 C 0.37008 0.47118 0.85362 0.0
H361 H 0.38908 0.43607 0.79109 0.0
H362 H 0.40102 0.47606 0.8111 0.0
H363 H 0.4302 0.43514 0.80932 0.0
H364 H 0.43865 0.4099 0.84268 0.0
H365 H 0.50316 0.47645 0.86379 0.0
H366 H 0.89875 0.13756 0.72645 0.0
H367 H 0.8394 0.13577 0.7027 0.0
H368 H 0.89882 0.06463 0.66638 0.0
H369 H 0.95948 0.06672 0.69019 0.0
H370 H 0.89192 0.1514 0.65216 0.0
H371 H 0.70559 1.00591 0.68239 0.0
H372 H 0.74826 0.0597 0.69735 0.0
H373 H 0.7689 0.01481 0.68964 0.0
C374 C 0.89921 0.12108 0.71349 0.0
C375 C 0.93392 0.10201 0.7103 0.0
C376 C 0.86497 0.11997 0.69992 0.0
C377 C 0.86424 0.0995 0.68286 0.0
C378 C 0.89865 0.08036 0.67952 0.0
H379 H 0.61784 0.02791 0.60246 0.0
H380 H 0.68173 0.02616 0.62355 0.0
C381 C 0.93307 0.08135 0.69316 0.0
C382 C 0.8281 0.09942 0.66854 0.0
H383 H 0.6982 0.05538 0.65846 0.0
C384 C 0.84952 0.13007 0.65342 0.0
C385 C 0.77283 0.07128 0.67018 0.0
C386 C 0.74741 0.03565 0.68568 0.0
C387 C 0.81707 0.13428 0.64007 0.0
C388 C 0.7619 0.10778 0.64208 0.0
C389 C 0.74054 0.07623 0.65703 0.0
C390 C 0.72509 0.1104 0.6286 0.0
C391 C 0.84207 0.16648 0.62384 0.0
C392 C 0.72806 0.15849 0.6244 0.0
C393 C 0.69145 0.15974 0.61219 0.0
C394 C 0.65095 0.1128 0.60415 0.0
C395 C 0.6483 0.06485 0.60843 0.0
C396 C 0.6849 0.06371 0.62049 0.0
H397 H 0.88226 0.17267 0.62209 0.0
H398 H 0.81768 0.14717 0.61149 0.0
H399 H 0.84544 0.20571 0.6255 0.0
H400 H 0.75809 0.19492 0.63079 0.0
H401 H 0.69445 0.19724 0.60923 0.0
H402 H 0.90362 0.01873 0.05256 0.0
H403 H 0.83201 0.95763 0.03191 0.0
H404 H 0.94573 0.98047 0.99245 0.0
H405 H 0.01737 0.03909 0.01357 0.0
H406 H 0.7946 0.9627 1.0004 0.0
H407 H 0.87161 0.82518 0.99505 0.0
H408 H 0.89962 0.88012 0.01076 0.0
H409 H 0.91804 0.88955 0.9877 0.0
C410 C 0.91302 0.0108 0.0394 0.0
C411 C 0.96559 0.03395 0.03442 0.0
C412 C 0.87222 0.97594 0.02762 0.0
C413 C 0.88341 0.96355 0.01071 0.0
C414 C 0.93609 0.98809 1.00559 0.0
H415 H 0.64303 0.78897 0.92562 0.0
H416 H 0.70782 0.85942 0.94585 0.0
C417 C 0.97694 0.02193 0.01754 0.0
C418 C 0.84013 0.92365 0.99876 0.0
H419 H 0.80106 0.80958 0.97493 0.0
C420 C 0.79594 0.92916 0.99484 0.0
C421 C 0.84118 0.8791 0.99183 0.0
C422 C 0.88488 0.86778 0.99671 0.0
C423 C 0.75303 0.89164 0.98414 0.0
C424 C 0.7551 0.84823 0.97666 0.0
C425 C 0.79939 0.84292 0.98056 0.0
C426 C 0.71154 0.80652 0.96522 0.0
C427 C 0.70542 0.89819 0.98147 0.0
C428 C 0.6921 0.75335 0.96924 0.0
C429 C 0.65655 0.71343 0.95746 0.0
C430 C 0.63867 0.72569 0.94159 0.0
C431 C 0.65573 0.77862 0.93793 0.0
C432 C 0.69256 0.81884 0.94954 0.0
H433 H 0.7032 0.92298 0.99234 0.0
H434 H 0.70824 0.9181 0.96864 0.0
H435 H 0.66839 0.85952 0.98097 0.0
H436 H 0.70582 0.74267 0.98126 0.0
H437 H 0.64387 0.67284 0.96058 0.0
H438 H 0.13394 0.07198 0.36552 0.0
H439 H 0.14598 0.01477 0.34454 0.0
H440 H 0.98061 0.8999 0.34616 0.0
H441 H 0.96808 0.95702 0.36708 0.0
H442 H 0.12486 0.91132 0.35104 0.0
H443 H 1.0076 0.91657 0.29226 0.0
H444 H 0.02977 0.9644 0.31052 0.0
H445 H 0.97304 0.90018 0.31278 0.0
C446 C 0.09994 0.03486 0.36123 0.0
C447 C 0.04997 0.0191 0.36792 0.0
C448 C 0.10697 1.00217 0.34929 0.0
C449 C 0.06414 0.95335 0.34367 0.0
C450 C 0.01404 0.93784 0.35009 0.0
H451 H 1.00347 0.68243 0.28117 0.0
H452 H 1.00322 0.74909 0.30069 0.0
C453 C 1.00697 0.97046 0.36209 0.0
C454 C 0.07225 0.91751 0.33177 0.0
H455 H 0.03286 0.85101 0.29153 0.0
C456 C 0.1052 0.89846 0.33794 0.0
C457 C 0.04665 0.90099 0.3147 0.0
C458 C 0.01265 0.92191 0.30706 0.0
C459 C 0.11158 0.86163 0.32778 0.0
C460 C 0.08501 0.84421 0.31087 0.0
C461 C 0.0531 0.86432 0.30453 0.0
C462 C 0.08712 0.80296 0.29989 0.0
C463 C 0.14502 0.84017 0.3355 0.0
C464 C 0.13463 0.81077 0.29308 0.0
C465 C 0.13502 0.77232 0.2819 0.0
C466 C 0.08778 0.72576 0.27724 0.0
C467 C 0.04058 0.71788 0.2844 0.0
C468 C 0.04029 0.75601 0.29556 0.0
H469 H 0.15313 0.84871 0.35012 0.0
H470 H 0.12553 0.79691 0.33313 0.0
H471 H 0.18331 0.85866 0.32884 0.0
H472 H 0.17113 0.84711 0.29602 0.0
H473 H 0.17193 0.77973 0.27651 0.0
H474 H 0.18909 0.15581 0.69849 0.0
H475 H 0.24414 0.14309 0.67728 0.0
H476 H 0.14469 0.9747 0.68015 0.0
H477 H 0.08935 0.98697 0.70131 0.0
H478 H 0.2979 0.08478 0.68472 0.0
H479 H 0.15877 1.00278 0.62555 0.0
H480 H 0.15007 0.0391 0.64347 0.0
H481 H 0.13408 0.97211 0.64656 0.0
C482 C 0.17853 0.11607 0.69444 0.0
C483 C 0.13481 0.0724 0.70156 0.0
C484 C 0.21009 0.10888 0.68236 0.0
C485 C 0.19822 0.05797 0.67704 0.0
C486 C 0.15408 0.01431 0.68387 0.0
H487 H 0.36313 0.9582 0.60366 0.0
H488 H 0.30094 0.95686 0.62529 0.0
C489 C 0.12264 0.02144 0.69602 0.0
C490 C 0.23368 0.05068 0.66509 0.0
H491 H 0.24088 0.00674 0.62339 0.0
C492 C 0.28545 0.06767 0.67131 0.0
C493 C 0.21707 0.02769 0.64771 0.0
C494 C 0.1621 0.00963 0.64029 0.0
C495 C 0.32129 0.06274 0.66057 0.0
C496 C 0.30528 0.04133 0.64296 0.0
C497 C 0.25307 0.0231 0.63689 0.0
C498 C 0.34321 0.0412 0.63026 0.0
C499 C 0.37595 0.08031 0.66824 0.0
C500 C 0.38717 0.08897 0.62576 0.0
C501 C 0.42261 0.08984 0.61355 0.0
C502 C 0.41474 0.04294 0.60535 0.0
C503 C 0.37051 0.99496 0.6098 0.0
C504 C 0.33491 0.99415 0.62211 0.0
H505 H 0.37659 0.07938 0.6831 0.0
H506 H 0.3913 0.05515 0.66308 0.0
H507 H 0.40291 0.1215 0.66437 0.0
H508 H 0.39373 0.12587 0.63153 0.0
H509 H 0.45594 0.12761 0.61038 0.0
H510 H 0.21206 0.17786 0.04345 0.0
H511 H 0.29291 0.2314 0.02725 0.0
H512 H 0.23427 0.33366 0.01048 0.0
H513 H 0.15378 0.28086 0.02645 0.0
H514 H 0.29872 0.25586 0.98874 0.0
H515 H 0.38464 0.43368 0.03326 0.0
H516 H 0.33525 0.36943 0.04044 0.0
H517 H 0.31642 0.40837 0.02697 0.0
C518 C 0.21651 0.21195 0.03641 0.0
C519 C 0.17636 0.22508 0.03632 0.0
C520 C 0.26267 0.24237 0.02714 0.0
C521 C 0.26974 0.28679 0.01788 0.0
C522 C 0.22988 0.29997 0.01778 0.0
H523 H 0.45103 0.52312 0.94699 0.0
H524 H 0.39352 0.46253 0.96895 0.0
C525 C 0.18372 0.2695 0.02687 0.0
C526 C 0.31775 0.31893 0.00772 0.0
H527 H 0.41805 0.44529 1.00379 0.0
C528 C 0.32561 0.29702 0.99217 0.0
C529 C 0.35266 0.37249 0.01231 0.0
C530 C 0.34725 0.39739 0.02925 0.0
C531 C 0.36543 0.32832 0.98041 0.0
C532 C 0.39863 0.38261 0.98455 0.0
C533 C 0.3925 0.40369 1.00062 0.0
C534 C 0.4355 0.41951 0.97148 0.0
C535 C 0.36954 0.30386 0.96315 0.0
C536 C 0.47876 0.41586 0.96568 0.0
C537 C 0.51202 0.45068 0.95296 0.0
C538 C 0.50251 0.48971 0.94592 0.0
C539 C 0.4596 0.49355 0.95204 0.0
C540 C 0.42662 0.45895 0.96466 0.0
H541 H 0.33561 0.26349 0.96068 0.0
H542 H 0.37174 0.32855 0.95163 0.0
H543 H 0.40613 0.30144 0.96373 0.0
H544 H 0.48679 0.38618 0.97099 0.0
H545 H 0.54482 0.44679 0.94858 0.0
H546 H 0.04809 0.292 0.39266 0.0
H547 H 0.02702 0.33609 0.36909 0.0
H548 H 0.95709 0.19394 0.33633 0.0
H549 H 0.97869 0.14923 0.35985 0.0
H550 H 0.02543 0.28022 0.31806 0.0
H551 H 0.88792 0.32408 0.35314 0.0
H552 H 0.94828 0.34625 0.36598 0.0
H553 H 0.90572 0.27691 0.36124 0.0
C554 C 0.02776 0.26969 0.38055 0.0
C555 C 0.01503 0.21686 0.37823 0.0
C556 C 0.01531 0.29497 0.36711 0.0
C557 C 0.98946 0.26804 0.35109 0.0
C558 C 0.97654 0.2153 0.34868 0.0
H559 H 0.91171 0.44079 0.27017 0.0
H560 H 0.90009 0.37082 0.29072 0.0
C561 C 0.989 0.18985 0.36215 0.0
C562 C 0.97988 0.29657 0.33644 0.0
H563 H 0.93058 0.3784 0.32786 0.0
C564 C 1.00383 0.30086 0.32008 0.0
C565 C 0.95095 0.32283 0.33894 0.0
C566 C 0.92128 0.31684 0.35572 0.0
C567 C 1.00259 0.33346 0.30664 0.0
C568 C 0.97744 0.36313 0.30975 0.0
C569 C 0.95045 0.35616 0.3256 0.0
C570 C 0.98325 0.40515 0.2975 0.0
C571 C 0.02942 0.33687 0.28938 0.0
C572 C 0.03355 0.44808 0.29491 0.0
C573 C 0.04026 0.48787 0.28334 0.0
C574 C 0.99673 0.48589 0.27411 0.0
C575 C 0.94603 0.44342 0.27704 0.0
C576 C 0.93934 0.40343 0.28873 0.0
H577 H 0.03191 0.30082 0.28678 0.0
H578 H 1.00829 0.34268 0.27782 0.0
H579 H 0.07019 0.3709 0.29032 0.0
H580 H 0.06782 0.45082 0.30187 0.0
H581 H 0.07987 0.52006 0.28155 0.0
loop_
_geom_bond_atom_site_label_1
_geom_bond_atom_site_label_2
_geom_bond_distance
_geom_bond_site_symmetry_2
_ccdc_geom_bond_type
Mn0 O5 2.095 . S
Mn0 O15 2.162 . S
Mn0 O16 2.297 . S
Mn0 O24 2.385 . S
Mn0 O25 2.206 1_455 S
Mn0 O26 2.094 . S
Mn1 O6 2.121 . S
Mn1 N8 2.257 1_455 S
Mn1 N17 2.282 1_455 S
Mn1 O25 2.216 1_455 S
Mn1 O27 2.117 . S
C2 O24 1.234 1_655 S
C2 O25 1.282 . S
C3 O15 1.281 . S
C3 O16 1.236 . S
C4 O26 1.240 . S
C4 O27 1.264 . S
O5 Mn0 2.095 . S
O5 C14 1.250 . S
O6 Mn1 2.121 . S
O6 C14 1.258 . S
C7 N8 1.326 . S
C7 C11 1.460 . S
C7 H13 0.929 . S
N8 Mn1 2.257 1_655 S
N8 C7 1.326 . S
N8 C12 1.362 . S
C9 C10 1.258 . S
C9 C12 1.431 . S
C9 C29 1.449 . S
C10 C9 1.258 . S
C10 C11 1.477 . S
C10 H30 0.931 . S
C11 C7 1.460 . S
C11 C10 1.477 . S
C11 H31 0.930 . S
C12 N8 1.362 . S
C12 C9 1.431 . S
C12 C22 1.476 . S
H13 C7 0.929 . S
C14 O5 1.250 . S
C14 O6 1.258 . S
O15 Mn0 2.162 . S
O15 C3 1.281 . S
O16 Mn0 2.297 . S
O16 C3 1.236 . S
N17 Mn1 2.282 1_655 S
N17 C18 1.328 1_655 S
N17 C22 1.318 . S
C18 N17 1.328 1_455 S
C18 C19 1.457 1_454 S
C18 H23 0.929 . S
C19 C18 1.457 1_656 S
C19 C20 1.291 . S
C19 H32 0.931 1_655 S
C20 C19 1.291 . S
C20 C21 1.373 . S
C20 H33 0.929 . S
C21 C20 1.373 . S
C21 C22 1.396 1_556 S
C21 C28 1.403 . S
C22 C12 1.476 . S
C22 N17 1.318 . S
C22 C21 1.396 1_554 S
H23 C18 0.929 . S
O24 Mn0 2.385 . S
O24 C2 1.234 1_455 S
O25 Mn0 2.206 1_655 S
O25 Mn1 2.216 1_655 S
O25 C2 1.282 . S
O26 Mn0 2.094 . S
O26 C4 1.240 . S
O27 Mn1 2.117 . S
O27 C4 1.264 . S
C28 C21 1.403 . S
C28 C29 1.399 1_556 S
C28 H34 0.929 . S
C29 C9 1.449 . S
C29 C28 1.399 1_554 S
C29 H35 0.930 . S
H30 C10 0.931 . S
H31 C11 0.930 . S
H32 C19 0.931 1_455 S
H33 C20 0.929 . S
H34 C28 0.929 . S
H35 C29 0.930 . S
Mn36 O41 2.093 1_455 S
Mn36 O51 2.162 1_445 S
Mn36 O52 2.297 . S
Mn36 O60 2.385 . S
Mn36 O61 2.209 . S
Mn36 O62 2.094 1_455 S
Mn37 O42 2.121 . S
Mn37 N44 2.257 . S
Mn37 N53 2.282 . S
Mn37 O61 2.215 . S
Mn37 O63 2.117 1_455 S
C38 O60 1.234 . S
C38 O61 1.283 . S
C39 O51 1.281 1_445 S
C39 O52 1.236 . S
C40 O62 1.240 . S
C40 O63 1.264 . S
O41 Mn36 2.093 1_655 S
O41 C50 1.249 1_655 S
O42 Mn37 2.121 . S
O42 C50 1.258 . S
C43 N44 1.326 . S
C43 C47 1.460 . S
C43 H49 0.929 . S
N44 Mn37 2.257 . S
N44 C43 1.326 . S
N44 C48 1.362 . S
C45 C46 1.258 . S
C45 C48 1.431 . S
C45 C65 1.449 . S
C46 C45 1.258 . S
C46 C47 1.477 . S
C46 H66 0.931 . S
C47 C43 1.460 . S
C47 C46 1.477 . S
C47 H67 0.930 . S
C48 N44 1.362 . S
C48 C45 1.431 . S
C48 C58 1.476 . S
H49 C43 0.929 . S
C50 O41 1.249 1_455 S
C50 O42 1.258 . S
O51 Mn36 2.162 1_665 S
O51 C39 1.281 1_665 S
O52 Mn36 2.297 . S
O52 C39 1.236 . S
N53 Mn37 2.282 . S
N53 C54 1.328 . S
N53 C58 1.318 . S
C54 N53 1.328 . S
C54 C55 1.457 . S
C54 H59 0.929 . S
C55 C54 1.457 . S
C55 C56 1.291 . S
C55 H68 0.931 . S
C56 C55 1.291 . S
C56 C57 1.373 . S
C56 H69 0.929 . S
C57 C56 1.373 . S
C57 C58 1.396 . S
C57 C64 1.403 . S
C58 C48 1.476 . S
C58 N53 1.318 . S
C58 C57 1.396 . S
H59 C54 0.929 . S
O60 Mn36 2.385 . S
O60 C38 1.234 . S
O61 Mn36 2.209 . S
O61 Mn37 2.215 . S
O61 C38 1.283 . S
O62 Mn36 2.094 1_655 S
O62 C40 1.240 . S
O63 Mn37 2.117 1_655 S
O63 C40 1.264 . S
C64 C57 1.403 . S
C64 C65 1.399 . S
C64 H70 0.929 . S
C65 C45 1.449 . S
C65 C64 1.399 . S
C65 H71 0.930 . S
H66 C46 0.931 . S
H67 C47 0.930 . S
H68 C55 0.931 . S
H69 C56 0.929 . S
H70 C64 0.929 . S
H71 C65 0.930 . S
Mn72 O77 2.095 1_455 S
Mn72 O87 2.162 . S
Mn72 O88 2.297 . S
Mn72 O96 2.385 . S
Mn72 O97 2.209 . S
Mn72 O98 2.094 1_455 S
Mn73 O78 2.121 . S
Mn73 N80 2.257 1_655 S
Mn73 N89 2.282 1_655 S
Mn73 O97 2.215 1_655 S
Mn73 O99 2.117 . S
C74 O96 1.234 . S
C74 O97 1.283 . S
C75 O87 1.281 . S
C75 O88 1.236 . S
C76 O98 1.240 . S
C76 O99 1.264 . S
O77 Mn72 2.095 1_655 S
O77 C86 1.250 . S
O78 Mn73 2.121 . S
O78 C86 1.258 . S
C79 N80 1.326 . S
C79 C83 1.460 . S
C79 H85 0.929 1_455 S
N80 Mn73 2.257 1_455 S
N80 C79 1.326 . S
N80 C84 1.362 . S
C81 C82 1.258 . S
C81 C84 1.431 . S
C81 C101 1.449 . S
C82 C81 1.258 . S
C82 C83 1.477 . S
C82 H102 0.931 . S
C83 C79 1.460 . S
C83 C82 1.477 . S
C83 H103 0.930 . S
C84 N80 1.362 . S
C84 C81 1.431 . S
C84 C94 1.476 . S
H85 C79 0.929 1_655 S
C86 O77 1.250 . S
C86 O78 1.258 . S
O87 Mn72 2.162 . S
O87 C75 1.281 . S
O88 Mn72 2.297 . S
O88 C75 1.236 . S
N89 Mn73 2.282 1_455 S
N89 C90 1.328 . S
N89 C94 1.318 . S
C90 N89 1.328 . S
C90 C91 1.457 . S
C90 H95 0.929 . S
C91 C90 1.457 . S
C91 C92 1.291 . S
C91 H104 0.931 . S
C92 C91 1.291 . S
C92 C93 1.373 . S
C92 H105 0.929 . S
C93 C92 1.373 . S
C93 C94 1.396 . S
C93 C100 1.403 . S
C94 C84 1.476 . S
C94 N89 1.318 . S
C94 C93 1.396 . S
H95 C90 0.929 . S
O96 Mn72 2.385 . S
O96 C74 1.234 . S
O97 Mn72 2.209 . S
O97 Mn73 2.215 1_455 S
O97 C74 1.283 . S
O98 Mn72 2.094 1_655 S
O98 C76 1.240 . S
O99 Mn73 2.117 . S
O99 C76 1.264 . S
C100 C93 1.403 . S
C100 C101 1.399 . S
C100 H106 0.929 . S
C101 C81 1.449 . S
C101 C100 1.399 . S
C101 H107 0.930 . S
H102 C82 0.931 . S
H103 C83 0.930 . S
H104 C91 0.931 . S
H105 C92 0.929 . S
H106 C100 0.929 . S
H107 C101 0.930 . S
C108 O110 1.247 . S
C108 O112 1.258 1_455 S
C109 O116 1.240 1_455 S
C109 O117 1.258 . S
O110 C108 1.247 . S
O110 Zn111 2.028 . S
Zn111 O110 2.028 . S
Zn111 O115 2.035 . S
Zn111 O117 2.035 . S
Zn111 O118 2.028 . S
O112 C108 1.258 1_655 S
O112 Zn113 2.035 . S
Zn113 O112 2.035 . S
Zn113 O114 2.028 . S
Zn113 O116 2.032 . S
Zn113 O119 2.034 . S
O114 Zn113 2.028 . S
O114 C120 1.247 1_655 S
O115 Zn111 2.035 . S
O115 C120 1.258 . S
O116 C109 1.240 1_655 S
O116 Zn113 2.032 . S
O117 C109 1.258 . S
O117 Zn111 2.035 . S
O118 Zn111 2.028 . S
O118 C121 1.247 . S
O119 Zn113 2.034 . S
O119 C121 1.254 1_655 S
C120 O114 1.247 1_455 S
C120 O115 1.258 . S
C121 O118 1.247 . S
C121 O119 1.254 1_455 S
C122 O124 1.247 . S
C122 O126 1.258 . S
C123 O130 1.247 . S
C123 O131 1.258 . S
O124 C122 1.247 . S
O124 Zn125 2.028 . S
Zn125 O124 2.028 . S
Zn125 O129 2.035 . S
Zn125 O131 2.035 . S
Zn125 O132 2.028 . S
O126 C122 1.258 . S
O126 Zn127 2.035 . S
Zn127 O126 2.035 . S
Zn127 O128 2.028 . S
Zn127 O130 2.028 . S
Zn127 O133 2.035 . S
O128 Zn127 2.028 . S
O128 C134 1.247 . S
O129 Zn125 2.035 . S
O129 C134 1.258 . S
O130 C123 1.247 . S
O130 Zn127 2.028 . S
O131 C123 1.258 . S
O131 Zn125 2.035 . S
O132 Zn125 2.028 . S
O132 C135 1.247 . S
O133 Zn127 2.035 . S
O133 C135 1.258 . S
C134 O128 1.247 . S
C134 O129 1.258 . S
C135 O132 1.247 . S
C135 O133 1.258 . S
C136 O138 1.247 . S
C136 O140 1.258 . S
C137 O144 1.247 . S
C137 O145 1.258 . S
O138 C136 1.247 . S
O138 Zn139 2.028 . S
Zn139 O138 2.028 . S
Zn139 O143 2.035 . S
Zn139 O145 2.035 . S
Zn139 O146 2.028 . S
O140 C136 1.258 . S
O140 Zn141 2.035 . S
Zn141 O140 2.035 . S
Zn141 O142 2.028 . S
Zn141 O144 2.028 . S
Zn141 O147 2.035 . S
O142 Zn141 2.028 . S
O142 C148 1.247 . S
O143 Zn139 2.035 . S
O143 C148 1.258 . S
O144 C137 1.247 . S
O144 Zn141 2.028 . S
O145 C137 1.258 . S
O145 Zn139 2.035 . S
O146 Zn139 2.028 . S
O146 C149 1.247 . S
O147 Zn141 2.035 . S
O147 C149 1.258 . S
C148 O142 1.247 . S
C148 O143 1.258 . S
C149 O146 1.247 . S
C149 O147 1.258 . S
H150 C158 0.929 . S
H151 C160 0.930 . S
H152 C162 0.930 . S
H153 C165 0.929 . S
H154 C168 0.930 . S
H155 C170 0.960 . S
H156 C170 0.960 . S
H157 C170 0.960 . S
C158 H150 0.929 . S
C158 C159 1.377 . S
C158 C160 1.384 . S
C159 C158 1.377 . S
C159 C165 1.390 . S
C160 H151 0.930 . S
C160 C158 1.384 . S
C160 C161 1.372 . S
C161 C160 1.372 . S
C161 C162 1.400 . S
C161 C166 1.490 . S
C162 H152 0.930 . S
C162 C161 1.400 . S
C162 C165 1.386 . S
H163 C179 0.930 . S
H164 C180 0.931 . S
C165 H153 0.929 . S
C165 C159 1.390 . S
C165 C162 1.386 . S
C166 C161 1.490 . S
C166 C168 1.395 . S
C166 C169 1.403 . S
H167 C173 0.930 1_655 S
C168 H154 0.930 . S
C168 C166 1.395 . S
C168 C171 1.403 . S
C169 C166 1.403 . S
C169 C170 1.524 1_455 S
C169 C173 1.400 . S
C170 H155 0.960 . S
C170 H156 0.960 . S
C170 H157 0.960 . S
C170 C169 1.524 1_655 S
C171 C168 1.403 . S
C171 C172 1.392 . S
C171 C175 1.495 . S
C172 C171 1.392 . S
C172 C173 1.385 . S
C172 C174 1.478 . S
C173 H167 0.930 1_455 S
C173 C169 1.400 . S
C173 C172 1.385 . S
C174 C172 1.478 . S
C174 C176 1.381 . S
C174 C180 1.383 . S
C175 C171 1.495 . S
C175 H181 0.959 . S
C175 H182 0.961 . S
C175 H183 0.960 . S
C176 C174 1.381 . S
C176 C177 1.394 . S
C176 H184 0.930 . S
C177 C176 1.394 . S
C177 C178 1.383 . S
C177 H185 0.929 . S
C178 C177 1.383 . S
C178 C179 1.377 . S
C179 H163 0.930 . S
C179 C178 1.377 . S
C179 C180 1.379 . S
C180 H164 0.931 . S
C180 C174 1.383 . S
C180 C179 1.379 . S
H181 C175 0.959 . S
H182 C175 0.961 . S
H183 C175 0.960 . S
H184 C176 0.930 . S
H185 C177 0.929 . S
H186 C194 0.929 . S
H187 C196 0.930 . S
H188 C198 0.930 . S
H189 C201 0.929 . S
H190 C204 0.930 . S
H191 C206 0.960 . S
H192 C206 0.960 . S
H193 C206 0.960 . S
C194 H186 0.929 . S
C194 C195 1.377 . S
C194 C196 1.384 . S
C195 C194 1.377 . S
C195 C201 1.390 . S
C196 H187 0.930 . S
C196 C194 1.384 . S
C196 C197 1.372 . S
C197 C196 1.372 . S
C197 C198 1.400 . S
C197 C202 1.490 . S
C198 H188 0.930 . S
C198 C197 1.400 . S
C198 C201 1.386 . S
H199 C215 0.930 . S
H200 C216 0.931 . S
C201 H189 0.929 . S
C201 C195 1.390 . S
C201 C198 1.386 . S
C202 C197 1.490 . S
C202 C204 1.395 . S
C202 C205 1.403 . S
H203 C209 0.930 . S
C204 H190 0.930 . S
C204 C202 1.395 . S
C204 C207 1.403 . S
C205 C202 1.403 . S
C205 C206 1.524 . S
C205 C209 1.400 . S
C206 H191 0.960 . S
C206 H192 0.960 . S
C206 H193 0.960 . S
C206 C205 1.524 . S
C207 C204 1.403 . S
C207 C208 1.392 . S
C207 C211 1.495 . S
C208 C207 1.392 . S
C208 C209 1.385 . S
C208 C210 1.478 . S
C209 H203 0.930 . S
C209 C205 1.400 . S
C209 C208 1.385 . S
C210 C208 1.478 . S
C210 C212 1.381 . S
C210 C216 1.383 . S
C211 C207 1.495 . S
C211 H217 0.959 . S
C211 H218 0.961 . S
C211 H219 0.960 . S
C212 C210 1.381 . S
C212 C213 1.394 . S
C212 H220 0.930 . S
C213 C212 1.394 . S
C213 C214 1.383 . S
C213 H221 0.929 . S
C214 C213 1.383 . S
C214 C215 1.377 . S
C215 H199 0.930 . S
C215 C214 1.377 . S
C215 C216 1.379 . S
C216 H200 0.931 . S
C216 C210 1.383 . S
C216 C215 1.379 . S
H217 C211 0.959 . S
H218 C211 0.961 . S
H219 C211 0.960 . S
H220 C212 0.930 . S
H221 C213 0.929 . S
H222 C230 0.929 . S
H223 C232 0.930 . S
H224 C234 0.930 . S
H225 C237 0.929 1_545 S
H226 C240 0.930 . S
H227 C242 0.960 . S
H228 C242 0.960 . S
H229 C242 0.960 . S
C230 H222 0.929 . S
C230 C231 1.377 . S
C230 C232 1.384 . S
C231 C230 1.377 . S
C231 C237 1.390 . S
C232 H223 0.930 . S
C232 C230 1.384 . S
C232 C233 1.372 . S
C233 C232 1.372 . S
C233 C234 1.400 . S
C233 C238 1.490 . S
C234 H224 0.930 . S
C234 C233 1.400 . S
C234 C237 1.386 . S
H235 C251 0.930 . S
H236 C252 0.931 . S
C237 H225 0.929 1_565 S
C237 C231 1.390 . S
C237 C234 1.386 . S
C238 C233 1.490 . S
C238 C240 1.395 . S
C238 C241 1.403 . S
H239 C245 0.930 . S
C240 H226 0.930 . S
C240 C238 1.395 . S
C240 C243 1.403 . S
C241 C238 1.403 . S
C241 C242 1.524 . S
C241 C245 1.400 . S
C242 H227 0.960 . S
C242 H228 0.960 . S
C242 H229 0.960 . S
C242 C241 1.524 . S
C243 C240 1.403 . S
C243 C244 1.392 . S
C243 C247 1.495 . S
C244 C243 1.392 . S
C244 C245 1.385 . S
C244 C246 1.478 . S
C245 H239 0.930 . S
C245 C241 1.400 . S
C245 C244 1.385 . S
C246 C244 1.478 . S
C246 C248 1.381 . S
C246 C252 1.383 . S
C247 C243 1.495 . S
C247 H253 0.959 . S
C247 H254 0.961 . S
C247 H255 0.960 . S
C248 C246 1.381 . S
C248 C249 1.394 . S
C248 H256 0.930 . S
C249 C248 1.394 . S
C249 C250 1.383 . S
C249 H257 0.929 . S
C250 C249 1.383 . S
C250 C251 1.377 . S
C251 H235 0.930 . S
C251 C250 1.377 . S
C251 C252 1.379 . S
C252 H236 0.931 . S
C252 C246 1.383 . S
C252 C251 1.379 . S
H253 C247 0.959 . S
H254 C247 0.961 . S
H255 C247 0.960 . S
H256 C248 0.930 . S
H257 C249 0.929 . S
H258 C266 0.929 . S
H259 C268 0.930 . S
H260 C270 0.930 . S
H261 C273 0.929 . S
H262 C276 0.930 . S
H263 C278 0.962 . S
H264 C278 0.960 1_655 S
H265 C278 0.960 . S
C266 H258 0.929 . S
C266 C267 1.377 . S
C266 C268 1.384 . S
C267 C266 1.377 . S
C267 C273 1.390 1_565 S
C268 H259 0.930 . S
C268 C266 1.384 . S
C268 C269 1.372 . S
C269 C268 1.372 . S
C269 C270 1.400 . S
C269 C274 1.490 . S
C270 H260 0.930 . S
C270 C269 1.400 . S
C270 C273 1.386 1_565 S
H271 C287 0.930 . S
H272 C288 0.931 . S
C273 H261 0.929 . S
C273 C267 1.390 1_545 S
C273 C270 1.386 1_545 S
C274 C269 1.490 . S
C274 C276 1.395 . S
C274 C277 1.403 . S
H275 C281 0.930 . S
C276 H262 0.930 . S
C276 C274 1.395 . S
C276 C279 1.403 . S
C277 C274 1.403 . S
C277 C278 1.524 . S
C277 C281 1.400 . S
C278 H263 0.962 . S
C278 H264 0.960 1_455 S
C278 H265 0.960 . S
C278 C277 1.524 . S
C279 C276 1.403 . S
C279 C280 1.392 . S
C279 C283 1.495 . S
C280 C279 1.392 . S
C280 C281 1.385 . S
C280 C282 1.478 . S
C281 H275 0.930 . S
C281 C277 1.400 . S
C281 C280 1.385 . S
C282 C280 1.478 . S
C282 C284 1.381 . S
C282 C288 1.383 . S
C283 C279 1.495 . S
C283 H289 0.959 . S
C283 H290 0.961 . S
C283 H291 0.960 . S
C284 C282 1.381 . S
C284 C285 1.394 . S
C284 H292 0.930 . S
C285 C284 1.394 . S
C285 C286 1.383 . S
C285 H293 0.929 1_455 S
C286 C285 1.383 . S
C286 C287 1.377 . S
C287 H271 0.930 . S
C287 C286 1.377 . S
C287 C288 1.379 . S
C288 H272 0.931 . S
C288 C282 1.383 . S
C288 C287 1.379 . S
H289 C283 0.959 . S
H290 C283 0.961 . S
H291 C283 0.960 . S
H292 C284 0.930 . S
H293 C285 0.929 1_655 S
H294 C302 0.929 . S
H295 C304 0.930 . S
H296 C306 0.930 . S
H297 C309 0.929 . S
H298 C312 0.930 . S
H299 C314 0.960 . S
H300 C314 0.960 . S
H301 C314 0.960 . S
C302 H294 0.929 . S
C302 C303 1.377 . S
C302 C304 1.384 . S
C303 C302 1.377 . S
C303 C309 1.390 . S
C304 H295 0.930 . S
C304 C302 1.384 . S
C304 C305 1.372 . S
C305 C304 1.372 . S
C305 C306 1.400 . S
C305 C310 1.490 . S
C306 H296 0.930 . S
C306 C305 1.400 . S
C306 C309 1.386 . S
H307 C323 0.930 . S
H308 C324 0.931 . S
C309 H297 0.929 . S
C309 C303 1.390 . S
C309 C306 1.386 . S
C310 C305 1.490 . S
C310 C312 1.395 . S
C310 C313 1.403 . S
H311 C317 0.930 . S
C312 H298 0.930 . S
C312 C310 1.395 . S
C312 C315 1.403 . S
C313 C310 1.403 . S
C313 C314 1.524 . S
C313 C317 1.400 . S
C314 H299 0.960 . S
C314 H300 0.960 . S
C314 H301 0.960 . S
C314 C313 1.524 . S
C315 C312 1.403 . S
C315 C316 1.392 . S
C315 C319 1.495 . S
C316 C315 1.392 . S
C316 C317 1.385 . S
C316 C318 1.478 . S
C317 H311 0.930 . S
C317 C313 1.400 . S
C317 C316 1.385 . S
C318 C316 1.478 . S
C318 C320 1.381 . S
C318 C324 1.383 . S
C319 C315 1.495 . S
C319 H325 0.959 . S
C319 H326 0.961 . S
C319 H327 0.960 . S
C320 C318 1.381 . S
C320 C321 1.394 . S
C320 H328 0.930 . S
C321 C320 1.394 . S
C321 C322 1.383 . S
C321 H329 0.929 . S
C322 C321 1.383 . S
C322 C323 1.377 . S
C323 H307 0.930 . S
C323 C322 1.377 . S
C323 C324 1.379 . S
C324 H308 0.931 . S
C324 C318 1.383 . S
C324 C323 1.379 . S
H325 C319 0.959 . S
H326 C319 0.961 . S
H327 C319 0.960 . S
H328 C320 0.930 . S
H329 C321 0.929 . S
H330 C338 0.929 . S
H331 C340 0.930 . S
H332 C342 0.930 . S
H333 C345 0.929 . S
H334 C348 0.930 . S
H335 C350 0.960 . S
H336 C350 0.960 . S
H337 C350 0.960 . S
C338 H330 0.929 . S
C338 C339 1.377 . S
C338 C340 1.384 . S
C339 C338 1.377 . S
C339 C345 1.390 . S
C340 H331 0.930 . S
C340 C338 1.384 . S
C340 C341 1.372 . S
C341 C340 1.372 . S
C341 C342 1.400 . S
C341 C346 1.490 . S
C342 H332 0.930 . S
C342 C341 1.400 . S
C342 C345 1.386 . S
H343 C359 0.930 . S
H344 C360 0.931 . S
C345 H333 0.929 . S
C345 C339 1.390 . S
C345 C342 1.386 . S
C346 C341 1.490 . S
C346 C348 1.395 . S
C346 C349 1.403 . S
H347 C353 0.930 . S
C348 H334 0.930 . S
C348 C346 1.395 . S
C348 C351 1.403 . S
C349 C346 1.403 . S
C349 C350 1.524 . S
C349 C353 1.400 . S
C350 H335 0.960 . S
C350 H336 0.960 . S
C350 H337 0.960 . S
C350 C349 1.524 . S
C351 C348 1.403 . S
C351 C352 1.392 . S
C351 C355 1.495 . S
C352 C351 1.392 . S
C352 C353 1.385 . S
C352 C354 1.478 . S
C353 H347 0.930 . S
C353 C349 1.400 . S
C353 C352 1.385 . S
C354 C352 1.478 . S
C354 C356 1.381 . S
C354 C360 1.383 . S
C355 C351 1.495 . S
C355 H361 0.959 . S
C355 H362 0.961 . S
C355 H363 0.960 . S
C356 C354 1.381 . S
C356 C357 1.394 . S
C356 H364 0.930 . S
C357 C356 1.394 . S
C357 C358 1.383 . S
C357 H365 0.929 . S
C358 C357 1.383 . S
C358 C359 1.377 . S
C359 H343 0.930 . S
C359 C358 1.377 . S
C359 C360 1.379 . S
C360 H344 0.931 . S
C360 C354 1.383 . S
C360 C359 1.379 . S
H361 C355 0.959 . S
H362 C355 0.961 . S
H363 C355 0.960 . S
H364 C356 0.930 . S
H365 C357 0.929 . S
H366 C374 0.929 . S
H367 C376 0.930 . S
H368 C378 0.930 . S
H369 C381 0.929 . S
H370 C384 0.930 . S
H371 C386 0.960 1_565 S
H372 C386 0.960 . S
H373 C386 0.960 . S
C374 H366 0.929 . S
C374 C375 1.377 . S
C374 C376 1.384 . S
C375 C374 1.377 . S
C375 C381 1.390 . S
C376 H367 0.930 . S
C376 C374 1.384 . S
C376 C377 1.372 . S
C377 C376 1.372 . S
C377 C378 1.400 . S
C377 C382 1.490 . S
C378 H368 0.930 . S
C378 C377 1.400 . S
C378 C381 1.386 . S
H379 C395 0.930 . S
H380 C396 0.931 . S
C381 H369 0.929 . S
C381 C375 1.390 . S
C381 C378 1.386 . S
C382 C377 1.490 . S
C382 C384 1.395 . S
C382 C385 1.403 . S
H383 C389 0.930 . S
C384 H370 0.930 . S
C384 C382 1.395 . S
C384 C387 1.403 . S
C385 C382 1.403 . S
C385 C386 1.524 . S
C385 C389 1.400 . S
C386 H371 0.960 1_545 S
C386 H372 0.960 . S
C386 H373 0.960 . S
C386 C385 1.524 . S
C387 C384 1.403 . S
C387 C388 1.392 . S
C387 C391 1.495 . S
C388 C387 1.392 . S
C388 C389 1.385 . S
C388 C390 1.478 . S
C389 H383 0.930 . S
C389 C385 1.400 . S
C389 C388 1.385 . S
C390 C388 1.478 . S
C390 C392 1.381 . S
C390 C396 1.383 . S
C391 C387 1.495 . S
C391 H397 0.959 . S
C391 H398 0.961 . S
C391 H399 0.960 . S
C392 C390 1.381 . S
C392 C393 1.394 . S
C392 H400 0.930 . S
C393 C392 1.394 . S
C393 C394 1.383 . S
C393 H401 0.929 . S
C394 C393 1.383 . S
C394 C395 1.377 . S
C395 H379 0.930 . S
C395 C394 1.377 . S
C395 C396 1.379 . S
C396 H380 0.931 . S
C396 C390 1.383 . S
C396 C395 1.379 . S
H397 C391 0.959 . S
H398 C391 0.961 . S
H399 C391 0.960 . S
H400 C392 0.930 . S
H401 C393 0.929 . S
H402 C410 0.929 . S
H403 C412 0.930 . S
H404 C414 0.930 1_556 S
H405 C417 0.929 . S
H406 C420 0.905 1_554 S
H407 C422 0.960 . S
H408 C422 0.960 . S
H409 C422 0.960 . S
C410 H402 0.929 . S
C410 C411 1.377 1_565 S
C410 C412 1.384 . S
C411 C410 1.377 1_545 S
C411 C417 1.390 . S
C412 H403 0.930 . S
C412 C410 1.384 . S
C412 C413 1.372 . S
C413 C412 1.372 . S
C413 C414 1.400 . S
C413 C418 1.490 1_554 S
C414 H404 0.930 1_554 S
C414 C413 1.400 . S
C414 C417 1.386 1_565 S
H415 C431 0.930 . S
H416 C432 0.931 . S
C417 H405 0.929 . S
C417 C411 1.390 . S
C417 C414 1.386 1_545 S
C418 C413 1.490 1_556 S
C418 C420 1.400 . S
C418 C421 1.403 . S
H419 C425 0.930 . S
C420 H406 0.905 1_556 S
C420 C418 1.400 . S
C420 C423 1.422 . S
C421 C418 1.403 . S
C421 C422 1.524 . S
C421 C425 1.400 . S
C422 H407 0.960 . S
C422 H408 0.960 . S
C422 H409 0.960 . S
C422 C421 1.524 . S
C423 C420 1.422 . S
C423 C424 1.392 . S
C423 C427 1.495 . S
C424 C423 1.392 . S
C424 C425 1.385 . S
C424 C426 1.478 . S
C425 H419 0.930 . S
C425 C421 1.400 . S
C425 C424 1.385 . S
C426 C424 1.478 . S
C426 C428 1.381 . S
C426 C432 1.383 . S
C427 C423 1.495 . S
C427 H433 0.959 1_556 S
C427 H434 0.961 . S
C427 H435 0.960 . S
C428 C426 1.381 . S
C428 C429 1.394 . S
C428 H436 0.930 . S
C429 C428 1.394 . S
C429 C430 1.383 . S
C429 H437 0.929 . S
C430 C429 1.383 . S
C430 C431 1.377 . S
C431 H415 0.930 . S
C431 C430 1.377 . S
C431 C432 1.379 . S
C432 H416 0.931 . S
C432 C426 1.383 . S
C432 C431 1.379 . S
H433 C427 0.959 1_554 S
H434 C427 0.961 . S
H435 C427 0.960 . S
H436 C428 0.930 . S
H437 C429 0.929 . S
H438 C446 0.929 . S
H439 C448 0.930 . S
H440 C450 0.930 . S
H441 C453 0.929 . S
H442 C456 0.930 . S
H443 C458 0.960 1_655 S
H444 C458 0.960 . S
H445 C458 0.960 1_655 S
C446 H438 0.929 . S
C446 C447 1.377 . S
C446 C448 1.384 . S
C447 C446 1.377 . S
C447 C453 1.390 1_455 S
C448 H439 0.930 . S
C448 C446 1.384 . S
C448 C449 1.372 . S
C449 C448 1.372 . S
C449 C450 1.400 1_455 S
C449 C454 1.490 . S
C450 H440 0.930 . S
C450 C449 1.400 1_655 S
C450 C453 1.386 . S
H451 C467 0.930 . S
H452 C468 0.931 . S
C453 H441 0.929 . S
C453 C447 1.390 1_655 S
C453 C450 1.386 . S
C454 C449 1.490 . S
C454 C456 1.395 . S
C454 C457 1.403 . S
H455 C461 0.930 . S
C456 H442 0.930 . S
C456 C454 1.395 . S
C456 C459 1.403 . S
C457 C454 1.403 . S
C457 C458 1.524 . S
C457 C461 1.400 . S
C458 H443 0.960 1_455 S
C458 H444 0.960 . S
C458 H445 0.960 1_455 S
C458 C457 1.524 . S
C459 C456 1.403 . S
C459 C460 1.392 . S
C459 C463 1.495 . S
C460 C459 1.392 . S
C460 C461 1.385 . S
C460 C462 1.478 . S
C461 H455 0.930 . S
C461 C457 1.400 . S
C461 C460 1.385 . S
C462 C460 1.478 . S
C462 C464 1.381 . S
C462 C468 1.383 1_455 S
C463 C459 1.495 . S
C463 H469 0.959 . S
C463 H470 0.961 . S
C463 H471 0.960 . S
C464 C462 1.381 . S
C464 C465 1.394 . S
C464 H472 0.930 . S
C465 C464 1.394 . S
C465 C466 1.383 . S
C465 H473 0.929 . S
C466 C465 1.383 . S
C466 C467 1.377 1_455 S
C467 H451 0.930 . S
C467 C466 1.377 1_655 S
C467 C468 1.379 . S
C468 H452 0.931 . S
C468 C462 1.383 1_655 S
C468 C467 1.379 . S
H469 C463 0.959 . S
H470 C463 0.961 . S
H471 C463 0.960 . S
H472 C464 0.930 . S
H473 C465 0.929 . S
H474 C482 0.929 . S
H475 C484 0.930 . S
H476 C486 0.930 . S
H477 C489 0.929 . S
H478 C492 0.930 . S
H479 C494 0.945 1_565 S
H480 C494 0.966 1_565 S
H481 C494 0.958 1_565 S
C482 H474 0.929 . S
C482 C483 1.377 . S
C482 C484 1.384 . S
C483 C482 1.377 . S
C483 C489 1.390 . S
C484 H475 0.930 . S
C484 C482 1.384 . S
C484 C485 1.372 . S
C485 C484 1.372 . S
C485 C486 1.400 . S
C485 C490 1.490 . S
C486 H476 0.930 . S
C486 C485 1.400 . S
C486 C489 1.386 . S
H487 C503 0.930 . S
H488 C504 0.931 . S
C489 H477 0.929 . S
C489 C483 1.390 . S
C489 C486 1.386 . S
C490 C485 1.490 . S
C490 C492 1.395 . S
C490 C493 1.403 . S
H491 C497 0.930 . S
C492 H478 0.930 . S
C492 C490 1.395 . S
C492 C495 1.403 . S
C493 C490 1.403 . S
C493 C494 1.536 . S
C493 C497 1.400 . S
C494 H479 0.945 1_545 S
C494 H480 0.966 1_545 S
C494 H481 0.958 1_545 S
C494 C493 1.536 . S
C495 C492 1.403 . S
C495 C496 1.392 . S
C495 C499 1.495 . S
C496 C495 1.392 . S
C496 C497 1.385 . S
C496 C498 1.478 . S
C497 H491 0.930 . S
C497 C493 1.400 . S
C497 C496 1.385 . S
C498 C496 1.478 . S
C498 C500 1.381 . S
C498 C504 1.383 . S
C499 C495 1.495 . S
C499 H505 0.959 . S
C499 H506 0.961 . S
C499 H507 0.960 . S
C500 C498 1.381 . S
C500 C501 1.394 . S
C500 H508 0.930 . S
C501 C500 1.394 . S
C501 C502 1.383 . S
C501 H509 0.929 . S
C502 C501 1.383 . S
C502 C503 1.377 . S
C503 H487 0.930 . S
C503 C502 1.377 . S
C503 C504 1.379 . S
C504 H488 0.931 . S
C504 C498 1.383 . S
C504 C503 1.379 . S
H505 C499 0.959 . S
H506 C499 0.961 . S
H507 C499 0.960 . S
H508 C500 0.930 . S
H509 C501 0.929 . S
H510 C518 0.929 . S
H511 C520 0.930 . S
H512 C522 0.930 1_556 S
H513 C525 0.929 . S
H514 C528 0.933 . S
H515 C530 0.960 . S
H516 C530 1.012 . S
H517 C530 0.960 . S
C518 H510 0.929 . S
C518 C519 1.377 . S
C518 C520 1.384 . S
C519 C518 1.377 . S
C519 C525 1.390 . S
C520 H511 0.930 . S
C520 C518 1.384 . S
C520 C521 1.372 . S
C521 C520 1.372 . S
C521 C522 1.400 . S
C521 C526 1.490 1_554 S
C522 H512 0.930 1_554 S
C522 C521 1.400 . S
C522 C525 1.386 . S
H523 C539 0.930 . S
H524 C540 0.931 . S
C525 H513 0.929 . S
C525 C519 1.390 . S
C525 C522 1.386 . S
C526 C521 1.490 1_556 S
C526 C528 1.395 . S
C526 C529 1.403 . S
H527 C533 0.930 . S
C528 H514 0.933 . S
C528 C526 1.395 . S
C528 C531 1.403 . S
C529 C526 1.403 . S
C529 C530 1.524 . S
C529 C533 1.400 . S
C530 H515 0.960 . S
C530 H516 1.012 . S
C530 H517 0.960 . S
C530 C529 1.524 . S
C531 C528 1.403 . S
C531 C532 1.392 . S
C531 C535 1.495 . S
C532 C531 1.392 . S
C532 C533 1.385 . S
C532 C534 1.478 . S
C533 H527 0.930 . S
C533 C529 1.400 . S
C533 C532 1.385 . S
C534 C532 1.478 . S
C534 C536 1.381 . S
C534 C540 1.383 . S
C535 C531 1.495 . S
C535 H541 0.959 . S
C535 H542 0.961 . S
C535 H543 0.960 . S
C536 C534 1.381 . S
C536 C537 1.394 . S
C536 H544 0.930 . S
C537 C536 1.394 . S
C537 C538 1.383 . S
C537 H545 0.929 . S
C538 C537 1.383 . S
C538 C539 1.377 . S
C539 H523 0.930 . S
C539 C538 1.377 . S
C539 C540 1.379 . S
C540 H524 0.931 . S
C540 C534 1.383 . S
C540 C539 1.379 . S
H541 C535 0.959 . S
H542 C535 0.961 . S
H543 C535 0.960 . S
H544 C536 0.930 . S
H545 C537 0.929 . S
H546 C554 0.929 . S
H547 C556 0.930 . S
H548 C558 0.930 . S
H549 C561 0.929 . S
H550 C564 0.930 . S
H551 C566 0.960 . S
H552 C566 0.960 1_455 S
H553 C566 0.960 . S
C554 H546 0.929 . S
C554 C555 1.377 . S
C554 C556 1.384 . S
C555 C554 1.377 . S
C555 C561 1.390 1_455 S
C556 H547 0.930 . S
C556 C554 1.384 . S
C556 C557 1.372 . S
C557 C556 1.372 . S
C557 C558 1.400 1_455 S
C557 C562 1.490 . S
C558 H548 0.930 . S
C558 C557 1.400 1_655 S
C558 C561 1.386 . S
H559 C575 0.930 . S
H560 C576 0.931 . S
C561 H549 0.929 . S
C561 C555 1.390 1_655 S
C561 C558 1.386 . S
C562 C557 1.490 . S
C562 C564 1.395 . S
C562 C565 1.403 . S
H563 C569 0.930 . S
C564 H550 0.930 . S
C564 C562 1.395 . S
C564 C567 1.403 . S
C565 C562 1.403 . S
C565 C566 1.524 1_455 S
C565 C569 1.400 . S
C566 H551 0.960 . S
C566 H552 0.960 1_655 S
C566 H553 0.960 . S
C566 C565 1.524 1_655 S
C567 C564 1.403 . S
C567 C568 1.392 . S
C567 C571 1.495 . S
C568 C567 1.392 . S
C568 C569 1.385 . S
C568 C570 1.478 . S
C569 H563 0.930 . S
C569 C565 1.400 . S
C569 C568 1.385 . S
C570 C568 1.478 . S
C570 C572 1.381 . S
C570 C576 1.383 1_455 S
C571 C567 1.495 . S
C571 H577 0.959 . S
C571 H578 0.961 . S
C571 H579 0.960 . S
C572 C570 1.381 . S
C572 C573 1.394 . S
C572 H580 0.930 . S
C573 C572 1.394 . S
C573 C574 1.383 . S
C573 H581 0.929 . S
C574 C573 1.383 . S
C574 C575 1.377 1_455 S
C575 H559 0.930 . S
C575 C574 1.377 1_655 S
C575 C576 1.379 . S
C576 H560 0.931 . S
C576 C570 1.383 1_655 S
C576 C575 1.379 . S
H577 C571 0.959 . S
H578 C571 0.961 . S
H579 C571 0.960 . S
H580 C572 0.930 . S
H581 C573 0.929 . S
C178 C109 1.452 . S
C159 C14 1.420 . S
C195 C40 1.445 . S
C214 C135 1.454 . S
C231 C76 1.429 1_565 S
C250 C137 1.437 . S
C267 C3 1.422 1_565 S
C286 C121 1.415 . S
C322 C123 1.469 . S
C303 C38 1.455 . S
C339 C74 1.430 . S
C358 C149 1.441 . S
C394 C122 1.420 . S
C375 C86 1.378 . S
C411 C2 1.429 . S
C430 C148 1.442 . S
C466 C108 1.416 . S
C447 C39 1.422 1_565 S
C502 C134 1.429 . S
C483 C75 1.429 . S
C538 C136 1.440 . S
C519 C4 1.431 . S
C555 C50 1.413 . S
C574 C120 1.456 . S
