# Generated by pormake.
# Topology anh, (6,3)-cn, num edge types: 1
# Building blocks:
#     Node 0, Type 0, BuildingBlock: GEDQOX_clean_sbu_0, # of connection points: 6
#     Node 1, Type 0, BuildingBlock: GEDQOX_clean_sbu_0, # of connection points: 6
#     Node 2, Type 0, BuildingBlock: GEDQOX_clean_sbu_0, # of connection points: 6
#     Node 3, Type 1, BuildingBlock: WUSLED_clean_sbu_0, # of connection points: 3
#     Node 4, Type 1, BuildingBlock: WUSLED_clean_sbu_0, # of connection points: 3
#     Node 5, Type 1, BuildingBlock: WUSLED_clean_sbu_0, # of connection points: 3
#     Node 6, Type 1, BuildingBlock: WUSLED_clean_sbu_0, # of connection points: 3
#     Node 7, Type 1, BuildingBlock: WUSLED_clean_sbu_0, # of connection points: 3
#     Node 8, Type 1, BuildingBlock: WUSLED_clean_sbu_0, # of connection points: 3
#     Edge 9, Type (0, 1), BuildingBlock: ZUJKAS_clean_linker_0, # of connection points: 2
#     Edge 10, Type (0, 1), BuildingBlock: ZUJKAS_clean_linker_0, # of connection points: 2
#     Edge 11, Type (0, 1), BuildingBlock: ZUJKAS_clean_linker_0, # of connection points: 2
#     Edge 12, Type (0, 1), BuildingBlock: ZUJKAS_clean_linker_0, # of connection points: 2
#     Edge 13, Type (0, 1), BuildingBlock: ZUJKAS_clean_linker_0, # of connection points: 2
#     Edge 14, Type (0, 1), BuildingBlock: ZUJKAS_clean_linker_0, # of connection points: 2
#     Edge 15, Type (0, 1), BuildingBlock: ZUJKAS_clean_linker_0, # of connection points: 2
#     Edge 16, Type (0, 1), BuildingBlock: ZUJKAS_clean_linker_0, # of connection points: 2
#     Edge 17, Type (0, 1), BuildingBlock: ZUJKAS_clean_linker_0, # of connection points: 2
#     Edge 18, Type (0, 1), BuildingBlock: ZUJKAS_clean_linker_0, # of connection points: 2
#     Edge 19, Type (0, 1), BuildingBlock: ZUJKAS_clean_linker_0, # of connection points: 2
#     Edge 20, Type (0, 1), BuildingBlock: ZUJKAS_clean_linker_0, # of connection points: 2
#     Edge 21, Type (0, 1), BuildingBlock: ZUJKAS_clean_linker_0, # of connection points: 2
#     Edge 22, Type (0, 1), BuildingBlock: ZUJKAS_clean_linker_0, # of connection points: 2
#     Edge 23, Type (0, 1), BuildingBlock: ZUJKAS_clean_linker_0, # of connection points: 2
#     Edge 24, Type (0, 1), BuildingBlock: ZUJKAS_clean_linker_0, # of connection points: 2
#     Edge 25, Type (0, 1), BuildingBlock: ZUJKAS_clean_linker_0, # of connection points: 2
#     Edge 26, Type (0, 1), BuildingBlock: ZUJKAS_clean_linker_0, # of connection points: 2
# Relax obj value: 0.152
# Max RMSD: 0.194
# Mean RMSD: 0.145
data_MOF--net-anh--node1-GEDQOX_clean_sbu_0--node2-WUSLED_clean_sbu_0--edge1-ZUJKAS_clean_linker_0
_symmetry_space_group_name_H-M    P1
_symmetry_Int_Tables_number       1
_symmetry_cell_setting            triclinic
loop_
_symmetry_equiv_pos_as_xyz
'x, y, z'
_cell_length_a     48.61844
_cell_length_b     47.02466
_cell_length_c     84.37797
_cell_angle_alpha  93.396375
_cell_angle_beta   90.70133
_cell_angle_gamma 109.86604
loop_
_atom_site_label
_atom_site_type_symbol
_atom_site_fract_x
_atom_site_fract_y
_atom_site_fract_z
_atom_type_partial_charge
Nd0 Nd 0.07615 0.53341 0.17293 0.0
Nd1 Nd 0.0508 0.46205 0.1743 0.0
C2 C 0.10406 0.58694 0.16248 0.0
C3 C 0.13296 0.61079 0.16615 0.0
C4 C 0.15703 0.61219 0.15673 0.0
C5 C 0.18429 0.63471 0.16004 0.0
C6 C 0.18794 0.65659 0.17269 0.0
C7 C 0.16405 0.65505 0.18223 0.0
C8 C 0.13687 0.63237 0.17903 0.0
C9 C 0.07385 0.5197 0.20425 0.0
C10 C 0.12211 0.49301 0.17397 0.0
C11 C 1.01965 0.40567 0.17961 0.0
C12 C 0.98821 0.38691 0.17912 0.0
C13 C 0.97022 0.38855 0.1918 0.0
C14 C 0.94082 0.36999 0.19136 0.0
C15 C 0.92874 0.34937 0.17824 0.0
C16 C 0.94659 0.34824 0.16542 0.0
C17 C 0.97601 0.36669 0.16588 0.0
C18 C 0.0645 0.4843 0.14554 0.0
C19 C 1.00383 0.50087 0.17091 0.0
O20 O 0.10446 0.56151 0.15536 0.0
O21 O 0.08421 0.58275 0.17336 0.0
O22 O 0.08312 0.54709 0.19966 0.0
O23 O 0.06671 0.5011 0.19228 0.0
O24 O 0.11777 0.51879 0.17125 0.0
O25 O 0.10013 0.46836 0.17729 0.0
O26 O 1.02927 0.42718 0.19104 0.0
O27 O 1.03099 0.41386 0.16593 0.0
O28 O 0.06991 0.46051 0.14966 0.0
O29 O 0.05175 0.4945 0.15608 0.0
O30 O 1.00803 0.47455 0.17243 0.0
O31 O 1.02633 0.52669 0.17037 0.0
H32 H 0.15476 0.596 0.14669 0.0
H33 H 0.2023 0.63557 0.15243 0.0
H34 H 0.16638 0.67152 0.19214 0.0
H35 H 0.11891 0.63194 0.18658 0.0
H36 H 0.97891 0.40383 0.20218 0.0
H37 H 0.92783 0.37114 0.20155 0.0
H38 H 0.9379 0.33291 0.15505 0.0
H39 H 0.98928 0.36491 0.15591 0.0
Nd40 Nd 0.51631 0.00956 0.52155 0.0
Nd41 Nd 0.58481 0.0384 0.51861 0.0
C42 C 0.4627 0.97625 0.52831 0.0
C43 C 0.44393 0.94412 0.52614 0.0
C44 C 0.43422 0.92782 0.53958 0.0
C45 C 0.41449 0.8982 0.53794 0.0
C46 C 0.40414 0.88434 0.52281 0.0
C47 C 0.41491 0.90005 0.5093 0.0
C48 C 0.43462 0.92976 0.51094 0.0
C49 C 0.53533 0.02412 0.49175 0.0
C50 C 0.55667 0.96499 0.51814 0.0
C51 C 0.63576 0.0683 0.50703 0.0
C52 C 0.6564 0.09992 0.50872 0.0
C53 C 0.65438 0.12092 0.49799 0.0
C54 C 0.67452 0.15033 0.49891 0.0
C55 C 0.69741 0.15945 0.51047 0.0
C56 C 0.69888 0.13887 0.5216 0.0
C57 C 0.6786 0.10934 0.52071 0.0
C58 C 0.57125 0.03688 0.55041 0.0
C59 C 0.54448 0.0818 0.52437 0.0
O60 O 0.48491 0.98279 0.53845 0.0
O61 O 0.46891 0.99148 0.51556 0.0
O62 O 0.51198 0.02767 0.49752 0.0
O63 O 0.54742 0.0122 0.50151 0.0
O64 O 0.53057 0.96765 0.51957 0.0
O65 O 0.58103 0.98839 0.51706 0.0
O66 O 0.61069 0.06408 0.49961 0.0
O67 O 0.63321 0.05171 0.51926 0.0
O68 O 0.59775 0.04764 0.54548 0.0
O69 O 0.55391 0.02834 0.53854 0.0
O70 O 0.56804 0.0786 0.51801 0.0
O71 O 0.52278 0.05884 0.52932 0.0
H72 H 0.44127 0.9383 0.5514 0.0
H73 H 0.40668 0.88638 0.54852 0.0
H74 H 0.40705 0.88989 0.49751 0.0
H75 H 0.44188 0.94168 0.50033 0.0
H76 H 0.63749 0.11452 0.48865 0.0
H77 H 0.67247 0.16582 0.49034 0.0
H78 H 0.71637 0.14517 0.53059 0.0
H79 H 0.68073 0.09375 0.5292 0.0
Nd80 Nd 0.53755 0.5128 0.84297 0.0
Nd81 Nd 0.59696 0.54334 0.84614 0.0
C82 C 0.48396 0.48427 0.83259 0.0
C83 C 0.46351 0.50011 0.82979 0.0
C84 C 0.47308 0.5272 0.8219 0.0
C85 C 0.45893 0.54822 0.82396 0.0
C86 C 0.43513 0.54237 0.83388 0.0
C87 C 0.42424 0.51437 0.84078 0.0
C88 C 0.43837 0.49333 0.83873 0.0
C89 C 0.55349 0.52918 0.87465 0.0
C90 C 0.55882 0.58513 0.84669 0.0
C91 C 0.65313 0.562 0.85209 0.0
C92 C 0.67164 0.54452 0.84745 0.0
C93 C 0.6871 0.53596 0.85922 0.0
C94 C 0.70209 0.51636 0.85521 0.0
C95 C 0.70188 0.50522 0.83934 0.0
C96 C 0.68542 0.51281 0.82767 0.0
C97 C 0.67026 0.53227 0.8317 0.0
C98 C 0.57717 0.54106 0.81519 0.0
C99 C 0.57574 0.46968 0.84357 0.0
O100 O 0.50601 0.49025 0.82316 0.0
O101 O 0.49186 0.48531 0.84753 0.0
O102 O 0.53084 0.5325 0.86773 0.0
O103 O 0.56723 0.51831 0.86479 0.0
O104 O 0.54041 0.56156 0.83844 0.0
O105 O 0.58072 0.5817 0.85464 0.0
O106 O 0.63437 0.55006 0.86284 0.0
O107 O 0.64171 0.57172 0.84044 0.0
O108 O 0.59352 0.56569 0.82295 0.0
O109 O 0.5709 0.51904 0.82397 0.0
O110 O 0.59808 0.4945 0.8414 0.0
O111 O 0.54969 0.47114 0.84593 0.0
H112 H 0.49272 0.53327 0.81507 0.0
H113 H 0.46729 0.56948 0.81834 0.0
H114 H 0.40514 0.50897 0.84804 0.0
H115 H 0.431 0.47283 0.84507 0.0
H116 H 0.68755 0.54443 0.87148 0.0
H117 H 0.71524 0.51139 0.86439 0.0
H118 H 0.68529 0.50468 0.81537 0.0
H119 H 0.65753 0.53765 0.82246 0.0
C120 C 0.6007 0.07962 0.21646 0.0
C121 C 0.61664 0.10121 0.2284 0.0
C122 C 0.65273 0.12595 0.20926 0.0
C123 C 0.64241 0.12428 0.22482 0.0
C124 C 0.63644 0.10439 0.19735 0.0
C125 C 0.61068 0.08146 0.20093 0.0
U126 U 0.54956 0.03237 0.24627 0.0
O127 O 0.50164 0.01041 0.24548 0.0
O128 O 0.53011 0.98293 0.2471 0.0
C129 C 0.5032 0.98306 0.24579 0.0
C130 C 0.57436 0.05436 0.2201 0.0
C131 C 0.4831 0.95894 0.23506 0.0
C132 C 0.45737 0.93917 0.20965 0.0
C133 C 0.47732 0.96304 0.21914 0.0
C134 C 0.44949 0.90716 0.23182 0.0
C135 C 0.44339 0.91094 0.21593 0.0
C136 C 0.46906 0.9309 0.24126 0.0
C137 C 0.56854 0.05364 0.29074 0.0
C138 C 0.53974 0.0271 0.31214 0.0
C139 C 0.58802 0.06413 0.31789 0.0
C140 C 0.59096 0.06954 0.30181 0.0
C141 C 0.56251 0.04271 0.32325 0.0
C142 C 0.54281 0.03239 0.29596 0.0
C143 C 0.57327 0.05883 0.27381 0.0
O144 O 0.57942 0.03217 0.22694 0.0
O145 O 0.55312 0.06193 0.22655 0.0
O146 O 0.55328 0.06624 0.26611 0.0
O147 O 0.582 0.03891 0.26573 0.0
H148 H 0.60935 0.09998 0.24051 0.0
H149 H 0.65461 0.14036 0.23428 0.0
H150 H 0.64358 0.10528 0.18523 0.0
H151 H 0.59866 0.06496 0.19158 0.0
H152 H 0.45299 0.94267 0.19743 0.0
H153 H 0.48804 0.98457 0.21413 0.0
H154 H 0.43861 0.88593 0.2371 0.0
H155 H 0.4731 0.92738 0.25352 0.0
H156 H 0.51988 0.01038 0.31592 0.0
H157 H 0.60572 0.07689 0.32617 0.0
H158 H 0.61096 0.086 0.29798 0.0
H159 H 0.52533 0.01973 0.28753 0.0
C160 C 0.5374 0.59847 0.54181 0.0
C161 C 0.53467 0.61624 0.55524 0.0
C162 C 0.53804 0.65816 0.53869 0.0
C163 C 0.53498 0.64589 0.55369 0.0
C164 C 0.54074 0.64004 0.52533 0.0
C165 C 0.54037 0.61055 0.5269 0.0
U166 U 0.5389 0.52779 0.56325 0.0
O167 O 0.51569 0.48008 0.55504 0.0
O168 O 0.56422 0.49863 0.5554 0.0
C169 C 0.54025 0.47574 0.55137 0.0
C170 C 0.53767 0.56747 0.54278 0.0
C171 C 0.54095 0.44491 0.54845 0.0
C172 C 0.5473 0.40665 0.52962 0.0
C173 C 0.54668 0.43582 0.53308 0.0
C174 C 0.53645 0.39516 0.55695 0.0
C175 C 0.54223 0.3859 0.54151 0.0
C176 C 0.53578 0.42446 0.56039 0.0
C177 C 0.54005 0.53717 0.6107 0.0
C178 C 0.55204 0.51207 0.63291 0.0
C179 C 0.53468 0.55419 0.63789 0.0
C180 C 0.53226 0.55656 0.62157 0.0
C181 C 0.54506 0.53229 0.64386 0.0
C182 C 0.54971 0.51459 0.61642 0.0
C183 C 0.53942 0.54316 0.59374 0.0
O184 O 0.56197 0.565 0.54844 0.0
O185 O 0.514 0.54744 0.54794 0.0
O186 O 0.51515 0.52963 0.58521 0.0
O187 O 0.56336 0.54735 0.58572 0.0
H188 H 0.53236 0.60722 0.56686 0.0
H189 H 0.53258 0.6591 0.5642 0.0
H190 H 0.5437 0.64882 0.51366 0.0
H191 H 0.54266 0.59717 0.51641 0.0
H192 H 0.55221 0.40054 0.51768 0.0
H193 H 0.55069 0.45138 0.5237 0.0
H194 H 0.53208 0.37965 0.56634 0.0
H195 H 0.5312 0.43111 0.57231 0.0
H196 H 0.56015 0.49495 0.63707 0.0
H197 H 0.52849 0.56972 0.64586 0.0
H198 H 0.52476 0.57414 0.61741 0.0
H199 H 0.55591 0.49941 0.60821 0.0
C200 C 0.04554 0.55247 0.87872 0.0
C201 C 1.02737 0.55911 0.89005 0.0
C202 C 0.99013 0.55148 0.8697 0.0
C203 C 0.99985 0.55874 0.88556 0.0
C204 C 1.00884 0.5465 0.85814 0.0
C205 C 1.03661 0.54683 0.86269 0.0
U206 U 0.08071 0.53585 0.91341 0.0
O207 O 0.10492 0.50525 0.91809 0.0
O208 O 0.12597 0.55458 0.92296 0.0
C209 C 0.1296 0.52837 0.91975 0.0
C210 C 0.07138 0.54707 0.88444 0.0
C211 C 0.15031 0.52933 0.90725 0.0
C212 C 0.15692 0.51961 0.87923 0.0
C213 C 0.13971 0.51364 0.89242 0.0
C214 C 0.19558 0.55724 0.89529 0.0
C215 C 0.18466 0.54161 0.88062 0.0
C216 C 0.17844 0.55109 0.90861 0.0
C217 C 1.04386 0.52734 0.95128 0.0
C218 C 0.07099 0.51484 0.97235 0.0
C219 C 1.03107 0.53328 0.97848 0.0
C220 C 1.02613 0.53524 0.96234 0.0
C221 C 0.05387 0.52357 0.98356 0.0
C222 C 0.06607 0.51681 0.95629 0.0
C223 C 1.04182 0.53303 0.93467 0.0
O224 O 0.08733 0.56818 0.89493 0.0
O225 O 0.06588 0.51936 0.88882 0.0
O226 O 1.04036 0.50989 0.92474 0.0
O227 O 0.06106 0.55884 0.93091 0.0
H228 H 1.03385 0.563 0.90254 0.0
H229 H 0.98558 0.56259 0.89458 0.0
H230 H 1.00131 0.54051 0.84585 0.0
H231 H 0.05037 0.54119 0.85393 0.0
H232 H 0.14858 0.50723 0.86794 0.0
H233 H 0.11769 0.49749 0.8908 0.0
H234 H 0.2174 0.57396 0.89644 0.0
H235 H 0.1866 0.56408 0.91976 0.0
H236 H 0.08844 0.50694 0.976 0.0
H237 H 1.0178 0.54039 0.98699 0.0
H238 H 1.00921 0.54378 0.95855 0.0
H239 H 0.08016 0.51095 0.94781 0.0
C240 C 0.99134 0.47431 0.47822 0.0
C241 C 0.96884 0.45991 0.46685 0.0
C242 C 0.94313 0.42404 0.48594 0.0
C243 C 0.94489 0.43507 0.47069 0.0
C244 C 0.966 0.43842 0.4972 0.0
C245 C 0.98984 0.46336 0.49336 0.0
U246 U 1.03802 0.52198 0.44741 0.0
O247 O 0.06009 0.57123 0.44701 0.0
O248 O 0.08574 0.54066 0.44546 0.0
C249 C 0.08623 0.56881 0.44645 0.0
C250 C 1.01674 0.50023 0.47427 0.0
C251 C 0.10908 0.58992 0.4571 0.0
C252 C 0.12824 0.61384 0.48315 0.0
C253 C 0.10542 0.59362 0.47349 0.0
C254 C 0.15817 0.62638 0.46007 0.0
C255 C 0.15493 0.63014 0.4765 0.0
C256 C 0.13547 0.60647 0.45049 0.0
C257 C 1.01685 0.49846 0.40364 0.0
C258 C 0.04665 0.52329 0.38217 0.0
C259 C 1.00397 0.47837 0.37642 0.0
C260 C 0.99829 0.47699 0.39257 0.0
C261 C 1.02839 0.50126 0.37105 0.0
C262 C 1.04098 0.52181 0.3984 0.0
C263 C 1.01146 0.49497 0.4206 0.0
O264 O 1.03748 0.49305 0.46703 0.0
O265 O 1.01064 0.52236 0.46791 0.0
O266 O 1.00499 0.51683 0.42836 0.0
O267 O 1.03027 0.48601 0.42837 0.0
H268 H 0.96976 0.46795 0.45503 0.0
H269 H 0.92757 0.42482 0.46178 0.0
H270 H 0.96567 0.43023 0.50894 0.0
H271 H 1.0072 0.47402 0.50221 0.0
H272 H 0.12522 0.6164 0.49579 0.0
H273 H 0.0851 0.58088 0.47877 0.0
H274 H 0.17825 0.63911 0.45457 0.0
H275 H 0.13856 0.60395 0.43785 0.0
H276 H 0.06568 0.54112 0.37837 0.0
H277 H 0.98921 0.46143 0.36812 0.0
H278 H 0.97959 0.45885 0.39644 0.0
H279 H 0.05563 0.53851 0.40686 0.0
C280 C 0.54969 0.9433 0.82057 0.0
C281 C 0.55056 0.92497 0.80696 0.0
C282 C 0.55171 0.88444 0.82352 0.0
C283 C 0.5515 0.89573 0.80842 0.0
C284 C 0.55033 0.90286 0.83704 0.0
C285 C 0.54936 0.93195 0.83556 0.0
U286 U 0.54924 0.01181 0.79764 0.0
O287 O 0.52742 0.04504 0.804 0.0
O288 O 0.57599 0.06004 0.80285 0.0
C289 C 0.55266 0.06733 0.80579 0.0
C290 C 0.55001 0.97459 0.81959 0.0
C291 C 0.55459 0.09867 0.81037 0.0
C292 C 0.55302 0.13739 0.83047 0.0
C293 C 0.54994 0.1072 0.82606 0.0
C294 C 0.56485 0.15057 0.80346 0.0
C295 C 0.56068 0.15953 0.81922 0.0
C296 C 0.56202 0.12051 0.79912 0.0
C297 C 0.54617 0.99815 0.75089 0.0
C298 C 0.53731 0.02634 0.72924 0.0
C299 C 0.55235 0.98279 0.72353 0.0
C300 C 0.55315 0.97859 0.73973 0.0
C301 C 0.54429 1.00654 0.71812 0.0
C302 C 0.53837 0.02226 0.7456 0.0
C303 C 0.54645 0.99152 0.76773 0.0
O304 O 0.57377 0.99367 0.81397 0.0
O305 O 0.52585 0.97768 0.8141 0.0
O306 O 0.5232 0.99003 0.77591 0.0
O307 O 0.5712 1.00408 0.77595 0.0
H308 H 0.55087 0.9334 0.79526 0.0
H309 H 0.55271 0.88224 0.79777 0.0
H310 H 0.54988 0.89476 0.84881 0.0
H311 H 0.54858 0.94572 0.84619 0.0
H312 H 0.54996 0.14347 0.84273 0.0
H313 H 0.54441 0.09063 0.83495 0.0
H314 H 0.57015 0.16678 0.79439 0.0
H315 H 0.56559 0.11429 0.78695 0.0
H316 H 0.53123 0.04495 0.72527 0.0
H317 H 0.55771 0.96723 0.71516 0.0
H318 H 0.55904 0.95976 0.74357 0.0
H319 H 0.53297 0.03766 0.75403 0.0
C320 C 0.63899 0.49267 0.144 0.0
C321 C 0.65284 0.48196 0.13159 0.0
C322 C 0.69852 0.49337 0.14803 0.0
C323 C 0.68209 0.48238 0.13356 0.0
C324 C 0.68421 0.50382 0.16037 0.0
C325 C 0.65526 0.50354 0.15836 0.0
U326 U 0.55997 0.49152 0.12696 0.0
O327 O 0.5168 0.46526 0.13642 0.0
O328 O 0.53278 0.51471 0.13956 0.0
C329 C 0.51171 0.48945 0.14233 0.0
C330 C 0.60746 0.49145 0.14316 0.0
C331 C 0.48058 0.48927 0.14352 0.0
C332 C 0.4403 0.48966 0.16089 0.0
C333 C 0.46901 0.48957 0.15872 0.0
C334 C 0.43322 0.48908 0.13256 0.0
C335 C 0.4216 0.48959 0.14791 0.0
C336 C 0.46219 0.48895 0.1304 0.0
C337 C 0.56205 0.49639 0.07852 0.0
C338 C 0.5409 0.50573 0.05382 0.0
C339 C 0.58489 0.49266 0.05323 0.0
C340 C 0.58423 0.49067 0.06979 0.0
C341 C 0.56318 0.50017 0.04494 0.0
C342 C 0.54043 0.50398 0.07039 0.0
C343 C 0.56154 0.49456 0.09603 0.0
O344 O 0.60179 0.51615 0.14042 0.0
O345 O 0.58704 0.46679 0.13707 0.0
O346 O 0.55367 0.4686 0.10276 0.0
O347 O 0.56831 0.51884 0.10588 0.0
H348 H 0.64109 0.47318 0.12037 0.0
H349 H 0.69186 0.47432 0.1236 0.0
H350 H 0.69512 0.51179 0.17185 0.0
H351 H 0.64529 0.51152 0.16829 0.0
H352 H 0.43272 0.48934 0.1729 0.0
H353 H 0.48234 0.48967 0.16912 0.0
H354 H 0.42013 0.48927 0.12214 0.0
H355 H 0.4702 0.48875 0.1185 0.0
H356 H 0.52399 0.51193 0.04801 0.0
H357 H 0.60222 0.48787 0.0469 0.0
H358 H 0.60117 0.48478 0.0758 0.0
H359 H 0.52309 0.50849 0.07687 0.0
H360 H 0.17402 0.52867 0.18931 0.0
H361 H 0.22379 0.52744 0.1853 0.0
H362 H 0.18953 0.45417 0.14946 0.0
H363 H 0.13968 0.45459 0.15391 0.0
H364 H 0.24627 0.47422 0.18682 0.0
H365 H 0.25773 0.52254 0.12785 0.0
H366 H 0.23128 0.52672 0.14182 0.0
H367 H 0.22466 0.49128 0.13059 0.0
C368 C 0.17704 0.51208 0.18068 0.0
C369 C 0.15256 0.49149 0.1721 0.0
C370 C 0.20565 0.51141 0.17836 0.0
C371 C 0.21097 0.49084 0.16696 0.0
C372 C 0.18648 0.47039 0.1583 0.0
H373 H 0.37091 0.46536 0.12839 0.0
H374 H 0.32135 0.46546 0.13316 0.0
C375 C 0.15779 0.4705 0.16094 0.0
C376 C 0.24188 0.49078 0.16409 0.0
H377 H 0.2958 0.50614 0.13657 0.0
C378 C 0.25708 0.48133 0.17584 0.0
C379 C 0.2564 0.49976 0.14976 0.0
C380 C 0.24192 0.51088 0.13677 0.0
C381 C 0.28562 0.48004 0.17359 0.0
C382 C 0.30044 0.48944 0.1593 0.0
C383 C 0.28509 0.49889 0.14755 0.0
C384 C 0.33155 0.48968 0.1563 0.0
C385 C 0.29905 0.46745 0.18644 0.0
C386 C 0.35492 0.50381 0.16737 0.0
C387 C 0.38361 0.5039 0.16462 0.0
C388 C 0.39052 0.49006 0.15058 0.0
C389 C 0.3672 0.47652 0.13932 0.0
C390 C 0.33844 0.47642 0.14211 0.0
H391 H 0.282 0.45222 0.19369 0.0
H392 H 0.31264 0.4546 0.18138 0.0
H393 H 0.3131 0.48643 0.19453 0.0
H394 H 0.35116 0.51531 0.17818 0.0
H395 H 0.40052 0.51545 0.17354 0.0
H396 H 0.72483 0.20017 0.53543 0.0
H397 H 0.76506 0.24867 0.53401 0.0
H398 H 0.76348 0.23402 0.48302 0.0
H399 H 0.72378 0.18596 0.48431 0.0
H400 H 0.82036 0.25799 0.52135 0.0
H401 H 0.76138 0.31989 0.48884 0.0
H402 H 0.74264 0.28619 0.49893 0.0
H403 H 0.75652 0.28318 0.47945 0.0
C404 C 0.73303 0.20743 0.52393 0.0
C405 C 0.7209 0.1894 0.50996 0.0
C406 C 0.75589 0.23512 0.52314 0.0
C407 C 0.76679 0.24518 0.50837 0.0
C408 C 0.75481 0.22712 0.49448 0.0
H409 H 0.91301 0.37274 0.46725 0.0
H410 H 0.87011 0.33043 0.4741 0.0
C411 C 0.73208 0.19962 0.49526 0.0
C412 C 0.7918 0.27365 0.50727 0.0
H413 H 0.81384 0.33913 0.48803 0.0
C414 C 0.81886 0.27602 0.51432 0.0
C415 C 0.78975 0.29711 0.49809 0.0
C416 C 0.76093 0.29667 0.49103 0.0
C417 C 0.84424 0.30061 0.51176 0.0
C418 C 0.84234 0.32326 0.50197 0.0
C419 C 0.81516 0.32146 0.49539 0.0
C420 C 0.8685 0.34865 0.49806 0.0
C421 C 0.87315 0.30173 0.51896 0.0
C422 C 0.8815 0.37288 0.50927 0.0
C423 C 0.90575 0.3973 0.50535 0.0
C424 C 0.91749 0.39785 0.49015 0.0
C425 C 0.90434 0.37332 0.47898 0.0
C426 C 0.87997 0.34902 0.48289 0.0
H427 H 0.87132 0.28104 0.5252 0.0
H428 H 0.88947 0.30439 0.50957 0.0
H429 H 0.88153 0.32171 0.5276 0.0
H430 H 0.87266 0.37304 0.52099 0.0
H431 H 0.91495 0.416 0.51416 0.0
H432 H 0.52402 0.60206 0.82629 0.0
H433 H 0.52468 0.65329 0.82222 0.0
H434 H 0.59073 0.68912 0.85972 0.0
H435 H 0.59084 0.63797 0.86353 0.0
H436 H 0.51209 0.6937 0.8414 0.0
H437 H 0.62814 0.74298 0.82522 0.0
H438 H 0.61028 0.70281 0.82673 0.0
H439 H 0.62375 0.72755 0.84433 0.0
C440 C 0.53861 0.6208 0.83373 0.0
C441 C 0.55738 0.61589 0.84523 0.0
C442 C 0.53906 0.65014 0.83134 0.0
C443 C 0.55821 0.67524 0.84041 0.0
C444 C 0.57638 0.6703 0.85224 0.0
H445 H 0.58412 0.86793 0.84565 0.0
H446 H 0.58546 0.81733 0.84957 0.0
C447 C 0.57616 0.64096 0.85453 0.0
C448 C 0.55834 0.70634 0.83777 0.0
H449 H 0.60217 0.77734 0.82916 0.0
C450 C 0.53178 0.71192 0.83863 0.0
C451 C 0.58406 0.73023 0.83421 0.0
C452 C 0.61312 0.72558 0.83241 0.0
C453 C 0.53022 0.74065 0.83623 0.0
C454 C 0.55587 0.76446 0.83263 0.0
C455 C 0.5825 0.75903 0.83187 0.0
C456 C 0.55552 0.79528 0.82984 0.0
C457 C 0.5012 0.74539 0.83792 0.0
C458 C 0.53866 0.79987 0.81724 0.0
C459 C 0.53769 0.82881 0.81501 0.0
C460 C 0.55363 0.85378 0.82533 0.0
C461 C 0.5711 0.84916 0.83767 0.0
C462 C 0.57208 0.82026 0.83987 0.0
H463 H 0.48565 0.72745 0.8446 0.0
H464 H 0.50406 0.76779 0.84408 0.0
H465 H 0.49126 0.7447 0.82593 0.0
H466 H 0.52613 0.78101 0.80917 0.0
H467 H 0.52395 0.83148 0.80542 0.0
H468 H 0.95518 0.45546 0.15774 0.0
H469 H 0.90519 0.4554 0.15395 0.0
H470 H 0.9306 0.54482 0.17757 0.0
H471 H 0.98114 0.54584 0.18002 0.0
H472 H 0.86287 0.45388 0.16933 0.0
H473 H 0.88821 0.56551 0.14435 0.0
H474 H 0.91625 0.54937 0.14771 0.0
H475 H 0.90466 0.56937 0.16378 0.0
C476 C 0.95026 0.47535 0.16195 0.0
C477 C 0.97271 0.50084 0.169 0.0
C478 C 0.92131 0.47529 0.15982 0.0
C479 C 0.91326 0.50047 0.16496 0.0
C480 C 0.93561 0.52551 0.17262 0.0
H481 H 0.74402 0.53342 0.16727 0.0
H482 H 0.79386 0.53381 0.17163 0.0
C483 C 0.96482 0.52596 0.17426 0.0
C484 C 0.88164 0.49988 0.16262 0.0
H485 H 0.83931 0.5419 0.15184 0.0
C486 C 0.85806 0.47321 0.16532 0.0
C487 C 0.8742 0.52481 0.15746 0.0
C488 C 0.89716 0.55372 0.15301 0.0
C489 C 0.82827 0.47087 0.16322 0.0
C490 C 0.82098 0.49584 0.15821 0.0
C491 C 0.84438 0.52259 0.15569 0.0
C492 C 0.7895 0.49485 0.15558 0.0
C493 C 0.80477 0.44164 0.16678 0.0
C494 C 0.76956 0.47303 0.14491 0.0
C495 C 0.74051 0.47256 0.14242 0.0
C496 C 0.73008 0.49397 0.15044 0.0
C497 C 0.75032 0.51599 0.16098 0.0
C498 C 0.77932 0.51646 0.16344 0.0
H499 H 0.81332 0.428 0.17452 0.0
H500 H 0.78616 0.44603 0.17266 0.0
H501 H 0.79641 0.42788 0.15549 0.0
H502 H 0.77651 0.45637 0.13831 0.0
H503 H 0.72613 0.45499 0.13428 0.0
H504 H 0.3531 0.86924 0.5381 0.0
H505 H 0.31082 0.82259 0.5341 0.0
H506 H 0.35772 0.78687 0.49979 0.0
H507 H 0.40027 0.83386 0.50365 0.0
H508 H 0.28512 0.80079 0.49983 0.0
H509 H 0.31768 0.71909 0.53418 0.0
H510 H 0.33244 0.75956 0.53888 0.0
H511 H 0.34432 0.74327 0.5217 0.0
C512 C 0.35461 0.8512 0.52994 0.0
C513 C 0.37992 0.85497 0.52124 0.0
C514 C 0.33047 0.82468 0.52765 0.0
C515 C 0.33141 0.80137 0.5168 0.0
C516 C 0.35686 0.80464 0.50835 0.0
H517 H 0.21214 0.6347 0.47605 0.0
H518 H 0.25397 0.6757 0.48824 0.0
C519 C 0.38098 0.83141 0.51049 0.0
C520 C 0.30477 0.77488 0.51331 0.0
H521 H 0.27313 0.6997 0.51906 0.0
C522 C 0.28229 0.77869 0.5041 0.0
C523 C 0.30148 0.7463 0.51893 0.0
C524 C 0.32513 0.74158 0.52906 0.0
C525 C 0.25668 0.75429 0.49995 0.0
C526 C 0.25326 0.72554 0.50555 0.0
C527 C 0.2757 0.72186 0.51496 0.0
C528 C 0.22775 0.69856 0.50047 0.0
C529 C 0.23406 0.75926 0.48908 0.0
C530 C 0.19914 0.69717 0.50391 0.0
C531 C 0.17513 0.67382 0.49685 0.0
C532 C 0.17954 0.65161 0.48631 0.0
C533 C 0.20818 0.65188 0.4839 0.0
C534 C 0.23207 0.67515 0.49092 0.0
H535 H 0.24289 0.78087 0.48317 0.0
H536 H 0.22588 0.74036 0.47978 0.0
H537 H 0.21522 0.76016 0.49613 0.0
H538 H 0.19542 0.7148 0.51152 0.0
H539 H 0.15328 0.67409 0.49893 0.0
H540 H 0.61757 0.45001 0.82932 0.0
H541 H 0.61712 0.39736 0.8265 0.0
H542 H 0.54039 0.36887 0.85476 0.0
H543 H 0.54026 0.42056 0.85727 0.0
H544 H 0.6188 0.35537 0.84818 0.0
H545 H 0.5123 0.3147 0.81468 0.0
H546 H 0.53293 0.35447 0.81856 0.0
H547 H 0.51068 0.33323 0.83366 0.0
C548 C 0.6008 0.43248 0.835 0.0
C549 C 0.57867 0.43932 0.84326 0.0
C550 C 0.60049 0.40245 0.83336 0.0
C551 C 0.57815 0.37901 0.84001 0.0
C552 C 0.55722 0.38631 0.84906 0.0
H553 H 0.52795 0.18209 0.83954 0.0
H554 H 0.53338 0.23532 0.84591 0.0
C555 C 0.55732 0.41599 0.85055 0.0
C556 C 0.57614 0.34681 0.83743 0.0
H557 H 0.53009 0.27685 0.82346 0.0
C558 C 0.59952 0.33823 0.84267 0.0
C559 C 0.55081 0.32437 0.83035 0.0
C560 C 0.52537 0.33216 0.82385 0.0
C561 C 0.59808 0.3078 0.84122 0.0
C562 C 0.5728 0.28544 0.83413 0.0
C563 C 0.54939 0.29398 0.82897 0.0
C564 C 0.5707 0.25329 0.83122 0.0
C565 C 0.6234 0.29971 0.84757 0.0
C566 C 0.58985 0.24571 0.82085 0.0
C567 C 0.58689 0.2154 0.81724 0.0
C568 C 0.56453 0.19186 0.82379 0.0
C569 C 0.54558 0.19956 0.83437 0.0
C570 C 0.54855 0.22997 0.83797 0.0
H571 H 0.63744 0.31764 0.85623 0.0
H572 H 0.61551 0.27797 0.85341 0.0
H573 H 0.63712 0.29703 0.83756 0.0
H574 H 0.60677 0.26327 0.81529 0.0
H575 H 0.60216 0.21043 0.80924 0.0
H576 H 0.59402 0.94674 0.53576 0.0
H577 H 0.59179 0.8943 0.53884 0.0
H578 H 0.52009 0.86185 0.50429 0.0
H579 H 0.52164 0.91409 0.50156 0.0
H580 H 0.52987 0.84283 0.54589 0.0
H581 H 0.59017 0.82384 0.49286 0.0
H582 H 0.59721 0.86112 0.50251 0.0
H583 H 0.56425 0.84329 0.49072 0.0
C584 C 0.57822 0.92841 0.52861 0.0
C585 C 0.55817 0.93428 0.51832 0.0
C586 C 0.57684 0.89857 0.53045 0.0
C587 C 0.55585 0.87437 0.52174 0.0
C588 C 0.53646 0.8803 0.51107 0.0
H589 H 0.51334 0.67931 0.51467 0.0
H590 H 0.51735 0.73167 0.51085 0.0
C591 C 0.53741 0.91004 0.5095 0.0
C592 C 0.55313 0.84274 0.52438 0.0
H593 H 0.56895 0.78203 0.50827 0.0
C594 C 0.53853 0.82952 0.53775 0.0
C595 C 0.56412 0.8255 0.51359 0.0
C596 C 0.57996 0.83901 0.4991 0.0
C597 C 0.53448 0.79924 0.54058 0.0
C598 C 0.5459 0.78205 0.52992 0.0
C599 C 0.56035 0.7953 0.51647 0.0
C600 C 0.54305 0.75025 0.5325 0.0
C601 C 0.51739 0.78566 0.55472 0.0
C602 C 0.55624 0.74332 0.54594 0.0
C603 C 0.55418 0.7134 0.54812 0.0
C604 C 0.53898 0.68981 0.53686 0.0
C605 C 0.52558 0.6969 0.52348 0.0
C606 C 0.52773 0.72681 0.52129 0.0
H607 H 0.50403 0.79916 0.55935 0.0
H608 H 0.50268 0.76206 0.55161 0.0
H609 H 0.53285 0.78509 0.56438 0.0
H610 H 0.56861 0.76115 0.5546 0.0
H611 H 0.56518 0.7089 0.55841 0.0
H612 H 0.71491 0.45992 0.85281 0.0
H613 H 0.76531 0.46064 0.85527 0.0
H614 H 0.79036 0.524 0.81868 0.0
H615 H 0.74054 0.5239 0.81636 0.0
H616 H 0.81581 0.46055 0.83391 0.0
H617 H 0.82039 0.57014 0.86479 0.0
H618 H 0.78641 0.53977 0.85973 0.0
H619 H 0.80567 0.56369 0.84473 0.0
C620 C 0.73086 0.47252 0.84466 0.0
C621 C 0.72435 0.4925 0.83476 0.0
C622 C 0.75951 0.47305 0.84613 0.0
C623 C 0.78112 0.49306 0.83744 0.0
C624 C 0.77361 0.50872 0.82552 0.0
H625 H 0.96703 0.5749 0.84644 0.0
H626 H 0.91477 0.56136 0.83923 0.0
C627 C 0.74507 0.50832 0.82409 0.0
C628 C 0.81143 0.50239 0.84301 0.0
H629 H 0.86537 0.5615 0.86202 0.0
C630 C 0.82678 0.48253 0.84005 0.0
C631 C 0.82495 0.53096 0.85129 0.0
C632 C 0.80849 0.55232 0.85548 0.0
C633 C 0.85617 0.49102 0.84474 0.0
C634 C 0.86991 0.51987 0.85257 0.0
C635 C 0.85442 0.53955 0.85582 0.0
C636 C 0.90049 0.52979 0.8576 0.0
C637 C 0.87247 0.46934 0.8412 0.0
C638 C 0.90884 0.51677 0.87042 0.0
C639 C 0.93824 0.52437 0.87449 0.0
C640 C 0.95934 0.54514 0.86577 0.0
C641 C 0.95087 0.55874 0.85316 0.0
C642 C 0.92134 0.55119 0.84914 0.0
H643 H 0.86001 0.45024 0.83267 0.0
H644 H 0.8941 0.48134 0.83626 0.0
H645 H 0.87636 0.45983 0.8524 0.0
H646 H 0.89267 0.50028 0.87701 0.0
H647 H 0.94454 0.51346 0.88416 0.0
H648 H 0.19598 0.71663 0.17621 0.0
H649 H 0.24199 0.75894 0.18035 0.0
H650 H 0.28935 0.69617 0.1802 0.0
H651 H 0.2432 0.6537 0.17535 0.0
H652 H 0.27932 0.77327 0.20411 0.0
H653 H 0.33773 0.75432 0.15063 0.0
H654 H 0.29943 0.73373 0.15306 0.0
H655 H 0.32698 0.72266 0.16282 0.0
C656 C 0.21624 0.71189 0.177 0.0
C657 C 0.21607 0.68195 0.17544 0.0
C658 C 0.24254 0.73607 0.17933 0.0
C659 C 0.2693 0.7309 0.18032 0.0
C660 C 0.26917 0.70089 0.17899 0.0
H661 H 0.44029 0.85191 0.21293 0.0
H662 H 0.39904 0.80836 0.20208 0.0
C663 C 0.24279 0.67663 0.17636 0.0
C664 C 0.29687 0.75707 0.18353 0.0
H665 H 0.36541 0.79257 0.17008 0.0
C666 C 0.29799 0.77754 0.19655 0.0
C667 C 0.32142 0.76265 0.17375 0.0
C668 C 0.32131 0.74234 0.1592 0.0
C669 C 0.32279 0.80329 0.20007 0.0
C670 C 0.34721 0.80886 0.1903 0.0
C671 C 0.34646 0.78831 0.17742 0.0
C672 C 0.37411 0.83531 0.19397 0.0
C673 C 0.32292 0.82419 0.21437 0.0
C674 C 0.37417 0.86491 0.1924 0.0
C675 C 0.39775 0.88987 0.19857 0.0
C676 C 0.42145 0.88549 0.20649 0.0
C677 C 0.42214 0.85589 0.20704 0.0
C678 C 0.3987 0.83102 0.20079 0.0
H679 H 0.30429 0.8141 0.22215 0.0
H680 H 0.34367 0.82987 0.2215 0.0
H681 H 0.32134 0.84564 0.21034 0.0
H682 H 0.35536 0.8686 0.1871 0.0
H683 H 0.3966 0.9124 0.19803 0.0
H684 H 0.55881 0.12428 0.54908 0.0
H685 H 0.55857 0.1765 0.54905 0.0
H686 H 0.52597 0.15964 0.50035 0.0
H687 H 0.5261 0.10741 0.50046 0.0
H688 H 0.58941 0.22153 0.52829 0.0
H689 H 0.469 0.19532 0.52252 0.0
H690 H 0.48479 0.16758 0.52812 0.0
H691 H 0.48488 0.17699 0.5078 0.0
C692 C 0.55115 0.13172 0.53851 0.0
C693 C 0.54194 0.11201 0.52488 0.0
C694 C 0.5512 0.16148 0.53844 0.0
C695 C 0.54192 0.17182 0.52476 0.0
C696 C 0.5327 0.15198 0.51111 0.0
H697 H 0.52129 0.34835 0.51459 0.0
H698 H 0.52344 0.29762 0.50853 0.0
C699 C 0.53276 0.12226 0.51118 0.0
C700 C 0.54257 0.20359 0.52477 0.0
H701 H 0.49867 0.24679 0.52354 0.0
C702 C 0.56959 0.22709 0.52721 0.0
C703 C 0.51675 0.21077 0.52301 0.0
C704 C 0.48714 0.18641 0.52032 0.0
C705 C 0.57143 0.25759 0.52832 0.0
C706 C 0.54545 0.26475 0.52748 0.0
C707 C 0.51855 0.24128 0.52436 0.0
C708 C 0.54547 0.29616 0.53075 0.0
C709 C 0.60124 0.28184 0.53029 0.0
C710 C 0.55693 0.31216 0.54529 0.0
C711 C 0.55599 0.34125 0.54874 0.0
C712 C 0.54324 0.3549 0.53778 0.0
C713 C 0.53163 0.33873 0.52323 0.0
C714 C 0.53269 0.30965 0.51977 0.0
H715 H 0.61845 0.27371 0.52524 0.0
H716 H 0.60182 0.30258 0.52445 0.0
H717 H 0.6067 0.28792 0.54313 0.0
H718 H 0.56629 0.30199 0.55412 0.0
H719 H 0.56543 0.3531 0.55997 0.0
H720 H 0.4176 0.56083 0.86184 0.0
H721 H 0.37609 0.57846 0.86412 0.0
H722 H 0.37837 0.59245 0.81398 0.0
H723 H 0.41884 0.57315 0.81145 0.0
H724 H 0.35092 0.61983 0.85649 0.0
H725 H 0.31042 0.51225 0.81844 0.0
H726 H 0.34664 0.52691 0.82743 0.0
H727 H 0.33833 0.54228 0.8097 0.0
C728 C 0.40986 0.56873 0.85144 0.0
C729 C 0.42012 0.56434 0.83636 0.0
C730 C 0.38645 0.57911 0.85278 0.0
C731 C 0.37376 0.58548 0.83904 0.0
C732 C 0.38775 0.58687 0.82457 0.0
H733 H 0.20187 0.58919 0.86191 0.0
H734 H 0.24469 0.60127 0.84506 0.0
C735 C 0.41085 0.57593 0.82316 0.0
C736 C 0.34284 0.58231 0.83918 0.0
H737 H 0.27557 0.533 0.82709 0.0
C738 C 0.3343 0.60139 0.84981 0.0
C739 C 0.32158 0.55705 0.83098 0.0
C740 C 0.32957 0.53322 0.82114 0.0
C741 C 0.30483 0.59527 0.85297 0.0
C742 C 0.2835 0.57068 0.84433 0.0
C743 C 0.29207 0.55244 0.83317 0.0
C744 C 0.25308 0.55987 0.84912 0.0
C745 C 0.29717 0.61341 0.86653 0.0
C746 C 0.24228 0.53131 0.85535 0.0
C747 C 0.21757 0.52408 0.86438 0.0
C748 C 0.20394 0.54554 0.86737 0.0
C749 C 0.2126 0.57263 0.8597 0.0
C750 C 0.23692 0.57952 0.85023 0.0
H751 H 0.31675 0.62718 0.87395 0.0
H752 H 0.28709 0.62913 0.8617 0.0
H753 H 0.28131 0.59826 0.87436 0.0
H754 H 0.25443 0.51579 0.85453 0.0
H755 H 0.21084 0.50306 0.87029 0.0
H756 H 0.90837 0.28936 0.16801 0.0
H757 H 0.85953 0.25267 0.17088 0.0
H758 H 0.8316 0.32315 0.19264 0.0
H759 H 0.88012 0.36034 0.18922 0.0
H760 H 0.83531 0.23892 0.19984 0.0
H761 H 0.76318 0.27826 0.16192 0.0
H762 H 0.80237 0.29053 0.15998 0.0
H763 H 0.78681 0.30728 0.17558 0.0
C764 C 0.89165 0.2973 0.173 0.0
C765 C 0.89822 0.32781 0.17846 0.0
C766 C 0.86379 0.27622 0.17473 0.0
C767 C 0.8419 0.28519 0.1819 0.0
C768 C 0.84802 0.3158 0.18686 0.0
H769 H 0.67247 0.1864 0.21905 0.0
H770 H 0.71851 0.22521 0.21247 0.0
C771 C 0.87589 0.33695 0.18508 0.0
C772 C 0.81371 0.26206 0.18555 0.0
H773 H 0.7396 0.24076 0.17982 0.0
C774 C 0.81439 0.2392 0.19537 0.0
C775 C 0.78648 0.26259 0.17976 0.0
C776 C 0.78455 0.2858 0.1686 0.0
C777 C 0.78855 0.21707 0.19973 0.0
C778 C 0.76134 0.21768 0.19402 0.0
C779 C 0.76056 0.24051 0.18422 0.0
C780 C 0.73349 0.19435 0.1979 0.0
C781 C 0.79047 0.19347 0.21063 0.0
C782 C 0.72678 0.16428 0.19184 0.0
C783 C 0.70062 0.14212 0.19558 0.0
C784 C 0.68065 0.14963 0.20546 0.0
C785 C 0.6875 0.17985 0.21153 0.0
C786 C 0.71365 0.20206 0.2077 0.0
H787 H 0.81251 0.1997 0.21649 0.0
H788 H 0.77391 0.19016 0.21994 0.0
H789 H 0.7859 0.17152 0.20364 0.0
H790 H 0.74179 0.15796 0.1842 0.0
H791 H 0.69618 0.11901 0.19087 0.0
H792 H 0.1137 0.49279 0.12911 0.0
H793 H 0.12261 0.51116 0.10238 0.0
H794 H 1.03676 0.51944 0.10071 0.0
H795 H 1.02903 0.50358 0.12777 0.0
H796 H 0.09412 0.48222 0.07754 0.0
H797 H 0.0801 0.59401 0.08058 0.0
H798 H 0.08425 0.57587 0.09828 0.0
H799 H 0.04882 0.5667 0.08843 0.0
C800 C 0.09717 0.49924 0.12304 0.0
C801 C 0.07073 0.49683 0.13017 0.0
C802 C 0.10225 0.50981 0.10791 0.0
C803 C 0.08057 0.5172 0.09969 0.0
C804 C 0.05427 0.51508 0.10704 0.0
H805 H 1.01542 0.50219 1.00674 0.0
H806 H 1.0268 0.50328 0.03517 0.0
C807 C 0.04966 0.5056 0.12236 0.0
C808 C 0.0835 0.52276 0.08273 0.0
H809 H 0.06923 0.56559 0.0547 0.0
C810 C 0.08953 0.50098 0.0726 0.0
C811 C 0.07739 0.54717 0.0763 0.0
C812 C 0.07259 0.57237 0.08655 0.0
C813 C 0.08787 0.50196 0.05613 0.0
C814 C 0.07979 0.52512 0.04982 0.0
C815 C 0.07521 0.54777 0.05982 0.0
C816 C 0.07347 0.52462 0.03288 0.0
C817 C 0.0932 0.47749 0.04554 0.0
C818 C 0.09617 0.53625 0.02252 0.0
C819 C 0.08977 0.53578 1.00638 0.0
C820 C 0.06061 0.52365 1.00055 0.0
C821 C 1.03798 0.51193 1.01103 0.0
C822 C 0.04442 0.51244 0.02715 0.0
H823 H 0.09931 0.46097 0.05241 0.0
H824 H 0.0732 0.46512 0.03812 0.0
H825 H 0.11103 0.48792 0.03737 0.0
H826 H 0.11868 0.54576 0.02694 0.0
H827 H 0.10753 0.54529 0.9985 0.0
H828 H 0.58009 0.01304 0.47568 0.0
H829 H 0.58895 0.01672 0.44707 0.0
H830 H 0.51418 0.04524 0.44116 0.0
H831 H 0.50592 0.04261 0.46948 0.0
H832 H 0.55381 0.98603 0.42186 0.0
H833 H 0.57423 0.1084 0.41823 0.0
H834 H 0.5742 0.09167 0.43693 0.0
H835 H 0.54029 0.09027 0.42746 0.0
C836 C 0.56588 0.02052 0.46827 0.0
C837 C 0.5424 0.02767 0.47482 0.0
C838 C 0.57088 0.02252 0.45194 0.0
C839 C 0.55253 0.0318 0.44199 0.0
C840 C 0.52914 0.03888 0.44861 0.0
H841 H 0.51601 0.03821 0.3422 0.0
H842 H 0.51406 0.03329 0.37102 0.0
C843 C 0.52431 0.03713 0.46483 0.0
C844 C 0.55659 0.03279 0.42456 0.0
H845 H 0.56053 0.07769 0.39366 0.0
C846 C 0.55571 1.00619 0.41571 0.0
C847 C 0.55915 0.05913 0.41652 0.0
C848 C 0.56234 0.08904 0.42531 0.0
C849 C 0.55615 1.00496 0.39902 0.0
C850 C 0.55743 0.03092 0.39103 0.0
C851 C 0.55905 0.05768 0.39985 0.0
C852 C 0.55761 0.03107 0.37349 0.0
C853 C 0.55443 0.97575 0.38997 0.0
C854 C 0.58263 0.03121 0.36539 0.0
C855 C 0.58385 0.03416 0.349 0.0
C856 C 0.56003 0.03698 0.3404 0.0
C857 C 0.53461 0.03589 0.34848 0.0
C858 C 0.53351 0.0332 0.36493 0.0
H859 H 0.54951 0.95653 0.39777 0.0
H860 H 0.53733 0.97002 0.38031 0.0
H861 H 0.57567 0.97858 0.38439 0.0
H862 H 0.60152 0.02983 0.37181 0.0
H863 H 0.60362 0.0346 0.34307 0.0
H864 H 0.5884 0.58701 0.79535 0.0
H865 H 0.58152 0.5834 0.76642 0.0
H866 H 0.54745 0.48591 0.76641 0.0
H867 H 0.55364 0.48949 0.79546 0.0
H868 H 0.60663 0.55788 0.7442 0.0
H869 H 0.48636 0.50074 0.73865 0.0
H870 H 0.505 0.51719 0.75737 0.0
H871 H 0.5047 0.48057 0.74968 0.0
C872 C 0.57917 0.56479 0.7892 0.0
C873 C 0.57153 0.53853 0.79771 0.0
C874 C 0.57528 0.56275 0.77264 0.0
C875 C 0.56361 0.5344 0.76414 0.0
C876 C 0.55584 0.5081 0.77264 0.0
H877 H 0.53264 0.48256 0.66186 0.0
H878 H 0.53802 0.48222 0.69083 0.0
C879 C 0.55956 0.51014 0.78926 0.0
C880 C 0.56088 0.53256 0.74638 0.0
H881 H 0.51228 0.50566 0.71474 0.0
C882 C 0.58595 0.5465 0.73779 0.0
C883 C 0.53395 0.51766 0.73791 0.0
C884 C 0.50591 0.50343 0.74636 0.0
C885 C 0.58496 0.54573 0.72108 0.0
C886 C 0.55801 0.53102 0.71261 0.0
C887 C 0.53297 0.51683 0.72117 0.0
C888 C 0.5552 0.53104 0.69495 0.0
C889 C 0.613 0.56029 0.71267 0.0
C890 C 0.56285 0.55851 0.68755 0.0
C891 C 0.56007 0.55875 0.67105 0.0
C892 C 0.54914 0.53151 0.66143 0.0
C893 C 0.54144 0.50395 0.66884 0.0
C894 C 0.54429 0.50373 0.68542 0.0
H895 H 0.6325 0.56192 0.72016 0.0
H896 H 0.61359 0.54742 0.70129 0.0
H897 H 0.61463 0.58364 0.71005 0.0
H898 H 0.57075 0.57991 0.69458 0.0
H899 H 0.56656 0.58044 0.66581 0.0
H900 H 0.51698 0.0137 0.56352 0.0
H901 H 0.50673 1.00643 0.59183 0.0
H902 H 0.59931 0.0419 0.60338 0.0
H903 H 0.60955 0.04928 0.57544 0.0
H904 H 0.52805 0.97268 0.61451 0.0
H905 H 0.56502 0.09598 0.63127 0.0
H906 H 0.55578 0.08064 0.611 0.0
H907 H 0.59086 0.08458 0.61983 0.0
C908 C 0.53504 0.01989 0.57213 0.0
C909 C 0.56404 0.03231 0.56729 0.0
C910 C 0.5292 0.01568 0.58827 0.0
C911 C 0.55227 0.02403 0.59974 0.0
C912 C 0.58115 0.03578 0.5948 0.0
H913 H 0.59052 0.02417 0.69891 0.0
H914 H 0.5895 0.02699 0.66994 0.0
C915 C 0.58696 0.03999 0.57879 0.0
C916 C 0.54672 0.02136 0.61697 0.0
H917 H 0.56069 0.06343 0.65245 0.0
C918 C 0.53469 0.9925 0.62281 0.0
C919 C 0.55545 0.04726 0.62778 0.0
C920 C 0.56725 0.0789 0.62217 0.0
C921 C 0.5324 0.98888 0.63926 0.0
C922 C 0.54215 0.01479 0.65004 0.0
C923 C 0.55334 0.04361 0.64416 0.0
C924 C 0.54231 0.0126 0.66752 0.0
C925 C 0.5207 0.95742 0.64508 0.0
C926 C 0.51613 1.00411 0.67578 0.0
C927 C 0.51675 1.00308 0.69236 0.0
C928 C 0.54353 0.01028 0.70085 0.0
C929 C 0.56965 0.01877 0.69258 0.0
C930 C 0.56906 0.02022 0.67608 0.0
H931 H 0.5176 0.93957 0.63532 0.0
H932 H 0.53582 0.9546 0.65434 0.0
H933 H 0.49929 0.95406 0.65056 0.0
H934 H 0.49528 0.99841 0.66941 0.0
H935 H 0.49633 0.99607 0.69851 0.0
H936 H 0.51102 0.52045 0.89665 0.0
H937 H 0.51538 0.51475 0.9252 0.0
H938 H 0.60716 0.52851 0.92086 0.0
H939 H 0.60273 0.53348 0.89216 0.0
H940 H 0.53828 0.47023 0.94016 0.0
H941 H 0.60129 0.59096 0.95804 0.0
H942 H 0.58052 0.57951 0.93944 0.0
H943 H 0.61474 0.57335 0.94182 0.0
C944 C 0.5322 0.52256 0.90179 0.0
C945 C 0.55659 0.52769 0.89215 0.0
C946 C 0.53463 0.51912 0.91812 0.0
C947 C 0.56163 0.52141 0.92527 0.0
C948 C 0.58613 0.52687 0.91569 0.0
H949 H 0.61095 0.52217 0.02611 0.0
H950 H 0.61157 0.52547 0.99727 0.0
C951 C 0.58358 0.5297 0.89928 0.0
C952 C 0.56389 0.51768 0.94268 0.0
H953 H 0.59082 0.55673 0.97827 0.0
C954 C 0.54978 0.48914 0.9485 0.0
C955 C 0.57924 0.54219 0.95358 0.0
C956 C 0.59473 0.57334 0.94802 0.0
C957 C 0.55054 0.48446 0.96484 0.0
C958 C 0.56493 0.50925 0.97587 0.0
C959 C 0.57956 0.53769 0.96996 0.0
C960 C 0.56456 0.50637 0.99353 0.0
C961 C 0.53646 0.45273 0.97003 0.0
C962 C 0.53798 0.4948 1.00129 0.0
C963 C 0.53757 0.49257 0.01782 0.0
C964 C 0.56373 0.50219 0.02718 0.0
C965 C 0.59034 0.51403 0.01939 0.0
C966 C 0.59072 0.51617 1.00283 0.0
H967 H 0.53561 0.43548 0.96027 0.0
H968 H 0.54844 0.44859 0.98043 0.0
H969 H 0.51363 0.44946 0.97335 0.0
H970 H 0.51737 0.48775 0.99459 0.0
H971 H 0.51662 0.48307 0.02324 0.0
H972 H 0.07804 0.56053 0.22864 0.0
H973 H 0.06799 0.55166 0.25639 0.0
H974 H 0.04588 0.45547 0.24579 0.0
H975 H 0.05601 0.46431 0.21757 0.0
H976 H 1.01444 0.51461 0.26942 0.0
H977 H 0.10986 0.4787 0.2827 0.0
H978 H 0.10749 0.49815 0.26519 0.0
H979 H 0.08569 0.45899 0.26621 0.0
C980 C 0.07117 0.53743 0.23215 0.0
C981 C 0.06799 0.51308 0.22097 0.0
C982 C 0.0653 0.53243 0.24803 0.0
C983 C 0.0564 0.503 0.25314 0.0
C984 C 0.05301 0.47841 0.24204 0.0
H985 H 1.02661 0.45323 0.35084 0.0
H986 H 1.03295 0.45256 0.32214 0.0
C987 C 0.05872 0.48343 0.22598 0.0
C988 C 0.05111 0.49883 0.2702 0.0
H989 H 0.0809 0.48362 0.30413 0.0
C990 C 1.02876 0.50753 0.27701 0.0
C991 C 0.06997 0.48978 0.28002 0.0
C992 C 0.09477 0.48101 0.27327 0.0
C993 C 1.02498 0.50781 0.29346 0.0
C994 C 0.04442 0.49968 0.30334 0.0
C995 C 0.06623 0.49011 0.29649 0.0
C996 C 1.04219 0.50069 0.32083 0.0
C997 C 1.00019 0.51674 0.30012 0.0
C998 C 0.04609 0.52816 0.32964 0.0
C999 C 1.04236 0.52861 0.34605 0.0
C1000 C 1.03468 0.50156 0.35388 0.0
C1001 C 1.03193 0.47432 0.34508 0.0
C1002 C 1.03572 0.47392 0.32871 0.0
H1003 H 0.98313 0.51485 0.29084 0.0
H1004 H 0.98982 0.5024 0.30989 0.0
H1005 H 1.00888 0.54067 0.30499 0.0
H1006 H 0.05165 0.54917 0.32378 0.0
H1007 H 0.04465 0.54992 0.35253 0.0
loop_
_geom_bond_atom_site_label_1
_geom_bond_atom_site_label_2
_geom_bond_distance
_geom_bond_site_symmetry_2
_ccdc_geom_bond_type
Nd0 C2 2.836 . S
Nd0 O20 2.500 . S
Nd0 O21 2.492 . S
Nd0 O22 2.487 . S
Nd0 O23 2.682 . S
Nd0 O24 2.410 . S
Nd0 O29 2.414 . S
Nd0 O31 2.424 1_455 S
Nd1 C11 2.836 1_455 S
Nd1 O23 2.414 . S
Nd1 O25 2.425 . S
Nd1 O26 2.499 1_455 S
Nd1 O27 2.491 1_455 S
Nd1 O28 2.487 . S
Nd1 O29 2.682 . S
Nd1 O30 2.409 1_455 S
C2 Nd0 2.836 . S
C2 C3 1.498 . S
C2 O20 1.258 . S
C2 O21 1.239 . S
C3 C2 1.498 . S
C3 C4 1.366 . S
C3 C8 1.407 . S
C4 C3 1.366 . S
C4 C5 1.392 . S
C4 H32 0.930 . S
C5 C4 1.392 . S
C5 C6 1.398 . S
C5 H33 0.929 . S
C6 C5 1.398 . S
C6 C7 1.352 . S
C7 C6 1.352 . S
C7 C8 1.384 . S
C7 H34 0.930 . S
C8 C3 1.407 . S
C8 C7 1.384 . S
C8 H35 0.929 . S
C9 O22 1.241 . S
C9 O23 1.273 . S
C10 O24 1.251 . S
C10 O25 1.268 . S
C11 Nd1 2.836 1_655 S
C11 C12 1.498 . S
C11 O26 1.258 . S
C11 O27 1.239 . S
C12 C11 1.498 . S
C12 C13 1.366 . S
C12 C17 1.407 . S
C13 C12 1.366 . S
C13 C14 1.392 . S
C13 H36 0.930 . S
C14 C13 1.392 . S
C14 C15 1.398 . S
C14 H37 0.929 . S
C15 C14 1.398 . S
C15 C16 1.352 . S
C16 C15 1.352 . S
C16 C17 1.384 . S
C16 H38 0.930 . S
C17 C12 1.407 . S
C17 C16 1.384 . S
C17 H39 0.929 . S
C18 O28 1.241 . S
C18 O29 1.273 . S
C19 O30 1.251 . S
C19 O31 1.268 . S
O20 Nd0 2.500 . S
O20 C2 1.258 . S
O21 Nd0 2.492 . S
O21 C2 1.239 . S
O22 Nd0 2.487 . S
O22 C9 1.241 . S
O23 Nd0 2.682 . S
O23 Nd1 2.414 . S
O23 C9 1.273 . S
O24 Nd0 2.410 . S
O24 C10 1.251 . S
O25 Nd1 2.425 . S
O25 C10 1.268 . S
O26 Nd1 2.499 1_655 S
O26 C11 1.258 . S
O27 Nd1 2.491 1_655 S
O27 C11 1.239 . S
O28 Nd1 2.487 . S
O28 C18 1.241 . S
O29 Nd0 2.414 . S
O29 Nd1 2.682 . S
O29 C18 1.273 . S
O30 Nd1 2.409 1_655 S
O30 C19 1.251 . S
O31 Nd0 2.424 1_655 S
O31 C19 1.268 . S
H32 C4 0.930 . S
H33 C5 0.929 . S
H34 C7 0.930 . S
H35 C8 0.929 . S
H36 C13 0.930 . S
H37 C14 0.929 . S
H38 C16 0.930 . S
H39 C17 0.929 . S
Nd40 C42 2.822 1_545 S
Nd40 O60 2.486 1_545 S
Nd40 O61 2.480 1_545 S
Nd40 O62 2.487 . S
Nd40 O63 2.684 . S
Nd40 O64 2.390 1_545 S
Nd40 O69 2.411 . S
Nd40 O71 2.444 . S
Nd41 C51 2.836 . S
Nd41 O63 2.414 . S
Nd41 O65 2.424 1_545 S
Nd41 O66 2.500 . S
Nd41 O67 2.492 . S
Nd41 O68 2.487 . S
Nd41 O69 2.682 . S
Nd41 O70 2.410 . S
C42 Nd40 2.822 1_565 S
C42 C43 1.498 . S
C42 O60 1.258 . S
C42 O61 1.239 . S
C43 C42 1.498 . S
C43 C44 1.366 . S
C43 C48 1.407 . S
C44 C43 1.366 . S
C44 C45 1.392 . S
C44 H72 0.930 . S
C45 C44 1.392 . S
C45 C46 1.398 . S
C45 H73 0.929 . S
C46 C45 1.398 . S
C46 C47 1.352 . S
C47 C46 1.352 . S
C47 C48 1.384 . S
C47 H74 0.930 . S
C48 C43 1.407 . S
C48 C47 1.384 . S
C48 H75 0.929 . S
C49 O62 1.243 . S
C49 O63 1.273 . S
C50 O64 1.251 . S
C50 O65 1.268 . S
C51 Nd41 2.836 . S
C51 C52 1.498 . S
C51 O66 1.258 . S
C51 O67 1.239 . S
C52 C51 1.498 . S
C52 C53 1.366 . S
C52 C57 1.407 . S
C53 C52 1.366 . S
C53 C54 1.392 . S
C53 H76 0.930 . S
C54 C53 1.392 . S
C54 C55 1.398 . S
C54 H77 0.929 . S
C55 C54 1.398 . S
C55 C56 1.352 . S
C56 C55 1.352 . S
C56 C57 1.384 . S
C56 H78 0.930 . S
C57 C52 1.407 . S
C57 C56 1.384 . S
C57 H79 0.929 . S
C58 O68 1.241 . S
C58 O69 1.273 . S
C59 O70 1.251 . S
C59 O71 1.268 . S
O60 Nd40 2.486 1_565 S
O60 C42 1.258 . S
O61 Nd40 2.480 1_565 S
O61 C42 1.239 . S
O62 Nd40 2.487 . S
O62 C49 1.243 . S
O63 Nd40 2.684 . S
O63 Nd41 2.414 . S
O63 C49 1.273 . S
O64 Nd40 2.390 1_565 S
O64 C50 1.251 . S
O65 Nd41 2.424 1_565 S
O65 C50 1.268 . S
O66 Nd41 2.500 . S
O66 C51 1.258 . S
O67 Nd41 2.492 . S
O67 C51 1.239 . S
O68 Nd41 2.487 . S
O68 C58 1.241 . S
O69 Nd40 2.411 . S
O69 Nd41 2.682 . S
O69 C58 1.273 . S
O70 Nd41 2.410 . S
O70 C59 1.251 . S
O71 Nd40 2.444 . S
O71 C59 1.268 . S
H72 C44 0.930 . S
H73 C45 0.929 . S
H74 C47 0.930 . S
H75 C48 0.929 . S
H76 C53 0.930 . S
H77 C54 0.929 . S
H78 C56 0.930 . S
H79 C57 0.929 . S
Nd80 C82 2.836 . S
Nd80 O100 2.500 . S
Nd80 O101 2.492 . S
Nd80 O102 2.487 . S
Nd80 O103 2.682 . S
Nd80 O104 2.410 . S
Nd80 O109 2.414 . S
Nd80 O111 2.424 . S
Nd81 C91 2.836 . S
Nd81 O103 2.414 . S
Nd81 O105 2.424 . S
Nd81 O106 2.500 . S
Nd81 O107 2.492 . S
Nd81 O108 2.487 . S
Nd81 O109 2.682 . S
Nd81 O110 2.410 . S
C82 Nd80 2.836 . S
C82 C83 1.498 . S
C82 O100 1.258 . S
C82 O101 1.239 . S
C83 C82 1.498 . S
C83 C84 1.366 . S
C83 C88 1.407 . S
C84 C83 1.366 . S
C84 C85 1.392 . S
C84 H112 0.930 . S
C85 C84 1.392 . S
C85 C86 1.398 . S
C85 H113 0.929 . S
C86 C85 1.398 . S
C86 C87 1.352 . S
C87 C86 1.352 . S
C87 C88 1.384 . S
C87 H114 0.930 . S
C88 C83 1.407 . S
C88 C87 1.384 . S
C88 H115 0.929 . S
C89 O102 1.241 . S
C89 O103 1.273 . S
C90 O104 1.251 . S
C90 O105 1.268 . S
C91 Nd81 2.836 . S
C91 C92 1.498 . S
C91 O106 1.258 . S
C91 O107 1.239 . S
C92 C91 1.498 . S
C92 C93 1.366 . S
C92 C97 1.407 . S
C93 C92 1.366 . S
C93 C94 1.392 . S
C93 H116 0.930 . S
C94 C93 1.392 . S
C94 C95 1.398 . S
C94 H117 0.929 . S
C95 C94 1.398 . S
C95 C96 1.352 . S
C96 C95 1.352 . S
C96 C97 1.384 . S
C96 H118 0.930 . S
C97 C92 1.407 . S
C97 C96 1.384 . S
C97 H119 0.929 . S
C98 O108 1.241 . S
C98 O109 1.273 . S
C99 O110 1.251 . S
C99 O111 1.268 . S
O100 Nd80 2.500 . S
O100 C82 1.258 . S
O101 Nd80 2.492 . S
O101 C82 1.239 . S
O102 Nd80 2.487 . S
O102 C89 1.241 . S
O103 Nd80 2.682 . S
O103 Nd81 2.414 . S
O103 C89 1.273 . S
O104 Nd80 2.410 . S
O104 C90 1.251 . S
O105 Nd81 2.424 . S
O105 C90 1.268 . S
O106 Nd81 2.500 . S
O106 C91 1.258 . S
O107 Nd81 2.492 . S
O107 C91 1.239 . S
O108 Nd81 2.487 . S
O108 C98 1.241 . S
O109 Nd80 2.414 . S
O109 Nd81 2.682 . S
O109 C98 1.273 . S
O110 Nd81 2.410 . S
O110 C99 1.251 . S
O111 Nd80 2.424 . S
O111 C99 1.268 . S
H112 C84 0.930 . S
H113 C85 0.929 . S
H114 C87 0.930 . S
H115 C88 0.929 . S
H116 C93 0.930 . S
H117 C94 0.929 . S
H118 C96 0.930 . S
H119 C97 0.929 . S
C120 C121 1.264 . S
C120 C125 1.479 . S
C120 C130 1.465 . S
C121 C120 1.264 . S
C121 C123 1.339 . S
C121 H148 0.931 . S
C122 C123 1.395 . S
C122 C124 1.320 . S
C123 C121 1.339 . S
C123 C122 1.395 . S
C123 H149 0.929 . S
C124 C122 1.320 . S
C124 C125 1.405 . S
C124 H150 0.930 . S
C125 C120 1.479 . S
C125 C124 1.405 . S
C125 H151 0.931 . S
U126 O127 2.454 1_545 S
U126 O128 2.458 1_545 S
U126 C129 2.984 1_545 S
U126 C130 2.847 . S
U126 C143 2.882 . S
U126 O144 2.441 . S
U126 O145 2.420 . S
U126 O146 2.455 . S
U126 O147 2.449 . S
O127 U126 2.454 1_565 S
O127 C129 1.353 . S
O128 U126 2.458 1_565 S
O128 C129 1.286 . S
C129 U126 2.984 1_565 S
C129 O127 1.353 . S
C129 O128 1.286 . S
C129 C131 1.363 . S
C130 C120 1.465 . S
C130 U126 2.847 . S
C130 O144 1.249 . S
C130 O145 1.202 . S
C131 C129 1.363 . S
C131 C133 1.408 . S
C131 C136 1.342 . S
C132 C133 1.310 . S
C132 C135 1.461 . S
C132 H152 0.932 . S
C133 C131 1.408 . S
C133 C132 1.310 . S
C133 H153 0.930 . S
C134 C135 1.474 . S
C134 C136 1.285 . S
C134 H154 0.929 . S
C135 C132 1.461 . S
C135 C134 1.474 . S
C136 C131 1.342 . S
C136 C134 1.285 . S
C136 H155 0.930 . S
C137 C140 1.424 . S
C137 C142 1.245 . S
C137 C143 1.428 . S
C138 C141 1.260 . S
C138 C142 1.477 . S
C138 H156 0.932 . S
C139 C140 1.384 . S
C139 C141 1.479 . S
C139 H157 0.929 . S
C140 C137 1.424 . S
C140 C139 1.384 . S
C140 H158 0.928 . S
C141 C138 1.260 . S
C141 C139 1.479 . S
C142 C137 1.245 . S
C142 C138 1.477 . S
C142 H159 0.914 1_545 S
C143 U126 2.882 . S
C143 C137 1.428 . S
C143 O146 1.301 . S
C143 O147 1.282 . S
O144 U126 2.441 . S
O144 C130 1.249 . S
O145 U126 2.420 . S
O145 C130 1.202 . S
O146 U126 2.455 . S
O146 C143 1.301 . S
O147 U126 2.449 . S
O147 C143 1.282 . S
H148 C121 0.931 . S
H149 C123 0.929 . S
H150 C124 0.930 . S
H151 C125 0.931 . S
H152 C132 0.932 . S
H153 C133 0.930 . S
H154 C134 0.929 . S
H155 C136 0.930 . S
H156 C138 0.932 . S
H157 C139 0.929 . S
H158 C140 0.928 . S
H159 C142 0.914 1_565 S
C160 C161 1.264 . S
C160 C165 1.479 . S
C160 C170 1.465 . S
C161 C160 1.264 . S
C161 C163 1.339 . S
C161 H188 0.931 . S
C162 C163 1.395 . S
C162 C164 1.320 . S
C163 C161 1.339 . S
C163 C162 1.395 . S
C163 H189 0.929 . S
C164 C162 1.320 . S
C164 C165 1.405 . S
C164 H190 0.930 . S
C165 C160 1.479 . S
C165 C164 1.405 . S
C165 H191 0.931 . S
U166 O167 2.454 . S
U166 O168 2.458 . S
U166 C169 2.984 . S
U166 C170 2.847 . S
U166 C183 2.882 . S
U166 O184 2.441 . S
U166 O185 2.420 . S
U166 O186 2.455 . S
U166 O187 2.449 . S
O167 U166 2.454 . S
O167 C169 1.353 . S
O168 U166 2.458 . S
O168 C169 1.286 . S
C169 U166 2.984 . S
C169 O167 1.353 . S
C169 O168 1.286 . S
C169 C171 1.363 . S
C170 C160 1.465 . S
C170 U166 2.847 . S
C170 O184 1.249 . S
C170 O185 1.202 . S
C171 C169 1.363 . S
C171 C173 1.408 . S
C171 C176 1.342 . S
C172 C173 1.310 . S
C172 C175 1.461 . S
C172 H192 0.932 . S
C173 C171 1.408 . S
C173 C172 1.310 . S
C173 H193 0.930 . S
C174 C175 1.474 . S
C174 C176 1.285 . S
C174 H194 0.929 . S
C175 C172 1.461 . S
C175 C174 1.474 . S
C176 C171 1.342 . S
C176 C174 1.285 . S
C176 H195 0.930 . S
C177 C180 1.424 . S
C177 C182 1.245 . S
C177 C183 1.428 . S
C178 C181 1.260 . S
C178 C182 1.477 . S
C178 H196 0.932 . S
C179 C180 1.384 . S
C179 C181 1.479 . S
C179 H197 0.929 . S
C180 C177 1.424 . S
C180 C179 1.384 . S
C180 H198 0.928 . S
C181 C178 1.260 . S
C181 C179 1.479 . S
C182 C177 1.245 . S
C182 C178 1.477 . S
C182 H199 0.932 . S
C183 U166 2.882 . S
C183 C177 1.428 . S
C183 O186 1.301 . S
C183 O187 1.282 . S
O184 U166 2.441 . S
O184 C170 1.249 . S
O185 U166 2.420 . S
O185 C170 1.202 . S
O186 U166 2.455 . S
O186 C183 1.301 . S
O187 U166 2.449 . S
O187 C183 1.282 . S
H188 C161 0.931 . S
H189 C163 0.929 . S
H190 C164 0.930 . S
H191 C165 0.931 . S
H192 C172 0.932 . S
H193 C173 0.930 . S
H194 C174 0.929 . S
H195 C176 0.930 . S
H196 C178 0.932 . S
H197 C179 0.929 . S
H198 C180 0.928 . S
H199 C182 0.932 . S
C200 C201 1.264 . S
C200 C205 1.479 . S
C200 C210 1.465 . S
C201 C200 1.264 . S
C201 C203 1.339 . S
C201 H228 0.931 . S
C202 C203 1.395 . S
C202 C204 1.320 . S
C203 C201 1.339 . S
C203 C202 1.395 . S
C203 H229 0.929 . S
C204 C202 1.320 . S
C204 C205 1.405 . S
C204 H230 0.930 . S
C205 C200 1.479 . S
C205 C204 1.405 . S
C205 H231 0.931 . S
U206 O207 2.454 . S
U206 O208 2.458 . S
U206 C209 2.984 . S
U206 C210 2.847 1_455 S
U206 C223 2.882 . S
U206 O224 2.441 . S
U206 O225 2.420 1_455 S
U206 O226 2.455 . S
U206 O227 2.449 . S
O207 U206 2.454 . S
O207 C209 1.353 . S
O208 U206 2.458 . S
O208 C209 1.286 . S
C209 U206 2.984 . S
C209 O207 1.353 . S
C209 O208 1.286 . S
C209 C211 1.363 . S
C210 C200 1.465 . S
C210 U206 2.847 1_655 S
C210 O224 1.249 1_655 S
C210 O225 1.202 . S
C211 C209 1.363 . S
C211 C213 1.408 . S
C211 C216 1.342 . S
C212 C213 1.310 . S
C212 C215 1.461 . S
C212 H232 0.932 . S
C213 C211 1.408 . S
C213 C212 1.310 . S
C213 H233 0.930 . S
C214 C215 1.474 . S
C214 C216 1.285 . S
C214 H234 0.929 . S
C215 C212 1.461 . S
C215 C214 1.474 . S
C216 C211 1.342 . S
C216 C214 1.285 . S
C216 H235 0.930 . S
C217 C220 1.424 . S
C217 C222 1.245 . S
C217 C223 1.428 . S
C218 C221 1.260 . S
C218 C222 1.477 . S
C218 H236 0.932 . S
C219 C220 1.384 . S
C219 C221 1.479 . S
C219 H237 0.929 1_455 S
C220 C217 1.424 . S
C220 C219 1.384 . S
C220 H238 0.928 1_455 S
C221 C218 1.260 . S
C221 C219 1.479 . S
C222 C217 1.245 . S
C222 C218 1.477 . S
C222 H239 0.932 . S
C223 U206 2.882 . S
C223 C217 1.428 . S
C223 O226 1.301 . S
C223 O227 1.282 . S
O224 U206 2.441 . S
O224 C210 1.249 1_455 S
O225 U206 2.420 1_655 S
O225 C210 1.202 . S
O226 U206 2.455 . S
O226 C223 1.301 . S
O227 U206 2.449 . S
O227 C223 1.282 . S
H228 C201 0.931 . S
H229 C203 0.929 . S
H230 C204 0.930 . S
H231 C205 0.931 . S
H232 C212 0.932 . S
H233 C213 0.930 . S
H234 C214 0.929 . S
H235 C216 0.930 . S
H236 C218 0.932 . S
H237 C219 0.929 1_655 S
H238 C220 0.928 1_655 S
H239 C222 0.932 . S
C240 C241 1.264 . S
C240 C245 1.479 . S
C240 C250 1.465 . S
C241 C240 1.264 . S
C241 C243 1.339 . S
C241 H268 0.931 . S
C242 C243 1.395 . S
C242 C244 1.320 . S
C243 C241 1.339 . S
C243 C242 1.395 . S
C243 H269 0.929 . S
C244 C242 1.320 . S
C244 C245 1.405 . S
C244 H270 0.930 . S
C245 C240 1.479 . S
C245 C244 1.405 . S
C245 H271 0.931 . S
U246 O247 2.454 1_655 S
U246 O248 2.458 1_655 S
U246 C249 2.984 1_655 S
U246 C250 2.847 . S
U246 C263 2.882 . S
U246 O264 2.441 . S
U246 O265 2.420 . S
U246 O266 2.455 1_655 S
U246 O267 2.449 . S
O247 U246 2.454 1_455 S
O247 C249 1.353 . S
O248 U246 2.458 1_455 S
O248 C249 1.286 . S
C249 U246 2.984 1_455 S
C249 O247 1.353 . S
C249 O248 1.286 . S
C249 C251 1.363 . S
C250 C240 1.465 . S
C250 U246 2.847 . S
C250 O264 1.249 . S
C250 O265 1.202 . S
C251 C249 1.363 . S
C251 C253 1.408 . S
C251 C256 1.342 . S
C252 C253 1.310 . S
C252 C255 1.461 . S
C252 H272 0.932 . S
C253 C251 1.408 . S
C253 C252 1.310 . S
C253 H273 0.930 . S
C254 C255 1.474 . S
C254 C256 1.285 . S
C254 H274 0.929 . S
C255 C252 1.461 . S
C255 C254 1.474 . S
C256 C251 1.342 . S
C256 C254 1.285 . S
C256 H275 0.930 . S
C257 C260 1.424 . S
C257 C262 1.245 1_655 S
C257 C263 1.428 . S
C258 C261 1.260 1_455 S
C258 C262 1.477 . S
C258 H276 0.932 . S
C259 C260 1.384 . S
C259 C261 1.479 . S
C259 H277 0.929 . S
C260 C257 1.424 . S
C260 C259 1.384 . S
C260 H278 0.928 . S
C261 C258 1.260 1_655 S
C261 C259 1.479 . S
C262 C257 1.245 1_455 S
C262 C258 1.477 . S
C262 H279 0.932 . S
C263 U246 2.882 . S
C263 C257 1.428 . S
C263 O266 1.301 1_655 S
C263 O267 1.282 . S
O264 U246 2.441 . S
O264 C250 1.249 . S
O265 U246 2.420 . S
O265 C250 1.202 . S
O266 U246 2.455 1_455 S
O266 C263 1.301 1_455 S
O267 U246 2.449 . S
O267 C263 1.282 . S
H268 C241 0.931 . S
H269 C243 0.929 . S
H270 C244 0.930 . S
H271 C245 0.931 . S
H272 C252 0.932 . S
H273 C253 0.930 . S
H274 C254 0.929 . S
H275 C256 0.930 . S
H276 C258 0.932 . S
H277 C259 0.929 . S
H278 C260 0.928 . S
H279 C262 0.932 . S
C280 C281 1.264 . S
C280 C285 1.479 . S
C280 C290 1.465 . S
C281 C280 1.264 . S
C281 C283 1.339 . S
C281 H308 0.931 . S
C282 C283 1.395 . S
C282 C284 1.320 . S
C283 C281 1.339 . S
C283 C282 1.395 . S
C283 H309 0.929 . S
C284 C282 1.320 . S
C284 C285 1.405 . S
C284 H310 0.930 . S
C285 C280 1.479 . S
C285 C284 1.405 . S
C285 H311 0.931 . S
U286 O287 2.454 . S
U286 O288 2.458 . S
U286 C289 2.984 . S
U286 C290 2.847 1_545 S
U286 C303 2.883 1_545 S
U286 O304 2.441 1_545 S
U286 O305 2.420 1_545 S
U286 O306 2.455 . S
U286 O307 2.449 1_545 S
O287 U286 2.454 . S
O287 C289 1.353 . S
O288 U286 2.458 . S
O288 C289 1.286 . S
C289 U286 2.984 . S
C289 O287 1.353 . S
C289 O288 1.286 . S
C289 C291 1.363 . S
C290 C280 1.465 . S
C290 U286 2.847 1_565 S
C290 O304 1.249 . S
C290 O305 1.202 . S
C291 C289 1.363 . S
C291 C293 1.408 . S
C291 C296 1.342 . S
C292 C293 1.310 . S
C292 C295 1.461 . S
C292 H312 0.932 . S
C293 C291 1.408 . S
C293 C292 1.310 . S
C293 H313 0.930 . S
C294 C295 1.474 . S
C294 C296 1.285 . S
C294 H314 0.929 . S
C295 C292 1.461 . S
C295 C294 1.474 . S
C296 C291 1.342 . S
C296 C294 1.285 . S
C296 H315 0.930 . S
C297 C300 1.412 1_545 S
C297 C302 1.256 . S
C297 C303 1.427 1_545 S
C298 C301 1.231 1_545 S
C298 C302 1.477 . S
C298 H316 0.932 . S
C299 C300 1.384 . S
C299 C301 1.509 . S
C299 H317 0.929 . S
C300 C297 1.412 1_565 S
C300 C299 1.384 . S
C300 H318 0.928 . S
C301 C298 1.231 1_565 S
C301 C299 1.509 . S
C302 C297 1.256 . S
C302 C298 1.477 . S
C302 H319 0.932 . S
C303 U286 2.883 1_565 S
C303 C297 1.427 1_565 S
C303 O306 1.293 1_565 S
C303 O307 1.291 . S
O304 U286 2.441 1_565 S
O304 C290 1.249 . S
O305 U286 2.420 1_565 S
O305 C290 1.202 . S
O306 U286 2.455 . S
O306 C303 1.293 1_545 S
O307 U286 2.449 1_565 S
O307 C303 1.291 . S
H308 C281 0.931 . S
H309 C283 0.929 . S
H310 C284 0.930 . S
H311 C285 0.931 . S
H312 C292 0.932 . S
H313 C293 0.930 . S
H314 C294 0.929 . S
H315 C296 0.930 . S
H316 C298 0.932 . S
H317 C299 0.929 . S
H318 C300 0.928 . S
H319 C302 0.932 . S
C320 C321 1.264 . S
C320 C325 1.479 . S
C320 C330 1.465 . S
C321 C320 1.264 . S
C321 C323 1.339 . S
C321 H348 0.931 . S
C322 C323 1.395 . S
C322 C324 1.320 . S
C323 C321 1.339 . S
C323 C322 1.395 . S
C323 H349 0.929 . S
C324 C322 1.320 . S
C324 C325 1.405 . S
C324 H350 0.930 . S
C325 C320 1.479 . S
C325 C324 1.405 . S
C325 H351 0.931 . S
U326 O327 2.454 . S
U326 O328 2.458 . S
U326 C329 2.984 . S
U326 C330 2.847 . S
U326 C343 2.882 . S
U326 O344 2.441 . S
U326 O345 2.420 . S
U326 O346 2.455 . S
U326 O347 2.449 . S
O327 U326 2.454 . S
O327 C329 1.353 . S
O328 U326 2.458 . S
O328 C329 1.286 . S
C329 U326 2.984 . S
C329 O327 1.353 . S
C329 O328 1.286 . S
C329 C331 1.363 . S
C330 C320 1.465 . S
C330 U326 2.847 . S
C330 O344 1.249 . S
C330 O345 1.202 . S
C331 C329 1.363 . S
C331 C333 1.408 . S
C331 C336 1.342 . S
C332 C333 1.310 . S
C332 C335 1.461 . S
C332 H352 0.932 . S
C333 C331 1.408 . S
C333 C332 1.310 . S
C333 H353 0.930 . S
C334 C335 1.474 . S
C334 C336 1.285 . S
C334 H354 0.929 . S
C335 C332 1.461 . S
C335 C334 1.474 . S
C336 C331 1.342 . S
C336 C334 1.285 . S
C336 H355 0.930 . S
C337 C340 1.424 . S
C337 C342 1.245 . S
C337 C343 1.428 . S
C338 C341 1.260 . S
C338 C342 1.477 . S
C338 H356 0.932 . S
C339 C340 1.384 . S
C339 C341 1.479 . S
C339 H357 0.929 . S
C340 C337 1.424 . S
C340 C339 1.384 . S
C340 H358 0.928 . S
C341 C338 1.260 . S
C341 C339 1.479 . S
C342 C337 1.245 . S
C342 C338 1.477 . S
C342 H359 0.932 . S
C343 U326 2.882 . S
C343 C337 1.428 . S
C343 O346 1.301 . S
C343 O347 1.282 . S
O344 U326 2.441 . S
O344 C330 1.249 . S
O345 U326 2.420 . S
O345 C330 1.202 . S
O346 U326 2.455 . S
O346 C343 1.301 . S
O347 U326 2.449 . S
O347 C343 1.282 . S
H348 C321 0.931 . S
H349 C323 0.929 . S
H350 C324 0.930 . S
H351 C325 0.931 . S
H352 C332 0.932 . S
H353 C333 0.930 . S
H354 C334 0.929 . S
H355 C336 0.930 . S
H356 C338 0.932 . S
H357 C339 0.929 . S
H358 C340 0.928 . S
H359 C342 0.932 . S
H360 C368 0.929 . S
H361 C370 0.930 . S
H362 C372 0.930 . S
H363 C375 0.929 . S
H364 C378 0.930 . S
H365 C380 0.960 . S
H366 C380 0.960 . S
H367 C380 0.960 . S
C368 H360 0.929 . S
C368 C369 1.377 . S
C368 C370 1.384 . S
C369 C368 1.377 . S
C369 C375 1.390 . S
C370 H361 0.930 . S
C370 C368 1.384 . S
C370 C371 1.372 . S
C371 C370 1.372 . S
C371 C372 1.400 . S
C371 C376 1.490 . S
C372 H362 0.930 . S
C372 C371 1.400 . S
C372 C375 1.386 . S
H373 C389 0.930 . S
H374 C390 0.931 . S
C375 H363 0.929 . S
C375 C369 1.390 . S
C375 C372 1.386 . S
C376 C371 1.490 . S
C376 C378 1.395 . S
C376 C379 1.403 . S
H377 C383 0.930 . S
C378 H364 0.930 . S
C378 C376 1.395 . S
C378 C381 1.403 . S
C379 C376 1.403 . S
C379 C380 1.524 . S
C379 C383 1.400 . S
C380 H365 0.960 . S
C380 H366 0.960 . S
C380 H367 0.960 . S
C380 C379 1.524 . S
C381 C378 1.403 . S
C381 C382 1.392 . S
C381 C385 1.495 . S
C382 C381 1.392 . S
C382 C383 1.385 . S
C382 C384 1.478 . S
C383 H377 0.930 . S
C383 C379 1.400 . S
C383 C382 1.385 . S
C384 C382 1.478 . S
C384 C386 1.381 . S
C384 C390 1.383 . S
C385 C381 1.495 . S
C385 H391 0.959 . S
C385 H392 0.961 . S
C385 H393 0.960 . S
C386 C384 1.381 . S
C386 C387 1.394 . S
C386 H394 0.930 . S
C387 C386 1.394 . S
C387 C388 1.383 . S
C387 H395 0.929 . S
C388 C387 1.383 . S
C388 C389 1.377 . S
C389 H373 0.930 . S
C389 C388 1.377 . S
C389 C390 1.379 . S
C390 H374 0.931 . S
C390 C384 1.383 . S
C390 C389 1.379 . S
H391 C385 0.959 . S
H392 C385 0.961 . S
H393 C385 0.960 . S
H394 C386 0.930 . S
H395 C387 0.929 . S
H396 C404 0.929 . S
H397 C406 0.930 . S
H398 C408 0.930 . S
H399 C411 0.929 . S
H400 C414 0.930 . S
H401 C416 0.960 . S
H402 C416 0.960 . S
H403 C416 0.960 . S
C404 H396 0.929 . S
C404 C405 1.377 . S
C404 C406 1.384 . S
C405 C404 1.377 . S
C405 C411 1.390 . S
C406 H397 0.930 . S
C406 C404 1.384 . S
C406 C407 1.372 . S
C407 C406 1.372 . S
C407 C408 1.400 . S
C407 C412 1.490 . S
C408 H398 0.930 . S
C408 C407 1.400 . S
C408 C411 1.386 . S
H409 C425 0.930 . S
H410 C426 0.931 . S
C411 H399 0.929 . S
C411 C405 1.390 . S
C411 C408 1.386 . S
C412 C407 1.490 . S
C412 C414 1.395 . S
C412 C415 1.403 . S
H413 C419 0.930 . S
C414 H400 0.930 . S
C414 C412 1.395 . S
C414 C417 1.403 . S
C415 C412 1.403 . S
C415 C416 1.524 . S
C415 C419 1.400 . S
C416 H401 0.960 . S
C416 H402 0.960 . S
C416 H403 0.960 . S
C416 C415 1.524 . S
C417 C414 1.403 . S
C417 C418 1.392 . S
C417 C421 1.495 . S
C418 C417 1.392 . S
C418 C419 1.385 . S
C418 C420 1.478 . S
C419 H413 0.930 . S
C419 C415 1.400 . S
C419 C418 1.385 . S
C420 C418 1.478 . S
C420 C422 1.381 . S
C420 C426 1.383 . S
C421 C417 1.495 . S
C421 H427 0.959 . S
C421 H428 0.961 . S
C421 H429 0.960 . S
C422 C420 1.381 . S
C422 C423 1.394 . S
C422 H430 0.930 . S
C423 C422 1.394 . S
C423 C424 1.383 . S
C423 H431 0.929 . S
C424 C423 1.383 . S
C424 C425 1.377 . S
C425 H409 0.930 . S
C425 C424 1.377 . S
C425 C426 1.379 . S
C426 H410 0.931 . S
C426 C420 1.383 . S
C426 C425 1.379 . S
H427 C421 0.959 . S
H428 C421 0.961 . S
H429 C421 0.960 . S
H430 C422 0.930 . S
H431 C423 0.929 . S
H432 C440 0.929 . S
H433 C442 0.930 . S
H434 C444 0.930 . S
H435 C447 0.929 . S
H436 C450 0.930 . S
H437 C452 0.960 . S
H438 C452 0.960 . S
H439 C452 0.960 . S
C440 H432 0.929 . S
C440 C441 1.377 . S
C440 C442 1.384 . S
C441 C440 1.377 . S
C441 C447 1.390 . S
C442 H433 0.930 . S
C442 C440 1.384 . S
C442 C443 1.372 . S
C443 C442 1.372 . S
C443 C444 1.400 . S
C443 C448 1.490 . S
C444 H434 0.930 . S
C444 C443 1.400 . S
C444 C447 1.386 . S
H445 C461 0.930 . S
H446 C462 0.931 . S
C447 H435 0.929 . S
C447 C441 1.390 . S
C447 C444 1.386 . S
C448 C443 1.490 . S
C448 C450 1.395 . S
C448 C451 1.403 . S
H449 C455 0.930 . S
C450 H436 0.930 . S
C450 C448 1.395 . S
C450 C453 1.403 . S
C451 C448 1.403 . S
C451 C452 1.524 . S
C451 C455 1.400 . S
C452 H437 0.960 . S
C452 H438 0.960 . S
C452 H439 0.960 . S
C452 C451 1.524 . S
C453 C450 1.403 . S
C453 C454 1.392 . S
C453 C457 1.495 . S
C454 C453 1.392 . S
C454 C455 1.385 . S
C454 C456 1.478 . S
C455 H449 0.930 . S
C455 C451 1.400 . S
C455 C454 1.385 . S
C456 C454 1.478 . S
C456 C458 1.381 . S
C456 C462 1.383 . S
C457 C453 1.495 . S
C457 H463 0.959 . S
C457 H464 0.961 . S
C457 H465 0.960 . S
C458 C456 1.381 . S
C458 C459 1.394 . S
C458 H466 0.930 . S
C459 C458 1.394 . S
C459 C460 1.383 . S
C459 H467 0.929 . S
C460 C459 1.383 . S
C460 C461 1.377 . S
C461 H445 0.930 . S
C461 C460 1.377 . S
C461 C462 1.379 . S
C462 H446 0.931 . S
C462 C456 1.383 . S
C462 C461 1.379 . S
H463 C457 0.959 . S
H464 C457 0.961 . S
H465 C457 0.960 . S
H466 C458 0.930 . S
H467 C459 0.929 . S
H468 C476 0.929 . S
H469 C478 0.930 . S
H470 C480 0.930 . S
H471 C483 0.929 . S
H472 C486 0.930 . S
H473 C488 0.960 . S
H474 C488 0.960 . S
H475 C488 0.960 . S
C476 H468 0.929 . S
C476 C477 1.377 . S
C476 C478 1.384 . S
C477 C476 1.377 . S
C477 C483 1.390 . S
C478 H469 0.930 . S
C478 C476 1.384 . S
C478 C479 1.372 . S
C479 C478 1.372 . S
C479 C480 1.400 . S
C479 C484 1.490 . S
C480 H470 0.930 . S
C480 C479 1.400 . S
C480 C483 1.386 . S
H481 C497 0.930 . S
H482 C498 0.931 . S
C483 H471 0.929 . S
C483 C477 1.390 . S
C483 C480 1.386 . S
C484 C479 1.490 . S
C484 C486 1.395 . S
C484 C487 1.403 . S
H485 C491 0.930 . S
C486 H472 0.930 . S
C486 C484 1.395 . S
C486 C489 1.403 . S
C487 C484 1.403 . S
C487 C488 1.524 . S
C487 C491 1.400 . S
C488 H473 0.960 . S
C488 H474 0.960 . S
C488 H475 0.960 . S
C488 C487 1.524 . S
C489 C486 1.403 . S
C489 C490 1.392 . S
C489 C493 1.495 . S
C490 C489 1.392 . S
C490 C491 1.385 . S
C490 C492 1.478 . S
C491 H485 0.930 . S
C491 C487 1.400 . S
C491 C490 1.385 . S
C492 C490 1.478 . S
C492 C494 1.381 . S
C492 C498 1.383 . S
C493 C489 1.495 . S
C493 H499 0.959 . S
C493 H500 0.961 . S
C493 H501 0.960 . S
C494 C492 1.381 . S
C494 C495 1.394 . S
C494 H502 0.930 . S
C495 C494 1.394 . S
C495 C496 1.383 . S
C495 H503 0.929 . S
C496 C495 1.383 . S
C496 C497 1.377 . S
C497 H481 0.930 . S
C497 C496 1.377 . S
C497 C498 1.379 . S
C498 H482 0.931 . S
C498 C492 1.383 . S
C498 C497 1.379 . S
H499 C493 0.959 . S
H500 C493 0.961 . S
H501 C493 0.960 . S
H502 C494 0.930 . S
H503 C495 0.929 . S
H504 C512 0.929 . S
H505 C514 0.930 . S
H506 C516 0.930 . S
H507 C519 0.929 . S
H508 C522 0.930 . S
H509 C524 0.960 . S
H510 C524 0.960 . S
H511 C524 0.960 . S
C512 H504 0.929 . S
C512 C513 1.377 . S
C512 C514 1.384 . S
C513 C512 1.377 . S
C513 C519 1.390 . S
C514 H505 0.930 . S
C514 C512 1.384 . S
C514 C515 1.372 . S
C515 C514 1.372 . S
C515 C516 1.400 . S
C515 C520 1.490 . S
C516 H506 0.930 . S
C516 C515 1.400 . S
C516 C519 1.386 . S
H517 C533 0.930 . S
H518 C534 0.931 . S
C519 H507 0.929 . S
C519 C513 1.390 . S
C519 C516 1.386 . S
C520 C515 1.490 . S
C520 C522 1.395 . S
C520 C523 1.403 . S
H521 C527 0.930 . S
C522 H508 0.930 . S
C522 C520 1.395 . S
C522 C525 1.403 . S
C523 C520 1.403 . S
C523 C524 1.524 . S
C523 C527 1.400 . S
C524 H509 0.960 . S
C524 H510 0.960 . S
C524 H511 0.960 . S
C524 C523 1.524 . S
C525 C522 1.403 . S
C525 C526 1.392 . S
C525 C529 1.495 . S
C526 C525 1.392 . S
C526 C527 1.385 . S
C526 C528 1.478 . S
C527 H521 0.930 . S
C527 C523 1.400 . S
C527 C526 1.385 . S
C528 C526 1.478 . S
C528 C530 1.381 . S
C528 C534 1.383 . S
C529 C525 1.495 . S
C529 H535 0.959 . S
C529 H536 0.961 . S
C529 H537 0.960 . S
C530 C528 1.381 . S
C530 C531 1.394 . S
C530 H538 0.930 . S
C531 C530 1.394 . S
C531 C532 1.383 . S
C531 H539 0.929 . S
C532 C531 1.383 . S
C532 C533 1.377 . S
C533 H517 0.930 . S
C533 C532 1.377 . S
C533 C534 1.379 . S
C534 H518 0.931 . S
C534 C528 1.383 . S
C534 C533 1.379 . S
H535 C529 0.959 . S
H536 C529 0.961 . S
H537 C529 0.960 . S
H538 C530 0.930 . S
H539 C531 0.929 . S
H540 C548 0.929 . S
H541 C550 0.930 . S
H542 C552 0.930 . S
H543 C555 0.929 . S
H544 C558 0.930 . S
H545 C560 0.960 . S
H546 C560 0.960 . S
H547 C560 0.960 . S
C548 H540 0.929 . S
C548 C549 1.377 . S
C548 C550 1.384 . S
C549 C548 1.377 . S
C549 C555 1.390 . S
C550 H541 0.930 . S
C550 C548 1.384 . S
C550 C551 1.372 . S
C551 C550 1.372 . S
C551 C552 1.400 . S
C551 C556 1.490 . S
C552 H542 0.930 . S
C552 C551 1.400 . S
C552 C555 1.386 . S
H553 C569 0.930 . S
H554 C570 0.931 . S
C555 H543 0.929 . S
C555 C549 1.390 . S
C555 C552 1.386 . S
C556 C551 1.490 . S
C556 C558 1.395 . S
C556 C559 1.403 . S
H557 C563 0.930 . S
C558 H544 0.930 . S
C558 C556 1.395 . S
C558 C561 1.403 . S
C559 C556 1.403 . S
C559 C560 1.524 . S
C559 C563 1.400 . S
C560 H545 0.960 . S
C560 H546 0.960 . S
C560 H547 0.960 . S
C560 C559 1.524 . S
C561 C558 1.403 . S
C561 C562 1.392 . S
C561 C565 1.495 . S
C562 C561 1.392 . S
C562 C563 1.385 . S
C562 C564 1.478 . S
C563 H557 0.930 . S
C563 C559 1.400 . S
C563 C562 1.385 . S
C564 C562 1.478 . S
C564 C566 1.381 . S
C564 C570 1.383 . S
C565 C561 1.495 . S
C565 H571 0.959 . S
C565 H572 0.961 . S
C565 H573 0.960 . S
C566 C564 1.381 . S
C566 C567 1.394 . S
C566 H574 0.930 . S
C567 C566 1.394 . S
C567 C568 1.383 . S
C567 H575 0.929 . S
C568 C567 1.383 . S
C568 C569 1.377 . S
C569 H553 0.930 . S
C569 C568 1.377 . S
C569 C570 1.379 . S
C570 H554 0.931 . S
C570 C564 1.383 . S
C570 C569 1.379 . S
H571 C565 0.959 . S
H572 C565 0.961 . S
H573 C565 0.960 . S
H574 C566 0.930 . S
H575 C567 0.929 . S
H576 C584 0.929 . S
H577 C586 0.930 . S
H578 C588 0.930 . S
H579 C591 0.929 . S
H580 C594 0.930 . S
H581 C596 0.960 . S
H582 C596 0.960 . S
H583 C596 0.960 . S
C584 H576 0.929 . S
C584 C585 1.377 . S
C584 C586 1.384 . S
C585 C584 1.377 . S
C585 C591 1.390 . S
C586 H577 0.930 . S
C586 C584 1.384 . S
C586 C587 1.372 . S
C587 C586 1.372 . S
C587 C588 1.400 . S
C587 C592 1.490 . S
C588 H578 0.930 . S
C588 C587 1.400 . S
C588 C591 1.386 . S
H589 C605 0.930 . S
H590 C606 0.931 . S
C591 H579 0.929 . S
C591 C585 1.390 . S
C591 C588 1.386 . S
C592 C587 1.490 . S
C592 C594 1.395 . S
C592 C595 1.403 . S
H593 C599 0.930 . S
C594 H580 0.930 . S
C594 C592 1.395 . S
C594 C597 1.403 . S
C595 C592 1.403 . S
C595 C596 1.524 . S
C595 C599 1.400 . S
C596 H581 0.960 . S
C596 H582 0.960 . S
C596 H583 0.960 . S
C596 C595 1.524 . S
C597 C594 1.403 . S
C597 C598 1.392 . S
C597 C601 1.495 . S
C598 C597 1.392 . S
C598 C599 1.385 . S
C598 C600 1.478 . S
C599 H593 0.930 . S
C599 C595 1.400 . S
C599 C598 1.385 . S
C600 C598 1.478 . S
C600 C602 1.381 . S
C600 C606 1.383 . S
C601 C597 1.495 . S
C601 H607 0.959 . S
C601 H608 0.961 . S
C601 H609 0.960 . S
C602 C600 1.381 . S
C602 C603 1.394 . S
C602 H610 0.930 . S
C603 C602 1.394 . S
C603 C604 1.383 . S
C603 H611 0.929 . S
C604 C603 1.383 . S
C604 C605 1.377 . S
C605 H589 0.930 . S
C605 C604 1.377 . S
C605 C606 1.379 . S
C606 H590 0.931 . S
C606 C600 1.383 . S
C606 C605 1.379 . S
H607 C601 0.959 . S
H608 C601 0.961 . S
H609 C601 0.960 . S
H610 C602 0.930 . S
H611 C603 0.929 . S
H612 C620 0.929 . S
H613 C622 0.930 . S
H614 C624 0.930 . S
H615 C627 0.929 . S
H616 C630 0.930 . S
H617 C632 0.960 . S
H618 C632 0.960 . S
H619 C632 0.960 . S
C620 H612 0.929 . S
C620 C621 1.377 . S
C620 C622 1.384 . S
C621 C620 1.377 . S
C621 C627 1.390 . S
C622 H613 0.930 . S
C622 C620 1.384 . S
C622 C623 1.372 . S
C623 C622 1.372 . S
C623 C624 1.400 . S
C623 C628 1.490 . S
C624 H614 0.930 . S
C624 C623 1.400 . S
C624 C627 1.386 . S
H625 C641 0.930 . S
H626 C642 0.931 . S
C627 H615 0.929 . S
C627 C621 1.390 . S
C627 C624 1.386 . S
C628 C623 1.490 . S
C628 C630 1.395 . S
C628 C631 1.403 . S
H629 C635 0.930 . S
C630 H616 0.930 . S
C630 C628 1.395 . S
C630 C633 1.403 . S
C631 C628 1.403 . S
C631 C632 1.524 . S
C631 C635 1.400 . S
C632 H617 0.960 . S
C632 H618 0.960 . S
C632 H619 0.960 . S
C632 C631 1.524 . S
C633 C630 1.403 . S
C633 C634 1.392 . S
C633 C637 1.495 . S
C634 C633 1.392 . S
C634 C635 1.385 . S
C634 C636 1.478 . S
C635 H629 0.930 . S
C635 C631 1.400 . S
C635 C634 1.385 . S
C636 C634 1.478 . S
C636 C638 1.381 . S
C636 C642 1.383 . S
C637 C633 1.495 . S
C637 H643 0.959 . S
C637 H644 0.961 . S
C637 H645 0.960 . S
C638 C636 1.381 . S
C638 C639 1.394 . S
C638 H646 0.930 . S
C639 C638 1.394 . S
C639 C640 1.383 . S
C639 H647 0.929 . S
C640 C639 1.383 . S
C640 C641 1.377 . S
C641 H625 0.930 . S
C641 C640 1.377 . S
C641 C642 1.379 . S
C642 H626 0.931 . S
C642 C636 1.383 . S
C642 C641 1.379 . S
H643 C637 0.959 . S
H644 C637 0.961 . S
H645 C637 0.960 . S
H646 C638 0.930 . S
H647 C639 0.929 . S
H648 C656 0.929 . S
H649 C658 0.930 . S
H650 C660 0.930 . S
H651 C663 0.929 . S
H652 C666 0.930 . S
H653 C668 0.960 . S
H654 C668 0.960 . S
H655 C668 0.960 . S
C656 H648 0.929 . S
C656 C657 1.377 . S
C656 C658 1.384 . S
C657 C656 1.377 . S
C657 C663 1.390 . S
C658 H649 0.930 . S
C658 C656 1.384 . S
C658 C659 1.372 . S
C659 C658 1.372 . S
C659 C660 1.400 . S
C659 C664 1.490 . S
C660 H650 0.930 . S
C660 C659 1.400 . S
C660 C663 1.386 . S
H661 C677 0.930 . S
H662 C678 0.931 . S
C663 H651 0.929 . S
C663 C657 1.390 . S
C663 C660 1.386 . S
C664 C659 1.490 . S
C664 C666 1.395 . S
C664 C667 1.403 . S
H665 C671 0.930 . S
C666 H652 0.930 . S
C666 C664 1.395 . S
C666 C669 1.403 . S
C667 C664 1.403 . S
C667 C668 1.524 . S
C667 C671 1.400 . S
C668 H653 0.960 . S
C668 H654 0.960 . S
C668 H655 0.960 . S
C668 C667 1.524 . S
C669 C666 1.403 . S
C669 C670 1.392 . S
C669 C673 1.495 . S
C670 C669 1.392 . S
C670 C671 1.385 . S
C670 C672 1.478 . S
C671 H665 0.930 . S
C671 C667 1.400 . S
C671 C670 1.385 . S
C672 C670 1.478 . S
C672 C674 1.381 . S
C672 C678 1.383 . S
C673 C669 1.495 . S
C673 H679 0.959 . S
C673 H680 0.961 . S
C673 H681 0.960 . S
C674 C672 1.381 . S
C674 C675 1.394 . S
C674 H682 0.930 . S
C675 C674 1.394 . S
C675 C676 1.383 . S
C675 H683 0.929 . S
C676 C675 1.383 . S
C676 C677 1.377 . S
C677 H661 0.930 . S
C677 C676 1.377 . S
C677 C678 1.379 . S
C678 H662 0.931 . S
C678 C672 1.383 . S
C678 C677 1.379 . S
H679 C673 0.959 . S
H680 C673 0.961 . S
H681 C673 0.960 . S
H682 C674 0.930 . S
H683 C675 0.929 . S
H684 C692 0.929 . S
H685 C694 0.930 . S
H686 C696 0.930 . S
H687 C699 0.929 . S
H688 C702 0.930 . S
H689 C704 0.960 . S
H690 C704 0.960 . S
H691 C704 0.960 . S
C692 H684 0.929 . S
C692 C693 1.377 . S
C692 C694 1.384 . S
C693 C692 1.377 . S
C693 C699 1.390 . S
C694 H685 0.930 . S
C694 C692 1.384 . S
C694 C695 1.372 . S
C695 C694 1.372 . S
C695 C696 1.400 . S
C695 C700 1.490 . S
C696 H686 0.930 . S
C696 C695 1.400 . S
C696 C699 1.386 . S
H697 C713 0.930 . S
H698 C714 0.931 . S
C699 H687 0.929 . S
C699 C693 1.390 . S
C699 C696 1.386 . S
C700 C695 1.490 . S
C700 C702 1.395 . S
C700 C703 1.403 . S
H701 C707 0.930 . S
C702 H688 0.930 . S
C702 C700 1.395 . S
C702 C705 1.403 . S
C703 C700 1.403 . S
C703 C704 1.524 . S
C703 C707 1.400 . S
C704 H689 0.960 . S
C704 H690 0.960 . S
C704 H691 0.960 . S
C704 C703 1.524 . S
C705 C702 1.403 . S
C705 C706 1.392 . S
C705 C709 1.495 . S
C706 C705 1.392 . S
C706 C707 1.385 . S
C706 C708 1.478 . S
C707 H701 0.930 . S
C707 C703 1.400 . S
C707 C706 1.385 . S
C708 C706 1.478 . S
C708 C710 1.381 . S
C708 C714 1.383 . S
C709 C705 1.495 . S
C709 H715 0.959 . S
C709 H716 0.961 . S
C709 H717 0.960 . S
C710 C708 1.381 . S
C710 C711 1.394 . S
C710 H718 0.930 . S
C711 C710 1.394 . S
C711 C712 1.383 . S
C711 H719 0.929 . S
C712 C711 1.383 . S
C712 C713 1.377 . S
C713 H697 0.930 . S
C713 C712 1.377 . S
C713 C714 1.379 . S
C714 H698 0.931 . S
C714 C708 1.383 . S
C714 C713 1.379 . S
H715 C709 0.959 . S
H716 C709 0.961 . S
H717 C709 0.960 . S
H718 C710 0.930 . S
H719 C711 0.929 . S
H720 C728 0.929 . S
H721 C730 0.930 . S
H722 C732 0.930 . S
H723 C735 0.929 . S
H724 C738 0.930 . S
H725 C740 0.960 . S
H726 C740 0.960 . S
H727 C740 0.960 . S
C728 H720 0.929 . S
C728 C729 1.377 . S
C728 C730 1.384 . S
C729 C728 1.377 . S
C729 C735 1.390 . S
C730 H721 0.930 . S
C730 C728 1.384 . S
C730 C731 1.372 . S
C731 C730 1.372 . S
C731 C732 1.400 . S
C731 C736 1.490 . S
C732 H722 0.930 . S
C732 C731 1.400 . S
C732 C735 1.386 . S
H733 C749 0.930 . S
H734 C750 0.931 . S
C735 H723 0.929 . S
C735 C729 1.390 . S
C735 C732 1.386 . S
C736 C731 1.490 . S
C736 C738 1.395 . S
C736 C739 1.403 . S
H737 C743 0.930 . S
C738 H724 0.930 . S
C738 C736 1.395 . S
C738 C741 1.403 . S
C739 C736 1.403 . S
C739 C740 1.524 . S
C739 C743 1.400 . S
C740 H725 0.960 . S
C740 H726 0.960 . S
C740 H727 0.960 . S
C740 C739 1.524 . S
C741 C738 1.403 . S
C741 C742 1.392 . S
C741 C745 1.495 . S
C742 C741 1.392 . S
C742 C743 1.385 . S
C742 C744 1.478 . S
C743 H737 0.930 . S
C743 C739 1.400 . S
C743 C742 1.385 . S
C744 C742 1.478 . S
C744 C746 1.381 . S
C744 C750 1.383 . S
C745 C741 1.495 . S
C745 H751 0.959 . S
C745 H752 0.961 . S
C745 H753 0.960 . S
C746 C744 1.381 . S
C746 C747 1.394 . S
C746 H754 0.930 . S
C747 C746 1.394 . S
C747 C748 1.383 . S
C747 H755 0.929 . S
C748 C747 1.383 . S
C748 C749 1.377 . S
C749 H733 0.930 . S
C749 C748 1.377 . S
C749 C750 1.379 . S
C750 H734 0.931 . S
C750 C744 1.383 . S
C750 C749 1.379 . S
H751 C745 0.959 . S
H752 C745 0.961 . S
H753 C745 0.960 . S
H754 C746 0.930 . S
H755 C747 0.929 . S
H756 C764 0.929 . S
H757 C766 0.930 . S
H758 C768 0.930 . S
H759 C771 0.929 . S
H760 C774 0.930 . S
H761 C776 0.960 . S
H762 C776 0.960 . S
H763 C776 0.960 . S
C764 H756 0.929 . S
C764 C765 1.377 . S
C764 C766 1.384 . S
C765 C764 1.377 . S
C765 C771 1.390 . S
C766 H757 0.930 . S
C766 C764 1.384 . S
C766 C767 1.372 . S
C767 C766 1.372 . S
C767 C768 1.400 . S
C767 C772 1.490 . S
C768 H758 0.930 . S
C768 C767 1.400 . S
C768 C771 1.386 . S
H769 C785 0.930 . S
H770 C786 0.931 . S
C771 H759 0.929 . S
C771 C765 1.390 . S
C771 C768 1.386 . S
C772 C767 1.490 . S
C772 C774 1.395 . S
C772 C775 1.403 . S
H773 C779 0.930 . S
C774 H760 0.930 . S
C774 C772 1.395 . S
C774 C777 1.403 . S
C775 C772 1.403 . S
C775 C776 1.524 . S
C775 C779 1.400 . S
C776 H761 0.960 . S
C776 H762 0.960 . S
C776 H763 0.960 . S
C776 C775 1.524 . S
C777 C774 1.403 . S
C777 C778 1.392 . S
C777 C781 1.495 . S
C778 C777 1.392 . S
C778 C779 1.385 . S
C778 C780 1.478 . S
C779 H773 0.930 . S
C779 C775 1.400 . S
C779 C778 1.385 . S
C780 C778 1.478 . S
C780 C782 1.381 . S
C780 C786 1.383 . S
C781 C777 1.495 . S
C781 H787 0.959 . S
C781 H788 0.961 . S
C781 H789 0.960 . S
C782 C780 1.381 . S
C782 C783 1.394 . S
C782 H790 0.930 . S
C783 C782 1.394 . S
C783 C784 1.383 . S
C783 H791 0.929 . S
C784 C783 1.383 . S
C784 C785 1.377 . S
C785 H769 0.930 . S
C785 C784 1.377 . S
C785 C786 1.379 . S
C786 H770 0.931 . S
C786 C780 1.383 . S
C786 C785 1.379 . S
H787 C781 0.959 . S
H788 C781 0.961 . S
H789 C781 0.960 . S
H790 C782 0.930 . S
H791 C783 0.929 . S
H792 C800 0.929 . S
H793 C802 0.930 . S
H794 C804 0.930 1_655 S
H795 C807 0.961 . S
H796 C810 0.930 . S
H797 C812 0.960 . S
H798 C812 0.960 . S
H799 C812 0.960 1_655 S
C800 H792 0.929 . S
C800 C801 1.377 . S
C800 C802 1.384 . S
C801 C800 1.377 . S
C801 C807 1.359 1_455 S
C802 H793 0.930 . S
C802 C800 1.384 . S
C802 C803 1.372 . S
C803 C802 1.372 . S
C803 C804 1.400 . S
C803 C808 1.490 . S
C804 H794 0.930 1_455 S
C804 C803 1.400 . S
C804 C807 1.385 1_455 S
H805 C821 0.930 1_655 S
H806 C822 0.931 1_655 S
C807 H795 0.961 . S
C807 C801 1.359 1_655 S
C807 C804 1.385 1_655 S
C808 C803 1.490 . S
C808 C810 1.395 . S
C808 C811 1.403 . S
H809 C815 0.930 . S
C810 H796 0.930 . S
C810 C808 1.395 . S
C810 C813 1.403 . S
C811 C808 1.403 . S
C811 C812 1.524 . S
C811 C815 1.400 . S
C812 H797 0.960 . S
C812 H798 0.960 . S
C812 H799 0.960 1_455 S
C812 C811 1.524 . S
C813 C810 1.403 . S
C813 C814 1.392 . S
C813 C817 1.495 . S
C814 C813 1.392 . S
C814 C815 1.385 . S
C814 C816 1.478 . S
C815 H809 0.930 . S
C815 C811 1.400 . S
C815 C814 1.385 . S
C816 C814 1.478 . S
C816 C818 1.381 . S
C816 C822 1.383 . S
C817 C813 1.495 . S
C817 H823 0.959 . S
C817 H824 0.961 . S
C817 H825 0.960 . S
C818 C816 1.381 . S
C818 C819 1.394 1_554 S
C818 H826 0.930 . S
C819 C818 1.394 1_556 S
C819 C820 1.383 . S
C819 H827 0.929 . S
C820 C819 1.383 . S
C820 C821 1.377 . S
C821 H805 0.930 1_455 S
C821 C820 1.377 . S
C821 C822 1.379 1_556 S
C822 H806 0.931 1_455 S
C822 C816 1.383 . S
C822 C821 1.379 1_554 S
H823 C817 0.959 . S
H824 C817 0.961 . S
H825 C817 0.960 . S
H826 C818 0.930 . S
H827 C819 0.929 . S
H828 C836 0.929 . S
H829 C838 0.930 . S
H830 C840 0.930 . S
H831 C843 0.929 . S
H832 C846 0.930 . S
H833 C848 0.960 . S
H834 C848 0.960 . S
H835 C848 0.960 . S
C836 H828 0.929 . S
C836 C837 1.377 . S
C836 C838 1.384 . S
C837 C836 1.377 . S
C837 C843 1.390 . S
C838 H829 0.930 . S
C838 C836 1.384 . S
C838 C839 1.372 . S
C839 C838 1.372 . S
C839 C840 1.400 . S
C839 C844 1.490 . S
C840 H830 0.930 . S
C840 C839 1.400 . S
C840 C843 1.386 . S
H841 C857 0.930 . S
H842 C858 0.931 . S
C843 H831 0.929 . S
C843 C837 1.390 . S
C843 C840 1.386 . S
C844 C839 1.490 . S
C844 C846 1.395 1_545 S
C844 C847 1.403 . S
H845 C851 0.930 . S
C846 H832 0.930 . S
C846 C844 1.395 1_565 S
C846 C849 1.403 . S
C847 C844 1.403 . S
C847 C848 1.524 . S
C847 C851 1.400 . S
C848 H833 0.960 . S
C848 H834 0.960 . S
C848 H835 0.960 . S
C848 C847 1.524 . S
C849 C846 1.403 . S
C849 C850 1.392 1_565 S
C849 C853 1.495 . S
C850 C849 1.392 1_545 S
C850 C851 1.385 . S
C850 C852 1.478 . S
C851 H845 0.930 . S
C851 C847 1.400 . S
C851 C850 1.385 . S
C852 C850 1.478 . S
C852 C854 1.381 . S
C852 C858 1.383 . S
C853 C849 1.495 . S
C853 H859 0.959 . S
C853 H860 0.961 . S
C853 H861 0.960 . S
C854 C852 1.381 . S
C854 C855 1.394 . S
C854 H862 0.930 . S
C855 C854 1.394 . S
C855 C856 1.383 . S
C855 H863 0.929 . S
C856 C855 1.383 . S
C856 C857 1.377 . S
C857 H841 0.930 . S
C857 C856 1.377 . S
C857 C858 1.379 . S
C858 H842 0.931 . S
C858 C852 1.383 . S
C858 C857 1.379 . S
H859 C853 0.959 . S
H860 C853 0.961 . S
H861 C853 0.960 . S
H862 C854 0.930 . S
H863 C855 0.929 . S
H864 C872 0.929 . S
H865 C874 0.930 . S
H866 C876 0.930 . S
H867 C879 0.929 . S
H868 C882 0.930 . S
H869 C884 0.960 . S
H870 C884 0.960 . S
H871 C884 0.960 . S
C872 H864 0.929 . S
C872 C873 1.377 . S
C872 C874 1.384 . S
C873 C872 1.377 . S
C873 C879 1.390 . S
C874 H865 0.930 . S
C874 C872 1.384 . S
C874 C875 1.372 . S
C875 C874 1.372 . S
C875 C876 1.400 . S
C875 C880 1.490 . S
C876 H866 0.930 . S
C876 C875 1.400 . S
C876 C879 1.386 . S
H877 C893 0.930 . S
H878 C894 0.931 . S
C879 H867 0.929 . S
C879 C873 1.390 . S
C879 C876 1.386 . S
C880 C875 1.490 . S
C880 C882 1.395 . S
C880 C883 1.403 . S
H881 C887 0.930 . S
C882 H868 0.930 . S
C882 C880 1.395 . S
C882 C885 1.403 . S
C883 C880 1.403 . S
C883 C884 1.524 . S
C883 C887 1.400 . S
C884 H869 0.960 . S
C884 H870 0.960 . S
C884 H871 0.960 . S
C884 C883 1.524 . S
C885 C882 1.403 . S
C885 C886 1.392 . S
C885 C889 1.495 . S
C886 C885 1.392 . S
C886 C887 1.385 . S
C886 C888 1.478 . S
C887 H881 0.930 . S
C887 C883 1.400 . S
C887 C886 1.385 . S
C888 C886 1.478 . S
C888 C890 1.381 . S
C888 C894 1.383 . S
C889 C885 1.495 . S
C889 H895 0.959 . S
C889 H896 0.961 . S
C889 H897 0.960 . S
C890 C888 1.381 . S
C890 C891 1.394 . S
C890 H898 0.930 . S
C891 C890 1.394 . S
C891 C892 1.383 . S
C891 H899 0.929 . S
C892 C891 1.383 . S
C892 C893 1.377 . S
C893 H877 0.930 . S
C893 C892 1.377 . S
C893 C894 1.379 . S
C894 H878 0.931 . S
C894 C888 1.383 . S
C894 C893 1.379 . S
H895 C889 0.959 . S
H896 C889 0.961 . S
H897 C889 0.960 . S
H898 C890 0.930 . S
H899 C891 0.929 . S
H900 C908 0.930 1_565 S
H901 C910 0.930 . S
H902 C912 0.930 . S
H903 C915 0.929 . S
H904 C918 0.930 . S
H905 C920 0.960 . S
H906 C920 0.960 . S
H907 C920 0.960 . S
C908 H900 0.930 1_545 S
C908 C909 1.380 . S
C908 C910 1.382 1_545 S
C909 C908 1.380 . S
C909 C915 1.390 . S
C910 H901 0.930 . S
C910 C908 1.382 1_565 S
C910 C911 1.372 1_565 S
C911 C910 1.372 1_545 S
C911 C912 1.400 . S
C911 C916 1.490 . S
C912 H902 0.930 . S
C912 C911 1.400 . S
C912 C915 1.386 . S
H913 C929 0.930 . S
H914 C930 0.931 . S
C915 H903 0.929 . S
C915 C909 1.390 . S
C915 C912 1.386 . S
C916 C911 1.490 . S
C916 C918 1.395 1_545 S
C916 C919 1.403 . S
H917 C923 0.930 . S
C918 H904 0.930 . S
C918 C916 1.395 1_565 S
C918 C921 1.403 . S
C919 C916 1.403 . S
C919 C920 1.524 . S
C919 C923 1.400 . S
C920 H905 0.960 . S
C920 H906 0.960 . S
C920 H907 0.960 . S
C920 C919 1.524 . S
C921 C918 1.403 . S
C921 C922 1.412 . S
C921 C925 1.495 . S
C922 C921 1.412 . S
C922 C923 1.361 1_565 S
C922 C924 1.481 . S
C923 H917 0.930 . S
C923 C919 1.400 . S
C923 C922 1.361 1_545 S
C924 C922 1.481 . S
C924 C926 1.381 . S
C924 C930 1.383 1_565 S
C925 C921 1.495 . S
C925 H931 0.959 . S
C925 H932 0.961 . S
C925 H933 0.960 . S
C926 C924 1.381 . S
C926 C927 1.394 . S
C926 H934 0.930 . S
C927 C926 1.394 . S
C927 C928 1.383 . S
C927 H935 0.929 . S
C928 C927 1.383 . S
C928 C929 1.377 1_565 S
C929 H913 0.930 . S
C929 C928 1.377 1_545 S
C929 C930 1.379 . S
C930 H914 0.931 . S
C930 C924 1.383 1_545 S
C930 C929 1.379 . S
H931 C925 0.959 . S
H932 C925 0.961 . S
H933 C925 0.960 . S
H934 C926 0.930 . S
H935 C927 0.929 . S
H936 C944 0.929 . S
H937 C946 0.930 . S
H938 C948 0.930 . S
H939 C951 0.929 . S
H940 C954 0.930 . S
H941 C956 0.960 . S
H942 C956 0.960 . S
H943 C956 0.960 . S
C944 H936 0.929 . S
C944 C945 1.377 . S
C944 C946 1.384 . S
C945 C944 1.377 . S
C945 C951 1.390 . S
C946 H937 0.930 . S
C946 C944 1.384 . S
C946 C947 1.372 . S
C947 C946 1.372 . S
C947 C948 1.400 . S
C947 C952 1.490 . S
C948 H938 0.930 . S
C948 C947 1.400 . S
C948 C951 1.386 . S
H949 C965 0.930 1_554 S
H950 C966 0.931 . S
C951 H939 0.929 . S
C951 C945 1.390 . S
C951 C948 1.386 . S
C952 C947 1.490 . S
C952 C954 1.395 . S
C952 C955 1.403 . S
H953 C959 0.930 . S
C954 H940 0.930 . S
C954 C952 1.395 . S
C954 C957 1.403 . S
C955 C952 1.403 . S
C955 C956 1.524 . S
C955 C959 1.400 . S
C956 H941 0.960 . S
C956 H942 0.960 . S
C956 H943 0.960 . S
C956 C955 1.524 . S
C957 C954 1.403 . S
C957 C958 1.392 . S
C957 C961 1.495 . S
C958 C957 1.392 . S
C958 C959 1.385 . S
C958 C960 1.478 . S
C959 H953 0.930 . S
C959 C955 1.400 . S
C959 C958 1.385 . S
C960 C958 1.478 . S
C960 C962 1.381 . S
C960 C966 1.383 . S
C961 C957 1.495 . S
C961 H967 0.959 . S
C961 H968 0.961 . S
C961 H969 0.960 . S
C962 C960 1.381 . S
C962 C963 1.394 . S
C962 H970 0.930 . S
C963 C962 1.394 . S
C963 C964 1.383 1_556 S
C963 H971 0.929 1_556 S
C964 C963 1.383 1_554 S
C964 C965 1.377 1_554 S
C965 H949 0.930 1_556 S
C965 C964 1.377 1_556 S
C965 C966 1.379 . S
C966 H950 0.931 . S
C966 C960 1.383 . S
C966 C965 1.379 . S
H967 C961 0.959 . S
H968 C961 0.961 . S
H969 C961 0.960 . S
H970 C962 0.930 . S
H971 C963 0.929 1_554 S
H972 C980 0.929 . S
H973 C982 0.930 . S
H974 C984 0.930 . S
H975 C987 0.929 . S
H976 C990 0.930 . S
H977 C992 0.960 . S
H978 C992 0.960 . S
H979 C992 0.960 . S
C980 H972 0.929 . S
C980 C981 1.377 . S
C980 C982 1.384 . S
C981 C980 1.377 . S
C981 C987 1.390 . S
C982 H973 0.930 . S
C982 C980 1.384 . S
C982 C983 1.372 . S
C983 C982 1.372 . S
C983 C984 1.400 . S
C983 C988 1.490 . S
C984 H974 0.930 . S
C984 C983 1.400 . S
C984 C987 1.386 . S
H985 C1001 0.930 . S
H986 C1002 0.931 . S
C987 H975 0.929 . S
C987 C981 1.390 . S
C987 C984 1.386 . S
C988 C983 1.490 . S
C988 C990 1.395 1_455 S
C988 C991 1.403 . S
H989 C995 0.930 . S
C990 H976 0.930 . S
C990 C988 1.395 1_655 S
C990 C993 1.403 . S
C991 C988 1.403 . S
C991 C992 1.524 . S
C991 C995 1.400 . S
C992 H977 0.960 . S
C992 H978 0.960 . S
C992 H979 0.960 . S
C992 C991 1.524 . S
C993 C990 1.403 . S
C993 C994 1.417 . S
C993 C997 1.495 . S
C994 C993 1.417 . S
C994 C995 1.356 1_655 S
C994 C996 1.481 . S
C995 H989 0.930 . S
C995 C991 1.400 . S
C995 C994 1.356 1_455 S
C996 C994 1.481 . S
C996 C998 1.381 1_655 S
C996 C1002 1.383 . S
C997 C993 1.495 . S
C997 H1003 0.959 . S
C997 H1004 0.961 . S
C997 H1005 0.960 . S
C998 C996 1.381 1_455 S
C998 C999 1.394 . S
C998 H1006 0.930 . S
C999 C998 1.394 . S
C999 C1000 1.383 1_455 S
C999 H1007 0.929 . S
C1000 C999 1.383 1_655 S
C1000 C1001 1.377 . S
C1001 H985 0.930 . S
C1001 C1000 1.377 . S
C1001 C1002 1.379 . S
C1002 H986 0.931 . S
C1002 C996 1.383 . S
C1002 C1001 1.379 . S
H1003 C997 0.959 . S
H1004 C997 0.961 . S
H1005 C997 0.960 . S
H1006 C998 0.930 . S
H1007 C999 0.929 . S
C369 C10 3.141 . S
C388 C335 3.097 . S
C405 C55 1.142 . S
C424 C242 1.154 . S
C441 C90 1.875 . S
C460 C282 1.848 . S
C477 C19 2.952 . S
C496 C322 2.936 . S
C532 C255 1.284 . S
C513 C46 1.296 . S
C568 C295 2.066 . S
C549 C99 2.095 . S
C585 C50 1.885 . S
C604 C162 1.848 . S
C621 C95 0.457 . S
C640 C202 0.426 . S
C657 C6 1.328 . S
C676 C135 1.302 . S
C712 C175 2.019 . S
C693 C59 2.064 . S
C748 C215 0.221 . S
C729 C86 0.307 . S
C765 C15 1.163 . S
C784 C122 1.161 . S
C820 C221 1.110 . S
C801 C18 1.126 . S
C837 C49 1.460 . S
C856 C141 1.498 . S
C873 C98 1.356 . S
C892 C181 1.393 . S
C928 C301 1.384 . S
C909 C58 1.354 . S
C964 C341 1.738 . S
C945 C89 1.685 . S
C981 C9 1.456 . S
C1000 C261 1.496 . S
