# Generated by pormake.
# Topology llk, (3,12)-cn, num edge types: 1
# Building blocks:
#     Node 0, Type 0, BuildingBlock: OLANEW_clean_sbu_2, # of connection points: 3
#     Node 1, Type 0, BuildingBlock: OLANEW_clean_sbu_2, # of connection points: 3
#     Node 2, Type 0, BuildingBlock: OLANEW_clean_sbu_2, # of connection points: 3
#     Node 3, Type 0, BuildingBlock: OLANEW_clean_sbu_2, # of connection points: 3
#     Node 4, Type 0, BuildingBlock: OLANEW_clean_sbu_2, # of connection points: 3
#     Node 5, Type 0, BuildingBlock: OLANEW_clean_sbu_2, # of connection points: 3
#     Node 6, Type 0, BuildingBlock: OLANEW_clean_sbu_2, # of connection points: 3
#     Node 7, Type 0, BuildingBlock: OLANEW_clean_sbu_2, # of connection points: 3
#     Node 8, Type 0, BuildingBlock: OLANEW_clean_sbu_2, # of connection points: 3
#     Node 9, Type 0, BuildingBlock: OLANEW_clean_sbu_2, # of connection points: 3
#     Node 10, Type 0, BuildingBlock: OLANEW_clean_sbu_2, # of connection points: 3
#     Node 11, Type 0, BuildingBlock: OLANEW_clean_sbu_2, # of connection points: 3
#     Node 12, Type 0, BuildingBlock: OLANEW_clean_sbu_2, # of connection points: 3
#     Node 13, Type 0, BuildingBlock: OLANEW_clean_sbu_2, # of connection points: 3
#     Node 14, Type 0, BuildingBlock: OLANEW_clean_sbu_2, # of connection points: 3
#     Node 15, Type 0, BuildingBlock: OLANEW_clean_sbu_2, # of connection points: 3
#     Node 16, Type 0, BuildingBlock: OLANEW_clean_sbu_2, # of connection points: 3
#     Node 17, Type 0, BuildingBlock: OLANEW_clean_sbu_2, # of connection points: 3
#     Node 18, Type 0, BuildingBlock: OLANEW_clean_sbu_2, # of connection points: 3
#     Node 19, Type 0, BuildingBlock: OLANEW_clean_sbu_2, # of connection points: 3
#     Node 20, Type 0, BuildingBlock: OLANEW_clean_sbu_2, # of connection points: 3
#     Node 21, Type 0, BuildingBlock: OLANEW_clean_sbu_2, # of connection points: 3
#     Node 22, Type 0, BuildingBlock: OLANEW_clean_sbu_2, # of connection points: 3
#     Node 23, Type 0, BuildingBlock: OLANEW_clean_sbu_2, # of connection points: 3
#     Node 24, Type 1, BuildingBlock: QEWDON_clean_sbu_0, # of connection points: 12
#     Node 25, Type 1, BuildingBlock: QEWDON_clean_sbu_0, # of connection points: 12
#     Node 26, Type 1, BuildingBlock: QEWDON_clean_sbu_0, # of connection points: 12
#     Node 27, Type 1, BuildingBlock: QEWDON_clean_sbu_0, # of connection points: 12
#     Node 28, Type 1, BuildingBlock: QEWDON_clean_sbu_0, # of connection points: 12
#     Node 29, Type 1, BuildingBlock: QEWDON_clean_sbu_0, # of connection points: 12
#     Edge 30, Type (0, 1), BuildingBlock: CIFDUS_clean_linker_0, # of connection points: 2
#     Edge 31, Type (0, 1), BuildingBlock: CIFDUS_clean_linker_0, # of connection points: 2
#     Edge 32, Type (0, 1), BuildingBlock: CIFDUS_clean_linker_0, # of connection points: 2
#     Edge 33, Type (0, 1), BuildingBlock: CIFDUS_clean_linker_0, # of connection points: 2
#     Edge 34, Type (0, 1), BuildingBlock: CIFDUS_clean_linker_0, # of connection points: 2
#     Edge 35, Type (0, 1), BuildingBlock: CIFDUS_clean_linker_0, # of connection points: 2
#     Edge 36, Type (0, 1), BuildingBlock: CIFDUS_clean_linker_0, # of connection points: 2
#     Edge 37, Type (0, 1), BuildingBlock: CIFDUS_clean_linker_0, # of connection points: 2
#     Edge 38, Type (0, 1), BuildingBlock: CIFDUS_clean_linker_0, # of connection points: 2
#     Edge 39, Type (0, 1), BuildingBlock: CIFDUS_clean_linker_0, # of connection points: 2
#     Edge 40, Type (0, 1), BuildingBlock: CIFDUS_clean_linker_0, # of connection points: 2
#     Edge 41, Type (0, 1), BuildingBlock: CIFDUS_clean_linker_0, # of connection points: 2
#     Edge 42, Type (0, 1), BuildingBlock: CIFDUS_clean_linker_0, # of connection points: 2
#     Edge 43, Type (0, 1), BuildingBlock: CIFDUS_clean_linker_0, # of connection points: 2
#     Edge 44, Type (0, 1), BuildingBlock: CIFDUS_clean_linker_0, # of connection points: 2
#     Edge 45, Type (0, 1), BuildingBlock: CIFDUS_clean_linker_0, # of connection points: 2
#     Edge 46, Type (0, 1), BuildingBlock: CIFDUS_clean_linker_0, # of connection points: 2
#     Edge 47, Type (0, 1), BuildingBlock: CIFDUS_clean_linker_0, # of connection points: 2
#     Edge 48, Type (0, 1), BuildingBlock: CIFDUS_clean_linker_0, # of connection points: 2
#     Edge 49, Type (0, 1), BuildingBlock: CIFDUS_clean_linker_0, # of connection points: 2
#     Edge 50, Type (0, 1), BuildingBlock: CIFDUS_clean_linker_0, # of connection points: 2
#     Edge 51, Type (0, 1), BuildingBlock: CIFDUS_clean_linker_0, # of connection points: 2
#     Edge 52, Type (0, 1), BuildingBlock: CIFDUS_clean_linker_0, # of connection points: 2
#     Edge 53, Type (0, 1), BuildingBlock: CIFDUS_clean_linker_0, # of connection points: 2
#     Edge 54, Type (0, 1), BuildingBlock: CIFDUS_clean_linker_0, # of connection points: 2
#     Edge 55, Type (0, 1), BuildingBlock: CIFDUS_clean_linker_0, # of connection points: 2
#     Edge 56, Type (0, 1), BuildingBlock: CIFDUS_clean_linker_0, # of connection points: 2
#     Edge 57, Type (0, 1), BuildingBlock: CIFDUS_clean_linker_0, # of connection points: 2
#     Edge 58, Type (0, 1), BuildingBlock: CIFDUS_clean_linker_0, # of connection points: 2
#     Edge 59, Type (0, 1), BuildingBlock: CIFDUS_clean_linker_0, # of connection points: 2
#     Edge 60, Type (0, 1), BuildingBlock: CIFDUS_clean_linker_0, # of connection points: 2
#     Edge 61, Type (0, 1), BuildingBlock: CIFDUS_clean_linker_0, # of connection points: 2
#     Edge 62, Type (0, 1), BuildingBlock: CIFDUS_clean_linker_0, # of connection points: 2
#     Edge 63, Type (0, 1), BuildingBlock: CIFDUS_clean_linker_0, # of connection points: 2
#     Edge 64, Type (0, 1), BuildingBlock: CIFDUS_clean_linker_0, # of connection points: 2
#     Edge 65, Type (0, 1), BuildingBlock: CIFDUS_clean_linker_0, # of connection points: 2
#     Edge 66, Type (0, 1), BuildingBlock: CIFDUS_clean_linker_0, # of connection points: 2
#     Edge 67, Type (0, 1), BuildingBlock: CIFDUS_clean_linker_0, # of connection points: 2
#     Edge 68, Type (0, 1), BuildingBlock: CIFDUS_clean_linker_0, # of connection points: 2
#     Edge 69, Type (0, 1), BuildingBlock: CIFDUS_clean_linker_0, # of connection points: 2
#     Edge 70, Type (0, 1), BuildingBlock: CIFDUS_clean_linker_0, # of connection points: 2
#     Edge 71, Type (0, 1), BuildingBlock: CIFDUS_clean_linker_0, # of connection points: 2
#     Edge 72, Type (0, 1), BuildingBlock: CIFDUS_clean_linker_0, # of connection points: 2
#     Edge 73, Type (0, 1), BuildingBlock: CIFDUS_clean_linker_0, # of connection points: 2
#     Edge 74, Type (0, 1), BuildingBlock: CIFDUS_clean_linker_0, # of connection points: 2
#     Edge 75, Type (0, 1), BuildingBlock: CIFDUS_clean_linker_0, # of connection points: 2
#     Edge 76, Type (0, 1), BuildingBlock: CIFDUS_clean_linker_0, # of connection points: 2
#     Edge 77, Type (0, 1), BuildingBlock: CIFDUS_clean_linker_0, # of connection points: 2
#     Edge 78, Type (0, 1), BuildingBlock: CIFDUS_clean_linker_0, # of connection points: 2
#     Edge 79, Type (0, 1), BuildingBlock: CIFDUS_clean_linker_0, # of connection points: 2
#     Edge 80, Type (0, 1), BuildingBlock: CIFDUS_clean_linker_0, # of connection points: 2
#     Edge 81, Type (0, 1), BuildingBlock: CIFDUS_clean_linker_0, # of connection points: 2
#     Edge 82, Type (0, 1), BuildingBlock: CIFDUS_clean_linker_0, # of connection points: 2
#     Edge 83, Type (0, 1), BuildingBlock: CIFDUS_clean_linker_0, # of connection points: 2
#     Edge 84, Type (0, 1), BuildingBlock: CIFDUS_clean_linker_0, # of connection points: 2
#     Edge 85, Type (0, 1), BuildingBlock: CIFDUS_clean_linker_0, # of connection points: 2
#     Edge 86, Type (0, 1), BuildingBlock: CIFDUS_clean_linker_0, # of connection points: 2
#     Edge 87, Type (0, 1), BuildingBlock: CIFDUS_clean_linker_0, # of connection points: 2
#     Edge 88, Type (0, 1), BuildingBlock: CIFDUS_clean_linker_0, # of connection points: 2
#     Edge 89, Type (0, 1), BuildingBlock: CIFDUS_clean_linker_0, # of connection points: 2
#     Edge 90, Type (0, 1), BuildingBlock: CIFDUS_clean_linker_0, # of connection points: 2
#     Edge 91, Type (0, 1), BuildingBlock: CIFDUS_clean_linker_0, # of connection points: 2
#     Edge 92, Type (0, 1), BuildingBlock: CIFDUS_clean_linker_0, # of connection points: 2
#     Edge 93, Type (0, 1), BuildingBlock: CIFDUS_clean_linker_0, # of connection points: 2
#     Edge 94, Type (0, 1), BuildingBlock: CIFDUS_clean_linker_0, # of connection points: 2
#     Edge 95, Type (0, 1), BuildingBlock: CIFDUS_clean_linker_0, # of connection points: 2
#     Edge 96, Type (0, 1), BuildingBlock: CIFDUS_clean_linker_0, # of connection points: 2
#     Edge 97, Type (0, 1), BuildingBlock: CIFDUS_clean_linker_0, # of connection points: 2
#     Edge 98, Type (0, 1), BuildingBlock: CIFDUS_clean_linker_0, # of connection points: 2
#     Edge 99, Type (0, 1), BuildingBlock: CIFDUS_clean_linker_0, # of connection points: 2
#     Edge 100, Type (0, 1), BuildingBlock: CIFDUS_clean_linker_0, # of connection points: 2
#     Edge 101, Type (0, 1), BuildingBlock: CIFDUS_clean_linker_0, # of connection points: 2
# Relax obj value: 0.071
# Max RMSD: 0.122
# Mean RMSD: 0.077
data_MOF--net-llk--node1-OLANEW_clean_sbu_2--node2-QEWDON_clean_sbu_0--edge1-CIFDUS_clean_linker_0
_symmetry_space_group_name_H-M    P1
_symmetry_Int_Tables_number       1
_symmetry_cell_setting            triclinic
loop_
_symmetry_equiv_pos_as_xyz
'x, y, z'
_cell_length_a     42.742227
_cell_length_b     46.669624
_cell_length_c     44.9464
_cell_angle_alpha  90.072792
_cell_angle_beta   90.0414
_cell_angle_gamma 89.559511
loop_
_atom_site_label
_atom_site_type_symbol
_atom_site_fract_x
_atom_site_fract_y
_atom_site_fract_z
_atom_type_partial_charge
O0 O 0.04867 0.30681 0.34446 0.0
Cd1 Cd 0.05968 0.26917 0.30794 0.0
O2 O 0.00317 0.31672 0.32369 0.0
Cd3 Cd 0.01328 0.29879 0.27968 0.0
O4 O 0.01159 0.31591 0.23424 0.0
C5 C 0.0358 0.319 0.21817 0.0
O6 O 0.06283 0.30928 0.22796 0.0
C7 C 0.02232 0.31964 0.34515 0.0
C8 C 0.03703 0.21758 0.33071 0.0
O9 O 0.06553 0.22488 0.33498 0.0
O10 O 0.01966 0.23426 0.31507 0.0
O11 O 0.7218 0.09682 0.26644 0.0
Cd12 Cd 0.7581 0.11764 0.23072 0.0
O13 O 0.69246 0.1355 0.27024 0.0
Cd14 Cd 0.7343 0.15893 0.25827 0.0
O15 O 0.77582 0.14614 0.28336 0.0
C16 C 0.77134 0.1409 0.31079 0.0
O17 O 0.74363 0.14621 0.32228 0.0
C18 C 0.69665 0.1089 0.27515 0.0
C19 C 0.7349 0.10032 0.17594 0.0
O20 O 0.7547 0.08488 0.19029 0.0
O21 O 0.72742 0.12487 0.18673 0.0
O22 O 0.03108 0.73217 0.31269 0.0
Cd23 Cd 0.01822 0.76868 0.27576 0.0
O24 O 0.03931 0.69797 0.27983 0.0
Cd25 Cd 0.02082 0.72025 0.24099 0.0
O26 O 0.00206 0.7009 0.20062 0.0
C27 C 0.98419 0.6795 0.20429 0.0
O28 O 0.97564 0.6728 0.23147 0.0
C29 C 0.03954 0.70667 0.3066 0.0
C30 C -0.00344 0.81776 0.30488 0.0
O31 O 0.97747 0.79884 0.29524 0.0
O32 O 0.02585 0.81369 0.30027 0.0
O33 O 0.28957 0.9721 0.31113 0.0
Cd34 Cd 0.26489 0.96879 0.26213 0.0
O35 O 0.27698 0.92832 0.32413 0.0
Cd36 Cd 0.23975 0.93089 0.29096 0.0
O37 O 0.1959 0.95515 0.28846 0.0
C38 C 0.19693 0.98196 0.29355 0.0
O39 O 0.22435 0.99406 0.2969 0.0
C40 C 0.29182 0.95129 0.32926 0.0
C41 C 0.30562 0.98889 0.219 0.0
O42 O 0.28673 0.00589 0.23256 0.0
O43 O 0.30491 0.96218 0.22558 0.0
O44 O 0.96106 0.73273 0.69016 0.0
Cd45 Cd 0.95924 0.77373 0.72382 0.0
O46 O 0.95415 0.70018 0.72487 0.0
Cd47 Cd 0.95507 0.72831 0.76362 0.0
O48 O 0.96083 0.71812 0.81064 0.0
C49 C 0.98495 0.70351 0.81773 0.0
O50 O 0.00635 0.69861 0.79733 0.0
C51 C 0.95779 0.70668 0.69767 0.0
C52 C 0.97375 0.82283 0.69146 0.0
O53 O 0.99524 0.80768 0.70384 0.0
O54 O 0.94528 0.8151 0.69493 0.0
O55 O 0.35791 0.89108 0.75957 0.0
Cd56 Cd 0.31951 0.88118 0.79803 0.0
O57 O 0.33292 0.93148 0.75126 0.0
Cd58 Cd 0.32219 0.97013 0.72525 0.0
O59 O 0.29744 0.99813 0.69392 0.0
C60 C 0.29638 0.99063 0.66674 0.0
O61 O 0.31192 0.96758 0.65839 0.0
C62 C 0.35602 0.91489 0.74598 0.0
C63 C 0.34308 0.90858 0.84786 0.0
O64 O 0.34853 0.88187 0.84343 0.0
O65 O 0.32505 0.92179 0.82958 0.0
O66 O 0.99439 0.32165 0.66905 0.0
Cd67 Cd 0.99077 0.28442 0.70693 0.0
O68 O 0.04539 0.32371 0.67501 0.0
Cd69 Cd 0.04397 0.30786 0.72073 0.0
O70 O 0.04712 0.32586 0.76565 0.0
C71 C 0.02477 0.32455 0.78422 0.0
O72 O -0.0003 0.30986 0.77722 0.0
C73 C 0.02097 0.33021 0.66021 0.0
C74 C 0.01184 0.23362 0.68062 0.0
O75 O 0.98284 0.24075 0.67975 0.0
O76 O 0.03062 0.25004 0.69476 0.0
O77 O 0.71568 0.14619 0.7538 0.0
Cd78 Cd 0.72556 0.16721 0.8025 0.0
O79 O 0.74478 0.11082 0.77016 0.0
Cd80 Cd 0.77172 0.07119 0.76519 0.0
O81 O 0.80769 0.04715 0.74165 0.0
C82 C 0.83322 0.06051 0.73837 0.0
O83 O 0.83622 0.0857 0.75113 0.0
C84 C 0.72768 0.12152 0.74973 0.0
C85 C 0.68976 0.13645 0.84284 0.0
O86 O 0.67963 0.16008 0.83184 0.0
O87 O 0.71729 0.12793 0.83559 0.0
O88 O 0.27842 0.31429 -0.00189 0.0
Cd89 Cd 0.24369 0.27331 -0.00078 0.0
O90 O 0.29385 0.30654 0.04413 0.0
Cd91 Cd 0.24898 0.28662 0.05362 0.0
O92 O 0.20215 0.3045 0.04899 0.0
C93 C 0.20015 0.32959 0.05983 0.0
O94 O 0.22416 0.33956 0.07479 0.0
C95 C 0.29763 0.31892 0.01919 0.0
C96 C 0.28501 0.22774 0.00754 0.0
O97 O 0.27881 0.237 0.98135 0.0
O98 O 0.27013 0.23879 0.0295 0.0
O99 O 0.26439 0.73902 0.04873 0.0
Cd100 Cd 0.23435 0.78243 0.06049 0.0
O101 O 0.26032 0.74839 0.00101 0.0
Cd102 Cd 0.21667 0.77187 0.00802 0.0
O103 O 0.17135 0.75095 0.00482 0.0
C104 C 0.1669 0.7303 0.02272 0.0
O105 O 0.18765 0.7256 0.04378 0.0
C106 C 0.27266 0.73403 0.02204 0.0
C107 C 0.27616 0.82829 0.06033 0.0
O108 O 0.27018 0.8145 0.08428 0.0
O109 O 0.26164 0.82096 0.03658 0.0
O110 O 0.77931 0.30232 0.00486 0.0
Cd111 Cd 0.81101 0.25832 0.00327 0.0
O112 O 0.79148 0.31365 0.95887 0.0
Cd113 Cd 0.83372 0.28699 0.95998 0.0
O114 O 0.8818 0.29649 0.97291 0.0
C115 C 0.88895 0.29535 0.00034 0.0
O116 O 0.8685 0.28479 0.0191 0.0
C117 C 0.7752 0.3181 0.98212 0.0
C118 C 0.77192 0.21074 0.00817 0.0
O119 O 0.78392 0.22261 0.0312 0.0
O120 O 0.77888 0.22103 0.98261 0.0
O121 O 0.73426 0.71395 0.90399 0.0
Cd122 Cd 0.76968 0.75301 0.89317 0.0
O123 O 0.7393 0.72433 0.95143 0.0
Cd124 Cd 0.78746 0.73828 0.94532 0.0
O125 O 0.83078 0.71404 0.952 0.0
C126 C 0.84693 0.71691 0.97555 0.0
O127 O 0.83927 0.73719 0.99456 0.0
C128 C 0.72454 0.71182 0.93062 0.0
C129 C 0.73351 0.80085 0.90759 0.0
O130 O 0.73454 0.79152 0.88077 0.0
O131 O 0.75107 0.78866 0.927 0.0
O132 O 0.56951 0.82241 0.80881 0.0
Cd133 Cd 0.58457 0.78038 0.77958 0.0
O134 O 0.52012 0.81375 0.79892 0.0
Cd135 Cd 0.53256 0.79509 0.756 0.0
O136 O 0.54416 0.81405 0.71309 0.0
C137 C 0.52246 0.8256 0.69776 0.0
O138 O 0.49335 0.82297 0.70668 0.0
C139 C 0.54067 0.82668 0.81427 0.0
C140 C 0.56437 0.73323 0.8125 0.0
O141 O 0.59132 0.74427 0.81705 0.0
O142 O 0.54749 0.74372 0.79154 0.0
O143 O 0.24516 0.54006 0.78671 0.0
Cd144 Cd 0.29308 0.54245 0.75736 0.0
O145 O 0.24082 0.58695 0.78924 0.0
Cd146 Cd 0.29084 0.59133 0.78031 0.0
O147 O 0.33428 0.58507 0.80527 0.0
C148 C 0.35572 0.5673 0.79821 0.0
O149 O 0.35372 0.55342 0.77286 0.0
C150 C 0.22916 0.56226 0.79335 0.0
C151 C 0.27336 0.54183 0.69843 0.0
O152 O 0.28135 0.5186 0.71171 0.0
O153 O 0.27631 0.5655 0.7126 0.0
O154 O 0.44486 0.22514 0.83077 0.0
Cd155 Cd 0.43379 0.26305 0.79477 0.0
O156 O 0.42803 0.18325 0.81397 0.0
Cd157 Cd 0.41461 0.19064 0.76766 0.0
O158 O 0.42033 0.16145 0.7296 0.0
C159 C 0.43184 0.16913 0.70483 0.0
O160 O 0.43849 0.19629 0.70076 0.0
C161 C 0.44037 0.19845 0.83431 0.0
C162 C 0.44922 0.3141 0.82411 0.0
O163 O 0.4214 0.30409 0.82517 0.0
O164 O 0.46937 0.3007 0.8081 0.0
O165 O 0.74532 0.51561 0.80583 0.0
Cd166 Cd 0.72792 0.5277 0.75587 0.0
O167 O 0.75691 0.47173 0.79139 0.0
Cd168 Cd 0.72126 0.47376 0.75661 0.0
O169 O 0.6735 0.47708 0.77263 0.0
C170 C 0.66902 0.4601 0.79424 0.0
O171 O 0.69085 0.441 0.80036 0.0
C172 C 0.75878 0.49167 0.81067 0.0
C173 C 0.78203 0.52418 0.72137 0.0
O174 O 0.77376 0.548 0.73333 0.0
O175 O 0.764 0.50262 0.72462 0.0
O176 O 0.46978 0.24439 0.20585 0.0
Cd177 Cd 0.46864 0.28636 0.23844 0.0
O178 O 0.4811 0.21175 0.23983 0.0
Cd179 Cd 0.48821 0.2375 0.2798 0.0
O180 O 0.50625 0.22289 0.32282 0.0
C181 C 0.48786 0.22052 0.34484 0.0
O182 O 0.45903 0.23019 0.34221 0.0
C183 C 0.47473 0.21842 0.21308 0.0
C184 C 0.49106 0.33316 0.20639 0.0
O185 O 0.50937 0.31719 0.22186 0.0
O186 O 0.46178 0.32749 0.20662 0.0
O187 O 0.8019 0.48823 0.2425 0.0
Cd188 Cd 0.75781 0.478 0.27542 0.0
O189 O 0.79365 0.53466 0.24595 0.0
Cd190 Cd 0.74571 0.5278 0.26061 0.0
O191 O 0.69957 0.52283 0.24069 0.0
C192 C 0.69668 0.50379 0.22063 0.0
O193 O 0.72039 0.48644 0.21532 0.0
C194 C 0.81075 0.51376 0.23754 0.0
C195 C 0.78157 0.48466 0.3326 0.0
O196 O 0.78055 0.45991 0.32026 0.0
O197 O 0.76976 0.506 0.31849 0.0
O198 O 0.60973 0.78875 0.19366 0.0
Cd199 Cd 0.62694 0.74518 0.21923 0.0
O200 O 0.6004 0.82044 0.22938 0.0
Cd201 Cd 0.6097 0.79834 0.2713 0.0
O202 O 0.59674 0.81465 0.31545 0.0
C203 C 0.60666 0.83959 0.32163 0.0
O204 O 0.62588 0.85195 0.30288 0.0
C205 C 0.60126 0.81371 0.20195 0.0
C206 C 0.60951 0.69885 0.18325 0.0
O207 O 0.59176 0.70816 0.20417 0.0
O208 O 0.63615 0.71083 0.17987 0.0
O209 O 0.25668 0.64129 0.19015 0.0
Cd210 Cd 0.27424 0.65641 0.23911 0.0
O211 O 0.26724 0.59693 0.20337 0.0
Cd212 Cd 0.30319 0.60913 0.23538 0.0
O213 O 0.35162 0.60374 0.22176 0.0
C214 C 0.36623 0.58053 0.22725 0.0
O215 O 0.3538 0.56214 0.24585 0.0
C216 C 0.25445 0.61452 0.18543 0.0
C217 C 0.22792 0.63774 0.27807 0.0
O218 O 0.22767 0.66352 0.26827 0.0
O219 O 0.25066 0.6213 0.27043 0.0
O220 O 0.83823 0.8202 0.45704 0.0
Cd221 Cd 0.80565 0.77766 0.45195 0.0
O222 O 0.79968 0.85174 0.45632 0.0
Cd223 Cd 0.76319 0.81939 0.45328 0.0
O224 O 0.71999 0.79183 0.46123 0.0
C225 C 0.69211 0.80124 0.46582 0.0
O226 O 0.72006 0.79075 0.46124 0.0
C227 C 0.82878 0.84609 0.45805 0.0
C228 C 0.83755 0.73062 0.47597 0.0
O229 O 0.83916 0.73617 0.44809 0.0
O230 O 0.82043 0.74696 0.49225 0.0
O231 O 0.84615 0.23836 0.43736 0.0
Cd232 Cd 0.81491 0.28207 0.43332 0.0
O233 O 0.80602 0.21514 0.45602 0.0
Cd234 Cd 0.76977 0.24819 0.45768 0.0
O235 O 0.72265 0.24 0.47419 0.0
C236 C 0.7217 0.22187 0.49529 0.0
O237 O 0.74825 0.21246 0.50651 0.0
C238 C 0.83438 0.21548 0.44756 0.0
C239 C 0.85018 0.32903 0.45092 0.0
O240 O 0.83613 0.31334 0.47 0.0
O241 O 0.84733 0.32275 0.42329 0.0
O242 O 0.19671 0.82161 0.55554 0.0
Cd243 Cd 0.23942 0.78674 0.55877 0.0
O244 O 0.1964 0.81891 0.50666 0.0
Cd245 Cd 0.24575 0.80685 0.5036 0.0
O246 O 0.28945 0.82895 0.49365 0.0
C247 C 0.31614 0.82255 0.50429 0.0
O248 O 0.31895 0.80005 0.52166 0.0
C249 C 0.18344 0.8269 0.53079 0.0
C250 C 0.21492 0.73483 0.53905 0.0
O251 O 0.2129 0.7421 0.56648 0.0
O252 O 0.22957 0.75153 0.52136 0.0
O253 O 0.20015 0.22719 0.53166 0.0
Cd254 Cd 0.23781 0.2658 0.52654 0.0
O255 O 0.23569 0.19564 0.54565 0.0
Cd256 Cd 0.2772 0.22049 0.53558 0.0
O257 O 0.32147 0.19965 0.52444 0.0
C258 C 0.32068 0.17996 0.50484 0.0
O259 O 0.29449 0.1758 0.49017 0.0
C260 C 0.20728 0.20222 0.54076 0.0
C261 C 0.20619 0.31769 0.51851 0.0
O262 O 0.21328 0.3016 0.49635 0.0
O263 O 0.2144 0.30939 0.54457 0.0
Zn264 Zn 0.9204 1.00008 0.42806 0.0
Zn265 Zn 0.9358 0.0582 0.45977 0.0
O266 O 0.95162 0.01805 0.45599 0.0
H267 H 0.96708 0.00855 0.46827 0.0
C268 C 0.92042 0.98367 0.51373 0.0
O269 O 0.9114 0.01063 0.51501 0.0
Zn270 Zn 0.09183 0.05638 0.55639 0.0
Zn271 Zn 0.08663 0.98933 0.56219 0.0
O272 O 0.06247 0.02604 0.57011 0.0
H273 H 0.0457 0.02835 0.58434 0.0
Zn274 Zn 0.96953 0.00612 0.5519 0.0
O275 O 0.99121 0.0374 0.5289 0.0
Zn276 Zn 0.98967 0.07259 0.55398 0.0
H277 H 0.99607 0.03687 0.50795 0.0
Zn278 Zn 0.03093 0.98852 0.45206 0.0
O279 O 0.04602 0.01961 0.48012 0.0
H280 H 0.04986 0.01815 0.50124 0.0
Zn281 Zn 0.04737 0.05306 0.45255 0.0
C282 C 0.05155 0.93954 0.48928 0.0
O283 O 0.04692 0.95758 0.51134 0.0
O284 O 0.88858 0.02938 0.41151 0.0
O285 O 0.89003 0.06253 0.44727 0.0
O286 O 0.13424 0.99585 0.56277 0.0
O287 O 0.13692 0.04344 0.56512 0.0
O288 O 0.95167 0.01937 0.59239 0.0
O289 O 0.96627 0.06507 0.59232 0.0
C290 C 0.98779 0.08317 0.42931 0.0
O291 O 0.04295 0.99736 0.4086 0.0
O292 O 0.06513 0.04008 0.41288 0.0
O293 O 0.07253 0.95407 0.58655 0.0
C294 C 0.87771 0.052 0.42379 0.0
O295 O 0.93364 0.96443 0.40313 0.0
C296 C 0.05174 0.09789 0.57845 0.0
O297 O 0.94494 0.97596 0.52769 0.0
C298 C 0.15001 0.01873 0.56571 0.0
O299 O 0.04487 0.94732 0.46296 0.0
C300 C 0.95208 0.09826 0.50797 0.0
O301 O 0.9582 0.08334 0.43102 0.0
O302 O 0.0027 0.06537 0.44559 0.0
C303 C 0.9528 0.04393 0.60478 0.0
O304 O 0.08088 0.09244 0.57893 0.0
O305 O 0.03462 0.08115 0.56328 0.0
C306 C 0.08401 0.0849 0.49696 0.0
O307 O 0.96824 0.10437 0.53086 0.0
O308 O 0.94897 0.07218 0.50044 0.0
C309 C 0.05879 0.01778 0.39758 0.0
O310 O 0.07222 0.08533 0.47098 0.0
O311 O 0.08182 0.06231 0.51261 0.0
C312 C 0.04405 0.94916 0.59264 0.0
O313 O 0.02228 0.96673 0.58268 0.0
C314 C 0.96215 0.95659 0.40412 0.0
O315 O 0.98164 0.97114 0.42077 0.0
Zn316 Zn 0.45305 0.07015 0.05239 0.0
Zn317 Zn 0.46163 0.06538 0.98179 0.0
O318 O 0.46599 0.0431 0.01941 0.0
H319 H 0.4798 0.02682 0.02215 0.0
C320 C 0.52592 0.11466 0.08254 0.0
O321 O 0.52258 0.08739 0.08894 0.0
Zn322 Zn 0.57624 0.96643 0.96233 0.0
Zn323 Zn 0.60496 0.96238 0.02866 0.0
O324 O 0.57878 0.98698 0.00122 0.0
H325 H 0.56436 0.00175 0.00771 0.0
Zn326 Zn 0.57275 0.09168 0.04052 0.0
O327 O 0.55251 0.06356 0.01258 0.0
Zn328 Zn 0.57385 0.06988 0.97364 0.0
H329 H 0.56024 0.07588 0.02816 0.0
Zn330 Zn 0.4805 0.95061 0.0543 0.0
O331 O 0.49888 0.96657 0.01604 0.0
H332 H 0.49259 0.95957 0.03531 0.0
Zn333 Zn 0.46561 0.96331 0.98517 0.0
C334 C 0.51787 0.93674 0.10739 0.0
O335 O 0.50748 0.96197 0.11605 0.0
O336 O 0.43036 0.10613 0.03678 0.0
O337 O 0.43735 0.1023 0.98793 0.0
O338 O 0.62316 0.92649 0.00853 0.0
O339 O 0.60314 0.92999 0.96298 0.0
O340 O 0.61578 0.10505 0.02599 0.0
O341 O 0.61611 0.09011 0.97892 0.0
C342 C 0.43731 0.01541 0.95305 0.0
O343 O 0.43552 0.93506 0.05005 0.0
O344 O 0.42721 0.9427 0.00189 0.0
O345 O 0.63427 0.98287 0.05821 0.0
C346 C 0.4261 0.11544 0.01045 0.0
O347 O 0.43136 0.05173 0.08845 0.0
C348 C 0.59475 0.01955 0.93462 0.0
O349 O 0.54528 0.12183 0.06252 0.0
C350 C 0.62031 0.91709 0.98207 0.0
O351 O 0.51003 0.92735 0.08195 0.0
C352 C 0.51585 0.09165 0.95089 0.0
O353 O 0.43708 0.04254 0.95206 0.0
O354 O 0.4545 0.00344 0.97261 0.0
C355 C 0.62923 0.10287 0.00078 0.0
O356 O 0.59482 0.99252 0.93097 0.0
O357 O 0.57888 0.03006 0.956 0.0
C358 C 0.51178 0.94209 0.94279 0.0
O359 O 0.54517 0.09488 0.94867 0.0
O360 O 0.50559 0.07302 0.96885 0.0
C361 C 0.41818 0.93321 0.02707 0.0
O362 O 0.48308 0.94143 0.95013 0.0
O363 O 0.53 0.95795 0.95786 0.0
C364 C 0.63816 0.00983 0.05803 0.0
O365 O 0.62241 0.02566 0.03895 0.0
C366 C 0.42877 0.02479 0.09146 0.0
O367 O 0.44187 0.00762 0.07183 0.0
Zn368 Zn 0.94377 0.46894 0.95368 0.0
Zn369 Zn 0.94134 0.53779 0.95976 0.0
O370 O 0.97112 0.50451 0.95517 0.0
H371 H 0.99291 0.5042 0.96078 0.0
C372 C 0.99466 0.4269 0.03442 0.0
O373 O 0.00791 0.44506 0.01609 0.0
Zn374 Zn 0.07943 0.54812 0.04825 0.0
Zn375 Zn 0.09821 0.48225 0.062 0.0
O376 O 0.06139 0.50859 0.05159 0.0
H377 H 0.04051 0.50268 0.04625 0.0
Zn378 Zn 0.98402 0.47881 0.07117 0.0
O379 O 0.96565 0.50551 0.03961 0.0
Zn380 Zn 0.96659 0.54084 0.06476 0.0
H381 H 0.94933 0.49966 0.02608 0.0
Zn382 Zn 0.06311 0.48318 0.94773 0.0
O383 O 0.05205 0.51767 0.97304 0.0
H384 H 0.04111 0.51642 0.99179 0.0
Zn385 Zn 0.04975 0.55071 0.94531 0.0
C386 C 0.10216 0.45855 0.99201 0.0
O387 O 0.10665 0.48617 0.99555 0.0
O388 O 0.89876 0.47887 0.94118 0.0
O389 O 0.89802 0.52632 0.94511 0.0
O390 O 0.13707 0.50392 0.07707 0.0
O391 O 0.12392 0.54832 0.06419 0.0
O392 O 0.96401 0.48693 0.11217 0.0
O393 O 0.94801 0.53179 0.10519 0.0
C394 C 0.9843 0.57537 0.93051 0.0
O395 O 0.08459 0.49479 0.90839 0.0
O396 O 0.07406 0.54156 0.90742 0.0
O397 O 0.09086 0.44219 0.08097 0.0
C398 C 0.88464 0.50283 0.93842 0.0
O399 O 0.9601 0.43227 0.93225 0.0
C400 C 0.02562 0.57363 0.07682 0.0
O401 O 0.98419 0.43599 0.05917 0.0
C402 C 0.14327 0.53052 0.07554 0.0
O403 O 0.08353 0.45024 0.97178 0.0
C404 C 0.93599 0.57238 0.01761 0.0
O405 O 0.9554 0.57122 0.935 0.0
O406 O 0.00355 0.55691 0.94052 0.0
C407 C 0.94954 0.50927 0.12124 0.0
O408 O 0.05483 0.57595 0.07282 0.0
O409 O 0.01185 0.55149 0.0671 0.0
C410 C 0.07738 0.58534 0.99132 0.0
O411 O 0.94289 0.57332 0.04512 0.0
O412 O 0.94276 0.54969 0.00313 0.0
C413 C 0.08676 0.51926 0.89598 0.0
O414 O 0.06863 0.58562 0.9643 0.0
O415 O 0.07477 0.56194 0.00572 0.0
C416 C 0.06497 0.43528 0.09271 0.0
O417 O 0.04157 0.45366 0.09197 0.0
C418 C 0.98559 0.43064 0.91779 0.0
O419 O 0.00445 0.45275 0.91762 0.0
Zn420 Zn 0.46886 0.47511 0.98236 0.0
Zn421 Zn 0.47835 0.47583 0.05368 0.0
O422 O 0.48293 0.49951 0.01699 0.0
H423 H 0.49199 0.51831 0.01539 0.0
C424 C 0.53102 0.4264 0.93224 0.0
O425 O 0.51151 0.43683 0.95214 0.0
Zn426 Zn 0.56659 0.56726 0.04138 0.0
Zn427 Zn 0.55515 0.55783 0.97181 0.0
O428 O 0.55538 0.53751 0.01149 0.0
H429 H 0.54621 0.51908 0.01541 0.0
Zn430 Zn 0.58104 0.44946 0.97254 0.0
O431 O 0.5558 0.46058 0.00885 0.0
Zn432 Zn 0.58607 0.46421 0.04317 0.0
H433 H 0.53393 0.46589 0.00842 0.0
Zn434 Zn 0.45963 0.59734 0.97203 0.0
O435 O 0.4852 0.57845 0.00459 0.0
H436 H 0.50489 0.56867 0.00146 0.0
Zn437 Zn 0.45983 0.57914 0.04209 0.0
C438 C 0.50862 0.63137 0.94429 0.0
O439 O 0.52007 0.62938 0.97135 0.0
O440 O 0.44262 0.44067 0.99607 0.0
O441 O 0.44965 0.44223 0.04516 0.0
O442 O 0.58167 0.5943 0.97366 0.0
O443 O 0.59252 0.59844 0.02194 0.0
O444 O 0.62352 0.43282 0.9848 0.0
O445 O 0.62771 0.44369 0.0329 0.0
C446 C 0.4538 0.52687 0.08313 0.0
O447 O 0.41871 0.61511 0.98778 0.0
O448 O 0.41771 0.59938 0.03452 0.0
O449 O 0.56496 0.53217 0.93547 0.0
C450 C 0.43747 0.43087 0.02207 0.0
O451 O 0.45494 0.49629 0.94388 0.0
C452 C 0.59593 0.52172 0.07545 0.0
O453 O 0.56026 0.42964 0.93599 0.0
C454 C 0.59551 0.60689 0.99507 0.0
O455 O 0.48288 0.61914 0.93841 0.0
C456 C 0.53769 0.44712 0.08265 0.0
O457 O 0.45991 0.50032 0.08651 0.0
O458 O 0.45831 0.53809 0.05762 0.0
C459 C 0.63868 0.4322 0.00918 0.0
O460 O 0.58981 0.54847 0.07518 0.0
O461 O 0.5887 0.50674 0.05277 0.0
C462 C 0.51213 0.59853 0.07492 0.0
O463 O 0.567 0.44472 0.07846 0.0
O464 O 0.52214 0.46248 0.0644 0.0
C465 C 0.40535 0.6134 0.01305 0.0
O466 O 0.48267 0.60152 0.07336 0.0
O467 O 0.52539 0.58321 0.05515 0.0
C468 C 0.58452 0.51213 0.94043 0.0
O469 O 0.59526 0.5087 0.96761 0.0
C470 C 0.44398 0.52158 0.94625 0.0
O471 O 0.44241 0.53344 0.97274 0.0
Zn472 Zn 0.96837 0.49856 0.47333 0.0
Zn473 Zn 0.96666 0.56584 0.46714 0.0
O474 O -0.00288 0.53284 0.46862 0.0
H475 H 0.01803 0.53343 0.47676 0.0
C476 C 0.93947 0.45584 0.53258 0.0
O477 O 0.93471 0.48002 0.51834 0.0
Zn478 Zn 0.08271 0.57542 0.55106 0.0
Zn479 Zn 0.10015 0.51104 0.54325 0.0
O480 O 0.06228 0.53715 0.54949 0.0
H481 H 0.0417 0.53361 0.54146 0.0
Zn482 Zn 0.96551 0.49586 0.57503 0.0
O483 O 0.96905 0.52873 0.54589 0.0
Zn484 Zn 0.96954 0.56357 0.57186 0.0
H485 H 0.97914 0.52693 0.52676 0.0
Zn486 Zn 0.09564 0.50948 0.43058 0.0
O487 O 0.0883 0.53704 0.46498 0.0
H488 H 0.08271 0.53199 0.48512 0.0
Zn489 Zn 0.07912 0.57402 0.44434 0.0
C490 C 0.11946 0.46106 0.46603 0.0
O491 O 0.11757 0.48007 0.48754 0.0
O492 O 0.92385 0.50678 0.45808 0.0
O493 O 0.92557 0.55334 0.44821 0.0
O494 O 0.1403 0.52754 0.56213 0.0
O495 O 0.12521 0.5724 0.57094 0.0
O496 O 0.9413 0.50847 0.61215 0.0
O497 O 0.94722 0.55575 0.61123 0.0
C498 C 0.01443 0.59985 0.43809 0.0
O499 O 0.11376 0.52949 0.39354 0.0
O500 O 0.09825 0.57411 0.40305 0.0
O501 O 0.09338 0.46809 0.5524 0.0
C502 C 0.91129 0.52942 0.44759 0.0
O503 O 0.98372 0.45877 0.45878 0.0
C504 C 0.0267 0.59906 0.57964 0.0
O505 O 0.95291 0.45642 0.55778 0.0
C506 C 0.14556 0.55234 0.57284 0.0
O507 O 0.11112 0.46819 0.4399 0.0
C508 C 0.94382 0.59665 0.52416 0.0
O509 O 0.98547 0.5987 0.44419 0.0
O510 O 0.03233 0.57952 0.4463 0.0
C511 C 0.93625 0.53318 0.6233 0.0
O512 O 0.05516 0.60371 0.57325 0.0
O513 O 0.01487 0.57497 0.57319 0.0
C514 C 0.10277 0.60613 0.49401 0.0
O515 O 0.94517 0.59541 0.55233 0.0
O516 O 0.9588 0.57763 0.50954 0.0
C517 C 0.11208 0.55587 0.38637 0.0
O518 O 0.10109 0.60562 0.46585 0.0
O519 O 0.08768 0.58729 0.50839 0.0
C520 C 0.06647 0.45671 0.55264 0.0
O521 O 0.04195 0.47227 0.54518 0.0
C522 C 0.01012 0.44658 0.46243 0.0
O523 O 0.032 0.45962 0.47775 0.0
Zn524 Zn 0.4802 0.97966 0.46441 0.0
Zn525 Zn 0.45659 0.04286 0.48042 0.0
O526 O 0.49495 0.02093 0.46778 0.0
H527 H 0.51175 0.02818 0.45568 0.0
C528 C 0.45726 0.92897 0.52795 0.0
O529 O 0.44784 0.95494 0.52083 0.0
Zn530 Zn 0.59321 0.06661 0.56462 0.0
Zn531 Zn 0.62142 0.00447 0.58157 0.0
O532 O 0.5848 0.0247 0.562 0.0
H533 H 0.56748 0.01579 0.55186 0.0
Zn534 Zn 0.49796 0.9613 0.5681 0.0
O535 O 0.49432 1.00045 0.54874 0.0
Zn536 Zn 0.48748 0.0285 0.58218 0.0
H537 H 0.50349 0.00505 0.5297 0.0
Zn538 Zn 0.59171 0.01463 0.4557 0.0
O539 O 0.56631 0.03855 0.48474 0.0
H540 H 0.55486 0.03113 0.50153 0.0
Zn541 Zn 0.55617 0.07523 0.46338 0.0
C542 C 0.62678 0.96177 0.4686 0.0
O543 O 0.6491 0.98039 0.47352 0.0
O544 O 0.43368 0.97873 0.45251 0.0
O545 O 0.41838 0.0235 0.46241 0.0
O546 O 0.65052 0.03253 0.60378 0.0
O547 O 0.6338 0.07479 0.58683 0.0
O548 O 0.48183 0.96222 0.61104 0.0
O549 O 0.4732 0.00847 0.61993 0.0
C550 C 0.48504 0.09514 0.46123 0.0
O551 O 0.59811 0.03318 0.41471 0.0
O552 O 0.57045 0.07341 0.42037 0.0
O553 O 0.61346 0.96451 0.60047 0.0
C554 C 0.41276 0.99837 0.45245 0.0
O555 O 0.50941 0.95021 0.44252 0.0
C556 C 0.53335 0.07545 0.59427 0.0
O557 O 0.47994 0.92606 0.54601 0.0
C558 C 0.65266 0.05976 0.60256 0.0
O559 O 0.59974 0.97091 0.46138 0.0
C560 C 0.44719 0.06129 0.54412 0.0
O561 O 0.45867 0.08373 0.46614 0.0
O562 O 0.50936 0.07997 0.46582 0.0
C563 C 0.47217 0.98227 0.62799 0.0
O564 O 0.56007 0.08592 0.58895 0.0
O565 O 0.5279 0.04978 0.58634 0.0
C566 C 0.59265 0.10492 0.50779 0.0
O567 O 0.45535 0.05793 0.57104 0.0
O568 O 0.45677 0.04316 0.525 0.0
C569 C 0.58723 0.05666 0.40441 0.0
O570 O 0.58037 0.10734 0.48215 0.0
O571 O 0.58673 0.08263 0.52301 0.0
C572 C 0.58718 0.95217 0.59774 0.0
O573 O 0.56496 0.96472 0.58218 0.0
C574 C 0.53223 0.95918 0.42705 0.0
O575 O 0.53743 0.98685 0.42583 0.0
H576 H 0.14849 0.20355 0.51754 0.0
H577 H 0.21282 0.14951 0.56641 0.0
H578 H 0.17812 0.10876 0.55992 0.0
H579 H 0.13372 0.08719 0.53398 0.0
H580 H 0.07017 0.14041 0.48385 0.0
H581 H 0.10052 0.18283 0.49684 0.0
C582 C 0.15459 0.18303 0.52734 0.0
C583 C 0.1834 0.1795 0.54205 0.0
C584 C 0.13494 0.15946 0.52283 0.0
C585 C 0.19094 0.15275 0.55466 0.0
C586 C 0.17118 0.12938 0.55088 0.0
C587 C 0.12593 0.10814 0.52686 0.0
C588 C 0.09972 0.1107 0.50829 0.0
C589 C 0.14372 0.13227 0.53409 0.0
C590 C 0.09042 0.13794 0.49817 0.0
C591 C 0.10773 0.16218 0.50559 0.0
H592 H 0.89806 0.21167 0.45187 0.0
H593 H 0.81394 0.16106 0.45461 0.0
H594 H 0.84395 0.11969 0.47139 0.0
H595 H 0.89276 0.09903 0.48976 0.0
H596 H 0.97674 0.14924 0.49003 0.0
H597 H 0.94836 0.18949 0.46703 0.0
C598 C 0.88649 0.19135 0.45534 0.0
C599 C 0.85379 0.18953 0.45222 0.0
C600 C 0.90387 0.16753 0.46538 0.0
C601 C 0.83904 0.16312 0.45706 0.0
C602 C 0.85618 0.13935 0.46651 0.0
C603 C 0.90501 0.11843 0.48373 0.0
C604 C 0.9367 0.12116 0.49089 0.0
C605 C 0.8884 0.14147 0.47136 0.0
C606 C 0.95224 0.1468 0.48446 0.0
C607 C 0.93603 0.16973 0.47137 0.0
H608 H 0.81719 0.90358 0.45938 0.0
H609 H 0.89129 0.84097 0.47001 0.0
H610 H 0.92694 0.87851 0.48603 0.0
H611 H 0.93569 0.92826 0.50142 0.0
H612 H 0.86174 0.99094 0.49075 0.0
H613 H 0.82758 0.95423 0.47011 0.0
C614 C 0.84123 0.89815 0.46488 0.0
C615 C 0.85136 0.8694 0.46387 0.0
C616 C 0.8616 0.91982 0.47431 0.0
C617 C 0.88273 0.86287 0.47076 0.0
C618 C 0.90315 0.88432 0.48003 0.0
C619 C 0.91217 0.93395 0.49439 0.0
C620 C 0.90109 0.96217 0.49817 0.0
C621 C 0.89261 0.91273 0.48262 0.0
C622 C 0.87077 0.9693 0.48841 0.0
C623 C 0.85117 0.94831 0.47664 0.0
H624 H 0.14601 0.83634 0.48294 0.0
H625 H 0.15588 0.85714 0.57608 0.0
H626 H 0.11278 0.8916 0.57222 0.0
H627 H 0.07657 0.91959 0.54105 0.0
H628 H 0.06788 0.89944 0.44769 0.0
H629 H 0.10583 0.86058 0.45317 0.0
C630 C 0.13852 0.84814 0.50251 0.0
C631 C 0.15451 0.84449 0.52962 0.0
C632 C 0.11399 0.86813 0.50008 0.0
C633 C 0.14414 0.85966 0.55486 0.0
C634 C 0.11954 0.87944 0.55268 0.0
C635 C 0.08261 0.90646 0.52202 0.0
C636 C 0.06983 0.91284 0.49394 0.0
C637 C 0.10492 0.88444 0.52519 0.0
C638 C 0.07762 0.89528 0.46954 0.0
C639 C 0.09943 0.87308 0.4726 0.0
H640 H 0.4859 0.2249 0.15392 0.0
H641 H 0.4672 0.16103 0.2208 0.0
H642 H 0.47749 0.12295 0.18477 0.0
H643 H 0.49785 0.1079 0.13622 0.0
H644 H 0.52027 0.17176 0.07039 0.0
H645 H 0.50214 0.20964 0.10386 0.0
C646 C 0.48348 0.20265 0.16043 0.0
C647 C 0.47605 0.1958 0.19003 0.0
C648 C 0.49044 0.18083 0.13985 0.0
C649 C 0.47318 0.16686 0.1982 0.0
C650 C 0.47911 0.14506 0.17763 0.0
C651 C 0.4983 0.13006 0.129 0.0
C652 C 0.51074 0.13702 0.10101 0.0
C653 C 0.48872 0.1518 0.14868 0.0
C654 C 0.51113 0.16585 0.09198 0.0
C655 C 0.5008 0.18754 0.11112 0.0
H656 H 0.85659 0.4755 0.22302 0.0
H657 H 0.82951 0.56425 0.21281 0.0
H658 H 0.87299 0.57173 0.17861 0.0
H659 H 0.91475 0.55169 0.1472 0.0
H660 H 0.94144 0.46275 0.15725 0.0
H661 H 0.90251 0.45701 0.19627 0.0
C662 C 0.86038 0.49656 0.21357 0.0
C663 C 0.83948 0.51911 0.22007 0.0
C664 C 0.88533 0.50071 0.19376 0.0
C665 C 0.84507 0.5464 0.20801 0.0
C666 C 0.8699 0.55072 0.18837 0.0
C667 C 0.91243 0.53116 0.15824 0.0
C668 C 0.93063 0.50757 0.14881 0.0
C669 C 0.88962 0.52781 0.18042 0.0
C670 C 0.92757 0.48125 0.16374 0.0
C671 C 0.90517 0.47786 0.18601 0.0
H672 H 0.58395 0.8692 0.21147 0.0
H673 H 0.59323 0.80557 0.14208 0.0
H674 H 0.56993 0.83877 0.10632 0.0
H675 H 0.54373 0.88454 0.09556 0.0
H676 H 0.5339 0.94789 0.1651 0.0
H677 H 0.56082 0.91607 0.19993 0.0
C678 C 0.58113 0.8626 0.18848 0.0
C679 C 0.5901 0.83478 0.1796 0.0
C680 C 0.56746 0.88169 0.16808 0.0
C681 C 0.58646 0.82678 0.14962 0.0
C682 C 0.57305 0.84573 0.12914 0.0
C683 C 0.54764 0.8915 0.11828 0.0
C684 C 0.5365 0.91846 0.12777 0.0
C685 C 0.56294 0.87303 0.13826 0.0
C686 C 0.54205 0.9272 0.15722 0.0
C687 C 0.55741 0.909 0.17719 0.0
H688 H 0.24923 0.55932 0.16701 0.0
H689 H 0.21865 0.64543 0.14629 0.0
H690 H 0.18461 0.62697 0.10718 0.0
H691 H 0.15967 0.58626 0.08269 0.0
H692 H 0.18891 0.50002 0.10464 0.0
H693 H 0.22792 0.51882 0.13902 0.0
C694 C 0.23531 0.57411 0.15382 0.0
C695 C 0.2361 0.60368 0.15992 0.0
C696 C 0.21558 0.56335 0.13157 0.0
C697 C 0.21826 0.62254 0.14228 0.0
C698 C 0.19878 0.61201 0.1199 0.0
C699 C 0.1749 0.57152 0.09458 0.0
C700 C 0.17098 0.54173 0.09139 0.0
C701 C 0.1967 0.58242 0.11488 0.0
C702 C 0.19118 0.52303 0.10682 0.0
C703 C 0.2134 0.53375 0.12663 0.0
H704 H 0.57641 0.86623 0.84309 0.0
H705 H 0.48283 0.83212 0.8389 0.0
H706 H 0.4661 0.86491 0.87808 0.0
H707 H 0.47781 0.90264 0.91349 0.0
H708 H 0.57009 0.93935 0.91645 0.0
H709 H 0.58771 0.90587 0.87792 0.0
C710 C 0.55239 0.86592 0.85083 0.0
C711 C 0.53093 0.84665 0.83816 0.0
C712 C 0.54277 0.88512 0.87321 0.0
C713 C 0.49982 0.84672 0.84822 0.0
C714 C 0.49021 0.86545 0.87065 0.0
C715 C 0.50185 0.90344 0.90581 0.0
C716 C 0.52288 0.92303 0.91854 0.0
C717 C 0.51148 0.88468 0.88327 0.0
C718 C 0.55372 0.92391 0.90785 0.0
C719 C 0.5637 0.90493 0.88557 0.0
H720 H 0.19794 0.51296 0.80512 0.0
H721 H 0.19061 0.6049 0.81407 0.0
H722 H 0.1429 0.59969 0.8433 0.0
H723 H 0.10695 0.56897 0.87103 0.0
H724 H 0.1156 0.47696 0.86364 0.0
H725 H 0.1587 0.48238 0.82863 0.0
C726 C 0.18575 0.53191 0.81316 0.0
C727 C 0.19817 0.55926 0.80777 0.0
C728 C 0.15856 0.52876 0.83033 0.0
C729 C 0.1818 0.58356 0.8181 0.0
C730 C 0.15449 0.58061 0.83487 0.0
C731 C 0.11783 0.55006 0.86137 0.0
C732 C 0.10827 0.52258 0.87036 0.0
C733 C 0.14318 0.55329 0.84182 0.0
C734 C 0.12262 0.49838 0.8574 0.0
C735 C 0.1474 0.50144 0.83745 0.0
H736 H 0.42788 0.1445 0.8535 0.0
H737 H 0.48025 0.22025 0.87606 0.0
H738 H 0.50636 0.19436 0.91626 0.0
H739 H 0.5185 0.1487 0.94138 0.0
H740 H 0.46745 0.07294 0.91758 0.0
H741 H 0.43618 0.10031 0.8819 0.0
C742 C 0.44471 0.15548 0.86743 0.0
C743 C 0.45242 0.18414 0.86144 0.0
C744 C 0.45984 0.14042 0.89035 0.0
C745 C 0.47396 0.19815 0.88003 0.0
C746 C 0.48904 0.18332 0.90297 0.0
C747 C 0.50011 0.13843 0.9287 0.0
C748 C 0.49462 0.10905 0.93245 0.0
C749 C 0.48281 0.15425 0.90776 0.0
C750 C 0.47104 0.09575 0.91587 0.0
C751 C 0.4536 0.11133 0.89511 0.0
H752 H 0.77375 0.53181 0.85217 0.0
H753 H 0.78715 0.44248 0.83001 0.0
H754 H 0.8237 0.43709 0.87136 0.0
H755 H 0.85634 0.45895 0.90959 0.0
H756 H 0.84563 0.549 0.92984 0.0
H757 H 0.80291 0.55266 0.8939 0.0
C758 C 0.78435 0.51106 0.85659 0.0
C759 C 0.77808 0.48769 0.83772 0.0
C760 C 0.80584 0.50823 0.88005 0.0
C761 C 0.79186 0.46092 0.84392 0.0
C762 C 0.81275 0.4578 0.8676 0.0
C763 C 0.84428 0.47929 0.90668 0.0
C764 C 0.8545 0.50374 0.92216 0.0
C765 C 0.82057 0.4815 0.88523 0.0
C766 C 0.83845 0.52987 0.91807 0.0
C767 C 0.81413 0.53203 0.89738 0.0
H768 H 0.70036 0.7005 0.98527 0.0
H769 H 0.68698 0.68302 0.89174 0.0
H770 H 0.64421 0.65067 0.90357 0.0
H771 H 0.61349 0.6248 0.94036 0.0
H772 H 0.62706 0.6415 0.03403 0.0
H773 H 0.66701 0.67685 0.02212 0.0
C774 C 0.68799 0.68977 0.96743 0.0
C775 C 0.69713 0.69394 0.93767 0.0
C776 C 0.66364 0.67095 0.97439 0.0
C777 C 0.68065 0.68001 0.91485 0.0
C778 C 0.6562 0.66148 0.92158 0.0
C779 C 0.62489 0.63635 0.95824 0.0
C780 C 0.6174 0.63034 0.98806 0.0
C781 C 0.64793 0.65641 0.95128 0.0
C782 C 0.63247 0.64558 0.01088 0.0
C783 C 0.65533 0.66578 0.00409 0.0
H784 H 0.29723 0.69424 0.06 0.0
H785 H 0.30043 0.7227 0.96866 0.0
H786 H 0.33956 0.68604 0.95731 0.0
H787 H 0.37469 0.64771 0.97369 0.0
H788 H 0.37243 0.61936 0.06511 0.0
H789 H 0.33062 0.65381 0.07581 0.0
C790 C 0.30649 0.69243 0.03761 0.0
C791 C 0.29611 0.71142 0.01531 0.0
C792 C 0.32899 0.67121 0.03117 0.0
C793 C 0.30808 0.70851 0.98632 0.0
C794 C 0.33045 0.68751 0.97977 0.0
C795 C 0.36488 0.64877 0.99592 0.0
C796 C 0.37694 0.63105 0.01858 0.0
C797 C 0.34128 0.66895 0.00207 0.0
C798 C 0.36371 0.63273 0.0472 0.0
C799 C 0.3399 0.65256 0.05341 0.0
H800 H 0.34024 0.33683 0.06017 0.0
H801 H 0.31441 0.34548 0.96767 0.0
H802 H 0.35681 0.37928 0.96004 0.0
H803 H 0.39955 0.40797 0.97995 0.0
H804 H 0.42475 0.40061 0.07273 0.0
H805 H 0.38442 0.36448 0.07977 0.0
C806 C 0.34395 0.34602 0.03831 0.0
C807 C 0.32403 0.33874 0.0146 0.0
C808 C 0.36826 0.36566 0.03408 0.0
C809 C 0.32924 0.35082 0.98639 0.0
C810 C 0.35352 0.37013 0.98197 0.0
C811 C 0.39648 0.3983 0.00168 0.0
C812 C 0.41507 0.40712 0.02578 0.0
C813 C 0.37295 0.37792 0.00571 0.0
C814 C 0.41067 0.39435 0.05379 0.0
C815 C 0.38757 0.37371 0.05786 0.0
H816 H 0.74703 0.3422 0.03066 0.0
H817 H 0.75118 0.34739 0.93483 0.0
H818 H 0.71156 0.38526 0.93519 0.0
H819 H 0.6736 0.41471 0.96223 0.0
H820 H 0.669 0.41017 0.05804 0.0
H821 H 0.71154 0.37473 0.0582 0.0
C822 C 0.73926 0.35163 0.00986 0.0
C823 C 0.75177 0.34167 0.98271 0.0
C824 C 0.71659 0.37364 0.01023 0.0
C825 C 0.74184 0.35449 0.95601 0.0
C826 C 0.7192 0.37618 0.95619 0.0
C827 C 0.68209 0.40623 0.98323 0.0
C828 C 0.66787 0.41486 0.01007 0.0
C829 C 0.70615 0.38564 0.98311 0.0
C830 C 0.6795 0.40393 0.03706 0.0
C831 C 0.70365 0.38347 0.03714 0.0
H832 H 0.97883 0.7114 0.6408 0.0
H833 H 0.94569 0.64973 0.70475 0.0
H834 H 0.96029 0.61062 0.67142 0.0
H835 H 0.98863 0.59384 0.62704 0.0
H836 H 0.02532 0.65534 0.56512 0.0
H837 H 0.00272 0.69463 0.59434 0.0
C838 C 0.97415 0.68944 0.64718 0.0
C839 C 0.96151 0.68353 0.67537 0.0
C840 C 0.98327 0.66699 0.6282 0.0
C841 C 0.95565 0.65491 0.68329 0.0
C842 C 0.96395 0.63248 0.66421 0.0
C843 C 0.99062 0.61579 0.61949 0.0
C844 C 0.00819 0.62184 0.59396 0.0
C845 C 0.97862 0.63823 0.63702 0.0
C846 C 0.01174 0.65035 0.58477 0.0
C847 C -0.00106 0.67276 0.6015 0.0
H848 H 0.37783 0.96812 0.73422 0.0
H849 H 0.39007 0.87914 0.71063 0.0
H850 H 0.43037 0.89205 0.67457 0.0
H851 H 0.45905 0.92871 0.64749 0.0
H852 H 0.44538 0.0181 0.66935 0.0
H853 H 0.40869 0.00489 0.70859 0.0
C854 C 0.38883 0.95165 0.72071 0.0
C855 C 0.38027 0.92284 0.72426 0.0
C856 C 0.41184 0.95926 0.69999 0.0
C857 C 0.39596 0.90152 0.70788 0.0
C858 C 0.41901 0.90888 0.68734 0.0
C859 C 0.44846 0.94537 0.66106 0.0
C860 C 0.45481 0.97439 0.65524 0.0
C861 C 0.42679 0.93771 0.68294 0.0
C862 C 0.44089 0.9956 0.67324 0.0
C863 C 0.41972 0.98808 0.69555 0.0
H864 H 0.07386 0.34647 0.63166 0.0
H865 H 0.9736 0.35836 0.63109 0.0
H866 H 0.97861 0.39648 0.59425 0.0
H867 H 0.01195 0.43029 0.56715 0.0
H868 H 0.11227 0.41898 0.56912 0.0
H869 H 0.10665 0.37642 0.59992 0.0
C870 C 0.05304 0.35713 0.62322 0.0
C871 C 0.02346 0.34991 0.63454 0.0
C872 C 0.05609 0.37924 0.60234 0.0
C873 C -0.00331 0.36362 0.62295 0.0
C874 C -0.00047 0.3855 0.60193 0.0
C875 C 0.03255 0.41825 0.57389 0.0
C876 C 0.06251 0.42815 0.56632 0.0
C877 C 0.02919 0.39409 0.5922 0.0
C878 C 0.08894 0.41207 0.57496 0.0
C879 C 0.08577 0.38776 0.59269 0.0
H880 H 0.71449 0.1431 0.69498 0.0
H881 H 0.72276 0.06363 0.74335 0.0
H882 H 0.7061 0.03702 0.69968 0.0
H883 H 0.68269 0.03675 0.65018 0.0
H884 H 0.66924 0.11639 0.60294 0.0
H885 H 0.69461 0.14238 0.64343 0.0
C886 C 0.71309 0.11991 0.69574 0.0
C887 C 0.72071 0.10534 0.7222 0.0
C888 C 0.70223 0.10476 0.67077 0.0
C889 C 0.71847 0.07533 0.72299 0.0
C890 C 0.70837 0.06009 0.6981 0.0
C891 C 0.6859 0.05971 0.64835 0.0
C892 C 0.67379 0.07459 0.62363 0.0
C893 C 0.69947 0.07463 0.67214 0.0
C894 C 0.67814 0.10439 0.62178 0.0
C895 C 0.6925 0.1193 0.64503 0.0
H896 H 0.06169 0.34276 0.38655 0.0
H897 H 0.96492 0.34149 0.35889 0.0
H898 H 0.95218 0.3786 0.39516 0.0
H899 H 0.96916 0.41445 0.43102 0.0
H900 H 0.06597 0.41756 0.45802 0.0
H901 H 0.07796 0.37644 0.426 0.0
C902 C 0.03775 0.35034 0.38875 0.0
C903 C 0.01438 0.33957 0.36975 0.0
C904 C 0.03063 0.37218 0.40932 0.0
C905 C 0.98345 0.34961 0.37294 0.0
C906 C 0.97611 0.37086 0.39368 0.0
C907 C 0.99289 0.40606 0.43012 0.0
C908 C 0.0168 0.41945 0.44642 0.0
C909 C -0.00035 0.38281 0.41138 0.0
C910 C 0.04725 0.40791 0.44538 0.0
C911 C 0.05411 0.38442 0.42703 0.0
H912 H 0.64177 0.12807 0.29911 0.0
H913 H 0.70117 0.05305 0.2924 0.0
H914 H 0.66909 0.02838 0.32887 0.0
H915 H 0.6289 0.03051 0.36743 0.0
H916 H 0.57017 0.10578 0.37532 0.0
H917 H 0.59685 0.12765 0.33321 0.0
C918 C 0.64742 0.10618 0.30528 0.0
C919 C 0.67419 0.09268 0.29347 0.0
C920 C 0.62912 0.09218 0.32663 0.0
C921 C 0.68093 0.06414 0.30141 0.0
C922 C 0.66261 0.04997 0.32232 0.0
C923 C 0.62148 0.05147 0.35963 0.0
C924 C 0.59812 0.0668 0.37504 0.0
C925 C 0.63734 0.06415 0.33582 0.0
C926 C 0.58852 0.09375 0.36425 0.0
C927 C 0.60382 0.10631 0.3402 0.0
H928 H 0.02688 0.71284 0.36552 0.0
H929 H 0.06585 0.65339 0.30162 0.0
H930 H 0.06599 0.61552 0.33894 0.0
H931 H 0.04698 0.59758 0.38698 0.0
H932 H 0.00499 0.6561 0.44962 0.0
H933 H 0.01413 0.69617 0.4157 0.0
C934 C 0.03614 0.69181 0.35996 0.0
C935 C 0.04585 0.68585 0.33071 0.0
C936 C 0.03537 0.66991 0.3813 0.0
C937 C 0.05782 0.65846 0.32388 0.0
C938 C 0.0579 0.63675 0.3452 0.0
C939 C 0.04129 0.61931 0.39367 0.0
C940 C 0.02604 0.62418 0.42082 0.0
C941 C 0.04565 0.64196 0.37363 0.0
C942 C 0.01708 0.65212 0.42882 0.0
C943 C 0.02216 0.67493 0.4094 0.0
H944 H 0.30414 1.00005 0.35919 0.0
H945 H 0.32272 0.9091 0.35983 0.0
H946 H 0.35911 0.91515 0.4015 0.0
H947 H 0.38971 0.94713 0.43371 0.0
H948 H 0.37006 0.03808 0.43327 0.0
H949 H 0.32931 0.03103 0.39609 0.0
C950 C 0.31605 0.98154 0.36858 0.0
C951 C 0.31139 0.95427 0.35612 0.0
C952 C 0.3366 0.98516 0.39258 0.0
C953 C 0.32625 0.93034 0.36892 0.0
C954 C 0.34703 0.93381 0.39268 0.0
C955 C 0.37614 0.96536 0.42588 0.0
C956 C 0.38341 0.99317 0.43584 0.0
C957 C 0.35298 0.96123 0.40416 0.0
C958 C 0.36518 0.01646 0.42588 0.0
C959 C 0.34202 0.0125 0.40439 0.0
H960 H 0.06839 0.17556 0.3612 0.0
H961 H 0.97606 0.20121 0.33197 0.0
H962 H 0.95333 0.16096 0.35852 0.0
H963 H 0.95907 0.1205 0.3922 0.0
H964 H 0.05091 0.0936 0.42094 0.0
H965 H 0.07442 0.13217 0.39231 0.0
C966 C 0.04333 0.17221 0.36045 0.0
C967 C 0.02396 0.19157 0.34477 0.0
C968 C 0.03029 0.1489 0.37581 0.0
C969 C 0.99155 0.18675 0.34387 0.0
C970 C 0.97848 0.16375 0.35912 0.0
C971 C 0.98431 0.1228 0.39215 0.0
C972 C 0.00315 0.10427 0.40941 0.0
C973 C -0.00243 0.14498 0.37549 0.0
C974 C 0.03575 0.10763 0.40853 0.0
C975 C 0.04922 0.12976 0.392 0.0
H976 H 0.77055 0.13009 0.37032 0.0
H977 H 0.82581 0.11673 0.29101 0.0
H978 H 0.86277 0.08728 0.3191 0.0
H979 H 0.8787 0.06425 0.36568 0.0
H980 H 0.82499 0.07822 0.44549 0.0
H981 H 0.78791 0.10858 0.41774 0.0
C982 C 0.7908 0.1209 0.35922 0.0
C983 C 0.79532 0.12553 0.32855 0.0
C984 C 0.81201 0.10395 0.37553 0.0
C985 C 0.82178 0.11359 0.31457 0.0
C986 C 0.84284 0.0966 0.33057 0.0
C987 C 0.85866 0.07376 0.37688 0.0
C988 C 0.85425 0.06901 0.40743 0.0
C989 C 0.83796 0.09136 0.36092 0.0
C990 C 0.82874 0.08182 0.42197 0.0
C991 C 0.80761 0.09906 0.4061 0.0
H992 H 0.03125 0.85623 0.33583 0.0
H993 H 0.93619 0.83624 0.3114 0.0
H994 H 0.91718 0.87755 0.33968 0.0
H995 H 0.92746 0.91907 0.37174 0.0
H996 H 0.02245 0.93812 0.39737 0.0
H997 H 0.04151 0.89748 0.36825 0.0
C998 C 0.00638 0.86097 0.33657 0.0
C999 C 0.98519 0.84321 0.32144 0.0
C1000 C 0.99557 0.88456 0.35315 0.0
C1001 C 0.95302 0.84955 0.32284 0.0
C1002 C 0.94211 0.87317 0.33901 0.0
C1003 C 0.95234 0.91436 0.37092 0.0
C1004 C 0.97347 0.93172 0.38661 0.0
C1005 C 0.96316 0.89077 0.35433 0.0
C1006 C 0.00563 0.92518 0.38546 0.0
C1007 C 0.01658 0.90192 0.36879 0.0
H1008 H 0.13763 0.96144 0.29748 0.0
H1009 H 0.19226 0.03768 0.3117 0.0
H1010 H 0.15001 0.05868 0.34104 0.0
H1011 H 0.10311 0.05081 0.37123 0.0
H1012 H 0.04973 0.97351 0.35874 0.0
H1013 H 0.08551 0.95793 0.31977 0.0
C1014 C 0.14 0.98295 0.30634 0.0
C1015 C 0.16845 0.99754 0.30326 0.0
C1016 C 0.11598 0.99459 0.32395 0.0
C1017 C 0.17086 0.02566 0.3143 0.0
C1018 C 0.14674 0.03769 0.33122 0.0
C1019 C 0.09879 0.03093 0.35946 0.0
C1020 C 0.07444 0.01291 0.36865 0.0
C1021 C 0.12 0.02164 0.3376 0.0
C1022 C 0.0688 0.9875 0.35268 0.0
C1023 C 0.08932 0.97848 0.33039 0.0
H1024 H 0.03161 0.84036 0.67487 0.0
H1025 H 0.93359 0.86176 0.66635 0.0
H1026 H 0.94662 0.90263 0.63489 0.0
H1027 H 0.98586 0.93215 0.60959 0.0
H1028 H 0.08381 0.91022 0.61797 0.0
H1029 H 0.0707 0.86962 0.6495 0.0
C1030 C 0.01308 0.85401 0.66624 0.0
C1031 C 0.98168 0.84803 0.67304 0.0
C1032 C 0.02069 0.87732 0.648 0.0
C1033 C 0.95797 0.86587 0.6615 0.0
C1034 C 0.96538 0.88924 0.64347 0.0
C1035 C 0.00435 0.91848 0.61828 0.0
C1036 C 0.03577 0.92426 0.61136 0.0
C1037 C -0.00333 0.89513 0.63651 0.0
C1038 C 0.05941 0.90627 0.62283 0.0
C1039 C 0.05196 0.88305 0.64095 0.0
H1040 H 0.27737 0.97122 0.6128 0.0
H1041 H 0.26435 0.04112 0.67462 0.0
H1042 H 0.22081 0.05947 0.64473 0.0
H1043 H 0.18156 0.05129 0.6055 0.0
H1044 H 0.19187 0.97849 0.54707 0.0
H1045 H 0.24164 0.966 0.57065 0.0
C1046 C 0.26543 0.99078 0.61948 0.0
C1047 C 0.27383 0.00453 0.64615 0.0
C1048 C 0.23974 1.00062 0.60278 0.0
C1049 C 0.25812 0.02991 0.65437 0.0
C1050 C 0.23318 0.0404 0.6373 0.0
C1051 C 0.19523 0.03322 0.59739 0.0
C1052 C 0.18312 0.01577 0.57466 0.0
C1053 C 0.22305 0.02533 0.61208 0.0
C1054 C 0.20076 0.99217 0.56459 0.0
C1055 C 0.22909 0.98492 0.5782 0.0
H1056 H 0.97844 0.19611 0.64684 0.0
H1057 H 0.07191 0.21362 0.67814 0.0
H1058 H 0.09219 0.17322 0.64939 0.0
H1059 H 0.08377 0.13382 0.61448 0.0
H1060 H 0.99058 0.11612 0.58293 0.0
H1061 H 0.96984 0.15566 0.61263 0.0
C1062 C 0.00322 0.19099 0.64753 0.0
C1063 C 0.02361 0.20794 0.66462 0.0
C1064 C 0.01482 0.16778 0.63078 0.0
C1065 C 0.05566 0.20098 0.66521 0.0
C1066 C 0.06732 0.1779 0.64871 0.0
C1067 C 0.05889 0.13853 0.61406 0.0
C1068 C 0.03877 0.12191 0.59636 0.0
C1069 C 0.04716 0.16132 0.63123 0.0
C1070 C 0.00663 0.12842 0.59623 0.0
C1071 C 0.99474 0.1511 0.61327 0.0
H1072 H 0.88458 0.08884 0.71963 0.0
H1073 H 0.83477 0.00944 0.70829 0.0
H1074 H 0.86971 0.99594 0.66751 0.0
H1075 H 0.91085 0.009 0.63197 0.0
H1076 H 0.9585 0.08975 0.64205 0.0
H1077 H 0.92799 0.10029 0.68656 0.0
C1078 C 0.88158 0.06838 0.70855 0.0
C1079 C 0.8569 0.05032 0.71679 0.0
C1080 C 0.90118 0.06112 0.68469 0.0
C1081 C 0.85346 0.02385 0.70224 0.0
C1082 C 0.87337 0.01615 0.67886 0.0
C1083 C 0.91485 0.02874 0.64411 0.0
C1084 C 0.93669 0.04868 0.63348 0.0
C1085 C 0.89676 0.03498 0.66938 0.0
C1086 C 0.9416 0.07414 0.64953 0.0
C1087 C 0.92417 0.08021 0.67501 0.0
H1088 H 0.34417 0.95797 0.1827 0.0
H1089 H 0.31705 0.04465 0.20528 0.0
H1090 H 0.35383 0.06321 0.1688 0.0
H1091 H 0.39283 0.05501 0.1301 0.0
H1092 H 0.41928 0.96855 0.10603 0.0
H1093 H 0.38367 0.94973 0.14369 0.0
C1094 C 0.34634 0.98092 0.17966 0.0
C1095 C 0.32785 0.99989 0.19667 0.0
C1096 C 0.36743 0.99149 0.15848 0.0
C1097 C 0.33089 0.02956 0.19242 0.0
C1098 C 0.35198 0.04022 0.1716 0.0
C1099 C 0.39102 0.03203 0.13317 0.0
C1100 C 0.40873 0.01322 0.11531 0.0
C1101 C 0.37027 0.02139 0.15449 0.0
C1102 C 0.40593 0.98351 0.11952 0.0
C1103 C 0.38553 0.97273 0.141 0.0
H1104 H 0.08265 0.33016 0.1788 0.0
H1105 H 0.98557 0.34942 0.197 0.0
H1106 H 0.98518 0.38526 0.15756 0.0
H1107 H 0.01388 0.41477 0.1217 0.0
H1108 H 0.11106 0.39571 0.10365 0.0
H1109 H 0.10971 0.356 0.13886 0.0
C1110 C 0.06128 0.34191 0.1739 0.0
C1111 C 0.03435 0.33736 0.19122 0.0
C1112 C 0.06126 0.36275 0.15133 0.0
C1113 C 0.00676 0.35258 0.18425 0.0
C1114 C 0.00651 0.3732 0.16172 0.0
C1115 C 0.03469 0.40174 0.12521 0.0
C1116 C 0.0627 0.40865 0.11052 0.0
C1117 C 0.03387 0.37905 0.14572 0.0
C1118 C 0.08928 0.39119 0.11496 0.0
C1119 C 0.08857 0.36847 0.13516 0.0
H1120 H 0.73442 0.04531 0.15716 0.0
H1121 H 0.69821 0.12941 0.13599 0.0
H1122 H 0.66598 0.10896 0.09646 0.0
H1123 H 0.64576 0.06667 0.06998 0.0
H1124 H 0.68026 0.9825 0.09371 0.0
H1125 H 0.71556 0.00357 0.13006 0.0
C1126 C 0.7199 0.05927 0.14358 0.0
C1127 C 0.71872 0.08882 0.14949 0.0
C1128 C 0.70091 0.04731 0.12146 0.0
C1129 C 0.69953 0.10656 0.13187 0.0
C1130 C 0.68105 0.09487 0.10929 0.0
C1131 C 0.66114 0.05297 0.08298 0.0
C1132 C 0.66022 0.02305 0.07923 0.0
C1133 C 0.68113 0.06519 0.10425 0.0
C1134 C 0.68029 0.00558 0.09628 0.0
C1135 C 0.70057 0.0176 0.11704 0.0
H1136 H -0.00027 0.68604 0.14609 0.0
H1137 H 0.9578 0.62636 0.20724 0.0
H1138 H 0.96145 0.5884 0.17001 0.0
H1139 H 0.98635 0.57027 0.12407 0.0
H1140 H 0.03019 0.62972 0.06423 0.0
H1141 H 0.01585 0.66966 0.09671 0.0
C1142 C 0.99074 0.66491 0.15107 0.0
C1143 C 0.97928 0.6589 0.17965 0.0
C1144 C 0.99359 0.643 0.12982 0.0
C1145 C 0.96721 0.63151 0.18555 0.0
C1146 C 0.9694 0.60969 0.1643 0.0
C1147 C 0.99136 0.59209 0.11756 0.0
C1148 C 0.00906 0.5972 0.09188 0.0
C1149 C 0.98391 0.61487 0.13688 0.0
C1150 C 0.01649 0.62545 0.08401 0.0
C1151 C 0.00849 0.64824 0.10264 0.0
H1152 H 0.34763 0.96612 0.85412 0.0
H1153 H 0.37593 0.8862 0.89466 0.0
H1154 H 0.40735 0.91222 0.93106 0.0
H1155 H 0.42776 0.95748 0.94997 0.0
H1156 H 0.4014 0.0371 0.90822 0.0
H1157 H 0.36802 0.01133 0.87357 0.0
C1158 C 0.36033 0.95438 0.87116 0.0
C1159 C 0.35936 0.92429 0.87176 0.0
C1160 C 0.37883 0.96939 0.89159 0.0
C1161 C 0.37624 0.90939 0.89376 0.0
C1162 C 0.39428 0.92423 0.91452 0.0
C1163 C 0.41502 0.96923 0.9334 0.0
C1164 C 0.4175 0.99915 0.93189 0.0
C1165 C 0.39603 0.95422 0.91338 0.0
C1166 C 0.40018 0.01399 0.91005 0.0
C1167 C 0.38098 0.9993 0.89018 0.0
H1168 H 0.98158 0.32654 0.8287 0.0
H1169 H 0.06876 0.36387 0.8005 0.0
H1170 H 0.06578 0.3985 0.84112 0.0
H1171 H 0.03591 0.42113 0.88168 0.0
H1172 H 0.94843 0.38399 0.90939 0.0
H1173 H 0.95434 0.34626 0.87228 0.0
C1174 C 0.00014 0.34201 0.83163 0.0
C1175 C 0.02512 0.34278 0.81129 0.0
C1176 C -0.00183 0.36208 0.85491 0.0
C1177 C 0.04912 0.36284 0.81567 0.0
C1178 C 0.04741 0.38276 0.83887 0.0
C1179 C 0.01832 0.40459 0.87987 0.0
C1180 C 0.99158 0.40568 0.89809 0.0
C1181 C 0.02165 0.38304 0.85817 0.0
C1182 C 0.96917 0.38388 0.89556 0.0
C1183 C 0.97246 0.36227 0.87424 0.0
H1184 H 0.69795 0.08043 0.85731 0.0
H1185 H 0.63592 0.15268 0.87094 0.0
H1186 H 0.60082 0.12273 0.90018 0.0
H1187 H 0.58728 0.0757 0.92047 0.0
H1188 H 0.64851 0.00342 0.90657 0.0
H1189 H 0.68418 0.03345 0.87802 0.0
C1190 C 0.6769 0.08969 0.8669 0.0
C1191 C 0.6696 0.11876 0.86206 0.0
C1192 C 0.65657 0.07226 0.88325 0.0
C1193 C 0.64205 0.13036 0.87433 0.0
C1194 C 0.62193 0.11324 0.89097 0.0
C1195 C 0.60855 0.06671 0.91167 0.0
C1196 C 0.61533 0.03761 0.91612 0.0
C1197 C 0.62889 0.08414 0.8954 0.0
C1198 C 0.64265 0.02585 0.90347 0.0
C1199 C 0.66316 0.04303 0.88729 0.0
H1200 H 0.02881 0.6647 0.83603 0.0
H1201 H 0.9419 0.70498 0.86265 0.0
H1202 H 0.93656 0.67059 0.90309 0.0
H1203 H 0.95226 0.62506 0.92568 0.0
H1204 H 0.03793 0.58356 0.8983 0.0
H1205 H 0.04842 0.62271 0.86368 0.0
C1206 C 0.009 0.66633 0.85102 0.0
C1207 C 0.98544 0.68702 0.84588 0.0
C1208 C 0.0057 0.64607 0.87386 0.0
C1209 C 0.96017 0.68906 0.8658 0.0
C1210 C 0.95701 0.66932 0.88888 0.0
C1211 C 0.97348 0.62478 0.91242 0.0
C1212 C 0.99406 0.60117 0.91406 0.0
C1213 C 0.97893 0.64706 0.89227 0.0
C1214 C 0.02174 0.60139 0.89732 0.0
C1215 C 0.02758 0.62371 0.87738 0.0
H1216 H 0.19717 0.38679 0.06874 0.0
H1217 H 0.14628 0.3167 0.02952 0.0
H1218 H 0.10937 0.35068 0.00701 0.0
H1219 H 0.09519 0.40049 0.99415 0.0
H1220 H 0.1496 0.46988 0.03037 0.0
H1221 H 0.18135 0.43597 0.05849 0.0
C1222 C 0.17775 0.37883 0.05566 0.0
C1223 C 0.17469 0.34927 0.05056 0.0
C1224 C 0.15742 0.39843 0.04196 0.0
C1225 C 0.14929 0.33939 0.03362 0.0
C1226 C 0.12828 0.35881 0.02062 0.0
C1227 C 0.11389 0.40816 0.00833 0.0
C1228 C 0.12 0.4377 0.01015 0.0
C1229 C 0.13274 0.38842 0.02386 0.0
C1230 C 0.14423 0.44731 0.02871 0.0
C1231 C 0.16251 0.42792 0.04474 0.0
H1232 H 0.15302 0.68304 0.05532 0.0
H1233 H 0.1267 0.72842 0.97535 0.0
H1234 H 0.09418 0.68826 0.96004 0.0
H1235 H 0.0783 0.63833 0.96652 0.0
H1236 H 0.10484 0.59305 0.0461 0.0
H1237 H 0.13199 0.63506 0.06451 0.0
C1238 C 0.1398 0.68438 0.03476 0.0
C1239 C 0.14273 0.70856 0.0163 0.0
C1240 C 0.1215 0.66103 0.02583 0.0
C1241 C 0.1251 0.71001 0.9899 0.0
C1242 C 0.1066 0.68697 0.98104 0.0
C1243 C 0.08977 0.63762 0.98805 0.0
C1244 C 0.09015 0.612 0.00463 0.0
C1245 C 0.10546 0.66203 -0.00164 0.0
C1246 C 0.10462 0.61196 0.03265 0.0
C1247 C 0.12016 0.63615 0.04319 0.0
H1248 H 0.32741 0.20747 0.96744 0.0
H1249 H 0.29935 0.2006 0.05942 0.0
H1250 H 0.34241 0.16729 0.06889 0.0
H1251 H 0.38699 0.13935 0.051 0.0
H1252 H 0.41499 0.14516 0.95889 0.0
H1253 H 0.3733 0.18022 0.94972 0.0
C1254 C 0.3306 0.19853 0.9895 0.0
C1255 C 0.31003 0.2063 0.01262 0.0
C1256 C 0.35558 0.17952 0.99488 0.0
C1257 C 0.31472 0.19483 0.04118 0.0
C1258 C 0.33942 0.17588 0.04667 0.0
C1259 C 0.38433 0.14853 0.02897 0.0
C1260 C 0.40407 0.13958 0.00568 0.0
C1261 C 0.35995 0.16809 0.0237 0.0
C1262 C 0.40008 0.15164 0.97724 0.0
C1263 C 0.37614 0.17155 0.97193 0.0
H1264 H 0.93239 0.32461 0.96813 0.0
H1265 H 0.90579 0.3039 0.05822 0.0
H1266 H 0.94099 0.34042 0.07722 0.0
H1267 H 0.97179 0.38349 0.06784 0.0
H1268 H -0.00238 0.40518 0.9779 0.0
H1269 H 0.9709 0.36262 0.9594 0.0
C1270 C 0.9348 0.32762 0.99195 0.0
C1271 C 0.91582 0.31202 0.01166 0.0
C1272 C 0.95466 0.34911 0.00277 0.0
C1273 C 0.91969 0.31588 0.04248 0.0
C1274 C 0.93975 0.33688 0.05341 0.0
C1275 C 0.97205 0.37865 0.04422 0.0
C1276 C 0.98576 0.39796 0.02416 0.0
C1277 C 0.95615 0.35449 0.0337 0.0
C1278 C 0.98667 0.39098 0.99375 0.0
C1279 C 0.97126 0.36671 0.98312 0.0
H1280 H 0.71829 0.81729 0.96355 0.0
H1281 H 0.69795 0.83516 0.87133 0.0
H1282 H 0.65932 0.87136 0.88622 0.0
H1283 H 0.63222 0.89862 0.92554 0.0
H1284 H 0.65298 0.88028 0.01769 0.0
H1285 H 0.69016 0.84323 0.00262 0.0
C1286 C 0.70559 0.82922 0.94667 0.0
C1287 C 0.71124 0.82375 0.91638 0.0
C1288 C 0.68324 0.84972 0.95537 0.0
C1289 C 0.69421 0.83911 0.89481 0.0
C1290 C 0.67203 0.85973 0.90331 0.0
C1291 C 0.64459 0.8863 0.94234 0.0
C1292 C 0.63986 0.89235 0.97271 0.0
C1293 C 0.66637 0.86523 0.93354 0.0
C1294 C 0.65622 0.8762 0.99415 0.0
C1295 C 0.67762 0.85506 0.98558 0.0
H1296 H 0.8572 0.66562 0.94838 0.0
H1297 H 0.8881 0.7176 0.02212 0.0
H1298 H 0.92035 0.67788 0.04035 0.0
H1299 H 0.93602 0.62719 0.03775 0.0
H1300 H 0.90183 0.57462 0.96612 0.0
H1301 H 0.87499 0.61575 0.94441 0.0
C1302 C 0.87135 0.66847 0.96819 0.0
C1303 C 0.87004 0.69452 0.98397 0.0
C1304 C 0.88914 0.64531 0.979 0.0
C1305 C 0.88852 0.69774 0.00962 0.0
C1306 C 0.90689 0.675 0.02013 0.0
C1307 C 0.92284 0.62474 0.01728 0.0
C1308 C 0.92121 0.59773 0.00337 0.0
C1309 C 0.90671 0.64846 0.00543 0.0
C1310 C 0.90408 0.59508 0.9769 0.0
C1311 C 0.88845 0.61865 0.96463 0.0
H1312 H 0.29616 0.85915 0.01262 0.0
H1313 H 0.31116 0.84779 0.10688 0.0
H1314 H 0.35488 0.88107 0.10531 0.0
H1315 H 0.39131 0.91044 0.07661 0.0
H1316 H 0.37693 0.92129 0.98215 0.0
H1317 H 0.33041 0.89142 0.9845 0.0
C1318 C 0.30877 0.86416 0.03289 0.0
C1319 C 0.30051 0.85076 0.05977 0.0
C1320 C 0.33416 0.88312 0.03179 0.0
C1321 C 0.31708 0.85764 0.08584 0.0
C1322 C 0.34215 0.87665 0.08496 0.0
C1323 C 0.3779 0.9065 0.05653 0.0
C1324 C 0.38796 0.91783 0.02917 0.0
C1325 C 0.3513 0.88905 0.05796 0.0
C1326 C 0.36998 0.91269 0.00349 0.0
C1327 C 0.34335 0.89554 0.00479 0.0
H1328 H 0.74209 0.18136 0.96391 0.0
H1329 H 0.75087 0.18665 0.0595 0.0
H1330 H 0.70967 0.15133 0.06534 0.0
H1331 H 0.66801 0.12254 0.04368 0.0
H1332 H 0.65816 0.11708 0.94832 0.0
H1333 H 0.70325 0.14848 0.942 0.0
C1334 C 0.73521 0.17457 0.98601 0.0
C1335 C 0.74932 0.18697 0.01123 0.0
C1336 C 0.71124 0.15431 0.98926 0.0
C1337 C 0.74029 0.1777 0.03969 0.0
C1338 C 0.71667 0.15749 0.04308 0.0
C1339 C 0.67589 0.12793 0.02148 0.0
C1340 C 0.65938 0.11783 0.99654 0.0
C1341 C 0.7015 0.14621 0.01807 0.0
C1342 C 0.67029 0.12467 0.96792 0.0
C1343 C 0.69599 0.14277 0.96431 0.0
H1344 H 0.58839 0.71544 0.86542 0.0
H1345 H 0.51257 0.70028 0.80405 0.0
H1346 H 0.48964 0.66603 0.83867 0.0
H1347 H 0.4894 0.64262 0.8876 0.0
H1348 H 0.56352 0.66019 0.9501 0.0
H1349 H 0.58897 0.69098 0.91374 0.0
C1350 C 0.56705 0.70439 0.85944 0.0
C1351 C 0.5522 0.71045 0.83218 0.0
C1352 C 0.5536 0.68522 0.87974 0.0
C1353 C 0.52444 0.69608 0.82491 0.0
C1354 C 0.51127 0.67652 0.84472 0.0
C1355 C 0.51123 0.65303 0.89321 0.0
C1356 C 0.52461 0.64896 0.92154 0.0
C1357 C 0.52536 0.67129 0.87241 0.0
C1358 C 0.55285 0.66273 0.92841 0.0
C1359 C 0.56736 0.68046 0.90766 0.0
H1360 H 0.36589 0.59171 0.85226 0.0
H1361 H 0.39835 0.52333 0.79503 0.0
H1362 H 0.43075 0.50437 0.83533 0.0
H1363 H 0.44545 0.50433 0.88827 0.0
H1364 H 0.41184 0.57225 0.94549 0.0
H1365 H 0.38455 0.59432 0.90369 0.0
C1366 C 0.38036 0.57287 0.84842 0.0
C1367 C 0.37931 0.55875 0.82076 0.0
C1368 C 0.39854 0.56181 0.87181 0.0
C1369 C 0.39852 0.53456 0.81614 0.0
C1370 C 0.41697 0.52359 0.83923 0.0
C1371 C 0.4324 0.5241 0.89154 0.0
C1372 C 0.4304 0.53641 0.92009 0.0
C1373 C 0.41643 0.53656 0.86741 0.0
C1374 C 0.41369 0.56223 0.92383 0.0
C1375 C 0.39797 0.57485 0.89992 0.0
H1376 H 0.50653 0.33897 0.82785 0.0
H1377 H 0.41258 0.34495 0.86258 0.0
H1378 H 0.42907 0.38188 0.89766 0.0
H1379 H 0.47108 0.40961 0.92126 0.0
H1380 H 0.56518 0.40292 0.88691 0.0
H1381 H 0.54762 0.3694 0.84885 0.0
C1382 C 0.48955 0.34858 0.84283 0.0
C1383 C 0.45841 0.33898 0.84269 0.0
C1384 C 0.49927 0.36958 0.86322 0.0
C1385 C 0.43673 0.35181 0.86223 0.0
C1386 C 0.44616 0.3729 0.88239 0.0
C1387 C 0.4877 0.40106 0.90527 0.0
C1388 C 0.51949 0.40853 0.90725 0.0
C1389 C 0.47752 0.38151 0.88353 0.0
C1390 C 0.54064 0.39735 0.88617 0.0
C1391 C 0.53062 0.37813 0.86435 0.0
H1392 H 0.66734 0.44186 0.85109 0.0
H1393 H 0.61652 0.49365 0.78764 0.0
H1394 H 0.58252 0.51162 0.82745 0.0
H1395 H 0.57215 0.51733 0.88107 0.0
H1396 H 0.6283 0.46986 0.9441 0.0
H1397 H 0.65495 0.44515 0.90373 0.0
C1398 C 0.64841 0.45662 0.84578 0.0
C1399 C 0.64458 0.46658 0.81651 0.0
C1400 C 0.63006 0.46781 0.86885 0.0
C1401 C 0.62003 0.4858 0.81008 0.0
C1402 C 0.60071 0.49617 0.83284 0.0
C1403 C 0.58989 0.50127 0.88595 0.0
C1404 C 0.59799 0.49524 0.91566 0.0
C1405 C 0.60629 0.48812 0.86247 0.0
C1406 C 0.62117 0.47452 0.92155 0.0
C1407 C 0.63667 0.46055 0.89842 0.0
H1408 H 0.45882 0.37072 0.17075 0.0
H1409 H 0.55212 0.3477 0.1996 0.0
H1410 H 0.57419 0.38246 0.16537 0.0
H1411 H 0.56755 0.4166 0.12507 0.0
H1412 H 0.47498 0.44097 0.09595 0.0
H1413 H 0.45205 0.40857 0.13259 0.0
C1414 C 0.48396 0.3735 0.16973 0.0
C1415 C 0.50378 0.35637 0.18756 0.0
C1416 C 0.49664 0.39357 0.14981 0.0
C1417 C 0.53629 0.36042 0.18609 0.0
C1418 C 0.54898 0.38029 0.16646 0.0
C1419 C 0.5423 0.41504 0.12673 0.0
C1420 C 0.523 0.43063 0.10708 0.0
C1421 C 0.52943 0.39654 0.14787 0.0
C1422 C 0.49039 0.42871 0.11017 0.0
C1423 C 0.47728 0.41023 0.13124 0.0
H1424 H 0.68729 0.471 0.17124 0.0
H1425 H 0.64599 0.53973 0.22272 0.0
H1426 H 0.608 0.54861 0.18326 0.0
H1427 H 0.59167 0.54156 0.13163 0.0
H1428 H 0.6339 0.47434 0.07916 0.0
H1429 H 0.66596 0.45972 0.1217 0.0
C1430 C 0.66962 0.48757 0.1741 0.0
C1431 C 0.66993 0.50506 0.19968 0.0
C1432 C 0.64817 0.49296 0.15104 0.0
C1433 C 0.64659 0.52619 0.20314 0.0
C1434 C 0.62489 0.53136 0.18053 0.0
C1435 C 0.60755 0.52339 0.12964 0.0
C1436 C 0.61071 0.50918 0.10219 0.0
C1437 C 0.62629 0.51563 0.15396 0.0
C1438 C 0.63095 0.48546 0.10005 0.0
C1439 C 0.64949 0.47732 0.12433 0.0
H1440 H 0.55514 0.66958 0.18595 0.0
H1441 H 0.63909 0.67772 0.13353 0.0
H1442 H 0.61787 0.64478 0.09632 0.0
H1443 H 0.57304 0.61706 0.07649 0.0
H1444 H 0.48885 0.61126 0.12902 0.0
H1445 H 0.51267 0.63951 0.16834 0.0
C1446 C 0.569 0.66395 0.16657 0.0
C1447 C 0.59853 0.67634 0.16245 0.0
C1448 C 0.55649 0.64543 0.14511 0.0
C1449 C 0.61621 0.66859 0.13723 0.0
C1450 C 0.60405 0.6498 0.11588 0.0
C1451 C 0.56021 0.62164 0.09674 0.0
C1452 C 0.52912 0.61239 0.09965 0.0
C1453 C 0.57388 0.63856 0.11924 0.0
C1454 C 0.51268 0.61851 0.12603 0.0
C1455 C 0.52626 0.63466 0.14859 0.0
H1456 H 0.38318 0.60523 0.17524 0.0
H1457 H 0.40507 0.5339 0.23286 0.0
H1458 H 0.4377 0.51255 0.19388 0.0
H1459 H 0.4538 0.51107 0.14137 0.0
H1460 H 0.42647 0.58 0.08312 0.0
H1461 H 0.40256 0.60555 0.12431 0.0
C1462 C 0.39561 0.58532 0.17961 0.0
C1463 C 0.3914 0.57103 0.20683 0.0
C1464 C 0.41312 0.57259 0.15675 0.0
C1465 C 0.40773 0.54525 0.21202 0.0
C1466 C 0.42623 0.53294 0.18967 0.0
C1467 C 0.44294 0.53185 0.13772 0.0
C1468 C 0.44221 0.54374 0.10891 0.0
C1469 C 0.42806 0.54588 0.16156 0.0
C1470 C 0.42802 0.57062 0.10482 0.0
C1471 C 0.41402 0.58514 0.12849 0.0
H1472 H 0.82361 0.56621 0.70723 0.0
H1473 H 0.80781 0.47523 0.69911 0.0
H1474 H 0.85661 0.46965 0.67176 0.0
H1475 H 0.90169 0.49068 0.64742 0.0
H1476 H 0.91644 0.582 0.65214 0.0
H1477 H 0.87069 0.58717 0.68436 0.0
C1478 C 0.8309 0.54516 0.69953 0.0
C1479 C 0.81188 0.52123 0.70496 0.0
C1480 C 0.85897 0.54209 0.68348 0.0
C1481 C 0.82177 0.49408 0.69498 0.0
C1482 C 0.84978 0.49082 0.67944 0.0
C1483 C 0.89533 0.51173 0.65584 0.0
C1484 C 0.91261 0.53591 0.6473 0.0
C1485 C 0.86833 0.5147 0.67325 0.0
C1486 C 0.90378 0.56296 0.65847 0.0
C1487 C 0.87738 0.56598 0.67666 0.0
H1488 H 0.57995 0.84506 0.68234 0.0
H1489 H 0.48218 0.85199 0.65901 0.0
H1490 H 0.49411 0.89018 0.62375 0.0
H1491 H 0.53158 0.92456 0.60316 0.0
H1492 H 0.62881 0.91913 0.62879 0.0
H1493 H 0.61778 0.87732 0.65943 0.0
C1494 C 0.56127 0.85461 0.66927 0.0
C1495 C 0.5302 0.84575 0.67347 0.0
C1496 C 0.56814 0.8771 0.64969 0.0
C1497 C 0.5063 0.85846 0.65633 0.0
C1498 C 0.51307 0.88041 0.63626 0.0
C1499 C 0.5504 0.91413 0.61527 0.0
C1500 C 0.5809 0.92522 0.61396 0.0
C1501 C 0.54379 0.8904 0.63334 0.0
C1502 C 0.60506 0.91124 0.62961 0.0
C1503 C 0.59878 0.88731 0.64715 0.0
H1504 H 0.24467 0.58584 0.66944 0.0
H1505 H 0.26608 0.49557 0.6619 0.0
H1506 H 0.23131 0.49187 0.61902 0.0
H1507 H 0.18943 0.51264 0.5886 0.0
H1508 H 0.16592 0.60239 0.59781 0.0
H1509 H 0.20725 0.60795 0.6348 0.0
C1510 C 0.24225 0.56547 0.65805 0.0
C1511 C 0.2576 0.54093 0.66914 0.0
C1512 C 0.22154 0.56331 0.63391 0.0
C1513 C 0.2543 0.51474 0.65402 0.0
C1514 C 0.23432 0.51257 0.62955 0.0
C1515 C 0.19365 0.53356 0.59827 0.0
C1516 C 0.17415 0.55692 0.59083 0.0
C1517 C 0.21694 0.53647 0.62005 0.0
C1518 C 0.18025 0.58392 0.60342 0.0
C1519 C 0.20386 0.58712 0.62464 0.0
H1520 H 0.46066 0.17808 0.65187 0.0
H1521 H 0.42681 0.11064 0.70869 0.0
H1522 H 0.45165 0.0747 0.67672 0.0
H1523 H 0.48912 0.06296 0.63629 0.0
H1524 H 0.52464 0.13129 0.58172 0.0
H1525 H 0.49288 0.16612 0.6088 0.0
C1526 C 0.45827 0.15551 0.65707 0.0
C1527 C 0.4423 0.14719 0.68293 0.0
C1528 C 0.47318 0.13501 0.63901 0.0
C1529 C 0.43923 0.11776 0.68908 0.0
C1530 C 0.45351 0.09713 0.67083 0.0
C1531 C 0.48916 0.08535 0.62991 0.0
C1532 C 0.50923 0.09458 0.60716 0.0
C1533 C 0.47143 0.10555 0.64625 0.0
C1534 C 0.50953 0.12374 0.59935 0.0
C1535 C 0.49143 0.1437 0.61485 0.0
H1536 H 0.7998 0.53518 0.35686 0.0
H1537 H 0.8037 0.44369 0.37062 0.0
H1538 H 0.84134 0.45014 0.4109 0.0
H1539 H 0.87819 0.48096 0.43711 0.0
H1540 H 0.87692 0.57225 0.42119 0.0
H1541 H 0.83281 0.56667 0.38716 0.0
C1542 C 0.80837 0.51669 0.36908 0.0
C1543 C 0.79925 0.48897 0.36052 0.0
C1544 C 0.83074 0.52049 0.3916 0.0
C1545 C 0.81056 0.46524 0.37659 0.0
C1546 C 0.83217 0.46891 0.39957 0.0
C1547 C 0.86801 0.49977 0.42661 0.0
C1548 C 0.88127 0.52694 0.43132 0.0
C1549 C 0.84326 0.49633 0.40647 0.0
C1550 C 0.86747 0.55103 0.41771 0.0
C1551 C 0.84228 0.54785 0.39818 0.0
H1552 H 0.6218 0.89355 0.33857 0.0
H1553 H 0.56081 0.8235 0.36084 0.0
H1554 H 0.53361 0.85384 0.39707 0.0
H1555 H 0.52407 0.90162 0.41897 0.0
H1556 H 0.5846 0.97165 0.39526 0.0
H1557 H 0.61499 0.93992 0.36316 0.0
C1558 C 0.60279 0.88474 0.35156 0.0
C1559 C 0.59316 0.85635 0.34667 0.0
C1560 C 0.58689 0.90244 0.3719 0.0
C1561 C 0.56864 0.84531 0.36397 0.0
C1562 C 0.55296 0.8627 0.38462 0.0
C1563 C 0.54401 0.9099 0.40691 0.0
C1564 C 0.55171 0.93911 0.40924 0.0
C1565 C 0.56134 0.89153 0.38818 0.0
C1566 C 0.57784 0.94938 0.39364 0.0
C1567 C 0.59533 0.93122 0.3753 0.0
H1568 H 0.21354 0.58236 0.28926 0.0
H1569 H 0.18467 0.66908 0.30918 0.0
H1570 H 0.14373 0.65118 0.34214 0.0
H1571 H 0.11908 0.61107 0.3681 0.0
H1572 H 0.14759 0.52428 0.34752 0.0
H1573 H 0.18546 0.54212 0.31162 0.0
C1574 C 0.19829 0.59735 0.30082 0.0
C1575 C 0.20247 0.627 0.29721 0.0
C1576 C 0.17469 0.58692 0.3195 0.0
C1577 C 0.18211 0.64615 0.31182 0.0
C1578 C 0.15869 0.63594 0.33063 0.0
C1579 C 0.13309 0.59597 0.35537 0.0
C1580 C 0.13058 0.56635 0.36075 0.0
C1581 C 0.15511 0.60637 0.33498 0.0
C1582 C 0.14904 0.54718 0.34398 0.0
C1583 C 0.17088 0.55737 0.32355 0.0
H1584 H 0.45258 0.20797 0.39317 0.0
H1585 H 0.54276 0.19077 0.35361 0.0
H1586 H 0.55245 0.15285 0.38992 0.0
H1587 H 0.53132 0.1192 0.42738 0.0
H1588 H 0.4401 0.13597 0.46495 0.0
H1589 H 0.43495 0.17921 0.43514 0.0
C1590 C 0.47458 0.19624 0.39272 0.0
C1591 C 0.49656 0.20184 0.37028 0.0
C1592 C 0.47962 0.17388 0.41304 0.0
C1593 C 0.52517 0.18669 0.37039 0.0
C1594 C 0.53067 0.16479 0.39103 0.0
C1595 C 0.51069 0.13269 0.42948 0.0
C1596 C 0.48587 0.12405 0.44785 0.0
C1597 C 0.50748 0.15736 0.41165 0.0
C1598 C 0.45931 0.14185 0.45052 0.0
C1599 C 0.45629 0.16661 0.43346 0.0
H1600 H 0.63725 0.8271 0.4566 0.0
H1601 H 0.73134 0.84449 0.48556 0.0
H1602 H 0.71934 0.89556 0.48837 0.0
H1603 H 0.68218 0.93551 0.48185 0.0
H1604 H 0.58668 0.91775 0.45729 0.0
H1605 H 0.59895 0.86674 0.4537 0.0
C1606 C 0.65511 0.84216 0.46342 0.0
C1607 C 0.68558 0.83222 0.46921 0.0
C1608 C 0.64769 0.87145 0.4659 0.0
C1609 C 0.70832 0.85173 0.47896 0.0
C1610 C 0.70125 0.88094 0.48117 0.0
C1611 C 0.66399 0.9205 0.47585 0.0
C1612 C 0.63368 0.93058 0.46914 0.0
C1613 C 0.6711 0.89108 0.47438 0.0
C1614 C 0.61035 0.9107 0.46184 0.0
C1615 C 0.61731 0.88146 0.45996 0.0
H1616 H 0.71463 0.17414 0.52893 0.0
H1617 H 0.66219 0.2368 0.47842 0.0
H1618 H 0.61508 0.20782 0.48321 0.0
H1619 H 0.59132 0.16139 0.49481 0.0
H1620 H 0.64618 0.09648 0.53896 0.0
H1621 H 0.68938 0.12986 0.5448 0.0
C1622 C 0.69277 0.1818 0.51947 0.0
C1623 C 0.69206 0.20741 0.50295 0.0
C1624 C 0.6661 0.16456 0.52141 0.0
C1625 C 0.66347 0.21702 0.49096 0.0
C1626 C 0.63654 0.20042 0.49364 0.0
C1627 C 0.61243 0.15491 0.5065 0.0
C1628 C 0.61519 0.12679 0.51752 0.0
C1629 C 0.63792 0.17365 0.50779 0.0
C1630 C 0.64281 0.11842 0.53204 0.0
C1631 C 0.66785 0.13733 0.53455 0.0
H1632 H 0.86846 0.68746 0.44704 0.0
H1633 H 0.84731 0.71993 0.53481 0.0
H1634 H 0.87852 0.68162 0.55708 0.0
H1635 H 0.91223 0.6395 0.55179 0.0
H1636 H 0.93163 0.6054 0.4645 0.0
H1637 H 0.90095 0.6438 0.4419 0.0
C1638 C 0.87064 0.68612 0.47104 0.0
C1639 C 0.85562 0.70661 0.48921 0.0
C1640 C 0.88848 0.66385 0.48378 0.0
C1641 C 0.85854 0.70444 0.52028 0.0
C1642 C 0.87646 0.68257 0.53306 0.0
C1643 C 0.90982 0.64035 0.52778 0.0
C1644 C 0.92483 0.61962 0.50985 0.0
C1645 C 0.8916 0.66224 0.51502 0.0
C1646 C 0.92106 0.62116 0.47886 0.0
C1647 C 0.90325 0.64313 0.4659 0.0
H1648 H 0.37504 0.8181 0.52728 0.0
H1649 H 0.31667 0.87229 0.47225 0.0
H1650 H 0.35717 0.90877 0.47157 0.0
H1651 H 0.40635 0.92765 0.49155 0.0
H1652 H 0.46434 0.87379 0.54728 0.0
H1653 H 0.42706 0.83481 0.5423 0.0
C1654 C 0.37131 0.83771 0.5148 0.0
C1655 C 0.34259 0.84259 0.50032 0.0
C1656 C 0.39458 0.85883 0.51478 0.0
C1657 C 0.33837 0.86804 0.48395 0.0
C1658 C 0.36153 0.88899 0.48356 0.0
C1659 C 0.41111 0.90724 0.50222 0.0
C1660 C 0.43786 0.90387 0.52016 0.0
C1661 C 0.3893 0.88499 0.49967 0.0
C1662 C 0.44382 0.87712 0.53351 0.0
C1663 C 0.42241 0.8548 0.53081 0.0
H1664 H 0.18004 0.33746 0.46739 0.0
H1665 H 0.19386 0.35938 0.55978 0.0
H1666 H 0.1672 0.40524 0.55198 0.0
H1667 H 0.1414 0.43974 0.51852 0.0
H1668 H 0.12767 0.41751 0.42615 0.0
H1669 H 0.15249 0.37102 0.43451 0.0
C1670 C 0.17718 0.35223 0.48586 0.0
C1671 C 0.18916 0.34508 0.51406 0.0
C1672 C 0.16174 0.3785 0.48126 0.0
C1673 C 0.18496 0.36438 0.5378 0.0
C1674 C 0.16968 0.39061 0.53337 0.0
C1675 C 0.14369 0.42469 0.50024 0.0
C1676 C 0.13289 0.43224 0.4717 0.0
C1677 C 0.15818 0.39799 0.50514 0.0
C1678 C 0.13597 0.41238 0.4483 0.0
C1679 C 0.15018 0.38576 0.45304 0.0
H1680 H 0.37355 0.17778 0.53818 0.0
H1681 H 0.32503 0.13336 0.46788 0.0
H1682 H 0.36199 0.0933 0.47167 0.0
H1683 H 0.40416 0.06837 0.49949 0.0
H1684 H 0.45026 0.11268 0.5712 0.0
H1685 H 0.41822 0.15509 0.56245 0.0
C1686 C 0.3713 0.15958 0.52331 0.0
C1687 C 0.34628 0.15844 0.5031 0.0
C1688 C 0.39203 0.13633 0.52617 0.0
C1689 C 0.34393 0.13472 0.48387 0.0
C1690 C 0.36497 0.1117 0.48611 0.0
C1691 C 0.40753 0.08753 0.51271 0.0
C1692 C 0.42954 0.08741 0.53593 0.0
C1693 C 0.38849 0.11184 0.50789 0.0
C1694 C 0.4334 0.11223 0.55325 0.0
C1695 C 0.41509 0.13653 0.54826 0.0
H1696 H 0.87556 0.33768 0.5053 0.0
H1697 H 0.86713 0.37572 0.4182 0.0
H1698 H 0.89549 0.41799 0.43542 0.0
H1699 H 0.92004 0.4451 0.47611 0.0
H1700 H 0.92993 0.40601 0.56264 0.0
H1701 H 0.90392 0.36299 0.54464 0.0
C1702 C 0.87999 0.3552 0.49008 0.0
C1703 C 0.86891 0.3538 0.46068 0.0
C1704 C 0.89658 0.37919 0.50001 0.0
C1705 C 0.87532 0.37639 0.441 0.0
C1706 C 0.89148 0.40056 0.45084 0.0
C1707 C 0.9167 0.42708 0.49095 0.0
C1708 C 0.92661 0.42885 0.52075 0.0
C1709 C 0.90182 0.40234 0.48042 0.0
C1710 C 0.9225 0.4052 0.53962 0.0
C1711 C 0.90749 0.38064 0.52939 0.0
H1712 H 0.17584 0.69897 0.56905 0.0
H1713 H 0.21798 0.71287 0.483 0.0
H1714 H 0.18785 0.67353 0.4622 0.0
H1715 H 0.14765 0.63726 0.46753 0.0
H1716 H 0.10423 0.62349 0.55277 0.0
H1717 H 0.13697 0.66048 0.57491 0.0
C1718 C 0.17869 0.69318 0.54583 0.0
C1719 C 0.19904 0.70899 0.52758 0.0
C1720 C 0.16096 0.67068 0.53384 0.0
C1721 C 0.20242 0.70119 0.49754 0.0
C1722 C 0.18514 0.67872 0.48558 0.0
C1723 C 0.14526 0.64225 0.491 0.0
C1724 C 0.12325 0.62757 0.50846 0.0
C1725 C 0.16397 0.6637 0.50339 0.0
C1726 C 0.12091 0.63421 0.53884 0.0
C1727 C 0.13962 0.65552 0.55148 0.0
loop_
_geom_bond_atom_site_label_1
_geom_bond_atom_site_label_2
_geom_bond_distance
_geom_bond_site_symmetry_2
_ccdc_geom_bond_type
O0 Cd1 2.300 . S
O0 C7 1.275 . S
Cd1 O0 2.300 . S
Cd1 O9 2.381 . S
Cd1 O10 2.378 . S
O2 Cd3 2.385 1_455 S
O2 C7 1.255 . S
Cd3 O2 2.385 1_655 S
Cd3 O4 2.317 1_655 S
O4 Cd3 2.317 1_455 S
O4 C5 1.232 . S
C5 O4 1.232 . S
C5 O6 1.218 . S
O6 C5 1.218 . S
C7 O0 1.275 . S
C7 O2 1.255 . S
C8 O9 1.258 . S
C8 O10 1.256 . S
O9 Cd1 2.381 . S
O9 C8 1.258 . S
O10 Cd1 2.378 . S
O10 C8 1.256 . S
O11 Cd12 2.300 . S
O11 C18 1.275 . S
Cd12 O11 2.300 . S
Cd12 O20 2.381 . S
Cd12 O21 2.378 . S
O13 Cd14 2.385 . S
O13 C18 1.255 . S
Cd14 O13 2.385 . S
Cd14 O15 2.317 . S
O15 Cd14 2.317 . S
O15 C16 1.232 . S
C16 O15 1.232 . S
C16 O17 1.218 . S
O17 C16 1.218 . S
C18 O11 1.275 . S
C18 O13 1.255 . S
C19 O20 1.258 . S
C19 O21 1.256 . S
O20 Cd12 2.381 . S
O20 C19 1.258 . S
O21 Cd12 2.378 . S
O21 C19 1.256 . S
O22 Cd23 2.300 . S
O22 C29 1.275 . S
Cd23 O22 2.300 . S
Cd23 O31 2.381 . S
Cd23 O32 2.378 . S
O24 Cd25 2.385 . S
O24 C29 1.255 . S
Cd25 O24 2.385 . S
Cd25 O26 2.317 . S
O26 Cd25 2.317 . S
O26 C27 1.232 . S
C27 O26 1.232 . S
C27 O28 1.218 . S
O28 C27 1.218 . S
C29 O22 1.275 . S
C29 O24 1.255 . S
C30 O31 1.258 . S
C30 O32 1.256 . S
O31 Cd23 2.381 . S
O31 C30 1.258 . S
O32 Cd23 2.378 . S
O32 C30 1.256 . S
O33 Cd34 2.300 1_545 S
O33 C40 1.287 . S
Cd34 O33 2.300 1_565 S
Cd34 O42 2.381 1_565 S
Cd34 O43 2.378 . S
O35 Cd36 2.385 . S
O35 C40 1.235 1_565 S
Cd36 O35 2.385 . S
Cd36 O37 2.317 . S
O37 Cd36 2.317 . S
O37 C38 1.232 . S
C38 O37 1.232 . S
C38 O39 1.218 . S
O39 C38 1.218 . S
C40 O33 1.287 . S
C40 O35 1.235 1_545 S
C41 O42 1.258 . S
C41 O43 1.256 1_545 S
O42 Cd34 2.381 1_545 S
O42 C41 1.258 . S
O43 Cd34 2.378 . S
O43 C41 1.256 1_565 S
O44 Cd45 2.300 1_455 S
O44 C51 1.275 1_455 S
Cd45 O44 2.300 1_655 S
Cd45 O53 2.381 1_655 S
Cd45 O54 2.378 . S
O46 Cd47 2.385 . S
O46 C51 1.255 . S
Cd47 O46 2.385 . S
Cd47 O48 2.317 . S
O48 Cd47 2.317 . S
O48 C49 1.232 . S
C49 O48 1.232 . S
C49 O50 1.218 . S
O50 C49 1.218 . S
C51 O44 1.275 1_655 S
C51 O46 1.255 . S
C52 O53 1.258 1_655 S
C52 O54 1.256 . S
O53 Cd45 2.381 1_455 S
O53 C52 1.258 1_455 S
O54 Cd45 2.378 . S
O54 C52 1.256 . S
O55 Cd56 2.300 . S
O55 C62 1.275 . S
Cd56 O55 2.300 . S
Cd56 O64 2.381 1_545 S
Cd56 O65 2.378 . S
O57 Cd58 2.385 . S
O57 C62 1.255 . S
Cd58 O57 2.385 . S
Cd58 O59 2.317 . S
O59 Cd58 2.317 . S
O59 C60 1.232 . S
C60 O59 1.232 . S
C60 O61 1.218 . S
O61 C60 1.218 . S
C62 O55 1.275 . S
C62 O57 1.255 . S
C63 O64 1.258 1_545 S
C63 O65 1.256 . S
O64 Cd56 2.381 1_565 S
O64 C63 1.258 1_565 S
O65 Cd56 2.378 . S
O65 C63 1.256 . S
O66 Cd67 2.300 . S
O66 C73 1.275 . S
Cd67 O66 2.300 . S
Cd67 O75 2.381 . S
Cd67 O76 2.378 . S
O68 Cd69 2.385 . S
O68 C73 1.255 . S
Cd69 O68 2.385 . S
Cd69 O70 2.317 . S
O70 Cd69 2.317 . S
O70 C71 1.232 . S
C71 O70 1.232 . S
C71 O72 1.218 . S
O72 C71 1.218 . S
C73 O66 1.275 . S
C73 O68 1.255 . S
C74 O75 1.258 . S
C74 O76 1.256 . S
O75 Cd67 2.381 . S
O75 C74 1.258 . S
O76 Cd67 2.378 . S
O76 C74 1.256 . S
O77 Cd78 2.300 . S
O77 C84 1.275 . S
Cd78 O77 2.300 . S
Cd78 O86 2.381 . S
Cd78 O87 2.378 . S
O79 Cd80 2.385 1_545 S
O79 C84 1.255 . S
Cd80 O79 2.385 1_565 S
Cd80 O81 2.317 1_565 S
O81 Cd80 2.317 1_545 S
O81 C82 1.232 . S
C82 O81 1.232 . S
C82 O83 1.218 . S
O83 C82 1.218 . S
C84 O77 1.275 . S
C84 O79 1.255 . S
C85 O86 1.258 . S
C85 O87 1.256 . S
O86 Cd78 2.381 . S
O86 C85 1.258 . S
O87 Cd78 2.378 . S
O87 C85 1.256 . S
O88 Cd89 2.300 . S
O88 C95 1.275 . S
Cd89 O88 2.300 . S
Cd89 O97 2.381 . S
Cd89 O98 2.378 . S
O90 Cd91 2.385 . S
O90 C95 1.255 . S
Cd91 O90 2.385 . S
Cd91 O92 2.317 . S
O92 Cd91 2.317 . S
O92 C93 1.232 . S
C93 O92 1.232 . S
C93 O94 1.218 . S
O94 C93 1.218 . S
C95 O88 1.275 . S
C95 O90 1.255 . S
C96 O97 1.258 . S
C96 O98 1.256 . S
O97 Cd89 2.381 . S
O97 C96 1.258 . S
O98 Cd89 2.378 . S
O98 C96 1.256 . S
O99 Cd100 2.300 1_554 S
O99 C106 1.275 . S
Cd100 O99 2.300 1_556 S
Cd100 O108 2.381 1_556 S
Cd100 O109 2.378 . S
O101 Cd102 2.385 . S
O101 C106 1.255 1_556 S
Cd102 O101 2.385 . S
Cd102 O103 2.317 . S
O103 Cd102 2.317 . S
O103 C104 1.228 1_556 S
C104 O103 1.228 1_554 S
C104 O105 1.212 1_554 S
O105 C104 1.212 1_556 S
C106 O99 1.275 . S
C106 O101 1.255 1_554 S
C107 O108 1.258 . S
C107 O109 1.256 1_554 S
O108 Cd100 2.381 1_554 S
O108 C107 1.258 . S
O109 Cd100 2.378 . S
O109 C107 1.256 1_556 S
O110 Cd111 2.300 1_554 S
O110 C117 1.275 1_554 S
Cd111 O110 2.300 1_556 S
Cd111 O119 2.381 1_556 S
Cd111 O120 2.378 . S
O112 Cd113 2.385 . S
O112 C117 1.255 . S
Cd113 O112 2.385 . S
Cd113 O114 2.317 . S
O114 Cd113 2.317 . S
O114 C115 1.232 . S
C115 O114 1.232 . S
C115 O116 1.218 . S
O116 C115 1.218 . S
C117 O110 1.275 1_556 S
C117 O112 1.255 . S
C118 O119 1.258 1_556 S
C118 O120 1.256 . S
O119 Cd111 2.381 1_554 S
O119 C118 1.258 1_554 S
O120 Cd111 2.378 . S
O120 C118 1.256 . S
O121 Cd122 2.300 1_556 S
O121 C128 1.275 1_556 S
Cd122 O121 2.300 1_554 S
Cd122 O130 2.381 1_554 S
Cd122 O131 2.378 . S
O123 Cd124 2.385 . S
O123 C128 1.255 . S
Cd124 O123 2.385 . S
Cd124 O125 2.317 . S
O125 Cd124 2.317 . S
O125 C126 1.232 . S
C126 O125 1.232 . S
C126 O127 1.218 . S
O127 C126 1.218 . S
C128 O121 1.275 1_554 S
C128 O123 1.255 . S
C129 O130 1.258 1_554 S
C129 O131 1.256 . S
O130 Cd122 2.381 1_556 S
O130 C129 1.258 1_556 S
O131 Cd122 2.378 . S
O131 C129 1.256 . S
O132 Cd133 2.300 . S
O132 C139 1.275 . S
Cd133 O132 2.300 . S
Cd133 O141 2.381 . S
Cd133 O142 2.378 . S
O134 Cd135 2.385 . S
O134 C139 1.255 . S
Cd135 O134 2.385 . S
Cd135 O136 2.317 . S
O136 Cd135 2.317 . S
O136 C137 1.232 . S
C137 O136 1.232 . S
C137 O138 1.218 . S
O138 C137 1.218 . S
C139 O132 1.275 . S
C139 O134 1.255 . S
C140 O141 1.258 . S
C140 O142 1.256 . S
O141 Cd133 2.381 . S
O141 C140 1.258 . S
O142 Cd133 2.378 . S
O142 C140 1.256 . S
O143 Cd144 2.300 . S
O143 C150 1.275 . S
Cd144 O143 2.300 . S
Cd144 O152 2.381 . S
Cd144 O153 2.378 . S
O145 Cd146 2.385 . S
O145 C150 1.255 . S
Cd146 O145 2.385 . S
Cd146 O147 2.317 . S
O147 Cd146 2.317 . S
O147 C148 1.232 . S
C148 O147 1.232 . S
C148 O149 1.218 . S
O149 C148 1.218 . S
C150 O143 1.275 . S
C150 O145 1.255 . S
C151 O152 1.258 . S
C151 O153 1.256 . S
O152 Cd144 2.381 . S
O152 C151 1.258 . S
O153 Cd144 2.378 . S
O153 C151 1.256 . S
O154 Cd155 2.300 . S
O154 C161 1.275 . S
Cd155 O154 2.300 . S
Cd155 O163 2.381 . S
Cd155 O164 2.378 . S
O156 Cd157 2.385 . S
O156 C161 1.255 . S
Cd157 O156 2.385 . S
Cd157 O158 2.317 . S
O158 Cd157 2.317 . S
O158 C159 1.232 . S
C159 O158 1.232 . S
C159 O160 1.218 . S
O160 C159 1.218 . S
C161 O154 1.275 . S
C161 O156 1.255 . S
C162 O163 1.258 . S
C162 O164 1.256 . S
O163 Cd155 2.381 . S
O163 C162 1.258 . S
O164 Cd155 2.378 . S
O164 C162 1.256 . S
O165 Cd166 2.300 . S
O165 C172 1.275 . S
Cd166 O165 2.300 . S
Cd166 O174 2.381 . S
Cd166 O175 2.378 . S
O167 Cd168 2.385 . S
O167 C172 1.255 . S
Cd168 O167 2.385 . S
Cd168 O169 2.317 . S
O169 Cd168 2.317 . S
O169 C170 1.232 . S
C170 O169 1.232 . S
C170 O171 1.218 . S
O171 C170 1.218 . S
C172 O165 1.275 . S
C172 O167 1.255 . S
C173 O174 1.258 . S
C173 O175 1.256 . S
O174 Cd166 2.381 . S
O174 C173 1.258 . S
O175 Cd166 2.378 . S
O175 C173 1.256 . S
O176 Cd177 2.300 . S
O176 C183 1.275 . S
Cd177 O176 2.300 . S
Cd177 O185 2.381 . S
Cd177 O186 2.378 . S
O178 Cd179 2.385 . S
O178 C183 1.255 . S
Cd179 O178 2.385 . S
Cd179 O180 2.317 . S
O180 Cd179 2.317 . S
O180 C181 1.232 . S
C181 O180 1.232 . S
C181 O182 1.218 . S
O182 C181 1.218 . S
C183 O176 1.275 . S
C183 O178 1.255 . S
C184 O185 1.258 . S
C184 O186 1.256 . S
O185 Cd177 2.381 . S
O185 C184 1.258 . S
O186 Cd177 2.378 . S
O186 C184 1.256 . S
O187 Cd188 2.300 . S
O187 C194 1.275 . S
Cd188 O187 2.300 . S
Cd188 O196 2.381 . S
Cd188 O197 2.378 . S
O189 Cd190 2.385 . S
O189 C194 1.255 . S
Cd190 O189 2.385 . S
Cd190 O191 2.317 . S
O191 Cd190 2.317 . S
O191 C192 1.232 . S
C192 O191 1.232 . S
C192 O193 1.218 . S
O193 C192 1.218 . S
C194 O187 1.275 . S
C194 O189 1.255 . S
C195 O196 1.258 . S
C195 O197 1.256 . S
O196 Cd188 2.381 . S
O196 C195 1.258 . S
O197 Cd188 2.378 . S
O197 C195 1.256 . S
O198 Cd199 2.300 . S
O198 C205 1.275 . S
Cd199 O198 2.300 . S
Cd199 O207 2.381 . S
Cd199 O208 2.378 . S
O200 Cd201 2.385 . S
O200 C205 1.255 . S
Cd201 O200 2.385 . S
Cd201 O202 2.317 . S
O202 Cd201 2.317 . S
O202 C203 1.232 . S
C203 O202 1.232 . S
C203 O204 1.218 . S
O204 C203 1.218 . S
C205 O198 1.275 . S
C205 O200 1.255 . S
C206 O207 1.258 . S
C206 O208 1.256 . S
O207 Cd199 2.381 . S
O207 C206 1.258 . S
O208 Cd199 2.378 . S
O208 C206 1.256 . S
O209 Cd210 2.300 . S
O209 C216 1.275 . S
Cd210 O209 2.300 . S
Cd210 O218 2.381 . S
Cd210 O219 2.378 . S
O211 Cd212 2.385 . S
O211 C216 1.255 . S
Cd212 O211 2.385 . S
Cd212 O213 2.317 . S
O213 Cd212 2.317 . S
O213 C214 1.232 . S
C214 O213 1.232 . S
C214 O215 1.218 . S
O215 C214 1.218 . S
C216 O209 1.275 . S
C216 O211 1.255 . S
C217 O218 1.258 . S
C217 O219 1.256 . S
O218 Cd210 2.381 . S
O218 C217 1.258 . S
O219 Cd210 2.378 . S
O219 C217 1.256 . S
O220 Cd221 2.300 . S
O220 C227 1.275 . S
Cd221 O220 2.300 . S
Cd221 O229 2.381 . S
Cd221 O230 2.378 . S
O222 Cd223 2.385 . S
O222 C227 1.255 . S
Cd223 O222 2.385 . S
Cd223 O224 2.317 . S
O224 Cd223 2.317 . S
O224 C225 1.232 . S
C225 O224 1.232 . S
C225 O226 1.218 . S
O226 C225 1.218 . S
C227 O220 1.275 . S
C227 O222 1.255 . S
C228 O229 1.258 . S
C228 O230 1.256 . S
O229 Cd221 2.381 . S
O229 C228 1.258 . S
O230 Cd221 2.378 . S
O230 C228 1.256 . S
O231 Cd232 2.300 . S
O231 C238 1.275 . S
Cd232 O231 2.300 . S
Cd232 O240 2.381 . S
Cd232 O241 2.378 . S
O233 Cd234 2.385 . S
O233 C238 1.255 . S
Cd234 O233 2.385 . S
Cd234 O235 2.317 . S
O235 Cd234 2.317 . S
O235 C236 1.232 . S
C236 O235 1.232 . S
C236 O237 1.218 . S
O237 C236 1.218 . S
C238 O231 1.275 . S
C238 O233 1.255 . S
C239 O240 1.258 . S
C239 O241 1.256 . S
O240 Cd232 2.381 . S
O240 C239 1.258 . S
O241 Cd232 2.378 . S
O241 C239 1.256 . S
O242 Cd243 2.300 . S
O242 C249 1.275 . S
Cd243 O242 2.300 . S
Cd243 O251 2.381 . S
Cd243 O252 2.378 . S
O244 Cd245 2.385 . S
O244 C249 1.255 . S
Cd245 O244 2.385 . S
Cd245 O246 2.317 . S
O246 Cd245 2.317 . S
O246 C247 1.232 . S
C247 O246 1.232 . S
C247 O248 1.218 . S
O248 C247 1.218 . S
C249 O242 1.275 . S
C249 O244 1.255 . S
C250 O251 1.258 . S
C250 O252 1.256 . S
O251 Cd243 2.381 . S
O251 C250 1.258 . S
O252 Cd243 2.378 . S
O252 C250 1.256 . S
O253 Cd254 2.300 . S
O253 C260 1.275 . S
Cd254 O253 2.300 . S
Cd254 O262 2.381 . S
Cd254 O263 2.378 . S
O255 Cd256 2.385 . S
O255 C260 1.255 . S
Cd256 O255 2.385 . S
Cd256 O257 2.317 . S
O257 Cd256 2.317 . S
O257 C258 1.232 . S
C258 O257 1.232 . S
C258 O259 1.218 . S
O259 C258 1.218 . S
C260 O253 1.275 . S
C260 O255 1.255 . S
C261 O262 1.258 . S
C261 O263 1.256 . S
O262 Cd254 2.381 . S
O262 C261 1.258 . S
O263 Cd254 2.378 . S
O263 C261 1.256 . S
Zn264 O266 1.933 1_565 S
Zn264 O284 1.980 1_565 S
Zn264 O295 1.955 . S
Zn265 O266 1.911 . S
Zn265 O285 1.970 . S
Zn265 O301 1.945 . S
Zn265 O308 1.981 . S
O266 Zn264 1.933 1_545 S
O266 Zn265 1.911 . S
O266 H267 0.841 1_655 S
H267 O266 0.841 1_455 S
C268 O269 1.246 . S
C268 O297 1.276 . S
O269 C268 1.246 . S
Zn270 O272 1.911 . S
Zn270 O287 1.970 . S
Zn270 O304 1.945 . S
Zn270 O311 1.981 . S
Zn271 O272 1.933 1_565 S
Zn271 O286 1.985 . S
Zn271 O293 1.955 . S
O272 Zn270 1.911 . S
O272 Zn271 1.933 1_545 S
O272 H273 0.841 . S
H273 O272 0.841 . S
Zn274 O275 1.933 1_565 S
Zn274 O288 1.978 1_565 S
Zn274 O297 1.955 . S
O275 Zn274 1.933 1_545 S
O275 Zn276 1.911 . S
O275 H277 0.841 . S
Zn276 O275 1.911 . S
Zn276 O289 1.970 . S
Zn276 O305 1.981 1_655 S
Zn276 O307 1.945 . S
H277 O275 0.841 . S
Zn278 O279 1.933 1_565 S
Zn278 O291 1.985 . S
Zn278 O299 1.955 . S
O279 Zn278 1.933 1_545 S
O279 H280 0.841 . S
O279 Zn281 1.911 . S
H280 O279 0.841 . S
Zn281 O279 1.911 . S
Zn281 O292 1.970 . S
Zn281 O302 1.981 . S
Zn281 O310 1.945 . S
C282 O283 1.246 . S
C282 O299 1.276 . S
O283 C282 1.246 . S
O284 Zn264 1.980 1_545 S
O284 C294 1.267 . S
O285 Zn265 1.970 . S
O285 C294 1.263 . S
O286 Zn271 1.985 . S
O286 C298 1.245 1_565 S
O287 Zn270 1.970 . S
O287 C298 1.263 . S
O288 Zn274 1.978 1_545 S
O288 C303 1.275 . S
O289 Zn276 1.970 . S
O289 C303 1.263 . S
C290 O301 1.262 1_455 S
C290 O302 1.245 . S
O291 Zn278 1.985 . S
O291 C309 1.245 1_565 S
O292 Zn281 1.970 . S
O292 C309 1.263 . S
O293 Zn271 1.955 . S
O293 C312 1.276 . S
C294 O284 1.267 . S
C294 O285 1.263 . S
O295 Zn264 1.955 . S
O295 C314 1.276 1_655 S
C296 O304 1.262 . S
C296 O305 1.245 . S
O297 C268 1.276 . S
O297 Zn274 1.955 . S
C298 O286 1.245 1_545 S
C298 O287 1.263 . S
O299 Zn278 1.955 . S
O299 C282 1.276 . S
C300 O307 1.262 . S
C300 O308 1.245 . S
O301 Zn265 1.945 . S
O301 C290 1.262 1_655 S
O302 Zn281 1.981 . S
O302 C290 1.245 . S
C303 O288 1.275 . S
C303 O289 1.263 . S
O304 Zn270 1.945 . S
O304 C296 1.262 . S
O305 Zn276 1.981 1_455 S
O305 C296 1.245 . S
C306 O310 1.262 . S
C306 O311 1.245 . S
O307 Zn276 1.945 . S
O307 C300 1.262 . S
O308 Zn265 1.981 . S
O308 C300 1.245 . S
C309 O291 1.245 1_545 S
C309 O292 1.263 . S
O310 Zn281 1.945 . S
O310 C306 1.262 . S
O311 Zn270 1.981 . S
O311 C306 1.245 . S
C312 O293 1.276 . S
C312 O313 1.246 . S
O313 C312 1.246 . S
C314 O295 1.276 1_455 S
C314 O315 1.246 . S
O315 C314 1.246 . S
Zn316 O318 1.933 . S
Zn316 O336 1.985 . S
Zn316 O347 1.955 . S
Zn317 O318 1.911 1_556 S
Zn317 O337 1.970 . S
Zn317 O353 1.945 . S
Zn317 O360 1.981 . S
O318 Zn316 1.933 . S
O318 Zn317 1.911 1_554 S
O318 H319 0.841 . S
H319 O318 0.841 . S
C320 O321 1.246 . S
C320 O349 1.276 . S
O321 C320 1.246 . S
Zn322 O324 1.911 1_556 S
Zn322 O339 1.970 . S
Zn322 O356 1.945 . S
Zn322 O363 1.981 . S
Zn323 O324 1.933 . S
Zn323 O338 1.985 . S
Zn323 O345 1.967 . S
O324 Zn322 1.911 1_554 S
O324 Zn323 1.933 . S
O324 H325 0.841 1_565 S
H325 O324 0.841 1_545 S
Zn326 O327 1.933 . S
Zn326 O340 1.985 . S
Zn326 O349 1.955 . S
O327 Zn326 1.933 . S
O327 Zn328 1.911 1_554 S
O327 H329 0.841 . S
Zn328 O327 1.911 1_556 S
Zn328 O341 1.970 . S
Zn328 O357 1.981 . S
Zn328 O359 1.945 . S
H329 O327 0.841 . S
Zn330 O331 1.933 . S
Zn330 O343 1.985 . S
Zn330 O351 1.955 . S
O331 Zn330 1.933 . S
O331 H332 0.841 . S
O331 Zn333 1.911 1_554 S
H332 O331 0.841 . S
Zn333 O331 1.911 1_556 S
Zn333 O344 1.970 . S
Zn333 O354 1.981 1_565 S
Zn333 O362 1.945 . S
C334 O335 1.246 . S
C334 O351 1.276 . S
O335 C334 1.246 . S
O336 Zn316 1.985 . S
O336 C346 1.245 . S
O337 Zn317 1.970 . S
O337 C346 1.263 1_556 S
O338 Zn323 1.985 . S
O338 C350 1.245 . S
O339 Zn322 1.970 . S
O339 C350 1.263 1_556 S
O340 Zn326 1.985 . S
O340 C355 1.245 . S
O341 Zn328 1.970 . S
O341 C355 1.263 1_556 S
C342 O353 1.262 . S
C342 O354 1.245 . S
O343 Zn330 1.985 . S
O343 C361 1.245 . S
O344 Zn333 1.970 . S
O344 C361 1.263 1_556 S
O345 Zn323 1.967 . S
O345 C364 1.237 1_565 S
C346 O336 1.245 . S
C346 O337 1.263 1_554 S
O347 Zn316 1.955 . S
O347 C366 1.276 . S
C348 O356 1.262 1_545 S
C348 O357 1.245 . S
O349 C320 1.276 . S
O349 Zn326 1.955 . S
C350 O338 1.245 . S
C350 O339 1.263 1_554 S
O351 Zn330 1.955 . S
O351 C334 1.276 . S
C352 O359 1.262 . S
C352 O360 1.245 . S
O353 Zn317 1.945 . S
O353 C342 1.262 . S
O354 Zn333 1.981 1_545 S
O354 C342 1.245 . S
C355 O340 1.245 . S
C355 O341 1.263 1_554 S
O356 Zn322 1.945 . S
O356 C348 1.262 1_565 S
O357 Zn328 1.981 . S
O357 C348 1.245 . S
C358 O362 1.262 . S
C358 O363 1.245 . S
O359 Zn328 1.945 . S
O359 C352 1.262 . S
O360 Zn317 1.981 . S
O360 C352 1.245 . S
C361 O343 1.245 . S
C361 O344 1.263 1_554 S
O362 Zn333 1.945 . S
O362 C358 1.262 . S
O363 Zn322 1.981 . S
O363 C358 1.245 . S
C364 O345 1.237 1_545 S
C364 O365 1.246 . S
O365 C364 1.246 . S
C366 O347 1.276 . S
C366 O367 1.246 . S
O367 C366 1.246 . S
Zn368 O370 1.933 . S
Zn368 O388 1.985 . S
Zn368 O399 1.955 . S
Zn369 O370 1.911 . S
Zn369 O389 1.970 . S
Zn369 O405 1.945 . S
Zn369 O412 1.981 . S
O370 Zn368 1.933 . S
O370 Zn369 1.911 . S
O370 H371 0.841 1_655 S
H371 O370 0.841 1_455 S
C372 O373 1.246 1_554 S
C372 O401 1.276 . S
O373 C372 1.246 1_556 S
Zn374 O376 1.911 . S
Zn374 O391 1.970 . S
Zn374 O408 1.945 . S
Zn374 O415 1.981 . S
Zn375 O376 1.933 . S
Zn375 O390 1.985 . S
Zn375 O397 1.955 . S
O376 Zn374 1.911 . S
O376 Zn375 1.933 . S
O376 H377 0.841 . S
H377 O376 0.841 . S
Zn378 O379 1.933 . S
Zn378 O392 1.985 . S
Zn378 O401 1.955 . S
O379 Zn378 1.933 . S
O379 Zn380 1.911 . S
O379 H381 0.841 . S
Zn380 O379 1.911 . S
Zn380 O393 1.970 . S
Zn380 O409 1.981 1_655 S
Zn380 O411 1.945 . S
H381 O379 0.841 . S
Zn382 O383 1.933 . S
Zn382 O395 1.985 . S
Zn382 O403 1.955 . S
O383 Zn382 1.933 . S
O383 H384 0.841 1_556 S
O383 Zn385 1.911 . S
H384 O383 0.841 1_554 S
Zn385 O383 1.911 . S
Zn385 O396 1.970 . S
Zn385 O406 1.981 . S
Zn385 O414 1.945 . S
C386 O387 1.246 . S
C386 O403 1.276 1_554 S
O387 C386 1.246 . S
O388 Zn368 1.985 . S
O388 C398 1.245 . S
O389 Zn369 1.970 . S
O389 C398 1.263 . S
O390 Zn375 1.985 . S
O390 C402 1.245 . S
O391 Zn374 1.970 . S
O391 C402 1.263 . S
O392 Zn378 1.985 . S
O392 C407 1.245 . S
O393 Zn380 1.970 . S
O393 C407 1.263 . S
C394 O405 1.262 1_455 S
C394 O406 1.245 . S
O395 Zn382 1.985 . S
O395 C413 1.245 . S
O396 Zn385 1.970 . S
O396 C413 1.263 . S
O397 Zn375 1.955 . S
O397 C416 1.276 . S
C398 O388 1.245 . S
C398 O389 1.263 . S
O399 Zn368 1.955 . S
O399 C418 1.276 1_655 S
C400 O408 1.262 . S
C400 O409 1.245 . S
O401 C372 1.276 . S
O401 Zn378 1.955 . S
C402 O390 1.245 . S
C402 O391 1.263 . S
O403 Zn382 1.955 . S
O403 C386 1.276 1_556 S
C404 O411 1.262 . S
C404 O412 1.245 1_554 S
O405 Zn369 1.945 . S
O405 C394 1.262 1_655 S
O406 Zn385 1.981 . S
O406 C394 1.245 . S
C407 O392 1.245 . S
C407 O393 1.263 . S
O408 Zn374 1.945 . S
O408 C400 1.262 . S
O409 Zn380 1.981 1_455 S
O409 C400 1.245 . S
C410 O414 1.262 1_554 S
C410 O415 1.245 . S
O411 Zn380 1.945 . S
O411 C404 1.262 . S
O412 Zn369 1.981 . S
O412 C404 1.245 1_556 S
C413 O395 1.245 . S
C413 O396 1.263 . S
O414 Zn385 1.945 . S
O414 C410 1.262 1_556 S
O415 Zn374 1.981 . S
O415 C410 1.245 . S
C416 O397 1.276 . S
C416 O417 1.246 . S
O417 C416 1.246 . S
C418 O399 1.276 1_455 S
C418 O419 1.246 . S
O419 C418 1.246 . S
Zn420 O422 1.933 1_556 S
Zn420 O440 1.985 . S
Zn420 O451 1.955 . S
Zn421 O422 1.911 . S
Zn421 O441 1.970 . S
Zn421 O457 1.945 . S
Zn421 O464 1.981 . S
O422 Zn420 1.933 1_554 S
O422 Zn421 1.911 . S
O422 H423 0.841 . S
H423 O422 0.841 . S
C424 O425 1.246 . S
C424 O453 1.276 . S
O425 C424 1.246 . S
Zn426 O428 1.911 . S
Zn426 O443 1.970 . S
Zn426 O460 1.945 . S
Zn426 O467 1.981 . S
Zn427 O428 1.933 1_556 S
Zn427 O442 1.985 . S
Zn427 O449 1.955 . S
O428 Zn426 1.911 . S
O428 Zn427 1.933 1_554 S
O428 H429 0.841 . S
H429 O428 0.841 . S
Zn430 O431 1.933 1_556 S
Zn430 O444 1.985 . S
Zn430 O453 1.955 . S
O431 Zn430 1.933 1_554 S
O431 Zn432 1.911 . S
O431 H433 0.841 . S
Zn432 O431 1.911 . S
Zn432 O445 1.970 . S
Zn432 O461 1.981 . S
Zn432 O463 1.945 . S
H433 O431 0.841 . S
Zn434 O435 1.933 1_556 S
Zn434 O447 1.985 . S
Zn434 O455 1.955 . S
O435 Zn434 1.933 1_554 S
O435 H436 0.841 . S
O435 Zn437 1.911 . S
H436 O435 0.841 . S
Zn437 O435 1.911 . S
Zn437 O448 1.970 . S
Zn437 O458 1.981 . S
Zn437 O466 1.945 . S
C438 O439 1.246 . S
C438 O455 1.276 . S
O439 C438 1.246 . S
O440 Zn420 1.985 . S
O440 C450 1.245 1_556 S
O441 Zn421 1.970 . S
O441 C450 1.263 . S
O442 Zn427 1.985 . S
O442 C454 1.245 1_556 S
O443 Zn426 1.970 . S
O443 C454 1.263 . S
O444 Zn430 1.985 . S
O444 C459 1.245 1_556 S
O445 Zn432 1.970 . S
O445 C459 1.263 . S
C446 O457 1.262 . S
C446 O458 1.245 . S
O447 Zn434 1.985 . S
O447 C465 1.245 1_556 S
O448 Zn437 1.970 . S
O448 C465 1.263 . S
O449 Zn427 1.955 . S
O449 C468 1.276 . S
C450 O440 1.245 1_554 S
C450 O441 1.263 . S
O451 Zn420 1.955 . S
O451 C470 1.276 . S
C452 O460 1.262 . S
C452 O461 1.245 . S
O453 C424 1.276 . S
O453 Zn430 1.955 . S
C454 O442 1.245 1_554 S
C454 O443 1.263 . S
O455 Zn434 1.955 . S
O455 C438 1.276 . S
C456 O463 1.262 . S
C456 O464 1.245 . S
O457 Zn421 1.945 . S
O457 C446 1.262 . S
O458 Zn437 1.981 . S
O458 C446 1.245 . S
C459 O444 1.245 1_554 S
C459 O445 1.263 . S
O460 Zn426 1.945 . S
O460 C452 1.262 . S
O461 Zn432 1.981 . S
O461 C452 1.245 . S
C462 O466 1.262 . S
C462 O467 1.245 . S
O463 Zn432 1.945 . S
O463 C456 1.262 . S
O464 Zn421 1.981 . S
O464 C456 1.245 . S
C465 O447 1.245 1_554 S
C465 O448 1.263 . S
O466 Zn437 1.945 . S
O466 C462 1.262 . S
O467 Zn426 1.981 . S
O467 C462 1.245 . S
C468 O449 1.276 . S
C468 O469 1.246 . S
O469 C468 1.246 . S
C470 O451 1.276 . S
C470 O471 1.246 . S
O471 C470 1.246 . S
Zn472 O474 1.933 . S
Zn472 O492 1.985 . S
Zn472 O503 1.955 . S
Zn473 O474 1.911 . S
Zn473 O493 1.970 . S
Zn473 O509 1.945 . S
Zn473 O516 1.981 . S
O474 Zn472 1.933 . S
O474 Zn473 1.911 . S
O474 H475 0.841 1_655 S
H475 O474 0.841 1_455 S
C476 O477 1.246 . S
C476 O505 1.276 . S
O477 C476 1.246 . S
Zn478 O480 1.911 . S
Zn478 O495 1.970 . S
Zn478 O512 1.945 . S
Zn478 O519 1.981 . S
Zn479 O480 1.933 . S
Zn479 O494 1.985 . S
Zn479 O501 1.955 . S
O480 Zn478 1.911 . S
O480 Zn479 1.933 . S
O480 H481 0.841 . S
H481 O480 0.841 . S
Zn482 O483 1.933 . S
Zn482 O496 1.985 . S
Zn482 O505 1.955 . S
O483 Zn482 1.933 . S
O483 Zn484 1.911 . S
O483 H485 0.841 . S
Zn484 O483 1.911 . S
Zn484 O497 1.970 . S
Zn484 O513 1.981 1_655 S
Zn484 O515 1.945 . S
H485 O483 0.841 . S
Zn486 O487 1.933 . S
Zn486 O499 1.985 . S
Zn486 O507 1.955 . S
O487 Zn486 1.933 . S
O487 H488 0.841 . S
O487 Zn489 1.911 . S
H488 O487 0.841 . S
Zn489 O487 1.911 . S
Zn489 O500 1.970 . S
Zn489 O510 1.981 . S
Zn489 O518 1.945 . S
C490 O491 1.246 . S
C490 O507 1.276 . S
O491 C490 1.246 . S
O492 Zn472 1.985 . S
O492 C502 1.245 . S
O493 Zn473 1.970 . S
O493 C502 1.263 . S
O494 Zn479 1.985 . S
O494 C506 1.245 . S
O495 Zn478 1.970 . S
O495 C506 1.263 . S
O496 Zn482 1.985 . S
O496 C511 1.245 . S
O497 Zn484 1.970 . S
O497 C511 1.263 . S
C498 O509 1.262 1_455 S
C498 O510 1.245 . S
O499 Zn486 1.985 . S
O499 C517 1.245 . S
O500 Zn489 1.970 . S
O500 C517 1.263 . S
O501 Zn479 1.955 . S
O501 C520 1.276 . S
C502 O492 1.245 . S
C502 O493 1.263 . S
O503 Zn472 1.955 . S
O503 C522 1.276 1_655 S
C504 O512 1.262 . S
C504 O513 1.245 . S
O505 C476 1.276 . S
O505 Zn482 1.955 . S
C506 O494 1.245 . S
C506 O495 1.263 . S
O507 Zn486 1.955 . S
O507 C490 1.276 . S
C508 O515 1.262 . S
C508 O516 1.245 . S
O509 Zn473 1.945 . S
O509 C498 1.262 1_655 S
O510 Zn489 1.981 . S
O510 C498 1.245 . S
C511 O496 1.245 . S
C511 O497 1.263 . S
O512 Zn478 1.945 . S
O512 C504 1.262 . S
O513 Zn484 1.981 1_455 S
O513 C504 1.245 . S
C514 O518 1.262 . S
C514 O519 1.245 . S
O515 Zn484 1.945 . S
O515 C508 1.262 . S
O516 Zn473 1.981 . S
O516 C508 1.245 . S
C517 O499 1.245 . S
C517 O500 1.263 . S
O518 Zn489 1.945 . S
O518 C514 1.262 . S
O519 Zn478 1.981 . S
O519 C514 1.245 . S
C520 O501 1.276 . S
C520 O521 1.246 . S
O521 C520 1.246 . S
C522 O503 1.276 1_455 S
C522 O523 1.246 . S
O523 C522 1.246 . S
Zn524 O526 1.933 1_565 S
Zn524 O544 1.985 . S
Zn524 O555 1.955 . S
Zn525 O526 1.911 . S
Zn525 O545 1.970 . S
Zn525 O561 1.945 . S
Zn525 O568 1.981 . S
O526 Zn524 1.933 1_545 S
O526 Zn525 1.911 . S
O526 H527 0.841 . S
H527 O526 0.841 . S
C528 O529 1.246 . S
C528 O557 1.276 . S
O529 C528 1.246 . S
Zn530 O532 1.911 . S
Zn530 O547 1.970 . S
Zn530 O564 1.945 . S
Zn530 O571 1.981 . S
Zn531 O532 1.933 1_565 S
Zn531 O546 1.985 1_565 S
Zn531 O553 1.955 . S
O532 Zn530 1.911 . S
O532 Zn531 1.933 1_545 S
O532 H533 0.841 . S
H533 O532 0.841 . S
Zn534 O535 1.933 1_565 S
Zn534 O548 1.985 . S
Zn534 O557 1.955 . S
O535 Zn534 1.933 1_545 S
O535 Zn536 1.911 . S
O535 H537 0.841 . S
Zn536 O535 1.911 . S
Zn536 O549 1.970 . S
Zn536 O565 1.981 . S
Zn536 O567 1.945 . S
H537 O535 0.841 . S
Zn538 O539 1.933 1_565 S
Zn538 O551 1.985 1_565 S
Zn538 O559 1.955 . S
O539 Zn538 1.933 1_545 S
O539 H540 0.841 . S
O539 Zn541 1.911 . S
H540 O539 0.841 . S
Zn541 O539 1.911 . S
Zn541 O552 1.970 . S
Zn541 O562 1.981 . S
Zn541 O570 1.945 . S
C542 O543 1.246 . S
C542 O559 1.276 . S
O543 C542 1.246 . S
O544 Zn524 1.985 . S
O544 C554 1.245 1_565 S
O545 Zn525 1.970 . S
O545 C554 1.263 . S
O546 Zn531 1.985 1_545 S
O546 C558 1.245 . S
O547 Zn530 1.970 . S
O547 C558 1.263 . S
O548 Zn534 1.985 . S
O548 C563 1.245 1_565 S
O549 Zn536 1.970 . S
O549 C563 1.263 . S
C550 O561 1.262 . S
C550 O562 1.245 . S
O551 Zn538 1.985 1_545 S
O551 C569 1.245 . S
O552 Zn541 1.970 . S
O552 C569 1.263 . S
O553 Zn531 1.955 . S
O553 C572 1.276 . S
C554 O544 1.245 1_545 S
C554 O545 1.263 . S
O555 Zn524 1.955 . S
O555 C574 1.276 . S
C556 O564 1.262 . S
C556 O565 1.245 . S
O557 C528 1.276 . S
O557 Zn534 1.955 . S
C558 O546 1.245 . S
C558 O547 1.263 . S
O559 Zn538 1.955 . S
O559 C542 1.276 . S
C560 O567 1.262 . S
C560 O568 1.245 . S
O561 Zn525 1.945 . S
O561 C550 1.262 . S
O562 Zn541 1.981 . S
O562 C550 1.245 . S
C563 O548 1.245 1_545 S
C563 O549 1.263 . S
O564 Zn530 1.945 . S
O564 C556 1.262 . S
O565 Zn536 1.981 . S
O565 C556 1.245 . S
C566 O570 1.262 . S
C566 O571 1.245 . S
O567 Zn536 1.945 . S
O567 C560 1.262 . S
O568 Zn525 1.981 . S
O568 C560 1.245 . S
C569 O551 1.245 . S
C569 O552 1.263 . S
O570 Zn541 1.945 . S
O570 C566 1.262 . S
O571 Zn530 1.981 . S
O571 C566 1.245 . S
C572 O553 1.276 . S
C572 O573 1.246 . S
O573 C572 1.246 . S
C574 O555 1.276 . S
C574 O575 1.246 . S
O575 C574 1.246 . S
H576 C582 0.930 . S
H577 C585 0.930 . S
H578 C586 0.930 . S
H579 C587 0.930 . S
H580 C590 0.930 . S
H581 C591 0.930 . S
C582 H576 0.930 . S
C582 C583 1.355 . S
C582 C584 1.415 . S
C583 C582 1.355 . S
C583 C585 1.419 . S
C584 C582 1.415 . S
C584 C589 1.425 . S
C584 C591 1.409 . S
C585 H577 0.930 . S
C585 C583 1.419 . S
C585 C586 1.362 . S
C586 H578 0.930 . S
C586 C585 1.362 . S
C586 C589 1.409 . S
C587 H579 0.930 . S
C587 C588 1.355 . S
C587 C589 1.415 . S
C588 C587 1.355 . S
C588 C590 1.419 . S
C589 C584 1.425 . S
C589 C586 1.409 . S
C589 C587 1.415 . S
C590 H580 0.930 . S
C590 C588 1.419 . S
C590 C591 1.362 . S
C591 H581 0.930 . S
C591 C584 1.409 . S
C591 C590 1.362 . S
H592 C598 0.930 . S
H593 C601 0.930 . S
H594 C602 0.930 . S
H595 C603 0.930 . S
H596 C606 0.930 . S
H597 C607 0.930 . S
C598 H592 0.930 . S
C598 C599 1.355 . S
C598 C600 1.415 . S
C599 C598 1.355 . S
C599 C601 1.419 . S
C600 C598 1.415 . S
C600 C605 1.425 . S
C600 C607 1.409 . S
C601 H593 0.930 . S
C601 C599 1.419 . S
C601 C602 1.362 . S
C602 H594 0.930 . S
C602 C601 1.362 . S
C602 C605 1.409 . S
C603 H595 0.930 . S
C603 C604 1.355 . S
C603 C605 1.415 . S
C604 C603 1.355 . S
C604 C606 1.419 . S
C605 C600 1.425 . S
C605 C602 1.409 . S
C605 C603 1.415 . S
C606 H596 0.930 . S
C606 C604 1.419 . S
C606 C607 1.362 . S
C607 H597 0.930 . S
C607 C600 1.409 . S
C607 C606 1.362 . S
H608 C614 0.930 . S
H609 C617 0.930 . S
H610 C618 0.930 . S
H611 C619 0.930 . S
H612 C622 0.930 . S
H613 C623 0.930 . S
C614 H608 0.930 . S
C614 C615 1.355 . S
C614 C616 1.415 . S
C615 C614 1.355 . S
C615 C617 1.419 . S
C616 C614 1.415 . S
C616 C621 1.425 . S
C616 C623 1.409 . S
C617 H609 0.930 . S
C617 C615 1.419 . S
C617 C618 1.362 . S
C618 H610 0.930 . S
C618 C617 1.362 . S
C618 C621 1.409 . S
C619 H611 0.930 . S
C619 C620 1.355 . S
C619 C621 1.415 . S
C620 C619 1.355 . S
C620 C622 1.419 . S
C621 C616 1.425 . S
C621 C618 1.409 . S
C621 C619 1.415 . S
C622 H612 0.930 . S
C622 C620 1.419 . S
C622 C623 1.362 . S
C623 H613 0.930 . S
C623 C616 1.409 . S
C623 C622 1.362 . S
H624 C630 0.930 . S
H625 C633 0.930 . S
H626 C634 0.930 . S
H627 C635 0.930 . S
H628 C638 0.930 . S
H629 C639 0.930 . S
C630 H624 0.930 . S
C630 C631 1.355 . S
C630 C632 1.415 . S
C631 C630 1.355 . S
C631 C633 1.419 . S
C632 C630 1.415 . S
C632 C637 1.425 . S
C632 C639 1.409 . S
C633 H625 0.930 . S
C633 C631 1.419 . S
C633 C634 1.362 . S
C634 H626 0.930 . S
C634 C633 1.362 . S
C634 C637 1.409 . S
C635 H627 0.930 . S
C635 C636 1.355 . S
C635 C637 1.415 . S
C636 C635 1.355 . S
C636 C638 1.419 . S
C637 C632 1.425 . S
C637 C634 1.409 . S
C637 C635 1.415 . S
C638 H628 0.930 . S
C638 C636 1.419 . S
C638 C639 1.362 . S
C639 H629 0.930 . S
C639 C632 1.409 . S
C639 C638 1.362 . S
H640 C646 0.930 . S
H641 C649 0.930 . S
H642 C650 0.930 . S
H643 C651 0.930 . S
H644 C654 0.930 . S
H645 C655 0.930 . S
C646 H640 0.930 . S
C646 C647 1.355 . S
C646 C648 1.415 . S
C647 C646 1.355 . S
C647 C649 1.419 . S
C648 C646 1.415 . S
C648 C653 1.425 . S
C648 C655 1.409 . S
C649 H641 0.930 . S
C649 C647 1.419 . S
C649 C650 1.362 . S
C650 H642 0.930 . S
C650 C649 1.362 . S
C650 C653 1.409 . S
C651 H643 0.930 . S
C651 C652 1.355 . S
C651 C653 1.415 . S
C652 C651 1.355 . S
C652 C654 1.419 . S
C653 C648 1.425 . S
C653 C650 1.409 . S
C653 C651 1.415 . S
C654 H644 0.930 . S
C654 C652 1.419 . S
C654 C655 1.362 . S
C655 H645 0.930 . S
C655 C648 1.409 . S
C655 C654 1.362 . S
H656 C662 0.930 . S
H657 C665 0.930 . S
H658 C666 0.930 . S
H659 C667 0.930 . S
H660 C670 0.930 . S
H661 C671 0.930 . S
C662 H656 0.930 . S
C662 C663 1.355 . S
C662 C664 1.415 . S
C663 C662 1.355 . S
C663 C665 1.419 . S
C664 C662 1.415 . S
C664 C669 1.425 . S
C664 C671 1.409 . S
C665 H657 0.930 . S
C665 C663 1.419 . S
C665 C666 1.362 . S
C666 H658 0.930 . S
C666 C665 1.362 . S
C666 C669 1.409 . S
C667 H659 0.930 . S
C667 C668 1.355 . S
C667 C669 1.415 . S
C668 C667 1.355 . S
C668 C670 1.419 . S
C669 C664 1.425 . S
C669 C666 1.409 . S
C669 C667 1.415 . S
C670 H660 0.930 . S
C670 C668 1.419 . S
C670 C671 1.362 . S
C671 H661 0.930 . S
C671 C664 1.409 . S
C671 C670 1.362 . S
H672 C678 0.930 . S
H673 C681 0.930 . S
H674 C682 0.930 . S
H675 C683 0.930 . S
H676 C686 0.930 . S
H677 C687 0.930 . S
C678 H672 0.930 . S
C678 C679 1.355 . S
C678 C680 1.415 . S
C679 C678 1.355 . S
C679 C681 1.419 . S
C680 C678 1.415 . S
C680 C685 1.425 . S
C680 C687 1.409 . S
C681 H673 0.930 . S
C681 C679 1.419 . S
C681 C682 1.362 . S
C682 H674 0.930 . S
C682 C681 1.362 . S
C682 C685 1.409 . S
C683 H675 0.930 . S
C683 C684 1.355 . S
C683 C685 1.415 . S
C684 C683 1.355 . S
C684 C686 1.419 . S
C685 C680 1.425 . S
C685 C682 1.409 . S
C685 C683 1.415 . S
C686 H676 0.930 . S
C686 C684 1.419 . S
C686 C687 1.362 . S
C687 H677 0.930 . S
C687 C680 1.409 . S
C687 C686 1.362 . S
H688 C694 0.930 . S
H689 C697 0.930 . S
H690 C698 0.930 . S
H691 C699 0.930 . S
H692 C702 0.930 . S
H693 C703 0.930 . S
C694 H688 0.930 . S
C694 C695 1.355 . S
C694 C696 1.415 . S
C695 C694 1.355 . S
C695 C697 1.419 . S
C696 C694 1.415 . S
C696 C701 1.425 . S
C696 C703 1.409 . S
C697 H689 0.930 . S
C697 C695 1.419 . S
C697 C698 1.362 . S
C698 H690 0.930 . S
C698 C697 1.362 . S
C698 C701 1.409 . S
C699 H691 0.930 . S
C699 C700 1.355 . S
C699 C701 1.415 . S
C700 C699 1.355 . S
C700 C702 1.419 . S
C701 C696 1.425 . S
C701 C698 1.409 . S
C701 C699 1.415 . S
C702 H692 0.930 . S
C702 C700 1.419 . S
C702 C703 1.362 . S
C703 H693 0.930 . S
C703 C696 1.409 . S
C703 C702 1.362 . S
H704 C710 0.930 . S
H705 C713 0.930 . S
H706 C714 0.930 . S
H707 C715 0.930 . S
H708 C718 0.930 . S
H709 C719 0.930 . S
C710 H704 0.930 . S
C710 C711 1.355 . S
C710 C712 1.415 . S
C711 C710 1.355 . S
C711 C713 1.419 . S
C712 C710 1.415 . S
C712 C717 1.425 . S
C712 C719 1.409 . S
C713 H705 0.930 . S
C713 C711 1.419 . S
C713 C714 1.362 . S
C714 H706 0.930 . S
C714 C713 1.362 . S
C714 C717 1.409 . S
C715 H707 0.930 . S
C715 C716 1.355 . S
C715 C717 1.415 . S
C716 C715 1.355 . S
C716 C718 1.419 . S
C717 C712 1.425 . S
C717 C714 1.409 . S
C717 C715 1.415 . S
C718 H708 0.930 . S
C718 C716 1.419 . S
C718 C719 1.362 . S
C719 H709 0.930 . S
C719 C712 1.409 . S
C719 C718 1.362 . S
H720 C726 0.930 . S
H721 C729 0.930 . S
H722 C730 0.930 . S
H723 C731 0.930 . S
H724 C734 0.930 . S
H725 C735 0.930 . S
C726 H720 0.930 . S
C726 C727 1.355 . S
C726 C728 1.415 . S
C727 C726 1.355 . S
C727 C729 1.419 . S
C728 C726 1.415 . S
C728 C733 1.425 . S
C728 C735 1.409 . S
C729 H721 0.930 . S
C729 C727 1.419 . S
C729 C730 1.362 . S
C730 H722 0.930 . S
C730 C729 1.362 . S
C730 C733 1.409 . S
C731 H723 0.930 . S
C731 C732 1.355 . S
C731 C733 1.415 . S
C732 C731 1.355 . S
C732 C734 1.419 . S
C733 C728 1.425 . S
C733 C730 1.409 . S
C733 C731 1.415 . S
C734 H724 0.930 . S
C734 C732 1.419 . S
C734 C735 1.362 . S
C735 H725 0.930 . S
C735 C728 1.409 . S
C735 C734 1.362 . S
H736 C742 0.930 . S
H737 C745 0.930 . S
H738 C746 0.930 . S
H739 C747 0.930 . S
H740 C750 0.930 . S
H741 C751 0.930 . S
C742 H736 0.930 . S
C742 C743 1.355 . S
C742 C744 1.415 . S
C743 C742 1.355 . S
C743 C745 1.419 . S
C744 C742 1.415 . S
C744 C749 1.425 . S
C744 C751 1.409 . S
C745 H737 0.930 . S
C745 C743 1.419 . S
C745 C746 1.362 . S
C746 H738 0.930 . S
C746 C745 1.362 . S
C746 C749 1.409 . S
C747 H739 0.930 . S
C747 C748 1.355 . S
C747 C749 1.415 . S
C748 C747 1.355 . S
C748 C750 1.419 . S
C749 C744 1.425 . S
C749 C746 1.409 . S
C749 C747 1.415 . S
C750 H740 0.930 . S
C750 C748 1.419 . S
C750 C751 1.362 . S
C751 H741 0.930 . S
C751 C744 1.409 . S
C751 C750 1.362 . S
H752 C758 0.930 . S
H753 C761 0.930 . S
H754 C762 0.930 . S
H755 C763 0.930 . S
H756 C766 0.930 . S
H757 C767 0.930 . S
C758 H752 0.930 . S
C758 C759 1.355 . S
C758 C760 1.415 . S
C759 C758 1.355 . S
C759 C761 1.419 . S
C760 C758 1.415 . S
C760 C765 1.425 . S
C760 C767 1.409 . S
C761 H753 0.930 . S
C761 C759 1.419 . S
C761 C762 1.362 . S
C762 H754 0.930 . S
C762 C761 1.362 . S
C762 C765 1.409 . S
C763 H755 0.930 . S
C763 C764 1.355 . S
C763 C765 1.415 . S
C764 C763 1.355 . S
C764 C766 1.419 . S
C765 C760 1.425 . S
C765 C762 1.409 . S
C765 C763 1.415 . S
C766 H756 0.930 . S
C766 C764 1.419 . S
C766 C767 1.362 . S
C767 H757 0.930 . S
C767 C760 1.409 . S
C767 C766 1.362 . S
H768 C774 0.930 . S
H769 C777 0.930 . S
H770 C778 0.930 . S
H771 C779 0.930 . S
H772 C782 0.930 . S
H773 C783 0.930 . S
C774 H768 0.930 . S
C774 C775 1.355 . S
C774 C776 1.415 . S
C775 C774 1.355 . S
C775 C777 1.419 1_554 S
C776 C774 1.415 . S
C776 C781 1.425 1_554 S
C776 C783 1.409 . S
C777 H769 0.930 . S
C777 C775 1.419 1_556 S
C777 C778 1.362 . S
C778 H770 0.930 . S
C778 C777 1.362 . S
C778 C781 1.409 . S
C779 H771 0.930 . S
C779 C780 1.355 1_556 S
C779 C781 1.415 . S
C780 C779 1.355 1_554 S
C780 C782 1.419 . S
C781 C776 1.425 1_556 S
C781 C778 1.409 . S
C781 C779 1.415 . S
C782 H772 0.930 . S
C782 C780 1.419 . S
C782 C783 1.362 . S
C783 H773 0.930 . S
C783 C776 1.409 . S
C783 C782 1.362 . S
H784 C790 0.930 . S
H785 C793 0.930 . S
H786 C794 0.930 . S
H787 C795 0.930 . S
H788 C798 0.930 . S
H789 C799 0.930 . S
C790 H784 0.930 . S
C790 C791 1.355 . S
C790 C792 1.415 . S
C791 C790 1.355 . S
C791 C793 1.419 1_554 S
C792 C790 1.415 . S
C792 C797 1.425 1_554 S
C792 C799 1.409 . S
C793 H785 0.930 . S
C793 C791 1.419 1_556 S
C793 C794 1.362 . S
C794 H786 0.930 . S
C794 C793 1.362 . S
C794 C797 1.409 . S
C795 H787 0.930 . S
C795 C796 1.355 1_556 S
C795 C797 1.415 . S
C796 C795 1.355 1_554 S
C796 C798 1.419 . S
C797 C792 1.425 1_556 S
C797 C794 1.409 . S
C797 C795 1.415 . S
C798 H788 0.930 . S
C798 C796 1.419 . S
C798 C799 1.362 . S
C799 H789 0.930 . S
C799 C792 1.409 . S
C799 C798 1.362 . S
H800 C806 0.930 . S
H801 C809 0.934 . S
H802 C810 0.930 1_556 S
H803 C811 0.930 1_556 S
H804 C814 0.930 . S
H805 C815 0.930 . S
C806 H800 0.930 . S
C806 C807 1.355 . S
C806 C808 1.415 . S
C807 C806 1.355 . S
C807 C809 1.419 . S
C808 C806 1.415 . S
C808 C813 1.425 . S
C808 C815 1.409 . S
C809 H801 0.934 . S
C809 C807 1.419 . S
C809 C810 1.362 . S
C810 H802 0.930 1_554 S
C810 C809 1.362 . S
C810 C813 1.409 . S
C811 H803 0.930 1_554 S
C811 C812 1.355 . S
C811 C813 1.415 . S
C812 C811 1.355 . S
C812 C814 1.419 . S
C813 C808 1.425 . S
C813 C810 1.409 . S
C813 C811 1.415 . S
C814 H804 0.930 . S
C814 C812 1.419 . S
C814 C815 1.362 . S
C815 H805 0.930 . S
C815 C808 1.409 . S
C815 C814 1.362 . S
H816 C822 0.930 . S
H817 C825 0.930 . S
H818 C826 0.930 . S
H819 C827 0.930 . S
H820 C830 0.930 . S
H821 C831 0.930 . S
C822 H816 0.930 . S
C822 C823 1.355 . S
C822 C824 1.415 . S
C823 C822 1.355 . S
C823 C825 1.419 . S
C824 C822 1.415 . S
C824 C829 1.425 . S
C824 C831 1.409 . S
C825 H817 0.930 . S
C825 C823 1.419 . S
C825 C826 1.362 . S
C826 H818 0.930 . S
C826 C825 1.362 . S
C826 C829 1.409 . S
C827 H819 0.930 . S
C827 C828 1.355 . S
C827 C829 1.415 . S
C828 C827 1.355 . S
C828 C830 1.419 . S
C829 C824 1.425 . S
C829 C826 1.409 . S
C829 C827 1.415 . S
C830 H820 0.930 . S
C830 C828 1.419 . S
C830 C831 1.362 . S
C831 H821 0.930 . S
C831 C824 1.409 . S
C831 C830 1.362 . S
H832 C838 0.930 . S
H833 C841 0.930 . S
H834 C842 0.930 . S
H835 C843 0.930 1_655 S
H836 C846 0.930 . S
H837 C847 0.930 . S
C838 H832 0.930 . S
C838 C839 1.357 . S
C838 C840 1.415 . S
C839 C838 1.357 . S
C839 C841 1.416 1_455 S
C840 C838 1.415 . S
C840 C845 1.425 . S
C840 C847 1.409 . S
C841 H833 0.930 . S
C841 C839 1.416 1_655 S
C841 C842 1.362 . S
C842 H834 0.930 . S
C842 C841 1.362 . S
C842 C845 1.409 1_655 S
C843 H835 0.930 1_455 S
C843 C844 1.355 . S
C843 C845 1.415 . S
C844 C843 1.355 . S
C844 C846 1.419 . S
C845 C840 1.425 . S
C845 C842 1.409 1_455 S
C845 C843 1.415 . S
C846 H836 0.930 . S
C846 C844 1.419 . S
C846 C847 1.362 . S
C847 H837 0.930 . S
C847 C840 1.409 . S
C847 C846 1.362 . S
H848 C854 0.930 . S
H849 C857 0.930 . S
H850 C858 0.930 . S
H851 C859 0.930 1_565 S
H852 C862 0.930 . S
H853 C863 0.930 . S
C854 H848 0.930 . S
C854 C855 1.355 . S
C854 C856 1.415 . S
C855 C854 1.355 . S
C855 C857 1.419 1_545 S
C856 C854 1.415 . S
C856 C861 1.425 . S
C856 C863 1.409 . S
C857 H849 0.930 . S
C857 C855 1.419 1_565 S
C857 C858 1.362 . S
C858 H850 0.930 . S
C858 C857 1.362 . S
C858 C861 1.409 1_565 S
C859 H851 0.930 1_545 S
C859 C860 1.355 . S
C859 C861 1.415 . S
C860 C859 1.355 . S
C860 C862 1.419 . S
C861 C856 1.425 . S
C861 C858 1.409 1_545 S
C861 C859 1.415 . S
C862 H852 0.930 . S
C862 C860 1.419 . S
C862 C863 1.362 . S
C863 H853 0.930 . S
C863 C856 1.409 . S
C863 C862 1.362 . S
H864 C870 0.930 . S
H865 C873 0.929 . S
H866 C874 0.930 1_655 S
H867 C875 0.930 1_655 S
H868 C878 0.930 . S
H869 C879 0.930 . S
C870 H864 0.930 . S
C870 C871 1.355 . S
C870 C872 1.415 . S
C871 C870 1.355 . S
C871 C873 1.419 . S
C872 C870 1.415 . S
C872 C877 1.425 . S
C872 C879 1.409 . S
C873 H865 0.929 . S
C873 C871 1.419 . S
C873 C874 1.362 . S
C874 H866 0.930 1_455 S
C874 C873 1.362 . S
C874 C877 1.409 . S
C875 H867 0.930 1_455 S
C875 C876 1.355 . S
C875 C877 1.415 . S
C876 C875 1.355 . S
C876 C878 1.419 . S
C877 C872 1.425 . S
C877 C874 1.409 . S
C877 C875 1.415 . S
C878 H868 0.930 . S
C878 C876 1.419 . S
C878 C879 1.362 . S
C879 H869 0.930 . S
C879 C872 1.409 . S
C879 C878 1.362 . S
H880 C886 0.930 . S
H881 C889 0.930 . S
H882 C890 0.930 . S
H883 C891 0.930 . S
H884 C894 0.930 . S
H885 C895 0.930 . S
C886 H880 0.930 . S
C886 C887 1.355 . S
C886 C888 1.415 . S
C887 C886 1.355 . S
C887 C889 1.419 . S
C888 C886 1.415 . S
C888 C893 1.425 . S
C888 C895 1.409 . S
C889 H881 0.930 . S
C889 C887 1.419 . S
C889 C890 1.362 . S
C890 H882 0.930 . S
C890 C889 1.362 . S
C890 C893 1.409 . S
C891 H883 0.930 . S
C891 C892 1.355 . S
C891 C893 1.415 . S
C892 C891 1.355 . S
C892 C894 1.419 . S
C893 C888 1.425 . S
C893 C890 1.409 . S
C893 C891 1.415 . S
C894 H884 0.930 . S
C894 C892 1.419 . S
C894 C895 1.362 . S
C895 H885 0.930 . S
C895 C888 1.409 . S
C895 C894 1.362 . S
H896 C902 0.930 . S
H897 C905 0.930 . S
H898 C906 0.930 . S
H899 C907 0.930 . S
H900 C910 0.930 . S
H901 C911 0.930 . S
C902 H896 0.930 . S
C902 C903 1.355 . S
C902 C904 1.415 . S
C903 C902 1.355 . S
C903 C905 1.419 . S
C904 C902 1.415 . S
C904 C909 1.425 . S
C904 C911 1.409 . S
C905 H897 0.930 . S
C905 C903 1.419 . S
C905 C906 1.362 . S
C906 H898 0.930 . S
C906 C905 1.362 . S
C906 C909 1.409 . S
C907 H899 0.930 . S
C907 C908 1.355 . S
C907 C909 1.415 . S
C908 C907 1.355 . S
C908 C910 1.419 . S
C909 C904 1.425 . S
C909 C906 1.409 . S
C909 C907 1.415 . S
C910 H900 0.930 . S
C910 C908 1.419 . S
C910 C911 1.362 . S
C911 H901 0.930 . S
C911 C904 1.409 . S
C911 C910 1.362 . S
H912 C918 0.930 . S
H913 C921 0.930 . S
H914 C922 0.930 . S
H915 C923 0.930 . S
H916 C926 0.930 . S
H917 C927 0.930 . S
C918 H912 0.930 . S
C918 C919 1.355 . S
C918 C920 1.415 . S
C919 C918 1.355 . S
C919 C921 1.419 . S
C920 C918 1.415 . S
C920 C925 1.425 . S
C920 C927 1.409 . S
C921 H913 0.930 . S
C921 C919 1.419 . S
C921 C922 1.362 . S
C922 H914 0.930 . S
C922 C921 1.362 . S
C922 C925 1.409 . S
C923 H915 0.930 . S
C923 C924 1.355 . S
C923 C925 1.415 . S
C924 C923 1.355 . S
C924 C926 1.419 . S
C925 C920 1.425 . S
C925 C922 1.409 . S
C925 C923 1.415 . S
C926 H916 0.930 . S
C926 C924 1.419 . S
C926 C927 1.362 . S
C927 H917 0.930 . S
C927 C920 1.409 . S
C927 C926 1.362 . S
H928 C934 0.930 . S
H929 C937 0.930 . S
H930 C938 0.930 . S
H931 C939 0.930 . S
H932 C942 0.930 1_655 S
H933 C943 0.930 1_655 S
C934 H928 0.930 . S
C934 C935 1.355 . S
C934 C936 1.415 . S
C935 C934 1.355 . S
C935 C937 1.419 . S
C936 C934 1.415 . S
C936 C941 1.425 . S
C936 C943 1.409 . S
C937 H929 0.930 . S
C937 C935 1.419 . S
C937 C938 1.362 . S
C938 H930 0.930 . S
C938 C937 1.362 . S
C938 C941 1.409 . S
C939 H931 0.930 . S
C939 C940 1.355 . S
C939 C941 1.415 . S
C940 C939 1.355 . S
C940 C942 1.419 . S
C941 C936 1.425 . S
C941 C938 1.409 . S
C941 C939 1.415 . S
C942 H932 0.930 1_455 S
C942 C940 1.419 . S
C942 C943 1.362 . S
C943 H933 0.930 1_455 S
C943 C936 1.409 . S
C943 C942 1.362 . S
H944 C950 0.930 . S
H945 C953 0.930 1_565 S
H946 C954 0.936 . S
H947 C955 0.930 . S
H948 C958 0.930 . S
H949 C959 0.930 . S
C950 H944 0.930 . S
C950 C951 1.355 . S
C950 C952 1.415 . S
C951 C950 1.355 . S
C951 C953 1.419 . S
C952 C950 1.415 . S
C952 C957 1.425 . S
C952 C959 1.409 . S
C953 H945 0.930 1_545 S
C953 C951 1.419 . S
C953 C954 1.362 . S
C954 H946 0.936 . S
C954 C953 1.362 . S
C954 C957 1.409 . S
C955 H947 0.930 . S
C955 C956 1.355 . S
C955 C957 1.415 . S
C956 C955 1.355 . S
C956 C958 1.419 . S
C957 C952 1.425 . S
C957 C954 1.409 . S
C957 C955 1.415 . S
C958 H948 0.930 . S
C958 C956 1.419 . S
C958 C959 1.362 . S
C959 H949 0.930 . S
C959 C952 1.409 . S
C959 C958 1.362 . S
H960 C966 0.930 . S
H961 C969 0.930 . S
H962 C970 0.930 . S
H963 C971 0.930 . S
H964 C974 0.930 . S
H965 C975 0.930 . S
C966 H960 0.930 . S
C966 C967 1.355 . S
C966 C968 1.415 . S
C967 C966 1.355 . S
C967 C969 1.419 . S
C968 C966 1.415 . S
C968 C973 1.425 . S
C968 C975 1.409 . S
C969 H961 0.930 . S
C969 C967 1.419 . S
C969 C970 1.362 . S
C970 H962 0.930 . S
C970 C969 1.362 . S
C970 C973 1.409 . S
C971 H963 0.930 . S
C971 C972 1.355 . S
C971 C973 1.415 . S
C972 C971 1.355 . S
C972 C974 1.419 . S
C973 C968 1.425 . S
C973 C970 1.409 . S
C973 C971 1.415 . S
C974 H964 0.930 . S
C974 C972 1.419 . S
C974 C975 1.362 . S
C975 H965 0.930 . S
C975 C968 1.409 . S
C975 C974 1.362 . S
H976 C982 0.930 . S
H977 C985 0.930 . S
H978 C986 0.930 1_565 S
H979 C987 0.957 . S
H980 C990 0.930 . S
H981 C991 0.930 . S
C982 H976 0.930 . S
C982 C983 1.355 . S
C982 C984 1.415 . S
C983 C982 1.355 . S
C983 C985 1.419 . S
C984 C982 1.415 . S
C984 C989 1.425 . S
C984 C991 1.409 . S
C985 H977 0.930 . S
C985 C983 1.419 . S
C985 C986 1.362 . S
C986 H978 0.930 1_545 S
C986 C985 1.362 . S
C986 C989 1.409 . S
C987 H979 0.957 . S
C987 C988 1.355 . S
C987 C989 1.415 . S
C988 C987 1.355 . S
C988 C990 1.419 . S
C989 C984 1.425 . S
C989 C986 1.409 . S
C989 C987 1.415 . S
C990 H980 0.930 . S
C990 C988 1.419 . S
C990 C991 1.362 . S
C991 H981 0.930 . S
C991 C984 1.409 . S
C991 C990 1.362 . S
H992 C998 0.930 . S
H993 C1001 0.930 . S
H994 C1002 0.930 . S
H995 C1003 0.930 1_655 S
H996 C1006 0.930 . S
H997 C1007 0.930 . S
C998 H992 0.930 . S
C998 C999 1.355 . S
C998 C1000 1.415 . S
C999 C998 1.355 . S
C999 C1001 1.419 1_455 S
C1000 C998 1.415 . S
C1000 C1005 1.425 . S
C1000 C1007 1.409 . S
C1001 H993 0.930 . S
C1001 C999 1.419 1_655 S
C1001 C1002 1.362 . S
C1002 H994 0.930 . S
C1002 C1001 1.362 . S
C1002 C1005 1.409 1_655 S
C1003 H995 0.930 1_455 S
C1003 C1004 1.355 . S
C1003 C1005 1.415 . S
C1004 C1003 1.355 . S
C1004 C1006 1.419 . S
C1005 C1000 1.425 . S
C1005 C1002 1.409 1_455 S
C1005 C1003 1.415 . S
C1006 H996 0.930 . S
C1006 C1004 1.419 . S
C1006 C1007 1.362 . S
C1007 H997 0.930 . S
C1007 C1000 1.409 . S
C1007 C1006 1.362 . S
H1008 C1014 0.930 1_565 S
H1009 C1017 0.930 . S
H1010 C1018 0.930 . S
H1011 C1019 0.930 . S
H1012 C1022 0.930 . S
H1013 C1023 0.930 1_565 S
C1014 H1008 0.930 1_545 S
C1014 C1015 1.355 . S
C1014 C1016 1.415 . S
C1015 C1014 1.355 . S
C1015 C1017 1.419 . S
C1016 C1014 1.415 . S
C1016 C1021 1.425 . S
C1016 C1023 1.409 . S
C1017 H1009 0.930 . S
C1017 C1015 1.419 . S
C1017 C1018 1.362 . S
C1018 H1010 0.930 . S
C1018 C1017 1.362 . S
C1018 C1021 1.409 . S
C1019 H1011 0.930 . S
C1019 C1020 1.355 . S
C1019 C1021 1.415 . S
C1020 C1019 1.355 . S
C1020 C1022 1.419 . S
C1021 C1016 1.425 . S
C1021 C1018 1.409 . S
C1021 C1019 1.415 . S
C1022 H1012 0.930 . S
C1022 C1020 1.419 . S
C1022 C1023 1.362 . S
C1023 H1013 0.930 1_545 S
C1023 C1016 1.409 . S
C1023 C1022 1.362 . S
H1024 C1030 0.930 . S
H1025 C1033 0.930 . S
H1026 C1034 0.930 . S
H1027 C1035 0.930 . S
H1028 C1038 0.930 . S
H1029 C1039 0.930 . S
C1030 H1024 0.930 . S
C1030 C1031 1.355 1_455 S
C1030 C1032 1.415 . S
C1031 C1030 1.355 1_655 S
C1031 C1033 1.419 . S
C1032 C1030 1.415 . S
C1032 C1037 1.425 1_455 S
C1032 C1039 1.409 . S
C1033 H1025 0.930 . S
C1033 C1031 1.419 . S
C1033 C1034 1.362 . S
C1034 H1026 0.930 . S
C1034 C1033 1.362 . S
C1034 C1037 1.409 . S
C1035 H1027 0.930 . S
C1035 C1036 1.355 1_655 S
C1035 C1037 1.415 . S
C1036 C1035 1.355 1_455 S
C1036 C1038 1.419 . S
C1037 C1032 1.425 1_655 S
C1037 C1034 1.409 . S
C1037 C1035 1.415 . S
C1038 H1028 0.930 . S
C1038 C1036 1.419 . S
C1038 C1039 1.362 . S
C1039 H1029 0.930 . S
C1039 C1032 1.409 . S
C1039 C1038 1.362 . S
H1040 C1046 0.930 1_565 S
H1041 C1049 0.930 . S
H1042 C1050 0.930 . S
H1043 C1051 0.930 . S
H1044 C1054 0.937 . S
H1045 C1055 0.930 1_565 S
C1046 H1040 0.930 1_545 S
C1046 C1047 1.355 . S
C1046 C1048 1.415 . S
C1047 C1046 1.355 . S
C1047 C1049 1.419 . S
C1048 C1046 1.415 . S
C1048 C1053 1.425 . S
C1048 C1055 1.409 . S
C1049 H1041 0.930 . S
C1049 C1047 1.419 . S
C1049 C1050 1.362 . S
C1050 H1042 0.930 . S
C1050 C1049 1.362 . S
C1050 C1053 1.409 . S
C1051 H1043 0.930 . S
C1051 C1052 1.355 . S
C1051 C1053 1.415 . S
C1052 C1051 1.355 . S
C1052 C1054 1.419 . S
C1053 C1048 1.425 . S
C1053 C1050 1.409 . S
C1053 C1051 1.415 . S
C1054 H1044 0.937 . S
C1054 C1052 1.419 . S
C1054 C1055 1.362 . S
C1055 H1045 0.930 1_545 S
C1055 C1048 1.409 . S
C1055 C1054 1.362 . S
H1056 C1062 0.930 1_655 S
H1057 C1065 0.930 . S
H1058 C1066 0.930 . S
H1059 C1067 0.930 . S
H1060 C1070 0.930 . S
H1061 C1071 0.930 . S
C1062 H1056 0.930 1_455 S
C1062 C1063 1.355 . S
C1062 C1064 1.415 . S
C1063 C1062 1.355 . S
C1063 C1065 1.419 . S
C1064 C1062 1.415 . S
C1064 C1069 1.425 . S
C1064 C1071 1.409 1_455 S
C1065 H1057 0.930 . S
C1065 C1063 1.419 . S
C1065 C1066 1.362 . S
C1066 H1058 0.930 . S
C1066 C1065 1.362 . S
C1066 C1069 1.409 . S
C1067 H1059 0.930 . S
C1067 C1068 1.355 . S
C1067 C1069 1.415 . S
C1068 C1067 1.355 . S
C1068 C1070 1.419 1_455 S
C1069 C1064 1.425 . S
C1069 C1066 1.409 . S
C1069 C1067 1.415 . S
C1070 H1060 0.930 . S
C1070 C1068 1.419 1_655 S
C1070 C1071 1.362 . S
C1071 H1061 0.930 . S
C1071 C1064 1.409 1_655 S
C1071 C1070 1.362 . S
H1072 C1078 0.930 . S
H1073 C1081 0.930 . S
H1074 C1082 0.930 . S
H1075 C1083 0.930 . S
H1076 C1086 0.930 . S
H1077 C1087 0.930 . S
C1078 H1072 0.930 . S
C1078 C1079 1.355 . S
C1078 C1080 1.415 . S
C1079 C1078 1.355 . S
C1079 C1081 1.419 . S
C1080 C1078 1.415 . S
C1080 C1085 1.425 . S
C1080 C1087 1.409 . S
C1081 H1073 0.930 . S
C1081 C1079 1.419 . S
C1081 C1082 1.362 . S
C1082 H1074 0.930 . S
C1082 C1081 1.362 . S
C1082 C1085 1.409 . S
C1083 H1075 0.930 . S
C1083 C1084 1.355 . S
C1083 C1085 1.415 . S
C1084 C1083 1.355 . S
C1084 C1086 1.419 . S
C1085 C1080 1.425 . S
C1085 C1082 1.409 . S
C1085 C1083 1.415 . S
C1086 H1076 0.930 . S
C1086 C1084 1.419 . S
C1086 C1087 1.362 . S
C1087 H1077 0.930 . S
C1087 C1080 1.409 . S
C1087 C1086 1.362 . S
H1088 C1094 0.930 . S
H1089 C1097 0.930 . S
H1090 C1098 0.930 . S
H1091 C1099 0.930 . S
H1092 C1102 0.930 . S
H1093 C1103 0.930 . S
C1094 H1088 0.930 . S
C1094 C1095 1.355 1_565 S
C1094 C1096 1.415 1_565 S
C1095 C1094 1.355 1_545 S
C1095 C1097 1.419 . S
C1096 C1094 1.415 1_545 S
C1096 C1101 1.425 . S
C1096 C1103 1.409 1_545 S
C1097 H1089 0.930 . S
C1097 C1095 1.419 . S
C1097 C1098 1.362 . S
C1098 H1090 0.930 . S
C1098 C1097 1.362 . S
C1098 C1101 1.409 . S
C1099 H1091 0.930 . S
C1099 C1100 1.355 . S
C1099 C1101 1.415 . S
C1100 C1099 1.355 . S
C1100 C1102 1.419 1_545 S
C1101 C1096 1.425 . S
C1101 C1098 1.409 . S
C1101 C1099 1.415 . S
C1102 H1092 0.930 . S
C1102 C1100 1.419 1_565 S
C1102 C1103 1.362 . S
C1103 H1093 0.930 . S
C1103 C1096 1.409 1_565 S
C1103 C1102 1.362 . S
H1104 C1110 0.930 . S
H1105 C1113 0.930 1_655 S
H1106 C1114 0.930 . S
H1107 C1115 0.930 1_655 S
H1108 C1118 0.930 . S
H1109 C1119 0.930 . S
C1110 H1104 0.930 . S
C1110 C1111 1.355 . S
C1110 C1112 1.415 . S
C1111 C1110 1.355 . S
C1111 C1113 1.419 . S
C1112 C1110 1.415 . S
C1112 C1117 1.425 . S
C1112 C1119 1.409 . S
C1113 H1105 0.930 1_455 S
C1113 C1111 1.419 . S
C1113 C1114 1.362 1_455 S
C1114 H1106 0.930 . S
C1114 C1113 1.362 1_655 S
C1114 C1117 1.409 1_655 S
C1115 H1107 0.930 1_455 S
C1115 C1116 1.355 . S
C1115 C1117 1.415 . S
C1116 C1115 1.355 . S
C1116 C1118 1.419 . S
C1117 C1112 1.425 . S
C1117 C1114 1.409 1_455 S
C1117 C1115 1.415 . S
C1118 H1108 0.930 . S
C1118 C1116 1.419 . S
C1118 C1119 1.362 . S
C1119 H1109 0.930 . S
C1119 C1112 1.409 . S
C1119 C1118 1.362 . S
H1120 C1126 0.930 . S
H1121 C1129 0.930 . S
H1122 C1130 0.930 . S
H1123 C1131 0.930 . S
H1124 C1134 0.930 1_565 S
H1125 C1135 0.959 . S
C1126 H1120 0.930 . S
C1126 C1127 1.355 . S
C1126 C1128 1.415 . S
C1127 C1126 1.355 . S
C1127 C1129 1.419 . S
C1128 C1126 1.415 . S
C1128 C1133 1.425 . S
C1128 C1135 1.385 1_545 S
C1129 H1121 0.930 . S
C1129 C1127 1.419 . S
C1129 C1130 1.362 . S
C1130 H1122 0.930 . S
C1130 C1129 1.362 . S
C1130 C1133 1.409 . S
C1131 H1123 0.930 . S
C1131 C1132 1.355 . S
C1131 C1133 1.415 . S
C1132 C1131 1.355 . S
C1132 C1134 1.419 . S
C1133 C1128 1.425 . S
C1133 C1130 1.409 . S
C1133 C1131 1.415 . S
C1134 H1124 0.930 1_545 S
C1134 C1132 1.419 . S
C1134 C1135 1.359 1_545 S
C1135 H1125 0.959 . S
C1135 C1128 1.385 1_565 S
C1135 C1134 1.359 1_565 S
H1136 C1142 0.930 . S
H1137 C1145 0.930 . S
H1138 C1146 0.930 . S
H1139 C1147 0.930 . S
H1140 C1150 0.930 . S
H1141 C1151 0.930 . S
C1142 H1136 0.930 . S
C1142 C1143 1.355 . S
C1142 C1144 1.415 . S
C1143 C1142 1.355 . S
C1143 C1145 1.419 . S
C1144 C1142 1.415 . S
C1144 C1149 1.425 . S
C1144 C1151 1.409 . S
C1145 H1137 0.930 . S
C1145 C1143 1.419 . S
C1145 C1146 1.362 . S
C1146 H1138 0.930 . S
C1146 C1145 1.362 . S
C1146 C1149 1.409 . S
C1147 H1139 0.930 . S
C1147 C1148 1.355 . S
C1147 C1149 1.415 . S
C1148 C1147 1.355 . S
C1148 C1150 1.419 . S
C1149 C1144 1.425 . S
C1149 C1146 1.409 . S
C1149 C1147 1.415 . S
C1150 H1140 0.930 . S
C1150 C1148 1.419 . S
C1150 C1151 1.362 . S
C1151 H1141 0.930 . S
C1151 C1144 1.409 . S
C1151 C1150 1.362 . S
H1152 C1158 0.930 . S
H1153 C1161 0.930 . S
H1154 C1162 0.930 . S
H1155 C1163 0.930 . S
H1156 C1166 0.930 . S
H1157 C1167 0.930 . S
C1158 H1152 0.930 . S
C1158 C1159 1.355 . S
C1158 C1160 1.415 . S
C1159 C1158 1.355 . S
C1159 C1161 1.419 1_545 S
C1160 C1158 1.415 . S
C1160 C1165 1.425 1_545 S
C1160 C1167 1.409 . S
C1161 H1153 0.930 . S
C1161 C1159 1.419 1_565 S
C1161 C1162 1.362 . S
C1162 H1154 0.930 . S
C1162 C1161 1.362 . S
C1162 C1165 1.409 . S
C1163 H1155 0.930 . S
C1163 C1164 1.355 1_565 S
C1163 C1165 1.415 . S
C1164 C1163 1.355 1_545 S
C1164 C1166 1.419 . S
C1165 C1160 1.425 1_565 S
C1165 C1162 1.409 . S
C1165 C1163 1.415 . S
C1166 H1156 0.930 . S
C1166 C1164 1.419 . S
C1166 C1167 1.362 . S
C1167 H1157 0.930 . S
C1167 C1160 1.409 . S
C1167 C1166 1.362 . S
H1168 C1174 0.930 1_655 S
H1169 C1177 0.930 . S
H1170 C1178 0.930 . S
H1171 C1179 0.930 . S
H1172 C1182 0.954 . S
H1173 C1183 0.930 . S
C1174 H1168 0.930 1_455 S
C1174 C1175 1.355 . S
C1174 C1176 1.415 . S
C1175 C1174 1.355 . S
C1175 C1177 1.419 . S
C1176 C1174 1.415 . S
C1176 C1181 1.425 . S
C1176 C1183 1.409 1_455 S
C1177 H1169 0.930 . S
C1177 C1175 1.419 . S
C1177 C1178 1.362 . S
C1178 H1170 0.930 . S
C1178 C1177 1.362 . S
C1178 C1181 1.409 . S
C1179 H1171 0.930 . S
C1179 C1180 1.355 . S
C1179 C1181 1.415 . S
C1180 C1179 1.355 . S
C1180 C1182 1.386 1_455 S
C1181 C1176 1.425 . S
C1181 C1178 1.409 . S
C1181 C1179 1.415 . S
C1182 H1172 0.954 . S
C1182 C1180 1.386 1_655 S
C1182 C1183 1.372 . S
C1183 H1173 0.930 . S
C1183 C1176 1.409 1_655 S
C1183 C1182 1.372 . S
H1184 C1190 0.930 . S
H1185 C1193 0.930 . S
H1186 C1194 0.930 . S
H1187 C1195 0.930 . S
H1188 C1198 0.930 1_565 S
H1189 C1199 0.916 1_565 S
C1190 H1184 0.930 . S
C1190 C1191 1.355 . S
C1190 C1192 1.415 . S
C1191 C1190 1.355 . S
C1191 C1193 1.419 . S
C1192 C1190 1.415 . S
C1192 C1197 1.425 . S
C1192 C1199 1.421 . S
C1193 H1185 0.930 . S
C1193 C1191 1.419 . S
C1193 C1194 1.362 . S
C1194 H1186 0.930 . S
C1194 C1193 1.362 . S
C1194 C1197 1.409 . S
C1195 H1187 0.930 . S
C1195 C1196 1.355 . S
C1195 C1197 1.415 . S
C1196 C1195 1.355 . S
C1196 C1198 1.419 . S
C1197 C1192 1.425 . S
C1197 C1194 1.409 . S
C1197 C1195 1.415 . S
C1198 H1188 0.930 1_545 S
C1198 C1196 1.419 . S
C1198 C1199 1.364 . S
C1199 H1189 0.916 1_545 S
C1199 C1192 1.421 . S
C1199 C1198 1.364 . S
H1200 C1206 0.930 . S
H1201 C1209 0.930 . S
H1202 C1210 0.930 . S
H1203 C1211 0.930 . S
H1204 C1214 0.930 . S
H1205 C1215 0.930 . S
C1206 H1200 0.930 . S
C1206 C1207 1.355 . S
C1206 C1208 1.415 . S
C1207 C1206 1.355 . S
C1207 C1209 1.419 1_455 S
C1208 C1206 1.415 . S
C1208 C1213 1.425 1_455 S
C1208 C1215 1.409 . S
C1209 H1201 0.930 . S
C1209 C1207 1.419 1_655 S
C1209 C1210 1.362 . S
C1210 H1202 0.930 . S
C1210 C1209 1.362 . S
C1210 C1213 1.409 . S
C1211 H1203 0.930 . S
C1211 C1212 1.355 1_655 S
C1211 C1213 1.415 . S
C1212 C1211 1.355 1_455 S
C1212 C1214 1.419 . S
C1213 C1208 1.425 1_655 S
C1213 C1210 1.409 . S
C1213 C1211 1.415 . S
C1214 H1204 0.930 . S
C1214 C1212 1.419 . S
C1214 C1215 1.362 . S
C1215 H1205 0.930 . S
C1215 C1208 1.409 . S
C1215 C1214 1.362 . S
H1216 C1222 0.930 . S
H1217 C1225 0.930 . S
H1218 C1226 0.930 . S
H1219 C1227 0.930 . S
H1220 C1230 0.930 . S
H1221 C1231 0.930 . S
C1222 H1216 0.930 . S
C1222 C1223 1.355 . S
C1222 C1224 1.415 . S
C1223 C1222 1.355 . S
C1223 C1225 1.419 . S
C1224 C1222 1.415 . S
C1224 C1229 1.425 . S
C1224 C1231 1.409 . S
C1225 H1217 0.930 . S
C1225 C1223 1.419 . S
C1225 C1226 1.362 . S
C1226 H1218 0.930 . S
C1226 C1225 1.362 . S
C1226 C1229 1.409 . S
C1227 H1219 0.930 . S
C1227 C1228 1.355 . S
C1227 C1229 1.415 . S
C1228 C1227 1.355 . S
C1228 C1230 1.419 . S
C1229 C1224 1.425 . S
C1229 C1226 1.409 . S
C1229 C1227 1.415 . S
C1230 H1220 0.930 . S
C1230 C1228 1.419 . S
C1230 C1231 1.362 . S
C1231 H1221 0.930 . S
C1231 C1224 1.409 . S
C1231 C1230 1.362 . S
H1232 C1238 0.930 . S
H1233 C1241 0.930 . S
H1234 C1242 0.930 . S
H1235 C1243 0.930 1_556 S
H1236 C1246 0.930 . S
H1237 C1247 0.930 . S
C1238 H1232 0.930 . S
C1238 C1239 1.355 . S
C1238 C1240 1.415 . S
C1239 C1238 1.355 . S
C1239 C1241 1.419 1_554 S
C1240 C1238 1.415 . S
C1240 C1245 1.425 . S
C1240 C1247 1.409 . S
C1241 H1233 0.930 . S
C1241 C1239 1.419 1_556 S
C1241 C1242 1.362 . S
C1242 H1234 0.930 . S
C1242 C1241 1.362 . S
C1242 C1245 1.409 1_556 S
C1243 H1235 0.930 1_554 S
C1243 C1244 1.355 . S
C1243 C1245 1.415 . S
C1244 C1243 1.355 . S
C1244 C1246 1.419 . S
C1245 C1240 1.425 . S
C1245 C1242 1.409 1_554 S
C1245 C1243 1.415 . S
C1246 H1236 0.930 . S
C1246 C1244 1.419 . S
C1246 C1247 1.362 . S
C1247 H1237 0.930 . S
C1247 C1240 1.409 . S
C1247 C1246 1.362 . S
H1248 C1254 0.930 . S
H1249 C1257 0.930 . S
H1250 C1258 0.930 . S
H1251 C1259 0.930 . S
H1252 C1262 0.930 . S
H1253 C1263 0.930 . S
C1254 H1248 0.930 . S
C1254 C1255 1.355 1_556 S
C1254 C1256 1.415 . S
C1255 C1254 1.355 1_554 S
C1255 C1257 1.419 . S
C1256 C1254 1.415 . S
C1256 C1261 1.425 1_556 S
C1256 C1263 1.409 . S
C1257 H1249 0.930 . S
C1257 C1255 1.419 . S
C1257 C1258 1.362 . S
C1258 H1250 0.930 . S
C1258 C1257 1.362 . S
C1258 C1261 1.409 . S
C1259 H1251 0.930 . S
C1259 C1260 1.355 . S
C1259 C1261 1.415 . S
C1260 C1259 1.355 . S
C1260 C1262 1.419 1_554 S
C1261 C1256 1.425 1_554 S
C1261 C1258 1.409 . S
C1261 C1259 1.415 . S
C1262 H1252 0.930 . S
C1262 C1260 1.419 1_556 S
C1262 C1263 1.362 . S
C1263 H1253 0.930 . S
C1263 C1256 1.409 . S
C1263 C1262 1.362 . S
H1264 C1270 0.930 . S
H1265 C1273 0.930 . S
H1266 C1274 0.930 . S
H1267 C1275 0.930 . S
H1268 C1278 0.930 . S
H1269 C1279 0.930 . S
C1270 H1264 0.930 . S
C1270 C1271 1.355 1_556 S
C1270 C1272 1.415 . S
C1271 C1270 1.355 1_554 S
C1271 C1273 1.419 . S
C1272 C1270 1.415 . S
C1272 C1277 1.425 1_556 S
C1272 C1279 1.409 . S
C1273 H1265 0.930 . S
C1273 C1271 1.419 . S
C1273 C1274 1.362 . S
C1274 H1266 0.930 . S
C1274 C1273 1.362 . S
C1274 C1277 1.409 . S
C1275 H1267 0.930 . S
C1275 C1276 1.355 1_554 S
C1275 C1277 1.415 . S
C1276 C1275 1.355 1_556 S
C1276 C1278 1.419 . S
C1277 C1272 1.425 1_554 S
C1277 C1274 1.409 . S
C1277 C1275 1.415 . S
C1278 H1268 0.930 . S
C1278 C1276 1.419 . S
C1278 C1279 1.362 . S
C1279 H1269 0.930 . S
C1279 C1272 1.409 . S
C1279 C1278 1.362 . S
H1280 C1286 0.930 . S
H1281 C1289 0.930 . S
H1282 C1290 0.930 . S
H1283 C1291 0.930 . S
H1284 C1294 0.930 . S
H1285 C1295 0.930 . S
C1286 H1280 0.930 . S
C1286 C1287 1.355 . S
C1286 C1288 1.415 . S
C1287 C1286 1.355 . S
C1287 C1289 1.419 . S
C1288 C1286 1.415 . S
C1288 C1293 1.425 . S
C1288 C1295 1.409 . S
C1289 H1281 0.930 . S
C1289 C1287 1.419 . S
C1289 C1290 1.362 . S
C1290 H1282 0.930 . S
C1290 C1289 1.362 . S
C1290 C1293 1.409 . S
C1291 H1283 0.930 . S
C1291 C1292 1.355 . S
C1291 C1293 1.415 . S
C1292 C1291 1.355 . S
C1292 C1294 1.419 . S
C1293 C1288 1.425 . S
C1293 C1290 1.409 . S
C1293 C1291 1.415 . S
C1294 H1284 0.930 . S
C1294 C1292 1.419 . S
C1294 C1295 1.362 . S
C1295 H1285 0.930 . S
C1295 C1288 1.409 . S
C1295 C1294 1.362 . S
H1296 C1302 0.930 . S
H1297 C1305 0.930 . S
H1298 C1306 0.930 . S
H1299 C1307 0.930 . S
H1300 C1310 0.930 . S
H1301 C1311 0.930 . S
C1302 H1296 0.930 . S
C1302 C1303 1.355 . S
C1302 C1304 1.415 . S
C1303 C1302 1.355 . S
C1303 C1305 1.419 1_554 S
C1304 C1302 1.415 . S
C1304 C1309 1.425 1_554 S
C1304 C1311 1.409 . S
C1305 H1297 0.930 . S
C1305 C1303 1.419 1_556 S
C1305 C1306 1.362 . S
C1306 H1298 0.930 . S
C1306 C1305 1.362 . S
C1306 C1309 1.409 . S
C1307 H1299 0.930 . S
C1307 C1308 1.355 1_556 S
C1307 C1309 1.415 . S
C1308 C1307 1.355 1_554 S
C1308 C1310 1.419 . S
C1309 C1304 1.425 1_556 S
C1309 C1306 1.409 . S
C1309 C1307 1.415 . S
C1310 H1300 0.930 . S
C1310 C1308 1.419 . S
C1310 C1311 1.362 . S
C1311 H1301 0.930 . S
C1311 C1304 1.409 . S
C1311 C1310 1.362 . S
H1312 C1318 0.930 . S
H1313 C1321 0.930 . S
H1314 C1322 0.930 . S
H1315 C1323 0.930 . S
H1316 C1326 0.930 . S
H1317 C1327 0.930 . S
C1318 H1312 0.930 . S
C1318 C1319 1.355 . S
C1318 C1320 1.415 . S
C1319 C1318 1.355 . S
C1319 C1321 1.419 . S
C1320 C1318 1.415 . S
C1320 C1325 1.425 . S
C1320 C1327 1.409 . S
C1321 H1313 0.930 . S
C1321 C1319 1.419 . S
C1321 C1322 1.362 . S
C1322 H1314 0.930 . S
C1322 C1321 1.362 . S
C1322 C1325 1.409 . S
C1323 H1315 0.930 . S
C1323 C1324 1.355 . S
C1323 C1325 1.415 . S
C1324 C1323 1.355 . S
C1324 C1326 1.419 . S
C1325 C1320 1.425 . S
C1325 C1322 1.409 . S
C1325 C1323 1.415 . S
C1326 H1316 0.930 . S
C1326 C1324 1.419 . S
C1326 C1327 1.362 . S
C1327 H1317 0.930 . S
C1327 C1320 1.409 . S
C1327 C1326 1.362 . S
H1328 C1334 0.930 . S
H1329 C1337 0.930 . S
H1330 C1338 0.930 . S
H1331 C1339 0.930 . S
H1332 C1342 0.930 . S
H1333 C1343 0.930 . S
C1334 H1328 0.930 . S
C1334 C1335 1.355 1_556 S
C1334 C1336 1.415 . S
C1335 C1334 1.355 1_554 S
C1335 C1337 1.419 . S
C1336 C1334 1.415 . S
C1336 C1341 1.425 1_556 S
C1336 C1343 1.409 . S
C1337 H1329 0.930 . S
C1337 C1335 1.419 . S
C1337 C1338 1.362 . S
C1338 H1330 0.930 . S
C1338 C1337 1.362 . S
C1338 C1341 1.409 . S
C1339 H1331 0.930 . S
C1339 C1340 1.355 . S
C1339 C1341 1.415 . S
C1340 C1339 1.355 . S
C1340 C1342 1.419 1_554 S
C1341 C1336 1.425 1_554 S
C1341 C1338 1.409 . S
C1341 C1339 1.415 . S
C1342 H1332 0.930 . S
C1342 C1340 1.419 1_556 S
C1342 C1343 1.362 . S
C1343 H1333 0.930 . S
C1343 C1336 1.409 . S
C1343 C1342 1.362 . S
H1344 C1350 0.930 . S
H1345 C1353 0.930 . S
H1346 C1354 0.930 . S
H1347 C1355 0.930 . S
H1348 C1358 0.930 . S
H1349 C1359 0.930 . S
C1350 H1344 0.930 . S
C1350 C1351 1.355 . S
C1350 C1352 1.415 . S
C1351 C1350 1.355 . S
C1351 C1353 1.419 . S
C1352 C1350 1.415 . S
C1352 C1357 1.425 . S
C1352 C1359 1.409 . S
C1353 H1345 0.930 . S
C1353 C1351 1.419 . S
C1353 C1354 1.362 . S
C1354 H1346 0.930 . S
C1354 C1353 1.362 . S
C1354 C1357 1.409 . S
C1355 H1347 0.930 . S
C1355 C1356 1.355 . S
C1355 C1357 1.415 . S
C1356 C1355 1.355 . S
C1356 C1358 1.419 . S
C1357 C1352 1.425 . S
C1357 C1354 1.409 . S
C1357 C1355 1.415 . S
C1358 H1348 0.930 . S
C1358 C1356 1.419 . S
C1358 C1359 1.362 . S
C1359 H1349 0.930 . S
C1359 C1352 1.409 . S
C1359 C1358 1.362 . S
H1360 C1366 0.930 . S
H1361 C1369 0.930 . S
H1362 C1370 0.930 . S
H1363 C1371 0.930 . S
H1364 C1374 0.930 . S
H1365 C1375 0.930 . S
C1366 H1360 0.930 . S
C1366 C1367 1.355 . S
C1366 C1368 1.415 . S
C1367 C1366 1.355 . S
C1367 C1369 1.419 . S
C1368 C1366 1.415 . S
C1368 C1373 1.425 . S
C1368 C1375 1.409 . S
C1369 H1361 0.930 . S
C1369 C1367 1.419 . S
C1369 C1370 1.362 . S
C1370 H1362 0.930 . S
C1370 C1369 1.362 . S
C1370 C1373 1.409 . S
C1371 H1363 0.930 . S
C1371 C1372 1.355 . S
C1371 C1373 1.415 . S
C1372 C1371 1.355 . S
C1372 C1374 1.419 . S
C1373 C1368 1.425 . S
C1373 C1370 1.409 . S
C1373 C1371 1.415 . S
C1374 H1364 0.930 . S
C1374 C1372 1.419 . S
C1374 C1375 1.362 . S
C1375 H1365 0.930 . S
C1375 C1368 1.409 . S
C1375 C1374 1.362 . S
H1376 C1382 0.930 . S
H1377 C1385 0.930 . S
H1378 C1386 0.930 . S
H1379 C1387 0.930 . S
H1380 C1390 0.930 . S
H1381 C1391 0.930 . S
C1382 H1376 0.930 . S
C1382 C1383 1.355 . S
C1382 C1384 1.415 . S
C1383 C1382 1.355 . S
C1383 C1385 1.419 . S
C1384 C1382 1.415 . S
C1384 C1389 1.425 . S
C1384 C1391 1.409 . S
C1385 H1377 0.930 . S
C1385 C1383 1.419 . S
C1385 C1386 1.362 . S
C1386 H1378 0.930 . S
C1386 C1385 1.362 . S
C1386 C1389 1.409 . S
C1387 H1379 0.930 . S
C1387 C1388 1.355 . S
C1387 C1389 1.415 . S
C1388 C1387 1.355 . S
C1388 C1390 1.419 . S
C1389 C1384 1.425 . S
C1389 C1386 1.409 . S
C1389 C1387 1.415 . S
C1390 H1380 0.930 . S
C1390 C1388 1.419 . S
C1390 C1391 1.362 . S
C1391 H1381 0.930 . S
C1391 C1384 1.409 . S
C1391 C1390 1.362 . S
H1392 C1398 0.930 . S
H1393 C1401 0.930 . S
H1394 C1402 0.930 . S
H1395 C1403 0.930 . S
H1396 C1406 0.930 . S
H1397 C1407 0.930 . S
C1398 H1392 0.930 . S
C1398 C1399 1.355 . S
C1398 C1400 1.415 . S
C1399 C1398 1.355 . S
C1399 C1401 1.419 . S
C1400 C1398 1.415 . S
C1400 C1405 1.425 . S
C1400 C1407 1.409 . S
C1401 H1393 0.930 . S
C1401 C1399 1.419 . S
C1401 C1402 1.362 . S
C1402 H1394 0.930 . S
C1402 C1401 1.362 . S
C1402 C1405 1.409 . S
C1403 H1395 0.930 . S
C1403 C1404 1.355 . S
C1403 C1405 1.415 . S
C1404 C1403 1.355 . S
C1404 C1406 1.419 . S
C1405 C1400 1.425 . S
C1405 C1402 1.409 . S
C1405 C1403 1.415 . S
C1406 H1396 0.930 . S
C1406 C1404 1.419 . S
C1406 C1407 1.362 . S
C1407 H1397 0.930 . S
C1407 C1400 1.409 . S
C1407 C1406 1.362 . S
H1408 C1414 0.930 . S
H1409 C1417 0.930 . S
H1410 C1418 0.930 . S
H1411 C1419 0.930 . S
H1412 C1422 0.930 . S
H1413 C1423 0.930 . S
C1414 H1408 0.930 . S
C1414 C1415 1.355 . S
C1414 C1416 1.415 . S
C1415 C1414 1.355 . S
C1415 C1417 1.419 . S
C1416 C1414 1.415 . S
C1416 C1421 1.425 . S
C1416 C1423 1.409 . S
C1417 H1409 0.930 . S
C1417 C1415 1.419 . S
C1417 C1418 1.362 . S
C1418 H1410 0.930 . S
C1418 C1417 1.362 . S
C1418 C1421 1.409 . S
C1419 H1411 0.930 . S
C1419 C1420 1.355 . S
C1419 C1421 1.415 . S
C1420 C1419 1.355 . S
C1420 C1422 1.419 . S
C1421 C1416 1.425 . S
C1421 C1418 1.409 . S
C1421 C1419 1.415 . S
C1422 H1412 0.930 . S
C1422 C1420 1.419 . S
C1422 C1423 1.362 . S
C1423 H1413 0.930 . S
C1423 C1416 1.409 . S
C1423 C1422 1.362 . S
H1424 C1430 0.930 . S
H1425 C1433 0.930 . S
H1426 C1434 0.930 . S
H1427 C1435 0.930 . S
H1428 C1438 0.930 . S
H1429 C1439 0.930 . S
C1430 H1424 0.930 . S
C1430 C1431 1.355 . S
C1430 C1432 1.415 . S
C1431 C1430 1.355 . S
C1431 C1433 1.419 . S
C1432 C1430 1.415 . S
C1432 C1437 1.425 . S
C1432 C1439 1.409 . S
C1433 H1425 0.930 . S
C1433 C1431 1.419 . S
C1433 C1434 1.362 . S
C1434 H1426 0.930 . S
C1434 C1433 1.362 . S
C1434 C1437 1.409 . S
C1435 H1427 0.930 . S
C1435 C1436 1.355 . S
C1435 C1437 1.415 . S
C1436 C1435 1.355 . S
C1436 C1438 1.419 . S
C1437 C1432 1.425 . S
C1437 C1434 1.409 . S
C1437 C1435 1.415 . S
C1438 H1428 0.930 . S
C1438 C1436 1.419 . S
C1438 C1439 1.362 . S
C1439 H1429 0.930 . S
C1439 C1432 1.409 . S
C1439 C1438 1.362 . S
H1440 C1446 0.930 . S
H1441 C1449 0.930 . S
H1442 C1450 0.930 . S
H1443 C1451 0.930 . S
H1444 C1454 0.930 . S
H1445 C1455 0.930 . S
C1446 H1440 0.930 . S
C1446 C1447 1.355 . S
C1446 C1448 1.415 . S
C1447 C1446 1.355 . S
C1447 C1449 1.419 . S
C1448 C1446 1.415 . S
C1448 C1453 1.425 . S
C1448 C1455 1.409 . S
C1449 H1441 0.930 . S
C1449 C1447 1.419 . S
C1449 C1450 1.362 . S
C1450 H1442 0.930 . S
C1450 C1449 1.362 . S
C1450 C1453 1.409 . S
C1451 H1443 0.930 . S
C1451 C1452 1.355 . S
C1451 C1453 1.415 . S
C1452 C1451 1.355 . S
C1452 C1454 1.419 . S
C1453 C1448 1.425 . S
C1453 C1450 1.409 . S
C1453 C1451 1.415 . S
C1454 H1444 0.930 . S
C1454 C1452 1.419 . S
C1454 C1455 1.362 . S
C1455 H1445 0.930 . S
C1455 C1448 1.409 . S
C1455 C1454 1.362 . S
H1456 C1462 0.930 . S
H1457 C1465 0.930 . S
H1458 C1466 0.930 . S
H1459 C1467 0.930 . S
H1460 C1470 0.930 . S
H1461 C1471 0.930 . S
C1462 H1456 0.930 . S
C1462 C1463 1.355 . S
C1462 C1464 1.415 . S
C1463 C1462 1.355 . S
C1463 C1465 1.419 . S
C1464 C1462 1.415 . S
C1464 C1469 1.425 . S
C1464 C1471 1.409 . S
C1465 H1457 0.930 . S
C1465 C1463 1.419 . S
C1465 C1466 1.362 . S
C1466 H1458 0.930 . S
C1466 C1465 1.362 . S
C1466 C1469 1.409 . S
C1467 H1459 0.930 . S
C1467 C1468 1.355 . S
C1467 C1469 1.415 . S
C1468 C1467 1.355 . S
C1468 C1470 1.419 . S
C1469 C1464 1.425 . S
C1469 C1466 1.409 . S
C1469 C1467 1.415 . S
C1470 H1460 0.930 . S
C1470 C1468 1.419 . S
C1470 C1471 1.362 . S
C1471 H1461 0.930 . S
C1471 C1464 1.409 . S
C1471 C1470 1.362 . S
H1472 C1478 0.930 . S
H1473 C1481 0.930 . S
H1474 C1482 0.930 . S
H1475 C1483 0.930 . S
H1476 C1486 0.930 . S
H1477 C1487 0.930 . S
C1478 H1472 0.930 . S
C1478 C1479 1.355 . S
C1478 C1480 1.415 . S
C1479 C1478 1.355 . S
C1479 C1481 1.419 . S
C1480 C1478 1.415 . S
C1480 C1485 1.425 . S
C1480 C1487 1.409 . S
C1481 H1473 0.930 . S
C1481 C1479 1.419 . S
C1481 C1482 1.362 . S
C1482 H1474 0.930 . S
C1482 C1481 1.362 . S
C1482 C1485 1.409 . S
C1483 H1475 0.930 . S
C1483 C1484 1.355 . S
C1483 C1485 1.415 . S
C1484 C1483 1.355 . S
C1484 C1486 1.419 . S
C1485 C1480 1.425 . S
C1485 C1482 1.409 . S
C1485 C1483 1.415 . S
C1486 H1476 0.930 . S
C1486 C1484 1.419 . S
C1486 C1487 1.362 . S
C1487 H1477 0.930 . S
C1487 C1480 1.409 . S
C1487 C1486 1.362 . S
H1488 C1494 0.930 . S
H1489 C1497 0.930 . S
H1490 C1498 0.930 . S
H1491 C1499 0.930 . S
H1492 C1502 0.930 . S
H1493 C1503 0.930 . S
C1494 H1488 0.930 . S
C1494 C1495 1.355 . S
C1494 C1496 1.415 . S
C1495 C1494 1.355 . S
C1495 C1497 1.419 . S
C1496 C1494 1.415 . S
C1496 C1501 1.425 . S
C1496 C1503 1.409 . S
C1497 H1489 0.930 . S
C1497 C1495 1.419 . S
C1497 C1498 1.362 . S
C1498 H1490 0.930 . S
C1498 C1497 1.362 . S
C1498 C1501 1.409 . S
C1499 H1491 0.930 . S
C1499 C1500 1.355 . S
C1499 C1501 1.415 . S
C1500 C1499 1.355 . S
C1500 C1502 1.419 . S
C1501 C1496 1.425 . S
C1501 C1498 1.409 . S
C1501 C1499 1.415 . S
C1502 H1492 0.930 . S
C1502 C1500 1.419 . S
C1502 C1503 1.362 . S
C1503 H1493 0.930 . S
C1503 C1496 1.409 . S
C1503 C1502 1.362 . S
H1504 C1510 0.930 . S
H1505 C1513 0.930 . S
H1506 C1514 0.930 . S
H1507 C1515 0.930 . S
H1508 C1518 0.930 . S
H1509 C1519 0.930 . S
C1510 H1504 0.930 . S
C1510 C1511 1.355 . S
C1510 C1512 1.415 . S
C1511 C1510 1.355 . S
C1511 C1513 1.419 . S
C1512 C1510 1.415 . S
C1512 C1517 1.425 . S
C1512 C1519 1.409 . S
C1513 H1505 0.930 . S
C1513 C1511 1.419 . S
C1513 C1514 1.362 . S
C1514 H1506 0.930 . S
C1514 C1513 1.362 . S
C1514 C1517 1.409 . S
C1515 H1507 0.930 . S
C1515 C1516 1.355 . S
C1515 C1517 1.415 . S
C1516 C1515 1.355 . S
C1516 C1518 1.419 . S
C1517 C1512 1.425 . S
C1517 C1514 1.409 . S
C1517 C1515 1.415 . S
C1518 H1508 0.930 . S
C1518 C1516 1.419 . S
C1518 C1519 1.362 . S
C1519 H1509 0.930 . S
C1519 C1512 1.409 . S
C1519 C1518 1.362 . S
H1520 C1526 0.930 . S
H1521 C1529 0.930 . S
H1522 C1530 0.930 . S
H1523 C1531 0.930 . S
H1524 C1534 0.930 . S
H1525 C1535 0.930 . S
C1526 H1520 0.930 . S
C1526 C1527 1.355 . S
C1526 C1528 1.415 . S
C1527 C1526 1.355 . S
C1527 C1529 1.419 . S
C1528 C1526 1.415 . S
C1528 C1533 1.425 . S
C1528 C1535 1.409 . S
C1529 H1521 0.930 . S
C1529 C1527 1.419 . S
C1529 C1530 1.362 . S
C1530 H1522 0.930 . S
C1530 C1529 1.362 . S
C1530 C1533 1.409 . S
C1531 H1523 0.930 . S
C1531 C1532 1.355 . S
C1531 C1533 1.415 . S
C1532 C1531 1.355 . S
C1532 C1534 1.419 . S
C1533 C1528 1.425 . S
C1533 C1530 1.409 . S
C1533 C1531 1.415 . S
C1534 H1524 0.930 . S
C1534 C1532 1.419 . S
C1534 C1535 1.362 . S
C1535 H1525 0.930 . S
C1535 C1528 1.409 . S
C1535 C1534 1.362 . S
H1536 C1542 0.930 . S
H1537 C1545 0.930 . S
H1538 C1546 0.930 . S
H1539 C1547 0.930 . S
H1540 C1550 0.930 . S
H1541 C1551 0.930 . S
C1542 H1536 0.930 . S
C1542 C1543 1.355 . S
C1542 C1544 1.415 . S
C1543 C1542 1.355 . S
C1543 C1545 1.419 . S
C1544 C1542 1.415 . S
C1544 C1549 1.425 . S
C1544 C1551 1.409 . S
C1545 H1537 0.930 . S
C1545 C1543 1.419 . S
C1545 C1546 1.362 . S
C1546 H1538 0.930 . S
C1546 C1545 1.362 . S
C1546 C1549 1.409 . S
C1547 H1539 0.930 . S
C1547 C1548 1.355 . S
C1547 C1549 1.415 . S
C1548 C1547 1.355 . S
C1548 C1550 1.419 . S
C1549 C1544 1.425 . S
C1549 C1546 1.409 . S
C1549 C1547 1.415 . S
C1550 H1540 0.930 . S
C1550 C1548 1.419 . S
C1550 C1551 1.362 . S
C1551 H1541 0.930 . S
C1551 C1544 1.409 . S
C1551 C1550 1.362 . S
H1552 C1558 0.930 . S
H1553 C1561 0.930 . S
H1554 C1562 0.930 . S
H1555 C1563 0.930 . S
H1556 C1566 0.930 . S
H1557 C1567 0.930 . S
C1558 H1552 0.930 . S
C1558 C1559 1.355 . S
C1558 C1560 1.415 . S
C1559 C1558 1.355 . S
C1559 C1561 1.419 . S
C1560 C1558 1.415 . S
C1560 C1565 1.425 . S
C1560 C1567 1.409 . S
C1561 H1553 0.930 . S
C1561 C1559 1.419 . S
C1561 C1562 1.362 . S
C1562 H1554 0.930 . S
C1562 C1561 1.362 . S
C1562 C1565 1.409 . S
C1563 H1555 0.930 . S
C1563 C1564 1.355 . S
C1563 C1565 1.415 . S
C1564 C1563 1.355 . S
C1564 C1566 1.419 . S
C1565 C1560 1.425 . S
C1565 C1562 1.409 . S
C1565 C1563 1.415 . S
C1566 H1556 0.930 . S
C1566 C1564 1.419 . S
C1566 C1567 1.362 . S
C1567 H1557 0.930 . S
C1567 C1560 1.409 . S
C1567 C1566 1.362 . S
H1568 C1574 0.930 . S
H1569 C1577 0.930 . S
H1570 C1578 0.930 . S
H1571 C1579 0.930 . S
H1572 C1582 0.930 . S
H1573 C1583 0.930 . S
C1574 H1568 0.930 . S
C1574 C1575 1.355 . S
C1574 C1576 1.415 . S
C1575 C1574 1.355 . S
C1575 C1577 1.419 . S
C1576 C1574 1.415 . S
C1576 C1581 1.425 . S
C1576 C1583 1.409 . S
C1577 H1569 0.930 . S
C1577 C1575 1.419 . S
C1577 C1578 1.362 . S
C1578 H1570 0.930 . S
C1578 C1577 1.362 . S
C1578 C1581 1.409 . S
C1579 H1571 0.930 . S
C1579 C1580 1.355 . S
C1579 C1581 1.415 . S
C1580 C1579 1.355 . S
C1580 C1582 1.419 . S
C1581 C1576 1.425 . S
C1581 C1578 1.409 . S
C1581 C1579 1.415 . S
C1582 H1572 0.930 . S
C1582 C1580 1.419 . S
C1582 C1583 1.362 . S
C1583 H1573 0.930 . S
C1583 C1576 1.409 . S
C1583 C1582 1.362 . S
H1584 C1590 0.930 . S
H1585 C1593 0.930 . S
H1586 C1594 0.930 . S
H1587 C1595 0.930 . S
H1588 C1598 0.930 . S
H1589 C1599 0.930 . S
C1590 H1584 0.930 . S
C1590 C1591 1.355 . S
C1590 C1592 1.415 . S
C1591 C1590 1.355 . S
C1591 C1593 1.419 . S
C1592 C1590 1.415 . S
C1592 C1597 1.425 . S
C1592 C1599 1.409 . S
C1593 H1585 0.930 . S
C1593 C1591 1.419 . S
C1593 C1594 1.362 . S
C1594 H1586 0.930 . S
C1594 C1593 1.362 . S
C1594 C1597 1.409 . S
C1595 H1587 0.930 . S
C1595 C1596 1.355 . S
C1595 C1597 1.415 . S
C1596 C1595 1.355 . S
C1596 C1598 1.419 . S
C1597 C1592 1.425 . S
C1597 C1594 1.409 . S
C1597 C1595 1.415 . S
C1598 H1588 0.930 . S
C1598 C1596 1.419 . S
C1598 C1599 1.362 . S
C1599 H1589 0.930 . S
C1599 C1592 1.409 . S
C1599 C1598 1.362 . S
H1600 C1606 0.930 . S
H1601 C1609 0.930 . S
H1602 C1610 0.930 . S
H1603 C1611 0.930 . S
H1604 C1614 0.930 . S
H1605 C1615 0.930 . S
C1606 H1600 0.930 . S
C1606 C1607 1.355 . S
C1606 C1608 1.415 . S
C1607 C1606 1.355 . S
C1607 C1609 1.419 . S
C1608 C1606 1.415 . S
C1608 C1613 1.425 . S
C1608 C1615 1.409 . S
C1609 H1601 0.930 . S
C1609 C1607 1.419 . S
C1609 C1610 1.362 . S
C1610 H1602 0.930 . S
C1610 C1609 1.362 . S
C1610 C1613 1.409 . S
C1611 H1603 0.930 . S
C1611 C1612 1.355 . S
C1611 C1613 1.415 . S
C1612 C1611 1.355 . S
C1612 C1614 1.419 . S
C1613 C1608 1.425 . S
C1613 C1610 1.409 . S
C1613 C1611 1.415 . S
C1614 H1604 0.930 . S
C1614 C1612 1.419 . S
C1614 C1615 1.362 . S
C1615 H1605 0.930 . S
C1615 C1608 1.409 . S
C1615 C1614 1.362 . S
H1616 C1622 0.930 . S
H1617 C1625 0.930 . S
H1618 C1626 0.930 . S
H1619 C1627 0.930 . S
H1620 C1630 0.930 . S
H1621 C1631 0.930 . S
C1622 H1616 0.930 . S
C1622 C1623 1.355 . S
C1622 C1624 1.415 . S
C1623 C1622 1.355 . S
C1623 C1625 1.419 . S
C1624 C1622 1.415 . S
C1624 C1629 1.425 . S
C1624 C1631 1.409 . S
C1625 H1617 0.930 . S
C1625 C1623 1.419 . S
C1625 C1626 1.362 . S
C1626 H1618 0.930 . S
C1626 C1625 1.362 . S
C1626 C1629 1.409 . S
C1627 H1619 0.930 . S
C1627 C1628 1.355 . S
C1627 C1629 1.415 . S
C1628 C1627 1.355 . S
C1628 C1630 1.419 . S
C1629 C1624 1.425 . S
C1629 C1626 1.409 . S
C1629 C1627 1.415 . S
C1630 H1620 0.930 . S
C1630 C1628 1.419 . S
C1630 C1631 1.362 . S
C1631 H1621 0.930 . S
C1631 C1624 1.409 . S
C1631 C1630 1.362 . S
H1632 C1638 0.930 . S
H1633 C1641 0.930 . S
H1634 C1642 0.930 . S
H1635 C1643 0.930 . S
H1636 C1646 0.930 . S
H1637 C1647 0.930 . S
C1638 H1632 0.930 . S
C1638 C1639 1.355 . S
C1638 C1640 1.415 . S
C1639 C1638 1.355 . S
C1639 C1641 1.419 . S
C1640 C1638 1.415 . S
C1640 C1645 1.425 . S
C1640 C1647 1.409 . S
C1641 H1633 0.930 . S
C1641 C1639 1.419 . S
C1641 C1642 1.362 . S
C1642 H1634 0.930 . S
C1642 C1641 1.362 . S
C1642 C1645 1.409 . S
C1643 H1635 0.930 . S
C1643 C1644 1.355 . S
C1643 C1645 1.415 . S
C1644 C1643 1.355 . S
C1644 C1646 1.419 . S
C1645 C1640 1.425 . S
C1645 C1642 1.409 . S
C1645 C1643 1.415 . S
C1646 H1636 0.930 . S
C1646 C1644 1.419 . S
C1646 C1647 1.362 . S
C1647 H1637 0.930 . S
C1647 C1640 1.409 . S
C1647 C1646 1.362 . S
H1648 C1654 0.930 . S
H1649 C1657 0.930 . S
H1650 C1658 0.930 . S
H1651 C1659 0.930 . S
H1652 C1662 0.930 . S
H1653 C1663 0.930 . S
C1654 H1648 0.930 . S
C1654 C1655 1.355 . S
C1654 C1656 1.415 . S
C1655 C1654 1.355 . S
C1655 C1657 1.419 . S
C1656 C1654 1.415 . S
C1656 C1661 1.425 . S
C1656 C1663 1.409 . S
C1657 H1649 0.930 . S
C1657 C1655 1.419 . S
C1657 C1658 1.362 . S
C1658 H1650 0.930 . S
C1658 C1657 1.362 . S
C1658 C1661 1.409 . S
C1659 H1651 0.930 . S
C1659 C1660 1.355 . S
C1659 C1661 1.415 . S
C1660 C1659 1.355 . S
C1660 C1662 1.419 . S
C1661 C1656 1.425 . S
C1661 C1658 1.409 . S
C1661 C1659 1.415 . S
C1662 H1652 0.930 . S
C1662 C1660 1.419 . S
C1662 C1663 1.362 . S
C1663 H1653 0.930 . S
C1663 C1656 1.409 . S
C1663 C1662 1.362 . S
H1664 C1670 0.930 . S
H1665 C1673 0.930 . S
H1666 C1674 0.930 . S
H1667 C1675 0.930 . S
H1668 C1678 0.930 . S
H1669 C1679 0.930 . S
C1670 H1664 0.930 . S
C1670 C1671 1.355 . S
C1670 C1672 1.415 . S
C1671 C1670 1.355 . S
C1671 C1673 1.419 . S
C1672 C1670 1.415 . S
C1672 C1677 1.425 . S
C1672 C1679 1.409 . S
C1673 H1665 0.930 . S
C1673 C1671 1.419 . S
C1673 C1674 1.362 . S
C1674 H1666 0.930 . S
C1674 C1673 1.362 . S
C1674 C1677 1.409 . S
C1675 H1667 0.930 . S
C1675 C1676 1.355 . S
C1675 C1677 1.415 . S
C1676 C1675 1.355 . S
C1676 C1678 1.419 . S
C1677 C1672 1.425 . S
C1677 C1674 1.409 . S
C1677 C1675 1.415 . S
C1678 H1668 0.930 . S
C1678 C1676 1.419 . S
C1678 C1679 1.362 . S
C1679 H1669 0.930 . S
C1679 C1672 1.409 . S
C1679 C1678 1.362 . S
H1680 C1686 0.930 . S
H1681 C1689 0.930 . S
H1682 C1690 0.930 . S
H1683 C1691 0.930 . S
H1684 C1694 0.930 . S
H1685 C1695 0.930 . S
C1686 H1680 0.930 . S
C1686 C1687 1.355 . S
C1686 C1688 1.415 . S
C1687 C1686 1.355 . S
C1687 C1689 1.419 . S
C1688 C1686 1.415 . S
C1688 C1693 1.425 . S
C1688 C1695 1.409 . S
C1689 H1681 0.930 . S
C1689 C1687 1.419 . S
C1689 C1690 1.362 . S
C1690 H1682 0.930 . S
C1690 C1689 1.362 . S
C1690 C1693 1.409 . S
C1691 H1683 0.930 . S
C1691 C1692 1.355 . S
C1691 C1693 1.415 . S
C1692 C1691 1.355 . S
C1692 C1694 1.419 . S
C1693 C1688 1.425 . S
C1693 C1690 1.409 . S
C1693 C1691 1.415 . S
C1694 H1684 0.930 . S
C1694 C1692 1.419 . S
C1694 C1695 1.362 . S
C1695 H1685 0.930 . S
C1695 C1688 1.409 . S
C1695 C1694 1.362 . S
H1696 C1702 0.930 . S
H1697 C1705 0.930 . S
H1698 C1706 0.930 . S
H1699 C1707 0.930 . S
H1700 C1710 0.930 . S
H1701 C1711 0.930 . S
C1702 H1696 0.930 . S
C1702 C1703 1.355 . S
C1702 C1704 1.415 . S
C1703 C1702 1.355 . S
C1703 C1705 1.419 . S
C1704 C1702 1.415 . S
C1704 C1709 1.425 . S
C1704 C1711 1.409 . S
C1705 H1697 0.930 . S
C1705 C1703 1.419 . S
C1705 C1706 1.362 . S
C1706 H1698 0.930 . S
C1706 C1705 1.362 . S
C1706 C1709 1.409 . S
C1707 H1699 0.930 . S
C1707 C1708 1.355 . S
C1707 C1709 1.415 . S
C1708 C1707 1.355 . S
C1708 C1710 1.419 . S
C1709 C1704 1.425 . S
C1709 C1706 1.409 . S
C1709 C1707 1.415 . S
C1710 H1700 0.930 . S
C1710 C1708 1.419 . S
C1710 C1711 1.362 . S
C1711 H1701 0.930 . S
C1711 C1704 1.409 . S
C1711 C1710 1.362 . S
H1712 C1718 0.930 . S
H1713 C1721 0.930 . S
H1714 C1722 0.930 . S
H1715 C1723 0.930 . S
H1716 C1726 0.930 . S
H1717 C1727 0.930 . S
C1718 H1712 0.930 . S
C1718 C1719 1.355 . S
C1718 C1720 1.415 . S
C1719 C1718 1.355 . S
C1719 C1721 1.419 . S
C1720 C1718 1.415 . S
C1720 C1725 1.425 . S
C1720 C1727 1.409 . S
C1721 H1713 0.930 . S
C1721 C1719 1.419 . S
C1721 C1722 1.362 . S
C1722 H1714 0.930 . S
C1722 C1721 1.362 . S
C1722 C1725 1.409 . S
C1723 H1715 0.930 . S
C1723 C1724 1.355 . S
C1723 C1725 1.415 . S
C1724 C1723 1.355 . S
C1724 C1726 1.419 . S
C1725 C1720 1.425 . S
C1725 C1722 1.409 . S
C1725 C1723 1.415 . S
C1726 H1716 0.930 . S
C1726 C1724 1.419 . S
C1726 C1727 1.362 . S
C1727 H1717 0.930 . S
C1727 C1720 1.409 . S
C1727 C1726 1.362 . S
C588 C306 1.545 . S
C583 C260 1.560 . S
C599 C238 1.587 . S
C604 C300 1.567 . S
C620 C268 1.617 . S
C615 C227 1.690 . S
C631 C249 1.729 . S
C636 C282 1.692 . S
C652 C320 2.053 . S
C647 C183 2.115 . S
C668 C407 1.602 . S
C663 C194 1.555 . S
C679 C205 2.187 . S
C684 C334 2.147 . S
C700 C402 1.222 . S
C695 C216 1.252 . S
C711 C139 2.173 . S
C716 C358 2.118 . S
C732 C413 1.652 . S
C727 C150 1.622 . S
C743 C161 2.062 . S
C748 C352 2.124 . S
C759 C172 1.248 . S
C764 C398 1.334 . S
C780 C454 1.343 . S
C775 C128 1.324 . S
C791 C106 1.611 . S
C796 C465 1.690 . S
C807 C95 1.415 . S
C812 C450 1.439 . S
C828 C459 1.716 . S
C823 C117 1.720 1_554 S
C839 C51 1.716 1_455 S
C844 C504 1.695 . S
C855 C62 0.917 . S
C860 C563 0.901 . S
C871 C73 1.865 . S
C876 C520 1.811 . S
C887 C84 1.209 . S
C892 C558 1.279 . S
C908 C522 1.785 . S
C903 C7 1.814 . S
C924 C569 0.831 . S
C919 C18 0.852 . S
C935 C29 1.677 . S
C940 C498 1.657 . S
C956 C554 1.242 . S
C951 C40 1.198 . S
C972 C290 1.541 . S
C967 C8 1.514 . S
C983 C16 1.128 . S
C988 C294 1.232 . S
C999 C30 1.611 . S
C1004 C314 1.588 . S
C1015 C38 0.893 1_545 S
C1020 C309 0.988 . S
C1031 C52 1.595 . S
C1036 C312 1.545 . S
C1052 C298 1.124 . S
C1047 C60 0.921 . S
C1063 C74 1.525 . S
C1068 C296 1.533 . S
C1084 C303 0.912 . S
C1079 C82 0.812 . S
C1100 C366 1.280 . S
C1095 C41 1.304 . S
C1111 C5 1.533 . S
C1116 C416 1.800 . S
C1132 C364 1.058 . S
C1127 C19 1.101 . S
C1148 C400 1.765 . S
C1143 C27 1.582 . S
C1159 C63 1.017 . S
C1164 C342 0.968 . S
C1180 C418 1.775 . S
C1175 C71 1.540 . S
C1196 C348 1.261 . S
C1191 C85 1.318 . S
C1212 C394 1.800 . S
C1207 C49 1.595 1_455 S
C1228 C386 1.396 . S
C1223 C93 1.238 . S
C1239 C104 1.026 . S
C1244 C410 1.316 . S
C1260 C346 1.196 . S
C1255 C96 1.159 . S
C1276 C372 1.352 1_556 S
C1271 C115 1.193 1_554 S
C1287 C129 1.035 . S
C1292 C350 1.080 . S
C1303 C126 1.250 . S
C1308 C404 1.353 . S
C1324 C361 1.416 . S
C1319 C107 1.284 . S
C1340 C355 1.430 . S
C1335 C118 1.412 1_554 S
C1356 C438 1.861 . S
C1351 C140 1.814 . S
C1372 C470 1.372 . S
C1367 C148 1.239 . S
C1383 C162 1.793 . S
C1388 C424 1.824 . S
C1404 C468 1.063 . S
C1399 C170 0.997 . S
C1420 C456 1.794 . S
C1415 C184 1.818 . S
C1431 C192 1.166 . S
C1436 C452 1.286 . S
C1447 C206 1.812 . S
C1452 C462 1.876 . S
C1468 C446 1.015 . S
C1463 C214 1.012 . S
C1484 C511 1.220 . S
C1479 C173 1.173 . S
C1495 C137 1.350 . S
C1500 C572 1.668 . S
C1516 C506 1.050 . S
C1511 C151 0.934 . S
C1532 C556 1.644 . S
C1527 C159 1.334 . S
C1548 C502 1.002 . S
C1543 C195 0.896 . S
C1559 C203 1.472 . S
C1564 C574 1.633 . S
C1580 C517 1.143 . S
C1575 C217 1.092 . S
C1596 C550 1.562 . S
C1591 C181 1.359 . S
C1612 C542 1.556 . S
C1607 C225 1.255 . S
C1623 C236 1.512 . S
C1628 C566 1.566 . S
C1644 C508 1.349 . S
C1639 C228 1.346 . S
C1655 C247 1.368 . S
C1660 C528 1.636 . S
C1676 C490 1.432 . S
C1671 C261 1.466 . S
C1692 C560 1.488 . S
C1687 C258 1.344 . S
C1708 C476 1.441 . S
C1703 C239 1.474 . S
C1719 C250 1.431 . S
C1724 C514 1.405 . S
