# Generated by pormake.
# Topology ocu, (6,8)-cn, num edge types: 1
# Building blocks:
#     Node 0, Type 0, BuildingBlock: KUMJIN_clean_sbu_0, # of connection points: 6
#     Node 1, Type 0, BuildingBlock: KUMJIN_clean_sbu_0, # of connection points: 6
#     Node 2, Type 0, BuildingBlock: KUMJIN_clean_sbu_0, # of connection points: 6
#     Node 3, Type 0, BuildingBlock: KUMJIN_clean_sbu_0, # of connection points: 6
#     Node 4, Type 0, BuildingBlock: KUMJIN_clean_sbu_0, # of connection points: 6
#     Node 5, Type 0, BuildingBlock: KUMJIN_clean_sbu_0, # of connection points: 6
#     Node 6, Type 0, BuildingBlock: KUMJIN_clean_sbu_0, # of connection points: 6
#     Node 7, Type 0, BuildingBlock: KUMJIN_clean_sbu_0, # of connection points: 6
#     Node 8, Type 1, BuildingBlock: VETTIZ_charged_sbu_0, # of connection points: 8
#     Node 9, Type 1, BuildingBlock: VETTIZ_charged_sbu_0, # of connection points: 8
#     Node 10, Type 1, BuildingBlock: VETTIZ_charged_sbu_0, # of connection points: 8
#     Node 11, Type 1, BuildingBlock: VETTIZ_charged_sbu_0, # of connection points: 8
#     Node 12, Type 1, BuildingBlock: VETTIZ_charged_sbu_0, # of connection points: 8
#     Node 13, Type 1, BuildingBlock: VETTIZ_charged_sbu_0, # of connection points: 8
#     Edge 14, Type (0, 1), BuildingBlock: CIFDUS_clean_linker_0, # of connection points: 2
#     Edge 15, Type (0, 1), BuildingBlock: CIFDUS_clean_linker_0, # of connection points: 2
#     Edge 16, Type (0, 1), BuildingBlock: CIFDUS_clean_linker_0, # of connection points: 2
#     Edge 17, Type (0, 1), BuildingBlock: CIFDUS_clean_linker_0, # of connection points: 2
#     Edge 18, Type (0, 1), BuildingBlock: CIFDUS_clean_linker_0, # of connection points: 2
#     Edge 19, Type (0, 1), BuildingBlock: CIFDUS_clean_linker_0, # of connection points: 2
#     Edge 20, Type (0, 1), BuildingBlock: CIFDUS_clean_linker_0, # of connection points: 2
#     Edge 21, Type (0, 1), BuildingBlock: CIFDUS_clean_linker_0, # of connection points: 2
#     Edge 22, Type (0, 1), BuildingBlock: CIFDUS_clean_linker_0, # of connection points: 2
#     Edge 23, Type (0, 1), BuildingBlock: CIFDUS_clean_linker_0, # of connection points: 2
#     Edge 24, Type (0, 1), BuildingBlock: CIFDUS_clean_linker_0, # of connection points: 2
#     Edge 25, Type (0, 1), BuildingBlock: CIFDUS_clean_linker_0, # of connection points: 2
#     Edge 26, Type (0, 1), BuildingBlock: CIFDUS_clean_linker_0, # of connection points: 2
#     Edge 27, Type (0, 1), BuildingBlock: CIFDUS_clean_linker_0, # of connection points: 2
#     Edge 28, Type (0, 1), BuildingBlock: CIFDUS_clean_linker_0, # of connection points: 2
#     Edge 29, Type (0, 1), BuildingBlock: CIFDUS_clean_linker_0, # of connection points: 2
#     Edge 30, Type (0, 1), BuildingBlock: CIFDUS_clean_linker_0, # of connection points: 2
#     Edge 31, Type (0, 1), BuildingBlock: CIFDUS_clean_linker_0, # of connection points: 2
#     Edge 32, Type (0, 1), BuildingBlock: CIFDUS_clean_linker_0, # of connection points: 2
#     Edge 33, Type (0, 1), BuildingBlock: CIFDUS_clean_linker_0, # of connection points: 2
#     Edge 34, Type (0, 1), BuildingBlock: CIFDUS_clean_linker_0, # of connection points: 2
#     Edge 35, Type (0, 1), BuildingBlock: CIFDUS_clean_linker_0, # of connection points: 2
#     Edge 36, Type (0, 1), BuildingBlock: CIFDUS_clean_linker_0, # of connection points: 2
#     Edge 37, Type (0, 1), BuildingBlock: CIFDUS_clean_linker_0, # of connection points: 2
#     Edge 38, Type (0, 1), BuildingBlock: CIFDUS_clean_linker_0, # of connection points: 2
#     Edge 39, Type (0, 1), BuildingBlock: CIFDUS_clean_linker_0, # of connection points: 2
#     Edge 40, Type (0, 1), BuildingBlock: CIFDUS_clean_linker_0, # of connection points: 2
#     Edge 41, Type (0, 1), BuildingBlock: CIFDUS_clean_linker_0, # of connection points: 2
#     Edge 42, Type (0, 1), BuildingBlock: CIFDUS_clean_linker_0, # of connection points: 2
#     Edge 43, Type (0, 1), BuildingBlock: CIFDUS_clean_linker_0, # of connection points: 2
#     Edge 44, Type (0, 1), BuildingBlock: CIFDUS_clean_linker_0, # of connection points: 2
#     Edge 45, Type (0, 1), BuildingBlock: CIFDUS_clean_linker_0, # of connection points: 2
#     Edge 46, Type (0, 1), BuildingBlock: CIFDUS_clean_linker_0, # of connection points: 2
#     Edge 47, Type (0, 1), BuildingBlock: CIFDUS_clean_linker_0, # of connection points: 2
#     Edge 48, Type (0, 1), BuildingBlock: CIFDUS_clean_linker_0, # of connection points: 2
#     Edge 49, Type (0, 1), BuildingBlock: CIFDUS_clean_linker_0, # of connection points: 2
#     Edge 50, Type (0, 1), BuildingBlock: CIFDUS_clean_linker_0, # of connection points: 2
#     Edge 51, Type (0, 1), BuildingBlock: CIFDUS_clean_linker_0, # of connection points: 2
#     Edge 52, Type (0, 1), BuildingBlock: CIFDUS_clean_linker_0, # of connection points: 2
#     Edge 53, Type (0, 1), BuildingBlock: CIFDUS_clean_linker_0, # of connection points: 2
#     Edge 54, Type (0, 1), BuildingBlock: CIFDUS_clean_linker_0, # of connection points: 2
#     Edge 55, Type (0, 1), BuildingBlock: CIFDUS_clean_linker_0, # of connection points: 2
#     Edge 56, Type (0, 1), BuildingBlock: CIFDUS_clean_linker_0, # of connection points: 2
#     Edge 57, Type (0, 1), BuildingBlock: CIFDUS_clean_linker_0, # of connection points: 2
#     Edge 58, Type (0, 1), BuildingBlock: CIFDUS_clean_linker_0, # of connection points: 2
#     Edge 59, Type (0, 1), BuildingBlock: CIFDUS_clean_linker_0, # of connection points: 2
#     Edge 60, Type (0, 1), BuildingBlock: CIFDUS_clean_linker_0, # of connection points: 2
#     Edge 61, Type (0, 1), BuildingBlock: CIFDUS_clean_linker_0, # of connection points: 2
# Relax obj value: 0.119
# Max RMSD: 0.246
# Mean RMSD: 0.165
data_MOF--net-ocu--node1-KUMJIN_clean_sbu_0--node2-VETTIZ_charged_sbu_0--edge1-CIFDUS_clean_linker_0
_symmetry_space_group_name_H-M    P1
_symmetry_Int_Tables_number       1
_symmetry_cell_setting            triclinic
loop_
_symmetry_equiv_pos_as_xyz
'x, y, z'
_cell_length_a     34.491952
_cell_length_b     34.752428
_cell_length_c     37.400414
_cell_angle_alpha  76.598991
_cell_angle_beta   101.34552
_cell_angle_gamma 105.69346
loop_
_atom_site_label
_atom_site_type_symbol
_atom_site_fract_x
_atom_site_fract_y
_atom_site_fract_z
_atom_type_partial_charge
Eu0 Eu 0.29106 0.23743 0.25331 0.0
C1 C 0.4015 0.36454 0.34602 0.0
C2 C 0.42454 0.32219 0.40311 0.0
C3 C 0.4664 0.38935 0.38244 0.0
C4 C 0.39554 0.32822 0.37129 0.0
C5 C 0.43632 0.39606 0.35196 0.0
C6 C 0.46057 0.35241 0.40793 0.0
C7 C 0.40667 0.44001 0.30001 0.0
N8 N 0.37158 0.37017 0.31713 0.0
C9 C 0.37282 0.40771 0.29511 0.0
C10 C 0.43896 0.43392 0.32807 0.0
Eu11 Eu 0.31521 0.3142 0.31068 0.0
N12 N 0.35986 0.30022 0.36635 0.0
C13 C 0.34971 0.2673 0.39377 0.0
C14 C 0.41561 0.2868 0.42994 0.0
C15 C 0.3777 0.25961 0.42556 0.0
H16 H 0.34805 0.41275 0.27338 0.0
H17 H 0.36997 0.23275 0.44666 0.0
H18 H 0.48339 0.34815 0.432 0.0
H19 H 0.40791 0.46948 0.28203 0.0
H20 H 0.32038 0.24623 0.39084 0.0
H21 H 0.26359 0.32696 0.11398 0.0
H22 H 0.4371 0.28096 0.45473 0.0
H23 H 0.24037 0.14384 0.28818 0.0
H24 H 0.30338 0.30721 0.17477 0.0
H25 H 0.17456 0.09563 0.27392 0.0
H26 H 0.49362 0.413 0.38725 0.0
H27 H 0.1929 0.28822 0.09865 0.0
H28 H 0.13608 0.22787 0.11631 0.0
H29 H 0.46511 0.45899 0.33181 0.0
H30 H 0.11191 0.16457 0.15976 0.0
N31 N 0.25547 0.25823 0.19407 0.0
C32 C 0.27268 0.28986 0.16838 0.0
C33 C 0.21026 0.27935 0.12538 0.0
C34 C 0.19379 0.24531 0.15088 0.0
C35 C 0.2502 0.30118 0.13386 0.0
C36 C 0.21766 0.23514 0.18531 0.0
H37 H 0.12647 0.1145 0.21814 0.0
N38 N 0.22905 0.18954 0.24135 0.0
C39 C 0.18236 0.12487 0.25573 0.0
C40 C 0.20404 0.19962 0.20971 0.0
C41 C 0.21957 0.15215 0.26369 0.0
C42 C 0.15524 0.1357 0.2243 0.0
C43 C 0.1662 0.17317 0.20047 0.0
O44 O 0.31115 0.18245 0.25525 0.0
O45 O 0.33254 0.25807 0.30334 0.0
O46 O 0.37052 0.32755 0.28327 0.0
O47 O 0.34448 0.29034 0.23568 0.0
O48 O 0.3061 0.19653 0.30819 0.0
O49 O 0.32657 0.2348 0.21178 0.0
O50 O 0.28075 0.35977 0.30666 0.0
O51 O 0.27355 0.29196 0.26129 0.0
O52 O 0.23692 0.2271 0.28377 0.0
O53 O 0.27085 0.25729 0.33393 0.0
O54 O 0.29737 0.35341 0.25467 0.0
O55 O 0.2882 0.31703 0.358 0.0
C56 C 0.33184 0.22349 0.32496 0.0
C57 C 0.32059 0.17001 0.19822 0.0
C58 C 0.34704 0.13994 0.15793 0.0
C59 C 0.35316 0.16737 0.18208 0.0
C60 C 0.30779 0.11567 0.14972 0.0
C61 C 0.28158 0.14587 0.18925 0.0
C62 C 0.2753 0.11889 0.1651 0.0
C63 C 0.37334 0.31704 0.25243 0.0
C64 C 0.32817 0.19706 0.22517 0.0
C65 C 0.14129 0.18426 0.16717 0.0
C66 C 0.15505 0.22031 0.14243 0.0
C67 C 0.27269 0.3253 0.23861 0.0
C68 C 0.28235 0.38229 0.36166 0.0
C69 C 0.2497 0.39687 0.36606 0.0
C70 C 0.25656 0.42903 0.38529 0.0
C71 C 0.29674 0.44703 0.39918 0.0
C72 C 0.32204 0.40009 0.37646 0.0
C73 C 0.32918 0.43256 0.39479 0.0
C74 C 0.23862 0.23415 0.31745 0.0
C75 C 0.2745 0.34899 0.34112 0.0
H76 H 0.38336 0.18595 0.18896 0.0
H77 H 0.30217 0.09454 0.13101 0.0
H78 H 0.25608 0.14753 0.20112 0.0
H79 H 0.24516 0.10025 0.15841 0.0
H80 H 0.21894 0.38246 0.35533 0.0
H81 H 0.30304 0.47218 0.41365 0.0
H82 H 0.34746 0.3889 0.37403 0.0
H83 H 0.35995 0.44634 0.40589 0.0
Eu84 Eu 0.83279 0.2063 0.28099 0.0
C85 C 0.68831 0.26856 0.3034 0.0
C86 C 0.6471 0.29396 0.24701 0.0
C87 C 0.61649 0.26358 0.30328 0.0
C88 C 0.68484 0.28665 0.26607 0.0
C89 C 0.65438 0.25794 0.32259 0.0
C90 C 0.61287 0.28157 0.26559 0.0
C91 C 0.69875 0.24156 0.37954 0.0
N92 N 0.72534 0.26378 0.32157 0.0
C93 C 0.7314 0.25239 0.35935 0.0
C94 C 0.65987 0.2435 0.36097 0.0
Eu95 Eu 0.77916 0.28306 0.28572 0.0
N96 N 0.7186 0.29868 0.24883 0.0
C97 C 0.71671 0.31964 0.2129 0.0
C98 C 0.645 0.31445 0.21006 0.0
C99 C 0.68004 0.3277 0.19311 0.0
H100 H 0.76145 0.25121 0.374 0.0
H101 H 0.67884 0.34415 0.16469 0.0
H102 H 0.58364 0.28668 0.25128 0.0
H103 H 0.70358 0.23157 0.40937 0.0
H104 H 0.74306 0.33022 0.19884 0.0
H105 H 0.89943 0.14038 0.41972 0.0
H106 H 0.61666 0.32086 0.19461 0.0
H107 H 0.87733 0.24798 0.20463 0.0
H108 H 0.84518 0.16035 0.37194 0.0
H109 H 0.94581 0.26816 0.18606 0.0
H110 H 0.59006 0.25521 0.3175 0.0
H111 H 0.96964 0.15619 0.40559 0.0
H112 H 1.01868 0.18703 0.35957 0.0
H113 H 0.63459 0.23502 0.37667 0.0
H114 H 1.03151 0.22254 0.29651 0.0
N115 N 0.88315 0.18532 0.32948 0.0
C116 C 0.87511 0.16636 0.3645 0.0
C117 C 0.94566 0.16433 0.384 0.0
C118 C 0.95399 0.18429 0.34836 0.0
C119 C 0.90607 0.15535 0.39207 0.0
C120 C 0.92171 0.19458 0.32134 0.0
H121 H 1.00478 0.2535 0.23193 0.0
N122 N 0.8976 0.22567 0.26108 0.0
C123 C 0.94171 0.25377 0.21444 0.0
C124 C 0.92914 0.21547 0.28615 0.0
C125 C 0.90304 0.24305 0.22523 0.0
C126 C 0.97484 0.24531 0.24035 0.0
C127 C 0.96876 0.22545 0.2766 0.0
O128 O 0.81341 0.14186 0.27932 0.0
O129 O 0.78393 0.21885 0.30456 0.0
O130 O 0.8182 0.26021 0.33885 0.0
O131 O 0.87255 0.25056 0.31813 0.0
O132 O 0.7924 0.16126 0.32195 0.0
O133 O 0.82793 0.18551 0.22892 0.0
O134 O 0.82505 0.34035 0.2874 0.0
O135 O 0.83032 0.27183 0.26365 0.0
O136 O 0.78682 0.21924 0.22906 0.0
O137 O 0.73737 0.24292 0.24596 0.0
O138 O 0.80365 0.31661 0.23138 0.0
O139 O 0.77738 0.32469 0.3209 0.0
C140 C 0.77023 0.18465 0.32449 0.0
C141 C 0.83634 0.1189 0.23425 0.0
C142 C 0.87801 0.06956 0.25408 0.0
C143 C 0.86516 0.10213 0.26013 0.0
C144 C 0.86348 0.0549 0.2209 0.0
C145 C 0.82237 0.10491 0.2006 0.0
C146 C 0.83633 0.07329 0.19381 0.0
C147 C 0.85792 0.26489 0.34134 0.0
C148 C 0.81738 0.1472 0.24426 0.0
C149 C 1.00089 0.21503 0.30331 0.0
C150 C 0.99356 0.1947 0.33917 0.0
C151 C 0.83165 0.2976 0.23324 0.0
C152 C 0.80308 0.39364 0.29809 0.0
C153 C 0.77219 0.40129 0.26925 0.0
C154 C 0.76899 0.44106 0.25388 0.0
C155 C 0.79646 0.47363 0.26828 0.0
C156 C 0.83028 0.42597 0.31292 0.0
C157 C 0.82669 0.46595 0.29816 0.0
C158 C 0.74868 0.22232 0.22554 0.0
C159 C 0.80865 0.35226 0.30994 0.0
H160 H 0.87551 0.11249 0.28641 0.0
H161 H 0.8725 0.02912 0.21633 0.0
H162 H 0.79986 0.11752 0.18019 0.0
H163 H 0.82497 0.06208 0.16811 0.0
H164 H 0.75173 0.3763 0.25752 0.0
H165 H 0.79462 0.50473 0.25635 0.0
H166 H 0.85457 0.42037 0.33523 0.0
H167 H 0.84788 0.49102 0.30932 0.0
Eu168 Eu 0.76115 0.75287 0.29702 0.0
C169 C 0.88701 0.89331 0.21653 0.0
C170 C 0.84596 0.92555 0.16392 0.0
C171 C 0.90676 0.96644 0.19419 0.0
C172 C 0.85255 0.89066 0.19013 0.0
C173 C 0.91521 0.93106 0.21796 0.0
C174 C 0.87218 0.96369 0.16717 0.0
C175 C 0.96068 0.89539 0.26236 0.0
N176 N 0.89463 0.85841 0.23869 0.0
C177 C 0.93176 0.85869 0.26008 0.0
C178 C 0.95195 0.93186 0.24196 0.0
Eu179 Eu 0.84101 0.79886 0.23583 0.0
N180 N 0.82812 0.8533 0.18736 0.0
C181 C 0.80108 0.84792 0.15595 0.0
C182 C 0.81487 0.92066 0.13388 0.0
C183 C 0.79328 0.8815 0.1292 0.0
H184 H 0.93913 0.83096 0.2762 0.0
H185 H 0.77052 0.87714 0.10511 0.0
H186 H 0.86709 0.99094 0.14779 0.0
H187 H 0.98958 0.89552 0.28009 0.0
H188 H 0.78459 0.81789 0.15179 0.0
H189 H 0.83795 0.68417 0.42866 0.0
H190 H 0.80884 0.94663 0.11311 0.0
H191 H 0.67013 0.71478 0.25175 0.0
H192 H 0.8229 0.73997 0.37788 0.0
H193 H 0.62086 0.64828 0.2502 0.0
H194 H 0.9277 0.99581 0.19535 0.0
H195 H 0.79831 0.61342 0.42741 0.0
H196 H 0.73967 0.56542 0.39667 0.0
H197 H 0.97442 0.96022 0.24381 0.0
H198 H 0.68021 0.55565 0.34807 0.0
N199 N 0.77627 0.70111 0.34744 0.0
C200 C 0.80534 0.70927 0.377 0.0
C201 C 0.79164 0.6378 0.40501 0.0
C202 C 0.75989 0.63013 0.37595 0.0
C203 C 0.81397 0.6777 0.40588 0.0
C204 C 0.75261 0.66299 0.34745 0.0
H205 H 0.6351 0.58657 0.29376 0.0
N206 N 0.71182 0.69059 0.29521 0.0
C207 C 0.64846 0.65043 0.27004 0.0
C208 C 0.71921 0.65754 0.32039 0.0
C209 C 0.67628 0.688 0.27107 0.0
C210 C 0.6567 0.61563 0.29455 0.0
C211 C 0.69208 0.61903 0.32063 0.0
O212 O 0.70591 0.7667 0.30598 0.0
O213 O 0.7804 0.8009 0.24786 0.0
O214 O 0.85265 0.83904 0.27885 0.0
O215 O 0.81407 0.79619 0.32392 0.0
O216 O 0.71984 0.78626 0.25285 0.0
O217 O 0.75977 0.7757 0.34648 0.0
O218 O 0.87244 0.80341 0.18895 0.0
O219 O 0.82152 0.74964 0.28415 0.0
O220 O 0.75398 0.71423 0.25361 0.0
O221 O 0.78213 0.76461 0.20674 0.0
O222 O 0.88325 0.77455 0.28572 0.0
O223 O 0.85575 0.74547 0.22466 0.0
C224 C 0.74663 0.81051 0.23341 0.0
C225 C 0.71976 0.82408 0.33405 0.0
C226 C 0.69491 0.87248 0.35705 0.0
C227 C 0.69857 0.83233 0.35897 0.0
C228 C 0.71278 0.90376 0.32954 0.0
C229 C 0.73791 0.85622 0.30766 0.0
C230 C 0.73432 0.89567 0.30539 0.0
C231 C 0.8405 0.82993 0.31191 0.0
C232 C 0.72347 0.78232 0.33529 0.0
C233 C 0.70043 0.58561 0.34763 0.0
C234 C 0.7343 0.59116 0.37528 0.0
C235 C 0.8562 0.74775 0.30351 0.0
C236 C 0.91208 0.75582 0.19327 0.0
C237 C 0.91116 0.72544 0.17359 0.0
C238 C 0.94757 0.71686 0.16904 0.0
C239 C 0.98481 0.73937 0.18501 0.0
C240 C 0.94956 0.77724 0.20919 0.0
C241 C 0.98567 0.76898 0.20506 0.0
C242 C 0.7592 0.72817 0.21834 0.0
C243 C 0.87371 0.76529 0.19619 0.0
H244 H 0.68538 0.80759 0.37985 0.0
H245 H 0.70967 0.93462 0.32611 0.0
H246 H 0.7554 0.85096 0.28905 0.0
H247 H 0.74818 0.92012 0.28465 0.0
H248 H 0.88198 0.70855 0.16195 0.0
H249 H 1.01355 0.7348 0.18149 0.0
H250 H 0.95092 0.80059 0.22446 0.0
H251 H 1.01455 0.78597 0.21709 0.0
Eu252 Eu 0.31653 0.71901 0.27214 0.0
C253 C 0.2633 0.86052 0.19325 0.0
C254 C 0.32193 0.91579 0.20398 0.0
C255 C 0.28165 0.91769 0.14291 0.0
C256 C 0.29612 0.87788 0.21695 0.0
C257 C 0.25494 0.8811 0.15631 0.0
C258 C 0.31511 0.93498 0.1667 0.0
C259 C 0.19139 0.83121 0.14993 0.0
N260 N 0.23806 0.825 0.20687 0.0
C261 C 0.20082 0.81226 0.1867 0.0
C262 C 0.2191 0.86519 0.1343 0.0
Eu263 Eu 0.25857 0.79245 0.2689 0.0
N264 N 0.30241 0.85828 0.25278 0.0
C265 C 0.3319 0.87708 0.27766 0.0
C266 C 0.35362 0.9336 0.22894 0.0
C267 C 0.35816 0.91446 0.26606 0.0
H268 H 0.17785 0.78739 0.19874 0.0
H269 H 0.38176 0.92864 0.28592 0.0
H270 H 0.33501 0.9637 0.15622 0.0
H271 H 0.16246 0.81994 0.13387 0.0
H272 H 0.33542 0.86429 0.30679 0.0
H273 H 0.19262 0.58411 0.25284 0.0
H274 H 0.37406 0.96257 0.22004 0.0
H275 H 0.39472 0.72298 0.34521 0.0
H276 H 0.24069 0.64775 0.23305 0.0
H277 H 0.40655 0.69099 0.41064 0.0
H278 H 0.27604 0.93345 0.11449 0.0
H279 H 0.19661 0.55108 0.31904 0.0
H280 H 0.23255 0.55036 0.38393 0.0
H281 H 0.2116 0.88007 0.10587 0.0
H282 H 0.29008 0.58024 0.42715 0.0
N283 N 0.27052 0.65444 0.28787 0.0
C284 C 0.24235 0.63543 0.26228 0.0
C285 C 0.21768 0.57978 0.3106 0.0
C286 C 0.24828 0.59764 0.33637 0.0
C287 C 0.21523 0.59842 0.27329 0.0
C288 C 0.27509 0.63511 0.32394 0.0
H289 H 0.35504 0.63242 0.43738 0.0
N290 N 0.33409 0.68672 0.33513 0.0
C291 C 0.3781 0.6802 0.3937 0.0
C292 C 0.30737 0.65207 0.34836 0.0
C293 C 0.37069 0.69885 0.35653 0.0
C294 C 0.34904 0.64712 0.40864 0.0
C295 C 0.31379 0.63176 0.38567 0.0
O296 O 0.37921 0.71382 0.27423 0.0
O297 O 0.31671 0.78618 0.25449 0.0
O298 O 0.22307 0.74751 0.23175 0.0
O299 O 0.27026 0.71692 0.22039 0.0
O300 O 0.32839 0.7578 0.21631 0.0
O301 O 0.32995 0.68036 0.24005 0.0
O302 O 0.19463 0.7823 0.27377 0.0
O303 O 0.25839 0.72546 0.28637 0.0
O304 O 0.35253 0.76485 0.31025 0.0
O305 O 0.30444 0.7958 0.32017 0.0
O306 O 0.2541 0.75593 0.32658 0.0
O307 O 0.23805 0.83386 0.29356 0.0
C308 C 0.32505 0.79185 0.22171 0.0
C309 C 0.38773 0.65293 0.25994 0.0
C310 C 0.41661 0.60674 0.23775 0.0
C311 C 0.40099 0.64184 0.23111 0.0
C312 C 0.41918 0.58339 0.27396 0.0
C313 C 0.39044 0.62887 0.29559 0.0
C314 C 0.40628 0.59446 0.30252 0.0
C315 C 0.23516 0.72741 0.21184 0.0
C316 C 0.36882 0.6881 0.25155 0.0
C317 C 0.28588 0.59583 0.39851 0.0
C318 C 0.25321 0.57876 0.37389 0.0
C319 C 0.25201 0.7207 0.31971 0.0
C320 C 0.16682 0.83188 0.28766 0.0
C321 C 0.15731 0.83808 0.32038 0.0
C322 C 0.12298 0.85283 0.31978 0.0
C323 C 0.09833 0.86156 0.28558 0.0
C324 C 0.14199 0.84072 0.25385 0.0
C325 C 0.1079 0.85559 0.2529 0.0
C326 C 0.33942 0.7851 0.32981 0.0
C327 C 0.20053 0.81252 0.29079 0.0
H328 H 0.39812 0.65998 0.20336 0.0
H329 H 0.43152 0.55665 0.28037 0.0
H330 H 0.37998 0.63643 0.31797 0.0
H331 H 0.40837 0.57607 0.33017 0.0
H332 H 0.17682 0.83135 0.34639 0.0
H333 H 0.07149 0.87267 0.28412 0.0
H334 H 0.1486 0.83562 0.22844 0.0
H335 H 0.0886 0.86218 0.22679 0.0
Eu336 Eu 0.30973 0.7448 0.76785 0.0
C337 C 0.1653 0.80398 0.784 0.0
C338 C 0.12722 0.83219 0.72699 0.0
C339 C 0.09283 0.79822 0.78062 0.0
C340 C 0.16408 0.82428 0.74761 0.0
C341 C 0.12984 0.79134 0.80121 0.0
C342 C 0.09153 0.81865 0.74356 0.0
C343 C 0.17105 0.77009 0.8588 0.0
N344 N 0.20164 0.79848 0.80322 0.0
C345 C 0.20536 0.78377 0.84053 0.0
C346 C 0.13297 0.77336 0.83892 0.0
Eu347 Eu 0.25918 0.82267 0.77157 0.0
N348 N 0.19928 0.83731 0.73267 0.0
C349 C 0.19982 0.85971 0.6974 0.0
C350 C 0.12748 0.85406 0.69057 0.0
C351 C 0.16401 0.86815 0.67583 0.0
H352 H 0.23493 0.7822 0.85618 0.0
H353 H 0.16464 0.88564 0.64785 0.0
H354 H 0.06293 0.82442 0.72816 0.0
H355 H 0.17408 0.75734 0.88821 0.0
H356 H 0.22766 0.871 0.68547 0.0
H357 H 0.47163 0.81771 0.75726 0.0
H358 H 0.09981 0.86071 0.67382 0.0
H359 H 0.25117 0.67226 0.7217 0.0
H360 H 0.41225 0.79021 0.78921 0.0
H361 H 0.24813 0.6477 0.66403 0.0
H362 H 0.06524 0.78861 0.7933 0.0
H363 H 0.46859 0.80807 0.69334 0.0
H364 H 0.42963 0.77571 0.63978 0.0
H365 H 0.10645 0.7631 0.85316 0.0
H366 H 0.36875 0.72894 0.61431 0.0
N367 N 0.37268 0.76772 0.74282 0.0
C368 C 0.40888 0.78671 0.76087 0.0
C369 C 0.44168 0.79632 0.70701 0.0
C370 C 0.40581 0.7739 0.68979 0.0
C371 C 0.44347 0.80187 0.74305 0.0
C372 C 0.37151 0.75939 0.70875 0.0
H373 H 0.30163 0.67993 0.62378 0.0
N374 N 0.30575 0.71789 0.71406 0.0
C375 C 0.27314 0.67212 0.67193 0.0
C376 C 0.33707 0.73356 0.69404 0.0
C377 C 0.27508 0.68591 0.70464 0.0
C378 C 0.30329 0.69052 0.64923 0.0
C379 C 0.33625 0.72097 0.66055 0.0
O380 O 0.32138 0.68392 0.77937 0.0
O381 O 0.26592 0.75933 0.79743 0.0
O382 O 0.30283 0.80994 0.82448 0.0
O383 O 0.35149 0.78928 0.80434 0.0
O384 O 0.24544 0.70734 0.77621 0.0
O385 O 0.32877 0.71489 0.82452 0.0
O386 O 0.27491 0.88925 0.76416 0.0
O387 O 0.312 0.81036 0.75297 0.0
O388 O 0.26452 0.75541 0.71491 0.0
O389 O 0.21728 0.7821 0.73192 0.0
O390 O 0.28956 0.85741 0.72004 0.0
O391 O 0.27216 0.85271 0.81905 0.0
C392 C 0.23711 0.72759 0.79731 0.0
C393 C 0.29453 0.64579 0.83388 0.0
C394 C 0.27379 0.60358 0.89217 0.0
C395 C 0.30292 0.63293 0.87214 0.0
C396 C 0.23497 0.58921 0.87304 0.0
C397 C 0.25686 0.62804 0.81492 0.0
C398 C 0.22689 0.60095 0.83457 0.0
C399 C 0.34092 0.80807 0.82672 0.0
C400 C 0.32394 0.68006 0.81501 0.0
C401 C 0.36916 0.73765 0.64042 0.0
C402 C 0.40384 0.7642 0.65496 0.0
C403 C 0.31542 0.83592 0.72292 0.0
C404 C 0.25383 0.9143 0.80943 0.0
C405 C 0.21755 0.92034 0.78769 0.0
C406 C 0.19734 0.94695 0.79505 0.0
C407 C 0.21201 0.96555 0.82607 0.0
C408 C 0.26827 0.93225 0.84097 0.0
C409 C 0.24707 0.95741 0.84949 0.0
C410 C 0.22793 0.76281 0.70992 0.0
C411 C 0.27639 0.8891 0.79937 0.0
H412 H 0.33312 0.64504 0.88562 0.0
H413 H 0.21131 0.56772 0.88746 0.0
H414 H 0.25 0.63582 0.78506 0.0
H415 H 0.19741 0.58868 0.81988 0.0
H416 H 0.20651 0.90686 0.76309 0.0
H417 H 0.19737 0.9872 0.83133 0.0
H418 H 0.29604 0.92721 0.85866 0.0
H419 H 0.25863 0.97173 0.87349 0.0
Eu420 Eu 0.24706 0.23965 0.79771 0.0
C421 C 0.36516 0.36377 0.69643 0.0
C422 C 0.32066 0.3841 0.64058 0.0
C423 C 0.38313 0.43183 0.65956 0.0
C424 C 0.32961 0.35498 0.67222 0.0
C425 C 0.39276 0.40202 0.69005 0.0
C426 C 0.34713 0.42288 0.63486 0.0
C427 C 0.43869 0.37731 0.74265 0.0
N428 N 0.37372 0.33411 0.72527 0.0
C429 C 0.41047 0.33977 0.74763 0.0
C430 C 0.42963 0.40875 0.71396 0.0
Eu431 Eu 0.32327 0.27239 0.73367 0.0
N432 N 0.30501 0.3171 0.67838 0.0
C433 C 0.27275 0.30523 0.65239 0.0
C434 C 0.28607 0.37292 0.61506 0.0
C435 C 0.2624 0.33308 0.6207 0.0
H436 H 0.41745 0.31565 0.77003 0.0
H437 H 0.23609 0.32382 0.60074 0.0
H438 H 0.34058 0.44579 0.61091 0.0
H439 H 0.46737 0.38199 0.76094 0.0
H440 H 0.25412 0.27458 0.65643 0.0
H441 H 0.32391 0.18019 0.9335 0.0
H442 H 0.27806 0.39441 0.59046 0.0
H443 H 0.15055 0.20315 0.75954 0.0
H444 H 0.3106 0.23199 0.87834 0.0
H445 H 0.0974 0.13948 0.76577 0.0
H446 H 0.40377 0.46154 0.65434 0.0
H447 H 0.27912 0.1108 0.94018 0.0
H448 H 0.21568 0.06282 0.91609 0.0
H449 H 0.45161 0.43774 0.71005 0.0
H450 H 0.15357 0.05188 0.87052 0.0
N451 N 0.25978 0.1923 0.8531 0.0
C452 C 0.29084 0.20195 0.88078 0.0
C453 C 0.27321 0.13348 0.91582 0.0
C454 C 0.23955 0.12469 0.88873 0.0
C455 C 0.29845 0.17262 0.91221 0.0
C456 C 0.23333 0.15535 0.85754 0.0
H457 H 0.10875 0.08062 0.81486 0.0
N458 N 0.1925 0.18066 0.8041 0.0
C459 C 0.12577 0.14175 0.78456 0.0
C460 C 0.19841 0.14935 0.83224 0.0
C461 C 0.15612 0.1779 0.78114 0.0
C462 C 0.13233 0.10856 0.81223 0.0
C463 C 0.16872 0.1123 0.83693 0.0
O464 O 0.20019 0.271 0.79837 0.0
O465 O 0.26768 0.28559 0.74718 0.0
O466 O 0.33453 0.3213 0.76773 0.0
O467 O 0.30626 0.28119 0.81954 0.0
O468 O 0.20624 0.26014 0.74522 0.0
O469 O 0.2482 0.2681 0.8447 0.0
O470 O 0.37616 0.2521 0.72744 0.0
O471 O 0.30294 0.22765 0.78423 0.0
O472 O 0.23608 0.18881 0.76559 0.0
O473 O 0.26708 0.22645 0.71411 0.0
O474 O 0.3648 0.24824 0.78465 0.0
O475 O 0.32072 0.24015 0.68923 0.0
C476 C 0.23317 0.28652 0.72724 0.0
C477 C 0.18561 0.27571 0.85618 0.0
C478 C 0.15441 0.3061 0.89283 0.0
C479 C 0.18425 0.30935 0.87059 0.0
C480 C 0.12639 0.26849 0.90073 0.0
C481 C 0.1576 0.23847 0.86479 0.0
C482 C 0.1282 0.23497 0.88698 0.0
C483 C 0.33086 0.31417 0.80328 0.0
C484 C 0.21506 0.28052 0.8308 0.0
C485 C 0.17579 0.08073 0.86668 0.0
C486 C 0.21117 0.08693 0.89259 0.0
C487 C 0.33715 0.22414 0.80335 0.0
C488 C 0.38185 0.24507 0.66706 0.0
C489 C 0.39251 0.21309 0.65659 0.0
C490 C 0.41325 0.22079 0.62564 0.0
C491 C 0.42359 0.26105 0.60595 0.0
C492 C 0.39263 0.28478 0.64688 0.0
C493 C 0.41348 0.29266 0.61659 0.0
C494 C 0.24429 0.19307 0.73158 0.0
C495 C 0.35824 0.23664 0.69812 0.0
H496 H 0.20576 0.33823 0.86381 0.0
H497 H 0.10338 0.26485 0.91801 0.0
H498 H 0.15823 0.2123 0.85404 0.0
H499 H 0.10658 0.20616 0.89345 0.0
H500 H 0.38388 0.18227 0.67194 0.0
H501 H 0.43995 0.26821 0.5824 0.0
H502 H 0.38469 0.30964 0.65441 0.0
H503 H 0.42172 0.32343 0.60116 0.0
Eu504 Eu 0.81987 0.24527 0.77445 0.0
C505 C 0.72963 0.36899 0.67316 0.0
C506 C 0.78503 0.42762 0.65948 0.0
C507 C 0.72501 0.41502 0.61342 0.0
C508 C 0.76812 0.39171 0.68343 0.0
C509 C 0.70699 0.38127 0.6386 0.0
C510 C 0.764 0.43822 0.62387 0.0
C511 C 0.6483 0.33059 0.65902 0.0
N512 N 0.7126 0.33766 0.69873 0.0
C513 C 0.67185 0.3201 0.69311 0.0
C514 C 0.66617 0.36077 0.63132 0.0
Eu515 Eu 0.75506 0.31932 0.75488 0.0
N516 N 0.78695 0.38124 0.71842 0.0
C517 C 0.82065 0.40749 0.73246 0.0
C518 C 0.82127 0.45309 0.67286 0.0
C519 C 0.83854 0.44352 0.70983 0.0
H520 H 0.65804 0.29673 0.71457 0.0
H521 H 0.86585 0.46366 0.72084 0.0
H522 H 0.77676 0.46536 0.60491 0.0
H523 H 0.6164 0.31553 0.6542 0.0
H524 H 0.83459 0.40036 0.76087 0.0
H525 H 0.71177 0.09981 0.81188 0.0
H526 H 0.83515 0.48103 0.65544 0.0
H527 H 0.91651 0.2755 0.81254 0.0
H528 H 0.73894 0.16453 0.77171 0.0
H529 H 0.96245 0.25605 0.86979 0.0
H530 H 0.70831 0.4246 0.58653 0.0
H531 H 0.74943 0.0796 0.87389 0.0
H532 H 0.8123 0.09383 0.9204 0.0
H533 H 0.64774 0.36925 0.60511 0.0
H534 H 0.88068 0.13624 0.93614 0.0
N535 N 0.79156 0.18164 0.81058 0.0
C536 C 0.75606 0.1562 0.79848 0.0
C537 C 0.76168 0.10812 0.85629 0.0
C538 C 0.79918 0.13316 0.86764 0.0
C539 C 0.74042 0.11935 0.82125 0.0
C540 C 0.8137 0.17002 0.84369 0.0
H541 H 0.93723 0.19633 0.91712 0.0
N542 N 0.86578 0.22795 0.82802 0.0
C543 C 0.93139 0.23844 0.86543 0.0
C544 C 0.85205 0.19388 0.85265 0.0
C545 C 0.90538 0.24936 0.83309 0.0
C546 C 0.917 0.20478 0.89213 0.0
C547 C 0.87711 0.1816 0.88565 0.0
O548 O 0.87085 0.24909 0.74636 0.0
O549 O 0.80557 0.30204 0.73704 0.0
O550 O 0.73202 0.28146 0.71012 0.0
O551 O 0.76423 0.22739 0.7316 0.0
O552 O 0.86612 0.30348 0.75791 0.0
O553 O 0.81927 0.19729 0.74511 0.0
O554 O 0.70221 0.32808 0.77363 0.0
O555 O 0.76934 0.26284 0.79042 0.0
O556 O 0.83582 0.27609 0.8242 0.0
O557 O 0.81022 0.33413 0.79915 0.0
O558 O 0.70909 0.26345 0.78026 0.0
O559 O 0.76194 0.3649 0.78859 0.0
C560 C 0.84157 0.32344 0.73565 0.0
C561 C 0.8833 0.18819 0.7392 0.0
C562 C 0.91766 0.15435 0.70917 0.0
C563 C 0.88848 0.17644 0.70734 0.0
C564 C 0.9415 0.1439 0.74333 0.0
C565 C 0.9067 0.17681 0.77329 0.0
C566 C 0.93574 0.15482 0.77526 0.0
C567 C 0.73742 0.24575 0.7084 0.0
C568 C 0.85525 0.21444 0.73554 0.0
C569 C 0.86205 0.14597 0.91045 0.0
C570 C 0.82312 0.12182 0.90149 0.0
C571 C 0.73481 0.24216 0.79782 0.0
C572 C 0.70693 0.39529 0.78084 0.0
C573 C 0.69726 0.40959 0.80949 0.0
C574 C 0.68412 0.44614 0.80182 0.0
C575 C 0.68043 0.4678 0.76501 0.0
C576 C 0.70298 0.41749 0.74442 0.0
C577 C 0.68972 0.45346 0.73658 0.0
C578 C 0.83196 0.31256 0.82553 0.0
C579 C 0.72314 0.35854 0.78942 0.0
H580 H 0.87039 0.1852 0.68096 0.0
H581 H 0.964 0.12665 0.74542 0.0
H582 H 0.9029 0.18521 0.7982 0.0
H583 H 0.95392 0.14632 0.80158 0.0
H584 H 0.7009 0.39281 0.83776 0.0
H585 H 0.66998 0.49571 0.75813 0.0
H586 H 0.71047 0.40725 0.72209 0.0
H587 H 0.6868 0.4704 0.70838 0.0
Eu588 Eu 0.7671 0.71554 0.74372 0.0
C589 C 0.893 0.82466 0.84503 0.0
C590 C 0.90413 0.77765 0.90276 0.0
C591 C 0.95815 0.83662 0.88496 0.0
C592 C 0.87918 0.78936 0.86945 0.0
C593 C 0.93223 0.84937 0.85299 0.0
C594 C 0.94413 0.80076 0.90981 0.0
C595 C 0.91565 0.89939 0.7994 0.0
N596 N 0.86697 0.83628 0.81474 0.0
C597 C 0.87709 0.87375 0.79266 0.0
C598 C 0.94363 0.88684 0.82933 0.0
Eu599 Eu 0.80291 0.79055 0.80399 0.0
N600 N 0.84022 0.76822 0.86203 0.0
C601 C 0.82297 0.7376 0.88847 0.0
C602 C 0.88753 0.74416 0.92869 0.0
C603 C 0.84649 0.72461 0.92185 0.0
H604 H 0.85579 0.8836 0.76932 0.0
H605 H 0.83298 0.6994 0.94216 0.0
H606 H 0.96393 0.79196 0.93501 0.0
H607 H 0.92383 0.92869 0.78139 0.0
H608 H 0.79133 0.72211 0.88346 0.0
H609 H 0.73104 0.80411 0.60557 0.0
H610 H 0.90567 0.73411 0.95458 0.0
H611 H 0.71764 0.62153 0.78069 0.0
H612 H 0.7748 0.78368 0.66354 0.0
H613 H 0.65093 0.57401 0.77007 0.0
H614 H 0.98859 0.85493 0.89134 0.0
H615 H 0.6593 0.76612 0.59449 0.0
H616 H 0.60353 0.70613 0.61529 0.0
H617 H 0.97346 0.90677 0.83452 0.0
H618 H 0.58183 0.64305 0.65991 0.0
N619 N 0.72795 0.73571 0.68613 0.0
C620 C 0.74355 0.76687 0.65926 0.0
C621 C 0.67834 0.75712 0.62015 0.0
C622 C 0.66346 0.72324 0.64654 0.0
C623 C 0.71884 0.77854 0.62623 0.0
C624 C 0.6895 0.71296 0.67954 0.0
H625 H 0.59966 0.59302 0.71722 0.0
N626 N 0.70416 0.66757 0.7348 0.0
C627 C 0.65782 0.60318 0.75157 0.0
C628 C 0.67727 0.6776 0.70459 0.0
C629 C 0.69564 0.63028 0.75752 0.0
C630 C 0.62892 0.61407 0.72178 0.0
C631 C 0.6387 0.65138 0.69746 0.0
O632 O 0.79169 0.66255 0.7484 0.0
O633 O 0.81154 0.73208 0.79439 0.0
O634 O 0.8551 0.79685 0.77238 0.0
O635 O 0.81799 0.76754 0.72231 0.0
O636 O 0.77813 0.67265 0.79826 0.0
O637 O 0.79539 0.70864 0.69864 0.0
O638 O 0.78158 0.84501 0.80163 0.0
O639 O 0.75947 0.77508 0.75266 0.0
O640 O 0.71335 0.71057 0.77239 0.0
O641 O 0.74957 0.73937 0.82304 0.0
O642 O 0.79219 0.83476 0.75053 0.0
O643 O 0.77228 0.79539 0.84831 0.0
C644 C 0.80665 0.69709 0.81552 0.0
C645 C 0.79579 0.64177 0.69383 0.0
C646 C 0.8231 0.59898 0.66635 0.0
C647 C 0.82912 0.63048 0.68625 0.0
C648 C 0.78299 0.5788 0.65443 0.0
C649 C 0.75613 0.62143 0.68151 0.0
C650 C 0.74985 0.59002 0.66197 0.0
C651 C 0.85167 0.78927 0.73856 0.0
C652 C 0.80324 0.67384 0.71575 0.0
C653 C 0.61178 0.66256 0.66567 0.0
C654 C 0.62412 0.69849 0.64027 0.0
C655 C 0.76464 0.81061 0.73214 0.0
C656 C 0.77427 0.86117 0.85776 0.0
C657 C 0.74121 0.8654 0.87225 0.0
C658 C 0.74649 0.8953 0.89379 0.0
C659 C 0.7855 0.92049 0.90096 0.0
C660 C 0.81298 0.88627 0.86569 0.0
C661 C 0.81847 0.91576 0.8872 0.0
C662 C 0.7156 0.71943 0.8054 0.0
C663 C 0.7673 0.83173 0.83311 0.0
H664 H 0.85974 0.64661 0.69553 0.0
H665 H 0.7772 0.55408 0.63954 0.0
H666 H 0.73013 0.62963 0.68716 0.0
H667 H 0.71916 0.57421 0.65271 0.0
H668 H 0.71124 0.84607 0.86606 0.0
H669 H 0.79062 0.94348 0.9177 0.0
H670 H 0.83879 0.88336 0.85496 0.0
H671 H 0.84839 0.93516 0.89313 0.0
Fe672 Fe 0.04921 0.05392 0.52083 0.0
O673 O 1.01062 1.00227 0.54002 0.0
Fe674 Fe 0.13709 0.02187 0.52264 0.0
Fe675 Fe 0.95112 0.9918 0.52569 0.0
O676 O 0.07851 0.01705 0.50951 0.0
O677 O 0.07768 1.01324 0.50902 0.0
O678 O 1.01005 0.99835 0.54006 0.0
Fe679 Fe 1.03955 0.96149 0.52878 0.0
C680 C 0.98223 0.07273 0.55393 0.0
O681 O 1.01816 0.05525 0.46894 0.0
O682 O 0.9533 0.03677 0.47842 0.0
O683 O 0.07533 0.93035 0.51117 0.0
O684 O 0.12671 0.9822 0.48705 0.0
O685 O 0.13871 0.07403 0.48296 0.0
O686 O 0.09293 0.10367 0.49776 0.0
O687 O 0.94519 0.95041 0.49213 0.0
O688 O 1.00672 0.96171 0.47691 0.0
C689 C 0.12158 0.10384 0.47962 0.0
O690 O 0.0726 0.96115 0.58067 0.0
O691 O 0.13299 0.97128 0.56404 0.0
O692 O 1.01332 0.08607 0.53576 0.0
O693 O 0.9583 0.03655 0.55599 0.0
C694 C 0.98058 0.05059 0.4571 0.0
C695 C 0.96842 0.95027 0.46964 0.0
C696 C 0.96844 0.9132 0.57316 0.0
O697 O 0.95144 0.94335 0.56921 0.0
O698 O 0.99577 0.91209 0.55379 0.0
C699 C 0.10182 0.94656 0.48793 0.0
O700 O 0.14392 0.05802 0.56181 0.0
O701 O 0.08137 0.05364 0.57276 0.0
C702 C 0.11051 0.96368 0.58906 0.0
C703 C 0.11973 0.06224 0.58176 0.0
Fe704 Fe 0.53519 0.92722 0.0473 0.0
O705 O 0.54514 0.98656 0.04615 0.0
Fe706 Fe 0.49673 0.01504 1.01595 0.0
Fe707 Fe 0.59277 0.02706 0.02525 0.0
O708 O 0.53988 0.98551 0.04391 0.0
O709 O 0.54477 0.05603 0.99637 0.0
O710 O 0.54973 0.05686 0.99809 0.0
Fe711 Fe 0.55429 0.11506 0.99601 0.0
C712 C 0.62295 0.95495 0.0839 0.0
O713 O 0.57663 0.93336 1.01154 0.0
O714 O 0.58413 0.99739 0.98166 0.0
O715 O 0.50458 0.10921 0.95482 0.0
O716 O 0.45818 0.05478 0.98251 0.0
O717 O 0.48583 0.98455 0.97172 0.0
O718 O 0.48845 0.92196 1.00297 0.0
O719 O 0.63556 0.07365 0.99529 0.0
O720 O 0.59812 0.12053 0.96348 0.0
C721 C 0.47772 0.94597 0.97352 0.0
O722 O 0.5125 0.10797 0.03178 0.0
O723 O 0.5044 0.04333 0.06008 0.0
O724 O 0.58629 0.93303 0.08764 0.0
O725 O 0.63131 0.9885 0.05892 0.0
C726 C 0.58915 0.96175 0.98506 0.0
C727 C 0.62878 0.10396 0.96843 0.0
C728 C 0.61298 0.09584 0.06892 0.0
O729 O 0.60523 0.05762 0.06949 0.0
O730 O 0.60088 0.12039 0.04059 0.0
C731 C 0.46747 0.08898 0.95832 0.0
O732 O 0.45313 0.96763 0.04381 0.0
O733 O 0.49057 0.9224 0.07967 0.0
C734 C 0.49995 0.07893 0.05779 0.0
C735 C 0.45864 0.93773 0.07153 0.0
Fe736 Fe 0.04829 0.56161 1.01165 0.0
O737 O 1.0078 0.51039 1.00195 0.0
Fe738 Fe 0.13857 0.5282 0.03816 0.0
Fe739 Fe 0.94976 0.50037 1.00757 0.0
O740 O 0.08107 0.52172 0.04141 0.0
O741 O 0.08015 0.51596 0.04585 0.0
O742 O 1.00725 0.50515 1.00555 0.0
Fe743 Fe 1.04035 0.46461 0.03406 0.0
C744 C 0.98892 0.56053 0.06076 0.0
O745 O 1.00613 0.59667 0.97811 0.0
O746 O 0.95006 0.54732 0.96166 0.0
O747 O 0.06536 0.47166 0.98649 0.0
O748 O 0.13091 0.48242 1.00838 0.0
O749 O 0.13841 0.57109 0.98893 0.0
O750 O 0.0741 0.569 0.96332 0.0
O751 O 0.94366 0.453 0.98088 0.0
O752 O 0.99345 0.4187 1.01245 0.0
C753 C 0.11231 0.58032 0.96116 0.0
O754 O 0.08519 0.4307 0.06678 0.0
O755 O 0.13826 0.48239 0.08473 0.0
O756 O 1.02474 0.55861 0.05899 0.0
O757 O 0.95833 0.54518 0.03889 0.0
C758 C 0.97031 0.58503 0.95869 0.0
C759 C 0.96036 0.422 0.98882 0.0
C760 C 0.9725 0.44153 0.08213 0.0
O761 O 0.94911 0.45648 0.05487 0.0
O762 O 1.01136 0.45078 0.0824 0.0
C763 C 0.10073 0.46761 0.98598 0.0
O764 O 0.14512 0.57655 0.06354 0.0
O765 O 0.09541 0.60912 0.02929 0.0
C766 C 0.12067 0.44399 0.08661 0.0
C767 C 0.12833 0.60736 0.05315 0.0
Fe768 Fe 0.52175 0.50711 0.98472 0.0
O769 O 0.56115 0.54127 1.01839 0.0
Fe770 Fe 0.46241 0.43447 0.04627 0.0
Fe771 Fe 0.61582 0.57082 1.00773 0.0
O772 O 0.51483 0.46567 0.03126 0.0
O773 O 0.51594 0.46551 0.03461 0.0
O774 O 0.56204 0.54142 1.02215 0.0
Fe775 Fe 0.55525 0.49908 0.06838 0.0
C776 C 0.59832 0.50278 0.96201 0.0
O777 O 0.5362 0.55531 0.9395 0.0
O778 O 0.58286 0.60502 0.96688 0.0
O779 O 0.51037 0.52206 0.07976 0.0
O780 O 0.4637 0.46377 0.08932 0.0
O781 O 0.43086 0.47399 1.01151 0.0
O782 O 0.47668 0.53114 0.99324 0.0
O783 O 0.61776 0.59731 0.05261 0.0
O784 O 0.59787 0.54072 0.09753 0.0
C785 C 0.44135 0.51248 1.00146 0.0
O786 O 0.54277 0.44915 0.11244 0.0
O787 O 0.49707 0.39965 0.08388 0.0
O788 O 0.56614 0.4827 0.97563 0.0
O789 O 0.61574 0.53888 0.96705 0.0
C790 C 0.55986 0.59184 0.9382 0.0
C791 C 0.61556 0.57892 0.08705 0.0
C792 C 0.6373 0.49571 0.0608 0.0
O793 O 0.6469 0.53312 0.04593 0.0
O794 O 0.60044 0.4759 0.05948 0.0
C795 C 0.47965 0.49999 0.09489 0.0
O796 O 0.45951 0.40941 1.0007 0.0
O797 O 0.47906 0.46517 0.95522 0.0
C798 C 0.52193 0.41169 0.11215 0.0
C799 C 0.46204 0.4269 0.96627 0.0
Fe800 Fe 1.03725 0.47134 0.52943 0.0
O801 O 0.06809 0.51874 0.55359 0.0
Fe802 Fe 1.00929 0.52038 0.43784 0.0
Fe803 Fe 0.07381 0.51498 0.60725 0.0
O804 O 1.01201 0.51331 0.49258 0.0
O805 O 1.01365 0.51793 0.4914 0.0
O806 O 0.06955 0.52339 0.55249 0.0
Fe807 Fe 0.04323 0.56499 0.51634 0.0
C808 C 0.99605 0.45309 0.5972 0.0
O809 O 0.07155 0.43445 0.57125 0.0
O810 O 0.11374 0.47814 0.60849 0.0
O811 O 0.09073 0.57952 0.4854 0.0
O812 O 0.05535 0.57265 0.42974 0.0
O813 O 0.05212 0.48696 0.4412 0.0
O814 O 0.08391 0.48329 0.49936 0.0
O815 O 0.11245 0.57283 0.59921 0.0
O816 O 0.07783 0.60906 0.54898 0.0
C817 C 0.08307 0.48261 0.46545 0.0
O818 O 1.00988 0.60216 0.47393 0.0
O819 O 0.97137 0.55963 0.43417 0.0
O820 O 0.98972 0.45805 0.56172 0.0
O821 O 1.03211 0.46037 0.61405 0.0
C822 C 0.10328 0.44365 0.59657 0.0
C823 C 0.10516 0.60659 0.57871 0.0
C824 C 0.99719 0.55057 0.58128 0.0
O825 O 1.02792 0.54466 0.6055 0.0
O826 O 0.99646 0.55206 0.54681 0.0
C827 C 0.08853 0.58511 0.45017 0.0
O828 O 0.96772 0.46461 0.44679 0.0
O829 O 1.00145 0.42726 0.49689 0.0
C830 C 0.98055 0.59366 0.44648 0.0
C831 C 0.97383 0.43044 0.46737 0.0
Fe832 Fe 0.53865 0.96124 0.53188 0.0
O833 O 0.57222 1.00937 0.55326 0.0
Fe834 Fe 0.50369 1.00996 0.44184 0.0
Fe835 Fe 0.58504 1.00974 0.60598 0.0
O836 O 0.51296 1.00446 0.49677 0.0
O837 O 0.51418 1.00996 0.49523 0.0
O838 O 0.57451 1.01466 0.55113 0.0
Fe839 Fe 0.54937 0.05813 0.51601 0.0
C840 C 0.50203 0.94537 0.6036 0.0
O841 O 0.57243 0.92269 0.57231 0.0
O842 O 0.61805 0.96696 0.60666 0.0
O843 O 0.59235 0.06913 0.47927 0.0
O844 O 0.54816 0.06223 0.42818 0.0
O845 O 0.54462 0.9757 0.44179 0.0
O846 O 0.58227 0.97066 0.498 0.0
O847 O 0.62833 0.06225 0.59095 0.0
O848 O 0.59157 0.10149 0.5452 0.0
C849 C 0.57626 0.96849 0.46376 0.0
O850 O 0.51355 0.09589 0.47583 0.0
O851 O 0.46845 0.04996 0.44223 0.0
O852 O 0.49456 0.94834 0.56809 0.0
O853 O 0.5374 0.96052 0.61952 0.0
C854 C 0.60488 0.93166 0.59671 0.0
C855 C 0.62255 0.09684 0.57114 0.0
C856 C 0.51719 0.05782 0.58499 0.0
O857 O 0.54839 0.04828 0.60617 0.0
O858 O 0.50808 0.05202 0.55157 0.0
C859 C 0.58399 0.07575 0.44378 0.0
O860 O 0.46257 0.95476 0.45523 0.0
O861 O 0.50083 0.91759 0.5007 0.0
C862 C 0.48009 0.08514 0.45271 0.0
C863 C 0.47193 0.92077 0.47249 0.0
H864 H 0.2317 0.24507 0.38517 0.0
H865 H 0.16969 0.17581 0.29989 0.0
H866 H 0.12285 0.13221 0.34212 0.0
H867 H 0.10678 0.10794 0.4062 0.0
H868 H 0.16892 0.17746 0.49094 0.0
H869 H 0.20805 0.22789 0.44555 0.0
C870 C 0.20777 0.22071 0.3755 0.0
C871 C 0.20558 0.21235 0.33993 0.0
C872 C 0.1809 0.19611 0.39983 0.0
C873 C 0.17332 0.18167 0.32762 0.0
C874 C 0.14629 0.15697 0.35168 0.0
C875 C 0.12798 0.13494 0.41424 0.0
C876 C 0.13524 0.13944 0.4515 0.0
C877 C 0.15088 0.16298 0.38827 0.0
C878 C 0.16277 0.17399 0.46216 0.0
C879 C 0.18537 0.2024 0.43635 0.0
H880 H 0.95512 0.09743 0.28351 0.0
H881 H 0.85057 0.99701 0.2971 0.0
H882 H 0.87311 0.98238 0.36396 0.0
H883 H 0.91547 1.00697 0.41896 0.0
H884 H 1.02155 0.10602 0.40516 0.0
H885 H 1.00499 0.11329 0.33772 0.0
C886 C 0.93863 0.07101 0.30097 0.0
C887 C 0.90132 0.04842 0.28591 0.0
C888 C 0.95078 0.0641 0.33936 0.0
C889 C 0.87964 1.01447 0.30839 0.0
C890 C 0.89197 1.00681 0.34666 0.0
C891 C 0.93479 0.0302 0.40111 0.0
C892 C 0.96878 0.05684 0.41672 0.0
C893 C 0.92604 0.03311 0.36256 0.0
C894 C 0.99454 0.08591 0.39353 0.0
C895 C 0.98539 0.08979 0.3551 0.0
H896 H 0.91826 0.87683 0.32317 0.0
H897 H 0.80218 0.84337 0.36251 0.0
H898 H 0.83057 0.88028 0.41255 0.0
H899 H 0.88928 0.91627 0.44894 0.0
H900 H 1.0069 0.94923 0.4124 0.0
H901 H 0.97731 0.91845 0.35764 0.0
C902 C 0.89912 0.87844 0.34214 0.0
C903 C 0.85805 0.85732 0.33883 0.0
C904 C 0.91617 0.89898 0.37193 0.0
C905 C 0.83378 0.85917 0.3642 0.0
C906 C 0.85007 0.8802 0.39311 0.0
C907 C 0.90855 0.91693 0.42901 0.0
C908 C 0.95043 0.93413 0.43525 0.0
C909 C 0.89142 0.89917 0.39787 0.0
C910 C 0.97471 0.93527 0.4087 0.0
C911 C 0.95775 0.91789 0.37726 0.0
H912 H 0.09902 0.91784 0.3283 0.0
H913 H 0.12739 0.80514 0.38968 0.0
H914 H 0.11956 0.82166 0.44765 0.0
H915 H 0.10985 0.87146 0.48169 0.0
H916 H 0.08457 0.98485 0.41866 0.0
H917 H 0.08475 0.96431 0.36081 0.0
C918 C 0.10269 0.89644 0.35421 0.0
C919 C 0.11408 0.86051 0.35458 0.0
C920 C 0.09864 0.90633 0.38737 0.0
C921 C 0.11927 0.83343 0.38863 0.0
C922 C 0.11464 0.84276 0.42182 0.0
C923 C 0.10374 0.89113 0.45519 0.0
C924 C 0.09718 0.92953 0.45429 0.0
C925 C 0.10515 0.8796 0.4217 0.0
C926 C 0.08983 0.95515 0.41989 0.0
C927 C 0.08999 0.94351 0.38679 0.0
H928 H 0.21684 1.00335 0.73756 0.0
H929 H 0.11461 0.9182 0.78322 0.0
H930 H 0.07559 0.9188 0.72066 0.0
H931 H 0.07637 0.93401 0.65268 0.0
H932 H 0.18787 1.00287 0.61043 0.0
H933 H 0.21858 0.01651 0.67172 0.0
C934 C 0.1853 0.98645 0.73372 0.0
C935 C 0.1681 0.96146 0.76446 0.0
C936 C 0.16583 0.98227 0.69805 0.0
C937 C 0.12782 0.93849 0.75973 0.0
C938 C 0.10611 0.93797 0.72398 0.0
C939 C 0.10739 0.95191 0.65706 0.0
C940 C 0.1298 0.96743 0.62714 0.0
C941 C 0.12576 0.95795 0.69289 0.0
C942 C 0.17012 0.99014 0.63309 0.0
C943 C 0.18757 0.99846 0.66802 0.0
H944 H 0.16484 0.15314 0.71734 0.0
H945 H 0.2857 0.16055 0.69741 0.0
H946 H 0.25796 0.11799 0.6506 0.0
H947 H 0.19943 0.08609 0.6102 0.0
H948 H 0.07795 0.07728 0.63025 0.0
H949 H 0.10577 0.11273 0.68217 0.0
C950 C 0.18498 0.14429 0.70359 0.0
C951 C 0.22711 0.16009 0.71046 0.0
C952 C 0.16872 0.12027 0.67619 0.0
C953 C 0.25306 0.14907 0.69206 0.0
C954 C 0.23724 0.12483 0.66527 0.0
C955 C 0.17896 0.09146 0.62612 0.0
C956 C 0.13669 0.0797 0.61575 0.0
C957 C 0.19509 0.11155 0.65613 0.0
C958 C 0.11069 0.08652 0.63715 0.0
C959 C 0.12654 0.10671 0.667 0.0
H960 H 0.98704 0.16775 0.67939 0.0
H961 H 0.85866 0.11164 0.6642 0.0
H962 H 0.86658 0.08481 0.61178 0.0
H963 H 0.9109 0.07265 0.57389 0.0
H964 H 1.03915 0.12997 0.58758 0.0
H965 H 1.03038 0.1617 0.63648 0.0
C966 C 0.96087 0.14985 0.66434 0.0
C967 C 0.92242 0.14119 0.67573 0.0
C968 C 0.96562 0.13493 0.63399 0.0
C969 C 0.88852 0.11857 0.65584 0.0
C970 C 0.89306 0.1032 0.62597 0.0
C971 C 0.93682 0.09265 0.58716 0.0
C972 C 0.97566 0.09862 0.57741 0.0
C973 C 0.93156 0.11058 0.61526 0.0
C974 C 1.00889 0.12498 0.5945 0.0
C975 C 1.00395 0.14283 0.6227 0.0
H976 H 0.8566 0.77638 0.67072 0.0
H977 H 0.9223 0.84648 0.75439 0.0
H978 H 0.96896 0.88805 0.71122 0.0
H979 H 0.98437 0.91051 0.64672 0.0
H980 H 0.91922 0.83969 0.56375 0.0
H981 H 0.87953 0.79145 0.60995 0.0
C982 C 0.88132 0.80045 0.67984 0.0
C983 C 0.88464 0.80954 0.71537 0.0
C984 C 0.90823 0.82388 0.65495 0.0
C985 C 0.91784 0.83993 0.72684 0.0
C986 C 0.94477 0.86352 0.70219 0.0
C987 C 0.96244 0.88364 0.63924 0.0
C988 C 0.95468 0.87823 0.60216 0.0
C989 C 0.93928 0.85672 0.66575 0.0
C990 C 0.92599 0.84387 0.59233 0.0
C991 C 0.903 0.8167 0.61862 0.0
H992 H 0.36952 0.07096 0.15804 0.0
H993 H 0.40097 0.20089 0.12003 0.0
H994 H 0.45308 0.19412 0.08729 0.0
H995 H 0.48641 0.15046 0.06605 0.0
H996 H 0.45544 0.02047 0.10612 0.0
H997 H 0.40688 0.02816 0.14154 0.0
C998 C 0.38798 0.09778 0.14273 0.0
C999 C 0.38118 0.13631 0.14108 0.0
C1000 C 0.41796 0.09365 0.12425 0.0
C1001 C 0.4057 0.17092 0.12168 0.0
C1002 C 0.43536 0.16702 0.10286 0.0
C1003 C 0.46941 0.12387 0.08287 0.0
C1004 C 0.47455 0.08494 0.08302 0.0
C1005 C 0.44133 0.12844 0.10344 0.0
C1006 C 0.45231 0.05087 0.10527 0.0
C1007 C 0.42427 0.05516 0.12552 0.0
H1008 H 0.83389 0.30757 0.15953 0.0
H1009 H 0.90905 0.33708 0.26023 0.0
H1010 H 0.96189 0.3828 0.22411 0.0
H1011 H 0.98403 0.42013 0.16165 0.0
H1012 H 0.90854 0.38324 0.06295 0.0
H1013 H 0.86007 0.33502 0.10005 0.0
C1014 C 0.86231 0.32316 0.17371 0.0
C1015 C 0.8675 0.31814 0.21271 0.0
C1016 C 0.89288 0.34879 0.15277 0.0
C1017 C 0.90438 0.33944 0.23037 0.0
C1018 C 0.93459 0.36597 0.20955 0.0
C1019 C 0.95758 0.40084 0.14836 0.0
C1020 C 0.95016 0.40649 0.10893 0.0
C1021 C 0.929 0.37173 0.1704 0.0
C1022 C 0.91524 0.38068 0.09285 0.0
C1023 C 0.88711 0.3528 0.11414 0.0
H1024 H 0.75619 0.89448 0.21409 0.0
H1025 H 0.7009 0.78268 0.17393 0.0
H1026 H 0.66006 0.818 0.12284 0.0
H1027 H 0.63347 0.87851 0.09352 0.0
H1028 H 0.68785 0.99173 0.13114 0.0
H1029 H 0.73538 0.95868 0.1785 0.0
C1030 C 0.73643 0.87829 0.19326 0.0
C1031 C 0.73309 0.83591 0.19727 0.0
C1032 C 0.71199 0.89904 0.16376 0.0
C1033 C 0.70557 0.8153 0.17089 0.0
C1034 C 0.68162 0.83549 0.14184 0.0
C1035 C 0.65621 0.89623 0.11165 0.0
C1036 C 0.65674 0.93766 0.10869 0.0
C1037 C 0.68361 0.87702 0.13857 0.0
C1038 C 0.68666 0.95998 0.13247 0.0
C1039 C 0.71375 0.94088 0.15979 0.0
H1040 H 0.25589 0.71851 0.14928 0.0
H1041 H 0.1519 0.70443 0.203 0.0
H1042 H 0.10698 0.67202 0.15327 0.0
H1043 H 0.09941 0.63886 0.09942 0.0
H1044 H 0.20476 0.65126 0.04822 0.0
H1045 H 0.24703 0.69416 0.09136 0.0
C1046 C 0.22332 0.70871 0.14985 0.0
C1047 C 0.20719 0.71298 0.17993 0.0
C1048 C 0.198 0.69004 0.12147 0.0
C1049 C 0.16492 0.7011 0.18011 0.0
C1050 C 0.13931 0.68252 0.15177 0.0
C1051 C 0.13128 0.65234 0.097 0.0
C1052 C 0.14917 0.64239 0.07078 0.0
C1053 C 0.1557 0.6757 0.12289 0.0
C1054 C 0.19057 0.65904 0.06813 0.0
C1055 C 0.21475 0.68313 0.09299 0.0
H1056 H 0.35066 0.88471 0.83868 0.0
H1057 H 0.40227 0.78002 0.8759 0.0
H1058 H 0.44968 0.81361 0.92396 0.0
H1059 H 0.47418 0.8718 0.9573 0.0
H1060 H 0.42397 0.97759 0.91746 0.0
H1061 H 0.37828 0.94457 0.86866 0.0
C1062 C 0.37197 0.86902 0.85744 0.0
C1063 C 0.37213 0.82938 0.85411 0.0
C1064 C 0.39946 0.88886 0.8846 0.0
C1065 C 0.40124 0.81032 0.87789 0.0
C1066 C 0.42827 0.82956 0.90546 0.0
C1067 C 0.45339 0.88779 0.93784 0.0
C1068 C 0.4525 0.92726 0.94149 0.0
C1069 C 0.42734 0.86868 0.9094 0.0
C1070 C 0.4256 0.94745 0.91553 0.0
C1071 C 0.39924 0.92842 0.88764 0.0
H1072 H 0.08762 0.3344 0.89121 0.0
H1073 H 0.21663 0.35701 0.9292 0.0
H1074 H 0.21223 0.41085 0.95945 0.0
H1075 H 0.17066 0.44819 0.97884 0.0
H1076 H 0.0419 0.42677 0.93857 0.0
H1077 H 0.04728 0.37596 0.90571 0.0
C1078 C 0.11479 0.35124 0.90601 0.0
C1079 C 0.15234 0.34138 0.90824 0.0
C1080 C 0.11203 0.38225 0.92319 0.0
C1081 C 0.18739 0.364 0.92697 0.0
C1082 C 0.18483 0.39467 0.94444 0.0
C1083 C 0.14382 0.43279 0.96255 0.0
C1084 C 0.10572 0.44095 0.96192 0.0
C1085 C 0.14717 0.40364 0.94326 0.0
C1086 C 0.07149 0.42082 0.9402 0.0
C1087 C 0.07453 0.39168 0.92129 0.0
H1088 H 0.67135 0.17692 0.80824 0.0
H1089 H 0.77894 0.24358 0.86737 0.0
H1090 H 0.75921 0.20296 0.9266 0.0
H1091 H 0.70591 0.15373 0.9621 0.0
H1092 H 0.60111 0.08452 0.90168 0.0
H1093 H 0.62551 0.11964 0.84299 0.0
C1094 C 0.69086 0.18195 0.8341 0.0
C1095 C 0.72665 0.21315 0.83324 0.0
C1096 C 0.67973 0.15778 0.86808 0.0
C1097 C 0.75157 0.21941 0.86701 0.0
C1098 C 0.74012 0.19625 0.90105 0.0
C1099 C 0.68936 0.1453 0.93617 0.0
C1100 C 0.65179 0.1163 0.93631 0.0
C1101 C 0.70365 0.16593 0.90207 0.0
C1102 C 0.63028 0.10638 0.90234 0.0
C1103 C 0.64397 0.12681 0.86868 0.0
H1104 H 0.89326 0.71779 0.83416 0.0
H1105 H 0.78379 0.63404 0.86878 0.0
H1106 H 0.82393 0.59415 0.9158 0.0
H1107 H 0.88897 0.57899 0.94491 0.0
H1108 H 1.00077 0.66052 0.91429 0.0
H1109 H 0.96147 0.70494 0.869 0.0
C1110 C 0.8783 0.69129 0.85248 0.0
C1111 C 0.83497 0.67929 0.84759 0.0
C1112 C 0.90212 0.66754 0.88021 0.0
C1113 C 0.81666 0.64433 0.87157 0.0
C1114 C 0.83971 0.62122 0.89861 0.0
C1115 C 0.90511 0.60652 0.92849 0.0
C1116 C 0.94815 0.61564 0.93303 0.0
C1117 C 0.88232 0.63187 0.90273 0.0
C1118 C 0.96787 0.65221 0.91168 0.0
C1119 C 0.9452 0.67765 0.88552 0.0
H1120 H 0.27609 0.3832 0.1758 0.0
H1121 H 0.18926 0.29194 0.2371 0.0
H1122 H 0.13307 0.31735 0.1951 0.0
H1123 H 0.1087 0.37111 0.1427 0.0
H1124 H 0.19855 0.45569 0.07899 0.0
H1125 H 0.25211 0.42706 0.11899 0.0
C1126 C 0.24483 0.36831 0.1797 0.0
C1127 C 0.23737 0.33554 0.20985 0.0
C1128 C 0.21261 0.38224 0.15463 0.0
C1129 C 0.19635 0.31689 0.21412 0.0
C1130 C 0.16404 0.33167 0.19001 0.0
C1131 C 0.13976 0.38254 0.13693 0.0
C1132 C 0.14894 0.41655 0.10758 0.0
C1133 C 0.17163 0.36504 0.16028 0.0
C1134 C 0.18994 0.43032 0.10128 0.0
C1135 C 0.22103 0.41397 0.12438 0.0
H1136 H 0.15831 0.68134 0.80166 0.0
H1137 H 0.27286 0.71939 0.86942 0.0
H1138 H 0.24497 0.67746 0.92481 0.0
H1139 H 0.18873 0.62894 0.95457 0.0
H1140 H 0.07238 0.59235 0.88873 0.0
H1141 H 0.09992 0.63446 0.8327 0.0
C1142 C 0.17695 0.68075 0.82865 0.0
C1143 C 0.21769 0.70423 0.83117 0.0
C1144 C 0.16034 0.65656 0.86095 0.0
C1145 C 0.24141 0.70246 0.86647 0.0
C1146 C 0.22541 0.67826 0.89828 0.0
C1147 C 0.16915 0.62997 0.92802 0.0
C1148 C 0.1283 0.60676 0.92631 0.0
C1149 C 0.18503 0.65497 0.89594 0.0
C1150 C 0.10378 0.60947 0.89134 0.0
C1151 C 0.11964 0.63367 0.85913 0.0
H1152 H 0.3906 0.23322 0.86579 0.0
H1153 H 0.30967 0.14031 0.81028 0.0
H1154 H 0.33968 0.08795 0.85477 0.0
H1155 H 0.39585 0.06984 0.90633 0.0
H1156 H 0.47027 0.16474 0.96387 0.0
H1157 H 0.4356 0.21403 0.92287 0.0
C1158 C 0.37871 0.20136 0.86396 0.0
C1159 C 0.34758 0.19094 0.83475 0.0
C1160 C 0.3954 0.17141 0.89022 0.0
C1161 C 0.33302 0.14939 0.83275 0.0
C1162 C 0.35054 0.11938 0.85815 0.0
C1163 C 0.40355 0.10095 0.91064 0.0
C1164 C 0.43641 0.11324 0.93839 0.0
C1165 C 0.38265 0.13002 0.88669 0.0
C1166 C 0.44566 0.15409 0.94289 0.0
C1167 C 0.42591 0.18263 0.91919 0.0
H1168 H 0.90587 0.31019 0.86888 0.0
H1169 H 0.79665 0.35198 0.85902 0.0
H1170 H 0.82475 0.3836 0.91299 0.0
H1171 H 0.88172 0.40449 0.95906 0.0
H1172 H 0.99343 0.36716 0.96877 0.0
H1173 H 0.96244 0.32699 0.91986 0.0
C1174 C 0.88813 0.32566 0.87894 0.0
C1175 C 0.8495 0.32931 0.85959 0.0
C1176 C 0.90483 0.34434 0.91002 0.0
C1177 C 0.82686 0.3497 0.87279 0.0
C1178 C 0.84274 0.36746 0.90388 0.0
C1179 C 0.89936 0.38729 0.95082 0.0
C1180 C 0.94021 0.38975 0.9668 0.0
C1181 C 0.88195 0.36577 0.92209 0.0
C1182 C 0.96209 0.36625 0.95656 0.0
C1183 C 0.94446 0.34356 0.92839 0.0
H1184 H 0.72369 0.96538 0.89043 0.0
H1185 H 0.69143 0.83609 0.93197 0.0
H1186 H 0.63801 0.84461 0.96195 0.0
H1187 H 0.60344 0.88951 0.97974 0.0
H1188 H 0.63516 0.01877 0.93672 0.0
H1189 H 0.6853 1.00949 0.90381 0.0
C1190 C 0.70482 0.93907 0.90593 0.0
C1191 C 0.71178 0.90019 0.90925 0.0
C1192 C 0.674 0.94419 0.92288 0.0
C1193 C 0.68665 0.86631 0.92892 0.0
C1194 C 0.65621 0.8712 0.94619 0.0
C1195 C 0.62094 0.91561 0.96281 0.0
C1196 C 0.61547 0.95484 0.96104 0.0
C1197 C 0.64997 0.91009 0.94383 0.0
C1198 C 0.63843 0.9882 0.9387 0.0
C1199 C 0.6674 0.98297 0.91995 0.0
H1200 H 0.99994 0.66653 0.18044 0.0
H1201 H 0.89433 0.6965 0.10716 0.0
H1202 H 0.89543 0.64814 0.0697 0.0
H1203 H 0.92889 0.60032 0.05502 0.0
H1204 H 1.03796 0.57543 0.12521 0.0
H1205 H 1.03337 0.6193 0.16586 0.0
C1206 C 0.9773 0.663 0.1561 0.0
C1207 C 0.94713 0.68564 0.14694 0.0
C1208 C 0.97883 0.63599 0.1338 0.0
C1209 C 0.9176 0.67935 0.11561 0.0
C1210 C 0.91839 0.65183 0.09381 0.0
C1211 C 0.95131 0.60404 0.07952 0.0
C1212 C 0.9836 0.58432 0.0871 0.0
C1213 C 0.94911 0.63028 0.10237 0.0
C1214 C 1.01278 0.59012 0.11865 0.0
C1215 C 1.0102 0.6153 0.14194 0.0
H1216 H 0.31017 0.82266 0.14843 0.0
H1217 H 0.39518 0.84286 0.24708 0.0
H1218 H 0.44367 0.89252 0.20916 0.0
H1219 H 0.46512 0.92338 0.14706 0.0
H1220 H 0.37836 0.90647 0.04869 0.0
H1221 H 0.3271 0.863 0.08713 0.0
C1222 C 0.33881 0.83901 0.16164 0.0
C1223 C 0.34883 0.82957 0.20059 0.0
C1224 C 0.36643 0.86767 0.13956 0.0
C1225 C 0.38637 0.85026 0.21731 0.0
C1226 C 0.41428 0.87831 0.19553 0.0
C1227 C 0.43472 0.91076 0.13413 0.0
C1228 C 0.42569 0.91776 0.09498 0.0
C1229 C 0.40518 0.88626 0.15653 0.0
C1230 C 0.38607 0.90158 0.07864 0.0
C1231 C 0.35684 0.87651 0.10066 0.0
H1232 H 0.74384 0.15096 0.20422 0.0
H1233 H 0.68411 0.24976 0.18062 0.0
H1234 H 0.63722 0.2199 0.1305 0.0
H1235 H 0.61423 0.16614 0.09182 0.0
H1236 H 0.67126 0.06477 0.1193 0.0
H1237 H 0.71787 0.09494 0.16921 0.0
C1238 C 0.72085 0.16623 0.18802 0.0
C1239 C 0.71844 0.20334 0.19591 0.0
C1240 C 0.69326 0.14816 0.15979 0.0
C1241 C 0.68723 0.22163 0.17519 0.0
C1242 C 0.66032 0.20444 0.14639 0.0
C1243 C 0.63676 0.15053 0.10881 0.0
C1244 C 0.6392 0.11314 0.10136 0.0
C1245 C 0.6632 0.16781 0.13818 0.0
C1246 C 0.66837 0.09333 0.1242 0.0
C1247 C 0.69527 0.11075 0.15274 0.0
H1248 H 0.65292 0.65118 0.80173 0.0
H1249 H 0.69683 0.7564 0.85372 0.0
H1250 H 0.64459 0.72992 0.89403 0.0
H1251 H 0.59422 0.67242 0.92134 0.0
H1252 H 0.55382 0.56385 0.87394 0.0
H1253 H 0.59542 0.59647 0.82436 0.0
C1254 C 0.65067 0.6685 0.82145 0.0
C1255 C 0.67961 0.70517 0.82532 0.0
C1256 C 0.62092 0.65245 0.84545 0.0
C1257 C 0.67582 0.72753 0.85082 0.0
C1258 C 0.6457 0.71252 0.8738 0.0
C1259 C 0.59349 0.65627 0.89952 0.0
C1260 C 0.57127 0.61557 0.90175 0.0
C1261 C 0.61917 0.67432 0.87237 0.0
C1262 C 0.57041 0.59528 0.87298 0.0
C1263 C 0.59481 0.61371 0.84488 0.0
H1264 H 0.3315 0.63564 0.94625 0.0
H1265 H 0.24576 0.5238 0.92627 0.0
H1266 H 0.28953 0.48475 0.96906 0.0
H1267 H 0.36004 0.48232 0.9926 0.0
H1268 H 0.45205 0.59398 0.99859 0.0
H1269 H 0.39966 0.63297 0.97887 0.0
C1270 C 0.32227 0.60266 0.95136 0.0
C1271 C 0.28708 0.58293 0.93042 0.0
C1272 C 0.35008 0.58025 0.97189 0.0
C1273 C 0.27349 0.54035 0.94042 0.0
C1274 C 0.29903 0.5177 0.96447 0.0
C1275 C 0.36863 0.51513 0.99028 0.0
C1276 C 0.40987 0.5355 0.99557 0.0
C1277 C 0.33884 0.53733 0.97706 0.0
C1278 C 0.4205 0.57787 0.9933 0.0
C1279 C 0.39057 0.60008 0.98237 0.0
H1280 H 0.36046 0.29291 0.87506 0.0
H1281 H 0.36515 0.39609 0.78486 0.0
H1282 H 0.40872 0.44063 0.82674 0.0
H1283 H 0.44196 0.45022 0.89056 0.0
H1284 H 0.43691 0.34444 0.9789 0.0
H1285 H 0.39712 0.30109 0.93605 0.0
C1286 C 0.37069 0.32517 0.86452 0.0
C1287 C 0.35875 0.34137 0.82724 0.0
C1288 C 0.39576 0.35018 0.88848 0.0
C1289 C 0.37357 0.38302 0.81369 0.0
C1290 C 0.39844 0.40843 0.83761 0.0
C1291 C 0.43254 0.41766 0.90031 0.0
C1292 C 0.44201 0.40094 0.9382 0.0
C1293 C 0.40929 0.3924 0.87531 0.0
C1294 C 0.42967 0.35852 0.95017 0.0
C1295 C 0.40683 0.33349 0.92566 0.0
H1296 H 0.63905 0.40427 0.85708 0.0
H1297 H 0.70704 0.52431 0.81355 0.0
H1298 H 0.68797 0.55204 0.86008 0.0
H1299 H 0.65018 0.54273 0.91181 0.0
H1300 H 0.58023 0.42316 0.95431 0.0
H1301 H 0.6022 0.39475 0.90989 0.0
C1302 C 0.65012 0.43638 0.85814 0.0
C1303 C 0.67439 0.46214 0.83182 0.0
C1304 C 0.63868 0.45225 0.88482 0.0
C1305 C 0.68801 0.50384 0.83323 0.0
C1306 C 0.67723 0.51972 0.85993 0.0
C1307 C 0.64011 0.51035 0.91172 0.0
C1308 C 0.61375 0.48512 0.9366 0.0
C1309 C 0.65231 0.49429 0.88567 0.0
C1310 C 0.60054 0.44333 0.93556 0.0
C1311 C 0.61308 0.42702 0.91012 0.0
H1312 H 0.78435 0.48402 0.18647 0.0
H1313 H 0.68753 0.40948 0.24705 0.0
H1314 H 0.6385 0.4137 0.19011 0.0
H1315 H 0.62311 0.44161 0.12423 0.0
H1316 H 0.71958 0.51767 0.06361 0.0
H1317 H 0.76943 0.50836 0.11924 0.0
C1318 C 0.75237 0.46935 0.18709 0.0
C1319 C 0.73904 0.44753 0.22067 0.0
C1320 C 0.72472 0.47123 0.15426 0.0
C1321 C 0.69796 0.42727 0.22137 0.0
C1322 C 0.67015 0.42928 0.18888 0.0
C1323 C 0.65515 0.45524 0.12287 0.0
C1324 C 0.66772 0.48041 0.08999 0.0
C1325 C 0.68321 0.45129 0.15522 0.0
C1326 C 0.70931 0.49814 0.08873 0.0
C1327 C 0.73768 0.49329 0.12058 0.0
H1328 H 0.71113 0.65068 0.22876 0.0
H1329 H 0.75345 0.75215 0.1431 0.0
H1330 H 0.71148 0.71596 0.09565 0.0
H1331 H 0.66284 0.65602 0.07796 0.0
H1332 H 0.61924 0.55396 0.16272 0.0
H1333 H 0.66054 0.59055 0.21087 0.0
C1334 C 0.71064 0.66517 0.19978 0.0
C1335 C 0.73481 0.70461 0.1898 0.0
C1336 C 0.68594 0.64422 0.17233 0.0
C1337 C 0.73493 0.72214 0.15191 0.0
C1338 C 0.71079 0.70146 0.12457 0.0
C1339 C 0.66197 0.64171 0.10691 0.0
C1340 C 0.63783 0.60221 0.1165 0.0
C1341 C 0.68606 0.66262 0.13444 0.0
C1342 C 0.63745 0.58434 0.15435 0.0
C1343 C 0.66122 0.60517 0.18198 0.0
H1344 H 0.40281 0.52995 0.22387 0.0
H1345 H 0.46078 0.65477 0.18292 0.0
H1346 H 0.48519 0.63343 0.13511 0.0
H1347 H 0.49162 0.57865 0.10563 0.0
H1348 H 0.43245 0.45417 0.14718 0.0
H1349 H 0.40783 0.47596 0.19405 0.0
C1350 C 0.42099 0.55256 0.20465 0.0
C1351 C 0.43005 0.59399 0.20733 0.0
C1352 C 0.43496 0.54005 0.17721 0.0
C1353 C 0.45298 0.62276 0.18151 0.0
C1354 C 0.4672 0.6105 0.15423 0.0
C1355 C 0.47323 0.55633 0.12485 0.0
C1356 C 0.46395 0.51474 0.12253 0.0
C1357 C 0.45859 0.56916 0.15188 0.0
C1358 C 0.43992 0.48638 0.1478 0.0
C1359 C 0.42581 0.4988 0.17484 0.0
H1360 H 0.40947 0.28612 0.21075 0.0
H1361 H 0.42241 0.39182 0.25759 0.0
H1362 H 0.4804 0.42774 0.22579 0.0
H1363 H 0.51877 0.43323 0.17594 0.0
H1364 H 0.50521 0.3287 0.12707 0.0
H1365 H 0.45826 0.28736 0.17003 0.0
C1366 C 0.42524 0.31688 0.21416 0.0
C1367 C 0.41074 0.33683 0.23554 0.0
C1368 C 0.45909 0.3373 0.19592 0.0
C1369 C 0.4323 0.37611 0.24077 0.0
C1370 C 0.46577 0.39664 0.22271 0.0
C1371 C 0.50722 0.40092 0.17591 0.0
C1372 C 0.51448 0.38427 0.1478 0.0
C1373 C 0.47848 0.37807 0.19914 0.0
C1374 C 0.49952 0.34226 0.14828 0.0
C1375 C 0.47203 0.31883 0.17231 0.0
H1376 H 0.83124 0.58221 0.60103 0.0
H1377 H 0.8946 0.59049 0.71153 0.0
H1378 H 0.95347 0.57471 0.69581 0.0
H1379 H 0.98796 0.56077 0.64972 0.0
H1380 H 0.92359 0.55346 0.53912 0.0
H1381 H 0.86426 0.56596 0.55613 0.0
C1382 C 0.8577 0.58009 0.62187 0.0
C1383 C 0.85844 0.58775 0.65737 0.0
C1384 C 0.8915 0.57121 0.61261 0.0
C1385 C 0.89335 0.58535 0.68381 0.0
C1386 C 0.92699 0.57612 0.67489 0.0
C1387 C 0.96092 0.56175 0.62938 0.0
C1388 C 0.96069 0.55651 0.59304 0.0
C1389 C 0.92662 0.56942 0.6392 0.0
C1390 C 0.92511 0.55775 0.56719 0.0
C1391 C 0.89096 0.56487 0.57686 0.0
H1392 H 0.39455 0.87676 0.73591 0.0
H1393 H 0.30639 0.82341 0.65182 0.0
H1394 H 0.35488 0.85162 0.60674 0.0
H1395 H 0.42279 0.89501 0.59018 0.0
H1396 H 0.50875 0.94847 0.67648 0.0
H1397 H 0.46151 0.91718 0.72052 0.0
C1398 C 0.3863 0.87052 0.70794 0.0
C1399 C 0.34728 0.84672 0.69778 0.0
C1400 C 0.41412 0.8877 0.68189 0.0
C1401 C 0.33661 0.84057 0.66083 0.0
C1402 C 0.36432 0.85711 0.63487 0.0
C1403 C 0.43122 0.89984 0.61856 0.0
C1404 C 0.47007 0.92457 0.62922 0.0
C1405 C 0.40325 0.88134 0.64481 0.0
C1406 C 0.47972 0.92984 0.66662 0.0
C1407 C 0.45247 0.91186 0.6923 0.0
H1408 H 0.16657 0.28325 0.67473 0.0
H1409 H 0.26851 0.36972 0.7197 0.0
H1410 H 0.2385 0.42595 0.68291 0.0
H1411 H 0.17969 0.45044 0.6411 0.0
H1412 H 0.07958 0.36207 0.59541 0.0
H1413 H 0.11219 0.30756 0.62897 0.0
C1414 C 0.18269 0.31447 0.67604 0.0
C1415 C 0.2201 0.3219 0.70002 0.0
C1416 C 0.16507 0.34665 0.65482 0.0
C1417 C 0.24014 0.36274 0.70133 0.0
C1418 C 0.22263 0.395 0.68042 0.0
C1419 C 0.16506 0.41932 0.63817 0.0
C1420 C 0.1265 0.41103 0.61548 0.0
C1421 C 0.18454 0.38738 0.65757 0.0
C1422 C 0.10883 0.37012 0.61226 0.0
C1423 C 0.12756 0.33859 0.63168 0.0
H1424 H 0.75969 0.20255 0.66724 0.0
H1425 H 0.65688 0.24125 0.68342 0.0
H1426 H 0.61336 0.2052 0.63586 0.0
H1427 H 0.60281 0.15609 0.59462 0.0
H1428 H 0.70484 0.11452 0.58086 0.0
H1429 H 0.75048 0.1588 0.62144 0.0
C1430 C 0.72781 0.20325 0.66011 0.0
C1431 C 0.71158 0.22475 0.67871 0.0
C1432 C 0.70286 0.18213 0.63278 0.0
C1433 C 0.67032 0.22568 0.66904 0.0
C1434 C 0.64531 0.20479 0.64195 0.0
C1435 C 0.6353 0.15812 0.59931 0.0
C1436 C 0.65063 0.13268 0.58432 0.0
C1437 C 0.66107 0.18238 0.624 0.0
C1438 C 0.69257 0.13442 0.59163 0.0
C1439 C 0.71855 0.15926 0.61527 0.0
H1440 H 0.83735 0.30355 0.38828 0.0
H1441 H 0.94166 0.28169 0.35585 0.0
H1442 H 0.98704 0.32696 0.39592 0.0
H1443 H 0.99719 0.37795 0.43619 0.0
H1444 H 0.89229 0.40213 0.46489 0.0
H1445 H 0.84732 0.35079 0.4308 0.0
C1446 C 0.87001 0.30821 0.39017 0.0
C1447 C 0.88583 0.28911 0.36869 0.0
C1448 C 0.89599 0.33489 0.41284 0.0
C1449 C 0.92838 0.29587 0.3718 0.0
C1450 C 0.95444 0.32189 0.39476 0.0
C1451 C 0.96454 0.37096 0.4359 0.0
C1452 C 0.94814 0.39314 0.45395 0.0
C1453 C 0.93865 0.34218 0.41499 0.0
C1454 C 0.90568 0.38488 0.45205 0.0
C1455 C 0.87994 0.35576 0.43221 0.0
H1456 H 0.71031 0.94227 0.38538 0.0
H1457 H 0.6263 0.82463 0.38609 0.0
H1458 H 0.58503 0.84259 0.42273 0.0
H1459 H 0.56996 0.89338 0.45097 0.0
H1460 H 0.64914 1.01339 0.44393 0.0
H1461 H 0.6952 0.99296 0.41339 0.0
C1462 C 0.68278 0.92054 0.3931 0.0
C1463 C 0.67151 0.88213 0.38236 0.0
C1464 C 0.65819 0.93165 0.413 0.0
C1465 C 0.63631 0.85417 0.39404 0.0
C1466 C 0.61233 0.86458 0.41478 0.0
C1467 C 0.59704 0.91512 0.44231 0.0
C1468 C 0.60593 0.95499 0.44897 0.0
C1469 C 0.62253 0.90347 0.42377 0.0
C1470 C 0.64184 0.98254 0.43897 0.0
C1471 C 0.66797 0.97088 0.4214 0.0
H1472 H 0.25155 0.69724 0.39347 0.0
H1473 H 0.1852 0.66953 0.2887 0.0
H1474 H 0.12984 0.62288 0.32039 0.0
H1475 H 0.09739 0.5955 0.37712 0.0
H1476 H 0.16254 0.62603 0.48169 0.0
H1477 H 0.22099 0.66607 0.45094 0.0
C1478 C 0.22532 0.68016 0.37777 0.0
C1479 C 0.22292 0.68603 0.3389 0.0
C1480 C 0.19298 0.65457 0.3961 0.0
C1481 C 0.1884 0.66457 0.3187 0.0
C1482 C 0.15646 0.63837 0.33682 0.0
C1483 C 0.12436 0.6108 0.39333 0.0
C1484 C 0.12504 0.60811 0.43176 0.0
C1485 C 0.15792 0.63401 0.37539 0.0
C1486 C 0.16073 0.62774 0.45215 0.0
C1487 C 0.19429 0.65065 0.43454 0.0
H1488 H 0.32585 0.15623 0.37895 0.0
H1489 H 0.41554 0.25845 0.33256 0.0
H1490 H 0.47022 0.22736 0.37063 0.0
H1491 H 0.49253 0.16626 0.41298 0.0
H1492 H 0.40011 0.06495 0.45723 0.0
H1493 H 0.34742 0.10029 0.42491 0.0
C1494 C 0.3574 0.17222 0.37761 0.0
C1495 C 0.36618 0.2099 0.35277 0.0
C1496 C 0.38861 0.15385 0.39932 0.0
C1497 C 0.40748 0.22976 0.3515 0.0
C1498 C 0.43888 0.21167 0.3732 0.0
C1499 C 0.46097 0.15244 0.41633 0.0
C1500 C 0.4507 0.11261 0.43809 0.0
C1501 C 0.42994 0.17307 0.39672 0.0
C1502 C 0.40929 0.09528 0.4411 0.0
C1503 C 0.3789 0.11551 0.42236 0.0
H1504 H 0.67863 0.79079 0.7101 0.0
H1505 H 0.79003 0.87503 0.68087 0.0
H1506 H 0.7517 0.91854 0.63588 0.0
H1507 H 0.68697 0.93753 0.60867 0.0
H1508 H 0.57417 0.85318 0.63236 0.0
H1509 H 0.61188 0.80555 0.67449 0.0
C1510 C 0.69445 0.81806 0.69319 0.0
C1511 C 0.7377 0.82932 0.69938 0.0
C1512 C 0.67177 0.84362 0.66634 0.0
C1513 C 0.75711 0.86528 0.67711 0.0
C1514 C 0.73511 0.89053 0.65127 0.0
C1515 C 0.67051 0.90838 0.62246 0.0
C1516 C 0.62753 0.89932 0.61706 0.0
C1517 C 0.69249 0.88077 0.64627 0.0
C1518 C 0.60709 0.86115 0.63544 0.0
C1519 C 0.62882 0.83389 0.65991 0.0
H1520 H 0.68643 0.16924 0.31075 0.0
H1521 H 0.78683 0.16722 0.39944 0.0
H1522 H 0.73968 0.1347 0.44479 0.0
H1523 H 0.669 0.10291 0.45945 0.0
H1524 H 0.56914 0.10528 0.36955 0.0
H1525 H 0.61614 0.14122 0.32571 0.0
C1526 C 0.69789 0.16252 0.3401 0.0
C1527 C 0.74029 0.17196 0.35164 0.0
C1528 C 0.67037 0.1431 0.36625 0.0
C1529 C 0.75444 0.1614 0.38976 0.0
C1530 C 0.72737 0.14246 0.4158 0.0
C1531 C 0.65744 0.11153 0.43037 0.0
C1532 C 0.615 0.1006 0.41843 0.0
C1533 C 0.6851 0.13255 0.40447 0.0
C1534 C 0.60128 0.11244 0.38021 0.0
C1535 C 0.62831 0.13325 0.35472 0.0
H1536 H 0.91747 0.75253 0.36149 0.0
H1537 H 0.8256 0.66481 0.30746 0.0
H1538 H 0.85461 0.6095 0.34749 0.0
H1539 H 0.90944 0.58634 0.3954 0.0
H1540 H 1.00028 0.67507 0.44981 0.0
H1541 H 0.96842 0.72899 0.41262 0.0
C1542 C 0.90327 0.72118 0.35896 0.0
C1543 C 0.86872 0.71302 0.33178 0.0
C1544 C 0.92036 0.68949 0.3821 0.0
C1545 C 0.85144 0.67216 0.32851 0.0
C1546 C 0.86839 0.64049 0.35129 0.0
C1547 C 0.9222 0.61738 0.39949 0.0
C1548 C 0.95785 0.62605 0.42575 0.0
C1549 C 0.90333 0.64876 0.37785 0.0
C1550 C 0.97319 0.66683 0.43027 0.0
C1551 C 0.95493 0.69796 0.40875 0.0
H1552 H 0.42129 0.82007 0.34436 0.0
H1553 H 0.31028 0.77914 0.39285 0.0
H1554 H 0.34258 0.81334 0.4448 0.0
H1555 H 0.39948 0.86354 0.47191 0.0
H1556 H 0.50929 0.90661 0.42211 0.0
H1557 H 0.48139 0.86289 0.37646 0.0
C1558 C 0.40474 0.81763 0.36693 0.0
C1559 C 0.36341 0.79744 0.36456 0.0
C1560 C 0.42338 0.83817 0.3967 0.0
C1561 C 0.34211 0.7949 0.39386 0.0
C1562 C 0.3605 0.81459 0.4236 0.0
C1563 C 0.41765 0.86216 0.45184 0.0
C1564 C 0.45704 0.88724 0.4513 0.0
C1565 C 0.40068 0.83764 0.42468 0.0
C1566 C 0.47974 0.88623 0.42429 0.0
C1567 C 0.46341 0.86169 0.3976 0.0
H1568 H 0.247 0.44465 0.45012 0.0
H1569 H 0.18805 0.44248 0.33745 0.0
H1570 H 0.12944 0.46033 0.35164 0.0
H1571 H 0.09393 0.47391 0.39714 0.0
H1572 H 0.15438 0.4752 0.50984 0.0
H1573 H 0.21343 0.4609 0.49428 0.0
C1574 C 0.22162 0.44868 0.42847 0.0
C1575 C 0.22188 0.44219 0.39283 0.0
C1576 C 0.18811 0.45862 0.43686 0.0
C1577 C 0.18839 0.44686 0.36526 0.0
C1578 C 0.15495 0.45719 0.37333 0.0
C1579 C 0.12005 0.47119 0.41824 0.0
C1580 C 0.1193 0.47531 0.45469 0.0
C1581 C 0.15423 0.46263 0.40923 0.0
C1582 C 0.15369 0.4719 0.4816 0.0
C1583 C 0.18767 0.46374 0.47278 0.0
H1584 H 0.44982 0.16078 0.66776 0.0
H1585 H 0.40214 0.20669 0.55507 0.0
H1586 H 0.42671 0.15815 0.53274 0.0
H1587 H 0.46643 0.10608 0.54447 0.0
H1588 H 0.51637 0.0618 0.65698 0.0
H1589 H 0.48602 0.10553 0.67988 0.0
C1590 C 0.44422 0.15967 0.63841 0.0
C1591 C 0.42433 0.18764 0.61318 0.0
C1592 C 0.45912 0.13196 0.62557 0.0
C1593 C 0.41775 0.18593 0.57513 0.0
C1594 C 0.43176 0.15808 0.56229 0.0
C1595 C 0.47012 0.10543 0.57407 0.0
C1596 C 0.49385 0.08053 0.59885 0.0
C1597 C 0.45321 0.13144 0.58714 0.0
C1598 C 0.49849 0.08063 0.63712 0.0
C1599 C 0.48116 0.10578 0.65032 0.0
H1600 H 0.90349 0.38895 0.73492 0.0
H1601 H 0.81576 0.31839 0.66181 0.0
H1602 H 0.8536 0.3546 0.60962 0.0
H1603 H 0.91798 0.4011 0.58732 0.0
H1604 H 0.99998 0.47485 0.66208 0.0
H1605 H 0.95743 0.44399 0.71017 0.0
C1606 C 0.89192 0.38241 0.70726 0.0
C1607 C 0.85683 0.35138 0.70218 0.0
C1608 C 0.91314 0.40388 0.67753 0.0
C1609 C 0.84239 0.34276 0.66631 0.0
C1610 C 0.86428 0.36325 0.63653 0.0
C1611 C 0.92592 0.41098 0.61381 0.0
C1612 C 0.96317 0.43931 0.62129 0.0
C1613 C 0.90063 0.39315 0.64205 0.0
C1614 C 0.9724 0.45218 0.65572 0.0
C1615 C 0.94802 0.43459 0.68347 0.0
H1616 H 0.23889 0.74588 0.64518 0.0
H1617 H 0.14623 0.73274 0.71237 0.0
H1618 H 0.09827 0.68637 0.67478 0.0
H1619 H 0.08542 0.64232 0.62785 0.0
H1620 H 0.17891 0.65375 0.5623 0.0
H1621 H 0.22361 0.70759 0.59392 0.0
C1622 C 0.208 0.73329 0.65129 0.0
C1623 C 0.1965 0.74243 0.68205 0.0
C1624 C 0.18078 0.70585 0.62994 0.0
C1625 C 0.15607 0.7264 0.689 0.0
C1626 C 0.12869 0.69948 0.66766 0.0
C1627 C 0.11521 0.65744 0.61988 0.0
C1628 C 0.12865 0.64447 0.59234 0.0
C1629 C 0.14106 0.68793 0.6388 0.0
C1630 C 0.16764 0.66362 0.58289 0.0
C1631 C 0.19329 0.69423 0.6012 0.0
loop_
_geom_bond_atom_site_label_1
_geom_bond_atom_site_label_2
_geom_bond_distance
_geom_bond_site_symmetry_2
_ccdc_geom_bond_type
Eu0 N31 2.657 . S
Eu0 N38 2.609 . S
Eu0 O44 2.558 . S
Eu0 O45 2.612 . S
Eu0 O47 2.339 . S
Eu0 O48 2.563 . S
Eu0 O49 2.419 . S
Eu0 O51 2.380 . S
Eu0 O52 2.432 . S
Eu0 C64 2.848 . S
C1 C4 1.429 . S
C1 C5 1.411 . S
C1 N8 1.377 . S
C2 C4 1.420 . S
C2 C6 1.423 . S
C2 C14 1.392 . S
C3 C5 1.420 . S
C3 C6 1.351 . S
C3 H26 0.931 . S
C4 C1 1.429 . S
C4 C2 1.420 . S
C4 N12 1.362 . S
C5 C1 1.411 . S
C5 C3 1.420 . S
C5 C10 1.395 . S
C6 C2 1.423 . S
C6 C3 1.351 . S
C6 H18 0.930 . S
C7 C9 1.400 . S
C7 C10 1.386 . S
C7 H19 0.930 . S
N8 C1 1.377 . S
N8 C9 1.321 . S
N8 Eu11 2.609 . S
C9 C7 1.400 . S
C9 N8 1.321 . S
C9 H16 0.930 . S
C10 C5 1.395 . S
C10 C7 1.386 . S
C10 H29 0.930 . S
Eu11 N8 2.609 . S
Eu11 N12 2.657 . S
Eu11 O45 2.380 . S
Eu11 O46 2.432 . S
Eu11 O50 2.558 . S
Eu11 O51 2.612 . S
Eu11 O53 2.339 . S
Eu11 O54 2.563 . S
Eu11 O55 2.419 . S
Eu11 C75 2.848 . S
N12 C4 1.362 . S
N12 Eu11 2.657 . S
N12 C13 1.334 . S
C13 N12 1.334 . S
C13 C15 1.413 . S
C13 H20 0.929 . S
C14 C2 1.392 . S
C14 C15 1.367 . S
C14 H22 0.930 . S
C15 C13 1.413 . S
C15 C14 1.367 . S
C15 H17 0.930 . S
H16 C9 0.930 . S
H17 C15 0.930 . S
H18 C6 0.930 . S
H19 C7 0.930 . S
H20 C13 0.929 . S
H21 C35 0.930 . S
H22 C14 0.930 . S
H23 C41 0.930 . S
H24 C32 0.929 . S
H25 C39 0.930 . S
H26 C3 0.931 . S
H27 C33 0.930 . S
H28 C66 0.930 . S
H29 C10 0.930 . S
H30 C65 0.931 . S
N31 Eu0 2.657 . S
N31 C32 1.334 . S
N31 C36 1.362 . S
C32 H24 0.929 . S
C32 N31 1.334 . S
C32 C35 1.413 . S
C33 H27 0.930 . S
C33 C34 1.392 . S
C33 C35 1.367 . S
C34 C33 1.392 . S
C34 C36 1.420 . S
C34 C66 1.423 . S
C35 H21 0.930 . S
C35 C32 1.413 . S
C35 C33 1.367 . S
C36 N31 1.362 . S
C36 C34 1.420 . S
C36 C40 1.429 . S
H37 C42 0.930 . S
N38 Eu0 2.609 . S
N38 C40 1.377 . S
N38 C41 1.321 . S
C39 H25 0.930 . S
C39 C41 1.400 . S
C39 C42 1.386 . S
C40 C36 1.429 . S
C40 N38 1.377 . S
C40 C43 1.411 . S
C41 H23 0.930 . S
C41 N38 1.321 . S
C41 C39 1.400 . S
C42 H37 0.930 . S
C42 C39 1.386 . S
C42 C43 1.395 . S
C43 C40 1.411 . S
C43 C42 1.395 . S
C43 C65 1.420 . S
O44 Eu0 2.558 . S
O44 C64 1.257 . S
O45 Eu0 2.612 . S
O45 Eu11 2.380 . S
O45 C56 1.276 . S
O46 Eu11 2.432 . S
O46 C63 1.264 . S
O47 Eu0 2.339 . S
O47 C63 1.254 . S
O48 Eu0 2.563 . S
O48 C56 1.235 . S
O49 Eu0 2.419 . S
O49 C64 1.249 . S
O50 Eu11 2.558 . S
O50 C75 1.257 . S
O51 Eu0 2.380 . S
O51 Eu11 2.612 . S
O51 C67 1.276 . S
O52 Eu0 2.432 . S
O52 C74 1.264 . S
O53 Eu11 2.339 . S
O53 C74 1.254 . S
O54 Eu11 2.563 . S
O54 C67 1.235 . S
O55 Eu11 2.419 . S
O55 C75 1.249 . S
C56 O45 1.276 . S
C56 O48 1.235 . S
C57 C59 1.393 . S
C57 C61 1.395 . S
C57 C64 1.492 . S
C58 C59 1.392 . S
C58 C60 1.386 . S
C59 C57 1.393 . S
C59 C58 1.392 . S
C59 H76 0.930 . S
C60 C58 1.386 . S
C60 C62 1.395 . S
C60 H77 0.930 . S
C61 C57 1.395 . S
C61 C62 1.379 . S
C61 H78 0.930 . S
C62 C60 1.395 . S
C62 C61 1.379 . S
C62 H79 0.930 . S
C63 O46 1.264 . S
C63 O47 1.254 . S
C64 Eu0 2.848 . S
C64 O44 1.257 . S
C64 O49 1.249 . S
C64 C57 1.492 . S
C65 H30 0.931 . S
C65 C43 1.420 . S
C65 C66 1.351 . S
C66 H28 0.930 . S
C66 C34 1.423 . S
C66 C65 1.351 . S
C67 O51 1.276 . S
C67 O54 1.235 . S
C68 C69 1.393 . S
C68 C72 1.395 . S
C68 C75 1.492 . S
C69 C68 1.393 . S
C69 C70 1.392 . S
C69 H80 0.930 . S
C70 C69 1.392 . S
C70 C71 1.386 . S
C71 C70 1.386 . S
C71 C73 1.395 . S
C71 H81 0.930 . S
C72 C68 1.395 . S
C72 C73 1.379 . S
C72 H82 0.930 . S
C73 C71 1.395 . S
C73 C72 1.379 . S
C73 H83 0.930 . S
C74 O52 1.264 . S
C74 O53 1.254 . S
C75 Eu11 2.848 . S
C75 O50 1.257 . S
C75 O55 1.249 . S
C75 C68 1.492 . S
H76 C59 0.930 . S
H77 C60 0.930 . S
H78 C61 0.930 . S
H79 C62 0.930 . S
H80 C69 0.930 . S
H81 C71 0.930 . S
H82 C72 0.930 . S
H83 C73 0.930 . S
Eu84 N115 2.657 . S
Eu84 N122 2.609 . S
Eu84 O128 2.558 . S
Eu84 O129 2.612 . S
Eu84 O131 2.339 . S
Eu84 O132 2.563 . S
Eu84 O133 2.419 . S
Eu84 O135 2.380 . S
Eu84 O136 2.432 . S
Eu84 C148 2.848 . S
C85 C88 1.429 . S
C85 C89 1.411 . S
C85 N92 1.377 . S
C86 C88 1.420 . S
C86 C90 1.423 . S
C86 C98 1.392 . S
C87 C89 1.420 . S
C87 C90 1.351 . S
C87 H110 0.931 . S
C88 C85 1.429 . S
C88 C86 1.420 . S
C88 N96 1.362 . S
C89 C85 1.411 . S
C89 C87 1.420 . S
C89 C94 1.395 . S
C90 C86 1.423 . S
C90 C87 1.351 . S
C90 H102 0.930 . S
C91 C93 1.400 . S
C91 C94 1.386 . S
C91 H103 0.930 . S
N92 C85 1.377 . S
N92 C93 1.321 . S
N92 Eu95 2.609 . S
C93 C91 1.400 . S
C93 N92 1.321 . S
C93 H100 0.930 . S
C94 C89 1.395 . S
C94 C91 1.386 . S
C94 H113 0.930 . S
Eu95 N92 2.609 . S
Eu95 N96 2.657 . S
Eu95 O129 2.380 . S
Eu95 O130 2.432 . S
Eu95 O134 2.558 . S
Eu95 O135 2.612 . S
Eu95 O137 2.339 . S
Eu95 O138 2.563 . S
Eu95 O139 2.419 . S
Eu95 C159 2.848 . S
N96 C88 1.362 . S
N96 Eu95 2.657 . S
N96 C97 1.334 . S
C97 N96 1.334 . S
C97 C99 1.413 . S
C97 H104 0.929 . S
C98 C86 1.392 . S
C98 C99 1.367 . S
C98 H106 0.930 . S
C99 C97 1.413 . S
C99 C98 1.367 . S
C99 H101 0.930 . S
H100 C93 0.930 . S
H101 C99 0.930 . S
H102 C90 0.930 . S
H103 C91 0.930 . S
H104 C97 0.929 . S
H105 C119 0.930 . S
H106 C98 0.930 . S
H107 C125 0.930 . S
H108 C116 0.929 . S
H109 C123 0.930 . S
H110 C87 0.931 . S
H111 C117 0.930 . S
H112 C150 0.930 . S
H113 C94 0.930 . S
H114 C149 0.931 . S
N115 Eu84 2.657 . S
N115 C116 1.334 . S
N115 C120 1.362 . S
C116 H108 0.929 . S
C116 N115 1.334 . S
C116 C119 1.413 . S
C117 H111 0.930 . S
C117 C118 1.392 . S
C117 C119 1.367 . S
C118 C117 1.392 . S
C118 C120 1.420 . S
C118 C150 1.423 . S
C119 H105 0.930 . S
C119 C116 1.413 . S
C119 C117 1.367 . S
C120 N115 1.362 . S
C120 C118 1.420 . S
C120 C124 1.429 . S
H121 C126 0.930 . S
N122 Eu84 2.609 . S
N122 C124 1.377 . S
N122 C125 1.321 . S
C123 H109 0.930 . S
C123 C125 1.400 . S
C123 C126 1.386 . S
C124 C120 1.429 . S
C124 N122 1.377 . S
C124 C127 1.411 . S
C125 H107 0.930 . S
C125 N122 1.321 . S
C125 C123 1.400 . S
C126 H121 0.930 . S
C126 C123 1.386 . S
C126 C127 1.395 . S
C127 C124 1.411 . S
C127 C126 1.395 . S
C127 C149 1.420 . S
O128 Eu84 2.558 . S
O128 C148 1.257 . S
O129 Eu84 2.612 . S
O129 Eu95 2.380 . S
O129 C140 1.276 . S
O130 Eu95 2.432 . S
O130 C147 1.264 . S
O131 Eu84 2.339 . S
O131 C147 1.254 . S
O132 Eu84 2.563 . S
O132 C140 1.235 . S
O133 Eu84 2.419 . S
O133 C148 1.249 . S
O134 Eu95 2.558 . S
O134 C159 1.257 . S
O135 Eu84 2.380 . S
O135 Eu95 2.612 . S
O135 C151 1.276 . S
O136 Eu84 2.432 . S
O136 C158 1.264 . S
O137 Eu95 2.339 . S
O137 C158 1.254 . S
O138 Eu95 2.563 . S
O138 C151 1.235 . S
O139 Eu95 2.419 . S
O139 C159 1.249 . S
C140 O129 1.276 . S
C140 O132 1.235 . S
C141 C143 1.393 . S
C141 C145 1.395 . S
C141 C148 1.492 . S
C142 C143 1.392 . S
C142 C144 1.386 . S
C143 C141 1.393 . S
C143 C142 1.392 . S
C143 H160 0.930 . S
C144 C142 1.386 . S
C144 C146 1.395 . S
C144 H161 0.930 . S
C145 C141 1.395 . S
C145 C146 1.379 . S
C145 H162 0.930 . S
C146 C144 1.395 . S
C146 C145 1.379 . S
C146 H163 0.930 . S
C147 O130 1.264 . S
C147 O131 1.254 . S
C148 Eu84 2.848 . S
C148 O128 1.257 . S
C148 O133 1.249 . S
C148 C141 1.492 . S
C149 H114 0.931 . S
C149 C127 1.420 . S
C149 C150 1.351 . S
C150 H112 0.930 . S
C150 C118 1.423 . S
C150 C149 1.351 . S
C151 O135 1.276 . S
C151 O138 1.235 . S
C152 C153 1.393 . S
C152 C156 1.395 . S
C152 C159 1.492 . S
C153 C152 1.393 . S
C153 C154 1.392 . S
C153 H164 0.930 . S
C154 C153 1.392 . S
C154 C155 1.386 . S
C155 C154 1.386 . S
C155 C157 1.395 . S
C155 H165 0.930 . S
C156 C152 1.395 . S
C156 C157 1.379 . S
C156 H166 0.930 . S
C157 C155 1.395 . S
C157 C156 1.379 . S
C157 H167 0.930 . S
C158 O136 1.264 . S
C158 O137 1.254 . S
C159 Eu95 2.848 . S
C159 O134 1.257 . S
C159 O139 1.249 . S
C159 C152 1.492 . S
H160 C143 0.930 . S
H161 C144 0.930 . S
H162 C145 0.930 . S
H163 C146 0.930 . S
H164 C153 0.930 . S
H165 C155 0.930 . S
H166 C156 0.930 . S
H167 C157 0.930 . S
Eu168 N199 2.657 . S
Eu168 N206 2.609 . S
Eu168 O212 2.558 . S
Eu168 O213 2.612 . S
Eu168 O215 2.339 . S
Eu168 O216 2.563 . S
Eu168 O217 2.419 . S
Eu168 O219 2.380 . S
Eu168 O220 2.432 . S
Eu168 C232 2.848 . S
C169 C172 1.429 . S
C169 C173 1.411 . S
C169 N176 1.377 . S
C170 C172 1.420 . S
C170 C174 1.423 . S
C170 C182 1.392 . S
C171 C173 1.420 . S
C171 C174 1.351 . S
C171 H194 0.931 . S
C172 C169 1.429 . S
C172 C170 1.420 . S
C172 N180 1.362 . S
C173 C169 1.411 . S
C173 C171 1.420 . S
C173 C178 1.395 . S
C174 C170 1.423 . S
C174 C171 1.351 . S
C174 H186 0.930 . S
C175 C177 1.400 . S
C175 C178 1.386 . S
C175 H187 0.930 . S
N176 C169 1.377 . S
N176 C177 1.321 . S
N176 Eu179 2.609 . S
C177 C175 1.400 . S
C177 N176 1.321 . S
C177 H184 0.930 . S
C178 C173 1.395 . S
C178 C175 1.386 . S
C178 H197 0.930 . S
Eu179 N176 2.609 . S
Eu179 N180 2.657 . S
Eu179 O213 2.380 . S
Eu179 O214 2.432 . S
Eu179 O218 2.558 . S
Eu179 O219 2.612 . S
Eu179 O221 2.339 . S
Eu179 O222 2.563 . S
Eu179 O223 2.419 . S
Eu179 C243 2.848 . S
N180 C172 1.362 . S
N180 Eu179 2.657 . S
N180 C181 1.334 . S
C181 N180 1.334 . S
C181 C183 1.413 . S
C181 H188 0.929 . S
C182 C170 1.392 . S
C182 C183 1.367 . S
C182 H190 0.930 . S
C183 C181 1.413 . S
C183 C182 1.367 . S
C183 H185 0.930 . S
H184 C177 0.930 . S
H185 C183 0.930 . S
H186 C174 0.930 . S
H187 C175 0.930 . S
H188 C181 0.929 . S
H189 C203 0.930 . S
H190 C182 0.930 . S
H191 C209 0.930 . S
H192 C200 0.929 . S
H193 C207 0.930 . S
H194 C171 0.931 . S
H195 C201 0.930 . S
H196 C234 0.930 . S
H197 C178 0.930 . S
H198 C233 0.931 . S
N199 Eu168 2.657 . S
N199 C200 1.334 . S
N199 C204 1.362 . S
C200 H192 0.929 . S
C200 N199 1.334 . S
C200 C203 1.413 . S
C201 H195 0.930 . S
C201 C202 1.392 . S
C201 C203 1.367 . S
C202 C201 1.392 . S
C202 C204 1.420 . S
C202 C234 1.423 . S
C203 H189 0.930 . S
C203 C200 1.413 . S
C203 C201 1.367 . S
C204 N199 1.362 . S
C204 C202 1.420 . S
C204 C208 1.429 . S
H205 C210 0.930 . S
N206 Eu168 2.609 . S
N206 C208 1.377 . S
N206 C209 1.321 . S
C207 H193 0.930 . S
C207 C209 1.400 . S
C207 C210 1.386 . S
C208 C204 1.429 . S
C208 N206 1.377 . S
C208 C211 1.411 . S
C209 H191 0.930 . S
C209 N206 1.321 . S
C209 C207 1.400 . S
C210 H205 0.930 . S
C210 C207 1.386 . S
C210 C211 1.395 . S
C211 C208 1.411 . S
C211 C210 1.395 . S
C211 C233 1.420 . S
O212 Eu168 2.558 . S
O212 C232 1.257 . S
O213 Eu168 2.612 . S
O213 Eu179 2.380 . S
O213 C224 1.276 . S
O214 Eu179 2.432 . S
O214 C231 1.264 . S
O215 Eu168 2.339 . S
O215 C231 1.254 . S
O216 Eu168 2.563 . S
O216 C224 1.235 . S
O217 Eu168 2.419 . S
O217 C232 1.249 . S
O218 Eu179 2.558 . S
O218 C243 1.257 . S
O219 Eu168 2.380 . S
O219 Eu179 2.612 . S
O219 C235 1.276 . S
O220 Eu168 2.432 . S
O220 C242 1.264 . S
O221 Eu179 2.339 . S
O221 C242 1.254 . S
O222 Eu179 2.563 . S
O222 C235 1.235 . S
O223 Eu179 2.419 . S
O223 C243 1.249 . S
C224 O213 1.276 . S
C224 O216 1.235 . S
C225 C227 1.393 . S
C225 C229 1.395 . S
C225 C232 1.492 . S
C226 C227 1.392 . S
C226 C228 1.386 . S
C227 C225 1.393 . S
C227 C226 1.392 . S
C227 H244 0.930 . S
C228 C226 1.386 . S
C228 C230 1.395 . S
C228 H245 0.930 . S
C229 C225 1.395 . S
C229 C230 1.379 . S
C229 H246 0.930 . S
C230 C228 1.395 . S
C230 C229 1.379 . S
C230 H247 0.930 . S
C231 O214 1.264 . S
C231 O215 1.254 . S
C232 Eu168 2.848 . S
C232 O212 1.257 . S
C232 O217 1.249 . S
C232 C225 1.492 . S
C233 H198 0.931 . S
C233 C211 1.420 . S
C233 C234 1.351 . S
C234 H196 0.930 . S
C234 C202 1.423 . S
C234 C233 1.351 . S
C235 O219 1.276 . S
C235 O222 1.235 . S
C236 C237 1.393 . S
C236 C240 1.395 . S
C236 C243 1.492 . S
C237 C236 1.393 . S
C237 C238 1.392 . S
C237 H248 0.930 . S
C238 C237 1.392 . S
C238 C239 1.386 . S
C239 C238 1.386 . S
C239 C241 1.395 . S
C239 H249 0.930 . S
C240 C236 1.395 . S
C240 C241 1.379 . S
C240 H250 0.930 . S
C241 C239 1.395 . S
C241 C240 1.379 . S
C241 H251 0.930 . S
C242 O220 1.264 . S
C242 O221 1.254 . S
C243 Eu179 2.848 . S
C243 O218 1.257 . S
C243 O223 1.249 . S
C243 C236 1.492 . S
H244 C227 0.930 . S
H245 C228 0.930 . S
H246 C229 0.930 . S
H247 C230 0.930 . S
H248 C237 0.930 . S
H249 C239 0.930 . S
H250 C240 0.930 . S
H251 C241 0.930 . S
Eu252 N283 2.657 . S
Eu252 N290 2.609 . S
Eu252 O296 2.558 . S
Eu252 O297 2.612 . S
Eu252 O299 2.339 . S
Eu252 O300 2.563 . S
Eu252 O301 2.419 . S
Eu252 O303 2.380 . S
Eu252 O304 2.432 . S
Eu252 C316 2.848 . S
C253 C256 1.429 . S
C253 C257 1.411 . S
C253 N260 1.377 . S
C254 C256 1.420 . S
C254 C258 1.423 . S
C254 C266 1.392 . S
C255 C257 1.420 . S
C255 C258 1.351 . S
C255 H278 0.931 . S
C256 C253 1.429 . S
C256 C254 1.420 . S
C256 N264 1.362 . S
C257 C253 1.411 . S
C257 C255 1.420 . S
C257 C262 1.395 . S
C258 C254 1.423 . S
C258 C255 1.351 . S
C258 H270 0.930 . S
C259 C261 1.400 . S
C259 C262 1.386 . S
C259 H271 0.930 . S
N260 C253 1.377 . S
N260 C261 1.321 . S
N260 Eu263 2.609 . S
C261 C259 1.400 . S
C261 N260 1.321 . S
C261 H268 0.930 . S
C262 C257 1.395 . S
C262 C259 1.386 . S
C262 H281 0.930 . S
Eu263 N260 2.609 . S
Eu263 N264 2.657 . S
Eu263 O297 2.380 . S
Eu263 O298 2.432 . S
Eu263 O302 2.558 . S
Eu263 O303 2.612 . S
Eu263 O305 2.339 . S
Eu263 O306 2.563 . S
Eu263 O307 2.419 . S
Eu263 C327 2.848 . S
N264 C256 1.362 . S
N264 Eu263 2.657 . S
N264 C265 1.334 . S
C265 N264 1.334 . S
C265 C267 1.413 . S
C265 H272 0.929 . S
C266 C254 1.392 . S
C266 C267 1.367 . S
C266 H274 0.930 . S
C267 C265 1.413 . S
C267 C266 1.367 . S
C267 H269 0.930 . S
H268 C261 0.930 . S
H269 C267 0.930 . S
H270 C258 0.930 . S
H271 C259 0.930 . S
H272 C265 0.929 . S
H273 C287 0.930 . S
H274 C266 0.930 . S
H275 C293 0.930 . S
H276 C284 0.929 . S
H277 C291 0.930 . S
H278 C255 0.931 . S
H279 C285 0.930 . S
H280 C318 0.930 . S
H281 C262 0.930 . S
H282 C317 0.931 . S
N283 Eu252 2.657 . S
N283 C284 1.334 . S
N283 C288 1.362 . S
C284 H276 0.929 . S
C284 N283 1.334 . S
C284 C287 1.413 . S
C285 H279 0.930 . S
C285 C286 1.392 . S
C285 C287 1.367 . S
C286 C285 1.392 . S
C286 C288 1.420 . S
C286 C318 1.423 . S
C287 H273 0.930 . S
C287 C284 1.413 . S
C287 C285 1.367 . S
C288 N283 1.362 . S
C288 C286 1.420 . S
C288 C292 1.429 . S
H289 C294 0.930 . S
N290 Eu252 2.609 . S
N290 C292 1.377 . S
N290 C293 1.321 . S
C291 H277 0.930 . S
C291 C293 1.400 . S
C291 C294 1.386 . S
C292 C288 1.429 . S
C292 N290 1.377 . S
C292 C295 1.411 . S
C293 H275 0.930 . S
C293 N290 1.321 . S
C293 C291 1.400 . S
C294 H289 0.930 . S
C294 C291 1.386 . S
C294 C295 1.395 . S
C295 C292 1.411 . S
C295 C294 1.395 . S
C295 C317 1.420 . S
O296 Eu252 2.558 . S
O296 C316 1.257 . S
O297 Eu252 2.612 . S
O297 Eu263 2.380 . S
O297 C308 1.276 . S
O298 Eu263 2.432 . S
O298 C315 1.264 . S
O299 Eu252 2.339 . S
O299 C315 1.254 . S
O300 Eu252 2.563 . S
O300 C308 1.235 . S
O301 Eu252 2.419 . S
O301 C316 1.249 . S
O302 Eu263 2.558 . S
O302 C327 1.257 . S
O303 Eu252 2.380 . S
O303 Eu263 2.612 . S
O303 C319 1.276 . S
O304 Eu252 2.432 . S
O304 C326 1.264 . S
O305 Eu263 2.339 . S
O305 C326 1.254 . S
O306 Eu263 2.563 . S
O306 C319 1.235 . S
O307 Eu263 2.419 . S
O307 C327 1.249 . S
C308 O297 1.276 . S
C308 O300 1.235 . S
C309 C311 1.393 . S
C309 C313 1.395 . S
C309 C316 1.492 . S
C310 C311 1.392 . S
C310 C312 1.386 . S
C311 C309 1.393 . S
C311 C310 1.392 . S
C311 H328 0.930 . S
C312 C310 1.386 . S
C312 C314 1.395 . S
C312 H329 0.930 . S
C313 C309 1.395 . S
C313 C314 1.379 . S
C313 H330 0.930 . S
C314 C312 1.395 . S
C314 C313 1.379 . S
C314 H331 0.930 . S
C315 O298 1.264 . S
C315 O299 1.254 . S
C316 Eu252 2.848 . S
C316 O296 1.257 . S
C316 O301 1.249 . S
C316 C309 1.492 . S
C317 H282 0.931 . S
C317 C295 1.420 . S
C317 C318 1.351 . S
C318 H280 0.930 . S
C318 C286 1.423 . S
C318 C317 1.351 . S
C319 O303 1.276 . S
C319 O306 1.235 . S
C320 C321 1.393 . S
C320 C324 1.395 . S
C320 C327 1.492 . S
C321 C320 1.393 . S
C321 C322 1.392 . S
C321 H332 0.930 . S
C322 C321 1.392 . S
C322 C323 1.386 . S
C323 C322 1.386 . S
C323 C325 1.395 . S
C323 H333 0.930 . S
C324 C320 1.395 . S
C324 C325 1.379 . S
C324 H334 0.930 . S
C325 C323 1.395 . S
C325 C324 1.379 . S
C325 H335 0.930 . S
C326 O304 1.264 . S
C326 O305 1.254 . S
C327 Eu263 2.848 . S
C327 O302 1.257 . S
C327 O307 1.249 . S
C327 C320 1.492 . S
H328 C311 0.930 . S
H329 C312 0.930 . S
H330 C313 0.930 . S
H331 C314 0.930 . S
H332 C321 0.930 . S
H333 C323 0.930 . S
H334 C324 0.930 . S
H335 C325 0.930 . S
Eu336 N367 2.657 . S
Eu336 N374 2.609 . S
Eu336 O380 2.558 . S
Eu336 O381 2.612 . S
Eu336 O383 2.339 . S
Eu336 O384 2.563 . S
Eu336 O385 2.419 . S
Eu336 O387 2.380 . S
Eu336 O388 2.432 . S
Eu336 C400 2.848 . S
C337 C340 1.429 . S
C337 C341 1.411 . S
C337 N344 1.377 . S
C338 C340 1.420 . S
C338 C342 1.423 . S
C338 C350 1.392 . S
C339 C341 1.420 . S
C339 C342 1.351 . S
C339 H362 0.931 . S
C340 C337 1.429 . S
C340 C338 1.420 . S
C340 N348 1.362 . S
C341 C337 1.411 . S
C341 C339 1.420 . S
C341 C346 1.395 . S
C342 C338 1.423 . S
C342 C339 1.351 . S
C342 H354 0.930 . S
C343 C345 1.400 . S
C343 C346 1.386 . S
C343 H355 0.930 . S
N344 C337 1.377 . S
N344 C345 1.321 . S
N344 Eu347 2.609 . S
C345 C343 1.400 . S
C345 N344 1.321 . S
C345 H352 0.930 . S
C346 C341 1.395 . S
C346 C343 1.386 . S
C346 H365 0.930 . S
Eu347 N344 2.609 . S
Eu347 N348 2.657 . S
Eu347 O381 2.380 . S
Eu347 O382 2.432 . S
Eu347 O386 2.558 . S
Eu347 O387 2.612 . S
Eu347 O389 2.339 . S
Eu347 O390 2.563 . S
Eu347 O391 2.419 . S
Eu347 C411 2.848 . S
N348 C340 1.362 . S
N348 Eu347 2.657 . S
N348 C349 1.334 . S
C349 N348 1.334 . S
C349 C351 1.413 . S
C349 H356 0.929 . S
C350 C338 1.392 . S
C350 C351 1.367 . S
C350 H358 0.930 . S
C351 C349 1.413 . S
C351 C350 1.367 . S
C351 H353 0.930 . S
H352 C345 0.930 . S
H353 C351 0.930 . S
H354 C342 0.930 . S
H355 C343 0.930 . S
H356 C349 0.929 . S
H357 C371 0.930 . S
H358 C350 0.930 . S
H359 C377 0.930 . S
H360 C368 0.929 . S
H361 C375 0.930 . S
H362 C339 0.931 . S
H363 C369 0.930 . S
H364 C402 0.930 . S
H365 C346 0.930 . S
H366 C401 0.931 . S
N367 Eu336 2.657 . S
N367 C368 1.334 . S
N367 C372 1.362 . S
C368 H360 0.929 . S
C368 N367 1.334 . S
C368 C371 1.413 . S
C369 H363 0.930 . S
C369 C370 1.392 . S
C369 C371 1.367 . S
C370 C369 1.392 . S
C370 C372 1.420 . S
C370 C402 1.423 . S
C371 H357 0.930 . S
C371 C368 1.413 . S
C371 C369 1.367 . S
C372 N367 1.362 . S
C372 C370 1.420 . S
C372 C376 1.429 . S
H373 C378 0.930 . S
N374 Eu336 2.609 . S
N374 C376 1.377 . S
N374 C377 1.321 . S
C375 H361 0.930 . S
C375 C377 1.400 . S
C375 C378 1.386 . S
C376 C372 1.429 . S
C376 N374 1.377 . S
C376 C379 1.411 . S
C377 H359 0.930 . S
C377 N374 1.321 . S
C377 C375 1.400 . S
C378 H373 0.930 . S
C378 C375 1.386 . S
C378 C379 1.395 . S
C379 C376 1.411 . S
C379 C378 1.395 . S
C379 C401 1.420 . S
O380 Eu336 2.558 . S
O380 C400 1.257 . S
O381 Eu336 2.612 . S
O381 Eu347 2.380 . S
O381 C392 1.276 . S
O382 Eu347 2.432 . S
O382 C399 1.264 . S
O383 Eu336 2.339 . S
O383 C399 1.254 . S
O384 Eu336 2.563 . S
O384 C392 1.235 . S
O385 Eu336 2.419 . S
O385 C400 1.249 . S
O386 Eu347 2.558 . S
O386 C411 1.257 . S
O387 Eu336 2.380 . S
O387 Eu347 2.612 . S
O387 C403 1.276 . S
O388 Eu336 2.432 . S
O388 C410 1.264 . S
O389 Eu347 2.339 . S
O389 C410 1.254 . S
O390 Eu347 2.563 . S
O390 C403 1.235 . S
O391 Eu347 2.419 . S
O391 C411 1.249 . S
C392 O381 1.276 . S
C392 O384 1.235 . S
C393 C395 1.393 . S
C393 C397 1.395 . S
C393 C400 1.492 . S
C394 C395 1.392 . S
C394 C396 1.386 . S
C395 C393 1.393 . S
C395 C394 1.392 . S
C395 H412 0.930 . S
C396 C394 1.386 . S
C396 C398 1.395 . S
C396 H413 0.930 . S
C397 C393 1.395 . S
C397 C398 1.379 . S
C397 H414 0.930 . S
C398 C396 1.395 . S
C398 C397 1.379 . S
C398 H415 0.930 . S
C399 O382 1.264 . S
C399 O383 1.254 . S
C400 Eu336 2.848 . S
C400 O380 1.257 . S
C400 O385 1.249 . S
C400 C393 1.492 . S
C401 H366 0.931 . S
C401 C379 1.420 . S
C401 C402 1.351 . S
C402 H364 0.930 . S
C402 C370 1.423 . S
C402 C401 1.351 . S
C403 O387 1.276 . S
C403 O390 1.235 . S
C404 C405 1.393 . S
C404 C408 1.395 . S
C404 C411 1.492 . S
C405 C404 1.393 . S
C405 C406 1.392 . S
C405 H416 0.930 . S
C406 C405 1.392 . S
C406 C407 1.386 . S
C407 C406 1.386 . S
C407 C409 1.395 . S
C407 H417 0.930 . S
C408 C404 1.395 . S
C408 C409 1.379 . S
C408 H418 0.930 . S
C409 C407 1.395 . S
C409 C408 1.379 . S
C409 H419 0.930 . S
C410 O388 1.264 . S
C410 O389 1.254 . S
C411 Eu347 2.848 . S
C411 O386 1.257 . S
C411 O391 1.249 . S
C411 C404 1.492 . S
H412 C395 0.930 . S
H413 C396 0.930 . S
H414 C397 0.930 . S
H415 C398 0.930 . S
H416 C405 0.930 . S
H417 C407 0.930 . S
H418 C408 0.930 . S
H419 C409 0.930 . S
Eu420 N451 2.657 . S
Eu420 N458 2.609 . S
Eu420 O464 2.558 . S
Eu420 O465 2.612 . S
Eu420 O467 2.339 . S
Eu420 O468 2.563 . S
Eu420 O469 2.419 . S
Eu420 O471 2.380 . S
Eu420 O472 2.432 . S
Eu420 C484 2.848 . S
C421 C424 1.429 . S
C421 C425 1.411 . S
C421 N428 1.377 . S
C422 C424 1.420 . S
C422 C426 1.423 . S
C422 C434 1.392 . S
C423 C425 1.420 . S
C423 C426 1.351 . S
C423 H446 0.931 . S
C424 C421 1.429 . S
C424 C422 1.420 . S
C424 N432 1.362 . S
C425 C421 1.411 . S
C425 C423 1.420 . S
C425 C430 1.395 . S
C426 C422 1.423 . S
C426 C423 1.351 . S
C426 H438 0.930 . S
C427 C429 1.400 . S
C427 C430 1.386 . S
C427 H439 0.930 . S
N428 C421 1.377 . S
N428 C429 1.321 . S
N428 Eu431 2.609 . S
C429 C427 1.400 . S
C429 N428 1.321 . S
C429 H436 0.930 . S
C430 C425 1.395 . S
C430 C427 1.386 . S
C430 H449 0.930 . S
Eu431 N428 2.609 . S
Eu431 N432 2.657 . S
Eu431 O465 2.380 . S
Eu431 O466 2.432 . S
Eu431 O470 2.558 . S
Eu431 O471 2.612 . S
Eu431 O473 2.339 . S
Eu431 O474 2.563 . S
Eu431 O475 2.419 . S
Eu431 C495 2.848 . S
N432 C424 1.362 . S
N432 Eu431 2.657 . S
N432 C433 1.334 . S
C433 N432 1.334 . S
C433 C435 1.413 . S
C433 H440 0.929 . S
C434 C422 1.392 . S
C434 C435 1.367 . S
C434 H442 0.930 . S
C435 C433 1.413 . S
C435 C434 1.367 . S
C435 H437 0.930 . S
H436 C429 0.930 . S
H437 C435 0.930 . S
H438 C426 0.930 . S
H439 C427 0.930 . S
H440 C433 0.929 . S
H441 C455 0.930 . S
H442 C434 0.930 . S
H443 C461 0.930 . S
H444 C452 0.929 . S
H445 C459 0.930 . S
H446 C423 0.931 . S
H447 C453 0.930 . S
H448 C486 0.930 . S
H449 C430 0.930 . S
H450 C485 0.931 . S
N451 Eu420 2.657 . S
N451 C452 1.334 . S
N451 C456 1.362 . S
C452 H444 0.929 . S
C452 N451 1.334 . S
C452 C455 1.413 . S
C453 H447 0.930 . S
C453 C454 1.392 . S
C453 C455 1.367 . S
C454 C453 1.392 . S
C454 C456 1.420 . S
C454 C486 1.423 . S
C455 H441 0.930 . S
C455 C452 1.413 . S
C455 C453 1.367 . S
C456 N451 1.362 . S
C456 C454 1.420 . S
C456 C460 1.429 . S
H457 C462 0.930 . S
N458 Eu420 2.609 . S
N458 C460 1.377 . S
N458 C461 1.321 . S
C459 H445 0.930 . S
C459 C461 1.400 . S
C459 C462 1.386 . S
C460 C456 1.429 . S
C460 N458 1.377 . S
C460 C463 1.411 . S
C461 H443 0.930 . S
C461 N458 1.321 . S
C461 C459 1.400 . S
C462 H457 0.930 . S
C462 C459 1.386 . S
C462 C463 1.395 . S
C463 C460 1.411 . S
C463 C462 1.395 . S
C463 C485 1.420 . S
O464 Eu420 2.558 . S
O464 C484 1.257 . S
O465 Eu420 2.612 . S
O465 Eu431 2.380 . S
O465 C476 1.276 . S
O466 Eu431 2.432 . S
O466 C483 1.264 . S
O467 Eu420 2.339 . S
O467 C483 1.254 . S
O468 Eu420 2.563 . S
O468 C476 1.235 . S
O469 Eu420 2.419 . S
O469 C484 1.249 . S
O470 Eu431 2.558 . S
O470 C495 1.257 . S
O471 Eu420 2.380 . S
O471 Eu431 2.612 . S
O471 C487 1.276 . S
O472 Eu420 2.432 . S
O472 C494 1.264 . S
O473 Eu431 2.339 . S
O473 C494 1.254 . S
O474 Eu431 2.563 . S
O474 C487 1.235 . S
O475 Eu431 2.419 . S
O475 C495 1.249 . S
C476 O465 1.276 . S
C476 O468 1.235 . S
C477 C479 1.393 . S
C477 C481 1.395 . S
C477 C484 1.492 . S
C478 C479 1.392 . S
C478 C480 1.386 . S
C479 C477 1.393 . S
C479 C478 1.392 . S
C479 H496 0.930 . S
C480 C478 1.386 . S
C480 C482 1.395 . S
C480 H497 0.930 . S
C481 C477 1.395 . S
C481 C482 1.379 . S
C481 H498 0.930 . S
C482 C480 1.395 . S
C482 C481 1.379 . S
C482 H499 0.930 . S
C483 O466 1.264 . S
C483 O467 1.254 . S
C484 Eu420 2.848 . S
C484 O464 1.257 . S
C484 O469 1.249 . S
C484 C477 1.492 . S
C485 H450 0.931 . S
C485 C463 1.420 . S
C485 C486 1.351 . S
C486 H448 0.930 . S
C486 C454 1.423 . S
C486 C485 1.351 . S
C487 O471 1.276 . S
C487 O474 1.235 . S
C488 C489 1.393 . S
C488 C492 1.395 . S
C488 C495 1.492 . S
C489 C488 1.393 . S
C489 C490 1.392 . S
C489 H500 0.930 . S
C490 C489 1.392 . S
C490 C491 1.386 . S
C491 C490 1.386 . S
C491 C493 1.395 . S
C491 H501 0.930 . S
C492 C488 1.395 . S
C492 C493 1.379 . S
C492 H502 0.930 . S
C493 C491 1.395 . S
C493 C492 1.379 . S
C493 H503 0.930 . S
C494 O472 1.264 . S
C494 O473 1.254 . S
C495 Eu431 2.848 . S
C495 O470 1.257 . S
C495 O475 1.249 . S
C495 C488 1.492 . S
H496 C479 0.930 . S
H497 C480 0.930 . S
H498 C481 0.930 . S
H499 C482 0.930 . S
H500 C489 0.930 . S
H501 C491 0.930 . S
H502 C492 0.930 . S
H503 C493 0.930 . S
Eu504 N535 2.657 . S
Eu504 N542 2.609 . S
Eu504 O548 2.558 . S
Eu504 O549 2.612 . S
Eu504 O551 2.339 . S
Eu504 O552 2.563 . S
Eu504 O553 2.419 . S
Eu504 O555 2.380 . S
Eu504 O556 2.432 . S
Eu504 C568 2.848 . S
C505 C508 1.429 . S
C505 C509 1.411 . S
C505 N512 1.377 . S
C506 C508 1.420 . S
C506 C510 1.423 . S
C506 C518 1.392 . S
C507 C509 1.420 . S
C507 C510 1.351 . S
C507 H530 0.931 . S
C508 C505 1.429 . S
C508 C506 1.420 . S
C508 N516 1.362 . S
C509 C505 1.411 . S
C509 C507 1.420 . S
C509 C514 1.395 . S
C510 C506 1.423 . S
C510 C507 1.351 . S
C510 H522 0.930 . S
C511 C513 1.400 . S
C511 C514 1.386 . S
C511 H523 0.930 . S
N512 C505 1.377 . S
N512 C513 1.321 . S
N512 Eu515 2.609 . S
C513 C511 1.400 . S
C513 N512 1.321 . S
C513 H520 0.930 . S
C514 C509 1.395 . S
C514 C511 1.386 . S
C514 H533 0.930 . S
Eu515 N512 2.609 . S
Eu515 N516 2.657 . S
Eu515 O549 2.380 . S
Eu515 O550 2.432 . S
Eu515 O554 2.558 . S
Eu515 O555 2.612 . S
Eu515 O557 2.339 . S
Eu515 O558 2.563 . S
Eu515 O559 2.419 . S
Eu515 C579 2.848 . S
N516 C508 1.362 . S
N516 Eu515 2.657 . S
N516 C517 1.334 . S
C517 N516 1.334 . S
C517 C519 1.413 . S
C517 H524 0.929 . S
C518 C506 1.392 . S
C518 C519 1.367 . S
C518 H526 0.930 . S
C519 C517 1.413 . S
C519 C518 1.367 . S
C519 H521 0.930 . S
H520 C513 0.930 . S
H521 C519 0.930 . S
H522 C510 0.930 . S
H523 C511 0.930 . S
H524 C517 0.929 . S
H525 C539 0.930 . S
H526 C518 0.930 . S
H527 C545 0.930 . S
H528 C536 0.929 . S
H529 C543 0.930 . S
H530 C507 0.931 . S
H531 C537 0.930 . S
H532 C570 0.930 . S
H533 C514 0.930 . S
H534 C569 0.931 . S
N535 Eu504 2.657 . S
N535 C536 1.334 . S
N535 C540 1.362 . S
C536 H528 0.929 . S
C536 N535 1.334 . S
C536 C539 1.413 . S
C537 H531 0.930 . S
C537 C538 1.392 . S
C537 C539 1.367 . S
C538 C537 1.392 . S
C538 C540 1.420 . S
C538 C570 1.423 . S
C539 H525 0.930 . S
C539 C536 1.413 . S
C539 C537 1.367 . S
C540 N535 1.362 . S
C540 C538 1.420 . S
C540 C544 1.429 . S
H541 C546 0.930 . S
N542 Eu504 2.609 . S
N542 C544 1.377 . S
N542 C545 1.321 . S
C543 H529 0.930 . S
C543 C545 1.400 . S
C543 C546 1.386 . S
C544 C540 1.429 . S
C544 N542 1.377 . S
C544 C547 1.411 . S
C545 H527 0.930 . S
C545 N542 1.321 . S
C545 C543 1.400 . S
C546 H541 0.930 . S
C546 C543 1.386 . S
C546 C547 1.395 . S
C547 C544 1.411 . S
C547 C546 1.395 . S
C547 C569 1.420 . S
O548 Eu504 2.558 . S
O548 C568 1.257 . S
O549 Eu504 2.612 . S
O549 Eu515 2.380 . S
O549 C560 1.276 . S
O550 Eu515 2.432 . S
O550 C567 1.264 . S
O551 Eu504 2.339 . S
O551 C567 1.254 . S
O552 Eu504 2.563 . S
O552 C560 1.235 . S
O553 Eu504 2.419 . S
O553 C568 1.249 . S
O554 Eu515 2.558 . S
O554 C579 1.257 . S
O555 Eu504 2.380 . S
O555 Eu515 2.612 . S
O555 C571 1.276 . S
O556 Eu504 2.432 . S
O556 C578 1.264 . S
O557 Eu515 2.339 . S
O557 C578 1.254 . S
O558 Eu515 2.563 . S
O558 C571 1.235 . S
O559 Eu515 2.419 . S
O559 C579 1.249 . S
C560 O549 1.276 . S
C560 O552 1.235 . S
C561 C563 1.393 . S
C561 C565 1.395 . S
C561 C568 1.492 . S
C562 C563 1.392 . S
C562 C564 1.386 . S
C563 C561 1.393 . S
C563 C562 1.392 . S
C563 H580 0.930 . S
C564 C562 1.386 . S
C564 C566 1.395 . S
C564 H581 0.930 . S
C565 C561 1.395 . S
C565 C566 1.379 . S
C565 H582 0.930 . S
C566 C564 1.395 . S
C566 C565 1.379 . S
C566 H583 0.930 . S
C567 O550 1.264 . S
C567 O551 1.254 . S
C568 Eu504 2.848 . S
C568 O548 1.257 . S
C568 O553 1.249 . S
C568 C561 1.492 . S
C569 H534 0.931 . S
C569 C547 1.420 . S
C569 C570 1.351 . S
C570 H532 0.930 . S
C570 C538 1.423 . S
C570 C569 1.351 . S
C571 O555 1.276 . S
C571 O558 1.235 . S
C572 C573 1.393 . S
C572 C576 1.395 . S
C572 C579 1.492 . S
C573 C572 1.393 . S
C573 C574 1.392 . S
C573 H584 0.930 . S
C574 C573 1.392 . S
C574 C575 1.386 . S
C575 C574 1.386 . S
C575 C577 1.395 . S
C575 H585 0.930 . S
C576 C572 1.395 . S
C576 C577 1.379 . S
C576 H586 0.930 . S
C577 C575 1.395 . S
C577 C576 1.379 . S
C577 H587 0.930 . S
C578 O556 1.264 . S
C578 O557 1.254 . S
C579 Eu515 2.848 . S
C579 O554 1.257 . S
C579 O559 1.249 . S
C579 C572 1.492 . S
H580 C563 0.930 . S
H581 C564 0.930 . S
H582 C565 0.930 . S
H583 C566 0.930 . S
H584 C573 0.930 . S
H585 C575 0.930 . S
H586 C576 0.930 . S
H587 C577 0.930 . S
Eu588 N619 2.657 . S
Eu588 N626 2.609 . S
Eu588 O632 2.558 . S
Eu588 O633 2.612 . S
Eu588 O635 2.339 . S
Eu588 O636 2.563 . S
Eu588 O637 2.419 . S
Eu588 O639 2.380 . S
Eu588 O640 2.432 . S
Eu588 C652 2.848 . S
C589 C592 1.429 . S
C589 C593 1.411 . S
C589 N596 1.377 . S
C590 C592 1.420 . S
C590 C594 1.423 . S
C590 C602 1.392 . S
C591 C593 1.420 . S
C591 C594 1.351 . S
C591 H614 0.931 . S
C592 C589 1.429 . S
C592 C590 1.420 . S
C592 N600 1.362 . S
C593 C589 1.411 . S
C593 C591 1.420 . S
C593 C598 1.395 . S
C594 C590 1.423 . S
C594 C591 1.351 . S
C594 H606 0.930 . S
C595 C597 1.400 . S
C595 C598 1.386 . S
C595 H607 0.930 . S
N596 C589 1.377 . S
N596 C597 1.321 . S
N596 Eu599 2.609 . S
C597 C595 1.400 . S
C597 N596 1.321 . S
C597 H604 0.930 . S
C598 C593 1.395 . S
C598 C595 1.386 . S
C598 H617 0.930 . S
Eu599 N596 2.609 . S
Eu599 N600 2.657 . S
Eu599 O633 2.380 . S
Eu599 O634 2.432 . S
Eu599 O638 2.558 . S
Eu599 O639 2.612 . S
Eu599 O641 2.339 . S
Eu599 O642 2.563 . S
Eu599 O643 2.419 . S
Eu599 C663 2.848 . S
N600 C592 1.362 . S
N600 Eu599 2.657 . S
N600 C601 1.334 . S
C601 N600 1.334 . S
C601 C603 1.413 . S
C601 H608 0.929 . S
C602 C590 1.392 . S
C602 C603 1.367 . S
C602 H610 0.930 . S
C603 C601 1.413 . S
C603 C602 1.367 . S
C603 H605 0.930 . S
H604 C597 0.930 . S
H605 C603 0.930 . S
H606 C594 0.930 . S
H607 C595 0.930 . S
H608 C601 0.929 . S
H609 C623 0.930 . S
H610 C602 0.930 . S
H611 C629 0.930 . S
H612 C620 0.929 . S
H613 C627 0.930 . S
H614 C591 0.931 . S
H615 C621 0.930 . S
H616 C654 0.930 . S
H617 C598 0.930 . S
H618 C653 0.931 . S
N619 Eu588 2.657 . S
N619 C620 1.334 . S
N619 C624 1.362 . S
C620 H612 0.929 . S
C620 N619 1.334 . S
C620 C623 1.413 . S
C621 H615 0.930 . S
C621 C622 1.392 . S
C621 C623 1.367 . S
C622 C621 1.392 . S
C622 C624 1.420 . S
C622 C654 1.423 . S
C623 H609 0.930 . S
C623 C620 1.413 . S
C623 C621 1.367 . S
C624 N619 1.362 . S
C624 C622 1.420 . S
C624 C628 1.429 . S
H625 C630 0.930 . S
N626 Eu588 2.609 . S
N626 C628 1.377 . S
N626 C629 1.321 . S
C627 H613 0.930 . S
C627 C629 1.400 . S
C627 C630 1.386 . S
C628 C624 1.429 . S
C628 N626 1.377 . S
C628 C631 1.411 . S
C629 H611 0.930 . S
C629 N626 1.321 . S
C629 C627 1.400 . S
C630 H625 0.930 . S
C630 C627 1.386 . S
C630 C631 1.395 . S
C631 C628 1.411 . S
C631 C630 1.395 . S
C631 C653 1.420 . S
O632 Eu588 2.558 . S
O632 C652 1.257 . S
O633 Eu588 2.612 . S
O633 Eu599 2.380 . S
O633 C644 1.276 . S
O634 Eu599 2.432 . S
O634 C651 1.264 . S
O635 Eu588 2.339 . S
O635 C651 1.254 . S
O636 Eu588 2.563 . S
O636 C644 1.235 . S
O637 Eu588 2.419 . S
O637 C652 1.249 . S
O638 Eu599 2.558 . S
O638 C663 1.257 . S
O639 Eu588 2.380 . S
O639 Eu599 2.612 . S
O639 C655 1.276 . S
O640 Eu588 2.432 . S
O640 C662 1.264 . S
O641 Eu599 2.339 . S
O641 C662 1.254 . S
O642 Eu599 2.563 . S
O642 C655 1.235 . S
O643 Eu599 2.419 . S
O643 C663 1.249 . S
C644 O633 1.276 . S
C644 O636 1.235 . S
C645 C647 1.393 . S
C645 C649 1.395 . S
C645 C652 1.492 . S
C646 C647 1.392 . S
C646 C648 1.386 . S
C647 C645 1.393 . S
C647 C646 1.392 . S
C647 H664 0.930 . S
C648 C646 1.386 . S
C648 C650 1.395 . S
C648 H665 0.930 . S
C649 C645 1.395 . S
C649 C650 1.379 . S
C649 H666 0.930 . S
C650 C648 1.395 . S
C650 C649 1.379 . S
C650 H667 0.930 . S
C651 O634 1.264 . S
C651 O635 1.254 . S
C652 Eu588 2.848 . S
C652 O632 1.257 . S
C652 O637 1.249 . S
C652 C645 1.492 . S
C653 H618 0.931 . S
C653 C631 1.420 . S
C653 C654 1.351 . S
C654 H616 0.930 . S
C654 C622 1.423 . S
C654 C653 1.351 . S
C655 O639 1.276 . S
C655 O642 1.235 . S
C656 C657 1.393 . S
C656 C660 1.395 . S
C656 C663 1.492 . S
C657 C656 1.393 . S
C657 C658 1.392 . S
C657 H668 0.930 . S
C658 C657 1.392 . S
C658 C659 1.386 . S
C659 C658 1.386 . S
C659 C661 1.395 . S
C659 H669 0.930 . S
C660 C656 1.395 . S
C660 C661 1.379 . S
C660 H670 0.930 . S
C661 C659 1.395 . S
C661 C660 1.379 . S
C661 H671 0.930 . S
C662 O640 1.264 . S
C662 O641 1.254 . S
C663 Eu599 2.848 . S
C663 O638 1.257 . S
C663 O643 1.249 . S
C663 C656 1.492 . S
H664 C647 0.930 . S
H665 C648 0.930 . S
H666 C649 0.930 . S
H667 C650 0.930 . S
H668 C657 0.930 . S
H669 C659 0.930 . S
H670 C660 0.930 . S
H671 C661 0.930 . S
Fe672 O673 1.886 1_455 S
Fe672 O676 1.715 . S
Fe672 O681 2.077 1_455 S
Fe672 O686 1.935 . S
Fe672 O692 2.077 1_455 S
Fe672 O701 1.935 . S
O673 Fe672 1.886 1_655 S
O673 Fe675 1.715 1_545 S
Fe674 O676 1.886 . S
Fe674 O677 1.715 1_545 S
Fe674 O684 1.935 1_545 S
Fe674 O685 2.077 . S
Fe674 O691 1.935 1_545 S
Fe674 O700 2.077 . S
Fe675 O673 1.715 1_565 S
Fe675 O678 1.886 . S
Fe675 O682 1.935 1_565 S
Fe675 O687 2.077 . S
Fe675 O693 1.935 1_565 S
Fe675 O697 2.077 . S
O676 Fe672 1.715 . S
O676 Fe674 1.886 . S
O677 Fe674 1.715 1_565 S
O677 Fe679 1.886 1_455 S
O678 Fe675 1.886 . S
O678 Fe679 1.715 . S
Fe679 O677 1.886 1_655 S
Fe679 O678 1.715 . S
Fe679 O683 2.077 1_655 S
Fe679 O688 1.935 . S
Fe679 O690 2.077 1_655 S
Fe679 O698 1.935 . S
C680 O692 1.381 . S
C680 O693 1.421 . S
O681 Fe672 2.077 1_655 S
O681 C694 1.381 . S
O682 Fe675 1.935 1_545 S
O682 C694 1.421 . S
O683 Fe679 2.077 1_455 S
O683 C699 1.381 . S
O684 Fe674 1.935 1_565 S
O684 C699 1.421 . S
O685 Fe674 2.077 . S
O685 C689 1.381 . S
O686 Fe672 1.935 . S
O686 C689 1.421 . S
O687 Fe675 2.077 . S
O687 C695 1.381 . S
O688 Fe679 1.935 . S
O688 C695 1.421 . S
C689 O685 1.381 . S
C689 O686 1.421 . S
O690 Fe679 2.077 1_455 S
O690 C702 1.381 . S
O691 Fe674 1.935 1_565 S
O691 C702 1.421 . S
O692 Fe672 2.077 1_655 S
O692 C680 1.381 . S
O693 Fe675 1.935 1_545 S
O693 C680 1.421 . S
C694 O681 1.381 . S
C694 O682 1.421 . S
C695 O687 1.381 . S
C695 O688 1.421 . S
C696 O697 1.381 . S
C696 O698 1.421 . S
O697 Fe675 2.077 . S
O697 C696 1.381 . S
O698 Fe679 1.935 . S
O698 C696 1.421 . S
C699 O683 1.381 . S
C699 O684 1.421 . S
O700 Fe674 2.077 . S
O700 C703 1.381 . S
O701 Fe672 1.935 . S
O701 C703 1.421 . S
C702 O690 1.381 . S
C702 O691 1.421 . S
C703 O700 1.381 . S
C703 O701 1.421 . S
Fe704 O705 1.886 . S
Fe704 O708 1.714 . S
Fe704 O713 2.077 1_554 S
Fe704 O718 1.935 1_554 S
Fe704 O724 2.077 . S
Fe704 O733 1.935 . S
O705 Fe704 1.886 . S
O705 Fe707 1.715 1_565 S
Fe706 O708 1.887 1_556 S
Fe706 O709 1.715 1_565 S
Fe706 O716 1.935 1_565 S
Fe706 O717 2.077 . S
Fe706 O723 1.935 1_566 S
Fe706 O732 2.077 1_556 S
Fe707 O705 1.715 1_545 S
Fe707 O710 1.886 1_554 S
Fe707 O714 1.935 1_544 S
Fe707 O719 2.077 1_554 S
Fe707 O725 1.935 1_545 S
Fe707 O729 2.077 . S
O708 Fe704 1.714 . S
O708 Fe706 1.887 1_554 S
O709 Fe706 1.715 1_545 S
O709 Fe711 1.886 . S
O710 Fe707 1.886 1_556 S
O710 Fe711 1.715 . S
Fe711 O709 1.886 . S
Fe711 O710 1.715 . S
Fe711 O715 2.077 . S
Fe711 O720 1.935 . S
Fe711 O722 2.077 1_556 S
Fe711 O730 1.935 1_556 S
C712 O724 1.381 . S
C712 O725 1.421 . S
O713 Fe704 2.077 1_556 S
O713 C726 1.381 . S
O714 Fe707 1.935 1_566 S
O714 C726 1.421 . S
O715 Fe711 2.077 . S
O715 C731 1.381 . S
O716 Fe706 1.935 1_545 S
O716 C731 1.421 . S
O717 Fe706 2.077 . S
O717 C721 1.381 . S
O718 Fe704 1.935 1_556 S
O718 C721 1.421 . S
O719 Fe707 2.077 1_556 S
O719 C727 1.381 . S
O720 Fe711 1.935 . S
O720 C727 1.421 . S
C721 O717 1.381 . S
C721 O718 1.421 . S
O722 Fe711 2.077 1_554 S
O722 C734 1.381 . S
O723 Fe706 1.935 1_544 S
O723 C734 1.421 . S
O724 Fe704 2.077 . S
O724 C712 1.381 . S
O725 Fe707 1.935 1_565 S
O725 C712 1.421 . S
C726 O713 1.381 . S
C726 O714 1.421 . S
C727 O719 1.381 . S
C727 O720 1.421 . S
C728 O729 1.381 . S
C728 O730 1.421 . S
O729 Fe707 2.077 . S
O729 C728 1.381 . S
O730 Fe711 1.935 1_554 S
O730 C728 1.421 . S
C731 O715 1.381 . S
C731 O716 1.421 . S
O732 Fe706 2.077 1_554 S
O732 C735 1.381 . S
O733 Fe704 1.935 . S
O733 C735 1.421 . S
C734 O722 1.381 . S
C734 O723 1.421 . S
C735 O732 1.381 . S
C735 O733 1.421 . S
Fe736 O737 1.886 1_455 S
Fe736 O740 1.715 . S
Fe736 O745 2.077 1_455 S
Fe736 O750 1.935 . S
Fe736 O756 2.077 1_456 S
Fe736 O765 1.935 1_556 S
O737 Fe736 1.886 1_655 S
O737 Fe739 1.715 . S
Fe738 O740 1.886 1_554 S
Fe738 O741 1.715 . S
Fe738 O748 1.935 1_554 S
Fe738 O749 2.077 1_554 S
Fe738 O755 1.935 . S
Fe738 O764 2.077 . S
Fe739 O737 1.715 . S
Fe739 O742 1.887 1_556 S
Fe739 O746 1.935 . S
Fe739 O751 2.077 . S
Fe739 O757 1.935 1_556 S
Fe739 O761 2.077 1_556 S
O740 Fe736 1.715 . S
O740 Fe738 1.886 1_556 S
O741 Fe738 1.715 . S
O741 Fe743 1.886 1_455 S
O742 Fe739 1.887 1_554 S
O742 Fe743 1.714 . S
Fe743 O741 1.886 1_655 S
Fe743 O742 1.714 . S
Fe743 O747 2.077 1_654 S
Fe743 O752 1.935 1_554 S
Fe743 O754 2.077 1_655 S
Fe743 O762 1.935 . S
C744 O756 1.381 . S
C744 O757 1.421 . S
O745 Fe736 2.077 1_655 S
O745 C758 1.381 . S
O746 Fe739 1.935 . S
O746 C758 1.421 . S
O747 Fe743 2.077 1_456 S
O747 C763 1.381 . S
O748 Fe738 1.935 1_556 S
O748 C763 1.421 . S
O749 Fe738 2.077 1_556 S
O749 C753 1.381 . S
O750 Fe736 1.935 . S
O750 C753 1.421 . S
O751 Fe739 2.077 . S
O751 C759 1.381 . S
O752 Fe743 1.935 1_556 S
O752 C759 1.421 . S
C753 O749 1.381 . S
C753 O750 1.421 . S
O754 Fe743 2.077 1_455 S
O754 C766 1.381 . S
O755 Fe738 1.935 . S
O755 C766 1.421 . S
O756 Fe736 2.077 1_654 S
O756 C744 1.381 . S
O757 Fe739 1.935 1_554 S
O757 C744 1.421 . S
C758 O745 1.381 . S
C758 O746 1.421 . S
C759 O751 1.381 . S
C759 O752 1.421 . S
C760 O761 1.381 . S
C760 O762 1.421 . S
O761 Fe739 2.077 1_554 S
O761 C760 1.381 . S
O762 Fe743 1.935 . S
O762 C760 1.421 . S
C763 O747 1.381 . S
C763 O748 1.421 . S
O764 Fe738 2.077 . S
O764 C767 1.381 . S
O765 Fe736 1.935 1_554 S
O765 C767 1.421 . S
C766 O754 1.381 . S
C766 O755 1.421 . S
C767 O764 1.381 . S
C767 O765 1.421 . S
Fe768 O769 1.886 . S
Fe768 O772 1.715 . S
Fe768 O777 2.077 . S
Fe768 O782 1.935 . S
Fe768 O788 2.077 . S
Fe768 O797 1.935 . S
O769 Fe768 1.886 . S
O769 Fe771 1.715 1_556 S
Fe770 O772 1.886 . S
Fe770 O773 1.715 1_556 S
Fe770 O780 1.935 1_556 S
Fe770 O781 2.077 . S
Fe770 O787 1.935 1_556 S
Fe770 O796 2.077 . S
Fe771 O769 1.715 1_554 S
Fe771 O774 1.886 . S
Fe771 O778 1.935 1_554 S
Fe771 O783 2.077 . S
Fe771 O789 1.935 1_554 S
Fe771 O793 2.077 . S
O772 Fe768 1.715 . S
O772 Fe770 1.886 . S
O773 Fe770 1.715 1_554 S
O773 Fe775 1.886 . S
O774 Fe771 1.886 . S
O774 Fe775 1.715 . S
Fe775 O773 1.886 . S
Fe775 O774 1.715 . S
Fe775 O779 2.077 . S
Fe775 O784 1.935 . S
Fe775 O786 2.077 . S
Fe775 O794 1.935 . S
C776 O788 1.381 . S
C776 O789 1.421 . S
O777 Fe768 2.077 . S
O777 C790 1.381 . S
O778 Fe771 1.935 1_556 S
O778 C790 1.421 . S
O779 Fe775 2.077 . S
O779 C795 1.381 . S
O780 Fe770 1.935 1_554 S
O780 C795 1.421 . S
O781 Fe770 2.077 . S
O781 C785 1.381 . S
O782 Fe768 1.935 . S
O782 C785 1.421 . S
O783 Fe771 2.077 . S
O783 C791 1.381 . S
O784 Fe775 1.935 . S
O784 C791 1.421 . S
C785 O781 1.381 . S
C785 O782 1.421 . S
O786 Fe775 2.077 . S
O786 C798 1.381 . S
O787 Fe770 1.935 1_554 S
O787 C798 1.421 . S
O788 Fe768 2.077 . S
O788 C776 1.381 . S
O789 Fe771 1.935 1_556 S
O789 C776 1.421 . S
C790 O777 1.381 . S
C790 O778 1.421 . S
C791 O783 1.381 . S
C791 O784 1.421 . S
C792 O793 1.381 . S
C792 O794 1.421 . S
O793 Fe771 2.077 . S
O793 C792 1.381 . S
O794 Fe775 1.935 . S
O794 C792 1.421 . S
C795 O779 1.381 . S
C795 O780 1.421 . S
O796 Fe770 2.077 . S
O796 C799 1.381 . S
O797 Fe768 1.935 . S
O797 C799 1.421 . S
C798 O786 1.381 . S
C798 O787 1.421 . S
C799 O796 1.381 . S
C799 O797 1.421 . S
Fe800 O801 1.886 . S
Fe800 O804 1.715 . S
Fe800 O809 2.077 1_655 S
Fe800 O814 1.935 1_655 S
Fe800 O820 2.077 . S
Fe800 O829 1.935 . S
O801 Fe800 1.886 . S
O801 Fe803 1.715 1_655 S
Fe802 O804 1.886 . S
Fe802 O805 1.715 1_655 S
Fe802 O812 1.935 1_655 S
Fe802 O813 2.077 1_655 S
Fe802 O819 1.935 . S
Fe802 O828 2.077 . S
Fe803 O801 1.715 1_455 S
Fe803 O806 1.886 . S
Fe803 O810 1.935 . S
Fe803 O815 2.077 . S
Fe803 O821 1.935 1_455 S
Fe803 O825 2.077 1_455 S
O804 Fe800 1.715 . S
O804 Fe802 1.886 . S
O805 Fe802 1.715 1_455 S
O805 Fe807 1.886 . S
O806 Fe803 1.886 . S
O806 Fe807 1.715 . S
Fe807 O805 1.886 . S
Fe807 O806 1.715 . S
Fe807 O811 2.077 . S
Fe807 O816 1.935 . S
Fe807 O818 2.077 1_455 S
Fe807 O826 1.935 1_455 S
C808 O820 1.381 . S
C808 O821 1.421 . S
O809 Fe800 2.077 1_455 S
O809 C822 1.381 . S
O810 Fe803 1.935 . S
O810 C822 1.421 . S
O811 Fe807 2.077 . S
O811 C827 1.381 . S
O812 Fe802 1.935 1_455 S
O812 C827 1.421 . S
O813 Fe802 2.077 1_455 S
O813 C817 1.381 . S
O814 Fe800 1.935 1_455 S
O814 C817 1.421 . S
O815 Fe803 2.077 . S
O815 C823 1.381 . S
O816 Fe807 1.935 . S
O816 C823 1.421 . S
C817 O813 1.381 . S
C817 O814 1.421 . S
O818 Fe807 2.077 1_655 S
O818 C830 1.381 . S
O819 Fe802 1.935 . S
O819 C830 1.421 . S
O820 Fe800 2.077 . S
O820 C808 1.381 . S
O821 Fe803 1.935 1_655 S
O821 C808 1.421 . S
C822 O809 1.381 . S
C822 O810 1.421 . S
C823 O815 1.381 . S
C823 O816 1.421 . S
C824 O825 1.381 . S
C824 O826 1.421 . S
O825 Fe803 2.077 1_655 S
O825 C824 1.381 . S
O826 Fe807 1.935 1_655 S
O826 C824 1.421 . S
C827 O811 1.381 . S
C827 O812 1.421 . S
O828 Fe802 2.077 . S
O828 C831 1.381 . S
O829 Fe800 1.935 . S
O829 C831 1.421 . S
C830 O818 1.381 . S
C830 O819 1.421 . S
C831 O828 1.381 . S
C831 O829 1.421 . S
Fe832 O833 1.886 . S
Fe832 O836 1.715 . S
Fe832 O841 2.077 . S
Fe832 O846 1.935 . S
Fe832 O852 2.077 . S
Fe832 O861 1.935 . S
O833 Fe832 1.886 . S
O833 Fe835 1.715 . S
Fe834 O836 1.886 1_545 S
Fe834 O837 1.715 . S
Fe834 O844 1.935 . S
Fe834 O845 2.077 1_545 S
Fe834 O851 1.935 . S
Fe834 O860 2.077 1_545 S
Fe835 O833 1.715 . S
Fe835 O838 1.886 1_565 S
Fe835 O842 1.935 . S
Fe835 O847 2.077 1_565 S
Fe835 O853 1.935 . S
Fe835 O857 2.077 1_565 S
O836 Fe832 1.715 . S
O836 Fe834 1.886 1_565 S
O837 Fe834 1.715 . S
O837 Fe839 1.886 . S
O838 Fe835 1.886 1_545 S
O838 Fe839 1.715 . S
Fe839 O837 1.886 . S
Fe839 O838 1.715 . S
Fe839 O843 2.077 . S
Fe839 O848 1.935 . S
Fe839 O850 2.077 . S
Fe839 O858 1.935 . S
C840 O852 1.381 . S
C840 O853 1.421 . S
O841 Fe832 2.077 . S
O841 C854 1.381 . S
O842 Fe835 1.935 . S
O842 C854 1.421 . S
O843 Fe839 2.077 . S
O843 C859 1.381 . S
O844 Fe834 1.935 . S
O844 C859 1.421 . S
O845 Fe834 2.077 1_565 S
O845 C849 1.381 . S
O846 Fe832 1.935 . S
O846 C849 1.421 . S
O847 Fe835 2.077 1_545 S
O847 C855 1.381 . S
O848 Fe839 1.935 . S
O848 C855 1.421 . S
C849 O845 1.381 . S
C849 O846 1.421 . S
O850 Fe839 2.077 . S
O850 C862 1.381 . S
O851 Fe834 1.935 . S
O851 C862 1.421 . S
O852 Fe832 2.077 . S
O852 C840 1.381 . S
O853 Fe835 1.935 . S
O853 C840 1.421 . S
C854 O841 1.381 . S
C854 O842 1.421 . S
C855 O847 1.381 . S
C855 O848 1.421 . S
C856 O857 1.381 . S
C856 O858 1.421 . S
O857 Fe835 2.077 1_545 S
O857 C856 1.381 . S
O858 Fe839 1.935 . S
O858 C856 1.421 . S
C859 O843 1.381 . S
C859 O844 1.421 . S
O860 Fe834 2.077 1_565 S
O860 C863 1.381 . S
O861 Fe832 1.935 . S
O861 C863 1.421 . S
C862 O850 1.381 . S
C862 O851 1.421 . S
C863 O860 1.381 . S
C863 O861 1.421 . S
H864 C870 0.930 . S
H865 C873 0.930 . S
H866 C874 0.930 . S
H867 C875 0.930 . S
H868 C878 0.930 . S
H869 C879 0.930 . S
C870 H864 0.930 . S
C870 C871 1.355 . S
C870 C872 1.415 . S
C871 C870 1.355 . S
C871 C873 1.419 . S
C872 C870 1.415 . S
C872 C877 1.425 . S
C872 C879 1.409 . S
C873 H865 0.930 . S
C873 C871 1.419 . S
C873 C874 1.362 . S
C874 H866 0.930 . S
C874 C873 1.362 . S
C874 C877 1.409 . S
C875 H867 0.930 . S
C875 C876 1.355 . S
C875 C877 1.415 . S
C876 C875 1.355 . S
C876 C878 1.419 . S
C877 C872 1.425 . S
C877 C874 1.409 . S
C877 C875 1.415 . S
C878 H868 0.930 . S
C878 C876 1.419 . S
C878 C879 1.362 . S
C879 H869 0.930 . S
C879 C872 1.409 . S
C879 C878 1.362 . S
H880 C886 0.930 . S
H881 C889 0.930 . S
H882 C890 0.930 . S
H883 C891 0.930 . S
H884 C894 0.930 . S
H885 C895 0.930 . S
C886 H880 0.930 . S
C886 C887 1.355 . S
C886 C888 1.415 . S
C887 C886 1.355 . S
C887 C889 1.419 . S
C888 C886 1.415 . S
C888 C893 1.425 . S
C888 C895 1.409 . S
C889 H881 0.930 . S
C889 C887 1.419 . S
C889 C890 1.362 . S
C890 H882 0.930 . S
C890 C889 1.362 . S
C890 C893 1.409 . S
C891 H883 0.930 . S
C891 C892 1.355 . S
C891 C893 1.415 . S
C892 C891 1.355 . S
C892 C894 1.419 . S
C893 C888 1.425 . S
C893 C890 1.409 . S
C893 C891 1.415 . S
C894 H884 0.930 . S
C894 C892 1.419 . S
C894 C895 1.362 . S
C895 H885 0.930 . S
C895 C888 1.409 . S
C895 C894 1.362 . S
H896 C902 0.930 . S
H897 C905 0.930 . S
H898 C906 0.930 . S
H899 C907 0.930 . S
H900 C910 0.930 . S
H901 C911 0.930 . S
C902 H896 0.930 . S
C902 C903 1.355 . S
C902 C904 1.415 . S
C903 C902 1.355 . S
C903 C905 1.419 . S
C904 C902 1.415 . S
C904 C909 1.425 . S
C904 C911 1.409 . S
C905 H897 0.930 . S
C905 C903 1.419 . S
C905 C906 1.362 . S
C906 H898 0.930 . S
C906 C905 1.362 . S
C906 C909 1.409 . S
C907 H899 0.930 . S
C907 C908 1.355 . S
C907 C909 1.415 . S
C908 C907 1.355 . S
C908 C910 1.419 . S
C909 C904 1.425 . S
C909 C906 1.409 . S
C909 C907 1.415 . S
C910 H900 0.930 . S
C910 C908 1.419 . S
C910 C911 1.362 . S
C911 H901 0.930 . S
C911 C904 1.409 . S
C911 C910 1.362 . S
H912 C918 0.930 . S
H913 C921 0.930 . S
H914 C922 0.930 . S
H915 C923 0.930 . S
H916 C926 0.930 . S
H917 C927 0.930 . S
C918 H912 0.930 . S
C918 C919 1.355 . S
C918 C920 1.415 . S
C919 C918 1.355 . S
C919 C921 1.419 . S
C920 C918 1.415 . S
C920 C925 1.425 . S
C920 C927 1.409 . S
C921 H913 0.930 . S
C921 C919 1.419 . S
C921 C922 1.362 . S
C922 H914 0.930 . S
C922 C921 1.362 . S
C922 C925 1.409 . S
C923 H915 0.930 . S
C923 C924 1.355 . S
C923 C925 1.415 . S
C924 C923 1.355 . S
C924 C926 1.419 . S
C925 C920 1.425 . S
C925 C922 1.409 . S
C925 C923 1.415 . S
C926 H916 0.930 . S
C926 C924 1.419 . S
C926 C927 1.362 . S
C927 H917 0.930 . S
C927 C920 1.409 . S
C927 C926 1.362 . S
H928 C934 0.930 . S
H929 C937 0.930 . S
H930 C938 0.930 . S
H931 C939 0.930 . S
H932 C942 0.914 1_545 S
H933 C943 0.930 . S
C934 H928 0.930 . S
C934 C935 1.355 . S
C934 C936 1.415 . S
C935 C934 1.355 . S
C935 C937 1.419 . S
C936 C934 1.415 . S
C936 C941 1.425 . S
C936 C943 1.409 . S
C937 H929 0.930 . S
C937 C935 1.419 . S
C937 C938 1.362 . S
C938 H930 0.930 . S
C938 C937 1.362 . S
C938 C941 1.409 . S
C939 H931 0.930 . S
C939 C940 1.355 . S
C939 C941 1.415 . S
C940 C939 1.355 . S
C940 C942 1.419 . S
C941 C936 1.425 . S
C941 C938 1.409 . S
C941 C939 1.415 . S
C942 H932 0.914 1_565 S
C942 C940 1.419 . S
C942 C943 1.362 . S
C943 H933 0.930 . S
C943 C936 1.409 . S
C943 C942 1.362 . S
H944 C950 0.930 . S
H945 C953 0.930 . S
H946 C954 0.930 . S
H947 C955 0.930 . S
H948 C958 0.930 . S
H949 C959 0.930 . S
C950 H944 0.930 . S
C950 C951 1.355 . S
C950 C952 1.415 . S
C951 C950 1.355 . S
C951 C953 1.419 . S
C952 C950 1.415 . S
C952 C957 1.425 . S
C952 C959 1.409 . S
C953 H945 0.930 . S
C953 C951 1.419 . S
C953 C954 1.362 . S
C954 H946 0.930 . S
C954 C953 1.362 . S
C954 C957 1.409 . S
C955 H947 0.930 . S
C955 C956 1.355 . S
C955 C957 1.415 . S
C956 C955 1.355 . S
C956 C958 1.419 . S
C957 C952 1.425 . S
C957 C954 1.409 . S
C957 C955 1.415 . S
C958 H948 0.930 . S
C958 C956 1.419 . S
C958 C959 1.362 . S
C959 H949 0.930 . S
C959 C952 1.409 . S
C959 C958 1.362 . S
H960 C966 0.930 . S
H961 C969 0.930 . S
H962 C970 0.930 . S
H963 C971 0.930 . S
H964 C974 0.930 . S
H965 C975 0.930 . S
C966 H960 0.930 . S
C966 C967 1.355 . S
C966 C968 1.415 . S
C967 C966 1.355 . S
C967 C969 1.419 . S
C968 C966 1.415 . S
C968 C973 1.425 . S
C968 C975 1.409 . S
C969 H961 0.930 . S
C969 C967 1.419 . S
C969 C970 1.362 . S
C970 H962 0.930 . S
C970 C969 1.362 . S
C970 C973 1.409 . S
C971 H963 0.930 . S
C971 C972 1.355 . S
C971 C973 1.415 . S
C972 C971 1.355 . S
C972 C974 1.419 . S
C973 C968 1.425 . S
C973 C970 1.409 . S
C973 C971 1.415 . S
C974 H964 0.930 . S
C974 C972 1.419 . S
C974 C975 1.362 . S
C975 H965 0.930 . S
C975 C968 1.409 . S
C975 C974 1.362 . S
H976 C982 0.930 . S
H977 C985 0.930 . S
H978 C986 0.930 . S
H979 C987 0.930 . S
H980 C990 0.930 . S
H981 C991 0.930 . S
C982 H976 0.930 . S
C982 C983 1.355 . S
C982 C984 1.415 . S
C983 C982 1.355 . S
C983 C985 1.419 . S
C984 C982 1.415 . S
C984 C989 1.425 . S
C984 C991 1.409 . S
C985 H977 0.930 . S
C985 C983 1.419 . S
C985 C986 1.362 . S
C986 H978 0.930 . S
C986 C985 1.362 . S
C986 C989 1.409 . S
C987 H979 0.930 . S
C987 C988 1.355 . S
C987 C989 1.415 . S
C988 C987 1.355 . S
C988 C990 1.419 . S
C989 C984 1.425 . S
C989 C986 1.409 . S
C989 C987 1.415 . S
C990 H980 0.930 . S
C990 C988 1.419 . S
C990 C991 1.362 . S
C991 H981 0.930 . S
C991 C984 1.409 . S
C991 C990 1.362 . S
H992 C998 0.930 . S
H993 C1001 0.930 . S
H994 C1002 0.930 . S
H995 C1003 0.930 . S
H996 C1006 0.930 . S
H997 C1007 0.930 . S
C998 H992 0.930 . S
C998 C999 1.355 . S
C998 C1000 1.415 . S
C999 C998 1.355 . S
C999 C1001 1.419 . S
C1000 C998 1.415 . S
C1000 C1005 1.425 . S
C1000 C1007 1.409 . S
C1001 H993 0.930 . S
C1001 C999 1.419 . S
C1001 C1002 1.362 . S
C1002 H994 0.930 . S
C1002 C1001 1.362 . S
C1002 C1005 1.409 . S
C1003 H995 0.930 . S
C1003 C1004 1.355 . S
C1003 C1005 1.415 . S
C1004 C1003 1.355 . S
C1004 C1006 1.419 . S
C1005 C1000 1.425 . S
C1005 C1002 1.409 . S
C1005 C1003 1.415 . S
C1006 H996 0.930 . S
C1006 C1004 1.419 . S
C1006 C1007 1.362 . S
C1007 H997 0.930 . S
C1007 C1000 1.409 . S
C1007 C1006 1.362 . S
H1008 C1014 0.930 . S
H1009 C1017 0.930 . S
H1010 C1018 0.930 . S
H1011 C1019 0.930 . S
H1012 C1022 0.930 . S
H1013 C1023 0.930 . S
C1014 H1008 0.930 . S
C1014 C1015 1.355 . S
C1014 C1016 1.415 . S
C1015 C1014 1.355 . S
C1015 C1017 1.419 . S
C1016 C1014 1.415 . S
C1016 C1021 1.425 . S
C1016 C1023 1.409 . S
C1017 H1009 0.930 . S
C1017 C1015 1.419 . S
C1017 C1018 1.362 . S
C1018 H1010 0.930 . S
C1018 C1017 1.362 . S
C1018 C1021 1.409 . S
C1019 H1011 0.930 . S
C1019 C1020 1.355 . S
C1019 C1021 1.415 . S
C1020 C1019 1.355 . S
C1020 C1022 1.419 . S
C1021 C1016 1.425 . S
C1021 C1018 1.409 . S
C1021 C1019 1.415 . S
C1022 H1012 0.930 . S
C1022 C1020 1.419 . S
C1022 C1023 1.362 . S
C1023 H1013 0.930 . S
C1023 C1016 1.409 . S
C1023 C1022 1.362 . S
H1024 C1030 0.930 . S
H1025 C1033 0.930 . S
H1026 C1034 0.930 . S
H1027 C1035 0.930 . S
H1028 C1038 0.930 . S
H1029 C1039 0.930 . S
C1030 H1024 0.930 . S
C1030 C1031 1.355 . S
C1030 C1032 1.415 . S
C1031 C1030 1.355 . S
C1031 C1033 1.419 . S
C1032 C1030 1.415 . S
C1032 C1037 1.425 . S
C1032 C1039 1.409 . S
C1033 H1025 0.930 . S
C1033 C1031 1.419 . S
C1033 C1034 1.362 . S
C1034 H1026 0.930 . S
C1034 C1033 1.362 . S
C1034 C1037 1.409 . S
C1035 H1027 0.930 . S
C1035 C1036 1.355 . S
C1035 C1037 1.415 . S
C1036 C1035 1.355 . S
C1036 C1038 1.419 . S
C1037 C1032 1.425 . S
C1037 C1034 1.409 . S
C1037 C1035 1.415 . S
C1038 H1028 0.930 . S
C1038 C1036 1.419 . S
C1038 C1039 1.362 . S
C1039 H1029 0.930 . S
C1039 C1032 1.409 . S
C1039 C1038 1.362 . S
H1040 C1046 0.930 . S
H1041 C1049 0.930 . S
H1042 C1050 0.930 . S
H1043 C1051 0.930 . S
H1044 C1054 0.930 . S
H1045 C1055 0.930 . S
C1046 H1040 0.930 . S
C1046 C1047 1.355 . S
C1046 C1048 1.415 . S
C1047 C1046 1.355 . S
C1047 C1049 1.419 . S
C1048 C1046 1.415 . S
C1048 C1053 1.425 . S
C1048 C1055 1.409 . S
C1049 H1041 0.930 . S
C1049 C1047 1.419 . S
C1049 C1050 1.362 . S
C1050 H1042 0.930 . S
C1050 C1049 1.362 . S
C1050 C1053 1.409 . S
C1051 H1043 0.930 . S
C1051 C1052 1.355 . S
C1051 C1053 1.415 . S
C1052 C1051 1.355 . S
C1052 C1054 1.419 . S
C1053 C1048 1.425 . S
C1053 C1050 1.409 . S
C1053 C1051 1.415 . S
C1054 H1044 0.930 . S
C1054 C1052 1.419 . S
C1054 C1055 1.362 . S
C1055 H1045 0.930 . S
C1055 C1048 1.409 . S
C1055 C1054 1.362 . S
H1056 C1062 0.930 . S
H1057 C1065 0.930 . S
H1058 C1066 0.930 . S
H1059 C1067 0.930 . S
H1060 C1070 0.930 . S
H1061 C1071 0.930 . S
C1062 H1056 0.930 . S
C1062 C1063 1.355 . S
C1062 C1064 1.415 . S
C1063 C1062 1.355 . S
C1063 C1065 1.419 . S
C1064 C1062 1.415 . S
C1064 C1069 1.425 . S
C1064 C1071 1.409 . S
C1065 H1057 0.930 . S
C1065 C1063 1.419 . S
C1065 C1066 1.362 . S
C1066 H1058 0.930 . S
C1066 C1065 1.362 . S
C1066 C1069 1.409 . S
C1067 H1059 0.930 . S
C1067 C1068 1.355 . S
C1067 C1069 1.415 . S
C1068 C1067 1.355 . S
C1068 C1070 1.419 . S
C1069 C1064 1.425 . S
C1069 C1066 1.409 . S
C1069 C1067 1.415 . S
C1070 H1060 0.930 . S
C1070 C1068 1.419 . S
C1070 C1071 1.362 . S
C1071 H1061 0.930 . S
C1071 C1064 1.409 . S
C1071 C1070 1.362 . S
H1072 C1078 0.930 . S
H1073 C1081 0.930 . S
H1074 C1082 0.930 . S
H1075 C1083 0.930 . S
H1076 C1086 0.930 . S
H1077 C1087 0.930 . S
C1078 H1072 0.930 . S
C1078 C1079 1.355 . S
C1078 C1080 1.415 . S
C1079 C1078 1.355 . S
C1079 C1081 1.419 . S
C1080 C1078 1.415 . S
C1080 C1085 1.425 . S
C1080 C1087 1.409 . S
C1081 H1073 0.930 . S
C1081 C1079 1.419 . S
C1081 C1082 1.362 . S
C1082 H1074 0.930 . S
C1082 C1081 1.362 . S
C1082 C1085 1.409 . S
C1083 H1075 0.930 . S
C1083 C1084 1.355 . S
C1083 C1085 1.415 . S
C1084 C1083 1.355 . S
C1084 C1086 1.419 . S
C1085 C1080 1.425 . S
C1085 C1082 1.409 . S
C1085 C1083 1.415 . S
C1086 H1076 0.930 . S
C1086 C1084 1.419 . S
C1086 C1087 1.362 . S
C1087 H1077 0.930 . S
C1087 C1080 1.409 . S
C1087 C1086 1.362 . S
H1088 C1094 0.930 . S
H1089 C1097 0.930 . S
H1090 C1098 0.930 . S
H1091 C1099 0.930 . S
H1092 C1102 0.930 . S
H1093 C1103 0.930 . S
C1094 H1088 0.930 . S
C1094 C1095 1.355 . S
C1094 C1096 1.415 . S
C1095 C1094 1.355 . S
C1095 C1097 1.419 . S
C1096 C1094 1.415 . S
C1096 C1101 1.425 . S
C1096 C1103 1.409 . S
C1097 H1089 0.930 . S
C1097 C1095 1.419 . S
C1097 C1098 1.362 . S
C1098 H1090 0.930 . S
C1098 C1097 1.362 . S
C1098 C1101 1.409 . S
C1099 H1091 0.930 . S
C1099 C1100 1.355 . S
C1099 C1101 1.415 . S
C1100 C1099 1.355 . S
C1100 C1102 1.419 . S
C1101 C1096 1.425 . S
C1101 C1098 1.409 . S
C1101 C1099 1.415 . S
C1102 H1092 0.930 . S
C1102 C1100 1.419 . S
C1102 C1103 1.362 . S
C1103 H1093 0.930 . S
C1103 C1096 1.409 . S
C1103 C1102 1.362 . S
H1104 C1110 0.930 . S
H1105 C1113 0.930 . S
H1106 C1114 0.930 . S
H1107 C1115 0.930 . S
H1108 C1118 0.930 . S
H1109 C1119 0.930 . S
C1110 H1104 0.930 . S
C1110 C1111 1.355 . S
C1110 C1112 1.415 . S
C1111 C1110 1.355 . S
C1111 C1113 1.419 . S
C1112 C1110 1.415 . S
C1112 C1117 1.425 . S
C1112 C1119 1.409 . S
C1113 H1105 0.930 . S
C1113 C1111 1.419 . S
C1113 C1114 1.362 . S
C1114 H1106 0.930 . S
C1114 C1113 1.362 . S
C1114 C1117 1.409 . S
C1115 H1107 0.930 . S
C1115 C1116 1.355 . S
C1115 C1117 1.415 . S
C1116 C1115 1.355 . S
C1116 C1118 1.419 . S
C1117 C1112 1.425 . S
C1117 C1114 1.409 . S
C1117 C1115 1.415 . S
C1118 H1108 0.930 . S
C1118 C1116 1.419 . S
C1118 C1119 1.362 . S
C1119 H1109 0.930 . S
C1119 C1112 1.409 . S
C1119 C1118 1.362 . S
H1120 C1126 0.930 . S
H1121 C1129 0.930 . S
H1122 C1130 0.930 . S
H1123 C1131 0.930 . S
H1124 C1134 0.930 . S
H1125 C1135 0.930 . S
C1126 H1120 0.930 . S
C1126 C1127 1.355 . S
C1126 C1128 1.415 . S
C1127 C1126 1.355 . S
C1127 C1129 1.419 . S
C1128 C1126 1.415 . S
C1128 C1133 1.425 . S
C1128 C1135 1.409 . S
C1129 H1121 0.930 . S
C1129 C1127 1.419 . S
C1129 C1130 1.362 . S
C1130 H1122 0.930 . S
C1130 C1129 1.362 . S
C1130 C1133 1.409 . S
C1131 H1123 0.930 . S
C1131 C1132 1.355 . S
C1131 C1133 1.415 . S
C1132 C1131 1.355 . S
C1132 C1134 1.419 . S
C1133 C1128 1.425 . S
C1133 C1130 1.409 . S
C1133 C1131 1.415 . S
C1134 H1124 0.930 . S
C1134 C1132 1.419 . S
C1134 C1135 1.362 . S
C1135 H1125 0.930 . S
C1135 C1128 1.409 . S
C1135 C1134 1.362 . S
H1136 C1142 0.930 . S
H1137 C1145 0.930 . S
H1138 C1146 0.930 . S
H1139 C1147 0.930 . S
H1140 C1150 0.930 . S
H1141 C1151 0.930 . S
C1142 H1136 0.930 . S
C1142 C1143 1.355 . S
C1142 C1144 1.415 . S
C1143 C1142 1.355 . S
C1143 C1145 1.419 . S
C1144 C1142 1.415 . S
C1144 C1149 1.425 . S
C1144 C1151 1.409 . S
C1145 H1137 0.930 . S
C1145 C1143 1.419 . S
C1145 C1146 1.362 . S
C1146 H1138 0.930 . S
C1146 C1145 1.362 . S
C1146 C1149 1.409 . S
C1147 H1139 0.930 . S
C1147 C1148 1.355 . S
C1147 C1149 1.415 . S
C1148 C1147 1.355 . S
C1148 C1150 1.419 . S
C1149 C1144 1.425 . S
C1149 C1146 1.409 . S
C1149 C1147 1.415 . S
C1150 H1140 0.930 . S
C1150 C1148 1.419 . S
C1150 C1151 1.362 . S
C1151 H1141 0.930 . S
C1151 C1144 1.409 . S
C1151 C1150 1.362 . S
H1152 C1158 0.930 . S
H1153 C1161 0.930 . S
H1154 C1162 0.930 . S
H1155 C1163 0.930 . S
H1156 C1166 0.930 . S
H1157 C1167 0.930 . S
C1158 H1152 0.930 . S
C1158 C1159 1.355 . S
C1158 C1160 1.415 . S
C1159 C1158 1.355 . S
C1159 C1161 1.419 . S
C1160 C1158 1.415 . S
C1160 C1165 1.425 . S
C1160 C1167 1.409 . S
C1161 H1153 0.930 . S
C1161 C1159 1.419 . S
C1161 C1162 1.362 . S
C1162 H1154 0.930 . S
C1162 C1161 1.362 . S
C1162 C1165 1.409 . S
C1163 H1155 0.930 . S
C1163 C1164 1.355 . S
C1163 C1165 1.415 . S
C1164 C1163 1.355 . S
C1164 C1166 1.419 . S
C1165 C1160 1.425 . S
C1165 C1162 1.409 . S
C1165 C1163 1.415 . S
C1166 H1156 0.930 . S
C1166 C1164 1.419 . S
C1166 C1167 1.362 . S
C1167 H1157 0.930 . S
C1167 C1160 1.409 . S
C1167 C1166 1.362 . S
H1168 C1174 0.930 . S
H1169 C1177 0.930 . S
H1170 C1178 0.930 . S
H1171 C1179 0.930 . S
H1172 C1182 0.930 . S
H1173 C1183 0.930 . S
C1174 H1168 0.930 . S
C1174 C1175 1.355 . S
C1174 C1176 1.415 . S
C1175 C1174 1.355 . S
C1175 C1177 1.419 . S
C1176 C1174 1.415 . S
C1176 C1181 1.425 . S
C1176 C1183 1.409 . S
C1177 H1169 0.930 . S
C1177 C1175 1.419 . S
C1177 C1178 1.362 . S
C1178 H1170 0.930 . S
C1178 C1177 1.362 . S
C1178 C1181 1.409 . S
C1179 H1171 0.930 . S
C1179 C1180 1.355 . S
C1179 C1181 1.415 . S
C1180 C1179 1.355 . S
C1180 C1182 1.419 . S
C1181 C1176 1.425 . S
C1181 C1178 1.409 . S
C1181 C1179 1.415 . S
C1182 H1172 0.930 . S
C1182 C1180 1.419 . S
C1182 C1183 1.362 . S
C1183 H1173 0.930 . S
C1183 C1176 1.409 . S
C1183 C1182 1.362 . S
H1184 C1190 0.930 . S
H1185 C1193 0.930 . S
H1186 C1194 0.930 . S
H1187 C1195 0.930 . S
H1188 C1198 0.930 . S
H1189 C1199 0.930 . S
C1190 H1184 0.930 . S
C1190 C1191 1.355 . S
C1190 C1192 1.415 . S
C1191 C1190 1.355 . S
C1191 C1193 1.419 . S
C1192 C1190 1.415 . S
C1192 C1197 1.425 . S
C1192 C1199 1.409 . S
C1193 H1185 0.930 . S
C1193 C1191 1.419 . S
C1193 C1194 1.362 . S
C1194 H1186 0.930 . S
C1194 C1193 1.362 . S
C1194 C1197 1.409 . S
C1195 H1187 0.930 . S
C1195 C1196 1.355 . S
C1195 C1197 1.415 . S
C1196 C1195 1.355 . S
C1196 C1198 1.419 . S
C1197 C1192 1.425 . S
C1197 C1194 1.409 . S
C1197 C1195 1.415 . S
C1198 H1188 0.930 . S
C1198 C1196 1.419 . S
C1198 C1199 1.362 . S
C1199 H1189 0.930 . S
C1199 C1192 1.409 . S
C1199 C1198 1.362 . S
H1200 C1206 0.930 . S
H1201 C1209 0.930 . S
H1202 C1210 0.930 . S
H1203 C1211 0.930 . S
H1204 C1214 0.930 . S
H1205 C1215 0.930 . S
C1206 H1200 0.930 . S
C1206 C1207 1.355 . S
C1206 C1208 1.415 . S
C1207 C1206 1.355 . S
C1207 C1209 1.419 . S
C1208 C1206 1.415 . S
C1208 C1213 1.425 . S
C1208 C1215 1.409 . S
C1209 H1201 0.930 . S
C1209 C1207 1.419 . S
C1209 C1210 1.362 . S
C1210 H1202 0.930 . S
C1210 C1209 1.362 . S
C1210 C1213 1.409 . S
C1211 H1203 0.930 . S
C1211 C1212 1.355 . S
C1211 C1213 1.415 . S
C1212 C1211 1.355 . S
C1212 C1214 1.419 . S
C1213 C1208 1.425 . S
C1213 C1210 1.409 . S
C1213 C1211 1.415 . S
C1214 H1204 0.930 . S
C1214 C1212 1.419 . S
C1214 C1215 1.362 . S
C1215 H1205 0.930 . S
C1215 C1208 1.409 . S
C1215 C1214 1.362 . S
H1216 C1222 0.930 . S
H1217 C1225 0.930 . S
H1218 C1226 0.930 . S
H1219 C1227 0.930 . S
H1220 C1230 0.930 . S
H1221 C1231 0.930 . S
C1222 H1216 0.930 . S
C1222 C1223 1.355 . S
C1222 C1224 1.415 . S
C1223 C1222 1.355 . S
C1223 C1225 1.419 . S
C1224 C1222 1.415 . S
C1224 C1229 1.425 . S
C1224 C1231 1.409 . S
C1225 H1217 0.930 . S
C1225 C1223 1.419 . S
C1225 C1226 1.362 . S
C1226 H1218 0.930 . S
C1226 C1225 1.362 . S
C1226 C1229 1.409 . S
C1227 H1219 0.930 . S
C1227 C1228 1.355 . S
C1227 C1229 1.415 . S
C1228 C1227 1.355 . S
C1228 C1230 1.419 . S
C1229 C1224 1.425 . S
C1229 C1226 1.409 . S
C1229 C1227 1.415 . S
C1230 H1220 0.930 . S
C1230 C1228 1.419 . S
C1230 C1231 1.362 . S
C1231 H1221 0.930 . S
C1231 C1224 1.409 . S
C1231 C1230 1.362 . S
H1232 C1238 0.930 . S
H1233 C1241 0.930 . S
H1234 C1242 0.930 . S
H1235 C1243 0.930 . S
H1236 C1246 0.930 . S
H1237 C1247 0.930 . S
C1238 H1232 0.930 . S
C1238 C1239 1.355 . S
C1238 C1240 1.415 . S
C1239 C1238 1.355 . S
C1239 C1241 1.419 . S
C1240 C1238 1.415 . S
C1240 C1245 1.425 . S
C1240 C1247 1.409 . S
C1241 H1233 0.930 . S
C1241 C1239 1.419 . S
C1241 C1242 1.362 . S
C1242 H1234 0.930 . S
C1242 C1241 1.362 . S
C1242 C1245 1.409 . S
C1243 H1235 0.930 . S
C1243 C1244 1.355 . S
C1243 C1245 1.415 . S
C1244 C1243 1.355 . S
C1244 C1246 1.419 . S
C1245 C1240 1.425 . S
C1245 C1242 1.409 . S
C1245 C1243 1.415 . S
C1246 H1236 0.930 . S
C1246 C1244 1.419 . S
C1246 C1247 1.362 . S
C1247 H1237 0.930 . S
C1247 C1240 1.409 . S
C1247 C1246 1.362 . S
H1248 C1254 0.930 . S
H1249 C1257 0.930 . S
H1250 C1258 0.930 . S
H1251 C1259 0.930 . S
H1252 C1262 0.930 . S
H1253 C1263 0.930 . S
C1254 H1248 0.930 . S
C1254 C1255 1.355 . S
C1254 C1256 1.415 . S
C1255 C1254 1.355 . S
C1255 C1257 1.419 . S
C1256 C1254 1.415 . S
C1256 C1261 1.425 . S
C1256 C1263 1.409 . S
C1257 H1249 0.930 . S
C1257 C1255 1.419 . S
C1257 C1258 1.362 . S
C1258 H1250 0.930 . S
C1258 C1257 1.362 . S
C1258 C1261 1.409 . S
C1259 H1251 0.930 . S
C1259 C1260 1.355 . S
C1259 C1261 1.415 . S
C1260 C1259 1.355 . S
C1260 C1262 1.419 . S
C1261 C1256 1.425 . S
C1261 C1258 1.409 . S
C1261 C1259 1.415 . S
C1262 H1252 0.930 . S
C1262 C1260 1.419 . S
C1262 C1263 1.362 . S
C1263 H1253 0.930 . S
C1263 C1256 1.409 . S
C1263 C1262 1.362 . S
H1264 C1270 0.930 . S
H1265 C1273 0.930 . S
H1266 C1274 0.930 . S
H1267 C1275 0.930 . S
H1268 C1278 0.930 . S
H1269 C1279 0.930 . S
C1270 H1264 0.930 . S
C1270 C1271 1.355 . S
C1270 C1272 1.415 . S
C1271 C1270 1.355 . S
C1271 C1273 1.419 . S
C1272 C1270 1.415 . S
C1272 C1277 1.425 . S
C1272 C1279 1.409 . S
C1273 H1265 0.930 . S
C1273 C1271 1.419 . S
C1273 C1274 1.362 . S
C1274 H1266 0.930 . S
C1274 C1273 1.362 . S
C1274 C1277 1.409 . S
C1275 H1267 0.930 . S
C1275 C1276 1.355 . S
C1275 C1277 1.415 . S
C1276 C1275 1.355 . S
C1276 C1278 1.419 . S
C1277 C1272 1.425 . S
C1277 C1274 1.409 . S
C1277 C1275 1.415 . S
C1278 H1268 0.930 . S
C1278 C1276 1.419 . S
C1278 C1279 1.362 . S
C1279 H1269 0.930 . S
C1279 C1272 1.409 . S
C1279 C1278 1.362 . S
H1280 C1286 0.930 . S
H1281 C1289 0.930 . S
H1282 C1290 0.930 . S
H1283 C1291 0.930 . S
H1284 C1294 0.930 . S
H1285 C1295 0.930 . S
C1286 H1280 0.930 . S
C1286 C1287 1.355 . S
C1286 C1288 1.415 . S
C1287 C1286 1.355 . S
C1287 C1289 1.419 . S
C1288 C1286 1.415 . S
C1288 C1293 1.425 . S
C1288 C1295 1.409 . S
C1289 H1281 0.930 . S
C1289 C1287 1.419 . S
C1289 C1290 1.362 . S
C1290 H1282 0.930 . S
C1290 C1289 1.362 . S
C1290 C1293 1.409 . S
C1291 H1283 0.930 . S
C1291 C1292 1.355 . S
C1291 C1293 1.415 . S
C1292 C1291 1.355 . S
C1292 C1294 1.419 . S
C1293 C1288 1.425 . S
C1293 C1290 1.409 . S
C1293 C1291 1.415 . S
C1294 H1284 0.930 . S
C1294 C1292 1.419 . S
C1294 C1295 1.362 . S
C1295 H1285 0.930 . S
C1295 C1288 1.409 . S
C1295 C1294 1.362 . S
H1296 C1302 0.930 . S
H1297 C1305 0.930 . S
H1298 C1306 0.930 . S
H1299 C1307 0.930 . S
H1300 C1310 0.930 . S
H1301 C1311 0.930 . S
C1302 H1296 0.930 . S
C1302 C1303 1.355 . S
C1302 C1304 1.415 . S
C1303 C1302 1.355 . S
C1303 C1305 1.419 . S
C1304 C1302 1.415 . S
C1304 C1309 1.425 . S
C1304 C1311 1.409 . S
C1305 H1297 0.930 . S
C1305 C1303 1.419 . S
C1305 C1306 1.362 . S
C1306 H1298 0.930 . S
C1306 C1305 1.362 . S
C1306 C1309 1.409 . S
C1307 H1299 0.930 . S
C1307 C1308 1.355 . S
C1307 C1309 1.415 . S
C1308 C1307 1.355 . S
C1308 C1310 1.419 . S
C1309 C1304 1.425 . S
C1309 C1306 1.409 . S
C1309 C1307 1.415 . S
C1310 H1300 0.930 . S
C1310 C1308 1.419 . S
C1310 C1311 1.362 . S
C1311 H1301 0.930 . S
C1311 C1304 1.409 . S
C1311 C1310 1.362 . S
H1312 C1318 0.930 . S
H1313 C1321 0.930 . S
H1314 C1322 0.930 . S
H1315 C1323 0.930 . S
H1316 C1326 0.930 . S
H1317 C1327 0.930 . S
C1318 H1312 0.930 . S
C1318 C1319 1.355 . S
C1318 C1320 1.415 . S
C1319 C1318 1.355 . S
C1319 C1321 1.419 . S
C1320 C1318 1.415 . S
C1320 C1325 1.425 . S
C1320 C1327 1.409 . S
C1321 H1313 0.930 . S
C1321 C1319 1.419 . S
C1321 C1322 1.362 . S
C1322 H1314 0.930 . S
C1322 C1321 1.362 . S
C1322 C1325 1.409 . S
C1323 H1315 0.930 . S
C1323 C1324 1.355 . S
C1323 C1325 1.415 . S
C1324 C1323 1.355 . S
C1324 C1326 1.419 . S
C1325 C1320 1.425 . S
C1325 C1322 1.409 . S
C1325 C1323 1.415 . S
C1326 H1316 0.930 . S
C1326 C1324 1.419 . S
C1326 C1327 1.362 . S
C1327 H1317 0.930 . S
C1327 C1320 1.409 . S
C1327 C1326 1.362 . S
H1328 C1334 0.930 . S
H1329 C1337 0.930 . S
H1330 C1338 0.930 . S
H1331 C1339 0.930 . S
H1332 C1342 0.930 . S
H1333 C1343 0.930 . S
C1334 H1328 0.930 . S
C1334 C1335 1.355 . S
C1334 C1336 1.415 . S
C1335 C1334 1.355 . S
C1335 C1337 1.419 . S
C1336 C1334 1.415 . S
C1336 C1341 1.425 . S
C1336 C1343 1.409 . S
C1337 H1329 0.930 . S
C1337 C1335 1.419 . S
C1337 C1338 1.362 . S
C1338 H1330 0.930 . S
C1338 C1337 1.362 . S
C1338 C1341 1.409 . S
C1339 H1331 0.930 . S
C1339 C1340 1.355 . S
C1339 C1341 1.415 . S
C1340 C1339 1.355 . S
C1340 C1342 1.419 . S
C1341 C1336 1.425 . S
C1341 C1338 1.409 . S
C1341 C1339 1.415 . S
C1342 H1332 0.930 . S
C1342 C1340 1.419 . S
C1342 C1343 1.362 . S
C1343 H1333 0.930 . S
C1343 C1336 1.409 . S
C1343 C1342 1.362 . S
H1344 C1350 0.930 . S
H1345 C1353 0.930 . S
H1346 C1354 0.930 . S
H1347 C1355 0.930 . S
H1348 C1358 0.930 . S
H1349 C1359 0.930 . S
C1350 H1344 0.930 . S
C1350 C1351 1.355 . S
C1350 C1352 1.415 . S
C1351 C1350 1.355 . S
C1351 C1353 1.419 . S
C1352 C1350 1.415 . S
C1352 C1357 1.425 . S
C1352 C1359 1.409 . S
C1353 H1345 0.930 . S
C1353 C1351 1.419 . S
C1353 C1354 1.362 . S
C1354 H1346 0.930 . S
C1354 C1353 1.362 . S
C1354 C1357 1.409 . S
C1355 H1347 0.930 . S
C1355 C1356 1.355 . S
C1355 C1357 1.415 . S
C1356 C1355 1.355 . S
C1356 C1358 1.419 . S
C1357 C1352 1.425 . S
C1357 C1354 1.409 . S
C1357 C1355 1.415 . S
C1358 H1348 0.930 . S
C1358 C1356 1.419 . S
C1358 C1359 1.362 . S
C1359 H1349 0.930 . S
C1359 C1352 1.409 . S
C1359 C1358 1.362 . S
H1360 C1366 0.930 . S
H1361 C1369 0.930 . S
H1362 C1370 0.930 . S
H1363 C1371 0.930 . S
H1364 C1374 0.930 . S
H1365 C1375 0.930 . S
C1366 H1360 0.930 . S
C1366 C1367 1.355 . S
C1366 C1368 1.415 . S
C1367 C1366 1.355 . S
C1367 C1369 1.419 . S
C1368 C1366 1.415 . S
C1368 C1373 1.425 . S
C1368 C1375 1.409 . S
C1369 H1361 0.930 . S
C1369 C1367 1.419 . S
C1369 C1370 1.362 . S
C1370 H1362 0.930 . S
C1370 C1369 1.362 . S
C1370 C1373 1.409 . S
C1371 H1363 0.930 . S
C1371 C1372 1.355 . S
C1371 C1373 1.415 . S
C1372 C1371 1.355 . S
C1372 C1374 1.419 . S
C1373 C1368 1.425 . S
C1373 C1370 1.409 . S
C1373 C1371 1.415 . S
C1374 H1364 0.930 . S
C1374 C1372 1.419 . S
C1374 C1375 1.362 . S
C1375 H1365 0.930 . S
C1375 C1368 1.409 . S
C1375 C1374 1.362 . S
H1376 C1382 0.930 . S
H1377 C1385 0.930 . S
H1378 C1386 0.930 . S
H1379 C1387 0.930 . S
H1380 C1390 0.930 . S
H1381 C1391 0.930 . S
C1382 H1376 0.930 . S
C1382 C1383 1.355 . S
C1382 C1384 1.415 . S
C1383 C1382 1.355 . S
C1383 C1385 1.419 . S
C1384 C1382 1.415 . S
C1384 C1389 1.425 . S
C1384 C1391 1.409 . S
C1385 H1377 0.930 . S
C1385 C1383 1.419 . S
C1385 C1386 1.362 . S
C1386 H1378 0.930 . S
C1386 C1385 1.362 . S
C1386 C1389 1.409 . S
C1387 H1379 0.930 . S
C1387 C1388 1.355 . S
C1387 C1389 1.415 . S
C1388 C1387 1.355 . S
C1388 C1390 1.419 . S
C1389 C1384 1.425 . S
C1389 C1386 1.409 . S
C1389 C1387 1.415 . S
C1390 H1380 0.930 . S
C1390 C1388 1.419 . S
C1390 C1391 1.362 . S
C1391 H1381 0.930 . S
C1391 C1384 1.409 . S
C1391 C1390 1.362 . S
H1392 C1398 0.930 . S
H1393 C1401 0.930 . S
H1394 C1402 0.930 . S
H1395 C1403 0.930 . S
H1396 C1406 0.930 . S
H1397 C1407 0.930 . S
C1398 H1392 0.930 . S
C1398 C1399 1.355 . S
C1398 C1400 1.415 . S
C1399 C1398 1.355 . S
C1399 C1401 1.419 . S
C1400 C1398 1.415 . S
C1400 C1405 1.425 . S
C1400 C1407 1.409 . S
C1401 H1393 0.930 . S
C1401 C1399 1.419 . S
C1401 C1402 1.362 . S
C1402 H1394 0.930 . S
C1402 C1401 1.362 . S
C1402 C1405 1.409 . S
C1403 H1395 0.930 . S
C1403 C1404 1.355 . S
C1403 C1405 1.415 . S
C1404 C1403 1.355 . S
C1404 C1406 1.419 . S
C1405 C1400 1.425 . S
C1405 C1402 1.409 . S
C1405 C1403 1.415 . S
C1406 H1396 0.930 . S
C1406 C1404 1.419 . S
C1406 C1407 1.362 . S
C1407 H1397 0.930 . S
C1407 C1400 1.409 . S
C1407 C1406 1.362 . S
H1408 C1414 0.930 . S
H1409 C1417 0.930 . S
H1410 C1418 0.930 . S
H1411 C1419 0.930 . S
H1412 C1422 0.930 . S
H1413 C1423 0.930 . S
C1414 H1408 0.930 . S
C1414 C1415 1.355 . S
C1414 C1416 1.415 . S
C1415 C1414 1.355 . S
C1415 C1417 1.419 . S
C1416 C1414 1.415 . S
C1416 C1421 1.425 . S
C1416 C1423 1.409 . S
C1417 H1409 0.930 . S
C1417 C1415 1.419 . S
C1417 C1418 1.362 . S
C1418 H1410 0.930 . S
C1418 C1417 1.362 . S
C1418 C1421 1.409 . S
C1419 H1411 0.930 . S
C1419 C1420 1.355 . S
C1419 C1421 1.415 . S
C1420 C1419 1.355 . S
C1420 C1422 1.419 . S
C1421 C1416 1.425 . S
C1421 C1418 1.409 . S
C1421 C1419 1.415 . S
C1422 H1412 0.930 . S
C1422 C1420 1.419 . S
C1422 C1423 1.362 . S
C1423 H1413 0.930 . S
C1423 C1416 1.409 . S
C1423 C1422 1.362 . S
H1424 C1430 0.930 . S
H1425 C1433 0.930 . S
H1426 C1434 0.930 . S
H1427 C1435 0.930 . S
H1428 C1438 0.930 . S
H1429 C1439 0.930 . S
C1430 H1424 0.930 . S
C1430 C1431 1.355 . S
C1430 C1432 1.415 . S
C1431 C1430 1.355 . S
C1431 C1433 1.419 . S
C1432 C1430 1.415 . S
C1432 C1437 1.425 . S
C1432 C1439 1.409 . S
C1433 H1425 0.930 . S
C1433 C1431 1.419 . S
C1433 C1434 1.362 . S
C1434 H1426 0.930 . S
C1434 C1433 1.362 . S
C1434 C1437 1.409 . S
C1435 H1427 0.930 . S
C1435 C1436 1.355 . S
C1435 C1437 1.415 . S
C1436 C1435 1.355 . S
C1436 C1438 1.419 . S
C1437 C1432 1.425 . S
C1437 C1434 1.409 . S
C1437 C1435 1.415 . S
C1438 H1428 0.930 . S
C1438 C1436 1.419 . S
C1438 C1439 1.362 . S
C1439 H1429 0.930 . S
C1439 C1432 1.409 . S
C1439 C1438 1.362 . S
H1440 C1446 0.930 . S
H1441 C1449 0.930 . S
H1442 C1450 0.930 . S
H1443 C1451 0.930 . S
H1444 C1454 0.930 . S
H1445 C1455 0.930 . S
C1446 H1440 0.930 . S
C1446 C1447 1.355 . S
C1446 C1448 1.415 . S
C1447 C1446 1.355 . S
C1447 C1449 1.419 . S
C1448 C1446 1.415 . S
C1448 C1453 1.425 . S
C1448 C1455 1.409 . S
C1449 H1441 0.930 . S
C1449 C1447 1.419 . S
C1449 C1450 1.362 . S
C1450 H1442 0.930 . S
C1450 C1449 1.362 . S
C1450 C1453 1.409 . S
C1451 H1443 0.930 . S
C1451 C1452 1.355 . S
C1451 C1453 1.415 . S
C1452 C1451 1.355 . S
C1452 C1454 1.419 . S
C1453 C1448 1.425 . S
C1453 C1450 1.409 . S
C1453 C1451 1.415 . S
C1454 H1444 0.930 . S
C1454 C1452 1.419 . S
C1454 C1455 1.362 . S
C1455 H1445 0.930 . S
C1455 C1448 1.409 . S
C1455 C1454 1.362 . S
H1456 C1462 0.930 . S
H1457 C1465 0.930 . S
H1458 C1466 0.930 . S
H1459 C1467 0.930 . S
H1460 C1470 0.930 . S
H1461 C1471 0.930 . S
C1462 H1456 0.930 . S
C1462 C1463 1.355 . S
C1462 C1464 1.415 . S
C1463 C1462 1.355 . S
C1463 C1465 1.419 . S
C1464 C1462 1.415 . S
C1464 C1469 1.425 . S
C1464 C1471 1.409 . S
C1465 H1457 0.930 . S
C1465 C1463 1.419 . S
C1465 C1466 1.362 . S
C1466 H1458 0.930 . S
C1466 C1465 1.362 . S
C1466 C1469 1.409 . S
C1467 H1459 0.930 . S
C1467 C1468 1.355 . S
C1467 C1469 1.415 . S
C1468 C1467 1.355 . S
C1468 C1470 1.419 . S
C1469 C1464 1.425 . S
C1469 C1466 1.409 . S
C1469 C1467 1.415 . S
C1470 H1460 0.930 . S
C1470 C1468 1.419 . S
C1470 C1471 1.362 . S
C1471 H1461 0.930 . S
C1471 C1464 1.409 . S
C1471 C1470 1.362 . S
H1472 C1478 0.930 . S
H1473 C1481 0.930 . S
H1474 C1482 0.930 . S
H1475 C1483 0.930 . S
H1476 C1486 0.930 . S
H1477 C1487 0.930 . S
C1478 H1472 0.930 . S
C1478 C1479 1.355 . S
C1478 C1480 1.415 . S
C1479 C1478 1.355 . S
C1479 C1481 1.419 . S
C1480 C1478 1.415 . S
C1480 C1485 1.425 . S
C1480 C1487 1.409 . S
C1481 H1473 0.930 . S
C1481 C1479 1.419 . S
C1481 C1482 1.362 . S
C1482 H1474 0.930 . S
C1482 C1481 1.362 . S
C1482 C1485 1.409 . S
C1483 H1475 0.930 . S
C1483 C1484 1.355 . S
C1483 C1485 1.415 . S
C1484 C1483 1.355 . S
C1484 C1486 1.419 . S
C1485 C1480 1.425 . S
C1485 C1482 1.409 . S
C1485 C1483 1.415 . S
C1486 H1476 0.930 . S
C1486 C1484 1.419 . S
C1486 C1487 1.362 . S
C1487 H1477 0.930 . S
C1487 C1480 1.409 . S
C1487 C1486 1.362 . S
H1488 C1494 0.930 . S
H1489 C1497 0.930 . S
H1490 C1498 0.930 . S
H1491 C1499 0.930 . S
H1492 C1502 0.930 . S
H1493 C1503 0.930 . S
C1494 H1488 0.930 . S
C1494 C1495 1.355 . S
C1494 C1496 1.415 . S
C1495 C1494 1.355 . S
C1495 C1497 1.419 . S
C1496 C1494 1.415 . S
C1496 C1501 1.425 . S
C1496 C1503 1.409 . S
C1497 H1489 0.930 . S
C1497 C1495 1.419 . S
C1497 C1498 1.362 . S
C1498 H1490 0.930 . S
C1498 C1497 1.362 . S
C1498 C1501 1.409 . S
C1499 H1491 0.930 . S
C1499 C1500 1.355 . S
C1499 C1501 1.415 . S
C1500 C1499 1.355 . S
C1500 C1502 1.419 . S
C1501 C1496 1.425 . S
C1501 C1498 1.409 . S
C1501 C1499 1.415 . S
C1502 H1492 0.930 . S
C1502 C1500 1.419 . S
C1502 C1503 1.362 . S
C1503 H1493 0.930 . S
C1503 C1496 1.409 . S
C1503 C1502 1.362 . S
H1504 C1510 0.930 . S
H1505 C1513 0.930 . S
H1506 C1514 0.930 . S
H1507 C1515 0.930 . S
H1508 C1518 0.930 . S
H1509 C1519 0.930 . S
C1510 H1504 0.930 . S
C1510 C1511 1.355 . S
C1510 C1512 1.415 . S
C1511 C1510 1.355 . S
C1511 C1513 1.419 . S
C1512 C1510 1.415 . S
C1512 C1517 1.425 . S
C1512 C1519 1.409 . S
C1513 H1505 0.930 . S
C1513 C1511 1.419 . S
C1513 C1514 1.362 . S
C1514 H1506 0.930 . S
C1514 C1513 1.362 . S
C1514 C1517 1.409 . S
C1515 H1507 0.930 . S
C1515 C1516 1.355 . S
C1515 C1517 1.415 . S
C1516 C1515 1.355 . S
C1516 C1518 1.419 . S
C1517 C1512 1.425 . S
C1517 C1514 1.409 . S
C1517 C1515 1.415 . S
C1518 H1508 0.930 . S
C1518 C1516 1.419 . S
C1518 C1519 1.362 . S
C1519 H1509 0.930 . S
C1519 C1512 1.409 . S
C1519 C1518 1.362 . S
H1520 C1526 0.930 . S
H1521 C1529 0.930 . S
H1522 C1530 0.930 . S
H1523 C1531 0.930 . S
H1524 C1534 0.930 . S
H1525 C1535 0.930 . S
C1526 H1520 0.930 . S
C1526 C1527 1.355 . S
C1526 C1528 1.415 . S
C1527 C1526 1.355 . S
C1527 C1529 1.419 . S
C1528 C1526 1.415 . S
C1528 C1533 1.425 . S
C1528 C1535 1.409 . S
C1529 H1521 0.930 . S
C1529 C1527 1.419 . S
C1529 C1530 1.362 . S
C1530 H1522 0.930 . S
C1530 C1529 1.362 . S
C1530 C1533 1.409 . S
C1531 H1523 0.930 . S
C1531 C1532 1.355 . S
C1531 C1533 1.415 . S
C1532 C1531 1.355 . S
C1532 C1534 1.419 . S
C1533 C1528 1.425 . S
C1533 C1530 1.409 . S
C1533 C1531 1.415 . S
C1534 H1524 0.930 . S
C1534 C1532 1.419 . S
C1534 C1535 1.362 . S
C1535 H1525 0.930 . S
C1535 C1528 1.409 . S
C1535 C1534 1.362 . S
H1536 C1542 0.930 . S
H1537 C1545 0.930 . S
H1538 C1546 0.930 . S
H1539 C1547 0.930 . S
H1540 C1550 0.930 . S
H1541 C1551 0.930 . S
C1542 H1536 0.930 . S
C1542 C1543 1.355 . S
C1542 C1544 1.415 . S
C1543 C1542 1.355 . S
C1543 C1545 1.419 . S
C1544 C1542 1.415 . S
C1544 C1549 1.425 . S
C1544 C1551 1.409 . S
C1545 H1537 0.930 . S
C1545 C1543 1.419 . S
C1545 C1546 1.362 . S
C1546 H1538 0.930 . S
C1546 C1545 1.362 . S
C1546 C1549 1.409 . S
C1547 H1539 0.930 . S
C1547 C1548 1.355 . S
C1547 C1549 1.415 . S
C1548 C1547 1.355 . S
C1548 C1550 1.419 . S
C1549 C1544 1.425 . S
C1549 C1546 1.409 . S
C1549 C1547 1.415 . S
C1550 H1540 0.930 . S
C1550 C1548 1.419 . S
C1550 C1551 1.362 . S
C1551 H1541 0.930 . S
C1551 C1544 1.409 . S
C1551 C1550 1.362 . S
H1552 C1558 0.930 . S
H1553 C1561 0.930 . S
H1554 C1562 0.930 . S
H1555 C1563 0.930 . S
H1556 C1566 0.930 . S
H1557 C1567 0.930 . S
C1558 H1552 0.930 . S
C1558 C1559 1.355 . S
C1558 C1560 1.415 . S
C1559 C1558 1.355 . S
C1559 C1561 1.419 . S
C1560 C1558 1.415 . S
C1560 C1565 1.425 . S
C1560 C1567 1.409 . S
C1561 H1553 0.930 . S
C1561 C1559 1.419 . S
C1561 C1562 1.362 . S
C1562 H1554 0.930 . S
C1562 C1561 1.362 . S
C1562 C1565 1.409 . S
C1563 H1555 0.930 . S
C1563 C1564 1.355 . S
C1563 C1565 1.415 . S
C1564 C1563 1.355 . S
C1564 C1566 1.419 . S
C1565 C1560 1.425 . S
C1565 C1562 1.409 . S
C1565 C1563 1.415 . S
C1566 H1556 0.930 . S
C1566 C1564 1.419 . S
C1566 C1567 1.362 . S
C1567 H1557 0.930 . S
C1567 C1560 1.409 . S
C1567 C1566 1.362 . S
H1568 C1574 0.930 . S
H1569 C1577 0.930 . S
H1570 C1578 0.930 . S
H1571 C1579 0.930 . S
H1572 C1582 0.930 . S
H1573 C1583 0.930 . S
C1574 H1568 0.930 . S
C1574 C1575 1.355 . S
C1574 C1576 1.415 . S
C1575 C1574 1.355 . S
C1575 C1577 1.419 . S
C1576 C1574 1.415 . S
C1576 C1581 1.425 . S
C1576 C1583 1.409 . S
C1577 H1569 0.930 . S
C1577 C1575 1.419 . S
C1577 C1578 1.362 . S
C1578 H1570 0.930 . S
C1578 C1577 1.362 . S
C1578 C1581 1.409 . S
C1579 H1571 0.930 . S
C1579 C1580 1.355 . S
C1579 C1581 1.415 . S
C1580 C1579 1.355 . S
C1580 C1582 1.419 . S
C1581 C1576 1.425 . S
C1581 C1578 1.409 . S
C1581 C1579 1.415 . S
C1582 H1572 0.930 . S
C1582 C1580 1.419 . S
C1582 C1583 1.362 . S
C1583 H1573 0.930 . S
C1583 C1576 1.409 . S
C1583 C1582 1.362 . S
H1584 C1590 0.930 . S
H1585 C1593 0.930 . S
H1586 C1594 0.930 . S
H1587 C1595 0.930 . S
H1588 C1598 0.930 . S
H1589 C1599 0.930 . S
C1590 H1584 0.930 . S
C1590 C1591 1.355 . S
C1590 C1592 1.415 . S
C1591 C1590 1.355 . S
C1591 C1593 1.419 . S
C1592 C1590 1.415 . S
C1592 C1597 1.425 . S
C1592 C1599 1.409 . S
C1593 H1585 0.930 . S
C1593 C1591 1.419 . S
C1593 C1594 1.362 . S
C1594 H1586 0.930 . S
C1594 C1593 1.362 . S
C1594 C1597 1.409 . S
C1595 H1587 0.930 . S
C1595 C1596 1.355 . S
C1595 C1597 1.415 . S
C1596 C1595 1.355 . S
C1596 C1598 1.419 . S
C1597 C1592 1.425 . S
C1597 C1594 1.409 . S
C1597 C1595 1.415 . S
C1598 H1588 0.930 . S
C1598 C1596 1.419 . S
C1598 C1599 1.362 . S
C1599 H1589 0.930 . S
C1599 C1592 1.409 . S
C1599 C1598 1.362 . S
H1600 C1606 0.930 . S
H1601 C1609 0.930 . S
H1602 C1610 0.930 . S
H1603 C1611 0.930 . S
H1604 C1614 0.930 . S
H1605 C1615 0.930 . S
C1606 H1600 0.930 . S
C1606 C1607 1.355 . S
C1606 C1608 1.415 . S
C1607 C1606 1.355 . S
C1607 C1609 1.419 . S
C1608 C1606 1.415 . S
C1608 C1613 1.425 . S
C1608 C1615 1.409 . S
C1609 H1601 0.930 . S
C1609 C1607 1.419 . S
C1609 C1610 1.362 . S
C1610 H1602 0.930 . S
C1610 C1609 1.362 . S
C1610 C1613 1.409 . S
C1611 H1603 0.930 . S
C1611 C1612 1.355 . S
C1611 C1613 1.415 . S
C1612 C1611 1.355 . S
C1612 C1614 1.419 . S
C1613 C1608 1.425 . S
C1613 C1610 1.409 . S
C1613 C1611 1.415 . S
C1614 H1604 0.930 . S
C1614 C1612 1.419 . S
C1614 C1615 1.362 . S
C1615 H1605 0.930 . S
C1615 C1608 1.409 . S
C1615 C1614 1.362 . S
H1616 C1622 0.930 . S
H1617 C1625 0.930 . S
H1618 C1626 0.930 . S
H1619 C1627 0.930 . S
H1620 C1630 0.930 . S
H1621 C1631 0.930 . S
C1622 H1616 0.930 . S
C1622 C1623 1.355 . S
C1622 C1624 1.415 . S
C1623 C1622 1.355 . S
C1623 C1625 1.419 . S
C1624 C1622 1.415 . S
C1624 C1629 1.425 . S
C1624 C1631 1.409 . S
C1625 H1617 0.930 . S
C1625 C1623 1.419 . S
C1625 C1626 1.362 . S
C1626 H1618 0.930 . S
C1626 C1625 1.362 . S
C1626 C1629 1.409 . S
C1627 H1619 0.930 . S
C1627 C1628 1.355 . S
C1627 C1629 1.415 . S
C1628 C1627 1.355 . S
C1628 C1630 1.419 . S
C1629 C1624 1.425 . S
C1629 C1626 1.409 . S
C1629 C1627 1.415 . S
C1630 H1620 0.930 . S
C1630 C1628 1.419 . S
C1630 C1631 1.362 . S
C1631 H1621 0.930 . S
C1631 C1624 1.409 . S
C1631 C1630 1.362 . S
C876 C689 1.564 . S
C871 C74 1.435 . S
C892 C694 0.834 . S
C887 C142 1.117 . S
C908 C695 1.584 . S
C903 C231 1.505 . S
C919 C322 1.294 . S
C924 C699 1.359 . S
C935 C406 1.018 . S
C940 C702 0.693 . S
C956 C703 1.583 . S
C951 C494 1.506 . S
C967 C562 1.271 . S
C972 C680 1.339 . S
C983 C651 1.509 . S
C988 C696 1.575 . S
C1004 C734 1.291 . S
C999 C58 1.332 . S
C1015 C151 1.511 . S
C1020 C760 1.531 . S
C1036 C712 2.441 . S
C1031 C224 2.343 . S
C1052 C767 1.457 . S
C1047 C315 1.416 . S
C1063 C399 1.406 . S
C1068 C721 1.450 . S
C1084 C763 1.330 . S
C1079 C478 1.324 . S
C1095 C571 1.524 . S
C1100 C727 1.584 . S
C1111 C644 2.329 . S
C1116 C758 2.445 . S
C1127 C67 2.380 . S
C1132 C766 2.432 . S
C1143 C392 1.556 . S
C1148 C753 1.546 . S
C1164 C731 2.445 . S
C1159 C487 2.395 . S
C1180 C759 1.452 . S
C1175 C578 1.447 . S
C1191 C658 1.241 . S
C1196 C726 1.360 . S
C1207 C238 1.221 . S
C1212 C744 1.340 . S
C1228 C735 1.536 . S
C1223 C308 1.459 . S
C1239 C158 1.474 . S
C1244 C728 1.495 . S
C1255 C662 1.425 . S
C1260 C790 1.444 . S
C1271 C394 1.105 . S
C1276 C785 0.470 . S
C1292 C799 1.486 . S
C1287 C483 1.483 . S
C1308 C776 1.324 . S
C1303 C574 1.256 . S
C1319 C154 1.018 . S
C1324 C792 0.258 . S
C1340 C791 1.503 . S
C1335 C242 1.493 . S
C1351 C310 1.269 . S
C1356 C795 1.275 . S
C1367 C63 1.475 . S
C1372 C798 1.498 . S
C1383 C646 1.243 . S
C1388 C824 1.342 . S
C1404 C840 1.527 . S
C1399 C403 1.557 . S
C1415 C476 2.387 . S
C1420 C822 2.507 . S
C1431 C567 1.456 . S
C1436 C855 1.434 . S
C1452 C831 1.431 . S
C1447 C147 1.377 . S
C1463 C226 1.240 . S
C1468 C849 1.358 . S
C1484 C827 1.557 . S
C1479 C319 1.435 . S
C1500 C862 2.492 . S
C1495 C56 2.416 . S
C1516 C854 2.459 . S
C1511 C655 2.373 . S
C1527 C140 1.577 . S
C1532 C859 1.541 . S
C1543 C235 2.401 . S
C1548 C830 2.500 . S
C1564 C863 1.376 . S
C1559 C326 1.426 . S
C1575 C70 1.289 . S
C1580 C817 1.365 . S
C1591 C490 1.271 . S
C1596 C856 1.327 . S
C1612 C808 1.504 . S
C1607 C560 1.487 . S
C1628 C823 1.406 . S
C1623 C410 1.454 . S
