# Generated by pormake.
# Topology anh, (6,3)-cn, num edge types: 1
# Building blocks:
#     Node 0, Type 0, BuildingBlock: BETGAK_clean_sbu_0, # of connection points: 6
#     Node 1, Type 0, BuildingBlock: BETGAK_clean_sbu_0, # of connection points: 6
#     Node 2, Type 0, BuildingBlock: BETGAK_clean_sbu_0, # of connection points: 6
#     Node 3, Type 1, BuildingBlock: OLANEW_clean_sbu_2, # of connection points: 3
#     Node 4, Type 1, BuildingBlock: OLANEW_clean_sbu_2, # of connection points: 3
#     Node 5, Type 1, BuildingBlock: OLANEW_clean_sbu_2, # of connection points: 3
#     Node 6, Type 1, BuildingBlock: OLANEW_clean_sbu_2, # of connection points: 3
#     Node 7, Type 1, BuildingBlock: OLANEW_clean_sbu_2, # of connection points: 3
#     Node 8, Type 1, BuildingBlock: OLANEW_clean_sbu_2, # of connection points: 3
#     Edge 9, Type (0, 1), BuildingBlock: MIFKUJ_clean_linker_0, # of connection points: 2
#     Edge 10, Type (0, 1), BuildingBlock: MIFKUJ_clean_linker_0, # of connection points: 2
#     Edge 11, Type (0, 1), BuildingBlock: MIFKUJ_clean_linker_0, # of connection points: 2
#     Edge 12, Type (0, 1), BuildingBlock: MIFKUJ_clean_linker_0, # of connection points: 2
#     Edge 13, Type (0, 1), BuildingBlock: MIFKUJ_clean_linker_0, # of connection points: 2
#     Edge 14, Type (0, 1), BuildingBlock: MIFKUJ_clean_linker_0, # of connection points: 2
#     Edge 15, Type (0, 1), BuildingBlock: MIFKUJ_clean_linker_0, # of connection points: 2
#     Edge 16, Type (0, 1), BuildingBlock: MIFKUJ_clean_linker_0, # of connection points: 2
#     Edge 17, Type (0, 1), BuildingBlock: MIFKUJ_clean_linker_0, # of connection points: 2
#     Edge 18, Type (0, 1), BuildingBlock: MIFKUJ_clean_linker_0, # of connection points: 2
#     Edge 19, Type (0, 1), BuildingBlock: MIFKUJ_clean_linker_0, # of connection points: 2
#     Edge 20, Type (0, 1), BuildingBlock: MIFKUJ_clean_linker_0, # of connection points: 2
#     Edge 21, Type (0, 1), BuildingBlock: MIFKUJ_clean_linker_0, # of connection points: 2
#     Edge 22, Type (0, 1), BuildingBlock: MIFKUJ_clean_linker_0, # of connection points: 2
#     Edge 23, Type (0, 1), BuildingBlock: MIFKUJ_clean_linker_0, # of connection points: 2
#     Edge 24, Type (0, 1), BuildingBlock: MIFKUJ_clean_linker_0, # of connection points: 2
#     Edge 25, Type (0, 1), BuildingBlock: MIFKUJ_clean_linker_0, # of connection points: 2
#     Edge 26, Type (0, 1), BuildingBlock: MIFKUJ_clean_linker_0, # of connection points: 2
# Relax obj value: 0.114
# Max RMSD: 0.151
# Mean RMSD: 0.109
data_MOF--net-anh--node1-BETGAK_clean_sbu_0--node2-OLANEW_clean_sbu_2--edge1-MIFKUJ_clean_linker_0
_symmetry_space_group_name_H-M    P1
_symmetry_Int_Tables_number       1
_symmetry_cell_setting            triclinic
loop_
_symmetry_equiv_pos_as_xyz
'x, y, z'
_cell_length_a     46.097715
_cell_length_b     50.280131
_cell_length_c     65.599523
_cell_angle_alpha  91.923173
_cell_angle_beta   89.511184
_cell_angle_gamma 128.36764
loop_
_atom_site_label
_atom_site_type_symbol
_atom_site_fract_x
_atom_site_fract_y
_atom_site_fract_z
_atom_type_partial_charge
La0 La 0.03703 0.50651 0.1381 0.0
La1 La 1.00109 0.53555 0.1555 0.0
C2 C 0.07444 0.49491 0.11733 0.0
C3 C 0.11197 0.50579 0.12028 0.0
C4 C 0.12729 0.51303 0.14 0.0
C5 C 0.16235 0.52207 0.14295 0.0
C6 C 0.18318 0.52472 0.1262 0.0
C7 C 0.1681 0.51848 0.10639 0.0
C8 C 0.13266 0.50886 0.10349 0.0
C9 C 0.03372 0.50713 0.17826 0.0
C10 C 0.08571 0.58659 0.14853 0.0
C11 C 0.96495 0.54718 0.17763 0.0
C12 C 0.9255 0.52932 0.18108 0.0
C13 C 0.89882 0.50415 0.16709 0.0
C14 C 0.86126 0.4872 0.17051 0.0
C15 C 0.84977 0.49518 0.18801 0.0
C16 C 0.87676 0.52012 0.20212 0.0
C17 C 0.91431 0.53702 0.19867 0.0
C18 C 1.00619 0.53595 0.11541 0.0
C19 C 0.9523 0.45584 0.14512 0.0
O20 O 0.05053 0.47454 0.131 0.0
O21 O 0.0722 0.51891 0.11329 0.0
O22 O 0.03381 0.48522 0.16746 0.0
O23 O 0.03957 0.52939 0.16678 0.0
O24 O 0.08233 0.56183 0.13791 0.0
O25 O 0.05809 0.58074 0.15938 0.0
O26 O 0.97683 0.55939 0.15949 0.0
O27 O 0.9777 0.53172 0.18389 0.0
O28 O 1.00755 0.55871 0.12629 0.0
O29 O 0.99896 0.51295 0.12674 0.0
O30 O 0.95584 0.48065 0.15566 0.0
O31 O 0.97956 0.46149 0.13397 0.0
H32 H 0.11184 0.5111 0.15319 0.0
H33 H 0.17262 0.5261 0.15843 0.0
H34 H 0.18357 0.52093 0.09309 0.0
H35 H 0.12132 0.50359 0.08817 0.0
H36 H 0.9071 0.49794 0.15339 0.0
H37 H 0.84137 0.46859 0.15914 0.0
H38 H 0.8689 0.52654 0.2159 0.0
H39 H 0.93462 0.55613 0.20973 0.0
La40 La 0.53936 0.01136 0.4986 0.0
La41 La 0.49496 0.03459 0.48896 0.0
C42 C 0.56232 0.98173 0.51349 0.0
C43 C 0.55289 0.94765 0.51204 0.0
C44 C 0.57154 0.9412 0.49825 0.0
C45 C 0.56447 0.90985 0.49755 0.0
C46 C 0.53882 0.88421 0.51077 0.0
C47 C 0.51976 0.89047 0.52439 0.0
C48 C 0.52679 0.92187 0.52506 0.0
C49 C 0.54137 0.02622 0.46028 0.0
C50 C 0.4532 0.95697 0.4863 0.0
C51 C 0.4723 0.06493 0.47494 0.0
C52 C 0.4806 0.09808 0.47905 0.0
C53 C 0.48523 0.11105 0.4991 0.0
C54 C 0.49162 0.14186 0.50275 0.0
C55 C 0.49399 0.16053 0.48643 0.0
C56 C 0.49039 0.14797 0.46637 0.0
C57 C 0.48358 0.11693 0.46273 0.0
C58 C 0.49458 0.02069 0.52741 0.0
C59 C 0.58175 0.08918 0.49989 0.0
O60 O 0.57584 0.99975 0.49714 0.0
O61 O 0.53884 0.98444 0.52265 0.0
O62 O 0.56831 0.0301 0.46977 0.0
O63 O 0.51354 0.01148 0.47156 0.0
O64 O 0.48237 0.96328 0.49571 0.0
O65 O 0.45424 0.98179 0.47907 0.0
O66 O 0.45585 0.04309 0.48946 0.0
O67 O 0.49872 0.0657 0.46664 0.0
O68 O 0.46685 0.0159 0.51827 0.0
O69 O 0.52161 0.03526 0.51568 0.0
O70 O 0.55176 0.08258 0.49148 0.0
O71 O 0.58165 0.06474 0.50686 0.0
H72 H 0.59202 0.96056 0.48811 0.0
H73 H 0.57928 0.90576 0.48668 0.0
H74 H 0.50017 0.87146 0.53497 0.0
H75 H 0.51223 0.92611 0.53604 0.0
H76 H 0.48359 0.09725 0.51198 0.0
H77 H 0.49481 0.15117 0.51836 0.0
H78 H 0.49191 0.16172 0.4535 0.0
H79 H 0.48027 0.10745 0.44715 0.0
La80 La 0.57966 0.55989 0.8462 0.0
La81 La 0.52784 0.48646 0.85671 0.0
C82 C 0.60816 0.6154 0.82942 0.0
C83 C 0.59759 0.6374 0.82701 0.0
C84 C 0.573 0.63619 0.8405 0.0
C85 C 0.56429 0.65815 0.83843 0.0
C86 C 0.57988 0.68164 0.82274 0.0
C87 C 0.60375 0.68201 0.80897 0.0
C88 C 0.61261 0.66022 0.81117 0.0
C89 C 0.57578 0.54816 0.88517 0.0
C90 C 0.49334 0.52336 0.85437 0.0
C91 C 0.49775 0.42916 0.87146 0.0
C92 C 0.50257 0.40266 0.86922 0.0
C93 C 0.47736 0.37322 0.85713 0.0
C94 C 0.4817 0.34818 0.8545 0.0
C95 C 0.51114 0.35169 0.86411 0.0
C96 C 0.53617 0.38103 0.87643 0.0
C97 C 0.53194 0.40622 0.87897 0.0
C98 C 0.53265 0.49834 0.81756 0.0
C99 C 0.61526 0.52437 0.85155 0.0
O100 O 0.61619 0.61307 0.84803 0.0
O101 O 0.58741 0.58587 0.81966 0.0
O102 O 0.60552 0.57327 0.87656 0.0
O103 O 0.54931 0.53275 0.87253 0.0
O104 O 0.52454 0.54797 0.84546 0.0
O105 O 0.49042 0.49841 0.86309 0.0
O106 O 0.48509 0.43388 0.85537 0.0
O107 O 0.5243 0.45793 0.88073 0.0
O108 O 0.5028 0.47372 0.82624 0.0
O109 O 0.55889 0.51356 0.83034 0.0
O110 O 0.5827 0.49846 0.8586 0.0
O111 O 0.61959 0.55017 0.84305 0.0
H112 H 0.56099 0.61864 0.85284 0.0
H113 H 0.54609 0.65727 0.84943 0.0
H114 H 0.61569 0.69919 0.79646 0.0
H115 H 0.6315 0.66138 0.80059 0.0
H116 H 0.45433 0.36963 0.84952 0.0
H117 H 0.4622 0.32628 0.84464 0.0
H118 H 0.55886 0.38441 0.88431 0.0
H119 H 0.55172 0.42844 0.88855 0.0
O120 O 0.55434 0.05256 0.23148 0.0
Cd121 Cd 0.55861 0.05536 0.19429 0.0
O122 O 0.51017 0.9972 0.23262 0.0
Cd123 Cd 0.4975 0.98188 0.20032 0.0
O124 O 0.45274 0.93657 0.18273 0.0
C125 C 0.42231 0.91908 0.1922 0.0
O126 O 0.42093 0.93029 0.21028 0.0
C127 C 0.53287 0.02601 0.24169 0.0
C128 C 0.62032 0.11984 0.18277 0.0
O129 O 0.58878 0.11306 0.18534 0.0
O130 O 0.62264 0.09609 0.18549 0.0
O131 O 0.55466 0.52757 0.5884 0.0
Cd132 Cd 0.54549 0.52183 0.55135 0.0
O133 O 0.50311 0.52064 0.59356 0.0
Cd134 Cd 0.49792 0.53251 0.56269 0.0
O135 O 0.49325 0.56577 0.54485 0.0
C136 C 0.52249 0.59492 0.54048 0.0
O137 O 0.55476 0.60306 0.54538 0.0
C138 C 0.53041 0.52314 0.60051 0.0
C139 C 0.53697 0.46436 0.53668 0.0
O140 O 0.56847 0.49395 0.53623 0.0
O141 O 0.50949 0.46203 0.54375 0.0
O142 O 0.08999 0.53006 0.89624 0.0
Cd143 Cd 0.11965 0.5281 0.86471 0.0
O144 O 0.04746 0.53427 0.88542 0.0
Cd145 Cd 0.99964 0.53574 0.88745 0.0
O146 O 0.95387 0.53945 0.88301 0.0
C147 C 0.92133 0.51825 0.88998 0.0
O148 O 0.91408 0.49308 0.90057 0.0
C149 C 0.06408 0.5321 0.9 0.0
C150 C 0.18352 0.53128 0.86774 0.0
O151 O 0.1864 0.55786 0.8646 0.0
O152 O 0.15087 0.5035 0.87023 0.0
O153 O 0.04409 0.53967 0.40817 0.0
Cd154 Cd 0.04847 0.55079 0.44508 0.0
O155 O 0.9883 0.4899 0.40564 0.0
Cd156 Cd 0.97088 0.47859 0.43741 0.0
O157 O 0.92485 0.43962 0.45625 0.0
C158 C 0.92286 0.41438 0.46145 0.0
O159 O 0.95013 0.41365 0.45676 0.0
C160 C 0.01773 0.51465 0.39735 0.0
C161 C 0.11406 0.6159 0.45486 0.0
O162 O 0.11269 0.58969 0.45553 0.0
O163 O 0.0844 0.61131 0.44985 0.0
O164 O 0.50735 0.98027 0.75378 0.0
Cd165 Cd 0.51625 0.98096 0.79059 0.0
O166 O 0.55124 0.03528 0.75061 0.0
Cd167 Cd 0.55591 0.05094 0.78273 0.0
O168 O 0.55811 0.088 0.80281 0.0
C169 C 0.52851 0.08442 0.80545 0.0
O170 O 0.49747 0.05742 0.79733 0.0
C171 C 0.52761 0.00574 0.74259 0.0
C172 C 0.52475 0.93192 0.79945 0.0
O173 O 0.49286 0.92491 0.79991 0.0
O174 O 0.55263 0.96216 0.79509 0.0
O175 O 0.50039 0.46879 0.10556 0.0
Cd176 Cd 0.48153 0.45953 0.14135 0.0
O177 O 0.55828 0.51433 0.11058 0.0
Cd178 Cd 0.54475 0.52268 0.1407 0.0
O179 O 0.51052 0.53468 0.15385 0.0
C180 C 0.51148 0.55663 0.14412 0.0
O181 O 0.53446 0.57126 0.12888 0.0
C182 C 0.53264 0.49098 0.09867 0.0
C183 C 0.52173 0.44435 0.16231 0.0
O184 O 0.53133 0.47433 0.16298 0.0
O185 O 0.49221 0.42104 0.15229 0.0
H186 H 0.23628 0.5675 0.1555 0.0
H187 H 0.29367 0.57646 0.16251 0.0
H188 H 0.27169 0.51061 0.11084 0.0
H189 H 0.21294 0.49935 0.1047 0.0
H190 H 0.29415 0.49595 0.14064 0.0
H191 H 0.3371 0.60076 0.1107 0.0
H192 H 0.34292 0.65266 0.10767 0.0
H193 H 0.39195 0.68704 0.16767 0.0
H194 H 0.38602 0.63511 0.17116 0.0
H195 H 0.50005 0.5943 0.12192 0.0
H196 H 0.44707 0.59403 0.12332 0.0
H197 H 0.40619 0.53034 0.17543 0.0
H198 H 0.45874 0.5296 0.17372 0.0
H199 H 0.41542 0.61074 0.14836 0.0
H200 H 0.31324 0.47093 0.17033 0.0
H201 H 0.30803 0.41898 0.16905 0.0
H202 H 0.37873 0.4549 0.11703 0.0
H203 H 0.38394 0.50681 0.11786 0.0
C204 C 0.24338 0.55459 0.14573 0.0
C205 C 0.21974 0.53258 0.12953 0.0
C206 C 0.27654 0.56014 0.14961 0.0
C207 C 0.28725 0.54449 0.13709 0.0
C208 C 0.26404 0.52297 0.12074 0.0
C209 C 0.23061 0.51693 0.11706 0.0
C210 C 0.32218 0.54978 0.14116 0.0
C211 C 0.3206 0.52109 0.1424 0.0
C212 C 0.35682 0.58254 0.14341 0.0
C213 C 0.36076 0.61391 0.14127 0.0
C214 C 0.34891 0.61929 0.12329 0.0
C215 C 0.35226 0.64872 0.12149 0.0
C216 C 0.36769 0.67306 0.13749 0.0
C217 C 0.37995 0.66811 0.15531 0.0
C218 C 0.37663 0.63871 0.1572 0.0
C219 C 0.48014 0.58064 0.1339 0.0
C220 C 0.48322 0.56143 0.14748 0.0
C221 C 0.44992 0.58066 0.13474 0.0
C222 C 0.4223 0.56163 0.14922 0.0
C223 C 0.42684 0.54466 0.16386 0.0
C224 C 0.45692 0.54434 0.16291 0.0
C225 C 0.3873 0.55693 0.14754 0.0
C226 C 0.38884 0.58566 0.14685 0.0
C227 C 0.3527 0.52422 0.14517 0.0
C228 C 0.34932 0.49288 0.14433 0.0
C229 C 0.32757 0.46766 0.1586 0.0
C230 C 0.32463 0.43824 0.15795 0.0
C231 C 0.34315 0.4337 0.14302 0.0
C232 C 0.36451 0.4585 0.12864 0.0
C233 C 0.36748 0.48792 0.1292 0.0
H234 H 0.34088 0.41093 0.14256 0.0
H235 H 0.37021 0.69578 0.13607 0.0
H236 H 0.58927 0.14695 0.49496 0.0
H237 H 0.64666 0.20499 0.4932 0.0
H238 H 0.70972 0.16995 0.5048 0.0
H239 H 0.6523 0.11191 0.50722 0.0
H240 H 0.74156 0.22984 0.52366 0.0
H241 H 0.69461 0.18309 0.45581 0.0
H242 H 0.6473 0.15534 0.42828 0.0
H243 H 0.64256 0.23802 0.43102 0.0
H244 H 0.6895 0.26604 0.45877 0.0
H245 H 0.91089 0.35789 0.47574 0.0
H246 H 0.85252 0.30589 0.48684 0.0
H247 H 0.79842 0.35043 0.47817 0.0
H248 H 0.85676 0.40259 0.46696 0.0
H249 H 0.76088 0.28798 0.45944 0.0
H250 H 0.81325 0.33705 0.52574 0.0
H251 H 0.86107 0.36379 0.55294 0.0
H252 H 0.85707 0.27615 0.55246 0.0
H253 H 0.80957 0.24905 0.52504 0.0
C254 C 0.61532 0.15162 0.49738 0.0
C255 C 0.61623 0.12474 0.50103 0.0
C256 C 0.64815 0.18484 0.4963 0.0
C257 C 0.68259 0.19178 0.49842 0.0
C258 C 0.68351 0.16523 0.50304 0.0
C259 C 0.65064 0.13203 0.50438 0.0
C260 C 0.71756 0.22623 0.49467 0.0
C261 C 0.74592 0.24244 0.50955 0.0
C262 C 0.72306 0.24301 0.47641 0.0
C263 C 0.6953 0.2265 0.45949 0.0
C264 C 0.68333 0.19526 0.45061 0.0
C265 C 0.65659 0.17949 0.43497 0.0
C266 C 0.64187 0.19487 0.42794 0.0
C267 C 0.65395 0.22612 0.4365 0.0
C268 C 0.68064 0.24197 0.45217 0.0
C269 C 0.88673 0.35685 0.47645 0.0
C270 C 0.88851 0.3844 0.47039 0.0
C271 C 0.85337 0.32711 0.48289 0.0
C272 C 0.8211 0.32429 0.48342 0.0
C273 C 0.82299 0.35205 0.47788 0.0
C274 C 0.8564 0.3819 0.47155 0.0
C275 C 0.78499 0.29158 0.48839 0.0
C276 C 0.75643 0.27559 0.47366 0.0
C277 C 0.77952 0.27493 0.50669 0.0
C278 C 0.80806 0.29114 0.5232 0.0
C279 C 0.82278 0.32359 0.53131 0.0
C280 C 0.84979 0.33879 0.5468 0.0
C281 C 0.86216 0.32171 0.55439 0.0
C282 C 0.84748 0.28936 0.54655 0.0
C283 C 0.82048 0.27405 0.53105 0.0
H284 H 0.88307 0.33352 0.56638 0.0
H285 H 0.62115 0.18262 0.41584 0.0
H286 H 0.62815 0.7483 0.81243 0.0
H287 H 0.61611 0.78886 0.80973 0.0
H288 H 0.50316 0.71266 0.82765 0.0
H289 H 0.51448 0.67123 0.82942 0.0
H290 H 0.50575 0.74744 0.79704 0.0
H291 H 0.56874 0.77676 0.86133 0.0
H292 H 0.61849 0.79134 0.88488 0.0
H293 H 0.69767 0.88057 0.8515 0.0
H294 H 0.64848 0.86628 0.82758 0.0
H295 H 0.47227 0.86726 0.81223 0.0
H296 H 0.47946 0.82377 0.81789 0.0
H297 H 0.59403 0.89343 0.80082 0.0
H298 H 0.58729 0.93725 0.79564 0.0
H299 H 0.58749 0.86008 0.83305 0.0
H300 H 0.52495 0.82877 0.76768 0.0
H301 H 0.47522 0.81396 0.74402 0.0
H302 H 0.39502 0.72833 0.77966 0.0
H303 H 0.44426 0.74288 0.80368 0.0
C304 C 0.60056 0.7399 0.81554 0.0
C305 C 0.57229 0.70636 0.82112 0.0
C306 C 0.59385 0.76334 0.81426 0.0
C307 C 0.55889 0.75405 0.81883 0.0
C308 C 0.53044 0.72051 0.82418 0.0
C309 C 0.53706 0.69692 0.82536 0.0
C310 C 0.55214 0.77934 0.81777 0.0
C311 C 0.52325 0.77185 0.80519 0.0
C312 C 0.57534 0.81148 0.8281 0.0
C313 C 0.60495 0.8203 0.84257 0.0
C314 C 0.5968 0.79938 0.85893 0.0
C315 C 0.6249 0.8076 0.87236 0.0
C316 C 0.66123 0.83682 0.86967 0.0
C317 C 0.66952 0.85793 0.85357 0.0
C318 C 0.64153 0.8498 0.84008 0.0
C319 C 0.49903 0.87335 0.80973 0.0
C320 C 0.52918 0.90571 0.8034 0.0
C321 C 0.50306 0.84839 0.81288 0.0
C322 C 0.53716 0.8551 0.8095 0.0
C323 C 0.56743 0.88758 0.80351 0.0
C324 C 0.5635 0.91262 0.80051 0.0
C325 C 0.54145 0.82839 0.81209 0.0
C326 C 0.56986 0.83559 0.825 0.0
C327 C 0.51779 0.796 0.80208 0.0
C328 C 0.48823 0.78712 0.78758 0.0
C329 C 0.49668 0.80692 0.77054 0.0
C330 C 0.46858 0.79855 0.75706 0.0
C331 C 0.43197 0.77028 0.76037 0.0
C332 C 0.42339 0.75025 0.77714 0.0
C333 C 0.45137 0.75853 0.79068 0.0
H334 H 0.41026 0.76385 0.74992 0.0
H335 H 0.68294 0.84315 0.88008 0.0
H336 H 0.82042 0.52517 0.20277 0.0
H337 H 0.75554 0.50065 0.20466 0.0
H338 H 0.72376 0.4048 0.18074 0.0
H339 H 0.78905 0.42896 0.17933 0.0
H340 H 0.69325 0.42837 0.15926 0.0
H341 H 0.70069 0.40813 0.22822 0.0
H342 H 0.72772 0.42112 0.26284 0.0
H343 H 0.71759 0.50009 0.27121 0.0
H344 H 0.69104 0.48797 0.23652 0.0
H345 H 0.51562 0.38662 0.15838 0.0
H346 H 0.56163 0.3799 0.1687 0.0
H347 H 0.62865 0.48075 0.1965 0.0
H348 H 0.58284 0.48752 0.18648 0.0
H349 H 0.63197 0.4376 0.21852 0.0
H350 H 0.64216 0.46831 0.14769 0.0
H351 H 0.61901 0.45961 0.1124 0.0
H352 H 0.59921 0.36414 0.1074 0.0
H353 H 0.62183 0.37212 0.14279 0.0
C354 C 0.79975 0.49859 0.19847 0.0
C355 C 0.81005 0.47908 0.19087 0.0
C356 C 0.76258 0.4846 0.19954 0.0
C357 C 0.73485 0.45082 0.19302 0.0
C358 C 0.74481 0.4309 0.1859 0.0
C359 C 0.7821 0.44484 0.18497 0.0
C360 C 0.69605 0.43801 0.19171 0.0
C361 C 0.67927 0.4293 0.17232 0.0
C362 C 0.67823 0.43988 0.20871 0.0
C363 C 0.69394 0.44717 0.2297 0.0
C364 C 0.70442 0.42841 0.23739 0.0
C365 C 0.71964 0.43561 0.25704 0.0
C366 C 0.72439 0.46142 0.26921 0.0
C367 C 0.71386 0.48007 0.26177 0.0
C368 C 0.69866 0.473 0.24211 0.0
C369 C 0.53976 0.40705 0.16709 0.0
C370 C 0.54588 0.43779 0.17138 0.0
C371 C 0.56602 0.40318 0.17294 0.0
C372 C 0.59875 0.43001 0.18311 0.0
C373 C 0.60358 0.45973 0.18866 0.0
C374 C 0.57745 0.46364 0.1828 0.0
C375 C 0.62996 0.42913 0.186 0.0
C376 C 0.64534 0.43542 0.20562 0.0
C377 C 0.64677 0.42539 0.16919 0.0
C378 C 0.63316 0.42057 0.14795 0.0
C379 C 0.63257 0.44533 0.13912 0.0
C380 C 0.6196 0.44056 0.11909 0.0
C381 C 0.60752 0.41128 0.10769 0.0
C382 C 0.60848 0.38676 0.11627 0.0
C383 C 0.62135 0.39138 0.13631 0.0
H384 H 0.59752 0.40764 0.09218 0.0
H385 H 0.73619 0.46697 0.28442 0.0
H386 H 0.38794 0.93434 0.46813 0.0
H387 H 0.33131 0.87592 0.46395 0.0
H388 H 0.3841 0.84035 0.49353 0.0
H389 H 0.44115 0.89882 0.49763 0.0
H390 H 0.34457 0.80121 0.45976 0.0
H391 H 0.32332 0.84474 0.51921 0.0
H392 H 0.32041 0.88547 0.53914 0.0
H393 H 0.23797 0.86763 0.49764 0.0
H394 H 0.24078 0.82714 0.47728 0.0
H395 H 0.17836 0.63351 0.47156 0.0
H396 H 0.23625 0.69062 0.47821 0.0
H397 H 0.18712 0.73357 0.45426 0.0
H398 H 0.12883 0.6766 0.44825 0.0
H399 H 0.22596 0.76858 0.48675 0.0
H400 H 0.24892 0.72741 0.42637 0.0
H401 H 0.25229 0.68749 0.40574 0.0
H402 H 0.33158 0.70152 0.44815 0.0
H403 H 0.32833 0.7412 0.46917 0.0
C404 C 0.38764 0.91415 0.47372 0.0
C405 C 0.41913 0.92136 0.48328 0.0
C406 C 0.35512 0.88073 0.4714 0.0
C407 C 0.35327 0.85377 0.47866 0.0
C408 C 0.38485 0.86076 0.48786 0.0
C409 C 0.41743 0.89423 0.49022 0.0
C410 C 0.31834 0.81833 0.47664 0.0
C411 C 0.31872 0.79392 0.46592 0.0
C412 C 0.28446 0.80898 0.48431 0.0
C413 C 0.2825 0.83312 0.49662 0.0
C414 C 0.30476 0.84968 0.51425 0.0
C415 C 0.3031 0.8727 0.52564 0.0
C416 C 0.27908 0.87919 0.51964 0.0
C417 C 0.25659 0.8626 0.50226 0.0
C418 C 0.25818 0.83959 0.4908 0.0
C419 C 0.17987 0.65512 0.46776 0.0
C420 C 0.14901 0.65048 0.4593 0.0
C421 C 0.21308 0.6878 0.47146 0.0
C422 C 0.21637 0.71653 0.46642 0.0
C423 C 0.18538 0.71189 0.45826 0.0
C424 C 0.15205 0.67926 0.45479 0.0
C425 C 0.25198 0.75141 0.46963 0.0
C426 C 0.25178 0.77576 0.48062 0.0
C427 C 0.28599 0.76074 0.46211 0.0
C428 C 0.28808 0.73699 0.44945 0.0
C429 C 0.26687 0.72179 0.43137 0.0
C430 C 0.26879 0.69924 0.4196 0.0
C431 C 0.29206 0.6919 0.42566 0.0
C432 C 0.31353 0.70718 0.44349 0.0
C433 C 0.31168 0.72972 0.45533 0.0
H434 H 0.2935 0.67443 0.41653 0.0
H435 H 0.27784 0.89702 0.52847 0.0
H436 H 0.5757 0.35989 0.86 0.0
H437 H 0.58261 0.31591 0.85388 0.0
H438 H 0.46397 0.23907 0.8542 0.0
H439 H 0.4569 0.28263 0.86147 0.0
H440 H 0.49472 0.2174 0.87339 0.0
H441 H 0.5147 0.26965 0.80907 0.0
H442 H 0.54455 0.31724 0.78574 0.0
H443 H 0.64957 0.33975 0.79675 0.0
H444 H 0.62038 0.29253 0.82036 0.0
H445 H 0.46976 0.0828 0.81533 0.0
H446 H 0.47116 0.12939 0.82892 0.0
H447 H 0.5904 0.19482 0.83176 0.0
H448 H 0.58928 0.14826 0.81804 0.0
H449 H 0.56475 0.22449 0.81315 0.0
H450 H 0.54172 0.16731 0.8752 0.0
H451 H 0.50993 0.11839 0.89755 0.0
H452 H 0.40834 0.1036 0.88974 0.0
H453 H 0.4394 0.15216 0.8671 0.0
C454 C 0.55107 0.33361 0.85911 0.0
C455 C 0.51569 0.32493 0.86107 0.0
C456 C 0.55506 0.30847 0.85536 0.0
C457 C 0.52379 0.27415 0.8532 0.0
C458 C 0.48854 0.26536 0.85568 0.0
C459 C 0.48453 0.2904 0.85961 0.0
C460 C 0.5275 0.24736 0.84793 0.0
C461 C 0.50978 0.21885 0.86011 0.0
C462 C 0.54789 0.24951 0.83089 0.0
C463 C 0.56544 0.27781 0.81665 0.0
C464 C 0.5442 0.28491 0.80663 0.0
C465 C 0.56099 0.31179 0.79334 0.0
C466 C 0.59895 0.33157 0.78981 0.0
C467 C 0.62018 0.32445 0.79952 0.0
C468 C 0.60353 0.29762 0.81285 0.0
C469 C 0.49632 0.10696 0.81906 0.0
C470 C 0.52942 0.11178 0.81557 0.0
C471 C 0.49705 0.13357 0.8269 0.0
C472 C 0.53088 0.16556 0.83148 0.0
C473 C 0.56399 0.17033 0.82836 0.0
C474 C 0.56328 0.14364 0.8206 0.0
C475 C 0.53154 0.19438 0.83845 0.0
C476 C 0.55004 0.22324 0.82656 0.0
C477 C 0.51159 0.19239 0.85564 0.0
C478 C 0.49285 0.16324 0.86932 0.0
C479 C 0.51253 0.15348 0.87812 0.0
C480 C 0.49465 0.12584 0.89087 0.0
C481 C 0.45712 0.10786 0.89503 0.0
C482 C 0.43741 0.11753 0.88649 0.0
C483 C 0.45515 0.14514 0.87372 0.0
H484 H 0.44333 0.08646 0.9049 0.0
H485 H 0.6119 0.35237 0.77952 0.0
H486 H 0.59131 0.87506 0.50763 0.0
H487 H 0.58256 0.82207 0.50846 0.0
H488 H 0.46509 0.76654 0.51542 0.0
H489 H 0.47359 0.81966 0.51442 0.0
H490 H 0.49166 0.74691 0.54208 0.0
H491 H 0.49919 0.76171 0.47047 0.0
H492 H 0.52509 0.79209 0.43846 0.0
H493 H 0.62471 0.80459 0.44935 0.0
H494 H 0.59963 0.77471 0.4816 0.0
H495 H 0.46045 0.5898 0.53413 0.0
H496 H 0.45783 0.63507 0.52502 0.0
H497 H 0.57665 0.70408 0.52007 0.0
H498 H 0.57955 0.65899 0.52902 0.0
H499 H 0.54234 0.71262 0.48987 0.0
H500 H 0.53685 0.70351 0.56322 0.0
H501 H 0.51102 0.67346 0.59535 0.0
H502 H 0.40666 0.65014 0.5807 0.0
H503 H 0.43178 0.67969 0.54832 0.0
C504 C 0.56349 0.85156 0.50899 0.0
C505 C 0.53312 0.85164 0.51084 0.0
C506 C 0.55854 0.82124 0.50949 0.0
C507 C 0.5231 0.79024 0.51173 0.0
C508 C 0.49268 0.79016 0.51363 0.0
C509 C 0.49761 0.82055 0.51314 0.0
C510 C 0.5183 0.75826 0.51298 0.0
C511 C 0.50204 0.73903 0.53044 0.0
C512 C 0.53241 0.74826 0.49797 0.0
C513 C 0.54761 0.76618 0.47855 0.0
C514 C 0.52674 0.77116 0.46613 0.0
C515 C 0.54126 0.78826 0.44792 0.0
C516 C 0.57655 0.80032 0.44189 0.0
C517 C 0.59738 0.79525 0.45404 0.0
C518 C 0.583 0.77819 0.47228 0.0
C519 C 0.486 0.61446 0.53082 0.0
C520 C 0.52026 0.62086 0.5325 0.0
C521 C 0.48444 0.64034 0.52568 0.0
C522 C 0.51709 0.67307 0.52215 0.0
C523 C 0.55113 0.67904 0.52278 0.0
C524 C 0.55273 0.65323 0.52797 0.0
C525 C 0.5162 0.70168 0.51907 0.0
C526 C 0.53147 0.72027 0.50131 0.0
C527 C 0.50111 0.71109 0.53377 0.0
C528 C 0.48605 0.69345 0.55325 0.0
C529 C 0.50831 0.69173 0.56678 0.0
C530 C 0.49382 0.67484 0.58504 0.0
C531 C 0.45719 0.65981 0.59003 0.0
C532 C 0.43501 0.66173 0.57679 0.0
C533 C 0.44936 0.67856 0.55849 0.0
H534 H 0.44602 0.64674 0.60419 0.0
H535 H 0.58775 0.81354 0.42779 0.0
H536 H 0.61698 0.47707 0.8698 0.0
H537 H 0.67005 0.47835 0.87556 0.0
H538 H 0.74029 0.57275 0.84466 0.0
H539 H 0.68704 0.57164 0.83872 0.0
H540 H 0.75592 0.52946 0.83379 0.0
H541 H 0.74113 0.5723 0.89604 0.0
H542 H 0.70632 0.57108 0.92524 0.0
H543 H 0.6838 0.4794 0.94493 0.0
H544 H 0.71791 0.47971 0.91562 0.0
H545 H 0.92478 0.56585 0.86775 0.0
H546 H 0.87494 0.56917 0.86084 0.0
H547 H 0.79999 0.48009 0.89578 0.0
H548 H 0.84969 0.47706 0.90305 0.0
H549 H 0.7885 0.52389 0.90455 0.0
H550 H 0.79915 0.47838 0.84205 0.0
H551 H 0.83082 0.47672 0.81213 0.0
H552 H 0.85888 0.57074 0.79265 0.0
H553 H 0.82776 0.57318 0.82261 0.0
C554 C 0.6436 0.49811 0.86409 0.0
C555 C 0.64754 0.52436 0.85383 0.0
C556 C 0.67409 0.49885 0.8675 0.0
C557 C 0.70949 0.5259 0.86083 0.0
C558 C 0.71338 0.55165 0.85004 0.0
C559 C 0.68284 0.551 0.84668 0.0
C560 C 0.74232 0.52741 0.86545 0.0
C561 C 0.7634 0.52881 0.8493 0.0
C562 C 0.75178 0.52579 0.88564 0.0
C563 C 0.73184 0.52588 0.90352 0.0
C564 C 0.72856 0.55175 0.90652 0.0
C565 C 0.70896 0.55123 0.92309 0.0
C566 C 0.6928 0.52514 0.93691 0.0
C567 C 0.6963 0.49957 0.9342 0.0
C568 C 0.71579 0.49992 0.91762 0.0
C569 C 0.89772 0.54699 0.87401 0.0
C570 C 0.89141 0.52108 0.8859 0.0
C571 C 0.86907 0.5488 0.86994 0.0
C572 C 0.83325 0.52461 0.87752 0.0
C573 C 0.82716 0.4991 0.88968 0.0
C574 C 0.85574 0.49733 0.89378 0.0
C575 C 0.80207 0.52566 0.87286 0.0
C576 C 0.78124 0.52475 0.88904 0.0
C577 C 0.79269 0.5275 0.85268 0.0
C578 C 0.81151 0.52616 0.8347 0.0
C579 C 0.81235 0.49885 0.83148 0.0
C580 C 0.83014 0.49774 0.8145 0.0
C581 C 0.84695 0.52366 0.80053 0.0
C582 C 0.84591 0.55071 0.8035 0.0
C583 C 0.82818 0.55196 0.82047 0.0
H584 H 0.86071 0.52275 0.78739 0.0
H585 H 0.6776 0.52477 0.94973 0.0
H586 H 0.1072 0.63859 0.17533 0.0
H587 H 0.16628 0.69533 0.17738 0.0
H588 H 0.20537 0.67024 0.12603 0.0
H589 H 0.1462 0.61257 0.12426 0.0
H590 H 0.2584 0.70544 0.15411 0.0
H591 H 0.17971 0.72152 0.12073 0.0
H592 H 0.12344 0.71602 0.11479 0.0
H593 H 0.14168 0.76923 0.1718 0.0
H594 H 0.19779 0.77463 0.17823 0.0
H595 H 0.41632 0.88401 0.1572 0.0
H596 H 0.36135 0.82834 0.1444 0.0
H597 H 0.29911 0.82403 0.19544 0.0
H598 H 0.35334 0.8793 0.20815 0.0
H599 H 0.26042 0.80523 0.15987 0.0
H600 H 0.3334 0.77926 0.19476 0.0
H601 H 0.38974 0.78449 0.19996 0.0
H602 H 0.38306 0.75165 0.1377 0.0
H603 H 0.32657 0.74607 0.13219 0.0
C604 C 0.12822 0.64505 0.16438 0.0
C605 C 0.12184 0.62108 0.14952 0.0
C606 C 0.16203 0.67766 0.16551 0.0
C607 C 0.19007 0.68741 0.15156 0.0
C608 C 0.18407 0.6634 0.13687 0.0
C609 C 0.15023 0.63048 0.13586 0.0
C610 C 0.22564 0.72256 0.15279 0.0
C611 C 0.2589 0.72731 0.15493 0.0
C612 C 0.22648 0.75122 0.15388 0.0
C613 C 0.1929 0.74833 0.15 0.0
C614 C 0.17162 0.73189 0.13206 0.0
C615 C 0.13975 0.7288 0.1286 0.0
C616 C 0.12897 0.74223 0.14292 0.0
C617 C 0.15007 0.75884 0.16071 0.0
C618 C 0.18195 0.76197 0.16426 0.0
C619 C 0.39085 0.87123 0.16561 0.0
C620 C 0.38924 0.88609 0.18372 0.0
C621 C 0.35953 0.83937 0.15834 0.0
C622 C 0.32618 0.82193 0.16905 0.0
C623 C 0.3245 0.83702 0.18691 0.0
C624 C 0.35564 0.86865 0.19419 0.0
C625 C 0.29273 0.78784 0.16201 0.0
C626 C 0.25991 0.78336 0.15868 0.0
C627 C 0.2924 0.75957 0.15962 0.0
C628 C 0.32603 0.76255 0.16302 0.0
C629 C 0.34404 0.77326 0.18218 0.0
C630 C 0.37591 0.77617 0.18519 0.0
C631 C 0.38994 0.76835 0.16917 0.0
C632 C 0.37207 0.75752 0.15012 0.0
C633 C 0.34009 0.75441 0.14705 0.0
H634 H 0.41465 0.77067 0.17152 0.0
H635 H 0.10427 0.7398 0.14021 0.0
H636 H 0.54208 0.2213 0.46801 0.0
H637 H 0.55025 0.27393 0.47471 0.0
H638 H 0.46574 0.22442 0.52035 0.0
H639 H 0.45743 0.17184 0.51372 0.0
H640 H 0.45803 0.26205 0.49295 0.0
H641 H 0.55249 0.27594 0.53541 0.0
H642 H 0.60657 0.27797 0.54146 0.0
H643 H 0.67033 0.35937 0.50007 0.0
H644 H 0.61643 0.3575 0.49356 0.0
H645 H 0.48103 0.39855 0.54543 0.0
H646 H 0.47483 0.34814 0.53516 0.0
H647 H 0.57608 0.41012 0.50138 0.0
H648 H 0.58331 0.46092 0.5125 0.0
H649 H 0.57665 0.36691 0.52007 0.0
H650 H 0.48622 0.35637 0.47785 0.0
H651 H 0.43303 0.35462 0.4694 0.0
H652 H 0.36284 0.2681 0.50655 0.0
H653 H 0.41574 0.26959 0.51545 0.0
C654 C 0.52518 0.22166 0.47941 0.0
C655 C 0.49923 0.19252 0.49041 0.0
C656 C 0.52998 0.25173 0.48328 0.0
C657 C 0.5087 0.25307 0.49809 0.0
C658 C 0.48245 0.2239 0.50888 0.0
C659 C 0.47794 0.19399 0.50518 0.0
C660 C 0.51376 0.28487 0.50247 0.0
C661 C 0.48382 0.28494 0.49906 0.0
C662 C 0.54783 0.31498 0.50975 0.0
C663 C 0.58032 0.31634 0.51384 0.0
C664 C 0.57796 0.29409 0.52748 0.0
C665 C 0.60859 0.29524 0.53101 0.0
C666 C 0.64184 0.31871 0.52111 0.0
C667 C 0.64455 0.34116 0.5077 0.0
C668 C 0.61398 0.34009 0.5041 0.0
C669 C 0.50188 0.40143 0.53572 0.0
C670 C 0.53258 0.4337 0.52971 0.0
C671 C 0.4982 0.37252 0.52974 0.0
C672 C 0.52459 0.37508 0.51712 0.0
C673 C 0.55528 0.40736 0.51107 0.0
C674 C 0.55934 0.4364 0.51738 0.0
C675 C 0.52068 0.34422 0.51079 0.0
C676 C 0.55085 0.34424 0.51381 0.0
C677 C 0.48696 0.31431 0.50279 0.0
C678 C 0.45504 0.31328 0.49745 0.0
C679 C 0.45951 0.33712 0.48434 0.0
C680 C 0.4294 0.33614 0.47944 0.0
C681 C 0.3946 0.31131 0.48747 0.0
C682 C 0.38982 0.28734 0.50036 0.0
C683 C 0.41985 0.28821 0.50531 0.0
H684 H 0.37132 0.3106 0.48366 0.0
H685 H 0.66552 0.31955 0.52386 0.0
H686 H 0.48828 0.56972 0.83747 0.0
H687 H 0.43703 0.57225 0.83949 0.0
H688 H 0.37627 0.48365 0.87617 0.0
H689 H 0.4271 0.48056 0.87388 0.0
H690 H 0.33159 0.4789 0.8481 0.0
H691 H 0.42247 0.56726 0.8967 0.0
H692 H 0.48496 0.61909 0.90628 0.0
H693 H 0.47613 0.67456 0.86179 0.0
H694 H 0.41377 0.62293 0.85175 0.0
H695 H 0.18941 0.48405 0.88195 0.0
H696 H 0.24262 0.48438 0.88022 0.0
H697 H 0.30534 0.5801 0.85038 0.0
H698 H 0.2527 0.58063 0.85304 0.0
H699 H 0.35019 0.58247 0.87383 0.0
H700 H 0.2631 0.49889 0.82435 0.0
H701 H 0.20293 0.44835 0.8108 0.0
H702 H 0.20643 0.38578 0.852 0.0
H703 H 0.26643 0.43604 0.86598 0.0
C704 C 0.46407 0.55076 0.84601 0.0
C705 C 0.46206 0.52499 0.85558 0.0
C706 C 0.43473 0.55234 0.84723 0.0
C707 C 0.40273 0.52843 0.85824 0.0
C708 C 0.40054 0.50248 0.86761 0.0
C709 C 0.42978 0.5008 0.86633 0.0
C710 C 0.37141 0.53014 0.85993 0.0
C711 C 0.33561 0.5014 0.85402 0.0
C712 C 0.3766 0.55988 0.86686 0.0
C713 C 0.41356 0.59117 0.87338 0.0
C714 C 0.4339 0.59049 0.88892 0.0
C715 C 0.46931 0.61982 0.89442 0.0
C716 C 0.48455 0.65007 0.8846 0.0
C717 C 0.46432 0.6511 0.86935 0.0
C718 C 0.42892 0.62183 0.86378 0.0
C719 C 0.2146 0.50529 0.87512 0.0
C720 C 0.2166 0.53224 0.86756 0.0
C721 C 0.24507 0.50534 0.87397 0.0
C722 C 0.27812 0.53186 0.86468 0.0
C723 C 0.28038 0.5592 0.85756 0.0
C724 C 0.25012 0.55946 0.85906 0.0
C725 C 0.31002 0.53095 0.86228 0.0
C726 C 0.346 0.55987 0.86797 0.0
C727 C 0.30516 0.50159 0.85471 0.0
C728 C 0.26908 0.47129 0.84635 0.0
C729 C 0.25091 0.47439 0.83062 0.0
C730 C 0.21685 0.44579 0.82285 0.0
C731 C 0.20082 0.41389 0.83057 0.0
C732 C 0.21886 0.41051 0.84605 0.0
C733 C 0.2529 0.43904 0.8539 0.0
H734 H 0.17445 0.39177 0.82453 0.0
H735 H 0.51201 0.67273 0.88882 0.0
H736 H 0.88349 0.43785 0.15008 0.0
H737 H 0.8252 0.38087 0.15353 0.0
H738 H 0.88289 0.33882 0.14651 0.0
H739 H 0.94093 0.3958 0.14174 0.0
H740 H 0.82038 0.29836 0.12833 0.0
H741 H 0.85528 0.35266 0.19579 0.0
H742 H 0.87346 0.39826 0.22099 0.0
H743 H 0.77277 0.38323 0.20852 0.0
H744 H 0.75398 0.33742 0.18325 0.0
H745 H 0.69066 0.1418 0.17608 0.0
H746 H 0.74505 0.19873 0.16748 0.0
H747 H 0.67894 0.23255 0.16791 0.0
H748 H 0.62445 0.17573 0.17677 0.0
H749 H 0.74329 0.27714 0.18837 0.0
H750 H 0.70629 0.21854 0.12303 0.0
H751 H 0.68884 0.17265 0.09825 0.0
H752 H 0.79464 0.19576 0.10706 0.0
H753 H 0.81255 0.24152 0.13212 0.0
C754 C 0.88365 0.4164 0.1491 0.0
C755 C 0.91674 0.42122 0.14577 0.0
C756 C 0.85033 0.38381 0.15124 0.0
C757 C 0.84963 0.35544 0.1509 0.0
C758 C 0.88259 0.3602 0.14694 0.0
C759 C 0.91578 0.39277 0.14423 0.0
C760 C 0.81486 0.32096 0.15505 0.0
C761 C 0.80382 0.29371 0.14161 0.0
C762 C 0.79252 0.3148 0.17208 0.0
C763 C 0.80338 0.34182 0.18755 0.0
C764 C 0.83707 0.35915 0.19841 0.0
C765 C 0.84748 0.38503 0.2127 0.0
C766 C 0.82437 0.39378 0.21629 0.0
C767 C 0.79067 0.37647 0.2057 0.0
C768 C 0.78006 0.35046 0.19145 0.0
C769 C 0.68762 0.16129 0.17428 0.0
C770 C 0.65316 0.15417 0.17708 0.0
C771 C 0.71873 0.19382 0.16926 0.0
C772 C 0.71602 0.21986 0.16682 0.0
C773 C 0.68168 0.21285 0.16967 0.0
C774 C 0.65054 0.18032 0.17468 0.0
C775 C 0.7492 0.25459 0.16181 0.0
C776 C 0.75985 0.28185 0.17507 0.0
C777 C 0.77128 0.26068 0.14471 0.0
C778 C 0.76063 0.23327 0.12959 0.0
C779 C 0.72573 0.21367 0.1198 0.0
C780 C 0.71577 0.18771 0.10569 0.0
C781 C 0.74058 0.18124 0.10112 0.0
C782 C 0.77544 0.20078 0.11063 0.0
C783 C 0.78552 0.22676 0.12477 0.0
H784 H 0.73281 0.16113 0.09019 0.0
H785 H 0.8325 0.41389 0.22732 0.0
H786 H 1.00614 0.49059 0.0915 0.0
H787 H 0.01357 0.49092 0.05447 0.0
H788 H 0.01973 0.57987 0.05165 0.0
H789 H 1.01304 0.58008 0.08883 0.0
H790 H 0.9728 0.52687 0.02034 0.0
H791 H 0.0957 0.59308 0.04938 0.0
H792 H 0.14336 0.60344 0.07298 0.0
H793 H 0.13094 0.51772 0.0462 0.0
H794 H 0.08264 0.50644 0.02268 0.0
H795 H 0.04155 0.56629 0.9184 0.0
H796 H 0.02944 0.56785 0.9547 0.0
H797 H 0.05074 0.49728 0.96621 0.0
H798 H 0.0642 0.49678 0.93022 0.0
H799 H 0.08431 0.54431 0.99364 0.0
H800 H 0.96041 0.47569 0.96564 0.0
H801 H 0.91064 0.46254 0.94265 0.0
H802 H 0.92237 0.54892 0.96748 0.0
H803 H 0.97256 0.56285 0.99045 0.0
C804 C 1.0091 0.51022 0.08299 0.0
C805 C 1.00936 0.53549 0.09302 0.0
C806 C 1.01322 0.51032 0.06186 0.0
C807 C 0.01728 0.53548 0.05036 0.0
C808 C 0.01652 0.5602 0.06026 0.0
C809 C 1.01289 0.56038 0.08147 0.0
C810 C 0.02399 0.53671 0.02814 0.0
C811 C 0.99736 0.53111 0.01442 0.0
C812 C 0.05572 0.54161 0.02053 0.0
C813 C 0.08532 0.54875 0.03437 0.0
C814 C 0.10293 0.57629 0.04861 0.0
C815 C 0.13008 0.58234 0.06197 0.0
C816 C 0.14015 0.56124 0.0611 0.0
C817 C 0.12311 0.53405 0.04685 0.0
C818 C 0.09585 0.52782 0.03349 0.0
C819 C 0.043 0.5507 0.92865 0.0
C820 C 0.05351 0.5312 0.92147 0.0
C821 C 0.03611 0.55161 0.94942 0.0
C822 C 0.03877 0.5324 0.96329 0.0
C823 C 0.04863 0.51246 0.95594 0.0
C824 C 0.05618 0.51208 0.93533 0.0
C825 C 0.03271 0.53378 0.98554 0.0
C826 C 0.05964 0.54005 0.99939 0.0
C827 C 1.00102 0.5291 0.99322 0.0
C828 C 0.97051 0.52051 0.97962 0.0
C829 C 0.95253 0.492 0.96611 0.0
C830 C 0.92422 0.48439 0.9531 0.0
C831 C 0.91343 0.50494 0.95356 0.0
C832 C 0.93081 0.53306 0.96711 0.0
C833 C 0.95916 0.5408 0.98015 0.0
H834 H 0.89155 0.49904 0.94345 0.0
H835 H 0.1612 0.56599 0.07144 0.0
H836 H 0.48436 0.01281 0.43705 0.0
H837 H 0.48286 0.01632 0.39986 0.0
H838 H 0.59586 0.05336 0.39686 0.0
H839 H 0.59759 0.05009 0.43389 0.0
H840 H 0.52687 0.06956 0.3721 0.0
H841 H 0.59881 0.00952 0.35674 0.0
H842 H 0.60688 0.971 0.37316 0.0
H843 H 0.50403 0.92378 0.40416 0.0
H844 H 0.49508 0.96164 0.3877 0.0
H845 H 0.5771 0.08278 0.26696 0.0
H846 H 0.57806 0.08553 0.30434 0.0
H847 H 0.4914 0.97727 0.30488 0.0
H848 H 0.49052 0.97418 0.26774 0.0
H849 H 0.54491 0.99611 0.33119 0.0
H850 H 0.47334 0.03269 0.31506 0.0
H851 H 0.46092 0.06833 0.29885 0.0
H852 H 0.55439 0.15678 0.33065 0.0
H853 H 0.56767 0.12172 0.34685 0.0
C854 C 0.50896 0.02206 0.42844 0.0
C855 C 0.54096 0.03084 0.43825 0.0
C856 C 0.50813 0.02418 0.40726 0.0
C857 C 0.53914 0.03479 0.39565 0.0
C858 C 0.57155 0.04483 0.40556 0.0
C859 C 0.57247 0.04291 0.42668 0.0
C860 C 0.537 0.03319 0.37308 0.0
C861 C 0.53088 0.05359 0.36311 0.0
C862 C 0.54171 0.01197 0.36143 0.0
C863 C 0.54651 0.98867 0.37115 0.0
C864 C 0.57786 0.99082 0.367 0.0
C865 C 0.58259 0.96911 0.37632 0.0
C866 C 0.55605 0.94504 0.38975 0.0
C867 C 0.52464 0.94252 0.39382 0.0
C868 C 0.51975 0.96413 0.38452 0.0
C869 C 0.55823 0.05957 0.27504 0.0
C870 C 0.53377 0.02826 0.26432 0.0
C871 C 0.5587 0.06122 0.2964 0.0
C872 C 0.53461 0.03163 0.3074 0.0
C873 C 0.51027 1.00041 0.29672 0.0
C874 C 0.50978 0.99873 0.27544 0.0
C875 C 0.53516 0.03278 0.33004 0.0
C876 C 0.54106 0.01226 0.34009 0.0
C877 C 0.52968 0.05352 0.3417 0.0
C878 C 0.52171 0.07463 0.332 0.0
C879 C 0.49142 0.05978 0.31847 0.0
C880 C 0.48419 0.07987 0.3093 0.0
C881 C 0.50691 0.11481 0.31367 0.0
C882 C 0.53685 0.12972 0.32725 0.0
C883 C 0.54422 0.10975 0.33644 0.0
H884 H 0.50126 0.13031 0.30656 0.0
H885 H 0.55979 0.92829 0.39696 0.0
H886 H 0.59579 0.53917 0.79544 0.0
H887 H 0.60004 0.54577 0.75837 0.0
H888 H 0.4808 0.47763 0.75327 0.0
H889 H 0.47657 0.47035 0.79005 0.0
H890 H 0.50766 0.46068 0.72563 0.0
H891 H 0.5343 0.56521 0.74927 0.0
H892 H 0.56715 0.61993 0.7685 0.0
H893 H 0.66784 0.6568 0.73784 0.0
H894 H 0.63576 0.60207 0.71869 0.0
H895 H 0.47639 0.49775 0.62887 0.0
H896 H 0.48201 0.49546 0.66565 0.0
H897 H 0.5978 0.54272 0.65946 0.0
H898 H 0.59234 0.54465 0.62242 0.0
H899 H 0.57847 0.57133 0.69206 0.0
H900 H 0.54797 0.46544 0.66716 0.0
H901 H 0.5117 0.41141 0.64703 0.0
H902 H 0.41404 0.37785 0.67998 0.0
H903 H 0.44963 0.43192 0.70012 0.0
C904 C 0.57057 0.52581 0.78635 0.0
C905 C 0.53585 0.50417 0.79552 0.0
C906 C 0.573 0.52967 0.76522 0.0
C907 C 0.54072 0.51231 0.75301 0.0
C908 C 0.50609 0.49114 0.76231 0.0
C909 C 0.50368 0.48706 0.78334 0.0
C910 C 0.54261 0.51505 0.73048 0.0
C911 C 0.52293 0.48493 0.71836 0.0
C912 C 0.56322 0.54667 0.72089 0.0
C913 C 0.58271 0.57937 0.7327 0.0
C914 C 0.56354 0.58484 0.74679 0.0
C915 C 0.58201 0.61589 0.75765 0.0
C916 C 0.61955 0.64181 0.75439 0.0
C917 C 0.63876 0.63669 0.74035 0.0
C918 C 0.62046 0.60565 0.7295 0.0
C919 C 0.50307 0.50762 0.63528 0.0
C920 C 0.53392 0.5213 0.62273 0.0
C921 C 0.5062 0.50626 0.65629 0.0
C922 C 0.54029 0.51888 0.6652 0.0
C923 C 0.57128 0.53289 0.65281 0.0
C924 C 0.56805 0.53378 0.63168 0.0
C925 C 0.5431 0.51704 0.68748 0.0
C926 C 0.56361 0.54722 0.69947 0.0
C927 C 0.52285 0.48551 0.69702 0.0
C928 C 0.50142 0.45286 0.68503 0.0
C929 C 0.5187 0.44666 0.67 0.0
C930 C 0.49827 0.416 0.65861 0.0
C931 C 0.46057 0.39124 0.66219 0.0
C932 C 0.44324 0.39706 0.67721 0.0
C933 C 0.46354 0.4277 0.68863 0.0
H934 H 0.4448 0.36752 0.65336 0.0
H935 H 0.63375 0.66593 0.76267 0.0
H936 H 0.43666 0.98333 0.5531 0.0
H937 H 0.43914 0.97437 0.58931 0.0
H938 H 0.55815 0.03602 0.58669 0.0
H939 H 0.55553 0.04381 0.55033 0.0
H940 H 0.53404 0.98523 0.60927 0.0
H941 H 0.51235 0.0667 0.60646 0.0
H942 H 0.48034 0.08935 0.5962 0.0
H943 H 0.38131 0.00738 0.62509 0.0
H944 H 0.41262 0.98398 0.6353 0.0
H945 H 0.57882 0.04612 0.71406 0.0
H946 H 0.56981 0.0415 0.67699 0.0
H947 H 0.45645 0.95239 0.68337 0.0
H948 H 0.4655 0.95622 0.7205 0.0
H949 H 0.4736 0.01206 0.65943 0.0
H950 H 0.50126 0.93446 0.66441 0.0
H951 H 0.53803 0.91706 0.67553 0.0
H952 H 0.63192 0.99884 0.64333 0.0
H953 H 0.59585 0.01707 0.63227 0.0
C954 C 0.46329 0.99481 0.56029 0.0
C955 C 0.49592 0.01448 0.54904 0.0
C956 C 0.46472 0.98982 0.58098 0.0
C957 C 0.49891 0.00504 0.59087 0.0
C958 C 0.53145 0.02405 0.57945 0.0
C959 C 0.52996 0.02862 0.5587 0.0
C960 C 0.50097 1.00186 0.61318 0.0
C961 C 0.52101 0.99135 0.6202 0.0
C962 C 0.48359 0.00938 0.62754 0.0
C963 C 0.46469 0.02338 0.62143 0.0
C964 C 0.48366 0.05336 0.61048 0.0
C965 C 0.46566 0.06636 0.6047 0.0
C966 C 0.42878 0.04976 0.60994 0.0
C967 C 0.40986 0.02017 0.62101 0.0
C968 C 0.42772 0.00704 0.62681 0.0
C969 C 0.55208 0.02533 0.70756 0.0
C970 C 0.52284 1.00153 0.72016 0.0
C971 C 0.54703 0.0227 0.68641 0.0
C972 C 0.51251 0.99661 0.67754 0.0
C973 C 0.48331 0.97263 0.69001 0.0
C974 C 0.48857 0.97479 0.71116 0.0
C975 C 0.50668 0.99562 0.65532 0.0
C976 C 0.48614 0.00555 0.64839 0.0
C977 C 0.52421 0.98826 0.6411 0.0
C978 C 0.54595 0.97734 0.6477 0.0
C979 C 0.52986 0.94896 0.65988 0.0
C980 C 0.55055 0.93889 0.66613 0.0
C981 C 0.58732 0.95689 0.66019 0.0
C982 C 0.60344 0.98495 0.64794 0.0
C983 C 0.58287 0.99514 0.64166 0.0
H984 H 0.60329 0.94905 0.66504 0.0
H985 H 0.4149 0.05986 0.60545 0.0
H986 H 0.5137 0.49891 0.90506 0.0
H987 H 0.50843 0.48531 0.94098 0.0
H988 H 0.62582 0.56464 0.94977 0.0
H989 H 0.63137 0.57777 0.9136 0.0
H990 H 0.6024 0.50863 0.9702 0.0
H991 H 0.56551 0.57854 0.9636 0.0
H992 H 0.53026 0.59539 0.94888 0.0
H993 H 0.42847 0.50197 0.96715 0.0
H994 H 0.4631 0.48433 0.98172 0.0
H995 H 0.59825 0.53302 0.07868 0.0
H996 H 0.60719 0.5381 0.04178 0.0
H997 H 0.49118 0.45536 0.03171 0.0
H998 H 0.48192 0.45003 0.06848 0.0
H999 H 0.51472 0.51263 0.01185 0.0
H1000 H 0.5536 0.44468 0.0204 0.0
H1001 H 0.59021 0.42916 0.03492 0.0
H1002 H 0.6901 0.52088 0.01336 0.0
H1003 H 0.65417 0.53729 0.99903 0.0
C1004 C 0.53841 0.51328 0.91463 0.0
C1005 C 0.57289 0.53955 0.90668 0.0
C1006 C 0.53536 0.50556 0.93513 0.0
C1007 C 0.56665 0.52432 0.9481 0.0
C1008 C 0.60134 0.54995 0.94003 0.0
C1009 C 0.60443 0.55756 0.91945 0.0
C1010 C 0.56277 0.51807 0.97022 0.0
C1011 C 0.58358 0.50989 0.97941 0.0
C1012 C 0.53778 0.51924 0.98208 0.0
C1013 C 0.51688 0.52998 0.97358 0.0
C1014 C 0.53559 0.56149 0.96436 0.0
C1015 C 0.51573 0.57119 0.95606 0.0
C1016 C 0.47714 0.54972 0.95703 0.0
C1017 C 0.45835 0.51856 0.96638 0.0
C1018 C 0.47809 0.5087 0.97468 0.0
C1019 C 0.57474 0.51553 0.06862 0.0
C1020 C 0.5393 0.49129 0.07653 0.0
C1021 C 0.57995 0.5184 0.04754 0.0
C1022 C 0.54982 0.49711 0.03405 0.0
C1023 C 0.51476 0.47205 0.0419 0.0
C1024 C 0.50956 0.46902 0.06293 0.0
C1025 C 0.5541 0.50288 0.01188 0.0
C1026 C 0.53346 0.51121 0.00268 0.0
C1027 C 0.57949 0.50214 1.00012 0.0
C1028 C 0.6012 0.49243 0.00886 0.0
C1029 C 0.58341 0.46175 0.01896 0.0
C1030 C 0.60404 0.45275 0.02711 0.0
C1031 C 0.64247 0.47407 0.02512 0.0
C1032 C 0.66034 0.50442 0.01493 0.0
C1033 C 0.63985 0.51358 0.00679 0.0
H1034 H 0.65838 0.46704 0.03143 0.0
H1035 H 0.46181 0.55727 0.95057 0.0
H1036 H 0.02522 0.46191 0.20428 0.0
H1037 H 0.02399 0.46414 0.24161 0.0
H1038 H 0.04006 0.55822 0.24027 0.0
H1039 H 0.0421 0.55646 0.20291 0.0
H1040 H 0.0765 0.51246 0.26995 0.0
H1041 H 0.98318 0.55285 0.28037 0.0
H1042 H 0.93245 0.54707 0.26264 0.0
H1043 H 0.90415 0.45874 0.22935 0.0
H1044 H 0.95366 0.46307 0.2474 0.0
H1045 H 0.0773 0.56093 0.37395 0.0
H1046 H 0.08135 0.5603 0.33672 0.0
H1047 H 0.9693 0.46713 0.33257 0.0
H1048 H 0.96486 0.46759 0.36963 0.0
H1049 H 0.98061 0.5117 0.30556 0.0
H1050 H 0.04082 0.4658 0.32602 0.0
H1051 H 0.08641 0.46522 0.34494 0.0
H1052 H 0.17523 0.55632 0.3163 0.0
H1053 H 0.13013 0.55769 0.2974 0.0
C1054 C 0.02862 0.48311 0.21196 0.0
C1055 C 0.03336 0.50883 0.20074 0.0
C1056 C 0.02802 0.48441 0.23326 0.0
C1057 C 0.0317 0.51122 0.24367 0.0
C1058 C 0.03682 0.53714 0.23249 0.0
C1059 C 0.03784 0.53605 0.21118 0.0
C1060 C 0.0296 0.51169 0.26623 0.0
C1061 C 0.05567 0.51249 0.27775 0.0
C1062 C 1.00206 0.51122 0.27636 0.0
C1063 C 0.97252 0.50858 0.26509 0.0
C1064 C 0.96607 0.53211 0.26931 0.0
C1065 C 0.9374 0.52899 0.25927 0.0
C1066 C 0.91498 0.50241 0.24498 0.0
C1067 C 0.92139 0.47913 0.24053 0.0
C1068 C 0.94978 0.48193 0.25065 0.0
C1069 C 0.05355 0.54028 0.36513 0.0
C1070 C 0.02078 0.5143 0.37482 0.0
C1071 C 0.05594 0.5399 0.34385 0.0
C1072 C 0.02567 0.51356 0.33188 0.0
C1073 C 0.99295 0.48772 0.3415 0.0
C1074 C 0.99057 0.488 0.36273 0.0
C1075 C 0.02778 0.51291 0.3093 0.0
C1076 C 1.00172 0.51208 0.29777 0.0
C1077 C 0.05496 0.51285 0.29916 0.0
C1078 C 0.08211 0.51204 0.31046 0.0
C1079 C 0.07008 0.48587 0.32388 0.0
C1080 C 0.09583 0.48536 0.33458 0.0
C1081 C 0.13369 0.51077 0.33187 0.0
C1082 C 0.14589 0.53669 0.31841 0.0
C1083 C 0.12025 0.53733 0.30769 0.0
H1084 H 0.15359 0.51034 0.34016 0.0
H1085 H 0.89246 0.49969 0.23747 0.0
loop_
_geom_bond_atom_site_label_1
_geom_bond_atom_site_label_2
_geom_bond_distance
_geom_bond_site_symmetry_2
_ccdc_geom_bond_type
La0 C2 2.928 . S
La0 O20 2.521 . S
La0 O21 2.628 . S
La0 O22 2.554 . S
La0 O23 2.757 . S
La0 O24 2.470 . S
La0 O29 2.482 . S
La0 O31 2.503 1_455 S
La1 C11 2.928 . S
La1 O23 2.482 1_655 S
La1 O25 2.503 1_655 S
La1 O26 2.521 . S
La1 O27 2.628 . S
La1 O28 2.553 1_655 S
La1 O29 2.757 1_655 S
La1 O30 2.470 . S
C2 La0 2.928 . S
C2 C3 1.503 . S
C2 O20 1.261 . S
C2 O21 1.243 . S
C3 C2 1.503 . S
C3 C4 1.394 . S
C3 C8 1.373 . S
C4 C3 1.394 . S
C4 C5 1.380 . S
C4 H32 0.930 . S
C5 C4 1.380 . S
C5 C6 1.376 . S
C5 H33 0.930 . S
C6 C5 1.376 . S
C6 C7 1.370 . S
C7 C6 1.370 . S
C7 C8 1.396 . S
C7 H34 0.929 . S
C8 C3 1.373 . S
C8 C7 1.396 . S
C8 H35 0.929 . S
C9 O22 1.240 . S
C9 O23 1.289 . S
C10 O24 1.258 . S
C10 O25 1.256 . S
C11 La1 2.928 . S
C11 C12 1.503 . S
C11 O26 1.261 . S
C11 O27 1.243 . S
C12 C11 1.503 . S
C12 C13 1.394 . S
C12 C17 1.373 . S
C13 C12 1.394 . S
C13 C14 1.380 . S
C13 H36 0.930 . S
C14 C13 1.380 . S
C14 C15 1.376 . S
C14 H37 0.930 . S
C15 C14 1.376 . S
C15 C16 1.370 . S
C16 C15 1.370 . S
C16 C17 1.396 . S
C16 H38 0.929 . S
C17 C12 1.373 . S
C17 C16 1.396 . S
C17 H39 0.929 . S
C18 O28 1.244 . S
C18 O29 1.289 . S
C19 O30 1.258 . S
C19 O31 1.256 . S
O20 La0 2.521 . S
O20 C2 1.261 . S
O21 La0 2.628 . S
O21 C2 1.243 . S
O22 La0 2.554 . S
O22 C9 1.240 . S
O23 La0 2.757 . S
O23 La1 2.482 1_455 S
O23 C9 1.289 . S
O24 La0 2.470 . S
O24 C10 1.258 . S
O25 La1 2.503 1_455 S
O25 C10 1.256 . S
O26 La1 2.521 . S
O26 C11 1.261 . S
O27 La1 2.628 . S
O27 C11 1.243 . S
O28 La1 2.553 1_455 S
O28 C18 1.244 . S
O29 La0 2.482 . S
O29 La1 2.757 1_455 S
O29 C18 1.289 . S
O30 La1 2.470 . S
O30 C19 1.258 . S
O31 La0 2.503 1_655 S
O31 C19 1.256 . S
H32 C4 0.930 . S
H33 C5 0.930 . S
H34 C7 0.929 . S
H35 C8 0.929 . S
H36 C13 0.930 . S
H37 C14 0.930 . S
H38 C16 0.929 . S
H39 C17 0.929 . S
La40 C42 2.928 . S
La40 O60 2.521 . S
La40 O61 2.628 . S
La40 O62 2.554 . S
La40 O63 2.757 1_565 S
La40 O64 2.470 . S
La40 O69 2.482 1_565 S
La40 O71 2.503 1_565 S
La41 C51 2.928 . S
La41 O63 2.482 . S
La41 O65 2.503 1_545 S
La41 O66 2.521 . S
La41 O67 2.628 . S
La41 O68 2.554 . S
La41 O69 2.757 . S
La41 O70 2.470 . S
C42 La40 2.928 . S
C42 C43 1.503 . S
C42 O60 1.261 . S
C42 O61 1.243 . S
C43 C42 1.503 . S
C43 C44 1.394 . S
C43 C48 1.373 . S
C44 C43 1.394 . S
C44 C45 1.380 . S
C44 H72 0.930 . S
C45 C44 1.380 . S
C45 C46 1.376 . S
C45 H73 0.930 . S
C46 C45 1.376 . S
C46 C47 1.370 . S
C47 C46 1.370 . S
C47 C48 1.396 . S
C47 H74 0.929 . S
C48 C43 1.373 . S
C48 C47 1.396 . S
C48 H75 0.929 . S
C49 O62 1.240 1_545 S
C49 O63 1.289 . S
C50 O64 1.258 . S
C50 O65 1.256 . S
C51 La41 2.928 . S
C51 C52 1.503 . S
C51 O66 1.261 . S
C51 O67 1.243 . S
C52 C51 1.503 . S
C52 C53 1.394 . S
C52 C57 1.373 . S
C53 C52 1.394 . S
C53 C54 1.380 . S
C53 H76 0.930 . S
C54 C53 1.380 . S
C54 C55 1.376 . S
C54 H77 0.930 . S
C55 C54 1.376 . S
C55 C56 1.370 . S
C56 C55 1.370 . S
C56 C57 1.396 . S
C56 H78 0.929 . S
C57 C52 1.373 . S
C57 C56 1.396 . S
C57 H79 0.929 . S
C58 O68 1.240 . S
C58 O69 1.289 . S
C59 O70 1.258 . S
C59 O71 1.256 . S
O60 La40 2.521 . S
O60 C42 1.261 . S
O61 La40 2.628 . S
O61 C42 1.243 . S
O62 La40 2.554 . S
O62 C49 1.240 1_565 S
O63 La40 2.757 1_545 S
O63 La41 2.482 . S
O63 C49 1.289 . S
O64 La40 2.470 . S
O64 C50 1.258 . S
O65 La41 2.503 1_565 S
O65 C50 1.256 . S
O66 La41 2.521 . S
O66 C51 1.261 . S
O67 La41 2.628 . S
O67 C51 1.243 . S
O68 La41 2.554 . S
O68 C58 1.240 . S
O69 La40 2.482 1_545 S
O69 La41 2.757 . S
O69 C58 1.289 . S
O70 La41 2.470 . S
O70 C59 1.258 . S
O71 La40 2.503 1_545 S
O71 C59 1.256 . S
H72 C44 0.930 . S
H73 C45 0.930 . S
H74 C47 0.929 . S
H75 C48 0.929 . S
H76 C53 0.930 . S
H77 C54 0.930 . S
H78 C56 0.929 . S
H79 C57 0.929 . S
La80 C82 2.928 . S
La80 O100 2.521 . S
La80 O101 2.628 . S
La80 O102 2.554 . S
La80 O103 2.757 . S
La80 O104 2.470 . S
La80 O109 2.482 . S
La80 O111 2.503 . S
La81 C91 2.928 . S
La81 O103 2.482 . S
La81 O105 2.503 . S
La81 O106 2.521 . S
La81 O107 2.628 . S
La81 O108 2.554 . S
La81 O109 2.757 . S
La81 O110 2.470 . S
C82 La80 2.928 . S
C82 C83 1.503 . S
C82 O100 1.261 . S
C82 O101 1.243 . S
C83 C82 1.503 . S
C83 C84 1.394 . S
C83 C88 1.373 . S
C84 C83 1.394 . S
C84 C85 1.380 . S
C84 H112 0.930 . S
C85 C84 1.380 . S
C85 C86 1.376 . S
C85 H113 0.930 . S
C86 C85 1.376 . S
C86 C87 1.370 . S
C87 C86 1.370 . S
C87 C88 1.396 . S
C87 H114 0.929 . S
C88 C83 1.373 . S
C88 C87 1.396 . S
C88 H115 0.929 . S
C89 O102 1.240 . S
C89 O103 1.289 . S
C90 O104 1.258 . S
C90 O105 1.256 . S
C91 La81 2.928 . S
C91 C92 1.503 . S
C91 O106 1.261 . S
C91 O107 1.243 . S
C92 C91 1.503 . S
C92 C93 1.394 . S
C92 C97 1.373 . S
C93 C92 1.394 . S
C93 C94 1.380 . S
C93 H116 0.930 . S
C94 C93 1.380 . S
C94 C95 1.376 . S
C94 H117 0.930 . S
C95 C94 1.376 . S
C95 C96 1.370 . S
C96 C95 1.370 . S
C96 C97 1.396 . S
C96 H118 0.929 . S
C97 C92 1.373 . S
C97 C96 1.396 . S
C97 H119 0.929 . S
C98 O108 1.240 . S
C98 O109 1.289 . S
C99 O110 1.258 . S
C99 O111 1.256 . S
O100 La80 2.521 . S
O100 C82 1.261 . S
O101 La80 2.628 . S
O101 C82 1.243 . S
O102 La80 2.554 . S
O102 C89 1.240 . S
O103 La80 2.757 . S
O103 La81 2.482 . S
O103 C89 1.289 . S
O104 La80 2.470 . S
O104 C90 1.258 . S
O105 La81 2.503 . S
O105 C90 1.256 . S
O106 La81 2.521 . S
O106 C91 1.261 . S
O107 La81 2.628 . S
O107 C91 1.243 . S
O108 La81 2.554 . S
O108 C98 1.240 . S
O109 La80 2.482 . S
O109 La81 2.757 . S
O109 C98 1.289 . S
O110 La81 2.470 . S
O110 C99 1.258 . S
O111 La80 2.503 . S
O111 C99 1.256 . S
H112 C84 0.930 . S
H113 C85 0.930 . S
H114 C87 0.929 . S
H115 C88 0.929 . S
H116 C93 0.930 . S
H117 C94 0.930 . S
H118 C96 0.929 . S
H119 C97 0.929 . S
O120 Cd121 2.300 . S
O120 C127 1.275 . S
Cd121 O120 2.300 . S
Cd121 O129 2.381 . S
Cd121 O130 2.378 . S
O122 Cd123 2.385 . S
O122 C127 1.255 1_565 S
Cd123 O122 2.385 . S
Cd123 O124 2.317 . S
O124 Cd123 2.317 . S
O124 C125 1.232 . S
C125 O124 1.232 . S
C125 O126 1.218 . S
O126 C125 1.218 . S
C127 O120 1.275 . S
C127 O122 1.255 1_545 S
C128 O129 1.258 . S
C128 O130 1.256 . S
O129 Cd121 2.381 . S
O129 C128 1.258 . S
O130 Cd121 2.378 . S
O130 C128 1.256 . S
O131 Cd132 2.300 . S
O131 C138 1.275 . S
Cd132 O131 2.300 . S
Cd132 O140 2.381 . S
Cd132 O141 2.378 . S
O133 Cd134 2.385 . S
O133 C138 1.255 . S
Cd134 O133 2.385 . S
Cd134 O135 2.317 . S
O135 Cd134 2.317 . S
O135 C136 1.232 . S
C136 O135 1.232 . S
C136 O137 1.218 . S
O137 C136 1.218 . S
C138 O131 1.275 . S
C138 O133 1.255 . S
C139 O140 1.258 . S
C139 O141 1.256 . S
O140 Cd132 2.381 . S
O140 C139 1.258 . S
O141 Cd132 2.378 . S
O141 C139 1.256 . S
O142 Cd143 2.300 . S
O142 C149 1.275 . S
Cd143 O142 2.300 . S
Cd143 O151 2.381 . S
Cd143 O152 2.378 . S
O144 Cd145 2.385 1_455 S
O144 C149 1.255 . S
Cd145 O144 2.385 1_655 S
Cd145 O146 2.317 . S
O146 Cd145 2.317 . S
O146 C147 1.232 . S
C147 O146 1.232 . S
C147 O148 1.218 . S
O148 C147 1.218 . S
C149 O142 1.275 . S
C149 O144 1.255 . S
C150 O151 1.258 . S
C150 O152 1.256 . S
O151 Cd143 2.381 . S
O151 C150 1.258 . S
O152 Cd143 2.378 . S
O152 C150 1.256 . S
O153 Cd154 2.300 . S
O153 C160 1.275 1_455 S
Cd154 O153 2.300 . S
Cd154 O162 2.381 . S
Cd154 O163 2.378 . S
O155 Cd156 2.385 . S
O155 C160 1.255 . S
Cd156 O155 2.385 . S
Cd156 O157 2.317 . S
O157 Cd156 2.317 . S
O157 C158 1.232 . S
C158 O157 1.232 . S
C158 O159 1.218 . S
O159 C158 1.218 . S
C160 O153 1.275 1_655 S
C160 O155 1.255 . S
C161 O162 1.258 . S
C161 O163 1.256 . S
O162 Cd154 2.381 . S
O162 C161 1.258 . S
O163 Cd154 2.378 . S
O163 C161 1.256 . S
O164 Cd165 2.300 . S
O164 C171 1.275 1_565 S
Cd165 O164 2.300 . S
Cd165 O173 2.381 . S
Cd165 O174 2.378 . S
O166 Cd167 2.385 . S
O166 C171 1.255 . S
Cd167 O166 2.385 . S
Cd167 O168 2.317 . S
O168 Cd167 2.317 . S
O168 C169 1.232 . S
C169 O168 1.232 . S
C169 O170 1.218 . S
O170 C169 1.218 . S
C171 O164 1.275 1_545 S
C171 O166 1.255 . S
C172 O173 1.258 . S
C172 O174 1.256 . S
O173 Cd165 2.381 . S
O173 C172 1.258 . S
O174 Cd165 2.378 . S
O174 C172 1.256 . S
O175 Cd176 2.300 . S
O175 C182 1.275 . S
Cd176 O175 2.300 . S
Cd176 O184 2.381 . S
Cd176 O185 2.378 . S
O177 Cd178 2.385 . S
O177 C182 1.255 . S
Cd178 O177 2.385 . S
Cd178 O179 2.317 . S
O179 Cd178 2.317 . S
O179 C180 1.232 . S
C180 O179 1.232 . S
C180 O181 1.218 . S
O181 C180 1.218 . S
C182 O175 1.275 . S
C182 O177 1.255 . S
C183 O184 1.258 . S
C183 O185 1.256 . S
O184 Cd176 2.381 . S
O184 C183 1.258 . S
O185 Cd176 2.378 . S
O185 C183 1.256 . S
H186 C204 0.951 . S
H187 C206 0.951 . S
H188 C208 0.950 . S
H189 C209 0.950 . S
H190 C211 0.950 . S
H191 C214 0.950 . S
H192 C215 0.950 . S
H193 C217 0.950 . S
H194 C218 0.950 . S
H195 C219 0.951 . S
H196 C221 0.951 . S
H197 C223 0.950 . S
H198 C224 0.950 . S
H199 C226 0.950 . S
H200 C229 0.950 . S
H201 C230 0.950 . S
H202 C232 0.950 . S
H203 C233 0.950 . S
C204 H186 0.951 . S
C204 C205 1.366 . S
C204 C206 1.388 . S
C205 C204 1.366 . S
C205 C209 1.385 . S
C206 H187 0.951 . S
C206 C204 1.388 . S
C206 C207 1.366 . S
C207 C206 1.366 . S
C207 C208 1.414 . S
C207 C210 1.499 . S
C208 H188 0.950 . S
C208 C207 1.414 . S
C208 C209 1.374 . S
C209 H189 0.950 . S
C209 C205 1.385 . S
C209 C208 1.374 . S
C210 C207 1.499 . S
C210 C211 1.373 . S
C210 C212 1.389 . S
C211 H190 0.950 . S
C211 C210 1.373 . S
C211 C227 1.377 . S
C212 C210 1.389 . S
C212 C213 1.524 . S
C212 C226 1.377 . S
C213 C212 1.524 . S
C213 C214 1.397 . S
C213 C218 1.363 . S
C214 H191 0.950 . S
C214 C213 1.397 . S
C214 C215 1.334 . S
C215 H192 0.950 . S
C215 C214 1.334 . S
C215 C216 1.287 . S
C216 C215 1.287 . S
C216 C217 1.524 . S
C216 H235 0.913 . S
C217 H193 0.950 . S
C217 C216 1.524 . S
C217 C218 1.415 . S
C218 H194 0.950 . S
C218 C213 1.363 . S
C218 C217 1.415 . S
C219 H195 0.951 . S
C219 C220 1.366 . S
C219 C221 1.388 . S
C220 C219 1.366 . S
C220 C224 1.385 . S
C221 H196 0.951 . S
C221 C219 1.388 . S
C221 C222 1.366 . S
C222 C221 1.366 . S
C222 C223 1.414 . S
C222 C225 1.499 . S
C223 H197 0.950 . S
C223 C222 1.414 . S
C223 C224 1.374 . S
C224 H198 0.950 . S
C224 C220 1.385 . S
C224 C223 1.374 . S
C225 C222 1.499 . S
C225 C226 1.373 . S
C225 C227 1.389 . S
C226 H199 0.950 . S
C226 C212 1.377 . S
C226 C225 1.373 . S
C227 C211 1.377 . S
C227 C225 1.389 . S
C227 C228 1.524 . S
C228 C227 1.524 . S
C228 C229 1.397 . S
C228 C233 1.363 . S
C229 H200 0.950 . S
C229 C228 1.397 . S
C229 C230 1.334 . S
C230 H201 0.950 . S
C230 C229 1.334 . S
C230 C231 1.287 . S
C231 C230 1.287 . S
C231 C232 1.524 . S
C231 H234 0.999 . S
C232 H202 0.950 . S
C232 C231 1.524 . S
C232 C233 1.415 . S
C233 H203 0.950 . S
C233 C228 1.363 . S
C233 C232 1.415 . S
H234 C231 0.999 . S
H235 C216 0.913 . S
H236 C254 0.951 . S
H237 C256 0.951 . S
H238 C258 0.950 . S
H239 C259 0.950 . S
H240 C261 0.950 . S
H241 C264 0.950 . S
H242 C265 0.950 . S
H243 C267 0.950 . S
H244 C268 0.950 . S
H245 C269 0.951 . S
H246 C271 0.951 . S
H247 C273 0.950 . S
H248 C274 0.950 . S
H249 C276 0.950 . S
H250 C279 0.950 . S
H251 C280 0.950 . S
H252 C282 0.950 . S
H253 C283 0.950 . S
C254 H236 0.951 . S
C254 C255 1.366 . S
C254 C256 1.388 . S
C255 C254 1.366 . S
C255 C259 1.385 . S
C256 H237 0.951 . S
C256 C254 1.388 . S
C256 C257 1.366 . S
C257 C256 1.366 . S
C257 C258 1.414 . S
C257 C260 1.499 . S
C258 H238 0.950 . S
C258 C257 1.414 . S
C258 C259 1.374 . S
C259 H239 0.950 . S
C259 C255 1.385 . S
C259 C258 1.374 . S
C260 C257 1.499 . S
C260 C261 1.373 . S
C260 C262 1.389 . S
C261 H240 0.950 . S
C261 C260 1.373 . S
C261 C277 1.377 . S
C262 C260 1.389 . S
C262 C263 1.524 . S
C262 C276 1.377 . S
C263 C262 1.524 . S
C263 C264 1.397 . S
C263 C268 1.363 . S
C264 H241 0.950 . S
C264 C263 1.397 . S
C264 C265 1.334 . S
C265 H242 0.950 . S
C265 C264 1.334 . S
C265 C266 1.287 . S
C266 C265 1.287 . S
C266 C267 1.524 . S
C266 H285 0.913 . S
C267 H243 0.950 . S
C267 C266 1.524 . S
C267 C268 1.415 . S
C268 H244 0.950 . S
C268 C263 1.363 . S
C268 C267 1.415 . S
C269 H245 0.951 . S
C269 C270 1.366 . S
C269 C271 1.388 . S
C270 C269 1.366 . S
C270 C274 1.385 . S
C271 H246 0.951 . S
C271 C269 1.388 . S
C271 C272 1.366 . S
C272 C271 1.366 . S
C272 C273 1.414 . S
C272 C275 1.499 . S
C273 H247 0.950 . S
C273 C272 1.414 . S
C273 C274 1.374 . S
C274 H248 0.950 . S
C274 C270 1.385 . S
C274 C273 1.374 . S
C275 C272 1.499 . S
C275 C276 1.373 . S
C275 C277 1.389 . S
C276 H249 0.950 . S
C276 C262 1.377 . S
C276 C275 1.373 . S
C277 C261 1.377 . S
C277 C275 1.389 . S
C277 C278 1.524 . S
C278 C277 1.524 . S
C278 C279 1.397 . S
C278 C283 1.363 . S
C279 H250 0.950 . S
C279 C278 1.397 . S
C279 C280 1.334 . S
C280 H251 0.950 . S
C280 C279 1.334 . S
C280 C281 1.287 . S
C281 C280 1.287 . S
C281 C282 1.524 . S
C281 H284 0.999 . S
C282 H252 0.950 . S
C282 C281 1.524 . S
C282 C283 1.415 . S
C283 H253 0.950 . S
C283 C278 1.363 . S
C283 C282 1.415 . S
H284 C281 0.999 . S
H285 C266 0.913 . S
H286 C304 0.951 . S
H287 C306 0.951 . S
H288 C308 0.950 . S
H289 C309 0.950 . S
H290 C311 0.950 . S
H291 C314 0.950 . S
H292 C315 0.950 . S
H293 C317 0.950 . S
H294 C318 0.950 . S
H295 C319 0.951 . S
H296 C321 0.951 . S
H297 C323 0.950 . S
H298 C324 0.950 . S
H299 C326 0.950 . S
H300 C329 0.950 . S
H301 C330 0.950 . S
H302 C332 0.950 . S
H303 C333 0.950 . S
C304 H286 0.951 . S
C304 C305 1.366 . S
C304 C306 1.388 . S
C305 C304 1.366 . S
C305 C309 1.385 . S
C306 H287 0.951 . S
C306 C304 1.388 . S
C306 C307 1.366 . S
C307 C306 1.366 . S
C307 C308 1.414 . S
C307 C310 1.499 . S
C308 H288 0.950 . S
C308 C307 1.414 . S
C308 C309 1.374 . S
C309 H289 0.950 . S
C309 C305 1.385 . S
C309 C308 1.374 . S
C310 C307 1.499 . S
C310 C311 1.373 . S
C310 C312 1.389 . S
C311 H290 0.950 . S
C311 C310 1.373 . S
C311 C327 1.377 . S
C312 C310 1.389 . S
C312 C313 1.524 . S
C312 C326 1.377 . S
C313 C312 1.524 . S
C313 C314 1.397 . S
C313 C318 1.363 . S
C314 H291 0.950 . S
C314 C313 1.397 . S
C314 C315 1.334 . S
C315 H292 0.950 . S
C315 C314 1.334 . S
C315 C316 1.287 . S
C316 C315 1.287 . S
C316 C317 1.524 . S
C316 H335 0.913 . S
C317 H293 0.950 . S
C317 C316 1.524 . S
C317 C318 1.415 . S
C318 H294 0.950 . S
C318 C313 1.363 . S
C318 C317 1.415 . S
C319 H295 0.951 . S
C319 C320 1.366 . S
C319 C321 1.388 . S
C320 C319 1.366 . S
C320 C324 1.385 . S
C321 H296 0.951 . S
C321 C319 1.388 . S
C321 C322 1.366 . S
C322 C321 1.366 . S
C322 C323 1.414 . S
C322 C325 1.499 . S
C323 H297 0.950 . S
C323 C322 1.414 . S
C323 C324 1.374 . S
C324 H298 0.950 . S
C324 C320 1.385 . S
C324 C323 1.374 . S
C325 C322 1.499 . S
C325 C326 1.373 . S
C325 C327 1.389 . S
C326 H299 0.950 . S
C326 C312 1.377 . S
C326 C325 1.373 . S
C327 C311 1.377 . S
C327 C325 1.389 . S
C327 C328 1.524 . S
C328 C327 1.524 . S
C328 C329 1.397 . S
C328 C333 1.363 . S
C329 H300 0.950 . S
C329 C328 1.397 . S
C329 C330 1.334 . S
C330 H301 0.950 . S
C330 C329 1.334 . S
C330 C331 1.287 . S
C331 C330 1.287 . S
C331 C332 1.524 . S
C331 H334 0.999 . S
C332 H302 0.950 . S
C332 C331 1.524 . S
C332 C333 1.415 . S
C333 H303 0.950 . S
C333 C328 1.363 . S
C333 C332 1.415 . S
H334 C331 0.999 . S
H335 C316 0.913 . S
H336 C354 0.951 . S
H337 C356 0.951 . S
H338 C358 0.950 . S
H339 C359 0.950 . S
H340 C361 0.950 . S
H341 C364 0.950 . S
H342 C365 0.950 . S
H343 C367 0.950 . S
H344 C368 0.950 . S
H345 C369 0.951 . S
H346 C371 0.951 . S
H347 C373 0.950 . S
H348 C374 0.950 . S
H349 C376 0.950 . S
H350 C379 0.950 . S
H351 C380 0.950 . S
H352 C382 0.950 . S
H353 C383 0.950 . S
C354 H336 0.951 . S
C354 C355 1.366 . S
C354 C356 1.388 . S
C355 C354 1.366 . S
C355 C359 1.385 . S
C356 H337 0.951 . S
C356 C354 1.388 . S
C356 C357 1.366 . S
C357 C356 1.366 . S
C357 C358 1.414 . S
C357 C360 1.499 . S
C358 H338 0.950 . S
C358 C357 1.414 . S
C358 C359 1.374 . S
C359 H339 0.950 . S
C359 C355 1.385 . S
C359 C358 1.374 . S
C360 C357 1.499 . S
C360 C361 1.373 . S
C360 C362 1.389 . S
C361 H340 0.950 . S
C361 C360 1.373 . S
C361 C377 1.377 . S
C362 C360 1.389 . S
C362 C363 1.524 . S
C362 C376 1.377 . S
C363 C362 1.524 . S
C363 C364 1.397 . S
C363 C368 1.363 . S
C364 H341 0.950 . S
C364 C363 1.397 . S
C364 C365 1.334 . S
C365 H342 0.950 . S
C365 C364 1.334 . S
C365 C366 1.287 . S
C366 C365 1.287 . S
C366 C367 1.524 . S
C366 H385 0.913 . S
C367 H343 0.950 . S
C367 C366 1.524 . S
C367 C368 1.415 . S
C368 H344 0.950 . S
C368 C363 1.363 . S
C368 C367 1.415 . S
C369 H345 0.951 . S
C369 C370 1.366 . S
C369 C371 1.388 . S
C370 C369 1.366 . S
C370 C374 1.385 . S
C371 H346 0.951 . S
C371 C369 1.388 . S
C371 C372 1.366 . S
C372 C371 1.366 . S
C372 C373 1.414 . S
C372 C375 1.499 . S
C373 H347 0.950 . S
C373 C372 1.414 . S
C373 C374 1.374 . S
C374 H348 0.950 . S
C374 C370 1.385 . S
C374 C373 1.374 . S
C375 C372 1.499 . S
C375 C376 1.373 . S
C375 C377 1.389 . S
C376 H349 0.950 . S
C376 C362 1.377 . S
C376 C375 1.373 . S
C377 C361 1.377 . S
C377 C375 1.389 . S
C377 C378 1.524 . S
C378 C377 1.524 . S
C378 C379 1.397 . S
C378 C383 1.363 . S
C379 H350 0.950 . S
C379 C378 1.397 . S
C379 C380 1.334 . S
C380 H351 0.950 . S
C380 C379 1.334 . S
C380 C381 1.287 . S
C381 C380 1.287 . S
C381 C382 1.524 . S
C381 H384 0.999 . S
C382 H352 0.950 . S
C382 C381 1.524 . S
C382 C383 1.415 . S
C383 H353 0.950 . S
C383 C378 1.363 . S
C383 C382 1.415 . S
H384 C381 0.999 . S
H385 C366 0.913 . S
H386 C404 0.951 . S
H387 C406 0.951 . S
H388 C408 0.950 . S
H389 C409 0.950 . S
H390 C411 0.950 . S
H391 C414 0.950 . S
H392 C415 0.950 . S
H393 C417 0.950 . S
H394 C418 0.950 . S
H395 C419 0.951 . S
H396 C421 0.951 . S
H397 C423 0.950 . S
H398 C424 0.950 . S
H399 C426 0.950 . S
H400 C429 0.950 . S
H401 C430 0.950 . S
H402 C432 0.950 . S
H403 C433 0.950 . S
C404 H386 0.951 . S
C404 C405 1.366 . S
C404 C406 1.388 . S
C405 C404 1.366 . S
C405 C409 1.385 . S
C406 H387 0.951 . S
C406 C404 1.388 . S
C406 C407 1.366 . S
C407 C406 1.366 . S
C407 C408 1.414 . S
C407 C410 1.499 . S
C408 H388 0.950 . S
C408 C407 1.414 . S
C408 C409 1.374 . S
C409 H389 0.950 . S
C409 C405 1.385 . S
C409 C408 1.374 . S
C410 C407 1.499 . S
C410 C411 1.373 . S
C410 C412 1.389 . S
C411 H390 0.950 . S
C411 C410 1.373 . S
C411 C427 1.377 . S
C412 C410 1.389 . S
C412 C413 1.524 . S
C412 C426 1.377 . S
C413 C412 1.524 . S
C413 C414 1.397 . S
C413 C418 1.363 . S
C414 H391 0.950 . S
C414 C413 1.397 . S
C414 C415 1.334 . S
C415 H392 0.950 . S
C415 C414 1.334 . S
C415 C416 1.287 . S
C416 C415 1.287 . S
C416 C417 1.524 . S
C416 H435 0.913 . S
C417 H393 0.950 . S
C417 C416 1.524 . S
C417 C418 1.415 . S
C418 H394 0.950 . S
C418 C413 1.363 . S
C418 C417 1.415 . S
C419 H395 0.951 . S
C419 C420 1.366 . S
C419 C421 1.388 . S
C420 C419 1.366 . S
C420 C424 1.385 . S
C421 H396 0.951 . S
C421 C419 1.388 . S
C421 C422 1.366 . S
C422 C421 1.366 . S
C422 C423 1.414 . S
C422 C425 1.499 . S
C423 H397 0.950 . S
C423 C422 1.414 . S
C423 C424 1.374 . S
C424 H398 0.950 . S
C424 C420 1.385 . S
C424 C423 1.374 . S
C425 C422 1.499 . S
C425 C426 1.373 . S
C425 C427 1.389 . S
C426 H399 0.950 . S
C426 C412 1.377 . S
C426 C425 1.373 . S
C427 C411 1.377 . S
C427 C425 1.389 . S
C427 C428 1.524 . S
C428 C427 1.524 . S
C428 C429 1.397 . S
C428 C433 1.363 . S
C429 H400 0.950 . S
C429 C428 1.397 . S
C429 C430 1.334 . S
C430 H401 0.950 . S
C430 C429 1.334 . S
C430 C431 1.287 . S
C431 C430 1.287 . S
C431 C432 1.524 . S
C431 H434 0.999 . S
C432 H402 0.950 . S
C432 C431 1.524 . S
C432 C433 1.415 . S
C433 H403 0.950 . S
C433 C428 1.363 . S
C433 C432 1.415 . S
H434 C431 0.999 . S
H435 C416 0.913 . S
H436 C454 0.951 . S
H437 C456 0.951 . S
H438 C458 0.950 . S
H439 C459 0.950 . S
H440 C461 0.950 . S
H441 C464 0.950 . S
H442 C465 0.950 . S
H443 C467 0.950 . S
H444 C468 0.950 . S
H445 C469 0.951 . S
H446 C471 0.951 . S
H447 C473 0.950 . S
H448 C474 0.950 . S
H449 C476 0.950 . S
H450 C479 0.950 . S
H451 C480 0.950 . S
H452 C482 0.950 . S
H453 C483 0.950 . S
C454 H436 0.951 . S
C454 C455 1.366 . S
C454 C456 1.388 . S
C455 C454 1.366 . S
C455 C459 1.385 . S
C456 H437 0.951 . S
C456 C454 1.388 . S
C456 C457 1.366 . S
C457 C456 1.366 . S
C457 C458 1.414 . S
C457 C460 1.499 . S
C458 H438 0.950 . S
C458 C457 1.414 . S
C458 C459 1.374 . S
C459 H439 0.950 . S
C459 C455 1.385 . S
C459 C458 1.374 . S
C460 C457 1.499 . S
C460 C461 1.373 . S
C460 C462 1.389 . S
C461 H440 0.950 . S
C461 C460 1.373 . S
C461 C477 1.377 . S
C462 C460 1.389 . S
C462 C463 1.524 . S
C462 C476 1.377 . S
C463 C462 1.524 . S
C463 C464 1.397 . S
C463 C468 1.363 . S
C464 H441 0.950 . S
C464 C463 1.397 . S
C464 C465 1.334 . S
C465 H442 0.950 . S
C465 C464 1.334 . S
C465 C466 1.287 . S
C466 C465 1.287 . S
C466 C467 1.524 . S
C466 H485 0.913 . S
C467 H443 0.950 . S
C467 C466 1.524 . S
C467 C468 1.415 . S
C468 H444 0.950 . S
C468 C463 1.363 . S
C468 C467 1.415 . S
C469 H445 0.951 . S
C469 C470 1.366 . S
C469 C471 1.388 . S
C470 C469 1.366 . S
C470 C474 1.385 . S
C471 H446 0.951 . S
C471 C469 1.388 . S
C471 C472 1.366 . S
C472 C471 1.366 . S
C472 C473 1.414 . S
C472 C475 1.499 . S
C473 H447 0.950 . S
C473 C472 1.414 . S
C473 C474 1.374 . S
C474 H448 0.950 . S
C474 C470 1.385 . S
C474 C473 1.374 . S
C475 C472 1.499 . S
C475 C476 1.373 . S
C475 C477 1.389 . S
C476 H449 0.950 . S
C476 C462 1.377 . S
C476 C475 1.373 . S
C477 C461 1.377 . S
C477 C475 1.389 . S
C477 C478 1.524 . S
C478 C477 1.524 . S
C478 C479 1.397 . S
C478 C483 1.363 . S
C479 H450 0.950 . S
C479 C478 1.397 . S
C479 C480 1.334 . S
C480 H451 0.950 . S
C480 C479 1.334 . S
C480 C481 1.287 . S
C481 C480 1.287 . S
C481 C482 1.524 . S
C481 H484 0.999 . S
C482 H452 0.950 . S
C482 C481 1.524 . S
C482 C483 1.415 . S
C483 H453 0.950 . S
C483 C478 1.363 . S
C483 C482 1.415 . S
H484 C481 0.999 . S
H485 C466 0.913 . S
H486 C504 0.951 . S
H487 C506 0.951 . S
H488 C508 0.950 . S
H489 C509 0.950 . S
H490 C511 0.950 . S
H491 C514 0.950 . S
H492 C515 0.950 . S
H493 C517 0.950 . S
H494 C518 0.950 . S
H495 C519 0.951 . S
H496 C521 0.951 . S
H497 C523 0.950 . S
H498 C524 0.950 . S
H499 C526 0.950 . S
H500 C529 0.950 . S
H501 C530 0.950 . S
H502 C532 0.950 . S
H503 C533 0.950 . S
C504 H486 0.951 . S
C504 C505 1.366 . S
C504 C506 1.388 . S
C505 C504 1.366 . S
C505 C509 1.385 . S
C506 H487 0.951 . S
C506 C504 1.388 . S
C506 C507 1.366 . S
C507 C506 1.366 . S
C507 C508 1.414 . S
C507 C510 1.499 . S
C508 H488 0.950 . S
C508 C507 1.414 . S
C508 C509 1.374 . S
C509 H489 0.950 . S
C509 C505 1.385 . S
C509 C508 1.374 . S
C510 C507 1.499 . S
C510 C511 1.373 . S
C510 C512 1.389 . S
C511 H490 0.950 . S
C511 C510 1.373 . S
C511 C527 1.377 . S
C512 C510 1.389 . S
C512 C513 1.524 . S
C512 C526 1.377 . S
C513 C512 1.524 . S
C513 C514 1.397 . S
C513 C518 1.363 . S
C514 H491 0.950 . S
C514 C513 1.397 . S
C514 C515 1.334 . S
C515 H492 0.950 . S
C515 C514 1.334 . S
C515 C516 1.287 . S
C516 C515 1.287 . S
C516 C517 1.524 . S
C516 H535 0.913 . S
C517 H493 0.950 . S
C517 C516 1.524 . S
C517 C518 1.415 . S
C518 H494 0.950 . S
C518 C513 1.363 . S
C518 C517 1.415 . S
C519 H495 0.951 . S
C519 C520 1.366 . S
C519 C521 1.388 . S
C520 C519 1.366 . S
C520 C524 1.385 . S
C521 H496 0.951 . S
C521 C519 1.388 . S
C521 C522 1.366 . S
C522 C521 1.366 . S
C522 C523 1.414 . S
C522 C525 1.499 . S
C523 H497 0.950 . S
C523 C522 1.414 . S
C523 C524 1.374 . S
C524 H498 0.950 . S
C524 C520 1.385 . S
C524 C523 1.374 . S
C525 C522 1.499 . S
C525 C526 1.373 . S
C525 C527 1.389 . S
C526 H499 0.950 . S
C526 C512 1.377 . S
C526 C525 1.373 . S
C527 C511 1.377 . S
C527 C525 1.389 . S
C527 C528 1.524 . S
C528 C527 1.524 . S
C528 C529 1.397 . S
C528 C533 1.363 . S
C529 H500 0.950 . S
C529 C528 1.397 . S
C529 C530 1.334 . S
C530 H501 0.950 . S
C530 C529 1.334 . S
C530 C531 1.287 . S
C531 C530 1.287 . S
C531 C532 1.524 . S
C531 H534 0.999 . S
C532 H502 0.950 . S
C532 C531 1.524 . S
C532 C533 1.415 . S
C533 H503 0.950 . S
C533 C528 1.363 . S
C533 C532 1.415 . S
H534 C531 0.999 . S
H535 C516 0.913 . S
H536 C554 0.951 . S
H537 C556 0.951 . S
H538 C558 0.950 . S
H539 C559 0.950 . S
H540 C561 0.950 . S
H541 C564 0.950 . S
H542 C565 0.950 . S
H543 C567 0.950 . S
H544 C568 0.950 . S
H545 C569 0.951 . S
H546 C571 0.951 . S
H547 C573 0.950 . S
H548 C574 0.950 . S
H549 C576 0.950 . S
H550 C579 0.950 . S
H551 C580 0.950 . S
H552 C582 0.950 . S
H553 C583 0.950 . S
C554 H536 0.951 . S
C554 C555 1.366 . S
C554 C556 1.388 . S
C555 C554 1.366 . S
C555 C559 1.385 . S
C556 H537 0.951 . S
C556 C554 1.388 . S
C556 C557 1.366 . S
C557 C556 1.366 . S
C557 C558 1.414 . S
C557 C560 1.499 . S
C558 H538 0.950 . S
C558 C557 1.414 . S
C558 C559 1.374 . S
C559 H539 0.950 . S
C559 C555 1.385 . S
C559 C558 1.374 . S
C560 C557 1.499 . S
C560 C561 1.373 . S
C560 C562 1.389 . S
C561 H540 0.950 . S
C561 C560 1.373 . S
C561 C577 1.377 . S
C562 C560 1.389 . S
C562 C563 1.524 . S
C562 C576 1.377 . S
C563 C562 1.524 . S
C563 C564 1.397 . S
C563 C568 1.363 . S
C564 H541 0.950 . S
C564 C563 1.397 . S
C564 C565 1.334 . S
C565 H542 0.950 . S
C565 C564 1.334 . S
C565 C566 1.287 . S
C566 C565 1.287 . S
C566 C567 1.524 . S
C566 H585 0.913 . S
C567 H543 0.950 . S
C567 C566 1.524 . S
C567 C568 1.415 . S
C568 H544 0.950 . S
C568 C563 1.363 . S
C568 C567 1.415 . S
C569 H545 0.951 . S
C569 C570 1.366 . S
C569 C571 1.388 . S
C570 C569 1.366 . S
C570 C574 1.385 . S
C571 H546 0.951 . S
C571 C569 1.388 . S
C571 C572 1.366 . S
C572 C571 1.366 . S
C572 C573 1.414 . S
C572 C575 1.499 . S
C573 H547 0.950 . S
C573 C572 1.414 . S
C573 C574 1.374 . S
C574 H548 0.950 . S
C574 C570 1.385 . S
C574 C573 1.374 . S
C575 C572 1.499 . S
C575 C576 1.373 . S
C575 C577 1.389 . S
C576 H549 0.950 . S
C576 C562 1.377 . S
C576 C575 1.373 . S
C577 C561 1.377 . S
C577 C575 1.389 . S
C577 C578 1.524 . S
C578 C577 1.524 . S
C578 C579 1.397 . S
C578 C583 1.363 . S
C579 H550 0.950 . S
C579 C578 1.397 . S
C579 C580 1.334 . S
C580 H551 0.950 . S
C580 C579 1.334 . S
C580 C581 1.287 . S
C581 C580 1.287 . S
C581 C582 1.524 . S
C581 H584 0.999 . S
C582 H552 0.950 . S
C582 C581 1.524 . S
C582 C583 1.415 . S
C583 H553 0.950 . S
C583 C578 1.363 . S
C583 C582 1.415 . S
H584 C581 0.999 . S
H585 C566 0.913 . S
H586 C604 0.951 . S
H587 C606 0.951 . S
H588 C608 0.950 . S
H589 C609 0.950 . S
H590 C611 0.950 . S
H591 C614 0.950 . S
H592 C615 0.950 . S
H593 C617 0.950 . S
H594 C618 0.950 . S
H595 C619 0.951 . S
H596 C621 0.951 . S
H597 C623 0.950 . S
H598 C624 0.950 . S
H599 C626 0.950 . S
H600 C629 0.950 . S
H601 C630 0.950 . S
H602 C632 0.950 . S
H603 C633 0.950 . S
C604 H586 0.951 . S
C604 C605 1.366 . S
C604 C606 1.388 . S
C605 C604 1.366 . S
C605 C609 1.385 . S
C606 H587 0.951 . S
C606 C604 1.388 . S
C606 C607 1.366 . S
C607 C606 1.366 . S
C607 C608 1.414 . S
C607 C610 1.499 . S
C608 H588 0.950 . S
C608 C607 1.414 . S
C608 C609 1.374 . S
C609 H589 0.950 . S
C609 C605 1.385 . S
C609 C608 1.374 . S
C610 C607 1.499 . S
C610 C611 1.373 . S
C610 C612 1.389 . S
C611 H590 0.950 . S
C611 C610 1.373 . S
C611 C627 1.377 . S
C612 C610 1.389 . S
C612 C613 1.524 . S
C612 C626 1.377 . S
C613 C612 1.524 . S
C613 C614 1.397 . S
C613 C618 1.363 . S
C614 H591 0.950 . S
C614 C613 1.397 . S
C614 C615 1.334 . S
C615 H592 0.950 . S
C615 C614 1.334 . S
C615 C616 1.287 . S
C616 C615 1.287 . S
C616 C617 1.524 . S
C616 H635 0.913 . S
C617 H593 0.950 . S
C617 C616 1.524 . S
C617 C618 1.415 . S
C618 H594 0.950 . S
C618 C613 1.363 . S
C618 C617 1.415 . S
C619 H595 0.951 . S
C619 C620 1.366 . S
C619 C621 1.388 . S
C620 C619 1.366 . S
C620 C624 1.385 . S
C621 H596 0.951 . S
C621 C619 1.388 . S
C621 C622 1.366 . S
C622 C621 1.366 . S
C622 C623 1.414 . S
C622 C625 1.499 . S
C623 H597 0.950 . S
C623 C622 1.414 . S
C623 C624 1.374 . S
C624 H598 0.950 . S
C624 C620 1.385 . S
C624 C623 1.374 . S
C625 C622 1.499 . S
C625 C626 1.373 . S
C625 C627 1.389 . S
C626 H599 0.950 . S
C626 C612 1.377 . S
C626 C625 1.373 . S
C627 C611 1.377 . S
C627 C625 1.389 . S
C627 C628 1.524 . S
C628 C627 1.524 . S
C628 C629 1.397 . S
C628 C633 1.363 . S
C629 H600 0.950 . S
C629 C628 1.397 . S
C629 C630 1.334 . S
C630 H601 0.950 . S
C630 C629 1.334 . S
C630 C631 1.287 . S
C631 C630 1.287 . S
C631 C632 1.524 . S
C631 H634 0.999 . S
C632 H602 0.950 . S
C632 C631 1.524 . S
C632 C633 1.415 . S
C633 H603 0.950 . S
C633 C628 1.363 . S
C633 C632 1.415 . S
H634 C631 0.999 . S
H635 C616 0.913 . S
H636 C654 0.951 . S
H637 C656 0.951 . S
H638 C658 0.950 . S
H639 C659 0.950 . S
H640 C661 0.950 . S
H641 C664 0.950 . S
H642 C665 0.950 . S
H643 C667 0.950 . S
H644 C668 0.950 . S
H645 C669 0.951 . S
H646 C671 0.951 . S
H647 C673 0.950 . S
H648 C674 0.950 . S
H649 C676 0.950 . S
H650 C679 0.950 . S
H651 C680 0.950 . S
H652 C682 0.950 . S
H653 C683 0.950 . S
C654 H636 0.951 . S
C654 C655 1.366 . S
C654 C656 1.388 . S
C655 C654 1.366 . S
C655 C659 1.385 . S
C656 H637 0.951 . S
C656 C654 1.388 . S
C656 C657 1.366 . S
C657 C656 1.366 . S
C657 C658 1.414 . S
C657 C660 1.499 . S
C658 H638 0.950 . S
C658 C657 1.414 . S
C658 C659 1.374 . S
C659 H639 0.950 . S
C659 C655 1.385 . S
C659 C658 1.374 . S
C660 C657 1.499 . S
C660 C661 1.373 . S
C660 C662 1.389 . S
C661 H640 0.950 . S
C661 C660 1.373 . S
C661 C677 1.377 . S
C662 C660 1.389 . S
C662 C663 1.524 . S
C662 C676 1.377 . S
C663 C662 1.524 . S
C663 C664 1.397 . S
C663 C668 1.363 . S
C664 H641 0.950 . S
C664 C663 1.397 . S
C664 C665 1.334 . S
C665 H642 0.950 . S
C665 C664 1.334 . S
C665 C666 1.287 . S
C666 C665 1.287 . S
C666 C667 1.524 . S
C666 H685 0.913 . S
C667 H643 0.950 . S
C667 C666 1.524 . S
C667 C668 1.415 . S
C668 H644 0.950 . S
C668 C663 1.363 . S
C668 C667 1.415 . S
C669 H645 0.951 . S
C669 C670 1.366 . S
C669 C671 1.388 . S
C670 C669 1.366 . S
C670 C674 1.385 . S
C671 H646 0.951 . S
C671 C669 1.388 . S
C671 C672 1.366 . S
C672 C671 1.366 . S
C672 C673 1.414 . S
C672 C675 1.499 . S
C673 H647 0.950 . S
C673 C672 1.414 . S
C673 C674 1.374 . S
C674 H648 0.950 . S
C674 C670 1.385 . S
C674 C673 1.374 . S
C675 C672 1.499 . S
C675 C676 1.373 . S
C675 C677 1.389 . S
C676 H649 0.950 . S
C676 C662 1.377 . S
C676 C675 1.373 . S
C677 C661 1.377 . S
C677 C675 1.389 . S
C677 C678 1.524 . S
C678 C677 1.524 . S
C678 C679 1.397 . S
C678 C683 1.363 . S
C679 H650 0.950 . S
C679 C678 1.397 . S
C679 C680 1.334 . S
C680 H651 0.950 . S
C680 C679 1.334 . S
C680 C681 1.287 . S
C681 C680 1.287 . S
C681 C682 1.524 . S
C681 H684 0.999 . S
C682 H652 0.950 . S
C682 C681 1.524 . S
C682 C683 1.415 . S
C683 H653 0.950 . S
C683 C678 1.363 . S
C683 C682 1.415 . S
H684 C681 0.999 . S
H685 C666 0.913 . S
H686 C704 0.951 . S
H687 C706 0.951 . S
H688 C708 0.950 . S
H689 C709 0.950 . S
H690 C711 0.950 . S
H691 C714 0.950 . S
H692 C715 0.950 . S
H693 C717 0.950 . S
H694 C718 0.950 . S
H695 C719 0.951 . S
H696 C721 0.951 . S
H697 C723 0.950 . S
H698 C724 0.950 . S
H699 C726 0.950 . S
H700 C729 0.950 . S
H701 C730 0.950 . S
H702 C732 0.950 . S
H703 C733 0.950 . S
C704 H686 0.951 . S
C704 C705 1.366 . S
C704 C706 1.388 . S
C705 C704 1.366 . S
C705 C709 1.385 . S
C706 H687 0.951 . S
C706 C704 1.388 . S
C706 C707 1.366 . S
C707 C706 1.366 . S
C707 C708 1.414 . S
C707 C710 1.499 . S
C708 H688 0.950 . S
C708 C707 1.414 . S
C708 C709 1.374 . S
C709 H689 0.950 . S
C709 C705 1.385 . S
C709 C708 1.374 . S
C710 C707 1.499 . S
C710 C711 1.373 . S
C710 C712 1.389 . S
C711 H690 0.950 . S
C711 C710 1.373 . S
C711 C727 1.377 . S
C712 C710 1.389 . S
C712 C713 1.524 . S
C712 C726 1.377 . S
C713 C712 1.524 . S
C713 C714 1.397 . S
C713 C718 1.363 . S
C714 H691 0.950 . S
C714 C713 1.397 . S
C714 C715 1.334 . S
C715 H692 0.950 . S
C715 C714 1.334 . S
C715 C716 1.287 . S
C716 C715 1.287 . S
C716 C717 1.524 . S
C716 H735 0.913 . S
C717 H693 0.950 . S
C717 C716 1.524 . S
C717 C718 1.415 . S
C718 H694 0.950 . S
C718 C713 1.363 . S
C718 C717 1.415 . S
C719 H695 0.951 . S
C719 C720 1.366 . S
C719 C721 1.388 . S
C720 C719 1.366 . S
C720 C724 1.385 . S
C721 H696 0.951 . S
C721 C719 1.388 . S
C721 C722 1.366 . S
C722 C721 1.366 . S
C722 C723 1.414 . S
C722 C725 1.499 . S
C723 H697 0.950 . S
C723 C722 1.414 . S
C723 C724 1.374 . S
C724 H698 0.950 . S
C724 C720 1.385 . S
C724 C723 1.374 . S
C725 C722 1.499 . S
C725 C726 1.373 . S
C725 C727 1.389 . S
C726 H699 0.950 . S
C726 C712 1.377 . S
C726 C725 1.373 . S
C727 C711 1.377 . S
C727 C725 1.389 . S
C727 C728 1.524 . S
C728 C727 1.524 . S
C728 C729 1.397 . S
C728 C733 1.363 . S
C729 H700 0.950 . S
C729 C728 1.397 . S
C729 C730 1.334 . S
C730 H701 0.950 . S
C730 C729 1.334 . S
C730 C731 1.287 . S
C731 C730 1.287 . S
C731 C732 1.524 . S
C731 H734 0.999 . S
C732 H702 0.950 . S
C732 C731 1.524 . S
C732 C733 1.415 . S
C733 H703 0.950 . S
C733 C728 1.363 . S
C733 C732 1.415 . S
H734 C731 0.999 . S
H735 C716 0.913 . S
H736 C754 0.951 . S
H737 C756 0.951 . S
H738 C758 0.950 . S
H739 C759 0.950 . S
H740 C761 0.950 . S
H741 C764 0.950 . S
H742 C765 0.950 . S
H743 C767 0.950 . S
H744 C768 0.950 . S
H745 C769 0.951 . S
H746 C771 0.951 . S
H747 C773 0.950 . S
H748 C774 0.950 . S
H749 C776 0.950 . S
H750 C779 0.950 . S
H751 C780 0.950 . S
H752 C782 0.950 . S
H753 C783 0.950 . S
C754 H736 0.951 . S
C754 C755 1.366 . S
C754 C756 1.388 . S
C755 C754 1.366 . S
C755 C759 1.385 . S
C756 H737 0.951 . S
C756 C754 1.388 . S
C756 C757 1.366 . S
C757 C756 1.366 . S
C757 C758 1.414 . S
C757 C760 1.499 . S
C758 H738 0.950 . S
C758 C757 1.414 . S
C758 C759 1.374 . S
C759 H739 0.950 . S
C759 C755 1.385 . S
C759 C758 1.374 . S
C760 C757 1.499 . S
C760 C761 1.373 . S
C760 C762 1.389 . S
C761 H740 0.950 . S
C761 C760 1.373 . S
C761 C777 1.377 . S
C762 C760 1.389 . S
C762 C763 1.524 . S
C762 C776 1.377 . S
C763 C762 1.524 . S
C763 C764 1.397 . S
C763 C768 1.363 . S
C764 H741 0.950 . S
C764 C763 1.397 . S
C764 C765 1.334 . S
C765 H742 0.950 . S
C765 C764 1.334 . S
C765 C766 1.287 . S
C766 C765 1.287 . S
C766 C767 1.524 . S
C766 H785 0.913 . S
C767 H743 0.950 . S
C767 C766 1.524 . S
C767 C768 1.415 . S
C768 H744 0.950 . S
C768 C763 1.363 . S
C768 C767 1.415 . S
C769 H745 0.951 . S
C769 C770 1.366 . S
C769 C771 1.388 . S
C770 C769 1.366 . S
C770 C774 1.385 . S
C771 H746 0.951 . S
C771 C769 1.388 . S
C771 C772 1.366 . S
C772 C771 1.366 . S
C772 C773 1.414 . S
C772 C775 1.499 . S
C773 H747 0.950 . S
C773 C772 1.414 . S
C773 C774 1.374 . S
C774 H748 0.950 . S
C774 C770 1.385 . S
C774 C773 1.374 . S
C775 C772 1.499 . S
C775 C776 1.373 . S
C775 C777 1.389 . S
C776 H749 0.950 . S
C776 C762 1.377 . S
C776 C775 1.373 . S
C777 C761 1.377 . S
C777 C775 1.389 . S
C777 C778 1.524 . S
C778 C777 1.524 . S
C778 C779 1.397 . S
C778 C783 1.363 . S
C779 H750 0.950 . S
C779 C778 1.397 . S
C779 C780 1.334 . S
C780 H751 0.950 . S
C780 C779 1.334 . S
C780 C781 1.287 . S
C781 C780 1.287 . S
C781 C782 1.524 . S
C781 H784 0.999 . S
C782 H752 0.950 . S
C782 C781 1.524 . S
C782 C783 1.415 . S
C783 H753 0.950 . S
C783 C778 1.363 . S
C783 C782 1.415 . S
H784 C781 0.999 . S
H785 C766 0.913 . S
H786 C804 0.951 . S
H787 C806 0.951 . S
H788 C808 0.942 1_655 S
H789 C809 0.957 . S
H790 C811 0.950 . S
H791 C814 0.950 . S
H792 C815 0.950 . S
H793 C817 0.950 . S
H794 C818 0.950 . S
H795 C819 0.951 1_655 S
H796 C821 0.951 1_655 S
H797 C823 0.950 . S
H798 C824 0.950 . S
H799 C826 0.950 . S
H800 C829 0.950 . S
H801 C830 0.950 . S
H802 C832 0.950 . S
H803 C833 0.950 . S
C804 H786 0.951 . S
C804 C805 1.366 . S
C804 C806 1.388 . S
C805 C804 1.366 . S
C805 C809 1.377 1_455 S
C806 H787 0.951 . S
C806 C804 1.388 . S
C806 C807 1.366 . S
C807 C806 1.366 . S
C807 C808 1.422 . S
C807 C810 1.499 . S
C808 H788 0.942 1_455 S
C808 C807 1.422 . S
C808 C809 1.375 1_455 S
C809 H789 0.957 . S
C809 C805 1.377 1_655 S
C809 C808 1.375 1_655 S
C810 C807 1.499 . S
C810 C811 1.373 1_455 S
C810 C812 1.389 . S
C811 H790 0.950 . S
C811 C810 1.373 1_655 S
C811 C827 1.377 . S
C812 C810 1.389 . S
C812 C813 1.524 . S
C812 C826 1.377 . S
C813 C812 1.524 . S
C813 C814 1.397 . S
C813 C818 1.363 . S
C814 H791 0.950 . S
C814 C813 1.397 . S
C814 C815 1.334 . S
C815 H792 0.950 . S
C815 C814 1.334 . S
C815 C816 1.287 . S
C816 C815 1.287 . S
C816 C817 1.524 . S
C816 H835 0.913 . S
C817 H793 0.950 . S
C817 C816 1.524 . S
C817 C818 1.415 . S
C818 H794 0.950 . S
C818 C813 1.363 . S
C818 C817 1.415 . S
C819 H795 0.951 1_455 S
C819 C820 1.366 . S
C819 C821 1.388 . S
C820 C819 1.366 . S
C820 C824 1.385 . S
C821 H796 0.951 1_455 S
C821 C819 1.388 . S
C821 C822 1.366 . S
C822 C821 1.366 . S
C822 C823 1.414 . S
C822 C825 1.499 . S
C823 H797 0.950 . S
C823 C822 1.414 . S
C823 C824 1.374 . S
C824 H798 0.950 . S
C824 C820 1.385 . S
C824 C823 1.374 . S
C825 C822 1.499 . S
C825 C826 1.373 1_556 S
C825 C827 1.389 1_456 S
C826 H799 0.950 . S
C826 C812 1.377 . S
C826 C825 1.373 1_554 S
C827 C811 1.377 . S
C827 C825 1.389 1_654 S
C827 C828 1.524 1_554 S
C828 C827 1.524 1_556 S
C828 C829 1.397 . S
C828 C833 1.363 1_556 S
C829 H800 0.950 . S
C829 C828 1.397 . S
C829 C830 1.334 . S
C830 H801 0.950 . S
C830 C829 1.334 . S
C830 C831 1.287 . S
C831 C830 1.287 . S
C831 C832 1.524 . S
C831 H834 0.999 . S
C832 H802 0.950 . S
C832 C831 1.524 . S
C832 C833 1.415 1_556 S
C833 H803 0.950 . S
C833 C828 1.363 1_554 S
C833 C832 1.415 1_554 S
H834 C831 0.999 . S
H835 C816 0.913 . S
H836 C854 0.951 . S
H837 C856 0.951 . S
H838 C858 0.950 . S
H839 C859 0.950 . S
H840 C861 0.950 . S
H841 C864 0.950 1_545 S
H842 C865 0.950 . S
H843 C867 0.950 . S
H844 C868 0.950 . S
H845 C869 0.951 . S
H846 C871 0.951 . S
H847 C873 0.950 . S
H848 C874 0.950 . S
H849 C876 0.950 . S
H850 C879 0.950 . S
H851 C880 0.950 . S
H852 C882 0.950 . S
H853 C883 0.950 . S
C854 H836 0.951 . S
C854 C855 1.366 1_565 S
C854 C856 1.388 . S
C855 C854 1.366 1_545 S
C855 C859 1.385 . S
C856 H837 0.951 . S
C856 C854 1.388 . S
C856 C857 1.366 1_565 S
C857 C856 1.366 1_545 S
C857 C858 1.414 . S
C857 C860 1.499 . S
C858 H838 0.950 . S
C858 C857 1.414 . S
C858 C859 1.374 . S
C859 H839 0.950 . S
C859 C855 1.385 . S
C859 C858 1.374 . S
C860 C857 1.499 . S
C860 C861 1.373 . S
C860 C862 1.389 1_545 S
C861 H840 0.950 . S
C861 C860 1.373 . S
C861 C877 1.377 . S
C862 C860 1.389 1_565 S
C862 C863 1.524 . S
C862 C876 1.377 . S
C863 C862 1.524 . S
C863 C864 1.397 . S
C863 C868 1.363 . S
C864 H841 0.950 1_565 S
C864 C863 1.397 . S
C864 C865 1.334 . S
C865 H842 0.950 . S
C865 C864 1.334 . S
C865 C866 1.287 . S
C866 C865 1.287 . S
C866 C867 1.524 . S
C866 H885 0.913 . S
C867 H843 0.950 . S
C867 C866 1.524 . S
C867 C868 1.415 . S
C868 H844 0.950 . S
C868 C863 1.363 . S
C868 C867 1.415 . S
C869 H845 0.951 . S
C869 C870 1.366 . S
C869 C871 1.388 . S
C870 C869 1.366 . S
C870 C874 1.385 1_545 S
C871 H846 0.951 . S
C871 C869 1.388 . S
C871 C872 1.366 . S
C872 C871 1.366 . S
C872 C873 1.414 1_545 S
C872 C875 1.499 . S
C873 H847 0.950 . S
C873 C872 1.414 1_565 S
C873 C874 1.374 . S
C874 H848 0.950 . S
C874 C870 1.385 1_565 S
C874 C873 1.374 . S
C875 C872 1.499 . S
C875 C876 1.373 1_545 S
C875 C877 1.389 . S
C876 H849 0.950 . S
C876 C862 1.377 . S
C876 C875 1.373 1_565 S
C877 C861 1.377 . S
C877 C875 1.389 . S
C877 C878 1.524 . S
C878 C877 1.524 . S
C878 C879 1.397 . S
C878 C883 1.363 . S
C879 H850 0.950 . S
C879 C878 1.397 . S
C879 C880 1.334 . S
C880 H851 0.950 . S
C880 C879 1.334 . S
C880 C881 1.287 . S
C881 C880 1.287 . S
C881 C882 1.524 . S
C881 H884 0.999 . S
C882 H852 0.950 . S
C882 C881 1.524 . S
C882 C883 1.415 . S
C883 H853 0.950 . S
C883 C878 1.363 . S
C883 C882 1.415 . S
H884 C881 0.999 . S
H885 C866 0.913 . S
H886 C904 0.951 . S
H887 C906 0.951 . S
H888 C908 0.950 . S
H889 C909 0.950 . S
H890 C911 0.950 . S
H891 C914 0.950 . S
H892 C915 0.950 . S
H893 C917 0.950 . S
H894 C918 0.950 . S
H895 C919 0.951 . S
H896 C921 0.951 . S
H897 C923 0.950 . S
H898 C924 0.950 . S
H899 C926 0.950 . S
H900 C929 0.950 . S
H901 C930 0.950 . S
H902 C932 0.950 . S
H903 C933 0.950 . S
C904 H886 0.951 . S
C904 C905 1.366 . S
C904 C906 1.388 . S
C905 C904 1.366 . S
C905 C909 1.385 . S
C906 H887 0.951 . S
C906 C904 1.388 . S
C906 C907 1.366 . S
C907 C906 1.366 . S
C907 C908 1.414 . S
C907 C910 1.499 . S
C908 H888 0.950 . S
C908 C907 1.414 . S
C908 C909 1.374 . S
C909 H889 0.950 . S
C909 C905 1.385 . S
C909 C908 1.374 . S
C910 C907 1.499 . S
C910 C911 1.373 . S
C910 C912 1.389 . S
C911 H890 0.950 . S
C911 C910 1.373 . S
C911 C927 1.377 . S
C912 C910 1.389 . S
C912 C913 1.524 . S
C912 C926 1.377 . S
C913 C912 1.524 . S
C913 C914 1.397 . S
C913 C918 1.363 . S
C914 H891 0.950 . S
C914 C913 1.397 . S
C914 C915 1.334 . S
C915 H892 0.950 . S
C915 C914 1.334 . S
C915 C916 1.287 . S
C916 C915 1.287 . S
C916 C917 1.524 . S
C916 H935 0.913 . S
C917 H893 0.950 . S
C917 C916 1.524 . S
C917 C918 1.415 . S
C918 H894 0.950 . S
C918 C913 1.363 . S
C918 C917 1.415 . S
C919 H895 0.951 . S
C919 C920 1.366 . S
C919 C921 1.388 . S
C920 C919 1.366 . S
C920 C924 1.385 . S
C921 H896 0.951 . S
C921 C919 1.388 . S
C921 C922 1.366 . S
C922 C921 1.366 . S
C922 C923 1.414 . S
C922 C925 1.499 . S
C923 H897 0.950 . S
C923 C922 1.414 . S
C923 C924 1.374 . S
C924 H898 0.950 . S
C924 C920 1.385 . S
C924 C923 1.374 . S
C925 C922 1.499 . S
C925 C926 1.373 . S
C925 C927 1.389 . S
C926 H899 0.950 . S
C926 C912 1.377 . S
C926 C925 1.373 . S
C927 C911 1.377 . S
C927 C925 1.389 . S
C927 C928 1.524 . S
C928 C927 1.524 . S
C928 C929 1.397 . S
C928 C933 1.363 . S
C929 H900 0.950 . S
C929 C928 1.397 . S
C929 C930 1.334 . S
C930 H901 0.950 . S
C930 C929 1.334 . S
C930 C931 1.287 . S
C931 C930 1.287 . S
C931 C932 1.524 . S
C931 H934 0.999 . S
C932 H902 0.950 . S
C932 C931 1.524 . S
C932 C933 1.415 . S
C933 H903 0.950 . S
C933 C928 1.363 . S
C933 C932 1.415 . S
H934 C931 0.999 . S
H935 C916 0.913 . S
H936 C954 0.951 . S
H937 C956 0.951 . S
H938 C958 0.950 . S
H939 C959 0.950 . S
H940 C961 0.950 . S
H941 C964 0.950 . S
H942 C965 0.950 . S
H943 C967 0.950 . S
H944 C968 0.950 . S
H945 C969 0.951 . S
H946 C971 0.951 . S
H947 C973 0.950 . S
H948 C974 0.950 . S
H949 C976 0.950 . S
H950 C979 0.950 . S
H951 C980 0.950 . S
H952 C982 0.950 . S
H953 C983 0.950 . S
C954 H936 0.951 . S
C954 C955 1.366 . S
C954 C956 1.388 . S
C955 C954 1.366 . S
C955 C959 1.385 . S
C956 H937 0.951 . S
C956 C954 1.388 . S
C956 C957 1.366 . S
C957 C956 1.366 . S
C957 C958 1.414 . S
C957 C960 1.499 . S
C958 H938 0.950 . S
C958 C957 1.414 . S
C958 C959 1.374 . S
C959 H939 0.950 . S
C959 C955 1.385 . S
C959 C958 1.374 . S
C960 C957 1.499 . S
C960 C961 1.373 1_545 S
C960 C962 1.389 . S
C961 H940 0.950 . S
C961 C960 1.373 1_565 S
C961 C977 1.377 . S
C962 C960 1.389 . S
C962 C963 1.524 . S
C962 C976 1.377 . S
C963 C962 1.524 . S
C963 C964 1.397 . S
C963 C968 1.363 . S
C964 H941 0.950 . S
C964 C963 1.397 . S
C964 C965 1.334 . S
C965 H942 0.950 . S
C965 C964 1.334 . S
C965 C966 1.287 . S
C966 C965 1.287 . S
C966 C967 1.524 . S
C966 H985 0.913 . S
C967 H943 0.950 . S
C967 C966 1.524 . S
C967 C968 1.415 . S
C968 H944 0.950 . S
C968 C963 1.363 . S
C968 C967 1.415 . S
C969 H945 0.951 . S
C969 C970 1.366 . S
C969 C971 1.388 . S
C970 C969 1.366 . S
C970 C974 1.385 . S
C971 H946 0.951 . S
C971 C969 1.388 . S
C971 C972 1.366 . S
C972 C971 1.366 . S
C972 C973 1.414 . S
C972 C975 1.499 . S
C973 H947 0.950 . S
C973 C972 1.414 . S
C973 C974 1.374 . S
C974 H948 0.950 . S
C974 C970 1.385 . S
C974 C973 1.374 . S
C975 C972 1.499 . S
C975 C976 1.373 . S
C975 C977 1.389 1_545 S
C976 H949 0.950 . S
C976 C962 1.377 . S
C976 C975 1.373 . S
C977 C961 1.377 . S
C977 C975 1.389 1_565 S
C977 C978 1.524 . S
C978 C977 1.524 . S
C978 C979 1.397 . S
C978 C983 1.363 . S
C979 H950 0.950 . S
C979 C978 1.397 . S
C979 C980 1.334 . S
C980 H951 0.950 . S
C980 C979 1.334 . S
C980 C981 1.287 . S
C981 C980 1.287 . S
C981 C982 1.524 . S
C981 H984 0.999 . S
C982 H952 0.950 . S
C982 C981 1.524 . S
C982 C983 1.415 . S
C983 H953 0.950 . S
C983 C978 1.363 . S
C983 C982 1.415 . S
H984 C981 0.999 . S
H985 C966 0.913 . S
H986 C1004 0.951 . S
H987 C1006 0.951 . S
H988 C1008 0.950 . S
H989 C1009 0.950 . S
H990 C1011 0.950 . S
H991 C1014 0.950 . S
H992 C1015 0.950 . S
H993 C1017 0.950 . S
H994 C1018 0.950 . S
H995 C1019 0.951 . S
H996 C1021 0.951 . S
H997 C1023 0.950 . S
H998 C1024 0.950 . S
H999 C1026 0.950 1_554 S
H1000 C1029 0.950 . S
H1001 C1030 0.950 . S
H1002 C1032 0.950 . S
H1003 C1033 0.950 . S
C1004 H986 0.951 . S
C1004 C1005 1.366 . S
C1004 C1006 1.388 . S
C1005 C1004 1.366 . S
C1005 C1009 1.385 . S
C1006 H987 0.951 . S
C1006 C1004 1.388 . S
C1006 C1007 1.366 . S
C1007 C1006 1.366 . S
C1007 C1008 1.414 . S
C1007 C1010 1.499 . S
C1008 H988 0.950 . S
C1008 C1007 1.414 . S
C1008 C1009 1.374 . S
C1009 H989 0.950 . S
C1009 C1005 1.385 . S
C1009 C1008 1.374 . S
C1010 C1007 1.499 . S
C1010 C1011 1.373 . S
C1010 C1012 1.389 . S
C1011 H990 0.950 . S
C1011 C1010 1.373 . S
C1011 C1027 1.377 . S
C1012 C1010 1.389 . S
C1012 C1013 1.524 . S
C1012 C1026 1.377 . S
C1013 C1012 1.524 . S
C1013 C1014 1.397 . S
C1013 C1018 1.363 . S
C1014 H991 0.950 . S
C1014 C1013 1.397 . S
C1014 C1015 1.334 . S
C1015 H992 0.950 . S
C1015 C1014 1.334 . S
C1015 C1016 1.287 . S
C1016 C1015 1.287 . S
C1016 C1017 1.524 . S
C1016 H1035 0.913 . S
C1017 H993 0.950 . S
C1017 C1016 1.524 . S
C1017 C1018 1.415 . S
C1018 H994 0.950 . S
C1018 C1013 1.363 . S
C1018 C1017 1.415 . S
C1019 H995 0.951 . S
C1019 C1020 1.366 . S
C1019 C1021 1.388 . S
C1020 C1019 1.366 . S
C1020 C1024 1.385 . S
C1021 H996 0.951 . S
C1021 C1019 1.388 . S
C1021 C1022 1.366 . S
C1022 C1021 1.366 . S
C1022 C1023 1.414 . S
C1022 C1025 1.499 . S
C1023 H997 0.950 . S
C1023 C1022 1.414 . S
C1023 C1024 1.374 . S
C1024 H998 0.950 . S
C1024 C1020 1.385 . S
C1024 C1023 1.374 . S
C1025 C1022 1.499 . S
C1025 C1026 1.373 1_554 S
C1025 C1027 1.389 1_554 S
C1026 H999 0.950 1_556 S
C1026 C1012 1.377 . S
C1026 C1025 1.373 1_556 S
C1027 C1011 1.377 . S
C1027 C1025 1.389 1_556 S
C1027 C1028 1.524 . S
C1028 C1027 1.524 . S
C1028 C1029 1.397 1_556 S
C1028 C1033 1.363 . S
C1029 H1000 0.950 . S
C1029 C1028 1.397 1_554 S
C1029 C1030 1.334 . S
C1030 H1001 0.950 . S
C1030 C1029 1.334 . S
C1030 C1031 1.287 . S
C1031 C1030 1.287 . S
C1031 C1032 1.524 1_554 S
C1031 H1034 0.999 . S
C1032 H1002 0.950 . S
C1032 C1031 1.524 1_556 S
C1032 C1033 1.415 . S
C1033 H1003 0.950 . S
C1033 C1028 1.363 . S
C1033 C1032 1.415 . S
H1034 C1031 0.999 . S
H1035 C1016 0.913 . S
H1036 C1054 0.951 . S
H1037 C1056 0.951 . S
H1038 C1058 0.950 . S
H1039 C1059 0.950 . S
H1040 C1061 0.950 . S
H1041 C1064 0.950 . S
H1042 C1065 0.950 . S
H1043 C1067 0.950 . S
H1044 C1068 0.950 . S
H1045 C1069 0.951 . S
H1046 C1071 0.951 . S
H1047 C1073 0.950 . S
H1048 C1074 0.950 . S
H1049 C1076 0.950 . S
H1050 C1079 0.950 . S
H1051 C1080 0.950 . S
H1052 C1082 0.950 . S
H1053 C1083 0.950 . S
C1054 H1036 0.951 . S
C1054 C1055 1.366 1_655 S
C1054 C1056 1.388 . S
C1055 C1054 1.366 1_455 S
C1055 C1059 1.385 . S
C1056 H1037 0.951 . S
C1056 C1054 1.388 . S
C1056 C1057 1.366 1_655 S
C1057 C1056 1.366 1_455 S
C1057 C1058 1.414 . S
C1057 C1060 1.499 . S
C1058 H1038 0.950 . S
C1058 C1057 1.414 . S
C1058 C1059 1.374 . S
C1059 H1039 0.950 . S
C1059 C1055 1.385 . S
C1059 C1058 1.374 . S
C1060 C1057 1.499 . S
C1060 C1061 1.373 . S
C1060 C1062 1.389 1_455 S
C1061 H1040 0.950 . S
C1061 C1060 1.373 . S
C1061 C1077 1.377 . S
C1062 C1060 1.389 1_655 S
C1062 C1063 1.524 . S
C1062 C1076 1.377 . S
C1063 C1062 1.524 . S
C1063 C1064 1.397 . S
C1063 C1068 1.363 . S
C1064 H1041 0.950 . S
C1064 C1063 1.397 . S
C1064 C1065 1.334 . S
C1065 H1042 0.950 . S
C1065 C1064 1.334 . S
C1065 C1066 1.287 . S
C1066 C1065 1.287 . S
C1066 C1067 1.524 . S
C1066 H1085 0.913 . S
C1067 H1043 0.950 . S
C1067 C1066 1.524 . S
C1067 C1068 1.415 . S
C1068 H1044 0.950 . S
C1068 C1063 1.363 . S
C1068 C1067 1.415 . S
C1069 H1045 0.951 . S
C1069 C1070 1.366 1_455 S
C1069 C1071 1.388 . S
C1070 C1069 1.366 1_655 S
C1070 C1074 1.385 . S
C1071 H1046 0.951 . S
C1071 C1069 1.388 . S
C1071 C1072 1.366 1_455 S
C1072 C1071 1.366 1_655 S
C1072 C1073 1.414 . S
C1072 C1075 1.500 . S
C1073 H1047 0.950 . S
C1073 C1072 1.414 . S
C1073 C1074 1.374 . S
C1074 H1048 0.950 . S
C1074 C1070 1.385 . S
C1074 C1073 1.374 . S
C1075 C1072 1.500 . S
C1075 C1076 1.392 . S
C1075 C1077 1.370 1_655 S
C1076 H1049 0.950 . S
C1076 C1062 1.377 . S
C1076 C1075 1.392 . S
C1077 C1061 1.377 . S
C1077 C1075 1.370 1_455 S
C1077 C1078 1.524 . S
C1078 C1077 1.524 . S
C1078 C1079 1.397 . S
C1078 C1083 1.363 . S
C1079 H1050 0.950 . S
C1079 C1078 1.397 . S
C1079 C1080 1.334 . S
C1080 H1051 0.950 . S
C1080 C1079 1.334 . S
C1080 C1081 1.287 . S
C1081 C1080 1.287 . S
C1081 C1082 1.524 . S
C1081 H1084 0.999 . S
C1082 H1052 0.950 . S
C1082 C1081 1.524 . S
C1082 C1083 1.415 . S
C1083 H1053 0.950 . S
C1083 C1078 1.363 . S
C1083 C1082 1.415 . S
H1084 C1081 0.999 . S
H1085 C1066 0.913 . S
C205 C6 0.537 . S
C220 C180 0.713 . S
C255 C59 2.054 . S
C270 C158 1.783 . S
C305 C86 0.967 . S
C320 C172 0.953 . S
C355 C15 0.259 . S
C370 C183 0.270 . S
C420 C161 1.742 . S
C405 C50 1.773 . S
C470 C169 1.203 . S
C455 C95 1.405 . S
C505 C46 1.350 . S
C520 C136 1.152 . S
C555 C99 3.299 . S
C570 C147 2.958 . S
C605 C10 2.121 . S
C620 C125 1.832 . S
C670 C139 0.997 . S
C655 C55 1.008 . S
C720 C150 2.770 . S
C705 C90 2.811 . S
C755 C19 1.704 . S
C770 C128 1.675 . S
C820 C149 1.640 . S
C805 C18 1.639 . S
C855 C49 1.410 . S
C870 C127 1.402 . S
C905 C98 1.496 . S
C920 C138 1.479 . S
C970 C171 1.451 . S
C955 C58 1.460 . S
C1020 C182 1.221 . S
C1005 C89 1.249 . S
C1055 C9 1.418 . S
C1070 C160 1.399 . S
