# Generated by pormake.
# Topology zzz, (3,6)-cn, num edge types: 1
# Building blocks:
#     Node 0, Type 0, BuildingBlock: WUSLED_clean_sbu_0, # of connection points: 3
#     Node 1, Type 0, BuildingBlock: WUSLED_clean_sbu_0, # of connection points: 3
#     Node 2, Type 0, BuildingBlock: WUSLED_clean_sbu_0, # of connection points: 3
#     Node 3, Type 0, BuildingBlock: WUSLED_clean_sbu_0, # of connection points: 3
#     Node 4, Type 0, BuildingBlock: WUSLED_clean_sbu_0, # of connection points: 3
#     Node 5, Type 0, BuildingBlock: WUSLED_clean_sbu_0, # of connection points: 3
#     Node 6, Type 0, BuildingBlock: WUSLED_clean_sbu_0, # of connection points: 3
#     Node 7, Type 0, BuildingBlock: WUSLED_clean_sbu_0, # of connection points: 3
#     Node 8, Type 1, BuildingBlock: JUFBIX_clean_sbu_0, # of connection points: 6
#     Node 9, Type 1, BuildingBlock: JUFBIX_clean_sbu_0, # of connection points: 6
#     Node 10, Type 1, BuildingBlock: JUFBIX_clean_sbu_0, # of connection points: 6
#     Node 11, Type 1, BuildingBlock: JUFBIX_clean_sbu_0, # of connection points: 6
#     Edge 12, Type (0, 1), BuildingBlock: OJICUG_clean_linker_0, # of connection points: 2
#     Edge 13, Type (0, 1), BuildingBlock: OJICUG_clean_linker_0, # of connection points: 2
#     Edge 14, Type (0, 1), BuildingBlock: OJICUG_clean_linker_0, # of connection points: 2
#     Edge 15, Type (0, 1), BuildingBlock: OJICUG_clean_linker_0, # of connection points: 2
#     Edge 16, Type (0, 1), BuildingBlock: OJICUG_clean_linker_0, # of connection points: 2
#     Edge 17, Type (0, 1), BuildingBlock: OJICUG_clean_linker_0, # of connection points: 2
#     Edge 18, Type (0, 1), BuildingBlock: OJICUG_clean_linker_0, # of connection points: 2
#     Edge 19, Type (0, 1), BuildingBlock: OJICUG_clean_linker_0, # of connection points: 2
#     Edge 20, Type (0, 1), BuildingBlock: OJICUG_clean_linker_0, # of connection points: 2
#     Edge 21, Type (0, 1), BuildingBlock: OJICUG_clean_linker_0, # of connection points: 2
#     Edge 22, Type (0, 1), BuildingBlock: OJICUG_clean_linker_0, # of connection points: 2
#     Edge 23, Type (0, 1), BuildingBlock: OJICUG_clean_linker_0, # of connection points: 2
#     Edge 24, Type (0, 1), BuildingBlock: OJICUG_clean_linker_0, # of connection points: 2
#     Edge 25, Type (0, 1), BuildingBlock: OJICUG_clean_linker_0, # of connection points: 2
#     Edge 26, Type (0, 1), BuildingBlock: OJICUG_clean_linker_0, # of connection points: 2
#     Edge 27, Type (0, 1), BuildingBlock: OJICUG_clean_linker_0, # of connection points: 2
#     Edge 28, Type (0, 1), BuildingBlock: OJICUG_clean_linker_0, # of connection points: 2
#     Edge 29, Type (0, 1), BuildingBlock: OJICUG_clean_linker_0, # of connection points: 2
#     Edge 30, Type (0, 1), BuildingBlock: OJICUG_clean_linker_0, # of connection points: 2
#     Edge 31, Type (0, 1), BuildingBlock: OJICUG_clean_linker_0, # of connection points: 2
#     Edge 32, Type (0, 1), BuildingBlock: OJICUG_clean_linker_0, # of connection points: 2
#     Edge 33, Type (0, 1), BuildingBlock: OJICUG_clean_linker_0, # of connection points: 2
#     Edge 34, Type (0, 1), BuildingBlock: OJICUG_clean_linker_0, # of connection points: 2
#     Edge 35, Type (0, 1), BuildingBlock: OJICUG_clean_linker_0, # of connection points: 2
# Relax obj value: 0.266
# Max RMSD: 0.219
# Mean RMSD: 0.180
data_MOF--net-zzz--node1-WUSLED_clean_sbu_0--node2-JUFBIX_clean_sbu_0--edge1-OJICUG_clean_linker_0
_symmetry_space_group_name_H-M    P1
_symmetry_Int_Tables_number       1
_symmetry_cell_setting            triclinic
loop_
_symmetry_equiv_pos_as_xyz
'x, y, z'
_cell_length_a     49.305911
_cell_length_b     50.656288
_cell_length_c     19.444558
_cell_angle_alpha  81.848342
_cell_angle_beta   90.414038
_cell_angle_gamma 86.587216
loop_
_atom_site_label
_atom_site_type_symbol
_atom_site_fract_x
_atom_site_fract_y
_atom_site_fract_z
_atom_type_partial_charge
C0 C 0.83418 0.5787 0.41785 0.0
C1 C 0.85781 0.56797 0.38933 0.0
C2 C 0.88401 0.5716 0.49461 0.0
C3 C 0.88239 0.56438 0.42735 0.0
C4 C 0.86056 0.58342 0.52155 0.0
C5 C 0.83595 0.58684 0.48367 0.0
U6 U 0.79056 0.58229 0.25252 0.0
O7 O 0.75763 0.5568 0.23231 0.0
O8 O 0.74946 0.60026 0.22245 0.0
C9 C 0.73969 0.57706 0.21661 0.0
C10 C 0.80729 0.57954 0.38233 0.0
C11 C 0.72073 0.57574 0.15783 0.0
C12 C 0.67402 0.57206 0.12 0.0
C13 C 0.69284 0.57592 0.17134 0.0
C14 C 0.7106 0.56892 0.03884 0.0
C15 C 0.68249 0.56813 0.05295 0.0
C16 C 0.72953 0.57252 0.09084 0.0
C17 C 0.83684 0.58644 0.08769 0.0
C18 C 0.84857 0.55697 1.00317 0.0
C19 C 0.87515 0.59504 0.01281 0.0
C20 C 0.85765 0.60275 0.06318 0.0
C21 C 0.8721 0.57077 0.98721 0.0
C22 C 0.83088 0.56486 0.05321 0.0
C23 C 0.82862 0.58703 0.15968 0.0
O24 O 0.79894 0.60216 0.34415 0.0
O25 O 0.80272 0.55853 0.35245 0.0
O26 O 0.82249 0.56411 0.19484 0.0
O27 O 0.81407 0.60786 0.17557 0.0
H28 H 0.85709 0.56166 0.33842 0.0
H29 H 0.90007 0.55556 0.40447 0.0
H30 H 0.86089 0.58899 0.57329 0.0
H31 H 0.81803 0.5951 0.50683 0.0
H32 H 0.65289 0.57115 0.13421 0.0
H33 H 0.68559 0.57822 0.22276 0.0
H34 H 0.71811 0.56653 0.9878 0.0
H35 H 0.75098 0.57232 0.07908 0.0
H36 H 0.84549 0.53843 0.98334 0.0
H37 H 0.89271 0.60652 0.99949 0.0
H38 H 0.86246 0.6196 0.0888 0.0
H39 H 0.81461 0.55222 0.07076 0.0
C40 C 1.00322 0.82083 0.41605 0.0
C41 C 1.00388 0.845 0.37076 0.0
C42 C 0.99937 0.87039 0.46854 0.0
C43 C 1.00199 0.86951 0.3967 0.0
C44 C 0.99908 0.84599 0.51353 0.0
C45 C 1.00101 0.82154 0.48753 0.0
U46 U 0.00992 0.78206 0.2637 0.0
O47 O 0.03214 0.74395 0.25159 0.0
O48 O 0.98782 0.7484 0.23637 0.0
C49 C 0.01007 0.73289 0.23442 0.0
C50 C 1.00424 0.79491 0.38921 0.0
C51 C 0.01222 0.71691 0.17648 0.0
C52 C 0.01451 0.67283 0.14021 0.0
C53 C 0.01313 0.68904 0.19265 0.0
C54 C 0.01429 0.71217 0.05351 0.0
C55 C 0.01494 0.68405 0.06977 0.0
C56 C 0.0129 0.72848 0.10646 0.0
C57 C 0.01972 0.83295 0.09306 0.0
C58 C 0.0506 0.85587 0.01181 0.0
C59 C 1.00195 0.86506 0.99678 0.0
C60 C 0.99757 0.84613 0.05415 0.0
C61 C 0.02854 0.87114 0.97793 0.0
C62 C 0.04622 0.83677 0.06895 0.0
C63 C 0.01561 0.82233 0.16622 0.0
O64 O 0.9836 0.79132 0.34912 0.0
O65 O 0.02777 0.78733 0.36474 0.0
O66 O 0.03623 0.80917 0.20157 0.0
O67 O 0.99178 0.81349 0.18446 0.0
H68 H 0.00569 0.84491 0.31529 0.0
H69 H 1.00274 0.88776 0.36043 0.0
H70 H 0.99673 0.84572 0.56892 0.0
H71 H 1.00045 0.80313 0.52331 0.0
H72 H 0.01557 0.65137 0.15518 0.0
H73 H 0.01272 0.67972 0.24633 0.0
H74 H 0.01441 0.72158 0.99993 0.0
H75 H 0.01217 0.75 0.0928 0.0
H76 H 0.07124 0.86016 0.99743 0.0
H77 H 0.98457 0.87676 0.97168 0.0
H78 H 0.97694 0.84387 0.07192 0.0
H79 H 0.06372 0.82696 0.09799 0.0
C80 C 0.70305 0.97687 0.33916 0.0
C81 C 0.67783 0.98291 0.3049 0.0
C82 C 0.65456 0.98182 0.41655 0.0
C83 C 0.65385 0.98507 0.34304 0.0
C84 C 0.68004 0.97551 0.45014 0.0
C85 C 0.70379 0.9729 0.412 0.0
U86 U 0.75537 0.97127 0.1864 0.0
O87 O 0.79722 0.95282 0.19609 0.0
O88 O 0.79023 0.99632 0.17113 0.0
C89 C 0.8081 0.97582 0.17794 0.0
C90 C 0.72928 0.97654 0.30217 0.0
C91 C 0.8292 0.97679 0.12429 0.0
C92 C 0.87632 0.98341 0.09522 0.0
C93 C 0.8561 0.97913 0.14471 0.0
C94 C 0.84331 0.98201 1.00323 0.0
C95 C 0.87014 0.98562 0.02376 0.0
C96 C 0.82291 0.97776 0.05321 0.0
C97 C 0.70103 0.96387 0.05001 0.0
C98 C 0.66993 0.96237 0.9542 0.0
C99 C 0.65423 0.98029 0.05716 0.0
C100 C 0.67997 0.97458 0.08737 0.0
C101 C 0.64924 0.97522 0.98909 0.0
C102 C 0.69575 0.95692 0.98437 0.0
C103 C 0.72913 0.96407 0.0736 0.0
O104 O 0.73968 0.95348 0.28773 0.0
O105 O 0.73329 0.99661 0.25331 0.0
O106 O 0.73812 0.94415 0.12056 0.0
O107 O 0.7361 0.98751 0.08666 0.0
H108 H 0.67664 0.98639 0.24889 0.0
H109 H 0.63481 0.98939 0.31451 0.0
H110 H 0.68199 0.97336 0.50612 0.0
H111 H 0.72304 0.9685 0.43974 0.0
H112 H 0.89683 0.98556 0.11302 0.0
H113 H 0.86138 0.97845 0.19916 0.0
H114 H 0.83788 0.9836 0.94866 0.0
H115 H 0.80218 0.97606 0.03634 0.0
H116 H 0.66652 0.95755 0.90244 0.0
H117 H 0.63888 0.99031 0.08546 0.0
H118 H 0.684 0.98022 0.13777 0.0
H119 H 0.71192 0.94863 0.95493 0.0
C120 C 0.49509 0.6955 0.35775 0.0
C121 C 0.50691 0.6711 0.34228 0.0
C122 C 0.49833 0.64942 0.46054 0.0
C123 C 0.50855 0.64827 0.39331 0.0
C124 C 0.48628 0.67387 0.47499 0.0
C125 C 0.48473 0.69649 0.42442 0.0
U126 U 0.48896 0.74793 0.18345 0.0
O127 O 0.47029 0.7888 0.17987 0.0
O128 O 0.51385 0.78275 0.16083 0.0
C129 C 0.49303 0.80009 0.16249 0.0
C130 C 0.49525 0.72103 0.30957 0.0
C131 C 0.4911 0.82375 0.10776 0.0
C132 C 0.48279 0.87193 0.07977 0.0
C133 C 0.48341 0.84857 0.12771 0.0
C134 C 0.49705 0.84614 0.98941 0.0
C135 C 0.48955 0.87124 0.00968 0.0
C136 C 0.49784 0.82261 0.038 0.0
C137 C 0.47473 0.69773 0.05598 0.0
C138 C 0.46748 0.67179 0.96278 0.0
C139 C 0.4799 0.64934 0.07829 0.0
C140 C 0.48027 0.67411 0.10226 0.0
C141 C 0.47392 0.64804 0.00801 0.0
C142 C 0.46793 0.69641 0.98664 0.0
C143 C 0.4781 0.72408 0.07617 0.0
O144 O 0.51528 0.72464 0.26553 0.0
O145 O 0.47179 0.73212 0.28451 0.0
O146 O 0.45912 0.73338 0.11505 0.0
O147 O 0.50286 0.72858 0.09501 0.0
H148 H 0.51519 0.66977 0.29136 0.0
H149 H 0.51773 0.62972 0.38015 0.0
H150 H 0.4786 0.67574 0.52623 0.0
H151 H 0.47591 0.71513 0.43812 0.0
H152 H 0.4776 0.89067 0.09856 0.0
H153 H 0.47834 0.85 0.18125 0.0
H154 H 0.50218 0.8446 0.93604 0.0
H155 H 0.50387 0.80365 0.02122 0.0
H156 H 0.46328 0.67144 0.90816 0.0
H157 H 0.4848 0.63127 0.11418 0.0
H158 H 0.48561 0.67489 0.15606 0.0
H159 H 0.46387 0.71452 0.95023 0.0
C160 C 0.17656 0.45862 0.16143 0.0
C161 C 0.15258 0.46779 0.19153 0.0
C162 C 0.12702 0.46646 0.08402 0.0
C163 C 0.12811 0.47177 0.15315 0.0
C164 C 0.15085 0.45616 0.05529 0.0
C165 C 0.17534 0.45238 0.09354 0.0
U166 U 0.21897 0.45471 0.32821 0.0
O167 O 0.26009 0.43713 0.35955 0.0
O168 O 0.25137 0.48055 0.34972 0.0
C169 C 0.26948 0.46047 0.36576 0.0
C170 C 0.20322 0.4577 0.19771 0.0
C171 C 0.28805 0.462 0.425 0.0
C172 C 0.33446 0.46615 0.46392 0.0
C173 C 0.316 0.46174 0.41244 0.0
C174 C 0.29738 0.46996 0.54339 0.0
C175 C 0.32553 0.47075 0.53009 0.0
C176 C 0.2788 0.4658 0.49123 0.0
C177 C 0.172 0.45007 0.49139 0.0
C178 C 0.16177 0.47927 0.5775 0.0
C179 C 0.13296 0.44309 0.56463 0.0
C180 C 0.15017 0.43486 0.5143 0.0
C181 C 0.13739 0.46675 0.59192 0.0
C182 C 0.17912 0.47088 0.52735 0.0
C183 C 0.18038 0.44951 0.41956 0.0
O184 O 0.20743 0.47865 0.22819 0.0
O185 O 0.21139 0.43502 0.23587 0.0
O186 O 0.19531 0.42884 0.4041 0.0
O187 O 0.18642 0.47252 0.3847 0.0
H188 H 0.15294 0.47265 0.24403 0.0
H189 H 0.11011 0.47941 0.17722 0.0
H190 H 0.15087 0.4521 1.00209 0.0
H191 H 0.19358 0.44539 0.06919 0.0
H192 H 0.35567 0.46705 0.45041 0.0
H193 H 0.32356 0.45902 0.36156 0.0
H194 H 0.28956 0.47288 0.59381 0.0
H195 H 0.25728 0.46608 0.50214 0.0
H196 H 0.16585 0.49732 0.59867 0.0
H197 H 0.11466 0.43262 0.57663 0.0
H198 H 0.14445 0.41862 0.48746 0.0
H199 H 0.19616 0.48267 0.51092 0.0
C200 C 0.02374 0.22051 0.16527 0.0
C201 C 0.02549 0.19564 0.20801 0.0
C202 C 0.02465 0.17239 0.10599 0.0
C203 C 0.02592 0.17185 0.17872 0.0
C204 C 0.0227 0.19747 0.06371 0.0
C205 C 0.02219 0.2212 0.09308 0.0
U206 U 0.01928 0.25756 0.32217 0.0
O207 O 0.99514 0.29409 0.33825 0.0
O208 O 0.03967 0.29267 0.34698 0.0
C209 C 0.01663 0.30653 0.35311 0.0
C210 C 0.0231 0.2458 0.19512 0.0
C211 C 0.01461 0.32159 0.41284 0.0
C212 C 0.01794 0.36413 0.45559 0.0
C213 C 0.02052 0.34853 0.402 0.0
C214 C 1.00386 0.32587 0.53313 0.0
C215 C 0.00953 0.35315 0.52204 0.0
C216 C 0.00638 0.31021 0.47896 0.0
C217 C 0.01198 0.20836 0.49468 0.0
C218 C 0.97793 0.19445 0.57942 0.0
C219 C 0.02252 0.17126 0.58524 0.0
C220 C 0.03074 0.18899 0.5291 0.0
C221 C 0.99551 0.17282 0.60695 0.0
C222 C 0.98626 0.21246 0.52373 0.0
C223 C 0.01634 0.21721 0.42074 0.0
O224 O 0.99995 0.25253 0.22283 0.0
O225 O 0.04433 0.24928 0.23344 0.0
O226 O 0.03958 0.2273 0.40194 0.0
O227 O 0.99522 0.22854 0.38399 0.0
H228 H 0.02645 0.19464 0.26402 0.0
H229 H 0.02695 0.15305 0.21323 0.0
H230 H 0.02204 0.19886 0.00766 0.0
H231 H 0.02072 0.24017 0.05923 0.0
H232 H 0.02192 0.38507 0.44411 0.0
H233 H 0.02678 0.35772 0.35131 0.0
H234 H 0.99758 0.31658 0.58363 0.0
H235 H 1.00175 0.28937 0.48854 0.0
H236 H 0.95701 0.19576 0.59588 0.0
H237 H 0.03624 0.15445 0.60605 0.0
H238 H 0.05061 0.18541 0.50752 0.0
H239 H 0.97149 0.22749 0.49856 0.0
C240 C 0.29815 0.0791 0.2048 0.0
C241 C 0.32289 0.07807 0.24167 0.0
C242 C 0.34816 0.07228 0.13629 0.0
C243 C 0.34766 0.07473 0.20771 0.0
C244 C 0.32321 0.07393 0.09973 0.0
C245 C 0.29857 0.07723 0.13364 0.0
U246 U 0.25358 0.08328 0.36556 0.0
O247 O 0.21352 0.10403 0.37825 0.0
O248 O 0.21808 0.06016 0.3932 0.0
C249 C 0.2018 0.08145 0.39604 0.0
C250 C 0.27165 0.08062 0.23954 0.0
C251 C 0.18254 0.0799 0.45428 0.0
C252 C 0.13532 0.08411 0.48824 0.0
C253 C 0.15565 0.08965 0.43957 0.0
C254 C 0.16873 0.06047 0.56994 0.0
C255 C 0.14141 0.06869 0.55308 0.0
C256 C 0.18917 0.06589 0.52068 0.0
C257 C 0.30967 0.08422 0.51808 0.0
C258 C 0.33272 0.0595 0.6194 0.0
C259 C 0.3554 0.09421 0.54677 0.0
C260 C 0.33208 0.09986 0.50505 0.0
C261 C 0.35627 0.07308 0.60211 0.0
C262 C 0.30957 0.06494 0.57724 0.0
C263 C 0.28949 0.0839 0.46313 0.0
O264 O 0.26649 0.05956 0.28398 0.0
O265 O 0.26443 0.10328 0.26193 0.0
O266 O 0.2788 0.10609 0.42717 0.0
O267 O 0.28055 0.06147 0.44782 0.0
H268 H 0.32302 0.07936 0.29683 0.0
H269 H 0.36636 0.07334 0.23789 0.0
H270 H 0.32264 0.07268 0.04462 0.0
H271 H 0.27971 0.07798 0.10428 0.0
H272 H 0.11456 0.09107 0.47407 0.0
H273 H 0.15005 0.10045 0.38881 0.0
H274 H 0.17403 0.04856 0.61949 0.0
H275 H 0.20982 0.05811 0.53327 0.0
H276 H 0.33288 0.04316 0.6619 0.0
H277 H 0.37324 0.10522 0.53332 0.0
H278 H 0.33246 0.11478 0.45929 0.0
H279 H 0.29235 0.05274 0.58792 0.0
C280 C 0.50876 0.34783 0.21486 0.0
C281 C 0.50125 0.37305 0.23353 0.0
C282 C 0.50642 0.39406 0.11309 0.0
C283 C 0.50004 0.39599 0.18294 0.0
C284 C 0.51404 0.36874 0.09534 0.0
C285 C 0.51516 0.34601 0.14548 0.0
U286 U 0.51439 0.29617 0.39015 0.0
O287 O 0.53202 0.2549 0.39584 0.0
O288 O 0.48844 0.26208 0.41244 0.0
C289 C 0.50885 0.24423 0.41192 0.0
C290 C 0.50839 0.32254 0.26352 0.0
C291 C 0.50967 0.22097 0.46751 0.0
C292 C 0.50263 0.17371 0.50026 0.0
C293 C 0.50146 0.19662 0.45061 0.0
C294 C 0.51976 0.19914 0.58586 0.0
C295 C 0.51184 0.17469 0.56821 0.0
C296 C 0.51878 0.22218 0.53569 0.0
C297 C 0.53006 0.34629 0.51789 0.0
C298 C 0.54201 0.37051 0.61139 0.0
C299 C 0.52149 0.39446 0.50505 0.0
C300 C 0.52068 0.37037 0.47763 0.0
C301 C 0.53142 0.3945 0.57302 0.0
C302 C 0.54138 0.34663 0.58392 0.0
C303 C 0.5258 0.32021 0.49668 0.0
O304 O 0.53176 0.31132 0.28884 0.0
O305 O 0.48837 0.31952 0.30772 0.0
O306 O 0.54461 0.31029 0.45842 0.0
O307 O 0.50089 0.31634 0.47757 0.0
H308 H 0.49611 0.37497 0.28673 0.0
H309 H 0.4943 0.41523 0.19846 0.0
H310 H 0.51864 0.36636 0.0421 0.0
H311 H 0.52061 0.32675 0.12959 0.0
H312 H 0.49642 0.15511 0.48548 0.0
H313 H 0.49435 0.19524 0.39845 0.0
H314 H 0.52708 0.20028 0.63795 0.0
H315 H 0.52529 0.24077 0.54986 0.0
H316 H 0.54989 0.37011 0.66373 0.0
H317 H 0.51304 0.41274 0.47481 0.0
H318 H 0.51177 0.37039 0.42653 0.0
H319 H 0.54866 0.32819 0.61562 0.0
Co320 Co 0.0136 0.03011 0.82951 0.0
C321 C 0.96065 0.01159 0.84262 0.0
Co322 Co 0.99705 0.01503 0.73607 0.0
C323 C 0.02397 0.07085 0.91766 0.0
C324 C 0.02868 0.03134 0.97354 0.0
N325 N 0.02375 0.04473 0.90916 0.0
N326 N 0.02857 0.07422 0.98446 0.0
C327 C 0.03176 0.04931 0.01957 0.0
H328 H 0.02036 0.08723 0.87595 0.0
H329 H 0.02881 0.00989 0.98713 0.0
C330 C 0.04991 0.03427 0.72289 0.0
N331 N 0.9873 1.0004 0.6558 0.0
C332 C 0.98847 0.97424 0.64733 0.0
C333 C 0.9833 0.01352 0.59075 0.0
N334 N 0.98595 0.9705 0.58016 0.0
C335 C 0.98234 0.99529 0.54446 0.0
C336 C 0.98496 0.06813 0.73378 0.0
O337 O 0.04723 0.0387 0.78548 0.0
O338 O 0.03072 0.02393 0.6938 0.0
O339 O 0.98164 0.04918 0.69871 0.0
O340 O 0.99805 0.06346 0.79091 0.0
O341 O 0.9633 1.00634 0.7806 0.0
H342 H 0.98285 0.03498 0.57695 0.0
H343 H 0.99203 0.95809 0.68925 0.0
O344 O 0.98006 0.0217 0.87136 0.0
O345 O 0.02889 0.9957 0.86724 0.0
O346 O 0.01245 0.98171 0.77482 0.0
C347 C 0.02502 0.97676 0.83256 0.0
H348 H 0.03482 0.04436 0.07519 0.0
H349 H 0.98075 1.00005 0.48848 0.0
Co350 Co 0.49478 0.03059 0.83649 0.0
C351 C 0.49474 0.9751 0.83965 0.0
Co352 Co 0.51249 0.01596 0.74162 0.0
C353 C 0.45318 0.04441 0.9346 0.0
C354 C 0.49319 0.0492 0.97181 0.0
N355 N 0.47976 0.04202 0.9173 0.0
N356 N 0.44954 0.05294 0.99701 0.0
C357 C 0.47481 0.05582 0.02053 0.0
H358 H 0.43669 0.04016 0.90184 0.0
H359 H 0.51502 0.04952 0.97648 0.0
C360 C 0.51221 0.07147 0.73861 0.0
N361 N 0.52743 1.00502 0.65937 0.0
C362 C 0.55393 1.00101 0.64214 0.0
C363 C 0.51356 1.00317 0.60016 0.0
N364 N 0.55685 0.99715 0.57497 0.0
C365 C 0.53145 0.99855 0.54864 0.0
C366 C 0.45725 0.03074 0.73268 0.0
O367 O 0.50157 0.0668 0.79845 0.0
O368 O 0.51916 0.05199 0.70636 0.0
O369 O 0.47702 0.02148 0.69988 0.0
O370 O 0.4609 0.03541 0.79402 0.0
O371 O 0.50561 0.97955 0.77989 0.0
H372 H 0.49177 1.00587 0.59332 0.0
H373 H 0.57092 1.00216 0.67691 0.0
O374 O 0.488 0.99472 0.87164 0.0
O375 O 0.52966 0.02512 0.87857 0.0
O376 O 0.54677 0.01121 0.78496 0.0
C377 C 0.54972 0.01592 0.84682 0.0
H378 H 0.47983 0.0619 0.07 0.0
H379 H 0.52619 0.99669 0.49546 0.0
Co380 Co 0.52558 0.52384 0.79668 0.0
C381 C 0.50139 0.48436 0.89075 0.0
Co382 Co 0.48092 0.52014 0.77969 0.0
C383 C 0.57625 0.54176 0.85476 0.0
C384 C 0.58249 0.50632 0.80767 0.0
N385 N 0.56312 0.52523 0.8181 0.0
N386 N 0.60291 0.53383 0.86725 0.0
C387 C 0.60659 0.5115 0.8372 0.0
H388 H 0.56623 0.55881 0.87374 0.0
H389 H 0.57922 0.48887 0.78329 0.0
C390 C 0.50501 0.55966 0.68536 0.0
N391 N 0.44352 0.51863 0.75843 0.0
C392 C 0.43037 0.50094 0.72578 0.0
C393 C 0.42432 0.53827 0.76426 0.0
N394 N 0.40387 0.50886 0.71121 0.0
C395 C 0.40026 0.53237 0.73587 0.0
C396 C 0.49206 0.55633 0.86796 0.0
O397 O 0.52693 0.55249 0.72026 0.0
O398 O 0.48341 0.54785 0.70236 0.0
O399 O 0.47304 0.54633 0.83794 0.0
O400 O 0.51661 0.5489 0.858 0.0
O401 O 0.47922 0.49259 0.85819 0.0
H402 H 0.42774 0.5566 0.78445 0.0
H403 H 0.44029 0.48301 0.71103 0.0
O404 O 0.52336 0.4951 0.87165 0.0
O405 O 0.53346 0.49857 0.73459 0.0
O406 O 0.48972 0.4939 0.72261 0.0
C407 C 0.51413 0.48741 0.70905 0.0
H408 H 0.62504 0.49874 0.83921 0.0
H409 H 0.38193 0.54537 0.73056 0.0
Co410 Co 0.01183 0.54046 0.79547 0.0
C411 C 0.03629 0.50001 0.89355 0.0
Co412 Co 0.99948 0.49942 0.78476 0.0
C413 C 0.0138 0.5873 0.86619 0.0
C414 C 0.0371 0.59154 0.7736 0.0
N415 N 0.02098 0.57467 0.81143 0.0
N416 N 0.02453 0.61144 0.86402 0.0
C417 C 0.03937 0.61394 0.80557 0.0
H418 H 1.00126 0.57858 0.90761 0.0
H419 H 0.04693 0.58775 0.72615 0.0
C420 C 0.97493 0.5397 0.68638 0.0
N421 N 0.99007 0.46518 0.76853 0.0
C422 C 1.00389 0.44793 0.73206 0.0
C423 C 0.9658 0.45457 0.78017 0.0
N424 N 0.98913 0.42732 0.71951 0.0
C425 C 0.96518 0.43151 0.75051 0.0
C426 C 0.96549 0.52491 0.86682 0.0
O427 O 0.98902 0.55541 0.71594 0.0
O428 O 0.97711 0.51476 0.70811 0.0
O429 O 0.96934 0.50271 0.84416 0.0
O430 O 0.98182 0.5431 0.85185 0.0
O431 O 0.02277 0.48437 0.8624 0.0
H432 H 0.94886 0.4637 0.805 0.0
H433 H 0.0241 0.45097 0.7127 0.0
O434 O 0.03361 0.52509 0.87365 0.0
O435 O 0.04261 0.53689 0.73827 0.0
O436 O 0.0289 0.4973 0.72624 0.0
C437 C 0.04582 0.51508 0.71337 0.0
H438 H 0.05134 0.63058 0.7868 0.0
H439 H 0.94766 0.41975 0.74869 0.0
C440 C 0.1188 0.06104 0.67046 0.0
C441 C 0.11882 0.0592 0.59891 0.0
H442 H 0.09686 0.0549 0.76615 0.0
C443 C 0.09666 0.04823 0.56992 0.0
H444 H 0.13562 0.06941 0.69424 0.0
C445 C 0.07479 0.03976 0.6107 0.0
C446 C 0.07426 0.04213 0.68187 0.0
H447 H 0.09623 0.0461 0.51526 0.0
H448 H 0.05807 0.03164 0.58585 0.0
C449 C 0.09661 0.05277 0.71151 0.0
C450 C 0.53448 0.12999 0.61244 0.0
C451 C 0.51386 0.14977 0.6189 0.0
H452 H 0.55036 0.08985 0.64616 0.0
C453 C 0.49379 0.14438 0.66905 0.0
H454 H 0.55008 0.13366 0.57387 0.0
C455 C 0.49403 0.11935 0.71091 0.0
C456 C 0.5142 0.0992 0.70279 0.0
H457 H 0.47737 0.15916 0.67392 0.0
H458 H 0.47767 0.1153 0.74706 0.0
C459 C 0.53462 0.10497 0.65376 0.0
C460 C 0.33733 0.49628 0.62797 0.0
C461 C 0.34534 0.4781 0.58248 0.0
H462 H 0.34897 0.5194 0.70544 0.0
C463 C 0.37287 0.46851 0.58458 0.0
H464 H 0.31655 0.50445 0.62814 0.0
C465 C 0.39194 0.47789 0.62793 0.0
C466 C 0.38403 0.49693 0.67124 0.0
H467 H 0.37992 0.45399 0.5519 0.0
H468 H 0.41296 0.47071 0.62574 0.0
C469 C 0.35625 0.50532 0.67189 0.0
C470 C 0.98433 0.3675 0.62482 0.0
C471 C 0.00588 0.37058 0.57793 0.0
H472 H 0.9625 0.38236 0.70708 0.0
C473 C 0.02308 0.39154 0.58234 0.0
H474 H 0.97053 0.35175 0.62316 0.0
C475 C 0.01809 0.40964 0.62962 0.0
C476 C 0.99585 0.40725 0.67474 0.0
H477 H 0.04032 0.39427 0.54845 0.0
H478 H 0.03139 0.42586 0.62898 0.0
C479 C 0.97948 0.38545 0.67264 0.0
C480 C 0.90883 0.0134 0.98418 0.0
C481 C 0.89157 0.9934 0.97216 0.0
H482 H 0.94365 0.0348 0.95284 0.0
C483 C 0.89578 0.9807 0.91278 0.0
H484 H 0.90576 0.02415 0.02813 0.0
C485 C 0.91767 0.98708 0.86852 0.0
C486 C 0.93565 1.00621 0.88312 0.0
H487 H 0.88279 0.96524 0.90197 0.0
H488 H 0.92107 0.97642 0.82454 0.0
C489 C 0.93055 0.01961 0.94065 0.0
C490 C 0.50823 0.90085 0.90584 0.0
C491 C 0.48915 0.89682 0.95954 0.0
H492 H 0.52481 0.92858 0.82503 0.0
C493 C 0.47039 0.91822 0.96768 0.0
H494 H 0.52317 0.88507 0.89789 0.0
C495 C 0.47172 0.94316 0.92693 0.0
C496 C 0.4914 0.94748 0.87533 0.0
H497 H 0.45478 0.91593 0.00656 0.0
H498 H 0.45751 0.95931 0.93674 0.0
C499 C 0.50923 0.92585 0.86395 0.0
C500 C 0.66991 0.54437 0.95208 0.0
C501 C 0.66226 0.56161 1.00021 0.0
H502 H 0.65786 0.52297 0.87146 0.0
C503 C 0.63473 0.57118 0.9999 0.0
H504 H 0.69064 0.53621 0.95037 0.0
C505 C 0.61538 0.56274 0.95547 0.0
C506 C 0.62297 0.54468 0.90922 0.0
H507 H 0.62789 0.58503 0.03462 0.0
H508 H 0.59441 0.56993 0.9589 0.0
C509 C 0.65073 0.53628 0.90713 0.0
C510 C 0.03219 0.67202 0.95516 0.0
C511 C 0.01625 0.66622 0.01443 0.0
H512 H 0.04746 0.65964 0.86181 0.0
C513 C 1.00228 0.64257 0.02185 0.0
H514 H 0.0434 0.68991 0.94765 0.0
C515 C 1.00474 0.62489 0.97271 0.0
C516 C 0.02128 0.63022 0.91408 0.0
H517 H 0.98929 0.63762 0.0659 0.0
H518 H 0.99363 0.60702 0.98155 0.0
C519 C 0.03467 0.65433 0.90583 0.0
C520 C 0.97768 0.129 0.60114 0.0
C521 C 0.98448 0.14848 0.64185 0.0
H522 H 0.97195 0.08766 0.59906 0.0
C523 C 0.98549 0.14248 0.71413 0.0
H524 H 0.977 0.13352 0.54494 0.0
C525 C 0.98217 0.11639 0.74523 0.0
C526 C 0.97861 0.09608 0.70398 0.0
H527 H 0.99075 0.1574 0.74592 0.0
H528 H 0.9847 0.11175 0.80107 0.0
C529 C 0.97472 0.10286 0.63205 0.0
C530 C 0.38401 0.05536 0.70799 0.0
C531 C 0.38233 0.06278 0.63583 0.0
H532 H 0.40906 0.03864 0.79505 0.0
C533 C 0.40511 0.05818 0.59508 0.0
H534 H 0.36669 0.05862 0.74038 0.0
C535 C 0.42928 0.04646 0.62617 0.0
C536 C 0.43103 0.03939 0.69845 0.0
H537 H 0.4041 0.06328 0.53906 0.0
H538 H 0.44675 0.04363 0.59392 0.0
C539 C 0.40818 0.04381 0.73906 0.0
C540 C 0.5373 0.44325 0.57696 0.0
C541 C 0.52797 0.41865 0.60732 0.0
H542 H 0.54078 0.48473 0.58696 0.0
C543 C 0.51467 0.41701 0.67124 0.0
H544 H 0.54761 0.44489 0.52768 0.0
C545 C 0.51036 0.43959 0.70384 0.0
C546 C 0.51971 0.46408 0.67382 0.0
H547 H 0.50713 0.39831 0.6954 0.0
H548 H 0.49977 0.43792 0.75279 0.0
C549 C 0.53352 0.46585 0.6107 0.0
C550 C 0.11802 0.49389 0.68085 0.0
C551 C 0.11451 0.48104 0.62222 0.0
H552 H 0.09841 0.51577 0.7555 0.0
C553 C 0.0889 0.48308 0.58898 0.0
H554 H 0.13761 0.49272 0.70703 0.0
C555 C 0.06689 0.49633 0.61596 0.0
C556 C 0.07011 0.5082 0.67593 0.0
H557 H 0.08576 0.47416 0.54232 0.0
H558 H 0.04704 0.49641 0.59153 0.0
C559 C 0.09584 0.50742 0.70771 0.0
C560 C 0.01756 0.90291 0.87095 0.0
C561 C 0.03283 0.89622 0.93239 0.0
H562 H 1.0032 0.9336 0.79156 0.0
C563 C 0.04858 0.91544 0.95632 0.0
H564 H 1.00513 0.88846 0.85193 0.0
C565 C 0.0474 0.94162 0.92183 0.0
C566 C 0.03073 0.94868 0.86263 0.0
H567 H 0.06024 0.91074 1.00439 0.0
H568 H 0.05844 0.95652 0.94322 0.0
C569 C 0.01661 0.92885 0.83627 0.0
C570 C 0.59891 0.98581 0.98857 0.0
C571 C 0.62352 0.98553 0.95257 0.0
H572 H 0.55623 0.99642 0.9832 0.0
C573 C 0.62369 0.99652 0.88193 0.0
H574 H 0.59799 0.97717 0.04267 0.0
C575 C 0.59972 1.00705 0.84776 0.0
C576 C 0.5753 1.00738 0.88401 0.0
H577 H 0.64239 0.99731 0.85304 0.0
H578 H 0.60026 0.01497 0.79303 0.0
C579 C 0.57504 0.99691 0.95471 0.0
C580 C 0.49995 0.60526 0.99492 0.0
C581 C 0.47659 0.62242 0.97975 0.0
H582 H 0.52325 0.57081 0.9708 0.0
C583 C 0.45726 0.61633 0.93185 0.0
H584 H 0.51529 0.60963 0.03114 0.0
C585 C 0.46174 0.59407 0.89772 0.0
C586 C 0.4858 0.57775 0.9102 0.0
H587 H 0.43904 0.62921 0.91943 0.0
H588 H 0.44694 0.59036 0.85932 0.0
C589 C 0.50462 0.58321 0.96001 0.0
C590 C 0.89262 0.54312 0.90071 0.0
C591 C 0.89563 0.55741 0.95695 0.0
H592 H 0.913 0.52064 0.82846 0.0
C593 C 0.92141 0.55754 0.98825 0.0
H594 H 0.87294 0.5426 0.876 0.0
C595 C 0.94394 0.54496 0.96169 0.0
C596 C 0.94111 0.53157 0.90416 0.0
H597 H 0.92427 0.56755 0.03322 0.0
H598 H 0.9638 0.54646 0.98462 0.0
C599 C 0.91532 0.53023 0.87438 0.0
C600 C 0.01074 0.14524 0.0131 0.0
C601 C 0.02563 0.14703 0.07427 0.0
H602 H 0.99991 0.1209 0.93673 0.0
C603 C 0.04173 0.1244 0.10447 0.0
H604 H 0.99769 0.16197 0.98881 0.0
C605 C 0.04279 0.10074 0.07477 0.0
C606 C 0.02797 0.099 0.01368 0.0
H607 H 0.05392 0.12501 0.15068 0.0
H608 H 0.05554 0.08385 0.0993 0.0
C609 C 0.01199 0.12161 0.98306 0.0
C610 C 0.398 0.07968 0.11657 0.0
C611 C 0.37437 0.06746 0.10013 0.0
H612 H 0.44005 0.08509 0.09634 0.0
C613 C 0.37598 0.05047 0.04865 0.0
H614 H 0.39756 0.09322 0.15496 0.0
C615 C 0.40043 0.04583 0.01473 0.0
C616 C 0.4241 0.05795 0.03141 0.0
H617 H 0.35843 0.04027 0.03523 0.0
H618 H 0.40081 0.03232 0.97636 0.0
C619 C 0.42248 0.075 0.08274 0.0
C620 C 0.48307 0.43711 0.05215 0.0
C621 C 0.50526 0.41803 0.05813 0.0
H622 H 0.46405 0.4728 0.99357 0.0
C623 C 0.52603 0.4213 0.00891 0.0
H624 H 0.46665 0.43512 0.08888 0.0
C625 C 0.5247 0.44294 0.95531 0.0
C626 C 0.50231 0.46167 0.94843 0.0
H627 H 0.54348 0.40711 0.01197 0.0
H628 H 0.54106 0.44478 0.91832 0.0
C629 C 0.48144 0.45853 0.99729 0.0
C630 C 0.0932 0.45662 0.9937 0.0
C631 C 0.1018 0.47344 0.04036 0.0
H632 H 0.06533 0.45149 0.91175 0.0
C633 C 0.08704 0.49798 0.04195 0.0
H634 H 0.10399 0.43752 0.99135 0.0
C635 C 0.06509 0.50601 0.99618 0.0
C636 C 0.05697 0.48956 0.94825 0.0
H637 H 0.09318 0.51159 0.07657 0.0
H638 H 0.05485 0.52548 0.99716 0.0
C639 C 0.07088 0.46449 0.94854 0.0
C640 C 0.00817 0.89935 0.56111 0.0
C641 C 0.99645 0.89649 0.49653 0.0
H642 H 0.01435 0.92482 0.63785 0.0
C643 C 0.98144 0.91865 0.45974 0.0
H644 H 0.02037 0.88303 0.59043 0.0
C645 C 0.97804 0.9428 0.48703 0.0
C646 C 0.98942 0.9455 0.55203 0.0
H647 H 0.97177 0.91722 0.41036 0.0
H648 H 0.96605 0.95923 0.45764 0.0
C649 C 1.00467 0.92344 0.5885 0.0
C650 C 0.62674 0.97242 0.52649 0.0
C651 C 0.62922 0.98574 0.45799 0.0
H652 H 0.60212 0.96605 0.61769 0.0
C653 C 0.60736 1.00334 0.43015 0.0
H654 H 0.64259 0.95824 0.55 0.0
C655 C 0.58386 1.00709 0.46867 0.0
C656 C 0.58163 0.9939 0.53685 0.0
H657 H 0.60837 0.01463 0.37876 0.0
H658 H 0.56745 0.02067 0.4454 0.0
C659 C 0.60345 0.97673 0.56561 0.0
C660 C 0.47798 0.62003 0.56004 0.0
C661 C 0.50014 0.62559 0.51617 0.0
H662 H 0.46221 0.59501 0.64687 0.0
C663 C 0.52413 0.60892 0.52816 0.0
H664 H 0.45913 0.63226 0.55232 0.0
C665 C 0.52605 0.58768 0.58356 0.0
C666 C 0.50379 0.58225 0.62711 0.0
H667 H 0.54164 0.61268 0.49575 0.0
H668 H 0.5448 0.57532 0.59183 0.0
C669 C 0.47971 0.59857 0.6142 0.0
C670 C 0.92365 0.54009 0.53984 0.0
C671 C 0.90932 0.56502 0.53846 0.0
H672 H 0.95551 0.51277 0.58698 0.0
C673 C 0.91847 0.58267 0.58236 0.0
H674 H 0.91712 0.52582 0.50757 0.0
C675 C 0.94085 0.57522 0.62776 0.0
C676 C 0.95431 0.54979 0.63104 0.0
H677 H 0.90807 0.60211 0.58238 0.0
H678 H 0.9468 0.58887 0.66245 0.0
C679 C 0.94566 0.53254 0.58571 0.0
loop_
_geom_bond_atom_site_label_1
_geom_bond_atom_site_label_2
_geom_bond_distance
_geom_bond_site_symmetry_2
_ccdc_geom_bond_type
C0 C1 1.264 . S
C0 C5 1.479 . S
C0 C10 1.465 . S
C1 C0 1.264 . S
C1 C3 1.339 . S
C1 H28 0.931 . S
C2 C3 1.395 . S
C2 C4 1.320 . S
C3 C1 1.339 . S
C3 C2 1.395 . S
C3 H29 0.929 . S
C4 C2 1.320 . S
C4 C5 1.405 . S
C4 H30 0.930 . S
C5 C0 1.479 . S
C5 C4 1.405 . S
C5 H31 0.931 . S
U6 O7 2.454 . S
U6 O8 2.458 . S
U6 C9 2.984 . S
U6 C10 2.847 . S
U6 C23 2.882 . S
U6 O24 2.441 . S
U6 O25 2.420 . S
U6 O26 2.455 . S
U6 O27 2.449 . S
O7 U6 2.454 . S
O7 C9 1.353 . S
O8 U6 2.458 . S
O8 C9 1.286 . S
C9 U6 2.984 . S
C9 O7 1.353 . S
C9 O8 1.286 . S
C9 C11 1.363 . S
C10 C0 1.465 . S
C10 U6 2.847 . S
C10 O24 1.249 . S
C10 O25 1.202 . S
C11 C9 1.363 . S
C11 C13 1.408 . S
C11 C16 1.342 . S
C12 C13 1.310 . S
C12 C15 1.461 . S
C12 H32 0.932 . S
C13 C11 1.408 . S
C13 C12 1.310 . S
C13 H33 0.930 . S
C14 C15 1.467 1_556 S
C14 C16 1.282 1_556 S
C14 H34 0.941 . S
C15 C12 1.461 . S
C15 C14 1.467 1_554 S
C16 C11 1.342 . S
C16 C14 1.282 1_554 S
C16 H35 0.930 1_554 S
C17 C20 1.424 1_556 S
C17 C22 1.245 . S
C17 C23 1.428 1_556 S
C18 C21 1.260 . S
C18 C22 1.477 . S
C18 H36 0.932 . S
C19 C20 1.384 1_556 S
C19 C21 1.479 . S
C19 H37 0.929 . S
C20 C17 1.424 1_554 S
C20 C19 1.384 1_554 S
C20 H38 0.928 . S
C21 C18 1.260 . S
C21 C19 1.479 . S
C22 C17 1.245 . S
C22 C18 1.477 . S
C22 H39 0.932 . S
C23 U6 2.882 . S
C23 C17 1.428 1_554 S
C23 O26 1.301 . S
C23 O27 1.282 . S
O24 U6 2.441 . S
O24 C10 1.249 . S
O25 U6 2.420 . S
O25 C10 1.202 . S
O26 U6 2.455 . S
O26 C23 1.301 . S
O27 U6 2.449 . S
O27 C23 1.282 . S
H28 C1 0.931 . S
H29 C3 0.929 . S
H30 C4 0.930 . S
H31 C5 0.931 . S
H32 C12 0.932 . S
H33 C13 0.930 . S
H34 C14 0.941 . S
H35 C16 0.930 1_556 S
H36 C18 0.932 . S
H37 C19 0.929 . S
H38 C20 0.928 . S
H39 C22 0.932 . S
C40 C41 1.264 . S
C40 C45 1.479 . S
C40 C50 1.465 . S
C41 C40 1.264 . S
C41 C43 1.339 . S
C41 H68 0.931 . S
C42 C43 1.395 . S
C42 C44 1.320 . S
C43 C41 1.339 . S
C43 C42 1.395 . S
C43 H69 0.929 . S
C44 C42 1.320 . S
C44 C45 1.405 . S
C44 H70 0.930 1_455 S
C45 C40 1.479 . S
C45 C44 1.405 . S
C45 H71 0.931 . S
U46 O47 2.454 . S
U46 O48 2.458 . S
U46 C49 2.984 . S
U46 C50 2.847 . S
U46 C63 2.882 . S
U46 O64 2.441 . S
U46 O65 2.420 . S
U46 O66 2.455 . S
U46 O67 2.449 . S
O47 U46 2.454 . S
O47 C49 1.353 . S
O48 U46 2.458 . S
O48 C49 1.286 . S
C49 U46 2.984 . S
C49 O47 1.353 . S
C49 O48 1.286 . S
C49 C51 1.363 . S
C50 C40 1.465 . S
C50 U46 2.847 . S
C50 O64 1.249 . S
C50 O65 1.202 . S
C51 C49 1.363 . S
C51 C53 1.408 . S
C51 C56 1.342 . S
C52 C53 1.310 . S
C52 C55 1.461 . S
C52 H72 0.932 . S
C53 C51 1.408 . S
C53 C52 1.310 . S
C53 H73 0.930 . S
C54 C55 1.475 1_655 S
C54 C56 1.284 1_655 S
C54 H74 0.930 1_554 S
C55 C52 1.461 . S
C55 C54 1.475 1_455 S
C56 C51 1.342 . S
C56 C54 1.284 1_455 S
C56 H75 0.930 1_554 S
C57 C60 1.424 . S
C57 C62 1.245 . S
C57 C63 1.428 1_556 S
C58 C61 1.260 . S
C58 C62 1.477 . S
C58 H76 0.932 . S
C59 C60 1.384 . S
C59 C61 1.479 . S
C59 H77 0.929 . S
C60 C57 1.424 . S
C60 C59 1.384 . S
C60 H78 0.928 1_556 S
C61 C58 1.260 . S
C61 C59 1.479 . S
C62 C57 1.245 . S
C62 C58 1.477 . S
C62 H79 0.932 . S
C63 U46 2.882 . S
C63 C57 1.428 1_554 S
C63 O66 1.301 . S
C63 O67 1.282 . S
O64 U46 2.441 . S
O64 C50 1.249 . S
O65 U46 2.420 . S
O65 C50 1.202 . S
O66 U46 2.455 . S
O66 C63 1.301 . S
O67 U46 2.449 . S
O67 C63 1.282 . S
H68 C41 0.931 . S
H69 C43 0.929 . S
H70 C44 0.930 1_655 S
H71 C45 0.931 . S
H72 C52 0.932 . S
H73 C53 0.930 . S
H74 C54 0.930 1_556 S
H75 C56 0.930 1_556 S
H76 C58 0.932 . S
H77 C59 0.929 . S
H78 C60 0.928 1_554 S
H79 C62 0.932 . S
C80 C81 1.264 . S
C80 C85 1.479 . S
C80 C90 1.465 . S
C81 C80 1.264 . S
C81 C83 1.339 . S
C81 H108 0.931 . S
C82 C83 1.395 . S
C82 C84 1.320 . S
C83 C81 1.339 . S
C83 C82 1.395 . S
C83 H109 0.929 . S
C84 C82 1.320 . S
C84 C85 1.405 . S
C84 H110 0.930 . S
C85 C80 1.479 . S
C85 C84 1.405 . S
C85 H111 0.931 . S
U86 O87 2.454 . S
U86 O88 2.458 . S
U86 C89 2.984 . S
U86 C90 2.847 . S
U86 C103 2.882 1_554 S
U86 O104 2.441 . S
U86 O105 2.420 . S
U86 O106 2.455 1_554 S
U86 O107 2.449 . S
O87 U86 2.454 . S
O87 C89 1.353 . S
O88 U86 2.458 . S
O88 C89 1.286 . S
C89 U86 2.984 . S
C89 O87 1.353 . S
C89 O88 1.286 . S
C89 C91 1.363 . S
C90 C80 1.465 . S
C90 U86 2.847 . S
C90 O104 1.249 . S
C90 O105 1.202 . S
C91 C89 1.363 . S
C91 C93 1.408 . S
C91 C96 1.342 1_554 S
C92 C93 1.310 . S
C92 C95 1.461 . S
C92 H112 0.932 . S
C93 C91 1.408 . S
C93 C92 1.310 . S
C93 H113 0.930 . S
C94 C95 1.474 1_556 S
C94 C96 1.285 . S
C94 H114 0.929 . S
C95 C92 1.461 . S
C95 C94 1.474 1_554 S
C96 C91 1.342 1_556 S
C96 C94 1.285 . S
C96 H115 0.930 . S
C97 C100 1.424 . S
C97 C102 1.245 . S
C97 C103 1.428 . S
C98 C101 1.260 . S
C98 C102 1.477 . S
C98 H116 0.932 . S
C99 C100 1.384 . S
C99 C101 1.479 . S
C99 H117 0.929 . S
C100 C97 1.424 . S
C100 C99 1.384 . S
C100 H118 0.928 1_556 S
C101 C98 1.260 . S
C101 C99 1.479 . S
C102 C97 1.245 . S
C102 C98 1.477 . S
C102 H119 0.932 . S
C103 U86 2.882 1_556 S
C103 C97 1.428 . S
C103 O106 1.301 . S
C103 O107 1.282 1_556 S
O104 U86 2.441 . S
O104 C90 1.249 . S
O105 U86 2.420 . S
O105 C90 1.202 . S
O106 U86 2.455 1_556 S
O106 C103 1.301 . S
O107 U86 2.449 . S
O107 C103 1.282 1_554 S
H108 C81 0.931 . S
H109 C83 0.929 . S
H110 C84 0.930 . S
H111 C85 0.931 . S
H112 C92 0.932 . S
H113 C93 0.930 . S
H114 C94 0.929 . S
H115 C96 0.930 . S
H116 C98 0.932 . S
H117 C99 0.929 . S
H118 C100 0.928 1_554 S
H119 C102 0.932 . S
C120 C121 1.264 . S
C120 C125 1.479 . S
C120 C130 1.465 . S
C121 C120 1.264 . S
C121 C123 1.339 . S
C121 H148 0.931 . S
C122 C123 1.395 . S
C122 C124 1.320 . S
C123 C121 1.339 . S
C123 C122 1.395 . S
C123 H149 0.929 . S
C124 C122 1.320 . S
C124 C125 1.405 . S
C124 H150 0.930 . S
C125 C120 1.479 . S
C125 C124 1.405 . S
C125 H151 0.931 . S
U126 O127 2.454 . S
U126 O128 2.458 . S
U126 C129 2.984 . S
U126 C130 2.847 . S
U126 C143 2.882 . S
U126 O144 2.441 . S
U126 O145 2.420 . S
U126 O146 2.455 . S
U126 O147 2.449 . S
O127 U126 2.454 . S
O127 C129 1.353 . S
O128 U126 2.458 . S
O128 C129 1.286 . S
C129 U126 2.984 . S
C129 O127 1.353 . S
C129 O128 1.286 . S
C129 C131 1.363 . S
C130 C120 1.465 . S
C130 U126 2.847 . S
C130 O144 1.249 . S
C130 O145 1.202 . S
C131 C129 1.363 . S
C131 C133 1.408 . S
C131 C136 1.342 1_554 S
C132 C133 1.310 . S
C132 C135 1.461 . S
C132 H152 0.932 . S
C133 C131 1.408 . S
C133 C132 1.310 . S
C133 H153 0.930 . S
C134 C135 1.474 1_556 S
C134 C136 1.285 . S
C134 H154 0.929 . S
C135 C132 1.461 . S
C135 C134 1.474 1_554 S
C136 C131 1.342 1_556 S
C136 C134 1.285 . S
C136 H155 0.930 . S
C137 C140 1.424 1_556 S
C137 C142 1.245 . S
C137 C143 1.428 1_556 S
C138 C141 1.260 . S
C138 C142 1.477 . S
C138 H156 0.932 . S
C139 C140 1.384 1_556 S
C139 C141 1.479 . S
C139 H157 0.929 . S
C140 C137 1.424 1_554 S
C140 C139 1.384 1_554 S
C140 H158 0.928 . S
C141 C138 1.260 . S
C141 C139 1.479 . S
C142 C137 1.245 . S
C142 C138 1.477 . S
C142 H159 0.932 . S
C143 U126 2.882 . S
C143 C137 1.428 1_554 S
C143 O146 1.301 . S
C143 O147 1.282 . S
O144 U126 2.441 . S
O144 C130 1.249 . S
O145 U126 2.420 . S
O145 C130 1.202 . S
O146 U126 2.455 . S
O146 C143 1.301 . S
O147 U126 2.449 . S
O147 C143 1.282 . S
H148 C121 0.931 . S
H149 C123 0.929 . S
H150 C124 0.930 . S
H151 C125 0.931 . S
H152 C132 0.932 . S
H153 C133 0.930 . S
H154 C134 0.929 . S
H155 C136 0.930 . S
H156 C138 0.932 . S
H157 C139 0.929 . S
H158 C140 0.928 . S
H159 C142 0.932 . S
C160 C161 1.264 . S
C160 C165 1.479 . S
C160 C170 1.465 . S
C161 C160 1.264 . S
C161 C163 1.339 . S
C161 H188 0.931 . S
C162 C163 1.395 . S
C162 C164 1.320 . S
C163 C161 1.339 . S
C163 C162 1.395 . S
C163 H189 0.929 . S
C164 C162 1.320 . S
C164 C165 1.405 . S
C164 H190 0.930 . S
C165 C160 1.479 . S
C165 C164 1.405 . S
C165 H191 0.931 . S
U166 O167 2.454 . S
U166 O168 2.458 . S
U166 C169 2.984 . S
U166 C170 2.847 . S
U166 C183 2.882 . S
U166 O184 2.441 . S
U166 O185 2.420 . S
U166 O186 2.455 . S
U166 O187 2.449 . S
O167 U166 2.454 . S
O167 C169 1.353 . S
O168 U166 2.458 . S
O168 C169 1.286 . S
C169 U166 2.984 . S
C169 O167 1.353 . S
C169 O168 1.286 . S
C169 C171 1.363 . S
C170 C160 1.465 . S
C170 U166 2.847 . S
C170 O184 1.249 . S
C170 O185 1.202 . S
C171 C169 1.363 . S
C171 C173 1.408 . S
C171 C176 1.342 . S
C172 C173 1.310 . S
C172 C175 1.461 . S
C172 H192 0.932 . S
C173 C171 1.408 . S
C173 C172 1.310 . S
C173 H193 0.930 . S
C174 C175 1.474 . S
C174 C176 1.285 . S
C174 H194 0.929 . S
C175 C172 1.461 . S
C175 C174 1.474 . S
C176 C171 1.342 . S
C176 C174 1.285 . S
C176 H195 0.930 . S
C177 C180 1.424 . S
C177 C182 1.245 . S
C177 C183 1.428 . S
C178 C181 1.260 . S
C178 C182 1.477 . S
C178 H196 0.932 . S
C179 C180 1.384 . S
C179 C181 1.479 . S
C179 H197 0.929 . S
C180 C177 1.424 . S
C180 C179 1.384 . S
C180 H198 0.928 . S
C181 C178 1.260 . S
C181 C179 1.479 . S
C182 C177 1.245 . S
C182 C178 1.477 . S
C182 H199 0.932 . S
C183 U166 2.882 . S
C183 C177 1.428 . S
C183 O186 1.301 . S
C183 O187 1.282 . S
O184 U166 2.441 . S
O184 C170 1.249 . S
O185 U166 2.420 . S
O185 C170 1.202 . S
O186 U166 2.455 . S
O186 C183 1.301 . S
O187 U166 2.449 . S
O187 C183 1.282 . S
H188 C161 0.931 . S
H189 C163 0.929 . S
H190 C164 0.930 . S
H191 C165 0.931 . S
H192 C172 0.932 . S
H193 C173 0.930 . S
H194 C174 0.929 . S
H195 C176 0.930 . S
H196 C178 0.932 . S
H197 C179 0.929 . S
H198 C180 0.928 . S
H199 C182 0.932 . S
C200 C201 1.264 . S
C200 C205 1.479 . S
C200 C210 1.465 . S
C201 C200 1.264 . S
C201 C203 1.339 . S
C201 H228 0.931 . S
C202 C203 1.395 . S
C202 C204 1.320 . S
C203 C201 1.339 . S
C203 C202 1.395 . S
C203 H229 0.929 . S
C204 C202 1.320 . S
C204 C205 1.405 . S
C204 H230 0.924 1_455 S
C205 C200 1.479 . S
C205 C204 1.405 . S
C205 H231 0.931 . S
U206 O207 2.454 . S
U206 O208 2.458 . S
U206 C209 2.984 . S
U206 C210 2.847 . S
U206 C223 2.882 . S
U206 O224 2.441 . S
U206 O225 2.420 . S
U206 O226 2.455 . S
U206 O227 2.449 . S
O207 U206 2.454 . S
O207 C209 1.353 . S
O208 U206 2.458 . S
O208 C209 1.286 . S
C209 U206 2.984 . S
C209 O207 1.353 . S
C209 O208 1.286 . S
C209 C211 1.363 . S
C210 C200 1.465 . S
C210 U206 2.847 . S
C210 O224 1.249 . S
C210 O225 1.202 . S
C211 C209 1.363 . S
C211 C213 1.408 . S
C211 C216 1.342 . S
C212 C213 1.310 . S
C212 C215 1.462 . S
C212 H232 0.932 . S
C213 C211 1.408 . S
C213 C212 1.310 . S
C213 H233 0.930 . S
C214 C215 1.473 1_655 S
C214 C216 1.285 1_655 S
C214 H234 0.929 . S
C215 C212 1.462 . S
C215 C214 1.473 1_455 S
C216 C211 1.342 . S
C216 C214 1.285 1_455 S
C216 H235 0.930 . S
C217 C220 1.424 . S
C217 C222 1.245 . S
C217 C223 1.428 . S
C218 C221 1.260 . S
C218 C222 1.477 . S
C218 H236 0.932 . S
C219 C220 1.384 . S
C219 C221 1.479 . S
C219 H237 0.929 . S
C220 C217 1.424 . S
C220 C219 1.384 . S
C220 H238 0.928 . S
C221 C218 1.260 . S
C221 C219 1.479 . S
C222 C217 1.245 . S
C222 C218 1.477 . S
C222 H239 0.932 . S
C223 U206 2.882 . S
C223 C217 1.428 . S
C223 O226 1.301 . S
C223 O227 1.282 . S
O224 U206 2.441 . S
O224 C210 1.249 . S
O225 U206 2.420 . S
O225 C210 1.202 . S
O226 U206 2.455 . S
O226 C223 1.301 . S
O227 U206 2.449 . S
O227 C223 1.282 . S
H228 C201 0.931 . S
H229 C203 0.929 . S
H230 C204 0.924 1_655 S
H231 C205 0.931 . S
H232 C212 0.932 . S
H233 C213 0.930 . S
H234 C214 0.929 . S
H235 C216 0.930 . S
H236 C218 0.932 . S
H237 C219 0.929 . S
H238 C220 0.928 . S
H239 C222 0.932 . S
C240 C241 1.264 . S
C240 C245 1.479 . S
C240 C250 1.465 . S
C241 C240 1.264 . S
C241 C243 1.339 . S
C241 H268 0.931 . S
C242 C243 1.395 . S
C242 C244 1.320 . S
C243 C241 1.339 . S
C243 C242 1.395 . S
C243 H269 0.929 . S
C244 C242 1.320 . S
C244 C245 1.405 . S
C244 H270 0.930 . S
C245 C240 1.479 . S
C245 C244 1.405 . S
C245 H271 0.931 . S
U246 O247 2.454 . S
U246 O248 2.458 . S
U246 C249 2.984 . S
U246 C250 2.847 . S
U246 C263 2.882 . S
U246 O264 2.441 . S
U246 O265 2.420 . S
U246 O266 2.455 . S
U246 O267 2.449 . S
O247 U246 2.454 . S
O247 C249 1.353 . S
O248 U246 2.458 . S
O248 C249 1.286 . S
C249 U246 2.984 . S
C249 O247 1.353 . S
C249 O248 1.286 . S
C249 C251 1.363 . S
C250 C240 1.465 . S
C250 U246 2.847 . S
C250 O264 1.249 . S
C250 O265 1.202 . S
C251 C249 1.363 . S
C251 C253 1.408 . S
C251 C256 1.342 . S
C252 C253 1.310 . S
C252 C255 1.461 . S
C252 H272 0.932 . S
C253 C251 1.408 . S
C253 C252 1.310 . S
C253 H273 0.930 . S
C254 C255 1.474 . S
C254 C256 1.285 . S
C254 H274 0.929 . S
C255 C252 1.461 . S
C255 C254 1.474 . S
C256 C251 1.342 . S
C256 C254 1.285 . S
C256 H275 0.930 . S
C257 C260 1.424 . S
C257 C262 1.245 . S
C257 C263 1.428 . S
C258 C261 1.260 . S
C258 C262 1.477 . S
C258 H276 0.932 . S
C259 C260 1.384 . S
C259 C261 1.479 . S
C259 H277 0.929 . S
C260 C257 1.424 . S
C260 C259 1.384 . S
C260 H278 0.928 . S
C261 C258 1.260 . S
C261 C259 1.479 . S
C262 C257 1.245 . S
C262 C258 1.477 . S
C262 H279 0.932 . S
C263 U246 2.882 . S
C263 C257 1.428 . S
C263 O266 1.301 . S
C263 O267 1.282 . S
O264 U246 2.441 . S
O264 C250 1.249 . S
O265 U246 2.420 . S
O265 C250 1.202 . S
O266 U246 2.455 . S
O266 C263 1.301 . S
O267 U246 2.449 . S
O267 C263 1.282 . S
H268 C241 0.931 . S
H269 C243 0.929 . S
H270 C244 0.930 . S
H271 C245 0.931 . S
H272 C252 0.932 . S
H273 C253 0.930 . S
H274 C254 0.929 . S
H275 C256 0.930 . S
H276 C258 0.932 . S
H277 C259 0.929 . S
H278 C260 0.928 . S
H279 C262 0.932 . S
C280 C281 1.264 . S
C280 C285 1.479 . S
C280 C290 1.465 . S
C281 C280 1.264 . S
C281 C283 1.339 . S
C281 H308 0.931 . S
C282 C283 1.395 . S
C282 C284 1.320 . S
C283 C281 1.339 . S
C283 C282 1.395 . S
C283 H309 0.929 . S
C284 C282 1.320 . S
C284 C285 1.405 . S
C284 H310 0.930 . S
C285 C280 1.479 . S
C285 C284 1.405 . S
C285 H311 0.931 . S
U286 O287 2.454 . S
U286 O288 2.458 . S
U286 C289 2.984 . S
U286 C290 2.847 . S
U286 C303 2.882 . S
U286 O304 2.441 . S
U286 O305 2.420 . S
U286 O306 2.455 . S
U286 O307 2.449 . S
O287 U286 2.454 . S
O287 C289 1.353 . S
O288 U286 2.458 . S
O288 C289 1.286 . S
C289 U286 2.984 . S
C289 O287 1.353 . S
C289 O288 1.286 . S
C289 C291 1.363 . S
C290 C280 1.465 . S
C290 U286 2.847 . S
C290 O304 1.249 . S
C290 O305 1.202 . S
C291 C289 1.363 . S
C291 C293 1.408 . S
C291 C296 1.342 . S
C292 C293 1.310 . S
C292 C295 1.461 . S
C292 H312 0.932 . S
C293 C291 1.408 . S
C293 C292 1.310 . S
C293 H313 0.930 . S
C294 C295 1.474 . S
C294 C296 1.285 . S
C294 H314 0.929 . S
C295 C292 1.461 . S
C295 C294 1.474 . S
C296 C291 1.342 . S
C296 C294 1.285 . S
C296 H315 0.930 . S
C297 C300 1.424 . S
C297 C302 1.245 . S
C297 C303 1.428 . S
C298 C301 1.260 . S
C298 C302 1.477 . S
C298 H316 0.932 . S
C299 C300 1.384 . S
C299 C301 1.479 . S
C299 H317 0.929 . S
C300 C297 1.424 . S
C300 C299 1.384 . S
C300 H318 0.928 . S
C301 C298 1.260 . S
C301 C299 1.479 . S
C302 C297 1.245 . S
C302 C298 1.477 . S
C302 H319 0.932 . S
C303 U286 2.882 . S
C303 C297 1.428 . S
C303 O306 1.301 . S
C303 O307 1.282 . S
O304 U286 2.441 . S
O304 C290 1.249 . S
O305 U286 2.420 . S
O305 C290 1.202 . S
O306 U286 2.455 . S
O306 C303 1.301 . S
O307 U286 2.449 . S
O307 C303 1.282 . S
H308 C281 0.931 . S
H309 C283 0.929 . S
H310 C284 0.930 . S
H311 C285 0.931 . S
H312 C292 0.932 . S
H313 C293 0.930 . S
H314 C294 0.929 . S
H315 C296 0.930 . S
H316 C298 0.932 . S
H317 C299 0.929 . S
H318 C300 0.928 . S
H319 C302 0.932 . S
Co320 N325 2.057 . S
Co320 O337 2.021 . S
Co320 O340 2.062 1_455 S
Co320 O344 2.117 1_455 S
Co320 O345 2.020 1_545 S
C321 O341 1.259 1_545 S
C321 O344 1.258 . S
Co322 N331 2.045 1_545 S
Co322 O338 2.123 1_655 S
Co322 O339 2.044 . S
Co322 O341 2.018 1_545 S
Co322 O346 2.043 1_645 S
C323 N325 1.316 . S
C323 N326 1.347 . S
C323 H328 0.931 . S
C324 N325 1.375 1_655 S
C324 C327 1.350 1_556 S
C324 H329 0.930 . S
N325 Co320 2.057 . S
N325 C323 1.316 . S
N325 C324 1.375 1_455 S
N326 C323 1.347 . S
N326 C327 1.373 1_456 S
C327 C324 1.350 1_554 S
C327 N326 1.373 1_654 S
C327 H348 0.931 . S
H328 C323 0.931 . S
H329 C324 0.930 . S
C330 O337 1.259 . S
C330 O338 1.258 . S
N331 Co322 2.045 1_565 S
N331 C332 1.344 . S
N331 C333 1.342 1_655 S
C332 N331 1.344 . S
C332 N334 1.347 . S
C332 H343 0.931 . S
C333 N331 1.342 1_455 S
C333 C335 1.350 . S
C333 H342 0.930 . S
N334 C332 1.347 . S
N334 C335 1.373 1_655 S
C335 C333 1.350 . S
C335 N334 1.373 1_455 S
C335 H349 0.931 . S
C336 O339 1.256 . S
C336 O340 1.255 . S
O337 Co320 2.021 . S
O337 C330 1.259 . S
O338 Co322 2.123 1_455 S
O338 C330 1.258 . S
O339 Co322 2.044 . S
O339 C336 1.256 . S
O340 Co320 2.062 1_655 S
O340 C336 1.255 . S
O341 C321 1.259 1_565 S
O341 Co322 2.018 1_565 S
H342 C333 0.930 . S
H343 C332 0.931 . S
O344 Co320 2.117 1_655 S
O344 C321 1.258 . S
O345 Co320 2.020 1_565 S
O345 C347 1.256 . S
O346 Co322 2.043 1_465 S
O346 C347 1.255 . S
C347 O345 1.256 . S
C347 O346 1.255 . S
H348 C327 0.931 . S
H349 C335 0.931 . S
Co350 N355 2.057 . S
Co350 O367 2.021 . S
Co350 O370 2.062 . S
Co350 O374 2.117 1_545 S
Co350 O375 2.020 . S
C351 O371 1.259 . S
C351 O374 1.258 . S
Co352 N361 2.057 . S
Co352 O368 2.117 . S
Co352 O369 2.020 . S
Co352 O371 2.021 1_545 S
Co352 O376 2.062 1_545 S
C353 N355 1.316 . S
C353 N356 1.347 1_556 S
C353 H358 0.931 . S
C354 N355 1.375 . S
C354 C357 1.350 1_556 S
C354 H359 0.930 1_545 S
N355 Co350 2.057 . S
N355 C353 1.316 . S
N355 C354 1.375 . S
N356 C353 1.347 1_554 S
N356 C357 1.373 . S
C357 C354 1.350 1_554 S
C357 N356 1.373 . S
C357 H378 0.931 . S
H358 C353 0.931 . S
H359 C354 0.930 1_565 S
C360 O367 1.259 . S
C360 O368 1.258 . S
N361 Co352 2.057 . S
N361 C362 1.316 1_545 S
N361 C363 1.375 . S
C362 N361 1.316 1_565 S
C362 N364 1.347 . S
C362 H373 0.931 . S
C363 N361 1.375 . S
C363 C365 1.350 . S
C363 H372 0.930 . S
N364 C362 1.347 . S
N364 C365 1.373 1_565 S
C365 C363 1.350 . S
C365 N364 1.373 1_545 S
C365 H379 0.931 . S
C366 O369 1.256 . S
C366 O370 1.255 . S
O367 Co350 2.021 . S
O367 C360 1.259 . S
O368 Co352 2.117 . S
O368 C360 1.258 . S
O369 Co352 2.020 . S
O369 C366 1.256 . S
O370 Co350 2.062 . S
O370 C366 1.255 . S
O371 C351 1.259 . S
O371 Co352 2.021 1_565 S
H372 C363 0.930 . S
H373 C362 0.931 . S
O374 Co350 2.117 1_565 S
O374 C351 1.258 . S
O375 Co350 2.020 . S
O375 C377 1.256 . S
O376 Co352 2.062 1_565 S
O376 C377 1.255 1_565 S
C377 O375 1.256 . S
C377 O376 1.255 1_545 S
H378 C357 0.931 . S
H379 C365 0.931 . S
Co380 N385 2.057 . S
Co380 O397 2.021 . S
Co380 O400 2.062 . S
Co380 O404 2.117 . S
Co380 O405 2.020 . S
C381 O401 1.259 . S
C381 O404 1.258 . S
Co382 N391 2.057 . S
Co382 O398 2.117 . S
Co382 O399 2.020 . S
Co382 O401 2.021 . S
Co382 O406 2.062 . S
C383 N385 1.316 . S
C383 N386 1.347 . S
C383 H388 0.931 . S
C384 N385 1.375 . S
C384 C387 1.350 . S
C384 H389 0.930 . S
N385 Co380 2.057 . S
N385 C383 1.316 . S
N385 C384 1.375 . S
N386 C383 1.347 . S
N386 C387 1.373 . S
C387 C384 1.350 . S
C387 N386 1.373 . S
C387 H408 0.931 . S
H388 C383 0.931 . S
H389 C384 0.930 . S
C390 O397 1.259 . S
C390 O398 1.258 . S
N391 Co382 2.057 . S
N391 C392 1.316 . S
N391 C393 1.375 . S
C392 N391 1.316 . S
C392 N394 1.347 . S
C392 H403 0.931 . S
C393 N391 1.375 . S
C393 C395 1.350 . S
C393 H402 0.930 . S
N394 C392 1.347 . S
N394 C395 1.373 . S
C395 C393 1.350 . S
C395 N394 1.373 . S
C395 H409 0.931 . S
C396 O399 1.256 . S
C396 O400 1.255 . S
O397 Co380 2.021 . S
O397 C390 1.259 . S
O398 Co382 2.117 . S
O398 C390 1.258 . S
O399 Co382 2.020 . S
O399 C396 1.256 . S
O400 Co380 2.062 . S
O400 C396 1.255 . S
O401 C381 1.259 . S
O401 Co382 2.021 . S
H402 C393 0.930 . S
H403 C392 0.931 . S
O404 Co380 2.117 . S
O404 C381 1.258 . S
O405 Co380 2.020 . S
O405 C407 1.256 . S
O406 Co382 2.062 . S
O406 C407 1.255 . S
C407 O405 1.256 . S
C407 O406 1.255 . S
H408 C387 0.931 . S
H409 C395 0.931 . S
Co410 N415 2.057 . S
Co410 O427 2.021 1_455 S
Co410 O430 2.062 1_455 S
Co410 O434 2.117 . S
Co410 O435 2.020 . S
C411 O431 1.259 . S
C411 O434 1.258 . S
Co412 N421 2.057 . S
Co412 O428 2.117 . S
Co412 O429 2.020 . S
Co412 O431 2.021 1_655 S
Co412 O436 2.062 1_655 S
C413 N415 1.316 . S
C413 N416 1.347 . S
C413 H418 0.931 1_455 S
C414 N415 1.375 . S
C414 C417 1.350 . S
C414 H419 0.930 . S
N415 Co410 2.057 . S
N415 C413 1.316 . S
N415 C414 1.375 . S
N416 C413 1.347 . S
N416 C417 1.373 . S
C417 C414 1.350 . S
C417 N416 1.373 . S
C417 H438 0.931 . S
H418 C413 0.931 1_655 S
H419 C414 0.930 . S
C420 O427 1.259 . S
C420 O428 1.258 . S
N421 Co412 2.057 . S
N421 C422 1.316 . S
N421 C423 1.375 . S
C422 N421 1.316 . S
C422 N424 1.347 . S
C422 H433 0.931 1_655 S
C423 N421 1.375 . S
C423 C425 1.350 . S
C423 H432 0.930 . S
N424 C422 1.347 . S
N424 C425 1.373 . S
C425 C423 1.350 . S
C425 N424 1.373 . S
C425 H439 0.931 . S
C426 O429 1.256 . S
C426 O430 1.255 . S
O427 Co410 2.021 1_655 S
O427 C420 1.259 . S
O428 Co412 2.117 . S
O428 C420 1.258 . S
O429 Co412 2.020 . S
O429 C426 1.256 . S
O430 Co410 2.062 1_655 S
O430 C426 1.255 . S
O431 C411 1.259 . S
O431 Co412 2.021 1_455 S
H432 C423 0.930 . S
H433 C422 0.931 1_455 S
O434 Co410 2.117 . S
O434 C411 1.258 . S
O435 Co410 2.020 . S
O435 C437 1.256 . S
O436 Co412 2.062 1_455 S
O436 C437 1.255 . S
C437 O435 1.256 . S
C437 O436 1.255 . S
H438 C417 0.931 . S
H439 C425 0.931 . S
C440 C441 1.387 . S
C440 H444 0.950 . S
C440 C449 1.390 . S
C441 C440 1.387 . S
C441 C443 1.387 . S
H442 C449 0.950 . S
C443 C441 1.387 . S
C443 C445 1.390 . S
C443 H447 0.950 . S
H444 C440 0.950 . S
C445 C443 1.390 . S
C445 C446 1.387 . S
C445 H448 0.950 . S
C446 C445 1.387 . S
C446 C449 1.387 . S
H447 C443 0.950 . S
H448 C445 0.950 . S
C449 C440 1.390 . S
C449 H442 0.950 . S
C449 C446 1.387 . S
C450 C451 1.387 . S
C450 H454 0.950 . S
C450 C459 1.390 . S
C451 C450 1.387 . S
C451 C453 1.387 . S
H452 C459 0.950 . S
C453 C451 1.387 . S
C453 C455 1.390 . S
C453 H457 0.950 . S
H454 C450 0.950 . S
C455 C453 1.390 . S
C455 C456 1.387 . S
C455 H458 0.950 . S
C456 C455 1.387 . S
C456 C459 1.387 . S
H457 C453 0.950 . S
H458 C455 0.950 . S
C459 C450 1.390 . S
C459 H452 0.950 . S
C459 C456 1.387 . S
C460 C461 1.387 . S
C460 H464 0.950 . S
C460 C469 1.390 . S
C461 C460 1.387 . S
C461 C463 1.387 . S
H462 C469 0.950 . S
C463 C461 1.387 . S
C463 C465 1.390 . S
C463 H467 0.950 . S
H464 C460 0.950 . S
C465 C463 1.390 . S
C465 C466 1.387 . S
C465 H468 0.950 . S
C466 C465 1.387 . S
C466 C469 1.387 . S
H467 C463 0.950 . S
H468 C465 0.950 . S
C469 C460 1.390 . S
C469 H462 0.950 . S
C469 C466 1.387 . S
C470 C471 1.387 . S
C470 H474 0.950 . S
C470 C479 1.390 . S
C471 C470 1.387 . S
C471 C473 1.387 1_655 S
H472 C479 0.950 . S
C473 C471 1.387 1_455 S
C473 C475 1.390 . S
C473 H477 0.950 . S
H474 C470 0.950 . S
C475 C473 1.390 . S
C475 C476 1.387 1_455 S
C475 H478 0.950 . S
C476 C475 1.387 1_655 S
C476 C479 1.387 . S
H477 C473 0.950 . S
H478 C475 0.950 . S
C479 C470 1.390 . S
C479 H472 0.950 . S
C479 C476 1.387 . S
C480 C481 1.387 . S
C480 H484 0.950 . S
C480 C489 1.416 . S
C481 C480 1.387 . S
C481 C483 1.387 . S
H482 C489 0.908 1_545 S
C483 C481 1.387 . S
C483 C485 1.390 . S
C483 H487 0.950 . S
H484 C480 0.950 . S
C485 C483 1.390 . S
C485 C486 1.387 . S
C485 H488 0.950 . S
C486 C485 1.387 . S
C486 C489 1.405 . S
H487 C483 0.950 . S
H488 C485 0.950 . S
C489 C480 1.416 . S
C489 H482 0.908 1_565 S
C489 C486 1.405 . S
C490 C491 1.387 . S
C490 H494 0.950 . S
C490 C499 1.390 . S
C491 C490 1.387 . S
C491 C493 1.387 . S
H492 C499 0.950 . S
C493 C491 1.387 . S
C493 C495 1.390 . S
C493 H497 0.950 . S
H494 C490 0.950 . S
C495 C493 1.390 . S
C495 C496 1.387 . S
C495 H498 0.950 . S
C496 C495 1.387 . S
C496 C499 1.387 . S
H497 C493 0.950 . S
H498 C495 0.950 . S
C499 C490 1.390 . S
C499 H492 0.950 . S
C499 C496 1.387 . S
C500 C501 1.387 . S
C500 H504 0.950 . S
C500 C509 1.390 . S
C501 C500 1.387 . S
C501 C503 1.387 . S
H502 C509 0.950 . S
C503 C501 1.387 . S
C503 C505 1.390 . S
C503 H507 0.950 . S
H504 C500 0.950 . S
C505 C503 1.390 . S
C505 C506 1.387 . S
C505 H508 0.950 . S
C506 C505 1.387 . S
C506 C509 1.387 . S
H507 C503 0.950 . S
H508 C505 0.950 . S
C509 C500 1.390 . S
C509 H502 0.950 . S
C509 C506 1.387 . S
C510 C511 1.387 1_556 S
C510 H514 0.950 . S
C510 C519 1.390 . S
C511 C510 1.387 1_554 S
C511 C513 1.387 1_454 S
H512 C519 0.950 . S
C513 C511 1.387 1_656 S
C513 C515 1.390 1_655 S
C513 H517 0.950 1_556 S
H514 C510 0.950 . S
C515 C513 1.390 1_455 S
C515 C516 1.387 . S
C515 H518 0.942 1_455 S
C516 C515 1.387 . S
C516 C519 1.387 . S
H517 C513 0.950 1_554 S
H518 C515 0.942 1_655 S
C519 C510 1.390 . S
C519 H512 0.950 . S
C519 C516 1.387 . S
C520 C521 1.388 1_655 S
C520 H524 0.950 1_655 S
C520 C529 1.390 . S
C521 C520 1.388 1_455 S
C521 C523 1.387 1_455 S
H522 C529 0.950 . S
C523 C521 1.387 1_655 S
C523 C525 1.390 . S
C523 H527 0.950 . S
H524 C520 0.950 1_455 S
C525 C523 1.390 . S
C525 C526 1.387 . S
C525 H528 0.950 . S
C526 C525 1.387 . S
C526 C529 1.387 . S
H527 C523 0.950 . S
H528 C525 0.950 . S
C529 C520 1.390 . S
C529 H522 0.950 . S
C529 C526 1.387 . S
C530 C531 1.387 . S
C530 H534 0.950 . S
C530 C539 1.390 . S
C531 C530 1.387 . S
C531 C533 1.387 . S
H532 C539 0.950 . S
C533 C531 1.387 . S
C533 C535 1.390 . S
C533 H537 0.950 . S
H534 C530 0.950 . S
C535 C533 1.390 . S
C535 C536 1.387 . S
C535 H538 0.950 . S
C536 C535 1.387 . S
C536 C539 1.387 . S
H537 C533 0.950 . S
H538 C535 0.950 . S
C539 C530 1.390 . S
C539 H532 0.950 . S
C539 C536 1.387 . S
C540 C541 1.387 . S
C540 H544 0.950 . S
C540 C549 1.390 . S
C541 C540 1.387 . S
C541 C543 1.387 . S
H542 C549 0.950 . S
C543 C541 1.387 . S
C543 C545 1.390 . S
C543 H547 0.950 . S
H544 C540 0.950 . S
C545 C543 1.390 . S
C545 C546 1.387 . S
C545 H548 0.950 . S
C546 C545 1.387 . S
C546 C549 1.387 . S
H547 C543 0.950 . S
H548 C545 0.950 . S
C549 C540 1.390 . S
C549 H542 0.950 . S
C549 C546 1.387 . S
C550 C551 1.387 . S
C550 H554 0.950 . S
C550 C559 1.390 . S
C551 C550 1.387 . S
C551 C553 1.387 . S
H552 C559 0.950 . S
C553 C551 1.387 . S
C553 C555 1.390 . S
C553 H557 0.950 . S
H554 C550 0.950 . S
C555 C553 1.390 . S
C555 C556 1.387 . S
C555 H558 0.950 . S
C556 C555 1.387 . S
C556 C559 1.387 . S
H557 C553 0.950 . S
H558 C555 0.950 . S
C559 C550 1.390 . S
C559 H552 0.950 . S
C559 C556 1.387 . S
C560 C561 1.387 . S
C560 H564 0.950 . S
C560 C569 1.390 . S
C561 C560 1.387 . S
C561 C563 1.387 1_655 S
H562 C569 0.950 . S
C563 C561 1.387 1_455 S
C563 C565 1.390 . S
C563 H567 0.950 . S
H564 C560 0.950 . S
C565 C563 1.390 . S
C565 C566 1.387 . S
C565 H568 0.950 . S
C566 C565 1.387 . S
C566 C569 1.387 1_455 S
H567 C563 0.950 . S
H568 C565 0.950 . S
C569 C560 1.390 . S
C569 H562 0.950 . S
C569 C566 1.387 1_655 S
C570 C571 1.387 . S
C570 H574 0.950 . S
C570 C579 1.390 . S
C571 C570 1.387 . S
C571 C573 1.387 . S
H572 C579 0.950 . S
C573 C571 1.387 . S
C573 C575 1.390 . S
C573 H577 0.950 . S
H574 C570 0.950 . S
C575 C573 1.390 . S
C575 C576 1.387 . S
C575 H578 0.950 1_565 S
C576 C575 1.387 . S
C576 C579 1.387 . S
H577 C573 0.950 . S
H578 C575 0.950 1_545 S
C579 C570 1.390 . S
C579 H572 0.950 . S
C579 C576 1.387 . S
C580 C581 1.387 . S
C580 H584 0.950 . S
C580 C589 1.390 . S
C581 C580 1.387 . S
C581 C583 1.387 . S
H582 C589 0.950 . S
C583 C581 1.387 . S
C583 C585 1.390 . S
C583 H587 0.950 . S
H584 C580 0.950 . S
C585 C583 1.390 . S
C585 C586 1.387 . S
C585 H588 0.950 . S
C586 C585 1.387 . S
C586 C589 1.387 . S
H587 C583 0.950 . S
H588 C585 0.950 . S
C589 C580 1.390 . S
C589 H582 0.950 . S
C589 C586 1.387 . S
C590 C591 1.387 . S
C590 H594 0.950 . S
C590 C599 1.390 . S
C591 C590 1.387 . S
C591 C593 1.387 . S
H592 C599 0.950 . S
C593 C591 1.387 . S
C593 C595 1.390 . S
C593 H597 0.950 . S
H594 C590 0.950 . S
C595 C593 1.390 . S
C595 C596 1.387 . S
C595 H598 0.950 . S
C596 C595 1.387 . S
C596 C599 1.387 . S
H597 C593 0.950 . S
H598 C595 0.950 . S
C599 C590 1.390 . S
C599 H592 0.950 . S
C599 C596 1.387 . S
C600 C601 1.387 1_655 S
C600 H604 0.950 1_554 S
C600 C609 1.390 1_554 S
C601 C600 1.387 1_455 S
C601 C603 1.387 . S
H602 C609 0.950 . S
C603 C601 1.387 . S
C603 C605 1.390 . S
C603 H607 0.950 . S
H604 C600 0.950 1_556 S
C605 C603 1.390 . S
C605 C606 1.387 . S
C605 H608 0.950 . S
C606 C605 1.387 . S
C606 C609 1.387 1_454 S
H607 C603 0.950 . S
H608 C605 0.950 . S
C609 C600 1.390 1_556 S
C609 H602 0.950 . S
C609 C606 1.387 1_656 S
C610 C611 1.387 . S
C610 H614 0.950 . S
C610 C619 1.390 . S
C611 C610 1.387 . S
C611 C613 1.387 . S
H612 C619 0.950 . S
C613 C611 1.387 . S
C613 C615 1.390 . S
C613 H617 0.950 . S
H614 C610 0.950 . S
C615 C613 1.390 . S
C615 C616 1.387 . S
C615 H618 0.950 . S
C616 C615 1.387 . S
C616 C619 1.387 . S
H617 C613 0.950 . S
H618 C615 0.950 . S
C619 C610 1.390 . S
C619 H612 0.950 . S
C619 C616 1.387 . S
C620 C621 1.387 . S
C620 H624 0.950 . S
C620 C629 1.390 . S
C621 C620 1.387 . S
C621 C623 1.387 1_554 S
H622 C629 0.950 . S
C623 C621 1.387 1_556 S
C623 C625 1.390 . S
C623 H627 0.950 . S
H624 C620 0.950 . S
C625 C623 1.390 . S
C625 C626 1.387 . S
C625 H628 0.950 . S
C626 C625 1.387 . S
C626 C629 1.387 1_556 S
H627 C623 0.950 . S
H628 C625 0.950 . S
C629 C620 1.390 . S
C629 H622 0.950 . S
C629 C626 1.387 1_554 S
C630 C631 1.387 1_556 S
C630 H634 0.950 . S
C630 C639 1.390 . S
C631 C630 1.387 1_554 S
C631 C633 1.387 . S
H632 C639 0.950 . S
C633 C631 1.387 . S
C633 C635 1.390 . S
C633 H637 0.950 . S
H634 C630 0.950 . S
C635 C633 1.390 . S
C635 C636 1.387 1_554 S
C635 H638 0.950 . S
C636 C635 1.387 1_556 S
C636 C639 1.387 . S
H637 C633 0.950 . S
H638 C635 0.950 . S
C639 C630 1.390 . S
C639 H632 0.950 . S
C639 C636 1.387 . S
C640 C641 1.387 1_455 S
C640 H644 0.950 . S
C640 C649 1.390 . S
C641 C640 1.387 1_655 S
C641 C643 1.387 . S
H642 C649 0.950 . S
C643 C641 1.387 . S
C643 C645 1.390 . S
C643 H647 0.950 . S
H644 C640 0.950 . S
C645 C643 1.390 . S
C645 C646 1.387 . S
C645 H648 0.950 . S
C646 C645 1.387 . S
C646 C649 1.387 1_655 S
H647 C643 0.950 . S
H648 C645 0.950 . S
C649 C640 1.390 . S
C649 H642 0.950 . S
C649 C646 1.387 1_455 S
C650 C651 1.387 . S
C650 H654 0.950 . S
C650 C659 1.390 . S
C651 C650 1.387 . S
C651 C653 1.387 . S
H652 C659 0.950 . S
C653 C651 1.387 . S
C653 C655 1.390 . S
C653 H657 0.950 . S
H654 C650 0.950 . S
C655 C653 1.390 . S
C655 C656 1.387 . S
C655 H658 0.950 . S
C656 C655 1.387 . S
C656 C659 1.387 . S
H657 C653 0.950 . S
H658 C655 0.950 . S
C659 C650 1.390 . S
C659 H652 0.950 . S
C659 C656 1.387 . S
C660 C661 1.387 . S
C660 H664 0.950 . S
C660 C669 1.390 . S
C661 C660 1.387 . S
C661 C663 1.387 . S
H662 C669 0.950 . S
C663 C661 1.387 . S
C663 C665 1.390 . S
C663 H667 0.950 . S
H664 C660 0.950 . S
C665 C663 1.390 . S
C665 C666 1.387 . S
C665 H668 0.950 . S
C666 C665 1.387 . S
C666 C669 1.387 . S
H667 C663 0.950 . S
H668 C665 0.950 . S
C669 C660 1.390 . S
C669 H662 0.950 . S
C669 C666 1.387 . S
C670 C671 1.387 . S
C670 H674 0.950 . S
C670 C679 1.390 . S
C671 C670 1.387 . S
C671 C673 1.387 . S
H672 C679 0.950 . S
C673 C671 1.387 . S
C673 C675 1.390 . S
C673 H677 0.950 . S
H674 C670 0.950 . S
C675 C673 1.390 . S
C675 C676 1.387 . S
C675 H678 0.950 . S
C676 C675 1.387 . S
C676 C679 1.387 . S
H677 C673 0.950 . S
H678 C675 0.950 . S
C679 C670 1.390 . S
C679 H672 0.950 . S
C679 C676 1.387 . S
C441 C255 1.995 . S
C446 C330 2.032 . S
C456 C360 1.830 . S
C451 C295 1.798 . S
C466 N394 2.009 . S
C461 C175 1.941 . S
C476 N424 1.534 . S
C471 C215 1.607 1_655 S
C486 C321 2.036 1_565 S
C481 C95 1.986 1_556 S
C491 C135 1.801 1_556 S
C496 C351 1.830 . S
C501 C15 1.928 1_556 S
C506 N386 2.006 . S
C511 C55 1.604 . S
C516 N416 1.532 . S
C526 C336 0.688 . S
C521 C221 0.725 . S
C536 C366 1.318 . S
C531 C261 1.257 . S
C546 C407 0.954 . S
C541 C301 0.921 . S
C551 C181 1.215 . S
C556 C437 1.180 . S
C561 C61 0.767 1_655 S
C566 C347 0.690 . S
C576 C377 1.319 1_565 S
C571 C101 1.081 . S
C586 C396 0.955 . S
C581 C141 0.932 . S
C591 C21 0.996 . S
C596 C426 1.181 . S
C601 C202 1.845 . S
C606 N326 1.964 1_554 S
C611 C242 2.033 . S
C616 N356 2.122 . S
C626 C381 2.105 . S
C621 C282 1.986 . S
C636 C411 2.367 . S
C631 C162 2.292 . S
C641 C42 1.876 1_655 S
C646 N334 1.965 . S
C656 N364 2.121 . S
C651 C82 1.951 . S
C666 C390 2.105 . S
C661 C122 2.044 . S
C671 C2 2.167 . S
C676 C420 2.371 . S
