# Generated by pormake.
# Topology pto, (3,4)-cn, num edge types: 1
# Building blocks:
#     Node 0, Type 0, BuildingBlock: WUSLED_clean_sbu_0, # of connection points: 3
#     Node 1, Type 0, BuildingBlock: WUSLED_clean_sbu_0, # of connection points: 3
#     Node 2, Type 0, BuildingBlock: WUSLED_clean_sbu_0, # of connection points: 3
#     Node 3, Type 0, BuildingBlock: WUSLED_clean_sbu_0, # of connection points: 3
#     Node 4, Type 0, BuildingBlock: WUSLED_clean_sbu_0, # of connection points: 3
#     Node 5, Type 0, BuildingBlock: WUSLED_clean_sbu_0, # of connection points: 3
#     Node 6, Type 0, BuildingBlock: WUSLED_clean_sbu_0, # of connection points: 3
#     Node 7, Type 0, BuildingBlock: WUSLED_clean_sbu_0, # of connection points: 3
#     Node 8, Type 1, BuildingBlock: KOZSID_clean_sbu_0, # of connection points: 4
#     Node 9, Type 1, BuildingBlock: KOZSID_clean_sbu_0, # of connection points: 4
#     Node 10, Type 1, BuildingBlock: KOZSID_clean_sbu_0, # of connection points: 4
#     Node 11, Type 1, BuildingBlock: KOZSID_clean_sbu_0, # of connection points: 4
#     Node 12, Type 1, BuildingBlock: KOZSID_clean_sbu_0, # of connection points: 4
#     Node 13, Type 1, BuildingBlock: KOZSID_clean_sbu_0, # of connection points: 4
#     Edge 14, Type (0, 1), BuildingBlock: OJICUG_clean_linker_0, # of connection points: 2
#     Edge 15, Type (0, 1), BuildingBlock: OJICUG_clean_linker_0, # of connection points: 2
#     Edge 16, Type (0, 1), BuildingBlock: OJICUG_clean_linker_0, # of connection points: 2
#     Edge 17, Type (0, 1), BuildingBlock: OJICUG_clean_linker_0, # of connection points: 2
#     Edge 18, Type (0, 1), BuildingBlock: OJICUG_clean_linker_0, # of connection points: 2
#     Edge 19, Type (0, 1), BuildingBlock: OJICUG_clean_linker_0, # of connection points: 2
#     Edge 20, Type (0, 1), BuildingBlock: OJICUG_clean_linker_0, # of connection points: 2
#     Edge 21, Type (0, 1), BuildingBlock: OJICUG_clean_linker_0, # of connection points: 2
#     Edge 22, Type (0, 1), BuildingBlock: OJICUG_clean_linker_0, # of connection points: 2
#     Edge 23, Type (0, 1), BuildingBlock: OJICUG_clean_linker_0, # of connection points: 2
#     Edge 24, Type (0, 1), BuildingBlock: OJICUG_clean_linker_0, # of connection points: 2
#     Edge 25, Type (0, 1), BuildingBlock: OJICUG_clean_linker_0, # of connection points: 2
#     Edge 26, Type (0, 1), BuildingBlock: OJICUG_clean_linker_0, # of connection points: 2
#     Edge 27, Type (0, 1), BuildingBlock: OJICUG_clean_linker_0, # of connection points: 2
#     Edge 28, Type (0, 1), BuildingBlock: OJICUG_clean_linker_0, # of connection points: 2
#     Edge 29, Type (0, 1), BuildingBlock: OJICUG_clean_linker_0, # of connection points: 2
#     Edge 30, Type (0, 1), BuildingBlock: OJICUG_clean_linker_0, # of connection points: 2
#     Edge 31, Type (0, 1), BuildingBlock: OJICUG_clean_linker_0, # of connection points: 2
#     Edge 32, Type (0, 1), BuildingBlock: OJICUG_clean_linker_0, # of connection points: 2
#     Edge 33, Type (0, 1), BuildingBlock: OJICUG_clean_linker_0, # of connection points: 2
#     Edge 34, Type (0, 1), BuildingBlock: OJICUG_clean_linker_0, # of connection points: 2
#     Edge 35, Type (0, 1), BuildingBlock: OJICUG_clean_linker_0, # of connection points: 2
#     Edge 36, Type (0, 1), BuildingBlock: OJICUG_clean_linker_0, # of connection points: 2
#     Edge 37, Type (0, 1), BuildingBlock: OJICUG_clean_linker_0, # of connection points: 2
# Relax obj value: 0.000
# Max RMSD: 0.028
# Mean RMSD: 0.012
data_MOF--net-pto--node1-WUSLED_clean_sbu_0--node2-KOZSID_clean_sbu_0--edge1-OJICUG_clean_linker_0
_symmetry_space_group_name_H-M    P1
_symmetry_Int_Tables_number       1
_symmetry_cell_setting            triclinic
loop_
_symmetry_equiv_pos_as_xyz
'x, y, z'
_cell_length_a     39.803188
_cell_length_b     52.570417
_cell_length_c     46.261854
_cell_angle_alpha  86.966291
_cell_angle_beta   87.707555
_cell_angle_gamma 93.464528
loop_
_atom_site_label
_atom_site_type_symbol
_atom_site_fract_x
_atom_site_fract_y
_atom_site_fract_z
_atom_type_partial_charge
C0 C 0.25535 0.22672 0.38217 0.0
C1 C 0.27109 0.20634 0.37003 0.0
C2 C 0.26078 0.1804 0.41527 0.0
C3 C 0.27369 0.18337 0.3864 0.0
C4 C 0.24533 0.20104 0.42732 0.0
C5 C 0.24264 0.22392 0.41092 0.0
U6 U 0.27911 0.27353 0.31717 0.0
O7 O 0.24695 0.29599 0.28919 0.0
O8 O 0.28505 0.3155 0.31465 0.0
C9 C 0.26001 0.31794 0.2972 0.0
C10 C 0.25162 0.25088 0.36517 0.0
C11 C 0.23598 0.33742 0.30376 0.0
C12 C 0.20502 0.36261 0.33731 0.0
C13 C 0.22671 0.34305 0.33224 0.0
C14 C 0.20143 0.37083 0.28558 0.0
C15 C 0.19213 0.37679 0.31399 0.0
C16 C 0.22304 0.3514 0.28057 0.0
C17 C 0.34739 0.25605 0.26157 0.0
C18 C 0.36289 0.28078 0.21654 0.0
C19 C 0.39275 0.24337 0.22977 0.0
C20 C 0.37256 0.23943 0.25523 0.0
C21 C 0.3882 0.26407 0.21004 0.0
C22 C 0.34268 0.27681 0.24213 0.0
C23 C 0.32619 0.25106 0.28834 0.0
O24 O 0.27744 0.26772 0.36477 0.0
O25 O 0.23872 0.24869 0.33963 0.0
O26 O 0.29381 0.2466 0.28483 0.0
O27 O 0.33255 0.2662 0.30943 0.0
H28 H 0.28125 0.20817 0.34789 0.0
H29 H 0.28608 0.16802 0.37652 0.0
H30 H 0.23472 0.19936 0.44931 0.0
H31 H 0.23037 0.23941 0.42067 0.0
H32 H 0.19818 0.36652 0.35945 0.0
H33 H 0.23636 0.33247 0.35051 0.0
H34 H 0.19257 0.38156 0.26707 0.0
H35 H 0.23004 0.34751 0.25844 0.0
H36 H 0.3589 0.29704 0.20201 0.0
H37 H 0.41156 0.22989 0.22531 0.0
H38 H 0.37645 0.22324 0.26993 0.0
H39 H 0.32338 0.28989 0.24671 0.0
C40 C 0.24602 0.84056 0.69255 0.0
C41 C 0.2598 0.86249 0.70487 0.0
C42 C 0.25416 0.88761 0.65951 0.0
C43 C 0.26374 0.88582 0.68852 0.0
C44 C 0.24071 0.86544 0.6473 0.0
C45 C 0.23668 0.84221 0.66366 0.0
U46 U 0.26328 0.79407 0.75665 0.0
O47 O 0.22802 0.76822 0.78378 0.0
O48 O 0.26821 0.7525 0.75766 0.0
C49 C 0.24109 0.74752 0.77469 0.0
C50 C 0.24065 0.8159 0.70941 0.0
C51 C 0.21731 0.72625 0.76704 0.0
C52 C 0.16123 0.70453 0.7706 0.0
C53 C 0.18265 0.72612 0.77444 0.0
C54 C 0.20839 0.68289 0.75129 0.0
C55 C 0.1739 0.68246 0.75941 0.0
C56 C 0.22981 0.70445 0.75516 0.0
C57 C 0.32683 0.81406 0.81295 0.0
C58 C 0.35195 0.78541 0.84787 0.0
C59 C 0.35642 0.83104 0.85337 0.0
C60 C 0.33827 0.83485 0.82841 0.0
C61 C 0.36362 0.80629 0.86339 0.0
C62 C 0.33358 0.78925 0.82293 0.0
C63 C 0.30832 0.81883 0.7864 0.0
O64 O 0.26616 0.80115 0.70918 0.0
O65 O 0.22564 0.81658 0.73517 0.0
O66 O 0.27574 0.82091 0.79022 0.0
O67 O 0.31617 0.80527 0.7643 0.0
H68 H 0.26734 0.8616 0.72712 0.0
H69 H 0.27453 0.90241 0.69853 0.0
H70 H 0.23261 0.86612 0.62522 0.0
H71 H 0.22594 0.82552 0.65378 0.0
H72 H 0.13493 0.70484 0.77745 0.0
H73 H 0.17215 0.74239 0.78406 0.0
H74 H 0.21899 0.66641 0.74223 0.0
H75 H 0.25642 0.70377 0.74955 0.0
H76 H 0.35676 0.7661 0.85515 0.0
H77 H 0.3654 0.84757 0.86451 0.0
H78 H 0.33336 0.85413 0.82104 0.0
H79 H 0.32478 0.7729 0.8114 0.0
C80 C 0.72652 0.81273 0.26623 0.0
C81 C 0.71769 0.78827 0.25703 0.0
C82 C 0.68681 0.80682 0.21733 0.0
C83 C 0.69797 0.78533 0.23281 0.0
C84 C 0.69642 0.83125 0.2264 0.0
C85 C 0.71597 0.83414 0.25059 0.0
U86 U 0.79221 0.79304 0.3207 0.0
O87 O 0.83145 0.81693 0.34029 0.0
O88 O 0.79169 0.79632 0.36806 0.0
C89 C 0.81748 0.81325 0.36653 0.0
C90 C 0.74628 0.81656 0.29215 0.0
C91 C 0.81334 0.83637 0.38285 0.0
C92 C 0.80095 0.88106 0.3852 0.0
C93 C 0.80327 0.85911 0.36944 0.0
C94 C 0.81793 0.85764 0.42809 0.0
C95 C 0.80854 0.88069 0.41472 0.0
C96 C 0.82036 0.83579 0.41231 0.0
C97 C 0.83694 0.7303 0.30849 0.0
C98 C 0.86512 0.70188 0.34167 0.0
C99 C 0.87464 0.69973 0.28987 0.0
C100 C 0.85292 0.71928 0.28514 0.0
C101 C 0.88101 0.69066 0.31817 0.0
C102 C 0.84332 0.72158 0.33688 0.0
C103 C 0.81281 0.74994 0.30214 0.0
O104 O 0.73908 0.80041 0.31453 0.0
O105 O 0.77879 0.82171 0.28732 0.0
O106 O 0.82588 0.77248 0.29246 0.0
O107 O 0.78699 0.75112 0.32057 0.0
H108 H 0.72572 0.77145 0.26873 0.0
H109 H 0.69091 0.76624 0.2266 0.0
H110 H 0.68896 0.84825 0.21472 0.0
H111 H 0.72274 0.85318 0.25719 0.0
H112 H 0.79391 0.89845 0.37407 0.0
H113 H 0.79762 0.85999 0.3467 0.0
H114 H 0.82331 0.85641 0.45087 0.0
H115 H 0.82797 0.81841 0.42312 0.0
H116 H 0.86966 0.69552 0.36374 0.0
H117 H 0.88587 0.69132 0.27122 0.0
H118 H 0.84817 0.72556 0.26306 0.0
H119 H 0.8313 0.72981 0.35529 0.0
C120 C 0.77427 0.22654 0.73449 0.0
C121 C 0.80667 0.22006 0.72549 0.0
C122 C 0.78248 0.18945 0.69286 0.0
C123 C 0.81072 0.20166 0.70491 0.0
C124 C 0.75019 0.19638 0.70164 0.0
C125 C 0.74618 0.21465 0.7222 0.0
U126 U 0.79063 0.28929 0.77422 0.0
O127 O 0.75314 0.31283 0.79438 0.0
O128 O 0.79035 0.29466 0.82104 0.0
C129 C 0.76333 0.30788 0.82065 0.0
C130 C 0.76861 0.24437 0.75769 0.0
C131 C 0.73666 0.3011 0.84346 0.0
C132 C 0.71195 0.27343 0.88369 0.0
C133 C 0.73586 0.27817 0.86066 0.0
C134 C 0.68873 0.31408 0.87224 0.0
C135 C 0.68827 0.29144 0.88992 0.0
C136 C 0.7127 0.31885 0.84936 0.0
C137 C 0.85682 0.34186 0.74746 0.0
C138 C 0.85841 0.38502 0.76429 0.0
C139 C 0.90618 0.37092 0.73675 0.0
C140 C 0.88925 0.34698 0.73476 0.0
C141 C 0.89093 0.3903 0.75143 0.0
C142 C 0.84158 0.361 0.76243 0.0
C143 C 0.83924 0.3166 0.74477 0.0
O144 O 0.7925 0.24747 0.77628 0.0
O145 O 0.75499 0.26573 0.75001 0.0
O146 O 0.80739 0.31678 0.7383 0.0
O147 O 0.84481 0.29909 0.76506 0.0
H148 H 0.82882 0.22897 0.73456 0.0
H149 H 0.83596 0.19703 0.69842 0.0
H150 H 0.72785 0.18718 0.6932 0.0
H151 H 0.72094 0.21917 0.72895 0.0
H152 H 0.71204 0.25568 0.89667 0.0
H153 H 0.75398 0.26407 0.85663 0.0
H154 H 0.6712 0.32851 0.87661 0.0
H155 H 0.71296 0.33675 0.83659 0.0
H156 H 0.8461 0.39937 0.77607 0.0
H157 H 0.931 0.37439 0.72632 0.0
H158 H 0.90145 0.33248 0.72313 0.0
H159 H 0.81664 0.35739 0.77261 0.0
C160 C 0.82276 0.73721 0.78062 0.0
C161 C 0.83143 0.73127 0.75211 0.0
C162 C 0.8667 0.69792 0.77022 0.0
C163 C 0.85315 0.71175 0.74696 0.0
C164 C 0.85804 0.7042 0.79865 0.0
C165 C 0.83638 0.72358 0.80374 0.0
U166 U 0.77959 0.80105 0.76733 0.0
O167 O 0.72618 0.80845 0.77515 0.0
O168 O 0.76503 0.82806 0.79964 0.0
C169 C 0.73264 0.82363 0.79618 0.0
C170 C 0.79871 0.75665 0.78729 0.0
C171 C 0.71147 0.81876 0.82299 0.0
C172 C 0.69625 0.79437 0.86829 0.0
C173 C 0.71638 0.79819 0.84265 0.0
C174 C 0.66606 0.83151 0.85468 0.0
C175 C 0.67082 0.81102 0.87464 0.0
C176 C 0.68618 0.83531 0.82916 0.0
C177 C 0.80333 0.84777 0.70226 0.0
C178 C 0.78539 0.89124 0.69809 0.0
C179 C 0.81325 0.87338 0.65704 0.0
C180 C 0.81584 0.85049 0.67344 0.0
C181 C 0.79812 0.89413 0.66916 0.0
C182 C 0.78788 0.86825 0.71446 0.0
C183 C 0.80702 0.82362 0.71927 0.0
O184 O 0.81178 0.7786 0.79529 0.0
O185 O 0.77359 0.75908 0.76992 0.0
O186 O 0.78115 0.80681 0.71973 0.0
O187 O 0.81999 0.82581 0.74478 0.0
H188 H 0.82126 0.74157 0.73388 0.0
H189 H 0.8595 0.7076 0.7248 0.0
H190 H 0.86742 0.69374 0.81713 0.0
H191 H 0.82986 0.72771 0.8259 0.0
H192 H 0.70039 0.77825 0.883 0.0
H193 H 0.73579 0.78517 0.8382 0.0
H194 H 0.64714 0.84494 0.85901 0.0
H195 H 0.68212 0.85135 0.8143 0.0
H196 H 0.77323 0.90668 0.70802 0.0
H197 H 0.82372 0.87499 0.63501 0.0
H198 H 0.82789 0.83492 0.66365 0.0
H199 H 0.77788 0.86649 0.73665 0.0
C200 C 0.73334 0.2596 0.27151 0.0
C201 C 0.72662 0.28437 0.26139 0.0
C202 C 0.69607 0.26713 0.22131 0.0
C203 C 0.70801 0.28809 0.23657 0.0
C204 C 0.70326 0.24241 0.23146 0.0
C205 C 0.72166 0.23872 0.2563 0.0
U206 U 0.79706 0.27994 0.32754 0.0
O207 O 0.79437 0.27287 0.37501 0.0
O208 O 0.83493 0.2576 0.34892 0.0
C209 C 0.81994 0.25818 0.3747 0.0
C210 C 0.75205 0.25496 0.29797 0.0
C211 C 0.81461 0.23346 0.39145 0.0
C212 C 0.79735 0.18811 0.39515 0.0
C213 C 0.80131 0.21149 0.37891 0.0
C214 C 0.81939 0.20851 0.43675 0.0
C215 C 0.80642 0.18631 0.4243 0.0
C216 C 0.82345 0.23179 0.42048 0.0
C217 C 0.84252 0.34794 0.317 0.0
C218 C 0.89859 0.36969 0.31372 0.0
C219 C 0.85113 0.39153 0.33213 0.0
C220 C 0.82982 0.36988 0.32837 0.0
C221 C 0.88572 0.3919 0.32439 0.0
C222 C 0.87727 0.34802 0.30999 0.0
C223 C 0.81887 0.32656 0.30944 0.0
O224 O 0.78466 0.25304 0.29401 0.0
O225 O 0.7442 0.26851 0.32007 0.0
O226 O 0.79184 0.32148 0.32655 0.0
O227 O 0.83206 0.30592 0.30031 0.0
H228 H 0.73561 0.30078 0.27273 0.0
H229 H 0.70322 0.30737 0.22918 0.0
H230 H 0.69409 0.22583 0.22052 0.0
H231 H 0.72654 0.21947 0.26379 0.0
H232 H 0.78693 0.1715 0.38496 0.0
H233 H 0.79414 0.21239 0.35655 0.0
H234 H 0.82708 0.20782 0.45895 0.0
H235 H 0.83381 0.24851 0.43055 0.0
H236 H 0.92497 0.36934 0.30717 0.0
H237 H 0.84037 0.40811 0.3408 0.0
H238 H 0.80314 0.37059 0.33366 0.0
H239 H 0.88794 0.33164 0.30077 0.0
C240 C 0.24457 0.23529 0.704 0.0
C241 C 0.27621 0.22529 0.69951 0.0
C242 C 0.2506 0.19042 0.67334 0.0
C243 C 0.2792 0.20313 0.68422 0.0
C244 C 0.21897 0.20038 0.67827 0.0
C245 C 0.21604 0.22257 0.69337 0.0
U246 U 0.26762 0.28173 0.76283 0.0
O247 O 0.27152 0.32373 0.76082 0.0
O248 O 0.23451 0.30276 0.79112 0.0
C249 C 0.24645 0.32516 0.77995 0.0
C250 C 0.24059 0.25902 0.71928 0.0
C251 C 0.22144 0.34417 0.77359 0.0
C252 C 0.1937 0.37299 0.74053 0.0
C253 C 0.21576 0.35346 0.74526 0.0
C254 C 0.18238 0.3738 0.79226 0.0
C255 C 0.17686 0.38351 0.76402 0.0
C256 C 0.20437 0.35441 0.79693 0.0
C257 C 0.33677 0.26593 0.81569 0.0
C258 C 0.34276 0.27815 0.8654 0.0
C259 C 0.39073 0.26387 0.83832 0.0
C260 C 0.37089 0.26069 0.81433 0.0
C261 C 0.37682 0.27222 0.86438 0.0
C262 C 0.32295 0.27508 0.84129 0.0
C263 C 0.31596 0.26057 0.79068 0.0
O264 O 0.22804 0.25603 0.74604 0.0
O265 O 0.26566 0.27657 0.71602 0.0
O266 O 0.32167 0.27599 0.76746 0.0
O267 O 0.28375 0.25466 0.79653 0.0
H268 H 0.2986 0.23464 0.70769 0.0
H269 H 0.30388 0.19584 0.68111 0.0
H270 H 0.19648 0.19131 0.66993 0.0
H271 H 0.1914 0.22995 0.69656 0.0
H272 H 0.18981 0.37982 0.71849 0.0
H273 H 0.22863 0.34589 0.72683 0.0
H274 H 0.17042 0.38166 0.81093 0.0
H275 H 0.2086 0.34773 0.81898 0.0
H276 H 0.33107 0.28442 0.8851 0.0
H277 H 0.41699 0.25963 0.83646 0.0
H278 H 0.38214 0.25375 0.79477 0.0
H279 H 0.29669 0.27938 0.84289 0.0
C280 C 0.20113 0.73355 0.33712 0.0
C281 C 0.20906 0.71807 0.31432 0.0
C282 C 0.16751 0.68484 0.33386 0.0
C283 C 0.19243 0.69395 0.3127 0.0
C284 C 0.15987 0.70048 0.35673 0.0
C285 C 0.17651 0.72457 0.35832 0.0
U286 U 0.2665 0.78596 0.30867 0.0
O287 O 0.26321 0.82772 0.30393 0.0
O288 O 0.30071 0.8114 0.33182 0.0
C289 C 0.28673 0.83216 0.3225 0.0
C290 C 0.21814 0.75909 0.33897 0.0
C291 C 0.27994 0.8512 0.34408 0.0
C292 C 0.26865 0.86302 0.39362 0.0
C293 C 0.27212 0.84421 0.37344 0.0
C294 C 0.27989 0.89591 0.35526 0.0
C295 C 0.273 0.88914 0.38484 0.0
C296 C 0.28336 0.87716 0.33519 0.0
C297 C 0.32163 0.77269 0.24076 0.0
C298 C 0.3465 0.80032 0.20058 0.0
C299 C 0.36971 0.7597 0.21221 0.0
C300 C 0.34562 0.75494 0.235 0.0
C301 C 0.37024 0.78232 0.19449 0.0
C302 C 0.32248 0.7956 0.22354 0.0
C303 C 0.29499 0.76603 0.26362 0.0
O304 O 0.24996 0.75942 0.34564 0.0
O305 O 0.21254 0.7758 0.31784 0.0
O306 O 0.26738 0.77851 0.26234 0.0
O307 O 0.30514 0.76245 0.29014 0.0
H308 H 0.22799 0.72472 0.2977 0.0
H309 H 0.19872 0.6826 0.29461 0.0
H310 H 0.14125 0.694 0.37365 0.0
H311 H 0.17014 0.73621 0.37614 0.0
H312 H 0.26354 0.85707 0.41622 0.0
H313 H 0.26935 0.82428 0.38086 0.0
H314 H 0.28275 0.91577 0.34756 0.0
H315 H 0.28932 0.883 0.31265 0.0
H316 H 0.34647 0.81806 0.18757 0.0
H317 H 0.3873 0.74528 0.20795 0.0
H318 H 0.34532 0.73707 0.24784 0.0
H319 H 0.30436 0.80971 0.22751 0.0
C320 C 0.08617 0.57108 0.35581 0.0
C321 C 0.09727 0.57788 0.38256 0.0
C322 C 0.07976 0.56201 0.4029 0.0
C323 C 0.05917 0.54644 0.38747 0.0
N324 N 0.06291 0.55105 0.35845 0.0
Co325 Co 0.03687 0.5337 0.32802 0.0
N326 N 0.00784 0.51278 0.35805 0.0
C327 C 0.00929 0.51363 0.38715 0.0
C328 C 0.98664 0.49674 0.40227 0.0
C329 C 0.96998 0.48407 0.38162 0.0
C330 C 0.98363 0.49392 0.35498 0.0
N331 N 0.01089 0.51626 0.29752 0.0
C332 C 0.98653 0.49695 0.30017 0.0
C333 C 0.97647 0.48957 0.27329 0.0
C334 C 0.9952 0.50461 0.25296 0.0
C335 C 0.01568 0.52018 0.26845 0.0
N336 N 0.0658 0.55482 0.29798 0.0
C337 C 0.06445 0.55401 0.26886 0.0
C338 C 0.08593 0.57181 0.25383 0.0
C339 C 0.10151 0.58516 0.27453 0.0
C340 C 0.08866 0.57462 0.30113 0.0
N341 N 0.06926 0.50614 0.32754 0.0
C342 C 0.10982 0.46375 0.32595 0.0
C343 C 0.10166 0.47709 0.30053 0.0
C344 C 0.08179 0.49803 0.30181 0.0
C345 C 0.09844 0.47268 0.35233 0.0
C346 C 0.07835 0.49372 0.35262 0.0
N347 N 1.00455 0.56119 0.32841 0.0
C348 C 0.97475 0.59332 0.30233 0.0
C349 C 0.96386 0.60348 0.32813 0.0
C350 C 0.97264 0.59143 0.3542 0.0
C351 C 0.99288 0.57049 0.35385 0.0
C352 C 0.99467 0.57235 0.30296 0.0
H353 H 0.99928 0.5624 0.37438 0.0
H354 H 1.00216 0.56576 0.2825 0.0
H355 H 0.07656 0.50708 0.28158 0.0
H356 H 0.07 0.49929 0.37338 0.0
C357 C 0.03372 0.52924 0.39961 0.0
C358 C 0.09721 0.58509 0.3287 0.0
C359 C 0.97344 0.48415 0.32749 0.0
C360 C 0.04076 0.53776 0.25633 0.0
H361 H 0.1154 0.59324 0.38691 0.0
H362 H 0.08087 0.56248 0.42621 0.0
H363 H 0.98327 0.49354 0.42554 0.0
H364 H 0.95045 0.46892 0.3857 0.0
H365 H 0.95808 0.47445 0.26876 0.0
H366 H 0.99462 0.5038 0.22966 0.0
H367 H 0.08889 0.57535 0.23057 0.0
H368 H 0.11947 0.60136 0.27045 0.0
H369 H 0.11058 0.4714 0.27955 0.0
H370 H 0.10418 0.46308 0.37266 0.0
H371 H 0.96793 0.60152 0.28156 0.0
H372 H 0.96473 0.59852 0.37479 0.0
C373 C 0.073 0.57749 0.7833 0.0
C374 C 0.08343 0.58463 0.81016 0.0
C375 C 0.06476 0.56957 0.83051 0.0
C376 C 0.04396 0.55421 0.81507 0.0
N377 N 0.04848 0.55829 0.78599 0.0
Co378 Co 0.02211 0.54112 0.75554 0.0
N379 N 0.99325 0.52007 0.78563 0.0
C380 C 0.99453 0.52093 0.81475 0.0
C381 C 0.97275 0.50332 0.82978 0.0
C382 C 0.95704 0.49005 0.80906 0.0
C383 C 0.97027 0.50037 0.7825 0.0
N384 N 0.99574 0.52393 0.72516 0.0
C385 C 0.97229 0.504 0.72784 0.0
C386 C 0.96142 0.49703 0.70108 0.0
C387 C 0.97901 0.51282 0.68071 0.0
C388 C 0.99955 0.52845 0.69612 0.0
N389 N 0.05101 0.56207 0.72546 0.0
C390 C 0.04929 0.5614 0.69636 0.0
C391 C 0.07183 0.57835 0.68121 0.0
C392 C 0.0887 0.59089 0.70184 0.0
C393 C 0.07529 0.58089 0.72849 0.0
N394 N 0.05422 0.51349 0.75487 0.0
C395 C 0.09452 0.471 0.75472 0.0
C396 C 0.08627 0.48354 0.72877 0.0
C397 C 0.06618 0.50456 0.72933 0.0
C398 C 0.08331 0.48076 0.78064 0.0
C399 C 0.06362 0.50185 0.78023 0.0
N400 N 0.98991 0.56881 0.75629 0.0
C401 C 0.96005 0.60194 0.73162 0.0
C402 C 0.94934 0.61118 0.75803 0.0
C403 C 0.95823 0.59818 0.78344 0.0
C404 C 0.9781 0.57725 0.78208 0.0
C405 C 0.98018 0.58092 0.73125 0.0
H406 H 0.98389 0.56846 0.80231 0.0
H407 H 0.988 0.57512 0.71046 0.0
H408 H 0.06016 0.51301 0.70887 0.0
H409 H 0.0559 0.50815 0.80078 0.0
C410 C 0.0186 0.53688 0.82725 0.0
C411 C 0.08582 0.59045 0.75599 0.0
C412 C 0.96139 0.49002 0.75501 0.0
C413 C 0.02489 0.54572 0.68395 0.0
H414 H 0.10198 0.59963 0.81467 0.0
H415 H 0.06554 0.57028 0.85382 0.0
H416 H 0.96962 0.49987 0.85304 0.0
H417 H 0.93862 0.47411 0.813 0.0
H418 H 0.94349 0.48157 0.69667 0.0
H419 H 0.97801 0.51224 0.65741 0.0
H420 H 0.07504 0.58164 0.65794 0.0
H421 H 0.10825 0.60603 0.69774 0.0
H422 H 0.09446 0.47676 0.7081 0.0
H423 H 0.08973 0.47216 0.80133 0.0
H424 H 0.95376 0.61128 0.71129 0.0
H425 H 0.94985 0.60412 0.80447 0.0
C426 C 0.29331 0.99643 0.57993 0.0
C427 C 0.32407 0.98935 0.58977 0.0
C428 C 0.3483 1.00491 0.57497 0.0
C429 C 0.33105 0.0206 0.55708 0.0
N430 N 0.29719 1.01626 0.5598 0.0
Co431 Co 0.2627 0.03412 0.53708 0.0
N432 N 0.2985 0.05591 0.51398 0.0
C433 C 0.33223 0.05534 0.51629 0.0
C434 C 0.35046 0.07306 0.49826 0.0
C435 C 0.32701 0.08602 0.48381 0.0
C436 C 0.29569 0.07544 0.49398 0.0
N437 N 0.22822 0.05182 0.51417 0.0
C438 C 0.23207 0.07155 0.4939 0.0
C439 C 0.20126 0.07856 0.48407 0.0
C440 C 0.17709 0.06286 0.49874 0.0
C441 C 0.19438 0.04726 0.51666 0.0
N442 N 0.22688 1.0125 0.5604 0.0
C443 C 0.19315 1.01324 0.55821 0.0
C444 C 0.17486 0.99569 0.57638 0.0
C445 C 0.19824 0.98273 0.59088 0.0
C446 C 0.22963 0.99323 0.58074 0.0
N447 N 0.261 0.06083 0.56609 0.0
C448 C 0.25875 0.10152 0.6038 0.0
C449 C 0.22922 0.08966 0.59403 0.0
C450 C 0.2309 0.06953 0.5755 0.0
C451 C 0.2894 0.09209 0.5949 0.0
C452 C 0.28993 0.07193 0.5763 0.0
N453 N 0.2644 1.00746 0.50799 0.0
C454 C 0.23617 0.97637 0.47884 0.0
C455 C 0.26695 0.96855 0.46799 0.0
C456 C 0.29641 0.9807 0.47749 0.0
C457 C 0.29458 0.99988 0.49725 0.0
C458 C 0.23548 0.99568 0.49855 0.0
H459 H 0.31798 1.00816 0.50366 0.0
H460 H 0.2112 1.00071 0.50587 0.0
H461 H 0.20748 0.0616 0.56871 0.0
H462 H 0.31412 0.06586 0.57025 0.0
C463 C 0.34594 0.03877 0.53661 0.0
C464 C 0.26124 0.98333 0.58997 0.0
C465 C 0.26408 0.08508 0.48446 0.0
C466 C 0.17949 0.02944 0.53751 0.0
H467 H 0.32852 0.97423 0.6057 0.0
H468 H 0.37532 1.00449 0.57662 0.0
H469 H 0.37756 0.07652 0.49632 0.0
H470 H 0.3323 0.10176 0.46792 0.0
H471 H 0.19662 0.09386 0.46845 0.0
H472 H 0.15007 0.0633 0.49717 0.0
H473 H 0.14775 0.99221 0.57822 0.0
H474 H 0.19275 0.96691 0.60662 0.0
H475 H 0.20478 0.09626 0.60001 0.0
H476 H 0.31302 0.10018 0.60225 0.0
H477 H 0.21257 0.9679 0.4719 0.0
H478 H 0.32095 0.9752 0.47009 0.0
C479 C 0.47707 0.81889 0.08206 0.0
C480 C 0.46677 0.84179 0.09194 0.0
C481 C 0.48483 0.86082 0.07593 0.0
C482 C 0.50521 0.84857 0.05736 0.0
N483 N 0.50106 0.8228 0.0603 0.0
Co484 Co 0.52726 0.79765 0.03884 0.0
N485 N 0.55442 0.82576 0.0158 0.0
C486 C 0.5519 0.85118 0.01769 0.0
C487 C 0.57297 0.86579 0.99843 0.0
C488 C 0.58962 0.84872 0.98294 0.0
C489 C 0.57762 0.82457 0.99368 0.0
N490 N 0.55387 0.77255 0.01776 0.0
C491 C 0.57763 0.77642 0.99583 0.0
C492 C 0.58917 0.75356 0.98696 0.0
C493 C 0.57195 0.73456 1.0037 0.0
C494 C 0.55093 0.74682 0.02173 0.0
N495 N 0.49966 0.76955 0.06143 0.0
C496 C 0.50165 0.74416 0.05895 0.0
C497 C 0.47934 0.72947 0.07706 0.0
C498 C 0.4622 0.74647 0.09225 0.0
C499 C 0.47529 0.77066 0.08261 0.0
N500 N 0.49372 0.79729 1.00803 0.0
C501 C 0.44814 0.79764 0.96264 0.0
C502 C 0.4606 0.77484 0.97339 0.0
C503 C 0.48308 0.77509 0.99596 0.0
C504 C 0.45871 0.82016 0.97528 0.0
C505 C 0.48118 0.81955 0.99768 0.0
N506 N 0.56075 0.79808 0.06978 0.0
C507 C 0.59132 0.77608 0.10686 0.0
C508 C 0.60349 0.79926 0.11717 0.0
C509 C 0.59496 0.82174 0.10256 0.0
C510 C 0.57395 0.82072 0.07915 0.0
C511 C 0.57017 0.77593 0.08332 0.0
H512 H 0.56843 0.8386 0.06929 0.0
H513 H 0.56131 0.75767 0.0768 0.0
H514 H 0.49166 0.75711 1.00317 0.0
H515 H 0.48834 0.83744 1.00603 0.0
C516 C 0.52888 0.86072 0.0373 0.0
C517 C 0.46422 0.79399 0.09477 0.0
C518 C 0.58856 0.80116 0.98166 0.0
C519 C 0.52609 0.73469 0.04066 0.0
H520 H 0.44849 0.84451 0.10927 0.0
H521 H 0.48366 0.88117 0.07791 0.0
H522 H 0.57551 0.8864 0.99565 0.0
H523 H 0.60819 0.85348 0.96546 0.0
H524 H 0.60745 0.75082 0.96963 0.0
H525 H 0.57367 0.7142 1.00219 0.0
H526 H 0.47634 0.70885 0.07935 0.0
H527 H 0.44258 0.74158 0.10883 0.0
H528 H 0.45291 0.75682 0.96459 0.0
H529 H 0.45029 0.8384 0.96753 0.0
H530 H 0.59724 0.7581 0.11738 0.0
H531 H 0.60442 0.84019 0.10919 0.0
C532 C 0.82781 1.00276 0.59037 0.0
C533 C 0.85857 0.9955 0.60009 0.0
C534 C 0.88286 1.01101 0.58532 0.0
C535 C 0.8657 0.02672 0.56742 0.0
N536 N 0.83182 0.02247 0.57009 0.0
Co537 Co 0.79752 0.04002 0.54683 0.0
N538 N 0.83348 0.06161 0.52364 0.0
C539 C 0.86717 0.06125 0.52642 0.0
C540 C 0.88555 0.07896 0.50852 0.0
C541 C 0.86226 0.09169 0.49363 0.0
C542 C 0.83084 0.08088 0.50328 0.0
N543 N 0.76323 0.0574 0.52342 0.0
C544 C 0.76724 0.07698 0.50298 0.0
C545 C 0.73661 0.08358 0.49243 0.0
C546 C 0.71231 0.06795 0.50707 0.0
C547 C 0.7294 0.0527 0.52557 0.0
N548 N 0.76154 1.01862 0.57018 0.0
C549 C 0.72783 0.01944 0.56795 0.0
C550 C 0.70945 1.00213 0.58639 0.0
C551 C 0.73279 0.98922 0.60105 0.0
C552 C 0.76418 0.99938 0.59057 0.0
N553 N 0.79549 0.06707 0.57543 0.0
C554 C 0.79265 0.10728 0.61373 0.0
C555 C 0.76332 0.09575 0.60325 0.0
C556 C 0.76528 0.07588 0.5844 0.0
C557 C 0.82341 0.09794 0.60505 0.0
C558 C 0.82425 0.07803 0.5861 0.0
N559 N 0.79955 1.01293 0.5183 0.0
C560 C 0.77173 0.97973 0.49176 0.0
C561 C 0.80265 0.97141 0.48182 0.0
C562 C 0.83193 0.98492 0.48973 0.0
C563 C 0.82983 1.00539 0.50775 0.0
C564 C 0.77078 1.00036 0.50966 0.0
H565 H 0.85312 1.0146 0.51313 0.0
H566 H 0.74642 1.00547 0.51665 0.0
H567 H 0.74197 0.06806 0.57725 0.0
H568 H 0.84852 0.07204 0.58017 0.0
C569 C 0.8807 0.0448 0.54694 0.0
C570 C 0.79568 0.98951 0.59999 0.0
C571 C 0.79926 0.09043 0.49351 0.0
C572 C 0.71432 0.03524 0.54673 0.0
H573 H 0.86308 0.9802 0.61575 0.0
H574 H 0.90987 1.01044 0.58689 0.0
H575 H 0.91264 0.08263 0.50701 0.0
H576 H 0.86781 0.10753 0.47794 0.0
H577 H 0.73227 0.09849 0.47621 0.0
H578 H 0.68533 0.06819 0.50506 0.0
H579 H 0.68233 0.99877 0.58831 0.0
H580 H 0.72736 0.9737 0.6172 0.0
H581 H 0.73875 0.10185 0.60971 0.0
H582 H 0.84693 0.10626 0.61234 0.0
H583 H 0.74823 0.96995 0.48647 0.0
H584 H 0.85655 0.97975 0.48212 0.0
C585 C 0.48196 0.29872 0.08895 0.0
C586 C 0.47071 0.32169 0.09773 0.0
C587 C 0.48826 0.34055 0.08101 0.0
C588 C 0.50917 0.3281 0.06308 0.0
N589 N 0.50586 0.30238 0.06711 0.0
Co590 Co 0.53207 0.27703 0.04608 0.0
N591 N 0.56037 0.3049 0.02374 0.0
C592 C 0.55901 0.33032 0.02643 0.0
C593 C 0.58173 0.34481 1.00848 0.0
C594 C 0.59848 0.32765 0.99321 0.0
C595 C 0.58476 0.30357 1.00262 0.0
N596 N 0.55771 0.25164 0.02453 0.0
C597 C 0.58175 0.25535 1.00278 0.0
C598 C 0.59146 0.23236 0.99272 0.0
C599 C 0.57293 0.21347 1.00858 0.0
C600 C 0.55288 0.22591 0.02723 0.0
N601 N 0.50438 0.24915 0.06902 0.0
C602 C 0.50649 0.22369 0.06714 0.0
C603 C 0.48522 0.20925 0.08639 0.0
C604 C 0.46888 0.22648 0.10188 0.0
C605 C 0.48125 0.25054 0.09115 0.0
N606 N 0.49873 0.27711 0.01502 0.0
C607 C 0.45653 0.27653 0.9672 0.0
C608 C 0.46328 0.25398 0.98266 0.0
C609 C 0.48416 0.25469 1.0062 0.0
C610 C 0.47018 0.29952 0.97695 0.0
C611 C 0.49088 0.29938 1.00076 0.0
N612 N 0.56547 0.27689 0.07699 0.0
C613 C 0.60029 0.2536 0.10951 0.0
C614 C 0.61095 0.27596 0.12244 0.0
C615 C 0.59862 0.29888 0.11195 0.0
C616 C 0.57617 0.29893 0.08937 0.0
C617 C 0.57787 0.25449 0.08707 0.0
H618 H 0.56768 0.317 0.0824 0.0
H619 H 0.57064 0.23672 0.07844 0.0
H620 H 0.48845 0.23676 0.01662 0.0
H621 H 0.50073 0.31751 1.00688 0.0
C622 C 0.53449 0.34002 0.04445 0.0
C623 C 0.47068 0.27406 0.10316 0.0
C624 C 0.59516 0.28015 0.99024 0.0
C625 C 0.52911 0.21396 0.04734 0.0
H626 H 0.45243 0.3246 0.11499 0.0
H627 H 0.48688 0.36094 0.08253 0.0
H628 H 0.58516 0.36541 1.00629 0.0
H629 H 0.6182 0.33236 0.97667 0.0
H630 H 0.60967 0.22949 0.97539 0.0
H631 H 0.57362 0.1931 1.00647 0.0
H632 H 0.4823 0.18865 0.08912 0.0
H633 H 0.45024 0.22187 0.11935 0.0
H634 H 0.4526 0.23568 0.97662 0.0
H635 H 0.46577 0.31758 0.96581 0.0
H636 H 0.6086 0.23526 0.11704 0.0
H637 H 0.60639 0.31681 0.12094 0.0
C638 C 0.17561 0.41531 0.34057 0.0
C639 C 0.16955 0.39801 0.31886 0.0
H640 H 0.16178 0.44972 0.35975 0.0
C641 C 0.14249 0.40181 0.30078 0.0
H642 H 0.19636 0.41312 0.35474 0.0
C643 C 0.12288 0.42279 0.30355 0.0
C644 C 0.12961 0.44058 0.32456 0.0
H645 H 0.13651 0.38859 0.28428 0.0
H646 H 0.10239 0.42512 0.28911 0.0
C647 C 0.15582 0.43634 0.34342 0.0
C648 C 0.16337 0.63462 0.76482 0.0
C649 C 0.15158 0.65877 0.75747 0.0
H650 H 0.15173 0.59414 0.77006 0.0
C651 C 0.11806 0.66007 0.74909 0.0
H652 H 0.18882 0.63286 0.77176 0.0
C653 C 0.09686 0.63787 0.74842 0.0
C654 C 0.10868 0.61395 0.75614 0.0
H655 H 0.10822 0.67824 0.74294 0.0
H656 H 0.07112 0.63936 0.74205 0.0
C657 C 0.14215 0.61246 0.7641 0.0
C658 C 0.89558 0.64934 0.34384 0.0
C659 C 0.90366 0.66928 0.32271 0.0
H660 H 0.90802 0.61284 0.36205 0.0
C661 C 0.93284 0.66802 0.30479 0.0
H662 H 0.87317 0.64957 0.35788 0.0
C663 C 0.95261 0.64698 0.30708 0.0
C664 C 0.94389 0.6266 0.32743 0.0
H665 H 0.94034 0.68327 0.28874 0.0
H666 H 0.97474 0.64663 0.29274 0.0
C667 C 0.91551 0.62826 0.34621 0.0
C668 C 0.94347 0.41825 0.75809 0.0
C669 C 0.90879 0.41595 0.75304 0.0
H670 H 0.9871 0.44362 0.76283 0.0
C671 C 0.89144 0.43837 0.74912 0.0
H672 H 0.95752 0.40143 0.76158 0.0
C673 C 0.90844 0.46244 0.74988 0.0
C674 C 0.94304 0.46454 0.75466 0.0
H675 H 0.86485 0.43733 0.74489 0.0
H676 H 0.89467 0.47943 0.74653 0.0
C677 C 0.96039 0.44232 0.75897 0.0
C678 C 0.25681 0.13224 0.42018 0.0
C679 C 0.26291 0.15584 0.4327 0.0
H680 H 0.25232 0.09135 0.42686 0.0
C681 C 0.27032 0.15579 0.46222 0.0
H682 H 0.25069 0.13153 0.39762 0.0
C683 C 0.27111 0.1328 0.47885 0.0
C684 C 0.2644 0.1094 0.46637 0.0
H685 H 0.27564 0.17354 0.4725 0.0
H686 H 0.27663 0.13327 0.50157 0.0
C687 C 0.25753 0.10926 0.43687 0.0
C688 C 0.37818 0.81699 0.91393 0.0
C689 C 0.38369 0.80254 0.88966 0.0
H690 H 0.39346 0.82636 0.95608 0.0
C691 C 0.40937 0.78528 0.8903 0.0
H692 H 0.35819 0.83008 0.91443 0.0
C693 C 0.42975 0.78319 0.91423 0.0
C694 C 0.42489 0.79827 0.93811 0.0
H695 H 0.41451 0.77402 0.87187 0.0
H696 H 0.45005 0.77039 0.91355 0.0
C697 C 0.39845 0.81487 0.93782 0.0
C698 C 0.83123 0.90961 0.45215 0.0
C699 C 0.80716 0.90422 0.43149 0.0
H700 H 0.84846 0.93449 0.4843 0.0
C701 C 0.78183 0.92142 0.42716 0.0
H702 H 0.85142 0.89707 0.45585 0.0
C703 C 0.78046 0.94325 0.44323 0.0
C704 C 0.8044 0.9485 0.46407 0.0
H705 H 0.76267 0.91786 0.41164 0.0
H706 H 0.76071 0.9561 0.43915 0.0
C707 C 0.82983 0.93136 0.46823 0.0
C708 C 0.67428 0.27724 0.94212 0.0
C709 C 0.66389 0.28718 0.91529 0.0
H710 H 0.66061 0.26743 0.98693 0.0
C711 C 0.63035 0.29397 0.91322 0.0
H712 H 0.7 0.27214 0.9446 0.0
C713 C 0.60797 0.29127 0.93744 0.0
C714 C 0.61863 0.28176 0.96422 0.0
H715 H 0.6214 0.3014 0.89284 0.0
H716 H 0.58236 0.29683 0.93537 0.0
C717 C 0.65188 0.27464 0.96637 0.0
C718 C 0.26812 0.91345 0.6126 0.0
C719 C 0.25755 0.91246 0.64209 0.0
H720 H 0.27764 0.93673 0.57317 0.0
C721 C 0.2493 0.9353 0.65451 0.0
H722 H 0.27516 0.89637 0.6024 0.0
C723 C 0.25091 0.95837 0.63773 0.0
C724 C 0.26081 0.95908 0.60823 0.0
H725 H 0.24077 0.93525 0.67704 0.0
H726 H 0.24397 0.97562 0.64765 0.0
C727 C 0.26975 0.93652 0.59588 0.0
C728 C 0.63849 0.82028 0.1879 0.0
C729 C 0.66485 0.80399 0.19211 0.0
H730 H 0.59842 0.8313 0.16144 0.0
C731 C 0.67016 0.78539 0.17186 0.0
H732 H 0.63305 0.8344 0.20335 0.0
C733 C 0.65004 0.78353 0.14774 0.0
C734 C 0.62425 0.80029 0.14326 0.0
H735 H 0.69038 0.77266 0.17425 0.0
H736 H 0.65525 0.7694 0.13223 0.0
C737 C 0.61855 0.81848 0.16383 0.0
C738 C 0.81012 0.1506 0.67577 0.0
C739 C 0.78637 0.16911 0.67179 0.0
H740 H 0.8304 0.11647 0.66105 0.0
C741 C 0.76546 0.16749 0.64805 0.0
H742 H 0.82634 0.15102 0.694 0.0
C743 C 0.76775 0.14766 0.62917 0.0
C744 C 0.79103 0.12885 0.63345 0.0
H745 H 0.7473 0.18164 0.64397 0.0
H746 H 0.75136 0.14719 0.61105 0.0
C747 C 0.81242 0.13073 0.65686 0.0
C748 C 0.44416 0.26347 0.1827 0.0
C749 C 0.4096 0.26788 0.18272 0.0
H750 H 0.49042 0.26212 0.15742 0.0
C751 C 0.39554 0.27516 0.1563 0.0
H752 H 0.45596 0.2582 0.20265 0.0
C753 C 0.41542 0.27751 0.1305 0.0
C754 C 0.44972 0.27275 0.13064 0.0
H755 H 0.36899 0.27841 0.15543 0.0
H756 H 0.40396 0.2827 0.11035 0.0
C757 C 0.46397 0.26585 0.15692 0.0
C758 C 0.88283 0.65914 0.74395 0.0
C759 C 0.88933 0.67675 0.76527 0.0
H760 H 0.8964 0.62455 0.72505 0.0
C761 C 0.91688 0.6733 0.78288 0.0
H762 H 0.86168 0.66106 0.73016 0.0
C763 C 0.93658 0.65237 0.78005 0.0
C764 C 0.92943 0.63428 0.75946 0.0
H765 H 0.92319 0.68675 0.79905 0.0
H766 H 0.95747 0.65032 0.79412 0.0
C767 C 0.90269 0.63817 0.74105 0.0
C768 C 0.94134 0.4145 0.33496 0.0
C769 C 0.90795 0.41565 0.32621 0.0
H770 H 0.9881 0.43536 0.34223 0.0
C771 C 0.8962 0.43972 0.31839 0.0
H772 H 0.95114 0.3964 0.34148 0.0
C773 C 0.91734 0.46194 0.31903 0.0
C774 C 0.95069 0.46059 0.32738 0.0
H775 H 0.87086 0.44138 0.31114 0.0
H776 H 0.90779 0.48019 0.31272 0.0
C777 C 0.96246 0.43675 0.33556 0.0
C778 C 0.16299 0.42532 0.73906 0.0
C779 C 0.15431 0.40497 0.75956 0.0
H780 H 0.1511 0.46218 0.72151 0.0
C781 C 0.12468 0.40593 0.77698 0.0
H782 H 0.18576 0.42535 0.72544 0.0
C783 C 0.10504 0.42705 0.77486 0.0
C784 C 0.11433 0.44781 0.75516 0.0
H785 H 0.11672 0.39039 0.79252 0.0
H786 H 0.08255 0.42719 0.78883 0.0
C787 C 0.14317 0.44647 0.73684 0.0
C788 C 0.11475 0.65561 0.3394 0.0
C789 C 0.14948 0.65924 0.33211 0.0
H790 H 0.07117 0.62928 0.34384 0.0
C791 C 0.1668 0.63815 0.32336 0.0
H792 H 0.10047 0.67141 0.34584 0.0
C793 C 0.14987 0.6141 0.32208 0.0
C794 C 0.11529 0.61068 0.32939 0.0
H795 H 0.19359 0.64011 0.31797 0.0
H796 H 0.16378 0.59811 0.31557 0.0
C797 C 0.09788 0.63158 0.33809 0.0
C798 C 0.78853 0.91882 0.62228 0.0
C799 C 0.79616 0.91871 0.65176 0.0
H800 H 0.78227 0.94139 0.58297 0.0
C801 C 0.80269 0.94227 0.66425 0.0
H802 H 0.78289 0.90109 0.61204 0.0
C803 C 0.80219 0.96527 0.64756 0.0
C804 C 0.79511 0.96518 0.6181 0.0
H805 H 0.80898 0.94293 0.68676 0.0
H806 H 0.80773 0.98315 0.65753 0.0
C807 C 0.78796 0.94182 0.60566 0.0
C808 C 0.65012 0.28809 0.19468 0.0
C809 C 0.67571 0.27077 0.19521 0.0
H810 H 0.60938 0.30309 0.17162 0.0
C811 C 0.68091 0.2562 0.17099 0.0
H812 H 0.64521 0.29943 0.21308 0.0
C813 C 0.66048 0.25835 0.14719 0.0
C814 C 0.63419 0.27508 0.14697 0.0
H815 H 0.70081 0.24304 0.17042 0.0
H816 H 0.66528 0.24681 0.12894 0.0
C817 C 0.62958 0.2902 0.17086 0.0
C818 C 0.27998 0.16578 0.63554 0.0
C819 C 0.25363 0.16714 0.65648 0.0
H820 H 0.30196 0.14445 0.60227 0.0
C821 C 0.22962 0.14637 0.6606 0.0
H822 H 0.29867 0.18154 0.63151 0.0
C823 C 0.23158 0.12499 0.64392 0.0
C824 C 0.25755 0.12381 0.62256 0.0
H825 H 0.20931 0.14656 0.67686 0.0
H826 H 0.21275 0.10932 0.64791 0.0
C827 C 0.28188 0.14443 0.61877 0.0
C828 C 0.42839 0.78003 0.1716 0.0
C829 C 0.3948 0.78661 0.16927 0.0
H830 H 0.47666 0.77748 0.1498 0.0
C831 C 0.38455 0.79641 0.14233 0.0
H832 H 0.43722 0.7727 0.19206 0.0
C833 C 0.40716 0.79909 0.11822 0.0
C834 C 0.44049 0.79222 0.12063 0.0
H835 H 0.35879 0.80135 0.13967 0.0
H836 H 0.39854 0.8062 0.09758 0.0
C837 C 0.451 0.78285 0.14753 0.0
C838 C 0.79181 0.16025 0.47096 0.0
C839 C 0.80299 0.16141 0.44161 0.0
H840 H 0.78177 0.1368 0.5102 0.0
C841 C 0.81182 0.13869 0.42923 0.0
H842 H 0.78433 0.17725 0.4811 0.0
C843 C 0.81017 0.11558 0.44593 0.0
C844 C 0.79965 0.11471 0.4753 0.0
H845 H 0.82084 0.13887 0.40682 0.0
H846 H 0.81759 0.09842 0.43606 0.0
C847 C 0.79012 0.13714 0.48759 0.0
C848 C 0.42047 0.25518 0.89685 0.0
C849 C 0.39747 0.27379 0.89058 0.0
H850 H 0.4573 0.24169 0.92529 0.0
C851 C 0.39415 0.29352 0.90973 0.0
H852 H 0.42344 0.23949 0.88292 0.0
C853 C 0.41328 0.29454 0.9345 0.0
C854 C 0.43617 0.27582 0.94078 0.0
H855 H 0.37694 0.30832 0.9055 0.0
H856 H 0.40977 0.30981 0.94893 0.0
C857 C 0.43959 0.25623 0.9215 0.0
C858 C 0.24715 0.90726 0.42953 0.0
C859 C 0.27132 0.90933 0.40635 0.0
H860 H 0.22687 0.92408 0.46714 0.0
C861 C 0.29408 0.93098 0.40378 0.0
H862 H 0.22908 0.89098 0.43211 0.0
C863 C 0.29262 0.95006 0.42369 0.0
C864 C 0.26838 0.94809 0.4468 0.0
H865 H 0.31335 0.93311 0.38648 0.0
H866 H 0.31033 0.96655 0.42072 0.0
C867 C 0.24565 0.92641 0.44945 0.0
C868 C 0.6637 0.80037 0.92847 0.0
C869 C 0.64952 0.80737 0.90202 0.0
H870 H 0.65544 0.79307 0.97447 0.0
C871 C 0.6149 0.8116 0.90206 0.0
H872 H 0.6903 0.79727 0.92933 0.0
C873 C 0.59516 0.80929 0.92788 0.0
C874 C 0.60953 0.80263 0.95417 0.0
H875 H 0.603 0.81665 0.88209 0.0
H876 H 0.56864 0.81282 0.92737 0.0
C877 C 0.64389 0.79808 0.95431 0.0
loop_
_geom_bond_atom_site_label_1
_geom_bond_atom_site_label_2
_geom_bond_distance
_geom_bond_site_symmetry_2
_ccdc_geom_bond_type
C0 C1 1.264 . S
C0 C5 1.479 . S
C0 C10 1.465 . S
C1 C0 1.264 . S
C1 C3 1.339 . S
C1 H28 0.931 . S
C2 C3 1.395 . S
C2 C4 1.320 . S
C3 C1 1.339 . S
C3 C2 1.395 . S
C3 H29 0.929 . S
C4 C2 1.320 . S
C4 C5 1.405 . S
C4 H30 0.930 . S
C5 C0 1.479 . S
C5 C4 1.405 . S
C5 H31 0.931 . S
U6 O7 2.454 . S
U6 O8 2.458 . S
U6 C9 2.984 . S
U6 C10 2.847 . S
U6 C23 2.882 . S
U6 O24 2.441 . S
U6 O25 2.420 . S
U6 O26 2.455 . S
U6 O27 2.449 . S
O7 U6 2.454 . S
O7 C9 1.353 . S
O8 U6 2.458 . S
O8 C9 1.286 . S
C9 U6 2.984 . S
C9 O7 1.353 . S
C9 O8 1.286 . S
C9 C11 1.363 . S
C10 C0 1.465 . S
C10 U6 2.847 . S
C10 O24 1.249 . S
C10 O25 1.202 . S
C11 C9 1.363 . S
C11 C13 1.408 . S
C11 C16 1.342 . S
C12 C13 1.310 . S
C12 C15 1.461 . S
C12 H32 0.932 . S
C13 C11 1.408 . S
C13 C12 1.310 . S
C13 H33 0.930 . S
C14 C15 1.474 . S
C14 C16 1.285 . S
C14 H34 0.929 . S
C15 C12 1.461 . S
C15 C14 1.474 . S
C16 C11 1.342 . S
C16 C14 1.285 . S
C16 H35 0.930 . S
C17 C20 1.424 . S
C17 C22 1.245 . S
C17 C23 1.428 . S
C18 C21 1.260 . S
C18 C22 1.477 . S
C18 H36 0.932 . S
C19 C20 1.384 . S
C19 C21 1.479 . S
C19 H37 0.929 . S
C20 C17 1.424 . S
C20 C19 1.384 . S
C20 H38 0.928 . S
C21 C18 1.260 . S
C21 C19 1.479 . S
C22 C17 1.245 . S
C22 C18 1.477 . S
C22 H39 0.932 . S
C23 U6 2.882 . S
C23 C17 1.428 . S
C23 O26 1.301 . S
C23 O27 1.282 . S
O24 U6 2.441 . S
O24 C10 1.249 . S
O25 U6 2.420 . S
O25 C10 1.202 . S
O26 U6 2.455 . S
O26 C23 1.301 . S
O27 U6 2.449 . S
O27 C23 1.282 . S
H28 C1 0.931 . S
H29 C3 0.929 . S
H30 C4 0.930 . S
H31 C5 0.931 . S
H32 C12 0.932 . S
H33 C13 0.930 . S
H34 C14 0.929 . S
H35 C16 0.930 . S
H36 C18 0.932 . S
H37 C19 0.929 . S
H38 C20 0.928 . S
H39 C22 0.932 . S
C40 C41 1.264 . S
C40 C45 1.479 . S
C40 C50 1.465 . S
C41 C40 1.264 . S
C41 C43 1.339 . S
C41 H68 0.931 . S
C42 C43 1.395 . S
C42 C44 1.320 . S
C43 C41 1.339 . S
C43 C42 1.395 . S
C43 H69 0.929 . S
C44 C42 1.320 . S
C44 C45 1.405 . S
C44 H70 0.930 . S
C45 C40 1.479 . S
C45 C44 1.405 . S
C45 H71 0.931 . S
U46 O47 2.454 . S
U46 O48 2.458 . S
U46 C49 2.984 . S
U46 C50 2.847 . S
U46 C63 2.882 . S
U46 O64 2.441 . S
U46 O65 2.420 . S
U46 O66 2.455 . S
U46 O67 2.449 . S
O47 U46 2.454 . S
O47 C49 1.353 . S
O48 U46 2.458 . S
O48 C49 1.286 . S
C49 U46 2.984 . S
C49 O47 1.353 . S
C49 O48 1.286 . S
C49 C51 1.363 . S
C50 C40 1.465 . S
C50 U46 2.847 . S
C50 O64 1.249 . S
C50 O65 1.202 . S
C51 C49 1.363 . S
C51 C53 1.408 . S
C51 C56 1.342 . S
C52 C53 1.310 . S
C52 C55 1.461 . S
C52 H72 0.932 . S
C53 C51 1.408 . S
C53 C52 1.310 . S
C53 H73 0.930 . S
C54 C55 1.474 . S
C54 C56 1.285 . S
C54 H74 0.929 . S
C55 C52 1.461 . S
C55 C54 1.474 . S
C56 C51 1.342 . S
C56 C54 1.285 . S
C56 H75 0.930 . S
C57 C60 1.424 . S
C57 C62 1.245 . S
C57 C63 1.428 . S
C58 C61 1.260 . S
C58 C62 1.477 . S
C58 H76 0.932 . S
C59 C60 1.384 . S
C59 C61 1.479 . S
C59 H77 0.929 . S
C60 C57 1.424 . S
C60 C59 1.384 . S
C60 H78 0.928 . S
C61 C58 1.260 . S
C61 C59 1.479 . S
C62 C57 1.245 . S
C62 C58 1.477 . S
C62 H79 0.932 . S
C63 U46 2.882 . S
C63 C57 1.428 . S
C63 O66 1.301 . S
C63 O67 1.282 . S
O64 U46 2.441 . S
O64 C50 1.249 . S
O65 U46 2.420 . S
O65 C50 1.202 . S
O66 U46 2.455 . S
O66 C63 1.301 . S
O67 U46 2.449 . S
O67 C63 1.282 . S
H68 C41 0.931 . S
H69 C43 0.929 . S
H70 C44 0.930 . S
H71 C45 0.931 . S
H72 C52 0.932 . S
H73 C53 0.930 . S
H74 C54 0.929 . S
H75 C56 0.930 . S
H76 C58 0.932 . S
H77 C59 0.929 . S
H78 C60 0.928 . S
H79 C62 0.932 . S
C80 C81 1.264 . S
C80 C85 1.479 . S
C80 C90 1.465 . S
C81 C80 1.264 . S
C81 C83 1.339 . S
C81 H108 0.931 . S
C82 C83 1.395 . S
C82 C84 1.320 . S
C83 C81 1.339 . S
C83 C82 1.395 . S
C83 H109 0.929 . S
C84 C82 1.320 . S
C84 C85 1.405 . S
C84 H110 0.930 . S
C85 C80 1.479 . S
C85 C84 1.405 . S
C85 H111 0.931 . S
U86 O87 2.454 . S
U86 O88 2.458 . S
U86 C89 2.984 . S
U86 C90 2.847 . S
U86 C103 2.882 . S
U86 O104 2.441 . S
U86 O105 2.420 . S
U86 O106 2.455 . S
U86 O107 2.449 . S
O87 U86 2.454 . S
O87 C89 1.353 . S
O88 U86 2.458 . S
O88 C89 1.286 . S
C89 U86 2.984 . S
C89 O87 1.353 . S
C89 O88 1.286 . S
C89 C91 1.363 . S
C90 C80 1.465 . S
C90 U86 2.847 . S
C90 O104 1.249 . S
C90 O105 1.202 . S
C91 C89 1.363 . S
C91 C93 1.408 . S
C91 C96 1.342 . S
C92 C93 1.310 . S
C92 C95 1.461 . S
C92 H112 0.932 . S
C93 C91 1.408 . S
C93 C92 1.310 . S
C93 H113 0.930 . S
C94 C95 1.474 . S
C94 C96 1.285 . S
C94 H114 0.929 . S
C95 C92 1.461 . S
C95 C94 1.474 . S
C96 C91 1.342 . S
C96 C94 1.285 . S
C96 H115 0.930 . S
C97 C100 1.424 . S
C97 C102 1.245 . S
C97 C103 1.428 . S
C98 C101 1.260 . S
C98 C102 1.477 . S
C98 H116 0.932 . S
C99 C100 1.384 . S
C99 C101 1.479 . S
C99 H117 0.929 . S
C100 C97 1.424 . S
C100 C99 1.384 . S
C100 H118 0.928 . S
C101 C98 1.260 . S
C101 C99 1.479 . S
C102 C97 1.245 . S
C102 C98 1.477 . S
C102 H119 0.932 . S
C103 U86 2.882 . S
C103 C97 1.428 . S
C103 O106 1.301 . S
C103 O107 1.282 . S
O104 U86 2.441 . S
O104 C90 1.249 . S
O105 U86 2.420 . S
O105 C90 1.202 . S
O106 U86 2.455 . S
O106 C103 1.301 . S
O107 U86 2.449 . S
O107 C103 1.282 . S
H108 C81 0.931 . S
H109 C83 0.929 . S
H110 C84 0.930 . S
H111 C85 0.931 . S
H112 C92 0.932 . S
H113 C93 0.930 . S
H114 C94 0.929 . S
H115 C96 0.930 . S
H116 C98 0.932 . S
H117 C99 0.929 . S
H118 C100 0.928 . S
H119 C102 0.932 . S
C120 C121 1.264 . S
C120 C125 1.479 . S
C120 C130 1.465 . S
C121 C120 1.264 . S
C121 C123 1.339 . S
C121 H148 0.931 . S
C122 C123 1.395 . S
C122 C124 1.320 . S
C123 C121 1.339 . S
C123 C122 1.395 . S
C123 H149 0.929 . S
C124 C122 1.320 . S
C124 C125 1.405 . S
C124 H150 0.930 . S
C125 C120 1.479 . S
C125 C124 1.405 . S
C125 H151 0.931 . S
U126 O127 2.454 . S
U126 O128 2.458 . S
U126 C129 2.984 . S
U126 C130 2.847 . S
U126 C143 2.882 . S
U126 O144 2.441 . S
U126 O145 2.420 . S
U126 O146 2.455 . S
U126 O147 2.449 . S
O127 U126 2.454 . S
O127 C129 1.353 . S
O128 U126 2.458 . S
O128 C129 1.286 . S
C129 U126 2.984 . S
C129 O127 1.353 . S
C129 O128 1.286 . S
C129 C131 1.363 . S
C130 C120 1.465 . S
C130 U126 2.847 . S
C130 O144 1.249 . S
C130 O145 1.202 . S
C131 C129 1.363 . S
C131 C133 1.408 . S
C131 C136 1.342 . S
C132 C133 1.310 . S
C132 C135 1.461 . S
C132 H152 0.932 . S
C133 C131 1.408 . S
C133 C132 1.310 . S
C133 H153 0.930 . S
C134 C135 1.474 . S
C134 C136 1.285 . S
C134 H154 0.929 . S
C135 C132 1.461 . S
C135 C134 1.474 . S
C136 C131 1.342 . S
C136 C134 1.285 . S
C136 H155 0.930 . S
C137 C140 1.424 . S
C137 C142 1.245 . S
C137 C143 1.428 . S
C138 C141 1.260 . S
C138 C142 1.477 . S
C138 H156 0.932 . S
C139 C140 1.384 . S
C139 C141 1.479 . S
C139 H157 0.929 . S
C140 C137 1.424 . S
C140 C139 1.384 . S
C140 H158 0.928 . S
C141 C138 1.260 . S
C141 C139 1.479 . S
C142 C137 1.245 . S
C142 C138 1.477 . S
C142 H159 0.932 . S
C143 U126 2.882 . S
C143 C137 1.428 . S
C143 O146 1.301 . S
C143 O147 1.282 . S
O144 U126 2.441 . S
O144 C130 1.249 . S
O145 U126 2.420 . S
O145 C130 1.202 . S
O146 U126 2.455 . S
O146 C143 1.301 . S
O147 U126 2.449 . S
O147 C143 1.282 . S
H148 C121 0.931 . S
H149 C123 0.929 . S
H150 C124 0.930 . S
H151 C125 0.931 . S
H152 C132 0.932 . S
H153 C133 0.930 . S
H154 C134 0.929 . S
H155 C136 0.930 . S
H156 C138 0.932 . S
H157 C139 0.929 . S
H158 C140 0.928 . S
H159 C142 0.932 . S
C160 C161 1.264 . S
C160 C165 1.479 . S
C160 C170 1.465 . S
C161 C160 1.264 . S
C161 C163 1.339 . S
C161 H188 0.931 . S
C162 C163 1.395 . S
C162 C164 1.320 . S
C163 C161 1.339 . S
C163 C162 1.395 . S
C163 H189 0.929 . S
C164 C162 1.320 . S
C164 C165 1.405 . S
C164 H190 0.930 . S
C165 C160 1.479 . S
C165 C164 1.405 . S
C165 H191 0.931 . S
U166 O167 2.454 . S
U166 O168 2.458 . S
U166 C169 2.984 . S
U166 C170 2.847 . S
U166 C183 2.882 . S
U166 O184 2.441 . S
U166 O185 2.420 . S
U166 O186 2.455 . S
U166 O187 2.449 . S
O167 U166 2.454 . S
O167 C169 1.353 . S
O168 U166 2.458 . S
O168 C169 1.286 . S
C169 U166 2.984 . S
C169 O167 1.353 . S
C169 O168 1.286 . S
C169 C171 1.363 . S
C170 C160 1.465 . S
C170 U166 2.847 . S
C170 O184 1.249 . S
C170 O185 1.202 . S
C171 C169 1.363 . S
C171 C173 1.408 . S
C171 C176 1.342 . S
C172 C173 1.310 . S
C172 C175 1.461 . S
C172 H192 0.932 . S
C173 C171 1.408 . S
C173 C172 1.310 . S
C173 H193 0.930 . S
C174 C175 1.474 . S
C174 C176 1.285 . S
C174 H194 0.929 . S
C175 C172 1.461 . S
C175 C174 1.474 . S
C176 C171 1.342 . S
C176 C174 1.285 . S
C176 H195 0.930 . S
C177 C180 1.424 . S
C177 C182 1.245 . S
C177 C183 1.428 . S
C178 C181 1.260 . S
C178 C182 1.477 . S
C178 H196 0.932 . S
C179 C180 1.384 . S
C179 C181 1.479 . S
C179 H197 0.929 . S
C180 C177 1.424 . S
C180 C179 1.384 . S
C180 H198 0.928 . S
C181 C178 1.260 . S
C181 C179 1.479 . S
C182 C177 1.245 . S
C182 C178 1.477 . S
C182 H199 0.932 . S
C183 U166 2.882 . S
C183 C177 1.428 . S
C183 O186 1.301 . S
C183 O187 1.282 . S
O184 U166 2.441 . S
O184 C170 1.249 . S
O185 U166 2.420 . S
O185 C170 1.202 . S
O186 U166 2.455 . S
O186 C183 1.301 . S
O187 U166 2.449 . S
O187 C183 1.282 . S
H188 C161 0.931 . S
H189 C163 0.929 . S
H190 C164 0.930 . S
H191 C165 0.931 . S
H192 C172 0.932 . S
H193 C173 0.930 . S
H194 C174 0.929 . S
H195 C176 0.930 . S
H196 C178 0.932 . S
H197 C179 0.929 . S
H198 C180 0.928 . S
H199 C182 0.932 . S
C200 C201 1.264 . S
C200 C205 1.479 . S
C200 C210 1.465 . S
C201 C200 1.264 . S
C201 C203 1.339 . S
C201 H228 0.931 . S
C202 C203 1.395 . S
C202 C204 1.320 . S
C203 C201 1.339 . S
C203 C202 1.395 . S
C203 H229 0.929 . S
C204 C202 1.320 . S
C204 C205 1.405 . S
C204 H230 0.930 . S
C205 C200 1.479 . S
C205 C204 1.405 . S
C205 H231 0.931 . S
U206 O207 2.454 . S
U206 O208 2.458 . S
U206 C209 2.984 . S
U206 C210 2.847 . S
U206 C223 2.882 . S
U206 O224 2.441 . S
U206 O225 2.420 . S
U206 O226 2.455 . S
U206 O227 2.449 . S
O207 U206 2.454 . S
O207 C209 1.353 . S
O208 U206 2.458 . S
O208 C209 1.286 . S
C209 U206 2.984 . S
C209 O207 1.353 . S
C209 O208 1.286 . S
C209 C211 1.363 . S
C210 C200 1.465 . S
C210 U206 2.847 . S
C210 O224 1.249 . S
C210 O225 1.202 . S
C211 C209 1.363 . S
C211 C213 1.408 . S
C211 C216 1.342 . S
C212 C213 1.310 . S
C212 C215 1.461 . S
C212 H232 0.932 . S
C213 C211 1.408 . S
C213 C212 1.310 . S
C213 H233 0.930 . S
C214 C215 1.474 . S
C214 C216 1.285 . S
C214 H234 0.929 . S
C215 C212 1.461 . S
C215 C214 1.474 . S
C216 C211 1.342 . S
C216 C214 1.285 . S
C216 H235 0.930 . S
C217 C220 1.424 . S
C217 C222 1.245 . S
C217 C223 1.428 . S
C218 C221 1.260 . S
C218 C222 1.477 . S
C218 H236 0.932 . S
C219 C220 1.384 . S
C219 C221 1.479 . S
C219 H237 0.929 . S
C220 C217 1.424 . S
C220 C219 1.384 . S
C220 H238 0.928 . S
C221 C218 1.260 . S
C221 C219 1.479 . S
C222 C217 1.245 . S
C222 C218 1.477 . S
C222 H239 0.932 . S
C223 U206 2.882 . S
C223 C217 1.428 . S
C223 O226 1.301 . S
C223 O227 1.282 . S
O224 U206 2.441 . S
O224 C210 1.249 . S
O225 U206 2.420 . S
O225 C210 1.202 . S
O226 U206 2.455 . S
O226 C223 1.301 . S
O227 U206 2.449 . S
O227 C223 1.282 . S
H228 C201 0.931 . S
H229 C203 0.929 . S
H230 C204 0.930 . S
H231 C205 0.931 . S
H232 C212 0.932 . S
H233 C213 0.930 . S
H234 C214 0.929 . S
H235 C216 0.930 . S
H236 C218 0.932 . S
H237 C219 0.929 . S
H238 C220 0.928 . S
H239 C222 0.932 . S
C240 C241 1.264 . S
C240 C245 1.479 . S
C240 C250 1.465 . S
C241 C240 1.264 . S
C241 C243 1.339 . S
C241 H268 0.931 . S
C242 C243 1.395 . S
C242 C244 1.320 . S
C243 C241 1.339 . S
C243 C242 1.395 . S
C243 H269 0.929 . S
C244 C242 1.320 . S
C244 C245 1.405 . S
C244 H270 0.930 . S
C245 C240 1.479 . S
C245 C244 1.405 . S
C245 H271 0.931 . S
U246 O247 2.454 . S
U246 O248 2.458 . S
U246 C249 2.984 . S
U246 C250 2.847 . S
U246 C263 2.882 . S
U246 O264 2.441 . S
U246 O265 2.420 . S
U246 O266 2.455 . S
U246 O267 2.449 . S
O247 U246 2.454 . S
O247 C249 1.353 . S
O248 U246 2.458 . S
O248 C249 1.286 . S
C249 U246 2.984 . S
C249 O247 1.353 . S
C249 O248 1.286 . S
C249 C251 1.363 . S
C250 C240 1.465 . S
C250 U246 2.847 . S
C250 O264 1.249 . S
C250 O265 1.202 . S
C251 C249 1.363 . S
C251 C253 1.408 . S
C251 C256 1.342 . S
C252 C253 1.310 . S
C252 C255 1.461 . S
C252 H272 0.932 . S
C253 C251 1.408 . S
C253 C252 1.310 . S
C253 H273 0.930 . S
C254 C255 1.474 . S
C254 C256 1.285 . S
C254 H274 0.929 . S
C255 C252 1.461 . S
C255 C254 1.474 . S
C256 C251 1.342 . S
C256 C254 1.285 . S
C256 H275 0.930 . S
C257 C260 1.424 . S
C257 C262 1.245 . S
C257 C263 1.428 . S
C258 C261 1.260 . S
C258 C262 1.477 . S
C258 H276 0.932 . S
C259 C260 1.384 . S
C259 C261 1.479 . S
C259 H277 0.929 . S
C260 C257 1.424 . S
C260 C259 1.384 . S
C260 H278 0.928 . S
C261 C258 1.260 . S
C261 C259 1.479 . S
C262 C257 1.245 . S
C262 C258 1.477 . S
C262 H279 0.932 . S
C263 U246 2.882 . S
C263 C257 1.428 . S
C263 O266 1.301 . S
C263 O267 1.282 . S
O264 U246 2.441 . S
O264 C250 1.249 . S
O265 U246 2.420 . S
O265 C250 1.202 . S
O266 U246 2.455 . S
O266 C263 1.301 . S
O267 U246 2.449 . S
O267 C263 1.282 . S
H268 C241 0.931 . S
H269 C243 0.929 . S
H270 C244 0.930 . S
H271 C245 0.931 . S
H272 C252 0.932 . S
H273 C253 0.930 . S
H274 C254 0.929 . S
H275 C256 0.930 . S
H276 C258 0.932 . S
H277 C259 0.929 . S
H278 C260 0.928 . S
H279 C262 0.932 . S
C280 C281 1.264 . S
C280 C285 1.479 . S
C280 C290 1.465 . S
C281 C280 1.264 . S
C281 C283 1.339 . S
C281 H308 0.931 . S
C282 C283 1.395 . S
C282 C284 1.320 . S
C283 C281 1.339 . S
C283 C282 1.395 . S
C283 H309 0.929 . S
C284 C282 1.320 . S
C284 C285 1.405 . S
C284 H310 0.930 . S
C285 C280 1.479 . S
C285 C284 1.405 . S
C285 H311 0.931 . S
U286 O287 2.454 . S
U286 O288 2.458 . S
U286 C289 2.984 . S
U286 C290 2.847 . S
U286 C303 2.882 . S
U286 O304 2.441 . S
U286 O305 2.420 . S
U286 O306 2.455 . S
U286 O307 2.449 . S
O287 U286 2.454 . S
O287 C289 1.353 . S
O288 U286 2.458 . S
O288 C289 1.286 . S
C289 U286 2.984 . S
C289 O287 1.353 . S
C289 O288 1.286 . S
C289 C291 1.363 . S
C290 C280 1.465 . S
C290 U286 2.847 . S
C290 O304 1.249 . S
C290 O305 1.202 . S
C291 C289 1.363 . S
C291 C293 1.408 . S
C291 C296 1.342 . S
C292 C293 1.310 . S
C292 C295 1.461 . S
C292 H312 0.932 . S
C293 C291 1.408 . S
C293 C292 1.310 . S
C293 H313 0.930 . S
C294 C295 1.474 . S
C294 C296 1.285 . S
C294 H314 0.929 . S
C295 C292 1.461 . S
C295 C294 1.474 . S
C296 C291 1.342 . S
C296 C294 1.285 . S
C296 H315 0.930 . S
C297 C300 1.424 . S
C297 C302 1.245 . S
C297 C303 1.428 . S
C298 C301 1.260 . S
C298 C302 1.477 . S
C298 H316 0.932 . S
C299 C300 1.384 . S
C299 C301 1.479 . S
C299 H317 0.929 . S
C300 C297 1.424 . S
C300 C299 1.384 . S
C300 H318 0.928 . S
C301 C298 1.260 . S
C301 C299 1.479 . S
C302 C297 1.245 . S
C302 C298 1.477 . S
C302 H319 0.932 . S
C303 U286 2.882 . S
C303 C297 1.428 . S
C303 O306 1.301 . S
C303 O307 1.282 . S
O304 U286 2.441 . S
O304 C290 1.249 . S
O305 U286 2.420 . S
O305 C290 1.202 . S
O306 U286 2.455 . S
O306 C303 1.301 . S
O307 U286 2.449 . S
O307 C303 1.282 . S
H308 C281 0.931 . S
H309 C283 0.929 . S
H310 C284 0.930 . S
H311 C285 0.931 . S
H312 C292 0.932 . S
H313 C293 0.930 . S
H314 C294 0.929 . S
H315 C296 0.930 . S
H316 C298 0.932 . S
H317 C299 0.929 . S
H318 C300 0.928 . S
H319 C302 0.932 . S
C320 C321 1.443 . S
C320 N324 1.376 . S
C320 C358 1.389 . S
C321 C320 1.443 . S
C321 C322 1.340 . S
C321 H361 0.951 . S
C322 C321 1.340 . S
C322 C323 1.439 . S
C322 H362 0.950 . S
C323 C322 1.439 . S
C323 N324 1.374 . S
C323 C357 1.395 . S
N324 C320 1.376 . S
N324 C323 1.374 . S
N324 Co325 2.008 . S
Co325 N324 2.008 . S
Co325 N326 1.995 1_455 S
Co325 N331 2.008 . S
Co325 N336 1.995 . S
Co325 N341 2.282 . S
Co325 N347 2.282 1_455 S
N326 Co325 1.995 1_655 S
N326 C327 1.375 1_655 S
N326 C330 1.382 . S
C327 N326 1.375 1_455 S
C327 C328 1.438 1_455 S
C327 C357 1.400 . S
C328 C327 1.438 1_655 S
C328 C329 1.339 . S
C328 H363 0.949 . S
C329 C328 1.339 . S
C329 C330 1.439 . S
C329 H364 0.950 . S
C330 N326 1.382 . S
C330 C329 1.439 . S
C330 C359 1.392 . S
N331 Co325 2.008 . S
N331 C332 1.376 1_455 S
N331 C335 1.374 . S
C332 N331 1.376 1_655 S
C332 C333 1.443 . S
C332 C359 1.389 . S
C333 C332 1.443 . S
C333 C334 1.340 . S
C333 H365 0.951 . S
C334 C333 1.340 . S
C334 C335 1.439 1_655 S
C334 H366 0.950 . S
C335 N331 1.374 . S
C335 C334 1.439 1_455 S
C335 C360 1.395 . S
N336 Co325 1.995 . S
N336 C337 1.376 . S
N336 C340 1.383 . S
C337 N336 1.376 . S
C337 C338 1.446 . S
C337 C360 1.391 . S
C338 C337 1.446 . S
C338 C339 1.339 . S
C338 H367 0.949 . S
C339 C338 1.339 . S
C339 C340 1.439 . S
C339 H368 0.950 . S
C340 N336 1.383 . S
C340 C339 1.439 . S
C340 C358 1.392 . S
N341 Co325 2.282 . S
N341 C344 1.332 . S
N341 C346 1.332 . S
C342 C343 1.386 . S
C342 C345 1.388 . S
C343 C342 1.386 . S
C343 C344 1.382 . S
C343 H369 0.950 . S
C344 N341 1.332 . S
C344 C343 1.382 . S
C344 H355 0.952 . S
C345 C342 1.388 . S
C345 C346 1.382 . S
C345 H370 0.950 . S
C346 N341 1.332 . S
C346 C345 1.382 . S
C346 H356 0.948 . S
N347 Co325 2.282 1_655 S
N347 C351 1.332 . S
N347 C352 1.332 . S
C348 C349 1.388 . S
C348 C352 1.382 . S
C348 H371 0.950 . S
C349 C348 1.388 . S
C349 C350 1.386 . S
C350 C349 1.386 . S
C350 C351 1.382 . S
C350 H372 0.950 . S
C351 N347 1.332 . S
C351 C350 1.382 . S
C351 H353 0.952 . S
C352 N347 1.332 . S
C352 C348 1.382 . S
C352 H354 0.948 . S
H353 C351 0.952 . S
H354 C352 0.948 . S
H355 C344 0.952 . S
H356 C346 0.948 . S
C357 C323 1.395 . S
C357 C327 1.400 . S
C358 C320 1.389 . S
C358 C340 1.392 . S
C359 C330 1.392 . S
C359 C332 1.389 . S
C360 C335 1.395 . S
C360 C337 1.391 . S
H361 C321 0.951 . S
H362 C322 0.950 . S
H363 C328 0.949 . S
H364 C329 0.950 . S
H365 C333 0.951 . S
H366 C334 0.950 . S
H367 C338 0.949 . S
H368 C339 0.950 . S
H369 C343 0.950 . S
H370 C345 0.950 . S
H371 C348 0.950 . S
H372 C350 0.950 . S
C373 C374 1.443 . S
C373 N377 1.376 . S
C373 C411 1.389 . S
C374 C373 1.443 . S
C374 C375 1.340 . S
C374 H414 0.951 . S
C375 C374 1.340 . S
C375 C376 1.439 . S
C375 H415 0.950 . S
C376 C375 1.439 . S
C376 N377 1.374 . S
C376 C410 1.395 . S
N377 C373 1.376 . S
N377 C376 1.374 . S
N377 Co378 2.008 . S
Co378 N377 2.008 . S
Co378 N379 1.995 1_455 S
Co378 N384 2.008 1_455 S
Co378 N389 1.995 . S
Co378 N394 2.282 . S
Co378 N400 2.282 1_455 S
N379 Co378 1.995 1_655 S
N379 C380 1.376 . S
N379 C383 1.383 . S
C380 N379 1.376 . S
C380 C381 1.446 . S
C380 C410 1.391 1_655 S
C381 C380 1.446 . S
C381 C382 1.339 . S
C381 H416 0.949 . S
C382 C381 1.339 . S
C382 C383 1.439 . S
C382 H417 0.950 . S
C383 N379 1.383 . S
C383 C382 1.439 . S
C383 C412 1.392 . S
N384 Co378 2.008 1_655 S
N384 C385 1.376 . S
N384 C388 1.371 1_655 S
C385 N384 1.376 . S
C385 C386 1.443 . S
C385 C412 1.389 . S
C386 C385 1.443 . S
C386 C387 1.340 . S
C386 H418 0.951 . S
C387 C386 1.340 . S
C387 C388 1.433 1_655 S
C387 H419 0.950 . S
C388 N384 1.371 1_455 S
C388 C387 1.433 1_455 S
C388 C413 1.403 . S
N389 Co378 1.995 . S
N389 C390 1.376 . S
N389 C393 1.383 . S
C390 N389 1.376 . S
C390 C391 1.446 . S
C390 C413 1.391 . S
C391 C390 1.446 . S
C391 C392 1.339 . S
C391 H420 0.949 . S
C392 C391 1.339 . S
C392 C393 1.439 . S
C392 H421 0.950 . S
C393 N389 1.383 . S
C393 C392 1.439 . S
C393 C411 1.392 . S
N394 Co378 2.282 . S
N394 C397 1.332 . S
N394 C399 1.332 . S
C395 C396 1.386 . S
C395 C398 1.388 . S
C396 C395 1.386 . S
C396 C397 1.382 . S
C396 H422 0.950 . S
C397 N394 1.332 . S
C397 C396 1.382 . S
C397 H408 0.952 . S
C398 C395 1.388 . S
C398 C399 1.382 . S
C398 H423 0.950 . S
C399 N394 1.332 . S
C399 C398 1.382 . S
C399 H409 0.948 . S
N400 Co378 2.282 1_655 S
N400 C404 1.332 . S
N400 C405 1.332 . S
C401 C402 1.388 . S
C401 C405 1.382 . S
C401 H424 0.950 . S
C402 C401 1.388 . S
C402 C403 1.386 . S
C403 C402 1.386 . S
C403 C404 1.382 . S
C403 H425 0.950 . S
C404 N400 1.332 . S
C404 C403 1.382 . S
C404 H406 0.952 . S
C405 N400 1.332 . S
C405 C401 1.382 . S
C405 H407 0.948 . S
H406 C404 0.952 . S
H407 C405 0.948 . S
H408 C397 0.952 . S
H409 C399 0.948 . S
C410 C376 1.395 . S
C410 C380 1.391 1_455 S
C411 C373 1.389 . S
C411 C393 1.392 . S
C412 C383 1.392 . S
C412 C385 1.389 . S
C413 C388 1.403 . S
C413 C390 1.391 . S
H414 C374 0.951 . S
H415 C375 0.950 . S
H416 C381 0.949 . S
H417 C382 0.950 . S
H418 C386 0.951 . S
H419 C387 0.950 . S
H420 C391 0.949 . S
H421 C392 0.950 . S
H422 C396 0.950 . S
H423 C398 0.950 . S
H424 C401 0.950 . S
H425 C403 0.950 . S
C426 C427 1.443 . S
C426 N430 1.376 . S
C426 C464 1.389 . S
C427 C426 1.443 . S
C427 C428 1.340 . S
C427 H467 0.951 . S
C428 C427 1.340 . S
C428 C429 1.439 . S
C428 H468 0.950 . S
C429 C428 1.439 . S
C429 N430 1.374 . S
C429 C463 1.395 1_565 S
N430 C426 1.376 . S
N430 C429 1.374 . S
N430 Co431 2.008 1_565 S
Co431 N430 2.008 1_545 S
Co431 N432 1.995 . S
Co431 N437 2.008 . S
Co431 N442 1.995 1_545 S
Co431 N447 2.282 . S
Co431 N453 2.282 1_545 S
N432 Co431 1.995 . S
N432 C433 1.376 . S
N432 C436 1.383 . S
C433 N432 1.376 . S
C433 C434 1.446 . S
C433 C463 1.391 . S
C434 C433 1.446 . S
C434 C435 1.339 . S
C434 H469 0.949 . S
C435 C434 1.339 . S
C435 C436 1.439 . S
C435 H470 0.950 . S
C436 N432 1.383 . S
C436 C435 1.439 . S
C436 C465 1.392 . S
N437 Co431 2.008 . S
N437 C438 1.376 . S
N437 C441 1.374 . S
C438 N437 1.376 . S
C438 C439 1.443 . S
C438 C465 1.389 . S
C439 C438 1.443 . S
C439 C440 1.340 . S
C439 H471 0.951 . S
C440 C439 1.340 . S
C440 C441 1.439 . S
C440 H472 0.950 . S
C441 N437 1.374 . S
C441 C440 1.439 . S
C441 C466 1.395 . S
N442 Co431 1.995 1_565 S
N442 C443 1.376 . S
N442 C446 1.383 . S
C443 N442 1.376 . S
C443 C444 1.446 . S
C443 C466 1.391 1_565 S
C444 C443 1.446 . S
C444 C445 1.339 . S
C444 H473 0.949 . S
C445 C444 1.339 . S
C445 C446 1.439 . S
C445 H474 0.950 . S
C446 N442 1.383 . S
C446 C445 1.439 . S
C446 C464 1.392 . S
N447 Co431 2.282 . S
N447 C450 1.332 . S
N447 C452 1.332 . S
C448 C449 1.386 . S
C448 C451 1.388 . S
C449 C448 1.386 . S
C449 C450 1.382 . S
C449 H475 0.950 . S
C450 N447 1.332 . S
C450 C449 1.382 . S
C450 H461 0.952 . S
C451 C448 1.388 . S
C451 C452 1.382 . S
C451 H476 0.950 . S
C452 N447 1.332 . S
C452 C451 1.382 . S
C452 H462 0.948 . S
N453 Co431 2.282 1_565 S
N453 C457 1.332 . S
N453 C458 1.332 . S
C454 C455 1.388 . S
C454 C458 1.382 . S
C454 H477 0.950 . S
C455 C454 1.388 . S
C455 C456 1.386 . S
C456 C455 1.386 . S
C456 C457 1.382 . S
C456 H478 0.950 . S
C457 N453 1.332 . S
C457 C456 1.382 . S
C457 H459 0.952 . S
C458 N453 1.332 . S
C458 C454 1.382 . S
C458 H460 0.948 . S
H459 C457 0.952 . S
H460 C458 0.948 . S
H461 C450 0.952 . S
H462 C452 0.948 . S
C463 C429 1.395 1_545 S
C463 C433 1.391 . S
C464 C426 1.389 . S
C464 C446 1.392 . S
C465 C436 1.392 . S
C465 C438 1.389 . S
C466 C441 1.395 . S
C466 C443 1.391 1_545 S
H467 C427 0.951 . S
H468 C428 0.950 . S
H469 C434 0.949 . S
H470 C435 0.950 . S
H471 C439 0.951 . S
H472 C440 0.950 . S
H473 C444 0.949 . S
H474 C445 0.950 . S
H475 C449 0.950 . S
H476 C451 0.950 . S
H477 C454 0.950 . S
H478 C456 0.950 . S
C479 C480 1.443 . S
C479 N483 1.376 . S
C479 C517 1.389 . S
C480 C479 1.443 . S
C480 C481 1.340 . S
C480 H520 0.951 . S
C481 C480 1.340 . S
C481 C482 1.439 . S
C481 H521 0.950 . S
C482 C481 1.439 . S
C482 N483 1.374 . S
C482 C516 1.395 . S
N483 C479 1.376 . S
N483 C482 1.374 . S
N483 Co484 2.008 . S
Co484 N483 2.008 . S
Co484 N485 1.995 . S
Co484 N490 2.008 . S
Co484 N495 1.995 . S
Co484 N500 2.282 1_554 S
Co484 N506 2.282 . S
N485 Co484 1.995 . S
N485 C486 1.376 . S
N485 C489 1.383 1_554 S
C486 N485 1.376 . S
C486 C487 1.446 1_554 S
C486 C516 1.391 . S
C487 C486 1.446 1_556 S
C487 C488 1.339 . S
C487 H522 0.949 . S
C488 C487 1.339 . S
C488 C489 1.439 . S
C488 H523 0.950 . S
C489 N485 1.383 1_556 S
C489 C488 1.439 . S
C489 C518 1.392 . S
N490 Co484 2.008 . S
N490 C491 1.376 1_554 S
N490 C494 1.374 . S
C491 N490 1.376 1_556 S
C491 C492 1.443 . S
C491 C518 1.389 . S
C492 C491 1.443 . S
C492 C493 1.340 . S
C492 H524 0.951 . S
C493 C492 1.340 . S
C493 C494 1.439 1_556 S
C493 H525 0.950 . S
C494 N490 1.374 . S
C494 C493 1.439 1_554 S
C494 C519 1.395 . S
N495 Co484 1.995 . S
N495 C496 1.376 . S
N495 C499 1.383 . S
C496 N495 1.376 . S
C496 C497 1.446 . S
C496 C519 1.391 . S
C497 C496 1.446 . S
C497 C498 1.339 . S
C497 H526 0.949 . S
C498 C497 1.339 . S
C498 C499 1.439 . S
C498 H527 0.950 . S
C499 N495 1.383 . S
C499 C498 1.439 . S
C499 C517 1.392 . S
N500 Co484 2.282 1_556 S
N500 C503 1.332 . S
N500 C505 1.332 . S
C501 C502 1.386 . S
C501 C504 1.388 . S
C502 C501 1.386 . S
C502 C503 1.382 . S
C502 H528 0.950 . S
C503 N500 1.332 . S
C503 C502 1.382 . S
C503 H514 0.952 . S
C504 C501 1.388 . S
C504 C505 1.382 . S
C504 H529 0.950 . S
C505 N500 1.332 . S
C505 C504 1.382 . S
C505 H515 0.948 . S
N506 Co484 2.282 . S
N506 C510 1.332 . S
N506 C511 1.332 . S
C507 C508 1.388 . S
C507 C511 1.382 . S
C507 H530 0.950 . S
C508 C507 1.388 . S
C508 C509 1.386 . S
C509 C508 1.386 . S
C509 C510 1.382 . S
C509 H531 0.950 . S
C510 N506 1.332 . S
C510 C509 1.382 . S
C510 H512 0.952 . S
C511 N506 1.332 . S
C511 C507 1.382 . S
C511 H513 0.948 . S
H512 C510 0.952 . S
H513 C511 0.948 . S
H514 C503 0.952 . S
H515 C505 0.948 . S
C516 C482 1.395 . S
C516 C486 1.391 . S
C517 C479 1.389 . S
C517 C499 1.392 . S
C518 C489 1.392 . S
C518 C491 1.389 . S
C519 C494 1.395 . S
C519 C496 1.391 . S
H520 C480 0.951 . S
H521 C481 0.950 . S
H522 C487 0.949 . S
H523 C488 0.950 . S
H524 C492 0.951 . S
H525 C493 0.950 . S
H526 C497 0.949 . S
H527 C498 0.950 . S
H528 C502 0.950 . S
H529 C504 0.950 . S
H530 C507 0.950 . S
H531 C509 0.950 . S
C532 C533 1.443 . S
C532 N536 1.376 1_565 S
C532 C570 1.389 . S
C533 C532 1.443 . S
C533 C534 1.340 . S
C533 H573 0.951 . S
C534 C533 1.340 . S
C534 C535 1.439 1_565 S
C534 H574 0.950 . S
C535 C534 1.439 1_545 S
C535 N536 1.374 . S
C535 C569 1.395 . S
N536 C532 1.376 1_545 S
N536 C535 1.374 . S
N536 Co537 2.008 . S
Co537 N536 2.008 . S
Co537 N538 1.995 . S
Co537 N543 2.008 . S
Co537 N548 1.995 . S
Co537 N553 2.282 . S
Co537 N559 2.282 1_545 S
N538 Co537 1.995 . S
N538 C539 1.376 . S
N538 C542 1.383 . S
C539 N538 1.376 . S
C539 C540 1.446 . S
C539 C569 1.391 . S
C540 C539 1.446 . S
C540 C541 1.339 . S
C540 H575 0.949 . S
C541 C540 1.339 . S
C541 C542 1.439 . S
C541 H576 0.950 . S
C542 N538 1.383 . S
C542 C541 1.439 . S
C542 C571 1.392 . S
N543 Co537 2.008 . S
N543 C544 1.376 . S
N543 C547 1.374 . S
C544 N543 1.376 . S
C544 C545 1.443 . S
C544 C571 1.389 . S
C545 C544 1.443 . S
C545 C546 1.340 . S
C545 H577 0.951 . S
C546 C545 1.340 . S
C546 C547 1.439 . S
C546 H578 0.950 . S
C547 N543 1.374 . S
C547 C546 1.439 . S
C547 C572 1.395 . S
N548 Co537 1.995 . S
N548 C549 1.376 . S
N548 C552 1.383 1_545 S
C549 N548 1.376 . S
C549 C550 1.446 1_545 S
C549 C572 1.391 . S
C550 C549 1.446 1_565 S
C550 C551 1.339 . S
C550 H579 0.949 . S
C551 C550 1.339 . S
C551 C552 1.439 . S
C551 H580 0.950 . S
C552 N548 1.383 1_565 S
C552 C551 1.439 . S
C552 C570 1.392 . S
N553 Co537 2.282 . S
N553 C556 1.332 . S
N553 C558 1.332 . S
C554 C555 1.386 . S
C554 C557 1.388 . S
C555 C554 1.386 . S
C555 C556 1.382 . S
C555 H581 0.950 . S
C556 N553 1.332 . S
C556 C555 1.382 . S
C556 H567 0.952 . S
C557 C554 1.388 . S
C557 C558 1.382 . S
C557 H582 0.950 . S
C558 N553 1.332 . S
C558 C557 1.382 . S
C558 H568 0.948 . S
N559 Co537 2.282 1_565 S
N559 C563 1.332 . S
N559 C564 1.332 . S
C560 C561 1.388 . S
C560 C564 1.382 . S
C560 H583 0.950 . S
C561 C560 1.388 . S
C561 C562 1.386 . S
C562 C561 1.386 . S
C562 C563 1.382 . S
C562 H584 0.950 . S
C563 N559 1.332 . S
C563 C562 1.382 . S
C563 H565 0.952 . S
C564 N559 1.332 . S
C564 C560 1.382 . S
C564 H566 0.948 . S
H565 C563 0.952 . S
H566 C564 0.948 . S
H567 C556 0.952 . S
H568 C558 0.948 . S
C569 C535 1.395 . S
C569 C539 1.391 . S
C570 C532 1.389 . S
C570 C552 1.392 . S
C571 C542 1.392 . S
C571 C544 1.389 . S
C572 C547 1.395 . S
C572 C549 1.391 . S
H573 C533 0.951 . S
H574 C534 0.950 . S
H575 C540 0.949 . S
H576 C541 0.950 . S
H577 C545 0.951 . S
H578 C546 0.950 . S
H579 C550 0.949 . S
H580 C551 0.950 . S
H581 C555 0.950 . S
H582 C557 0.950 . S
H583 C560 0.950 . S
H584 C562 0.950 . S
C585 C586 1.443 . S
C585 N589 1.376 . S
C585 C623 1.389 . S
C586 C585 1.443 . S
C586 C587 1.340 . S
C586 H626 0.951 . S
C587 C586 1.340 . S
C587 C588 1.439 . S
C587 H627 0.950 . S
C588 C587 1.439 . S
C588 N589 1.374 . S
C588 C622 1.395 . S
N589 C585 1.376 . S
N589 C588 1.374 . S
N589 Co590 2.008 . S
Co590 N589 2.008 . S
Co590 N591 1.995 . S
Co590 N596 2.008 . S
Co590 N601 1.995 . S
Co590 N606 2.282 . S
Co590 N612 2.282 . S
N591 Co590 1.995 . S
N591 C592 1.376 . S
N591 C595 1.383 1_554 S
C592 N591 1.376 . S
C592 C593 1.446 1_554 S
C592 C622 1.391 . S
C593 C592 1.446 1_556 S
C593 C594 1.339 . S
C593 H628 0.949 . S
C594 C593 1.339 . S
C594 C595 1.439 . S
C594 H629 0.950 . S
C595 N591 1.383 1_556 S
C595 C594 1.439 . S
C595 C624 1.392 . S
N596 Co590 2.008 . S
N596 C597 1.376 1_554 S
N596 C600 1.374 . S
C597 N596 1.376 1_556 S
C597 C598 1.443 . S
C597 C624 1.389 . S
C598 C597 1.443 . S
C598 C599 1.340 . S
C598 H630 0.951 . S
C599 C598 1.340 . S
C599 C600 1.439 1_556 S
C599 H631 0.950 . S
C600 N596 1.374 . S
C600 C599 1.439 1_554 S
C600 C625 1.395 . S
N601 Co590 1.995 . S
N601 C602 1.376 . S
N601 C605 1.383 . S
C602 N601 1.376 . S
C602 C603 1.446 . S
C602 C625 1.391 . S
C603 C602 1.446 . S
C603 C604 1.339 . S
C603 H632 0.949 . S
C604 C603 1.339 . S
C604 C605 1.439 . S
C604 H633 0.950 . S
C605 N601 1.383 . S
C605 C604 1.439 . S
C605 C623 1.392 . S
N606 Co590 2.282 . S
N606 C609 1.332 1_554 S
N606 C611 1.332 1_554 S
C607 C608 1.386 . S
C607 C610 1.388 . S
C608 C607 1.386 . S
C608 C609 1.382 . S
C608 H634 0.950 . S
C609 N606 1.332 1_556 S
C609 C608 1.382 . S
C609 H620 0.952 1_556 S
C610 C607 1.388 . S
C610 C611 1.382 . S
C610 H635 0.950 . S
C611 N606 1.332 1_556 S
C611 C610 1.382 . S
C611 H621 0.948 . S
N612 Co590 2.282 . S
N612 C616 1.332 . S
N612 C617 1.332 . S
C613 C614 1.388 . S
C613 C617 1.382 . S
C613 H636 0.950 . S
C614 C613 1.388 . S
C614 C615 1.386 . S
C615 C614 1.386 . S
C615 C616 1.382 . S
C615 H637 0.950 . S
C616 N612 1.332 . S
C616 C615 1.382 . S
C616 H618 0.952 . S
C617 N612 1.332 . S
C617 C613 1.382 . S
C617 H619 0.948 . S
H618 C616 0.952 . S
H619 C617 0.948 . S
H620 C609 0.952 1_554 S
H621 C611 0.948 . S
C622 C588 1.395 . S
C622 C592 1.391 . S
C623 C585 1.389 . S
C623 C605 1.392 . S
C624 C595 1.392 . S
C624 C597 1.389 . S
C625 C600 1.395 . S
C625 C602 1.391 . S
H626 C586 0.951 . S
H627 C587 0.950 . S
H628 C593 0.949 . S
H629 C594 0.950 . S
H630 C598 0.951 . S
H631 C599 0.950 . S
H632 C603 0.949 . S
H633 C604 0.950 . S
H634 C608 0.950 . S
H635 C610 0.950 . S
H636 C613 0.950 . S
H637 C615 0.950 . S
C638 C639 1.387 . S
C638 H642 0.950 . S
C638 C647 1.390 . S
C639 C638 1.387 . S
C639 C641 1.387 . S
H640 C647 0.950 . S
C641 C639 1.387 . S
C641 C643 1.390 . S
C641 H645 0.950 . S
H642 C638 0.950 . S
C643 C641 1.390 . S
C643 C644 1.387 . S
C643 H646 0.950 . S
C644 C643 1.387 . S
C644 C647 1.387 . S
H645 C641 0.950 . S
H646 C643 0.950 . S
C647 C638 1.390 . S
C647 H640 0.950 . S
C647 C644 1.387 . S
C648 C649 1.387 . S
C648 H652 0.950 . S
C648 C657 1.390 . S
C649 C648 1.387 . S
C649 C651 1.387 . S
H650 C657 0.950 . S
C651 C649 1.387 . S
C651 C653 1.390 . S
C651 H655 0.950 . S
H652 C648 0.950 . S
C653 C651 1.390 . S
C653 C654 1.387 . S
C653 H656 0.950 . S
C654 C653 1.387 . S
C654 C657 1.387 . S
H655 C651 0.950 . S
H656 C653 0.950 . S
C657 C648 1.390 . S
C657 H650 0.950 . S
C657 C654 1.387 . S
C658 C659 1.387 . S
C658 H662 0.950 . S
C658 C667 1.390 . S
C659 C658 1.387 . S
C659 C661 1.387 . S
H660 C667 0.950 . S
C661 C659 1.387 . S
C661 C663 1.390 . S
C661 H665 0.950 . S
H662 C658 0.950 . S
C663 C661 1.390 . S
C663 C664 1.387 . S
C663 H666 0.950 . S
C664 C663 1.387 . S
C664 C667 1.387 . S
H665 C661 0.950 . S
H666 C663 0.950 . S
C667 C658 1.390 . S
C667 H660 0.950 . S
C667 C664 1.387 . S
C668 C669 1.387 . S
C668 H672 0.950 . S
C668 C677 1.390 . S
C669 C668 1.387 . S
C669 C671 1.387 . S
H670 C677 0.950 . S
C671 C669 1.387 . S
C671 C673 1.390 . S
C671 H675 0.950 . S
H672 C668 0.950 . S
C673 C671 1.390 . S
C673 C674 1.387 . S
C673 H676 0.950 . S
C674 C673 1.387 . S
C674 C677 1.387 . S
H675 C671 0.950 . S
H676 C673 0.950 . S
C677 C668 1.390 . S
C677 H670 0.950 . S
C677 C674 1.387 . S
C678 C679 1.387 . S
C678 H682 0.950 . S
C678 C687 1.390 . S
C679 C678 1.387 . S
C679 C681 1.387 . S
H680 C687 0.950 . S
C681 C679 1.387 . S
C681 C683 1.390 . S
C681 H685 0.950 . S
H682 C678 0.950 . S
C683 C681 1.390 . S
C683 C684 1.387 . S
C683 H686 0.950 . S
C684 C683 1.387 . S
C684 C687 1.387 . S
H685 C681 0.950 . S
H686 C683 0.950 . S
C687 C678 1.390 . S
C687 H680 0.950 . S
C687 C684 1.387 . S
C688 C689 1.387 . S
C688 H692 0.950 . S
C688 C697 1.390 . S
C689 C688 1.387 . S
C689 C691 1.387 . S
H690 C697 0.950 . S
C691 C689 1.387 . S
C691 C693 1.390 . S
C691 H695 0.950 . S
H692 C688 0.950 . S
C693 C691 1.390 . S
C693 C694 1.387 . S
C693 H696 0.950 . S
C694 C693 1.387 . S
C694 C697 1.387 . S
H695 C691 0.950 . S
H696 C693 0.950 . S
C697 C688 1.390 . S
C697 H690 0.950 . S
C697 C694 1.387 . S
C698 C699 1.387 . S
C698 H702 0.950 . S
C698 C707 1.390 . S
C699 C698 1.387 . S
C699 C701 1.387 . S
H700 C707 0.950 . S
C701 C699 1.387 . S
C701 C703 1.390 . S
C701 H705 0.950 . S
H702 C698 0.950 . S
C703 C701 1.390 . S
C703 C704 1.387 . S
C703 H706 0.950 . S
C704 C703 1.387 . S
C704 C707 1.387 . S
H705 C701 0.950 . S
H706 C703 0.950 . S
C707 C698 1.390 . S
C707 H700 0.950 . S
C707 C704 1.387 . S
C708 C709 1.387 . S
C708 H712 0.950 . S
C708 C717 1.390 . S
C709 C708 1.387 . S
C709 C711 1.387 . S
H710 C717 0.950 . S
C711 C709 1.387 . S
C711 C713 1.390 . S
C711 H715 0.950 . S
H712 C708 0.950 . S
C713 C711 1.390 . S
C713 C714 1.387 . S
C713 H716 0.950 . S
C714 C713 1.387 . S
C714 C717 1.387 . S
H715 C711 0.950 . S
H716 C713 0.950 . S
C717 C708 1.390 . S
C717 H710 0.950 . S
C717 C714 1.387 . S
C718 C719 1.387 . S
C718 H722 0.950 . S
C718 C727 1.390 . S
C719 C718 1.387 . S
C719 C721 1.387 . S
H720 C727 0.950 . S
C721 C719 1.387 . S
C721 C723 1.390 . S
C721 H725 0.950 . S
H722 C718 0.950 . S
C723 C721 1.390 . S
C723 C724 1.387 . S
C723 H726 0.950 . S
C724 C723 1.387 . S
C724 C727 1.387 . S
H725 C721 0.950 . S
H726 C723 0.950 . S
C727 C718 1.390 . S
C727 H720 0.950 . S
C727 C724 1.387 . S
C728 C729 1.387 . S
C728 H732 0.950 . S
C728 C737 1.390 . S
C729 C728 1.387 . S
C729 C731 1.387 . S
H730 C737 0.950 . S
C731 C729 1.387 . S
C731 C733 1.390 . S
C731 H735 0.950 . S
H732 C728 0.950 . S
C733 C731 1.390 . S
C733 C734 1.387 . S
C733 H736 0.950 . S
C734 C733 1.387 . S
C734 C737 1.387 . S
H735 C731 0.950 . S
H736 C733 0.950 . S
C737 C728 1.390 . S
C737 H730 0.950 . S
C737 C734 1.387 . S
C738 C739 1.387 . S
C738 H742 0.950 . S
C738 C747 1.390 . S
C739 C738 1.387 . S
C739 C741 1.387 . S
H740 C747 0.950 . S
C741 C739 1.387 . S
C741 C743 1.390 . S
C741 H745 0.950 . S
H742 C738 0.950 . S
C743 C741 1.390 . S
C743 C744 1.387 . S
C743 H746 0.950 . S
C744 C743 1.387 . S
C744 C747 1.387 . S
H745 C741 0.950 . S
H746 C743 0.950 . S
C747 C738 1.390 . S
C747 H740 0.950 . S
C747 C744 1.387 . S
C748 C749 1.387 . S
C748 H752 0.950 . S
C748 C757 1.390 . S
C749 C748 1.387 . S
C749 C751 1.387 . S
H750 C757 0.950 . S
C751 C749 1.387 . S
C751 C753 1.390 . S
C751 H755 0.950 . S
H752 C748 0.950 . S
C753 C751 1.390 . S
C753 C754 1.387 . S
C753 H756 0.950 . S
C754 C753 1.387 . S
C754 C757 1.387 . S
H755 C751 0.950 . S
H756 C753 0.950 . S
C757 C748 1.390 . S
C757 H750 0.950 . S
C757 C754 1.387 . S
C758 C759 1.387 . S
C758 H762 0.950 . S
C758 C767 1.390 . S
C759 C758 1.387 . S
C759 C761 1.387 . S
H760 C767 0.950 . S
C761 C759 1.387 . S
C761 C763 1.390 . S
C761 H765 0.950 . S
H762 C758 0.950 . S
C763 C761 1.390 . S
C763 C764 1.387 . S
C763 H766 0.950 . S
C764 C763 1.387 . S
C764 C767 1.387 . S
H765 C761 0.950 . S
H766 C763 0.950 . S
C767 C758 1.390 . S
C767 H760 0.950 . S
C767 C764 1.387 . S
C768 C769 1.387 . S
C768 H772 0.950 . S
C768 C777 1.390 . S
C769 C768 1.387 . S
C769 C771 1.387 . S
H770 C777 0.950 . S
C771 C769 1.387 . S
C771 C773 1.390 . S
C771 H775 0.950 . S
H772 C768 0.950 . S
C773 C771 1.390 . S
C773 C774 1.387 . S
C773 H776 0.950 . S
C774 C773 1.387 . S
C774 C777 1.387 . S
H775 C771 0.950 . S
H776 C773 0.950 . S
C777 C768 1.390 . S
C777 H770 0.950 . S
C777 C774 1.387 . S
C778 C779 1.387 . S
C778 H782 0.950 . S
C778 C787 1.390 . S
C779 C778 1.387 . S
C779 C781 1.387 . S
H780 C787 0.950 . S
C781 C779 1.387 . S
C781 C783 1.390 . S
C781 H785 0.950 . S
H782 C778 0.950 . S
C783 C781 1.390 . S
C783 C784 1.387 . S
C783 H786 0.950 . S
C784 C783 1.387 . S
C784 C787 1.387 . S
H785 C781 0.950 . S
H786 C783 0.950 . S
C787 C778 1.390 . S
C787 H780 0.950 . S
C787 C784 1.387 . S
C788 C789 1.387 . S
C788 H792 0.950 . S
C788 C797 1.390 . S
C789 C788 1.387 . S
C789 C791 1.387 . S
H790 C797 0.950 . S
C791 C789 1.387 . S
C791 C793 1.390 . S
C791 H795 0.950 . S
H792 C788 0.950 . S
C793 C791 1.390 . S
C793 C794 1.387 . S
C793 H796 0.950 . S
C794 C793 1.387 . S
C794 C797 1.387 . S
H795 C791 0.950 . S
H796 C793 0.950 . S
C797 C788 1.390 . S
C797 H790 0.950 . S
C797 C794 1.387 . S
C798 C799 1.387 . S
C798 H802 0.950 . S
C798 C807 1.390 . S
C799 C798 1.387 . S
C799 C801 1.387 . S
H800 C807 0.950 . S
C801 C799 1.387 . S
C801 C803 1.390 . S
C801 H805 0.950 . S
H802 C798 0.950 . S
C803 C801 1.390 . S
C803 C804 1.387 . S
C803 H806 0.950 . S
C804 C803 1.387 . S
C804 C807 1.387 . S
H805 C801 0.950 . S
H806 C803 0.950 . S
C807 C798 1.390 . S
C807 H800 0.950 . S
C807 C804 1.387 . S
C808 C809 1.387 . S
C808 H812 0.950 . S
C808 C817 1.390 . S
C809 C808 1.387 . S
C809 C811 1.387 . S
H810 C817 0.950 . S
C811 C809 1.387 . S
C811 C813 1.390 . S
C811 H815 0.950 . S
H812 C808 0.950 . S
C813 C811 1.390 . S
C813 C814 1.387 . S
C813 H816 0.950 . S
C814 C813 1.387 . S
C814 C817 1.387 . S
H815 C811 0.950 . S
H816 C813 0.950 . S
C817 C808 1.390 . S
C817 H810 0.950 . S
C817 C814 1.387 . S
C818 C819 1.387 . S
C818 H822 0.950 . S
C818 C827 1.390 . S
C819 C818 1.387 . S
C819 C821 1.387 . S
H820 C827 0.950 . S
C821 C819 1.387 . S
C821 C823 1.390 . S
C821 H825 0.950 . S
H822 C818 0.950 . S
C823 C821 1.390 . S
C823 C824 1.387 . S
C823 H826 0.950 . S
C824 C823 1.387 . S
C824 C827 1.387 . S
H825 C821 0.950 . S
H826 C823 0.950 . S
C827 C818 1.390 . S
C827 H820 0.950 . S
C827 C824 1.387 . S
C828 C829 1.387 . S
C828 H832 0.950 . S
C828 C837 1.390 . S
C829 C828 1.387 . S
C829 C831 1.387 . S
H830 C837 0.950 . S
C831 C829 1.387 . S
C831 C833 1.390 . S
C831 H835 0.950 . S
H832 C828 0.950 . S
C833 C831 1.390 . S
C833 C834 1.387 . S
C833 H836 0.950 . S
C834 C833 1.387 . S
C834 C837 1.387 . S
H835 C831 0.950 . S
H836 C833 0.950 . S
C837 C828 1.390 . S
C837 H830 0.950 . S
C837 C834 1.387 . S
C838 C839 1.387 . S
C838 H842 0.950 . S
C838 C847 1.390 . S
C839 C838 1.387 . S
C839 C841 1.387 . S
H840 C847 0.950 . S
C841 C839 1.387 . S
C841 C843 1.390 . S
C841 H845 0.950 . S
H842 C838 0.950 . S
C843 C841 1.390 . S
C843 C844 1.387 . S
C843 H846 0.950 . S
C844 C843 1.387 . S
C844 C847 1.387 . S
H845 C841 0.950 . S
H846 C843 0.950 . S
C847 C838 1.390 . S
C847 H840 0.950 . S
C847 C844 1.387 . S
C848 C849 1.387 . S
C848 H852 0.950 . S
C848 C857 1.390 . S
C849 C848 1.387 . S
C849 C851 1.387 . S
H850 C857 0.950 . S
C851 C849 1.387 . S
C851 C853 1.390 . S
C851 H855 0.950 . S
H852 C848 0.950 . S
C853 C851 1.390 . S
C853 C854 1.387 . S
C853 H856 0.950 . S
C854 C853 1.387 . S
C854 C857 1.387 . S
H855 C851 0.950 . S
H856 C853 0.950 . S
C857 C848 1.390 . S
C857 H850 0.950 . S
C857 C854 1.387 . S
C858 C859 1.387 . S
C858 H862 0.950 . S
C858 C867 1.390 . S
C859 C858 1.387 . S
C859 C861 1.387 . S
H860 C867 0.950 . S
C861 C859 1.387 . S
C861 C863 1.390 . S
C861 H865 0.950 . S
H862 C858 0.950 . S
C863 C861 1.390 . S
C863 C864 1.387 . S
C863 H866 0.950 . S
C864 C863 1.387 . S
C864 C867 1.387 . S
H865 C861 0.950 . S
H866 C863 0.950 . S
C867 C858 1.390 . S
C867 H860 0.950 . S
C867 C864 1.387 . S
C868 C869 1.387 . S
C868 H872 0.950 . S
C868 C877 1.390 . S
C869 C868 1.387 . S
C869 C871 1.387 . S
H870 C877 0.950 . S
C871 C869 1.387 . S
C871 C873 1.390 . S
C871 H875 0.950 . S
H872 C868 0.950 . S
C873 C871 1.390 . S
C873 C874 1.387 . S
C873 H876 0.950 . S
C874 C873 1.387 . S
C874 C877 1.387 . S
H875 C871 0.950 . S
H876 C873 0.950 . S
C877 C868 1.390 . S
C877 H870 0.950 . S
C877 C874 1.387 . S
C644 C342 1.534 . S
C639 C15 1.538 . S
C654 C411 1.531 . S
C649 C55 1.542 . S
C664 C349 1.563 . S
C659 C101 1.548 . S
C674 C412 1.574 . S
C669 C141 1.573 . S
C684 C465 1.527 . S
C679 C2 1.495 . S
C694 C501 1.522 . S
C689 C61 1.498 . S
C699 C95 1.618 . S
C704 C561 1.609 . S
C714 C624 1.519 . S
C709 C135 1.518 . S
C724 C464 1.508 . S
C719 C42 1.482 . S
C729 C82 1.508 . S
C734 C508 1.543 . S
C744 C554 1.602 . S
C739 C122 1.622 . S
C754 C623 1.538 . S
C749 C21 1.510 . S
C759 C162 1.575 . S
C764 C402 1.573 . S
C774 C359 1.554 . S
C769 C221 1.557 . S
C779 C255 1.552 . S
C784 C395 1.539 . S
C789 C282 1.510 . S
C794 C358 1.524 . S
C804 C570 1.608 . S
C799 C181 1.627 . S
C814 C614 1.529 . S
C809 C202 1.524 . S
C824 C448 1.514 . S
C819 C242 1.513 . S
C829 C301 1.506 . S
C834 C517 1.526 . S
C844 C571 1.588 . S
C839 C215 1.602 . S
C854 C607 1.524 . S
C849 C261 1.525 . S
C864 C455 1.511 . S
C859 C295 1.511 . S
C869 C175 1.527 . S
C874 C518 1.527 . S
