# Generated by pormake.
# Topology pts, (4,4)-cn, num edge types: 1
# Building blocks:
#     Node 0, Type 0, BuildingBlock: MUDLON_clean_sbu_0, # of connection points: 4
#     Node 1, Type 0, BuildingBlock: MUDLON_clean_sbu_0, # of connection points: 4
#     Node 2, Type 1, BuildingBlock: UXUYUI_clean_sbu_0, # of connection points: 4
#     Node 3, Type 1, BuildingBlock: UXUYUI_clean_sbu_0, # of connection points: 4
#     Edge 4, Type (0, 1), BuildingBlock: MIFKUJ_clean_linker_0, # of connection points: 2
#     Edge 5, Type (0, 1), BuildingBlock: MIFKUJ_clean_linker_0, # of connection points: 2
#     Edge 6, Type (0, 1), BuildingBlock: MIFKUJ_clean_linker_0, # of connection points: 2
#     Edge 7, Type (0, 1), BuildingBlock: MIFKUJ_clean_linker_0, # of connection points: 2
#     Edge 8, Type (0, 1), BuildingBlock: MIFKUJ_clean_linker_0, # of connection points: 2
#     Edge 9, Type (0, 1), BuildingBlock: MIFKUJ_clean_linker_0, # of connection points: 2
#     Edge 10, Type (0, 1), BuildingBlock: MIFKUJ_clean_linker_0, # of connection points: 2
#     Edge 11, Type (0, 1), BuildingBlock: MIFKUJ_clean_linker_0, # of connection points: 2
# Relax obj value: 0.040
# Max RMSD: 0.092
# Mean RMSD: 0.080
data_MOF--net-pts--node1-MUDLON_clean_sbu_0--node2-UXUYUI_clean_sbu_0--edge1-MIFKUJ_clean_linker_0
_symmetry_space_group_name_H-M    P1
_symmetry_Int_Tables_number       1
_symmetry_cell_setting            triclinic
loop_
_symmetry_equiv_pos_as_xyz
'x, y, z'
_cell_length_a     35.316776
_cell_length_b     35.301251
_cell_length_c     59.572747
_cell_angle_alpha  90.031545
_cell_angle_beta   89.665093
_cell_angle_gamma 89.909309
loop_
_atom_site_label
_atom_site_type_symbol
_atom_site_fract_x
_atom_site_fract_y
_atom_site_fract_z
_atom_type_partial_charge
Mg0 Mg 0.50203 1.00207 0.0758 0.0
C1 C 0.43713 0.00742 0.0473 0.0
O2 O 0.44146 0.97171 0.053 0.0
C3 C 0.56903 0.01163 0.10238 0.0
O4 O 0.56766 0.97601 0.09602 0.0
C5 C 0.46857 0.97751 0.12032 0.0
O6 O 0.49401 1.00183 0.12729 0.0
O7 O 0.46729 0.96947 0.09949 0.0
O8 O 0.46023 0.03156 0.05526 0.0
O9 O 0.53723 0.97005 0.05212 0.0
C10 C 0.54228 0.98556 0.03304 0.0
O11 O 0.52379 0.01691 0.02849 0.0
O12 O 0.54309 0.03391 0.09559 0.0
Mg13 Mg 1.00362 0.50471 0.57518 0.0
C14 C 0.05793 0.55937 0.6036 0.0
O15 O 0.08674 0.55142 0.59036 0.0
C16 C 0.04973 0.46819 0.53688 0.0
O17 O 0.0416 0.49977 0.52634 0.0
C18 C 1.00055 0.56759 0.54417 0.0
O19 O 0.0346 0.56742 0.55292 0.0
O20 O 0.9772 0.54222 0.5505 0.0
O21 O 0.02596 0.54395 0.60021 0.0
O22 O 0.96834 0.46646 0.59522 0.0
C23 C 0.98496 0.45791 0.61347 0.0
O24 O 0.01783 0.47363 0.6177 0.0
O25 O 0.04092 0.46488 0.55754 0.0
Li26 Li 0.01098 0.04652 0.34058 0.0
Li27 Li 0.99397 0.97861 0.34049 0.0
Li28 Li 0.03788 0.00675 0.31133 0.0
Li29 Li 0.96952 0.01958 0.3097 0.0
C30 C 0.06784 0.01013 0.36189 0.0
N31 N 0.11309 0.02827 0.39799 0.0
C32 C 0.06268 0.99179 0.38247 0.0
C33 C 0.09626 0.03739 0.3596 0.0
C34 C 0.08581 1.00142 0.40054 0.0
C35 C 0.11875 0.04627 0.37808 0.0
C36 C 0.92603 0.02085 0.3539 0.0
C37 C 0.86124 0.99956 0.35618 0.0
N38 N 0.85785 0.01598 0.37675 0.0
C39 C 0.92178 0.03783 0.37497 0.0
C40 C 0.89541 1.00181 0.34434 0.0
C41 C 0.88715 0.03493 0.38629 0.0
C42 C 0.02437 0.12407 0.35149 0.0
N43 N 0.01922 0.08885 0.36018 0.0
C44 C 0.02699 0.11273 0.39747 0.0
C45 C 0.01995 0.08285 0.38271 0.0
C46 C 0.03251 0.14957 0.38908 0.0
C47 C 0.0309 0.15497 0.36567 0.0
H48 H 0.02322 0.12822 0.33352 0.0
H49 H 0.01523 0.05472 0.38928 0.0
C50 C 1.00481 0.90318 0.35398 0.0
N51 N 0.98465 0.935 0.35888 0.0
C52 C 1.00105 0.87079 0.3673 0.0
C53 C 0.95524 0.90419 0.39021 0.0
C54 C 0.96018 0.93604 0.37659 0.0
C55 C 0.97612 0.87112 0.38578 0.0
H56 H 0.02422 0.90317 0.33987 0.0
H57 H 0.94502 0.96172 0.38054 0.0
C58 C 0.0328 0.0731 0.29098 0.0
N59 N 0.07612 0.10401 0.25687 0.0
C60 C 0.01923 0.07353 0.26899 0.0
C61 C 0.06818 0.0888 0.29568 0.0
C62 C 0.0416 0.08921 0.25197 0.0
C63 C 0.08973 0.10416 0.27819 0.0
C64 C 0.97712 0.94051 0.29761 0.0
C65 C 0.99035 0.92495 0.27745 0.0
C66 C 0.94488 0.92535 0.30789 0.0
C67 C 0.97062 0.89495 0.26768 0.0
C68 C 0.92597 0.89532 0.29762 0.0
N69 N 0.93909 0.88089 0.27788 0.0
C70 C 0.11619 0.99338 0.30169 0.0
C71 C 0.07587 0.99479 0.27006 0.0
C72 C 0.14778 0.98731 0.28786 0.0
N73 N 0.08117 0.99727 0.2926 0.0
C74 C 0.10663 0.98893 0.25562 0.0
C75 C 0.14327 0.98525 0.26445 0.0
H76 H 0.11966 0.99515 0.31966 0.0
H77 H 0.04769 0.99761 0.26327 0.0
C78 C 0.89984 0.05318 0.29605 0.0
N79 N 0.92773 0.0285 0.29002 0.0
C80 C 0.86861 0.05884 0.28208 0.0
C81 C 0.89596 0.01446 0.25568 0.0
C82 C 0.92665 0.00981 0.27007 0.0
C83 C 0.86616 0.03892 0.2617 0.0
H84 H 0.90162 0.0681 0.31187 0.0
H85 H 0.9497 0.99134 0.26527 0.0
O86 O 0.04522 1.00132 0.34408 0.0
O87 O 0.95981 0.02347 0.34262 0.0
O88 O 0.01165 0.05718 0.30778 0.0
O89 O 0.99618 0.96989 0.30738 0.0
H90 H 0.04089 0.97056 0.38452 0.0
H91 H 0.10067 0.05178 0.34379 0.0
H92 H 0.08202 0.98761 0.4166 0.0
H93 H 0.14067 0.0675 0.37659 0.0
H94 H 0.83735 0.98487 0.34897 0.0
H95 H 0.94499 0.05295 0.38257 0.0
H96 H 0.89777 0.98925 0.32786 0.0
H97 H 0.88355 0.04777 0.40266 0.0
H98 H 0.02847 0.10677 0.41526 0.0
H99 H 0.03415 0.18282 0.35833 0.0
H100 H 0.01754 0.84579 0.36324 0.0
H101 H 0.9362 0.90585 0.4045 0.0
H102 H 0.99186 0.06158 0.26508 0.0
H103 H 0.07897 0.08889 0.31263 0.0
H104 H 0.03158 0.08952 0.23484 0.0
H105 H 0.11728 0.11616 0.28155 0.0
H106 H 0.0155 0.936 0.26937 0.0
H107 H 0.9348 0.9363 0.32375 0.0
H108 H 0.98043 0.88279 0.25202 0.0
H109 H 0.90094 0.88337 0.3054 0.0
H110 H 0.17551 0.98496 0.2954 0.0
H111 H 0.10171 0.98699 0.23773 0.0
H112 H 0.84624 0.0779 0.2874 0.0
H113 H 0.89567 0.99918 0.2399 0.0
Li114 Li 0.96614 0.99725 0.83863 0.0
Li115 Li 0.03413 0.01195 0.83988 0.0
Li116 Li 0.99137 0.03793 0.80942 0.0
Li117 Li 0.01068 0.97094 0.80887 0.0
C118 C 0.96982 0.06446 0.85909 0.0
N119 N 0.92702 0.09626 0.89323 0.0
C120 C 0.98485 0.06796 0.88064 0.0
C121 C 0.93322 0.07764 0.85483 0.0
C122 C 0.96273 0.08401 0.89769 0.0
C123 C 0.91197 0.09346 0.87234 0.0
C124 C 0.0287 0.93428 0.85353 0.0
C125 C 0.08022 0.88956 0.85624 0.0
N126 N 0.06784 0.87934 0.87702 0.0
C127 C 0.01615 0.92287 0.87477 0.0
C128 C 0.06072 0.91712 0.84406 0.0
C129 C 0.03645 0.89526 0.88644 0.0
C130 C 0.88904 0.97904 0.84814 0.0
N131 N 0.92325 0.98662 0.85745 0.0
C132 C 0.89689 0.981 0.89439 0.0
C133 C 0.92772 0.9874 0.8801 0.0
C134 C 0.86103 0.97349 0.88531 0.0
C135 C 0.8574 0.97241 0.86181 0.0
H136 H 0.88627 0.97818 0.83009 0.0
H137 H 0.95521 0.99346 0.88711 0.0
C138 C 0.10564 0.04307 0.85281 0.0
N139 N 0.07577 0.02158 0.85964 0.0
C140 C 0.1366 0.04868 0.867 0.0
C141 C 0.10481 0.01122 0.89529 0.0
C142 C 0.07456 0.0064 0.8806 0.0
C143 C 0.13666 0.03217 0.88848 0.0
H144 H 0.10567 0.05547 0.83621 0.0
H145 H 0.04994 0.9907 0.88599 0.0
C146 C 0.93554 1.00169 0.78822 0.0
N147 N 0.8899 0.02199 0.75266 0.0
C148 C 0.94173 0.98597 0.76697 0.0
C149 C 0.9058 0.02733 0.79145 0.0
C150 C 0.91841 0.99668 0.74919 0.0
C151 C 0.88316 0.03737 0.77324 0.0
C152 C 0.07704 0.01194 0.79556 0.0
C153 C 0.08247 0.02886 0.77457 0.0
C154 C 0.10633 0.99076 0.80504 0.0
C155 C 0.11678 0.02352 0.7632 0.0
C156 C 0.14024 0.98612 0.79317 0.0
N157 N 0.1447 1.0024 0.77264 0.0
C158 C 0.97164 0.11429 0.799 0.0
C159 C 0.98406 0.07511 0.76752 0.0
C160 C 0.96437 0.14518 0.78497 0.0
N161 N 0.98129 0.08012 0.7901 0.0
C162 C 0.97688 0.10512 0.75288 0.0
C163 C 0.96704 0.14085 0.76155 0.0
H164 H 0.96983 0.11766 0.81701 0.0
H165 H 0.99212 0.04777 0.76085 0.0
C166 C 0.01186 0.89323 0.79683 0.0
N167 N 0.02191 0.92849 0.78984 0.0
C168 C 0.01864 0.86172 0.78314 0.0
C169 C 0.04568 0.90335 0.75519 0.0
C170 C 0.03831 0.93403 0.76939 0.0
C171 C 0.03572 0.86655 0.76196 0.0
H172 H 0.99836 0.8896 0.81303 0.0
H173 H 0.04484 0.96235 0.76382 0.0
O174 O 0.99084 0.04823 0.84227 0.0
O175 O 0.00911 0.96135 0.84189 0.0
O176 O 0.95844 0.99196 0.80575 0.0
O177 O 0.04352 0.01682 0.80688 0.0
H178 H 0.01322 0.05824 0.8842 0.0
H179 H 0.92126 0.07545 0.83823 0.0
H180 H 0.97393 0.08669 0.91448 0.0
H181 H 0.8835 0.1035 0.86931 0.0
H182 H 0.1051 0.87616 0.8491 0.0
H183 H 0.99113 0.93534 0.88225 0.0
H184 H 0.07014 0.92451 0.82737 0.0
H185 H 0.02721 0.88643 0.90297 0.0
H186 H 0.90101 0.98266 0.91236 0.0
H187 H 0.83046 0.96622 0.85405 0.0
H188 H 0.16057 0.06496 0.86102 0.0
H189 H 0.10317 0.99877 0.91188 0.0
H190 H 0.96441 0.9659 0.76418 0.0
H191 H 0.9004 0.03951 0.80779 0.0
H192 H 0.92303 0.98491 0.73263 0.0
H193 H 0.86022 0.05739 0.77547 0.0
H194 H 0.0604 0.04579 0.76708 0.0
H195 H 0.10322 0.97853 0.82155 0.0
H196 H 0.12122 0.03623 0.74687 0.0
H197 H 0.16309 0.96973 0.80032 0.0
H198 H 0.95664 0.17214 0.79239 0.0
H199 H 0.97991 0.1006 0.73498 0.0
H200 H 0.01064 0.83387 0.7891 0.0
H201 H 0.05809 0.90856 0.73882 0.0
H202 H 0.40082 0.94354 0.11005 0.0
H203 H 0.34559 0.93705 0.13489 0.0
H204 H 0.41106 0.97937 0.19035 0.0
H205 H 0.46613 0.9861 0.16577 0.0
H206 H 0.32709 0.90186 0.17639 0.0
H207 H 0.35831 0.04728 0.21583 0.0
H208 H 0.39271 0.10607 0.2065 0.0
H209 H 0.37513 0.0857 0.13626 0.0
H210 H 0.3402 0.02713 0.14519 0.0
H211 H 0.20418 0.93785 0.27017 0.0
H212 H 0.25929 0.93013 0.24543 0.0
H213 H 0.21243 0.01207 0.19961 0.0
H214 H 0.15782 0.02063 0.22448 0.0
H215 H 0.28547 0.02602 0.20706 0.0
H216 H 0.21057 0.91783 0.18754 0.0
H217 H 0.17436 0.85943 0.19489 0.0
H218 H 0.27393 0.80628 0.22146 0.0
H219 H 0.31063 0.86458 0.21455 0.0
C220 C 0.40373 0.95056 0.12766 0.0
C221 C 0.43772 0.9659 0.13585 0.0
C222 C 0.37214 0.94679 0.14183 0.0
C223 C 0.37407 0.95836 0.16436 0.0
C224 C 0.40881 0.97078 0.17294 0.0
C225 C 0.44029 0.97461 0.15884 0.0
C226 C 0.33913 0.96153 0.17823 0.0
C227 C 0.31799 0.92893 0.18317 0.0
C228 C 0.32688 0.99698 0.18672 0.0
C229 C 0.34697 0.03267 0.18119 0.0
C230 C 0.36163 0.05548 0.19841 0.0
C231 C 0.38125 0.08873 0.19319 0.0
C232 C 0.3862 0.09955 0.1708 0.0
C233 C 0.37139 0.07723 0.15359 0.0
C234 C 0.35171 0.04399 0.15872 0.0
C235 C 0.2057 0.95436 0.25488 0.0
C236 C 0.17653 0.97983 0.2493 0.0
C237 C 0.23705 0.94964 0.24064 0.0
C238 C 0.23985 0.97025 0.22054 0.0
C239 C 0.21084 0.99575 0.21498 0.0
C240 C 0.17948 1.00041 0.22915 0.0
C241 C 0.2735 0.96625 0.2056 0.0
C242 C 0.2945 0.99883 0.20041 0.0
C243 C 0.28519 0.93085 0.19668 0.0
C244 C 0.26325 0.89569 0.20072 0.0
C245 C 0.22468 0.89378 0.19511 0.0
C246 C 0.20407 0.86068 0.19917 0.0
C247 C 0.22181 0.82919 0.20869 0.0
C248 C 0.26022 0.83071 0.21411 0.0
C249 C 0.28094 0.86376 0.21011 0.0
H250 H 0.20581 0.80359 0.21182 0.0
H251 H 0.40145 0.12527 0.16679 0.0
H252 H 0.93693 0.3982 0.60452 0.0
H253 H 0.92488 0.3433 0.62901 0.0
H254 H 0.98997 0.39594 0.6815 0.0
H255 H 1.00226 0.45008 0.65731 0.0
H256 H 0.01578 0.32616 0.6719 0.0
H257 H 0.89459 0.38556 0.68602 0.0
H258 H 0.83277 0.41251 0.67545 0.0
H259 H 0.80042 0.3062 0.64628 0.0
H260 H 0.86231 0.27875 0.65642 0.0
H261 H 0.99184 0.21357 0.76707 0.0
H262 H 0.98613 0.26649 0.74094 0.0
H263 H 0.92454 0.19554 0.69494 0.0
H264 H 0.92942 0.14244 0.72132 0.0
H265 H 0.89475 0.26934 0.6977 0.0
H266 H 0.01419 0.20916 0.68482 0.0
H267 H 0.07583 0.18164 0.69523 0.0
H268 H 0.11166 0.28925 0.72111 0.0
H269 H 0.04996 0.31729 0.71116 0.0
C270 C 0.94781 0.39835 0.62148 0.0
C271 C 0.97085 0.42823 0.62892 0.0
C272 C 0.94099 0.36698 0.63543 0.0
C273 C 0.95685 0.36537 0.65703 0.0
C274 C 0.97779 0.39634 0.66485 0.0
C275 C 0.98473 0.42734 0.65098 0.0
C276 C 0.95494 0.3305 0.67098 0.0
C277 C 0.98926 0.31403 0.6777 0.0
C278 C 0.9204 0.31375 0.67787 0.0
C279 C 0.88325 0.33025 0.67174 0.0
C280 C 0.87444 0.36804 0.67716 0.0
C281 C 0.83935 0.38338 0.67129 0.0
C282 C 0.81273 0.36112 0.66014 0.0
C283 C 0.8211 0.32343 0.65488 0.0
C284 C 0.85617 0.30796 0.6607 0.0
C285 C 0.97648 0.20932 0.7516 0.0
C286 C 0.96127 0.17368 0.74625 0.0
C287 C 0.97345 0.23955 0.7366 0.0
C288 C 0.95527 0.23483 0.71588 0.0
C289 C 0.93877 0.19976 0.71081 0.0
C290 C 0.9419 0.16938 0.7258 0.0
C291 C 0.9556 0.26603 0.69916 0.0
C292 C 0.92117 0.28149 0.69177 0.0
C293 C 0.99006 0.28194 0.69152 0.0
C294 C 0.02731 0.26524 0.69742 0.0
C295 C 0.03509 0.22689 0.69289 0.0
C296 C 0.07006 0.21121 0.69868 0.0
C297 C 0.09761 0.23366 0.70887 0.0
C298 C 0.09027 0.27188 0.71324 0.0
C299 C 0.05532 0.28769 0.70751 0.0
H300 H 0.12468 0.22147 0.71334 0.0
H301 H 0.78557 0.37305 0.65562 0.0
H302 H 0.62321 0.96724 0.12087 0.0
H303 H 0.66843 0.9835 0.14982 0.0
H304 H 0.62722 0.0985 0.15054 0.0
H305 H 0.58083 0.08226 0.1213 0.0
H306 H 0.71127 0.08801 0.15125 0.0
H307 H 0.60024 0.05173 0.19138 0.0
H308 H 0.54433 0.01233 0.19969 0.0
H309 H 0.61638 0.91702 0.21311 0.0
H310 H 0.67273 0.95564 0.20447 0.0
H311 H 0.82812 0.10395 0.25002 0.0
H312 H 0.7733 0.10972 0.2251 0.0
H313 H 0.77386 0.98871 0.21506 0.0
H314 H 0.82796 0.9827 0.24013 0.0
H315 H 0.70271 0.01541 0.22243 0.0
H316 H 0.8114 0.04809 0.17617 0.0
H317 H 0.86796 0.08548 0.16618 0.0
H318 H 0.80046 0.18668 0.16379 0.0
H319 H 0.74355 0.14989 0.17407 0.0
C320 C 0.62365 0.99614 0.12699 0.0
C321 C 0.59813 0.02341 0.11882 0.0
C322 C 0.64959 1.00533 0.14361 0.0
C323 C 0.65088 0.04204 0.15248 0.0
C324 C 0.6265 0.06994 0.14392 0.0
C325 C 0.60006 0.06062 0.12727 0.0
C326 C 0.67734 0.04998 0.17114 0.0
C327 C 0.70896 0.07302 0.16709 0.0
C328 C 0.67452 0.02989 0.19162 0.0
C329 C 0.64074 0.00658 0.19715 0.0
C330 C 0.60417 0.0223 0.19595 0.0
C331 C 0.57239 1.00011 0.20073 0.0
C332 C 0.5768 0.96219 0.2069 0.0
C333 C 0.61301 0.9464 0.20833 0.0
C334 C 0.64489 0.96845 0.20352 0.0
C335 C 0.81632 0.07857 0.24263 0.0
C336 C 0.83254 0.04287 0.24694 0.0
C337 C 0.78517 0.08195 0.22829 0.0
C338 C 0.76963 0.04967 0.21809 0.0
C339 C 0.78537 0.01401 0.22272 0.0
C340 C 0.81653 0.01065 0.2369 0.0
C341 C 0.73731 0.05254 0.20231 0.0
C342 C 0.70459 0.03133 0.20689 0.0
C343 C 0.7392 0.07428 0.18234 0.0
C344 C 0.77336 0.09635 0.17617 0.0
C345 C 0.8087 0.07837 0.17371 0.0
C346 C 0.8408 0.09944 0.16796 0.0
C347 C 0.83784 0.13846 0.16444 0.0
C348 C 0.80273 0.15647 0.16659 0.0
C349 C 0.77055 0.13553 0.17237 0.0
H350 H 0.86272 0.15472 0.15997 0.0
H351 H 0.55215 0.94505 0.2106 0.0
H352 H 0.11702 0.60814 0.61213 0.0
H353 H 0.11815 0.65992 0.63966 0.0
H354 H 0.00658 0.62836 0.66268 0.0
H355 H 1.00505 0.57717 0.63535 0.0
H356 H 0.01018 0.70254 0.65442 0.0
H357 H 0.08523 0.6105 0.69405 0.0
H358 H 0.1384 0.56601 0.69908 0.0
H359 H 0.21765 0.65698 0.69024 0.0
H360 H 0.16492 0.70196 0.68486 0.0
H361 H 0.98776 0.80729 0.75396 0.0
H362 H 0.99659 0.75484 0.72768 0.0
H363 H 0.10573 0.79931 0.7085 0.0
H364 H 0.09751 0.85153 0.73522 0.0
H365 H 0.10724 0.72168 0.7132 0.0
H366 H 0.03196 0.81408 0.67514 0.0
H367 H 0.97868 0.85853 0.67041 0.0
H368 H 0.89978 0.76657 0.67614 0.0
H369 H 0.95259 0.72161 0.68124 0.0
C370 C 0.09293 0.612 0.62324 0.0
C371 C 0.06088 0.58861 0.62142 0.0
C372 C 0.09364 0.64157 0.63898 0.0
C373 C 0.0624 0.64806 0.65324 0.0
C374 C 0.03089 0.62409 0.65179 0.0
C375 C 0.03014 0.59472 0.63614 0.0
C376 C 0.0614 0.68067 0.66905 0.0
C377 C 0.03122 0.70645 0.66742 0.0
C378 C 0.08943 0.6865 0.68558 0.0
C379 C 0.12114 0.6595 0.68879 0.0
C380 C 0.114 0.62096 0.69297 0.0
C381 C 0.14405 0.59566 0.69593 0.0
C382 C 0.18138 0.60864 0.69491 0.0
C383 C 0.18873 0.64696 0.69098 0.0
C384 C 0.15877 0.67237 0.68799 0.0
C385 C 0.0139 0.80568 0.74441 0.0
C386 C 0.04187 0.83373 0.74665 0.0
C387 C 0.01877 0.77582 0.72924 0.0
C388 C 0.05162 0.77341 0.71591 0.0
C389 C 0.0801 0.8007 0.71855 0.0
C390 C 0.0752 0.83068 0.73369 0.0
C391 C 0.05559 0.74295 0.69883 0.0
C392 C 0.08634 0.71778 0.70013 0.0
C393 C 0.02807 0.73759 0.68195 0.0
C394 C 0.99623 0.76453 0.67877 0.0
C395 C 1.00324 0.80337 0.67556 0.0
C396 C 0.97312 0.82865 0.67279 0.0
C397 C 0.93586 0.81539 0.67303 0.0
C398 C 0.92865 0.7768 0.67599 0.0
C399 C 0.95867 0.7514 0.6788 0.0
H400 H 0.91259 0.83501 0.67087 0.0
H401 H 0.20461 0.58901 0.69721 0.0
H402 H 0.42348 0.07651 0.02692 0.0
H403 H 0.37589 0.09016 0.99794 0.0
H404 H 0.33633 0.97483 1.00199 0.0
H405 H 0.38318 0.96107 0.03048 0.0
H406 H 0.34895 0.99616 0.95897 0.0
H407 H 0.28699 0.04764 0.02564 0.0
H408 H 0.28205 0.09073 0.05813 0.0
H409 H 0.28963 0.18686 0.0142 0.0
H410 H 0.2951 0.14428 0.98146 0.0
H411 H 0.16834 0.9772 0.91455 0.0
H412 H 0.22267 0.98244 0.93939 0.0
H413 H 0.2358 0.0999 0.92113 0.0
H414 H 0.18051 0.09511 0.89647 0.0
H415 H 0.24377 0.08863 0.9668 0.0
H416 H 0.29616 0.03728 0.89974 0.0
H417 H 0.30057 0.99444 0.86713 0.0
H418 H 0.31223 0.89896 0.91117 0.0
H419 H 0.30731 0.94114 0.94408 0.0
C420 C 0.40439 0.05424 0.02171 0.0
C421 C 0.40728 0.01766 0.03095 0.0
C422 C 0.37725 0.06206 1.00518 0.0
C423 C 0.35265 0.03343 0.99773 0.0
C424 C 0.35518 0.99727 1.0073 0.0
C425 C 0.38202 0.9895 0.02369 0.0
C426 C 0.32454 0.04 0.97966 0.0
C427 C 0.3259 0.01634 0.96072 0.0
C428 C 0.29528 0.06729 0.98148 0.0
C429 C 0.29195 0.0928 1.00115 0.0
C430 C 0.28795 0.07796 0.02293 0.0
C431 C 0.28498 0.10229 0.04139 0.0
C432 C 0.28566 0.14151 0.03824 0.0
C433 C 0.2892 0.15648 0.01662 0.0
C434 C 0.29222 0.13227 0.99811 0.0
C435 C 0.18248 1.00429 0.91593 0.0
C436 C 0.17 0.03575 0.90352 0.0
C437 C 0.2138 0.00716 0.93 0.0
C438 C 0.23361 0.04145 0.93193 0.0
C439 C 0.22104 0.07313 0.91982 0.0
C440 C 0.18964 0.07025 0.90562 0.0
C441 C 0.26738 0.04361 0.94665 0.0
C442 C 0.2672 0.06897 0.96484 0.0
C443 C 0.29791 0.01793 0.94414 0.0
C444 C 0.30114 0.99239 0.92439 0.0
C445 C 0.29941 0.00712 0.90248 0.0
C446 C 0.30204 0.98295 0.88394 0.0
C447 C 0.30663 0.944 0.88708 0.0
C448 C 0.30867 0.92914 0.90877 0.0
C449 C 0.30602 0.95318 0.92737 0.0
H450 H 0.30865 0.92534 0.8727 0.0
H451 H 0.28335 0.1603 0.05255 0.0
H452 H 0.04009 0.3937 0.54806 0.0
H453 H 0.04585 0.3391 0.52322 0.0
H454 H 0.09004 0.41112 0.47074 0.0
H455 H 0.08253 0.46622 0.49527 0.0
H456 H 0.03829 0.37097 0.45396 0.0
H457 H 0.14462 0.33974 0.49909 0.0
H458 H 0.18048 0.32832 0.53383 0.0
H459 H 0.10578 0.23685 0.55104 0.0
H460 H 0.06914 0.24804 0.51655 0.0
H461 H 0.07752 0.21226 0.38209 0.0
H462 H 0.08761 0.26582 0.40736 0.0
H463 H 0.0155 0.21366 0.45702 0.0
H464 H 1.00356 0.16091 0.43158 0.0
H465 H 0.08696 0.24354 0.47387 0.0
H466 H 0.97885 0.28002 0.42902 0.0
H467 H 0.9455 0.29165 0.39343 0.0
H468 H 0.02903 0.37428 0.37476 0.0
H469 H 0.06319 0.36271 0.41013 0.0
C470 C 0.05191 0.39782 0.53142 0.0
C471 C 0.06078 0.43435 0.52362 0.0
C472 C 0.05532 0.36644 0.51719 0.0
C473 C 0.06862 0.37072 0.49503 0.0
C474 C 0.07951 0.40696 0.48768 0.0
C475 C 0.07543 0.43845 0.50176 0.0
C476 C 0.0678 0.33824 0.47899 0.0
C477 C 0.04975 0.34338 0.45822 0.0
C478 C 0.08196 0.30183 0.48453 0.0
C479 C 0.10395 0.29494 0.5053 0.0
C480 C 0.13567 0.31737 0.51036 0.0
C481 C 0.15617 0.3109 0.53 0.0
C482 C 0.14537 0.28193 0.54465 0.0
C483 C 0.1141 0.2593 0.53968 0.0
C484 C 0.09348 0.26566 0.52007 0.0
C485 C 0.06333 0.21225 0.39824 0.0
C486 C 0.03958 0.18202 0.40464 0.0
C487 C 0.06947 0.2428 0.41275 0.0
C488 C 0.05236 0.24362 0.43406 0.0
C489 C 0.02923 0.21337 0.44071 0.0
C490 C 0.02261 0.1831 0.42612 0.0
C491 C 0.05751 0.27662 0.44917 0.0
C492 C 0.07614 0.27142 0.46968 0.0
C493 C 0.04441 0.31311 0.4433 0.0
C494 C 0.02381 0.32017 0.42209 0.0
C495 C 0.9903 0.3004 0.41723 0.0
C496 C 0.97121 0.30704 0.39712 0.0
C497 C 0.98521 0.3336 0.3818 0.0
C498 C 0.01826 0.35366 0.38661 0.0
C499 C 0.03749 0.34709 0.40669 0.0
H500 H 0.97038 0.33871 0.36625 0.0
H501 H 0.16128 0.27698 0.55985 0.0
H502 H 0.55014 1.00409 0.98901 0.0
H503 H 0.60374 0.99077 0.96429 0.0
H504 H 0.65622 0.92473 0.0165 0.0
H505 H 0.60237 0.9382 0.04155 0.0
H506 H 0.70432 0.97742 0.99892 0.0
H507 H 0.62407 0.88119 0.96987 0.0
H508 H 0.56515 0.85374 0.95503 0.0
H509 H 0.57009 0.92922 0.8986 0.0
H510 H 0.62877 0.95753 0.91326 0.0
H511 H 0.85777 0.93394 0.92494 0.0
H512 H 0.80346 0.92649 0.9502 0.0
H513 H 0.73431 0.99156 0.90486 0.0
H514 H 0.78851 0.99942 0.87961 0.0
H515 H 0.69636 0.93048 0.92057 0.0
H516 H 0.77114 0.03152 0.95172 0.0
H517 H 0.82916 0.0609 0.96654 0.0
H518 H 0.83341 0.97775 0.01905 0.0
H519 H 0.77567 0.94752 1.00433 0.0
C520 C 0.57274 0.98616 0.99515 0.0
C521 C 0.57203 0.97226 0.01726 0.0
C522 C 0.60334 0.97843 0.98094 0.0
C523 C 0.63396 0.95659 0.98847 0.0
C524 C 0.63284 0.94158 1.01032 0.0
C525 C 0.60197 0.94909 0.02456 0.0
C526 C 0.66818 0.95227 0.97403 0.0
C527 C 0.70278 0.9663 0.98196 0.0
C528 C 0.66597 0.93868 0.95171 0.0
C529 C 0.63072 0.92166 0.94277 0.0
C530 C 0.61245 0.89214 0.95439 0.0
C531 C 0.57912 0.87639 0.94599 0.0
C532 C 0.56385 0.88977 0.92591 0.0
C533 C 0.58195 0.91889 0.91416 0.0
C534 C 0.61528 0.93476 0.92249 0.0
C535 C 0.83106 0.94685 0.92038 0.0
C536 C 0.82761 0.96748 0.90027 0.0
C537 C 0.8 0.94244 0.93481 0.0
C538 C 0.76487 0.95876 0.92953 0.0
C539 C 0.76109 0.9786 0.90925 0.0
C540 C 0.79212 0.983 0.8948 0.0
C541 C 0.73227 0.95614 0.94537 0.0
C542 C 0.698 0.94095 0.93766 0.0
C543 C 0.7347 0.96883 0.96787 0.0
C544 C 0.76937 0.98699 0.97676 0.0
C545 C 0.78464 0.0193 0.96631 0.0
C546 C 0.81743 0.03614 0.97471 0.0
C547 C 0.83503 0.02113 0.99369 0.0
C548 C 0.8198 0.98929 1.00433 0.0
C549 C 0.78704 0.9723 0.99597 0.0
H550 H 0.86041 0.03422 1.00018 0.0
H551 H 0.53804 0.87754 0.91943 0.0
H552 H 0.05031 0.61077 0.52094 0.0
H553 H 0.03723 0.66093 0.49427 0.0
H554 H 0.91731 0.64079 0.50132 0.0
H555 H 0.93041 0.58919 0.52808 0.0
H556 H 0.9376 0.65539 0.45739 0.0
H557 H 0.95558 0.7152 0.52787 0.0
H558 H 0.9865 0.72823 0.56405 0.0
H559 H 0.08665 0.76557 0.52943 0.0
H560 H 0.05657 0.75223 0.49302 0.0
H561 H 0.91199 0.8385 0.4033 0.0
H562 H 0.90812 0.78571 0.43005 0.0
H563 H 0.0299 0.77657 0.42958 0.0
H564 H 0.03396 0.82916 0.40297 0.0
H565 H 0.99762 0.77969 0.47279 0.0
H566 H 0.97979 0.71311 0.4024 0.0
H567 H 0.94754 0.7002 0.36661 0.0
H568 H 0.84392 0.67749 0.40215 0.0
H569 H 0.87547 0.6908 0.43816 0.0
C570 C 0.02106 0.61678 0.51688 0.0
C571 C 0.99134 0.59629 0.52689 0.0
C572 C 0.01364 0.64562 0.50161 0.0
C573 C 0.97628 0.65529 0.49619 0.0
C574 C 0.94637 0.634 0.50543 0.0
C575 C 0.95386 0.60461 0.5207 0.0
C576 C 0.96934 0.68825 0.48124 0.0
C577 C 0.95 0.68282 0.46097 0.0
C578 C 0.98569 0.72404 0.48582 0.0
C579 C 1.00385 0.73251 0.50769 0.0
C580 C 0.98428 0.72598 0.52796 0.0
C581 C 1.00165 0.73344 0.54852 0.0
C582 C 0.03853 0.74767 0.54904 0.0
C583 C 0.05808 0.75455 0.529 0.0
C584 C 0.04086 0.7471 0.50839 0.0
C585 C 0.9379 0.82511 0.40888 0.0
C586 C 0.97329 0.83791 0.40101 0.0
C587 C 0.93563 0.79488 0.42404 0.0
C588 C 0.96873 0.77721 0.43175 0.0
C589 C 1.00402 0.78981 0.42382 0.0
C590 C 0.00629 0.81967 0.4085 0.0
C591 C 0.96705 0.74643 0.44868 0.0
C592 C 0.9847 0.75244 0.46939 0.0
C593 C 0.94877 0.71147 0.44456 0.0
C594 C 0.92986 0.70341 0.42294 0.0
C595 C 0.95004 0.70572 0.40257 0.0
C596 C 0.93191 0.69826 0.38224 0.0
C597 C 0.89367 0.68816 0.3821 0.0
C598 C 0.87352 0.6854 0.40229 0.0
C599 C 0.89151 0.69288 0.42265 0.0
H600 H 0.87968 0.68238 0.36635 0.0
H601 H 0.05194 0.75341 0.56497 0.0
loop_
_geom_bond_atom_site_label_1
_geom_bond_atom_site_label_2
_geom_bond_distance
_geom_bond_site_symmetry_2
_ccdc_geom_bond_type
Mg0 O7 2.141 . S
Mg0 O8 2.048 . S
Mg0 O9 2.048 . S
Mg0 O12 2.141 . S
C1 O2 1.313 . S
C1 O8 1.195 1_565 S
O2 C1 1.313 . S
C3 O4 1.245 . S
C3 O12 1.289 1_565 S
O4 C3 1.245 . S
C5 O6 1.245 . S
C5 O7 1.289 1_565 S
O6 C5 1.245 . S
O7 Mg0 2.141 . S
O7 C5 1.289 1_545 S
O8 Mg0 2.048 . S
O8 C1 1.195 1_545 S
O9 Mg0 2.048 . S
O9 C10 1.195 1_545 S
C10 O9 1.195 1_565 S
C10 O11 1.313 . S
O11 C10 1.313 . S
O12 Mg0 2.141 . S
O12 C3 1.289 1_545 S
Mg13 O20 2.141 . S
Mg13 O21 2.048 . S
Mg13 O22 2.048 . S
Mg13 O25 2.141 . S
C14 O15 1.313 . S
C14 O21 1.195 1_455 S
O15 C14 1.313 . S
C16 O17 1.245 . S
C16 O25 1.289 1_455 S
O17 C16 1.245 . S
C18 O19 1.245 . S
C18 O20 1.289 1_455 S
O19 C18 1.245 . S
O20 Mg13 2.141 . S
O20 C18 1.289 1_655 S
O21 Mg13 2.048 . S
O21 C14 1.195 1_655 S
O22 Mg13 2.048 . S
O22 C23 1.195 1_655 S
C23 O22 1.195 1_455 S
C23 O24 1.313 . S
O24 C23 1.313 . S
O25 Mg13 2.141 . S
O25 C16 1.289 1_655 S
Li26 N43 1.990 . S
Li26 O86 1.956 1_545 S
Li26 O87 1.970 1_455 S
Li26 O88 1.961 1_455 S
Li27 N51 1.990 . S
Li27 O86 1.970 1_655 S
Li27 O87 1.956 1_565 S
Li27 O89 1.961 1_655 S
Li28 N73 1.990 . S
Li28 O86 1.961 1_545 S
Li28 O88 1.956 1_455 S
Li28 O89 1.970 1_545 S
Li29 N79 1.990 . S
Li29 O87 1.961 1_565 S
Li29 O88 1.970 1_565 S
Li29 O89 1.956 1_655 S
C30 C32 1.348 1_545 S
C30 C33 1.356 . S
C30 O86 1.325 1_545 S
N31 C34 1.314 1_545 S
N31 C35 1.279 . S
C32 C30 1.348 1_565 S
C32 C34 1.353 . S
C32 H90 0.929 . S
C33 C30 1.356 . S
C33 C35 1.358 . S
C33 H91 0.930 . S
C34 N31 1.314 1_565 S
C34 C32 1.353 . S
C34 H92 0.930 . S
C35 N31 1.279 . S
C35 C33 1.358 . S
C35 H93 0.930 . S
C36 C39 1.348 . S
C36 C40 1.356 1_545 S
C36 O87 1.325 . S
C37 N38 1.279 . S
C37 C40 1.358 . S
C37 H94 0.930 . S
N38 C37 1.279 . S
N38 C41 1.314 1_565 S
C39 C36 1.348 . S
C39 C41 1.353 . S
C39 H95 0.929 . S
C40 C36 1.356 1_565 S
C40 C37 1.358 . S
C40 H96 0.930 . S
C41 N38 1.314 1_545 S
C41 C39 1.353 . S
C41 H97 0.930 . S
C42 N43 1.314 1_655 S
C42 C47 1.353 . S
C42 H48 0.930 . S
N43 Li26 1.990 . S
N43 C42 1.314 1_455 S
N43 C45 1.279 . S
C44 C45 1.358 . S
C44 C46 1.356 . S
C44 H98 0.930 . S
C45 N43 1.279 . S
C45 C44 1.358 . S
C45 H49 0.930 . S
C46 C44 1.356 . S
C46 C47 1.348 1_455 S
C47 C42 1.353 . S
C47 C46 1.348 1_655 S
C47 H99 0.929 . S
H48 C42 0.930 . S
H49 C45 0.930 . S
C50 N51 1.314 1_455 S
C50 C52 1.353 . S
C50 H56 0.930 . S
N51 Li27 1.990 . S
N51 C50 1.314 1_655 S
N51 C54 1.279 . S
C52 C50 1.353 . S
C52 C55 1.348 . S
C52 H100 0.929 . S
C53 C54 1.358 . S
C53 C55 1.356 1_655 S
C53 H101 0.930 . S
C54 N51 1.279 . S
C54 C53 1.358 . S
C54 H57 0.930 . S
C55 C52 1.348 . S
C55 C53 1.356 1_455 S
H56 C50 0.930 . S
H57 C54 0.930 . S
C58 C60 1.348 1_455 S
C58 C61 1.356 . S
C58 O88 1.325 1_455 S
N59 C62 1.314 1_455 S
N59 C63 1.279 . S
C60 C58 1.348 1_655 S
C60 C62 1.353 . S
C60 H102 0.929 . S
C61 C58 1.356 . S
C61 C63 1.358 . S
C61 H103 0.930 . S
C62 N59 1.314 1_655 S
C62 C60 1.353 . S
C62 H104 0.930 . S
C63 N59 1.279 . S
C63 C61 1.358 . S
C63 H105 0.930 . S
C64 C65 1.348 . S
C64 C66 1.356 1_455 S
C64 O89 1.325 . S
C65 C64 1.348 . S
C65 C67 1.353 . S
C65 H106 0.929 . S
C66 C64 1.356 1_655 S
C66 C68 1.358 . S
C66 H107 0.930 . S
C67 C65 1.353 . S
C67 N69 1.314 1_455 S
C67 H108 0.930 . S
C68 C66 1.358 . S
C68 N69 1.279 . S
C68 H109 0.930 . S
N69 C67 1.314 1_655 S
N69 C68 1.279 . S
C70 C72 1.353 . S
C70 N73 1.314 1_565 S
C70 H76 0.930 . S
C71 N73 1.279 . S
C71 C74 1.358 . S
C71 H77 0.930 . S
C72 C70 1.353 . S
C72 C75 1.348 1_565 S
C72 H110 0.929 . S
N73 Li28 1.990 . S
N73 C70 1.314 1_545 S
N73 C71 1.279 . S
C74 C71 1.358 . S
C74 C75 1.356 . S
C74 H111 0.930 . S
C75 C72 1.348 1_545 S
C75 C74 1.356 . S
H76 C70 0.930 . S
H77 C71 0.930 . S
C78 N79 1.314 1_545 S
C78 C80 1.353 . S
C78 H84 0.930 . S
N79 Li29 1.990 . S
N79 C78 1.314 1_565 S
N79 C82 1.279 . S
C80 C78 1.353 . S
C80 C83 1.348 . S
C80 H112 0.929 . S
C81 C82 1.358 . S
C81 C83 1.356 1_565 S
C81 H113 0.930 . S
C82 N79 1.279 . S
C82 C81 1.358 . S
C82 H85 0.930 . S
C83 C80 1.348 . S
C83 C81 1.356 1_545 S
H84 C78 0.930 . S
H85 C82 0.930 . S
O86 Li26 1.956 1_565 S
O86 Li27 1.970 1_455 S
O86 Li28 1.961 1_565 S
O86 C30 1.325 1_565 S
O87 Li26 1.970 1_655 S
O87 Li27 1.956 1_545 S
O87 Li29 1.961 1_545 S
O87 C36 1.325 . S
O88 Li26 1.961 1_655 S
O88 Li28 1.956 1_655 S
O88 Li29 1.970 1_545 S
O88 C58 1.325 1_655 S
O89 Li27 1.961 1_455 S
O89 Li28 1.970 1_565 S
O89 Li29 1.956 1_455 S
O89 C64 1.325 . S
H90 C32 0.929 . S
H91 C33 0.930 . S
H92 C34 0.930 . S
H93 C35 0.930 . S
H94 C37 0.930 . S
H95 C39 0.929 . S
H96 C40 0.930 . S
H97 C41 0.930 . S
H98 C44 0.930 . S
H99 C47 0.929 . S
H100 C52 0.929 . S
H101 C53 0.930 . S
H102 C60 0.929 . S
H103 C61 0.930 . S
H104 C62 0.930 . S
H105 C63 0.930 . S
H106 C65 0.929 . S
H107 C66 0.930 . S
H108 C67 0.930 . S
H109 C68 0.930 . S
H110 C72 0.929 . S
H111 C74 0.930 . S
H112 C80 0.929 . S
H113 C81 0.930 . S
Li114 N131 1.990 . S
Li114 O174 1.956 1_655 S
Li114 O175 1.970 1_545 S
Li114 O176 1.961 1_545 S
Li115 N139 1.990 . S
Li115 O174 1.970 1_565 S
Li115 O175 1.956 1_455 S
Li115 O177 1.961 1_565 S
Li116 N161 1.990 . S
Li116 O174 1.961 1_655 S
Li116 O176 1.956 1_545 S
Li116 O177 1.970 1_655 S
Li117 N167 1.990 . S
Li117 O175 1.961 1_455 S
Li117 O176 1.970 1_455 S
Li117 O177 1.956 1_565 S
C118 C120 1.348 . S
C118 C121 1.356 1_455 S
C118 O174 1.325 . S
N119 C122 1.314 1_655 S
N119 C123 1.279 . S
C120 C118 1.348 . S
C120 C122 1.353 . S
C120 H178 0.929 . S
C121 C118 1.356 1_655 S
C121 C123 1.358 . S
C121 H179 0.930 . S
C122 N119 1.314 1_455 S
C122 C120 1.353 . S
C122 H180 0.930 . S
C123 N119 1.279 . S
C123 C121 1.358 . S
C123 H181 0.930 . S
C124 C127 1.348 1_455 S
C124 C128 1.356 . S
C124 O175 1.325 1_455 S
C125 N126 1.279 . S
C125 C128 1.358 . S
C125 H182 0.930 . S
N126 C125 1.279 . S
N126 C129 1.314 1_455 S
C127 C124 1.348 1_655 S
C127 C129 1.353 . S
C127 H183 0.929 . S
C128 C124 1.356 . S
C128 C125 1.358 . S
C128 H184 0.930 . S
C129 N126 1.314 1_655 S
C129 C127 1.353 . S
C129 H185 0.930 . S
C130 N131 1.314 1_565 S
C130 C135 1.353 . S
C130 H136 0.930 . S
N131 Li114 1.990 . S
N131 C130 1.314 1_545 S
N131 C133 1.279 . S
C132 C133 1.358 . S
C132 C134 1.355 . S
C132 H186 0.930 . S
C133 N131 1.279 . S
C133 C132 1.358 . S
C133 H137 0.930 . S
C134 C132 1.355 . S
C134 C135 1.348 1_545 S
C135 C130 1.353 . S
C135 C134 1.348 1_565 S
C135 H187 0.929 . S
H136 C130 0.930 . S
H137 C133 0.930 . S
C138 N139 1.314 1_545 S
C138 C140 1.353 . S
C138 H144 0.930 . S
N139 Li115 1.990 . S
N139 C138 1.314 1_565 S
N139 C142 1.279 . S
C140 C138 1.353 . S
C140 C143 1.348 . S
C140 H188 0.929 . S
C141 C142 1.358 . S
C141 C143 1.355 1_565 S
C141 H189 0.930 . S
C142 N139 1.279 . S
C142 C141 1.358 . S
C142 H145 0.930 . S
C143 C140 1.348 . S
C143 C141 1.355 1_545 S
H144 C138 0.930 . S
H145 C142 0.930 . S
C146 C148 1.348 1_545 S
C146 C149 1.356 . S
C146 O176 1.325 1_545 S
N147 C150 1.314 1_545 S
N147 C151 1.279 . S
C148 C146 1.348 1_565 S
C148 C150 1.353 . S
C148 H190 0.929 . S
C149 C146 1.356 . S
C149 C151 1.358 . S
C149 H191 0.930 . S
C150 N147 1.314 1_565 S
C150 C148 1.353 . S
C150 H192 0.930 . S
C151 N147 1.279 . S
C151 C149 1.358 . S
C151 H193 0.930 . S
C152 C153 1.348 . S
C152 C154 1.356 1_545 S
C152 O177 1.325 . S
C153 C152 1.348 . S
C153 C155 1.353 . S
C153 H194 0.929 . S
C154 C152 1.356 1_565 S
C154 C156 1.358 . S
C154 H195 0.930 . S
C155 C153 1.353 . S
C155 N157 1.314 1_545 S
C155 H196 0.930 . S
C156 C154 1.358 . S
C156 N157 1.279 . S
C156 H197 0.930 . S
N157 C155 1.314 1_565 S
N157 C156 1.279 . S
C158 C160 1.353 . S
C158 N161 1.314 1_455 S
C158 H164 0.930 . S
C159 N161 1.279 . S
C159 C162 1.358 . S
C159 H165 0.930 . S
C160 C158 1.353 . S
C160 C163 1.348 . S
C160 H198 0.929 . S
N161 Li116 1.990 . S
N161 C158 1.314 1_655 S
N161 C159 1.279 . S
C162 C159 1.358 . S
C162 C163 1.355 1_655 S
C162 H199 0.930 . S
C163 C160 1.348 . S
C163 C162 1.355 1_455 S
H164 C158 0.930 . S
H165 C159 0.930 . S
C166 N167 1.314 1_655 S
C166 C168 1.353 . S
C166 H172 0.930 . S
N167 Li117 1.990 . S
N167 C166 1.314 1_455 S
N167 C170 1.279 . S
C168 C166 1.353 . S
C168 C171 1.348 1_655 S
C168 H200 0.929 . S
C169 C170 1.358 . S
C169 C171 1.355 . S
C169 H201 0.930 . S
C170 N167 1.279 . S
C170 C169 1.358 . S
C170 H173 0.930 . S
C171 C168 1.348 1_455 S
C171 C169 1.355 . S
H172 C166 0.930 . S
H173 C170 0.930 . S
O174 Li114 1.956 1_455 S
O174 Li115 1.970 1_545 S
O174 Li116 1.961 1_455 S
O174 C118 1.325 . S
O175 Li114 1.970 1_565 S
O175 Li115 1.956 1_655 S
O175 Li117 1.961 1_655 S
O175 C124 1.325 1_655 S
O176 Li114 1.961 1_565 S
O176 Li116 1.956 1_565 S
O176 Li117 1.970 1_655 S
O176 C146 1.325 1_565 S
O177 Li115 1.961 1_545 S
O177 Li116 1.970 1_455 S
O177 Li117 1.956 1_545 S
O177 C152 1.325 . S
H178 C120 0.929 . S
H179 C121 0.930 . S
H180 C122 0.930 . S
H181 C123 0.930 . S
H182 C125 0.930 . S
H183 C127 0.929 . S
H184 C128 0.930 . S
H185 C129 0.930 . S
H186 C132 0.930 . S
H187 C135 0.929 . S
H188 C140 0.929 . S
H189 C141 0.930 . S
H190 C148 0.929 . S
H191 C149 0.930 . S
H192 C150 0.930 . S
H193 C151 0.930 . S
H194 C153 0.929 . S
H195 C154 0.930 . S
H196 C155 0.930 . S
H197 C156 0.930 . S
H198 C160 0.929 . S
H199 C162 0.930 . S
H200 C168 0.929 . S
H201 C169 0.930 . S
H202 C220 0.951 . S
H203 C222 0.951 . S
H204 C224 0.950 . S
H205 C225 0.950 . S
H206 C227 0.950 . S
H207 C230 0.950 . S
H208 C231 0.950 . S
H209 C233 0.950 . S
H210 C234 0.950 . S
H211 C235 0.951 . S
H212 C237 0.951 . S
H213 C239 0.950 . S
H214 C240 0.950 . S
H215 C242 0.950 . S
H216 C245 0.950 . S
H217 C246 0.950 . S
H218 C248 0.950 . S
H219 C249 0.950 . S
C220 H202 0.951 . S
C220 C221 1.364 . S
C220 C222 1.388 . S
C221 C220 1.364 . S
C221 C225 1.387 1_545 S
C222 H203 0.951 . S
C222 C220 1.388 . S
C222 C223 1.367 . S
C223 C222 1.367 . S
C223 C224 1.413 1_545 S
C223 C226 1.499 1_545 S
C224 H204 0.950 . S
C224 C223 1.413 1_565 S
C224 C225 1.374 . S
C225 H205 0.950 . S
C225 C221 1.387 1_565 S
C225 C224 1.374 . S
C226 C223 1.499 1_565 S
C226 C227 1.373 . S
C226 C228 1.389 1_565 S
C227 H206 0.950 . S
C227 C226 1.373 . S
C227 C243 1.377 . S
C228 C226 1.389 1_545 S
C228 C229 1.524 . S
C228 C242 1.377 . S
C229 C228 1.524 . S
C229 C230 1.397 . S
C229 C234 1.363 . S
C230 H207 0.950 . S
C230 C229 1.397 . S
C230 C231 1.334 . S
C231 H208 0.950 . S
C231 C230 1.334 . S
C231 C232 1.287 . S
C232 C231 1.287 . S
C232 C233 1.524 . S
C232 H251 0.913 . S
C233 H209 0.950 . S
C233 C232 1.524 . S
C233 C234 1.415 . S
C234 H210 0.950 . S
C234 C229 1.363 . S
C234 C233 1.415 . S
C235 H211 0.951 . S
C235 C236 1.383 . S
C235 C237 1.388 . S
C236 C235 1.383 . S
C236 C240 1.367 1_565 S
C237 H212 0.951 . S
C237 C235 1.388 . S
C237 C238 1.386 . S
C238 C237 1.386 . S
C238 C239 1.393 1_565 S
C238 C241 1.498 1_565 S
C239 H213 0.950 . S
C239 C238 1.393 1_545 S
C239 C240 1.374 . S
C240 H214 0.950 . S
C240 C236 1.367 1_545 S
C240 C239 1.374 . S
C241 C238 1.498 1_545 S
C241 C242 1.381 . S
C241 C243 1.382 1_545 S
C242 H215 0.950 . S
C242 C228 1.377 . S
C242 C241 1.381 . S
C243 C227 1.377 . S
C243 C241 1.382 1_565 S
C243 C244 1.524 . S
C244 C243 1.524 . S
C244 C245 1.397 . S
C244 C249 1.363 . S
C245 H216 0.950 . S
C245 C244 1.397 . S
C245 C246 1.334 . S
C246 H217 0.950 . S
C246 C245 1.334 . S
C246 C247 1.287 . S
C247 C246 1.287 . S
C247 C248 1.524 . S
C247 H250 0.999 . S
C248 H218 0.950 . S
C248 C247 1.524 . S
C248 C249 1.415 . S
C249 H219 0.950 . S
C249 C244 1.363 . S
C249 C248 1.415 . S
H250 C247 0.999 . S
H251 C232 0.913 . S
H252 C270 0.951 . S
H253 C272 0.951 . S
H254 C274 0.950 . S
H255 C275 0.950 . S
H256 C277 0.950 . S
H257 C280 0.950 . S
H258 C281 0.950 . S
H259 C283 0.950 . S
H260 C284 0.950 . S
H261 C285 0.951 . S
H262 C287 0.951 . S
H263 C289 0.950 . S
H264 C290 0.950 . S
H265 C292 0.950 . S
H266 C295 0.950 . S
H267 C296 0.950 . S
H268 C298 0.950 . S
H269 C299 0.950 . S
C270 H252 0.951 . S
C270 C271 1.363 1_655 S
C270 C272 1.388 . S
C271 C270 1.363 1_455 S
C271 C275 1.387 . S
C272 H253 0.951 . S
C272 C270 1.388 . S
C272 C273 1.384 . S
C273 C272 1.384 . S
C273 C274 1.395 1_655 S
C273 C276 1.498 . S
C274 H254 0.950 . S
C274 C273 1.395 1_455 S
C274 C275 1.374 . S
C275 H255 0.950 . S
C275 C271 1.387 . S
C275 C274 1.374 . S
C276 C273 1.498 . S
C276 C277 1.375 1_655 S
C276 C278 1.388 . S
C277 H256 0.950 . S
C277 C276 1.375 1_455 S
C277 C293 1.377 . S
C278 C276 1.388 . S
C278 C279 1.524 . S
C278 C292 1.377 . S
C279 C278 1.524 . S
C279 C280 1.397 . S
C279 C284 1.363 . S
C280 H257 0.950 . S
C280 C279 1.397 . S
C280 C281 1.334 . S
C281 H258 0.950 . S
C281 C280 1.334 . S
C281 C282 1.287 . S
C282 C281 1.287 . S
C282 C283 1.524 . S
C282 H301 0.913 . S
C283 H259 0.950 . S
C283 C282 1.524 . S
C283 C284 1.415 . S
C284 H260 0.950 . S
C284 C279 1.363 . S
C284 C283 1.415 . S
C285 H261 0.951 . S
C285 C286 1.384 . S
C285 C287 1.388 . S
C286 C285 1.384 . S
C286 C290 1.367 1_455 S
C287 H262 0.951 . S
C287 C285 1.388 . S
C287 C288 1.366 . S
C288 C287 1.366 . S
C288 C289 1.414 1_455 S
C288 C291 1.499 . S
C289 H263 0.950 . S
C289 C288 1.414 1_655 S
C289 C290 1.374 . S
C290 H264 0.950 . S
C290 C286 1.367 1_655 S
C290 C289 1.374 . S
C291 C288 1.499 . S
C291 C292 1.373 1_455 S
C291 C293 1.389 . S
C292 H265 0.950 . S
C292 C278 1.377 . S
C292 C291 1.373 1_655 S
C293 C277 1.377 . S
C293 C291 1.389 . S
C293 C294 1.524 . S
C294 C293 1.524 . S
C294 C295 1.397 . S
C294 C299 1.363 . S
C295 H266 0.950 . S
C295 C294 1.397 . S
C295 C296 1.334 . S
C296 H267 0.950 . S
C296 C295 1.334 . S
C296 C297 1.287 . S
C297 C296 1.287 . S
C297 C298 1.524 . S
C297 H300 0.999 . S
C298 H268 0.950 . S
C298 C297 1.524 . S
C298 C299 1.415 . S
C299 H269 0.950 . S
C299 C294 1.363 . S
C299 C298 1.415 . S
H300 C297 0.999 . S
H301 C282 0.913 . S
H302 C320 0.951 . S
H303 C322 0.951 . S
H304 C324 0.950 . S
H305 C325 0.950 . S
H306 C327 0.950 . S
H307 C330 0.950 1_545 S
H308 C331 0.950 . S
H309 C333 0.950 . S
H310 C334 0.950 . S
H311 C335 0.951 . S
H312 C337 0.951 . S
H313 C339 0.950 . S
H314 C340 0.950 . S
H315 C342 0.950 . S
H316 C345 0.950 1_565 S
H317 C346 0.950 . S
H318 C348 0.950 . S
H319 C349 0.950 . S
C320 H302 0.951 . S
C320 C321 1.364 1_565 S
C320 C322 1.388 . S
C321 C320 1.364 1_545 S
C321 C325 1.386 . S
C322 H303 0.951 . S
C322 C320 1.388 . S
C322 C323 1.348 1_565 S
C323 C322 1.348 1_545 S
C323 C324 1.431 . S
C323 C326 1.499 . S
C324 H304 0.950 . S
C324 C323 1.431 . S
C324 C325 1.374 . S
C325 H305 0.950 . S
C325 C321 1.386 . S
C325 C324 1.374 . S
C326 C323 1.499 . S
C326 C327 1.373 . S
C326 C328 1.389 1_545 S
C327 H306 0.950 . S
C327 C326 1.373 . S
C327 C343 1.377 . S
C328 C326 1.389 1_565 S
C328 C329 1.524 . S
C328 C342 1.377 . S
C329 C328 1.524 . S
C329 C330 1.397 . S
C329 C334 1.363 . S
C330 H307 0.950 1_565 S
C330 C329 1.397 . S
C330 C331 1.334 . S
C331 H308 0.950 . S
C331 C330 1.334 . S
C331 C332 1.287 . S
C332 C331 1.287 . S
C332 C333 1.524 . S
C332 H351 0.913 . S
C333 H309 0.950 . S
C333 C332 1.524 . S
C333 C334 1.415 . S
C334 H310 0.950 . S
C334 C329 1.363 . S
C334 C333 1.415 . S
C335 H311 0.951 . S
C335 C336 1.390 . S
C335 C337 1.388 . S
C336 C335 1.390 . S
C336 C340 1.360 1_545 S
C337 H312 0.951 . S
C337 C335 1.388 . S
C337 C338 1.375 . S
C338 C337 1.375 . S
C338 C339 1.405 1_545 S
C338 C341 1.498 1_545 S
C339 H313 0.950 . S
C339 C338 1.405 1_565 S
C339 C340 1.374 . S
C340 H314 0.950 . S
C340 C336 1.360 1_565 S
C340 C339 1.374 . S
C341 C338 1.498 1_565 S
C341 C342 1.386 . S
C341 C343 1.376 1_565 S
C342 H315 0.950 . S
C342 C328 1.377 . S
C342 C341 1.386 . S
C343 C327 1.377 . S
C343 C341 1.376 1_545 S
C343 C344 1.524 . S
C344 C343 1.524 . S
C344 C345 1.397 . S
C344 C349 1.363 . S
C345 H316 0.950 1_545 S
C345 C344 1.397 . S
C345 C346 1.334 . S
C346 H317 0.950 . S
C346 C345 1.334 . S
C346 C347 1.287 . S
C347 C346 1.287 . S
C347 C348 1.524 . S
C347 H350 0.999 . S
C348 H318 0.950 . S
C348 C347 1.524 . S
C348 C349 1.415 . S
C349 H319 0.950 . S
C349 C344 1.363 . S
C349 C348 1.415 . S
H350 C347 0.999 . S
H351 C332 0.913 . S
H352 C370 0.951 . S
H353 C372 0.951 . S
H354 C374 0.950 . S
H355 C375 0.950 . S
H356 C377 0.950 . S
H357 C380 0.950 1_655 S
H358 C381 0.950 . S
H359 C383 0.950 . S
H360 C384 0.950 . S
H361 C385 0.951 . S
H362 C387 0.951 . S
H363 C389 0.950 . S
H364 C390 0.950 . S
H365 C392 0.950 . S
H366 C395 0.950 1_455 S
H367 C396 0.950 . S
H368 C398 0.950 . S
H369 C399 0.950 . S
C370 H352 0.951 . S
C370 C371 1.364 . S
C370 C372 1.388 . S
C371 C370 1.364 . S
C371 C375 1.387 1_455 S
C372 H353 0.951 . S
C372 C370 1.388 . S
C372 C373 1.358 1_455 S
C373 C372 1.358 1_655 S
C373 C374 1.421 . S
C373 C376 1.499 . S
C374 H354 0.950 . S
C374 C373 1.421 . S
C374 C375 1.374 . S
C375 H355 0.950 . S
C375 C371 1.387 1_655 S
C375 C374 1.374 . S
C376 C373 1.499 . S
C376 C377 1.373 . S
C376 C378 1.389 1_655 S
C377 H356 0.950 . S
C377 C376 1.373 . S
C377 C393 1.377 . S
C378 C376 1.389 1_455 S
C378 C379 1.524 . S
C378 C392 1.377 . S
C379 C378 1.524 . S
C379 C380 1.397 . S
C379 C384 1.363 . S
C380 H357 0.950 1_455 S
C380 C379 1.397 . S
C380 C381 1.334 . S
C381 H358 0.950 . S
C381 C380 1.334 . S
C381 C382 1.287 . S
C382 C381 1.287 . S
C382 C383 1.524 . S
C382 H401 0.913 . S
C383 H359 0.950 . S
C383 C382 1.524 . S
C383 C384 1.415 . S
C384 H360 0.950 . S
C384 C379 1.363 . S
C384 C383 1.415 . S
C385 H361 0.951 . S
C385 C386 1.384 . S
C385 C387 1.388 . S
C386 C385 1.384 . S
C386 C390 1.366 1_655 S
C387 H362 0.951 . S
C387 C385 1.388 . S
C387 C388 1.372 . S
C388 C387 1.372 . S
C388 C389 1.407 1_655 S
C388 C391 1.498 1_655 S
C389 H363 0.950 . S
C389 C388 1.407 1_455 S
C389 C390 1.374 . S
C390 H364 0.950 . S
C390 C386 1.366 1_455 S
C390 C389 1.374 . S
C391 C388 1.498 1_455 S
C391 C392 1.389 . S
C391 C393 1.374 1_455 S
C392 H365 0.950 . S
C392 C378 1.377 . S
C392 C391 1.389 . S
C393 C377 1.377 . S
C393 C391 1.374 1_655 S
C393 C394 1.524 . S
C394 C393 1.524 . S
C394 C395 1.397 . S
C394 C399 1.363 . S
C395 H366 0.950 1_655 S
C395 C394 1.397 . S
C395 C396 1.334 . S
C396 H367 0.950 . S
C396 C395 1.334 . S
C396 C397 1.287 . S
C397 C396 1.287 . S
C397 C398 1.524 . S
C397 H400 0.999 . S
C398 H368 0.950 . S
C398 C397 1.524 . S
C398 C399 1.415 . S
C399 H369 0.950 . S
C399 C394 1.363 . S
C399 C398 1.415 . S
H400 C397 0.999 . S
H401 C382 0.913 . S
H402 C420 0.960 . S
H403 C422 0.951 . S
H404 C424 0.950 . S
H405 C425 0.950 . S
H406 C427 0.950 . S
H407 C430 0.950 . S
H408 C431 0.950 . S
H409 C433 0.950 . S
H410 C434 0.950 . S
H411 C435 0.951 . S
H412 C437 0.951 . S
H413 C439 0.950 . S
H414 C440 0.950 . S
H415 C442 0.950 . S
H416 C445 0.950 . S
H417 C446 0.950 . S
H418 C448 0.950 . S
H419 C449 0.950 . S
C420 H402 0.960 . S
C420 C421 1.393 . S
C420 C422 1.355 1_554 S
C421 C420 1.393 . S
C421 C425 1.384 1_545 S
C422 H403 0.951 . S
C422 C420 1.355 1_556 S
C422 C423 1.385 . S
C423 C422 1.385 . S
C423 C424 1.394 1_545 S
C423 C426 1.498 1_545 S
C424 H404 0.950 . S
C424 C423 1.394 1_565 S
C424 C425 1.374 1_556 S
C425 H405 0.950 . S
C425 C421 1.384 1_565 S
C425 C424 1.374 1_554 S
C426 C423 1.498 1_565 S
C426 C427 1.376 . S
C426 C428 1.387 1_565 S
C427 H406 0.950 . S
C427 C426 1.376 . S
C427 C443 1.377 . S
C428 C426 1.387 1_545 S
C428 C429 1.524 . S
C428 C442 1.377 . S
C429 C428 1.524 . S
C429 C430 1.397 1_556 S
C429 C434 1.363 . S
C430 H407 0.950 . S
C430 C429 1.397 1_554 S
C430 C431 1.334 . S
C431 H408 0.950 . S
C431 C430 1.334 . S
C431 C432 1.287 . S
C432 C431 1.287 . S
C432 C433 1.524 1_554 S
C432 H451 0.913 . S
C433 H409 0.950 . S
C433 C432 1.524 1_556 S
C433 C434 1.415 . S
C434 H410 0.950 . S
C434 C429 1.363 . S
C434 C433 1.415 . S
C435 H411 0.951 . S
C435 C436 1.341 1_565 S
C435 C437 1.388 . S
C436 C435 1.341 1_545 S
C436 C440 1.410 . S
C437 H412 0.951 . S
C437 C435 1.388 . S
C437 C438 1.359 1_565 S
C438 C437 1.359 1_545 S
C438 C439 1.420 . S
C438 C441 1.499 . S
C439 H413 0.950 . S
C439 C438 1.420 . S
C439 C440 1.374 . S
C440 H414 0.950 . S
C440 C436 1.410 . S
C440 C439 1.374 . S
C441 C438 1.499 . S
C441 C442 1.373 . S
C441 C443 1.389 1_545 S
C442 H415 0.950 . S
C442 C428 1.377 . S
C442 C441 1.373 . S
C443 C427 1.377 . S
C443 C441 1.389 1_565 S
C443 C444 1.524 . S
C444 C443 1.524 . S
C444 C445 1.397 . S
C444 C449 1.363 . S
C445 H416 0.950 . S
C445 C444 1.397 . S
C445 C446 1.334 . S
C446 H417 0.950 . S
C446 C445 1.334 . S
C446 C447 1.287 . S
C447 C446 1.287 . S
C447 C448 1.524 . S
C447 H450 0.999 . S
C448 H418 0.950 . S
C448 C447 1.524 . S
C448 C449 1.415 . S
C449 H419 0.950 . S
C449 C444 1.363 . S
C449 C448 1.415 . S
H450 C447 0.999 . S
H451 C432 0.913 . S
H452 C470 0.951 . S
H453 C472 0.951 . S
H454 C474 0.950 . S
H455 C475 0.950 . S
H456 C477 0.950 . S
H457 C480 0.950 . S
H458 C481 0.950 . S
H459 C483 0.950 . S
H460 C484 0.954 . S
H461 C485 0.951 . S
H462 C487 0.951 . S
H463 C489 0.950 . S
H464 C490 0.950 . S
H465 C492 0.950 . S
H466 C495 0.950 . S
H467 C496 0.950 . S
H468 C498 0.950 . S
H469 C499 0.972 . S
C470 H452 0.951 . S
C470 C471 1.367 1_655 S
C470 C472 1.388 . S
C471 C470 1.367 1_455 S
C471 C475 1.383 . S
C472 H453 0.951 . S
C472 C470 1.388 . S
C472 C473 1.366 1_655 S
C473 C472 1.366 1_455 S
C473 C474 1.414 . S
C473 C476 1.499 . S
C474 H454 0.950 . S
C474 C473 1.414 . S
C474 C475 1.374 . S
C475 H455 0.950 . S
C475 C471 1.383 . S
C475 C474 1.374 . S
C476 C473 1.499 . S
C476 C477 1.373 1_455 S
C476 C478 1.389 . S
C477 H456 0.950 . S
C477 C476 1.373 1_655 S
C477 C493 1.377 . S
C478 C476 1.389 . S
C478 C479 1.524 . S
C478 C492 1.377 . S
C479 C478 1.524 . S
C479 C480 1.397 . S
C479 C484 1.363 . S
C480 H457 0.950 . S
C480 C479 1.397 . S
C480 C481 1.334 . S
C481 H458 0.950 . S
C481 C480 1.334 . S
C481 C482 1.287 . S
C482 C481 1.287 . S
C482 C483 1.524 . S
C482 H501 0.913 . S
C483 H459 0.950 . S
C483 C482 1.524 . S
C483 C484 1.415 . S
C484 H460 0.954 . S
C484 C479 1.363 . S
C484 C483 1.415 . S
C485 H461 0.951 . S
C485 C486 1.358 1_455 S
C485 C487 1.388 . S
C486 C485 1.358 1_655 S
C486 C490 1.393 . S
C487 H462 0.951 . S
C487 C485 1.388 . S
C487 C488 1.366 1_455 S
C488 C487 1.366 1_655 S
C488 C489 1.414 . S
C488 C491 1.499 . S
C489 H463 0.950 . S
C489 C488 1.414 . S
C489 C490 1.374 . S
C490 H464 0.950 . S
C490 C486 1.393 . S
C490 C489 1.374 . S
C491 C488 1.499 . S
C491 C492 1.373 1_655 S
C491 C493 1.389 . S
C492 H465 0.950 . S
C492 C478 1.377 . S
C492 C491 1.373 1_455 S
C493 C477 1.377 . S
C493 C491 1.389 . S
C493 C494 1.524 . S
C494 C493 1.524 . S
C494 C495 1.397 . S
C494 C499 1.363 . S
C495 H466 0.950 . S
C495 C494 1.397 . S
C495 C496 1.334 . S
C496 H467 0.950 . S
C496 C495 1.334 . S
C496 C497 1.287 . S
C497 C496 1.287 . S
C497 C498 1.524 . S
C497 H500 0.999 . S
C498 H468 0.950 . S
C498 C497 1.524 . S
C498 C499 1.415 . S
C499 H469 0.972 . S
C499 C494 1.363 . S
C499 C498 1.415 . S
H500 C497 0.999 . S
H501 C482 0.913 . S
H502 C520 0.951 . S
H503 C522 0.951 . S
H504 C524 0.950 . S
H505 C525 0.950 . S
H506 C527 0.950 . S
H507 C530 0.950 . S
H508 C531 0.950 . S
H509 C533 0.950 . S
H510 C534 0.950 . S
H511 C535 0.951 . S
H512 C537 0.951 . S
H513 C539 0.950 . S
H514 C540 0.950 . S
H515 C542 0.950 . S
H516 C545 0.950 . S
H517 C546 0.950 . S
H518 C548 0.950 . S
H519 C549 0.950 . S
C520 H502 0.951 . S
C520 C521 1.366 1_566 S
C520 C522 1.388 . S
C521 C520 1.366 1_544 S
C521 C525 1.385 . S
C522 H503 0.951 . S
C522 C520 1.388 . S
C522 C523 1.366 . S
C523 C522 1.366 . S
C523 C524 1.414 1_566 S
C523 C526 1.499 . S
C524 H504 0.950 . S
C524 C523 1.414 1_544 S
C524 C525 1.374 . S
C525 H505 0.950 . S
C525 C521 1.385 . S
C525 C524 1.374 . S
C526 C523 1.499 . S
C526 C527 1.373 1_565 S
C526 C528 1.389 . S
C527 H506 0.950 . S
C527 C526 1.373 1_545 S
C527 C543 1.377 . S
C528 C526 1.389 . S
C528 C529 1.524 . S
C528 C542 1.377 . S
C529 C528 1.524 . S
C529 C530 1.397 . S
C529 C534 1.363 . S
C530 H507 0.950 . S
C530 C529 1.397 . S
C530 C531 1.334 . S
C531 H508 0.950 . S
C531 C530 1.334 . S
C531 C532 1.287 . S
C532 C531 1.287 . S
C532 C533 1.524 . S
C532 H551 0.913 . S
C533 H509 0.950 . S
C533 C532 1.524 . S
C533 C534 1.415 . S
C534 H510 0.950 . S
C534 C529 1.363 . S
C534 C533 1.415 . S
C535 H511 0.951 . S
C535 C536 1.364 1_545 S
C535 C537 1.388 . S
C536 C535 1.364 1_565 S
C536 C540 1.387 . S
C537 H512 0.951 . S
C537 C535 1.388 . S
C537 C538 1.366 . S
C538 C537 1.366 . S
C538 C539 1.414 1_545 S
C538 C541 1.499 . S
C539 H513 0.950 . S
C539 C538 1.414 1_565 S
C539 C540 1.374 . S
C540 H514 0.950 . S
C540 C536 1.387 . S
C540 C539 1.374 . S
C541 C538 1.499 . S
C541 C542 1.373 1_545 S
C541 C543 1.389 . S
C542 H515 0.950 . S
C542 C528 1.377 . S
C542 C541 1.373 1_565 S
C543 C527 1.377 . S
C543 C541 1.389 . S
C543 C544 1.524 . S
C544 C543 1.524 . S
C544 C545 1.397 . S
C544 C549 1.363 . S
C545 H516 0.950 . S
C545 C544 1.397 . S
C545 C546 1.334 . S
C546 H517 0.950 . S
C546 C545 1.334 . S
C546 C547 1.287 . S
C547 C546 1.287 . S
C547 C548 1.524 . S
C547 H550 0.999 . S
C548 H518 0.950 . S
C548 C547 1.524 . S
C548 C549 1.415 . S
C549 H519 0.950 . S
C549 C544 1.363 . S
C549 C548 1.415 . S
H550 C547 0.999 . S
H551 C532 0.913 . S
H552 C570 0.951 . S
H553 C572 0.951 . S
H554 C574 0.950 . S
H555 C575 0.950 . S
H556 C577 0.950 . S
H557 C580 0.950 1_655 S
H558 C581 0.950 . S
H559 C583 0.950 . S
H560 C584 0.950 . S
H561 C585 0.951 . S
H562 C587 0.951 . S
H563 C589 0.950 . S
H564 C590 0.950 . S
H565 C592 0.950 . S
H566 C595 0.950 1_455 S
H567 C596 0.950 . S
H568 C598 0.950 . S
H569 C599 0.950 . S
C570 H552 0.951 . S
C570 C571 1.367 . S
C570 C572 1.388 . S
C571 C570 1.367 . S
C571 C575 1.384 1_455 S
C572 H553 0.951 . S
C572 C570 1.388 . S
C572 C573 1.368 1_455 S
C573 C572 1.368 1_655 S
C573 C574 1.411 . S
C573 C576 1.499 . S
C574 H554 0.950 . S
C574 C573 1.411 . S
C574 C575 1.374 . S
C575 H555 0.950 . S
C575 C571 1.384 1_655 S
C575 C574 1.374 . S
C576 C573 1.499 . S
C576 C577 1.373 . S
C576 C578 1.389 1_655 S
C577 H556 0.950 . S
C577 C576 1.373 . S
C577 C593 1.377 . S
C578 C576 1.389 1_455 S
C578 C579 1.524 . S
C578 C592 1.377 . S
C579 C578 1.524 . S
C579 C580 1.397 . S
C579 C584 1.363 . S
C580 H557 0.950 1_455 S
C580 C579 1.397 . S
C580 C581 1.334 . S
C581 H558 0.950 . S
C581 C580 1.334 . S
C581 C582 1.287 . S
C582 C581 1.287 . S
C582 C583 1.524 . S
C582 H601 0.913 . S
C583 H559 0.950 . S
C583 C582 1.524 . S
C583 C584 1.415 . S
C584 H560 0.950 . S
C584 C579 1.363 . S
C584 C583 1.415 . S
C585 H561 0.951 . S
C585 C586 1.341 1_655 S
C585 C587 1.388 . S
C586 C585 1.341 1_455 S
C586 C590 1.410 . S
C587 H562 0.951 . S
C587 C585 1.388 . S
C587 C588 1.366 1_655 S
C588 C587 1.366 1_455 S
C588 C589 1.414 . S
C588 C591 1.499 . S
C589 H563 0.950 . S
C589 C588 1.414 . S
C589 C590 1.374 . S
C590 H564 0.950 . S
C590 C586 1.410 . S
C590 C589 1.374 . S
C591 C588 1.499 . S
C591 C592 1.373 . S
C591 C593 1.389 1_455 S
C592 H565 0.950 . S
C592 C578 1.377 . S
C592 C591 1.373 . S
C593 C577 1.377 . S
C593 C591 1.389 1_655 S
C593 C594 1.524 . S
C594 C593 1.524 . S
C594 C595 1.397 . S
C594 C599 1.363 . S
C595 H566 0.950 1_655 S
C595 C594 1.397 . S
C595 C596 1.334 . S
C596 H567 0.950 . S
C596 C595 1.334 . S
C596 C597 1.287 . S
C597 C596 1.287 . S
C597 C598 1.524 . S
C597 H600 0.999 . S
C598 H568 0.950 . S
C598 C597 1.524 . S
C598 C599 1.415 . S
C599 H569 0.950 . S
C599 C594 1.363 . S
C599 C598 1.415 . S
H600 C597 0.999 . S
H601 C582 0.913 . S
C236 C75 1.380 1_565 S
C221 C5 1.371 1_545 S
C286 C163 1.464 . S
C271 C23 1.458 . S
C336 C83 1.380 . S
C321 C3 1.376 1_545 S
C386 C171 1.464 1_655 S
C371 C14 1.464 . S
C436 C143 1.464 . S
C421 C1 1.458 1_545 S
C486 C46 1.380 1_655 S
C471 C16 1.371 . S
C536 C134 1.464 1_565 S
C521 C10 1.463 1_545 S
C571 C18 1.374 . S
C586 C55 1.383 . S
