# Generated by pormake.
# Topology ssa, (4,4)-cn, num edge types: 1
# Building blocks:
#     Node 0, Type 0, BuildingBlock: KOZSID_clean_sbu_0, # of connection points: 4
#     Node 1, Type 0, BuildingBlock: KOZSID_clean_sbu_0, # of connection points: 4
#     Node 2, Type 0, BuildingBlock: KOZSID_clean_sbu_0, # of connection points: 4
#     Node 3, Type 0, BuildingBlock: KOZSID_clean_sbu_0, # of connection points: 4
#     Node 4, Type 0, BuildingBlock: KOZSID_clean_sbu_0, # of connection points: 4
#     Node 5, Type 0, BuildingBlock: KOZSID_clean_sbu_0, # of connection points: 4
#     Node 6, Type 1, BuildingBlock: ESEHIV_clean_sbu_0, # of connection points: 4
#     Node 7, Type 1, BuildingBlock: ESEHIV_clean_sbu_0, # of connection points: 4
#     Node 8, Type 1, BuildingBlock: ESEHIV_clean_sbu_0, # of connection points: 4
#     Node 9, Type 1, BuildingBlock: ESEHIV_clean_sbu_0, # of connection points: 4
#     Node 10, Type 1, BuildingBlock: ESEHIV_clean_sbu_0, # of connection points: 4
#     Node 11, Type 1, BuildingBlock: ESEHIV_clean_sbu_0, # of connection points: 4
#     Edge 12, Type (0, 1), BuildingBlock: XUDNAN_clean_linker_2, # of connection points: 2
#     Edge 13, Type (0, 1), BuildingBlock: XUDNAN_clean_linker_2, # of connection points: 2
#     Edge 14, Type (0, 1), BuildingBlock: XUDNAN_clean_linker_2, # of connection points: 2
#     Edge 15, Type (0, 1), BuildingBlock: XUDNAN_clean_linker_2, # of connection points: 2
#     Edge 16, Type (0, 1), BuildingBlock: XUDNAN_clean_linker_2, # of connection points: 2
#     Edge 17, Type (0, 1), BuildingBlock: XUDNAN_clean_linker_2, # of connection points: 2
#     Edge 18, Type (0, 1), BuildingBlock: XUDNAN_clean_linker_2, # of connection points: 2
#     Edge 19, Type (0, 1), BuildingBlock: XUDNAN_clean_linker_2, # of connection points: 2
#     Edge 20, Type (0, 1), BuildingBlock: XUDNAN_clean_linker_2, # of connection points: 2
#     Edge 21, Type (0, 1), BuildingBlock: XUDNAN_clean_linker_2, # of connection points: 2
#     Edge 22, Type (0, 1), BuildingBlock: XUDNAN_clean_linker_2, # of connection points: 2
#     Edge 23, Type (0, 1), BuildingBlock: XUDNAN_clean_linker_2, # of connection points: 2
#     Edge 24, Type (0, 1), BuildingBlock: XUDNAN_clean_linker_2, # of connection points: 2
#     Edge 25, Type (0, 1), BuildingBlock: XUDNAN_clean_linker_2, # of connection points: 2
#     Edge 26, Type (0, 1), BuildingBlock: XUDNAN_clean_linker_2, # of connection points: 2
#     Edge 27, Type (0, 1), BuildingBlock: XUDNAN_clean_linker_2, # of connection points: 2
#     Edge 28, Type (0, 1), BuildingBlock: XUDNAN_clean_linker_2, # of connection points: 2
#     Edge 29, Type (0, 1), BuildingBlock: XUDNAN_clean_linker_2, # of connection points: 2
#     Edge 30, Type (0, 1), BuildingBlock: XUDNAN_clean_linker_2, # of connection points: 2
#     Edge 31, Type (0, 1), BuildingBlock: XUDNAN_clean_linker_2, # of connection points: 2
#     Edge 32, Type (0, 1), BuildingBlock: XUDNAN_clean_linker_2, # of connection points: 2
#     Edge 33, Type (0, 1), BuildingBlock: XUDNAN_clean_linker_2, # of connection points: 2
#     Edge 34, Type (0, 1), BuildingBlock: XUDNAN_clean_linker_2, # of connection points: 2
#     Edge 35, Type (0, 1), BuildingBlock: XUDNAN_clean_linker_2, # of connection points: 2
# Relax obj value: 0.020
# Max RMSD: 0.096
# Mean RMSD: 0.055
data_MOF--net-ssa--node1-KOZSID_clean_sbu_0--node2-ESEHIV_clean_sbu_0--edge1-XUDNAN_clean_linker_2
_symmetry_space_group_name_H-M    P1
_symmetry_Int_Tables_number       1
_symmetry_cell_setting            triclinic
loop_
_symmetry_equiv_pos_as_xyz
'x, y, z'
_cell_length_a     53.844294
_cell_length_b     55.233785
_cell_length_c     40.506265
_cell_angle_alpha  87.316533
_cell_angle_beta   89.998988
_cell_angle_gamma 122.39283
loop_
_atom_site_label
_atom_site_type_symbol
_atom_site_fract_x
_atom_site_fract_y
_atom_site_fract_z
_atom_type_partial_charge
C0 C 0.95593 0.50081 1.00599 0.0
C1 C 0.92952 0.4908 0.02302 0.0
C2 C 0.93147 0.4799 0.05316 0.0
C3 C 0.95892 0.48397 0.05301 0.0
N4 N 0.97494 0.49736 0.02486 0.0
Co5 Co 0.01549 0.50589 0.01414 0.0
N6 N 0.01719 0.48711 0.05723 0.0
C7 C 0.99575 0.4744 0.08113 0.0
C8 C 1.00285 0.46364 0.1081 0.0
C9 C 0.03076 0.47038 0.10147 0.0
C10 C 0.03938 0.48528 0.07081 0.0
N11 N 0.05591 0.51412 1.00323 0.0
C12 C 0.07503 0.5108 0.02212 0.0
C13 C 0.10205 0.52255 1.00562 0.0
C14 C 0.09986 0.53315 0.97545 0.0
C15 C 0.07193 0.52779 0.97513 0.0
N16 N 0.01385 0.52499 0.97124 0.0
C17 C 0.03545 0.53816 0.94758 0.0
C18 C 0.02782 0.54773 0.91997 0.0
C19 C 0.99946 0.53989 0.92603 0.0
C20 C 0.99133 0.52602 0.95726 0.0
N21 N 0.03402 0.54292 0.03596 0.0
C22 C 0.07062 0.58916 0.07495 0.0
C23 C 0.07797 0.58966 0.04179 0.0
C24 C 0.05914 0.56674 0.02266 0.0
C25 C 0.04303 0.56682 0.08709 0.0
C26 C 0.02504 0.54416 0.06715 0.0
N27 N 0.99725 0.46878 0.99255 0.0
C28 C 0.99054 0.44232 0.94391 0.0
C29 C 0.96715 0.4173 0.95948 0.0
C30 C 0.95982 0.41814 0.99225 0.0
C31 C 0.97498 0.44391 1.00816 0.0
C32 C 1.00543 0.46754 0.96093 0.0
H33 H 0.96781 0.44327 0.03282 0.0
H34 H 0.02316 0.48585 0.94779 0.0
H35 H 0.06609 0.56817 0.99768 0.0
H36 H 1.00472 0.52723 0.07809 0.0
C37 C 0.96954 0.47377 0.07794 0.0
C38 C 0.96145 0.51276 0.97167 0.0
C39 C 0.06912 0.49784 0.05617 0.0
C40 C 0.06147 0.53847 0.9506 0.0
H41 H 0.91055 0.49086 0.01431 0.0
H42 H 0.91455 0.46947 0.07251 0.0
H43 H 0.98949 0.45263 0.13024 0.0
H44 H 0.04341 0.46519 0.1177 0.0
H45 H 0.12182 0.52437 0.0147 0.0
H46 H 0.11713 0.54476 0.95663 0.0
H47 H 0.04087 0.55803 0.89747 0.0
H48 H 0.98606 0.54317 0.9088 0.0
H49 H 0.09861 0.60723 0.03094 0.0
H50 H 0.03605 0.56588 0.11246 0.0
H51 H 0.99729 0.44246 0.91867 0.0
H52 H 0.94179 0.39923 1.00527 0.0
C53 C 0.56477 0.01698 0.56543 0.0
C54 C 0.57055 0.00538 0.59332 0.0
C55 C 0.54428 0.98198 0.60443 0.0
C56 C 0.52405 0.98061 0.58282 0.0
N57 N 0.53587 1.00148 0.55826 0.0
Co58 Co 0.51425 0.00799 0.52218 0.0
N59 N 0.47546 0.97526 0.54036 0.0
C60 C 0.47029 0.95955 0.56901 0.0
C61 C 0.44147 0.9375 0.57383 0.0
C62 C 0.42761 0.93879 0.54618 0.0
C63 C 0.4489 0.96166 0.52612 0.0
N64 N 0.49262 0.01363 0.48541 0.0
C65 C 0.46466 0.9956 0.47597 0.0
C66 C 0.45867 0.00564 0.447 0.0
C67 C 0.48414 0.03066 0.43718 0.0
C68 C 0.50406 0.0343 0.46066 0.0
N69 N 0.55296 0.04128 0.50445 0.0
C70 C 0.55752 0.05903 0.47781 0.0
C71 C 0.58625 0.08124 0.47309 0.0
C72 C 0.60083 0.07785 0.49866 0.0
C73 C 0.58002 0.05368 0.51754 0.0
N74 N 0.51806 0.9809 0.4942 0.0
C75 C 0.51812 0.94067 0.45234 0.0
C76 C 0.52708 0.96854 0.4405 0.0
C77 C 0.52716 0.98812 0.4616 0.0
C78 C 0.50996 0.93374 0.48599 0.0
C79 C 0.50993 0.95386 0.5062 0.0
N80 N 0.51038 0.03527 0.55019 0.0
C81 C 0.51093 0.07942 0.5556 0.0
C82 C 0.50947 0.07623 0.59018 0.0
C83 C 0.50774 0.05167 0.60423 0.0
C84 C 0.50786 0.0316 0.5841 0.0
C85 C 0.51159 0.05912 0.53637 0.0
H86 H 0.50613 0.01337 0.59673 0.0
H87 H 0.51352 0.06356 0.51032 0.0
H88 H 0.53425 0.00894 0.45085 0.0
H89 H 0.50268 0.94692 0.53139 0.0
C90 C 0.49359 0.9624 0.58727 0.0
C91 C 0.58681 0.04409 0.54844 0.0
C92 C 0.44399 0.96775 0.49228 0.0
C93 C 0.53423 0.05491 0.45842 0.0
H94 H 0.59136 0.01362 0.60525 0.0
H95 H 0.54021 0.96847 0.62658 0.0
H96 H 0.43213 0.9211 0.59381 0.0
H97 H 0.40486 0.92366 0.54065 0.0
H98 H 0.43835 0.99526 0.43372 0.0
H99 H 0.48809 0.04375 0.41469 0.0
H100 H 0.59538 0.0983 0.45384 0.0
H101 H 0.624 0.09192 0.50336 0.0
H102 H 0.53412 0.97538 0.41488 0.0
H103 H 0.50269 0.9125 0.49655 0.0
H104 H 0.51244 0.09801 0.54328 0.0
H105 H 0.50606 0.04775 0.63082 0.0
C106 C 0.56057 0.55247 0.97068 0.0
C107 C 0.56515 0.56924 0.94195 0.0
C108 C 0.53848 0.56489 0.93398 0.0
C109 C 0.51922 0.54567 0.95806 0.0
N110 N 0.53204 0.53801 0.98144 0.0
Co111 Co 0.51165 0.50808 0.01861 0.0
N112 N 0.47207 0.4995 1.00499 0.0
C113 C 0.46633 0.51244 0.97968 0.0
C114 C 0.43727 0.50369 0.97801 0.0
C115 C 0.42371 0.48452 1.00439 0.0
C116 C 0.44542 0.48274 0.02061 0.0
N117 N 0.49123 0.47717 0.05478 0.0
C118 C 0.4625 0.46155 0.06471 0.0
C119 C 0.45767 0.44288 0.09163 0.0
C120 C 0.48441 0.44727 0.09934 0.0
C121 C 0.50395 0.46824 0.07679 0.0
N122 N 0.55129 0.51752 0.03312 0.0
C123 C 0.5572 0.50661 0.06036 0.0
C124 C 0.58654 0.51684 0.06347 0.0
C125 C 0.60011 0.53503 0.0363 0.0
C126 C 0.57811 0.53469 0.01809 0.0
N127 N 0.51394 0.53734 0.04866 0.0
C128 C 0.51239 0.57594 0.09192 0.0
C129 C 0.51398 0.5527 0.10412 0.0
C130 C 0.51525 0.53423 0.08238 0.0
C131 C 0.51235 0.5799 0.05753 0.0
C132 C 0.51277 0.5604 0.0366 0.0
N133 N 0.50932 0.47887 0.98866 0.0
C134 C 0.5215 0.4436 0.97642 0.0
C135 C 0.50991 0.44009 0.94474 0.0
C136 C 0.49736 0.45605 0.93592 0.0
C137 C 0.49736 0.47513 0.95793 0.0
C138 C 0.52087 0.46268 0.9977 0.0
H139 H 0.4879 0.48694 0.94936 0.0
H140 H 0.53015 0.46416 0.02137 0.0
H141 H 0.517 0.51738 0.09363 0.0
H142 H 0.51168 0.56424 0.01072 0.0
C143 C 0.48888 0.53349 0.95869 0.0
C144 C 0.58349 0.54953 0.98571 0.0
C145 C 0.43989 0.46589 0.05159 0.0
C146 C 0.53452 0.48332 0.07911 0.0
H147 H 0.58545 0.58258 0.92765 0.0
H148 H 0.53355 0.5739 0.91256 0.0
H149 H 0.4273 0.51101 0.9603 0.0
H150 H 0.40061 0.47362 0.01143 0.0
H151 H 0.43724 0.42861 0.10535 0.0
H152 H 0.48927 0.43765 0.1202 0.0
H153 H 0.59666 0.51052 0.08218 0.0
H154 H 0.62336 0.54638 0.0299 0.0
H155 H 0.51448 0.54886 0.13052 0.0
H156 H 0.51109 0.59753 0.04678 0.0
H157 H 0.53094 0.43148 0.98508 0.0
H158 H 0.48817 0.45444 0.91176 0.0
C159 C 0.95094 0.46055 0.51752 0.0
C160 C 0.9254 0.44014 0.5027 0.0
C161 C 0.9272 0.44995 0.47067 0.0
C162 C 0.95373 0.47561 0.46757 0.0
N163 N 0.96925 0.48265 0.49555 0.0
Co164 Co 1.00888 0.51849 0.50141 0.0
N165 N 1.0095 0.53494 0.45577 0.0
C166 C 0.98772 0.5228 0.4338 0.0
C167 C 0.99327 0.53936 0.40521 0.0
C168 C 0.02047 0.56335 0.40881 0.0
C169 C 0.03035 0.55986 0.43929 0.0
N170 N 0.04885 0.55411 0.50693 0.0
C171 C 0.06726 0.5761 0.48476 0.0
C172 C 0.09444 0.59434 0.49832 0.0
C173 C 0.09308 0.58395 0.52992 0.0
C174 C 0.06546 0.55976 0.53395 0.0
N175 N 1.0077 0.5023 0.5475 0.0
C176 C 0.02887 0.51497 0.57005 0.0
C177 C 0.0214 0.50046 0.60038 0.0
C178 C 0.99353 0.47729 0.59733 0.0
C179 C 0.98557 0.47882 0.56506 0.0
N180 N 0.02848 0.49963 0.48356 0.0
C181 C 0.06024 0.47792 0.45577 0.0
C182 C 0.06513 0.48704 0.48798 0.0
C183 C 0.04926 0.49787 0.50122 0.0
C184 C 0.0385 0.47884 0.4381 0.0
C185 C 0.02273 0.48929 0.45251 0.0
N186 N 0.98926 0.53711 0.5193 0.0
C187 C 0.98013 0.55796 0.56529 0.0
C188 C 0.9534 0.55174 0.55216 0.0
C189 C 0.94667 0.54092 0.52069 0.0
C190 C 0.96465 0.5337 0.50493 0.0
C191 C 0.99786 0.55096 0.54824 0.0
H192 H 0.95743 0.52425 0.48181 0.0
H193 H 0.01775 0.55577 0.55961 0.0
H194 H 0.05463 0.50513 0.52557 0.0
H195 H 1.00628 0.4891 0.43779 0.0
C196 C 0.96299 0.49512 0.44015 0.0
C197 C 0.95628 0.45821 0.55276 0.0
C198 C 0.06032 0.58004 0.45044 0.0
C199 C 0.05504 0.54118 0.56223 0.0
H200 H 0.90704 0.4205 0.51408 0.0
H201 H 0.91058 0.4401 0.45222 0.0
H202 H 0.97943 0.53434 0.384 0.0
H203 H 0.03197 0.58112 0.39063 0.0
H204 H 0.11371 0.61287 0.48657 0.0
H205 H 0.11052 0.59253 0.54756 0.0
H206 H 0.03435 0.50647 0.6224 0.0
H207 H 0.98036 0.46152 0.617 0.0
H208 H 0.0818 0.48667 0.50258 0.0
H209 H 0.03363 0.47146 0.41322 0.0
H210 H 0.98671 0.56678 0.58935 0.0
H211 H 0.92694 0.53691 0.50867 0.0
C212 C 0.47568 1.00281 0.07427 0.0
C213 C 0.47411 0.01247 0.10473 0.0
C214 C 0.49753 0.04011 0.10554 0.0
C215 C 0.51215 0.04577 0.0757 0.0
N216 N 0.49936 0.02354 0.05565 0.0
Co217 Co 0.51489 0.02256 0.01081 0.0
N218 N 0.54878 0.06368 0.01146 0.0
C219 C 0.55474 0.08153 0.03617 0.0
C220 C 0.57846 0.10882 0.02942 0.0
C221 C 0.58796 0.10866 0.99824 0.0
C222 C 0.56935 0.08118 0.98757 0.0
N223 N 0.53099 0.02137 0.96642 0.0
C224 C 0.55362 0.04256 0.94689 0.0
C225 C 0.55613 0.03219 0.91733 0.0
C226 C 0.5345 1.00373 0.9181 0.0
C227 C 0.51987 0.9982 0.94789 0.0
N228 N 0.48035 0.98179 0.00955 0.0
C229 C 0.47413 0.96418 0.98455 0.0
C230 C 0.44913 0.93749 0.99025 0.0
C231 C 0.43871 0.93801 0.02077 0.0
C232 C 0.45809 0.96505 0.03211 0.0
N233 N 0.49125 0.03616 0.9891 0.0
C234 C 0.46083 0.0583 0.95667 0.0
C235 C 0.46334 0.03701 0.94283 0.0
C236 C 0.47828 0.02608 0.95952 0.0
C237 C 0.47307 0.06777 0.98736 0.0
C238 C 0.48817 0.0566 1.00295 0.0
N239 N 0.53833 0.00869 0.03302 0.0
C240 C 0.5444 0.96909 0.0468 0.0
C241 C 0.559 0.98188 0.07551 0.0
C242 C 0.56597 0.00966 0.0805 0.0
C243 C 0.5558 0.02271 0.05889 0.0
C244 C 0.53461 0.98295 0.02584 0.0
H245 H 0.56139 0.04362 0.0645 0.0
H246 H 0.52295 0.97179 1.00483 0.0
H247 H 0.47938 0.00978 0.94784 0.0
H248 H 0.49761 0.06523 0.02591 0.0
C249 C 0.53736 0.07202 0.06529 0.0
C250 C 0.45446 0.97354 0.06464 0.0
C251 C 0.57214 0.07299 0.9544 0.0
C252 C 0.49337 0.97271 0.95715 0.0
H253 H 0.45781 1.00067 0.12446 0.0
H254 H 0.50324 0.05438 0.12553 0.0
H255 H 0.58754 0.12682 0.04514 0.0
H256 H 0.60638 0.12683 0.98475 0.0
H257 H 0.57132 0.04409 0.89673 0.0
H258 H 0.52915 0.98913 0.89854 0.0
H259 H 0.4399 0.91959 0.97437 0.0
H260 H 0.41924 0.92036 0.03346 0.0
H261 H 0.4539 0.02889 0.91917 0.0
H262 H 0.47189 0.08448 0.99883 0.0
H263 H 0.53897 0.94778 0.04146 0.0
H264 H 0.57833 0.02095 0.10169 0.0
C265 C 0.54609 0.58422 0.51744 0.0
C266 C 0.54422 0.60401 0.53542 0.0
C267 C 0.52516 0.58892 0.56145 0.0
C268 C 0.51647 0.56092 0.55784 0.0
N269 N 0.52931 0.55725 0.53148 0.0
Co270 Co 0.52134 0.51992 0.5155 0.0
N271 N 0.4903 0.49736 0.55098 0.0
C272 C 0.48105 0.50783 0.57422 0.0
C273 C 0.46026 0.48713 0.59609 0.0
C274 C 0.45636 0.46195 0.58663 0.0
C275 C 0.47515 0.46885 0.5595 0.0
N276 N 0.51339 0.48264 0.49941 0.0
C277 C 0.49585 0.4555 0.51271 0.0
C278 C 0.49783 0.43581 0.49463 0.0
C279 C 0.51758 0.45108 0.46924 0.0
C280 C 0.52657 0.47909 0.47328 0.0
N281 N 0.55239 0.54251 0.48002 0.0
C282 C 0.56204 0.53215 0.45711 0.0
C283 C 0.58253 0.55284 0.43498 0.0
C284 C 0.58572 0.57786 0.44385 0.0
C285 C 0.56684 0.57088 0.47092 0.0
N286 N 0.55164 0.5213 0.54614 0.0
C287 C 0.5912 0.51861 0.59117 0.0
C288 C 0.58995 0.51155 0.55815 0.0
C289 C 0.57056 0.51333 0.53628 0.0
C290 C 0.57267 0.52777 0.60085 0.0
C291 C 0.5532 0.52875 0.57835 0.0
N292 N 0.49098 0.51839 0.485 0.0
C293 C 0.46878 0.51047 0.43089 0.0
C294 C 0.44971 0.51887 0.44095 0.0
C295 C 0.45155 0.52664 0.47374 0.0
C296 C 0.4718 0.52595 0.49514 0.0
C297 C 0.48917 0.51065 0.45291 0.0
H298 H 0.47167 0.53184 0.51981 0.0
H299 H 0.50353 0.50475 0.44325 0.0
H300 H 0.57106 0.50782 0.51153 0.0
H301 H 0.53925 0.53517 0.58782 0.0
C302 C 0.49405 0.53735 0.57655 0.0
C303 C 0.56209 0.59158 0.48585 0.0
C304 C 0.47883 0.44778 0.54367 0.0
C305 C 0.54914 0.50268 0.4548 0.0
H306 H 0.55464 0.6268 0.52963 0.0
H307 H 0.51744 0.59717 0.57986 0.0
H308 H 0.44995 0.49011 0.61712 0.0
H309 H 0.44193 0.44098 0.59883 0.0
H310 H 0.48696 0.4129 0.49985 0.0
H311 H 0.52537 0.44288 0.45084 0.0
H312 H 0.5929 0.54989 0.41398 0.0
H313 H 0.59957 0.59874 0.4312 0.0
H314 H 0.60409 0.5048 0.54899 0.0
H315 H 0.57251 0.5334 0.62607 0.0
H316 H 0.46854 0.50444 0.40577 0.0
H317 H 0.43712 0.53297 0.48309 0.0
Cu318 Cu 0.24641 0.47561 0.24443 0.0
N319 N 0.25183 0.45159 0.21842 0.0
N320 N 0.27313 0.436 0.18542 0.0
C321 C 0.27743 0.45645 0.20596 0.0
C322 C 0.24365 0.41778 0.18481 0.0
C323 C 0.23062 0.42757 0.20492 0.0
O324 O 0.28351 0.49865 0.26911 0.0
C325 C 0.2101 0.49648 0.21452 0.0
O326 O 0.19826 0.49334 0.24393 0.0
H327 H 0.29872 0.47485 0.21153 0.0
H328 H 0.20727 0.41838 0.20858 0.0
N329 N 0.2168 0.45311 0.27664 0.0
N330 N 0.18499 0.44085 0.31907 0.0
C331 C 0.20583 0.46252 0.29905 0.0
C332 C 0.20293 0.42458 0.28341 0.0
C333 C 0.18323 0.41694 0.30953 0.0
C334 C 0.29223 0.48405 0.28529 0.0
O335 O 0.27648 0.45598 0.28383 0.0
H336 H 0.21324 0.48487 0.30095 0.0
H337 H 0.20694 0.41028 0.27045 0.0
O338 O 0.23203 0.49343 0.21154 0.0
H339 H 0.23219 0.39931 0.16987 0.0
H340 H 0.16839 0.39545 0.32025 0.0
Cu341 Cu 0.77761 0.24297 0.7454 0.0
N342 N 0.77219 0.21621 0.71488 0.0
N343 N 0.75172 0.18147 0.67892 0.0
C344 C 0.74715 0.19689 0.70036 0.0
C345 C 0.78077 0.19168 0.68006 0.0
C346 C 0.79324 0.21297 0.70215 0.0
O347 O 0.7403 0.22616 0.77263 0.0
C348 C 0.82091 0.29218 0.70726 0.0
O349 O 0.83494 0.27919 0.71405 0.0
H350 H 0.72606 0.19413 0.70566 0.0
H351 H 0.81617 0.22531 0.70839 0.0
N352 N 0.80603 0.24691 0.775 0.0
N353 N 0.8396 0.2644 0.81415 0.0
C354 C 0.82198 0.26889 0.79457 0.0
C355 C 0.81387 0.22793 0.78239 0.0
C356 C 0.83455 0.23864 0.80654 0.0
C357 C 0.73114 0.20186 0.78824 0.0
O358 O 0.74607 0.18965 0.78386 0.0
H359 H 0.8201 0.28743 0.79498 0.0
H360 H 0.80487 0.2075 0.77136 0.0
O361 O 0.79464 0.2807 0.7195 0.0
H362 H 0.79245 0.18471 0.66554 0.0
H363 H 0.84505 0.22827 0.8176 0.0
Cu364 Cu 0.54747 0.77325 0.27471 0.0
N365 N 0.56831 0.80411 0.2436 0.0
N366 N 0.57905 0.84305 0.21222 0.0
C367 C 0.56048 0.82293 0.23523 0.0
C368 C 0.59947 0.83677 0.20574 0.0
C369 C 0.59295 0.81284 0.22539 0.0
O370 O 0.52543 0.78548 0.30207 0.0
C371 C 0.54078 0.73121 0.23183 0.0
O372 O 0.56943 0.74905 0.23034 0.0
H373 H 0.54131 0.82173 0.24565 0.0
H374 H 0.60562 0.80291 0.22656 0.0
N375 N 0.57363 0.76942 0.30135 0.0
N376 N 0.59044 0.75062 0.3383 0.0
C377 C 0.5667 0.74687 0.32228 0.0
C378 C 0.60272 0.78807 0.30402 0.0
C379 C 0.61315 0.77656 0.32681 0.0
C380 C 0.53663 0.79987 0.32791 0.0
O381 O 0.56079 0.80262 0.33929 0.0
H382 H 0.54454 0.72835 0.32605 0.0
H383 H 0.61542 0.80868 0.29054 0.0
O384 O 0.52547 0.7371 0.2503 0.0
H385 H 0.61809 0.84896 0.18862 0.0
H386 H 0.63577 0.78648 0.3341 0.0
Cu387 Cu 0.78302 0.54641 0.7969 0.0
N388 N 0.81208 0.56877 0.76445 0.0
N389 N 0.8396 0.57733 0.71898 0.0
C390 C 0.81776 0.55721 0.73938 0.0
C391 C 0.84817 0.60271 0.73173 0.0
C392 C 0.83092 0.59737 0.75974 0.0
O393 O 0.79814 0.52555 0.82344 0.0
C394 C 0.73838 0.5411 0.75607 0.0
O395 O 0.75418 0.56885 0.76007 0.0
H396 H 0.8062 0.53431 0.73644 0.0
H397 H 0.832 0.61326 0.77527 0.0
N398 N 0.77785 0.56909 0.82574 0.0
N399 N 0.75552 0.58324 0.85936 0.0
C400 C 0.75202 0.56288 0.83917 0.0
C401 C 0.79842 0.5941 0.83812 0.0
C402 C 0.78474 0.6029 0.85872 0.0
C403 C 0.82411 0.54118 0.83486 0.0
O404 O 0.83842 0.56897 0.82783 0.0
H405 H 0.73106 0.54392 0.83387 0.0
H406 H 0.82179 0.60513 0.83291 0.0
O407 O 0.74629 0.52533 0.77108 0.0
H408 H 0.86526 0.62356 0.72125 0.0
H409 H 0.79562 0.62204 0.87262 0.0
Cu410 Cu 0.27052 0.77695 0.27097 0.0
N411 N 0.26596 0.74784 0.24551 0.0
N412 N 0.2365 0.71311 0.2123 0.0
C413 C 0.24789 0.74049 0.21992 0.0
C414 C 0.24838 0.70281 0.23357 0.0
C415 C 0.26646 0.72429 0.25431 0.0
O416 O 0.23021 0.75741 0.29195 0.0
C417 C 0.31159 0.81934 0.22596 0.0
O418 O 0.3234 0.80443 0.23407 0.0
H419 H 0.23976 0.75358 0.21046 0.0
H420 H 0.27571 0.72155 0.27679 0.0
N421 N 0.29849 0.78748 0.30359 0.0
N422 N 0.32699 0.81331 0.34433 0.0
C423 C 0.30434 0.80767 0.32498 0.0
C424 C 0.31847 0.78031 0.30918 0.0
C425 C 0.33617 0.7963 0.3344 0.0
C426 C 0.22403 0.7488 0.32259 0.0
O427 O 0.24531 0.75892 0.34376 0.0
H428 H 0.29258 0.81854 0.32568 0.0
H429 H 0.32059 0.7652 0.29536 0.0
O430 O 0.28648 0.81124 0.23944 0.0
H431 H 0.24146 0.68045 0.23678 0.0
H432 H 0.35436 0.79555 0.34454 0.0
Cu433 Cu 0.47099 0.24871 0.74887 0.0
N434 N 0.45049 0.25566 0.71634 0.0
N435 N 0.43878 0.27756 0.67726 0.0
C436 C 0.46003 0.27983 0.69718 0.0
C437 C 0.41507 0.25094 0.68432 0.0
C438 C 0.42234 0.23757 0.70833 0.0
O439 O 0.49254 0.28346 0.77554 0.0
C440 C 0.47941 0.2136 0.70672 0.0
O441 O 0.45276 0.20633 0.69868 0.0
H442 H 0.48208 0.29862 0.69796 0.0
H443 H 0.40799 0.21611 0.7193 0.0
N444 N 0.44359 0.21939 0.77817 0.0
N445 N 0.42433 0.18238 0.81552 0.0
C446 C 0.44734 0.19997 0.79471 0.0
C447 C 0.41734 0.21401 0.78884 0.0
C448 C 0.40537 0.19116 0.81187 0.0
C449 C 0.47801 0.29418 0.78582 0.0
O450 O 0.4507 0.2826 0.77664 0.0
H451 H 0.46709 0.19949 0.79232 0.0
H452 H 0.40773 0.2261 0.78082 0.0
O453 O 0.4928 0.23296 0.72785 0.0
H454 H 0.39369 0.24187 0.67351 0.0
H455 H 0.38446 0.18189 0.82503 0.0
H456 H 0.09099 0.51748 0.11822 0.0
H457 H 0.09967 0.47331 0.03771 0.0
H458 H 0.13922 0.47187 0.06703 0.0
H459 H 0.1668 0.5589 0.14174 0.0
H460 H 0.15832 0.55338 0.18553 0.0
H461 H 0.13232 0.55282 0.15706 0.0
H462 H 0.09212 0.5023 0.18101 0.0
H463 H 0.11797 0.50275 0.20959 0.0
H464 H 0.09908 0.47378 0.18218 0.0
H465 H 0.17959 0.47671 0.10506 0.0
H466 H 0.21105 0.48024 0.15153 0.0
H467 H 0.17232 0.51604 0.21041 0.0
C468 C 0.10123 0.50751 0.10676 0.0
C469 C 0.09261 0.4962 0.07504 0.0
C470 C 0.10632 0.48287 0.0614 0.0
C471 C 0.12882 0.48187 0.07798 0.0
C472 C 0.13702 0.49352 0.10892 0.0
C473 C 0.1231 0.50545 0.12355 0.0
C474 C 0.13439 0.51431 0.15816 0.0
C475 C 0.14882 0.5468 0.16077 0.0
C476 C 0.1094 0.49727 0.18428 0.0
C477 C 0.15711 0.50595 0.16056 0.0
C478 C 0.15863 0.4944 0.13167 0.0
C479 C 0.17838 0.48557 0.12783 0.0
C480 C 0.19642 0.48789 0.15435 0.0
C481 C 0.19444 0.49851 0.18479 0.0
C482 C 0.17458 0.50789 0.18755 0.0
H483 H 0.60245 0.09169 0.58197 0.0
H484 H 0.63414 0.03866 0.55107 0.0
H485 H 0.6802 0.06844 0.58113 0.0
H486 H 0.67349 0.15982 0.57601 0.0
H487 H 0.66594 0.17322 0.6119 0.0
H488 H 0.63614 0.14831 0.58704 0.0
H489 H 0.61067 0.11426 0.63895 0.0
H490 H 0.64049 0.1389 0.66395 0.0
H491 H 0.63044 0.10211 0.6632 0.0
H492 H 0.72128 0.10238 0.61641 0.0
H493 H 0.75625 0.13958 0.65247 0.0
H494 H 0.69856 0.17182 0.65952 0.0
C495 C 0.61936 0.08671 0.58134 0.0
C496 C 0.61515 0.06312 0.56437 0.0
C497 C 0.63733 0.05681 0.564 0.0
C498 C 0.66338 0.07352 0.58101 0.0
C499 C 0.66679 0.09645 0.59802 0.0
C500 C 0.64552 0.10322 0.59813 0.0
C501 C 0.65455 0.1288 0.61866 0.0
C502 C 0.65773 0.15404 0.59711 0.0
C503 C 0.63274 0.12051 0.64793 0.0
C504 C 0.68415 0.13523 0.63031 0.0
C505 C 0.69072 0.11628 0.61811 0.0
C506 C 0.71655 0.11755 0.62582 0.0
C507 C 0.7364 0.13895 0.64624 0.0
C508 C 0.7305 0.15901 0.65873 0.0
C509 C 0.70381 0.15686 0.65067 0.0
H510 H 0.5473 0.63522 0.09322 0.0
H511 H 0.47275 0.56047 0.14346 0.0
H512 H 0.46908 0.5918 0.18243 0.0
H513 H 0.58029 0.67161 0.16685 0.0
H514 H 0.59374 0.70695 0.14827 0.0
H515 H 0.58882 0.67878 0.12308 0.0
H516 H 0.55503 0.68687 0.08492 0.0
H517 H 0.55973 0.71499 0.11013 0.0
H518 H 0.52329 0.68508 0.10253 0.0
H519 H 0.47399 0.63265 0.21679 0.0
H520 H 0.4902 0.67742 0.24554 0.0
H521 H 0.56326 0.7246 0.17487 0.0
C522 C 0.53001 0.6255 0.1122 0.0
C523 C 0.51013 0.5953 0.11502 0.0
C524 C 0.48821 0.58348 0.14072 0.0
C525 C 0.48589 0.60118 0.16293 0.0
C526 C 0.5059 0.63086 0.15961 0.0
C527 C 0.52777 0.64285 0.13504 0.0
C528 C 0.54774 0.67509 0.13802 0.0
C529 C 0.57953 0.6836 0.14445 0.0
C530 C 0.54636 0.69147 0.10706 0.0
C531 C 0.53387 0.67942 0.16806 0.0
C532 C 0.50945 0.65379 0.17996 0.0
C533 C 0.49313 0.65277 0.20757 0.0
C534 C 0.50236 0.67837 0.2237 0.0
C535 C 0.52799 0.70466 0.21261 0.0
C536 C 0.54357 0.70494 0.18413 0.0
H537 H 0.96336 0.59235 0.59697 0.0
H538 H 0.8936 0.51519 0.55364 0.0
H539 H 0.85696 0.5165 0.58814 0.0
H540 H 0.93338 0.57206 0.67854 0.0
H541 H 0.94441 0.60773 0.68927 0.0
H542 H 0.96531 0.60293 0.6585 0.0
H543 H 0.95841 0.6355 0.61639 0.0
H544 H 0.93743 0.64039 0.64706 0.0
H545 H 0.92181 0.62695 0.60765 0.0
H546 H 0.82804 0.52341 0.62967 0.0
H547 H 0.80853 0.53543 0.67693 0.0
H548 H 0.89632 0.60712 0.69543 0.0
C549 C 0.94038 0.57585 0.59452 0.0
C550 C 0.93148 0.55398 0.57199 0.0
C551 C 0.90109 0.53274 0.56981 0.0
C552 C 0.88001 0.53314 0.58952 0.0
C553 C 0.88954 0.55483 0.61151 0.0
C554 C 0.91894 0.5758 0.61423 0.0
C555 C 0.92326 0.59557 0.64146 0.0
C556 C 0.94274 0.59449 0.66854 0.0
C557 C 0.93598 0.62643 0.62728 0.0
C558 C 0.89173 0.582 0.65395 0.0
C559 C 0.87269 0.55866 0.63607 0.0
C560 C 0.84267 0.54176 0.64374 0.0
C561 C 0.83183 0.54863 0.67072 0.0
C562 C 0.85092 0.57215 0.6898 0.0
C563 C 0.8812 0.58931 0.68093 0.0
H564 H 0.44897 0.92907 0.10476 0.0
H565 H 0.40299 0.97107 0.07666 0.0
H566 H 0.36114 0.93689 0.11466 0.0
H567 H 0.38574 0.85669 0.11176 0.0
H568 H 0.39882 0.8462 0.14717 0.0
H569 H 0.4247 0.87397 0.11787 0.0
H570 H 0.44859 0.90879 0.16509 0.0
H571 H 0.42276 0.88113 0.19455 0.0
H572 H 0.42598 0.91537 0.19128 0.0
H573 H 0.32345 0.89664 0.15689 0.0
H574 H 0.29496 0.85555 0.19797 0.0
H575 H 0.36643 0.84084 0.19815 0.0
C576 C 0.43003 0.93097 0.10664 0.0
C577 C 0.42914 0.95267 0.0877 0.0
C578 C 0.40406 0.95459 0.09093 0.0
C579 C 0.38021 0.93524 0.11248 0.0
C580 C 0.38169 0.91403 0.13092 0.0
C581 C 0.4061 0.91191 0.12819 0.0
C582 C 0.40254 0.88746 0.15079 0.0
C583 C 0.40297 0.86474 0.13069 0.0
C584 C 0.42638 0.89887 0.17698 0.0
C585 C 0.37226 0.87589 0.16642 0.0
C586 C 0.36049 0.89144 0.15485 0.0
C587 C 0.33262 0.88442 0.16605 0.0
C588 C 0.31651 0.861 0.18946 0.0
C589 C 0.32817 0.84469 0.20153 0.0
C590 C 0.35655 0.85259 0.18963 0.0
H591 H 0.5001 0.43534 0.59848 0.0
H592 H 0.43201 0.39637 0.52631 0.0
H593 H 0.41434 0.3482 0.55278 0.0
H594 H 0.51691 0.38095 0.60363 0.0
H595 H 0.52263 0.38266 0.64752 0.0
H596 H 0.52937 0.41398 0.62347 0.0
H597 H 0.49326 0.41783 0.66179 0.0
H598 H 0.48656 0.38665 0.68615 0.0
H599 H 0.45619 0.38733 0.6685 0.0
H600 H 0.40555 0.30465 0.58571 0.0
H601 H 0.40423 0.26827 0.62436 0.0
H602 H 0.47726 0.33576 0.67663 0.0
C603 C 0.48134 0.41657 0.58856 0.0
C604 C 0.46732 0.41917 0.56045 0.0
C605 C 0.4429 0.39446 0.54784 0.0
C606 C 0.43283 0.36717 0.56266 0.0
C607 C 0.44737 0.36518 0.59013 0.0
C608 C 0.47095 0.38921 0.60315 0.0
C609 C 0.48268 0.38111 0.63282 0.0
C610 C 0.5148 0.39021 0.62646 0.0
C611 C 0.47947 0.39399 0.66417 0.0
C612 C 0.46213 0.34873 0.63434 0.0
C613 C 0.44199 0.34004 0.60946 0.0
C614 C 0.42101 0.3112 0.60551 0.0
C615 C 0.42035 0.29067 0.62778 0.0
C616 C 0.44045 0.29899 0.65389 0.0
C617 C 0.46171 0.32852 0.65693 0.0
H618 H 0.53527 0.90147 0.46314 0.0
H619 H 0.4979 0.93101 0.38905 0.0
H620 H 0.49424 0.89553 0.35122 0.0
H621 H 0.58043 0.89305 0.40559 0.0
H622 H 0.57626 0.86187 0.42756 0.0
H623 H 0.57357 0.88793 0.44971 0.0
H624 H 0.52216 0.84782 0.47315 0.0
H625 H 0.52462 0.82166 0.45085 0.0
H626 H 0.49378 0.82566 0.4451 0.0
H627 H 0.49498 0.85612 0.32056 0.0
H628 H 0.50525 0.8211 0.29845 0.0
H629 H 0.54523 0.81945 0.39074 0.0
C630 C 0.526 0.90028 0.4391 0.0
C631 C 0.51643 0.91899 0.42948 0.0
C632 C 0.50521 0.917 0.39731 0.0
C633 C 0.50294 0.89673 0.37559 0.0
C634 C 0.51253 0.87865 0.38582 0.0
C635 C 0.52425 0.88056 0.4167 0.0
C636 C 0.53494 0.86009 0.42078 0.0
C637 C 0.56828 0.87673 0.42622 0.0
C638 C 0.51786 0.83746 0.44916 0.0
C639 C 0.52753 0.84647 0.38745 0.0
C640 C 0.51415 0.85709 0.36778 0.0
C641 C 0.50544 0.8477 0.33587 0.0
C642 C 0.51114 0.82756 0.32354 0.0
C643 C 0.52588 0.8172 0.34276 0.0
C644 C 0.53377 0.82671 0.37533 0.0
H645 H 0.60126 0.51815 0.95515 0.0
H646 H 0.62903 0.60523 0.97592 0.0
H647 H 0.67626 0.62351 0.94526 0.0
H648 H 0.67226 0.52683 0.96359 0.0
H649 H 0.66721 0.50403 0.93048 0.0
H650 H 0.63579 0.49806 0.95389 0.0
H651 H 0.61239 0.50223 0.89981 0.0
H652 H 0.64377 0.50832 0.87617 0.0
H653 H 0.63278 0.53393 0.87252 0.0
H654 H 0.72007 0.63201 0.91236 0.0
H655 H 0.75789 0.63056 0.87984 0.0
H656 H 0.70178 0.53761 0.88088 0.0
C657 C 0.6174 0.54105 0.95313 0.0
C658 C 0.61179 0.56047 0.96753 0.0
C659 C 0.63316 0.59023 0.96475 0.0
C660 C 0.65991 0.60071 0.94745 0.0
C661 C 0.66481 0.58104 0.93325 0.0
C662 C 0.64419 0.55183 0.93593 0.0
C663 C 0.65496 0.5353 0.91848 0.0
C664 C 0.65772 0.51485 0.94308 0.0
C665 C 0.63477 0.51899 0.89006 0.0
C666 C 0.68488 0.55977 0.90553 0.0
C667 C 0.69011 0.58595 0.91435 0.0
C668 C 0.71627 0.61163 0.9054 0.0
C669 C 0.73772 0.61056 0.88707 0.0
C670 C 0.73299 0.58398 0.87781 0.0
C671 C 0.70605 0.5583 0.88717 0.0
H672 H 0.09697 0.63958 0.45566 0.0
H673 H 0.0767 0.57202 0.38985 0.0
H674 H 0.11207 0.60831 0.34795 0.0
H675 H 0.11126 0.69589 0.39531 0.0
H676 H 0.14265 0.72386 0.41574 0.0
H677 H 0.11384 0.69307 0.43955 0.0
H678 H 0.15181 0.68258 0.46386 0.0
H679 H 0.18077 0.71361 0.44058 0.0
H680 H 0.17572 0.67891 0.43625 0.0
H681 H 0.14891 0.65288 0.31182 0.0
H682 H 0.19073 0.69978 0.28941 0.0
H683 H 0.19295 0.73765 0.38155 0.0
C684 C 0.10019 0.63234 0.4326 0.0
C685 C 0.08357 0.6027 0.4261 0.0
C686 C 0.08863 0.59448 0.39537 0.0
C687 C 0.10872 0.615 0.37134 0.0
C688 C 0.12455 0.64395 0.37846 0.0
C689 C 0.12114 0.65253 0.40876 0.0
C690 C 0.1429 0.68464 0.41136 0.0
C691 C 0.12668 0.70028 0.41575 0.0
C692 C 0.16406 0.69026 0.43969 0.0
C693 C 0.15891 0.69282 0.37777 0.0
C694 C 0.14744 0.66914 0.35883 0.0
C695 C 0.15814 0.67147 0.32661 0.0
C696 C 0.18173 0.69834 0.31387 0.0
C697 C 0.19504 0.72259 0.33347 0.0
C698 C 0.18312 0.71965 0.36577 0.0
H699 H 0.47121 0.07884 0.89233 0.0
H700 H 0.42063 0.06941 0.98068 0.0
H701 H 0.40187 0.09673 0.95192 0.0
H702 H 0.49431 0.14967 0.87193 0.0
H703 H 0.4924 0.14645 0.82779 0.0
H704 H 0.49866 0.12297 0.85364 0.0
H705 H 0.4533 0.07858 0.82976 0.0
H706 H 0.44702 0.10197 0.80359 0.0
H707 H 0.41807 0.07513 0.83123 0.0
H708 H 0.39229 0.12858 0.91528 0.0
H709 H 0.39335 0.16344 0.87404 0.0
H710 H 0.45021 0.15191 0.8096 0.0
C711 C 0.45552 0.08182 0.90526 0.0
C712 C 0.44709 0.07184 0.93856 0.0
C713 C 0.42727 0.07691 0.95511 0.0
C714 C 0.41642 0.09225 0.93894 0.0
C715 C 0.42565 0.10233 0.90628 0.0
C716 C 0.44469 0.09726 0.88958 0.0
C717 C 0.45317 0.11246 0.8556 0.0
C718 C 0.48661 0.13417 0.85206 0.0
C719 C 0.44222 0.09073 0.82844 0.0
C720 C 0.4365 0.12744 0.85609 0.0
C721 C 0.42046 0.12104 0.88534 0.0
C722 C 0.40443 0.13344 0.89208 0.0
C723 C 0.40508 0.15315 0.86842 0.0
C724 C 0.42184 0.16044 0.83852 0.0
C725 C 0.43736 0.14699 0.83226 0.0
H726 H 0.41297 0.47873 0.39669 0.0
H727 H 0.43787 0.56143 0.43217 0.0
H728 H 0.40261 0.56332 0.39459 0.0
H729 H 0.4021 0.49297 0.3109 0.0
H730 H 0.37066 0.45719 0.30664 0.0
H731 H 0.39885 0.46314 0.33514 0.0
H732 H 0.35971 0.43864 0.38285 0.0
H733 H 0.33141 0.43254 0.35448 0.0
H734 H 0.33609 0.45167 0.39117 0.0
H735 H 0.3633 0.5557 0.35187 0.0
H736 H 0.32238 0.5376 0.31249 0.0
H737 H 0.32237 0.45941 0.30689 0.0
C738 C 0.41125 0.49739 0.39634 0.0
C739 C 0.42845 0.51998 0.41755 0.0
C740 C 0.42495 0.54373 0.4165 0.0
C741 C 0.40501 0.54507 0.395 0.0
C742 C 0.3883 0.52239 0.37457 0.0
C743 C 0.39113 0.49889 0.37531 0.0
C744 C 0.36972 0.47671 0.35208 0.0
C745 C 0.38633 0.47225 0.32456 0.0
C746 C 0.34795 0.44821 0.3713 0.0
C747 C 0.35431 0.49122 0.33826 0.0
C748 C 0.36548 0.51773 0.35114 0.0
C749 C 0.35447 0.53491 0.34175 0.0
C750 C 0.33125 0.52455 0.31919 0.0
C751 C 0.3189 0.49704 0.30644 0.0
C752 C 0.33106 0.4805 0.31609 0.0
H753 H 0.94422 0.41209 0.8981 0.0
H754 H 0.95038 0.36267 0.98048 0.0
H755 H 0.91934 0.31804 0.95132 0.0
H756 H 0.86916 0.36172 0.88211 0.0
H757 H 0.87358 0.36805 0.83783 0.0
H758 H 0.89769 0.39622 0.86423 0.0
H759 H 0.94304 0.40107 0.8349 0.0
H760 H 0.91907 0.373 0.80827 0.0
H761 H 0.9454 0.36985 0.83246 0.0
H762 H 0.88699 0.27889 0.91366 0.0
H763 H 0.85433 0.24768 0.87091 0.0
H764 H 0.86859 0.32262 0.81351 0.0
C765 C 0.9394 0.3919 0.90973 0.0
C766 C 0.94982 0.39075 0.9414 0.0
C767 C 0.94253 0.36392 0.95623 0.0
C768 C 0.92503 0.33853 0.93983 0.0
C769 C 0.91489 0.34038 0.90874 0.0
C770 C 0.92173 0.36635 0.89386 0.0
C771 C 0.907 0.36231 0.86095 0.0
C772 C 0.88559 0.37269 0.86133 0.0
C773 C 0.93001 0.37745 0.83246 0.0
C774 C 0.89071 0.32998 0.85969 0.0
C775 C 0.89573 0.31776 0.88737 0.0
C776 C 0.88299 0.28822 0.89181 0.0
C777 C 0.86459 0.27068 0.86732 0.0
C778 C 0.85893 0.2827 0.83886 0.0
C779 C 0.87225 0.31278 0.83513 0.0
H780 H 0.95567 0.55678 0.94541 0.0
H781 H 0.91109 0.46414 0.95266 0.0
H782 H 0.87033 0.46024 0.91968 0.0
H783 H 0.89084 0.56057 0.95075 0.0
H784 H 0.90498 0.59083 0.92126 0.0
H785 H 0.92996 0.58592 0.9459 0.0
H786 H 0.95731 0.587 0.8927 0.0
H787 H 0.93246 0.592 0.86791 0.0
H788 H 0.93687 0.56247 0.86111 0.0
H789 H 0.83359 0.4672 0.88456 0.0
H790 H 0.80661 0.48433 0.8511 0.0
H791 H 0.87639 0.57225 0.86632 0.0
C792 C 0.93735 0.53568 0.93996 0.0
C793 C 0.93671 0.51073 0.95157 0.0
C794 C 0.91214 0.48354 0.94406 0.0
C795 C 0.88886 0.48115 0.92529 0.0
C796 C 0.89025 0.50618 0.91397 0.0
C797 C 0.91402 0.53294 0.92105 0.0
C798 C 0.91065 0.5566 0.90566 0.0
C799 C 0.90901 0.57454 0.9325 0.0
C800 C 0.93582 0.57564 0.88034 0.0
C801 C 0.88138 0.53914 0.88881 0.0
C802 C 0.86973 0.51006 0.89387 0.0
C803 C 0.84268 0.48998 0.88052 0.0
C804 C 0.82739 0.49988 0.86152 0.0
C805 C 0.83913 0.52967 0.85576 0.0
C806 C 0.86654 0.5493 0.86991 0.0
H807 H 0.45285 0.9383 0.44684 0.0
H808 H 0.38475 0.94493 0.49412 0.0
H809 H 0.34691 0.90477 0.46226 0.0
H810 H 0.41976 0.92155 0.3654 0.0
H811 H 0.43308 0.89837 0.35843 0.0
H812 H 0.45273 0.92811 0.38468 0.0
H813 H 0.44812 0.89089 0.43172 0.0
H814 H 0.4277 0.86221 0.40435 0.0
H815 H 0.41201 0.86105 0.44417 0.0
H816 H 0.31701 0.86452 0.42495 0.0
H817 H 0.29667 0.82715 0.3841 0.0
H818 H 0.38436 0.84643 0.36119 0.0
C819 C 0.42991 0.93119 0.45031 0.0
C820 C 0.42137 0.94429 0.47283 0.0
C821 C 0.39139 0.93482 0.47696 0.0
C822 C 0.3699 0.91212 0.45905 0.0
C823 C 0.37894 0.89934 0.43717 0.0
C824 C 0.40823 0.90859 0.43263 0.0
C825 C 0.41214 0.89149 0.40729 0.0
C826 C 0.43052 0.91101 0.37716 0.0
C827 C 0.4258 0.87545 0.4228 0.0
C828 C 0.38042 0.87092 0.39847 0.0
C829 C 0.36167 0.87595 0.41588 0.0
C830 C 0.33146 0.86036 0.41122 0.0
C831 C 0.32014 0.83929 0.38788 0.0
C832 C 0.33893 0.8339 0.36952 0.0
C833 C 0.36944 0.84978 0.37522 0.0
H834 H 0.46844 0.40444 0.89997 0.0
H835 H 0.55483 0.43063 0.93579 0.0
H836 H 0.55712 0.39754 0.8988 0.0
H837 H 0.44245 0.33023 0.89321 0.0
H838 H 0.42264 0.32657 0.856 0.0
H839 H 0.4282 0.35282 0.88474 0.0
H840 H 0.45252 0.39286 0.83791 0.0
H841 H 0.44703 0.3667 0.80902 0.0
H842 H 0.48338 0.39763 0.81432 0.0
H843 H 0.54942 0.35997 0.85724 0.0
H844 H 0.5319 0.32198 0.81681 0.0
H845 H 0.45107 0.32101 0.80819 0.0
C846 C 0.48802 0.40353 0.89987 0.0
C847 C 0.51138 0.42031 0.92127 0.0
C848 C 0.53634 0.41785 0.92029 0.0
C849 C 0.53796 0.39916 0.89907 0.0
C850 C 0.51449 0.38281 0.87859 0.0
C851 C 0.48999 0.38487 0.87885 0.0
C852 C 0.46746 0.36461 0.85491 0.0
C853 C 0.43848 0.34223 0.87332 0.0
C854 C 0.4623 0.38146 0.82741 0.0
C855 C 0.48296 0.35071 0.84129 0.0
C856 C 0.51014 0.3615 0.85506 0.0
C857 C 0.52816 0.3515 0.84631 0.0
C858 C 0.51806 0.32989 0.82321 0.0
C859 C 0.49009 0.31828 0.80902 0.0
C860 C 0.4726 0.32923 0.81831 0.0
H861 H 0.08925 0.49585 0.39567 0.0
H862 H 0.07203 0.43853 0.48151 0.0
H863 H 0.10241 0.42269 0.45588 0.0
H864 H 0.08812 0.45039 0.33414 0.0
H865 H 0.11779 0.47964 0.30939 0.0
H866 H 0.09422 0.48582 0.33431 0.0
H867 H 0.13981 0.52595 0.36316 0.0
H868 H 0.1635 0.51981 0.33841 0.0
H869 H 0.1648 0.51792 0.38287 0.0
H870 H 0.13352 0.41215 0.4198 0.0
H871 H 0.16521 0.40973 0.37744 0.0
H872 H 0.16382 0.47565 0.31667 0.0
C873 C 0.09172 0.4798 0.40891 0.0
C874 C 0.07817 0.4682 0.44041 0.0
C875 C 0.0823 0.44765 0.45734 0.0
C876 C 0.09942 0.43851 0.44295 0.0
C877 C 0.11253 0.45041 0.41183 0.0
C878 C 0.10907 0.47078 0.39513 0.0
C879 C 0.12611 0.48079 0.36241 0.0
C880 C 0.10531 0.47373 0.33335 0.0
C881 C 0.14997 0.51303 0.36169 0.0
C882 C 0.13955 0.46273 0.36316 0.0
C883 C 0.1313 0.44518 0.39174 0.0
C884 C 0.14028 0.42593 0.39744 0.0
C885 C 0.15815 0.42462 0.37327 0.0
C886 C 0.16712 0.44267 0.34403 0.0
C887 C 0.15773 0.462 0.33909 0.0
H888 H 0.62163 0.07897 0.92436 0.0
H889 H 0.57055 0.11836 0.92637 0.0
H890 H 0.6051 0.15601 0.88466 0.0
H891 H 0.69315 0.14429 0.91489 0.0
H892 H 0.70758 0.12973 0.88735 0.0
H893 H 0.67895 0.10635 0.91738 0.0
H894 H 0.64643 0.07483 0.87074 0.0
H895 H 0.675 0.09808 0.84057 0.0
H896 H 0.63848 0.09123 0.83628 0.0
H897 H 0.64695 0.19041 0.84175 0.0
H898 H 0.69006 0.21629 0.80252 0.0
H899 H 0.71237 0.15318 0.8281 0.0
C900 C 0.61765 0.09544 0.91586 0.0
C901 C 0.5932 0.09557 0.9286 0.0
C902 C 0.58904 0.11775 0.91699 0.0
C903 C 0.6086 0.13924 0.89325 0.0
C904 C 0.63242 0.13844 0.88104 0.0
C905 C 0.63688 0.11696 0.89197 0.0
C906 C 0.6639 0.12063 0.87487 0.0
C907 C 0.68728 0.12555 0.90013 0.0
C908 C 0.65544 0.09465 0.8544 0.0
C909 C 0.67407 0.1475 0.85268 0.0
C910 C 0.65579 0.15764 0.85653 0.0
C911 C 0.66128 0.18247 0.83861 0.0
C912 C 0.68589 0.19713 0.81631 0.0
C913 C 0.70483 0.18697 0.81183 0.0
C914 C 0.6985 0.16173 0.83052 0.0
H915 H 0.53596 0.59971 0.43274 0.0
H916 H 0.60911 0.64485 0.4977 0.0
H917 H 0.6246 0.6909 0.46673 0.0
H918 H 0.57403 0.64139 0.35775 0.0
H919 H 0.54249 0.64074 0.34163 0.0
H920 H 0.53742 0.61165 0.36894 0.0
H921 H 0.5045 0.61922 0.40824 0.0
H922 H 0.50949 0.64837 0.38112 0.0
H923 H 0.51861 0.65413 0.42404 0.0
H924 H 0.63171 0.73169 0.42872 0.0
H925 H 0.63019 0.76463 0.38674 0.0
H926 H 0.55248 0.69254 0.34599 0.0
C927 C 0.55522 0.6194 0.44028 0.0
C928 C 0.5714 0.61913 0.4675 0.0
C929 C 0.59652 0.64498 0.47691 0.0
C930 C 0.6054 0.67107 0.45949 0.0
C931 C 0.5889 0.67074 0.43276 0.0
C932 C 0.56435 0.64558 0.42318 0.0
C933 C 0.55045 0.65108 0.39363 0.0
C934 C 0.55116 0.63528 0.36372 0.0
C935 C 0.51889 0.64271 0.40229 0.0
C936 C 0.57098 0.68331 0.38809 0.0
C937 C 0.59303 0.69421 0.41087 0.0
C938 C 0.61461 0.72339 0.41067 0.0
C939 C 0.61366 0.74192 0.38656 0.0
C940 C 0.59126 0.73128 0.3629 0.0
C941 C 0.5697 0.7015 0.36386 0.0
H942 H 0.47969 0.10443 0.58246 0.0
H943 H 0.54107 0.0985 0.64626 0.0
H944 H 0.54267 0.13479 0.68137 0.0
H945 H 0.51083 0.18105 0.58752 0.0
H946 H 0.47549 0.17738 0.58816 0.0
H947 H 0.48025 0.15193 0.56738 0.0
H948 H 0.43736 0.11013 0.60288 0.0
H949 H 0.43239 0.13543 0.62362 0.0
H950 H 0.43853 0.11076 0.64733 0.0
H951 H 0.53736 0.1729 0.71016 0.0
H952 H 0.5224 0.20492 0.73134 0.0
H953 H 0.46333 0.18437 0.64983 0.0
C954 C 0.49369 0.11093 0.60364 0.0
C955 C 0.51031 0.09844 0.61137 0.0
C956 C 0.52792 0.10741 0.63977 0.0
C957 C 0.52912 0.12823 0.65982 0.0
C958 C 0.51242 0.14003 0.65155 0.0
C959 C 0.49484 0.13145 0.62421 0.0
C960 C 0.47797 0.14638 0.62144 0.0
C961 C 0.48666 0.16531 0.58921 0.0
C962 C 0.44459 0.12436 0.62398 0.0
C963 C 0.48862 0.16458 0.65147 0.0
C964 C 0.50879 0.16099 0.66839 0.0
C965 C 0.52155 0.17576 0.69697 0.0
C966 C 0.51308 0.19412 0.70879 0.0
C967 C 0.49172 0.19739 0.69238 0.0
C968 C 0.47973 0.18249 0.66312 0.0
H969 H 0.42529 0.49776 0.08642 0.0
H970 H 0.39279 0.41078 0.06007 0.0
H971 H 0.34674 0.39336 0.09286 0.0
H972 H 0.39538 0.48027 0.17018 0.0
H973 H 0.3862 0.50724 0.16922 0.0
H974 H 0.41655 0.51262 0.14409 0.0
H975 H 0.39325 0.52008 0.09179 0.0
H976 H 0.36286 0.51482 0.11671 0.0
H977 H 0.35608 0.49288 0.08211 0.0
H978 H 0.30445 0.38576 0.12812 0.0
H979 H 0.26816 0.38822 0.16248 0.0
H980 H 0.32796 0.48056 0.16518 0.0
C981 C 0.40838 0.47506 0.08772 0.0
C982 C 0.41233 0.45542 0.07112 0.0
C983 C 0.38996 0.42594 0.07295 0.0
C984 C 0.36388 0.41595 0.09146 0.0
C985 C 0.36063 0.43582 0.1078 0.0
C986 C 0.38224 0.46477 0.10605 0.0
C987 C 0.37307 0.48167 0.12549 0.0
C988 C 0.39405 0.49631 0.15393 0.0
C989 C 0.3712 0.50366 0.10266 0.0
C990 C 0.34288 0.45771 0.13839 0.0
C991 C 0.33618 0.43145 0.12794 0.0
C992 C 0.30943 0.40622 0.13638 0.0
C993 C 0.28886 0.40786 0.15578 0.0
C994 C 0.29503 0.43457 0.16654 0.0
C995 C 0.32259 0.45975 0.15779 0.0
H996 H 0.95345 0.41218 0.5873 0.0
H997 H 0.90393 0.45237 0.56993 0.0
H998 H 0.8636 0.41501 0.60729 0.0
H999 H 0.89188 0.33887 0.59069 0.0
H1000 H 0.90664 0.32709 0.62306 0.0
H1001 H 0.93113 0.35691 0.59498 0.0
H1002 H 0.95555 0.38884 0.6445 0.0
H1003 H 0.93114 0.35909 0.67273 0.0
H1004 H 0.93299 0.39259 0.67411 0.0
H1005 H 0.82775 0.37155 0.64767 0.0
H1006 H 0.80146 0.32793 0.6858 0.0
H1007 H 0.87545 0.3175 0.67693 0.0
C1008 C 0.93416 0.41317 0.59151 0.0
C1009 C 0.93196 0.43537 0.57575 0.0
C1010 C 0.90616 0.43565 0.58172 0.0
C1011 C 0.88314 0.41448 0.60297 0.0
C1012 C 0.88604 0.39294 0.61832 0.0
C1013 C 0.91104 0.39226 0.6128 0.0
C1014 C 0.90899 0.36703 0.63223 0.0
C1015 C 0.9097 0.34625 0.60884 0.0
C1016 C 0.93363 0.37752 0.65739 0.0
C1017 C 0.879 0.35351 0.64949 0.0
C1018 C 0.86594 0.36862 0.64126 0.0
C1019 C 0.83796 0.3597 0.65423 0.0
C1020 C 0.8231 0.33483 0.67595 0.0
C1021 C 0.83615 0.31902 0.68472 0.0
C1022 C 0.86458 0.32886 0.6711 0.0
H1023 H 0.57927 0.94583 0.06785 0.0
H1024 H 0.54966 0.97995 0.14194 0.0
H1025 H 0.55429 0.94995 0.18532 0.0
H1026 H 0.54099 0.87437 0.10169 0.0
H1027 H 0.56961 0.86792 0.09224 0.0
H1028 H 0.56616 0.89365 0.06707 0.0
H1029 H 0.62033 0.93293 0.07784 0.0
H1030 H 0.62399 0.90728 0.10298 0.0
H1031 H 0.63227 0.94039 0.11978 0.0
H1032 H 0.55771 0.91341 0.21992 0.0
H1033 H 0.56259 0.8743 0.24413 0.0
H1034 H 0.59117 0.86436 0.14847 0.0
C1035 C 0.57407 0.94718 0.09325 0.0
C1036 C 0.56437 0.96547 0.10152 0.0
C1037 C 0.55771 0.96658 0.13506 0.0
C1038 C 0.56008 0.94948 0.15988 0.0
C1039 C 0.56937 0.93149 0.15087 0.0
C1040 C 0.57654 0.93038 0.11845 0.0
C1041 C 0.58514 0.90853 0.11543 0.0
C1042 C 0.56422 0.88471 0.09277 0.0
C1043 C 0.61735 0.92316 0.10329 0.0
C1044 C 0.58113 0.89718 0.15111 0.0
C1045 C 0.57197 0.91072 0.17109 0.0
C1046 C 0.56523 0.90289 0.20463 0.0
C1047 C 0.56789 0.88059 0.21811 0.0
C1048 C 0.57742 0.86654 0.19817 0.0
C1049 C 0.58436 0.87516 0.16431 0.0
H1050 H 0.62629 0.55605 0.63869 0.0
H1051 H 0.60159 0.47494 0.5985 0.0
H1052 H 0.63424 0.47014 0.63757 0.0
H1053 H 0.70232 0.58084 0.64923 0.0
H1054 H 0.70524 0.59809 0.68701 0.0
H1055 H 0.67898 0.5943 0.65687 0.0
H1056 H 0.6371 0.5682 0.70152 0.0
H1057 H 0.66325 0.57182 0.73177 0.0
H1058 H 0.6317 0.53683 0.72432 0.0
H1059 H 0.67074 0.47448 0.68249 0.0
H1060 H 0.70906 0.4894 0.72481 0.0
H1061 H 0.71057 0.56806 0.73406 0.0
C1062 C 0.62751 0.53713 0.63826 0.0
C1063 C 0.61113 0.51586 0.61527 0.0
C1064 C 0.61395 0.49171 0.61546 0.0
C1065 C 0.63238 0.48869 0.63781 0.0
C1066 C 0.64827 0.51008 0.66002 0.0
C1067 C 0.64611 0.53394 0.66018 0.0
C1068 C 0.66634 0.55447 0.68551 0.0
C1069 C 0.6896 0.58365 0.66864 0.0
C1070 C 0.64853 0.55803 0.71237 0.0
C1071 C 0.68029 0.53859 0.69953 0.0
C1072 C 0.66944 0.51285 0.68485 0.0
C1073 C 0.67931 0.49466 0.69403 0.0
C1074 C 0.70104 0.50321 0.71828 0.0
C1075 C 0.71305 0.52991 0.73299 0.0
C1076 C 0.70207 0.5475 0.72345 0.0
H1077 H 0.12856 0.60705 0.08003 0.0
H1078 H 0.06137 0.61868 0.12085 0.0
H1079 H 0.09701 0.65196 0.16038 0.0
H1080 H 0.16123 0.60699 0.15685 0.0
H1081 H 0.19813 0.62567 0.13946 0.0
H1082 H 0.16739 0.60369 0.11396 0.0
H1083 H 0.18519 0.64761 0.07244 0.0
H1084 H 0.21563 0.66957 0.09832 0.0
H1085 H 0.19041 0.68034 0.087 0.0
H1086 H 0.13947 0.68325 0.19563 0.0
H1087 H 0.18619 0.71063 0.22483 0.0
H1088 H 0.22571 0.67786 0.16239 0.0
C1089 C 0.12152 0.61702 0.09692 0.0
C1090 C 0.09231 0.61056 0.09724 0.0
C1091 C 0.08365 0.62338 0.12025 0.0
C1092 C 0.10374 0.64231 0.14269 0.0
C1093 C 0.13229 0.648 0.14191 0.0
C1094 C 0.14121 0.63575 0.11966 0.0
C1095 C 0.17291 0.64479 0.12468 0.0
C1096 C 0.17503 0.61872 0.13429 0.0
C1097 C 0.19217 0.66158 0.09377 0.0
C1098 C 0.18045 0.66402 0.15333 0.0
C1099 C 0.15669 0.66565 0.16272 0.0
C1100 C 0.1582 0.68218 0.18844 0.0
C1101 C 0.18475 0.69764 0.20482 0.0
C1102 C 0.20936 0.69632 0.19561 0.0
C1103 C 0.20709 0.67906 0.16979 0.0
loop_
_geom_bond_atom_site_label_1
_geom_bond_atom_site_label_2
_geom_bond_distance
_geom_bond_site_symmetry_2
_ccdc_geom_bond_type
C0 C1 1.441 1_556 S
C0 N4 1.376 1_556 S
C0 C38 1.389 . S
C1 C0 1.441 1_554 S
C1 C2 1.347 . S
C1 H41 0.947 1_554 S
C2 C1 1.347 . S
C2 C3 1.439 . S
C2 H42 0.950 . S
C3 C2 1.439 . S
C3 N4 1.374 . S
C3 C37 1.395 . S
N4 C0 1.376 1_554 S
N4 C3 1.374 . S
N4 Co5 2.008 1_655 S
Co5 N4 2.008 1_455 S
Co5 N6 1.995 . S
Co5 N11 2.008 1_554 S
Co5 N16 1.995 1_554 S
Co5 N21 2.282 . S
Co5 N27 2.282 1_454 S
N6 Co5 1.995 . S
N6 C7 1.376 1_455 S
N6 C10 1.383 . S
C7 N6 1.376 1_655 S
C7 C8 1.446 . S
C7 C37 1.391 . S
C8 C7 1.446 . S
C8 C9 1.339 1_655 S
C8 H43 0.949 . S
C9 C8 1.339 1_455 S
C9 C10 1.439 . S
C9 H44 0.950 . S
C10 N6 1.383 . S
C10 C9 1.439 . S
C10 C39 1.392 . S
N11 Co5 2.008 1_556 S
N11 C12 1.378 1_556 S
N11 C15 1.372 . S
C12 N11 1.378 1_554 S
C12 C13 1.443 . S
C12 C39 1.389 . S
C13 C12 1.443 . S
C13 C14 1.340 1_554 S
C13 H45 0.951 . S
C14 C13 1.340 1_556 S
C14 C15 1.439 . S
C14 H46 0.950 . S
C15 N11 1.372 . S
C15 C14 1.439 . S
C15 C40 1.395 . S
N16 Co5 1.995 1_556 S
N16 C17 1.376 . S
N16 C20 1.383 1_455 S
C17 N16 1.376 . S
C17 C18 1.446 . S
C17 C40 1.391 . S
C18 C17 1.446 . S
C18 C19 1.339 . S
C18 H47 0.949 . S
C19 C18 1.339 . S
C19 C20 1.439 1_455 S
C19 H48 0.939 1_455 S
C20 N16 1.383 1_655 S
C20 C19 1.439 1_655 S
C20 C38 1.392 . S
N21 Co5 2.282 . S
N21 C24 1.332 . S
N21 C26 1.332 . S
C22 C23 1.386 . S
C22 C25 1.388 . S
C23 C22 1.386 . S
C23 C24 1.382 . S
C23 H49 0.950 . S
C24 N21 1.332 . S
C24 C23 1.382 . S
C24 H35 0.952 . S
C25 C22 1.388 . S
C25 C26 1.382 . S
C25 H50 0.950 . S
C26 N21 1.332 . S
C26 C25 1.382 . S
C26 H36 0.948 . S
N27 Co5 2.282 1_656 S
N27 C31 1.332 . S
N27 C32 1.332 . S
C28 C29 1.388 . S
C28 C32 1.382 . S
C28 H51 0.950 . S
C29 C28 1.388 . S
C29 C30 1.386 . S
C30 C29 1.386 . S
C30 C31 1.382 . S
C30 H52 0.950 . S
C31 N27 1.332 . S
C31 C30 1.382 . S
C31 H33 0.952 1_556 S
C32 N27 1.332 . S
C32 C28 1.382 . S
C32 H34 0.948 1_655 S
H33 C31 0.952 1_554 S
H34 C32 0.948 1_455 S
H35 C24 0.952 . S
H36 C26 0.948 . S
C37 C3 1.395 . S
C37 C7 1.391 . S
C38 C0 1.389 . S
C38 C20 1.392 . S
C39 C10 1.392 . S
C39 C12 1.389 . S
C40 C15 1.395 . S
C40 C17 1.391 . S
H41 C1 0.947 1_556 S
H42 C2 0.950 . S
H43 C8 0.949 . S
H44 C9 0.950 . S
H45 C13 0.951 . S
H46 C14 0.950 . S
H47 C18 0.949 . S
H48 C19 0.939 1_655 S
H49 C23 0.950 . S
H50 C25 0.950 . S
H51 C28 0.950 . S
H52 C30 0.950 . S
C53 C54 1.443 . S
C53 N57 1.376 . S
C53 C91 1.389 . S
C54 C53 1.443 . S
C54 C55 1.340 1_545 S
C54 H94 0.951 . S
C55 C54 1.340 1_565 S
C55 C56 1.439 . S
C55 H95 0.950 . S
C56 C55 1.439 . S
C56 N57 1.374 1_565 S
C56 C90 1.395 . S
N57 C53 1.376 . S
N57 C56 1.374 1_545 S
N57 Co58 2.008 . S
Co58 N57 2.008 . S
Co58 N59 1.995 1_545 S
Co58 N64 2.008 . S
Co58 N69 1.995 . S
Co58 N74 2.282 1_545 S
Co58 N80 2.282 . S
N59 Co58 1.995 1_565 S
N59 C60 1.376 . S
N59 C63 1.383 . S
C60 N59 1.376 . S
C60 C61 1.446 . S
C60 C90 1.391 . S
C61 C60 1.446 . S
C61 C62 1.339 . S
C61 H96 0.949 . S
C62 C61 1.339 . S
C62 C63 1.439 . S
C62 H97 0.950 . S
C63 N59 1.383 . S
C63 C62 1.439 . S
C63 C92 1.392 . S
N64 Co58 2.008 . S
N64 C65 1.376 1_545 S
N64 C68 1.374 . S
C65 N64 1.376 1_565 S
C65 C66 1.443 1_565 S
C65 C92 1.389 . S
C66 C65 1.443 1_545 S
C66 C67 1.340 . S
C66 H98 0.951 1_545 S
C67 C66 1.340 . S
C67 C68 1.439 . S
C67 H99 0.950 . S
C68 N64 1.374 . S
C68 C67 1.439 . S
C68 C93 1.395 . S
N69 Co58 1.995 . S
N69 C70 1.376 . S
N69 C73 1.383 . S
C70 N69 1.376 . S
C70 C71 1.446 . S
C70 C93 1.391 . S
C71 C70 1.446 . S
C71 C72 1.339 . S
C71 H100 0.949 . S
C72 C71 1.339 . S
C72 C73 1.439 . S
C72 H101 0.950 . S
C73 N69 1.383 . S
C73 C72 1.439 . S
C73 C91 1.392 . S
N74 Co58 2.282 1_565 S
N74 C77 1.332 . S
N74 C79 1.332 . S
C75 C76 1.386 . S
C75 C78 1.388 . S
C76 C75 1.386 . S
C76 C77 1.382 . S
C76 H102 0.950 . S
C77 N74 1.332 . S
C77 C76 1.382 . S
C77 H88 0.952 1_565 S
C78 C75 1.388 . S
C78 C79 1.382 . S
C78 H103 0.950 . S
C79 N74 1.332 . S
C79 C78 1.382 . S
C79 H89 0.948 . S
N80 Co58 2.282 . S
N80 C84 1.332 . S
N80 C85 1.332 . S
C81 C82 1.388 . S
C81 C85 1.382 . S
C81 H104 0.950 . S
C82 C81 1.388 . S
C82 C83 1.386 . S
C83 C82 1.386 . S
C83 C84 1.382 . S
C83 H105 0.950 . S
C84 N80 1.332 . S
C84 C83 1.382 . S
C84 H86 0.952 . S
C85 N80 1.332 . S
C85 C81 1.382 . S
C85 H87 0.948 . S
H86 C84 0.952 . S
H87 C85 0.948 . S
H88 C77 0.952 1_545 S
H89 C79 0.948 . S
C90 C56 1.395 . S
C90 C60 1.391 . S
C91 C53 1.389 . S
C91 C73 1.392 . S
C92 C63 1.392 . S
C92 C65 1.389 . S
C93 C68 1.395 . S
C93 C70 1.391 . S
H94 C54 0.951 . S
H95 C55 0.950 . S
H96 C61 0.949 . S
H97 C62 0.950 . S
H98 C66 0.951 1_565 S
H99 C67 0.950 . S
H100 C71 0.949 . S
H101 C72 0.950 . S
H102 C76 0.950 . S
H103 C78 0.950 . S
H104 C81 0.950 . S
H105 C83 0.950 . S
C106 C107 1.443 . S
C106 N110 1.376 . S
C106 C144 1.389 . S
C107 C106 1.443 . S
C107 C108 1.340 . S
C107 H147 0.951 . S
C108 C107 1.340 . S
C108 C109 1.439 . S
C108 H148 0.950 . S
C109 C108 1.439 . S
C109 N110 1.374 . S
C109 C143 1.395 . S
N110 C106 1.376 . S
N110 C109 1.374 . S
N110 Co111 2.008 1_556 S
Co111 N110 2.008 1_554 S
Co111 N112 1.995 1_554 S
Co111 N117 2.008 . S
Co111 N122 1.995 . S
Co111 N127 2.282 . S
Co111 N133 2.282 1_554 S
N112 Co111 1.995 1_556 S
N112 C113 1.376 . S
N112 C116 1.383 1_556 S
C113 N112 1.376 . S
C113 C114 1.446 . S
C113 C143 1.391 . S
C114 C113 1.446 . S
C114 C115 1.339 1_556 S
C114 H149 0.949 . S
C115 C114 1.339 1_554 S
C115 C116 1.439 . S
C115 H150 0.950 . S
C116 N112 1.383 1_554 S
C116 C115 1.439 . S
C116 C145 1.392 . S
N117 Co111 2.008 . S
N117 C118 1.376 . S
N117 C121 1.374 . S
C118 N117 1.376 . S
C118 C119 1.443 . S
C118 C145 1.389 . S
C119 C118 1.443 . S
C119 C120 1.340 . S
C119 H151 0.951 . S
C120 C119 1.340 . S
C120 C121 1.439 . S
C120 H152 0.950 . S
C121 N117 1.374 . S
C121 C120 1.439 . S
C121 C146 1.395 . S
N122 Co111 1.995 . S
N122 C123 1.376 . S
N122 C126 1.383 1_554 S
C123 N122 1.376 . S
C123 C124 1.446 . S
C123 C146 1.391 . S
C124 C123 1.446 . S
C124 C125 1.339 . S
C124 H153 0.949 . S
C125 C124 1.339 . S
C125 C126 1.439 1_554 S
C125 H154 0.950 1_554 S
C126 N122 1.383 1_556 S
C126 C125 1.439 1_556 S
C126 C144 1.392 . S
N127 Co111 2.282 . S
N127 C130 1.332 . S
N127 C132 1.332 . S
C128 C129 1.386 . S
C128 C131 1.388 . S
C129 C128 1.386 . S
C129 C130 1.382 . S
C129 H155 0.950 . S
C130 N127 1.332 . S
C130 C129 1.382 . S
C130 H141 0.952 . S
C131 C128 1.388 . S
C131 C132 1.382 . S
C131 H156 0.950 . S
C132 N127 1.332 . S
C132 C131 1.382 . S
C132 H142 0.948 . S
N133 Co111 2.282 1_556 S
N133 C137 1.332 . S
N133 C138 1.332 . S
C134 C135 1.388 . S
C134 C138 1.382 . S
C134 H157 0.950 . S
C135 C134 1.388 . S
C135 C136 1.386 . S
C136 C135 1.386 . S
C136 C137 1.382 . S
C136 H158 0.950 . S
C137 N133 1.332 . S
C137 C136 1.382 . S
C137 H139 0.952 . S
C138 N133 1.332 . S
C138 C134 1.382 . S
C138 H140 0.948 1_556 S
H139 C137 0.952 . S
H140 C138 0.948 1_554 S
H141 C130 0.952 . S
H142 C132 0.948 . S
C143 C109 1.395 . S
C143 C113 1.391 . S
C144 C106 1.389 . S
C144 C126 1.392 . S
C145 C116 1.392 . S
C145 C118 1.389 . S
C146 C121 1.395 . S
C146 C123 1.391 . S
H147 C107 0.951 . S
H148 C108 0.950 . S
H149 C114 0.949 . S
H150 C115 0.950 . S
H151 C119 0.951 . S
H152 C120 0.950 . S
H153 C124 0.949 . S
H154 C125 0.950 1_556 S
H155 C129 0.950 . S
H156 C131 0.950 . S
H157 C134 0.950 . S
H158 C136 0.950 . S
C159 C160 1.443 . S
C159 N163 1.376 . S
C159 C197 1.389 . S
C160 C159 1.443 . S
C160 C161 1.340 . S
C160 H200 0.951 . S
C161 C160 1.340 . S
C161 C162 1.439 . S
C161 H201 0.950 . S
C162 C161 1.439 . S
C162 N163 1.374 . S
C162 C196 1.395 . S
N163 C159 1.376 . S
N163 C162 1.374 . S
N163 Co164 2.008 1_655 S
Co164 N163 2.008 1_455 S
Co164 N165 1.995 1_455 S
Co164 N170 2.008 . S
Co164 N175 1.995 . S
Co164 N180 2.282 . S
Co164 N186 2.282 1_455 S
N165 Co164 1.995 1_655 S
N165 C166 1.376 . S
N165 C169 1.383 1_655 S
C166 N165 1.376 . S
C166 C167 1.446 . S
C166 C196 1.391 . S
C167 C166 1.446 . S
C167 C168 1.339 1_655 S
C167 H202 0.949 . S
C168 C167 1.339 1_455 S
C168 C169 1.439 . S
C168 H203 0.950 . S
C169 N165 1.383 1_455 S
C169 C168 1.439 . S
C169 C198 1.392 . S
N170 Co164 2.008 . S
N170 C171 1.376 . S
N170 C174 1.374 . S
C171 N170 1.376 . S
C171 C172 1.443 . S
C171 C198 1.389 . S
C172 C171 1.443 . S
C172 C173 1.340 . S
C172 H204 0.951 . S
C173 C172 1.340 . S
C173 C174 1.439 . S
C173 H205 0.950 . S
C174 N170 1.374 . S
C174 C173 1.439 . S
C174 C199 1.395 . S
N175 Co164 1.995 . S
N175 C176 1.376 . S
N175 C179 1.383 1_455 S
C176 N175 1.376 . S
C176 C177 1.446 . S
C176 C199 1.391 . S
C177 C176 1.446 . S
C177 C178 1.339 1_455 S
C177 H206 0.949 . S
C178 C177 1.339 1_655 S
C178 C179 1.439 . S
C178 H207 0.950 . S
C179 N175 1.383 1_655 S
C179 C178 1.439 . S
C179 C197 1.392 . S
N180 Co164 2.282 . S
N180 C183 1.332 . S
N180 C185 1.332 . S
C181 C182 1.386 . S
C181 C184 1.388 . S
C182 C181 1.386 . S
C182 C183 1.382 . S
C182 H208 0.950 . S
C183 N180 1.332 . S
C183 C182 1.382 . S
C183 H194 0.952 . S
C184 C181 1.388 . S
C184 C185 1.382 . S
C184 H209 0.950 . S
C185 N180 1.332 . S
C185 C184 1.382 . S
C185 H195 0.948 . S
N186 Co164 2.282 1_655 S
N186 C190 1.332 . S
N186 C191 1.332 . S
C187 C188 1.388 . S
C187 C191 1.382 . S
C187 H210 0.950 . S
C188 C187 1.388 . S
C188 C189 1.386 . S
C189 C188 1.386 . S
C189 C190 1.382 . S
C189 H211 0.950 . S
C190 N186 1.332 . S
C190 C189 1.382 . S
C190 H192 0.952 . S
C191 N186 1.332 . S
C191 C187 1.382 . S
C191 H193 0.948 1_655 S
H192 C190 0.952 . S
H193 C191 0.948 1_455 S
H194 C183 0.952 . S
H195 C185 0.948 . S
C196 C162 1.395 . S
C196 C166 1.391 . S
C197 C159 1.389 . S
C197 C179 1.392 . S
C198 C169 1.392 . S
C198 C171 1.389 . S
C199 C174 1.395 . S
C199 C176 1.391 . S
H200 C160 0.951 . S
H201 C161 0.950 . S
H202 C167 0.949 . S
H203 C168 0.950 . S
H204 C172 0.951 . S
H205 C173 0.950 . S
H206 C177 0.949 . S
H207 C178 0.950 . S
H208 C182 0.950 . S
H209 C184 0.950 . S
H210 C187 0.950 . S
H211 C189 0.950 . S
C212 C213 1.443 . S
C212 N216 1.376 1_565 S
C212 C250 1.389 . S
C213 C212 1.443 . S
C213 C214 1.340 1_565 S
C213 H253 0.951 . S
C214 C213 1.340 1_545 S
C214 C215 1.439 . S
C214 H254 0.950 . S
C215 C214 1.439 . S
C215 N216 1.374 . S
C215 C249 1.395 . S
N216 C212 1.376 1_545 S
N216 C215 1.374 . S
N216 Co217 2.008 . S
Co217 N216 2.008 . S
Co217 N218 1.995 . S
Co217 N223 2.008 1_544 S
Co217 N228 1.995 1_545 S
Co217 N233 2.282 1_554 S
Co217 N239 2.282 1_545 S
N218 Co217 1.995 . S
N218 C219 1.376 . S
N218 C222 1.383 1_554 S
C219 N218 1.376 . S
C219 C220 1.446 . S
C219 C249 1.391 . S
C220 C219 1.446 . S
C220 C221 1.339 1_554 S
C220 H255 0.949 . S
C221 C220 1.339 1_556 S
C221 C222 1.439 . S
C221 H256 0.950 . S
C222 N218 1.383 1_556 S
C222 C221 1.439 . S
C222 C251 1.392 . S
N223 Co217 2.008 1_566 S
N223 C224 1.376 1_565 S
N223 C227 1.374 . S
C224 N223 1.376 1_545 S
C224 C225 1.443 . S
C224 C251 1.389 . S
C225 C224 1.443 . S
C225 C226 1.340 1_545 S
C225 H257 0.951 . S
C226 C225 1.340 1_565 S
C226 C227 1.439 . S
C226 H258 0.950 . S
C227 N223 1.374 . S
C227 C226 1.439 . S
C227 C252 1.395 . S
N228 Co217 1.995 1_565 S
N228 C229 1.376 1_554 S
N228 C232 1.383 . S
C229 N228 1.376 1_556 S
C229 C230 1.446 . S
C229 C252 1.391 . S
C230 C229 1.446 . S
C230 C231 1.339 1_556 S
C230 H259 0.949 . S
C231 C230 1.339 1_554 S
C231 C232 1.439 . S
C231 H260 0.950 . S
C232 N228 1.383 . S
C232 C231 1.439 . S
C232 C250 1.392 . S
N233 Co217 2.282 1_556 S
N233 C236 1.332 . S
N233 C238 1.332 . S
C234 C235 1.386 . S
C234 C237 1.388 . S
C235 C234 1.386 . S
C235 C236 1.382 . S
C235 H261 0.950 . S
C236 N233 1.332 . S
C236 C235 1.382 . S
C236 H247 0.952 1_545 S
C237 C234 1.388 . S
C237 C238 1.382 . S
C237 H262 0.950 . S
C238 N233 1.332 . S
C238 C237 1.382 . S
C238 H248 0.948 . S
N239 Co217 2.282 1_565 S
N239 C243 1.332 . S
N239 C244 1.332 . S
C240 C241 1.388 . S
C240 C244 1.382 . S
C240 H263 0.950 . S
C241 C240 1.388 . S
C241 C242 1.386 . S
C242 C241 1.386 . S
C242 C243 1.382 . S
C242 H264 0.950 . S
C243 N239 1.332 . S
C243 C242 1.382 . S
C243 H245 0.952 1_565 S
C244 N239 1.332 . S
C244 C240 1.382 . S
C244 H246 0.948 . S
H245 C243 0.952 1_545 S
H246 C244 0.948 . S
H247 C236 0.952 1_565 S
H248 C238 0.948 . S
C249 C215 1.395 . S
C249 C219 1.391 . S
C250 C212 1.389 . S
C250 C232 1.392 . S
C251 C222 1.392 . S
C251 C224 1.389 . S
C252 C227 1.395 . S
C252 C229 1.391 . S
H253 C213 0.951 . S
H254 C214 0.950 . S
H255 C220 0.949 . S
H256 C221 0.950 . S
H257 C225 0.951 . S
H258 C226 0.950 . S
H259 C230 0.949 . S
H260 C231 0.950 . S
H261 C235 0.950 . S
H262 C237 0.950 . S
H263 C240 0.950 . S
H264 C242 0.950 . S
C265 C266 1.443 . S
C265 N269 1.376 . S
C265 C303 1.389 . S
C266 C265 1.443 . S
C266 C267 1.340 . S
C266 H306 0.951 . S
C267 C266 1.340 . S
C267 C268 1.439 . S
C267 H307 0.950 . S
C268 C267 1.439 . S
C268 N269 1.374 . S
C268 C302 1.395 . S
N269 C265 1.376 . S
N269 C268 1.374 . S
N269 Co270 2.008 . S
Co270 N269 2.008 . S
Co270 N271 1.995 . S
Co270 N276 2.008 . S
Co270 N281 1.995 . S
Co270 N286 2.282 . S
Co270 N292 2.282 . S
N271 Co270 1.995 . S
N271 C272 1.376 . S
N271 C275 1.383 . S
C272 N271 1.376 . S
C272 C273 1.446 . S
C272 C302 1.391 . S
C273 C272 1.446 . S
C273 C274 1.339 . S
C273 H308 0.949 . S
C274 C273 1.339 . S
C274 C275 1.439 . S
C274 H309 0.950 . S
C275 N271 1.383 . S
C275 C274 1.439 . S
C275 C304 1.392 . S
N276 Co270 2.008 . S
N276 C277 1.376 . S
N276 C280 1.374 . S
C277 N276 1.376 . S
C277 C278 1.443 . S
C277 C304 1.389 . S
C278 C277 1.443 . S
C278 C279 1.340 . S
C278 H310 0.951 . S
C279 C278 1.340 . S
C279 C280 1.439 . S
C279 H311 0.950 . S
C280 N276 1.374 . S
C280 C279 1.439 . S
C280 C305 1.395 . S
N281 Co270 1.995 . S
N281 C282 1.376 . S
N281 C285 1.383 . S
C282 N281 1.376 . S
C282 C283 1.446 . S
C282 C305 1.391 . S
C283 C282 1.446 . S
C283 C284 1.339 . S
C283 H312 0.949 . S
C284 C283 1.339 . S
C284 C285 1.439 . S
C284 H313 0.950 . S
C285 N281 1.383 . S
C285 C284 1.439 . S
C285 C303 1.392 . S
N286 Co270 2.282 . S
N286 C289 1.332 . S
N286 C291 1.332 . S
C287 C288 1.386 . S
C287 C290 1.388 . S
C288 C287 1.386 . S
C288 C289 1.382 . S
C288 H314 0.950 . S
C289 N286 1.332 . S
C289 C288 1.382 . S
C289 H300 0.952 . S
C290 C287 1.388 . S
C290 C291 1.382 . S
C290 H315 0.950 . S
C291 N286 1.332 . S
C291 C290 1.382 . S
C291 H301 0.948 . S
N292 Co270 2.282 . S
N292 C296 1.332 . S
N292 C297 1.332 . S
C293 C294 1.388 . S
C293 C297 1.382 . S
C293 H316 0.950 . S
C294 C293 1.388 . S
C294 C295 1.386 . S
C295 C294 1.386 . S
C295 C296 1.382 . S
C295 H317 0.950 . S
C296 N292 1.332 . S
C296 C295 1.382 . S
C296 H298 0.952 . S
C297 N292 1.332 . S
C297 C293 1.382 . S
C297 H299 0.948 . S
H298 C296 0.952 . S
H299 C297 0.948 . S
H300 C289 0.952 . S
H301 C291 0.948 . S
C302 C268 1.395 . S
C302 C272 1.391 . S
C303 C265 1.389 . S
C303 C285 1.392 . S
C304 C275 1.392 . S
C304 C277 1.389 . S
C305 C280 1.395 . S
C305 C282 1.391 . S
H306 C266 0.951 . S
H307 C267 0.950 . S
H308 C273 0.949 . S
H309 C274 0.950 . S
H310 C278 0.951 . S
H311 C279 0.950 . S
H312 C283 0.949 . S
H313 C284 0.950 . S
H314 C288 0.950 . S
H315 C290 0.950 . S
H316 C293 0.950 . S
H317 C295 0.950 . S
Cu318 N319 1.999 . S
Cu318 O324 1.974 . S
Cu318 N329 1.985 . S
Cu318 O338 1.959 . S
N319 Cu318 1.999 . S
N319 C321 1.263 . S
N319 C323 1.389 . S
N320 C321 1.358 . S
N320 C322 1.400 . S
C321 N319 1.263 . S
C321 N320 1.358 . S
C321 H327 0.930 . S
C322 N320 1.400 . S
C322 C323 1.351 . S
C322 H339 0.930 . S
C323 N319 1.389 . S
C323 C322 1.351 . S
C323 H328 0.930 . S
O324 Cu318 1.974 . S
O324 C334 1.282 . S
C325 O326 1.261 . S
C325 O338 1.251 . S
O326 C325 1.261 . S
H327 C321 0.930 . S
H328 C323 0.930 . S
N329 Cu318 1.985 . S
N329 C331 1.335 . S
N329 C332 1.390 . S
N330 C331 1.345 . S
N330 C333 1.336 . S
C331 N329 1.335 . S
C331 N330 1.345 . S
C331 H336 0.930 . S
C332 N329 1.390 . S
C332 C333 1.346 . S
C332 H337 0.930 . S
C333 N330 1.336 . S
C333 C332 1.346 . S
C333 H340 0.929 . S
C334 O324 1.282 . S
C334 O335 1.216 . S
O335 C334 1.216 . S
H336 C331 0.930 . S
H337 C332 0.930 . S
O338 Cu318 1.959 . S
O338 C325 1.251 . S
H339 C322 0.930 . S
H340 C333 0.929 . S
Cu341 N342 1.999 . S
Cu341 O347 1.974 . S
Cu341 N352 1.985 . S
Cu341 O361 1.959 . S
N342 Cu341 1.999 . S
N342 C344 1.263 . S
N342 C346 1.389 . S
N343 C344 1.358 . S
N343 C345 1.400 . S
C344 N342 1.263 . S
C344 N343 1.358 . S
C344 H350 0.930 . S
C345 N343 1.400 . S
C345 C346 1.351 . S
C345 H362 0.930 . S
C346 N342 1.389 . S
C346 C345 1.351 . S
C346 H351 0.930 . S
O347 Cu341 1.974 . S
O347 C357 1.282 . S
C348 O349 1.261 . S
C348 O361 1.251 . S
O349 C348 1.261 . S
H350 C344 0.930 . S
H351 C346 0.930 . S
N352 Cu341 1.985 . S
N352 C354 1.335 . S
N352 C355 1.390 . S
N353 C354 1.345 . S
N353 C356 1.336 . S
C354 N352 1.335 . S
C354 N353 1.345 . S
C354 H359 0.930 . S
C355 N352 1.390 . S
C355 C356 1.346 . S
C355 H360 0.930 . S
C356 N353 1.336 . S
C356 C355 1.346 . S
C356 H363 0.929 . S
C357 O347 1.282 . S
C357 O358 1.216 . S
O358 C357 1.216 . S
H359 C354 0.930 . S
H360 C355 0.930 . S
O361 Cu341 1.959 . S
O361 C348 1.251 . S
H362 C345 0.930 . S
H363 C356 0.929 . S
Cu364 N365 1.999 . S
Cu364 O370 1.974 . S
Cu364 N375 1.985 . S
Cu364 O384 1.959 . S
N365 Cu364 1.999 . S
N365 C367 1.263 . S
N365 C369 1.389 . S
N366 C367 1.358 . S
N366 C368 1.400 . S
C367 N365 1.263 . S
C367 N366 1.358 . S
C367 H373 0.930 . S
C368 N366 1.400 . S
C368 C369 1.351 . S
C368 H385 0.930 . S
C369 N365 1.389 . S
C369 C368 1.351 . S
C369 H374 0.930 . S
O370 Cu364 1.974 . S
O370 C380 1.282 . S
C371 O372 1.261 . S
C371 O384 1.251 . S
O372 C371 1.261 . S
H373 C367 0.930 . S
H374 C369 0.930 . S
N375 Cu364 1.985 . S
N375 C377 1.335 . S
N375 C378 1.390 . S
N376 C377 1.345 . S
N376 C379 1.336 . S
C377 N375 1.335 . S
C377 N376 1.345 . S
C377 H382 0.930 . S
C378 N375 1.390 . S
C378 C379 1.346 . S
C378 H383 0.930 . S
C379 N376 1.336 . S
C379 C378 1.346 . S
C379 H386 0.929 . S
C380 O370 1.282 . S
C380 O381 1.216 . S
O381 C380 1.216 . S
H382 C377 0.930 . S
H383 C378 0.930 . S
O384 Cu364 1.959 . S
O384 C371 1.251 . S
H385 C368 0.930 . S
H386 C379 0.929 . S
Cu387 N388 1.999 . S
Cu387 O393 1.974 . S
Cu387 N398 1.985 . S
Cu387 O407 1.959 . S
N388 Cu387 1.999 . S
N388 C390 1.263 . S
N388 C392 1.389 . S
N389 C390 1.358 . S
N389 C391 1.400 . S
C390 N388 1.263 . S
C390 N389 1.358 . S
C390 H396 0.930 . S
C391 N389 1.400 . S
C391 C392 1.351 . S
C391 H408 0.930 . S
C392 N388 1.389 . S
C392 C391 1.351 . S
C392 H397 0.930 . S
O393 Cu387 1.974 . S
O393 C403 1.282 . S
C394 O395 1.261 . S
C394 O407 1.251 . S
O395 C394 1.261 . S
H396 C390 0.930 . S
H397 C392 0.930 . S
N398 Cu387 1.985 . S
N398 C400 1.335 . S
N398 C401 1.390 . S
N399 C400 1.345 . S
N399 C402 1.336 . S
C400 N398 1.335 . S
C400 N399 1.345 . S
C400 H405 0.930 . S
C401 N398 1.390 . S
C401 C402 1.346 . S
C401 H406 0.930 . S
C402 N399 1.336 . S
C402 C401 1.346 . S
C402 H409 0.929 . S
C403 O393 1.282 . S
C403 O404 1.216 . S
O404 C403 1.216 . S
H405 C400 0.930 . S
H406 C401 0.930 . S
O407 Cu387 1.959 . S
O407 C394 1.251 . S
H408 C391 0.930 . S
H409 C402 0.929 . S
Cu410 N411 1.999 . S
Cu410 O416 1.974 . S
Cu410 N421 1.985 . S
Cu410 O430 1.959 . S
N411 Cu410 1.999 . S
N411 C413 1.263 . S
N411 C415 1.389 . S
N412 C413 1.358 . S
N412 C414 1.400 . S
C413 N411 1.263 . S
C413 N412 1.358 . S
C413 H419 0.930 . S
C414 N412 1.400 . S
C414 C415 1.351 . S
C414 H431 0.930 . S
C415 N411 1.389 . S
C415 C414 1.351 . S
C415 H420 0.930 . S
O416 Cu410 1.974 . S
O416 C426 1.282 . S
C417 O418 1.261 . S
C417 O430 1.251 . S
O418 C417 1.261 . S
H419 C413 0.930 . S
H420 C415 0.930 . S
N421 Cu410 1.985 . S
N421 C423 1.335 . S
N421 C424 1.390 . S
N422 C423 1.345 . S
N422 C425 1.336 . S
C423 N421 1.335 . S
C423 N422 1.345 . S
C423 H428 0.930 . S
C424 N421 1.390 . S
C424 C425 1.346 . S
C424 H429 0.930 . S
C425 N422 1.336 . S
C425 C424 1.346 . S
C425 H432 0.929 . S
C426 O416 1.282 . S
C426 O427 1.216 . S
O427 C426 1.216 . S
H428 C423 0.930 . S
H429 C424 0.930 . S
O430 Cu410 1.959 . S
O430 C417 1.251 . S
H431 C414 0.930 . S
H432 C425 0.929 . S
Cu433 N434 1.999 . S
Cu433 O439 1.974 . S
Cu433 N444 1.985 . S
Cu433 O453 1.959 . S
N434 Cu433 1.999 . S
N434 C436 1.263 . S
N434 C438 1.389 . S
N435 C436 1.358 . S
N435 C437 1.400 . S
C436 N434 1.263 . S
C436 N435 1.358 . S
C436 H442 0.930 . S
C437 N435 1.400 . S
C437 C438 1.351 . S
C437 H454 0.930 . S
C438 N434 1.389 . S
C438 C437 1.351 . S
C438 H443 0.930 . S
O439 Cu433 1.974 . S
O439 C449 1.282 . S
C440 O441 1.261 . S
C440 O453 1.251 . S
O441 C440 1.261 . S
H442 C436 0.930 . S
H443 C438 0.930 . S
N444 Cu433 1.985 . S
N444 C446 1.335 . S
N444 C447 1.390 . S
N445 C446 1.345 . S
N445 C448 1.336 . S
C446 N444 1.335 . S
C446 N445 1.345 . S
C446 H451 0.930 . S
C447 N444 1.390 . S
C447 C448 1.346 . S
C447 H452 0.930 . S
C448 N445 1.336 . S
C448 C447 1.346 . S
C448 H455 0.929 . S
C449 O439 1.282 . S
C449 O450 1.216 . S
O450 C449 1.216 . S
H451 C446 0.930 . S
H452 C447 0.930 . S
O453 Cu433 1.959 . S
O453 C440 1.251 . S
H454 C437 0.930 . S
H455 C448 0.929 . S
H456 C468 0.930 . S
H457 C470 0.930 . S
H458 C471 0.930 . S
H459 C475 0.959 . S
H460 C475 0.959 . S
H461 C475 0.961 . S
H462 C476 0.960 . S
H463 C476 0.961 . S
H464 C476 0.959 . S
H465 C479 0.929 . S
H466 C480 0.931 . S
H467 C482 0.930 . S
C468 H456 0.930 . S
C468 C469 1.399 . S
C468 C473 1.399 . S
C469 C468 1.399 . S
C469 C470 1.376 . S
C470 H457 0.930 . S
C470 C469 1.376 . S
C470 C471 1.388 . S
C471 H458 0.930 . S
C471 C470 1.388 . S
C471 C472 1.390 . S
C472 C471 1.390 . S
C472 C473 1.394 . S
C472 C478 1.465 . S
C473 C468 1.399 . S
C473 C472 1.394 . S
C473 C474 1.516 . S
C474 C473 1.516 . S
C474 C475 1.502 . S
C474 C476 1.561 . S
C474 C477 1.526 . S
C475 H459 0.959 . S
C475 H460 0.959 . S
C475 H461 0.961 . S
C475 C474 1.502 . S
C476 H462 0.960 . S
C476 H463 0.961 . S
C476 H464 0.959 . S
C476 C474 1.561 . S
C477 C474 1.526 . S
C477 C478 1.396 . S
C477 C482 1.390 . S
C478 C472 1.465 . S
C478 C477 1.396 . S
C478 C479 1.399 . S
C479 H465 0.929 . S
C479 C478 1.399 . S
C479 C480 1.385 . S
C480 H466 0.931 . S
C480 C479 1.385 . S
C480 C481 1.389 . S
C481 C480 1.389 . S
C481 C482 1.387 . S
C482 H467 0.930 . S
C482 C477 1.390 . S
C482 C481 1.387 . S
H483 C495 0.930 . S
H484 C497 0.930 . S
H485 C498 0.930 . S
H486 C502 0.959 . S
H487 C502 0.959 . S
H488 C502 0.961 . S
H489 C503 0.960 . S
H490 C503 0.961 . S
H491 C503 0.959 . S
H492 C506 0.929 . S
H493 C507 0.931 . S
H494 C509 0.930 . S
C495 H483 0.930 . S
C495 C496 1.399 . S
C495 C500 1.399 . S
C496 C495 1.399 . S
C496 C497 1.376 . S
C497 H484 0.930 . S
C497 C496 1.376 . S
C497 C498 1.388 . S
C498 H485 0.930 . S
C498 C497 1.388 . S
C498 C499 1.390 . S
C499 C498 1.390 . S
C499 C500 1.394 . S
C499 C505 1.465 . S
C500 C495 1.399 . S
C500 C499 1.394 . S
C500 C501 1.516 . S
C501 C500 1.516 . S
C501 C502 1.502 . S
C501 C503 1.561 . S
C501 C504 1.526 . S
C502 H486 0.959 . S
C502 H487 0.959 . S
C502 H488 0.961 . S
C502 C501 1.502 . S
C503 H489 0.960 . S
C503 H490 0.961 . S
C503 H491 0.959 . S
C503 C501 1.561 . S
C504 C501 1.526 . S
C504 C505 1.396 . S
C504 C509 1.390 . S
C505 C499 1.465 . S
C505 C504 1.396 . S
C505 C506 1.399 . S
C506 H492 0.929 . S
C506 C505 1.399 . S
C506 C507 1.385 . S
C507 H493 0.931 . S
C507 C506 1.385 . S
C507 C508 1.389 . S
C508 C507 1.389 . S
C508 C509 1.387 . S
C509 H494 0.930 . S
C509 C504 1.390 . S
C509 C508 1.387 . S
H510 C522 0.930 . S
H511 C524 0.930 . S
H512 C525 0.930 . S
H513 C529 0.959 . S
H514 C529 0.959 . S
H515 C529 0.961 . S
H516 C530 0.960 . S
H517 C530 0.961 . S
H518 C530 0.959 . S
H519 C533 0.929 . S
H520 C534 0.931 . S
H521 C536 0.930 . S
C522 H510 0.930 . S
C522 C523 1.399 . S
C522 C527 1.399 . S
C523 C522 1.399 . S
C523 C524 1.376 . S
C524 H511 0.930 . S
C524 C523 1.376 . S
C524 C525 1.388 . S
C525 H512 0.930 . S
C525 C524 1.388 . S
C525 C526 1.390 . S
C526 C525 1.390 . S
C526 C527 1.394 . S
C526 C532 1.465 . S
C527 C522 1.399 . S
C527 C526 1.394 . S
C527 C528 1.516 . S
C528 C527 1.516 . S
C528 C529 1.502 . S
C528 C530 1.561 . S
C528 C531 1.526 . S
C529 H513 0.959 . S
C529 H514 0.959 . S
C529 H515 0.961 . S
C529 C528 1.502 . S
C530 H516 0.960 . S
C530 H517 0.961 . S
C530 H518 0.959 . S
C530 C528 1.561 . S
C531 C528 1.526 . S
C531 C532 1.396 . S
C531 C536 1.390 . S
C532 C526 1.465 . S
C532 C531 1.396 . S
C532 C533 1.399 . S
C533 H519 0.929 . S
C533 C532 1.399 . S
C533 C534 1.385 . S
C534 H520 0.931 . S
C534 C533 1.385 . S
C534 C535 1.389 . S
C535 C534 1.389 . S
C535 C536 1.387 . S
C536 H521 0.930 . S
C536 C531 1.390 . S
C536 C535 1.387 . S
H537 C549 0.930 . S
H538 C551 0.930 . S
H539 C552 0.930 . S
H540 C556 0.959 . S
H541 C556 0.959 . S
H542 C556 0.961 . S
H543 C557 0.960 . S
H544 C557 0.961 . S
H545 C557 0.959 . S
H546 C560 0.929 . S
H547 C561 0.931 . S
H548 C563 0.930 . S
C549 H537 0.930 . S
C549 C550 1.399 . S
C549 C554 1.399 . S
C550 C549 1.399 . S
C550 C551 1.376 . S
C551 H538 0.930 . S
C551 C550 1.376 . S
C551 C552 1.388 . S
C552 H539 0.930 . S
C552 C551 1.388 . S
C552 C553 1.390 . S
C553 C552 1.390 . S
C553 C554 1.394 . S
C553 C559 1.465 . S
C554 C549 1.399 . S
C554 C553 1.394 . S
C554 C555 1.516 . S
C555 C554 1.516 . S
C555 C556 1.502 . S
C555 C557 1.561 . S
C555 C558 1.526 . S
C556 H540 0.959 . S
C556 H541 0.959 . S
C556 H542 0.961 . S
C556 C555 1.502 . S
C557 H543 0.960 . S
C557 H544 0.961 . S
C557 H545 0.959 . S
C557 C555 1.561 . S
C558 C555 1.526 . S
C558 C559 1.396 . S
C558 C563 1.390 . S
C559 C553 1.465 . S
C559 C558 1.396 . S
C559 C560 1.399 . S
C560 H546 0.929 . S
C560 C559 1.399 . S
C560 C561 1.385 . S
C561 H547 0.931 . S
C561 C560 1.385 . S
C561 C562 1.389 . S
C562 C561 1.389 . S
C562 C563 1.387 . S
C563 H548 0.930 . S
C563 C558 1.390 . S
C563 C562 1.387 . S
H564 C576 0.930 . S
H565 C578 0.930 . S
H566 C579 0.930 . S
H567 C583 0.959 . S
H568 C583 0.959 . S
H569 C583 0.961 . S
H570 C584 0.960 . S
H571 C584 0.961 . S
H572 C584 0.959 . S
H573 C587 0.929 . S
H574 C588 0.931 . S
H575 C590 0.930 . S
C576 H564 0.930 . S
C576 C577 1.399 . S
C576 C581 1.399 . S
C577 C576 1.399 . S
C577 C578 1.376 . S
C578 H565 0.930 . S
C578 C577 1.376 . S
C578 C579 1.388 . S
C579 H566 0.930 . S
C579 C578 1.388 . S
C579 C580 1.390 . S
C580 C579 1.390 . S
C580 C581 1.394 . S
C580 C586 1.465 . S
C581 C576 1.399 . S
C581 C580 1.394 . S
C581 C582 1.516 . S
C582 C581 1.516 . S
C582 C583 1.502 . S
C582 C584 1.561 . S
C582 C585 1.526 . S
C583 H567 0.959 . S
C583 H568 0.959 . S
C583 H569 0.961 . S
C583 C582 1.502 . S
C584 H570 0.960 . S
C584 H571 0.961 . S
C584 H572 0.959 . S
C584 C582 1.561 . S
C585 C582 1.526 . S
C585 C586 1.396 . S
C585 C590 1.390 . S
C586 C580 1.465 . S
C586 C585 1.396 . S
C586 C587 1.399 . S
C587 H573 0.929 . S
C587 C586 1.399 . S
C587 C588 1.385 . S
C588 H574 0.931 . S
C588 C587 1.385 . S
C588 C589 1.389 . S
C589 C588 1.389 . S
C589 C590 1.387 . S
C590 H575 0.930 . S
C590 C585 1.390 . S
C590 C589 1.387 . S
H591 C603 0.930 . S
H592 C605 0.930 . S
H593 C606 0.930 . S
H594 C610 0.959 . S
H595 C610 0.959 . S
H596 C610 0.961 . S
H597 C611 0.960 . S
H598 C611 0.961 . S
H599 C611 0.959 . S
H600 C614 0.929 . S
H601 C615 0.931 . S
H602 C617 0.930 . S
C603 H591 0.930 . S
C603 C604 1.399 . S
C603 C608 1.399 . S
C604 C603 1.399 . S
C604 C605 1.376 . S
C605 H592 0.930 . S
C605 C604 1.376 . S
C605 C606 1.388 . S
C606 H593 0.930 . S
C606 C605 1.388 . S
C606 C607 1.390 . S
C607 C606 1.390 . S
C607 C608 1.394 . S
C607 C613 1.465 . S
C608 C603 1.399 . S
C608 C607 1.394 . S
C608 C609 1.516 . S
C609 C608 1.516 . S
C609 C610 1.502 . S
C609 C611 1.561 . S
C609 C612 1.526 . S
C610 H594 0.959 . S
C610 H595 0.959 . S
C610 H596 0.961 . S
C610 C609 1.502 . S
C611 H597 0.960 . S
C611 H598 0.961 . S
C611 H599 0.959 . S
C611 C609 1.561 . S
C612 C609 1.526 . S
C612 C613 1.396 . S
C612 C617 1.390 . S
C613 C607 1.465 . S
C613 C612 1.396 . S
C613 C614 1.399 . S
C614 H600 0.929 . S
C614 C613 1.399 . S
C614 C615 1.385 . S
C615 H601 0.931 . S
C615 C614 1.385 . S
C615 C616 1.389 . S
C616 C615 1.389 . S
C616 C617 1.387 . S
C617 H602 0.930 . S
C617 C612 1.390 . S
C617 C616 1.387 . S
H618 C630 0.930 . S
H619 C632 0.930 . S
H620 C633 0.930 . S
H621 C637 0.959 . S
H622 C637 0.959 . S
H623 C637 0.961 . S
H624 C638 0.960 . S
H625 C638 0.961 . S
H626 C638 0.959 . S
H627 C641 0.929 . S
H628 C642 0.931 . S
H629 C644 0.930 . S
C630 H618 0.930 . S
C630 C631 1.399 . S
C630 C635 1.399 . S
C631 C630 1.399 . S
C631 C632 1.376 . S
C632 H619 0.930 . S
C632 C631 1.376 . S
C632 C633 1.388 . S
C633 H620 0.930 . S
C633 C632 1.388 . S
C633 C634 1.390 . S
C634 C633 1.390 . S
C634 C635 1.394 . S
C634 C640 1.465 . S
C635 C630 1.399 . S
C635 C634 1.394 . S
C635 C636 1.516 . S
C636 C635 1.516 . S
C636 C637 1.502 . S
C636 C638 1.561 . S
C636 C639 1.526 . S
C637 H621 0.959 . S
C637 H622 0.959 . S
C637 H623 0.961 . S
C637 C636 1.502 . S
C638 H624 0.960 . S
C638 H625 0.961 . S
C638 H626 0.959 . S
C638 C636 1.561 . S
C639 C636 1.526 . S
C639 C640 1.396 . S
C639 C644 1.390 . S
C640 C634 1.465 . S
C640 C639 1.396 . S
C640 C641 1.399 . S
C641 H627 0.929 . S
C641 C640 1.399 . S
C641 C642 1.385 . S
C642 H628 0.931 . S
C642 C641 1.385 . S
C642 C643 1.389 . S
C643 C642 1.389 . S
C643 C644 1.387 . S
C644 H629 0.930 . S
C644 C639 1.390 . S
C644 C643 1.387 . S
H645 C657 0.930 . S
H646 C659 0.930 . S
H647 C660 0.930 . S
H648 C664 0.959 . S
H649 C664 0.959 . S
H650 C664 0.961 . S
H651 C665 0.960 . S
H652 C665 0.961 . S
H653 C665 0.959 . S
H654 C668 0.929 . S
H655 C669 0.931 . S
H656 C671 0.930 . S
C657 H645 0.930 . S
C657 C658 1.399 . S
C657 C662 1.399 . S
C658 C657 1.399 . S
C658 C659 1.376 . S
C659 H646 0.930 . S
C659 C658 1.376 . S
C659 C660 1.388 . S
C660 H647 0.930 . S
C660 C659 1.388 . S
C660 C661 1.390 . S
C661 C660 1.390 . S
C661 C662 1.394 . S
C661 C667 1.465 . S
C662 C657 1.399 . S
C662 C661 1.394 . S
C662 C663 1.516 . S
C663 C662 1.516 . S
C663 C664 1.502 . S
C663 C665 1.561 . S
C663 C666 1.526 . S
C664 H648 0.959 . S
C664 H649 0.959 . S
C664 H650 0.961 . S
C664 C663 1.502 . S
C665 H651 0.960 . S
C665 H652 0.961 . S
C665 H653 0.959 . S
C665 C663 1.561 . S
C666 C663 1.526 . S
C666 C667 1.396 . S
C666 C671 1.390 . S
C667 C661 1.465 . S
C667 C666 1.396 . S
C667 C668 1.399 . S
C668 H654 0.929 . S
C668 C667 1.399 . S
C668 C669 1.385 . S
C669 H655 0.931 . S
C669 C668 1.385 . S
C669 C670 1.389 . S
C670 C669 1.389 . S
C670 C671 1.387 . S
C671 H656 0.930 . S
C671 C666 1.390 . S
C671 C670 1.387 . S
H672 C684 0.930 . S
H673 C686 0.930 . S
H674 C687 0.930 . S
H675 C691 0.959 . S
H676 C691 0.959 . S
H677 C691 0.961 . S
H678 C692 0.960 . S
H679 C692 0.961 . S
H680 C692 0.959 . S
H681 C695 0.929 . S
H682 C696 0.931 . S
H683 C698 0.930 . S
C684 H672 0.930 . S
C684 C685 1.399 . S
C684 C689 1.399 . S
C685 C684 1.399 . S
C685 C686 1.376 . S
C686 H673 0.930 . S
C686 C685 1.376 . S
C686 C687 1.388 . S
C687 H674 0.930 . S
C687 C686 1.388 . S
C687 C688 1.390 . S
C688 C687 1.390 . S
C688 C689 1.394 . S
C688 C694 1.465 . S
C689 C684 1.399 . S
C689 C688 1.394 . S
C689 C690 1.516 . S
C690 C689 1.516 . S
C690 C691 1.502 . S
C690 C692 1.561 . S
C690 C693 1.526 . S
C691 H675 0.959 . S
C691 H676 0.959 . S
C691 H677 0.961 . S
C691 C690 1.502 . S
C692 H678 0.960 . S
C692 H679 0.961 . S
C692 H680 0.959 . S
C692 C690 1.561 . S
C693 C690 1.526 . S
C693 C694 1.396 . S
C693 C698 1.390 . S
C694 C688 1.465 . S
C694 C693 1.396 . S
C694 C695 1.399 . S
C695 H681 0.929 . S
C695 C694 1.399 . S
C695 C696 1.385 . S
C696 H682 0.931 . S
C696 C695 1.385 . S
C696 C697 1.389 . S
C697 C696 1.389 . S
C697 C698 1.387 . S
C698 H683 0.930 . S
C698 C693 1.390 . S
C698 C697 1.387 . S
H699 C711 0.930 . S
H700 C713 0.930 . S
H701 C714 0.930 . S
H702 C718 0.959 . S
H703 C718 0.959 . S
H704 C718 0.961 . S
H705 C719 0.960 . S
H706 C719 0.961 . S
H707 C719 0.959 . S
H708 C722 0.929 . S
H709 C723 0.931 . S
H710 C725 0.930 . S
C711 H699 0.930 . S
C711 C712 1.399 . S
C711 C716 1.399 . S
C712 C711 1.399 . S
C712 C713 1.376 . S
C713 H700 0.930 . S
C713 C712 1.376 . S
C713 C714 1.388 . S
C714 H701 0.930 . S
C714 C713 1.388 . S
C714 C715 1.390 . S
C715 C714 1.390 . S
C715 C716 1.394 . S
C715 C721 1.465 . S
C716 C711 1.399 . S
C716 C715 1.394 . S
C716 C717 1.516 . S
C717 C716 1.516 . S
C717 C718 1.502 . S
C717 C719 1.561 . S
C717 C720 1.526 . S
C718 H702 0.959 . S
C718 H703 0.959 . S
C718 H704 0.961 . S
C718 C717 1.502 . S
C719 H705 0.960 . S
C719 H706 0.961 . S
C719 H707 0.959 . S
C719 C717 1.561 . S
C720 C717 1.526 . S
C720 C721 1.396 . S
C720 C725 1.390 . S
C721 C715 1.465 . S
C721 C720 1.396 . S
C721 C722 1.399 . S
C722 H708 0.929 . S
C722 C721 1.399 . S
C722 C723 1.385 . S
C723 H709 0.931 . S
C723 C722 1.385 . S
C723 C724 1.389 . S
C724 C723 1.389 . S
C724 C725 1.387 . S
C725 H710 0.930 . S
C725 C720 1.390 . S
C725 C724 1.387 . S
H726 C738 0.930 . S
H727 C740 0.930 . S
H728 C741 0.930 . S
H729 C745 0.959 . S
H730 C745 0.959 . S
H731 C745 0.961 . S
H732 C746 0.960 . S
H733 C746 0.961 . S
H734 C746 0.959 . S
H735 C749 0.929 . S
H736 C750 0.931 . S
H737 C752 0.930 . S
C738 H726 0.930 . S
C738 C739 1.399 . S
C738 C743 1.399 . S
C739 C738 1.399 . S
C739 C740 1.376 . S
C740 H727 0.930 . S
C740 C739 1.376 . S
C740 C741 1.388 . S
C741 H728 0.930 . S
C741 C740 1.388 . S
C741 C742 1.390 . S
C742 C741 1.390 . S
C742 C743 1.394 . S
C742 C748 1.465 . S
C743 C738 1.399 . S
C743 C742 1.394 . S
C743 C744 1.516 . S
C744 C743 1.516 . S
C744 C745 1.502 . S
C744 C746 1.561 . S
C744 C747 1.526 . S
C745 H729 0.959 . S
C745 H730 0.959 . S
C745 H731 0.961 . S
C745 C744 1.502 . S
C746 H732 0.960 . S
C746 H733 0.961 . S
C746 H734 0.959 . S
C746 C744 1.561 . S
C747 C744 1.526 . S
C747 C748 1.396 . S
C747 C752 1.390 . S
C748 C742 1.465 . S
C748 C747 1.396 . S
C748 C749 1.399 . S
C749 H735 0.929 . S
C749 C748 1.399 . S
C749 C750 1.385 . S
C750 H736 0.931 . S
C750 C749 1.385 . S
C750 C751 1.389 . S
C751 C750 1.389 . S
C751 C752 1.387 . S
C752 H737 0.930 . S
C752 C747 1.390 . S
C752 C751 1.387 . S
H753 C765 0.930 . S
H754 C767 0.930 . S
H755 C768 0.930 . S
H756 C772 0.959 . S
H757 C772 0.959 . S
H758 C772 0.961 . S
H759 C773 0.960 . S
H760 C773 0.961 . S
H761 C773 0.959 . S
H762 C776 0.929 . S
H763 C777 0.931 . S
H764 C779 0.930 . S
C765 H753 0.930 . S
C765 C766 1.399 . S
C765 C770 1.399 . S
C766 C765 1.399 . S
C766 C767 1.376 . S
C767 H754 0.930 . S
C767 C766 1.376 . S
C767 C768 1.388 . S
C768 H755 0.930 . S
C768 C767 1.388 . S
C768 C769 1.390 . S
C769 C768 1.390 . S
C769 C770 1.394 . S
C769 C775 1.465 . S
C770 C765 1.399 . S
C770 C769 1.394 . S
C770 C771 1.516 . S
C771 C770 1.516 . S
C771 C772 1.502 . S
C771 C773 1.561 . S
C771 C774 1.526 . S
C772 H756 0.959 . S
C772 H757 0.959 . S
C772 H758 0.961 . S
C772 C771 1.502 . S
C773 H759 0.960 . S
C773 H760 0.961 . S
C773 H761 0.959 . S
C773 C771 1.561 . S
C774 C771 1.526 . S
C774 C775 1.396 . S
C774 C779 1.390 . S
C775 C769 1.465 . S
C775 C774 1.396 . S
C775 C776 1.399 . S
C776 H762 0.929 . S
C776 C775 1.399 . S
C776 C777 1.385 . S
C777 H763 0.931 . S
C777 C776 1.385 . S
C777 C778 1.389 . S
C778 C777 1.389 . S
C778 C779 1.387 . S
C779 H764 0.930 . S
C779 C774 1.390 . S
C779 C778 1.387 . S
H780 C792 0.930 . S
H781 C794 0.930 . S
H782 C795 0.930 . S
H783 C799 0.959 . S
H784 C799 0.959 . S
H785 C799 0.961 . S
H786 C800 0.960 . S
H787 C800 0.961 . S
H788 C800 0.959 . S
H789 C803 0.929 . S
H790 C804 0.931 . S
H791 C806 0.930 . S
C792 H780 0.930 . S
C792 C793 1.399 . S
C792 C797 1.399 . S
C793 C792 1.399 . S
C793 C794 1.376 . S
C794 H781 0.930 . S
C794 C793 1.376 . S
C794 C795 1.388 . S
C795 H782 0.930 . S
C795 C794 1.388 . S
C795 C796 1.390 . S
C796 C795 1.390 . S
C796 C797 1.394 . S
C796 C802 1.465 . S
C797 C792 1.399 . S
C797 C796 1.394 . S
C797 C798 1.516 . S
C798 C797 1.516 . S
C798 C799 1.502 . S
C798 C800 1.561 . S
C798 C801 1.526 . S
C799 H783 0.959 . S
C799 H784 0.959 . S
C799 H785 0.961 . S
C799 C798 1.502 . S
C800 H786 0.960 . S
C800 H787 0.961 . S
C800 H788 0.959 . S
C800 C798 1.561 . S
C801 C798 1.526 . S
C801 C802 1.396 . S
C801 C806 1.390 . S
C802 C796 1.465 . S
C802 C801 1.396 . S
C802 C803 1.399 . S
C803 H789 0.929 . S
C803 C802 1.399 . S
C803 C804 1.385 . S
C804 H790 0.931 . S
C804 C803 1.385 . S
C804 C805 1.389 . S
C805 C804 1.389 . S
C805 C806 1.387 . S
C806 H791 0.930 . S
C806 C801 1.390 . S
C806 C805 1.387 . S
H807 C819 0.930 . S
H808 C821 0.930 . S
H809 C822 0.930 . S
H810 C826 0.959 . S
H811 C826 0.959 . S
H812 C826 0.961 . S
H813 C827 0.960 . S
H814 C827 0.961 . S
H815 C827 0.959 . S
H816 C830 0.929 . S
H817 C831 0.931 . S
H818 C833 0.930 . S
C819 H807 0.930 . S
C819 C820 1.399 . S
C819 C824 1.399 . S
C820 C819 1.399 . S
C820 C821 1.376 . S
C821 H808 0.930 . S
C821 C820 1.376 . S
C821 C822 1.388 . S
C822 H809 0.930 . S
C822 C821 1.388 . S
C822 C823 1.390 . S
C823 C822 1.390 . S
C823 C824 1.394 . S
C823 C829 1.465 . S
C824 C819 1.399 . S
C824 C823 1.394 . S
C824 C825 1.516 . S
C825 C824 1.516 . S
C825 C826 1.502 . S
C825 C827 1.561 . S
C825 C828 1.526 . S
C826 H810 0.959 . S
C826 H811 0.959 . S
C826 H812 0.961 . S
C826 C825 1.502 . S
C827 H813 0.960 . S
C827 H814 0.961 . S
C827 H815 0.959 . S
C827 C825 1.561 . S
C828 C825 1.526 . S
C828 C829 1.396 . S
C828 C833 1.390 . S
C829 C823 1.465 . S
C829 C828 1.396 . S
C829 C830 1.399 . S
C830 H816 0.929 . S
C830 C829 1.399 . S
C830 C831 1.385 . S
C831 H817 0.931 . S
C831 C830 1.385 . S
C831 C832 1.389 . S
C832 C831 1.389 . S
C832 C833 1.387 . S
C833 H818 0.930 . S
C833 C828 1.390 . S
C833 C832 1.387 . S
H834 C846 0.930 . S
H835 C848 0.930 . S
H836 C849 0.930 . S
H837 C853 0.959 . S
H838 C853 0.959 . S
H839 C853 0.961 . S
H840 C854 0.960 . S
H841 C854 0.961 . S
H842 C854 0.959 . S
H843 C857 0.929 . S
H844 C858 0.931 . S
H845 C860 0.930 . S
C846 H834 0.930 . S
C846 C847 1.399 . S
C846 C851 1.399 . S
C847 C846 1.399 . S
C847 C848 1.376 . S
C848 H835 0.930 . S
C848 C847 1.376 . S
C848 C849 1.388 . S
C849 H836 0.930 . S
C849 C848 1.388 . S
C849 C850 1.390 . S
C850 C849 1.390 . S
C850 C851 1.394 . S
C850 C856 1.465 . S
C851 C846 1.399 . S
C851 C850 1.394 . S
C851 C852 1.516 . S
C852 C851 1.516 . S
C852 C853 1.502 . S
C852 C854 1.561 . S
C852 C855 1.526 . S
C853 H837 0.959 . S
C853 H838 0.959 . S
C853 H839 0.961 . S
C853 C852 1.502 . S
C854 H840 0.960 . S
C854 H841 0.961 . S
C854 H842 0.959 . S
C854 C852 1.561 . S
C855 C852 1.526 . S
C855 C856 1.396 . S
C855 C860 1.390 . S
C856 C850 1.465 . S
C856 C855 1.396 . S
C856 C857 1.399 . S
C857 H843 0.929 . S
C857 C856 1.399 . S
C857 C858 1.385 . S
C858 H844 0.931 . S
C858 C857 1.385 . S
C858 C859 1.389 . S
C859 C858 1.389 . S
C859 C860 1.387 . S
C860 H845 0.930 . S
C860 C855 1.390 . S
C860 C859 1.387 . S
H861 C873 0.930 . S
H862 C875 0.930 . S
H863 C876 0.930 . S
H864 C880 0.959 . S
H865 C880 0.959 . S
H866 C880 0.961 . S
H867 C881 0.960 . S
H868 C881 0.961 . S
H869 C881 0.959 . S
H870 C884 0.929 . S
H871 C885 0.931 . S
H872 C887 0.930 . S
C873 H861 0.930 . S
C873 C874 1.399 . S
C873 C878 1.399 . S
C874 C873 1.399 . S
C874 C875 1.376 . S
C875 H862 0.930 . S
C875 C874 1.376 . S
C875 C876 1.388 . S
C876 H863 0.930 . S
C876 C875 1.388 . S
C876 C877 1.390 . S
C877 C876 1.390 . S
C877 C878 1.394 . S
C877 C883 1.465 . S
C878 C873 1.399 . S
C878 C877 1.394 . S
C878 C879 1.516 . S
C879 C878 1.516 . S
C879 C880 1.502 . S
C879 C881 1.561 . S
C879 C882 1.526 . S
C880 H864 0.959 . S
C880 H865 0.959 . S
C880 H866 0.961 . S
C880 C879 1.502 . S
C881 H867 0.960 . S
C881 H868 0.961 . S
C881 H869 0.959 . S
C881 C879 1.561 . S
C882 C879 1.526 . S
C882 C883 1.396 . S
C882 C887 1.390 . S
C883 C877 1.465 . S
C883 C882 1.396 . S
C883 C884 1.399 . S
C884 H870 0.929 . S
C884 C883 1.399 . S
C884 C885 1.385 . S
C885 H871 0.931 . S
C885 C884 1.385 . S
C885 C886 1.389 . S
C886 C885 1.389 . S
C886 C887 1.387 . S
C887 H872 0.930 . S
C887 C882 1.390 . S
C887 C886 1.387 . S
H888 C900 0.930 . S
H889 C902 0.930 . S
H890 C903 0.930 . S
H891 C907 0.959 . S
H892 C907 0.959 . S
H893 C907 0.961 . S
H894 C908 0.960 . S
H895 C908 0.961 . S
H896 C908 0.959 . S
H897 C911 0.929 . S
H898 C912 0.931 . S
H899 C914 0.930 . S
C900 H888 0.930 . S
C900 C901 1.399 . S
C900 C905 1.399 . S
C901 C900 1.399 . S
C901 C902 1.376 . S
C902 H889 0.930 . S
C902 C901 1.376 . S
C902 C903 1.388 . S
C903 H890 0.930 . S
C903 C902 1.388 . S
C903 C904 1.390 . S
C904 C903 1.390 . S
C904 C905 1.394 . S
C904 C910 1.465 . S
C905 C900 1.399 . S
C905 C904 1.394 . S
C905 C906 1.516 . S
C906 C905 1.516 . S
C906 C907 1.502 . S
C906 C908 1.561 . S
C906 C909 1.526 . S
C907 H891 0.959 . S
C907 H892 0.959 . S
C907 H893 0.961 . S
C907 C906 1.502 . S
C908 H894 0.960 . S
C908 H895 0.961 . S
C908 H896 0.959 . S
C908 C906 1.561 . S
C909 C906 1.526 . S
C909 C910 1.396 . S
C909 C914 1.390 . S
C910 C904 1.465 . S
C910 C909 1.396 . S
C910 C911 1.399 . S
C911 H897 0.929 . S
C911 C910 1.399 . S
C911 C912 1.385 . S
C912 H898 0.931 . S
C912 C911 1.385 . S
C912 C913 1.389 . S
C913 C912 1.389 . S
C913 C914 1.387 . S
C914 H899 0.930 . S
C914 C909 1.390 . S
C914 C913 1.387 . S
H915 C927 0.930 . S
H916 C929 0.930 . S
H917 C930 0.930 . S
H918 C934 0.959 . S
H919 C934 0.959 . S
H920 C934 0.961 . S
H921 C935 0.960 . S
H922 C935 0.961 . S
H923 C935 0.959 . S
H924 C938 0.929 . S
H925 C939 0.931 . S
H926 C941 0.930 . S
C927 H915 0.930 . S
C927 C928 1.399 . S
C927 C932 1.399 . S
C928 C927 1.399 . S
C928 C929 1.376 . S
C929 H916 0.930 . S
C929 C928 1.376 . S
C929 C930 1.388 . S
C930 H917 0.930 . S
C930 C929 1.388 . S
C930 C931 1.390 . S
C931 C930 1.390 . S
C931 C932 1.394 . S
C931 C937 1.465 . S
C932 C927 1.399 . S
C932 C931 1.394 . S
C932 C933 1.516 . S
C933 C932 1.516 . S
C933 C934 1.502 . S
C933 C935 1.561 . S
C933 C936 1.526 . S
C934 H918 0.959 . S
C934 H919 0.959 . S
C934 H920 0.961 . S
C934 C933 1.502 . S
C935 H921 0.960 . S
C935 H922 0.961 . S
C935 H923 0.959 . S
C935 C933 1.561 . S
C936 C933 1.526 . S
C936 C937 1.396 . S
C936 C941 1.390 . S
C937 C931 1.465 . S
C937 C936 1.396 . S
C937 C938 1.399 . S
C938 H924 0.929 . S
C938 C937 1.399 . S
C938 C939 1.385 . S
C939 H925 0.931 . S
C939 C938 1.385 . S
C939 C940 1.389 . S
C940 C939 1.389 . S
C940 C941 1.387 . S
C941 H926 0.930 . S
C941 C936 1.390 . S
C941 C940 1.387 . S
H942 C954 0.930 . S
H943 C956 0.930 . S
H944 C957 0.930 . S
H945 C961 0.959 . S
H946 C961 0.959 . S
H947 C961 0.961 . S
H948 C962 0.960 . S
H949 C962 0.961 . S
H950 C962 0.959 . S
H951 C965 0.929 . S
H952 C966 0.931 . S
H953 C968 0.930 . S
C954 H942 0.930 . S
C954 C955 1.399 . S
C954 C959 1.399 . S
C955 C954 1.399 . S
C955 C956 1.376 . S
C956 H943 0.930 . S
C956 C955 1.376 . S
C956 C957 1.388 . S
C957 H944 0.930 . S
C957 C956 1.388 . S
C957 C958 1.390 . S
C958 C957 1.390 . S
C958 C959 1.394 . S
C958 C964 1.465 . S
C959 C954 1.399 . S
C959 C958 1.394 . S
C959 C960 1.516 . S
C960 C959 1.516 . S
C960 C961 1.502 . S
C960 C962 1.561 . S
C960 C963 1.526 . S
C961 H945 0.959 . S
C961 H946 0.959 . S
C961 H947 0.961 . S
C961 C960 1.502 . S
C962 H948 0.960 . S
C962 H949 0.961 . S
C962 H950 0.959 . S
C962 C960 1.561 . S
C963 C960 1.526 . S
C963 C964 1.396 . S
C963 C968 1.390 . S
C964 C958 1.465 . S
C964 C963 1.396 . S
C964 C965 1.399 . S
C965 H951 0.929 . S
C965 C964 1.399 . S
C965 C966 1.385 . S
C966 H952 0.931 . S
C966 C965 1.385 . S
C966 C967 1.389 . S
C967 C966 1.389 . S
C967 C968 1.387 . S
C968 H953 0.930 . S
C968 C963 1.390 . S
C968 C967 1.387 . S
H969 C981 0.930 . S
H970 C983 0.930 . S
H971 C984 0.930 . S
H972 C988 0.959 . S
H973 C988 0.959 . S
H974 C988 0.961 . S
H975 C989 0.960 . S
H976 C989 0.961 . S
H977 C989 0.959 . S
H978 C992 0.929 . S
H979 C993 0.931 . S
H980 C995 0.930 . S
C981 H969 0.930 . S
C981 C982 1.399 . S
C981 C986 1.399 . S
C982 C981 1.399 . S
C982 C983 1.376 . S
C983 H970 0.930 . S
C983 C982 1.376 . S
C983 C984 1.388 . S
C984 H971 0.930 . S
C984 C983 1.388 . S
C984 C985 1.390 . S
C985 C984 1.390 . S
C985 C986 1.394 . S
C985 C991 1.465 . S
C986 C981 1.399 . S
C986 C985 1.394 . S
C986 C987 1.516 . S
C987 C986 1.516 . S
C987 C988 1.502 . S
C987 C989 1.561 . S
C987 C990 1.526 . S
C988 H972 0.959 . S
C988 H973 0.959 . S
C988 H974 0.961 . S
C988 C987 1.502 . S
C989 H975 0.960 . S
C989 H976 0.961 . S
C989 H977 0.959 . S
C989 C987 1.561 . S
C990 C987 1.526 . S
C990 C991 1.396 . S
C990 C995 1.390 . S
C991 C985 1.465 . S
C991 C990 1.396 . S
C991 C992 1.399 . S
C992 H978 0.929 . S
C992 C991 1.399 . S
C992 C993 1.385 . S
C993 H979 0.931 . S
C993 C992 1.385 . S
C993 C994 1.389 . S
C994 C993 1.389 . S
C994 C995 1.387 . S
C995 H980 0.930 . S
C995 C990 1.390 . S
C995 C994 1.387 . S
H996 C1008 0.930 . S
H997 C1010 0.930 . S
H998 C1011 0.930 . S
H999 C1015 0.959 . S
H1000 C1015 0.959 . S
H1001 C1015 0.961 . S
H1002 C1016 0.960 . S
H1003 C1016 0.961 . S
H1004 C1016 0.959 . S
H1005 C1019 0.929 . S
H1006 C1020 0.931 . S
H1007 C1022 0.930 . S
C1008 H996 0.930 . S
C1008 C1009 1.399 . S
C1008 C1013 1.399 . S
C1009 C1008 1.399 . S
C1009 C1010 1.376 . S
C1010 H997 0.930 . S
C1010 C1009 1.376 . S
C1010 C1011 1.388 . S
C1011 H998 0.930 . S
C1011 C1010 1.388 . S
C1011 C1012 1.390 . S
C1012 C1011 1.390 . S
C1012 C1013 1.394 . S
C1012 C1018 1.465 . S
C1013 C1008 1.399 . S
C1013 C1012 1.394 . S
C1013 C1014 1.516 . S
C1014 C1013 1.516 . S
C1014 C1015 1.502 . S
C1014 C1016 1.561 . S
C1014 C1017 1.526 . S
C1015 H999 0.959 . S
C1015 H1000 0.959 . S
C1015 H1001 0.961 . S
C1015 C1014 1.502 . S
C1016 H1002 0.960 . S
C1016 H1003 0.961 . S
C1016 H1004 0.959 . S
C1016 C1014 1.561 . S
C1017 C1014 1.526 . S
C1017 C1018 1.396 . S
C1017 C1022 1.390 . S
C1018 C1012 1.465 . S
C1018 C1017 1.396 . S
C1018 C1019 1.399 . S
C1019 H1005 0.929 . S
C1019 C1018 1.399 . S
C1019 C1020 1.385 . S
C1020 H1006 0.931 . S
C1020 C1019 1.385 . S
C1020 C1021 1.389 . S
C1021 C1020 1.389 . S
C1021 C1022 1.387 . S
C1022 H1007 0.930 . S
C1022 C1017 1.390 . S
C1022 C1021 1.387 . S
H1023 C1035 0.930 . S
H1024 C1037 0.930 . S
H1025 C1038 0.930 . S
H1026 C1042 0.959 . S
H1027 C1042 0.959 . S
H1028 C1042 0.961 . S
H1029 C1043 0.960 . S
H1030 C1043 0.961 . S
H1031 C1043 0.959 . S
H1032 C1046 0.929 . S
H1033 C1047 0.931 . S
H1034 C1049 0.930 . S
C1035 H1023 0.930 . S
C1035 C1036 1.399 . S
C1035 C1040 1.399 . S
C1036 C1035 1.399 . S
C1036 C1037 1.376 . S
C1037 H1024 0.930 . S
C1037 C1036 1.376 . S
C1037 C1038 1.388 . S
C1038 H1025 0.930 . S
C1038 C1037 1.388 . S
C1038 C1039 1.390 . S
C1039 C1038 1.390 . S
C1039 C1040 1.394 . S
C1039 C1045 1.465 . S
C1040 C1035 1.399 . S
C1040 C1039 1.394 . S
C1040 C1041 1.516 . S
C1041 C1040 1.516 . S
C1041 C1042 1.502 . S
C1041 C1043 1.561 . S
C1041 C1044 1.526 . S
C1042 H1026 0.959 . S
C1042 H1027 0.959 . S
C1042 H1028 0.961 . S
C1042 C1041 1.502 . S
C1043 H1029 0.960 . S
C1043 H1030 0.961 . S
C1043 H1031 0.959 . S
C1043 C1041 1.561 . S
C1044 C1041 1.526 . S
C1044 C1045 1.396 . S
C1044 C1049 1.390 . S
C1045 C1039 1.465 . S
C1045 C1044 1.396 . S
C1045 C1046 1.399 . S
C1046 H1032 0.929 . S
C1046 C1045 1.399 . S
C1046 C1047 1.385 . S
C1047 H1033 0.931 . S
C1047 C1046 1.385 . S
C1047 C1048 1.389 . S
C1048 C1047 1.389 . S
C1048 C1049 1.387 . S
C1049 H1034 0.930 . S
C1049 C1044 1.390 . S
C1049 C1048 1.387 . S
H1050 C1062 0.930 . S
H1051 C1064 0.930 . S
H1052 C1065 0.930 . S
H1053 C1069 0.959 . S
H1054 C1069 0.959 . S
H1055 C1069 0.961 . S
H1056 C1070 0.960 . S
H1057 C1070 0.961 . S
H1058 C1070 0.959 . S
H1059 C1073 0.929 . S
H1060 C1074 0.931 . S
H1061 C1076 0.930 . S
C1062 H1050 0.930 . S
C1062 C1063 1.399 . S
C1062 C1067 1.399 . S
C1063 C1062 1.399 . S
C1063 C1064 1.376 . S
C1064 H1051 0.930 . S
C1064 C1063 1.376 . S
C1064 C1065 1.388 . S
C1065 H1052 0.930 . S
C1065 C1064 1.388 . S
C1065 C1066 1.390 . S
C1066 C1065 1.390 . S
C1066 C1067 1.394 . S
C1066 C1072 1.465 . S
C1067 C1062 1.399 . S
C1067 C1066 1.394 . S
C1067 C1068 1.516 . S
C1068 C1067 1.516 . S
C1068 C1069 1.502 . S
C1068 C1070 1.561 . S
C1068 C1071 1.526 . S
C1069 H1053 0.959 . S
C1069 H1054 0.959 . S
C1069 H1055 0.961 . S
C1069 C1068 1.502 . S
C1070 H1056 0.960 . S
C1070 H1057 0.961 . S
C1070 H1058 0.959 . S
C1070 C1068 1.561 . S
C1071 C1068 1.526 . S
C1071 C1072 1.396 . S
C1071 C1076 1.390 . S
C1072 C1066 1.465 . S
C1072 C1071 1.396 . S
C1072 C1073 1.399 . S
C1073 H1059 0.929 . S
C1073 C1072 1.399 . S
C1073 C1074 1.385 . S
C1074 H1060 0.931 . S
C1074 C1073 1.385 . S
C1074 C1075 1.389 . S
C1075 C1074 1.389 . S
C1075 C1076 1.387 . S
C1076 H1061 0.930 . S
C1076 C1071 1.390 . S
C1076 C1075 1.387 . S
H1077 C1089 0.930 . S
H1078 C1091 0.930 . S
H1079 C1092 0.930 . S
H1080 C1096 0.959 . S
H1081 C1096 0.959 . S
H1082 C1096 0.961 . S
H1083 C1097 0.960 . S
H1084 C1097 0.961 . S
H1085 C1097 0.959 . S
H1086 C1100 0.929 . S
H1087 C1101 0.931 . S
H1088 C1103 0.930 . S
C1089 H1077 0.930 . S
C1089 C1090 1.399 . S
C1089 C1094 1.399 . S
C1090 C1089 1.399 . S
C1090 C1091 1.376 . S
C1091 H1078 0.930 . S
C1091 C1090 1.376 . S
C1091 C1092 1.388 . S
C1092 H1079 0.930 . S
C1092 C1091 1.388 . S
C1092 C1093 1.390 . S
C1093 C1092 1.390 . S
C1093 C1094 1.394 . S
C1093 C1099 1.465 . S
C1094 C1089 1.399 . S
C1094 C1093 1.394 . S
C1094 C1095 1.516 . S
C1095 C1094 1.516 . S
C1095 C1096 1.502 . S
C1095 C1097 1.561 . S
C1095 C1098 1.526 . S
C1096 H1080 0.959 . S
C1096 H1081 0.959 . S
C1096 H1082 0.961 . S
C1096 C1095 1.502 . S
C1097 H1083 0.960 . S
C1097 H1084 0.961 . S
C1097 H1085 0.959 . S
C1097 C1095 1.561 . S
C1098 C1095 1.526 . S
C1098 C1099 1.396 . S
C1098 C1103 1.390 . S
C1099 C1093 1.465 . S
C1099 C1098 1.396 . S
C1099 C1100 1.399 . S
C1100 H1086 0.929 . S
C1100 C1099 1.399 . S
C1100 C1101 1.385 . S
C1101 H1087 0.931 . S
C1101 C1100 1.385 . S
C1101 C1102 1.389 . S
C1102 C1101 1.389 . S
C1102 C1103 1.387 . S
C1103 H1088 0.930 . S
C1103 C1098 1.390 . S
C1103 C1102 1.387 . S
C469 C39 2.126 . S
C481 C325 2.115 . S
C496 C91 1.414 . S
C508 N343 1.429 . S
C535 C371 1.909 . S
C523 C128 1.945 . S
C562 N389 1.236 . S
C550 C188 1.275 . S
C589 C417 2.007 . S
C577 C250 2.031 . S
C616 N435 1.395 . S
C604 C304 1.398 . S
C631 C75 1.981 . S
C643 C380 1.966 . S
C658 C144 1.418 . S
C670 N399 1.412 . S
C697 C426 2.062 . S
C685 C198 2.073 . S
C724 N445 1.156 . S
C712 C234 1.258 . S
C739 C294 1.884 . S
C751 C334 1.865 . S
C778 N353 1.225 . S
C766 C29 1.256 . S
C805 C403 1.959 . S
C793 C38 2.015 . S
C820 C92 1.301 . S
C832 N422 1.262 . S
C859 C449 1.751 . S
C847 C135 1.827 . S
C874 C181 1.138 . S
C886 N330 1.097 . S
C901 C251 1.930 . S
C913 C357 1.860 . S
C928 C303 1.277 . S
C940 N376 1.221 . S
C955 C82 1.874 . S
C967 C440 1.872 . S
C994 N320 1.271 . S
C982 C145 1.298 . S
C1009 C197 1.977 . S
C1021 C348 1.966 . S
C1036 C241 1.132 . S
C1048 N366 1.117 . S
C1063 C287 1.796 . S
C1075 C394 1.762 . S
C1090 C22 1.155 . S
C1102 N412 1.156 . S
