# Generated by pormake.
# Topology ssa, (4,4)-cn, num edge types: 1
# Building blocks:
#     Node 0, Type 0, BuildingBlock: NAWXER_clean_sbu_0, # of connection points: 4
#     Node 1, Type 0, BuildingBlock: NAWXER_clean_sbu_0, # of connection points: 4
#     Node 2, Type 0, BuildingBlock: NAWXER_clean_sbu_0, # of connection points: 4
#     Node 3, Type 0, BuildingBlock: NAWXER_clean_sbu_0, # of connection points: 4
#     Node 4, Type 0, BuildingBlock: NAWXER_clean_sbu_0, # of connection points: 4
#     Node 5, Type 0, BuildingBlock: NAWXER_clean_sbu_0, # of connection points: 4
#     Node 6, Type 1, BuildingBlock: NAWXER_clean_sbu_0, # of connection points: 4
#     Node 7, Type 1, BuildingBlock: NAWXER_clean_sbu_0, # of connection points: 4
#     Node 8, Type 1, BuildingBlock: NAWXER_clean_sbu_0, # of connection points: 4
#     Node 9, Type 1, BuildingBlock: NAWXER_clean_sbu_0, # of connection points: 4
#     Node 10, Type 1, BuildingBlock: NAWXER_clean_sbu_0, # of connection points: 4
#     Node 11, Type 1, BuildingBlock: NAWXER_clean_sbu_0, # of connection points: 4
#     Edge 12, Type (0, 1), BuildingBlock: XIVTED_clean_linker_0, # of connection points: 2
#     Edge 13, Type (0, 1), BuildingBlock: XIVTED_clean_linker_0, # of connection points: 2
#     Edge 14, Type (0, 1), BuildingBlock: XIVTED_clean_linker_0, # of connection points: 2
#     Edge 15, Type (0, 1), BuildingBlock: XIVTED_clean_linker_0, # of connection points: 2
#     Edge 16, Type (0, 1), BuildingBlock: XIVTED_clean_linker_0, # of connection points: 2
#     Edge 17, Type (0, 1), BuildingBlock: XIVTED_clean_linker_0, # of connection points: 2
#     Edge 18, Type (0, 1), BuildingBlock: XIVTED_clean_linker_0, # of connection points: 2
#     Edge 19, Type (0, 1), BuildingBlock: XIVTED_clean_linker_0, # of connection points: 2
#     Edge 20, Type (0, 1), BuildingBlock: XIVTED_clean_linker_0, # of connection points: 2
#     Edge 21, Type (0, 1), BuildingBlock: XIVTED_clean_linker_0, # of connection points: 2
#     Edge 22, Type (0, 1), BuildingBlock: XIVTED_clean_linker_0, # of connection points: 2
#     Edge 23, Type (0, 1), BuildingBlock: XIVTED_clean_linker_0, # of connection points: 2
#     Edge 24, Type (0, 1), BuildingBlock: XIVTED_clean_linker_0, # of connection points: 2
#     Edge 25, Type (0, 1), BuildingBlock: XIVTED_clean_linker_0, # of connection points: 2
#     Edge 26, Type (0, 1), BuildingBlock: XIVTED_clean_linker_0, # of connection points: 2
#     Edge 27, Type (0, 1), BuildingBlock: XIVTED_clean_linker_0, # of connection points: 2
#     Edge 28, Type (0, 1), BuildingBlock: XIVTED_clean_linker_0, # of connection points: 2
#     Edge 29, Type (0, 1), BuildingBlock: XIVTED_clean_linker_0, # of connection points: 2
#     Edge 30, Type (0, 1), BuildingBlock: XIVTED_clean_linker_0, # of connection points: 2
#     Edge 31, Type (0, 1), BuildingBlock: XIVTED_clean_linker_0, # of connection points: 2
#     Edge 32, Type (0, 1), BuildingBlock: XIVTED_clean_linker_0, # of connection points: 2
#     Edge 33, Type (0, 1), BuildingBlock: XIVTED_clean_linker_0, # of connection points: 2
#     Edge 34, Type (0, 1), BuildingBlock: XIVTED_clean_linker_0, # of connection points: 2
#     Edge 35, Type (0, 1), BuildingBlock: XIVTED_clean_linker_0, # of connection points: 2
# Relax obj value: 0.024
# Max RMSD: 0.040
# Mean RMSD: 0.033
data_MOF--net-ssa--node1-NAWXER_clean_sbu_0--node2-NAWXER_clean_sbu_0--edge1-XIVTED_clean_linker_0
_symmetry_space_group_name_H-M    P1
_symmetry_Int_Tables_number       1
_symmetry_cell_setting            triclinic
loop_
_symmetry_equiv_pos_as_xyz
'x, y, z'
_cell_length_a     44.338308
_cell_length_b     44.532114
_cell_length_c     36.613422
_cell_angle_alpha  91.345779
_cell_angle_beta   90.166139
_cell_angle_gamma 120.38998
loop_
_atom_site_label
_atom_site_type_symbol
_atom_site_fract_x
_atom_site_fract_y
_atom_site_fract_z
_atom_type_partial_charge
C0 C 0.9904 0.57203 0.0709 0.0
C1 C 0.93872 0.45701 0.00892 0.0
O2 O 0.96226 0.54459 0.07924 0.0
Zn3 Zn 0.96304 0.51453 0.04007 0.0
O4 O 0.00714 0.57143 0.04263 0.0
Zn5 Zn 0.0037 0.53492 1.00087 0.0
O6 O 0.99772 0.5544 0.95633 0.0
O7 O 0.9517 0.53358 0.99178 0.0
O8 O 0.96647 0.48033 0.99362 0.0
O9 O 0.92744 0.46532 0.03702 0.0
O10 O 0.00982 0.51447 0.05532 0.0
O11 O 0.04695 0.53495 0.00983 0.0
C12 C 0.96675 0.54793 0.96203 0.0
C13 C 0.03971 0.52309 0.04188 0.0
C14 C 0.51362 0.04426 0.53256 0.0
C15 C 0.55762 0.9791 0.4631 0.0
O16 O 0.50647 0.01546 0.54695 0.0
Zn17 Zn 0.51585 0.97323 0.53692 0.0
O18 O 0.5314 0.05359 0.5035 0.0
Zn19 Zn 0.53668 0.01305 0.49713 0.0
O20 O 0.48359 0.97224 0.48714 0.0
O21 O 0.46853 0.93375 0.53049 0.0
O22 O 0.56091 0.00823 0.45497 0.0
O23 O 0.54169 0.96436 0.49233 0.0
O24 O 0.54506 0.97718 0.57908 0.0
O25 O 0.57167 0.0204 0.5412 0.0
C26 C 0.46076 0.94375 0.50147 0.0
C27 C 0.57219 0.00545 0.57049 0.0
C28 C 0.48153 0.43475 0.98523 0.0
C29 C 0.54495 0.55441 0.0368 0.0
O30 O 0.47503 0.45619 0.96916 0.0
Zn31 Zn 0.48968 0.51005 0.9727 0.0
O32 O 0.50243 0.44518 0.01275 0.0
Zn33 Zn 0.51313 0.49329 0.01329 0.0
O34 O 0.46385 0.48701 0.02754 0.0
O35 O 0.44535 0.50745 0.98381 0.0
O36 O 0.54602 0.52842 0.04891 0.0
O37 O 0.52515 0.55004 0.00927 0.0
O38 O 0.51288 0.5262 0.92584 0.0
O39 O 0.5399 0.50859 0.96293 0.0
C40 C 0.44071 0.49315 0.0146 0.0
C41 C 0.53758 0.52013 0.93198 0.0
C42 C 0.03473 0.5093 0.47141 0.0
C43 C 0.95653 0.41461 0.54895 0.0
O44 O 0.04029 0.50472 0.50434 0.0
Zn45 Zn 0.9964 0.46215 0.51063 0.0
O46 O 0.0053 0.48824 0.45568 0.0
Zn47 Zn 0.95731 0.44174 0.46824 0.0
O48 O 0.92224 0.45578 0.46677 0.0
O49 O 0.95988 0.48009 0.51285 0.0
O50 O 0.94298 0.41313 0.51751 0.0
O51 O 0.98791 0.43825 0.55611 0.0
O52 O 0.00031 0.42776 0.47166 0.0
O53 O 0.95701 0.4093 0.43138 0.0
C54 C 0.93283 0.47561 0.49522 0.0
C55 C 0.98438 0.40975 0.44276 0.0
C56 C 0.49975 0.97546 0.0548 0.0
C57 C 0.47342 0.06026 0.00473 0.0
O58 O 0.51112 0.00648 0.06676 0.0
Zn59 Zn 0.48462 0.01744 0.03314 0.0
O60 O 0.47809 0.96341 0.02768 0.0
Zn61 Zn 0.45147 0.9803 0.99198 0.0
O62 O 0.46939 0.978 0.94429 0.0
O63 O 0.50886 0.01739 0.98292 0.0
O64 O 0.45649 0.03021 0.98877 0.0
O65 O 0.49187 0.06439 0.0331 0.0
O66 O 0.43197 0.98272 0.0499 0.0
O67 O 0.4033 0.94824 1.00249 0.0
C68 C 0.50065 0.002 0.95145 0.0
C69 C 0.40392 0.95707 0.03585 0.0
C70 C 0.55668 0.56 0.54099 0.0
C71 C 0.4384 0.49016 0.48874 0.0
O72 O 0.52941 0.55931 0.55292 0.0
Zn73 Zn 0.49631 0.52314 0.5186 0.0
O74 O 0.55397 0.53943 0.51453 0.0
Zn75 Zn 0.51518 0.50001 0.47948 0.0
O76 O 0.53201 0.52074 0.43225 0.0
O77 O 0.51217 0.54795 0.46733 0.0
O78 O 0.46065 0.48358 0.47379 0.0
O79 O 0.4475 0.51051 0.51677 0.0
O80 O 0.49629 0.47805 0.53698 0.0
O81 O 0.51724 0.45919 0.49324 0.0
C82 C 0.52475 0.5448 0.43699 0.0
C83 C 0.50548 0.45653 0.52534 0.0
C84 C 0.26312 0.46954 0.30436 0.0
C85 C 0.19603 0.48802 0.21015 0.0
O86 O 0.24341 0.44182 0.28508 0.0
Zn87 Zn 0.20708 0.42655 0.23945 0.0
O88 O 0.26381 0.49764 0.29706 0.0
Zn89 Zn 0.22985 0.47949 0.25726 0.0
O90 O 0.18299 0.44372 0.28441 0.0
O91 O 0.16284 0.3912 0.25947 0.0
O92 O 0.2161 0.50979 0.23464 0.0
O93 O 0.19092 0.45699 0.2092 0.0
O94 O 0.22916 0.41338 0.20187 0.0
O95 O 0.25671 0.47006 0.21362 0.0
C96 C 0.1599 0.41124 0.28262 0.0
C97 C 0.25373 0.44391 0.195 0.0
C98 C 0.79593 0.26221 0.74163 0.0
C99 C 0.70511 0.17872 0.82023 0.0
O100 O 0.76637 0.25933 0.74782 0.0
Zn101 Zn 0.75041 0.22251 0.78247 0.0
O102 O 0.80475 0.24259 0.75796 0.0
Zn103 Zn 0.78347 0.20193 0.79653 0.0
O104 O 0.77933 0.16188 0.76832 0.0
O105 O 0.7445 0.18032 0.74848 0.0
O106 O 0.73324 0.17729 0.8207 0.0
O107 O 0.70365 0.20189 0.8019 0.0
O108 O 0.78379 0.24745 0.82915 0.0
O109 O 0.81585 0.22313 0.83803 0.0
C110 C 0.75609 0.15927 0.74583 0.0
C111 C 0.80755 0.24569 0.84738 0.0
C112 C 0.60412 0.83526 0.28503 0.0
C113 C 0.61176 0.76659 0.18266 0.0
O114 O 0.63209 0.83967 0.2706 0.0
Zn115 Zn 0.60961 0.80246 0.23323 0.0
O116 O 0.57439 0.81139 0.27231 0.0
Zn117 Zn 0.55403 0.77277 0.2293 0.0
O118 O 0.5278 0.7307 0.25526 0.0
O119 O 0.58489 0.75549 0.26419 0.0
O120 O 0.58045 0.75821 0.19072 0.0
O121 O 0.63745 0.79137 0.2002 0.0
O122 O 0.58578 0.82357 0.19869 0.0
O123 O 0.52873 0.78725 0.19925 0.0
C124 C 0.55374 0.73044 0.26975 0.0
C125 C 0.55473 0.81523 0.18842 0.0
C126 C 0.82671 0.58026 0.76719 0.0
C127 C 0.7609 0.60469 0.67758 0.0
O128 O 0.80044 0.55245 0.75366 0.0
Zn129 Zn 0.76005 0.53891 0.71336 0.0
O130 O 0.83325 0.60968 0.7559 0.0
Zn131 Zn 0.79468 0.593 0.72101 0.0
O132 O 0.74837 0.57102 0.75441 0.0
O133 O 0.7182 0.51458 0.74131 0.0
O134 O 0.78813 0.62691 0.69531 0.0
O135 O 0.7486 0.57202 0.68154 0.0
O136 O 0.76832 0.5126 0.67651 0.0
O137 O 0.80883 0.56827 0.67802 0.0
C138 C 0.72132 0.54092 0.75901 0.0
C139 C 0.79629 0.53744 0.66397 0.0
C140 C 0.25678 0.79551 0.22816 0.0
C141 C 0.19618 0.70565 0.31784 0.0
O142 O 0.23733 0.80169 0.24917 0.0
Zn143 Zn 0.20273 0.7777 0.29389 0.0
O144 O 0.25873 0.76828 0.23242 0.0
Zn145 Zn 0.22689 0.74988 0.27261 0.0
O146 O 0.17883 0.73731 0.24655 0.0
O147 O 0.1569 0.7666 0.27386 0.0
O148 O 0.21574 0.70558 0.29254 0.0
O149 O 0.18989 0.73069 0.32086 0.0
O150 O 0.22594 0.81246 0.33316 0.0
O151 O 0.25468 0.78577 0.31719 0.0
C152 C 0.15461 0.7448 0.24932 0.0
C153 C 0.25178 0.80786 0.33777 0.0
C154 C 0.45313 0.25968 0.80168 0.0
C155 C 0.46517 0.19375 0.69891 0.0
O156 O 0.48462 0.26917 0.79312 0.0
Zn157 Zn 0.51318 0.25718 0.75485 0.0
O158 O 0.42772 0.2361 0.78258 0.0
Zn159 Zn 0.45636 0.22627 0.74912 0.0
O160 O 0.47939 0.20757 0.78611 0.0
O161 O 0.53678 0.24212 0.78932 0.0
O162 O 0.43642 0.1888 0.71183 0.0
O163 O 0.49419 0.21783 0.71285 0.0
O164 O 0.53776 0.29961 0.72649 0.0
O165 O 0.48047 0.27182 0.71802 0.0
C166 C 0.50911 0.21518 0.79977 0.0
C167 C 0.51085 0.29743 0.71121 0.0
H168 H 0.04691 0.53196 0.11548 0.0
H169 H 0.1753 0.4612 0.14099 0.0
H170 H 0.0923 0.51072 0.02146 0.0
H171 H 0.17519 0.53622 0.21762 0.0
H172 H 0.14087 0.47357 0.09782 0.0
H173 H 0.08919 0.52792 0.15494 0.0
C174 C 0.06579 0.52637 0.10316 0.0
C175 C 0.06601 0.5214 0.06519 0.0
C176 C 0.14874 0.48757 0.12392 0.0
C177 C 0.11419 0.51647 0.11025 0.0
C178 C 0.16819 0.48044 0.14862 0.0
C179 C 0.17791 0.49763 0.18297 0.0
C180 C 0.13818 0.51137 0.13405 0.0
C181 C 0.16825 0.52246 0.19139 0.0
C182 C 0.09005 0.52436 0.12567 0.0
C183 C 0.0913 0.51468 0.05061 0.0
N184 N 0.14838 0.52819 0.16731 0.0
N185 N 0.11413 0.51186 0.07327 0.0
H186 H 0.63622 0.05962 0.55365 0.0
H187 H 0.71607 0.08939 0.75632 0.0
H188 H 0.58134 0.99031 0.64119 0.0
H189 H 0.75569 0.16603 0.67282 0.0
H190 H 0.67413 0.04627 0.71141 0.0
H191 H 0.68697 0.09195 0.59385 0.0
C192 C 0.63486 0.05099 0.58132 0.0
C193 C 0.60414 0.02245 0.59417 0.0
C194 C 0.69267 0.07225 0.70271 0.0
C195 C 0.66262 0.05976 0.6407 0.0
C196 C 0.7169 0.09665 0.72814 0.0
C197 C 0.7396 0.13103 0.71793 0.0
C198 C 0.69138 0.08251 0.66696 0.0
C199 C 0.7389 0.1396 0.68152 0.0
C200 C 0.66399 0.06952 0.60431 0.0
C201 C 0.60434 0.01231 0.6302 0.0
N202 N 0.71505 0.11562 0.65745 0.0
N203 N 0.633 0.03121 0.65239 0.0
H204 H 0.55429 0.61505 0.01043 0.0
H205 H 0.6452 0.72989 0.19191 0.0
H206 H 0.58128 0.57446 0.10301 0.0
H207 H 0.58563 0.75047 0.11367 0.0
H208 H 0.63697 0.68031 0.15294 0.0
H209 H 0.58076 0.67173 0.04145 0.0
C210 C 0.56602 0.61805 0.03725 0.0
C211 C 0.56494 0.58964 0.0544 0.0
C212 C 0.62652 0.69628 0.14393 0.0
C213 C 0.59548 0.65501 0.09021 0.0
C214 C 0.63162 0.72478 0.16583 0.0
C215 C 0.61635 0.74435 0.15561 0.0
C216 C 0.60636 0.68778 0.11157 0.0
C217 C 0.59806 0.73615 0.12223 0.0
C218 C 0.5812 0.65056 0.05493 0.0
C219 C 0.58121 0.59552 0.08892 0.0
N220 N 0.59345 0.70842 0.1015 0.0
N221 N 0.5955 0.62752 0.10595 0.0
H222 H 0.95727 0.53489 0.53701 0.0
H223 H 0.77208 0.4787 0.62009 0.0
H224 H 0.8619 0.44894 0.49149 0.0
H225 H 0.86232 0.58095 0.63913 0.0
H226 H 0.80404 0.46721 0.57267 0.0
H227 H 0.92282 0.55289 0.57353 0.0
C228 C 0.92902 0.52019 0.53421 0.0
C229 C 0.91239 0.49036 0.51124 0.0
C230 C 0.8167 0.49228 0.58697 0.0
C231 C 0.87271 0.51026 0.55375 0.0
C232 C 0.79856 0.49881 0.61421 0.0
C233 C 0.81463 0.53076 0.63387 0.0
C234 C 0.85138 0.51768 0.57966 0.0
C235 C 0.84891 0.55591 0.62482 0.0
C236 C 0.90936 0.53043 0.55513 0.0
C237 C 0.87574 0.47222 0.50869 0.0
N238 N 0.86624 0.54868 0.59868 0.0
N239 N 0.85707 0.48211 0.53022 0.0
H240 H 0.35469 0.88837 0.02466 0.0
H241 H 0.2746 0.86363 0.22398 0.0
H242 H 0.38886 0.97369 0.10314 0.0
H243 H 0.28218 0.78263 0.16518 0.0
H244 H 0.30567 0.90349 0.17469 0.0
H245 H 0.31577 0.84852 0.07047 0.0
C246 C 0.35337 0.89888 0.0512 0.0
C247 C 0.37516 0.9344 0.06018 0.0
C248 C 0.30044 0.87697 0.17261 0.0
C249 C 0.33094 0.88894 0.11259 0.0
C250 C 0.28274 0.85421 0.20066 0.0
C251 C 0.27604 0.81983 0.19876 0.0
C252 C 0.31091 0.86509 0.1421 0.0
C253 C 0.28714 0.80901 0.1679 0.0
C254 C 0.33146 0.87605 0.0774 0.0
C255 C 0.37262 0.94648 0.09514 0.0
N256 N 0.30391 0.83154 0.14066 0.0
N257 N 0.351 0.92376 0.12015 0.0
H258 H 0.46507 0.43074 0.58515 0.0
H259 H 0.56475 0.33857 0.66515 0.0
H260 H 0.54548 0.42526 0.52442 0.0
H261 H 0.46165 0.3147 0.6976 0.0
H262 H 0.56366 0.37683 0.61809 0.0
H263 H 0.46828 0.3936 0.63098 0.0
C264 C 0.48322 0.42145 0.58131 0.0
C265 C 0.50488 0.43093 0.55081 0.0
C266 C 0.54141 0.36321 0.63568 0.0
C267 C 0.50923 0.38886 0.60371 0.0
C268 C 0.54217 0.34172 0.66268 0.0
C269 C 0.51324 0.32344 0.68522 0.0
C270 C 0.51178 0.36675 0.63185 0.0
C271 C 0.48446 0.32813 0.68069 0.0
C272 C 0.4851 0.40028 0.60753 0.0
C273 C 0.52803 0.41822 0.54734 0.0
N274 N 0.48451 0.34932 0.65468 0.0
N275 N 0.52984 0.39802 0.57369 0.0
H276 H 0.59602 0.00208 0.39991 0.0
H277 H 0.56286 0.81485 0.34408 0.0
H278 H 0.54866 0.91448 0.47112 0.0
H279 H 0.64495 0.90641 0.29425 0.0
H280 H 0.55633 0.85181 0.38974 0.0
H281 H 0.61336 0.96879 0.35921 0.0
C282 C 0.58947 0.97605 0.40713 0.0
C283 C 0.57057 0.96099 0.43886 0.0
C284 C 0.57616 0.86396 0.3692 0.0
C285 C 0.59012 0.92292 0.39251 0.0
C286 C 0.5799 0.84284 0.34318 0.0
C287 C 0.60459 0.85766 0.3156 0.0
C288 C 0.59661 0.90034 0.36717 0.0
C289 C 0.62589 0.89406 0.31543 0.0
C290 C 0.5995 0.95716 0.384 0.0
C291 C 0.56297 0.9272 0.44692 0.0
N292 N 0.62104 0.91431 0.34055 0.0
N293 N 0.57243 0.90929 0.42378 0.0
H294 H 0.56469 0.56698 0.87617 0.0
H295 H 0.67098 0.48204 0.7911 0.0
H296 H 0.56683 0.4801 0.92311 0.0
H297 H 0.70723 0.59151 0.78162 0.0
H298 H 0.62419 0.47663 0.83072 0.0
H299 H 0.609 0.57221 0.83199 0.0
C300 C 0.57425 0.54892 0.87695 0.0
C301 C 0.5624 0.5233 0.90343 0.0
C302 C 0.64241 0.50182 0.81993 0.0
C303 C 0.61218 0.52872 0.85316 0.0
C304 C 0.66907 0.50491 0.79734 0.0
C305 C 0.69322 0.53733 0.7834 0.0
C306 C 0.63943 0.53119 0.82808 0.0
C307 C 0.68941 0.56612 0.79224 0.0
C308 C 0.59955 0.55201 0.85199 0.0
C309 C 0.57559 0.50052 0.90341 0.0
N310 N 0.6629 0.56237 0.81392 0.0
N311 N 0.5996 0.50366 0.87862 0.0
H312 H 0.0431 0.51004 0.39793 0.0
H313 H 0.17975 0.70919 0.38856 0.0
H314 H 0.08938 0.57206 0.49651 0.0
H315 H 0.1736 0.63659 0.30462 0.0
H316 H 0.14473 0.66041 0.42822 0.0
H317 H 0.08797 0.55699 0.36225 0.0
C318 C 0.06272 0.53361 0.41206 0.0
C319 C 0.06239 0.53741 0.45018 0.0
C320 C 0.15149 0.6552 0.40135 0.0
C321 C 0.11361 0.59113 0.4095 0.0
C322 C 0.17132 0.68294 0.37868 0.0
C323 C 0.17932 0.67676 0.34326 0.0
C324 C 0.13881 0.62103 0.38811 0.0
C325 C 0.16799 0.64237 0.3318 0.0
C326 C 0.08847 0.5602 0.3917 0.0
C327 C 0.08871 0.56823 0.46715 0.0
N328 N 0.14769 0.61565 0.35396 0.0
N329 N 0.11303 0.59422 0.4466 0.0
H330 H 0.53111 0.12589 1.00131 0.0
H331 H 0.46235 0.14735 0.80886 0.0
H332 H 0.42575 0.06156 0.95939 0.0
H333 H 0.55427 0.23376 0.85954 0.0
H334 H 0.45323 0.11402 0.86324 0.0
H335 H 0.5429 0.16644 0.95154 0.0
C336 C 0.51008 0.12099 0.98252 0.0
C337 C 0.4774 0.09023 0.98433 0.0
C338 C 0.47551 0.14022 0.86268 0.0
C339 C 0.4911 0.13557 0.92696 0.0
C340 C 0.48097 0.15918 0.83139 0.0
C341 C 0.50901 0.19347 0.82973 0.0
C342 C 0.49824 0.15542 0.89291 0.0
C343 C 0.53243 0.2073 0.85968 0.0
C344 C 0.51701 0.14387 0.95385 0.0
C345 C 0.45134 0.08484 0.9589 0.0
N346 N 0.52642 0.18823 0.89032 0.0
N347 N 0.45892 0.10693 0.93104 0.0
H348 H 0.4049 0.4366 0.43879 0.0
H349 H 0.2681 0.41383 0.32641 0.0
H350 H 0.39748 0.52019 0.49155 0.0
H351 H 0.30668 0.52241 0.35263 0.0
H352 H 0.30423 0.41243 0.37586 0.0
H353 H 0.35855 0.42726 0.39616 0.0
C354 C 0.39275 0.45234 0.44208 0.0
C355 C 0.40504 0.47912 0.46892 0.0
C356 C 0.30523 0.43672 0.37058 0.0
C357 C 0.35165 0.46865 0.41986 0.0
C358 C 0.28435 0.43749 0.34241 0.0
C359 C 0.28468 0.46844 0.33488 0.0
C360 C 0.32688 0.4672 0.39144 0.0
C361 C 0.30588 0.49807 0.35708 0.0
C362 C 0.36609 0.44692 0.41769 0.0
C363 C 0.38859 0.499 0.47155 0.0
N364 N 0.32616 0.49673 0.38427 0.0
N365 N 0.36318 0.49377 0.4469 0.0
H366 H 0.86915 0.408 0.01528 0.0
H367 H 0.87439 0.27048 0.87386 0.0
H368 H 0.96373 0.42529 0.96356 0.0
H369 H 0.78317 0.28007 0.88924 0.0
H370 H 0.9065 0.31872 0.91857 0.0
H371 H 0.83645 0.35236 0.98092 0.0
C372 C 0.88312 0.39985 0.99719 0.0
C373 C 0.91917 0.42145 0.99206 0.0
C374 C 0.87933 0.30991 0.9124 0.0
C375 C 0.88201 0.35783 0.95294 0.0
C376 C 0.86095 0.28229 0.8871 0.0
C377 C 0.82614 0.27143 0.87764 0.0
C378 C 0.86255 0.32629 0.92882 0.0
C379 C 0.81008 0.28783 0.89549 0.0
C380 C 0.86443 0.36821 0.97747 0.0
C381 C 0.9359 0.40961 0.96809 0.0
N382 N 0.82838 0.31442 0.92015 0.0
N383 N 0.91721 0.37866 0.9494 0.0
H384 H 0.89628 0.5203 0.95718 0.0
H385 H 0.8945 0.62822 0.78786 0.0
H386 H 0.99186 0.591 0.9031 0.0
H387 H 0.80883 0.52616 0.81222 0.0
H388 H 0.92998 0.62195 0.83562 0.0
H389 H 0.86306 0.52959 0.91014 0.0
C390 C 0.91036 0.538 0.93554 0.0
C391 C 0.94696 0.55486 0.93406 0.0
C392 C 0.90342 0.60101 0.83036 0.0
C393 C 0.90888 0.56571 0.8801 0.0
C394 C 0.88313 0.60461 0.80332 0.0
C395 C 0.84867 0.57763 0.79604 0.0
C396 C 0.8888 0.57059 0.85071 0.0
C397 C 0.8353 0.54754 0.81676 0.0
C398 C 0.89131 0.54313 0.90858 0.0
C399 C 0.96367 0.57737 0.90518 0.0
N400 N 0.85527 0.54495 0.84327 0.0
N401 N 0.94449 0.5823 0.87935 0.0
H402 H 0.41561 0.87305 0.50313 0.0
H403 H 0.27259 0.87258 0.36848 0.0
H404 H 0.42726 0.96686 0.45789 0.0
H405 H 0.29211 0.78714 0.37278 0.0
H406 H 0.32067 0.90536 0.41306 0.0
H407 H 0.36116 0.83891 0.46714 0.0
C408 C 0.40646 0.88647 0.48606 0.0
C409 C 0.42609 0.92277 0.48322 0.0
C410 C 0.31414 0.87931 0.40438 0.0
C411 C 0.36391 0.88409 0.44246 0.0
C412 C 0.2867 0.8606 0.37911 0.0
C413 C 0.27862 0.82727 0.36668 0.0
C414 C 0.33301 0.86421 0.41785 0.0
C415 C 0.29776 0.81295 0.38131 0.0
C416 C 0.37555 0.86701 0.46544 0.0
C417 C 0.4131 0.93886 0.46057 0.0
N418 N 0.324 0.83145 0.40613 0.0
N419 N 0.38284 0.91944 0.44109 0.0
H420 H 0.50488 0.3888 0.99468 0.0
H421 H 0.40131 0.27525 0.81611 0.0
H422 H 0.42731 0.40114 0.93629 0.0
H423 H 0.49337 0.28066 0.86292 0.0
H424 H 0.40016 0.3102 0.86872 0.0
H425 H 0.48991 0.3374 0.95595 0.0
C426 C 0.48415 0.38025 0.97433 0.0
C427 C 0.46779 0.39964 0.96827 0.0
C428 C 0.42025 0.30321 0.86765 0.0
C429 C 0.45083 0.34121 0.92357 0.0
C430 C 0.4208 0.28322 0.83775 0.0
C431 C 0.44782 0.2757 0.83495 0.0
C432 C 0.44667 0.31522 0.89488 0.0
C433 C 0.47248 0.28655 0.8637 0.0
C434 C 0.47576 0.35104 0.95204 0.0
C435 C 0.44105 0.3873 0.94147 0.0
N436 N 0.47147 0.30594 0.89225 0.0
N437 N 0.43375 0.35918 0.91977 0.0
H438 H 0.97257 0.38791 0.37029 0.0
H439 H 0.16345 0.42257 0.35553 0.0
H440 H 0.03629 0.39813 0.46437 0.0
H441 H 0.08966 0.37205 0.26641 0.0
H442 H 0.11528 0.41031 0.39613 0.0
H443 H 0.0117 0.37736 0.33172 0.0
C444 C 0.99416 0.38698 0.38299 0.0
C445 C 0.00154 0.39457 0.42053 0.0
C446 C 0.10935 0.40123 0.3679 0.0
C447 C 0.04656 0.38314 0.37661 0.0
C448 C 0.13689 0.40827 0.34476 0.0
C449 C 0.13035 0.3982 0.30778 0.0
C450 C 0.07501 0.38497 0.35371 0.0
C451 C 0.09557 0.37994 0.29495 0.0
C452 C 0.01656 0.38108 0.36094 0.0
C453 C 0.02993 0.39307 0.43548 0.0
N454 N 0.06911 0.3745 0.31777 0.0
N455 N 0.0517 0.38818 0.41343 0.0
H456 H 0.49539 0.02567 0.88522 0.0
H457 H 0.70348 0.13279 0.86874 0.0
H458 H 0.56671 0.01453 0.95601 0.0
H459 H 0.63603 0.16058 0.81181 0.0
H460 H 0.65243 0.08337 0.89394 0.0
H461 H 0.54528 0.06751 0.84937 0.0
C462 C 0.52143 0.03094 0.89218 0.0
C463 C 0.5272 0.01657 0.92322 0.0
C464 C 0.64866 0.10024 0.87601 0.0
C465 C 0.58398 0.0648 0.8835 0.0
C466 C 0.67787 0.12865 0.86172 0.0
C467 C 0.67405 0.15104 0.83829 0.0
C468 C 0.61517 0.09392 0.86689 0.0
C469 C 0.64015 0.14418 0.83009 0.0
C470 C 0.54987 0.05523 0.87221 0.0
C471 C 0.56135 0.02494 0.93199 0.0
N472 N 0.6119 0.11613 0.84439 0.0
N473 N 0.58849 0.04872 0.91241 0.0
H474 H 0.57476 0.5726 0.38378 0.0
H475 H 0.49277 0.68007 0.29884 0.0
H476 H 0.48208 0.57001 0.42384 0.0
H477 H 0.6023 0.71314 0.29011 0.0
H478 H 0.48453 0.63132 0.33535 0.0
H479 H 0.58129 0.61624 0.33934 0.0
C480 C 0.55565 0.5809 0.38286 0.0
C481 C 0.52811 0.56816 0.40759 0.0
C482 C 0.51035 0.64924 0.32536 0.0
C483 C 0.53509 0.61721 0.35725 0.0
C484 C 0.51506 0.67704 0.30456 0.0
C485 C 0.54833 0.70088 0.29181 0.0
C486 C 0.53901 0.64502 0.33312 0.0
C487 C 0.57628 0.69559 0.29986 0.0
C488 C 0.55945 0.60582 0.35779 0.0
C489 C 0.50399 0.57964 0.40552 0.0
N490 N 0.571 0.66816 0.32003 0.0
N491 N 0.50803 0.60349 0.38082 0.0
H492 H 0.53826 0.11405 0.52418 0.0
H493 H 0.4172 0.12552 0.67999 0.0
H494 H 0.46208 0.02497 0.58273 0.0
H495 H 0.51623 0.2125 0.64887 0.0
H496 H 0.42478 0.08868 0.63407 0.0
H497 H 0.52177 0.15083 0.55963 0.0
C498 C 0.5178 0.10217 0.54413 0.0
C499 C 0.50184 0.06649 0.55083 0.0
C500 C 0.44459 0.11596 0.6371 0.0
C501 C 0.48271 0.10827 0.59122 0.0
C502 C 0.44018 0.13696 0.66309 0.0
C503 C 0.4663 0.17195 0.66845 0.0
C504 C 0.47503 0.1303 0.61605 0.0
C505 C 0.49566 0.1855 0.64593 0.0
C506 C 0.50847 0.12316 0.56442 0.0
C507 C 0.47541 0.05246 0.57702 0.0
N508 N 0.49928 0.16467 0.62083 0.0
N509 N 0.46676 0.07338 0.59634 0.0
H510 H 0.40859 0.43844 0.0593 0.0
H511 H 0.29441 0.50421 0.1593 0.0
H512 H 0.40118 0.52485 0.01932 0.0
H513 H 0.26909 0.39713 0.16249 0.0
H514 H 0.33628 0.51429 0.111 0.0
H515 H 0.35989 0.42443 0.09991 0.0
C516 C 0.39648 0.45433 0.05892 0.0
C517 C 0.40898 0.48295 0.03607 0.0
C518 C 0.32136 0.48855 0.12209 0.0
C519 C 0.35358 0.46736 0.08295 0.0
C520 C 0.29766 0.4828 0.14985 0.0
C521 C 0.27842 0.44981 0.16516 0.0
C522 C 0.32639 0.46131 0.11002 0.0
C523 C 0.28342 0.42296 0.15154 0.0
C524 C 0.36862 0.44623 0.08201 0.0
C525 C 0.39222 0.50252 0.03647 0.0
N526 N 0.30725 0.42941 0.12504 0.0
N527 N 0.36565 0.49469 0.06003 0.0
H528 H 0.97636 0.4022 0.61556 0.0
H529 H 0.78067 0.29362 0.68685 0.0
H530 H 0.88552 0.3744 0.54788 0.0
H531 H 0.86577 0.28672 0.73529 0.0
H532 H 0.82053 0.33104 0.64005 0.0
H533 H 0.93753 0.36632 0.66397 0.0
C534 C 0.94834 0.38841 0.6108 0.0
C535 C 0.93418 0.39115 0.57759 0.0
C536 C 0.83042 0.32136 0.66103 0.0
C537 C 0.88982 0.35086 0.63289 0.0
C538 C 0.80778 0.30024 0.68783 0.0
C539 C 0.81991 0.28693 0.71483 0.0
C540 C 0.86549 0.32959 0.66161 0.0
C541 C 0.85528 0.29622 0.71477 0.0
C542 C 0.92624 0.36802 0.6384 0.0
C543 C 0.89764 0.37284 0.57292 0.0
N544 N 0.87686 0.31703 0.68858 0.0
N545 N 0.87673 0.3537 0.60034 0.0
H546 H 0.46931 0.90527 0.04505 0.0
H547 H 0.60028 0.8843 0.17709 0.0
H548 H 0.553 0.99272 0.10481 0.0
H549 H 0.4962 0.80056 0.14905 0.0
H550 H 0.5887 0.92424 0.14301 0.0
H551 H 0.48443 0.86649 0.07535 0.0
C552 C 0.49104 0.91639 0.06442 0.0
C553 C 0.50989 0.95234 0.0725 0.0
C554 C 0.56852 0.89709 0.14428 0.0
C555 C 0.52733 0.90788 0.10723 0.0
C556 C 0.57514 0.87425 0.16347 0.0
C557 C 0.5491 0.83907 0.16592 0.0
C558 C 0.53586 0.88449 0.12701 0.0
C559 C 0.51694 0.82749 0.14799 0.0
C560 C 0.49953 0.89416 0.08181 0.0
C561 C 0.53769 0.96516 0.09794 0.0
N562 N 0.51125 0.85014 0.12922 0.0
N563 N 0.54567 0.9429 0.11442 0.0
H564 H 0.61962 0.58296 0.50965 0.0
H565 H 0.72369 0.63467 0.70018 0.0
H566 H 0.57308 0.58665 0.61174 0.0
H567 H 0.75033 0.59553 0.60444 0.0
H568 H 0.67731 0.63624 0.6646 0.0
H569 H 0.67619 0.60757 0.54069 0.0
C570 C 0.62144 0.58954 0.53857 0.0
C571 C 0.59148 0.58206 0.55835 0.0
C572 C 0.69402 0.62832 0.65117 0.0
C573 C 0.65624 0.60993 0.59413 0.0
C574 C 0.72062 0.62778 0.67128 0.0
C575 C 0.74084 0.61531 0.65487 0.0
C576 C 0.68803 0.61651 0.6145 0.0
C577 C 0.73539 0.60563 0.61779 0.0
C578 C 0.65376 0.60356 0.55626 0.0
C579 C 0.59551 0.59173 0.59559 0.0
N580 N 0.70935 0.60624 0.59887 0.0
N581 N 0.62728 0.6046 0.61252 0.0
H582 H 0.04248 0.6372 0.05478 0.0
H583 H 0.08422 0.70629 0.26314 0.0
H584 H 0.9766 0.57836 0.14333 0.0
H585 H 0.15849 0.74327 0.17601 0.0
H586 H 0.03789 0.66818 0.21845 0.0
H587 H 0.07764 0.68528 0.09761 0.0
C588 C 0.03502 0.63457 0.08319 0.0
C589 C 0.00682 0.60342 0.09552 0.0
C590 C 0.06419 0.68523 0.20909 0.0
C591 C 0.04749 0.65853 0.14505 0.0
C592 C 0.09046 0.70715 0.23446 0.0
C593 C 0.12503 0.7279 0.22303 0.0
C594 C 0.07273 0.68462 0.17219 0.0
C595 C 0.13208 0.72764 0.1858 0.0
C596 C 0.05523 0.66207 0.1077 0.0
C597 C 0.99823 0.60182 0.13265 0.0
N598 N 0.10626 0.70628 0.1618 0.0
N599 N 0.01884 0.6288 0.15627 0.0
loop_
_geom_bond_atom_site_label_1
_geom_bond_atom_site_label_2
_geom_bond_distance
_geom_bond_site_symmetry_2
_ccdc_geom_bond_type
C0 O2 1.258 . S
C0 O4 1.258 . S
C1 O8 1.252 . S
C1 O9 1.258 . S
O2 C0 1.258 . S
O2 Zn3 2.025 1_455 S
Zn3 O2 2.025 1_655 S
Zn3 O7 2.035 1_554 S
Zn3 O9 2.035 1_554 S
Zn3 O10 2.014 1_655 S
O4 C0 1.258 . S
O4 Zn5 2.035 1_554 S
Zn5 O4 2.035 1_556 S
Zn5 O6 2.021 1_455 S
Zn5 O8 2.027 1_455 S
Zn5 O11 2.035 1_556 S
O6 Zn5 2.021 1_655 S
O6 C12 1.254 . S
O7 Zn3 2.035 1_556 S
O7 C12 1.258 . S
O8 C1 1.252 . S
O8 Zn5 2.027 1_655 S
O9 C1 1.258 . S
O9 Zn3 2.035 1_556 S
O10 Zn3 2.014 1_455 S
O10 C13 1.262 . S
O11 Zn5 2.035 1_554 S
O11 C13 1.258 . S
C12 O6 1.254 . S
C12 O7 1.258 . S
C13 O10 1.262 . S
C13 O11 1.258 . S
C14 O16 1.262 . S
C14 O18 1.258 . S
C15 O22 1.254 . S
C15 O23 1.258 . S
O16 C14 1.262 . S
O16 Zn17 2.014 1_545 S
Zn17 O16 2.014 1_565 S
Zn17 O21 2.035 . S
Zn17 O23 2.035 . S
Zn17 O24 2.025 1_565 S
O18 C14 1.258 . S
O18 Zn19 2.035 . S
Zn19 O18 2.035 . S
Zn19 O20 2.027 1_545 S
Zn19 O22 2.021 1_545 S
Zn19 O25 2.035 . S
O20 Zn19 2.027 1_565 S
O20 C26 1.252 . S
O21 Zn17 2.035 . S
O21 C26 1.258 . S
O22 C15 1.254 . S
O22 Zn19 2.021 1_565 S
O23 C15 1.258 . S
O23 Zn17 2.035 . S
O24 Zn17 2.025 1_545 S
O24 C27 1.258 . S
O25 Zn19 2.035 . S
O25 C27 1.258 . S
C26 O20 1.252 . S
C26 O21 1.258 . S
C27 O24 1.258 . S
C27 O25 1.258 . S
C28 O30 1.247 . S
C28 O32 1.258 . S
C29 O36 1.247 . S
C29 O37 1.258 . S
O30 C28 1.247 . S
O30 Zn31 2.028 . S
Zn31 O30 2.028 . S
Zn31 O35 2.035 1_556 S
Zn31 O37 2.035 1_556 S
Zn31 O38 2.028 . S
O32 C28 1.258 . S
O32 Zn33 2.035 1_556 S
Zn33 O32 2.035 1_554 S
Zn33 O34 2.028 . S
Zn33 O36 2.028 . S
Zn33 O39 2.035 1_554 S
O34 Zn33 2.028 . S
O34 C40 1.247 . S
O35 Zn31 2.035 1_554 S
O35 C40 1.258 . S
O36 C29 1.247 . S
O36 Zn33 2.028 . S
O37 C29 1.258 . S
O37 Zn31 2.035 1_554 S
O38 Zn31 2.028 . S
O38 C41 1.247 . S
O39 Zn33 2.035 1_556 S
O39 C41 1.258 . S
C40 O34 1.247 . S
C40 O35 1.258 . S
C41 O38 1.247 . S
C41 O39 1.258 . S
C42 O44 1.247 . S
C42 O46 1.271 . S
C43 O50 1.247 . S
C43 O51 1.265 . S
O44 C42 1.247 . S
O44 Zn45 2.028 . S
Zn45 O44 2.028 . S
Zn45 O49 2.027 1_455 S
Zn45 O51 2.034 1_455 S
Zn45 O52 2.028 . S
O46 C42 1.271 . S
O46 Zn47 2.032 1_455 S
Zn47 O46 2.032 1_655 S
Zn47 O48 2.028 . S
Zn47 O50 2.028 . S
Zn47 O53 2.020 1_655 S
O48 Zn47 2.028 . S
O48 C54 1.247 . S
O49 Zn45 2.027 1_655 S
O49 C54 1.267 . S
O50 C43 1.247 . S
O50 Zn47 2.028 . S
O51 C43 1.265 . S
O51 Zn45 2.034 1_655 S
O52 Zn45 2.028 . S
O52 C55 1.247 . S
O53 Zn47 2.020 1_455 S
O53 C55 1.276 . S
C54 O48 1.247 . S
C54 O49 1.267 . S
C55 O52 1.247 . S
C55 O53 1.276 . S
C56 O58 1.254 . S
C56 O60 1.258 . S
C57 O64 1.262 . S
C57 O65 1.258 . S
O58 C56 1.254 . S
O58 Zn59 2.021 1_565 S
Zn59 O58 2.021 1_545 S
Zn59 O63 2.035 1_554 S
Zn59 O65 2.035 1_554 S
Zn59 O66 2.027 1_545 S
O60 C56 1.258 . S
O60 Zn61 2.035 1_554 S
Zn61 O60 2.035 1_556 S
Zn61 O62 2.025 1_565 S
Zn61 O64 2.014 1_565 S
Zn61 O67 2.035 1_556 S
O62 Zn61 2.025 1_545 S
O62 C68 1.258 . S
O63 Zn59 2.035 1_556 S
O63 C68 1.258 . S
O64 C57 1.262 . S
O64 Zn61 2.014 1_545 S
O65 C57 1.258 . S
O65 Zn59 2.035 1_556 S
O66 Zn59 2.027 1_565 S
O66 C69 1.252 . S
O67 Zn61 2.035 1_554 S
O67 C69 1.258 . S
C68 O62 1.258 . S
C68 O63 1.258 . S
C69 O66 1.252 . S
C69 O67 1.258 . S
C70 O72 1.247 . S
C70 O74 1.258 . S
C71 O78 1.247 . S
C71 O79 1.258 . S
O72 C70 1.247 . S
O72 Zn73 2.028 . S
Zn73 O72 2.028 . S
Zn73 O77 2.035 . S
Zn73 O79 2.035 . S
Zn73 O80 2.028 . S
O74 C70 1.258 . S
O74 Zn75 2.035 . S
Zn75 O74 2.035 . S
Zn75 O76 2.028 . S
Zn75 O78 2.028 . S
Zn75 O81 2.035 . S
O76 Zn75 2.028 . S
O76 C82 1.247 . S
O77 Zn73 2.035 . S
O77 C82 1.258 . S
O78 C71 1.247 . S
O78 Zn75 2.028 . S
O79 C71 1.258 . S
O79 Zn73 2.035 . S
O80 Zn73 2.028 . S
O80 C83 1.247 . S
O81 Zn75 2.035 . S
O81 C83 1.258 . S
C82 O76 1.247 . S
C82 O77 1.258 . S
C83 O80 1.247 . S
C83 O81 1.258 . S
C84 O86 1.247 . S
C84 O88 1.258 . S
C85 O92 1.247 . S
C85 O93 1.258 . S
O86 C84 1.247 . S
O86 Zn87 2.028 . S
Zn87 O86 2.028 . S
Zn87 O91 2.035 . S
Zn87 O93 2.035 . S
Zn87 O94 2.028 . S
O88 C84 1.258 . S
O88 Zn89 2.035 . S
Zn89 O88 2.035 . S
Zn89 O90 2.028 . S
Zn89 O92 2.028 . S
Zn89 O95 2.035 . S
O90 Zn89 2.028 . S
O90 C96 1.247 . S
O91 Zn87 2.035 . S
O91 C96 1.258 . S
O92 C85 1.247 . S
O92 Zn89 2.028 . S
O93 C85 1.258 . S
O93 Zn87 2.035 . S
O94 Zn87 2.028 . S
O94 C97 1.247 . S
O95 Zn89 2.035 . S
O95 C97 1.258 . S
C96 O90 1.247 . S
C96 O91 1.258 . S
C97 O94 1.247 . S
C97 O95 1.258 . S
C98 O100 1.247 . S
C98 O102 1.258 . S
C99 O106 1.247 . S
C99 O107 1.258 . S
O100 C98 1.247 . S
O100 Zn101 2.028 . S
Zn101 O100 2.028 . S
Zn101 O105 2.035 . S
Zn101 O107 2.035 . S
Zn101 O108 2.028 . S
O102 C98 1.258 . S
O102 Zn103 2.035 . S
Zn103 O102 2.035 . S
Zn103 O104 2.028 . S
Zn103 O106 2.028 . S
Zn103 O109 2.035 . S
O104 Zn103 2.028 . S
O104 C110 1.247 . S
O105 Zn101 2.035 . S
O105 C110 1.258 . S
O106 C99 1.247 . S
O106 Zn103 2.028 . S
O107 C99 1.258 . S
O107 Zn101 2.035 . S
O108 Zn101 2.028 . S
O108 C111 1.247 . S
O109 Zn103 2.035 . S
O109 C111 1.258 . S
C110 O104 1.247 . S
C110 O105 1.258 . S
C111 O108 1.247 . S
C111 O109 1.258 . S
C112 O114 1.247 . S
C112 O116 1.258 . S
C113 O120 1.247 . S
C113 O121 1.258 . S
O114 C112 1.247 . S
O114 Zn115 2.028 . S
Zn115 O114 2.028 . S
Zn115 O119 2.035 . S
Zn115 O121 2.035 . S
Zn115 O122 2.028 . S
O116 C112 1.258 . S
O116 Zn117 2.035 . S
Zn117 O116 2.035 . S
Zn117 O118 2.028 . S
Zn117 O120 2.028 . S
Zn117 O123 2.035 . S
O118 Zn117 2.028 . S
O118 C124 1.247 . S
O119 Zn115 2.035 . S
O119 C124 1.258 . S
O120 C113 1.247 . S
O120 Zn117 2.028 . S
O121 C113 1.258 . S
O121 Zn115 2.035 . S
O122 Zn115 2.028 . S
O122 C125 1.247 . S
O123 Zn117 2.035 . S
O123 C125 1.258 . S
C124 O118 1.247 . S
C124 O119 1.258 . S
C125 O122 1.247 . S
C125 O123 1.258 . S
C126 O128 1.247 . S
C126 O130 1.258 . S
C127 O134 1.247 . S
C127 O135 1.258 . S
O128 C126 1.247 . S
O128 Zn129 2.028 . S
Zn129 O128 2.028 . S
Zn129 O133 2.035 . S
Zn129 O135 2.035 . S
Zn129 O136 2.028 . S
O130 C126 1.258 . S
O130 Zn131 2.035 . S
Zn131 O130 2.035 . S
Zn131 O132 2.028 . S
Zn131 O134 2.028 . S
Zn131 O137 2.035 . S
O132 Zn131 2.028 . S
O132 C138 1.247 . S
O133 Zn129 2.035 . S
O133 C138 1.258 . S
O134 C127 1.247 . S
O134 Zn131 2.028 . S
O135 C127 1.258 . S
O135 Zn129 2.035 . S
O136 Zn129 2.028 . S
O136 C139 1.247 . S
O137 Zn131 2.035 . S
O137 C139 1.258 . S
C138 O132 1.247 . S
C138 O133 1.258 . S
C139 O136 1.247 . S
C139 O137 1.258 . S
C140 O142 1.247 . S
C140 O144 1.258 . S
C141 O148 1.247 . S
C141 O149 1.258 . S
O142 C140 1.247 . S
O142 Zn143 2.028 . S
Zn143 O142 2.028 . S
Zn143 O147 2.035 . S
Zn143 O149 2.035 . S
Zn143 O150 2.028 . S
O144 C140 1.258 . S
O144 Zn145 2.035 . S
Zn145 O144 2.035 . S
Zn145 O146 2.028 . S
Zn145 O148 2.028 . S
Zn145 O151 2.035 . S
O146 Zn145 2.028 . S
O146 C152 1.247 . S
O147 Zn143 2.035 . S
O147 C152 1.258 . S
O148 C141 1.247 . S
O148 Zn145 2.028 . S
O149 C141 1.258 . S
O149 Zn143 2.035 . S
O150 Zn143 2.028 . S
O150 C153 1.247 . S
O151 Zn145 2.035 . S
O151 C153 1.258 . S
C152 O146 1.247 . S
C152 O147 1.258 . S
C153 O150 1.247 . S
C153 O151 1.258 . S
C154 O156 1.247 . S
C154 O158 1.258 . S
C155 O162 1.247 . S
C155 O163 1.258 . S
O156 C154 1.247 . S
O156 Zn157 2.028 . S
Zn157 O156 2.028 . S
Zn157 O161 2.035 . S
Zn157 O163 2.035 . S
Zn157 O164 2.028 . S
O158 C154 1.258 . S
O158 Zn159 2.035 . S
Zn159 O158 2.035 . S
Zn159 O160 2.028 . S
Zn159 O162 2.028 . S
Zn159 O165 2.035 . S
O160 Zn159 2.028 . S
O160 C166 1.247 . S
O161 Zn157 2.035 . S
O161 C166 1.258 . S
O162 C155 1.247 . S
O162 Zn159 2.028 . S
O163 C155 1.258 . S
O163 Zn157 2.035 . S
O164 Zn157 2.028 . S
O164 C167 1.247 . S
O165 Zn159 2.035 . S
O165 C167 1.258 . S
C166 O160 1.247 . S
C166 O161 1.258 . S
C167 O164 1.247 . S
C167 O165 1.258 . S
H168 C174 0.930 . S
H169 C178 0.930 . S
H170 C183 0.929 . S
H171 C181 0.929 . S
H172 C176 0.929 . S
H173 C182 0.929 . S
C174 H168 0.930 . S
C174 C175 1.367 . S
C174 C182 1.378 . S
C175 C174 1.367 . S
C175 C183 1.433 . S
C176 H172 0.929 . S
C176 C178 1.378 . S
C176 C180 1.350 . S
C177 C180 1.463 . S
C177 C182 1.350 . S
C177 N185 1.427 . S
C178 H169 0.930 . S
C178 C176 1.378 . S
C178 C179 1.367 . S
C179 C178 1.367 . S
C179 C181 1.433 . S
C180 C176 1.350 . S
C180 C177 1.463 . S
C180 N184 1.427 . S
C181 H171 0.929 . S
C181 C179 1.433 . S
C181 N184 1.384 . S
C182 H173 0.929 . S
C182 C174 1.378 . S
C182 C177 1.350 . S
C183 H170 0.929 . S
C183 C175 1.433 . S
C183 N185 1.384 . S
N184 C180 1.427 . S
N184 C181 1.384 . S
N185 C177 1.427 . S
N185 C183 1.384 . S
H186 C192 0.930 . S
H187 C196 0.930 . S
H188 C201 0.929 . S
H189 C199 0.929 . S
H190 C194 0.929 . S
H191 C200 0.929 . S
C192 H186 0.930 . S
C192 C193 1.367 . S
C192 C200 1.378 . S
C193 C192 1.367 . S
C193 C201 1.433 . S
C194 H190 0.929 . S
C194 C196 1.378 . S
C194 C198 1.350 . S
C195 C198 1.463 . S
C195 C200 1.350 . S
C195 N203 1.427 . S
C196 H187 0.930 . S
C196 C194 1.378 . S
C196 C197 1.367 . S
C197 C196 1.367 . S
C197 C199 1.433 . S
C198 C194 1.350 . S
C198 C195 1.463 . S
C198 N202 1.427 . S
C199 H189 0.929 . S
C199 C197 1.433 . S
C199 N202 1.384 . S
C200 H191 0.929 . S
C200 C192 1.378 . S
C200 C195 1.350 . S
C201 H188 0.929 . S
C201 C193 1.433 . S
C201 N203 1.384 . S
N202 C198 1.427 . S
N202 C199 1.384 . S
N203 C195 1.427 . S
N203 C201 1.384 . S
H204 C210 0.930 . S
H205 C214 0.930 . S
H206 C219 0.929 . S
H207 C217 0.929 . S
H208 C212 0.929 . S
H209 C218 0.929 . S
C210 H204 0.930 . S
C210 C211 1.367 . S
C210 C218 1.378 . S
C211 C210 1.367 . S
C211 C219 1.433 . S
C212 H208 0.929 . S
C212 C214 1.378 . S
C212 C216 1.350 . S
C213 C216 1.463 . S
C213 C218 1.350 . S
C213 N221 1.427 . S
C214 H205 0.930 . S
C214 C212 1.378 . S
C214 C215 1.367 . S
C215 C214 1.367 . S
C215 C217 1.433 . S
C216 C212 1.350 . S
C216 C213 1.463 . S
C216 N220 1.427 . S
C217 H207 0.929 . S
C217 C215 1.433 . S
C217 N220 1.384 . S
C218 H209 0.929 . S
C218 C210 1.378 . S
C218 C213 1.350 . S
C219 H206 0.929 . S
C219 C211 1.433 . S
C219 N221 1.384 . S
N220 C216 1.427 . S
N220 C217 1.384 . S
N221 C213 1.427 . S
N221 C219 1.384 . S
H222 C228 0.930 . S
H223 C232 0.930 . S
H224 C237 0.929 . S
H225 C235 0.929 . S
H226 C230 0.929 . S
H227 C236 0.929 . S
C228 H222 0.930 . S
C228 C229 1.367 . S
C228 C236 1.378 . S
C229 C228 1.367 . S
C229 C237 1.433 . S
C230 H226 0.929 . S
C230 C232 1.378 . S
C230 C234 1.350 . S
C231 C234 1.463 . S
C231 C236 1.350 . S
C231 N239 1.427 . S
C232 H223 0.930 . S
C232 C230 1.378 . S
C232 C233 1.367 . S
C233 C232 1.367 . S
C233 C235 1.433 . S
C234 C230 1.350 . S
C234 C231 1.463 . S
C234 N238 1.427 . S
C235 H225 0.929 . S
C235 C233 1.433 . S
C235 N238 1.384 . S
C236 H227 0.929 . S
C236 C228 1.378 . S
C236 C231 1.350 . S
C237 H224 0.929 . S
C237 C229 1.433 . S
C237 N239 1.384 . S
N238 C234 1.427 . S
N238 C235 1.384 . S
N239 C231 1.427 . S
N239 C237 1.384 . S
H240 C246 0.930 . S
H241 C250 0.930 . S
H242 C255 0.929 . S
H243 C253 0.929 . S
H244 C248 0.929 . S
H245 C254 0.929 . S
C246 H240 0.930 . S
C246 C247 1.367 . S
C246 C254 1.378 . S
C247 C246 1.367 . S
C247 C255 1.433 . S
C248 H244 0.929 . S
C248 C250 1.378 . S
C248 C252 1.350 . S
C249 C252 1.463 . S
C249 C254 1.350 . S
C249 N257 1.427 . S
C250 H241 0.930 . S
C250 C248 1.378 . S
C250 C251 1.367 . S
C251 C250 1.367 . S
C251 C253 1.433 . S
C252 C248 1.350 . S
C252 C249 1.463 . S
C252 N256 1.427 . S
C253 H243 0.929 . S
C253 C251 1.433 . S
C253 N256 1.384 . S
C254 H245 0.929 . S
C254 C246 1.378 . S
C254 C249 1.350 . S
C255 H242 0.929 . S
C255 C247 1.433 . S
C255 N257 1.384 . S
N256 C252 1.427 . S
N256 C253 1.384 . S
N257 C249 1.427 . S
N257 C255 1.384 . S
H258 C264 0.930 . S
H259 C268 0.930 . S
H260 C273 0.929 . S
H261 C271 0.929 . S
H262 C266 0.929 . S
H263 C272 0.929 . S
C264 H258 0.930 . S
C264 C265 1.367 . S
C264 C272 1.378 . S
C265 C264 1.367 . S
C265 C273 1.433 . S
C266 H262 0.929 . S
C266 C268 1.378 . S
C266 C270 1.350 . S
C267 C270 1.463 . S
C267 C272 1.350 . S
C267 N275 1.427 . S
C268 H259 0.930 . S
C268 C266 1.378 . S
C268 C269 1.367 . S
C269 C268 1.367 . S
C269 C271 1.433 . S
C270 C266 1.350 . S
C270 C267 1.463 . S
C270 N274 1.427 . S
C271 H261 0.929 . S
C271 C269 1.433 . S
C271 N274 1.384 . S
C272 H263 0.929 . S
C272 C264 1.378 . S
C272 C267 1.350 . S
C273 H260 0.929 . S
C273 C265 1.433 . S
C273 N275 1.384 . S
N274 C270 1.427 . S
N274 C271 1.384 . S
N275 C267 1.427 . S
N275 C273 1.384 . S
H276 C282 0.930 . S
H277 C286 0.930 . S
H278 C291 0.929 . S
H279 C289 0.929 . S
H280 C284 0.929 . S
H281 C290 0.929 . S
C282 H276 0.930 . S
C282 C283 1.367 . S
C282 C290 1.378 . S
C283 C282 1.367 . S
C283 C291 1.433 . S
C284 H280 0.929 . S
C284 C286 1.378 . S
C284 C288 1.350 . S
C285 C288 1.463 . S
C285 C290 1.350 . S
C285 N293 1.427 . S
C286 H277 0.930 . S
C286 C284 1.378 . S
C286 C287 1.367 . S
C287 C286 1.367 . S
C287 C289 1.433 . S
C288 C284 1.350 . S
C288 C285 1.463 . S
C288 N292 1.427 . S
C289 H279 0.929 . S
C289 C287 1.433 . S
C289 N292 1.384 . S
C290 H281 0.929 . S
C290 C282 1.378 . S
C290 C285 1.350 . S
C291 H278 0.929 . S
C291 C283 1.433 . S
C291 N293 1.384 . S
N292 C288 1.427 . S
N292 C289 1.384 . S
N293 C285 1.427 . S
N293 C291 1.384 . S
H294 C300 0.930 . S
H295 C304 0.930 . S
H296 C309 0.929 . S
H297 C307 0.929 . S
H298 C302 0.929 . S
H299 C308 0.929 . S
C300 H294 0.930 . S
C300 C301 1.367 . S
C300 C308 1.378 . S
C301 C300 1.367 . S
C301 C309 1.433 . S
C302 H298 0.929 . S
C302 C304 1.378 . S
C302 C306 1.350 . S
C303 C306 1.463 . S
C303 C308 1.350 . S
C303 N311 1.427 . S
C304 H295 0.930 . S
C304 C302 1.378 . S
C304 C305 1.367 . S
C305 C304 1.367 . S
C305 C307 1.433 . S
C306 C302 1.350 . S
C306 C303 1.463 . S
C306 N310 1.427 . S
C307 H297 0.929 . S
C307 C305 1.433 . S
C307 N310 1.384 . S
C308 H299 0.929 . S
C308 C300 1.378 . S
C308 C303 1.350 . S
C309 H296 0.929 . S
C309 C301 1.433 . S
C309 N311 1.384 . S
N310 C306 1.427 . S
N310 C307 1.384 . S
N311 C303 1.427 . S
N311 C309 1.384 . S
H312 C318 0.930 . S
H313 C322 0.930 . S
H314 C327 0.929 . S
H315 C325 0.929 . S
H316 C320 0.929 . S
H317 C326 0.929 . S
C318 H312 0.930 . S
C318 C319 1.367 . S
C318 C326 1.378 . S
C319 C318 1.367 . S
C319 C327 1.433 . S
C320 H316 0.929 . S
C320 C322 1.378 . S
C320 C324 1.350 . S
C321 C324 1.463 . S
C321 C326 1.350 . S
C321 N329 1.427 . S
C322 H313 0.930 . S
C322 C320 1.378 . S
C322 C323 1.367 . S
C323 C322 1.367 . S
C323 C325 1.433 . S
C324 C320 1.350 . S
C324 C321 1.463 . S
C324 N328 1.427 . S
C325 H315 0.929 . S
C325 C323 1.433 . S
C325 N328 1.384 . S
C326 H317 0.929 . S
C326 C318 1.378 . S
C326 C321 1.350 . S
C327 H314 0.929 . S
C327 C319 1.433 . S
C327 N329 1.384 . S
N328 C324 1.427 . S
N328 C325 1.384 . S
N329 C321 1.427 . S
N329 C327 1.384 . S
H330 C336 0.930 . S
H331 C340 0.930 . S
H332 C345 0.929 . S
H333 C343 0.929 . S
H334 C338 0.929 . S
H335 C344 0.929 . S
C336 H330 0.930 . S
C336 C337 1.367 . S
C336 C344 1.378 . S
C337 C336 1.367 . S
C337 C345 1.433 . S
C338 H334 0.929 . S
C338 C340 1.378 . S
C338 C342 1.350 . S
C339 C342 1.463 . S
C339 C344 1.350 . S
C339 N347 1.427 . S
C340 H331 0.930 . S
C340 C338 1.378 . S
C340 C341 1.367 . S
C341 C340 1.367 . S
C341 C343 1.433 . S
C342 C338 1.350 . S
C342 C339 1.463 . S
C342 N346 1.427 . S
C343 H333 0.929 . S
C343 C341 1.433 . S
C343 N346 1.384 . S
C344 H335 0.929 . S
C344 C336 1.378 . S
C344 C339 1.350 . S
C345 H332 0.929 . S
C345 C337 1.433 . S
C345 N347 1.384 . S
N346 C342 1.427 . S
N346 C343 1.384 . S
N347 C339 1.427 . S
N347 C345 1.384 . S
H348 C354 0.930 . S
H349 C358 0.930 . S
H350 C363 0.929 . S
H351 C361 0.929 . S
H352 C356 0.929 . S
H353 C362 0.929 . S
C354 H348 0.930 . S
C354 C355 1.367 . S
C354 C362 1.378 . S
C355 C354 1.367 . S
C355 C363 1.433 . S
C356 H352 0.929 . S
C356 C358 1.378 . S
C356 C360 1.350 . S
C357 C360 1.463 . S
C357 C362 1.350 . S
C357 N365 1.427 . S
C358 H349 0.930 . S
C358 C356 1.378 . S
C358 C359 1.367 . S
C359 C358 1.367 . S
C359 C361 1.433 . S
C360 C356 1.350 . S
C360 C357 1.463 . S
C360 N364 1.427 . S
C361 H351 0.929 . S
C361 C359 1.433 . S
C361 N364 1.384 . S
C362 H353 0.929 . S
C362 C354 1.378 . S
C362 C357 1.350 . S
C363 H350 0.929 . S
C363 C355 1.433 . S
C363 N365 1.384 . S
N364 C360 1.427 . S
N364 C361 1.384 . S
N365 C357 1.427 . S
N365 C363 1.384 . S
H366 C372 0.930 . S
H367 C376 0.930 . S
H368 C381 0.929 . S
H369 C379 0.929 . S
H370 C374 0.929 . S
H371 C380 0.929 . S
C372 H366 0.930 . S
C372 C373 1.367 . S
C372 C380 1.378 . S
C373 C372 1.367 . S
C373 C381 1.433 . S
C374 H370 0.929 . S
C374 C376 1.378 . S
C374 C378 1.350 . S
C375 C378 1.463 . S
C375 C380 1.350 . S
C375 N383 1.427 . S
C376 H367 0.930 . S
C376 C374 1.378 . S
C376 C377 1.367 . S
C377 C376 1.367 . S
C377 C379 1.433 . S
C378 C374 1.350 . S
C378 C375 1.463 . S
C378 N382 1.427 . S
C379 H369 0.929 . S
C379 C377 1.433 . S
C379 N382 1.384 . S
C380 H371 0.929 . S
C380 C372 1.378 . S
C380 C375 1.350 . S
C381 H368 0.929 . S
C381 C373 1.433 . S
C381 N383 1.384 . S
N382 C378 1.427 . S
N382 C379 1.384 . S
N383 C375 1.427 . S
N383 C381 1.384 . S
H384 C390 0.930 . S
H385 C394 0.930 . S
H386 C399 0.929 . S
H387 C397 0.929 . S
H388 C392 0.929 . S
H389 C398 0.929 . S
C390 H384 0.930 . S
C390 C391 1.367 . S
C390 C398 1.378 . S
C391 C390 1.367 . S
C391 C399 1.433 . S
C392 H388 0.929 . S
C392 C394 1.378 . S
C392 C396 1.350 . S
C393 C396 1.463 . S
C393 C398 1.350 . S
C393 N401 1.427 . S
C394 H385 0.930 . S
C394 C392 1.378 . S
C394 C395 1.367 . S
C395 C394 1.367 . S
C395 C397 1.433 . S
C396 C392 1.350 . S
C396 C393 1.463 . S
C396 N400 1.427 . S
C397 H387 0.929 . S
C397 C395 1.433 . S
C397 N400 1.384 . S
C398 H389 0.929 . S
C398 C390 1.378 . S
C398 C393 1.350 . S
C399 H386 0.929 . S
C399 C391 1.433 . S
C399 N401 1.384 . S
N400 C396 1.427 . S
N400 C397 1.384 . S
N401 C393 1.427 . S
N401 C399 1.384 . S
H402 C408 0.930 . S
H403 C412 0.930 . S
H404 C417 0.929 . S
H405 C415 0.929 . S
H406 C410 0.929 . S
H407 C416 0.929 . S
C408 H402 0.930 . S
C408 C409 1.367 . S
C408 C416 1.378 . S
C409 C408 1.367 . S
C409 C417 1.433 . S
C410 H406 0.929 . S
C410 C412 1.378 . S
C410 C414 1.350 . S
C411 C414 1.463 . S
C411 C416 1.350 . S
C411 N419 1.427 . S
C412 H403 0.930 . S
C412 C410 1.378 . S
C412 C413 1.367 . S
C413 C412 1.367 . S
C413 C415 1.433 . S
C414 C410 1.350 . S
C414 C411 1.463 . S
C414 N418 1.427 . S
C415 H405 0.929 . S
C415 C413 1.433 . S
C415 N418 1.384 . S
C416 H407 0.929 . S
C416 C408 1.378 . S
C416 C411 1.350 . S
C417 H404 0.929 . S
C417 C409 1.433 . S
C417 N419 1.384 . S
N418 C414 1.427 . S
N418 C415 1.384 . S
N419 C411 1.427 . S
N419 C417 1.384 . S
H420 C426 0.930 . S
H421 C430 0.930 . S
H422 C435 0.929 . S
H423 C433 0.929 . S
H424 C428 0.929 . S
H425 C434 0.929 . S
C426 H420 0.930 . S
C426 C427 1.367 . S
C426 C434 1.378 . S
C427 C426 1.367 . S
C427 C435 1.433 . S
C428 H424 0.929 . S
C428 C430 1.378 . S
C428 C432 1.350 . S
C429 C432 1.463 . S
C429 C434 1.350 . S
C429 N437 1.427 . S
C430 H421 0.930 . S
C430 C428 1.378 . S
C430 C431 1.367 . S
C431 C430 1.367 . S
C431 C433 1.433 . S
C432 C428 1.350 . S
C432 C429 1.463 . S
C432 N436 1.427 . S
C433 H423 0.929 . S
C433 C431 1.433 . S
C433 N436 1.384 . S
C434 H425 0.929 . S
C434 C426 1.378 . S
C434 C429 1.350 . S
C435 H422 0.929 . S
C435 C427 1.433 . S
C435 N437 1.384 . S
N436 C432 1.427 . S
N436 C433 1.384 . S
N437 C429 1.427 . S
N437 C435 1.384 . S
H438 C444 0.930 . S
H439 C448 0.930 . S
H440 C453 0.929 . S
H441 C451 0.929 . S
H442 C446 0.929 . S
H443 C452 0.929 . S
C444 H438 0.930 . S
C444 C445 1.367 . S
C444 C452 1.378 . S
C445 C444 1.367 . S
C445 C453 1.433 . S
C446 H442 0.929 . S
C446 C448 1.378 . S
C446 C450 1.350 . S
C447 C450 1.463 . S
C447 C452 1.350 . S
C447 N455 1.427 . S
C448 H439 0.930 . S
C448 C446 1.378 . S
C448 C449 1.367 . S
C449 C448 1.367 . S
C449 C451 1.433 . S
C450 C446 1.350 . S
C450 C447 1.463 . S
C450 N454 1.427 . S
C451 H441 0.929 . S
C451 C449 1.433 . S
C451 N454 1.384 . S
C452 H443 0.929 . S
C452 C444 1.378 . S
C452 C447 1.350 . S
C453 H440 0.929 . S
C453 C445 1.433 . S
C453 N455 1.384 . S
N454 C450 1.427 . S
N454 C451 1.384 . S
N455 C447 1.427 . S
N455 C453 1.384 . S
H456 C462 0.930 . S
H457 C466 0.930 . S
H458 C471 0.929 . S
H459 C469 0.929 . S
H460 C464 0.929 . S
H461 C470 0.929 . S
C462 H456 0.930 . S
C462 C463 1.367 . S
C462 C470 1.378 . S
C463 C462 1.367 . S
C463 C471 1.433 . S
C464 H460 0.929 . S
C464 C466 1.378 . S
C464 C468 1.350 . S
C465 C468 1.463 . S
C465 C470 1.350 . S
C465 N473 1.427 . S
C466 H457 0.930 . S
C466 C464 1.378 . S
C466 C467 1.367 . S
C467 C466 1.367 . S
C467 C469 1.433 . S
C468 C464 1.350 . S
C468 C465 1.463 . S
C468 N472 1.427 . S
C469 H459 0.929 . S
C469 C467 1.433 . S
C469 N472 1.384 . S
C470 H461 0.929 . S
C470 C462 1.378 . S
C470 C465 1.350 . S
C471 H458 0.929 . S
C471 C463 1.433 . S
C471 N473 1.384 . S
N472 C468 1.427 . S
N472 C469 1.384 . S
N473 C465 1.427 . S
N473 C471 1.384 . S
H474 C480 0.930 . S
H475 C484 0.930 . S
H476 C489 0.929 . S
H477 C487 0.929 . S
H478 C482 0.929 . S
H479 C488 0.929 . S
C480 H474 0.930 . S
C480 C481 1.367 . S
C480 C488 1.378 . S
C481 C480 1.367 . S
C481 C489 1.433 . S
C482 H478 0.929 . S
C482 C484 1.378 . S
C482 C486 1.350 . S
C483 C486 1.463 . S
C483 C488 1.350 . S
C483 N491 1.427 . S
C484 H475 0.930 . S
C484 C482 1.378 . S
C484 C485 1.367 . S
C485 C484 1.367 . S
C485 C487 1.433 . S
C486 C482 1.350 . S
C486 C483 1.463 . S
C486 N490 1.427 . S
C487 H477 0.929 . S
C487 C485 1.433 . S
C487 N490 1.384 . S
C488 H479 0.929 . S
C488 C480 1.378 . S
C488 C483 1.350 . S
C489 H476 0.929 . S
C489 C481 1.433 . S
C489 N491 1.384 . S
N490 C486 1.427 . S
N490 C487 1.384 . S
N491 C483 1.427 . S
N491 C489 1.384 . S
H492 C498 0.930 . S
H493 C502 0.930 . S
H494 C507 0.929 . S
H495 C505 0.929 . S
H496 C500 0.929 . S
H497 C506 0.929 . S
C498 H492 0.930 . S
C498 C499 1.367 . S
C498 C506 1.378 . S
C499 C498 1.367 . S
C499 C507 1.433 . S
C500 H496 0.929 . S
C500 C502 1.378 . S
C500 C504 1.350 . S
C501 C504 1.463 . S
C501 C506 1.350 . S
C501 N509 1.427 . S
C502 H493 0.930 . S
C502 C500 1.378 . S
C502 C503 1.367 . S
C503 C502 1.367 . S
C503 C505 1.433 . S
C504 C500 1.350 . S
C504 C501 1.463 . S
C504 N508 1.427 . S
C505 H495 0.929 . S
C505 C503 1.433 . S
C505 N508 1.384 . S
C506 H497 0.929 . S
C506 C498 1.378 . S
C506 C501 1.350 . S
C507 H494 0.929 . S
C507 C499 1.433 . S
C507 N509 1.384 . S
N508 C504 1.427 . S
N508 C505 1.384 . S
N509 C501 1.427 . S
N509 C507 1.384 . S
H510 C516 0.930 . S
H511 C520 0.930 . S
H512 C525 0.929 . S
H513 C523 0.929 . S
H514 C518 0.929 . S
H515 C524 0.929 . S
C516 H510 0.930 . S
C516 C517 1.367 . S
C516 C524 1.378 . S
C517 C516 1.367 . S
C517 C525 1.433 . S
C518 H514 0.929 . S
C518 C520 1.378 . S
C518 C522 1.350 . S
C519 C522 1.463 . S
C519 C524 1.350 . S
C519 N527 1.427 . S
C520 H511 0.930 . S
C520 C518 1.378 . S
C520 C521 1.367 . S
C521 C520 1.367 . S
C521 C523 1.433 . S
C522 C518 1.350 . S
C522 C519 1.463 . S
C522 N526 1.427 . S
C523 H513 0.929 . S
C523 C521 1.433 . S
C523 N526 1.384 . S
C524 H515 0.929 . S
C524 C516 1.378 . S
C524 C519 1.350 . S
C525 H512 0.929 . S
C525 C517 1.433 . S
C525 N527 1.384 . S
N526 C522 1.427 . S
N526 C523 1.384 . S
N527 C519 1.427 . S
N527 C525 1.384 . S
H528 C534 0.930 . S
H529 C538 0.930 . S
H530 C543 0.929 . S
H531 C541 0.929 . S
H532 C536 0.929 . S
H533 C542 0.929 . S
C534 H528 0.930 . S
C534 C535 1.367 . S
C534 C542 1.378 . S
C535 C534 1.367 . S
C535 C543 1.433 . S
C536 H532 0.929 . S
C536 C538 1.378 . S
C536 C540 1.350 . S
C537 C540 1.463 . S
C537 C542 1.350 . S
C537 N545 1.427 . S
C538 H529 0.930 . S
C538 C536 1.378 . S
C538 C539 1.367 . S
C539 C538 1.367 . S
C539 C541 1.433 . S
C540 C536 1.350 . S
C540 C537 1.463 . S
C540 N544 1.427 . S
C541 H531 0.929 . S
C541 C539 1.433 . S
C541 N544 1.384 . S
C542 H533 0.929 . S
C542 C534 1.378 . S
C542 C537 1.350 . S
C543 H530 0.929 . S
C543 C535 1.433 . S
C543 N545 1.384 . S
N544 C540 1.427 . S
N544 C541 1.384 . S
N545 C537 1.427 . S
N545 C543 1.384 . S
H546 C552 0.930 . S
H547 C556 0.930 . S
H548 C561 0.929 . S
H549 C559 0.929 . S
H550 C554 0.929 . S
H551 C560 0.929 . S
C552 H546 0.930 . S
C552 C553 1.367 . S
C552 C560 1.378 . S
C553 C552 1.367 . S
C553 C561 1.433 . S
C554 H550 0.929 . S
C554 C556 1.378 . S
C554 C558 1.350 . S
C555 C558 1.463 . S
C555 C560 1.350 . S
C555 N563 1.427 . S
C556 H547 0.930 . S
C556 C554 1.378 . S
C556 C557 1.367 . S
C557 C556 1.367 . S
C557 C559 1.433 . S
C558 C554 1.350 . S
C558 C555 1.463 . S
C558 N562 1.427 . S
C559 H549 0.929 . S
C559 C557 1.433 . S
C559 N562 1.384 . S
C560 H551 0.929 . S
C560 C552 1.378 . S
C560 C555 1.350 . S
C561 H548 0.929 . S
C561 C553 1.433 . S
C561 N563 1.384 . S
N562 C558 1.427 . S
N562 C559 1.384 . S
N563 C555 1.427 . S
N563 C561 1.384 . S
H564 C570 0.930 . S
H565 C574 0.930 . S
H566 C579 0.929 . S
H567 C577 0.929 . S
H568 C572 0.929 . S
H569 C578 0.929 . S
C570 H564 0.930 . S
C570 C571 1.367 . S
C570 C578 1.378 . S
C571 C570 1.367 . S
C571 C579 1.433 . S
C572 H568 0.929 . S
C572 C574 1.378 . S
C572 C576 1.350 . S
C573 C576 1.463 . S
C573 C578 1.350 . S
C573 N581 1.427 . S
C574 H565 0.930 . S
C574 C572 1.378 . S
C574 C575 1.367 . S
C575 C574 1.367 . S
C575 C577 1.433 . S
C576 C572 1.350 . S
C576 C573 1.463 . S
C576 N580 1.427 . S
C577 H567 0.929 . S
C577 C575 1.433 . S
C577 N580 1.384 . S
C578 H569 0.929 . S
C578 C570 1.378 . S
C578 C573 1.350 . S
C579 H566 0.929 . S
C579 C571 1.433 . S
C579 N581 1.384 . S
N580 C576 1.427 . S
N580 C577 1.384 . S
N581 C573 1.427 . S
N581 C579 1.384 . S
H582 C588 0.930 . S
H583 C592 0.930 . S
H584 C597 0.929 . S
H585 C595 0.929 . S
H586 C590 0.929 . S
H587 C596 0.929 . S
C588 H582 0.930 . S
C588 C589 1.367 . S
C588 C596 1.378 . S
C589 C588 1.367 . S
C589 C597 1.433 . S
C590 H586 0.929 . S
C590 C592 1.378 . S
C590 C594 1.350 . S
C591 C594 1.463 . S
C591 C596 1.350 . S
C591 N599 1.427 . S
C592 H583 0.930 . S
C592 C590 1.378 . S
C592 C593 1.367 . S
C593 C592 1.367 . S
C593 C595 1.433 . S
C594 C590 1.350 . S
C594 C591 1.463 . S
C594 N598 1.427 . S
C595 H585 0.929 . S
C595 C593 1.433 . S
C595 N598 1.384 . S
C596 H587 0.929 . S
C596 C588 1.378 . S
C596 C591 1.350 . S
C597 H584 0.929 . S
C597 C589 1.433 . S
C597 N599 1.384 . S
N598 C594 1.427 . S
N598 C595 1.384 . S
N599 C591 1.427 . S
N599 C597 1.384 . S
C175 C13 1.653 . S
C179 C85 1.617 . S
C193 C27 1.654 . S
C197 C110 1.628 . S
C215 C113 1.626 . S
C211 C29 1.652 . S
C233 C139 1.619 . S
C229 C54 1.654 . S
C251 C140 1.625 . S
C247 C69 1.651 . S
C269 C167 1.620 . S
C265 C83 1.653 . S
C283 C15 1.651 . S
C287 C112 1.622 . S
C301 C41 1.652 . S
C305 C138 1.624 . S
C323 C141 1.625 . S
C319 C42 1.654 . S
C341 C166 1.622 . S
C337 C57 1.650 . S
C355 C71 1.653 . S
C359 C84 1.624 . S
C377 C111 1.626 . S
C373 C1 1.657 . S
C395 C126 1.626 . S
C391 C12 1.659 . S
C409 C26 1.651 . S
C413 C153 1.622 . S
C431 C154 1.618 . S
C427 C28 1.653 . S
C445 C55 1.652 . S
C449 C96 1.615 . S
C463 C68 1.653 . S
C467 C99 1.629 . S
C481 C82 1.652 . S
C485 C124 1.619 . S
C499 C14 1.652 . S
C503 C155 1.620 . S
C521 C97 1.619 . S
C517 C40 1.649 . S
C535 C43 1.651 . S
C539 C98 1.617 . S
C553 C56 1.653 . S
C557 C125 1.627 . S
C571 C70 1.651 . S
C575 C127 1.620 . S
C589 C0 1.654 . S
C593 C152 1.623 . S
