# Generated by pormake.
# Topology zzz, (3,6)-cn, num edge types: 1
# Building blocks:
#     Node 0, Type 0, BuildingBlock: OLANEW_clean_sbu_2, # of connection points: 3
#     Node 1, Type 0, BuildingBlock: OLANEW_clean_sbu_2, # of connection points: 3
#     Node 2, Type 0, BuildingBlock: OLANEW_clean_sbu_2, # of connection points: 3
#     Node 3, Type 0, BuildingBlock: OLANEW_clean_sbu_2, # of connection points: 3
#     Node 4, Type 0, BuildingBlock: OLANEW_clean_sbu_2, # of connection points: 3
#     Node 5, Type 0, BuildingBlock: OLANEW_clean_sbu_2, # of connection points: 3
#     Node 6, Type 0, BuildingBlock: OLANEW_clean_sbu_2, # of connection points: 3
#     Node 7, Type 0, BuildingBlock: OLANEW_clean_sbu_2, # of connection points: 3
#     Node 8, Type 1, BuildingBlock: CUWYAW_clean_sbu_0, # of connection points: 6
#     Node 9, Type 1, BuildingBlock: CUWYAW_clean_sbu_0, # of connection points: 6
#     Node 10, Type 1, BuildingBlock: CUWYAW_clean_sbu_0, # of connection points: 6
#     Node 11, Type 1, BuildingBlock: CUWYAW_clean_sbu_0, # of connection points: 6
#     Edge 12, Type (0, 1), BuildingBlock: TEMPAE_clean_linker_10, # of connection points: 2
#     Edge 13, Type (0, 1), BuildingBlock: TEMPAE_clean_linker_10, # of connection points: 2
#     Edge 14, Type (0, 1), BuildingBlock: TEMPAE_clean_linker_10, # of connection points: 2
#     Edge 15, Type (0, 1), BuildingBlock: TEMPAE_clean_linker_10, # of connection points: 2
#     Edge 16, Type (0, 1), BuildingBlock: TEMPAE_clean_linker_10, # of connection points: 2
#     Edge 17, Type (0, 1), BuildingBlock: TEMPAE_clean_linker_10, # of connection points: 2
#     Edge 18, Type (0, 1), BuildingBlock: TEMPAE_clean_linker_10, # of connection points: 2
#     Edge 19, Type (0, 1), BuildingBlock: TEMPAE_clean_linker_10, # of connection points: 2
#     Edge 20, Type (0, 1), BuildingBlock: TEMPAE_clean_linker_10, # of connection points: 2
#     Edge 21, Type (0, 1), BuildingBlock: TEMPAE_clean_linker_10, # of connection points: 2
#     Edge 22, Type (0, 1), BuildingBlock: TEMPAE_clean_linker_10, # of connection points: 2
#     Edge 23, Type (0, 1), BuildingBlock: TEMPAE_clean_linker_10, # of connection points: 2
#     Edge 24, Type (0, 1), BuildingBlock: TEMPAE_clean_linker_10, # of connection points: 2
#     Edge 25, Type (0, 1), BuildingBlock: TEMPAE_clean_linker_10, # of connection points: 2
#     Edge 26, Type (0, 1), BuildingBlock: TEMPAE_clean_linker_10, # of connection points: 2
#     Edge 27, Type (0, 1), BuildingBlock: TEMPAE_clean_linker_10, # of connection points: 2
#     Edge 28, Type (0, 1), BuildingBlock: TEMPAE_clean_linker_10, # of connection points: 2
#     Edge 29, Type (0, 1), BuildingBlock: TEMPAE_clean_linker_10, # of connection points: 2
#     Edge 30, Type (0, 1), BuildingBlock: TEMPAE_clean_linker_10, # of connection points: 2
#     Edge 31, Type (0, 1), BuildingBlock: TEMPAE_clean_linker_10, # of connection points: 2
#     Edge 32, Type (0, 1), BuildingBlock: TEMPAE_clean_linker_10, # of connection points: 2
#     Edge 33, Type (0, 1), BuildingBlock: TEMPAE_clean_linker_10, # of connection points: 2
#     Edge 34, Type (0, 1), BuildingBlock: TEMPAE_clean_linker_10, # of connection points: 2
#     Edge 35, Type (0, 1), BuildingBlock: TEMPAE_clean_linker_10, # of connection points: 2
# Relax obj value: 0.231
# Max RMSD: 0.164
# Mean RMSD: 0.146
data_MOF--net-zzz--node1-OLANEW_clean_sbu_2--node2-CUWYAW_clean_sbu_0--edge1-TEMPAE_clean_linker_10
_symmetry_space_group_name_H-M    P1
_symmetry_Int_Tables_number       1
_symmetry_cell_setting            triclinic
loop_
_symmetry_equiv_pos_as_xyz
'x, y, z'
_cell_length_a     56.082843
_cell_length_b     56.004067
_cell_length_c     16.189563
_cell_angle_alpha  89.788565
_cell_angle_beta   89.818704
_cell_angle_gamma 90.059717
loop_
_atom_site_label
_atom_site_type_symbol
_atom_site_fract_x
_atom_site_fract_y
_atom_site_fract_z
_atom_type_partial_charge
O0 O 0.72403 0.54491 0.21294 0.0
Cd1 Cd 0.68359 0.54698 0.26865 0.0
O2 O 0.732 0.52663 0.32898 0.0
Cd3 Cd 0.75433 0.50784 0.41781 0.0
O4 O 0.78577 0.50376 0.49438 0.0
C5 C 0.79277 0.52235 0.53197 0.0
O6 O 0.78 0.54194 0.52614 0.0
C7 C 0.73911 0.53475 0.25957 0.0
C8 C 0.65009 0.53497 0.1497 0.0
O9 O 0.65522 0.55687 0.16413 0.0
O10 O 0.6607 0.5188 0.19195 0.0
O11 O 0.05155 0.73921 0.34647 0.0
Cd12 Cd 0.05672 0.6977 0.39104 0.0
O13 O 0.01883 0.74151 0.41985 0.0
Cd14 Cd 0.98614 0.75636 0.47353 0.0
O15 O 0.94686 0.7599 0.51081 0.0
C16 C 0.93376 0.77793 0.52934 0.0
O17 O 0.94659 0.75935 0.51085 0.0
C18 C 0.03368 0.7513 0.37061 0.0
C19 C 0.04759 0.66499 0.26477 0.0
O20 O 0.03097 0.67175 0.31396 0.0
O21 O 0.06847 0.67379 0.27512 0.0
O22 O 0.77038 0.00705 0.30949 0.0
Cd23 Cd 0.81291 0.00916 0.34145 0.0
O24 O 0.76455 0.97812 0.39865 0.0
Cd25 Cd 0.74559 0.95083 0.47061 0.0
O26 O 0.73796 0.91554 0.5377 0.0
C27 C 0.71885 0.90664 0.56917 0.0
O28 O 0.73849 0.91519 0.53786 0.0
C29 C 0.75629 0.99226 0.34411 0.0
C30 C 0.84127 0.00678 0.19934 0.0
O31 O 0.8362 0.98791 0.24093 0.0
O32 O 0.83289 0.02672 0.22486 0.0
O33 O 0.46131 0.77387 0.29724 0.0
Cd34 Cd 0.46299 0.81593 0.33863 0.0
O35 O 0.49173 0.76725 0.37828 0.0
Cd36 Cd 0.52078 0.74812 0.44009 0.0
O37 O 0.55896 0.74123 0.48383 0.0
C38 C 0.57034 0.72205 0.50218 0.0
O39 O 0.55928 0.74177 0.484 0.0
C40 C 0.47661 0.7594 0.32653 0.0
C41 C 0.4707 0.8473 0.20613 0.0
O42 O 0.48817 0.83713 0.24297 0.0
O43 O 0.44954 0.84252 0.2315 0.0
O44 O 0.27013 0.59195 0.13637 0.0
Cd45 Cd 0.30901 0.59671 0.07031 0.0
O46 O 0.27109 0.55497 0.09222 0.0
Cd47 Cd 0.25451 0.51986 0.08414 0.0
O48 O 0.22316 0.49771 0.06742 0.0
C49 C 0.22086 0.48325 0.00771 0.0
O50 O 0.23897 0.47981 0.95751 0.0
C51 C 0.2603 0.5716 0.13031 0.0
C52 C 0.34439 0.58232 0.17939 0.0
O53 O 0.33866 0.60439 0.17259 0.0
O54 O 0.33367 0.56716 0.13341 0.0
O55 O 0.97457 0.27629 0.16844 0.0
Cd56 Cd 0.97142 0.31743 0.11979 0.0
O57 O 0.00665 0.27279 0.0922 0.0
Cd58 Cd 0.03327 0.25172 0.02704 0.0
O59 O 0.04018 0.21918 0.95898 0.0
C60 C 0.02138 0.20706 0.94681 0.0
O61 O 1.00098 0.21534 0.97472 0.0
C62 C 0.99159 0.26349 0.14179 0.0
C63 C 0.97907 0.34962 0.24737 0.0
O64 O 0.95816 0.34152 0.23218 0.0
O65 O 0.99638 0.34254 0.20177 0.0
O66 O 0.23836 0.93523 0.17853 0.0
Cd67 Cd 0.19853 0.92893 0.12137 0.0
O68 O 0.2402 0.96563 0.09343 0.0
Cd69 Cd 0.2582 0.99584 0.03546 0.0
O70 O 0.28776 0.01205 0.96919 0.0
C71 C 0.29552 0.99985 0.90891 0.0
O72 O 0.2842 0.98015 0.88885 0.0
C73 C 0.25016 0.95241 0.14727 0.0
C74 C 0.16199 0.93917 0.23238 0.0
O75 O 0.17008 0.91788 0.22506 0.0
O76 O 0.17131 0.95563 0.18747 0.0
O77 O 0.54633 0.23345 0.11313 0.0
Cd78 Cd 0.55218 0.19368 0.05606 0.0
O79 O 0.51129 0.23402 0.05375 0.0
Cd80 Cd 0.48111 0.25446 0.00798 0.0
O81 O 0.47559 0.28976 0.95634 0.0
C82 C 0.45691 0.29775 0.92201 0.0
O83 O 0.43791 0.2841 0.91676 0.0
C84 C 0.52696 0.24428 0.09786 0.0
C85 C 0.54241 0.15949 0.17626 0.0
O86 O 0.56337 0.16833 0.1678 0.0
O87 O 0.52607 0.16661 0.12679 0.0
C88 C 0.98787 0.02213 0.44806 0.0
Eu89 Eu 0.98855 0.00319 0.59524 0.0
C90 C 0.99076 0.04617 0.41185 0.0
C91 C 0.97711 0.05273 0.34304 0.0
C92 C 0.97898 0.07572 0.30951 0.0
C93 C 0.99454 0.09263 0.34434 0.0
C94 C 0.00841 0.08586 0.41286 0.0
C95 C 0.00654 0.06285 0.44625 0.0
C96 C 0.95473 0.00326 0.71476 0.0
C97 C 0.01289 0.04067 0.72793 0.0
C98 C 1.00005 0.97207 0.93238 0.0
Eu99 Eu 0.00379 0.98545 0.7793 0.0
C100 C 0.00346 0.95017 0.98207 0.0
C101 C 0.02055 0.94981 0.04523 0.0
C102 C 0.02398 0.92924 0.09293 0.0
C103 C 0.01024 0.90863 0.07872 0.0
C104 C 0.9929 0.90918 0.01614 0.0
C105 C 0.9896 0.92966 0.96817 0.0
C106 C 0.03802 0.97596 0.66423 0.0
C107 C 0.98343 0.94761 0.64202 0.0
O108 O 0.0069 0.01243 0.48084 0.0
O109 O 0.96863 0.0187 0.49265 0.0
O110 O 0.95 0.9988 0.63764 0.0
O111 O 0.97636 0.00857 0.72321 0.0
O112 O 0.00568 0.03622 0.65136 0.0
O113 O 0.0124 0.0245 0.78786 0.0
O114 O 0.98209 0.97213 0.88045 0.0
O115 O 0.01936 0.9822 0.90212 0.0
O116 O 0.04078 0.97107 0.74227 0.0
O117 O 0.01803 0.98546 0.65553 0.0
O118 O 0.98581 0.95329 0.72126 0.0
O119 O 0.98638 0.96327 0.58107 0.0
H120 H 0.96478 0.04014 0.31578 0.0
H121 H 0.96781 0.08042 0.25748 0.0
H122 H 0.02078 0.09831 0.4406 0.0
H123 H 0.01735 0.05816 0.49914 0.0
H124 H 0.03137 0.96545 0.05741 0.0
H125 H 0.03765 0.92937 0.14002 0.0
H126 H 0.9817 0.8938 0.00448 0.0
H127 H 0.97615 0.92935 0.92032 0.0
C128 C 0.48809 0.99011 0.44677 0.0
Eu129 Eu 0.50361 0.99117 0.59765 0.0
C130 C 0.46534 0.9844 0.40582 0.0
C131 C 0.45105 0.96526 0.43264 0.0
C132 C 0.42866 0.96135 0.3972 0.0
C133 C 0.42004 0.97669 0.33511 0.0
C134 C 0.43454 0.99564 0.30776 0.0
C135 C 0.457 0.99941 0.34267 0.0
C136 C 0.49798 0.95903 0.72379 0.0
C137 C 0.46563 0.01255 0.73209 0.0
C138 C 0.53995 0.02313 0.91444 0.0
Eu139 Eu 0.52143 0.01279 0.77171 0.0
C140 C 0.55853 0.01448 0.97038 0.0
C141 C 0.56483 0.02842 0.03848 0.0
C142 C 0.5836 0.02147 0.08957 0.0
C143 C 0.59641 1.0004 0.07338 0.0
C144 C 0.58953 0.9861 0.0061 0.0
C145 C 0.57073 0.99311 0.95489 0.0
C146 C 0.51685 0.04312 0.64206 0.0
C147 C 0.55828 0.98371 0.651 0.0
O148 O 0.48776 0.00938 0.49255 0.0
O149 O 0.49989 0.97236 0.4808 0.0
O150 O 0.49208 0.95439 0.64785 0.0
O151 O 0.50631 0.97978 0.72557 0.0
O152 O 0.47068 0.0084 0.65333 0.0
O153 O 0.48189 0.01243 0.79108 0.0
O154 O 0.52118 0.00947 0.90578 0.0
O155 O 0.54739 0.03239 0.84454 0.0
O156 O 0.51215 0.04919 0.7177 0.0
O157 O 0.5246 0.02212 0.6398 0.0
O158 O 0.55257 0.99024 0.72741 0.0
O159 O 0.54319 0.98518 0.58829 0.0
H160 H 0.45693 0.95363 0.48213 0.0
H161 H 0.41777 0.94677 0.42018 0.0
H162 H 0.42844 0.00763 0.25961 0.0
H163 H 0.4677 0.01436 0.32149 0.0
H164 H 0.5556 0.04501 0.05102 0.0
H165 H 0.58863 0.03311 0.13987 0.0
H166 H 0.59887 0.96966 0.99242 0.0
H167 H 0.56599 0.98212 0.90249 0.0
C168 C 0.50037 0.48149 0.42705 0.0
Eu169 Eu 0.5014 0.501 0.57247 0.0
C170 C 0.50267 0.4572 0.3931 0.0
C171 C 0.52012 0.44133 0.42226 0.0
C172 C 0.52198 0.41836 0.38934 0.0
C173 C 0.50627 0.41066 0.32719 0.0
C174 C 0.48866 0.42658 0.29883 0.0
C175 C 0.48694 0.44962 0.33136 0.0
C176 C 0.53538 0.49968 0.69005 0.0
C177 C 0.47611 0.46504 0.70979 0.0
C178 C 0.49088 0.53441 0.9079 0.0
Eu179 Eu 0.48688 0.52041 0.75582 0.0
C180 C 0.48882 0.55666 0.95635 0.0
C181 C 0.47028 0.55931 0.01412 0.0
C182 C 0.46827 0.58023 0.06065 0.0
C183 C 0.48487 0.59886 0.05054 0.0
C184 C 0.50369 0.59595 0.99385 0.0
C185 C 0.50564 0.57513 0.94726 0.0
C186 C 0.45397 0.53159 0.6378 0.0
C187 C 0.50869 0.55652 0.61574 0.0
O188 O 0.48113 0.48565 0.47081 0.0
O189 O 0.51962 0.49102 0.45902 0.0
O190 O 0.5402 0.50245 0.61192 0.0
O191 O 0.51347 0.49594 0.7006 0.0
O192 O 0.48457 0.46846 0.63382 0.0
O193 O 0.47605 0.48185 0.76727 0.0
O194 O 0.50889 0.53307 0.85614 0.0
O195 O 0.47108 0.52532 0.87807 0.0
O196 O 0.45114 0.53737 0.71502 0.0
O197 O 0.47315 0.52051 0.63202 0.0
O198 O 0.50699 0.55103 0.69547 0.0
O199 O 0.50406 0.54097 0.55615 0.0
H200 H 0.53239 0.44667 0.47034 0.0
H201 H 0.53596 0.40674 0.41196 0.0
H202 H 0.476 0.42116 0.25212 0.0
H203 H 0.47322 0.46153 0.30851 0.0
H204 H 0.45724 0.54524 0.02302 0.0
H205 H 0.4535 0.58196 0.10346 0.0
H206 H 0.51705 0.60974 0.98574 0.0
H207 H 0.52038 0.57359 0.90421 0.0
C208 C 0.03667 0.52065 0.53293 0.0
Eu209 Eu 0.01812 0.5154 0.67973 0.0
C210 C 0.05972 0.52596 0.49217 0.0
C211 C 0.0721 0.54736 0.50691 0.0
C212 C 0.09333 0.55239 0.46463 0.0
C213 C 0.10269 0.53609 0.40717 0.0
C214 C 0.09039 0.51461 0.39312 0.0
C215 C 0.06908 0.50966 0.43494 0.0
C216 C 0.01873 0.54686 0.80616 0.0
C217 C 0.05561 0.48834 0.80624 0.0
C218 C 0.97987 0.49111 0.9892 0.0
Eu219 Eu 1.00072 0.49526 0.84625 0.0
C220 C 0.95522 0.49494 0.01881 0.0
C221 C 0.93577 0.48318 0.98224 0.0
C222 C 0.9125 0.48782 0.00879 0.0
C223 C 0.90819 0.50452 0.07159 0.0
C224 C 0.92761 0.51632 0.10798 0.0
C225 C 0.95091 0.51147 0.08211 0.0
C226 C 1.001 0.46398 0.71968 0.0
C227 C 0.9628 0.52007 0.72002 0.0
O228 O 0.03474 0.49993 0.5702 0.0
O229 O 0.02628 0.53795 0.57364 0.0
O230 O 0.01434 0.55293 0.73025 0.0
O231 O 0.0243 0.52513 0.81031 0.0
O232 O 0.05126 0.49718 0.73163 0.0
O233 O 0.03939 0.48764 0.86544 0.0
O234 O 0.99145 0.51033 0.96612 0.0
O235 O 0.98348 0.47303 0.93959 0.0
O236 O 0.00548 0.45781 0.79552 0.0
O237 O 0.99491 0.48555 0.71596 0.0
O238 O 0.96857 0.51544 0.79749 0.0
O239 O 0.97853 0.51785 0.65963 0.0
H240 H 0.06538 0.56029 0.55075 0.0
H241 H 0.10256 0.56896 0.47746 0.0
H242 H 0.09702 0.5018 0.34866 0.0
H243 H 0.05976 0.49313 0.422 0.0
H244 H 0.93846 0.47058 0.93248 0.0
H245 H 0.89781 0.4787 0.97913 0.0
H246 H 0.92476 0.52916 0.15689 0.0
H247 H 0.96559 0.52083 0.11096 0.0
C248 C 0.12977 0.92611 0.32977 0.0
C249 C 0.14258 0.94463 0.29145 0.0
C250 C 0.11168 0.93103 0.38733 0.0
C251 C 0.10654 0.95504 0.40779 0.0
C252 C 0.11915 0.97382 0.3684 0.0
C253 C 0.13694 0.96839 0.31035 0.0
C254 C 0.09835 0.91055 0.42717 0.0
C255 C 0.11419 0.99963 0.38889 0.0
C256 C 0.04814 0.96963 0.51582 0.0
C257 C 0.0554 0.97096 0.59832 0.0
C258 C 0.06455 0.96436 0.45287 0.0
C259 C 0.08878 0.96049 0.47333 0.0
C260 C 0.09615 0.96182 0.55678 0.0
C261 C 0.0793 0.96688 0.6184 0.0
C262 C 0.05595 0.9627 0.36479 0.0
C263 C 0.12185 0.95794 0.58096 0.0
H264 H 0.13388 0.90772 0.31487 0.0
H265 H 0.14676 0.98279 0.28092 0.0
H266 H 0.1017 0.9104 0.49467 0.0
H267 H 0.07887 0.91282 0.41841 0.0
H268 H 0.10369 0.89297 0.4015 0.0
H269 H 0.12499 0.01215 0.3507 0.0
H270 H 0.09503 0.00369 0.37937 0.0
H271 H 0.11817 1.00294 0.45497 0.0
H272 H 0.02953 0.97219 0.50067 0.0
H273 H 0.08487 0.96784 0.68238 0.0
H274 H 0.05919 0.94446 0.3407 0.0
H275 H 0.06608 0.9753 0.32493 0.0
H276 H 0.03663 0.96675 0.35911 0.0
H277 H 0.12766 0.93982 0.56219 0.0
H278 H 0.12469 0.95986 0.64849 0.0
H279 H 0.13346 0.97096 0.54818 0.0
C280 C 0.51477 0.13085 0.24745 0.0
C281 C 0.5372 0.14189 0.24226 0.0
C282 C 0.5096 0.1144 0.31069 0.0
C283 C 0.52723 0.10905 0.37028 0.0
C284 C 0.54989 0.12014 0.36533 0.0
C285 C 0.55462 0.13636 0.30123 0.0
C286 C 0.48534 0.10272 0.31372 0.0
C287 C 0.56913 0.11492 0.42793 0.0
C288 C 0.51065 0.08349 0.58013 0.0
C289 C 0.51733 0.05957 0.57086 0.0
C290 C 0.51306 0.09972 0.51434 0.0
C291 C 0.52223 0.0917 0.43769 0.0
C292 C 0.52815 0.06734 0.42725 0.0
C293 C 0.52577 0.05159 0.49422 0.0
C294 C 0.50662 0.12559 0.52774 0.0
C295 C 0.53781 0.05806 0.3463 0.0
H296 H 0.50124 0.13501 0.20198 0.0
H297 H 0.57196 0.14487 0.29778 0.0
H298 H 0.48725 0.08303 0.31035 0.0
H299 H 0.47642 0.10682 0.37325 0.0
H300 H 0.47364 0.10874 0.26246 0.0
H301 H 0.5857 0.12527 0.41584 0.0
H302 H 0.56263 0.11923 0.49093 0.0
H303 H 0.57356 0.09562 0.42727 0.0
H304 H 0.50411 0.08966 0.63941 0.0
H305 H 0.53106 0.0331 0.48701 0.0
H306 H 0.4941 0.13174 0.47924 0.0
H307 H 0.5229 0.13679 0.52278 0.0
H308 H 0.49832 0.12863 0.5892 0.0
H309 H 0.526 0.06342 0.29463 0.0
H310 H 0.53957 0.0383 0.34623 0.0
H311 H 0.55562 0.06599 0.33409 0.0
C312 C 0.36303 0.55046 0.26578 0.0
C313 C 0.36213 0.57445 0.24099 0.0
C314 C 0.37853 0.543 0.32856 0.0
C315 C 0.39373 0.55989 0.3664 0.0
C316 C 0.39353 0.58398 0.33954 0.0
C317 C 0.37754 0.59102 0.2776 0.0
C318 C 0.37818 0.51719 0.3559 0.0
C319 C 0.40992 0.60236 0.37711 0.0
C320 C 0.41552 0.54724 0.58385 0.0
C321 C 0.4384 0.53834 0.56862 0.0
C322 C 0.40071 0.55418 0.51838 0.0
C323 C 0.40922 0.55251 0.4361 0.0
C324 C 0.43242 0.54367 0.42058 0.0
C325 C 0.44668 0.53653 0.48716 0.0
C326 C 0.37594 0.56327 0.53718 0.0
C327 C 0.44227 0.54199 0.33384 0.0
H328 H 0.3511 0.53759 0.2378 0.0
H329 H 0.37705 0.60955 0.25806 0.0
H330 H 0.39633 0.50943 0.35121 0.0
H331 H 0.37268 0.51602 0.42169 0.0
H332 H 0.36579 0.50617 0.31856 0.0
H333 H 0.4083 0.6201 0.34667 0.0
H334 H 0.40579 0.60441 0.44376 0.0
H335 H 0.42872 0.59637 0.37229 0.0
H336 H 0.40916 0.54866 0.64695 0.0
H337 H 0.46449 0.52993 0.47539 0.0
H338 H 0.3625 0.55212 0.5051 0.0
H339 H 0.37397 0.5818 0.51373 0.0
H340 H 0.37192 0.5631 0.60441 0.0
H341 H 0.43054 0.53061 0.29542 0.0
H342 H 0.46059 0.53446 0.33242 0.0
H343 H 0.44267 0.55997 0.30488 0.0
C344 C 0.00571 0.37661 0.32858 0.0
C345 C 0.9831 0.36656 0.31589 0.0
C346 C 0.00973 0.39263 0.39354 0.0
C347 C 0.99071 0.39861 0.44723 0.0
C348 C 0.96786 0.38852 0.4348 0.0
C349 C 0.96432 0.37266 0.36915 0.0
C350 C 0.0343 0.40319 0.40464 0.0
C351 C 0.94715 0.39446 0.49093 0.0
C352 C 0.00398 0.42299 0.66076 0.0
C353 C 0.99952 0.44738 0.6495 0.0
C354 C 1.00154 0.40691 0.59502 0.0
C355 C 0.9946 0.41554 0.51633 0.0
C356 C 0.99059 0.44026 0.50433 0.0
C357 C 0.99304 0.45588 0.57122 0.0
C358 C 0.00592 0.38066 0.61009 0.0
C359 C 0.98332 0.45015 0.42124 0.0
H360 H 0.0203 0.37202 0.28757 0.0
H361 H 0.9468 0.36494 0.35985 0.0
H362 H 0.03337 0.42295 0.40092 0.0
H363 H 0.04125 0.39856 0.46674 0.0
H364 H 0.04715 0.39675 0.35737 0.0
H365 H 0.93056 0.38495 0.4732 0.0
H366 H 0.95157 0.38966 0.55563 0.0
H367 H 0.94368 0.41396 0.48935 0.0
H368 H 0.00904 0.41642 0.72128 0.0
H369 H 0.98961 0.47476 0.56236 0.0
H370 H 0.01961 0.37393 0.56643 0.0
H371 H 0.9893 0.37044 0.59866 0.0
H372 H 0.01194 0.37696 0.67418 0.0
H373 H 0.9964 0.44478 0.37324 0.0
H374 H 0.98197 0.46994 0.42138 0.0
H375 H 0.96578 0.44264 0.40326 0.0
C376 C 0.85905 0.02562 0.07285 0.0
C377 C 0.85665 0.00565 0.1248 0.0
C378 C 0.87405 0.02503 0.00327 0.0
C379 C 0.88718 0.00407 0.98573 0.0
C380 C 0.88466 0.98377 0.03744 0.0
C381 C 0.86931 0.98475 0.10607 0.0
C382 C 0.87613 0.04698 0.94925 0.0
C383 C 0.89861 0.96119 0.02134 0.0
C384 C 0.91371 0.99588 0.77086 0.0
C385 C 0.93727 0.00336 0.78319 0.0
C386 C 0.89713 0.99606 0.8362 0.0
C387 C 0.9044 0.00376 0.91555 0.0
C388 C 0.9282 0.01133 0.92805 0.0
C389 C 0.94426 0.01125 0.86155 0.0
C390 C 0.87184 0.98809 0.82038 0.0
C391 C 0.93675 0.01948 0.01173 0.0
H392 H 0.84923 0.04179 0.08662 0.0
H393 H 0.8676 0.96927 0.14601 0.0
H394 H 0.89464 0.05396 0.95132 0.0
H395 H 0.87228 0.04236 0.88406 0.0
H396 H 0.86378 0.0614 0.9688 0.0
H397 H 0.89413 0.94675 0.06601 0.0
H398 H 0.89505 0.95467 0.95795 0.0
H399 H 0.918 0.96496 0.02534 0.0
H400 H 0.90825 0.9899 0.71019 0.0
H401 H 0.9624 0.01733 0.87107 0.0
H402 H 0.85927 1.0027 0.83586 0.0
H403 H 0.86735 0.97269 0.86083 0.0
H404 H 0.86898 0.98281 0.75506 0.0
H405 H 0.92633 0.03525 0.03203 0.0
H406 H 0.95597 0.0243 0.01142 0.0
H407 H 0.93383 0.00516 0.0582 0.0
C408 C 0.49741 0.86577 0.09927 0.0
C409 C 0.47484 0.8641 0.1365 0.0
C410 C 0.50155 0.88139 0.03267 0.0
C411 C 0.48274 0.89592 0.00316 0.0
C412 C 0.46 0.89459 0.04125 0.0
C413 C 0.45629 0.87857 0.10707 0.0
C414 C 0.52599 0.88219 0.99333 0.0
C415 C 0.43959 0.91003 0.01232 0.0
C416 C 0.49876 0.95085 0.8756 0.0
C417 C 0.49441 0.94292 0.7952 0.0
C418 C 0.49498 0.93582 0.94402 0.0
C419 C 0.48675 0.91219 0.93143 0.0
C420 C 0.48243 0.90405 0.85009 0.0
C421 C 0.48622 0.91956 0.78295 0.0
C422 C 0.49964 0.94527 0.0297 0.0
C423 C 0.47383 0.87895 0.83397 0.0
H424 H 0.51184 0.85463 0.12155 0.0
H425 H 0.43884 0.87752 0.13587 0.0
H426 H 0.52471 0.87732 0.92712 0.0
H427 H 0.5333 0.90058 0.99617 0.0
H428 H 0.53874 0.86985 0.02389 0.0
H429 H 0.42323 0.90741 0.05019 0.0
H430 H 0.44475 0.92915 0.01489 0.0
H431 H 0.43534 0.90592 0.94702 0.0
H432 H 0.50494 0.96887 0.88507 0.0
H433 H 0.48282 0.91337 0.72072 0.0
H434 H 0.51308 0.93399 0.06132 0.0
H435 H 0.48303 0.94444 0.06704 0.0
H436 H 0.50616 0.96402 0.02878 0.0
H437 H 0.4867 0.86588 0.8597 0.0
H438 H 0.47156 0.87531 0.76704 0.0
H439 H 0.45651 0.8759 0.86561 0.0
C440 C 0.61647 0.54553 0.0556 0.0
C441 C 0.63273 0.52854 0.08505 0.0
C442 C 0.60025 0.53979 0.99295 0.0
C443 C 0.60069 0.51668 0.95784 0.0
C444 C 0.61696 0.49941 0.98766 0.0
C445 C 0.63266 0.50549 0.05154 0.0
C446 C 0.58274 0.5585 0.96394 0.0
C447 C 0.61811 0.47468 0.95102 0.0
C448 C 0.54625 0.49637 0.83861 0.0
C449 C 0.55271 0.50237 0.7575 0.0
C450 C 0.56174 0.50081 0.90461 0.0
C451 C 0.58447 0.51081 0.88849 0.0
C452 C 0.5915 0.51585 0.80613 0.0
C453 C 0.57544 0.51167 0.74151 0.0
C454 C 0.55348 0.4955 0.99164 0.0
C455 C 0.61576 0.52615 0.78649 0.0
H456 H 0.61634 0.56331 0.08187 0.0
H457 H 0.64527 0.49233 0.07394 0.0
H458 H 0.58607 0.56279 0.89795 0.0
H459 H 0.56425 0.55154 0.96875 0.0
H460 H 0.58399 0.57525 0.00022 0.0
H461 H 0.63159 0.46323 0.98197 0.0
H462 H 0.60045 0.46584 0.95594 0.0
H463 H 0.62261 0.47591 0.88434 0.0
H464 H 0.52879 0.48878 0.85074 0.0
H465 H 0.58052 0.51611 0.67863 0.0
H466 H 0.55274 0.51232 0.0276 0.0
H467 H 0.56634 0.48352 0.02303 0.0
H468 H 0.53556 0.48703 0.9933 0.0
H469 H 0.61745 0.54413 0.81444 0.0
H470 H 0.61897 0.52775 0.71894 0.0
H471 H 0.62992 0.51477 0.81367 0.0
C472 C 0.02024 0.63697 0.19036 0.0
C473 C 0.04284 0.6475 0.1982 0.0
C474 C 0.01555 0.62032 0.12775 0.0
C475 C 0.03386 0.61415 0.07135 0.0
C476 C 0.0567 0.6247 0.07893 0.0
C477 C 0.06092 0.6412 0.14232 0.0
C478 C 0.99102 0.60932 0.12197 0.0
C479 C 0.07667 0.6186 0.0199 0.0
C480 C 0.02978 0.55597 0.95195 0.0
C481 C 0.02169 0.5639 0.87476 0.0
C482 C 0.03348 0.57208 0.01692 0.0
C483 C 0.02913 0.59672 0.00409 0.0
C484 C 0.02074 0.60477 0.9264 0.0
C485 C 0.01706 0.58824 0.86267 0.0
C486 C 0.04232 0.56276 0.09893 0.0
C487 C 0.01598 0.6309 0.91023 0.0
H488 H 0.00618 0.64167 0.23337 0.0
H489 H 0.07844 0.64923 0.14788 0.0
H490 H 0.98305 0.61348 0.06097 0.0
H491 H 0.99232 0.5896 0.12684 0.0
H492 H 0.97881 0.61584 0.1711 0.0
H493 H 0.09339 0.6284 0.03408 0.0
H494 H 0.08039 0.59915 0.02237 0.0
H495 H 0.07129 0.62292 0.95567 0.0
H496 H 0.03349 0.53717 0.96138 0.0
H497 H 0.0108 0.59441 0.80303 0.0
H498 H 0.02997 0.56818 0.14913 0.0
H499 H 0.06 0.57065 0.1129 0.0
H500 H 0.044 0.54299 0.09974 0.0
H501 H 0.00281 0.63779 0.95553 0.0
H502 H 0.00909 0.6342 0.84695 0.0
H503 H 0.03264 0.64132 0.91835 0.0
C504 C 0.97195 0.2251 0.18165 0.0
C505 C 0.99293 0.23794 0.1654 0.0
C506 C 0.97275 0.20108 0.20659 0.0
C507 C 0.99508 0.18964 0.21614 0.0
C508 C 0.01632 0.20243 0.19887 0.0
C509 C 0.01499 0.2265 0.17439 0.0
C510 C 0.94968 0.18802 0.22371 0.0
C511 C 0.04047 0.19087 0.20816 0.0
C512 C 0.99668 0.13698 0.36478 0.0
C513 C 0.99574 0.11743 0.31089 0.0
C514 C 0.99694 0.1605 0.3346 0.0
C515 C 0.99613 0.16468 0.24831 0.0
C516 C 0.99547 0.14506 0.19342 0.0
C517 C 0.99536 0.12168 0.22535 0.0
C518 C 0.9976 0.18092 0.39527 0.0
C519 C 0.99485 0.14874 0.10102 0.0
H520 H 0.95484 0.23388 0.17479 0.0
H521 H 0.03128 0.23653 0.16474 0.0
H522 H 0.94869 0.17165 0.18546 0.0
H523 H 0.94902 0.18231 0.28938 0.0
H524 H 0.93378 0.19921 0.21065 0.0
H525 H 0.05521 0.20289 0.18847 0.0
H526 H 0.04332 0.18571 0.27362 0.0
H527 H 0.04133 0.1743 0.17093 0.0
H528 H 0.99665 0.1339 0.43092 0.0
H529 H 0.99504 0.10669 0.1832 0.0
H530 H 0.98111 0.19172 0.38954 0.0
H531 H 0.01288 0.19287 0.38116 0.0
H532 H 0.99918 0.17465 0.46021 0.0
H533 H 0.98049 0.16142 0.08398 0.0
H534 H 0.99196 0.13177 0.06716 0.0
H535 H 0.01198 0.15665 0.08003 0.0
C536 C 0.28193 0.95399 0.25481 0.0
C537 C 0.27519 0.95651 0.17204 0.0
C538 C 0.30568 0.95761 0.2792 0.0
C539 C 0.3232 0.96336 0.219 0.0
C540 C 0.31653 0.96546 0.13494 0.0
C541 C 0.29256 0.96215 0.11267 0.0
C542 C 0.31201 0.95538 0.36948 0.0
C543 C 0.33455 0.97135 0.0683 0.0
C544 C 0.3802 0.99301 0.29379 0.0
C545 C 0.39564 0.97343 0.30131 0.0
C546 C 0.35669 0.99006 0.26589 0.0
C547 C 0.34847 0.967 0.24443 0.0
C548 C 0.36419 0.94728 0.24964 0.0
C549 C 0.38754 0.9507 0.27856 0.0
C550 C 0.34051 0.01153 0.26085 0.0
C551 C 0.35632 0.92255 0.2248 0.0
H552 H 0.26852 0.94949 0.3007 0.0
H553 H 0.28752 0.96333 0.04831 0.0
H554 H 0.32544 0.94106 0.37805 0.0
H555 H 0.32013 0.97227 0.39142 0.0
H556 H 0.29624 0.95123 0.40869 0.0
H557 H 0.32803 0.96621 0.00615 0.0
H558 H 0.33792 0.99088 0.06793 0.0
H559 H 0.35181 0.96225 0.07943 0.0
H560 H 0.38632 0.01059 0.31186 0.0
H561 H 0.39953 0.93558 0.28308 0.0
H562 H 0.32474 0.00881 0.30139 0.0
H563 H 0.33387 0.01373 0.19681 0.0
H564 H 0.34965 0.02827 0.27951 0.0
H565 H 0.34133 0.91659 0.26473 0.0
H566 H 0.37096 0.90927 0.22954 0.0
H567 H 0.34973 0.92282 0.16022 0.0
C568 C 0.54253 0.28479 0.13278 0.0
C569 C 0.52328 0.26889 0.12811 0.0
C570 C 0.53942 0.30809 0.16268 0.0
C571 C 0.51655 0.31554 0.1896 0.0
C572 C 0.49705 0.29952 0.18509 0.0
C573 C 0.50069 0.27635 0.15468 0.0
C574 C 0.56062 0.32469 0.16605 0.0
C575 C 0.47244 0.30671 0.21363 0.0
C576 C 0.51386 0.36665 0.34314 0.0
C577 C 0.50832 0.38617 0.29202 0.0
C578 C 0.51648 0.3436 0.31064 0.0
C579 C 0.51325 0.33983 0.22497 0.0
C580 C 0.50722 0.35932 0.17318 0.0
C581 C 0.50497 0.38225 0.2072 0.0
C582 C 0.52282 0.32326 0.36802 0.0
C583 C 0.50335 0.35599 0.0817 0.0
H584 H 0.56004 0.27902 0.11248 0.0
H585 H 0.48593 0.26386 0.15364 0.0
H586 H 0.55683 0.34123 0.13052 0.0
H587 H 0.56401 0.33002 0.2309 0.0
H588 H 0.57705 0.31637 0.14076 0.0
H589 H 0.45903 0.29241 0.20349 0.0
H590 H 0.47281 0.31106 0.28041 0.0
H591 H 0.4666 0.32302 0.18031 0.0
H592 H 0.51602 0.36936 0.40894 0.0
H593 H 0.50097 0.3972 0.16691 0.0
H594 H 0.53997 0.31516 0.34851 0.0
H595 H 0.50902 0.3091 0.3647 0.0
H596 H 0.52447 0.32912 0.43325 0.0
H597 H 0.52001 0.34948 0.05232 0.0
H598 H 0.49782 0.37278 0.05051 0.0
H599 H 0.48943 0.34226 0.07115 0.0
C600 C 0.21823 0.55755 0.12041 0.0
C601 C 0.2367 0.56723 0.1677 0.0
C602 C 0.19572 0.55307 0.15548 0.0
C603 C 0.19187 0.55785 0.24038 0.0
C604 C 0.21056 0.56769 0.28822 0.0
C605 C 0.23267 0.57262 0.25087 0.0
C606 C 0.17599 0.54381 0.10103 0.0
C607 C 0.20732 0.57263 0.37918 0.0
C608 C 0.12908 0.56413 0.32733 0.0
C609 C 0.12523 0.54147 0.36218 0.0
C610 C 0.15046 0.56958 0.28589 0.0
C611 C 0.16855 0.55204 0.28005 0.0
C612 C 0.1646 0.52901 0.31393 0.0
C613 C 0.14297 0.52399 0.35438 0.0
C614 C 0.15373 0.59409 0.24848 0.0
C615 C 0.18333 0.50975 0.30805 0.0
H616 H 0.22132 0.55381 0.05557 0.0
H617 H 0.24705 0.5801 0.28721 0.0
H618 H 0.1637 0.55869 0.08592 0.0
H619 H 0.18297 0.5364 0.04216 0.0
H620 H 0.16538 0.52987 0.13312 0.0
H621 H 0.22362 0.58029 0.40762 0.0
H622 H 0.19234 0.58525 0.38863 0.0
H623 H 0.20269 0.55584 0.41213 0.0
H624 H 0.11524 0.57757 0.33187 0.0
H625 H 0.14013 0.50648 0.38147 0.0
H626 H 0.15773 0.59252 0.18157 0.0
H627 H 0.16913 0.60318 0.27754 0.0
H628 H 0.13767 0.60548 0.25626 0.0
H629 H 0.18778 0.50635 0.24229 0.0
H630 H 0.17743 0.4927 0.33692 0.0
H631 H 0.19993 0.51575 0.33886 0.0
C632 C 0.00772 0.78629 0.3338 0.0
C633 C 0.03045 0.77604 0.33974 0.0
C634 C 0.00457 0.80913 0.29966 0.0
C635 C 0.02453 0.82169 0.26784 0.0
C636 C 0.04758 0.81168 0.2751 0.0
C637 C 0.05026 0.78903 0.3112 0.0
C638 C 0.97967 0.81923 0.2941 0.0
C639 C 0.0693 0.82451 0.24195 0.0
C640 C 0.01339 0.86413 0.08916 0.0
C641 C 0.01413 0.88649 0.12785 0.0
C642 C 0.0167 0.84299 0.13422 0.0
C643 C 0.02104 0.84417 0.22019 0.0
C644 C 0.02203 0.86666 0.25973 0.0
C645 C 0.01856 0.88756 0.21307 0.0
C646 C 0.01569 0.81937 0.08956 0.0
C647 C 0.02703 0.86878 0.35093 0.0
H648 H 0.99218 0.77614 0.35187 0.0
H649 H 0.06791 0.78125 0.31558 0.0
H650 H 0.97961 0.8386 0.30793 0.0
H651 H 0.97292 0.81695 0.23027 0.0
H652 H 0.96718 0.81007 0.33723 0.0
H653 H 0.08609 0.81479 0.25577 0.0
H654 H 0.06778 0.82663 0.17399 0.0
H655 H 0.07046 0.84267 0.26876 0.0
H656 H 0.0105 0.86313 0.0231 0.0
H657 H 0.01903 0.90474 0.24368 0.0
H658 H 1.00133 0.80807 0.11627 0.0
H659 H 0.03274 0.80963 0.09777 0.0
H660 H 0.01233 0.82157 0.02237 0.0
H661 H 0.0178 0.85451 0.38622 0.0
H662 H 0.02146 0.8864 0.37568 0.0
H663 H 0.04645 0.86676 0.36157 0.0
C664 C 0.71735 0.97078 0.32356 0.0
C665 C 0.73091 0.9918 0.31916 0.0
C666 C 0.69391 0.97006 0.29324 0.0
C667 C 0.68412 0.99067 0.25549 0.0
C668 C 0.69746 0.01212 0.25327 0.0
C669 C 0.72065 0.01242 0.28518 0.0
C670 C 0.6802 0.9469 0.29815 0.0
C671 C 0.68759 0.03457 0.21437 0.0
C672 C 0.63879 0.98675 0.08322 0.0
C673 C 0.61794 0.99454 0.1228 0.0
C674 C 0.66018 0.98414 0.12694 0.0
C675 C 0.66079 0.98958 0.21224 0.0
C676 C 0.63953 0.99618 0.25355 0.0
C677 C 0.61835 0.99858 0.20834 0.0
C678 C 0.68243 0.97683 0.08077 0.0
C679 C 0.63933 1.00199 0.34446 0.0
H680 H 0.7253 0.95454 0.34681 0.0
H681 H 0.73098 0.02877 0.28195 0.0
H682 H 0.66096 0.95009 0.30974 0.0
H683 H 0.68186 0.9374 0.2384 0.0
H684 H 0.68722 0.93507 0.34765 0.0
H685 H 0.69976 0.05009 0.22144 0.0
H686 H 0.68454 0.0316 0.14749 0.0
H687 H 0.67013 0.0391 0.24261 0.0
H688 H 0.63873 0.98381 0.01709 0.0
H689 H 0.60222 0.00422 0.23972 0.0
H690 H 0.69126 0.96173 0.11292 0.0
H691 H 0.69523 0.99195 0.07935 0.0
H692 H 0.67859 0.97143 0.01618 0.0
H693 H 0.65156 0.99011 0.37906 0.0
H694 H 0.62114 1.00041 0.37137 0.0
H695 H 0.64555 0.02062 0.35316 0.0
C696 C 0.49803 0.72099 0.29762 0.0
C697 C 0.47685 0.73425 0.29836 0.0
C698 C 0.49863 0.6977 0.26604 0.0
C699 C 0.47772 0.68772 0.23161 0.0
C700 C 0.45614 0.70078 0.23373 0.0
C701 C 0.45596 0.72387 0.26724 0.0
C702 C 0.522 0.68435 0.26576 0.0
C703 C 0.43347 0.69076 0.19761 0.0
C704 C 0.48664 0.64342 0.05783 0.0
C705 C 0.48248 0.6215 0.09751 0.0
C706 C 0.48502 0.66501 0.10088 0.0
C707 C 0.47901 0.66476 0.18587 0.0
C708 C 0.47454 0.64272 0.22634 0.0
C709 C 0.47625 0.62134 0.18157 0.0
C710 C 0.48974 0.68812 0.05521 0.0
C711 C 0.4678 0.64166 0.31658 0.0
H712 H 0.51449 0.72909 0.31765 0.0
H713 H 0.43951 0.73401 0.26757 0.0
H714 H 0.51926 0.66528 0.28169 0.0
H715 H 0.52992 0.68513 0.20293 0.0
H716 H 0.53497 0.69214 0.30991 0.0
H717 H 0.4179 0.70262 0.20823 0.0
H718 H 0.43574 0.68824 0.13008 0.0
H719 H 0.42957 0.67299 0.22495 0.0
H720 H 0.49097 0.64373 0.99254 0.0
H721 H 0.4731 0.60447 0.2128 0.0
H722 H 0.50501 0.69759 0.08371 0.0
H723 H 0.47399 0.70001 0.06 0.0
H724 H 0.49382 0.68523 0.9888 0.0
H725 H 0.47837 0.65461 0.35292 0.0
H726 H 0.47039 0.62351 0.34306 0.0
H727 H 0.44873 0.64649 0.3236 0.0
C728 C 0.78292 0.53228 0.28889 0.0
C729 C 0.76415 0.5319 0.23197 0.0
C730 C 0.80659 0.5285 0.26363 0.0
C731 C 0.81164 0.52459 0.17896 0.0
C732 C 0.79286 0.52519 0.12067 0.0
C733 C 0.76934 0.52883 0.14791 0.0
C734 C 0.82598 0.52804 0.32819 0.0
C735 C 0.79758 0.52166 0.02965 0.0
C736 C 0.87547 0.53332 0.10468 0.0
C737 C 0.88348 0.50968 0.0989 0.0
C738 C 0.85207 0.53844 0.13008 0.0
C739 C 0.83646 0.51948 0.15136 0.0
C740 C 0.84456 0.49559 0.14632 0.0
C741 C 0.86792 0.49097 0.1194 0.0
C742 C 0.84406 0.56413 0.13455 0.0
C743 C 0.82863 0.47493 0.17015 0.0
H744 H 0.77919 0.5359 0.35317 0.0
H745 H 0.75492 0.52881 0.10348 0.0
H746 H 0.83024 0.5092 0.34361 0.0
H747 H 0.84258 0.53663 0.30544 0.0
H748 H 0.82035 0.53716 0.38579 0.0
H749 H 0.78119 0.52372 0.99193 0.0
H750 H 0.81108 0.53473 0.00759 0.0
H751 H 0.80499 0.50357 0.01903 0.0
H752 H 0.88744 0.54779 0.08822 0.0
H753 H 0.8742 0.4727 0.11572 0.0
H754 H 0.83888 0.56856 0.19889 0.0
H755 H 0.82809 0.56682 0.09531 0.0
H756 H 0.8582 0.57677 0.11414 0.0
H757 H 0.8228 0.47687 0.23536 0.0
H758 H 0.83767 0.45741 0.16313 0.0
H759 H 0.81235 0.47498 0.13138 0.0
C760 C 1.00162 0.16972 0.8996 0.0
C761 C 0.0223 0.18371 0.90477 0.0
C762 C 1.00222 0.14696 0.86434 0.0
C763 C 0.02396 0.13809 0.83221 0.0
C764 C 0.04475 0.1524 0.83465 0.0
C765 C 0.04371 0.17504 0.87145 0.0
C766 C 0.97971 0.13211 0.86385 0.0
C767 C 0.06817 0.14355 0.80032 0.0
C768 C 0.02666 0.0707 0.83099 0.0
C769 C 0.01929 0.06548 0.75027 0.0
C770 C 0.0295 0.09433 0.85717 0.0
C771 C 0.02499 0.11322 0.80115 0.0
C772 C 0.01904 0.10812 0.71816 0.0
C773 C 0.01619 0.08427 0.69371 0.0
C774 C 0.03586 0.09904 0.94628 0.0
C775 C 0.01434 0.12782 0.65641 0.0
H776 H 0.98499 0.1763 0.92504 0.0
H777 H 0.05973 0.18584 0.87479 0.0
H778 H 0.97557 0.12632 0.80002 0.0
H779 H 0.98233 0.11576 0.90165 0.0
H780 H 0.96411 0.14197 0.8888 0.0
H781 H 0.08219 0.15758 0.80098 0.0
H782 H 0.07447 0.1281 0.83732 0.0
H783 H 0.06581 0.13726 0.73595 0.0
H784 H 0.02936 0.05635 0.87506 0.0
H785 H 0.01058 0.08047 0.63117 0.0
H786 H 0.0202 0.10669 0.97875 0.0
H787 H 0.05052 0.11228 0.9503 0.0
H788 H 0.04135 0.08253 0.97932 0.0
H789 H 0.99732 0.13684 0.6721 0.0
H790 H 0.01307 0.12096 0.59225 0.0
H791 H 0.02865 0.14149 0.65885 0.0
C792 C 0.33094 0.98792 0.82592 0.0
C793 C 0.31885 0.00547 0.87108 0.0
C794 C 0.35442 0.99156 0.79909 0.0
C795 C 0.36589 0.01348 0.81641 0.0
C796 C 0.35333 0.03181 0.85775 0.0
C797 C 0.32997 0.02749 0.88546 0.0
C798 C 0.36735 0.97142 0.75624 0.0
C799 C 0.36485 0.0556 0.87556 0.0
C800 C 0.43294 0.00925 0.83576 0.0
C801 C 0.44041 0.01557 0.75592 0.0
C802 C 0.40871 0.00925 0.85702 0.0
C803 C 0.39164 0.01622 0.79742 0.0
C804 C 0.39917 0.02383 0.71806 0.0
C805 C 0.42351 0.02312 0.69785 0.0
C806 C 0.40133 1.00057 0.94187 0.0
C807 C 0.38149 0.03188 0.65364 0.0
H808 H 0.32247 0.97082 0.81483 0.0
H809 H 0.32063 0.04118 0.91989 0.0
H810 H 0.37506 0.97771 0.69686 0.0
H811 H 0.38236 0.96522 0.79534 0.0
H812 H 0.35549 0.95596 0.74371 0.0
H813 H 0.35179 0.06892 0.89862 0.0
H814 H 0.37893 0.05326 0.92289 0.0
H815 H 0.37357 0.06281 0.8191 0.0
H816 H 0.44593 0.00321 0.88066 0.0
H817 H 0.42927 0.0282 0.63624 0.0
H818 H 0.39056 0.98402 0.93612 0.0
H819 H 0.38996 0.01408 0.97272 0.0
H820 H 0.41688 0.99673 0.9821 0.0
H821 H 0.37075 0.0164 0.63282 0.0
H822 H 0.39039 0.03995 0.59884 0.0
H823 H 0.36894 0.04512 0.68024 0.0
C824 C 0.47839 0.33546 0.88753 0.0
C825 C 0.45719 0.32215 0.88664 0.0
C826 C 0.47933 0.35858 0.85473 0.0
C827 C 0.45855 0.36871 0.81996 0.0
C828 C 0.43709 0.35538 0.81816 0.0
C829 C 0.43666 0.33219 0.85159 0.0
C830 C 0.50259 0.3722 0.85773 0.0
C831 C 0.41462 0.3657 0.78154 0.0
C832 C 0.46013 0.4362 0.81457 0.0
C833 C 0.46853 0.44066 0.7342 0.0
C834 C 0.45557 0.41287 0.84195 0.0
C835 C 0.45945 0.39352 0.78763 0.0
C836 C 0.4667 0.39794 0.70515 0.0
C837 C 0.47114 0.42148 0.67935 0.0
C838 C 0.44788 0.40885 0.93046 0.0
C839 C 0.47103 0.37773 0.64546 0.0
H840 H 0.4944 0.32782 0.91401 0.0
H841 H 0.42023 0.32199 0.85055 0.0
H842 H 0.50811 0.37754 0.79444 0.0
H843 H 0.50027 0.38881 0.89402 0.0
H844 H 0.5172 0.36159 0.88594 0.0
H845 H 0.39956 0.35281 0.78298 0.0
H846 H 0.40931 0.38193 0.81612 0.0
H847 H 0.41787 0.37122 0.71659 0.0
H848 H 0.45783 0.45087 0.85732 0.0
H849 H 0.47748 0.4247 0.61698 0.0
H850 H 0.46251 0.40006 0.96512 0.0
H851 H 0.4322 0.39678 0.93315 0.0
H852 H 0.4433 0.4258 0.96214 0.0
H853 H 0.4869 0.36741 0.66531 0.0
H854 H 0.47413 0.38424 0.58138 0.0
H855 H 0.45564 0.36528 0.64537 0.0
C856 C 0.17709 0.48176 0.03362 0.0
C857 C 0.19669 0.47489 0.98532 0.0
C858 C 0.1538 0.47961 0.00381 0.0
C859 C 0.15001 0.46949 0.92494 0.0
C860 C 0.16947 0.45983 0.8804 0.0
C861 C 0.19271 0.46292 0.91067 0.0
C862 C 0.13366 0.4904 0.05337 0.0
C863 C 0.16596 0.44779 0.79808 0.0
C864 C 0.08463 0.46102 0.87384 0.0
C865 C 0.08012 0.48162 0.82721 0.0
C866 C 0.10777 0.45581 0.90127 0.0
C867 C 0.1264 0.47225 0.88488 0.0
C868 C 0.12193 0.49279 0.83591 0.0
C869 C 0.09887 0.49696 0.80623 0.0
C870 C 0.11208 0.43327 0.95034 0.0
C871 C 0.14115 0.5111 0.81884 0.0
H872 H 0.18 0.49035 0.09256 0.0
H873 H 0.20774 0.45706 0.87371 0.0
H874 H 0.11763 0.47883 0.05258 0.0
H875 H 0.1388 0.49349 0.11869 0.0
H876 H 0.12868 0.50782 0.02546 0.0
H877 H 0.18174 0.43698 0.7802 0.0
H878 H 0.15 0.43607 0.79951 0.0
H879 H 0.16305 0.46153 0.74963 0.0
H880 H 0.07001 0.44911 0.88937 0.0
H881 H 0.09521 0.51298 0.77063 0.0
H882 H 0.11474 0.43778 0.01632 0.0
H883 H 0.1285 0.42419 0.92846 0.0
H884 H 0.09686 0.42063 0.94593 0.0
H885 H 0.14749 0.51877 0.87798 0.0
H886 H 0.13477 0.52591 0.7788 0.0
H887 H 0.15666 0.50256 0.78839 0.0
C888 C 0.92685 0.82078 0.54818 0.0
C889 C 0.94339 0.80241 0.53673 0.0
C890 C 0.93424 0.84438 0.56113 0.0
C891 C 0.95888 0.84979 0.56264 0.0
C892 C 0.97577 0.83137 0.54916 0.0
C893 C 0.96782 0.80782 0.53698 0.0
C894 C 0.91563 0.86341 0.57556 0.0
C895 C 1.00227 0.83604 0.55121 0.0
C896 C 0.9749 0.91544 0.53856 0.0
C897 C 0.97777 0.92246 0.62111 0.0
C898 C 0.96945 0.89169 0.51839 0.0
C899 C 0.9667 0.87454 0.5822 0.0
C900 C 0.97014 0.88137 0.6654 0.0
C901 C 0.97558 0.90521 0.68386 0.0
C902 C 0.96624 0.88502 0.42889 0.0
C903 C 0.96777 0.86352 0.73509 0.0
H904 H 0.90796 0.81657 0.54841 0.0
H905 H 0.98082 0.79379 0.53009 0.0
H906 H 0.91778 0.871 0.63833 0.0
H907 H 0.91804 0.87824 0.53069 0.0
H908 H 0.89718 0.8564 0.56974 0.0
H909 H 0.01198 0.82345 0.51023 0.0
H910 H 0.00679 0.85458 0.53261 0.0
H911 H 0.00879 0.83319 0.61513 0.0
H912 H 0.97675 0.92852 0.48944 0.0
H913 H 0.97801 0.9103 0.74781 0.0
H914 H 0.9471 0.88155 0.41668 0.0
H915 H 0.97609 0.86836 0.41497 0.0
H916 H 0.9725 0.89931 0.38624 0.0
H917 H 0.94944 0.85604 0.73618 0.0
H918 H 0.97156 0.87155 0.79632 0.0
H919 H 0.98024 0.84843 0.72505 0.0
C920 C 0.69433 0.94464 0.55835 0.0
C921 C 0.69618 0.92001 0.57326 0.0
C922 C 0.67236 0.95647 0.56706 0.0
C923 C 0.65193 0.94341 0.59259 0.0
C924 C 0.65379 0.91855 0.60709 0.0
C925 C 0.67588 0.90722 0.59729 0.0
C926 C 0.67149 0.98306 0.55174 0.0
C927 C 0.63249 0.90393 0.63432 0.0
C928 C 0.59962 0.97371 0.69857 0.0
C929 C 0.58265 0.97444 0.63504 0.0
C930 C 0.62253 0.9644 0.68482 0.0
C931 C 0.62862 0.95551 0.60578 0.0
C932 C 0.61184 0.95684 0.54078 0.0
C933 C 0.58907 0.96622 0.5562 0.0
C934 C 0.64007 0.96367 0.75532 0.0
C935 C 0.61763 0.94764 0.4555 0.0
H936 H 0.70996 0.95489 0.54208 0.0
H937 H 0.67735 0.88821 0.60936 0.0
H938 H 0.65366 0.98907 0.53083 0.0
H939 H 0.67567 0.99246 0.61015 0.0
H940 H 0.68497 0.98854 0.50489 0.0
H941 H 0.63688 0.88472 0.64208 0.0
H942 H 0.62555 0.91081 0.69391 0.0
H943 H 0.61796 0.90559 0.58833 0.0
H944 H 0.595 0.98022 0.7595 0.0
H945 H 0.5762 0.96679 0.50642 0.0
H946 H 0.65667 0.97321 0.73746 0.0
H947 H 0.64498 0.94489 0.76916 0.0
H948 H 0.63282 0.97191 0.81245 0.0
H949 H 0.60504 0.95457 0.40831 0.0
H950 H 0.61655 0.92786 0.45575 0.0
H951 H 0.63603 0.95262 0.43713 0.0
C952 C 0.57361 0.6786 0.51598 0.0
C953 C 0.5587 0.69839 0.50635 0.0
C954 C 0.56426 0.65562 0.52753 0.0
C955 C 0.53924 0.65232 0.52976 0.0
C956 C 0.52398 0.67217 0.51732 0.0
C957 C 0.53389 0.69506 0.50636 0.0
C958 C 0.58119 0.63498 0.54032 0.0
C959 C 0.49719 0.6697 0.51982 0.0
C960 C 0.51811 0.58806 0.50981 0.0
C961 C 0.51552 0.5813 0.59295 0.0
C962 C 0.525 0.61138 0.48807 0.0
C963 C 0.52942 0.62834 0.55085 0.0
C964 C 0.52609 0.62184 0.63466 0.0
C965 C 0.51926 0.59842 0.6547 0.0
C966 C 0.52788 0.61782 0.39804 0.0
C967 C 0.53017 0.63953 0.70338 0.0
H968 H 0.59279 0.68119 0.51626 0.0
H969 H 0.52214 0.71023 0.50074 0.0
H970 H 0.57887 0.6276 0.60355 0.0
H971 H 0.57714 0.62044 0.49617 0.0
H972 H 0.60014 0.64033 0.53225 0.0
H973 H 0.48851 0.68359 0.48102 0.0
H974 H 0.49119 0.65186 0.4988 0.0
H975 H 0.49096 0.67214 0.58436 0.0
H976 H 0.515 0.57508 0.46151 0.0
H977 H 0.51703 0.59355 0.71911 0.0
H978 H 0.54691 0.62165 0.38445 0.0
H979 H 0.51768 0.63427 0.3841 0.0
H980 H 0.52171 0.60336 0.35645 0.0
H981 H 0.54912 0.64528 0.70341 0.0
H982 H 0.52578 0.63198 0.76515 0.0
H983 H 0.51913 0.65569 0.69315 0.0
C984 C 0.83008 0.50198 0.57811 0.0
C985 C 0.81635 0.52282 0.57246 0.0
C986 C 0.85341 0.50266 0.60884 0.0
C987 C 0.86327 0.52475 0.63394 0.0
C988 C 0.84923 0.5457 0.63116 0.0
C989 C 0.82589 0.54447 0.60064 0.0
C990 C 0.8678 0.47989 0.61172 0.0
C991 C 0.85918 0.56955 0.65738 0.0
C992 C 0.91984 0.52186 0.76121 0.0
C993 C 0.93745 0.52425 0.69983 0.0
C994 C 0.89555 0.52268 0.74121 0.0
C995 C 0.88874 0.52609 0.65792 0.0
C996 C 0.90639 0.52958 0.5963 0.0
C997 C 0.93055 0.52858 0.61799 0.0
C998 C 0.87725 0.51882 0.80864 0.0
C999 C 0.89977 0.5335 0.50687 0.0
H1000 H 0.8228 0.48517 0.55678 0.0
H1001 H 0.81539 0.56067 0.59652 0.0
H1002 H 0.883 0.4812 0.56788 0.0
H1003 H 0.87535 0.47721 0.67433 0.0
H1004 H 0.85699 0.46396 0.59544 0.0
H1005 H 0.84543 0.58383 0.65694 0.0
H1006 H 0.86682 0.56826 0.72035 0.0
H1007 H 0.87385 0.57488 0.615 0.0
H1008 H 0.92497 0.51849 0.82469 0.0
H1009 H 0.94402 0.53055 0.57029 0.0
H1010 H 0.86851 0.50122 0.8 0.0
H1011 H 0.86312 0.53263 0.80542 0.0
H1012 H 0.88532 0.51919 0.87123 0.0
H1013 H 0.89082 0.51732 0.48253 0.0
H1014 H 0.91556 0.53744 0.4675 0.0
H1015 H 0.88698 0.54852 0.50134 0.0
loop_
_geom_bond_atom_site_label_1
_geom_bond_atom_site_label_2
_geom_bond_distance
_geom_bond_site_symmetry_2
_ccdc_geom_bond_type
O0 Cd1 2.300 . S
O0 C7 1.275 . S
Cd1 O0 2.300 . S
Cd1 O9 2.381 . S
Cd1 O10 2.378 . S
O2 Cd3 2.385 . S
O2 C7 1.255 . S
Cd3 O2 2.385 . S
Cd3 O4 2.317 . S
O4 Cd3 2.317 . S
O4 C5 1.232 . S
C5 O4 1.232 . S
C5 O6 1.218 . S
O6 C5 1.218 . S
C7 O0 1.275 . S
C7 O2 1.255 . S
C8 O9 1.258 . S
C8 O10 1.256 . S
O9 Cd1 2.381 . S
O9 C8 1.258 . S
O10 Cd1 2.378 . S
O10 C8 1.256 . S
O11 Cd12 2.300 1_655 S
O11 C18 1.275 1_655 S
Cd12 O11 2.300 1_455 S
Cd12 O20 2.381 1_455 S
Cd12 O21 2.378 . S
O13 Cd14 2.385 . S
O13 C18 1.255 . S
Cd14 O13 2.385 . S
Cd14 O15 2.317 . S
O15 Cd14 2.317 . S
O15 C16 1.232 . S
C16 O15 1.232 . S
C16 O17 1.218 . S
O17 C16 1.218 . S
C18 O11 1.275 1_455 S
C18 O13 1.255 . S
C19 O20 1.258 1_455 S
C19 O21 1.256 . S
O20 Cd12 2.381 1_655 S
O20 C19 1.258 1_655 S
O21 Cd12 2.378 . S
O21 C19 1.256 . S
O22 Cd23 2.300 1_565 S
O22 C29 1.275 1_565 S
Cd23 O22 2.300 1_545 S
Cd23 O31 2.381 1_545 S
Cd23 O32 2.378 . S
O24 Cd25 2.385 . S
O24 C29 1.255 . S
Cd25 O24 2.385 . S
Cd25 O26 2.317 . S
O26 Cd25 2.317 . S
O26 C27 1.232 . S
C27 O26 1.232 . S
C27 O28 1.218 . S
O28 C27 1.218 . S
C29 O22 1.275 1_545 S
C29 O24 1.255 . S
C30 O31 1.258 1_545 S
C30 O32 1.256 . S
O31 Cd23 2.381 1_565 S
O31 C30 1.258 1_565 S
O32 Cd23 2.378 . S
O32 C30 1.256 . S
O33 Cd34 2.300 . S
O33 C40 1.275 . S
Cd34 O33 2.300 . S
Cd34 O42 2.381 . S
Cd34 O43 2.378 . S
O35 Cd36 2.385 . S
O35 C40 1.255 . S
Cd36 O35 2.385 . S
Cd36 O37 2.317 . S
O37 Cd36 2.317 . S
O37 C38 1.232 . S
C38 O37 1.232 . S
C38 O39 1.218 . S
O39 C38 1.218 . S
C40 O33 1.275 . S
C40 O35 1.255 . S
C41 O42 1.258 . S
C41 O43 1.256 . S
O42 Cd34 2.381 . S
O42 C41 1.258 . S
O43 Cd34 2.378 . S
O43 C41 1.256 . S
O44 Cd45 2.300 . S
O44 C51 1.275 . S
Cd45 O44 2.300 . S
Cd45 O53 2.381 . S
Cd45 O54 2.378 . S
O46 Cd47 2.385 . S
O46 C51 1.255 . S
Cd47 O46 2.385 . S
Cd47 O48 2.317 1_554 S
O48 Cd47 2.317 1_556 S
O48 C49 1.232 . S
C49 O48 1.232 . S
C49 O50 1.218 . S
O50 C49 1.218 . S
C51 O44 1.275 . S
C51 O46 1.255 . S
C52 O53 1.258 . S
C52 O54 1.256 . S
O53 Cd45 2.381 . S
O53 C52 1.258 . S
O54 Cd45 2.378 . S
O54 C52 1.256 . S
O55 Cd56 2.300 1_655 S
O55 C62 1.275 1_655 S
Cd56 O55 2.300 1_455 S
Cd56 O64 2.381 1_455 S
Cd56 O65 2.378 . S
O57 Cd58 2.385 . S
O57 C62 1.255 . S
Cd58 O57 2.385 . S
Cd58 O59 2.317 1_554 S
O59 Cd58 2.317 1_556 S
O59 C60 1.232 . S
C60 O59 1.232 . S
C60 O61 1.218 . S
O61 C60 1.218 . S
C62 O55 1.275 1_455 S
C62 O57 1.255 . S
C63 O64 1.258 1_455 S
C63 O65 1.256 . S
O64 Cd56 2.381 1_655 S
O64 C63 1.258 1_655 S
O65 Cd56 2.378 . S
O65 C63 1.256 . S
O66 Cd67 2.300 1_565 S
O66 C73 1.275 1_565 S
Cd67 O66 2.300 1_545 S
Cd67 O75 2.381 1_545 S
Cd67 O76 2.378 . S
O68 Cd69 2.385 . S
O68 C73 1.255 . S
Cd69 O68 2.385 . S
Cd69 O70 2.317 1_554 S
O70 Cd69 2.317 1_556 S
O70 C71 1.232 . S
C71 O70 1.232 . S
C71 O72 1.218 . S
O72 C71 1.218 . S
C73 O66 1.275 1_545 S
C73 O68 1.255 . S
C74 O75 1.258 1_545 S
C74 O76 1.256 . S
O75 Cd67 2.381 1_565 S
O75 C74 1.258 1_565 S
O76 Cd67 2.378 . S
O76 C74 1.256 . S
O77 Cd78 2.300 . S
O77 C84 1.275 . S
Cd78 O77 2.300 . S
Cd78 O86 2.381 . S
Cd78 O87 2.378 . S
O79 Cd80 2.388 . S
O79 C84 1.255 . S
Cd80 O79 2.388 . S
Cd80 O81 2.315 1_554 S
O81 Cd80 2.315 1_556 S
O81 C82 1.232 . S
C82 O81 1.232 . S
C82 O83 1.218 . S
O83 C82 1.218 . S
C84 O77 1.275 . S
C84 O79 1.255 . S
C85 O86 1.258 . S
C85 O87 1.256 . S
O86 Cd78 2.381 . S
O86 C85 1.258 . S
O87 Cd78 2.378 . S
O87 C85 1.256 . S
C88 Eu89 2.835 . S
C88 C90 1.500 . S
C88 O108 1.257 . S
C88 O109 1.260 . S
Eu89 C88 2.835 . S
Eu89 O108 2.473 . S
Eu89 O109 2.480 . S
Eu89 O110 2.430 . S
Eu89 O111 2.670 1_545 S
Eu89 O112 2.394 . S
Eu89 O117 2.355 1_655 S
Eu89 O119 2.374 1_545 S
C90 C88 1.500 . S
C90 C91 1.377 . S
C90 C95 1.377 . S
C91 C90 1.377 . S
C91 C92 1.395 . S
C91 H120 0.931 . S
C92 C91 1.395 . S
C92 C93 1.383 . S
C92 H121 0.931 . S
C93 C92 1.383 . S
C93 C94 1.394 . S
C94 C93 1.394 . S
C94 C95 1.378 . S
C94 H122 0.931 1_655 S
C95 C90 1.377 . S
C95 C94 1.378 . S
C95 H123 0.931 1_655 S
C96 O110 1.284 . S
C96 O111 1.252 1_545 S
C97 O112 1.251 1_455 S
C97 O113 1.251 . S
C98 Eu99 2.835 . S
C98 C100 1.500 . S
C98 O114 1.257 . S
C98 O115 1.260 . S
Eu99 C98 2.835 . S
Eu99 O111 2.355 1_455 S
Eu99 O113 2.374 1_565 S
Eu99 O114 2.473 . S
Eu99 O115 2.480 . S
Eu99 O116 2.430 . S
Eu99 O117 2.670 1_565 S
Eu99 O118 2.394 . S
C100 C98 1.500 . S
C100 C101 1.377 . S
C100 C105 1.377 . S
C101 C100 1.377 . S
C101 C102 1.395 . S
C101 H124 0.931 . S
C102 C101 1.395 . S
C102 C103 1.383 1_556 S
C102 H125 0.931 . S
C103 C102 1.383 1_554 S
C103 C104 1.394 1_554 S
C104 C103 1.394 1_556 S
C104 C105 1.378 . S
C104 H126 0.931 1_456 S
C105 C100 1.377 . S
C105 C104 1.378 . S
C105 H127 0.931 1_455 S
C106 O116 1.278 . S
C106 O117 1.256 1_565 S
C107 O118 1.251 1_655 S
C107 O119 1.251 . S
O108 C88 1.257 . S
O108 Eu89 2.473 . S
O109 C88 1.260 . S
O109 Eu89 2.480 . S
O110 Eu89 2.430 . S
O110 C96 1.284 . S
O111 Eu89 2.670 1_565 S
O111 C96 1.252 1_565 S
O111 Eu99 2.355 1_655 S
O112 Eu89 2.394 . S
O112 C97 1.251 1_655 S
O113 C97 1.251 . S
O113 Eu99 2.374 1_545 S
O114 C98 1.257 . S
O114 Eu99 2.473 . S
O115 C98 1.260 . S
O115 Eu99 2.480 . S
O116 Eu99 2.430 . S
O116 C106 1.278 . S
O117 Eu89 2.355 1_455 S
O117 Eu99 2.670 1_545 S
O117 C106 1.256 1_545 S
O118 Eu99 2.394 . S
O118 C107 1.251 1_455 S
O119 Eu89 2.374 1_565 S
O119 C107 1.251 . S
H120 C91 0.931 . S
H121 C92 0.931 . S
H122 C94 0.931 1_455 S
H123 C95 0.931 1_455 S
H124 C101 0.931 . S
H125 C102 0.931 . S
H126 C104 0.931 1_654 S
H127 C105 0.931 1_655 S
C128 Eu129 2.835 . S
C128 C130 1.500 . S
C128 O148 1.257 . S
C128 O149 1.260 . S
Eu129 C128 2.835 . S
Eu129 O148 2.473 . S
Eu129 O149 2.480 . S
Eu129 O150 2.430 . S
Eu129 O151 2.670 . S
Eu129 O152 2.394 . S
Eu129 O157 2.355 1_565 S
Eu129 O159 2.374 . S
C130 C128 1.500 . S
C130 C131 1.377 . S
C130 C135 1.377 . S
C131 C130 1.377 . S
C131 C132 1.395 . S
C131 H160 0.931 . S
C132 C131 1.395 . S
C132 C133 1.383 . S
C132 H161 0.931 . S
C133 C132 1.383 . S
C133 C134 1.394 . S
C134 C133 1.394 . S
C134 C135 1.378 . S
C134 H162 0.931 1_565 S
C135 C130 1.377 . S
C135 C134 1.378 . S
C135 H163 0.931 1_565 S
C136 O150 1.259 . S
C136 O151 1.270 . S
C137 O152 1.251 1_545 S
C137 O153 1.251 . S
C138 Eu139 2.835 . S
C138 C140 1.500 . S
C138 O154 1.257 . S
C138 O155 1.260 . S
Eu139 C138 2.835 . S
Eu139 O151 2.355 1_545 S
Eu139 O153 2.374 . S
Eu139 O154 2.473 . S
Eu139 O155 2.480 . S
Eu139 O156 2.430 . S
Eu139 O157 2.670 . S
Eu139 O158 2.394 . S
C140 C138 1.500 . S
C140 C141 1.377 . S
C140 C145 1.377 . S
C141 C140 1.377 . S
C141 C142 1.395 . S
C141 H164 0.931 . S
C142 C141 1.395 . S
C142 C143 1.383 1_556 S
C142 H165 0.931 . S
C143 C142 1.383 1_554 S
C143 C144 1.394 1_554 S
C144 C143 1.394 1_556 S
C144 C145 1.378 . S
C144 H166 0.931 1_546 S
C145 C140 1.377 . S
C145 C144 1.378 . S
C145 H167 0.931 1_545 S
C146 O156 1.259 . S
C146 O157 1.270 . S
C147 O158 1.251 1_565 S
C147 O159 1.251 . S
O148 C128 1.257 . S
O148 Eu129 2.473 . S
O149 C128 1.260 . S
O149 Eu129 2.480 . S
O150 Eu129 2.430 . S
O150 C136 1.259 . S
O151 Eu129 2.670 . S
O151 C136 1.270 . S
O151 Eu139 2.355 1_565 S
O152 Eu129 2.394 . S
O152 C137 1.251 1_565 S
O153 C137 1.251 . S
O153 Eu139 2.374 . S
O154 C138 1.257 . S
O154 Eu139 2.473 . S
O155 C138 1.260 . S
O155 Eu139 2.480 . S
O156 Eu139 2.430 . S
O156 C146 1.259 . S
O157 Eu129 2.355 1_545 S
O157 Eu139 2.670 . S
O157 C146 1.270 . S
O158 Eu139 2.394 . S
O158 C147 1.251 1_545 S
O159 Eu129 2.374 . S
O159 C147 1.251 . S
H160 C131 0.931 . S
H161 C132 0.931 . S
H162 C134 0.931 1_545 S
H163 C135 0.931 1_545 S
H164 C141 0.931 . S
H165 C142 0.931 . S
H166 C144 0.931 1_564 S
H167 C145 0.931 1_565 S
C168 Eu169 2.835 . S
C168 C170 1.500 . S
C168 O188 1.257 . S
C168 O189 1.260 . S
Eu169 C168 2.835 . S
Eu169 O188 2.473 . S
Eu169 O189 2.480 . S
Eu169 O190 2.430 . S
Eu169 O191 2.670 . S
Eu169 O192 2.394 . S
Eu169 O197 2.355 . S
Eu169 O199 2.374 . S
C170 C168 1.500 . S
C170 C171 1.377 . S
C170 C175 1.377 . S
C171 C170 1.377 . S
C171 C172 1.395 . S
C171 H200 0.931 . S
C172 C171 1.395 . S
C172 C173 1.383 . S
C172 H201 0.931 . S
C173 C172 1.383 . S
C173 C174 1.394 . S
C174 C173 1.394 . S
C174 C175 1.378 . S
C174 H202 0.931 . S
C175 C170 1.377 . S
C175 C174 1.378 . S
C175 H203 0.931 . S
C176 O190 1.259 . S
C176 O191 1.270 . S
C177 O192 1.251 . S
C177 O193 1.251 . S
C178 Eu179 2.835 . S
C178 C180 1.500 . S
C178 O194 1.257 . S
C178 O195 1.260 . S
Eu179 C178 2.835 . S
Eu179 O191 2.355 . S
Eu179 O193 2.374 . S
Eu179 O194 2.473 . S
Eu179 O195 2.480 . S
Eu179 O196 2.430 . S
Eu179 O197 2.670 . S
Eu179 O198 2.394 . S
C180 C178 1.500 . S
C180 C181 1.377 . S
C180 C185 1.377 . S
C181 C180 1.377 . S
C181 C182 1.395 . S
C181 H204 0.931 . S
C182 C181 1.395 . S
C182 C183 1.383 1_556 S
C182 H205 0.931 . S
C183 C182 1.383 1_554 S
C183 C184 1.393 1_554 S
C184 C183 1.393 1_556 S
C184 C185 1.381 . S
C184 H206 0.928 1_556 S
C185 C180 1.377 . S
C185 C184 1.381 . S
C185 H207 0.931 . S
C186 O196 1.259 . S
C186 O197 1.270 . S
C187 O198 1.251 . S
C187 O199 1.251 . S
O188 C168 1.257 . S
O188 Eu169 2.473 . S
O189 C168 1.260 . S
O189 Eu169 2.480 . S
O190 Eu169 2.430 . S
O190 C176 1.259 . S
O191 Eu169 2.670 . S
O191 C176 1.270 . S
O191 Eu179 2.355 . S
O192 Eu169 2.394 . S
O192 C177 1.251 . S
O193 C177 1.251 . S
O193 Eu179 2.374 . S
O194 C178 1.257 . S
O194 Eu179 2.473 . S
O195 C178 1.260 . S
O195 Eu179 2.480 . S
O196 Eu179 2.430 . S
O196 C186 1.259 . S
O197 Eu169 2.355 . S
O197 Eu179 2.670 . S
O197 C186 1.270 . S
O198 Eu179 2.394 . S
O198 C187 1.251 . S
O199 Eu169 2.374 . S
O199 C187 1.251 . S
H200 C171 0.931 . S
H201 C172 0.931 . S
H202 C174 0.931 . S
H203 C175 0.931 . S
H204 C181 0.931 . S
H205 C182 0.931 . S
H206 C184 0.928 1_554 S
H207 C185 0.931 . S
C208 Eu209 2.835 . S
C208 C210 1.500 . S
C208 O228 1.257 . S
C208 O229 1.260 . S
Eu209 C208 2.835 . S
Eu209 O228 2.473 . S
Eu209 O229 2.480 . S
Eu209 O230 2.430 . S
Eu209 O231 2.670 1_455 S
Eu209 O232 2.394 . S
Eu209 O237 2.355 . S
Eu209 O239 2.374 1_455 S
C210 C208 1.500 . S
C210 C211 1.377 . S
C210 C215 1.377 . S
C211 C210 1.377 . S
C211 C212 1.395 . S
C211 H240 0.931 . S
C212 C211 1.395 . S
C212 C213 1.383 . S
C212 H241 0.931 . S
C213 C212 1.383 . S
C213 C214 1.394 . S
C214 C213 1.394 . S
C214 C215 1.378 . S
C214 H242 0.931 . S
C215 C210 1.377 . S
C215 C214 1.378 . S
C215 H243 0.931 . S
C216 O230 1.272 . S
C216 O231 1.260 1_455 S
C217 O232 1.251 . S
C217 O233 1.251 . S
C218 Eu219 2.835 . S
C218 C220 1.500 . S
C218 O234 1.257 . S
C218 O235 1.260 . S
Eu219 C218 2.835 . S
Eu219 O231 2.355 . S
Eu219 O233 2.374 1_655 S
Eu219 O234 2.473 . S
Eu219 O235 2.480 . S
Eu219 O236 2.430 . S
Eu219 O237 2.670 1_655 S
Eu219 O238 2.394 . S
C220 C218 1.500 . S
C220 C221 1.377 . S
C220 C225 1.377 . S
C221 C220 1.377 . S
C221 C222 1.395 . S
C221 H244 0.931 . S
C222 C221 1.395 . S
C222 C223 1.383 1_556 S
C222 H245 0.931 . S
C223 C222 1.383 1_554 S
C223 C224 1.394 1_554 S
C224 C223 1.394 1_556 S
C224 C225 1.378 . S
C224 H246 0.931 1_556 S
C225 C220 1.377 . S
C225 C224 1.378 . S
C225 H247 0.931 . S
C226 O236 1.267 . S
C226 O237 1.264 1_655 S
C227 O238 1.251 . S
C227 O239 1.251 . S
O228 C208 1.257 . S
O228 Eu209 2.473 . S
O229 C208 1.260 . S
O229 Eu209 2.480 . S
O230 Eu209 2.430 . S
O230 C216 1.272 . S
O231 Eu209 2.670 1_655 S
O231 C216 1.260 1_655 S
O231 Eu219 2.355 . S
O232 Eu209 2.394 . S
O232 C217 1.251 . S
O233 C217 1.251 . S
O233 Eu219 2.374 1_455 S
O234 C218 1.257 . S
O234 Eu219 2.473 . S
O235 C218 1.260 . S
O235 Eu219 2.480 . S
O236 Eu219 2.430 . S
O236 C226 1.267 . S
O237 Eu209 2.355 . S
O237 Eu219 2.670 1_455 S
O237 C226 1.264 1_455 S
O238 Eu219 2.394 . S
O238 C227 1.251 . S
O239 Eu209 2.374 1_655 S
O239 C227 1.251 . S
H240 C211 0.931 . S
H241 C212 0.931 . S
H242 C214 0.931 . S
H243 C215 0.931 . S
H244 C221 0.931 . S
H245 C222 0.931 . S
H246 C224 0.931 1_554 S
H247 C225 0.931 . S
C248 C249 1.391 . S
C248 C250 1.394 . S
C248 H264 0.931 . S
C249 C248 1.391 . S
C249 C253 1.376 1_565 S
C250 C248 1.394 . S
C250 C251 1.369 . S
C250 C254 1.531 . S
C251 C250 1.369 . S
C251 C252 1.410 1_565 S
C251 C259 1.503 . S
C252 C251 1.410 1_545 S
C252 C253 1.392 . S
C252 C255 1.511 . S
C253 C249 1.376 1_545 S
C253 C252 1.392 . S
C253 H265 0.929 . S
C254 C250 1.531 . S
C254 H266 0.960 . S
C254 H267 0.962 . S
C254 H268 0.960 . S
C255 C252 1.511 . S
C255 H269 0.961 . S
C255 H270 0.961 . S
C255 H271 0.961 . S
C256 C257 1.372 . S
C256 C258 1.363 . S
C256 H272 0.931 . S
C257 C256 1.372 . S
C257 C261 1.407 1_545 S
C258 C256 1.363 . S
C258 C259 1.370 1_545 S
C258 C262 1.524 . S
C259 C251 1.503 . S
C259 C258 1.370 1_565 S
C259 C260 1.403 . S
C260 C259 1.403 . S
C260 C261 1.404 . S
C260 C263 1.539 . S
C261 C257 1.407 1_565 S
C261 C260 1.404 . S
C261 H273 0.930 . S
C262 C258 1.524 . S
C262 H274 0.956 . S
C262 H275 0.961 . S
C262 H276 0.961 . S
C263 C260 1.539 . S
C263 H277 0.958 . S
C263 H278 0.961 . S
C263 H279 0.960 . S
H264 C248 0.931 . S
H265 C253 0.929 . S
H266 C254 0.960 . S
H267 C254 0.962 . S
H268 C254 0.960 . S
H269 C255 0.961 . S
H270 C255 0.961 . S
H271 C255 0.961 . S
H272 C256 0.931 . S
H273 C261 0.930 . S
H274 C262 0.956 . S
H275 C262 0.961 . S
H276 C262 0.961 . S
H277 C263 0.958 . S
H278 C263 0.961 . S
H279 C263 0.960 . S
C280 C281 1.391 . S
C280 C282 1.394 . S
C280 H296 0.931 . S
C281 C280 1.391 . S
C281 C285 1.376 . S
C282 C280 1.394 . S
C282 C283 1.369 . S
C282 C286 1.531 . S
C283 C282 1.369 . S
C283 C284 1.410 . S
C283 C291 1.503 . S
C284 C283 1.410 . S
C284 C285 1.392 . S
C284 C287 1.511 . S
C285 C281 1.376 . S
C285 C284 1.392 . S
C285 H297 0.929 . S
C286 C282 1.531 . S
C286 H298 0.960 . S
C286 H299 0.962 . S
C286 H300 0.960 . S
C287 C284 1.511 . S
C287 H301 0.961 . S
C287 H302 0.961 . S
C287 H303 0.961 . S
C288 C289 1.370 . S
C288 C290 1.363 . S
C288 H304 0.931 . S
C289 C288 1.370 . S
C289 C293 1.408 . S
C290 C288 1.363 . S
C290 C291 1.370 . S
C290 C294 1.524 . S
C291 C283 1.503 . S
C291 C290 1.370 . S
C291 C292 1.403 . S
C292 C291 1.403 . S
C292 C293 1.404 . S
C292 C295 1.539 . S
C293 C289 1.408 . S
C293 C292 1.404 . S
C293 H305 0.930 . S
C294 C290 1.524 . S
C294 H306 0.956 . S
C294 H307 0.961 . S
C294 H308 0.961 . S
C295 C292 1.539 . S
C295 H309 0.958 . S
C295 H310 0.961 . S
C295 H311 0.960 . S
H296 C280 0.931 . S
H297 C285 0.929 . S
H298 C286 0.960 . S
H299 C286 0.962 . S
H300 C286 0.960 . S
H301 C287 0.961 . S
H302 C287 0.961 . S
H303 C287 0.961 . S
H304 C288 0.931 . S
H305 C293 0.930 . S
H306 C294 0.956 . S
H307 C294 0.961 . S
H308 C294 0.961 . S
H309 C295 0.958 . S
H310 C295 0.961 . S
H311 C295 0.960 . S
C312 C313 1.391 . S
C312 C314 1.394 . S
C312 H328 0.931 . S
C313 C312 1.391 . S
C313 C317 1.376 . S
C314 C312 1.394 . S
C314 C315 1.369 . S
C314 C318 1.531 . S
C315 C314 1.369 . S
C315 C316 1.410 . S
C315 C323 1.503 . S
C316 C315 1.410 . S
C316 C317 1.392 . S
C316 C319 1.511 . S
C317 C313 1.376 . S
C317 C316 1.392 . S
C317 H329 0.929 . S
C318 C314 1.531 . S
C318 H330 0.960 . S
C318 H331 0.962 . S
C318 H332 0.960 . S
C319 C316 1.511 . S
C319 H333 0.961 . S
C319 H334 0.961 . S
C319 H335 0.961 . S
C320 C321 1.370 . S
C320 C322 1.363 . S
C320 H336 0.931 . S
C321 C320 1.370 . S
C321 C325 1.408 . S
C322 C320 1.363 . S
C322 C323 1.370 . S
C322 C326 1.524 . S
C323 C315 1.503 . S
C323 C322 1.370 . S
C323 C324 1.403 . S
C324 C323 1.403 . S
C324 C325 1.404 . S
C324 C327 1.539 . S
C325 C321 1.408 . S
C325 C324 1.404 . S
C325 H337 0.930 . S
C326 C322 1.524 . S
C326 H338 0.956 . S
C326 H339 0.961 . S
C326 H340 0.961 . S
C327 C324 1.539 . S
C327 H341 0.958 . S
C327 H342 0.961 . S
C327 H343 0.960 . S
H328 C312 0.931 . S
H329 C317 0.929 . S
H330 C318 0.960 . S
H331 C318 0.962 . S
H332 C318 0.960 . S
H333 C319 0.961 . S
H334 C319 0.961 . S
H335 C319 0.961 . S
H336 C320 0.931 . S
H337 C325 0.930 . S
H338 C326 0.956 . S
H339 C326 0.961 . S
H340 C326 0.961 . S
H341 C327 0.958 . S
H342 C327 0.961 . S
H343 C327 0.960 . S
C344 C345 1.370 1_455 S
C344 C346 1.394 . S
C344 H360 0.931 . S
C345 C344 1.370 1_655 S
C345 C349 1.398 . S
C346 C344 1.394 . S
C346 C347 1.369 1_455 S
C346 C350 1.531 . S
C347 C346 1.369 1_655 S
C347 C348 1.410 . S
C347 C355 1.504 . S
C348 C347 1.410 . S
C348 C349 1.392 . S
C348 C351 1.511 . S
C349 C345 1.398 . S
C349 C348 1.392 . S
C349 H361 0.929 . S
C350 C346 1.531 . S
C350 H362 0.960 . S
C350 H363 0.962 . S
C350 H364 0.960 . S
C351 C348 1.511 . S
C351 H365 0.961 . S
C351 H366 0.961 . S
C351 H367 0.961 . S
C352 C353 1.377 . S
C352 C354 1.363 . S
C352 H368 0.931 . S
C353 C352 1.377 . S
C353 C357 1.401 1_455 S
C354 C352 1.363 . S
C354 C355 1.360 1_455 S
C354 C358 1.524 . S
C355 C347 1.504 . S
C355 C354 1.360 1_655 S
C355 C356 1.413 . S
C356 C355 1.413 . S
C356 C357 1.404 . S
C356 C359 1.539 . S
C357 C353 1.401 1_655 S
C357 C356 1.404 . S
C357 H369 0.930 . S
C358 C354 1.524 . S
C358 H370 0.956 . S
C358 H371 0.961 . S
C358 H372 0.961 . S
C359 C356 1.539 . S
C359 H373 0.958 . S
C359 H374 0.961 . S
C359 H375 0.960 . S
H360 C344 0.931 . S
H361 C349 0.929 . S
H362 C350 0.960 . S
H363 C350 0.962 . S
H364 C350 0.960 . S
H365 C351 0.961 . S
H366 C351 0.961 . S
H367 C351 0.961 . S
H368 C352 0.931 . S
H369 C357 0.930 . S
H370 C358 0.956 . S
H371 C358 0.961 . S
H372 C358 0.961 . S
H373 C359 0.958 . S
H374 C359 0.961 . S
H375 C359 0.960 . S
C376 C377 1.391 . S
C376 C378 1.394 . S
C376 H392 0.931 . S
C377 C376 1.391 . S
C377 C381 1.376 1_545 S
C378 C376 1.394 . S
C378 C379 1.369 . S
C378 C382 1.538 . S
C379 C378 1.369 . S
C379 C380 1.410 1_545 S
C379 C387 1.503 . S
C380 C379 1.410 1_565 S
C380 C381 1.392 . S
C380 C383 1.511 . S
C381 C377 1.376 1_565 S
C381 C380 1.392 . S
C381 H393 0.929 . S
C382 C378 1.538 . S
C382 H394 0.956 1_554 S
C382 H395 0.956 1_554 S
C382 H396 0.962 . S
C383 C380 1.511 . S
C383 H397 0.961 . S
C383 H398 0.961 . S
C383 H399 0.961 . S
C384 C385 1.361 1_565 S
C384 C386 1.363 . S
C384 H400 0.931 . S
C385 C384 1.361 1_545 S
C385 C389 1.419 . S
C386 C384 1.363 . S
C386 C387 1.370 1_566 S
C386 C390 1.524 . S
C387 C379 1.503 . S
C387 C386 1.370 1_544 S
C387 C388 1.403 1_554 S
C388 C387 1.403 1_556 S
C388 C389 1.404 . S
C388 C391 1.539 1_556 S
C389 C385 1.419 . S
C389 C388 1.404 . S
C389 H401 0.930 . S
C390 C386 1.524 . S
C390 H402 0.956 . S
C390 H403 0.961 1_556 S
C390 H404 0.961 . S
C391 C388 1.539 1_554 S
C391 H405 0.958 . S
C391 H406 0.961 . S
C391 H407 0.960 . S
H392 C376 0.931 . S
H393 C381 0.929 . S
H394 C382 0.956 1_556 S
H395 C382 0.956 1_556 S
H396 C382 0.962 . S
H397 C383 0.961 . S
H398 C383 0.961 . S
H399 C383 0.961 . S
H400 C384 0.931 . S
H401 C389 0.930 . S
H402 C390 0.956 . S
H403 C390 0.961 1_554 S
H404 C390 0.961 . S
H405 C391 0.958 . S
H406 C391 0.961 . S
H407 C391 0.960 . S
C408 C409 1.391 . S
C408 C410 1.394 . S
C408 H424 0.931 . S
C409 C408 1.391 . S
C409 C413 1.376 . S
C410 C408 1.394 . S
C410 C411 1.369 . S
C410 C414 1.531 . S
C411 C410 1.369 . S
C411 C412 1.410 . S
C411 C419 1.503 . S
C412 C411 1.410 . S
C412 C413 1.392 . S
C412 C415 1.511 . S
C413 C409 1.376 . S
C413 C412 1.392 . S
C413 H425 0.929 . S
C414 C410 1.531 . S
C414 H426 0.960 1_554 S
C414 H427 0.962 . S
C414 H428 0.960 . S
C415 C412 1.511 . S
C415 H429 0.961 . S
C415 H430 0.961 . S
C415 H431 0.961 . S
C416 C417 1.370 . S
C416 C418 1.363 1_556 S
C416 H432 0.931 . S
C417 C416 1.370 . S
C417 C421 1.408 . S
C418 C416 1.363 1_554 S
C418 C419 1.370 . S
C418 C422 1.524 . S
C419 C411 1.503 . S
C419 C418 1.370 . S
C419 C420 1.403 1_554 S
C420 C419 1.403 1_556 S
C420 C421 1.404 . S
C420 C423 1.539 . S
C421 C417 1.408 . S
C421 C420 1.404 . S
C421 H433 0.930 . S
C422 C418 1.524 . S
C422 H434 0.956 . S
C422 H435 0.961 . S
C422 H436 0.961 . S
C423 C420 1.539 . S
C423 H437 0.958 . S
C423 H438 0.961 . S
C423 H439 0.960 . S
H424 C408 0.931 . S
H425 C413 0.929 . S
H426 C414 0.960 1_556 S
H427 C414 0.962 . S
H428 C414 0.960 . S
H429 C415 0.961 . S
H430 C415 0.961 . S
H431 C415 0.961 . S
H432 C416 0.931 . S
H433 C421 0.930 . S
H434 C422 0.956 . S
H435 C422 0.961 . S
H436 C422 0.961 . S
H437 C423 0.958 . S
H438 C423 0.961 . S
H439 C423 0.960 . S
C440 C441 1.391 . S
C440 C442 1.394 . S
C440 H456 0.931 . S
C441 C440 1.391 . S
C441 C445 1.376 . S
C442 C440 1.394 . S
C442 C443 1.369 . S
C442 C446 1.531 . S
C443 C442 1.369 . S
C443 C444 1.410 . S
C443 C451 1.503 . S
C444 C443 1.410 . S
C444 C445 1.392 . S
C444 C447 1.511 1_554 S
C445 C441 1.376 . S
C445 C444 1.392 . S
C445 H457 0.929 . S
C446 C442 1.531 . S
C446 H458 0.960 . S
C446 H459 0.962 . S
C446 H460 0.960 . S
C447 C444 1.511 1_556 S
C447 H461 0.961 1_556 S
C447 H462 0.961 . S
C447 H463 0.961 . S
C448 C449 1.370 . S
C448 C450 1.363 1_556 S
C448 H464 0.931 . S
C449 C448 1.370 . S
C449 C453 1.408 . S
C450 C448 1.363 1_554 S
C450 C451 1.370 . S
C450 C454 1.524 . S
C451 C443 1.503 . S
C451 C450 1.370 . S
C451 C452 1.403 1_554 S
C452 C451 1.403 1_556 S
C452 C453 1.404 . S
C452 C455 1.539 . S
C453 C449 1.408 . S
C453 C452 1.404 . S
C453 H465 0.930 . S
C454 C450 1.524 . S
C454 H466 0.956 . S
C454 H467 0.961 . S
C454 H468 0.961 . S
C455 C452 1.539 . S
C455 H469 0.958 . S
C455 H470 0.961 . S
C455 H471 0.960 . S
H456 C440 0.931 . S
H457 C445 0.929 . S
H458 C446 0.960 . S
H459 C446 0.962 . S
H460 C446 0.960 . S
H461 C447 0.961 1_554 S
H462 C447 0.961 . S
H463 C447 0.961 . S
H464 C448 0.931 . S
H465 C453 0.930 . S
H466 C454 0.956 . S
H467 C454 0.961 . S
H468 C454 0.961 . S
H469 C455 0.958 . S
H470 C455 0.961 . S
H471 C455 0.960 . S
C472 C473 1.391 1_655 S
C472 C474 1.394 . S
C472 H488 0.931 . S
C473 C472 1.391 1_455 S
C473 C477 1.376 . S
C474 C472 1.394 . S
C474 C475 1.369 1_655 S
C474 C478 1.531 1_554 S
C475 C474 1.369 1_455 S
C475 C476 1.410 . S
C475 C483 1.503 . S
C476 C475 1.410 . S
C476 C477 1.392 . S
C476 C479 1.511 . S
C477 C473 1.376 . S
C477 C476 1.392 . S
C477 H489 0.929 . S
C478 C474 1.531 1_556 S
C478 H490 0.960 . S
C478 H491 0.962 . S
C478 H492 0.960 . S
C479 C476 1.511 . S
C479 H493 0.961 . S
C479 H494 0.961 . S
C479 H495 0.961 . S
C480 C481 1.371 . S
C480 C482 1.363 . S
C480 H496 0.931 . S
C481 C480 1.371 . S
C481 C485 1.408 1_655 S
C482 C480 1.363 . S
C482 C483 1.370 1_656 S
C482 C486 1.524 1_556 S
C483 C475 1.503 . S
C483 C482 1.370 1_454 S
C483 C484 1.403 1_554 S
C484 C483 1.403 1_556 S
C484 C485 1.404 . S
C484 C487 1.539 . S
C485 C481 1.408 1_455 S
C485 C484 1.404 . S
C485 H497 0.930 . S
C486 C482 1.524 1_554 S
C486 H498 0.956 . S
C486 H499 0.961 . S
C486 H500 0.961 . S
C487 C484 1.539 . S
C487 H501 0.958 . S
C487 H502 0.961 . S
C487 H503 0.960 1_556 S
H488 C472 0.931 . S
H489 C477 0.929 . S
H490 C478 0.960 . S
H491 C478 0.962 . S
H492 C478 0.960 . S
H493 C479 0.961 . S
H494 C479 0.961 . S
H495 C479 0.961 . S
H496 C480 0.931 . S
H497 C485 0.930 . S
H498 C486 0.956 . S
H499 C486 0.961 . S
H500 C486 0.961 . S
H501 C487 0.958 . S
H502 C487 0.961 . S
H503 C487 0.960 1_554 S
C504 C505 1.391 1_655 S
C504 C506 1.394 . S
C504 H520 0.931 . S
C505 C504 1.391 1_455 S
C505 C509 1.376 . S
C506 C504 1.394 . S
C506 C507 1.369 . S
C506 C510 1.531 . S
C507 C506 1.369 . S
C507 C508 1.410 1_655 S
C507 C515 1.503 . S
C508 C507 1.410 1_455 S
C508 C509 1.392 . S
C508 C511 1.511 . S
C509 C505 1.376 . S
C509 C508 1.392 . S
C509 H521 0.929 . S
C510 C506 1.531 . S
C510 H522 0.960 . S
C510 H523 0.962 . S
C510 H524 0.960 . S
C511 C508 1.511 . S
C511 H525 0.961 . S
C511 H526 0.961 . S
C511 H527 0.961 . S
C512 C513 1.370 . S
C512 C514 1.363 . S
C512 H528 0.931 . S
C513 C512 1.370 . S
C513 C517 1.408 . S
C514 C512 1.363 . S
C514 C515 1.370 . S
C514 C518 1.524 . S
C515 C507 1.503 . S
C515 C514 1.370 . S
C515 C516 1.403 . S
C516 C515 1.403 . S
C516 C517 1.404 . S
C516 C519 1.539 . S
C517 C513 1.408 . S
C517 C516 1.404 . S
C517 H529 0.930 . S
C518 C514 1.524 . S
C518 H530 0.956 . S
C518 H531 0.961 . S
C518 H532 0.961 . S
C519 C516 1.539 . S
C519 H533 0.958 . S
C519 H534 0.961 . S
C519 H535 0.939 1_655 S
H520 C504 0.931 . S
H521 C509 0.929 . S
H522 C510 0.960 . S
H523 C510 0.962 . S
H524 C510 0.960 . S
H525 C511 0.961 . S
H526 C511 0.961 . S
H527 C511 0.961 . S
H528 C512 0.931 . S
H529 C517 0.930 . S
H530 C518 0.956 . S
H531 C518 0.961 . S
H532 C518 0.961 . S
H533 C519 0.958 . S
H534 C519 0.961 . S
H535 C519 0.939 1_455 S
C536 C537 1.414 . S
C536 C538 1.394 . S
C536 H552 0.931 . S
C537 C536 1.414 . S
C537 C541 1.366 1_565 S
C538 C536 1.394 . S
C538 C539 1.369 . S
C538 C542 1.531 . S
C539 C538 1.369 . S
C539 C540 1.410 . S
C539 C547 1.503 . S
C540 C539 1.410 . S
C540 C541 1.392 1_565 S
C540 C543 1.511 1_565 S
C541 C537 1.366 1_545 S
C541 C540 1.392 1_545 S
C541 H553 0.929 . S
C542 C538 1.531 . S
C542 H554 0.960 . S
C542 H555 0.962 . S
C542 H556 0.960 . S
C543 C540 1.511 1_545 S
C543 H557 0.961 . S
C543 H558 0.961 . S
C543 H559 0.961 1_545 S
C544 C545 1.370 . S
C544 C546 1.363 . S
C544 H560 0.908 1_565 S
C545 C544 1.370 . S
C545 C549 1.408 . S
C546 C544 1.363 . S
C546 C547 1.370 . S
C546 C550 1.524 1_565 S
C547 C539 1.503 . S
C547 C546 1.370 . S
C547 C548 1.403 . S
C548 C547 1.403 . S
C548 C549 1.404 . S
C548 C551 1.539 . S
C549 C545 1.408 . S
C549 C548 1.404 . S
C549 H561 0.930 . S
C550 C546 1.524 1_545 S
C550 H562 0.956 . S
C550 H563 0.961 . S
C550 H564 0.961 . S
C551 C548 1.539 . S
C551 H565 0.958 . S
C551 H566 0.961 . S
C551 H567 0.960 . S
H552 C536 0.931 . S
H553 C541 0.929 . S
H554 C542 0.960 . S
H555 C542 0.962 . S
H556 C542 0.960 . S
H557 C543 0.961 . S
H558 C543 0.961 . S
H559 C543 0.961 1_565 S
H560 C544 0.908 1_545 S
H561 C549 0.930 . S
H562 C550 0.956 . S
H563 C550 0.961 . S
H564 C550 0.961 . S
H565 C551 0.958 . S
H566 C551 0.961 . S
H567 C551 0.960 . S
C568 C569 1.391 . S
C568 C570 1.394 . S
C568 H584 0.931 . S
C569 C568 1.391 . S
C569 C573 1.376 . S
C570 C568 1.394 . S
C570 C571 1.369 . S
C570 C574 1.531 . S
C571 C570 1.369 . S
C571 C572 1.410 . S
C571 C579 1.503 . S
C572 C571 1.410 . S
C572 C573 1.392 . S
C572 C575 1.511 . S
C573 C569 1.376 . S
C573 C572 1.392 . S
C573 H585 0.929 . S
C574 C570 1.531 . S
C574 H586 0.960 . S
C574 H587 0.962 . S
C574 H588 0.960 . S
C575 C572 1.511 . S
C575 H589 0.961 . S
C575 H590 0.961 . S
C575 H591 0.961 . S
C576 C577 1.370 . S
C576 C578 1.363 . S
C576 H592 0.931 . S
C577 C576 1.370 . S
C577 C581 1.408 . S
C578 C576 1.363 . S
C578 C579 1.370 . S
C578 C582 1.524 . S
C579 C571 1.503 . S
C579 C578 1.370 . S
C579 C580 1.403 . S
C580 C579 1.403 . S
C580 C581 1.404 . S
C580 C583 1.539 . S
C581 C577 1.408 . S
C581 C580 1.404 . S
C581 H593 0.930 . S
C582 C578 1.524 . S
C582 H594 0.956 . S
C582 H595 0.961 . S
C582 H596 0.961 . S
C583 C580 1.539 . S
C583 H597 0.958 . S
C583 H598 0.961 . S
C583 H599 0.960 . S
H584 C568 0.931 . S
H585 C573 0.929 . S
H586 C574 0.960 . S
H587 C574 0.962 . S
H588 C574 0.960 . S
H589 C575 0.961 . S
H590 C575 0.961 . S
H591 C575 0.961 . S
H592 C576 0.931 . S
H593 C581 0.930 . S
H594 C582 0.956 . S
H595 C582 0.961 . S
H596 C582 0.961 . S
H597 C583 0.958 . S
H598 C583 0.961 . S
H599 C583 0.960 . S
C600 C601 1.391 . S
C600 C602 1.394 . S
C600 H616 0.931 . S
C601 C600 1.391 . S
C601 C605 1.376 . S
C602 C600 1.394 . S
C602 C603 1.369 . S
C602 C606 1.531 . S
C603 C602 1.369 . S
C603 C604 1.410 . S
C603 C611 1.503 . S
C604 C603 1.410 . S
C604 C605 1.392 . S
C604 C607 1.511 . S
C605 C601 1.376 . S
C605 C604 1.392 . S
C605 H617 0.929 . S
C606 C602 1.531 . S
C606 H618 0.960 . S
C606 H619 0.962 . S
C606 H620 0.960 . S
C607 C604 1.511 . S
C607 H621 0.961 . S
C607 H622 0.961 . S
C607 H623 0.961 . S
C608 C609 1.370 . S
C608 C610 1.363 . S
C608 H624 0.931 . S
C609 C608 1.370 . S
C609 C613 1.408 . S
C610 C608 1.363 . S
C610 C611 1.370 . S
C610 C614 1.524 . S
C611 C603 1.503 . S
C611 C610 1.370 . S
C611 C612 1.403 . S
C612 C611 1.403 . S
C612 C613 1.404 . S
C612 C615 1.539 . S
C613 C609 1.408 . S
C613 C612 1.404 . S
C613 H625 0.930 . S
C614 C610 1.524 . S
C614 H626 0.956 . S
C614 H627 0.961 . S
C614 H628 0.961 . S
C615 C612 1.539 . S
C615 H629 0.958 . S
C615 H630 0.961 . S
C615 H631 0.960 . S
H616 C600 0.931 . S
H617 C605 0.929 . S
H618 C606 0.960 . S
H619 C606 0.962 . S
H620 C606 0.960 . S
H621 C607 0.961 . S
H622 C607 0.961 . S
H623 C607 0.961 . S
H624 C608 0.931 . S
H625 C613 0.930 . S
H626 C614 0.956 . S
H627 C614 0.961 . S
H628 C614 0.961 . S
H629 C615 0.958 . S
H630 C615 0.961 . S
H631 C615 0.960 . S
C632 C633 1.384 1_655 S
C632 C634 1.394 . S
C632 H648 0.931 . S
C633 C632 1.384 1_455 S
C633 C637 1.387 . S
C634 C632 1.394 . S
C634 C635 1.369 1_655 S
C634 C638 1.531 . S
C635 C634 1.369 1_455 S
C635 C636 1.410 . S
C635 C643 1.503 . S
C636 C635 1.410 . S
C636 C637 1.392 . S
C636 C639 1.511 . S
C637 C633 1.387 . S
C637 C636 1.392 . S
C637 H649 0.929 . S
C638 C634 1.531 . S
C638 H650 0.960 . S
C638 H651 0.962 . S
C638 H652 0.960 . S
C639 C636 1.511 . S
C639 H653 0.961 . S
C639 H654 0.961 . S
C639 H655 0.961 . S
C640 C641 1.370 . S
C640 C642 1.363 . S
C640 H656 0.931 1_554 S
C641 C640 1.370 . S
C641 C645 1.408 . S
C642 C640 1.363 . S
C642 C643 1.370 . S
C642 C646 1.524 1_455 S
C643 C635 1.503 . S
C643 C642 1.370 . S
C643 C644 1.403 . S
C644 C643 1.403 . S
C644 C645 1.404 . S
C644 C647 1.539 . S
C645 C641 1.408 . S
C645 C644 1.404 . S
C645 H657 0.930 . S
C646 C642 1.524 1_655 S
C646 H658 0.956 . S
C646 H659 0.961 . S
C646 H660 0.961 1_554 S
C647 C644 1.539 . S
C647 H661 0.958 . S
C647 H662 0.961 . S
C647 H663 0.960 . S
H648 C632 0.931 . S
H649 C637 0.929 . S
H650 C638 0.960 . S
H651 C638 0.962 . S
H652 C638 0.960 . S
H653 C639 0.961 . S
H654 C639 0.961 . S
H655 C639 0.961 . S
H656 C640 0.931 1_556 S
H657 C645 0.930 . S
H658 C646 0.956 . S
H659 C646 0.961 . S
H660 C646 0.961 1_556 S
H661 C647 0.958 . S
H662 C647 0.961 . S
H663 C647 0.960 . S
C664 C665 1.391 1_565 S
C664 C666 1.394 1_565 S
C664 H680 0.931 . S
C665 C664 1.391 1_545 S
C665 C669 1.376 . S
C666 C664 1.394 1_545 S
C666 C667 1.369 . S
C666 C670 1.531 . S
C667 C666 1.369 . S
C667 C668 1.410 . S
C667 C675 1.503 . S
C668 C667 1.410 . S
C668 C669 1.392 . S
C668 C671 1.511 . S
C669 C665 1.376 . S
C669 C668 1.392 . S
C669 H681 0.929 . S
C670 C666 1.531 . S
C670 H682 0.960 . S
C670 H683 0.962 1_545 S
C670 H684 0.960 . S
C671 C668 1.511 . S
C671 H685 0.961 . S
C671 H686 0.961 . S
C671 H687 0.961 . S
C672 C673 1.370 . S
C672 C674 1.363 . S
C672 H688 0.931 1_545 S
C673 C672 1.370 . S
C673 C677 1.408 . S
C674 C672 1.363 . S
C674 C675 1.370 . S
C674 C678 1.524 1_545 S
C675 C667 1.503 . S
C675 C674 1.370 . S
C675 C676 1.403 . S
C676 C675 1.403 . S
C676 C677 1.404 . S
C676 C679 1.539 . S
C677 C673 1.408 . S
C677 C676 1.404 . S
C677 H689 0.930 . S
C678 C674 1.524 1_565 S
C678 H690 0.956 . S
C678 H691 0.961 . S
C678 H692 0.961 . S
C679 C676 1.539 . S
C679 H693 0.958 . S
C679 H694 0.961 . S
C679 H695 0.960 . S
H680 C664 0.931 . S
H681 C669 0.929 . S
H682 C670 0.960 . S
H683 C670 0.962 1_565 S
H684 C670 0.960 . S
H685 C671 0.961 . S
H686 C671 0.961 . S
H687 C671 0.961 . S
H688 C672 0.931 1_565 S
H689 C677 0.930 . S
H690 C678 0.956 . S
H691 C678 0.961 . S
H692 C678 0.961 . S
H693 C679 0.958 . S
H694 C679 0.961 . S
H695 C679 0.960 . S
C696 C697 1.391 . S
C696 C698 1.394 . S
C696 H712 0.931 . S
C697 C696 1.391 . S
C697 C701 1.376 . S
C698 C696 1.394 . S
C698 C699 1.369 . S
C698 C702 1.531 . S
C699 C698 1.369 . S
C699 C700 1.410 . S
C699 C707 1.503 . S
C700 C699 1.410 . S
C700 C701 1.392 . S
C700 C703 1.511 . S
C701 C697 1.376 . S
C701 C700 1.392 . S
C701 H713 0.929 . S
C702 C698 1.531 . S
C702 H714 0.960 . S
C702 H715 0.962 . S
C702 H716 0.960 . S
C703 C700 1.511 . S
C703 H717 0.961 . S
C703 H718 0.961 . S
C703 H719 0.961 . S
C704 C705 1.370 . S
C704 C706 1.363 . S
C704 H720 0.931 1_554 S
C705 C704 1.370 . S
C705 C709 1.408 . S
C706 C704 1.363 . S
C706 C707 1.370 . S
C706 C710 1.524 . S
C707 C699 1.503 . S
C707 C706 1.370 . S
C707 C708 1.403 . S
C708 C707 1.403 . S
C708 C709 1.404 . S
C708 C711 1.539 . S
C709 C705 1.408 . S
C709 C708 1.404 . S
C709 H721 0.930 . S
C710 C706 1.524 . S
C710 H722 0.956 . S
C710 H723 0.961 . S
C710 H724 0.960 1_554 S
C711 C708 1.539 . S
C711 H725 0.958 . S
C711 H726 0.961 . S
C711 H727 0.960 . S
H712 C696 0.931 . S
H713 C701 0.929 . S
H714 C702 0.960 . S
H715 C702 0.962 . S
H716 C702 0.960 . S
H717 C703 0.961 . S
H718 C703 0.961 . S
H719 C703 0.961 . S
H720 C704 0.931 1_556 S
H721 C709 0.930 . S
H722 C710 0.956 . S
H723 C710 0.961 . S
H724 C710 0.960 1_556 S
H725 C711 0.958 . S
H726 C711 0.961 . S
H727 C711 0.960 . S
C728 C729 1.391 . S
C728 C730 1.394 . S
C728 H744 0.931 . S
C729 C728 1.391 . S
C729 C733 1.376 . S
C730 C728 1.394 . S
C730 C731 1.369 . S
C730 C734 1.531 . S
C731 C730 1.369 . S
C731 C732 1.410 . S
C731 C739 1.503 . S
C732 C731 1.410 . S
C732 C733 1.392 . S
C732 C735 1.511 . S
C733 C729 1.376 . S
C733 C732 1.392 . S
C733 H745 0.929 . S
C734 C730 1.531 . S
C734 H746 0.960 . S
C734 H747 0.962 . S
C734 H748 0.960 . S
C735 C732 1.511 . S
C735 H749 0.961 . S
C735 H750 0.961 . S
C735 H751 0.961 . S
C736 C737 1.370 . S
C736 C738 1.363 . S
C736 H752 0.931 . S
C737 C736 1.370 . S
C737 C741 1.408 . S
C738 C736 1.363 . S
C738 C739 1.370 . S
C738 C742 1.524 . S
C739 C731 1.503 . S
C739 C738 1.370 . S
C739 C740 1.403 . S
C740 C739 1.403 . S
C740 C741 1.404 . S
C740 C743 1.539 . S
C741 C737 1.408 . S
C741 C740 1.404 . S
C741 H753 0.930 . S
C742 C738 1.524 . S
C742 H754 0.956 . S
C742 H755 0.961 . S
C742 H756 0.961 . S
C743 C740 1.539 . S
C743 H757 0.958 . S
C743 H758 0.961 . S
C743 H759 0.960 . S
H744 C728 0.931 . S
H745 C733 0.929 . S
H746 C734 0.960 . S
H747 C734 0.962 . S
H748 C734 0.960 . S
H749 C735 0.961 . S
H750 C735 0.961 . S
H751 C735 0.961 . S
H752 C736 0.931 . S
H753 C741 0.930 . S
H754 C742 0.956 . S
H755 C742 0.961 . S
H756 C742 0.961 . S
H757 C743 0.958 . S
H758 C743 0.961 . S
H759 C743 0.960 . S
C760 C761 1.391 1_655 S
C760 C762 1.394 . S
C760 H776 0.931 . S
C761 C760 1.391 1_455 S
C761 C765 1.376 . S
C762 C760 1.394 . S
C762 C763 1.369 1_655 S
C762 C766 1.531 . S
C763 C762 1.369 1_455 S
C763 C764 1.410 . S
C763 C771 1.503 . S
C764 C763 1.410 . S
C764 C765 1.392 . S
C764 C767 1.511 . S
C765 C761 1.376 . S
C765 C764 1.392 . S
C765 H777 0.929 . S
C766 C762 1.531 . S
C766 H778 0.960 . S
C766 H779 0.962 . S
C766 H780 0.960 . S
C767 C764 1.511 . S
C767 H781 0.961 . S
C767 H782 0.961 . S
C767 H783 0.961 . S
C768 C769 1.371 . S
C768 C770 1.363 1_455 S
C768 H784 0.930 1_455 S
C769 C768 1.371 . S
C769 C773 1.408 . S
C770 C768 1.363 1_655 S
C770 C771 1.365 1_655 S
C770 C774 1.530 . S
C771 C763 1.503 . S
C771 C770 1.365 1_455 S
C771 C772 1.403 . S
C772 C771 1.403 . S
C772 C773 1.404 . S
C772 C775 1.539 . S
C773 C769 1.408 . S
C773 C772 1.404 . S
C773 H785 0.930 . S
C774 C770 1.530 . S
C774 H786 0.956 . S
C774 H787 0.961 1_655 S
C774 H788 0.961 . S
C775 C772 1.539 . S
C775 H789 0.958 . S
C775 H790 0.961 . S
C775 H791 0.960 . S
H776 C760 0.931 . S
H777 C765 0.929 . S
H778 C766 0.960 . S
H779 C766 0.962 . S
H780 C766 0.960 . S
H781 C767 0.961 . S
H782 C767 0.961 . S
H783 C767 0.961 . S
H784 C768 0.930 1_655 S
H785 C773 0.930 . S
H786 C774 0.956 . S
H787 C774 0.961 1_455 S
H788 C774 0.961 . S
H789 C775 0.958 . S
H790 C775 0.961 . S
H791 C775 0.960 . S
C792 C793 1.365 1_565 S
C792 C794 1.394 . S
C792 H808 0.931 . S
C793 C792 1.365 1_545 S
C793 C797 1.402 . S
C794 C792 1.394 . S
C794 C795 1.369 1_565 S
C794 C798 1.531 . S
C795 C794 1.369 1_545 S
C795 C796 1.410 . S
C795 C803 1.503 . S
C796 C795 1.410 . S
C796 C797 1.392 . S
C796 C799 1.511 . S
C797 C793 1.402 . S
C797 C796 1.392 . S
C797 H809 0.929 . S
C798 C794 1.531 . S
C798 H810 0.960 . S
C798 H811 0.962 . S
C798 H812 0.960 . S
C799 C796 1.511 . S
C799 H813 0.961 . S
C799 H814 0.961 . S
C799 H815 0.961 . S
C800 C801 1.370 . S
C800 C802 1.363 . S
C800 H816 0.931 . S
C801 C800 1.370 . S
C801 C805 1.408 1_545 S
C802 C800 1.363 . S
C802 C803 1.370 . S
C802 C806 1.524 . S
C803 C795 1.503 . S
C803 C802 1.370 . S
C803 C804 1.403 1_545 S
C804 C803 1.403 1_565 S
C804 C805 1.404 . S
C804 C807 1.539 . S
C805 C801 1.408 1_565 S
C805 C804 1.404 . S
C805 H817 0.930 . S
C806 C802 1.524 . S
C806 H818 0.956 . S
C806 H819 0.961 . S
C806 H820 0.961 . S
C807 C804 1.539 . S
C807 H821 0.958 . S
C807 H822 0.961 . S
C807 H823 0.960 . S
H808 C792 0.931 . S
H809 C797 0.929 . S
H810 C798 0.960 . S
H811 C798 0.962 . S
H812 C798 0.960 . S
H813 C799 0.961 . S
H814 C799 0.961 . S
H815 C799 0.961 . S
H816 C800 0.931 . S
H817 C805 0.930 . S
H818 C806 0.956 . S
H819 C806 0.961 . S
H820 C806 0.961 . S
H821 C807 0.958 . S
H822 C807 0.961 . S
H823 C807 0.960 . S
C824 C825 1.391 . S
C824 C826 1.394 . S
C824 H840 0.931 . S
C825 C824 1.391 . S
C825 C829 1.376 . S
C826 C824 1.394 . S
C826 C827 1.369 . S
C826 C830 1.531 . S
C827 C826 1.369 . S
C827 C828 1.410 . S
C827 C835 1.503 . S
C828 C827 1.410 . S
C828 C829 1.392 . S
C828 C831 1.511 . S
C829 C825 1.376 . S
C829 C828 1.392 . S
C829 H841 0.929 . S
C830 C826 1.531 . S
C830 H842 0.960 . S
C830 H843 0.962 . S
C830 H844 0.960 1_556 S
C831 C828 1.511 . S
C831 H845 0.961 . S
C831 H846 0.961 . S
C831 H847 0.961 . S
C832 C833 1.370 . S
C832 C834 1.363 . S
C832 H848 0.931 . S
C833 C832 1.370 . S
C833 C837 1.408 . S
C834 C832 1.363 . S
C834 C835 1.370 . S
C834 C838 1.524 . S
C835 C827 1.503 . S
C835 C834 1.370 . S
C835 C836 1.403 . S
C836 C835 1.403 . S
C836 C837 1.404 . S
C836 C839 1.539 . S
C837 C833 1.408 . S
C837 C836 1.404 . S
C837 H849 0.930 . S
C838 C834 1.524 . S
C838 H850 0.956 . S
C838 H851 0.961 . S
C838 H852 0.961 . S
C839 C836 1.539 . S
C839 H853 0.958 . S
C839 H854 0.961 . S
C839 H855 0.960 . S
H840 C824 0.931 . S
H841 C829 0.929 . S
H842 C830 0.960 . S
H843 C830 0.962 . S
H844 C830 0.960 1_554 S
H845 C831 0.961 . S
H846 C831 0.961 . S
H847 C831 0.961 . S
H848 C832 0.931 . S
H849 C837 0.930 . S
H850 C838 0.956 . S
H851 C838 0.961 . S
H852 C838 0.961 . S
H853 C839 0.958 . S
H854 C839 0.961 . S
H855 C839 0.960 . S
C856 C857 1.391 . S
C856 C858 1.394 . S
C856 H872 0.931 . S
C857 C856 1.391 . S
C857 C861 1.376 . S
C858 C856 1.394 . S
C858 C859 1.369 . S
C858 C862 1.531 . S
C859 C858 1.369 . S
C859 C860 1.410 . S
C859 C867 1.503 . S
C860 C859 1.410 . S
C860 C861 1.392 . S
C860 C863 1.511 . S
C861 C857 1.376 . S
C861 C860 1.392 . S
C861 H873 0.929 . S
C862 C858 1.531 . S
C862 H874 0.960 . S
C862 H875 0.962 . S
C862 H876 0.960 1_556 S
C863 C860 1.511 . S
C863 H877 0.961 . S
C863 H878 0.961 . S
C863 H879 0.961 . S
C864 C865 1.370 . S
C864 C866 1.363 . S
C864 H880 0.931 . S
C865 C864 1.370 . S
C865 C869 1.408 . S
C866 C864 1.363 . S
C866 C867 1.370 . S
C866 C870 1.524 . S
C867 C859 1.503 . S
C867 C866 1.370 . S
C867 C868 1.403 . S
C868 C867 1.403 . S
C868 C869 1.404 . S
C868 C871 1.539 . S
C869 C865 1.408 . S
C869 C868 1.404 . S
C869 H881 0.930 . S
C870 C866 1.524 . S
C870 H882 0.956 . S
C870 H883 0.961 . S
C870 H884 0.961 . S
C871 C868 1.539 . S
C871 H885 0.958 . S
C871 H886 0.961 . S
C871 H887 0.960 . S
H872 C856 0.931 . S
H873 C861 0.929 . S
H874 C862 0.960 . S
H875 C862 0.962 . S
H876 C862 0.960 1_554 S
H877 C863 0.961 . S
H878 C863 0.961 . S
H879 C863 0.961 . S
H880 C864 0.931 . S
H881 C869 0.930 . S
H882 C870 0.956 . S
H883 C870 0.961 . S
H884 C870 0.961 . S
H885 C871 0.958 . S
H886 C871 0.961 . S
H887 C871 0.960 . S
C888 C889 1.392 . S
C888 C890 1.394 . S
C888 H904 0.931 . S
C889 C888 1.392 . S
C889 C893 1.375 1_655 S
C890 C888 1.394 . S
C890 C891 1.391 . S
C890 C894 1.531 . S
C891 C890 1.391 . S
C891 C892 1.387 1_655 S
C891 C899 1.507 . S
C892 C891 1.387 1_455 S
C892 C893 1.392 . S
C892 C895 1.511 . S
C893 C889 1.375 1_455 S
C893 C892 1.392 . S
C893 H905 0.929 . S
C894 C890 1.531 . S
C894 H906 0.960 . S
C894 H907 0.962 . S
C894 H908 0.960 . S
C895 C892 1.511 . S
C895 H909 0.961 . S
C895 H910 0.961 . S
C895 H911 0.961 . S
C896 C897 1.370 . S
C896 C898 1.363 . S
C896 H912 0.931 . S
C897 C896 1.370 . S
C897 C901 1.408 1_655 S
C898 C896 1.363 . S
C898 C899 1.370 . S
C898 C902 1.524 . S
C899 C891 1.507 . S
C899 C898 1.370 . S
C899 C900 1.403 1_655 S
C900 C899 1.403 1_455 S
C900 C901 1.404 . S
C900 C903 1.539 . S
C901 C897 1.408 1_455 S
C901 C900 1.404 . S
C901 H913 0.930 . S
C902 C898 1.524 . S
C902 H914 0.956 . S
C902 H915 0.961 . S
C902 H916 0.961 . S
C903 C900 1.539 . S
C903 H917 0.958 . S
C903 H918 0.961 . S
C903 H919 0.960 . S
H904 C888 0.931 . S
H905 C893 0.929 . S
H906 C894 0.960 . S
H907 C894 0.962 . S
H908 C894 0.960 . S
H909 C895 0.961 . S
H910 C895 0.961 . S
H911 C895 0.961 . S
H912 C896 0.931 . S
H913 C901 0.930 . S
H914 C902 0.956 . S
H915 C902 0.961 . S
H916 C902 0.961 . S
H917 C903 0.958 . S
H918 C903 0.961 . S
H919 C903 0.960 . S
C920 C921 1.391 1_545 S
C920 C922 1.394 . S
C920 H936 0.931 . S
C921 C920 1.391 1_565 S
C921 C925 1.376 . S
C922 C920 1.394 . S
C922 C923 1.369 1_545 S
C922 C926 1.531 . S
C923 C922 1.369 1_565 S
C923 C924 1.410 . S
C923 C931 1.503 . S
C924 C923 1.410 . S
C924 C925 1.392 . S
C924 C927 1.511 . S
C925 C921 1.376 . S
C925 C924 1.392 . S
C925 H937 0.929 . S
C926 C922 1.531 . S
C926 H938 0.960 . S
C926 H939 0.962 . S
C926 H940 0.960 . S
C927 C924 1.511 . S
C927 H941 0.961 . S
C927 H942 0.961 . S
C927 H943 0.961 . S
C928 C929 1.370 1_545 S
C928 C930 1.363 . S
C928 H944 0.931 . S
C929 C928 1.370 1_565 S
C929 C933 1.408 . S
C930 C928 1.363 . S
C930 C931 1.370 1_545 S
C930 C934 1.524 . S
C931 C923 1.503 . S
C931 C930 1.370 1_565 S
C931 C932 1.403 . S
C932 C931 1.403 . S
C932 C933 1.404 . S
C932 C935 1.539 . S
C933 C929 1.408 . S
C933 C932 1.404 . S
C933 H945 0.930 . S
C934 C930 1.524 . S
C934 H946 0.956 . S
C934 H947 0.961 . S
C934 H948 0.961 . S
C935 C932 1.539 . S
C935 H949 0.958 . S
C935 H950 0.961 . S
C935 H951 0.960 . S
H936 C920 0.931 . S
H937 C925 0.929 . S
H938 C926 0.960 . S
H939 C926 0.962 . S
H940 C926 0.960 . S
H941 C927 0.961 . S
H942 C927 0.961 . S
H943 C927 0.961 . S
H944 C928 0.931 . S
H945 C933 0.930 . S
H946 C934 0.956 . S
H947 C934 0.961 . S
H948 C934 0.961 . S
H949 C935 0.958 . S
H950 C935 0.961 . S
H951 C935 0.960 . S
C952 C953 1.391 . S
C952 C954 1.394 . S
C952 H968 0.931 . S
C953 C952 1.391 . S
C953 C957 1.376 . S
C954 C952 1.394 . S
C954 C955 1.369 . S
C954 C958 1.531 . S
C955 C954 1.369 . S
C955 C956 1.410 . S
C955 C963 1.503 . S
C956 C955 1.410 . S
C956 C957 1.392 . S
C956 C959 1.511 . S
C957 C953 1.376 . S
C957 C956 1.392 . S
C957 H969 0.929 . S
C958 C954 1.531 . S
C958 H970 0.960 . S
C958 H971 0.962 . S
C958 H972 0.960 . S
C959 C956 1.511 . S
C959 H973 0.961 . S
C959 H974 0.961 . S
C959 H975 0.961 . S
C960 C961 1.370 . S
C960 C962 1.363 . S
C960 H976 0.931 . S
C961 C960 1.370 . S
C961 C965 1.408 . S
C962 C960 1.363 . S
C962 C963 1.370 . S
C962 C966 1.524 . S
C963 C955 1.503 . S
C963 C962 1.370 . S
C963 C964 1.403 . S
C964 C963 1.403 . S
C964 C965 1.404 . S
C964 C967 1.539 . S
C965 C961 1.408 . S
C965 C964 1.404 . S
C965 H977 0.930 . S
C966 C962 1.524 . S
C966 H978 0.956 . S
C966 H979 0.961 . S
C966 H980 0.961 . S
C967 C964 1.539 . S
C967 H981 0.958 . S
C967 H982 0.961 . S
C967 H983 0.960 . S
H968 C952 0.931 . S
H969 C957 0.929 . S
H970 C958 0.960 . S
H971 C958 0.962 . S
H972 C958 0.960 . S
H973 C959 0.961 . S
H974 C959 0.961 . S
H975 C959 0.961 . S
H976 C960 0.931 . S
H977 C965 0.930 . S
H978 C966 0.956 . S
H979 C966 0.961 . S
H980 C966 0.961 . S
H981 C967 0.958 . S
H982 C967 0.961 . S
H983 C967 0.960 . S
C984 C985 1.391 . S
C984 C986 1.394 . S
C984 H1000 0.931 . S
C985 C984 1.391 . S
C985 C989 1.376 . S
C986 C984 1.394 . S
C986 C987 1.369 . S
C986 C990 1.531 . S
C987 C986 1.369 . S
C987 C988 1.410 . S
C987 C995 1.503 . S
C988 C987 1.410 . S
C988 C989 1.392 . S
C988 C991 1.511 . S
C989 C985 1.376 . S
C989 C988 1.392 . S
C989 H1001 0.929 . S
C990 C986 1.531 . S
C990 H1002 0.960 . S
C990 H1003 0.962 . S
C990 H1004 0.960 . S
C991 C988 1.511 . S
C991 H1005 0.961 . S
C991 H1006 0.961 . S
C991 H1007 0.961 . S
C992 C993 1.370 . S
C992 C994 1.363 . S
C992 H1008 0.931 . S
C993 C992 1.370 . S
C993 C997 1.408 . S
C994 C992 1.363 . S
C994 C995 1.370 . S
C994 C998 1.524 . S
C995 C987 1.503 . S
C995 C994 1.370 . S
C995 C996 1.403 . S
C996 C995 1.403 . S
C996 C997 1.404 . S
C996 C999 1.539 . S
C997 C993 1.408 . S
C997 C996 1.404 . S
C997 H1009 0.930 . S
C998 C994 1.524 . S
C998 H1010 0.956 . S
C998 H1011 0.961 . S
C998 H1012 0.961 . S
C999 C996 1.539 . S
C999 H1013 0.958 . S
C999 H1014 0.961 . S
C999 H1015 0.960 . S
H1000 C984 0.931 . S
H1001 C989 0.929 . S
H1002 C990 0.960 . S
H1003 C990 0.962 . S
H1004 C990 0.960 . S
H1005 C991 0.961 . S
H1006 C991 0.961 . S
H1007 C991 0.961 . S
H1008 C992 0.931 . S
H1009 C997 0.930 . S
H1010 C998 0.956 . S
H1011 C998 0.961 . S
H1012 C998 0.961 . S
H1013 C999 0.958 . S
H1014 C999 0.961 . S
H1015 C999 0.960 . S
C249 C74 1.778 1_565 S
C257 C106 1.900 1_545 S
C289 C146 1.914 . S
C281 C85 1.828 . S
C321 C186 1.920 . S
C313 C52 1.821 . S
C353 C226 1.910 1_455 S
C345 C63 1.829 1_655 S
C385 C96 1.907 . S
C377 C30 1.807 . S
C409 C41 1.774 . S
C417 C136 1.913 . S
C441 C8 1.796 . S
C449 C176 1.916 . S
C473 C19 1.779 . S
C481 C216 1.908 1_655 S
C513 C93 0.559 . S
C505 C62 0.575 . S
C545 C133 0.590 . S
C537 C73 0.572 1_565 S
C577 C173 0.561 . S
C569 C84 0.580 . S
C601 C51 0.542 . S
C609 C213 0.541 . S
C633 C18 0.569 . S
C641 C103 0.585 . S
C673 C143 0.594 . S
C665 C29 0.529 . S
C705 C183 0.597 . S
C697 C40 0.552 . S
C729 C7 0.515 . S
C737 C223 0.594 . S
C761 C60 1.736 . S
C769 C97 2.238 . S
C793 C71 1.764 . S
C801 C137 2.220 . S
C833 C177 2.207 . S
C825 C82 1.720 . S
C865 C217 2.225 . S
C857 C49 1.738 . S
C889 C16 1.775 1_655 S
C897 C107 2.242 . S
C929 C147 2.227 . S
C921 C27 1.760 1_565 S
C961 C187 2.209 . S
C953 C38 1.779 . S
C985 C5 1.755 . S
C993 C227 2.237 . S
