# Generated by pormake.
# Topology gar, (4,6)-cn, num edge types: 1
# Building blocks:
#     Node 0, Type 0, BuildingBlock: TATPOV_clean_sbu_0, # of connection points: 4
#     Node 1, Type 0, BuildingBlock: TATPOV_clean_sbu_0, # of connection points: 4
#     Node 2, Type 0, BuildingBlock: TATPOV_clean_sbu_0, # of connection points: 4
#     Node 3, Type 0, BuildingBlock: TATPOV_clean_sbu_0, # of connection points: 4
#     Node 4, Type 0, BuildingBlock: TATPOV_clean_sbu_0, # of connection points: 4
#     Node 5, Type 0, BuildingBlock: TATPOV_clean_sbu_0, # of connection points: 4
#     Node 6, Type 0, BuildingBlock: TATPOV_clean_sbu_0, # of connection points: 4
#     Node 7, Type 0, BuildingBlock: TATPOV_clean_sbu_0, # of connection points: 4
#     Node 8, Type 0, BuildingBlock: TATPOV_clean_sbu_0, # of connection points: 4
#     Node 9, Type 0, BuildingBlock: TATPOV_clean_sbu_0, # of connection points: 4
#     Node 10, Type 0, BuildingBlock: TATPOV_clean_sbu_0, # of connection points: 4
#     Node 11, Type 0, BuildingBlock: TATPOV_clean_sbu_0, # of connection points: 4
#     Node 12, Type 0, BuildingBlock: TATPOV_clean_sbu_0, # of connection points: 4
#     Node 13, Type 0, BuildingBlock: TATPOV_clean_sbu_0, # of connection points: 4
#     Node 14, Type 0, BuildingBlock: TATPOV_clean_sbu_0, # of connection points: 4
#     Node 15, Type 0, BuildingBlock: TATPOV_clean_sbu_0, # of connection points: 4
#     Node 16, Type 0, BuildingBlock: TATPOV_clean_sbu_0, # of connection points: 4
#     Node 17, Type 0, BuildingBlock: TATPOV_clean_sbu_0, # of connection points: 4
#     Node 18, Type 0, BuildingBlock: TATPOV_clean_sbu_0, # of connection points: 4
#     Node 19, Type 0, BuildingBlock: TATPOV_clean_sbu_0, # of connection points: 4
#     Node 20, Type 0, BuildingBlock: TATPOV_clean_sbu_0, # of connection points: 4
#     Node 21, Type 0, BuildingBlock: TATPOV_clean_sbu_0, # of connection points: 4
#     Node 22, Type 0, BuildingBlock: TATPOV_clean_sbu_0, # of connection points: 4
#     Node 23, Type 0, BuildingBlock: TATPOV_clean_sbu_0, # of connection points: 4
#     Node 24, Type 1, BuildingBlock: MIFKUJ_clean_sbu_0, # of connection points: 6
#     Node 25, Type 1, BuildingBlock: MIFKUJ_clean_sbu_0, # of connection points: 6
#     Node 26, Type 1, BuildingBlock: MIFKUJ_clean_sbu_0, # of connection points: 6
#     Node 27, Type 1, BuildingBlock: MIFKUJ_clean_sbu_0, # of connection points: 6
#     Node 28, Type 1, BuildingBlock: MIFKUJ_clean_sbu_0, # of connection points: 6
#     Node 29, Type 1, BuildingBlock: MIFKUJ_clean_sbu_0, # of connection points: 6
#     Node 30, Type 1, BuildingBlock: MIFKUJ_clean_sbu_0, # of connection points: 6
#     Node 31, Type 1, BuildingBlock: MIFKUJ_clean_sbu_0, # of connection points: 6
#     Node 32, Type 1, BuildingBlock: MIFKUJ_clean_sbu_0, # of connection points: 6
#     Node 33, Type 1, BuildingBlock: MIFKUJ_clean_sbu_0, # of connection points: 6
#     Node 34, Type 1, BuildingBlock: MIFKUJ_clean_sbu_0, # of connection points: 6
#     Node 35, Type 1, BuildingBlock: MIFKUJ_clean_sbu_0, # of connection points: 6
#     Node 36, Type 1, BuildingBlock: MIFKUJ_clean_sbu_0, # of connection points: 6
#     Node 37, Type 1, BuildingBlock: MIFKUJ_clean_sbu_0, # of connection points: 6
#     Node 38, Type 1, BuildingBlock: MIFKUJ_clean_sbu_0, # of connection points: 6
#     Node 39, Type 1, BuildingBlock: MIFKUJ_clean_sbu_0, # of connection points: 6
#     Edge 40, Type (0, 1), BuildingBlock: CIFDUS_clean_linker_0, # of connection points: 2
#     Edge 41, Type (0, 1), BuildingBlock: CIFDUS_clean_linker_0, # of connection points: 2
#     Edge 42, Type (0, 1), BuildingBlock: CIFDUS_clean_linker_0, # of connection points: 2
#     Edge 43, Type (0, 1), BuildingBlock: CIFDUS_clean_linker_0, # of connection points: 2
#     Edge 44, Type (0, 1), BuildingBlock: CIFDUS_clean_linker_0, # of connection points: 2
#     Edge 45, Type (0, 1), BuildingBlock: CIFDUS_clean_linker_0, # of connection points: 2
#     Edge 46, Type (0, 1), BuildingBlock: CIFDUS_clean_linker_0, # of connection points: 2
#     Edge 47, Type (0, 1), BuildingBlock: CIFDUS_clean_linker_0, # of connection points: 2
#     Edge 48, Type (0, 1), BuildingBlock: CIFDUS_clean_linker_0, # of connection points: 2
#     Edge 49, Type (0, 1), BuildingBlock: CIFDUS_clean_linker_0, # of connection points: 2
#     Edge 50, Type (0, 1), BuildingBlock: CIFDUS_clean_linker_0, # of connection points: 2
#     Edge 51, Type (0, 1), BuildingBlock: CIFDUS_clean_linker_0, # of connection points: 2
#     Edge 52, Type (0, 1), BuildingBlock: CIFDUS_clean_linker_0, # of connection points: 2
#     Edge 53, Type (0, 1), BuildingBlock: CIFDUS_clean_linker_0, # of connection points: 2
#     Edge 54, Type (0, 1), BuildingBlock: CIFDUS_clean_linker_0, # of connection points: 2
#     Edge 55, Type (0, 1), BuildingBlock: CIFDUS_clean_linker_0, # of connection points: 2
#     Edge 56, Type (0, 1), BuildingBlock: CIFDUS_clean_linker_0, # of connection points: 2
#     Edge 57, Type (0, 1), BuildingBlock: CIFDUS_clean_linker_0, # of connection points: 2
#     Edge 58, Type (0, 1), BuildingBlock: CIFDUS_clean_linker_0, # of connection points: 2
#     Edge 59, Type (0, 1), BuildingBlock: CIFDUS_clean_linker_0, # of connection points: 2
#     Edge 60, Type (0, 1), BuildingBlock: CIFDUS_clean_linker_0, # of connection points: 2
#     Edge 61, Type (0, 1), BuildingBlock: CIFDUS_clean_linker_0, # of connection points: 2
#     Edge 62, Type (0, 1), BuildingBlock: CIFDUS_clean_linker_0, # of connection points: 2
#     Edge 63, Type (0, 1), BuildingBlock: CIFDUS_clean_linker_0, # of connection points: 2
#     Edge 64, Type (0, 1), BuildingBlock: CIFDUS_clean_linker_0, # of connection points: 2
#     Edge 65, Type (0, 1), BuildingBlock: CIFDUS_clean_linker_0, # of connection points: 2
#     Edge 66, Type (0, 1), BuildingBlock: CIFDUS_clean_linker_0, # of connection points: 2
#     Edge 67, Type (0, 1), BuildingBlock: CIFDUS_clean_linker_0, # of connection points: 2
#     Edge 68, Type (0, 1), BuildingBlock: CIFDUS_clean_linker_0, # of connection points: 2
#     Edge 69, Type (0, 1), BuildingBlock: CIFDUS_clean_linker_0, # of connection points: 2
#     Edge 70, Type (0, 1), BuildingBlock: CIFDUS_clean_linker_0, # of connection points: 2
#     Edge 71, Type (0, 1), BuildingBlock: CIFDUS_clean_linker_0, # of connection points: 2
#     Edge 72, Type (0, 1), BuildingBlock: CIFDUS_clean_linker_0, # of connection points: 2
#     Edge 73, Type (0, 1), BuildingBlock: CIFDUS_clean_linker_0, # of connection points: 2
#     Edge 74, Type (0, 1), BuildingBlock: CIFDUS_clean_linker_0, # of connection points: 2
#     Edge 75, Type (0, 1), BuildingBlock: CIFDUS_clean_linker_0, # of connection points: 2
#     Edge 76, Type (0, 1), BuildingBlock: CIFDUS_clean_linker_0, # of connection points: 2
#     Edge 77, Type (0, 1), BuildingBlock: CIFDUS_clean_linker_0, # of connection points: 2
#     Edge 78, Type (0, 1), BuildingBlock: CIFDUS_clean_linker_0, # of connection points: 2
#     Edge 79, Type (0, 1), BuildingBlock: CIFDUS_clean_linker_0, # of connection points: 2
#     Edge 80, Type (0, 1), BuildingBlock: CIFDUS_clean_linker_0, # of connection points: 2
#     Edge 81, Type (0, 1), BuildingBlock: CIFDUS_clean_linker_0, # of connection points: 2
#     Edge 82, Type (0, 1), BuildingBlock: CIFDUS_clean_linker_0, # of connection points: 2
#     Edge 83, Type (0, 1), BuildingBlock: CIFDUS_clean_linker_0, # of connection points: 2
#     Edge 84, Type (0, 1), BuildingBlock: CIFDUS_clean_linker_0, # of connection points: 2
#     Edge 85, Type (0, 1), BuildingBlock: CIFDUS_clean_linker_0, # of connection points: 2
#     Edge 86, Type (0, 1), BuildingBlock: CIFDUS_clean_linker_0, # of connection points: 2
#     Edge 87, Type (0, 1), BuildingBlock: CIFDUS_clean_linker_0, # of connection points: 2
#     Edge 88, Type (0, 1), BuildingBlock: CIFDUS_clean_linker_0, # of connection points: 2
#     Edge 89, Type (0, 1), BuildingBlock: CIFDUS_clean_linker_0, # of connection points: 2
#     Edge 90, Type (0, 1), BuildingBlock: CIFDUS_clean_linker_0, # of connection points: 2
#     Edge 91, Type (0, 1), BuildingBlock: CIFDUS_clean_linker_0, # of connection points: 2
#     Edge 92, Type (0, 1), BuildingBlock: CIFDUS_clean_linker_0, # of connection points: 2
#     Edge 93, Type (0, 1), BuildingBlock: CIFDUS_clean_linker_0, # of connection points: 2
#     Edge 94, Type (0, 1), BuildingBlock: CIFDUS_clean_linker_0, # of connection points: 2
#     Edge 95, Type (0, 1), BuildingBlock: CIFDUS_clean_linker_0, # of connection points: 2
#     Edge 96, Type (0, 1), BuildingBlock: CIFDUS_clean_linker_0, # of connection points: 2
#     Edge 97, Type (0, 1), BuildingBlock: CIFDUS_clean_linker_0, # of connection points: 2
#     Edge 98, Type (0, 1), BuildingBlock: CIFDUS_clean_linker_0, # of connection points: 2
#     Edge 99, Type (0, 1), BuildingBlock: CIFDUS_clean_linker_0, # of connection points: 2
#     Edge 100, Type (0, 1), BuildingBlock: CIFDUS_clean_linker_0, # of connection points: 2
#     Edge 101, Type (0, 1), BuildingBlock: CIFDUS_clean_linker_0, # of connection points: 2
#     Edge 102, Type (0, 1), BuildingBlock: CIFDUS_clean_linker_0, # of connection points: 2
#     Edge 103, Type (0, 1), BuildingBlock: CIFDUS_clean_linker_0, # of connection points: 2
#     Edge 104, Type (0, 1), BuildingBlock: CIFDUS_clean_linker_0, # of connection points: 2
#     Edge 105, Type (0, 1), BuildingBlock: CIFDUS_clean_linker_0, # of connection points: 2
#     Edge 106, Type (0, 1), BuildingBlock: CIFDUS_clean_linker_0, # of connection points: 2
#     Edge 107, Type (0, 1), BuildingBlock: CIFDUS_clean_linker_0, # of connection points: 2
#     Edge 108, Type (0, 1), BuildingBlock: CIFDUS_clean_linker_0, # of connection points: 2
#     Edge 109, Type (0, 1), BuildingBlock: CIFDUS_clean_linker_0, # of connection points: 2
#     Edge 110, Type (0, 1), BuildingBlock: CIFDUS_clean_linker_0, # of connection points: 2
#     Edge 111, Type (0, 1), BuildingBlock: CIFDUS_clean_linker_0, # of connection points: 2
#     Edge 112, Type (0, 1), BuildingBlock: CIFDUS_clean_linker_0, # of connection points: 2
#     Edge 113, Type (0, 1), BuildingBlock: CIFDUS_clean_linker_0, # of connection points: 2
#     Edge 114, Type (0, 1), BuildingBlock: CIFDUS_clean_linker_0, # of connection points: 2
#     Edge 115, Type (0, 1), BuildingBlock: CIFDUS_clean_linker_0, # of connection points: 2
#     Edge 116, Type (0, 1), BuildingBlock: CIFDUS_clean_linker_0, # of connection points: 2
#     Edge 117, Type (0, 1), BuildingBlock: CIFDUS_clean_linker_0, # of connection points: 2
#     Edge 118, Type (0, 1), BuildingBlock: CIFDUS_clean_linker_0, # of connection points: 2
#     Edge 119, Type (0, 1), BuildingBlock: CIFDUS_clean_linker_0, # of connection points: 2
#     Edge 120, Type (0, 1), BuildingBlock: CIFDUS_clean_linker_0, # of connection points: 2
#     Edge 121, Type (0, 1), BuildingBlock: CIFDUS_clean_linker_0, # of connection points: 2
#     Edge 122, Type (0, 1), BuildingBlock: CIFDUS_clean_linker_0, # of connection points: 2
#     Edge 123, Type (0, 1), BuildingBlock: CIFDUS_clean_linker_0, # of connection points: 2
#     Edge 124, Type (0, 1), BuildingBlock: CIFDUS_clean_linker_0, # of connection points: 2
#     Edge 125, Type (0, 1), BuildingBlock: CIFDUS_clean_linker_0, # of connection points: 2
#     Edge 126, Type (0, 1), BuildingBlock: CIFDUS_clean_linker_0, # of connection points: 2
#     Edge 127, Type (0, 1), BuildingBlock: CIFDUS_clean_linker_0, # of connection points: 2
#     Edge 128, Type (0, 1), BuildingBlock: CIFDUS_clean_linker_0, # of connection points: 2
#     Edge 129, Type (0, 1), BuildingBlock: CIFDUS_clean_linker_0, # of connection points: 2
#     Edge 130, Type (0, 1), BuildingBlock: CIFDUS_clean_linker_0, # of connection points: 2
#     Edge 131, Type (0, 1), BuildingBlock: CIFDUS_clean_linker_0, # of connection points: 2
#     Edge 132, Type (0, 1), BuildingBlock: CIFDUS_clean_linker_0, # of connection points: 2
#     Edge 133, Type (0, 1), BuildingBlock: CIFDUS_clean_linker_0, # of connection points: 2
#     Edge 134, Type (0, 1), BuildingBlock: CIFDUS_clean_linker_0, # of connection points: 2
#     Edge 135, Type (0, 1), BuildingBlock: CIFDUS_clean_linker_0, # of connection points: 2
# Relax obj value: 0.114
# Max RMSD: 0.302
# Mean RMSD: 0.156
data_MOF--net-gar--node1-TATPOV_clean_sbu_0--node2-MIFKUJ_clean_sbu_0--edge1-CIFDUS_clean_linker_0
_symmetry_space_group_name_H-M    P1
_symmetry_Int_Tables_number       1
_symmetry_cell_setting            triclinic
loop_
_symmetry_equiv_pos_as_xyz
'x, y, z'
_cell_length_a     49.339091
_cell_length_b     49.65602
_cell_length_c     48.139333
_cell_angle_alpha  95.084516
_cell_angle_beta   95.446142
_cell_angle_gamma 101.46545
loop_
_atom_site_label
_atom_site_type_symbol
_atom_site_fract_x
_atom_site_fract_y
_atom_site_fract_z
_atom_type_partial_charge
Zn0 Zn 0.00215 0.26786 0.47609 0.0
Zn1 Zn 0.0268 0.26665 0.42807 0.0
O2 O 0.03992 0.30653 0.44664 0.0
O3 O 0.02308 0.30713 0.48742 0.0
O4 O 0.05079 0.26342 0.39631 0.0
O5 O 0.01667 0.23575 0.48946 0.0
O6 O 0.03589 0.23521 0.45009 0.0
C7 C 0.03713 0.31951 0.4699 0.0
C8 C 0.9641 0.25895 0.42352 0.0
O9 O 0.98592 0.26057 0.41095 0.0
O10 O 0.96595 0.26091 0.45013 0.0
C11 C 0.06269 0.28344 0.38406 0.0
O12 O 0.05768 0.30816 0.39024 0.0
C13 C 0.03115 0.22512 0.47302 0.0
Zn14 Zn 0.9925 0.70374 0.6722 0.0
Zn15 Zn 0.9934 0.74026 0.63288 0.0
O16 O 0.96233 0.74801 0.65583 0.0
O17 O 0.96307 0.72107 0.68974 0.0
O18 O 0.99546 0.76752 0.60447 0.0
O19 O 0.03402 0.71994 0.68419 0.0
O20 O 0.03237 0.75012 0.65361 0.0
C21 C 0.95311 0.73943 0.67802 0.0
C22 C 0.98009 0.67847 0.61414 0.0
O23 O 0.98533 0.70342 0.60866 0.0
O24 O 0.98061 0.67294 0.6394 0.0
C25 C 0.01555 0.77077 0.58951 0.0
O26 O 0.03455 0.75578 0.59265 0.0
C27 C 0.04595 0.7404 0.6727 0.0
Zn28 Zn 0.5122 0.76886 0.98553 0.0
Zn29 Zn 0.53838 0.76789 0.93853 0.0
O30 O 0.55004 0.80835 0.95572 0.0
O31 O 0.53039 0.80897 -0.00504 0.0
O32 O 0.55991 0.76594 0.90492 0.0
O33 O 0.5304 0.73972 0.00017 0.0
O34 O 0.55058 0.73829 0.96138 0.0
C35 C 0.54532 0.82143 0.97814 0.0
C36 C 0.47493 0.75524 0.93364 0.0
O37 O 0.49739 0.75866 0.92211 0.0
O38 O 0.4757 0.75782 0.96015 0.0
C39 C 0.55758 0.78071 0.88491 0.0
O40 O 0.54039 0.79779 0.88587 0.0
C41 C 0.54613 0.72944 0.98495 0.0
Zn42 Zn 0.5022 0.2073 0.16853 0.0
Zn43 Zn 0.51083 0.25074 0.13792 0.0
O44 O 0.47727 0.25585 0.15879 0.0
O45 O 0.47208 0.22264 0.18646 0.0
O46 O 0.51607 0.28243 0.11456 0.0
O47 O 0.54283 0.21933 0.18566 0.0
O48 O 0.54854 0.25521 0.16136 0.0
C49 C 0.46474 0.2437 0.17764 0.0
C50 C 0.49655 0.19193 0.10848 0.0
O51 O 0.50428 0.21786 0.10815 0.0
O52 O 0.49263 0.18189 0.13145 0.0
C53 C 0.49701 0.28359 0.09527 0.0
O54 O 0.47403 0.2644 0.09169 0.0
C55 C 0.5583 0.24076 0.17886 0.0
Zn56 Zn 0.07109 0.78271 0.12998 0.0
Zn57 Zn 0.03088 0.78468 0.16163 0.0
O58 O 0.03063 0.81484 0.13479 0.0
O59 O 0.05944 0.80825 0.10388 0.0
O60 O 0.99981 0.79044 0.18416 0.0
O61 O 0.05629 0.74196 0.1211 0.0
O62 O 0.01981 0.74442 0.14351 0.0
C63 C 0.04157 0.82092 0.1126 0.0
C64 C 0.09084 0.79639 0.18811 0.0
O65 O 0.06502 0.79002 0.19073 0.0
O66 O 0.09901 0.79712 0.164 0.0
C67 C 0.99095 0.77666 0.20368 0.0
O68 O 0.00233 0.75605 0.21057 0.0
C69 C 0.0333 0.73042 0.12862 0.0
Zn70 Zn 0.4867 0.75508 0.42303 0.0
Zn71 Zn 0.51162 0.75434 0.37658 0.0
O72 O 0.52406 0.79469 0.39481 0.0
O73 O 0.50223 0.79548 0.43258 0.0
O74 O 0.53423 0.75286 0.34413 0.0
O75 O 0.50666 0.72766 0.4391 0.0
O76 O 0.52411 0.72446 0.39886 0.0
C77 C 0.51817 0.80792 0.41658 0.0
C78 C 0.44876 0.74144 0.37132 0.0
O79 O 0.47079 0.74525 0.35912 0.0
O80 O 0.45045 0.74327 0.39789 0.0
C81 C 0.54274 0.77312 0.33057 0.0
O82 O 0.53512 0.79667 0.33646 0.0
C83 C 0.52148 0.71683 0.42322 0.0
Zn84 Zn 0.56846 0.30327 0.62733 0.0
Zn85 Zn 0.52911 0.28742 0.6605 0.0
O86 O 0.5162 0.31935 0.64207 0.0
O87 O 0.5452 0.32757 0.61026 0.0
O88 O 0.49928 0.27527 0.68515 0.0
O89 O 0.56342 0.26412 0.60994 0.0
O90 O 0.52821 0.25226 0.63434 0.0
C91 C 0.52404 0.33196 0.62137 0.0
C92 C 0.58935 0.31105 0.6855 0.0
O93 O 0.56467 0.2985 0.68772 0.0
O94 O 0.59618 0.31737 0.66184 0.0
C95 C 0.50046 0.28492 0.71071 0.0
O96 O 0.52223 0.30371 0.72214 0.0
C97 C 0.54366 0.24599 0.61608 0.0
Zn98 Zn 0.97238 0.23893 0.91019 0.0
Zn99 Zn 0.00424 0.24092 0.86796 0.0
O100 O 0.01567 0.27968 0.88968 0.0
O101 O 0.98939 0.27839 0.9242 0.0
O102 O 0.03131 0.24263 0.83923 0.0
O103 O 0.98853 0.20847 0.92532 0.0
O104 O 0.01229 0.20829 0.88887 0.0
C105 C 0.00776 0.29163 0.91105 0.0
C106 C 0.94181 0.23178 0.85438 0.0
O107 O 0.9657 0.23519 0.8457 0.0
O108 O 0.93936 0.2318 0.88034 0.0
C109 C 0.03943 0.26372 0.8266 0.0
O110 O 0.02834 0.28549 0.83079 0.0
C111 C 0.00537 0.19847 0.91137 0.0
Zn112 Zn 0.42665 0.96649 0.28347 0.0
Zn113 Zn 0.39727 0.00354 0.27865 0.0
O114 O 0.42516 0.0181 0.31417 0.0
O115 O 0.45445 0.99007 0.31273 0.0
O116 O 0.37618 0.03436 0.27771 0.0
O117 O 0.4345 0.967 0.24367 0.0
O118 O 0.41629 0.00397 0.24238 0.0
C119 C 0.4477 0.01153 0.32361 0.0
C120 C 0.37037 0.9447 0.2886 0.0
O121 O 0.36756 0.96786 0.28048 0.0
O122 O 0.39439 0.9398 0.29396 0.0
C123 C 0.35746 0.03834 0.25941 0.0
O124 O 0.34897 0.02028 0.23712 0.0
C125 C 0.42953 0.9871 0.2311 0.0
Zn126 Zn 0.23952 0.17377 0.49809 0.0
Zn127 Zn 0.27583 0.14192 0.50283 0.0
O128 O 0.28633 0.16494 0.46918 0.0
O129 O 0.25922 0.19525 0.47049 0.0
O130 O 0.30662 0.12011 0.50828 0.0
O131 O 0.24646 0.18901 0.53838 0.0
O132 O 0.278 0.16344 0.54272 0.0
C133 C 0.2785 0.18593 0.4601 0.0
C134 C 0.21467 0.11554 0.48568 0.0
O135 O 0.23923 0.11239 0.49327 0.0
O136 O 0.20982 0.13959 0.48486 0.0
C137 C 0.31594 0.1074 0.48834 0.0
O138 O 0.305 0.10761 0.46241 0.0
C139 C 0.265 0.18091 0.55344 0.0
Zn140 Zn 0.07981 0.03846 0.77464 0.0
Zn141 Zn 0.12183 0.01278 0.77952 0.0
O142 O 0.09796 0.00249 0.81219 0.0
O143 O 0.06173 0.0219 0.80602 0.0
O144 O 0.15059 0.98846 0.78269 0.0
O145 O 0.06666 0.02119 0.73575 0.0
O146 O 0.10251 0.00092 0.73858 0.0
C147 C 0.07489 0.00691 0.81949 0.0
C148 C 0.13446 0.07544 0.7835 0.0
O149 O 0.1439 0.05333 0.78406 0.0
O150 O 0.10842 0.07413 0.78054 0.0
C151 C 0.15821 0.9805 0.80606 0.0
O152 O 0.14885 0.98982 0.82888 0.0
C153 C 0.08104 0.00578 0.72453 0.0
Zn154 Zn 0.28155 0.83822 -0.0054 0.0
Zn155 Zn 0.254 0.87588 0.00754 0.0
O156 O 0.23934 0.86358 0.9656 0.0
O157 O 0.25777 0.82707 0.95821 0.0
O158 O 0.22808 0.90006 0.01975 0.0
O159 O 0.27309 0.81631 0.02605 0.0
O160 O 0.24675 0.84606 0.03532 0.0
C161 C 0.24189 0.84247 0.9498 0.0
C162 C 0.31633 0.89283 0.00721 0.0
O163 O 0.2938 0.89996 0.01274 0.0
O164 O 0.31605 0.86797 -0.0016 0.0
C165 C 0.23125 0.9257 0.02785 0.0
O166 O 0.25573 0.94219 0.02852 0.0
C167 C 0.25573 0.82445 0.04063 0.0
Zn168 Zn 0.31136 0.34715 0.0472 0.0
Zn169 Zn 0.27025 0.37305 0.04396 0.0
O170 O 0.26709 0.35325 0.00352 0.0
O171 O 0.30342 0.33362 0.0062 0.0
O172 O 0.23715 0.3921 0.04328 0.0
O173 O 0.29524 0.32233 0.07408 0.0
O174 O 0.26215 0.34617 0.07534 0.0
C175 C 0.28249 0.33874 0.99197 0.0
C176 C 0.33105 0.40501 0.05832 0.0
O177 O 0.30545 0.40497 0.0512 0.0
O178 O 0.33897 0.38249 0.06029 0.0
C179 C 0.23475 0.41432 0.03278 0.0
O180 O 0.25544 0.42762 0.02075 0.0
C181 C 0.2734 0.32677 0.0837 0.0
Zn182 Zn 0.76418 0.17585 0.05962 0.0
Zn183 Zn 0.79207 0.14286 0.05385 0.0
O184 O 0.79369 0.16042 0.01649 0.0
O185 O 0.75694 0.17866 0.01925 0.0
O186 O 0.81609 0.11472 0.05103 0.0
O187 O 0.79302 0.20526 0.08144 0.0
O188 O 0.81209 0.16992 0.08869 0.0
C189 C 0.77575 0.17267 0.00531 0.0
C190 C 0.73248 0.12775 0.06893 0.0
O191 O 0.75244 0.12031 0.05736 0.0
O192 O 0.73474 0.1529 0.07782 0.0
C193 C 0.81902 0.10063 0.02855 0.0
O194 O 0.80498 0.10353 0.0048 0.0
C195 C 0.81141 0.19534 0.09457 0.0
Zn196 Zn 0.0852 0.5125 0.22472 0.0
Zn197 Zn 0.12198 0.48367 0.24087 0.0
O198 O 0.09623 0.48624 0.27195 0.0
O199 O 0.06654 0.51178 0.25926 0.0
O200 O 0.14504 0.45848 0.25686 0.0
O201 O 0.06965 0.48342 0.19326 0.0
O202 O 0.10415 0.46229 0.20246 0.0
C203 C 0.07607 0.4978 0.27703 0.0
C204 C 0.14263 0.54291 0.23075 0.0
O205 O 0.14856 0.52079 0.23881 0.0
O206 O 0.11766 0.5437 0.2225 0.0
C207 C 0.17116 0.4598 0.2601 0.0
O208 O 0.18813 0.48043 0.25145 0.0
C209 C 0.08205 0.46407 0.18743 0.0
Zn210 Zn 0.80255 0.84099 0.53775 0.0
Zn211 Zn 0.77545 0.8819 0.54211 0.0
O212 O 0.76235 0.8617 0.50183 0.0
O213 O 0.78387 0.82697 0.49891 0.0
O214 O 0.75178 0.91088 0.54395 0.0
O215 O 0.78664 0.82501 0.57116 0.0
O216 O 0.76491 0.85951 0.57585 0.0
C217 C 0.76749 0.84061 0.48776 0.0
C218 C 0.83863 0.89562 0.54355 0.0
O219 O 0.81609 0.90423 0.54525 0.0
O220 O 0.8382 0.86991 0.54095 0.0
C221 C 0.75265 0.9289 0.52664 0.0
O222 O 0.7703 0.92949 0.5078 0.0
C223 C 0.77067 0.83732 0.58412 0.0
Zn224 Zn 0.91897 0.97479 0.24573 0.0
Zn225 Zn 0.89345 0.01667 0.24598 0.0
O226 O 0.91482 0.02206 0.28586 0.0
O227 O 0.93772 0.98828 0.28461 0.0
O228 O 0.87672 0.05064 0.24499 0.0
O229 O 0.93808 0.98528 0.21253 0.0
O230 O 0.91858 0.02147 0.2134 0.0
C231 C 0.93174 0.00912 0.29779 0.0
C232 C 0.85962 0.95708 0.23935 0.0
O233 O 0.85991 0.98293 0.2408 0.0
O234 O 0.88212 0.94848 0.24084 0.0
C235 C 0.8549 0.05515 0.25505 0.0
O236 O 0.84 0.0359 0.26761 0.0
C237 C 0.93469 0.0073 0.20269 0.0
Zn238 Zn 0.26118 0.69052 0.5523 0.0
Zn239 Zn 0.29895 0.66257 0.54284 0.0
O240 O 0.29705 0.68446 0.50859 0.0
O241 O 0.26131 0.70386 0.51466 0.0
O242 O 0.32807 0.64041 0.53594 0.0
O243 O 0.28566 0.71405 0.58361 0.0
O244 O 0.31489 0.68599 0.5809 0.0
C245 C 0.28017 0.69918 0.50004 0.0
C246 C 0.23954 0.63356 0.55019 0.0
O247 O 0.26343 0.63279 0.54257 0.0
O248 O 0.23382 0.65649 0.55831 0.0
C249 C 0.32887 0.62589 0.51301 0.0
O250 O 0.30975 0.625 0.49181 0.0
C251 C 0.3077 0.70696 0.5929 0.0
Zn252 Zn 0.43641 0.48433 0.75225 0.0
Zn253 Zn 0.39964 0.51538 0.74889 0.0
O254 O 0.41923 0.5258 0.78998 0.0
O255 O 0.45056 0.49989 0.79163 0.0
O256 O 0.37731 0.54511 0.74357 0.0
O257 O 0.45717 0.49848 0.72117 0.0
O258 O 0.42425 0.52226 0.71614 0.0
C259 C 0.43906 0.51763 0.80356 0.0
C260 C 0.37877 0.45329 0.74372 0.0
O261 O 0.37231 0.47701 0.74449 0.0
O262 O 0.40418 0.45163 0.74551 0.0
C263 C 0.35764 0.55178 0.7561 0.0
O264 O 0.34764 0.53711 0.77565 0.0
C265 C 0.44605 0.51524 0.70816 0.0
Zn266 Zn 0.59932 0.02548 0.73846 0.0
Zn267 Zn 0.63298 0.99194 0.74823 0.0
O268 O 0.60723 0.9883 0.78003 0.0
O269 O 0.58013 0.01772 0.77194 0.0
O270 O 0.65779 0.96476 0.7559 0.0
O271 O 0.58257 0.00401 0.70239 0.0
O272 O 0.61447 0.97885 0.70707 0.0
C273 C 0.5876 6e-05 0.78665 0.0
C274 C 0.65647 0.05384 0.74871 0.0
O275 O 0.66024 0.02985 0.75318 0.0
O276 O 0.63227 0.05724 0.74079 0.0
C277 C 0.67789 0.96319 0.74154 0.0
O278 O 0.68236 0.97953 0.72169 0.0
C279 C 0.59377 0.98495 0.69287 0.0
Zn280 Zn 0.71682 0.66887 0.00325 0.0
Zn281 Zn 0.76143 0.64637 0.00614 0.0
O282 O 0.76325 0.66832 0.97077 0.0
O283 O 0.72932 0.69115 0.97246 0.0
O284 O 0.79662 0.63058 0.00635 0.0
O285 O 0.72759 0.68624 0.04315 0.0
O286 O 0.76622 0.67028 0.04469 0.0
C287 C 0.75004 0.68584 0.96121 0.0
C288 C 0.70281 0.60954 -0.00199 0.0
O289 O 0.72905 0.61232 0.00376 0.0
O290 O 0.69231 0.63049 -0.00528 0.0
C291 C 0.79999 0.60755 0.01439 0.0
O292 O 0.77932 0.59151 0.02408 0.0
C293 C 0.75048 0.68434 0.05631 0.0
Zn294 Zn 0.94949 0.50675 0.79087 0.0
Zn295 Zn 0.90695 0.52896 0.78517 0.0
O296 O 0.92855 0.54808 0.8235 0.0
O297 O 0.96776 0.53338 0.82334 0.0
O298 O 0.87533 0.54909 0.77951 0.0
O299 O 0.96135 0.51422 0.75408 0.0
O300 O 0.92743 0.5369 0.74999 0.0
C301 C 0.9533 0.54874 0.83442 0.0
C302 C 0.89904 0.46711 0.79099 0.0
O303 O 0.88813 0.48766 0.78584 0.0
O304 O 0.92525 0.4704 0.7954 0.0
C305 C 0.86172 0.55469 0.79962 0.0
O306 O 0.86745 0.54584 0.82399 0.0
C307 C 0.94834 0.52926 0.74054 0.0
Zn308 Zn 0.78806 0.33863 0.51209 0.0
Zn309 Zn 0.76017 0.37954 0.51537 0.0
O310 O 0.74675 0.35906 0.47586 0.0
O311 O 0.76704 0.32336 0.47478 0.0
O312 O 0.73616 0.40784 0.51897 0.0
O313 O 0.77401 0.32403 0.54621 0.0
O314 O 0.75039 0.35721 0.54843 0.0
C315 C 0.75072 0.33679 0.4632 0.0
C316 C 0.82327 0.3936 0.51814 0.0
O317 O 0.80044 0.40183 0.51899 0.0
O318 O 0.82318 0.36797 0.51515 0.0
C319 C 0.72835 0.41929 0.49792 0.0
O320 O 0.73757 0.41384 0.47377 0.0
C321 C 0.75722 0.33609 0.55806 0.0
Zn322 Zn 0.59561 0.55114 0.2772 0.0
Zn323 Zn 0.62858 0.515 0.28725 0.0
O324 O 0.60275 0.51226 0.31877 0.0
O325 O 0.57398 0.53982 0.30933 0.0
O326 O 0.6504 0.48539 0.29387 0.0
O327 O 0.58276 0.53192 0.23831 0.0
O328 O 0.61002 0.50275 0.24653 0.0
C329 C 0.58205 0.52273 0.32451 0.0
C330 C 0.65489 0.57589 0.28912 0.0
O331 O 0.6579 0.55128 0.29136 0.0
O332 O 0.63096 0.58101 0.28338 0.0
C333 C 0.67 0.48154 0.27962 0.0
O334 O 0.67722 0.49811 0.26055 0.0
C335 C 0.59259 0.51132 0.23005 0.0
Zn336 Zn 0.05383 0.01247 0.03653 0.0
Zn337 Zn 0.99663 0.01535 0.00257 0.0
C338 C 0.04406 0.97044 0.07007 0.0
O339 O 0.05603 0.99215 0.08778 0.0
C340 C 0.01743 0.06151 0.97656 0.0
O341 O 0.00777 0.04243 0.95533 0.0
O342 O 0.09512 0.01733 0.05005 0.0
O343 O 0.05376 0.01439 -0.00554 0.0
O344 O 0.01227 0.99082 0.97616 0.0
C345 C 0.10327 0.99736 0.03719 0.0
O346 O 0.08563 0.98021 0.01833 0.0
O347 O 0.03944 0.97331 0.04417 0.0
C348 C 0.94884 0.03283 0.00884 0.0
O349 O 0.96697 0.04532 0.03009 0.0
O350 O 0.95654 0.01672 0.99051 0.0
O351 O 0.99562 0.00406 0.04106 0.0
O352 O 0.03221 0.03436 0.06148 0.0
O353 O 0.01671 0.05473 0.00139 0.0
C354 C 0.03807 -0.00109 0.9743 0.0
C355 C 0.00809 0.01968 0.06264 0.0
Zn356 Zn 0.26451 0.74404 0.29166 0.0
Zn357 Zn 0.26703 0.74654 0.23209 0.0
C358 C 0.22824 0.69397 0.28578 0.0
O359 O 0.21946 0.70962 0.30497 0.0
C360 C 0.26587 0.80612 0.2351 0.0
O361 O 0.24446 0.79911 0.21564 0.0
O362 O 0.27003 0.7426 0.33307 0.0
O363 O 0.30167 0.7614 0.28231 0.0
O364 O 0.29917 0.7292 0.248 0.0
C365 C 0.28344 0.72443 0.34019 0.0
O366 O 0.29167 0.7088 0.3206 0.0
O367 O 0.25047 0.70379 0.27553 0.0
C368 C 0.24276 0.7448 0.17534 0.0
O369 O 0.2202 0.74566 0.18754 0.0
O370 O 0.26504 0.74317 0.19008 0.0
O371 O 0.22759 0.735 0.24201 0.0
O372 O 0.23462 0.76416 0.28052 0.0
O373 O 0.2779 0.78765 0.24412 0.0
C374 C 0.31328 0.74462 0.26907 0.0
C375 C 0.21862 0.7511 0.25932 0.0
Zn376 Zn 0.50813 0.0433 0.51734 0.0
Zn377 Zn 0.57634 0.01946 0.50337 0.0
C378 C 0.50462 0.08612 0.55829 0.0
O379 O 0.48587 0.06608 0.56558 0.0
C380 C 0.56051 0.96836 0.47153 0.0
O381 O 0.58021 0.98133 0.45804 0.0
O382 O 0.46594 0.03709 0.50757 0.0
O383 O 0.52827 0.04442 0.48171 0.0
O384 O 0.56907 0.03794 0.46943 0.0
C385 C 0.45829 0.0555 0.49367 0.0
O386 O 0.47733 0.07506 0.48616 0.0
O387 O 0.51806 0.08115 0.53786 0.0
C388 C 0.61787 0.99376 0.52642 0.0
O389 O 0.59489 0.9786 0.533 0.0
O390 O 0.61625 0.01457 0.51308 0.0
O391 O 0.56089 0.03833 0.53426 0.0
O392 O 0.52053 0.01843 0.54512 0.0
O393 O 0.55363 0.98116 0.49292 0.0
C394 C 0.54549 0.04416 0.46345 0.0
C395 C 0.54688 0.0221 0.54894 0.0
Zn396 Zn 0.29769 0.24718 0.77064 0.0
Zn397 Zn 0.24217 0.26929 0.77494 0.0
C398 C 0.28725 0.21112 0.72073 0.0
O399 O 0.29662 0.19605 0.73903 0.0
C400 C 0.24731 0.30323 0.82564 0.0
O401 O 0.23542 0.31709 0.80777 0.0
O402 O 0.33715 0.24144 0.77304 0.0
O403 O 0.30207 0.28828 0.78043 0.0
O404 O 0.26645 0.29688 0.75417 0.0
C405 C 0.34948 0.25251 0.75359 0.0
O406 O 0.33626 0.26588 0.73635 0.0
O407 O 0.28374 0.23504 0.72945 0.0
C408 C 0.18855 0.25518 0.78563 0.0
O409 O 0.20276 0.24144 0.80153 0.0
O410 O 0.2015 0.27179 0.77029 0.0
O411 O 0.23983 0.2282 0.76476 0.0
O412 O 0.27458 0.2212 0.7932 0.0
O413 O 0.25388 0.28083 0.81644 0.0
C414 C 0.29174 0.30399 0.76489 0.0
C415 C 0.24996 0.21297 0.78107 0.0
Zn416 Zn 0.03886 0.9592 0.50551 0.0
Zn417 Zn 0.03088 0.01855 0.50865 0.0
C418 C 0.06871 0.96628 0.55921 0.0
O419 O 0.08468 0.95397 0.54435 0.0
C420 C 0.001 0.02366 0.45633 0.0
O421 O 0.98791 0.03745 0.47325 0.0
O422 O 0.03551 0.91784 0.50499 0.0
O423 O 0.00099 0.96391 0.48992 0.0
O424 O 0.99902 0.99437 0.52485 0.0
C425 C 0.01612 0.90843 0.51943 0.0
O426 O 0.00267 0.92569 0.53141 0.0
O427 O 0.04702 0.97214 0.54683 0.0
C428 C 0.04712 0.07537 0.50717 0.0
O429 O 0.06335 0.06557 0.49056 0.0
O430 O 0.03072 0.05854 0.51952 0.0
O431 O 0.07134 0.01526 0.51621 0.0
O432 O 0.07121 0.97813 0.48718 0.0
O433 O 0.02073 0.01324 0.46668 0.0
C434 C 0.98691 0.97366 0.50757 0.0
C435 C 0.0838 0.00134 0.50008 0.0
Zn436 Zn 0.25883 0.80992 0.76284 0.0
Zn437 Zn 0.2976 0.74709 0.78312 0.0
C438 C 0.20686 0.79232 0.73046 0.0
O439 O 0.21843 0.81297 0.71734 0.0
C440 C 0.33842 0.74536 0.82735 0.0
O441 O 0.31702 0.72811 0.83448 0.0
O442 O 0.25354 0.84956 0.76938 0.0
O443 O 0.27721 0.79645 0.79606 0.0
O444 O 0.2691 0.75468 0.80835 0.0
C445 C 0.23261 0.85345 0.78156 0.0
O446 O 0.2164 0.83227 0.79018 0.0
O447 O 0.22083 0.78582 0.75144 0.0
C448 C 0.3124 0.69717 0.7618 0.0
O449 O 0.33474 0.71527 0.75811 0.0
O450 O 0.29204 0.70588 0.7711 0.0
O451 O 0.29706 0.77075 0.75088 0.0
O452 O 0.28227 0.80471 0.73168 0.0
O453 O 0.33516 0.75759 0.80558 0.0
C454 C 0.26328 0.77851 0.80923 0.0
C455 C 0.29645 0.78586 0.73089 0.0
Zn456 Zn 0.53037 0.02044 0.98942 0.0
Zn457 Zn 0.51889 0.01827 0.04823 0.0
C458 C 0.57733 0.06439 0.00868 0.0
O459 O 0.56361 0.07806 0.99219 0.0
C460 C 0.47366 0.9742 0.03933 0.0
O461 O 0.49139 0.96525 0.05647 0.0
O462 O 0.53735 0.01657 0.94921 0.0
O463 O 0.52279 0.98153 -0.00152 0.0
O464 O 0.54564 0.99326 0.04063 0.0
C465 C 0.55783 0.00521 0.94523 0.0
O466 O 0.57249 -0.0011 0.96702 0.0
O467 O 0.56724 0.03924 0.01094 0.0
C468 C 0.50258 0.03897 0.09975 0.0
O469 O 0.49729 0.05867 0.08497 0.0
O470 O 0.5145 0.02076 0.08906 0.0
O471 O 0.52573 0.05676 0.03738 0.0
O472 O 0.50154 0.04382 -0.00398 0.0
O473 O 0.48064 -0.00199 0.03126 0.0
C474 C 0.53838 0.97602 0.01878 0.0
C475 C 0.50908 0.06144 0.01753 0.0
Zn476 Zn 0.27039 0.21947 0.25116 0.0
Zn477 Zn 0.24272 0.27729 0.28727 0.0
C478 C 0.32092 0.25037 0.23431 0.0
O479 O 0.30407 0.25179 0.21193 0.0
C480 C 0.19057 0.24627 0.30937 0.0
O481 O 0.20109 0.22399 0.30985 0.0
O482 O 0.2736 0.17991 0.24041 0.0
O483 O 0.2543 0.219 0.28806 0.0
O484 O 0.26934 0.26005 0.31149 0.0
C485 C 0.29108 0.17263 0.25788 0.0
O486 O 0.30328 0.19047 0.27939 0.0
O487 O 0.3107 0.24005 0.25527 0.0
C488 C 0.23088 0.32758 0.28294 0.0
O489 O 0.20973 0.30945 0.26924 0.0
O490 O 0.25161 0.31911 0.29414 0.0
O491 O 0.24027 0.27024 0.24486 0.0
O492 O 0.24934 0.23409 0.22008 0.0
O493 O 0.20424 0.26774 0.30063 0.0
C494 C 0.26765 0.23404 0.30968 0.0
C495 C 0.24121 0.25687 0.22131 0.0
Zn496 Zn 0.51561 0.4659 0.00961 0.0
Zn497 Zn 0.52142 0.52472 0.02005 0.0
C498 C 0.5407 0.4661 0.06732 0.0
O499 O 0.55284 0.44708 0.05635 0.0
C500 C 0.49491 0.53437 0.96635 0.0
O501 O 0.48155 0.54899 0.98213 0.0
O502 O 0.51162 0.42468 0.00643 0.0
O503 O 0.47829 0.47501 -0.0016 0.0
O504 O 0.48618 0.50595 0.03534 0.0
C505 C 0.48805 0.40833 0.00506 0.0
O506 O 0.46529 0.41805 0.00083 0.0
O507 O 0.5245 0.47666 0.0515 0.0
C508 C 0.54895 0.57952 0.02192 0.0
O509 O 0.5632 0.56686 0.00528 0.0
O510 O 0.5291 0.56517 0.03261 0.0
O511 O 0.55848 0.51324 0.02761 0.0
O512 O 0.54801 0.48361 0.98991 0.0
O513 O 0.51252 0.5221 0.97798 0.0
C514 C 0.46912 0.48839 0.01789 0.0
C515 C 0.56606 0.50139 0.00608 0.0
Zn516 Zn 0.76796 0.30708 0.25976 0.0
Zn517 Zn 0.78398 0.24681 0.27697 0.0
C518 C 0.72279 0.2924 0.21676 0.0
O519 O 0.73925 0.31175 0.20573 0.0
C520 C 0.82397 0.25567 0.32438 0.0
O521 O 0.8031 0.2391 0.33322 0.0
O522 O 0.76348 0.34671 0.25906 0.0
O523 O 0.76998 0.30114 0.30035 0.0
O524 O 0.75229 0.25636 0.29636 0.0
C525 C 0.74225 0.35133 0.27026 0.0
O526 O 0.72654 0.33095 0.28063 0.0
O527 O 0.73158 0.28468 0.23982 0.0
C528 C 0.805 0.19877 0.2693 0.0
O529 O 0.82582 0.21839 0.26509 0.0
O530 O 0.78259 0.20548 0.27568 0.0
O531 O 0.78727 0.25515 0.23748 0.0
O532 O 0.8001 0.3006 0.23917 0.0
O533 O 0.8203 0.26425 0.3005 0.0
C534 C 0.75504 0.28042 0.30911 0.0
C535 C 0.80176 0.27648 0.22928 0.0
Zn536 Zn 0.03128 0.52184 0.4849 0.0
Zn537 Zn 0.02539 0.52126 0.54472 0.0
C538 C 0.09071 0.54937 0.49524 0.0
O539 O 0.08979 0.54907 0.46788 0.0
C540 C 0.98019 0.47802 0.544 0.0
O541 O 0.99978 0.4708 0.56038 0.0
O542 O 0.03555 0.51685 0.44398 0.0
O543 O 0.02182 0.48303 0.49442 0.0
O544 O 0.04934 0.49403 0.53407 0.0
C545 C 0.052 0.50112 0.43765 0.0
O546 O 0.06567 0.4914 0.45787 0.0
O547 O 0.06893 0.53984 0.50625 0.0
C548 C 0.00982 0.53958 0.59527 0.0
O549 O 0.9926 0.54753 0.57682 0.0
O550 O 0.02825 0.52744 0.58654 0.0
O551 O 0.03059 0.5595 0.53213 0.0
O552 O 0.00408 0.54653 0.49203 0.0
O553 O 0.98567 0.5008 0.5335 0.0
C554 C 0.03845 0.47648 0.51316 0.0
C555 C 0.01355 0.56458 0.51283 0.0
Zn556 Zn 0.79345 0.76273 0.27139 0.0
Zn557 Zn 0.73424 0.76791 0.26635 0.0
C558 C 0.7979 0.73439 0.21912 0.0
O559 O 0.81139 0.72156 0.23675 0.0
C560 C 0.73543 0.79154 0.32316 0.0
O561 O 0.72017 0.80658 0.31028 0.0
O562 O 0.83438 0.76314 0.28 0.0
O563 O 0.78868 0.80176 0.28312 0.0
O564 O 0.75426 0.80152 0.25051 0.0
C565 C 0.84991 0.78182 0.26889 0.0
O566 O 0.83849 0.80022 0.25681 0.0
O567 O 0.78742 0.75424 0.22883 0.0
C568 C 0.67731 0.74456 0.26741 0.0
O569 O 0.6885 0.7235 0.27307 0.0
O570 O 0.69297 0.76658 0.26188 0.0
O571 O 0.73966 0.73072 0.25065 0.0
O572 O 0.77033 0.72966 0.28641 0.0
O573 O 0.74444 0.77322 0.30863 0.0
C574 C 0.77526 0.81471 0.26694 0.0
C575 C 0.75073 0.71703 0.26791 0.0
Zn576 Zn 0.75017 0.26467 0.81628 0.0
Zn577 Zn 0.75492 0.27124 0.75871 0.0
C578 C 0.7456 0.20457 0.79706 0.0
O579 O 0.76639 0.20479 0.81629 0.0
C580 C 0.79312 0.3216 0.76158 0.0
O581 O 0.8058 0.3044 0.7482 0.0
O582 O 0.74985 0.25696 0.85602 0.0
O583 O 0.78906 0.28202 0.81154 0.0
O584 O 0.78573 0.25259 0.77427 0.0
C585 C 0.77087 0.24992 0.86833 0.0
O586 O 0.79326 0.25038 0.85553 0.0
O587 O 0.73708 0.22677 0.7938 0.0
C588 C 0.73701 0.2798 0.70463 0.0
O589 O 0.72283 0.2942 0.71961 0.0
O590 O 0.75277 0.26621 0.71708 0.0
O591 O 0.71476 0.26194 0.76698 0.0
O592 O 0.72226 0.28771 0.80752 0.0
O593 O 0.7692 0.31245 0.76883 0.0
C594 C 0.80047 0.26726 0.79543 0.0
C595 C 0.70623 0.27699 0.78554 0.0
Zn596 Zn 0.76128 0.71902 0.75162 0.0
Zn597 Zn 0.73366 0.77522 0.77911 0.0
C598 C 0.81182 0.75077 0.73663 0.0
O599 O 0.79558 0.75015 0.71327 0.0
C600 C 0.67526 0.77155 0.78428 0.0
O601 O 0.67914 0.7934 0.77046 0.0
O602 O 0.76816 0.68016 0.74427 0.0
O603 O 0.74168 0.71787 0.78629 0.0
O604 O 0.75895 0.75971 0.80701 0.0
C605 C 0.78317 0.67454 0.7651 0.0
O606 O 0.79168 0.69346 0.78666 0.0
O607 O 0.80104 0.74154 0.75781 0.0
C608 C 0.74489 0.83437 0.77409 0.0
O609 O 0.75816 0.82749 0.75305 0.0
O610 O 0.73594 0.81612 0.78986 0.0
O611 O 0.73589 0.77122 0.73661 0.0
O612 O 0.74101 0.73035 0.71792 0.0
O613 O 0.69491 0.75859 0.78782 0.0
C614 C 0.75283 0.73372 0.8082 0.0
C615 C 0.73661 0.75444 0.7152 0.0
Zn616 Zn 0.55866 0.51489 0.53923 0.0
Zn617 Zn 0.5072 0.53703 0.5137 0.0
C618 C 0.52903 0.47031 0.56293 0.0
O619 O 0.5431 0.48586 0.58517 0.0
C620 C 0.53225 0.5811 0.48732 0.0
O621 O 0.51832 0.56345 0.46644 0.0
O622 O 0.59625 0.50539 0.54846 0.0
O623 O 0.56042 0.52572 0.50014 0.0
O624 O 0.51648 0.51034 0.48333 0.0
C625 C 0.60009 0.487 0.52996 0.0
O626 O 0.57982 0.47623 0.50998 0.0
O627 O 0.53144 0.4787 0.53893 0.0
C628 C 0.4662 0.56405 0.52456 0.0
O629 O 0.48752 0.57462 0.54349 0.0
O630 O 0.46885 0.54544 0.5056 0.0
O631 O 0.50645 0.52712 0.55334 0.0
O632 O 0.55047 0.54175 0.56978 0.0
O633 O 0.53243 0.57402 0.51206 0.0
C634 C 0.54217 0.51458 0.4798 0.0
C635 C 0.52491 0.53764 0.57367 0.0
Zn636 Zn 0.98554 0.52267 0.03038 0.0
Zn637 Zn 0.05105 0.5015 0.00247 0.0
C638 C 0.99766 0.57169 0.06701 0.0
O639 O 0.97777 0.55689 0.07892 0.0
C640 C 0.03858 0.45177 0.96668 0.0
O641 O 0.05757 0.46646 0.95361 0.0
O642 O 0.94396 0.52348 0.02689 0.0
O643 O 0.99939 0.51082 0.99382 0.0
O644 O 0.03729 0.52574 0.97491 0.0
C645 C 0.93813 0.54531 0.01788 0.0
O646 O 0.95831 0.56362 0.01018 0.0
O647 O 0.00572 0.56103 0.0451 0.0
C648 C 0.09808 0.47831 0.01597 0.0
O649 O 0.07726 0.45948 0.02173 0.0
O650 O 0.09284 0.50052 0.00727 0.0
O651 O 0.03583 0.51349 0.03773 0.0
O652 O 0.99892 0.49786 0.05764 0.0
O653 O 0.03098 0.46298 0.98853 0.0
C654 C 0.01206 0.52688 0.97788 0.0
C655 C 0.02399 0.49712 0.05381 0.0
H656 H 0.01018 0.18393 0.96418 0.0
H657 H 0.02335 0.15893 0.87921 0.0
H658 H 0.03258 0.11516 0.89322 0.0
H659 H 0.0303 0.08177 0.92809 0.0
H660 H 0.01688 0.10677 0.01299 0.0
H661 H 0.01506 0.15312 0.0007 0.0
C662 C 0.01543 0.16903 0.94882 0.0
C663 C 0.0155 0.17431 0.9206 0.0
C664 C 0.02061 0.14396 0.957 0.0
C665 C 0.02295 0.15519 0.90102 0.0
C666 C 0.02813 0.13014 0.90899 0.0
C667 C 0.02753 0.09755 0.94403 0.0
C668 C 0.0232 0.09078 0.97125 0.0
C669 C 0.02605 0.12396 0.9367 0.0
C670 C 0.02014 0.11147 0.99186 0.0
C671 C 0.01885 0.1379 0.98478 0.0
H672 H 0.09754 0.75051 0.20892 0.0
H673 H 0.13116 0.83804 0.21661 0.0
H674 H 0.17291 0.83172 0.24527 0.0
H675 H 0.2028 0.80011 0.26056 0.0
H676 H 0.17207 0.71218 0.2428 0.0
H677 H 0.12609 0.71939 0.22603 0.0
C678 C 0.11363 0.76823 0.21785 0.0
C679 C 0.11137 0.79469 0.21143 0.0
C680 C 0.13823 0.7641 0.2321 0.0
C681 C 0.13252 0.81758 0.22196 0.0
C682 C 0.15641 0.81388 0.23799 0.0
C683 C 0.18571 0.78265 0.25371 0.0
C684 C 0.19034 0.75564 0.25336 0.0
C685 C 0.15999 0.78708 0.24211 0.0
C686 C 0.16857 0.73305 0.2437 0.0
C687 C 0.14243 0.7372 0.23393 0.0
H688 H 0.50382 0.84209 0.45697 0.0
H689 H 0.55629 0.84146 0.39012 0.0
H690 H 0.57326 0.89142 0.40066 0.0
H691 H 0.57358 0.93496 0.42934 0.0
H692 H 0.52089 0.9351 0.49606 0.0
H693 H 0.50337 0.88544 0.4848 0.0
C694 C 0.51904 0.8528 0.4447 0.0
C695 C 0.52891 0.83803 0.4229 0.0
C696 C 0.52853 0.8814 0.45075 0.0
C697 C 0.54843 0.85233 0.40708 0.0
C698 C 0.5581 0.88088 0.41307 0.0
C699 C 0.55815 0.92417 0.44134 0.0
C700 C 0.5486 0.93869 0.46355 0.0
C701 C 0.54831 0.89559 0.43489 0.0
C702 C 0.5286 0.92441 0.47887 0.0
C703 C 0.51862 0.89601 0.4725 0.0
H704 H 0.4542 0.24501 0.69421 0.0
H705 H 0.49221 0.30749 0.76241 0.0
H706 H 0.44934 0.29933 0.78479 0.0
H707 H 0.39895 0.27917 0.78127 0.0
H708 H 0.36083 0.21874 0.71169 0.0
H709 H 0.40587 0.22094 0.69371 0.0
C710 C 0.45326 0.25661 0.71416 0.0
C711 C 0.47617 0.2772 0.72632 0.0
C712 C 0.42847 0.25212 0.72665 0.0
C713 C 0.47475 0.29173 0.75241 0.0
C714 C 0.45022 0.28711 0.76522 0.0
C715 C 0.4009 0.26584 0.76277 0.0
C716 C 0.37705 0.24854 0.7479 0.0
C717 C 0.42667 0.268 0.75207 0.0
C718 C 0.37926 0.23184 0.72354 0.0
C719 C 0.40488 0.23332 0.71316 0.0
H720 H 0.97677 0.79918 0.57232 0.0
H721 H 0.06146 0.79189 0.56441 0.0
H722 H 0.06826 0.83216 0.53809 0.0
H723 H 0.05161 0.87272 0.52225 0.0
H724 H 0.96715 0.8799 0.53172 0.0
H725 H 0.95868 0.83622 0.55203 0.0
C726 C 0.99665 0.80621 0.5646 0.0
C727 C 0.01869 0.79286 0.5707 0.0
C728 C 1.00047 0.82944 0.54976 0.0
C729 C 0.04418 0.80195 0.56017 0.0
C730 C 0.04811 0.82502 0.54516 0.0
C731 C 0.0312 0.86429 0.52812 0.0
C732 C 0.01014 0.87955 0.52581 0.0
C733 C 0.02662 0.83938 0.54048 0.0
C734 C 0.98379 0.86859 0.53362 0.0
C735 C 0.97892 0.84368 0.54532 0.0
H736 H 0.46376 0.76904 0.88108 0.0
H737 H 0.42501 0.72933 0.94772 0.0
H738 H 0.37937 0.72242 0.92047 0.0
H739 H 0.35038 0.72875 0.87837 0.0
H740 H 0.38865 0.77052 0.8126 0.0
H741 H 0.43456 0.77573 0.83896 0.0
C742 C 0.44533 0.75863 0.88948 0.0
C743 C 0.44771 0.74959 0.91628 0.0
C744 C 0.41908 0.75535 0.874 0.0
C745 C 0.42366 0.7365 0.92712 0.0
C746 C 0.39757 0.73258 0.91159 0.0
C747 C 0.36876 0.73899 0.86978 0.0
C748 C 0.36611 0.74925 0.8436 0.0
C749 C 0.39501 0.74215 0.88514 0.0
C750 C 0.39011 0.76258 0.83281 0.0
C751 C 0.41638 0.76547 0.84781 0.0
H752 H 0.46036 0.14344 0.0896 0.0
H753 H 0.53358 0.19888 0.07056 0.0
H754 H 0.54112 0.164 0.03477 0.0
H755 H 0.53196 0.11492 0.01618 0.0
H756 H 0.45779 0.05991 0.03319 0.0
H757 H 0.44483 0.09762 0.06177 0.0
C758 C 0.47748 0.14803 0.07703 0.0
C759 C 0.49672 0.17333 0.08297 0.0
C760 C 0.48145 0.12802 0.05615 0.0
C761 C 0.51861 0.17941 0.06638 0.0
C762 C 0.523 0.15946 0.04599 0.0
C763 C 0.51227 0.11165 0.02498 0.0
C764 C 0.49579 0.08494 0.02276 0.0
C765 C 0.50524 0.13331 0.0416 0.0
C766 C 0.47049 0.08057 0.03442 0.0
C767 C 0.46337 0.10199 0.05115 0.0
H768 H 0.08285 0.23677 0.3724 0.0
H769 H 0.09221 0.32171 0.35484 0.0
H770 H 0.13146 0.31712 0.32882 0.0
H771 H 0.16498 0.29006 0.31365 0.0
H772 H 0.15649 0.20544 0.33205 0.0
H773 H 0.11498 0.20887 0.35495 0.0
C774 C 0.09326 0.25422 0.36264 0.0
C775 C 0.08459 0.27961 0.36577 0.0
C776 C 0.11611 0.25156 0.34797 0.0
C777 C 0.09841 0.30195 0.35292 0.0
C778 C 0.12094 0.29937 0.33805 0.0
C779 C 0.15397 0.27224 0.32246 0.0
C780 C 0.16405 0.24756 0.32125 0.0
C781 C 0.13027 0.27443 0.33587 0.0
C782 C 0.14935 0.22473 0.33273 0.0
C783 C 0.12559 0.22668 0.34589 0.0
H784 H 0.94876 0.97329 0.16298 0.0
H785 H 0.95286 0.05968 0.18764 0.0
H786 H 0.97895 0.07195 0.14784 0.0
H787 H 0.99999 0.05731 0.10505 0.0
H788 H 0.98901 0.97006 0.07902 0.0
H789 H 0.96712 0.95893 0.12065 0.0
C790 C 0.95544 0.99485 0.15976 0.0
C791 C 0.94912 0.01554 0.17826 0.0
C792 C 0.96969 0.00157 0.13676 0.0
C793 C 0.95744 0.04336 0.17354 0.0
C794 C 0.97248 0.05035 0.15091 0.0
C795 C 0.99323 0.03597 0.10895 0.0
C796 C 0.99723 0.01452 0.08962 0.0
C797 C 0.97879 0.02957 0.13231 0.0
C798 C 0.98723 0.98692 0.09413 0.0
C799 C 0.97431 0.98049 0.11776 0.0
H800 H 0.31023 0.68537 0.45847 0.0
H801 H 0.25228 0.73658 0.47966 0.0
H802 H 0.24985 0.75055 0.43247 0.0
H803 H 0.26124 0.74553 0.38432 0.0
H804 H 0.3181 0.69346 0.36237 0.0
H805 H 0.32407 0.68276 0.41081 0.0
C806 C 0.29736 0.69986 0.45285 0.0
C807 C 0.28129 0.70971 0.47244 0.0
C808 C 0.29569 0.70753 0.42552 0.0
C809 C 0.26469 0.72847 0.46487 0.0
C810 C 0.26325 0.7365 0.43789 0.0
C811 C 0.27515 0.73206 0.3902 0.0
C812 C 0.28889 0.72001 0.36982 0.0
C813 C 0.2782 0.72571 0.41791 0.0
C814 C 0.30695 0.70268 0.37769 0.0
C815 C 0.31042 0.69658 0.40536 0.0
H816 H 0.62332 -0.00099 0.65124 0.0
H817 H 0.54521 0.95166 0.66895 0.0
H818 H 0.52382 0.95547 0.62183 0.0
H819 H 0.5249 0.98172 0.58056 0.0
H820 H 0.60189 0.03553 0.56774 0.0
H821 H 0.62605 0.02 0.60753 0.0
C822 C 0.60205 0.98831 0.64412 0.0
C823 C 0.58586 0.97488 0.66316 0.0
C824 C 0.58937 0.99281 0.61813 0.0
C825 C 0.55809 0.96172 0.65428 0.0
C826 C 0.54574 0.96445 0.62759 0.0
C827 C 0.54704 0.98965 0.58625 0.0
C828 C 0.56149 0.00973 0.57115 0.0
C829 C 0.56071 0.98153 0.6101 0.0
C830 C 0.59018 0.01998 0.5789 0.0
C831 C 0.60411 0.01112 0.60171 0.0
H832 H 0.25256 0.35797 0.9503 0.0
H833 H 0.30007 0.29559 0.96602 0.0
H834 H 0.2933 0.27893 0.91618 0.0
H835 H 0.27473 0.28252 0.86787 0.0
H836 H 0.22865 0.34591 0.85169 0.0
H837 H 0.23413 0.3617 0.90172 0.0
C838 C 0.2612 0.34059 0.94281 0.0
C839 C 0.27672 0.32803 0.96186 0.0
C840 C 0.25769 0.33138 0.91395 0.0
C841 C 0.28808 0.30571 0.95179 0.0
C842 C 0.28425 0.29615 0.92327 0.0
C843 C 0.2659 0.29979 0.87528 0.0
C844 C 0.25134 0.31298 0.85602 0.0
C845 C 0.26928 0.30894 0.90411 0.0
C846 C 0.24007 0.33539 0.86601 0.0
C847 C 0.24311 0.34443 0.89467 0.0
H848 H 0.97258 0.98979 0.32615 0.0
H849 H 0.91729 0.04641 0.33626 0.0
H850 H 0.93447 0.05649 0.38624 0.0
H851 H 0.96371 0.04752 0.42735 0.0
H852 H 0.01882 0.99077 0.41661 0.0
H853 H 0.00308 0.98244 0.36644 0.0
C854 C 0.96432 0.00446 0.33919 0.0
C855 C 0.94354 0.0172 0.32749 0.0
C856 C 0.97415 0.01001 0.36781 0.0
C857 C 0.9333 0.03632 0.34471 0.0
C858 C 0.94304 0.04201 0.37331 0.0
C859 C 0.97233 0.03338 0.41402 0.0
C860 C 0.99228 0.01963 0.42576 0.0
C861 C 0.96321 0.02869 0.38514 0.0
C862 C 0.00341 0.00157 0.40815 0.0
C863 C 0.99441 0.99677 0.37946 0.0
H864 H 0.31759 0.7614 0.60767 0.0
H865 H 0.32871 0.68486 0.63811 0.0
H866 H 0.33255 0.70607 0.68663 0.0
H867 H 0.31956 0.74176 0.71828 0.0
H868 H 0.30353 0.81642 0.6867 0.0
H869 H 0.31489 0.80075 0.64064 0.0
C870 C 0.32199 0.74977 0.62502 0.0
C871 C 0.3222 0.72158 0.61964 0.0
C872 C 0.32238 0.76156 0.65253 0.0
C873 C 0.32834 0.70661 0.64194 0.0
C874 C 0.33006 0.71862 0.66962 0.0
C875 C 0.31939 0.75497 0.7016 0.0
C876 C 0.30993 0.7798 0.70565 0.0
C877 C 0.32503 0.74538 0.67495 0.0
C878 C 0.31009 0.79689 0.68391 0.0
C879 C 0.31661 0.78796 0.65757 0.0
H880 H 0.61041 0.98254 0.83358 0.0
H881 H 0.53735 0.00896 0.79891 0.0
H882 H 0.52071 0.01129 0.84495 0.0
H883 H 0.52934 0.0107 0.89572 0.0
H884 H 0.60297 0.98552 0.93088 0.0
H885 H 0.61691 0.97786 0.88405 0.0
C886 C 0.59056 0.98819 0.83603 0.0
C887 C 0.57527 0.99583 0.81302 0.0
C888 C 0.58145 0.99022 0.86273 0.0
C889 C 0.54963 0.00324 0.81644 0.0
C890 C 0.54014 0.0047 0.84276 0.0
C891 C 0.54837 0.00342 0.89313 0.0
C892 C 0.56531 -0.00085 0.91675 0.0
C893 C 0.55634 -0.00085 0.86619 0.0
C894 C 0.58969 0.98929 0.91303 0.0
C895 C 0.59768 0.98483 0.88625 0.0
H896 H 0.24696 0.33993 0.12926 0.0
H897 H 0.27364 0.27265 0.08418 0.0
H898 H 0.26166 0.24337 0.121 0.0
H899 H 0.24967 0.2387 0.16849 0.0
H900 H 0.22561 0.30643 0.21566 0.0
H901 H 0.2299 0.33325 0.17561 0.0
C902 C 0.24955 0.31869 0.12732 0.0
C903 C 0.26147 0.30858 0.1042 0.0
C904 C 0.2433 0.30201 0.14911 0.0
C905 C 0.26485 0.28104 0.10197 0.0
C906 C 0.258 0.26423 0.12302 0.0
C907 C 0.24475 0.25908 0.1699 0.0
C908 C 0.23763 0.27052 0.19528 0.0
C909 C 0.24812 0.27477 0.14711 0.0
C910 C 0.2313 0.29703 0.19651 0.0
C911 C 0.23391 0.31253 0.17361 0.0
H912 H 0.22563 0.97981 0.03644 0.0
H913 H 0.18148 0.89546 0.03693 0.0
H914 H 0.13902 0.91125 0.04437 0.0
H915 H 0.11302 0.94786 0.04507 0.0
H916 H 0.15486 0.03236 0.04324 0.0
H917 H 0.19978 0.01787 0.04277 0.0
C918 C 0.2068 0.96498 0.03854 0.0
C919 C 0.20669 0.93643 0.03554 0.0
C920 C 0.18206 0.97421 0.04259 0.0
C921 C 0.18214 0.91749 0.03859 0.0
C922 C 0.15778 0.92647 0.04296 0.0
C923 C 0.13211 0.96318 0.04515 0.0
C924 C 0.13084 0.99101 0.04398 0.0
C925 C 0.15733 0.95461 0.04415 0.0
C926 C 0.15553 0.0108 0.04433 0.0
C927 C 0.18108 0.00244 0.04372 0.0
H928 H 0.65884 0.58433 0.96033 0.0
H929 H 0.70392 0.57576 0.03907 0.0
H930 H 0.66613 0.53834 0.04754 0.0
H931 H 0.61714 0.51349 0.03573 0.0
H932 H 0.57354 0.51955 0.9554 0.0
H933 H 0.61398 0.55218 0.94398 0.0
C934 C 0.66065 0.57365 0.97891 0.0
C935 C 0.68386 0.58281 -0.0008 0.0
C936 C 0.63903 0.55194 0.98341 0.0
C937 C 0.68622 0.56888 0.02316 0.0
C938 C 0.66453 0.54767 0.0281 0.0
C939 C 0.61695 0.52132 0.01539 0.0
C940 C 0.59251 0.5144 -0.00353 0.0
C941 C 0.64039 0.53979 0.00887 0.0
C942 C 0.59228 0.5245 0.97014 0.0
C943 C 0.61528 0.54336 0.96375 0.0
H944 H 0.71254 0.46728 0.25313 0.0
H945 H 0.6563 0.44108 0.31368 0.0
H946 H 0.6747 0.3993 0.31688 0.0
H947 H 0.70486 0.36908 0.30092 0.0
H948 H 0.76145 0.39459 0.2406 0.0
H949 H 0.74495 0.4379 0.23907 0.0
C950 C 0.70443 0.45253 0.26716 0.0
C951 C 0.68289 0.45729 0.28297 0.0
C952 C 0.71509 0.42838 0.26889 0.0
C953 C 0.67278 0.43798 0.30118 0.0
C954 C 0.68326 0.41401 0.30301 0.0
C955 C 0.71369 0.38413 0.28747 0.0
C956 C 0.73417 0.37851 0.27069 0.0
C957 C 0.7041 0.40883 0.28668 0.0
C958 C 0.74564 0.39841 0.2537 0.0
C959 C 0.73614 0.42312 0.25276 0.0
H960 H 0.8744 0.38196 0.52538 0.0
H961 H 0.83283 0.4501 0.51772 0.0
H962 H 0.87802 0.48247 0.52333 0.0
H963 H 0.9296 0.49128 0.53188 0.0
H964 H 0.96975 0.42245 0.54171 0.0
H965 H 0.92477 0.39039 0.53348 0.0
C966 C 0.8751 0.40387 0.5248 0.0
C967 C 0.85025 0.41358 0.52114 0.0
C968 C 0.90094 0.42223 0.5284 0.0
C969 C 0.85166 0.44209 0.52061 0.0
C970 C 0.87748 0.46058 0.52377 0.0
C971 C 0.92838 0.46923 0.53197 0.0
C972 C 0.95283 0.45916 0.53744 0.0
C973 C 0.90229 0.45088 0.52785 0.0
C974 C 0.95113 0.43064 0.53778 0.0
C975 C 0.92545 0.41231 0.53305 0.0
H976 H 0.31764 0.05492 0.22497 0.0
H977 H 0.37241 0.07952 0.30248 0.0
H978 H 0.35603 0.12238 0.30882 0.0
H979 H 0.32735 0.15342 0.29235 0.0
H980 H 0.27245 0.13046 0.21497 0.0
H981 H 0.28755 0.08633 0.20876 0.0
C982 C 0.3259 0.06962 0.24328 0.0
C983 C 0.34632 0.06391 0.26315 0.0
C984 C 0.3164 0.09453 0.24687 0.0
C985 C 0.35674 0.08324 0.28679 0.0
C986 C 0.3474 0.10785 0.29048 0.0
C987 C 0.31855 0.13882 0.27409 0.0
C988 C 0.29887 0.14532 0.2541 0.0
C989 C 0.32741 0.11376 0.27062 0.0
C990 C 0.28768 0.126 0.23067 0.0
C991 C 0.29635 0.10079 0.2271 0.0
H992 H 0.34484 0.08451 0.45035 0.0
H993 H 0.34161 0.10042 0.53945 0.0
H994 H 0.38348 0.08192 0.54904 0.0
H995 H 0.42364 0.06514 0.53209 0.0
H996 H 0.42817 0.0522 0.4432 0.0
H997 H 0.38312 0.0651 0.43348 0.0
C998 C 0.35308 0.08369 0.47189 0.0
C999 C 0.34011 0.09409 0.49412 0.0
C1000 C 0.37747 0.07343 0.47727 0.0
C1001 C 0.3512 0.09278 0.52189 0.0
C1002 C 0.37518 0.08216 0.52741 0.0
C1003 C 0.41426 0.06442 0.51064 0.0
C1004 C 0.42884 0.05737 0.48831 0.0
C1005 C 0.3888 0.07289 0.50529 0.0
C1006 C 0.41707 0.05731 0.46062 0.0
C1007 C 0.39143 0.06485 0.4551 0.0
H1008 H 0.67495 0.59878 0.24533 0.0
H1009 H 0.68789 0.60414 0.33547 0.0
H1010 H 0.72251 0.64752 0.33697 0.0
H1011 H 0.74439 0.68675 0.31243 0.0
H1012 H 0.72908 0.68123 0.22217 0.0
H1013 H 0.70067 0.63485 0.2207 0.0
C1014 C 0.68592 0.60921 0.2652 0.0
C1015 C 0.67921 0.59857 0.29022 0.0
C1016 C 0.70524 0.63415 0.2658 0.0
C1017 C 0.69312 0.61208 0.31597 0.0
C1018 C 0.71272 0.63689 0.31679 0.0
C1019 C 0.73538 0.67502 0.29247 0.0
C1020 C 0.73856 0.68736 0.26745 0.0
C1021 C 0.71834 0.64855 0.29184 0.0
C1022 C 0.72663 0.67217 0.24169 0.0
C1023 C 0.71034 0.64571 0.24083 0.0
H1024 H 0.84194 0.45024 0.78238 0.0
H1025 H 0.91781 0.41995 0.79705 0.0
H1026 H 0.89148 0.37271 0.79032 0.0
H1027 H 0.8477 0.3396 0.77712 0.0
H1028 H 0.77099 0.3681 0.76421 0.0
H1029 H 0.79677 0.41634 0.77352 0.0
C1030 C 0.85264 0.4333 0.78435 0.0
C1031 C 0.8819 0.43878 0.78982 0.0
C1032 C 0.83728 0.40583 0.78056 0.0
C1033 C 0.89538 0.41653 0.79261 0.0
C1034 C 0.88036 0.38937 0.78871 0.0
C1035 C 0.83663 0.35641 0.77644 0.0
C1036 C 0.80768 0.35053 0.76957 0.0
C1037 C 0.85145 0.38378 0.78212 0.0
C1038 C 0.79339 0.37232 0.76937 0.0
C1039 C 0.80812 0.39982 0.7746 0.0
H1040 H 0.02802 0.86678 0.13666 0.0
H1041 H 0.04341 0.82834 0.05745 0.0
H1042 H 0.04169 0.87087 0.03595 0.0
H1043 H 0.04154 0.92049 0.04136 0.0
H1044 H 0.03165 0.95995 0.12219 0.0
H1045 H 0.02518 0.91555 0.14137 0.0
C1046 C 0.03037 0.86758 0.11455 0.0
C1047 C 0.03588 0.84466 0.09862 0.0
C1048 C 0.03064 0.89238 0.10274 0.0
C1049 C 0.03927 0.84592 0.07009 0.0
C1050 C 0.03838 0.8702 0.05783 0.0
C1051 C 0.03747 0.91918 0.06301 0.0
C1052 C 0.03709 0.94327 0.08039 0.0
C1053 C 0.03497 0.89381 0.0742 0.0
C1054 C 0.03217 0.94157 0.1085 0.0
C1055 C 0.02848 0.91624 0.11948 0.0
H1056 H 0.92023 0.27626 0.85548 0.0
H1057 H 0.90958 0.19437 0.8127 0.0
H1058 H 0.86524 0.19922 0.78743 0.0
H1059 H 0.82733 0.22545 0.78194 0.0
H1060 H 0.83933 0.30714 0.82639 0.0
H1061 H 0.88553 0.30392 0.84639 0.0
C1062 C 0.90833 0.25969 0.84023 0.0
C1063 C 0.91769 0.23503 0.83584 0.0
C1064 C 0.88312 0.2626 0.82631 0.0
C1065 C 0.90248 0.21355 0.81618 0.0
C1066 C 0.8772 0.21632 0.80193 0.0
C1067 C 0.84037 0.24269 0.79551 0.0
C1068 C 0.82986 0.26634 0.803 0.0
C1069 C 0.86695 0.24054 0.80739 0.0
C1070 C 0.84685 0.28857 0.82066 0.0
C1071 C 0.87326 0.28677 0.83212 0.0
H1072 H 0.50765 0.20051 0.62809 0.0
H1073 H 0.56961 0.22733 0.57309 0.0
H1074 H 0.56319 0.18022 0.55079 0.0
H1075 H 0.54029 0.13158 0.54686 0.0
H1076 H 0.47836 0.1042 0.60161 0.0
H1077 H 0.48463 0.15143 0.62414 0.0
C1078 C 0.51968 0.19607 0.61117 0.0
C1079 C 0.53906 0.21744 0.60229 0.0
C1080 C 0.51602 0.16885 0.59847 0.0
C1081 C 0.55457 0.21129 0.5804 0.0
C1082 C 0.55094 0.18435 0.56761 0.0
C1083 C 0.52819 0.13588 0.56377 0.0
C1084 C 0.50894 0.11442 0.57256 0.0
C1085 C 0.53181 0.16299 0.57652 0.0
C1086 C 0.49339 0.12037 0.59448 0.0
C1087 C 0.49691 0.14737 0.60733 0.0
H1088 H 0.56106 0.72726 0.3128 0.0
H1089 H 0.5738 0.81498 0.30657 0.0
H1090 H 0.61511 0.81318 0.28279 0.0
H1091 H 0.6508 0.78781 0.26948 0.0
H1092 H 0.6385 0.70038 0.27742 0.0
H1093 H 0.59369 0.70097 0.29453 0.0
C1094 C 0.57262 0.74595 0.30589 0.0
C1095 C 0.56461 0.7713 0.31189 0.0
C1096 C 0.59659 0.74487 0.29273 0.0
C1097 C 0.57961 0.79522 0.30243 0.0
C1098 C 0.60332 0.79423 0.28892 0.0
C1099 C 0.63807 0.76878 0.27442 0.0
C1100 C 0.64819 0.74418 0.27257 0.0
C1101 C 0.6125 0.76934 0.28481 0.0
C1102 C 0.63137 0.71968 0.27895 0.0
C1103 C 0.60574 0.71999 0.28881 0.0
H1104 H 0.01537 0.19213 0.51327 0.0
H1105 H 0.06814 0.20079 0.44659 0.0
H1106 H 0.07996 0.15621 0.45347 0.0
H1107 H 0.07213 0.11325 0.47549 0.0
H1108 H 0.01732 0.10327 0.54032 0.0
H1109 H 0.00975 0.15015 0.5373 0.0
C1110 C 0.02975 0.18446 0.50048 0.0
C1111 C 0.0407 0.19969 0.47931 0.0
C1112 C 0.03597 0.15854 0.50411 0.0
C1113 C 0.05925 0.1894 0.4629 0.0
C1114 C 0.06601 0.1639 0.4668 0.0
C1115 C 0.05878 0.12141 0.48923 0.0
C1116 C 0.04513 0.10471 0.50796 0.0
C1117 C 0.054 0.14805 0.4869 0.0
C1118 C 0.02794 0.11564 0.52561 0.0
C1119 C 0.02356 0.14242 0.52385 0.0
H1120 H 0.60002 0.27364 0.15717 0.0
H1121 H 0.58385 0.22343 0.22489 0.0
H1122 H 0.6335 0.23388 0.24191 0.0
H1123 H 0.68147 0.25772 0.23782 0.0
H1124 H 0.6974 0.30702 0.1693 0.0
H1125 H 0.64795 0.29613 0.15217 0.0
C1126 C 0.60731 0.26512 0.17578 0.0
C1127 C 0.58821 0.24798 0.18988 0.0
C1128 C 0.6359 0.27081 0.18515 0.0
C1129 C 0.5981 0.23676 0.21369 0.0
C1130 C 0.6265 0.24267 0.2234 0.0
C1131 C 0.67418 0.26586 0.21898 0.0
C1132 C 0.69319 0.28321 0.20492 0.0
C1133 C 0.6456 0.25964 0.20927 0.0
C1134 C 0.6833 0.29362 0.18057 0.0
C1135 C 0.65497 0.2875 0.1708 0.0
H1136 H 0.55178 0.8542 0.02744 0.0
H1137 H 0.55548 0.85678 0.93846 0.0
H1138 H 0.55604 0.90623 0.94383 0.0
H1139 H 0.5482 0.9466 0.97254 0.0
H1140 H 0.54597 0.94493 0.06171 0.0
H1141 H 0.55202 0.89699 0.05758 0.0
C1142 C 0.55336 0.86575 0.00935 0.0
C1143 C 0.5531 0.85185 0.98254 0.0
C1144 C 0.5534 0.89409 0.01255 0.0
C1145 C 0.55559 0.86703 0.95931 0.0
C1146 C 0.55563 0.89524 0.96231 0.0
C1147 C 0.54957 0.93589 0.99114 0.0
C1148 C 0.54624 0.94894 0.0173 0.0
C1149 C 0.55337 0.90865 0.98862 0.0
C1150 C 0.54836 0.93511 0.04133 0.0
C1151 C 0.55174 0.90775 0.03895 0.0
H1152 H 0.93142 0.72958 0.72716 0.0
H1153 H 0.92147 0.77212 0.65358 0.0
H1154 H 0.87875 0.7835 0.66814 0.0
H1155 H 0.84122 0.77607 0.6982 0.0
H1156 H 0.85022 0.73263 0.77118 0.0
H1157 H 0.89664 0.72764 0.76084 0.0
C1158 C 0.9201 0.74163 0.71447 0.0
C1159 C 0.9294 0.74949 0.689 0.0
C1160 C 0.89536 0.74798 0.72287 0.0
C1161 C 0.91469 0.76551 0.6731 0.0
C1162 C 0.8902 0.77203 0.6814 0.0
C1163 C 0.8536 0.76605 0.71222 0.0
C1164 C 0.84213 0.75442 0.73518 0.0
C1165 C 0.87991 0.76262 0.70574 0.0
C1166 C 0.85853 0.74179 0.75335 0.0
C1167 C 0.88498 0.73865 0.74726 0.0
H1168 H 0.10444 0.00358 0.86905 0.0
H1169 H 0.02092 0.98843 0.82686 0.0
H1170 H 0.00185 0.98052 0.87114 0.0
H1171 H 0.0089 0.98448 0.92249 0.0
H1172 H 0.09243 0.00393 0.96533 0.0
H1173 H 0.11149 0.00339 0.92036 0.0
C1174 C 0.08211 -0.00216 0.86955 0.0
C1175 C 0.06406 0.99667 0.84491 0.0
C1176 C 0.07128 0.99456 0.8953 0.0
C1177 C 0.03515 0.98958 0.84572 0.0
C1178 C 0.02425 0.98517 0.87101 0.0
C1179 C 0.03125 0.9881 0.92199 0.0
C1180 C 0.04919 0.99456 0.94718 0.0
C1181 C 0.0421 0.98865 0.89608 0.0
C1182 C 0.07815 -0.00075 0.94618 0.0
C1183 C 0.08909 -0.00106 0.92048 0.0
H1184 H 0.76751 0.29165 0.58253 0.0
H1185 H 0.72333 0.35825 0.59139 0.0
H1186 H 0.71018 0.34424 0.63648 0.0
H1187 H 0.71528 0.31605 0.67517 0.0
H1188 H 0.7616 0.25109 0.66699 0.0
H1189 H 0.76956 0.26134 0.61943 0.0
C1190 C 0.75481 0.30303 0.59416 0.0
C1191 C 0.74675 0.3262 0.58382 0.0
C1192 C 0.74779 0.2952 0.62016 0.0
C1193 C 0.73002 0.34047 0.59902 0.0
C1194 C 0.72252 0.3325 0.6248 0.0
C1195 C 0.72677 0.30385 0.66284 0.0
C1196 C 0.73814 0.28308 0.67466 0.0
C1197 C 0.73188 0.31032 0.63584 0.0
C1198 C 0.75287 0.26737 0.65842 0.0
C1199 C 0.75748 0.27326 0.63128 0.0
H1200 H 0.5023 0.01349 0.3374 0.0
H1201 H 0.43318 0.04606 0.36458 0.0
H1202 H 0.46077 0.06506 0.40954 0.0
H1203 H 0.50073 0.06396 0.44364 0.0
H1204 H 0.56875 0.02938 0.41671 0.0
H1205 H 0.54559 0.02015 0.36883 0.0
C1206 C 0.49337 0.02504 0.35306 0.0
C1207 C 0.46553 0.02767 0.34816 0.0
C1208 C 0.50902 0.03526 0.37892 0.0
C1209 C 0.45446 0.04341 0.36813 0.0
C1210 C 0.47013 0.05409 0.39386 0.0
C1211 C 0.51073 0.05493 0.42723 0.0
C1212 C 0.53595 0.04658 0.43394 0.0
C1213 C 0.49689 0.04889 0.39994 0.0
C1214 C 0.54914 0.03568 0.41224 0.0
C1215 C 0.53579 0.03016 0.38487 0.0
H1216 H 0.79081 0.67614 0.09577 0.0
H1217 H 0.727 0.72336 0.08246 0.0
H1218 H 0.73696 0.74413 0.13106 0.0
H1219 H 0.76221 0.74743 0.17812 0.0
H1220 H 0.82495 0.69912 0.19198 0.0
H1221 H 0.81706 0.68048 0.14261 0.0
C1222 C 0.77927 0.69115 0.10344 0.0
C1223 C 0.75814 0.69805 0.08545 0.0
C1224 C 0.7848 0.70281 0.13165 0.0
C1225 C 0.74328 0.71748 0.09584 0.0
C1226 C 0.74895 0.72943 0.12367 0.0
C1227 C 0.77432 0.73301 0.17028 0.0
C1228 C 0.79405 0.72465 0.18876 0.0
C1229 C 0.76943 0.72202 0.14188 0.0
C1230 C 0.80948 0.70582 0.17826 0.0
C1231 C 0.80501 0.69512 0.14999 0.0
H1232 H 0.1141 0.98708 0.6881 0.0
H1233 H 0.03141 0.00218 0.69331 0.0
H1234 H 0.02037 0.99132 0.6427 0.0
H1235 H 0.03471 0.97982 0.59671 0.0
H1236 H 0.11723 0.96471 0.59079 0.0
H1237 H 0.12783 0.97344 0.64182 0.0
C1238 C 0.09355 0.98757 0.67818 0.0
C1239 C 0.07368 0.99554 0.69445 0.0
C1240 C 0.08739 0.98169 0.64889 0.0
C1241 C 0.04718 0.99628 0.68126 0.0
C1242 C 0.04083 0.99015 0.65229 0.0
C1243 C 0.05504 0.97851 0.60657 0.0
C1244 C 0.07521 0.97187 0.59 0.0
C1245 C 0.06092 0.98334 0.63585 0.0
C1246 C 0.10134 0.96989 0.6031 0.0
C1247 C 0.10742 0.97483 0.63229 0.0
H1248 H 0.73992 0.28524 0.43612 0.0
H1249 H 0.73832 0.36992 0.42372 0.0
H1250 H 0.73519 0.35848 0.37292 0.0
H1251 H 0.74274 0.32673 0.33383 0.0
H1252 H 0.74483 0.24211 0.34619 0.0
H1253 H 0.73781 0.25116 0.39543 0.0
C1254 C 0.73813 0.30099 0.4222 0.0
C1255 C 0.74006 0.32847 0.43349 0.0
C1256 C 0.73701 0.2944 0.39321 0.0
C1257 C 0.7371 0.34865 0.41542 0.0
C1258 C 0.73561 0.34218 0.38643 0.0
C1259 C 0.741 0.31011 0.34713 0.0
C1260 C 0.74495 0.284 0.33669 0.0
C1261 C 0.73712 0.31549 0.37532 0.0
C1262 C 0.74217 0.26247 0.35392 0.0
C1263 C 0.73825 0.26766 0.38207 0.0
H1264 H 0.43628 0.03435 0.20545 0.0
H1265 H 0.45089 0.9512 0.19813 0.0
H1266 H 0.47626 0.96066 0.15795 0.0
H1267 H 0.49502 0.99245 0.12559 0.0
H1268 H 0.48013 0.07543 0.13155 0.0
H1269 H 0.4545 0.06623 0.17198 0.0
C1270 C 0.44473 0.01823 0.19483 0.0
C1271 C 0.44174 0.99215 0.20479 0.0
C1272 C 0.45963 0.02388 0.17187 0.0
C1273 C 0.45296 0.97149 0.19093 0.0
C1274 C 0.46759 0.97689 0.16803 0.0
C1275 C 0.48649 0.00868 0.13591 0.0
C1276 C 0.48971 0.03466 0.12582 0.0
C1277 C 0.47135 0.00308 0.15859 0.0
C1278 C 0.4781 0.0553 0.13912 0.0
C1279 C 0.46331 0.05001 0.16209 0.0
H1280 H 0.75357 0.66123 0.9097 0.0
H1281 H 0.76142 0.74081 0.95672 0.0
H1282 H 0.76595 0.76346 0.9137 0.0
H1283 H 0.76303 0.76005 0.86194 0.0
H1284 H 0.74899 0.67933 0.81502 0.0
H1285 H 0.75178 0.65792 0.85831 0.0
C1286 C 0.75696 0.68357 0.91048 0.0
C1287 C 0.75758 0.69944 0.9362 0.0
C1288 C 0.7581 0.69626 0.8855 0.0
C1289 C 0.76117 0.72829 0.93704 0.0
C1290 C 0.76357 0.7412 0.91245 0.0
C1291 C 0.76091 0.73784 0.86122 0.0
C1292 C 0.75615 0.72149 0.83512 0.0
C1293 C 0.76132 0.72533 0.88641 0.0
C1294 C 0.75303 0.69261 0.83468 0.0
C1295 C 0.75448 0.68021 0.85951 0.0
H1296 H 0.83765 0.07455 0.98385 0.0
H1297 H 0.84847 0.08816 0.07451 0.0
H1298 H 0.88781 0.06542 0.07601 0.0
H1299 H 0.92196 0.04626 0.0519 0.0
H1300 H 0.91286 0.03278 0.96151 0.0
H1301 H 0.86965 0.05045 0.95954 0.0
C1302 C 0.84838 0.07219 0.00392 0.0
C1303 C 0.84037 0.08348 0.02901 0.0
C1304 C 0.87133 0.05926 0.00468 0.0
C1305 C 0.85438 0.08004 0.05486 0.0
C1306 C 0.87691 0.06702 0.05578 0.0
C1307 C 0.91034 0.04689 0.03174 0.0
C1308 C 0.92064 0.03866 0.00688 0.0
C1309 C 0.886 0.05731 0.03085 0.0
C1310 C 0.90524 0.03907 0.98092 0.0
C1311 C 0.8807 0.04934 0.97982 0.0
H1312 H 0.34362 0.43107 0.01362 0.0
H1313 H 0.3685 0.43208 0.1019 0.0
H1314 H 0.41294 0.46312 0.09777 0.0
H1315 H 0.44762 0.48271 0.06734 0.0
H1316 H 0.42473 0.47508 0.9779 0.0
H1317 H 0.37671 0.45413 0.98391 0.0
C1318 C 0.35839 0.43908 0.03209 0.0
C1319 C 0.35277 0.42994 0.05812 0.0
C1320 C 0.38455 0.45519 0.02908 0.0
C1321 C 0.37232 0.43943 0.0818 0.0
C1322 C 0.39782 0.45683 0.07933 0.0
C1323 C 0.43187 0.47709 0.04931 0.0
C1324 C 0.43954 0.48035 0.02222 0.0
C1325 C 0.40465 0.4638 0.05284 0.0
C1326 C 0.4192 0.4726 -0.00109 0.0
C1327 C 0.3918 0.46062 0.00235 0.0
H1328 H 0.31623 0.57331 0.77829 0.0
H1329 H 0.379 0.58928 0.72166 0.0
H1330 H 0.36868 0.6346 0.71653 0.0
H1331 H 0.34502 0.67146 0.73126 0.0
H1332 H 0.28178 0.65609 0.78723 0.0
H1333 H 0.2888 0.6088 0.7891 0.0
C1334 C 0.32744 0.58658 0.7646 0.0
C1335 C 0.34867 0.57791 0.75074 0.0
C1336 C 0.3214 0.61284 0.76166 0.0
C1337 C 0.36274 0.59535 0.73283 0.0
C1338 C 0.35689 0.62138 0.72987 0.0
C1339 C 0.33252 0.65764 0.7436 0.0
C1340 C 0.31313 0.66737 0.75931 0.0
C1341 C 0.33676 0.63059 0.74468 0.0
C1342 C 0.29683 0.64912 0.7749 0.0
C1343 C 0.30098 0.62212 0.77614 0.0
H1344 H 0.19087 0.62428 0.57304 0.0
H1345 H 0.23643 0.58848 0.51246 0.0
H1346 H 0.19371 0.55676 0.49126 0.0
H1347 H 0.1425 0.54538 0.48482 0.0
H1348 H 0.0969 0.58039 0.54572 0.0
H1349 H 0.14059 0.60641 0.57197 0.0
C1350 C 0.19155 0.609 0.55568 0.0
C1351 C 0.21656 0.60913 0.54389 0.0
C1352 C 0.16685 0.59122 0.54327 0.0
C1353 C 0.21736 0.58892 0.5218 0.0
C1354 C 0.19289 0.57099 0.50944 0.0
C1355 C 0.14227 0.55845 0.50406 0.0
C1356 C 0.11678 0.56166 0.51308 0.0
C1357 C 0.16737 0.57301 0.51911 0.0
C1358 C 0.11645 0.57796 0.53834 0.0
C1359 C 0.14135 0.59281 0.55329 0.0
H1360 H 0.67739 0.92942 0.78339 0.0
H1361 H 0.71758 0.95021 0.71 0.0
H1362 H 0.74403 0.91403 0.71536 0.0
H1363 H 0.75326 0.87432 0.73872 0.0
H1364 H 0.71273 0.85301 0.81179 0.0
H1365 H 0.6894 0.89182 0.80896 0.0
C1366 C 0.69206 0.92616 0.76866 0.0
C1367 C 0.69522 0.94237 0.74614 0.0
C1368 C 0.70725 0.90524 0.77183 0.0
C1369 C 0.71456 0.93799 0.72744 0.0
C1370 C 0.72974 0.91728 0.73048 0.0
C1371 C 0.7397 0.8784 0.75434 0.0
C1372 C 0.7347 0.8606 0.77534 0.0
C1373 C 0.72594 0.90049 0.75233 0.0
C1374 C 0.71701 0.86629 0.79537 0.0
C1375 C 0.70349 0.88842 0.79367 0.0
H1376 H 0.71248 0.93145 0.56119 0.0
H1377 H 0.7464 0.96715 0.49014 0.0
H1378 H 0.70936 0.99318 0.48561 0.0
H1379 H 0.66453 0.00231 0.49907 0.0
H1380 H 0.63034 0.96488 0.56912 0.0
H1381 H 0.67033 0.94344 0.57696 0.0
C1382 C 0.712 0.94514 0.54487 0.0
C1383 C 0.73206 0.94704 0.52586 0.0
C1384 C 0.69043 0.95975 0.54213 0.0
C1385 C 0.73113 0.96508 0.50498 0.0
C1386 C 0.70991 0.97999 0.50234 0.0
C1387 C 0.66619 0.98991 0.51636 0.0
C1388 C 0.64443 0.98502 0.53334 0.0
C1389 C 0.68905 0.97701 0.5204 0.0
C1390 C 0.64671 0.96875 0.55557 0.0
C1391 C 0.66955 0.95642 0.56007 0.0
H1392 H 0.38874 0.40308 0.75155 0.0
H1393 H 0.32106 0.44499 0.73593 0.0
H1394 H 0.28746 0.40187 0.73923 0.0
H1395 H 0.27781 0.35228 0.74905 0.0
H1396 H 0.34771 0.31406 0.76857 0.0
H1397 H 0.37976 0.35565 0.76104 0.0
C1398 C 0.36665 0.40298 0.74858 0.0
C1399 C 0.35752 0.42735 0.74342 0.0
C1400 C 0.34775 0.37861 0.7513 0.0
C1401 C 0.32872 0.42655 0.7399 0.0
C1402 C 0.30952 0.40189 0.74185 0.0
C1403 C 0.30004 0.3531 0.75142 0.0
C1404 C 0.31022 0.32987 0.75917 0.0
C1405 C 0.31882 0.37779 0.74793 0.0
C1406 C 0.33914 0.33141 0.7625 0.0
C1407 C 0.35762 0.35528 0.75825 0.0
H1408 H 0.13166 0.5929 0.24195 0.0
H1409 H 0.19993 0.55176 0.23255 0.0
H1410 H 0.23324 0.59597 0.24646 0.0
H1411 H 0.24241 0.64613 0.26452 0.0
H1412 H 0.17246 0.68319 0.28016 0.0
H1413 H 0.14029 0.64084 0.26038 0.0
C1414 C 0.15383 0.59357 0.24243 0.0
C1415 C 0.16336 0.56923 0.23589 0.0
C1416 C 0.17252 0.6184 0.2518 0.0
C1417 C 0.19215 0.57035 0.23733 0.0
C1418 C 0.21112 0.59556 0.24539 0.0
C1419 C 0.22012 0.6448 0.26335 0.0
C1420 C 0.20976 0.66779 0.27342 0.0
C1421 C 0.20151 0.61968 0.25319 0.0
C1422 C 0.1809 0.66583 0.27234 0.0
C1423 C 0.16246 0.64162 0.26106 0.0
H1424 H 0.53151 0.70426 0.47633 0.0
H1425 H 0.53795 0.67704 0.38999 0.0
H1426 H 0.54769 0.63343 0.40369 0.0
H1427 H 0.54562 0.6003 0.43871 0.0
H1428 H 0.5378 0.62701 0.52479 0.0
H1429 H 0.53816 0.67388 0.51285 0.0
C1430 C 0.53555 0.68897 0.4606 0.0
C1431 C 0.53328 0.69349 0.43212 0.0
C1432 C 0.54076 0.66385 0.46857 0.0
C1433 C 0.53924 0.67388 0.41201 0.0
C1434 C 0.5447 0.64889 0.41981 0.0
C1435 C 0.54475 0.6166 0.45498 0.0
C1436 C 0.54108 0.61021 0.48241 0.0
C1437 C 0.54422 0.64322 0.44781 0.0
C1438 C 0.54049 0.63146 0.50348 0.0
C1439 C 0.54039 0.65818 0.49659 0.0
H1440 H 0.58926 0.28067 0.72935 0.0
H1441 H 0.63848 0.34878 0.69472 0.0
H1442 H 0.67842 0.34791 0.72852 0.0
H1443 H 0.7013 0.32244 0.76174 0.0
H1444 H 0.65392 0.25015 0.79099 0.0
H1445 H 0.611 0.25825 0.7662 0.0
C1446 C 0.6085 0.29581 0.72974 0.0
C1447 C 0.6111 0.3146 0.70948 0.0
C1448 C 0.63169 0.29425 0.74824 0.0
C1449 C 0.63616 0.33397 0.71001 0.0
C1450 C 0.65898 0.33344 0.72926 0.0
C1451 C 0.68134 0.30909 0.76331 0.0
C1452 C 0.68034 0.28597 0.77815 0.0
C1453 C 0.6573 0.31291 0.7476 0.0
C1454 C 0.65478 0.26828 0.77987 0.0
C1455 C 0.63042 0.27277 0.76549 0.0
H1456 H 0.98952 0.32386 0.95037 0.0
H1457 H 0.04861 0.3268 0.88944 0.0
H1458 H 0.06278 0.37694 0.90071 0.0
H1459 H 0.05784 0.41986 0.92748 0.0
H1460 H 0.99827 0.41637 0.98799 0.0
H1461 H 0.98456 0.36635 0.97689 0.0
C1462 C 0.00566 0.33537 0.93965 0.0
C1463 C 0.01805 0.32158 0.91916 0.0
C1464 C 0.01338 0.36409 0.94591 0.0
C1465 C 0.0388 0.3369 0.90538 0.0
C1466 C 0.04682 0.36557 0.91172 0.0
C1467 C 0.04172 0.40818 0.9381 0.0
C1468 C 0.02904 0.42182 0.95847 0.0
C1469 C 0.03408 0.37938 0.9318 0.0
C1470 C 0.00832 0.40638 0.97218 0.0
C1471 C 1.00054 0.37777 0.96593 0.0
H1472 H 0.96135 0.74757 0.24061 0.0
H1473 H 0.96701 0.82099 0.19777 0.0
H1474 H 0.92572 0.83067 0.21709 0.0
H1475 H 0.88597 0.81647 0.24269 0.0
H1476 H 0.8784 0.7422 0.28417 0.0
H1477 H 0.92278 0.73506 0.26936 0.0
C1478 C 0.9537 0.76582 0.23573 0.0
C1479 C 0.96713 0.78332 0.21748 0.0
C1480 C 0.9296 0.77115 0.24667 0.0
C1481 C 0.95697 0.80696 0.21148 0.0
C1482 C 0.93335 0.81258 0.22257 0.0
C1483 C 0.89413 0.79888 0.24886 0.0
C1484 C 0.87872 0.77977 0.26429 0.0
C1485 C 0.91919 0.79453 0.23968 0.0
C1486 C 0.88979 0.75721 0.27222 0.0
C1487 C 0.91509 0.75302 0.26361 0.0
H1488 H 0.45794 0.29632 0.05773 0.0
H1489 H 0.54422 0.32205 0.09238 0.0
H1490 H 0.54983 0.36096 0.0644 0.0
H1491 H 0.52955 0.38949 0.03299 0.0
H1492 H 0.44259 0.36583 0.0005 0.0
H1493 H 0.43811 0.32389 0.02426 0.0
C1494 C 0.47802 0.31032 0.059 0.0
C1495 C 0.50056 0.3064 0.07729 0.0
C1496 C 0.48102 0.33293 0.04316 0.0
C1497 C 0.52646 0.32472 0.07868 0.0
C1498 C 0.52972 0.34695 0.06262 0.0
C1499 C 0.50971 0.37495 0.03064 0.0
C1500 C 0.48642 0.38082 0.01504 0.0
C1501 C 0.50706 0.35148 0.04514 0.0
C1502 C 0.46084 0.3618 0.01242 0.0
C1503 C 0.45822 0.33791 0.02613 0.0
H1504 H 0.95122 0.27441 0.37158 0.0
H1505 H 0.91439 0.23684 0.44035 0.0
H1506 H 0.86796 0.23371 0.41633 0.0
H1507 H 0.83773 0.2415 0.37605 0.0
H1508 H 0.87368 0.27996 0.30733 0.0
H1509 H 0.92044 0.28332 0.33127 0.0
C1510 C 0.93301 0.26532 0.38112 0.0
C1511 C 0.93626 0.25569 0.40762 0.0
C1512 C 0.9062 0.26406 0.3674 0.0
C1513 C 0.91247 0.24438 0.41996 0.0
C1514 C 0.88588 0.24263 0.40629 0.0
C1515 C 0.85576 0.25079 0.36634 0.0
C1516 C 0.85217 0.26043 0.33994 0.0
C1517 C 0.8825 0.2525 0.38009 0.0
C1518 C 0.87582 0.27248 0.32773 0.0
C1519 C 0.90259 0.27425 0.34132 0.0
H1520 H 0.00588 0.67919 0.56723 0.0
H1521 H 0.94669 0.62714 0.61024 0.0
H1522 H 0.94592 0.58779 0.57549 0.0
H1523 H 0.96766 0.56687 0.5376 0.0
H1524 H 0.03451 0.61687 0.50224 0.0
H1525 H 0.02563 0.6587 0.52757 0.0
C1526 C 0.99234 0.65937 0.56855 0.0
C1527 C 0.97638 0.65592 0.59117 0.0
C1528 C 0.99327 0.63657 0.54951 0.0
C1529 C 0.95923 0.63012 0.59302 0.0
C1530 C 0.95876 0.60769 0.57316 0.0
C1531 C 0.97982 0.58707 0.53513 0.0
C1532 C 0.00168 0.58904 0.51832 0.0
C1533 C 0.97648 0.61045 0.55197 0.0
C1534 C 0.0173 0.6151 0.51484 0.0
C1535 C 0.01253 0.63888 0.52971 0.0
H1536 H 0.59208 0.74526 0.87452 0.0
H1537 H 0.56291 0.81443 0.84302 0.0
H1538 H 0.59474 0.81574 0.80711 0.0
H1539 H 0.63342 0.79975 0.7871 0.0
H1540 H 0.66317 0.73103 0.81898 0.0
H1541 H 0.62821 0.72679 0.85188 0.0
C1542 C 0.59253 0.76051 0.85969 0.0
C1543 C 0.57532 0.77993 0.86174 0.0
C1544 C 0.61098 0.76123 0.83909 0.0
C1545 C 0.576 0.79933 0.8421 0.0
C1546 C 0.59423 0.80012 0.82153 0.0
C1547 C 0.63202 0.78354 0.80092 0.0
C1548 C 0.65111 0.7659 0.80066 0.0
C1549 C 0.61217 0.78151 0.82015 0.0
C1550 C 0.64885 0.74498 0.81872 0.0
C1551 C 0.62893 0.74262 0.83769 0.0
H1552 H 0.49976 0.52204 0.69738 0.0
H1553 H 0.41867 0.53118 0.66252 0.0
H1554 H 0.43687 0.54165 0.61826 0.0
H1555 H 0.47452 0.54314 0.58815 0.0
H1556 H 0.55615 0.53593 0.62348 0.0
H1557 H 0.53911 0.5301 0.66913 0.0
C1558 C 0.48616 0.52661 0.68017 0.0
C1559 C 0.45781 0.52537 0.68298 0.0
C1560 C 0.49682 0.53281 0.65492 0.0
C1561 C 0.44052 0.53188 0.66078 0.0
C1562 C 0.45089 0.53775 0.63546 0.0
C1563 C 0.48871 0.54074 0.60596 0.0
C1564 C 0.51643 0.53944 0.60233 0.0
C1565 C 0.47881 0.53753 0.63209 0.0
C1566 C 0.53469 0.53682 0.62568 0.0
C1567 C 0.52491 0.53332 0.65173 0.0
H1568 H 0.74047 0.19915 0.97848 0.0
H1569 H 0.81627 0.16954 0.97038 0.0
H1570 H 0.82185 0.19172 0.92717 0.0
H1571 H 0.80578 0.22084 0.89295 0.0
H1572 H 0.73032 0.25071 0.90264 0.0
H1573 H 0.72439 0.22739 0.94474 0.0
C1574 C 0.75821 0.19734 0.96728 0.0
C1575 C 0.77803 0.18286 0.97767 0.0
C1576 C 0.76155 0.21052 0.9431 0.0
C1577 C 0.80073 0.18059 0.96275 0.0
C1578 C 0.80401 0.19341 0.93821 0.0
C1579 C 0.78817 0.22244 0.90442 0.0
C1580 C 0.76858 0.23758 0.89483 0.0
C1581 C 0.78474 0.20877 0.92847 0.0
C1582 C 0.74571 0.23923 0.90967 0.0
C1583 C 0.74223 0.22583 0.93364 0.0
H1584 H 0.10962 0.46934 0.14286 0.0
H1585 H 0.03403 0.4265 0.17035 0.0
H1586 H 0.00846 0.42797 0.1247 0.0
H1587 H 0.00531 0.45497 0.08439 0.0
H1588 H 0.08019 0.50606 0.06292 0.0
H1589 H 0.10819 0.48803 0.09796 0.0
C1590 C 0.08793 0.45884 0.13812 0.0
C1591 C 0.07349 0.44839 0.1598 0.0
C1592 C 0.07292 0.46257 0.11308 0.0
C1593 C 0.04545 0.4348 0.15378 0.0
C1594 C 0.03069 0.43632 0.12793 0.0
C1595 C 0.0278 0.46154 0.08697 0.0
C1596 C 0.04061 0.48179 0.07107 0.0
C1597 C 0.04374 0.45241 0.10854 0.0
C1598 C 0.06979 0.49022 0.07461 0.0
C1599 C 0.08589 0.48005 0.09484 0.0
H1600 H 0.77777 0.79932 0.45202 0.0
H1601 H 0.73275 0.86552 0.45559 0.0
H1602 H 0.71822 0.8556 0.40508 0.0
H1603 H 0.72013 0.82949 0.35961 0.0
H1604 H 0.76616 0.76405 0.35636 0.0
H1605 H 0.77851 0.77245 0.40713 0.0
C1606 C 0.76458 0.81149 0.44189 0.0
C1607 C 0.75642 0.83319 0.45768 0.0
C1608 C 0.75666 0.80596 0.41283 0.0
C1609 C 0.73934 0.84869 0.44403 0.0
C1610 C 0.7311 0.84309 0.41511 0.0
C1611 C 0.7328 0.81699 0.36999 0.0
C1612 C 0.74231 0.79624 0.3541 0.0
C1613 C 0.73996 0.82201 0.39924 0.0
C1614 C 0.75864 0.78022 0.36798 0.0
C1615 C 0.7657 0.78499 0.39705 0.0
H1616 H 0.48315 0.50709 0.8352 0.0
H1617 H 0.41446 0.54861 0.84009 0.0
H1618 H 0.42652 0.55871 0.89107 0.0
H1619 H 0.45486 0.55284 0.93453 0.0
H1620 H 0.52242 0.5098 0.92844 0.0
H1621 H 0.51234 0.50315 0.87754 0.0
C1622 C 0.47083 0.51853 0.84728 0.0
C1623 C 0.44777 0.52688 0.83381 0.0
C1624 C 0.47754 0.52378 0.87643 0.0
C1625 C 0.4323 0.54192 0.8499 0.0
C1626 C 0.43911 0.54757 0.87906 0.0
C1627 C 0.46746 0.54214 0.92204 0.0
C1628 C 0.48924 0.53164 0.93536 0.0
C1629 C 0.4614 0.53813 0.89262 0.0
C1630 C 0.50541 0.51791 0.91884 0.0
C1631 C 0.4997 0.51412 0.88969 0.0
H1632 H 0.82068 0.25073 0.10671 0.0
H1633 H 0.8365 0.1768 0.14015 0.0
H1634 H 0.8426 0.20031 0.18773 0.0
H1635 H 0.82912 0.236 0.21845 0.0
H1636 H 0.80725 0.30746 0.18503 0.0
H1637 H 0.81808 0.29113 0.13869 0.0
C1638 C 0.82641 0.24008 0.12439 0.0
C1639 C 0.82696 0.21178 0.12017 0.0
C1640 C 0.82802 0.25313 0.15163 0.0
C1641 C 0.83538 0.19843 0.14296 0.0
C1642 C 0.83853 0.21178 0.17019 0.0
C1643 C 0.82755 0.24838 0.20122 0.0
C1644 C 0.81661 0.27232 0.20474 0.0
C1645 C 0.8326 0.23822 0.17466 0.0
C1646 C 0.81531 0.28873 0.1826 0.0
C1647 C 0.82131 0.27927 0.15611 0.0
H1648 H 0.09489 0.47421 0.32171 0.0
H1649 H 0.0334 0.5201 0.29425 0.0
H1650 H 0.01954 0.524 0.34144 0.0
H1651 H 0.0272 0.51734 0.39111 0.0
H1652 H 0.08907 0.47196 0.41866 0.0
H1653 H 0.10038 0.46489 0.37073 0.0
C1654 C 0.07823 0.48479 0.32595 0.0
C1655 C 0.06541 0.49706 0.30459 0.0
C1656 C 0.07059 0.48729 0.35318 0.0
C1657 C 0.04377 0.5106 0.31039 0.0
C1658 C 0.03585 0.51292 0.33738 0.0
C1659 C 0.04305 0.50579 0.3866 0.0
C1660 C 0.05749 0.4955 0.40841 0.0
C1661 C 0.04954 0.50186 0.35904 0.0
C1662 C 0.07779 0.48032 0.40224 0.0
C1663 C 0.08428 0.47623 0.37485 0.0
H1664 H 0.76267 0.78397 0.59483 0.0
H1665 H 0.75264 0.86418 0.62902 0.0
H1666 H 0.73824 0.84495 0.67185 0.0
H1667 H 0.73241 0.80598 0.70095 0.0
H1668 H 0.74245 0.72593 0.66569 0.0
H1669 H 0.75228 0.7444 0.62173 0.0
C1670 C 0.75717 0.79726 0.61157 0.0
C1671 C 0.75914 0.82557 0.60891 0.0
C1672 C 0.74883 0.78605 0.63595 0.0
C1673 C 0.75141 0.84235 0.63058 0.0
C1674 C 0.74324 0.83136 0.65509 0.0
C1675 C 0.73638 0.79244 0.68357 0.0
C1676 C 0.73709 0.76462 0.68699 0.0
C1677 C 0.74241 0.80331 0.65823 0.0
C1678 C 0.74191 0.74742 0.66393 0.0
C1679 C 0.74772 0.75801 0.63873 0.0
H1680 H 0.71077 0.44183 0.54504 0.0
H1681 H 0.69592 0.4325 0.45448 0.0
H1682 H 0.65559 0.45371 0.45672 0.0
H1683 H 0.62263 0.47165 0.48415 0.0
H1684 H 0.63769 0.48329 0.57451 0.0
H1685 H 0.68004 0.4645 0.57267 0.0
C1686 C 0.69885 0.4447 0.52581 0.0
C1687 C 0.70616 0.4353 0.49963 0.0
C1688 C 0.67568 0.45711 0.52723 0.0
C1689 C 0.69075 0.43948 0.4749 0.0
C1690 C 0.66758 0.4515 0.47614 0.0
C1691 C 0.63529 0.47023 0.50345 0.0
C1692 C 0.62698 0.47842 0.52945 0.0
C1693 C 0.65957 0.45984 0.50215 0.0
C1694 C 0.64375 0.477 0.55428 0.0
C1695 C 0.66784 0.4662 0.5532 0.0
H1696 H 0.2071 0.06692 0.5092 0.0
H1697 H 0.16854 0.1113 0.44906 0.0
H1698 H 0.12536 0.07662 0.44488 0.0
H1699 H 0.09669 0.03741 0.46302 0.0
H1700 H 0.13321 0.9951 0.5262 0.0
H1701 H 0.17914 0.02463 0.52419 0.0
C1702 C 0.18944 0.06854 0.49468 0.0
C1703 C 0.19091 0.09168 0.47958 0.0
C1704 C 0.16425 0.04894 0.4931 0.0
C1705 C 0.1678 0.09376 0.46106 0.0
C1706 C 0.14309 0.07397 0.45868 0.0
C1707 C 0.11492 0.03435 0.47583 0.0
C1708 C 0.11192 0.01422 0.49457 0.0
C1709 C 0.14079 0.05205 0.4753 0.0
C1710 C 0.13535 0.01037 0.51137 0.0
C1711 C 0.16147 0.02739 0.51037 0.0
H1712 H 0.19111 0.9643 0.76777 0.0
H1713 H 0.16114 0.94646 0.84692 0.0
H1714 H 0.18297 0.90656 0.84708 0.0
H1715 H 0.20747 0.87459 0.82314 0.0
H1716 H 0.2398 0.89305 0.74535 0.0
H1717 H 0.22049 0.93494 0.74636 0.0
C1718 C 0.1896 0.95181 0.78515 0.0
C1719 C 0.17422 0.95821 0.80713 0.0
C1720 C 0.20256 0.92895 0.78532 0.0
C1721 C 0.17278 0.94203 0.8297 0.0
C1722 C 0.18518 0.9191 0.82979 0.0
C1723 C 0.21056 0.888 0.8066 0.0
C1724 C 0.22478 0.8807 0.78409 0.0
C1725 C 0.19965 0.91207 0.80748 0.0
C1726 C 0.22898 0.89835 0.76294 0.0
C1727 C 0.21778 0.92218 0.76343 0.0
H1728 H 0.36709 0.88066 0.0076 0.0
H1729 H 0.32639 0.94968 0.01743 0.0
H1730 H 0.37194 0.98163 0.0259 0.0
H1731 H 0.42362 0.98941 0.03243 0.0
H1732 H 0.46276 0.91914 0.02572 0.0
H1733 H 0.41737 0.88809 0.01365 0.0
C1734 C 0.36803 0.9027 0.01141 0.0
C1735 C 0.34336 0.91277 0.01185 0.0
C1736 C 0.39404 0.92068 0.01672 0.0
C1737 C 0.34509 0.9414 0.01706 0.0
C1738 C 0.37111 0.95965 0.02185 0.0
C1739 C 0.42204 0.96732 0.02794 0.0
C1740 C 0.44629 0.95641 0.02979 0.0
C1741 C 0.39575 0.94947 0.02194 0.0
C1742 C 0.44425 0.92783 0.02444 0.0
C1743 C 0.41837 0.91012 0.01759 0.0
H1744 H 0.84079 0.57256 0.75152 0.0
H1745 H 0.83928 0.5802 0.84141 0.0
H1746 H 0.81259 0.61635 0.83806 0.0
H1747 H 0.79368 0.64879 0.81043 0.0
H1748 H 0.79391 0.64135 0.72057 0.0
H1749 H 0.81676 0.60182 0.72299 0.0
C1750 C 0.83434 0.58193 0.77033 0.0
C1751 C 0.84242 0.57393 0.79674 0.0
C1752 C 0.81888 0.60279 0.76827 0.0
C1753 C 0.83355 0.58602 0.82085 0.0
C1754 C 0.81833 0.60678 0.81898 0.0
C1755 C 0.79843 0.63828 0.79132 0.0
C1756 C 0.7925 0.64809 0.7654 0.0
C1757 C 0.81151 0.61577 0.79293 0.0
C1758 C 0.79831 0.6341 0.74075 0.0
C1759 C 0.81152 0.61166 0.74218 0.0
H1760 H 0.81467 0.55989 0.02942 0.0
H1761 H 0.84648 0.63601 -0.00462 0.0
H1762 H 0.89117 0.62281 0.99262 0.0
H1763 H 0.92158 0.59045 0.00049 0.0
H1764 H 0.89106 0.51438 0.03501 0.0
H1765 H 0.84546 0.5267 0.03671 0.0
C1766 C 0.83136 0.57358 0.02137 0.0
C1767 C 0.82709 0.599 0.01269 0.0
C1768 C 0.85724 0.56586 0.01985 0.0
C1769 C 0.84904 0.61639 0.00227 0.0
C1770 C 0.87468 0.60885 0.00065 0.0
C1771 C 0.90499 0.5764 0.00831 0.0
C1772 C 0.90984 0.5515 0.01764 0.0
C1773 C 0.87904 0.58373 0.00946 0.0
C1774 C 0.88796 0.53366 0.02765 0.0
C1775 C 0.86189 0.54075 0.0287 0.0
H1776 H 0.19082 0.09148 0.80099 0.0
H1777 H 0.11999 0.12089 0.76492 0.0
H1778 H 0.14952 0.16512 0.76067 0.0
H1779 H 0.19497 0.19524 0.76575 0.0
H1780 H 0.26648 0.16917 0.80453 0.0
H1781 H 0.23723 0.12391 0.80905 0.0
C1782 C 0.18193 0.10768 0.7924 0.0
C1783 C 0.15319 0.10272 0.78324 0.0
C1784 C 0.1991 0.13366 0.79039 0.0
C1785 C 0.14194 0.12402 0.7723 0.0
C1786 C 0.15883 0.14941 0.76974 0.0
C1787 C 0.20429 0.17984 0.77544 0.0
C1788 C 0.23289 0.18564 0.78477 0.0
C1789 C 0.18737 0.15438 0.77853 0.0
C1790 C 0.24447 0.16527 0.79718 0.0
C1791 C 0.22775 0.13939 0.79976 0.0
H1792 H 0.32354 0.9319 0.25136 0.0
H1793 H 0.3644 0.90523 0.32403 0.0
H1794 H 0.33251 0.86027 0.31567 0.0
H1795 H 0.29877 0.82636 0.2834 0.0
H1796 H 0.25893 0.85163 0.20931 0.0
H1797 H 0.28443 0.89932 0.22255 0.0
C1798 C 0.32476 0.91653 0.26585 0.0
C1799 C 0.34635 0.92165 0.28811 0.0
C1800 C 0.307 0.89029 0.26026 0.0
C1801 C 0.34799 0.90157 0.30665 0.0
C1802 C 0.32992 0.87582 0.30176 0.0
C1803 C 0.2954 0.84239 0.27034 0.0
C1804 C 0.27754 0.83545 0.24513 0.0
C1805 C 0.31031 0.86955 0.27789 0.0
C1806 C 0.27283 0.85646 0.2287 0.0
C1807 C 0.28745 0.88371 0.23623 0.0
H1808 H 0.5162 0.34507 0.5686 0.0
H1809 H 0.50428 0.36969 0.65395 0.0
H1810 H 0.49859 0.41505 0.64126 0.0
H1811 H 0.50824 0.45026 0.60859 0.0
H1812 H 0.5216 0.42572 0.52358 0.0
H1813 H 0.51473 0.37751 0.53314 0.0
C1814 C 0.51143 0.36011 0.58415 0.0
C1815 C 0.51131 0.35452 0.61223 0.0
C1816 C 0.50886 0.38621 0.57682 0.0
C1817 C 0.50463 0.37374 0.63223 0.0
C1818 C 0.50167 0.39974 0.62503 0.0
C1819 C 0.5088 0.4342 0.59196 0.0
C1820 C 0.51617 0.44145 0.5657 0.0
C1821 C 0.50546 0.40667 0.59781 0.0
C1822 C 0.51624 0.42058 0.54406 0.0
C1823 C 0.51255 0.39306 0.54958 0.0
H1824 H 0.43243 0.72591 0.31468 0.0
H1825 H 0.40286 0.75214 0.39231 0.0
H1826 H 0.3592 0.75557 0.36702 0.0
H1827 H 0.33134 0.75543 0.32357 0.0
H1828 H 0.35496 0.72342 0.24532 0.0
H1829 H 0.39968 0.71872 0.27009 0.0
C1830 C 0.41624 0.73203 0.32597 0.0
C1831 C 0.42114 0.73913 0.35534 0.0
C1832 C 0.39052 0.73346 0.31125 0.0
C1833 C 0.39983 0.74663 0.36978 0.0
C1834 C 0.37484 0.74881 0.35534 0.0
C1835 C 0.34585 0.74682 0.31176 0.0
C1836 C 0.3398 0.73977 0.28264 0.0
C1837 C 0.37031 0.74291 0.32616 0.0
C1838 C 0.35915 0.72897 0.26781 0.0
C1839 C 0.38463 0.72629 0.28198 0.0
H1840 H 0.0559 0.69694 0.09456 0.0
H1841 H 0.98716 0.69673 0.14387 0.0
H1842 H 0.97072 0.64707 0.13004 0.0
H1843 H 0.97568 0.60404 0.10335 0.0
H1844 H 0.04405 0.6052 0.05339 0.0
H1845 H 0.06101 0.65439 0.06839 0.0
C1846 C 0.0373 0.68612 0.10236 0.0
C1847 C 0.02275 0.70054 0.12019 0.0
C1848 C 0.028 0.65778 0.0943 0.0
C1849 C 0.99869 0.68613 0.13003 0.0
C1850 C 0.98933 0.65775 0.12219 0.0
C1851 C 0.99441 0.61502 0.09592 0.0
C1852 C 0.00863 0.60103 0.07732 0.0
C1853 C 0.00382 0.6434 0.1043 0.0
C1854 C 0.03272 0.61554 0.06767 0.0
C1855 C 0.04241 0.64365 0.0762 0.0
H1856 H 0.06682 0.22268 0.81539 0.0
H1857 H 0.06806 0.30807 0.80372 0.0
H1858 H 0.11338 0.31215 0.78593 0.0
H1859 H 0.15543 0.29292 0.77968 0.0
H1860 H 0.15429 0.20847 0.79513 0.0
H1861 H 0.10618 0.20247 0.80508 0.0
C1862 C 0.07676 0.24212 0.80861 0.0
C1863 C 0.06425 0.26513 0.81132 0.0
C1864 C 0.10303 0.24453 0.79921 0.0
C1865 C 0.07733 0.29005 0.80208 0.0
C1866 C 0.10332 0.29244 0.792 0.0
C1867 C 0.14434 0.27311 0.78463 0.0
C1868 C 0.15832 0.25121 0.78682 0.0
C1869 C 0.1168 0.27006 0.79135 0.0
C1870 C 0.14394 0.22566 0.79348 0.0
C1871 C 0.11645 0.22222 0.79925 0.0
H1872 H 0.53398 0.70171 0.02967 0.0
H1873 H 0.58063 0.70163 0.95814 0.0
H1874 H 0.5895 0.65618 0.96648 0.0
H1875 H 0.57791 0.61403 0.98956 0.0
H1876 H 0.5278 0.61287 0.05844 0.0
H1877 H 0.5267 0.66154 0.05587 0.0
C1878 C 0.54652 0.69203 0.01615 0.0
C1879 C 0.55621 0.70483 0.99301 0.0
C1880 C 0.55066 0.66556 0.02043 0.0
C1881 C 0.57265 0.69207 0.97591 0.0
C1882 C 0.57764 0.66605 0.9806 0.0
C1883 C 0.56719 0.62455 0.00437 0.0
C1884 C 0.55256 0.60981 0.02387 0.0
C1885 C 0.5658 0.65218 0.00211 0.0
C1886 C 0.53889 0.62373 0.043 0.0
C1887 C 0.53821 0.65151 0.0415 0.0
H1888 H 0.08239 0.72494 0.71157 0.0
H1889 H 0.07692 0.78383 0.65143 0.0
H1890 H 0.12614 0.80425 0.6634 0.0
H1891 H 0.17063 0.80591 0.69099 0.0
H1892 H 0.1768 0.74782 0.75171 0.0
H1893 H 0.1275 0.72651 0.73928 0.0
C1894 C 0.09196 0.74226 0.70113 0.0
C1895 C 0.07587 0.75282 0.68068 0.0
C1896 C 0.12044 0.75403 0.7081 0.0
C1897 C 0.08868 0.77526 0.6673 0.0
C1898 C 0.1169 0.78698 0.67408 0.0
C1899 C 0.16128 0.7885 0.70146 0.0
C1900 C 0.1774 0.77848 0.72223 0.0
C1901 C 0.13296 0.77656 0.69443 0.0
C1902 C 0.16486 0.75595 0.73562 0.0
C1903 C 0.13666 0.74378 0.72856 0.0
H1904 H 0.04835 0.35278 0.5195 0.0
H1905 H 0.04333 0.35442 0.42964 0.0
H1906 H 0.0444 0.40386 0.43542 0.0
H1907 H 0.0397 0.44451 0.46531 0.0
H1908 H 0.04921 0.44528 0.55535 0.0
H1909 H 0.05281 0.39654 0.55022 0.0
C1910 C 0.04819 0.36415 0.50127 0.0
C1911 C 0.04533 0.34993 0.47418 0.0
C1912 C 0.04894 0.39268 0.50473 0.0
C1913 C 0.04551 0.36487 0.45072 0.0
C1914 C 0.04582 0.39309 0.45397 0.0
C1915 C 0.04341 0.43436 0.48388 0.0
C1916 C 0.04411 0.44838 0.51065 0.0
C1917 C 0.04645 0.4069 0.48077 0.0
C1918 C 0.04859 0.43481 0.53451 0.0
C1919 C 0.05062 0.407 0.53157 0.0
H1920 H 0.44217 0.23256 0.22577 0.0
H1921 H 0.43222 0.27512 0.1523 0.0
H1922 H 0.38804 0.28427 0.16555 0.0
H1923 H 0.34978 0.27523 0.19489 0.0
H1924 H 0.35985 0.2327 0.26841 0.0
H1925 H 0.40668 0.22906 0.25857 0.0
C1926 C 0.43049 0.24413 0.21284 0.0
C1927 C 0.44024 0.25273 0.18784 0.0
C1928 C 0.4051 0.2493 0.22056 0.0
C1929 C 0.42513 0.26813 0.17157 0.0
C1930 C 0.3998 0.27329 0.17908 0.0
C1931 C 0.36242 0.26564 0.20908 0.0
C1932 C 0.35114 0.25391 0.23212 0.0
C1933 C 0.38922 0.26327 0.20309 0.0
C1934 C 0.36793 0.24185 0.25048 0.0
C1935 C 0.39467 0.23956 0.24474 0.0
H1936 H 0.60545 0.50855 0.37275 0.0
H1937 H 0.52861 0.52417 0.33369 0.0
H1938 H 0.50793 0.51945 0.3777 0.0
H1939 H 0.51323 0.51512 0.42853 0.0
H1940 H 0.59234 0.50526 0.4681 0.0
H1941 H 0.61031 0.50291 0.42283 0.0
C1942 C 0.58403 0.51045 0.37376 0.0
C1943 C 0.56858 0.51668 0.35006 0.0
C1944 C 0.57267 0.5088 0.39937 0.0
C1945 C 0.54096 0.51948 0.35176 0.0
C1946 C 0.52913 0.51681 0.37691 0.0
C1947 C 0.53424 0.51205 0.42712 0.0
C1948 C 0.55132 0.51017 0.45166 0.0
C1949 C 0.54501 0.51211 0.40106 0.0
C1950 C 0.57864 0.50655 0.44955 0.0
C1951 C 0.58904 0.50536 0.42365 0.0
H1952 H 0.27677 0.7829 0.06092 0.0
H1953 H 0.21485 0.83183 0.07359 0.0
H1954 H 0.20267 0.80828 0.11462 0.0
H1955 H 0.21258 0.7768 0.14901 0.0
H1956 H 0.27714 0.73087 0.1381 0.0
H1957 H 0.28502 0.74993 0.09372 0.0
C1958 C 0.26042 0.7883 0.07246 0.0
C1959 C 0.24688 0.80924 0.06435 0.0
C1960 C 0.25399 0.77516 0.09624 0.0
C1961 C 0.22574 0.81594 0.07955 0.0
C1962 C 0.21874 0.80246 0.10296 0.0
C1963 C 0.22794 0.77051 0.13658 0.0
C1964 C 0.24424 0.75244 0.14663 0.0
C1965 C 0.2331 0.78241 0.11177 0.0
C1966 C 0.26439 0.74478 0.13066 0.0
C1967 C 0.26897 0.75575 0.10543 0.0
H1968 H 0.92755 0.54377 0.88084 0.0
H1969 H 0.00376 0.58211 0.85084 0.0
H1970 H 0.02906 0.58431 0.89739 0.0
H1971 H 0.0314 0.56331 0.94164 0.0
H1972 H 0.95564 0.51921 0.96864 0.0
H1973 H 0.92837 0.53164 0.929 0.0
C1974 C 0.94936 0.55395 0.885 0.0
C1975 C 0.96395 0.56248 0.86265 0.0
C1976 C 0.9641 0.55319 0.91121 0.0
C1977 C 0.99225 0.57537 0.86794 0.0
C1978 C 0.00679 0.57619 0.89441 0.0
C1979 C 0.00887 0.55706 0.9392 0.0
C1980 C 0.99568 0.54004 0.95785 0.0
C1981 C 0.99331 0.56317 0.9155 0.0
C1982 C 0.96642 0.53234 0.95462 0.0
C1983 C 0.95073 0.53928 0.93178 0.0
H1984 H 0.28291 0.15466 0.59685 0.0
H1985 H 0.25819 0.23016 0.57773 0.0
H1986 H 0.26265 0.2462 0.62767 0.0
H1987 H 0.27227 0.23835 0.67689 0.0
H1988 H 0.29539 0.16213 0.69626 0.0
H1989 H 0.29255 0.14678 0.64634 0.0
C1990 C 0.27885 0.17475 0.60367 0.0
C1991 C 0.27034 0.19122 0.58365 0.0
C1992 C 0.28078 0.1836 0.63252 0.0
C1993 C 0.26473 0.21705 0.59276 0.0
C1994 C 0.2672 0.22623 0.62132 0.0
C1995 C 0.27656 0.21833 0.67021 0.0
C1996 C 0.28394 0.20143 0.69035 0.0
C1997 C 0.27487 0.20955 0.64141 0.0
C1998 C 0.28955 0.17558 0.68126 0.0
C1999 C 0.28805 0.16678 0.65266 0.0
H2000 H 0.55523 0.52409 0.19107 0.0
H2001 H 0.61201 0.46913 0.20307 0.0
H2002 H 0.6004 0.44966 0.15388 0.0
H2003 H 0.57526 0.4495 0.10703 0.0
H2004 H 0.519 0.50516 0.09574 0.0
H2005 H 0.52935 0.52304 0.14516 0.0
C2006 C 0.56504 0.50776 0.18305 0.0
C2007 C 0.58454 0.49818 0.20077 0.0
C2008 C 0.55844 0.49684 0.15481 0.0
C2009 C 0.59692 0.47692 0.18993 0.0
C2010 C 0.59034 0.46582 0.16177 0.0
C2011 C 0.5652 0.46548 0.1154 0.0
C2012 C 0.54648 0.47604 0.09762 0.0
C2013 C 0.57131 0.47582 0.14395 0.0
C2014 C 0.53357 0.49669 0.10887 0.0
C2015 C 0.53946 0.50696 0.13716 0.0
H2016 H 0.21442 0.79452 0.9213 0.0
H2017 H 0.24725 0.87982 0.91173 0.0
H2018 H 0.25199 0.86724 0.86241 0.0
H2019 H 0.25987 0.83073 0.82815 0.0
H2020 H 0.2282 0.74509 0.83827 0.0
H2021 H 0.21009 0.75897 0.88151 0.0
C2022 C 0.22125 0.81045 0.90793 0.0
C2023 C 0.23104 0.83787 0.91998 0.0
C2024 C 0.22517 0.80284 0.88015 0.0
C2025 C 0.23966 0.85855 0.90275 0.0
C2026 C 0.24288 0.85126 0.87472 0.0
C2027 C 0.24793 0.81512 0.83909 0.0
C2028 C 0.24586 0.78692 0.83034 0.0
C2029 C 0.23775 0.82325 0.86401 0.0
C2030 C 0.23052 0.76694 0.84489 0.0
C2031 C 0.22012 0.77485 0.8696 0.0
H2032 H 0.99631 0.52324 0.72086 0.0
H2033 H 0.92143 0.55337 0.70004 0.0
H2034 H 0.93574 0.56219 0.65376 0.0
H2035 H 0.96743 0.55721 0.61815 0.0
H2036 H 0.04111 0.52503 0.63899 0.0
H2037 H 0.02938 0.52143 0.6868 0.0
C2038 C 0.98309 0.53185 0.70629 0.0
C2039 C 0.95761 0.53723 0.71365 0.0
C2040 C 0.99121 0.53644 0.67983 0.0
C2041 C 0.94103 0.54886 0.69475 0.0
C2042 C 0.94918 0.55385 0.66832 0.0
C2043 C 0.98111 0.5497 0.63323 0.0
C2044 C 0.00492 0.54104 0.62499 0.0
C2045 C 0.97392 0.5471 0.66046 0.0
C2046 C 0.02255 0.53159 0.64479 0.0
C2047 C 0.01583 0.52946 0.67208 0.0
H2048 H 0.27618 0.15951 0.4082 0.0
H2049 H 0.30082 0.23956 0.45618 0.0
H2050 H 0.3031 0.26193 0.41294 0.0
H2051 H 0.29049 0.25899 0.36196 0.0
H2052 H 0.2617 0.17879 0.31434 0.0
H2053 H 0.26874 0.15635 0.3566 0.0
C2054 C 0.28312 0.18175 0.40905 0.0
C2055 C 0.28867 0.19791 0.43518 0.0
C2056 C 0.28286 0.19452 0.38409 0.0
C2057 C 0.29683 0.22677 0.43619 0.0
C2058 C 0.29777 0.23956 0.41148 0.0
C2059 C 0.28609 0.2366 0.36074 0.0
C2060 C 0.27519 0.22071 0.33497 0.0
C2061 C 0.28956 0.22372 0.38534 0.0
C2062 C 0.26988 0.19167 0.33385 0.0
C2063 C 0.27389 0.17873 0.35807 0.0
H2064 H 0.368 0.6204 0.55411 0.0
H2065 H 0.34085 0.59712 0.46585 0.0
H2066 H 0.38003 0.57406 0.46161 0.0
H2067 H 0.42368 0.56261 0.48287 0.0
H2068 H 0.45005 0.58736 0.57114 0.0
H2069 H 0.40944 0.60749 0.57544 0.0
C2070 C 0.37053 0.61024 0.53391 0.0
C2071 C 0.35164 0.61071 0.51032 0.0
C2072 C 0.39306 0.59725 0.53161 0.0
C2073 C 0.35516 0.59718 0.48437 0.0
C2074 C 0.37758 0.584 0.48192 0.0
C2075 C 0.42029 0.57217 0.50303 0.0
C2076 C 0.43998 0.57374 0.52656 0.0
C2077 C 0.39689 0.58417 0.50537 0.0
C2078 C 0.43541 0.58621 0.5526 0.0
C2079 C 0.41215 0.59772 0.55514 0.0
H2080 H 0.87622 0.88602 0.5097 0.0
H2081 H 0.85944 0.94859 0.56964 0.0
H2082 H 0.90401 0.97906 0.56377 0.0
H2083 H 0.94855 0.98693 0.54193 0.0
H2084 H 0.96143 0.92417 0.47927 0.0
H2085 H 0.91757 0.89494 0.4858 0.0
C2086 C 0.88235 0.90629 0.52164 0.0
C2087 C 0.86493 0.91488 0.54048 0.0
C2088 C 0.90731 0.92372 0.51754 0.0
C2089 C 0.87272 0.94148 0.55518 0.0
C2090 C 0.89815 0.95884 0.55179 0.0
C2091 C 0.9416 0.96696 0.52959 0.0
C2092 C 0.9586 0.95776 0.51037 0.0
C2093 C 0.91574 0.9501 0.53306 0.0
C2094 C 0.94904 0.9319 0.49431 0.0
C2095 C 0.92391 0.915 0.49806 0.0
H2096 H 0.8104 0.073 0.27483 0.0
H2097 H 0.88278 0.0992 0.2322 0.0
H2098 H 0.87286 0.14521 0.232 0.0
H2099 H 0.84517 0.17863 0.24547 0.0
H2100 H 0.77255 0.15367 0.28786 0.0
H2101 H 0.78091 0.1065 0.28637 0.0
C2102 C 0.82392 0.08873 0.26539 0.0
C2103 C 0.84746 0.08258 0.25376 0.0
C2104 C 0.81812 0.1154 0.26534 0.0
C2105 C 0.86462 0.10325 0.24145 0.0
C2106 C 0.85899 0.12966 0.24132 0.0
C2107 C 0.8311 0.16291 0.2544 0.0
C2108 C 0.80844 0.16973 0.26704 0.0
C2109 C 0.83605 0.13604 0.25349 0.0
C2110 C 0.79019 0.14896 0.27807 0.0
C2111 C 0.79502 0.12203 0.27729 0.0
H2112 H 0.68375 0.14364 0.07213 0.0
H2113 H 0.71838 0.07127 0.05604 0.0
H2114 H 0.67177 0.04398 0.03879 0.0
H2115 H 0.62245 0.04271 0.02217 0.0
H2116 H 0.59056 0.11738 0.03244 0.0
H2117 H 0.63501 0.142 0.0579 0.0
C2118 C 0.68116 0.12174 0.06548 0.0
C2119 C 0.70453 0.10951 0.06527 0.0
C2120 C 0.65484 0.10682 0.05394 0.0
C2121 C 0.7007 0.08114 0.05639 0.0
C2122 C 0.67412 0.06564 0.04629 0.0
C2123 C 0.62528 0.06429 0.0303 0.0
C2124 C 0.60357 0.07842 0.02535 0.0
C2125 C 0.65125 0.07857 0.04393 0.0
C2126 C 0.60725 0.10633 0.03574 0.0
C2127 C 0.63255 0.12032 0.05039 0.0
H2128 H 0.2232 0.44787 0.25992 0.0
H2129 H 0.14243 0.42009 0.28746 0.0
H2130 H 0.15606 0.37842 0.30128 0.0
H2131 H 0.188 0.34699 0.29946 0.0
H2132 H 0.26845 0.37265 0.27134 0.0
H2133 H 0.25823 0.41829 0.2644 0.0
C2134 C 0.2088 0.43289 0.26937 0.0
C2135 C 0.18161 0.43682 0.27202 0.0
C2136 C 0.21668 0.40859 0.27709 0.0
C2137 C 0.16327 0.41736 0.28459 0.0
C2138 C 0.17104 0.3935 0.2926 0.0
C2139 C 0.20355 0.3629 0.2925 0.0
C2140 C 0.2288 0.35673 0.28577 0.0
C2141 C 0.19725 0.38849 0.28803 0.0
C2142 C 0.24894 0.37725 0.27684 0.0
C2143 C 0.24294 0.40314 0.27259 0.0
H2144 H 0.22137 0.46016 0.01134 0.0
H2145 H 0.18854 0.39138 0.05599 0.0
H2146 H 0.14444 0.40623 0.05593 0.0
H2147 H 0.11446 0.43722 0.04182 0.0
H2148 H 0.14575 0.50601 -0.00324 0.0
H2149 H 0.19127 0.49287 -0.00128 0.0
C2150 C 0.20461 0.44848 0.02115 0.0
C2151 C 0.20836 0.4245 0.03349 0.0
C2152 C 0.17901 0.45713 0.021 0.0
C2153 C 0.18636 0.40977 0.0462 0.0
C2154 C 0.16105 0.41826 0.04621 0.0
C2155 C 0.1312 0.44949 0.03244 0.0
C2156 C 0.12656 0.47246 0.01893 0.0
C2157 C 0.15705 0.44168 0.03343 0.0
C2158 C 0.1487 0.48823 0.00727 0.0
C2159 C 0.1747 0.48063 0.00829 0.0
H2160 H 0.84198 0.93695 0.28519 0.0
H2161 H 0.82232 0.9297 0.1955 0.0
H2162 H 0.78999 0.88536 0.19666 0.0
H2163 H 0.77415 0.8452 0.22258 0.0
H2164 H 0.7987 0.85142 0.31171 0.0
H2165 H 0.82198 0.8996 0.31165 0.0
C2166 C 0.82969 0.92611 0.26609 0.0
C2167 C 0.83396 0.93657 0.24039 0.0
C2168 C 0.81252 0.90012 0.26686 0.0
C2169 C 0.81875 0.92218 0.21557 0.0
C2170 C 0.80063 0.89668 0.21623 0.0
C2171 C 0.78407 0.85739 0.24202 0.0
C2172 C 0.78503 0.84481 0.26707 0.0
C2173 C 0.79834 0.88487 0.24163 0.0
C2174 C 0.79807 0.86063 0.29213 0.0
C2175 C 0.81134 0.88816 0.29212 0.0
H2176 H 0.65785 0.10455 0.73182 0.0
H2177 H 0.70644 0.05854 0.78094 0.0
H2178 H 0.7402 0.10125 0.79839 0.0
H2179 H 0.7528 0.15226 0.8037 0.0
H2180 H 0.70308 0.19769 0.75492 0.0
H2181 H 0.67302 0.15455 0.73324 0.0
C2182 C 0.67602 0.10377 0.74607 0.0
C2183 C 0.67941 0.07847 0.75538 0.0
C2184 C 0.69502 0.12836 0.7563 0.0
C2185 C 0.70329 0.07777 0.7735 0.0
C2186 C 0.7225 0.10222 0.78362 0.0
C2187 C 0.73563 0.15271 0.78804 0.0
C2188 C 0.72998 0.17823 0.78131 0.0
C2189 C 0.71812 0.12774 0.7758 0.0
C2190 C 0.70775 0.1784 0.7608 0.0
C2191 C 0.6905 0.15372 0.74836 0.0
loop_
_geom_bond_atom_site_label_1
_geom_bond_atom_site_label_2
_geom_bond_distance
_geom_bond_site_symmetry_2
_ccdc_geom_bond_type
Zn0 O3 2.031 1_655 S
Zn0 O5 2.049 . S
Zn0 O10 2.067 . S
Zn1 O2 1.962 . S
Zn1 O4 1.986 . S
Zn1 O6 1.996 . S
Zn1 O9 1.943 . S
O2 Zn1 1.962 . S
O2 C7 1.254 . S
O3 Zn0 2.031 1_455 S
O3 C7 1.269 . S
O4 Zn1 1.986 . S
O4 C11 1.262 . S
O5 Zn0 2.049 . S
O5 C13 1.260 1_655 S
O6 Zn1 1.996 . S
O6 C13 1.257 . S
C7 O2 1.254 . S
C7 O3 1.269 . S
C8 O9 1.249 1_655 S
C8 O10 1.270 . S
O9 Zn1 1.943 . S
O9 C8 1.249 1_455 S
O10 Zn0 2.067 . S
O10 C8 1.270 . S
C11 O4 1.262 . S
C11 O12 1.232 . S
O12 C11 1.232 . S
C13 O5 1.260 1_455 S
C13 O6 1.257 . S
Zn14 O17 2.031 1_455 S
Zn14 O19 2.049 . S
Zn14 O24 2.067 . S
Zn15 O16 1.962 1_455 S
Zn15 O18 1.986 . S
Zn15 O20 1.996 . S
Zn15 O23 1.943 . S
O16 Zn15 1.962 1_655 S
O16 C21 1.254 . S
O17 Zn14 2.031 1_655 S
O17 C21 1.269 . S
O18 Zn15 1.986 . S
O18 C25 1.262 . S
O19 Zn14 2.049 . S
O19 C27 1.260 . S
O20 Zn15 1.996 . S
O20 C27 1.257 . S
C21 O16 1.254 . S
C21 O17 1.269 . S
C22 O23 1.249 . S
C22 O24 1.270 . S
O23 Zn15 1.943 . S
O23 C22 1.249 . S
O24 Zn14 2.067 . S
O24 C22 1.270 . S
C25 O18 1.262 . S
C25 O26 1.232 1_455 S
O26 C25 1.232 1_655 S
C27 O19 1.260 . S
C27 O20 1.257 . S
Zn28 O31 2.031 . S
Zn28 O33 2.049 . S
Zn28 O38 2.067 . S
Zn29 O30 1.962 . S
Zn29 O32 1.986 . S
Zn29 O34 1.996 . S
Zn29 O37 1.943 . S
O30 Zn29 1.962 . S
O30 C35 1.254 . S
O31 Zn28 2.031 . S
O31 C35 1.269 . S
O32 Zn29 1.986 . S
O32 C39 1.262 . S
O33 Zn28 2.049 . S
O33 C41 1.260 . S
O34 Zn29 1.996 . S
O34 C41 1.257 . S
C35 O30 1.254 . S
C35 O31 1.269 . S
C36 O37 1.249 . S
C36 O38 1.270 . S
O37 Zn29 1.943 . S
O37 C36 1.249 . S
O38 Zn28 2.067 . S
O38 C36 1.270 . S
C39 O32 1.262 . S
C39 O40 1.232 . S
O40 C39 1.232 . S
C41 O33 1.260 . S
C41 O34 1.257 . S
Zn42 O45 2.031 . S
Zn42 O47 2.049 . S
Zn42 O52 2.067 . S
Zn43 O44 1.962 . S
Zn43 O46 1.986 . S
Zn43 O48 1.996 . S
Zn43 O51 1.943 . S
O44 Zn43 1.962 . S
O44 C49 1.254 . S
O45 Zn42 2.031 . S
O45 C49 1.269 . S
O46 Zn43 1.986 . S
O46 C53 1.262 . S
O47 Zn42 2.049 . S
O47 C55 1.260 . S
O48 Zn43 1.996 . S
O48 C55 1.257 . S
C49 O44 1.254 . S
C49 O45 1.269 . S
C50 O51 1.249 . S
C50 O52 1.270 . S
O51 Zn43 1.943 . S
O51 C50 1.249 . S
O52 Zn42 2.067 . S
O52 C50 1.270 . S
C53 O46 1.262 . S
C53 O54 1.232 . S
O54 C53 1.232 . S
C55 O47 1.260 . S
C55 O48 1.257 . S
Zn56 O59 2.031 . S
Zn56 O61 2.049 . S
Zn56 O66 2.067 . S
Zn57 O58 1.962 . S
Zn57 O60 1.986 1_455 S
Zn57 O62 1.996 . S
Zn57 O65 1.943 . S
O58 Zn57 1.962 . S
O58 C63 1.254 . S
O59 Zn56 2.031 . S
O59 C63 1.269 . S
O60 Zn57 1.986 1_655 S
O60 C67 1.262 . S
O61 Zn56 2.049 . S
O61 C69 1.260 . S
O62 Zn57 1.996 . S
O62 C69 1.257 . S
C63 O58 1.254 . S
C63 O59 1.269 . S
C64 O65 1.249 . S
C64 O66 1.270 . S
O65 Zn57 1.943 . S
O65 C64 1.249 . S
O66 Zn56 2.067 . S
O66 C64 1.270 . S
C67 O60 1.262 . S
C67 O68 1.232 1_655 S
O68 C67 1.232 1_455 S
C69 O61 1.260 . S
C69 O62 1.257 . S
Zn70 O73 2.031 . S
Zn70 O75 2.049 . S
Zn70 O80 2.067 . S
Zn71 O72 1.962 . S
Zn71 O74 1.986 . S
Zn71 O76 1.996 . S
Zn71 O79 1.943 . S
O72 Zn71 1.962 . S
O72 C77 1.254 . S
O73 Zn70 2.031 . S
O73 C77 1.269 . S
O74 Zn71 1.986 . S
O74 C81 1.262 . S
O75 Zn70 2.049 . S
O75 C83 1.260 . S
O76 Zn71 1.996 . S
O76 C83 1.257 . S
C77 O72 1.254 . S
C77 O73 1.269 . S
C78 O79 1.249 . S
C78 O80 1.270 . S
O79 Zn71 1.943 . S
O79 C78 1.249 . S
O80 Zn70 2.067 . S
O80 C78 1.270 . S
C81 O74 1.262 . S
C81 O82 1.232 . S
O82 C81 1.232 . S
C83 O75 1.260 . S
C83 O76 1.257 . S
Zn84 O87 2.031 . S
Zn84 O89 2.049 . S
Zn84 O94 2.067 . S
Zn85 O86 1.962 . S
Zn85 O88 1.986 . S
Zn85 O90 1.996 . S
Zn85 O93 1.943 . S
O86 Zn85 1.962 . S
O86 C91 1.254 . S
O87 Zn84 2.031 . S
O87 C91 1.269 . S
O88 Zn85 1.986 . S
O88 C95 1.262 . S
O89 Zn84 2.049 . S
O89 C97 1.260 . S
O90 Zn85 1.996 . S
O90 C97 1.257 . S
C91 O86 1.254 . S
C91 O87 1.269 . S
C92 O93 1.249 . S
C92 O94 1.270 . S
O93 Zn85 1.943 . S
O93 C92 1.249 . S
O94 Zn84 2.067 . S
O94 C92 1.270 . S
C95 O88 1.262 . S
C95 O96 1.232 . S
O96 C95 1.232 . S
C97 O89 1.260 . S
C97 O90 1.257 . S
Zn98 O101 2.031 . S
Zn98 O103 2.049 . S
Zn98 O108 2.067 . S
Zn99 O100 1.962 . S
Zn99 O102 1.986 . S
Zn99 O104 1.996 . S
Zn99 O107 1.943 1_455 S
O100 Zn99 1.962 . S
O100 C105 1.252 1_455 S
O101 Zn98 2.031 . S
O101 C105 1.271 . S
O102 Zn99 1.986 . S
O102 C109 1.262 . S
O103 Zn98 2.049 . S
O103 C111 1.260 . S
O104 Zn99 1.996 . S
O104 C111 1.257 1_455 S
C105 O100 1.252 1_655 S
C105 O101 1.271 . S
C106 O107 1.249 . S
C106 O108 1.270 . S
O107 Zn99 1.943 1_655 S
O107 C106 1.249 . S
O108 Zn98 2.067 . S
O108 C106 1.270 . S
C109 O102 1.262 . S
C109 O110 1.232 . S
O110 C109 1.232 . S
C111 O103 1.260 . S
C111 O104 1.257 1_655 S
Zn112 O115 2.031 1_565 S
Zn112 O117 2.049 . S
Zn112 O122 2.067 . S
Zn113 O114 1.962 . S
Zn113 O116 1.986 . S
Zn113 O118 1.996 . S
Zn113 O121 1.943 . S
O114 Zn113 1.962 . S
O114 C119 1.254 . S
O115 Zn112 2.031 1_545 S
O115 C119 1.269 . S
O116 Zn113 1.986 . S
O116 C123 1.262 . S
O117 Zn112 2.049 . S
O117 C125 1.260 1_565 S
O118 Zn113 1.996 . S
O118 C125 1.257 . S
C119 O114 1.254 . S
C119 O115 1.269 . S
C120 O121 1.249 1_565 S
C120 O122 1.270 . S
O121 Zn113 1.943 . S
O121 C120 1.249 1_545 S
O122 Zn112 2.067 . S
O122 C120 1.270 . S
C123 O116 1.262 . S
C123 O124 1.232 . S
O124 C123 1.232 . S
C125 O117 1.260 1_545 S
C125 O118 1.257 . S
Zn126 O129 2.031 . S
Zn126 O131 2.049 . S
Zn126 O136 2.067 . S
Zn127 O128 1.962 . S
Zn127 O130 1.986 . S
Zn127 O132 1.996 . S
Zn127 O135 1.943 . S
O128 Zn127 1.962 . S
O128 C133 1.254 . S
O129 Zn126 2.031 . S
O129 C133 1.269 . S
O130 Zn127 1.986 . S
O130 C137 1.262 . S
O131 Zn126 2.049 . S
O131 C139 1.260 . S
O132 Zn127 1.996 . S
O132 C139 1.257 . S
C133 O128 1.254 . S
C133 O129 1.269 . S
C134 O135 1.249 . S
C134 O136 1.270 . S
O135 Zn127 1.943 . S
O135 C134 1.249 . S
O136 Zn126 2.067 . S
O136 C134 1.270 . S
C137 O130 1.262 . S
C137 O138 1.232 . S
O138 C137 1.232 . S
C139 O131 1.260 . S
C139 O132 1.257 . S
Zn140 O143 2.031 . S
Zn140 O145 2.049 . S
Zn140 O150 2.067 . S
Zn141 O142 1.961 1_545 S
Zn141 O144 1.986 1_545 S
Zn141 O146 1.996 . S
Zn141 O149 1.943 . S
O142 Zn141 1.961 1_565 S
O142 C147 1.241 1_565 S
O143 Zn140 2.031 . S
O143 C147 1.269 . S
O144 Zn141 1.986 1_565 S
O144 C151 1.262 . S
O145 Zn140 2.049 . S
O145 C153 1.260 . S
O146 Zn141 1.996 . S
O146 C153 1.257 . S
C147 O142 1.241 1_545 S
C147 O143 1.269 . S
C148 O149 1.249 . S
C148 O150 1.270 . S
O149 Zn141 1.943 . S
O149 C148 1.249 . S
O150 Zn140 2.067 . S
O150 C148 1.270 . S
C151 O144 1.262 . S
C151 O152 1.232 . S
O152 C151 1.232 . S
C153 O145 1.260 . S
C153 O146 1.257 . S
Zn154 O157 2.031 1_554 S
Zn154 O159 2.049 . S
Zn154 O164 2.067 . S
Zn155 O156 1.962 1_554 S
Zn155 O158 1.986 . S
Zn155 O160 1.996 . S
Zn155 O163 1.943 . S
O156 Zn155 1.962 1_556 S
O156 C161 1.254 . S
O157 Zn154 2.031 1_556 S
O157 C161 1.269 . S
O158 Zn155 1.986 . S
O158 C165 1.262 . S
O159 Zn154 2.049 . S
O159 C167 1.260 . S
O160 Zn155 1.996 . S
O160 C167 1.257 . S
C161 O156 1.254 . S
C161 O157 1.269 . S
C162 O163 1.249 . S
C162 O164 1.270 . S
O163 Zn155 1.943 . S
O163 C162 1.249 . S
O164 Zn154 2.067 . S
O164 C162 1.270 . S
C165 O158 1.262 . S
C165 O166 1.232 1_554 S
O166 C165 1.232 1_556 S
C167 O159 1.260 . S
C167 O160 1.257 . S
Zn168 O171 2.031 . S
Zn168 O173 2.049 . S
Zn168 O178 2.067 . S
Zn169 O170 1.962 . S
Zn169 O172 1.986 . S
Zn169 O174 1.996 . S
Zn169 O177 1.943 . S
O170 Zn169 1.962 . S
O170 C175 1.254 . S
O171 Zn168 2.031 . S
O171 C175 1.269 . S
O172 Zn169 1.986 . S
O172 C179 1.262 . S
O173 Zn168 2.049 . S
O173 C181 1.260 . S
O174 Zn169 1.996 . S
O174 C181 1.257 . S
C175 O170 1.254 . S
C175 O171 1.269 . S
C176 O177 1.249 . S
C176 O178 1.270 . S
O177 Zn169 1.943 . S
O177 C176 1.249 . S
O178 Zn168 2.067 . S
O178 C176 1.270 . S
C179 O172 1.262 . S
C179 O180 1.232 . S
O180 C179 1.232 . S
C181 O173 1.260 . S
C181 O174 1.257 . S
Zn182 O185 2.031 . S
Zn182 O187 2.049 . S
Zn182 O192 2.067 . S
Zn183 O184 1.962 . S
Zn183 O186 1.986 . S
Zn183 O188 1.996 . S
Zn183 O191 1.943 . S
O184 Zn183 1.962 . S
O184 C189 1.254 1_554 S
O185 Zn182 2.031 . S
O185 C189 1.269 1_554 S
O186 Zn183 1.986 . S
O186 C193 1.262 . S
O187 Zn182 2.049 . S
O187 C195 1.260 . S
O188 Zn183 1.996 . S
O188 C195 1.257 . S
C189 O184 1.254 1_556 S
C189 O185 1.269 1_556 S
C190 O191 1.249 . S
C190 O192 1.270 . S
O191 Zn183 1.943 . S
O191 C190 1.249 . S
O192 Zn182 2.067 . S
O192 C190 1.270 . S
C193 O186 1.262 . S
C193 O194 1.232 . S
O194 C193 1.232 . S
C195 O187 1.260 . S
C195 O188 1.257 . S
Zn196 O199 2.031 . S
Zn196 O201 2.049 . S
Zn196 O206 2.067 . S
Zn197 O198 1.962 . S
Zn197 O200 1.986 . S
Zn197 O202 1.996 . S
Zn197 O205 1.943 . S
O198 Zn197 1.962 . S
O198 C203 1.254 . S
O199 Zn196 2.031 . S
O199 C203 1.269 . S
O200 Zn197 1.986 . S
O200 C207 1.262 . S
O201 Zn196 2.049 . S
O201 C209 1.260 . S
O202 Zn197 1.996 . S
O202 C209 1.257 . S
C203 O198 1.254 . S
C203 O199 1.269 . S
C204 O205 1.249 . S
C204 O206 1.270 . S
O205 Zn197 1.943 . S
O205 C204 1.249 . S
O206 Zn196 2.067 . S
O206 C204 1.270 . S
C207 O200 1.262 . S
C207 O208 1.232 . S
O208 C207 1.232 . S
C209 O201 1.260 . S
C209 O202 1.257 . S
Zn210 O213 2.031 . S
Zn210 O215 2.049 . S
Zn210 O220 2.067 . S
Zn211 O212 1.962 . S
Zn211 O214 1.986 . S
Zn211 O216 1.996 . S
Zn211 O219 1.943 . S
O212 Zn211 1.962 . S
O212 C217 1.254 . S
O213 Zn210 2.031 . S
O213 C217 1.269 . S
O214 Zn211 1.986 . S
O214 C221 1.262 . S
O215 Zn210 2.049 . S
O215 C223 1.260 . S
O216 Zn211 1.996 . S
O216 C223 1.257 . S
C217 O212 1.254 . S
C217 O213 1.269 . S
C218 O219 1.249 . S
C218 O220 1.270 . S
O219 Zn211 1.943 . S
O219 C218 1.249 . S
O220 Zn210 2.067 . S
O220 C218 1.270 . S
C221 O214 1.262 . S
C221 O222 1.232 . S
O222 C221 1.232 . S
C223 O215 1.260 . S
C223 O216 1.257 . S
Zn224 O227 2.031 . S
Zn224 O229 2.049 . S
Zn224 O234 2.067 . S
Zn225 O226 1.962 . S
Zn225 O228 1.986 . S
Zn225 O230 1.996 . S
Zn225 O233 1.943 1_545 S
O226 Zn225 1.962 . S
O226 C231 1.254 . S
O227 Zn224 2.031 . S
O227 C231 1.269 1_565 S
O228 Zn225 1.986 . S
O228 C235 1.262 . S
O229 Zn224 2.049 . S
O229 C237 1.260 1_565 S
O230 Zn225 1.996 . S
O230 C237 1.257 . S
C231 O226 1.254 . S
C231 O227 1.269 1_545 S
C232 O233 1.249 . S
C232 O234 1.270 . S
O233 Zn225 1.943 1_565 S
O233 C232 1.249 . S
O234 Zn224 2.067 . S
O234 C232 1.270 . S
C235 O228 1.262 . S
C235 O236 1.232 . S
O236 C235 1.232 . S
C237 O229 1.260 1_545 S
C237 O230 1.257 . S
Zn238 O241 2.031 . S
Zn238 O243 2.049 . S
Zn238 O248 2.067 . S
Zn239 O240 1.962 . S
Zn239 O242 1.986 . S
Zn239 O244 1.996 . S
Zn239 O247 1.943 . S
O240 Zn239 1.962 . S
O240 C245 1.254 . S
O241 Zn238 2.031 . S
O241 C245 1.269 . S
O242 Zn239 1.986 . S
O242 C249 1.262 . S
O243 Zn238 2.049 . S
O243 C251 1.260 . S
O244 Zn239 1.996 . S
O244 C251 1.257 . S
C245 O240 1.254 . S
C245 O241 1.269 . S
C246 O247 1.249 . S
C246 O248 1.270 . S
O247 Zn239 1.943 . S
O247 C246 1.249 . S
O248 Zn238 2.067 . S
O248 C246 1.270 . S
C249 O242 1.262 . S
C249 O250 1.232 . S
O250 C249 1.232 . S
C251 O243 1.260 . S
C251 O244 1.257 . S
Zn252 O255 2.031 . S
Zn252 O257 2.049 . S
Zn252 O262 2.067 . S
Zn253 O254 1.962 . S
Zn253 O256 1.986 . S
Zn253 O258 1.996 . S
Zn253 O261 1.943 . S
O254 Zn253 1.962 . S
O254 C259 1.254 . S
O255 Zn252 2.031 . S
O255 C259 1.269 . S
O256 Zn253 1.986 . S
O256 C263 1.262 . S
O257 Zn252 2.049 . S
O257 C265 1.260 . S
O258 Zn253 1.996 . S
O258 C265 1.257 . S
C259 O254 1.254 . S
C259 O255 1.269 . S
C260 O261 1.249 . S
C260 O262 1.270 . S
O261 Zn253 1.943 . S
O261 C260 1.249 . S
O262 Zn252 2.067 . S
O262 C260 1.270 . S
C263 O256 1.262 . S
C263 O264 1.232 . S
O264 C263 1.232 . S
C265 O257 1.260 . S
C265 O258 1.257 . S
Zn266 O269 2.031 . S
Zn266 O271 2.049 . S
Zn266 O276 2.067 . S
Zn267 O268 1.962 . S
Zn267 O270 1.986 . S
Zn267 O272 1.996 . S
Zn267 O275 1.943 1_565 S
O268 Zn267 1.962 . S
O268 C273 1.254 1_565 S
O269 Zn266 2.031 . S
O269 C273 1.269 . S
O270 Zn267 1.986 . S
O270 C277 1.262 . S
O271 Zn266 2.049 . S
O271 C279 1.260 . S
O272 Zn267 1.996 . S
O272 C279 1.257 1_565 S
C273 O268 1.254 1_545 S
C273 O269 1.269 . S
C274 O275 1.249 . S
C274 O276 1.270 . S
O275 Zn267 1.943 1_545 S
O275 C274 1.249 . S
O276 Zn266 2.067 . S
O276 C274 1.270 . S
C277 O270 1.262 . S
C277 O278 1.232 . S
O278 C277 1.232 . S
C279 O271 1.260 . S
C279 O272 1.257 1_545 S
Zn280 O283 2.031 1_554 S
Zn280 O285 2.049 . S
Zn280 O290 2.067 . S
Zn281 O282 1.985 . S
Zn281 O284 1.975 1_556 S
Zn281 O286 1.978 1_556 S
Zn281 O289 1.940 . S
O282 Zn281 1.985 . S
O282 C287 1.254 . S
O283 Zn280 2.031 1_556 S
O283 C287 1.269 . S
O284 Zn281 1.975 1_554 S
O284 C291 1.236 1_554 S
O285 Zn280 2.049 . S
O285 C293 1.260 . S
O286 Zn281 1.978 1_554 S
O286 C293 1.257 . S
C287 O282 1.254 . S
C287 O283 1.269 . S
C288 O289 1.249 . S
C288 O290 1.270 1_556 S
O289 Zn281 1.940 . S
O289 C288 1.249 . S
O290 Zn280 2.067 . S
O290 C288 1.270 1_554 S
C291 O284 1.236 1_556 S
C291 O292 1.264 . S
O292 C291 1.264 . S
C293 O285 1.260 . S
C293 O286 1.257 . S
Zn294 O297 2.031 . S
Zn294 O299 2.049 . S
Zn294 O304 2.067 . S
Zn295 O296 1.962 . S
Zn295 O298 1.986 . S
Zn295 O300 1.996 . S
Zn295 O303 1.943 . S
O296 Zn295 1.962 . S
O296 C301 1.254 . S
O297 Zn294 2.031 . S
O297 C301 1.269 . S
O298 Zn295 1.986 . S
O298 C305 1.262 . S
O299 Zn294 2.049 . S
O299 C307 1.260 . S
O300 Zn295 1.996 . S
O300 C307 1.257 . S
C301 O296 1.254 . S
C301 O297 1.269 . S
C302 O303 1.249 . S
C302 O304 1.270 . S
O303 Zn295 1.943 . S
O303 C302 1.249 . S
O304 Zn294 2.067 . S
O304 C302 1.270 . S
C305 O298 1.262 . S
C305 O306 1.232 . S
O306 C305 1.232 . S
C307 O299 1.260 . S
C307 O300 1.257 . S
Zn308 O311 2.031 . S
Zn308 O313 2.049 . S
Zn308 O318 2.067 . S
Zn309 O310 1.962 . S
Zn309 O312 1.986 . S
Zn309 O314 1.996 . S
Zn309 O317 1.943 . S
O310 Zn309 1.962 . S
O310 C315 1.254 . S
O311 Zn308 2.031 . S
O311 C315 1.269 . S
O312 Zn309 1.986 . S
O312 C319 1.262 . S
O313 Zn308 2.049 . S
O313 C321 1.260 . S
O314 Zn309 1.996 . S
O314 C321 1.257 . S
C315 O310 1.254 . S
C315 O311 1.269 . S
C316 O317 1.249 . S
C316 O318 1.270 . S
O317 Zn309 1.943 . S
O317 C316 1.249 . S
O318 Zn308 2.067 . S
O318 C316 1.270 . S
C319 O312 1.262 . S
C319 O320 1.232 . S
O320 C319 1.232 . S
C321 O313 1.260 . S
C321 O314 1.257 . S
Zn322 O325 2.031 . S
Zn322 O327 2.049 . S
Zn322 O332 2.067 . S
Zn323 O324 1.962 . S
Zn323 O326 1.986 . S
Zn323 O328 1.996 . S
Zn323 O331 1.943 . S
O324 Zn323 1.962 . S
O324 C329 1.254 . S
O325 Zn322 2.031 . S
O325 C329 1.269 . S
O326 Zn323 1.986 . S
O326 C333 1.262 . S
O327 Zn322 2.049 . S
O327 C335 1.260 . S
O328 Zn323 1.996 . S
O328 C335 1.257 . S
C329 O324 1.254 . S
C329 O325 1.269 . S
C330 O331 1.249 . S
C330 O332 1.270 . S
O331 Zn323 1.943 . S
O331 C330 1.249 . S
O332 Zn322 2.067 . S
O332 C330 1.270 . S
C333 O326 1.262 . S
C333 O334 1.232 . S
O334 C333 1.232 . S
C335 O327 1.260 . S
C335 O328 1.257 . S
Zn336 O342 1.967 1_565 S
Zn336 O343 1.965 1_565 S
Zn336 O347 2.024 . S
Zn336 O352 1.969 1_565 S
Zn337 O344 1.969 1_654 S
Zn337 O350 1.969 1_554 S
Zn337 O351 1.966 . S
Zn337 O353 2.024 1_655 S
C338 O339 1.229 . S
C338 O347 1.058 . S
O339 C338 1.229 . S
C340 O341 1.229 1_554 S
C340 O353 1.058 . S
O341 C340 1.229 1_556 S
O342 Zn336 1.967 1_545 S
O342 C345 1.246 1_545 S
O343 Zn336 1.965 1_545 S
O343 C354 1.260 1_554 S
O344 Zn337 1.969 1_456 S
O344 C354 1.258 . S
C345 O342 1.246 1_565 S
C345 O346 1.228 . S
O346 C345 1.228 . S
O347 Zn336 2.024 . S
O347 C338 1.058 . S
C348 O349 1.228 . S
C348 O350 1.267 1_554 S
O349 C348 1.228 . S
O350 Zn337 1.969 1_556 S
O350 C348 1.267 1_556 S
O351 Zn337 1.966 . S
O351 C355 1.250 1_655 S
O352 Zn336 1.969 1_545 S
O352 C355 1.258 . S
O353 Zn337 2.024 1_455 S
O353 C340 1.058 . S
C354 O343 1.260 1_556 S
C354 O344 1.258 . S
C355 O351 1.250 1_455 S
C355 O352 1.258 . S
Zn356 O362 1.969 . S
Zn356 O363 1.965 . S
Zn356 O367 2.024 . S
Zn356 O372 1.969 . S
Zn357 O364 1.969 . S
Zn357 O370 1.969 . S
Zn357 O371 1.965 . S
Zn357 O373 2.024 . S
C358 O359 1.229 . S
C358 O367 1.058 . S
O359 C358 1.229 . S
C360 O361 1.229 . S
C360 O373 1.058 . S
O361 C360 1.229 . S
O362 Zn356 1.969 . S
O362 C365 1.267 . S
O363 Zn356 1.965 . S
O363 C374 1.260 . S
O364 Zn357 1.969 . S
O364 C374 1.258 . S
C365 O362 1.267 . S
C365 O366 1.228 . S
O366 C365 1.228 . S
O367 Zn356 2.024 . S
O367 C358 1.058 . S
C368 O369 1.228 . S
C368 O370 1.267 . S
O369 C368 1.228 . S
O370 Zn357 1.969 . S
O370 C368 1.267 . S
O371 Zn357 1.965 . S
O371 C375 1.260 . S
O372 Zn356 1.969 . S
O372 C375 1.258 . S
O373 Zn357 2.024 . S
O373 C360 1.058 . S
C374 O363 1.260 . S
C374 O364 1.258 . S
C375 O371 1.260 . S
C375 O372 1.258 . S
Zn376 O382 1.969 . S
Zn376 O383 1.965 . S
Zn376 O387 2.024 . S
Zn376 O392 1.969 . S
Zn377 O384 1.969 . S
Zn377 O390 1.969 . S
Zn377 O391 1.965 1_565 S
Zn377 O393 2.024 . S
C378 O379 1.229 . S
C378 O387 1.058 . S
O379 C378 1.229 . S
C380 O381 1.229 . S
C380 O393 1.058 . S
O381 C380 1.229 . S
O382 Zn376 1.969 . S
O382 C385 1.267 . S
O383 Zn376 1.965 . S
O383 C394 1.260 . S
O384 Zn377 1.969 . S
O384 C394 1.258 1_565 S
C385 O382 1.267 . S
C385 O386 1.228 . S
O386 C385 1.228 . S
O387 Zn376 2.024 . S
O387 C378 1.058 . S
C388 O389 1.228 . S
C388 O390 1.267 . S
O389 C388 1.228 . S
O390 Zn377 1.969 . S
O390 C388 1.267 . S
O391 Zn377 1.965 1_545 S
O391 C395 1.260 . S
O392 Zn376 1.969 . S
O392 C395 1.258 . S
O393 Zn377 2.024 . S
O393 C380 1.058 . S
C394 O383 1.260 . S
C394 O384 1.258 1_545 S
C395 O391 1.260 . S
C395 O392 1.258 . S
Zn396 O402 1.969 . S
Zn396 O403 1.965 . S
Zn396 O407 2.024 . S
Zn396 O412 1.969 . S
Zn397 O404 1.969 . S
Zn397 O410 1.969 . S
Zn397 O411 1.965 . S
Zn397 O413 2.024 . S
C398 O399 1.229 . S
C398 O407 1.058 . S
O399 C398 1.229 . S
C400 O401 1.229 . S
C400 O413 1.058 . S
O401 C400 1.229 . S
O402 Zn396 1.969 . S
O402 C405 1.267 . S
O403 Zn396 1.965 . S
O403 C414 1.260 . S
O404 Zn397 1.969 . S
O404 C414 1.258 . S
C405 O402 1.267 . S
C405 O406 1.228 . S
O406 C405 1.228 . S
O407 Zn396 2.024 . S
O407 C398 1.058 . S
C408 O409 1.228 . S
C408 O410 1.267 . S
O409 C408 1.228 . S
O410 Zn397 1.969 . S
O410 C408 1.267 . S
O411 Zn397 1.965 . S
O411 C415 1.260 . S
O412 Zn396 1.969 . S
O412 C415 1.258 . S
O413 Zn397 2.024 . S
O413 C400 1.058 . S
C414 O403 1.260 . S
C414 O404 1.258 . S
C415 O411 1.260 . S
C415 O412 1.258 . S
Zn416 O422 1.969 . S
Zn416 O423 1.965 1_455 S
Zn416 O427 2.024 1_565 S
Zn416 O432 1.969 1_565 S
Zn417 O424 1.969 1_455 S
Zn417 O430 1.969 1_455 S
Zn417 O431 1.965 . S
Zn417 O433 2.024 . S
C418 O419 1.229 1_545 S
C418 O427 1.058 . S
O419 C418 1.229 1_565 S
C420 O421 1.229 . S
C420 O433 1.058 1_655 S
O421 C420 1.229 . S
O422 Zn416 1.969 . S
O422 C425 1.267 . S
O423 Zn416 1.965 1_655 S
O423 C434 1.260 . S
O424 Zn417 1.969 1_655 S
O424 C434 1.258 1_545 S
C425 O422 1.267 . S
C425 O426 1.228 . S
O426 C425 1.228 . S
O427 Zn416 2.024 1_545 S
O427 C418 1.058 . S
C428 O429 1.228 . S
C428 O430 1.267 1_455 S
O429 C428 1.228 . S
O430 Zn417 1.969 1_655 S
O430 C428 1.267 1_655 S
O431 Zn417 1.965 . S
O431 C435 1.260 . S
O432 Zn416 1.969 1_545 S
O432 C435 1.258 . S
O433 Zn417 2.024 . S
O433 C420 1.058 1_455 S
C434 O423 1.260 . S
C434 O424 1.258 1_565 S
C435 O431 1.260 . S
C435 O432 1.258 . S
Zn436 O442 1.969 . S
Zn436 O443 1.965 . S
Zn436 O447 2.024 . S
Zn436 O452 1.969 . S
Zn437 O444 1.969 . S
Zn437 O450 1.969 . S
Zn437 O451 1.965 . S
Zn437 O453 2.024 . S
C438 O439 1.229 . S
C438 O447 1.058 . S
O439 C438 1.229 . S
C440 O441 1.229 . S
C440 O453 1.058 . S
O441 C440 1.229 . S
O442 Zn436 1.969 . S
O442 C445 1.267 . S
O443 Zn436 1.965 . S
O443 C454 1.260 . S
O444 Zn437 1.969 . S
O444 C454 1.258 . S
C445 O442 1.267 . S
C445 O446 1.228 . S
O446 C445 1.228 . S
O447 Zn436 2.024 . S
O447 C438 1.058 . S
C448 O449 1.228 . S
C448 O450 1.267 . S
O449 C448 1.228 . S
O450 Zn437 1.969 . S
O450 C448 1.267 . S
O451 Zn437 1.965 . S
O451 C455 1.260 . S
O452 Zn436 1.969 . S
O452 C455 1.258 . S
O453 Zn437 2.024 . S
O453 C440 1.058 . S
C454 O443 1.260 . S
C454 O444 1.258 . S
C455 O451 1.260 . S
C455 O452 1.258 . S
Zn456 O462 1.969 . S
Zn456 O463 1.952 1_545 S
Zn456 O467 2.024 1_556 S
Zn456 O472 1.969 1_556 S
Zn457 O464 1.969 1_545 S
Zn457 O470 1.969 1_545 S
Zn457 O471 1.965 . S
Zn457 O473 2.024 . S
C458 O459 1.227 1_554 S
C458 O467 1.058 . S
O459 C458 1.227 1_556 S
C460 O461 1.229 . S
C460 O473 1.058 1_565 S
O461 C460 1.229 . S
O462 Zn456 1.969 . S
O462 C465 1.267 . S
O463 Zn456 1.952 1_565 S
O463 C474 1.274 1_556 S
O464 Zn457 1.969 1_565 S
O464 C474 1.258 . S
C465 O462 1.267 . S
C465 O466 1.228 . S
O466 C465 1.228 . S
O467 Zn456 2.024 1_554 S
O467 C458 1.058 . S
C468 O469 1.228 . S
C468 O470 1.267 1_545 S
O469 C468 1.228 . S
O470 Zn457 1.969 1_565 S
O470 C468 1.267 1_565 S
O471 Zn457 1.965 . S
O471 C475 1.260 . S
O472 Zn456 1.969 1_554 S
O472 C475 1.258 . S
O473 Zn457 2.024 . S
O473 C460 1.058 1_545 S
C474 O463 1.274 1_554 S
C474 O464 1.258 . S
C475 O471 1.260 . S
C475 O472 1.258 . S
Zn476 O482 1.969 . S
Zn476 O483 1.965 . S
Zn476 O487 2.024 . S
Zn476 O492 1.969 . S
Zn477 O484 1.969 . S
Zn477 O490 1.969 . S
Zn477 O491 1.965 . S
Zn477 O493 2.024 . S
C478 O479 1.229 . S
C478 O487 1.058 . S
O479 C478 1.229 . S
C480 O481 1.229 . S
C480 O493 1.058 . S
O481 C480 1.229 . S
O482 Zn476 1.969 . S
O482 C485 1.267 . S
O483 Zn476 1.965 . S
O483 C494 1.260 . S
O484 Zn477 1.969 . S
O484 C494 1.258 . S
C485 O482 1.267 . S
C485 O486 1.228 . S
O486 C485 1.228 . S
O487 Zn476 2.024 . S
O487 C478 1.058 . S
C488 O489 1.228 . S
C488 O490 1.267 . S
O489 C488 1.228 . S
O490 Zn477 1.969 . S
O490 C488 1.267 . S
O491 Zn477 1.965 . S
O491 C495 1.260 . S
O492 Zn476 1.969 . S
O492 C495 1.258 . S
O493 Zn477 2.024 . S
O493 C480 1.058 . S
C494 O483 1.260 . S
C494 O484 1.258 . S
C495 O491 1.260 . S
C495 O492 1.258 . S
Zn496 O502 1.969 . S
Zn496 O503 1.965 . S
Zn496 O507 2.024 . S
Zn496 O512 1.969 . S
Zn497 O504 1.969 1_556 S
Zn497 O510 1.963 1_556 S
Zn497 O511 1.965 1_556 S
Zn497 O513 2.024 . S
C498 O499 1.229 . S
C498 O507 1.058 . S
O499 C498 1.229 . S
C500 O501 1.229 . S
C500 O513 1.058 . S
O501 C500 1.229 . S
O502 Zn496 1.969 . S
O502 C505 1.267 . S
O503 Zn496 1.965 . S
O503 C514 1.260 . S
O504 Zn497 1.969 1_554 S
O504 C514 1.258 . S
C505 O502 1.267 . S
C505 O506 1.228 . S
O506 C505 1.228 . S
O507 Zn496 2.024 . S
O507 C498 1.058 . S
C508 O509 1.228 . S
C508 O510 1.244 1_556 S
O509 C508 1.228 . S
O510 Zn497 1.963 1_554 S
O510 C508 1.244 1_554 S
O511 Zn497 1.965 1_554 S
O511 C515 1.260 . S
O512 Zn496 1.969 . S
O512 C515 1.258 . S
O513 Zn497 2.024 . S
O513 C500 1.058 . S
C514 O503 1.260 . S
C514 O504 1.258 . S
C515 O511 1.260 . S
C515 O512 1.258 . S
Zn516 O522 1.969 . S
Zn516 O523 1.965 . S
Zn516 O527 2.024 . S
Zn516 O532 1.969 . S
Zn517 O524 1.969 . S
Zn517 O530 1.969 . S
Zn517 O531 1.965 . S
Zn517 O533 2.024 . S
C518 O519 1.229 . S
C518 O527 1.058 . S
O519 C518 1.229 . S
C520 O521 1.229 . S
C520 O533 1.058 . S
O521 C520 1.229 . S
O522 Zn516 1.969 . S
O522 C525 1.267 . S
O523 Zn516 1.965 . S
O523 C534 1.260 . S
O524 Zn517 1.969 . S
O524 C534 1.258 . S
C525 O522 1.267 . S
C525 O526 1.228 . S
O526 C525 1.228 . S
O527 Zn516 2.024 . S
O527 C518 1.058 . S
C528 O529 1.228 . S
C528 O530 1.267 . S
O529 C528 1.228 . S
O530 Zn517 1.969 . S
O530 C528 1.267 . S
O531 Zn517 1.965 . S
O531 C535 1.260 . S
O532 Zn516 1.969 . S
O532 C535 1.258 . S
O533 Zn517 2.024 . S
O533 C520 1.058 . S
C534 O523 1.260 . S
C534 O524 1.258 . S
C535 O531 1.260 . S
C535 O532 1.258 . S
Zn536 O542 1.969 . S
Zn536 O543 1.965 . S
Zn536 O547 2.024 . S
Zn536 O552 1.969 . S
Zn537 O544 1.969 . S
Zn537 O550 1.969 . S
Zn537 O551 1.965 1_655 S
Zn537 O553 2.024 . S
C538 O539 1.229 . S
C538 O547 1.058 . S
O539 C538 1.229 . S
C540 O541 1.229 . S
C540 O553 1.058 . S
O541 C540 1.229 . S
O542 Zn536 1.969 . S
O542 C545 1.267 . S
O543 Zn536 1.965 . S
O543 C554 1.260 . S
O544 Zn537 1.969 . S
O544 C554 1.258 1_655 S
C545 O542 1.267 . S
C545 O546 1.228 . S
O546 C545 1.228 . S
O547 Zn536 2.024 . S
O547 C538 1.058 . S
C548 O549 1.228 . S
C548 O550 1.267 . S
O549 C548 1.228 . S
O550 Zn537 1.969 . S
O550 C548 1.267 . S
O551 Zn537 1.965 1_455 S
O551 C555 1.260 . S
O552 Zn536 1.969 . S
O552 C555 1.258 . S
O553 Zn537 2.024 . S
O553 C540 1.058 . S
C554 O543 1.260 . S
C554 O544 1.258 1_455 S
C555 O551 1.260 . S
C555 O552 1.258 . S
Zn556 O562 1.969 . S
Zn556 O563 1.965 . S
Zn556 O567 2.024 . S
Zn556 O572 1.969 . S
Zn557 O564 1.969 . S
Zn557 O570 1.969 . S
Zn557 O571 1.965 . S
Zn557 O573 2.024 . S
C558 O559 1.229 . S
C558 O567 1.058 . S
O559 C558 1.229 . S
C560 O561 1.229 . S
C560 O573 1.058 . S
O561 C560 1.229 . S
O562 Zn556 1.969 . S
O562 C565 1.267 . S
O563 Zn556 1.965 . S
O563 C574 1.260 . S
O564 Zn557 1.969 . S
O564 C574 1.258 . S
C565 O562 1.267 . S
C565 O566 1.228 . S
O566 C565 1.228 . S
O567 Zn556 2.024 . S
O567 C558 1.058 . S
C568 O569 1.228 . S
C568 O570 1.267 . S
O569 C568 1.228 . S
O570 Zn557 1.969 . S
O570 C568 1.267 . S
O571 Zn557 1.965 . S
O571 C575 1.260 . S
O572 Zn556 1.969 . S
O572 C575 1.258 . S
O573 Zn557 2.024 . S
O573 C560 1.058 . S
C574 O563 1.260 . S
C574 O564 1.258 . S
C575 O571 1.260 . S
C575 O572 1.258 . S
Zn576 O582 1.969 . S
Zn576 O583 1.965 . S
Zn576 O587 2.024 . S
Zn576 O592 1.969 . S
Zn577 O584 1.969 . S
Zn577 O590 1.969 . S
Zn577 O591 1.965 . S
Zn577 O593 2.024 . S
C578 O579 1.229 . S
C578 O587 1.058 . S
O579 C578 1.229 . S
C580 O581 1.229 . S
C580 O593 1.058 . S
O581 C580 1.229 . S
O582 Zn576 1.969 . S
O582 C585 1.267 . S
O583 Zn576 1.965 . S
O583 C594 1.260 . S
O584 Zn577 1.969 . S
O584 C594 1.258 . S
C585 O582 1.267 . S
C585 O586 1.228 . S
O586 C585 1.228 . S
O587 Zn576 2.024 . S
O587 C578 1.058 . S
C588 O589 1.228 . S
C588 O590 1.267 . S
O589 C588 1.228 . S
O590 Zn577 1.969 . S
O590 C588 1.267 . S
O591 Zn577 1.965 . S
O591 C595 1.260 . S
O592 Zn576 1.969 . S
O592 C595 1.258 . S
O593 Zn577 2.024 . S
O593 C580 1.058 . S
C594 O583 1.260 . S
C594 O584 1.258 . S
C595 O591 1.260 . S
C595 O592 1.258 . S
Zn596 O602 1.969 . S
Zn596 O603 1.965 . S
Zn596 O607 2.024 . S
Zn596 O612 1.969 . S
Zn597 O604 1.969 . S
Zn597 O610 1.969 . S
Zn597 O611 1.965 . S
Zn597 O613 2.024 . S
C598 O599 1.229 . S
C598 O607 1.058 . S
O599 C598 1.229 . S
C600 O601 1.229 . S
C600 O613 1.058 . S
O601 C600 1.229 . S
O602 Zn596 1.969 . S
O602 C605 1.267 . S
O603 Zn596 1.965 . S
O603 C614 1.260 . S
O604 Zn597 1.969 . S
O604 C614 1.258 . S
C605 O602 1.267 . S
C605 O606 1.228 . S
O606 C605 1.228 . S
O607 Zn596 2.024 . S
O607 C598 1.058 . S
C608 O609 1.228 . S
C608 O610 1.267 . S
O609 C608 1.228 . S
O610 Zn597 1.969 . S
O610 C608 1.267 . S
O611 Zn597 1.965 . S
O611 C615 1.260 . S
O612 Zn596 1.969 . S
O612 C615 1.258 . S
O613 Zn597 2.024 . S
O613 C600 1.058 . S
C614 O603 1.260 . S
C614 O604 1.258 . S
C615 O611 1.260 . S
C615 O612 1.258 . S
Zn616 O622 1.969 . S
Zn616 O623 1.965 . S
Zn616 O627 2.024 . S
Zn616 O632 1.969 . S
Zn617 O624 1.969 . S
Zn617 O630 1.969 . S
Zn617 O631 1.965 . S
Zn617 O633 2.024 . S
C618 O619 1.229 . S
C618 O627 1.058 . S
O619 C618 1.229 . S
C620 O621 1.229 . S
C620 O633 1.058 . S
O621 C620 1.229 . S
O622 Zn616 1.969 . S
O622 C625 1.267 . S
O623 Zn616 1.965 . S
O623 C634 1.260 . S
O624 Zn617 1.969 . S
O624 C634 1.258 . S
C625 O622 1.267 . S
C625 O626 1.228 . S
O626 C625 1.228 . S
O627 Zn616 2.024 . S
O627 C618 1.058 . S
C628 O629 1.228 . S
C628 O630 1.267 . S
O629 C628 1.228 . S
O630 Zn617 1.969 . S
O630 C628 1.267 . S
O631 Zn617 1.965 . S
O631 C635 1.260 . S
O632 Zn616 1.969 . S
O632 C635 1.258 . S
O633 Zn617 2.024 . S
O633 C620 1.058 . S
C634 O623 1.260 . S
C634 O624 1.258 . S
C635 O631 1.260 . S
C635 O632 1.258 . S
Zn636 O642 1.969 . S
Zn636 O643 1.965 . S
Zn636 O647 2.024 1_655 S
Zn636 O652 1.969 1_655 S
Zn637 O644 1.969 1_554 S
Zn637 O650 1.969 . S
Zn637 O651 1.965 . S
Zn637 O653 2.024 . S
C638 O639 1.229 1_455 S
C638 O647 1.058 . S
O639 C638 1.229 1_655 S
C640 O641 1.229 . S
C640 O653 1.058 1_556 S
O641 C640 1.229 . S
O642 Zn636 1.969 . S
O642 C645 1.267 . S
O643 Zn636 1.965 . S
O643 C654 1.260 1_654 S
O644 Zn637 1.969 1_556 S
O644 C654 1.258 . S
C645 O642 1.267 . S
C645 O646 1.228 . S
O646 C645 1.228 . S
O647 Zn636 2.024 1_455 S
O647 C638 1.058 . S
C648 O649 1.228 . S
C648 O650 1.267 . S
O649 C648 1.228 . S
O650 Zn637 1.969 . S
O650 C648 1.267 . S
O651 Zn637 1.965 . S
O651 C655 1.260 . S
O652 Zn636 1.969 1_455 S
O652 C655 1.258 . S
O653 Zn637 2.024 . S
O653 C640 1.058 1_554 S
C654 O643 1.260 1_456 S
C654 O644 1.258 . S
C655 O651 1.260 . S
C655 O652 1.258 . S
H656 C662 0.930 . S
H657 C665 0.930 . S
H658 C666 0.930 . S
H659 C667 0.930 . S
H660 C670 0.930 . S
H661 C671 0.930 . S
C662 H656 0.930 . S
C662 C663 1.352 1_655 S
C662 C664 1.415 1_655 S
C663 C662 1.352 1_455 S
C663 C665 1.425 . S
C664 C662 1.415 1_455 S
C664 C669 1.425 . S
C664 C671 1.409 1_456 S
C665 H657 0.930 . S
C665 C663 1.425 . S
C665 C666 1.362 . S
C666 H658 0.930 . S
C666 C665 1.362 . S
C666 C669 1.409 . S
C667 H659 0.930 . S
C667 C668 1.355 1_556 S
C667 C669 1.415 . S
C668 C667 1.355 1_554 S
C668 C670 1.419 . S
C669 C664 1.425 . S
C669 C666 1.409 . S
C669 C667 1.415 . S
C670 H660 0.930 . S
C670 C668 1.419 . S
C670 C671 1.362 1_455 S
C671 H661 0.930 . S
C671 C664 1.409 1_654 S
C671 C670 1.362 1_655 S
H672 C678 0.930 . S
H673 C681 0.930 . S
H674 C682 0.930 . S
H675 C683 0.930 . S
H676 C686 0.930 . S
H677 C687 0.930 . S
C678 H672 0.930 . S
C678 C679 1.355 . S
C678 C680 1.415 . S
C679 C678 1.355 . S
C679 C681 1.419 . S
C680 C678 1.415 . S
C680 C685 1.425 . S
C680 C687 1.409 . S
C681 H673 0.930 . S
C681 C679 1.419 . S
C681 C682 1.362 . S
C682 H674 0.930 . S
C682 C681 1.362 . S
C682 C685 1.409 . S
C683 H675 0.930 . S
C683 C684 1.355 . S
C683 C685 1.415 . S
C684 C683 1.355 . S
C684 C686 1.419 . S
C685 C680 1.425 . S
C685 C682 1.409 . S
C685 C683 1.415 . S
C686 H676 0.930 . S
C686 C684 1.419 . S
C686 C687 1.362 . S
C687 H677 0.930 . S
C687 C680 1.409 . S
C687 C686 1.362 . S
H688 C694 0.930 . S
H689 C697 0.930 . S
H690 C698 0.930 . S
H691 C699 0.930 . S
H692 C702 0.930 . S
H693 C703 0.930 . S
C694 H688 0.930 . S
C694 C695 1.355 . S
C694 C696 1.415 . S
C695 C694 1.355 . S
C695 C697 1.419 . S
C696 C694 1.415 . S
C696 C701 1.425 . S
C696 C703 1.409 . S
C697 H689 0.930 . S
C697 C695 1.419 . S
C697 C698 1.362 . S
C698 H690 0.930 . S
C698 C697 1.362 . S
C698 C701 1.409 . S
C699 H691 0.930 . S
C699 C700 1.355 . S
C699 C701 1.415 . S
C700 C699 1.355 . S
C700 C702 1.419 . S
C701 C696 1.425 . S
C701 C698 1.409 . S
C701 C699 1.415 . S
C702 H692 0.930 . S
C702 C700 1.419 . S
C702 C703 1.362 . S
C703 H693 0.930 . S
C703 C696 1.409 . S
C703 C702 1.362 . S
H704 C710 0.930 . S
H705 C713 0.930 . S
H706 C714 0.930 . S
H707 C715 0.930 . S
H708 C718 0.930 . S
H709 C719 0.930 . S
C710 H704 0.930 . S
C710 C711 1.355 . S
C710 C712 1.415 . S
C711 C710 1.355 . S
C711 C713 1.419 . S
C712 C710 1.415 . S
C712 C717 1.425 . S
C712 C719 1.409 . S
C713 H705 0.930 . S
C713 C711 1.419 . S
C713 C714 1.362 . S
C714 H706 0.930 . S
C714 C713 1.362 . S
C714 C717 1.409 . S
C715 H707 0.930 . S
C715 C716 1.355 . S
C715 C717 1.415 . S
C716 C715 1.355 . S
C716 C718 1.419 . S
C717 C712 1.425 . S
C717 C714 1.409 . S
C717 C715 1.415 . S
C718 H708 0.930 . S
C718 C716 1.419 . S
C718 C719 1.362 . S
C719 H709 0.930 . S
C719 C712 1.409 . S
C719 C718 1.362 . S
H720 C726 0.930 . S
H721 C729 0.930 1_655 S
H722 C730 0.930 1_655 S
H723 C731 0.930 . S
H724 C734 0.930 . S
H725 C735 0.930 . S
C726 H720 0.930 . S
C726 C727 1.355 . S
C726 C728 1.415 . S
C727 C726 1.355 . S
C727 C729 1.419 . S
C728 C726 1.415 . S
C728 C733 1.425 . S
C728 C735 1.409 . S
C729 H721 0.930 1_455 S
C729 C727 1.419 . S
C729 C730 1.362 . S
C730 H722 0.930 1_455 S
C730 C729 1.362 . S
C730 C733 1.409 . S
C731 H723 0.930 . S
C731 C732 1.355 . S
C731 C733 1.415 . S
C732 C731 1.355 . S
C732 C734 1.419 . S
C733 C728 1.425 . S
C733 C730 1.409 . S
C733 C731 1.415 . S
C734 H724 0.930 . S
C734 C732 1.419 . S
C734 C735 1.362 . S
C735 H725 0.930 . S
C735 C728 1.409 . S
C735 C734 1.362 . S
H736 C742 0.930 . S
H737 C745 0.930 . S
H738 C746 0.930 . S
H739 C747 0.930 . S
H740 C750 0.930 . S
H741 C751 0.930 . S
C742 H736 0.930 . S
C742 C743 1.355 . S
C742 C744 1.415 . S
C743 C742 1.355 . S
C743 C745 1.419 . S
C744 C742 1.415 . S
C744 C749 1.425 . S
C744 C751 1.409 . S
C745 H737 0.930 . S
C745 C743 1.419 . S
C745 C746 1.362 . S
C746 H738 0.930 . S
C746 C745 1.362 . S
C746 C749 1.409 . S
C747 H739 0.930 . S
C747 C748 1.355 . S
C747 C749 1.415 . S
C748 C747 1.355 . S
C748 C750 1.419 . S
C749 C744 1.425 . S
C749 C746 1.409 . S
C749 C747 1.415 . S
C750 H740 0.930 . S
C750 C748 1.419 . S
C750 C751 1.362 . S
C751 H741 0.930 . S
C751 C744 1.409 . S
C751 C750 1.362 . S
H752 C758 0.930 . S
H753 C761 0.930 . S
H754 C762 0.930 . S
H755 C763 0.930 . S
H756 C766 0.930 . S
H757 C767 0.930 . S
C758 H752 0.930 . S
C758 C759 1.355 . S
C758 C760 1.415 . S
C759 C758 1.355 . S
C759 C761 1.419 . S
C760 C758 1.415 . S
C760 C765 1.425 . S
C760 C767 1.409 . S
C761 H753 0.930 . S
C761 C759 1.419 . S
C761 C762 1.362 . S
C762 H754 0.930 . S
C762 C761 1.362 . S
C762 C765 1.409 . S
C763 H755 0.930 . S
C763 C764 1.355 . S
C763 C765 1.415 . S
C764 C763 1.355 . S
C764 C766 1.419 . S
C765 C760 1.425 . S
C765 C762 1.409 . S
C765 C763 1.415 . S
C766 H756 0.930 . S
C766 C764 1.419 . S
C766 C767 1.362 . S
C767 H757 0.930 . S
C767 C760 1.409 . S
C767 C766 1.362 . S
H768 C774 0.930 . S
H769 C777 0.930 . S
H770 C778 0.930 . S
H771 C779 0.930 . S
H772 C782 0.930 . S
H773 C783 0.930 . S
C774 H768 0.930 . S
C774 C775 1.355 . S
C774 C776 1.415 . S
C775 C774 1.355 . S
C775 C777 1.419 . S
C776 C774 1.415 . S
C776 C781 1.425 . S
C776 C783 1.409 . S
C777 H769 0.930 . S
C777 C775 1.419 . S
C777 C778 1.362 . S
C778 H770 0.930 . S
C778 C777 1.362 . S
C778 C781 1.409 . S
C779 H771 0.930 . S
C779 C780 1.355 . S
C779 C781 1.415 . S
C780 C779 1.355 . S
C780 C782 1.419 . S
C781 C776 1.425 . S
C781 C778 1.409 . S
C781 C779 1.415 . S
C782 H772 0.930 . S
C782 C780 1.419 . S
C782 C783 1.362 . S
C783 H773 0.930 . S
C783 C776 1.409 . S
C783 C782 1.362 . S
H784 C790 0.930 . S
H785 C793 0.930 . S
H786 C794 0.930 . S
H787 C795 0.930 1_455 S
H788 C798 0.930 . S
H789 C799 0.930 . S
C790 H784 0.930 . S
C790 C791 1.355 1_565 S
C790 C792 1.415 1_565 S
C791 C790 1.355 1_545 S
C791 C793 1.419 . S
C792 C790 1.415 1_545 S
C792 C797 1.425 . S
C792 C799 1.409 1_545 S
C793 H785 0.930 . S
C793 C791 1.419 . S
C793 C794 1.362 . S
C794 H786 0.930 . S
C794 C793 1.362 . S
C794 C797 1.409 . S
C795 H787 0.930 1_655 S
C795 C796 1.355 . S
C795 C797 1.415 . S
C796 C795 1.355 . S
C796 C798 1.419 1_545 S
C797 C792 1.425 . S
C797 C794 1.409 . S
C797 C795 1.415 . S
C798 H788 0.930 . S
C798 C796 1.419 1_565 S
C798 C799 1.362 . S
C799 H789 0.930 . S
C799 C792 1.409 1_565 S
C799 C798 1.362 . S
H800 C806 0.930 . S
H801 C809 0.930 . S
H802 C810 0.930 . S
H803 C811 0.930 . S
H804 C814 0.930 . S
H805 C815 0.930 . S
C806 H800 0.930 . S
C806 C807 1.355 . S
C806 C808 1.415 . S
C807 C806 1.355 . S
C807 C809 1.419 . S
C808 C806 1.415 . S
C808 C813 1.425 . S
C808 C815 1.409 . S
C809 H801 0.930 . S
C809 C807 1.419 . S
C809 C810 1.362 . S
C810 H802 0.930 . S
C810 C809 1.362 . S
C810 C813 1.409 . S
C811 H803 0.930 . S
C811 C812 1.355 . S
C811 C813 1.415 . S
C812 C811 1.355 . S
C812 C814 1.419 . S
C813 C808 1.425 . S
C813 C810 1.409 . S
C813 C811 1.415 . S
C814 H804 0.930 . S
C814 C812 1.419 . S
C814 C815 1.362 . S
C815 H805 0.930 . S
C815 C808 1.409 . S
C815 C814 1.362 . S
H816 C822 0.930 . S
H817 C825 0.930 . S
H818 C826 0.930 . S
H819 C827 0.930 . S
H820 C830 0.930 . S
H821 C831 0.930 . S
C822 H816 0.930 . S
C822 C823 1.355 1_545 S
C822 C824 1.415 . S
C823 C822 1.355 1_565 S
C823 C825 1.419 . S
C824 C822 1.415 . S
C824 C829 1.425 1_545 S
C824 C831 1.409 . S
C825 H817 0.930 . S
C825 C823 1.419 . S
C825 C826 1.362 . S
C826 H818 0.930 . S
C826 C825 1.362 . S
C826 C829 1.409 . S
C827 H819 0.930 . S
C827 C828 1.355 1_565 S
C827 C829 1.415 . S
C828 C827 1.355 1_545 S
C828 C830 1.419 . S
C829 C824 1.425 1_565 S
C829 C826 1.409 . S
C829 C827 1.415 . S
C830 H820 0.930 . S
C830 C828 1.419 . S
C830 C831 1.362 . S
C831 H821 0.930 . S
C831 C824 1.409 . S
C831 C830 1.362 . S
H832 C838 0.930 . S
H833 C841 0.930 . S
H834 C842 0.930 . S
H835 C843 0.930 . S
H836 C846 0.930 . S
H837 C847 0.930 . S
C838 H832 0.930 . S
C838 C839 1.355 . S
C838 C840 1.415 . S
C839 C838 1.355 . S
C839 C841 1.419 . S
C840 C838 1.415 . S
C840 C845 1.425 . S
C840 C847 1.409 . S
C841 H833 0.930 . S
C841 C839 1.419 . S
C841 C842 1.362 . S
C842 H834 0.930 . S
C842 C841 1.362 . S
C842 C845 1.409 . S
C843 H835 0.930 . S
C843 C844 1.355 . S
C843 C845 1.415 . S
C844 C843 1.355 . S
C844 C846 1.419 . S
C845 C840 1.425 . S
C845 C842 1.409 . S
C845 C843 1.415 . S
C846 H836 0.930 . S
C846 C844 1.419 . S
C846 C847 1.362 . S
C847 H837 0.930 . S
C847 C840 1.409 . S
C847 C846 1.362 . S
H848 C854 0.930 . S
H849 C857 0.930 . S
H850 C858 0.930 . S
H851 C859 0.930 . S
H852 C862 0.930 . S
H853 C863 0.927 1_455 S
C854 H848 0.930 . S
C854 C855 1.355 . S
C854 C856 1.415 . S
C855 C854 1.355 . S
C855 C857 1.419 . S
C856 C854 1.415 . S
C856 C861 1.425 . S
C856 C863 1.413 . S
C857 H849 0.930 . S
C857 C855 1.419 . S
C857 C858 1.362 . S
C858 H850 0.930 . S
C858 C857 1.362 . S
C858 C861 1.409 . S
C859 H851 0.930 . S
C859 C860 1.355 . S
C859 C861 1.415 . S
C860 C859 1.355 . S
C860 C862 1.419 1_655 S
C861 C856 1.425 . S
C861 C858 1.409 . S
C861 C859 1.415 . S
C862 H852 0.930 . S
C862 C860 1.419 1_455 S
C862 C863 1.362 1_455 S
C863 H853 0.927 1_655 S
C863 C856 1.413 . S
C863 C862 1.362 1_655 S
H864 C870 0.930 . S
H865 C873 0.930 . S
H866 C874 0.930 . S
H867 C875 0.930 . S
H868 C878 0.930 . S
H869 C879 0.930 . S
C870 H864 0.930 . S
C870 C871 1.355 . S
C870 C872 1.415 . S
C871 C870 1.355 . S
C871 C873 1.419 . S
C872 C870 1.415 . S
C872 C877 1.425 . S
C872 C879 1.409 . S
C873 H865 0.930 . S
C873 C871 1.419 . S
C873 C874 1.362 . S
C874 H866 0.930 . S
C874 C873 1.362 . S
C874 C877 1.409 . S
C875 H867 0.930 . S
C875 C876 1.355 . S
C875 C877 1.415 . S
C876 C875 1.355 . S
C876 C878 1.419 . S
C877 C872 1.425 . S
C877 C874 1.409 . S
C877 C875 1.415 . S
C878 H868 0.930 . S
C878 C876 1.419 . S
C878 C879 1.362 . S
C879 H869 0.930 . S
C879 C872 1.409 . S
C879 C878 1.362 . S
H880 C886 0.930 1_565 S
H881 C889 0.930 . S
H882 C890 0.930 . S
H883 C891 0.930 . S
H884 C894 0.930 . S
H885 C895 0.930 . S
C886 H880 0.930 1_545 S
C886 C887 1.355 . S
C886 C888 1.415 . S
C887 C886 1.355 . S
C887 C889 1.419 . S
C888 C886 1.415 . S
C888 C893 1.425 . S
C888 C895 1.409 . S
C889 H881 0.930 . S
C889 C887 1.419 . S
C889 C890 1.362 . S
C890 H882 0.930 . S
C890 C889 1.362 . S
C890 C893 1.409 . S
C891 H883 0.930 . S
C891 C892 1.355 . S
C891 C893 1.415 . S
C892 C891 1.355 . S
C892 C894 1.419 . S
C893 C888 1.425 . S
C893 C890 1.409 . S
C893 C891 1.415 . S
C894 H884 0.930 . S
C894 C892 1.419 . S
C894 C895 1.362 . S
C895 H885 0.930 . S
C895 C888 1.409 . S
C895 C894 1.362 . S
H896 C902 0.930 . S
H897 C905 0.930 . S
H898 C906 0.930 . S
H899 C907 0.930 . S
H900 C910 0.930 . S
H901 C911 0.930 . S
C902 H896 0.930 . S
C902 C903 1.355 . S
C902 C904 1.415 . S
C903 C902 1.355 . S
C903 C905 1.419 . S
C904 C902 1.415 . S
C904 C909 1.425 . S
C904 C911 1.409 . S
C905 H897 0.930 . S
C905 C903 1.419 . S
C905 C906 1.362 . S
C906 H898 0.930 . S
C906 C905 1.362 . S
C906 C909 1.409 . S
C907 H899 0.930 . S
C907 C908 1.355 . S
C907 C909 1.415 . S
C908 C907 1.355 . S
C908 C910 1.419 . S
C909 C904 1.425 . S
C909 C906 1.409 . S
C909 C907 1.415 . S
C910 H900 0.930 . S
C910 C908 1.419 . S
C910 C911 1.362 . S
C911 H901 0.930 . S
C911 C904 1.409 . S
C911 C910 1.362 . S
H912 C918 0.930 . S
H913 C921 0.930 . S
H914 C922 0.930 . S
H915 C923 0.930 . S
H916 C926 0.930 1_545 S
H917 C927 0.930 . S
C918 H912 0.930 . S
C918 C919 1.355 . S
C918 C920 1.415 . S
C919 C918 1.355 . S
C919 C921 1.419 . S
C920 C918 1.415 . S
C920 C925 1.425 . S
C920 C927 1.409 . S
C921 H913 0.930 . S
C921 C919 1.419 . S
C921 C922 1.362 . S
C922 H914 0.930 . S
C922 C921 1.362 . S
C922 C925 1.409 . S
C923 H915 0.930 . S
C923 C924 1.355 . S
C923 C925 1.415 . S
C924 C923 1.355 . S
C924 C926 1.419 . S
C925 C920 1.425 . S
C925 C922 1.409 . S
C925 C923 1.415 . S
C926 H916 0.930 1_565 S
C926 C924 1.419 . S
C926 C927 1.362 . S
C927 H917 0.930 . S
C927 C920 1.409 . S
C927 C926 1.362 . S
H928 C934 0.930 . S
H929 C937 0.930 . S
H930 C938 0.930 . S
H931 C939 0.930 . S
H932 C942 0.930 . S
H933 C943 0.930 . S
C934 H928 0.930 . S
C934 C935 1.355 . S
C934 C936 1.415 . S
C935 C934 1.355 . S
C935 C937 1.419 1_556 S
C936 C934 1.415 . S
C936 C941 1.425 1_556 S
C936 C943 1.409 . S
C937 H929 0.930 . S
C937 C935 1.419 1_554 S
C937 C938 1.362 . S
C938 H930 0.930 . S
C938 C937 1.362 . S
C938 C941 1.409 . S
C939 H931 0.930 . S
C939 C940 1.355 . S
C939 C941 1.415 . S
C940 C939 1.355 . S
C940 C942 1.419 1_554 S
C941 C936 1.425 1_554 S
C941 C938 1.409 . S
C941 C939 1.415 . S
C942 H932 0.930 . S
C942 C940 1.419 1_556 S
C942 C943 1.362 . S
C943 H933 0.930 . S
C943 C936 1.409 . S
C943 C942 1.362 . S
H944 C950 0.930 . S
H945 C953 0.930 . S
H946 C954 0.930 . S
H947 C955 0.930 . S
H948 C958 0.930 . S
H949 C959 0.930 . S
C950 H944 0.930 . S
C950 C951 1.355 . S
C950 C952 1.415 . S
C951 C950 1.355 . S
C951 C953 1.419 . S
C952 C950 1.415 . S
C952 C957 1.425 . S
C952 C959 1.409 . S
C953 H945 0.930 . S
C953 C951 1.419 . S
C953 C954 1.362 . S
C954 H946 0.930 . S
C954 C953 1.362 . S
C954 C957 1.409 . S
C955 H947 0.930 . S
C955 C956 1.355 . S
C955 C957 1.415 . S
C956 C955 1.355 . S
C956 C958 1.419 . S
C957 C952 1.425 . S
C957 C954 1.409 . S
C957 C955 1.415 . S
C958 H948 0.930 . S
C958 C956 1.419 . S
C958 C959 1.362 . S
C959 H949 0.930 . S
C959 C952 1.409 . S
C959 C958 1.362 . S
H960 C966 0.930 . S
H961 C969 0.930 . S
H962 C970 0.930 . S
H963 C971 0.930 . S
H964 C974 0.930 . S
H965 C975 0.930 . S
C966 H960 0.930 . S
C966 C967 1.355 . S
C966 C968 1.415 . S
C967 C966 1.355 . S
C967 C969 1.419 . S
C968 C966 1.415 . S
C968 C973 1.425 . S
C968 C975 1.409 . S
C969 H961 0.930 . S
C969 C967 1.419 . S
C969 C970 1.362 . S
C970 H962 0.930 . S
C970 C969 1.362 . S
C970 C973 1.409 . S
C971 H963 0.930 . S
C971 C972 1.355 . S
C971 C973 1.415 . S
C972 C971 1.355 . S
C972 C974 1.419 . S
C973 C968 1.425 . S
C973 C970 1.409 . S
C973 C971 1.415 . S
C974 H964 0.930 . S
C974 C972 1.419 . S
C974 C975 1.362 . S
C975 H965 0.930 . S
C975 C968 1.409 . S
C975 C974 1.362 . S
H976 C982 0.930 . S
H977 C985 0.930 . S
H978 C986 0.930 . S
H979 C987 0.930 . S
H980 C990 0.930 . S
H981 C991 0.930 . S
C982 H976 0.930 . S
C982 C983 1.355 . S
C982 C984 1.415 . S
C983 C982 1.355 . S
C983 C985 1.419 . S
C984 C982 1.415 . S
C984 C989 1.425 . S
C984 C991 1.409 . S
C985 H977 0.930 . S
C985 C983 1.419 . S
C985 C986 1.362 . S
C986 H978 0.930 . S
C986 C985 1.362 . S
C986 C989 1.409 . S
C987 H979 0.930 . S
C987 C988 1.355 . S
C987 C989 1.415 . S
C988 C987 1.355 . S
C988 C990 1.419 . S
C989 C984 1.425 . S
C989 C986 1.409 . S
C989 C987 1.415 . S
C990 H980 0.930 . S
C990 C988 1.419 . S
C990 C991 1.362 . S
C991 H981 0.930 . S
C991 C984 1.409 . S
C991 C990 1.362 . S
H992 C998 0.930 . S
H993 C1001 0.930 . S
H994 C1002 0.930 . S
H995 C1003 0.930 . S
H996 C1006 0.930 . S
H997 C1007 0.930 . S
C998 H992 0.930 . S
C998 C999 1.355 . S
C998 C1000 1.415 . S
C999 C998 1.355 . S
C999 C1001 1.419 . S
C1000 C998 1.415 . S
C1000 C1005 1.425 . S
C1000 C1007 1.409 . S
C1001 H993 0.930 . S
C1001 C999 1.419 . S
C1001 C1002 1.362 . S
C1002 H994 0.930 . S
C1002 C1001 1.362 . S
C1002 C1005 1.409 . S
C1003 H995 0.930 . S
C1003 C1004 1.355 . S
C1003 C1005 1.415 . S
C1004 C1003 1.355 . S
C1004 C1006 1.419 . S
C1005 C1000 1.425 . S
C1005 C1002 1.409 . S
C1005 C1003 1.415 . S
C1006 H996 0.930 . S
C1006 C1004 1.419 . S
C1006 C1007 1.362 . S
C1007 H997 0.930 . S
C1007 C1000 1.409 . S
C1007 C1006 1.362 . S
H1008 C1014 0.930 . S
H1009 C1017 0.930 . S
H1010 C1018 0.930 . S
H1011 C1019 0.930 . S
H1012 C1022 0.930 . S
H1013 C1023 0.930 . S
C1014 H1008 0.930 . S
C1014 C1015 1.355 . S
C1014 C1016 1.415 . S
C1015 C1014 1.355 . S
C1015 C1017 1.419 . S
C1016 C1014 1.415 . S
C1016 C1021 1.425 . S
C1016 C1023 1.409 . S
C1017 H1009 0.930 . S
C1017 C1015 1.419 . S
C1017 C1018 1.362 . S
C1018 H1010 0.930 . S
C1018 C1017 1.362 . S
C1018 C1021 1.409 . S
C1019 H1011 0.930 . S
C1019 C1020 1.355 . S
C1019 C1021 1.415 . S
C1020 C1019 1.355 . S
C1020 C1022 1.419 . S
C1021 C1016 1.425 . S
C1021 C1018 1.409 . S
C1021 C1019 1.415 . S
C1022 H1012 0.930 . S
C1022 C1020 1.419 . S
C1022 C1023 1.362 . S
C1023 H1013 0.930 . S
C1023 C1016 1.409 . S
C1023 C1022 1.362 . S
H1024 C1030 0.930 . S
H1025 C1033 0.930 . S
H1026 C1034 0.930 . S
H1027 C1035 0.930 . S
H1028 C1038 0.930 . S
H1029 C1039 0.930 . S
C1030 H1024 0.930 . S
C1030 C1031 1.355 . S
C1030 C1032 1.415 . S
C1031 C1030 1.355 . S
C1031 C1033 1.419 . S
C1032 C1030 1.415 . S
C1032 C1037 1.425 . S
C1032 C1039 1.409 . S
C1033 H1025 0.930 . S
C1033 C1031 1.419 . S
C1033 C1034 1.362 . S
C1034 H1026 0.930 . S
C1034 C1033 1.362 . S
C1034 C1037 1.409 . S
C1035 H1027 0.930 . S
C1035 C1036 1.355 . S
C1035 C1037 1.415 . S
C1036 C1035 1.355 . S
C1036 C1038 1.419 . S
C1037 C1032 1.425 . S
C1037 C1034 1.409 . S
C1037 C1035 1.415 . S
C1038 H1028 0.930 . S
C1038 C1036 1.419 . S
C1038 C1039 1.362 . S
C1039 H1029 0.930 . S
C1039 C1032 1.409 . S
C1039 C1038 1.362 . S
H1040 C1046 0.930 . S
H1041 C1049 0.930 . S
H1042 C1050 0.930 . S
H1043 C1051 0.930 . S
H1044 C1054 0.939 . S
H1045 C1055 0.930 . S
C1046 H1040 0.930 . S
C1046 C1047 1.355 . S
C1046 C1048 1.415 . S
C1047 C1046 1.355 . S
C1047 C1049 1.419 . S
C1048 C1046 1.415 . S
C1048 C1053 1.425 . S
C1048 C1055 1.409 . S
C1049 H1041 0.930 . S
C1049 C1047 1.419 . S
C1049 C1050 1.362 . S
C1050 H1042 0.930 . S
C1050 C1049 1.362 . S
C1050 C1053 1.409 . S
C1051 H1043 0.930 . S
C1051 C1052 1.355 . S
C1051 C1053 1.415 . S
C1052 C1051 1.355 . S
C1052 C1054 1.419 . S
C1053 C1048 1.425 . S
C1053 C1050 1.409 . S
C1053 C1051 1.415 . S
C1054 H1044 0.939 . S
C1054 C1052 1.419 . S
C1054 C1055 1.362 . S
C1055 H1045 0.930 . S
C1055 C1048 1.409 . S
C1055 C1054 1.362 . S
H1056 C1062 0.930 . S
H1057 C1065 0.930 . S
H1058 C1066 0.930 . S
H1059 C1067 0.930 . S
H1060 C1070 0.930 . S
H1061 C1071 0.930 . S
C1062 H1056 0.930 . S
C1062 C1063 1.355 . S
C1062 C1064 1.415 . S
C1063 C1062 1.355 . S
C1063 C1065 1.419 . S
C1064 C1062 1.415 . S
C1064 C1069 1.425 . S
C1064 C1071 1.409 . S
C1065 H1057 0.930 . S
C1065 C1063 1.419 . S
C1065 C1066 1.362 . S
C1066 H1058 0.930 . S
C1066 C1065 1.362 . S
C1066 C1069 1.409 . S
C1067 H1059 0.930 . S
C1067 C1068 1.355 . S
C1067 C1069 1.415 . S
C1068 C1067 1.355 . S
C1068 C1070 1.419 . S
C1069 C1064 1.425 . S
C1069 C1066 1.409 . S
C1069 C1067 1.415 . S
C1070 H1060 0.930 . S
C1070 C1068 1.419 . S
C1070 C1071 1.362 . S
C1071 H1061 0.930 . S
C1071 C1064 1.409 . S
C1071 C1070 1.362 . S
H1072 C1078 0.930 . S
H1073 C1081 0.930 . S
H1074 C1082 0.930 . S
H1075 C1083 0.930 . S
H1076 C1086 0.930 . S
H1077 C1087 0.930 . S
C1078 H1072 0.930 . S
C1078 C1079 1.355 . S
C1078 C1080 1.415 . S
C1079 C1078 1.355 . S
C1079 C1081 1.419 . S
C1080 C1078 1.415 . S
C1080 C1085 1.425 . S
C1080 C1087 1.409 . S
C1081 H1073 0.930 . S
C1081 C1079 1.419 . S
C1081 C1082 1.362 . S
C1082 H1074 0.930 . S
C1082 C1081 1.362 . S
C1082 C1085 1.409 . S
C1083 H1075 0.930 . S
C1083 C1084 1.355 . S
C1083 C1085 1.415 . S
C1084 C1083 1.355 . S
C1084 C1086 1.419 . S
C1085 C1080 1.425 . S
C1085 C1082 1.409 . S
C1085 C1083 1.415 . S
C1086 H1076 0.930 . S
C1086 C1084 1.419 . S
C1086 C1087 1.362 . S
C1087 H1077 0.930 . S
C1087 C1080 1.409 . S
C1087 C1086 1.362 . S
H1088 C1094 0.930 . S
H1089 C1097 0.930 . S
H1090 C1098 0.930 . S
H1091 C1099 0.930 . S
H1092 C1102 0.930 . S
H1093 C1103 0.930 . S
C1094 H1088 0.930 . S
C1094 C1095 1.355 . S
C1094 C1096 1.415 . S
C1095 C1094 1.355 . S
C1095 C1097 1.419 . S
C1096 C1094 1.415 . S
C1096 C1101 1.425 . S
C1096 C1103 1.409 . S
C1097 H1089 0.930 . S
C1097 C1095 1.419 . S
C1097 C1098 1.362 . S
C1098 H1090 0.930 . S
C1098 C1097 1.362 . S
C1098 C1101 1.409 . S
C1099 H1091 0.930 . S
C1099 C1100 1.355 . S
C1099 C1101 1.415 . S
C1100 C1099 1.355 . S
C1100 C1102 1.419 . S
C1101 C1096 1.425 . S
C1101 C1098 1.409 . S
C1101 C1099 1.415 . S
C1102 H1092 0.930 . S
C1102 C1100 1.419 . S
C1102 C1103 1.362 . S
C1103 H1093 0.930 . S
C1103 C1096 1.409 . S
C1103 C1102 1.362 . S
H1104 C1110 0.930 1_655 S
H1105 C1113 0.930 . S
H1106 C1114 0.930 . S
H1107 C1115 0.930 . S
H1108 C1118 0.930 . S
H1109 C1119 0.930 . S
C1110 H1104 0.930 1_455 S
C1110 C1111 1.355 . S
C1110 C1112 1.415 . S
C1111 C1110 1.355 . S
C1111 C1113 1.419 . S
C1112 C1110 1.415 . S
C1112 C1117 1.425 . S
C1112 C1119 1.409 1_455 S
C1113 H1105 0.930 . S
C1113 C1111 1.419 . S
C1113 C1114 1.362 . S
C1114 H1106 0.930 . S
C1114 C1113 1.362 . S
C1114 C1117 1.409 . S
C1115 H1107 0.930 . S
C1115 C1116 1.355 . S
C1115 C1117 1.415 . S
C1116 C1115 1.355 . S
C1116 C1118 1.419 1_455 S
C1117 C1112 1.425 . S
C1117 C1114 1.409 . S
C1117 C1115 1.415 . S
C1118 H1108 0.930 . S
C1118 C1116 1.419 1_655 S
C1118 C1119 1.362 . S
C1119 H1109 0.930 . S
C1119 C1112 1.409 1_655 S
C1119 C1118 1.362 . S
H1120 C1126 0.930 . S
H1121 C1129 0.930 . S
H1122 C1130 0.930 . S
H1123 C1131 0.930 . S
H1124 C1134 0.930 . S
H1125 C1135 0.930 . S
C1126 H1120 0.930 . S
C1126 C1127 1.355 . S
C1126 C1128 1.415 . S
C1127 C1126 1.355 . S
C1127 C1129 1.419 . S
C1128 C1126 1.415 . S
C1128 C1133 1.425 . S
C1128 C1135 1.409 . S
C1129 H1121 0.930 . S
C1129 C1127 1.419 . S
C1129 C1130 1.362 . S
C1130 H1122 0.930 . S
C1130 C1129 1.362 . S
C1130 C1133 1.409 . S
C1131 H1123 0.930 . S
C1131 C1132 1.355 . S
C1131 C1133 1.415 . S
C1132 C1131 1.355 . S
C1132 C1134 1.419 . S
C1133 C1128 1.425 . S
C1133 C1130 1.409 . S
C1133 C1131 1.415 . S
C1134 H1124 0.930 . S
C1134 C1132 1.419 . S
C1134 C1135 1.362 . S
C1135 H1125 0.930 . S
C1135 C1128 1.409 . S
C1135 C1134 1.362 . S
H1136 C1142 0.930 . S
H1137 C1145 0.930 . S
H1138 C1146 0.930 . S
H1139 C1147 0.930 . S
H1140 C1150 0.930 . S
H1141 C1151 0.930 . S
C1142 H1136 0.930 . S
C1142 C1143 1.355 . S
C1142 C1144 1.415 . S
C1143 C1142 1.355 . S
C1143 C1145 1.419 . S
C1144 C1142 1.415 . S
C1144 C1149 1.425 . S
C1144 C1151 1.409 1_556 S
C1145 H1137 0.930 . S
C1145 C1143 1.419 . S
C1145 C1146 1.362 . S
C1146 H1138 0.930 . S
C1146 C1145 1.362 . S
C1146 C1149 1.409 . S
C1147 H1139 0.930 . S
C1147 C1148 1.360 . S
C1147 C1149 1.415 . S
C1148 C1147 1.360 . S
C1148 C1150 1.415 1_556 S
C1149 C1144 1.425 . S
C1149 C1146 1.409 . S
C1149 C1147 1.415 . S
C1150 H1140 0.930 . S
C1150 C1148 1.415 1_554 S
C1150 C1151 1.362 . S
C1151 H1141 0.930 . S
C1151 C1144 1.409 1_554 S
C1151 C1150 1.362 . S
H1152 C1158 0.930 . S
H1153 C1161 0.930 . S
H1154 C1162 0.930 . S
H1155 C1163 0.930 . S
H1156 C1166 0.930 . S
H1157 C1167 0.930 . S
C1158 H1152 0.930 . S
C1158 C1159 1.355 . S
C1158 C1160 1.415 . S
C1159 C1158 1.355 . S
C1159 C1161 1.419 . S
C1160 C1158 1.415 . S
C1160 C1165 1.425 . S
C1160 C1167 1.409 . S
C1161 H1153 0.930 . S
C1161 C1159 1.419 . S
C1161 C1162 1.362 . S
C1162 H1154 0.930 . S
C1162 C1161 1.362 . S
C1162 C1165 1.409 . S
C1163 H1155 0.930 . S
C1163 C1164 1.355 . S
C1163 C1165 1.415 . S
C1164 C1163 1.355 . S
C1164 C1166 1.419 . S
C1165 C1160 1.425 . S
C1165 C1162 1.409 . S
C1165 C1163 1.415 . S
C1166 H1156 0.930 . S
C1166 C1164 1.419 . S
C1166 C1167 1.362 . S
C1167 H1157 0.930 . S
C1167 C1160 1.409 . S
C1167 C1166 1.362 . S
H1168 C1174 0.930 . S
H1169 C1177 0.930 . S
H1170 C1178 0.930 1_565 S
H1171 C1179 0.930 1_565 S
H1172 C1182 0.930 . S
H1173 C1183 0.930 . S
C1174 H1168 0.930 . S
C1174 C1175 1.355 . S
C1174 C1176 1.415 . S
C1175 C1174 1.355 . S
C1175 C1177 1.419 . S
C1176 C1174 1.415 . S
C1176 C1181 1.425 . S
C1176 C1183 1.409 . S
C1177 H1169 0.930 . S
C1177 C1175 1.419 . S
C1177 C1178 1.362 . S
C1178 H1170 0.930 1_545 S
C1178 C1177 1.362 . S
C1178 C1181 1.409 . S
C1179 H1171 0.930 1_545 S
C1179 C1180 1.355 . S
C1179 C1181 1.415 . S
C1180 C1179 1.355 . S
C1180 C1182 1.419 . S
C1181 C1176 1.425 . S
C1181 C1178 1.409 . S
C1181 C1179 1.415 . S
C1182 H1172 0.930 . S
C1182 C1180 1.419 . S
C1182 C1183 1.362 . S
C1183 H1173 0.930 . S
C1183 C1176 1.409 . S
C1183 C1182 1.362 . S
H1184 C1190 0.930 . S
H1185 C1193 0.930 . S
H1186 C1194 0.930 . S
H1187 C1195 0.930 . S
H1188 C1198 0.930 . S
H1189 C1199 0.930 . S
C1190 H1184 0.930 . S
C1190 C1191 1.355 . S
C1190 C1192 1.415 . S
C1191 C1190 1.355 . S
C1191 C1193 1.419 . S
C1192 C1190 1.415 . S
C1192 C1197 1.425 . S
C1192 C1199 1.409 . S
C1193 H1185 0.930 . S
C1193 C1191 1.419 . S
C1193 C1194 1.362 . S
C1194 H1186 0.930 . S
C1194 C1193 1.362 . S
C1194 C1197 1.409 . S
C1195 H1187 0.930 . S
C1195 C1196 1.355 . S
C1195 C1197 1.415 . S
C1196 C1195 1.355 . S
C1196 C1198 1.419 . S
C1197 C1192 1.425 . S
C1197 C1194 1.409 . S
C1197 C1195 1.415 . S
C1198 H1188 0.930 . S
C1198 C1196 1.419 . S
C1198 C1199 1.362 . S
C1199 H1189 0.930 . S
C1199 C1192 1.409 . S
C1199 C1198 1.362 . S
H1200 C1206 0.930 1_565 S
H1201 C1209 0.930 . S
H1202 C1210 0.930 . S
H1203 C1211 0.930 . S
H1204 C1214 0.930 . S
H1205 C1215 0.930 . S
C1206 H1200 0.930 1_545 S
C1206 C1207 1.355 . S
C1206 C1208 1.415 . S
C1207 C1206 1.355 . S
C1207 C1209 1.419 . S
C1208 C1206 1.415 . S
C1208 C1213 1.425 . S
C1208 C1215 1.409 1_545 S
C1209 H1201 0.930 . S
C1209 C1207 1.419 . S
C1209 C1210 1.362 . S
C1210 H1202 0.930 . S
C1210 C1209 1.362 . S
C1210 C1213 1.409 . S
C1211 H1203 0.930 . S
C1211 C1212 1.355 . S
C1211 C1213 1.415 . S
C1212 C1211 1.355 . S
C1212 C1214 1.419 1_545 S
C1213 C1208 1.425 . S
C1213 C1210 1.409 . S
C1213 C1211 1.415 . S
C1214 H1204 0.930 . S
C1214 C1212 1.419 1_565 S
C1214 C1215 1.362 . S
C1215 H1205 0.930 . S
C1215 C1208 1.409 1_565 S
C1215 C1214 1.362 . S
H1216 C1222 0.930 . S
H1217 C1225 0.930 . S
H1218 C1226 0.930 . S
H1219 C1227 0.930 . S
H1220 C1230 0.930 . S
H1221 C1231 0.930 . S
C1222 H1216 0.930 . S
C1222 C1223 1.355 . S
C1222 C1224 1.415 . S
C1223 C1222 1.355 . S
C1223 C1225 1.419 . S
C1224 C1222 1.415 . S
C1224 C1229 1.425 . S
C1224 C1231 1.409 . S
C1225 H1217 0.930 . S
C1225 C1223 1.419 . S
C1225 C1226 1.362 . S
C1226 H1218 0.930 . S
C1226 C1225 1.362 . S
C1226 C1229 1.409 . S
C1227 H1219 0.930 . S
C1227 C1228 1.355 . S
C1227 C1229 1.415 . S
C1228 C1227 1.355 . S
C1228 C1230 1.419 . S
C1229 C1224 1.425 . S
C1229 C1226 1.409 . S
C1229 C1227 1.415 . S
C1230 H1220 0.930 . S
C1230 C1228 1.419 . S
C1230 C1231 1.362 . S
C1231 H1221 0.930 . S
C1231 C1224 1.409 . S
C1231 C1230 1.362 . S
H1232 C1238 0.930 . S
H1233 C1241 0.930 . S
H1234 C1242 0.930 . S
H1235 C1243 0.928 . S
H1236 C1246 0.930 . S
H1237 C1247 0.930 . S
C1238 H1232 0.930 . S
C1238 C1239 1.355 . S
C1238 C1240 1.415 . S
C1239 C1238 1.355 . S
C1239 C1241 1.419 1_545 S
C1240 C1238 1.415 . S
C1240 C1245 1.425 . S
C1240 C1247 1.409 . S
C1241 H1233 0.930 . S
C1241 C1239 1.419 1_565 S
C1241 C1242 1.362 . S
C1242 H1234 0.930 . S
C1242 C1241 1.362 . S
C1242 C1245 1.409 1_565 S
C1243 H1235 0.928 . S
C1243 C1244 1.356 1_565 S
C1243 C1245 1.414 1_565 S
C1244 C1243 1.356 1_545 S
C1244 C1246 1.419 . S
C1245 C1240 1.425 . S
C1245 C1242 1.409 1_545 S
C1245 C1243 1.414 1_545 S
C1246 H1236 0.930 . S
C1246 C1244 1.419 . S
C1246 C1247 1.362 . S
C1247 H1237 0.930 . S
C1247 C1240 1.409 . S
C1247 C1246 1.362 . S
H1248 C1254 0.930 . S
H1249 C1257 0.930 . S
H1250 C1258 0.930 . S
H1251 C1259 0.930 . S
H1252 C1262 0.930 . S
H1253 C1263 0.930 . S
C1254 H1248 0.930 . S
C1254 C1255 1.355 . S
C1254 C1256 1.415 . S
C1255 C1254 1.355 . S
C1255 C1257 1.419 . S
C1256 C1254 1.415 . S
C1256 C1261 1.425 . S
C1256 C1263 1.409 . S
C1257 H1249 0.930 . S
C1257 C1255 1.419 . S
C1257 C1258 1.362 . S
C1258 H1250 0.930 . S
C1258 C1257 1.362 . S
C1258 C1261 1.409 . S
C1259 H1251 0.930 . S
C1259 C1260 1.355 . S
C1259 C1261 1.415 . S
C1260 C1259 1.355 . S
C1260 C1262 1.419 . S
C1261 C1256 1.425 . S
C1261 C1258 1.409 . S
C1261 C1259 1.415 . S
C1262 H1252 0.930 . S
C1262 C1260 1.419 . S
C1262 C1263 1.362 . S
C1263 H1253 0.930 . S
C1263 C1256 1.409 . S
C1263 C1262 1.362 . S
H1264 C1270 0.937 . S
H1265 C1273 0.930 . S
H1266 C1274 0.930 . S
H1267 C1275 0.930 . S
H1268 C1278 0.930 . S
H1269 C1279 0.930 . S
C1270 H1264 0.937 . S
C1270 C1271 1.355 . S
C1270 C1272 1.415 . S
C1271 C1270 1.355 . S
C1271 C1273 1.419 . S
C1272 C1270 1.415 . S
C1272 C1277 1.425 . S
C1272 C1279 1.409 1_545 S
C1273 H1265 0.930 . S
C1273 C1271 1.419 . S
C1273 C1274 1.362 . S
C1274 H1266 0.930 . S
C1274 C1273 1.362 . S
C1274 C1277 1.409 . S
C1275 H1267 0.930 . S
C1275 C1276 1.355 . S
C1275 C1277 1.415 . S
C1276 C1275 1.355 . S
C1276 C1278 1.419 1_545 S
C1277 C1272 1.425 . S
C1277 C1274 1.409 . S
C1277 C1275 1.415 . S
C1278 H1268 0.930 . S
C1278 C1276 1.419 1_565 S
C1278 C1279 1.362 . S
C1279 H1269 0.930 . S
C1279 C1272 1.409 1_565 S
C1279 C1278 1.362 . S
H1280 C1286 0.930 . S
H1281 C1289 0.930 . S
H1282 C1290 0.930 . S
H1283 C1291 0.930 . S
H1284 C1294 0.930 . S
H1285 C1295 0.930 . S
C1286 H1280 0.930 . S
C1286 C1287 1.355 . S
C1286 C1288 1.415 . S
C1287 C1286 1.355 . S
C1287 C1289 1.419 . S
C1288 C1286 1.415 . S
C1288 C1293 1.425 . S
C1288 C1295 1.409 . S
C1289 H1281 0.930 . S
C1289 C1287 1.419 . S
C1289 C1290 1.362 . S
C1290 H1282 0.930 . S
C1290 C1289 1.362 . S
C1290 C1293 1.409 . S
C1291 H1283 0.930 . S
C1291 C1292 1.355 . S
C1291 C1293 1.415 . S
C1292 C1291 1.355 . S
C1292 C1294 1.419 . S
C1293 C1288 1.425 . S
C1293 C1290 1.409 . S
C1293 C1291 1.415 . S
C1294 H1284 0.930 . S
C1294 C1292 1.419 . S
C1294 C1295 1.362 . S
C1295 H1285 0.930 . S
C1295 C1288 1.409 . S
C1295 C1294 1.362 . S
H1296 C1302 0.930 . S
H1297 C1305 0.930 . S
H1298 C1306 0.930 . S
H1299 C1307 0.930 . S
H1300 C1310 0.930 . S
H1301 C1311 0.930 . S
C1302 H1296 0.930 . S
C1302 C1303 1.355 . S
C1302 C1304 1.415 . S
C1303 C1302 1.355 . S
C1303 C1305 1.419 . S
C1304 C1302 1.415 . S
C1304 C1309 1.425 . S
C1304 C1311 1.409 . S
C1305 H1297 0.930 . S
C1305 C1303 1.419 . S
C1305 C1306 1.362 . S
C1306 H1298 0.930 . S
C1306 C1305 1.362 . S
C1306 C1309 1.409 . S
C1307 H1299 0.930 . S
C1307 C1308 1.355 . S
C1307 C1309 1.415 . S
C1308 C1307 1.355 . S
C1308 C1310 1.419 . S
C1309 C1304 1.425 . S
C1309 C1306 1.409 . S
C1309 C1307 1.415 . S
C1310 H1300 0.930 . S
C1310 C1308 1.419 . S
C1310 C1311 1.362 . S
C1311 H1301 0.930 . S
C1311 C1304 1.409 . S
C1311 C1310 1.362 . S
H1312 C1318 0.930 . S
H1313 C1321 0.930 . S
H1314 C1322 0.930 . S
H1315 C1323 0.930 . S
H1316 C1326 0.930 . S
H1317 C1327 0.930 . S
C1318 H1312 0.930 . S
C1318 C1319 1.355 . S
C1318 C1320 1.415 . S
C1319 C1318 1.355 . S
C1319 C1321 1.419 . S
C1320 C1318 1.415 . S
C1320 C1325 1.425 . S
C1320 C1327 1.409 . S
C1321 H1313 0.930 . S
C1321 C1319 1.419 . S
C1321 C1322 1.362 . S
C1322 H1314 0.930 . S
C1322 C1321 1.362 . S
C1322 C1325 1.409 . S
C1323 H1315 0.930 . S
C1323 C1324 1.355 . S
C1323 C1325 1.415 . S
C1324 C1323 1.355 . S
C1324 C1326 1.419 . S
C1325 C1320 1.425 . S
C1325 C1322 1.409 . S
C1325 C1323 1.415 . S
C1326 H1316 0.930 . S
C1326 C1324 1.419 . S
C1326 C1327 1.362 . S
C1327 H1317 0.930 . S
C1327 C1320 1.409 . S
C1327 C1326 1.362 . S
H1328 C1334 0.930 . S
H1329 C1337 0.930 . S
H1330 C1338 0.930 . S
H1331 C1339 0.930 . S
H1332 C1342 0.930 . S
H1333 C1343 0.930 . S
C1334 H1328 0.930 . S
C1334 C1335 1.355 . S
C1334 C1336 1.415 . S
C1335 C1334 1.355 . S
C1335 C1337 1.419 . S
C1336 C1334 1.415 . S
C1336 C1341 1.425 . S
C1336 C1343 1.409 . S
C1337 H1329 0.930 . S
C1337 C1335 1.419 . S
C1337 C1338 1.362 . S
C1338 H1330 0.930 . S
C1338 C1337 1.362 . S
C1338 C1341 1.409 . S
C1339 H1331 0.930 . S
C1339 C1340 1.355 . S
C1339 C1341 1.415 . S
C1340 C1339 1.355 . S
C1340 C1342 1.419 . S
C1341 C1336 1.425 . S
C1341 C1338 1.409 . S
C1341 C1339 1.415 . S
C1342 H1332 0.930 . S
C1342 C1340 1.419 . S
C1342 C1343 1.362 . S
C1343 H1333 0.930 . S
C1343 C1336 1.409 . S
C1343 C1342 1.362 . S
H1344 C1350 0.930 . S
H1345 C1353 0.930 . S
H1346 C1354 0.930 . S
H1347 C1355 0.930 . S
H1348 C1358 0.930 . S
H1349 C1359 0.930 . S
C1350 H1344 0.930 . S
C1350 C1351 1.355 . S
C1350 C1352 1.415 . S
C1351 C1350 1.355 . S
C1351 C1353 1.419 . S
C1352 C1350 1.415 . S
C1352 C1357 1.425 . S
C1352 C1359 1.409 . S
C1353 H1345 0.930 . S
C1353 C1351 1.419 . S
C1353 C1354 1.362 . S
C1354 H1346 0.930 . S
C1354 C1353 1.362 . S
C1354 C1357 1.409 . S
C1355 H1347 0.930 . S
C1355 C1356 1.355 . S
C1355 C1357 1.415 . S
C1356 C1355 1.355 . S
C1356 C1358 1.419 . S
C1357 C1352 1.425 . S
C1357 C1354 1.409 . S
C1357 C1355 1.415 . S
C1358 H1348 0.930 . S
C1358 C1356 1.419 . S
C1358 C1359 1.362 . S
C1359 H1349 0.930 . S
C1359 C1352 1.409 . S
C1359 C1358 1.362 . S
H1360 C1366 0.930 . S
H1361 C1369 0.930 . S
H1362 C1370 0.930 . S
H1363 C1371 0.930 . S
H1364 C1374 0.930 . S
H1365 C1375 0.930 . S
C1366 H1360 0.930 . S
C1366 C1367 1.355 . S
C1366 C1368 1.415 . S
C1367 C1366 1.355 . S
C1367 C1369 1.419 . S
C1368 C1366 1.415 . S
C1368 C1373 1.425 . S
C1368 C1375 1.409 . S
C1369 H1361 0.930 . S
C1369 C1367 1.419 . S
C1369 C1370 1.362 . S
C1370 H1362 0.930 . S
C1370 C1369 1.362 . S
C1370 C1373 1.409 . S
C1371 H1363 0.930 . S
C1371 C1372 1.355 . S
C1371 C1373 1.415 . S
C1372 C1371 1.355 . S
C1372 C1374 1.419 . S
C1373 C1368 1.425 . S
C1373 C1370 1.409 . S
C1373 C1371 1.415 . S
C1374 H1364 0.930 . S
C1374 C1372 1.419 . S
C1374 C1375 1.362 . S
C1375 H1365 0.930 . S
C1375 C1368 1.409 . S
C1375 C1374 1.362 . S
H1376 C1382 0.930 . S
H1377 C1385 0.930 . S
H1378 C1386 0.930 . S
H1379 C1387 0.930 . S
H1380 C1390 0.930 . S
H1381 C1391 0.930 . S
C1382 H1376 0.930 . S
C1382 C1383 1.355 . S
C1382 C1384 1.415 . S
C1383 C1382 1.355 . S
C1383 C1385 1.419 . S
C1384 C1382 1.415 . S
C1384 C1389 1.425 . S
C1384 C1391 1.409 . S
C1385 H1377 0.930 . S
C1385 C1383 1.419 . S
C1385 C1386 1.362 . S
C1386 H1378 0.930 . S
C1386 C1385 1.362 . S
C1386 C1389 1.409 . S
C1387 H1379 0.930 . S
C1387 C1388 1.355 . S
C1387 C1389 1.415 . S
C1388 C1387 1.355 . S
C1388 C1390 1.419 . S
C1389 C1384 1.425 . S
C1389 C1386 1.409 . S
C1389 C1387 1.415 . S
C1390 H1380 0.930 . S
C1390 C1388 1.419 . S
C1390 C1391 1.362 . S
C1391 H1381 0.930 . S
C1391 C1384 1.409 . S
C1391 C1390 1.362 . S
H1392 C1398 0.930 . S
H1393 C1401 0.930 . S
H1394 C1402 0.930 . S
H1395 C1403 0.930 . S
H1396 C1406 0.930 . S
H1397 C1407 0.930 . S
C1398 H1392 0.930 . S
C1398 C1399 1.355 . S
C1398 C1400 1.415 . S
C1399 C1398 1.355 . S
C1399 C1401 1.419 . S
C1400 C1398 1.415 . S
C1400 C1405 1.425 . S
C1400 C1407 1.409 . S
C1401 H1393 0.930 . S
C1401 C1399 1.419 . S
C1401 C1402 1.362 . S
C1402 H1394 0.930 . S
C1402 C1401 1.362 . S
C1402 C1405 1.409 . S
C1403 H1395 0.930 . S
C1403 C1404 1.355 . S
C1403 C1405 1.415 . S
C1404 C1403 1.355 . S
C1404 C1406 1.419 . S
C1405 C1400 1.425 . S
C1405 C1402 1.409 . S
C1405 C1403 1.415 . S
C1406 H1396 0.930 . S
C1406 C1404 1.419 . S
C1406 C1407 1.362 . S
C1407 H1397 0.930 . S
C1407 C1400 1.409 . S
C1407 C1406 1.362 . S
H1408 C1414 0.930 . S
H1409 C1417 0.930 . S
H1410 C1418 0.930 . S
H1411 C1419 0.930 . S
H1412 C1422 0.930 . S
H1413 C1423 0.930 . S
C1414 H1408 0.930 . S
C1414 C1415 1.355 . S
C1414 C1416 1.415 . S
C1415 C1414 1.355 . S
C1415 C1417 1.419 . S
C1416 C1414 1.415 . S
C1416 C1421 1.425 . S
C1416 C1423 1.409 . S
C1417 H1409 0.930 . S
C1417 C1415 1.419 . S
C1417 C1418 1.362 . S
C1418 H1410 0.930 . S
C1418 C1417 1.362 . S
C1418 C1421 1.409 . S
C1419 H1411 0.930 . S
C1419 C1420 1.355 . S
C1419 C1421 1.415 . S
C1420 C1419 1.355 . S
C1420 C1422 1.419 . S
C1421 C1416 1.425 . S
C1421 C1418 1.409 . S
C1421 C1419 1.415 . S
C1422 H1412 0.930 . S
C1422 C1420 1.419 . S
C1422 C1423 1.362 . S
C1423 H1413 0.930 . S
C1423 C1416 1.409 . S
C1423 C1422 1.362 . S
H1424 C1430 0.930 . S
H1425 C1433 0.930 . S
H1426 C1434 0.930 . S
H1427 C1435 0.930 . S
H1428 C1438 0.930 . S
H1429 C1439 0.930 . S
C1430 H1424 0.930 . S
C1430 C1431 1.355 . S
C1430 C1432 1.415 . S
C1431 C1430 1.355 . S
C1431 C1433 1.419 . S
C1432 C1430 1.415 . S
C1432 C1437 1.425 . S
C1432 C1439 1.409 . S
C1433 H1425 0.930 . S
C1433 C1431 1.419 . S
C1433 C1434 1.362 . S
C1434 H1426 0.930 . S
C1434 C1433 1.362 . S
C1434 C1437 1.409 . S
C1435 H1427 0.930 . S
C1435 C1436 1.355 . S
C1435 C1437 1.415 . S
C1436 C1435 1.355 . S
C1436 C1438 1.419 . S
C1437 C1432 1.425 . S
C1437 C1434 1.409 . S
C1437 C1435 1.415 . S
C1438 H1428 0.930 . S
C1438 C1436 1.419 . S
C1438 C1439 1.362 . S
C1439 H1429 0.930 . S
C1439 C1432 1.409 . S
C1439 C1438 1.362 . S
H1440 C1446 0.930 . S
H1441 C1449 0.930 . S
H1442 C1450 0.930 . S
H1443 C1451 0.930 . S
H1444 C1454 0.930 . S
H1445 C1455 0.930 . S
C1446 H1440 0.930 . S
C1446 C1447 1.355 . S
C1446 C1448 1.415 . S
C1447 C1446 1.355 . S
C1447 C1449 1.419 . S
C1448 C1446 1.415 . S
C1448 C1453 1.425 . S
C1448 C1455 1.409 . S
C1449 H1441 0.930 . S
C1449 C1447 1.419 . S
C1449 C1450 1.362 . S
C1450 H1442 0.930 . S
C1450 C1449 1.362 . S
C1450 C1453 1.409 . S
C1451 H1443 0.930 . S
C1451 C1452 1.355 . S
C1451 C1453 1.415 . S
C1452 C1451 1.355 . S
C1452 C1454 1.419 . S
C1453 C1448 1.425 . S
C1453 C1450 1.409 . S
C1453 C1451 1.415 . S
C1454 H1444 0.930 . S
C1454 C1452 1.419 . S
C1454 C1455 1.362 . S
C1455 H1445 0.930 . S
C1455 C1448 1.409 . S
C1455 C1454 1.362 . S
H1456 C1462 0.930 . S
H1457 C1465 0.930 . S
H1458 C1466 0.930 . S
H1459 C1467 0.930 . S
H1460 C1470 0.930 . S
H1461 C1471 0.930 . S
C1462 H1456 0.930 . S
C1462 C1463 1.355 1_655 S
C1462 C1464 1.415 . S
C1463 C1462 1.355 1_455 S
C1463 C1465 1.419 . S
C1464 C1462 1.415 . S
C1464 C1469 1.425 1_655 S
C1464 C1471 1.409 . S
C1465 H1457 0.930 . S
C1465 C1463 1.419 . S
C1465 C1466 1.362 . S
C1466 H1458 0.930 . S
C1466 C1465 1.362 . S
C1466 C1469 1.409 . S
C1467 H1459 0.930 . S
C1467 C1468 1.390 . S
C1467 C1469 1.415 . S
C1468 C1467 1.390 . S
C1468 C1470 1.386 1_455 S
C1469 C1464 1.425 1_455 S
C1469 C1466 1.409 . S
C1469 C1467 1.415 . S
C1470 H1460 0.930 . S
C1470 C1468 1.386 1_655 S
C1470 C1471 1.362 . S
C1471 H1461 0.930 . S
C1471 C1464 1.409 . S
C1471 C1470 1.362 . S
H1472 C1478 0.930 . S
H1473 C1481 0.930 . S
H1474 C1482 0.930 . S
H1475 C1483 0.930 . S
H1476 C1486 0.930 . S
H1477 C1487 0.930 . S
C1478 H1472 0.930 . S
C1478 C1479 1.355 . S
C1478 C1480 1.415 . S
C1479 C1478 1.355 . S
C1479 C1481 1.419 . S
C1480 C1478 1.415 . S
C1480 C1485 1.425 . S
C1480 C1487 1.409 . S
C1481 H1473 0.930 . S
C1481 C1479 1.419 . S
C1481 C1482 1.362 . S
C1482 H1474 0.930 . S
C1482 C1481 1.362 . S
C1482 C1485 1.409 . S
C1483 H1475 0.930 . S
C1483 C1484 1.355 . S
C1483 C1485 1.415 . S
C1484 C1483 1.355 . S
C1484 C1486 1.419 . S
C1485 C1480 1.425 . S
C1485 C1482 1.409 . S
C1485 C1483 1.415 . S
C1486 H1476 0.930 . S
C1486 C1484 1.419 . S
C1486 C1487 1.362 . S
C1487 H1477 0.930 . S
C1487 C1480 1.409 . S
C1487 C1486 1.362 . S
H1488 C1494 0.930 . S
H1489 C1497 0.930 . S
H1490 C1498 0.930 . S
H1491 C1499 0.930 . S
H1492 C1502 0.930 . S
H1493 C1503 0.930 . S
C1494 H1488 0.930 . S
C1494 C1495 1.355 . S
C1494 C1496 1.415 . S
C1495 C1494 1.355 . S
C1495 C1497 1.419 . S
C1496 C1494 1.415 . S
C1496 C1501 1.425 . S
C1496 C1503 1.409 . S
C1497 H1489 0.930 . S
C1497 C1495 1.419 . S
C1497 C1498 1.362 . S
C1498 H1490 0.930 . S
C1498 C1497 1.362 . S
C1498 C1501 1.409 . S
C1499 H1491 0.930 . S
C1499 C1500 1.355 . S
C1499 C1501 1.415 . S
C1500 C1499 1.355 . S
C1500 C1502 1.419 . S
C1501 C1496 1.425 . S
C1501 C1498 1.409 . S
C1501 C1499 1.415 . S
C1502 H1492 0.930 . S
C1502 C1500 1.419 . S
C1502 C1503 1.362 . S
C1503 H1493 0.930 . S
C1503 C1496 1.409 . S
C1503 C1502 1.362 . S
H1504 C1510 0.930 . S
H1505 C1513 0.930 . S
H1506 C1514 0.930 . S
H1507 C1515 0.930 . S
H1508 C1518 0.930 . S
H1509 C1519 0.930 . S
C1510 H1504 0.930 . S
C1510 C1511 1.355 . S
C1510 C1512 1.415 . S
C1511 C1510 1.355 . S
C1511 C1513 1.419 . S
C1512 C1510 1.415 . S
C1512 C1517 1.425 . S
C1512 C1519 1.409 . S
C1513 H1505 0.930 . S
C1513 C1511 1.419 . S
C1513 C1514 1.362 . S
C1514 H1506 0.930 . S
C1514 C1513 1.362 . S
C1514 C1517 1.409 . S
C1515 H1507 0.930 . S
C1515 C1516 1.355 . S
C1515 C1517 1.415 . S
C1516 C1515 1.355 . S
C1516 C1518 1.419 . S
C1517 C1512 1.425 . S
C1517 C1514 1.409 . S
C1517 C1515 1.415 . S
C1518 H1508 0.930 . S
C1518 C1516 1.419 . S
C1518 C1519 1.362 . S
C1519 H1509 0.930 . S
C1519 C1512 1.409 . S
C1519 C1518 1.362 . S
H1520 C1526 0.930 . S
H1521 C1529 0.930 . S
H1522 C1530 0.930 . S
H1523 C1531 0.930 . S
H1524 C1534 0.930 . S
H1525 C1535 0.930 . S
C1526 H1520 0.930 . S
C1526 C1527 1.355 1_455 S
C1526 C1528 1.415 . S
C1527 C1526 1.355 1_655 S
C1527 C1529 1.419 . S
C1528 C1526 1.415 . S
C1528 C1533 1.425 . S
C1528 C1535 1.409 . S
C1529 H1521 0.930 . S
C1529 C1527 1.419 . S
C1529 C1530 1.362 . S
C1530 H1522 0.930 . S
C1530 C1529 1.362 . S
C1530 C1533 1.409 1_655 S
C1531 H1523 0.930 . S
C1531 C1532 1.355 . S
C1531 C1533 1.415 . S
C1532 C1531 1.355 . S
C1532 C1534 1.419 . S
C1533 C1528 1.425 . S
C1533 C1530 1.409 1_455 S
C1533 C1531 1.415 . S
C1534 H1524 0.930 . S
C1534 C1532 1.419 . S
C1534 C1535 1.362 . S
C1535 H1525 0.930 . S
C1535 C1528 1.409 . S
C1535 C1534 1.362 . S
H1536 C1542 0.930 . S
H1537 C1545 0.930 . S
H1538 C1546 0.930 . S
H1539 C1547 0.930 . S
H1540 C1550 0.930 . S
H1541 C1551 0.930 . S
C1542 H1536 0.930 . S
C1542 C1543 1.355 . S
C1542 C1544 1.415 . S
C1543 C1542 1.355 . S
C1543 C1545 1.419 . S
C1544 C1542 1.415 . S
C1544 C1549 1.425 . S
C1544 C1551 1.409 . S
C1545 H1537 0.930 . S
C1545 C1543 1.419 . S
C1545 C1546 1.362 . S
C1546 H1538 0.930 . S
C1546 C1545 1.362 . S
C1546 C1549 1.409 . S
C1547 H1539 0.930 . S
C1547 C1548 1.355 . S
C1547 C1549 1.415 . S
C1548 C1547 1.355 . S
C1548 C1550 1.419 . S
C1549 C1544 1.425 . S
C1549 C1546 1.409 . S
C1549 C1547 1.415 . S
C1550 H1540 0.930 . S
C1550 C1548 1.419 . S
C1550 C1551 1.362 . S
C1551 H1541 0.930 . S
C1551 C1544 1.409 . S
C1551 C1550 1.362 . S
H1552 C1558 0.930 . S
H1553 C1561 0.930 . S
H1554 C1562 0.930 . S
H1555 C1563 0.930 . S
H1556 C1566 0.930 . S
H1557 C1567 0.930 . S
C1558 H1552 0.930 . S
C1558 C1559 1.355 . S
C1558 C1560 1.415 . S
C1559 C1558 1.355 . S
C1559 C1561 1.419 . S
C1560 C1558 1.415 . S
C1560 C1565 1.425 . S
C1560 C1567 1.409 . S
C1561 H1553 0.930 . S
C1561 C1559 1.419 . S
C1561 C1562 1.362 . S
C1562 H1554 0.930 . S
C1562 C1561 1.362 . S
C1562 C1565 1.409 . S
C1563 H1555 0.930 . S
C1563 C1564 1.355 . S
C1563 C1565 1.415 . S
C1564 C1563 1.355 . S
C1564 C1566 1.419 . S
C1565 C1560 1.425 . S
C1565 C1562 1.409 . S
C1565 C1563 1.415 . S
C1566 H1556 0.930 . S
C1566 C1564 1.419 . S
C1566 C1567 1.362 . S
C1567 H1557 0.930 . S
C1567 C1560 1.409 . S
C1567 C1566 1.362 . S
H1568 C1574 0.930 . S
H1569 C1577 0.930 . S
H1570 C1578 0.930 . S
H1571 C1579 0.930 . S
H1572 C1582 0.930 . S
H1573 C1583 0.930 . S
C1574 H1568 0.930 . S
C1574 C1575 1.355 . S
C1574 C1576 1.415 . S
C1575 C1574 1.355 . S
C1575 C1577 1.419 . S
C1576 C1574 1.415 . S
C1576 C1581 1.425 . S
C1576 C1583 1.409 . S
C1577 H1569 0.930 . S
C1577 C1575 1.419 . S
C1577 C1578 1.362 . S
C1578 H1570 0.930 . S
C1578 C1577 1.362 . S
C1578 C1581 1.409 . S
C1579 H1571 0.930 . S
C1579 C1580 1.355 . S
C1579 C1581 1.415 . S
C1580 C1579 1.355 . S
C1580 C1582 1.419 . S
C1581 C1576 1.425 . S
C1581 C1578 1.409 . S
C1581 C1579 1.415 . S
C1582 H1572 0.930 . S
C1582 C1580 1.419 . S
C1582 C1583 1.362 . S
C1583 H1573 0.930 . S
C1583 C1576 1.409 . S
C1583 C1582 1.362 . S
H1584 C1590 0.930 . S
H1585 C1593 0.930 . S
H1586 C1594 0.930 . S
H1587 C1595 0.930 . S
H1588 C1598 0.930 . S
H1589 C1599 0.930 . S
C1590 H1584 0.930 . S
C1590 C1591 1.355 . S
C1590 C1592 1.415 . S
C1591 C1590 1.355 . S
C1591 C1593 1.419 . S
C1592 C1590 1.415 . S
C1592 C1597 1.425 . S
C1592 C1599 1.409 . S
C1593 H1585 0.930 . S
C1593 C1591 1.419 . S
C1593 C1594 1.362 . S
C1594 H1586 0.930 . S
C1594 C1593 1.362 . S
C1594 C1597 1.409 . S
C1595 H1587 0.930 . S
C1595 C1596 1.355 . S
C1595 C1597 1.415 . S
C1596 C1595 1.355 . S
C1596 C1598 1.419 . S
C1597 C1592 1.425 . S
C1597 C1594 1.409 . S
C1597 C1595 1.415 . S
C1598 H1588 0.930 . S
C1598 C1596 1.419 . S
C1598 C1599 1.362 . S
C1599 H1589 0.930 . S
C1599 C1592 1.409 . S
C1599 C1598 1.362 . S
H1600 C1606 0.930 . S
H1601 C1609 0.930 . S
H1602 C1610 0.930 . S
H1603 C1611 0.930 . S
H1604 C1614 0.930 . S
H1605 C1615 0.930 . S
C1606 H1600 0.930 . S
C1606 C1607 1.355 . S
C1606 C1608 1.415 . S
C1607 C1606 1.355 . S
C1607 C1609 1.419 . S
C1608 C1606 1.415 . S
C1608 C1613 1.425 . S
C1608 C1615 1.409 . S
C1609 H1601 0.930 . S
C1609 C1607 1.419 . S
C1609 C1610 1.362 . S
C1610 H1602 0.930 . S
C1610 C1609 1.362 . S
C1610 C1613 1.409 . S
C1611 H1603 0.930 . S
C1611 C1612 1.355 . S
C1611 C1613 1.415 . S
C1612 C1611 1.355 . S
C1612 C1614 1.419 . S
C1613 C1608 1.425 . S
C1613 C1610 1.409 . S
C1613 C1611 1.415 . S
C1614 H1604 0.930 . S
C1614 C1612 1.419 . S
C1614 C1615 1.362 . S
C1615 H1605 0.930 . S
C1615 C1608 1.409 . S
C1615 C1614 1.362 . S
H1616 C1622 0.930 . S
H1617 C1625 0.930 . S
H1618 C1626 0.930 . S
H1619 C1627 0.930 . S
H1620 C1630 0.930 . S
H1621 C1631 0.930 . S
C1622 H1616 0.930 . S
C1622 C1623 1.355 . S
C1622 C1624 1.415 . S
C1623 C1622 1.355 . S
C1623 C1625 1.419 . S
C1624 C1622 1.415 . S
C1624 C1629 1.425 . S
C1624 C1631 1.409 . S
C1625 H1617 0.930 . S
C1625 C1623 1.419 . S
C1625 C1626 1.362 . S
C1626 H1618 0.930 . S
C1626 C1625 1.362 . S
C1626 C1629 1.409 . S
C1627 H1619 0.930 . S
C1627 C1628 1.355 . S
C1627 C1629 1.415 . S
C1628 C1627 1.355 . S
C1628 C1630 1.419 . S
C1629 C1624 1.425 . S
C1629 C1626 1.409 . S
C1629 C1627 1.415 . S
C1630 H1620 0.930 . S
C1630 C1628 1.419 . S
C1630 C1631 1.362 . S
C1631 H1621 0.930 . S
C1631 C1624 1.409 . S
C1631 C1630 1.362 . S
H1632 C1638 0.930 . S
H1633 C1641 0.930 . S
H1634 C1642 0.930 . S
H1635 C1643 0.930 . S
H1636 C1646 0.930 . S
H1637 C1647 0.930 . S
C1638 H1632 0.930 . S
C1638 C1639 1.355 . S
C1638 C1640 1.415 . S
C1639 C1638 1.355 . S
C1639 C1641 1.419 . S
C1640 C1638 1.415 . S
C1640 C1645 1.425 . S
C1640 C1647 1.409 . S
C1641 H1633 0.930 . S
C1641 C1639 1.419 . S
C1641 C1642 1.362 . S
C1642 H1634 0.930 . S
C1642 C1641 1.362 . S
C1642 C1645 1.409 . S
C1643 H1635 0.930 . S
C1643 C1644 1.355 . S
C1643 C1645 1.415 . S
C1644 C1643 1.355 . S
C1644 C1646 1.419 . S
C1645 C1640 1.425 . S
C1645 C1642 1.409 . S
C1645 C1643 1.415 . S
C1646 H1636 0.930 . S
C1646 C1644 1.419 . S
C1646 C1647 1.362 . S
C1647 H1637 0.930 . S
C1647 C1640 1.409 . S
C1647 C1646 1.362 . S
H1648 C1654 0.930 . S
H1649 C1657 0.930 . S
H1650 C1658 0.930 . S
H1651 C1659 0.930 . S
H1652 C1662 0.930 . S
H1653 C1663 0.930 . S
C1654 H1648 0.930 . S
C1654 C1655 1.355 . S
C1654 C1656 1.415 . S
C1655 C1654 1.355 . S
C1655 C1657 1.419 . S
C1656 C1654 1.415 . S
C1656 C1661 1.425 . S
C1656 C1663 1.409 . S
C1657 H1649 0.930 . S
C1657 C1655 1.419 . S
C1657 C1658 1.362 . S
C1658 H1650 0.930 . S
C1658 C1657 1.362 . S
C1658 C1661 1.409 . S
C1659 H1651 0.930 . S
C1659 C1660 1.355 . S
C1659 C1661 1.415 . S
C1660 C1659 1.355 . S
C1660 C1662 1.419 . S
C1661 C1656 1.425 . S
C1661 C1658 1.409 . S
C1661 C1659 1.415 . S
C1662 H1652 0.930 . S
C1662 C1660 1.419 . S
C1662 C1663 1.362 . S
C1663 H1653 0.930 . S
C1663 C1656 1.409 . S
C1663 C1662 1.362 . S
H1664 C1670 0.930 . S
H1665 C1673 0.930 . S
H1666 C1674 0.930 . S
H1667 C1675 0.930 . S
H1668 C1678 0.930 . S
H1669 C1679 0.930 . S
C1670 H1664 0.930 . S
C1670 C1671 1.355 . S
C1670 C1672 1.415 . S
C1671 C1670 1.355 . S
C1671 C1673 1.419 . S
C1672 C1670 1.415 . S
C1672 C1677 1.425 . S
C1672 C1679 1.409 . S
C1673 H1665 0.930 . S
C1673 C1671 1.419 . S
C1673 C1674 1.362 . S
C1674 H1666 0.930 . S
C1674 C1673 1.362 . S
C1674 C1677 1.409 . S
C1675 H1667 0.930 . S
C1675 C1676 1.355 . S
C1675 C1677 1.415 . S
C1676 C1675 1.355 . S
C1676 C1678 1.419 . S
C1677 C1672 1.425 . S
C1677 C1674 1.409 . S
C1677 C1675 1.415 . S
C1678 H1668 0.930 . S
C1678 C1676 1.419 . S
C1678 C1679 1.362 . S
C1679 H1669 0.930 . S
C1679 C1672 1.409 . S
C1679 C1678 1.362 . S
H1680 C1686 0.930 . S
H1681 C1689 0.930 . S
H1682 C1690 0.930 . S
H1683 C1691 0.930 . S
H1684 C1694 0.930 . S
H1685 C1695 0.930 . S
C1686 H1680 0.930 . S
C1686 C1687 1.355 . S
C1686 C1688 1.415 . S
C1687 C1686 1.355 . S
C1687 C1689 1.419 . S
C1688 C1686 1.415 . S
C1688 C1693 1.425 . S
C1688 C1695 1.409 . S
C1689 H1681 0.930 . S
C1689 C1687 1.419 . S
C1689 C1690 1.362 . S
C1690 H1682 0.930 . S
C1690 C1689 1.362 . S
C1690 C1693 1.409 . S
C1691 H1683 0.930 . S
C1691 C1692 1.355 . S
C1691 C1693 1.415 . S
C1692 C1691 1.355 . S
C1692 C1694 1.419 . S
C1693 C1688 1.425 . S
C1693 C1690 1.409 . S
C1693 C1691 1.415 . S
C1694 H1684 0.930 . S
C1694 C1692 1.419 . S
C1694 C1695 1.362 . S
C1695 H1685 0.930 . S
C1695 C1688 1.409 . S
C1695 C1694 1.362 . S
H1696 C1702 0.930 . S
H1697 C1705 0.930 . S
H1698 C1706 0.930 . S
H1699 C1707 0.930 . S
H1700 C1710 0.930 . S
H1701 C1711 0.930 . S
C1702 H1696 0.930 . S
C1702 C1703 1.355 . S
C1702 C1704 1.415 . S
C1703 C1702 1.355 . S
C1703 C1705 1.419 . S
C1704 C1702 1.415 . S
C1704 C1709 1.425 . S
C1704 C1711 1.409 . S
C1705 H1697 0.930 . S
C1705 C1703 1.419 . S
C1705 C1706 1.362 . S
C1706 H1698 0.930 . S
C1706 C1705 1.362 . S
C1706 C1709 1.409 . S
C1707 H1699 0.930 . S
C1707 C1708 1.355 . S
C1707 C1709 1.415 . S
C1708 C1707 1.355 . S
C1708 C1710 1.419 . S
C1709 C1704 1.425 . S
C1709 C1706 1.409 . S
C1709 C1707 1.415 . S
C1710 H1700 0.930 . S
C1710 C1708 1.419 . S
C1710 C1711 1.362 . S
C1711 H1701 0.930 . S
C1711 C1704 1.409 . S
C1711 C1710 1.362 . S
H1712 C1718 0.930 . S
H1713 C1721 0.930 . S
H1714 C1722 0.930 . S
H1715 C1723 0.930 . S
H1716 C1726 0.930 . S
H1717 C1727 0.930 . S
C1718 H1712 0.930 . S
C1718 C1719 1.355 . S
C1718 C1720 1.415 . S
C1719 C1718 1.355 . S
C1719 C1721 1.419 . S
C1720 C1718 1.415 . S
C1720 C1725 1.425 . S
C1720 C1727 1.409 . S
C1721 H1713 0.930 . S
C1721 C1719 1.419 . S
C1721 C1722 1.362 . S
C1722 H1714 0.930 . S
C1722 C1721 1.362 . S
C1722 C1725 1.409 . S
C1723 H1715 0.930 . S
C1723 C1724 1.355 . S
C1723 C1725 1.415 . S
C1724 C1723 1.355 . S
C1724 C1726 1.419 . S
C1725 C1720 1.425 . S
C1725 C1722 1.409 . S
C1725 C1723 1.415 . S
C1726 H1716 0.930 . S
C1726 C1724 1.419 . S
C1726 C1727 1.362 . S
C1727 H1717 0.930 . S
C1727 C1720 1.409 . S
C1727 C1726 1.362 . S
H1728 C1734 0.930 . S
H1729 C1737 0.930 . S
H1730 C1738 0.930 . S
H1731 C1739 0.930 1_545 S
H1732 C1742 0.930 . S
H1733 C1743 0.930 . S
C1734 H1728 0.930 . S
C1734 C1735 1.355 . S
C1734 C1736 1.415 . S
C1735 C1734 1.355 . S
C1735 C1737 1.419 . S
C1736 C1734 1.415 . S
C1736 C1741 1.425 . S
C1736 C1743 1.409 . S
C1737 H1729 0.930 . S
C1737 C1735 1.419 . S
C1737 C1738 1.362 . S
C1738 H1730 0.930 . S
C1738 C1737 1.362 . S
C1738 C1741 1.409 . S
C1739 H1731 0.930 1_565 S
C1739 C1740 1.355 . S
C1739 C1741 1.415 . S
C1740 C1739 1.355 . S
C1740 C1742 1.419 . S
C1741 C1736 1.425 . S
C1741 C1738 1.409 . S
C1741 C1739 1.415 . S
C1742 H1732 0.930 . S
C1742 C1740 1.419 . S
C1742 C1743 1.362 . S
C1743 H1733 0.930 . S
C1743 C1736 1.409 . S
C1743 C1742 1.362 . S
H1744 C1750 0.930 . S
H1745 C1753 0.930 . S
H1746 C1754 0.930 . S
H1747 C1755 0.930 . S
H1748 C1758 0.930 . S
H1749 C1759 0.930 . S
C1750 H1744 0.930 . S
C1750 C1751 1.355 . S
C1750 C1752 1.415 . S
C1751 C1750 1.355 . S
C1751 C1753 1.419 . S
C1752 C1750 1.415 . S
C1752 C1757 1.425 . S
C1752 C1759 1.409 . S
C1753 H1745 0.930 . S
C1753 C1751 1.419 . S
C1753 C1754 1.362 . S
C1754 H1746 0.930 . S
C1754 C1753 1.362 . S
C1754 C1757 1.409 . S
C1755 H1747 0.930 . S
C1755 C1756 1.355 . S
C1755 C1757 1.415 . S
C1756 C1755 1.355 . S
C1756 C1758 1.419 . S
C1757 C1752 1.425 . S
C1757 C1754 1.409 . S
C1757 C1755 1.415 . S
C1758 H1748 0.930 . S
C1758 C1756 1.419 . S
C1758 C1759 1.362 . S
C1759 H1749 0.930 . S
C1759 C1752 1.409 . S
C1759 C1758 1.362 . S
H1760 C1766 0.930 . S
H1761 C1769 0.930 . S
H1762 C1770 0.930 . S
H1763 C1771 0.930 . S
H1764 C1774 0.930 . S
H1765 C1775 0.930 . S
C1766 H1760 0.930 . S
C1766 C1767 1.355 . S
C1766 C1768 1.415 . S
C1767 C1766 1.355 . S
C1767 C1769 1.419 1_554 S
C1768 C1766 1.415 . S
C1768 C1773 1.425 . S
C1768 C1775 1.409 . S
C1769 H1761 0.930 . S
C1769 C1767 1.419 1_556 S
C1769 C1770 1.362 . S
C1770 H1762 0.930 . S
C1770 C1769 1.362 . S
C1770 C1773 1.409 1_556 S
C1771 H1763 0.930 . S
C1771 C1772 1.355 . S
C1771 C1773 1.415 . S
C1772 C1771 1.355 . S
C1772 C1774 1.419 . S
C1773 C1768 1.425 . S
C1773 C1770 1.409 1_554 S
C1773 C1771 1.415 . S
C1774 H1764 0.930 . S
C1774 C1772 1.419 . S
C1774 C1775 1.362 . S
C1775 H1765 0.930 . S
C1775 C1768 1.409 . S
C1775 C1774 1.362 . S
H1776 C1782 0.930 . S
H1777 C1785 0.930 . S
H1778 C1786 0.930 . S
H1779 C1787 0.930 . S
H1780 C1790 0.930 . S
H1781 C1791 0.930 . S
C1782 H1776 0.930 . S
C1782 C1783 1.355 . S
C1782 C1784 1.415 . S
C1783 C1782 1.355 . S
C1783 C1785 1.419 . S
C1784 C1782 1.415 . S
C1784 C1789 1.425 . S
C1784 C1791 1.409 . S
C1785 H1777 0.930 . S
C1785 C1783 1.419 . S
C1785 C1786 1.362 . S
C1786 H1778 0.930 . S
C1786 C1785 1.362 . S
C1786 C1789 1.409 . S
C1787 H1779 0.930 . S
C1787 C1788 1.355 . S
C1787 C1789 1.415 . S
C1788 C1787 1.355 . S
C1788 C1790 1.419 . S
C1789 C1784 1.425 . S
C1789 C1786 1.409 . S
C1789 C1787 1.415 . S
C1790 H1780 0.930 . S
C1790 C1788 1.419 . S
C1790 C1791 1.362 . S
C1791 H1781 0.930 . S
C1791 C1784 1.409 . S
C1791 C1790 1.362 . S
H1792 C1798 0.930 . S
H1793 C1801 0.930 . S
H1794 C1802 0.930 . S
H1795 C1803 0.930 . S
H1796 C1806 0.930 . S
H1797 C1807 0.930 . S
C1798 H1792 0.930 . S
C1798 C1799 1.355 . S
C1798 C1800 1.415 . S
C1799 C1798 1.355 . S
C1799 C1801 1.419 . S
C1800 C1798 1.415 . S
C1800 C1805 1.425 . S
C1800 C1807 1.409 . S
C1801 H1793 0.930 . S
C1801 C1799 1.419 . S
C1801 C1802 1.362 . S
C1802 H1794 0.930 . S
C1802 C1801 1.362 . S
C1802 C1805 1.409 . S
C1803 H1795 0.930 . S
C1803 C1804 1.355 . S
C1803 C1805 1.415 . S
C1804 C1803 1.355 . S
C1804 C1806 1.419 . S
C1805 C1800 1.425 . S
C1805 C1802 1.409 . S
C1805 C1803 1.415 . S
C1806 H1796 0.930 . S
C1806 C1804 1.419 . S
C1806 C1807 1.362 . S
C1807 H1797 0.930 . S
C1807 C1800 1.409 . S
C1807 C1806 1.362 . S
H1808 C1814 0.930 . S
H1809 C1817 0.930 . S
H1810 C1818 0.930 . S
H1811 C1819 0.930 . S
H1812 C1822 0.930 . S
H1813 C1823 0.930 . S
C1814 H1808 0.930 . S
C1814 C1815 1.355 . S
C1814 C1816 1.415 . S
C1815 C1814 1.355 . S
C1815 C1817 1.419 . S
C1816 C1814 1.415 . S
C1816 C1821 1.425 . S
C1816 C1823 1.409 . S
C1817 H1809 0.930 . S
C1817 C1815 1.419 . S
C1817 C1818 1.362 . S
C1818 H1810 0.930 . S
C1818 C1817 1.362 . S
C1818 C1821 1.409 . S
C1819 H1811 0.930 . S
C1819 C1820 1.355 . S
C1819 C1821 1.415 . S
C1820 C1819 1.355 . S
C1820 C1822 1.419 . S
C1821 C1816 1.425 . S
C1821 C1818 1.409 . S
C1821 C1819 1.415 . S
C1822 H1812 0.930 . S
C1822 C1820 1.419 . S
C1822 C1823 1.362 . S
C1823 H1813 0.930 . S
C1823 C1816 1.409 . S
C1823 C1822 1.362 . S
H1824 C1830 0.930 . S
H1825 C1833 0.930 . S
H1826 C1834 0.930 . S
H1827 C1835 0.930 . S
H1828 C1838 0.930 . S
H1829 C1839 0.930 . S
C1830 H1824 0.930 . S
C1830 C1831 1.355 . S
C1830 C1832 1.415 . S
C1831 C1830 1.355 . S
C1831 C1833 1.419 . S
C1832 C1830 1.415 . S
C1832 C1837 1.425 . S
C1832 C1839 1.409 . S
C1833 H1825 0.930 . S
C1833 C1831 1.419 . S
C1833 C1834 1.362 . S
C1834 H1826 0.930 . S
C1834 C1833 1.362 . S
C1834 C1837 1.409 . S
C1835 H1827 0.930 . S
C1835 C1836 1.355 . S
C1835 C1837 1.415 . S
C1836 C1835 1.355 . S
C1836 C1838 1.419 . S
C1837 C1832 1.425 . S
C1837 C1834 1.409 . S
C1837 C1835 1.415 . S
C1838 H1828 0.930 . S
C1838 C1836 1.419 . S
C1838 C1839 1.362 . S
C1839 H1829 0.930 . S
C1839 C1832 1.409 . S
C1839 C1838 1.362 . S
H1840 C1846 0.930 . S
H1841 C1849 0.956 . S
H1842 C1850 0.930 . S
H1843 C1851 0.930 1_655 S
H1844 C1854 0.930 . S
H1845 C1855 0.930 . S
C1846 H1840 0.930 . S
C1846 C1847 1.355 . S
C1846 C1848 1.415 . S
C1847 C1846 1.355 . S
C1847 C1849 1.394 1_455 S
C1848 C1846 1.415 . S
C1848 C1853 1.425 . S
C1848 C1855 1.409 . S
C1849 H1841 0.956 . S
C1849 C1847 1.394 1_655 S
C1849 C1850 1.362 . S
C1850 H1842 0.930 . S
C1850 C1849 1.362 . S
C1850 C1853 1.409 1_655 S
C1851 H1843 0.930 1_455 S
C1851 C1852 1.355 . S
C1851 C1853 1.415 . S
C1852 C1851 1.355 . S
C1852 C1854 1.419 . S
C1853 C1848 1.425 . S
C1853 C1850 1.409 1_455 S
C1853 C1851 1.415 . S
C1854 H1844 0.930 . S
C1854 C1852 1.419 . S
C1854 C1855 1.362 . S
C1855 H1845 0.930 . S
C1855 C1848 1.409 . S
C1855 C1854 1.362 . S
H1856 C1862 0.930 . S
H1857 C1865 0.930 . S
H1858 C1866 0.930 . S
H1859 C1867 0.930 . S
H1860 C1870 0.930 . S
H1861 C1871 0.930 . S
C1862 H1856 0.930 . S
C1862 C1863 1.355 . S
C1862 C1864 1.415 . S
C1863 C1862 1.355 . S
C1863 C1865 1.419 . S
C1864 C1862 1.415 . S
C1864 C1869 1.425 . S
C1864 C1871 1.409 . S
C1865 H1857 0.930 . S
C1865 C1863 1.419 . S
C1865 C1866 1.362 . S
C1866 H1858 0.930 . S
C1866 C1865 1.362 . S
C1866 C1869 1.409 . S
C1867 H1859 0.930 . S
C1867 C1868 1.355 . S
C1867 C1869 1.415 . S
C1868 C1867 1.355 . S
C1868 C1870 1.419 . S
C1869 C1864 1.425 . S
C1869 C1866 1.409 . S
C1869 C1867 1.415 . S
C1870 H1860 0.930 . S
C1870 C1868 1.419 . S
C1870 C1871 1.362 . S
C1871 H1861 0.930 . S
C1871 C1864 1.409 . S
C1871 C1870 1.362 . S
H1872 C1878 0.930 . S
H1873 C1881 0.930 . S
H1874 C1882 0.930 . S
H1875 C1883 0.930 . S
H1876 C1886 0.930 . S
H1877 C1887 0.915 1_554 S
C1878 H1872 0.930 . S
C1878 C1879 1.355 . S
C1878 C1880 1.415 . S
C1879 C1878 1.355 . S
C1879 C1881 1.419 . S
C1880 C1878 1.415 . S
C1880 C1885 1.425 . S
C1880 C1887 1.431 . S
C1881 H1873 0.930 . S
C1881 C1879 1.419 . S
C1881 C1882 1.362 . S
C1882 H1874 0.930 . S
C1882 C1881 1.362 . S
C1882 C1885 1.409 . S
C1883 H1875 0.930 . S
C1883 C1884 1.355 . S
C1883 C1885 1.415 . S
C1884 C1883 1.355 . S
C1884 C1886 1.419 1_556 S
C1885 C1880 1.425 . S
C1885 C1882 1.409 . S
C1885 C1883 1.415 . S
C1886 H1876 0.930 . S
C1886 C1884 1.419 1_554 S
C1886 C1887 1.355 1_554 S
C1887 H1877 0.915 1_556 S
C1887 C1880 1.431 . S
C1887 C1886 1.355 1_556 S
H1888 C1894 0.930 . S
H1889 C1897 0.930 . S
H1890 C1898 0.930 . S
H1891 C1899 0.930 . S
H1892 C1902 0.930 . S
H1893 C1903 0.930 . S
C1894 H1888 0.930 . S
C1894 C1895 1.355 . S
C1894 C1896 1.415 . S
C1895 C1894 1.355 . S
C1895 C1897 1.419 . S
C1896 C1894 1.415 . S
C1896 C1901 1.425 . S
C1896 C1903 1.409 . S
C1897 H1889 0.930 . S
C1897 C1895 1.419 . S
C1897 C1898 1.362 . S
C1898 H1890 0.930 . S
C1898 C1897 1.362 . S
C1898 C1901 1.409 . S
C1899 H1891 0.930 . S
C1899 C1900 1.355 . S
C1899 C1901 1.415 . S
C1900 C1899 1.355 . S
C1900 C1902 1.419 . S
C1901 C1896 1.425 . S
C1901 C1898 1.409 . S
C1901 C1899 1.415 . S
C1902 H1892 0.930 . S
C1902 C1900 1.419 . S
C1902 C1903 1.362 . S
C1903 H1893 0.930 . S
C1903 C1896 1.409 . S
C1903 C1902 1.362 . S
H1904 C1910 0.930 . S
H1905 C1913 0.930 . S
H1906 C1914 0.930 . S
H1907 C1915 0.930 . S
H1908 C1918 0.930 . S
H1909 C1919 0.930 . S
C1910 H1904 0.930 . S
C1910 C1911 1.355 . S
C1910 C1912 1.415 . S
C1911 C1910 1.355 . S
C1911 C1913 1.419 . S
C1912 C1910 1.415 . S
C1912 C1917 1.425 . S
C1912 C1919 1.409 . S
C1913 H1905 0.930 . S
C1913 C1911 1.419 . S
C1913 C1914 1.362 . S
C1914 H1906 0.930 . S
C1914 C1913 1.362 . S
C1914 C1917 1.409 . S
C1915 H1907 0.930 . S
C1915 C1916 1.355 . S
C1915 C1917 1.415 . S
C1916 C1915 1.355 . S
C1916 C1918 1.419 . S
C1917 C1912 1.425 . S
C1917 C1914 1.409 . S
C1917 C1915 1.415 . S
C1918 H1908 0.930 . S
C1918 C1916 1.419 . S
C1918 C1919 1.362 . S
C1919 H1909 0.930 . S
C1919 C1912 1.409 . S
C1919 C1918 1.362 . S
H1920 C1926 0.930 . S
H1921 C1929 0.930 . S
H1922 C1930 0.930 . S
H1923 C1931 0.930 . S
H1924 C1934 0.930 . S
H1925 C1935 0.930 . S
C1926 H1920 0.930 . S
C1926 C1927 1.355 . S
C1926 C1928 1.415 . S
C1927 C1926 1.355 . S
C1927 C1929 1.419 . S
C1928 C1926 1.415 . S
C1928 C1933 1.425 . S
C1928 C1935 1.409 . S
C1929 H1921 0.930 . S
C1929 C1927 1.419 . S
C1929 C1930 1.362 . S
C1930 H1922 0.930 . S
C1930 C1929 1.362 . S
C1930 C1933 1.409 . S
C1931 H1923 0.930 . S
C1931 C1932 1.355 . S
C1931 C1933 1.415 . S
C1932 C1931 1.355 . S
C1932 C1934 1.419 . S
C1933 C1928 1.425 . S
C1933 C1930 1.409 . S
C1933 C1931 1.415 . S
C1934 H1924 0.930 . S
C1934 C1932 1.419 . S
C1934 C1935 1.362 . S
C1935 H1925 0.930 . S
C1935 C1928 1.409 . S
C1935 C1934 1.362 . S
H1936 C1942 0.930 . S
H1937 C1945 0.930 . S
H1938 C1946 0.930 . S
H1939 C1947 0.930 . S
H1940 C1950 0.930 . S
H1941 C1951 0.930 . S
C1942 H1936 0.930 . S
C1942 C1943 1.355 . S
C1942 C1944 1.415 . S
C1943 C1942 1.355 . S
C1943 C1945 1.419 . S
C1944 C1942 1.415 . S
C1944 C1949 1.425 . S
C1944 C1951 1.409 . S
C1945 H1937 0.930 . S
C1945 C1943 1.419 . S
C1945 C1946 1.362 . S
C1946 H1938 0.930 . S
C1946 C1945 1.362 . S
C1946 C1949 1.409 . S
C1947 H1939 0.930 . S
C1947 C1948 1.355 . S
C1947 C1949 1.415 . S
C1948 C1947 1.355 . S
C1948 C1950 1.419 . S
C1949 C1944 1.425 . S
C1949 C1946 1.409 . S
C1949 C1947 1.415 . S
C1950 H1940 0.930 . S
C1950 C1948 1.419 . S
C1950 C1951 1.362 . S
C1951 H1941 0.930 . S
C1951 C1944 1.409 . S
C1951 C1950 1.362 . S
H1952 C1958 0.930 . S
H1953 C1961 0.930 . S
H1954 C1962 0.930 . S
H1955 C1963 0.930 . S
H1956 C1966 0.930 . S
H1957 C1967 0.930 . S
C1958 H1952 0.930 . S
C1958 C1959 1.355 . S
C1958 C1960 1.415 . S
C1959 C1958 1.355 . S
C1959 C1961 1.419 . S
C1960 C1958 1.415 . S
C1960 C1965 1.425 . S
C1960 C1967 1.409 . S
C1961 H1953 0.930 . S
C1961 C1959 1.419 . S
C1961 C1962 1.362 . S
C1962 H1954 0.930 . S
C1962 C1961 1.362 . S
C1962 C1965 1.409 . S
C1963 H1955 0.930 . S
C1963 C1964 1.355 . S
C1963 C1965 1.415 . S
C1964 C1963 1.355 . S
C1964 C1966 1.419 . S
C1965 C1960 1.425 . S
C1965 C1962 1.409 . S
C1965 C1963 1.415 . S
C1966 H1956 0.930 . S
C1966 C1964 1.419 . S
C1966 C1967 1.362 . S
C1967 H1957 0.930 . S
C1967 C1960 1.409 . S
C1967 C1966 1.362 . S
H1968 C1974 0.930 . S
H1969 C1977 0.930 . S
H1970 C1978 0.915 1_455 S
H1971 C1979 0.930 . S
H1972 C1982 0.930 . S
H1973 C1983 0.930 . S
C1974 H1968 0.930 . S
C1974 C1975 1.355 . S
C1974 C1976 1.415 . S
C1975 C1974 1.355 . S
C1975 C1977 1.419 . S
C1976 C1974 1.415 . S
C1976 C1981 1.425 . S
C1976 C1983 1.409 . S
C1977 H1969 0.930 . S
C1977 C1975 1.419 . S
C1977 C1978 1.370 . S
C1978 H1970 0.915 1_655 S
C1978 C1977 1.370 . S
C1978 C1981 1.416 . S
C1979 H1971 0.930 . S
C1979 C1980 1.355 1_455 S
C1979 C1981 1.415 1_455 S
C1980 C1979 1.355 1_655 S
C1980 C1982 1.419 . S
C1981 C1976 1.425 . S
C1981 C1978 1.416 . S
C1981 C1979 1.415 1_655 S
C1982 H1972 0.930 . S
C1982 C1980 1.419 . S
C1982 C1983 1.362 . S
C1983 H1973 0.930 . S
C1983 C1976 1.409 . S
C1983 C1982 1.362 . S
H1984 C1990 0.930 . S
H1985 C1993 0.930 . S
H1986 C1994 0.930 . S
H1987 C1995 0.930 . S
H1988 C1998 0.930 . S
H1989 C1999 0.930 . S
C1990 H1984 0.930 . S
C1990 C1991 1.355 . S
C1990 C1992 1.415 . S
C1991 C1990 1.355 . S
C1991 C1993 1.419 . S
C1992 C1990 1.415 . S
C1992 C1997 1.425 . S
C1992 C1999 1.409 . S
C1993 H1985 0.930 . S
C1993 C1991 1.419 . S
C1993 C1994 1.362 . S
C1994 H1986 0.930 . S
C1994 C1993 1.362 . S
C1994 C1997 1.409 . S
C1995 H1987 0.930 . S
C1995 C1996 1.355 . S
C1995 C1997 1.415 . S
C1996 C1995 1.355 . S
C1996 C1998 1.419 . S
C1997 C1992 1.425 . S
C1997 C1994 1.409 . S
C1997 C1995 1.415 . S
C1998 H1988 0.930 . S
C1998 C1996 1.419 . S
C1998 C1999 1.362 . S
C1999 H1989 0.930 . S
C1999 C1992 1.409 . S
C1999 C1998 1.362 . S
H2000 C2006 0.930 . S
H2001 C2009 0.930 . S
H2002 C2010 0.930 . S
H2003 C2011 0.930 . S
H2004 C2014 0.930 . S
H2005 C2015 0.930 . S
C2006 H2000 0.930 . S
C2006 C2007 1.355 . S
C2006 C2008 1.415 . S
C2007 C2006 1.355 . S
C2007 C2009 1.419 . S
C2008 C2006 1.415 . S
C2008 C2013 1.425 . S
C2008 C2015 1.409 . S
C2009 H2001 0.930 . S
C2009 C2007 1.419 . S
C2009 C2010 1.362 . S
C2010 H2002 0.930 . S
C2010 C2009 1.362 . S
C2010 C2013 1.409 . S
C2011 H2003 0.930 . S
C2011 C2012 1.355 . S
C2011 C2013 1.415 . S
C2012 C2011 1.355 . S
C2012 C2014 1.419 . S
C2013 C2008 1.425 . S
C2013 C2010 1.409 . S
C2013 C2011 1.415 . S
C2014 H2004 0.930 . S
C2014 C2012 1.419 . S
C2014 C2015 1.362 . S
C2015 H2005 0.930 . S
C2015 C2008 1.409 . S
C2015 C2014 1.362 . S
H2016 C2022 0.930 . S
H2017 C2025 0.930 . S
H2018 C2026 0.930 . S
H2019 C2027 0.930 . S
H2020 C2030 0.930 . S
H2021 C2031 0.930 . S
C2022 H2016 0.930 . S
C2022 C2023 1.355 . S
C2022 C2024 1.415 . S
C2023 C2022 1.355 . S
C2023 C2025 1.419 . S
C2024 C2022 1.415 . S
C2024 C2029 1.425 . S
C2024 C2031 1.409 . S
C2025 H2017 0.930 . S
C2025 C2023 1.419 . S
C2025 C2026 1.362 . S
C2026 H2018 0.930 . S
C2026 C2025 1.362 . S
C2026 C2029 1.409 . S
C2027 H2019 0.930 . S
C2027 C2028 1.355 . S
C2027 C2029 1.415 . S
C2028 C2027 1.355 . S
C2028 C2030 1.419 . S
C2029 C2024 1.425 . S
C2029 C2026 1.409 . S
C2029 C2027 1.415 . S
C2030 H2020 0.930 . S
C2030 C2028 1.419 . S
C2030 C2031 1.362 . S
C2031 H2021 0.930 . S
C2031 C2024 1.409 . S
C2031 C2030 1.362 . S
H2032 C2038 0.930 . S
H2033 C2041 0.930 . S
H2034 C2042 0.930 . S
H2035 C2043 0.930 . S
H2036 C2046 0.930 1_455 S
H2037 C2047 0.930 1_455 S
C2038 H2032 0.930 . S
C2038 C2039 1.355 . S
C2038 C2040 1.415 . S
C2039 C2038 1.355 . S
C2039 C2041 1.419 . S
C2040 C2038 1.415 . S
C2040 C2045 1.425 . S
C2040 C2047 1.409 . S
C2041 H2033 0.930 . S
C2041 C2039 1.419 . S
C2041 C2042 1.362 . S
C2042 H2034 0.930 . S
C2042 C2041 1.362 . S
C2042 C2045 1.409 . S
C2043 H2035 0.930 . S
C2043 C2044 1.355 . S
C2043 C2045 1.415 . S
C2044 C2043 1.355 . S
C2044 C2046 1.419 . S
C2045 C2040 1.425 . S
C2045 C2042 1.409 . S
C2045 C2043 1.415 . S
C2046 H2036 0.930 1_655 S
C2046 C2044 1.419 . S
C2046 C2047 1.362 . S
C2047 H2037 0.930 1_655 S
C2047 C2040 1.409 . S
C2047 C2046 1.362 . S
H2048 C2054 0.930 . S
H2049 C2057 0.930 . S
H2050 C2058 0.930 . S
H2051 C2059 0.930 . S
H2052 C2062 0.930 . S
H2053 C2063 0.930 . S
C2054 H2048 0.930 . S
C2054 C2055 1.355 . S
C2054 C2056 1.415 . S
C2055 C2054 1.355 . S
C2055 C2057 1.419 . S
C2056 C2054 1.415 . S
C2056 C2061 1.425 . S
C2056 C2063 1.409 . S
C2057 H2049 0.930 . S
C2057 C2055 1.419 . S
C2057 C2058 1.362 . S
C2058 H2050 0.930 . S
C2058 C2057 1.362 . S
C2058 C2061 1.409 . S
C2059 H2051 0.930 . S
C2059 C2060 1.355 . S
C2059 C2061 1.415 . S
C2060 C2059 1.355 . S
C2060 C2062 1.419 . S
C2061 C2056 1.425 . S
C2061 C2058 1.409 . S
C2061 C2059 1.415 . S
C2062 H2052 0.930 . S
C2062 C2060 1.419 . S
C2062 C2063 1.362 . S
C2063 H2053 0.930 . S
C2063 C2056 1.409 . S
C2063 C2062 1.362 . S
H2064 C2070 0.930 . S
H2065 C2073 0.930 . S
H2066 C2074 0.930 . S
H2067 C2075 0.930 . S
H2068 C2078 0.930 . S
H2069 C2079 0.930 . S
C2070 H2064 0.930 . S
C2070 C2071 1.355 . S
C2070 C2072 1.415 . S
C2071 C2070 1.355 . S
C2071 C2073 1.419 . S
C2072 C2070 1.415 . S
C2072 C2077 1.425 . S
C2072 C2079 1.409 . S
C2073 H2065 0.930 . S
C2073 C2071 1.419 . S
C2073 C2074 1.362 . S
C2074 H2066 0.930 . S
C2074 C2073 1.362 . S
C2074 C2077 1.409 . S
C2075 H2067 0.930 . S
C2075 C2076 1.355 . S
C2075 C2077 1.415 . S
C2076 C2075 1.355 . S
C2076 C2078 1.419 . S
C2077 C2072 1.425 . S
C2077 C2074 1.409 . S
C2077 C2075 1.415 . S
C2078 H2068 0.930 . S
C2078 C2076 1.419 . S
C2078 C2079 1.362 . S
C2079 H2069 0.930 . S
C2079 C2072 1.409 . S
C2079 C2078 1.362 . S
H2080 C2086 0.930 . S
H2081 C2089 0.930 . S
H2082 C2090 0.930 . S
H2083 C2091 0.930 1_545 S
H2084 C2094 0.930 . S
H2085 C2095 0.930 . S
C2086 H2080 0.930 . S
C2086 C2087 1.355 . S
C2086 C2088 1.415 . S
C2087 C2086 1.355 . S
C2087 C2089 1.419 . S
C2088 C2086 1.415 . S
C2088 C2093 1.425 . S
C2088 C2095 1.409 . S
C2089 H2081 0.930 . S
C2089 C2087 1.419 . S
C2089 C2090 1.362 . S
C2090 H2082 0.930 . S
C2090 C2089 1.362 . S
C2090 C2093 1.409 . S
C2091 H2083 0.930 1_565 S
C2091 C2092 1.355 . S
C2091 C2093 1.415 . S
C2092 C2091 1.355 . S
C2092 C2094 1.419 . S
C2093 C2088 1.425 . S
C2093 C2090 1.409 . S
C2093 C2091 1.415 . S
C2094 H2084 0.930 . S
C2094 C2092 1.419 . S
C2094 C2095 1.362 . S
C2095 H2085 0.930 . S
C2095 C2088 1.409 . S
C2095 C2094 1.362 . S
H2096 C2102 0.930 . S
H2097 C2105 0.930 . S
H2098 C2106 0.930 . S
H2099 C2107 0.930 . S
H2100 C2110 0.930 . S
H2101 C2111 0.930 . S
C2102 H2096 0.930 . S
C2102 C2103 1.355 . S
C2102 C2104 1.415 . S
C2103 C2102 1.355 . S
C2103 C2105 1.419 . S
C2104 C2102 1.415 . S
C2104 C2109 1.425 . S
C2104 C2111 1.409 . S
C2105 H2097 0.930 . S
C2105 C2103 1.419 . S
C2105 C2106 1.362 . S
C2106 H2098 0.930 . S
C2106 C2105 1.362 . S
C2106 C2109 1.409 . S
C2107 H2099 0.930 . S
C2107 C2108 1.355 . S
C2107 C2109 1.415 . S
C2108 C2107 1.355 . S
C2108 C2110 1.419 . S
C2109 C2104 1.425 . S
C2109 C2106 1.409 . S
C2109 C2107 1.415 . S
C2110 H2100 0.930 . S
C2110 C2108 1.419 . S
C2110 C2111 1.362 . S
C2111 H2101 0.930 . S
C2111 C2104 1.409 . S
C2111 C2110 1.362 . S
H2112 C2118 0.930 . S
H2113 C2121 0.930 . S
H2114 C2122 0.930 . S
H2115 C2123 0.930 . S
H2116 C2126 0.930 . S
H2117 C2127 0.930 . S
C2118 H2112 0.930 . S
C2118 C2119 1.355 . S
C2118 C2120 1.415 . S
C2119 C2118 1.355 . S
C2119 C2121 1.419 . S
C2120 C2118 1.415 . S
C2120 C2125 1.425 . S
C2120 C2127 1.409 . S
C2121 H2113 0.930 . S
C2121 C2119 1.419 . S
C2121 C2122 1.362 . S
C2122 H2114 0.930 . S
C2122 C2121 1.362 . S
C2122 C2125 1.409 . S
C2123 H2115 0.930 . S
C2123 C2124 1.355 . S
C2123 C2125 1.415 . S
C2124 C2123 1.355 . S
C2124 C2126 1.419 . S
C2125 C2120 1.425 . S
C2125 C2122 1.409 . S
C2125 C2123 1.415 . S
C2126 H2116 0.930 . S
C2126 C2124 1.419 . S
C2126 C2127 1.362 . S
C2127 H2117 0.930 . S
C2127 C2120 1.409 . S
C2127 C2126 1.362 . S
H2128 C2134 0.930 . S
H2129 C2137 0.930 . S
H2130 C2138 0.930 . S
H2131 C2139 0.930 . S
H2132 C2142 0.930 . S
H2133 C2143 0.930 . S
C2134 H2128 0.930 . S
C2134 C2135 1.355 . S
C2134 C2136 1.415 . S
C2135 C2134 1.355 . S
C2135 C2137 1.419 . S
C2136 C2134 1.415 . S
C2136 C2141 1.425 . S
C2136 C2143 1.409 . S
C2137 H2129 0.930 . S
C2137 C2135 1.419 . S
C2137 C2138 1.362 . S
C2138 H2130 0.930 . S
C2138 C2137 1.362 . S
C2138 C2141 1.409 . S
C2139 H2131 0.930 . S
C2139 C2140 1.355 . S
C2139 C2141 1.415 . S
C2140 C2139 1.355 . S
C2140 C2142 1.419 . S
C2141 C2136 1.425 . S
C2141 C2138 1.409 . S
C2141 C2139 1.415 . S
C2142 H2132 0.930 . S
C2142 C2140 1.419 . S
C2142 C2143 1.362 . S
C2143 H2133 0.930 . S
C2143 C2136 1.409 . S
C2143 C2142 1.362 . S
H2144 C2150 0.930 . S
H2145 C2153 0.930 . S
H2146 C2154 0.930 . S
H2147 C2155 0.930 . S
H2148 C2158 0.930 1_556 S
H2149 C2159 0.930 . S
C2150 H2144 0.930 . S
C2150 C2151 1.355 . S
C2150 C2152 1.415 . S
C2151 C2150 1.355 . S
C2151 C2153 1.419 . S
C2152 C2150 1.415 . S
C2152 C2157 1.425 . S
C2152 C2159 1.409 . S
C2153 H2145 0.930 . S
C2153 C2151 1.419 . S
C2153 C2154 1.362 . S
C2154 H2146 0.930 . S
C2154 C2153 1.362 . S
C2154 C2157 1.409 . S
C2155 H2147 0.930 . S
C2155 C2156 1.355 . S
C2155 C2157 1.415 . S
C2156 C2155 1.355 . S
C2156 C2158 1.419 . S
C2157 C2152 1.425 . S
C2157 C2154 1.409 . S
C2157 C2155 1.415 . S
C2158 H2148 0.930 1_554 S
C2158 C2156 1.419 . S
C2158 C2159 1.362 . S
C2159 H2149 0.930 . S
C2159 C2152 1.409 . S
C2159 C2158 1.362 . S
H2160 C2166 0.930 . S
H2161 C2169 0.930 . S
H2162 C2170 0.930 . S
H2163 C2171 0.930 . S
H2164 C2174 0.930 . S
H2165 C2175 0.930 . S
C2166 H2160 0.930 . S
C2166 C2167 1.355 . S
C2166 C2168 1.415 . S
C2167 C2166 1.355 . S
C2167 C2169 1.419 . S
C2168 C2166 1.415 . S
C2168 C2173 1.425 . S
C2168 C2175 1.409 . S
C2169 H2161 0.930 . S
C2169 C2167 1.419 . S
C2169 C2170 1.362 . S
C2170 H2162 0.930 . S
C2170 C2169 1.362 . S
C2170 C2173 1.409 . S
C2171 H2163 0.930 . S
C2171 C2172 1.355 . S
C2171 C2173 1.415 . S
C2172 C2171 1.355 . S
C2172 C2174 1.419 . S
C2173 C2168 1.425 . S
C2173 C2170 1.409 . S
C2173 C2171 1.415 . S
C2174 H2164 0.930 . S
C2174 C2172 1.419 . S
C2174 C2175 1.362 . S
C2175 H2165 0.930 . S
C2175 C2168 1.409 . S
C2175 C2174 1.362 . S
H2176 C2182 0.930 . S
H2177 C2185 0.930 . S
H2178 C2186 0.930 . S
H2179 C2187 0.930 . S
H2180 C2190 0.930 . S
H2181 C2191 0.930 . S
C2182 H2176 0.930 . S
C2182 C2183 1.355 . S
C2182 C2184 1.415 . S
C2183 C2182 1.355 . S
C2183 C2185 1.419 . S
C2184 C2182 1.415 . S
C2184 C2189 1.425 . S
C2184 C2191 1.409 . S
C2185 H2177 0.930 . S
C2185 C2183 1.419 . S
C2185 C2186 1.362 . S
C2186 H2178 0.930 . S
C2186 C2185 1.362 . S
C2186 C2189 1.409 . S
C2187 H2179 0.930 . S
C2187 C2188 1.355 . S
C2187 C2189 1.415 . S
C2188 C2187 1.355 . S
C2188 C2190 1.419 . S
C2189 C2184 1.425 . S
C2189 C2186 1.409 . S
C2189 C2187 1.415 . S
C2190 H2180 0.930 . S
C2190 C2188 1.419 . S
C2190 C2191 1.362 . S
C2191 H2181 0.930 . S
C2191 C2184 1.409 . S
C2191 C2190 1.362 . S
C663 C111 1.420 1_455 S
C668 C340 1.197 . S
C679 C64 1.520 . S
C684 C375 1.495 . S
C695 C77 1.082 . S
C700 C380 1.003 . S
C716 C405 1.218 . S
C711 C95 1.291 . S
C727 C25 1.300 . S
C732 C425 1.219 . S
C748 C440 1.111 . S
C743 C36 1.096 . S
C764 C475 1.521 . S
C759 C50 1.449 . S
C775 C11 1.399 . S
C780 C480 1.242 . S
C796 C355 1.455 1_655 S
C791 C237 1.492 . S
C807 C245 1.019 . S
C812 C365 0.928 . S
C828 C395 1.300 . S
C823 C279 1.302 1_565 S
C844 C400 1.025 . S
C839 C175 1.165 1_556 S
C855 C231 1.144 . S
C860 C420 1.078 . S
C876 C455 1.324 . S
C871 C251 1.330 . S
C892 C465 0.950 . S
C887 C273 1.050 . S
C908 C495 1.470 . S
C903 C181 1.468 . S
C924 C345 1.304 . S
C919 C165 1.422 . S
C935 C288 1.642 . S
C940 C515 1.763 . S
C956 C525 1.409 . S
C951 C333 1.491 . S
C972 C540 1.088 . S
C967 C316 1.073 . S
C983 C123 1.390 . S
C988 C485 1.193 . S
C999 C137 1.465 . S
C1004 C385 1.298 . S
C1015 C330 1.703 . S
C1020 C575 1.731 . S
C1036 C580 1.016 . S
C1031 C302 1.083 . S
C1052 C338 1.276 . S
C1047 C63 1.496 . S
C1068 C594 1.539 . S
C1063 C106 1.568 . S
C1079 C97 1.024 . S
C1084 C378 1.001 . S
C1095 C81 1.366 . S
C1100 C568 1.275 . S
C1116 C428 1.341 . S
C1111 C13 1.355 . S
C1127 C55 1.016 . S
C1132 C518 0.987 . S
C1148 C474 1.502 1_556 S
C1143 C35 1.482 . S
C1164 C598 1.239 . S
C1159 C21 1.484 . S
C1180 C354 1.565 . S
C1175 C147 1.665 . S
C1196 C588 1.076 . S
C1191 C321 1.061 . S
C1207 C119 1.422 . S
C1212 C394 1.371 . S
C1223 C293 1.158 . S
C1228 C558 1.131 . S
C1239 C153 1.193 . S
C1244 C418 1.178 . S
C1260 C534 1.428 . S
C1255 C315 1.410 . S
C1271 C125 0.979 . S
C1276 C468 0.979 . S
C1287 C287 1.648 . S
C1292 C614 1.559 . S
C1303 C193 1.431 . S
C1308 C348 1.355 . S
C1319 C176 1.770 . S
C1324 C514 1.752 . S
C1335 C263 1.493 . S
C1340 C448 1.453 . S
C1351 C246 1.192 . S
C1356 C538 1.168 . S
C1372 C608 1.235 . S
C1367 C277 1.416 . S
C1383 C221 1.444 . S
C1388 C388 1.383 . S
C1404 C414 1.770 . S
C1399 C260 1.787 . S
C1420 C358 1.070 . S
C1415 C204 1.177 . S
C1431 C83 1.360 . S
C1436 C620 1.148 . S
C1452 C595 1.510 . S
C1447 C92 1.496 . S
C1463 C105 1.092 1_455 S
C1468 C640 1.085 . S
C1479 C67 1.266 . S
C1484 C565 1.281 . S
C1495 C53 1.303 . S
C1500 C505 1.218 . S
C1516 C520 1.066 . S
C1511 C8 1.108 . S
C1532 C555 1.504 . S
C1527 C22 1.460 1_655 S
C1548 C600 1.094 . S
C1543 C39 1.384 . S
C1564 C635 1.536 . S
C1559 C265 1.504 . S
C1575 C189 1.036 . S
C1580 C585 0.963 . S
C1596 C655 1.324 . S
C1591 C209 1.238 . S
C1612 C560 1.136 . S
C1607 C217 1.192 . S
C1628 C500 1.124 . S
C1623 C259 1.156 . S
C1639 C195 1.323 . S
C1644 C535 1.308 . S
C1660 C545 0.976 . S
C1655 C203 1.066 . S
C1671 C223 1.489 . S
C1676 C615 1.454 . S
C1692 C625 1.299 . S
C1687 C319 1.424 . S
C1703 C134 1.674 . S
C1708 C435 1.741 . S
C1724 C445 1.436 . S
C1719 C151 1.495 . S
C1740 C460 1.004 . S
C1735 C162 1.113 . S
C1756 C605 1.293 . S
C1751 C305 1.404 . S
C1767 C291 1.454 1_554 S
C1772 C645 1.403 . S
C1788 C415 1.747 . S
C1783 C148 1.650 . S
C1804 C360 0.972 . S
C1799 C120 1.104 . S
C1815 C91 1.525 . S
C1820 C618 1.341 . S
C1836 C374 1.561 . S
C1831 C78 1.518 . S
C1847 C69 1.111 . S
C1852 C638 1.100 . S
C1863 C109 1.344 . S
C1868 C408 1.268 . S
C1879 C41 1.397 . S
C1884 C508 1.398 . S
C1900 C438 1.066 . S
C1895 C27 1.081 . S
C1911 C7 1.488 . S
C1916 C554 1.499 . S
C1927 C49 1.502 . S
C1932 C478 1.290 . S
C1948 C634 1.613 . S
C1943 C329 1.671 . S
C1959 C167 1.034 . S
C1964 C368 1.024 . S
C1980 C654 1.360 1_655 S
C1975 C301 1.416 . S
C1991 C139 1.184 . S
C1996 C398 1.170 . S
C2007 C335 1.255 . S
C2012 C498 1.243 . S
C2028 C454 1.424 . S
C2023 C161 1.416 . S
C2039 C307 1.006 . S
C2044 C548 1.047 . S
C2060 C494 1.590 . S
C2055 C133 1.652 . S
C2076 C628 1.241 . S
C2071 C249 1.394 . S
C2092 C434 1.745 . S
C2087 C218 1.759 . S
C2103 C235 1.492 . S
C2108 C528 1.453 . S
C2124 C458 1.056 . S
C2119 C190 1.158 . S
C2135 C207 1.430 . S
C2140 C488 1.357 . S
C2151 C179 1.491 . S
C2156 C648 1.452 . S
C2172 C574 1.763 . S
C2167 C232 1.748 . S
C2188 C578 1.169 . S
C2183 C274 1.156 . S
