# Generated by pormake.
# Topology pth, (4,4)-cn, num edge types: 1
# Building blocks:
#     Node 0, Type 0, BuildingBlock: KUFVIS_clean_sbu_0, # of connection points: 4
#     Node 1, Type 0, BuildingBlock: KUFVIS_clean_sbu_0, # of connection points: 4
#     Node 2, Type 0, BuildingBlock: KUFVIS_clean_sbu_0, # of connection points: 4
#     Node 3, Type 1, BuildingBlock: NAWXER_clean_sbu_0, # of connection points: 4
#     Node 4, Type 1, BuildingBlock: NAWXER_clean_sbu_0, # of connection points: 4
#     Node 5, Type 1, BuildingBlock: NAWXER_clean_sbu_0, # of connection points: 4
#     Edge 6, Type (0, 1), BuildingBlock: FUNLAD_clean_linker_0, # of connection points: 2
#     Edge 7, Type (0, 1), BuildingBlock: FUNLAD_clean_linker_0, # of connection points: 2
#     Edge 8, Type (0, 1), BuildingBlock: FUNLAD_clean_linker_0, # of connection points: 2
#     Edge 9, Type (0, 1), BuildingBlock: FUNLAD_clean_linker_0, # of connection points: 2
#     Edge 10, Type (0, 1), BuildingBlock: FUNLAD_clean_linker_0, # of connection points: 2
#     Edge 11, Type (0, 1), BuildingBlock: FUNLAD_clean_linker_0, # of connection points: 2
#     Edge 12, Type (0, 1), BuildingBlock: FUNLAD_clean_linker_0, # of connection points: 2
#     Edge 13, Type (0, 1), BuildingBlock: FUNLAD_clean_linker_0, # of connection points: 2
#     Edge 14, Type (0, 1), BuildingBlock: FUNLAD_clean_linker_0, # of connection points: 2
#     Edge 15, Type (0, 1), BuildingBlock: FUNLAD_clean_linker_0, # of connection points: 2
#     Edge 16, Type (0, 1), BuildingBlock: FUNLAD_clean_linker_0, # of connection points: 2
#     Edge 17, Type (0, 1), BuildingBlock: FUNLAD_clean_linker_0, # of connection points: 2
# Relax obj value: 0.009
# Max RMSD: 0.080
# Mean RMSD: 0.046
data_MOF--net-pth--node1-KUFVIS_clean_sbu_0--node2-NAWXER_clean_sbu_0--edge1-FUNLAD_clean_linker_0
_symmetry_space_group_name_H-M    P1
_symmetry_Int_Tables_number       1
_symmetry_cell_setting            triclinic
loop_
_symmetry_equiv_pos_as_xyz
'x, y, z'
_cell_length_a     26.168285
_cell_length_b     26.190278
_cell_length_c     67.580766
_cell_angle_alpha  90.348897
_cell_angle_beta   91.890641
_cell_angle_gamma 119.87645
loop_
_atom_site_label
_atom_site_type_symbol
_atom_site_fract_x
_atom_site_fract_y
_atom_site_fract_z
_atom_type_partial_charge
Mn0 Mn 0.06078 0.12043 0.06577 0.0
Mn1 Mn 0.99036 0.1707 0.03579 0.0
C2 C 1.00693 0.06603 0.03781 0.0
C3 C 0.06374 0.06714 0.09297 0.0
C4 C 0.12289 0.21948 0.03658 0.0
O5 O 0.05743 0.18308 0.08319 0.0
O6 O 1.00335 0.20697 0.06264 0.0
C7 C 0.87575 0.11856 0.05513 0.0
N8 N 0.90704 0.12545 0.03867 0.0
C9 C 0.81825 0.06488 0.01894 0.0
C10 C 0.78505 0.05742 0.03565 0.0
C11 C 0.81395 0.08426 0.05383 0.0
C12 C 0.8797 0.09968 0.02112 0.0
H13 H 0.89779 0.13904 0.06914 0.0
C14 C 0.02948 0.21071 0.07941 0.0
O15 O 0.11162 0.109 0.08582 0.0
O16 O 0.01411 0.05792 0.08483 0.0
N17 N 0.97418 0.13829 0.00935 0.0
C18 C 0.01279 0.14703 0.99495 0.0
C19 C 0.99103 0.12166 0.97599 0.0
C20 C 0.9299 0.08804 0.97198 0.0
C21 C 0.89103 0.08017 0.98697 0.0
C22 C 0.91526 0.1068 0.00555 0.0
H23 H 0.05982 0.17292 0.99792 0.0
O24 O 0.04806 0.0579 0.04575 0.0
O25 O 0.99856 0.10553 0.04642 0.0
O26 O 0.12424 0.18384 0.04904 0.0
O27 O 0.07565 0.21961 0.03126 0.0
C28 C 0.82923 0.046 0.98432 0.0
C29 C 0.79287 0.03822 1.0003 0.0
H30 H 0.73739 0.03077 0.03473 0.0
H31 H 0.78864 0.07847 0.06681 0.0
H32 H 0.02132 0.12789 0.9645 0.0
H33 H 0.91331 0.06811 0.95739 0.0
H34 H 0.80923 0.02467 0.97014 0.0
H35 H 0.74548 0.01102 0.99817 0.0
Mn36 Mn 0.03551 0.11022 0.3978 0.0
Mn37 Mn 0.1275 0.22191 0.42901 0.0
C38 C 0.08309 0.09305 0.42417 0.0
C39 C 0.02114 0.05373 0.36908 0.0
C40 C 0.99384 0.16267 0.42985 0.0
O41 O 0.05199 0.1832 0.38235 0.0
O42 O 0.11835 0.25436 0.40337 0.0
C43 C 0.23761 0.26472 0.40744 0.0
N44 N 0.20715 0.24305 0.42419 0.0
C45 C 0.29088 0.24515 0.44088 0.0
C46 C 0.32327 0.26785 0.42385 0.0
C47 C 0.29647 0.27758 0.40706 0.0
C48 C 0.23247 0.23342 0.44042 0.0
H49 H 0.2171 0.27196 0.39446 0.0
C50 C 0.0883 0.23726 0.38687 0.0
O51 O 0.97734 0.05559 0.37689 0.0
O52 O 0.07287 0.08623 0.37752 0.0
N53 N 0.14072 0.19651 0.45422 0.0
C54 C 0.10275 0.17234 0.46918 0.0
C55 C 0.12242 0.15901 0.48695 0.0
C56 C 0.18092 0.17086 0.48919 0.0
C57 C 0.21933 0.19626 0.47367 0.0
C58 C 0.19742 0.20917 0.45638 0.0
H59 H 0.05771 0.16302 0.46754 0.0
O60 O 0.03547 0.05 0.41593 0.0
O61 O 0.10111 0.14458 0.41672 0.0
O62 O 0.98239 0.12416 0.41615 0.0
O63 O 0.04634 0.20176 0.4354 0.0
C64 C 0.27823 0.20841 0.47455 0.0
C65 C 0.31395 0.23275 0.45816 0.0
H66 H 0.36858 0.27753 0.42346 0.0
H67 H 0.32109 0.29481 0.39383 0.0
H68 H 0.09249 0.13937 0.49886 0.0
H69 H 0.19575 0.15993 0.50284 0.0
H70 H 0.29627 0.19853 0.48768 0.0
H71 H 0.35894 0.24124 0.45893 0.0
Mn72 Mn 0.05333 0.10356 0.73222 0.0
Mn73 Mn 0.98732 0.1617 0.75917 0.0
C74 C 0.10479 0.16887 0.75834 0.0
C75 C 0.1076 0.10549 0.70519 0.0
C76 C 0.9633 0.03622 0.76343 0.0
O77 O 0.98139 0.08741 0.71457 0.0
O78 O 0.94694 0.13562 0.73265 0.0
C79 C 0.01824 0.2673 0.73551 0.0
N80 N 0.01859 0.24291 0.75322 0.0
C81 C 0.06881 0.33817 0.76968 0.0
C82 C 0.06818 0.36422 0.75167 0.0
C83 C 0.043 0.32863 0.7345 0.0
C84 C 0.04325 0.2768 0.76979 0.0
H85 H 0.99952 0.24018 0.72225 0.0
C86 C 0.94585 0.10689 0.71706 0.0
O87 O 0.07379 0.05691 0.71407 0.0
O88 O 0.10831 0.15269 0.71157 0.0
N89 N 0.02243 0.18958 0.78514 0.0
C90 C 0.02231 0.15791 0.80108 0.0
C91 C 0.04753 0.18716 0.81932 0.0
C92 C 0.07214 0.24853 0.82102 0.0
C93 C 0.07108 0.28008 0.80448 0.0
C94 C 0.04489 0.24849 0.78673 0.0
H95 H 1.00335 0.11072 0.7999 0.0
O96 O 0.12176 0.1332 0.75185 0.0
O97 O 0.0587 0.16559 0.74929 0.0
O98 O 1.00071 0.0395 0.75116 0.0
O99 O 0.95325 0.07843 0.76683 0.0
C100 C 0.09592 0.34177 0.80482 0.0
C101 C 0.09493 0.37081 0.78741 0.0
H102 H 0.08753 0.41154 0.75081 0.0
H103 H 0.04288 0.34845 0.72051 0.0
H104 H 0.04815 0.16248 0.83202 0.0
H105 H 0.09207 0.271 0.83506 0.0
H106 H 0.11672 0.3674 0.8183 0.0
H107 H 0.11502 0.41834 0.78778 0.0
C108 C 0.98276 0.66754 0.25523 0.0
C109 C 0.01291 0.53999 0.20919 0.0
O110 O 0.03693 0.6826 0.25311 0.0
Zn111 Zn 0.0886 0.6535 0.23786 0.0
O112 O 0.94204 0.62076 0.24666 0.0
Zn113 Zn 0.99428 0.60091 0.23262 0.0
O114 O 0.02937 0.57196 0.25591 0.0
O115 O 0.12553 0.63114 0.25923 0.0
O116 O 0.96365 0.53482 0.2136 0.0
O117 O 0.06067 0.58198 0.21716 0.0
O118 O 0.13414 0.722 0.22156 0.0
O119 O 0.03834 0.67589 0.21437 0.0
C120 C 0.07891 0.58595 0.26468 0.0
C121 C 0.09036 0.71863 0.21156 0.0
C122 C 0.57602 0.05678 0.58806 0.0
C123 C 0.43592 0.06133 0.53928 0.0
O124 O 0.53429 0.01267 0.57866 0.0
Zn125 Zn 0.50721 0.0569 0.56262 0.0
O126 O 0.58591 0.1088 0.58432 0.0
Zn127 Zn 0.55206 0.15093 0.56527 0.0
O128 O 0.52885 0.19049 0.58426 0.0
O129 O 0.47491 0.09341 0.58448 0.0
O130 O 0.47534 0.11243 0.54588 0.0
O131 O 0.43864 0.01607 0.54443 0.0
O132 O 0.5781 0.10094 0.54313 0.0
O133 O 0.61698 0.19657 0.54803 0.0
C134 C 0.48628 0.14421 0.59113 0.0
C135 C 0.61662 0.15372 0.53896 0.0
C136 C 0.52896 0.5256 0.92855 0.0
C137 C 0.64845 0.63859 0.87298 0.0
O138 O 0.51655 0.56317 0.92114 0.0
Zn139 Zn 0.54267 0.62698 0.89891 0.0
O140 O 0.57122 0.52072 0.92171 0.0
Zn141 Zn 0.59306 0.58095 0.90134 0.0
O142 O 0.62712 0.65938 0.91865 0.0
O143 O 0.57191 0.70059 0.91441 0.0
O144 O 0.65684 0.6019 0.88285 0.0
O145 O 0.60819 0.64987 0.87784 0.0
O146 O 0.47107 0.59279 0.8817 0.0
O147 O 0.51641 0.54069 0.88217 0.0
C148 C 0.61676 0.70114 0.92259 0.0
C149 C 0.47374 0.54781 0.87585 0.0
C150 C 0.05088 0.25506 0.11416 0.0
C151 C 0.02394 0.24738 0.09517 0.0
C152 C 0.04303 0.28822 0.12892 0.0
C153 C 1.00804 0.31439 0.12496 0.0
C154 C 0.98101 0.30626 0.10607 0.0
C155 C 0.98902 0.2736 0.09138 0.0
C156 C 0.99745 0.34965 0.13997 0.0
C157 C 0.03414 0.37773 0.1557 0.0
C158 C 0.02625 0.41783 0.16942 0.0
C159 C 0.07621 0.46252 0.17967 0.0
C160 C 0.07155 0.50206 0.19238 0.0
C161 C 0.01654 0.49763 0.19541 0.0
H162 H 0.93097 0.37777 0.16543 0.0
C163 C 0.96612 0.45223 0.18546 0.0
C164 C 0.97085 0.41266 0.1726 0.0
H165 H 0.92303 0.4472 0.18762 0.0
H166 H 0.07755 0.23506 0.11768 0.0
H167 H 0.06348 0.29217 0.14345 0.0
H168 H 0.95364 0.32554 0.10257 0.0
H169 H 0.96706 0.26855 0.07704 0.0
H170 H 0.96017 0.35629 0.13698 0.0
H171 H 0.07423 0.37539 0.15778 0.0
H172 H 0.11933 0.46741 0.17765 0.0
H173 H 0.11139 0.53612 0.19989 0.0
C174 C 0.95492 0.19975 0.45658 0.0
C175 C 0.94402 0.16145 0.44027 0.0
C176 C 0.90833 0.19729 0.46693 0.0
C177 C 0.84941 0.15667 0.46114 0.0
C178 C 0.83858 0.11878 0.44476 0.0
C179 C 0.88517 0.12115 0.43442 0.0
C180 C 0.79832 0.14955 0.47247 0.0
C181 C 0.80077 0.18986 0.48563 0.0
C182 C 0.75077 0.17978 0.49816 0.0
C183 C 0.75097 0.22839 0.50723 0.0
C184 C 0.70682 0.2204 0.52013 0.0
C185 C 0.66159 0.16346 0.52435 0.0
H186 H 0.70387 0.08393 0.49623 0.0
C187 C 0.66105 0.1149 0.51511 0.0
C188 C 0.70509 0.12284 0.50229 0.0
H189 H 0.62719 0.07032 0.5181 0.0
H190 H 0.99961 0.2311 0.46165 0.0
H191 H 0.91912 0.22621 0.47976 0.0
H192 H 0.79377 0.08668 0.44001 0.0
H193 H 0.87493 0.09091 0.42197 0.0
H194 H 0.75674 0.1092 0.46955 0.0
H195 H 0.84066 0.23243 0.4873 0.0
H196 H 0.78581 0.27276 0.5045 0.0
H197 H 0.70875 0.25878 0.52704 0.0
C198 C 0.88356 0.97251 0.78629 0.0
C199 C 0.93126 0.98161 0.7749 0.0
C200 C 0.85448 0.92225 0.79763 0.0
C201 C 0.87237 0.87968 0.79791 0.0
C202 C 0.92048 0.889 0.78678 0.0
C203 C 0.94928 0.93911 0.77523 0.0
C204 C 0.84263 0.82659 0.8103 0.0
C205 C 0.78438 0.80009 0.8133 0.0
C206 C 0.75161 0.75074 0.82697 0.0
C207 C 0.68987 0.72342 0.82607 0.0
C208 C 0.65657 0.68382 0.84038 0.0
C209 C 0.68399 0.67 0.85597 0.0
H210 H 0.82666 0.75461 0.84331 0.0
C211 C 0.74542 0.69383 0.85628 0.0
C212 C 0.77918 0.73428 0.84193 0.0
H213 H 0.76761 0.6843 0.86828 0.0
H214 H 0.86874 1.00444 0.78657 0.0
H215 H 0.81877 0.91756 0.80651 0.0
H216 H 0.93557 0.85727 0.78691 0.0
H217 H 0.98626 0.94493 0.76683 0.0
H218 H 0.86901 0.80881 0.81659 0.0
H219 H 0.75858 0.81612 0.80534 0.0
H220 H 0.66723 0.73476 0.81473 0.0
H221 H 0.6092 0.66584 0.83972 0.0
C222 C 0.11958 0.03529 0.11596 0.0
C223 C 0.06554 0.02825 0.10849 0.0
C224 C 0.12088 0.9947 0.12912 0.0
C225 C 0.06796 0.9462 0.13509 0.0
C226 C 0.01417 0.94028 0.12794 0.0
C227 C 0.0129 0.98077 0.11488 0.0
C228 C 0.06584 0.89907 0.1479 0.0
C229 C 0.11118 0.90342 0.15942 0.0
C230 C 0.10551 0.85519 0.17253 0.0
C231 C 0.15644 0.85423 0.17939 0.0
C232 C 0.15226 0.80981 0.19194 0.0
C233 C 0.09691 0.76536 0.19782 0.0
H234 H 1.01006 0.81117 0.17488 0.0
C235 C 0.04623 0.76679 0.1911 0.0
C236 C 0.05041 0.8112 0.17885 0.0
H237 H 1.00286 0.73413 0.19565 0.0
H238 H 0.16096 0.07126 0.11122 0.0
H239 H 0.16333 1.00069 0.13397 0.0
H240 H 0.97265 0.90352 0.13226 0.0
H241 H 0.97051 0.97393 0.10941 0.0
H242 H 0.02379 0.85846 0.14768 0.0
H243 H 0.15392 0.94321 0.15938 0.0
H244 H 0.1996 0.88789 0.17501 0.0
H245 H 0.1922 0.8103 0.197 0.0
C246 C 0.10189 0.04853 0.45413 0.0
C247 C 0.12187 0.08 0.4367 0.0
C248 C 0.13931 0.03592 0.46576 0.0
C249 C 0.19651 0.05304 0.45972 0.0
C250 C 0.21496 0.08156 0.44169 0.0
C251 C 0.17809 0.09528 0.43033 0.0
C252 C 0.2383 0.04285 0.47206 0.0
C253 C 0.24311 0.05084 0.49183 0.0
C254 C 0.29132 0.05089 0.50396 0.0
C255 C 0.31913 0.09364 0.51913 0.0
C256 C 0.36627 0.09682 0.5304 0.0
C257 C 0.38554 0.05617 0.52713 0.0
H258 H 0.2887 0.97575 0.48921 0.0
C259 C 0.35651 0.01195 0.51238 0.0
C260 C 0.31012 0.00977 0.50067 0.0
H261 H 0.37041 0.97999 0.50964 0.0
H262 H 0.05795 0.03495 0.45896 0.0
H263 H 0.12348 0.01269 0.4794 0.0
H264 H 0.25862 0.09476 0.43665 0.0
H265 H 0.19354 0.11798 0.41657 0.0
H266 H 0.27031 0.0355 0.46457 0.0
H267 H 0.21543 0.06483 0.49905 0.0
H268 H 0.30523 0.12557 0.52198 0.0
H269 H 0.38736 0.13095 0.54186 0.0
C270 C 0.16221 0.20631 0.79039 0.0
C271 C 0.14328 0.21755 0.77216 0.0
C272 C 0.19898 0.25288 0.80345 0.0
C273 C 0.21907 0.31173 0.79816 0.0
C274 C 0.20081 0.32262 0.77969 0.0
C275 C 0.16368 0.27596 0.76672 0.0
C276 C 0.25908 0.36257 0.8115 0.0
C277 C 0.29724 0.35997 0.82473 0.0
C278 C 0.34157 0.41051 0.83728 0.0
C279 C 0.39023 0.40739 0.84498 0.0
C280 C 0.43291 0.4524 0.85718 0.0
C281 C 0.42804 0.50193 0.86226 0.0
H282 H 0.29872 0.46352 0.83688 0.0
C283 C 0.3793 0.50547 0.85461 0.0
C284 C 0.3363 0.46009 0.8422 0.0
H285 H 0.3741 0.54285 0.85835 0.0
H286 H 0.14729 0.16144 0.79473 0.0
H287 H 0.2106 0.24237 0.81775 0.0
H288 H 0.21556 0.36733 0.77521 0.0
H289 H 0.15069 0.28548 0.75245 0.0
H290 H 0.26005 0.40405 0.80926 0.0
H291 H 0.29934 0.31964 0.82553 0.0
H292 H 0.39546 0.36982 0.84153 0.0
H293 H 0.46965 0.4478 0.86277 0.0
C294 C 0.88397 0.05527 0.686 0.0
C295 C 0.90293 0.09968 0.70085 0.0
C296 C 0.84364 0.05033 0.67079 0.0
C297 C 0.82288 0.09062 0.67003 0.0
C298 C 0.84229 0.13496 0.68475 0.0
C299 C 0.88105 0.139 0.70007 0.0
C300 C 0.78327 0.09053 0.65383 0.0
C301 C 0.73813 0.0416 0.64515 0.0
C302 C 0.69454 0.04425 0.63097 0.0
C303 C 0.66199 0.9979 0.6171 0.0
C304 C 0.62194 1.0006 0.60337 0.0
C305 C 0.61397 0.04986 0.60328 0.0
H306 H 0.705 0.12702 0.64247 0.0
C307 C 0.64475 0.09492 0.61763 0.0
C308 C 0.68383 0.09188 0.63141 0.0
H309 H 0.63856 0.13283 0.61827 0.0
H310 H 0.90007 0.02435 0.6862 0.0
H311 H 0.83005 0.0162 0.65943 0.0
H312 H 0.82713 0.16667 0.68445 0.0
H313 H 0.89467 0.17391 0.71114 0.0
H314 H 0.78987 0.13346 0.64992 0.0
H315 H 0.73226 0.99868 0.64875 0.0
H316 H 0.66837 0.9601 0.61665 0.0
H317 H 0.59854 0.96504 0.59253 0.0
C318 C 0.90402 0.99408 0.02662 0.0
C319 C 0.96442 0.02354 0.02298 0.0
C320 C 0.86291 0.95408 0.01259 0.0
C321 C 0.8817 0.94248 0.99471 0.0
C322 C 0.94252 0.96985 0.9916 0.0
C323 C 0.98362 0.00986 0.00568 0.0
C324 C 0.8395 0.89964 0.97954 0.0
C325 C 0.7824 0.88541 0.97734 0.0
C326 C 0.74027 0.8388 0.96305 0.0
C327 C 0.69093 0.84086 0.95513 0.0
C328 C 0.65036 0.79649 0.94189 0.0
C329 C 0.65822 0.74896 0.93656 0.0
H330 H 0.7833 0.78611 0.96425 0.0
C331 C 0.70711 0.7467 0.94482 0.0
C332 C 0.74734 0.79072 0.9579 0.0
H333 H 0.71447 0.71053 0.94129 0.0
H334 H 0.88858 1.00229 0.04031 0.0
H335 H 0.8167 0.93204 0.01594 0.0
H336 H 0.95827 0.96071 0.97815 0.0
H337 H 0.03022 0.03108 0.00286 0.0
H338 H 0.85691 0.88012 0.96948 0.0
H339 H 0.76604 0.90901 0.98594 0.0
H340 H 0.68401 0.87705 0.95909 0.0
H341 H 0.61302 0.79937 0.93588 0.0
C342 C 0.95699 0.96741 0.34599 0.0
C343 C 0.01311 0.01339 0.3523 0.0
C344 C 0.95123 0.9258 0.33155 0.0
C345 C 1.00168 0.92969 0.32319 0.0
C346 C 0.0573 0.97707 0.32907 0.0
C347 C 0.06299 0.01815 0.34343 0.0
C348 C 0.99991 0.88617 0.30845 0.0
C349 C 0.95255 0.83323 0.30343 0.0
C350 C 0.95649 0.79072 0.28956 0.0
C351 C 0.91674 0.72985 0.29077 0.0
C352 C 0.92318 0.68897 0.27909 0.0
C353 C 0.96992 0.70853 0.26618 0.0
H354 H 0.02987 0.8561 0.27307 0.0
C355 C 1.00752 0.76926 0.26421 0.0
C356 C 1.00037 0.80982 0.27546 0.0
H357 H 0.04292 0.78555 0.25393 0.0
H358 H 0.91771 0.96264 0.35257 0.0
H359 H 0.90743 0.89082 0.3272 0.0
H360 H 0.09701 0.98181 0.32282 0.0
H361 H 0.10688 0.05315 0.34786 0.0
H362 H 0.04193 0.89763 0.30227 0.0
H363 H 0.91116 0.8187 0.31056 0.0
H364 H 0.88184 0.7138 0.30123 0.0
H365 H 0.8933 0.64229 0.28073 0.0
C366 C 0.19056 0.16163 0.68244 0.0
C367 C 0.14657 0.10748 0.68944 0.0
C368 C 0.23048 0.16349 0.66875 0.0
C369 C 0.22708 0.11107 0.66175 0.0
C370 C 0.18175 0.05702 0.66826 0.0
C371 C 0.14223 0.0552 0.68203 0.0
C372 C 0.26915 0.11024 0.64761 0.0
C373 C 0.32427 0.15551 0.64528 0.0
C374 C 0.3666 0.15199 0.63186 0.0
C375 C 0.41258 0.20404 0.62436 0.0
C376 C 0.45245 0.20204 0.61146 0.0
C377 C 0.44738 0.14783 0.6059 0.0
H378 H 0.33002 0.05707 0.63289 0.0
C379 C 0.40261 0.09601 0.61394 0.0
C380 C 0.36296 0.09802 0.62681 0.0
H381 H 0.39781 0.05351 0.61021 0.0
H382 H 0.19488 0.20271 0.6878 0.0
H383 H 0.26351 0.20598 0.66367 0.0
H384 H 0.17762 0.01591 0.663 0.0
H385 H 0.10872 0.01274 0.68705 0.0
H386 H 0.25415 0.06937 0.63926 0.0
H387 H 0.33938 0.19681 0.65337 0.0
H388 H 0.41706 0.24633 0.62822 0.0
H389 H 0.48653 0.24282 0.60558 0.0
C390 C 0.22557 0.251 0.02591 0.0
C391 C 0.17841 0.26214 0.02735 0.0
C392 C 0.27657 0.29018 0.01616 0.0
C393 C 0.28157 0.34166 0.00798 0.0
C394 C 0.23513 0.35339 0.00997 0.0
C395 C 0.18394 0.31388 0.01931 0.0
C396 C 0.33394 0.38468 0.99726 0.0
C397 C 0.36769 0.37048 0.98638 0.0
C398 C 0.41191 0.41263 0.97261 0.0
C399 C 0.45781 0.40396 0.96622 0.0
C400 C 0.49731 0.44116 0.95225 0.0
C401 C 0.4912 0.48745 0.94432 0.0
H402 H 0.37039 0.46627 0.96821 0.0
C403 C 0.44549 0.49603 0.95086 0.0
C404 C 0.40629 0.4591 0.96459 0.0
H405 H 0.43872 0.53072 0.94501 0.0
H406 H 0.22259 0.21144 0.03195 0.0
H407 H 0.31199 0.28034 0.01524 0.0
H408 H 0.23792 0.39285 0.00388 0.0
H409 H 0.14867 0.324 0.02027 0.0
H410 H 0.34184 0.42947 0.99725 0.0
H411 H 0.36086 0.32606 0.98668 0.0
H412 H 0.46276 0.36801 0.9719 0.0
H413 H 0.53176 0.43306 0.94743 0.0
C414 C 0.06131 0.26846 0.35484 0.0
C415 C 0.09655 0.28312 0.37241 0.0
C416 C 0.06843 0.31211 0.34154 0.0
C417 C 0.11089 0.37163 0.34554 0.0
C418 C 0.14718 0.38598 0.36278 0.0
C419 C 0.13995 0.34244 0.37611 0.0
C420 C 0.11875 0.41963 0.33203 0.0
C421 C 0.07414 0.41647 0.32054 0.0
C422 C 0.07871 0.46389 0.30734 0.0
C423 C 0.02609 0.46063 0.30036 0.0
C424 C 0.0268 0.50146 0.28708 0.0
C425 C 0.0803 0.54686 0.28026 0.0
H426 H 0.17428 0.51375 0.30561 0.0
C427 C 0.13339 0.5513 0.28752 0.0
C428 C 0.13268 0.51009 0.3009 0.0
H429 H 0.17531 0.58547 0.28243 0.0
H430 H 0.02793 0.22325 0.35135 0.0
H431 H 0.04094 0.29885 0.32807 0.0
H432 H 0.18067 0.43126 0.36615 0.0
H433 H 0.16843 0.35549 0.38937 0.0
H434 H 0.16126 0.45982 0.33266 0.0
H435 H 0.03064 0.37788 0.32142 0.0
H436 H 0.98386 0.42576 0.30501 0.0
H437 H 0.98496 0.49663 0.28191 0.0
loop_
_geom_bond_atom_site_label_1
_geom_bond_atom_site_label_2
_geom_bond_distance
_geom_bond_site_symmetry_2
_ccdc_geom_bond_type
Mn0 O5 2.095 . S
Mn0 O15 2.162 . S
Mn0 O16 2.297 . S
Mn0 O24 2.385 . S
Mn0 O25 2.209 1_455 S
Mn0 O26 2.094 . S
Mn1 O6 2.121 . S
Mn1 N8 2.257 1_455 S
Mn1 N17 2.282 1_455 S
Mn1 O25 2.215 1_455 S
Mn1 O27 2.117 . S
C2 O24 1.234 1_655 S
C2 O25 1.283 . S
C3 O15 1.281 . S
C3 O16 1.236 . S
C4 O26 1.240 . S
C4 O27 1.264 . S
O5 Mn0 2.095 . S
O5 C14 1.250 . S
O6 Mn1 2.121 . S
O6 C14 1.258 . S
C7 N8 1.326 . S
C7 C11 1.460 . S
C7 H13 0.929 . S
N8 Mn1 2.257 1_655 S
N8 C7 1.326 . S
N8 C12 1.362 . S
C9 C10 1.258 . S
C9 C12 1.431 . S
C9 C29 1.449 1_554 S
C10 C9 1.258 . S
C10 C11 1.477 . S
C10 H30 0.931 . S
C11 C7 1.460 . S
C11 C10 1.477 . S
C11 H31 0.930 . S
C12 N8 1.362 . S
C12 C9 1.431 . S
C12 C22 1.476 . S
H13 C7 0.929 . S
C14 O5 1.250 . S
C14 O6 1.258 . S
O15 Mn0 2.162 . S
O15 C3 1.281 . S
O16 Mn0 2.297 . S
O16 C3 1.236 . S
N17 Mn1 2.282 1_655 S
N17 C18 1.328 1_654 S
N17 C22 1.318 . S
C18 N17 1.328 1_456 S
C18 C19 1.457 1_455 S
C18 H23 0.923 1_556 S
C19 C18 1.457 1_655 S
C19 C20 1.291 . S
C19 H32 0.931 1_655 S
C20 C19 1.291 . S
C20 C21 1.373 . S
C20 H33 0.929 . S
C21 C20 1.373 . S
C21 C22 1.396 1_556 S
C21 C28 1.403 . S
C22 C12 1.476 . S
C22 N17 1.318 . S
C22 C21 1.396 1_554 S
H23 C18 0.923 1_554 S
O24 Mn0 2.385 . S
O24 C2 1.234 1_455 S
O25 Mn0 2.209 1_655 S
O25 Mn1 2.215 1_655 S
O25 C2 1.283 . S
O26 Mn0 2.094 . S
O26 C4 1.240 . S
O27 Mn1 2.117 . S
O27 C4 1.264 . S
C28 C21 1.403 . S
C28 C29 1.399 . S
C28 H34 0.929 . S
C29 C9 1.449 1_556 S
C29 C28 1.399 . S
C29 H35 0.930 . S
H30 C10 0.931 . S
H31 C11 0.930 . S
H32 C19 0.931 1_455 S
H33 C20 0.929 . S
H34 C28 0.929 . S
H35 C29 0.930 . S
Mn36 O41 2.095 1_455 S
Mn36 O51 2.162 1_445 S
Mn36 O52 2.297 . S
Mn36 O60 2.385 . S
Mn36 O61 2.209 . S
Mn36 O62 2.094 1_455 S
Mn37 O42 2.121 . S
Mn37 N44 2.257 . S
Mn37 N53 2.282 . S
Mn37 O61 2.215 . S
Mn37 O63 2.117 1_455 S
C38 O60 1.234 . S
C38 O61 1.283 . S
C39 O51 1.281 1_445 S
C39 O52 1.236 . S
C40 O62 1.240 . S
C40 O63 1.264 . S
O41 Mn36 2.095 1_655 S
O41 C50 1.250 1_655 S
O42 Mn37 2.121 . S
O42 C50 1.258 . S
C43 N44 1.326 . S
C43 C47 1.460 . S
C43 H49 0.929 . S
N44 Mn37 2.257 . S
N44 C43 1.326 . S
N44 C48 1.362 . S
C45 C46 1.258 . S
C45 C48 1.431 . S
C45 C65 1.449 . S
C46 C45 1.258 . S
C46 C47 1.477 . S
C46 H66 0.931 . S
C47 C43 1.460 . S
C47 C46 1.477 . S
C47 H67 0.930 . S
C48 N44 1.362 . S
C48 C45 1.431 . S
C48 C58 1.476 . S
H49 C43 0.929 . S
C50 O41 1.250 1_455 S
C50 O42 1.258 . S
O51 Mn36 2.162 1_665 S
O51 C39 1.281 1_665 S
O52 Mn36 2.297 . S
O52 C39 1.236 . S
N53 Mn37 2.282 . S
N53 C54 1.328 . S
N53 C58 1.318 . S
C54 N53 1.328 . S
C54 C55 1.457 . S
C54 H59 0.929 . S
C55 C54 1.457 . S
C55 C56 1.291 . S
C55 H68 0.931 . S
C56 C55 1.291 . S
C56 C57 1.373 . S
C56 H69 0.929 . S
C57 C56 1.373 . S
C57 C58 1.396 . S
C57 C64 1.403 . S
C58 C48 1.476 . S
C58 N53 1.318 . S
C58 C57 1.396 . S
H59 C54 0.929 . S
O60 Mn36 2.385 . S
O60 C38 1.234 . S
O61 Mn36 2.209 . S
O61 Mn37 2.215 . S
O61 C38 1.283 . S
O62 Mn36 2.094 1_655 S
O62 C40 1.240 . S
O63 Mn37 2.117 1_655 S
O63 C40 1.264 . S
C64 C57 1.403 . S
C64 C65 1.399 . S
C64 H70 0.929 . S
C65 C45 1.449 . S
C65 C64 1.399 . S
C65 H71 0.930 . S
H66 C46 0.931 . S
H67 C47 0.930 . S
H68 C55 0.931 . S
H69 C56 0.929 . S
H70 C64 0.929 . S
H71 C65 0.930 . S
Mn72 O77 2.095 1_455 S
Mn72 O87 2.162 . S
Mn72 O88 2.297 . S
Mn72 O96 2.385 . S
Mn72 O97 2.209 . S
Mn72 O98 2.094 1_455 S
Mn73 O78 2.121 . S
Mn73 N80 2.257 1_655 S
Mn73 N89 2.282 1_655 S
Mn73 O97 2.215 1_655 S
Mn73 O99 2.117 . S
C74 O96 1.234 . S
C74 O97 1.283 . S
C75 O87 1.281 . S
C75 O88 1.236 . S
C76 O98 1.240 . S
C76 O99 1.264 . S
O77 Mn72 2.095 1_655 S
O77 C86 1.250 . S
O78 Mn73 2.121 . S
O78 C86 1.258 . S
C79 N80 1.326 1_655 S
C79 C83 1.460 1_655 S
C79 H85 0.929 . S
N80 Mn73 2.257 1_455 S
N80 C79 1.326 1_455 S
N80 C84 1.362 . S
C81 C82 1.258 . S
C81 C84 1.431 . S
C81 C101 1.449 . S
C82 C81 1.258 . S
C82 C83 1.477 . S
C82 H102 0.931 . S
C83 C79 1.460 1_455 S
C83 C82 1.477 . S
C83 H103 0.930 . S
C84 N80 1.362 . S
C84 C81 1.431 . S
C84 C94 1.476 . S
H85 C79 0.929 . S
C86 O77 1.250 . S
C86 O78 1.258 . S
O87 Mn72 2.162 . S
O87 C75 1.281 . S
O88 Mn72 2.297 . S
O88 C75 1.236 . S
N89 Mn73 2.282 1_455 S
N89 C90 1.328 . S
N89 C94 1.318 . S
C90 N89 1.328 . S
C90 C91 1.457 . S
C90 H95 0.929 . S
C91 C90 1.457 . S
C91 C92 1.291 . S
C91 H104 0.931 . S
C92 C91 1.291 . S
C92 C93 1.373 . S
C92 H105 0.929 . S
C93 C92 1.373 . S
C93 C94 1.396 . S
C93 C100 1.403 . S
C94 C84 1.476 . S
C94 N89 1.318 . S
C94 C93 1.396 . S
H95 C90 0.929 . S
O96 Mn72 2.385 . S
O96 C74 1.234 . S
O97 Mn72 2.209 . S
O97 Mn73 2.215 1_455 S
O97 C74 1.283 . S
O98 Mn72 2.094 1_655 S
O98 C76 1.240 . S
O99 Mn73 2.117 . S
O99 C76 1.264 . S
C100 C93 1.403 . S
C100 C101 1.399 . S
C100 H106 0.929 . S
C101 C81 1.449 . S
C101 C100 1.399 . S
C101 H107 0.930 . S
H102 C82 0.931 . S
H103 C83 0.930 . S
H104 C91 0.931 . S
H105 C92 0.929 . S
H106 C100 0.929 . S
H107 C101 0.930 . S
C108 O110 1.247 . S
C108 O112 1.258 1_455 S
C109 O116 1.247 1_455 S
C109 O117 1.258 . S
O110 C108 1.247 . S
O110 Zn111 2.028 . S
Zn111 O110 2.028 . S
Zn111 O115 2.035 . S
Zn111 O117 2.035 . S
Zn111 O118 2.028 . S
O112 C108 1.258 1_655 S
O112 Zn113 2.035 . S
Zn113 O112 2.035 . S
Zn113 O114 2.028 . S
Zn113 O116 2.028 . S
Zn113 O119 2.035 . S
O114 Zn113 2.028 . S
O114 C120 1.247 1_655 S
O115 Zn111 2.035 . S
O115 C120 1.258 . S
O116 C109 1.247 1_655 S
O116 Zn113 2.028 . S
O117 C109 1.258 . S
O117 Zn111 2.035 . S
O118 Zn111 2.028 . S
O118 C121 1.247 . S
O119 Zn113 2.035 . S
O119 C121 1.258 1_655 S
C120 O114 1.247 1_455 S
C120 O115 1.258 . S
C121 O118 1.247 . S
C121 O119 1.258 1_455 S
C122 O124 1.247 . S
C122 O126 1.258 . S
C123 O130 1.247 . S
C123 O131 1.258 . S
O124 C122 1.247 . S
O124 Zn125 2.028 . S
Zn125 O124 2.028 . S
Zn125 O129 2.035 . S
Zn125 O131 2.035 . S
Zn125 O132 2.028 . S
O126 C122 1.258 . S
O126 Zn127 2.035 . S
Zn127 O126 2.035 . S
Zn127 O128 2.028 . S
Zn127 O130 2.028 . S
Zn127 O133 2.035 . S
O128 Zn127 2.028 . S
O128 C134 1.247 . S
O129 Zn125 2.035 . S
O129 C134 1.258 . S
O130 C123 1.247 . S
O130 Zn127 2.028 . S
O131 C123 1.258 . S
O131 Zn125 2.035 . S
O132 Zn125 2.028 . S
O132 C135 1.247 . S
O133 Zn127 2.035 . S
O133 C135 1.258 . S
C134 O128 1.247 . S
C134 O129 1.258 . S
C135 O132 1.247 . S
C135 O133 1.258 . S
C136 O138 1.247 . S
C136 O140 1.258 . S
C137 O144 1.247 . S
C137 O145 1.258 . S
O138 C136 1.247 . S
O138 Zn139 2.028 . S
Zn139 O138 2.028 . S
Zn139 O143 2.035 . S
Zn139 O145 2.035 . S
Zn139 O146 2.028 . S
O140 C136 1.258 . S
O140 Zn141 2.035 . S
Zn141 O140 2.035 . S
Zn141 O142 2.028 . S
Zn141 O144 2.028 . S
Zn141 O147 2.035 . S
O142 Zn141 2.028 . S
O142 C148 1.247 . S
O143 Zn139 2.035 . S
O143 C148 1.258 . S
O144 C137 1.247 . S
O144 Zn141 2.028 . S
O145 C137 1.258 . S
O145 Zn139 2.035 . S
O146 Zn139 2.028 . S
O146 C149 1.247 . S
O147 Zn141 2.035 . S
O147 C149 1.258 . S
C148 O142 1.247 . S
C148 O143 1.258 . S
C149 O146 1.247 . S
C149 O147 1.258 . S
C150 C151 1.386 . S
C150 C152 1.383 . S
C150 H166 0.951 . S
C151 C150 1.386 . S
C151 C155 1.383 . S
C152 C150 1.383 . S
C152 C153 1.402 . S
C152 H167 0.951 . S
C153 C152 1.402 . S
C153 C154 1.375 1_455 S
C153 C156 1.481 . S
C154 C153 1.375 1_655 S
C154 C155 1.367 1_655 S
C154 H168 0.951 . S
C155 C151 1.383 . S
C155 C154 1.367 1_455 S
C155 H169 0.950 1_455 S
C156 C153 1.481 . S
C156 C157 1.297 . S
C156 H170 0.967 . S
C157 C156 1.297 . S
C157 C158 1.479 . S
C157 H171 0.950 . S
C158 C157 1.479 . S
C158 C159 1.375 . S
C158 C164 1.404 . S
C159 C158 1.375 . S
C159 C160 1.369 . S
C159 H172 0.950 . S
C160 C159 1.369 . S
C160 C161 1.392 . S
C160 H173 0.951 . S
C161 C160 1.392 . S
C161 C163 1.384 . S
H162 C164 0.949 1_655 S
C163 C161 1.384 . S
C163 C164 1.385 . S
C163 H165 0.950 1_455 S
C164 C158 1.404 . S
C164 H162 0.949 1_455 S
C164 C163 1.385 . S
H165 C163 0.950 1_655 S
H166 C150 0.951 . S
H167 C152 0.951 . S
H168 C154 0.951 . S
H169 C155 0.950 1_655 S
H170 C156 0.967 . S
H171 C157 0.950 . S
H172 C159 0.950 . S
H173 C160 0.951 . S
C174 C175 1.386 . S
C174 C176 1.383 . S
C174 H190 0.951 . S
C175 C174 1.386 . S
C175 C179 1.383 . S
C176 C174 1.383 . S
C176 C177 1.402 . S
C176 H191 0.951 . S
C177 C176 1.402 . S
C177 C178 1.375 . S
C177 C180 1.481 . S
C178 C177 1.375 . S
C178 C179 1.367 . S
C178 H192 0.951 . S
C179 C175 1.383 . S
C179 C178 1.367 . S
C179 H193 0.950 . S
C180 C177 1.481 . S
C180 C181 1.297 . S
C180 H194 0.950 . S
C181 C180 1.297 . S
C181 C182 1.479 . S
C181 H195 0.950 . S
C182 C181 1.479 . S
C182 C183 1.375 . S
C182 C188 1.404 . S
C183 C182 1.375 . S
C183 C184 1.369 . S
C183 H196 0.950 . S
C184 C183 1.369 . S
C184 C185 1.392 . S
C184 H197 0.951 . S
C185 C184 1.392 . S
C185 C187 1.384 . S
H186 C188 0.949 . S
C187 C185 1.384 . S
C187 C188 1.385 . S
C187 H189 0.950 . S
C188 C182 1.404 . S
C188 H186 0.949 . S
C188 C187 1.385 . S
H189 C187 0.950 . S
H190 C174 0.951 . S
H191 C176 0.951 . S
H192 C178 0.951 . S
H193 C179 0.950 . S
H194 C180 0.950 . S
H195 C181 0.950 . S
H196 C183 0.950 . S
H197 C184 0.951 . S
C198 C199 1.386 . S
C198 C200 1.383 . S
C198 H214 0.951 1_565 S
C199 C198 1.386 . S
C199 C203 1.383 . S
C200 C198 1.383 . S
C200 C201 1.402 . S
C200 H215 0.951 . S
C201 C200 1.402 . S
C201 C202 1.375 . S
C201 C204 1.481 . S
C202 C201 1.375 . S
C202 C203 1.367 . S
C202 H216 0.951 . S
C203 C199 1.383 . S
C203 C202 1.367 . S
C203 H217 0.950 . S
C204 C201 1.481 . S
C204 C205 1.297 . S
C204 H218 0.950 . S
C205 C204 1.297 . S
C205 C206 1.479 . S
C205 H219 0.950 . S
C206 C205 1.479 . S
C206 C207 1.375 . S
C206 C212 1.404 . S
C207 C206 1.375 . S
C207 C208 1.369 . S
C207 H220 0.950 . S
C208 C207 1.369 . S
C208 C209 1.392 . S
C208 H221 0.951 . S
C209 C208 1.392 . S
C209 C211 1.384 . S
H210 C212 0.949 . S
C211 C209 1.384 . S
C211 C212 1.385 . S
C211 H213 0.950 . S
C212 C206 1.404 . S
C212 H210 0.949 . S
C212 C211 1.385 . S
H213 C211 0.950 . S
H214 C198 0.951 1_545 S
H215 C200 0.951 . S
H216 C202 0.951 . S
H217 C203 0.950 . S
H218 C204 0.950 . S
H219 C205 0.950 . S
H220 C207 0.950 . S
H221 C208 0.951 . S
C222 C223 1.386 . S
C222 C224 1.383 . S
C222 H238 0.951 . S
C223 C222 1.386 . S
C223 C227 1.383 . S
C224 C222 1.383 . S
C224 C225 1.402 . S
C224 H239 0.951 . S
C225 C224 1.402 . S
C225 C226 1.375 . S
C225 C228 1.481 . S
C226 C225 1.375 . S
C226 C227 1.367 . S
C226 H240 0.951 . S
C227 C223 1.383 . S
C227 C226 1.367 . S
C227 H241 0.950 1_565 S
C228 C225 1.481 . S
C228 C229 1.297 . S
C228 H242 0.950 . S
C229 C228 1.297 . S
C229 C230 1.479 . S
C229 H243 0.950 . S
C230 C229 1.479 . S
C230 C231 1.375 . S
C230 C236 1.404 . S
C231 C230 1.375 . S
C231 C232 1.369 . S
C231 H244 0.950 . S
C232 C231 1.369 . S
C232 C233 1.392 . S
C232 H245 0.951 . S
C233 C232 1.392 . S
C233 C235 1.384 . S
H234 C236 0.949 . S
C235 C233 1.384 . S
C235 C236 1.385 . S
C235 H237 0.950 . S
C236 C230 1.404 . S
C236 H234 0.949 . S
C236 C235 1.385 . S
H237 C235 0.950 . S
H238 C222 0.951 . S
H239 C224 0.951 . S
H240 C226 0.951 . S
H241 C227 0.950 1_545 S
H242 C228 0.950 . S
H243 C229 0.950 . S
H244 C231 0.950 . S
H245 C232 0.951 . S
C246 C247 1.386 . S
C246 C248 1.383 . S
C246 H262 0.951 . S
C247 C246 1.386 . S
C247 C251 1.383 . S
C248 C246 1.383 . S
C248 C249 1.402 . S
C248 H263 0.951 . S
C249 C248 1.402 . S
C249 C250 1.375 . S
C249 C252 1.481 . S
C250 C249 1.375 . S
C250 C251 1.367 . S
C250 H264 0.951 . S
C251 C247 1.383 . S
C251 C250 1.367 . S
C251 H265 0.950 . S
C252 C249 1.481 . S
C252 C253 1.297 . S
C252 H266 0.950 . S
C253 C252 1.297 . S
C253 C254 1.479 . S
C253 H267 0.950 . S
C254 C253 1.479 . S
C254 C255 1.375 . S
C254 C260 1.404 . S
C255 C254 1.375 . S
C255 C256 1.369 . S
C255 H268 0.950 . S
C256 C255 1.369 . S
C256 C257 1.392 . S
C256 H269 0.951 . S
C257 C256 1.392 . S
C257 C259 1.384 . S
H258 C260 0.949 . S
C259 C257 1.384 . S
C259 C260 1.385 . S
C259 H261 0.950 . S
C260 C254 1.404 . S
C260 H258 0.949 . S
C260 C259 1.385 . S
H261 C259 0.950 . S
H262 C246 0.951 . S
H263 C248 0.951 . S
H264 C250 0.951 . S
H265 C251 0.950 . S
H266 C252 0.950 . S
H267 C253 0.950 . S
H268 C255 0.950 . S
H269 C256 0.951 . S
C270 C271 1.386 . S
C270 C272 1.383 . S
C270 H286 0.951 . S
C271 C270 1.386 . S
C271 C275 1.383 . S
C272 C270 1.383 . S
C272 C273 1.402 . S
C272 H287 0.951 . S
C273 C272 1.402 . S
C273 C274 1.375 . S
C273 C276 1.481 . S
C274 C273 1.375 . S
C274 C275 1.367 . S
C274 H288 0.951 . S
C275 C271 1.383 . S
C275 C274 1.367 . S
C275 H289 0.950 . S
C276 C273 1.481 . S
C276 C277 1.297 . S
C276 H290 0.950 . S
C277 C276 1.297 . S
C277 C278 1.479 . S
C277 H291 0.950 . S
C278 C277 1.479 . S
C278 C279 1.375 . S
C278 C284 1.404 . S
C279 C278 1.375 . S
C279 C280 1.369 . S
C279 H292 0.950 . S
C280 C279 1.369 . S
C280 C281 1.392 . S
C280 H293 0.951 . S
C281 C280 1.392 . S
C281 C283 1.384 . S
H282 C284 0.949 . S
C283 C281 1.384 . S
C283 C284 1.385 . S
C283 H285 0.950 . S
C284 C278 1.404 . S
C284 H282 0.949 . S
C284 C283 1.385 . S
H285 C283 0.950 . S
H286 C270 0.951 . S
H287 C272 0.951 . S
H288 C274 0.951 . S
H289 C275 0.950 . S
H290 C276 0.950 . S
H291 C277 0.950 . S
H292 C279 0.950 . S
H293 C280 0.951 . S
C294 C295 1.386 . S
C294 C296 1.383 . S
C294 H310 0.951 . S
C295 C294 1.386 . S
C295 C299 1.383 . S
C296 C294 1.383 . S
C296 C297 1.402 . S
C296 H311 0.951 . S
C297 C296 1.402 . S
C297 C298 1.375 . S
C297 C300 1.481 . S
C298 C297 1.375 . S
C298 C299 1.367 . S
C298 H312 0.951 . S
C299 C295 1.383 . S
C299 C298 1.367 . S
C299 H313 0.950 . S
C300 C297 1.481 . S
C300 C301 1.297 . S
C300 H314 0.950 . S
C301 C300 1.297 . S
C301 C302 1.479 . S
C301 H315 0.950 . S
C302 C301 1.479 . S
C302 C303 1.375 . S
C302 C308 1.404 . S
C303 C302 1.375 . S
C303 C304 1.369 . S
C303 H316 0.950 . S
C304 C303 1.369 . S
C304 C305 1.392 . S
C304 H317 0.951 . S
C305 C304 1.392 . S
C305 C307 1.384 . S
H306 C308 0.949 . S
C307 C305 1.384 . S
C307 C308 1.385 . S
C307 H309 0.950 . S
C308 C302 1.404 . S
C308 H306 0.949 . S
C308 C307 1.385 . S
H309 C307 0.950 . S
H310 C294 0.951 . S
H311 C296 0.951 . S
H312 C298 0.951 . S
H313 C299 0.950 . S
H314 C300 0.950 . S
H315 C301 0.950 . S
H316 C303 0.950 . S
H317 C304 0.951 . S
C318 C319 1.386 1_565 S
C318 C320 1.383 . S
C318 H334 0.951 . S
C319 C318 1.386 1_545 S
C319 C323 1.383 1_545 S
C320 C318 1.383 . S
C320 C321 1.402 1_554 S
C320 H335 0.951 . S
C321 C320 1.402 1_556 S
C321 C322 1.375 . S
C321 C324 1.481 . S
C322 C321 1.375 . S
C322 C323 1.367 1_556 S
C322 H336 0.951 . S
C323 C319 1.383 1_565 S
C323 C322 1.367 1_554 S
C323 H337 0.946 1_665 S
C324 C321 1.481 . S
C324 C325 1.297 . S
C324 H338 0.950 . S
C325 C324 1.297 . S
C325 C326 1.479 . S
C325 H339 0.950 . S
C326 C325 1.479 . S
C326 C327 1.375 . S
C326 C332 1.404 . S
C327 C326 1.375 . S
C327 C328 1.369 . S
C327 H340 0.950 . S
C328 C327 1.369 . S
C328 C329 1.392 . S
C328 H341 0.951 . S
C329 C328 1.392 . S
C329 C331 1.384 . S
H330 C332 0.949 . S
C331 C329 1.384 . S
C331 C332 1.385 . S
C331 H333 0.950 . S
C332 C326 1.404 . S
C332 H330 0.949 . S
C332 C331 1.385 . S
H333 C331 0.950 . S
H334 C318 0.951 . S
H335 C320 0.951 . S
H336 C322 0.951 . S
H337 C323 0.946 1_445 S
H338 C324 0.950 . S
H339 C325 0.950 . S
H340 C327 0.950 . S
H341 C328 0.951 . S
C342 C343 1.386 1_655 S
C342 C344 1.383 . S
C342 H358 0.951 . S
C343 C342 1.386 1_455 S
C343 C347 1.383 . S
C344 C342 1.383 . S
C344 C345 1.402 1_655 S
C344 H359 0.951 . S
C345 C344 1.402 1_455 S
C345 C346 1.375 . S
C345 C348 1.481 . S
C346 C345 1.375 . S
C346 C347 1.367 . S
C346 H360 0.951 . S
C347 C343 1.383 . S
C347 C346 1.367 . S
C347 H361 0.950 1_565 S
C348 C345 1.481 . S
C348 C349 1.297 1_455 S
C348 H362 0.950 . S
C349 C348 1.297 1_655 S
C349 C350 1.489 . S
C349 H363 0.950 . S
C350 C349 1.489 . S
C350 C351 1.369 . S
C350 C356 1.400 1_655 S
C351 C350 1.369 . S
C351 C352 1.369 1_655 S
C351 H364 0.950 . S
C352 C351 1.369 1_455 S
C352 C353 1.392 . S
C352 H365 0.951 1_455 S
C353 C352 1.392 . S
C353 C355 1.384 . S
H354 C356 0.949 . S
C355 C353 1.384 . S
C355 C356 1.385 . S
C355 H357 0.950 . S
C356 C350 1.400 1_455 S
C356 H354 0.949 . S
C356 C355 1.385 . S
H357 C355 0.950 . S
H358 C342 0.951 . S
H359 C344 0.951 . S
H360 C346 0.951 . S
H361 C347 0.950 1_545 S
H362 C348 0.950 . S
H363 C349 0.950 . S
H364 C351 0.950 . S
H365 C352 0.951 1_655 S
C366 C367 1.386 . S
C366 C368 1.383 . S
C366 H382 0.951 . S
C367 C366 1.386 . S
C367 C371 1.383 . S
C368 C366 1.383 . S
C368 C369 1.402 . S
C368 H383 0.951 . S
C369 C368 1.402 . S
C369 C370 1.375 . S
C369 C372 1.481 . S
C370 C369 1.375 . S
C370 C371 1.367 . S
C370 H384 0.951 . S
C371 C367 1.383 . S
C371 C370 1.367 . S
C371 H385 0.950 . S
C372 C369 1.481 . S
C372 C373 1.297 . S
C372 H386 0.950 . S
C373 C372 1.297 . S
C373 C374 1.479 . S
C373 H387 0.950 . S
C374 C373 1.479 . S
C374 C375 1.375 . S
C374 C380 1.404 . S
C375 C374 1.375 . S
C375 C376 1.369 . S
C375 H388 0.950 . S
C376 C375 1.369 . S
C376 C377 1.392 . S
C376 H389 0.951 . S
C377 C376 1.392 . S
C377 C379 1.384 . S
H378 C380 0.949 . S
C379 C377 1.384 . S
C379 C380 1.385 . S
C379 H381 0.950 . S
C380 C374 1.404 . S
C380 H378 0.949 . S
C380 C379 1.385 . S
H381 C379 0.950 . S
H382 C366 0.951 . S
H383 C368 0.951 . S
H384 C370 0.951 . S
H385 C371 0.950 . S
H386 C372 0.950 . S
H387 C373 0.950 . S
H388 C375 0.950 . S
H389 C376 0.951 . S
C390 C391 1.386 . S
C390 C392 1.383 . S
C390 H406 0.951 . S
C391 C390 1.386 . S
C391 C395 1.383 . S
C392 C390 1.383 . S
C392 C393 1.402 1_554 S
C392 H407 0.951 . S
C393 C392 1.402 1_556 S
C393 C394 1.375 . S
C393 C396 1.481 . S
C394 C393 1.375 . S
C394 C395 1.367 1_556 S
C394 H408 0.951 . S
C395 C391 1.383 . S
C395 C394 1.367 1_554 S
C395 H409 0.950 . S
C396 C393 1.481 . S
C396 C397 1.297 . S
C396 H410 0.950 . S
C397 C396 1.297 . S
C397 C398 1.479 . S
C397 H411 0.950 . S
C398 C397 1.479 . S
C398 C399 1.375 . S
C398 C404 1.404 . S
C399 C398 1.375 . S
C399 C400 1.369 . S
C399 H412 0.950 . S
C400 C399 1.369 . S
C400 C401 1.392 . S
C400 H413 0.951 . S
C401 C400 1.392 . S
C401 C403 1.384 . S
H402 C404 0.949 . S
C403 C401 1.384 . S
C403 C404 1.385 . S
C403 H405 0.950 . S
C404 C398 1.404 . S
C404 H402 0.949 . S
C404 C403 1.385 . S
H405 C403 0.950 . S
H406 C390 0.951 . S
H407 C392 0.951 . S
H408 C394 0.951 . S
H409 C395 0.950 . S
H410 C396 0.950 . S
H411 C397 0.950 . S
H412 C399 0.950 . S
H413 C400 0.951 . S
C414 C415 1.386 1_655 S
C414 C416 1.383 . S
C414 H430 0.951 . S
C415 C414 1.386 1_455 S
C415 C419 1.383 . S
C416 C414 1.383 . S
C416 C417 1.402 1_655 S
C416 H431 0.951 . S
C417 C416 1.402 1_455 S
C417 C418 1.375 . S
C417 C420 1.481 . S
C418 C417 1.375 . S
C418 C419 1.367 . S
C418 H432 0.951 . S
C419 C415 1.383 . S
C419 C418 1.367 . S
C419 H433 0.950 . S
C420 C417 1.481 . S
C420 C421 1.297 . S
C420 H434 0.950 . S
C421 C420 1.297 . S
C421 C422 1.479 . S
C421 H435 0.950 1_455 S
C422 C421 1.479 . S
C422 C423 1.375 1_455 S
C422 C428 1.404 . S
C423 C422 1.375 1_655 S
C423 C424 1.369 . S
C423 H436 0.950 . S
C424 C423 1.369 . S
C424 C425 1.392 1_655 S
C424 H437 0.951 . S
C425 C424 1.392 1_455 S
C425 C427 1.384 . S
H426 C428 0.949 . S
C427 C425 1.384 . S
C427 C428 1.385 . S
C427 H429 0.950 . S
C428 C422 1.404 . S
C428 H426 0.949 . S
C428 C427 1.385 . S
H429 C427 0.950 . S
H430 C414 0.951 . S
H431 C416 0.951 . S
H432 C418 0.951 . S
H433 C419 0.950 . S
H434 C420 0.950 . S
H435 C421 0.950 1_655 S
H436 C423 0.950 . S
H437 C424 0.951 . S
C161 C109 1.445 . S
C151 C14 1.394 . S
C175 C40 1.464 . S
C185 C135 1.453 . S
C199 C76 1.449 1_565 S
C209 C137 1.433 . S
C223 C3 1.423 1_565 S
C233 C121 1.416 . S
C257 C123 1.466 . S
C247 C38 1.437 . S
C271 C74 1.442 . S
C281 C149 1.434 . S
C305 C122 1.411 . S
C295 C86 1.361 . S
C319 C2 1.424 . S
C329 C148 1.448 . S
C353 C108 1.419 . S
C343 C39 1.423 1_565 S
C377 C134 1.416 . S
C367 C75 1.437 . S
C401 C136 1.440 . S
C391 C4 1.429 . S
C415 C50 1.402 . S
C425 C120 1.442 . S
