# Generated by pormake.
# Topology wbl, (4,4)-cn, num edge types: 1
# Building blocks:
#     Node 0, Type 0, BuildingBlock: MUDLON_clean_sbu_0, # of connection points: 4
#     Node 1, Type 0, BuildingBlock: MUDLON_clean_sbu_0, # of connection points: 4
#     Node 2, Type 0, BuildingBlock: MUDLON_clean_sbu_0, # of connection points: 4
#     Node 3, Type 0, BuildingBlock: MUDLON_clean_sbu_0, # of connection points: 4
#     Node 4, Type 0, BuildingBlock: MUDLON_clean_sbu_0, # of connection points: 4
#     Node 5, Type 0, BuildingBlock: MUDLON_clean_sbu_0, # of connection points: 4
#     Node 6, Type 0, BuildingBlock: MUDLON_clean_sbu_0, # of connection points: 4
#     Node 7, Type 0, BuildingBlock: MUDLON_clean_sbu_0, # of connection points: 4
#     Node 8, Type 1, BuildingBlock: KUFVIS_clean_sbu_0, # of connection points: 4
#     Node 9, Type 1, BuildingBlock: KUFVIS_clean_sbu_0, # of connection points: 4
#     Node 10, Type 1, BuildingBlock: KUFVIS_clean_sbu_0, # of connection points: 4
#     Node 11, Type 1, BuildingBlock: KUFVIS_clean_sbu_0, # of connection points: 4
#     Node 12, Type 1, BuildingBlock: KUFVIS_clean_sbu_0, # of connection points: 4
#     Node 13, Type 1, BuildingBlock: KUFVIS_clean_sbu_0, # of connection points: 4
#     Node 14, Type 1, BuildingBlock: KUFVIS_clean_sbu_0, # of connection points: 4
#     Node 15, Type 1, BuildingBlock: KUFVIS_clean_sbu_0, # of connection points: 4
#     Edge 16, Type (0, 1), BuildingBlock: XUDNAN_clean_linker_2, # of connection points: 2
#     Edge 17, Type (0, 1), BuildingBlock: XUDNAN_clean_linker_2, # of connection points: 2
#     Edge 18, Type (0, 1), BuildingBlock: XUDNAN_clean_linker_2, # of connection points: 2
#     Edge 19, Type (0, 1), BuildingBlock: XUDNAN_clean_linker_2, # of connection points: 2
#     Edge 20, Type (0, 1), BuildingBlock: XUDNAN_clean_linker_2, # of connection points: 2
#     Edge 21, Type (0, 1), BuildingBlock: XUDNAN_clean_linker_2, # of connection points: 2
#     Edge 22, Type (0, 1), BuildingBlock: XUDNAN_clean_linker_2, # of connection points: 2
#     Edge 23, Type (0, 1), BuildingBlock: XUDNAN_clean_linker_2, # of connection points: 2
#     Edge 24, Type (0, 1), BuildingBlock: XUDNAN_clean_linker_2, # of connection points: 2
#     Edge 25, Type (0, 1), BuildingBlock: XUDNAN_clean_linker_2, # of connection points: 2
#     Edge 26, Type (0, 1), BuildingBlock: XUDNAN_clean_linker_2, # of connection points: 2
#     Edge 27, Type (0, 1), BuildingBlock: XUDNAN_clean_linker_2, # of connection points: 2
#     Edge 28, Type (0, 1), BuildingBlock: XUDNAN_clean_linker_2, # of connection points: 2
#     Edge 29, Type (0, 1), BuildingBlock: XUDNAN_clean_linker_2, # of connection points: 2
#     Edge 30, Type (0, 1), BuildingBlock: XUDNAN_clean_linker_2, # of connection points: 2
#     Edge 31, Type (0, 1), BuildingBlock: XUDNAN_clean_linker_2, # of connection points: 2
#     Edge 32, Type (0, 1), BuildingBlock: XUDNAN_clean_linker_2, # of connection points: 2
#     Edge 33, Type (0, 1), BuildingBlock: XUDNAN_clean_linker_2, # of connection points: 2
#     Edge 34, Type (0, 1), BuildingBlock: XUDNAN_clean_linker_2, # of connection points: 2
#     Edge 35, Type (0, 1), BuildingBlock: XUDNAN_clean_linker_2, # of connection points: 2
#     Edge 36, Type (0, 1), BuildingBlock: XUDNAN_clean_linker_2, # of connection points: 2
#     Edge 37, Type (0, 1), BuildingBlock: XUDNAN_clean_linker_2, # of connection points: 2
#     Edge 38, Type (0, 1), BuildingBlock: XUDNAN_clean_linker_2, # of connection points: 2
#     Edge 39, Type (0, 1), BuildingBlock: XUDNAN_clean_linker_2, # of connection points: 2
#     Edge 40, Type (0, 1), BuildingBlock: XUDNAN_clean_linker_2, # of connection points: 2
#     Edge 41, Type (0, 1), BuildingBlock: XUDNAN_clean_linker_2, # of connection points: 2
#     Edge 42, Type (0, 1), BuildingBlock: XUDNAN_clean_linker_2, # of connection points: 2
#     Edge 43, Type (0, 1), BuildingBlock: XUDNAN_clean_linker_2, # of connection points: 2
#     Edge 44, Type (0, 1), BuildingBlock: XUDNAN_clean_linker_2, # of connection points: 2
#     Edge 45, Type (0, 1), BuildingBlock: XUDNAN_clean_linker_2, # of connection points: 2
#     Edge 46, Type (0, 1), BuildingBlock: XUDNAN_clean_linker_2, # of connection points: 2
#     Edge 47, Type (0, 1), BuildingBlock: XUDNAN_clean_linker_2, # of connection points: 2
# Relax obj value: 0.226
# Max RMSD: 0.215
# Mean RMSD: 0.171
data_MOF--net-wbl--node1-MUDLON_clean_sbu_0--node2-KUFVIS_clean_sbu_0--edge1-XUDNAN_clean_linker_2
_symmetry_space_group_name_H-M    P1
_symmetry_Int_Tables_number       1
_symmetry_cell_setting            triclinic
loop_
_symmetry_equiv_pos_as_xyz
'x, y, z'
_cell_length_a     34.871752
_cell_length_b     34.858168
_cell_length_c     74.935174
_cell_angle_alpha  90.092242
_cell_angle_beta   90.509826
_cell_angle_gamma 90.088773
loop_
_atom_site_label
_atom_site_type_symbol
_atom_site_fract_x
_atom_site_fract_y
_atom_site_fract_z
_atom_type_partial_charge
Mg0 Mg 0.03625 0.06681 0.34246 0.0
C1 C 0.03485 0.98569 0.35933 0.0
O2 O 0.05193 0.97346 0.34486 0.0
C3 C 0.95411 0.07997 0.32792 0.0
O4 O 0.94745 0.045 0.33363 0.0
C5 C 0.11012 0.03529 0.32593 0.0
O6 O 0.11827 0.02585 0.34251 0.0
O7 O 0.07876 0.05241 0.32249 0.0
O8 O 0.02185 0.01968 0.35991 0.0
O9 O 0.05741 0.10532 0.36308 0.0
C10 C 0.03176 0.12489 0.3709 0.0
O11 O 0.9973 0.1263 0.36371 0.0
O12 O 0.98747 0.09425 0.32968 0.0
Mg13 Mg 0.09926 0.53923 0.59967 0.0
C14 C 0.17488 0.52848 0.62012 0.0
O15 O 0.1892 0.55082 0.60775 0.0
C16 C 0.08104 0.46198 0.582 0.0
O17 O 0.10673 0.44954 0.59354 0.0
C18 C 0.1 0.61033 0.57676 0.0
O19 O 0.06304 0.6029 0.5767 0.0
O20 O 0.12242 0.58836 0.58544 0.0
O21 O 0.14078 0.51611 0.61841 0.0
O22 O 0.0571 0.55561 0.61929 0.0
C23 C 0.03929 0.5274 0.62608 0.0
O24 O 0.0423 0.49364 0.6184 0.0
O25 O 0.07346 0.49762 0.58145 0.0
Mg26 Mg 0.64942 0.6249 0.84169 0.0
C27 C 0.64767 0.71314 0.85318 0.0
O28 O 0.65603 0.74898 0.84942 0.0
C29 C 0.68223 0.56487 0.81715 0.0
O30 O 0.64725 0.55147 0.81898 0.0
C31 C 0.57132 0.63379 0.82425 0.0
O32 O 0.58584 0.66756 0.82044 0.0
O33 O 0.59151 0.60998 0.8331 0.0
O34 O 0.6556 0.68746 0.8416 0.0
O35 O 0.66259 0.60286 0.86797 0.0
C36 C 0.68872 0.62004 0.87678 0.0
O37 O 0.70581 0.64993 0.86973 0.0
O38 O 0.69101 0.59665 0.82452 0.0
Mg39 Mg 0.54568 0.1325 0.08022 0.0
C40 C 0.577 0.15628 0.11445 0.0
O41 O 0.54733 0.17868 0.11156 0.0
C42 C 0.58166 0.06313 0.06234 0.0
O43 O 0.61166 0.07499 0.07155 0.0
C44 C 0.5857 0.18093 0.05394 0.0
O45 O 0.59963 0.14656 0.05097 0.0
O46 O 0.5593 0.18455 0.06541 0.0
O47 O 0.58584 0.13187 0.10254 0.0
O48 O 0.49141 0.13253 0.09421 0.0
C49 C 0.47114 0.10228 0.09536 0.0
O50 O 0.47855 0.07319 0.08478 0.0
O51 O 0.55034 0.08154 0.06351 0.0
Mg52 Mg 0.14865 0.55699 0.93928 0.0
C53 C 0.15425 0.63293 0.91849 0.0
O54 O 0.18304 0.64035 0.92936 0.0
C55 C 0.07872 0.56632 0.96334 0.0
O56 O 0.07362 0.59816 0.95427 0.0
C57 C 0.20037 0.59767 0.96322 0.0
O58 O 0.16606 0.61071 0.96705 0.0
O59 O 0.20324 0.57121 0.95162 0.0
O60 O 0.13332 0.60367 0.92133 0.0
O61 O 0.14589 0.50843 0.921 0.0
C62 C 0.11343 0.50916 0.91309 0.0
O63 O 0.08851 0.53536 0.91793 0.0
O64 O 0.10732 0.54518 0.9599 0.0
Mg65 Mg 0.61477 0.64496 0.1897 0.0
C66 C 0.55776 0.66911 0.15969 0.0
O67 O 0.55029 0.69966 0.1693 0.0
C68 C 0.6271 0.58364 0.2171 0.0
O69 O 0.662 0.59765 0.21598 0.0
C70 C 0.58214 0.71224 0.20882 0.0
O71 O 0.55441 0.6869 0.21028 0.0
O72 O 0.61294 0.70233 0.20112 0.0
O73 O 0.57822 0.64244 0.16624 0.0
O74 O 0.66747 0.62898 0.1762 0.0
C75 C 0.66208 0.59649 0.1688 0.0
O76 O 0.63091 0.57727 0.17287 0.0
O77 O 0.60028 0.59945 0.20818 0.0
Mg78 Mg 0.53616 0.1159 0.43125 0.0
C79 C 0.52623 0.19199 0.41065 0.0
O80 O 0.48966 0.19074 0.4146 0.0
C81 C 0.4769 0.07875 0.45328 0.0
O82 O 0.50121 0.0507 0.45037 0.0
C83 C 0.60666 0.12358 0.45334 0.0
O84 O 0.59283 0.15861 0.45375 0.0
O85 O 0.5878 0.09767 0.44511 0.0
O86 O 0.54974 0.17043 0.41894 0.0
O87 O 0.5249 0.08363 0.407 0.0
C88 C 0.49315 0.09362 0.40001 0.0
O89 O 0.46973 0.11491 0.4094 0.0
O90 O 0.48493 0.11206 0.44747 0.0
Mg91 Mg 0.07893 0.02362 0.68657 0.0
C92 C 0.13801 0.03602 0.65622 0.0
O93 O 0.14357 0.07044 0.66293 0.0
C94 C 0.06357 0.09227 0.70872 0.0
O95 O 0.03049 0.07422 0.70928 0.0
C96 C 0.11609 0.96481 0.70893 0.0
O97 O 0.14508 0.98671 0.70435 0.0
O98 O 0.0825 0.97405 0.70379 0.0
O99 O 0.11628 0.01248 0.66423 0.0
O100 O 0.0251 0.03168 0.67232 0.0
C101 C 0.02843 0.0614 0.66264 0.0
O102 O 0.05925 0.08275 0.66465 0.0
O103 O 0.09126 0.07675 0.70048 0.0
Mn104 Mn 0.51689 0.75651 0.00515 0.0
Mn105 Mn 0.52839 0.66118 0.00993 0.0
C106 C 0.51675 0.72929 0.03333 0.0
C107 C 0.5434 0.81778 0.00383 0.0
C108 C 0.45385 0.69729 0.99773 0.0
O109 O 0.53808 0.74021 0.98084 0.0
O110 O 0.54791 0.6773 0.98624 0.0
C111 C 0.61155 0.67051 0.01405 0.0
N112 N 0.57867 0.65284 0.01919 0.0
C113 C 0.60981 0.6263 0.04515 0.0
C114 C 0.64433 0.64312 0.03978 0.0
C115 C 0.64464 0.66684 0.02466 0.0
C116 C 0.57701 0.6332 0.03472 0.0
H117 H 0.61177 0.68906 0.00252 0.0
C118 C 0.54937 0.70683 0.97609 0.0
O119 O 0.50929 0.81086 0.99745 0.0
O120 O 0.56264 0.78882 0.00994 0.0
N121 N 0.51096 0.64074 0.0321 0.0
C122 C 0.47439 0.63728 0.03815 0.0
C123 C 0.4678 0.61911 0.05455 0.0
C124 C 0.49884 0.60472 0.06455 0.0
C125 C 0.53623 0.60881 0.0581 0.0
C126 C 0.54096 0.62625 0.04144 0.0
H127 H 0.45045 0.64837 0.03052 0.0
O128 O 0.50132 0.76263 0.03076 0.0
O129 O 0.53149 0.71325 0.01935 0.0
O130 O 0.46496 0.73216 0.999 0.0
O131 O 0.47544 0.66846 0.00099 0.0
C132 C 0.56906 0.59789 0.06793 0.0
C133 C 0.60588 0.60698 0.06152 0.0
H134 H 0.67011 0.64019 0.04783 0.0
H135 H 0.67016 0.68286 0.02135 0.0
H136 H 0.43889 0.61641 0.05953 0.0
H137 H 0.49372 0.59128 0.07733 0.0
H138 H 0.56628 0.58441 0.08087 0.0
H139 H 0.63087 0.60094 0.0697 0.0
Mn140 Mn 0.40269 0.99798 0.25204 0.0
Mn141 Mn 0.48242 0.05168 0.2481 0.0
C142 C 0.43595 0.01804 0.27724 0.0
C143 C 0.33645 0.99521 0.25475 0.0
C144 C 0.48117 0.96552 0.24192 0.0
O145 O 0.39954 0.01591 0.22613 0.0
O146 O 0.45192 0.05372 0.22566 0.0
C147 C 0.44153 0.12595 0.24683 0.0
N148 N 0.46904 0.10315 0.25426 0.0
C149 C 0.48416 0.15095 0.27645 0.0
C150 C 0.45623 0.17508 0.26895 0.0
C151 C 0.43471 0.16243 0.25412 0.0
C152 C 0.48944 0.11475 0.2687 0.0
H153 H 0.42465 0.1162 0.23555 0.0
C154 C 0.42201 0.03921 0.21823 0.0
O155 O 0.35559 0.96547 0.24935 0.0
O156 O 0.35542 0.0264 0.25794 0.0
N157 N 0.51476 0.05302 0.26885 0.0
C158 C 0.53838 0.02516 0.27535 0.0
C159 C 0.56194 0.03314 0.2902 0.0
C160 C 0.56104 0.06965 0.29814 0.0
C161 C 0.53649 0.09781 0.29121 0.0
C162 C 0.51426 0.08847 0.27619 0.0
H163 H 0.5393 0.99711 0.26924 0.0
O164 O 0.41263 0.98915 0.2781 0.0
O165 O 0.43854 0.03436 0.26175 0.0
O166 O 0.44568 0.96071 0.24548 0.0
O167 O 0.49783 0.99834 0.24223 0.0
C168 C 0.53275 0.13458 0.29878 0.0
C169 C 0.50643 0.16106 0.29151 0.0
H170 H 0.45092 0.20324 0.27452 0.0
H171 H 0.41292 0.18077 0.24832 0.0
H172 H 0.58074 0.0112 0.29552 0.0
H173 H 0.5792 0.07568 0.3096 0.0
H174 H 0.54937 0.14249 0.31043 0.0
H175 H 0.50328 0.18896 0.29772 0.0
Mn176 Mn 0.18149 0.92393 0.49728 0.0
Mn177 Mn 0.08736 0.91854 0.50673 0.0
C178 C 0.13719 0.91256 0.47469 0.0
C179 C 0.23474 0.96187 0.49061 0.0
C180 C 0.14283 0.85358 0.51406 0.0
O181 O 0.17892 0.94754 0.52198 0.0
O182 O 0.11531 0.94423 0.52681 0.0
C183 C 0.07253 0.00168 0.50429 0.0
N184 N 0.06354 0.96514 0.49943 0.0
C185 C 0.01213 0.98685 0.48043 0.0
C186 C 0.02028 0.02475 0.48551 0.0
C187 C 0.05127 0.03217 0.49712 0.0
C188 C 0.0353 0.95775 0.48746 0.0
H189 H 0.0961 0.00748 0.51335 0.0
C190 C 0.14952 0.95346 0.53155 0.0
O191 O 0.23876 0.92794 0.49755 0.0
O192 O 0.20003 0.97337 0.48746 0.0
N193 N 0.05634 0.89455 0.48871 0.0
C194 C 0.05484 0.85688 0.48386 0.0
C195 C 0.02762 0.84484 0.47111 0.0
C196 C 0.00183 0.87149 0.46371 0.0
C197 C 0.0035 0.90997 0.46915 0.0
C198 C 0.03137 0.92031 0.48183 0.0
H199 H 0.07441 0.83625 0.48961 0.0
O200 O 0.17301 0.90374 0.47259 0.0
O201 O 0.12858 0.92837 0.48985 0.0
O202 O 0.17285 0.87011 0.50803 0.0
O203 O 0.10976 0.86929 0.51415 0.0
C204 C 0.97866 0.9385 0.46248 0.0
C205 C 0.98283 0.9769 0.46821 0.0
H206 H 0.00367 0.04838 0.48016 0.0
H207 H 0.05902 0.06124 0.50053 0.0
H208 H 0.02644 0.81506 0.46702 0.0
H209 H 0.98087 0.86209 0.45388 0.0
H210 H 0.95664 0.93136 0.45274 0.0
H211 H 0.96414 0.99874 0.46269 0.0
Mn212 Mn 0.24595 0.6613 0.75851 0.0
Mn213 Mn 0.23281 0.56989 0.77089 0.0
C214 C 0.24711 0.61365 0.73702 0.0
C215 C 0.21545 0.71882 0.75153 0.0
C216 C 0.3076 0.61364 0.77685 0.0
O217 O 0.227 0.66535 0.7839 0.0
O218 O 0.20951 0.60436 0.78927 0.0
C219 C 0.14873 0.56803 0.76564 0.0
N220 N 0.18388 0.55261 0.76256 0.0
C221 C 0.15674 0.50378 0.74358 0.0
C222 C 0.12016 0.51859 0.74684 0.0
C223 C 0.11623 0.55144 0.75754 0.0
C224 C 0.18817 0.52237 0.75146 0.0
H225 H 0.14568 0.59311 0.774 0.0
C226 C 0.21173 0.6399 0.79371 0.0
O227 O 0.25082 0.71859 0.75723 0.0
O228 O 0.19865 0.68596 0.7496 0.0
N229 N 0.25368 0.53327 0.75459 0.0
C230 C 0.29115 0.5255 0.75107 0.0
C231 C 0.30022 0.49551 0.73931 0.0
C232 C 0.27075 0.47353 0.73149 0.0
C233 C 0.23244 0.48173 0.7355 0.0
C234 C 0.22514 0.51194 0.74733 0.0
H235 H 0.31395 0.54214 0.7571 0.0
O236 O 0.26078 0.64746 0.73363 0.0
O237 O 0.23179 0.60951 0.75265 0.0
O238 O 0.29856 0.64408 0.76823 0.0
O239 O 0.28439 0.58564 0.77927 0.0
C240 C 0.20118 0.46136 0.72812 0.0
C241 C 0.16334 0.47228 0.73222 0.0
H242 H 0.0951 0.50556 0.74076 0.0
H243 H 0.08818 0.56381 0.75963 0.0
H244 H 0.32987 0.48933 0.7363 0.0
H245 H 0.27786 0.45052 0.72237 0.0
H246 H 0.20591 0.43771 0.71901 0.0
H247 H 0.1395 0.45704 0.72611 0.0
Mn248 Mn 0.92156 0.17959 0.52439 0.0
Mn249 Mn 0.93713 0.08494 0.52082 0.0
C250 C 0.91502 0.14031 0.54915 0.0
C251 C 0.94786 0.24039 0.52933 0.0
C252 C 0.86581 0.12483 0.50631 0.0
O253 O 0.9491 0.174 0.50061 0.0
O254 O 0.96741 0.11192 0.50222 0.0
C255 C 0.01906 0.08191 0.53132 0.0
N256 N 0.98217 0.07053 0.53383 0.0
C257 C 0.00103 0.02826 0.55766 0.0
C258 C 0.03951 0.0379 0.55466 0.0
C259 C 0.04849 0.06534 0.54164 0.0
C260 C 0.97305 0.04532 0.5468 0.0
H261 H 0.02594 0.10313 0.52137 0.0
C262 C 0.9678 0.1451 0.49484 0.0
O263 O 0.91539 0.23621 0.52087 0.0
O264 O 0.96502 0.20939 0.53452 0.0
N265 N 0.90968 0.05596 0.53826 0.0
C266 C 0.87113 0.05035 0.53968 0.0
C267 C 0.85708 0.02579 0.55295 0.0
C268 C 0.88278 0.007 0.5645 0.0
C269 C 0.92232 0.01291 0.56266 0.0
C270 C 0.93465 0.03771 0.54919 0.0
H271 H 0.8512 0.06449 0.5308 0.0
O272 O 0.8995 0.17411 0.54897 0.0
O273 O 0.93411 0.13138 0.53502 0.0
O274 O 0.87249 0.15793 0.51299 0.0
O275 O 0.88935 0.09682 0.50751 0.0
C276 C 0.94996 0.99532 0.57372 0.0
C277 C 0.98925 0.00284 0.57115 0.0
H278 H 0.06229 0.02519 0.56258 0.0
H279 H 0.07803 0.07361 0.53952 0.0
H280 H 0.82652 0.02134 0.55426 0.0
H281 H 0.87184 0.98815 0.57476 0.0
H282 H 0.94131 0.97604 0.58427 0.0
H283 H 0.01004 0.98921 0.57978 0.0
Mn284 Mn 0.97595 0.40246 0.77687 0.0
Mn285 Mn 0.0693 0.42434 0.77403 0.0
C286 C 0.01521 0.39716 0.80205 0.0
C287 C 0.91373 0.42588 0.78071 0.0
C288 C 0.03401 0.35144 0.75873 0.0
O289 O 0.98055 0.43081 0.75312 0.0
O290 O 0.04045 0.45465 0.75599 0.0
C291 C 0.06608 0.50476 0.78619 0.0
N292 N 0.08078 0.46881 0.78783 0.0
C293 C 0.12223 0.48834 0.81195 0.0
C294 C 0.10909 0.52605 0.80981 0.0
C295 C 0.08026 0.53416 0.79721 0.0
C296 C 0.10704 0.46031 0.80057 0.0
H297 H 0.04414 0.51101 0.77636 0.0
C298 C 0.0078 0.45268 0.7481 0.0
O299 O 0.91985 0.39351 0.77256 0.0
O300 O 0.9436 0.44423 0.78657 0.0
N301 N 0.10065 0.39722 0.79088 0.0
C302 C 0.1099 0.35924 0.79124 0.0
C303 C 0.13668 0.3459 0.80388 0.0
C304 C 0.15404 0.37178 0.81586 0.0
C305 C 0.14454 0.4108 0.81504 0.0
C306 C 0.11772 0.42243 0.80213 0.0
H307 H 0.09707 0.33923 0.78196 0.0
O308 O 0.98201 0.3803 0.80161 0.0
O309 O 0.02332 0.41706 0.78802 0.0
O310 O 1.0008 0.35495 0.76565 0.0
O311 O 0.06001 0.37728 0.75992 0.0
C312 C 0.16043 0.43857 0.82659 0.0
C313 C 0.14932 0.4773 0.82503 0.0
H314 H 0.12013 0.54888 0.81805 0.0
H315 H 0.06937 0.56307 0.79585 0.0
H316 H 0.14399 0.31576 0.80435 0.0
H317 H 0.17458 0.36137 0.82563 0.0
H318 H 0.18109 0.43044 0.83678 0.0
H319 H 0.16168 0.49812 0.83408 0.0
Mn320 Mn 0.77462 0.47908 0.0176 0.0
Mn321 Mn 0.68387 0.51095 0.01724 0.0
C322 C 0.74415 0.49348 0.99075 0.0
C323 C 0.83982 0.4931 0.01869 0.0
C324 C 0.7047 0.4277 0.02358 0.0
O325 O 0.76673 0.4958 0.04349 0.0
O326 O 0.70731 0.52087 0.04103 0.0
C327 C 0.71097 0.59088 0.01719 0.0
N328 N 0.68661 0.56372 0.01056 0.0
C329 C 0.6679 0.6048 0.98618 0.0
C330 C 0.69238 0.63338 0.99291 0.0
C331 C 0.71471 0.62602 0.00824 0.0
C332 C 0.66711 0.56954 0.99511 0.0
H333 H 0.72861 0.58508 0.02879 0.0
C334 C 0.73778 0.51317 0.04998 0.0
O335 O 0.82719 0.4593 0.02306 0.0
O336 O 0.81449 0.51875 0.01451 0.0
N337 N 0.65711 0.50359 0.99511 0.0
C338 C 0.64182 0.47063 0.9883 0.0
C339 C 0.61921 0.47218 0.97273 0.0
C340 C 0.61273 0.50753 0.96428 0.0
C341 C 0.62946 0.54096 0.9713 0.0
C342 C 0.65043 0.53784 0.98725 0.0
H343 H 0.64631 0.44342 0.99485 0.0
O344 O 0.7737 0.47096 0.99094 0.0
O345 O 0.73362 0.50554 0.00626 0.0
O346 O 0.74076 0.43197 0.02132 0.0
O347 O 0.68058 0.45545 0.02325 0.0
C348 C 0.62684 0.57707 0.96294 0.0
C349 C 0.64671 0.60883 0.97019 0.0
H350 H 0.69501 0.66071 0.98617 0.0
H351 H 0.73443 0.64756 0.01325 0.0
H352 H 0.60669 0.44621 0.96728 0.0
H353 H 0.59525 0.50855 0.95228 0.0
H354 H 0.61095 0.58038 0.95055 0.0
H355 H 0.64635 0.63591 0.96311 0.0
Mn356 Mn 0.66854 0.25528 0.25954 0.0
Mn357 Mn 0.64656 0.16126 0.26087 0.0
C358 C 0.67308 0.21821 0.23399 0.0
C359 C 0.64831 0.31857 0.25637 0.0
C360 C 0.7211 0.19391 0.27551 0.0
O361 O 0.63976 0.24989 0.28291 0.0
O362 O 0.62162 0.1878 0.28127 0.0
C363 C 0.56539 0.17306 0.25083 0.0
N364 N 0.59908 0.15423 0.24841 0.0
C365 C 0.57374 0.1208 0.22276 0.0
C366 C 0.53827 0.13864 0.22542 0.0
C367 C 0.53459 0.16597 0.23908 0.0
C368 C 0.60394 0.13036 0.23437 0.0
H369 H 0.56248 0.19404 0.26136 0.0
C370 C 0.62205 0.22069 0.28896 0.0
O371 O 0.68016 0.3103 0.26462 0.0
O372 O 0.62823 0.29014 0.25014 0.0
N373 N 0.66863 0.13144 0.24212 0.0
C374 C 0.70576 0.1201 0.24021 0.0
C375 C 0.7154 0.09516 0.22622 0.0
C376 C 0.68676 0.08186 0.21444 0.0
C377 C 0.64865 0.09337 0.21687 0.0
C378 C 0.64069 0.11786 0.23119 0.0
H379 H 0.72788 0.12998 0.24928 0.0
O380 O 0.69097 0.2508 0.23508 0.0
O381 O 0.6527 0.20906 0.24773 0.0
O382 O 0.71521 0.22847 0.27055 0.0
O383 O 0.6967 0.16683 0.27321 0.0
C384 C 0.61831 0.08177 0.20555 0.0
C385 C 0.58087 0.0955 0.20848 0.0
H386 H 0.51421 0.13293 0.21656 0.0
H387 H 0.50817 0.18174 0.24045 0.0
H388 H 0.74486 0.08626 0.22449 0.0
H389 H 0.69435 0.0629 0.20357 0.0
H390 H 0.62356 0.06284 0.19436 0.0
H391 H 0.55797 0.08714 0.19943 0.0
H392 H 0.17689 0.99377 0.32801 0.0
H393 H 0.10519 0.05776 0.29097 0.0
H394 H 0.15207 0.04633 0.26708 0.0
H395 H 0.26462 0.02893 0.31336 0.0
H396 H 0.29031 0.98446 0.31609 0.0
H397 H 0.24918 0.99427 0.32964 0.0
H398 H 0.21775 0.93076 0.31888 0.0
H399 H 0.25878 0.92094 0.30515 0.0
H400 H 0.21144 0.92213 0.29531 0.0
H401 H 0.21039 0.03531 0.24839 0.0
H402 H 0.27574 0.02503 0.23652 0.0
H403 H 0.30783 0.96535 0.28497 0.0
C404 C 0.17075 0.00492 0.31482 0.0
C405 C 0.13734 0.02667 0.31139 0.0
C406 C 0.13053 0.04093 0.29394 0.0
C407 C 0.15692 0.03446 0.28024 0.0
C408 C 0.18976 0.01322 0.28412 0.0
C409 C 0.19664 0.99845 0.30096 0.0
C410 C 0.23526 0.97871 0.30194 0.0
C411 C 0.26137 0.99774 0.31609 0.0
C412 C 0.2305 0.93557 0.30553 0.0
C413 C 0.24962 0.98587 0.28322 0.0
C414 C 0.22281 0.00554 0.27308 0.0
C415 C 0.23117 0.01893 0.25599 0.0
C416 C 0.26817 0.01284 0.24931 0.0
C417 C 0.29591 0.99314 0.25961 0.0
C418 C 0.28633 0.9789 0.27658 0.0
H419 H 0.05878 0.66533 0.55904 0.0
H420 H 0.17532 0.63171 0.5724 0.0
H421 H 0.19989 0.68853 0.55635 0.0
H422 H 0.07838 0.70217 0.51483 0.0
H423 H 0.04474 0.74109 0.5169 0.0
H424 H 0.03674 0.69685 0.52871 0.0
H425 H 0.03314 0.73426 0.55859 0.0
H426 H 0.04097 0.77856 0.54687 0.0
H427 H 0.0723 0.76525 0.56508 0.0
H428 H 0.21133 0.75089 0.53924 0.0
H429 H 0.20814 0.81374 0.52388 0.0
H430 H 0.0839 0.80523 0.52234 0.0
C431 C 0.0895 0.66967 0.55851 0.0
C432 C 0.11511 0.64396 0.56695 0.0
C433 C 0.15511 0.65098 0.56602 0.0
C434 C 0.16935 0.68313 0.55689 0.0
C435 C 0.14323 0.70797 0.54876 0.0
C436 C 0.10414 0.70155 0.54954 0.0
C437 C 0.08191 0.73312 0.54031 0.0
C438 C 0.0591 0.71735 0.52423 0.0
C439 C 0.05554 0.75403 0.5535 0.0
C440 C 0.11451 0.7586 0.53439 0.0
C441 C 0.14973 0.74361 0.5392 0.0
C442 C 0.18386 0.76279 0.53535 0.0
C443 C 0.18179 0.79842 0.52658 0.0
C444 C 0.14581 0.81459 0.5219 0.0
C445 C 0.11194 0.79391 0.52573 0.0
H446 H 0.51959 0.67913 0.80613 0.0
H447 H 0.5341 0.56533 0.82872 0.0
H448 H 0.46878 0.54807 0.81865 0.0
H449 H 0.42051 0.69041 0.81791 0.0
H450 H 0.40766 0.71534 0.79767 0.0
H451 H 0.4558 0.7188 0.80644 0.0
H452 H 0.48251 0.69478 0.77627 0.0
H453 H 0.43444 0.6912 0.76741 0.0
H454 H 0.46552 0.64994 0.76712 0.0
H455 H 0.40239 0.54306 0.8064 0.0
H456 H 0.33834 0.55038 0.79301 0.0
H457 H 0.36596 0.66772 0.77822 0.0
C458 C 0.50908 0.65055 0.80894 0.0
C459 C 0.53205 0.62355 0.81822 0.0
C460 C 0.51711 0.5865 0.82166 0.0
C461 C 0.48004 0.57641 0.81597 0.0
C462 C 0.45823 0.60367 0.80688 0.0
C463 C 0.47209 0.63998 0.80338 0.0
C464 C 0.44247 0.66392 0.79348 0.0
C465 C 0.43093 0.6992 0.80454 0.0
C466 C 0.45712 0.67563 0.77497 0.0
C467 C 0.40978 0.63534 0.79198 0.0
C468 C 0.41962 0.60079 0.79979 0.0
C469 C 0.39433 0.56997 0.80024 0.0
C470 C 0.35788 0.57453 0.79259 0.0
C471 C 0.34682 0.60972 0.78454 0.0
C472 C 0.37339 0.64045 0.78421 0.0
H473 H 0.52315 0.02543 0.04479 0.0
H474 H 0.64627 0.02288 0.05383 0.0
H475 H 0.6507 0.96413 0.03559 0.0
H476 H 0.50838 0.9272 0.04917 0.0
H477 H 0.47157 0.92375 0.0322 0.0
H478 H 0.47883 0.96816 0.04399 0.0
H479 H 0.48804 0.00341 0.01389 0.0
H480 H 0.48111 0.95889 0.002 0.0
H481 H 0.52399 0.98677 0.99858 0.0
H482 H 0.64114 0.90233 0.01939 0.0
H483 H 0.61777 0.84033 0.00759 0.0
H484 H 0.50107 0.883 0.0084 0.0
C485 C 0.55115 0.01292 0.04266 0.0
C486 C 0.5844 0.02888 0.05069 0.0
C487 C 0.62039 0.01125 0.04782 0.0
C488 C 0.62325 0.97799 0.03737 0.0
C489 C 0.5899 0.96278 0.02979 0.0
C490 C 0.55451 0.97965 0.03229 0.0
C491 C 0.52269 0.95569 0.02399 0.0
C492 C 0.49368 0.94294 0.03818 0.0
C493 C 0.50279 0.9775 0.0087 0.0
C494 C 0.54558 0.92205 0.01696 0.0
C495 C 0.58438 0.92703 0.02022 0.0
C496 C 0.61095 0.8984 0.01645 0.0
C497 C 0.59743 0.86331 0.00973 0.0
C498 C 0.55773 0.85715 0.00682 0.0
C499 C 0.53168 0.88735 0.00997 0.0
H500 H 0.27538 0.57308 0.96296 0.0
H501 H 0.20278 0.66776 0.97925 0.0
H502 H 0.25981 0.70385 0.98924 0.0
H503 H 0.3424 0.58127 1.00027 0.0
H504 H 0.3835 0.56882 0.98706 0.0
H505 H 0.33684 0.55027 0.98113 0.0
H506 H 0.34372 0.57866 0.94937 0.0
H507 H 0.39025 0.59756 0.95525 0.0
H508 H 0.35348 0.62914 0.94679 0.0
H509 H 0.3245 0.73118 0.99601 0.0
H510 H 0.39277 0.74532 0.00209 0.0
H511 H 0.42339 0.63188 0.98294 0.0
C512 C 0.27153 0.60131 0.96872 0.0
C513 C 0.23467 0.61764 0.97029 0.0
C514 C 0.23073 0.65458 0.97798 0.0
C515 C 0.26296 0.67543 0.98362 0.0
C516 C 0.2989 0.65876 0.9817 0.0
C517 C 0.30341 0.62235 0.97469 0.0
C518 C 0.34528 0.61088 0.9745 0.0
C519 C 0.35241 0.57573 0.98646 0.0
C520 C 0.35897 0.60364 0.95534 0.0
C521 C 0.36351 0.64667 0.98235 0.0
C522 C 0.33625 0.67406 0.98623 0.0
C523 C 0.34614 0.70987 0.99316 0.0
C524 C 0.38498 0.71771 0.99647 0.0
C525 C 0.41333 0.68967 0.99304 0.0
C526 C 0.40232 0.65378 0.98582 0.0
H527 H 0.51622 0.74359 0.22192 0.0
H528 H 0.6336 0.77211 0.20832 0.0
H529 H 0.62137 0.83993 0.2162 0.0
H530 H 0.47377 0.82715 0.20385 0.0
H531 H 0.43824 0.8316 0.22105 0.0
H532 H 0.45701 0.7851 0.21541 0.0
H533 H 0.47721 0.77436 0.2484 0.0
H534 H 0.45832 0.82078 0.25416 0.0
H535 H 0.50749 0.8092 0.25943 0.0
H536 H 0.59514 0.90537 0.22458 0.0
H537 H 0.55743 0.96258 0.23276 0.0
H538 H 0.45721 0.89042 0.24039 0.0
C539 C 0.53957 0.76393 0.22079 0.0
C540 C 0.57595 0.75246 0.21457 0.0
C541 C 0.60553 0.78018 0.21311 0.0
C542 C 0.59885 0.81877 0.21756 0.0
C543 C 0.56246 0.82915 0.22343 0.0
C544 C 0.53337 0.80246 0.22508 0.0
C545 C 0.49647 0.82106 0.2311 0.0
C546 C 0.4645 0.81592 0.21701 0.0
C547 C 0.48417 0.80542 0.24936 0.0
C548 C 0.50919 0.86248 0.23244 0.0
C549 C 0.54737 0.86662 0.22805 0.0
C550 C 0.56525 0.90241 0.22811 0.0
C551 C 0.54353 0.93477 0.23275 0.0
C552 C 0.50422 0.93119 0.23722 0.0
C553 C 0.48711 0.89437 0.23707 0.0
H554 H 0.45222 0.01064 0.46735 0.0
H555 H 0.41544 0.12732 0.45654 0.0
H556 H 0.3502 0.11082 0.46662 0.0
H557 H 0.36928 0.96483 0.45169 0.0
H558 H 0.36893 0.92792 0.46851 0.0
H559 H 0.41354 0.94966 0.46208 0.0
H560 H 0.42755 0.96834 0.49498 0.0
H561 H 0.38305 0.94636 0.50155 0.0
H562 H 0.39266 0.99577 0.50717 0.0
H563 H 0.28778 0.08004 0.47508 0.0
H564 H 0.2333 0.03823 0.48286 0.0
H565 H 0.31092 0.94179 0.48881 0.0
C566 C 0.43066 0.03296 0.46738 0.0
C567 C 0.439 0.07033 0.46117 0.0
C568 C 0.40983 0.09857 0.46132 0.0
C569 C 0.37266 0.08944 0.467 0.0
C570 C 0.36523 0.05208 0.47265 0.0
C571 C 0.39351 0.02439 0.47307 0.0
C572 C 0.37769 0.98599 0.47904 0.0
C573 C 0.38266 0.95531 0.46445 0.0
C574 C 0.39635 0.97338 0.49674 0.0
C575 C 0.33587 0.99616 0.48151 0.0
C576 C 0.32933 0.03446 0.47779 0.0
C577 C 0.29265 0.05015 0.47825 0.0
C578 C 0.26187 0.0261 0.48261 0.0
C579 C 0.2679 0.9868 0.48652 0.0
C580 C 0.30549 0.97181 0.48608 0.0
H581 H 0.18529 0.93499 0.71964 0.0
H582 H 0.06298 0.91121 0.71898 0.0
H583 H 0.07543 0.84735 0.73193 0.0
H584 H 0.21502 0.84377 0.70638 0.0
H585 H 0.25722 0.84233 0.72043 0.0
H586 H 0.23874 0.8877 0.71285 0.0
H587 H 0.23409 0.91133 0.74556 0.0
H588 H 0.25281 0.86605 0.75326 0.0
H589 H 0.20762 0.88337 0.76151 0.0
H590 H 0.10112 0.78445 0.74196 0.0
H591 H 0.13821 0.7267 0.74967 0.0
H592 H 0.24422 0.79102 0.74452 0.0
C593 C 0.16103 0.91666 0.72251 0.0
C594 C 0.12311 0.92814 0.71832 0.0
C595 C 0.09224 0.90311 0.72212 0.0
C596 C 0.09902 0.86679 0.72949 0.0
C597 C 0.13679 0.85609 0.73311 0.0
C598 C 0.16728 0.88035 0.7299 0.0
C599 C 0.20523 0.86102 0.73414 0.0
C600 C 0.23053 0.85856 0.71746 0.0
C601 C 0.22617 0.88167 0.74954 0.0
C602 C 0.19132 0.82172 0.7398 0.0
C603 C 0.15171 0.81967 0.73917 0.0
C604 C 0.1321 0.78584 0.74275 0.0
C605 C 0.15347 0.75315 0.74703 0.0
C606 C 0.19408 0.75447 0.74776 0.0
C607 C 0.21321 0.78936 0.7443 0.0
H608 H 0.76041 0.57554 0.8174 0.0
H609 H 0.67103 0.49991 0.79718 0.0
H610 H 0.7203 0.4572 0.78454 0.0
H611 H 0.82671 0.56371 0.78016 0.0
H612 H 0.86848 0.56454 0.7945 0.0
H613 H 0.82603 0.59053 0.80074 0.0
H614 H 0.82479 0.55415 0.83087 0.0
H615 H 0.86704 0.5279 0.82467 0.0
H616 H 0.82417 0.50243 0.83087 0.0
H617 H 0.77981 0.42074 0.77543 0.0
H618 H 0.84468 0.39417 0.77045 0.0
H619 H 0.89462 0.49334 0.797 0.0
C620 C 0.75114 0.55036 0.81005 0.0
C621 C 0.71179 0.54122 0.80821 0.0
C622 C 0.70097 0.50761 0.79874 0.0
C623 C 0.72876 0.48315 0.79149 0.0
C624 C 0.76731 0.49262 0.79383 0.0
C625 C 0.7785 0.52551 0.80283 0.0
C626 C 0.82178 0.52828 0.8042 0.0
C627 C 0.83661 0.56388 0.7943 0.0
C628 C 0.83522 0.52817 0.82382 0.0
C629 C 0.83317 0.49165 0.79474 0.0
C630 C 0.80141 0.47152 0.78876 0.0
C631 C 0.8049 0.43639 0.77997 0.0
C632 C 0.84183 0.42148 0.77722 0.0
C633 C 0.87472 0.44163 0.78332 0.0
C634 C 0.8701 0.47722 0.79213 0.0
H635 H 0.57025 0.25802 0.05936 0.0
H636 H 0.64368 0.18023 0.0299 0.0
H637 H 0.68 0.23512 0.01835 0.0
H638 H 0.56904 0.33462 0.02512 0.0
H639 H 0.5698 0.37258 0.04148 0.0
H640 H 0.54749 0.3273 0.04663 0.0
H641 H 0.59097 0.32108 0.07468 0.0
H642 H 0.61364 0.36612 0.06953 0.0
H643 H 0.64233 0.32354 0.0723 0.0
H644 H 0.71247 0.29662 0.01234 0.0
H645 H 0.73599 0.36299 0.00982 0.0
H646 H 0.64064 0.4029 0.04173 0.0
C647 C 0.59352 0.25262 0.05023 0.0
C648 C 0.6041 0.21471 0.04558 0.0
C649 C 0.63496 0.20889 0.0337 0.0
C650 C 0.65586 0.23991 0.02705 0.0
C651 C 0.64537 0.27674 0.03221 0.0
C652 C 0.61465 0.28344 0.0433 0.0
C653 C 0.61027 0.32606 0.04701 0.0
C654 C 0.57187 0.34102 0.03961 0.0
C655 C 0.61457 0.33469 0.06707 0.0
C656 C 0.64384 0.34199 0.03658 0.0
C657 C 0.66368 0.31287 0.02822 0.0
C658 C 0.69692 0.31979 0.01861 0.0
C659 C 0.7102 0.35756 0.01736 0.0
C660 C 0.69012 0.38809 0.02554 0.0
C661 C 0.65633 0.38016 0.03519 0.0
H662 H 0.88045 0.05756 0.31922 0.0
H663 H 0.95727 0.15577 0.31884 0.0
H664 H 0.90566 0.1957 0.30612 0.0
H665 H 0.83302 0.07884 0.2776 0.0
H666 H 0.78656 0.06298 0.28497 0.0
H667 H 0.82936 0.04205 0.29439 0.0
H668 H 0.80659 0.06021 0.32613 0.0
H669 H 0.76377 0.08128 0.31679 0.0
H670 H 0.79481 0.10942 0.33105 0.0
H671 H 0.84606 0.22516 0.29351 0.0
H672 H 0.78281 0.24169 0.28081 0.0
H673 H 0.74471 0.12427 0.28896 0.0
C674 C 0.88641 0.08746 0.31649 0.0
C675 C 0.92295 0.10349 0.32005 0.0
C676 C 0.92958 0.14275 0.3162 0.0
C677 C 0.90041 0.16575 0.30901 0.0
C678 C 0.86476 0.1491 0.30569 0.0
C679 C 0.85763 0.11085 0.30922 0.0
C680 C 0.81689 0.10002 0.30408 0.0
C681 C 0.81645 0.06915 0.28938 0.0
C682 C 0.79418 0.08697 0.32049 0.0
C683 C 0.80236 0.13813 0.29709 0.0
C684 C 0.83038 0.16608 0.29822 0.0
C685 C 0.82384 0.20353 0.29254 0.0
C686 C 0.78774 0.21264 0.28536 0.0
C687 C 0.75861 0.18435 0.28385 0.0
C688 C 0.7662 0.14665 0.28992 0.0
H689 H 0.08885 0.38371 0.58043 0.0
H690 H 0.02269 0.47806 0.55836 0.0
H691 H 0.98308 0.43196 0.54119 0.0
H692 H 0.08754 0.3239 0.5403 0.0
H693 H 0.08328 0.28 0.55281 0.0
H694 H 0.10778 0.32068 0.56247 0.0
H695 H 0.06256 0.31819 0.58972 0.0
H696 H 0.03789 0.27763 0.58012 0.0
H697 H 0.01139 0.32 0.58616 0.0
H698 H 0.94786 0.37478 0.52786 0.0
H699 H 0.92128 0.31144 0.51912 0.0
H700 H 0.01134 0.25539 0.54971 0.0
C701 C 0.06634 0.39479 0.57184 0.0
C702 C 0.05896 0.43456 0.57075 0.0
C703 C 0.02902 0.44774 0.5594 0.0
C704 C 0.00633 0.42177 0.54958 0.0
C705 C 0.01406 0.3827 0.55116 0.0
C706 C 0.04351 0.36931 0.56193 0.0
C707 C 0.04519 0.32593 0.56175 0.0
C708 C 0.08321 0.31181 0.55386 0.0
C709 C 0.03887 0.30949 0.58055 0.0
C710 C 0.0117 0.31697 0.54945 0.0
C711 C 0.99412 0.35002 0.5434 0.0
C712 C 0.96164 0.34871 0.53239 0.0
C713 C 0.94671 0.31265 0.52751 0.0
C714 C 0.96431 0.2785 0.53365 0.0
C715 C 0.99737 0.28093 0.54464 0.0
H716 H 0.65476 0.17385 0.47066 0.0
H717 H 0.64534 0.05508 0.45355 0.0
H718 H 0.71065 0.0427 0.46519 0.0
H719 H 0.75296 0.1867 0.45936 0.0
H720 H 0.76406 0.21652 0.47839 0.0
H721 H 0.71613 0.21586 0.46925 0.0
H722 H 0.68919 0.19728 0.50018 0.0
H723 H 0.73702 0.19814 0.50945 0.0
H724 H 0.70788 0.15564 0.51152 0.0
H725 H 0.77745 0.04376 0.47789 0.0
H726 H 0.84028 0.05719 0.49174 0.0
H727 H 0.80618 0.17553 0.50064 0.0
C728 C 0.66625 0.14513 0.46946 0.0
C729 C 0.64488 0.1154 0.46119 0.0
C730 C 0.66111 0.07829 0.45985 0.0
C731 C 0.69821 0.071 0.4664 0.0
C732 C 0.71863 0.10109 0.47426 0.0
C733 C 0.70318 0.13736 0.47591 0.0
C734 C 0.73128 0.16476 0.48478 0.0
C735 C 0.74172 0.19791 0.47219 0.0
C736 C 0.71539 0.17983 0.50254 0.0
C737 C 0.76505 0.13825 0.48781 0.0
C738 C 0.75715 0.10169 0.48162 0.0
C739 C 0.78393 0.07225 0.48283 0.0
C740 C 0.81965 0.08028 0.4907 0.0
C741 C 0.82839 0.11749 0.49732 0.0
C742 C 0.80058 0.14681 0.49573 0.0
H743 H 0.00894 0.13385 0.72638 0.0
H744 H 0.12607 0.13982 0.70732 0.0
H745 H 0.13053 0.20691 0.71771 0.0
H746 H 0.9817 0.22876 0.71397 0.0
H747 H 0.95272 0.23696 0.7334 0.0
H748 H 0.95883 0.18897 0.72496 0.0
H749 H 0.98413 0.16675 0.75587 0.0
H750 H 0.97778 0.21459 0.76445 0.0
H751 H 0.02397 0.19167 0.76612 0.0
H752 H 0.12175 0.27343 0.7292 0.0
H753 H 0.10195 0.33453 0.74257 0.0
H754 H 0.99029 0.28567 0.75451 0.0
C755 C 0.03566 0.14913 0.72451 0.0
C756 C 0.0672 0.13155 0.71603 0.0
C757 C 0.10158 0.15262 0.7138 0.0
C758 C 0.10435 0.19078 0.71962 0.0
C759 C 0.07255 0.20736 0.72767 0.0
C760 C 0.03895 0.1872 0.73025 0.0
C761 C 0.00899 0.21189 0.73924 0.0
C762 C 0.97346 0.21694 0.72717 0.0
C763 C 0.99809 0.19523 0.75751 0.0
C764 C 0.03099 0.24917 0.74126 0.0
C765 C 0.06753 0.24587 0.73443 0.0
C766 C 0.09326 0.27635 0.73465 0.0
C767 C 0.08159 0.31104 0.74226 0.0
C768 C 0.04445 0.31511 0.74965 0.0
C769 C 0.01879 0.28366 0.74897 0.0
H770 H 0.01027 0.60036 0.97158 0.0
H771 H 0.08152 0.50187 0.98416 0.0
H772 H 0.03055 0.47619 0.00337 0.0
H773 H 0.96318 0.60789 0.016 0.0
H774 H 0.91787 0.62098 0.00599 0.0
H775 H 0.96207 0.63435 0.99535 0.0
H776 H 0.93951 0.60051 0.96625 0.0
H777 H 0.8954 0.58708 0.97678 0.0
H778 H 0.92542 0.55076 0.96702 0.0
H779 H 0.9687 0.45687 0.0178 0.0
H780 H 0.90109 0.44612 0.02629 0.0
H781 H 0.87129 0.5579 0.00491 0.0
C782 C 0.01555 0.57387 0.97871 0.0
C783 C 0.04991 0.5532 0.97637 0.0
C784 C 0.05545 0.51831 0.98575 0.0
C785 C 0.02672 0.50352 0.99676 0.0
C786 C 0.99277 0.52415 0.99843 0.0
C787 C 0.98721 0.55875 0.98977 0.0
C788 C 0.94698 0.57364 0.99253 0.0
C789 C 0.94758 0.61146 0.0031 0.0
C790 C 0.92559 0.57824 0.97458 0.0
C791 C 0.93036 0.54131 0.00348 0.0
C792 C 0.95728 0.51322 0.00696 0.0
C793 C 0.94754 0.47903 0.01549 0.0
C794 C 0.90911 0.47314 0.02025 0.0
C795 C 0.88104 0.50127 0.0164 0.0
C796 C 0.89218 0.5361 0.00833 0.0
H797 H 0.6799 0.53909 0.23471 0.0
H798 H 0.55949 0.54385 0.21964 0.0
H799 H 0.55046 0.47822 0.23116 0.0
H800 H 0.69568 0.44598 0.22127 0.0
H801 H 0.72788 0.43333 0.23926 0.0
H802 H 0.72389 0.48251 0.2323 0.0
H803 H 0.70682 0.50278 0.26455 0.0
H804 H 0.71106 0.45358 0.27167 0.0
H805 H 0.66741 0.47972 0.27569 0.0
H806 H 0.55646 0.4095 0.2403 0.0
H807 H 0.57642 0.34349 0.24779 0.0
H808 H 0.69251 0.38362 0.25769 0.0
C809 C 0.65139 0.52676 0.23425 0.0
C810 C 0.62038 0.5467 0.2263 0.0
C811 C 0.58366 0.52925 0.22573 0.0
C812 C 0.57823 0.49196 0.23226 0.0
C813 C 0.60969 0.47267 0.2395 0.0
C814 C 0.64546 0.48962 0.24074 0.0
C815 C 0.67512 0.46172 0.24789 0.0
C816 C 0.70754 0.45553 0.23437 0.0
C817 C 0.69103 0.47526 0.26603 0.0
C818 C 0.65073 0.42604 0.24987 0.0
C819 C 0.613 0.43306 0.24509 0.0
C820 C 0.58573 0.40383 0.24442 0.0
C821 C 0.59737 0.36642 0.24862 0.0
C822 C 0.6359 0.35858 0.25348 0.0
C823 C 0.6627 0.38894 0.25437 0.0
H824 H 0.04415 0.01774 0.39211 0.0
H825 H 0.04171 0.90795 0.36482 0.0
H826 H 0.05935 0.87555 0.3932 0.0
H827 H 0.12816 0.99646 0.4169 0.0
H828 H 0.1137 0.02439 0.43596 0.0
H829 H 0.09666 0.03695 0.41402 0.0
H830 H 0.02809 0.03371 0.42553 0.0
H831 H 0.04334 0.01822 0.44733 0.0
H832 H 0.00963 0.98963 0.43442 0.0
H833 H 0.08589 0.85684 0.42337 0.0
H834 H 0.11891 0.85307 0.45273 0.0
H835 H 0.10222 0.97496 0.46038 0.0
C836 C 0.04607 0.98671 0.39218 0.0
C837 C 0.04057 0.96514 0.37638 0.0
C838 C 0.04515 0.92484 0.37687 0.0
C839 C 0.05516 0.9063 0.39291 0.0
C840 C 0.06098 0.9286 0.40821 0.0
C841 C 0.05692 0.968 0.40787 0.0
C842 C 0.06893 0.98609 0.42542 0.0
C843 C 0.10394 0.0125 0.42292 0.0
C844 C 0.03548 0.00816 0.43372 0.0
C845 C 0.07955 0.95057 0.436 0.0
C846 C 0.07524 0.91771 0.42575 0.0
C847 C 0.08835 0.88213 0.4317 0.0
C848 C 0.10703 0.8802 0.44834 0.0
C849 C 0.11154 0.9134 0.459 0.0
C850 C 0.09724 0.94887 0.45283 0.0
H851 H 0.13941 0.53611 0.65198 0.0
H852 H 0.25139 0.52232 0.62824 0.0
H853 H 0.28178 0.53037 0.65805 0.0
H854 H 0.16721 0.61239 0.67868 0.0
H855 H 0.13608 0.6006 0.69696 0.0
H856 H 0.12347 0.58597 0.67467 0.0
H857 H 0.11821 0.51614 0.68514 0.0
H858 H 0.13153 0.52983 0.7075 0.0
H859 H 0.1585 0.49335 0.69587 0.0
H860 H 0.29999 0.55018 0.68893 0.0
H861 H 0.30521 0.5835 0.71799 0.0
H862 H 0.18153 0.58551 0.72192 0.0
C863 C 0.17026 0.53324 0.65319 0.0
C864 C 0.19315 0.52742 0.63795 0.0
C865 C 0.23347 0.52593 0.63985 0.0
C866 C 0.25085 0.53039 0.65672 0.0
C867 C 0.22748 0.53693 0.67147 0.0
C868 C 0.18803 0.53874 0.6698 0.0
C869 C 0.16965 0.55203 0.68698 0.0
C870 C 0.14786 0.59 0.68414 0.0
C871 C 0.14294 0.52095 0.69435 0.0
C872 C 0.20501 0.55776 0.69866 0.0
C873 C 0.23805 0.54855 0.68946 0.0
C874 C 0.27441 0.55641 0.69646 0.0
C875 C 0.27715 0.57527 0.71295 0.0
C876 C 0.24384 0.58553 0.72241 0.0
C877 C 0.20738 0.57604 0.71534 0.0
H878 H 0.65051 0.75713 0.88341 0.0
H879 H 0.60384 0.65055 0.8627 0.0
H880 H 0.57781 0.63552 0.89242 0.0
H881 H 0.67367 0.72485 0.92815 0.0
H882 H 0.6585 0.76888 0.93856 0.0
H883 H 0.67665 0.76949 0.91612 0.0
H884 H 0.61425 0.80236 0.90503 0.0
H885 H 0.59592 0.80199 0.92741 0.0
H886 H 0.5686 0.78022 0.90954 0.0
H887 H 0.55821 0.63173 0.92474 0.0
H888 H 0.53848 0.643 0.95584 0.0
H889 H 0.59085 0.75594 0.95463 0.0
C890 C 0.63501 0.73046 0.88512 0.0
C891 C 0.63075 0.70407 0.87084 0.0
C892 C 0.60928 0.67017 0.87358 0.0
C893 C 0.59404 0.66162 0.89041 0.0
C894 C 0.59952 0.68789 0.90427 0.0
C895 C 0.61885 0.72198 0.90171 0.0
C896 C 0.61834 0.74664 0.91842 0.0
C897 C 0.65922 0.75282 0.92574 0.0
C898 C 0.59806 0.78507 0.91488 0.0
C899 C 0.59516 0.72135 0.93074 0.0
C900 C 0.58542 0.68718 0.92243 0.0
C901 C 0.56529 0.65855 0.93128 0.0
C902 C 0.55431 0.66521 0.94897 0.0
C903 C 0.56271 0.70054 0.95758 0.0
C904 C 0.58351 0.72892 0.9483 0.0
H905 H 0.48073 0.13681 0.12766 0.0
H906 H 0.41265 0.05064 0.10011 0.0
H907 H 0.38427 0.0311 0.1289 0.0
H908 H 0.50673 0.07756 0.1612 0.0
H909 H 0.50741 0.11239 0.17893 0.0
H910 H 0.51584 0.12738 0.15635 0.0
H911 H 0.46032 0.17603 0.15748 0.0
H912 H 0.45262 0.16328 0.18047 0.0
H913 H 0.41351 0.16061 0.1646 0.0
H914 H 0.37056 0.01503 0.1613 0.0
H915 H 0.37471 0.00267 0.1938 0.0
H916 H 0.45438 0.09778 0.19952 0.0
C917 C 0.45852 0.11504 0.12753 0.0
C918 C 0.44818 0.09583 0.11159 0.0
C919 C 0.42045 0.06615 0.11215 0.0
C920 C 0.40419 0.05491 0.12844 0.0
C921 C 0.4162 0.07346 0.14404 0.0
C922 C 0.44274 0.103 0.14365 0.0
C923 C 0.45563 0.11426 0.16226 0.0
C924 C 0.49898 0.10751 0.1648 0.0
C925 C 0.44484 0.15603 0.16644 0.0
C926 C 0.43249 0.08636 0.17321 0.0
C927 C 0.40954 0.06329 0.16257 0.0
C928 C 0.38796 0.03339 0.16977 0.0
C929 C 0.39048 0.02656 0.18826 0.0
C930 C 0.41486 0.04921 0.19925 0.0
C931 C 0.43533 0.07997 0.19156 0.0
H932 H 0.1216 0.60337 0.88842 0.0
H933 H 0.18889 0.6998 0.9077 0.0
H934 H 0.2019 0.71878 0.87654 0.0
H935 H 0.18485 0.57659 0.86066 0.0
H936 H 0.15706 0.56043 0.84199 0.0
H937 H 0.13672 0.55894 0.8639 0.0
H938 H 0.07961 0.60342 0.85736 0.0
H939 H 0.09257 0.59974 0.83416 0.0
H940 H 0.08668 0.6461 0.84434 0.0
H941 H 0.216 0.72068 0.84353 0.0
H942 H 0.23252 0.70418 0.81252 0.0
H943 H 0.16133 0.60239 0.81558 0.0
C944 C 0.1374 0.62967 0.88616 0.0
C945 C 0.15373 0.65045 0.90051 0.0
C946 C 0.17567 0.68372 0.8969 0.0
C947 C 0.18315 0.69474 0.87922 0.0
C948 C 0.16853 0.67211 0.86535 0.0
C949 C 0.14586 0.64042 0.86869 0.0
C950 C 0.13973 0.61656 0.85206 0.0
C951 C 0.15541 0.57572 0.85485 0.0
C952 C 0.09714 0.61637 0.84663 0.0
C953 C 0.16349 0.63885 0.83885 0.0
C954 C 0.17897 0.67145 0.84662 0.0
C955 C 0.20351 0.69555 0.83726 0.0
C956 C 0.21274 0.68587 0.81963 0.0
C957 C 0.19818 0.65187 0.8116 0.0
C958 C 0.17279 0.6285 0.82134 0.0
H959 H 0.49659 0.69242 0.13857 0.0
H960 H 0.61427 0.6521 0.13678 0.0
H961 H 0.61569 0.6637 0.10444 0.0
H962 H 0.46927 0.64691 0.09593 0.0
H963 H 0.43753 0.68488 0.08893 0.0
H964 H 0.44419 0.67478 0.11234 0.0
H965 H 0.46465 0.74454 0.11857 0.0
H966 H 0.45734 0.75596 0.09535 0.0
H967 H 0.50302 0.76557 0.1059 0.0
H968 H 0.60896 0.69156 0.0744 0.0
H969 H 0.58809 0.71373 0.04467 0.0
H970 H 0.47156 0.7248 0.06335 0.0
C971 C 0.52234 0.68564 0.13124 0.0
C972 C 0.55538 0.67163 0.14011 0.0
C973 C 0.58862 0.66273 0.1302 0.0
C974 C 0.58985 0.66951 0.11187 0.0
C975 C 0.55728 0.68424 0.10357 0.0
C976 C 0.52365 0.69088 0.11268 0.0
C977 C 0.49235 0.70481 0.10003 0.0
C978 C 0.45885 0.67614 0.09925 0.0
C979 C 0.47854 0.74512 0.10528 0.0
C980 C 0.51411 0.70567 0.08257 0.0
C981 C 0.55182 0.69481 0.08519 0.0
C982 C 0.57905 0.69795 0.07185 0.0
C983 C 0.56694 0.71016 0.05501 0.0
C984 C 0.52786 0.71758 0.05146 0.0
C985 C 0.50124 0.71692 0.06556 0.0
H986 H 0.51013 0.03233 0.37812 0.0
H987 H 0.46093 0.14659 0.37846 0.0
H988 H 0.4471 0.14152 0.34628 0.0
H989 H 0.55195 0.03736 0.33391 0.0
H990 H 0.53959 0.98906 0.32733 0.0
H991 H 0.54887 1.00027 0.35047 0.0
H992 H 0.48314 0.97498 0.36013 0.0
H993 H 0.47333 0.96096 0.33742 0.0
H994 H 0.44036 0.99183 0.34899 0.0
H995 H 0.43278 0.12263 0.31533 0.0
H996 H 0.4187 0.09036 0.28667 0.0
H997 H 0.47632 0.98791 0.30548 0.0
C998 C 0.49685 0.0563 0.3713 0.0
C999 C 0.4863 0.08971 0.3807 0.0
C1000 C 0.46869 0.12051 0.37149 0.0
C1001 C 0.461 0.11806 0.3532 0.0
C1002 C 0.47093 0.08451 0.34433 0.0
C1003 C 0.48831 0.05406 0.353 0.0
C1004 C 0.49325 0.02028 0.34045 0.0
C1005 C 0.53595 0.0112 0.33786 0.0
C1006 C 0.4712 0.98494 0.34715 0.0
C1007 C 0.4752 0.03632 0.32354 0.0
C1008 C 0.46296 0.07361 0.3261 0.0
C1009 C 0.44297 0.09377 0.31299 0.0
C1010 C 0.43526 0.07535 0.29677 0.0
C1011 C 0.4479 0.03744 0.29375 0.0
C1012 C 0.46765 0.01745 0.30736 0.0
H1013 H 0.11194 0.97769 0.63516 0.0
H1014 H 0.19029 0.07454 0.63542 0.0
H1015 H 0.20449 0.06237 0.60354 0.0
H1016 H 0.16415 0.91622 0.60392 0.0
H1017 H 0.12035 0.89939 0.5936 0.0
H1018 H 0.12086 0.91302 0.6168 0.0
H1019 H 0.06536 0.96017 0.61057 0.0
H1020 H 0.06528 0.94825 0.58719 0.0
H1021 H 0.07146 0.99749 0.59424 0.0
H1022 H 0.20847 0.03964 0.57109 0.0
H1023 H 0.19908 0.01116 0.54099 0.0
H1024 H 0.1134 0.93391 0.56223 0.0
C1025 C 0.13285 0.99588 0.62871 0.0
C1026 C 0.15042 0.02679 0.63786 0.0
C1027 C 0.17677 0.05046 0.62871 0.0
C1028 C 0.185 0.04374 0.61062 0.0
C1029 C 0.1664 0.01345 0.60191 0.0
C1030 C 0.14087 0.98997 0.61072 0.0
C1031 C 0.12211 0.96143 0.5982 0.0
C1032 C 0.13251 0.92007 0.60344 0.0
C1033 C 0.07844 0.96718 0.5975 0.0
C1034 C 0.14057 0.97272 0.58083 0.0
C1035 C 0.16666 0.00224 0.58324 0.0
C1036 C 0.18799 0.01665 0.56908 0.0
C1037 C 0.1825 1.00036 0.55207 0.0
C1038 C 0.15525 0.97072 0.54935 0.0
C1039 C 0.134 0.95696 0.56392 0.0
H1040 H 0.68326 0.54762 0.89064 0.0
H1041 H 0.71729 0.66424 0.90368 0.0
H1042 H 0.73514 0.64359 0.93414 0.0
H1043 H 0.64221 0.52495 0.93046 0.0
H1044 H 0.65974 0.47654 0.93351 0.0
H1045 H 0.65294 0.4958 0.91141 0.0
H1046 H 0.72197 0.48583 0.90204 0.0
H1047 H 0.73063 0.46183 0.92297 0.0
H1048 H 0.76068 0.50141 0.91641 0.0
H1049 H 0.75177 0.61055 0.96224 0.0
H1050 H 0.76144 0.56774 0.98801 0.0
H1051 H 0.71474 0.47225 0.95772 0.0
C1052 C 0.69452 0.56872 0.89994 0.0
C1053 C 0.69909 0.60746 0.8949 0.0
C1054 C 0.71401 0.63434 0.9073 0.0
C1055 C 0.72418 0.6229 0.92459 0.0
C1056 C 0.71972 0.58442 0.92911 0.0
C1057 C 0.70551 0.55764 0.91717 0.0
C1058 C 0.70348 0.51813 0.92555 0.0
C1059 C 0.66214 0.50289 0.92527 0.0
C1060 C 0.73082 0.49015 0.91618 0.0
C1061 C 0.71749 0.52721 0.94431 0.0
C1062 C 0.72748 0.56553 0.94583 0.0
C1063 C 0.7434 0.5807 0.96136 0.0
C1064 C 0.74851 0.5563 0.97593 0.0
C1065 C 0.73722 0.5174 0.97497 0.0
C1066 C 0.72236 0.50229 0.95886 0.0
H1067 H 0.5544 0.19381 0.14438 0.0
H1068 H 0.64741 0.12534 0.12323 0.0
H1069 H 0.68252 0.13219 0.15201 0.0
H1070 H 0.61426 0.25938 0.16961 0.0
H1071 H 0.58027 0.26341 0.18749 0.0
H1072 H 0.56371 0.25373 0.1651 0.0
H1073 H 0.52846 0.19375 0.17638 0.0
H1074 H 0.54562 0.20188 0.19881 0.0
H1075 H 0.55503 0.15692 0.18778 0.0
H1076 H 0.70988 0.15302 0.18239 0.0
H1077 H 0.7229 0.17815 0.21293 0.0
H1078 H 0.60804 0.22461 0.21483 0.0
C1079 C 0.5822 0.18025 0.14573 0.0
C1080 C 0.59833 0.15923 0.13154 0.0
C1081 C 0.63458 0.14162 0.13395 0.0
C1082 C 0.65472 0.14544 0.15021 0.0
C1083 C 0.63795 0.1666 0.16391 0.0
C1084 C 0.60233 0.1834 0.16182 0.0
C1085 C 0.59025 0.20445 0.17849 0.0
C1086 C 0.58695 0.2478 0.17495 0.0
C1087 C 0.55258 0.18828 0.18582 0.0
C1088 C 0.62399 0.1957 0.19059 0.0
C1089 C 0.65193 0.17507 0.18179 0.0
C1090 C 0.68773 0.16806 0.1896 0.0
C1091 C 0.69487 0.1822 0.2069 0.0
C1092 C 0.66571 0.20131 0.21636 0.0
C1093 C 0.63003 0.2083 0.20808 0.0
H1094 H 0.98341 0.16879 0.3907 0.0
H1095 H 0.09008 0.10516 0.39399 0.0
H1096 H 0.0899 0.11209 0.42677 0.0
H1097 H 0.00183 0.23422 0.43012 0.0
H1098 H 0.95219 0.23182 0.43654 0.0
H1099 H 0.9649 0.22873 0.41331 0.0
H1100 H 0.92796 0.16437 0.41072 0.0
H1101 H 0.91555 0.16696 0.4339 0.0
H1102 H 0.94035 0.12545 0.42549 0.0
H1103 H 0.07206 0.11556 0.45904 0.0
H1104 H 0.03943 0.11834 0.4882 0.0
H1105 H 0.94461 0.17956 0.46396 0.0
C1106 C 0.00753 0.15759 0.39825 0.0
C1107 C 0.03691 0.13672 0.38975 0.0
C1108 C 0.06756 0.1218 0.40015 0.0
C1109 C 0.06765 0.12551 0.41881 0.0
C1110 C 0.03726 0.14477 0.42682 0.0
C1111 C 0.00806 0.16113 0.41684 0.0
C1112 C 0.97661 0.1766 0.42866 0.0
C1113 C 0.97373 0.22045 0.42706 0.0
C1114 C 0.93786 0.15717 0.42444 0.0
C1115 C 0.99181 0.16494 0.44682 0.0
C1116 C 0.02704 0.14699 0.4455 0.0
C1117 C 0.04493 0.13032 0.46027 0.0
C1118 C 0.02609 0.13162 0.47671 0.0
C1119 C 0.98973 0.14912 0.47823 0.0
C1120 C 0.97287 0.16683 0.4632 0.0
H1121 H 0.99849 0.47279 0.64374 0.0
H1122 H 0.04894 0.58583 0.65035 0.0
H1123 H 0.03678 0.58268 0.68271 0.0
H1124 H 0.92511 0.48075 0.68017 0.0
H1125 H 0.93216 0.43134 0.68645 0.0
H1126 H 0.93783 0.44573 0.66352 0.0
H1127 H 0.00631 0.41693 0.6636 0.0
H1128 H 0.00103 0.40277 0.68648 0.0
H1129 H 0.04069 0.43288 0.68014 0.0
H1130 H 0.03016 0.56239 0.71457 0.0
H1131 H 0.02707 0.52756 0.74324 0.0
H1132 H 0.98007 0.4282 0.71598 0.0
C1133 C 0.00565 0.49752 0.65188 0.0
C1134 C 0.02432 0.52971 0.64447 0.0
C1135 C 0.03404 0.56113 0.65565 0.0
C1136 C 0.0273 0.55955 0.67408 0.0
C1137 C 0.01026 0.52667 0.68105 0.0
C1138 C 0.99904 0.49642 0.67025 0.0
C1139 C 0.98529 0.46264 0.68117 0.0
C1140 C 0.94255 0.45466 0.67762 0.0
C1141 C 0.0098 0.42672 0.67763 0.0
C1142 C 0.99186 0.47798 0.69985 0.0
C1143 C 0.00595 0.51511 0.6995 0.0
C1144 C 0.01818 0.53376 0.71502 0.0
C1145 C 0.01652 0.51374 0.73121 0.0
C1146 C 0.00289 0.47552 0.73174 0.0
C1147 C 0.98948 0.45783 0.71595 0.0
H1148 H 0.57278 0.1557 0.38751 0.0
H1149 H 0.50326 0.25785 0.39329 0.0
H1150 H 0.52011 0.27729 0.36238 0.0
H1151 H 0.64801 0.19496 0.36077 0.0
H1152 H 0.65199 0.15232 0.34727 0.0
H1153 H 0.63615 0.14875 0.37 0.0
H1154 H 0.57439 0.11382 0.35935 0.0
H1155 H 0.58994 0.11738 0.33659 0.0
H1156 H 0.54386 0.13621 0.34294 0.0
H1157 H 0.54761 0.28583 0.33089 0.0
H1158 H 0.57827 0.2803 0.30121 0.0
H1159 H 0.62391 0.16918 0.31606 0.0
C1160 C 0.56173 0.18265 0.38245 0.0
C1161 C 0.53768 0.20599 0.39291 0.0
C1162 C 0.52236 0.24006 0.38553 0.0
C1163 C 0.53171 0.25117 0.36803 0.0
C1164 C 0.55554 0.22729 0.35805 0.0
C1165 C 0.5699 0.1935 0.365 0.0
C1166 C 0.59293 0.17149 0.35143 0.0
C1167 C 0.63474 0.16662 0.35775 0.0
C1168 C 0.57415 0.13243 0.34732 0.0
C1169 C 0.59008 0.19849 0.33571 0.0
C1170 C 0.56872 0.23072 0.33977 0.0
C1171 C 0.56395 0.26051 0.32753 0.0
C1172 C 0.5815 0.25722 0.31076 0.0
C1173 C 0.60287 0.22411 0.30635 0.0
C1174 C 0.60708 0.19448 0.319 0.0
H1175 H 0.04677 0.09956 0.63268 0.0
H1176 H 0.95295 0.03861 0.65759 0.0
H1177 H 0.91219 0.05105 0.63078 0.0
H1178 H 0.99079 0.17217 0.61026 0.0
H1179 H 0.02156 0.17186 0.59106 0.0
H1180 H 0.0408 0.16015 0.61274 0.0
H1181 H 0.06601 0.09706 0.59991 0.0
H1182 H 0.0448 0.10559 0.5783 0.0
H1183 H 0.03317 0.06257 0.5906 0.0
H1184 H 0.88079 0.07649 0.60157 0.0
H1185 H 0.86492 0.10414 0.57179 0.0
H1186 H 0.98331 0.13851 0.56556 0.0
C1187 C 0.01748 0.08917 0.63268 0.0
C1188 C 0.00271 0.06868 0.64729 0.0
C1189 C 0.96461 0.05466 0.64653 0.0
C1190 C 0.94135 0.06165 0.6314 0.0
C1191 C 0.95706 0.08202 0.61716 0.0
C1192 C 0.99444 0.09517 0.61772 0.0
C1193 C 0.00571 0.11463 0.60061 0.0
C1194 C 0.01526 0.15722 0.60387 0.0
C1195 C 0.03939 0.09371 0.59179 0.0
C1196 C 0.96893 0.11016 0.59006 0.0
C1197 C 0.94067 0.09236 0.59993 0.0
C1198 C 0.90298 0.08946 0.59357 0.0
C1199 C 0.89419 0.10511 0.57672 0.0
C1200 C 0.92334 0.1218 0.5663 0.0
C1201 C 0.96099 0.12433 0.57307 0.0
H1202 H 0.06207 0.52415 0.88684 0.0
H1203 H 0.14426 0.43852 0.90426 0.0
H1204 H 0.12642 0.39792 0.87811 0.0
H1205 H 0.98956 0.45764 0.86884 0.0
H1206 H 0.97786 0.48994 0.85084 0.0
H1207 H 0.99443 0.50868 0.87197 0.0
H1208 H 0.04453 0.54539 0.85505 0.0
H1209 H 0.03541 0.52408 0.83357 0.0
H1210 H 0.08245 0.5207 0.84382 0.0
H1211 H 0.09357 0.36469 0.85082 0.0
H1212 H 0.06037 0.34871 0.82218 0.0
H1213 H 0.00942 0.46173 0.82124 0.0
C1214 C 0.07602 0.49659 0.88537 0.0
C1215 C 0.10412 0.48414 0.8977 0.0
C1216 C 0.12246 0.44842 0.89498 0.0
C1217 C 0.1123 0.42515 0.88027 0.0
C1218 C 0.08414 0.43834 0.8684 0.0
C1219 C 0.06668 0.47351 0.87078 0.0
C1220 C 0.03951 0.48295 0.85563 0.0
C1221 C 0.99788 0.4849 0.86222 0.0
C1222 C 0.05118 0.52045 0.8464 0.0
C1223 C 0.0454 0.44832 0.84387 0.0
C1224 C 0.06971 0.4219 0.85179 0.0
C1225 C 0.07547 0.38567 0.84428 0.0
C1226 C 0.0567 0.37684 0.82805 0.0
C1227 C 0.03419 0.40481 0.81926 0.0
C1228 C 0.02801 0.4406 0.82742 0.0
H1229 H 0.63845 0.54803 0.14279 0.0
H1230 H 0.73545 0.61828 0.15896 0.0
H1231 H 0.76912 0.59987 0.1311 0.0
H1232 H 0.68986 0.47165 0.11972 0.0
H1233 H 0.65353 0.46852 0.10251 0.0
H1234 H 0.6407 0.48291 0.12476 0.0
H1235 H 0.60995 0.54395 0.11186 0.0
H1236 H 0.62415 0.53221 0.0895 0.0
H1237 H 0.6387 0.57722 0.09943 0.0
H1238 H 0.79088 0.57364 0.10035 0.0
H1239 H 0.79509 0.54922 0.06919 0.0
H1240 H 0.68029 0.5027 0.07333 0.0
C1241 C 0.66722 0.55885 0.1408 0.0
C1242 C 0.68469 0.58398 0.15322 0.0
C1243 C 0.72177 0.59858 0.1497 0.0
C1244 C 0.74107 0.58818 0.13394 0.0
C1245 C 0.72259 0.56361 0.12184 0.0
C1246 C 0.68628 0.5495 0.12514 0.0
C1247 C 0.67035 0.52727 0.10943 0.0
C1248 C 0.66321 0.48509 0.11441 0.0
C1249 C 0.63364 0.54628 0.1021 0.0
C1250 C 0.70323 0.53103 0.0966 0.0
C1251 C 0.73358 0.55129 0.10402 0.0
C1252 C 0.76722 0.5578 0.09447 0.0
C1253 C 0.76948 0.54373 0.07686 0.0
C1254 C 0.73796 0.52427 0.06897 0.0
C1255 C 0.70472 0.51768 0.07907 0.0
loop_
_geom_bond_atom_site_label_1
_geom_bond_atom_site_label_2
_geom_bond_distance
_geom_bond_site_symmetry_2
_ccdc_geom_bond_type
Mg0 O7 2.141 . S
Mg0 O8 2.045 1_545 S
Mg0 O9 2.048 1_455 S
Mg0 O12 2.141 1_455 S
C1 O2 1.313 . S
C1 O8 1.199 . S
O2 C1 1.313 . S
C3 O4 1.245 . S
C3 O12 1.289 . S
O4 C3 1.245 . S
C5 O6 1.245 . S
C5 O7 1.289 1_565 S
O6 C5 1.245 . S
O7 Mg0 2.141 . S
O7 C5 1.289 1_545 S
O8 Mg0 2.045 1_565 S
O8 C1 1.199 . S
O9 Mg0 2.048 1_655 S
O9 C10 1.195 . S
C10 O9 1.195 . S
C10 O11 1.313 . S
O11 C10 1.313 . S
O12 Mg0 2.141 1_655 S
O12 C3 1.289 . S
Mg13 O20 2.141 . S
Mg13 O21 2.048 . S
Mg13 O22 2.048 . S
Mg13 O25 2.141 . S
C14 O15 1.313 . S
C14 O21 1.195 . S
O15 C14 1.313 . S
C16 O17 1.245 . S
C16 O25 1.289 . S
O17 C16 1.245 . S
C18 O19 1.245 . S
C18 O20 1.289 . S
O19 C18 1.245 . S
O20 Mg13 2.141 . S
O20 C18 1.289 . S
O21 Mg13 2.048 . S
O21 C14 1.195 . S
O22 Mg13 2.048 . S
O22 C23 1.195 . S
C23 O22 1.195 . S
C23 O24 1.313 . S
O24 C23 1.313 . S
O25 Mg13 2.141 . S
O25 C16 1.289 . S
Mg26 O33 2.141 . S
Mg26 O34 2.048 . S
Mg26 O35 2.048 . S
Mg26 O38 2.141 . S
C27 O28 1.313 . S
C27 O34 1.195 . S
O28 C27 1.313 . S
C29 O30 1.245 . S
C29 O38 1.289 . S
O30 C29 1.245 . S
C31 O32 1.245 . S
C31 O33 1.289 . S
O32 C31 1.245 . S
O33 Mg26 2.141 . S
O33 C31 1.289 . S
O34 Mg26 2.048 . S
O34 C27 1.195 . S
O35 Mg26 2.048 . S
O35 C36 1.195 . S
C36 O35 1.195 . S
C36 O37 1.313 . S
O37 C36 1.313 . S
O38 Mg26 2.141 . S
O38 C29 1.289 . S
Mg39 O46 2.141 . S
Mg39 O47 2.048 . S
Mg39 O48 2.048 . S
Mg39 O51 2.141 . S
C40 O41 1.313 . S
C40 O47 1.195 . S
O41 C40 1.313 . S
C42 O43 1.245 . S
C42 O51 1.289 . S
O43 C42 1.245 . S
C44 O45 1.245 . S
C44 O46 1.289 . S
O45 C44 1.245 . S
O46 Mg39 2.141 . S
O46 C44 1.289 . S
O47 Mg39 2.048 . S
O47 C40 1.195 . S
O48 Mg39 2.048 . S
O48 C49 1.195 . S
C49 O48 1.195 . S
C49 O50 1.313 . S
O50 C49 1.313 . S
O51 Mg39 2.141 . S
O51 C42 1.289 . S
Mg52 O59 2.141 . S
Mg52 O60 2.048 . S
Mg52 O61 2.048 . S
Mg52 O64 2.141 . S
C53 O54 1.313 . S
C53 O60 1.195 . S
O54 C53 1.313 . S
C55 O56 1.245 . S
C55 O64 1.289 . S
O56 C55 1.245 . S
C57 O58 1.245 . S
C57 O59 1.289 . S
O58 C57 1.245 . S
O59 Mg52 2.141 . S
O59 C57 1.289 . S
O60 Mg52 2.048 . S
O60 C53 1.195 . S
O61 Mg52 2.048 . S
O61 C62 1.195 . S
C62 O61 1.195 . S
C62 O63 1.313 . S
O63 C62 1.313 . S
O64 Mg52 2.141 . S
O64 C55 1.289 . S
Mg65 O72 2.141 . S
Mg65 O73 2.048 . S
Mg65 O74 2.048 . S
Mg65 O77 2.141 . S
C66 O67 1.313 . S
C66 O73 1.195 . S
O67 C66 1.313 . S
C68 O69 1.245 . S
C68 O77 1.289 . S
O69 C68 1.245 . S
C70 O71 1.245 . S
C70 O72 1.289 . S
O71 C70 1.245 . S
O72 Mg65 2.141 . S
O72 C70 1.289 . S
O73 Mg65 2.048 . S
O73 C66 1.195 . S
O74 Mg65 2.048 . S
O74 C75 1.195 . S
C75 O74 1.195 . S
C75 O76 1.313 . S
O76 C75 1.313 . S
O77 Mg65 2.141 . S
O77 C68 1.289 . S
Mg78 O85 2.141 . S
Mg78 O86 2.048 . S
Mg78 O87 2.048 . S
Mg78 O90 2.141 . S
C79 O80 1.313 . S
C79 O86 1.195 . S
O80 C79 1.313 . S
C81 O82 1.245 . S
C81 O90 1.289 . S
O82 C81 1.245 . S
C83 O84 1.245 . S
C83 O85 1.289 . S
O84 C83 1.245 . S
O85 Mg78 2.141 . S
O85 C83 1.289 . S
O86 Mg78 2.048 . S
O86 C79 1.195 . S
O87 Mg78 2.048 . S
O87 C88 1.195 . S
C88 O87 1.195 . S
C88 O89 1.313 . S
O89 C88 1.313 . S
O90 Mg78 2.141 . S
O90 C81 1.289 . S
Mg91 O98 2.141 1_655 S
Mg91 O99 2.048 1_655 S
Mg91 O100 2.048 1_565 S
Mg91 O103 2.141 1_565 S
C92 O93 1.313 . S
C92 O99 1.195 . S
O93 C92 1.313 . S
C94 O95 1.245 1_655 S
C94 O103 1.289 . S
O95 C94 1.245 1_455 S
C96 O97 1.245 . S
C96 O98 1.289 . S
O97 C96 1.245 . S
O98 Mg91 2.141 1_455 S
O98 C96 1.289 . S
O99 Mg91 2.048 1_455 S
O99 C92 1.195 . S
O100 Mg91 2.048 1_545 S
O100 C101 1.195 . S
C101 O100 1.195 . S
C101 O102 1.313 1_655 S
O102 C101 1.313 1_455 S
O103 Mg91 2.141 1_545 S
O103 C94 1.289 . S
Mn104 O109 2.095 1_554 S
Mn104 O119 2.162 . S
Mn104 O120 2.297 . S
Mn104 O128 2.385 . S
Mn104 O129 2.209 . S
Mn104 O130 2.087 1_554 S
Mn105 O110 2.122 . S
Mn105 N112 2.257 1_556 S
Mn105 N121 2.281 1_556 S
Mn105 O129 2.214 1_556 S
Mn105 O131 2.117 . S
C106 O128 1.234 . S
C106 O129 1.283 . S
C107 O119 1.281 . S
C107 O120 1.236 . S
C108 O130 1.248 . S
C108 O131 1.264 . S
O109 Mn104 2.095 1_556 S
O109 C118 1.250 . S
O110 Mn105 2.122 . S
O110 C118 1.258 . S
C111 N112 1.326 . S
C111 C115 1.460 . S
C111 H117 0.929 1_554 S
N112 Mn105 2.257 1_554 S
N112 C111 1.326 . S
N112 C116 1.362 . S
C113 C114 1.258 . S
C113 C116 1.431 . S
C113 C133 1.449 . S
C114 C113 1.258 . S
C114 C115 1.477 . S
C114 H134 0.931 . S
C115 C111 1.460 . S
C115 C114 1.477 . S
C115 H135 0.930 . S
C116 N112 1.362 . S
C116 C113 1.431 . S
C116 C126 1.476 . S
H117 C111 0.929 1_556 S
C118 O109 1.250 . S
C118 O110 1.258 . S
O119 Mn104 2.162 . S
O119 C107 1.281 . S
O120 Mn104 2.297 . S
O120 C107 1.236 . S
N121 Mn105 2.281 1_554 S
N121 C122 1.328 . S
N121 C126 1.318 . S
C122 N121 1.328 . S
C122 C123 1.457 . S
C122 H127 0.929 . S
C123 C122 1.457 . S
C123 C124 1.291 . S
C123 H136 0.931 . S
C124 C123 1.291 . S
C124 C125 1.373 . S
C124 H137 0.929 . S
C125 C124 1.373 . S
C125 C126 1.396 . S
C125 C132 1.403 . S
C126 C116 1.476 . S
C126 N121 1.318 . S
C126 C125 1.396 . S
H127 C122 0.929 . S
O128 Mn104 2.385 . S
O128 C106 1.234 . S
O129 Mn104 2.209 . S
O129 Mn105 2.214 1_554 S
O129 C106 1.283 . S
O130 Mn104 2.087 1_556 S
O130 C108 1.248 . S
O131 Mn105 2.117 . S
O131 C108 1.264 . S
C132 C125 1.403 . S
C132 C133 1.399 . S
C132 H138 0.929 . S
C133 C113 1.449 . S
C133 C132 1.399 . S
C133 H139 0.930 . S
H134 C114 0.931 . S
H135 C115 0.930 . S
H136 C123 0.931 . S
H137 C124 0.929 . S
H138 C132 0.929 . S
H139 C133 0.930 . S
Mn140 O145 2.095 . S
Mn140 O155 2.162 . S
Mn140 O156 2.297 . S
Mn140 O164 2.385 . S
Mn140 O165 2.209 . S
Mn140 O166 2.094 . S
Mn141 O146 2.121 . S
Mn141 N148 2.257 1_565 S
Mn141 N157 2.282 . S
Mn141 O165 2.215 . S
Mn141 O167 2.117 . S
C142 O164 1.234 . S
C142 O165 1.283 . S
C143 O155 1.281 . S
C143 O156 1.236 . S
C144 O166 1.240 . S
C144 O167 1.264 . S
O145 Mn140 2.095 . S
O145 C154 1.250 . S
O146 Mn141 2.121 . S
O146 C154 1.258 . S
C147 N148 1.326 . S
C147 C151 1.460 . S
C147 H153 0.929 . S
N148 Mn141 2.257 1_545 S
N148 C147 1.326 . S
N148 C152 1.362 . S
C149 C150 1.258 . S
C149 C152 1.431 . S
C149 C169 1.449 . S
C150 C149 1.258 . S
C150 C151 1.477 . S
C150 H170 0.931 . S
C151 C147 1.460 . S
C151 C150 1.477 . S
C151 H171 0.930 . S
C152 N148 1.362 . S
C152 C149 1.431 . S
C152 C162 1.476 1_545 S
H153 C147 0.929 . S
C154 O145 1.250 . S
C154 O146 1.258 . S
O155 Mn140 2.162 . S
O155 C143 1.281 . S
O156 Mn140 2.297 . S
O156 C143 1.236 . S
N157 Mn141 2.282 . S
N157 C158 1.328 . S
N157 C162 1.318 . S
C158 N157 1.328 . S
C158 C159 1.457 . S
C158 H163 0.929 . S
C159 C158 1.457 . S
C159 C160 1.291 . S
C159 H172 0.931 . S
C160 C159 1.291 . S
C160 C161 1.373 . S
C160 H173 0.929 . S
C161 C160 1.373 . S
C161 C162 1.396 . S
C161 C168 1.403 1_565 S
C162 C152 1.476 1_565 S
C162 N157 1.318 . S
C162 C161 1.396 . S
H163 C158 0.929 . S
O164 Mn140 2.385 . S
O164 C142 1.234 . S
O165 Mn140 2.209 . S
O165 Mn141 2.215 . S
O165 C142 1.283 . S
O166 Mn140 2.094 . S
O166 C144 1.240 . S
O167 Mn141 2.117 . S
O167 C144 1.264 . S
C168 C161 1.403 1_545 S
C168 C169 1.399 . S
C168 H174 0.929 . S
C169 C149 1.449 . S
C169 C168 1.399 . S
C169 H175 0.930 . S
H170 C150 0.931 . S
H171 C151 0.930 . S
H172 C159 0.931 . S
H173 C160 0.929 . S
H174 C168 0.929 . S
H175 C169 0.930 . S
Mn176 O181 2.095 . S
Mn176 O191 2.162 . S
Mn176 O192 2.297 . S
Mn176 O200 2.385 . S
Mn176 O201 2.209 . S
Mn176 O202 2.094 . S
Mn177 O182 2.121 . S
Mn177 N184 2.257 . S
Mn177 N193 2.282 . S
Mn177 O201 2.215 . S
Mn177 O203 2.117 . S
C178 O200 1.234 . S
C178 O201 1.283 . S
C179 O191 1.281 . S
C179 O192 1.236 . S
C180 O202 1.240 . S
C180 O203 1.264 . S
O181 Mn176 2.095 . S
O181 C190 1.250 . S
O182 Mn177 2.121 . S
O182 C190 1.258 . S
C183 N184 1.326 . S
C183 C187 1.460 . S
C183 H189 0.929 . S
N184 Mn177 2.257 . S
N184 C183 1.326 . S
N184 C188 1.362 . S
C185 C186 1.258 . S
C185 C188 1.431 . S
C185 C205 1.449 . S
C186 C185 1.258 . S
C186 C187 1.477 . S
C186 H206 0.931 1_455 S
C187 C183 1.460 . S
C187 C186 1.477 . S
C187 H207 0.930 . S
C188 N184 1.362 . S
C188 C185 1.431 . S
C188 C198 1.476 . S
H189 C183 0.929 . S
C190 O181 1.250 . S
C190 O182 1.258 . S
O191 Mn176 2.162 . S
O191 C179 1.281 . S
O192 Mn176 2.297 . S
O192 C179 1.236 . S
N193 Mn177 2.282 . S
N193 C194 1.328 . S
N193 C198 1.318 . S
C194 N193 1.328 . S
C194 C195 1.457 . S
C194 H199 0.929 . S
C195 C194 1.457 . S
C195 C196 1.291 . S
C195 H208 0.931 . S
C196 C195 1.291 . S
C196 C197 1.373 . S
C196 H209 0.929 . S
C197 C196 1.373 . S
C197 C198 1.396 . S
C197 C204 1.403 . S
C198 C188 1.476 . S
C198 N193 1.318 . S
C198 C197 1.396 . S
H199 C194 0.929 . S
O200 Mn176 2.385 . S
O200 C178 1.234 . S
O201 Mn176 2.209 . S
O201 Mn177 2.215 . S
O201 C178 1.283 . S
O202 Mn176 2.094 . S
O202 C180 1.240 . S
O203 Mn177 2.117 . S
O203 C180 1.264 . S
C204 C197 1.403 . S
C204 C205 1.399 . S
C204 H210 0.929 . S
C205 C185 1.449 . S
C205 C204 1.399 . S
C205 H211 0.930 1_455 S
H206 C186 0.931 1_655 S
H207 C187 0.930 . S
H208 C195 0.931 . S
H209 C196 0.929 . S
H210 C204 0.929 . S
H211 C205 0.930 1_655 S
Mn212 O217 2.095 . S
Mn212 O227 2.162 . S
Mn212 O228 2.297 . S
Mn212 O236 2.385 . S
Mn212 O237 2.209 . S
Mn212 O238 2.094 . S
Mn213 O218 2.121 . S
Mn213 N220 2.257 . S
Mn213 N229 2.282 . S
Mn213 O237 2.215 . S
Mn213 O239 2.117 . S
C214 O236 1.234 . S
C214 O237 1.283 . S
C215 O227 1.281 . S
C215 O228 1.236 . S
C216 O238 1.240 . S
C216 O239 1.264 . S
O217 Mn212 2.095 . S
O217 C226 1.250 . S
O218 Mn213 2.121 . S
O218 C226 1.258 . S
C219 N220 1.326 . S
C219 C223 1.460 . S
C219 H225 0.929 . S
N220 Mn213 2.257 . S
N220 C219 1.326 . S
N220 C224 1.362 . S
C221 C222 1.258 . S
C221 C224 1.431 . S
C221 C241 1.449 . S
C222 C221 1.258 . S
C222 C223 1.477 . S
C222 H242 0.931 . S
C223 C219 1.460 . S
C223 C222 1.477 . S
C223 H243 0.930 . S
C224 N220 1.362 . S
C224 C221 1.431 . S
C224 C234 1.476 . S
H225 C219 0.929 . S
C226 O217 1.250 . S
C226 O218 1.258 . S
O227 Mn212 2.162 . S
O227 C215 1.281 . S
O228 Mn212 2.297 . S
O228 C215 1.236 . S
N229 Mn213 2.282 . S
N229 C230 1.328 . S
N229 C234 1.318 . S
C230 N229 1.328 . S
C230 C231 1.457 . S
C230 H235 0.929 . S
C231 C230 1.457 . S
C231 C232 1.291 . S
C231 H244 0.931 . S
C232 C231 1.291 . S
C232 C233 1.373 . S
C232 H245 0.929 . S
C233 C232 1.373 . S
C233 C234 1.396 . S
C233 C240 1.403 . S
C234 C224 1.476 . S
C234 N229 1.318 . S
C234 C233 1.396 . S
H235 C230 0.929 . S
O236 Mn212 2.385 . S
O236 C214 1.234 . S
O237 Mn212 2.209 . S
O237 Mn213 2.215 . S
O237 C214 1.283 . S
O238 Mn212 2.094 . S
O238 C216 1.240 . S
O239 Mn213 2.117 . S
O239 C216 1.264 . S
C240 C233 1.403 . S
C240 C241 1.399 . S
C240 H246 0.929 . S
C241 C221 1.449 . S
C241 C240 1.399 . S
C241 H247 0.930 . S
H242 C222 0.931 . S
H243 C223 0.930 . S
H244 C231 0.931 . S
H245 C232 0.929 . S
H246 C240 0.929 . S
H247 C241 0.930 . S
Mn248 O253 2.095 . S
Mn248 O263 2.162 . S
Mn248 O264 2.297 . S
Mn248 O272 2.385 . S
Mn248 O273 2.209 . S
Mn248 O274 2.094 . S
Mn249 O254 2.121 . S
Mn249 N256 2.257 . S
Mn249 N265 2.282 . S
Mn249 O273 2.215 . S
Mn249 O275 2.117 . S
C250 O272 1.234 . S
C250 O273 1.283 . S
C251 O263 1.281 . S
C251 O264 1.236 . S
C252 O274 1.240 . S
C252 O275 1.264 . S
O253 Mn248 2.095 . S
O253 C262 1.250 . S
O254 Mn249 2.121 . S
O254 C262 1.258 . S
C255 N256 1.326 . S
C255 C259 1.460 . S
C255 H261 0.929 . S
N256 Mn249 2.257 . S
N256 C255 1.326 . S
N256 C260 1.362 . S
C257 C258 1.258 . S
C257 C260 1.431 . S
C257 C277 1.449 . S
C258 C257 1.258 . S
C258 C259 1.477 . S
C258 H278 0.931 1_545 S
C259 C255 1.460 . S
C259 C258 1.477 . S
C259 H279 0.930 . S
C260 N256 1.362 . S
C260 C257 1.431 . S
C260 C270 1.476 . S
H261 C255 0.929 . S
C262 O253 1.250 . S
C262 O254 1.258 . S
O263 Mn248 2.162 . S
O263 C251 1.281 . S
O264 Mn248 2.297 . S
O264 C251 1.236 . S
N265 Mn249 2.282 . S
N265 C266 1.328 . S
N265 C270 1.318 . S
C266 N265 1.328 . S
C266 C267 1.457 . S
C266 H271 0.929 . S
C267 C266 1.457 . S
C267 C268 1.291 . S
C267 H280 0.931 . S
C268 C267 1.291 . S
C268 C269 1.373 . S
C268 H281 0.929 . S
C269 C268 1.373 . S
C269 C270 1.396 . S
C269 C276 1.403 . S
C270 C260 1.476 . S
C270 N265 1.318 . S
C270 C269 1.396 . S
H271 C266 0.929 . S
O272 Mn248 2.385 . S
O272 C250 1.234 . S
O273 Mn248 2.209 . S
O273 Mn249 2.215 . S
O273 C250 1.283 . S
O274 Mn248 2.094 . S
O274 C252 1.240 . S
O275 Mn249 2.117 . S
O275 C252 1.264 . S
C276 C269 1.403 . S
C276 C277 1.399 . S
C276 H282 0.929 . S
C277 C257 1.449 . S
C277 C276 1.399 . S
C277 H283 0.930 1_545 S
H278 C258 0.931 1_565 S
H279 C259 0.930 . S
H280 C267 0.931 . S
H281 C268 0.929 . S
H282 C276 0.929 . S
H283 C277 0.930 1_565 S
Mn284 O289 2.095 . S
Mn284 O299 2.162 . S
Mn284 O300 2.297 . S
Mn284 O308 2.385 . S
Mn284 O309 2.209 . S
Mn284 O310 2.094 . S
Mn285 O290 2.121 . S
Mn285 N292 2.257 . S
Mn285 N301 2.282 . S
Mn285 O309 2.215 1_455 S
Mn285 O311 2.117 1_455 S
C286 O308 1.234 . S
C286 O309 1.283 . S
C287 O299 1.281 . S
C287 O300 1.236 . S
C288 O310 1.240 . S
C288 O311 1.264 . S
O289 Mn284 2.095 . S
O289 C298 1.250 . S
O290 Mn285 2.121 . S
O290 C298 1.258 1_455 S
C291 N292 1.326 . S
C291 C295 1.460 . S
C291 H297 0.929 . S
N292 Mn285 2.257 . S
N292 C291 1.326 . S
N292 C296 1.362 . S
C293 C294 1.258 . S
C293 C296 1.431 . S
C293 C313 1.449 . S
C294 C293 1.258 . S
C294 C295 1.477 . S
C294 H314 0.931 . S
C295 C291 1.460 . S
C295 C294 1.477 . S
C295 H315 0.930 . S
C296 N292 1.362 . S
C296 C293 1.431 . S
C296 C306 1.476 . S
H297 C291 0.929 . S
C298 O289 1.250 . S
C298 O290 1.258 1_655 S
O299 Mn284 2.162 . S
O299 C287 1.281 . S
O300 Mn284 2.297 . S
O300 C287 1.236 . S
N301 Mn285 2.282 . S
N301 C302 1.328 . S
N301 C306 1.318 . S
C302 N301 1.328 . S
C302 C303 1.457 . S
C302 H307 0.929 . S
C303 C302 1.457 . S
C303 C304 1.291 . S
C303 H316 0.931 . S
C304 C303 1.291 . S
C304 C305 1.373 . S
C304 H317 0.929 . S
C305 C304 1.373 . S
C305 C306 1.396 . S
C305 C312 1.403 . S
C306 C296 1.476 . S
C306 N301 1.318 . S
C306 C305 1.396 . S
H307 C302 0.929 . S
O308 Mn284 2.385 . S
O308 C286 1.234 . S
O309 Mn284 2.209 . S
O309 Mn285 2.215 1_655 S
O309 C286 1.283 . S
O310 Mn284 2.094 . S
O310 C288 1.240 . S
O311 Mn285 2.117 1_655 S
O311 C288 1.264 . S
C312 C305 1.403 . S
C312 C313 1.399 . S
C312 H318 0.929 . S
C313 C293 1.449 . S
C313 C312 1.399 . S
C313 H319 0.930 . S
H314 C294 0.931 . S
H315 C295 0.930 . S
H316 C303 0.931 . S
H317 C304 0.929 . S
H318 C312 0.929 . S
H319 C313 0.930 . S
Mn320 O325 2.095 . S
Mn320 O335 2.162 . S
Mn320 O336 2.297 . S
Mn320 O344 2.385 1_554 S
Mn320 O345 2.209 . S
Mn320 O346 2.094 . S
Mn321 O326 2.121 . S
Mn321 N328 2.257 . S
Mn321 N337 2.282 . S
Mn321 O345 2.215 . S
Mn321 O347 2.117 . S
C322 O344 1.234 . S
C322 O345 1.283 1_556 S
C323 O335 1.281 . S
C323 O336 1.236 . S
C324 O346 1.240 . S
C324 O347 1.264 . S
O325 Mn320 2.095 . S
O325 C334 1.250 . S
O326 Mn321 2.121 . S
O326 C334 1.258 . S
C327 N328 1.326 . S
C327 C331 1.460 . S
C327 H333 0.929 . S
N328 Mn321 2.257 . S
N328 C327 1.326 . S
N328 C332 1.362 . S
C329 C330 1.258 1_556 S
C329 C332 1.431 1_556 S
C329 C349 1.449 . S
C330 C329 1.258 1_554 S
C330 C331 1.477 . S
C330 H350 0.946 . S
C331 C327 1.460 . S
C331 C330 1.477 . S
C331 H351 0.930 . S
C332 N328 1.362 . S
C332 C329 1.431 1_554 S
C332 C342 1.476 1_554 S
H333 C327 0.929 . S
C334 O325 1.250 . S
C334 O326 1.258 . S
O335 Mn320 2.162 . S
O335 C323 1.281 . S
O336 Mn320 2.297 . S
O336 C323 1.236 . S
N337 Mn321 2.282 . S
N337 C338 1.328 1_554 S
N337 C342 1.318 1_554 S
C338 N337 1.328 1_556 S
C338 C339 1.457 . S
C338 H343 0.936 . S
C339 C338 1.457 . S
C339 C340 1.291 . S
C339 H352 0.931 . S
C340 C339 1.291 . S
C340 C341 1.373 . S
C340 H353 0.929 . S
C341 C340 1.373 . S
C341 C342 1.396 . S
C341 C348 1.403 . S
C342 C332 1.476 1_556 S
C342 N337 1.318 1_556 S
C342 C341 1.396 . S
H343 C338 0.936 . S
O344 Mn320 2.385 1_556 S
O344 C322 1.234 . S
O345 Mn320 2.209 . S
O345 Mn321 2.215 . S
O345 C322 1.283 1_554 S
O346 Mn320 2.094 . S
O346 C324 1.240 . S
O347 Mn321 2.117 . S
O347 C324 1.264 . S
C348 C341 1.403 . S
C348 C349 1.399 . S
C348 H354 0.929 . S
C349 C329 1.449 . S
C349 C348 1.399 . S
C349 H355 0.930 . S
H350 C330 0.946 . S
H351 C331 0.930 . S
H352 C339 0.931 . S
H353 C340 0.929 . S
H354 C348 0.929 . S
H355 C349 0.930 . S
Mn356 O361 2.095 . S
Mn356 O371 2.162 . S
Mn356 O372 2.297 . S
Mn356 O380 2.385 . S
Mn356 O381 2.209 . S
Mn356 O382 2.094 . S
Mn357 O362 2.121 . S
Mn357 N364 2.257 . S
Mn357 N373 2.282 . S
Mn357 O381 2.215 . S
Mn357 O383 2.117 . S
C358 O380 1.234 . S
C358 O381 1.283 . S
C359 O371 1.281 . S
C359 O372 1.236 . S
C360 O382 1.240 . S
C360 O383 1.264 . S
O361 Mn356 2.095 . S
O361 C370 1.250 . S
O362 Mn357 2.121 . S
O362 C370 1.258 . S
C363 N364 1.326 . S
C363 C367 1.460 . S
C363 H369 0.929 . S
N364 Mn357 2.257 . S
N364 C363 1.326 . S
N364 C368 1.362 . S
C365 C366 1.258 . S
C365 C368 1.431 . S
C365 C385 1.449 . S
C366 C365 1.258 . S
C366 C367 1.477 . S
C366 H386 0.931 . S
C367 C363 1.460 . S
C367 C366 1.477 . S
C367 H387 0.930 . S
C368 N364 1.362 . S
C368 C365 1.431 . S
C368 C378 1.476 . S
H369 C363 0.929 . S
C370 O361 1.250 . S
C370 O362 1.258 . S
O371 Mn356 2.162 . S
O371 C359 1.281 . S
O372 Mn356 2.297 . S
O372 C359 1.236 . S
N373 Mn357 2.282 . S
N373 C374 1.328 . S
N373 C378 1.318 . S
C374 N373 1.328 . S
C374 C375 1.457 . S
C374 H379 0.929 . S
C375 C374 1.457 . S
C375 C376 1.291 . S
C375 H388 0.931 . S
C376 C375 1.291 . S
C376 C377 1.373 . S
C376 H389 0.929 . S
C377 C376 1.373 . S
C377 C378 1.396 . S
C377 C384 1.403 . S
C378 C368 1.476 . S
C378 N373 1.318 . S
C378 C377 1.396 . S
H379 C374 0.929 . S
O380 Mn356 2.385 . S
O380 C358 1.234 . S
O381 Mn356 2.209 . S
O381 Mn357 2.215 . S
O381 C358 1.283 . S
O382 Mn356 2.094 . S
O382 C360 1.240 . S
O383 Mn357 2.117 . S
O383 C360 1.264 . S
C384 C377 1.403 . S
C384 C385 1.399 . S
C384 H390 0.929 . S
C385 C365 1.449 . S
C385 C384 1.399 . S
C385 H391 0.930 . S
H386 C366 0.931 . S
H387 C367 0.930 . S
H388 C375 0.931 . S
H389 C376 0.929 . S
H390 C384 0.929 . S
H391 C385 0.930 . S
H392 C404 0.930 . S
H393 C406 0.930 . S
H394 C407 0.930 . S
H395 C411 0.959 . S
H396 C411 0.959 . S
H397 C411 0.961 . S
H398 C412 0.960 . S
H399 C412 0.961 . S
H400 C412 0.959 . S
H401 C415 0.929 . S
H402 C416 0.931 1_545 S
H403 C418 0.930 . S
C404 H392 0.930 . S
C404 C405 1.399 . S
C404 C409 1.399 . S
C405 C404 1.399 . S
C405 C406 1.376 1_565 S
C406 H393 0.930 . S
C406 C405 1.376 1_545 S
C406 C407 1.388 . S
C407 H394 0.930 . S
C407 C406 1.388 . S
C407 C408 1.390 1_545 S
C408 C407 1.390 1_565 S
C408 C409 1.394 . S
C408 C414 1.465 . S
C409 C404 1.399 . S
C409 C408 1.394 . S
C409 C410 1.516 . S
C410 C409 1.516 . S
C410 C411 1.502 . S
C410 C412 1.561 . S
C410 C413 1.526 . S
C411 H395 0.959 . S
C411 H396 0.959 . S
C411 H397 0.961 . S
C411 C410 1.502 . S
C412 H398 0.960 . S
C412 H399 0.961 . S
C412 H400 0.959 . S
C412 C410 1.561 . S
C413 C410 1.526 . S
C413 C414 1.396 . S
C413 C418 1.390 . S
C414 C408 1.465 . S
C414 C413 1.396 . S
C414 C415 1.399 1_565 S
C415 H401 0.929 . S
C415 C414 1.399 1_545 S
C415 C416 1.385 1_545 S
C416 H402 0.931 1_565 S
C416 C415 1.385 1_565 S
C416 C417 1.389 . S
C417 C416 1.389 . S
C417 C418 1.387 . S
C418 H403 0.930 . S
C418 C413 1.390 . S
C418 C417 1.387 . S
H419 C431 0.930 . S
H420 C433 0.930 . S
H421 C434 0.930 . S
H422 C438 0.959 . S
H423 C438 0.959 . S
H424 C438 0.961 . S
H425 C439 0.960 . S
H426 C439 0.961 . S
H427 C439 0.959 . S
H428 C442 0.929 . S
H429 C443 0.931 . S
H430 C445 0.930 . S
C431 H419 0.930 . S
C431 C432 1.399 . S
C431 C436 1.399 . S
C432 C431 1.399 . S
C432 C433 1.376 . S
C433 H420 0.930 . S
C433 C432 1.376 . S
C433 C434 1.388 . S
C434 H421 0.930 . S
C434 C433 1.388 . S
C434 C435 1.390 . S
C435 C434 1.390 . S
C435 C436 1.394 . S
C435 C441 1.465 . S
C436 C431 1.399 . S
C436 C435 1.394 . S
C436 C437 1.516 . S
C437 C436 1.516 . S
C437 C438 1.502 . S
C437 C439 1.561 . S
C437 C440 1.526 . S
C438 H422 0.959 . S
C438 H423 0.959 . S
C438 H424 0.961 . S
C438 C437 1.502 . S
C439 H425 0.960 . S
C439 H426 0.961 . S
C439 H427 0.959 . S
C439 C437 1.561 . S
C440 C437 1.526 . S
C440 C441 1.396 . S
C440 C445 1.390 . S
C441 C435 1.465 . S
C441 C440 1.396 . S
C441 C442 1.399 . S
C442 H428 0.929 . S
C442 C441 1.399 . S
C442 C443 1.385 . S
C443 H429 0.931 . S
C443 C442 1.385 . S
C443 C444 1.389 . S
C444 C443 1.389 . S
C444 C445 1.387 . S
C445 H430 0.930 . S
C445 C440 1.390 . S
C445 C444 1.387 . S
H446 C458 0.930 . S
H447 C460 0.930 . S
H448 C461 0.930 . S
H449 C465 0.959 . S
H450 C465 0.959 . S
H451 C465 0.961 . S
H452 C466 0.960 . S
H453 C466 0.961 . S
H454 C466 0.959 . S
H455 C469 0.929 . S
H456 C470 0.931 . S
H457 C472 0.930 . S
C458 H446 0.930 . S
C458 C459 1.399 . S
C458 C463 1.399 . S
C459 C458 1.399 . S
C459 C460 1.376 . S
C460 H447 0.930 . S
C460 C459 1.376 . S
C460 C461 1.388 . S
C461 H448 0.930 . S
C461 C460 1.388 . S
C461 C462 1.390 . S
C462 C461 1.390 . S
C462 C463 1.394 . S
C462 C468 1.465 . S
C463 C458 1.399 . S
C463 C462 1.394 . S
C463 C464 1.516 . S
C464 C463 1.516 . S
C464 C465 1.502 . S
C464 C466 1.561 . S
C464 C467 1.526 . S
C465 H449 0.959 . S
C465 H450 0.959 . S
C465 H451 0.961 . S
C465 C464 1.502 . S
C466 H452 0.960 . S
C466 H453 0.961 . S
C466 H454 0.959 . S
C466 C464 1.561 . S
C467 C464 1.526 . S
C467 C468 1.396 . S
C467 C472 1.390 . S
C468 C462 1.465 . S
C468 C467 1.396 . S
C468 C469 1.399 . S
C469 H455 0.929 . S
C469 C468 1.399 . S
C469 C470 1.385 . S
C470 H456 0.931 . S
C470 C469 1.385 . S
C470 C471 1.389 . S
C471 C470 1.389 . S
C471 C472 1.387 . S
C472 H457 0.930 . S
C472 C467 1.390 . S
C472 C471 1.387 . S
H473 C485 0.930 . S
H474 C487 0.930 . S
H475 C488 0.930 . S
H476 C492 0.959 . S
H477 C492 0.959 . S
H478 C492 0.961 . S
H479 C493 0.960 . S
H480 C493 0.961 1_565 S
H481 C493 0.959 . S
H482 C496 0.929 . S
H483 C497 0.931 . S
H484 C499 0.930 . S
C485 H473 0.930 . S
C485 C486 1.399 . S
C485 C490 1.399 . S
C486 C485 1.399 . S
C486 C487 1.376 . S
C487 H474 0.930 . S
C487 C486 1.376 . S
C487 C488 1.388 . S
C488 H475 0.930 . S
C488 C487 1.388 . S
C488 C489 1.390 . S
C489 C488 1.390 . S
C489 C490 1.394 . S
C489 C495 1.465 1_545 S
C490 C485 1.399 . S
C490 C489 1.394 . S
C490 C491 1.498 1_545 S
C491 C490 1.498 1_565 S
C491 C492 1.513 . S
C491 C493 1.555 1_565 S
C491 C494 1.538 . S
C492 H476 0.959 . S
C492 H477 0.959 . S
C492 H478 0.961 . S
C492 C491 1.513 . S
C493 H479 0.960 . S
C493 H480 0.961 1_545 S
C493 H481 0.959 . S
C493 C491 1.555 1_545 S
C494 C491 1.538 . S
C494 C495 1.396 . S
C494 C499 1.390 . S
C495 C489 1.465 1_565 S
C495 C494 1.396 . S
C495 C496 1.399 . S
C496 H482 0.929 . S
C496 C495 1.399 . S
C496 C497 1.385 . S
C497 H483 0.931 . S
C497 C496 1.385 . S
C497 C498 1.389 . S
C498 C497 1.389 . S
C498 C499 1.387 . S
C499 H484 0.930 . S
C499 C494 1.390 . S
C499 C498 1.387 . S
H500 C512 0.930 . S
H501 C514 0.930 . S
H502 C515 0.930 . S
H503 C519 0.959 . S
H504 C519 0.959 . S
H505 C519 0.961 . S
H506 C520 0.960 . S
H507 C520 0.961 . S
H508 C520 0.959 . S
H509 C523 0.977 . S
H510 C524 0.931 . S
H511 C526 0.930 . S
C512 H500 0.930 . S
C512 C513 1.399 . S
C512 C517 1.399 . S
C513 C512 1.399 . S
C513 C514 1.376 . S
C514 H501 0.930 . S
C514 C513 1.376 . S
C514 C515 1.388 . S
C515 H502 0.930 . S
C515 C514 1.388 . S
C515 C516 1.390 . S
C516 C515 1.390 . S
C516 C517 1.394 . S
C516 C522 1.465 . S
C517 C512 1.399 . S
C517 C516 1.394 . S
C517 C518 1.516 . S
C518 C517 1.516 . S
C518 C519 1.502 . S
C518 C520 1.561 . S
C518 C521 1.526 . S
C519 H503 0.959 . S
C519 H504 0.959 . S
C519 H505 0.961 . S
C519 C518 1.502 . S
C520 H506 0.960 . S
C520 H507 0.961 . S
C520 H508 0.959 . S
C520 C518 1.561 . S
C521 C518 1.526 . S
C521 C522 1.396 . S
C521 C526 1.390 . S
C522 C516 1.465 . S
C522 C521 1.396 . S
C522 C523 1.340 1_556 S
C523 H509 0.977 . S
C523 C522 1.340 1_554 S
C523 C524 1.398 . S
C524 H510 0.931 . S
C524 C523 1.398 . S
C524 C525 1.389 1_554 S
C525 C524 1.389 1_556 S
C525 C526 1.387 . S
C526 H511 0.930 . S
C526 C521 1.390 . S
C526 C525 1.387 . S
H527 C539 0.930 . S
H528 C541 0.930 . S
H529 C542 0.930 . S
H530 C546 0.959 . S
H531 C546 0.959 . S
H532 C546 0.961 . S
H533 C547 0.960 . S
H534 C547 0.961 . S
H535 C547 0.959 . S
H536 C550 0.929 . S
H537 C551 0.931 . S
H538 C553 0.930 . S
C539 H527 0.930 . S
C539 C540 1.399 . S
C539 C544 1.399 . S
C540 C539 1.399 . S
C540 C541 1.376 . S
C541 H528 0.930 . S
C541 C540 1.376 . S
C541 C542 1.388 . S
C542 H529 0.930 . S
C542 C541 1.388 . S
C542 C543 1.390 . S
C543 C542 1.390 . S
C543 C544 1.394 . S
C543 C549 1.465 . S
C544 C539 1.399 . S
C544 C543 1.394 . S
C544 C545 1.516 . S
C545 C544 1.516 . S
C545 C546 1.502 . S
C545 C547 1.561 . S
C545 C548 1.526 . S
C546 H530 0.959 . S
C546 H531 0.959 . S
C546 H532 0.961 . S
C546 C545 1.502 . S
C547 H533 0.960 . S
C547 H534 0.961 . S
C547 H535 0.959 . S
C547 C545 1.561 . S
C548 C545 1.526 . S
C548 C549 1.396 . S
C548 C553 1.390 . S
C549 C543 1.465 . S
C549 C548 1.396 . S
C549 C550 1.399 . S
C550 H536 0.929 . S
C550 C549 1.399 . S
C550 C551 1.385 . S
C551 H537 0.931 . S
C551 C550 1.385 . S
C551 C552 1.389 . S
C552 C551 1.389 . S
C552 C553 1.387 . S
C553 H538 0.930 . S
C553 C548 1.390 . S
C553 C552 1.387 . S
H554 C566 0.930 . S
H555 C568 0.930 . S
H556 C569 0.930 . S
H557 C573 0.977 . S
H558 C573 0.971 . S
H559 C573 0.944 1_545 S
H560 C574 0.960 . S
H561 C574 0.961 . S
H562 C574 0.959 . S
H563 C577 0.929 . S
H564 C578 0.931 . S
H565 C580 0.930 . S
C566 H554 0.930 . S
C566 C567 1.399 . S
C566 C571 1.399 . S
C567 C566 1.399 . S
C567 C568 1.376 . S
C568 H555 0.930 . S
C568 C567 1.376 . S
C568 C569 1.388 . S
C569 H556 0.930 . S
C569 C568 1.388 . S
C569 C570 1.390 . S
C570 C569 1.390 . S
C570 C571 1.394 . S
C570 C576 1.465 1_545 S
C571 C566 1.399 . S
C571 C570 1.394 . S
C571 C572 1.516 . S
C572 C571 1.516 . S
C572 C573 1.491 1_545 S
C572 C574 1.561 . S
C572 C575 1.526 1_545 S
C573 H557 0.977 . S
C573 H558 0.971 . S
C573 H559 0.944 1_565 S
C573 C572 1.491 1_565 S
C574 H560 0.960 . S
C574 H561 0.961 . S
C574 H562 0.959 . S
C574 C572 1.561 . S
C575 C572 1.526 1_565 S
C575 C576 1.396 . S
C575 C580 1.390 . S
C576 C570 1.465 1_565 S
C576 C575 1.396 . S
C576 C577 1.399 . S
C577 H563 0.929 . S
C577 C576 1.399 . S
C577 C578 1.385 . S
C578 H564 0.931 . S
C578 C577 1.385 . S
C578 C579 1.389 . S
C579 C578 1.389 . S
C579 C580 1.387 . S
C580 H565 0.930 . S
C580 C575 1.390 . S
C580 C579 1.387 . S
H581 C593 0.930 . S
H582 C595 0.930 . S
H583 C596 0.930 . S
H584 C600 0.959 . S
H585 C600 0.959 . S
H586 C600 0.961 . S
H587 C601 0.960 . S
H588 C601 0.961 . S
H589 C601 0.959 . S
H590 C604 0.929 . S
H591 C605 0.931 . S
H592 C607 0.930 . S
C593 H581 0.930 . S
C593 C594 1.399 . S
C593 C598 1.399 . S
C594 C593 1.399 . S
C594 C595 1.376 . S
C595 H582 0.930 . S
C595 C594 1.376 . S
C595 C596 1.388 . S
C596 H583 0.930 . S
C596 C595 1.388 . S
C596 C597 1.390 . S
C597 C596 1.390 . S
C597 C598 1.394 . S
C597 C603 1.465 . S
C598 C593 1.399 . S
C598 C597 1.394 . S
C598 C599 1.516 . S
C599 C598 1.516 . S
C599 C600 1.502 . S
C599 C601 1.561 . S
C599 C602 1.526 . S
C600 H584 0.959 . S
C600 H585 0.959 . S
C600 H586 0.961 . S
C600 C599 1.502 . S
C601 H587 0.960 . S
C601 H588 0.961 . S
C601 H589 0.959 . S
C601 C599 1.561 . S
C602 C599 1.526 . S
C602 C603 1.396 . S
C602 C607 1.390 . S
C603 C597 1.465 . S
C603 C602 1.396 . S
C603 C604 1.399 . S
C604 H590 0.929 . S
C604 C603 1.399 . S
C604 C605 1.385 . S
C605 H591 0.931 . S
C605 C604 1.385 . S
C605 C606 1.389 . S
C606 C605 1.389 . S
C606 C607 1.387 . S
C607 H592 0.930 . S
C607 C602 1.390 . S
C607 C606 1.387 . S
H608 C620 0.930 . S
H609 C622 0.930 . S
H610 C623 0.930 . S
H611 C627 0.959 . S
H612 C627 0.959 . S
H613 C627 0.961 . S
H614 C628 0.960 . S
H615 C628 0.961 . S
H616 C628 0.959 . S
H617 C631 0.929 . S
H618 C632 0.931 . S
H619 C634 0.930 . S
C620 H608 0.930 . S
C620 C621 1.399 . S
C620 C625 1.399 . S
C621 C620 1.399 . S
C621 C622 1.376 . S
C622 H609 0.930 . S
C622 C621 1.376 . S
C622 C623 1.388 . S
C623 H610 0.930 . S
C623 C622 1.388 . S
C623 C624 1.390 . S
C624 C623 1.390 . S
C624 C625 1.394 . S
C624 C630 1.465 . S
C625 C620 1.399 . S
C625 C624 1.394 . S
C625 C626 1.516 . S
C626 C625 1.516 . S
C626 C627 1.502 . S
C626 C628 1.561 . S
C626 C629 1.526 . S
C627 H611 0.959 . S
C627 H612 0.959 . S
C627 H613 0.961 . S
C627 C626 1.502 . S
C628 H614 0.960 . S
C628 H615 0.961 . S
C628 H616 0.959 . S
C628 C626 1.561 . S
C629 C626 1.526 . S
C629 C630 1.396 . S
C629 C634 1.390 . S
C630 C624 1.465 . S
C630 C629 1.396 . S
C630 C631 1.399 . S
C631 H617 0.929 . S
C631 C630 1.399 . S
C631 C632 1.385 . S
C632 H618 0.931 . S
C632 C631 1.385 . S
C632 C633 1.389 . S
C633 C632 1.389 . S
C633 C634 1.387 . S
C634 H619 0.930 . S
C634 C629 1.390 . S
C634 C633 1.387 . S
H635 C647 0.930 . S
H636 C649 0.930 . S
H637 C650 0.930 . S
H638 C654 0.959 . S
H639 C654 0.959 . S
H640 C654 0.961 . S
H641 C655 0.960 . S
H642 C655 0.961 . S
H643 C655 0.959 . S
H644 C658 0.929 . S
H645 C659 0.931 . S
H646 C661 0.930 . S
C647 H635 0.930 . S
C647 C648 1.399 . S
C647 C652 1.399 . S
C648 C647 1.399 . S
C648 C649 1.376 . S
C649 H636 0.930 . S
C649 C648 1.376 . S
C649 C650 1.388 . S
C650 H637 0.930 . S
C650 C649 1.388 . S
C650 C651 1.390 . S
C651 C650 1.390 . S
C651 C652 1.394 . S
C651 C657 1.465 . S
C652 C647 1.399 . S
C652 C651 1.394 . S
C652 C653 1.516 . S
C653 C652 1.516 . S
C653 C654 1.502 . S
C653 C655 1.561 . S
C653 C656 1.526 . S
C654 H638 0.959 . S
C654 H639 0.959 . S
C654 H640 0.961 . S
C654 C653 1.502 . S
C655 H641 0.960 . S
C655 H642 0.961 . S
C655 H643 0.959 . S
C655 C653 1.561 . S
C656 C653 1.526 . S
C656 C657 1.396 . S
C656 C661 1.390 . S
C657 C651 1.465 . S
C657 C656 1.396 . S
C657 C658 1.399 . S
C658 H644 0.929 . S
C658 C657 1.399 . S
C658 C659 1.385 . S
C659 H645 0.931 . S
C659 C658 1.385 . S
C659 C660 1.389 . S
C660 C659 1.389 . S
C660 C661 1.387 . S
C661 H646 0.930 . S
C661 C656 1.390 . S
C661 C660 1.387 . S
H662 C674 0.930 . S
H663 C676 0.930 . S
H664 C677 0.930 . S
H665 C681 0.959 . S
H666 C681 0.959 . S
H667 C681 0.961 . S
H668 C682 0.960 . S
H669 C682 0.961 . S
H670 C682 0.959 . S
H671 C685 0.929 . S
H672 C686 0.931 . S
H673 C688 0.930 . S
C674 H662 0.930 . S
C674 C675 1.399 . S
C674 C679 1.399 . S
C675 C674 1.399 . S
C675 C676 1.376 . S
C676 H663 0.930 . S
C676 C675 1.376 . S
C676 C677 1.388 . S
C677 H664 0.930 . S
C677 C676 1.388 . S
C677 C678 1.390 . S
C678 C677 1.390 . S
C678 C679 1.394 . S
C678 C684 1.465 . S
C679 C674 1.399 . S
C679 C678 1.394 . S
C679 C680 1.516 . S
C680 C679 1.516 . S
C680 C681 1.502 . S
C680 C682 1.561 . S
C680 C683 1.526 . S
C681 H665 0.959 . S
C681 H666 0.959 . S
C681 H667 0.961 . S
C681 C680 1.502 . S
C682 H668 0.960 . S
C682 H669 0.961 . S
C682 H670 0.959 . S
C682 C680 1.561 . S
C683 C680 1.526 . S
C683 C684 1.396 . S
C683 C688 1.390 . S
C684 C678 1.465 . S
C684 C683 1.396 . S
C684 C685 1.399 . S
C685 H671 0.929 . S
C685 C684 1.399 . S
C685 C686 1.385 . S
C686 H672 0.931 . S
C686 C685 1.385 . S
C686 C687 1.389 . S
C687 C686 1.389 . S
C687 C688 1.387 . S
C688 H673 0.930 . S
C688 C683 1.390 . S
C688 C687 1.387 . S
H689 C701 0.930 . S
H690 C703 0.930 . S
H691 C704 0.930 1_655 S
H692 C708 0.959 . S
H693 C708 0.959 . S
H694 C708 0.961 . S
H695 C709 0.960 . S
H696 C709 0.961 . S
H697 C709 0.959 . S
H698 C712 0.929 . S
H699 C713 0.931 . S
H700 C715 0.930 . S
C701 H689 0.930 . S
C701 C702 1.399 . S
C701 C706 1.399 . S
C702 C701 1.399 . S
C702 C703 1.376 . S
C703 H690 0.930 . S
C703 C702 1.376 . S
C703 C704 1.388 . S
C704 H691 0.930 1_455 S
C704 C703 1.388 . S
C704 C705 1.390 . S
C705 C704 1.390 . S
C705 C706 1.394 . S
C705 C711 1.465 1_455 S
C706 C701 1.399 . S
C706 C705 1.394 . S
C706 C707 1.516 . S
C707 C706 1.516 . S
C707 C708 1.502 . S
C707 C709 1.561 . S
C707 C710 1.526 1_455 S
C708 H692 0.959 . S
C708 H693 0.959 . S
C708 H694 0.961 . S
C708 C707 1.502 . S
C709 H695 0.960 . S
C709 H696 0.961 . S
C709 H697 0.959 . S
C709 C707 1.561 . S
C710 C707 1.526 1_655 S
C710 C711 1.396 . S
C710 C715 1.390 . S
C711 C705 1.465 1_655 S
C711 C710 1.396 . S
C711 C712 1.399 . S
C712 H698 0.929 . S
C712 C711 1.399 . S
C712 C713 1.385 . S
C713 H699 0.931 . S
C713 C712 1.385 . S
C713 C714 1.389 . S
C714 C713 1.389 . S
C714 C715 1.387 . S
C715 H700 0.930 . S
C715 C710 1.390 . S
C715 C714 1.387 . S
H716 C728 0.930 . S
H717 C730 0.930 . S
H718 C731 0.930 . S
H719 C735 0.959 . S
H720 C735 0.959 . S
H721 C735 0.961 . S
H722 C736 0.960 . S
H723 C736 0.961 . S
H724 C736 0.959 . S
H725 C739 0.929 . S
H726 C740 0.931 . S
H727 C742 0.930 . S
C728 H716 0.930 . S
C728 C729 1.399 . S
C728 C733 1.399 . S
C729 C728 1.399 . S
C729 C730 1.376 . S
C730 H717 0.930 . S
C730 C729 1.376 . S
C730 C731 1.388 . S
C731 H718 0.930 . S
C731 C730 1.388 . S
C731 C732 1.390 . S
C732 C731 1.390 . S
C732 C733 1.394 . S
C732 C738 1.465 . S
C733 C728 1.399 . S
C733 C732 1.394 . S
C733 C734 1.516 . S
C734 C733 1.516 . S
C734 C735 1.502 . S
C734 C736 1.561 . S
C734 C737 1.526 . S
C735 H719 0.959 . S
C735 H720 0.959 . S
C735 H721 0.961 . S
C735 C734 1.502 . S
C736 H722 0.960 . S
C736 H723 0.961 . S
C736 H724 0.959 . S
C736 C734 1.561 . S
C737 C734 1.526 . S
C737 C738 1.396 . S
C737 C742 1.390 . S
C738 C732 1.465 . S
C738 C737 1.396 . S
C738 C739 1.399 . S
C739 H725 0.929 . S
C739 C738 1.399 . S
C739 C740 1.385 . S
C740 H726 0.931 . S
C740 C739 1.385 . S
C740 C741 1.389 . S
C741 C740 1.389 . S
C741 C742 1.387 . S
C742 H727 0.930 . S
C742 C737 1.390 . S
C742 C741 1.387 . S
H743 C755 0.930 . S
H744 C757 0.930 1_455 S
H745 C758 0.932 . S
H746 C762 0.959 . S
H747 C762 0.959 . S
H748 C762 0.961 . S
H749 C763 0.960 . S
H750 C763 0.961 . S
H751 C763 0.959 1_455 S
H752 C766 0.929 . S
H753 C767 0.931 . S
H754 C769 0.930 . S
C755 H743 0.930 . S
C755 C756 1.399 . S
C755 C760 1.399 . S
C756 C755 1.399 . S
C756 C757 1.376 . S
C757 H744 0.930 1_655 S
C757 C756 1.376 . S
C757 C758 1.388 . S
C758 H745 0.932 . S
C758 C757 1.388 . S
C758 C759 1.390 . S
C759 C758 1.390 . S
C759 C760 1.394 . S
C759 C765 1.465 . S
C760 C755 1.399 . S
C760 C759 1.394 . S
C760 C761 1.516 . S
C761 C760 1.516 . S
C761 C762 1.502 . S
C761 C763 1.561 . S
C761 C764 1.526 . S
C762 H746 0.959 . S
C762 H747 0.959 . S
C762 H748 0.961 . S
C762 C761 1.502 . S
C763 H749 0.960 . S
C763 H750 0.961 . S
C763 H751 0.959 1_655 S
C763 C761 1.561 . S
C764 C761 1.526 . S
C764 C765 1.396 . S
C764 C769 1.390 . S
C765 C759 1.465 . S
C765 C764 1.396 . S
C765 C766 1.399 . S
C766 H752 0.929 . S
C766 C765 1.399 . S
C766 C767 1.385 . S
C767 H753 0.931 . S
C767 C766 1.385 . S
C767 C768 1.389 . S
C768 C767 1.389 . S
C768 C769 1.387 . S
C769 H754 0.930 . S
C769 C764 1.390 . S
C769 C768 1.387 . S
H770 C782 0.930 . S
H771 C784 0.930 . S
H772 C785 0.930 . S
H773 C789 0.959 . S
H774 C789 0.959 1_655 S
H775 C789 0.961 1_556 S
H776 C790 0.960 . S
H777 C790 0.961 . S
H778 C790 0.959 . S
H779 C793 0.929 . S
H780 C794 0.923 1_554 S
H781 C796 0.930 . S
C782 H770 0.930 . S
C782 C783 1.399 . S
C782 C787 1.399 . S
C783 C782 1.399 . S
C783 C784 1.376 . S
C784 H771 0.930 . S
C784 C783 1.376 . S
C784 C785 1.388 . S
C785 H772 0.930 . S
C785 C784 1.388 . S
C785 C786 1.390 . S
C786 C785 1.390 . S
C786 C787 1.394 . S
C786 C792 1.465 1_455 S
C787 C782 1.399 . S
C787 C786 1.394 . S
C787 C788 1.520 . S
C788 C787 1.520 . S
C788 C789 1.504 1_556 S
C788 C790 1.559 1_455 S
C788 C791 1.522 1_455 S
C789 H773 0.959 . S
C789 H774 0.959 1_455 S
C789 H775 0.961 1_554 S
C789 C788 1.504 1_554 S
C790 H776 0.960 . S
C790 H777 0.961 . S
C790 H778 0.959 . S
C790 C788 1.559 1_655 S
C791 C788 1.522 1_655 S
C791 C792 1.396 . S
C791 C796 1.390 1_556 S
C792 C786 1.465 1_655 S
C792 C791 1.396 . S
C792 C793 1.399 . S
C793 H779 0.929 . S
C793 C792 1.399 . S
C793 C794 1.409 . S
C794 H780 0.923 1_556 S
C794 C793 1.409 . S
C794 C795 1.375 1_556 S
C795 C794 1.375 1_554 S
C795 C796 1.387 . S
C796 H781 0.930 . S
C796 C791 1.390 1_554 S
C796 C795 1.387 . S
H797 C809 0.930 . S
H798 C811 0.930 . S
H799 C812 0.930 . S
H800 C816 0.959 . S
H801 C816 0.959 . S
H802 C816 0.961 . S
H803 C817 0.960 . S
H804 C817 0.961 . S
H805 C817 0.959 . S
H806 C820 0.929 . S
H807 C821 0.931 . S
H808 C823 0.930 . S
C809 H797 0.930 . S
C809 C810 1.399 . S
C809 C814 1.399 . S
C810 C809 1.399 . S
C810 C811 1.376 . S
C811 H798 0.930 . S
C811 C810 1.376 . S
C811 C812 1.388 . S
C812 H799 0.930 . S
C812 C811 1.388 . S
C812 C813 1.390 . S
C813 C812 1.390 . S
C813 C814 1.394 . S
C813 C819 1.465 . S
C814 C809 1.399 . S
C814 C813 1.394 . S
C814 C815 1.516 . S
C815 C814 1.516 . S
C815 C816 1.502 . S
C815 C817 1.561 . S
C815 C818 1.526 . S
C816 H800 0.959 . S
C816 H801 0.959 . S
C816 H802 0.961 . S
C816 C815 1.502 . S
C817 H803 0.960 . S
C817 H804 0.961 . S
C817 H805 0.959 . S
C817 C815 1.561 . S
C818 C815 1.526 . S
C818 C819 1.396 . S
C818 C823 1.390 . S
C819 C813 1.465 . S
C819 C818 1.396 . S
C819 C820 1.399 . S
C820 H806 0.929 . S
C820 C819 1.399 . S
C820 C821 1.385 . S
C821 H807 0.931 . S
C821 C820 1.385 . S
C821 C822 1.389 . S
C822 C821 1.389 . S
C822 C823 1.387 . S
C823 H808 0.930 . S
C823 C818 1.390 . S
C823 C822 1.387 . S
H824 C836 0.930 . S
H825 C838 0.930 . S
H826 C839 0.930 . S
H827 C843 0.959 . S
H828 C843 0.959 . S
H829 C843 0.961 1_545 S
H830 C844 0.960 1_545 S
H831 C844 0.961 . S
H832 C844 0.959 . S
H833 C847 0.929 . S
H834 C848 0.931 . S
H835 C850 0.930 . S
C836 H824 0.930 . S
C836 C837 1.399 . S
C836 C841 1.399 . S
C837 C836 1.399 . S
C837 C838 1.376 . S
C838 H825 0.930 . S
C838 C837 1.376 . S
C838 C839 1.388 . S
C839 H826 0.930 . S
C839 C838 1.388 . S
C839 C840 1.390 . S
C840 C839 1.390 . S
C840 C841 1.394 . S
C840 C846 1.465 . S
C841 C836 1.399 . S
C841 C840 1.394 . S
C841 C842 1.516 . S
C842 C841 1.516 . S
C842 C843 1.502 . S
C842 C844 1.561 . S
C842 C845 1.526 . S
C843 H827 0.959 . S
C843 H828 0.959 . S
C843 H829 0.961 1_565 S
C843 C842 1.502 . S
C844 H830 0.960 1_565 S
C844 H831 0.961 . S
C844 H832 0.959 . S
C844 C842 1.561 . S
C845 C842 1.526 . S
C845 C846 1.396 . S
C845 C850 1.390 . S
C846 C840 1.465 . S
C846 C845 1.396 . S
C846 C847 1.399 . S
C847 H833 0.929 . S
C847 C846 1.399 . S
C847 C848 1.385 . S
C848 H834 0.931 . S
C848 C847 1.385 . S
C848 C849 1.389 . S
C849 C848 1.389 . S
C849 C850 1.387 . S
C850 H835 0.930 . S
C850 C845 1.390 . S
C850 C849 1.387 . S
H851 C863 0.930 . S
H852 C865 0.930 . S
H853 C866 0.930 . S
H854 C870 0.959 . S
H855 C870 0.959 . S
H856 C870 0.961 . S
H857 C871 0.960 . S
H858 C871 0.961 . S
H859 C871 0.959 . S
H860 C874 0.929 . S
H861 C875 0.931 . S
H862 C877 0.930 . S
C863 H851 0.930 . S
C863 C864 1.399 . S
C863 C868 1.399 . S
C864 C863 1.399 . S
C864 C865 1.376 . S
C865 H852 0.930 . S
C865 C864 1.376 . S
C865 C866 1.388 . S
C866 H853 0.930 . S
C866 C865 1.388 . S
C866 C867 1.390 . S
C867 C866 1.390 . S
C867 C868 1.394 . S
C867 C873 1.465 . S
C868 C863 1.399 . S
C868 C867 1.394 . S
C868 C869 1.516 . S
C869 C868 1.516 . S
C869 C870 1.502 . S
C869 C871 1.561 . S
C869 C872 1.526 . S
C870 H854 0.959 . S
C870 H855 0.959 . S
C870 H856 0.961 . S
C870 C869 1.502 . S
C871 H857 0.960 . S
C871 H858 0.961 . S
C871 H859 0.959 . S
C871 C869 1.561 . S
C872 C869 1.526 . S
C872 C873 1.396 . S
C872 C877 1.390 . S
C873 C867 1.465 . S
C873 C872 1.396 . S
C873 C874 1.399 . S
C874 H860 0.929 . S
C874 C873 1.399 . S
C874 C875 1.385 . S
C875 H861 0.931 . S
C875 C874 1.385 . S
C875 C876 1.389 . S
C876 C875 1.389 . S
C876 C877 1.387 . S
C877 H862 0.930 . S
C877 C872 1.390 . S
C877 C876 1.387 . S
H878 C890 0.930 . S
H879 C892 0.930 . S
H880 C893 0.930 . S
H881 C897 0.959 . S
H882 C897 0.959 . S
H883 C897 0.961 . S
H884 C898 0.960 . S
H885 C898 0.961 . S
H886 C898 0.959 . S
H887 C901 0.929 . S
H888 C902 0.931 . S
H889 C904 0.930 . S
C890 H878 0.930 . S
C890 C891 1.399 . S
C890 C895 1.399 . S
C891 C890 1.399 . S
C891 C892 1.376 . S
C892 H879 0.930 . S
C892 C891 1.376 . S
C892 C893 1.388 . S
C893 H880 0.930 . S
C893 C892 1.388 . S
C893 C894 1.390 . S
C894 C893 1.390 . S
C894 C895 1.394 . S
C894 C900 1.465 . S
C895 C890 1.399 . S
C895 C894 1.394 . S
C895 C896 1.516 . S
C896 C895 1.516 . S
C896 C897 1.502 . S
C896 C898 1.561 . S
C896 C899 1.526 . S
C897 H881 0.959 . S
C897 H882 0.959 . S
C897 H883 0.961 . S
C897 C896 1.502 . S
C898 H884 0.960 . S
C898 H885 0.961 . S
C898 H886 0.959 . S
C898 C896 1.561 . S
C899 C896 1.526 . S
C899 C900 1.396 . S
C899 C904 1.390 . S
C900 C894 1.465 . S
C900 C899 1.396 . S
C900 C901 1.399 . S
C901 H887 0.929 . S
C901 C900 1.399 . S
C901 C902 1.385 . S
C902 H888 0.931 . S
C902 C901 1.385 . S
C902 C903 1.389 . S
C903 C902 1.389 . S
C903 C904 1.387 . S
C904 H889 0.930 . S
C904 C899 1.390 . S
C904 C903 1.387 . S
H905 C917 0.930 . S
H906 C919 0.930 . S
H907 C920 0.930 . S
H908 C924 0.959 . S
H909 C924 0.959 . S
H910 C924 0.961 . S
H911 C925 0.960 . S
H912 C925 0.961 . S
H913 C925 0.959 . S
H914 C928 0.929 . S
H915 C929 0.931 1_565 S
H916 C931 0.930 . S
C917 H905 0.930 . S
C917 C918 1.399 . S
C917 C922 1.399 . S
C918 C917 1.399 . S
C918 C919 1.376 . S
C919 H906 0.930 . S
C919 C918 1.376 . S
C919 C920 1.388 . S
C920 H907 0.930 . S
C920 C919 1.388 . S
C920 C921 1.390 . S
C921 C920 1.390 . S
C921 C922 1.394 . S
C921 C927 1.465 . S
C922 C917 1.399 . S
C922 C921 1.394 . S
C922 C923 1.516 . S
C923 C922 1.516 . S
C923 C924 1.502 . S
C923 C925 1.561 . S
C923 C926 1.526 . S
C924 H908 0.959 . S
C924 H909 0.959 . S
C924 H910 0.961 . S
C924 C923 1.502 . S
C925 H911 0.960 . S
C925 H912 0.961 . S
C925 H913 0.959 . S
C925 C923 1.561 . S
C926 C923 1.526 . S
C926 C927 1.396 . S
C926 C931 1.390 . S
C927 C921 1.465 . S
C927 C926 1.396 . S
C927 C928 1.399 . S
C928 H914 0.929 . S
C928 C927 1.399 . S
C928 C929 1.385 . S
C929 H915 0.931 1_545 S
C929 C928 1.385 . S
C929 C930 1.389 . S
C930 C929 1.389 . S
C930 C931 1.387 . S
C931 H916 0.930 . S
C931 C926 1.390 . S
C931 C930 1.387 . S
H932 C944 0.930 . S
H933 C946 0.930 . S
H934 C947 0.930 . S
H935 C951 0.959 . S
H936 C951 0.959 . S
H937 C951 0.961 . S
H938 C952 0.960 . S
H939 C952 0.961 . S
H940 C952 0.959 . S
H941 C955 0.929 . S
H942 C956 0.931 . S
H943 C958 0.930 . S
C944 H932 0.930 . S
C944 C945 1.399 . S
C944 C949 1.399 . S
C945 C944 1.399 . S
C945 C946 1.376 . S
C946 H933 0.930 . S
C946 C945 1.376 . S
C946 C947 1.388 . S
C947 H934 0.930 . S
C947 C946 1.388 . S
C947 C948 1.390 . S
C948 C947 1.390 . S
C948 C949 1.394 . S
C948 C954 1.465 . S
C949 C944 1.399 . S
C949 C948 1.394 . S
C949 C950 1.516 . S
C950 C949 1.516 . S
C950 C951 1.502 . S
C950 C952 1.561 . S
C950 C953 1.526 . S
C951 H935 0.959 . S
C951 H936 0.959 . S
C951 H937 0.961 . S
C951 C950 1.502 . S
C952 H938 0.960 . S
C952 H939 0.961 . S
C952 H940 0.959 . S
C952 C950 1.561 . S
C953 C950 1.526 . S
C953 C954 1.396 . S
C953 C958 1.390 . S
C954 C948 1.465 . S
C954 C953 1.396 . S
C954 C955 1.399 . S
C955 H941 0.929 . S
C955 C954 1.399 . S
C955 C956 1.385 . S
C956 H942 0.931 . S
C956 C955 1.385 . S
C956 C957 1.389 . S
C957 C956 1.389 . S
C957 C958 1.387 . S
C958 H943 0.930 . S
C958 C953 1.390 . S
C958 C957 1.387 . S
H959 C971 0.930 . S
H960 C973 0.930 . S
H961 C974 0.930 . S
H962 C978 0.959 . S
H963 C978 0.959 . S
H964 C978 0.961 . S
H965 C979 0.960 . S
H966 C979 0.961 . S
H967 C979 0.959 . S
H968 C982 0.929 . S
H969 C983 0.931 . S
H970 C985 0.930 . S
C971 H959 0.930 . S
C971 C972 1.399 . S
C971 C976 1.399 . S
C972 C971 1.399 . S
C972 C973 1.376 . S
C973 H960 0.930 . S
C973 C972 1.376 . S
C973 C974 1.388 . S
C974 H961 0.930 . S
C974 C973 1.388 . S
C974 C975 1.390 . S
C975 C974 1.390 . S
C975 C976 1.394 . S
C975 C981 1.465 . S
C976 C971 1.399 . S
C976 C975 1.394 . S
C976 C977 1.516 . S
C977 C976 1.516 . S
C977 C978 1.502 . S
C977 C979 1.561 . S
C977 C980 1.526 . S
C978 H962 0.959 . S
C978 H963 0.959 . S
C978 H964 0.961 . S
C978 C977 1.502 . S
C979 H965 0.960 . S
C979 H966 0.961 . S
C979 H967 0.959 . S
C979 C977 1.561 . S
C980 C977 1.526 . S
C980 C981 1.396 . S
C980 C985 1.390 . S
C981 C975 1.465 . S
C981 C980 1.396 . S
C981 C982 1.399 . S
C982 H968 0.929 . S
C982 C981 1.399 . S
C982 C983 1.385 . S
C983 H969 0.931 . S
C983 C982 1.385 . S
C983 C984 1.389 . S
C984 C983 1.389 . S
C984 C985 1.387 . S
C985 H970 0.930 . S
C985 C980 1.390 . S
C985 C984 1.387 . S
H986 C998 0.930 . S
H987 C1000 0.930 . S
H988 C1001 0.930 . S
H989 C1005 0.959 . S
H990 C1005 0.959 . S
H991 C1005 0.961 . S
H992 C1006 0.960 . S
H993 C1006 0.961 . S
H994 C1006 0.959 1_545 S
H995 C1009 0.929 . S
H996 C1010 0.931 . S
H997 C1012 0.930 . S
C998 H986 0.930 . S
C998 C999 1.399 . S
C998 C1003 1.399 . S
C999 C998 1.399 . S
C999 C1000 1.376 . S
C1000 H987 0.930 . S
C1000 C999 1.376 . S
C1000 C1001 1.388 . S
C1001 H988 0.930 . S
C1001 C1000 1.388 . S
C1001 C1002 1.390 . S
C1002 C1001 1.390 . S
C1002 C1003 1.394 . S
C1002 C1008 1.465 . S
C1003 C998 1.399 . S
C1003 C1002 1.394 . S
C1003 C1004 1.516 . S
C1004 C1003 1.516 . S
C1004 C1005 1.502 1_545 S
C1004 C1006 1.561 1_545 S
C1004 C1007 1.526 . S
C1005 H989 0.959 . S
C1005 H990 0.959 . S
C1005 H991 0.961 . S
C1005 C1004 1.502 1_565 S
C1006 H992 0.960 . S
C1006 H993 0.961 . S
C1006 H994 0.959 1_565 S
C1006 C1004 1.561 1_565 S
C1007 C1004 1.526 . S
C1007 C1008 1.396 . S
C1007 C1012 1.390 1_545 S
C1008 C1002 1.465 . S
C1008 C1007 1.396 . S
C1008 C1009 1.399 . S
C1009 H995 0.929 . S
C1009 C1008 1.399 . S
C1009 C1010 1.385 . S
C1010 H996 0.931 . S
C1010 C1009 1.385 . S
C1010 C1011 1.389 1_545 S
C1011 C1010 1.389 1_565 S
C1011 C1012 1.387 . S
C1012 H997 0.930 . S
C1012 C1007 1.390 1_565 S
C1012 C1011 1.387 . S
H1013 C1025 0.930 . S
H1014 C1027 0.930 . S
H1015 C1028 0.930 . S
H1016 C1032 0.959 . S
H1017 C1032 0.959 . S
H1018 C1032 0.961 . S
H1019 C1033 0.960 . S
H1020 C1033 0.961 . S
H1021 C1033 0.959 . S
H1022 C1036 0.929 . S
H1023 C1037 0.931 . S
H1024 C1039 0.930 . S
C1025 H1013 0.930 . S
C1025 C1026 1.399 . S
C1025 C1030 1.399 . S
C1026 C1025 1.399 . S
C1026 C1027 1.376 . S
C1027 H1014 0.930 . S
C1027 C1026 1.376 . S
C1027 C1028 1.388 . S
C1028 H1015 0.930 . S
C1028 C1027 1.388 . S
C1028 C1029 1.390 . S
C1029 C1028 1.390 . S
C1029 C1030 1.394 . S
C1029 C1035 1.465 . S
C1030 C1025 1.399 . S
C1030 C1029 1.394 . S
C1030 C1031 1.516 . S
C1031 C1030 1.516 . S
C1031 C1032 1.502 . S
C1031 C1033 1.561 . S
C1031 C1034 1.526 . S
C1032 H1016 0.959 . S
C1032 H1017 0.959 . S
C1032 H1018 0.961 . S
C1032 C1031 1.502 . S
C1033 H1019 0.960 . S
C1033 H1020 0.961 . S
C1033 H1021 0.959 . S
C1033 C1031 1.561 . S
C1034 C1031 1.526 . S
C1034 C1035 1.396 . S
C1034 C1039 1.390 . S
C1035 C1029 1.465 . S
C1035 C1034 1.396 . S
C1035 C1036 1.399 . S
C1036 H1022 0.929 . S
C1036 C1035 1.399 . S
C1036 C1037 1.385 . S
C1037 H1023 0.931 . S
C1037 C1036 1.385 . S
C1037 C1038 1.389 . S
C1038 C1037 1.389 . S
C1038 C1039 1.387 . S
C1039 H1024 0.930 . S
C1039 C1034 1.390 . S
C1039 C1038 1.387 . S
H1040 C1052 0.930 . S
H1041 C1054 0.930 . S
H1042 C1055 0.930 . S
H1043 C1059 0.959 . S
H1044 C1059 0.959 . S
H1045 C1059 0.961 . S
H1046 C1060 0.960 . S
H1047 C1060 0.961 . S
H1048 C1060 0.959 . S
H1049 C1063 0.929 . S
H1050 C1064 0.931 . S
H1051 C1066 0.930 . S
C1052 H1040 0.930 . S
C1052 C1053 1.399 . S
C1052 C1057 1.399 . S
C1053 C1052 1.399 . S
C1053 C1054 1.376 . S
C1054 H1041 0.930 . S
C1054 C1053 1.376 . S
C1054 C1055 1.388 . S
C1055 H1042 0.930 . S
C1055 C1054 1.388 . S
C1055 C1056 1.390 . S
C1056 C1055 1.390 . S
C1056 C1057 1.394 . S
C1056 C1062 1.465 . S
C1057 C1052 1.399 . S
C1057 C1056 1.394 . S
C1057 C1058 1.516 . S
C1058 C1057 1.516 . S
C1058 C1059 1.502 . S
C1058 C1060 1.561 . S
C1058 C1061 1.526 . S
C1059 H1043 0.959 . S
C1059 H1044 0.959 . S
C1059 H1045 0.961 . S
C1059 C1058 1.502 . S
C1060 H1046 0.960 . S
C1060 H1047 0.961 . S
C1060 H1048 0.959 . S
C1060 C1058 1.561 . S
C1061 C1058 1.526 . S
C1061 C1062 1.396 . S
C1061 C1066 1.390 . S
C1062 C1056 1.465 . S
C1062 C1061 1.396 . S
C1062 C1063 1.399 . S
C1063 H1049 0.929 . S
C1063 C1062 1.399 . S
C1063 C1064 1.385 . S
C1064 H1050 0.931 . S
C1064 C1063 1.385 . S
C1064 C1065 1.389 . S
C1065 C1064 1.389 . S
C1065 C1066 1.387 . S
C1066 H1051 0.930 . S
C1066 C1061 1.390 . S
C1066 C1065 1.387 . S
H1067 C1079 0.930 . S
H1068 C1081 0.930 . S
H1069 C1082 0.930 . S
H1070 C1086 0.959 . S
H1071 C1086 0.959 . S
H1072 C1086 0.961 . S
H1073 C1087 0.960 . S
H1074 C1087 0.961 . S
H1075 C1087 0.959 . S
H1076 C1090 0.929 . S
H1077 C1091 0.931 . S
H1078 C1093 0.930 . S
C1079 H1067 0.930 . S
C1079 C1080 1.399 . S
C1079 C1084 1.399 . S
C1080 C1079 1.399 . S
C1080 C1081 1.376 . S
C1081 H1068 0.930 . S
C1081 C1080 1.376 . S
C1081 C1082 1.388 . S
C1082 H1069 0.930 . S
C1082 C1081 1.388 . S
C1082 C1083 1.390 . S
C1083 C1082 1.390 . S
C1083 C1084 1.394 . S
C1083 C1089 1.465 . S
C1084 C1079 1.399 . S
C1084 C1083 1.394 . S
C1084 C1085 1.516 . S
C1085 C1084 1.516 . S
C1085 C1086 1.502 . S
C1085 C1087 1.561 . S
C1085 C1088 1.526 . S
C1086 H1070 0.959 . S
C1086 H1071 0.959 . S
C1086 H1072 0.961 . S
C1086 C1085 1.502 . S
C1087 H1073 0.960 . S
C1087 H1074 0.961 . S
C1087 H1075 0.959 . S
C1087 C1085 1.561 . S
C1088 C1085 1.526 . S
C1088 C1089 1.396 . S
C1088 C1093 1.390 . S
C1089 C1083 1.465 . S
C1089 C1088 1.396 . S
C1089 C1090 1.399 . S
C1090 H1076 0.929 . S
C1090 C1089 1.399 . S
C1090 C1091 1.385 . S
C1091 H1077 0.931 . S
C1091 C1090 1.385 . S
C1091 C1092 1.389 . S
C1092 C1091 1.389 . S
C1092 C1093 1.387 . S
C1093 H1078 0.930 . S
C1093 C1088 1.390 . S
C1093 C1092 1.387 . S
H1094 C1106 0.930 . S
H1095 C1108 0.930 . S
H1096 C1109 0.930 . S
H1097 C1113 0.959 . S
H1098 C1113 0.959 . S
H1099 C1113 0.961 . S
H1100 C1114 0.960 . S
H1101 C1114 0.961 . S
H1102 C1114 0.959 . S
H1103 C1117 0.929 . S
H1104 C1118 0.931 . S
H1105 C1120 0.930 . S
C1106 H1094 0.930 . S
C1106 C1107 1.399 . S
C1106 C1111 1.399 . S
C1107 C1106 1.399 . S
C1107 C1108 1.376 . S
C1108 H1095 0.930 . S
C1108 C1107 1.376 . S
C1108 C1109 1.388 . S
C1109 H1096 0.930 . S
C1109 C1108 1.388 . S
C1109 C1110 1.390 . S
C1110 C1109 1.390 . S
C1110 C1111 1.394 . S
C1110 C1116 1.465 . S
C1111 C1106 1.399 . S
C1111 C1110 1.394 . S
C1111 C1112 1.516 . S
C1112 C1111 1.516 . S
C1112 C1113 1.502 . S
C1112 C1114 1.561 . S
C1112 C1115 1.526 . S
C1113 H1097 0.959 . S
C1113 H1098 0.959 . S
C1113 H1099 0.961 . S
C1113 C1112 1.502 . S
C1114 H1100 0.960 . S
C1114 H1101 0.961 . S
C1114 H1102 0.959 . S
C1114 C1112 1.561 . S
C1115 C1112 1.526 . S
C1115 C1116 1.396 . S
C1115 C1120 1.390 . S
C1116 C1110 1.465 . S
C1116 C1115 1.396 . S
C1116 C1117 1.399 . S
C1117 H1103 0.929 . S
C1117 C1116 1.399 . S
C1117 C1118 1.385 . S
C1118 H1104 0.931 . S
C1118 C1117 1.385 . S
C1118 C1119 1.389 . S
C1119 C1118 1.389 . S
C1119 C1120 1.387 . S
C1120 H1105 0.930 . S
C1120 C1115 1.390 . S
C1120 C1119 1.387 . S
H1121 C1133 0.930 . S
H1122 C1135 0.930 . S
H1123 C1136 0.930 . S
H1124 C1140 0.959 1_655 S
H1125 C1140 0.959 1_655 S
H1126 C1140 0.961 . S
H1127 C1141 0.960 . S
H1128 C1141 0.961 . S
H1129 C1141 0.959 . S
H1130 C1144 0.929 . S
H1131 C1145 0.931 1_655 S
H1132 C1147 0.930 . S
C1133 H1121 0.930 . S
C1133 C1134 1.399 . S
C1133 C1138 1.399 . S
C1134 C1133 1.399 . S
C1134 C1135 1.376 . S
C1135 H1122 0.930 . S
C1135 C1134 1.376 . S
C1135 C1136 1.388 . S
C1136 H1123 0.930 . S
C1136 C1135 1.388 . S
C1136 C1137 1.390 . S
C1137 C1136 1.390 . S
C1137 C1138 1.394 . S
C1137 C1143 1.465 . S
C1138 C1133 1.399 . S
C1138 C1137 1.394 . S
C1138 C1139 1.516 . S
C1139 C1138 1.516 . S
C1139 C1140 1.502 . S
C1139 C1141 1.561 . S
C1139 C1142 1.526 . S
C1140 H1124 0.959 1_455 S
C1140 H1125 0.959 1_455 S
C1140 H1126 0.961 . S
C1140 C1139 1.502 . S
C1141 H1127 0.960 . S
C1141 H1128 0.961 . S
C1141 H1129 0.959 . S
C1141 C1139 1.561 . S
C1142 C1139 1.526 . S
C1142 C1143 1.396 . S
C1142 C1147 1.390 1_455 S
C1143 C1137 1.465 . S
C1143 C1142 1.396 . S
C1143 C1144 1.399 . S
C1144 H1130 0.929 . S
C1144 C1143 1.399 . S
C1144 C1145 1.385 . S
C1145 H1131 0.931 1_455 S
C1145 C1144 1.385 . S
C1145 C1146 1.389 1_455 S
C1146 C1145 1.389 1_655 S
C1146 C1147 1.387 . S
C1147 H1132 0.930 . S
C1147 C1142 1.390 1_655 S
C1147 C1146 1.387 . S
H1148 C1160 0.930 . S
H1149 C1162 0.930 . S
H1150 C1163 0.930 . S
H1151 C1167 0.959 . S
H1152 C1167 0.959 . S
H1153 C1167 0.961 . S
H1154 C1168 0.960 . S
H1155 C1168 0.961 . S
H1156 C1168 0.959 . S
H1157 C1171 0.929 . S
H1158 C1172 0.931 . S
H1159 C1174 0.930 . S
C1160 H1148 0.930 . S
C1160 C1161 1.399 . S
C1160 C1165 1.399 . S
C1161 C1160 1.399 . S
C1161 C1162 1.376 . S
C1162 H1149 0.930 . S
C1162 C1161 1.376 . S
C1162 C1163 1.388 . S
C1163 H1150 0.930 . S
C1163 C1162 1.388 . S
C1163 C1164 1.390 . S
C1164 C1163 1.390 . S
C1164 C1165 1.394 . S
C1164 C1170 1.465 . S
C1165 C1160 1.399 . S
C1165 C1164 1.394 . S
C1165 C1166 1.516 . S
C1166 C1165 1.516 . S
C1166 C1167 1.502 . S
C1166 C1168 1.561 . S
C1166 C1169 1.526 . S
C1167 H1151 0.959 . S
C1167 H1152 0.959 . S
C1167 H1153 0.961 . S
C1167 C1166 1.502 . S
C1168 H1154 0.960 . S
C1168 H1155 0.961 . S
C1168 H1156 0.959 . S
C1168 C1166 1.561 . S
C1169 C1166 1.526 . S
C1169 C1170 1.396 . S
C1169 C1174 1.390 . S
C1170 C1164 1.465 . S
C1170 C1169 1.396 . S
C1170 C1171 1.399 . S
C1171 H1157 0.929 . S
C1171 C1170 1.399 . S
C1171 C1172 1.385 . S
C1172 H1158 0.931 . S
C1172 C1171 1.385 . S
C1172 C1173 1.389 . S
C1173 C1172 1.389 . S
C1173 C1174 1.387 . S
C1174 H1159 0.930 . S
C1174 C1169 1.390 . S
C1174 C1173 1.387 . S
H1175 C1187 0.930 . S
H1176 C1189 0.930 . S
H1177 C1190 0.930 . S
H1178 C1194 0.959 . S
H1179 C1194 0.959 . S
H1180 C1194 0.961 . S
H1181 C1195 0.960 1_455 S
H1182 C1195 0.961 . S
H1183 C1195 0.959 . S
H1184 C1198 0.929 . S
H1185 C1199 0.931 . S
H1186 C1201 0.930 . S
C1187 H1175 0.930 . S
C1187 C1188 1.399 . S
C1187 C1192 1.399 . S
C1188 C1187 1.399 . S
C1188 C1189 1.376 . S
C1189 H1176 0.930 . S
C1189 C1188 1.376 . S
C1189 C1190 1.388 . S
C1190 H1177 0.930 . S
C1190 C1189 1.388 . S
C1190 C1191 1.390 . S
C1191 C1190 1.390 . S
C1191 C1192 1.394 . S
C1191 C1197 1.465 . S
C1192 C1187 1.399 . S
C1192 C1191 1.394 . S
C1192 C1193 1.516 . S
C1193 C1192 1.516 . S
C1193 C1194 1.502 . S
C1193 C1195 1.561 . S
C1193 C1196 1.526 . S
C1194 H1178 0.959 . S
C1194 H1179 0.959 . S
C1194 H1180 0.961 . S
C1194 C1193 1.502 . S
C1195 H1181 0.960 1_655 S
C1195 H1182 0.961 . S
C1195 H1183 0.959 . S
C1195 C1193 1.561 . S
C1196 C1193 1.526 . S
C1196 C1197 1.396 . S
C1196 C1201 1.390 . S
C1197 C1191 1.465 . S
C1197 C1196 1.396 . S
C1197 C1198 1.399 . S
C1198 H1184 0.929 . S
C1198 C1197 1.399 . S
C1198 C1199 1.385 . S
C1199 H1185 0.931 . S
C1199 C1198 1.385 . S
C1199 C1200 1.389 . S
C1200 C1199 1.389 . S
C1200 C1201 1.387 . S
C1201 H1186 0.930 . S
C1201 C1196 1.390 . S
C1201 C1200 1.387 . S
H1202 C1214 0.930 . S
H1203 C1216 0.930 . S
H1204 C1217 0.930 . S
H1205 C1221 0.959 . S
H1206 C1221 0.959 . S
H1207 C1221 0.961 . S
H1208 C1222 0.960 . S
H1209 C1222 0.961 . S
H1210 C1222 0.959 . S
H1211 C1225 0.929 . S
H1212 C1226 0.931 . S
H1213 C1228 0.949 . S
C1214 H1202 0.930 . S
C1214 C1215 1.399 . S
C1214 C1219 1.399 . S
C1215 C1214 1.399 . S
C1215 C1216 1.376 . S
C1216 H1203 0.930 . S
C1216 C1215 1.376 . S
C1216 C1217 1.388 . S
C1217 H1204 0.930 . S
C1217 C1216 1.388 . S
C1217 C1218 1.390 . S
C1218 C1217 1.390 . S
C1218 C1219 1.394 . S
C1218 C1224 1.465 . S
C1219 C1214 1.399 . S
C1219 C1218 1.394 . S
C1219 C1220 1.516 . S
C1220 C1219 1.516 . S
C1220 C1221 1.502 1_455 S
C1220 C1222 1.561 . S
C1220 C1223 1.526 . S
C1221 H1205 0.959 . S
C1221 H1206 0.959 . S
C1221 H1207 0.961 . S
C1221 C1220 1.502 1_655 S
C1222 H1208 0.960 . S
C1222 H1209 0.961 . S
C1222 H1210 0.959 . S
C1222 C1220 1.561 . S
C1223 C1220 1.526 . S
C1223 C1224 1.396 . S
C1223 C1228 1.372 1_455 S
C1224 C1218 1.465 . S
C1224 C1223 1.396 . S
C1224 C1225 1.399 . S
C1225 H1211 0.929 . S
C1225 C1224 1.399 . S
C1225 C1226 1.385 . S
C1226 H1212 0.931 . S
C1226 C1225 1.385 . S
C1226 C1227 1.401 . S
C1227 C1226 1.401 . S
C1227 C1228 1.385 1_455 S
C1228 H1213 0.949 . S
C1228 C1223 1.372 1_655 S
C1228 C1227 1.385 1_655 S
H1229 C1241 0.930 . S
H1230 C1243 0.930 . S
H1231 C1244 0.930 . S
H1232 C1248 0.959 . S
H1233 C1248 0.959 . S
H1234 C1248 0.961 . S
H1235 C1249 0.960 . S
H1236 C1249 0.961 . S
H1237 C1249 0.959 . S
H1238 C1252 0.929 . S
H1239 C1253 0.931 . S
H1240 C1255 0.930 . S
C1241 H1229 0.930 . S
C1241 C1242 1.399 . S
C1241 C1246 1.399 . S
C1242 C1241 1.399 . S
C1242 C1243 1.376 . S
C1243 H1230 0.930 . S
C1243 C1242 1.376 . S
C1243 C1244 1.388 . S
C1244 H1231 0.930 . S
C1244 C1243 1.388 . S
C1244 C1245 1.390 . S
C1245 C1244 1.390 . S
C1245 C1246 1.394 . S
C1245 C1251 1.465 . S
C1246 C1241 1.399 . S
C1246 C1245 1.394 . S
C1246 C1247 1.516 . S
C1247 C1246 1.516 . S
C1247 C1248 1.502 . S
C1247 C1249 1.561 . S
C1247 C1250 1.526 . S
C1248 H1232 0.959 . S
C1248 H1233 0.959 . S
C1248 H1234 0.961 . S
C1248 C1247 1.502 . S
C1249 H1235 0.960 . S
C1249 H1236 0.961 . S
C1249 H1237 0.959 . S
C1249 C1247 1.561 . S
C1250 C1247 1.526 . S
C1250 C1251 1.396 . S
C1250 C1255 1.390 . S
C1251 C1245 1.465 . S
C1251 C1250 1.396 . S
C1251 C1252 1.399 . S
C1252 H1238 0.929 . S
C1252 C1251 1.399 . S
C1252 C1253 1.385 . S
C1253 H1239 0.931 . S
C1253 C1252 1.385 . S
C1253 C1254 1.389 . S
C1254 C1253 1.389 . S
C1254 C1255 1.387 . S
C1255 H1240 0.930 . S
C1255 C1250 1.390 . S
C1255 C1254 1.387 . S
C417 C143 1.273 . S
C405 C5 1.279 . S
C444 C180 1.222 . S
C432 C18 1.260 . S
C471 C216 1.264 . S
C459 C31 1.293 . S
C486 C42 1.236 . S
C498 C107 1.284 . S
C513 C57 1.455 . S
C525 C108 1.476 . S
C540 C70 1.478 . S
C552 C144 1.418 . S
C579 C179 1.459 . S
C567 C81 1.458 . S
C606 C215 1.483 . S
C594 C96 1.450 . S
C621 C29 1.490 . S
C633 C287 1.478 . S
C660 C324 1.486 . S
C648 C44 1.424 . S
C675 C3 1.508 . S
C687 C360 1.477 . S
C714 C251 1.494 . S
C702 C16 1.479 . S
C729 C83 1.290 . S
C741 C252 1.255 . S
C756 C94 1.170 . S
C768 C288 1.222 . S
C795 C323 1.264 . S
C783 C55 1.229 . S
C810 C68 1.167 . S
C822 C359 1.255 . S
C849 C178 1.356 . S
C837 C1 1.327 . S
C876 C214 1.340 . S
C864 C14 1.305 . S
C891 C27 1.315 . S
C903 C118 1.148 . S
C918 C49 1.333 . S
C930 C154 1.263 1_545 S
C945 C53 1.532 . S
C957 C226 1.556 . S
C984 C106 1.697 . S
C972 C66 1.593 . S
C1011 C142 1.690 . S
C999 C88 1.703 . S
C1038 C190 1.505 . S
C1026 C92 1.596 . S
C1065 C322 1.701 . S
C1053 C36 1.690 . S
C1092 C358 1.685 . S
C1080 C40 1.580 . S
C1107 C10 1.657 . S
C1119 C262 1.459 . S
C1146 C298 1.537 . S
C1134 C23 1.642 . S
C1173 C370 1.229 . S
C1161 C79 1.276 . S
C1188 C101 1.309 . S
C1200 C250 1.337 . S
C1227 C286 1.346 1_455 S
C1215 C62 1.342 . S
C1254 C334 1.189 . S
C1242 C75 1.287 . S
