# Generated by pormake.
# Topology rtl, (3,6)-cn, num edge types: 1
# Building blocks:
#     Node 0, Type 0, BuildingBlock: WUSLED_clean_sbu_0, # of connection points: 3
#     Node 1, Type 0, BuildingBlock: WUSLED_clean_sbu_0, # of connection points: 3
#     Node 2, Type 0, BuildingBlock: WUSLED_clean_sbu_0, # of connection points: 3
#     Node 3, Type 0, BuildingBlock: WUSLED_clean_sbu_0, # of connection points: 3
#     Node 4, Type 1, BuildingBlock: CIFDUS_clean_sbu_1, # of connection points: 6
#     Node 5, Type 1, BuildingBlock: CIFDUS_clean_sbu_1, # of connection points: 6
#     Edge 6, Type (0, 1), BuildingBlock: FUNLAD_clean_linker_0, # of connection points: 2
#     Edge 7, Type (0, 1), BuildingBlock: FUNLAD_clean_linker_0, # of connection points: 2
#     Edge 8, Type (0, 1), BuildingBlock: FUNLAD_clean_linker_0, # of connection points: 2
#     Edge 9, Type (0, 1), BuildingBlock: FUNLAD_clean_linker_0, # of connection points: 2
#     Edge 10, Type (0, 1), BuildingBlock: FUNLAD_clean_linker_0, # of connection points: 2
#     Edge 11, Type (0, 1), BuildingBlock: FUNLAD_clean_linker_0, # of connection points: 2
#     Edge 12, Type (0, 1), BuildingBlock: FUNLAD_clean_linker_0, # of connection points: 2
#     Edge 13, Type (0, 1), BuildingBlock: FUNLAD_clean_linker_0, # of connection points: 2
#     Edge 14, Type (0, 1), BuildingBlock: FUNLAD_clean_linker_0, # of connection points: 2
#     Edge 15, Type (0, 1), BuildingBlock: FUNLAD_clean_linker_0, # of connection points: 2
#     Edge 16, Type (0, 1), BuildingBlock: FUNLAD_clean_linker_0, # of connection points: 2
#     Edge 17, Type (0, 1), BuildingBlock: FUNLAD_clean_linker_0, # of connection points: 2
# Relax obj value: 0.026
# Max RMSD: 0.062
# Mean RMSD: 0.045
data_MOF--net-rtl--node1-WUSLED_clean_sbu_0--node2-CIFDUS_clean_sbu_1--edge1-FUNLAD_clean_linker_0
_symmetry_space_group_name_H-M    P1
_symmetry_Int_Tables_number       1
_symmetry_cell_setting            triclinic
loop_
_symmetry_equiv_pos_as_xyz
'x, y, z'
_cell_length_a     45.241885
_cell_length_b     49.47597
_cell_length_c     34.750458
_cell_angle_alpha  90.243215
_cell_angle_beta   97.897165
_cell_angle_gamma 89.885765
loop_
_atom_site_label
_atom_site_type_symbol
_atom_site_fract_x
_atom_site_fract_y
_atom_site_fract_z
_atom_type_partial_charge
C0 C 0.22674 0.90059 0.20854 0.0
C1 C 0.19784 0.9116 0.20446 0.0
C2 C 0.2071 0.92991 0.27039 0.0
C3 C 0.1881 0.9261 0.23511 0.0
C4 C 0.23644 0.91982 0.27355 0.0
C5 C 0.2461 0.90528 0.24298 0.0
U6 U 0.22772 0.87631 0.10279 0.0
O7 O 0.26541 0.86085 0.07532 0.0
O8 O 0.22719 0.83452 0.08055 0.0
C9 C 0.25428 0.8363 0.07117 0.0
C10 C 0.23661 0.88272 0.17863 0.0
C11 C 0.27469 0.81391 0.08458 0.0
C12 C 0.31516 0.79475 0.12975 0.0
C13 C 0.29539 0.81605 0.11851 0.0
C14 C 0.2932 0.7687 0.07393 0.0
C15 C 0.31441 0.77085 0.10745 0.0
C16 C 0.27361 0.79002 0.06263 0.0
C17 C 0.18118 0.91328 0.01747 0.0
C18 C 0.18748 0.9098 0.94916 0.0
C19 C 0.14413 0.93255 0.96775 0.0
C20 C 0.15429 0.92716 1.00683 0.0
C21 C 0.16073 0.92421 0.93839 0.0
C22 C 0.19757 0.90432 0.98834 0.0
C23 C 0.19209 0.90936 0.05909 0.0
O24 O 0.21628 0.86646 0.16051 0.0
O25 O 0.25381 0.89366 0.15543 0.0
O26 O 0.22058 0.91421 0.07002 0.0
O27 O 0.18259 0.88759 0.07512 0.0
H28 H 0.18251 0.9083 0.17805 0.0
H29 H 0.1653 0.93335 0.23171 0.0
H30 H 0.25185 0.92275 0.29997 0.0
H31 H 0.26853 0.89708 0.24665 0.0
H32 H 0.33101 0.79697 0.15589 0.0
H33 H 0.29644 0.83424 0.1361 0.0
H34 H 0.29227 0.75081 0.05575 0.0
H35 H 0.25781 0.78797 0.03637 0.0
H36 H 0.20066 0.90282 0.92731 0.0
H37 H 0.1237 0.94401 0.96068 0.0
H38 H 0.14136 0.9343 0.02888 0.0
H39 H 0.21834 0.89343 0.99591 0.0
C40 C 0.72212 0.6877 0.71293 0.0
C41 C 0.69888 0.66885 0.70525 0.0
C42 C 0.69967 0.66128 0.77479 0.0
C43 C 0.68778 0.65568 0.73595 0.0
C44 C 0.72353 0.67963 0.78206 0.0
C45 C 0.7346 0.69269 0.75144 0.0
U46 U 0.72446 0.70457 0.60523 0.0
O47 O 0.72696 0.74436 0.57786 0.0
O48 O 0.76326 0.71506 0.57621 0.0
C49 C 0.7539 0.73993 0.569 0.0
C50 C 0.73311 0.70307 0.68159 0.0
C51 C 0.77615 0.76143 0.57976 0.0
C52 C 0.79837 0.79664 0.62373 0.0
C53 C 0.77724 0.77603 0.61472 0.0
C54 C 0.81776 0.78797 0.56329 0.0
C55 C 0.81896 0.80281 0.59813 0.0
C56 C 0.79659 0.76755 0.55424 0.0
C57 C 0.67495 0.6627 0.5261 0.0
C58 C 0.65602 0.67345 0.45877 0.0
C59 C 0.65424 0.6274 0.48161 0.0
C60 C 0.66758 0.63555 0.51845 0.0
C61 C 0.64778 0.64627 0.45141 0.0
C62 C 0.66945 0.68163 0.49587 0.0
C63 C 0.68698 0.67047 0.56631 0.0
O64 O 0.7496 0.68957 0.65977 0.0
O65 O 0.71358 0.71909 0.66153 0.0
O66 O 0.6789 0.69415 0.57874 0.0
O67 O 0.7152 0.66473 0.57763 0.0
H68 H 0.68898 0.66473 0.67562 0.0
H69 H 0.66924 0.64184 0.72935 0.0
H70 H 0.7335 0.68412 0.81153 0.0
H71 H 0.75266 0.70707 0.75791 0.0
H72 H 0.79885 0.8075 0.65094 0.0
H73 H 0.76177 0.77154 0.635 0.0
H74 H 0.83294 0.79241 0.54262 0.0
H75 H 0.79609 0.75659 0.52709 0.0
H76 H 0.65134 0.68851 0.43621 0.0
H77 H 0.64888 0.60622 0.47686 0.0
H78 H 0.67175 0.62059 0.54126 0.0
H79 H 0.67503 0.70273 0.50109 0.0
C80 C 0.8055 0.19978 0.12291 0.0
C81 C 0.83239 0.18544 0.12349 0.0
C82 C 0.83226 0.17445 0.19191 0.0
C83 C 0.84571 0.17298 0.15773 0.0
C84 C 0.80524 0.18874 0.19099 0.0
C85 C 0.79206 0.20129 0.15688 0.0
U86 U 0.78839 0.20805 1.01192 0.0
O87 O 0.7466 0.22017 0.97601 0.0
O88 O 0.78665 0.24516 0.9769 0.0
C89 C 0.75792 0.24284 0.96494 0.0
C90 C 0.79129 0.2137 0.08762 0.0
C91 C 0.73997 0.26736 0.96854 0.0
C92 C 0.71604 0.29955 1.00744 0.0
C93 C 0.73301 0.27607 1.0047 0.0
C94 C 0.7128 0.30584 0.93791 0.0
C95 C 0.70575 0.3148 0.97406 0.0
C96 C 0.72974 0.28237 0.93523 0.0
C97 C 0.82095 0.15824 0.94401 0.0
C98 C 0.81499 0.16389 0.8739 0.0
C99 C 0.84464 0.1268 0.90376 0.0
C100 C 0.83853 0.13527 0.94033 0.0
C101 C 0.83329 0.14121 0.87008 0.0
C102 C 0.80889 0.17233 0.91054 0.0
C103 C 0.81643 0.16778 0.98297 0.0
O104 O 0.80939 0.22603 0.06689 0.0
O105 O 0.76976 0.20045 0.06629 0.0
O106 O 0.78911 0.16585 0.99155 0.0
O107 O 0.82923 0.19092 0.99383 0.0
H108 H 0.84309 0.18389 0.09753 0.0
H109 H 0.86629 0.16184 0.15728 0.0
H110 H 0.79443 0.19051 0.21683 0.0
H111 H 0.77137 0.21232 0.15707 0.0
H112 H 0.71072 0.30559 0.03568 0.0
H113 H 0.74068 0.26469 0.03076 0.0
H114 H 0.70566 0.3172 0.9117 0.0
H115 H 0.73499 0.27599 0.90707 0.0
H116 H 0.80557 0.17527 0.84858 0.0
H117 H 0.85913 0.10952 0.90207 0.0
H118 H 0.84809 0.12419 0.96589 0.0
H119 H 0.79518 0.19009 0.91283 0.0
C120 C 0.2907 0.39802 0.39549 0.0
C121 C 0.30405 0.42293 0.40671 0.0
C122 C 0.31309 0.43127 0.34005 0.0
C123 C 0.31507 0.43943 0.37925 0.0
C124 C 0.29947 0.40631 0.32909 0.0
C125 C 0.2884 0.38991 0.35652 0.0
U126 U 0.28652 0.37599 0.50014 0.0
O127 O 0.24838 0.36079 0.52688 0.0
O128 O 0.28792 0.33525 0.5254 0.0
C129 C 0.26072 0.33698 0.53443 0.0
C130 C 0.27964 0.38 0.42402 0.0
C131 C 0.24154 0.3132 0.5247 0.0
C132 C 0.21354 0.28256 0.47821 0.0
C133 C 0.23071 0.30608 0.48616 0.0
C134 C 0.21778 0.2734 0.54717 0.0
C135 C 0.20724 0.26574 0.50869 0.0
C136 C 0.23472 0.29684 0.55502 0.0
C137 C 0.33091 0.41603 0.58433 0.0
C138 C 0.32378 0.41468 0.65248 0.0
C139 C 0.3682 0.43528 0.63392 0.0
C140 C 0.35821 0.42923 0.59494 0.0
C141 C 0.35102 0.42829 0.6632 0.0
C142 C 0.31386 0.40852 0.61341 0.0
C143 C 0.32059 0.41089 0.54278 0.0
O144 O 0.2999 0.36448 0.44373 0.0
O145 O 0.2612 0.39095 0.44576 0.0
O146 O 0.29207 0.41498 0.53093 0.0
O147 O 0.33097 0.38886 0.52814 0.0
H148 H 0.30607 0.42954 0.43672 0.0
H149 H 0.32507 0.45861 0.38874 0.0
H150 H 0.29798 0.39908 0.29943 0.0
H151 H 0.27831 0.37067 0.34735 0.0
H152 H 0.20585 0.27719 0.44828 0.0
H153 H 0.23581 0.3185 0.46234 0.0
H154 H 0.21289 0.26125 0.57136 0.0
H155 H 0.24278 0.30205 0.58494 0.0
H156 H 0.31014 0.40876 0.6743 0.0
H157 H 0.38904 0.4461 0.64096 0.0
H158 H 0.37168 0.43523 0.57294 0.0
H159 H 0.2928 0.39812 0.60589 0.0
O160 O 0.98222 0.05825 0.50399 0.0
Mn161 Mn 0.00623 0.0402 0.55352 0.0
O162 O 0.96355 0.02433 0.46469 0.0
Mn163 Mn 0.98386 0.99665 0.49278 0.0
O164 O 0.03016 0.02217 0.60315 0.0
O165 O 0.02817 0.07543 0.5648 0.0
Mn166 Mn 0.02878 0.0838 0.61423 0.0
O167 O 0.97228 0.05194 0.58615 0.0
O168 O 0.04934 0.05611 0.64209 0.0
O169 O 0.04026 0.02841 0.52096 0.0
O170 O 0.02323 0.99206 0.48564 0.0
O171 O 0.04882 0.11126 0.59344 0.0
O172 O 0.98941 0.08821 0.62166 0.0
C173 C 0.96912 0.98312 0.54513 0.0
C174 C 0.96634 0.04945 0.47282 0.0
C175 C 0.04626 0.03098 0.63414 0.0
C176 C 0.04302 0.09744 0.56162 0.0
C177 C 0.96871 0.07163 0.60945 0.0
C178 C 0.04394 1.00865 0.4978 0.0
O179 O 0.98422 1.00502 0.54219 0.0
O180 O 0.96348 0.96931 0.51329 0.0
O181 O 0.52753 0.55427 0.1059 0.0
Mn182 Mn 0.50479 0.53834 0.05383 0.0
O183 O 0.54195 0.51858 0.14399 0.0
Mn184 Mn 0.5224 0.49212 0.11215 0.0
O185 O 0.48203 0.52224 1.00191 0.0
O186 O 0.48467 0.57435 0.04338 0.0
Mn187 Mn 0.48596 0.584 0.99493 0.0
O188 O 0.54069 0.54978 0.02458 0.0
O189 O 0.4652 0.55754 0.96441 0.0
O190 O 0.46875 0.52699 0.08291 0.0
O191 O 0.48213 0.48846 0.1149 0.0
O192 O 0.46619 0.61147 0.01683 0.0
O193 O 0.52598 0.58714 0.99024 0.0
C194 C 0.53969 0.48036 0.06029 0.0
C195 C 0.54102 0.544 0.13762 0.0
C196 C 0.46716 0.53217 0.97086 0.0
C197 C 0.47042 0.59657 0.0476 0.0
C198 C 0.54576 0.56977 1.00277 0.0
C199 C 0.46287 0.50645 0.10321 0.0
O200 O 0.52498 0.50235 0.06428 0.0
O201 O 0.54329 0.46517 0.09078 0.0
C202 C 0.16414 0.23869 0.4739 0.0
C203 C 0.19023 0.24003 0.50102 0.0
C204 C 0.14699 0.21494 0.46961 0.0
C205 C 0.15568 0.19197 0.49238 0.0
C206 C 0.18256 0.19309 0.51796 0.0
C207 C 0.19952 0.21672 0.5223 0.0
C208 C 0.13713 0.16698 0.4927 0.0
C209 C 0.10831 0.16463 0.47657 0.0
C210 C 0.08874 0.14237 0.4873 0.0
C211 C 0.05858 0.14814 0.48937 0.0
C212 C 0.04149 0.13077 0.50908 0.0
C213 C 0.05409 0.10709 0.52636 0.0
H214 H 0.12281 0.11118 0.49773 0.0
C215 C 0.0829 0.09953 0.51993 0.0
C216 C 0.10007 0.11692 0.50027 0.0
H217 H 0.09325 0.08156 0.53354 0.0
H218 H 0.15643 0.25628 0.45694 0.0
H219 H 0.12684 0.215 0.44893 0.0
H220 H 0.19015 0.17579 0.53566 0.0
H221 H 0.21985 0.21681 0.54281 0.0
H222 H 0.14697 0.15072 0.51109 0.0
H223 H 0.09743 0.18127 0.46004 0.0
H224 H 0.04904 0.16735 0.47915 0.0
H225 H 0.01949 0.13727 0.51431 0.0
C226 C 0.32787 0.72142 0.11368 0.0
C227 C 0.33648 0.74872 0.11778 0.0
C228 C 0.34916 0.7007 0.11935 0.0
C229 C 0.37966 0.7068 0.12931 0.0
C230 C 0.38805 0.73404 0.13476 0.0
C231 C 0.36677 0.75473 0.12928 0.0
C232 C 0.40359 0.68599 0.12931 0.0
C233 C 0.39944 0.65905 0.13231 0.0
C234 C 0.4215 0.63869 0.12188 0.0
C235 C 0.41094 0.61356 0.10672 0.0
C236 C 0.42905 0.59692 0.08702 0.0
C237 C 0.45804 0.6051 0.08258 0.0
H238 H 0.46144 0.66333 0.13506 0.0
C239 C 0.46987 0.62835 0.10208 0.0
C240 C 0.4519 0.64489 0.122 0.0
H241 H 0.49215 0.63513 0.09877 0.0
H242 H 0.30468 0.71608 0.10519 0.0
H243 H 0.34164 0.68012 0.11399 0.0
H244 H 0.41136 0.73943 0.14206 0.0
H245 H 0.37427 0.7755 0.13231 0.0
H246 H 0.42507 0.69347 0.1236 0.0
H247 H 0.37794 0.65154 0.13796 0.0
H248 H 0.38781 0.60795 0.1068 0.0
H249 H 0.4193 0.57927 0.07167 0.0
C250 C 0.83397 0.8497 0.62247 0.0
C251 C 0.8416 0.82463 0.60722 0.0
C252 C 0.85483 0.87084 0.62793 0.0
C253 C 0.88388 0.86731 0.61828 0.0
C254 C 0.89169 0.84182 0.60468 0.0
C255 C 0.87091 0.82084 0.59916 0.0
C256 C 0.9064 0.88953 0.61942 0.0
C257 C 0.90127 0.91598 0.62607 0.0
C258 C 0.92225 0.93764 0.61705 0.0
C259 C 0.91044 0.96256 0.60293 0.0
C260 C 0.92783 0.98042 0.58433 0.0
C261 C 0.95734 0.97374 0.58003 0.0
H262 H 0.96335 0.91452 0.62971 0.0
C263 C 0.9703 0.95068 0.59872 0.0
C264 C 0.95301 0.93287 0.61746 0.0
H265 H 0.99295 0.94496 0.59541 0.0
H266 H 0.81157 0.85331 0.62899 0.0
H267 H 0.84773 0.88986 0.639 0.0
H268 H 0.91387 0.83824 0.59727 0.0
H269 H 0.87777 0.80164 0.58815 0.0
H270 H 0.92763 0.88389 0.61045 0.0
H271 H 0.87968 0.92241 0.63292 0.0
H272 H 0.88698 0.96706 0.60281 0.0
H273 H 0.91719 0.99786 0.56954 0.0
C274 C 0.66378 0.34649 0.94855 0.0
C275 C 0.68799 0.34003 0.97701 0.0
C276 C 0.64691 0.37 0.95174 0.0
C277 C 0.65378 0.38763 0.98366 0.0
C278 C 0.67837 0.38139 1.01156 0.0
C279 C 0.69518 0.35795 1.00837 0.0
C280 C 0.63583 0.41227 0.99003 0.0
C281 C 0.60827 0.41769 0.97128 0.0
C282 C 0.58893 0.43917 0.98492 0.0
C283 C 0.55816 0.43431 0.98276 0.0
C284 C 0.54047 0.45058 1.00348 0.0
C285 C 0.55311 0.47237 0.02585 0.0
H286 H 0.62416 0.4678 1.00478 0.0
C287 C 0.58296 0.47926 0.02416 0.0
C288 C 0.60077 0.46285 1.00373 0.0
H289 H 0.59327 0.49576 0.04171 0.0
H290 H 0.65749 0.33312 0.92405 0.0
H291 H 0.62861 0.37408 0.92908 0.0
H292 H 0.68445 0.39457 0.03636 0.0
H293 H 0.71401 0.35398 0.03043 0.0
H294 H 0.64479 0.42528 1.01407 0.0
H295 H 0.59786 0.40392 0.94915 0.0
H296 H 0.54833 0.41646 0.96806 0.0
H297 H 0.51764 0.44458 1.00501 0.0
C298 C 0.17588 0.96459 0.30025 0.0
C299 C 0.19575 0.94255 0.30462 0.0
C300 C 0.16334 0.97476 0.33212 0.0
C301 C 0.17046 0.96308 0.36917 0.0
C302 C 0.19095 0.94159 0.37361 0.0
C303 C 0.20348 0.9315 0.34188 0.0
C304 C 0.15465 0.97038 0.4027 0.0
C305 C 0.13891 0.99334 0.40554 0.0
C306 C 0.1184 0.99727 0.4353 0.0
C307 C 0.10984 0.02354 0.44498 0.0
C308 C 0.08716 0.02755 0.46827 0.0
C309 C 0.07232 1.0053 0.48167 0.0
H310 H 0.10974 0.95454 0.44335 0.0
C311 C 0.08186 0.97912 0.47356 0.0
C312 C 0.10457 0.97511 0.45075 0.0
H313 H 0.07066 0.96159 0.48329 0.0
H314 H 0.1696 0.97372 0.27204 0.0
H315 H 0.14721 0.99096 0.32711 0.0
H316 H 0.19666 0.93197 0.40161 0.0
H317 H 0.21831 0.91425 0.34636 0.0
H318 H 0.15547 0.95554 0.42577 0.0
H319 H 0.14012 1.00948 0.38476 0.0
H320 H 0.11989 0.04099 0.43325 0.0
H321 H 0.07987 0.04794 0.47349 0.0
C322 C 0.67733 0.62219 0.80763 0.0
C323 C 0.6862 0.64946 0.80775 0.0
C324 C 0.66374 0.6117 0.83835 0.0
C325 C 0.65859 0.6284 0.86971 0.0
C326 C 0.66764 0.65553 0.86976 0.0
C327 C 0.68135 0.66589 0.83938 0.0
C328 C 0.64174 0.61936 0.90131 0.0
C329 C 0.63862 0.59344 0.91223 0.0
C330 C 0.61923 0.58561 0.94194 0.0
C331 C 0.60675 0.55952 0.9408 0.0
C332 C 0.58469 0.55307 0.96401 0.0
C333 C 0.57482 0.57268 0.98864 0.0
H334 H 0.6216 0.62388 0.97349 0.0
C335 C 0.58914 0.59784 0.99239 0.0
C336 C 0.61144 0.60411 0.96984 0.0
H337 H 0.58193 0.61324 1.01136 0.0
H338 H 0.6808 0.60898 0.78372 0.0
H339 H 0.65651 0.59085 0.83674 0.0
H340 H 0.66371 0.66896 0.89325 0.0
H341 H 0.68741 0.68707 0.8402 0.0
H342 H 0.6309 0.63533 0.91566 0.0
H343 H 0.64901 0.57734 0.89752 0.0
H344 H 0.61267 0.54465 0.9202 0.0
H345 H 0.57373 0.53359 0.96037 0.0
C346 C 0.87695 0.16177 0.24029 0.0
C347 C 0.84596 0.16079 0.22824 0.0
C348 C 0.88969 0.14858 0.27424 0.0
C349 C 0.87167 0.13402 0.29685 0.0
C350 C 0.84076 0.13307 0.28471 0.0
C351 C 0.82805 0.14637 0.25102 0.0
C352 C 0.88422 0.11786 0.33144 0.0
C353 C 0.91121 0.12205 0.35256 0.0
C354 C 0.92387 0.1038 0.38485 0.0
C355 C 0.94535 0.1136 0.41479 0.0
C356 C 0.95863 0.09633 0.44425 0.0
C357 C 0.951 0.06877 0.44396 0.0
H358 H 0.90044 0.06761 0.3619 0.0
C359 C 0.92937 0.05912 0.41409 0.0
C360 C 0.91609 0.0763 0.38496 0.0
H361 H 0.92293 0.03803 0.41271 0.0
H362 H 0.89137 0.17281 0.2235 0.0
H363 H 0.91366 0.14929 0.28197 0.0
H364 H 0.82634 0.12176 0.3012 0.0
H365 H 0.80418 0.14485 0.24235 0.0
H366 H 0.87009 0.10192 0.34015 0.0
H367 H 0.92437 0.13946 0.34656 0.0
H368 H 0.95203 0.13462 0.41524 0.0
H369 H 0.97537 0.10441 0.4666 0.0
C370 C 0.39126 0.43453 0.72043 0.0
C371 C 0.361 0.43626 0.7044 0.0
C372 C 0.40099 0.44414 0.75803 0.0
C373 C 0.38062 0.45572 0.78058 0.0
C374 C 0.35032 0.45683 0.76485 0.0
C375 C 0.34059 0.44712 0.72737 0.0
C376 C 0.3903 0.46917 0.81876 0.0
C377 C 0.41666 0.46471 0.84125 0.0
C378 C 0.42734 0.48129 0.87643 0.0
C379 C 0.44872 0.47064 0.90571 0.0
C380 C 0.46091 0.48667 0.93741 0.0
C381 C 0.45233 0.51388 0.94004 0.0
H382 H 0.40262 0.51768 0.85738 0.0
C383 C 0.43058 0.52432 0.91105 0.0
C384 C 0.41829 0.50833 0.87971 0.0
H385 H 0.4234 0.54519 0.91202 0.0
H386 H 0.40756 0.42609 0.70366 0.0
H387 H 0.42461 0.44337 0.76854 0.0
H388 H 0.33412 0.46584 0.78131 0.0
H389 H 0.3172 0.4491 0.71586 0.0
H390 H 0.37482 0.48364 0.82853 0.0
H391 H 0.43112 0.44854 0.8338 0.0
H392 H 0.45635 0.44997 0.90378 0.0
H393 H 0.47776 0.47804 0.95904 0.0
C394 C 0.64031 0.64655 0.37775 0.0
C395 C 0.63187 0.63733 0.41296 0.0
C396 C 0.62662 0.63616 0.34198 0.0
C397 C 0.60411 0.61641 0.3408 0.0
C398 C 0.59508 0.60802 0.37591 0.0
C399 C 0.6086 0.61839 0.4114 0.0
C400 C 0.59128 0.60209 0.3045 0.0
C401 C 0.59138 0.61125 0.26796 0.0
C402 C 0.57967 0.59437 0.23351 0.0
C403 C 0.56477 0.60633 0.19959 0.0
C404 C 0.55256 0.59024 0.16788 0.0
C405 C 0.55543 0.56191 0.16936 0.0
H406 H 0.59583 0.5563 0.25922 0.0
C407 C 0.57153 0.55024 0.20278 0.0
C408 C 0.58349 0.56619 0.23425 0.0
H409 H 0.57474 0.52859 0.205 0.0
H410 H 0.65827 0.661 0.3779 0.0
H411 H 0.63457 0.64283 0.31562 0.0
H412 H 0.57778 0.59291 0.376 0.0
H413 H 0.601 0.61126 0.43779 0.0
H414 H 0.5807 0.58276 0.30835 0.0
H415 H 0.59914 0.63153 0.2631 0.0
H416 H 0.56188 0.62805 0.19803 0.0
H417 H 0.54043 0.59997 0.14257 0.0
C418 C 0.84493 0.10637 0.82084 0.0
C419 C 0.84213 0.13364 0.83163 0.0
C420 C 0.85576 0.09947 0.78615 0.0
C421 C 0.86406 0.11976 0.76142 0.0
C422 C 0.86048 0.14693 0.77182 0.0
C423 C 0.84962 0.1538 0.80631 0.0
C424 C 0.87896 0.11394 0.72655 0.0
C425 C 0.87918 0.08978 0.70822 0.0
C426 C 0.89766 0.08454 0.67642 0.0
C427 C 0.90737 0.05804 0.66998 0.0
C428 C 0.92864 0.05315 0.6449 0.0
C429 C 0.94056 0.07476 0.62602 0.0
H430 H 0.89934 0.12607 0.65623 0.0
C431 C 0.92893 0.1008 0.6297 0.0
C432 C 0.9074 0.10561 0.65409 0.0
H433 H 0.93757 0.11775 0.61505 0.0
H434 H 0.83914 0.09031 0.83952 0.0
H435 H 0.85856 0.07829 0.77975 0.0
H436 H 0.86683 0.16304 0.75358 0.0
H437 H 0.84822 0.17498 0.81382 0.0
H438 H 0.89143 0.13062 0.71664 0.0
H439 H 0.86726 0.0728 0.71832 0.0
H440 H 0.89987 0.04131 0.68616 0.0
H441 H 0.9374 0.03289 0.64268 0.0
C442 C 0.31189 0.44994 0.27231 0.0
C443 C 0.32603 0.44814 0.31094 0.0
C444 C 0.32512 0.46417 0.24438 0.0
C445 C 0.35291 0.47695 0.2544 0.0
C446 C 0.36636 0.47614 0.29329 0.0
C447 C 0.35323 0.46182 0.32116 0.0
C448 C 0.3691 0.49046 0.22516 0.0
C449 C 0.36595 0.48321 0.18733 0.0
C450 C 0.38711 0.49203 0.16063 0.0
C451 C 0.39535 0.47328 0.1336 0.0
C452 C 0.41868 0.47894 0.11243 0.0
C453 C 0.43359 0.50384 0.11687 0.0
H454 H 0.39434 0.53284 0.18314 0.0
C455 C 0.42367 0.52363 0.14122 0.0
C456 C 0.4007 0.51771 0.16322 0.0
H457 H 0.43508 0.54287 0.1454 0.0
H458 H 0.29056 0.44027 0.26355 0.0
H459 H 0.3135 0.46506 0.21505 0.0
H460 H 0.38769 0.48588 0.30196 0.0
H461 H 0.36495 0.46076 0.35045 0.0
H462 H 0.38676 0.50449 0.2361 0.0
H463 H 0.35035 0.46729 0.17694 0.0
H464 H 0.38509 0.45347 0.13075 0.0
H465 H 0.42613 0.46331 0.09403 0.0
C466 C 0.12042 0.93122 0.88143 0.0
C467 C 0.15082 0.93175 0.89705 0.0
C468 C 0.11089 0.94062 0.84376 0.0
C469 C 0.13161 0.95076 0.8207 0.0
C470 C 0.16203 0.9506 0.836 0.0
C471 C 0.17155 0.94113 0.87356 0.0
C472 C 0.12237 0.96411 0.78246 0.0
C473 C 0.09546 0.96104 0.76061 0.0
C474 C 0.08536 0.97791 0.72568 0.0
C475 C 0.06246 0.96851 0.69724 0.0
C476 C 0.05058 0.98513 0.6662 0.0
C477 C 0.06104 1.0117 0.66342 0.0
H478 H 0.11333 1.01266 0.74369 0.0
C479 C 0.08443 1.02078 0.69135 0.0
C480 C 0.09638 1.00421 0.72202 0.0
H481 H 0.09307 0.04113 0.69018 0.0
H482 H 0.10386 0.92392 0.8986 0.0
H483 H 0.0872 0.94083 0.8336 0.0
H484 H 0.17852 0.95849 0.81916 0.0
H485 H 0.19508 0.94219 0.88472 0.0
H486 H 0.13864 0.9774 0.77217 0.0
H487 H 0.08002 0.94596 0.76857 0.0
H488 H 0.05332 0.94845 0.69947 0.0
H489 H 0.03243 0.97757 0.64539 0.0
loop_
_geom_bond_atom_site_label_1
_geom_bond_atom_site_label_2
_geom_bond_distance
_geom_bond_site_symmetry_2
_ccdc_geom_bond_type
C0 C1 1.264 . S
C0 C5 1.479 . S
C0 C10 1.465 . S
C1 C0 1.264 . S
C1 C3 1.339 . S
C1 H28 0.931 . S
C2 C3 1.395 . S
C2 C4 1.320 . S
C3 C1 1.339 . S
C3 C2 1.395 . S
C3 H29 0.929 . S
C4 C2 1.320 . S
C4 C5 1.405 . S
C4 H30 0.930 . S
C5 C0 1.479 . S
C5 C4 1.405 . S
C5 H31 0.931 . S
U6 O7 2.454 . S
U6 O8 2.458 . S
U6 C9 2.984 . S
U6 C10 2.847 . S
U6 C23 2.882 . S
U6 O24 2.441 . S
U6 O25 2.420 . S
U6 O26 2.455 . S
U6 O27 2.449 . S
O7 U6 2.454 . S
O7 C9 1.353 . S
O8 U6 2.458 . S
O8 C9 1.286 . S
C9 U6 2.984 . S
C9 O7 1.353 . S
C9 O8 1.286 . S
C9 C11 1.363 . S
C10 C0 1.465 . S
C10 U6 2.847 . S
C10 O24 1.249 . S
C10 O25 1.202 . S
C11 C9 1.363 . S
C11 C13 1.408 . S
C11 C16 1.342 . S
C12 C13 1.310 . S
C12 C15 1.461 . S
C12 H32 0.932 . S
C13 C11 1.408 . S
C13 C12 1.310 . S
C13 H33 0.930 . S
C14 C15 1.474 . S
C14 C16 1.285 . S
C14 H34 0.929 . S
C15 C12 1.461 . S
C15 C14 1.474 . S
C16 C11 1.342 . S
C16 C14 1.285 . S
C16 H35 0.930 . S
C17 C20 1.424 . S
C17 C22 1.245 . S
C17 C23 1.428 1_556 S
C18 C21 1.260 . S
C18 C22 1.477 . S
C18 H36 0.932 . S
C19 C20 1.384 . S
C19 C21 1.479 . S
C19 H37 0.929 . S
C20 C17 1.424 . S
C20 C19 1.384 . S
C20 H38 0.928 1_556 S
C21 C18 1.260 . S
C21 C19 1.479 . S
C22 C17 1.245 . S
C22 C18 1.477 . S
C22 H39 0.932 . S
C23 U6 2.882 . S
C23 C17 1.428 1_554 S
C23 O26 1.301 . S
C23 O27 1.282 . S
O24 U6 2.441 . S
O24 C10 1.249 . S
O25 U6 2.420 . S
O25 C10 1.202 . S
O26 U6 2.455 . S
O26 C23 1.301 . S
O27 U6 2.449 . S
O27 C23 1.282 . S
H28 C1 0.931 . S
H29 C3 0.929 . S
H30 C4 0.930 . S
H31 C5 0.931 . S
H32 C12 0.932 . S
H33 C13 0.930 . S
H34 C14 0.929 . S
H35 C16 0.930 . S
H36 C18 0.932 . S
H37 C19 0.929 . S
H38 C20 0.928 1_554 S
H39 C22 0.932 . S
C40 C41 1.264 . S
C40 C45 1.479 . S
C40 C50 1.465 . S
C41 C40 1.264 . S
C41 C43 1.339 . S
C41 H68 0.931 . S
C42 C43 1.395 . S
C42 C44 1.320 . S
C43 C41 1.339 . S
C43 C42 1.395 . S
C43 H69 0.929 . S
C44 C42 1.320 . S
C44 C45 1.405 . S
C44 H70 0.930 . S
C45 C40 1.479 . S
C45 C44 1.405 . S
C45 H71 0.931 . S
U46 O47 2.454 . S
U46 O48 2.458 . S
U46 C49 2.984 . S
U46 C50 2.847 . S
U46 C63 2.882 . S
U46 O64 2.441 . S
U46 O65 2.420 . S
U46 O66 2.455 . S
U46 O67 2.449 . S
O47 U46 2.454 . S
O47 C49 1.353 . S
O48 U46 2.458 . S
O48 C49 1.286 . S
C49 U46 2.984 . S
C49 O47 1.353 . S
C49 O48 1.286 . S
C49 C51 1.363 . S
C50 C40 1.465 . S
C50 U46 2.847 . S
C50 O64 1.249 . S
C50 O65 1.202 . S
C51 C49 1.363 . S
C51 C53 1.408 . S
C51 C56 1.342 . S
C52 C53 1.310 . S
C52 C55 1.461 . S
C52 H72 0.932 . S
C53 C51 1.408 . S
C53 C52 1.310 . S
C53 H73 0.930 . S
C54 C55 1.474 . S
C54 C56 1.285 . S
C54 H74 0.929 . S
C55 C52 1.461 . S
C55 C54 1.474 . S
C56 C51 1.342 . S
C56 C54 1.285 . S
C56 H75 0.930 . S
C57 C60 1.424 . S
C57 C62 1.245 . S
C57 C63 1.428 . S
C58 C61 1.260 . S
C58 C62 1.477 . S
C58 H76 0.932 . S
C59 C60 1.384 . S
C59 C61 1.479 . S
C59 H77 0.929 . S
C60 C57 1.424 . S
C60 C59 1.384 . S
C60 H78 0.928 . S
C61 C58 1.260 . S
C61 C59 1.479 . S
C62 C57 1.245 . S
C62 C58 1.477 . S
C62 H79 0.932 . S
C63 U46 2.882 . S
C63 C57 1.428 . S
C63 O66 1.301 . S
C63 O67 1.282 . S
O64 U46 2.441 . S
O64 C50 1.249 . S
O65 U46 2.420 . S
O65 C50 1.202 . S
O66 U46 2.455 . S
O66 C63 1.301 . S
O67 U46 2.449 . S
O67 C63 1.282 . S
H68 C41 0.931 . S
H69 C43 0.929 . S
H70 C44 0.930 . S
H71 C45 0.931 . S
H72 C52 0.932 . S
H73 C53 0.930 . S
H74 C54 0.929 . S
H75 C56 0.930 . S
H76 C58 0.932 . S
H77 C59 0.929 . S
H78 C60 0.928 . S
H79 C62 0.932 . S
C80 C81 1.264 . S
C80 C85 1.479 . S
C80 C90 1.465 . S
C81 C80 1.264 . S
C81 C83 1.339 . S
C81 H108 0.931 . S
C82 C83 1.395 . S
C82 C84 1.320 . S
C83 C81 1.339 . S
C83 C82 1.395 . S
C83 H109 0.929 . S
C84 C82 1.320 . S
C84 C85 1.405 . S
C84 H110 0.930 . S
C85 C80 1.479 . S
C85 C84 1.405 . S
C85 H111 0.931 . S
U86 O87 2.454 . S
U86 O88 2.458 1_554 S
U86 C89 2.984 1_554 S
U86 C90 2.847 . S
U86 C103 2.882 1_554 S
U86 O104 2.441 . S
U86 O105 2.420 . S
U86 O106 2.455 1_554 S
U86 O107 2.449 1_554 S
O87 U86 2.454 . S
O87 C89 1.353 1_554 S
O88 U86 2.458 1_556 S
O88 C89 1.286 . S
C89 U86 2.984 1_556 S
C89 O87 1.353 1_556 S
C89 O88 1.286 . S
C89 C91 1.363 . S
C90 C80 1.465 . S
C90 U86 2.847 . S
C90 O104 1.249 . S
C90 O105 1.202 . S
C91 C89 1.363 . S
C91 C93 1.408 1_556 S
C91 C96 1.342 . S
C92 C93 1.310 . S
C92 C95 1.461 1_554 S
C92 H112 0.932 . S
C93 C91 1.408 1_554 S
C93 C92 1.310 . S
C93 H113 0.930 . S
C94 C95 1.474 . S
C94 C96 1.285 . S
C94 H114 0.929 . S
C95 C92 1.461 1_556 S
C95 C94 1.474 . S
C96 C91 1.342 . S
C96 C94 1.285 . S
C96 H115 0.930 . S
C97 C100 1.424 . S
C97 C102 1.245 . S
C97 C103 1.428 . S
C98 C101 1.260 . S
C98 C102 1.477 . S
C98 H116 0.932 . S
C99 C100 1.384 . S
C99 C101 1.479 . S
C99 H117 0.929 . S
C100 C97 1.424 . S
C100 C99 1.384 . S
C100 H118 0.928 . S
C101 C98 1.260 . S
C101 C99 1.479 . S
C102 C97 1.245 . S
C102 C98 1.477 . S
C102 H119 0.932 . S
C103 U86 2.882 1_556 S
C103 C97 1.428 . S
C103 O106 1.301 . S
C103 O107 1.282 . S
O104 U86 2.441 . S
O104 C90 1.249 . S
O105 U86 2.420 . S
O105 C90 1.202 . S
O106 U86 2.455 1_556 S
O106 C103 1.301 . S
O107 U86 2.449 1_556 S
O107 C103 1.282 . S
H108 C81 0.931 . S
H109 C83 0.929 . S
H110 C84 0.930 . S
H111 C85 0.931 . S
H112 C92 0.932 . S
H113 C93 0.930 . S
H114 C94 0.929 . S
H115 C96 0.930 . S
H116 C98 0.932 . S
H117 C99 0.929 . S
H118 C100 0.928 . S
H119 C102 0.932 . S
C120 C121 1.264 . S
C120 C125 1.479 . S
C120 C130 1.465 . S
C121 C120 1.264 . S
C121 C123 1.339 . S
C121 H148 0.931 . S
C122 C123 1.395 . S
C122 C124 1.320 . S
C123 C121 1.339 . S
C123 C122 1.395 . S
C123 H149 0.929 . S
C124 C122 1.320 . S
C124 C125 1.405 . S
C124 H150 0.930 . S
C125 C120 1.479 . S
C125 C124 1.405 . S
C125 H151 0.931 . S
U126 O127 2.454 . S
U126 O128 2.458 . S
U126 C129 2.984 . S
U126 C130 2.847 . S
U126 C143 2.882 . S
U126 O144 2.441 . S
U126 O145 2.420 . S
U126 O146 2.455 . S
U126 O147 2.449 . S
O127 U126 2.454 . S
O127 C129 1.353 . S
O128 U126 2.458 . S
O128 C129 1.286 . S
C129 U126 2.984 . S
C129 O127 1.353 . S
C129 O128 1.286 . S
C129 C131 1.363 . S
C130 C120 1.465 . S
C130 U126 2.847 . S
C130 O144 1.249 . S
C130 O145 1.202 . S
C131 C129 1.363 . S
C131 C133 1.408 . S
C131 C136 1.342 . S
C132 C133 1.310 . S
C132 C135 1.461 . S
C132 H152 0.932 . S
C133 C131 1.408 . S
C133 C132 1.310 . S
C133 H153 0.930 . S
C134 C135 1.474 . S
C134 C136 1.285 . S
C134 H154 0.929 . S
C135 C132 1.461 . S
C135 C134 1.474 . S
C136 C131 1.342 . S
C136 C134 1.285 . S
C136 H155 0.930 . S
C137 C140 1.424 . S
C137 C142 1.245 . S
C137 C143 1.428 . S
C138 C141 1.260 . S
C138 C142 1.477 . S
C138 H156 0.932 . S
C139 C140 1.384 . S
C139 C141 1.479 . S
C139 H157 0.929 . S
C140 C137 1.424 . S
C140 C139 1.384 . S
C140 H158 0.928 . S
C141 C138 1.260 . S
C141 C139 1.479 . S
C142 C137 1.245 . S
C142 C138 1.477 . S
C142 H159 0.932 . S
C143 U126 2.882 . S
C143 C137 1.428 . S
C143 O146 1.301 . S
C143 O147 1.282 . S
O144 U126 2.441 . S
O144 C130 1.249 . S
O145 U126 2.420 . S
O145 C130 1.202 . S
O146 U126 2.455 . S
O146 C143 1.301 . S
O147 U126 2.449 . S
O147 C143 1.282 . S
H148 C121 0.931 . S
H149 C123 0.929 . S
H150 C124 0.930 . S
H151 C125 0.931 . S
H152 C132 0.932 . S
H153 C133 0.930 . S
H154 C134 0.929 . S
H155 C136 0.930 . S
H156 C138 0.932 . S
H157 C139 0.929 . S
H158 C140 0.928 . S
H159 C142 0.932 . S
O160 Mn161 2.163 1_655 S
O160 C174 1.244 . S
Mn161 O160 2.163 1_455 S
Mn161 O164 2.160 1_545 S
Mn161 O165 2.221 . S
Mn161 O167 2.163 1_455 S
Mn161 O169 2.158 . S
Mn161 O179 2.221 1_445 S
O162 Mn163 2.087 1_545 S
O162 C174 1.256 . S
Mn163 O162 2.087 1_565 S
Mn163 O170 2.089 1_655 S
Mn163 O179 2.290 . S
Mn163 O180 2.251 . S
O164 Mn161 2.160 1_565 S
O164 C175 1.240 . S
O165 Mn161 2.221 . S
O165 Mn166 2.290 . S
O165 C176 1.278 . S
Mn166 O165 2.290 . S
Mn166 O168 2.089 . S
Mn166 O171 2.251 . S
Mn166 O172 2.087 1_455 S
O167 Mn161 2.163 1_655 S
O167 C177 1.244 . S
O168 Mn166 2.089 . S
O168 C175 1.251 1_545 S
O169 Mn161 2.158 . S
O169 C178 1.240 1_545 S
O170 Mn163 2.089 1_455 S
O170 C178 1.256 . S
O171 Mn166 2.251 . S
O171 C176 1.241 . S
O172 Mn166 2.087 1_655 S
O172 C177 1.256 . S
C173 O179 1.278 . S
C173 O180 1.241 . S
C174 O160 1.244 . S
C174 O162 1.256 . S
C175 O164 1.240 . S
C175 O168 1.251 1_565 S
C176 O165 1.278 . S
C176 O171 1.241 . S
C177 O167 1.244 . S
C177 O172 1.256 . S
C178 O169 1.240 1_565 S
C178 O170 1.256 . S
O179 Mn161 2.221 1_665 S
O179 Mn163 2.290 . S
O179 C173 1.278 . S
O180 Mn163 2.251 . S
O180 C173 1.241 . S
O181 Mn182 2.163 . S
O181 C195 1.244 . S
Mn182 O181 2.163 . S
Mn182 O185 2.160 1_554 S
Mn182 O186 2.221 . S
Mn182 O188 2.163 . S
Mn182 O190 2.160 . S
Mn182 O200 2.221 . S
O183 Mn184 2.087 . S
O183 C195 1.256 . S
Mn184 O183 2.087 . S
Mn184 O191 2.089 . S
Mn184 O200 2.290 . S
Mn184 O201 2.251 . S
O185 Mn182 2.160 1_556 S
O185 C196 1.239 . S
O186 Mn182 2.221 . S
O186 Mn187 2.290 1_554 S
O186 C197 1.278 . S
Mn187 O186 2.290 1_556 S
Mn187 O189 2.089 . S
Mn187 O192 2.251 1_556 S
Mn187 O193 2.087 . S
O188 Mn182 2.163 . S
O188 C198 1.244 1_554 S
O189 Mn187 2.089 . S
O189 C196 1.256 . S
O190 Mn182 2.160 . S
O190 C199 1.239 . S
O191 Mn184 2.089 . S
O191 C199 1.256 . S
O192 Mn187 2.251 1_554 S
O192 C197 1.241 . S
O193 Mn187 2.087 . S
O193 C198 1.256 . S
C194 O200 1.278 . S
C194 O201 1.241 . S
C195 O181 1.244 . S
C195 O183 1.256 . S
C196 O185 1.239 . S
C196 O189 1.256 . S
C197 O186 1.278 . S
C197 O192 1.241 . S
C198 O188 1.244 1_556 S
C198 O193 1.256 . S
C199 O190 1.239 . S
C199 O191 1.256 . S
O200 Mn182 2.221 . S
O200 Mn184 2.290 . S
O200 C194 1.278 . S
O201 Mn184 2.251 . S
O201 C194 1.241 . S
C202 C203 1.386 . S
C202 C204 1.383 . S
C202 H218 0.951 . S
C203 C202 1.386 . S
C203 C207 1.383 . S
C204 C202 1.383 . S
C204 C205 1.402 . S
C204 H219 0.951 . S
C205 C204 1.402 . S
C205 C206 1.375 . S
C205 C208 1.481 . S
C206 C205 1.375 . S
C206 C207 1.367 . S
C206 H220 0.951 . S
C207 C203 1.383 . S
C207 C206 1.367 . S
C207 H221 0.950 . S
C208 C205 1.481 . S
C208 C209 1.297 . S
C208 H222 0.950 . S
C209 C208 1.297 . S
C209 C210 1.479 . S
C209 H223 0.950 . S
C210 C209 1.479 . S
C210 C211 1.375 . S
C210 C216 1.404 . S
C211 C210 1.375 . S
C211 C212 1.369 . S
C211 H224 0.950 . S
C212 C211 1.369 . S
C212 C213 1.392 . S
C212 H225 0.951 . S
C213 C212 1.392 . S
C213 C215 1.384 . S
H214 C216 0.949 . S
C215 C213 1.384 . S
C215 C216 1.385 . S
C215 H217 0.950 . S
C216 C210 1.404 . S
C216 H214 0.949 . S
C216 C215 1.385 . S
H217 C215 0.950 . S
H218 C202 0.951 . S
H219 C204 0.951 . S
H220 C206 0.951 . S
H221 C207 0.950 . S
H222 C208 0.950 . S
H223 C209 0.950 . S
H224 C211 0.950 . S
H225 C212 0.951 . S
C226 C227 1.386 . S
C226 C228 1.383 . S
C226 H242 0.951 . S
C227 C226 1.386 . S
C227 C231 1.383 . S
C228 C226 1.383 . S
C228 C229 1.402 . S
C228 H243 0.951 . S
C229 C228 1.402 . S
C229 C230 1.375 . S
C229 C232 1.481 . S
C230 C229 1.375 . S
C230 C231 1.367 . S
C230 H244 0.951 . S
C231 C227 1.383 . S
C231 C230 1.367 . S
C231 H245 0.950 . S
C232 C229 1.481 . S
C232 C233 1.297 . S
C232 H246 0.950 . S
C233 C232 1.297 . S
C233 C234 1.479 . S
C233 H247 0.950 . S
C234 C233 1.479 . S
C234 C235 1.375 . S
C234 C240 1.404 . S
C235 C234 1.375 . S
C235 C236 1.369 . S
C235 H248 0.950 . S
C236 C235 1.369 . S
C236 C237 1.392 . S
C236 H249 0.951 . S
C237 C236 1.392 . S
C237 C239 1.384 . S
H238 C240 0.949 . S
C239 C237 1.384 . S
C239 C240 1.385 . S
C239 H241 0.950 . S
C240 C234 1.404 . S
C240 H238 0.949 . S
C240 C239 1.385 . S
H241 C239 0.950 . S
H242 C226 0.951 . S
H243 C228 0.951 . S
H244 C230 0.951 . S
H245 C231 0.950 . S
H246 C232 0.950 . S
H247 C233 0.950 . S
H248 C235 0.950 . S
H249 C236 0.951 . S
C250 C251 1.386 . S
C250 C252 1.383 . S
C250 H266 0.951 . S
C251 C250 1.386 . S
C251 C255 1.383 . S
C252 C250 1.383 . S
C252 C253 1.402 . S
C252 H267 0.951 . S
C253 C252 1.402 . S
C253 C254 1.375 . S
C253 C256 1.481 . S
C254 C253 1.375 . S
C254 C255 1.367 . S
C254 H268 0.951 . S
C255 C251 1.383 . S
C255 C254 1.367 . S
C255 H269 0.950 . S
C256 C253 1.481 . S
C256 C257 1.297 . S
C256 H270 0.950 . S
C257 C256 1.297 . S
C257 C258 1.479 . S
C257 H271 0.950 . S
C258 C257 1.479 . S
C258 C259 1.375 . S
C258 C264 1.404 . S
C259 C258 1.375 . S
C259 C260 1.369 . S
C259 H272 0.950 . S
C260 C259 1.369 . S
C260 C261 1.392 . S
C260 H273 0.951 . S
C261 C260 1.392 . S
C261 C263 1.384 . S
H262 C264 0.949 . S
C263 C261 1.384 . S
C263 C264 1.385 . S
C263 H265 0.950 . S
C264 C258 1.404 . S
C264 H262 0.949 . S
C264 C263 1.385 . S
H265 C263 0.950 . S
H266 C250 0.951 . S
H267 C252 0.951 . S
H268 C254 0.951 . S
H269 C255 0.950 . S
H270 C256 0.950 . S
H271 C257 0.950 . S
H272 C259 0.950 . S
H273 C260 0.951 . S
C274 C275 1.386 . S
C274 C276 1.383 . S
C274 H290 0.951 . S
C275 C274 1.386 . S
C275 C279 1.383 1_556 S
C276 C274 1.383 . S
C276 C277 1.402 1_556 S
C276 H291 0.951 . S
C277 C276 1.402 1_554 S
C277 C278 1.375 . S
C277 C280 1.481 . S
C278 C277 1.375 . S
C278 C279 1.367 . S
C278 H292 0.951 . S
C279 C275 1.383 1_554 S
C279 C278 1.367 . S
C279 H293 0.950 . S
C280 C277 1.481 . S
C280 C281 1.297 . S
C280 H294 0.950 . S
C281 C280 1.297 . S
C281 C282 1.479 . S
C281 H295 0.950 1_554 S
C282 C281 1.479 . S
C282 C283 1.375 1_554 S
C282 C288 1.404 . S
C283 C282 1.375 1_556 S
C283 C284 1.369 . S
C283 H296 0.950 . S
C284 C283 1.369 . S
C284 C285 1.392 1_556 S
C284 H297 0.951 . S
C285 C284 1.392 1_554 S
C285 C287 1.384 . S
H286 C288 0.949 . S
C287 C285 1.384 . S
C287 C288 1.385 . S
C287 H289 0.950 . S
C288 C282 1.404 . S
C288 H286 0.949 . S
C288 C287 1.385 . S
H289 C287 0.950 . S
H290 C274 0.951 . S
H291 C276 0.951 . S
H292 C278 0.951 . S
H293 C279 0.950 . S
H294 C280 0.950 . S
H295 C281 0.950 1_556 S
H296 C283 0.950 . S
H297 C284 0.951 . S
C298 C299 1.386 . S
C298 C300 1.383 . S
C298 H314 0.951 . S
C299 C298 1.386 . S
C299 C303 1.383 . S
C300 C298 1.383 . S
C300 C301 1.402 . S
C300 H315 0.951 . S
C301 C300 1.402 . S
C301 C302 1.375 . S
C301 C304 1.481 . S
C302 C301 1.375 . S
C302 C303 1.367 . S
C302 H316 0.951 . S
C303 C299 1.383 . S
C303 C302 1.367 . S
C303 H317 0.950 . S
C304 C301 1.481 . S
C304 C305 1.297 . S
C304 H318 0.950 . S
C305 C304 1.297 . S
C305 C306 1.479 . S
C305 H319 0.950 . S
C306 C305 1.479 . S
C306 C307 1.408 . S
C306 C312 1.404 . S
C307 C306 1.408 . S
C307 C308 1.362 1_565 S
C307 H320 0.925 1_565 S
C308 C307 1.362 1_545 S
C308 C309 1.392 1_545 S
C308 H321 0.951 . S
C309 C308 1.392 1_565 S
C309 C311 1.384 . S
H310 C312 0.949 . S
C311 C309 1.384 . S
C311 C312 1.385 . S
C311 H313 0.950 . S
C312 C306 1.404 . S
C312 H310 0.949 . S
C312 C311 1.385 . S
H313 C311 0.950 . S
H314 C298 0.951 . S
H315 C300 0.951 . S
H316 C302 0.951 . S
H317 C303 0.950 . S
H318 C304 0.950 . S
H319 C305 0.950 . S
H320 C307 0.925 1_545 S
H321 C308 0.951 . S
C322 C323 1.386 . S
C322 C324 1.383 . S
C322 H338 0.951 . S
C323 C322 1.386 . S
C323 C327 1.383 . S
C324 C322 1.383 . S
C324 C325 1.402 . S
C324 H339 0.951 . S
C325 C324 1.402 . S
C325 C326 1.375 . S
C325 C328 1.481 . S
C326 C325 1.375 . S
C326 C327 1.367 . S
C326 H340 0.951 . S
C327 C323 1.383 . S
C327 C326 1.367 . S
C327 H341 0.950 . S
C328 C325 1.481 . S
C328 C329 1.297 . S
C328 H342 0.950 . S
C329 C328 1.297 . S
C329 C330 1.479 . S
C329 H343 0.950 . S
C330 C329 1.479 . S
C330 C331 1.375 . S
C330 C336 1.404 . S
C331 C330 1.375 . S
C331 C332 1.369 . S
C331 H344 0.950 . S
C332 C331 1.369 . S
C332 C333 1.392 . S
C332 H345 0.951 . S
C333 C332 1.392 . S
C333 C335 1.384 . S
H334 C336 0.949 . S
C335 C333 1.384 . S
C335 C336 1.385 . S
C335 H337 0.950 . S
C336 C330 1.404 . S
C336 H334 0.949 . S
C336 C335 1.385 . S
H337 C335 0.950 . S
H338 C322 0.951 . S
H339 C324 0.951 . S
H340 C326 0.951 . S
H341 C327 0.950 . S
H342 C328 0.950 . S
H343 C329 0.950 . S
H344 C331 0.950 . S
H345 C332 0.951 . S
C346 C347 1.386 . S
C346 C348 1.383 . S
C346 H362 0.951 . S
C347 C346 1.386 . S
C347 C351 1.383 . S
C348 C346 1.383 . S
C348 C349 1.402 . S
C348 H363 0.951 . S
C349 C348 1.402 . S
C349 C350 1.375 . S
C349 C352 1.481 . S
C350 C349 1.375 . S
C350 C351 1.367 . S
C350 H364 0.951 . S
C351 C347 1.383 . S
C351 C350 1.367 . S
C351 H365 0.950 . S
C352 C349 1.481 . S
C352 C353 1.297 . S
C352 H366 0.950 . S
C353 C352 1.297 . S
C353 C354 1.479 . S
C353 H367 0.950 . S
C354 C353 1.479 . S
C354 C355 1.375 . S
C354 C360 1.404 . S
C355 C354 1.375 . S
C355 C356 1.369 . S
C355 H368 0.950 . S
C356 C355 1.369 . S
C356 C357 1.392 . S
C356 H369 0.951 . S
C357 C356 1.392 . S
C357 C359 1.384 . S
H358 C360 0.949 . S
C359 C357 1.384 . S
C359 C360 1.385 . S
C359 H361 0.950 . S
C360 C354 1.404 . S
C360 H358 0.949 . S
C360 C359 1.385 . S
H361 C359 0.950 . S
H362 C346 0.951 . S
H363 C348 0.951 . S
H364 C350 0.951 . S
H365 C351 0.950 . S
H366 C352 0.950 . S
H367 C353 0.950 . S
H368 C355 0.950 . S
H369 C356 0.951 . S
C370 C371 1.386 . S
C370 C372 1.383 . S
C370 H386 0.951 . S
C371 C370 1.386 . S
C371 C375 1.383 . S
C372 C370 1.383 . S
C372 C373 1.402 . S
C372 H387 0.951 . S
C373 C372 1.402 . S
C373 C374 1.375 . S
C373 C376 1.481 . S
C374 C373 1.375 . S
C374 C375 1.367 . S
C374 H388 0.951 . S
C375 C371 1.383 . S
C375 C374 1.367 . S
C375 H389 0.950 . S
C376 C373 1.481 . S
C376 C377 1.297 . S
C376 H390 0.950 . S
C377 C376 1.297 . S
C377 C378 1.479 . S
C377 H391 0.950 . S
C378 C377 1.479 . S
C378 C379 1.375 . S
C378 C384 1.404 . S
C379 C378 1.375 . S
C379 C380 1.369 . S
C379 H392 0.950 . S
C380 C379 1.369 . S
C380 C381 1.392 . S
C380 H393 0.951 . S
C381 C380 1.392 . S
C381 C383 1.384 . S
H382 C384 0.949 . S
C383 C381 1.384 . S
C383 C384 1.385 . S
C383 H385 0.950 . S
C384 C378 1.404 . S
C384 H382 0.949 . S
C384 C383 1.385 . S
H385 C383 0.950 . S
H386 C370 0.951 . S
H387 C372 0.951 . S
H388 C374 0.951 . S
H389 C375 0.950 . S
H390 C376 0.950 . S
H391 C377 0.950 . S
H392 C379 0.950 . S
H393 C380 0.951 . S
C394 C395 1.386 . S
C394 C396 1.383 . S
C394 H410 0.951 . S
C395 C394 1.386 . S
C395 C399 1.383 . S
C396 C394 1.383 . S
C396 C397 1.402 . S
C396 H411 0.951 . S
C397 C396 1.402 . S
C397 C398 1.375 . S
C397 C400 1.481 . S
C398 C397 1.375 . S
C398 C399 1.367 . S
C398 H412 0.951 . S
C399 C395 1.383 . S
C399 C398 1.367 . S
C399 H413 0.950 . S
C400 C397 1.481 . S
C400 C401 1.297 . S
C400 H414 0.950 . S
C401 C400 1.297 . S
C401 C402 1.479 . S
C401 H415 0.950 . S
C402 C401 1.479 . S
C402 C403 1.375 . S
C402 C408 1.404 . S
C403 C402 1.375 . S
C403 C404 1.369 . S
C403 H416 0.950 . S
C404 C403 1.369 . S
C404 C405 1.392 . S
C404 H417 0.951 . S
C405 C404 1.392 . S
C405 C407 1.384 . S
H406 C408 0.949 . S
C407 C405 1.384 . S
C407 C408 1.385 . S
C407 H409 0.950 . S
C408 C402 1.404 . S
C408 H406 0.949 . S
C408 C407 1.385 . S
H409 C407 0.950 . S
H410 C394 0.951 . S
H411 C396 0.951 . S
H412 C398 0.951 . S
H413 C399 0.950 . S
H414 C400 0.950 . S
H415 C401 0.950 . S
H416 C403 0.950 . S
H417 C404 0.951 . S
C418 C419 1.386 . S
C418 C420 1.383 . S
C418 H434 0.951 . S
C419 C418 1.386 . S
C419 C423 1.383 . S
C420 C418 1.383 . S
C420 C421 1.402 . S
C420 H435 0.951 . S
C421 C420 1.402 . S
C421 C422 1.375 . S
C421 C424 1.481 . S
C422 C421 1.375 . S
C422 C423 1.367 . S
C422 H436 0.951 . S
C423 C419 1.383 . S
C423 C422 1.367 . S
C423 H437 0.950 . S
C424 C421 1.481 . S
C424 C425 1.297 . S
C424 H438 0.950 . S
C425 C424 1.297 . S
C425 C426 1.479 . S
C425 H439 0.950 . S
C426 C425 1.479 . S
C426 C427 1.375 . S
C426 C432 1.404 . S
C427 C426 1.375 . S
C427 C428 1.369 . S
C427 H440 0.950 . S
C428 C427 1.369 . S
C428 C429 1.392 . S
C428 H441 0.951 . S
C429 C428 1.392 . S
C429 C431 1.384 . S
H430 C432 0.949 . S
C431 C429 1.384 . S
C431 C432 1.385 . S
C431 H433 0.950 . S
C432 C426 1.404 . S
C432 H430 0.949 . S
C432 C431 1.385 . S
H433 C431 0.950 . S
H434 C418 0.951 . S
H435 C420 0.951 . S
H436 C422 0.951 . S
H437 C423 0.950 . S
H438 C424 0.950 . S
H439 C425 0.950 . S
H440 C427 0.950 . S
H441 C428 0.951 . S
C442 C443 1.386 . S
C442 C444 1.383 . S
C442 H458 0.951 . S
C443 C442 1.386 . S
C443 C447 1.383 . S
C444 C442 1.383 . S
C444 C445 1.402 . S
C444 H459 0.951 . S
C445 C444 1.402 . S
C445 C446 1.375 . S
C445 C448 1.481 . S
C446 C445 1.375 . S
C446 C447 1.367 . S
C446 H460 0.951 . S
C447 C443 1.383 . S
C447 C446 1.367 . S
C447 H461 0.950 . S
C448 C445 1.481 . S
C448 C449 1.297 . S
C448 H462 0.950 . S
C449 C448 1.297 . S
C449 C450 1.479 . S
C449 H463 0.950 . S
C450 C449 1.479 . S
C450 C451 1.375 . S
C450 C456 1.404 . S
C451 C450 1.375 . S
C451 C452 1.369 . S
C451 H464 0.950 . S
C452 C451 1.369 . S
C452 C453 1.392 . S
C452 H465 0.951 . S
C453 C452 1.392 . S
C453 C455 1.384 . S
H454 C456 0.949 . S
C455 C453 1.384 . S
C455 C456 1.385 . S
C455 H457 0.950 . S
C456 C450 1.404 . S
C456 H454 0.949 . S
C456 C455 1.385 . S
H457 C455 0.950 . S
H458 C442 0.951 . S
H459 C444 0.951 . S
H460 C446 0.951 . S
H461 C447 0.950 . S
H462 C448 0.950 . S
H463 C449 0.950 . S
H464 C451 0.950 . S
H465 C452 0.951 . S
C466 C467 1.386 . S
C466 C468 1.383 . S
C466 H482 0.951 . S
C467 C466 1.386 . S
C467 C471 1.383 . S
C468 C466 1.383 . S
C468 C469 1.402 . S
C468 H483 0.951 . S
C469 C468 1.402 . S
C469 C470 1.375 . S
C469 C472 1.481 . S
C470 C469 1.375 . S
C470 C471 1.367 . S
C470 H484 0.951 . S
C471 C467 1.383 . S
C471 C470 1.367 . S
C471 H485 0.950 . S
C472 C469 1.481 . S
C472 C473 1.297 . S
C472 H486 0.950 . S
C473 C472 1.297 . S
C473 C474 1.479 . S
C473 H487 0.950 . S
C474 C473 1.479 . S
C474 C475 1.375 . S
C474 C480 1.404 1_565 S
C475 C474 1.375 . S
C475 C476 1.369 . S
C475 H488 0.950 . S
C476 C475 1.369 . S
C476 C477 1.392 . S
C476 H489 0.951 . S
C477 C476 1.392 . S
C477 C479 1.384 1_565 S
H478 C480 0.949 . S
C479 C477 1.384 1_545 S
C479 C480 1.385 . S
C479 H481 0.950 . S
C480 C474 1.404 1_545 S
C480 H478 0.949 . S
C480 C479 1.385 . S
H481 C479 0.950 . S
H482 C466 0.951 . S
H483 C468 0.951 . S
H484 C470 0.951 . S
H485 C471 0.950 . S
H486 C472 0.950 . S
H487 C473 0.950 . S
H488 C475 0.950 . S
H489 C476 0.951 . S
C213 C176 1.438 . S
C203 C135 1.509 . S
C227 C15 1.540 . S
C237 C197 1.263 . S
C251 C55 1.705 . S
C261 C173 1.512 . S
C275 C95 1.702 . S
C285 C194 1.452 . S
C309 C178 1.606 . S
C299 C2 1.661 . S
C333 C198 1.606 . S
C323 C42 1.589 . S
C347 C82 1.568 . S
C357 C174 1.541 . S
C371 C141 1.658 . S
C381 C196 1.507 . S
C405 C195 1.477 . S
C395 C61 1.535 . S
C429 C177 1.637 . S
C419 C101 1.654 . S
C453 C199 1.693 . S
C443 C122 1.699 . S
C467 C21 1.685 . S
C477 C175 1.551 . S
