# Generated by pormake.
# Topology apo, (3,6)-cn, num edge types: 1
# Building blocks:
#     Node 0, Type 0, BuildingBlock: WUSLED_clean_sbu_0, # of connection points: 3
#     Node 1, Type 0, BuildingBlock: WUSLED_clean_sbu_0, # of connection points: 3
#     Node 2, Type 0, BuildingBlock: WUSLED_clean_sbu_0, # of connection points: 3
#     Node 3, Type 0, BuildingBlock: WUSLED_clean_sbu_0, # of connection points: 3
#     Node 4, Type 0, BuildingBlock: WUSLED_clean_sbu_0, # of connection points: 3
#     Node 5, Type 0, BuildingBlock: WUSLED_clean_sbu_0, # of connection points: 3
#     Node 6, Type 0, BuildingBlock: WUSLED_clean_sbu_0, # of connection points: 3
#     Node 7, Type 0, BuildingBlock: WUSLED_clean_sbu_0, # of connection points: 3
#     Node 8, Type 1, BuildingBlock: KUMBUR_clean_sbu_1, # of connection points: 6
#     Node 9, Type 1, BuildingBlock: KUMBUR_clean_sbu_1, # of connection points: 6
#     Node 10, Type 1, BuildingBlock: KUMBUR_clean_sbu_1, # of connection points: 6
#     Node 11, Type 1, BuildingBlock: KUMBUR_clean_sbu_1, # of connection points: 6
#     Edge 12, Type (0, 1), BuildingBlock: KIFKEQ_clean_linker_1, # of connection points: 2
#     Edge 13, Type (0, 1), BuildingBlock: KIFKEQ_clean_linker_1, # of connection points: 2
#     Edge 14, Type (0, 1), BuildingBlock: KIFKEQ_clean_linker_1, # of connection points: 2
#     Edge 15, Type (0, 1), BuildingBlock: KIFKEQ_clean_linker_1, # of connection points: 2
#     Edge 16, Type (0, 1), BuildingBlock: KIFKEQ_clean_linker_1, # of connection points: 2
#     Edge 17, Type (0, 1), BuildingBlock: KIFKEQ_clean_linker_1, # of connection points: 2
#     Edge 18, Type (0, 1), BuildingBlock: KIFKEQ_clean_linker_1, # of connection points: 2
#     Edge 19, Type (0, 1), BuildingBlock: KIFKEQ_clean_linker_1, # of connection points: 2
#     Edge 20, Type (0, 1), BuildingBlock: KIFKEQ_clean_linker_1, # of connection points: 2
#     Edge 21, Type (0, 1), BuildingBlock: KIFKEQ_clean_linker_1, # of connection points: 2
#     Edge 22, Type (0, 1), BuildingBlock: KIFKEQ_clean_linker_1, # of connection points: 2
#     Edge 23, Type (0, 1), BuildingBlock: KIFKEQ_clean_linker_1, # of connection points: 2
#     Edge 24, Type (0, 1), BuildingBlock: KIFKEQ_clean_linker_1, # of connection points: 2
#     Edge 25, Type (0, 1), BuildingBlock: KIFKEQ_clean_linker_1, # of connection points: 2
#     Edge 26, Type (0, 1), BuildingBlock: KIFKEQ_clean_linker_1, # of connection points: 2
#     Edge 27, Type (0, 1), BuildingBlock: KIFKEQ_clean_linker_1, # of connection points: 2
#     Edge 28, Type (0, 1), BuildingBlock: KIFKEQ_clean_linker_1, # of connection points: 2
#     Edge 29, Type (0, 1), BuildingBlock: KIFKEQ_clean_linker_1, # of connection points: 2
#     Edge 30, Type (0, 1), BuildingBlock: KIFKEQ_clean_linker_1, # of connection points: 2
#     Edge 31, Type (0, 1), BuildingBlock: KIFKEQ_clean_linker_1, # of connection points: 2
#     Edge 32, Type (0, 1), BuildingBlock: KIFKEQ_clean_linker_1, # of connection points: 2
#     Edge 33, Type (0, 1), BuildingBlock: KIFKEQ_clean_linker_1, # of connection points: 2
#     Edge 34, Type (0, 1), BuildingBlock: KIFKEQ_clean_linker_1, # of connection points: 2
#     Edge 35, Type (0, 1), BuildingBlock: KIFKEQ_clean_linker_1, # of connection points: 2
# Relax obj value: 0.010
# Max RMSD: 0.098
# Mean RMSD: 0.074
data_MOF--net-apo--node1-WUSLED_clean_sbu_0--node2-KUMBUR_clean_sbu_1--edge1-KIFKEQ_clean_linker_1
_symmetry_space_group_name_H-M    P1
_symmetry_Int_Tables_number       1
_symmetry_cell_setting            triclinic
loop_
_symmetry_equiv_pos_as_xyz
'x, y, z'
_cell_length_a     31.836633
_cell_length_b     55.842472
_cell_length_c     66.654171
_cell_angle_alpha  90.405306
_cell_angle_beta   90.068082
_cell_angle_gamma 90.331641
loop_
_atom_site_label
_atom_site_type_symbol
_atom_site_fract_x
_atom_site_fract_y
_atom_site_fract_z
_atom_type_partial_charge
C0 C 0.31865 0.43105 0.38042 0.0
C1 C 0.34302 0.44711 0.39187 0.0
C2 C 0.35163 0.47309 0.36275 0.0
C3 C 0.35942 0.46795 0.3831 0.0
C4 C 0.327 0.45687 0.35146 0.0
C5 C 0.31073 0.43612 0.36022 0.0
U6 U 0.29725 0.3867 0.42369 0.0
O7 O 0.23956 0.36587 0.42952 0.0
O8 O 0.29842 0.3473 0.42279 0.0
C9 C 0.25773 0.34527 0.4257 0.0
C10 C 0.30134 0.40883 0.389 0.0
C11 C 0.23499 0.32904 0.4118 0.0
C12 C 0.21761 0.31512 0.37806 0.0
C13 C 0.23886 0.33113 0.3909 0.0
C14 C 0.18794 0.29502 0.40687 0.0
C15 C 0.19202 0.29673 0.38588 0.0
C16 C 0.20923 0.31098 0.41965 0.0
C17 C 0.3376 0.40084 0.47747 0.0
C18 C 0.34539 0.37315 0.5053 0.0
C19 C 0.35043 0.41587 0.51132 0.0
C20 C 0.34354 0.42001 0.49089 0.0
C21 C 0.35164 0.39239 0.51883 0.0
C22 C 0.33834 0.37734 0.48483 0.0
C23 C 0.33196 0.40598 0.45589 0.0
O24 O 0.32887 0.39285 0.39481 0.0
O25 O 0.27004 0.41141 0.40165 0.0
O26 O 0.29349 0.41074 0.45004 0.0
O27 O 0.35234 0.39216 0.44321 0.0
H28 H 0.34939 0.44352 0.40753 0.0
H29 H 0.37788 0.48012 0.3923 0.0
H30 H 0.32089 0.45996 0.33571 0.0
H31 H 0.2921 0.42389 0.35112 0.0
H32 H 0.22187 0.3169 0.36203 0.0
H33 H 0.25857 0.34501 0.38453 0.0
H34 H 0.16799 0.28145 0.41347 0.0
H35 H 0.20562 0.30915 0.43573 0.0
H36 H 0.34556 0.35485 0.51057 0.0
H37 H 0.35563 0.43111 0.52117 0.0
H38 H 0.34328 0.43828 0.48552 0.0
H39 H 0.33367 0.36225 0.47475 0.0
C40 C 0.20562 0.16022 0.984 0.0
C41 C 0.16996 0.14621 0.9882 0.0
C42 C 0.18 0.15271 0.02424 0.0
C43 C 0.15723 0.14255 1.00809 0.0
C44 C 0.21594 0.16654 1.01986 0.0
C45 C 0.22851 0.17026 0.99999 0.0
U46 U 0.21459 0.14279 0.92819 0.0
O47 O 0.20809 0.16499 0.90115 0.0
O48 O 0.26765 0.14692 0.90734 0.0
C49 C 0.24752 0.16208 0.89583 0.0
C50 C 0.21928 0.16481 0.96316 0.0
C51 C 0.27088 0.18372 0.88903 0.0
C52 C 0.27272 0.2199 0.86871 0.0
C53 C 0.25028 0.20101 0.87743 0.0
C54 C 0.33699 0.20491 0.88319 0.0
C55 C 0.3165 0.2219 0.87119 0.0
C56 C 0.31452 0.18604 0.89197 0.0
C57 C 0.16739 0.08228 0.91048 0.0
C58 C 0.15316 0.06983 0.87602 0.0
C59 C 0.15106 0.04064 0.9027 0.0
C60 C 0.16124 0.05858 0.91665 0.0
C61 C 0.14672 0.04601 0.8822 0.0
C62 C 0.16354 0.0878 0.89003 0.0
C63 C 0.17704 0.10078 0.92576 0.0
O64 O 0.24902 0.15082 0.95621 0.0
O65 O 0.18931 0.1687 0.95 0.0
O66 O 0.15711 0.12122 0.9241 0.0
O67 O 0.21689 0.10345 0.93045 0.0
H68 H 0.1518 0.13823 0.97611 0.0
H69 H 0.12913 0.13204 1.01078 0.0
H70 H 0.23476 0.17431 0.03181 0.0
H71 H 0.25624 0.18103 0.9971 0.0
H72 H 0.25592 0.23243 0.85937 0.0
H73 H 0.21686 0.19952 0.87455 0.0
H74 H 0.37058 0.20603 0.88564 0.0
H75 H 0.33161 0.17297 0.90064 0.0
H76 H 0.1505 0.07456 0.86035 0.0
H77 H 0.14575 0.02262 0.90806 0.0
H78 H 0.16394 0.05396 0.93236 0.0
H79 H 0.16838 0.10599 0.88493 0.0
C80 C 0.82691 0.10328 0.66586 0.0
C81 C 0.8482 0.08599 0.65444 0.0
C82 C 0.85673 0.06117 0.68421 0.0
C83 C 0.86294 0.06507 0.66354 0.0
C84 C 0.83511 0.07859 0.69545 0.0
C85 C 0.8204 0.09939 0.68636 0.0
U86 U 0.81129 0.14782 0.62227 0.0
O87 O 0.7553 0.16939 0.61559 0.0
O88 O 0.8147 0.18716 0.62351 0.0
C89 C 0.77421 0.18965 0.6203 0.0
C90 C 0.81134 0.12556 0.65692 0.0
C91 C 0.75175 0.20501 0.6348 0.0
C92 C 0.73485 0.21663 0.66914 0.0
C93 C 0.75643 0.20187 0.65557 0.0
C94 C 0.70328 0.23763 0.64132 0.0
C95 C 0.70789 0.23467 0.66217 0.0
C96 C 0.72502 0.22297 0.6278 0.0
C97 C 0.85632 0.13346 0.56947 0.0
C98 C 0.84819 0.15773 0.53951 0.0
C99 C 0.89156 0.12227 0.53847 0.0
C100 C 0.88242 0.11795 0.55864 0.0
C101 C 0.87477 0.14227 0.52861 0.0
C102 C 0.83912 0.15339 0.55979 0.0
C103 C 0.84792 0.12834 0.59079 0.0
O104 O 0.84013 0.14129 0.65174 0.0
O105 O 0.78112 0.12321 0.6436 0.0
O106 O 0.80854 0.12423 0.59566 0.0
O107 O 0.86786 0.14188 0.60395 0.0
H108 H 0.85358 0.08874 0.63857 0.0
H109 H 0.8798 0.05215 0.65447 0.0
H110 H 0.82914 0.07604 0.71129 0.0
H111 H 0.80388 0.11252 0.69538 0.0
H112 H 0.73878 0.21367 0.68507 0.0
H113 H 0.77671 0.18797 0.6613 0.0
H114 H 0.68323 0.25152 0.63542 0.0
H115 H 0.72099 0.22568 0.61183 0.0
H116 H 0.83501 0.17341 0.53248 0.0
H117 H 0.91154 0.10977 0.53053 0.0
H118 H 0.89585 0.10241 0.56582 0.0
H119 H 0.81893 0.16561 0.56793 0.0
C120 C 0.70282 0.35704 0.06267 0.0
C121 C 0.68737 0.37847 0.0547 0.0
C122 C 0.67926 0.35952 1.02166 0.0
C123 C 0.6757 0.3797 0.03439 0.0
C124 C 0.69462 0.3381 0.02988 0.0
C125 C 0.70626 0.33692 0.05011 0.0
U126 U 0.70917 0.37972 0.11761 0.0
O127 O 0.70272 0.3593 0.1456 0.0
O128 O 0.7619 0.37795 0.139 0.0
C129 C 0.74146 0.36385 0.15136 0.0
C130 C 0.71569 0.35508 0.08392 0.0
C131 C 0.76525 0.34372 0.15989 0.0
C132 C 0.79494 0.30364 0.15816 0.0
C133 C 0.77255 0.3224 0.1492 0.0
C134 C 0.80278 0.32743 0.18845 0.0
C135 C 0.81048 0.30597 0.17792 0.0
C136 C 0.78051 0.34604 0.17953 0.0
C137 C 0.65943 0.43973 0.13305 0.0
C138 C 0.65691 0.45477 0.16744 0.0
C139 C 0.62933 0.47873 0.14037 0.0
C140 C 0.64031 0.46084 0.12658 0.0
C141 C 0.63717 0.47591 0.16102 0.0
C142 C 0.6679 0.43682 0.15357 0.0
C143 C 0.66985 0.42104 0.11813 0.0
O144 O 0.74433 0.37044 0.09023 0.0
O145 O 0.68527 0.3518 0.09694 0.0
O146 O 0.65068 0.40032 0.12035 0.0
O147 O 0.70987 0.41887 0.11371 0.0
H148 H 0.68447 0.39424 0.06415 0.0
H149 H 0.66437 0.39655 0.02862 0.0
H150 H 0.69709 0.32206 1.02075 0.0
H151 H 0.71791 0.32017 0.05597 0.0
H152 H 0.80051 0.28746 0.14955 0.0
H153 H 0.761 0.32027 0.134 0.0
H154 H 0.81345 0.32978 0.20378 0.0
H155 H 0.77497 0.36229 0.18808 0.0
H156 H 0.66317 0.45188 0.18321 0.0
H157 H 0.61495 0.4949 0.13479 0.0
H158 H 0.63373 0.46349 0.1108 0.0
H159 H 0.6827 0.42062 0.15886 0.0
C160 C 0.69508 0.59617 0.66205 0.0
C161 C 0.6537 0.59612 0.66945 0.0
C162 C 0.66141 0.55511 0.68132 0.0
C163 C 0.63707 0.57585 0.67889 0.0
C164 C 0.70256 0.55502 0.67363 0.0
C165 C 0.71923 0.57531 0.66421 0.0
U166 U 0.72337 0.64143 0.61992 0.0
O167 O 0.72332 0.68082 0.62119 0.0
O168 O 0.78228 0.66174 0.61576 0.0
C169 C 0.76435 0.68247 0.61933 0.0
C170 C 0.71427 0.61852 0.65405 0.0
C171 C 0.78611 0.6983 0.6339 0.0
C172 C 0.79793 0.71299 0.66797 0.0
C173 C 0.77732 0.69741 0.65453 0.0
C174 C 0.83673 0.73026 0.64035 0.0
C175 C 0.82793 0.72964 0.66104 0.0
C176 C 0.81602 0.71478 0.62696 0.0
C177 C 0.688 0.62756 0.5649 0.0
C178 C 0.66302 0.65134 0.53677 0.0
C179 C 0.69208 0.61203 0.53069 0.0
C180 C 0.69921 0.60941 0.55128 0.0
C181 C 0.67331 0.63288 0.52314 0.0
C182 C 0.6703 0.64873 0.55742 0.0
C183 C 0.69174 0.62288 0.58673 0.0
O184 O 0.7473 0.61616 0.64239 0.0
O185 O 0.68847 0.63528 0.64794 0.0
O186 O 0.67036 0.63673 0.59902 0.0
O187 O 0.72936 0.61765 0.5935 0.0
H188 H 0.63431 0.61192 0.66832 0.0
H189 H 0.60509 0.5765 0.68439 0.0
H190 H 0.72243 0.53951 0.67545 0.0
H191 H 0.75146 0.57482 0.65905 0.0
H192 H 0.79071 0.71181 0.6838 0.0
H193 H 0.75449 0.68471 0.66024 0.0
H194 H 0.85916 0.74302 0.63442 0.0
H195 H 0.8232 0.71579 0.6111 0.0
H196 H 0.64898 0.66776 0.53149 0.0
H197 H 0.69989 0.59728 0.52077 0.0
H198 H 0.71248 0.59281 0.55665 0.0
H199 H 0.66128 0.66308 0.56751 0.0
C200 C 0.80735 0.86902 0.0588 0.0
C201 C 0.8272 0.89058 0.05355 0.0
C202 C 0.83089 0.87763 1.01845 0.0
C203 C 0.83885 0.89485 0.0336 0.0
C204 C 0.8112 0.85598 0.0239 0.0
C205 C 0.79955 0.85176 0.04385 0.0
U206 U 0.79925 0.88742 0.11422 0.0
O207 O 0.74794 0.88239 0.1359 0.0
O208 O 0.80954 0.86634 0.14165 0.0
C209 C 0.77048 0.86869 0.14768 0.0
C210 C 0.79457 0.86428 0.07972 0.0
C211 C 0.74976 0.84709 0.15588 0.0
C212 C 0.69768 0.81495 0.15429 0.0
C213 C 0.71877 0.83422 0.14524 0.0
C214 C 0.73878 0.82095 0.1845 0.0
C215 C 0.70722 0.80816 0.17412 0.0
C216 C 0.75971 0.84014 0.17548 0.0
C217 C 0.84455 0.94892 0.13029 0.0
C218 C 0.84704 0.96386 0.16469 0.0
C219 C 0.87637 0.98762 0.13781 0.0
C220 C 0.86475 0.96988 0.12394 0.0
C221 C 0.86809 0.98478 0.1584 0.0
C222 C 0.83546 0.94604 0.15074 0.0
C223 C 0.83437 0.93019 0.11532 0.0
O224 O 0.8254 0.86148 0.09261 0.0
O225 O 0.76418 0.87775 0.08678 0.0
O226 O 0.79427 0.92662 0.11158 0.0
O227 O 0.85565 0.9102 0.11683 0.0
H228 H 0.83368 0.90411 0.06489 0.0
H229 H 0.85444 0.91158 0.03008 0.0
H230 H 0.80404 0.84244 1.01268 0.0
H231 H 0.7842 0.83501 0.04759 0.0
H232 H 0.67394 0.80536 0.14575 0.0
H233 H 0.71051 0.83923 0.13008 0.0
H234 H 0.7466 0.81658 0.19985 0.0
H235 H 0.78324 0.84993 0.18403 0.0
H236 H 0.84046 0.96099 0.18043 0.0
H237 H 0.89185 1.00362 0.13236 0.0
H238 H 0.87189 0.97246 0.10821 0.0
H239 H 0.81991 0.92993 0.15593 0.0
C240 C 0.19113 0.9237 0.37679 0.0
C241 C 0.16505 0.93933 0.38758 0.0
C242 C 0.15945 0.96542 0.35837 0.0
C243 C 0.14929 0.96 0.37844 0.0
C244 C 0.18576 0.94964 0.34775 0.0
C245 C 0.20137 0.92904 0.35688 0.0
U246 U 0.21031 0.87903 0.42024 0.0
O247 O 0.20893 0.83961 0.41875 0.0
O248 O 0.26753 0.85835 0.42639 0.0
C249 C 0.24948 0.83773 0.42204 0.0
C250 C 0.20775 0.90157 0.38569 0.0
C251 C 0.27262 0.82213 0.40797 0.0
C252 C 0.30212 0.81383 0.37497 0.0
C253 C 0.27978 0.82891 0.38802 0.0
C254 C 0.3102 0.78504 0.40166 0.0
C255 C 0.31777 0.7917 0.38164 0.0
C256 C 0.2879 0.8001 0.41466 0.0
C257 C 0.16782 0.89191 0.47372 0.0
C258 C 0.1708 0.86466 0.50207 0.0
C259 C 0.14276 0.90452 0.5066 0.0
C260 C 0.15016 0.90933 0.48633 0.0
C261 C 0.15287 0.88211 0.5148 0.0
C262 C 0.17826 0.86952 0.48172 0.0
C263 C 0.17435 0.89755 0.45232 0.0
O264 O 0.23844 0.90425 0.39873 0.0
O265 O 0.17982 0.88546 0.39112 0.0
O266 O 0.15447 0.88381 0.43928 0.0
O267 O 0.21311 0.90253 0.44693 0.0
H268 H 0.15685 0.93552 0.40301 0.0
H269 H 0.1295 0.97186 0.38715 0.0
H270 H 0.19375 0.95296 0.33223 0.0
H271 H 0.22133 0.91713 0.34828 0.0
H272 H 0.30767 0.81969 0.35974 0.0
H273 H 0.26825 0.84589 0.38258 0.0
H274 H 0.32108 0.76801 0.40728 0.0
H275 H 0.28254 0.7945 0.42998 0.0
H276 H 0.17944 0.84729 0.50786 0.0
H277 H 0.12832 0.91828 0.51576 0.0
H278 H 0.14173 0.92669 0.48043 0.0
H279 H 0.19203 0.85583 0.47224 0.0
C280 C 0.32107 0.66824 0.97818 0.0
C281 C 0.34251 0.64783 0.98473 0.0
C282 C 0.34792 0.66479 1.01857 0.0
C283 C 0.35586 0.64613 1.00475 0.0
C284 C 0.32636 0.68516 1.01181 0.0
C285 C 0.3131 0.68683 0.99185 0.0
U286 U 0.31024 0.6457 0.92365 0.0
O287 O 0.25649 0.64821 0.90294 0.0
O288 O 0.31631 0.6656 0.89542 0.0
C289 C 0.27665 0.66239 0.8905 0.0
C290 C 0.30686 0.67066 0.95723 0.0
C291 C 0.25355 0.68348 0.88275 0.0
C292 C 0.18793 0.70137 0.87152 0.0
C293 C 0.20951 0.68286 0.88106 0.0
C294 C 0.25381 0.72176 0.8653 0.0
C295 C 0.20982 0.72091 0.86326 0.0
C296 C 0.2754 0.70325 0.87484 0.0
C297 C 0.3563 0.58518 0.90722 0.0
C298 C 0.33287 0.55536 0.8827 0.0
C299 C 0.40706 0.56018 0.8897 0.0
C300 C 0.39797 0.57828 0.90363 0.0
C301 C 0.37462 0.5484 0.87915 0.0
C302 C 0.32379 0.57362 0.89652 0.0
C303 C 0.34764 0.60391 0.92252 0.0
O304 O 0.33662 0.67339 0.94377 0.0
O305 O 0.27705 0.65577 0.95139 0.0
O306 O 0.30825 0.60669 0.92795 0.0
O307 O 0.36782 0.62432 0.92027 0.0
H308 H 0.3489 0.63326 0.97438 0.0
H309 H 0.37201 0.6301 1.00944 0.0
H310 H 0.32031 0.70006 1.02186 0.0
H311 H 0.29675 0.70276 0.98706 0.0
H312 H 0.15403 0.70024 0.87047 0.0
H313 H 0.19168 0.66777 0.8867 0.0
H314 H 0.27181 0.73633 0.85889 0.0
H315 H 0.30936 0.70415 0.87549 0.0
H316 H 0.3072 0.5468 0.87468 0.0
H317 H 0.43951 0.55505 0.88752 0.0
H318 H 0.42357 0.58678 0.91175 0.0
H319 H 0.2913 0.57854 0.89888 0.0
Tb320 Tb 0.05582 0.15143 0.25463 0.0
C321 C 0.86304 0.1416 0.28141 0.0
N322 N 0.89128 0.15937 0.28525 0.0
C323 C 0.83838 0.18889 0.27931 0.0
C324 C 0.82137 0.14679 0.27589 0.0
C325 C 0.87927 0.1828 0.28494 0.0
C326 C 0.80939 0.17081 0.27457 0.0
C327 C 0.84719 0.09907 0.28062 0.0
C328 C 0.87567 0.11811 0.28376 0.0
C329 C 0.80585 0.10407 0.27461 0.0
C330 C 0.79297 0.12787 0.27224 0.0
Tb331 Tb 0.95755 0.14726 0.29307 0.0
N332 N 0.91618 0.11399 0.28914 0.0
C333 C 0.86108 0.07565 0.28379 0.0
C334 C 0.92929 0.09131 0.29335 0.0
C335 C 0.90217 0.07179 0.2904 0.0
H336 H 0.90114 0.19675 0.2893 0.0
H337 H 0.91293 0.05378 0.29327 0.0
H338 H 0.13296 0.12244 0.27689 0.0
H339 H 0.03619 0.24534 0.23645 0.0
H340 H 0.96084 0.08818 0.29857 0.0
H341 H 0.84019 0.06049 0.2815 0.0
H342 H 0.02145 0.20234 0.23336 0.0
H343 H 0.82914 0.2075 0.27882 0.0
H344 H 0.78349 0.08968 0.27199 0.0
H345 H 0.76084 0.13147 0.26787 0.0
H346 H 0.19938 0.13263 0.29429 0.0
H347 H 0.77766 0.17558 0.27034 0.0
H348 H 0.09669 0.25945 0.25672 0.0
N349 N 0.11787 0.15869 0.27068 0.0
C350 C 0.13003 0.18201 0.27198 0.0
C351 C 0.18009 0.14669 0.28813 0.0
C352 C 0.16746 0.18866 0.28191 0.0
C353 C 0.14243 0.14097 0.27833 0.0
C354 C 0.19259 0.17064 0.29001 0.0
N355 N 0.06769 0.19205 0.25469 0.0
C356 C 0.04535 0.20817 0.24371 0.0
C357 C 0.11495 0.2237 0.26538 0.0
C358 C 0.10374 0.19926 0.26404 0.0
C359 C 0.08921 0.24051 0.25606 0.0
C360 C 0.05481 0.23264 0.24478 0.0
H361 H 0.22158 0.17501 0.29777 0.0
H362 H 0.20655 0.21852 0.29149 0.0
H363 H 0.16077 0.2492 0.27688 0.0
O364 O 0.06565 0.15979 0.22412 0.0
O365 O 0.0601 0.16046 0.28691 0.0
O366 O 0.99812 0.17892 0.29323 0.0
O367 O 0.10468 0.13442 0.23885 0.0
O368 O 0.9934 0.16411 0.24494 0.0
O369 O 0.96634 0.17878 0.27434 0.0
O370 O 0.97751 0.14035 0.32262 0.0
O371 O 0.95071 0.12563 0.26539 0.0
O372 O 0.01493 0.12065 0.24879 0.0
O373 O 0.91789 0.15671 0.31708 0.0
O374 O 0.01071 0.12306 0.29839 0.0
O375 O 0.05454 0.11717 0.27047 0.0
C376 C 0.03869 0.17726 0.29608 0.0
C377 C 0.09009 0.12749 0.20447 0.0
C378 C 0.09424 0.1195 0.16825 0.0
C379 C 0.07917 0.09613 0.17173 0.0
C380 C 0.07528 0.10406 0.20739 0.0
C381 C 0.06974 0.08856 0.19112 0.0
C382 C 0.09966 0.13515 0.18486 0.0
C383 C 0.96628 0.17762 0.25466 0.0
C384 C 0.09501 0.144 0.22179 0.0
C385 C 0.17811 0.21302 0.28376 0.0
C386 C 0.1519 0.23049 0.27553 0.0
C387 C 0.97524 0.11507 0.25211 0.0
C388 C 0.95177 0.16695 0.34739 0.0
C389 C 0.94943 0.17644 0.38334 0.0
C390 C 0.96615 0.19926 0.37912 0.0
C391 C 0.96768 0.18991 0.34361 0.0
C392 C 0.94239 0.1603 0.36726 0.0
C393 C 0.97512 0.20589 0.35942 0.0
C394 C 0.04018 0.11128 0.28844 0.0
C395 C 0.94435 0.14996 0.33072 0.0
H396 H 0.07532 0.08347 0.15948 0.0
H397 H 0.06825 0.09771 0.22229 0.0
H398 H 0.05834 0.07051 0.19356 0.0
H399 H 0.11081 0.15329 0.18255 0.0
H400 H 0.97151 0.21221 0.39104 0.0
H401 H 0.97396 0.19553 0.32843 0.0
H402 H 0.92998 0.14255 0.37017 0.0
H403 H 0.98754 0.22358 0.35636 0.0
Tb404 Tb 0.46042 0.37673 0.75289 0.0
C405 C 0.62687 0.41813 0.78459 0.0
N406 N 0.6167 0.39488 0.78093 0.0
C407 C 0.68149 0.38937 0.76324 0.0
C408 C 0.66404 0.42831 0.77692 0.0
C409 C 0.64402 0.38015 0.77109 0.0
C410 C 0.6913 0.41363 0.76594 0.0
C411 C 0.60976 0.45554 0.80108 0.0
C412 C 0.60003 0.43148 0.7964 0.0
C413 C 0.64571 0.46623 0.79269 0.0
C414 C 0.67287 0.45261 0.78066 0.0
Tb415 Tb 0.55468 0.38159 0.79394 0.0
N416 N 0.56603 0.42034 0.80444 0.0
C417 C 0.58403 0.46776 0.81467 0.0
C418 C 0.54373 0.43142 0.81931 0.0
C419 C 0.55141 0.45546 0.82417 0.0
H420 H 0.63666 0.36139 0.76911 0.0
H421 H 0.53269 0.46434 0.83552 0.0
H422 H 0.38832 0.4143 0.77252 0.0
H423 H 0.44615 0.28391 0.73169 0.0
H424 H 0.52047 0.42166 0.82776 0.0
H425 H 0.59033 0.48628 0.81866 0.0
H426 H 0.4783 0.32443 0.7319 0.0
H427 H 0.70274 0.37778 0.75511 0.0
H428 H 0.65347 0.48478 0.79591 0.0
H429 H 0.70099 0.4609 0.77468 0.0
H430 H 0.32348 0.41074 0.79214 0.0
H431 H 0.72024 0.42074 0.75979 0.0
H432 H 0.38184 0.27609 0.75154 0.0
N433 N 0.39738 0.37655 0.76973 0.0
C434 C 0.37869 0.35472 0.77164 0.0
C435 C 0.3391 0.39477 0.78678 0.0
C436 C 0.34046 0.35191 0.78203 0.0
C437 C 0.37667 0.39665 0.77602 0.0
C438 C 0.32131 0.37225 0.79014 0.0
N439 N 0.43333 0.33888 0.75208 0.0
C440 C 0.4504 0.32102 0.74066 0.0
C441 C 0.37739 0.31258 0.76252 0.0
C442 C 0.39678 0.3353 0.76211 0.0
C443 C 0.39579 0.29383 0.75165 0.0
C444 C 0.43217 0.29816 0.74046 0.0
H445 H 0.29193 0.37088 0.79826 0.0
H446 H 0.29277 0.32651 0.79149 0.0
H447 H 0.32513 0.29205 0.77434 0.0
O448 O 0.46892 0.3747 0.72144 0.0
O449 O 0.47611 0.34748 0.7737 0.0
O450 O 0.49397 0.36656 0.80282 0.0
O451 O 0.41265 0.3892 0.73384 0.0
O452 O 0.52204 0.36324 0.7436 0.0
O453 O 0.55805 0.35128 0.77241 0.0
O454 O 0.58416 0.38373 0.82231 0.0
O455 O 0.56266 0.3967 0.76362 0.0
O456 O 0.49737 0.40998 0.75409 0.0
O457 O 0.58281 0.35074 0.8058 0.0
O458 O 0.49213 0.39559 0.80187 0.0
O459 O 0.46194 0.40887 0.77236 0.0
C460 C 0.47484 0.34899 0.79333 0.0
C461 C 0.40635 0.36907 0.70263 0.0
C462 C 0.38561 0.36088 0.66772 0.0
C463 C 0.35734 0.34335 0.67469 0.0
C464 C 0.37734 0.35173 0.70903 0.0
C465 C 0.35332 0.33886 0.69515 0.0
C466 C 0.41023 0.37371 0.6819 0.0
C467 C 0.55003 0.34982 0.75288 0.0
C468 C 0.43167 0.38277 0.71747 0.0
C469 C 0.3219 0.32906 0.78338 0.0
C470 C 0.34026 0.30945 0.77356 0.0
C471 C 0.5385 0.41244 0.75472 0.0
C472 C 0.57628 0.34848 0.84131 0.0
C473 C 0.57692 0.34376 0.87796 0.0
C474 C 0.54565 0.32596 0.87597 0.0
C475 C 0.54507 0.33064 0.83994 0.0
C476 C 0.59231 0.35489 0.86042 0.0
C477 C 0.52995 0.31952 0.85714 0.0
C478 C 0.46838 0.41068 0.79189 0.0
C479 C 0.59117 0.3609 0.82301 0.0
H480 H 0.33742 0.33345 0.66434 0.0
H481 H 0.37267 0.34833 0.72477 0.0
H482 H 0.33103 0.32555 0.70029 0.0
H483 H 0.43232 0.38722 0.67687 0.0
H484 H 0.53362 0.31671 0.88901 0.0
H485 H 0.53223 0.32525 0.82555 0.0
H486 H 0.61609 0.3688 0.86161 0.0
H487 H 0.50592 0.30579 0.85587 0.0
Tb488 Tb 0.05747 0.88337 0.74901 0.0
C489 C 0.89249 0.84452 0.78242 0.0
N490 N 0.90364 0.86771 0.77955 0.0
C491 C 0.83764 0.8752 0.7635 0.0
C492 C 0.85414 0.83536 0.77506 0.0
C493 C 0.87629 0.88339 0.77098 0.0
C494 C 0.82676 0.851 0.76529 0.0
C495 C 0.90871 0.80619 0.79711 0.0
C496 C 0.91945 0.83023 0.79322 0.0
C497 C 0.87148 0.79651 0.78898 0.0
C498 C 0.84419 0.81109 0.778 0.0
Tb499 Tb 0.96732 0.87937 0.79194 0.0
N500 N 0.95472 0.84043 0.80107 0.0
C501 C 0.93485 0.79294 0.80969 0.0
C502 C 0.97791 0.82824 0.81487 0.0
C503 C 0.96913 0.80418 0.81894 0.0
H504 H 0.88466 0.90208 0.76963 0.0
H505 H 0.98836 0.79446 0.82948 0.0
H506 H 0.12647 0.8403 0.76074 0.0
H507 H 0.08704 0.97626 0.73285 0.0
H508 H 1.00277 0.83707 0.82312 0.0
H509 H 0.92777 0.7744 0.81306 0.0
H510 H 0.04778 0.9378 0.73131 0.0
H511 H 0.81634 0.88753 0.75634 0.0
H512 H 0.86291 0.778 0.79161 0.0
H513 H 0.8151 0.80358 0.77223 0.0
H514 H 0.19491 0.83792 0.77777 0.0
H515 H 0.7969 0.84469 0.75942 0.0
H516 H 0.15407 0.97884 0.75169 0.0
N517 N 0.12314 0.87838 0.76266 0.0
C518 C 0.14557 0.89882 0.76592 0.0
C519 C 0.18106 0.85521 0.77488 0.0
C520 C 0.18581 0.89836 0.77475 0.0
C521 C 0.14165 0.85665 0.76566 0.0
C522 C 0.20288 0.87619 0.77986 0.0
N523 N 0.09154 0.9194 0.74959 0.0
C524 C 0.07697 0.93893 0.73954 0.0
C525 C 0.15303 0.94145 0.76011 0.0
C526 C 0.12962 0.92003 0.75873 0.0
C527 C 0.13699 0.96202 0.75103 0.0
C528 C 0.09916 0.96063 0.74037 0.0
H529 H 0.23368 0.87503 0.7867 0.0
H530 H 0.23918 0.91994 0.78427 0.0
H531 H 0.21041 0.95772 0.77142 0.0
O532 O 0.04171 0.88716 0.71848 0.0
O533 O 0.04888 0.91277 0.77106 0.0
O534 O 0.03 0.89275 0.79938 0.0
O535 O 0.10123 0.87299 0.7269 0.0
O536 O 0.99707 0.90033 0.74223 0.0
O537 O 0.96499 0.91107 0.77244 0.0
O538 O 0.94115 0.87749 0.82139 0.0
O539 O 0.95546 0.86662 0.76098 0.0
O540 O 0.01824 0.85104 0.75042 0.0
O541 O 0.94278 0.91076 0.80465 0.0
O542 O 0.02971 0.86412 0.79828 0.0
O543 O 0.05521 0.85078 0.76769 0.0
C544 C 0.04721 0.91133 0.79071 0.0
C545 C 0.07266 0.85973 0.69603 0.0
C546 C 0.07873 0.84839 0.66052 0.0
C547 C 0.06386 0.82534 0.6654 0.0
C548 C 0.0581 0.83665 0.70044 0.0
C549 C 0.05365 0.81959 0.68518 0.0
C550 C 0.08306 0.86554 0.67608 0.0
C551 C 0.97231 0.91424 0.75308 0.0
C552 C 0.07655 0.87798 0.71203 0.0
C553 C 0.20841 0.91988 0.7773 0.0
C554 C 0.19208 0.94139 0.76995 0.0
C555 C 0.97695 0.85047 0.75093 0.0
C556 C 0.91101 0.9132 0.83775 0.0
C557 C 0.89054 0.91772 0.87309 0.0
C558 C 0.87329 0.94017 0.86851 0.0
C559 C 0.89353 0.93573 0.83379 0.0
C560 C 0.90895 0.90404 0.85748 0.0
C561 C 0.87467 0.949 0.84903 0.0
C562 C 0.05239 0.84915 0.78741 0.0
C563 C 0.93214 0.90014 0.82119 0.0
H564 H 0.06068 0.81159 0.65395 0.0
H565 H 0.05029 0.83185 0.71569 0.0
H566 H 0.04238 0.80178 0.68871 0.0
H567 H 0.0939 0.8835 0.67269 0.0
H568 H 0.85836 0.9509 0.88004 0.0
H569 H 0.89442 0.94317 0.81883 0.0
H570 H 0.92262 0.88678 0.8608 0.0
H571 H 0.86122 0.9663 0.84576 0.0
Tb572 Tb 0.46585 0.6486 0.2514 0.0
C573 C 0.65046 0.66825 0.27468 0.0
N574 N 0.63064 0.64668 0.2759 0.0
C575 C 0.69043 0.6273 0.26135 0.0
C576 C 0.69094 0.67023 0.26631 0.0
C577 C 0.65008 0.62625 0.26958 0.0
C578 C 0.71091 0.64938 0.25963 0.0
C579 C 0.64813 0.71133 0.27948 0.0
C580 C 0.62915 0.68855 0.28108 0.0
C581 C 0.68849 0.71341 0.27113 0.0
C582 C 0.70984 0.69292 0.26458 0.0
Tb583 Tb 0.56473 0.64733 0.28919 0.0
N584 N 0.58941 0.68596 0.28836 0.0
C585 C 0.62598 0.73133 0.28632 0.0
C586 C 0.56902 0.70523 0.29633 0.0
C587 C 0.58653 0.7282 0.29507 0.0
H588 H 0.63484 0.60905 0.27115 0.0
H589 H 0.56983 0.74345 0.30112 0.0
H590 H 0.40508 0.69537 0.2614 0.0
H591 H 0.43273 0.55377 0.24627 0.0
H592 H 0.54 0.70312 0.30427 0.0
H593 H 0.63943 0.74915 0.28536 0.0
H594 H 0.47598 0.59021 0.24268 0.0
H595 H 0.70573 0.61106 0.25635 0.0
H596 H 0.70345 0.73078 0.26968 0.0
H597 H 0.74087 0.69482 0.25811 0.0
H598 H 0.33287 0.70226 0.27357 0.0
H599 H 0.74205 0.65014 0.25312 0.0
H600 H 0.35958 0.5568 0.25853 0.0
N601 N 0.39909 0.65745 0.26137 0.0
C602 C 0.37285 0.6384 0.26369 0.0
C603 C 0.34383 0.68418 0.27101 0.0
C604 C 0.33111 0.64146 0.27016 0.0
C605 C 0.38495 0.68022 0.26445 0.0
C606 C 0.31685 0.66471 0.27401 0.0
N607 N 0.42886 0.61355 0.25381 0.0
C608 C 0.44455 0.59176 0.24838 0.0
C609 C 0.36193 0.59542 0.26158 0.0
C610 C 0.38798 0.61571 0.25944 0.0
C611 C 0.37853 0.57287 0.25705 0.0
C612 C 0.41988 0.57107 0.25021 0.0
H613 H 0.28498 0.66784 0.27903 0.0
H614 H 0.27286 0.62325 0.27753 0.0
H615 H 0.29989 0.58293 0.27005 0.0
O616 O 0.47421 0.63919 0.22101 0.0
O617 O 0.45785 0.62847 0.27967 0.0
O618 O 0.5233 0.61607 0.29089 0.0
O619 O 0.42679 0.66429 0.22967 0.0
O620 O 0.52276 0.62881 0.24269 0.0
O621 O 0.55792 0.61469 0.27081 0.0
O622 O 0.56775 0.65624 0.31994 0.0
O623 O 0.57141 0.66204 0.25865 0.0
O624 O 0.50821 0.6797 0.2518 0.0
O625 O 0.60787 0.62928 0.30763 0.0
O626 O 0.50475 0.66298 0.29928 0.0
O627 O 0.47558 0.67966 0.27103 0.0
C628 C 0.48207 0.61424 0.29027 0.0
C629 C 0.45681 0.669 0.19759 0.0
C630 C 0.45415 0.67747 0.16157 0.0
C631 C 0.47933 0.69791 0.16502 0.0
C632 C 0.48147 0.68956 0.20057 0.0
C633 C 0.49284 0.70386 0.18437 0.0
C634 C 0.44305 0.66302 0.17808 0.0
C635 C 0.54703 0.61306 0.25168 0.0
C636 C 0.44533 0.65374 0.21471 0.0
C637 C 0.30501 0.62128 0.2725 0.0
C638 C 0.32039 0.59832 0.26822 0.0
C639 C 0.54922 0.67867 0.24978 0.0
C640 C 0.58572 0.62446 0.34127 0.0
C641 C 0.58718 0.61702 0.3775 0.0
C642 C 0.5644 0.59568 0.37413 0.0
C643 C 0.56329 0.60303 0.33842 0.0
C644 C 0.59788 0.63136 0.36085 0.0
C645 C 0.55265 0.58878 0.35475 0.0
C646 C 0.47871 0.67805 0.29065 0.0
C647 C 0.59542 0.63993 0.32395 0.0
H648 H 0.48794 0.70964 0.15281 0.0
H649 H 0.4916 0.69462 0.21546 0.0
H650 H 0.5119 0.71973 0.18685 0.0
H651 H 0.42405 0.64707 0.17577 0.0
H652 H 0.55617 0.58406 0.38648 0.0
H653 H 0.55412 0.5973 0.32355 0.0
H654 H 0.615 0.648 0.36313 0.0
H655 H 0.53531 0.57226 0.35236 0.0
H656 H 0.20007 0.99601 0.33267 0.0
H657 H 0.08014 0.98418 0.36126 0.0
H658 H 0.17182 0.0309 0.31565 0.0
H659 H 0.05183 0.01902 0.3442 0.0
H660 H 0.02729 0.09643 0.32703 0.0
H661 H 0.05647 0.06185 0.34375 0.0
H662 H 0.12318 0.04263 0.28965 0.0
H663 H 0.09449 0.07769 0.27289 0.0
C664 C 0.16756 1.00073 0.33523 0.0
C665 C 0.14243 0.9872 0.34838 0.0
C666 C 0.15132 0.02076 0.32542 0.0
C667 C 0.10947 0.02785 0.32847 0.0
C668 C 0.08439 0.01437 0.34168 0.0
C669 C 0.10065 0.99436 0.35152 0.0
C670 C 0.04813 0.08489 0.31859 0.0
C671 C 0.05841 0.08998 0.29852 0.0
C672 C 0.06474 0.0649 0.32822 0.0
C673 C 0.0921 0.04929 0.31809 0.0
C674 C 0.10259 0.05438 0.29803 0.0
C675 C 0.08597 0.07447 0.28836 0.0
H676 H 0.33439 0.50515 0.8751 0.0
H677 H 0.43709 0.54674 0.85097 0.0
H678 H 0.3523 0.47195 0.85266 0.0
H679 H 0.45545 0.51339 0.8288 0.0
H680 H 0.4548 0.45635 0.77936 0.0
H681 H 0.42855 0.49008 0.79933 0.0
H682 H 0.41113 0.44307 0.84987 0.0
H683 H 0.43712 0.40946 0.82985 0.0
C684 C 0.36053 0.50729 0.86487 0.0
C685 C 0.38437 0.52858 0.86486 0.0
C686 C 0.371 0.4882 0.85214 0.0
C687 C 0.40532 0.49002 0.83896 0.0
C688 C 0.42858 0.5115 0.83863 0.0
C689 C 0.41833 0.53051 0.85148 0.0
C690 C 0.44471 0.45323 0.79463 0.0
C691 C 0.44821 0.4304 0.80314 0.0
C692 C 0.43007 0.47254 0.80612 0.0
C693 C 0.41801 0.46928 0.82623 0.0
C694 C 0.41988 0.44617 0.8344 0.0
C695 C 0.43492 0.42695 0.82299 0.0
H696 H 0.67097 0.50731 0.67235 0.0
H697 H 0.61355 0.55497 0.71548 0.0
H698 H 0.6427 0.47292 0.6904 0.0
H699 H 0.58543 0.52068 0.73351 0.0
H700 H 0.50265 0.4556 0.74725 0.0
H701 H 0.53299 0.48971 0.72974 0.0
H702 H 0.64838 0.45053 0.72139 0.0
H703 H 0.61709 0.416 0.73821 0.0
C704 C 0.65262 0.51047 0.68577 0.0
C705 C 0.64435 0.53398 0.69235 0.0
C706 C 0.63645 0.49073 0.69616 0.0
C707 C 0.61161 0.49396 0.71341 0.0
C708 C 0.60374 0.51747 0.72009 0.0
C709 C 0.61985 0.53718 0.70971 0.0
C710 C 0.53447 0.45425 0.74164 0.0
C711 C 0.55767 0.43319 0.74433 0.0
C712 C 0.55205 0.47391 0.73175 0.0
C713 C 0.59328 0.473 0.7242 0.0
C714 C 0.61645 0.45184 0.72685 0.0
C715 C 0.59877 0.43215 0.73675 0.0
H716 H 0.82623 1.0025 0.19143 0.0
H717 H 0.94285 1.0091 0.15885 0.0
H718 H 0.85058 0.03305 0.21536 0.0
H719 H 0.96645 0.03997 0.18221 0.0
H720 H 0.01614 0.07565 0.2384 0.0
H721 H 0.98934 0.04388 0.21666 0.0
H722 H 0.86646 0.07628 0.21781 0.0
H723 H 0.89379 0.10843 0.23947 0.0
C724 C 0.85705 1.01041 0.18939 0.0
C725 C 0.88251 1.00333 0.17316 0.0
C726 C 0.87083 0.0281 0.20299 0.0
C727 C 0.91054 0.03896 0.20077 0.0
C728 C 0.93593 0.03181 0.18457 0.0
C729 C 0.92215 0.01426 0.17099 0.0
C730 C 0.98359 0.07623 0.23375 0.0
C731 C 0.95743 0.09493 0.24017 0.0
C732 C 0.9681 0.05791 0.22138 0.0
C733 C 0.92587 0.05769 0.21517 0.0
C734 C 0.89913 0.07586 0.22231 0.0
C735 C 0.91477 0.0943 0.2347 0.0
H736 H 0.89446 0.05758 0.72101 0.0
H737 H 0.85539 0.01492 0.66993 0.0
H738 H 0.91984 0.0217 0.73755 0.0
H739 H 0.88075 0.97894 0.68652 0.0
H740 H 0.97412 0.92508 0.71306 0.0
H741 H 0.94554 0.96008 0.69657 0.0
H742 H 0.89568 0.98505 0.75316 0.0
H743 H 0.92521 0.95024 0.76985 0.0
C744 C 0.8909 0.0405 0.71337 0.0
C745 C 0.87277 0.03917 0.69413 0.0
C746 C 0.90541 0.01989 0.72289 0.0
C747 C 0.90222 0.99736 0.71344 0.0
C748 C 0.8842 0.99602 0.69416 0.0
C749 C 0.8697 0.01666 0.68462 0.0
C750 C 0.95695 0.93795 0.72204 0.0
C751 C 0.95226 0.93482 0.74286 0.0
C752 C 0.94029 0.958 0.71251 0.0
C753 C 0.91839 0.97548 0.72351 0.0
C754 C 0.91292 0.97213 0.74426 0.0
C755 C 0.92961 0.95205 0.75382 0.0
H756 H 0.67993 0.49274 0.19432 0.0
H757 H 0.56484 0.50216 0.161 0.0
H758 H 0.65975 0.52535 0.21702 0.0
H759 H 0.54491 0.53459 0.1835 0.0
H760 H 0.54483 0.60873 0.21089 0.0
H761 H 0.56733 0.57533 0.1902 0.0
H762 H 0.60851 0.53783 0.24307 0.0
H763 H 0.58605 0.57165 0.26402 0.0
C764 C 0.65016 0.50156 0.19194 0.0
C765 C 0.62429 0.49495 0.17563 0.0
C766 C 0.6386 0.52027 0.20496 0.0
C767 C 0.60094 0.53284 0.20196 0.0
C768 C 0.57462 0.52573 0.186 0.0
C769 C 0.5861 0.50709 0.17305 0.0
C770 C 0.5587 0.59344 0.21823 0.0
C771 C 0.56341 0.59294 0.23921 0.0
C772 C 0.57145 0.57416 0.2063 0.0
C773 C 0.58929 0.5537 0.21494 0.0
C774 C 0.59507 0.55335 0.23589 0.0
C775 C 0.58217 0.57274 0.24791 0.0
H776 H 0.31409 0.50282 0.33549 0.0
H777 H 0.43003 0.49294 0.36804 0.0
H778 H 0.34494 0.53691 0.31811 0.0
H779 H 0.4603 0.52764 0.35125 0.0
H780 H 0.51706 0.57138 0.30004 0.0
H781 H 0.48508 0.53831 0.3182 0.0
H782 H 0.36917 0.57785 0.32262 0.0
H783 H 0.40149 0.61111 0.30452 0.0
C784 C 0.34613 0.50794 0.339 0.0
C785 C 0.36961 0.49495 0.35311 0.0
C786 C 0.36368 0.5277 0.32918 0.0
C787 C 0.40521 0.53502 0.33318 0.0
C788 C 0.42842 0.52232 0.34757 0.0
C789 C 0.41086 0.50258 0.35741 0.0
C790 C 0.48494 0.57318 0.30514 0.0
C791 C 0.46205 0.59405 0.3011 0.0
C792 C 0.46655 0.55418 0.31556 0.0
C793 C 0.42461 0.55543 0.32208 0.0
C794 C 0.40145 0.57617 0.31773 0.0
C795 C 0.41998 0.59527 0.30738 0.0
H796 H 0.17537 0.99985 0.88042 0.0
H797 H 0.0911 0.04854 0.85076 0.0
H798 H 0.15315 0.96775 0.85777 0.0
H799 H 0.06865 0.01637 0.82813 0.0
H800 H 0.06297 0.95778 0.77988 0.0
H801 H 0.09013 0.99037 0.80085 0.0
H802 H 0.09238 0.94288 0.85174 0.0
H803 H 0.06707 0.91015 0.83053 0.0
C804 C 0.15196 1.0037 0.86911 0.0
C805 C 0.13486 0.02679 0.86753 0.0
C806 C 0.13916 0.98526 0.85611 0.0
C807 C 0.10883 0.98935 0.84117 0.0
C808 C 0.09242 1.01259 0.83928 0.0
C809 C 0.10529 0.03107 0.85228 0.0
C810 C 0.07008 0.9542 0.79543 0.0
C811 C 0.06351 0.93126 0.80341 0.0
C812 C 0.08507 0.97299 0.80756 0.0
C813 C 0.09363 0.96931 0.82803 0.0
C814 C 0.08685 0.94633 0.83599 0.0
C815 C 0.07195 0.92758 0.82385 0.0
H816 H 0.14667 0.11197 0.041 0.0
H817 H 0.1827 0.18467 0.0559 0.0
H818 H 0.12481 0.10566 0.07556 0.0
H819 H 0.16133 0.17817 0.09058 0.0
H820 H 0.16148 0.14649 0.15526 0.0
H821 H 0.18135 0.15548 0.12068 0.0
H822 H 0.07068 0.11823 0.09927 0.0
H823 H 0.05067 0.10945 0.13368 0.0
C824 C 0.14959 0.12672 0.05155 0.0
C825 C 0.16648 0.14886 0.0455 0.0
C826 C 0.13707 0.12307 0.07144 0.0
C827 C 0.14119 0.14142 0.08591 0.0
C828 C 0.15818 0.16354 0.07992 0.0
C829 C 0.17053 0.16724 0.05999 0.0
C830 C 0.14103 0.14055 0.1432 0.0
C831 C 0.10469 0.127 0.14733 0.0
C832 C 0.15248 0.14567 0.12334 0.0
C833 C 0.12791 0.13733 0.10713 0.0
C834 C 0.09088 0.12447 0.11132 0.0
C835 C 0.07939 0.11945 0.13111 0.0
H836 H 0.32069 0.41732 0.55119 0.0
H837 H 0.40086 0.35781 0.53597 0.0
H838 H 0.3336 0.41041 0.58671 0.0
H839 H 0.41405 0.35097 0.57153 0.0
H840 H 0.3855 0.32866 0.63657 0.0
H841 H 0.37938 0.33666 0.60087 0.0
H842 H 0.3853 0.41269 0.61308 0.0
H843 H 0.38976 0.4046 0.64903 0.0
C844 C 0.34146 0.4029 0.5554 0.0
C845 C 0.35961 0.38809 0.54063 0.0
C846 C 0.349 0.39898 0.57582 0.0
C847 C 0.37498 0.38014 0.58211 0.0
C848 C 0.39338 0.36543 0.56733 0.0
C849 C 0.38575 0.36933 0.54689 0.0
C850 C 0.38557 0.34711 0.63167 0.0
C851 C 0.38768 0.36598 0.64576 0.0
C852 C 0.38247 0.35171 0.61111 0.0
C853 C 0.38151 0.37535 0.60397 0.0
C854 C 0.38524 0.39426 0.61801 0.0
C855 C 0.38838 0.38963 0.63863 0.0
H856 H 0.61208 0.38294 1.00488 0.0
H857 H 0.71754 0.33828 0.98919 0.0
H858 H 0.58954 0.38275 0.96991 0.0
H859 H 0.69394 0.33718 0.95444 0.0
H860 H 0.65862 0.35232 0.88982 0.0
H861 H 0.68493 0.35922 0.92389 0.0
H862 H 0.55797 0.3556 0.94652 0.0
H863 H 0.5318 0.34969 0.91257 0.0
C864 C 0.6307 0.37321 0.99398 0.0
C865 C 0.66654 0.36048 1.00002 0.0
C866 C 0.61746 0.37287 0.9739 0.0
C867 C 0.63966 0.3598 0.95923 0.0
C868 C 0.67615 0.34763 0.96518 0.0
C869 C 0.68939 0.34798 0.98524 0.0
C870 C 0.63631 0.35345 0.90203 0.0
C871 C 0.5931 0.35022 0.8984 0.0
C872 C 0.65142 0.35712 0.92164 0.0
C873 C 0.62369 0.35779 0.93811 0.0
C874 C 0.58037 0.35542 0.93431 0.0
C875 C 0.56534 0.35173 0.91479 0.0
H876 H 0.95115 0.13744 0.51017 0.0
H877 H 0.82283 0.1577 0.49836 0.0
H878 H 0.96878 0.14413 0.47511 0.0
H879 H 0.84084 0.16514 0.46329 0.0
H880 H 0.87931 0.15303 0.39737 0.0
H881 H 0.8611 0.14419 0.43221 0.0
H882 H 0.9773 0.17703 0.45193 0.0
H883 H 0.99589 0.18525 0.41721 0.0
C884 C 0.92661 0.14327 0.50009 0.0
C885 C 0.88549 0.14696 0.50716 0.0
C886 C 0.93686 0.14735 0.47998 0.0
C887 C 0.90629 0.15521 0.46631 0.0
C888 C 0.86511 0.15886 0.47334 0.0
C889 C 0.85488 0.15487 0.49351 0.0
C890 C 0.90118 0.15807 0.40914 0.0
C891 C 0.93904 0.16989 0.40446 0.0
C892 C 0.89053 0.15326 0.42914 0.0
C893 C 0.91763 0.15996 0.44494 0.0
C894 C 0.95579 0.17141 0.44019 0.0
C895 C 0.9663 0.17633 0.42025 0.0
H896 H 0.86353 0.84636 0.99039 0.0
H897 H 0.82391 0.91972 0.99781 0.0
H898 H 0.88177 0.85439 0.95546 0.0
H899 H 0.84202 0.9277 0.96307 0.0
H900 H 0.91304 0.94273 0.90662 0.0
H901 H 0.90154 0.93204 0.94152 0.0
H902 H 0.85176 0.86334 0.92268 0.0
H903 H 0.8641 0.87407 0.88753 0.0
C904 C 0.85845 0.86417 0.98458 0.0
C905 C 0.8424 0.88241 0.99706 0.0
C906 C 0.86895 0.86877 0.96451 0.0
C907 C 0.86374 0.89175 0.95637 0.0
C908 C 0.84743 0.90991 0.96885 0.0
C909 C 0.83699 0.90533 0.98886 0.0
C910 C 0.89997 0.92525 0.90993 0.0
C911 C 0.88905 0.90936 0.89429 0.0
C912 C 0.8931 0.91916 0.92996 0.0
C913 C 0.87487 0.897 0.93501 0.0
C914 C 0.86592 0.88055 0.91941 0.0
C915 C 0.87303 0.88665 0.89925 0.0
H916 H 0.72022 0.61828 0.49071 0.0
H917 H 0.60207 0.65129 0.50602 0.0
H918 H 0.69978 0.61755 0.45543 0.0
H919 H 0.58227 0.65132 0.47067 0.0
H920 H 0.53933 0.61497 0.41148 0.0
H921 H 0.56134 0.62159 0.44607 0.0
H922 H 0.68541 0.64139 0.42567 0.0
H923 H 0.66348 0.6341 0.39091 0.0
C924 C 0.69001 0.62557 0.48655 0.0
C925 C 0.66271 0.63467 0.50132 0.0
C926 C 0.67847 0.62541 0.46625 0.0
C927 C 0.63923 0.63427 0.46013 0.0
C928 C 0.6125 0.64407 0.47482 0.0
C929 C 0.62409 0.6443 0.49512 0.0
C930 C 0.5713 0.62081 0.41434 0.0
C931 C 0.59973 0.62378 0.3984 0.0
C932 C 0.58384 0.62485 0.43421 0.0
C933 C 0.62526 0.63195 0.43876 0.0
C934 C 0.65341 0.63566 0.42276 0.0
C935 C 0.64074 0.63173 0.40281 0.0
H936 H 0.30639 0.67925 0.05258 0.0
H937 H 0.42253 0.64717 0.03291 0.0
H938 H 0.33208 0.67981 0.087 0.0
H939 H 0.44758 0.64681 0.06751 0.0
H940 H 0.49807 0.68048 0.12634 0.0
H941 H 0.47183 0.67522 0.09228 0.0
H942 H 0.34992 0.65564 0.11558 0.0
H943 H 0.37587 0.66182 0.14975 0.0
C944 C 0.33736 0.67219 0.05559 0.0
C945 C 0.36249 0.66337 0.03986 0.0
C946 C 0.35191 0.67222 0.07542 0.0
C947 C 0.39202 0.66341 0.08012 0.0
C948 C 0.41674 0.65402 0.06446 0.0
C949 C 0.40216 0.65397 0.04461 0.0
C950 C 0.46563 0.67507 0.12423 0.0
C951 C 0.43901 0.67181 0.14084 0.0
C952 C 0.45067 0.67177 0.10465 0.0
C953 C 0.40863 0.66509 0.10108 0.0
C954 C 0.38232 0.6611 0.11772 0.0
C955 C 0.39733 0.66438 0.13734 0.0
H956 H 0.16262 0.91217 0.54735 0.0
H957 H 0.12281 0.84046 0.5314 0.0
H958 H 0.14453 0.90463 0.58227 0.0
H959 H 0.10634 0.83258 0.56646 0.0
H960 H 0.03648 0.83526 0.62623 0.0
H961 H 0.05546 0.84323 0.59154 0.0
H962 H 0.16488 0.8827 0.6117 0.0
H963 H 0.14573 0.87475 0.6465 0.0
C964 C 0.15008 0.89476 0.55127 0.0
C965 C 0.14401 0.87699 0.53642 0.0
C966 C 0.14013 0.89033 0.57139 0.0
C967 C 0.12377 0.86801 0.57729 0.0
C968 C 0.11829 0.85012 0.5625 0.0
C969 C 0.12828 0.85453 0.54237 0.0
C970 C 0.06477 0.84551 0.6233 0.0
C971 C 0.08965 0.85424 0.63926 0.0
C972 C 0.07573 0.85005 0.60334 0.0
C973 C 0.11193 0.86348 0.59869 0.0
C974 C 0.13653 0.87251 0.61465 0.0
C975 C 0.12552 0.86798 0.63465 0.0
H976 H 0.18034 0.24848 0.39138 0.0
H977 H 0.1536 0.30517 0.34957 0.0
H978 H 0.14276 0.22013 0.36999 0.0
H979 H 0.11762 0.27647 0.32765 0.0
H980 H 0.01736 0.22371 0.30398 0.0
H981 H 0.05434 0.25259 0.32547 0.0
H982 H 0.1481 0.19927 0.33862 0.0
H983 H 0.11007 0.17027 0.31782 0.0
C984 C 0.16643 0.25496 0.37763 0.0
C985 C 0.16993 0.27924 0.37233 0.0
C986 C 0.14529 0.23856 0.36519 0.0
C987 C 0.12709 0.24592 0.34702 0.0
C988 C 0.13077 0.27017 0.34163 0.0
C989 C 0.15192 0.2866 0.3541 0.0
C990 C 0.04566 0.21816 0.31165 0.0
C991 C 0.06075 0.19472 0.3093 0.0
C992 C 0.06717 0.23477 0.32378 0.0
C993 C 0.10431 0.22834 0.33385 0.0
C994 C 0.11931 0.20483 0.3314 0.0
C995 C 0.09772 0.18823 0.31933 0.0
H996 H 0.29548 0.26913 0.8659 0.0
H997 H 0.39252 0.21785 0.85219 0.0
H998 H 0.33385 0.29968 0.8472 0.0
H999 H 0.43143 0.24856 0.83405 0.0
H1000 H 0.46447 0.30165 0.784 0.0
H1001 H 0.42613 0.27131 0.80298 0.0
H1002 H 0.39828 0.32399 0.84876 0.0
H1003 H 0.43565 0.35444 0.8294 0.0
C1004 C 0.32503 0.26437 0.85895 0.0
C1005 C 0.34083 0.24097 0.86059 0.0
C1006 C 0.34725 0.28196 0.84839 0.0
C1007 C 0.38576 0.2766 0.83908 0.0
C1008 C 0.40169 0.25327 0.84083 0.0
C1009 C 0.37958 0.23571 0.85147 0.0
C1010 C 0.44979 0.30675 0.79803 0.0
C1011 C 0.45251 0.33045 0.80508 0.0
C1012 C 0.42822 0.28932 0.80903 0.0
C1013 C 0.409 0.29518 0.82742 0.0
C1014 C 0.41218 0.31891 0.83455 0.0
C1015 C 0.43386 0.33631 0.82355 0.0
H1016 H 0.73673 0.25563 0.69704 0.0
H1017 H 0.6261 0.24918 0.65982 0.0
H1018 H 0.69918 0.28276 0.71957 0.0
H1019 H 0.58849 0.27599 0.68236 0.0
H1020 H 0.5496 0.34556 0.71202 0.0
H1021 H 0.58772 0.31744 0.69116 0.0
H1022 H 0.643 0.28619 0.74401 0.0
H1023 H 0.60523 0.31491 0.76508 0.0
C1024 C 0.70425 0.25977 0.69379 0.0
C1025 C 0.68458 0.25038 0.67649 0.0
C1026 C 0.68267 0.27531 0.70673 0.0
C1027 C 0.64084 0.28179 0.70274 0.0
C1028 C 0.62094 0.27188 0.6857 0.0
C1029 C 0.64252 0.25646 0.67275 0.0
C1030 C 0.56982 0.33274 0.71931 0.0
C1031 C 0.57414 0.33255 0.74033 0.0
C1032 C 0.59156 0.31643 0.70728 0.0
C1033 C 0.61824 0.29932 0.71584 0.0
C1034 C 0.62299 0.29922 0.73686 0.0
C1035 C 0.60118 0.31564 0.74896 0.0
H1036 H 0.7957 0.25731 0.17611 0.0
H1037 H 0.87989 0.30998 0.20206 0.0
H1038 H 0.83252 0.22568 0.19413 0.0
H1039 H 0.91633 0.27854 0.22005 0.0
H1040 H 0.94112 0.22199 0.26697 0.0
H1041 H 0.90307 0.25191 0.2479 0.0
H1042 H 0.8999 0.20419 0.19663 0.0
H1043 H 0.9371 0.17383 0.21609 0.0
C1044 C 0.82232 0.26214 0.18545 0.0
C1045 C 0.83445 0.28629 0.18776 0.0
C1046 C 0.84341 0.24399 0.19582 0.0
C1047 C 0.8771 0.24955 0.20877 0.0
C1048 C 0.8899 0.27362 0.21061 0.0
C1049 C 0.86895 0.29169 0.20025 0.0
C1050 C 0.93154 0.21765 0.25178 0.0
C1051 C 0.94149 0.19536 0.24316 0.0
C1052 C 0.91027 0.23498 0.24071 0.0
C1053 C 0.89852 0.23057 0.22065 0.0
C1054 C 0.90811 0.20814 0.21208 0.0
C1055 C 0.92958 0.19079 0.22318 0.0
H1056 H 0.79451 0.75446 0.69293 0.0
H1057 H 0.91096 0.74303 0.6612 0.0
H1058 H 0.83007 0.78271 0.71548 0.0
H1059 H 0.94614 0.77176 0.68332 0.0
H1060 H 0.00562 0.80671 0.73885 0.0
H1061 H 0.96965 0.77692 0.71794 0.0
H1062 H 0.86134 0.82295 0.71452 0.0
H1063 H 0.89779 0.85289 0.73506 0.0
C1064 C 0.82773 0.75785 0.69082 0.0
C1065 C 0.8498 0.74645 0.67519 0.0
C1066 C 0.84803 0.77426 0.70362 0.0
C1067 C 0.89099 0.77959 0.70121 0.0
C1068 C 0.91315 0.76794 0.68576 0.0
C1069 C 0.89283 0.75164 0.67291 0.0
C1070 C 0.97419 0.8105 0.73355 0.0
C1071 C 0.95448 0.83214 0.7387 0.0
C1072 C 0.95355 0.79342 0.72156 0.0
C1073 C 0.91253 0.79748 0.71451 0.0
C1074 C 0.89265 0.81904 0.71989 0.0
C1075 C 0.91348 0.8362 0.73174 0.0
H1076 H 0.73851 0.77398 0.19944 0.0
H1077 H 0.62293 0.79727 0.17197 0.0
H1078 H 0.70008 0.74318 0.2176 0.0
H1079 H 0.58469 0.76573 0.18952 0.0
H1080 H 0.52393 0.72447 0.24186 0.0
H1081 H 0.56175 0.75524 0.2231 0.0
H1082 H 0.66339 0.70575 0.21277 0.0
H1083 H 0.62552 0.6751 0.23144 0.0
C1084 C 0.70489 0.77252 0.1972 0.0
C1085 C 0.68391 0.78827 0.18424 0.0
C1086 C 0.68287 0.75463 0.20748 0.0
C1087 C 0.63918 0.75191 0.20508 0.0
C1088 C 0.61822 0.76745 0.19194 0.0
C1089 C 0.64028 0.78536 0.18164 0.0
C1090 C 0.5542 0.72014 0.23542 0.0
C1091 C 0.57165 0.69732 0.23809 0.0
C1092 C 0.57588 0.73776 0.22463 0.0
C1093 C 0.61569 0.73304 0.21635 0.0
C1094 C 0.63309 0.71018 0.2191 0.0
C1095 C 0.61132 0.69256 0.22979 0.0
H1096 H 0.38734 0.76489 0.39036 0.0
H1097 H 0.30319 0.78192 0.34169 0.0
H1098 H 0.42576 0.73783 0.36834 0.0
H1099 H 0.34181 0.75484 0.3196 0.0
H1100 H 0.44805 0.72235 0.2811 0.0
H1101 H 0.40914 0.74993 0.30267 0.0
H1102 H 0.41761 0.6996 0.35141 0.0
H1103 H 0.45637 0.67208 0.32981 0.0
C1104 C 0.37677 0.76274 0.375 0.0
C1105 C 0.34192 0.77558 0.36789 0.0
C1106 C 0.39886 0.74718 0.36234 0.0
C1107 C 0.38684 0.744 0.34217 0.0
C1108 C 0.35231 0.75703 0.33497 0.0
C1109 C 0.33015 0.7726 0.34766 0.0
C1110 C 0.44102 0.71703 0.29633 0.0
C1111 C 0.45476 0.69486 0.30364 0.0
C1112 C 0.41879 0.73288 0.30873 0.0
C1113 C 0.4101 0.72704 0.32882 0.0
C1114 C 0.42414 0.70488 0.33612 0.0
C1115 C 0.44624 0.68903 0.3237 0.0
H1116 H 0.14394 0.71545 0.83701 0.0
H1117 H 0.22434 0.76945 0.86381 0.0
H1118 H 0.10678 0.74639 0.8186 0.0
H1119 H 0.18827 0.80029 0.84478 0.0
H1120 H 0.08347 0.85123 0.82547 0.0
H1121 H 0.12142 0.82036 0.84358 0.0
H1122 H 0.11569 0.77439 0.79122 0.0
H1123 H 0.0765 0.80517 0.7733 0.0
C1124 C 0.15365 0.73392 0.83904 0.0
C1125 C 0.18708 0.73991 0.85202 0.0
C1126 C 0.13267 0.75166 0.82825 0.0
C1127 C 0.14452 0.77587 0.83014 0.0
C1128 C 0.17798 0.78186 0.84309 0.0
C1129 C 0.19898 0.76413 0.85387 0.0
C1130 C 0.09026 0.8345 0.81784 0.0
C1131 C 0.07689 0.83058 0.79798 0.0
C1132 C 0.11234 0.81686 0.82817 0.0
C1133 C 0.12169 0.79483 0.8189 0.0
C1134 C 0.10861 0.79101 0.79892 0.0
C1135 C 0.0865 0.80871 0.78858 0.0
loop_
_geom_bond_atom_site_label_1
_geom_bond_atom_site_label_2
_geom_bond_distance
_geom_bond_site_symmetry_2
_ccdc_geom_bond_type
C0 C1 1.264 . S
C0 C5 1.479 . S
C0 C10 1.465 . S
C1 C0 1.264 . S
C1 C3 1.339 . S
C1 H28 0.931 . S
C2 C3 1.395 . S
C2 C4 1.320 . S
C3 C1 1.339 . S
C3 C2 1.395 . S
C3 H29 0.929 . S
C4 C2 1.320 . S
C4 C5 1.405 . S
C4 H30 0.930 . S
C5 C0 1.479 . S
C5 C4 1.405 . S
C5 H31 0.931 . S
U6 O7 2.454 . S
U6 O8 2.458 . S
U6 C9 2.984 . S
U6 C10 2.847 . S
U6 C23 2.882 . S
U6 O24 2.441 . S
U6 O25 2.420 . S
U6 O26 2.455 . S
U6 O27 2.449 . S
O7 U6 2.454 . S
O7 C9 1.353 . S
O8 U6 2.458 . S
O8 C9 1.286 . S
C9 U6 2.984 . S
C9 O7 1.353 . S
C9 O8 1.286 . S
C9 C11 1.363 . S
C10 C0 1.465 . S
C10 U6 2.847 . S
C10 O24 1.249 . S
C10 O25 1.202 . S
C11 C9 1.363 . S
C11 C13 1.408 . S
C11 C16 1.342 . S
C12 C13 1.310 . S
C12 C15 1.461 . S
C12 H32 0.932 . S
C13 C11 1.408 . S
C13 C12 1.310 . S
C13 H33 0.930 . S
C14 C15 1.474 . S
C14 C16 1.285 . S
C14 H34 0.929 . S
C15 C12 1.461 . S
C15 C14 1.474 . S
C16 C11 1.342 . S
C16 C14 1.285 . S
C16 H35 0.930 . S
C17 C20 1.424 . S
C17 C22 1.245 . S
C17 C23 1.428 . S
C18 C21 1.260 . S
C18 C22 1.477 . S
C18 H36 0.932 . S
C19 C20 1.384 . S
C19 C21 1.479 . S
C19 H37 0.929 . S
C20 C17 1.424 . S
C20 C19 1.384 . S
C20 H38 0.928 . S
C21 C18 1.260 . S
C21 C19 1.479 . S
C22 C17 1.245 . S
C22 C18 1.477 . S
C22 H39 0.932 . S
C23 U6 2.882 . S
C23 C17 1.428 . S
C23 O26 1.301 . S
C23 O27 1.282 . S
O24 U6 2.441 . S
O24 C10 1.249 . S
O25 U6 2.420 . S
O25 C10 1.202 . S
O26 U6 2.455 . S
O26 C23 1.301 . S
O27 U6 2.449 . S
O27 C23 1.282 . S
H28 C1 0.931 . S
H29 C3 0.929 . S
H30 C4 0.930 . S
H31 C5 0.931 . S
H32 C12 0.932 . S
H33 C13 0.930 . S
H34 C14 0.929 . S
H35 C16 0.930 . S
H36 C18 0.932 . S
H37 C19 0.929 . S
H38 C20 0.928 . S
H39 C22 0.932 . S
C40 C41 1.264 . S
C40 C45 1.479 . S
C40 C50 1.465 . S
C41 C40 1.264 . S
C41 C43 1.339 . S
C41 H68 0.931 . S
C42 C43 1.395 1_554 S
C42 C44 1.344 . S
C43 C41 1.339 . S
C43 C42 1.395 1_556 S
C43 H69 0.926 1_556 S
C44 C42 1.344 . S
C44 C45 1.348 1_554 S
C44 H70 0.967 . S
C45 C40 1.479 . S
C45 C44 1.348 1_556 S
C45 H71 0.931 . S
U46 O47 2.454 . S
U46 O48 2.458 . S
U46 C49 2.984 . S
U46 C50 2.847 . S
U46 C63 2.882 . S
U46 O64 2.441 . S
U46 O65 2.420 . S
U46 O66 2.455 . S
U46 O67 2.449 . S
O47 U46 2.454 . S
O47 C49 1.353 . S
O48 U46 2.458 . S
O48 C49 1.286 . S
C49 U46 2.984 . S
C49 O47 1.353 . S
C49 O48 1.286 . S
C49 C51 1.363 . S
C50 C40 1.465 . S
C50 U46 2.847 . S
C50 O64 1.249 . S
C50 O65 1.202 . S
C51 C49 1.363 . S
C51 C53 1.408 . S
C51 C56 1.342 . S
C52 C53 1.310 . S
C52 C55 1.461 . S
C52 H72 0.932 . S
C53 C51 1.408 . S
C53 C52 1.310 . S
C53 H73 0.930 . S
C54 C55 1.474 . S
C54 C56 1.285 . S
C54 H74 0.929 . S
C55 C52 1.461 . S
C55 C54 1.474 . S
C56 C51 1.342 . S
C56 C54 1.285 . S
C56 H75 0.930 . S
C57 C60 1.424 . S
C57 C62 1.245 . S
C57 C63 1.428 . S
C58 C61 1.260 . S
C58 C62 1.477 . S
C58 H76 0.932 . S
C59 C60 1.384 . S
C59 C61 1.479 . S
C59 H77 0.929 . S
C60 C57 1.424 . S
C60 C59 1.384 . S
C60 H78 0.928 . S
C61 C58 1.260 . S
C61 C59 1.479 . S
C62 C57 1.245 . S
C62 C58 1.477 . S
C62 H79 0.932 . S
C63 U46 2.882 . S
C63 C57 1.428 . S
C63 O66 1.301 . S
C63 O67 1.282 . S
O64 U46 2.441 . S
O64 C50 1.249 . S
O65 U46 2.420 . S
O65 C50 1.202 . S
O66 U46 2.455 . S
O66 C63 1.301 . S
O67 U46 2.449 . S
O67 C63 1.282 . S
H68 C41 0.931 . S
H69 C43 0.926 1_554 S
H70 C44 0.967 . S
H71 C45 0.931 . S
H72 C52 0.932 . S
H73 C53 0.930 . S
H74 C54 0.929 . S
H75 C56 0.930 . S
H76 C58 0.932 . S
H77 C59 0.929 . S
H78 C60 0.928 . S
H79 C62 0.932 . S
C80 C81 1.264 . S
C80 C85 1.479 . S
C80 C90 1.465 . S
C81 C80 1.264 . S
C81 C83 1.339 . S
C81 H108 0.931 . S
C82 C83 1.395 . S
C82 C84 1.320 . S
C83 C81 1.339 . S
C83 C82 1.395 . S
C83 H109 0.929 . S
C84 C82 1.320 . S
C84 C85 1.405 . S
C84 H110 0.930 . S
C85 C80 1.479 . S
C85 C84 1.405 . S
C85 H111 0.931 . S
U86 O87 2.454 . S
U86 O88 2.458 . S
U86 C89 2.984 . S
U86 C90 2.847 . S
U86 C103 2.882 . S
U86 O104 2.441 . S
U86 O105 2.420 . S
U86 O106 2.455 . S
U86 O107 2.449 . S
O87 U86 2.454 . S
O87 C89 1.353 . S
O88 U86 2.458 . S
O88 C89 1.286 . S
C89 U86 2.984 . S
C89 O87 1.353 . S
C89 O88 1.286 . S
C89 C91 1.363 . S
C90 C80 1.465 . S
C90 U86 2.847 . S
C90 O104 1.249 . S
C90 O105 1.202 . S
C91 C89 1.363 . S
C91 C93 1.408 . S
C91 C96 1.342 . S
C92 C93 1.310 . S
C92 C95 1.461 . S
C92 H112 0.932 . S
C93 C91 1.408 . S
C93 C92 1.310 . S
C93 H113 0.930 . S
C94 C95 1.474 . S
C94 C96 1.285 . S
C94 H114 0.929 . S
C95 C92 1.461 . S
C95 C94 1.474 . S
C96 C91 1.342 . S
C96 C94 1.285 . S
C96 H115 0.930 . S
C97 C100 1.424 . S
C97 C102 1.245 . S
C97 C103 1.428 . S
C98 C101 1.260 . S
C98 C102 1.477 . S
C98 H116 0.932 . S
C99 C100 1.384 . S
C99 C101 1.479 . S
C99 H117 0.929 . S
C100 C97 1.424 . S
C100 C99 1.384 . S
C100 H118 0.928 . S
C101 C98 1.260 . S
C101 C99 1.479 . S
C102 C97 1.245 . S
C102 C98 1.477 . S
C102 H119 0.932 . S
C103 U86 2.882 . S
C103 C97 1.428 . S
C103 O106 1.301 . S
C103 O107 1.282 . S
O104 U86 2.441 . S
O104 C90 1.249 . S
O105 U86 2.420 . S
O105 C90 1.202 . S
O106 U86 2.455 . S
O106 C103 1.301 . S
O107 U86 2.449 . S
O107 C103 1.282 . S
H108 C81 0.931 . S
H109 C83 0.929 . S
H110 C84 0.930 . S
H111 C85 0.931 . S
H112 C92 0.932 . S
H113 C93 0.930 . S
H114 C94 0.929 . S
H115 C96 0.930 . S
H116 C98 0.932 . S
H117 C99 0.929 . S
H118 C100 0.928 . S
H119 C102 0.932 . S
C120 C121 1.264 . S
C120 C125 1.479 . S
C120 C130 1.465 . S
C121 C120 1.264 . S
C121 C123 1.339 . S
C121 H148 0.931 . S
C122 C123 1.395 1_556 S
C122 C124 1.320 1_556 S
C123 C121 1.339 . S
C123 C122 1.395 1_554 S
C123 H149 0.929 . S
C124 C122 1.320 1_554 S
C124 C125 1.405 . S
C124 H150 0.930 1_554 S
C125 C120 1.479 . S
C125 C124 1.405 . S
C125 H151 0.931 . S
U126 O127 2.454 . S
U126 O128 2.458 . S
U126 C129 2.984 . S
U126 C130 2.847 . S
U126 C143 2.882 . S
U126 O144 2.441 . S
U126 O145 2.420 . S
U126 O146 2.455 . S
U126 O147 2.449 . S
O127 U126 2.454 . S
O127 C129 1.353 . S
O128 U126 2.458 . S
O128 C129 1.286 . S
C129 U126 2.984 . S
C129 O127 1.353 . S
C129 O128 1.286 . S
C129 C131 1.363 . S
C130 C120 1.465 . S
C130 U126 2.847 . S
C130 O144 1.249 . S
C130 O145 1.202 . S
C131 C129 1.363 . S
C131 C133 1.408 . S
C131 C136 1.342 . S
C132 C133 1.310 . S
C132 C135 1.461 . S
C132 H152 0.932 . S
C133 C131 1.408 . S
C133 C132 1.310 . S
C133 H153 0.930 . S
C134 C135 1.474 . S
C134 C136 1.285 . S
C134 H154 0.929 . S
C135 C132 1.461 . S
C135 C134 1.474 . S
C136 C131 1.342 . S
C136 C134 1.285 . S
C136 H155 0.930 . S
C137 C140 1.424 . S
C137 C142 1.245 . S
C137 C143 1.428 . S
C138 C141 1.260 . S
C138 C142 1.477 . S
C138 H156 0.932 . S
C139 C140 1.384 . S
C139 C141 1.479 . S
C139 H157 0.929 . S
C140 C137 1.424 . S
C140 C139 1.384 . S
C140 H158 0.928 . S
C141 C138 1.260 . S
C141 C139 1.479 . S
C142 C137 1.245 . S
C142 C138 1.477 . S
C142 H159 0.932 . S
C143 U126 2.882 . S
C143 C137 1.428 . S
C143 O146 1.301 . S
C143 O147 1.282 . S
O144 U126 2.441 . S
O144 C130 1.249 . S
O145 U126 2.420 . S
O145 C130 1.202 . S
O146 U126 2.455 . S
O146 C143 1.301 . S
O147 U126 2.449 . S
O147 C143 1.282 . S
H148 C121 0.931 . S
H149 C123 0.929 . S
H150 C124 0.930 1_556 S
H151 C125 0.931 . S
H152 C132 0.932 . S
H153 C133 0.930 . S
H154 C134 0.929 . S
H155 C136 0.930 . S
H156 C138 0.932 . S
H157 C139 0.929 . S
H158 C140 0.928 . S
H159 C142 0.932 . S
C160 C161 1.264 . S
C160 C165 1.479 . S
C160 C170 1.465 . S
C161 C160 1.264 . S
C161 C163 1.339 . S
C161 H188 0.931 . S
C162 C163 1.395 . S
C162 C164 1.320 . S
C163 C161 1.339 . S
C163 C162 1.395 . S
C163 H189 0.929 . S
C164 C162 1.320 . S
C164 C165 1.405 . S
C164 H190 0.930 . S
C165 C160 1.479 . S
C165 C164 1.405 . S
C165 H191 0.931 . S
U166 O167 2.454 . S
U166 O168 2.458 . S
U166 C169 2.984 . S
U166 C170 2.847 . S
U166 C183 2.882 . S
U166 O184 2.441 . S
U166 O185 2.420 . S
U166 O186 2.455 . S
U166 O187 2.449 . S
O167 U166 2.454 . S
O167 C169 1.353 . S
O168 U166 2.458 . S
O168 C169 1.286 . S
C169 U166 2.984 . S
C169 O167 1.353 . S
C169 O168 1.286 . S
C169 C171 1.363 . S
C170 C160 1.465 . S
C170 U166 2.847 . S
C170 O184 1.249 . S
C170 O185 1.202 . S
C171 C169 1.363 . S
C171 C173 1.408 . S
C171 C176 1.342 . S
C172 C173 1.310 . S
C172 C175 1.461 . S
C172 H192 0.932 . S
C173 C171 1.408 . S
C173 C172 1.310 . S
C173 H193 0.930 . S
C174 C175 1.474 . S
C174 C176 1.285 . S
C174 H194 0.929 . S
C175 C172 1.461 . S
C175 C174 1.474 . S
C176 C171 1.342 . S
C176 C174 1.285 . S
C176 H195 0.930 . S
C177 C180 1.424 . S
C177 C182 1.245 . S
C177 C183 1.428 . S
C178 C181 1.260 . S
C178 C182 1.477 . S
C178 H196 0.932 . S
C179 C180 1.384 . S
C179 C181 1.479 . S
C179 H197 0.929 . S
C180 C177 1.424 . S
C180 C179 1.384 . S
C180 H198 0.928 . S
C181 C178 1.260 . S
C181 C179 1.479 . S
C182 C177 1.245 . S
C182 C178 1.477 . S
C182 H199 0.932 . S
C183 U166 2.882 . S
C183 C177 1.428 . S
C183 O186 1.301 . S
C183 O187 1.282 . S
O184 U166 2.441 . S
O184 C170 1.249 . S
O185 U166 2.420 . S
O185 C170 1.202 . S
O186 U166 2.455 . S
O186 C183 1.301 . S
O187 U166 2.449 . S
O187 C183 1.282 . S
H188 C161 0.931 . S
H189 C163 0.929 . S
H190 C164 0.930 . S
H191 C165 0.931 . S
H192 C172 0.932 . S
H193 C173 0.930 . S
H194 C174 0.929 . S
H195 C176 0.930 . S
H196 C178 0.932 . S
H197 C179 0.929 . S
H198 C180 0.928 . S
H199 C182 0.932 . S
C200 C201 1.264 . S
C200 C205 1.479 . S
C200 C210 1.465 . S
C201 C200 1.264 . S
C201 C203 1.339 . S
C201 H228 0.931 . S
C202 C203 1.395 1_556 S
C202 C204 1.320 . S
C203 C201 1.339 . S
C203 C202 1.395 1_554 S
C203 H229 0.929 1_554 S
C204 C202 1.320 . S
C204 C205 1.405 1_556 S
C204 H230 0.930 . S
C205 C200 1.479 . S
C205 C204 1.405 1_554 S
C205 H231 0.931 . S
U206 O207 2.454 . S
U206 O208 2.458 . S
U206 C209 2.984 . S
U206 C210 2.847 . S
U206 C223 2.882 . S
U206 O224 2.441 . S
U206 O225 2.420 . S
U206 O226 2.455 . S
U206 O227 2.449 . S
O207 U206 2.454 . S
O207 C209 1.353 . S
O208 U206 2.458 . S
O208 C209 1.286 . S
C209 U206 2.984 . S
C209 O207 1.353 . S
C209 O208 1.286 . S
C209 C211 1.363 . S
C210 C200 1.465 . S
C210 U206 2.847 . S
C210 O224 1.249 . S
C210 O225 1.202 . S
C211 C209 1.363 . S
C211 C213 1.408 . S
C211 C216 1.342 . S
C212 C213 1.310 . S
C212 C215 1.461 . S
C212 H232 0.932 . S
C213 C211 1.408 . S
C213 C212 1.310 . S
C213 H233 0.930 . S
C214 C215 1.474 . S
C214 C216 1.285 . S
C214 H234 0.929 . S
C215 C212 1.461 . S
C215 C214 1.474 . S
C216 C211 1.342 . S
C216 C214 1.285 . S
C216 H235 0.930 . S
C217 C220 1.424 . S
C217 C222 1.245 . S
C217 C223 1.428 . S
C218 C221 1.260 . S
C218 C222 1.477 . S
C218 H236 0.932 . S
C219 C220 1.384 . S
C219 C221 1.479 . S
C219 H237 0.929 . S
C220 C217 1.424 . S
C220 C219 1.384 . S
C220 H238 0.928 . S
C221 C218 1.260 . S
C221 C219 1.479 . S
C222 C217 1.245 . S
C222 C218 1.477 . S
C222 H239 0.932 . S
C223 U206 2.882 . S
C223 C217 1.428 . S
C223 O226 1.301 . S
C223 O227 1.282 . S
O224 U206 2.441 . S
O224 C210 1.249 . S
O225 U206 2.420 . S
O225 C210 1.202 . S
O226 U206 2.455 . S
O226 C223 1.301 . S
O227 U206 2.449 . S
O227 C223 1.282 . S
H228 C201 0.931 . S
H229 C203 0.929 1_556 S
H230 C204 0.930 . S
H231 C205 0.931 . S
H232 C212 0.932 . S
H233 C213 0.930 . S
H234 C214 0.929 . S
H235 C216 0.930 . S
H236 C218 0.932 . S
H237 C219 0.929 . S
H238 C220 0.928 . S
H239 C222 0.932 . S
C240 C241 1.264 . S
C240 C245 1.479 . S
C240 C250 1.465 . S
C241 C240 1.264 . S
C241 C243 1.339 . S
C241 H268 0.931 . S
C242 C243 1.395 . S
C242 C244 1.320 . S
C243 C241 1.339 . S
C243 C242 1.395 . S
C243 H269 0.929 . S
C244 C242 1.320 . S
C244 C245 1.405 . S
C244 H270 0.930 . S
C245 C240 1.479 . S
C245 C244 1.405 . S
C245 H271 0.931 . S
U246 O247 2.454 . S
U246 O248 2.458 . S
U246 C249 2.984 . S
U246 C250 2.847 . S
U246 C263 2.882 . S
U246 O264 2.441 . S
U246 O265 2.420 . S
U246 O266 2.455 . S
U246 O267 2.449 . S
O247 U246 2.454 . S
O247 C249 1.353 . S
O248 U246 2.458 . S
O248 C249 1.286 . S
C249 U246 2.984 . S
C249 O247 1.353 . S
C249 O248 1.286 . S
C249 C251 1.363 . S
C250 C240 1.465 . S
C250 U246 2.847 . S
C250 O264 1.249 . S
C250 O265 1.202 . S
C251 C249 1.363 . S
C251 C253 1.408 . S
C251 C256 1.342 . S
C252 C253 1.310 . S
C252 C255 1.461 . S
C252 H272 0.932 . S
C253 C251 1.408 . S
C253 C252 1.310 . S
C253 H273 0.930 . S
C254 C255 1.474 . S
C254 C256 1.285 . S
C254 H274 0.929 . S
C255 C252 1.461 . S
C255 C254 1.474 . S
C256 C251 1.342 . S
C256 C254 1.285 . S
C256 H275 0.930 . S
C257 C260 1.424 . S
C257 C262 1.245 . S
C257 C263 1.428 . S
C258 C261 1.260 . S
C258 C262 1.477 . S
C258 H276 0.932 . S
C259 C260 1.384 . S
C259 C261 1.479 . S
C259 H277 0.929 . S
C260 C257 1.424 . S
C260 C259 1.384 . S
C260 H278 0.928 . S
C261 C258 1.260 . S
C261 C259 1.479 . S
C262 C257 1.245 . S
C262 C258 1.477 . S
C262 H279 0.932 . S
C263 U246 2.882 . S
C263 C257 1.428 . S
C263 O266 1.301 . S
C263 O267 1.282 . S
O264 U246 2.441 . S
O264 C250 1.249 . S
O265 U246 2.420 . S
O265 C250 1.202 . S
O266 U246 2.455 . S
O266 C263 1.301 . S
O267 U246 2.449 . S
O267 C263 1.282 . S
H268 C241 0.931 . S
H269 C243 0.929 . S
H270 C244 0.930 . S
H271 C245 0.931 . S
H272 C252 0.932 . S
H273 C253 0.930 . S
H274 C254 0.929 . S
H275 C256 0.930 . S
H276 C258 0.932 . S
H277 C259 0.929 . S
H278 C260 0.928 . S
H279 C262 0.932 . S
C280 C281 1.264 . S
C280 C285 1.479 . S
C280 C290 1.465 . S
C281 C280 1.264 . S
C281 C283 1.339 . S
C281 H308 0.931 . S
C282 C283 1.395 1_554 S
C282 C284 1.320 1_554 S
C283 C281 1.339 . S
C283 C282 1.395 1_556 S
C283 H309 0.917 1_556 S
C284 C282 1.320 1_556 S
C284 C285 1.405 . S
C284 H310 0.930 1_556 S
C285 C280 1.479 . S
C285 C284 1.405 . S
C285 H311 0.931 . S
U286 O287 2.454 . S
U286 O288 2.458 . S
U286 C289 2.984 . S
U286 C290 2.847 . S
U286 C303 2.882 . S
U286 O304 2.441 . S
U286 O305 2.420 . S
U286 O306 2.455 . S
U286 O307 2.449 . S
O287 U286 2.454 . S
O287 C289 1.353 . S
O288 U286 2.458 . S
O288 C289 1.286 . S
C289 U286 2.984 . S
C289 O287 1.353 . S
C289 O288 1.286 . S
C289 C291 1.363 . S
C290 C280 1.465 . S
C290 U286 2.847 . S
C290 O304 1.249 . S
C290 O305 1.202 . S
C291 C289 1.363 . S
C291 C293 1.408 . S
C291 C296 1.342 . S
C292 C293 1.310 . S
C292 C295 1.461 . S
C292 H312 0.932 . S
C293 C291 1.408 . S
C293 C292 1.310 . S
C293 H313 0.930 . S
C294 C295 1.474 . S
C294 C296 1.285 . S
C294 H314 0.929 . S
C295 C292 1.461 . S
C295 C294 1.474 . S
C296 C291 1.342 . S
C296 C294 1.285 . S
C296 H315 0.930 . S
C297 C300 1.424 . S
C297 C302 1.245 . S
C297 C303 1.428 . S
C298 C301 1.260 . S
C298 C302 1.477 . S
C298 H316 0.932 . S
C299 C300 1.384 . S
C299 C301 1.479 . S
C299 H317 0.929 . S
C300 C297 1.424 . S
C300 C299 1.384 . S
C300 H318 0.928 . S
C301 C298 1.260 . S
C301 C299 1.479 . S
C302 C297 1.245 . S
C302 C298 1.477 . S
C302 H319 0.932 . S
C303 U286 2.882 . S
C303 C297 1.428 . S
C303 O306 1.301 . S
C303 O307 1.282 . S
O304 U286 2.441 . S
O304 C290 1.249 . S
O305 U286 2.420 . S
O305 C290 1.202 . S
O306 U286 2.455 . S
O306 C303 1.301 . S
O307 U286 2.449 . S
O307 C303 1.282 . S
H308 C281 0.931 . S
H309 C283 0.917 1_554 S
H310 C284 0.930 1_554 S
H311 C285 0.931 . S
H312 C292 0.932 . S
H313 C293 0.930 . S
H314 C294 0.929 . S
H315 C296 0.930 . S
H316 C298 0.932 . S
H317 C299 0.929 . S
H318 C300 0.928 . S
H319 C302 0.932 . S
Tb320 N349 2.617 . S
Tb320 N355 2.572 . S
Tb320 O364 2.465 . S
Tb320 O365 2.387 . S
Tb320 O367 2.428 . S
Tb320 O368 2.327 . S
Tb320 O372 2.349 . S
Tb320 O375 2.393 . S
Tb320 C384 2.802 . S
C321 N322 1.379 . S
C321 C324 1.416 . S
C321 C328 1.424 . S
N322 C321 1.379 . S
N322 C325 1.334 . S
N322 Tb331 2.617 . S
C323 C325 1.390 . S
C323 C326 1.339 . S
C323 H343 0.930 . S
C324 C321 1.416 . S
C324 C326 1.416 . S
C324 C330 1.448 . S
C325 N322 1.334 . S
C325 C323 1.390 . S
C325 H336 0.930 . S
C326 C323 1.339 . S
C326 C324 1.416 . S
C326 H347 0.930 . S
C327 C328 1.413 . S
C327 C329 1.427 . S
C327 C333 1.416 . S
C328 C321 1.424 . S
C328 C327 1.413 . S
C328 N332 1.361 . S
C329 C327 1.427 . S
C329 C330 1.328 . S
C329 H344 0.929 . S
C330 C324 1.448 . S
C330 C329 1.328 . S
C330 H345 0.930 . S
Tb331 N322 2.617 . S
Tb331 N332 2.572 . S
Tb331 O366 2.339 1_655 S
Tb331 O369 2.393 . S
Tb331 O370 2.465 . S
Tb331 O371 2.387 . S
Tb331 O373 2.428 . S
Tb331 O374 2.308 1_655 S
Tb331 C395 2.802 . S
N332 C328 1.361 . S
N332 Tb331 2.572 . S
N332 C334 1.340 . S
C333 C327 1.416 . S
C333 C335 1.332 . S
C333 H341 0.931 . S
C334 N332 1.340 . S
C334 C335 1.407 . S
C334 H340 0.930 . S
C335 C333 1.332 . S
C335 C334 1.407 . S
C335 H337 0.929 . S
H336 C325 0.930 . S
H337 C335 0.929 . S
H338 C353 0.930 . S
H339 C360 0.929 . S
H340 C334 0.930 . S
H341 C333 0.931 . S
H342 C356 0.930 . S
H343 C323 0.930 . S
H344 C329 0.929 . S
H345 C330 0.930 . S
H346 C351 0.930 . S
H347 C326 0.930 . S
H348 C359 0.931 . S
N349 Tb320 2.617 . S
N349 C350 1.379 . S
N349 C353 1.334 . S
C350 N349 1.379 . S
C350 C352 1.416 . S
C350 C358 1.424 . S
C351 H346 0.930 . S
C351 C353 1.390 . S
C351 C354 1.339 . S
C352 C350 1.416 . S
C352 C354 1.416 . S
C352 C385 1.448 . S
C353 H338 0.930 . S
C353 N349 1.334 . S
C353 C351 1.390 . S
C354 C351 1.339 . S
C354 C352 1.416 . S
C354 H361 0.930 . S
N355 Tb320 2.572 . S
N355 C356 1.340 . S
N355 C358 1.361 . S
C356 H342 0.930 . S
C356 N355 1.340 . S
C356 C360 1.407 . S
C357 C358 1.413 . S
C357 C359 1.416 . S
C357 C386 1.427 . S
C358 C350 1.424 . S
C358 N355 1.361 . S
C358 C357 1.413 . S
C359 H348 0.931 . S
C359 C357 1.416 . S
C359 C360 1.332 . S
C360 H339 0.929 . S
C360 C356 1.407 . S
C360 C359 1.332 . S
H361 C354 0.930 . S
H362 C385 0.930 . S
H363 C386 0.929 . S
O364 Tb320 2.465 . S
O364 C384 1.264 . S
O365 Tb320 2.387 . S
O365 C376 1.264 . S
O366 Tb331 2.339 1_455 S
O366 C376 1.256 . S
O367 Tb320 2.428 . S
O367 C384 1.256 . S
O368 Tb320 2.327 . S
O368 C383 1.244 1_455 S
O369 Tb331 2.393 . S
O369 C383 1.248 . S
O370 Tb331 2.465 . S
O370 C395 1.264 . S
O371 Tb331 2.387 . S
O371 C387 1.264 . S
O372 Tb320 2.349 . S
O372 C387 1.243 1_455 S
O373 Tb331 2.428 . S
O373 C395 1.256 . S
O374 Tb331 2.308 1_455 S
O374 C394 1.266 . S
O375 Tb320 2.393 . S
O375 C394 1.248 . S
C376 O365 1.264 . S
C376 O366 1.256 . S
C377 C380 1.399 . S
C377 C382 1.383 . S
C377 C384 1.496 . S
C378 C379 1.399 . S
C378 C382 1.389 . S
C379 C378 1.399 . S
C379 C381 1.380 . S
C379 H396 0.929 . S
C380 C377 1.399 . S
C380 C381 1.392 . S
C380 H397 0.929 . S
C381 C379 1.380 . S
C381 C380 1.392 . S
C381 H398 0.929 . S
C382 C377 1.383 . S
C382 C378 1.389 . S
C382 H399 0.931 . S
C383 O368 1.244 1_655 S
C383 O369 1.248 . S
C384 Tb320 2.802 . S
C384 O364 1.264 . S
C384 O367 1.256 . S
C384 C377 1.496 . S
C385 C352 1.448 . S
C385 H362 0.930 . S
C385 C386 1.328 . S
C386 C357 1.427 . S
C386 H363 0.929 . S
C386 C385 1.328 . S
C387 O371 1.264 . S
C387 O372 1.243 1_655 S
C388 C391 1.399 . S
C388 C392 1.383 . S
C388 C395 1.496 . S
C389 C390 1.399 . S
C389 C392 1.389 . S
C390 C389 1.399 . S
C390 C393 1.380 . S
C390 H400 0.929 . S
C391 C388 1.399 . S
C391 C393 1.392 . S
C391 H401 0.929 . S
C392 C388 1.383 . S
C392 C389 1.389 . S
C392 H402 0.931 . S
C393 C390 1.380 . S
C393 C391 1.392 . S
C393 H403 0.929 . S
C394 O374 1.266 . S
C394 O375 1.248 . S
C395 Tb331 2.802 . S
C395 O370 1.264 . S
C395 O373 1.256 . S
C395 C388 1.496 . S
H396 C379 0.929 . S
H397 C380 0.929 . S
H398 C381 0.929 . S
H399 C382 0.931 . S
H400 C390 0.929 . S
H401 C391 0.929 . S
H402 C392 0.931 . S
H403 C393 0.929 . S
Tb404 N433 2.617 . S
Tb404 N439 2.572 . S
Tb404 O448 2.465 . S
Tb404 O449 2.387 . S
Tb404 O451 2.428 . S
Tb404 O452 2.308 . S
Tb404 O456 2.349 . S
Tb404 O459 2.393 . S
Tb404 C468 2.802 . S
C405 N406 1.379 . S
C405 C408 1.416 . S
C405 C412 1.424 . S
N406 C405 1.379 . S
N406 C409 1.334 . S
N406 Tb415 2.617 . S
C407 C409 1.390 . S
C407 C410 1.339 . S
C407 H427 0.930 . S
C408 C405 1.416 . S
C408 C410 1.416 . S
C408 C414 1.448 . S
C409 N406 1.334 . S
C409 C407 1.390 . S
C409 H420 0.930 . S
C410 C407 1.339 . S
C410 C408 1.416 . S
C410 H431 0.930 . S
C411 C412 1.413 . S
C411 C413 1.427 . S
C411 C417 1.416 . S
C412 C405 1.424 . S
C412 C411 1.413 . S
C412 N416 1.361 . S
C413 C411 1.427 . S
C413 C414 1.328 . S
C413 H428 0.929 . S
C414 C408 1.448 . S
C414 C413 1.328 . S
C414 H429 0.930 . S
Tb415 N406 2.617 . S
Tb415 N416 2.572 . S
Tb415 O450 2.349 . S
Tb415 O453 2.393 . S
Tb415 O454 2.465 . S
Tb415 O455 2.387 . S
Tb415 O457 2.428 . S
Tb415 O458 2.308 . S
Tb415 C479 2.802 . S
N416 C412 1.361 . S
N416 Tb415 2.572 . S
N416 C418 1.340 . S
C417 C411 1.416 . S
C417 C419 1.332 . S
C417 H425 0.931 . S
C418 N416 1.340 . S
C418 C419 1.407 . S
C418 H424 0.930 . S
C419 C417 1.332 . S
C419 C418 1.407 . S
C419 H421 0.929 . S
H420 C409 0.930 . S
H421 C419 0.929 . S
H422 C437 0.930 . S
H423 C444 0.929 . S
H424 C418 0.930 . S
H425 C417 0.931 . S
H426 C440 0.930 . S
H427 C407 0.930 . S
H428 C413 0.929 . S
H429 C414 0.930 . S
H430 C435 0.930 . S
H431 C410 0.930 . S
H432 C443 0.931 . S
N433 Tb404 2.617 . S
N433 C434 1.379 . S
N433 C437 1.334 . S
C434 N433 1.379 . S
C434 C436 1.416 . S
C434 C442 1.424 . S
C435 H430 0.930 . S
C435 C437 1.390 . S
C435 C438 1.339 . S
C436 C434 1.416 . S
C436 C438 1.416 . S
C436 C469 1.448 . S
C437 H422 0.930 . S
C437 N433 1.334 . S
C437 C435 1.390 . S
C438 C435 1.339 . S
C438 C436 1.416 . S
C438 H445 0.930 . S
N439 Tb404 2.572 . S
N439 C440 1.340 . S
N439 C442 1.361 . S
C440 H426 0.930 . S
C440 N439 1.340 . S
C440 C444 1.407 . S
C441 C442 1.413 . S
C441 C443 1.416 . S
C441 C470 1.427 . S
C442 C434 1.424 . S
C442 N439 1.361 . S
C442 C441 1.413 . S
C443 H432 0.931 . S
C443 C441 1.416 . S
C443 C444 1.332 . S
C444 H423 0.929 . S
C444 C440 1.407 . S
C444 C443 1.332 . S
H445 C438 0.930 . S
H446 C469 0.930 . S
H447 C470 0.929 . S
O448 Tb404 2.465 . S
O448 C468 1.264 . S
O449 Tb404 2.387 . S
O449 C460 1.264 . S
O450 Tb415 2.349 . S
O450 C460 1.243 . S
O451 Tb404 2.428 . S
O451 C468 1.256 . S
O452 Tb404 2.308 . S
O452 C467 1.266 . S
O453 Tb415 2.393 . S
O453 C467 1.248 . S
O454 Tb415 2.465 . S
O454 C479 1.264 . S
O455 Tb415 2.387 . S
O455 C471 1.264 . S
O456 Tb404 2.349 . S
O456 C471 1.243 . S
O457 Tb415 2.428 . S
O457 C479 1.256 . S
O458 Tb415 2.308 . S
O458 C478 1.266 . S
O459 Tb404 2.393 . S
O459 C478 1.248 . S
C460 O449 1.264 . S
C460 O450 1.243 . S
C461 C464 1.399 . S
C461 C466 1.383 . S
C461 C468 1.496 . S
C462 C463 1.399 . S
C462 C466 1.389 . S
C463 C462 1.399 . S
C463 C465 1.380 . S
C463 H480 0.929 . S
C464 C461 1.399 . S
C464 C465 1.392 . S
C464 H481 0.929 . S
C465 C463 1.380 . S
C465 C464 1.392 . S
C465 H482 0.929 . S
C466 C461 1.383 . S
C466 C462 1.389 . S
C466 H483 0.931 . S
C467 O452 1.266 . S
C467 O453 1.248 . S
C468 Tb404 2.802 . S
C468 O448 1.264 . S
C468 O451 1.256 . S
C468 C461 1.496 . S
C469 C436 1.448 . S
C469 H446 0.930 . S
C469 C470 1.328 . S
C470 C441 1.427 . S
C470 H447 0.929 . S
C470 C469 1.328 . S
C471 O455 1.264 . S
C471 O456 1.243 . S
C472 C475 1.399 . S
C472 C476 1.383 . S
C472 C479 1.496 . S
C473 C474 1.399 . S
C473 C476 1.389 . S
C474 C473 1.399 . S
C474 C477 1.380 . S
C474 H484 0.929 . S
C475 C472 1.399 . S
C475 C477 1.392 . S
C475 H485 0.929 . S
C476 C472 1.383 . S
C476 C473 1.389 . S
C476 H486 0.931 . S
C477 C474 1.380 . S
C477 C475 1.392 . S
C477 H487 0.929 . S
C478 O458 1.266 . S
C478 O459 1.248 . S
C479 Tb415 2.802 . S
C479 O454 1.264 . S
C479 O457 1.256 . S
C479 C472 1.496 . S
H480 C463 0.929 . S
H481 C464 0.929 . S
H482 C465 0.929 . S
H483 C466 0.931 . S
H484 C474 0.929 . S
H485 C475 0.929 . S
H486 C476 0.931 . S
H487 C477 0.929 . S
Tb488 N517 2.617 . S
Tb488 N523 2.572 . S
Tb488 O532 2.465 . S
Tb488 O533 2.387 . S
Tb488 O535 2.428 . S
Tb488 O536 2.308 . S
Tb488 O540 2.349 . S
Tb488 O543 2.393 . S
Tb488 C552 2.802 . S
C489 N490 1.379 . S
C489 C492 1.416 . S
C489 C496 1.424 . S
N490 C489 1.379 . S
N490 C493 1.334 . S
N490 Tb499 2.617 . S
C491 C493 1.390 . S
C491 C494 1.339 . S
C491 H511 0.930 . S
C492 C489 1.416 . S
C492 C494 1.416 . S
C492 C498 1.448 . S
C493 N490 1.334 . S
C493 C491 1.390 . S
C493 H504 0.930 . S
C494 C491 1.339 . S
C494 C492 1.416 . S
C494 H515 0.930 . S
C495 C496 1.413 . S
C495 C497 1.427 . S
C495 C501 1.416 . S
C496 C489 1.424 . S
C496 C495 1.413 . S
C496 N500 1.361 . S
C497 C495 1.427 . S
C497 C498 1.328 . S
C497 H512 0.929 . S
C498 C492 1.448 . S
C498 C497 1.328 . S
C498 H513 0.930 . S
Tb499 N490 2.617 . S
Tb499 N500 2.572 . S
Tb499 O534 2.349 1_655 S
Tb499 O537 2.393 . S
Tb499 O538 2.465 . S
Tb499 O539 2.387 . S
Tb499 O541 2.428 . S
Tb499 O542 2.308 1_655 S
Tb499 C563 2.802 . S
N500 C496 1.361 . S
N500 Tb499 2.572 . S
N500 C502 1.340 . S
C501 C495 1.416 . S
C501 C503 1.332 . S
C501 H509 0.931 . S
C502 N500 1.340 . S
C502 C503 1.407 . S
C502 H508 0.930 . S
C503 C501 1.332 . S
C503 C502 1.407 . S
C503 H505 0.929 . S
H504 C493 0.930 . S
H505 C503 0.929 . S
H506 C521 0.930 . S
H507 C528 0.929 . S
H508 C502 0.930 . S
H509 C501 0.931 . S
H510 C524 0.930 . S
H511 C491 0.930 . S
H512 C497 0.929 . S
H513 C498 0.930 . S
H514 C519 0.930 . S
H515 C494 0.930 . S
H516 C527 0.931 . S
N517 Tb488 2.617 . S
N517 C518 1.379 . S
N517 C521 1.334 . S
C518 N517 1.379 . S
C518 C520 1.416 . S
C518 C526 1.424 . S
C519 H514 0.930 . S
C519 C521 1.390 . S
C519 C522 1.339 . S
C520 C518 1.416 . S
C520 C522 1.416 . S
C520 C553 1.448 . S
C521 H506 0.930 . S
C521 N517 1.334 . S
C521 C519 1.390 . S
C522 C519 1.339 . S
C522 C520 1.416 . S
C522 H529 0.930 . S
N523 Tb488 2.572 . S
N523 C524 1.340 . S
N523 C526 1.361 . S
C524 H510 0.930 . S
C524 N523 1.340 . S
C524 C528 1.407 . S
C525 C526 1.413 . S
C525 C527 1.416 . S
C525 C554 1.427 . S
C526 C518 1.424 . S
C526 N523 1.361 . S
C526 C525 1.413 . S
C527 H516 0.931 . S
C527 C525 1.416 . S
C527 C528 1.332 . S
C528 H507 0.929 . S
C528 C524 1.407 . S
C528 C527 1.332 . S
H529 C522 0.930 . S
H530 C553 0.930 . S
H531 C554 0.929 . S
O532 Tb488 2.465 . S
O532 C552 1.264 . S
O533 Tb488 2.387 . S
O533 C544 1.264 . S
O534 Tb499 2.349 1_455 S
O534 C544 1.243 . S
O535 Tb488 2.428 . S
O535 C552 1.256 . S
O536 Tb488 2.308 . S
O536 C551 1.266 1_455 S
O537 Tb499 2.393 . S
O537 C551 1.248 . S
O538 Tb499 2.465 . S
O538 C563 1.264 . S
O539 Tb499 2.387 . S
O539 C555 1.264 . S
O540 Tb488 2.349 . S
O540 C555 1.243 1_455 S
O541 Tb499 2.428 . S
O541 C563 1.256 . S
O542 Tb499 2.308 1_455 S
O542 C562 1.266 . S
O543 Tb488 2.393 . S
O543 C562 1.248 . S
C544 O533 1.264 . S
C544 O534 1.243 . S
C545 C548 1.399 . S
C545 C550 1.383 . S
C545 C552 1.496 . S
C546 C547 1.399 . S
C546 C550 1.389 . S
C547 C546 1.399 . S
C547 C549 1.380 . S
C547 H564 0.929 . S
C548 C545 1.399 . S
C548 C549 1.392 . S
C548 H565 0.929 . S
C549 C547 1.380 . S
C549 C548 1.392 . S
C549 H566 0.929 . S
C550 C545 1.383 . S
C550 C546 1.389 . S
C550 H567 0.931 . S
C551 O536 1.266 1_655 S
C551 O537 1.248 . S
C552 Tb488 2.802 . S
C552 O532 1.264 . S
C552 O535 1.256 . S
C552 C545 1.496 . S
C553 C520 1.448 . S
C553 H530 0.930 . S
C553 C554 1.328 . S
C554 C525 1.427 . S
C554 H531 0.929 . S
C554 C553 1.328 . S
C555 O539 1.264 . S
C555 O540 1.243 1_655 S
C556 C559 1.399 . S
C556 C560 1.383 . S
C556 C563 1.496 . S
C557 C558 1.399 . S
C557 C560 1.389 . S
C558 C557 1.399 . S
C558 C561 1.380 . S
C558 H568 0.929 . S
C559 C556 1.399 . S
C559 C561 1.392 . S
C559 H569 0.929 . S
C560 C556 1.383 . S
C560 C557 1.389 . S
C560 H570 0.931 . S
C561 C558 1.380 . S
C561 C559 1.392 . S
C561 H571 0.929 . S
C562 O542 1.266 . S
C562 O543 1.248 . S
C563 Tb499 2.802 . S
C563 O538 1.264 . S
C563 O541 1.256 . S
C563 C556 1.496 . S
H564 C547 0.929 . S
H565 C548 0.929 . S
H566 C549 0.929 . S
H567 C550 0.931 . S
H568 C558 0.929 . S
H569 C559 0.929 . S
H570 C560 0.931 . S
H571 C561 0.929 . S
Tb572 N601 2.617 . S
Tb572 N607 2.572 . S
Tb572 O616 2.465 . S
Tb572 O617 2.387 . S
Tb572 O619 2.428 . S
Tb572 O620 2.308 . S
Tb572 O624 2.349 . S
Tb572 O627 2.393 . S
Tb572 C636 2.802 . S
C573 N574 1.379 . S
C573 C576 1.416 . S
C573 C580 1.424 . S
N574 C573 1.379 . S
N574 C577 1.334 . S
N574 Tb583 2.617 . S
C575 C577 1.390 . S
C575 C578 1.339 . S
C575 H595 0.930 . S
C576 C573 1.416 . S
C576 C578 1.416 . S
C576 C582 1.448 . S
C577 N574 1.334 . S
C577 C575 1.390 . S
C577 H588 0.930 . S
C578 C575 1.339 . S
C578 C576 1.416 . S
C578 H599 0.930 . S
C579 C580 1.413 . S
C579 C581 1.427 . S
C579 C585 1.416 . S
C580 C573 1.424 . S
C580 C579 1.413 . S
C580 N584 1.361 . S
C581 C579 1.427 . S
C581 C582 1.328 . S
C581 H596 0.929 . S
C582 C576 1.448 . S
C582 C581 1.328 . S
C582 H597 0.930 . S
Tb583 N574 2.617 . S
Tb583 N584 2.572 . S
Tb583 O618 2.349 . S
Tb583 O621 2.393 . S
Tb583 O622 2.465 . S
Tb583 O623 2.387 . S
Tb583 O625 2.428 . S
Tb583 O626 2.308 . S
Tb583 C647 2.802 . S
N584 C580 1.361 . S
N584 Tb583 2.572 . S
N584 C586 1.340 . S
C585 C579 1.416 . S
C585 C587 1.332 . S
C585 H593 0.931 . S
C586 N584 1.340 . S
C586 C587 1.407 . S
C586 H592 0.930 . S
C587 C585 1.332 . S
C587 C586 1.407 . S
C587 H589 0.929 . S
H588 C577 0.930 . S
H589 C587 0.929 . S
H590 C605 0.930 . S
H591 C612 0.929 . S
H592 C586 0.930 . S
H593 C585 0.931 . S
H594 C608 0.930 . S
H595 C575 0.930 . S
H596 C581 0.929 . S
H597 C582 0.930 . S
H598 C603 0.930 . S
H599 C578 0.930 . S
H600 C611 0.931 . S
N601 Tb572 2.617 . S
N601 C602 1.379 . S
N601 C605 1.334 . S
C602 N601 1.379 . S
C602 C604 1.416 . S
C602 C610 1.424 . S
C603 H598 0.930 . S
C603 C605 1.390 . S
C603 C606 1.339 . S
C604 C602 1.416 . S
C604 C606 1.416 . S
C604 C637 1.448 . S
C605 H590 0.930 . S
C605 N601 1.334 . S
C605 C603 1.390 . S
C606 C603 1.339 . S
C606 C604 1.416 . S
C606 H613 0.930 . S
N607 Tb572 2.572 . S
N607 C608 1.340 . S
N607 C610 1.361 . S
C608 H594 0.930 . S
C608 N607 1.340 . S
C608 C612 1.407 . S
C609 C610 1.413 . S
C609 C611 1.416 . S
C609 C638 1.427 . S
C610 C602 1.424 . S
C610 N607 1.361 . S
C610 C609 1.413 . S
C611 H600 0.931 . S
C611 C609 1.416 . S
C611 C612 1.332 . S
C612 H591 0.929 . S
C612 C608 1.407 . S
C612 C611 1.332 . S
H613 C606 0.930 . S
H614 C637 0.930 . S
H615 C638 0.929 . S
O616 Tb572 2.465 . S
O616 C636 1.264 . S
O617 Tb572 2.387 . S
O617 C628 1.264 . S
O618 Tb583 2.349 . S
O618 C628 1.243 . S
O619 Tb572 2.428 . S
O619 C636 1.256 . S
O620 Tb572 2.308 . S
O620 C635 1.266 . S
O621 Tb583 2.393 . S
O621 C635 1.248 . S
O622 Tb583 2.465 . S
O622 C647 1.264 . S
O623 Tb583 2.387 . S
O623 C639 1.264 . S
O624 Tb572 2.349 . S
O624 C639 1.243 . S
O625 Tb583 2.428 . S
O625 C647 1.256 . S
O626 Tb583 2.308 . S
O626 C646 1.266 . S
O627 Tb572 2.393 . S
O627 C646 1.248 . S
C628 O617 1.264 . S
C628 O618 1.243 . S
C629 C632 1.399 . S
C629 C634 1.383 . S
C629 C636 1.496 . S
C630 C631 1.399 . S
C630 C634 1.389 . S
C631 C630 1.399 . S
C631 C633 1.380 . S
C631 H648 0.929 . S
C632 C629 1.399 . S
C632 C633 1.392 . S
C632 H649 0.929 . S
C633 C631 1.380 . S
C633 C632 1.392 . S
C633 H650 0.929 . S
C634 C629 1.383 . S
C634 C630 1.389 . S
C634 H651 0.931 . S
C635 O620 1.266 . S
C635 O621 1.248 . S
C636 Tb572 2.802 . S
C636 O616 1.264 . S
C636 O619 1.256 . S
C636 C629 1.496 . S
C637 C604 1.448 . S
C637 H614 0.930 . S
C637 C638 1.328 . S
C638 C609 1.427 . S
C638 H615 0.929 . S
C638 C637 1.328 . S
C639 O623 1.264 . S
C639 O624 1.243 . S
C640 C643 1.399 . S
C640 C644 1.383 . S
C640 C647 1.496 . S
C641 C642 1.399 . S
C641 C644 1.389 . S
C642 C641 1.399 . S
C642 C645 1.380 . S
C642 H652 0.929 . S
C643 C640 1.399 . S
C643 C645 1.392 . S
C643 H653 0.929 . S
C644 C640 1.383 . S
C644 C641 1.389 . S
C644 H654 0.931 . S
C645 C642 1.380 . S
C645 C643 1.392 . S
C645 H655 0.929 . S
C646 O626 1.266 . S
C646 O627 1.248 . S
C647 Tb583 2.802 . S
C647 O622 1.264 . S
C647 O625 1.256 . S
C647 C640 1.496 . S
H648 C631 0.929 . S
H649 C632 0.929 . S
H650 C633 0.929 . S
H651 C634 0.931 . S
H652 C642 0.929 . S
H653 C643 0.929 . S
H654 C644 0.931 . S
H655 C645 0.929 . S
H656 C664 0.950 . S
H657 C669 0.950 . S
H658 C666 0.950 . S
H659 C668 0.950 . S
H660 C670 0.950 . S
H661 C672 0.950 . S
H662 C674 0.950 . S
H663 C675 0.950 . S
C664 H656 0.950 . S
C664 C665 1.392 . S
C664 C666 1.391 . S
C665 C664 1.392 . S
C665 C669 1.397 . S
C666 H658 0.950 . S
C666 C664 1.391 . S
C666 C667 1.400 . S
C667 C666 1.400 . S
C667 C668 1.398 . S
C667 C673 1.491 . S
C668 H659 0.950 . S
C668 C667 1.398 . S
C668 C669 1.391 . S
C669 H657 0.950 . S
C669 C665 1.397 . S
C669 C668 1.391 . S
C670 H660 0.950 . S
C670 C671 1.386 . S
C670 C672 1.391 . S
C671 C670 1.386 . S
C671 C675 1.393 . S
C672 H661 0.950 . S
C672 C670 1.391 . S
C672 C673 1.400 . S
C673 C667 1.491 . S
C673 C672 1.400 . S
C673 C674 1.398 . S
C674 H662 0.950 . S
C674 C673 1.398 . S
C674 C675 1.391 . S
C675 H663 0.950 . S
C675 C671 1.393 . S
C675 C674 1.391 . S
H676 C684 0.950 . S
H677 C689 0.950 . S
H678 C686 0.950 . S
H679 C688 0.950 . S
H680 C690 0.950 . S
H681 C692 0.950 . S
H682 C694 0.950 . S
H683 C695 0.950 . S
C684 H676 0.950 . S
C684 C685 1.386 . S
C684 C686 1.391 . S
C685 C684 1.386 . S
C685 C689 1.393 . S
C686 H678 0.950 . S
C686 C684 1.391 . S
C686 C687 1.400 . S
C687 C686 1.400 . S
C687 C688 1.398 . S
C687 C693 1.491 . S
C688 H679 0.950 . S
C688 C687 1.398 . S
C688 C689 1.391 . S
C689 H677 0.950 . S
C689 C685 1.393 . S
C689 C688 1.391 . S
C690 H680 0.950 . S
C690 C691 1.386 . S
C690 C692 1.391 . S
C691 C690 1.386 . S
C691 C695 1.393 . S
C692 H681 0.950 . S
C692 C690 1.391 . S
C692 C693 1.400 . S
C693 C687 1.491 . S
C693 C692 1.400 . S
C693 C694 1.398 . S
C694 H682 0.950 . S
C694 C693 1.398 . S
C694 C695 1.391 . S
C695 H683 0.950 . S
C695 C691 1.393 . S
C695 C694 1.391 . S
H696 C704 0.950 . S
H697 C709 0.950 . S
H698 C706 0.950 . S
H699 C708 0.950 . S
H700 C710 0.950 . S
H701 C712 0.950 . S
H702 C714 0.950 . S
H703 C715 0.950 . S
C704 H696 0.950 . S
C704 C705 1.386 . S
C704 C706 1.391 . S
C705 C704 1.386 . S
C705 C709 1.393 . S
C706 H698 0.950 . S
C706 C704 1.391 . S
C706 C707 1.400 . S
C707 C706 1.400 . S
C707 C708 1.398 . S
C707 C713 1.491 . S
C708 H699 0.950 . S
C708 C707 1.398 . S
C708 C709 1.391 . S
C709 H697 0.950 . S
C709 C705 1.393 . S
C709 C708 1.391 . S
C710 H700 0.950 . S
C710 C711 1.386 . S
C710 C712 1.391 . S
C711 C710 1.386 . S
C711 C715 1.393 . S
C712 H701 0.950 . S
C712 C710 1.391 . S
C712 C713 1.400 . S
C713 C707 1.491 . S
C713 C712 1.400 . S
C713 C714 1.398 . S
C714 H702 0.950 . S
C714 C713 1.398 . S
C714 C715 1.391 . S
C715 H703 0.950 . S
C715 C711 1.393 . S
C715 C714 1.391 . S
H716 C724 0.950 . S
H717 C729 0.975 . S
H718 C726 0.950 . S
H719 C728 0.950 . S
H720 C730 0.950 1_455 S
H721 C732 0.950 . S
H722 C734 0.950 . S
H723 C735 0.950 . S
C724 H716 0.950 . S
C724 C725 1.386 1_545 S
C724 C726 1.391 . S
C725 C724 1.386 1_565 S
C725 C729 1.394 . S
C726 H718 0.950 . S
C726 C724 1.391 . S
C726 C727 1.400 . S
C727 C726 1.400 . S
C727 C728 1.398 . S
C727 C733 1.491 . S
C728 H719 0.950 . S
C728 C727 1.398 . S
C728 C729 1.366 1_545 S
C729 H717 0.975 . S
C729 C725 1.394 . S
C729 C728 1.366 1_565 S
C730 H720 0.950 1_655 S
C730 C731 1.386 . S
C730 C732 1.391 . S
C731 C730 1.386 . S
C731 C735 1.393 . S
C732 H721 0.950 . S
C732 C730 1.391 . S
C732 C733 1.400 . S
C733 C727 1.491 . S
C733 C732 1.400 . S
C733 C734 1.398 . S
C734 H722 0.950 . S
C734 C733 1.398 . S
C734 C735 1.391 . S
C735 H723 0.950 . S
C735 C731 1.393 . S
C735 C734 1.391 . S
H736 C744 0.950 . S
H737 C749 0.950 . S
H738 C746 0.950 . S
H739 C748 0.950 . S
H740 C750 0.950 . S
H741 C752 0.950 . S
H742 C754 0.950 . S
H743 C755 0.950 . S
C744 H736 0.950 . S
C744 C745 1.386 1_545 S
C744 C746 1.391 1_545 S
C745 C744 1.386 1_565 S
C745 C749 1.393 . S
C746 H738 0.950 . S
C746 C744 1.391 1_565 S
C746 C747 1.400 . S
C747 C746 1.400 . S
C747 C748 1.398 . S
C747 C753 1.491 . S
C748 H739 0.950 . S
C748 C747 1.398 . S
C748 C749 1.391 . S
C749 H737 0.950 . S
C749 C745 1.393 . S
C749 C748 1.391 . S
C750 H740 0.950 . S
C750 C751 1.386 . S
C750 C752 1.391 . S
C751 C750 1.386 . S
C751 C755 1.393 . S
C752 H741 0.950 . S
C752 C750 1.391 . S
C752 C753 1.400 . S
C753 C747 1.491 . S
C753 C752 1.400 . S
C753 C754 1.398 . S
C754 H742 0.950 . S
C754 C753 1.398 . S
C754 C755 1.391 . S
C755 H743 0.950 . S
C755 C751 1.393 . S
C755 C754 1.391 . S
H756 C764 0.950 . S
H757 C769 0.950 . S
H758 C766 0.950 . S
H759 C768 0.950 . S
H760 C770 0.950 . S
H761 C772 0.950 . S
H762 C774 0.950 . S
H763 C775 0.950 . S
C764 H756 0.950 . S
C764 C765 1.386 . S
C764 C766 1.391 . S
C765 C764 1.386 . S
C765 C769 1.393 . S
C766 H758 0.950 . S
C766 C764 1.391 . S
C766 C767 1.400 . S
C767 C766 1.400 . S
C767 C768 1.398 . S
C767 C773 1.491 . S
C768 H759 0.950 . S
C768 C767 1.398 . S
C768 C769 1.391 . S
C769 H757 0.950 . S
C769 C765 1.393 . S
C769 C768 1.391 . S
C770 H760 0.950 . S
C770 C771 1.386 . S
C770 C772 1.391 . S
C771 C770 1.386 . S
C771 C775 1.393 . S
C772 H761 0.950 . S
C772 C770 1.391 . S
C772 C773 1.400 . S
C773 C767 1.491 . S
C773 C772 1.400 . S
C773 C774 1.398 . S
C774 H762 0.950 . S
C774 C773 1.398 . S
C774 C775 1.391 . S
C775 H763 0.950 . S
C775 C771 1.393 . S
C775 C774 1.391 . S
H776 C784 0.950 . S
H777 C789 0.950 . S
H778 C786 0.950 . S
H779 C788 0.950 . S
H780 C790 0.950 . S
H781 C792 0.950 . S
H782 C794 0.950 . S
H783 C795 0.950 . S
C784 H776 0.950 . S
C784 C785 1.386 . S
C784 C786 1.391 . S
C785 C784 1.386 . S
C785 C789 1.393 . S
C786 H778 0.950 . S
C786 C784 1.391 . S
C786 C787 1.400 . S
C787 C786 1.400 . S
C787 C788 1.398 . S
C787 C793 1.491 . S
C788 H779 0.950 . S
C788 C787 1.398 . S
C788 C789 1.391 . S
C789 H777 0.950 . S
C789 C785 1.393 . S
C789 C788 1.391 . S
C790 H780 0.950 . S
C790 C791 1.386 . S
C790 C792 1.391 . S
C791 C790 1.386 . S
C791 C795 1.393 . S
C792 H781 0.950 . S
C792 C790 1.391 . S
C792 C793 1.400 . S
C793 C787 1.491 . S
C793 C792 1.400 . S
C793 C794 1.398 . S
C794 H782 0.950 . S
C794 C793 1.398 . S
C794 C795 1.391 . S
C795 H783 0.950 . S
C795 C791 1.393 . S
C795 C794 1.391 . S
H796 C804 0.950 . S
H797 C809 0.950 . S
H798 C806 0.950 . S
H799 C808 0.950 . S
H800 C810 0.950 . S
H801 C812 0.950 . S
H802 C814 0.950 . S
H803 C815 0.950 . S
C804 H796 0.950 . S
C804 C805 1.346 1_565 S
C804 C806 1.391 . S
C805 C804 1.346 1_545 S
C805 C809 1.404 . S
C806 H798 0.950 . S
C806 C804 1.391 . S
C806 C807 1.400 . S
C807 C806 1.400 . S
C807 C808 1.398 . S
C807 C813 1.491 . S
C808 H799 0.950 . S
C808 C807 1.398 . S
C808 C809 1.391 1_565 S
C809 H797 0.950 . S
C809 C805 1.404 . S
C809 C808 1.391 1_545 S
C810 H800 0.950 . S
C810 C811 1.386 . S
C810 C812 1.391 . S
C811 C810 1.386 . S
C811 C815 1.393 . S
C812 H801 0.950 . S
C812 C810 1.391 . S
C812 C813 1.400 . S
C813 C807 1.491 . S
C813 C812 1.400 . S
C813 C814 1.398 . S
C814 H802 0.950 . S
C814 C813 1.398 . S
C814 C815 1.391 . S
C815 H803 0.950 . S
C815 C811 1.393 . S
C815 C814 1.391 . S
H816 C824 0.950 . S
H817 C829 0.950 . S
H818 C826 0.950 . S
H819 C828 0.950 . S
H820 C830 0.950 . S
H821 C832 0.950 . S
H822 C834 0.950 . S
H823 C835 0.950 . S
C824 H816 0.950 . S
C824 C825 1.386 . S
C824 C826 1.391 . S
C825 C824 1.386 . S
C825 C829 1.393 . S
C826 H818 0.950 . S
C826 C824 1.391 . S
C826 C827 1.400 . S
C827 C826 1.400 . S
C827 C828 1.398 . S
C827 C833 1.491 . S
C828 H819 0.950 . S
C828 C827 1.398 . S
C828 C829 1.391 . S
C829 H817 0.950 . S
C829 C825 1.393 . S
C829 C828 1.391 . S
C830 H820 0.950 . S
C830 C831 1.386 . S
C830 C832 1.391 . S
C831 C830 1.386 . S
C831 C835 1.393 . S
C832 H821 0.950 . S
C832 C830 1.391 . S
C832 C833 1.400 . S
C833 C827 1.491 . S
C833 C832 1.400 . S
C833 C834 1.398 . S
C834 H822 0.950 . S
C834 C833 1.398 . S
C834 C835 1.391 . S
C835 H823 0.950 . S
C835 C831 1.393 . S
C835 C834 1.391 . S
H836 C844 0.950 . S
H837 C849 0.950 . S
H838 C846 0.950 . S
H839 C848 0.950 . S
H840 C850 0.950 . S
H841 C852 0.950 . S
H842 C854 0.950 . S
H843 C855 0.950 . S
C844 H836 0.950 . S
C844 C845 1.386 . S
C844 C846 1.391 . S
C845 C844 1.386 . S
C845 C849 1.393 . S
C846 H838 0.950 . S
C846 C844 1.391 . S
C846 C847 1.400 . S
C847 C846 1.400 . S
C847 C848 1.398 . S
C847 C853 1.491 . S
C848 H839 0.950 . S
C848 C847 1.398 . S
C848 C849 1.391 . S
C849 H837 0.950 . S
C849 C845 1.393 . S
C849 C848 1.391 . S
C850 H840 0.950 . S
C850 C851 1.386 . S
C850 C852 1.391 . S
C851 C850 1.386 . S
C851 C855 1.393 . S
C852 H841 0.950 . S
C852 C850 1.391 . S
C852 C853 1.400 . S
C853 C847 1.491 . S
C853 C852 1.400 . S
C853 C854 1.398 . S
C854 H842 0.950 . S
C854 C853 1.398 . S
C854 C855 1.391 . S
C855 H843 0.950 . S
C855 C851 1.393 . S
C855 C854 1.391 . S
H856 C864 0.950 . S
H857 C869 0.950 . S
H858 C866 0.950 . S
H859 C868 0.950 . S
H860 C870 0.950 . S
H861 C872 0.950 . S
H862 C874 0.950 . S
H863 C875 0.950 . S
C864 H856 0.950 . S
C864 C865 1.386 . S
C864 C866 1.391 . S
C865 C864 1.386 . S
C865 C869 1.393 . S
C866 H858 0.950 . S
C866 C864 1.391 . S
C866 C867 1.400 . S
C867 C866 1.400 . S
C867 C868 1.398 . S
C867 C873 1.491 . S
C868 H859 0.950 . S
C868 C867 1.398 . S
C868 C869 1.391 . S
C869 H857 0.950 . S
C869 C865 1.393 . S
C869 C868 1.391 . S
C870 H860 0.950 . S
C870 C871 1.386 . S
C870 C872 1.391 . S
C871 C870 1.386 . S
C871 C875 1.393 . S
C872 H861 0.950 . S
C872 C870 1.391 . S
C872 C873 1.400 . S
C873 C867 1.491 . S
C873 C872 1.400 . S
C873 C874 1.398 . S
C874 H862 0.950 . S
C874 C873 1.398 . S
C874 C875 1.391 . S
C875 H863 0.950 . S
C875 C871 1.393 . S
C875 C874 1.391 . S
H876 C884 0.950 . S
H877 C889 0.950 . S
H878 C886 0.950 . S
H879 C888 0.950 . S
H880 C890 0.950 . S
H881 C892 0.950 . S
H882 C894 0.950 . S
H883 C895 0.950 . S
C884 H876 0.950 . S
C884 C885 1.386 . S
C884 C886 1.391 . S
C885 C884 1.386 . S
C885 C889 1.393 . S
C886 H878 0.950 . S
C886 C884 1.391 . S
C886 C887 1.400 . S
C887 C886 1.400 . S
C887 C888 1.398 . S
C887 C893 1.491 . S
C888 H879 0.950 . S
C888 C887 1.398 . S
C888 C889 1.391 . S
C889 H877 0.950 . S
C889 C885 1.393 . S
C889 C888 1.391 . S
C890 H880 0.950 . S
C890 C891 1.386 . S
C890 C892 1.391 . S
C891 C890 1.386 . S
C891 C895 1.393 . S
C892 H881 0.950 . S
C892 C890 1.391 . S
C892 C893 1.400 . S
C893 C887 1.491 . S
C893 C892 1.400 . S
C893 C894 1.398 . S
C894 H882 0.950 . S
C894 C893 1.398 . S
C894 C895 1.391 . S
C895 H883 0.950 . S
C895 C891 1.393 . S
C895 C894 1.391 . S
H896 C904 0.950 . S
H897 C909 0.950 . S
H898 C906 0.950 . S
H899 C908 0.950 . S
H900 C910 0.950 . S
H901 C912 0.950 . S
H902 C914 0.950 . S
H903 C915 0.950 . S
C904 H896 0.950 . S
C904 C905 1.386 . S
C904 C906 1.391 . S
C905 C904 1.386 . S
C905 C909 1.393 . S
C906 H898 0.950 . S
C906 C904 1.391 . S
C906 C907 1.400 . S
C907 C906 1.400 . S
C907 C908 1.398 . S
C907 C913 1.491 . S
C908 H899 0.950 . S
C908 C907 1.398 . S
C908 C909 1.391 . S
C909 H897 0.950 . S
C909 C905 1.393 . S
C909 C908 1.391 . S
C910 H900 0.950 . S
C910 C911 1.386 . S
C910 C912 1.391 . S
C911 C910 1.386 . S
C911 C915 1.393 . S
C912 H901 0.950 . S
C912 C910 1.391 . S
C912 C913 1.400 . S
C913 C907 1.491 . S
C913 C912 1.400 . S
C913 C914 1.398 . S
C914 H902 0.950 . S
C914 C913 1.398 . S
C914 C915 1.391 . S
C915 H903 0.950 . S
C915 C911 1.393 . S
C915 C914 1.391 . S
H916 C924 0.950 . S
H917 C929 0.950 . S
H918 C926 0.950 . S
H919 C928 0.950 . S
H920 C930 0.950 . S
H921 C932 0.950 . S
H922 C934 0.950 . S
H923 C935 0.950 . S
C924 H916 0.950 . S
C924 C925 1.386 . S
C924 C926 1.391 . S
C925 C924 1.386 . S
C925 C929 1.393 . S
C926 H918 0.950 . S
C926 C924 1.391 . S
C926 C927 1.400 . S
C927 C926 1.400 . S
C927 C928 1.398 . S
C927 C933 1.491 . S
C928 H919 0.950 . S
C928 C927 1.398 . S
C928 C929 1.391 . S
C929 H917 0.950 . S
C929 C925 1.393 . S
C929 C928 1.391 . S
C930 H920 0.950 . S
C930 C931 1.386 . S
C930 C932 1.391 . S
C931 C930 1.386 . S
C931 C935 1.393 . S
C932 H921 0.950 . S
C932 C930 1.391 . S
C932 C933 1.400 . S
C933 C927 1.491 . S
C933 C932 1.400 . S
C933 C934 1.398 . S
C934 H922 0.950 . S
C934 C933 1.398 . S
C934 C935 1.391 . S
C935 H923 0.950 . S
C935 C931 1.393 . S
C935 C934 1.391 . S
H936 C944 0.950 . S
H937 C949 0.950 . S
H938 C946 0.950 . S
H939 C948 0.950 . S
H940 C950 0.950 . S
H941 C952 0.950 . S
H942 C954 0.950 . S
H943 C955 0.950 . S
C944 H936 0.950 . S
C944 C945 1.386 . S
C944 C946 1.391 . S
C945 C944 1.386 . S
C945 C949 1.393 . S
C946 H938 0.950 . S
C946 C944 1.391 . S
C946 C947 1.400 . S
C947 C946 1.400 . S
C947 C948 1.398 . S
C947 C953 1.491 . S
C948 H939 0.950 . S
C948 C947 1.398 . S
C948 C949 1.391 . S
C949 H937 0.950 . S
C949 C945 1.393 . S
C949 C948 1.391 . S
C950 H940 0.950 . S
C950 C951 1.386 . S
C950 C952 1.391 . S
C951 C950 1.386 . S
C951 C955 1.393 . S
C952 H941 0.950 . S
C952 C950 1.391 . S
C952 C953 1.400 . S
C953 C947 1.491 . S
C953 C952 1.400 . S
C953 C954 1.398 . S
C954 H942 0.950 . S
C954 C953 1.398 . S
C954 C955 1.391 . S
C955 H943 0.950 . S
C955 C951 1.393 . S
C955 C954 1.391 . S
H956 C964 0.950 . S
H957 C969 0.950 . S
H958 C966 0.950 . S
H959 C968 0.950 . S
H960 C970 0.950 . S
H961 C972 0.950 . S
H962 C974 0.950 . S
H963 C975 0.950 . S
C964 H956 0.950 . S
C964 C965 1.386 . S
C964 C966 1.391 . S
C965 C964 1.386 . S
C965 C969 1.393 . S
C966 H958 0.950 . S
C966 C964 1.391 . S
C966 C967 1.400 . S
C967 C966 1.400 . S
C967 C968 1.398 . S
C967 C973 1.491 . S
C968 H959 0.950 . S
C968 C967 1.398 . S
C968 C969 1.391 . S
C969 H957 0.950 . S
C969 C965 1.393 . S
C969 C968 1.391 . S
C970 H960 0.950 . S
C970 C971 1.386 . S
C970 C972 1.391 . S
C971 C970 1.386 . S
C971 C975 1.393 . S
C972 H961 0.950 . S
C972 C970 1.391 . S
C972 C973 1.400 . S
C973 C967 1.491 . S
C973 C972 1.400 . S
C973 C974 1.398 . S
C974 H962 0.950 . S
C974 C973 1.398 . S
C974 C975 1.391 . S
C975 H963 0.950 . S
C975 C971 1.393 . S
C975 C974 1.391 . S
H976 C984 0.950 . S
H977 C989 0.950 . S
H978 C986 0.950 . S
H979 C988 0.950 . S
H980 C990 0.950 . S
H981 C992 0.950 . S
H982 C994 0.950 . S
H983 C995 0.950 . S
C984 H976 0.950 . S
C984 C985 1.386 . S
C984 C986 1.391 . S
C985 C984 1.386 . S
C985 C989 1.393 . S
C986 H978 0.950 . S
C986 C984 1.391 . S
C986 C987 1.400 . S
C987 C986 1.400 . S
C987 C988 1.398 . S
C987 C993 1.491 . S
C988 H979 0.950 . S
C988 C987 1.398 . S
C988 C989 1.391 . S
C989 H977 0.950 . S
C989 C985 1.393 . S
C989 C988 1.391 . S
C990 H980 0.950 . S
C990 C991 1.386 . S
C990 C992 1.391 . S
C991 C990 1.386 . S
C991 C995 1.393 . S
C992 H981 0.950 . S
C992 C990 1.391 . S
C992 C993 1.400 . S
C993 C987 1.491 . S
C993 C992 1.400 . S
C993 C994 1.398 . S
C994 H982 0.950 . S
C994 C993 1.398 . S
C994 C995 1.391 . S
C995 H983 0.950 . S
C995 C991 1.393 . S
C995 C994 1.391 . S
H996 C1004 0.950 . S
H997 C1009 0.950 . S
H998 C1006 0.950 . S
H999 C1008 0.950 . S
H1000 C1010 0.950 . S
H1001 C1012 0.950 . S
H1002 C1014 0.950 . S
H1003 C1015 0.950 . S
C1004 H996 0.950 . S
C1004 C1005 1.386 . S
C1004 C1006 1.391 . S
C1005 C1004 1.386 . S
C1005 C1009 1.393 . S
C1006 H998 0.950 . S
C1006 C1004 1.391 . S
C1006 C1007 1.400 . S
C1007 C1006 1.400 . S
C1007 C1008 1.398 . S
C1007 C1013 1.491 . S
C1008 H999 0.950 . S
C1008 C1007 1.398 . S
C1008 C1009 1.391 . S
C1009 H997 0.950 . S
C1009 C1005 1.393 . S
C1009 C1008 1.391 . S
C1010 H1000 0.950 . S
C1010 C1011 1.386 . S
C1010 C1012 1.391 . S
C1011 C1010 1.386 . S
C1011 C1015 1.393 . S
C1012 H1001 0.950 . S
C1012 C1010 1.391 . S
C1012 C1013 1.400 . S
C1013 C1007 1.491 . S
C1013 C1012 1.400 . S
C1013 C1014 1.398 . S
C1014 H1002 0.950 . S
C1014 C1013 1.398 . S
C1014 C1015 1.391 . S
C1015 H1003 0.950 . S
C1015 C1011 1.393 . S
C1015 C1014 1.391 . S
H1016 C1024 0.950 . S
H1017 C1029 0.950 . S
H1018 C1026 0.950 . S
H1019 C1028 0.950 . S
H1020 C1030 0.950 . S
H1021 C1032 0.950 . S
H1022 C1034 0.950 . S
H1023 C1035 0.950 . S
C1024 H1016 0.950 . S
C1024 C1025 1.386 . S
C1024 C1026 1.391 . S
C1025 C1024 1.386 . S
C1025 C1029 1.393 . S
C1026 H1018 0.950 . S
C1026 C1024 1.391 . S
C1026 C1027 1.400 . S
C1027 C1026 1.400 . S
C1027 C1028 1.398 . S
C1027 C1033 1.491 . S
C1028 H1019 0.950 . S
C1028 C1027 1.398 . S
C1028 C1029 1.391 . S
C1029 H1017 0.950 . S
C1029 C1025 1.393 . S
C1029 C1028 1.391 . S
C1030 H1020 0.950 . S
C1030 C1031 1.386 . S
C1030 C1032 1.391 . S
C1031 C1030 1.386 . S
C1031 C1035 1.393 . S
C1032 H1021 0.950 . S
C1032 C1030 1.391 . S
C1032 C1033 1.400 . S
C1033 C1027 1.491 . S
C1033 C1032 1.400 . S
C1033 C1034 1.398 . S
C1034 H1022 0.950 . S
C1034 C1033 1.398 . S
C1034 C1035 1.391 . S
C1035 H1023 0.950 . S
C1035 C1031 1.393 . S
C1035 C1034 1.391 . S
H1036 C1044 0.950 . S
H1037 C1049 0.950 . S
H1038 C1046 0.950 . S
H1039 C1048 0.950 . S
H1040 C1050 0.950 1_455 S
H1041 C1052 0.950 . S
H1042 C1054 0.950 . S
H1043 C1055 0.950 . S
C1044 H1036 0.950 . S
C1044 C1045 1.386 . S
C1044 C1046 1.391 . S
C1045 C1044 1.386 . S
C1045 C1049 1.393 . S
C1046 H1038 0.950 . S
C1046 C1044 1.391 . S
C1046 C1047 1.400 . S
C1047 C1046 1.400 . S
C1047 C1048 1.398 . S
C1047 C1053 1.491 . S
C1048 H1039 0.950 . S
C1048 C1047 1.398 . S
C1048 C1049 1.391 . S
C1049 H1037 0.950 . S
C1049 C1045 1.393 . S
C1049 C1048 1.391 . S
C1050 H1040 0.950 1_655 S
C1050 C1051 1.386 . S
C1050 C1052 1.391 . S
C1051 C1050 1.386 . S
C1051 C1055 1.393 . S
C1052 H1041 0.950 . S
C1052 C1050 1.391 . S
C1052 C1053 1.400 . S
C1053 C1047 1.491 . S
C1053 C1052 1.400 . S
C1053 C1054 1.398 . S
C1054 H1042 0.950 . S
C1054 C1053 1.398 . S
C1054 C1055 1.391 . S
C1055 H1043 0.950 . S
C1055 C1051 1.393 . S
C1055 C1054 1.391 . S
H1056 C1064 0.950 . S
H1057 C1069 0.950 . S
H1058 C1066 0.950 . S
H1059 C1068 0.950 . S
H1060 C1070 0.950 . S
H1061 C1072 0.950 . S
H1062 C1074 0.950 . S
H1063 C1075 0.950 . S
C1064 H1056 0.950 . S
C1064 C1065 1.386 . S
C1064 C1066 1.391 . S
C1065 C1064 1.386 . S
C1065 C1069 1.393 . S
C1066 H1058 0.950 . S
C1066 C1064 1.391 . S
C1066 C1067 1.400 . S
C1067 C1066 1.400 . S
C1067 C1068 1.398 . S
C1067 C1073 1.491 . S
C1068 H1059 0.950 . S
C1068 C1067 1.398 . S
C1068 C1069 1.391 . S
C1069 H1057 0.950 . S
C1069 C1065 1.393 . S
C1069 C1068 1.391 . S
C1070 H1060 0.950 . S
C1070 C1071 1.386 . S
C1070 C1072 1.391 . S
C1071 C1070 1.386 . S
C1071 C1075 1.393 . S
C1072 H1061 0.950 . S
C1072 C1070 1.391 . S
C1072 C1073 1.400 . S
C1073 C1067 1.491 . S
C1073 C1072 1.400 . S
C1073 C1074 1.398 . S
C1074 H1062 0.950 . S
C1074 C1073 1.398 . S
C1074 C1075 1.391 . S
C1075 H1063 0.950 . S
C1075 C1071 1.393 . S
C1075 C1074 1.391 . S
H1076 C1084 0.950 . S
H1077 C1089 0.950 . S
H1078 C1086 0.950 . S
H1079 C1088 0.950 . S
H1080 C1090 0.950 . S
H1081 C1092 0.950 . S
H1082 C1094 0.950 . S
H1083 C1095 0.950 . S
C1084 H1076 0.950 . S
C1084 C1085 1.386 . S
C1084 C1086 1.391 . S
C1085 C1084 1.386 . S
C1085 C1089 1.393 . S
C1086 H1078 0.950 . S
C1086 C1084 1.391 . S
C1086 C1087 1.400 . S
C1087 C1086 1.400 . S
C1087 C1088 1.398 . S
C1087 C1093 1.491 . S
C1088 H1079 0.950 . S
C1088 C1087 1.398 . S
C1088 C1089 1.391 . S
C1089 H1077 0.950 . S
C1089 C1085 1.393 . S
C1089 C1088 1.391 . S
C1090 H1080 0.950 . S
C1090 C1091 1.386 . S
C1090 C1092 1.391 . S
C1091 C1090 1.386 . S
C1091 C1095 1.393 . S
C1092 H1081 0.950 . S
C1092 C1090 1.391 . S
C1092 C1093 1.400 . S
C1093 C1087 1.491 . S
C1093 C1092 1.400 . S
C1093 C1094 1.398 . S
C1094 H1082 0.950 . S
C1094 C1093 1.398 . S
C1094 C1095 1.391 . S
C1095 H1083 0.950 . S
C1095 C1091 1.393 . S
C1095 C1094 1.391 . S
H1096 C1104 0.950 . S
H1097 C1109 0.950 . S
H1098 C1106 0.950 . S
H1099 C1108 0.950 . S
H1100 C1110 0.950 . S
H1101 C1112 0.950 . S
H1102 C1114 0.950 . S
H1103 C1115 0.950 . S
C1104 H1096 0.950 . S
C1104 C1105 1.386 . S
C1104 C1106 1.391 . S
C1105 C1104 1.386 . S
C1105 C1109 1.393 . S
C1106 H1098 0.950 . S
C1106 C1104 1.391 . S
C1106 C1107 1.400 . S
C1107 C1106 1.400 . S
C1107 C1108 1.398 . S
C1107 C1113 1.491 . S
C1108 H1099 0.950 . S
C1108 C1107 1.398 . S
C1108 C1109 1.391 . S
C1109 H1097 0.950 . S
C1109 C1105 1.393 . S
C1109 C1108 1.391 . S
C1110 H1100 0.950 . S
C1110 C1111 1.386 . S
C1110 C1112 1.391 . S
C1111 C1110 1.386 . S
C1111 C1115 1.393 . S
C1112 H1101 0.950 . S
C1112 C1110 1.391 . S
C1112 C1113 1.400 . S
C1113 C1107 1.491 . S
C1113 C1112 1.400 . S
C1113 C1114 1.398 . S
C1114 H1102 0.950 . S
C1114 C1113 1.398 . S
C1114 C1115 1.391 . S
C1115 H1103 0.950 . S
C1115 C1111 1.393 . S
C1115 C1114 1.391 . S
H1116 C1124 0.950 . S
H1117 C1129 0.950 . S
H1118 C1126 0.950 . S
H1119 C1128 0.950 . S
H1120 C1130 0.950 . S
H1121 C1132 0.950 . S
H1122 C1134 0.950 . S
H1123 C1135 0.950 . S
C1124 H1116 0.950 . S
C1124 C1125 1.386 . S
C1124 C1126 1.391 . S
C1125 C1124 1.386 . S
C1125 C1129 1.393 . S
C1126 H1118 0.950 . S
C1126 C1124 1.391 . S
C1126 C1127 1.400 . S
C1127 C1126 1.400 . S
C1127 C1128 1.398 . S
C1127 C1133 1.491 . S
C1128 H1119 0.950 . S
C1128 C1127 1.398 . S
C1128 C1129 1.391 . S
C1129 H1117 0.950 . S
C1129 C1125 1.393 . S
C1129 C1128 1.391 . S
C1130 H1120 0.950 . S
C1130 C1131 1.386 . S
C1130 C1132 1.391 . S
C1131 C1130 1.386 . S
C1131 C1135 1.393 . S
C1132 H1121 0.950 . S
C1132 C1130 1.391 . S
C1132 C1133 1.400 . S
C1133 C1127 1.491 . S
C1133 C1132 1.400 . S
C1133 C1134 1.398 . S
C1134 H1122 0.950 . S
C1134 C1133 1.398 . S
C1134 C1135 1.391 . S
C1135 H1123 0.950 . S
C1135 C1131 1.393 . S
C1135 C1134 1.391 . S
C665 C242 1.441 1_545 S
C671 C394 1.485 . S
C691 C478 1.484 . S
C685 C301 1.495 . S
C711 C471 1.485 . S
C705 C162 1.446 . S
C725 C221 1.489 . S
C731 C387 1.480 . S
C751 C551 1.485 . S
C745 C82 1.486 1_565 S
C771 C635 1.473 . S
C765 C141 1.477 . S
C785 C2 1.492 . S
C791 C628 1.493 . S
C805 C61 1.485 . S
C811 C544 1.482 . S
C831 C378 1.359 . S
C825 C42 1.506 . S
C851 C462 1.359 . S
C845 C21 1.532 . S
C871 C473 1.406 . S
C865 C122 1.529 . S
C891 C389 1.390 . S
C885 C101 1.548 . S
C911 C557 1.365 . S
C905 C202 1.527 . S
C925 C181 1.494 . S
C931 C641 1.345 . S
C951 C630 1.389 . S
C945 C282 1.548 . S
C965 C261 1.510 . S
C971 C546 1.387 . S
C991 C376 1.614 . S
C985 C15 1.610 . S
C1011 C460 1.596 . S
C1005 C55 1.592 . S
C1025 C95 1.593 . S
C1031 C467 1.582 . S
C1051 C383 1.568 . S
C1045 C135 1.581 . S
C1071 C555 1.612 . S
C1065 C175 1.606 . S
C1085 C215 1.593 . S
C1091 C639 1.595 . S
C1105 C255 1.587 . S
C1111 C646 1.583 . S
C1125 C295 1.583 . S
C1131 C562 1.568 . S
