# Generated by pormake.
# Topology ocu, (6,8)-cn, num edge types: 1
# Building blocks:
#     Node 0, Type 0, BuildingBlock: PAMTUU_clean_sbu_0, # of connection points: 6
#     Node 1, Type 0, BuildingBlock: PAMTUU_clean_sbu_0, # of connection points: 6
#     Node 2, Type 0, BuildingBlock: PAMTUU_clean_sbu_0, # of connection points: 6
#     Node 3, Type 0, BuildingBlock: PAMTUU_clean_sbu_0, # of connection points: 6
#     Node 4, Type 0, BuildingBlock: PAMTUU_clean_sbu_0, # of connection points: 6
#     Node 5, Type 0, BuildingBlock: PAMTUU_clean_sbu_0, # of connection points: 6
#     Node 6, Type 0, BuildingBlock: PAMTUU_clean_sbu_0, # of connection points: 6
#     Node 7, Type 0, BuildingBlock: PAMTUU_clean_sbu_0, # of connection points: 6
#     Node 8, Type 1, BuildingBlock: GIZVER_clean_sbu_0, # of connection points: 8
#     Node 9, Type 1, BuildingBlock: GIZVER_clean_sbu_0, # of connection points: 8
#     Node 10, Type 1, BuildingBlock: GIZVER_clean_sbu_0, # of connection points: 8
#     Node 11, Type 1, BuildingBlock: GIZVER_clean_sbu_0, # of connection points: 8
#     Node 12, Type 1, BuildingBlock: GIZVER_clean_sbu_0, # of connection points: 8
#     Node 13, Type 1, BuildingBlock: GIZVER_clean_sbu_0, # of connection points: 8
#     Edge 14, Type (0, 1), BuildingBlock: CIFDUS_clean_linker_0, # of connection points: 2
#     Edge 15, Type (0, 1), BuildingBlock: CIFDUS_clean_linker_0, # of connection points: 2
#     Edge 16, Type (0, 1), BuildingBlock: CIFDUS_clean_linker_0, # of connection points: 2
#     Edge 17, Type (0, 1), BuildingBlock: CIFDUS_clean_linker_0, # of connection points: 2
#     Edge 18, Type (0, 1), BuildingBlock: CIFDUS_clean_linker_0, # of connection points: 2
#     Edge 19, Type (0, 1), BuildingBlock: CIFDUS_clean_linker_0, # of connection points: 2
#     Edge 20, Type (0, 1), BuildingBlock: CIFDUS_clean_linker_0, # of connection points: 2
#     Edge 21, Type (0, 1), BuildingBlock: CIFDUS_clean_linker_0, # of connection points: 2
#     Edge 22, Type (0, 1), BuildingBlock: CIFDUS_clean_linker_0, # of connection points: 2
#     Edge 23, Type (0, 1), BuildingBlock: CIFDUS_clean_linker_0, # of connection points: 2
#     Edge 24, Type (0, 1), BuildingBlock: CIFDUS_clean_linker_0, # of connection points: 2
#     Edge 25, Type (0, 1), BuildingBlock: CIFDUS_clean_linker_0, # of connection points: 2
#     Edge 26, Type (0, 1), BuildingBlock: CIFDUS_clean_linker_0, # of connection points: 2
#     Edge 27, Type (0, 1), BuildingBlock: CIFDUS_clean_linker_0, # of connection points: 2
#     Edge 28, Type (0, 1), BuildingBlock: CIFDUS_clean_linker_0, # of connection points: 2
#     Edge 29, Type (0, 1), BuildingBlock: CIFDUS_clean_linker_0, # of connection points: 2
#     Edge 30, Type (0, 1), BuildingBlock: CIFDUS_clean_linker_0, # of connection points: 2
#     Edge 31, Type (0, 1), BuildingBlock: CIFDUS_clean_linker_0, # of connection points: 2
#     Edge 32, Type (0, 1), BuildingBlock: CIFDUS_clean_linker_0, # of connection points: 2
#     Edge 33, Type (0, 1), BuildingBlock: CIFDUS_clean_linker_0, # of connection points: 2
#     Edge 34, Type (0, 1), BuildingBlock: CIFDUS_clean_linker_0, # of connection points: 2
#     Edge 35, Type (0, 1), BuildingBlock: CIFDUS_clean_linker_0, # of connection points: 2
#     Edge 36, Type (0, 1), BuildingBlock: CIFDUS_clean_linker_0, # of connection points: 2
#     Edge 37, Type (0, 1), BuildingBlock: CIFDUS_clean_linker_0, # of connection points: 2
#     Edge 38, Type (0, 1), BuildingBlock: CIFDUS_clean_linker_0, # of connection points: 2
#     Edge 39, Type (0, 1), BuildingBlock: CIFDUS_clean_linker_0, # of connection points: 2
#     Edge 40, Type (0, 1), BuildingBlock: CIFDUS_clean_linker_0, # of connection points: 2
#     Edge 41, Type (0, 1), BuildingBlock: CIFDUS_clean_linker_0, # of connection points: 2
#     Edge 42, Type (0, 1), BuildingBlock: CIFDUS_clean_linker_0, # of connection points: 2
#     Edge 43, Type (0, 1), BuildingBlock: CIFDUS_clean_linker_0, # of connection points: 2
#     Edge 44, Type (0, 1), BuildingBlock: CIFDUS_clean_linker_0, # of connection points: 2
#     Edge 45, Type (0, 1), BuildingBlock: CIFDUS_clean_linker_0, # of connection points: 2
#     Edge 46, Type (0, 1), BuildingBlock: CIFDUS_clean_linker_0, # of connection points: 2
#     Edge 47, Type (0, 1), BuildingBlock: CIFDUS_clean_linker_0, # of connection points: 2
#     Edge 48, Type (0, 1), BuildingBlock: CIFDUS_clean_linker_0, # of connection points: 2
#     Edge 49, Type (0, 1), BuildingBlock: CIFDUS_clean_linker_0, # of connection points: 2
#     Edge 50, Type (0, 1), BuildingBlock: CIFDUS_clean_linker_0, # of connection points: 2
#     Edge 51, Type (0, 1), BuildingBlock: CIFDUS_clean_linker_0, # of connection points: 2
#     Edge 52, Type (0, 1), BuildingBlock: CIFDUS_clean_linker_0, # of connection points: 2
#     Edge 53, Type (0, 1), BuildingBlock: CIFDUS_clean_linker_0, # of connection points: 2
#     Edge 54, Type (0, 1), BuildingBlock: CIFDUS_clean_linker_0, # of connection points: 2
#     Edge 55, Type (0, 1), BuildingBlock: CIFDUS_clean_linker_0, # of connection points: 2
#     Edge 56, Type (0, 1), BuildingBlock: CIFDUS_clean_linker_0, # of connection points: 2
#     Edge 57, Type (0, 1), BuildingBlock: CIFDUS_clean_linker_0, # of connection points: 2
#     Edge 58, Type (0, 1), BuildingBlock: CIFDUS_clean_linker_0, # of connection points: 2
#     Edge 59, Type (0, 1), BuildingBlock: CIFDUS_clean_linker_0, # of connection points: 2
#     Edge 60, Type (0, 1), BuildingBlock: CIFDUS_clean_linker_0, # of connection points: 2
#     Edge 61, Type (0, 1), BuildingBlock: CIFDUS_clean_linker_0, # of connection points: 2
# Relax obj value: 0.196
# Max RMSD: 0.251
# Mean RMSD: 0.185
data_MOF--net-ocu--node1-PAMTUU_clean_sbu_0--node2-GIZVER_clean_sbu_0--edge1-CIFDUS_clean_linker_0
_symmetry_space_group_name_H-M    P1
_symmetry_Int_Tables_number       1
_symmetry_cell_setting            triclinic
loop_
_symmetry_equiv_pos_as_xyz
'x, y, z'
_cell_length_a     37.818663
_cell_length_b     41.352128
_cell_length_c     29.330622
_cell_angle_alpha  83.373222
_cell_angle_beta   97.485451
_cell_angle_gamma 113.45376
loop_
_atom_site_label
_atom_site_type_symbol
_atom_site_fract_x
_atom_site_fract_y
_atom_site_fract_z
_atom_type_partial_charge
Tb0 Tb 0.28807 0.29136 0.26777 0.0
Tb1 Tb 0.3486 0.30153 0.35374 0.0
C2 C 0.26665 0.24045 0.354 0.0
C3 C 0.22146 0.298 0.16328 0.0
C4 C 0.18488 0.33863 0.11082 0.0
C5 C 0.16298 0.3074 0.13559 0.0
C6 C 0.18122 0.28715 0.1616 0.0
C7 C 0.24268 0.32695 0.1344 0.0
C8 C 0.22439 0.34704 0.10812 0.0
C9 C 0.24072 0.27968 0.19659 0.0
O10 O 0.26733 0.32201 0.31189 0.0
O11 O 0.31901 0.33775 0.36648 0.0
O12 O 0.38045 0.33108 0.29543 0.0
O13 O 0.33205 0.34415 0.25516 0.0
O14 O 0.37232 0.28195 0.41359 0.0
O15 O 0.39369 0.33809 0.39354 0.0
O16 O 0.36349 0.26354 0.31578 0.0
O17 O 0.32494 0.26364 0.24912 0.0
O18 O 0.26758 0.24212 0.30956 0.0
O19 O 0.29363 0.26458 0.37832 0.0
C20 C 0.2853 0.33986 0.34939 0.0
O21 O 0.27803 0.2902 0.19613 0.0
O22 O 0.23046 0.27398 0.23852 0.0
C23 C 0.36893 0.35028 0.26322 0.0
C24 C 0.43848 0.31419 0.42741 0.0
C25 C 0.50412 0.29779 0.43571 0.0
C26 C 0.48599 0.29683 0.47509 0.0
C27 C 0.45323 0.30492 0.47087 0.0
C28 C 0.45877 0.31872 0.38881 0.0
C29 C 0.49163 0.31081 0.39302 0.0
C30 C 0.39913 0.31312 0.42135 0.0
C31 C 0.35221 0.25376 0.27244 0.0
H32 H 0.13249 0.30033 0.13843 0.0
H33 H 0.16424 0.26429 0.18271 0.0
H34 H 0.27367 0.33532 0.13398 0.0
H35 H 0.2417 0.37076 0.08864 0.0
H36 H 0.49462 0.28645 0.50833 0.0
H37 H 0.4377 0.3012 0.50089 0.0
H38 H 0.44762 0.32579 0.3549 0.0
H39 H 0.50524 0.31191 0.36226 0.0
Tb40 Tb 0.79602 0.30969 0.27222 0.0
Tb41 Tb 0.86173 0.27898 0.26405 0.0
C42 C 0.86706 0.3271 0.34402 0.0
C43 C 0.72016 0.33472 0.22015 0.0
C44 C 0.67795 0.33312 0.13334 0.0
C45 C 0.66034 0.32942 0.17433 0.0
C46 C 0.68119 0.32972 0.21742 0.0
C47 C 0.73789 0.33883 0.17956 0.0
C48 C 0.71689 0.33735 0.13676 0.0
C49 C 0.74107 0.3299 0.26425 0.0
O50 O 0.84605 0.35342 0.24613 0.0
O51 O 0.86603 0.31964 0.20817 0.0
O52 O 0.81047 0.24719 0.22256 0.0
O53 O 0.78944 0.29171 0.20396 0.0
O54 O 0.9171 0.29148 0.24385 0.0
O55 O 0.88314 0.23871 0.27013 0.0
O56 O 0.83268 0.25008 0.32469 0.0
O57 O 0.77494 0.25615 0.30473 0.0
O58 O 0.82995 0.3207 0.33778 0.0
O59 O 0.88483 0.3179 0.31534 0.0
C60 C 0.86588 0.35046 0.21451 0.0
O61 O 0.73686 0.29727 0.27503 0.0
O62 O 0.77728 0.35147 0.26991 0.0
C63 C 0.78787 0.26055 0.1969 0.0
C64 C 0.94907 0.26245 0.2955 0.0
C65 C 0.99781 0.25655 0.37363 0.0
C66 C 0.99032 0.23471 0.33722 0.0
C67 C 0.96577 0.23749 0.29839 0.0
C68 C 0.95929 0.28622 0.33017 0.0
C69 C 0.98319 0.28306 0.36928 0.0
C70 C 0.91742 0.26094 0.26009 0.0
C71 C 0.79552 0.24003 0.32918 0.0
H72 H 0.63072 0.32711 0.17333 0.0
H73 H 0.66688 0.32586 0.24847 0.0
H74 H 0.76796 0.34248 0.18089 0.0
H75 H 0.73145 0.3397 0.10639 0.0
H76 H 1.00088 0.21365 0.34051 0.0
H77 H 0.9581 0.2189 0.27203 0.0
H78 H 0.94704 0.30595 0.32827 0.0
H79 H 0.98835 0.29982 0.39726 0.0
Tb80 Tb 0.83222 0.81054 0.27919 0.0
Tb81 Tb 0.77782 0.77182 0.35656 0.0
C82 C 0.84769 0.84231 0.37211 0.0
C83 C 0.90041 0.82287 0.1994 0.0
C84 C 0.91379 0.77136 0.15797 0.0
C85 C 0.91535 0.77092 0.20621 0.0
C86 C 0.91005 0.79694 0.22655 0.0
C87 C 0.90094 0.82504 0.15147 0.0
C88 C 0.90835 0.79979 0.13086 0.0
C89 C 0.87969 0.83984 0.22002 0.0
O90 O 0.86294 0.7767 0.32241 0.0
O91 O 0.81212 0.73722 0.35929 0.0
O92 O 0.75116 0.7365 0.30235 0.0
O93 O 0.79855 0.75902 0.25233 0.0
O94 O 0.77259 0.74854 0.42405 0.0
O95 O 0.72371 0.75429 0.38327 0.0
O96 O 0.75611 0.81512 0.32411 0.0
O97 O 0.78348 0.82964 0.25609 0.0
O98 O 0.84277 0.84983 0.32802 0.0
O99 O 0.83015 0.81002 0.38882 0.0
C100 C 0.84834 0.74637 0.34884 0.0
O101 O 0.84236 0.82578 0.20985 0.0
O102 O 0.88857 0.84413 0.26406 0.0
C103 C 0.76615 0.73459 0.26552 0.0
C104 C 0.73174 0.76453 0.46139 0.0
C105 C 0.71429 0.80537 0.51796 0.0
C106 C 0.68821 0.77055 0.51035 0.0
C107 C 0.69685 0.75028 0.48196 0.0
C108 C 0.75932 0.79787 0.47259 0.0
C109 C 0.75076 0.81806 0.50085 0.0
C110 C 0.7376 0.74687 0.42428 0.0
C111 C 0.75809 0.83198 0.28173 0.0
H112 H 0.91826 0.74944 0.22895 0.0
H113 H 0.91017 0.79472 0.26362 0.0
H114 H 0.89326 0.8448 0.1299 0.0
H115 H 0.9082 0.80186 0.09374 0.0
H116 H 0.66002 0.76003 0.52349 0.0
H117 H 0.67539 0.72447 0.47382 0.0
H118 H 0.78648 0.80935 0.45702 0.0
H119 H 0.77132 0.84487 0.50551 0.0
Tb120 Tb 0.3155 0.7668 0.32357 0.0
Tb121 Tb 0.27187 0.8212 0.32349 0.0
C122 C 0.25568 0.75519 0.38616 0.0
C123 C 0.34987 0.69562 0.30597 0.0
C124 C 0.37434 0.65062 0.26592 0.0
C125 C 0.35179 0.63785 0.30334 0.0
C126 C 0.33976 0.66034 0.32342 0.0
C127 C 0.36983 0.70745 0.26618 0.0
C128 C 0.3822 0.68511 0.24649 0.0
C129 C 0.34386 0.7205 0.33302 0.0
O130 O 0.26212 0.7442 0.27822 0.0
O131 O 0.24084 0.79004 0.26574 0.0
O132 O 0.31953 0.84551 0.28121 0.0
O133 O 0.32543 0.79681 0.25803 0.0
O134 O 0.24643 0.84405 0.36249 0.0
O135 O 0.25049 0.85789 0.28917 0.0
O136 O 0.32234 0.83908 0.37427 0.0
O137 O 0.36078 0.81409 0.35054 0.0
O138 O 0.29308 0.76755 0.38692 0.0
O139 O 0.23781 0.77043 0.35595 0.0
C140 C 0.23904 0.75908 0.25622 0.0
O141 O 0.36361 0.75409 0.32348 0.0
O142 O 0.30837 0.71386 0.34097 0.0
C143 C 0.33152 0.8305 0.25283 0.0
C144 C 0.26239 0.90425 0.33673 0.0
C145 C 0.28818 0.97623 0.35281 0.0
C146 C 0.28507 0.96599 0.30794 0.0
C147 C 0.27199 0.93027 0.29992 0.0
C148 C 0.26924 0.91477 0.38195 0.0
C149 C 0.28229 0.95039 0.38991 0.0
C150 C 0.24418 0.8664 0.32796 0.0
C151 C 0.35639 0.83745 0.37361 0.0
H152 H 0.34579 0.61135 0.3189 0.0
H153 H 0.32442 0.65076 0.35411 0.0
H154 H 0.37775 0.73446 0.25176 0.0
H155 H 0.39963 0.6953 0.21755 0.0
H156 H 0.28964 0.98532 0.27872 0.0
H157 H 0.26762 0.92302 0.26468 0.0
H158 H 0.26261 0.89545 0.41116 0.0
H159 H 0.28407 0.95717 0.42493 0.0
Tb160 Tb 0.32394 0.79976 0.76627 0.0
Tb161 Tb 0.37307 0.75705 0.81569 0.0
C162 C 0.38409 0.82857 0.85507 0.0
C163 C 0.28463 0.84736 0.67222 0.0
C164 C 0.26599 0.86707 0.58001 0.0
C165 C 0.28139 0.89228 0.61346 0.0
C166 C 0.29049 0.88247 0.65891 0.0
C167 C 0.27201 0.82237 0.63879 0.0
C168 C 0.26263 0.83217 0.59292 0.0
C169 C 0.29234 0.83811 0.72117 0.0
O170 O 0.36148 0.79811 0.71819 0.0
O171 O 0.41094 0.79948 0.77058 0.0
O172 O 0.34488 0.72726 0.75352 0.0
O173 O 0.2958 0.7472 0.73515 0.0
O174 O 0.42532 0.75849 0.85211 0.0
O175 O 0.37755 0.70887 0.84037 0.0
O176 O 0.31716 0.73233 0.84351 0.0
O177 O 0.29362 0.77591 0.82688 0.0
O178 O 0.36933 0.83722 0.81435 0.0
O179 O 0.37808 0.79511 0.86516 0.0
C180 C 0.39856 0.80849 0.72919 0.0
O181 O 0.273 0.80582 0.73709 0.0
O182 O 0.3288 0.84959 0.73639 0.0
C183 C 0.31092 0.72375 0.7308 0.0
C184 C 0.407 0.71687 0.91571 0.0
C185 C 0.39611 0.69922 1.01014 0.0
C186 C 0.39878 0.67484 0.98196 0.0
C187 C 0.4041 0.6836 0.93527 0.0
C188 C 0.4033 0.74079 0.94345 0.0
C189 C 0.3983 0.73225 0.99025 0.0
C190 C 0.40943 0.72512 0.86568 0.0
C191 C 0.29183 0.74571 0.84809 0.0
H192 H 0.2838 0.91927 0.60569 0.0
H193 H 0.30081 0.90218 0.68414 0.0
H194 H 0.26827 0.79518 0.64836 0.0
H195 H 0.25111 0.81216 0.56812 0.0
H196 H 0.3984 0.64939 0.99628 0.0
H197 H 0.40608 0.66445 0.91451 0.0
H198 H 0.40443 0.76624 0.92925 0.0
H199 H 0.39706 0.75171 0.01109 0.0
Tb200 Tb 0.34659 0.29143 0.75556 0.0
Tb201 Tb 0.30042 0.28352 0.84555 0.0
C202 C 0.37119 0.35209 0.82224 0.0
C203 C 0.39363 0.27076 0.66466 0.0
C204 C 0.41787 0.22629 0.62189 0.0
C205 C 0.42379 0.22826 0.67001 0.0
C206 C 0.41164 0.2501 0.69121 0.0
C207 C 0.3871 0.26844 0.61664 0.0
C208 C 0.39892 0.24621 0.5954 0.0
C209 C 0.38201 0.29504 0.68641 0.0
O210 O 0.36172 0.25316 0.80517 0.0
O211 O 0.34863 0.26703 0.87295 0.0
O212 O 0.27866 0.23062 0.82237 0.0
O213 O 0.29376 0.24486 0.74746 0.0
O214 O 0.30207 0.2975 0.91277 0.0
O215 O 0.24919 0.26177 0.87835 0.0
O216 O 0.26779 0.30176 0.78696 0.0
O217 O 0.31453 0.32646 0.73633 0.0
O218 O 0.38286 0.33439 0.79763 0.0
O219 O 0.33632 0.3391 0.83573 0.0
C220 C 0.365 0.2513 0.8509 0.0
O221 O 0.34503 0.28764 0.68422 0.0
O222 O 0.39906 0.30463 0.72705 0.0
C223 C 0.27474 0.22242 0.77968 0.0
C224 C 0.24427 0.30285 0.92411 0.0
C225 C 0.20656 0.34522 0.94458 0.0
C226 C 0.20031 0.33261 0.90057 0.0
C227 C 0.21916 0.31184 0.89031 0.0
C228 C 0.25088 0.31569 0.96801 0.0
C229 C 0.23232 0.33694 0.97811 0.0
C230 C 0.26466 0.2813 0.91327 0.0
C231 C 0.28081 0.32238 0.74964 0.0
H232 H 0.43772 0.21271 0.69136 0.0
H233 H 0.41661 0.25095 0.72835 0.0
H234 H 0.37313 0.28407 0.59553 0.0
H235 H 0.39403 0.24518 0.55827 0.0
H236 H 0.18101 0.33909 0.87391 0.0
H237 H 0.21407 0.30289 0.85587 0.0
H238 H 0.27046 0.30935 0.99438 0.0
H239 H 0.23759 0.34642 0.01221 0.0
Tb240 Tb 0.84396 0.27218 0.83411 0.0
Tb241 Tb 0.78748 0.30787 0.7837 0.0
C242 C 0.75999 0.25131 0.8662 0.0
C243 C 0.89265 0.21202 0.85098 0.0
C244 C 0.89882 0.1553 0.81349 0.0
C245 C 0.90438 0.15803 0.86148 0.0
C246 C 0.90097 0.18617 0.88018 0.0
C247 C 0.88665 0.20899 0.80321 0.0
C248 C 0.88948 0.18081 0.78464 0.0
C249 C 0.88657 0.24043 0.86981 0.0
O250 O 0.82135 0.24619 0.7706 0.0
O251 O 0.76492 0.25527 0.75752 0.0
O252 O 0.83026 0.31544 0.73617 0.0
O253 O 0.87977 0.31906 0.79031 0.0
O254 O 0.73332 0.31187 0.76959 0.0
O255 O 0.78358 0.34989 0.73878 0.0
O256 O 0.83098 0.34661 0.82795 0.0
O257 O 0.84521 0.30841 0.88197 0.0
O258 O 0.78577 0.23935 0.85734 0.0
O259 O 0.76247 0.2828 0.84842 0.0
C260 C 0.78575 0.23726 0.75175 0.0
O261 O 0.89948 0.2711 0.84686 0.0
O262 O 0.85148 0.23205 0.88004 0.0
C263 C 0.86764 0.3283 0.74841 0.0
C264 C 0.7451 0.37244 0.76906 0.0
C265 C 0.74992 0.43218 0.81111 0.0
C266 C 0.75179 0.43364 0.76325 0.0
C267 C 0.74942 0.40397 0.74241 0.0
C268 C 0.74336 0.37099 0.8168 0.0
C269 C 0.74546 0.40042 0.83751 0.0
C270 C 0.74874 0.34322 0.74871 0.0
C271 C 0.84602 0.33996 0.86902 0.0
H272 H 0.91195 0.13876 0.8843 0.0
H273 H 0.90499 0.18786 0.91721 0.0
H274 H 0.88019 0.22867 0.78007 0.0
H275 H 0.88605 0.17989 0.7475 0.0
H276 H 0.75539 0.45775 0.74198 0.0
H277 H 0.7519 0.40588 0.70572 0.0
H278 H 0.74103 0.34726 0.8384 0.0
H279 H 0.74295 0.398 0.87423 0.0
Tb280 Tb 0.82325 0.81122 0.83625 0.0
Tb281 Tb 0.79398 0.76006 0.748 0.0
C282 C 0.87428 0.82481 0.7564 0.0
C283 C 0.81433 0.86811 0.91746 0.0
C284 C 0.76646 0.89914 0.94448 0.0
C285 C 0.80607 0.91928 0.94043 0.0
C286 C 0.82977 0.90387 0.92696 0.0
C287 C 0.77501 0.84782 0.92247 0.0
C288 C 0.75147 0.86307 0.93609 0.0
C289 C 0.83845 0.85265 0.89947 0.0
O290 O 0.80072 0.83606 0.77709 0.0
O291 O 0.75601 0.78915 0.7395 0.0
O292 O 0.75546 0.732 0.80161 0.0
O293 O 0.76185 0.77954 0.84033 0.0
O294 O 0.79432 0.75622 0.67688 0.0
O295 O 0.76935 0.70979 0.72175 0.0
O296 O 0.83854 0.74698 0.79058 0.0
O297 O 0.83753 0.76607 0.86099 0.0
O298 O 0.87489 0.82252 0.80153 0.0
O299 O 0.84219 0.80896 0.73042 0.0
C300 C 0.76798 0.82179 0.75154 0.0
O301 O 0.82792 0.81852 0.90678 0.0
O302 O 0.8472 0.86325 0.8573 0.0
C303 C 0.74362 0.74619 0.83132 0.0
C304 C 0.80769 0.70656 0.66612 0.0
C305 C 0.86048 0.68124 0.63781 0.0
C306 C 0.83487 0.69078 0.6051 0.0
C307 C 0.80879 0.70343 0.61916 0.0
C308 C 0.83281 0.69652 0.6986 0.0
C309 C 0.85858 0.68385 0.68476 0.0
C310 C 0.78217 0.7219 0.6815 0.0
C311 C 0.84557 0.74618 0.83568 0.0
H312 H 0.81849 0.94716 0.94626 0.0
H313 H 0.85995 0.92008 0.92297 0.0
H314 H 0.76218 0.82021 0.91518 0.0
H315 H 0.72131 0.84656 0.93968 0.0
H316 H 0.83565 0.68933 0.56864 0.0
H317 H 0.78993 0.71127 0.59336 0.0
H318 H 0.83286 0.69878 0.7349 0.0
H319 H 0.87714 0.67612 0.71112 0.0
Co320 Co 0.11202 1.01433 0.48291 0.0
Co321 Co 0.10807 0.97584 0.55578 0.0
Co322 Co 0.07183 0.03438 0.56324 0.0
O323 O 0.11147 0.02031 0.54528 0.0
H324 H 0.13683 0.03567 0.5578 0.0
O325 O 1.0329 0.04949 0.5817 0.0
Co326 Co 1.04546 0.08079 0.62844 0.0
Co327 Co 1.02865 0.08522 0.54128 0.0
H328 H 1.00793 0.03023 0.58369 0.0
O329 O 0.15419 0.97078 0.56899 0.0
O330 O 0.12011 0.96943 0.49909 0.0
O331 O 0.0619 0.94408 0.58467 0.0
O332 O 1.04023 0.98635 0.59261 0.0
O333 O 0.10532 0.04745 0.62225 0.0
O334 O 1.05273 0.10717 0.67427 0.0
O335 O 0.9968 0.06741 0.64287 0.0
O336 O 0.09807 0.09785 0.62059 0.0
O337 O 0.10455 0.08199 0.53435 0.0
O338 O 0.06559 0.10538 0.49412 0.0
O339 O 1.0404 0.11894 0.58312 0.0
O340 O 0.98511 0.09508 0.53679 0.0
C341 C 0.15337 0.0327 0.43807 0.0
C342 C 1.03178 0.99529 0.48202 0.0
C343 C 1.03773 0.95432 0.59859 0.0
C344 C 0.14963 0.96668 0.52496 0.0
C345 C 1.01568 0.08922 0.67466 0.0
C346 C 0.11649 0.07847 0.63538 0.0
C347 C 0.09877 0.10416 0.5035 0.0
C348 C 1.00877 0.12058 0.56138 0.0
O349 O 0.11788 1.01273 0.4244 0.0
O350 O 0.16257 0.04017 0.48104 0.0
O351 O 1.03705 0.02152 0.50454 0.0
O352 O 0.05926 0.98622 0.47773 0.0
Co353 Co 0.59662 0.99373 0.06909 0.0
Co354 Co 0.59189 0.99306 0.15235 0.0
Co355 Co 0.54652 0.04995 0.09091 0.0
O356 O 0.5916 0.02966 0.10445 0.0
H357 H 0.61631 0.04933 0.10768 0.0
O358 O 0.50228 0.07294 0.08486 0.0
Co359 Co 0.50312 0.118 0.11953 0.0
Co360 Co 0.51022 0.11002 0.03792 0.0
H361 H 0.47645 0.05496 0.08059 0.0
O362 O 0.63419 0.98324 0.19108 0.0
O363 O 0.60463 0.95793 0.1262 0.0
O364 O 0.54001 0.9744 0.16929 0.0
O365 O 0.51378 1.01358 0.13649 0.0
O366 O 0.57171 0.08403 0.13932 0.0
O367 O 0.50347 0.15658 0.15271 0.0
O368 O 0.4492 0.11407 0.13199 0.0
O369 O 0.55905 0.13297 0.11893 0.0
O370 O 0.58228 0.08636 0.04357 0.0
O371 O 0.56009 0.12767 0.01313 0.0
O372 O 0.49783 0.14612 0.05769 0.0
O373 O 0.46905 0.11146 0.99801 0.0
C374 C 0.64062 0.9868 0.04298 0.0
C375 C 0.51662 0.98188 0.03607 0.0
C376 C 0.5124 0.98534 0.16121 0.0
C377 C 0.62987 0.95929 0.16344 0.0
C378 C 0.46611 0.14382 0.15315 0.0
C379 C 0.58289 0.11748 0.13048 0.0
C380 C 0.58608 0.11503 0.01774 0.0
C381 C 0.47384 0.13893 0.0195 0.0
O382 O 0.60465 0.96608 0.03367 0.0
O383 O 0.64899 1.01294 0.06911 0.0
O384 O 0.51834 1.0137 0.04021 0.0
O385 O 0.54029 0.97007 0.06083 0.0
Co386 Co 0.08669 0.50733 0.01247 0.0
Co387 Co 0.09803 0.53823 0.09138 0.0
Co388 Co 1.0534 0.57019 0.01897 0.0
O389 O 0.09547 0.55308 0.02844 0.0
H390 H 0.12008 0.57082 0.02046 0.0
O391 O 1.01116 0.58708 0.01041 0.0
Co392 Co 1.0145 0.62422 0.04442 0.0
Co393 Co 1.01064 0.61658 0.96071 0.0
H394 H 0.9862 0.56761 0.01077 0.0
O395 O 0.14034 0.52994 0.12061 0.0
O396 O 0.08891 0.49269 0.07914 0.0
O397 O 0.05733 0.53489 0.12794 0.0
O398 O 1.01928 0.53236 0.06334 0.0
O399 O 0.08048 0.60053 0.07064 0.0
O400 O 1.01341 0.6555 0.07781 0.0
O401 O 0.9638 0.60633 0.05309 0.0
O402 O 0.06929 0.64743 0.04206 0.0
O403 O 0.08794 0.60806 0.97484 0.0
O404 O 0.05497 0.6348 0.92791 0.0
O405 O 1.00426 0.652 0.98676 0.0
O406 O 0.96482 0.61475 0.93334 0.0
C407 C 0.12071 0.48245 0.99905 0.0
C408 C 1.01458 0.50538 0.97702 0.0
C409 C 1.0238 0.52537 0.10679 0.0
C410 C 0.12119 0.49895 0.10505 0.0
C411 C 0.97739 0.6339 0.07732 0.0
C412 C 0.08988 0.63369 0.06837 0.0
C413 C 0.08593 0.63013 0.94106 0.0
C414 C 0.97372 0.64232 0.95664 0.0
O415 O 0.08329 0.46625 0.99755 0.0
O416 O 0.13718 0.51503 0.01089 0.0
O417 O 1.02629 0.53865 0.96785 0.0
O418 O 1.03243 0.493 1.00943 0.0
Co419 Co 0.60866 0.51914 0.96502 0.0
Co420 Co 0.58702 0.47414 0.03007 0.0
Co421 Co 0.56883 0.53639 0.05197 0.0
O422 O 0.60632 0.52087 0.03034 0.0
H423 H 0.63154 0.52979 0.04756 0.0
O424 O 0.53117 0.55119 0.07337 0.0
Co425 Co 0.54552 0.58248 0.12031 0.0
Co426 Co 0.52019 0.58531 0.03649 0.0
H427 H 0.5073 0.5312 0.07854 0.0
O428 O 0.62294 0.45557 0.04203 0.0
O429 O 0.59431 0.46629 0.972 0.0
O430 O 0.54148 0.44893 0.06414 0.0
O431 O 0.55132 0.49631 0.10147 0.0
O432 O 0.61209 0.56625 0.09551 0.0
O433 O 0.55479 0.60954 0.16659 0.0
O434 O 0.50279 0.56001 0.14985 0.0
O435 O 0.59232 0.60991 0.09449 0.0
O436 O 0.58689 0.57577 1.00175 0.0
O437 O 0.55565 0.61225 0.99105 0.0
O438 O 0.52051 0.61152 0.08226 0.0
O439 O 0.46991 0.58033 0.03335 0.0
C440 C 0.65143 0.52641 0.92462 0.0
C441 C 0.52496 0.50187 0.96823 0.0
C442 C 0.53477 0.46293 0.09681 0.0
C443 C 0.61447 0.45085 0.99821 0.0
C444 C 0.52032 0.58693 0.17506 0.0
C445 C 0.61944 0.59883 0.09865 0.0
C446 C 0.58189 0.60296 0.98141 0.0
C447 C 0.48362 0.59944 0.06877 0.0
O448 O 0.61607 0.51957 0.90707 0.0
O449 O 0.65983 0.52827 0.96915 0.0
O450 O 0.52503 0.50739 1.00974 0.0
O451 O 0.55613 0.50865 0.95072 0.0
Co452 Co 0.16011 0.48573 0.55565 0.0
Co453 Co 0.13605 0.48648 0.47307 0.0
Co454 Co 0.08259 0.52506 0.52223 0.0
O455 O 0.10761 0.48572 0.52372 0.0
H456 H 0.08766 0.46239 0.52797 0.0
O457 O 0.05914 0.56656 0.51712 0.0
Co458 Co 1.01207 0.57747 0.47399 0.0
Co459 Co 1.02102 0.55427 0.55838 0.0
H460 H 0.07978 0.58874 0.52487 0.0
O461 O 0.13269 0.44615 0.44449 0.0
O462 O 0.18232 0.47672 0.49323 0.0
O463 O 0.1465 0.53059 0.43673 0.0
O464 O 0.10921 0.55237 0.46703 0.0
O465 O 1.03523 0.49692 0.48209 0.0
O466 O 0.96964 0.58895 0.4365 0.0
O467 O 1.01729 0.62845 0.47466 0.0
O468 O 0.99656 0.5283 0.46334 0.0
O469 O 0.05431 0.4947 0.57948 0.0
O470 O 1.00232 0.50666 0.5845 0.0
O471 O 0.98101 0.56454 0.52632 0.0
O472 O 1.01698 0.58887 0.59027 0.0
C473 C 0.1832 0.44831 0.59114 0.0
C474 C 0.16723 0.56096 0.56793 0.0
C475 C 0.13231 0.55371 0.43797 0.0
C476 C 0.16796 0.45192 0.46185 0.0
C477 C 0.98449 0.62157 0.44791 0.0
C478 C 1.00333 0.49999 0.46485 0.0
C479 C 1.02061 0.48654 0.59422 0.0
C480 C 0.98758 0.58496 0.55984 0.0
O481 O 0.20327 0.48221 0.58786 0.0
O482 O 0.14744 0.43691 0.57165 0.0
O483 O 0.13041 0.55447 0.56305 0.0
O484 O 0.18127 0.54009 0.55333 0.0
Co485 Co 0.64547 0.9854 0.61377 0.0
Co486 Co 0.66993 1.01915 0.54044 0.0
Co487 Co 0.59678 0.03377 0.54913 0.0
O488 O 0.62045 0.99846 0.55548 0.0
H489 H 0.60561 0.97839 0.53753 0.0
O490 O 0.57501 0.0698 0.54617 0.0
Co491 Co 0.54729 0.08258 0.49508 0.0
Co492 Co 0.53002 0.05491 0.57061 0.0
H493 H 0.59273 0.09075 0.5608 0.0
O494 O 0.68299 0.99204 0.50755 0.0
O495 O 0.69453 0.99892 0.58446 0.0
O496 O 0.68779 0.06817 0.52059 0.0
O497 O 0.62767 0.06306 0.49532 0.0
O498 O 0.55349 1.00245 0.50597 0.0
O499 O 0.52457 0.09953 0.44695 0.0
O500 O 0.57205 0.12873 0.5 0.0
O501 O 0.51825 0.03504 0.48452 0.0
O502 O 0.56719 1.00501 0.60309 0.0
O503 O 0.50764 1.00471 0.58805 0.0
O504 O 0.50625 0.08094 0.53433 0.0
O505 O 0.53006 0.08513 0.60985 0.0
C506 C 0.65125 0.93985 0.64243 0.0
C507 C 0.66032 0.06112 0.62466 0.0
C508 C 0.66474 0.07931 0.49466 0.0
C509 C 0.69626 0.98381 0.5485 0.0
C510 C 0.54879 0.12914 0.46335 0.0
C511 C 0.52238 1.00579 0.4875 0.0
C512 C 0.53056 0.99009 0.60617 0.0
C513 C 0.5132 0.09604 0.57332 0.0
O514 O 0.6658 0.96886 0.66377 0.0
O515 O 0.6312 0.93929 0.60251 0.0
O516 O 0.63717 0.06484 0.59151 0.0
O517 O 0.66461 0.03217 0.63514 0.0
H518 H 0.2601 0.21653 0.44491 0.0
H519 H 0.19581 0.20376 0.31087 0.0
H520 H 0.13778 0.16226 0.34499 0.0
H521 H 0.10451 0.12939 0.41329 0.0
H522 H 0.16994 0.13851 0.5463 0.0
H523 H 0.22774 0.18142 0.5126 0.0
C524 C 0.23344 0.20452 0.42319 0.0
C525 C 0.23249 0.21334 0.37538 0.0
C526 C 0.20008 0.18005 0.44298 0.0
C527 C 0.19763 0.19733 0.34773 0.0
C528 C 0.16423 0.17367 0.36725 0.0
C529 C 0.1314 0.14102 0.43479 0.0
C530 C 0.13288 0.13106 0.48222 0.0
C531 C 0.16498 0.16491 0.41487 0.0
C532 C 0.16809 0.14579 0.50964 0.0
C533 C 0.20118 0.17033 0.4904 0.0
H534 H 0.95769 0.22984 0.44661 0.0
H535 H 0.07025 0.25793 0.40009 0.0
H536 H 0.08801 0.22487 0.4677 0.0
H537 H 0.0654 0.17712 0.52759 0.0
H538 H 0.94796 0.13971 0.56295 0.0
H539 H 0.9382 0.18805 0.51375 0.0
C540 C 0.98659 0.22972 0.45247 0.0
C541 C 1.01281 0.24607 0.41906 0.0
C542 C 0.99533 0.20869 0.48936 0.0
C543 C 1.04989 0.24546 0.42583 0.0
C544 C 0.05984 0.22644 0.46421 0.0
C545 C 1.03832 0.18067 0.52611 0.0
C546 C 1.0074 0.15532 0.54868 0.0
C547 C 1.03198 0.20636 0.49464 0.0
C548 C 0.97207 0.1593 0.54592 0.0
C549 C 0.96643 0.18658 0.51737 0.0
H550 H 0.87875 0.91457 0.35909 0.0
H551 H 0.88552 0.82751 0.45136 0.0
H552 H 0.94186 0.8678 0.49506 0.0
H553 H 0.99313 0.92659 0.50241 0.0
H554 H 0.98496 1.0152 0.41582 0.0
H555 H 0.92529 0.97563 0.37429 0.0
C556 C 0.89234 0.90459 0.3891 0.0
C557 C 0.8783 0.86804 0.4015 0.0
C558 C 0.92459 0.92809 0.41477 0.0
C559 C 0.89577 0.85548 0.44089 0.0
C560 C 0.92815 0.87846 0.46586 0.0
C561 C 0.97768 0.93725 0.47512 0.0
C562 C 0.99301 0.97347 0.46197 0.0
C563 C 0.94331 0.9146 0.45243 0.0
C564 C 0.97322 0.98728 0.42654 0.0
C565 C 0.93935 0.96465 0.40274 0.0
H566 H 0.2436 1.00622 0.30127 0.0
H567 H 0.32529 0.02133 0.42197 0.0
H568 H 0.29355 0.05288 0.45549 0.0
H569 H 0.23099 0.05654 0.46056 0.0
H570 H 0.14425 0.03063 0.3446 0.0
H571 H 0.18992 0.02441 0.29842 0.0
C572 C 0.25585 1.018 0.33384 0.0
C573 C 0.28556 1.01003 0.36014 0.0
C574 C 0.23553 0.03333 0.35433 0.0
C575 C 0.3016 0.02623 0.40174 0.0
C576 C 0.28311 0.04387 0.42116 0.0
C577 C 0.22247 0.05046 0.4248 0.0
C578 C 0.18384 0.04213 0.40664 0.0
C579 C 0.24798 0.04441 0.39958 0.0
C580 C 0.17351 0.03583 0.35979 0.0
C581 C 0.1996 0.03219 0.33341 0.0
H582 H 0.28905 0.9288 0.52572 0.0
H583 H 0.19681 0.82567 0.53523 0.0
H584 H 0.15028 0.85017 0.50029 0.0
H585 H 0.1336 0.90201 0.49897 0.0
H586 H 0.22479 1.00492 0.51224 0.0
H587 H 0.27328 0.98071 0.50686 0.0
C588 C 0.25886 0.91158 0.5187 0.0
C589 C 0.24599 0.8761 0.53633 0.0
C590 C 0.23159 0.92658 0.50453 0.0
C591 C 0.20752 0.85347 0.52395 0.0
C592 C 0.18056 0.86765 0.50476 0.0
C593 C 0.16402 0.91914 0.49857 0.0
C594 C 0.17603 0.95496 0.50601 0.0
C595 C 0.19176 0.90442 0.49995 0.0
C596 C 0.21527 0.97726 0.50619 0.0
C597 C 0.24292 0.96331 0.50357 0.0
H598 H 0.27577 0.18524 0.71006 0.0
H599 H 0.20799 0.18297 0.81879 0.0
H600 H 0.15379 0.13248 0.78714 0.0
H601 H 0.12262 0.09603 0.72151 0.0
H602 H 0.18975 0.09805 0.61263 0.0
H603 H 0.24781 0.14123 0.65173 0.0
C604 C 0.24936 0.1732 0.72724 0.0
C605 C 0.24545 0.18808 0.76609 0.0
C606 C 0.21836 0.14427 0.7088 0.0
C607 C 0.2115 0.17201 0.78869 0.0
C608 C 0.18048 0.14327 0.77051 0.0
C609 C 0.1504 0.10501 0.70745 0.0
C610 C 0.15243 0.09411 0.66472 0.0
C611 C 0.18314 0.13011 0.72967 0.0
C612 C 0.18805 0.10595 0.64598 0.0
C613 C 0.22098 0.13089 0.66802 0.0
H614 H 0.96342 0.14262 0.83369 0.0
H615 H 0.85722 0.11262 0.74436 0.0
H616 H 0.8828 0.08448 0.69539 0.0
H617 H 0.93951 0.07778 0.6715 0.0
H618 H 1.04706 0.1127 0.75869 0.0
H619 H 1.01675 0.12924 0.81532 0.0
C620 C 0.94536 0.12876 0.80448 0.0
C621 C 0.90874 0.12977 0.79233 0.0
C622 C 0.96087 0.11424 0.77558 0.0
C623 C 0.8857 0.11224 0.75403 0.0
C624 C 0.9004 0.09644 0.72592 0.0
C625 C 0.95598 0.08843 0.7033 0.0
C626 C 0.99551 0.09472 0.71065 0.0
C627 C 0.93864 0.0988 0.73521 0.0
C628 C 1.01671 0.10837 0.75194 0.0
C629 C 0.9994 0.11769 0.78442 0.0
H630 H 0.87691 0.85922 0.67218 0.0
H631 H 0.9504 0.8412 0.78892 0.0
H632 H 1.00793 0.87729 0.7487 0.0
H633 H 1.03729 0.91516 0.68012 0.0
H634 H 0.96274 0.93776 0.56829 0.0
H635 H 0.90565 0.89823 0.60612 0.0
C636 C 0.90552 0.86306 0.68881 0.0
C637 C 0.90942 0.84741 0.73335 0.0
C638 C 0.93825 0.88442 0.666 0.0
C639 C 0.94668 0.8531 0.75471 0.0
C640 C 0.97954 0.8736 0.73162 0.0
C641 C 1.00845 0.9109 0.66399 0.0
C642 C 1.00398 0.92841 0.62091 0.0
C643 C 0.97569 0.88944 0.6872 0.0
C644 C 0.96669 0.92378 0.60084 0.0
C645 C 0.93409 0.90145 0.62266 0.0
H646 H 0.42351 0.23895 0.28946 0.0
H647 H 0.32015 0.21427 0.19577 0.0
H648 H 0.34174 0.17884 0.15362 0.0
H649 H 0.39108 0.15343 0.13955 0.0
H650 H 0.49633 0.18169 0.23032 0.0
H651 H 0.47339 0.21495 0.2743 0.0
C652 C 0.40515 0.22585 0.26003 0.0
C653 C 0.36887 0.23047 0.24769 0.0
C654 C 0.41855 0.20503 0.23391 0.0
C655 C 0.34761 0.21247 0.20803 0.0
C656 C 0.36025 0.19161 0.18316 0.0
C657 C 0.40925 0.16636 0.16917 0.0
C658 C 0.44641 0.16319 0.18039 0.0
C659 C 0.39584 0.18732 0.19518 0.0
C660 C 0.46805 0.1821 0.21924 0.0
C661 C 0.45467 0.20173 0.24515 0.0
H662 H 0.90959 0.41599 0.24315 0.0
H663 H 0.87505 0.35542 0.12327 0.0
H664 H 0.91692 0.40641 0.07749 0.0
H665 H 0.96729 0.46659 0.07319 0.0
H666 H 1.00835 0.52442 0.19536 0.0
H667 H 0.95987 0.47665 0.23854 0.0
C668 C 0.91094 0.41421 0.20685 0.0
C669 C 0.88919 0.38213 0.18645 0.0
C670 C 0.93636 0.44319 0.18126 0.0
C671 C 0.89163 0.37985 0.13965 0.0
C672 C 0.91553 0.40898 0.1135 0.0
C673 C 0.96509 0.46895 0.10901 0.0
C674 C 0.99104 0.4991 0.13095 0.0
C675 C 0.93855 0.44058 0.13412 0.0
C676 C 0.98849 0.50154 0.1777 0.0
C677 C 0.96091 0.47416 0.20241 0.0
H678 H 0.72915 0.85417 0.18942 0.0
H679 H 0.72763 0.86607 0.33309 0.0
H680 H 0.6914 0.90401 0.31157 0.0
H681 H 0.65903 0.93631 0.25228 0.0
H682 H 0.6543 0.92055 0.10874 0.0
H683 H 0.69217 0.88356 0.12957 0.0
C684 C 0.7211 0.86479 0.21661 0.0
C685 C 0.73302 0.85587 0.26426 0.0
C686 C 0.69811 0.88688 0.20358 0.0
C687 C 0.72035 0.87101 0.29674 0.0
C688 C 0.69909 0.89335 0.2841 0.0
C689 C 0.66573 0.92481 0.2249 0.0
C690 C 0.6522 0.93278 0.17775 0.0
C691 C 0.68752 0.90186 0.23765 0.0
C692 C 0.66268 0.91616 0.1449 0.0
C693 C 0.68506 0.89452 0.15718 0.0
H694 H 0.22731 0.69642 0.22197 0.0
H695 H 0.18482 0.78016 0.20564 0.0
H696 H 0.13677 0.75026 0.14437 0.0
H697 H 0.10509 0.69927 0.0965 0.0
H698 H 0.1472 0.61532 0.11388 0.0
H699 H 0.197 0.64648 0.17289 0.0
C700 C 0.2076 0.7082 0.20506 0.0
C701 C 0.20981 0.74051 0.2188 0.0
C702 C 0.17985 0.69085 0.16965 0.0
C703 C 0.18394 0.7553 0.19612 0.0
C704 C 0.15636 0.73823 0.16087 0.0
C705 C 0.12547 0.68804 0.1128 0.0
C706 C 0.12228 0.65497 0.10071 0.0
C707 C 0.15389 0.7059 0.14741 0.0
C708 C 0.1488 0.64067 0.12256 0.0
C709 C 0.17732 0.65844 0.15646 0.0
H710 H 0.38867 0.89727 0.87356 0.0
H711 H 0.4429 0.82306 0.91483 0.0
H712 H 0.48496 0.86088 0.97348 0.0
H713 H 0.50858 0.91544 0.01439 0.0
H714 H 0.45836 0.9926 0.97412 0.0
H715 H 0.4141 0.95426 0.9153 0.0
C716 C 0.40964 0.88927 0.89528 0.0
C717 C 0.41086 0.85577 0.88952 0.0
C718 C 0.43522 0.91219 0.92989 0.0
C719 C 0.43916 0.84714 0.91863 0.0
C720 C 0.46403 0.86932 0.95235 0.0
C721 C 0.48792 0.92417 0.99315 0.0
C722 C 0.48749 0.95759 1.00005 0.0
C723 C 0.46242 0.90185 0.95872 0.0
C724 C 0.46004 0.96746 0.97083 0.0
C725 C 0.43448 0.94528 0.93667 0.0
H726 H 0.23618 0.40871 0.98318 0.0
H727 H 0.12953 0.32884 0.92926 0.0
H728 H 0.09411 0.36489 0.9405 0.0
H729 H 0.09352 0.41911 0.96334 0.0
H730 H 0.19919 0.50019 0.0172 0.0
H731 H 0.23519 0.4638 1.00774 0.0
C732 C 0.20515 0.39923 0.97431 0.0
C733 C 0.18543 0.36638 0.95508 0.0
C734 C 0.18501 0.42041 0.98018 0.0
C735 C 0.14529 0.35427 0.94355 0.0
C736 C 0.12507 0.37484 0.94992 0.0
C737 C 0.1245 0.42905 0.97284 0.0
C738 C 0.14371 0.46239 0.99069 0.0
C739 C 0.14471 0.40807 0.96758 0.0
C740 C 0.18383 0.47476 1.00283 0.0
C741 C 0.20433 0.45387 0.99775 0.0
H742 H 0.74252 0.18406 0.91333 0.0
H743 H 0.70084 0.26824 0.88455 0.0
H744 H 0.64547 0.23444 0.92772 0.0
H745 H 0.60732 0.18112 0.97294 0.0
H746 H 0.64717 0.09614 1.00493 0.0
H747 H 0.70395 0.12984 0.96198 0.0
C748 C 0.72142 0.19511 0.91656 0.0
C749 C 0.7266 0.22919 0.89498 0.0
C750 C 0.68881 0.17519 0.94222 0.0
C751 C 0.69842 0.2425 0.9002 0.0
C752 C 0.66636 0.22301 0.92509 0.0
C753 C 0.62821 0.16961 0.97069 0.0
C754 C 0.62207 0.1355 0.99233 0.0
C755 C 0.66103 0.18931 0.94609 0.0
C756 C 0.65041 0.12198 0.98886 0.0
C757 C 0.68311 0.1414 0.96409 0.0
H758 H 0.90049 0.75712 0.90916 0.0
H759 H 0.8292 0.68021 0.81301 0.0
H760 H 0.86084 0.6404 0.84452 0.0
H761 H 0.91072 0.62887 0.89554 0.0
H762 H 0.98487 0.70545 0.99084 0.0
H763 H 0.94951 0.74369 0.96439 0.0
C764 C 0.89183 0.73151 0.89554 0.0
C765 C 0.86328 0.72183 0.8581 0.0
C766 C 0.91055 0.70878 0.91366 0.0
C767 C 0.85202 0.68861 0.84076 0.0
C768 C 0.86982 0.66572 0.85905 0.0
C769 C 0.91927 0.65385 0.91083 0.0
C770 C 0.95078 0.66447 0.94469 0.0
C771 C 0.89958 0.67584 0.89479 0.0
C772 C 0.96095 0.69679 0.96435 0.0
C773 C 0.94079 0.71867 0.94918 0.0
H774 H 0.22015 0.40687 0.12846 0.0
H775 H 0.1134 0.33097 0.06787 0.0
H776 H 0.08294 0.3736 0.065 0.0
H777 H 0.08621 0.43086 0.0838 0.0
H778 H 0.1945 0.5076 0.14012 0.0
H779 H 0.22476 0.4652 0.14213 0.0
C780 C 0.19057 0.39992 0.11327 0.0
C781 C 0.16897 0.36594 0.09829 0.0
C782 C 0.17332 0.42411 0.11247 0.0
C783 C 0.13042 0.35704 0.07975 0.0
C784 C 0.11298 0.38117 0.07859 0.0
C785 C 0.11644 0.43832 0.09656 0.0
C786 C 0.13821 0.47231 0.1115 0.0
C787 C 0.13398 0.41443 0.09589 0.0
C788 C 0.17715 0.48152 0.12848 0.0
C789 C 0.19457 0.45749 0.12917 0.0
H790 H 0.21946 0.74482 0.83204 0.0
H791 H 0.28823 0.69657 0.91993 0.0
H792 H 0.23059 0.65603 0.95652 0.0
H793 H 0.16007 0.63327 0.96189 0.0
H794 H 0.09171 0.68037 0.87031 0.0
H795 H 0.14957 0.72188 0.83665 0.0
C796 C 0.22192 0.7258 0.8597 0.0
C797 C 0.25804 0.72392 0.87362 0.0
C798 C 0.18857 0.70192 0.8795 0.0
C799 C 0.26068 0.6986 0.90878 0.0
C800 C 0.22773 0.67532 0.92955 0.0
C801 C 0.15778 0.65245 0.93439 0.0
C802 C 0.12137 0.65348 0.91881 0.0
C803 C 0.19137 0.67644 0.91479 0.0
C804 C 0.11916 0.67872 0.88314 0.0
C805 C 0.15233 0.7027 0.86386 0.0
H806 H 0.39278 0.24903 0.94499 0.0
H807 H 0.38514 0.20245 0.81783 0.0
H808 H 0.41671 0.16477 0.85787 0.0
H809 H 0.44632 0.14373 0.92852 0.0
H810 H 0.45835 0.19102 0.05608 0.0
H811 H 0.42589 0.22913 0.01679 0.0
C812 C 0.39802 0.23069 0.92591 0.0
C813 C 0.38595 0.22902 0.87771 0.0
C814 C 0.41724 0.20889 0.94947 0.0
C815 C 0.3937 0.20492 0.85438 0.0
C816 C 0.41188 0.18307 0.87748 0.0
C817 C 0.44197 0.1623 0.94813 0.0
C818 C 0.45498 0.16386 0.9959 0.0
C819 C 0.42373 0.18464 0.92497 0.0
C820 C 0.44904 0.1888 0.01965 0.0
C821 C 0.43024 0.21069 0.99697 0.0
H822 H 0.87528 0.411 0.84498 0.0
H823 H 0.87133 0.33413 0.95931 0.0
H824 H 0.92143 0.37953 1.00381 0.0
H825 H 0.97141 0.43871 1.00692 0.0
H826 H 0.97662 0.51687 0.8942 0.0
H827 H 0.92084 0.47323 0.85234 0.0
C828 C 0.88479 0.40439 0.88 0.0
C829 C 0.87004 0.36907 0.89848 0.0
C830 C 0.9142 0.43066 0.90539 0.0
C831 C 0.88256 0.36097 0.94398 0.0
C832 C 0.91131 0.38691 0.96948 0.0
C833 C 0.96011 0.44648 0.97347 0.0
C834 C 0.97844 0.48085 0.95343 0.0
C835 C 0.92823 0.42147 0.94992 0.0
C836 C 0.96313 0.49048 0.91024 0.0
C837 C 0.9313 0.46553 0.88631 0.0
H838 H 0.78032 0.94826 1.00744 0.0
H839 H 0.69342 0.88737 0.90556 0.0
H840 H 0.64809 0.91058 0.92566 0.0
H841 H 0.63184 0.94588 0.97379 0.0
H842 H 0.71755 1.00791 0.07539 0.0
H843 H 0.76491 0.98724 0.05296 0.0
C844 C 0.75163 0.94041 0.98928 0.0
C845 C 0.74019 0.91555 0.95554 0.0
C846 C 0.72552 0.95416 1.00079 0.0
C847 C 0.70279 0.90568 0.93248 0.0
C848 C 0.67686 0.91916 0.94368 0.0
C849 C 0.66098 0.95518 0.99087 0.0
C850 C 0.67111 0.97833 0.02631 0.0
C851 C 0.68773 0.943 0.97812 0.0
C852 C 0.70909 0.99028 0.04777 0.0
C853 C 0.73607 0.97825 0.03516 0.0
H854 H 0.95137 0.72908 0.19546 0.0
H855 H 0.8819 0.74544 0.07254 0.0
H856 H 0.88845 0.69723 0.03861 0.0
H857 H 0.91977 0.65448 0.04206 0.0
H858 H 0.98362 0.63662 0.16835 0.0
H859 H 0.96867 0.67877 0.20548 0.0
C860 C 0.93582 0.7215 0.16218 0.0
C861 C 0.91632 0.74144 0.13688 0.0
C862 C 0.93733 0.69248 0.14421 0.0
C863 C 0.8983 0.73157 0.09259 0.0
C864 C 0.90126 0.70345 0.07341 0.0
C865 C 0.92864 0.65871 0.0783 0.0
C866 C 0.95282 0.64309 0.10273 0.0
C867 C 0.92131 0.68412 0.09872 0.0
C868 C 0.96467 0.64849 0.14944 0.0
C869 C 0.95688 0.67307 0.17023 0.0
H870 H 0.34989 0.90025 0.23282 0.0
H871 H 0.37756 0.81322 0.20397 0.0
H872 H 0.43618 0.85471 0.17102 0.0
H873 H 0.4833 0.91517 0.16054 0.0
H874 H 0.45702 1.00236 0.19103 0.0
H875 H 0.39389 0.96093 0.21461 0.0
C876 C 0.36841 0.89028 0.21869 0.0
C877 C 0.36007 0.85386 0.22189 0.0
C878 C 0.40263 0.91417 0.20154 0.0
C879 C 0.38366 0.84122 0.20236 0.0
C880 C 0.41736 0.86489 0.184 0.0
C881 C 0.46382 0.92502 0.17275 0.0
C882 C 0.47486 0.96138 0.17579 0.0
C883 C 0.42786 0.90131 0.18546 0.0
C884 C 0.44906 0.97424 0.18957 0.0
C885 C 0.41309 0.95068 0.20267 0.0
H886 H 0.75876 0.18932 0.19762 0.0
H887 H 0.74192 0.28129 0.13094 0.0
H888 H 0.67649 0.24435 0.10097 0.0
H889 H 0.62125 0.18695 0.10384 0.0
H890 H 0.63884 0.09552 0.1724 0.0
H891 H 0.70687 0.13115 0.19091 0.0
C892 C 0.74122 0.20119 0.17544 0.0
C893 C 0.75454 0.238 0.16762 0.0
C894 C 0.70347 0.17992 0.15934 0.0
C895 C 0.73169 0.253 0.13844 0.0
C896 C 0.69429 0.23192 0.1214 0.0
C897 C 0.64002 0.17484 0.12266 0.0
C898 C 0.62471 0.13891 0.13784 0.0
C899 C 0.67926 0.19553 0.13356 0.0
C900 C 0.64965 0.12331 0.16096 0.0
C901 C 0.68867 0.14361 0.17153 0.0
H902 H 0.71161 0.67432 0.84388 0.0
H903 H 0.69922 0.76816 0.87656 0.0
H904 H 0.64607 0.73213 0.92291 0.0
H905 H 0.60525 0.67398 0.95796 0.0
H906 H 0.62066 0.58095 0.92875 0.0
H907 H 0.67002 0.61633 0.87729 0.0
C908 C 0.69699 0.68688 0.86067 0.0
C909 C 0.70946 0.72393 0.85661 0.0
C910 C 0.66694 0.66604 0.88817 0.0
C911 C 0.6904 0.73972 0.87916 0.0
C912 C 0.65993 0.71911 0.90572 0.0
C913 C 0.61903 0.66144 0.93978 0.0
C914 C 0.60916 0.62475 0.9471 0.0
C915 C 0.64823 0.68225 0.911 0.0
C916 C 0.62779 0.60905 0.92381 0.0
C917 C 0.65606 0.62933 0.89437 0.0
H918 H 0.35149 0.64186 0.06257 0.0
H919 H 0.44817 0.74084 0.07511 0.0
H920 H 0.4873 0.71152 0.11915 0.0
H921 H 0.50131 0.65927 0.11142 0.0
H922 H 0.4072 0.56141 0.07771 0.0
H923 H 0.36037 0.5869 0.08513 0.0
C924 C 0.3804 0.65701 0.07775 0.0
C925 C 0.39898 0.69223 0.06094 0.0
C926 C 0.40404 0.63911 0.09678 0.0
C927 C 0.43446 0.71276 0.08421 0.0
C928 C 0.45729 0.69581 0.10851 0.0
C929 C 0.47051 0.64322 0.10767 0.0
C930 C 0.45737 0.60957 0.09104 0.0
C931 C 0.44398 0.65896 0.10827 0.0
C932 C 0.41765 0.58822 0.08802 0.0
C933 C 0.3909 0.60271 0.09258 0.0
H934 H 0.36882 0.38427 0.89679 0.0
H935 H 0.43625 0.39645 0.78328 0.0
H936 H 0.48731 0.44871 0.8152 0.0
H937 H 0.51609 0.48554 0.8797 0.0
H938 H 0.45188 0.47041 0.99728 0.0
H939 H 0.39565 0.42533 0.95869 0.0
C940 C 0.39438 0.39879 0.87862 0.0
C941 C 0.39905 0.38636 0.83805 0.0
C942 C 0.42417 0.42814 0.89798 0.0
C943 C 0.43229 0.40529 0.81489 0.0
C944 C 0.46143 0.43516 0.83309 0.0
C945 C 0.4896 0.47282 0.8968 0.0
C946 C 0.48844 0.48089 0.94173 0.0
C947 C 0.45822 0.44602 0.87534 0.0
C948 C 0.45368 0.46455 0.96289 0.0
C949 C 0.42164 0.43858 0.94091 0.0
H950 H 0.71276 0.47512 0.77691 0.0
H951 H 0.78438 0.45656 0.89557 0.0
H952 H 0.76711 0.4937 0.93993 0.0
H953 H 0.72056 0.51993 0.94911 0.0
H954 H 0.64585 0.53402 0.83105 0.0
H955 H 0.67746 0.5125 0.78169 0.0
C956 C 0.72584 0.48023 0.81188 0.0
C957 C 0.74879 0.46218 0.83333 0.0
C958 C 0.71513 0.50091 0.83744 0.0
C959 C 0.76554 0.46924 0.87873 0.0
C960 C 0.75582 0.4906 0.90409 0.0
C961 C 0.71196 0.51916 0.91238 0.0
C962 C 0.67967 0.5267 0.89415 0.0
C963 C 0.72881 0.5048 0.88456 0.0
C964 C 0.66975 0.52699 0.84624 0.0
C965 C 0.68765 0.51449 0.81796 0.0
H966 H 0.70959 0.37496 0.05831 0.0
H967 H 0.60021 0.30141 0.10434 0.0
H968 H 0.56597 0.32662 0.04405 0.0
H969 H 0.56999 0.38208 1.00021 0.0
H970 H 0.68035 0.45828 0.96378 0.0
H971 H 0.71115 0.41784 0.9943 0.0
C972 C 0.67826 0.36298 0.05415 0.0
C973 C 0.65757 0.33771 0.08769 0.0
C974 C 0.6589 0.37821 0.02035 0.0
C975 C 0.61692 0.32234 0.08063 0.0
C976 C 0.59728 0.33656 0.0459 0.0
C977 C 0.60029 0.38868 0.99627 0.0
C978 C 0.62342 0.42337 0.9815 0.0
C979 C 0.61821 0.36658 0.01855 0.0
C980 C 0.66228 0.43183 0.9755 0.0
C981 C 0.68003 0.40893 0.99426 0.0
H982 H 0.75574 0.73193 0.17228 0.0
H983 H 0.72985 0.66735 0.29952 0.0
H984 H 0.6876 0.61639 0.25696 0.0
H985 H 0.65061 0.5928 0.18484 0.0
H986 H 0.66965 0.65906 0.05862 0.0
H987 H 0.72248 0.70645 0.09874 0.0
C988 C 0.7414 0.70647 0.19041 0.0
C989 C 0.74546 0.70331 0.23881 0.0
C990 C 0.71588 0.67761 0.16575 0.0
C991 C 0.72663 0.67037 0.26219 0.0
C992 C 0.70256 0.64124 0.23792 0.0
C993 C 0.6674 0.61718 0.16602 0.0
C994 C 0.6571 0.62249 0.11898 0.0
C995 C 0.69593 0.64486 0.18985 0.0
C996 C 0.67785 0.65446 0.09483 0.0
C997 C 0.70766 0.6816 0.11785 0.0
H998 H 0.45049 0.66795 0.27771 0.0
H999 H 0.34401 0.58834 0.2239 0.0
H1000 H 0.38039 0.55745 0.19717 0.0
H1001 H 0.44291 0.55687 0.18326 0.0
H1002 H 0.54914 0.63827 0.23579 0.0
H1003 H 0.51233 0.66406 0.27067 0.0
C1004 C 0.4354 0.64367 0.26036 0.0
C1005 C 0.39501 0.63046 0.25195 0.0
C1006 C 0.45637 0.62631 0.24551 0.0
C1007 C 0.37527 0.59885 0.23023 0.0
C1008 C 0.39602 0.58128 0.21517 0.0
C1009 C 0.45802 0.57969 0.20337 0.0
C1010 C 0.49869 0.59593 0.20639 0.0
C1011 C 0.43665 0.59516 0.22196 0.0
C1012 C 0.51785 0.62545 0.23262 0.0
C1013 C 0.49685 0.64042 0.25222 0.0
H1014 H 0.43262 0.34542 0.237 0.0
H1015 H 0.36878 0.41282 0.22038 0.0
H1016 H 0.41607 0.45508 0.17012 0.0
H1017 H 0.47524 0.4722 0.1293 0.0
H1018 H 0.53406 0.4009 0.13952 0.0
H1019 H 0.48942 0.36097 0.19387 0.0
C1020 C 0.42919 0.36949 0.22261 0.0
C1021 C 0.39746 0.37619 0.23287 0.0
C1022 C 0.4557 0.39296 0.1925 0.0
C1023 C 0.39298 0.40711 0.21313 0.0
C1024 C 0.42006 0.43128 0.18443 0.0
C1025 C 0.47836 0.44804 0.14381 0.0
C1026 C 0.50821 0.43969 0.13092 0.0
C1027 C 0.45152 0.42445 0.1737 0.0
C1028 C 0.51145 0.40794 0.1491 0.0
C1029 C 0.48591 0.38511 0.18014 0.0
H1030 H 0.85213 0.63701 0.57008 0.0
H1031 H 0.93545 0.69896 0.67394 0.0
H1032 H 0.98196 0.67558 0.65807 0.0
H1033 H 0.99821 0.63536 0.61801 0.0
H1034 H 0.91645 0.57404 0.51271 0.0
H1035 H 0.87075 0.59992 0.52508 0.0
C1036 C 0.88064 0.64578 0.58878 0.0
C1037 C 0.88977 0.66924 0.62392 0.0
C1038 C 0.90765 0.63227 0.57932 0.0
C1039 C 0.92702 0.68023 0.64766 0.0
C1040 C 0.95385 0.66702 0.63843 0.0
C1041 C 0.97044 0.62765 0.59761 0.0
C1042 C 0.96072 0.6024 0.56488 0.0
C1043 C 0.94425 0.64253 0.605 0.0
C1044 C 0.92473 0.59322 0.53838 0.0
C1045 C 0.89848 0.60799 0.5455 0.0
H1046 H 0.47229 0.85755 0.74931 0.0
H1047 H 0.38198 0.82198 0.63825 0.0
H1048 H 0.4155 0.87465 0.59007 0.0
H1049 H 0.46654 0.93382 0.58197 0.0
H1050 H 0.55912 0.96943 0.68997 0.0
H1051 H 0.52884 0.91403 0.73675 0.0
C1052 C 0.46054 0.8609 0.71417 0.0
C1053 C 0.42438 0.83596 0.69773 0.0
C1054 C 0.47996 0.89167 0.68636 0.0
C1055 C 0.40954 0.84084 0.65206 0.0
C1056 C 0.42857 0.8711 0.62443 0.0
C1057 C 0.48012 0.92929 0.61569 0.0
C1058 C 0.51443 0.95579 0.63306 0.0
C1059 C 0.46304 0.89723 0.64175 0.0
C1060 C 0.53241 0.94942 0.67619 0.0
C1061 C 0.51511 0.91777 0.70288 0.0
H1062 H 0.30022 0.3747 0.67719 0.0
H1063 H 0.20607 0.31423 0.7599 0.0
H1064 H 0.16673 0.34465 0.71758 0.0
H1065 H 0.15867 0.39042 0.65736 0.0
H1066 H 0.25466 0.45275 0.57831 0.0
H1067 H 0.29239 0.41995 0.61774 0.0
C1068 C 0.27105 0.36793 0.68604 0.0
C1069 C 0.25667 0.34163 0.72229 0.0
C1070 C 0.24829 0.38612 0.6616 0.0
C1071 C 0.21856 0.33402 0.73263 0.0
C1072 C 0.19575 0.35156 0.70816 0.0
C1073 C 0.18762 0.39651 0.64825 0.0
C1074 C 0.20327 0.42421 0.61394 0.0
C1075 C 0.21015 0.37785 0.67249 0.0
C1076 C 0.24139 0.43177 0.60401 0.0
C1077 C 0.26325 0.41294 0.62684 0.0
H1078 H 0.70956 0.19956 0.72757 0.0
H1079 H 0.82339 0.20107 0.72018 0.0
H1080 H 0.79508 0.14483 0.68427 0.0
H1081 H 0.73732 0.09519 0.65302 0.0
H1082 H 0.62414 0.09528 0.65952 0.0
H1083 H 0.65261 0.15028 0.69807 0.0
C1084 C 0.7282 0.18779 0.71771 0.0
C1085 C 0.7685 0.20467 0.72641 0.0
C1086 C 0.71174 0.1553 0.69733 0.0
C1087 C 0.7922 0.1887 0.71392 0.0
C1088 C 0.77604 0.15642 0.69345 0.0
C1089 C 0.71908 0.10703 0.66378 0.0
C1090 C 0.67878 0.09119 0.65394 0.0
C1091 C 0.73577 0.13933 0.68506 0.0
C1092 C 0.65531 0.10704 0.66707 0.0
C1093 C 0.67153 0.13859 0.68883 0.0
H1094 H 0.85741 0.38342 0.36863 0.0
H1095 H 0.932 0.32585 0.39486 0.0
H1096 H 0.9807 0.37419 0.43726 0.0
H1097 H 1.00451 0.43515 0.45905 0.0
H1098 H 0.93062 0.49372 0.42888 0.0
H1099 H 0.87919 0.44256 0.39577 0.0
C1100 C 0.88386 0.38109 0.38482 0.0
C1101 C 0.89143 0.35143 0.37862 0.0
C1102 C 0.91214 0.40943 0.40751 0.0
C1103 C 0.92595 0.34877 0.39898 0.0
C1104 C 0.95377 0.3764 0.42298 0.0
C1105 C 0.97716 0.43679 0.44539 0.0
C1106 C 0.97184 0.46853 0.4458 0.0
C1107 C 0.94771 0.40737 0.42598 0.0
C1108 C 0.9359 0.46987 0.42844 0.0
C1109 C 0.90629 0.44055 0.40967 0.0
H1110 H 0.75291 0.85833 0.57635 0.0
H1111 H 0.64565 0.81094 0.49128 0.0
H1112 H 0.6306 0.86223 0.49514 0.0
H1113 H 0.65187 0.92334 0.51257 0.0
H1114 H 0.75666 0.97187 0.60018 0.0
H1115 H 0.7693 0.91745 0.6048 0.0
C1116 C 0.72592 0.85904 0.5595 0.0
C1117 C 0.70075 0.83107 0.533 0.0
C1118 C 0.71776 0.88918 0.56084 0.0
C1119 C 0.66546 0.8319 0.51216 0.0
C1120 C 0.65709 0.86153 0.51358 0.0
C1121 C 0.6776 0.92201 0.53252 0.0
C1122 C 0.70412 0.95158 0.55462 0.0
C1123 C 0.68385 0.8908 0.53591 0.0
C1124 C 0.73643 0.94939 0.58209 0.0
C1125 C 0.7435 0.91838 0.58478 0.0
H1126 H 0.18213 0.71054 0.36028 0.0
H1127 H 0.28587 0.71641 0.44677 0.0
H1128 H 0.25859 0.65266 0.46317 0.0
H1129 H 0.20547 0.59565 0.45382 0.0
H1130 H 0.09889 0.58932 0.37501 0.0
H1131 H 0.1276 0.65296 0.35283 0.0
C1132 C 0.19849 0.69791 0.38325 0.0
C1133 C 0.23595 0.71805 0.40221 0.0
C1134 C 0.18267 0.66121 0.39252 0.0
C1135 C 0.25692 0.70138 0.43178 0.0
C1136 C 0.24157 0.66495 0.44081 0.0
C1137 C 0.18911 0.60816 0.43052 0.0
C1138 C 0.15092 0.58822 0.41444 0.0
C1139 C 0.20476 0.64465 0.4209 0.0
C1140 C 0.12891 0.60445 0.38627 0.0
C1141 C 0.14505 0.64073 0.37441 0.0
H1142 H 0.49649 0.24933 0.37755 0.0
H1143 H 0.56426 0.2985 0.49941 0.0
H1144 H 0.58953 0.25186 0.51465 0.0
H1145 H 0.58268 0.19238 0.50076 0.0
H1146 H 0.51021 0.14127 0.38228 0.0
H1147 H 0.49693 0.19403 0.35763 0.0
C1148 C 0.51801 0.25071 0.40642 0.0
C1149 C 0.52843 0.27715 0.4375 0.0
C1150 C 0.53095 0.22315 0.41593 0.0
C1151 C 0.55575 0.27821 0.47522 0.0
C1152 C 0.56995 0.25148 0.48406 0.0
C1153 C 0.56471 0.19306 0.46896 0.0
C1154 C 0.54691 0.16284 0.44374 0.0
C1155 C 0.55622 0.22298 0.45586 0.0
C1156 C 0.52379 0.16409 0.40258 0.0
C1157 C 0.51619 0.19422 0.38849 0.0
H1158 H 0.70707 0.81281 0.68337 0.0
H1159 H 0.77739 0.88101 0.79008 0.0
H1160 H 0.74469 0.9208 0.76849 0.0
H1161 H 0.69993 0.93896 0.71744 0.0
H1162 H 0.62843 0.87376 0.60923 0.0
H1163 H 0.657 0.82987 0.63401 0.0
C1164 C 0.71496 0.83626 0.70194 0.0
C1165 C 0.74528 0.84406 0.73775 0.0
C1166 C 0.69578 0.85963 0.68931 0.0
C1167 C 0.75489 0.8745 0.76171 0.0
C1168 C 0.73601 0.89735 0.74964 0.0
C1169 C 0.69003 0.91499 0.69938 0.0
C1170 C 0.6625 0.91 0.66104 0.0
C1171 C 0.70697 0.89052 0.71316 0.0
C1172 C 0.6499 0.87847 0.63866 0.0
C1173 C 0.66635 0.85342 0.65275 0.0
H1174 H 0.71843 0.20923 0.34453 0.0
H1175 H 0.82886 0.20234 0.38908 0.0
H1176 H 0.798 0.15286 0.44359 0.0
H1177 H 0.74046 0.11156 0.47848 0.0
H1178 H 0.62914 0.11667 0.43499 0.0
H1179 H 0.65971 0.16692 0.38025 0.0
C1180 C 0.73581 0.19696 0.36618 0.0
C1181 C 0.77615 0.20975 0.36247 0.0
C1182 C 0.71774 0.16819 0.39765 0.0
C1183 C 0.79795 0.19328 0.3909 0.0
C1184 C 0.78028 0.1649 0.4222 0.0
C1185 C 0.72259 0.12352 0.45721 0.0
C1186 C 0.68232 0.11007 0.46108 0.0
C1187 C 0.74029 0.15215 0.42584 0.0
C1188 C 0.66006 0.12621 0.43283 0.0
C1189 C 0.6776 0.15501 0.40152 0.0
H1190 H 0.93103 0.75735 0.3773 0.0
H1191 H 0.81831 0.67312 0.36176 0.0
H1192 H 0.84705 0.62985 0.38764 0.0
H1193 H 0.90463 0.61277 0.41605 0.0
H1194 H 1.01674 0.69641 0.43894 0.0
H1195 H 0.98868 0.74014 0.4104 0.0
C1196 C 0.91224 0.72959 0.37909 0.0
C1197 C 0.87092 0.72019 0.36569 0.0
C1198 C 0.92951 0.70335 0.39623 0.0
C1199 C 0.84931 0.68303 0.37054 0.0
C1200 C 0.86618 0.65752 0.3858 0.0
C1201 C 0.92353 0.64051 0.41506 0.0
C1202 C 0.96437 0.64955 0.43047 0.0
C1203 C 0.90637 0.66681 0.39901 0.0
C1204 C 0.98604 0.68676 0.4282 0.0
C1205 C 0.96953 0.71248 0.41134 0.0
H1206 H 0.36 0.89297 0.41829 0.0
H1207 H 0.4314 0.84194 0.38255 0.0
H1208 H 0.4891 0.8881 0.4169 0.0
H1209 H 0.52001 0.94523 0.45383 0.0
H1210 H 0.44735 0.99619 0.48612 0.0
H1211 H 0.3899 0.94787 0.45695 0.0
C1212 C 0.38808 0.89165 0.41831 0.0
C1213 C 0.39115 0.86392 0.3977 0.0
C1214 C 0.42124 0.91855 0.43745 0.0
C1215 C 0.428 0.86293 0.39807 0.0
C1216 C 0.46113 0.88941 0.41768 0.0
C1217 C 0.49158 0.94556 0.45466 0.0
C1218 C 0.48818 0.97462 0.47153 0.0
C1219 C 0.45823 0.91769 0.43696 0.0
C1220 C 0.45101 0.97455 0.47253 0.0
C1221 C 0.41799 0.94682 0.456 0.0
H1222 H 0.2132 0.35322 0.33346 0.0
H1223 H 0.31765 0.38132 0.42535 0.0
H1224 H 0.29524 0.41663 0.46691 0.0
H1225 H 0.24458 0.44164 0.48044 0.0
H1226 H 0.14047 0.41173 0.38696 0.0
H1227 H 0.16371 0.37764 0.34647 0.0
C1228 C 0.23167 0.36694 0.36243 0.0
C1229 C 0.26839 0.36312 0.37438 0.0
C1230 C 0.21813 0.38819 0.38768 0.0
C1231 C 0.28979 0.38232 0.41327 0.0
C1232 C 0.27664 0.40316 0.43787 0.0
C1233 C 0.22654 0.42802 0.45119 0.0
C1234 C 0.18927 0.43118 0.43876 0.0
C1235 C 0.24058 0.40676 0.42598 0.0
C1236 C 0.16856 0.4116 0.39979 0.0
C1237 C 0.18214 0.3913 0.37552 0.0
H1238 H 0.48886 0.22444 0.63672 0.0
H1239 H 0.3786 0.17752 0.55809 0.0
H1240 H 0.40001 0.13502 0.53053 0.0
H1241 H 0.44799 0.10702 0.53646 0.0
H1242 H 0.55646 0.15348 0.61909 0.0
H1243 H 0.53822 0.20052 0.63686 0.0
C1244 C 0.46961 0.20503 0.6133 0.0
C1245 C 0.43205 0.20364 0.60009 0.0
C1246 C 0.48184 0.1805 0.59844 0.0
C1247 C 0.40766 0.17896 0.56888 0.0
C1248 C 0.41983 0.15457 0.55333 0.0
C1249 C 0.46772 0.12783 0.55767 0.0
C1250 C 0.50321 0.12658 0.57711 0.0
C1251 C 0.45653 0.15444 0.56893 0.0
C1252 C 0.52869 0.15364 0.60447 0.0
C1253 C 0.51832 0.18054 0.61465 0.0
H1254 H 0.95002 0.36246 0.75198 0.0
H1255 H 0.84529 0.35651 0.66749 0.0
H1256 H 0.88279 0.40168 0.61327 0.0
H1257 H 0.9442 0.4455 0.58967 0.0
H1258 H 1.05104 0.45323 0.66877 0.0
H1259 H 1.01445 0.40519 0.72366 0.0
C1260 C 0.9354 0.37084 0.72159 0.0
C1261 C 0.89412 0.3554 0.71487 0.0
C1262 C 0.95771 0.39748 0.68893 0.0
C1263 C 0.87648 0.36715 0.67464 0.0
C1264 C 0.89807 0.39335 0.6431 0.0
C1265 C 0.95979 0.43653 0.61862 0.0
C1266 C 1.00066 0.45341 0.6246 0.0
C1267 C 0.93853 0.40898 0.64992 0.0
C1268 C 1.01984 0.44086 0.66252 0.0
C1269 C 0.99869 0.41343 0.69431 0.0
H1270 H 0.24108 0.70636 0.67255 0.0
H1271 H 0.3316 0.66846 0.71835 0.0
H1272 H 0.29847 0.61731 0.67228 0.0
H1273 H 0.24173 0.58058 0.6194 0.0
H1274 H 0.15181 0.61951 0.57413 0.0
H1275 H 0.18621 0.67127 0.61799 0.0
C1276 C 0.25387 0.68711 0.67255 0.0
C1277 C 0.28953 0.69232 0.69995 0.0
C1278 C 0.23434 0.65699 0.64531 0.0
C1279 C 0.30465 0.66619 0.69835 0.0
C1280 C 0.28546 0.63645 0.67164 0.0
C1281 C 0.22975 0.6005 0.61844 0.0
C1282 C 0.19334 0.59496 0.59242 0.0
C1283 C 0.25002 0.63117 0.64487 0.0
C1284 C 0.17915 0.62185 0.5932 0.0
C1285 C 0.19902 0.65196 0.6187 0.0
loop_
_geom_bond_atom_site_label_1
_geom_bond_atom_site_label_2
_geom_bond_distance
_geom_bond_site_symmetry_2
_ccdc_geom_bond_type
Tb0 C9 2.764 . S
Tb0 O10 2.325 . S
Tb0 O13 2.303 . S
Tb0 O17 2.322 . S
Tb0 O18 2.349 . S
Tb0 O21 2.415 . S
Tb0 O22 2.399 . S
Tb1 O11 2.322 . S
Tb1 O12 2.349 . S
Tb1 O14 2.415 . S
Tb1 O15 2.399 . S
Tb1 O16 2.325 . S
Tb1 O19 2.303 . S
Tb1 C30 2.764 . S
C2 O18 1.261 . S
C2 O19 1.257 . S
C3 C6 1.358 . S
C3 C7 1.332 . S
C3 C9 1.504 . S
C4 C5 1.373 . S
C4 C8 1.308 . S
C5 C4 1.373 . S
C5 C6 1.429 . S
C5 H32 0.932 . S
C6 C3 1.358 . S
C6 C5 1.429 . S
C6 H33 0.930 . S
C7 C3 1.332 . S
C7 C8 1.394 . S
C7 H34 0.932 . S
C8 C4 1.308 . S
C8 C7 1.394 . S
C8 H35 0.929 . S
C9 Tb0 2.764 . S
C9 C3 1.504 . S
C9 O21 1.239 . S
C9 O22 1.263 . S
O10 Tb0 2.325 . S
O10 C20 1.236 . S
O11 Tb1 2.322 . S
O11 C20 1.257 . S
O12 Tb1 2.349 . S
O12 C23 1.261 . S
O13 Tb0 2.303 . S
O13 C23 1.257 . S
O14 Tb1 2.415 . S
O14 C30 1.239 . S
O15 Tb1 2.399 . S
O15 C30 1.263 . S
O16 Tb1 2.325 . S
O16 C31 1.236 . S
O17 Tb0 2.322 . S
O17 C31 1.257 . S
O18 Tb0 2.349 . S
O18 C2 1.261 . S
O19 Tb1 2.303 . S
O19 C2 1.257 . S
C20 O10 1.236 . S
C20 O11 1.257 . S
O21 Tb0 2.415 . S
O21 C9 1.239 . S
O22 Tb0 2.399 . S
O22 C9 1.263 . S
C23 O12 1.261 . S
C23 O13 1.257 . S
C24 C27 1.358 . S
C24 C28 1.332 . S
C24 C30 1.504 . S
C25 C26 1.373 . S
C25 C29 1.308 . S
C26 C25 1.373 . S
C26 C27 1.429 . S
C26 H36 0.932 . S
C27 C24 1.358 . S
C27 C26 1.429 . S
C27 H37 0.930 . S
C28 C24 1.332 . S
C28 C29 1.394 . S
C28 H38 0.932 . S
C29 C25 1.308 . S
C29 C28 1.394 . S
C29 H39 0.929 . S
C30 Tb1 2.764 . S
C30 O14 1.239 . S
C30 O15 1.263 . S
C30 C24 1.504 . S
C31 O16 1.236 . S
C31 O17 1.257 . S
H32 C5 0.932 . S
H33 C6 0.930 . S
H34 C7 0.932 . S
H35 C8 0.929 . S
H36 C26 0.932 . S
H37 C27 0.930 . S
H38 C28 0.932 . S
H39 C29 0.929 . S
Tb40 C49 2.764 . S
Tb40 O50 2.325 . S
Tb40 O53 2.303 . S
Tb40 O57 2.322 . S
Tb40 O58 2.349 . S
Tb40 O61 2.415 . S
Tb40 O62 2.399 . S
Tb41 O51 2.322 . S
Tb41 O52 2.349 . S
Tb41 O54 2.415 . S
Tb41 O55 2.399 . S
Tb41 O56 2.325 . S
Tb41 O59 2.303 . S
Tb41 C70 2.764 . S
C42 O58 1.261 . S
C42 O59 1.257 . S
C43 C46 1.358 . S
C43 C47 1.332 . S
C43 C49 1.504 . S
C44 C45 1.373 . S
C44 C48 1.308 . S
C45 C44 1.373 . S
C45 C46 1.429 . S
C45 H72 0.932 . S
C46 C43 1.358 . S
C46 C45 1.429 . S
C46 H73 0.930 . S
C47 C43 1.332 . S
C47 C48 1.394 . S
C47 H74 0.932 . S
C48 C44 1.308 . S
C48 C47 1.394 . S
C48 H75 0.929 . S
C49 Tb40 2.764 . S
C49 C43 1.504 . S
C49 O61 1.239 . S
C49 O62 1.263 . S
O50 Tb40 2.325 . S
O50 C60 1.236 . S
O51 Tb41 2.322 . S
O51 C60 1.257 . S
O52 Tb41 2.349 . S
O52 C63 1.261 . S
O53 Tb40 2.303 . S
O53 C63 1.257 . S
O54 Tb41 2.415 . S
O54 C70 1.239 . S
O55 Tb41 2.399 . S
O55 C70 1.263 . S
O56 Tb41 2.325 . S
O56 C71 1.236 . S
O57 Tb40 2.322 . S
O57 C71 1.257 . S
O58 Tb40 2.349 . S
O58 C42 1.261 . S
O59 Tb41 2.303 . S
O59 C42 1.257 . S
C60 O50 1.236 . S
C60 O51 1.257 . S
O61 Tb40 2.415 . S
O61 C49 1.239 . S
O62 Tb40 2.399 . S
O62 C49 1.263 . S
C63 O52 1.261 . S
C63 O53 1.257 . S
C64 C67 1.358 . S
C64 C68 1.332 . S
C64 C70 1.504 . S
C65 C66 1.373 . S
C65 C69 1.308 . S
C66 C65 1.373 . S
C66 C67 1.429 . S
C66 H76 0.932 . S
C67 C64 1.358 . S
C67 C66 1.429 . S
C67 H77 0.930 . S
C68 C64 1.332 . S
C68 C69 1.394 . S
C68 H78 0.932 . S
C69 C65 1.308 . S
C69 C68 1.394 . S
C69 H79 0.929 . S
C70 Tb41 2.764 . S
C70 O54 1.239 . S
C70 O55 1.263 . S
C70 C64 1.504 . S
C71 O56 1.236 . S
C71 O57 1.257 . S
H72 C45 0.932 . S
H73 C46 0.930 . S
H74 C47 0.932 . S
H75 C48 0.929 . S
H76 C66 0.932 . S
H77 C67 0.930 . S
H78 C68 0.932 . S
H79 C69 0.929 . S
Tb80 C89 2.764 . S
Tb80 O90 2.325 . S
Tb80 O93 2.303 . S
Tb80 O97 2.322 . S
Tb80 O98 2.349 . S
Tb80 O101 2.415 . S
Tb80 O102 2.399 . S
Tb81 O91 2.322 . S
Tb81 O92 2.349 . S
Tb81 O94 2.415 . S
Tb81 O95 2.399 . S
Tb81 O96 2.325 . S
Tb81 O99 2.303 . S
Tb81 C110 2.764 . S
C82 O98 1.261 . S
C82 O99 1.257 . S
C83 C86 1.358 . S
C83 C87 1.332 . S
C83 C89 1.504 . S
C84 C85 1.373 . S
C84 C88 1.308 . S
C85 C84 1.373 . S
C85 C86 1.429 . S
C85 H112 0.932 . S
C86 C83 1.358 . S
C86 C85 1.429 . S
C86 H113 0.930 . S
C87 C83 1.332 . S
C87 C88 1.394 . S
C87 H114 0.932 . S
C88 C84 1.308 . S
C88 C87 1.394 . S
C88 H115 0.929 . S
C89 Tb80 2.764 . S
C89 C83 1.504 . S
C89 O101 1.239 . S
C89 O102 1.263 . S
O90 Tb80 2.325 . S
O90 C100 1.236 . S
O91 Tb81 2.322 . S
O91 C100 1.257 . S
O92 Tb81 2.349 . S
O92 C103 1.261 . S
O93 Tb80 2.303 . S
O93 C103 1.257 . S
O94 Tb81 2.415 . S
O94 C110 1.239 . S
O95 Tb81 2.399 . S
O95 C110 1.263 . S
O96 Tb81 2.325 . S
O96 C111 1.236 . S
O97 Tb80 2.322 . S
O97 C111 1.257 . S
O98 Tb80 2.349 . S
O98 C82 1.261 . S
O99 Tb81 2.303 . S
O99 C82 1.257 . S
C100 O90 1.236 . S
C100 O91 1.257 . S
O101 Tb80 2.415 . S
O101 C89 1.239 . S
O102 Tb80 2.399 . S
O102 C89 1.263 . S
C103 O92 1.261 . S
C103 O93 1.257 . S
C104 C107 1.358 . S
C104 C108 1.332 . S
C104 C110 1.504 . S
C105 C106 1.373 . S
C105 C109 1.308 . S
C106 C105 1.373 . S
C106 C107 1.429 . S
C106 H116 0.932 . S
C107 C104 1.358 . S
C107 C106 1.429 . S
C107 H117 0.930 . S
C108 C104 1.332 . S
C108 C109 1.394 . S
C108 H118 0.932 . S
C109 C105 1.308 . S
C109 C108 1.394 . S
C109 H119 0.929 . S
C110 Tb81 2.764 . S
C110 O94 1.239 . S
C110 O95 1.263 . S
C110 C104 1.504 . S
C111 O96 1.236 . S
C111 O97 1.257 . S
H112 C85 0.932 . S
H113 C86 0.930 . S
H114 C87 0.932 . S
H115 C88 0.929 . S
H116 C106 0.932 . S
H117 C107 0.930 . S
H118 C108 0.932 . S
H119 C109 0.929 . S
Tb120 C129 2.764 . S
Tb120 O130 2.325 . S
Tb120 O133 2.303 . S
Tb120 O137 2.322 . S
Tb120 O138 2.349 . S
Tb120 O141 2.415 . S
Tb120 O142 2.399 . S
Tb121 O131 2.322 . S
Tb121 O132 2.349 . S
Tb121 O134 2.415 . S
Tb121 O135 2.399 . S
Tb121 O136 2.325 . S
Tb121 O139 2.303 . S
Tb121 C150 2.764 . S
C122 O138 1.261 . S
C122 O139 1.257 . S
C123 C126 1.358 . S
C123 C127 1.332 . S
C123 C129 1.504 . S
C124 C125 1.373 . S
C124 C128 1.308 . S
C125 C124 1.373 . S
C125 C126 1.429 . S
C125 H152 0.932 . S
C126 C123 1.358 . S
C126 C125 1.429 . S
C126 H153 0.930 . S
C127 C123 1.332 . S
C127 C128 1.394 . S
C127 H154 0.932 . S
C128 C124 1.308 . S
C128 C127 1.394 . S
C128 H155 0.929 . S
C129 Tb120 2.764 . S
C129 C123 1.504 . S
C129 O141 1.239 . S
C129 O142 1.263 . S
O130 Tb120 2.325 . S
O130 C140 1.236 . S
O131 Tb121 2.322 . S
O131 C140 1.257 . S
O132 Tb121 2.349 . S
O132 C143 1.261 . S
O133 Tb120 2.303 . S
O133 C143 1.257 . S
O134 Tb121 2.415 . S
O134 C150 1.239 . S
O135 Tb121 2.399 . S
O135 C150 1.263 . S
O136 Tb121 2.325 . S
O136 C151 1.236 . S
O137 Tb120 2.322 . S
O137 C151 1.257 . S
O138 Tb120 2.349 . S
O138 C122 1.261 . S
O139 Tb121 2.303 . S
O139 C122 1.257 . S
C140 O130 1.236 . S
C140 O131 1.257 . S
O141 Tb120 2.415 . S
O141 C129 1.239 . S
O142 Tb120 2.399 . S
O142 C129 1.263 . S
C143 O132 1.261 . S
C143 O133 1.257 . S
C144 C147 1.358 . S
C144 C148 1.332 . S
C144 C150 1.504 . S
C145 C146 1.373 . S
C145 C149 1.308 . S
C146 C145 1.373 . S
C146 C147 1.429 . S
C146 H156 0.932 . S
C147 C144 1.358 . S
C147 C146 1.429 . S
C147 H157 0.930 . S
C148 C144 1.332 . S
C148 C149 1.394 . S
C148 H158 0.932 . S
C149 C145 1.308 . S
C149 C148 1.394 . S
C149 H159 0.929 . S
C150 Tb121 2.764 . S
C150 O134 1.239 . S
C150 O135 1.263 . S
C150 C144 1.504 . S
C151 O136 1.236 . S
C151 O137 1.257 . S
H152 C125 0.932 . S
H153 C126 0.930 . S
H154 C127 0.932 . S
H155 C128 0.929 . S
H156 C146 0.932 . S
H157 C147 0.930 . S
H158 C148 0.932 . S
H159 C149 0.929 . S
Tb160 C169 2.764 . S
Tb160 O170 2.325 . S
Tb160 O173 2.303 . S
Tb160 O177 2.322 . S
Tb160 O178 2.349 . S
Tb160 O181 2.415 . S
Tb160 O182 2.399 . S
Tb161 O171 2.322 . S
Tb161 O172 2.349 . S
Tb161 O174 2.415 . S
Tb161 O175 2.399 . S
Tb161 O176 2.325 . S
Tb161 O179 2.303 . S
Tb161 C190 2.764 . S
C162 O178 1.261 . S
C162 O179 1.257 . S
C163 C166 1.358 . S
C163 C167 1.332 . S
C163 C169 1.504 . S
C164 C165 1.373 . S
C164 C168 1.308 . S
C165 C164 1.373 . S
C165 C166 1.429 . S
C165 H192 0.932 . S
C166 C163 1.358 . S
C166 C165 1.429 . S
C166 H193 0.930 . S
C167 C163 1.332 . S
C167 C168 1.394 . S
C167 H194 0.932 . S
C168 C164 1.308 . S
C168 C167 1.394 . S
C168 H195 0.929 . S
C169 Tb160 2.764 . S
C169 C163 1.504 . S
C169 O181 1.239 . S
C169 O182 1.263 . S
O170 Tb160 2.325 . S
O170 C180 1.236 . S
O171 Tb161 2.322 . S
O171 C180 1.257 . S
O172 Tb161 2.349 . S
O172 C183 1.261 . S
O173 Tb160 2.303 . S
O173 C183 1.257 . S
O174 Tb161 2.415 . S
O174 C190 1.239 . S
O175 Tb161 2.399 . S
O175 C190 1.263 . S
O176 Tb161 2.325 . S
O176 C191 1.236 . S
O177 Tb160 2.322 . S
O177 C191 1.257 . S
O178 Tb160 2.349 . S
O178 C162 1.261 . S
O179 Tb161 2.303 . S
O179 C162 1.257 . S
C180 O170 1.236 . S
C180 O171 1.257 . S
O181 Tb160 2.415 . S
O181 C169 1.239 . S
O182 Tb160 2.399 . S
O182 C169 1.263 . S
C183 O172 1.261 . S
C183 O173 1.257 . S
C184 C187 1.358 . S
C184 C188 1.332 . S
C184 C190 1.504 . S
C185 C186 1.373 . S
C185 C189 1.308 . S
C186 C185 1.373 . S
C186 C187 1.429 . S
C186 H196 0.932 . S
C187 C184 1.358 . S
C187 C186 1.429 . S
C187 H197 0.930 . S
C188 C184 1.332 . S
C188 C189 1.394 . S
C188 H198 0.932 . S
C189 C185 1.308 . S
C189 C188 1.394 . S
C189 H199 0.929 . S
C190 Tb161 2.764 . S
C190 O174 1.239 . S
C190 O175 1.263 . S
C190 C184 1.504 . S
C191 O176 1.236 . S
C191 O177 1.257 . S
H192 C165 0.932 . S
H193 C166 0.930 . S
H194 C167 0.932 . S
H195 C168 0.929 . S
H196 C186 0.932 . S
H197 C187 0.930 . S
H198 C188 0.932 . S
H199 C189 0.929 . S
Tb200 C209 2.764 . S
Tb200 O210 2.325 . S
Tb200 O213 2.303 . S
Tb200 O217 2.322 . S
Tb200 O218 2.349 . S
Tb200 O221 2.415 . S
Tb200 O222 2.399 . S
Tb201 O211 2.322 . S
Tb201 O212 2.349 . S
Tb201 O214 2.415 . S
Tb201 O215 2.399 . S
Tb201 O216 2.325 . S
Tb201 O219 2.303 . S
Tb201 C230 2.764 . S
C202 O218 1.261 . S
C202 O219 1.257 . S
C203 C206 1.358 . S
C203 C207 1.332 . S
C203 C209 1.504 . S
C204 C205 1.373 . S
C204 C208 1.308 . S
C205 C204 1.373 . S
C205 C206 1.429 . S
C205 H232 0.932 . S
C206 C203 1.358 . S
C206 C205 1.429 . S
C206 H233 0.930 . S
C207 C203 1.332 . S
C207 C208 1.394 . S
C207 H234 0.932 . S
C208 C204 1.308 . S
C208 C207 1.394 . S
C208 H235 0.929 . S
C209 Tb200 2.764 . S
C209 C203 1.504 . S
C209 O221 1.239 . S
C209 O222 1.263 . S
O210 Tb200 2.325 . S
O210 C220 1.236 . S
O211 Tb201 2.322 . S
O211 C220 1.257 . S
O212 Tb201 2.349 . S
O212 C223 1.261 . S
O213 Tb200 2.303 . S
O213 C223 1.257 . S
O214 Tb201 2.415 . S
O214 C230 1.239 . S
O215 Tb201 2.399 . S
O215 C230 1.263 . S
O216 Tb201 2.325 . S
O216 C231 1.236 . S
O217 Tb200 2.322 . S
O217 C231 1.257 . S
O218 Tb200 2.349 . S
O218 C202 1.261 . S
O219 Tb201 2.303 . S
O219 C202 1.257 . S
C220 O210 1.236 . S
C220 O211 1.257 . S
O221 Tb200 2.415 . S
O221 C209 1.239 . S
O222 Tb200 2.399 . S
O222 C209 1.263 . S
C223 O212 1.261 . S
C223 O213 1.257 . S
C224 C227 1.358 . S
C224 C228 1.332 . S
C224 C230 1.504 . S
C225 C226 1.373 . S
C225 C229 1.308 . S
C226 C225 1.373 . S
C226 C227 1.429 . S
C226 H236 0.932 . S
C227 C224 1.358 . S
C227 C226 1.429 . S
C227 H237 0.930 . S
C228 C224 1.332 . S
C228 C229 1.394 . S
C228 H238 0.932 . S
C229 C225 1.308 . S
C229 C228 1.394 . S
C229 H239 0.929 . S
C230 Tb201 2.764 . S
C230 O214 1.239 . S
C230 O215 1.263 . S
C230 C224 1.504 . S
C231 O216 1.236 . S
C231 O217 1.257 . S
H232 C205 0.932 . S
H233 C206 0.930 . S
H234 C207 0.932 . S
H235 C208 0.929 . S
H236 C226 0.932 . S
H237 C227 0.930 . S
H238 C228 0.932 . S
H239 C229 0.929 . S
Tb240 C249 2.764 . S
Tb240 O250 2.325 . S
Tb240 O253 2.303 . S
Tb240 O257 2.322 . S
Tb240 O258 2.349 . S
Tb240 O261 2.415 . S
Tb240 O262 2.399 . S
Tb241 O251 2.322 . S
Tb241 O252 2.349 . S
Tb241 O254 2.415 . S
Tb241 O255 2.399 . S
Tb241 O256 2.325 . S
Tb241 O259 2.303 . S
Tb241 C270 2.764 . S
C242 O258 1.261 . S
C242 O259 1.257 . S
C243 C246 1.358 . S
C243 C247 1.332 . S
C243 C249 1.504 . S
C244 C245 1.373 . S
C244 C248 1.308 . S
C245 C244 1.373 . S
C245 C246 1.429 . S
C245 H272 0.932 . S
C246 C243 1.358 . S
C246 C245 1.429 . S
C246 H273 0.930 . S
C247 C243 1.332 . S
C247 C248 1.394 . S
C247 H274 0.932 . S
C248 C244 1.308 . S
C248 C247 1.394 . S
C248 H275 0.929 . S
C249 Tb240 2.764 . S
C249 C243 1.504 . S
C249 O261 1.239 . S
C249 O262 1.263 . S
O250 Tb240 2.325 . S
O250 C260 1.236 . S
O251 Tb241 2.322 . S
O251 C260 1.257 . S
O252 Tb241 2.349 . S
O252 C263 1.261 . S
O253 Tb240 2.303 . S
O253 C263 1.257 . S
O254 Tb241 2.415 . S
O254 C270 1.239 . S
O255 Tb241 2.399 . S
O255 C270 1.263 . S
O256 Tb241 2.325 . S
O256 C271 1.236 . S
O257 Tb240 2.322 . S
O257 C271 1.257 . S
O258 Tb240 2.349 . S
O258 C242 1.261 . S
O259 Tb241 2.303 . S
O259 C242 1.257 . S
C260 O250 1.236 . S
C260 O251 1.257 . S
O261 Tb240 2.415 . S
O261 C249 1.239 . S
O262 Tb240 2.399 . S
O262 C249 1.263 . S
C263 O252 1.261 . S
C263 O253 1.257 . S
C264 C267 1.358 . S
C264 C268 1.332 . S
C264 C270 1.504 . S
C265 C266 1.373 . S
C265 C269 1.308 . S
C266 C265 1.373 . S
C266 C267 1.429 . S
C266 H276 0.932 . S
C267 C264 1.358 . S
C267 C266 1.429 . S
C267 H277 0.930 . S
C268 C264 1.332 . S
C268 C269 1.394 . S
C268 H278 0.932 . S
C269 C265 1.308 . S
C269 C268 1.394 . S
C269 H279 0.929 . S
C270 Tb241 2.764 . S
C270 O254 1.239 . S
C270 O255 1.263 . S
C270 C264 1.504 . S
C271 O256 1.236 . S
C271 O257 1.257 . S
H272 C245 0.932 . S
H273 C246 0.930 . S
H274 C247 0.932 . S
H275 C248 0.929 . S
H276 C266 0.932 . S
H277 C267 0.930 . S
H278 C268 0.932 . S
H279 C269 0.929 . S
Tb280 C289 2.764 . S
Tb280 O290 2.325 . S
Tb280 O293 2.303 . S
Tb280 O297 2.322 . S
Tb280 O298 2.349 . S
Tb280 O301 2.415 . S
Tb280 O302 2.399 . S
Tb281 O291 2.322 . S
Tb281 O292 2.349 . S
Tb281 O294 2.415 . S
Tb281 O295 2.399 . S
Tb281 O296 2.325 . S
Tb281 O299 2.303 . S
Tb281 C310 2.764 . S
C282 O298 1.261 . S
C282 O299 1.257 . S
C283 C286 1.358 . S
C283 C287 1.332 . S
C283 C289 1.504 . S
C284 C285 1.373 . S
C284 C288 1.308 . S
C285 C284 1.373 . S
C285 C286 1.429 . S
C285 H312 0.932 . S
C286 C283 1.358 . S
C286 C285 1.429 . S
C286 H313 0.930 . S
C287 C283 1.332 . S
C287 C288 1.394 . S
C287 H314 0.932 . S
C288 C284 1.308 . S
C288 C287 1.394 . S
C288 H315 0.929 . S
C289 Tb280 2.764 . S
C289 C283 1.504 . S
C289 O301 1.239 . S
C289 O302 1.263 . S
O290 Tb280 2.325 . S
O290 C300 1.236 . S
O291 Tb281 2.322 . S
O291 C300 1.257 . S
O292 Tb281 2.349 . S
O292 C303 1.261 . S
O293 Tb280 2.303 . S
O293 C303 1.257 . S
O294 Tb281 2.415 . S
O294 C310 1.239 . S
O295 Tb281 2.399 . S
O295 C310 1.263 . S
O296 Tb281 2.325 . S
O296 C311 1.236 . S
O297 Tb280 2.322 . S
O297 C311 1.257 . S
O298 Tb280 2.349 . S
O298 C282 1.261 . S
O299 Tb281 2.303 . S
O299 C282 1.257 . S
C300 O290 1.236 . S
C300 O291 1.257 . S
O301 Tb280 2.415 . S
O301 C289 1.239 . S
O302 Tb280 2.399 . S
O302 C289 1.263 . S
C303 O292 1.261 . S
C303 O293 1.257 . S
C304 C307 1.358 . S
C304 C308 1.332 . S
C304 C310 1.504 . S
C305 C306 1.373 . S
C305 C309 1.308 . S
C306 C305 1.373 . S
C306 C307 1.429 . S
C306 H316 0.932 . S
C307 C304 1.358 . S
C307 C306 1.429 . S
C307 H317 0.930 . S
C308 C304 1.332 . S
C308 C309 1.394 . S
C308 H318 0.932 . S
C309 C305 1.308 . S
C309 C308 1.394 . S
C309 H319 0.929 . S
C310 Tb281 2.764 . S
C310 O294 1.239 . S
C310 O295 1.263 . S
C310 C304 1.504 . S
C311 O296 1.236 . S
C311 O297 1.257 . S
H312 C285 0.932 . S
H313 C286 0.930 . S
H314 C287 0.932 . S
H315 C288 0.929 . S
H316 C306 0.932 . S
H317 C307 0.930 . S
H318 C308 0.932 . S
H319 C309 0.929 . S
Co320 O323 2.042 . S
Co320 O330 2.264 . S
Co320 O349 2.286 . S
Co320 O350 2.069 . S
Co320 O352 2.015 1_455 S
Co321 O323 2.122 . S
Co321 O329 2.073 . S
Co321 O330 2.327 . S
Co321 O331 1.976 1_455 S
Co322 O323 2.087 1_545 S
Co322 O325 2.087 1_455 S
Co322 O332 2.111 1_445 S
Co322 O333 2.143 . S
Co322 O337 2.111 . S
Co322 O351 2.143 1_445 S
O323 Co320 2.042 . S
O323 Co321 2.122 . S
O323 Co322 2.087 1_565 S
O323 H324 0.980 1_565 S
H324 O323 0.980 1_545 S
O325 Co322 2.087 1_655 S
O325 Co326 2.042 . S
O325 Co327 2.122 . S
O325 H328 0.980 . S
Co326 O325 2.042 . S
Co326 O334 2.286 . S
Co326 O335 2.069 . S
Co326 O336 2.015 1_655 S
Co326 O339 2.264 . S
Co327 O325 2.122 . S
Co327 O338 1.976 1_655 S
Co327 O339 2.327 . S
Co327 O340 2.073 . S
H328 O325 0.980 . S
O329 Co321 2.073 . S
O329 C344 1.245 . S
O330 Co320 2.264 . S
O330 Co321 2.327 . S
O330 C344 1.257 . S
O331 Co321 1.976 1_655 S
O331 C343 1.251 . S
O332 Co322 2.111 1_665 S
O332 C343 1.274 . S
O333 Co322 2.143 . S
O333 C346 1.246 . S
O334 Co326 2.286 . S
O334 C345 1.259 . S
O335 Co326 2.069 . S
O335 C345 1.289 . S
O336 Co326 2.015 1_455 S
O336 C346 1.257 . S
O337 Co322 2.111 . S
O337 C347 1.274 . S
O338 Co327 1.976 1_455 S
O338 C347 1.251 . S
O339 Co326 2.264 . S
O339 Co327 2.327 . S
O339 C348 1.257 . S
O340 Co327 2.073 . S
O340 C348 1.245 . S
C341 O349 1.259 . S
C341 O350 1.289 . S
C342 O351 1.246 . S
C342 O352 1.257 . S
C343 O331 1.251 . S
C343 O332 1.274 . S
C344 O329 1.245 . S
C344 O330 1.257 . S
C345 O334 1.259 . S
C345 O335 1.289 . S
C346 O333 1.246 . S
C346 O336 1.257 . S
C347 O337 1.274 . S
C347 O338 1.251 . S
C348 O339 1.257 . S
C348 O340 1.245 . S
O349 Co320 2.286 . S
O349 C341 1.259 . S
O350 Co320 2.069 . S
O350 C341 1.289 . S
O351 Co322 2.143 1_665 S
O351 C342 1.246 . S
O352 Co320 2.015 1_655 S
O352 C342 1.257 . S
Co353 O356 2.042 1_565 S
Co353 O363 2.264 . S
Co353 O382 2.286 1_554 S
Co353 O383 2.069 . S
Co353 O385 2.015 . S
Co354 O356 2.122 1_565 S
Co354 O362 2.073 . S
Co354 O363 2.327 . S
Co354 O364 1.976 . S
Co355 O356 2.087 . S
Co355 O358 2.087 . S
Co355 O365 2.111 . S
Co355 O366 2.143 . S
Co355 O370 2.111 . S
Co355 O384 2.143 1_545 S
O356 Co353 2.042 1_545 S
O356 Co354 2.122 1_545 S
O356 Co355 2.087 . S
O356 H357 0.980 . S
H357 O356 0.980 . S
O358 Co355 2.087 . S
O358 Co359 2.042 . S
O358 Co360 2.122 1_554 S
O358 H361 0.980 . S
Co359 O358 2.042 . S
Co359 O367 2.286 . S
Co359 O368 2.069 . S
Co359 O369 2.015 . S
Co359 O372 2.264 . S
Co360 O358 2.122 1_556 S
Co360 O371 1.976 . S
Co360 O372 2.327 1_556 S
Co360 O373 2.073 . S
H361 O358 0.980 . S
O362 Co354 2.073 . S
O362 C377 1.245 . S
O363 Co353 2.264 . S
O363 Co354 2.327 . S
O363 C377 1.257 . S
O364 Co354 1.976 . S
O364 C376 1.251 . S
O365 Co355 2.111 . S
O365 C376 1.274 1_545 S
O366 Co355 2.143 . S
O366 C379 1.246 . S
O367 Co359 2.286 . S
O367 C378 1.259 . S
O368 Co359 2.069 . S
O368 C378 1.289 . S
O369 Co359 2.015 . S
O369 C379 1.257 . S
O370 Co355 2.111 . S
O370 C380 1.274 . S
O371 Co360 1.976 . S
O371 C380 1.251 1_556 S
O372 Co359 2.264 . S
O372 Co360 2.327 1_554 S
O372 C381 1.257 1_554 S
O373 Co360 2.073 . S
O373 C381 1.245 . S
C374 O382 1.259 1_554 S
C374 O383 1.289 . S
C375 O384 1.246 . S
C375 O385 1.257 . S
C376 O364 1.251 . S
C376 O365 1.274 1_565 S
C377 O362 1.245 . S
C377 O363 1.257 . S
C378 O367 1.259 . S
C378 O368 1.289 . S
C379 O366 1.246 . S
C379 O369 1.257 . S
C380 O370 1.274 . S
C380 O371 1.251 1_554 S
C381 O372 1.257 1_556 S
C381 O373 1.245 . S
O382 Co353 2.286 1_556 S
O382 C374 1.259 1_556 S
O383 Co353 2.069 . S
O383 C374 1.289 . S
O384 Co355 2.143 1_565 S
O384 C375 1.246 . S
O385 Co353 2.015 . S
O385 C375 1.257 . S
Co386 O389 2.042 1_556 S
Co386 O396 2.264 1_556 S
Co386 O415 2.286 . S
Co386 O416 2.069 . S
Co386 O418 2.015 1_455 S
Co387 O389 2.122 . S
Co387 O395 2.073 . S
Co387 O396 2.327 . S
Co387 O397 1.976 1_455 S
Co388 O389 2.087 . S
Co388 O391 2.087 1_454 S
Co388 O398 2.111 1_455 S
Co388 O399 2.143 . S
Co388 O403 2.111 1_554 S
Co388 O417 2.143 1_454 S
O389 Co386 2.042 1_554 S
O389 Co387 2.122 . S
O389 Co388 2.087 . S
O389 H390 0.980 . S
H390 O389 0.980 . S
O391 Co388 2.087 1_656 S
O391 Co392 2.042 1_556 S
O391 Co393 2.122 . S
O391 H394 0.980 . S
Co392 O391 2.042 1_554 S
Co392 O400 2.286 . S
Co392 O401 2.069 . S
Co392 O402 2.015 1_655 S
Co392 O405 2.264 1_554 S
Co393 O391 2.122 . S
Co393 O404 1.976 1_655 S
Co393 O405 2.327 . S
Co393 O406 2.073 . S
H394 O391 0.980 . S
O395 Co387 2.073 . S
O395 C410 1.245 . S
O396 Co386 2.264 1_554 S
O396 Co387 2.327 . S
O396 C410 1.257 . S
O397 Co387 1.976 1_655 S
O397 C409 1.251 . S
O398 Co388 2.111 1_655 S
O398 C409 1.274 . S
O399 Co388 2.143 . S
O399 C412 1.246 . S
O400 Co392 2.286 . S
O400 C411 1.259 . S
O401 Co392 2.069 . S
O401 C411 1.289 . S
O402 Co392 2.015 1_455 S
O402 C412 1.257 . S
O403 Co388 2.111 1_556 S
O403 C413 1.274 . S
O404 Co393 1.976 1_455 S
O404 C413 1.251 . S
O405 Co392 2.264 1_556 S
O405 Co393 2.327 . S
O405 C414 1.257 . S
O406 Co393 2.073 . S
O406 C414 1.245 . S
C407 O415 1.259 . S
C407 O416 1.289 . S
C408 O417 1.246 . S
C408 O418 1.257 . S
C409 O397 1.251 . S
C409 O398 1.274 . S
C410 O395 1.245 . S
C410 O396 1.257 . S
C411 O400 1.259 . S
C411 O401 1.289 . S
C412 O399 1.246 . S
C412 O402 1.257 . S
C413 O403 1.274 . S
C413 O404 1.251 . S
C414 O405 1.257 . S
C414 O406 1.245 . S
O415 Co386 2.286 . S
O415 C407 1.259 . S
O416 Co386 2.069 . S
O416 C407 1.289 . S
O417 Co388 2.143 1_656 S
O417 C408 1.246 . S
O418 Co386 2.015 1_655 S
O418 C408 1.257 . S
Co419 O422 2.042 . S
Co419 O429 2.264 . S
Co419 O448 2.286 1_554 S
Co419 O449 2.069 . S
Co419 O451 2.015 . S
Co420 O422 2.122 . S
Co420 O428 2.073 . S
Co420 O429 2.327 . S
Co420 O430 1.976 . S
Co421 O422 2.087 . S
Co421 O424 2.087 . S
Co421 O431 2.111 . S
Co421 O432 2.143 . S
Co421 O436 2.111 1_554 S
Co421 O450 2.143 1_554 S
O422 Co419 2.042 . S
O422 Co420 2.122 . S
O422 Co421 2.087 . S
O422 H423 0.980 . S
H423 O422 0.980 . S
O424 Co421 2.087 . S
O424 Co425 2.042 . S
O424 Co426 2.122 1_554 S
O424 H427 0.980 . S
Co425 O424 2.042 . S
Co425 O433 2.286 . S
Co425 O434 2.069 . S
Co425 O435 2.015 . S
Co425 O438 2.264 1_554 S
Co426 O424 2.122 1_556 S
Co426 O437 1.976 . S
Co426 O438 2.327 . S
Co426 O439 2.073 . S
H427 O424 0.980 . S
O428 Co420 2.073 . S
O428 C443 1.245 . S
O429 Co419 2.264 . S
O429 Co420 2.327 . S
O429 C443 1.257 . S
O430 Co420 1.976 . S
O430 C442 1.251 . S
O431 Co421 2.111 . S
O431 C442 1.274 . S
O432 Co421 2.143 . S
O432 C445 1.246 . S
O433 Co425 2.286 . S
O433 C444 1.259 . S
O434 Co425 2.069 . S
O434 C444 1.289 . S
O435 Co425 2.015 . S
O435 C445 1.257 . S
O436 Co421 2.111 1_556 S
O436 C446 1.274 . S
O437 Co426 1.976 . S
O437 C446 1.251 . S
O438 Co425 2.264 1_556 S
O438 Co426 2.327 . S
O438 C447 1.257 . S
O439 Co426 2.073 . S
O439 C447 1.245 . S
C440 O448 1.259 . S
C440 O449 1.289 1_556 S
C441 O450 1.246 . S
C441 O451 1.257 1_556 S
C442 O430 1.251 . S
C442 O431 1.274 . S
C443 O428 1.245 . S
C443 O429 1.257 . S
C444 O433 1.259 . S
C444 O434 1.289 . S
C445 O432 1.246 . S
C445 O435 1.257 . S
C446 O436 1.274 . S
C446 O437 1.251 . S
C447 O438 1.257 . S
C447 O439 1.245 . S
O448 Co419 2.286 1_556 S
O448 C440 1.259 . S
O449 Co419 2.069 . S
O449 C440 1.289 1_554 S
O450 Co421 2.143 1_556 S
O450 C441 1.246 . S
O451 Co419 2.015 . S
O451 C441 1.257 1_554 S
Co452 O455 2.042 . S
Co452 O462 2.264 . S
Co452 O481 2.286 . S
Co452 O482 2.069 . S
Co452 O484 2.015 . S
Co453 O455 2.122 . S
Co453 O461 2.073 . S
Co453 O462 2.327 . S
Co453 O463 1.976 . S
Co454 O455 2.087 . S
Co454 O457 2.087 . S
Co454 O464 2.111 . S
Co454 O465 2.143 1_455 S
Co454 O469 2.111 . S
Co454 O483 2.143 . S
O455 Co452 2.042 . S
O455 Co453 2.122 . S
O455 Co454 2.087 . S
O455 H456 0.980 . S
H456 O455 0.980 . S
O457 Co454 2.087 . S
O457 Co458 2.042 1_455 S
O457 Co459 2.122 1_455 S
O457 H460 0.980 . S
Co458 O457 2.042 1_655 S
Co458 O466 2.286 . S
Co458 O467 2.069 . S
Co458 O468 2.015 . S
Co458 O471 2.264 . S
Co459 O457 2.122 1_655 S
Co459 O470 1.976 . S
Co459 O471 2.327 . S
Co459 O472 2.073 . S
H460 O457 0.980 . S
O461 Co453 2.073 . S
O461 C476 1.245 . S
O462 Co452 2.264 . S
O462 Co453 2.327 . S
O462 C476 1.257 . S
O463 Co453 1.976 . S
O463 C475 1.251 . S
O464 Co454 2.111 . S
O464 C475 1.274 . S
O465 Co454 2.143 1_655 S
O465 C478 1.246 . S
O466 Co458 2.286 . S
O466 C477 1.259 . S
O467 Co458 2.069 . S
O467 C477 1.289 . S
O468 Co458 2.015 . S
O468 C478 1.257 . S
O469 Co454 2.111 . S
O469 C479 1.274 1_455 S
O470 Co459 1.976 . S
O470 C479 1.251 . S
O471 Co458 2.264 . S
O471 Co459 2.327 . S
O471 C480 1.257 . S
O472 Co459 2.073 . S
O472 C480 1.245 . S
C473 O481 1.259 . S
C473 O482 1.289 . S
C474 O483 1.246 . S
C474 O484 1.257 . S
C475 O463 1.251 . S
C475 O464 1.274 . S
C476 O461 1.245 . S
C476 O462 1.257 . S
C477 O466 1.259 . S
C477 O467 1.289 . S
C478 O465 1.246 . S
C478 O468 1.257 . S
C479 O469 1.274 1_655 S
C479 O470 1.251 . S
C480 O471 1.257 . S
C480 O472 1.245 . S
O481 Co452 2.286 . S
O481 C473 1.259 . S
O482 Co452 2.069 . S
O482 C473 1.289 . S
O483 Co454 2.143 . S
O483 C474 1.246 . S
O484 Co452 2.015 . S
O484 C474 1.257 . S
Co485 O488 2.042 . S
Co485 O495 2.264 . S
Co485 O514 2.286 . S
Co485 O515 2.069 . S
Co485 O517 2.015 1_565 S
Co486 O488 2.122 . S
Co486 O494 2.073 . S
Co486 O495 2.327 . S
Co486 O496 1.976 1_565 S
Co487 O488 2.087 1_545 S
Co487 O490 2.087 . S
Co487 O497 2.111 . S
Co487 O498 2.143 1_545 S
Co487 O502 2.111 1_545 S
Co487 O516 2.143 . S
O488 Co485 2.042 . S
O488 Co486 2.122 . S
O488 Co487 2.087 1_565 S
O488 H489 0.980 . S
H489 O488 0.980 . S
O490 Co487 2.087 . S
O490 Co491 2.042 . S
O490 Co492 2.122 . S
O490 H493 0.980 . S
Co491 O490 2.042 . S
Co491 O499 2.286 . S
Co491 O500 2.069 . S
Co491 O501 2.015 1_545 S
Co491 O504 2.264 . S
Co492 O490 2.122 . S
Co492 O503 1.976 1_545 S
Co492 O504 2.327 . S
Co492 O505 2.073 . S
H493 O490 0.980 . S
O494 Co486 2.073 . S
O494 C509 1.245 . S
O495 Co485 2.264 . S
O495 Co486 2.327 . S
O495 C509 1.257 . S
O496 Co486 1.976 1_545 S
O496 C508 1.251 . S
O497 Co487 2.111 . S
O497 C508 1.274 . S
O498 Co487 2.143 1_565 S
O498 C511 1.246 . S
O499 Co491 2.286 . S
O499 C510 1.259 . S
O500 Co491 2.069 . S
O500 C510 1.289 . S
O501 Co491 2.015 1_565 S
O501 C511 1.257 . S
O502 Co487 2.111 1_565 S
O502 C512 1.274 . S
O503 Co492 1.976 1_565 S
O503 C512 1.251 . S
O504 Co491 2.264 . S
O504 Co492 2.327 . S
O504 C513 1.257 . S
O505 Co492 2.073 . S
O505 C513 1.245 . S
C506 O514 1.259 . S
C506 O515 1.289 . S
C507 O516 1.246 . S
C507 O517 1.257 . S
C508 O496 1.251 . S
C508 O497 1.274 . S
C509 O494 1.245 . S
C509 O495 1.257 . S
C510 O499 1.259 . S
C510 O500 1.289 . S
C511 O498 1.246 . S
C511 O501 1.257 . S
C512 O502 1.274 . S
C512 O503 1.251 . S
C513 O504 1.257 . S
C513 O505 1.245 . S
O514 Co485 2.286 . S
O514 C506 1.259 . S
O515 Co485 2.069 . S
O515 C506 1.289 . S
O516 Co487 2.143 . S
O516 C507 1.246 . S
O517 Co485 2.015 1_545 S
O517 C507 1.257 . S
H518 C524 0.930 . S
H519 C527 0.930 . S
H520 C528 0.930 . S
H521 C529 0.930 . S
H522 C532 0.930 . S
H523 C533 0.930 . S
C524 H518 0.930 . S
C524 C525 1.355 . S
C524 C526 1.415 . S
C525 C524 1.355 . S
C525 C527 1.419 . S
C526 C524 1.415 . S
C526 C531 1.425 . S
C526 C533 1.409 . S
C527 H519 0.930 . S
C527 C525 1.419 . S
C527 C528 1.362 . S
C528 H520 0.930 . S
C528 C527 1.362 . S
C528 C531 1.409 . S
C529 H521 0.930 . S
C529 C530 1.355 . S
C529 C531 1.415 . S
C530 C529 1.355 . S
C530 C532 1.419 . S
C531 C526 1.425 . S
C531 C528 1.409 . S
C531 C529 1.415 . S
C532 H522 0.930 . S
C532 C530 1.419 . S
C532 C533 1.362 . S
C533 H523 0.930 . S
C533 C526 1.409 . S
C533 C532 1.362 . S
H534 C540 0.930 . S
H535 C543 0.930 . S
H536 C544 0.930 . S
H537 C545 0.930 . S
H538 C548 0.930 . S
H539 C549 0.930 . S
C540 H534 0.930 . S
C540 C541 1.355 . S
C540 C542 1.415 . S
C541 C540 1.355 . S
C541 C543 1.419 . S
C542 C540 1.415 . S
C542 C547 1.425 . S
C542 C549 1.409 . S
C543 H535 0.930 . S
C543 C541 1.419 . S
C543 C544 1.362 . S
C544 H536 0.930 . S
C544 C543 1.362 . S
C544 C547 1.409 . S
C545 H537 0.930 . S
C545 C546 1.355 . S
C545 C547 1.415 . S
C546 C545 1.355 . S
C546 C548 1.419 . S
C547 C542 1.425 . S
C547 C544 1.409 . S
C547 C545 1.415 . S
C548 H538 0.930 . S
C548 C546 1.419 . S
C548 C549 1.362 . S
C549 H539 0.930 . S
C549 C542 1.409 . S
C549 C548 1.362 . S
H550 C556 0.930 . S
H551 C559 0.930 . S
H552 C560 0.930 . S
H553 C561 0.930 . S
H554 C564 0.930 . S
H555 C565 0.930 . S
C556 H550 0.930 . S
C556 C557 1.355 . S
C556 C558 1.415 . S
C557 C556 1.355 . S
C557 C559 1.419 . S
C558 C556 1.415 . S
C558 C563 1.425 . S
C558 C565 1.409 . S
C559 H551 0.930 . S
C559 C557 1.419 . S
C559 C560 1.362 . S
C560 H552 0.930 . S
C560 C559 1.362 . S
C560 C563 1.409 . S
C561 H553 0.930 . S
C561 C562 1.355 . S
C561 C563 1.415 . S
C562 C561 1.355 . S
C562 C564 1.419 . S
C563 C558 1.425 . S
C563 C560 1.409 . S
C563 C561 1.415 . S
C564 H554 0.930 . S
C564 C562 1.419 . S
C564 C565 1.362 . S
C565 H555 0.930 . S
C565 C558 1.409 . S
C565 C564 1.362 . S
H566 C572 0.930 . S
H567 C575 0.930 . S
H568 C576 0.930 . S
H569 C577 0.930 . S
H570 C580 0.930 . S
H571 C581 0.930 . S
C572 H566 0.930 . S
C572 C573 1.355 . S
C572 C574 1.415 . S
C573 C572 1.355 . S
C573 C575 1.419 . S
C574 C572 1.415 . S
C574 C579 1.425 . S
C574 C581 1.409 . S
C575 H567 0.930 . S
C575 C573 1.419 . S
C575 C576 1.362 . S
C576 H568 0.930 . S
C576 C575 1.362 . S
C576 C579 1.409 . S
C577 H569 0.930 . S
C577 C578 1.355 . S
C577 C579 1.415 . S
C578 C577 1.355 . S
C578 C580 1.419 . S
C579 C574 1.425 . S
C579 C576 1.409 . S
C579 C577 1.415 . S
C580 H570 0.930 . S
C580 C578 1.419 . S
C580 C581 1.362 . S
C581 H571 0.930 . S
C581 C574 1.409 . S
C581 C580 1.362 . S
H582 C588 0.930 . S
H583 C591 0.930 . S
H584 C592 0.930 . S
H585 C593 0.930 . S
H586 C596 0.930 . S
H587 C597 0.930 . S
C588 H582 0.930 . S
C588 C589 1.355 . S
C588 C590 1.415 . S
C589 C588 1.355 . S
C589 C591 1.419 . S
C590 C588 1.415 . S
C590 C595 1.425 . S
C590 C597 1.409 . S
C591 H583 0.930 . S
C591 C589 1.419 . S
C591 C592 1.362 . S
C592 H584 0.930 . S
C592 C591 1.362 . S
C592 C595 1.409 . S
C593 H585 0.930 . S
C593 C594 1.355 . S
C593 C595 1.415 . S
C594 C593 1.355 . S
C594 C596 1.419 . S
C595 C590 1.425 . S
C595 C592 1.409 . S
C595 C593 1.415 . S
C596 H586 0.930 . S
C596 C594 1.419 . S
C596 C597 1.362 . S
C597 H587 0.930 . S
C597 C590 1.409 . S
C597 C596 1.362 . S
H598 C604 0.930 . S
H599 C607 0.930 . S
H600 C608 0.930 . S
H601 C609 0.930 . S
H602 C612 0.930 . S
H603 C613 0.930 . S
C604 H598 0.930 . S
C604 C605 1.355 . S
C604 C606 1.415 . S
C605 C604 1.355 . S
C605 C607 1.419 . S
C606 C604 1.415 . S
C606 C611 1.425 . S
C606 C613 1.409 . S
C607 H599 0.930 . S
C607 C605 1.419 . S
C607 C608 1.362 . S
C608 H600 0.930 . S
C608 C607 1.362 . S
C608 C611 1.409 . S
C609 H601 0.930 . S
C609 C610 1.355 . S
C609 C611 1.415 . S
C610 C609 1.355 . S
C610 C612 1.419 . S
C611 C606 1.425 . S
C611 C608 1.409 . S
C611 C609 1.415 . S
C612 H602 0.930 . S
C612 C610 1.419 . S
C612 C613 1.362 . S
C613 H603 0.930 . S
C613 C606 1.409 . S
C613 C612 1.362 . S
H614 C620 0.930 . S
H615 C623 0.930 . S
H616 C624 0.930 . S
H617 C625 0.930 . S
H618 C628 0.930 . S
H619 C629 0.930 . S
C620 H614 0.930 . S
C620 C621 1.355 . S
C620 C622 1.415 . S
C621 C620 1.355 . S
C621 C623 1.419 . S
C622 C620 1.415 . S
C622 C627 1.425 . S
C622 C629 1.409 . S
C623 H615 0.930 . S
C623 C621 1.419 . S
C623 C624 1.362 . S
C624 H616 0.930 . S
C624 C623 1.362 . S
C624 C627 1.409 . S
C625 H617 0.930 . S
C625 C626 1.355 . S
C625 C627 1.415 . S
C626 C625 1.355 . S
C626 C628 1.419 . S
C627 C622 1.425 . S
C627 C624 1.409 . S
C627 C625 1.415 . S
C628 H618 0.930 . S
C628 C626 1.419 . S
C628 C629 1.362 . S
C629 H619 0.930 . S
C629 C622 1.409 . S
C629 C628 1.362 . S
H630 C636 0.930 . S
H631 C639 0.930 . S
H632 C640 0.930 . S
H633 C641 0.930 . S
H634 C644 0.930 . S
H635 C645 0.930 . S
C636 H630 0.930 . S
C636 C637 1.355 . S
C636 C638 1.415 . S
C637 C636 1.355 . S
C637 C639 1.419 . S
C638 C636 1.415 . S
C638 C643 1.425 . S
C638 C645 1.409 . S
C639 H631 0.930 . S
C639 C637 1.419 . S
C639 C640 1.362 . S
C640 H632 0.930 . S
C640 C639 1.362 . S
C640 C643 1.409 . S
C641 H633 0.930 . S
C641 C642 1.355 . S
C641 C643 1.415 . S
C642 C641 1.355 . S
C642 C644 1.419 . S
C643 C638 1.425 . S
C643 C640 1.409 . S
C643 C641 1.415 . S
C644 H634 0.930 . S
C644 C642 1.419 . S
C644 C645 1.362 . S
C645 H635 0.930 . S
C645 C638 1.409 . S
C645 C644 1.362 . S
H646 C652 0.930 . S
H647 C655 0.930 . S
H648 C656 0.930 . S
H649 C657 0.930 . S
H650 C660 0.930 . S
H651 C661 0.930 . S
C652 H646 0.930 . S
C652 C653 1.355 . S
C652 C654 1.415 . S
C653 C652 1.355 . S
C653 C655 1.419 . S
C654 C652 1.415 . S
C654 C659 1.425 . S
C654 C661 1.409 . S
C655 H647 0.930 . S
C655 C653 1.419 . S
C655 C656 1.362 . S
C656 H648 0.930 . S
C656 C655 1.362 . S
C656 C659 1.409 . S
C657 H649 0.930 . S
C657 C658 1.355 . S
C657 C659 1.415 . S
C658 C657 1.355 . S
C658 C660 1.419 . S
C659 C654 1.425 . S
C659 C656 1.409 . S
C659 C657 1.415 . S
C660 H650 0.930 . S
C660 C658 1.419 . S
C660 C661 1.362 . S
C661 H651 0.930 . S
C661 C654 1.409 . S
C661 C660 1.362 . S
H662 C668 0.930 . S
H663 C671 0.930 . S
H664 C672 0.930 . S
H665 C673 0.930 . S
H666 C676 0.930 . S
H667 C677 0.930 . S
C668 H662 0.930 . S
C668 C669 1.355 . S
C668 C670 1.415 . S
C669 C668 1.355 . S
C669 C671 1.419 . S
C670 C668 1.415 . S
C670 C675 1.425 . S
C670 C677 1.409 . S
C671 H663 0.930 . S
C671 C669 1.419 . S
C671 C672 1.362 . S
C672 H664 0.930 . S
C672 C671 1.362 . S
C672 C675 1.409 . S
C673 H665 0.930 . S
C673 C674 1.355 . S
C673 C675 1.415 . S
C674 C673 1.355 . S
C674 C676 1.419 . S
C675 C670 1.425 . S
C675 C672 1.409 . S
C675 C673 1.415 . S
C676 H666 0.930 . S
C676 C674 1.419 . S
C676 C677 1.362 . S
C677 H667 0.930 . S
C677 C670 1.409 . S
C677 C676 1.362 . S
H678 C684 0.930 . S
H679 C687 0.930 . S
H680 C688 0.930 . S
H681 C689 0.930 . S
H682 C692 0.930 . S
H683 C693 0.930 . S
C684 H678 0.930 . S
C684 C685 1.355 . S
C684 C686 1.415 . S
C685 C684 1.355 . S
C685 C687 1.419 . S
C686 C684 1.415 . S
C686 C691 1.425 . S
C686 C693 1.409 . S
C687 H679 0.930 . S
C687 C685 1.419 . S
C687 C688 1.362 . S
C688 H680 0.930 . S
C688 C687 1.362 . S
C688 C691 1.409 . S
C689 H681 0.930 . S
C689 C690 1.355 . S
C689 C691 1.415 . S
C690 C689 1.355 . S
C690 C692 1.419 . S
C691 C686 1.425 . S
C691 C688 1.409 . S
C691 C689 1.415 . S
C692 H682 0.930 . S
C692 C690 1.419 . S
C692 C693 1.362 . S
C693 H683 0.930 . S
C693 C686 1.409 . S
C693 C692 1.362 . S
H694 C700 0.930 . S
H695 C703 0.930 . S
H696 C704 0.930 . S
H697 C705 0.930 . S
H698 C708 0.930 . S
H699 C709 0.930 . S
C700 H694 0.930 . S
C700 C701 1.355 . S
C700 C702 1.415 . S
C701 C700 1.355 . S
C701 C703 1.419 . S
C702 C700 1.415 . S
C702 C707 1.425 . S
C702 C709 1.409 . S
C703 H695 0.930 . S
C703 C701 1.419 . S
C703 C704 1.362 . S
C704 H696 0.930 . S
C704 C703 1.362 . S
C704 C707 1.409 . S
C705 H697 0.930 . S
C705 C706 1.355 . S
C705 C707 1.415 . S
C706 C705 1.355 . S
C706 C708 1.419 . S
C707 C702 1.425 . S
C707 C704 1.409 . S
C707 C705 1.415 . S
C708 H698 0.930 . S
C708 C706 1.419 . S
C708 C709 1.362 . S
C709 H699 0.930 . S
C709 C702 1.409 . S
C709 C708 1.362 . S
H710 C716 0.930 . S
H711 C719 0.930 . S
H712 C720 0.930 . S
H713 C721 0.930 1_554 S
H714 C724 0.930 . S
H715 C725 0.930 . S
C716 H710 0.930 . S
C716 C717 1.355 . S
C716 C718 1.415 . S
C717 C716 1.355 . S
C717 C719 1.419 . S
C718 C716 1.415 . S
C718 C723 1.425 . S
C718 C725 1.409 . S
C719 H711 0.930 . S
C719 C717 1.419 . S
C719 C720 1.362 . S
C720 H712 0.930 . S
C720 C719 1.362 . S
C720 C723 1.409 . S
C721 H713 0.930 1_556 S
C721 C722 1.355 . S
C721 C723 1.415 . S
C722 C721 1.355 . S
C722 C724 1.419 . S
C723 C718 1.425 . S
C723 C720 1.409 . S
C723 C721 1.415 . S
C724 H714 0.930 . S
C724 C722 1.419 . S
C724 C725 1.362 . S
C725 H715 0.930 . S
C725 C718 1.409 . S
C725 C724 1.362 . S
H726 C732 0.930 . S
H727 C735 0.930 . S
H728 C736 0.930 . S
H729 C737 0.930 . S
H730 C740 0.930 . S
H731 C741 0.930 . S
C732 H726 0.930 . S
C732 C733 1.355 . S
C732 C734 1.415 . S
C733 C732 1.355 . S
C733 C735 1.419 . S
C734 C732 1.415 . S
C734 C739 1.425 . S
C734 C741 1.409 . S
C735 H727 0.930 . S
C735 C733 1.419 . S
C735 C736 1.362 . S
C736 H728 0.930 . S
C736 C735 1.362 . S
C736 C739 1.409 . S
C737 H729 0.930 . S
C737 C738 1.355 . S
C737 C739 1.415 . S
C738 C737 1.355 . S
C738 C740 1.419 . S
C739 C734 1.425 . S
C739 C736 1.409 . S
C739 C737 1.415 . S
C740 H730 0.930 . S
C740 C738 1.419 . S
C740 C741 1.362 . S
C741 H731 0.930 . S
C741 C734 1.409 . S
C741 C740 1.362 . S
H742 C748 0.930 . S
H743 C751 0.930 . S
H744 C752 0.930 . S
H745 C753 0.930 . S
H746 C756 0.930 . S
H747 C757 0.930 . S
C748 H742 0.930 . S
C748 C749 1.355 . S
C748 C750 1.415 . S
C749 C748 1.355 . S
C749 C751 1.419 . S
C750 C748 1.415 . S
C750 C755 1.425 . S
C750 C757 1.409 . S
C751 H743 0.930 . S
C751 C749 1.419 . S
C751 C752 1.362 . S
C752 H744 0.930 . S
C752 C751 1.362 . S
C752 C755 1.409 . S
C753 H745 0.930 . S
C753 C754 1.355 . S
C753 C755 1.415 . S
C754 C753 1.355 . S
C754 C756 1.419 . S
C755 C750 1.425 . S
C755 C752 1.409 . S
C755 C753 1.415 . S
C756 H746 0.930 . S
C756 C754 1.419 . S
C756 C757 1.362 . S
C757 H747 0.930 . S
C757 C750 1.409 . S
C757 C756 1.362 . S
H758 C764 0.930 . S
H759 C767 0.930 . S
H760 C768 0.930 . S
H761 C769 0.930 . S
H762 C772 0.930 . S
H763 C773 0.930 . S
C764 H758 0.930 . S
C764 C765 1.355 . S
C764 C766 1.415 . S
C765 C764 1.355 . S
C765 C767 1.419 . S
C766 C764 1.415 . S
C766 C771 1.425 . S
C766 C773 1.409 . S
C767 H759 0.930 . S
C767 C765 1.419 . S
C767 C768 1.362 . S
C768 H760 0.930 . S
C768 C767 1.362 . S
C768 C771 1.409 . S
C769 H761 0.930 . S
C769 C770 1.355 . S
C769 C771 1.415 . S
C770 C769 1.355 . S
C770 C772 1.419 . S
C771 C766 1.425 . S
C771 C768 1.409 . S
C771 C769 1.415 . S
C772 H762 0.930 . S
C772 C770 1.419 . S
C772 C773 1.362 . S
C773 H763 0.930 . S
C773 C766 1.409 . S
C773 C772 1.362 . S
H774 C780 0.930 . S
H775 C783 0.930 . S
H776 C784 0.930 . S
H777 C785 0.930 . S
H778 C788 0.930 . S
H779 C789 0.930 . S
C780 H774 0.930 . S
C780 C781 1.355 . S
C780 C782 1.415 . S
C781 C780 1.355 . S
C781 C783 1.419 . S
C782 C780 1.415 . S
C782 C787 1.425 . S
C782 C789 1.409 . S
C783 H775 0.930 . S
C783 C781 1.419 . S
C783 C784 1.362 . S
C784 H776 0.930 . S
C784 C783 1.362 . S
C784 C787 1.409 . S
C785 H777 0.930 . S
C785 C786 1.355 . S
C785 C787 1.415 . S
C786 C785 1.355 . S
C786 C788 1.419 . S
C787 C782 1.425 . S
C787 C784 1.409 . S
C787 C785 1.415 . S
C788 H778 0.930 . S
C788 C786 1.419 . S
C788 C789 1.362 . S
C789 H779 0.930 . S
C789 C782 1.409 . S
C789 C788 1.362 . S
H790 C796 0.930 . S
H791 C799 0.930 . S
H792 C800 0.930 . S
H793 C801 0.930 . S
H794 C804 0.930 . S
H795 C805 0.930 . S
C796 H790 0.930 . S
C796 C797 1.355 . S
C796 C798 1.415 . S
C797 C796 1.355 . S
C797 C799 1.419 . S
C798 C796 1.415 . S
C798 C803 1.425 . S
C798 C805 1.409 . S
C799 H791 0.930 . S
C799 C797 1.419 . S
C799 C800 1.362 . S
C800 H792 0.930 . S
C800 C799 1.362 . S
C800 C803 1.409 . S
C801 H793 0.930 . S
C801 C802 1.355 . S
C801 C803 1.415 . S
C802 C801 1.355 . S
C802 C804 1.419 . S
C803 C798 1.425 . S
C803 C800 1.409 . S
C803 C801 1.415 . S
C804 H794 0.930 . S
C804 C802 1.419 . S
C804 C805 1.362 . S
C805 H795 0.930 . S
C805 C798 1.409 . S
C805 C804 1.362 . S
H806 C812 0.930 . S
H807 C815 0.930 . S
H808 C816 0.930 . S
H809 C817 0.930 . S
H810 C820 0.930 . S
H811 C821 0.930 . S
C812 H806 0.930 . S
C812 C813 1.355 . S
C812 C814 1.415 . S
C813 C812 1.355 . S
C813 C815 1.419 . S
C814 C812 1.415 . S
C814 C819 1.425 . S
C814 C821 1.409 . S
C815 H807 0.930 . S
C815 C813 1.419 . S
C815 C816 1.362 . S
C816 H808 0.930 . S
C816 C815 1.362 . S
C816 C819 1.409 . S
C817 H809 0.930 . S
C817 C818 1.355 . S
C817 C819 1.415 . S
C818 C817 1.355 . S
C818 C820 1.419 . S
C819 C814 1.425 . S
C819 C816 1.409 . S
C819 C817 1.415 . S
C820 H810 0.930 . S
C820 C818 1.419 . S
C820 C821 1.362 . S
C821 H811 0.930 . S
C821 C814 1.409 . S
C821 C820 1.362 . S
H822 C828 0.930 . S
H823 C831 0.930 . S
H824 C832 0.930 . S
H825 C833 0.930 . S
H826 C836 0.930 . S
H827 C837 0.930 . S
C828 H822 0.930 . S
C828 C829 1.355 . S
C828 C830 1.415 . S
C829 C828 1.355 . S
C829 C831 1.419 . S
C830 C828 1.415 . S
C830 C835 1.425 . S
C830 C837 1.409 . S
C831 H823 0.930 . S
C831 C829 1.419 . S
C831 C832 1.362 . S
C832 H824 0.930 . S
C832 C831 1.362 . S
C832 C835 1.409 . S
C833 H825 0.930 . S
C833 C834 1.355 . S
C833 C835 1.415 . S
C834 C833 1.355 . S
C834 C836 1.419 . S
C835 C830 1.425 . S
C835 C832 1.409 . S
C835 C833 1.415 . S
C836 H826 0.930 . S
C836 C834 1.419 . S
C836 C837 1.362 . S
C837 H827 0.930 . S
C837 C830 1.409 . S
C837 C836 1.362 . S
H838 C844 0.930 . S
H839 C847 0.930 . S
H840 C848 0.930 . S
H841 C849 0.930 . S
H842 C852 0.936 . S
H843 C853 0.930 . S
C844 H838 0.930 . S
C844 C845 1.355 . S
C844 C846 1.415 . S
C845 C844 1.355 . S
C845 C847 1.419 . S
C846 C844 1.415 . S
C846 C851 1.425 . S
C846 C853 1.409 . S
C847 H839 0.930 . S
C847 C845 1.419 . S
C847 C848 1.362 . S
C848 H840 0.930 . S
C848 C847 1.362 . S
C848 C851 1.409 . S
C849 H841 0.930 . S
C849 C850 1.355 . S
C849 C851 1.415 . S
C850 C849 1.355 . S
C850 C852 1.417 1_556 S
C851 C846 1.425 . S
C851 C848 1.409 . S
C851 C849 1.415 . S
C852 H842 0.936 . S
C852 C850 1.417 1_554 S
C852 C853 1.358 1_554 S
C853 H843 0.930 . S
C853 C846 1.409 . S
C853 C852 1.358 1_556 S
H854 C860 0.930 . S
H855 C863 0.930 . S
H856 C864 0.930 . S
H857 C865 0.930 . S
H858 C868 0.930 . S
H859 C869 0.930 . S
C860 H854 0.930 . S
C860 C861 1.355 . S
C860 C862 1.415 . S
C861 C860 1.355 . S
C861 C863 1.419 . S
C862 C860 1.415 . S
C862 C867 1.425 . S
C862 C869 1.409 . S
C863 H855 0.930 . S
C863 C861 1.419 . S
C863 C864 1.362 . S
C864 H856 0.930 . S
C864 C863 1.362 . S
C864 C867 1.409 . S
C865 H857 0.930 . S
C865 C866 1.355 . S
C865 C867 1.415 . S
C866 C865 1.355 . S
C866 C868 1.419 . S
C867 C862 1.425 . S
C867 C864 1.409 . S
C867 C865 1.415 . S
C868 H858 0.930 . S
C868 C866 1.419 . S
C868 C869 1.362 . S
C869 H859 0.930 . S
C869 C862 1.409 . S
C869 C868 1.362 . S
H870 C876 0.930 . S
H871 C879 0.930 . S
H872 C880 0.930 . S
H873 C881 0.930 . S
H874 C884 0.930 . S
H875 C885 0.930 . S
C876 H870 0.930 . S
C876 C877 1.355 . S
C876 C878 1.415 . S
C877 C876 1.355 . S
C877 C879 1.419 . S
C878 C876 1.415 . S
C878 C883 1.425 . S
C878 C885 1.409 . S
C879 H871 0.930 . S
C879 C877 1.419 . S
C879 C880 1.362 . S
C880 H872 0.930 . S
C880 C879 1.362 . S
C880 C883 1.409 . S
C881 H873 0.930 . S
C881 C882 1.355 . S
C881 C883 1.415 . S
C882 C881 1.355 . S
C882 C884 1.419 . S
C883 C878 1.425 . S
C883 C880 1.409 . S
C883 C881 1.415 . S
C884 H874 0.930 . S
C884 C882 1.419 . S
C884 C885 1.362 . S
C885 H875 0.930 . S
C885 C878 1.409 . S
C885 C884 1.362 . S
H886 C892 0.930 . S
H887 C895 0.930 . S
H888 C896 0.930 . S
H889 C897 0.930 . S
H890 C900 0.930 . S
H891 C901 0.930 . S
C892 H886 0.930 . S
C892 C893 1.355 . S
C892 C894 1.415 . S
C893 C892 1.355 . S
C893 C895 1.419 . S
C894 C892 1.415 . S
C894 C899 1.425 . S
C894 C901 1.409 . S
C895 H887 0.930 . S
C895 C893 1.419 . S
C895 C896 1.362 . S
C896 H888 0.930 . S
C896 C895 1.362 . S
C896 C899 1.409 . S
C897 H889 0.930 . S
C897 C898 1.355 . S
C897 C899 1.415 . S
C898 C897 1.355 . S
C898 C900 1.419 . S
C899 C894 1.425 . S
C899 C896 1.409 . S
C899 C897 1.415 . S
C900 H890 0.930 . S
C900 C898 1.419 . S
C900 C901 1.362 . S
C901 H891 0.930 . S
C901 C894 1.409 . S
C901 C900 1.362 . S
H902 C908 0.930 . S
H903 C911 0.930 . S
H904 C912 0.930 . S
H905 C913 0.930 . S
H906 C916 0.930 1_554 S
H907 C917 0.930 . S
C908 H902 0.930 . S
C908 C909 1.355 . S
C908 C910 1.415 . S
C909 C908 1.355 . S
C909 C911 1.419 . S
C910 C908 1.415 . S
C910 C915 1.425 . S
C910 C917 1.409 . S
C911 H903 0.930 . S
C911 C909 1.419 . S
C911 C912 1.362 . S
C912 H904 0.930 . S
C912 C911 1.362 . S
C912 C915 1.409 . S
C913 H905 0.930 . S
C913 C914 1.355 . S
C913 C915 1.415 . S
C914 C913 1.355 . S
C914 C916 1.419 . S
C915 C910 1.425 . S
C915 C912 1.409 . S
C915 C913 1.415 . S
C916 H906 0.930 1_556 S
C916 C914 1.419 . S
C916 C917 1.362 . S
C917 H907 0.930 . S
C917 C910 1.409 . S
C917 C916 1.362 . S
H918 C924 0.930 . S
H919 C927 0.930 . S
H920 C928 0.930 . S
H921 C929 0.930 . S
H922 C932 0.930 . S
H923 C933 0.930 . S
C924 H918 0.930 . S
C924 C925 1.355 . S
C924 C926 1.415 . S
C925 C924 1.355 . S
C925 C927 1.419 . S
C926 C924 1.415 . S
C926 C931 1.425 . S
C926 C933 1.409 . S
C927 H919 0.930 . S
C927 C925 1.419 . S
C927 C928 1.362 . S
C928 H920 0.930 . S
C928 C927 1.362 . S
C928 C931 1.409 . S
C929 H921 0.930 . S
C929 C930 1.355 . S
C929 C931 1.415 . S
C930 C929 1.355 . S
C930 C932 1.419 . S
C931 C926 1.425 . S
C931 C928 1.409 . S
C931 C929 1.415 . S
C932 H922 0.930 . S
C932 C930 1.419 . S
C932 C933 1.362 . S
C933 H923 0.930 . S
C933 C926 1.409 . S
C933 C932 1.362 . S
H934 C940 0.930 . S
H935 C943 0.930 . S
H936 C944 0.930 . S
H937 C945 0.930 . S
H938 C948 0.930 . S
H939 C949 0.930 . S
C940 H934 0.930 . S
C940 C941 1.355 . S
C940 C942 1.415 . S
C941 C940 1.355 . S
C941 C943 1.419 . S
C942 C940 1.415 . S
C942 C947 1.425 . S
C942 C949 1.409 . S
C943 H935 0.930 . S
C943 C941 1.419 . S
C943 C944 1.362 . S
C944 H936 0.930 . S
C944 C943 1.362 . S
C944 C947 1.409 . S
C945 H937 0.930 . S
C945 C946 1.355 . S
C945 C947 1.415 . S
C946 C945 1.355 . S
C946 C948 1.419 . S
C947 C942 1.425 . S
C947 C944 1.409 . S
C947 C945 1.415 . S
C948 H938 0.930 . S
C948 C946 1.419 . S
C948 C949 1.362 . S
C949 H939 0.930 . S
C949 C942 1.409 . S
C949 C948 1.362 . S
H950 C956 0.930 . S
H951 C959 0.930 . S
H952 C960 0.930 1_554 S
H953 C961 0.930 1_554 S
H954 C964 0.930 . S
H955 C965 0.930 . S
C956 H950 0.930 . S
C956 C957 1.355 . S
C956 C958 1.415 . S
C957 C956 1.355 . S
C957 C959 1.419 . S
C958 C956 1.415 . S
C958 C963 1.425 . S
C958 C965 1.409 . S
C959 H951 0.930 . S
C959 C957 1.419 . S
C959 C960 1.362 . S
C960 H952 0.930 1_556 S
C960 C959 1.362 . S
C960 C963 1.409 . S
C961 H953 0.930 1_556 S
C961 C962 1.355 . S
C961 C963 1.415 . S
C962 C961 1.355 . S
C962 C964 1.419 . S
C963 C958 1.425 . S
C963 C960 1.409 . S
C963 C961 1.415 . S
C964 H954 0.930 . S
C964 C962 1.419 . S
C964 C965 1.362 . S
C965 H955 0.930 . S
C965 C958 1.409 . S
C965 C964 1.362 . S
H966 C972 0.930 . S
H967 C975 0.930 . S
H968 C976 0.930 . S
H969 C977 0.930 . S
H970 C980 0.930 . S
H971 C981 0.930 . S
C972 H966 0.930 . S
C972 C973 1.355 . S
C972 C974 1.415 . S
C973 C972 1.355 . S
C973 C975 1.419 . S
C974 C972 1.415 . S
C974 C979 1.425 . S
C974 C981 1.409 . S
C975 H967 0.930 . S
C975 C973 1.419 . S
C975 C976 1.362 . S
C976 H968 0.930 . S
C976 C975 1.362 . S
C976 C979 1.409 . S
C977 H969 0.930 . S
C977 C978 1.355 . S
C977 C979 1.415 . S
C978 C977 1.355 . S
C978 C980 1.419 . S
C979 C974 1.425 . S
C979 C976 1.409 . S
C979 C977 1.415 . S
C980 H970 0.930 . S
C980 C978 1.419 . S
C980 C981 1.362 . S
C981 H971 0.930 . S
C981 C974 1.409 . S
C981 C980 1.362 . S
H982 C988 0.930 . S
H983 C991 0.930 . S
H984 C992 0.930 . S
H985 C993 0.930 . S
H986 C996 0.930 . S
H987 C997 0.930 . S
C988 H982 0.930 . S
C988 C989 1.355 . S
C988 C990 1.415 . S
C989 C988 1.355 . S
C989 C991 1.419 . S
C990 C988 1.415 . S
C990 C995 1.425 . S
C990 C997 1.409 . S
C991 H983 0.930 . S
C991 C989 1.419 . S
C991 C992 1.362 . S
C992 H984 0.930 . S
C992 C991 1.362 . S
C992 C995 1.409 . S
C993 H985 0.930 . S
C993 C994 1.355 . S
C993 C995 1.415 . S
C994 C993 1.355 . S
C994 C996 1.419 . S
C995 C990 1.425 . S
C995 C992 1.409 . S
C995 C993 1.415 . S
C996 H986 0.930 . S
C996 C994 1.419 . S
C996 C997 1.362 . S
C997 H987 0.930 . S
C997 C990 1.409 . S
C997 C996 1.362 . S
H998 C1004 0.930 . S
H999 C1007 0.930 . S
H1000 C1008 0.930 . S
H1001 C1009 0.930 . S
H1002 C1012 0.930 . S
H1003 C1013 0.930 . S
C1004 H998 0.930 . S
C1004 C1005 1.355 . S
C1004 C1006 1.415 . S
C1005 C1004 1.355 . S
C1005 C1007 1.419 . S
C1006 C1004 1.415 . S
C1006 C1011 1.425 . S
C1006 C1013 1.409 . S
C1007 H999 0.930 . S
C1007 C1005 1.419 . S
C1007 C1008 1.362 . S
C1008 H1000 0.930 . S
C1008 C1007 1.362 . S
C1008 C1011 1.409 . S
C1009 H1001 0.930 . S
C1009 C1010 1.355 . S
C1009 C1011 1.415 . S
C1010 C1009 1.355 . S
C1010 C1012 1.419 . S
C1011 C1006 1.425 . S
C1011 C1008 1.409 . S
C1011 C1009 1.415 . S
C1012 H1002 0.930 . S
C1012 C1010 1.419 . S
C1012 C1013 1.362 . S
C1013 H1003 0.930 . S
C1013 C1006 1.409 . S
C1013 C1012 1.362 . S
H1014 C1020 0.930 . S
H1015 C1023 0.930 . S
H1016 C1024 0.930 . S
H1017 C1025 0.930 . S
H1018 C1028 0.930 . S
H1019 C1029 0.930 . S
C1020 H1014 0.930 . S
C1020 C1021 1.355 . S
C1020 C1022 1.415 . S
C1021 C1020 1.355 . S
C1021 C1023 1.419 . S
C1022 C1020 1.415 . S
C1022 C1027 1.425 . S
C1022 C1029 1.409 . S
C1023 H1015 0.930 . S
C1023 C1021 1.419 . S
C1023 C1024 1.362 . S
C1024 H1016 0.930 . S
C1024 C1023 1.362 . S
C1024 C1027 1.409 . S
C1025 H1017 0.930 . S
C1025 C1026 1.355 . S
C1025 C1027 1.415 . S
C1026 C1025 1.355 . S
C1026 C1028 1.419 . S
C1027 C1022 1.425 . S
C1027 C1024 1.409 . S
C1027 C1025 1.415 . S
C1028 H1018 0.930 . S
C1028 C1026 1.419 . S
C1028 C1029 1.362 . S
C1029 H1019 0.930 . S
C1029 C1022 1.409 . S
C1029 C1028 1.362 . S
H1030 C1036 0.930 . S
H1031 C1039 0.930 . S
H1032 C1040 0.930 . S
H1033 C1041 0.930 . S
H1034 C1044 0.930 . S
H1035 C1045 0.930 . S
C1036 H1030 0.930 . S
C1036 C1037 1.355 . S
C1036 C1038 1.415 . S
C1037 C1036 1.355 . S
C1037 C1039 1.419 . S
C1038 C1036 1.415 . S
C1038 C1043 1.425 . S
C1038 C1045 1.409 . S
C1039 H1031 0.930 . S
C1039 C1037 1.419 . S
C1039 C1040 1.362 . S
C1040 H1032 0.930 . S
C1040 C1039 1.362 . S
C1040 C1043 1.409 . S
C1041 H1033 0.930 . S
C1041 C1042 1.355 . S
C1041 C1043 1.415 . S
C1042 C1041 1.355 . S
C1042 C1044 1.419 . S
C1043 C1038 1.425 . S
C1043 C1040 1.409 . S
C1043 C1041 1.415 . S
C1044 H1034 0.930 . S
C1044 C1042 1.419 . S
C1044 C1045 1.362 . S
C1045 H1035 0.930 . S
C1045 C1038 1.409 . S
C1045 C1044 1.362 . S
H1046 C1052 0.930 . S
H1047 C1055 0.930 . S
H1048 C1056 0.930 . S
H1049 C1057 0.930 . S
H1050 C1060 0.930 . S
H1051 C1061 0.930 . S
C1052 H1046 0.930 . S
C1052 C1053 1.355 . S
C1052 C1054 1.415 . S
C1053 C1052 1.355 . S
C1053 C1055 1.419 . S
C1054 C1052 1.415 . S
C1054 C1059 1.425 . S
C1054 C1061 1.409 . S
C1055 H1047 0.930 . S
C1055 C1053 1.419 . S
C1055 C1056 1.362 . S
C1056 H1048 0.930 . S
C1056 C1055 1.362 . S
C1056 C1059 1.409 . S
C1057 H1049 0.930 . S
C1057 C1058 1.355 . S
C1057 C1059 1.415 . S
C1058 C1057 1.355 . S
C1058 C1060 1.419 . S
C1059 C1054 1.425 . S
C1059 C1056 1.409 . S
C1059 C1057 1.415 . S
C1060 H1050 0.930 . S
C1060 C1058 1.419 . S
C1060 C1061 1.362 . S
C1061 H1051 0.930 . S
C1061 C1054 1.409 . S
C1061 C1060 1.362 . S
H1062 C1068 0.930 . S
H1063 C1071 0.930 . S
H1064 C1072 0.930 . S
H1065 C1073 0.930 . S
H1066 C1076 0.930 . S
H1067 C1077 0.930 . S
C1068 H1062 0.930 . S
C1068 C1069 1.355 . S
C1068 C1070 1.415 . S
C1069 C1068 1.355 . S
C1069 C1071 1.419 . S
C1070 C1068 1.415 . S
C1070 C1075 1.425 . S
C1070 C1077 1.409 . S
C1071 H1063 0.930 . S
C1071 C1069 1.419 . S
C1071 C1072 1.362 . S
C1072 H1064 0.930 . S
C1072 C1071 1.362 . S
C1072 C1075 1.409 . S
C1073 H1065 0.930 . S
C1073 C1074 1.355 . S
C1073 C1075 1.415 . S
C1074 C1073 1.355 . S
C1074 C1076 1.419 . S
C1075 C1070 1.425 . S
C1075 C1072 1.409 . S
C1075 C1073 1.415 . S
C1076 H1066 0.930 . S
C1076 C1074 1.419 . S
C1076 C1077 1.362 . S
C1077 H1067 0.930 . S
C1077 C1070 1.409 . S
C1077 C1076 1.362 . S
H1078 C1084 0.930 . S
H1079 C1087 0.930 . S
H1080 C1088 0.930 . S
H1081 C1089 0.930 . S
H1082 C1092 0.930 . S
H1083 C1093 0.930 . S
C1084 H1078 0.930 . S
C1084 C1085 1.355 . S
C1084 C1086 1.415 . S
C1085 C1084 1.355 . S
C1085 C1087 1.419 . S
C1086 C1084 1.415 . S
C1086 C1091 1.425 . S
C1086 C1093 1.409 . S
C1087 H1079 0.930 . S
C1087 C1085 1.419 . S
C1087 C1088 1.362 . S
C1088 H1080 0.930 . S
C1088 C1087 1.362 . S
C1088 C1091 1.409 . S
C1089 H1081 0.930 . S
C1089 C1090 1.355 . S
C1089 C1091 1.415 . S
C1090 C1089 1.355 . S
C1090 C1092 1.419 . S
C1091 C1086 1.425 . S
C1091 C1088 1.409 . S
C1091 C1089 1.415 . S
C1092 H1082 0.930 . S
C1092 C1090 1.419 . S
C1092 C1093 1.362 . S
C1093 H1083 0.930 . S
C1093 C1086 1.409 . S
C1093 C1092 1.362 . S
H1094 C1100 0.930 . S
H1095 C1103 0.930 . S
H1096 C1104 0.930 . S
H1097 C1105 0.930 . S
H1098 C1108 0.930 . S
H1099 C1109 0.930 . S
C1100 H1094 0.930 . S
C1100 C1101 1.355 . S
C1100 C1102 1.415 . S
C1101 C1100 1.355 . S
C1101 C1103 1.419 . S
C1102 C1100 1.415 . S
C1102 C1107 1.425 . S
C1102 C1109 1.409 . S
C1103 H1095 0.930 . S
C1103 C1101 1.419 . S
C1103 C1104 1.362 . S
C1104 H1096 0.930 . S
C1104 C1103 1.362 . S
C1104 C1107 1.409 . S
C1105 H1097 0.930 . S
C1105 C1106 1.355 . S
C1105 C1107 1.415 . S
C1106 C1105 1.355 . S
C1106 C1108 1.419 . S
C1107 C1102 1.425 . S
C1107 C1104 1.409 . S
C1107 C1105 1.415 . S
C1108 H1098 0.930 . S
C1108 C1106 1.419 . S
C1108 C1109 1.362 . S
C1109 H1099 0.930 . S
C1109 C1102 1.409 . S
C1109 C1108 1.362 . S
H1110 C1116 0.930 . S
H1111 C1119 0.930 . S
H1112 C1120 0.930 . S
H1113 C1121 0.930 . S
H1114 C1124 0.930 . S
H1115 C1125 0.930 . S
C1116 H1110 0.930 . S
C1116 C1117 1.355 . S
C1116 C1118 1.415 . S
C1117 C1116 1.355 . S
C1117 C1119 1.419 . S
C1118 C1116 1.415 . S
C1118 C1123 1.425 . S
C1118 C1125 1.409 . S
C1119 H1111 0.930 . S
C1119 C1117 1.419 . S
C1119 C1120 1.362 . S
C1120 H1112 0.930 . S
C1120 C1119 1.362 . S
C1120 C1123 1.409 . S
C1121 H1113 0.930 . S
C1121 C1122 1.355 . S
C1121 C1123 1.415 . S
C1122 C1121 1.355 . S
C1122 C1124 1.419 . S
C1123 C1118 1.425 . S
C1123 C1120 1.409 . S
C1123 C1121 1.415 . S
C1124 H1114 0.930 . S
C1124 C1122 1.419 . S
C1124 C1125 1.362 . S
C1125 H1115 0.930 . S
C1125 C1118 1.409 . S
C1125 C1124 1.362 . S
H1126 C1132 0.930 . S
H1127 C1135 0.930 . S
H1128 C1136 0.930 . S
H1129 C1137 0.930 . S
H1130 C1140 0.930 . S
H1131 C1141 0.930 . S
C1132 H1126 0.930 . S
C1132 C1133 1.355 . S
C1132 C1134 1.415 . S
C1133 C1132 1.355 . S
C1133 C1135 1.419 . S
C1134 C1132 1.415 . S
C1134 C1139 1.425 . S
C1134 C1141 1.409 . S
C1135 H1127 0.930 . S
C1135 C1133 1.419 . S
C1135 C1136 1.362 . S
C1136 H1128 0.930 . S
C1136 C1135 1.362 . S
C1136 C1139 1.409 . S
C1137 H1129 0.930 . S
C1137 C1138 1.355 . S
C1137 C1139 1.415 . S
C1138 C1137 1.355 . S
C1138 C1140 1.419 . S
C1139 C1134 1.425 . S
C1139 C1136 1.409 . S
C1139 C1137 1.415 . S
C1140 H1130 0.930 . S
C1140 C1138 1.419 . S
C1140 C1141 1.362 . S
C1141 H1131 0.930 . S
C1141 C1134 1.409 . S
C1141 C1140 1.362 . S
H1142 C1148 0.930 . S
H1143 C1151 0.930 . S
H1144 C1152 0.930 . S
H1145 C1153 0.930 . S
H1146 C1156 0.930 . S
H1147 C1157 0.930 . S
C1148 H1142 0.930 . S
C1148 C1149 1.355 . S
C1148 C1150 1.415 . S
C1149 C1148 1.355 . S
C1149 C1151 1.419 . S
C1150 C1148 1.415 . S
C1150 C1155 1.425 . S
C1150 C1157 1.409 . S
C1151 H1143 0.930 . S
C1151 C1149 1.419 . S
C1151 C1152 1.362 . S
C1152 H1144 0.930 . S
C1152 C1151 1.362 . S
C1152 C1155 1.409 . S
C1153 H1145 0.930 . S
C1153 C1154 1.355 . S
C1153 C1155 1.415 . S
C1154 C1153 1.355 . S
C1154 C1156 1.419 . S
C1155 C1150 1.425 . S
C1155 C1152 1.409 . S
C1155 C1153 1.415 . S
C1156 H1146 0.930 . S
C1156 C1154 1.419 . S
C1156 C1157 1.362 . S
C1157 H1147 0.930 . S
C1157 C1150 1.409 . S
C1157 C1156 1.362 . S
H1158 C1164 0.930 . S
H1159 C1167 0.930 . S
H1160 C1168 0.930 . S
H1161 C1169 0.930 . S
H1162 C1172 0.930 . S
H1163 C1173 0.930 . S
C1164 H1158 0.930 . S
C1164 C1165 1.355 . S
C1164 C1166 1.415 . S
C1165 C1164 1.355 . S
C1165 C1167 1.419 . S
C1166 C1164 1.415 . S
C1166 C1171 1.425 . S
C1166 C1173 1.409 . S
C1167 H1159 0.930 . S
C1167 C1165 1.419 . S
C1167 C1168 1.362 . S
C1168 H1160 0.930 . S
C1168 C1167 1.362 . S
C1168 C1171 1.409 . S
C1169 H1161 0.930 . S
C1169 C1170 1.355 . S
C1169 C1171 1.415 . S
C1170 C1169 1.355 . S
C1170 C1172 1.419 . S
C1171 C1166 1.425 . S
C1171 C1168 1.409 . S
C1171 C1169 1.415 . S
C1172 H1162 0.930 . S
C1172 C1170 1.419 . S
C1172 C1173 1.362 . S
C1173 H1163 0.930 . S
C1173 C1166 1.409 . S
C1173 C1172 1.362 . S
H1174 C1180 0.930 . S
H1175 C1183 0.930 . S
H1176 C1184 0.930 . S
H1177 C1185 0.930 . S
H1178 C1188 0.930 . S
H1179 C1189 0.930 . S
C1180 H1174 0.930 . S
C1180 C1181 1.355 . S
C1180 C1182 1.415 . S
C1181 C1180 1.355 . S
C1181 C1183 1.419 . S
C1182 C1180 1.415 . S
C1182 C1187 1.425 . S
C1182 C1189 1.409 . S
C1183 H1175 0.930 . S
C1183 C1181 1.419 . S
C1183 C1184 1.362 . S
C1184 H1176 0.930 . S
C1184 C1183 1.362 . S
C1184 C1187 1.409 . S
C1185 H1177 0.930 . S
C1185 C1186 1.355 . S
C1185 C1187 1.415 . S
C1186 C1185 1.355 . S
C1186 C1188 1.419 . S
C1187 C1182 1.425 . S
C1187 C1184 1.409 . S
C1187 C1185 1.415 . S
C1188 H1178 0.930 . S
C1188 C1186 1.419 . S
C1188 C1189 1.362 . S
C1189 H1179 0.930 . S
C1189 C1182 1.409 . S
C1189 C1188 1.362 . S
H1190 C1196 0.930 . S
H1191 C1199 0.930 . S
H1192 C1200 0.930 . S
H1193 C1201 0.930 . S
H1194 C1204 0.930 . S
H1195 C1205 0.930 . S
C1196 H1190 0.930 . S
C1196 C1197 1.355 . S
C1196 C1198 1.415 . S
C1197 C1196 1.355 . S
C1197 C1199 1.419 . S
C1198 C1196 1.415 . S
C1198 C1203 1.425 . S
C1198 C1205 1.409 . S
C1199 H1191 0.930 . S
C1199 C1197 1.419 . S
C1199 C1200 1.362 . S
C1200 H1192 0.930 . S
C1200 C1199 1.362 . S
C1200 C1203 1.409 . S
C1201 H1193 0.930 . S
C1201 C1202 1.355 . S
C1201 C1203 1.415 . S
C1202 C1201 1.355 . S
C1202 C1204 1.419 . S
C1203 C1198 1.425 . S
C1203 C1200 1.409 . S
C1203 C1201 1.415 . S
C1204 H1194 0.930 . S
C1204 C1202 1.419 . S
C1204 C1205 1.362 . S
C1205 H1195 0.930 . S
C1205 C1198 1.409 . S
C1205 C1204 1.362 . S
H1206 C1212 0.930 . S
H1207 C1215 0.930 . S
H1208 C1216 0.930 . S
H1209 C1217 0.930 . S
H1210 C1220 0.930 . S
H1211 C1221 0.930 . S
C1212 H1206 0.930 . S
C1212 C1213 1.355 . S
C1212 C1214 1.415 . S
C1213 C1212 1.355 . S
C1213 C1215 1.419 . S
C1214 C1212 1.415 . S
C1214 C1219 1.425 . S
C1214 C1221 1.409 . S
C1215 H1207 0.930 . S
C1215 C1213 1.419 . S
C1215 C1216 1.362 . S
C1216 H1208 0.930 . S
C1216 C1215 1.362 . S
C1216 C1219 1.409 . S
C1217 H1209 0.930 . S
C1217 C1218 1.355 . S
C1217 C1219 1.415 . S
C1218 C1217 1.355 . S
C1218 C1220 1.419 . S
C1219 C1214 1.425 . S
C1219 C1216 1.409 . S
C1219 C1217 1.415 . S
C1220 H1210 0.930 . S
C1220 C1218 1.419 . S
C1220 C1221 1.362 . S
C1221 H1211 0.930 . S
C1221 C1214 1.409 . S
C1221 C1220 1.362 . S
H1222 C1228 0.930 . S
H1223 C1231 0.930 . S
H1224 C1232 0.930 . S
H1225 C1233 0.930 . S
H1226 C1236 0.930 . S
H1227 C1237 0.930 . S
C1228 H1222 0.930 . S
C1228 C1229 1.355 . S
C1228 C1230 1.415 . S
C1229 C1228 1.355 . S
C1229 C1231 1.419 . S
C1230 C1228 1.415 . S
C1230 C1235 1.425 . S
C1230 C1237 1.409 . S
C1231 H1223 0.930 . S
C1231 C1229 1.419 . S
C1231 C1232 1.362 . S
C1232 H1224 0.930 . S
C1232 C1231 1.362 . S
C1232 C1235 1.409 . S
C1233 H1225 0.930 . S
C1233 C1234 1.355 . S
C1233 C1235 1.415 . S
C1234 C1233 1.355 . S
C1234 C1236 1.419 . S
C1235 C1230 1.425 . S
C1235 C1232 1.409 . S
C1235 C1233 1.415 . S
C1236 H1226 0.930 . S
C1236 C1234 1.419 . S
C1236 C1237 1.362 . S
C1237 H1227 0.930 . S
C1237 C1230 1.409 . S
C1237 C1236 1.362 . S
H1238 C1244 0.930 . S
H1239 C1247 0.930 . S
H1240 C1248 0.930 . S
H1241 C1249 0.930 . S
H1242 C1252 0.930 . S
H1243 C1253 0.930 . S
C1244 H1238 0.930 . S
C1244 C1245 1.355 . S
C1244 C1246 1.415 . S
C1245 C1244 1.355 . S
C1245 C1247 1.419 . S
C1246 C1244 1.415 . S
C1246 C1251 1.425 . S
C1246 C1253 1.409 . S
C1247 H1239 0.930 . S
C1247 C1245 1.419 . S
C1247 C1248 1.362 . S
C1248 H1240 0.930 . S
C1248 C1247 1.362 . S
C1248 C1251 1.409 . S
C1249 H1241 0.930 . S
C1249 C1250 1.355 . S
C1249 C1251 1.415 . S
C1250 C1249 1.355 . S
C1250 C1252 1.419 . S
C1251 C1246 1.425 . S
C1251 C1248 1.409 . S
C1251 C1249 1.415 . S
C1252 H1242 0.930 . S
C1252 C1250 1.419 . S
C1252 C1253 1.362 . S
C1253 H1243 0.930 . S
C1253 C1246 1.409 . S
C1253 C1252 1.362 . S
H1254 C1260 0.930 . S
H1255 C1263 0.930 . S
H1256 C1264 0.930 . S
H1257 C1265 0.930 . S
H1258 C1268 0.930 . S
H1259 C1269 0.930 . S
C1260 H1254 0.930 . S
C1260 C1261 1.355 . S
C1260 C1262 1.415 . S
C1261 C1260 1.355 . S
C1261 C1263 1.419 . S
C1262 C1260 1.415 . S
C1262 C1267 1.425 . S
C1262 C1269 1.409 . S
C1263 H1255 0.930 . S
C1263 C1261 1.419 . S
C1263 C1264 1.362 . S
C1264 H1256 0.930 . S
C1264 C1263 1.362 . S
C1264 C1267 1.409 . S
C1265 H1257 0.930 . S
C1265 C1266 1.355 . S
C1265 C1267 1.415 . S
C1266 C1265 1.355 . S
C1266 C1268 1.419 . S
C1267 C1262 1.425 . S
C1267 C1264 1.409 . S
C1267 C1265 1.415 . S
C1268 H1258 0.930 . S
C1268 C1266 1.419 . S
C1268 C1269 1.362 . S
C1269 H1259 0.930 . S
C1269 C1262 1.409 . S
C1269 C1268 1.362 . S
H1270 C1276 0.930 . S
H1271 C1279 0.930 . S
H1272 C1280 0.930 . S
H1273 C1281 0.930 . S
H1274 C1284 0.930 . S
H1275 C1285 0.930 . S
C1276 H1270 0.930 . S
C1276 C1277 1.355 . S
C1276 C1278 1.415 . S
C1277 C1276 1.355 . S
C1277 C1279 1.419 . S
C1278 C1276 1.415 . S
C1278 C1283 1.425 . S
C1278 C1285 1.409 . S
C1279 H1271 0.930 . S
C1279 C1277 1.419 . S
C1279 C1280 1.362 . S
C1280 H1272 0.930 . S
C1280 C1279 1.362 . S
C1280 C1283 1.409 . S
C1281 H1273 0.930 . S
C1281 C1282 1.355 . S
C1281 C1283 1.415 . S
C1282 C1281 1.355 . S
C1282 C1284 1.419 . S
C1283 C1278 1.425 . S
C1283 C1280 1.409 . S
C1283 C1281 1.415 . S
C1284 H1274 0.930 . S
C1284 C1282 1.419 . S
C1284 C1285 1.362 . S
C1285 H1275 0.930 . S
C1285 C1278 1.409 . S
C1285 C1284 1.362 . S
C530 C347 1.359 . S
C525 C2 1.414 . S
C546 C348 0.583 . S
C541 C65 0.491 . S
C562 C342 1.326 . S
C557 C82 1.331 . S
C573 C145 0.545 . S
C578 C341 0.500 . S
C589 C164 0.482 . S
C594 C344 0.536 . S
C610 C346 1.344 . S
C605 C223 1.328 . S
C621 C244 0.805 . S
C626 C345 0.821 . S
C637 C282 1.448 . S
C642 C343 1.399 . S
C658 C378 3.297 . S
C653 C31 3.270 . S
C669 C60 1.866 . S
C674 C409 1.787 . S
C690 C377 3.463 . S
C685 C111 3.458 . S
C706 C412 1.532 . S
C701 C140 1.480 . S
C717 C162 1.804 . S
C722 C375 1.744 1_556 S
C738 C407 1.465 . S
C733 C225 1.458 . S
C749 C242 1.654 . S
C754 C380 1.606 1_556 S
C765 C311 2.409 . S
C770 C414 2.396 . S
C781 C4 1.057 . S
C786 C410 0.994 . S
C797 C191 1.328 . S
C802 C413 1.377 . S
C818 C381 2.776 . S
C813 C220 2.841 . S
C834 C408 1.126 . S
C829 C271 1.077 . S
C845 C284 1.611 . S
C850 C374 1.689 1_556 S
C861 C84 0.811 . S
C866 C411 0.823 . S
C882 C376 1.057 . S
C877 C143 1.066 . S
C893 C63 1.430 . S
C898 C379 1.408 . S
C909 C303 1.402 . S
C914 C446 1.332 . S
C925 C185 0.204 . S
C930 C447 0.280 . S
C946 C441 1.478 . S
C941 C202 1.482 . S
C962 C440 1.088 . S
C957 C265 1.076 . S
C973 C44 0.350 . S
C978 C443 0.581 . S
C994 C445 1.537 . S
C989 C103 1.590 . S
C1005 C124 0.917 . S
C1010 C444 0.899 . S
C1021 C23 1.462 . S
C1026 C442 1.294 . S
C1037 C305 1.695 . S
C1042 C480 1.675 . S
C1058 C512 0.875 . S
C1053 C180 0.985 . S
C1069 C231 2.701 . S
C1074 C473 2.718 . S
C1085 C260 1.431 . S
C1090 C507 1.501 . S
C1106 C478 1.226 . S
C1101 C42 1.122 . S
C1117 C105 1.187 . S
C1122 C509 1.138 . S
C1138 C475 1.343 . S
C1133 C122 1.306 . S
C1154 C510 1.098 . S
C1149 C25 1.071 . S
C1170 C506 2.427 . S
C1165 C300 2.316 . S
C1181 C71 1.597 . S
C1186 C508 1.500 . S
C1197 C100 3.358 . S
C1202 C477 3.370 . S
C1218 C511 1.790 . S
C1213 C151 1.844 . S
C1229 C20 3.499 . S
C1234 C476 3.407 . S
C1245 C204 1.593 . S
C1250 C513 1.686 . S
C1266 C479 1.749 . S
C1261 C263 1.841 . S
C1282 C474 1.661 . S
C1277 C183 1.527 . S
