# Generated by pormake.
# Topology pyr, (3,6)-cn, num edge types: 1
# Building blocks:
#     Node 0, Type 0, BuildingBlock: WUSLED_clean_sbu_0, # of connection points: 3
#     Node 1, Type 0, BuildingBlock: WUSLED_clean_sbu_0, # of connection points: 3
#     Node 2, Type 0, BuildingBlock: WUSLED_clean_sbu_0, # of connection points: 3
#     Node 3, Type 0, BuildingBlock: WUSLED_clean_sbu_0, # of connection points: 3
#     Node 4, Type 0, BuildingBlock: WUSLED_clean_sbu_0, # of connection points: 3
#     Node 5, Type 0, BuildingBlock: WUSLED_clean_sbu_0, # of connection points: 3
#     Node 6, Type 0, BuildingBlock: WUSLED_clean_sbu_0, # of connection points: 3
#     Node 7, Type 0, BuildingBlock: WUSLED_clean_sbu_0, # of connection points: 3
#     Node 8, Type 1, BuildingBlock: BETDEL_clean_sbu_0, # of connection points: 6
#     Node 9, Type 1, BuildingBlock: BETDEL_clean_sbu_0, # of connection points: 6
#     Node 10, Type 1, BuildingBlock: BETDEL_clean_sbu_0, # of connection points: 6
#     Node 11, Type 1, BuildingBlock: BETDEL_clean_sbu_0, # of connection points: 6
#     Edge 12, Type (0, 1), BuildingBlock: OJICUG_clean_linker_0, # of connection points: 2
#     Edge 13, Type (0, 1), BuildingBlock: OJICUG_clean_linker_0, # of connection points: 2
#     Edge 14, Type (0, 1), BuildingBlock: OJICUG_clean_linker_0, # of connection points: 2
#     Edge 15, Type (0, 1), BuildingBlock: OJICUG_clean_linker_0, # of connection points: 2
#     Edge 16, Type (0, 1), BuildingBlock: OJICUG_clean_linker_0, # of connection points: 2
#     Edge 17, Type (0, 1), BuildingBlock: OJICUG_clean_linker_0, # of connection points: 2
#     Edge 18, Type (0, 1), BuildingBlock: OJICUG_clean_linker_0, # of connection points: 2
#     Edge 19, Type (0, 1), BuildingBlock: OJICUG_clean_linker_0, # of connection points: 2
#     Edge 20, Type (0, 1), BuildingBlock: OJICUG_clean_linker_0, # of connection points: 2
#     Edge 21, Type (0, 1), BuildingBlock: OJICUG_clean_linker_0, # of connection points: 2
#     Edge 22, Type (0, 1), BuildingBlock: OJICUG_clean_linker_0, # of connection points: 2
#     Edge 23, Type (0, 1), BuildingBlock: OJICUG_clean_linker_0, # of connection points: 2
#     Edge 24, Type (0, 1), BuildingBlock: OJICUG_clean_linker_0, # of connection points: 2
#     Edge 25, Type (0, 1), BuildingBlock: OJICUG_clean_linker_0, # of connection points: 2
#     Edge 26, Type (0, 1), BuildingBlock: OJICUG_clean_linker_0, # of connection points: 2
#     Edge 27, Type (0, 1), BuildingBlock: OJICUG_clean_linker_0, # of connection points: 2
#     Edge 28, Type (0, 1), BuildingBlock: OJICUG_clean_linker_0, # of connection points: 2
#     Edge 29, Type (0, 1), BuildingBlock: OJICUG_clean_linker_0, # of connection points: 2
#     Edge 30, Type (0, 1), BuildingBlock: OJICUG_clean_linker_0, # of connection points: 2
#     Edge 31, Type (0, 1), BuildingBlock: OJICUG_clean_linker_0, # of connection points: 2
#     Edge 32, Type (0, 1), BuildingBlock: OJICUG_clean_linker_0, # of connection points: 2
#     Edge 33, Type (0, 1), BuildingBlock: OJICUG_clean_linker_0, # of connection points: 2
#     Edge 34, Type (0, 1), BuildingBlock: OJICUG_clean_linker_0, # of connection points: 2
#     Edge 35, Type (0, 1), BuildingBlock: OJICUG_clean_linker_0, # of connection points: 2
# Relax obj value: 0.029
# Max RMSD: 0.093
# Mean RMSD: 0.039
data_MOF--net-pyr--node1-WUSLED_clean_sbu_0--node2-BETDEL_clean_sbu_0--edge1-OJICUG_clean_linker_0
_symmetry_space_group_name_H-M    P1
_symmetry_Int_Tables_number       1
_symmetry_cell_setting            triclinic
loop_
_symmetry_equiv_pos_as_xyz
'x, y, z'
_cell_length_a     37.244283
_cell_length_b     38.802514
_cell_length_c     35.692853
_cell_angle_alpha  90.599397
_cell_angle_beta   89.021086
_cell_angle_gamma 96.537994
loop_
_atom_site_label
_atom_site_type_symbol
_atom_site_fract_x
_atom_site_fract_y
_atom_site_fract_z
_atom_type_partial_charge
C0 C 0.16576 0.24719 0.06522 0.0
C1 C 0.13111 0.24639 0.08145 0.0
C2 C 0.1232 0.30128 0.05232 0.0
C3 C 0.10999 0.27312 0.07501 0.0
C4 C 0.15751 0.30141 0.03505 0.0
C5 C 0.17871 0.27457 0.04158 0.0
U6 U 0.17968 0.17623 0.13047 0.0
O7 O 0.19998 0.12549 0.12426 0.0
O8 O 0.22688 0.16471 0.16241 0.0
C9 C 0.22745 0.13409 0.14647 0.0
C10 C 0.18917 0.22112 0.07605 0.0
C11 C 0.26296 0.12602 0.13259 0.0
C12 C 0.30581 0.11901 0.0818 0.0
C13 C 0.27273 0.12889 0.0945 0.0
C14 C 0.32024 0.10452 0.14527 0.0
C15 C 0.32975 0.10637 0.10701 0.0
C16 C 0.28707 0.11418 0.15789 0.0
C17 C 0.1063 0.15489 0.2041 0.0
C18 C 0.10822 0.10619 0.24573 0.0
C19 C 0.06869 0.15017 0.26036 0.0
C20 C 0.08034 0.16775 0.2276 0.0
C21 C 0.08291 0.11945 0.27005 0.0
C22 C 0.11995 0.12386 0.21313 0.0
C23 C 0.12048 0.17496 0.17148 0.0
O24 O 0.20365 0.22677 0.10918 0.0
O25 O 0.17548 0.18869 0.07079 0.0
O26 O 0.12244 0.15719 0.1401 0.0
O27 O 0.14964 0.19648 0.17782 0.0
H28 H 0.12077 0.22551 0.1 0.0
H29 H 0.08354 0.27205 0.08833 0.0
H30 H 0.16857 0.32294 1.01774 0.0
H31 H 0.20556 0.27573 0.02915 0.0
H32 H 0.31263 0.1211 0.05222 0.0
H33 H 0.2546 0.13828 0.07455 0.0
H34 H 0.33794 0.0946 0.1653 0.0
H35 H 0.27996 0.11182 0.1874 0.0
H36 H 0.11932 0.08236 0.25215 0.0
H37 H 0.04955 0.16131 0.27872 0.0
H38 H 0.06975 0.19183 0.22108 0.0
H39 H 0.14016 0.11365 0.1953 0.0
C40 C 0.23029 0.87017 0.60606 0.0
C41 C 0.20296 0.8791 0.63082 0.0
C42 C 0.18072 0.91546 0.58317 0.0
C43 C 0.17826 0.90135 0.61936 0.0
C44 C 0.20789 0.90625 0.55842 0.0
C45 C 0.2323 0.88373 0.56972 0.0
U46 U 0.30112 0.84991 0.67528 0.0
O47 O 0.31661 0.80078 0.69678 0.0
O48 O 0.35638 0.83664 0.66629 0.0
C49 C 0.34944 0.80614 0.68218 0.0
C50 C 0.2579 0.84822 0.61797 0.0
C51 C 0.36408 0.77654 0.66305 0.0
C52 C 0.36656 0.71427 0.6564 0.0
C53 C 0.34941 0.74217 0.67025 0.0
C54 C 0.41297 0.75448 0.62732 0.0
C55 C 0.39893 0.72015 0.6354 0.0
C56 C 0.39585 0.78231 0.64109 0.0
C57 C 0.32077 0.9078 0.75996 0.0
C58 C 0.35513 0.89152 0.81304 0.0
C59 C 0.3565 0.95203 0.79628 0.0
C60 C 0.33293 0.94275 0.76692 0.0
C61 C 0.36811 0.92648 0.81938 0.0
C62 C 0.33188 0.8822 0.78335 0.0
C63 C 0.29909 0.89848 0.7265 0.0
O64 O 0.29132 0.86337 0.61689 0.0
O65 O 0.25033 0.8295 0.64823 0.0
O66 O 0.27797 0.8689 0.72766 0.0
O67 O 0.31695 0.90336 0.6946 0.0
H68 H 0.20092 0.86932 0.65917 0.0
H69 H 0.15777 0.90819 0.63911 0.0
H70 H 0.21017 0.91638 0.5302 0.0
H71 H 0.25313 0.87725 0.55017 0.0
H72 H 0.35522 0.68814 0.6634 0.0
H73 H 0.32534 0.73677 0.68761 0.0
H74 H 0.43757 0.75988 0.61075 0.0
H75 H 0.40819 0.80842 0.63543 0.0
H76 H 0.36387 0.87134 0.8303 0.0
H77 H 0.3658 0.97921 0.80084 0.0
H78 H 0.32484 0.96284 0.74908 0.0
H79 H 0.32327 0.85497 0.77822 0.0
C80 C 0.61085 0.38734 0.78876 0.0
C81 C 0.63879 0.40204 0.76491 0.0
C82 C 0.59559 0.43021 0.72852 0.0
C83 C 0.63121 0.42311 0.73503 0.0
C84 C 0.56787 0.41605 0.75301 0.0
C85 C 0.57543 0.3948 0.78269 0.0
U86 U 0.66784 0.36013 0.86986 0.0
O87 O 0.65088 0.33865 0.92524 0.0
O88 O 0.68146 0.30871 0.88607 0.0
C89 C 0.66439 0.3093 0.91858 0.0
C90 C 0.61774 0.36363 0.81946 0.0
C91 C 0.64171 0.27716 0.92957 0.0
C92 C 0.59929 0.2265 0.91513 0.0
C93 C 0.61861 0.25809 0.90428 0.0
C94 C 0.62544 0.23303 0.97678 0.0
C95 C 0.60272 0.21337 0.95146 0.0
C96 C 0.64469 0.26452 0.96592 0.0
C97 C 0.75609 0.4183 0.89448 0.0
C98 C 0.82027 0.41537 0.90484 0.0
C99 C 0.78844 0.45561 0.94116 0.0
C100 C 0.75655 0.44417 0.9224 0.0
C101 C 0.82086 0.44172 0.93228 0.0
C102 C 0.78832 0.40388 0.88608 0.0
C103 C 0.72293 0.4089 0.87227 0.0
O104 O 0.6453 0.34556 0.81461 0.0
O105 O 0.6153 0.37613 0.85367 0.0
O106 O 0.69186 0.41145 0.88953 0.0
O107 O 0.72222 0.38136 0.85039 0.0
H108 H 0.66644 0.39699 0.76913 0.0
H109 H 0.65327 0.43389 0.71701 0.0
H110 H 0.5401 0.42061 0.74863 0.0
H111 H 0.55344 0.38377 0.80068 0.0
H112 H 0.58236 0.21195 0.89473 0.0
H113 H 0.61598 0.26732 0.87603 0.0
H114 H 0.62835 0.22412 1.0051 0.0
H115 H 0.66235 0.27886 0.98588 0.0
H116 H 0.84479 0.40439 0.8969 0.0
H117 H 0.78773 0.47561 0.96247 0.0
H118 H 0.73235 0.45612 0.92931 0.0
H119 H 0.78917 0.38427 0.86437 0.0
C120 C 0.77321 0.62597 0.3835 0.0
C121 C 0.77646 0.62302 0.42253 0.0
C122 C 0.71136 0.60632 0.42955 0.0
C123 C 0.74592 0.6133 0.44524 0.0
C124 C 0.70824 0.60981 0.39052 0.0
C125 C 0.73876 0.61935 0.36785 0.0
U126 U 0.85861 0.68431 0.34984 0.0
O127 O 0.9116 0.67023 0.33092 0.0
O128 O 0.87838 0.69582 0.29205 0.0
C129 C 0.90756 0.68019 0.29627 0.0
C130 C 0.80523 0.63425 0.35837 0.0
C131 C 0.91651 0.65597 0.26578 0.0
C132 C 0.93184 0.59946 0.24418 0.0
C133 C 0.91998 0.62087 0.27267 0.0
C134 C 0.93579 0.64734 0.20092 0.0
C135 C 0.94038 0.6125 0.20802 0.0
C136 C 0.92417 0.6688 0.22949 0.0
C137 C 0.88077 0.77078 0.40826 0.0
C138 C 0.92951 0.81801 0.40153 0.0
C139 C 0.88661 0.81859 0.45318 0.0
C140 C 0.86857 0.78726 0.44037 0.0
C141 C 0.91753 0.83435 0.43423 0.0
C142 C 0.91132 0.78639 0.38869 0.0
C143 C 0.8608 0.73734 0.3968 0.0
O144 O 0.80397 0.66029 0.33533 0.0
O145 O 0.83727 0.63362 0.37311 0.0
O146 O 0.8761 0.70916 0.4033 0.0
O147 O 0.84387 0.73626 0.36472 0.0
H148 H 0.80262 0.62781 0.43557 0.0
H149 H 0.74959 0.61056 0.47505 0.0
H150 H 0.68213 0.60535 0.37736 0.0
H151 H 0.73543 0.62135 0.33788 0.0
H152 H 0.93453 0.57266 0.25056 0.0
H153 H 0.91417 0.61006 0.30026 0.0
H154 H 0.94238 0.6584 0.17358 0.0
H155 H 0.92196 0.69577 0.22342 0.0
H156 H 0.95332 0.82929 0.38633 0.0
H157 H 0.87608 0.8306 0.47793 0.0
H158 H 0.84493 0.77577 0.45576 0.0
H159 H 0.92118 0.77406 0.3638 0.0
C160 C 0.88229 0.80442 0.98874 0.0
C161 C 0.91675 0.80549 0.97199 0.0
C162 C 0.9261 0.75143 1.00219 0.0
C163 C 0.9385 0.7793 0.97873 0.0
C164 C 0.89202 0.75113 1.01999 0.0
C165 C 0.87022 0.77742 1.01319 0.0
U166 U 0.86385 0.8725 0.92119 0.0
O167 O 0.81471 0.88153 0.89106 0.0
O168 O 0.84214 0.92262 0.92667 0.0
C169 C 0.81387 0.91252 0.90604 0.0
C170 C 0.85796 0.82956 0.97755 0.0
C171 C 0.77873 0.91993 0.92148 0.0
C172 C 0.73752 0.92558 0.97408 0.0
C173 C 0.77028 0.91621 0.9598 0.0
C174 C 0.72084 0.9412 0.91167 0.0
C175 C 0.71262 0.93852 0.9502 0.0
C176 C 0.75366 0.93204 0.89749 0.0
C177 C 0.93362 0.89399 0.84399 0.0
C178 C 0.92038 0.92646 0.78919 0.0
C179 C 0.98214 0.91657 0.80174 0.0
C180 C 0.97037 0.89832 0.83407 0.0
C181 C 0.95723 0.93065 0.77877 0.0
C182 C 0.90872 0.90845 0.82162 0.0
C183 C 0.92147 0.87452 0.87774 0.0
O184 O 0.8711 0.86236 0.98099 0.0
O185 O 0.84238 0.8223 0.94522 0.0
O186 O 0.89288 0.85171 0.87354 0.0
O187 O 0.92017 0.89327 0.90849 0.0
H188 H 0.9264 0.82607 0.9528 0.0
H189 H 0.96476 0.7805 0.96498 0.0
H190 H 0.88154 0.72981 0.03787 0.0
H191 H 0.84353 0.77605 0.02602 0.0
H192 H 0.73173 0.92288 1.00381 0.0
H193 H 0.78922 0.90661 0.97872 0.0
H194 H 0.70241 0.95142 0.89265 0.0
H195 H 0.75977 0.93506 0.86783 0.0
H196 H 0.90039 0.93647 0.77191 0.0
H197 H 1.01074 0.91975 0.79485 0.0
H198 H 0.98995 0.88754 0.85128 0.0
H199 H 0.8802 0.90549 0.82903 0.0
C200 C 0.68542 0.20831 0.28932 0.0
C201 C 0.7062 0.18488 0.27141 0.0
C202 C 0.65931 0.17183 0.22486 0.0
C203 C 0.6933 0.16686 0.2393 0.0
C204 C 0.63902 0.19587 0.24273 0.0
C205 C 0.65201 0.21394 0.27461 0.0
U206 U 0.74216 0.21825 0.37849 0.0
O207 O 0.76537 0.266 0.40701 0.0
O208 O 0.7238 0.23059 0.43547 0.0
C209 C 0.74183 0.26177 0.43498 0.0
C210 C 0.69693 0.22584 0.32441 0.0
C211 C 0.71992 0.29083 0.44257 0.0
C212 C 0.66695 0.31215 0.47164 0.0
C213 C 0.68976 0.28613 0.46698 0.0
C214 C 0.70474 0.3488 0.42882 0.0
C215 C 0.67395 0.34363 0.45228 0.0
C216 C 0.72746 0.32272 0.42399 0.0
C217 C 0.8111 0.15382 0.39893 0.0
C218 C 0.82959 0.12993 0.4574 0.0
C219 C 0.86861 0.12996 0.40244 0.0
C220 C 0.84348 0.14591 0.38199 0.0
C221 C 0.86171 0.12132 0.44024 0.0
C222 C 0.80458 0.14613 0.43701 0.0
C223 C 0.78385 0.16804 0.37574 0.0
O224 O 0.68786 0.20808 0.35491 0.0
O225 O 0.73009 0.24161 0.32489 0.0
O226 O 0.79335 0.19877 0.36113 0.0
O227 O 0.75028 0.16396 0.38844 0.0
H228 H 0.73206 0.18016 0.28255 0.0
H229 H 0.70979 0.14883 0.22601 0.0
H230 H 0.61249 0.19991 0.23289 0.0
H231 H 0.63554 0.23178 0.28833 0.0
H232 H 0.64384 0.30764 0.49051 0.0
H233 H 0.6834 0.26204 0.48201 0.0
H234 H 0.71084 0.37272 0.41343 0.0
H235 H 0.7505 0.32739 0.40507 0.0
H236 H 0.82374 0.12404 0.48662 0.0
H237 H 0.89294 0.12341 0.38832 0.0
H238 H 0.849 0.15144 0.35262 0.0
H239 H 0.77992 0.1521 0.4509 0.0
C240 C 0.29046 0.6332 0.16589 0.0
C241 C 0.25826 0.64809 0.17304 0.0
C242 C 0.22665 0.61017 0.12627 0.0
C243 C 0.22678 0.63677 0.1534 0.0
C244 C 0.25907 0.59582 0.11866 0.0
C245 C 0.29048 0.60707 0.13833 0.0
U246 U 0.37642 0.6931 0.19324 0.0
O247 O 0.39805 0.70686 0.24905 0.0
O248 O 0.42974 0.67872 0.2092 0.0
C249 C 0.42649 0.69004 0.2438 0.0
C250 C 0.3232 0.64262 0.1887 0.0
C251 C 0.4342 0.66589 0.27382 0.0
C252 C 0.41521 0.6295 0.32752 0.0
C253 C 0.40683 0.65069 0.29805 0.0
C254 C 0.47822 0.63735 0.30835 0.0
C255 C 0.45108 0.62278 0.33327 0.0
C256 C 0.46986 0.65872 0.27907 0.0
C257 C 0.39818 0.77866 0.13651 0.0
C258 C 0.45095 0.82148 0.14154 0.0
C259 C 0.40193 0.83233 0.1012 0.0
C260 C 0.38329 0.80031 0.11123 0.0
C261 C 0.43598 0.84348 0.11629 0.0
C262 C 0.43221 0.78936 0.15158 0.0
C263 C 0.37734 0.74529 0.14646 0.0
O264 O 0.35456 0.64182 0.17142 0.0
O265 O 0.32277 0.66917 0.21186 0.0
O266 O 0.36024 0.74419 0.17902 0.0
O267 O 0.3927 0.71708 0.13896 0.0
H268 H 0.25705 0.66799 0.19437 0.0
H269 H 0.20224 0.6481 0.16039 0.0
H270 H 0.26017 0.57564 0.09762 0.0
H271 H 0.3147 0.59483 0.13235 0.0
H272 H 0.39358 0.61839 0.34587 0.0
H273 H 0.37901 0.65548 0.29452 0.0
H274 H 0.50616 0.63309 0.31213 0.0
H275 H 0.49144 0.67015 0.26082 0.0
H276 H 0.47728 0.82896 0.1534 0.0
H277 H 0.38924 0.84866 0.0822 0.0
H278 H 0.35699 0.79253 0.09936 0.0
H279 H 0.4442 0.77296 0.17107 0.0
C280 C 0.16379 0.28415 0.64342 0.0
C281 C 0.17042 0.27147 0.60736 0.0
C282 C 0.12563 0.22127 0.61717 0.0
C283 C 0.15172 0.24049 0.59442 0.0
C284 C 0.11904 0.234 0.65356 0.0
C285 C 0.13794 0.26522 0.66657 0.0
U286 U 0.18915 0.3688 0.70385 0.0
O287 O 0.13668 0.38418 0.72268 0.0
O288 O 0.16852 0.35675 0.76125 0.0
C289 C 0.14004 0.37344 0.75715 0.0
C290 C 0.18524 0.31665 0.65561 0.0
C291 C 0.1316 0.39746 0.78806 0.0
C292 C 0.11268 0.40562 0.85313 0.0
C293 C 0.12401 0.38433 0.82424 0.0
C294 C 0.11684 0.45392 0.81042 0.0
C295 C 0.10831 0.44057 0.84645 0.0
C296 C 0.12842 0.43269 0.78162 0.0
C297 C 0.27637 0.42607 0.67249 0.0
C298 C 0.34112 0.44402 0.66679 0.0
C299 C 0.30474 0.43805 0.61112 0.0
C300 C 0.27392 0.42793 0.63328 0.0
C301 C 0.33879 0.4465 0.62757 0.0
C302 C 0.31032 0.43407 0.68889 0.0
C303 C 0.24398 0.41767 0.69704 0.0
O304 O 0.20188 0.31647 0.68779 0.0
O305 O 0.17145 0.34575 0.64955 0.0
O306 O 0.21225 0.41953 0.68206 0.0
O307 O 0.2443 0.39083 0.71916 0.0
H308 H 0.19047 0.2855 0.58913 0.0
H309 H 0.15821 0.23136 0.56662 0.0
H310 H 0.09899 0.22008 0.67181 0.0
H311 H 0.13241 0.27452 0.69457 0.0
H312 H 0.1061 0.39434 0.88037 0.0
H313 H 0.126 0.35725 0.82998 0.0
H314 H 0.1143 0.48082 0.80437 0.0
H315 H 0.13418 0.44376 0.75414 0.0
H316 H 0.36684 0.4496 0.68054 0.0
H317 H 0.30167 0.43995 0.58113 0.0
H318 H 0.24813 0.42202 0.6197 0.0
H319 H 0.313 0.43289 0.71902 0.0
Dy320 Dy 0.03627 0.03945 0.48788 0.0
C321 C 0.99645 0.99436 0.63638 0.0
C322 C 0.04857 0.06065 0.41579 0.0
Dy323 Dy 1.0069 1.01648 0.56436 0.0
O324 O 0.07281 0.05146 0.43808 0.0
O325 O 1.01727 0.05815 0.43276 0.0
O326 O 0.09233 0.03274 0.50605 0.0
O327 O 0.04845 0.99968 0.52718 0.0
C328 C 0.0821 1.00785 0.52921 0.0
C329 C 0.96085 0.04673 0.52223 0.0
O330 O 0.04486 0.06439 0.57889 0.0
O331 O 0.049 0.08912 0.52 0.0
O332 O 0.97826 1.01656 0.62037 0.0
O333 O 0.02052 0.98448 0.61318 0.0
O334 O 0.95064 1.02193 0.54562 0.0
O335 O 0.99434 0.0557 0.52472 0.0
O336 O 1.0015 0.98975 0.47254 0.0
O337 O 0.98962 0.96768 0.53228 0.0
C338 C 0.05471 0.09113 0.55658 0.0
C339 C 0.98779 0.96448 0.49528 0.0
Dy340 Dy 0.54528 0.0425 0.06385 0.0
C341 C 0.46539 0.97405 0.9376 0.0
C342 C 0.58745 0.08596 0.10953 0.0
Dy343 Dy 0.50177 1.01044 0.99353 0.0
O344 O 0.58936 0.05287 0.10585 0.0
O345 O 0.56246 0.09545 0.08811 0.0
O346 O 0.52874 0.99901 0.10482 0.0
O347 O 0.5104 0.99611 0.05045 0.0
C348 C 0.50935 0.97988 0.08084 0.0
C349 C 0.52923 0.07763 0.98901 0.0
O350 O 0.45744 0.02783 0.02911 0.0
O351 O 0.49237 0.06496 0.0696 0.0
O352 O 0.49357 0.99667 0.93285 0.0
O353 O 0.45753 0.97065 0.9731 0.0
O354 O 0.49953 0.06477 0.9731 0.0
O355 O 0.54385 0.05359 1.00407 0.0
O356 O 0.58835 1.01963 0.03069 0.0
O357 O 0.55231 0.98415 0.98952 0.0
C358 C 0.46078 0.0525 0.05521 0.0
C359 C 0.58397 0.99458 1.00496 0.0
Dy360 Dy 0.53612 0.49591 0.50822 0.0
C361 C 0.4776 0.6078 0.58452 0.0
C362 C 0.57867 0.44926 0.47859 0.0
Dy363 Dy 0.51553 0.55866 0.55242 0.0
O364 O 0.54359 0.44415 0.48143 0.0
O365 O 0.59013 0.48 0.49102 0.0
O366 O 0.47819 0.4718 0.50864 0.0
O367 O 0.49763 0.50336 0.55363 0.0
C368 C 0.46967 0.48709 0.53968 0.0
C369 C 0.58178 0.56715 0.51994 0.0
O370 O 0.53246 0.52785 0.60066 0.0
O371 O 0.5625 0.49017 0.56415 0.0
O372 O 0.51259 0.60876 0.58413 0.0
O373 O 0.46334 0.57978 0.56782 0.0
O374 O 0.57385 0.58234 0.55115 0.0
O375 O 0.55345 0.55117 0.5067 0.0
O376 O 0.51709 0.52555 0.46002 0.0
O377 O 0.48847 0.5643 0.49686 0.0
C378 C 0.55447 0.50332 0.59736 0.0
C379 C 0.49552 0.55048 0.46364 0.0
Dy380 Dy 0.03239 0.4905 0.03992 0.0
C381 C 0.99842 0.62831 1.01298 0.0
C382 C 0.05091 0.42449 0.04188 0.0
Dy383 Dy 1.01658 0.56217 1.01516 0.0
O384 O 0.04074 0.4418 0.07076 0.0
O385 O 0.05013 0.44295 1.01191 0.0
O386 O 0.02465 0.50562 0.10025 0.0
O387 O 0.99469 0.52678 0.05877 0.0
C388 C 1.00225 0.52798 0.09317 0.0
C389 C 0.04659 0.52455 0.96191 0.0
O390 O 0.06812 0.57579 0.04709 0.0
O391 O 0.08596 0.52057 0.05143 0.0
O392 O 1.00839 0.61083 0.98415 0.0
O393 O 0.99913 0.60992 0.04302 0.0
O394 O 0.02414 0.54687 0.95485 0.0
O395 O 0.05425 0.52593 0.99629 0.0
O396 O 0.98077 0.47684 1.00819 0.0
O397 O 0.9629 0.53206 1.00394 0.0
C398 C 0.09206 0.55462 0.0565 0.0
C399 C 0.95676 0.49798 0.99894 0.0
C400 C 0.03753 0.09994 0.32077 0.0
C401 C 0.07319 0.10254 0.30649 0.0
H402 H 1.00164 0.08433 0.36674 0.0
C403 C 0.10012 0.09009 0.32804 0.0
H404 H 1.01613 0.109 0.30467 0.0
C405 C 0.09177 0.07587 0.36323 0.0
C406 C 0.05636 0.07385 0.37771 0.0
H407 H 0.12795 0.09223 0.3182 0.0
H408 H 0.11326 0.06702 0.3794 0.0
C409 C 0.02918 0.08567 0.35612 0.0
C410 C 0.38828 0.92369 0.88592 0.0
C411 C 0.39437 0.93643 0.84937 0.0
H412 H 0.40619 0.92577 0.94281 0.0
C413 C 0.4254 0.95952 0.84168 0.0
H414 H 0.36452 0.9059 0.89256 0.0
C415 C 0.44935 0.9705 0.87018 0.0
C416 C 0.44251 0.95889 0.907 0.0
H417 H 0.431 0.96933 0.81362 0.0
H418 H 0.47262 0.98893 0.86358 0.0
C419 C 0.41207 0.93503 0.91459 0.0
C420 C 0.60291 0.44567 0.66023 0.0
C421 C 0.58707 0.45109 0.69555 0.0
H422 H 0.60524 0.45782 0.60182 0.0
C423 C 0.56197 0.47554 0.69865 0.0
H424 H 0.62207 0.42684 0.65668 0.0
C425 C 0.55233 0.49347 0.66711 0.0
C426 C 0.56731 0.48717 0.63158 0.0
H427 H 0.54955 0.48066 0.72549 0.0
H428 H 0.53238 0.51156 0.67044 0.0
C429 C 0.59308 0.46336 0.62868 0.0
C430 C 0.98159 0.56841 0.18736 0.0
C431 C 0.9554 0.5903 0.17837 0.0
H432 H 1.01697 0.53205 0.16761 0.0
C433 C 0.9444 0.59121 0.14084 0.0
H434 H 0.99111 0.56733 0.21577 0.0
C435 C 0.95916 0.57072 0.11315 0.0
C436 C 0.98569 0.54927 0.12222 0.0
H437 H 0.92405 0.60748 0.13292 0.0
H438 H 0.94975 0.57165 0.08469 0.0
C439 C 0.99659 0.54828 0.15966 0.0
C440 C 0.39628 0.10188 0.1125 0.0
C441 C 0.36374 0.09364 0.09329 0.0
H442 H 0.45257 0.09558 0.1155 0.0
C443 C 0.36352 0.07214 0.06139 0.0
H444 H 0.3973 0.11859 0.13705 0.0
C445 C 0.395 0.05884 0.04917 0.0
C446 C 0.42758 0.06692 0.06839 0.0
H447 H 0.33877 0.06497 0.04628 0.0
H448 H 0.39371 0.04218 0.02457 0.0
C449 C 0.42794 0.0888 0.10007 0.0
C450 C 0.11799 0.93289 0.57811 0.0
C451 C 0.15538 0.94001 0.57125 0.0
H452 H 0.06537 0.94862 0.5698 0.0
C453 C 0.16845 0.97051 0.55219 0.0
H454 H 0.10713 0.90948 0.59255 0.0
C455 C 0.14464 0.99306 0.53959 0.0
C456 C 0.10722 0.98543 0.54546 0.0
H457 H 0.19716 0.97693 0.54696 0.0
H458 H 0.15553 1.01615 0.5246 0.0
C459 C 0.09411 0.95529 0.56513 0.0
C460 C 0.88104 0.43376 0.9606 0.0
C461 C 0.85537 0.45577 0.9504 0.0
H462 H 0.93295 0.42961 0.98404 0.0
C463 C 0.86323 0.49163 0.95688 0.0
H464 H 0.87576 0.40597 0.95636 0.0
C465 C 0.89589 0.50515 0.97292 0.0
C466 C 0.92168 0.48322 0.98291 0.0
H467 H 0.84444 0.50947 0.94884 0.0
H468 H 0.90099 0.53297 0.9771 0.0
C469 C 0.91379 0.4473 0.97668 0.0
C470 C 0.67475 0.60942 0.48973 0.0
C471 C 0.67872 0.5953 0.45355 0.0
H472 H 0.64126 0.61148 0.53909 0.0
C473 C 0.65091 0.57079 0.44025 0.0
H474 H 0.69528 0.62861 0.50087 0.0
C475 C 0.6198 0.5613 0.46206 0.0
C476 C 0.61571 0.57583 0.49789 0.0
H477 H 0.65314 0.55876 0.41293 0.0
H478 H 0.59875 0.54278 0.45065 0.0
C479 C 0.64367 0.59974 0.51164 0.0
C480 C 0.08554 0.34469 0.08056 0.0
C481 C 0.10223 0.33136 0.04875 0.0
H482 H 0.05601 0.38455 0.1032 0.0
C483 C 0.09986 0.34781 1.01413 0.0
H484 H 0.08728 0.33289 0.10774 0.0
C485 C 0.08189 0.37743 1.01158 0.0
C486 C 0.06617 0.39118 0.04365 0.0
H487 H 0.11215 0.33795 0.98909 0.0
H488 H 0.08114 0.39006 0.98472 0.0
C489 C 0.06773 0.37432 0.07803 0.0
C490 C 0.60027 0.15597 0.98481 0.0
C491 C 0.58328 0.17908 0.96269 0.0
H492 H 0.59655 0.10589 1.01061 0.0
C493 C 0.54775 0.16889 0.95095 0.0
H494 H 0.62773 0.16271 0.99408 0.0
C495 C 0.53 0.1363 0.96039 0.0
C496 C 0.54731 0.11302 0.98173 0.0
H497 H 0.53356 0.18613 0.93447 0.0
H498 H 0.50281 0.12915 0.95049 0.0
C499 C 0.58249 0.12332 0.99422 0.0
C500 C 0.95058 0.89464 0.42535 0.0
C501 C 0.93703 0.86738 0.44923 0.0
H502 H 0.97688 0.94668 0.42092 0.0
C503 C 0.94122 0.87223 0.48812 0.0
H504 H 0.94763 0.89196 0.3953 0.0
C505 C 0.95772 0.90355 0.50279 0.0
C506 C 0.9707 0.93108 0.47908 0.0
H507 H 0.9318 0.85167 0.50741 0.0
H508 H 0.96019 0.9061 0.53291 0.0
C509 C 0.96716 0.92613 0.4401 0.0
C510 C 0.45669 0.69336 0.62602 0.0
C511 C 0.41884 0.69078 0.62317 0.0
H512 H 0.50485 0.669 0.61633 0.0
C513 C 0.40038 0.66001 0.60868 0.0
H514 H 0.47168 0.71644 0.63769 0.0
C515 C 0.41944 0.63274 0.59666 0.0
C516 C 0.45727 0.63568 0.59906 0.0
H517 H 0.37128 0.65728 0.60592 0.0
H518 H 0.4046 0.60955 0.58506 0.0
C519 C 0.47569 0.6661 0.6141 0.0
C520 C 0.95329 0.97787 0.73186 0.0
C521 C 0.96932 0.94872 0.74349 0.0
H522 H 0.94944 1.01522 0.68876 0.0
C523 C 0.99598 0.93611 0.72037 0.0
H524 H 0.93319 0.98866 0.74928 0.0
C525 C 1.00564 0.95171 0.68602 0.0
C526 C 0.98866 0.98002 0.674 0.0
H527 H 1.00857 0.91348 0.7282 0.0
H528 H 0.02563 0.94095 0.66839 0.0
C529 C 0.96276 0.99326 0.69736 0.0
C530 C 0.6228 0.16512 0.16599 0.0
C531 C 0.64388 0.15065 0.19278 0.0
H532 H 0.58839 0.15591 0.11851 0.0
C533 C 0.64812 0.11515 0.1901 0.0
H534 H 0.61948 0.19248 0.16682 0.0
C535 C 0.63069 0.0944 0.16217 0.0
C536 C 0.60848 0.10865 0.13651 0.0
H537 H 0.66374 0.10301 0.21047 0.0
H538 H 0.63368 0.06695 0.16146 0.0
C539 C 0.60516 0.14427 0.13821 0.0
C540 C 0.48591 0.57791 0.36246 0.0
C541 C 0.46047 0.60201 0.36603 0.0
H542 H 0.51652 0.54234 0.39013 0.0
C543 C 0.44511 0.60724 0.40162 0.0
H544 H 0.498 0.57295 0.33541 0.0
C545 C 0.45573 0.58974 0.43297 0.0
C546 C 0.48181 0.56629 0.42961 0.0
H547 H 0.42572 0.6258 0.40555 0.0
H548 H 0.44391 0.59516 0.46003 0.0
C549 C 0.49632 0.56013 0.39382 0.0
C550 C 0.10444 0.4615 0.91381 0.0
C551 C 0.09334 0.46257 0.87632 0.0
H552 H 0.09925 0.48088 0.97007 0.0
C553 C 0.06709 0.48446 0.86755 0.0
H554 H 0.12483 0.4452 0.92156 0.0
C555 C 0.05214 0.50444 0.89539 0.0
C556 C 0.06315 0.50333 0.93279 0.0
H557 H 0.05749 0.48566 0.83917 0.0
H558 H 0.03171 0.52067 0.88758 0.0
C559 C 0.08974 0.48188 0.94165 0.0
C560 C 0.64603 0.94324 0.94698 0.0
C561 C 0.67903 0.95087 0.96551 0.0
H562 H 0.59005 0.95076 0.945 0.0
C563 C 0.68014 0.97184 0.99788 0.0
H564 H 0.6443 0.92689 0.92215 0.0
C565 C 0.64916 0.98559 1.01093 0.0
C566 C 0.61627 0.97853 0.99204 0.0
H567 H 0.70525 0.97848 1.01253 0.0
H568 H 0.65118 1.0021 0.03563 0.0
C569 C 0.61493 0.9568 0.96019 0.0
C570 C 0.92489 0.11192 0.45842 0.0
C571 C 0.88735 0.10239 0.46132 0.0
H572 H 0.97759 0.10202 0.47578 0.0
C573 C 0.87439 0.07421 0.48414 0.0
H574 H 0.93569 0.13366 0.44128 0.0
C575 C 0.89836 0.05598 0.5036 0.0
C576 C 0.93579 0.06567 0.5009 0.0
H577 H 0.84569 0.0659 0.48655 0.0
H578 H 0.88752 0.03432 0.52086 0.0
C579 C 0.94886 0.09384 0.47817 0.0
C580 C 0.18457 0.56049 0.10074 0.0
C581 C 0.19257 0.59635 0.1072 0.0
H582 H 0.14702 0.51934 0.07982 0.0
C583 C 0.16739 0.61854 0.09611 0.0
H584 H 0.20294 0.54252 0.10945 0.0
C585 C 0.13496 0.60517 0.07924 0.0
C586 C 0.12693 0.56926 0.0731 0.0
H587 H 0.1728 0.64633 0.10028 0.0
H588 H 0.11615 0.62298 0.07126 0.0
C589 C 0.15226 0.54716 0.0839 0.0
C590 C 0.39849 0.48355 0.61742 0.0
C591 C 0.37172 0.45795 0.60414 0.0
H592 H 0.45012 0.51285 0.60754 0.0
C593 C 0.377 0.44314 0.56854 0.0
H594 H 0.3952 0.49613 0.64428 0.0
C595 C 0.40838 0.45318 0.54722 0.0
C596 C 0.43535 0.47814 0.561 0.0
H597 H 0.35731 0.42313 0.55743 0.0
H598 H 0.41182 0.44085 0.52023 0.0
C599 C 0.42991 0.49343 0.59619 0.0
C600 C 0.95025 0.7055 0.04064 0.0
C601 C 0.94749 0.72164 1.00589 0.0
H602 H 0.96911 0.66342 0.0702 0.0
C603 C 0.96388 0.70805 0.97404 0.0
H604 H 0.93822 0.71557 0.06571 0.0
C605 C 0.98165 0.67839 0.97665 0.0
C606 C 0.98343 0.66175 1.01113 0.0
H607 H 0.96185 0.71959 0.94677 0.0
H608 H 0.99306 0.66792 0.95144 0.0
C609 C 0.96814 0.67585 0.04325 0.0
C610 C 0.47377 0.89898 0.13416 0.0
C611 C 0.45517 0.87829 0.10655 0.0
H612 H 0.50507 0.94708 0.14758 0.0
C613 C 0.45444 0.89154 0.06993 0.0
H614 H 0.47448 0.89003 0.16275 0.0
C615 C 0.47185 0.92459 0.06129 0.0
C616 C 0.49028 0.94509 0.08906 0.0
H617 H 0.44074 0.87622 0.0478 0.0
H618 H 0.4711 0.93396 0.03291 0.0
C619 C 0.49109 0.93188 0.12551 0.0
C620 C 0.09802 0.1589 0.62554 0.0
C621 C 0.10578 0.18818 0.60256 0.0
H622 H 0.07611 0.10537 0.62925 0.0
C623 C 0.09554 0.1853 0.56476 0.0
H624 H 0.10573 0.15995 0.65468 0.0
C625 C 0.07893 0.15399 0.55012 0.0
C626 C 0.07177 0.12452 0.57283 0.0
H627 H 0.10031 0.20737 0.54629 0.0
H628 H 0.07175 0.15297 0.52082 0.0
C629 C 0.08122 0.12747 0.61087 0.0
C630 C 0.61153 0.36235 0.45713 0.0
C631 C 0.64928 0.371 0.4567 0.0
H632 H 0.55946 0.3805 0.46375 0.0
C633 C 0.6633 0.40597 0.46113 0.0
H634 H 0.59988 0.3357 0.45324 0.0
C635 C 0.64018 0.43153 0.46697 0.0
C636 C 0.60255 0.42271 0.4683 0.0
H637 H 0.69222 0.41347 0.46121 0.0
H638 H 0.65183 0.45812 0.47131 0.0
C639 C 0.58838 0.38799 0.46277 0.0
loop_
_geom_bond_atom_site_label_1
_geom_bond_atom_site_label_2
_geom_bond_distance
_geom_bond_site_symmetry_2
_ccdc_geom_bond_type
C0 C1 1.264 . S
C0 C5 1.479 . S
C0 C10 1.465 . S
C1 C0 1.264 . S
C1 C3 1.339 . S
C1 H28 0.931 . S
C2 C3 1.395 . S
C2 C4 1.320 . S
C3 C1 1.339 . S
C3 C2 1.395 . S
C3 H29 0.929 . S
C4 C2 1.320 . S
C4 C5 1.405 . S
C4 H30 0.930 . S
C5 C0 1.479 . S
C5 C4 1.405 . S
C5 H31 0.931 . S
U6 O7 2.454 . S
U6 O8 2.458 . S
U6 C9 2.984 . S
U6 C10 2.847 . S
U6 C23 2.882 . S
U6 O24 2.441 . S
U6 O25 2.420 . S
U6 O26 2.455 . S
U6 O27 2.449 . S
O7 U6 2.454 . S
O7 C9 1.353 . S
O8 U6 2.458 . S
O8 C9 1.286 . S
C9 U6 2.984 . S
C9 O7 1.353 . S
C9 O8 1.286 . S
C9 C11 1.363 . S
C10 C0 1.465 . S
C10 U6 2.847 . S
C10 O24 1.249 . S
C10 O25 1.202 . S
C11 C9 1.363 . S
C11 C13 1.408 . S
C11 C16 1.342 . S
C12 C13 1.310 . S
C12 C15 1.461 . S
C12 H32 0.932 . S
C13 C11 1.408 . S
C13 C12 1.310 . S
C13 H33 0.930 . S
C14 C15 1.474 . S
C14 C16 1.285 . S
C14 H34 0.929 . S
C15 C12 1.461 . S
C15 C14 1.474 . S
C16 C11 1.342 . S
C16 C14 1.285 . S
C16 H35 0.930 . S
C17 C20 1.424 . S
C17 C22 1.245 . S
C17 C23 1.428 . S
C18 C21 1.260 . S
C18 C22 1.477 . S
C18 H36 0.932 . S
C19 C20 1.384 . S
C19 C21 1.479 . S
C19 H37 0.929 . S
C20 C17 1.424 . S
C20 C19 1.384 . S
C20 H38 0.928 . S
C21 C18 1.260 . S
C21 C19 1.479 . S
C22 C17 1.245 . S
C22 C18 1.477 . S
C22 H39 0.932 . S
C23 U6 2.882 . S
C23 C17 1.428 . S
C23 O26 1.301 . S
C23 O27 1.282 . S
O24 U6 2.441 . S
O24 C10 1.249 . S
O25 U6 2.420 . S
O25 C10 1.202 . S
O26 U6 2.455 . S
O26 C23 1.301 . S
O27 U6 2.449 . S
O27 C23 1.282 . S
H28 C1 0.931 . S
H29 C3 0.929 . S
H30 C4 0.930 . S
H31 C5 0.931 . S
H32 C12 0.932 . S
H33 C13 0.930 . S
H34 C14 0.929 . S
H35 C16 0.930 . S
H36 C18 0.932 . S
H37 C19 0.929 . S
H38 C20 0.928 . S
H39 C22 0.932 . S
C40 C41 1.264 . S
C40 C45 1.479 . S
C40 C50 1.465 . S
C41 C40 1.264 . S
C41 C43 1.339 . S
C41 H68 0.931 . S
C42 C43 1.395 . S
C42 C44 1.320 . S
C43 C41 1.339 . S
C43 C42 1.395 . S
C43 H69 0.929 . S
C44 C42 1.320 . S
C44 C45 1.405 . S
C44 H70 0.930 . S
C45 C40 1.479 . S
C45 C44 1.405 . S
C45 H71 0.931 . S
U46 O47 2.454 . S
U46 O48 2.458 . S
U46 C49 2.984 . S
U46 C50 2.847 . S
U46 C63 2.882 . S
U46 O64 2.441 . S
U46 O65 2.420 . S
U46 O66 2.455 . S
U46 O67 2.449 . S
O47 U46 2.454 . S
O47 C49 1.353 . S
O48 U46 2.458 . S
O48 C49 1.286 . S
C49 U46 2.984 . S
C49 O47 1.353 . S
C49 O48 1.286 . S
C49 C51 1.363 . S
C50 C40 1.465 . S
C50 U46 2.847 . S
C50 O64 1.249 . S
C50 O65 1.202 . S
C51 C49 1.363 . S
C51 C53 1.408 . S
C51 C56 1.342 . S
C52 C53 1.310 . S
C52 C55 1.461 . S
C52 H72 0.932 . S
C53 C51 1.408 . S
C53 C52 1.310 . S
C53 H73 0.930 . S
C54 C55 1.474 . S
C54 C56 1.285 . S
C54 H74 0.929 . S
C55 C52 1.461 . S
C55 C54 1.474 . S
C56 C51 1.342 . S
C56 C54 1.285 . S
C56 H75 0.930 . S
C57 C60 1.424 . S
C57 C62 1.245 . S
C57 C63 1.428 . S
C58 C61 1.260 . S
C58 C62 1.477 . S
C58 H76 0.932 . S
C59 C60 1.384 . S
C59 C61 1.479 . S
C59 H77 0.929 . S
C60 C57 1.424 . S
C60 C59 1.384 . S
C60 H78 0.928 . S
C61 C58 1.260 . S
C61 C59 1.479 . S
C62 C57 1.245 . S
C62 C58 1.477 . S
C62 H79 0.932 . S
C63 U46 2.882 . S
C63 C57 1.428 . S
C63 O66 1.301 . S
C63 O67 1.282 . S
O64 U46 2.441 . S
O64 C50 1.249 . S
O65 U46 2.420 . S
O65 C50 1.202 . S
O66 U46 2.455 . S
O66 C63 1.301 . S
O67 U46 2.449 . S
O67 C63 1.282 . S
H68 C41 0.931 . S
H69 C43 0.929 . S
H70 C44 0.930 . S
H71 C45 0.931 . S
H72 C52 0.932 . S
H73 C53 0.930 . S
H74 C54 0.929 . S
H75 C56 0.930 . S
H76 C58 0.932 . S
H77 C59 0.929 . S
H78 C60 0.928 . S
H79 C62 0.932 . S
C80 C81 1.264 . S
C80 C85 1.479 . S
C80 C90 1.465 . S
C81 C80 1.264 . S
C81 C83 1.339 . S
C81 H108 0.931 . S
C82 C83 1.395 . S
C82 C84 1.320 . S
C83 C81 1.339 . S
C83 C82 1.395 . S
C83 H109 0.929 . S
C84 C82 1.320 . S
C84 C85 1.405 . S
C84 H110 0.930 . S
C85 C80 1.479 . S
C85 C84 1.405 . S
C85 H111 0.931 . S
U86 O87 2.454 . S
U86 O88 2.458 . S
U86 C89 2.984 . S
U86 C90 2.847 . S
U86 C103 2.882 . S
U86 O104 2.441 . S
U86 O105 2.420 . S
U86 O106 2.455 . S
U86 O107 2.449 . S
O87 U86 2.454 . S
O87 C89 1.353 . S
O88 U86 2.458 . S
O88 C89 1.286 . S
C89 U86 2.984 . S
C89 O87 1.353 . S
C89 O88 1.286 . S
C89 C91 1.363 . S
C90 C80 1.465 . S
C90 U86 2.847 . S
C90 O104 1.249 . S
C90 O105 1.202 . S
C91 C89 1.363 . S
C91 C93 1.408 . S
C91 C96 1.342 . S
C92 C93 1.310 . S
C92 C95 1.461 . S
C92 H112 0.932 . S
C93 C91 1.408 . S
C93 C92 1.310 . S
C93 H113 0.930 . S
C94 C95 1.474 . S
C94 C96 1.285 . S
C94 H114 0.929 . S
C95 C92 1.461 . S
C95 C94 1.474 . S
C96 C91 1.342 . S
C96 C94 1.285 . S
C96 H115 0.930 . S
C97 C100 1.424 . S
C97 C102 1.245 . S
C97 C103 1.428 . S
C98 C101 1.260 . S
C98 C102 1.477 . S
C98 H116 0.932 . S
C99 C100 1.384 . S
C99 C101 1.479 . S
C99 H117 0.929 . S
C100 C97 1.424 . S
C100 C99 1.384 . S
C100 H118 0.928 . S
C101 C98 1.260 . S
C101 C99 1.479 . S
C102 C97 1.245 . S
C102 C98 1.477 . S
C102 H119 0.932 . S
C103 U86 2.882 . S
C103 C97 1.428 . S
C103 O106 1.301 . S
C103 O107 1.282 . S
O104 U86 2.441 . S
O104 C90 1.249 . S
O105 U86 2.420 . S
O105 C90 1.202 . S
O106 U86 2.455 . S
O106 C103 1.301 . S
O107 U86 2.449 . S
O107 C103 1.282 . S
H108 C81 0.931 . S
H109 C83 0.929 . S
H110 C84 0.930 . S
H111 C85 0.931 . S
H112 C92 0.932 . S
H113 C93 0.930 . S
H114 C94 0.929 . S
H115 C96 0.930 . S
H116 C98 0.932 . S
H117 C99 0.929 . S
H118 C100 0.928 . S
H119 C102 0.932 . S
C120 C121 1.264 . S
C120 C125 1.479 . S
C120 C130 1.465 . S
C121 C120 1.264 . S
C121 C123 1.339 . S
C121 H148 0.931 . S
C122 C123 1.395 . S
C122 C124 1.320 . S
C123 C121 1.339 . S
C123 C122 1.395 . S
C123 H149 0.929 . S
C124 C122 1.320 . S
C124 C125 1.405 . S
C124 H150 0.930 . S
C125 C120 1.479 . S
C125 C124 1.405 . S
C125 H151 0.931 . S
U126 O127 2.454 . S
U126 O128 2.458 . S
U126 C129 2.984 . S
U126 C130 2.847 . S
U126 C143 2.882 . S
U126 O144 2.441 . S
U126 O145 2.420 . S
U126 O146 2.455 . S
U126 O147 2.449 . S
O127 U126 2.454 . S
O127 C129 1.353 . S
O128 U126 2.458 . S
O128 C129 1.286 . S
C129 U126 2.984 . S
C129 O127 1.353 . S
C129 O128 1.286 . S
C129 C131 1.363 . S
C130 C120 1.465 . S
C130 U126 2.847 . S
C130 O144 1.249 . S
C130 O145 1.202 . S
C131 C129 1.363 . S
C131 C133 1.408 . S
C131 C136 1.342 . S
C132 C133 1.310 . S
C132 C135 1.461 . S
C132 H152 0.932 . S
C133 C131 1.408 . S
C133 C132 1.310 . S
C133 H153 0.930 . S
C134 C135 1.474 . S
C134 C136 1.285 . S
C134 H154 0.929 . S
C135 C132 1.461 . S
C135 C134 1.474 . S
C136 C131 1.342 . S
C136 C134 1.285 . S
C136 H155 0.930 . S
C137 C140 1.424 . S
C137 C142 1.245 . S
C137 C143 1.428 . S
C138 C141 1.260 . S
C138 C142 1.477 . S
C138 H156 0.932 . S
C139 C140 1.384 . S
C139 C141 1.479 . S
C139 H157 0.929 . S
C140 C137 1.424 . S
C140 C139 1.384 . S
C140 H158 0.928 . S
C141 C138 1.260 . S
C141 C139 1.479 . S
C142 C137 1.245 . S
C142 C138 1.477 . S
C142 H159 0.932 . S
C143 U126 2.882 . S
C143 C137 1.428 . S
C143 O146 1.301 . S
C143 O147 1.282 . S
O144 U126 2.441 . S
O144 C130 1.249 . S
O145 U126 2.420 . S
O145 C130 1.202 . S
O146 U126 2.455 . S
O146 C143 1.301 . S
O147 U126 2.449 . S
O147 C143 1.282 . S
H148 C121 0.931 . S
H149 C123 0.929 . S
H150 C124 0.930 . S
H151 C125 0.931 . S
H152 C132 0.932 . S
H153 C133 0.930 . S
H154 C134 0.929 . S
H155 C136 0.930 . S
H156 C138 0.932 . S
H157 C139 0.929 . S
H158 C140 0.928 . S
H159 C142 0.932 . S
C160 C161 1.264 . S
C160 C165 1.479 . S
C160 C170 1.465 . S
C161 C160 1.264 . S
C161 C163 1.339 . S
C161 H188 0.931 . S
C162 C163 1.395 . S
C162 C164 1.320 . S
C163 C161 1.339 . S
C163 C162 1.395 . S
C163 H189 0.929 . S
C164 C162 1.320 . S
C164 C165 1.405 . S
C164 H190 0.930 . S
C165 C160 1.479 . S
C165 C164 1.405 . S
C165 H191 0.931 . S
U166 O167 2.454 . S
U166 O168 2.458 . S
U166 C169 2.984 . S
U166 C170 2.847 . S
U166 C183 2.882 . S
U166 O184 2.441 . S
U166 O185 2.420 . S
U166 O186 2.455 . S
U166 O187 2.449 . S
O167 U166 2.454 . S
O167 C169 1.353 . S
O168 U166 2.458 . S
O168 C169 1.286 . S
C169 U166 2.984 . S
C169 O167 1.353 . S
C169 O168 1.286 . S
C169 C171 1.363 . S
C170 C160 1.465 . S
C170 U166 2.847 . S
C170 O184 1.249 . S
C170 O185 1.202 . S
C171 C169 1.363 . S
C171 C173 1.408 . S
C171 C176 1.342 . S
C172 C173 1.310 . S
C172 C175 1.461 . S
C172 H192 0.932 . S
C173 C171 1.408 . S
C173 C172 1.310 . S
C173 H193 0.930 . S
C174 C175 1.474 . S
C174 C176 1.285 . S
C174 H194 0.929 . S
C175 C172 1.461 . S
C175 C174 1.474 . S
C176 C171 1.342 . S
C176 C174 1.285 . S
C176 H195 0.930 . S
C177 C180 1.424 . S
C177 C182 1.245 . S
C177 C183 1.428 . S
C178 C181 1.260 . S
C178 C182 1.477 . S
C178 H196 0.932 . S
C179 C180 1.384 . S
C179 C181 1.479 . S
C179 H197 0.929 . S
C180 C177 1.424 . S
C180 C179 1.384 . S
C180 H198 0.928 . S
C181 C178 1.260 . S
C181 C179 1.479 . S
C182 C177 1.245 . S
C182 C178 1.477 . S
C182 H199 0.932 . S
C183 U166 2.882 . S
C183 C177 1.428 . S
C183 O186 1.301 . S
C183 O187 1.282 . S
O184 U166 2.441 . S
O184 C170 1.249 . S
O185 U166 2.420 . S
O185 C170 1.202 . S
O186 U166 2.455 . S
O186 C183 1.301 . S
O187 U166 2.449 . S
O187 C183 1.282 . S
H188 C161 0.931 . S
H189 C163 0.929 . S
H190 C164 0.930 . S
H191 C165 0.931 . S
H192 C172 0.932 . S
H193 C173 0.930 . S
H194 C174 0.929 . S
H195 C176 0.930 . S
H196 C178 0.932 . S
H197 C179 0.929 . S
H198 C180 0.928 . S
H199 C182 0.932 . S
C200 C201 1.264 . S
C200 C205 1.479 . S
C200 C210 1.465 . S
C201 C200 1.264 . S
C201 C203 1.339 . S
C201 H228 0.931 . S
C202 C203 1.395 . S
C202 C204 1.320 . S
C203 C201 1.339 . S
C203 C202 1.395 . S
C203 H229 0.929 . S
C204 C202 1.320 . S
C204 C205 1.405 . S
C204 H230 0.930 . S
C205 C200 1.479 . S
C205 C204 1.405 . S
C205 H231 0.931 . S
U206 O207 2.454 . S
U206 O208 2.458 . S
U206 C209 2.984 . S
U206 C210 2.847 . S
U206 C223 2.882 . S
U206 O224 2.441 . S
U206 O225 2.420 . S
U206 O226 2.455 . S
U206 O227 2.449 . S
O207 U206 2.454 . S
O207 C209 1.353 . S
O208 U206 2.458 . S
O208 C209 1.286 . S
C209 U206 2.984 . S
C209 O207 1.353 . S
C209 O208 1.286 . S
C209 C211 1.363 . S
C210 C200 1.465 . S
C210 U206 2.847 . S
C210 O224 1.249 . S
C210 O225 1.202 . S
C211 C209 1.363 . S
C211 C213 1.408 . S
C211 C216 1.342 . S
C212 C213 1.310 . S
C212 C215 1.461 . S
C212 H232 0.932 . S
C213 C211 1.408 . S
C213 C212 1.310 . S
C213 H233 0.930 . S
C214 C215 1.474 . S
C214 C216 1.285 . S
C214 H234 0.929 . S
C215 C212 1.461 . S
C215 C214 1.474 . S
C216 C211 1.342 . S
C216 C214 1.285 . S
C216 H235 0.930 . S
C217 C220 1.424 . S
C217 C222 1.245 . S
C217 C223 1.428 . S
C218 C221 1.260 . S
C218 C222 1.477 . S
C218 H236 0.932 . S
C219 C220 1.384 . S
C219 C221 1.479 . S
C219 H237 0.929 . S
C220 C217 1.424 . S
C220 C219 1.384 . S
C220 H238 0.928 . S
C221 C218 1.260 . S
C221 C219 1.479 . S
C222 C217 1.245 . S
C222 C218 1.477 . S
C222 H239 0.932 . S
C223 U206 2.882 . S
C223 C217 1.428 . S
C223 O226 1.301 . S
C223 O227 1.282 . S
O224 U206 2.441 . S
O224 C210 1.249 . S
O225 U206 2.420 . S
O225 C210 1.202 . S
O226 U206 2.455 . S
O226 C223 1.301 . S
O227 U206 2.449 . S
O227 C223 1.282 . S
H228 C201 0.931 . S
H229 C203 0.929 . S
H230 C204 0.930 . S
H231 C205 0.931 . S
H232 C212 0.932 . S
H233 C213 0.930 . S
H234 C214 0.929 . S
H235 C216 0.930 . S
H236 C218 0.932 . S
H237 C219 0.929 . S
H238 C220 0.928 . S
H239 C222 0.932 . S
C240 C241 1.264 . S
C240 C245 1.479 . S
C240 C250 1.465 . S
C241 C240 1.264 . S
C241 C243 1.339 . S
C241 H268 0.931 . S
C242 C243 1.395 . S
C242 C244 1.320 . S
C243 C241 1.339 . S
C243 C242 1.395 . S
C243 H269 0.929 . S
C244 C242 1.320 . S
C244 C245 1.405 . S
C244 H270 0.930 . S
C245 C240 1.479 . S
C245 C244 1.405 . S
C245 H271 0.931 . S
U246 O247 2.454 . S
U246 O248 2.458 . S
U246 C249 2.984 . S
U246 C250 2.847 . S
U246 C263 2.882 . S
U246 O264 2.441 . S
U246 O265 2.420 . S
U246 O266 2.455 . S
U246 O267 2.449 . S
O247 U246 2.454 . S
O247 C249 1.353 . S
O248 U246 2.458 . S
O248 C249 1.286 . S
C249 U246 2.984 . S
C249 O247 1.353 . S
C249 O248 1.286 . S
C249 C251 1.363 . S
C250 C240 1.465 . S
C250 U246 2.847 . S
C250 O264 1.249 . S
C250 O265 1.202 . S
C251 C249 1.363 . S
C251 C253 1.408 . S
C251 C256 1.342 . S
C252 C253 1.310 . S
C252 C255 1.461 . S
C252 H272 0.932 . S
C253 C251 1.408 . S
C253 C252 1.310 . S
C253 H273 0.930 . S
C254 C255 1.474 . S
C254 C256 1.285 . S
C254 H274 0.929 . S
C255 C252 1.461 . S
C255 C254 1.474 . S
C256 C251 1.342 . S
C256 C254 1.285 . S
C256 H275 0.930 . S
C257 C260 1.424 . S
C257 C262 1.245 . S
C257 C263 1.428 . S
C258 C261 1.260 . S
C258 C262 1.477 . S
C258 H276 0.932 . S
C259 C260 1.384 . S
C259 C261 1.479 . S
C259 H277 0.929 . S
C260 C257 1.424 . S
C260 C259 1.384 . S
C260 H278 0.928 . S
C261 C258 1.260 . S
C261 C259 1.479 . S
C262 C257 1.245 . S
C262 C258 1.477 . S
C262 H279 0.932 . S
C263 U246 2.882 . S
C263 C257 1.428 . S
C263 O266 1.301 . S
C263 O267 1.282 . S
O264 U246 2.441 . S
O264 C250 1.249 . S
O265 U246 2.420 . S
O265 C250 1.202 . S
O266 U246 2.455 . S
O266 C263 1.301 . S
O267 U246 2.449 . S
O267 C263 1.282 . S
H268 C241 0.931 . S
H269 C243 0.929 . S
H270 C244 0.930 . S
H271 C245 0.931 . S
H272 C252 0.932 . S
H273 C253 0.930 . S
H274 C254 0.929 . S
H275 C256 0.930 . S
H276 C258 0.932 . S
H277 C259 0.929 . S
H278 C260 0.928 . S
H279 C262 0.932 . S
C280 C281 1.264 . S
C280 C285 1.479 . S
C280 C290 1.465 . S
C281 C280 1.264 . S
C281 C283 1.339 . S
C281 H308 0.931 . S
C282 C283 1.395 . S
C282 C284 1.320 . S
C283 C281 1.339 . S
C283 C282 1.395 . S
C283 H309 0.929 . S
C284 C282 1.320 . S
C284 C285 1.405 . S
C284 H310 0.930 . S
C285 C280 1.479 . S
C285 C284 1.405 . S
C285 H311 0.931 . S
U286 O287 2.454 . S
U286 O288 2.458 . S
U286 C289 2.984 . S
U286 C290 2.847 . S
U286 C303 2.882 . S
U286 O304 2.441 . S
U286 O305 2.420 . S
U286 O306 2.455 . S
U286 O307 2.449 . S
O287 U286 2.454 . S
O287 C289 1.353 . S
O288 U286 2.458 . S
O288 C289 1.286 . S
C289 U286 2.984 . S
C289 O287 1.353 . S
C289 O288 1.286 . S
C289 C291 1.363 . S
C290 C280 1.465 . S
C290 U286 2.847 . S
C290 O304 1.249 . S
C290 O305 1.202 . S
C291 C289 1.363 . S
C291 C293 1.408 . S
C291 C296 1.342 . S
C292 C293 1.310 . S
C292 C295 1.461 . S
C292 H312 0.932 . S
C293 C291 1.408 . S
C293 C292 1.310 . S
C293 H313 0.930 . S
C294 C295 1.474 . S
C294 C296 1.285 . S
C294 H314 0.929 . S
C295 C292 1.461 . S
C295 C294 1.474 . S
C296 C291 1.342 . S
C296 C294 1.285 . S
C296 H315 0.930 . S
C297 C300 1.424 . S
C297 C302 1.245 . S
C297 C303 1.428 . S
C298 C301 1.260 . S
C298 C302 1.477 . S
C298 H316 0.932 . S
C299 C300 1.384 . S
C299 C301 1.479 . S
C299 H317 0.929 . S
C300 C297 1.424 . S
C300 C299 1.384 . S
C300 H318 0.928 . S
C301 C298 1.260 . S
C301 C299 1.479 . S
C302 C297 1.245 . S
C302 C298 1.477 . S
C302 H319 0.932 . S
C303 U286 2.882 . S
C303 C297 1.428 . S
C303 O306 1.301 . S
C303 O307 1.282 . S
O304 U286 2.441 . S
O304 C290 1.249 . S
O305 U286 2.420 . S
O305 C290 1.202 . S
O306 U286 2.455 . S
O306 C303 1.301 . S
O307 U286 2.449 . S
O307 C303 1.282 . S
H308 C281 0.931 . S
H309 C283 0.929 . S
H310 C284 0.930 . S
H311 C285 0.931 . S
H312 C292 0.932 . S
H313 C293 0.930 . S
H314 C294 0.929 . S
H315 C296 0.930 . S
H316 C298 0.932 . S
H317 C299 0.929 . S
H318 C300 0.928 . S
H319 C302 0.932 . S
Dy320 O324 2.398 . S
Dy320 O325 2.491 . S
Dy320 O326 2.403 1_545 S
Dy320 O327 2.664 1_545 S
Dy320 O331 2.326 . S
Dy320 O335 2.310 1_455 S
Dy320 O336 2.351 1_445 S
C321 O332 1.185 . S
C321 O333 1.355 . S
C322 O324 1.185 . S
C322 O325 1.355 . S
Dy323 O327 2.310 1_655 S
Dy323 O330 2.351 1_665 S
Dy323 O332 2.398 . S
Dy323 O333 2.491 . S
Dy323 O334 2.403 1_565 S
Dy323 O335 2.664 1_565 S
Dy323 O337 2.326 . S
O324 Dy320 2.398 . S
O324 C322 1.185 . S
O325 Dy320 2.491 . S
O325 C322 1.355 . S
O326 Dy320 2.403 1_565 S
O326 C328 1.254 . S
O327 Dy320 2.664 1_565 S
O327 Dy323 2.310 1_455 S
O327 C328 1.268 . S
C328 O326 1.254 . S
C328 O327 1.268 . S
C329 O334 1.254 . S
C329 O335 1.268 . S
O330 Dy323 2.351 1_445 S
O330 C338 1.249 . S
O331 Dy320 2.326 . S
O331 C338 1.267 . S
O332 C321 1.185 . S
O332 Dy323 2.398 . S
O333 C321 1.355 . S
O333 Dy323 2.491 . S
O334 Dy323 2.403 1_545 S
O334 C329 1.254 . S
O335 Dy320 2.310 1_655 S
O335 Dy323 2.664 1_545 S
O335 C329 1.268 . S
O336 Dy320 2.351 1_665 S
O336 C339 1.249 . S
O337 Dy323 2.326 . S
O337 C339 1.267 . S
C338 O330 1.249 . S
C338 O331 1.267 . S
C339 O336 1.249 . S
C339 O337 1.267 . S
Dy340 O344 2.398 . S
Dy340 O345 2.491 . S
Dy340 O346 2.403 1_545 S
Dy340 O347 2.664 1_545 S
Dy340 O351 2.326 . S
Dy340 O355 2.287 1_554 S
Dy340 O356 2.351 1_544 S
C341 O352 1.185 . S
C341 O353 1.355 . S
C342 O344 1.185 . S
C342 O345 1.355 . S
Dy343 O347 2.310 1_546 S
Dy343 O350 2.351 1_556 S
Dy343 O352 2.398 1_545 S
Dy343 O353 2.491 1_545 S
Dy343 O354 2.403 . S
Dy343 O355 2.678 . S
Dy343 O357 2.326 1_545 S
O344 Dy340 2.398 . S
O344 C342 1.185 . S
O345 Dy340 2.491 . S
O345 C342 1.355 . S
O346 Dy340 2.403 1_565 S
O346 C348 1.254 . S
O347 Dy340 2.664 1_565 S
O347 Dy343 2.310 1_564 S
O347 C348 1.268 . S
C348 O346 1.254 . S
C348 O347 1.268 . S
C349 O354 1.254 . S
C349 O355 1.291 . S
O350 Dy343 2.351 1_554 S
O350 C358 1.249 . S
O351 Dy340 2.326 . S
O351 C358 1.267 . S
O352 C341 1.185 . S
O352 Dy343 2.398 1_565 S
O353 C341 1.355 . S
O353 Dy343 2.491 1_565 S
O354 Dy343 2.403 . S
O354 C349 1.254 . S
O355 Dy340 2.287 1_556 S
O355 Dy343 2.678 . S
O355 C349 1.291 . S
O356 Dy340 2.351 1_566 S
O356 C359 1.249 . S
O357 Dy343 2.326 1_565 S
O357 C359 1.267 . S
C358 O350 1.249 . S
C358 O351 1.267 . S
C359 O356 1.249 . S
C359 O357 1.267 . S
Dy360 O364 2.398 . S
Dy360 O365 2.491 . S
Dy360 O366 2.403 . S
Dy360 O367 2.664 . S
Dy360 O371 2.326 . S
Dy360 O375 2.310 . S
Dy360 O376 2.351 . S
C361 O372 1.185 . S
C361 O373 1.355 . S
C362 O364 1.185 . S
C362 O365 1.355 . S
Dy363 O367 2.310 . S
Dy363 O370 2.351 . S
Dy363 O372 2.398 . S
Dy363 O373 2.491 . S
Dy363 O374 2.403 . S
Dy363 O375 2.664 . S
Dy363 O377 2.326 . S
O364 Dy360 2.398 . S
O364 C362 1.185 . S
O365 Dy360 2.491 . S
O365 C362 1.355 . S
O366 Dy360 2.403 . S
O366 C368 1.254 . S
O367 Dy360 2.664 . S
O367 Dy363 2.310 . S
O367 C368 1.268 . S
C368 O366 1.254 . S
C368 O367 1.268 . S
C369 O374 1.254 . S
C369 O375 1.268 . S
O370 Dy363 2.351 . S
O370 C378 1.249 . S
O371 Dy360 2.326 . S
O371 C378 1.267 . S
O372 C361 1.185 . S
O372 Dy363 2.398 . S
O373 C361 1.355 . S
O373 Dy363 2.491 . S
O374 Dy363 2.403 . S
O374 C369 1.254 . S
O375 Dy360 2.310 . S
O375 Dy363 2.664 . S
O375 C369 1.268 . S
O376 Dy360 2.351 . S
O376 C379 1.249 . S
O377 Dy363 2.326 . S
O377 C379 1.267 . S
C378 O370 1.249 . S
C378 O371 1.267 . S
C379 O376 1.249 . S
C379 O377 1.267 . S
Dy380 O384 2.398 . S
Dy380 O385 2.491 . S
Dy380 O386 2.403 1_455 S
Dy380 O387 2.664 1_455 S
Dy380 O391 2.326 . S
Dy380 O395 2.310 1_554 S
Dy380 O396 2.341 1_454 S
C381 O392 1.185 . S
C381 O393 1.355 . S
C382 O384 1.185 . S
C382 O385 1.355 . S
Dy383 O387 2.310 1_556 S
Dy383 O390 2.350 1_656 S
Dy383 O392 2.398 . S
Dy383 O393 2.492 . S
Dy383 O394 2.403 1_655 S
Dy383 O395 2.664 1_655 S
Dy383 O397 2.327 . S
O384 Dy380 2.398 . S
O384 C382 1.185 . S
O385 Dy380 2.491 . S
O385 C382 1.355 . S
O386 Dy380 2.403 1_655 S
O386 C388 1.254 . S
O387 Dy380 2.664 1_655 S
O387 Dy383 2.310 1_554 S
O387 C388 1.268 . S
C388 O386 1.254 . S
C388 O387 1.268 . S
C389 O394 1.254 . S
C389 O395 1.268 . S
O390 Dy383 2.350 1_454 S
O390 C398 1.249 . S
O391 Dy380 2.326 . S
O391 C398 1.267 . S
O392 C381 1.185 . S
O392 Dy383 2.398 . S
O393 C381 1.355 . S
O393 Dy383 2.492 . S
O394 Dy383 2.403 1_455 S
O394 C389 1.254 . S
O395 Dy380 2.310 1_556 S
O395 Dy383 2.664 1_455 S
O395 C389 1.268 . S
O396 Dy380 2.341 1_656 S
O396 C399 1.263 . S
O397 Dy383 2.327 . S
O397 C399 1.267 . S
C398 O390 1.249 . S
C398 O391 1.267 . S
C399 O396 1.263 . S
C399 O397 1.267 . S
C400 C401 1.387 . S
C400 H404 0.950 . S
C400 C409 1.390 . S
C401 C400 1.387 . S
C401 C403 1.387 . S
H402 C409 0.950 . S
C403 C401 1.387 . S
C403 C405 1.390 . S
C403 H407 0.950 . S
H404 C400 0.950 . S
C405 C403 1.390 . S
C405 C406 1.387 . S
C405 H408 0.950 . S
C406 C405 1.387 . S
C406 C409 1.387 . S
H407 C403 0.950 . S
H408 C405 0.950 . S
C409 C400 1.390 . S
C409 H402 0.950 . S
C409 C406 1.387 . S
C410 C411 1.387 . S
C410 H414 0.950 . S
C410 C419 1.390 . S
C411 C410 1.387 . S
C411 C413 1.387 . S
H412 C419 0.950 . S
C413 C411 1.387 . S
C413 C415 1.390 . S
C413 H417 0.950 . S
H414 C410 0.950 . S
C415 C413 1.390 . S
C415 C416 1.387 . S
C415 H418 0.937 1_565 S
C416 C415 1.387 . S
C416 C419 1.387 . S
H417 C413 0.950 . S
H418 C415 0.937 1_545 S
C419 C410 1.390 . S
C419 H412 0.950 . S
C419 C416 1.387 . S
C420 C421 1.387 . S
C420 H424 0.950 . S
C420 C429 1.390 . S
C421 C420 1.387 . S
C421 C423 1.387 . S
H422 C429 0.950 . S
C423 C421 1.387 . S
C423 C425 1.390 . S
C423 H427 0.950 . S
H424 C420 0.950 . S
C425 C423 1.390 . S
C425 C426 1.387 . S
C425 H428 0.950 . S
C426 C425 1.387 . S
C426 C429 1.387 . S
H427 C423 0.950 . S
H428 C425 0.950 . S
C429 C420 1.390 . S
C429 H422 0.950 . S
C429 C426 1.387 . S
C430 C431 1.387 . S
C430 H434 0.950 . S
C430 C439 1.390 . S
C431 C430 1.387 . S
C431 C433 1.387 . S
H432 C439 0.950 . S
C433 C431 1.387 . S
C433 C435 1.390 . S
C433 H437 0.950 . S
H434 C430 0.950 . S
C435 C433 1.390 . S
C435 C436 1.387 . S
C435 H438 0.950 . S
C436 C435 1.387 . S
C436 C439 1.387 . S
H437 C433 0.950 . S
H438 C435 0.950 . S
C439 C430 1.390 . S
C439 H432 0.950 . S
C439 C436 1.387 . S
C440 C441 1.387 . S
C440 H444 0.950 . S
C440 C449 1.390 . S
C441 C440 1.387 . S
C441 C443 1.387 . S
H442 C449 0.950 . S
C443 C441 1.387 . S
C443 C445 1.390 . S
C443 H447 0.950 . S
H444 C440 0.950 . S
C445 C443 1.390 . S
C445 C446 1.387 . S
C445 H448 0.950 . S
C446 C445 1.387 . S
C446 C449 1.387 . S
H447 C443 0.950 . S
H448 C445 0.950 . S
C449 C440 1.390 . S
C449 H442 0.950 . S
C449 C446 1.387 . S
C450 C451 1.387 . S
C450 H454 0.950 . S
C450 C459 1.390 . S
C451 C450 1.387 . S
C451 C453 1.387 . S
H452 C459 0.950 . S
C453 C451 1.387 . S
C453 C455 1.390 . S
C453 H457 0.950 . S
H454 C450 0.950 . S
C455 C453 1.390 . S
C455 C456 1.387 . S
C455 H458 0.950 . S
C456 C455 1.387 . S
C456 C459 1.387 . S
H457 C453 0.950 . S
H458 C455 0.950 . S
C459 C450 1.390 . S
C459 H452 0.950 . S
C459 C456 1.387 . S
C460 C461 1.387 . S
C460 H464 0.950 . S
C460 C469 1.390 . S
C461 C460 1.387 . S
C461 C463 1.387 . S
H462 C469 0.950 1_554 S
C463 C461 1.387 . S
C463 C465 1.390 . S
C463 H467 0.950 . S
H464 C460 0.950 . S
C465 C463 1.390 . S
C465 C466 1.387 . S
C465 H468 0.950 . S
C466 C465 1.387 . S
C466 C469 1.387 . S
H467 C463 0.950 . S
H468 C465 0.950 . S
C469 C460 1.390 . S
C469 H462 0.950 1_556 S
C469 C466 1.387 . S
C470 C471 1.387 . S
C470 H474 0.950 . S
C470 C479 1.390 . S
C471 C470 1.387 . S
C471 C473 1.387 . S
H472 C479 0.950 . S
C473 C471 1.387 . S
C473 C475 1.390 . S
C473 H477 0.950 . S
H474 C470 0.950 . S
C475 C473 1.390 . S
C475 C476 1.387 . S
C475 H478 0.950 . S
C476 C475 1.387 . S
C476 C479 1.387 . S
H477 C473 0.950 . S
H478 C475 0.950 . S
C479 C470 1.390 . S
C479 H472 0.950 . S
C479 C476 1.387 . S
C480 C481 1.387 . S
C480 H484 0.950 . S
C480 C489 1.390 . S
C481 C480 1.387 . S
C481 C483 1.387 . S
H482 C489 0.950 . S
C483 C481 1.387 . S
C483 C485 1.390 . S
C483 H487 0.950 . S
H484 C480 0.950 . S
C485 C483 1.390 . S
C485 C486 1.387 . S
C485 H488 0.950 . S
C486 C485 1.387 . S
C486 C489 1.387 . S
H487 C483 0.950 . S
H488 C485 0.950 . S
C489 C480 1.390 . S
C489 H482 0.950 . S
C489 C486 1.387 . S
C490 C491 1.387 . S
C490 H494 0.950 . S
C490 C499 1.390 . S
C491 C490 1.387 . S
C491 C493 1.387 . S
H492 C499 0.950 . S
C493 C491 1.387 . S
C493 C495 1.390 . S
C493 H497 0.950 . S
H494 C490 0.950 . S
C495 C493 1.390 . S
C495 C496 1.387 . S
C495 H498 0.950 . S
C496 C495 1.387 . S
C496 C499 1.387 . S
H497 C493 0.950 . S
H498 C495 0.950 . S
C499 C490 1.390 . S
C499 H492 0.950 . S
C499 C496 1.387 . S
C500 C501 1.387 . S
C500 H504 0.950 . S
C500 C509 1.390 . S
C501 C500 1.387 . S
C501 C503 1.387 . S
H502 C509 0.950 . S
C503 C501 1.387 . S
C503 C505 1.390 . S
C503 H507 0.950 . S
H504 C500 0.950 . S
C505 C503 1.390 . S
C505 C506 1.387 . S
C505 H508 0.950 . S
C506 C505 1.387 . S
C506 C509 1.387 . S
H507 C503 0.950 . S
H508 C505 0.950 . S
C509 C500 1.390 . S
C509 H502 0.950 . S
C509 C506 1.387 . S
C510 C511 1.387 . S
C510 H514 0.950 . S
C510 C519 1.390 . S
C511 C510 1.387 . S
C511 C513 1.387 . S
H512 C519 0.950 . S
C513 C511 1.387 . S
C513 C515 1.390 . S
C513 H517 0.950 . S
H514 C510 0.950 . S
C515 C513 1.390 . S
C515 C516 1.387 . S
C515 H518 0.950 . S
C516 C515 1.387 . S
C516 C519 1.387 . S
H517 C513 0.950 . S
H518 C515 0.950 . S
C519 C510 1.390 . S
C519 H512 0.950 . S
C519 C516 1.387 . S
C520 C521 1.387 . S
C520 H524 0.950 . S
C520 C529 1.390 . S
C521 C520 1.387 . S
C521 C523 1.387 . S
H522 C529 0.950 . S
C523 C521 1.387 . S
C523 C525 1.390 . S
C523 H527 0.950 . S
H524 C520 0.950 . S
C525 C523 1.390 . S
C525 C526 1.387 . S
C525 H528 0.950 . S
C526 C525 1.387 . S
C526 C529 1.387 . S
H527 C523 0.950 . S
H528 C525 0.950 . S
C529 C520 1.390 . S
C529 H522 0.950 . S
C529 C526 1.387 . S
C530 C531 1.387 . S
C530 H534 0.950 . S
C530 C539 1.390 . S
C531 C530 1.387 . S
C531 C533 1.387 . S
H532 C539 0.950 . S
C533 C531 1.387 . S
C533 C535 1.390 . S
C533 H537 0.950 . S
H534 C530 0.950 . S
C535 C533 1.390 . S
C535 C536 1.387 . S
C535 H538 0.950 . S
C536 C535 1.387 . S
C536 C539 1.387 . S
H537 C533 0.950 . S
H538 C535 0.950 . S
C539 C530 1.390 . S
C539 H532 0.950 . S
C539 C536 1.387 . S
C540 C541 1.387 . S
C540 H544 0.950 . S
C540 C549 1.390 . S
C541 C540 1.387 . S
C541 C543 1.387 . S
H542 C549 0.950 . S
C543 C541 1.387 . S
C543 C545 1.390 . S
C543 H547 0.950 . S
H544 C540 0.950 . S
C545 C543 1.390 . S
C545 C546 1.387 . S
C545 H548 0.950 . S
C546 C545 1.387 . S
C546 C549 1.387 . S
H547 C543 0.950 . S
H548 C545 0.950 . S
C549 C540 1.390 . S
C549 H542 0.950 . S
C549 C546 1.387 . S
C550 C551 1.387 . S
C550 H554 0.950 . S
C550 C559 1.390 . S
C551 C550 1.387 . S
C551 C553 1.387 . S
H552 C559 0.950 . S
C553 C551 1.387 . S
C553 C555 1.390 . S
C553 H557 0.950 . S
H554 C550 0.950 . S
C555 C553 1.390 . S
C555 C556 1.387 . S
C555 H558 0.950 . S
C556 C555 1.387 . S
C556 C559 1.387 . S
H557 C553 0.950 . S
H558 C555 0.950 . S
C559 C550 1.390 . S
C559 H552 0.950 . S
C559 C556 1.387 . S
C560 C561 1.387 . S
C560 H564 0.950 . S
C560 C569 1.390 . S
C561 C560 1.387 . S
C561 C563 1.387 . S
H562 C569 0.950 . S
C563 C561 1.387 . S
C563 C565 1.390 . S
C563 H567 0.950 . S
H564 C560 0.950 . S
C565 C563 1.390 . S
C565 C566 1.387 . S
C565 H568 0.950 . S
C566 C565 1.387 . S
C566 C569 1.387 . S
H567 C563 0.950 . S
H568 C565 0.950 . S
C569 C560 1.390 . S
C569 H562 0.950 . S
C569 C566 1.387 . S
C570 C571 1.387 . S
C570 H574 0.950 . S
C570 C579 1.390 . S
C571 C570 1.387 . S
C571 C573 1.387 . S
H572 C579 0.950 . S
C573 C571 1.387 . S
C573 C575 1.390 . S
C573 H577 0.950 . S
H574 C570 0.950 . S
C575 C573 1.390 . S
C575 C576 1.387 . S
C575 H578 0.950 . S
C576 C575 1.387 . S
C576 C579 1.387 . S
H577 C573 0.950 . S
H578 C575 0.950 . S
C579 C570 1.390 . S
C579 H572 0.950 . S
C579 C576 1.387 . S
C580 C581 1.387 . S
C580 H584 0.950 . S
C580 C589 1.390 . S
C581 C580 1.387 . S
C581 C583 1.387 . S
H582 C589 0.950 . S
C583 C581 1.387 . S
C583 C585 1.390 . S
C583 H587 0.950 . S
H584 C580 0.950 . S
C585 C583 1.390 . S
C585 C586 1.387 . S
C585 H588 0.950 . S
C586 C585 1.387 . S
C586 C589 1.387 . S
H587 C583 0.950 . S
H588 C585 0.950 . S
C589 C580 1.390 . S
C589 H582 0.950 . S
C589 C586 1.387 . S
C590 C591 1.387 . S
C590 H594 0.950 . S
C590 C599 1.390 . S
C591 C590 1.387 . S
C591 C593 1.387 . S
H592 C599 0.950 . S
C593 C591 1.387 . S
C593 C595 1.390 . S
C593 H597 0.950 . S
H594 C590 0.950 . S
C595 C593 1.390 . S
C595 C596 1.387 . S
C595 H598 0.950 . S
C596 C595 1.387 . S
C596 C599 1.387 . S
H597 C593 0.950 . S
H598 C595 0.950 . S
C599 C590 1.390 . S
C599 H592 0.950 . S
C599 C596 1.387 . S
C600 C601 1.387 . S
C600 H604 0.950 . S
C600 C609 1.390 . S
C601 C600 1.387 . S
C601 C603 1.387 . S
H602 C609 0.950 . S
C603 C601 1.387 . S
C603 C605 1.390 . S
C603 H607 0.950 . S
H604 C600 0.950 . S
C605 C603 1.390 . S
C605 C606 1.387 . S
C605 H608 0.950 . S
C606 C605 1.387 . S
C606 C609 1.387 . S
H607 C603 0.950 . S
H608 C605 0.950 . S
C609 C600 1.390 . S
C609 H602 0.950 . S
C609 C606 1.387 . S
C610 C611 1.387 . S
C610 H614 0.950 . S
C610 C619 1.390 . S
C611 C610 1.387 . S
C611 C613 1.387 . S
H612 C619 0.950 . S
C613 C611 1.387 . S
C613 C615 1.390 . S
C613 H617 0.950 . S
H614 C610 0.950 . S
C615 C613 1.390 . S
C615 C616 1.387 . S
C615 H618 0.950 . S
C616 C615 1.387 . S
C616 C619 1.387 . S
H617 C613 0.950 . S
H618 C615 0.950 . S
C619 C610 1.390 . S
C619 H612 0.950 . S
C619 C616 1.387 . S
C620 C621 1.387 . S
C620 H624 0.950 . S
C620 C629 1.390 . S
C621 C620 1.387 . S
C621 C623 1.387 . S
H622 C629 0.950 . S
C623 C621 1.387 . S
C623 C625 1.390 . S
C623 H627 0.950 . S
H624 C620 0.950 . S
C625 C623 1.390 . S
C625 C626 1.387 . S
C625 H628 0.950 . S
C626 C625 1.387 . S
C626 C629 1.387 . S
H627 C623 0.950 . S
H628 C625 0.950 . S
C629 C620 1.390 . S
C629 H622 0.950 . S
C629 C626 1.387 . S
C630 C631 1.387 . S
C630 H634 0.950 . S
C630 C639 1.390 . S
C631 C630 1.387 . S
C631 C633 1.387 . S
H632 C639 0.950 . S
C633 C631 1.387 . S
C633 C635 1.390 . S
C633 H637 0.950 . S
H634 C630 0.950 . S
C635 C633 1.390 . S
C635 C636 1.387 . S
C635 H638 0.950 . S
C636 C635 1.387 . S
C636 C639 1.387 . S
H637 C633 0.950 . S
H638 C635 0.950 . S
C639 C630 1.390 . S
C639 H632 0.950 . S
C639 C636 1.387 . S
C401 C21 1.550 . S
C406 C322 1.710 . S
C411 C61 1.376 . S
C416 C341 1.371 . S
C426 C378 1.702 . S
C421 C82 1.733 . S
C431 C135 1.758 . S
C436 C388 1.693 . S
C446 C358 2.140 . S
C441 C15 2.028 . S
C456 C328 1.436 . S
C451 C42 1.498 . S
C466 C399 1.519 . S
C461 C101 1.533 . S
C476 C369 1.428 . S
C471 C122 1.453 . S
C481 C2 1.739 . S
C486 C382 1.891 . S
C496 C349 1.652 . S
C491 C95 1.708 . S
C501 C141 1.791 . S
C506 C339 1.790 . S
C511 C55 1.291 . S
C516 C361 1.322 . S
C526 C321 1.724 . S
C521 C181 1.708 . S
C531 C202 1.346 . S
C536 C342 1.355 . S
C541 C255 1.757 . S
C546 C379 1.722 . S
C551 C295 1.738 . S
C556 C389 1.671 . S
C561 C175 2.022 . S
C566 C359 2.121 . S
C576 C329 1.458 . S
C571 C221 1.507 . S
C586 C398 1.468 . S
C581 C242 1.490 . S
C596 C368 1.485 . S
C591 C301 1.514 . S
C601 C162 1.842 . S
C606 C381 1.873 . S
C616 C348 1.680 . S
C611 C261 1.724 . S
C626 C338 1.772 . S
C621 C282 1.767 . S
C631 C215 1.330 . S
C636 C362 1.366 . S
