# Generated by pormake.
# Topology gar, (4,6)-cn, num edge types: 1
# Building blocks:
#     Node 0, Type 0, BuildingBlock: NAHDIM_clean_sbu_0, # of connection points: 4
#     Node 1, Type 0, BuildingBlock: NAHDIM_clean_sbu_0, # of connection points: 4
#     Node 2, Type 0, BuildingBlock: NAHDIM_clean_sbu_0, # of connection points: 4
#     Node 3, Type 0, BuildingBlock: NAHDIM_clean_sbu_0, # of connection points: 4
#     Node 4, Type 0, BuildingBlock: NAHDIM_clean_sbu_0, # of connection points: 4
#     Node 5, Type 0, BuildingBlock: NAHDIM_clean_sbu_0, # of connection points: 4
#     Node 6, Type 0, BuildingBlock: NAHDIM_clean_sbu_0, # of connection points: 4
#     Node 7, Type 0, BuildingBlock: NAHDIM_clean_sbu_0, # of connection points: 4
#     Node 8, Type 0, BuildingBlock: NAHDIM_clean_sbu_0, # of connection points: 4
#     Node 9, Type 0, BuildingBlock: NAHDIM_clean_sbu_0, # of connection points: 4
#     Node 10, Type 0, BuildingBlock: NAHDIM_clean_sbu_0, # of connection points: 4
#     Node 11, Type 0, BuildingBlock: NAHDIM_clean_sbu_0, # of connection points: 4
#     Node 12, Type 0, BuildingBlock: NAHDIM_clean_sbu_0, # of connection points: 4
#     Node 13, Type 0, BuildingBlock: NAHDIM_clean_sbu_0, # of connection points: 4
#     Node 14, Type 0, BuildingBlock: NAHDIM_clean_sbu_0, # of connection points: 4
#     Node 15, Type 0, BuildingBlock: NAHDIM_clean_sbu_0, # of connection points: 4
#     Node 16, Type 0, BuildingBlock: NAHDIM_clean_sbu_0, # of connection points: 4
#     Node 17, Type 0, BuildingBlock: NAHDIM_clean_sbu_0, # of connection points: 4
#     Node 18, Type 0, BuildingBlock: NAHDIM_clean_sbu_0, # of connection points: 4
#     Node 19, Type 0, BuildingBlock: NAHDIM_clean_sbu_0, # of connection points: 4
#     Node 20, Type 0, BuildingBlock: NAHDIM_clean_sbu_0, # of connection points: 4
#     Node 21, Type 0, BuildingBlock: NAHDIM_clean_sbu_0, # of connection points: 4
#     Node 22, Type 0, BuildingBlock: NAHDIM_clean_sbu_0, # of connection points: 4
#     Node 23, Type 0, BuildingBlock: NAHDIM_clean_sbu_0, # of connection points: 4
#     Node 24, Type 1, BuildingBlock: KUMJIN_clean_sbu_1, # of connection points: 6
#     Node 25, Type 1, BuildingBlock: KUMJIN_clean_sbu_1, # of connection points: 6
#     Node 26, Type 1, BuildingBlock: KUMJIN_clean_sbu_1, # of connection points: 6
#     Node 27, Type 1, BuildingBlock: KUMJIN_clean_sbu_1, # of connection points: 6
#     Node 28, Type 1, BuildingBlock: KUMJIN_clean_sbu_1, # of connection points: 6
#     Node 29, Type 1, BuildingBlock: KUMJIN_clean_sbu_1, # of connection points: 6
#     Node 30, Type 1, BuildingBlock: KUMJIN_clean_sbu_1, # of connection points: 6
#     Node 31, Type 1, BuildingBlock: KUMJIN_clean_sbu_1, # of connection points: 6
#     Node 32, Type 1, BuildingBlock: KUMJIN_clean_sbu_1, # of connection points: 6
#     Node 33, Type 1, BuildingBlock: KUMJIN_clean_sbu_1, # of connection points: 6
#     Node 34, Type 1, BuildingBlock: KUMJIN_clean_sbu_1, # of connection points: 6
#     Node 35, Type 1, BuildingBlock: KUMJIN_clean_sbu_1, # of connection points: 6
#     Node 36, Type 1, BuildingBlock: KUMJIN_clean_sbu_1, # of connection points: 6
#     Node 37, Type 1, BuildingBlock: KUMJIN_clean_sbu_1, # of connection points: 6
#     Node 38, Type 1, BuildingBlock: KUMJIN_clean_sbu_1, # of connection points: 6
#     Node 39, Type 1, BuildingBlock: KUMJIN_clean_sbu_1, # of connection points: 6
#     Edge 40, Type (0, 1), BuildingBlock: XIVTED_clean_linker_0, # of connection points: 2
#     Edge 41, Type (0, 1), BuildingBlock: XIVTED_clean_linker_0, # of connection points: 2
#     Edge 42, Type (0, 1), BuildingBlock: XIVTED_clean_linker_0, # of connection points: 2
#     Edge 43, Type (0, 1), BuildingBlock: XIVTED_clean_linker_0, # of connection points: 2
#     Edge 44, Type (0, 1), BuildingBlock: XIVTED_clean_linker_0, # of connection points: 2
#     Edge 45, Type (0, 1), BuildingBlock: XIVTED_clean_linker_0, # of connection points: 2
#     Edge 46, Type (0, 1), BuildingBlock: XIVTED_clean_linker_0, # of connection points: 2
#     Edge 47, Type (0, 1), BuildingBlock: XIVTED_clean_linker_0, # of connection points: 2
#     Edge 48, Type (0, 1), BuildingBlock: XIVTED_clean_linker_0, # of connection points: 2
#     Edge 49, Type (0, 1), BuildingBlock: XIVTED_clean_linker_0, # of connection points: 2
#     Edge 50, Type (0, 1), BuildingBlock: XIVTED_clean_linker_0, # of connection points: 2
#     Edge 51, Type (0, 1), BuildingBlock: XIVTED_clean_linker_0, # of connection points: 2
#     Edge 52, Type (0, 1), BuildingBlock: XIVTED_clean_linker_0, # of connection points: 2
#     Edge 53, Type (0, 1), BuildingBlock: XIVTED_clean_linker_0, # of connection points: 2
#     Edge 54, Type (0, 1), BuildingBlock: XIVTED_clean_linker_0, # of connection points: 2
#     Edge 55, Type (0, 1), BuildingBlock: XIVTED_clean_linker_0, # of connection points: 2
#     Edge 56, Type (0, 1), BuildingBlock: XIVTED_clean_linker_0, # of connection points: 2
#     Edge 57, Type (0, 1), BuildingBlock: XIVTED_clean_linker_0, # of connection points: 2
#     Edge 58, Type (0, 1), BuildingBlock: XIVTED_clean_linker_0, # of connection points: 2
#     Edge 59, Type (0, 1), BuildingBlock: XIVTED_clean_linker_0, # of connection points: 2
#     Edge 60, Type (0, 1), BuildingBlock: XIVTED_clean_linker_0, # of connection points: 2
#     Edge 61, Type (0, 1), BuildingBlock: XIVTED_clean_linker_0, # of connection points: 2
#     Edge 62, Type (0, 1), BuildingBlock: XIVTED_clean_linker_0, # of connection points: 2
#     Edge 63, Type (0, 1), BuildingBlock: XIVTED_clean_linker_0, # of connection points: 2
#     Edge 64, Type (0, 1), BuildingBlock: XIVTED_clean_linker_0, # of connection points: 2
#     Edge 65, Type (0, 1), BuildingBlock: XIVTED_clean_linker_0, # of connection points: 2
#     Edge 66, Type (0, 1), BuildingBlock: XIVTED_clean_linker_0, # of connection points: 2
#     Edge 67, Type (0, 1), BuildingBlock: XIVTED_clean_linker_0, # of connection points: 2
#     Edge 68, Type (0, 1), BuildingBlock: XIVTED_clean_linker_0, # of connection points: 2
#     Edge 69, Type (0, 1), BuildingBlock: XIVTED_clean_linker_0, # of connection points: 2
#     Edge 70, Type (0, 1), BuildingBlock: XIVTED_clean_linker_0, # of connection points: 2
#     Edge 71, Type (0, 1), BuildingBlock: XIVTED_clean_linker_0, # of connection points: 2
#     Edge 72, Type (0, 1), BuildingBlock: XIVTED_clean_linker_0, # of connection points: 2
#     Edge 73, Type (0, 1), BuildingBlock: XIVTED_clean_linker_0, # of connection points: 2
#     Edge 74, Type (0, 1), BuildingBlock: XIVTED_clean_linker_0, # of connection points: 2
#     Edge 75, Type (0, 1), BuildingBlock: XIVTED_clean_linker_0, # of connection points: 2
#     Edge 76, Type (0, 1), BuildingBlock: XIVTED_clean_linker_0, # of connection points: 2
#     Edge 77, Type (0, 1), BuildingBlock: XIVTED_clean_linker_0, # of connection points: 2
#     Edge 78, Type (0, 1), BuildingBlock: XIVTED_clean_linker_0, # of connection points: 2
#     Edge 79, Type (0, 1), BuildingBlock: XIVTED_clean_linker_0, # of connection points: 2
#     Edge 80, Type (0, 1), BuildingBlock: XIVTED_clean_linker_0, # of connection points: 2
#     Edge 81, Type (0, 1), BuildingBlock: XIVTED_clean_linker_0, # of connection points: 2
#     Edge 82, Type (0, 1), BuildingBlock: XIVTED_clean_linker_0, # of connection points: 2
#     Edge 83, Type (0, 1), BuildingBlock: XIVTED_clean_linker_0, # of connection points: 2
#     Edge 84, Type (0, 1), BuildingBlock: XIVTED_clean_linker_0, # of connection points: 2
#     Edge 85, Type (0, 1), BuildingBlock: XIVTED_clean_linker_0, # of connection points: 2
#     Edge 86, Type (0, 1), BuildingBlock: XIVTED_clean_linker_0, # of connection points: 2
#     Edge 87, Type (0, 1), BuildingBlock: XIVTED_clean_linker_0, # of connection points: 2
#     Edge 88, Type (0, 1), BuildingBlock: XIVTED_clean_linker_0, # of connection points: 2
#     Edge 89, Type (0, 1), BuildingBlock: XIVTED_clean_linker_0, # of connection points: 2
#     Edge 90, Type (0, 1), BuildingBlock: XIVTED_clean_linker_0, # of connection points: 2
#     Edge 91, Type (0, 1), BuildingBlock: XIVTED_clean_linker_0, # of connection points: 2
#     Edge 92, Type (0, 1), BuildingBlock: XIVTED_clean_linker_0, # of connection points: 2
#     Edge 93, Type (0, 1), BuildingBlock: XIVTED_clean_linker_0, # of connection points: 2
#     Edge 94, Type (0, 1), BuildingBlock: XIVTED_clean_linker_0, # of connection points: 2
#     Edge 95, Type (0, 1), BuildingBlock: XIVTED_clean_linker_0, # of connection points: 2
#     Edge 96, Type (0, 1), BuildingBlock: XIVTED_clean_linker_0, # of connection points: 2
#     Edge 97, Type (0, 1), BuildingBlock: XIVTED_clean_linker_0, # of connection points: 2
#     Edge 98, Type (0, 1), BuildingBlock: XIVTED_clean_linker_0, # of connection points: 2
#     Edge 99, Type (0, 1), BuildingBlock: XIVTED_clean_linker_0, # of connection points: 2
#     Edge 100, Type (0, 1), BuildingBlock: XIVTED_clean_linker_0, # of connection points: 2
#     Edge 101, Type (0, 1), BuildingBlock: XIVTED_clean_linker_0, # of connection points: 2
#     Edge 102, Type (0, 1), BuildingBlock: XIVTED_clean_linker_0, # of connection points: 2
#     Edge 103, Type (0, 1), BuildingBlock: XIVTED_clean_linker_0, # of connection points: 2
#     Edge 104, Type (0, 1), BuildingBlock: XIVTED_clean_linker_0, # of connection points: 2
#     Edge 105, Type (0, 1), BuildingBlock: XIVTED_clean_linker_0, # of connection points: 2
#     Edge 106, Type (0, 1), BuildingBlock: XIVTED_clean_linker_0, # of connection points: 2
#     Edge 107, Type (0, 1), BuildingBlock: XIVTED_clean_linker_0, # of connection points: 2
#     Edge 108, Type (0, 1), BuildingBlock: XIVTED_clean_linker_0, # of connection points: 2
#     Edge 109, Type (0, 1), BuildingBlock: XIVTED_clean_linker_0, # of connection points: 2
#     Edge 110, Type (0, 1), BuildingBlock: XIVTED_clean_linker_0, # of connection points: 2
#     Edge 111, Type (0, 1), BuildingBlock: XIVTED_clean_linker_0, # of connection points: 2
#     Edge 112, Type (0, 1), BuildingBlock: XIVTED_clean_linker_0, # of connection points: 2
#     Edge 113, Type (0, 1), BuildingBlock: XIVTED_clean_linker_0, # of connection points: 2
#     Edge 114, Type (0, 1), BuildingBlock: XIVTED_clean_linker_0, # of connection points: 2
#     Edge 115, Type (0, 1), BuildingBlock: XIVTED_clean_linker_0, # of connection points: 2
#     Edge 116, Type (0, 1), BuildingBlock: XIVTED_clean_linker_0, # of connection points: 2
#     Edge 117, Type (0, 1), BuildingBlock: XIVTED_clean_linker_0, # of connection points: 2
#     Edge 118, Type (0, 1), BuildingBlock: XIVTED_clean_linker_0, # of connection points: 2
#     Edge 119, Type (0, 1), BuildingBlock: XIVTED_clean_linker_0, # of connection points: 2
#     Edge 120, Type (0, 1), BuildingBlock: XIVTED_clean_linker_0, # of connection points: 2
#     Edge 121, Type (0, 1), BuildingBlock: XIVTED_clean_linker_0, # of connection points: 2
#     Edge 122, Type (0, 1), BuildingBlock: XIVTED_clean_linker_0, # of connection points: 2
#     Edge 123, Type (0, 1), BuildingBlock: XIVTED_clean_linker_0, # of connection points: 2
#     Edge 124, Type (0, 1), BuildingBlock: XIVTED_clean_linker_0, # of connection points: 2
#     Edge 125, Type (0, 1), BuildingBlock: XIVTED_clean_linker_0, # of connection points: 2
#     Edge 126, Type (0, 1), BuildingBlock: XIVTED_clean_linker_0, # of connection points: 2
#     Edge 127, Type (0, 1), BuildingBlock: XIVTED_clean_linker_0, # of connection points: 2
#     Edge 128, Type (0, 1), BuildingBlock: XIVTED_clean_linker_0, # of connection points: 2
#     Edge 129, Type (0, 1), BuildingBlock: XIVTED_clean_linker_0, # of connection points: 2
#     Edge 130, Type (0, 1), BuildingBlock: XIVTED_clean_linker_0, # of connection points: 2
#     Edge 131, Type (0, 1), BuildingBlock: XIVTED_clean_linker_0, # of connection points: 2
#     Edge 132, Type (0, 1), BuildingBlock: XIVTED_clean_linker_0, # of connection points: 2
#     Edge 133, Type (0, 1), BuildingBlock: XIVTED_clean_linker_0, # of connection points: 2
#     Edge 134, Type (0, 1), BuildingBlock: XIVTED_clean_linker_0, # of connection points: 2
#     Edge 135, Type (0, 1), BuildingBlock: XIVTED_clean_linker_0, # of connection points: 2
# Relax obj value: 0.082
# Max RMSD: 0.198
# Mean RMSD: 0.134
data_MOF--net-gar--node1-NAHDIM_clean_sbu_0--node2-KUMJIN_clean_sbu_1--edge1-XIVTED_clean_linker_0
_symmetry_space_group_name_H-M    P1
_symmetry_Int_Tables_number       1
_symmetry_cell_setting            triclinic
loop_
_symmetry_equiv_pos_as_xyz
'x, y, z'
_cell_length_a     61.653467
_cell_length_b     60.737331
_cell_length_c     55.241209
_cell_angle_alpha  96.472016
_cell_angle_beta   96.704217
_cell_angle_gamma 101.95879
loop_
_atom_site_label
_atom_site_type_symbol
_atom_site_fract_x
_atom_site_fract_y
_atom_site_fract_z
_atom_type_partial_charge
C0 C 0.09526 0.31245 0.34244 0.0
O1 O 0.09836 0.31959 0.36619 0.0
O2 O 0.04453 0.28301 0.3704 0.0
Zn3 Zn 0.04656 0.31044 0.35147 0.0
O4 O 0.05402 0.34003 0.37796 0.0
C5 C 0.99529 0.2941 0.33478 0.0
O6 O 0.99793 0.27749 0.34734 0.0
O7 O 0.07495 0.3082 0.33109 0.0
C8 C 0.03949 0.35205 0.38108 0.0
O9 O 0.0199 0.34594 0.36716 0.0
C10 C 0.04026 0.28355 0.39244 0.0
O11 O 0.03618 0.30226 0.4035 0.0
O12 O 0.01299 0.30879 0.33226 0.0
C13 C 0.972 0.75389 0.71298 0.0
O14 O 0.9712 0.75425 0.68916 0.0
O15 O 0.01647 0.71546 0.68371 0.0
Zn16 Zn 0.01933 0.74813 0.7047 0.0
O17 O 0.01901 0.77248 0.68099 0.0
C18 C 0.0683 0.74698 0.71769 0.0
O19 O 0.06274 0.73309 0.69685 0.0
O20 O 0.99038 0.75079 0.7246 0.0
C21 C 0.03583 0.78873 0.68086 0.0
O22 O 0.05462 0.78925 0.69504 0.0
C23 C 0.01514 0.71143 0.66018 0.0
O24 O 0.01338 0.72808 0.64736 0.0
O25 O 0.05284 0.7558 0.72605 0.0
C26 C 0.59123 0.8021 0.83896 0.0
O27 O 0.58873 0.79189 0.85851 0.0
O28 O 0.5441 0.78437 0.87009 0.0
Zn29 Zn 0.54591 0.81183 0.85021 0.0
O30 O 0.55271 0.84275 0.87458 0.0
C31 C 0.49467 0.80014 0.84009 0.0
O32 O 0.49829 0.79172 0.86069 0.0
O33 O 0.5754 0.81164 0.8309 0.0
C34 C 0.53813 0.84903 0.8869 0.0
O35 O 0.51814 0.83567 0.8846 0.0
C36 C 0.54237 0.78529 0.89297 0.0
O37 O 0.5416 0.80478 0.90537 0.0
O38 O 0.51201 0.80863 0.83027 0.0
C39 C 0.47476 0.25594 0.21764 0.0
O40 O 0.47548 0.26308 0.19612 0.0
O41 O 0.51621 0.21494 0.18317 0.0
Zn42 Zn 0.52015 0.24709 0.20587 0.0
O43 O 0.51872 0.27297 0.18442 0.0
C44 C 0.56988 0.24697 0.21701 0.0
O45 O 0.56437 0.23405 0.19556 0.0
O46 O 0.49141 0.24781 0.2264 0.0
C47 C 0.53356 0.28253 0.17238 0.0
O48 O 0.55244 0.27574 0.17243 0.0
C49 C 0.52196 0.21303 0.16156 0.0
O50 O 0.5289 0.23173 0.15222 0.0
O51 O 0.55422 0.25477 0.22629 0.0
C52 C 0.02125 0.7981 0.12873 0.0
O53 O 0.01618 0.80217 0.10615 0.0
O54 O 0.05588 0.76104 0.09179 0.0
Zn55 Zn 0.06376 0.7955 0.11018 0.0
O56 O 0.0582 0.82268 0.08878 0.0
C57 C 0.1035 0.78436 0.13839 0.0
O58 O 0.09033 0.76407 0.13184 0.0
O59 O 0.04082 0.79488 0.13524 0.0
C60 C 0.06946 0.8434 0.09439 0.0
O61 O 0.08668 0.84746 0.11194 0.0
C62 C 0.06603 0.75124 0.07623 0.0
O63 O 0.08267 0.76382 0.06773 0.0
O64 O 0.09654 0.80134 0.13103 0.0
C65 C 0.54554 0.76377 0.42651 0.0
O66 O 0.54886 0.75316 0.44559 0.0
O67 O 0.50576 0.73618 0.46047 0.0
Zn68 Zn 0.50366 0.76824 0.44612 0.0
O69 O 0.51171 0.80104 0.46898 0.0
C70 C 0.45521 0.75258 0.41756 0.0
O71 O 0.45316 0.73403 0.42805 0.0
O72 O 0.52781 0.77145 0.42319 0.0
C73 C 0.49758 0.81397 0.46961 0.0
O74 O 0.47695 0.80533 0.45881 0.0
C75 C 0.5009 0.72689 0.47962 0.0
O76 O 0.49207 0.73815 0.49613 0.0
O77 O 0.47373 0.7674 0.4226 0.0
C78 C 0.52077 0.2981 0.63112 0.0
O79 O 0.51629 0.30353 0.60902 0.0
O80 O 0.55735 0.26199 0.59494 0.0
Zn81 Zn 0.56399 0.29633 0.61427 0.0
O82 O 0.56004 0.3267 0.59747 0.0
C83 C 0.61097 0.29222 0.6323 0.0
O84 O 0.60889 0.28071 0.61025 0.0
O85 O 0.54 0.29413 0.63761 0.0
C86 C 0.56387 0.33515 0.57759 0.0
O87 O 0.57275 0.3237 0.56129 0.0
C88 C 0.56402 0.25214 0.57625 0.0
O89 O 0.57659 0.26483 0.56317 0.0
O90 O 0.59482 0.3012 0.63785 0.0
C91 C 0.04881 0.27618 0.93365 0.0
O92 O 0.05356 0.28133 0.9577 0.0
O93 O 0.00724 0.23764 0.9624 0.0
Zn94 Zn 1.00412 0.2685 0.94661 0.0
O95 O 0.01185 0.30178 0.96878 0.0
C96 C 0.9548 0.25299 0.92098 0.0
O97 O 0.95186 0.23735 0.93562 0.0
O98 O 0.02832 0.27037 0.92397 0.0
C99 C 0.99965 0.3161 0.9643 0.0
O100 O 0.98141 0.30881 0.94819 0.0
C101 C 0.99733 0.22593 0.9776 0.0
O102 O 0.98156 0.23343 0.98783 0.0
O103 O 0.97418 0.2661 0.92267 0.0
C104 C 0.36917 0.06434 0.32704 0.0
O105 O 0.39084 0.06537 0.33003 0.0
O106 O 0.38798 0.02864 0.27967 0.0
Zn107 Zn 0.3703 0.02207 0.30679 0.0
O108 O 0.39043 0.02071 0.3364 0.0
C109 C 0.36074 0.97787 0.29123 0.0
O110 O 0.38264 0.984 0.29304 0.0
O111 O 0.35576 0.04639 0.31588 0.0
C112 C 0.39104 0.00507 0.34957 0.0
O113 O 0.3765 0.9855 0.34433 0.0
C114 C 0.40893 0.02993 0.28229 0.0
O115 O 0.41963 0.02817 0.30371 0.0
O116 O 0.34958 0.99264 0.29636 0.0
C117 C 0.30855 0.15804 0.50974 0.0
O118 O 0.31454 0.17942 0.50645 0.0
O119 O 0.2723 0.18784 0.54911 0.0
Zn120 Zn 0.26691 0.17032 0.51482 0.0
O121 O 0.27272 0.19119 0.48887 0.0
C122 C 0.21909 0.15601 0.5159 0.0
O123 O 0.22155 0.17718 0.52598 0.0
O124 O 0.28875 0.15028 0.51377 0.0
C125 C 0.25739 0.19489 0.47346 0.0
O126 O 0.23641 0.18544 0.47459 0.0
C127 C 0.26771 0.20711 0.5545 0.0
O128 O 0.25934 0.21706 0.53686 0.0
O129 O 0.23592 0.14948 0.50887 0.0
C130 C 0.15839 0.00787 0.80175 0.0
O131 O 0.14367 0.00486 0.81713 0.0
O132 O 0.12372 0.04865 0.76144 0.0
Zn133 Zn 0.14226 0.04909 0.79446 0.0
O134 O 0.12352 0.04257 0.82155 0.0
C135 C 0.15786 0.09645 0.79312 0.0
O136 O 0.13791 0.09305 0.78015 0.0
O137 O 0.16042 0.02519 0.79048 0.0
C138 C 0.11508 0.05721 0.83313 0.0
O139 O 0.11775 0.07771 0.82682 0.0
C140 C 0.1054 0.03499 0.75199 0.0
O141 O 0.09635 0.01903 0.76428 0.0
O142 O 0.16363 0.08006 0.80269 0.0
C143 C 0.25733 0.95596 0.97603 0.0
O144 O 0.2543 0.93462 0.96629 0.0
O145 O 0.29094 0.92983 0.01944 0.0
Zn146 Zn 0.29852 0.94956 0.9931 0.0
O147 O 0.29943 0.93134 0.96247 0.0
C148 C 0.33846 0.9716 0.02373 0.0
O149 O 0.32934 0.96161 0.04112 0.0
O150 O 0.27654 0.96678 0.98636 0.0
C151 C 0.31663 0.92455 0.9574 0.0
O152 O 0.33539 0.93084 0.97286 0.0
C153 C 0.29389 0.90965 0.01717 0.0
O154 O 0.3008 0.90158 0.99715 0.0
O155 O 0.32724 0.97001 0.00272 0.0
C156 C 0.25765 0.40428 0.04659 0.0
O157 O 0.25218 0.38303 0.05049 0.0
O158 O 0.29949 0.37961 0.07701 0.0
Zn159 Zn 0.29999 0.39268 0.04452 0.0
O160 O 0.29132 0.36869 0.01383 0.0
C161 C 0.34731 0.41685 0.05845 0.0
O162 O 0.34608 0.40746 0.07868 0.0
O163 O 0.27761 0.41249 0.04338 0.0
C164 C 0.30672 0.36341 0.00247 0.0
O165 O 0.32772 0.37224 0.01174 0.0
C166 C 0.29893 0.35888 0.07912 0.0
O167 O 0.29948 0.34474 0.05948 0.0
O168 O 0.33009 0.41297 0.0422 0.0
C169 C 0.8132 0.11302 0.07893 0.0
O170 O 0.81564 0.13514 0.08378 0.0
O171 O 0.77277 0.13902 0.09669 0.0
Zn172 Zn 0.77084 0.11813 0.0664 0.0
O173 O 0.7768 0.13638 0.03896 0.0
C174 C 0.72525 0.10613 0.06803 0.0
O175 O 0.73055 0.12537 0.08303 0.0
O176 O 0.79385 0.10068 0.07127 0.0
C177 C 0.76151 0.13609 0.02141 0.0
O178 O 0.74144 0.12326 0.02069 0.0
C179 C 0.77922 0.1603 0.09762 0.0
O180 O 0.78668 0.16913 0.07874 0.0
O181 O 0.74051 0.09825 0.05899 0.0
C182 C 0.20388 0.50434 0.22828 0.0
O183 O 0.18207 0.49923 0.22171 0.0
O184 O 0.17093 0.54316 0.21985 0.0
Zn185 Zn 0.19536 0.54571 0.24671 0.0
O186 O 0.18218 0.54083 0.27741 0.0
C187 C 0.20622 0.59212 0.24316 0.0
O188 O 0.1868 0.58755 0.22892 0.0
O189 O 0.21341 0.52406 0.23905 0.0
C190 C 0.17001 0.55463 0.28267 0.0
O191 O 0.16865 0.57084 0.26912 0.0
C192 C 0.1509 0.53315 0.22057 0.0
O193 O 0.14592 0.52168 0.23871 0.0
O194 O 0.21395 0.57631 0.25153 0.0
C195 C 0.76288 0.91319 0.5544 0.0
O196 O 0.76791 0.90967 0.5772 0.0
O197 O 0.80009 0.87951 0.57478 0.0
Zn198 Zn 0.7996 0.89149 0.54223 0.0
O199 O 0.79408 0.867 0.51242 0.0
C200 C 0.8457 0.91627 0.55763 0.0
O201 O 0.84427 0.90423 0.57592 0.0
O202 O 0.77426 0.9073 0.53803 0.0
C203 C 0.81039 0.86482 0.50096 0.0
O204 O 0.83062 0.87635 0.51046 0.0
C205 C 0.79382 0.85872 0.5772 0.0
O206 O 0.78696 0.84352 0.55745 0.0
O207 O 0.82862 0.9141 0.54151 0.0
C208 C 0.91701 0.05979 0.26414 0.0
O209 O 0.93902 0.06508 0.26766 0.0
O210 O 0.94194 0.01933 0.23326 0.0
Zn211 Zn 0.92518 0.01578 0.26246 0.0
O212 O 0.94451 0.02238 0.29646 0.0
C213 C 0.90792 0.96629 0.25342 0.0
O214 O 0.92842 0.96515 0.25016 0.0
O215 O 0.90686 0.03907 0.26157 0.0
C216 C 0.95486 0.0085 0.30567 0.0
O217 O 0.95447 0.9891 0.29233 0.0
C218 C 0.95843 0.01117 0.22795 0.0
O219 O 0.96698 0.99878 0.24284 0.0
O220 O 0.90313 0.9855 0.25829 0.0
C221 C 0.31376 0.6122 0.57901 0.0
O222 O 0.31462 0.63413 0.58281 0.0
O223 O 0.27142 0.6367 0.58851 0.0
Zn224 Zn 0.27112 0.61345 0.56075 0.0
O225 O 0.27644 0.62875 0.53125 0.0
C226 C 0.22812 0.59351 0.56954 0.0
O227 O 0.23577 0.60479 0.59163 0.0
O228 O 0.29538 0.59863 0.56975 0.0
C229 C 0.25913 0.63289 0.51954 0.0
O230 O 0.23966 0.62649 0.52711 0.0
C231 C 0.26787 0.65632 0.58707 0.0
O232 O 0.26368 0.66296 0.56556 0.0
O233 O 0.24147 0.59223 0.55394 0.0
C234 C 0.40852 0.5545 0.75305 0.0
O235 O 0.41855 0.55515 0.73335 0.0
O236 O 0.44283 0.51471 0.73404 0.0
Zn237 Zn 0.42882 0.51604 0.76543 0.0
O238 O 0.45119 0.52291 0.79664 0.0
C239 C 0.40493 0.46864 0.7517 0.0
O240 O 0.4179 0.46864 0.73445 0.0
O241 O 0.41113 0.54002 0.76738 0.0
C242 C 0.45589 0.50649 0.80697 0.0
O243 O 0.44804 0.48566 0.79561 0.0
C244 C 0.46174 0.52702 0.73215 0.0
O245 O 0.47311 0.54105 0.75144 0.0
O246 O 0.40679 0.4867 0.76653 0.0
C247 C 0.70568 1.00125 0.72307 0.0
O248 O 0.68642 0.99969 0.70936 0.0
O249 O 0.6736 0.04073 0.7166 0.0
Zn250 Zn 0.69736 0.04241 0.74386 0.0
O251 O 0.68324 0.03776 0.77436 0.0
C252 C 0.70908 0.08903 0.741 0.0
O253 O 0.69066 0.08417 0.72506 0.0
O254 O 0.71478 0.01956 0.73718 0.0
C255 C 0.67376 0.05345 0.78166 0.0
O256 O 0.67371 0.0705 0.76904 0.0
C257 C 0.65317 0.03245 0.71749 0.0
O258 O 0.64724 0.02187 0.73595 0.0
O259 O 0.71649 0.07321 0.74986 0.0
C260 C 0.80686 0.65558 0.00545 0.0
O261 O 0.81107 0.67304 0.99334 0.0
O262 O 0.77062 0.68919 0.04861 0.0
Zn263 Zn 0.76677 0.67171 0.01429 0.0
O264 O 0.77225 0.69253 0.98801 0.0
C265 C 0.72002 0.65697 0.0174 0.0
O266 O 0.72379 0.67756 0.02961 0.0
O267 O 0.78912 0.65189 0.01537 0.0
C268 C 0.75756 0.69147 0.96948 0.0
O269 O 0.73807 0.67725 0.96781 0.0
C270 C 0.77033 0.71001 0.05413 0.0
O271 O 0.76792 0.72244 0.03644 0.0
O272 O 0.73585 0.65063 0.00778 0.0
C273 C 0.86175 0.5594 0.82443 0.0
O274 O 0.88282 0.56469 0.83471 0.0
O275 O 0.89148 0.5263 0.78101 0.0
Zn276 Zn 0.87253 0.51944 0.80681 0.0
O277 O 0.8912 0.52163 0.83803 0.0
C278 C 0.8533 0.47633 0.77988 0.0
O279 O 0.86531 0.48341 0.763 0.0
O280 O 0.854 0.54066 0.81069 0.0
C281 C 0.89284 0.50515 0.84966 0.0
O282 O 0.88041 0.48478 0.84145 0.0
C283 C 0.9114 0.52358 0.78416 0.0
O284 O 0.91902 0.51661 0.80447 0.0
O285 O 0.85353 0.48941 0.79939 0.0
C286 C 0.75362 0.44683 0.47398 0.0
O287 O 0.75484 0.42555 0.46867 0.0
O288 O 0.78946 0.43416 0.52693 0.0
Zn289 Zn 0.79549 0.4475 0.49637 0.0
O290 O 0.79817 0.42345 0.47102 0.0
C291 C 0.83825 0.45889 0.51491 0.0
O292 O 0.83185 0.43779 0.5189 0.0
O293 O 0.77092 0.46129 0.48464 0.0
C294 C 0.80984 0.42532 0.45367 0.0
O295 O 0.82278 0.44498 0.4518 0.0
C296 C 0.7835 0.41288 0.52682 0.0
O297 O 0.77906 0.39911 0.5059 0.0
O298 O 0.82428 0.46859 0.50427 0.0
C299 C 0.65279 0.50714 0.29808 0.0
O300 O 0.63448 0.50279 0.30833 0.0
O301 O 0.62225 0.55122 0.26208 0.0
Zn302 Zn 0.6413 0.55038 0.29414 0.0
O303 O 0.62414 0.5449 0.32283 0.0
C304 C 0.65874 0.59828 0.29772 0.0
O305 O 0.63753 0.59835 0.29164 0.0
O306 O 0.65832 0.52594 0.28994 0.0
C307 C 0.61284 0.55793 0.33239 0.0
O308 O 0.61129 0.57659 0.32311 0.0
C309 C 0.60449 0.53702 0.25196 0.0
O310 O 0.59635 0.51982 0.26315 0.0
O311 O 0.66439 0.57973 0.30076 0.0
Eu312 Eu 0.05895 0.04277 0.04023 0.0
C313 C 0.98238 0.96417 0.98349 0.0
N314 N 0.99456 0.98392 0.97797 0.0
C315 C 0.99377 0.96649 0.93661 0.0
C316 C 0.97585 0.94461 0.96561 0.0
C317 C 0.9998 0.98547 0.95479 0.0
C318 C 0.98181 0.94596 0.94205 0.0
C319 C 0.96345 0.94315 0.0129 0.0
C320 C 0.97593 0.96355 0.00694 0.0
C321 C 0.9571 0.92371 0.9951 0.0
C322 C 0.96315 0.92448 0.97153 0.0
Eu323 Eu 0.99798 0.01571 0.00782 0.0
N324 N 0.98149 0.98285 0.02372 0.0
C325 C 0.95728 0.94294 0.03647 0.0
C326 C 0.97475 0.98288 0.04637 0.0
C327 C 0.96299 0.96288 0.05327 0.0
H328 H 0.00758 1.00153 0.94971 0.0
H329 H 0.95778 0.96301 0.07132 0.0
H330 H 0.05202 0.05519 0.10017 0.0
H331 H 0.1052 0.09531 0.98183 0.0
H332 H 0.97746 0.99833 0.05886 0.0
H333 H 0.94774 0.92758 0.04173 0.0
H334 H 0.08311 0.06012 0.99301 0.0
H335 H 0.99785 0.96788 0.91823 0.0
H336 H 0.94726 0.90802 -0.00068 0.0
H337 H 0.95783 0.90939 0.95793 0.0
H338 H 0.06116 0.08821 0.13226 0.0
H339 H 0.97688 0.93137 0.92778 0.0
H340 H 0.11399 0.13078 0.01138 0.0
N341 N 0.06355 0.07383 0.07188 0.0
C342 C 0.07529 0.09404 0.06687 0.0
C343 C 0.06481 0.0902 0.11383 0.0
C344 C 0.08194 0.11319 0.08529 0.0
C345 C 0.05899 0.07155 0.09523 0.0
C346 C 0.07619 0.11114 0.10882 0.0
N347 N 0.07703 0.07618 0.02687 0.0
C348 C 0.0857 0.07581 0.00525 0.0
C349 C 0.0958 0.11544 0.03876 0.0
C350 C 0.08233 0.09519 0.04386 0.0
C351 C 0.10357 0.11557 0.01593 0.0
C352 C 0.09861 0.0956 -0.00084 0.0
H353 H 0.08117 0.12541 0.12347 0.0
H354 H 0.10031 0.14828 0.09406 0.0
H355 H 0.1123 0.15026 0.05334 0.0
O356 O 0.0883 0.03062 0.03155 0.0
O357 O 0.0421 0.06659 0.01885 0.0
O358 O 0.00454 0.05444 0.02063 0.0
O359 O 0.08845 0.04906 0.06768 0.0
O360 O 0.05428 0.0229 0.00193 0.0
O361 O 0.02251 0.03192 0.98443 0.0
O362 O 0.96174 0.00978 0.00481 0.0
O363 O 0.02087 0.9903 0.0153 0.0
O364 O 0.04454 0.00774 0.05042 0.0
O365 O 0.97829 0.02134 0.97451 0.0
O366 O 0.99936 0.03306 0.04689 0.0
O367 O 0.0339 0.02946 0.06468 0.0
C368 C 0.02184 0.07056 0.01792 0.0
C369 C 0.11149 0.02293 0.06493 0.0
C370 C 0.14168 0.00372 0.06263 0.0
C371 C 0.1399 0.9979 0.08628 0.0
C372 C 0.10909 0.01678 0.08843 0.0
C373 C 0.12338 0.00425 0.09906 0.0
C374 C 0.12757 0.01621 0.05217 0.0
C375 C 0.04226 0.02765 0.98286 0.0
C376 C 0.09919 0.03798 0.05365 0.0
C377 C 0.09498 0.13349 0.08007 0.0
C378 C 0.10184 0.13462 0.05688 0.0
C379 C 0.03419 0.98906 0.03549 0.0
C380 C 0.94179 0.02727 0.97614 0.0
C381 C 0.91345 0.04702 0.98749 0.0
C382 C 0.90603 0.04728 0.96256 0.0
C383 C 0.93424 0.02739 0.95118 0.0
C384 C 0.9313 0.03709 0.99427 0.0
C385 C 0.91642 0.0374 0.94445 0.0
C386 C 0.01369 0.0326 0.06633 0.0
C387 C 0.95929 0.01516 0.98262 0.0
H388 H 0.15113 0.98845 0.09468 0.0
H389 H 0.09662 0.02197 0.09867 0.0
H390 H 0.12184 0.99971 0.11727 0.0
H391 H 0.12966 0.02143 0.03424 0.0
H392 H 0.8921 0.05487 0.95719 0.0
H393 H 0.94195 0.01946 0.93693 0.0
H394 H 0.93688 0.03699 0.01362 0.0
H395 H 0.91055 0.03733 0.92519 0.0
Eu396 Eu 0.26779 0.77828 0.3072 0.0
C397 C 0.31594 0.73402 0.21308 0.0
N398 N 0.32461 0.75109 0.23205 0.0
C399 C 0.35886 0.73825 0.23722 0.0
C400 C 0.32848 0.71812 0.20571 0.0
C401 C 0.3458 0.75353 0.24401 0.0
C402 C 0.35017 0.72045 0.21803 0.0
C403 C 0.28442 0.71379 0.18258 0.0
C404 C 0.2941 0.73189 0.20164 0.0
C405 C 0.29697 0.6981 0.17506 0.0
C406 C 0.31892 0.70026 0.18658 0.0
Eu407 Eu 0.30144 0.77612 0.24222 0.0
N408 N 0.282 0.74685 0.20999 0.0
C409 C 0.26228 0.7118 0.17183 0.0
C410 C 0.26057 0.74524 0.19905 0.0
C411 C 0.25037 0.72766 0.18002 0.0
H412 H 0.35282 0.76746 0.2586 0.0
H413 H 0.23332 0.72641 0.17161 0.0
H414 H 0.21733 0.78813 0.29283 0.0
H415 H 0.33619 0.82353 0.38049 0.0
H416 H 0.25114 0.75746 0.2045 0.0
H417 H 0.25426 0.69813 0.15716 0.0
H418 H 0.31662 0.79215 0.34898 0.0
H419 H 0.37566 0.74024 0.24677 0.0
H420 H 0.28978 0.6841 0.16048 0.0
H421 H 0.32831 0.68788 0.18071 0.0
H422 H 0.19589 0.81692 0.30428 0.0
H423 H 0.36031 0.70857 0.21291 0.0
H424 H 0.31834 0.85524 0.39211 0.0
N425 N 0.24621 0.80434 0.3184 0.0
C426 C 0.25596 0.82192 0.33632 0.0
C427 C 0.21277 0.81855 0.31341 0.0
C428 C 0.24444 0.83885 0.34331 0.0
C429 C 0.22494 0.80231 0.30696 0.0
C430 C 0.22259 0.83697 0.33161 0.0
N431 N 0.2881 0.80628 0.34043 0.0
C432 C 0.30864 0.80602 0.35269 0.0
C433 C 0.28814 0.84121 0.3662 0.0
C434 C 0.27757 0.82305 0.34752 0.0
C435 C 0.30965 0.84158 0.37774 0.0
C436 C 0.31981 0.82376 0.37115 0.0
H437 H 0.21317 0.8496 0.33649 0.0
H438 H 0.2465 0.87031 0.36715 0.0
H439 H 0.28477 0.87239 0.38721 0.0
O440 O 0.26876 0.75153 0.32992 0.0
O441 O 0.27556 0.81145 0.29298 0.0
O442 O 0.30391 0.80063 0.2768 0.0
O443 O 0.23674 0.75801 0.31602 0.0
O444 O 0.30262 0.76936 0.31184 0.0
O445 O 0.32395 0.78008 0.28022 0.0
O446 O 0.29861 0.79816 0.2139 0.0
O447 O 0.28924 0.74039 0.24978 0.0
O448 O 0.27731 0.76324 0.27424 0.0
O449 O 0.33167 0.79429 0.22978 0.0
O450 O 0.2664 0.78562 0.23878 0.0
O451 O 0.2452 0.77217 0.26943 0.0
C452 C 0.29125 0.81524 0.27913 0.0
C453 C 0.24123 0.74622 0.35558 0.0
C454 C 0.24689 0.73234 0.39477 0.0
C455 C 0.23245 0.74514 0.40408 0.0
C456 C 0.2267 0.75898 0.36494 0.0
C457 C 0.22228 0.75831 0.38912 0.0
C458 C 0.25103 0.73271 0.37051 0.0
C459 C 0.32166 0.77292 0.30208 0.0
C460 C 0.24733 0.74723 0.33082 0.0
C461 C 0.25504 0.85709 0.36161 0.0
C462 C 0.27685 0.85829 0.373 0.0
C463 C 0.27823 0.74256 0.26771 0.0
C464 C 0.33081 0.81885 0.19804 0.0
C465 C 0.32787 0.83982 0.16336 0.0
C466 C 0.35129 0.84642 0.16601 0.0
C467 C 0.35428 0.82557 0.20054 0.0
C468 C 0.31761 0.82615 0.17942 0.0
C469 C 0.36443 0.83937 0.1846 0.0
C470 C 0.24721 0.78064 0.24824 0.0
C471 C 0.32021 0.8034 0.21401 0.0
H472 H 0.22865 0.74449 0.42269 0.0
H473 H 0.21891 0.76954 0.35373 0.0
H474 H 0.21095 0.76797 0.39627 0.0
H475 H 0.26203 0.72255 0.36332 0.0
H476 H 0.35938 0.85683 0.1535 0.0
H477 H 0.3648 0.82002 0.21465 0.0
H478 H 0.29949 0.82081 0.17699 0.0
H479 H 0.38251 0.84439 0.18649 0.0
Eu480 Eu 0.50787 0.03178 0.53924 0.0
C481 C 0.58555 0.07933 0.48491 0.0
N482 N 0.56937 0.05983 0.47823 0.0
C483 C 0.56255 0.06911 0.43741 0.0
C484 C 0.59039 0.09476 0.46797 0.0
C485 C 0.55836 0.05423 0.4547 0.0
C486 C 0.57851 0.08952 0.4441 0.0
C487 C 0.61406 0.10414 0.51608 0.0
C488 C 0.59733 0.08403 0.50886 0.0
C489 C 0.61879 0.11948 0.49918 0.0
C490 C 0.60699 0.11483 0.47526 0.0
Eu491 Eu 0.56543 0.03592 0.50891 0.0
N492 N 0.59214 0.06921 0.52522 0.0
C493 C 0.6256 0.10823 0.54012 0.0
C494 C 0.60376 0.07268 0.54833 0.0
C495 C 0.62053 0.09236 0.55624 0.0
H496 H 0.54683 0.03805 0.44888 0.0
H497 H 0.62972 0.09516 0.57465 0.0
H498 H 0.52565 0.02898 0.5993 0.0
H499 H 0.44086 0.97529 0.47416 0.0
H500 H 0.60052 0.05999 0.56038 0.0
H501 H 0.63864 0.12345 0.54631 0.0
H502 H 0.47184 0.00896 0.48823 0.0
H503 H 0.55369 0.06467 0.41881 0.0
H504 H 0.63159 0.13502 0.50444 0.0
H505 H 0.6109 0.12685 0.46246 0.0
H506 H 0.51731 0.00289 0.62954 0.0
H507 H 0.58178 0.10095 0.43058 0.0
H508 H 0.42998 0.94774 0.50276 0.0
N509 N 0.50253 0.00786 0.56994 0.0
C510 C 0.48538 0.98914 0.56352 0.0
C511 C 0.50844 0.99866 0.61094 0.0
C512 C 0.47956 0.97412 0.58062 0.0
C513 C 0.5135 0.01319 0.5935 0.0
C514 C 0.49152 0.97895 0.60444 0.0
N515 N 0.47941 0.99953 0.52346 0.0
C516 C 0.46774 0.99657 0.5004 0.0
C517 C 0.45536 0.96592 0.53286 0.0
C518 C 0.47328 0.98508 0.53986 0.0
C519 C 0.44378 0.96231 0.50886 0.0
C520 C 0.44996 0.97774 0.4926 0.0
H521 H 0.48751 0.96785 0.6181 0.0
H522 H 0.45715 0.94325 0.58651 0.0
H523 H 0.4361 0.93603 0.54473 0.0
O524 O 0.47962 0.04784 0.5282 0.0
O525 O 0.51427 0.99657 0.52478 0.0
O526 O 0.54767 0.99902 0.50834 0.0
O527 O 0.48928 0.04346 0.56661 0.0
O528 O 0.51321 0.04329 0.50281 0.0
O529 O 0.53354 0.02124 0.48367 0.0
O530 O 0.59739 0.02572 0.51792 0.0
O531 O 0.55424 0.07005 0.51859 0.0
O532 O 0.53214 0.06642 0.54972 0.0
O533 O 0.58147 0.02245 0.4795 0.0
O534 O 0.56256 0.0247 0.54601 0.0
O535 O 0.53993 0.04466 0.56476 0.0
C536 C 0.5293 0.98712 0.51474 0.0
C537 C 0.45867 0.06178 0.55997 0.0
C538 C 0.42605 0.07801 0.55292 0.0
C539 C 0.42598 0.08206 0.57842 0.0
C540 C 0.45836 0.06607 0.58551 0.0
C541 C 0.44214 0.07619 0.59462 0.0
C542 C 0.44252 0.06803 0.54361 0.0
C543 C 0.51598 0.03001 0.48372 0.0
C544 C 0.47599 0.05089 0.55108 0.0
C545 C 0.4618 0.95496 0.5736 0.0
C546 C 0.44975 0.95088 0.54982 0.0
C547 C 0.5445 0.07911 0.53626 0.0
C548 C 0.61646 0.01057 0.48557 0.0
C549 C 0.64479 0.98813 0.48997 0.0
C550 C 0.64874 0.99069 0.46575 0.0
C551 C 0.62059 0.01277 0.46141 0.0
C552 C 0.62884 0.99848 0.50003 0.0
C553 C 0.63675 0.00299 0.45165 0.0
C554 C 0.55803 0.03675 0.56501 0.0
C555 C 0.59813 0.01952 0.49467 0.0
H556 H 0.41347 0.08998 0.5858 0.0
H557 H 0.47071 0.06164 0.59857 0.0
H558 H 0.44208 0.07948 0.61428 0.0
H559 H 0.44256 0.06493 0.5239 0.0
H560 H 0.6612 0.9832 0.45771 0.0
H561 H 0.61121 0.02197 0.44997 0.0
H562 H 0.62543 0.99634 0.51855 0.0
H563 H 0.63986 0.00476 0.43301 0.0
Eu564 Eu 0.31062 0.27267 0.78128 0.0
C565 C 0.23099 0.30704 0.72483 0.0
N566 N 0.24597 0.31766 0.74489 0.0
C567 C 0.25058 0.35281 0.72819 0.0
C568 C 0.22543 0.319 0.70542 0.0
C569 C 0.25548 0.3403 0.74704 0.0
C570 C 0.23556 0.34211 0.70724 0.0
C571 C 0.20575 0.27255 0.70303 0.0
C572 C 0.22142 0.28398 0.72354 0.0
C573 C 0.20017 0.28444 0.68369 0.0
C574 C 0.21003 0.30757 0.68484 0.0
Eu575 Eu 0.25297 0.29498 0.77559 0.0
N576 N 0.22765 0.2727 0.7422 0.0
C577 C 0.19605 0.24951 0.70266 0.0
C578 C 0.21741 0.25063 0.74252 0.0
C579 C 0.20172 0.23859 0.72264 0.0
H580 H 0.26651 0.34889 0.76351 0.0
H581 H 0.19377 0.22098 0.72289 0.0
H582 H 0.29852 0.21912 0.79386 0.0
H583 H 0.36595 0.34907 0.83492 0.0
H584 H 0.22077 0.24252 0.7584 0.0
H585 H 0.18385 0.24015 0.6873 0.0
H586 H 0.34015 0.32676 0.79914 0.0
H587 H 0.25825 0.37075 0.72993 0.0
H588 H 0.18821 0.27591 0.66776 0.0
H589 H 0.20557 0.31649 0.66975 0.0
H590 H 0.30847 0.19759 0.82725 0.0
H591 H 0.23176 0.35188 0.69269 0.0
H592 H 0.37726 0.33024 0.87024 0.0
N593 N 0.31873 0.25065 0.81208 0.0
C594 C 0.33346 0.26181 0.8321 0.0
C595 C 0.31555 0.21565 0.82888 0.0
C596 C 0.33975 0.25013 0.85149 0.0
C597 C 0.3098 0.22791 0.81011 0.0
C598 C 0.33059 0.22679 0.84966 0.0
N599 N 0.33525 0.29602 0.81465 0.0
C600 C 0.34411 0.31853 0.81473 0.0
C601 C 0.35716 0.29709 0.85407 0.0
C602 C 0.342 0.28509 0.83341 0.0
C603 C 0.36556 0.32043 0.85471 0.0
C604 C 0.35912 0.33115 0.83487 0.0
H605 H 0.33503 0.21722 0.86415 0.0
H606 H 0.35993 0.25337 0.88709 0.0
H607 H 0.3752 0.29442 0.88933 0.0
O608 O 0.33942 0.28226 0.76068 0.0
O609 O 0.29649 0.28106 0.81706 0.0
O610 O 0.27953 0.30996 0.80824 0.0
O611 O 0.32932 0.24787 0.7698 0.0
O612 O 0.30937 0.30448 0.76364 0.0
O613 O 0.28528 0.32203 0.78351 0.0
O614 O 0.22414 0.28559 0.79602 0.0
O615 O 0.26613 0.28553 0.73961 0.0
O616 O 0.28403 0.25742 0.74874 0.0
O617 O 0.23371 0.31968 0.78587 0.0
O618 O 0.2533 0.26225 0.79239 0.0
O619 O 0.27847 0.24563 0.77313 0.0
C620 C 0.28793 0.29842 0.82415 0.0
C621 C 0.3605 0.25371 0.74657 0.0
C622 C 0.39443 0.25968 0.72664 0.0
C623 C 0.39281 0.23611 0.7235 0.0
C624 C 0.35947 0.23019 0.74293 0.0
C625 C 0.37544 0.22153 0.73147 0.0
C626 C 0.37801 0.26858 0.73801 0.0
C627 C 0.30209 0.32269 0.77074 0.0
C628 C 0.34293 0.26172 0.75915 0.0
C629 C 0.35486 0.26207 0.87205 0.0
C630 C 0.36354 0.28546 0.87334 0.0
C631 C 0.27554 0.26878 0.7327 0.0
C632 C 0.20106 0.3131 0.80676 0.0
C633 C 0.16896 0.30703 0.8294 0.0
C634 C 0.16497 0.32812 0.82451 0.0
C635 C 0.19661 0.3342 0.80229 0.0
C636 C 0.18709 0.29941 0.82047 0.0
C637 C 0.17871 0.34158 0.81108 0.0
C638 C 0.26139 0.24446 0.7855 0.0
C639 C 0.21974 0.30569 0.79597 0.0
H640 H 0.40504 0.2289 0.71464 0.0
H641 H 0.3462 0.2183 0.74893 0.0
H642 H 0.37437 0.20339 0.7288 0.0
H643 H 0.37907 0.28674 0.74049 0.0
H644 H 0.1512 0.33426 0.83131 0.0
H645 H 0.20686 0.34503 0.79172 0.0
H646 H 0.19023 0.28312 0.82418 0.0
H647 H 0.17547 0.35784 0.80746 0.0
Eu648 Eu 0.04201 0.00299 0.53014 0.0
C649 C 0.0082 0.08683 0.58174 0.0
N650 N 0.9981 0.07096 0.5621 0.0
C651 C 0.96304 0.06692 0.57773 0.0
C652 C 0.99599 0.09316 0.60039 0.0
C653 C 0.97577 0.0613 0.5596 0.0
C654 C 0.97319 0.08285 0.59826 0.0
C655 C 0.04179 0.11326 0.60339 0.0
C656 C 0.03094 0.09663 0.58334 0.0
C657 C 0.02963 0.11963 0.62194 0.0
C658 C 0.00683 0.10954 0.6205 0.0
Eu659 Eu 0.02108 0.06311 0.53249 0.0
N660 N 0.04255 0.08943 0.56564 0.0
C661 C 0.06463 0.12285 0.60429 0.0
C662 C 0.0647 0.09887 0.56626 0.0
C663 C 0.0761 0.11566 0.5856 0.0
H664 H 0.96758 0.0496 0.54339 0.0
H665 H 0.09373 0.12305 0.58609 0.0
H666 H 0.09537 0.00662 0.52209 0.0
H667 H 0.96573 0.94808 0.47669 0.0
H668 H 0.07354 0.09368 0.55177 0.0
H669 H 0.07356 0.13571 0.61935 0.0
H670 H 0.98839 0.97388 0.51239 0.0
H671 H 0.94535 0.05913 0.57574 0.0
H672 H 0.03773 0.13227 0.63755 0.0
H673 H 0.9977 0.11459 0.63501 0.0
H674 H 0.11688 0.9939 0.49019 0.0
H675 H 0.96324 0.08723 0.61223 0.0
H676 H 0.98404 0.93476 0.44205 0.0
N677 N 0.06384 0.98962 0.50199 0.0
C678 C 0.05258 0.97525 0.48172 0.0
C679 C 0.09879 0.98864 0.4875 0.0
C680 C 0.06409 0.96737 0.46313 0.0
C681 C 0.08661 0.99602 0.5054 0.0
C682 C 0.08747 0.97441 0.46615 0.0
N683 N 0.01885 0.97677 0.49758 0.0
C684 C 0.99641 0.969 0.49713 0.0
C685 C 0.01725 0.95335 0.45883 0.0
C686 C 0.02944 0.96843 0.47955 0.0
C687 C 0.99401 0.94636 0.45762 0.0
C688 C 0.9836 0.95395 0.47705 0.0
H689 H 0.09694 0.96877 0.45228 0.0
H690 H 0.06052 0.94667 0.42764 0.0
H691 H 0.01951 0.93432 0.42393 0.0
O692 O 0.02996 0.97519 0.55118 0.0
O693 O 0.03337 0.01499 0.49289 0.0
O694 O 0.00681 0.03539 0.50035 0.0
O695 O 0.06531 0.98628 0.5496 0.0
O696 O 0.01117 0.00758 0.54754 0.0
O697 O 0.99442 0.03052 0.52474 0.0
O698 O 0.03089 0.09162 0.51106 0.0
O699 O 0.03171 0.05166 0.56932 0.0
O700 O 0.05824 0.03208 0.55987 0.0
O701 O 0.99695 0.08224 0.52026 0.0
O702 O 0.05284 0.06153 0.51595 0.0
O703 O 0.07013 0.0346 0.53219 0.0
C704 C 0.0181 0.02593 0.48508 0.0
C705 C 0.05309 0.94848 0.55826 0.0
C706 C 0.04875 0.91355 0.57753 0.0
C707 C 0.06323 0.90588 0.56244 0.0
C708 C 0.06735 0.94013 0.54328 0.0
C709 C 0.07245 0.91907 0.54551 0.0
C710 C 0.04379 0.93506 0.57555 0.0
C711 C 0.99325 0.01388 0.53813 0.0
C712 C 0.04997 0.97203 0.55779 0.0
C713 C 0.05197 0.95276 0.4422 0.0
C714 C 0.02862 0.94574 0.44008 0.0
C715 C 0.04762 0.0412 0.57597 0.0
C716 C 1.00344 0.11359 0.49662 0.0
C717 C 0.01027 0.14729 0.47562 0.0
C718 C 0.98727 0.14686 0.47306 0.0
C719 C 0.98049 0.11372 0.49368 0.0
C720 C 0.01847 0.13052 0.48738 0.0
C721 C 0.97253 0.13019 0.48199 0.0
C722 C 0.07062 0.05324 0.52165 0.0
C723 C 0.01085 0.09569 0.50952 0.0
H724 H 0.0677 0.88971 0.56405 0.0
H725 H 0.07501 0.9501 0.53018 0.0
H726 H 0.08382 0.91303 0.53424 0.0
H727 H 0.03315 0.94146 0.58761 0.0
H728 H 0.98071 0.15962 0.46416 0.0
H729 H 0.96852 0.10102 0.50045 0.0
H730 H 0.03623 0.13083 0.48955 0.0
H731 H 0.95483 0.13008 0.47992 0.0
Eu732 Eu 0.2824 0.80848 0.76989 0.0
C733 C 0.23606 0.73093 0.82215 0.0
N734 N 0.25631 0.74582 0.82862 0.0
C735 C 0.24965 0.75098 0.87061 0.0
C736 C 0.22153 0.72615 0.83976 0.0
C737 C 0.26375 0.75466 0.85274 0.0
C738 C 0.2283 0.73694 0.86403 0.0
C739 C 0.21065 0.7019 0.79191 0.0
C740 C 0.23056 0.71888 0.79838 0.0
C741 C 0.19583 0.69785 0.80917 0.0
C742 C 0.20121 0.70997 0.83298 0.0
Eu743 Eu 0.27881 0.74943 0.79678 0.0
N744 N 0.24515 0.72302 0.78188 0.0
C745 C 0.2066 0.68893 0.76852 0.0
C746 C 0.24203 0.70956 0.75969 0.0
C747 C 0.22251 0.69258 0.75247 0.0
H748 H 0.28082 0.76394 0.85857 0.0
H749 H 0.21984 0.6822 0.73467 0.0
H750 H 0.28484 0.79313 0.70954 0.0
H751 H 0.34089 0.87077 0.83908 0.0
H752 H 0.25467 0.71201 0.74769 0.0
H753 H 0.19155 0.67566 0.76294 0.0
H754 H 0.30655 0.84119 0.82355 0.0
H755 H 0.2555 0.75843 0.88959 0.0
H756 H 0.18041 0.68493 0.80448 0.0
H757 H 0.18986 0.70616 0.84628 0.0
H758 H 0.31046 0.80303 0.6796 0.0
H759 H 0.21761 0.7337 0.87806 0.0
H760 H 0.36808 0.88287 0.81096 0.0
N761 N 0.30607 0.81505 0.73975 0.0
C762 C 0.32492 0.83177 0.74707 0.0
C763 C 0.31486 0.81103 0.69856 0.0
C764 C 0.33981 0.83833 0.73028 0.0
C765 C 0.30055 0.80513 0.71577 0.0
C766 C 0.33463 0.8276 0.70586 0.0
N767 N 0.31486 0.83585 0.78747 0.0
C768 C 0.31859 0.8459 0.81134 0.0
C769 C 0.34905 0.85952 0.77949 0.0
C770 C 0.32943 0.84242 0.77149 0.0
C771 C 0.35319 0.86967 0.80412 0.0
C772 C 0.33791 0.86283 0.82009 0.0
H773 H 0.34561 0.83223 0.69242 0.0
H774 H 0.37082 0.86073 0.72558 0.0
H775 H 0.37896 0.87917 0.76859 0.0
O776 O 0.27511 0.84263 0.77383 0.0
O777 O 0.31606 0.79652 0.77703 0.0
O778 O 0.31293 0.77448 0.80864 0.0
O779 O 0.26211 0.81851 0.73998 0.0
O780 O 0.27306 0.8072 0.80797 0.0
O781 O 0.29129 0.78124 0.82362 0.0
O782 O 0.29703 0.7236 0.78439 0.0
O783 O 0.24652 0.75522 0.77476 0.0
O784 O 0.24937 0.79349 0.78335 0.0
O785 O 0.28383 0.72337 0.81899 0.0
O786 O 0.29093 0.75518 0.76095 0.0
O787 O 0.26904 0.77658 0.74323 0.0
C788 C 0.32533 0.78724 0.7951 0.0
C789 C 0.25226 0.85521 0.74111 0.0
C790 C 0.23611 0.88863 0.74498 0.0
C791 C 0.23008 0.88544 0.71929 0.0
C792 C 0.24603 0.85237 0.71548 0.0
C793 C 0.23499 0.86741 0.70469 0.0
C794 C 0.24716 0.87338 0.75593 0.0
C795 C 0.28119 0.79804 0.82638 0.0
C796 C 0.2632 0.83854 0.75203 0.0
C797 C 0.35924 0.85546 0.73826 0.0
C798 C 0.36386 0.86599 0.76276 0.0
C799 C 0.23699 0.7728 0.77659 0.0
C800 C 0.31368 0.70526 0.81541 0.0
C801 C 0.33447 0.67539 0.81437 0.0
C802 C 0.34328 0.68268 0.83929 0.0
C803 C 0.32299 0.71271 0.84021 0.0
C804 C 0.31981 0.68687 0.80245 0.0
C805 C 0.33772 0.7014 0.85203 0.0
C806 C 0.27824 0.75904 0.74207 0.0
C807 C 0.29495 0.71377 0.80404 0.0
H808 H 0.22128 0.8968 0.71052 0.0
H809 H 0.24964 0.83846 0.70372 0.0
H810 H 0.23015 0.86504 0.68493 0.0
H811 H 0.2517 0.87564 0.77576 0.0
H812 H 0.35459 0.67398 0.84883 0.0
H813 H 0.31831 0.72675 0.85067 0.0
H814 H 0.31234 0.68079 0.78347 0.0
H815 H 0.34453 0.7069 0.87124 0.0
Eu816 Eu 0.53616 0.0471 0.99861 0.0
C817 C 0.57656 0.99525 0.09441 0.0
N818 N 0.56014 0.98653 0.07505 0.0
C819 C 0.57251 0.95157 0.07094 0.0
C820 C 0.59209 0.98253 0.10235 0.0
C821 C 0.55768 0.96491 0.06356 0.0
C822 C 0.58992 0.96048 0.09029 0.0
C823 C 0.59529 0.02679 0.12589 0.0
C824 C 0.57805 0.01709 0.10614 0.0
C825 C 0.61096 0.01429 0.1336 0.0
C826 C 0.60933 0.99221 0.1219 0.0
Eu827 Eu 0.53677 0.01062 0.06252 0.0
N828 N 0.56307 0.02909 0.09769 0.0
C829 C 0.59642 0.04886 0.13722 0.0
C830 C 0.56367 0.05032 0.10937 0.0
C831 C 0.5804 0.06056 0.12907 0.0
H832 H 0.54408 0.95781 0.04888 0.0
H833 H 0.5809 0.07752 0.13797 0.0
H834 H 0.53025 0.09988 0.01384 0.0
H835 H 0.48737 0.98046 0.92499 0.0
H836 H 0.55138 0.05962 0.10388 0.0
H837 H 0.60945 0.05693 0.15238 0.0
H838 H 0.51855 0.99771 0.9573 0.0
H839 H 0.5705 0.93444 0.0617 0.0
H840 H 0.62439 0.02154 0.14862 0.0
H841 H 0.62152 0.98276 0.12809 0.0
H842 H 0.50367 0.12384 0.00336 0.0
H843 H 0.60149 0.95017 0.09586 0.0
H844 H 0.45866 0.00167 0.91298 0.0
N845 N 0.51275 0.07153 0.9878 0.0
C846 C 0.49521 0.063 0.96967 0.0
C847 C 0.50106 0.10674 0.99378 0.0
C848 C 0.47954 0.07603 0.96314 0.0
C849 C 0.51603 0.09312 -0.00027 0.0
C850 C 0.48264 0.09813 0.97549 0.0
N851 N 0.50806 0.02887 0.9648 0.0
C852 C 0.50639 0.00746 0.95286 0.0
C853 C 0.47446 0.03161 0.93913 0.0
C854 C 0.49275 0.04105 0.95784 0.0
C855 C 0.47247 0.00952 0.92739 0.0
C856 C 0.48861 0.99749 0.93417 0.0
H857 H 0.47097 0.10867 0.97103 0.0
H858 H 0.44896 0.07631 0.93955 0.0
H859 H 0.44451 0.03741 0.91852 0.0
O860 O 0.56255 0.04531 0.97624 0.0
O861 O 0.5023 0.03588 0.00942 0.0
O862 O 0.51504 0.00873 0.02657 0.0
O863 O 0.55841 0.07821 0.99208 0.0
O864 O 0.54438 0.01163 0.99217 0.0
O865 O 0.53876 0.98983 0.02498 0.0
O866 O 0.51075 0.01187 0.08565 0.0
O867 O 0.57229 0.02651 0.05875 0.0
O868 O 0.55031 0.0366 0.03156 0.0
O869 O 0.51668 0.97933 0.07114 0.0
O870 O 0.52745 0.0462 0.06661 0.0
O871 O 0.54039 0.06895 0.03673 0.0
C872 C 0.49978 0.02045 0.024 0.0
C873 C 0.5706 0.07484 0.95287 0.0
C874 C 0.58547 0.07086 0.91432 0.0
C875 C 0.57389 0.08667 0.9057 0.0
C876 C 0.55895 0.09063 0.94417 0.0
C877 C 0.56073 0.09657 0.92066 0.0
C878 C 0.58399 0.06515 0.93791 0.0
C879 C 0.54341 0.99248 0.00219 0.0
C880 C 0.56846 0.06725 0.97688 0.0
C881 C 0.46124 0.0666 0.9447 0.0
C882 C 0.45871 0.04445 0.93273 0.0
C883 C 0.57068 0.03741 0.04037 0.0
C884 C 0.50349 0.9823 0.10965 0.0
C885 C 0.4869 0.98499 0.14709 0.0
C886 C 0.49567 0.96684 0.15435 0.0
C887 C 0.51254 0.96426 0.11707 0.0
C888 C 0.49082 0.9927 0.12486 0.0
C889 C 0.5086 0.95662 0.13941 0.0
C890 C 0.53242 0.06613 0.05798 0.0
C891 C 0.50593 0.98995 0.08573 0.0
H892 H 0.57533 0.09155 0.88759 0.0
H893 H 0.54842 0.09826 0.95538 0.0
H894 H 0.55189 0.10885 0.91401 0.0
H895 H 0.59317 0.05306 0.94455 0.0
H896 H 0.4925 0.96066 0.17154 0.0
H897 H 0.52241 0.95594 0.10559 0.0
H898 H 0.48355 0.00646 0.11919 0.0
H899 H 0.5154 0.94263 0.14505 0.0
Eu900 Eu 0.27268 0.25418 0.2647 0.0
C901 C 0.34884 0.33726 0.32891 0.0
N902 N 0.32947 0.32409 0.33351 0.0
C903 C 0.34503 0.32689 0.37601 0.0
C904 C 0.36734 0.34519 0.34771 0.0
C905 C 0.32712 0.31952 0.3569 0.0
C906 C 0.36531 0.33959 0.37136 0.0
C907 C 0.36947 0.35829 0.30074 0.0
C908 C 0.34983 0.34398 0.30574 0.0
C909 C 0.38811 0.36552 0.31918 0.0
C910 C 0.38702 0.35908 0.34262 0.0
Eu911 Eu 0.29958 0.31459 0.30026 0.0
N912 N 0.33136 0.33735 0.28838 0.0
C913 C 0.36959 0.36546 0.27752 0.0
C914 C 0.33105 0.34523 0.26619 0.0
C915 C 0.35023 0.35902 0.26024 0.0
H916 H 0.3112 0.31058 0.36102 0.0
H917 H 0.34996 0.36492 0.24246 0.0
H918 H 0.25877 0.2656 0.20729 0.0
H919 H 0.22468 0.19498 0.31737 0.0
H920 H 0.31598 0.34104 0.25315 0.0
H921 H 0.38436 0.3764 0.27299 0.0
H922 H 0.2585 0.21974 0.30779 0.0
H923 H 0.34306 0.32307 0.3944 0.0
H924 H 0.4033 0.37653 0.31566 0.0
H925 H 0.40137 0.36527 0.35684 0.0
H926 H 0.22582 0.25687 0.17529 0.0
H927 H 0.37909 0.34551 0.38629 0.0
H928 H 0.18908 0.18793 0.28906 0.0
N929 N 0.24195 0.24792 0.23319 0.0
C930 C 0.22283 0.23395 0.23734 0.0
C931 C 0.22465 0.2506 0.19278 0.0
C932 C 0.2036 0.22827 0.21933 0.0
C933 C 0.24325 0.25586 0.21116 0.0
C934 C 0.20468 0.23691 0.19695 0.0
N935 N 0.24175 0.22909 0.27575 0.0
C936 C 0.24286 0.21781 0.29582 0.0
C937 C 0.20314 0.20956 0.26355 0.0
C938 C 0.22266 0.22454 0.25925 0.0
C939 C 0.20376 0.19942 0.28508 0.0
C940 C 0.22379 0.20337 0.30112 0.0
H941 H 0.19033 0.23273 0.18258 0.0
H942 H 0.16916 0.2093 0.21027 0.0
H943 H 0.1687 0.19311 0.24902 0.0
O944 O 0.28276 0.22315 0.27009 0.0
O945 O 0.24645 0.27606 0.26906 0.0
O946 O 0.26289 0.29979 0.30483 0.0
O947 O 0.27529 0.23068 0.23225 0.0
O948 O 0.27111 0.2594 0.30532 0.0
O949 O 0.30335 0.28518 0.32137 0.0
O950 O 0.29325 0.34786 0.29631 0.0
O951 O 0.32395 0.30032 0.27796 0.0
O952 O 0.31108 0.26215 0.27829 0.0
O953 O 0.29149 0.33499 0.33191 0.0
O954 O 0.28108 0.31189 0.26129 0.0
O955 O 0.28931 0.27986 0.24256 0.0
C956 C 0.24487 0.28986 0.2888 0.0
C957 C 0.28667 0.19515 0.23758 0.0
C958 C 0.30145 0.16299 0.24749 0.0
C959 C 0.2998 0.15495 0.22243 0.0
C960 C 0.28492 0.1873 0.21238 0.0
C961 C 0.29143 0.16713 0.20486 0.0
C962 C 0.29475 0.18277 0.25494 0.0
C963 C 0.28692 0.26844 0.32365 0.0
C964 C 0.28135 0.21664 0.2465 0.0
C965 C 0.18408 0.21378 0.22389 0.0
C966 C 0.18381 0.20455 0.24597 0.0
C967 C 0.32721 0.27944 0.27543 0.0
C968 C 0.28427 0.37247 0.32924 0.0
C969 C 0.26999 0.40552 0.32158 0.0
C970 C 0.27268 0.41285 0.34695 0.0
C971 C 0.28661 0.37942 0.3547 0.0
C972 C 0.27589 0.38552 0.31287 0.0
C973 C 0.28087 0.39966 0.3635 0.0
C974 C 0.28543 0.30013 0.24166 0.0
C975 C 0.28992 0.3515 0.31919 0.0
H976 H 0.30517 0.13956 0.21656 0.0
H977 H 0.27881 0.19679 0.19863 0.0
H978 H 0.29023 0.1611 0.18546 0.0
H979 H 0.2964 0.18871 0.2745 0.0
H980 H 0.26817 0.42845 0.35386 0.0
H981 H 0.29294 0.36934 0.36768 0.0
H982 H 0.27387 0.38013 0.29316 0.0
H983 H 0.28273 0.4051 0.38311 0.0
Eu984 Eu 0.54047 0.50068 0.02803 0.0
C985 C 0.51013 0.58506 0.08153 0.0
N986 N 0.5004 0.57004 0.06105 0.0
C987 C 0.46502 0.56469 0.07621 0.0
C988 C 0.49772 0.58972 0.10066 0.0
C989 C 0.47791 0.56078 0.05765 0.0
C990 C 0.47502 0.57896 0.09797 0.0
C991 C 0.54274 0.6125 0.10377 0.0
C992 C 0.53244 0.59633 0.0831 0.0
C993 C 0.53059 0.61666 0.12312 0.0
C994 C 0.50816 0.60528 0.12158 0.0
Eu995 Eu 0.52412 0.56403 0.03132 0.0
N996 N 0.54395 0.59175 0.06426 0.0
C997 C 0.56492 0.62421 0.10425 0.0
C998 C 0.5652 0.6038 0.06416 0.0
C999 C 0.57609 0.62001 0.08423 0.0
H1000 H 0.4696 0.55066 0.04051 0.0
H1001 H 0.59304 0.6294 0.08415 0.0
H1002 H 0.59465 0.50935 0.01613 0.0
H1003 H 0.46709 0.43921 0.97943 0.0
H1004 H 0.57359 0.60133 0.04836 0.0
H1005 H 0.5734 0.6368 0.11976 0.0
H1006 H 0.48922 0.46785 0.0137 0.0
H1007 H 0.44729 0.55694 0.07358 0.0
H1008 H 0.5383 0.62889 0.13921 0.0
H1009 H 0.49891 0.60894 0.1365 0.0
H1010 H 0.61461 0.50022 0.98183 0.0
H1011 H 0.46493 0.58208 0.11224 0.0
H1012 H 0.48428 0.42938 0.94253 0.0
N1013 N 0.56222 0.4931 0.9967 0.0
C1014 C 0.55072 0.4786 0.97648 0.0
C1015 C 0.59659 0.49435 0.97991 0.0
C1016 C 0.56181 0.47205 0.95683 0.0
C1017 C 0.58503 0.49999 -0.00084 0.0
C1018 C 0.58491 0.4806 0.95851 0.0
N1019 N 0.51776 0.47505 0.99542 0.0
C1020 C 0.4965 0.46399 0.99733 0.0
C1021 C 0.51621 0.45256 0.95626 0.0
C1022 C 0.52807 0.46896 0.97607 0.0
C1023 C 0.4939 0.44211 0.95735 0.0
C1024 C 0.4841 0.44765 0.97812 0.0
H1025 H 0.594 0.47594 0.94381 0.0
H1026 H 0.55804 0.45136 0.92131 0.0
H1027 H 0.51819 0.43429 0.92086 0.0
O1028 O 0.52987 0.47676 0.05426 0.0
O1029 O 0.51771 0.50866 0.99632 0.0
O1030 O 0.53351 0.54604 0.99732 0.0
O1031 O 0.55646 0.4726 0.03327 0.0
O1032 O 0.51176 0.50874 0.04664 0.0
O1033 O 0.49589 0.53207 0.02352 0.0
O1034 O 0.53067 0.5981 0.01938 0.0
O1035 O 0.53361 0.55078 0.06745 0.0
O1036 O 0.5582 0.52719 0.06009 0.0
O1037 O 0.49795 0.57476 0.00844 0.0
O1038 O 0.55907 0.56407 0.02233 0.0
O1039 O 0.57056 0.53083 0.03144 0.0
C1040 C 0.52119 0.52691 0.98542 0.0
C1041 C 0.55408 0.45222 0.06756 0.0
C1042 C 0.55116 0.41935 0.0901 0.0
C1043 C 0.57456 0.42466 0.09621 0.0
C1044 C 0.57745 0.45724 0.07433 0.0
C1045 C 0.58755 0.44348 0.08846 0.0
C1046 C 0.54088 0.43318 0.07565 0.0
C1047 C 0.49412 0.51463 0.03596 0.0
C1048 C 0.54394 0.46429 0.0489 0.0
C1049 C 0.54978 0.45648 0.93658 0.0
C1050 C 0.52707 0.44672 0.93633 0.0
C1051 C 0.54913 0.53997 0.07495 0.0
C1052 C 0.50211 0.61171 0.99384 0.0
C1053 C 0.50751 0.64614 0.97369 0.0
C1054 C 0.48417 0.6435 0.96935 0.0
C1055 C 0.47885 0.6096 0.98898 0.0
C1056 C 0.51659 0.63016 0.98607 0.0
C1057 C 0.47 0.62539 0.9769 0.0
C1058 C 0.57425 0.55178 0.02563 0.0
C1059 C 0.51055 0.59465 0.00739 0.0
H1060 H 0.58282 0.414 0.10682 0.0
H1061 H 0.58801 0.47139 0.06799 0.0
H1062 H 0.60561 0.44718 0.09306 0.0
H1063 H 0.5229 0.42872 0.07005 0.0
H1064 H 0.47686 0.6556 0.96005 0.0
H1065 H 0.46738 0.59582 0.99482 0.0
H1066 H 0.53459 0.63214 0.98969 0.0
H1067 H 0.45204 0.62364 0.97345 0.0
Eu1068 Eu 0.78551 0.31291 0.26765 0.0
C1069 C 0.73865 0.2238 0.32457 0.0
N1070 N 0.75943 0.23741 0.33187 0.0
C1071 C 0.75443 0.23664 0.37425 0.0
C1072 C 0.72439 0.21738 0.34201 0.0
C1073 C 0.76807 0.24227 0.35636 0.0
C1074 C 0.7323 0.22465 0.36703 0.0
C1075 C 0.71166 0.19881 0.29221 0.0
C1076 C 0.73233 0.2145 0.29986 0.0
C1077 C 0.69683 0.19374 0.30928 0.0
C1078 C 0.70316 0.20303 0.3341 0.0
Eu1079 Eu 0.77931 0.24795 0.29913 0.0
N1080 N 0.747 0.21947 0.28364 0.0
C1081 C 0.70686 0.18795 0.26783 0.0
C1082 C 0.74307 0.20787 0.26037 0.0
C1083 C 0.72286 0.19214 0.252 0.0
H1084 H 0.78533 0.25123 0.3621 0.0
H1085 H 0.71967 0.18323 0.23339 0.0
H1086 H 0.78441 0.29754 0.20529 0.0
H1087 H 0.8467 0.37676 0.33264 0.0
H1088 H 0.75559 0.2106 0.24838 0.0
H1089 H 0.69122 0.17572 0.26131 0.0
H1090 H 0.81252 0.34658 0.31966 0.0
H1091 H 0.76104 0.24143 0.3936 0.0
H1092 H 0.68074 0.18199 0.30364 0.0
H1093 H 0.69188 0.19824 0.34721 0.0
H1094 H 0.80904 0.30593 0.17446 0.0
H1095 H 0.72182 0.22013 0.38095 0.0
H1096 H 0.87237 0.3875 0.30262 0.0
N1097 N 0.80751 0.31807 0.23542 0.0
C1098 C 0.82679 0.33455 0.24175 0.0
C1099 C 0.81444 0.31372 0.1934 0.0
C1100 C 0.8411 0.34029 0.22413 0.0
C1101 C 0.8007 0.30858 0.21131 0.0
C1102 C 0.83486 0.32937 0.19988 0.0
N1103 N 0.81817 0.34096 0.28265 0.0
C1104 C 0.8232 0.35155 0.30635 0.0
C1105 C 0.85207 0.36331 0.2725 0.0
C1106 C 0.83211 0.34636 0.26575 0.0
C1107 C 0.85718 0.37445 0.29676 0.0
C1108 C 0.84272 0.36848 0.31377 0.0
H1109 H 0.84537 0.33343 0.18586 0.0
H1110 H 0.87212 0.36157 0.21765 0.0
H1111 H 0.88184 0.38143 0.25998 0.0
O1112 O 0.77539 0.34548 0.27683 0.0
O1113 O 0.81975 0.30587 0.28405 0.0
O1114 O 0.81449 0.27176 0.3017 0.0
O1115 O 0.76453 0.32452 0.24043 0.0
O1116 O 0.78077 0.29473 0.29989 0.0
O1117 O 0.77791 0.27471 0.32965 0.0
O1118 O 0.78945 0.21706 0.2844 0.0
O1119 O 0.74765 0.25528 0.27658 0.0
O1120 O 0.75142 0.29498 0.27856 0.0
O1121 O 0.80464 0.2357 0.32049 0.0
O1122 O 0.79091 0.265 0.26769 0.0
O1123 O 0.77467 0.282 0.23973 0.0
C1124 C 0.82747 0.29044 0.29602 0.0
C1125 C 0.75176 0.35917 0.24533 0.0
C1126 C 0.73465 0.39145 0.25162 0.0
C1127 C 0.72818 0.38952 0.22612 0.0
C1128 C 0.74511 0.35739 0.21979 0.0
C1129 C 0.73335 0.37249 0.2103 0.0
C1130 C 0.74638 0.37622 0.2613 0.0
C1131 C 0.77825 0.29438 0.32295 0.0
C1132 C 0.76401 0.34292 0.25479 0.0
C1133 C 0.86095 0.3571 0.23096 0.0
C1134 C 0.86644 0.36851 0.25505 0.0
C1135 C 0.73914 0.2736 0.27391 0.0
C1136 C 0.80558 0.19714 0.31404 0.0
C1137 C 0.82425 0.16584 0.31362 0.0
C1138 C 0.8179 0.16164 0.33652 0.0
C1139 C 0.79886 0.1927 0.33681 0.0
C1140 C 0.81791 0.1834 0.30233 0.0
C1141 C 0.80501 0.17492 0.34795 0.0
C1142 C 0.77894 0.26342 0.24638 0.0
C1143 C 0.80359 0.21808 0.30425 0.0
H1144 H 0.71894 0.40112 0.21851 0.0
H1145 H 0.74902 0.34434 0.20707 0.0
H1146 H 0.72823 0.37098 0.19065 0.0
H1147 H 0.75125 0.37769 0.28103 0.0
H1148 H 0.82311 0.14827 0.34557 0.0
H1149 H 0.78963 0.20341 0.34636 0.0
H1150 H 0.82362 0.18713 0.28507 0.0
H1151 H 0.80026 0.1718 0.36572 0.0
Eu1152 Eu 0.0376 0.54741 0.49894 0.0
C1153 C 0.07897 0.4947 0.5916 0.0
N1154 N 0.0618 0.48614 0.57302 0.0
C1155 C 0.07461 0.45154 0.56699 0.0
C1156 C 0.09554 0.48256 0.59759 0.0
C1157 C 0.05871 0.46439 0.5617 0.0
C1158 C 0.09342 0.46088 0.58461 0.0
C1159 C 0.09634 0.52446 0.62542 0.0
C1160 C 0.07923 0.51515 0.6055 0.0
C1161 C 0.1137 0.51315 0.63056 0.0
C1162 C 0.11325 0.49218 0.61672 0.0
Eu1163 Eu 0.03779 0.51049 0.56245 0.0
N1164 N 0.06238 0.52575 0.59966 0.0
C1165 C 0.0952 0.54458 0.6398 0.0
C1166 C 0.0601 0.54415 0.61489 0.0
C1167 C 0.0767 0.55417 0.63485 0.0
H1168 H 0.04371 0.45686 0.54892 0.0
H1169 H 0.07514 0.56918 0.64648 0.0
H1170 H 0.03529 0.6016 0.51008 0.0
H1171 H 0.97962 0.47744 0.43583 0.0
H1172 H 0.04539 0.55096 0.61183 0.0
H1173 H 0.10805 0.55237 0.65523 0.0
H1174 H 0.01063 0.49429 0.46825 0.0
H1175 H 0.07227 0.43441 0.5576 0.0
H1176 H 0.12719 0.52017 0.64557 0.0
H1177 H 0.12637 0.48329 0.62133 0.0
H1178 H 0.01137 0.62723 0.49678 0.0
H1179 H 0.10573 0.45092 0.58868 0.0
H1180 H 0.95608 0.50133 0.41757 0.0
N1181 N 0.01657 0.57297 0.48511 0.0
C1182 C 0.9988 0.56462 0.46723 0.0
C1183 C 0.0077 0.60969 0.48821 0.0
C1184 C 0.98464 0.57865 0.4591 0.0
C1185 C 0.02123 0.59514 0.49566 0.0
C1186 C 0.98932 0.60142 0.46983 0.0
N1187 N 0.00747 0.52854 0.46716 0.0
C1188 C 1.00187 0.50554 0.45981 0.0
C1189 C 0.97529 0.53243 0.43978 0.0
C1190 C 0.99421 0.5418 0.4578 0.0
C1191 C 0.97041 0.50914 0.43138 0.0
C1192 C 0.98368 0.49563 0.44159 0.0
H1193 H 0.97875 0.61269 0.46422 0.0
H1194 H 0.95498 0.57996 0.43452 0.0
H1195 H 0.94685 0.53948 0.4175 0.0
O1196 O 0.06286 0.54494 0.47545 0.0
O1197 O 0.00552 0.53927 0.51327 0.0
O1198 O 0.01437 0.50818 0.52691 0.0
O1199 O 0.06313 0.57759 0.49602 0.0
O1200 O 0.04464 0.51165 0.49197 0.0
O1201 O 0.04162 0.48994 0.52514 0.0
O1202 O 0.01033 0.51159 0.58385 0.0
O1203 O 0.07259 0.53074 0.56195 0.0
O1204 O 0.05124 0.53507 0.53059 0.0
O1205 O 0.01838 0.47941 0.57207 0.0
O1206 O 0.03222 0.54774 0.56836 0.0
O1207 O 0.03955 0.56989 0.53602 0.0
C1208 C 1.0002 0.52139 0.52421 0.0
C1209 C 0.0765 0.57705 0.45726 0.0
C1210 C 0.0872 0.57316 0.41641 0.0
C1211 C 0.08587 0.59572 0.41459 0.0
C1212 C 0.0754 0.59969 0.45544 0.0
C1213 C 0.08015 0.60896 0.43413 0.0
C1214 C 0.0828 0.56402 0.4378 0.0
C1215 C 0.04495 0.49264 0.50193 0.0
C1216 C 0.07177 0.56667 0.47931 0.0
C1217 C 0.96605 0.56946 0.44095 0.0
C1218 C 0.96143 0.54642 0.43126 0.0
C1219 C 0.07125 0.53982 0.54226 0.0
C1220 C 1.00234 0.48226 0.60876 0.0
C1221 C 0.98871 0.48804 0.6478 0.0
C1222 C 0.99174 0.46663 0.65266 0.0
C1223 C 0.00521 0.4607 0.61367 0.0
C1224 C 0.99384 0.49577 0.62587 0.0
C1225 C 0.99991 0.45298 0.63556 0.0
C1226 C 0.03492 0.56731 0.55872 0.0
C1227 C 0.00627 0.48981 0.58502 0.0
H1228 H 0.08972 0.60321 0.39827 0.0
H1229 H 0.07095 0.61021 0.4704 0.0
H1230 H 0.07945 0.62644 0.43278 0.0
H1231 H 0.08413 0.54664 0.43916 0.0
H1232 H 0.98748 0.4604 0.66952 0.0
H1233 H 0.01123 0.44968 0.60048 0.0
H1234 H 0.99104 0.51221 0.62217 0.0
H1235 H 1.00195 0.43633 0.63918 0.0
Eu1236 Eu 0.81131 0.77228 0.28021 0.0
C1237 C 0.73042 0.80596 0.22439 0.0
N1238 N 0.74523 0.81714 0.24435 0.0
C1239 C 0.74838 0.8521 0.22747 0.0
C1240 C 0.72411 0.8176 0.20498 0.0
C1241 C 0.7542 0.83986 0.24624 0.0
C1242 C 0.73327 0.84093 0.20675 0.0
C1243 C 0.70683 0.77063 0.20242 0.0
C1244 C 0.72193 0.78267 0.22312 0.0
C1245 C 0.70041 0.78222 0.18314 0.0
C1246 C 0.70902 0.80562 0.18442 0.0
Eu1247 Eu 0.75334 0.79522 0.27528 0.0
N1248 N 0.72876 0.77176 0.24186 0.0
C1249 C 0.69857 0.74726 0.20174 0.0
C1250 C 0.72007 0.74919 0.24169 0.0
C1251 C 0.70511 0.73655 0.22153 0.0
H1252 H 0.76555 0.84866 0.26243 0.0
H1253 H 0.69842 0.71859 0.22141 0.0
H1254 H 0.79856 0.71834 0.29173 0.0
H1255 H 0.87177 0.84568 0.33225 0.0
H1256 H 0.72418 0.74092 0.2572 0.0
H1257 H 0.68692 0.73742 0.18618 0.0
H1258 H 0.84517 0.82388 0.29644 0.0
H1259 H 0.75547 0.87015 0.22904 0.0
H1260 H 0.6888 0.77323 0.16713 0.0
H1261 H 0.70394 0.81429 0.16935 0.0
H1262 H 0.80609 0.69645 0.32559 0.0
H1263 H 0.72881 0.85048 0.19223 0.0
H1264 H 0.8804 0.827 0.36867 0.0
N1265 N 0.81871 0.74954 0.31074 0.0
C1266 C 0.83319 0.76021 0.33113 0.0
C1267 C 0.81373 0.7144 0.32744 0.0
C1268 C 0.83831 0.74831 0.35074 0.0
C1269 C 0.80928 0.72689 0.30841 0.0
C1270 C 0.82823 0.72517 0.34876 0.0
N1271 N 0.83718 0.79428 0.31337 0.0
C1272 C 0.84796 0.81609 0.3127 0.0
C1273 C 0.85825 0.79469 0.35308 0.0
C1274 C 0.84284 0.7832 0.33241 0.0
C1275 C 0.86836 0.81759 0.3532 0.0
C1276 C 0.86343 0.82823 0.33275 0.0
H1277 H 0.83169 0.71543 0.36345 0.0
H1278 H 0.85744 0.75096 0.38686 0.0
H1279 H 0.87507 0.79149 0.38881 0.0
O1280 O 0.83912 0.7814 0.25814 0.0
O1281 O 0.79802 0.78113 0.31627 0.0
O1282 O 0.78017 0.8096 0.3079 0.0
O1283 O 0.82968 0.74728 0.26809 0.0
O1284 O 0.81099 0.80555 0.26459 0.0
O1285 O 0.78558 0.82215 0.28367 0.0
O1286 O 0.7242 0.786 0.29544 0.0
O1287 O 0.76746 0.78718 0.23952 0.0
O1288 O 0.78343 0.75797 0.24882 0.0
O1289 O 0.7352 0.82049 0.28694 0.0
O1290 O 0.75421 0.76319 0.29266 0.0
O1291 O 0.77862 0.74571 0.27311 0.0
C1292 C 0.78868 0.79785 0.32346 0.0
C1293 C 0.86006 0.75284 0.24353 0.0
C1294 C 0.89442 0.75857 0.22415 0.0
C1295 C 0.8919 0.7349 0.21986 0.0
C1296 C 0.85818 0.72924 0.23869 0.0
C1297 C 0.87391 0.72042 0.22694 0.0
C1298 C 0.87821 0.76766 0.23583 0.0
C1299 C 0.8028 0.82327 0.27152 0.0
C1300 C 0.84289 0.76097 0.25686 0.0
C1301 C 0.85332 0.75982 0.37159 0.0
C1302 C 0.86332 0.78292 0.37273 0.0
C1303 C 0.77608 0.76982 0.23265 0.0
C1304 C 0.70361 0.81496 0.30957 0.0
C1305 C 0.66952 0.80927 0.32922 0.0
C1306 C 0.67131 0.83289 0.33223 0.0
C1307 C 0.70474 0.83849 0.31297 0.0
C1308 C 0.68598 0.80024 0.31809 0.0
C1309 C 0.68878 0.84732 0.32425 0.0
C1310 C 0.76202 0.74513 0.28624 0.0
C1311 C 0.72114 0.80671 0.29717 0.0
H1312 H 0.90393 0.72753 0.2108 0.0
H1313 H 0.84445 0.71742 0.24403 0.0
H1314 H 0.87219 0.7022 0.22339 0.0
H1315 H 0.87998 0.78591 0.23931 0.0
H1316 H 0.65915 0.84029 0.34102 0.0
H1317 H 0.71809 0.85027 0.30694 0.0
H1318 H 0.68483 0.78206 0.31571 0.0
H1319 H 0.68995 0.86548 0.3268 0.0
Eu1320 Eu 0.76705 0.27765 0.80978 0.0
C1321 C 0.81981 0.23774 0.7148 0.0
N1322 N 0.8275 0.25466 0.7341 0.0
C1323 C 0.86309 0.24439 0.73891 0.0
C1324 C 0.83357 0.22323 0.70701 0.0
C1325 C 0.84884 0.25827 0.74607 0.0
C1326 C 0.85542 0.22677 0.71933 0.0
C1327 C 0.78915 0.21633 0.68393 0.0
C1328 C 0.79786 0.23439 0.70332 0.0
C1329 C 0.8029 0.20205 0.67598 0.0
C1330 C 0.82504 0.20548 0.68748 0.0
Eu1331 Eu 0.80226 0.27701 0.74537 0.0
N1332 N 0.78463 0.24792 0.71212 0.0
C1333 C 0.76672 0.21278 0.67347 0.0
C1334 C 0.76265 0.24432 0.70201 0.0
C1335 C 0.75343 0.22683 0.68259 0.0
H1336 H 0.85502 0.27206 0.76101 0.0
H1337 H 0.73597 0.22406 0.67481 0.0
H1338 H 0.71498 0.28489 0.80146 0.0
H1339 H 0.83706 0.32292 0.88138 0.0
H1340 H 0.75186 0.25443 0.70899 0.0
H1341 H 0.75942 0.19907 0.65861 0.0
H1342 H 0.81643 0.29109 0.85101 0.0
H1343 H 0.88 0.2473 0.74848 0.0
H1344 H 0.79648 0.18809 0.66116 0.0
H1345 H 0.83536 0.19415 0.68131 0.0
H1346 H 0.69384 0.31378 0.81353 0.0
H1347 H 0.86648 0.21596 0.71392 0.0
H1348 H 0.8199 0.35515 0.89308 0.0
N1349 N 0.74518 0.30254 0.82387 0.0
C1350 C 0.75559 0.32068 0.84081 0.0
C1351 C 0.71123 0.31601 0.82127 0.0
C1352 C 0.7443 0.33769 0.8482 0.0
C1353 C 0.72323 0.29973 0.81437 0.0
C1354 C 0.72188 0.33522 0.83807 0.0
N1355 N 0.78776 0.30517 0.84341 0.0
C1356 C 0.80862 0.30503 0.8549 0.0
C1357 C 0.78884 0.3407 0.86869 0.0
C1358 C 0.77757 0.32211 0.85083 0.0
C1359 C 0.81067 0.34118 0.87932 0.0
C1360 C 0.82043 0.32307 0.87269 0.0
H1361 H 0.71261 0.34791 0.84327 0.0
H1362 H 0.74735 0.36989 0.87112 0.0
H1363 H 0.7864 0.37253 0.8891 0.0
O1364 O 0.76793 0.25011 0.83137 0.0
O1365 O 0.77656 0.31161 0.79779 0.0
O1366 O 0.8038 0.29954 0.78093 0.0
O1367 O 0.73591 0.25549 0.8159 0.0
O1368 O 0.80148 0.26775 0.81437 0.0
O1369 O 0.82356 0.27804 0.78323 0.0
O1370 O 0.79893 0.30191 0.72049 0.0
O1371 O 0.78775 0.241 0.75045 0.0
O1372 O 0.77629 0.26337 0.77614 0.0
O1373 O 0.8319 0.29793 0.73494 0.0
O1374 O 0.76683 0.2852 0.74064 0.0
O1375 O 0.74476 0.27649 0.77241 0.0
C1376 C 0.79168 0.31458 0.78323 0.0
C1377 C 0.73875 0.24228 0.85487 0.0
C1378 C 0.74517 0.23119 0.89558 0.0
C1379 C 0.72604 0.2385 0.90156 0.0
C1380 C 0.71949 0.2493 0.86094 0.0
C1381 C 0.7132 0.24736 0.88422 0.0
C1382 C 0.75131 0.23293 0.87219 0.0
C1383 C 0.8207 0.27083 0.80491 0.0
C1384 C 0.74631 0.2447 0.83087 0.0
C1385 C 0.75567 0.35652 0.86541 0.0
C1386 C 0.7779 0.35804 0.87562 0.0
C1387 C 0.77625 0.24272 0.76813 0.0
C1388 C 0.82748 0.31004 0.69573 0.0
C1389 C 0.82535 0.32796 0.65878 0.0
C1390 C 0.84276 0.31851 0.65116 0.0
C1391 C 0.84474 0.30032 0.68787 0.0
C1392 C 0.81767 0.32364 0.68093 0.0
C1393 C 0.85228 0.30457 0.66561 0.0
C1394 C 0.74759 0.28269 0.75018 0.0
C1395 C 0.82041 0.30772 0.71992 0.0
H1396 H 0.72069 0.23675 0.91937 0.0
H1397 H 0.70935 0.25632 0.84782 0.0
H1398 H 0.69829 0.25264 0.88881 0.0
H1399 H 0.76598 0.22709 0.86753 0.0
H1400 H 0.84893 0.32194 0.63408 0.0
H1401 H 0.8526 0.28976 0.699 0.0
H1402 H 0.80452 0.33141 0.68697 0.0
H1403 H 0.86571 0.29728 0.65969 0.0
Eu1404 Eu 0.77514 0.75822 0.76443 0.0
C1405 C 0.85034 0.83402 0.82942 0.0
N1406 N 0.83061 0.82112 0.83355 0.0
C1407 C 0.8456 0.82214 0.87581 0.0
C1408 C 0.8685 0.84158 0.84863 0.0
C1409 C 0.82798 0.81517 0.85632 0.0
C1410 C 0.86589 0.83554 0.87201 0.0
C1411 C 0.87302 0.85244 0.80105 0.0
C1412 C 0.85247 0.83978 0.80588 0.0
C1413 C 0.89087 0.86043 0.82033 0.0
C1414 C 0.88858 0.85512 0.84405 0.0
Eu1415 Eu 0.80065 0.81816 0.80195 0.0
N1416 N 0.83469 0.83252 0.78761 0.0
C1417 C 0.8751 0.85657 0.77692 0.0
C1418 C 0.83696 0.83562 0.76388 0.0
C1419 C 0.85715 0.84769 0.75818 0.0
H1420 H 0.81195 0.80629 0.86001 0.0
H1421 H 0.85879 0.85024 0.73935 0.0
H1422 H 0.76215 0.75647 0.70312 0.0
H1423 H 0.73025 0.70335 0.82258 0.0
H1424 H 0.82355 0.82851 0.74918 0.0
H1425 H 0.89064 0.86616 0.77247 0.0
H1426 H 0.76315 0.72691 0.80936 0.0
H1427 H 0.84331 0.81773 0.89393 0.0
H1428 H 0.90662 0.87058 0.81704 0.0
H1429 H 0.90256 0.86138 0.8587 0.0
H1430 H 0.72887 0.74449 0.67115 0.0
H1431 H 0.87938 0.84123 0.88728 0.0
H1432 H 0.69361 0.69437 0.79573 0.0
N1433 N 0.74437 0.74645 0.73221 0.0
C1434 C 0.72511 0.7343 0.73815 0.0
C1435 C 0.72741 0.74195 0.69003 0.0
C1436 C 0.70581 0.72646 0.72037 0.0
C1437 C 0.74608 0.74923 0.70826 0.0
C1438 C 0.70703 0.73096 0.69621 0.0
N1439 N 0.74482 0.73385 0.77725 0.0
C1440 C 0.74703 0.7243 0.79832 0.0
C1441 C 0.70626 0.71347 0.76755 0.0
C1442 C 0.72536 0.72772 0.76136 0.0
C1443 C 0.70788 0.70537 0.79029 0.0
C1444 C 0.7285 0.71044 0.80552 0.0
H1445 H 0.69264 0.72507 0.68199 0.0
H1446 H 0.67131 0.70742 0.71358 0.0
H1447 H 0.67166 0.69617 0.755 0.0
O1448 O 0.79567 0.73397 0.77211 0.0
O1449 O 0.74932 0.77186 0.78504 0.0
O1450 O 0.76185 0.81105 0.79124 0.0
O1451 O 0.77632 0.73123 0.7354 0.0
O1452 O 0.79188 0.76111 0.8043 0.0
O1453 O 0.78275 0.79255 0.82326 0.0
O1454 O 0.80658 0.85502 0.80475 0.0
O1455 O 0.82475 0.79407 0.79405 0.0
O1456 O 0.8078 0.779 0.75571 0.0
O1457 O 0.79673 0.83841 0.8357 0.0
O1458 O 0.78718 0.82246 0.76321 0.0
O1459 O 0.77643 0.78625 0.74037 0.0
C1460 C 0.74559 0.79249 0.78978 0.0
C1461 C 0.79871 0.70384 0.74118 0.0
C1462 C 0.80837 0.66916 0.7505 0.0
C1463 C 0.80991 0.66286 0.72565 0.0
C1464 C 0.80031 0.69791 0.71625 0.0
C1465 C 0.80617 0.67747 0.70856 0.0
C1466 C 0.80319 0.68971 0.7582 0.0
C1467 C 0.78631 0.77218 0.82359 0.0
C1468 C 0.79023 0.7234 0.7496 0.0
C1469 C 0.68635 0.71337 0.72691 0.0
C1470 C 0.68656 0.70694 0.75049 0.0
C1471 C 0.82598 0.78378 0.77204 0.0
C1472 C 0.79113 0.87547 0.83492 0.0
C1473 C 0.76925 0.90292 0.82507 0.0
C1474 C 0.77262 0.91208 0.85011 0.0
C1475 C 0.79436 0.88465 0.85987 0.0
C1476 C 0.77841 0.88447 0.81759 0.0
C1477 C 0.78505 0.90287 0.86743 0.0
C1478 C 0.77982 0.80861 0.74239 0.0
C1479 C 0.80253 0.85762 0.8274 0.0
H1480 H 0.81392 0.64677 0.71957 0.0
H1481 H 0.79675 0.70883 0.70281 0.0
H1482 H 0.80736 0.67275 0.68936 0.0
H1483 H 0.80137 0.69406 0.77738 0.0
H1484 H 0.76596 0.92658 0.85623 0.0
H1485 H 0.80436 0.87792 0.87343 0.0
H1486 H 0.77574 0.87723 0.79832 0.0
H1487 H 0.78774 0.91005 0.88666 0.0
Eu1488 Eu 0.55926 0.54234 0.54181 0.0
C1489 C 0.48152 0.46408 0.47941 0.0
N1490 N 0.49444 0.48412 0.47562 0.0
C1491 C 0.49797 0.46756 0.43511 0.0
C1492 C 0.47693 0.44476 0.46123 0.0
C1493 C 0.50202 0.48626 0.45354 0.0
C1494 C 0.48558 0.44666 0.43906 0.0
C1495 C 0.45755 0.44273 0.50469 0.0
C1496 C 0.47182 0.4631 0.50094 0.0
C1497 C 0.45368 0.42333 0.487 0.0
C1498 C 0.46327 0.42436 0.46532 0.0
Eu1499 Eu 0.49886 0.5149 0.50746 0.0
N1500 N 0.47519 0.48228 0.5175 0.0
C1501 C 0.44687 0.44262 0.52568 0.0
C1502 C 0.46345 0.4826 0.53702 0.0
C1503 C 0.44962 0.46272 0.54175 0.0
H1504 H 0.51041 0.5025 0.44951 0.0
H1505 H 0.44073 0.46304 0.55752 0.0
H1506 H 0.55786 0.55506 0.60282 0.0
H1507 H 0.60691 0.59221 0.48152 0.0
H1508 H 0.46432 0.49827 0.54886 0.0
H1509 H 0.43583 0.42731 0.52919 0.0
H1510 H 0.58473 0.55779 0.49398 0.0
H1511 H 0.50404 0.46941 0.41767 0.0
H1512 H 0.44279 0.40759 0.48963 0.0
H1513 H 0.45963 0.4094 0.45156 0.0
H1514 H 0.57009 0.58819 0.63526 0.0
H1515 H 0.48224 0.43226 0.4246 0.0
H1516 H 0.61758 0.62802 0.51062 0.0
N1517 N 0.56926 0.57328 0.57428 0.0
C1518 C 0.58134 0.59299 0.56872 0.0
C1519 C 0.57308 0.58989 0.61657 0.0
C1520 C 0.5892 0.61221 0.58691 0.0
C1521 C 0.56584 0.57126 0.59804 0.0
C1522 C 0.58459 0.61054 0.61094 0.0
N1523 N 0.58074 0.57441 0.5285 0.0
C1524 C 0.58838 0.57352 0.50626 0.0
C1525 C 0.60067 0.61347 0.53928 0.0
C1526 C 0.58721 0.59358 0.54521 0.0
C1527 C 0.60727 0.61308 0.51586 0.0
C1528 C 0.60128 0.59292 0.49937 0.0
H1529 H 0.59045 0.62488 0.62542 0.0
H1530 H 0.60821 0.6471 0.5946 0.0
H1531 H 0.6181 0.64826 0.55286 0.0
O1532 O 0.59105 0.53386 0.53545 0.0
O1533 O 0.54495 0.56664 0.51888 0.0
O1534 O 0.50751 0.554 0.52078 0.0
O1535 O 0.58177 0.53671 0.57273 0.0
O1536 O 0.55495 0.522 0.50363 0.0
O1537 O 0.52399 0.53172 0.48533 0.0
O1538 O 0.46709 0.52359 0.51165 0.0
O1539 O 0.52118 0.48915 0.51344 0.0
O1540 O 0.54332 0.50646 0.5497 0.0
O1541 O 0.47645 0.51774 0.47459 0.0
O1542 O 0.5028 0.51552 0.54874 0.0
O1543 O 0.53098 0.54684 0.5636 0.0
C1544 C 0.52447 0.57013 0.51709 0.0
C1545 C 0.61783 0.52839 0.5688 0.0
C1546 C 0.64995 0.51287 0.56199 0.0
C1547 C 0.65716 0.51631 0.58745 0.0
C1548 C 0.62512 0.53206 0.59428 0.0
C1549 C 0.64484 0.52612 0.60353 0.0
C1550 C 0.63048 0.51916 0.55273 0.0
C1551 C 0.5436 0.52703 0.48421 0.0
C1552 C 0.59672 0.53336 0.55886 0.0
C1553 C 0.60209 0.63219 0.58086 0.0
C1554 C 0.60775 0.63285 0.5571 0.0
C1555 C 0.53398 0.48791 0.534 0.0
C1556 C 0.44032 0.52721 0.47764 0.0
C1557 C 0.40777 0.54196 0.48466 0.0
C1558 C 0.40132 0.54023 0.45923 0.0
C1559 C 0.43379 0.5251 0.45211 0.0
C1560 C 0.427 0.53523 0.49374 0.0
C1561 C 0.41422 0.5315 0.44297 0.0
C1562 C 0.51351 0.53146 0.56658 0.0
C1563 C 0.46158 0.52263 0.48796 0.0
H1564 H 0.67224 0.51139 0.59481 0.0
H1565 H 0.61554 0.53934 0.607 0.0
H1566 H 0.65042 0.52884 0.62316 0.0
H1567 H 0.62476 0.51597 0.53305 0.0
H1568 H 0.38648 0.54568 0.45208 0.0
H1569 H 0.44393 0.51889 0.43931 0.0
H1570 H 0.43201 0.53722 0.51351 0.0
H1571 H 0.40927 0.53007 0.42331 0.0
Eu1572 Eu 0.0081 0.5307 0.03674 0.0
C1573 C 0.08662 0.58084 0.98756 0.0
N1574 N 0.07044 0.56139 0.98048 0.0
C1575 C 0.06486 0.57074 0.9395 0.0
C1576 C 0.09203 0.59629 0.97076 0.0
C1577 C 0.06014 0.55583 0.95663 0.0
C1578 C 0.08078 0.59111 0.9466 0.0
C1579 C 0.11427 0.60575 0.01951 0.0
C1580 C 0.09782 0.5855 0.01181 0.0
C1581 C 0.11965 0.62103 0.00269 0.0
C1582 C 0.1086 0.61631 0.97844 0.0
Eu1583 Eu 0.06722 0.53658 0.01039 0.0
N1584 N 0.09215 0.57064 0.02802 0.0
C1585 C 0.12476 0.61014 0.04399 0.0
C1586 C 0.10249 0.5746 0.05174 0.0
C1587 C 0.11884 0.59452 0.06016 0.0
H1588 H 0.04896 0.53955 0.95028 0.0
H1589 H 0.12707 0.59769 0.07902 0.0
H1590 H 0.0225 0.53204 0.09834 0.0
H1591 H 0.94192 0.47179 0.97373 0.0
H1592 H 0.09851 0.56219 0.06398 0.0
H1593 H 0.13751 0.62551 0.05058 0.0
H1594 H 0.97135 0.50701 0.98741 0.0
H1595 H 0.05657 0.56628 0.92066 0.0
H1596 H 0.13233 0.63662 0.00829 0.0
H1597 H 0.11299 0.62829 0.96573 0.0
H1598 H 0.01637 0.50616 0.12925 0.0
H1599 H 0.08453 0.60252 0.93317 0.0
H1600 H 0.93489 0.44282 0.00172 0.0
N1601 N 1.00411 0.50761 0.06834 0.0
C1602 C 0.98924 0.4872 0.06167 0.0
C1603 C 0.00895 0.50046 0.11024 0.0
C1604 C 0.98417 0.47238 0.07917 0.0
C1605 C 0.01292 0.51489 0.09247 0.0
C1606 C 0.99474 0.479 0.10351 0.0
N1607 N 0.98198 0.49676 0.02141 0.0
C1608 C 0.96887 0.49393 -0.00086 0.0
C1609 C 0.96066 0.46181 0.03105 0.0
C1610 C 0.97757 0.48184 0.03777 0.0
C1611 C 0.9481 0.45796 0.00751 0.0
C1612 C 0.95203 0.47424 0.99161 0.0
H1613 H 0.99129 0.46808 0.11746 0.0
H1614 H 0.96391 0.4404 0.08541 0.0
H1615 H 0.94332 0.43122 0.04338 0.0
O1616 O 0.98304 0.54978 0.02406 0.0
O1617 O 0.01435 0.49813 0.01551 0.0
O1618 O 0.05264 0.50089 0.01983 0.0
O1619 O 0.98182 0.53528 0.05806 0.0
O1620 O 0.01489 0.5429 0.00098 0.0
O1621 O 0.03636 0.52081 0.98392 0.0
O1622 O 0.10149 0.53108 0.01563 0.0
O1623 O 0.05431 0.56981 0.01963 0.0
O1624 O 0.03194 0.56508 0.05041 0.0
O1625 O 0.0814 0.52269 0.97959 0.0
O1626 O 0.06681 0.52589 0.04799 0.0
O1627 O 0.0399 0.54269 0.0633 0.0
C1628 C 0.03183 0.48859 0.01623 0.0
C1629 C 0.96319 0.56506 0.05454 0.0
C1630 C 0.93171 0.58347 0.05424 0.0
C1631 C 0.93876 0.59226 0.07918 0.0
C1632 C 0.97038 0.57446 0.07936 0.0
C1633 C 0.95816 0.58798 0.09157 0.0
C1634 C 0.94408 0.57004 0.04189 0.0
C1635 C 0.01879 0.52959 0.98258 0.0
C1636 C 0.97265 0.54686 0.0431 0.0
C1637 C 0.96798 0.45195 0.07218 0.0
C1638 C 0.95623 0.44672 0.04823 0.0
C1639 C 0.04417 0.57833 0.03728 0.0
C1640 C 0.1122 0.50509 0.98539 0.0
C1641 C 0.14061 0.48342 0.99404 0.0
C1642 C 0.13752 0.47442 0.96905 0.0
C1643 C 0.10943 0.49588 0.96038 0.0
C1644 C 0.12801 0.49882 0.00228 0.0
C1645 C 0.12198 0.48063 0.95233 0.0
C1646 C 0.05648 0.5324 0.066 0.0
C1647 C 0.10064 0.52328 0.99247 0.0
H1648 H 0.92933 0.60259 0.089 0.0
H1649 H 0.98492 0.57065 0.08959 0.0
H1650 H 0.96348 0.5948 0.11081 0.0
H1651 H 0.9382 0.56254 0.02288 0.0
H1652 H 0.14729 0.46267 0.96248 0.0
H1653 H 0.0979 0.5009 0.94685 0.0
H1654 H 0.13079 0.50607 0.02153 0.0
H1655 H 0.11986 0.47383 0.93302 0.0
H1656 H 0.02958 0.20302 0.96173 0.0
H1657 H 0.9865 0.09119 0.0254 0.0
H1658 H 0.97689 0.19668 0.00709 0.0
H1659 H 0.04952 0.10325 0.99719 0.0
H1660 H 0.98162 0.12864 0.01604 0.0
H1661 H 0.03617 0.16601 0.9716 0.0
C1662 C 0.01939 0.19401 0.97376 0.0
C1663 C 1.00254 0.2034 0.98345 0.0
C1664 C 0.99656 0.12315 0.01186 0.0
C1665 C 0.00996 0.16038 0.99476 0.0
C1666 C 0.99933 0.1016 0.01719 0.0
C1667 C 0.0185 0.09369 0.01225 0.0
C1668 C 0.01282 0.13718 0.00098 0.0
C1669 C 0.03451 0.1084 0.0016 0.0
C1670 C 0.0232 0.17276 0.97943 0.0
C1671 C 0.99002 0.1905 -0.00103 0.0
N1672 N 0.03127 0.12914 0.99623 0.0
N1673 N 0.99388 0.16993 0.00393 0.0
H1674 H 0.141 0.82113 0.15165 0.0
H1675 H 0.20426 0.75605 0.24698 0.0
H1676 H 0.11625 0.75193 0.16344 0.0
H1677 H 0.24179 0.81012 0.21426 0.0
H1678 H 0.17014 0.7587 0.22108 0.0
H1679 H 0.17629 0.82173 0.17864 0.0
C1680 C 0.14284 0.80613 0.15986 0.0
C1681 C 0.12537 0.78642 0.15501 0.0
C1682 C 0.18579 0.7701 0.21957 0.0
C1683 C 0.16571 0.78711 0.18621 0.0
C1684 C 0.20535 0.76864 0.2345 0.0
C1685 C 0.22611 0.7828 0.23288 0.0
C1686 C 0.18659 0.78615 0.20298 0.0
C1687 C 0.22625 0.7987 0.21607 0.0
C1688 C 0.16306 0.80646 0.17521 0.0
C1689 C 0.129 0.76755 0.16633 0.0
N1690 N 0.20686 0.80003 0.20192 0.0
N1691 N 0.14845 0.76844 0.1813 0.0
H1692 H 0.46932 0.84109 0.4826 0.0
H1693 H 0.56005 0.9607 0.50636 0.0
H1694 H 0.53957 0.84484 0.48009 0.0
H1695 H 0.48991 0.95404 0.51121 0.0
H1696 H 0.55371 0.91908 0.49786 0.0
H1697 H 0.47736 0.88215 0.49466 0.0
C1698 C 0.48657 0.85046 0.48477 0.0
C1699 C 0.50372 0.83903 0.48018 0.0
C1700 C 0.53969 0.92668 0.50093 0.0
C1701 C 0.51316 0.88717 0.49394 0.0
C1702 C 0.54326 0.95061 0.50576 0.0
C1703 C 0.5255 0.96137 0.50986 0.0
C1704 C 0.51808 0.91298 0.49991 0.0
C1705 C 0.50423 0.94694 0.50878 0.0
C1706 C 0.49114 0.87414 0.49166 0.0
C1707 C 0.52571 0.85259 0.48349 0.0
N1708 N 0.50116 0.92378 0.50389 0.0
N1709 N 0.52973 0.8758 0.48993 0.0
H1710 H 0.52239 0.2844 0.67714 0.0
H1711 H 0.39382 0.28443 0.68799 0.0
H1712 H 0.47921 0.30784 0.62336 0.0
H1713 H 0.43864 0.26534 0.7435 0.0
H1714 H 0.42575 0.29742 0.66629 0.0
H1715 H 0.49276 0.28045 0.70333 0.0
C1716 C 0.50676 0.28885 0.67087 0.0
C1717 C 0.50333 0.29634 0.64788 0.0
C1718 C 0.42871 0.29085 0.68351 0.0
C1719 C 0.46918 0.2919 0.67791 0.0
C1720 C 0.41051 0.28374 0.69605 0.0
C1721 C 0.41365 0.27394 0.71763 0.0
C1722 C 0.45012 0.28793 0.69254 0.0
C1723 C 0.43556 0.27292 0.72698 0.0
C1724 C 0.48981 0.28663 0.68588 0.0
C1725 C 0.48263 0.30185 0.64083 0.0
N1726 N 0.45285 0.27952 0.71427 0.0
N1727 N 0.46637 0.29941 0.65567 0.0
H1728 H 1.00073 0.79378 0.64696 0.0
H1729 H 0.06441 0.91835 0.62653 0.0
H1730 H 0.0675 0.82766 0.68177 0.0
H1731 H 0.01568 0.87471 0.5697 0.0
H1732 H 0.0583 0.88871 0.65338 0.0
H1733 H 0.99964 0.8262 0.62395 0.0
C1734 C 0.01512 0.80795 0.64981 0.0
C1735 C 0.03431 0.80781 0.66629 0.0
C1736 C 0.04858 0.88579 0.63521 0.0
C1737 C 0.03292 0.84511 0.64046 0.0
C1738 C 0.05185 0.90283 0.62004 0.0
C1739 C 0.04041 0.89902 0.59596 0.0
C1740 C 0.03373 0.86475 0.62629 0.0
C1741 C 0.02467 0.87834 0.58825 0.0
C1742 C 0.01445 0.82645 0.63672 0.0
C1743 C 0.05236 0.82681 0.66928 0.0
N1744 N 0.02188 0.8619 0.60327 0.0
N1745 N 0.05119 0.84457 0.65662 0.0
H1746 H 0.47225 0.80032 0.792 0.0
H1747 H 0.35098 0.78658 0.83912 0.0
H1748 H 0.46103 0.80148 0.86762 0.0
H1749 H 0.35823 0.79694 0.76438 0.0
H1750 H 0.39155 0.79129 0.84848 0.0
H1751 H 0.43167 0.79839 0.78003 0.0
C1752 C 0.4615 0.80046 0.80614 0.0
C1753 C 0.4705 0.80098 0.83099 0.0
C1754 C 0.38445 0.79252 0.82994 0.0
C1755 C 0.4236 0.79866 0.8173 0.0
C1756 C 0.36105 0.78977 0.82455 0.0
C1757 C 0.35074 0.79121 0.80083 0.0
C1758 C 0.39827 0.79641 0.81151 0.0
C1759 C 0.36518 0.7957 0.78296 0.0
C1760 C 0.43819 0.79926 0.79926 0.0
C1761 C 0.45525 0.80084 0.84822 0.0
N1762 N 0.38799 0.7979 0.78856 0.0
N1763 N 0.433 0.79966 0.84113 0.0
H1764 H 0.54406 0.20646 0.12231 0.0
H1765 H 0.50914 0.06959 0.09794 0.0
H1766 H 0.50295 0.16818 0.16804 0.0
H1767 H 0.55106 0.11112 0.05548 0.0
H1768 H 0.50629 0.10431 0.1239 0.0
H1769 H 0.54639 0.17118 0.09834 0.0
C1770 C 0.53534 0.19062 0.12734 0.0
C1771 C 0.52311 0.19062 0.14735 0.0
C1772 C 0.51606 0.10582 0.10887 0.0
C1773 C 0.52577 0.14929 0.11931 0.0
C1774 C 0.51773 0.08593 0.09396 0.0
C1775 C 0.53024 0.08717 0.07412 0.0
C1776 C 0.527 0.12731 0.1041 0.0
C1777 C 0.54093 0.10903 0.07013 0.0
C1778 C 0.53676 0.1703 0.11352 0.0
C1779 C 0.51255 0.16921 0.15285 0.0
N1780 N 0.53906 0.12799 0.08485 0.0
N1781 N 0.51403 0.14949 0.13889 0.0
H1782 H 0.0998 0.28295 0.30049 0.0
H1783 H 0.23577 0.32122 0.32406 0.0
H1784 H 0.13879 0.33489 0.35768 0.0
H1785 H 0.20123 0.26651 0.26731 0.0
H1786 H 0.19971 0.32669 0.3346 0.0
H1787 H 0.13517 0.27708 0.28614 0.0
C1788 C 0.11561 0.2934 0.30984 0.0
C1789 C 0.1159 0.30958 0.33047 0.0
C1790 C 0.19982 0.31343 0.31981 0.0
C1791 C 0.15693 0.30275 0.31407 0.0
C1792 C 0.22065 0.31023 0.31372 0.0
C1793 C 0.22204 0.29328 0.29466 0.0
C1794 C 0.17956 0.29959 0.307 0.0
C1795 C 0.20135 0.27986 0.28208 0.0
C1796 C 0.13593 0.2899 0.30171 0.0
C1797 C 0.1373 0.32217 0.34182 0.0
N1798 N 0.18118 0.28323 0.28847 0.0
N1799 N 0.15654 0.31853 0.33359 0.0
H1800 H 0.98887 0.99115 0.20682 0.0
H1801 H 0.98118 0.05144 0.08511 0.0
H1802 H 0.94808 0.03999 0.19577 0.0
H1803 H 0.02806 0.00972 0.10231 0.0
H1804 H 0.96806 0.04717 0.12507 0.0
H1805 H 1.00256 0.99716 0.16783 0.0
C1806 C 0.9829 0.00325 0.19628 0.0
C1807 C 0.96733 0.01509 0.20463 0.0
C1808 C 0.98125 0.039 0.12006 0.0
C1809 C 0.98294 0.02207 0.15983 0.0
C1810 C 0.98867 0.04141 0.09729 0.0
C1811 C 0.00573 0.031 0.09046 0.0
C1812 C 0.99075 0.02578 0.13586 0.0
C1813 C 0.015 0.01825 0.10692 0.0
C1814 C 0.99071 0.00667 0.17397 0.0
C1815 C 0.96004 0.03043 0.19003 0.0
N1816 N 0.00731 0.01591 0.12873 0.0
N1817 N 0.96789 0.03346 0.16834 0.0
H1818 H 0.22495 0.64297 0.49067 0.0
H1819 H 0.27901 0.74298 0.43535 0.0
H1820 H 0.2972 0.65425 0.50271 0.0
H1821 H 0.23441 0.68671 0.3876 0.0
H1822 H 0.28744 0.71655 0.46411 0.0
H1823 H 0.22756 0.66605 0.45744 0.0
C1824 C 0.24136 0.6501 0.48618 0.0
C1825 C 0.26087 0.64643 0.49918 0.0
C1826 C 0.27635 0.71003 0.44695 0.0
C1827 C 0.26382 0.67285 0.4614 0.0
C1828 C 0.27144 0.72499 0.43078 0.0
C1829 C 0.25573 0.7168 0.40957 0.0
C1830 C 0.26485 0.6872 0.44191 0.0
C1831 C 0.24642 0.6935 0.40402 0.0
C1832 C 0.24278 0.66315 0.4672 0.0
C1833 C 0.28175 0.65651 0.49286 0.0
N1834 N 0.25064 0.67951 0.4205 0.0
N1835 N 0.28275 0.66957 0.47439 0.0
H1836 H 0.65855 0.06413 0.68661 0.0
H1837 H 0.56405 1.00044 0.58634 0.0
H1838 H 0.6101 0.00813 0.7044 0.0
H1839 H 0.57829 0.07372 0.59744 0.0
H1840 H 0.58369 1.00131 0.62784 0.0
H1841 H 0.63196 0.06722 0.6517 0.0
C1842 C 0.64222 0.05263 0.6833 0.0
C1843 C 0.63649 0.03558 0.69805 0.0
C1844 C 0.58233 0.01714 0.62116 0.0
C1845 C 0.60641 0.03906 0.65841 0.0
C1846 C 0.57159 0.01663 0.59758 0.0
C1847 C 0.57029 0.03705 0.58886 0.0
C1848 C 0.59219 0.03819 0.63536 0.0
C1849 C 0.57946 0.05774 0.60387 0.0
C1850 C 0.62707 0.05458 0.66359 0.0
C1851 C 0.6151 0.0213 0.69321 0.0
N1852 N 0.59059 0.05787 0.62648 0.0
N1853 N 0.60084 0.02303 0.67329 0.0
H1854 H 0.2853 0.31931 0.98317 0.0
H1855 H 0.29306 0.34233 0.84439 0.0
H1856 H 0.31679 0.38352 0.96307 0.0
H1857 H 0.28825 0.27494 0.86409 0.0
H1858 H 0.29574 0.35735 0.88769 0.0
H1859 H 0.28 0.30229 0.93943 0.0
C1860 C 0.29087 0.3298 0.96949 0.0
C1861 C 0.30154 0.35277 0.97652 0.0
C1862 C 0.29408 0.33926 0.88263 0.0
C1863 C 0.29549 0.3337 0.92696 0.0
C1864 C 0.29251 0.33066 0.85787 0.0
C1865 C 0.29046 0.30736 0.85064 0.0
C1866 C 0.29326 0.32448 0.90045 0.0
C1867 C 0.28999 0.29306 0.86897 0.0
C1868 C 0.28799 0.32011 0.94467 0.0
C1869 C 0.30858 0.36571 0.9583 0.0
N1870 N 0.29122 0.30182 0.8931 0.0
N1871 N 0.30535 0.35605 0.9344 0.0
H1872 H 0.95412 0.04379 0.34153 0.0
H1873 H 0.02999 1.00043 0.44619 0.0
H1874 H 0.98084 0.98382 0.32931 0.0
H1875 H 0.98992 0.0492 0.46231 0.0
H1876 H 0.01575 0.99731 0.40247 0.0
H1877 H 0.97089 0.04939 0.38495 0.0
C1878 C 0.96363 0.03189 0.34789 0.0
C1879 C 0.966 0.01324 0.33168 0.0
C1880 C 0.01007 0.00869 0.41559 0.0
C1881 C 0.98523 0.01956 0.38138 0.0
C1882 C 0.01814 0.01039 0.44064 0.0
C1883 C 0.01074 0.02462 0.45818 0.0
C1884 C 0.99482 0.02168 0.40782 0.0
C1885 C 0.99581 0.03765 0.44958 0.0
C1886 C 0.97312 0.03505 0.37271 0.0
C1887 C 0.97849 0.99839 0.34106 0.0
N1888 N 0.98836 0.03586 0.42509 0.0
N1889 N 0.98758 0.00186 0.36519 0.0
H1890 H 0.28425 0.65073 0.63301 0.0
H1891 H 0.24916 0.75767 0.70033 0.0
H1892 H 0.25241 0.69537 0.59277 0.0
H1893 H 0.30044 0.72593 0.73165 0.0
H1894 H 0.24491 0.73171 0.66192 0.0
H1895 H 0.28472 0.67504 0.67106 0.0
C1896 C 0.27733 0.66568 0.6322 0.0
C1897 C 0.26837 0.67122 0.6098 0.0
C1898 C 0.25709 0.7306 0.67728 0.0
C1899 C 0.26894 0.69903 0.65317 0.0
C1900 C 0.25955 0.74533 0.69907 0.0
C1901 C 0.2753 0.74397 0.71896 0.0
C1902 C 0.27036 0.71449 0.67576 0.0
C1903 C 0.28815 0.72758 0.71669 0.0
C1904 C 0.27766 0.67955 0.65391 0.0
C1905 C 0.25964 0.69074 0.60975 0.0
N1906 N 0.28537 0.71344 0.69539 0.0
N1907 N 0.26013 0.70407 0.63128 0.0
H1908 H 0.66421 0.08905 0.80892 0.0
H1909 H 0.57474 0.03521 0.87707 0.0
H1910 H 0.65791 0.01646 0.80426 0.0
H1911 H 0.62996 0.08648 0.91765 0.0
H1912 H 0.59936 0.02606 0.84704 0.0
H1913 H 0.64498 0.08831 0.84502 0.0
C1914 C 0.65887 0.07296 0.81558 0.0
C1915 C 0.66273 0.0528 0.80378 0.0
C1916 C 0.60615 0.03877 0.86299 0.0
C1917 C 0.64071 0.05194 0.84478 0.0
C1918 C 0.59219 0.04406 0.87988 0.0
C1919 C 0.60051 0.06181 0.89933 0.0
C1920 C 0.6281 0.05183 0.86557 0.0
C1921 C 0.62309 0.07288 0.90258 0.0
C1922 C 0.64809 0.07261 0.8362 0.0
C1923 C 0.65535 0.03238 0.8131 0.0
N1924 N 0.63605 0.06811 0.88541 0.0
N1925 N 0.64429 0.03236 0.83303 0.0
H1926 H 0.30076 0.3166 0.09067 0.0
H1927 H 0.27436 0.33966 0.22884 0.0
H1928 H 0.2925 0.382 0.12265 0.0
H1929 H 0.30002 0.2825 0.20051 0.0
H1930 H 0.27761 0.35458 0.18949 0.0
H1931 H 0.29702 0.3028 0.1301 0.0
C1932 C 0.2982 0.32811 0.10599 0.0
C1933 C 0.29703 0.35054 0.10327 0.0
C1934 C 0.28248 0.33876 0.19197 0.0
C1935 C 0.29258 0.33472 0.14871 0.0
C1936 C 0.2806 0.33022 0.2144 0.0
C1937 C 0.28685 0.30974 0.21807 0.0
C1938 C 0.29041 0.32659 0.17298 0.0
C1939 C 0.29487 0.29828 0.19864 0.0
C1940 C 0.29608 0.3202 0.12857 0.0
C1941 C 0.2936 0.3646 0.12388 0.0
N1942 N 0.29631 0.30678 0.17703 0.0
N1943 N 0.29143 0.35645 0.1457 0.0
H1944 H 0.21805 0.96159 0.95115 0.0
H1945 H 0.18633 0.01464 0.0772 0.0
H1946 H 0.25576 0.96697 0.02338 0.0
H1947 H 0.13551 0.98216 0.01591 0.0
H1948 H 0.21503 0.007 0.05254 0.0
H1949 H 0.18928 0.97733 0.9706 0.0
C1950 C 0.22012 0.96607 0.97096 0.0
C1951 C 0.23909 0.96352 0.98585 0.0
C1952 C 0.19755 1.00146 0.04457 0.0
C1953 C 0.20743 0.98135 0.00761 0.0
C1954 C 0.18134 0.00553 0.05869 0.0
C1955 C 0.15882 0.99808 0.04872 0.0
C1956 C 0.19098 0.98965 0.0206 0.0
C1957 C 0.15289 0.98744 0.02426 0.0
C1958 C 0.20401 0.9751 0.98193 0.0
C1959 C 0.24143 0.96927 0.01136 0.0
N1960 N 0.16899 0.98321 0.01095 0.0
N1961 N 0.22577 0.97801 0.02145 0.0
H1962 H 0.68735 0.66226 0.04522 0.0
H1963 H 0.59812 0.54933 0.98716 0.0
H1964 H 0.70344 0.61485 0.98952 0.0
H1965 H 0.60225 0.58142 0.06167 0.0
H1966 H 0.6345 0.57429 0.98415 0.0
H1967 H 0.65284 0.63491 0.04719 0.0
C1968 C 0.68357 0.64614 0.03325 0.0
C1969 C 0.69839 0.64082 0.01725 0.0
C1970 C 0.62749 0.57567 0.0012 0.0
C1971 C 0.65877 0.60933 0.01949 0.0
C1972 C 0.60692 0.56139 0.00296 0.0
C1973 C 0.59739 0.5635 0.02469 0.0
C1974 C 0.63809 0.5924 0.02112 0.0
C1975 C 0.60907 0.57952 0.04456 0.0
C1976 C 0.66392 0.63046 0.03454 0.0
C1977 C 0.69253 0.61959 0.00221 0.0
N1978 N 0.62868 0.59359 0.04221 0.0
N1979 N 0.67308 0.6046 0.00362 0.0
H1980 H 0.64591 0.46476 0.31245 0.0
H1981 H 0.75158 0.43659 0.25581 0.0
H1982 H 0.69296 0.51231 0.28081 0.0
H1983 H 0.70309 0.38661 0.28228 0.0
H1984 H 0.73456 0.46646 0.27339 0.0
H1985 H 0.66998 0.43756 0.30862 0.0
C1986 C 0.66133 0.46951 0.3048 0.0
C1987 C 0.6673 0.4907 0.29662 0.0
C1988 C 0.72784 0.44904 0.27583 0.0
C1989 C 0.69492 0.45985 0.29244 0.0
C1990 C 0.73768 0.4321 0.26598 0.0
C1991 C 0.72852 0.40936 0.26763 0.0
C1992 C 0.70848 0.44302 0.28691 0.0
C1993 C 0.7105 0.40411 0.28077 0.0
C1994 C 0.67509 0.45404 0.30273 0.0
C1995 C 0.68755 0.49607 0.28708 0.0
N1996 N 0.70073 0.42085 0.28959 0.0
N1997 N 0.70054 0.48068 0.28511 0.0
H1998 H 0.87039 0.45049 0.54825 0.0
H1999 H 0.96618 0.53876 0.50459 0.0
H2000 H 0.85937 0.49086 0.49032 0.0
H2001 H 0.97994 0.48307 0.54167 0.0
H2002 H 0.92667 0.52391 0.5034 0.0
H2003 H 0.91079 0.46587 0.55152 0.0
C2004 C 0.87656 0.46268 0.53636 0.0
C2005 C 0.86186 0.46959 0.51905 0.0
C2006 C 0.93833 0.51511 0.51217 0.0
C2007 C 0.90728 0.48665 0.52236 0.0
C2008 C 0.96095 0.52361 0.51299 0.0
C2009 C 0.9764 0.51252 0.52414 0.0
C2010 C 0.93111 0.49563 0.52293 0.0
C2011 C 0.96856 0.4926 0.53392 0.0
C2012 C 0.89944 0.47127 0.53813 0.0
C2013 C 0.87029 0.48542 0.50411 0.0
N2014 N 0.94626 0.4848 0.53332 0.0
N2015 N 0.8926 0.49335 0.50601 0.0
H2016 H 0.39204 0.10821 0.32957 0.0
H2017 H 0.27971 0.12938 0.26967 0.0
H2018 H 0.32705 0.06694 0.33414 0.0
H2019 H 0.34405 0.17384 0.27028 0.0
H2020 H 0.29574 0.11265 0.30381 0.0
H2021 H 0.37449 0.13946 0.3211 0.0
C2022 C 0.37417 0.10605 0.32971 0.0
C2023 C 0.3607 0.08486 0.33139 0.0
C2024 C 0.3064 0.12615 0.29663 0.0
C2025 C 0.3406 0.11993 0.32109 0.0
C2026 C 0.29734 0.13526 0.27691 0.0
C2027 C 0.31108 0.15182 0.26658 0.0
C2028 C 0.32938 0.13361 0.30569 0.0
C2029 C 0.33341 0.16013 0.2772 0.0
C2030 C 0.36411 0.12383 0.32476 0.0
C2031 C 0.33778 0.08291 0.33192 0.0
N2032 N 0.34206 0.1506 0.29598 0.0
N2033 N 0.32828 0.10009 0.32604 0.0
H2034 H 0.30218 0.11394 0.51856 0.0
H2035 H 0.43153 0.11252 0.52521 0.0
H2036 H 0.35205 0.16876 0.50103 0.0
H2037 H 0.38161 0.05961 0.54538 0.0
H2038 H 0.40166 0.12996 0.50822 0.0
H2039 H 0.33006 0.09087 0.52139 0.0
C2040 C 0.31896 0.12107 0.51509 0.0
C2041 C 0.32488 0.14341 0.50981 0.0
C2042 C 0.3972 0.11423 0.51581 0.0
C2043 C 0.35691 0.11705 0.51301 0.0
C2044 C 0.4142 0.10422 0.52524 0.0
C2045 C 0.4088 0.08477 0.53666 0.0
C2046 C 0.37483 0.10466 0.51803 0.0
C2047 C 0.38625 0.07469 0.5367 0.0
C2048 C 0.33487 0.10786 0.51665 0.0
C2049 C 0.34683 0.1517 0.50538 0.0
N2050 N 0.37006 0.08493 0.52783 0.0
N2051 N 0.36213 0.13857 0.50731 0.0
H2052 H 0.69858 0.60275 0.27996 0.0
H2053 H 0.7321 0.73752 0.31861 0.0
H2054 H 0.65745 0.64109 0.31684 0.0
H2055 H 0.76222 0.70248 0.26377 0.0
H2056 H 0.70832 0.70131 0.32334 0.0
H2057 H 0.72564 0.63833 0.2787 0.0
C2058 C 0.69549 0.61867 0.28815 0.0
C2059 C 0.67591 0.61917 0.2986 0.0
C2060 C 0.72022 0.70152 0.31038 0.0
C2061 C 0.70663 0.65963 0.29742 0.0
C2062 C 0.73384 0.72217 0.30768 0.0
C2063 C 0.74917 0.72301 0.29076 0.0
C2064 C 0.72195 0.68152 0.2961 0.0
C2065 C 0.75078 0.70258 0.2772 0.0
C2066 C 0.71081 0.63891 0.2873 0.0
C2067 C 0.67237 0.64013 0.30857 0.0
N2068 N 0.73725 0.68262 0.28011 0.0
N2069 N 0.68765 0.65956 0.30784 0.0
H2070 H 0.84076 0.44444 0.73897 0.0
H2071 H 0.8217 0.3435 0.81673 0.0
H2072 H 0.84116 0.45439 0.81781 0.0
H2073 H 0.78305 0.33701 0.74499 0.0
H2074 H 0.83608 0.38385 0.81492 0.0
H2075 H 0.8249 0.40374 0.73835 0.0
C2076 C 0.8374 0.43806 0.75601 0.0
C2077 C 0.8423 0.45254 0.77842 0.0
C2078 C 0.82453 0.37354 0.79954 0.0
C2079 C 0.82495 0.40684 0.77787 0.0
C2080 C 0.81657 0.35074 0.80051 0.0
C2081 C 0.80154 0.33754 0.78087 0.0
C2082 C 0.8174 0.38277 0.77869 0.0
C2083 C 0.79491 0.34708 0.76022 0.0
C2084 C 0.82838 0.41506 0.75563 0.0
C2085 C 0.83762 0.44373 0.8001 0.0
N2086 N 0.80301 0.36945 0.75956 0.0
N2087 N 0.82942 0.42128 0.79932 0.0
H2088 H 0.08657 0.88844 0.1108 0.0
H2089 H 0.01633 0.9444 0.01112 0.0
H2090 H 0.03757 0.84568 0.05339 0.0
H2091 H 0.06065 0.98101 0.07576 0.0
H2092 H 0.02337 0.90839 0.02375 0.0
H2093 H 0.0772 0.92178 0.09589 0.0
C2094 C 0.07382 0.88586 0.09488 0.0
C2095 C 0.06301 0.86368 0.08357 0.0
C2096 C 0.03151 0.92431 0.03517 0.0
C2097 C 0.05191 0.90315 0.06581 0.0
C2098 C 0.02746 0.94504 0.02797 0.0
C2099 C 0.03779 0.96625 0.04229 0.0
C2100 C 0.04621 0.92454 0.05688 0.0
C2101 C 0.05217 0.96547 0.06387 0.0
C2102 C 0.06839 0.90523 0.08632 0.0
C2103 C 0.04648 0.86219 0.06296 0.0
N2104 N 0.05587 0.9453 0.07028 0.0
N2105 N 0.04153 0.88152 0.05476 0.0
H2106 H 0.9122 0.2262 0.91131 0.0
H2107 H 0.86483 0.29328 0.80684 0.0
H2108 H 0.95265 0.2857 0.88986 0.0
H2109 H 0.8231 0.24291 0.84051 0.0
H2110 H 0.89764 0.28953 0.83466 0.0
H2111 H 0.88029 0.23063 0.88315 0.0
C2112 C 0.91446 0.24024 0.9007 0.0
C2113 C 0.93536 0.25557 0.90316 0.0
C2114 C 0.88133 0.27922 0.83589 0.0
C2115 C 0.89838 0.26078 0.87046 0.0
C2116 C 0.86256 0.28123 0.81987 0.0
C2117 C 0.84107 0.26825 0.8211 0.0
C2118 C 0.87878 0.26382 0.85314 0.0
C2119 C 0.83925 0.25327 0.83878 0.0
C2120 C 0.8961 0.24278 0.88457 0.0
C2121 C 0.93699 0.27337 0.88865 0.0
N2122 N 0.85776 0.2514 0.85389 0.0
N2123 N 0.91883 0.27546 0.87298 0.0
H2124 H 0.5429 0.2184 0.60162 0.0
H2125 H 0.56565 0.11322 0.51154 0.0
H2126 H 0.5753 0.22647 0.53711 0.0
H2127 H 0.53028 0.10427 0.57384 0.0
H2128 H 0.56986 0.15448 0.52106 0.0
H2129 H 0.5382 0.17691 0.59208 0.0
C2130 C 0.54892 0.21157 0.58537 0.0
C2131 C 0.55955 0.22638 0.57024 0.0
C2132 C 0.5612 0.14352 0.53271 0.0
C2133 C 0.55431 0.17827 0.55917 0.0
C2134 C 0.55891 0.11978 0.52734 0.0
C2135 C 0.54774 0.10478 0.54191 0.0
C2136 C 0.55224 0.15278 0.55289 0.0
C2137 C 0.53909 0.11482 0.56195 0.0
C2138 C 0.54628 0.18774 0.57994 0.0
C2139 C 0.56702 0.21608 0.54949 0.0
N2140 N 0.54152 0.13791 0.56677 0.0
N2141 N 0.56433 0.19297 0.54468 0.0
H2142 H 0.54565 0.78695 0.38653 0.0
H2143 H 0.6698 0.77967 0.36357 0.0
H2144 H 0.58443 0.74822 0.42745 0.0
H2145 H 0.62537 0.8078 0.31616 0.0
H2146 H 0.63835 0.76521 0.38544 0.0
H2147 H 0.57445 0.79322 0.35964 0.0
C2148 C 0.56014 0.77963 0.3898 0.0
C2149 C 0.56258 0.76711 0.40941 0.0
C2150 C 0.6354 0.77418 0.36995 0.0
C2151 C 0.59582 0.77423 0.37851 0.0
C2152 C 0.65329 0.7822 0.35731 0.0
C2153 C 0.65018 0.79505 0.33813 0.0
C2154 C 0.61437 0.77925 0.36341 0.0
C2155 C 0.6285 0.7981 0.33096 0.0
C2156 C 0.57661 0.78317 0.37436 0.0
C2157 C 0.58184 0.7581 0.41267 0.0
N2158 N 0.61158 0.79058 0.34377 0.0
N2159 N 0.59775 0.76195 0.39752 0.0
H2160 H 0.033 0.28011 0.43987 0.0
H2161 H 0.02475 0.14713 0.43071 0.0
H2162 H 0.04725 0.2413 0.37561 0.0
H2163 H 0.0261 0.19053 0.49831 0.0
H2164 H 0.03631 0.181 0.41072 0.0
H2165 H 0.03219 0.24734 0.46167 0.0
C2166 C 0.03606 0.26472 0.43032 0.0
C2167 C 0.0401 0.26353 0.40577 0.0
C2168 C 0.0347 0.18314 0.43011 0.0
C2169 C 0.03922 0.22562 0.43086 0.0
C2170 C 0.02842 0.1638 0.44158 0.0
C2171 C 0.02478 0.16611 0.46625 0.0
C2172 C 0.03689 0.20487 0.44334 0.0
C2173 C 0.02905 0.18807 0.47936 0.0
C2174 C 0.03571 0.24597 0.44288 0.0
C2175 C 0.04395 0.243 0.39448 0.0
N2176 N 0.03452 0.20656 0.46767 0.0
N2177 N 0.04324 0.22482 0.40703 0.0
H2178 H 0.59545 0.28211 0.25385 0.0
H2179 H 0.7089 0.23488 0.25043 0.0
H2180 H 0.60089 0.2224 0.2069 0.0
H2181 H 0.71116 0.30378 0.28136 0.0
H2182 H 0.66833 0.2288 0.23908 0.0
H2183 H 0.63621 0.28912 0.26876 0.0
C2184 C 0.60498 0.27033 0.24683 0.0
C2185 C 0.59428 0.25156 0.22893 0.0
C2186 C 0.67758 0.24528 0.24844 0.0
C2187 C 0.64131 0.25954 0.24605 0.0
C2188 C 0.70093 0.24873 0.25511 0.0
C2189 C 0.71389 0.26986 0.26708 0.0
C2190 C 0.66648 0.26296 0.25386 0.0
C2191 C 0.70215 0.28718 0.27212 0.0
C2192 C 0.62838 0.27445 0.25525 0.0
C2193 C 0.60798 0.23715 0.22057 0.0
N2194 N 0.6793 0.28335 0.26564 0.0
N2195 N 0.63037 0.24137 0.22912 0.0
H2196 H 0.52852 0.8532 0.93356 0.0
H2197 H 0.55993 0.9899 0.95763 0.0
H2198 H 0.55859 0.89313 0.88151 0.0
H2199 H 0.5307 0.94733 0.00815 0.0
H2200 H 0.56133 0.9556 0.93021 0.0
H2201 H 0.53196 0.88796 0.96205 0.0
C2202 C 0.53606 0.86936 0.92822 0.0
C2203 C 0.54335 0.87019 0.90513 0.0
C2204 C 0.5549 0.9538 0.94747 0.0
C2205 C 0.54681 0.91055 0.93762 0.0
C2206 C 0.55405 0.97343 0.96321 0.0
C2207 C 0.54551 0.97177 0.9857 0.0
C2208 C 0.54717 0.93216 0.95413 0.0
C2209 C 0.53803 0.94978 0.99156 0.0
C2210 C 0.53796 0.88928 0.94449 0.0
C2211 C 0.553 0.89166 0.89924 0.0
N2212 N 0.53901 0.93104 0.97599 0.0
N2213 N 0.55422 0.91099 0.91524 0.0
H2214 H 0.96382 0.7584 0.76314 0.0
H2215 H 0.83612 0.77197 0.7257 0.0
H2216 H 0.93181 0.75814 0.68941 0.0
H2217 H 0.8669 0.7852 0.80152 0.0
H2218 H 0.87107 0.76459 0.71349 0.0
H2219 H 0.92931 0.76559 0.7788 0.0
C2220 C 0.94974 0.75976 0.75016 0.0
C2221 C 0.95128 0.75757 0.72465 0.0
C2222 C 0.87037 0.76904 0.73287 0.0
C2223 C 0.91121 0.76592 0.74271 0.0
C2224 C 0.85017 0.77329 0.73993 0.0
C2225 C 0.84809 0.77931 0.76481 0.0
C2226 C 0.88922 0.77042 0.75062 0.0
C2227 C 0.86741 0.7807 0.7821 0.0
C2228 C 0.92993 0.76397 0.75919 0.0
C2229 C 0.93202 0.75961 0.70914 0.0
N2230 N 0.88692 0.77624 0.77477 0.0
N2231 N 0.91326 0.76355 0.71827 0.0
H2232 H 0.11151 0.0185 0.85511 0.0
H2233 H 0.03414 0.05665 0.95076 0.0
H2234 H 0.09192 0.08292 0.85943 0.0
H2235 H 0.07232 0.00591 0.96304 0.0
H2236 H 0.05102 0.06302 0.91358 0.0
H2237 H 0.09306 0.01018 0.89104 0.0
C2238 C 0.10327 0.03086 0.86353 0.0
C2239 C 0.10331 0.0515 0.85426 0.0
C2240 C 0.05566 0.05042 0.92432 0.0
C2241 C 0.08215 0.042 0.89527 0.0
C2242 C 0.04593 0.04667 0.94544 0.0
C2243 C 0.05189 0.03073 0.95992 0.0
C2244 C 0.07118 0.03786 0.91734 0.0
C2245 C 0.06743 0.01846 0.95239 0.0
C2246 C 0.09283 0.02612 0.88408 0.0
C2247 C 0.09236 0.06684 0.86594 0.0
N2248 N 0.0765 0.02219 0.93149 0.0
N2249 N 0.0822 0.06176 0.88579 0.0
H2250 H 0.82068 0.42443 0.5607 0.0
H2251 H 0.78455 0.31893 0.6305 0.0
H2252 H 0.75482 0.38024 0.54464 0.0
H2253 H 0.84468 0.37111 0.65404 0.0
H2254 H 0.77129 0.34282 0.60162 0.0
H2255 H 0.82843 0.40652 0.59701 0.0
C2256 C 0.80766 0.41126 0.56523 0.0
C2257 C 0.78708 0.4037 0.54989 0.0
C2258 C 0.78721 0.34922 0.61339 0.0
C2259 C 0.79569 0.38324 0.5914 0.0
C2260 C 0.79472 0.33561 0.62974 0.0
C2261 C 0.81584 0.34309 0.64399 0.0
C2262 C 0.80107 0.37025 0.61142 0.0
C2263 C 0.82849 0.36475 0.6428 0.0
C2264 C 0.81206 0.40105 0.58596 0.0
C2265 C 0.77092 0.38631 0.55612 0.0
N2266 N 0.82101 0.37754 0.62652 0.0
N2267 N 0.77559 0.37655 0.57648 0.0
H2268 H 0.40891 0.0442 0.37939 0.0
H2269 H 0.50939 0.99776 0.44354 0.0
H2270 H 0.41617 0.9752 0.36252 0.0
H2271 H 0.48981 0.0589 0.47175 0.0
H2272 H 0.48057 0.99272 0.40762 0.0
H2273 H 0.44334 0.05266 0.40845 0.0
C2274 C 0.41774 0.03079 0.38214 0.0
C2275 C 0.40974 0.00891 0.36915 0.0
C2276 C 0.48281 0.0073 0.42164 0.0
C2277 C 0.4491 0.01847 0.40169 0.0
C2278 C 0.49922 0.01023 0.44194 0.0
C2279 C 0.50143 0.02844 0.46067 0.0
C2280 C 0.46881 0.02274 0.42037 0.0
C2281 C 0.4882 0.04434 0.45787 0.0
C2282 C 0.4374 0.03563 0.39849 0.0
C2283 C 0.4217 0.9921 0.37285 0.0
N2284 N 0.47222 0.04098 0.43815 0.0
N2285 N 0.44098 0.99725 0.38892 0.0
H2286 H 0.76936 0.7536 0.07312 0.0
H2287 H 0.78257 0.72902 0.21271 0.0
H2288 H 0.77371 0.68838 0.09483 0.0
H2289 H 0.76631 0.79087 0.19225 0.0
H2290 H 0.78117 0.71494 0.16951 0.0
H2291 H 0.77028 0.76862 0.11642 0.0
C2292 C 0.77053 0.74244 0.08695 0.0
C2293 C 0.77146 0.71968 0.08026 0.0
C2294 C 0.77787 0.73158 0.17437 0.0
C2295 C 0.77246 0.73677 0.12983 0.0
C2296 C 0.7787 0.73971 0.19912 0.0
C2297 C 0.77459 0.76123 0.20619 0.0
C2298 C 0.77308 0.74509 0.15633 0.0
C2299 C 0.76955 0.77417 0.18763 0.0
C2300 C 0.77099 0.75102 0.11166 0.0
C2301 C 0.77299 0.70604 0.09903 0.0
N2302 N 0.76904 0.76594 0.16352 0.0
N2303 N 0.77346 0.71479 0.12287 0.0
H2304 H 0.07355 0.00267 0.72095 0.0
H2305 H 0.06334 0.0775 0.6122 0.0
H2306 H 0.11421 0.07039 0.72522 0.0
H2307 H 0.04903 0.00446 0.5994 0.0
H2308 H 0.07662 0.07666 0.65564 0.0
H2309 H 0.05871 0.00445 0.67826 0.0
C2310 C 0.07924 0.01797 0.71299 0.0
C2311 C 0.09524 0.03635 0.72666 0.0
C2312 C 0.07047 0.06081 0.64334 0.0
C2313 C 0.07819 0.03854 0.67789 0.0
C2314 C 0.06272 0.06132 0.61864 0.0
C2315 C 0.05496 0.04107 0.60233 0.0
C2316 C 0.07001 0.0398 0.65184 0.0
C2317 C 0.05497 0.02045 0.61144 0.0
C2318 C 0.07085 0.01892 0.6886 0.0
C2319 C 0.10201 0.05576 0.71533 0.0
N2320 N 0.06222 0.02031 0.63564 0.0
N2321 N 0.0934 0.05637 0.69164 0.0
H2322 H 0.81887 0.42512 0.40608 0.0
H2323 H 0.77902 0.29372 0.37166 0.0
H2324 H 0.79015 0.38188 0.45657 0.0
H2325 H 0.77205 0.33706 0.31629 0.0
H2326 H 0.78382 0.32591 0.40324 0.0
H2327 H 0.80574 0.39305 0.3726 0.0
C2328 C 0.80999 0.40891 0.41012 0.0
C2329 C 0.80544 0.40608 0.43398 0.0
C2330 C 0.78141 0.32854 0.38412 0.0
C2331 C 0.79014 0.37009 0.39621 0.0
C2332 C 0.77869 0.31017 0.36601 0.0
C2333 C 0.77707 0.31334 0.34118 0.0
C2334 C 0.78291 0.35023 0.3773 0.0
C2335 C 0.77522 0.33458 0.33511 0.0
C2336 C 0.8022 0.39087 0.39104 0.0
C2337 C 0.79387 0.38482 0.43837 0.0
N2338 N 0.77906 0.35268 0.3531 0.0
N2339 N 0.78661 0.36763 0.41963 0.0
H2340 H 0.40229 0.98978 0.25381 0.0
H2341 H 0.49786 0.0265 0.17512 0.0
H2342 H 0.4378 0.05977 0.26126 0.0
H2343 H 0.44444 0.96691 0.15298 0.0
H2344 H 0.47613 0.04061 0.20561 0.0
H2345 H 0.41835 0.98154 0.21657 0.0
C2346 C 0.4134 0.00343 0.24735 0.0
C2347 C 0.4189 0.02542 0.26028 0.0
C2348 C 0.46899 0.02469 0.19372 0.0
C2349 C 0.43709 0.01634 0.21777 0.0
C2350 C 0.48135 0.01667 0.17651 0.0
C2351 C 0.47294 0.99534 0.16236 0.0
C2352 C 0.44836 0.01105 0.19659 0.0
C2353 C 0.45153 0.98317 0.16424 0.0
C2354 C 0.4224 0.99882 0.22604 0.0
C2355 C 0.43344 0.04259 0.25157 0.0
N2356 N 0.44001 0.99108 0.18138 0.0
N2357 N 0.44225 0.03766 0.23073 0.0
H2358 H 0.79677 0.72147 0.96516 0.0
H2359 H 0.74727 0.76114 0.84178 0.0
H2360 H 0.72975 0.69253 0.92757 0.0
H2361 H 0.81702 0.75928 0.85596 0.0
H2362 H 0.74059 0.74251 0.87823 0.0
H2363 H 0.80457 0.74231 0.93027 0.0
C2364 C 0.7837 0.71951 0.94966 0.0
C2365 C 0.76257 0.70512 0.94929 0.0
C2366 C 0.75738 0.74625 0.87345 0.0
C2367 C 0.77139 0.72895 0.90957 0.0
C2368 C 0.76118 0.75686 0.85273 0.0
C2369 C 0.78259 0.76124 0.84574 0.0
C2370 C 0.77532 0.74082 0.88787 0.0
C2371 C 0.80016 0.75563 0.86056 0.0
C2372 C 0.78821 0.73133 0.92977 0.0
C2373 C 0.74626 0.70338 0.92875 0.0
N2374 N 0.79619 0.74584 0.88113 0.0
N2375 N 0.75099 0.71516 0.90981 0.0
H2376 H 0.81538 0.06852 0.07614 0.0
H2377 H 0.91329 0.09137 0.99833 0.0
H2378 H 0.85501 0.1357 0.07428 0.0
H2379 H 0.88971 0.02552 0.01977 0.0
H2380 H 0.89379 0.10816 0.02909 0.0
H2381 H 0.84461 0.0522 0.05987 0.0
C2382 C 0.83052 0.0798 0.0729 0.0
C2383 C 0.83271 0.1034 0.07601 0.0
C2384 C 0.8931 0.09008 0.02737 0.0
C2385 C 0.86574 0.08502 0.05711 0.0
C2386 C 0.904 0.08057 0.0097 0.0
C2387 C 0.90263 0.05719 0.00656 0.0
C2388 C 0.88047 0.07593 0.04153 0.0
C2389 C 0.89082 0.04368 0.02175 0.0
C2390 C 0.84716 0.07051 0.06363 0.0
C2391 C 0.85263 0.11737 0.07189 0.0
N2392 N 0.8798 0.05323 0.03844 0.0
N2393 N 0.86822 0.10792 0.06205 0.0
H2394 H 0.35693 0.43613 0.01712 0.0
H2395 H 0.48388 0.49355 0.07517 0.0
H2396 H 0.38616 0.43156 0.09079 0.0
H2397 H 0.4541 0.50635 0.00503 0.0
H2398 H 0.44805 0.47021 0.08045 0.0
H2399 H 0.39224 0.46085 0.01139 0.0
C2400 C 0.37072 0.44037 0.03213 0.0
C2401 C 0.36853 0.43179 0.05454 0.0
C2402 C 0.44922 0.47813 0.0639 0.0
C2403 C 0.40893 0.46009 0.04806 0.0
C2404 C 0.46971 0.49147 0.06088 0.0
C2405 C 0.4719 0.50191 0.03964 0.0
C2406 C 0.43073 0.47489 0.04543 0.0
C2407 C 0.45298 0.49875 0.02178 0.0
C2408 C 0.39086 0.4545 0.02882 0.0
C2409 C 0.38703 0.43774 0.07322 0.0
N2410 N 0.43316 0.48535 0.02498 0.0
N2411 N 0.40639 0.45149 0.06955 0.0
H2412 H 0.38645 0.55709 0.79273 0.0
H2413 H 0.35055 0.67225 0.77033 0.0
H2414 H 0.39848 0.58865 0.7278 0.0
H2415 H 0.33164 0.63356 0.82834 0.0
H2416 H 0.36547 0.64079 0.75202 0.0
H2417 H 0.36442 0.5842 0.80421 0.0
C2418 C 0.38435 0.56966 0.78074 0.0
C2419 C 0.39445 0.57064 0.75929 0.0
C2420 C 0.35778 0.63908 0.76856 0.0
C2421 C 0.36904 0.60196 0.77246 0.0
C2422 C 0.34925 0.65695 0.77894 0.0
C2423 C 0.34041 0.65555 0.80112 0.0
C2424 C 0.35733 0.61981 0.78053 0.0
C2425 C 0.3389 0.63545 0.81156 0.0
C2426 C 0.37164 0.58515 0.7873 0.0
C2427 C 0.39108 0.58737 0.74456 0.0
N2428 N 0.34749 0.61844 0.80129 0.0
N2429 N 0.37875 0.60254 0.75153 0.0
H2430 H 0.20658 0.57075 0.52489 0.0
H2431 H 0.08878 0.58335 0.56134 0.0
H2432 H 0.19503 0.60434 0.59391 0.0
H2433 H 0.09687 0.52871 0.50876 0.0
H2434 H 0.12792 0.60227 0.56164 0.0
H2435 H 0.16659 0.56449 0.50959 0.0
C2436 C 0.19563 0.57668 0.53685 0.0
C2437 C 0.204 0.58771 0.56087 0.0
C2438 C 0.12092 0.58653 0.5494 0.0
C2439 C 0.1588 0.58136 0.54318 0.0
C2440 C 0.09867 0.57593 0.54908 0.0
C2441 C 0.09017 0.5546 0.53519 0.0
C2442 C 0.13449 0.57522 0.53621 0.0
C2443 C 0.10327 0.54524 0.51973 0.0
C2444 C 0.17298 0.57338 0.52798 0.0
C2445 C 0.18923 0.59542 0.57545 0.0
N2446 N 0.12517 0.55542 0.52104 0.0
N2447 N 0.16728 0.59203 0.56636 0.0
H2448 H 0.73078 0.97264 0.70506 0.0
H2449 H 0.72984 0.91554 0.82828 0.0
H2450 H 0.69154 0.98553 0.76257 0.0
H2451 H 0.77983 0.91262 0.78011 0.0
H2452 H 0.71027 0.93451 0.79913 0.0
H2453 H 0.74347 0.94338 0.72706 0.0
C2454 C 0.72449 0.9688 0.72197 0.0
C2455 C 0.7101 0.981 0.73216 0.0
C2456 C 0.72542 0.92955 0.7948 0.0
C2457 C 0.72459 0.94865 0.75731 0.0
C2458 C 0.73663 0.91889 0.81151 0.0
C2459 C 0.75656 0.91288 0.8067 0.0
C2460 C 0.7343 0.93434 0.77321 0.0
C2461 C 0.76445 0.91705 0.78444 0.0
C2462 C 0.73176 0.95238 0.73455 0.0
C2463 C 0.70247 0.97604 0.75418 0.0
N2464 N 0.75339 0.92781 0.76854 0.0
N2465 N 0.71001 0.96037 0.76619 0.0
H2466 H 0.74364 0.91441 0.50795 0.0
H2467 H 0.66738 0.99862 0.53735 0.0
H2468 H 0.73794 0.93419 0.58415 0.0
H2469 H 0.65075 0.94614 0.47442 0.0
H2470 H 0.69427 0.9783 0.55613 0.0
H2471 H 0.71176 0.93028 0.4955 0.0
C2472 C 0.73567 0.92208 0.52211 0.0
C2473 C 0.74349 0.92297 0.54715 0.0
C2474 C 0.68435 0.97111 0.53844 0.0
C2475 C 0.70681 0.94119 0.53289 0.0
C2476 C 0.66903 0.98261 0.52777 0.0
C2477 C 0.65735 0.97429 0.50404 0.0
C2478 C 0.68794 0.95145 0.52503 0.0
C2479 C 0.65995 0.95346 0.49242 0.0
C2480 C 0.71734 0.93098 0.51496 0.0
C2481 C 0.7324 0.93315 0.56464 0.0
N2482 N 0.67526 0.94298 0.50282 0.0
N2483 N 0.71465 0.94213 0.55717 0.0
H2484 H 0.37654 0.4623 0.78632 0.0
H2485 H 0.32925 0.33032 0.73579 0.0
H2486 H 0.39609 0.4273 0.72282 0.0
H2487 H 0.30494 0.36513 0.79588 0.0
H2488 H 0.35337 0.36614 0.73065 0.0
H2489 H 0.35003 0.42729 0.79024 0.0
C2490 C 0.37522 0.44729 0.77315 0.0
C2491 C 0.38858 0.44774 0.75419 0.0
C2492 C 0.34269 0.36605 0.74488 0.0
C2493 C 0.35827 0.40767 0.7586 0.0
C2494 C 0.32889 0.34558 0.74782 0.0
C2495 C 0.31508 0.34478 0.76628 0.0
C2496 C 0.34286 0.38592 0.76064 0.0
C2497 C 0.31523 0.36507 0.78129 0.0
C2498 C 0.36006 0.42732 0.7754 0.0
C2499 C 0.38618 0.42777 0.73773 0.0
N2500 N 0.32905 0.38484 0.77824 0.0
N2501 N 0.37137 0.40857 0.74035 0.0
H2502 H 0.18488 0.62625 0.25256 0.0
H2503 H 0.29918 0.71271 0.2878 0.0
H2504 H 0.24972 0.60931 0.26147 0.0
H2505 H 0.23504 0.73006 0.27328 0.0
H2506 H 0.2802 0.67532 0.29588 0.0
H2507 H 0.20169 0.66396 0.27505 0.0
C2508 C 0.20272 0.63065 0.25904 0.0
C2509 C 0.21621 0.61517 0.25465 0.0
C2510 C 0.27031 0.68761 0.29182 0.0
C2511 C 0.23537 0.65775 0.28051 0.0
C2512 C 0.28113 0.70877 0.28717 0.0
C2513 C 0.26839 0.72384 0.27952 0.0
C2514 C 0.24678 0.6816 0.28755 0.0
C2515 C 0.24525 0.71858 0.27906 0.0
C2516 C 0.21221 0.65191 0.27231 0.0
C2517 C 0.23898 0.62113 0.26416 0.0
N2518 N 0.23502 0.69755 0.28251 0.0
N2519 N 0.24797 0.64218 0.27636 0.0
H2520 H 0.52383 0.6984 0.45386 0.0
H2521 H 0.49299 0.59365 0.53171 0.0
H2522 H 0.48713 0.7012 0.51549 0.0
H2523 H 0.54751 0.59955 0.48901 0.0
H2524 H 0.48783 0.63113 0.52248 0.0
H2525 H 0.52982 0.66085 0.46256 0.0
C2526 C 0.51694 0.69125 0.46915 0.0
C2527 C 0.50485 0.70344 0.48384 0.0
C2528 C 0.50088 0.62424 0.51498 0.0
C2529 C 0.51158 0.65976 0.49389 0.0
C2530 C 0.50379 0.60267 0.52022 0.0
C2531 C 0.52073 0.59309 0.51122 0.0
C2532 C 0.51456 0.63649 0.49997 0.0
C2533 C 0.53427 0.60607 0.49655 0.0
C2534 C 0.52046 0.6697 0.47418 0.0
C2535 C 0.49652 0.69283 0.50346 0.0
N2536 N 0.53079 0.62677 0.49125 0.0
N2537 N 0.49989 0.67189 0.50772 0.0
H2538 H 0.65063 0.28239 0.62245 0.0
H2539 H 0.70469 0.28332 0.76096 0.0
H2540 H 0.61873 0.30425 0.68342 0.0
H2541 H 0.74395 0.29018 0.70143 0.0
H2542 H 0.67227 0.2881 0.7336 0.0
H2543 H 0.6836 0.28173 0.65126 0.0
C2544 C 0.65053 0.28721 0.64192 0.0
C2545 C 0.63166 0.29346 0.65032 0.0
C2546 C 0.688 0.28854 0.72656 0.0
C2547 C 0.66979 0.29238 0.68385 0.0
C2548 C 0.70667 0.28579 0.74227 0.0
C2549 C 0.7274 0.28604 0.73381 0.0
C2550 C 0.68969 0.29101 0.70181 0.0
C2551 C 0.72847 0.28944 0.70906 0.0
C2552 C 0.6695 0.28685 0.65841 0.0
C2553 C 0.6328 0.29943 0.67593 0.0
N2554 N 0.70997 0.29144 0.69402 0.0
N2555 N 0.65139 0.29853 0.69175 0.0
H2556 H 0.03833 0.34254 0.99521 0.0
H2557 H 0.99366 0.45869 0.99198 0.0
H2558 H 0.97459 0.34769 0.95766 0.0
H2559 H 0.06043 0.45941 0.0257 0.0
H2560 H 0.98646 0.41751 0.98194 0.0
H2561 H 0.0468 0.3841 0.00909 0.0
C2562 C 0.02605 0.35219 0.98996 0.0
C2563 C 0.00563 0.34115 0.97507 0.0
C2564 C 1.00272 0.4265 0.99164 0.0
C2565 C 0.01536 0.3891 0.99087 0.0
C2566 C 0.0068 0.45024 0.99763 0.0
C2567 C 0.02763 0.46294 0.01007 0.0
C2568 C 0.01955 0.41474 0.99795 0.0
C2569 C 0.04409 0.45057 0.01609 0.0
C2570 C 0.03095 0.37603 0.99784 0.0
C2571 C 0.99056 0.35499 0.96899 0.0
N2572 N 0.03973 0.42732 0.01005 0.0
N2573 N 0.99571 0.37784 0.97677 0.0
H2574 H 0.98029 0.80897 0.12125 0.0
H2575 H 0.93834 0.76282 0.24195 0.0
H2576 H 0.02214 0.78387 0.17484 0.0
H2577 H 0.89569 0.78422 0.18617 0.0
H2578 H 0.97059 0.77585 0.22102 0.0
H2579 H 0.9508 0.80464 0.14736 0.0
C2580 C 0.98338 0.80261 0.13857 0.0
C2581 C 1.00384 0.79664 0.14565 0.0
C2582 C 0.95431 0.77816 0.21356 0.0
C2583 C 0.96973 0.79159 0.17592 0.0
C2584 C 0.93592 0.77098 0.22569 0.0
C2585 C 0.91432 0.77266 0.21594 0.0
C2586 C 0.95115 0.78691 0.19124 0.0
C2587 C 0.91208 0.78293 0.19453 0.0
C2588 C 0.96645 0.80018 0.15354 0.0
C2589 C 0.00672 0.78867 0.1685 0.0
N2590 N 0.93017 0.7894 0.18277 0.0
N2591 N 0.98984 0.78624 0.18268 0.0
H2592 H 0.51275 0.3174 0.18479 0.0
H2593 H 0.5399 0.37626 0.06531 0.0
H2594 H 0.54597 0.29018 0.12781 0.0
H2595 H 0.53578 0.41505 0.13414 0.0
H2596 H 0.53005 0.34112 0.08361 0.0
H2597 H 0.5104 0.35002 0.16247 0.0
C2598 C 0.51921 0.3181 0.1674 0.0
C2599 C 0.52979 0.30118 0.15823 0.0
C2600 C 0.53079 0.35729 0.09456 0.0
C2601 C 0.52671 0.33806 0.13243 0.0
C2602 C 0.53612 0.3773 0.08402 0.0
C2603 C 0.53849 0.39853 0.09821 0.0
C2604 C 0.52788 0.3585 0.11951 0.0
C2605 C 0.53388 0.39896 0.12255 0.0
C2606 C 0.51791 0.33672 0.15474 0.0
C2607 C 0.53794 0.30298 0.13569 0.0
N2608 N 0.52901 0.37928 0.13254 0.0
N2609 N 0.5362 0.321 0.12358 0.0
H2610 H 0.97666 0.33208 0.3285 0.0
H2611 H 0.84967 0.25594 0.30028 0.0
H2612 H 0.95869 0.25898 0.32057 0.0
H2613 H 0.8634 0.32866 0.30253 0.0
H2614 H 0.88981 0.25777 0.30735 0.0
H2615 H 0.93645 0.33234 0.31857 0.0
C2616 C 0.96445 0.31607 0.3242 0.0
C2617 C 0.97145 0.29544 0.32531 0.0
C2618 C 0.88423 0.27346 0.30644 0.0
C2619 C 0.92494 0.29562 0.31413 0.0
C2620 C 0.86105 0.27245 0.3025 0.0
C2621 C 0.85264 0.29222 0.30095 0.0
C2622 C 0.89979 0.29447 0.30925 0.0
C2623 C 0.86877 0.31293 0.30351 0.0
C2624 C 0.94136 0.31624 0.31871 0.0
C2625 C 0.95444 0.27535 0.32004 0.0
N2626 N 0.89138 0.31353 0.30767 0.0
N2627 N 0.93235 0.27598 0.3148 0.0
H2628 H 0.03398 0.67721 0.67778 0.0
H2629 H 0.00777 0.596 0.54658 0.0
H2630 H 1.00092 0.69415 0.61157 0.0
H2631 H 0.05578 0.58745 0.60581 0.0
H2632 H 1.00236 0.63001 0.57156 0.0
H2633 H 0.03898 0.6422 0.6538 0.0
C2634 C 0.02749 0.6735 0.65833 0.0
C2635 C 0.01689 0.68884 0.64685 0.0
C2636 C 0.01394 0.62059 0.57928 0.0
C2637 C 0.02259 0.64851 0.61909 0.0
C2638 C 0.01708 0.60112 0.56493 0.0
C2639 C 0.03175 0.58819 0.57424 0.0
C2640 C 0.02556 0.6275 0.60338 0.0
C2641 C 0.0434 0.59594 0.59822 0.0
C2642 C 0.03051 0.65353 0.64457 0.0
C2643 C 0.00919 0.68303 0.62139 0.0
N2644 N 0.04002 0.6149 0.6119 0.0
N2645 N 0.01209 0.6635 0.60856 0.0
H2646 H 0.61846 0.83482 0.81603 0.0
H2647 H 0.71103 0.7589 0.79891 0.0
H2648 H 0.61378 0.76788 0.83661 0.0
H2649 H 0.72622 0.83058 0.79382 0.0
H2650 H 0.67383 0.76158 0.80817 0.0
H2651 H 0.65554 0.83335 0.80332 0.0
C2652 C 0.62487 0.81965 0.81747 0.0
C2653 C 0.61249 0.80137 0.82738 0.0
C2654 C 0.68515 0.77681 0.80497 0.0
C2655 C 0.65546 0.79962 0.81286 0.0
C2656 C 0.70662 0.77527 0.79949 0.0
C2657 C 0.72227 0.79448 0.7953 0.0
C2658 C 0.67856 0.79776 0.80627 0.0
C2659 C 0.71503 0.8152 0.79683 0.0
C2660 C 0.64627 0.81891 0.81041 0.0
C2661 C 0.62234 0.78245 0.82912 0.0
N2662 N 0.6939 0.81626 0.80206 0.0
N2663 N 0.64282 0.78208 0.82199 0.0
H2664 H 0.44546 0.4966 0.69012 0.0
H2665 H 0.52028 0.56665 0.60451 0.0
H2666 H 0.49727 0.55632 0.71929 0.0
H2667 H 0.49084 0.49497 0.58515 0.0
H2668 H 0.5091 0.56487 0.64551 0.0
H2669 H 0.45872 0.49727 0.65005 0.0
C2670 C 0.45966 0.50981 0.68814 0.0
C2671 C 0.47022 0.52649 0.7081 0.0
C2672 C 0.50512 0.54954 0.63225 0.0
C2673 C 0.48529 0.52747 0.66223 0.0
C2674 C 0.51158 0.55053 0.60889 0.0
C2675 C 0.50649 0.53096 0.59132 0.0
C2676 C 0.49309 0.52893 0.63792 0.0
C2677 C 0.49472 0.51061 0.59788 0.0
C2678 C 0.46724 0.51014 0.66528 0.0
C2679 C 0.48859 0.54315 0.70443 0.0
N2680 N 0.4883 0.51015 0.62058 0.0
N2681 N 0.49542 0.54333 0.6819 0.0
H2682 H 0.74659 0.12446 0.9728 0.0
H2683 H 0.76223 0.24667 0.94384 0.0
H2684 H 0.78678 0.17934 0.02615 0.0
H2685 H 0.75591 0.19013 0.88679 0.0
H2686 H 0.77478 0.22387 0.9743 0.0
H2687 H 0.75189 0.14871 0.94067 0.0
C2688 C 0.7567 0.14161 0.97761 0.0
C2689 C 0.76616 0.15008 0.00196 0.0
C2690 C 0.7712 0.21668 0.95503 0.0
C2691 C 0.772 0.17798 0.96562 0.0
C2692 C 0.76392 0.22959 0.93775 0.0
C2693 C 0.75747 0.21992 0.91304 0.0
C2694 C 0.77133 0.19387 0.94745 0.0
C2695 C 0.76041 0.19801 0.9058 0.0
C2696 C 0.75992 0.15537 0.95931 0.0
C2697 C 0.77926 0.17232 0.00743 0.0
N2698 N 0.76659 0.18545 0.92306 0.0
N2699 N 0.78141 0.18578 0.98942 0.0
H2700 H 0.15277 0.56584 0.19097 0.0
H2701 H 0.06374 0.49624 0.08718 0.0
H2702 H 0.11007 0.50436 0.20584 0.0
H2703 H 0.07237 0.56908 0.10028 0.0
H2704 H 0.08285 0.49735 0.12908 0.0
H2705 H 0.12568 0.56658 0.15551 0.0
C2706 C 0.13755 0.55262 0.18688 0.0
C2707 C 0.13363 0.5348 0.20099 0.0
C2708 C 0.08024 0.51299 0.12279 0.0
C2709 C 0.10293 0.5356 0.16074 0.0
C2710 C 0.06972 0.51238 0.09903 0.0
C2711 C 0.06704 0.53263 0.09073 0.0
C2712 C 0.08851 0.53407 0.1376 0.0
C2713 C 0.07446 0.55322 0.1064 0.0
C2714 C 0.12209 0.55319 0.16684 0.0
C2715 C 0.11363 0.51824 0.19517 0.0
N2716 N 0.08538 0.55352 0.12915 0.0
N2717 N 0.09906 0.51875 0.175 0.0
H2718 H 0.77579 0.82912 0.47844 0.0
H2719 H 0.80885 0.84049 0.34484 0.0
H2720 H 0.8357 0.87431 0.46505 0.0
H2721 H 0.77526 0.77554 0.36139 0.0
H2722 H 0.81311 0.85602 0.38842 0.0
H2723 H 0.76975 0.81156 0.43491 0.0
C2724 C 0.78767 0.83525 0.46641 0.0
C2725 C 0.80643 0.85301 0.47539 0.0
C2726 C 0.80483 0.83835 0.38257 0.0
C2727 C 0.79934 0.83357 0.42591 0.0
C2728 C 0.80241 0.82954 0.35777 0.0
C2729 C 0.79195 0.80674 0.34979 0.0
C2730 C 0.79629 0.82439 0.39943 0.0
C2731 C 0.78373 0.79317 0.36711 0.0
C2732 C 0.78424 0.82523 0.44169 0.0
C2733 C 0.82123 0.86044 0.45905 0.0
N2734 N 0.78591 0.80225 0.39123 0.0
N2735 N 0.81725 0.85086 0.43513 0.0
H2736 H 0.46387 0.47454 0.83561 0.0
H2737 H 0.52451 0.56086 0.95585 0.0
H2738 H 0.47355 0.5472 0.83725 0.0
H2739 H 0.49411 0.49019 0.9557 0.0
H2740 H 0.50919 0.557 0.91205 0.0
H2741 H 0.47952 0.4805 0.87894 0.0
C2742 C 0.46946 0.4918 0.84501 0.0
C2743 C 0.46733 0.51038 0.83271 0.0
C2744 C 0.50607 0.54233 0.92167 0.0
C2745 C 0.48523 0.51735 0.88267 0.0
C2746 C 0.51481 0.54449 0.94664 0.0
C2747 C 0.51124 0.52556 0.95936 0.0
C2748 C 0.49394 0.52105 0.90937 0.0
C2749 C 0.4981 0.50498 0.94659 0.0
C2750 C 0.47828 0.49519 0.86986 0.0
C2751 C 0.47488 0.53236 0.846 0.0
N2752 N 0.49018 0.50321 0.92234 0.0
N2753 N 0.48351 0.53526 0.87031 0.0
H2754 H 0.81059 0.19699 0.12051 0.0
H2755 H 0.74257 0.24431 0.2128 0.0
H2756 H 0.74563 0.15563 0.12519 0.0
H2757 H 0.81021 0.23966 0.23796 0.0
H2758 H 0.74139 0.21573 0.17711 0.0
H2759 H 0.80953 0.21908 0.16028 0.0
C2760 C 0.79609 0.19279 0.12987 0.0
C2761 C 0.77821 0.17467 0.12 0.0
C2762 C 0.75628 0.2208 0.19074 0.0
C2763 C 0.77686 0.19943 0.1645 0.0
C2764 C 0.75697 0.23696 0.21083 0.0
C2765 C 0.7765 0.24401 0.2279 0.0
C2766 C 0.77562 0.21282 0.18749 0.0
C2767 C 0.79486 0.2343 0.22504 0.0
C2768 C 0.79561 0.20509 0.15247 0.0
C2769 C 0.75975 0.16953 0.13258 0.0
N2770 N 0.7942 0.21945 0.20469 0.0
N2771 N 0.75938 0.18212 0.15427 0.0
H2772 H 0.13031 0.56666 0.28299 0.0
H2773 H 0.12225 0.55213 0.41884 0.0
H2774 H 0.17469 0.53247 0.32287 0.0
H2775 H 0.06782 0.56327 0.36871 0.0
H2776 H 0.13899 0.53836 0.38365 0.0
H2777 H 0.10508 0.56073 0.31327 0.0
C2778 C 0.13472 0.55787 0.29822 0.0
C2779 C 0.15474 0.55041 0.30082 0.0
C2780 C 0.12305 0.54318 0.38035 0.0
C2781 C 0.12593 0.54355 0.33566 0.0
C2782 C 0.11356 0.55104 0.40038 0.0
C2783 C 0.09421 0.55961 0.39633 0.0
C2784 C 0.11307 0.54419 0.35644 0.0
C2785 C 0.08325 0.55756 0.37233 0.0
C2786 C 0.12015 0.55419 0.31535 0.0
C2787 C 0.15945 0.53868 0.32053 0.0
N2788 N 0.09308 0.55044 0.35318 0.0
N2789 N 0.1453 0.53599 0.33761 0.0
H2790 H 0.80924 0.88537 0.62188 0.0
H2791 H 0.75401 0.79006 0.69809 0.0
H2792 H 0.77563 0.81704 0.58927 0.0
H2793 H 0.80084 0.85116 0.73306 0.0
H2794 H 0.75901 0.8015 0.65811 0.0
H2795 H 0.80463 0.87466 0.66271 0.0
C2796 C 0.80095 0.86809 0.62328 0.0
C2797 C 0.79263 0.8521 0.60207 0.0
C2798 C 0.76842 0.81235 0.67448 0.0
C2799 C 0.78709 0.8399 0.64872 0.0
C2800 C 0.76584 0.80555 0.69738 0.0
C2801 C 0.77838 0.81856 0.71897 0.0
C2802 C 0.78314 0.83293 0.67303 0.0
C2803 C 0.79155 0.83995 0.71691 0.0
C2804 C 0.79832 0.86203 0.64661 0.0
C2805 C 0.7822 0.82996 0.60505 0.0
N2806 N 0.79381 0.84637 0.6943 0.0
N2807 N 0.77961 0.82457 0.62791 0.0
H2808 H 0.72784 0.42621 0.50383 0.0
H2809 H 0.66649 0.52786 0.52173 0.0
H2810 H 0.7332 0.47922 0.45769 0.0
H2811 H 0.65885 0.47137 0.56319 0.0
H2812 H 0.68687 0.50815 0.49405 0.0
H2813 H 0.69816 0.43993 0.52165 0.0
C2814 C 0.72191 0.44015 0.49668 0.0
C2815 C 0.73238 0.45144 0.47905 0.0
C2816 C 0.68055 0.49999 0.50906 0.0
C2817 C 0.69899 0.46764 0.49965 0.0
C2818 C 0.66913 0.51125 0.52485 0.0
C2819 C 0.66176 0.50133 0.54498 0.0
C2820 C 0.68434 0.4787 0.51353 0.0
C2821 C 0.66502 0.47974 0.54824 0.0
C2822 C 0.70516 0.44816 0.50702 0.0
C2823 C 0.72511 0.47007 0.47112 0.0
N2824 N 0.67623 0.46917 0.53271 0.0
N2825 N 0.70881 0.47779 0.48167 0.0
H2826 H 0.20977 0.10933 0.50606 0.0
H2827 H 0.07856 0.09457 0.50507 0.0
H2828 H 0.1786 0.16578 0.52166 0.0
H2829 H 0.11284 0.04404 0.52956 0.0
H2830 H 0.11452 0.11877 0.50189 0.0
H2831 H 0.17348 0.08305 0.50542 0.0
C2832 C 0.19531 0.11621 0.50917 0.0
C2833 C 0.19722 0.13981 0.51398 0.0
C2834 C 0.1141 0.10225 0.50769 0.0
C2835 C 0.15588 0.10992 0.51306 0.0
C2836 C 0.09355 0.08829 0.50946 0.0
C2837 C 0.09248 0.06703 0.51764 0.0
C2838 C 0.13385 0.09479 0.5135 0.0
C2839 C 0.11268 0.06009 0.52301 0.0
C2840 C 0.1747 0.10121 0.50892 0.0
C2841 C 0.17794 0.14775 0.51794 0.0
N2842 N 0.13256 0.07391 0.52077 0.0
N2843 N 0.15807 0.13285 0.5173 0.0
H2844 H 0.16089 0.97035 0.82468 0.0
H2845 H 0.24709 0.93309 0.73943 0.0
H2846 H 0.1876 0.00719 0.76834 0.0
H2847 H 0.21133 0.88766 0.78329 0.0
H2848 H 0.23087 0.96349 0.75701 0.0
H2849 H 0.18362 0.94249 0.81569 0.0
C2850 C 0.17155 0.97263 0.81049 0.0
C2851 C 0.17229 0.99112 0.79718 0.0
C2852 C 0.22671 0.94698 0.76307 0.0
C2853 C 0.19833 0.95948 0.78699 0.0
C2854 C 0.23607 0.92969 0.75314 0.0
C2855 C 0.23026 0.90786 0.75971 0.0
C2856 C 0.21123 0.9424 0.77958 0.0
C2857 C 0.21612 0.90432 0.77773 0.0
C2858 C 0.18453 0.95676 0.80543 0.0
C2859 C 0.18648 0.99328 0.7791 0.0
N2860 N 0.20676 0.92137 0.78682 0.0
N2861 N 0.19884 0.97764 0.77452 0.0
H2862 H 0.36252 0.97767 0.9862 0.0
H2863 H 0.47894 0.03078 0.06276 0.0
H2864 H 0.36928 0.98235 0.06558 0.0
H2865 H 0.47069 0.98822 0.99287 0.0
H2866 H 0.43904 0.0165 0.06533 0.0
H2867 H 0.40277 0.98645 0.98871 0.0
C2868 C 0.37248 0.98081 0.00425 0.0
C2869 C 0.36264 0.97938 0.02583 0.0
C2870 C 0.44618 0.00998 0.04976 0.0
C2871 C 0.40865 0.98921 0.02863 0.0
C2872 C 0.46869 0.01806 0.04832 0.0
C2873 C 0.47749 0.01039 0.02764 0.0
C2874 C 0.43283 0.99485 0.03002 0.0
C2875 C 0.46406 0.99428 0.00905 0.0
C2876 C 0.39545 0.98551 0.00558 0.0
C2877 C 0.37638 0.98337 0.04861 0.0
N2878 N 0.4421 0.98718 0.01049 0.0
N2879 N 0.39896 0.98833 0.04949 0.0
H2880 H 0.87278 0.60318 0.84812 0.0
H2881 H 0.78269 0.62748 0.75088 0.0
H2882 H 0.81869 0.55297 0.80338 0.0
H2883 H 0.83785 0.67822 0.79247 0.0
H2884 H 0.78718 0.6023 0.78166 0.0
H2885 H 0.85177 0.63232 0.84066 0.0
C2886 C 0.85631 0.59825 0.83721 0.0
C2887 C 0.84779 0.57596 0.82551 0.0
C2888 C 0.79821 0.61902 0.78423 0.0
C2889 C 0.8241 0.60881 0.81667 0.0
C2890 C 0.79588 0.63308 0.76647 0.0
C2891 C 0.8108 0.65411 0.76874 0.0
C2892 C 0.81606 0.62594 0.80375 0.0
C2893 C 0.82677 0.66152 0.78979 0.0
C2894 C 0.8443 0.61479 0.83304 0.0
C2895 C 0.82618 0.57017 0.81214 0.0
N2896 N 0.82939 0.64715 0.80631 0.0
N2897 N 0.8153 0.58664 0.80757 0.0
H2898 H 0.80577 0.62155 0.03408 0.0
H2899 H 0.92808 0.60557 0.01426 0.0
H2900 H 0.84512 0.65655 0.98446 0.0
H2901 H 0.88942 0.57295 0.06567 0.0
H2902 H 0.89559 0.61978 0.99822 0.0
H2903 H 0.8341 0.59949 0.04151 0.0
C2904 C 0.82027 0.62446 0.02455 0.0
C2905 C 0.82317 0.64106 0.00877 0.0
C2906 C 0.89407 0.60921 0.01274 0.0
C2907 C 0.85571 0.61583 0.01721 0.0
C2908 C 0.91254 0.60104 0.02175 0.0
C2909 C 0.91134 0.58845 0.04147 0.0
C2910 C 0.87436 0.60461 0.02354 0.0
C2911 C 0.89098 0.58297 0.05069 0.0
C2912 C 0.83645 0.61183 0.0288 0.0
C2913 C 0.8423 0.64406 0.99694 0.0
N2914 N 0.87331 0.59126 0.04178 0.0
N2915 N 0.85793 0.63167 0.00153 0.0
H2916 H 0.19551 0.11552 0.82691 0.0
H2917 H 0.24323 0.21034 0.74836 0.0
H2918 H 0.15715 0.12677 0.76073 0.0
H2919 H 0.24988 0.22754 0.82713 0.0
H2920 H 0.21843 0.17378 0.75119 0.0
H2921 H 0.22241 0.15165 0.82621 0.0
C2922 C 0.19275 0.12557 0.81232 0.0
C2923 C 0.17404 0.11826 0.79392 0.0
C2924 C 0.22554 0.18547 0.76786 0.0
C2925 C 0.20477 0.15882 0.79273 0.0
C2926 C 0.23969 0.20617 0.76628 0.0
C2927 C 0.24822 0.22185 0.78753 0.0
C2928 C 0.22069 0.18012 0.79097 0.0
C2929 C 0.24323 0.21586 0.81035 0.0
C2930 C 0.20801 0.14609 0.81198 0.0
C2931 C 0.17123 0.13185 0.77538 0.0
N2932 N 0.22983 0.19527 0.81155 0.0
N2933 N 0.18656 0.15134 0.7751 0.0
H2934 H 0.37757 0.9461 0.31226 0.0
H2935 H 0.27342 0.84504 0.25497 0.0
H2936 H 0.31993 0.95626 0.26624 0.0
H2937 H 0.33061 0.83805 0.30398 0.0
H2938 H 0.28966 0.88598 0.25834 0.0
H2939 H 0.35964 0.90627 0.30996 0.0
C2940 C 0.36119 0.93972 0.30136 0.0
C2941 C 0.35019 0.95403 0.28904 0.0
C2942 C 0.29864 0.87544 0.26827 0.0
C2943 C 0.32974 0.90873 0.28603 0.0
C2944 C 0.2895 0.85229 0.26618 0.0
C2945 C 0.30117 0.83869 0.27878 0.0
C2946 C 0.31925 0.88459 0.28334 0.0
C2947 C 0.32163 0.84826 0.2935 0.0
C2948 C 0.35091 0.91708 0.30014 0.0
C2949 C 0.32882 0.9454 0.27576 0.0
N2950 N 0.33005 0.87079 0.29545 0.0
N2951 N 0.31925 0.92304 0.27436 0.0
H2952 H 0.54999 0.36841 0.608 0.0
H2953 H 0.53252 0.4483 0.50275 0.0
H2954 H 0.56523 0.35411 0.53447 0.0
H2955 H 0.54282 0.47456 0.57994 0.0
H2956 H 0.53932 0.41179 0.51355 0.0
H2957 H 0.54225 0.40494 0.59788 0.0
C2958 C 0.55169 0.37278 0.58974 0.0
C2959 C 0.55842 0.35774 0.5722 0.0
C2960 C 0.54002 0.42548 0.52819 0.0
C2961 C 0.54921 0.39999 0.56026 0.0
C2962 C 0.53605 0.44643 0.522 0.0
C2963 C 0.5372 0.46491 0.54035 0.0
C2964 C 0.54464 0.42237 0.55307 0.0
C2965 C 0.54193 0.46108 0.56501 0.0
C2966 C 0.5473 0.39379 0.58396 0.0
C2967 C 0.56018 0.3648 0.54881 0.0
N2968 N 0.54527 0.44042 0.57058 0.0
N2969 N 0.55555 0.38505 0.5436 0.0
H2970 H 0.41479 0.72286 0.40105 0.0
H2971 H 0.36421 0.80075 0.3105 0.0
H2972 H 0.45114 0.78999 0.39381 0.0
H2973 H 0.32572 0.73965 0.33064 0.0
H2974 H 0.39694 0.79673 0.33856 0.0
H2975 H 0.38322 0.72807 0.37299 0.0
C2976 C 0.41621 0.73877 0.39363 0.0
C2977 C 0.43589 0.75598 0.40004 0.0
C2978 C 0.38139 0.78411 0.33671 0.0
C2979 C 0.39922 0.76212 0.36738 0.0
C2980 C 0.36273 0.78632 0.32055 0.0
C2981 C 0.34218 0.7704 0.318 0.0
C2982 C 0.37971 0.76556 0.35012 0.0
C2983 C 0.34117 0.75233 0.33195 0.0
C2984 C 0.39803 0.74175 0.37752 0.0
C2985 C 0.43645 0.77616 0.38948 0.0
N2986 N 0.35957 0.75033 0.34714 0.0
N2987 N 0.41848 0.77865 0.37374 0.0
H2988 H 0.08196 0.72633 0.04037 0.0
H2989 H 0.02614 0.60256 0.07228 0.0
H2990 H 0.0387 0.71711 0.09606 0.0
H2991 H 0.067 0.61303 0.0146 0.0
H2992 H 0.02999 0.64381 0.08103 0.0
H2993 H 0.07616 0.68507 0.03068 0.0
C2994 C 0.07111 0.7157 0.05056 0.0
C2995 C 0.06086 0.72563 0.06917 0.0
C2996 C 0.03827 0.63712 0.06656 0.0
C2997 C 0.05422 0.67749 0.05809 0.0
C2998 C 0.03612 0.61341 0.06151 0.0
C2999 C 0.0466 0.60385 0.04285 0.0
C3000 C 0.0511 0.65183 0.05298 0.0
C3001 C 0.059 0.61922 0.0295 0.0
C3002 C 0.06783 0.69195 0.04498 0.0
C3003 C 0.04696 0.71053 0.08153 0.0
N3004 N 0.06095 0.64219 0.03486 0.0
N3005 N 0.04417 0.68741 0.07588 0.0
H3006 H 0.09255 0.29797 0.94728 0.0
H3007 H 0.1294 0.27594 0.81436 0.0
H3008 H 0.04731 0.25723 0.88535 0.0
H3009 H 0.17406 0.31133 0.87913 0.0
H3010 H 0.10009 0.26493 0.84015 0.0
H3011 H 0.12301 0.3004 0.9227 0.0
C3012 C 0.08903 0.28937 0.92851 0.0
C3013 C 0.06726 0.27745 0.91839 0.0
C3014 C 0.11646 0.27465 0.84882 0.0
C3015 C 0.1024 0.28004 0.88993 0.0
C3016 C 0.13324 0.28065 0.83414 0.0
C3017 C 0.15421 0.29425 0.84477 0.0
C3018 C 0.12063 0.2827 0.87419 0.0
C3019 C 0.15822 0.30051 0.87035 0.0
C3020 C 0.10651 0.29073 0.91445 0.0
C3021 C 0.06377 0.26681 0.89385 0.0
N3022 N 0.14153 0.29493 0.88412 0.0
N3023 N 0.08114 0.26839 0.88042 0.0
H3024 H 0.5288 0.78012 0.93758 0.0
H3025 H 0.52764 0.64794 0.93194 0.0
H3026 H 0.55171 0.74349 0.87774 0.0
H3027 H 0.5165 0.69003 0.99527 0.0
H3028 H 0.53947 0.68228 0.9126 0.0
H3029 H 0.52565 0.74701 0.95898 0.0
C3030 C 0.53336 0.76514 0.92896 0.0
C3031 C 0.54055 0.76472 0.90575 0.0
C3032 C 0.53495 0.68406 0.93096 0.0
C3033 C 0.53702 0.72629 0.9305 0.0
C3034 C 0.5285 0.66449 0.94213 0.0
C3035 C 0.52136 0.66621 0.96537 0.0
C3036 C 0.53388 0.70543 0.94301 0.0
C3037 C 0.52215 0.68799 0.97748 0.0
C3038 C 0.53159 0.74615 0.94129 0.0
C3039 C 0.54594 0.74458 0.89552 0.0
N3040 N 0.52798 0.70663 0.96608 0.0
N3041 N 0.54401 0.72615 0.90791 0.0
H3042 H 0.09449 0.78445 0.75106 0.0
H3043 H 0.20655 0.7342 0.7531 0.0
H3044 H 0.09827 0.7202 0.71181 0.0
H3045 H 0.20933 0.80343 0.78319 0.0
H3046 H 0.16615 0.72837 0.74156 0.0
H3047 H 0.13513 0.79136 0.76643 0.0
C3048 C 0.10363 0.77166 0.74589 0.0
C3049 C 0.09254 0.75162 0.73 0.0
C3050 C 0.17545 0.74488 0.75076 0.0
C3051 C 0.13942 0.7595 0.74759 0.0
C3052 C 0.19874 0.74817 0.75763 0.0
C3053 C 0.21178 0.76925 0.76958 0.0
C3054 C 0.16453 0.76278 0.75566 0.0
C3055 C 0.20022 0.78679 0.77415 0.0
C3056 C 0.12697 0.7757 0.75456 0.0
C3057 C 0.10573 0.73594 0.72387 0.0
N3058 N 0.17745 0.78319 0.76727 0.0
N3059 N 0.12808 0.74017 0.73258 0.0
H3060 H 0.06134 0.36064 0.42936 0.0
H3061 H 0.04431 0.48858 0.45151 0.0
H3062 H 0.02704 0.39151 0.37463 0.0
H3063 H 0.05122 0.44992 0.51165 0.0
H3064 H 0.04472 0.45513 0.42292 0.0
H3065 H 0.06429 0.39492 0.45951 0.0
C3066 C 0.05483 0.37475 0.42355 0.0
C3067 C 0.04407 0.37324 0.39932 0.0
C3068 C 0.04614 0.45395 0.44243 0.0
C3069 C 0.04749 0.41251 0.43362 0.0
C3070 C 0.0459 0.47316 0.45897 0.0
C3071 C 0.04713 0.47233 0.48451 0.0
C3072 C 0.04822 0.43354 0.45119 0.0
C3073 C 0.04966 0.45161 0.49246 0.0
C3074 C 0.05633 0.39422 0.44081 0.0
C3075 C 0.03552 0.3919 0.39303 0.0
N3076 N 0.05014 0.43316 0.47599 0.0
N3077 N 0.03753 0.41066 0.40989 0.0
H3078 H 0.45007 0.22855 0.24813 0.0
H3079 H 0.36163 0.30986 0.26118 0.0
H3080 H 0.45276 0.29039 0.21621 0.0
H3081 H 0.34508 0.2404 0.27511 0.0
H3082 H 0.39743 0.30403 0.25001 0.0
H3083 H 0.41477 0.23349 0.26341 0.0
C3084 C 0.44362 0.24335 0.24466 0.0
C3085 C 0.45486 0.2591 0.23077 0.0
C3086 C 0.3861 0.28998 0.25557 0.0
C3087 C 0.41399 0.26487 0.2483 0.0
C3088 C 0.36544 0.29334 0.26208 0.0
C3089 C 0.34982 0.27566 0.2692 0.0
C3090 C 0.39191 0.26875 0.25626 0.0
C3091 C 0.35629 0.25464 0.26974 0.0
C3092 C 0.42323 0.24606 0.25322 0.0
C3093 C 0.44504 0.27768 0.22671 0.0
N3094 N 0.37667 0.25182 0.26349 0.0
N3095 N 0.42559 0.28001 0.23535 0.0
H3096 H 0.58629 0.58121 0.35618 0.0
H3097 H 0.57584 0.50688 0.46649 0.0
H3098 H 0.61478 0.52211 0.35839 0.0
H3099 H 0.53384 0.55346 0.4499 0.0
H3100 H 0.59229 0.51309 0.42859 0.0
H3101 H 0.56909 0.5725 0.3925 0.0
C3102 C 0.58888 0.56634 0.36425 0.0
C3103 C 0.60199 0.55239 0.35417 0.0
C3104 C 0.57941 0.52185 0.43328 0.0
C3105 C 0.58235 0.54232 0.39598 0.0
C3106 C 0.57012 0.51837 0.45489 0.0
C3107 C 0.55353 0.5297 0.46132 0.0
C3108 C 0.57228 0.53705 0.41837 0.0
C3109 C 0.54653 0.54428 0.4456 0.0
C3110 C 0.579 0.56134 0.38499 0.0
C3111 C 0.60479 0.53336 0.36554 0.0
N3112 N 0.55604 0.54765 0.42502 0.0
N3113 N 0.59512 0.52892 0.38592 0.0
H3114 H 0.30321 0.86799 0.01916 0.0
H3115 H 0.30888 0.87649 0.16331 0.0
H3116 H 0.28081 0.92068 0.06207 0.0
H3117 H 0.31742 0.81796 0.11682 0.0
H3118 H 0.29377 0.89096 0.12665 0.0
H3119 H 0.30446 0.84765 0.05445 0.0
C3120 C 0.2982 0.87514 0.03592 0.0
C3121 C 0.29209 0.89618 0.03773 0.0
C3122 C 0.29848 0.87471 0.1245 0.0
C3123 C 0.29361 0.87293 0.07846 0.0
C3124 C 0.30701 0.8665 0.14535 0.0
C3125 C 0.31448 0.84624 0.14273 0.0
C3126 C 0.29784 0.86263 0.10107 0.0
C3127 C 0.31191 0.83377 0.11934 0.0
C3128 C 0.29887 0.86345 0.05612 0.0
C3129 C 0.28583 0.90459 0.05998 0.0
N3130 N 0.30407 0.84233 0.09931 0.0
N3131 N 0.28702 0.89306 0.07963 0.0
H3132 H 0.92244 0.54477 0.86732 0.0
H3133 H 1.00275 0.48974 0.95256 0.0
H3134 H 0.90639 0.47355 0.87604 0.0
H3135 H 1.00124 0.56087 0.96175 0.0
H3136 H 0.97233 0.48285 0.91776 0.0
H3137 H 0.95622 0.55012 0.89621 0.0
C3138 C 0.92589 0.53025 0.87553 0.0
C3139 C 0.91162 0.50863 0.86933 0.0
C3140 C 0.97894 0.49996 0.92726 0.0
C3141 C 0.95027 0.51479 0.90241 0.0
C3142 C 0.99629 0.50388 0.94674 0.0
C3143 C 1.0039 0.52577 0.95974 0.0
C3144 C 0.96991 0.51823 0.92088 0.0
C3145 C 0.99528 0.54372 0.95213 0.0
C3146 C 0.94525 0.53335 0.89193 0.0
C3147 C 0.917 0.49047 0.88045 0.0
N3148 N 0.97855 0.53952 0.9331 0.0
N3149 N 0.93608 0.49397 0.89663 0.0
H3150 H 0.28947 0.19415 0.5947 0.0
H3151 H 0.25602 0.28458 0.69255 0.0
H3152 H 0.25192 0.24333 0.57384 0.0
H3153 H 0.29405 0.23536 0.7121 0.0
H3154 H 0.25471 0.27039 0.64906 0.0
H3155 H 0.29212 0.20999 0.63781 0.0
C3156 C 0.28181 0.20832 0.59918 0.0
C3157 C 0.27039 0.21737 0.5806 0.0
C3158 C 0.26334 0.26272 0.6629 0.0
C3159 C 0.27323 0.23555 0.63009 0.0
C3160 C 0.26398 0.27074 0.68778 0.0
C3161 C 0.2748 0.26092 0.70613 0.0
C3162 C 0.27381 0.24491 0.65628 0.0
C3163 C 0.28524 0.24331 0.69869 0.0
C3164 C 0.28333 0.21737 0.62384 0.0
C3165 C 0.26092 0.23584 0.58754 0.0
N3166 N 0.28446 0.23589 0.67441 0.0
N3167 N 0.26245 0.24425 0.61174 0.0
H3168 H 0.61528 0.57209 0.22517 0.0
H3169 H 0.54518 0.50379 0.09977 0.0
H3170 H 0.57065 0.50644 0.22132 0.0
H3171 H 0.56746 0.57667 0.11013 0.0
H3172 H 0.55671 0.50384 0.14374 0.0
H3173 H 0.6002 0.57376 0.18259 0.0
C3174 C 0.60219 0.55809 0.21546 0.0
C3175 C 0.59429 0.53902 0.22685 0.0
C3176 C 0.55891 0.51987 0.13649 0.0
C3177 C 0.57712 0.54082 0.17803 0.0
C3178 C 0.55243 0.51982 0.11143 0.0
C3179 C 0.55527 0.54029 0.10154 0.0
C3180 C 0.5688 0.54051 0.15164 0.0
C3181 C 0.5647 0.56063 0.11727 0.0
C3182 C 0.59357 0.55911 0.19117 0.0
C3183 C 0.57729 0.52144 0.21332 0.0
N3184 N 0.57139 0.56024 0.14158 0.0
N3185 N 0.56945 0.52266 0.18956 0.0
H3186 H 0.3401 0.89103 0.95449 0.0
H3187 H 0.25096 0.82009 0.84305 0.0
H3188 H 0.28324 0.91254 0.9192 0.0
H3189 H 0.31419 0.80287 0.865 0.0
H3190 H 0.25782 0.84797 0.87994 0.0
H3191 H 0.32769 0.85424 0.92802 0.0
C3192 C 0.32532 0.88815 0.94084 0.0
C3193 C 0.31274 0.90474 0.93874 0.0
C3194 C 0.27006 0.83785 0.87691 0.0
C3195 C 0.29813 0.86293 0.90955 0.0
C3196 C 0.2661 0.82199 0.85597 0.0
C3197 C 0.28245 0.81001 0.85088 0.0
C3198 C 0.29071 0.84196 0.89225 0.0
C3199 C 0.30148 0.81233 0.86826 0.0
C3200 C 0.31802 0.8671 0.92618 0.0
C3201 C 0.29344 0.90015 0.92127 0.0
N3202 N 0.30544 0.8286 0.88808 0.0
N3203 N 0.28668 0.8796 0.90739 0.0
H3204 H 0.95575 0.52377 0.78626 0.0
H3205 H 0.94755 0.4978 0.64292 0.0
H3206 H 0.89788 0.52873 0.73673 0.0
H3207 H 0.00934 0.50929 0.69262 0.0
H3208 H 0.93018 0.51442 0.67608 0.0
H3209 H 0.97698 0.52335 0.75184 0.0
C3210 C 0.94762 0.52507 0.76817 0.0
C3211 C 0.92502 0.52601 0.76421 0.0
C3212 C 0.9477 0.51386 0.67959 0.0
C3213 C 0.94907 0.52536 0.72475 0.0
C3214 C 0.95752 0.50441 0.66073 0.0
C3215 C 0.97961 0.50194 0.66555 0.0
C3216 C 0.96017 0.5206 0.70321 0.0
C3217 C 0.99208 0.51064 0.68863 0.0
C3218 C 0.95976 0.52496 0.74853 0.0
C3219 C 0.91528 0.52783 0.74048 0.0
N3220 N 0.98207 0.51934 0.70681 0.0
N3221 N 0.9273 0.52707 0.72149 0.0
H3222 H 0.2992 0.21483 0.46328 0.0
H3223 H 0.24758 0.25486 0.34036 0.0
H3224 H 0.22859 0.20625 0.43815 0.0
H3225 H 0.3189 0.26605 0.36236 0.0
H3226 H 0.24122 0.23951 0.37821 0.0
H3227 H 0.30763 0.23568 0.42864 0.0
C3228 C 0.28547 0.21743 0.45061 0.0
C3229 C 0.2631 0.20865 0.45359 0.0
C3230 C 0.25833 0.24534 0.37498 0.0
C3231 C 0.27267 0.23244 0.414 0.0
C3232 C 0.26197 0.25409 0.35326 0.0
C3233 C 0.2838 0.26139 0.34802 0.0
C3234 C 0.27662 0.24365 0.39178 0.0
C3235 C 0.30179 0.26046 0.36569 0.0
C3236 C 0.29032 0.22933 0.43085 0.0
C3237 C 0.24606 0.21257 0.43662 0.0
N3238 N 0.29782 0.25147 0.38675 0.0
N3239 N 0.2512 0.22405 0.41761 0.0
H3240 H 0.35386 0.63617 0.57068 0.0
H3241 H 0.38356 0.52113 0.51675 0.0
H3242 H 0.31968 0.56966 0.58287 0.0
H3243 H 0.40719 0.58637 0.49398 0.0
H3244 H 0.36692 0.53958 0.54937 0.0
H3245 H 0.38198 0.61925 0.55294 0.0
C3246 C 0.3528 0.61813 0.57055 0.0
C3247 C 0.33427 0.60409 0.57759 0.0
C3248 C 0.37578 0.54987 0.53727 0.0
C3249 C 0.36581 0.58472 0.55693 0.0
C3250 C 0.38489 0.53934 0.51855 0.0
C3251 C 0.3958 0.55233 0.50236 0.0
C3252 C 0.37795 0.57351 0.53982 0.0
C3253 C 0.39806 0.57586 0.5057 0.0
C3254 C 0.36868 0.60845 0.56015 0.0
C3255 C 0.33359 0.58088 0.57708 0.0
N3256 N 0.38904 0.58577 0.52406 0.0
N3257 N 0.34892 0.57176 0.56631 0.0
H3258 H 0.88392 0.92827 0.59106 0.0
H3259 H 0.95353 0.00823 0.50797 0.0
H3260 H 0.85671 0.93835 0.51855 0.0
H3261 H 0.98275 0.9892 0.57513 0.0
H3262 H 0.91731 0.98454 0.51242 0.0
H3263 H 0.91966 0.95246 0.5865 0.0
C3264 C 0.88545 0.93558 0.57417 0.0
C3265 C 0.86726 0.93134 0.5552 0.0
C3266 C 0.9316 0.98566 0.52627 0.0
C3267 C 0.90822 0.95904 0.54983 0.0
C3268 C 0.95221 0.9993 0.52384 0.0
C3269 C 0.97105 1.0008 0.54136 0.0
C3270 C 0.9298 0.97369 0.54653 0.0
C3271 C 0.9686 0.98853 0.56125 0.0
C3272 C 0.90589 0.94938 0.57157 0.0
C3273 C 0.87023 0.94131 0.53374 0.0
N3274 N 0.94833 0.97555 0.56335 0.0
N3275 N 0.89034 0.9547 0.53162 0.0
H3276 H 0.87298 0.05606 0.24652 0.0
H3277 H 0.86926 0.17287 0.32424 0.0
H3278 H 0.93192 0.10404 0.28503 0.0
H3279 H 0.81198 0.13019 0.27693 0.0
H3280 H 0.89326 0.14966 0.30679 0.0
H3281 H 0.85094 0.08465 0.25369 0.0
C3282 C 0.88129 0.0727 0.25632 0.0
C3283 C 0.90419 0.07765 0.26557 0.0
C3284 C 0.87549 0.14543 0.30002 0.0
C3285 C 0.87914 0.11023 0.27407 0.0
C3286 C 0.86188 0.15857 0.31007 0.0
C3287 C 0.8388 0.15291 0.3022 0.0
C3288 C 0.86575 0.12642 0.28226 0.0
C3289 C 0.82978 0.13465 0.28358 0.0
C3290 C 0.86874 0.08902 0.26033 0.0
C3291 C 0.91426 0.09952 0.27775 0.0
N3292 N 0.84329 0.12179 0.27439 0.0
N3293 N 0.90158 0.11492 0.282 0.0
H3294 H 0.70808 0.07001 0.0319 0.0
H3295 H 0.58447 0.08267 0.04425 0.0
H3296 H 0.68918 0.12038 0.08202 0.0
H3297 H 0.60043 0.01931 0.01762 0.0
H3298 H 0.62293 0.10236 0.04287 0.0
H3299 H 0.66861 0.05605 0.01431 0.0
C3300 C 0.69565 0.07808 0.03921 0.0
C3301 C 0.70177 0.09627 0.05848 0.0
C3302 C 0.61781 0.08427 0.03648 0.0
C3303 C 0.65724 0.08097 0.03808 0.0
C3304 C 0.59591 0.07315 0.03703 0.0
C3305 C 0.58986 0.04956 0.03123 0.0
C3306 C 0.6334 0.07142 0.0305 0.0
C3307 C 0.60501 0.03763 0.02242 0.0
C3308 C 0.6733 0.07031 0.02898 0.0
C3309 C 0.68515 0.10629 0.06718 0.0
N3310 N 0.62647 0.0487 0.02275 0.0
N3311 N 0.66357 0.09843 0.05692 0.0
H3312 H 0.24897 0.50961 0.23781 0.0
H3313 H 0.23327 0.39067 0.2872 0.0
H3314 H 0.18699 0.45861 0.22359 0.0
H3315 H 0.28768 0.44852 0.31421 0.0
H3316 H 0.22011 0.41126 0.25491 0.0
H3317 H 0.26789 0.4823 0.25496 0.0
C3318 C 0.2395 0.49242 0.2376 0.0
C3319 C 0.21629 0.48645 0.23005 0.0
C3320 C 0.23498 0.41939 0.26782 0.0
C3321 C 0.23765 0.45547 0.24989 0.0
C3322 C 0.24228 0.40782 0.2863 0.0
C3323 C 0.26111 0.41837 0.30355 0.0
C3324 C 0.24675 0.44151 0.26663 0.0
C3325 C 0.27268 0.44026 0.30157 0.0
C3326 C 0.25027 0.47692 0.24752 0.0
C3327 C 0.20485 0.46394 0.22969 0.0
N3328 N 0.26522 0.45124 0.28341 0.0
N3329 N 0.21559 0.44931 0.24014 0.0
H3330 H 0.21292 0.3908 0.04889 0.0
H3331 H 0.18433 0.50471 0.00846 0.0
H3332 H 0.26333 0.4492 0.04016 0.0
H3333 H 0.1348 0.44539 0.01583 0.0
H3334 H 0.21375 0.48746 0.02699 0.0
H3335 H 0.18441 0.41286 0.04298 0.0
C3336 C 0.21804 0.40833 0.04594 0.0
C3337 C 0.24052 0.41807 0.04475 0.0
C3338 C 0.19642 0.47842 0.02509 0.0
C3339 C 0.20788 0.44352 0.03796 0.0
C3340 C 0.17969 0.48835 0.01476 0.0
C3341 C 0.15729 0.47639 0.01088 0.0
C3342 C 0.19057 0.45631 0.03122 0.0
C3343 C 0.15195 0.45511 0.01879 0.0
C3344 C 0.20173 0.42096 0.0426 0.0
C3345 C 0.24615 0.44093 0.04097 0.0
N3346 N 0.16851 0.44561 0.02835 0.0
N3347 N 0.2299 0.45283 0.0375 0.0
H3348 H 0.86396 0.95473 0.23264 0.0
H3349 H 0.82673 0.85579 0.30796 0.0
H3350 H 0.91409 0.9311 0.27745 0.0
H3351 H 0.80765 0.84161 0.22926 0.0
H3352 H 0.85226 0.89134 0.30291 0.0
H3353 H 0.83619 0.92007 0.23646 0.0
C3354 C 0.86905 0.94222 0.24322 0.0
C3355 C 0.89125 0.94547 0.25458 0.0
C3356 C 0.84222 0.88052 0.28684 0.0
C3357 C 0.8598 0.90683 0.25971 0.0
C3358 C 0.82774 0.8604 0.28968 0.0
C3359 C 0.81567 0.84577 0.2689 0.0
C3360 C 0.84365 0.88642 0.26319 0.0
C3361 C 0.81715 0.85244 0.24559 0.0
C3362 C 0.85331 0.92261 0.24535 0.0
C3363 C 0.89715 0.92896 0.2682 0.0
N3364 N 0.83089 0.8725 0.2433 0.0
N3365 N 0.8814 0.91043 0.2707 0.0
H3366 H 0.74884 0.10581 0.77056 0.0
H3367 H 0.73218 0.22983 0.76949 0.0
H3368 H 0.68858 0.12453 0.73997 0.0
H3369 H 0.79552 0.21221 0.7889 0.0
H3370 H 0.71279 0.19194 0.77541 0.0
H3371 H 0.76274 0.14452 0.79162 0.0
C3372 C 0.73856 0.1181 0.76832 0.0
C3373 C 0.71791 0.1123 0.75299 0.0
C3374 C 0.73092 0.19655 0.77917 0.0
C3375 C 0.73341 0.15622 0.77721 0.0
C3376 C 0.74189 0.21811 0.77589 0.0
C3377 C 0.76522 0.22347 0.77837 0.0
C3378 C 0.74361 0.18042 0.784 0.0
C3379 C 0.77738 0.2081 0.78644 0.0
C3380 C 0.74633 0.14005 0.78058 0.0
C3381 C 0.70496 0.12859 0.75102 0.0
N3382 N 0.76636 0.18689 0.78852 0.0
N3383 N 0.71308 0.14997 0.76281 0.0
loop_
_geom_bond_atom_site_label_1
_geom_bond_atom_site_label_2
_geom_bond_distance
_geom_bond_site_symmetry_2
_ccdc_geom_bond_type
C0 O1 1.160 . S
C0 O7 1.185 . S
O1 C0 1.160 . S
O2 Zn3 1.899 . S
O2 C10 1.284 . S
Zn3 O2 1.899 . S
Zn3 O4 2.032 . S
Zn3 O7 2.086 . S
Zn3 O12 1.977 . S
O4 Zn3 2.032 . S
O4 C8 1.278 . S
C5 O6 1.203 . S
C5 O12 1.267 1_655 S
O6 C5 1.203 . S
O7 C0 1.185 . S
O7 Zn3 2.086 . S
C8 O4 1.278 . S
C8 O9 1.211 . S
O9 C8 1.211 . S
C10 O2 1.284 . S
C10 O11 1.273 . S
O11 C10 1.273 . S
O12 Zn3 1.977 . S
O12 C5 1.267 1_455 S
C13 O14 1.160 . S
C13 O20 1.185 . S
O14 C13 1.160 . S
O15 Zn16 1.899 . S
O15 C23 1.284 . S
Zn16 O15 1.899 . S
Zn16 O17 2.032 . S
Zn16 O20 2.086 1_455 S
Zn16 O25 1.977 . S
O17 Zn16 2.032 . S
O17 C21 1.278 . S
C18 O19 1.203 . S
C18 O25 1.267 . S
O19 C18 1.203 . S
O20 C13 1.185 . S
O20 Zn16 2.086 1_655 S
C21 O17 1.278 . S
C21 O22 1.211 . S
O22 C21 1.211 . S
C23 O15 1.284 . S
C23 O24 1.273 . S
O24 C23 1.273 . S
O25 Zn16 1.977 . S
O25 C18 1.267 . S
C26 O27 1.160 . S
C26 O33 1.185 . S
O27 C26 1.160 . S
O28 Zn29 1.899 . S
O28 C36 1.284 . S
Zn29 O28 1.899 . S
Zn29 O30 2.032 . S
Zn29 O33 2.086 . S
Zn29 O38 1.977 . S
O30 Zn29 2.032 . S
O30 C34 1.278 . S
C31 O32 1.203 . S
C31 O38 1.267 . S
O32 C31 1.203 . S
O33 C26 1.185 . S
O33 Zn29 2.086 . S
C34 O30 1.278 . S
C34 O35 1.211 . S
O35 C34 1.211 . S
C36 O28 1.284 . S
C36 O37 1.273 . S
O37 C36 1.273 . S
O38 Zn29 1.977 . S
O38 C31 1.267 . S
C39 O40 1.160 . S
C39 O46 1.185 . S
O40 C39 1.160 . S
O41 Zn42 1.899 . S
O41 C49 1.284 . S
Zn42 O41 1.899 . S
Zn42 O43 2.032 . S
Zn42 O46 2.086 . S
Zn42 O51 1.977 . S
O43 Zn42 2.032 . S
O43 C47 1.278 . S
C44 O45 1.203 . S
C44 O51 1.267 . S
O45 C44 1.203 . S
O46 C39 1.185 . S
O46 Zn42 2.086 . S
C47 O43 1.278 . S
C47 O48 1.211 . S
O48 C47 1.211 . S
C49 O41 1.284 . S
C49 O50 1.273 . S
O50 C49 1.273 . S
O51 Zn42 1.977 . S
O51 C44 1.267 . S
C52 O53 1.160 . S
C52 O59 1.185 . S
O53 C52 1.160 . S
O54 Zn55 1.899 . S
O54 C62 1.284 . S
Zn55 O54 1.899 . S
Zn55 O56 2.032 . S
Zn55 O59 2.086 . S
Zn55 O64 1.977 . S
O56 Zn55 2.032 . S
O56 C60 1.278 . S
C57 O58 1.203 . S
C57 O64 1.267 . S
O58 C57 1.203 . S
O59 C52 1.185 . S
O59 Zn55 2.086 . S
C60 O56 1.278 . S
C60 O61 1.211 . S
O61 C60 1.211 . S
C62 O54 1.284 . S
C62 O63 1.273 . S
O63 C62 1.273 . S
O64 Zn55 1.977 . S
O64 C57 1.267 . S
C65 O66 1.160 . S
C65 O72 1.185 . S
O66 C65 1.160 . S
O67 Zn68 1.899 . S
O67 C75 1.284 . S
Zn68 O67 1.899 . S
Zn68 O69 2.032 . S
Zn68 O72 2.086 . S
Zn68 O77 1.977 . S
O69 Zn68 2.032 . S
O69 C73 1.278 . S
C70 O71 1.203 . S
C70 O77 1.267 . S
O71 C70 1.203 . S
O72 C65 1.185 . S
O72 Zn68 2.086 . S
C73 O69 1.278 . S
C73 O74 1.211 . S
O74 C73 1.211 . S
C75 O67 1.284 . S
C75 O76 1.273 . S
O76 C75 1.273 . S
O77 Zn68 1.977 . S
O77 C70 1.267 . S
C78 O79 1.160 . S
C78 O85 1.185 . S
O79 C78 1.160 . S
O80 Zn81 1.899 . S
O80 C88 1.284 . S
Zn81 O80 1.899 . S
Zn81 O82 2.032 . S
Zn81 O85 2.086 . S
Zn81 O90 1.977 . S
O82 Zn81 2.032 . S
O82 C86 1.278 . S
C83 O84 1.203 . S
C83 O90 1.267 . S
O84 C83 1.203 . S
O85 C78 1.185 . S
O85 Zn81 2.086 . S
C86 O82 1.278 . S
C86 O87 1.211 . S
O87 C86 1.211 . S
C88 O80 1.284 . S
C88 O89 1.273 . S
O89 C88 1.273 . S
O90 Zn81 1.977 . S
O90 C83 1.267 . S
C91 O92 1.160 . S
C91 O98 1.185 . S
O92 C91 1.160 . S
O93 Zn94 1.899 . S
O93 C101 1.284 1_455 S
Zn94 O93 1.899 . S
Zn94 O95 2.032 . S
Zn94 O98 2.086 . S
Zn94 O103 1.977 1_455 S
O95 Zn94 2.032 . S
O95 C99 1.278 . S
C96 O97 1.203 . S
C96 O103 1.267 . S
O97 C96 1.203 . S
O98 C91 1.185 . S
O98 Zn94 2.086 . S
C99 O95 1.278 . S
C99 O100 1.211 1_455 S
O100 C99 1.211 1_655 S
C101 O93 1.284 1_655 S
C101 O102 1.273 . S
O102 C101 1.273 . S
O103 Zn94 1.977 1_655 S
O103 C96 1.267 . S
C104 O105 1.160 . S
C104 O111 1.185 . S
O105 C104 1.160 . S
O106 Zn107 1.899 . S
O106 C114 1.284 . S
Zn107 O106 1.899 . S
Zn107 O108 2.032 . S
Zn107 O111 2.086 . S
Zn107 O116 1.977 1_545 S
O108 Zn107 2.032 . S
O108 C112 1.278 . S
C109 O110 1.203 . S
C109 O116 1.267 . S
O110 C109 1.203 . S
O111 C104 1.185 . S
O111 Zn107 2.086 . S
C112 O108 1.278 . S
C112 O113 1.211 1_545 S
O113 C112 1.211 1_565 S
C114 O106 1.284 . S
C114 O115 1.280 . S
O115 C114 1.280 . S
O116 Zn107 1.977 1_565 S
O116 C109 1.267 . S
C117 O118 1.160 . S
C117 O124 1.185 . S
O118 C117 1.160 . S
O119 Zn120 1.899 . S
O119 C127 1.284 . S
Zn120 O119 1.899 . S
Zn120 O121 2.032 . S
Zn120 O124 2.086 . S
Zn120 O129 1.977 . S
O121 Zn120 2.032 . S
O121 C125 1.278 . S
C122 O123 1.203 . S
C122 O129 1.267 . S
O123 C122 1.203 . S
O124 C117 1.185 . S
O124 Zn120 2.086 . S
C125 O121 1.278 . S
C125 O126 1.211 . S
O126 C125 1.211 . S
C127 O119 1.284 . S
C127 O128 1.273 . S
O128 C127 1.273 . S
O129 Zn120 1.977 . S
O129 C122 1.267 . S
C130 O131 1.160 1_545 S
C130 O137 1.185 . S
O131 C130 1.160 1_565 S
O132 Zn133 1.899 . S
O132 C140 1.284 . S
Zn133 O132 1.899 . S
Zn133 O134 2.032 . S
Zn133 O137 2.086 . S
Zn133 O142 1.977 . S
O134 Zn133 2.032 . S
O134 C138 1.278 . S
C135 O136 1.203 . S
C135 O142 1.267 . S
O136 C135 1.203 . S
O137 C130 1.185 . S
O137 Zn133 2.086 . S
C138 O134 1.278 . S
C138 O139 1.211 . S
O139 C138 1.211 . S
C140 O132 1.284 . S
C140 O141 1.273 . S
O141 C140 1.273 . S
O142 Zn133 1.977 . S
O142 C135 1.267 . S
C143 O144 1.160 . S
C143 O150 1.185 1_554 S
O144 C143 1.160 . S
O145 Zn146 1.899 . S
O145 C153 1.284 . S
Zn146 O145 1.899 . S
Zn146 O147 2.032 1_554 S
Zn146 O150 2.086 1_554 S
Zn146 O155 1.988 . S
O147 Zn146 2.032 1_556 S
O147 C151 1.278 . S
C148 O149 1.203 . S
C148 O155 1.278 . S
O149 C148 1.203 . S
O150 C143 1.185 1_556 S
O150 Zn146 2.086 1_556 S
C151 O147 1.278 . S
C151 O152 1.211 . S
O152 C151 1.211 . S
C153 O145 1.284 . S
C153 O154 1.273 . S
O154 C153 1.273 . S
O155 Zn146 1.988 . S
O155 C148 1.278 . S
C156 O157 1.160 . S
C156 O163 1.185 . S
O157 C156 1.160 . S
O158 Zn159 1.899 . S
O158 C166 1.284 . S
Zn159 O158 1.899 . S
Zn159 O160 2.032 . S
Zn159 O163 2.086 . S
Zn159 O168 1.977 . S
O160 Zn159 2.032 . S
O160 C164 1.278 . S
C161 O162 1.203 . S
C161 O168 1.267 . S
O162 C161 1.203 . S
O163 C156 1.185 . S
O163 Zn159 2.086 . S
C164 O160 1.278 . S
C164 O165 1.211 . S
O165 C164 1.211 . S
C166 O158 1.284 . S
C166 O167 1.273 . S
O167 C166 1.273 . S
O168 Zn159 1.977 . S
O168 C161 1.267 . S
C169 O170 1.160 . S
C169 O176 1.185 . S
O170 C169 1.160 . S
O171 Zn172 1.899 . S
O171 C179 1.284 . S
Zn172 O171 1.899 . S
Zn172 O173 2.032 . S
Zn172 O176 2.086 . S
Zn172 O181 1.977 . S
O173 Zn172 2.032 . S
O173 C177 1.278 . S
C174 O175 1.203 . S
C174 O181 1.267 . S
O175 C174 1.203 . S
O176 C169 1.185 . S
O176 Zn172 2.086 . S
C177 O173 1.278 . S
C177 O178 1.211 . S
O178 C177 1.211 . S
C179 O171 1.284 . S
C179 O180 1.273 . S
O180 C179 1.273 . S
O181 Zn172 1.977 . S
O181 C174 1.267 . S
C182 O183 1.160 . S
C182 O189 1.185 . S
O183 C182 1.160 . S
O184 Zn185 1.899 . S
O184 C192 1.284 . S
Zn185 O184 1.899 . S
Zn185 O186 2.032 . S
Zn185 O189 2.086 . S
Zn185 O194 1.977 . S
O186 Zn185 2.032 . S
O186 C190 1.278 . S
C187 O188 1.203 . S
C187 O194 1.267 . S
O188 C187 1.203 . S
O189 C182 1.185 . S
O189 Zn185 2.086 . S
C190 O186 1.278 . S
C190 O191 1.211 . S
O191 C190 1.211 . S
C192 O184 1.284 . S
C192 O193 1.273 . S
O193 C192 1.273 . S
O194 Zn185 1.977 . S
O194 C187 1.267 . S
C195 O196 1.160 . S
C195 O202 1.185 . S
O196 C195 1.160 . S
O197 Zn198 1.899 . S
O197 C205 1.284 . S
Zn198 O197 1.899 . S
Zn198 O199 2.032 . S
Zn198 O202 2.086 . S
Zn198 O207 1.977 . S
O199 Zn198 2.032 . S
O199 C203 1.278 . S
C200 O201 1.203 . S
C200 O207 1.267 . S
O201 C200 1.203 . S
O202 C195 1.185 . S
O202 Zn198 2.086 . S
C203 O199 1.278 . S
C203 O204 1.211 . S
O204 C203 1.211 . S
C205 O197 1.284 . S
C205 O206 1.273 . S
O206 C205 1.273 . S
O207 Zn198 1.977 . S
O207 C200 1.267 . S
C208 O209 1.160 . S
C208 O215 1.185 . S
O209 C208 1.160 . S
O210 Zn211 1.899 . S
O210 C218 1.284 . S
Zn211 O210 1.899 . S
Zn211 O212 2.032 . S
Zn211 O215 2.086 . S
Zn211 O220 1.977 1_545 S
O212 Zn211 2.032 . S
O212 C216 1.278 . S
C213 O214 1.203 . S
C213 O220 1.267 . S
O214 C213 1.203 . S
O215 C208 1.185 . S
O215 Zn211 2.086 . S
C216 O212 1.278 . S
C216 O217 1.211 1_545 S
O217 C216 1.211 1_565 S
C218 O210 1.284 . S
C218 O219 1.273 . S
O219 C218 1.273 . S
O220 Zn211 1.977 1_565 S
O220 C213 1.267 . S
C221 O222 1.160 . S
C221 O228 1.185 . S
O222 C221 1.160 . S
O223 Zn224 1.899 . S
O223 C231 1.284 . S
Zn224 O223 1.899 . S
Zn224 O225 2.032 . S
Zn224 O228 2.086 . S
Zn224 O233 1.977 . S
O225 Zn224 2.032 . S
O225 C229 1.278 . S
C226 O227 1.203 . S
C226 O233 1.267 . S
O227 C226 1.203 . S
O228 C221 1.185 . S
O228 Zn224 2.086 . S
C229 O225 1.278 . S
C229 O230 1.211 . S
O230 C229 1.211 . S
C231 O223 1.284 . S
C231 O232 1.273 . S
O232 C231 1.273 . S
O233 Zn224 1.977 . S
O233 C226 1.267 . S
C234 O235 1.160 . S
C234 O241 1.185 . S
O235 C234 1.160 . S
O236 Zn237 1.899 . S
O236 C244 1.284 . S
Zn237 O236 1.899 . S
Zn237 O238 2.032 . S
Zn237 O241 2.086 . S
Zn237 O246 1.977 . S
O238 Zn237 2.032 . S
O238 C242 1.278 . S
C239 O240 1.203 . S
C239 O246 1.267 . S
O240 C239 1.203 . S
O241 C234 1.185 . S
O241 Zn237 2.086 . S
C242 O238 1.278 . S
C242 O243 1.211 . S
O243 C242 1.211 . S
C244 O236 1.284 . S
C244 O245 1.273 . S
O245 C244 1.273 . S
O246 Zn237 1.977 . S
O246 C239 1.267 . S
C247 O248 1.160 . S
C247 O254 1.185 . S
O248 C247 1.160 . S
O249 Zn250 1.899 . S
O249 C257 1.284 . S
Zn250 O249 1.899 . S
Zn250 O251 2.032 . S
Zn250 O254 2.086 . S
Zn250 O259 1.977 . S
O251 Zn250 2.032 . S
O251 C255 1.278 . S
C252 O253 1.203 . S
C252 O259 1.267 . S
O253 C252 1.203 . S
O254 C247 1.185 . S
O254 Zn250 2.086 . S
C255 O251 1.278 . S
C255 O256 1.211 . S
O256 C255 1.211 . S
C257 O249 1.284 . S
C257 O258 1.273 . S
O258 C257 1.273 . S
O259 Zn250 1.977 . S
O259 C252 1.267 . S
C260 O261 1.160 . S
C260 O267 1.185 . S
O261 C260 1.160 . S
O262 Zn263 1.899 . S
O262 C270 1.284 . S
Zn263 O262 1.899 . S
Zn263 O264 2.032 1_554 S
Zn263 O267 2.086 . S
Zn263 O272 1.977 . S
O264 Zn263 2.032 1_556 S
O264 C268 1.278 . S
C265 O266 1.203 . S
C265 O272 1.267 . S
O266 C265 1.203 . S
O267 C260 1.185 . S
O267 Zn263 2.086 . S
C268 O264 1.278 . S
C268 O269 1.211 . S
O269 C268 1.211 . S
C270 O262 1.284 . S
C270 O271 1.273 . S
O271 C270 1.273 . S
O272 Zn263 1.977 . S
O272 C265 1.267 . S
C273 O274 1.160 . S
C273 O280 1.185 . S
O274 C273 1.160 . S
O275 Zn276 1.899 . S
O275 C283 1.284 . S
Zn276 O275 1.899 . S
Zn276 O277 2.032 . S
Zn276 O280 2.086 . S
Zn276 O285 1.977 . S
O277 Zn276 2.032 . S
O277 C281 1.278 . S
C278 O279 1.203 . S
C278 O285 1.267 . S
O279 C278 1.203 . S
O280 C273 1.185 . S
O280 Zn276 2.086 . S
C281 O277 1.278 . S
C281 O282 1.211 . S
O282 C281 1.211 . S
C283 O275 1.284 . S
C283 O284 1.273 . S
O284 C283 1.273 . S
O285 Zn276 1.977 . S
O285 C278 1.267 . S
C286 O287 1.160 . S
C286 O293 1.185 . S
O287 C286 1.160 . S
O288 Zn289 1.899 . S
O288 C296 1.284 . S
Zn289 O288 1.899 . S
Zn289 O290 2.032 . S
Zn289 O293 2.086 . S
Zn289 O298 1.977 . S
O290 Zn289 2.032 . S
O290 C294 1.278 . S
C291 O292 1.203 . S
C291 O298 1.267 . S
O292 C291 1.203 . S
O293 C286 1.185 . S
O293 Zn289 2.086 . S
C294 O290 1.278 . S
C294 O295 1.211 . S
O295 C294 1.211 . S
C296 O288 1.284 . S
C296 O297 1.273 . S
O297 C296 1.273 . S
O298 Zn289 1.977 . S
O298 C291 1.267 . S
C299 O300 1.160 . S
C299 O306 1.185 . S
O300 C299 1.160 . S
O301 Zn302 1.899 . S
O301 C309 1.284 . S
Zn302 O301 1.899 . S
Zn302 O303 2.032 . S
Zn302 O306 2.086 . S
Zn302 O311 1.977 . S
O303 Zn302 2.032 . S
O303 C307 1.278 . S
C304 O305 1.203 . S
C304 O311 1.267 . S
O305 C304 1.203 . S
O306 C299 1.185 . S
O306 Zn302 2.086 . S
C307 O303 1.278 . S
C307 O308 1.211 . S
O308 C307 1.211 . S
C309 O301 1.284 . S
C309 O310 1.273 . S
O310 C309 1.273 . S
O311 Zn302 1.977 . S
O311 C304 1.267 . S
Eu312 N341 2.600 . S
Eu312 N347 2.562 . S
Eu312 O356 2.462 . S
Eu312 O357 2.373 . S
Eu312 O359 2.432 . S
Eu312 O360 2.291 . S
Eu312 O364 2.322 1_545 S
Eu312 O367 2.372 . S
Eu312 C376 2.787 . S
C313 N314 1.365 . S
C313 C316 1.405 . S
C313 C320 1.448 1_556 S
N314 C313 1.365 . S
N314 C317 1.319 . S
N314 Eu323 2.600 1_566 S
C315 C317 1.397 . S
C315 C318 1.367 . S
C315 H335 0.931 . S
C316 C313 1.405 . S
C316 C318 1.403 . S
C316 C322 1.439 . S
C317 N314 1.319 . S
C317 C315 1.397 . S
C317 H328 0.930 . S
C318 C315 1.367 . S
C318 C316 1.403 . S
C318 H339 0.929 . S
C319 C320 1.430 . S
C319 C321 1.387 1_554 S
C319 C325 1.404 . S
C320 C313 1.448 1_554 S
C320 C319 1.430 . S
C320 N324 1.351 . S
C321 C319 1.387 1_556 S
C321 C322 1.374 . S
C321 H336 0.931 . S
C322 C316 1.439 . S
C322 C321 1.374 . S
C322 H337 0.931 . S
Eu323 N314 2.600 1_544 S
Eu323 N324 2.562 1_545 S
Eu323 O358 2.335 1_655 S
Eu323 O361 2.372 1_654 S
Eu323 O362 2.462 . S
Eu323 O363 2.373 1_645 S
Eu323 O365 2.432 1_554 S
Eu323 O366 2.291 1_655 S
Eu323 C387 2.785 1_554 S
N324 C320 1.351 . S
N324 Eu323 2.562 1_565 S
N324 C326 1.325 . S
C325 C319 1.404 . S
C325 C327 1.366 . S
C325 H333 0.930 . S
C326 N324 1.325 . S
C326 C327 1.416 . S
C326 H332 0.929 . S
C327 C325 1.366 . S
C327 C326 1.416 . S
C327 H329 0.930 . S
H328 C317 0.930 . S
H329 C327 0.930 . S
H330 C345 0.930 . S
H331 C352 0.930 1_556 S
H332 C326 0.929 . S
H333 C325 0.930 . S
H334 C348 0.910 1_556 S
H335 C315 0.931 . S
H336 C321 0.931 . S
H337 C322 0.931 . S
H338 C343 0.931 . S
H339 C318 0.929 . S
H340 C351 0.930 . S
N341 Eu312 2.600 . S
N341 C342 1.365 . S
N341 C345 1.319 . S
C342 N341 1.365 . S
C342 C344 1.405 . S
C342 C350 1.448 . S
C343 H338 0.931 . S
C343 C345 1.397 . S
C343 C346 1.367 . S
C344 C342 1.405 . S
C344 C346 1.403 . S
C344 C377 1.439 . S
C345 H330 0.930 . S
C345 N341 1.319 . S
C345 C343 1.397 . S
C346 C343 1.367 . S
C346 C344 1.403 . S
C346 H353 0.929 . S
N347 Eu312 2.562 . S
N347 C348 1.325 . S
N347 C350 1.351 . S
C348 H334 0.910 1_554 S
C348 N347 1.325 . S
C348 C352 1.416 . S
C349 C350 1.430 . S
C349 C351 1.404 . S
C349 C378 1.387 . S
C350 C342 1.448 . S
C350 N347 1.351 . S
C350 C349 1.430 . S
C351 H340 0.930 . S
C351 C349 1.404 . S
C351 C352 1.366 . S
C352 H331 0.930 1_554 S
C352 C348 1.416 . S
C352 C351 1.366 . S
H353 C346 0.929 . S
H354 C377 0.931 . S
H355 C378 0.931 . S
O356 Eu312 2.462 . S
O356 C376 1.252 . S
O357 Eu312 2.373 . S
O357 C368 1.249 . S
O358 Eu323 2.335 1_455 S
O358 C368 1.264 . S
O359 Eu312 2.432 . S
O359 C376 1.268 . S
O360 Eu312 2.291 . S
O360 C375 1.255 1_554 S
O361 Eu323 2.372 1_456 S
O361 C375 1.257 . S
O362 Eu323 2.462 . S
O362 C387 1.232 1_554 S
O363 Eu323 2.373 1_465 S
O363 C379 1.249 . S
O364 Eu312 2.322 1_565 S
O364 C379 1.271 . S
O365 Eu323 2.432 1_556 S
O365 C387 1.287 . S
O366 Eu323 2.291 1_455 S
O366 C386 1.255 . S
O367 Eu312 2.372 . S
O367 C386 1.257 . S
C368 O357 1.249 . S
C368 O358 1.264 . S
C369 C372 1.382 . S
C369 C374 1.390 . S
C369 C376 1.506 . S
C370 C371 1.398 . S
C370 C374 1.392 . S
C371 C370 1.398 . S
C371 C373 1.372 . S
C371 H388 0.927 1_545 S
C372 C369 1.382 . S
C372 C373 1.390 . S
C372 H389 0.931 . S
C373 C371 1.372 . S
C373 C372 1.390 . S
C373 H390 0.929 . S
C374 C369 1.390 . S
C374 C370 1.392 . S
C374 H391 0.930 . S
C375 O360 1.255 1_556 S
C375 O361 1.257 . S
C376 Eu312 2.787 . S
C376 O356 1.252 . S
C376 O359 1.268 . S
C376 C369 1.506 . S
C377 C344 1.439 . S
C377 H354 0.931 . S
C377 C378 1.374 . S
C378 C349 1.387 . S
C378 H355 0.931 . S
C378 C377 1.374 . S
C379 O363 1.249 . S
C379 O364 1.271 . S
C380 C383 1.382 . S
C380 C384 1.390 1_556 S
C380 C387 1.508 . S
C381 C382 1.398 1_554 S
C381 C384 1.392 . S
C382 C381 1.398 1_556 S
C382 C385 1.372 . S
C382 H392 0.931 . S
C383 C380 1.382 . S
C383 C385 1.390 . S
C383 H393 0.931 . S
C384 C380 1.390 1_554 S
C384 C381 1.392 . S
C384 H394 0.930 . S
C385 C382 1.372 . S
C385 C383 1.390 . S
C385 H395 0.929 . S
C386 O366 1.255 . S
C386 O367 1.257 . S
C387 Eu323 2.785 1_556 S
C387 O362 1.232 1_556 S
C387 O365 1.287 . S
C387 C380 1.508 . S
H388 C371 0.927 1_565 S
H389 C372 0.931 . S
H390 C373 0.929 . S
H391 C374 0.930 . S
H392 C382 0.931 . S
H393 C383 0.931 . S
H394 C384 0.930 . S
H395 C385 0.929 . S
Eu396 N425 2.600 . S
Eu396 N431 2.562 . S
Eu396 O440 2.462 . S
Eu396 O441 2.373 . S
Eu396 O443 2.432 . S
Eu396 O444 2.291 . S
Eu396 O448 2.335 . S
Eu396 O451 2.372 . S
Eu396 C460 2.787 . S
C397 N398 1.365 . S
C397 C400 1.405 . S
C397 C404 1.448 . S
N398 C397 1.365 . S
N398 C401 1.319 . S
N398 Eu407 2.600 . S
C399 C401 1.397 . S
C399 C402 1.367 . S
C399 H419 0.931 . S
C400 C397 1.405 . S
C400 C402 1.403 . S
C400 C406 1.439 . S
C401 N398 1.319 . S
C401 C399 1.397 . S
C401 H412 0.930 . S
C402 C399 1.367 . S
C402 C400 1.403 . S
C402 H423 0.929 . S
C403 C404 1.430 . S
C403 C405 1.387 . S
C403 C409 1.404 . S
C404 C397 1.448 . S
C404 C403 1.430 . S
C404 N408 1.351 . S
C405 C403 1.387 . S
C405 C406 1.374 . S
C405 H420 0.931 . S
C406 C400 1.439 . S
C406 C405 1.374 . S
C406 H421 0.931 . S
Eu407 N398 2.600 . S
Eu407 N408 2.562 . S
Eu407 O442 2.335 . S
Eu407 O445 2.372 . S
Eu407 O446 2.462 . S
Eu407 O447 2.373 . S
Eu407 O449 2.432 . S
Eu407 O450 2.291 . S
Eu407 C471 2.787 . S
N408 C404 1.351 . S
N408 Eu407 2.562 . S
N408 C410 1.325 . S
C409 C403 1.404 . S
C409 C411 1.366 . S
C409 H417 0.930 . S
C410 N408 1.325 . S
C410 C411 1.416 . S
C410 H416 0.929 . S
C411 C409 1.366 . S
C411 C410 1.416 . S
C411 H413 0.930 . S
H412 C401 0.930 . S
H413 C411 0.930 . S
H414 C429 0.930 . S
H415 C436 0.930 . S
H416 C410 0.929 . S
H417 C409 0.930 . S
H418 C432 0.929 . S
H419 C399 0.931 . S
H420 C405 0.931 . S
H421 C406 0.931 . S
H422 C427 0.931 . S
H423 C402 0.929 . S
H424 C435 0.930 . S
N425 Eu396 2.600 . S
N425 C426 1.365 . S
N425 C429 1.319 . S
C426 N425 1.365 . S
C426 C428 1.405 . S
C426 C434 1.448 . S
C427 H422 0.931 . S
C427 C429 1.397 . S
C427 C430 1.367 . S
C428 C426 1.405 . S
C428 C430 1.403 . S
C428 C461 1.439 . S
C429 H414 0.930 . S
C429 N425 1.319 . S
C429 C427 1.397 . S
C430 C427 1.367 . S
C430 C428 1.403 . S
C430 H437 0.929 . S
N431 Eu396 2.562 . S
N431 C432 1.325 . S
N431 C434 1.351 . S
C432 H418 0.929 . S
C432 N431 1.325 . S
C432 C436 1.416 . S
C433 C434 1.430 . S
C433 C435 1.404 . S
C433 C462 1.387 . S
C434 C426 1.448 . S
C434 N431 1.351 . S
C434 C433 1.430 . S
C435 H424 0.930 . S
C435 C433 1.404 . S
C435 C436 1.366 . S
C436 H415 0.930 . S
C436 C432 1.416 . S
C436 C435 1.366 . S
H437 C430 0.929 . S
H438 C461 0.931 . S
H439 C462 0.931 . S
O440 Eu396 2.462 . S
O440 C460 1.252 . S
O441 Eu396 2.373 . S
O441 C452 1.249 . S
O442 Eu407 2.335 . S
O442 C452 1.264 . S
O443 Eu396 2.432 . S
O443 C460 1.268 . S
O444 Eu396 2.291 . S
O444 C459 1.255 . S
O445 Eu407 2.372 . S
O445 C459 1.257 . S
O446 Eu407 2.462 . S
O446 C471 1.252 . S
O447 Eu407 2.373 . S
O447 C463 1.249 . S
O448 Eu396 2.335 . S
O448 C463 1.264 . S
O449 Eu407 2.432 . S
O449 C471 1.268 . S
O450 Eu407 2.291 . S
O450 C470 1.255 . S
O451 Eu396 2.372 . S
O451 C470 1.257 . S
C452 O441 1.249 . S
C452 O442 1.264 . S
C453 C456 1.382 . S
C453 C458 1.390 . S
C453 C460 1.506 . S
C454 C455 1.398 . S
C454 C458 1.392 . S
C455 C454 1.398 . S
C455 C457 1.372 . S
C455 H472 0.931 . S
C456 C453 1.382 . S
C456 C457 1.390 . S
C456 H473 0.931 . S
C457 C455 1.372 . S
C457 C456 1.390 . S
C457 H474 0.929 . S
C458 C453 1.390 . S
C458 C454 1.392 . S
C458 H475 0.930 . S
C459 O444 1.255 . S
C459 O445 1.257 . S
C460 Eu396 2.787 . S
C460 O440 1.252 . S
C460 O443 1.268 . S
C460 C453 1.506 . S
C461 C428 1.439 . S
C461 H438 0.931 . S
C461 C462 1.374 . S
C462 C433 1.387 . S
C462 H439 0.931 . S
C462 C461 1.374 . S
C463 O447 1.249 . S
C463 O448 1.264 . S
C464 C467 1.382 . S
C464 C468 1.390 . S
C464 C471 1.506 . S
C465 C466 1.398 . S
C465 C468 1.392 . S
C466 C465 1.398 . S
C466 C469 1.372 . S
C466 H476 0.931 . S
C467 C464 1.382 . S
C467 C469 1.390 . S
C467 H477 0.931 . S
C468 C464 1.390 . S
C468 C465 1.392 . S
C468 H478 0.930 . S
C469 C466 1.372 . S
C469 C467 1.390 . S
C469 H479 0.929 . S
C470 O450 1.255 . S
C470 O451 1.257 . S
C471 Eu407 2.787 . S
C471 O446 1.252 . S
C471 O449 1.268 . S
C471 C464 1.506 . S
H472 C455 0.931 . S
H473 C456 0.931 . S
H474 C457 0.929 . S
H475 C458 0.930 . S
H476 C466 0.931 . S
H477 C467 0.931 . S
H478 C468 0.930 . S
H479 C469 0.929 . S
Eu480 N509 2.600 . S
Eu480 N515 2.562 1_545 S
Eu480 O524 2.462 . S
Eu480 O525 2.373 1_545 S
Eu480 O527 2.432 . S
Eu480 O528 2.291 . S
Eu480 O532 2.335 . S
Eu480 O535 2.372 . S
Eu480 C544 2.787 . S
C481 N482 1.365 . S
C481 C484 1.405 . S
C481 C488 1.448 . S
N482 C481 1.365 . S
N482 C485 1.319 . S
N482 Eu491 2.600 . S
C483 C485 1.397 . S
C483 C486 1.367 . S
C483 H503 0.931 . S
C484 C481 1.405 . S
C484 C486 1.403 . S
C484 C490 1.439 . S
C485 N482 1.319 . S
C485 C483 1.397 . S
C485 H496 0.930 . S
C486 C483 1.367 . S
C486 C484 1.403 . S
C486 H507 0.929 . S
C487 C488 1.430 . S
C487 C489 1.387 . S
C487 C493 1.404 . S
C488 C481 1.448 . S
C488 C487 1.430 . S
C488 N492 1.351 . S
C489 C487 1.387 . S
C489 C490 1.374 . S
C489 H504 0.931 . S
C490 C484 1.439 . S
C490 C489 1.374 . S
C490 H505 0.931 . S
Eu491 N482 2.600 . S
Eu491 N492 2.562 . S
Eu491 O526 2.335 1_545 S
Eu491 O529 2.372 . S
Eu491 O530 2.462 . S
Eu491 O531 2.373 . S
Eu491 O533 2.432 . S
Eu491 O534 2.291 . S
Eu491 C555 2.787 . S
N492 C488 1.351 . S
N492 Eu491 2.562 . S
N492 C494 1.325 . S
C493 C487 1.404 . S
C493 C495 1.366 . S
C493 H501 0.930 . S
C494 N492 1.325 . S
C494 C495 1.416 . S
C494 H500 0.929 . S
C495 C493 1.366 . S
C495 C494 1.416 . S
C495 H497 0.930 . S
H496 C485 0.930 . S
H497 C495 0.930 . S
H498 C513 0.930 . S
H499 C520 0.930 . S
H500 C494 0.929 . S
H501 C493 0.930 . S
H502 C516 0.899 1_545 S
H503 C483 0.931 . S
H504 C489 0.931 . S
H505 C490 0.931 . S
H506 C511 0.931 . S
H507 C486 0.929 . S
H508 C519 0.930 . S
N509 Eu480 2.600 . S
N509 C510 1.365 1_545 S
N509 C513 1.319 . S
C510 N509 1.365 1_565 S
C510 C512 1.405 . S
C510 C518 1.448 . S
C511 H506 0.931 . S
C511 C513 1.397 1_565 S
C511 C514 1.367 . S
C512 C510 1.405 . S
C512 C514 1.403 . S
C512 C545 1.439 . S
C513 H498 0.930 . S
C513 N509 1.319 . S
C513 C511 1.397 1_545 S
C514 C511 1.367 . S
C514 C512 1.403 . S
C514 H521 0.929 . S
N515 Eu480 2.562 1_565 S
N515 C516 1.325 . S
N515 C518 1.351 . S
C516 H502 0.899 1_565 S
C516 N515 1.325 . S
C516 C520 1.416 . S
C517 C518 1.430 . S
C517 C519 1.404 . S
C517 C546 1.387 . S
C518 C510 1.448 . S
C518 N515 1.351 . S
C518 C517 1.430 . S
C519 H508 0.930 . S
C519 C517 1.404 . S
C519 C520 1.366 . S
C520 H499 0.930 . S
C520 C516 1.416 . S
C520 C519 1.366 . S
H521 C514 0.929 . S
H522 C545 0.931 . S
H523 C546 0.931 . S
O524 Eu480 2.462 . S
O524 C544 1.252 . S
O525 Eu480 2.373 1_565 S
O525 C536 1.249 . S
O526 Eu491 2.335 1_565 S
O526 C536 1.264 . S
O527 Eu480 2.432 . S
O527 C544 1.268 . S
O528 Eu480 2.291 . S
O528 C543 1.255 . S
O529 Eu491 2.372 . S
O529 C543 1.257 . S
O530 Eu491 2.462 . S
O530 C555 1.252 . S
O531 Eu491 2.373 . S
O531 C547 1.249 . S
O532 Eu480 2.335 . S
O532 C547 1.264 . S
O533 Eu491 2.432 . S
O533 C555 1.268 . S
O534 Eu491 2.291 . S
O534 C554 1.255 . S
O535 Eu480 2.372 . S
O535 C554 1.257 . S
C536 O525 1.249 . S
C536 O526 1.264 . S
C537 C540 1.382 . S
C537 C542 1.390 . S
C537 C544 1.506 . S
C538 C539 1.398 . S
C538 C542 1.392 . S
C539 C538 1.398 . S
C539 C541 1.372 . S
C539 H556 0.931 . S
C540 C537 1.382 . S
C540 C541 1.390 . S
C540 H557 0.931 . S
C541 C539 1.372 . S
C541 C540 1.390 . S
C541 H558 0.929 . S
C542 C537 1.390 . S
C542 C538 1.392 . S
C542 H559 0.930 . S
C543 O528 1.255 . S
C543 O529 1.257 . S
C544 Eu480 2.787 . S
C544 O524 1.252 . S
C544 O527 1.268 . S
C544 C537 1.506 . S
C545 C512 1.439 . S
C545 H522 0.931 . S
C545 C546 1.374 . S
C546 C517 1.387 . S
C546 H523 0.931 . S
C546 C545 1.374 . S
C547 O531 1.249 . S
C547 O532 1.264 . S
C548 C551 1.383 . S
C548 C552 1.395 . S
C548 C555 1.500 1_565 S
C549 C550 1.398 . S
C549 C552 1.392 . S
C550 C549 1.398 . S
C550 C553 1.372 . S
C550 H560 0.931 . S
C551 C548 1.383 . S
C551 C553 1.390 . S
C551 H561 0.931 . S
C552 C548 1.395 . S
C552 C549 1.392 . S
C552 H562 0.930 . S
C553 C550 1.372 . S
C553 C551 1.390 . S
C553 H563 0.929 . S
C554 O534 1.255 . S
C554 O535 1.257 . S
C555 Eu491 2.787 . S
C555 O530 1.252 . S
C555 O533 1.268 . S
C555 C548 1.500 1_545 S
H556 C539 0.931 . S
H557 C540 0.931 . S
H558 C541 0.929 . S
H559 C542 0.930 . S
H560 C550 0.931 . S
H561 C551 0.931 . S
H562 C552 0.930 . S
H563 C553 0.929 . S
Eu564 N593 2.600 . S
Eu564 N599 2.562 . S
Eu564 O608 2.462 . S
Eu564 O609 2.373 . S
Eu564 O611 2.432 . S
Eu564 O612 2.291 . S
Eu564 O616 2.335 . S
Eu564 O619 2.372 . S
Eu564 C628 2.787 . S
C565 N566 1.365 . S
C565 C568 1.405 . S
C565 C572 1.448 . S
N566 C565 1.365 . S
N566 C569 1.319 . S
N566 Eu575 2.600 . S
C567 C569 1.397 . S
C567 C570 1.367 . S
C567 H587 0.931 . S
C568 C565 1.405 . S
C568 C570 1.403 . S
C568 C574 1.439 . S
C569 N566 1.319 . S
C569 C567 1.397 . S
C569 H580 0.930 . S
C570 C567 1.367 . S
C570 C568 1.403 . S
C570 H591 0.929 . S
C571 C572 1.430 . S
C571 C573 1.387 . S
C571 C577 1.404 . S
C572 C565 1.448 . S
C572 C571 1.430 . S
C572 N576 1.351 . S
C573 C571 1.387 . S
C573 C574 1.374 . S
C573 H588 0.931 . S
C574 C568 1.439 . S
C574 C573 1.374 . S
C574 H589 0.931 . S
Eu575 N566 2.600 . S
Eu575 N576 2.562 . S
Eu575 O610 2.335 . S
Eu575 O613 2.372 . S
Eu575 O614 2.462 . S
Eu575 O615 2.373 . S
Eu575 O617 2.432 . S
Eu575 O618 2.291 . S
Eu575 C639 2.787 . S
N576 C572 1.351 . S
N576 Eu575 2.562 . S
N576 C578 1.325 . S
C577 C571 1.404 . S
C577 C579 1.366 . S
C577 H585 0.930 . S
C578 N576 1.325 . S
C578 C579 1.416 . S
C578 H584 0.929 . S
C579 C577 1.366 . S
C579 C578 1.416 . S
C579 H581 0.930 . S
H580 C569 0.930 . S
H581 C579 0.930 . S
H582 C597 0.930 . S
H583 C604 0.930 . S
H584 C578 0.929 . S
H585 C577 0.930 . S
H586 C600 0.929 . S
H587 C567 0.931 . S
H588 C573 0.931 . S
H589 C574 0.931 . S
H590 C595 0.931 . S
H591 C570 0.929 . S
H592 C603 0.930 . S
N593 Eu564 2.600 . S
N593 C594 1.365 . S
N593 C597 1.319 . S
C594 N593 1.365 . S
C594 C596 1.405 . S
C594 C602 1.448 . S
C595 H590 0.931 . S
C595 C597 1.397 . S
C595 C598 1.367 . S
C596 C594 1.405 . S
C596 C598 1.403 . S
C596 C629 1.439 . S
C597 H582 0.930 . S
C597 N593 1.319 . S
C597 C595 1.397 . S
C598 C595 1.367 . S
C598 C596 1.403 . S
C598 H605 0.929 . S
N599 Eu564 2.562 . S
N599 C600 1.325 . S
N599 C602 1.351 . S
C600 H586 0.929 . S
C600 N599 1.325 . S
C600 C604 1.416 . S
C601 C602 1.430 . S
C601 C603 1.404 . S
C601 C630 1.387 . S
C602 C594 1.448 . S
C602 N599 1.351 . S
C602 C601 1.430 . S
C603 H592 0.930 . S
C603 C601 1.404 . S
C603 C604 1.366 . S
C604 H583 0.930 . S
C604 C600 1.416 . S
C604 C603 1.366 . S
H605 C598 0.929 . S
H606 C629 0.931 . S
H607 C630 0.931 . S
O608 Eu564 2.462 . S
O608 C628 1.252 . S
O609 Eu564 2.373 . S
O609 C620 1.249 . S
O610 Eu575 2.335 . S
O610 C620 1.264 . S
O611 Eu564 2.432 . S
O611 C628 1.268 . S
O612 Eu564 2.291 . S
O612 C627 1.255 . S
O613 Eu575 2.372 . S
O613 C627 1.257 . S
O614 Eu575 2.462 . S
O614 C639 1.252 . S
O615 Eu575 2.373 . S
O615 C631 1.249 . S
O616 Eu564 2.335 . S
O616 C631 1.264 . S
O617 Eu575 2.432 . S
O617 C639 1.268 . S
O618 Eu575 2.291 . S
O618 C638 1.255 . S
O619 Eu564 2.372 . S
O619 C638 1.257 . S
C620 O609 1.249 . S
C620 O610 1.264 . S
C621 C624 1.382 . S
C621 C626 1.390 . S
C621 C628 1.506 . S
C622 C623 1.398 . S
C622 C626 1.392 . S
C623 C622 1.398 . S
C623 C625 1.372 . S
C623 H640 0.931 . S
C624 C621 1.382 . S
C624 C625 1.390 . S
C624 H641 0.931 . S
C625 C623 1.372 . S
C625 C624 1.390 . S
C625 H642 0.929 . S
C626 C621 1.390 . S
C626 C622 1.392 . S
C626 H643 0.930 . S
C627 O612 1.255 . S
C627 O613 1.257 . S
C628 Eu564 2.787 . S
C628 O608 1.252 . S
C628 O611 1.268 . S
C628 C621 1.506 . S
C629 C596 1.439 . S
C629 H606 0.931 . S
C629 C630 1.374 . S
C630 C601 1.387 . S
C630 H607 0.931 . S
C630 C629 1.374 . S
C631 O615 1.249 . S
C631 O616 1.264 . S
C632 C635 1.382 . S
C632 C636 1.390 . S
C632 C639 1.506 . S
C633 C634 1.398 . S
C633 C636 1.392 . S
C634 C633 1.398 . S
C634 C637 1.372 . S
C634 H644 0.931 . S
C635 C632 1.382 . S
C635 C637 1.390 . S
C635 H645 0.931 . S
C636 C632 1.390 . S
C636 C633 1.392 . S
C636 H646 0.930 . S
C637 C634 1.372 . S
C637 C635 1.390 . S
C637 H647 0.929 . S
C638 O618 1.255 . S
C638 O619 1.257 . S
C639 Eu575 2.787 . S
C639 O614 1.252 . S
C639 O617 1.268 . S
C639 C632 1.506 . S
H640 C623 0.931 . S
H641 C624 0.931 . S
H642 C625 0.929 . S
H643 C626 0.930 . S
H644 C634 0.931 . S
H645 C635 0.931 . S
H646 C636 0.930 . S
H647 C637 0.929 . S
Eu648 N677 2.589 1_545 S
Eu648 N683 2.543 1_545 S
Eu648 O692 2.437 1_545 S
Eu648 O693 2.390 . S
Eu648 O695 2.408 1_545 S
Eu648 O696 2.301 . S
Eu648 O700 2.345 . S
Eu648 O703 2.391 . S
Eu648 C712 2.759 1_545 S
C649 N650 1.365 1_455 S
C649 C652 1.405 1_455 S
C649 C656 1.448 . S
N650 C649 1.365 1_655 S
N650 C653 1.319 . S
N650 Eu659 2.600 1_655 S
C651 C653 1.397 . S
C651 C654 1.367 . S
C651 H671 0.931 . S
C652 C649 1.405 1_655 S
C652 C654 1.403 . S
C652 C658 1.439 1_655 S
C653 N650 1.319 . S
C653 C651 1.397 . S
C653 H664 0.930 . S
C654 C651 1.367 . S
C654 C652 1.403 . S
C654 H675 0.929 . S
C655 C656 1.430 . S
C655 C657 1.387 . S
C655 C661 1.404 . S
C656 C649 1.448 . S
C656 C655 1.430 . S
C656 N660 1.351 . S
C657 C655 1.387 . S
C657 C658 1.374 . S
C657 H672 0.931 . S
C658 C652 1.439 1_455 S
C658 C657 1.374 . S
C658 H673 0.931 1_455 S
Eu659 N650 2.600 1_455 S
Eu659 N660 2.562 . S
Eu659 O694 2.335 . S
Eu659 O697 2.372 1_455 S
Eu659 O698 2.462 . S
Eu659 O699 2.373 . S
Eu659 O701 2.432 1_455 S
Eu659 O702 2.291 . S
Eu659 C723 2.787 . S
N660 C656 1.351 . S
N660 Eu659 2.562 . S
N660 C662 1.325 . S
C661 C655 1.404 . S
C661 C663 1.366 . S
C661 H669 0.930 . S
C662 N660 1.325 . S
C662 C663 1.416 . S
C662 H668 0.929 . S
C663 C661 1.366 . S
C663 C662 1.416 . S
C663 H665 0.930 . S
H664 C653 0.930 . S
H665 C663 0.930 . S
H666 C681 0.930 1_545 S
H667 C688 0.930 . S
H668 C662 0.929 . S
H669 C661 0.930 . S
H670 C684 0.929 . S
H671 C651 0.931 . S
H672 C657 0.931 . S
H673 C658 0.931 1_655 S
H674 C679 0.931 . S
H675 C654 0.929 . S
H676 C687 0.930 . S
N677 Eu648 2.589 1_565 S
N677 C678 1.365 . S
N677 C681 1.319 . S
C678 N677 1.365 . S
C678 C680 1.405 . S
C678 C686 1.448 . S
C679 H674 0.931 . S
C679 C681 1.397 . S
C679 C682 1.367 . S
C680 C678 1.405 . S
C680 C682 1.403 . S
C680 C713 1.439 . S
C681 H666 0.930 1_565 S
C681 N677 1.319 . S
C681 C679 1.397 . S
C682 C679 1.367 . S
C682 C680 1.403 . S
C682 H689 0.929 . S
N683 Eu648 2.543 1_565 S
N683 C684 1.325 1_455 S
N683 C686 1.351 . S
C684 H670 0.929 . S
C684 N683 1.325 1_655 S
C684 C688 1.416 . S
C685 C686 1.430 . S
C685 C687 1.404 1_455 S
C685 C714 1.387 . S
C686 C678 1.448 . S
C686 N683 1.351 . S
C686 C685 1.430 . S
C687 H676 0.930 . S
C687 C685 1.404 1_655 S
C687 C688 1.366 . S
C688 H667 0.930 . S
C688 C684 1.416 . S
C688 C687 1.366 . S
H689 C682 0.929 . S
H690 C713 0.931 . S
H691 C714 0.931 . S
O692 Eu648 2.437 1_565 S
O692 C712 1.252 . S
O693 Eu648 2.390 . S
O693 C704 1.249 . S
O694 Eu659 2.335 . S
O694 C704 1.264 . S
O695 Eu648 2.408 1_565 S
O695 C712 1.268 . S
O696 Eu648 2.301 . S
O696 C711 1.255 1_455 S
O697 Eu659 2.372 1_655 S
O697 C711 1.257 . S
O698 Eu659 2.462 . S
O698 C723 1.252 . S
O699 Eu659 2.373 . S
O699 C715 1.249 . S
O700 Eu648 2.345 . S
O700 C715 1.264 . S
O701 Eu659 2.432 1_655 S
O701 C723 1.268 1_655 S
O702 Eu659 2.291 . S
O702 C722 1.255 . S
O703 Eu648 2.391 . S
O703 C722 1.257 . S
C704 O693 1.249 . S
C704 O694 1.264 . S
C705 C708 1.382 . S
C705 C710 1.390 . S
C705 C712 1.506 . S
C706 C707 1.398 . S
C706 C710 1.392 . S
C707 C706 1.398 . S
C707 C709 1.372 . S
C707 H724 0.931 . S
C708 C705 1.382 . S
C708 C709 1.390 . S
C708 H725 0.931 . S
C709 C707 1.372 . S
C709 C708 1.390 . S
C709 H726 0.929 . S
C710 C705 1.390 . S
C710 C706 1.392 . S
C710 H727 0.930 . S
C711 O696 1.255 1_655 S
C711 O697 1.257 . S
C712 Eu648 2.759 1_565 S
C712 O692 1.252 . S
C712 O695 1.268 . S
C712 C705 1.506 . S
C713 C680 1.439 . S
C713 H690 0.931 . S
C713 C714 1.374 . S
C714 C685 1.387 . S
C714 H691 0.931 . S
C714 C713 1.374 . S
C715 O699 1.249 . S
C715 O700 1.264 . S
C716 C719 1.382 1_455 S
C716 C720 1.390 . S
C716 C723 1.506 . S
C717 C718 1.398 1_455 S
C717 C720 1.392 . S
C718 C717 1.398 1_655 S
C718 C721 1.372 . S
C718 H728 0.931 . S
C719 C716 1.382 1_655 S
C719 C721 1.390 . S
C719 H729 0.931 . S
C720 C716 1.390 . S
C720 C717 1.392 . S
C720 H730 0.930 . S
C721 C718 1.372 . S
C721 C719 1.390 . S
C721 H731 0.929 . S
C722 O702 1.255 . S
C722 O703 1.257 . S
C723 Eu659 2.787 . S
C723 O698 1.252 . S
C723 O701 1.268 1_455 S
C723 C716 1.506 . S
H724 C707 0.931 . S
H725 C708 0.931 . S
H726 C709 0.929 . S
H727 C710 0.930 . S
H728 C718 0.931 . S
H729 C719 0.931 . S
H730 C720 0.930 . S
H731 C721 0.929 . S
Eu732 N761 2.600 . S
Eu732 N767 2.562 . S
Eu732 O776 2.462 . S
Eu732 O777 2.373 . S
Eu732 O779 2.432 . S
Eu732 O780 2.291 . S
Eu732 O784 2.335 . S
Eu732 O787 2.372 . S
Eu732 C796 2.787 . S
C733 N734 1.365 . S
C733 C736 1.405 . S
C733 C740 1.448 . S
N734 C733 1.365 . S
N734 C737 1.319 . S
N734 Eu743 2.600 . S
C735 C737 1.397 . S
C735 C738 1.367 . S
C735 H755 0.931 . S
C736 C733 1.405 . S
C736 C738 1.403 . S
C736 C742 1.439 . S
C737 N734 1.319 . S
C737 C735 1.397 . S
C737 H748 0.930 . S
C738 C735 1.367 . S
C738 C736 1.403 . S
C738 H759 0.929 . S
C739 C740 1.430 . S
C739 C741 1.387 . S
C739 C745 1.404 . S
C740 C733 1.448 . S
C740 C739 1.430 . S
C740 N744 1.351 . S
C741 C739 1.387 . S
C741 C742 1.374 . S
C741 H756 0.931 . S
C742 C736 1.439 . S
C742 C741 1.374 . S
C742 H757 0.931 . S
Eu743 N734 2.600 . S
Eu743 N744 2.562 . S
Eu743 O778 2.335 . S
Eu743 O781 2.372 . S
Eu743 O782 2.462 . S
Eu743 O783 2.373 . S
Eu743 O785 2.432 . S
Eu743 O786 2.291 . S
Eu743 C807 2.787 . S
N744 C740 1.351 . S
N744 Eu743 2.562 . S
N744 C746 1.325 . S
C745 C739 1.404 . S
C745 C747 1.366 . S
C745 H753 0.930 . S
C746 N744 1.325 . S
C746 C747 1.416 . S
C746 H752 0.929 . S
C747 C745 1.366 . S
C747 C746 1.416 . S
C747 H749 0.930 . S
H748 C737 0.930 . S
H749 C747 0.930 . S
H750 C765 0.930 . S
H751 C772 0.930 . S
H752 C746 0.929 . S
H753 C745 0.930 . S
H754 C768 0.929 . S
H755 C735 0.931 . S
H756 C741 0.931 . S
H757 C742 0.931 . S
H758 C763 0.931 . S
H759 C738 0.929 . S
H760 C771 0.930 . S
N761 Eu732 2.600 . S
N761 C762 1.365 . S
N761 C765 1.319 . S
C762 N761 1.365 . S
C762 C764 1.405 . S
C762 C770 1.448 . S
C763 H758 0.931 . S
C763 C765 1.397 . S
C763 C766 1.367 . S
C764 C762 1.405 . S
C764 C766 1.403 . S
C764 C797 1.439 . S
C765 H750 0.930 . S
C765 N761 1.319 . S
C765 C763 1.397 . S
C766 C763 1.367 . S
C766 C764 1.403 . S
C766 H773 0.929 . S
N767 Eu732 2.562 . S
N767 C768 1.325 . S
N767 C770 1.351 . S
C768 H754 0.929 . S
C768 N767 1.325 . S
C768 C772 1.416 . S
C769 C770 1.430 . S
C769 C771 1.404 . S
C769 C798 1.387 . S
C770 C762 1.448 . S
C770 N767 1.351 . S
C770 C769 1.430 . S
C771 H760 0.930 . S
C771 C769 1.404 . S
C771 C772 1.366 . S
C772 H751 0.930 . S
C772 C768 1.416 . S
C772 C771 1.366 . S
H773 C766 0.929 . S
H774 C797 0.931 . S
H775 C798 0.931 . S
O776 Eu732 2.462 . S
O776 C796 1.252 . S
O777 Eu732 2.373 . S
O777 C788 1.249 . S
O778 Eu743 2.335 . S
O778 C788 1.264 . S
O779 Eu732 2.432 . S
O779 C796 1.268 . S
O780 Eu732 2.291 . S
O780 C795 1.255 . S
O781 Eu743 2.372 . S
O781 C795 1.257 . S
O782 Eu743 2.462 . S
O782 C807 1.252 . S
O783 Eu743 2.373 . S
O783 C799 1.249 . S
O784 Eu732 2.335 . S
O784 C799 1.264 . S
O785 Eu743 2.432 . S
O785 C807 1.268 . S
O786 Eu743 2.291 . S
O786 C806 1.255 . S
O787 Eu732 2.372 . S
O787 C806 1.257 . S
C788 O777 1.249 . S
C788 O778 1.264 . S
C789 C792 1.382 . S
C789 C794 1.390 . S
C789 C796 1.506 . S
C790 C791 1.398 . S
C790 C794 1.392 . S
C791 C790 1.398 . S
C791 C793 1.372 . S
C791 H808 0.931 . S
C792 C789 1.382 . S
C792 C793 1.390 . S
C792 H809 0.931 . S
C793 C791 1.372 . S
C793 C792 1.390 . S
C793 H810 0.929 . S
C794 C789 1.390 . S
C794 C790 1.392 . S
C794 H811 0.930 . S
C795 O780 1.255 . S
C795 O781 1.257 . S
C796 Eu732 2.787 . S
C796 O776 1.252 . S
C796 O779 1.268 . S
C796 C789 1.506 . S
C797 C764 1.439 . S
C797 H774 0.931 . S
C797 C798 1.374 . S
C798 C769 1.387 . S
C798 H775 0.931 . S
C798 C797 1.374 . S
C799 O783 1.249 . S
C799 O784 1.264 . S
C800 C803 1.382 . S
C800 C804 1.390 . S
C800 C807 1.506 . S
C801 C802 1.398 . S
C801 C804 1.392 . S
C802 C801 1.398 . S
C802 C805 1.372 . S
C802 H812 0.931 . S
C803 C800 1.382 . S
C803 C805 1.390 . S
C803 H813 0.931 . S
C804 C800 1.390 . S
C804 C801 1.392 . S
C804 H814 0.930 . S
C805 C802 1.372 . S
C805 C803 1.390 . S
C805 H815 0.929 . S
C806 O786 1.255 . S
C806 O787 1.257 . S
C807 Eu743 2.787 . S
C807 O782 1.252 . S
C807 O785 1.268 . S
C807 C800 1.506 . S
H808 C791 0.931 . S
H809 C792 0.931 . S
H810 C793 0.929 . S
H811 C794 0.930 . S
H812 C802 0.931 . S
H813 C803 0.931 . S
H814 C804 0.930 . S
H815 C805 0.929 . S
Eu816 N845 2.601 . S
Eu816 N851 2.564 . S
Eu816 O860 2.464 . S
Eu816 O861 2.371 1_556 S
Eu816 O863 2.434 . S
Eu816 O864 2.291 1_556 S
Eu816 O868 2.334 1_556 S
Eu816 O871 2.369 1_556 S
Eu816 C880 2.789 . S
C817 N818 1.365 . S
C817 C820 1.405 . S
C817 C824 1.448 1_565 S
N818 C817 1.365 . S
N818 C821 1.319 . S
N818 Eu827 2.600 1_565 S
C819 C821 1.397 . S
C819 C822 1.367 . S
C819 H839 0.931 . S
C820 C817 1.405 . S
C820 C822 1.403 . S
C820 C826 1.439 . S
C821 N818 1.319 . S
C821 C819 1.397 . S
C821 H832 0.930 . S
C822 C819 1.367 . S
C822 C820 1.403 . S
C822 H843 0.929 . S
C823 C824 1.430 . S
C823 C825 1.387 . S
C823 C829 1.404 . S
C824 C817 1.448 1_545 S
C824 C823 1.430 . S
C824 N828 1.351 . S
C825 C823 1.387 . S
C825 C826 1.374 1_545 S
C825 H840 0.931 . S
C826 C820 1.439 . S
C826 C825 1.374 1_565 S
C826 H841 0.931 . S
Eu827 N818 2.600 1_545 S
Eu827 N828 2.562 . S
Eu827 O862 2.335 . S
Eu827 O865 2.372 1_545 S
Eu827 O866 2.462 . S
Eu827 O867 2.373 . S
Eu827 O869 2.432 1_545 S
Eu827 O870 2.291 . S
Eu827 C891 2.787 1_545 S
N828 C824 1.351 . S
N828 Eu827 2.562 . S
N828 C830 1.325 . S
C829 C823 1.404 . S
C829 C831 1.366 . S
C829 H837 0.930 . S
C830 N828 1.325 . S
C830 C831 1.416 . S
C830 H836 0.929 . S
C831 C829 1.366 . S
C831 C830 1.416 . S
C831 H833 0.930 . S
H832 C821 0.930 . S
H833 C831 0.930 . S
H834 C849 0.930 1_554 S
H835 C856 0.930 . S
H836 C830 0.929 . S
H837 C829 0.930 . S
H838 C852 0.929 1_565 S
H839 C819 0.931 . S
H840 C825 0.931 . S
H841 C826 0.931 . S
H842 C847 0.931 1_554 S
H843 C822 0.929 . S
H844 C855 0.930 1_565 S
N845 Eu816 2.601 . S
N845 C846 1.365 . S
N845 C849 1.319 . S
C846 N845 1.365 . S
C846 C848 1.405 . S
C846 C854 1.448 . S
C847 H842 0.931 1_556 S
C847 C849 1.397 . S
C847 C850 1.367 . S
C848 C846 1.405 . S
C848 C850 1.403 . S
C848 C881 1.439 . S
C849 H834 0.930 1_556 S
C849 N845 1.319 . S
C849 C847 1.397 . S
C850 C847 1.367 . S
C850 C848 1.403 . S
C850 H857 0.929 . S
N851 Eu816 2.564 . S
N851 C852 1.325 . S
N851 C854 1.351 . S
C852 H838 0.929 1_545 S
C852 N851 1.325 . S
C852 C856 1.416 1_545 S
C853 C854 1.430 . S
C853 C855 1.404 . S
C853 C882 1.387 . S
C854 C846 1.448 . S
C854 N851 1.351 . S
C854 C853 1.430 . S
C855 H844 0.930 1_545 S
C855 C853 1.404 . S
C855 C856 1.366 1_545 S
C856 H835 0.930 . S
C856 C852 1.416 1_565 S
C856 C855 1.366 1_565 S
H857 C850 0.929 . S
H858 C881 0.931 . S
H859 C882 0.931 . S
O860 Eu816 2.464 . S
O860 C880 1.252 . S
O861 Eu816 2.371 1_554 S
O861 C872 1.249 . S
O862 Eu827 2.335 . S
O862 C872 1.264 . S
O863 Eu816 2.434 . S
O863 C880 1.268 . S
O864 Eu816 2.291 1_554 S
O864 C879 1.255 1_545 S
O865 Eu827 2.372 1_565 S
O865 C879 1.257 . S
O866 Eu827 2.462 . S
O866 C891 1.252 1_545 S
O867 Eu827 2.373 . S
O867 C883 1.249 . S
O868 Eu816 2.334 1_554 S
O868 C883 1.264 . S
O869 Eu827 2.432 1_565 S
O869 C891 1.268 . S
O870 Eu827 2.291 . S
O870 C890 1.255 . S
O871 Eu816 2.369 1_554 S
O871 C890 1.257 . S
C872 O861 1.249 . S
C872 O862 1.264 . S
C873 C876 1.382 . S
C873 C878 1.390 . S
C873 C880 1.506 . S
C874 C875 1.398 . S
C874 C878 1.392 . S
C875 C874 1.398 . S
C875 C877 1.372 . S
C875 H892 0.931 . S
C876 C873 1.382 . S
C876 C877 1.390 . S
C876 H893 0.931 . S
C877 C875 1.372 . S
C877 C876 1.390 . S
C877 H894 0.929 . S
C878 C873 1.390 . S
C878 C874 1.392 . S
C878 H895 0.930 . S
C879 O864 1.255 1_565 S
C879 O865 1.257 . S
C880 Eu816 2.789 . S
C880 O860 1.252 . S
C880 O863 1.268 . S
C880 C873 1.506 . S
C881 C848 1.439 . S
C881 H858 0.931 . S
C881 C882 1.374 . S
C882 C853 1.387 . S
C882 H859 0.931 . S
C882 C881 1.374 . S
C883 O867 1.249 . S
C883 O868 1.264 . S
C884 C887 1.382 . S
C884 C888 1.390 1_565 S
C884 C891 1.506 . S
C885 C886 1.379 1_545 S
C885 C888 1.397 . S
C886 C885 1.379 1_565 S
C886 C889 1.372 . S
C886 H896 0.931 . S
C887 C884 1.382 . S
C887 C889 1.390 . S
C887 H897 0.931 . S
C888 C884 1.390 1_545 S
C888 C885 1.397 . S
C888 H898 0.930 . S
C889 C886 1.372 . S
C889 C887 1.390 . S
C889 H899 0.929 . S
C890 O870 1.255 . S
C890 O871 1.257 . S
C891 Eu827 2.787 1_565 S
C891 O866 1.252 1_565 S
C891 O869 1.268 . S
C891 C884 1.506 . S
H892 C875 0.931 . S
H893 C876 0.931 . S
H894 C877 0.929 . S
H895 C878 0.930 . S
H896 C886 0.931 . S
H897 C887 0.931 . S
H898 C888 0.930 . S
H899 C889 0.929 . S
Eu900 N929 2.600 . S
Eu900 N935 2.562 . S
Eu900 O944 2.462 . S
Eu900 O945 2.373 . S
Eu900 O947 2.432 . S
Eu900 O948 2.291 . S
Eu900 O952 2.335 . S
Eu900 O955 2.372 . S
Eu900 C964 2.787 . S
C901 N902 1.365 . S
C901 C904 1.405 . S
C901 C908 1.448 . S
N902 C901 1.365 . S
N902 C905 1.319 . S
N902 Eu911 2.600 . S
C903 C905 1.397 . S
C903 C906 1.367 . S
C903 H923 0.931 . S
C904 C901 1.405 . S
C904 C906 1.403 . S
C904 C910 1.439 . S
C905 N902 1.319 . S
C905 C903 1.397 . S
C905 H916 0.930 . S
C906 C903 1.367 . S
C906 C904 1.403 . S
C906 H927 0.929 . S
C907 C908 1.430 . S
C907 C909 1.387 . S
C907 C913 1.404 . S
C908 C901 1.448 . S
C908 C907 1.430 . S
C908 N912 1.351 . S
C909 C907 1.387 . S
C909 C910 1.374 . S
C909 H924 0.931 . S
C910 C904 1.439 . S
C910 C909 1.374 . S
C910 H925 0.931 . S
Eu911 N902 2.600 . S
Eu911 N912 2.562 . S
Eu911 O946 2.335 . S
Eu911 O949 2.372 . S
Eu911 O950 2.462 . S
Eu911 O951 2.373 . S
Eu911 O953 2.432 . S
Eu911 O954 2.291 . S
Eu911 C975 2.787 . S
N912 C908 1.351 . S
N912 Eu911 2.562 . S
N912 C914 1.325 . S
C913 C907 1.404 . S
C913 C915 1.366 . S
C913 H921 0.930 . S
C914 N912 1.325 . S
C914 C915 1.416 . S
C914 H920 0.929 . S
C915 C913 1.366 . S
C915 C914 1.416 . S
C915 H917 0.930 . S
H916 C905 0.930 . S
H917 C915 0.930 . S
H918 C933 0.930 . S
H919 C940 0.930 . S
H920 C914 0.929 . S
H921 C913 0.930 . S
H922 C936 0.929 . S
H923 C903 0.931 . S
H924 C909 0.931 . S
H925 C910 0.931 . S
H926 C931 0.931 . S
H927 C906 0.929 . S
H928 C939 0.930 . S
N929 Eu900 2.600 . S
N929 C930 1.365 . S
N929 C933 1.319 . S
C930 N929 1.365 . S
C930 C932 1.405 . S
C930 C938 1.448 . S
C931 H926 0.931 . S
C931 C933 1.397 . S
C931 C934 1.367 . S
C932 C930 1.405 . S
C932 C934 1.403 . S
C932 C965 1.439 . S
C933 H918 0.930 . S
C933 N929 1.319 . S
C933 C931 1.397 . S
C934 C931 1.367 . S
C934 C932 1.403 . S
C934 H941 0.929 . S
N935 Eu900 2.562 . S
N935 C936 1.325 . S
N935 C938 1.351 . S
C936 H922 0.929 . S
C936 N935 1.325 . S
C936 C940 1.416 . S
C937 C938 1.430 . S
C937 C939 1.404 . S
C937 C966 1.387 . S
C938 C930 1.448 . S
C938 N935 1.351 . S
C938 C937 1.430 . S
C939 H928 0.930 . S
C939 C937 1.404 . S
C939 C940 1.366 . S
C940 H919 0.930 . S
C940 C936 1.416 . S
C940 C939 1.366 . S
H941 C934 0.929 . S
H942 C965 0.931 . S
H943 C966 0.931 . S
O944 Eu900 2.462 . S
O944 C964 1.252 . S
O945 Eu900 2.373 . S
O945 C956 1.249 . S
O946 Eu911 2.335 . S
O946 C956 1.264 . S
O947 Eu900 2.432 . S
O947 C964 1.268 . S
O948 Eu900 2.291 . S
O948 C963 1.255 . S
O949 Eu911 2.372 . S
O949 C963 1.257 . S
O950 Eu911 2.462 . S
O950 C975 1.252 . S
O951 Eu911 2.373 . S
O951 C967 1.249 . S
O952 Eu900 2.335 . S
O952 C967 1.264 . S
O953 Eu911 2.432 . S
O953 C975 1.268 . S
O954 Eu911 2.291 . S
O954 C974 1.255 . S
O955 Eu900 2.372 . S
O955 C974 1.257 . S
C956 O945 1.249 . S
C956 O946 1.264 . S
C957 C960 1.382 . S
C957 C962 1.390 . S
C957 C964 1.506 . S
C958 C959 1.398 . S
C958 C962 1.392 . S
C959 C958 1.398 . S
C959 C961 1.372 . S
C959 H976 0.931 . S
C960 C957 1.382 . S
C960 C961 1.390 . S
C960 H977 0.931 . S
C961 C959 1.372 . S
C961 C960 1.390 . S
C961 H978 0.929 . S
C962 C957 1.390 . S
C962 C958 1.392 . S
C962 H979 0.930 . S
C963 O948 1.255 . S
C963 O949 1.257 . S
C964 Eu900 2.787 . S
C964 O944 1.252 . S
C964 O947 1.268 . S
C964 C957 1.506 . S
C965 C932 1.439 . S
C965 H942 0.931 . S
C965 C966 1.374 . S
C966 C937 1.387 . S
C966 H943 0.931 . S
C966 C965 1.374 . S
C967 O951 1.249 . S
C967 O952 1.264 . S
C968 C971 1.382 . S
C968 C972 1.390 . S
C968 C975 1.506 . S
C969 C970 1.398 . S
C969 C972 1.392 . S
C970 C969 1.398 . S
C970 C973 1.372 . S
C970 H980 0.931 . S
C971 C968 1.382 . S
C971 C973 1.390 . S
C971 H981 0.931 . S
C972 C968 1.390 . S
C972 C969 1.392 . S
C972 H982 0.930 . S
C973 C970 1.372 . S
C973 C971 1.390 . S
C973 H983 0.929 . S
C974 O954 1.255 . S
C974 O955 1.257 . S
C975 Eu911 2.787 . S
C975 O950 1.252 . S
C975 O953 1.268 . S
C975 C968 1.506 . S
H976 C959 0.931 . S
H977 C960 0.931 . S
H978 C961 0.929 . S
H979 C962 0.930 . S
H980 C970 0.931 . S
H981 C971 0.931 . S
H982 C972 0.930 . S
H983 C973 0.929 . S
Eu984 N1013 2.600 1_554 S
Eu984 N1019 2.562 1_554 S
Eu984 O1028 2.462 . S
Eu984 O1029 2.373 1_554 S
Eu984 O1031 2.432 . S
Eu984 O1032 2.291 . S
Eu984 O1036 2.335 . S
Eu984 O1039 2.372 . S
Eu984 C1048 2.787 . S
C985 N986 1.365 . S
C985 C988 1.405 . S
C985 C992 1.448 . S
N986 C985 1.365 . S
N986 C989 1.319 . S
N986 Eu995 2.600 . S
C987 C989 1.397 . S
C987 C990 1.367 . S
C987 H1007 0.931 . S
C988 C985 1.405 . S
C988 C990 1.403 . S
C988 C994 1.439 . S
C989 N986 1.319 . S
C989 C987 1.397 . S
C989 H1000 0.930 . S
C990 C987 1.367 . S
C990 C988 1.403 . S
C990 H1011 0.929 . S
C991 C992 1.430 . S
C991 C993 1.387 . S
C991 C997 1.404 . S
C992 C985 1.448 . S
C992 C991 1.430 . S
C992 N996 1.351 . S
C993 C991 1.387 . S
C993 C994 1.374 . S
C993 H1008 0.931 . S
C994 C988 1.439 . S
C994 C993 1.374 . S
C994 H1009 0.931 . S
Eu995 N986 2.600 . S
Eu995 N996 2.562 . S
Eu995 O1030 2.335 1_554 S
Eu995 O1033 2.372 . S
Eu995 O1034 2.462 . S
Eu995 O1035 2.373 . S
Eu995 O1037 2.432 . S
Eu995 O1038 2.291 . S
Eu995 C1059 2.787 . S
N996 C992 1.351 . S
N996 Eu995 2.562 . S
N996 C998 1.325 . S
C997 C991 1.404 . S
C997 C999 1.366 . S
C997 H1005 0.930 . S
C998 N996 1.325 . S
C998 C999 1.416 . S
C998 H1004 0.929 . S
C999 C997 1.366 . S
C999 C998 1.416 . S
C999 H1001 0.930 . S
H1000 C989 0.930 . S
H1001 C999 0.930 . S
H1002 C1017 0.930 1_554 S
H1003 C1024 0.930 . S
H1004 C998 0.929 . S
H1005 C997 0.930 . S
H1006 C1020 0.929 1_554 S
H1007 C987 0.931 . S
H1008 C993 0.931 . S
H1009 C994 0.931 . S
H1010 C1015 0.931 . S
H1011 C990 0.929 . S
H1012 C1023 0.930 . S
N1013 Eu984 2.600 1_556 S
N1013 C1014 1.365 . S
N1013 C1017 1.319 . S
C1014 N1013 1.365 . S
C1014 C1016 1.405 . S
C1014 C1022 1.448 . S
C1015 H1010 0.931 . S
C1015 C1017 1.397 . S
C1015 C1018 1.367 . S
C1016 C1014 1.405 . S
C1016 C1018 1.403 . S
C1016 C1049 1.439 . S
C1017 H1002 0.930 1_556 S
C1017 N1013 1.319 . S
C1017 C1015 1.397 . S
C1018 C1015 1.367 . S
C1018 C1016 1.403 . S
C1018 H1025 0.929 . S
N1019 Eu984 2.562 1_556 S
N1019 C1020 1.325 . S
N1019 C1022 1.351 . S
C1020 H1006 0.929 1_556 S
C1020 N1019 1.325 . S
C1020 C1024 1.416 . S
C1021 C1022 1.430 . S
C1021 C1023 1.404 . S
C1021 C1050 1.387 . S
C1022 C1014 1.448 . S
C1022 N1019 1.351 . S
C1022 C1021 1.430 . S
C1023 H1012 0.930 . S
C1023 C1021 1.404 . S
C1023 C1024 1.366 . S
C1024 H1003 0.930 . S
C1024 C1020 1.416 . S
C1024 C1023 1.366 . S
H1025 C1018 0.929 . S
H1026 C1049 0.931 . S
H1027 C1050 0.931 . S
O1028 Eu984 2.462 . S
O1028 C1048 1.252 . S
O1029 Eu984 2.373 1_556 S
O1029 C1040 1.249 . S
O1030 Eu995 2.335 1_556 S
O1030 C1040 1.264 . S
O1031 Eu984 2.432 . S
O1031 C1048 1.268 . S
O1032 Eu984 2.291 . S
O1032 C1047 1.255 . S
O1033 Eu995 2.372 . S
O1033 C1047 1.257 . S
O1034 Eu995 2.462 . S
O1034 C1059 1.252 . S
O1035 Eu995 2.373 . S
O1035 C1051 1.249 . S
O1036 Eu984 2.335 . S
O1036 C1051 1.264 . S
O1037 Eu995 2.432 . S
O1037 C1059 1.268 . S
O1038 Eu995 2.291 . S
O1038 C1058 1.255 . S
O1039 Eu984 2.372 . S
O1039 C1058 1.257 . S
C1040 O1029 1.249 . S
C1040 O1030 1.264 . S
C1041 C1044 1.382 . S
C1041 C1046 1.390 . S
C1041 C1048 1.506 . S
C1042 C1043 1.398 . S
C1042 C1046 1.392 . S
C1043 C1042 1.398 . S
C1043 C1045 1.372 . S
C1043 H1060 0.931 . S
C1044 C1041 1.382 . S
C1044 C1045 1.390 . S
C1044 H1061 0.931 . S
C1045 C1043 1.372 . S
C1045 C1044 1.390 . S
C1045 H1062 0.929 . S
C1046 C1041 1.390 . S
C1046 C1042 1.392 . S
C1046 H1063 0.930 . S
C1047 O1032 1.255 . S
C1047 O1033 1.257 . S
C1048 Eu984 2.787 . S
C1048 O1028 1.252 . S
C1048 O1031 1.268 . S
C1048 C1041 1.506 . S
C1049 C1016 1.439 . S
C1049 H1026 0.931 . S
C1049 C1050 1.374 . S
C1050 C1021 1.387 . S
C1050 H1027 0.931 . S
C1050 C1049 1.374 . S
C1051 O1035 1.249 . S
C1051 O1036 1.264 . S
C1052 C1055 1.382 . S
C1052 C1056 1.390 . S
C1052 C1059 1.506 1_556 S
C1053 C1054 1.398 . S
C1053 C1056 1.392 . S
C1054 C1053 1.398 . S
C1054 C1057 1.372 . S
C1054 H1064 0.931 . S
C1055 C1052 1.382 . S
C1055 C1057 1.390 . S
C1055 H1065 0.931 1_556 S
C1056 C1052 1.390 . S
C1056 C1053 1.392 . S
C1056 H1066 0.930 . S
C1057 C1054 1.372 . S
C1057 C1055 1.390 . S
C1057 H1067 0.929 . S
C1058 O1038 1.255 . S
C1058 O1039 1.257 . S
C1059 Eu995 2.787 . S
C1059 O1034 1.252 . S
C1059 O1037 1.268 . S
C1059 C1052 1.506 1_554 S
H1060 C1043 0.931 . S
H1061 C1044 0.931 . S
H1062 C1045 0.929 . S
H1063 C1046 0.930 . S
H1064 C1054 0.931 . S
H1065 C1055 0.931 1_554 S
H1066 C1056 0.930 . S
H1067 C1057 0.929 . S
Eu1068 N1097 2.600 . S
Eu1068 N1103 2.562 . S
Eu1068 O1112 2.462 . S
Eu1068 O1113 2.373 . S
Eu1068 O1115 2.432 . S
Eu1068 O1116 2.291 . S
Eu1068 O1120 2.335 . S
Eu1068 O1123 2.372 . S
Eu1068 C1132 2.787 . S
C1069 N1070 1.365 . S
C1069 C1072 1.405 . S
C1069 C1076 1.448 . S
N1070 C1069 1.365 . S
N1070 C1073 1.319 . S
N1070 Eu1079 2.600 . S
C1071 C1073 1.397 . S
C1071 C1074 1.367 . S
C1071 H1091 0.931 . S
C1072 C1069 1.405 . S
C1072 C1074 1.403 . S
C1072 C1078 1.439 . S
C1073 N1070 1.319 . S
C1073 C1071 1.397 . S
C1073 H1084 0.930 . S
C1074 C1071 1.367 . S
C1074 C1072 1.403 . S
C1074 H1095 0.929 . S
C1075 C1076 1.430 . S
C1075 C1077 1.387 . S
C1075 C1081 1.404 . S
C1076 C1069 1.448 . S
C1076 C1075 1.430 . S
C1076 N1080 1.351 . S
C1077 C1075 1.387 . S
C1077 C1078 1.374 . S
C1077 H1092 0.931 . S
C1078 C1072 1.439 . S
C1078 C1077 1.374 . S
C1078 H1093 0.931 . S
Eu1079 N1070 2.600 . S
Eu1079 N1080 2.562 . S
Eu1079 O1114 2.335 . S
Eu1079 O1117 2.372 . S
Eu1079 O1118 2.462 . S
Eu1079 O1119 2.373 . S
Eu1079 O1121 2.432 . S
Eu1079 O1122 2.291 . S
Eu1079 C1143 2.787 . S
N1080 C1076 1.351 . S
N1080 Eu1079 2.562 . S
N1080 C1082 1.325 . S
C1081 C1075 1.404 . S
C1081 C1083 1.366 . S
C1081 H1089 0.930 . S
C1082 N1080 1.325 . S
C1082 C1083 1.416 . S
C1082 H1088 0.929 . S
C1083 C1081 1.366 . S
C1083 C1082 1.416 . S
C1083 H1085 0.930 . S
H1084 C1073 0.930 . S
H1085 C1083 0.930 . S
H1086 C1101 0.930 . S
H1087 C1108 0.930 . S
H1088 C1082 0.929 . S
H1089 C1081 0.930 . S
H1090 C1104 0.929 . S
H1091 C1071 0.931 . S
H1092 C1077 0.931 . S
H1093 C1078 0.931 . S
H1094 C1099 0.931 . S
H1095 C1074 0.929 . S
H1096 C1107 0.930 . S
N1097 Eu1068 2.600 . S
N1097 C1098 1.365 . S
N1097 C1101 1.319 . S
C1098 N1097 1.365 . S
C1098 C1100 1.405 . S
C1098 C1106 1.448 . S
C1099 H1094 0.931 . S
C1099 C1101 1.397 . S
C1099 C1102 1.367 . S
C1100 C1098 1.405 . S
C1100 C1102 1.403 . S
C1100 C1133 1.439 . S
C1101 H1086 0.930 . S
C1101 N1097 1.319 . S
C1101 C1099 1.397 . S
C1102 C1099 1.367 . S
C1102 C1100 1.403 . S
C1102 H1109 0.929 . S
N1103 Eu1068 2.562 . S
N1103 C1104 1.325 . S
N1103 C1106 1.351 . S
C1104 H1090 0.929 . S
C1104 N1103 1.325 . S
C1104 C1108 1.416 . S
C1105 C1106 1.430 . S
C1105 C1107 1.404 . S
C1105 C1134 1.387 . S
C1106 C1098 1.448 . S
C1106 N1103 1.351 . S
C1106 C1105 1.430 . S
C1107 H1096 0.930 . S
C1107 C1105 1.404 . S
C1107 C1108 1.366 . S
C1108 H1087 0.930 . S
C1108 C1104 1.416 . S
C1108 C1107 1.366 . S
H1109 C1102 0.929 . S
H1110 C1133 0.931 . S
H1111 C1134 0.931 . S
O1112 Eu1068 2.462 . S
O1112 C1132 1.252 . S
O1113 Eu1068 2.373 . S
O1113 C1124 1.249 . S
O1114 Eu1079 2.335 . S
O1114 C1124 1.264 . S
O1115 Eu1068 2.432 . S
O1115 C1132 1.268 . S
O1116 Eu1068 2.291 . S
O1116 C1131 1.255 . S
O1117 Eu1079 2.372 . S
O1117 C1131 1.257 . S
O1118 Eu1079 2.462 . S
O1118 C1143 1.252 . S
O1119 Eu1079 2.373 . S
O1119 C1135 1.249 . S
O1120 Eu1068 2.335 . S
O1120 C1135 1.264 . S
O1121 Eu1079 2.432 . S
O1121 C1143 1.268 . S
O1122 Eu1079 2.291 . S
O1122 C1142 1.255 . S
O1123 Eu1068 2.372 . S
O1123 C1142 1.257 . S
C1124 O1113 1.249 . S
C1124 O1114 1.264 . S
C1125 C1128 1.382 . S
C1125 C1130 1.390 . S
C1125 C1132 1.506 . S
C1126 C1127 1.398 . S
C1126 C1130 1.392 . S
C1127 C1126 1.398 . S
C1127 C1129 1.372 . S
C1127 H1144 0.931 . S
C1128 C1125 1.382 . S
C1128 C1129 1.390 . S
C1128 H1145 0.931 . S
C1129 C1127 1.372 . S
C1129 C1128 1.390 . S
C1129 H1146 0.929 . S
C1130 C1125 1.390 . S
C1130 C1126 1.392 . S
C1130 H1147 0.930 . S
C1131 O1116 1.255 . S
C1131 O1117 1.257 . S
C1132 Eu1068 2.787 . S
C1132 O1112 1.252 . S
C1132 O1115 1.268 . S
C1132 C1125 1.506 . S
C1133 C1100 1.439 . S
C1133 H1110 0.931 . S
C1133 C1134 1.374 . S
C1134 C1105 1.387 . S
C1134 H1111 0.931 . S
C1134 C1133 1.374 . S
C1135 O1119 1.249 . S
C1135 O1120 1.264 . S
C1136 C1139 1.382 . S
C1136 C1140 1.390 . S
C1136 C1143 1.506 . S
C1137 C1138 1.398 . S
C1137 C1140 1.392 . S
C1138 C1137 1.398 . S
C1138 C1141 1.372 . S
C1138 H1148 0.931 . S
C1139 C1136 1.382 . S
C1139 C1141 1.390 . S
C1139 H1149 0.931 . S
C1140 C1136 1.390 . S
C1140 C1137 1.392 . S
C1140 H1150 0.930 . S
C1141 C1138 1.372 . S
C1141 C1139 1.390 . S
C1141 H1151 0.929 . S
C1142 O1122 1.255 . S
C1142 O1123 1.257 . S
C1143 Eu1079 2.787 . S
C1143 O1118 1.252 . S
C1143 O1121 1.268 . S
C1143 C1136 1.506 . S
H1144 C1127 0.931 . S
H1145 C1128 0.931 . S
H1146 C1129 0.929 . S
H1147 C1130 0.930 . S
H1148 C1138 0.931 . S
H1149 C1139 0.931 . S
H1150 C1140 0.930 . S
H1151 C1141 0.929 . S
Eu1152 N1181 2.600 . S
Eu1152 N1187 2.562 1_455 S
Eu1152 O1196 2.462 . S
Eu1152 O1197 2.373 1_455 S
Eu1152 O1199 2.432 . S
Eu1152 O1200 2.291 . S
Eu1152 O1204 2.335 . S
Eu1152 O1207 2.372 . S
Eu1152 C1216 2.787 . S
C1153 N1154 1.365 . S
C1153 C1156 1.405 . S
C1153 C1160 1.448 . S
N1154 C1153 1.365 . S
N1154 C1157 1.319 . S
N1154 Eu1163 2.600 . S
C1155 C1157 1.397 . S
C1155 C1158 1.367 . S
C1155 H1175 0.931 . S
C1156 C1153 1.405 . S
C1156 C1158 1.403 . S
C1156 C1162 1.439 . S
C1157 N1154 1.319 . S
C1157 C1155 1.397 . S
C1157 H1168 0.930 . S
C1158 C1155 1.367 . S
C1158 C1156 1.403 . S
C1158 H1179 0.929 . S
C1159 C1160 1.430 . S
C1159 C1161 1.387 . S
C1159 C1165 1.404 . S
C1160 C1153 1.448 . S
C1160 C1159 1.430 . S
C1160 N1164 1.351 . S
C1161 C1159 1.387 . S
C1161 C1162 1.374 . S
C1161 H1176 0.931 . S
C1162 C1156 1.439 . S
C1162 C1161 1.374 . S
C1162 H1177 0.931 . S
Eu1163 N1154 2.600 . S
Eu1163 N1164 2.562 . S
Eu1163 O1198 2.335 1_455 S
Eu1163 O1201 2.372 . S
Eu1163 O1202 2.462 . S
Eu1163 O1203 2.373 . S
Eu1163 O1205 2.432 . S
Eu1163 O1206 2.291 . S
Eu1163 C1227 2.787 . S
N1164 C1160 1.351 . S
N1164 Eu1163 2.562 . S
N1164 C1166 1.325 . S
C1165 C1159 1.404 . S
C1165 C1167 1.366 . S
C1165 H1173 0.930 . S
C1166 N1164 1.325 . S
C1166 C1167 1.416 . S
C1166 H1172 0.929 . S
C1167 C1165 1.366 . S
C1167 C1166 1.416 . S
C1167 H1169 0.930 . S
H1168 C1157 0.930 . S
H1169 C1167 0.930 . S
H1170 C1185 0.930 . S
H1171 C1192 0.930 . S
H1172 C1166 0.929 . S
H1173 C1165 0.930 . S
H1174 C1188 0.929 1_455 S
H1175 C1155 0.931 . S
H1176 C1161 0.931 . S
H1177 C1162 0.931 . S
H1178 C1183 0.931 . S
H1179 C1158 0.929 . S
H1180 C1191 0.930 . S
N1181 Eu1152 2.600 . S
N1181 C1182 1.365 1_455 S
N1181 C1185 1.319 . S
C1182 N1181 1.365 1_655 S
C1182 C1184 1.405 . S
C1182 C1190 1.448 . S
C1183 H1178 0.931 . S
C1183 C1185 1.397 1_655 S
C1183 C1186 1.367 . S
C1184 C1182 1.405 . S
C1184 C1186 1.403 . S
C1184 C1217 1.439 . S
C1185 H1170 0.930 . S
C1185 N1181 1.319 . S
C1185 C1183 1.397 1_455 S
C1186 C1183 1.367 . S
C1186 C1184 1.403 . S
C1186 H1193 0.929 . S
N1187 Eu1152 2.562 1_655 S
N1187 C1188 1.325 . S
N1187 C1190 1.351 . S
C1188 H1174 0.929 1_655 S
C1188 N1187 1.325 . S
C1188 C1192 1.416 . S
C1189 C1190 1.430 . S
C1189 C1191 1.404 . S
C1189 C1218 1.387 . S
C1190 C1182 1.448 . S
C1190 N1187 1.351 . S
C1190 C1189 1.430 . S
C1191 H1180 0.930 . S
C1191 C1189 1.404 . S
C1191 C1192 1.366 . S
C1192 H1171 0.930 . S
C1192 C1188 1.416 . S
C1192 C1191 1.366 . S
H1193 C1186 0.929 . S
H1194 C1217 0.931 . S
H1195 C1218 0.931 . S
O1196 Eu1152 2.462 . S
O1196 C1216 1.252 . S
O1197 Eu1152 2.373 1_655 S
O1197 C1208 1.249 . S
O1198 Eu1163 2.335 1_655 S
O1198 C1208 1.264 . S
O1199 Eu1152 2.432 . S
O1199 C1216 1.268 . S
O1200 Eu1152 2.291 . S
O1200 C1215 1.255 . S
O1201 Eu1163 2.372 . S
O1201 C1215 1.257 . S
O1202 Eu1163 2.462 . S
O1202 C1227 1.252 . S
O1203 Eu1163 2.373 . S
O1203 C1219 1.249 . S
O1204 Eu1152 2.335 . S
O1204 C1219 1.264 . S
O1205 Eu1163 2.432 . S
O1205 C1227 1.268 . S
O1206 Eu1163 2.291 . S
O1206 C1226 1.255 . S
O1207 Eu1152 2.372 . S
O1207 C1226 1.257 . S
C1208 O1197 1.249 . S
C1208 O1198 1.264 . S
C1209 C1212 1.382 . S
C1209 C1214 1.390 . S
C1209 C1216 1.506 . S
C1210 C1211 1.398 . S
C1210 C1214 1.392 . S
C1211 C1210 1.398 . S
C1211 C1213 1.372 . S
C1211 H1228 0.931 . S
C1212 C1209 1.382 . S
C1212 C1213 1.390 . S
C1212 H1229 0.931 . S
C1213 C1211 1.372 . S
C1213 C1212 1.390 . S
C1213 H1230 0.929 . S
C1214 C1209 1.390 . S
C1214 C1210 1.392 . S
C1214 H1231 0.930 . S
C1215 O1200 1.255 . S
C1215 O1201 1.257 . S
C1216 Eu1152 2.787 . S
C1216 O1196 1.252 . S
C1216 O1199 1.268 . S
C1216 C1209 1.506 . S
C1217 C1184 1.439 . S
C1217 H1194 0.931 . S
C1217 C1218 1.374 . S
C1218 C1189 1.387 . S
C1218 H1195 0.931 . S
C1218 C1217 1.374 . S
C1219 O1203 1.249 . S
C1219 O1204 1.264 . S
C1220 C1223 1.382 . S
C1220 C1224 1.390 . S
C1220 C1227 1.506 1_655 S
C1221 C1222 1.398 . S
C1221 C1224 1.392 . S
C1222 C1221 1.398 . S
C1222 C1225 1.372 . S
C1222 H1232 0.931 . S
C1223 C1220 1.382 . S
C1223 C1225 1.390 . S
C1223 H1233 0.931 . S
C1224 C1220 1.390 . S
C1224 C1221 1.392 . S
C1224 H1234 0.930 . S
C1225 C1222 1.372 . S
C1225 C1223 1.390 . S
C1225 H1235 0.929 . S
C1226 O1206 1.255 . S
C1226 O1207 1.257 . S
C1227 Eu1163 2.787 . S
C1227 O1202 1.252 . S
C1227 O1205 1.268 . S
C1227 C1220 1.506 1_455 S
H1228 C1211 0.931 . S
H1229 C1212 0.931 . S
H1230 C1213 0.929 . S
H1231 C1214 0.930 . S
H1232 C1222 0.931 . S
H1233 C1223 0.931 . S
H1234 C1224 0.930 . S
H1235 C1225 0.929 . S
Eu1236 N1265 2.600 . S
Eu1236 N1271 2.562 . S
Eu1236 O1280 2.462 . S
Eu1236 O1281 2.373 . S
Eu1236 O1283 2.432 . S
Eu1236 O1284 2.291 . S
Eu1236 O1288 2.335 . S
Eu1236 O1291 2.372 . S
Eu1236 C1300 2.787 . S
C1237 N1238 1.365 . S
C1237 C1240 1.405 . S
C1237 C1244 1.448 . S
N1238 C1237 1.365 . S
N1238 C1241 1.319 . S
N1238 Eu1247 2.600 . S
C1239 C1241 1.397 . S
C1239 C1242 1.367 . S
C1239 H1259 0.931 . S
C1240 C1237 1.405 . S
C1240 C1242 1.403 . S
C1240 C1246 1.439 . S
C1241 N1238 1.319 . S
C1241 C1239 1.397 . S
C1241 H1252 0.930 . S
C1242 C1239 1.367 . S
C1242 C1240 1.403 . S
C1242 H1263 0.929 . S
C1243 C1244 1.430 . S
C1243 C1245 1.387 . S
C1243 C1249 1.404 . S
C1244 C1237 1.448 . S
C1244 C1243 1.430 . S
C1244 N1248 1.351 . S
C1245 C1243 1.387 . S
C1245 C1246 1.374 . S
C1245 H1260 0.931 . S
C1246 C1240 1.439 . S
C1246 C1245 1.374 . S
C1246 H1261 0.931 . S
Eu1247 N1238 2.600 . S
Eu1247 N1248 2.562 . S
Eu1247 O1282 2.335 . S
Eu1247 O1285 2.372 . S
Eu1247 O1286 2.462 . S
Eu1247 O1287 2.373 . S
Eu1247 O1289 2.432 . S
Eu1247 O1290 2.291 . S
Eu1247 C1311 2.787 . S
N1248 C1244 1.351 . S
N1248 Eu1247 2.562 . S
N1248 C1250 1.325 . S
C1249 C1243 1.404 . S
C1249 C1251 1.366 . S
C1249 H1257 0.930 . S
C1250 N1248 1.325 . S
C1250 C1251 1.416 . S
C1250 H1256 0.929 . S
C1251 C1249 1.366 . S
C1251 C1250 1.416 . S
C1251 H1253 0.930 . S
H1252 C1241 0.930 . S
H1253 C1251 0.930 . S
H1254 C1269 0.930 . S
H1255 C1276 0.930 . S
H1256 C1250 0.929 . S
H1257 C1249 0.930 . S
H1258 C1272 0.929 . S
H1259 C1239 0.931 . S
H1260 C1245 0.931 . S
H1261 C1246 0.931 . S
H1262 C1267 0.931 . S
H1263 C1242 0.929 . S
H1264 C1275 0.930 . S
N1265 Eu1236 2.600 . S
N1265 C1266 1.365 . S
N1265 C1269 1.319 . S
C1266 N1265 1.365 . S
C1266 C1268 1.405 . S
C1266 C1274 1.448 . S
C1267 H1262 0.931 . S
C1267 C1269 1.397 . S
C1267 C1270 1.367 . S
C1268 C1266 1.405 . S
C1268 C1270 1.403 . S
C1268 C1301 1.439 . S
C1269 H1254 0.930 . S
C1269 N1265 1.319 . S
C1269 C1267 1.397 . S
C1270 C1267 1.367 . S
C1270 C1268 1.403 . S
C1270 H1277 0.929 . S
N1271 Eu1236 2.562 . S
N1271 C1272 1.325 . S
N1271 C1274 1.351 . S
C1272 H1258 0.929 . S
C1272 N1271 1.325 . S
C1272 C1276 1.416 . S
C1273 C1274 1.430 . S
C1273 C1275 1.404 . S
C1273 C1302 1.387 . S
C1274 C1266 1.448 . S
C1274 N1271 1.351 . S
C1274 C1273 1.430 . S
C1275 H1264 0.930 . S
C1275 C1273 1.404 . S
C1275 C1276 1.366 . S
C1276 H1255 0.930 . S
C1276 C1272 1.416 . S
C1276 C1275 1.366 . S
H1277 C1270 0.929 . S
H1278 C1301 0.931 . S
H1279 C1302 0.931 . S
O1280 Eu1236 2.462 . S
O1280 C1300 1.252 . S
O1281 Eu1236 2.373 . S
O1281 C1292 1.249 . S
O1282 Eu1247 2.335 . S
O1282 C1292 1.264 . S
O1283 Eu1236 2.432 . S
O1283 C1300 1.268 . S
O1284 Eu1236 2.291 . S
O1284 C1299 1.255 . S
O1285 Eu1247 2.372 . S
O1285 C1299 1.257 . S
O1286 Eu1247 2.462 . S
O1286 C1311 1.252 . S
O1287 Eu1247 2.373 . S
O1287 C1303 1.249 . S
O1288 Eu1236 2.335 . S
O1288 C1303 1.264 . S
O1289 Eu1247 2.432 . S
O1289 C1311 1.268 . S
O1290 Eu1247 2.291 . S
O1290 C1310 1.255 . S
O1291 Eu1236 2.372 . S
O1291 C1310 1.257 . S
C1292 O1281 1.249 . S
C1292 O1282 1.264 . S
C1293 C1296 1.382 . S
C1293 C1298 1.390 . S
C1293 C1300 1.506 . S
C1294 C1295 1.398 . S
C1294 C1298 1.392 . S
C1295 C1294 1.398 . S
C1295 C1297 1.372 . S
C1295 H1312 0.931 . S
C1296 C1293 1.382 . S
C1296 C1297 1.390 . S
C1296 H1313 0.931 . S
C1297 C1295 1.372 . S
C1297 C1296 1.390 . S
C1297 H1314 0.929 . S
C1298 C1293 1.390 . S
C1298 C1294 1.392 . S
C1298 H1315 0.930 . S
C1299 O1284 1.255 . S
C1299 O1285 1.257 . S
C1300 Eu1236 2.787 . S
C1300 O1280 1.252 . S
C1300 O1283 1.268 . S
C1300 C1293 1.506 . S
C1301 C1268 1.439 . S
C1301 H1278 0.931 . S
C1301 C1302 1.374 . S
C1302 C1273 1.387 . S
C1302 H1279 0.931 . S
C1302 C1301 1.374 . S
C1303 O1287 1.249 . S
C1303 O1288 1.264 . S
C1304 C1307 1.382 . S
C1304 C1308 1.390 . S
C1304 C1311 1.506 . S
C1305 C1306 1.398 . S
C1305 C1308 1.392 . S
C1306 C1305 1.398 . S
C1306 C1309 1.372 . S
C1306 H1316 0.931 . S
C1307 C1304 1.382 . S
C1307 C1309 1.390 . S
C1307 H1317 0.931 . S
C1308 C1304 1.390 . S
C1308 C1305 1.392 . S
C1308 H1318 0.930 . S
C1309 C1306 1.372 . S
C1309 C1307 1.390 . S
C1309 H1319 0.929 . S
C1310 O1290 1.255 . S
C1310 O1291 1.257 . S
C1311 Eu1247 2.787 . S
C1311 O1286 1.252 . S
C1311 O1289 1.268 . S
C1311 C1304 1.506 . S
H1312 C1295 0.931 . S
H1313 C1296 0.931 . S
H1314 C1297 0.929 . S
H1315 C1298 0.930 . S
H1316 C1306 0.931 . S
H1317 C1307 0.931 . S
H1318 C1308 0.930 . S
H1319 C1309 0.929 . S
Eu1320 N1349 2.600 . S
Eu1320 N1355 2.562 . S
Eu1320 O1364 2.462 . S
Eu1320 O1365 2.373 . S
Eu1320 O1367 2.432 . S
Eu1320 O1368 2.291 . S
Eu1320 O1372 2.335 . S
Eu1320 O1375 2.372 . S
Eu1320 C1384 2.787 . S
C1321 N1322 1.365 . S
C1321 C1324 1.405 . S
C1321 C1328 1.448 . S
N1322 C1321 1.365 . S
N1322 C1325 1.319 . S
N1322 Eu1331 2.600 . S
C1323 C1325 1.397 . S
C1323 C1326 1.367 . S
C1323 H1343 0.931 . S
C1324 C1321 1.405 . S
C1324 C1326 1.403 . S
C1324 C1330 1.439 . S
C1325 N1322 1.319 . S
C1325 C1323 1.397 . S
C1325 H1336 0.930 . S
C1326 C1323 1.367 . S
C1326 C1324 1.403 . S
C1326 H1347 0.929 . S
C1327 C1328 1.430 . S
C1327 C1329 1.387 . S
C1327 C1333 1.404 . S
C1328 C1321 1.448 . S
C1328 C1327 1.430 . S
C1328 N1332 1.351 . S
C1329 C1327 1.387 . S
C1329 C1330 1.374 . S
C1329 H1344 0.931 . S
C1330 C1324 1.439 . S
C1330 C1329 1.374 . S
C1330 H1345 0.931 . S
Eu1331 N1322 2.600 . S
Eu1331 N1332 2.562 . S
Eu1331 O1366 2.335 . S
Eu1331 O1369 2.372 . S
Eu1331 O1370 2.462 . S
Eu1331 O1371 2.373 . S
Eu1331 O1373 2.432 . S
Eu1331 O1374 2.291 . S
Eu1331 C1395 2.787 . S
N1332 C1328 1.351 . S
N1332 Eu1331 2.562 . S
N1332 C1334 1.325 . S
C1333 C1327 1.404 . S
C1333 C1335 1.366 . S
C1333 H1341 0.930 . S
C1334 N1332 1.325 . S
C1334 C1335 1.416 . S
C1334 H1340 0.929 . S
C1335 C1333 1.366 . S
C1335 C1334 1.416 . S
C1335 H1337 0.930 . S
H1336 C1325 0.930 . S
H1337 C1335 0.930 . S
H1338 C1353 0.930 . S
H1339 C1360 0.930 . S
H1340 C1334 0.929 . S
H1341 C1333 0.930 . S
H1342 C1356 0.929 . S
H1343 C1323 0.931 . S
H1344 C1329 0.931 . S
H1345 C1330 0.931 . S
H1346 C1351 0.931 . S
H1347 C1326 0.929 . S
H1348 C1359 0.930 . S
N1349 Eu1320 2.600 . S
N1349 C1350 1.365 . S
N1349 C1353 1.319 . S
C1350 N1349 1.365 . S
C1350 C1352 1.405 . S
C1350 C1358 1.448 . S
C1351 H1346 0.931 . S
C1351 C1353 1.397 . S
C1351 C1354 1.367 . S
C1352 C1350 1.405 . S
C1352 C1354 1.403 . S
C1352 C1385 1.439 . S
C1353 H1338 0.930 . S
C1353 N1349 1.319 . S
C1353 C1351 1.397 . S
C1354 C1351 1.367 . S
C1354 C1352 1.403 . S
C1354 H1361 0.929 . S
N1355 Eu1320 2.562 . S
N1355 C1356 1.325 . S
N1355 C1358 1.351 . S
C1356 H1342 0.929 . S
C1356 N1355 1.325 . S
C1356 C1360 1.416 . S
C1357 C1358 1.430 . S
C1357 C1359 1.404 . S
C1357 C1386 1.387 . S
C1358 C1350 1.448 . S
C1358 N1355 1.351 . S
C1358 C1357 1.430 . S
C1359 H1348 0.930 . S
C1359 C1357 1.404 . S
C1359 C1360 1.366 . S
C1360 H1339 0.930 . S
C1360 C1356 1.416 . S
C1360 C1359 1.366 . S
H1361 C1354 0.929 . S
H1362 C1385 0.931 . S
H1363 C1386 0.931 . S
O1364 Eu1320 2.462 . S
O1364 C1384 1.252 . S
O1365 Eu1320 2.373 . S
O1365 C1376 1.249 . S
O1366 Eu1331 2.335 . S
O1366 C1376 1.264 . S
O1367 Eu1320 2.432 . S
O1367 C1384 1.268 . S
O1368 Eu1320 2.291 . S
O1368 C1383 1.255 . S
O1369 Eu1331 2.372 . S
O1369 C1383 1.257 . S
O1370 Eu1331 2.462 . S
O1370 C1395 1.252 . S
O1371 Eu1331 2.373 . S
O1371 C1387 1.249 . S
O1372 Eu1320 2.335 . S
O1372 C1387 1.264 . S
O1373 Eu1331 2.432 . S
O1373 C1395 1.268 . S
O1374 Eu1331 2.291 . S
O1374 C1394 1.255 . S
O1375 Eu1320 2.372 . S
O1375 C1394 1.257 . S
C1376 O1365 1.249 . S
C1376 O1366 1.264 . S
C1377 C1380 1.382 . S
C1377 C1382 1.390 . S
C1377 C1384 1.506 . S
C1378 C1379 1.398 . S
C1378 C1382 1.392 . S
C1379 C1378 1.398 . S
C1379 C1381 1.372 . S
C1379 H1396 0.931 . S
C1380 C1377 1.382 . S
C1380 C1381 1.390 . S
C1380 H1397 0.931 . S
C1381 C1379 1.372 . S
C1381 C1380 1.390 . S
C1381 H1398 0.929 . S
C1382 C1377 1.390 . S
C1382 C1378 1.392 . S
C1382 H1399 0.930 . S
C1383 O1368 1.255 . S
C1383 O1369 1.257 . S
C1384 Eu1320 2.787 . S
C1384 O1364 1.252 . S
C1384 O1367 1.268 . S
C1384 C1377 1.506 . S
C1385 C1352 1.439 . S
C1385 H1362 0.931 . S
C1385 C1386 1.374 . S
C1386 C1357 1.387 . S
C1386 H1363 0.931 . S
C1386 C1385 1.374 . S
C1387 O1371 1.249 . S
C1387 O1372 1.264 . S
C1388 C1391 1.382 . S
C1388 C1392 1.390 . S
C1388 C1395 1.506 . S
C1389 C1390 1.398 . S
C1389 C1392 1.392 . S
C1390 C1389 1.398 . S
C1390 C1393 1.372 . S
C1390 H1400 0.931 . S
C1391 C1388 1.382 . S
C1391 C1393 1.390 . S
C1391 H1401 0.931 . S
C1392 C1388 1.390 . S
C1392 C1389 1.392 . S
C1392 H1402 0.930 . S
C1393 C1390 1.372 . S
C1393 C1391 1.390 . S
C1393 H1403 0.929 . S
C1394 O1374 1.255 . S
C1394 O1375 1.257 . S
C1395 Eu1331 2.787 . S
C1395 O1370 1.252 . S
C1395 O1373 1.268 . S
C1395 C1388 1.506 . S
H1396 C1379 0.931 . S
H1397 C1380 0.931 . S
H1398 C1381 0.929 . S
H1399 C1382 0.930 . S
H1400 C1390 0.931 . S
H1401 C1391 0.931 . S
H1402 C1392 0.930 . S
H1403 C1393 0.929 . S
Eu1404 N1433 2.600 . S
Eu1404 N1439 2.562 . S
Eu1404 O1448 2.462 . S
Eu1404 O1449 2.373 . S
Eu1404 O1451 2.432 . S
Eu1404 O1452 2.291 . S
Eu1404 O1456 2.335 . S
Eu1404 O1459 2.372 . S
Eu1404 C1468 2.787 . S
C1405 N1406 1.365 . S
C1405 C1408 1.405 . S
C1405 C1412 1.448 . S
N1406 C1405 1.365 . S
N1406 C1409 1.319 . S
N1406 Eu1415 2.600 . S
C1407 C1409 1.397 . S
C1407 C1410 1.367 . S
C1407 H1427 0.931 . S
C1408 C1405 1.405 . S
C1408 C1410 1.403 . S
C1408 C1414 1.439 . S
C1409 N1406 1.319 . S
C1409 C1407 1.397 . S
C1409 H1420 0.930 . S
C1410 C1407 1.367 . S
C1410 C1408 1.403 . S
C1410 H1431 0.929 . S
C1411 C1412 1.430 . S
C1411 C1413 1.387 . S
C1411 C1417 1.404 . S
C1412 C1405 1.448 . S
C1412 C1411 1.430 . S
C1412 N1416 1.351 . S
C1413 C1411 1.387 . S
C1413 C1414 1.374 . S
C1413 H1428 0.931 . S
C1414 C1408 1.439 . S
C1414 C1413 1.374 . S
C1414 H1429 0.931 . S
Eu1415 N1406 2.600 . S
Eu1415 N1416 2.562 . S
Eu1415 O1450 2.335 . S
Eu1415 O1453 2.372 . S
Eu1415 O1454 2.462 . S
Eu1415 O1455 2.373 . S
Eu1415 O1457 2.432 . S
Eu1415 O1458 2.291 . S
Eu1415 C1479 2.787 . S
N1416 C1412 1.351 . S
N1416 Eu1415 2.562 . S
N1416 C1418 1.325 . S
C1417 C1411 1.404 . S
C1417 C1419 1.366 . S
C1417 H1425 0.930 . S
C1418 N1416 1.325 . S
C1418 C1419 1.416 . S
C1418 H1424 0.929 . S
C1419 C1417 1.366 . S
C1419 C1418 1.416 . S
C1419 H1421 0.930 . S
H1420 C1409 0.930 . S
H1421 C1419 0.930 . S
H1422 C1437 0.930 . S
H1423 C1444 0.930 . S
H1424 C1418 0.929 . S
H1425 C1417 0.930 . S
H1426 C1440 0.929 . S
H1427 C1407 0.931 . S
H1428 C1413 0.931 . S
H1429 C1414 0.931 . S
H1430 C1435 0.931 . S
H1431 C1410 0.929 . S
H1432 C1443 0.930 . S
N1433 Eu1404 2.600 . S
N1433 C1434 1.365 . S
N1433 C1437 1.319 . S
C1434 N1433 1.365 . S
C1434 C1436 1.405 . S
C1434 C1442 1.448 . S
C1435 H1430 0.931 . S
C1435 C1437 1.397 . S
C1435 C1438 1.367 . S
C1436 C1434 1.405 . S
C1436 C1438 1.403 . S
C1436 C1469 1.439 . S
C1437 H1422 0.930 . S
C1437 N1433 1.319 . S
C1437 C1435 1.397 . S
C1438 C1435 1.367 . S
C1438 C1436 1.403 . S
C1438 H1445 0.929 . S
N1439 Eu1404 2.562 . S
N1439 C1440 1.325 . S
N1439 C1442 1.351 . S
C1440 H1426 0.929 . S
C1440 N1439 1.325 . S
C1440 C1444 1.416 . S
C1441 C1442 1.430 . S
C1441 C1443 1.404 . S
C1441 C1470 1.387 . S
C1442 C1434 1.448 . S
C1442 N1439 1.351 . S
C1442 C1441 1.430 . S
C1443 H1432 0.930 . S
C1443 C1441 1.404 . S
C1443 C1444 1.366 . S
C1444 H1423 0.930 . S
C1444 C1440 1.416 . S
C1444 C1443 1.366 . S
H1445 C1438 0.929 . S
H1446 C1469 0.931 . S
H1447 C1470 0.931 . S
O1448 Eu1404 2.462 . S
O1448 C1468 1.252 . S
O1449 Eu1404 2.373 . S
O1449 C1460 1.249 . S
O1450 Eu1415 2.335 . S
O1450 C1460 1.264 . S
O1451 Eu1404 2.432 . S
O1451 C1468 1.268 . S
O1452 Eu1404 2.291 . S
O1452 C1467 1.255 . S
O1453 Eu1415 2.372 . S
O1453 C1467 1.257 . S
O1454 Eu1415 2.462 . S
O1454 C1479 1.252 . S
O1455 Eu1415 2.373 . S
O1455 C1471 1.249 . S
O1456 Eu1404 2.335 . S
O1456 C1471 1.264 . S
O1457 Eu1415 2.432 . S
O1457 C1479 1.268 . S
O1458 Eu1415 2.291 . S
O1458 C1478 1.255 . S
O1459 Eu1404 2.372 . S
O1459 C1478 1.257 . S
C1460 O1449 1.249 . S
C1460 O1450 1.264 . S
C1461 C1464 1.382 . S
C1461 C1466 1.390 . S
C1461 C1468 1.506 . S
C1462 C1463 1.398 . S
C1462 C1466 1.392 . S
C1463 C1462 1.398 . S
C1463 C1465 1.372 . S
C1463 H1480 0.931 . S
C1464 C1461 1.382 . S
C1464 C1465 1.390 . S
C1464 H1481 0.931 . S
C1465 C1463 1.372 . S
C1465 C1464 1.390 . S
C1465 H1482 0.929 . S
C1466 C1461 1.390 . S
C1466 C1462 1.392 . S
C1466 H1483 0.930 . S
C1467 O1452 1.255 . S
C1467 O1453 1.257 . S
C1468 Eu1404 2.787 . S
C1468 O1448 1.252 . S
C1468 O1451 1.268 . S
C1468 C1461 1.506 . S
C1469 C1436 1.439 . S
C1469 H1446 0.931 . S
C1469 C1470 1.374 . S
C1470 C1441 1.387 . S
C1470 H1447 0.931 . S
C1470 C1469 1.374 . S
C1471 O1455 1.249 . S
C1471 O1456 1.264 . S
C1472 C1475 1.382 . S
C1472 C1476 1.390 . S
C1472 C1479 1.506 . S
C1473 C1474 1.398 . S
C1473 C1476 1.392 . S
C1474 C1473 1.398 . S
C1474 C1477 1.372 . S
C1474 H1484 0.931 . S
C1475 C1472 1.382 . S
C1475 C1477 1.390 . S
C1475 H1485 0.931 . S
C1476 C1472 1.390 . S
C1476 C1473 1.392 . S
C1476 H1486 0.930 . S
C1477 C1474 1.372 . S
C1477 C1475 1.390 . S
C1477 H1487 0.929 . S
C1478 O1458 1.255 . S
C1478 O1459 1.257 . S
C1479 Eu1415 2.787 . S
C1479 O1454 1.252 . S
C1479 O1457 1.268 . S
C1479 C1472 1.506 . S
H1480 C1463 0.931 . S
H1481 C1464 0.931 . S
H1482 C1465 0.929 . S
H1483 C1466 0.930 . S
H1484 C1474 0.931 . S
H1485 C1475 0.931 . S
H1486 C1476 0.930 . S
H1487 C1477 0.929 . S
Eu1488 N1517 2.600 . S
Eu1488 N1523 2.562 . S
Eu1488 O1532 2.462 . S
Eu1488 O1533 2.373 . S
Eu1488 O1535 2.432 . S
Eu1488 O1536 2.291 . S
Eu1488 O1540 2.335 . S
Eu1488 O1543 2.372 . S
Eu1488 C1552 2.787 . S
C1489 N1490 1.365 . S
C1489 C1492 1.405 . S
C1489 C1496 1.448 . S
N1490 C1489 1.365 . S
N1490 C1493 1.319 . S
N1490 Eu1499 2.600 . S
C1491 C1493 1.397 . S
C1491 C1494 1.367 . S
C1491 H1511 0.931 . S
C1492 C1489 1.405 . S
C1492 C1494 1.403 . S
C1492 C1498 1.439 . S
C1493 N1490 1.319 . S
C1493 C1491 1.397 . S
C1493 H1504 0.930 . S
C1494 C1491 1.367 . S
C1494 C1492 1.403 . S
C1494 H1515 0.929 . S
C1495 C1496 1.430 . S
C1495 C1497 1.387 . S
C1495 C1501 1.404 . S
C1496 C1489 1.448 . S
C1496 C1495 1.430 . S
C1496 N1500 1.351 . S
C1497 C1495 1.387 . S
C1497 C1498 1.374 . S
C1497 H1512 0.931 . S
C1498 C1492 1.439 . S
C1498 C1497 1.374 . S
C1498 H1513 0.931 . S
Eu1499 N1490 2.600 . S
Eu1499 N1500 2.562 . S
Eu1499 O1534 2.335 . S
Eu1499 O1537 2.372 . S
Eu1499 O1538 2.462 . S
Eu1499 O1539 2.373 . S
Eu1499 O1541 2.432 . S
Eu1499 O1542 2.291 . S
Eu1499 C1563 2.787 . S
N1500 C1496 1.351 . S
N1500 Eu1499 2.562 . S
N1500 C1502 1.325 . S
C1501 C1495 1.404 . S
C1501 C1503 1.366 . S
C1501 H1509 0.930 . S
C1502 N1500 1.325 . S
C1502 C1503 1.416 . S
C1502 H1508 0.929 . S
C1503 C1501 1.366 . S
C1503 C1502 1.416 . S
C1503 H1505 0.930 . S
H1504 C1493 0.930 . S
H1505 C1503 0.930 . S
H1506 C1521 0.930 . S
H1507 C1528 0.930 . S
H1508 C1502 0.929 . S
H1509 C1501 0.930 . S
H1510 C1524 0.929 . S
H1511 C1491 0.931 . S
H1512 C1497 0.931 . S
H1513 C1498 0.931 . S
H1514 C1519 0.931 . S
H1515 C1494 0.929 . S
H1516 C1527 0.930 . S
N1517 Eu1488 2.600 . S
N1517 C1518 1.365 . S
N1517 C1521 1.319 . S
C1518 N1517 1.365 . S
C1518 C1520 1.405 . S
C1518 C1526 1.448 . S
C1519 H1514 0.931 . S
C1519 C1521 1.397 . S
C1519 C1522 1.367 . S
C1520 C1518 1.405 . S
C1520 C1522 1.403 . S
C1520 C1553 1.439 . S
C1521 H1506 0.930 . S
C1521 N1517 1.319 . S
C1521 C1519 1.397 . S
C1522 C1519 1.367 . S
C1522 C1520 1.403 . S
C1522 H1529 0.929 . S
N1523 Eu1488 2.562 . S
N1523 C1524 1.325 . S
N1523 C1526 1.351 . S
C1524 H1510 0.929 . S
C1524 N1523 1.325 . S
C1524 C1528 1.416 . S
C1525 C1526 1.430 . S
C1525 C1527 1.404 . S
C1525 C1554 1.387 . S
C1526 C1518 1.448 . S
C1526 N1523 1.351 . S
C1526 C1525 1.430 . S
C1527 H1516 0.930 . S
C1527 C1525 1.404 . S
C1527 C1528 1.366 . S
C1528 H1507 0.930 . S
C1528 C1524 1.416 . S
C1528 C1527 1.366 . S
H1529 C1522 0.929 . S
H1530 C1553 0.931 . S
H1531 C1554 0.931 . S
O1532 Eu1488 2.462 . S
O1532 C1552 1.252 . S
O1533 Eu1488 2.373 . S
O1533 C1544 1.249 . S
O1534 Eu1499 2.335 . S
O1534 C1544 1.264 . S
O1535 Eu1488 2.432 . S
O1535 C1552 1.268 . S
O1536 Eu1488 2.291 . S
O1536 C1551 1.255 . S
O1537 Eu1499 2.372 . S
O1537 C1551 1.257 . S
O1538 Eu1499 2.462 . S
O1538 C1563 1.252 . S
O1539 Eu1499 2.373 . S
O1539 C1555 1.249 . S
O1540 Eu1488 2.335 . S
O1540 C1555 1.264 . S
O1541 Eu1499 2.432 . S
O1541 C1563 1.268 . S
O1542 Eu1499 2.291 . S
O1542 C1562 1.255 . S
O1543 Eu1488 2.372 . S
O1543 C1562 1.257 . S
C1544 O1533 1.249 . S
C1544 O1534 1.264 . S
C1545 C1548 1.382 . S
C1545 C1550 1.390 . S
C1545 C1552 1.506 . S
C1546 C1547 1.398 . S
C1546 C1550 1.392 . S
C1547 C1546 1.398 . S
C1547 C1549 1.372 . S
C1547 H1564 0.931 . S
C1548 C1545 1.382 . S
C1548 C1549 1.390 . S
C1548 H1565 0.931 . S
C1549 C1547 1.372 . S
C1549 C1548 1.390 . S
C1549 H1566 0.929 . S
C1550 C1545 1.390 . S
C1550 C1546 1.392 . S
C1550 H1567 0.930 . S
C1551 O1536 1.255 . S
C1551 O1537 1.257 . S
C1552 Eu1488 2.787 . S
C1552 O1532 1.252 . S
C1552 O1535 1.268 . S
C1552 C1545 1.506 . S
C1553 C1520 1.439 . S
C1553 H1530 0.931 . S
C1553 C1554 1.374 . S
C1554 C1525 1.387 . S
C1554 H1531 0.931 . S
C1554 C1553 1.374 . S
C1555 O1539 1.249 . S
C1555 O1540 1.264 . S
C1556 C1559 1.382 . S
C1556 C1560 1.390 . S
C1556 C1563 1.506 . S
C1557 C1558 1.398 . S
C1557 C1560 1.392 . S
C1558 C1557 1.398 . S
C1558 C1561 1.372 . S
C1558 H1568 0.931 . S
C1559 C1556 1.382 . S
C1559 C1561 1.390 . S
C1559 H1569 0.931 . S
C1560 C1556 1.390 . S
C1560 C1557 1.392 . S
C1560 H1570 0.930 . S
C1561 C1558 1.372 . S
C1561 C1559 1.390 . S
C1561 H1571 0.929 . S
C1562 O1542 1.255 . S
C1562 O1543 1.257 . S
C1563 Eu1499 2.787 . S
C1563 O1538 1.252 . S
C1563 O1541 1.268 . S
C1563 C1556 1.506 . S
H1564 C1547 0.931 . S
H1565 C1548 0.931 . S
H1566 C1549 0.929 . S
H1567 C1550 0.930 . S
H1568 C1558 0.931 . S
H1569 C1559 0.931 . S
H1570 C1560 0.930 . S
H1571 C1561 0.929 . S
Eu1572 N1601 2.600 1_455 S
Eu1572 N1607 2.562 1_455 S
Eu1572 O1616 2.462 1_455 S
Eu1572 O1617 2.373 . S
Eu1572 O1619 2.432 1_455 S
Eu1572 O1620 2.291 . S
Eu1572 O1624 2.335 . S
Eu1572 O1627 2.372 . S
Eu1572 C1636 2.787 1_455 S
C1573 N1574 1.365 . S
C1573 C1576 1.405 . S
C1573 C1580 1.448 1_556 S
N1574 C1573 1.365 . S
N1574 C1577 1.319 . S
N1574 Eu1583 2.600 1_556 S
C1575 C1577 1.397 . S
C1575 C1578 1.367 . S
C1575 H1595 0.931 . S
C1576 C1573 1.405 . S
C1576 C1578 1.403 . S
C1576 C1582 1.439 . S
C1577 N1574 1.319 . S
C1577 C1575 1.397 . S
C1577 H1588 0.930 . S
C1578 C1575 1.367 . S
C1578 C1576 1.403 . S
C1578 H1599 0.929 . S
C1579 C1580 1.430 . S
C1579 C1581 1.387 1_554 S
C1579 C1585 1.404 . S
C1580 C1573 1.448 1_554 S
C1580 C1579 1.430 . S
C1580 N1584 1.351 . S
C1581 C1579 1.387 1_556 S
C1581 C1582 1.374 . S
C1581 H1596 0.931 1_556 S
C1582 C1576 1.439 . S
C1582 C1581 1.374 . S
C1582 H1597 0.931 . S
Eu1583 N1574 2.600 1_554 S
Eu1583 N1584 2.562 . S
Eu1583 O1618 2.335 . S
Eu1583 O1621 2.372 1_554 S
Eu1583 O1622 2.462 . S
Eu1583 O1623 2.373 . S
Eu1583 O1625 2.432 1_554 S
Eu1583 O1626 2.291 . S
Eu1583 C1647 2.787 1_554 S
N1584 C1580 1.351 . S
N1584 Eu1583 2.562 . S
N1584 C1586 1.325 . S
C1585 C1579 1.404 . S
C1585 C1587 1.366 . S
C1585 H1593 0.930 . S
C1586 N1584 1.325 . S
C1586 C1587 1.416 . S
C1586 H1592 0.929 . S
C1587 C1585 1.366 . S
C1587 C1586 1.416 . S
C1587 H1589 0.930 . S
H1588 C1577 0.930 . S
H1589 C1587 0.930 . S
H1590 C1605 0.948 . S
H1591 C1612 0.930 . S
H1592 C1586 0.929 . S
H1593 C1585 0.930 . S
H1594 C1608 0.929 1_556 S
H1595 C1575 0.931 . S
H1596 C1581 0.931 1_554 S
H1597 C1582 0.931 . S
H1598 C1603 0.931 1_455 S
H1599 C1578 0.929 . S
H1600 C1611 0.930 . S
N1601 Eu1572 2.600 1_655 S
N1601 C1602 1.365 . S
N1601 C1605 1.307 1_655 S
C1602 N1601 1.365 . S
C1602 C1604 1.405 . S
C1602 C1610 1.448 . S
C1603 H1598 0.931 1_655 S
C1603 C1605 1.393 1_655 S
C1603 C1606 1.367 . S
C1604 C1602 1.405 . S
C1604 C1606 1.403 . S
C1604 C1637 1.439 . S
C1605 H1590 0.948 . S
C1605 N1601 1.307 1_455 S
C1605 C1603 1.393 1_455 S
C1606 C1603 1.367 . S
C1606 C1604 1.403 . S
C1606 H1613 0.929 . S
N1607 Eu1572 2.562 1_655 S
N1607 C1608 1.325 . S
N1607 C1610 1.351 . S
C1608 H1594 0.929 1_554 S
C1608 N1607 1.325 . S
C1608 C1612 1.416 1_554 S
C1609 C1610 1.430 . S
C1609 C1611 1.404 . S
C1609 C1638 1.387 . S
C1610 C1602 1.448 . S
C1610 N1607 1.351 . S
C1610 C1609 1.430 . S
C1611 H1600 0.930 . S
C1611 C1609 1.404 . S
C1611 C1612 1.366 1_554 S
C1612 H1591 0.930 . S
C1612 C1608 1.416 1_556 S
C1612 C1611 1.366 1_556 S
H1613 C1606 0.929 . S
H1614 C1637 0.931 . S
H1615 C1638 0.931 . S
O1616 Eu1572 2.462 1_655 S
O1616 C1636 1.252 . S
O1617 Eu1572 2.373 . S
O1617 C1628 1.249 . S
O1618 Eu1583 2.335 . S
O1618 C1628 1.264 . S
O1619 Eu1572 2.432 1_655 S
O1619 C1636 1.268 . S
O1620 Eu1572 2.291 . S
O1620 C1635 1.255 1_554 S
O1621 Eu1583 2.372 1_556 S
O1621 C1635 1.257 . S
O1622 Eu1583 2.462 . S
O1622 C1647 1.252 1_554 S
O1623 Eu1583 2.373 . S
O1623 C1639 1.249 . S
O1624 Eu1572 2.335 . S
O1624 C1639 1.264 . S
O1625 Eu1583 2.432 1_556 S
O1625 C1647 1.268 . S
O1626 Eu1583 2.291 . S
O1626 C1646 1.255 . S
O1627 Eu1572 2.372 . S
O1627 C1646 1.257 . S
C1628 O1617 1.249 . S
C1628 O1618 1.264 . S
C1629 C1632 1.382 . S
C1629 C1634 1.390 . S
C1629 C1636 1.506 . S
C1630 C1631 1.398 . S
C1630 C1634 1.392 . S
C1631 C1630 1.398 . S
C1631 C1633 1.372 . S
C1631 H1648 0.931 . S
C1632 C1629 1.382 . S
C1632 C1633 1.390 . S
C1632 H1649 0.931 . S
C1633 C1631 1.372 . S
C1633 C1632 1.390 . S
C1633 H1650 0.929 . S
C1634 C1629 1.390 . S
C1634 C1630 1.392 . S
C1634 H1651 0.930 . S
C1635 O1620 1.255 1_556 S
C1635 O1621 1.257 . S
C1636 Eu1572 2.787 1_655 S
C1636 O1616 1.252 . S
C1636 O1619 1.268 . S
C1636 C1629 1.506 . S
C1637 C1604 1.439 . S
C1637 H1614 0.931 . S
C1637 C1638 1.374 . S
C1638 C1609 1.387 . S
C1638 H1615 0.931 . S
C1638 C1637 1.374 . S
C1639 O1623 1.249 . S
C1639 O1624 1.264 . S
C1640 C1643 1.382 . S
C1640 C1644 1.390 1_556 S
C1640 C1647 1.506 . S
C1641 C1642 1.398 1_554 S
C1641 C1644 1.392 . S
C1642 C1641 1.398 1_556 S
C1642 C1645 1.372 . S
C1642 H1652 0.931 . S
C1643 C1640 1.382 . S
C1643 C1645 1.390 . S
C1643 H1653 0.931 . S
C1644 C1640 1.390 1_554 S
C1644 C1641 1.392 . S
C1644 H1654 0.930 . S
C1645 C1642 1.372 . S
C1645 C1643 1.390 . S
C1645 H1655 0.929 . S
C1646 O1626 1.255 . S
C1646 O1627 1.257 . S
C1647 Eu1583 2.787 1_556 S
C1647 O1622 1.252 1_556 S
C1647 O1625 1.268 . S
C1647 C1640 1.506 . S
H1648 C1631 0.931 . S
H1649 C1632 0.931 . S
H1650 C1633 0.929 . S
H1651 C1634 0.930 . S
H1652 C1642 0.931 . S
H1653 C1643 0.931 . S
H1654 C1644 0.930 . S
H1655 C1645 0.929 . S
H1656 C1662 0.930 . S
H1657 C1666 0.930 1_655 S
H1658 C1671 0.929 . S
H1659 C1669 0.929 . S
H1660 C1664 0.929 . S
H1661 C1670 0.929 . S
C1662 H1656 0.930 . S
C1662 C1663 1.364 1_455 S
C1662 C1670 1.378 . S
C1663 C1662 1.364 1_655 S
C1663 C1671 1.435 1_556 S
C1664 H1660 0.929 . S
C1664 C1666 1.378 1_655 S
C1664 C1668 1.350 1_655 S
C1665 C1668 1.463 1_556 S
C1665 C1670 1.350 . S
C1665 N1673 1.427 1_456 S
C1666 H1657 0.930 1_455 S
C1666 C1664 1.378 1_455 S
C1666 C1667 1.367 . S
C1667 C1666 1.367 . S
C1667 C1669 1.433 1_554 S
C1668 C1664 1.350 1_455 S
C1668 C1665 1.463 1_554 S
C1668 N1672 1.427 1_554 S
C1669 H1659 0.929 . S
C1669 C1667 1.433 1_556 S
C1669 N1672 1.384 . S
C1670 H1661 0.929 . S
C1670 C1662 1.378 . S
C1670 C1665 1.350 . S
C1671 H1658 0.929 . S
C1671 C1663 1.435 1_554 S
C1671 N1673 1.384 . S
N1672 C1668 1.427 1_556 S
N1672 C1669 1.384 . S
N1673 C1665 1.427 1_654 S
N1673 C1671 1.384 . S
H1674 C1680 0.930 . S
H1675 C1684 0.930 . S
H1676 C1689 0.929 . S
H1677 C1687 0.929 . S
H1678 C1682 0.929 . S
H1679 C1688 0.929 . S
C1680 H1674 0.930 . S
C1680 C1681 1.367 . S
C1680 C1688 1.378 . S
C1681 C1680 1.367 . S
C1681 C1689 1.433 . S
C1682 H1678 0.929 . S
C1682 C1684 1.378 . S
C1682 C1686 1.350 . S
C1683 C1686 1.463 . S
C1683 C1688 1.350 . S
C1683 N1691 1.427 . S
C1684 H1675 0.930 . S
C1684 C1682 1.378 . S
C1684 C1685 1.367 . S
C1685 C1684 1.367 . S
C1685 C1687 1.433 . S
C1686 C1682 1.350 . S
C1686 C1683 1.463 . S
C1686 N1690 1.427 . S
C1687 H1677 0.929 . S
C1687 C1685 1.433 . S
C1687 N1690 1.384 . S
C1688 H1679 0.929 . S
C1688 C1680 1.378 . S
C1688 C1683 1.350 . S
C1689 H1676 0.929 . S
C1689 C1681 1.433 . S
C1689 N1691 1.384 . S
N1690 C1686 1.427 . S
N1690 C1687 1.384 . S
N1691 C1683 1.427 . S
N1691 C1689 1.384 . S
H1692 C1698 0.930 . S
H1693 C1702 0.930 . S
H1694 C1707 0.929 . S
H1695 C1705 0.929 . S
H1696 C1700 0.929 . S
H1697 C1706 0.929 . S
C1698 H1692 0.930 . S
C1698 C1699 1.367 . S
C1698 C1706 1.378 . S
C1699 C1698 1.367 . S
C1699 C1707 1.433 . S
C1700 H1696 0.929 . S
C1700 C1702 1.378 . S
C1700 C1704 1.350 . S
C1701 C1704 1.463 . S
C1701 C1706 1.350 . S
C1701 N1709 1.427 . S
C1702 H1693 0.930 . S
C1702 C1700 1.378 . S
C1702 C1703 1.367 . S
C1703 C1702 1.367 . S
C1703 C1705 1.433 . S
C1704 C1700 1.350 . S
C1704 C1701 1.463 . S
C1704 N1708 1.427 . S
C1705 H1695 0.929 . S
C1705 C1703 1.433 . S
C1705 N1708 1.384 . S
C1706 H1697 0.929 . S
C1706 C1698 1.378 . S
C1706 C1701 1.350 . S
C1707 H1694 0.929 . S
C1707 C1699 1.433 . S
C1707 N1709 1.384 . S
N1708 C1704 1.427 . S
N1708 C1705 1.384 . S
N1709 C1701 1.427 . S
N1709 C1707 1.384 . S
H1710 C1716 0.930 . S
H1711 C1720 0.930 . S
H1712 C1725 0.929 . S
H1713 C1723 0.929 . S
H1714 C1718 0.929 . S
H1715 C1724 0.929 . S
C1716 H1710 0.930 . S
C1716 C1717 1.367 . S
C1716 C1724 1.378 . S
C1717 C1716 1.367 . S
C1717 C1725 1.433 . S
C1718 H1714 0.929 . S
C1718 C1720 1.378 . S
C1718 C1722 1.350 . S
C1719 C1722 1.463 . S
C1719 C1724 1.350 . S
C1719 N1727 1.427 . S
C1720 H1711 0.930 . S
C1720 C1718 1.378 . S
C1720 C1721 1.367 . S
C1721 C1720 1.367 . S
C1721 C1723 1.433 . S
C1722 C1718 1.350 . S
C1722 C1719 1.463 . S
C1722 N1726 1.427 . S
C1723 H1713 0.929 . S
C1723 C1721 1.433 . S
C1723 N1726 1.384 . S
C1724 H1715 0.929 . S
C1724 C1716 1.378 . S
C1724 C1719 1.350 . S
C1725 H1712 0.929 . S
C1725 C1717 1.433 . S
C1725 N1727 1.384 . S
N1726 C1722 1.427 . S
N1726 C1723 1.384 . S
N1727 C1719 1.427 . S
N1727 C1725 1.384 . S
H1728 C1734 0.930 1_655 S
H1729 C1738 0.930 . S
H1730 C1743 0.929 . S
H1731 C1741 0.929 1_655 S
H1732 C1736 0.929 . S
H1733 C1742 0.929 1_655 S
C1734 H1728 0.930 1_455 S
C1734 C1735 1.367 . S
C1734 C1742 1.378 . S
C1735 C1734 1.367 . S
C1735 C1743 1.433 . S
C1736 H1732 0.929 . S
C1736 C1738 1.378 . S
C1736 C1740 1.350 . S
C1737 C1740 1.463 . S
C1737 C1742 1.350 . S
C1737 N1745 1.427 . S
C1738 H1729 0.930 . S
C1738 C1736 1.378 . S
C1738 C1739 1.367 . S
C1739 C1738 1.367 . S
C1739 C1741 1.433 . S
C1740 C1736 1.350 . S
C1740 C1737 1.463 . S
C1740 N1744 1.427 . S
C1741 H1731 0.929 1_455 S
C1741 C1739 1.433 . S
C1741 N1744 1.384 . S
C1742 H1733 0.929 1_455 S
C1742 C1734 1.378 . S
C1742 C1737 1.350 . S
C1743 H1730 0.929 . S
C1743 C1735 1.433 . S
C1743 N1745 1.384 . S
N1744 C1740 1.427 . S
N1744 C1741 1.384 . S
N1745 C1737 1.427 . S
N1745 C1743 1.384 . S
H1746 C1752 0.930 . S
H1747 C1756 0.930 . S
H1748 C1761 0.929 . S
H1749 C1759 0.929 . S
H1750 C1754 0.929 . S
H1751 C1760 0.929 . S
C1752 H1746 0.930 . S
C1752 C1753 1.367 . S
C1752 C1760 1.378 . S
C1753 C1752 1.367 . S
C1753 C1761 1.433 . S
C1754 H1750 0.929 . S
C1754 C1756 1.378 . S
C1754 C1758 1.350 . S
C1755 C1758 1.463 . S
C1755 C1760 1.350 . S
C1755 N1763 1.427 . S
C1756 H1747 0.930 . S
C1756 C1754 1.378 . S
C1756 C1757 1.367 . S
C1757 C1756 1.367 . S
C1757 C1759 1.433 . S
C1758 C1754 1.350 . S
C1758 C1755 1.463 . S
C1758 N1762 1.427 . S
C1759 H1749 0.929 . S
C1759 C1757 1.433 . S
C1759 N1762 1.384 . S
C1760 H1751 0.929 . S
C1760 C1752 1.378 . S
C1760 C1755 1.350 . S
C1761 H1748 0.929 . S
C1761 C1753 1.433 . S
C1761 N1763 1.384 . S
N1762 C1758 1.427 . S
N1762 C1759 1.384 . S
N1763 C1755 1.427 . S
N1763 C1761 1.384 . S
H1764 C1770 0.930 . S
H1765 C1774 0.930 . S
H1766 C1779 0.929 . S
H1767 C1777 0.929 . S
H1768 C1772 0.929 . S
H1769 C1778 0.929 . S
C1770 H1764 0.930 . S
C1770 C1771 1.367 . S
C1770 C1778 1.378 . S
C1771 C1770 1.367 . S
C1771 C1779 1.433 . S
C1772 H1768 0.929 . S
C1772 C1774 1.378 . S
C1772 C1776 1.350 . S
C1773 C1776 1.463 . S
C1773 C1778 1.350 . S
C1773 N1781 1.427 . S
C1774 H1765 0.930 . S
C1774 C1772 1.378 . S
C1774 C1775 1.367 . S
C1775 C1774 1.367 . S
C1775 C1777 1.433 . S
C1776 C1772 1.350 . S
C1776 C1773 1.463 . S
C1776 N1780 1.427 . S
C1777 H1767 0.929 . S
C1777 C1775 1.433 . S
C1777 N1780 1.384 . S
C1778 H1769 0.929 . S
C1778 C1770 1.378 . S
C1778 C1773 1.350 . S
C1779 H1766 0.929 . S
C1779 C1771 1.433 . S
C1779 N1781 1.384 . S
N1780 C1776 1.427 . S
N1780 C1777 1.384 . S
N1781 C1773 1.427 . S
N1781 C1779 1.384 . S
H1782 C1788 0.930 . S
H1783 C1792 0.930 . S
H1784 C1797 0.929 . S
H1785 C1795 0.929 . S
H1786 C1790 0.929 . S
H1787 C1796 0.929 . S
C1788 H1782 0.930 . S
C1788 C1789 1.367 . S
C1788 C1796 1.378 . S
C1789 C1788 1.367 . S
C1789 C1797 1.433 . S
C1790 H1786 0.929 . S
C1790 C1792 1.378 . S
C1790 C1794 1.350 . S
C1791 C1794 1.463 . S
C1791 C1796 1.350 . S
C1791 N1799 1.427 . S
C1792 H1783 0.930 . S
C1792 C1790 1.378 . S
C1792 C1793 1.367 . S
C1793 C1792 1.367 . S
C1793 C1795 1.433 . S
C1794 C1790 1.350 . S
C1794 C1791 1.463 . S
C1794 N1798 1.427 . S
C1795 H1785 0.929 . S
C1795 C1793 1.433 . S
C1795 N1798 1.384 . S
C1796 H1787 0.929 . S
C1796 C1788 1.378 . S
C1796 C1791 1.350 . S
C1797 H1784 0.929 . S
C1797 C1789 1.433 . S
C1797 N1799 1.384 . S
N1798 C1794 1.427 . S
N1798 C1795 1.384 . S
N1799 C1791 1.427 . S
N1799 C1797 1.384 . S
H1800 C1806 0.951 . S
H1801 C1810 0.930 . S
H1802 C1815 0.929 . S
H1803 C1813 0.929 . S
H1804 C1808 0.929 . S
H1805 C1814 0.929 1_565 S
C1806 H1800 0.951 . S
C1806 C1807 1.350 1_565 S
C1806 C1814 1.375 1_565 S
C1807 C1806 1.350 1_545 S
C1807 C1815 1.433 . S
C1808 H1804 0.929 . S
C1808 C1810 1.378 . S
C1808 C1812 1.350 . S
C1809 C1812 1.463 . S
C1809 C1814 1.350 . S
C1809 N1817 1.427 . S
C1810 H1801 0.930 . S
C1810 C1808 1.378 . S
C1810 C1811 1.367 1_655 S
C1811 C1810 1.367 1_455 S
C1811 C1813 1.433 . S
C1812 C1808 1.350 . S
C1812 C1809 1.463 . S
C1812 N1816 1.427 . S
C1813 H1803 0.929 . S
C1813 C1811 1.433 . S
C1813 N1816 1.384 1_455 S
C1814 H1805 0.929 1_545 S
C1814 C1806 1.375 1_545 S
C1814 C1809 1.350 . S
C1815 H1802 0.929 . S
C1815 C1807 1.433 . S
C1815 N1817 1.384 . S
N1816 C1812 1.427 . S
N1816 C1813 1.384 1_655 S
N1817 C1809 1.427 . S
N1817 C1815 1.384 . S
H1818 C1824 0.930 . S
H1819 C1828 0.930 . S
H1820 C1833 0.929 . S
H1821 C1831 0.929 . S
H1822 C1826 0.929 . S
H1823 C1832 0.929 . S
C1824 H1818 0.930 . S
C1824 C1825 1.367 . S
C1824 C1832 1.378 . S
C1825 C1824 1.367 . S
C1825 C1833 1.433 . S
C1826 H1822 0.929 . S
C1826 C1828 1.378 . S
C1826 C1830 1.350 . S
C1827 C1830 1.463 . S
C1827 C1832 1.350 . S
C1827 N1835 1.427 . S
C1828 H1819 0.930 . S
C1828 C1826 1.378 . S
C1828 C1829 1.367 . S
C1829 C1828 1.367 . S
C1829 C1831 1.433 . S
C1830 C1826 1.350 . S
C1830 C1827 1.463 . S
C1830 N1834 1.427 . S
C1831 H1821 0.929 . S
C1831 C1829 1.433 . S
C1831 N1834 1.384 . S
C1832 H1823 0.929 . S
C1832 C1824 1.378 . S
C1832 C1827 1.350 . S
C1833 H1820 0.929 . S
C1833 C1825 1.433 . S
C1833 N1835 1.384 . S
N1834 C1830 1.427 . S
N1834 C1831 1.384 . S
N1835 C1827 1.427 . S
N1835 C1833 1.384 . S
H1836 C1842 0.930 . S
H1837 C1846 0.930 . S
H1838 C1851 0.929 . S
H1839 C1849 0.929 . S
H1840 C1844 0.929 . S
H1841 C1850 0.929 . S
C1842 H1836 0.930 . S
C1842 C1843 1.367 . S
C1842 C1850 1.378 . S
C1843 C1842 1.367 . S
C1843 C1851 1.433 . S
C1844 H1840 0.929 . S
C1844 C1846 1.378 . S
C1844 C1848 1.350 . S
C1845 C1848 1.463 . S
C1845 C1850 1.350 . S
C1845 N1853 1.427 . S
C1846 H1837 0.930 . S
C1846 C1844 1.378 . S
C1846 C1847 1.367 . S
C1847 C1846 1.367 . S
C1847 C1849 1.433 . S
C1848 C1844 1.350 . S
C1848 C1845 1.463 . S
C1848 N1852 1.427 . S
C1849 H1839 0.929 . S
C1849 C1847 1.433 . S
C1849 N1852 1.384 . S
C1850 H1841 0.929 . S
C1850 C1842 1.378 . S
C1850 C1845 1.350 . S
C1851 H1838 0.929 . S
C1851 C1843 1.433 . S
C1851 N1853 1.384 . S
N1852 C1848 1.427 . S
N1852 C1849 1.384 . S
N1853 C1845 1.427 . S
N1853 C1851 1.384 . S
H1854 C1860 0.930 . S
H1855 C1864 0.930 . S
H1856 C1869 0.929 . S
H1857 C1867 0.929 . S
H1858 C1862 0.929 . S
H1859 C1868 0.929 . S
C1860 H1854 0.930 . S
C1860 C1861 1.367 . S
C1860 C1868 1.378 . S
C1861 C1860 1.367 . S
C1861 C1869 1.433 . S
C1862 H1858 0.929 . S
C1862 C1864 1.378 . S
C1862 C1866 1.350 . S
C1863 C1866 1.463 . S
C1863 C1868 1.350 . S
C1863 N1871 1.427 . S
C1864 H1855 0.930 . S
C1864 C1862 1.378 . S
C1864 C1865 1.367 . S
C1865 C1864 1.367 . S
C1865 C1867 1.433 . S
C1866 C1862 1.350 . S
C1866 C1863 1.463 . S
C1866 N1870 1.427 . S
C1867 H1857 0.929 . S
C1867 C1865 1.433 . S
C1867 N1870 1.384 . S
C1868 H1859 0.929 . S
C1868 C1860 1.378 . S
C1868 C1863 1.350 . S
C1869 H1856 0.929 . S
C1869 C1861 1.433 . S
C1869 N1871 1.384 . S
N1870 C1866 1.427 . S
N1870 C1867 1.384 . S
N1871 C1863 1.427 . S
N1871 C1869 1.384 . S
H1872 C1878 0.930 . S
H1873 C1882 0.930 1_565 S
H1874 C1887 0.929 1_565 S
H1875 C1885 0.929 . S
H1876 C1880 0.929 1_565 S
H1877 C1886 0.929 . S
C1878 H1872 0.930 . S
C1878 C1879 1.367 . S
C1878 C1886 1.378 . S
C1879 C1878 1.367 . S
C1879 C1887 1.433 . S
C1880 H1876 0.929 1_545 S
C1880 C1882 1.378 1_655 S
C1880 C1884 1.350 . S
C1881 C1884 1.463 . S
C1881 C1886 1.350 . S
C1881 N1889 1.427 . S
C1882 H1873 0.930 1_545 S
C1882 C1880 1.378 1_455 S
C1882 C1883 1.367 . S
C1883 C1882 1.367 . S
C1883 C1885 1.433 1_455 S
C1884 C1880 1.350 . S
C1884 C1881 1.463 . S
C1884 N1888 1.427 . S
C1885 H1875 0.929 . S
C1885 C1883 1.433 1_655 S
C1885 N1888 1.384 . S
C1886 H1877 0.929 . S
C1886 C1878 1.378 . S
C1886 C1881 1.350 . S
C1887 H1874 0.929 1_545 S
C1887 C1879 1.433 . S
C1887 N1889 1.384 . S
N1888 C1884 1.427 . S
N1888 C1885 1.384 . S
N1889 C1881 1.427 . S
N1889 C1887 1.384 . S
H1890 C1896 0.930 . S
H1891 C1900 0.930 . S
H1892 C1905 0.929 . S
H1893 C1903 0.929 . S
H1894 C1898 0.929 . S
H1895 C1904 0.929 . S
C1896 H1890 0.930 . S
C1896 C1897 1.367 . S
C1896 C1904 1.378 . S
C1897 C1896 1.367 . S
C1897 C1905 1.433 . S
C1898 H1894 0.929 . S
C1898 C1900 1.378 . S
C1898 C1902 1.350 . S
C1899 C1902 1.463 . S
C1899 C1904 1.350 . S
C1899 N1907 1.427 . S
C1900 H1891 0.930 . S
C1900 C1898 1.378 . S
C1900 C1901 1.367 . S
C1901 C1900 1.367 . S
C1901 C1903 1.433 . S
C1902 C1898 1.350 . S
C1902 C1899 1.463 . S
C1902 N1906 1.427 . S
C1903 H1893 0.929 . S
C1903 C1901 1.433 . S
C1903 N1906 1.384 . S
C1904 H1895 0.929 . S
C1904 C1896 1.378 . S
C1904 C1899 1.350 . S
C1905 H1892 0.929 . S
C1905 C1897 1.433 . S
C1905 N1907 1.384 . S
N1906 C1902 1.427 . S
N1906 C1903 1.384 . S
N1907 C1899 1.427 . S
N1907 C1905 1.384 . S
H1908 C1914 0.930 . S
H1909 C1918 0.930 . S
H1910 C1923 0.929 . S
H1911 C1921 0.929 . S
H1912 C1916 0.929 . S
H1913 C1922 0.929 . S
C1914 H1908 0.930 . S
C1914 C1915 1.367 . S
C1914 C1922 1.378 . S
C1915 C1914 1.367 . S
C1915 C1923 1.433 . S
C1916 H1912 0.929 . S
C1916 C1918 1.378 . S
C1916 C1920 1.350 . S
C1917 C1920 1.463 . S
C1917 C1922 1.350 . S
C1917 N1925 1.427 . S
C1918 H1909 0.930 . S
C1918 C1916 1.378 . S
C1918 C1919 1.367 . S
C1919 C1918 1.367 . S
C1919 C1921 1.433 . S
C1920 C1916 1.350 . S
C1920 C1917 1.463 . S
C1920 N1924 1.427 . S
C1921 H1911 0.929 . S
C1921 C1919 1.433 . S
C1921 N1924 1.384 . S
C1922 H1913 0.929 . S
C1922 C1914 1.378 . S
C1922 C1917 1.350 . S
C1923 H1910 0.929 . S
C1923 C1915 1.433 . S
C1923 N1925 1.384 . S
N1924 C1920 1.427 . S
N1924 C1921 1.384 . S
N1925 C1917 1.427 . S
N1925 C1923 1.384 . S
H1926 C1932 0.930 . S
H1927 C1936 0.930 . S
H1928 C1941 0.929 . S
H1929 C1939 0.929 . S
H1930 C1934 0.929 . S
H1931 C1940 0.929 . S
C1932 H1926 0.930 . S
C1932 C1933 1.367 . S
C1932 C1940 1.378 . S
C1933 C1932 1.367 . S
C1933 C1941 1.433 . S
C1934 H1930 0.929 . S
C1934 C1936 1.378 . S
C1934 C1938 1.350 . S
C1935 C1938 1.463 . S
C1935 C1940 1.350 . S
C1935 N1943 1.427 . S
C1936 H1927 0.930 . S
C1936 C1934 1.378 . S
C1936 C1937 1.367 . S
C1937 C1936 1.367 . S
C1937 C1939 1.433 . S
C1938 C1934 1.350 . S
C1938 C1935 1.463 . S
C1938 N1942 1.427 . S
C1939 H1929 0.929 . S
C1939 C1937 1.433 . S
C1939 N1942 1.384 . S
C1940 H1931 0.929 . S
C1940 C1932 1.378 . S
C1940 C1935 1.350 . S
C1941 H1928 0.929 . S
C1941 C1933 1.433 . S
C1941 N1943 1.384 . S
N1942 C1938 1.427 . S
N1942 C1939 1.384 . S
N1943 C1935 1.427 . S
N1943 C1941 1.384 . S
H1944 C1950 0.930 . S
H1945 C1954 0.937 . S
H1946 C1959 0.929 . S
H1947 C1957 0.929 1_556 S
H1948 C1952 0.929 . S
H1949 C1958 0.929 . S
C1950 H1944 0.930 . S
C1950 C1951 1.367 . S
C1950 C1958 1.378 . S
C1951 C1950 1.367 . S
C1951 C1959 1.433 1_556 S
C1952 H1948 0.929 . S
C1952 C1954 1.378 . S
C1952 C1956 1.350 . S
C1953 C1956 1.463 . S
C1953 C1958 1.350 1_554 S
C1953 N1961 1.427 . S
C1954 H1945 0.937 . S
C1954 C1952 1.378 . S
C1954 C1955 1.367 . S
C1955 C1954 1.367 . S
C1955 C1957 1.433 . S
C1956 C1952 1.350 . S
C1956 C1953 1.463 . S
C1956 N1960 1.427 1_554 S
C1957 H1947 0.929 1_554 S
C1957 C1955 1.433 . S
C1957 N1960 1.384 1_554 S
C1958 H1949 0.929 . S
C1958 C1950 1.378 . S
C1958 C1953 1.350 1_556 S
C1959 H1946 0.929 . S
C1959 C1951 1.433 1_554 S
C1959 N1961 1.384 . S
N1960 C1956 1.427 1_556 S
N1960 C1957 1.384 1_556 S
N1961 C1953 1.427 . S
N1961 C1959 1.384 . S
H1962 C1968 0.930 . S
H1963 C1972 0.930 1_556 S
H1964 C1977 0.929 . S
H1965 C1975 0.929 . S
H1966 C1970 0.896 1_556 S
H1967 C1976 0.929 . S
C1968 H1962 0.930 . S
C1968 C1969 1.367 . S
C1968 C1976 1.378 . S
C1969 C1968 1.367 . S
C1969 C1977 1.433 1_554 S
C1970 H1966 0.896 1_554 S
C1970 C1972 1.390 . S
C1970 C1974 1.372 . S
C1971 C1974 1.463 . S
C1971 C1976 1.350 . S
C1971 N1979 1.427 1_554 S
C1972 H1963 0.930 1_554 S
C1972 C1970 1.390 . S
C1972 C1973 1.367 . S
C1973 C1972 1.367 . S
C1973 C1975 1.433 . S
C1974 C1970 1.372 . S
C1974 C1971 1.463 . S
C1974 N1978 1.427 . S
C1975 H1965 0.929 . S
C1975 C1973 1.433 . S
C1975 N1978 1.384 . S
C1976 H1967 0.929 . S
C1976 C1968 1.378 . S
C1976 C1971 1.350 . S
C1977 H1964 0.929 . S
C1977 C1969 1.433 1_556 S
C1977 N1979 1.384 . S
N1978 C1974 1.427 . S
N1978 C1975 1.384 . S
N1979 C1971 1.427 1_556 S
N1979 C1977 1.384 . S
H1980 C1986 0.930 . S
H1981 C1990 0.930 . S
H1982 C1995 0.929 . S
H1983 C1993 0.929 . S
H1984 C1988 0.929 . S
H1985 C1994 0.929 . S
C1986 H1980 0.930 . S
C1986 C1987 1.367 . S
C1986 C1994 1.378 . S
C1987 C1986 1.367 . S
C1987 C1995 1.433 . S
C1988 H1984 0.929 . S
C1988 C1990 1.378 . S
C1988 C1992 1.350 . S
C1989 C1992 1.463 . S
C1989 C1994 1.350 . S
C1989 N1997 1.427 . S
C1990 H1981 0.930 . S
C1990 C1988 1.378 . S
C1990 C1991 1.367 . S
C1991 C1990 1.367 . S
C1991 C1993 1.433 . S
C1992 C1988 1.350 . S
C1992 C1989 1.463 . S
C1992 N1996 1.427 . S
C1993 H1983 0.929 . S
C1993 C1991 1.433 . S
C1993 N1996 1.384 . S
C1994 H1985 0.929 . S
C1994 C1986 1.378 . S
C1994 C1989 1.350 . S
C1995 H1982 0.929 . S
C1995 C1987 1.433 . S
C1995 N1997 1.384 . S
N1996 C1992 1.427 . S
N1996 C1993 1.384 . S
N1997 C1989 1.427 . S
N1997 C1995 1.384 . S
H1998 C2004 0.930 . S
H1999 C2008 0.930 . S
H2000 C2013 0.929 . S
H2001 C2011 0.929 . S
H2002 C2006 0.929 . S
H2003 C2012 0.929 . S
C2004 H1998 0.930 . S
C2004 C2005 1.367 . S
C2004 C2012 1.378 . S
C2005 C2004 1.367 . S
C2005 C2013 1.433 . S
C2006 H2002 0.929 . S
C2006 C2008 1.378 . S
C2006 C2010 1.350 . S
C2007 C2010 1.463 . S
C2007 C2012 1.350 . S
C2007 N2015 1.427 . S
C2008 H1999 0.930 . S
C2008 C2006 1.378 . S
C2008 C2009 1.367 . S
C2009 C2008 1.367 . S
C2009 C2011 1.433 . S
C2010 C2006 1.350 . S
C2010 C2007 1.463 . S
C2010 N2014 1.427 . S
C2011 H2001 0.929 . S
C2011 C2009 1.433 . S
C2011 N2014 1.384 . S
C2012 H2003 0.929 . S
C2012 C2004 1.378 . S
C2012 C2007 1.350 . S
C2013 H2000 0.929 . S
C2013 C2005 1.433 . S
C2013 N2015 1.384 . S
N2014 C2010 1.427 . S
N2014 C2011 1.384 . S
N2015 C2007 1.427 . S
N2015 C2013 1.384 . S
H2016 C2022 0.930 . S
H2017 C2026 0.930 . S
H2018 C2031 0.929 . S
H2019 C2029 0.929 . S
H2020 C2024 0.929 . S
H2021 C2030 0.929 . S
C2022 H2016 0.930 . S
C2022 C2023 1.367 . S
C2022 C2030 1.378 . S
C2023 C2022 1.367 . S
C2023 C2031 1.433 . S
C2024 H2020 0.929 . S
C2024 C2026 1.378 . S
C2024 C2028 1.350 . S
C2025 C2028 1.463 . S
C2025 C2030 1.350 . S
C2025 N2033 1.427 . S
C2026 H2017 0.930 . S
C2026 C2024 1.378 . S
C2026 C2027 1.367 . S
C2027 C2026 1.367 . S
C2027 C2029 1.433 . S
C2028 C2024 1.350 . S
C2028 C2025 1.463 . S
C2028 N2032 1.427 . S
C2029 H2019 0.929 . S
C2029 C2027 1.433 . S
C2029 N2032 1.384 . S
C2030 H2021 0.929 . S
C2030 C2022 1.378 . S
C2030 C2025 1.350 . S
C2031 H2018 0.929 . S
C2031 C2023 1.433 . S
C2031 N2033 1.384 . S
N2032 C2028 1.427 . S
N2032 C2029 1.384 . S
N2033 C2025 1.427 . S
N2033 C2031 1.384 . S
H2034 C2040 0.930 . S
H2035 C2044 0.930 . S
H2036 C2049 0.929 . S
H2037 C2047 0.929 . S
H2038 C2042 0.929 . S
H2039 C2048 0.929 . S
C2040 H2034 0.930 . S
C2040 C2041 1.367 . S
C2040 C2048 1.378 . S
C2041 C2040 1.367 . S
C2041 C2049 1.433 . S
C2042 H2038 0.929 . S
C2042 C2044 1.378 . S
C2042 C2046 1.350 . S
C2043 C2046 1.463 . S
C2043 C2048 1.350 . S
C2043 N2051 1.427 . S
C2044 H2035 0.930 . S
C2044 C2042 1.378 . S
C2044 C2045 1.367 . S
C2045 C2044 1.367 . S
C2045 C2047 1.433 . S
C2046 C2042 1.350 . S
C2046 C2043 1.463 . S
C2046 N2050 1.427 . S
C2047 H2037 0.929 . S
C2047 C2045 1.433 . S
C2047 N2050 1.384 . S
C2048 H2039 0.929 . S
C2048 C2040 1.378 . S
C2048 C2043 1.350 . S
C2049 H2036 0.929 . S
C2049 C2041 1.433 . S
C2049 N2051 1.384 . S
N2050 C2046 1.427 . S
N2050 C2047 1.384 . S
N2051 C2043 1.427 . S
N2051 C2049 1.384 . S
H2052 C2058 0.930 . S
H2053 C2062 0.930 . S
H2054 C2067 0.929 . S
H2055 C2065 0.929 . S
H2056 C2060 0.929 . S
H2057 C2066 0.929 . S
C2058 H2052 0.930 . S
C2058 C2059 1.367 . S
C2058 C2066 1.378 . S
C2059 C2058 1.367 . S
C2059 C2067 1.433 . S
C2060 H2056 0.929 . S
C2060 C2062 1.378 . S
C2060 C2064 1.350 . S
C2061 C2064 1.463 . S
C2061 C2066 1.350 . S
C2061 N2069 1.427 . S
C2062 H2053 0.930 . S
C2062 C2060 1.378 . S
C2062 C2063 1.367 . S
C2063 C2062 1.367 . S
C2063 C2065 1.433 . S
C2064 C2060 1.350 . S
C2064 C2061 1.463 . S
C2064 N2068 1.427 . S
C2065 H2055 0.929 . S
C2065 C2063 1.433 . S
C2065 N2068 1.384 . S
C2066 H2057 0.929 . S
C2066 C2058 1.378 . S
C2066 C2061 1.350 . S
C2067 H2054 0.929 . S
C2067 C2059 1.433 . S
C2067 N2069 1.384 . S
N2068 C2064 1.427 . S
N2068 C2065 1.384 . S
N2069 C2061 1.427 . S
N2069 C2067 1.384 . S
H2070 C2076 0.930 . S
H2071 C2080 0.930 . S
H2072 C2085 0.929 . S
H2073 C2083 0.929 . S
H2074 C2078 0.929 . S
H2075 C2084 0.929 . S
C2076 H2070 0.930 . S
C2076 C2077 1.367 . S
C2076 C2084 1.378 . S
C2077 C2076 1.367 . S
C2077 C2085 1.433 . S
C2078 H2074 0.929 . S
C2078 C2080 1.378 . S
C2078 C2082 1.350 . S
C2079 C2082 1.463 . S
C2079 C2084 1.350 . S
C2079 N2087 1.427 . S
C2080 H2071 0.930 . S
C2080 C2078 1.378 . S
C2080 C2081 1.367 . S
C2081 C2080 1.367 . S
C2081 C2083 1.433 . S
C2082 C2078 1.350 . S
C2082 C2079 1.463 . S
C2082 N2086 1.427 . S
C2083 H2073 0.929 . S
C2083 C2081 1.433 . S
C2083 N2086 1.384 . S
C2084 H2075 0.929 . S
C2084 C2076 1.378 . S
C2084 C2079 1.350 . S
C2085 H2072 0.929 . S
C2085 C2077 1.433 . S
C2085 N2087 1.384 . S
N2086 C2082 1.427 . S
N2086 C2083 1.384 . S
N2087 C2079 1.427 . S
N2087 C2085 1.384 . S
H2088 C2094 0.930 . S
H2089 C2098 0.930 . S
H2090 C2103 0.929 . S
H2091 C2101 0.929 . S
H2092 C2096 0.929 . S
H2093 C2102 0.929 . S
C2094 H2088 0.930 . S
C2094 C2095 1.367 . S
C2094 C2102 1.378 . S
C2095 C2094 1.367 . S
C2095 C2103 1.433 . S
C2096 H2092 0.929 . S
C2096 C2098 1.378 . S
C2096 C2100 1.350 . S
C2097 C2100 1.463 . S
C2097 C2102 1.350 . S
C2097 N2105 1.427 . S
C2098 H2089 0.930 . S
C2098 C2096 1.378 . S
C2098 C2099 1.367 . S
C2099 C2098 1.367 . S
C2099 C2101 1.433 . S
C2100 C2096 1.350 . S
C2100 C2097 1.463 . S
C2100 N2104 1.427 . S
C2101 H2091 0.929 . S
C2101 C2099 1.433 . S
C2101 N2104 1.384 . S
C2102 H2093 0.929 . S
C2102 C2094 1.378 . S
C2102 C2097 1.350 . S
C2103 H2090 0.929 . S
C2103 C2095 1.433 . S
C2103 N2105 1.384 . S
N2104 C2100 1.427 . S
N2104 C2101 1.384 . S
N2105 C2097 1.427 . S
N2105 C2103 1.384 . S
H2106 C2112 0.930 . S
H2107 C2116 0.930 . S
H2108 C2121 0.929 . S
H2109 C2119 0.929 . S
H2110 C2114 0.929 . S
H2111 C2120 0.929 . S
C2112 H2106 0.930 . S
C2112 C2113 1.367 . S
C2112 C2120 1.378 . S
C2113 C2112 1.367 . S
C2113 C2121 1.433 . S
C2114 H2110 0.929 . S
C2114 C2116 1.378 . S
C2114 C2118 1.350 . S
C2115 C2118 1.463 . S
C2115 C2120 1.350 . S
C2115 N2123 1.427 . S
C2116 H2107 0.930 . S
C2116 C2114 1.378 . S
C2116 C2117 1.367 . S
C2117 C2116 1.367 . S
C2117 C2119 1.433 . S
C2118 C2114 1.350 . S
C2118 C2115 1.463 . S
C2118 N2122 1.427 . S
C2119 H2109 0.929 . S
C2119 C2117 1.433 . S
C2119 N2122 1.384 . S
C2120 H2111 0.929 . S
C2120 C2112 1.378 . S
C2120 C2115 1.350 . S
C2121 H2108 0.929 . S
C2121 C2113 1.433 . S
C2121 N2123 1.384 . S
N2122 C2118 1.427 . S
N2122 C2119 1.384 . S
N2123 C2115 1.427 . S
N2123 C2121 1.384 . S
H2124 C2130 0.930 . S
H2125 C2134 0.930 . S
H2126 C2139 0.929 . S
H2127 C2137 0.929 . S
H2128 C2132 0.929 . S
H2129 C2138 0.929 . S
C2130 H2124 0.930 . S
C2130 C2131 1.367 . S
C2130 C2138 1.378 . S
C2131 C2130 1.367 . S
C2131 C2139 1.433 . S
C2132 H2128 0.929 . S
C2132 C2134 1.378 . S
C2132 C2136 1.350 . S
C2133 C2136 1.463 . S
C2133 C2138 1.350 . S
C2133 N2141 1.427 . S
C2134 H2125 0.930 . S
C2134 C2132 1.378 . S
C2134 C2135 1.367 . S
C2135 C2134 1.367 . S
C2135 C2137 1.433 . S
C2136 C2132 1.350 . S
C2136 C2133 1.463 . S
C2136 N2140 1.427 . S
C2137 H2127 0.929 . S
C2137 C2135 1.433 . S
C2137 N2140 1.384 . S
C2138 H2129 0.929 . S
C2138 C2130 1.378 . S
C2138 C2133 1.350 . S
C2139 H2126 0.929 . S
C2139 C2131 1.433 . S
C2139 N2141 1.384 . S
N2140 C2136 1.427 . S
N2140 C2137 1.384 . S
N2141 C2133 1.427 . S
N2141 C2139 1.384 . S
H2142 C2148 0.930 . S
H2143 C2152 0.930 . S
H2144 C2157 0.929 . S
H2145 C2155 0.929 . S
H2146 C2150 0.929 . S
H2147 C2156 0.929 . S
C2148 H2142 0.930 . S
C2148 C2149 1.367 . S
C2148 C2156 1.378 . S
C2149 C2148 1.367 . S
C2149 C2157 1.433 . S
C2150 H2146 0.929 . S
C2150 C2152 1.378 . S
C2150 C2154 1.350 . S
C2151 C2154 1.463 . S
C2151 C2156 1.350 . S
C2151 N2159 1.427 . S
C2152 H2143 0.930 . S
C2152 C2150 1.378 . S
C2152 C2153 1.367 . S
C2153 C2152 1.367 . S
C2153 C2155 1.433 . S
C2154 C2150 1.350 . S
C2154 C2151 1.463 . S
C2154 N2158 1.427 . S
C2155 H2145 0.929 . S
C2155 C2153 1.433 . S
C2155 N2158 1.384 . S
C2156 H2147 0.929 . S
C2156 C2148 1.378 . S
C2156 C2151 1.350 . S
C2157 H2144 0.929 . S
C2157 C2149 1.433 . S
C2157 N2159 1.384 . S
N2158 C2154 1.427 . S
N2158 C2155 1.384 . S
N2159 C2151 1.427 . S
N2159 C2157 1.384 . S
H2160 C2166 0.930 . S
H2161 C2170 0.930 . S
H2162 C2175 0.929 . S
H2163 C2173 0.929 . S
H2164 C2168 0.929 . S
H2165 C2174 0.929 . S
C2166 H2160 0.930 . S
C2166 C2167 1.367 . S
C2166 C2174 1.378 . S
C2167 C2166 1.367 . S
C2167 C2175 1.433 . S
C2168 H2164 0.929 . S
C2168 C2170 1.378 . S
C2168 C2172 1.350 . S
C2169 C2172 1.463 . S
C2169 C2174 1.350 . S
C2169 N2177 1.427 . S
C2170 H2161 0.930 . S
C2170 C2168 1.378 . S
C2170 C2171 1.367 . S
C2171 C2170 1.367 . S
C2171 C2173 1.433 . S
C2172 C2168 1.350 . S
C2172 C2169 1.463 . S
C2172 N2176 1.427 . S
C2173 H2163 0.929 . S
C2173 C2171 1.433 . S
C2173 N2176 1.384 . S
C2174 H2165 0.929 . S
C2174 C2166 1.378 . S
C2174 C2169 1.350 . S
C2175 H2162 0.929 . S
C2175 C2167 1.433 . S
C2175 N2177 1.384 . S
N2176 C2172 1.427 . S
N2176 C2173 1.384 . S
N2177 C2169 1.427 . S
N2177 C2175 1.384 . S
H2178 C2184 0.930 . S
H2179 C2188 0.930 . S
H2180 C2193 0.929 . S
H2181 C2191 0.929 . S
H2182 C2186 0.929 . S
H2183 C2192 0.929 . S
C2184 H2178 0.930 . S
C2184 C2185 1.367 . S
C2184 C2192 1.378 . S
C2185 C2184 1.367 . S
C2185 C2193 1.433 . S
C2186 H2182 0.929 . S
C2186 C2188 1.378 . S
C2186 C2190 1.350 . S
C2187 C2190 1.463 . S
C2187 C2192 1.350 . S
C2187 N2195 1.427 . S
C2188 H2179 0.930 . S
C2188 C2186 1.378 . S
C2188 C2189 1.367 . S
C2189 C2188 1.367 . S
C2189 C2191 1.433 . S
C2190 C2186 1.350 . S
C2190 C2187 1.463 . S
C2190 N2194 1.427 . S
C2191 H2181 0.929 . S
C2191 C2189 1.433 . S
C2191 N2194 1.384 . S
C2192 H2183 0.929 . S
C2192 C2184 1.378 . S
C2192 C2187 1.350 . S
C2193 H2180 0.929 . S
C2193 C2185 1.433 . S
C2193 N2195 1.384 . S
N2194 C2190 1.427 . S
N2194 C2191 1.384 . S
N2195 C2187 1.427 . S
N2195 C2193 1.384 . S
H2196 C2202 0.930 . S
H2197 C2206 0.930 . S
H2198 C2211 0.929 . S
H2199 C2209 0.929 1_554 S
H2200 C2204 0.929 . S
H2201 C2210 0.929 . S
C2202 H2196 0.930 . S
C2202 C2203 1.367 . S
C2202 C2210 1.378 . S
C2203 C2202 1.367 . S
C2203 C2211 1.433 . S
C2204 H2200 0.929 . S
C2204 C2206 1.378 . S
C2204 C2208 1.350 . S
C2205 C2208 1.463 . S
C2205 C2210 1.350 . S
C2205 N2213 1.427 . S
C2206 H2197 0.930 . S
C2206 C2204 1.378 . S
C2206 C2207 1.367 . S
C2207 C2206 1.367 . S
C2207 C2209 1.433 . S
C2208 C2204 1.350 . S
C2208 C2205 1.463 . S
C2208 N2212 1.427 . S
C2209 H2199 0.929 1_556 S
C2209 C2207 1.433 . S
C2209 N2212 1.384 . S
C2210 H2201 0.929 . S
C2210 C2202 1.378 . S
C2210 C2205 1.350 . S
C2211 H2198 0.929 . S
C2211 C2203 1.433 . S
C2211 N2213 1.384 . S
N2212 C2208 1.427 . S
N2212 C2209 1.384 . S
N2213 C2205 1.427 . S
N2213 C2211 1.384 . S
H2214 C2220 0.930 . S
H2215 C2224 0.930 . S
H2216 C2229 0.929 . S
H2217 C2227 0.929 . S
H2218 C2222 0.929 . S
H2219 C2228 0.929 . S
C2220 H2214 0.930 . S
C2220 C2221 1.367 . S
C2220 C2228 1.378 . S
C2221 C2220 1.367 . S
C2221 C2229 1.433 . S
C2222 H2218 0.929 . S
C2222 C2224 1.378 . S
C2222 C2226 1.350 . S
C2223 C2226 1.463 . S
C2223 C2228 1.350 . S
C2223 N2231 1.427 . S
C2224 H2215 0.930 . S
C2224 C2222 1.378 . S
C2224 C2225 1.367 . S
C2225 C2224 1.367 . S
C2225 C2227 1.433 . S
C2226 C2222 1.350 . S
C2226 C2223 1.463 . S
C2226 N2230 1.427 . S
C2227 H2217 0.929 . S
C2227 C2225 1.433 . S
C2227 N2230 1.384 . S
C2228 H2219 0.929 . S
C2228 C2220 1.378 . S
C2228 C2223 1.350 . S
C2229 H2216 0.929 . S
C2229 C2221 1.433 . S
C2229 N2231 1.384 . S
N2230 C2226 1.427 . S
N2230 C2227 1.384 . S
N2231 C2223 1.427 . S
N2231 C2229 1.384 . S
H2232 C2238 0.930 . S
H2233 C2242 0.930 . S
H2234 C2247 0.929 . S
H2235 C2245 0.929 1_565 S
H2236 C2240 0.929 . S
H2237 C2246 0.929 . S
C2238 H2232 0.930 . S
C2238 C2239 1.367 . S
C2238 C2246 1.378 . S
C2239 C2238 1.367 . S
C2239 C2247 1.433 . S
C2240 H2236 0.929 . S
C2240 C2242 1.378 . S
C2240 C2244 1.350 . S
C2241 C2244 1.463 . S
C2241 C2246 1.350 . S
C2241 N2249 1.427 . S
C2242 H2233 0.930 . S
C2242 C2240 1.378 . S
C2242 C2243 1.367 . S
C2243 C2242 1.367 . S
C2243 C2245 1.433 . S
C2244 C2240 1.350 . S
C2244 C2241 1.463 . S
C2244 N2248 1.427 . S
C2245 H2235 0.929 1_545 S
C2245 C2243 1.433 . S
C2245 N2248 1.384 . S
C2246 H2237 0.929 . S
C2246 C2238 1.378 . S
C2246 C2241 1.350 . S
C2247 H2234 0.929 . S
C2247 C2239 1.433 . S
C2247 N2249 1.384 . S
N2248 C2244 1.427 . S
N2248 C2245 1.384 . S
N2249 C2241 1.427 . S
N2249 C2247 1.384 . S
H2250 C2256 0.930 . S
H2251 C2260 0.930 . S
H2252 C2265 0.929 . S
H2253 C2263 0.929 . S
H2254 C2258 0.929 . S
H2255 C2264 0.929 . S
C2256 H2250 0.930 . S
C2256 C2257 1.367 . S
C2256 C2264 1.378 . S
C2257 C2256 1.367 . S
C2257 C2265 1.433 . S
C2258 H2254 0.929 . S
C2258 C2260 1.378 . S
C2258 C2262 1.350 . S
C2259 C2262 1.463 . S
C2259 C2264 1.350 . S
C2259 N2267 1.427 . S
C2260 H2251 0.930 . S
C2260 C2258 1.378 . S
C2260 C2261 1.367 . S
C2261 C2260 1.367 . S
C2261 C2263 1.433 . S
C2262 C2258 1.350 . S
C2262 C2259 1.463 . S
C2262 N2266 1.427 . S
C2263 H2253 0.929 . S
C2263 C2261 1.433 . S
C2263 N2266 1.384 . S
C2264 H2255 0.929 . S
C2264 C2256 1.378 . S
C2264 C2259 1.350 . S
C2265 H2252 0.929 . S
C2265 C2257 1.433 . S
C2265 N2267 1.384 . S
N2266 C2262 1.427 . S
N2266 C2263 1.384 . S
N2267 C2259 1.427 . S
N2267 C2265 1.384 . S
H2268 C2274 0.930 . S
H2269 C2278 0.930 . S
H2270 C2283 0.929 . S
H2271 C2281 0.929 . S
H2272 C2276 0.929 1_565 S
H2273 C2282 0.929 . S
C2274 H2268 0.930 . S
C2274 C2275 1.367 . S
C2274 C2282 1.378 . S
C2275 C2274 1.367 . S
C2275 C2283 1.433 1_545 S
C2276 H2272 0.929 1_545 S
C2276 C2278 1.378 . S
C2276 C2280 1.350 . S
C2277 C2280 1.463 . S
C2277 C2282 1.350 . S
C2277 N2285 1.427 . S
C2278 H2269 0.930 . S
C2278 C2276 1.378 . S
C2278 C2279 1.367 . S
C2279 C2278 1.367 . S
C2279 C2281 1.433 . S
C2280 C2276 1.350 . S
C2280 C2277 1.463 . S
C2280 N2284 1.427 . S
C2281 H2271 0.929 . S
C2281 C2279 1.433 . S
C2281 N2284 1.384 . S
C2282 H2273 0.929 . S
C2282 C2274 1.378 . S
C2282 C2277 1.350 . S
C2283 H2270 0.929 . S
C2283 C2275 1.433 1_565 S
C2283 N2285 1.384 1_565 S
N2284 C2280 1.427 . S
N2284 C2281 1.384 . S
N2285 C2277 1.427 . S
N2285 C2283 1.384 1_545 S
H2286 C2292 0.930 . S
H2287 C2296 0.930 . S
H2288 C2301 0.929 . S
H2289 C2299 0.929 . S
H2290 C2294 0.929 . S
H2291 C2300 0.929 . S
C2292 H2286 0.930 . S
C2292 C2293 1.367 . S
C2292 C2300 1.378 . S
C2293 C2292 1.367 . S
C2293 C2301 1.433 . S
C2294 H2290 0.929 . S
C2294 C2296 1.378 . S
C2294 C2298 1.350 . S
C2295 C2298 1.463 . S
C2295 C2300 1.350 . S
C2295 N2303 1.427 . S
C2296 H2287 0.930 . S
C2296 C2294 1.378 . S
C2296 C2297 1.367 . S
C2297 C2296 1.367 . S
C2297 C2299 1.433 . S
C2298 C2294 1.350 . S
C2298 C2295 1.463 . S
C2298 N2302 1.427 . S
C2299 H2289 0.929 . S
C2299 C2297 1.433 . S
C2299 N2302 1.384 . S
C2300 H2291 0.929 . S
C2300 C2292 1.378 . S
C2300 C2295 1.350 . S
C2301 H2288 0.929 . S
C2301 C2293 1.433 . S
C2301 N2303 1.384 . S
N2302 C2298 1.427 . S
N2302 C2299 1.384 . S
N2303 C2295 1.427 . S
N2303 C2301 1.384 . S
H2304 C2310 0.930 . S
H2305 C2314 0.930 . S
H2306 C2319 0.929 . S
H2307 C2317 0.929 . S
H2308 C2312 0.929 . S
H2309 C2318 0.929 . S
C2310 H2304 0.930 . S
C2310 C2311 1.367 . S
C2310 C2318 1.378 . S
C2311 C2310 1.367 . S
C2311 C2319 1.433 . S
C2312 H2308 0.929 . S
C2312 C2314 1.378 . S
C2312 C2316 1.350 . S
C2313 C2316 1.463 . S
C2313 C2318 1.350 . S
C2313 N2321 1.427 . S
C2314 H2305 0.930 . S
C2314 C2312 1.378 . S
C2314 C2315 1.367 . S
C2315 C2314 1.367 . S
C2315 C2317 1.433 . S
C2316 C2312 1.350 . S
C2316 C2313 1.463 . S
C2316 N2320 1.427 . S
C2317 H2307 0.929 . S
C2317 C2315 1.433 . S
C2317 N2320 1.384 . S
C2318 H2309 0.929 . S
C2318 C2310 1.378 . S
C2318 C2313 1.350 . S
C2319 H2306 0.929 . S
C2319 C2311 1.433 . S
C2319 N2321 1.384 . S
N2320 C2316 1.427 . S
N2320 C2317 1.384 . S
N2321 C2313 1.427 . S
N2321 C2319 1.384 . S
H2322 C2328 0.930 . S
H2323 C2332 0.930 . S
H2324 C2337 0.929 . S
H2325 C2335 0.929 . S
H2326 C2330 0.929 . S
H2327 C2336 0.929 . S
C2328 H2322 0.930 . S
C2328 C2329 1.367 . S
C2328 C2336 1.378 . S
C2329 C2328 1.367 . S
C2329 C2337 1.433 . S
C2330 H2326 0.929 . S
C2330 C2332 1.378 . S
C2330 C2334 1.350 . S
C2331 C2334 1.463 . S
C2331 C2336 1.350 . S
C2331 N2339 1.427 . S
C2332 H2323 0.930 . S
C2332 C2330 1.378 . S
C2332 C2333 1.367 . S
C2333 C2332 1.367 . S
C2333 C2335 1.433 . S
C2334 C2330 1.350 . S
C2334 C2331 1.463 . S
C2334 N2338 1.427 . S
C2335 H2325 0.929 . S
C2335 C2333 1.433 . S
C2335 N2338 1.384 . S
C2336 H2327 0.929 . S
C2336 C2328 1.378 . S
C2336 C2331 1.350 . S
C2337 H2324 0.929 . S
C2337 C2329 1.433 . S
C2337 N2339 1.384 . S
N2338 C2334 1.427 . S
N2338 C2335 1.384 . S
N2339 C2331 1.427 . S
N2339 C2337 1.384 . S
H2340 C2346 0.930 . S
H2341 C2350 0.930 . S
H2342 C2355 0.929 . S
H2343 C2353 0.929 . S
H2344 C2348 0.929 . S
H2345 C2354 0.929 . S
C2346 H2340 0.930 . S
C2346 C2347 1.367 1_565 S
C2346 C2354 1.378 . S
C2347 C2346 1.367 1_545 S
C2347 C2355 1.433 . S
C2348 H2344 0.929 . S
C2348 C2350 1.378 . S
C2348 C2352 1.350 . S
C2349 C2352 1.463 . S
C2349 C2354 1.350 1_545 S
C2349 N2357 1.427 . S
C2350 H2341 0.930 . S
C2350 C2348 1.378 . S
C2350 C2351 1.367 . S
C2351 C2350 1.367 . S
C2351 C2353 1.433 1_545 S
C2352 C2348 1.350 . S
C2352 C2349 1.463 . S
C2352 N2356 1.427 1_545 S
C2353 H2343 0.929 . S
C2353 C2351 1.433 1_565 S
C2353 N2356 1.384 . S
C2354 H2345 0.929 . S
C2354 C2346 1.378 . S
C2354 C2349 1.350 1_565 S
C2355 H2342 0.929 . S
C2355 C2347 1.433 . S
C2355 N2357 1.384 . S
N2356 C2352 1.427 1_565 S
N2356 C2353 1.384 . S
N2357 C2349 1.427 . S
N2357 C2355 1.384 . S
H2358 C2364 0.930 . S
H2359 C2368 0.930 . S
H2360 C2373 0.929 . S
H2361 C2371 0.929 . S
H2362 C2366 0.929 . S
H2363 C2372 0.929 . S
C2364 H2358 0.930 . S
C2364 C2365 1.367 . S
C2364 C2372 1.378 . S
C2365 C2364 1.367 . S
C2365 C2373 1.433 . S
C2366 H2362 0.929 . S
C2366 C2368 1.378 . S
C2366 C2370 1.350 . S
C2367 C2370 1.463 . S
C2367 C2372 1.350 . S
C2367 N2375 1.427 . S
C2368 H2359 0.930 . S
C2368 C2366 1.378 . S
C2368 C2369 1.367 . S
C2369 C2368 1.367 . S
C2369 C2371 1.433 . S
C2370 C2366 1.350 . S
C2370 C2367 1.463 . S
C2370 N2374 1.427 . S
C2371 H2361 0.929 . S
C2371 C2369 1.433 . S
C2371 N2374 1.384 . S
C2372 H2363 0.929 . S
C2372 C2364 1.378 . S
C2372 C2367 1.350 . S
C2373 H2360 0.929 . S
C2373 C2365 1.433 . S
C2373 N2375 1.384 . S
N2374 C2370 1.427 . S
N2374 C2371 1.384 . S
N2375 C2367 1.427 . S
N2375 C2373 1.384 . S
H2376 C2382 0.930 . S
H2377 C2386 0.930 . S
H2378 C2391 0.929 . S
H2379 C2389 0.929 . S
H2380 C2384 0.929 . S
H2381 C2390 0.929 . S
C2382 H2376 0.930 . S
C2382 C2383 1.367 . S
C2382 C2390 1.378 . S
C2383 C2382 1.367 . S
C2383 C2391 1.433 . S
C2384 H2380 0.929 . S
C2384 C2386 1.378 . S
C2384 C2388 1.350 . S
C2385 C2388 1.463 . S
C2385 C2390 1.350 . S
C2385 N2393 1.427 . S
C2386 H2377 0.930 . S
C2386 C2384 1.378 . S
C2386 C2387 1.367 . S
C2387 C2386 1.367 . S
C2387 C2389 1.433 . S
C2388 C2384 1.350 . S
C2388 C2385 1.463 . S
C2388 N2392 1.427 . S
C2389 H2379 0.929 . S
C2389 C2387 1.433 . S
C2389 N2392 1.384 . S
C2390 H2381 0.929 . S
C2390 C2382 1.378 . S
C2390 C2385 1.350 . S
C2391 H2378 0.929 . S
C2391 C2383 1.433 . S
C2391 N2393 1.384 . S
N2392 C2388 1.427 . S
N2392 C2389 1.384 . S
N2393 C2385 1.427 . S
N2393 C2391 1.384 . S
H2394 C2400 0.930 . S
H2395 C2404 0.930 . S
H2396 C2409 0.929 . S
H2397 C2407 0.929 . S
H2398 C2402 0.929 . S
H2399 C2408 0.929 . S
C2400 H2394 0.930 . S
C2400 C2401 1.367 . S
C2400 C2408 1.378 . S
C2401 C2400 1.367 . S
C2401 C2409 1.433 . S
C2402 H2398 0.929 . S
C2402 C2404 1.378 . S
C2402 C2406 1.350 . S
C2403 C2406 1.463 . S
C2403 C2408 1.350 . S
C2403 N2411 1.427 . S
C2404 H2395 0.930 . S
C2404 C2402 1.378 . S
C2404 C2405 1.367 . S
C2405 C2404 1.367 . S
C2405 C2407 1.433 . S
C2406 C2402 1.350 . S
C2406 C2403 1.463 . S
C2406 N2410 1.427 . S
C2407 H2397 0.929 . S
C2407 C2405 1.433 . S
C2407 N2410 1.384 . S
C2408 H2399 0.929 . S
C2408 C2400 1.378 . S
C2408 C2403 1.350 . S
C2409 H2396 0.929 . S
C2409 C2401 1.433 . S
C2409 N2411 1.384 . S
N2410 C2406 1.427 . S
N2410 C2407 1.384 . S
N2411 C2403 1.427 . S
N2411 C2409 1.384 . S
H2412 C2418 0.930 . S
H2413 C2422 0.930 . S
H2414 C2427 0.929 . S
H2415 C2425 0.929 . S
H2416 C2420 0.929 . S
H2417 C2426 0.929 . S
C2418 H2412 0.930 . S
C2418 C2419 1.367 . S
C2418 C2426 1.378 . S
C2419 C2418 1.367 . S
C2419 C2427 1.433 . S
C2420 H2416 0.929 . S
C2420 C2422 1.378 . S
C2420 C2424 1.350 . S
C2421 C2424 1.463 . S
C2421 C2426 1.350 . S
C2421 N2429 1.427 . S
C2422 H2413 0.930 . S
C2422 C2420 1.378 . S
C2422 C2423 1.367 . S
C2423 C2422 1.367 . S
C2423 C2425 1.433 . S
C2424 C2420 1.350 . S
C2424 C2421 1.463 . S
C2424 N2428 1.427 . S
C2425 H2415 0.929 . S
C2425 C2423 1.433 . S
C2425 N2428 1.384 . S
C2426 H2417 0.929 . S
C2426 C2418 1.378 . S
C2426 C2421 1.350 . S
C2427 H2414 0.929 . S
C2427 C2419 1.433 . S
C2427 N2429 1.384 . S
N2428 C2424 1.427 . S
N2428 C2425 1.384 . S
N2429 C2421 1.427 . S
N2429 C2427 1.384 . S
H2430 C2436 0.930 . S
H2431 C2440 0.930 . S
H2432 C2445 0.929 . S
H2433 C2443 0.929 . S
H2434 C2438 0.929 . S
H2435 C2444 0.929 . S
C2436 H2430 0.930 . S
C2436 C2437 1.367 . S
C2436 C2444 1.378 . S
C2437 C2436 1.367 . S
C2437 C2445 1.433 . S
C2438 H2434 0.929 . S
C2438 C2440 1.378 . S
C2438 C2442 1.350 . S
C2439 C2442 1.463 . S
C2439 C2444 1.350 . S
C2439 N2447 1.427 . S
C2440 H2431 0.930 . S
C2440 C2438 1.378 . S
C2440 C2441 1.367 . S
C2441 C2440 1.367 . S
C2441 C2443 1.433 . S
C2442 C2438 1.350 . S
C2442 C2439 1.463 . S
C2442 N2446 1.427 . S
C2443 H2433 0.929 . S
C2443 C2441 1.433 . S
C2443 N2446 1.384 . S
C2444 H2435 0.929 . S
C2444 C2436 1.378 . S
C2444 C2439 1.350 . S
C2445 H2432 0.929 . S
C2445 C2437 1.433 . S
C2445 N2447 1.384 . S
N2446 C2442 1.427 . S
N2446 C2443 1.384 . S
N2447 C2439 1.427 . S
N2447 C2445 1.384 . S
H2448 C2454 0.930 . S
H2449 C2458 0.930 . S
H2450 C2463 0.961 . S
H2451 C2461 0.929 . S
H2452 C2456 0.929 . S
H2453 C2462 0.929 . S
C2454 H2448 0.930 . S
C2454 C2455 1.367 1_565 S
C2454 C2462 1.378 . S
C2455 C2454 1.367 1_545 S
C2455 C2463 1.446 . S
C2456 H2452 0.929 . S
C2456 C2458 1.378 . S
C2456 C2460 1.350 . S
C2457 C2460 1.463 . S
C2457 C2462 1.350 . S
C2457 N2465 1.427 . S
C2458 H2449 0.930 . S
C2458 C2456 1.378 . S
C2458 C2459 1.367 . S
C2459 C2458 1.367 . S
C2459 C2461 1.433 . S
C2460 C2456 1.350 . S
C2460 C2457 1.463 . S
C2460 N2464 1.427 . S
C2461 H2451 0.929 . S
C2461 C2459 1.433 . S
C2461 N2464 1.384 . S
C2462 H2453 0.929 . S
C2462 C2454 1.378 . S
C2462 C2457 1.350 . S
C2463 H2450 0.961 . S
C2463 C2455 1.446 . S
C2463 N2465 1.340 1_545 S
N2464 C2460 1.427 . S
N2464 C2461 1.384 . S
N2465 C2457 1.427 . S
N2465 C2463 1.340 1_565 S
H2466 C2472 0.930 . S
H2467 C2476 0.930 . S
H2468 C2481 0.929 . S
H2469 C2479 0.929 . S
H2470 C2474 0.929 . S
H2471 C2480 0.929 . S
C2472 H2466 0.930 . S
C2472 C2473 1.367 . S
C2472 C2480 1.378 . S
C2473 C2472 1.367 . S
C2473 C2481 1.433 . S
C2474 H2470 0.929 . S
C2474 C2476 1.378 . S
C2474 C2478 1.350 . S
C2475 C2478 1.463 . S
C2475 C2480 1.350 . S
C2475 N2483 1.427 . S
C2476 H2467 0.930 . S
C2476 C2474 1.378 . S
C2476 C2477 1.367 . S
C2477 C2476 1.367 . S
C2477 C2479 1.433 . S
C2478 C2474 1.350 . S
C2478 C2475 1.463 . S
C2478 N2482 1.427 . S
C2479 H2469 0.929 . S
C2479 C2477 1.433 . S
C2479 N2482 1.384 . S
C2480 H2471 0.929 . S
C2480 C2472 1.378 . S
C2480 C2475 1.350 . S
C2481 H2468 0.929 . S
C2481 C2473 1.433 . S
C2481 N2483 1.384 . S
N2482 C2478 1.427 . S
N2482 C2479 1.384 . S
N2483 C2475 1.427 . S
N2483 C2481 1.384 . S
H2484 C2490 0.930 . S
H2485 C2494 0.930 . S
H2486 C2499 0.929 . S
H2487 C2497 0.929 . S
H2488 C2492 0.929 . S
H2489 C2498 0.929 . S
C2490 H2484 0.930 . S
C2490 C2491 1.367 . S
C2490 C2498 1.378 . S
C2491 C2490 1.367 . S
C2491 C2499 1.433 . S
C2492 H2488 0.929 . S
C2492 C2494 1.378 . S
C2492 C2496 1.350 . S
C2493 C2496 1.463 . S
C2493 C2498 1.350 . S
C2493 N2501 1.427 . S
C2494 H2485 0.930 . S
C2494 C2492 1.378 . S
C2494 C2495 1.367 . S
C2495 C2494 1.367 . S
C2495 C2497 1.433 . S
C2496 C2492 1.350 . S
C2496 C2493 1.463 . S
C2496 N2500 1.427 . S
C2497 H2487 0.929 . S
C2497 C2495 1.433 . S
C2497 N2500 1.384 . S
C2498 H2489 0.929 . S
C2498 C2490 1.378 . S
C2498 C2493 1.350 . S
C2499 H2486 0.929 . S
C2499 C2491 1.433 . S
C2499 N2501 1.384 . S
N2500 C2496 1.427 . S
N2500 C2497 1.384 . S
N2501 C2493 1.427 . S
N2501 C2499 1.384 . S
H2502 C2508 0.930 . S
H2503 C2512 0.930 . S
H2504 C2517 0.929 . S
H2505 C2515 0.929 . S
H2506 C2510 0.929 . S
H2507 C2516 0.929 . S
C2508 H2502 0.930 . S
C2508 C2509 1.367 . S
C2508 C2516 1.378 . S
C2509 C2508 1.367 . S
C2509 C2517 1.433 . S
C2510 H2506 0.929 . S
C2510 C2512 1.378 . S
C2510 C2514 1.350 . S
C2511 C2514 1.463 . S
C2511 C2516 1.350 . S
C2511 N2519 1.427 . S
C2512 H2503 0.930 . S
C2512 C2510 1.378 . S
C2512 C2513 1.367 . S
C2513 C2512 1.367 . S
C2513 C2515 1.433 . S
C2514 C2510 1.350 . S
C2514 C2511 1.463 . S
C2514 N2518 1.427 . S
C2515 H2505 0.929 . S
C2515 C2513 1.433 . S
C2515 N2518 1.384 . S
C2516 H2507 0.929 . S
C2516 C2508 1.378 . S
C2516 C2511 1.350 . S
C2517 H2504 0.929 . S
C2517 C2509 1.433 . S
C2517 N2519 1.384 . S
N2518 C2514 1.427 . S
N2518 C2515 1.384 . S
N2519 C2511 1.427 . S
N2519 C2517 1.384 . S
H2520 C2526 0.930 . S
H2521 C2530 0.930 . S
H2522 C2535 0.929 . S
H2523 C2533 0.929 . S
H2524 C2528 0.929 . S
H2525 C2534 0.929 . S
C2526 H2520 0.930 . S
C2526 C2527 1.367 . S
C2526 C2534 1.378 . S
C2527 C2526 1.367 . S
C2527 C2535 1.433 . S
C2528 H2524 0.929 . S
C2528 C2530 1.378 . S
C2528 C2532 1.350 . S
C2529 C2532 1.463 . S
C2529 C2534 1.350 . S
C2529 N2537 1.427 . S
C2530 H2521 0.930 . S
C2530 C2528 1.378 . S
C2530 C2531 1.367 . S
C2531 C2530 1.367 . S
C2531 C2533 1.433 . S
C2532 C2528 1.350 . S
C2532 C2529 1.463 . S
C2532 N2536 1.427 . S
C2533 H2523 0.929 . S
C2533 C2531 1.433 . S
C2533 N2536 1.384 . S
C2534 H2525 0.929 . S
C2534 C2526 1.378 . S
C2534 C2529 1.350 . S
C2535 H2522 0.929 . S
C2535 C2527 1.433 . S
C2535 N2537 1.384 . S
N2536 C2532 1.427 . S
N2536 C2533 1.384 . S
N2537 C2529 1.427 . S
N2537 C2535 1.384 . S
H2538 C2544 0.930 . S
H2539 C2548 0.930 . S
H2540 C2553 0.929 . S
H2541 C2551 0.929 . S
H2542 C2546 0.929 . S
H2543 C2552 0.929 . S
C2544 H2538 0.930 . S
C2544 C2545 1.367 . S
C2544 C2552 1.378 . S
C2545 C2544 1.367 . S
C2545 C2553 1.433 . S
C2546 H2542 0.929 . S
C2546 C2548 1.378 . S
C2546 C2550 1.350 . S
C2547 C2550 1.463 . S
C2547 C2552 1.350 . S
C2547 N2555 1.427 . S
C2548 H2539 0.930 . S
C2548 C2546 1.378 . S
C2548 C2549 1.367 . S
C2549 C2548 1.367 . S
C2549 C2551 1.433 . S
C2550 C2546 1.350 . S
C2550 C2547 1.463 . S
C2550 N2554 1.427 . S
C2551 H2541 0.929 . S
C2551 C2549 1.433 . S
C2551 N2554 1.384 . S
C2552 H2543 0.929 . S
C2552 C2544 1.378 . S
C2552 C2547 1.350 . S
C2553 H2540 0.929 . S
C2553 C2545 1.433 . S
C2553 N2555 1.384 . S
N2554 C2550 1.427 . S
N2554 C2551 1.384 . S
N2555 C2547 1.427 . S
N2555 C2553 1.384 . S
H2556 C2562 0.930 . S
H2557 C2566 0.930 1_655 S
H2558 C2571 0.929 . S
H2559 C2569 0.929 . S
H2560 C2564 0.929 1_655 S
H2561 C2570 0.929 . S
C2562 H2556 0.930 . S
C2562 C2563 1.367 1_554 S
C2562 C2570 1.378 . S
C2563 C2562 1.367 1_556 S
C2563 C2571 1.433 1_455 S
C2564 H2560 0.929 1_455 S
C2564 C2566 1.378 . S
C2564 C2568 1.350 1_556 S
C2565 C2568 1.463 1_556 S
C2565 C2570 1.350 1_556 S
C2565 N2573 1.427 1_455 S
C2566 H2557 0.930 1_455 S
C2566 C2564 1.378 . S
C2566 C2567 1.367 1_556 S
C2567 C2566 1.367 1_554 S
C2567 C2569 1.433 . S
C2568 C2564 1.350 1_554 S
C2568 C2565 1.463 1_554 S
C2568 N2572 1.427 . S
C2569 H2559 0.929 . S
C2569 C2567 1.433 . S
C2569 N2572 1.384 . S
C2570 H2561 0.929 . S
C2570 C2562 1.378 . S
C2570 C2565 1.350 1_554 S
C2571 H2558 0.929 . S
C2571 C2563 1.433 1_655 S
C2571 N2573 1.384 . S
N2572 C2568 1.427 . S
N2572 C2569 1.384 . S
N2573 C2565 1.427 1_655 S
N2573 C2571 1.384 . S
H2574 C2580 0.930 . S
H2575 C2584 0.930 . S
H2576 C2589 0.929 1_455 S
H2577 C2587 0.929 . S
H2578 C2582 0.929 . S
H2579 C2588 0.929 . S
C2580 H2574 0.930 . S
C2580 C2581 1.367 . S
C2580 C2588 1.378 . S
C2581 C2580 1.367 . S
C2581 C2589 1.433 . S
C2582 H2578 0.929 . S
C2582 C2584 1.378 . S
C2582 C2586 1.350 . S
C2583 C2586 1.463 . S
C2583 C2588 1.350 . S
C2583 N2591 1.427 . S
C2584 H2575 0.930 . S
C2584 C2582 1.378 . S
C2584 C2585 1.367 . S
C2585 C2584 1.367 . S
C2585 C2587 1.433 . S
C2586 C2582 1.350 . S
C2586 C2583 1.463 . S
C2586 N2590 1.427 . S
C2587 H2577 0.929 . S
C2587 C2585 1.433 . S
C2587 N2590 1.384 . S
C2588 H2579 0.929 . S
C2588 C2580 1.378 . S
C2588 C2583 1.350 . S
C2589 H2576 0.929 1_655 S
C2589 C2581 1.433 . S
C2589 N2591 1.384 . S
N2590 C2586 1.427 . S
N2590 C2587 1.384 . S
N2591 C2583 1.427 . S
N2591 C2589 1.384 . S
H2592 C2598 0.930 . S
H2593 C2602 0.930 . S
H2594 C2607 0.929 . S
H2595 C2605 0.929 . S
H2596 C2600 0.929 . S
H2597 C2606 0.929 . S
C2598 H2592 0.930 . S
C2598 C2599 1.367 . S
C2598 C2606 1.378 . S
C2599 C2598 1.367 . S
C2599 C2607 1.433 . S
C2600 H2596 0.929 . S
C2600 C2602 1.378 . S
C2600 C2604 1.350 . S
C2601 C2604 1.463 . S
C2601 C2606 1.350 . S
C2601 N2609 1.427 . S
C2602 H2593 0.930 . S
C2602 C2600 1.378 . S
C2602 C2603 1.367 . S
C2603 C2602 1.367 . S
C2603 C2605 1.433 . S
C2604 C2600 1.350 . S
C2604 C2601 1.463 . S
C2604 N2608 1.427 . S
C2605 H2595 0.929 . S
C2605 C2603 1.433 . S
C2605 N2608 1.384 . S
C2606 H2597 0.929 . S
C2606 C2598 1.378 . S
C2606 C2601 1.350 . S
C2607 H2594 0.929 . S
C2607 C2599 1.433 . S
C2607 N2609 1.384 . S
N2608 C2604 1.427 . S
N2608 C2605 1.384 . S
N2609 C2601 1.427 . S
N2609 C2607 1.384 . S
H2610 C2616 0.930 . S
H2611 C2620 0.930 . S
H2612 C2625 0.929 . S
H2613 C2623 0.929 . S
H2614 C2618 0.929 . S
H2615 C2624 0.929 . S
C2616 H2610 0.930 . S
C2616 C2617 1.367 . S
C2616 C2624 1.378 . S
C2617 C2616 1.367 . S
C2617 C2625 1.433 . S
C2618 H2614 0.929 . S
C2618 C2620 1.378 . S
C2618 C2622 1.350 . S
C2619 C2622 1.463 . S
C2619 C2624 1.350 . S
C2619 N2627 1.427 . S
C2620 H2611 0.930 . S
C2620 C2618 1.378 . S
C2620 C2621 1.367 . S
C2621 C2620 1.367 . S
C2621 C2623 1.433 . S
C2622 C2618 1.350 . S
C2622 C2619 1.463 . S
C2622 N2626 1.427 . S
C2623 H2613 0.929 . S
C2623 C2621 1.433 . S
C2623 N2626 1.384 . S
C2624 H2615 0.929 . S
C2624 C2616 1.378 . S
C2624 C2619 1.350 . S
C2625 H2612 0.929 . S
C2625 C2617 1.433 . S
C2625 N2627 1.384 . S
N2626 C2622 1.427 . S
N2626 C2623 1.384 . S
N2627 C2619 1.427 . S
N2627 C2625 1.384 . S
H2628 C2634 0.930 . S
H2629 C2638 0.930 . S
H2630 C2643 0.929 1_655 S
H2631 C2641 0.929 . S
H2632 C2636 0.929 . S
H2633 C2642 0.929 . S
C2634 H2628 0.930 . S
C2634 C2635 1.367 . S
C2634 C2642 1.378 . S
C2635 C2634 1.367 . S
C2635 C2643 1.433 . S
C2636 H2632 0.929 . S
C2636 C2638 1.378 . S
C2636 C2640 1.350 . S
C2637 C2640 1.463 . S
C2637 C2642 1.350 . S
C2637 N2645 1.427 . S
C2638 H2629 0.930 . S
C2638 C2636 1.378 . S
C2638 C2639 1.367 . S
C2639 C2638 1.367 . S
C2639 C2641 1.433 . S
C2640 C2636 1.350 . S
C2640 C2637 1.463 . S
C2640 N2644 1.427 . S
C2641 H2631 0.929 . S
C2641 C2639 1.433 . S
C2641 N2644 1.384 . S
C2642 H2633 0.929 . S
C2642 C2634 1.378 . S
C2642 C2637 1.350 . S
C2643 H2630 0.929 1_455 S
C2643 C2635 1.433 . S
C2643 N2645 1.384 . S
N2644 C2640 1.427 . S
N2644 C2641 1.384 . S
N2645 C2637 1.427 . S
N2645 C2643 1.384 . S
H2646 C2652 0.930 . S
H2647 C2656 0.930 . S
H2648 C2661 0.929 . S
H2649 C2659 0.929 . S
H2650 C2654 0.929 . S
H2651 C2660 0.929 . S
C2652 H2646 0.930 . S
C2652 C2653 1.367 . S
C2652 C2660 1.378 . S
C2653 C2652 1.367 . S
C2653 C2661 1.433 . S
C2654 H2650 0.929 . S
C2654 C2656 1.378 . S
C2654 C2658 1.350 . S
C2655 C2658 1.463 . S
C2655 C2660 1.350 . S
C2655 N2663 1.427 . S
C2656 H2647 0.930 . S
C2656 C2654 1.378 . S
C2656 C2657 1.367 . S
C2657 C2656 1.367 . S
C2657 C2659 1.433 . S
C2658 C2654 1.350 . S
C2658 C2655 1.463 . S
C2658 N2662 1.427 . S
C2659 H2649 0.929 . S
C2659 C2657 1.433 . S
C2659 N2662 1.384 . S
C2660 H2651 0.929 . S
C2660 C2652 1.378 . S
C2660 C2655 1.350 . S
C2661 H2648 0.929 . S
C2661 C2653 1.433 . S
C2661 N2663 1.384 . S
N2662 C2658 1.427 . S
N2662 C2659 1.384 . S
N2663 C2655 1.427 . S
N2663 C2661 1.384 . S
H2664 C2670 0.930 . S
H2665 C2674 0.930 . S
H2666 C2679 0.929 . S
H2667 C2677 0.929 . S
H2668 C2672 0.929 . S
H2669 C2678 0.929 . S
C2670 H2664 0.930 . S
C2670 C2671 1.367 . S
C2670 C2678 1.378 . S
C2671 C2670 1.367 . S
C2671 C2679 1.433 . S
C2672 H2668 0.929 . S
C2672 C2674 1.378 . S
C2672 C2676 1.350 . S
C2673 C2676 1.463 . S
C2673 C2678 1.350 . S
C2673 N2681 1.427 . S
C2674 H2665 0.930 . S
C2674 C2672 1.378 . S
C2674 C2675 1.367 . S
C2675 C2674 1.367 . S
C2675 C2677 1.433 . S
C2676 C2672 1.350 . S
C2676 C2673 1.463 . S
C2676 N2680 1.427 . S
C2677 H2667 0.929 . S
C2677 C2675 1.433 . S
C2677 N2680 1.384 . S
C2678 H2669 0.929 . S
C2678 C2670 1.378 . S
C2678 C2673 1.350 . S
C2679 H2666 0.929 . S
C2679 C2671 1.433 . S
C2679 N2681 1.384 . S
N2680 C2676 1.427 . S
N2680 C2677 1.384 . S
N2681 C2673 1.427 . S
N2681 C2679 1.384 . S
H2682 C2688 0.930 . S
H2683 C2692 0.930 . S
H2684 C2697 0.929 . S
H2685 C2695 0.929 . S
H2686 C2690 0.929 . S
H2687 C2696 0.929 . S
C2688 H2682 0.930 . S
C2688 C2689 1.367 1_556 S
C2688 C2696 1.378 . S
C2689 C2688 1.367 1_554 S
C2689 C2697 1.433 . S
C2690 H2686 0.929 . S
C2690 C2692 1.378 . S
C2690 C2694 1.350 . S
C2691 C2694 1.463 . S
C2691 C2696 1.350 . S
C2691 N2699 1.427 . S
C2692 H2683 0.930 . S
C2692 C2690 1.378 . S
C2692 C2693 1.367 . S
C2693 C2692 1.367 . S
C2693 C2695 1.433 . S
C2694 C2690 1.350 . S
C2694 C2691 1.463 . S
C2694 N2698 1.427 . S
C2695 H2685 0.929 . S
C2695 C2693 1.433 . S
C2695 N2698 1.384 . S
C2696 H2687 0.929 . S
C2696 C2688 1.378 . S
C2696 C2691 1.350 . S
C2697 H2684 0.929 . S
C2697 C2689 1.433 . S
C2697 N2699 1.384 1_554 S
N2698 C2694 1.427 . S
N2698 C2695 1.384 . S
N2699 C2691 1.427 . S
N2699 C2697 1.384 1_556 S
H2700 C2706 0.930 . S
H2701 C2710 0.930 . S
H2702 C2715 0.929 . S
H2703 C2713 0.929 . S
H2704 C2708 0.929 . S
H2705 C2714 0.929 . S
C2706 H2700 0.930 . S
C2706 C2707 1.367 . S
C2706 C2714 1.378 . S
C2707 C2706 1.367 . S
C2707 C2715 1.433 . S
C2708 H2704 0.929 . S
C2708 C2710 1.378 . S
C2708 C2712 1.350 . S
C2709 C2712 1.463 . S
C2709 C2714 1.350 . S
C2709 N2717 1.427 . S
C2710 H2701 0.930 . S
C2710 C2708 1.378 . S
C2710 C2711 1.367 . S
C2711 C2710 1.367 . S
C2711 C2713 1.433 . S
C2712 C2708 1.350 . S
C2712 C2709 1.463 . S
C2712 N2716 1.427 . S
C2713 H2703 0.929 . S
C2713 C2711 1.433 . S
C2713 N2716 1.384 . S
C2714 H2705 0.929 . S
C2714 C2706 1.378 . S
C2714 C2709 1.350 . S
C2715 H2702 0.929 . S
C2715 C2707 1.433 . S
C2715 N2717 1.384 . S
N2716 C2712 1.427 . S
N2716 C2713 1.384 . S
N2717 C2709 1.427 . S
N2717 C2715 1.384 . S
H2718 C2724 0.930 . S
H2719 C2728 0.930 . S
H2720 C2733 0.929 . S
H2721 C2731 0.929 . S
H2722 C2726 0.929 . S
H2723 C2732 0.929 . S
C2724 H2718 0.930 . S
C2724 C2725 1.367 . S
C2724 C2732 1.378 . S
C2725 C2724 1.367 . S
C2725 C2733 1.433 . S
C2726 H2722 0.929 . S
C2726 C2728 1.378 . S
C2726 C2730 1.350 . S
C2727 C2730 1.463 . S
C2727 C2732 1.350 . S
C2727 N2735 1.427 . S
C2728 H2719 0.930 . S
C2728 C2726 1.378 . S
C2728 C2729 1.367 . S
C2729 C2728 1.367 . S
C2729 C2731 1.433 . S
C2730 C2726 1.350 . S
C2730 C2727 1.463 . S
C2730 N2734 1.427 . S
C2731 H2721 0.929 . S
C2731 C2729 1.433 . S
C2731 N2734 1.384 . S
C2732 H2723 0.929 . S
C2732 C2724 1.378 . S
C2732 C2727 1.350 . S
C2733 H2720 0.929 . S
C2733 C2725 1.433 . S
C2733 N2735 1.384 . S
N2734 C2730 1.427 . S
N2734 C2731 1.384 . S
N2735 C2727 1.427 . S
N2735 C2733 1.384 . S
H2736 C2742 0.930 . S
H2737 C2746 0.930 . S
H2738 C2751 0.929 . S
H2739 C2749 0.929 . S
H2740 C2744 0.929 . S
H2741 C2750 0.929 . S
C2742 H2736 0.930 . S
C2742 C2743 1.367 . S
C2742 C2750 1.378 . S
C2743 C2742 1.367 . S
C2743 C2751 1.433 . S
C2744 H2740 0.929 . S
C2744 C2746 1.378 . S
C2744 C2748 1.350 . S
C2745 C2748 1.463 . S
C2745 C2750 1.350 . S
C2745 N2753 1.427 . S
C2746 H2737 0.930 . S
C2746 C2744 1.378 . S
C2746 C2747 1.367 . S
C2747 C2746 1.367 . S
C2747 C2749 1.433 . S
C2748 C2744 1.350 . S
C2748 C2745 1.463 . S
C2748 N2752 1.427 . S
C2749 H2739 0.929 . S
C2749 C2747 1.433 . S
C2749 N2752 1.384 . S
C2750 H2741 0.929 . S
C2750 C2742 1.378 . S
C2750 C2745 1.350 . S
C2751 H2738 0.929 . S
C2751 C2743 1.433 . S
C2751 N2753 1.384 . S
N2752 C2748 1.427 . S
N2752 C2749 1.384 . S
N2753 C2745 1.427 . S
N2753 C2751 1.384 . S
H2754 C2760 0.930 . S
H2755 C2764 0.930 . S
H2756 C2769 0.929 . S
H2757 C2767 0.929 . S
H2758 C2762 0.929 . S
H2759 C2768 0.929 . S
C2760 H2754 0.930 . S
C2760 C2761 1.367 . S
C2760 C2768 1.378 . S
C2761 C2760 1.367 . S
C2761 C2769 1.433 . S
C2762 H2758 0.929 . S
C2762 C2764 1.378 . S
C2762 C2766 1.350 . S
C2763 C2766 1.463 . S
C2763 C2768 1.350 . S
C2763 N2771 1.427 . S
C2764 H2755 0.930 . S
C2764 C2762 1.378 . S
C2764 C2765 1.367 . S
C2765 C2764 1.367 . S
C2765 C2767 1.433 . S
C2766 C2762 1.350 . S
C2766 C2763 1.463 . S
C2766 N2770 1.427 . S
C2767 H2757 0.929 . S
C2767 C2765 1.433 . S
C2767 N2770 1.384 . S
C2768 H2759 0.929 . S
C2768 C2760 1.378 . S
C2768 C2763 1.350 . S
C2769 H2756 0.929 . S
C2769 C2761 1.433 . S
C2769 N2771 1.384 . S
N2770 C2766 1.427 . S
N2770 C2767 1.384 . S
N2771 C2763 1.427 . S
N2771 C2769 1.384 . S
H2772 C2778 0.930 . S
H2773 C2782 0.930 . S
H2774 C2787 0.929 . S
H2775 C2785 0.929 . S
H2776 C2780 0.929 . S
H2777 C2786 0.929 . S
C2778 H2772 0.930 . S
C2778 C2779 1.367 . S
C2778 C2786 1.378 . S
C2779 C2778 1.367 . S
C2779 C2787 1.433 . S
C2780 H2776 0.929 . S
C2780 C2782 1.378 . S
C2780 C2784 1.350 . S
C2781 C2784 1.463 . S
C2781 C2786 1.350 . S
C2781 N2789 1.427 . S
C2782 H2773 0.930 . S
C2782 C2780 1.378 . S
C2782 C2783 1.367 . S
C2783 C2782 1.367 . S
C2783 C2785 1.433 . S
C2784 C2780 1.350 . S
C2784 C2781 1.463 . S
C2784 N2788 1.427 . S
C2785 H2775 0.929 . S
C2785 C2783 1.433 . S
C2785 N2788 1.384 . S
C2786 H2777 0.929 . S
C2786 C2778 1.378 . S
C2786 C2781 1.350 . S
C2787 H2774 0.929 . S
C2787 C2779 1.433 . S
C2787 N2789 1.384 . S
N2788 C2784 1.427 . S
N2788 C2785 1.384 . S
N2789 C2781 1.427 . S
N2789 C2787 1.384 . S
H2790 C2796 0.930 . S
H2791 C2800 0.930 . S
H2792 C2805 0.929 . S
H2793 C2803 0.929 . S
H2794 C2798 0.929 . S
H2795 C2804 0.929 . S
C2796 H2790 0.930 . S
C2796 C2797 1.367 . S
C2796 C2804 1.378 . S
C2797 C2796 1.367 . S
C2797 C2805 1.433 . S
C2798 H2794 0.929 . S
C2798 C2800 1.378 . S
C2798 C2802 1.350 . S
C2799 C2802 1.463 . S
C2799 C2804 1.350 . S
C2799 N2807 1.427 . S
C2800 H2791 0.930 . S
C2800 C2798 1.378 . S
C2800 C2801 1.367 . S
C2801 C2800 1.367 . S
C2801 C2803 1.433 . S
C2802 C2798 1.350 . S
C2802 C2799 1.463 . S
C2802 N2806 1.427 . S
C2803 H2793 0.929 . S
C2803 C2801 1.433 . S
C2803 N2806 1.384 . S
C2804 H2795 0.929 . S
C2804 C2796 1.378 . S
C2804 C2799 1.350 . S
C2805 H2792 0.929 . S
C2805 C2797 1.433 . S
C2805 N2807 1.384 . S
N2806 C2802 1.427 . S
N2806 C2803 1.384 . S
N2807 C2799 1.427 . S
N2807 C2805 1.384 . S
H2808 C2814 0.930 . S
H2809 C2818 0.930 . S
H2810 C2823 0.929 . S
H2811 C2821 0.929 . S
H2812 C2816 0.929 . S
H2813 C2822 0.929 . S
C2814 H2808 0.930 . S
C2814 C2815 1.367 . S
C2814 C2822 1.378 . S
C2815 C2814 1.367 . S
C2815 C2823 1.433 . S
C2816 H2812 0.929 . S
C2816 C2818 1.378 . S
C2816 C2820 1.350 . S
C2817 C2820 1.463 . S
C2817 C2822 1.350 . S
C2817 N2825 1.427 . S
C2818 H2809 0.930 . S
C2818 C2816 1.378 . S
C2818 C2819 1.367 . S
C2819 C2818 1.367 . S
C2819 C2821 1.433 . S
C2820 C2816 1.350 . S
C2820 C2817 1.463 . S
C2820 N2824 1.427 . S
C2821 H2811 0.929 . S
C2821 C2819 1.433 . S
C2821 N2824 1.384 . S
C2822 H2813 0.929 . S
C2822 C2814 1.378 . S
C2822 C2817 1.350 . S
C2823 H2810 0.929 . S
C2823 C2815 1.433 . S
C2823 N2825 1.384 . S
N2824 C2820 1.427 . S
N2824 C2821 1.384 . S
N2825 C2817 1.427 . S
N2825 C2823 1.384 . S
H2826 C2832 0.930 . S
H2827 C2836 0.930 . S
H2828 C2841 0.929 . S
H2829 C2839 0.929 . S
H2830 C2834 0.929 . S
H2831 C2840 0.929 . S
C2832 H2826 0.930 . S
C2832 C2833 1.367 . S
C2832 C2840 1.378 . S
C2833 C2832 1.367 . S
C2833 C2841 1.433 . S
C2834 H2830 0.929 . S
C2834 C2836 1.378 . S
C2834 C2838 1.350 . S
C2835 C2838 1.463 . S
C2835 C2840 1.350 . S
C2835 N2843 1.427 . S
C2836 H2827 0.930 . S
C2836 C2834 1.378 . S
C2836 C2837 1.367 . S
C2837 C2836 1.367 . S
C2837 C2839 1.433 . S
C2838 C2834 1.350 . S
C2838 C2835 1.463 . S
C2838 N2842 1.427 . S
C2839 H2829 0.929 . S
C2839 C2837 1.433 . S
C2839 N2842 1.384 . S
C2840 H2831 0.929 . S
C2840 C2832 1.378 . S
C2840 C2835 1.350 . S
C2841 H2828 0.929 . S
C2841 C2833 1.433 . S
C2841 N2843 1.384 . S
N2842 C2838 1.427 . S
N2842 C2839 1.384 . S
N2843 C2835 1.427 . S
N2843 C2841 1.384 . S
H2844 C2850 0.930 . S
H2845 C2854 0.930 . S
H2846 C2859 0.929 . S
H2847 C2857 0.929 . S
H2848 C2852 0.929 . S
H2849 C2858 0.929 . S
C2850 H2844 0.930 . S
C2850 C2851 1.367 . S
C2850 C2858 1.378 . S
C2851 C2850 1.367 . S
C2851 C2859 1.433 . S
C2852 H2848 0.929 . S
C2852 C2854 1.378 . S
C2852 C2856 1.350 . S
C2853 C2856 1.463 . S
C2853 C2858 1.350 . S
C2853 N2861 1.427 . S
C2854 H2845 0.930 . S
C2854 C2852 1.378 . S
C2854 C2855 1.367 . S
C2855 C2854 1.367 . S
C2855 C2857 1.433 . S
C2856 C2852 1.350 . S
C2856 C2853 1.463 . S
C2856 N2860 1.427 . S
C2857 H2847 0.929 . S
C2857 C2855 1.433 . S
C2857 N2860 1.384 . S
C2858 H2849 0.929 . S
C2858 C2850 1.378 . S
C2858 C2853 1.350 . S
C2859 H2846 0.929 . S
C2859 C2851 1.433 . S
C2859 N2861 1.384 . S
N2860 C2856 1.427 . S
N2860 C2857 1.384 . S
N2861 C2853 1.427 . S
N2861 C2859 1.384 . S
H2862 C2868 0.930 . S
H2863 C2872 0.930 . S
H2864 C2877 0.929 . S
H2865 C2875 0.928 . S
H2866 C2870 0.929 . S
H2867 C2876 0.929 . S
C2868 H2862 0.930 . S
C2868 C2869 1.367 1_556 S
C2868 C2876 1.378 . S
C2869 C2868 1.367 1_554 S
C2869 C2877 1.433 . S
C2870 H2866 0.929 . S
C2870 C2872 1.378 . S
C2870 C2874 1.350 1_545 S
C2871 C2874 1.463 . S
C2871 C2876 1.350 1_554 S
C2871 N2879 1.427 . S
C2872 H2863 0.930 . S
C2872 C2870 1.378 . S
C2872 C2873 1.367 . S
C2873 C2872 1.367 . S
C2873 C2875 1.434 1_544 S
C2874 C2870 1.350 1_565 S
C2874 C2871 1.463 . S
C2874 N2878 1.427 1_554 S
C2875 H2865 0.928 . S
C2875 C2873 1.434 1_566 S
C2875 N2878 1.384 . S
C2876 H2867 0.929 . S
C2876 C2868 1.378 . S
C2876 C2871 1.350 1_556 S
C2877 H2864 0.929 . S
C2877 C2869 1.433 . S
C2877 N2879 1.384 . S
N2878 C2874 1.427 1_556 S
N2878 C2875 1.384 . S
N2879 C2871 1.427 . S
N2879 C2877 1.384 . S
H2880 C2886 0.930 . S
H2881 C2890 0.930 . S
H2882 C2895 0.929 . S
H2883 C2893 0.929 . S
H2884 C2888 0.929 . S
H2885 C2894 0.929 . S
C2886 H2880 0.930 . S
C2886 C2887 1.367 . S
C2886 C2894 1.378 . S
C2887 C2886 1.367 . S
C2887 C2895 1.433 . S
C2888 H2884 0.929 . S
C2888 C2890 1.378 . S
C2888 C2892 1.350 . S
C2889 C2892 1.463 . S
C2889 C2894 1.350 . S
C2889 N2897 1.427 . S
C2890 H2881 0.930 . S
C2890 C2888 1.378 . S
C2890 C2891 1.367 . S
C2891 C2890 1.367 . S
C2891 C2893 1.433 . S
C2892 C2888 1.350 . S
C2892 C2889 1.463 . S
C2892 N2896 1.427 . S
C2893 H2883 0.929 . S
C2893 C2891 1.433 . S
C2893 N2896 1.384 . S
C2894 H2885 0.929 . S
C2894 C2886 1.378 . S
C2894 C2889 1.350 . S
C2895 H2882 0.929 . S
C2895 C2887 1.433 . S
C2895 N2897 1.384 . S
N2896 C2892 1.427 . S
N2896 C2893 1.384 . S
N2897 C2889 1.427 . S
N2897 C2895 1.384 . S
H2898 C2904 0.930 . S
H2899 C2908 0.926 1_556 S
H2900 C2913 0.929 . S
H2901 C2911 0.929 . S
H2902 C2906 0.929 1_556 S
H2903 C2912 0.929 . S
C2904 H2898 0.930 . S
C2904 C2905 1.367 . S
C2904 C2912 1.378 . S
C2905 C2904 1.367 . S
C2905 C2913 1.433 1_554 S
C2906 H2902 0.929 1_554 S
C2906 C2908 1.378 . S
C2906 C2910 1.350 . S
C2907 C2910 1.463 . S
C2907 C2912 1.350 . S
C2907 N2915 1.463 . S
C2908 H2899 0.926 1_554 S
C2908 C2906 1.378 . S
C2908 C2909 1.367 . S
C2909 C2908 1.367 . S
C2909 C2911 1.433 . S
C2910 C2906 1.350 . S
C2910 C2907 1.463 . S
C2910 N2914 1.427 . S
C2911 H2901 0.929 . S
C2911 C2909 1.433 . S
C2911 N2914 1.384 . S
C2912 H2903 0.929 . S
C2912 C2904 1.378 . S
C2912 C2907 1.350 . S
C2913 H2900 0.929 . S
C2913 C2905 1.433 1_556 S
C2913 N2915 1.380 1_556 S
N2914 C2910 1.427 . S
N2914 C2911 1.384 . S
N2915 C2907 1.463 . S
N2915 C2913 1.380 1_554 S
H2916 C2922 0.930 . S
H2917 C2926 0.930 . S
H2918 C2931 0.929 . S
H2919 C2929 0.929 . S
H2920 C2924 0.929 . S
H2921 C2930 0.929 . S
C2922 H2916 0.930 . S
C2922 C2923 1.367 . S
C2922 C2930 1.378 . S
C2923 C2922 1.367 . S
C2923 C2931 1.433 . S
C2924 H2920 0.929 . S
C2924 C2926 1.378 . S
C2924 C2928 1.350 . S
C2925 C2928 1.463 . S
C2925 C2930 1.350 . S
C2925 N2933 1.427 . S
C2926 H2917 0.930 . S
C2926 C2924 1.378 . S
C2926 C2927 1.367 . S
C2927 C2926 1.367 . S
C2927 C2929 1.433 . S
C2928 C2924 1.350 . S
C2928 C2925 1.463 . S
C2928 N2932 1.427 . S
C2929 H2919 0.929 . S
C2929 C2927 1.433 . S
C2929 N2932 1.384 . S
C2930 H2921 0.929 . S
C2930 C2922 1.378 . S
C2930 C2925 1.350 . S
C2931 H2918 0.929 . S
C2931 C2923 1.433 . S
C2931 N2933 1.384 . S
N2932 C2928 1.427 . S
N2932 C2929 1.384 . S
N2933 C2925 1.427 . S
N2933 C2931 1.384 . S
H2934 C2940 0.930 . S
H2935 C2944 0.930 . S
H2936 C2949 0.929 . S
H2937 C2947 0.929 . S
H2938 C2942 0.929 . S
H2939 C2948 0.929 . S
C2940 H2934 0.930 . S
C2940 C2941 1.367 . S
C2940 C2948 1.378 . S
C2941 C2940 1.367 . S
C2941 C2949 1.433 . S
C2942 H2938 0.929 . S
C2942 C2944 1.378 . S
C2942 C2946 1.350 . S
C2943 C2946 1.463 . S
C2943 C2948 1.350 . S
C2943 N2951 1.427 . S
C2944 H2935 0.930 . S
C2944 C2942 1.378 . S
C2944 C2945 1.367 . S
C2945 C2944 1.367 . S
C2945 C2947 1.433 . S
C2946 C2942 1.350 . S
C2946 C2943 1.463 . S
C2946 N2950 1.427 . S
C2947 H2937 0.929 . S
C2947 C2945 1.433 . S
C2947 N2950 1.384 . S
C2948 H2939 0.929 . S
C2948 C2940 1.378 . S
C2948 C2943 1.350 . S
C2949 H2936 0.929 . S
C2949 C2941 1.433 . S
C2949 N2951 1.384 . S
N2950 C2946 1.427 . S
N2950 C2947 1.384 . S
N2951 C2943 1.427 . S
N2951 C2949 1.384 . S
H2952 C2958 0.930 . S
H2953 C2962 0.930 . S
H2954 C2967 0.929 . S
H2955 C2965 0.929 . S
H2956 C2960 0.929 . S
H2957 C2966 0.929 . S
C2958 H2952 0.930 . S
C2958 C2959 1.367 . S
C2958 C2966 1.378 . S
C2959 C2958 1.367 . S
C2959 C2967 1.433 . S
C2960 H2956 0.929 . S
C2960 C2962 1.378 . S
C2960 C2964 1.350 . S
C2961 C2964 1.463 . S
C2961 C2966 1.350 . S
C2961 N2969 1.427 . S
C2962 H2953 0.930 . S
C2962 C2960 1.378 . S
C2962 C2963 1.367 . S
C2963 C2962 1.367 . S
C2963 C2965 1.433 . S
C2964 C2960 1.350 . S
C2964 C2961 1.463 . S
C2964 N2968 1.427 . S
C2965 H2955 0.929 . S
C2965 C2963 1.433 . S
C2965 N2968 1.384 . S
C2966 H2957 0.929 . S
C2966 C2958 1.378 . S
C2966 C2961 1.350 . S
C2967 H2954 0.929 . S
C2967 C2959 1.433 . S
C2967 N2969 1.384 . S
N2968 C2964 1.427 . S
N2968 C2965 1.384 . S
N2969 C2961 1.427 . S
N2969 C2967 1.384 . S
H2970 C2976 0.930 . S
H2971 C2980 0.930 . S
H2972 C2985 0.929 . S
H2973 C2983 0.929 . S
H2974 C2978 0.929 . S
H2975 C2984 0.929 . S
C2976 H2970 0.930 . S
C2976 C2977 1.367 . S
C2976 C2984 1.378 . S
C2977 C2976 1.367 . S
C2977 C2985 1.433 . S
C2978 H2974 0.929 . S
C2978 C2980 1.378 . S
C2978 C2982 1.350 . S
C2979 C2982 1.463 . S
C2979 C2984 1.350 . S
C2979 N2987 1.427 . S
C2980 H2971 0.930 . S
C2980 C2978 1.378 . S
C2980 C2981 1.367 . S
C2981 C2980 1.367 . S
C2981 C2983 1.433 . S
C2982 C2978 1.350 . S
C2982 C2979 1.463 . S
C2982 N2986 1.427 . S
C2983 H2973 0.929 . S
C2983 C2981 1.433 . S
C2983 N2986 1.384 . S
C2984 H2975 0.929 . S
C2984 C2976 1.378 . S
C2984 C2979 1.350 . S
C2985 H2972 0.929 . S
C2985 C2977 1.433 . S
C2985 N2987 1.384 . S
N2986 C2982 1.427 . S
N2986 C2983 1.384 . S
N2987 C2979 1.427 . S
N2987 C2985 1.384 . S
H2988 C2994 0.930 . S
H2989 C2998 0.930 . S
H2990 C3003 0.929 . S
H2991 C3001 0.929 . S
H2992 C2996 0.929 . S
H2993 C3002 0.929 . S
C2994 H2988 0.930 . S
C2994 C2995 1.367 . S
C2994 C3002 1.378 . S
C2995 C2994 1.367 . S
C2995 C3003 1.433 . S
C2996 H2992 0.929 . S
C2996 C2998 1.378 . S
C2996 C3000 1.350 . S
C2997 C3000 1.463 . S
C2997 C3002 1.350 . S
C2997 N3005 1.427 . S
C2998 H2989 0.930 . S
C2998 C2996 1.378 . S
C2998 C2999 1.367 . S
C2999 C2998 1.367 . S
C2999 C3001 1.433 . S
C3000 C2996 1.350 . S
C3000 C2997 1.463 . S
C3000 N3004 1.427 . S
C3001 H2991 0.929 . S
C3001 C2999 1.433 . S
C3001 N3004 1.384 . S
C3002 H2993 0.929 . S
C3002 C2994 1.378 . S
C3002 C2997 1.350 . S
C3003 H2990 0.929 . S
C3003 C2995 1.433 . S
C3003 N3005 1.384 . S
N3004 C3000 1.427 . S
N3004 C3001 1.384 . S
N3005 C2997 1.427 . S
N3005 C3003 1.384 . S
H3006 C3012 0.930 . S
H3007 C3016 0.930 . S
H3008 C3021 0.929 . S
H3009 C3019 0.929 . S
H3010 C3014 0.929 . S
H3011 C3020 0.929 . S
C3012 H3006 0.930 . S
C3012 C3013 1.367 . S
C3012 C3020 1.378 . S
C3013 C3012 1.367 . S
C3013 C3021 1.433 . S
C3014 H3010 0.929 . S
C3014 C3016 1.378 . S
C3014 C3018 1.350 . S
C3015 C3018 1.463 . S
C3015 C3020 1.350 . S
C3015 N3023 1.427 . S
C3016 H3007 0.930 . S
C3016 C3014 1.378 . S
C3016 C3017 1.367 . S
C3017 C3016 1.367 . S
C3017 C3019 1.433 . S
C3018 C3014 1.350 . S
C3018 C3015 1.463 . S
C3018 N3022 1.427 . S
C3019 H3009 0.929 . S
C3019 C3017 1.433 . S
C3019 N3022 1.384 . S
C3020 H3011 0.929 . S
C3020 C3012 1.378 . S
C3020 C3015 1.350 . S
C3021 H3008 0.929 . S
C3021 C3013 1.433 . S
C3021 N3023 1.384 . S
N3022 C3018 1.427 . S
N3022 C3019 1.384 . S
N3023 C3015 1.427 . S
N3023 C3021 1.384 . S
H3024 C3030 0.930 . S
H3025 C3034 0.930 . S
H3026 C3039 0.929 . S
H3027 C3037 0.929 . S
H3028 C3032 0.929 . S
H3029 C3038 0.929 . S
C3030 H3024 0.930 . S
C3030 C3031 1.367 . S
C3030 C3038 1.378 . S
C3031 C3030 1.367 . S
C3031 C3039 1.433 . S
C3032 H3028 0.929 . S
C3032 C3034 1.378 . S
C3032 C3036 1.350 . S
C3033 C3036 1.463 . S
C3033 C3038 1.350 . S
C3033 N3041 1.427 . S
C3034 H3025 0.930 . S
C3034 C3032 1.378 . S
C3034 C3035 1.367 . S
C3035 C3034 1.367 . S
C3035 C3037 1.433 . S
C3036 C3032 1.350 . S
C3036 C3033 1.463 . S
C3036 N3040 1.427 . S
C3037 H3027 0.929 . S
C3037 C3035 1.433 . S
C3037 N3040 1.384 . S
C3038 H3029 0.929 . S
C3038 C3030 1.378 . S
C3038 C3033 1.350 . S
C3039 H3026 0.929 . S
C3039 C3031 1.433 . S
C3039 N3041 1.384 . S
N3040 C3036 1.427 . S
N3040 C3037 1.384 . S
N3041 C3033 1.427 . S
N3041 C3039 1.384 . S
H3042 C3048 0.930 . S
H3043 C3052 0.930 . S
H3044 C3057 0.929 . S
H3045 C3055 0.929 . S
H3046 C3050 0.929 . S
H3047 C3056 0.929 . S
C3048 H3042 0.930 . S
C3048 C3049 1.367 . S
C3048 C3056 1.378 . S
C3049 C3048 1.367 . S
C3049 C3057 1.433 . S
C3050 H3046 0.929 . S
C3050 C3052 1.378 . S
C3050 C3054 1.350 . S
C3051 C3054 1.463 . S
C3051 C3056 1.350 . S
C3051 N3059 1.427 . S
C3052 H3043 0.930 . S
C3052 C3050 1.378 . S
C3052 C3053 1.367 . S
C3053 C3052 1.367 . S
C3053 C3055 1.433 . S
C3054 C3050 1.350 . S
C3054 C3051 1.463 . S
C3054 N3058 1.427 . S
C3055 H3045 0.929 . S
C3055 C3053 1.433 . S
C3055 N3058 1.384 . S
C3056 H3047 0.929 . S
C3056 C3048 1.378 . S
C3056 C3051 1.350 . S
C3057 H3044 0.929 . S
C3057 C3049 1.433 . S
C3057 N3059 1.384 . S
N3058 C3054 1.427 . S
N3058 C3055 1.384 . S
N3059 C3051 1.427 . S
N3059 C3057 1.384 . S
H3060 C3066 0.930 . S
H3061 C3070 0.930 . S
H3062 C3075 0.929 . S
H3063 C3073 0.929 . S
H3064 C3068 0.929 . S
H3065 C3074 0.929 . S
C3066 H3060 0.930 . S
C3066 C3067 1.367 . S
C3066 C3074 1.378 . S
C3067 C3066 1.367 . S
C3067 C3075 1.433 . S
C3068 H3064 0.929 . S
C3068 C3070 1.378 . S
C3068 C3072 1.350 . S
C3069 C3072 1.463 . S
C3069 C3074 1.350 . S
C3069 N3077 1.427 . S
C3070 H3061 0.930 . S
C3070 C3068 1.378 . S
C3070 C3071 1.367 . S
C3071 C3070 1.367 . S
C3071 C3073 1.433 . S
C3072 C3068 1.350 . S
C3072 C3069 1.463 . S
C3072 N3076 1.427 . S
C3073 H3063 0.929 . S
C3073 C3071 1.433 . S
C3073 N3076 1.384 . S
C3074 H3065 0.929 . S
C3074 C3066 1.378 . S
C3074 C3069 1.350 . S
C3075 H3062 0.929 . S
C3075 C3067 1.433 . S
C3075 N3077 1.384 . S
N3076 C3072 1.427 . S
N3076 C3073 1.384 . S
N3077 C3069 1.427 . S
N3077 C3075 1.384 . S
H3078 C3084 0.930 . S
H3079 C3088 0.930 . S
H3080 C3093 0.929 . S
H3081 C3091 0.929 . S
H3082 C3086 0.929 . S
H3083 C3092 0.929 . S
C3084 H3078 0.930 . S
C3084 C3085 1.367 . S
C3084 C3092 1.378 . S
C3085 C3084 1.367 . S
C3085 C3093 1.433 . S
C3086 H3082 0.929 . S
C3086 C3088 1.378 . S
C3086 C3090 1.350 . S
C3087 C3090 1.463 . S
C3087 C3092 1.350 . S
C3087 N3095 1.427 . S
C3088 H3079 0.930 . S
C3088 C3086 1.378 . S
C3088 C3089 1.367 . S
C3089 C3088 1.367 . S
C3089 C3091 1.433 . S
C3090 C3086 1.350 . S
C3090 C3087 1.463 . S
C3090 N3094 1.427 . S
C3091 H3081 0.929 . S
C3091 C3089 1.433 . S
C3091 N3094 1.384 . S
C3092 H3083 0.929 . S
C3092 C3084 1.378 . S
C3092 C3087 1.350 . S
C3093 H3080 0.929 . S
C3093 C3085 1.433 . S
C3093 N3095 1.384 . S
N3094 C3090 1.427 . S
N3094 C3091 1.384 . S
N3095 C3087 1.427 . S
N3095 C3093 1.384 . S
H3096 C3102 0.930 . S
H3097 C3106 0.930 . S
H3098 C3111 0.929 . S
H3099 C3109 0.929 . S
H3100 C3104 0.929 . S
H3101 C3110 0.929 . S
C3102 H3096 0.930 . S
C3102 C3103 1.367 . S
C3102 C3110 1.378 . S
C3103 C3102 1.367 . S
C3103 C3111 1.433 . S
C3104 H3100 0.929 . S
C3104 C3106 1.378 . S
C3104 C3108 1.350 . S
C3105 C3108 1.463 . S
C3105 C3110 1.350 . S
C3105 N3113 1.427 . S
C3106 H3097 0.930 . S
C3106 C3104 1.378 . S
C3106 C3107 1.367 . S
C3107 C3106 1.367 . S
C3107 C3109 1.433 . S
C3108 C3104 1.350 . S
C3108 C3105 1.463 . S
C3108 N3112 1.427 . S
C3109 H3099 0.929 . S
C3109 C3107 1.433 . S
C3109 N3112 1.384 . S
C3110 H3101 0.929 . S
C3110 C3102 1.378 . S
C3110 C3105 1.350 . S
C3111 H3098 0.929 . S
C3111 C3103 1.433 . S
C3111 N3113 1.384 . S
N3112 C3108 1.427 . S
N3112 C3109 1.384 . S
N3113 C3105 1.427 . S
N3113 C3111 1.384 . S
H3114 C3120 0.930 . S
H3115 C3124 0.930 . S
H3116 C3129 0.929 . S
H3117 C3127 0.929 . S
H3118 C3122 0.929 . S
H3119 C3128 0.929 . S
C3120 H3114 0.930 . S
C3120 C3121 1.367 . S
C3120 C3128 1.378 . S
C3121 C3120 1.367 . S
C3121 C3129 1.433 . S
C3122 H3118 0.929 . S
C3122 C3124 1.378 . S
C3122 C3126 1.350 . S
C3123 C3126 1.463 . S
C3123 C3128 1.350 . S
C3123 N3131 1.427 . S
C3124 H3115 0.930 . S
C3124 C3122 1.378 . S
C3124 C3125 1.367 . S
C3125 C3124 1.367 . S
C3125 C3127 1.433 . S
C3126 C3122 1.350 . S
C3126 C3123 1.463 . S
C3126 N3130 1.427 . S
C3127 H3117 0.929 . S
C3127 C3125 1.433 . S
C3127 N3130 1.384 . S
C3128 H3119 0.929 . S
C3128 C3120 1.378 . S
C3128 C3123 1.350 . S
C3129 H3116 0.929 . S
C3129 C3121 1.433 . S
C3129 N3131 1.384 . S
N3130 C3126 1.427 . S
N3130 C3127 1.384 . S
N3131 C3123 1.427 . S
N3131 C3129 1.384 . S
H3132 C3138 0.930 . S
H3133 C3142 0.930 . S
H3134 C3147 0.929 . S
H3135 C3145 0.929 1_455 S
H3136 C3140 0.929 . S
H3137 C3146 0.929 . S
C3138 H3132 0.930 . S
C3138 C3139 1.367 . S
C3138 C3146 1.378 . S
C3139 C3138 1.367 . S
C3139 C3147 1.433 . S
C3140 H3136 0.929 . S
C3140 C3142 1.378 . S
C3140 C3144 1.350 . S
C3141 C3144 1.463 . S
C3141 C3146 1.350 . S
C3141 N3149 1.427 . S
C3142 H3133 0.930 . S
C3142 C3140 1.378 . S
C3142 C3143 1.367 . S
C3143 C3142 1.367 . S
C3143 C3145 1.433 . S
C3144 C3140 1.350 . S
C3144 C3141 1.463 . S
C3144 N3148 1.427 . S
C3145 H3135 0.929 1_655 S
C3145 C3143 1.433 . S
C3145 N3148 1.384 . S
C3146 H3137 0.929 . S
C3146 C3138 1.378 . S
C3146 C3141 1.350 . S
C3147 H3134 0.929 . S
C3147 C3139 1.433 . S
C3147 N3149 1.384 . S
N3148 C3144 1.427 . S
N3148 C3145 1.384 . S
N3149 C3141 1.427 . S
N3149 C3147 1.384 . S
H3150 C3156 0.930 . S
H3151 C3160 0.930 . S
H3152 C3165 0.929 . S
H3153 C3163 0.929 . S
H3154 C3158 0.929 . S
H3155 C3164 0.929 . S
C3156 H3150 0.930 . S
C3156 C3157 1.367 . S
C3156 C3164 1.378 . S
C3157 C3156 1.367 . S
C3157 C3165 1.433 . S
C3158 H3154 0.929 . S
C3158 C3160 1.378 . S
C3158 C3162 1.350 . S
C3159 C3162 1.463 . S
C3159 C3164 1.350 . S
C3159 N3167 1.427 . S
C3160 H3151 0.930 . S
C3160 C3158 1.378 . S
C3160 C3161 1.367 . S
C3161 C3160 1.367 . S
C3161 C3163 1.433 . S
C3162 C3158 1.350 . S
C3162 C3159 1.463 . S
C3162 N3166 1.427 . S
C3163 H3153 0.929 . S
C3163 C3161 1.433 . S
C3163 N3166 1.384 . S
C3164 H3155 0.929 . S
C3164 C3156 1.378 . S
C3164 C3159 1.350 . S
C3165 H3152 0.929 . S
C3165 C3157 1.433 . S
C3165 N3167 1.384 . S
N3166 C3162 1.427 . S
N3166 C3163 1.384 . S
N3167 C3159 1.427 . S
N3167 C3165 1.384 . S
H3168 C3174 0.930 . S
H3169 C3178 0.930 . S
H3170 C3183 0.929 . S
H3171 C3181 0.929 . S
H3172 C3176 0.929 . S
H3173 C3182 0.929 . S
C3174 H3168 0.930 . S
C3174 C3175 1.367 . S
C3174 C3182 1.378 . S
C3175 C3174 1.367 . S
C3175 C3183 1.433 . S
C3176 H3172 0.929 . S
C3176 C3178 1.378 . S
C3176 C3180 1.350 . S
C3177 C3180 1.463 . S
C3177 C3182 1.350 . S
C3177 N3185 1.427 . S
C3178 H3169 0.930 . S
C3178 C3176 1.378 . S
C3178 C3179 1.367 . S
C3179 C3178 1.367 . S
C3179 C3181 1.433 . S
C3180 C3176 1.350 . S
C3180 C3177 1.463 . S
C3180 N3184 1.427 . S
C3181 H3171 0.929 . S
C3181 C3179 1.433 . S
C3181 N3184 1.384 . S
C3182 H3173 0.929 . S
C3182 C3174 1.378 . S
C3182 C3177 1.350 . S
C3183 H3170 0.929 . S
C3183 C3175 1.433 . S
C3183 N3185 1.384 . S
N3184 C3180 1.427 . S
N3184 C3181 1.384 . S
N3185 C3177 1.427 . S
N3185 C3183 1.384 . S
H3186 C3192 0.930 . S
H3187 C3196 0.930 . S
H3188 C3201 0.929 . S
H3189 C3199 0.929 . S
H3190 C3194 0.929 . S
H3191 C3200 0.929 . S
C3192 H3186 0.930 . S
C3192 C3193 1.367 . S
C3192 C3200 1.378 . S
C3193 C3192 1.367 . S
C3193 C3201 1.433 . S
C3194 H3190 0.929 . S
C3194 C3196 1.378 . S
C3194 C3198 1.350 . S
C3195 C3198 1.463 . S
C3195 C3200 1.350 . S
C3195 N3203 1.427 . S
C3196 H3187 0.930 . S
C3196 C3194 1.378 . S
C3196 C3197 1.367 . S
C3197 C3196 1.367 . S
C3197 C3199 1.433 . S
C3198 C3194 1.350 . S
C3198 C3195 1.463 . S
C3198 N3202 1.427 . S
C3199 H3189 0.929 . S
C3199 C3197 1.433 . S
C3199 N3202 1.384 . S
C3200 H3191 0.929 . S
C3200 C3192 1.378 . S
C3200 C3195 1.350 . S
C3201 H3188 0.929 . S
C3201 C3193 1.433 . S
C3201 N3203 1.384 . S
N3202 C3198 1.427 . S
N3202 C3199 1.384 . S
N3203 C3195 1.427 . S
N3203 C3201 1.384 . S
H3204 C3210 0.930 . S
H3205 C3214 0.930 . S
H3206 C3219 0.929 . S
H3207 C3217 0.929 . S
H3208 C3212 0.929 . S
H3209 C3218 0.929 . S
C3210 H3204 0.930 . S
C3210 C3211 1.367 . S
C3210 C3218 1.378 . S
C3211 C3210 1.367 . S
C3211 C3219 1.433 . S
C3212 H3208 0.929 . S
C3212 C3214 1.378 . S
C3212 C3216 1.350 . S
C3213 C3216 1.463 . S
C3213 C3218 1.350 . S
C3213 N3221 1.427 . S
C3214 H3205 0.930 . S
C3214 C3212 1.378 . S
C3214 C3215 1.367 . S
C3215 C3214 1.367 . S
C3215 C3217 1.433 . S
C3216 C3212 1.350 . S
C3216 C3213 1.463 . S
C3216 N3220 1.427 . S
C3217 H3207 0.929 . S
C3217 C3215 1.433 . S
C3217 N3220 1.384 . S
C3218 H3209 0.929 . S
C3218 C3210 1.378 . S
C3218 C3213 1.350 . S
C3219 H3206 0.929 . S
C3219 C3211 1.433 . S
C3219 N3221 1.384 . S
N3220 C3216 1.427 . S
N3220 C3217 1.384 . S
N3221 C3213 1.427 . S
N3221 C3219 1.384 . S
H3222 C3228 0.930 . S
H3223 C3232 0.930 . S
H3224 C3237 0.929 . S
H3225 C3235 0.929 . S
H3226 C3230 0.929 . S
H3227 C3236 0.929 . S
C3228 H3222 0.930 . S
C3228 C3229 1.367 . S
C3228 C3236 1.378 . S
C3229 C3228 1.367 . S
C3229 C3237 1.433 . S
C3230 H3226 0.929 . S
C3230 C3232 1.378 . S
C3230 C3234 1.350 . S
C3231 C3234 1.463 . S
C3231 C3236 1.350 . S
C3231 N3239 1.427 . S
C3232 H3223 0.930 . S
C3232 C3230 1.378 . S
C3232 C3233 1.367 . S
C3233 C3232 1.367 . S
C3233 C3235 1.433 . S
C3234 C3230 1.350 . S
C3234 C3231 1.463 . S
C3234 N3238 1.427 . S
C3235 H3225 0.929 . S
C3235 C3233 1.433 . S
C3235 N3238 1.384 . S
C3236 H3227 0.929 . S
C3236 C3228 1.378 . S
C3236 C3231 1.350 . S
C3237 H3224 0.929 . S
C3237 C3229 1.433 . S
C3237 N3239 1.384 . S
N3238 C3234 1.427 . S
N3238 C3235 1.384 . S
N3239 C3231 1.427 . S
N3239 C3237 1.384 . S
H3240 C3246 0.930 . S
H3241 C3250 0.930 . S
H3242 C3255 0.929 . S
H3243 C3253 0.929 . S
H3244 C3248 0.929 . S
H3245 C3254 0.929 . S
C3246 H3240 0.930 . S
C3246 C3247 1.367 . S
C3246 C3254 1.378 . S
C3247 C3246 1.367 . S
C3247 C3255 1.433 . S
C3248 H3244 0.929 . S
C3248 C3250 1.378 . S
C3248 C3252 1.350 . S
C3249 C3252 1.463 . S
C3249 C3254 1.350 . S
C3249 N3257 1.427 . S
C3250 H3241 0.930 . S
C3250 C3248 1.378 . S
C3250 C3251 1.367 . S
C3251 C3250 1.367 . S
C3251 C3253 1.433 . S
C3252 C3248 1.350 . S
C3252 C3249 1.463 . S
C3252 N3256 1.427 . S
C3253 H3243 0.929 . S
C3253 C3251 1.433 . S
C3253 N3256 1.384 . S
C3254 H3245 0.929 . S
C3254 C3246 1.378 . S
C3254 C3249 1.350 . S
C3255 H3242 0.929 . S
C3255 C3247 1.433 . S
C3255 N3257 1.384 . S
N3256 C3252 1.427 . S
N3256 C3253 1.384 . S
N3257 C3249 1.427 . S
N3257 C3255 1.384 . S
H3258 C3264 0.930 . S
H3259 C3268 0.930 . S
H3260 C3273 0.929 . S
H3261 C3271 0.929 . S
H3262 C3266 0.929 . S
H3263 C3272 0.929 . S
C3264 H3258 0.930 . S
C3264 C3265 1.367 . S
C3264 C3272 1.378 . S
C3265 C3264 1.367 . S
C3265 C3273 1.433 . S
C3266 H3262 0.929 . S
C3266 C3268 1.378 . S
C3266 C3270 1.350 . S
C3267 C3270 1.463 . S
C3267 C3272 1.350 . S
C3267 N3275 1.427 . S
C3268 H3259 0.930 . S
C3268 C3266 1.378 . S
C3268 C3269 1.367 . S
C3269 C3268 1.367 . S
C3269 C3271 1.433 . S
C3270 C3266 1.350 . S
C3270 C3267 1.463 . S
C3270 N3274 1.427 . S
C3271 H3261 0.929 . S
C3271 C3269 1.433 . S
C3271 N3274 1.384 . S
C3272 H3263 0.929 . S
C3272 C3264 1.378 . S
C3272 C3267 1.350 . S
C3273 H3260 0.929 . S
C3273 C3265 1.433 . S
C3273 N3275 1.384 . S
N3274 C3270 1.427 . S
N3274 C3271 1.384 . S
N3275 C3267 1.427 . S
N3275 C3273 1.384 . S
H3276 C3282 0.930 . S
H3277 C3286 0.930 . S
H3278 C3291 0.929 . S
H3279 C3289 0.929 . S
H3280 C3284 0.929 . S
H3281 C3290 0.929 . S
C3282 H3276 0.930 . S
C3282 C3283 1.367 . S
C3282 C3290 1.378 . S
C3283 C3282 1.367 . S
C3283 C3291 1.433 . S
C3284 H3280 0.929 . S
C3284 C3286 1.378 . S
C3284 C3288 1.350 . S
C3285 C3288 1.463 . S
C3285 C3290 1.350 . S
C3285 N3293 1.427 . S
C3286 H3277 0.930 . S
C3286 C3284 1.378 . S
C3286 C3287 1.367 . S
C3287 C3286 1.367 . S
C3287 C3289 1.433 . S
C3288 C3284 1.350 . S
C3288 C3285 1.463 . S
C3288 N3292 1.427 . S
C3289 H3279 0.929 . S
C3289 C3287 1.433 . S
C3289 N3292 1.384 . S
C3290 H3281 0.929 . S
C3290 C3282 1.378 . S
C3290 C3285 1.350 . S
C3291 H3278 0.929 . S
C3291 C3283 1.433 . S
C3291 N3293 1.384 . S
N3292 C3288 1.427 . S
N3292 C3289 1.384 . S
N3293 C3285 1.427 . S
N3293 C3291 1.384 . S
H3294 C3300 0.930 . S
H3295 C3304 0.930 . S
H3296 C3309 0.929 . S
H3297 C3307 0.929 . S
H3298 C3302 0.929 . S
H3299 C3308 0.929 . S
C3300 H3294 0.930 . S
C3300 C3301 1.367 . S
C3300 C3308 1.378 . S
C3301 C3300 1.367 . S
C3301 C3309 1.433 . S
C3302 H3298 0.929 . S
C3302 C3304 1.378 . S
C3302 C3306 1.350 . S
C3303 C3306 1.463 . S
C3303 C3308 1.350 . S
C3303 N3311 1.427 . S
C3304 H3295 0.930 . S
C3304 C3302 1.378 . S
C3304 C3305 1.367 . S
C3305 C3304 1.367 . S
C3305 C3307 1.433 . S
C3306 C3302 1.350 . S
C3306 C3303 1.463 . S
C3306 N3310 1.427 . S
C3307 H3297 0.929 . S
C3307 C3305 1.433 . S
C3307 N3310 1.384 . S
C3308 H3299 0.929 . S
C3308 C3300 1.378 . S
C3308 C3303 1.350 . S
C3309 H3296 0.929 . S
C3309 C3301 1.433 . S
C3309 N3311 1.384 . S
N3310 C3306 1.427 . S
N3310 C3307 1.384 . S
N3311 C3303 1.427 . S
N3311 C3309 1.384 . S
H3312 C3318 0.930 . S
H3313 C3322 0.930 . S
H3314 C3327 0.929 . S
H3315 C3325 0.929 . S
H3316 C3320 0.929 . S
H3317 C3326 0.929 . S
C3318 H3312 0.930 . S
C3318 C3319 1.367 . S
C3318 C3326 1.378 . S
C3319 C3318 1.367 . S
C3319 C3327 1.433 . S
C3320 H3316 0.929 . S
C3320 C3322 1.378 . S
C3320 C3324 1.350 . S
C3321 C3324 1.463 . S
C3321 C3326 1.350 . S
C3321 N3329 1.427 . S
C3322 H3313 0.930 . S
C3322 C3320 1.378 . S
C3322 C3323 1.367 . S
C3323 C3322 1.367 . S
C3323 C3325 1.433 . S
C3324 C3320 1.350 . S
C3324 C3321 1.463 . S
C3324 N3328 1.427 . S
C3325 H3315 0.929 . S
C3325 C3323 1.433 . S
C3325 N3328 1.384 . S
C3326 H3317 0.929 . S
C3326 C3318 1.378 . S
C3326 C3321 1.350 . S
C3327 H3314 0.929 . S
C3327 C3319 1.433 . S
C3327 N3329 1.384 . S
N3328 C3324 1.427 . S
N3328 C3325 1.384 . S
N3329 C3321 1.427 . S
N3329 C3327 1.384 . S
H3330 C3336 0.930 . S
H3331 C3340 0.930 . S
H3332 C3345 0.929 . S
H3333 C3343 0.929 . S
H3334 C3338 0.929 . S
H3335 C3344 0.929 . S
C3336 H3330 0.930 . S
C3336 C3337 1.367 . S
C3336 C3344 1.378 . S
C3337 C3336 1.367 . S
C3337 C3345 1.433 . S
C3338 H3334 0.929 . S
C3338 C3340 1.378 . S
C3338 C3342 1.350 . S
C3339 C3342 1.463 . S
C3339 C3344 1.350 . S
C3339 N3347 1.427 . S
C3340 H3331 0.930 . S
C3340 C3338 1.378 . S
C3340 C3341 1.367 . S
C3341 C3340 1.367 . S
C3341 C3343 1.433 . S
C3342 C3338 1.350 . S
C3342 C3339 1.463 . S
C3342 N3346 1.427 . S
C3343 H3333 0.929 . S
C3343 C3341 1.433 . S
C3343 N3346 1.384 . S
C3344 H3335 0.929 . S
C3344 C3336 1.378 . S
C3344 C3339 1.350 . S
C3345 H3332 0.929 . S
C3345 C3337 1.433 . S
C3345 N3347 1.384 . S
N3346 C3342 1.427 . S
N3346 C3343 1.384 . S
N3347 C3339 1.427 . S
N3347 C3345 1.384 . S
H3348 C3354 0.930 . S
H3349 C3358 0.930 . S
H3350 C3363 0.929 . S
H3351 C3361 0.929 . S
H3352 C3356 0.929 . S
H3353 C3362 0.929 . S
C3354 H3348 0.930 . S
C3354 C3355 1.367 . S
C3354 C3362 1.378 . S
C3355 C3354 1.367 . S
C3355 C3363 1.433 . S
C3356 H3352 0.929 . S
C3356 C3358 1.378 . S
C3356 C3360 1.350 . S
C3357 C3360 1.463 . S
C3357 C3362 1.350 . S
C3357 N3365 1.427 . S
C3358 H3349 0.930 . S
C3358 C3356 1.378 . S
C3358 C3359 1.367 . S
C3359 C3358 1.367 . S
C3359 C3361 1.433 . S
C3360 C3356 1.350 . S
C3360 C3357 1.463 . S
C3360 N3364 1.427 . S
C3361 H3351 0.929 . S
C3361 C3359 1.433 . S
C3361 N3364 1.384 . S
C3362 H3353 0.929 . S
C3362 C3354 1.378 . S
C3362 C3357 1.350 . S
C3363 H3350 0.929 . S
C3363 C3355 1.433 . S
C3363 N3365 1.384 . S
N3364 C3360 1.427 . S
N3364 C3361 1.384 . S
N3365 C3357 1.427 . S
N3365 C3363 1.384 . S
H3366 C3372 0.930 . S
H3367 C3376 0.930 . S
H3368 C3381 0.929 . S
H3369 C3379 0.929 . S
H3370 C3374 0.929 . S
H3371 C3380 0.929 . S
C3372 H3366 0.930 . S
C3372 C3373 1.367 . S
C3372 C3380 1.378 . S
C3373 C3372 1.367 . S
C3373 C3381 1.433 . S
C3374 H3370 0.929 . S
C3374 C3376 1.378 . S
C3374 C3378 1.350 . S
C3375 C3378 1.463 . S
C3375 C3380 1.350 . S
C3375 N3383 1.427 . S
C3376 H3367 0.930 . S
C3376 C3374 1.378 . S
C3376 C3377 1.367 . S
C3377 C3376 1.367 . S
C3377 C3379 1.433 . S
C3378 C3374 1.350 . S
C3378 C3375 1.463 . S
C3378 N3382 1.427 . S
C3379 H3369 0.929 . S
C3379 C3377 1.433 . S
C3379 N3382 1.384 . S
C3380 H3371 0.929 . S
C3380 C3372 1.378 . S
C3380 C3375 1.350 . S
C3381 H3368 0.929 . S
C3381 C3373 1.433 . S
C3381 N3383 1.384 . S
N3382 C3378 1.427 . S
N3382 C3379 1.384 . S
N3383 C3375 1.427 . S
N3383 C3381 1.384 . S
C1663 C101 2.188 . S
C1667 C368 2.202 . S
C1681 C57 1.865 . S
C1685 C470 1.885 . S
C1699 C73 1.884 . S
C1703 C536 1.990 . S
C1721 C622 1.368 . S
C1717 C78 1.432 . S
C1735 C21 1.542 . S
C1739 C706 1.433 . S
C1757 C788 1.934 . S
C1753 C31 1.829 . S
C1775 C890 1.917 . S
C1771 C49 1.907 . S
C1789 C0 1.974 . S
C1793 C956 2.111 . S
C1811 C386 1.678 . S
C1807 C218 1.715 . S
C1825 C229 0.925 . S
C1829 C454 0.913 . S
C1847 C554 1.112 . S
C1843 C257 1.115 . S
C1865 C620 1.642 . S
C1861 C164 1.580 1_556 S
C1879 C216 1.565 . S
C1883 C704 1.628 . S
C1901 C806 1.119 . S
C1897 C231 1.130 . S
C1919 C874 0.910 . S
C1915 C255 0.921 . S
C1937 C974 1.657 . S
C1933 C166 1.695 . S
C1955 C370 0.951 1_565 S
C1951 C143 0.960 1_556 S
C1969 C265 1.649 . S
C1973 C1058 1.677 . S
C1991 C1126 1.254 . S
C1987 C299 1.290 . S
C2009 C1208 0.867 . S
C2005 C291 0.838 . S
C2023 C104 0.886 . S
C2027 C958 0.906 . S
C2041 C117 1.314 . S
C2045 C538 1.291 . S
C2059 C304 1.594 . S
C2063 C1310 1.618 . S
C2081 C1376 0.757 . S
C2077 C278 0.752 . S
C2099 C379 2.145 . S
C2095 C60 2.112 . S
C2117 C1383 1.789 . S
C2113 C96 1.801 . S
C2131 C88 1.886 . S
C2135 C547 1.888 . S
C2149 C65 1.387 . S
C2153 C1305 1.316 . S
C2171 C717 1.381 . S
C2167 C10 1.476 . S
C2185 C44 1.749 . S
C2189 C1135 1.844 . S
C2207 C879 1.828 1_556 S
C2203 C34 1.768 . S
C2225 C1471 2.041 . S
C2221 C13 2.013 . S
C2243 C375 1.582 . S
C2239 C138 1.619 . S
C2261 C1389 0.855 . S
C2257 C296 0.865 . S
C2275 C112 1.039 . S
C2279 C543 1.028 . S
C2293 C270 1.558 . S
C2297 C1303 1.556 . S
C2311 C140 1.539 . S
C2315 C715 1.537 . S
C2333 C1131 1.049 . S
C2329 C294 1.042 . S
C2347 C114 0.865 . S
C2351 C885 0.868 . S
C2365 C268 1.606 . S
C2369 C1467 1.571 . S
C2383 C169 0.971 . S
C2387 C381 0.942 . S
C2401 C161 1.609 . S
C2405 C1047 1.609 . S
C2419 C234 1.309 . S
C2423 C801 1.257 . S
C2437 C226 0.781 . S
C2441 C1219 0.778 . S
C2459 C1473 0.875 . S
C2455 C247 0.903 . S
C2473 C195 1.327 . S
C2477 C549 1.278 . S
C2495 C627 1.542 . S
C2491 C239 1.545 . S
C2513 C463 0.667 . S
C2509 C187 0.665 . S
C2527 C75 2.187 . S
C2531 C1544 2.202 . S
C2549 C1394 1.888 . S
C2545 C83 1.858 . S
C2563 C99 1.895 . S
C2567 C1628 1.994 . S
C2581 C52 1.437 1_655 S
C2585 C1294 1.351 . S
C2599 C47 1.537 . S
C2603 C1042 1.437 . S
C2621 C1124 1.931 . S
C2617 C5 1.821 . S
C2639 C1226 1.914 . S
C2635 C23 1.911 . S
C2657 C1460 2.114 . S
C2653 C26 1.983 . S
C2675 C1562 1.675 . S
C2671 C244 1.716 . S
C2689 C177 0.929 . S
C2693 C1378 0.899 . S
C2711 C1646 1.113 . S
C2707 C192 1.114 . S
C2729 C1292 1.642 . S
C2725 C203 1.581 . S
C2747 C1040 1.625 . S
C2743 C242 1.555 . S
C2761 C179 1.124 . S
C2765 C1142 1.120 . S
C2783 C1210 0.902 . S
C2779 C190 0.927 . S
C2797 C205 1.697 . S
C2801 C1478 1.653 . S
C2819 C1546 0.975 . S
C2815 C286 0.933 . S
C2833 C122 1.660 . S
C2837 C722 1.678 . S
C2855 C790 1.251 . S
C2851 C130 1.295 1_565 S
C2873 C872 0.863 . S
C2869 C148 0.851 . S
C2891 C1462 0.892 . S
C2887 C273 0.904 . S
C2905 C260 1.310 . S
C2909 C1630 1.296 . S
C2927 C638 1.611 . S
C2923 C135 1.600 . S
C2945 C452 0.751 . S
C2941 C109 0.750 . S
C2959 C86 2.113 . S
C2963 C1555 2.145 . S
C2981 C459 1.790 . S
C2977 C70 1.802 . S
C2995 C62 1.889 . S
C2999 C1639 1.888 . S
C3013 C91 1.384 . S
C3017 C633 1.315 . S
C3031 C36 1.477 . S
C3035 C1053 1.384 . S
C3053 C799 1.845 . S
C3049 C18 1.749 . S
C3067 C8 1.771 . S
C3071 C1215 1.827 . S
C3085 C39 2.010 . S
C3089 C967 2.042 . S
C3107 C1551 1.594 . S
C3103 C307 1.616 . S
C3121 C153 0.858 . S
C3125 C465 0.847 . S
C3143 C1635 1.028 1_655 S
C3139 C281 1.039 . S
C3157 C127 1.559 . S
C3161 C631 1.556 . S
C3175 C309 1.537 . S
C3179 C1051 1.533 . S
C3197 C795 1.055 . S
C3193 C151 1.042 . S
C3211 C283 0.857 . S
C3215 C1221 0.842 . S
C3233 C963 1.568 . S
C3229 C125 1.606 . S
C3251 C1557 0.953 . S
C3247 C221 0.963 . S
C3269 C711 1.602 1_565 S
C3265 C200 1.608 . S
C3283 C208 1.304 . S
C3287 C1137 1.238 . S
C3305 C883 0.778 . S
C3301 C174 0.784 . S
C3319 C182 0.910 . S
C3323 C969 0.892 . S
C3337 C156 1.322 . S
C3341 C1641 1.268 . S
C3359 C1299 1.537 . S
C3355 C213 1.546 . S
C3377 C1387 0.671 . S
C3373 C252 0.693 . S
