# Generated by pormake.
# Topology pth, (4,4)-cn, num edge types: 1
# Building blocks:
#     Node 0, Type 0, BuildingBlock: AZAVOO_clean_sbu_0, # of connection points: 4
#     Node 1, Type 0, BuildingBlock: AZAVOO_clean_sbu_0, # of connection points: 4
#     Node 2, Type 0, BuildingBlock: AZAVOO_clean_sbu_0, # of connection points: 4
#     Node 3, Type 1, BuildingBlock: MUDLON_clean_sbu_0, # of connection points: 4
#     Node 4, Type 1, BuildingBlock: MUDLON_clean_sbu_0, # of connection points: 4
#     Node 5, Type 1, BuildingBlock: MUDLON_clean_sbu_0, # of connection points: 4
#     Edge 6, Type (0, 1), BuildingBlock: FUNLAD_clean_linker_0, # of connection points: 2
#     Edge 7, Type (0, 1), BuildingBlock: FUNLAD_clean_linker_0, # of connection points: 2
#     Edge 8, Type (0, 1), BuildingBlock: FUNLAD_clean_linker_0, # of connection points: 2
#     Edge 9, Type (0, 1), BuildingBlock: FUNLAD_clean_linker_0, # of connection points: 2
#     Edge 10, Type (0, 1), BuildingBlock: FUNLAD_clean_linker_0, # of connection points: 2
#     Edge 11, Type (0, 1), BuildingBlock: FUNLAD_clean_linker_0, # of connection points: 2
#     Edge 12, Type (0, 1), BuildingBlock: FUNLAD_clean_linker_0, # of connection points: 2
#     Edge 13, Type (0, 1), BuildingBlock: FUNLAD_clean_linker_0, # of connection points: 2
#     Edge 14, Type (0, 1), BuildingBlock: FUNLAD_clean_linker_0, # of connection points: 2
#     Edge 15, Type (0, 1), BuildingBlock: FUNLAD_clean_linker_0, # of connection points: 2
#     Edge 16, Type (0, 1), BuildingBlock: FUNLAD_clean_linker_0, # of connection points: 2
#     Edge 17, Type (0, 1), BuildingBlock: FUNLAD_clean_linker_0, # of connection points: 2
# Relax obj value: 0.104
# Max RMSD: 0.230
# Mean RMSD: 0.137
data_MOF--net-pth--node1-AZAVOO_clean_sbu_0--node2-MUDLON_clean_sbu_0--edge1-FUNLAD_clean_linker_0
_symmetry_space_group_name_H-M    P1
_symmetry_Int_Tables_number       1
_symmetry_cell_setting            triclinic
loop_
_symmetry_equiv_pos_as_xyz
'x, y, z'
_cell_length_a     26.087704
_cell_length_b     26.634664
_cell_length_c     69.192887
_cell_angle_alpha  90.928586
_cell_angle_beta   93.071207
_cell_angle_gamma 122.15363
loop_
_atom_site_label
_atom_site_type_symbol
_atom_site_fract_x
_atom_site_fract_y
_atom_site_fract_z
_atom_type_partial_charge
Mg0 Mg 0.11268 0.13426 0.08663 0.0
O1 O 0.04266 0.06047 0.06476 0.0
O2 O 1.0022 0.09899 0.04552 0.0
Mg3 Mg 0.04997 0.19829 0.05399 0.0
C4 C 0.00598 0.05527 0.05075 0.0
C5 C 0.15154 0.07751 0.11903 0.0
O6 O 0.19419 0.13366 0.12275 0.0
O7 O 0.03924 0.13351 0.10338 0.0
O8 O 0.00786 0.17872 0.0835 0.0
O9 O 0.18452 0.1581 0.06622 0.0
O10 O 0.12967 0.19879 0.06677 0.0
C11 C 0.00672 0.15533 0.09959 0.0
C12 C 0.17066 0.19419 0.05887 0.0
O13 O 0.11152 0.06373 0.10518 0.0
Mg14 Mg 0.9908 0.09493 0.39601 0.0
O15 O 0.05981 0.09496 0.41812 0.0
O16 O 0.09023 0.17028 0.43984 0.0
Mg17 Mg 0.04319 0.21963 0.4314 0.0
C18 C 0.09122 0.12556 0.43347 0.0
C19 C 0.97103 0.9748 0.37882 0.0
O20 O 0.9413 0.95473 0.39446 0.0
O21 O 0.06585 0.17466 0.38145 0.0
O22 O 0.0916 0.24917 0.40304 0.0
O23 O 0.91551 0.03966 0.41511 0.0
O24 O 0.96857 0.13758 0.41637 0.0
C25 C 0.09657 0.22993 0.38663 0.0
C26 C 0.927 0.08912 0.42322 0.0
O27 O 0.99677 0.02977 0.37575 0.0
Mg28 Mg 0.04099 0.06617 0.7391 0.0
O29 O 0.11119 0.14906 0.75749 0.0
O30 O 0.06421 0.17773 0.77655 0.0
Mg31 Mg 0.96176 0.1095 0.77104 0.0
C32 C 0.11268 0.18426 0.77051 0.0
C33 C 0.16544 0.09096 0.72624 0.0
O34 O 0.17176 0.08475 0.74486 0.0
O35 O 0.01082 0.11589 0.71979 0.0
O36 O 0.95648 0.13356 0.73954 0.0
O37 O 0.04222 0.00986 0.76272 0.0
O38 O 0.97959 0.04168 0.76054 0.0
C39 C 0.97543 0.13425 0.72283 0.0
C40 C 0.99923 0.01324 0.76992 0.0
O41 O 0.11583 0.08396 0.71923 0.0
Mg42 Mg 0.05157 0.57496 0.24399 0.0
C43 C 0.13351 0.52897 0.2555 0.0
O44 O 0.12083 0.50908 0.2373 0.0
C45 C 0.05852 0.64671 0.21056 0.0
O46 O 1.003 0.5999 0.208 0.0
C47 C 0.01486 0.49187 0.20965 0.0
O48 O 0.06623 0.53848 0.20506 0.0
O49 O 0.99464 0.49307 0.22588 0.0
O50 O 0.11485 0.56149 0.26151 0.0
O51 O 1.00478 0.59543 0.26504 0.0
C52 C 0.98517 0.62909 0.26111 0.0
O53 O 0.9869 0.64624 0.24336 0.0
O54 O 0.09264 0.64958 0.22498 0.0
Mg55 Mg 0.5405 0.1153 0.57493 0.0
C56 C 0.45465 0.09775 0.54338 0.0
O57 O 0.5037 0.15026 0.54159 0.0
C58 C 0.60059 0.05229 0.59161 0.0
O59 O 0.6108 0.04909 0.57341 0.0
C60 C 0.54264 0.18373 0.61047 0.0
O61 O 0.57795 0.16607 0.61747 0.0
O62 O 0.52764 0.176 0.59236 0.0
O63 O 0.45462 0.06671 0.5572 0.0
O64 O 0.61227 0.15137 0.5548 0.0
C65 C 0.60119 0.11528 0.54055 0.0
O66 O 0.54894 0.06419 0.53908 0.0
O67 O 0.56549 0.06986 0.59576 0.0
Mg68 Mg 0.6078 0.57807 0.91253 0.0
C69 C 0.53768 0.45346 0.89077 0.0
O70 O 0.52029 0.43231 0.90782 0.0
C71 C 0.73978 0.64664 0.93002 0.0
O72 O 0.75207 0.66748 0.91268 0.0
C73 C 0.53501 0.50815 0.94271 0.0
O74 O 0.58325 0.50437 0.94311 0.0
O75 O 0.53165 0.54264 0.93089 0.0
O76 O 0.57732 0.50836 0.8896 0.0
O77 O 0.63487 0.65797 0.89673 0.0
C78 C 0.65962 0.65766 0.88138 0.0
O79 O 0.66154 0.61063 0.8769 0.0
O80 O 0.68616 0.60447 0.93278 0.0
C81 C 0.9328 0.18013 0.11092 0.0
C82 C 0.97443 0.16296 0.11527 0.0
C83 C 0.91392 0.202 0.1256 0.0
C84 C 0.93718 0.20813 0.14493 0.0
C85 C 0.97336 0.18484 0.1495 0.0
C86 C 0.99185 0.16244 0.13482 0.0
C87 C 0.931 0.24458 0.1601 0.0
C88 C 0.92651 0.29131 0.15567 0.0
C89 C 0.9409 0.3402 0.16993 0.0
C90 C 0.96757 0.39772 0.16324 0.0
C91 C 0.9894 0.44657 0.1762 0.0
C92 C 0.98368 0.43898 0.19615 0.0
H93 H 0.91076 0.28814 0.19543 0.0
C94 C 0.95329 0.38122 0.20286 0.0
C95 C 0.93242 0.33206 0.18985 0.0
H96 H 0.94832 0.37431 0.2182 0.0
H97 H 0.91733 0.17975 0.09605 0.0
H98 H 0.88345 0.21664 0.1216 0.0
H99 H 0.99111 0.18799 0.16429 0.0
H100 H 0.02348 0.14904 0.13872 0.0
H101 H 0.94081 0.23919 0.17511 0.0
H102 H 0.92206 0.29961 0.14056 0.0
H103 H 0.97427 0.4053 0.14798 0.0
H104 H 0.01217 0.4906 0.17063 0.0
C105 C 0.9014 0.14461 0.44624 0.0
C106 C 0.89317 0.09052 0.4395 0.0
C107 C 0.86571 0.14591 0.46035 0.0
C108 C 0.82109 0.09299 0.46817 0.0
C109 C 0.81409 0.03914 0.46178 0.0
C110 C 0.8497 0.03785 0.44761 0.0
C111 C 0.77778 0.0911 0.48175 0.0
C112 C 0.78429 0.13904 0.49128 0.0
C113 C 0.73677 0.13493 0.50331 0.0
C114 C 0.7532 0.17558 0.51917 0.0
C115 C 0.70911 0.17097 0.53104 0.0
C116 C 0.64777 0.12584 0.5271 0.0
H117 H 0.66011 0.06137 0.4863 0.0
C118 C 0.63119 0.08715 0.51069 0.0
C119 C 0.675 0.09176 0.4989 0.0
H120 H 0.5842 0.05249 0.50704 0.0
H121 H 0.93404 0.18598 0.44014 0.0
H122 H 0.87202 0.18828 0.46442 0.0
H123 H 0.77995 0.9976 0.46745 0.0
H124 H 0.84219 0.99546 0.44271 0.0
H125 H 0.73825 0.04756 0.48393 0.0
H126 H 0.82583 0.1822 0.49083 0.0
H127 H 0.80039 0.20997 0.52268 0.0
H128 H 0.72326 0.20154 0.54356 0.0
C129 C 0.9216 0.98462 0.79416 0.0
C130 C 0.97087 0.98299 0.78762 0.0
C131 C 0.88871 0.94937 0.80908 0.0
C132 C 0.90448 0.91167 0.81784 0.0
C133 C 0.95559 0.91235 0.81194 0.0
C134 C 0.98859 0.94774 0.79704 0.0
C135 C 0.86474 0.86579 0.83118 0.0
C136 C 0.81981 0.86508 0.84024 0.0
C137 C 0.77503 0.81208 0.85029 0.0
C138 C 0.75134 0.81821 0.86732 0.0
C139 C 0.71131 0.76793 0.87725 0.0
C140 C 0.69391 0.71091 0.87005 0.0
H141 H 0.76992 0.74836 0.82907 0.0
C142 C 0.71479 0.70502 0.85237 0.0
C143 C 0.75472 0.75484 0.84262 0.0
H144 H 0.70147 0.66173 0.8462 0.0
H145 H 0.90642 0.01099 0.78717 0.0
H146 H 0.84913 0.94958 0.81285 0.0
H147 H 0.96869 0.88361 0.81838 0.0
H148 H 0.02632 0.94549 0.79236 0.0
H149 H 0.87135 0.82908 0.83298 0.0
H150 H 0.81536 0.90333 0.84036 0.0
H151 H 0.76542 0.86191 0.87329 0.0
H152 H 0.69584 0.77382 0.89082 0.0
C153 C 0.10531 0.97065 0.12644 0.0
C154 C 0.14991 0.03078 0.13083 0.0
C155 C 0.10318 0.92646 0.13762 0.0
C156 C 0.14595 0.94131 0.15343 0.0
C157 C 0.19017 1.00145 0.15792 0.0
C158 C 0.19241 0.04572 0.14669 0.0
C159 C 0.14334 0.89554 0.16615 0.0
C160 C 0.11846 0.83842 0.15998 0.0
C161 C 0.10785 0.79023 0.17292 0.0
C162 C 0.06053 0.7321 0.16729 0.0
C163 C 0.04571 0.68557 0.17939 0.0
C164 C 0.07855 0.69581 0.19731 0.0
H165 H 0.18027 0.84426 0.19516 0.0
C166 C 0.12783 0.75343 0.20264 0.0
C167 C 0.1423 0.80038 0.19058 0.0
H168 H 0.15415 0.76254 0.21633 0.0
H169 H 0.07153 0.95759 0.11443 0.0
H170 H 0.06688 0.88096 0.13407 0.0
H171 H 0.22318 0.01424 0.17015 0.0
H172 H 0.22723 0.09164 0.15053 0.0
H173 H 0.16132 0.90951 0.1811 0.0
H174 H 0.10139 0.82512 0.14493 0.0
H175 H 0.03363 0.72282 0.15371 0.0
H176 H 0.00786 0.64156 0.17475 0.0
C177 C 0.14793 0.12736 0.46411 0.0
C178 C 0.12894 0.10798 0.44455 0.0
C179 C 0.18393 0.11146 0.47464 0.0
C180 C 0.20229 0.0762 0.46578 0.0
C181 C 0.18342 0.05686 0.44625 0.0
C182 C 0.14644 0.0719 0.43579 0.0
C183 C 0.24595 0.06433 0.47606 0.0
C184 C 0.24891 0.05962 0.4954 0.0
C185 C 0.30023 0.06052 0.50622 0.0
C186 C 0.29195 0.03577 0.52446 0.0
C187 C 0.34168 0.04406 0.5362 0.0
C188 C 0.40063 0.07856 0.53003 0.0
H189 H 0.36766 0.11319 0.48597 0.0
C190 C 0.40855 0.10123 0.5115 0.0
C191 C 0.35901 0.09218 0.49969 0.0
H192 H 0.45356 0.12802 0.50638 0.0
H193 H 0.13511 0.15506 0.47132 0.0
H194 H 0.19904 0.12863 0.4895 0.0
H195 H 0.19765 0.03034 0.43902 0.0
H196 H 0.13271 0.05637 0.42073 0.0
H197 H 0.27743 0.06069 0.46738 0.0
H198 H 0.21374 0.05735 0.50379 0.0
H199 H 0.24721 0.01164 0.52991 0.0
H200 H 0.33443 0.02654 0.5505 0.0
C201 C 0.22244 0.22316 0.77934 0.0
C202 C 0.17215 0.22905 0.78057 0.0
C203 C 0.2761 0.25979 0.79092 0.0
C204 C 0.28097 0.30368 0.8038 0.0
C205 C 0.23221 0.31202 0.8042 0.0
C206 C 0.17804 0.27463 0.79288 0.0
C207 C 0.33572 0.34043 0.81725 0.0
C208 C 0.36631 0.31822 0.82605 0.0
C209 C 0.41562 0.35251 0.8415 0.0
C210 C 0.41965 0.32349 0.85773 0.0
C211 C 0.46149 0.35584 0.87346 0.0
C212 C 0.50117 0.41766 0.87301 0.0
H213 H 0.45632 0.43714 0.82806 0.0
C214 C 0.49999 0.44599 0.85614 0.0
C215 C 0.45733 0.41383 0.84061 0.0
H216 H 0.52995 0.49357 0.85529 0.0
H217 H 0.21968 0.18868 0.76999 0.0
H218 H 0.3135 0.25331 0.78992 0.0
H219 H 0.23516 0.34603 0.81386 0.0
H220 H 0.14036 0.2806 0.7941 0.0
H221 H 0.34726 0.38491 0.82154 0.0
H222 H 0.35057 0.27169 0.82338 0.0
H223 H 0.38842 0.27611 0.85864 0.0
H224 H 0.46142 0.33273 0.8862 0.0
C225 C 0.94358 0.122 0.68735 0.0
C226 C 0.94522 0.14482 0.70602 0.0
C227 C 0.90255 0.11777 0.67254 0.0
C228 C 0.86251 0.13657 0.67609 0.0
C229 C 0.86822 0.16441 0.69417 0.0
C230 C 0.90878 0.16816 0.70902 0.0
C231 C 0.81304 0.12626 0.66166 0.0
C232 C 0.78619 0.08061 0.64821 0.0
C233 C 0.73444 0.06859 0.63455 0.0
C234 C 0.72742 0.04172 0.61617 0.0
C235 C 0.68162 0.03326 0.60252 0.0
C236 C 0.64116 0.05062 0.60708 0.0
H237 H 0.69423 0.10126 0.65384 0.0
C238 C 0.64559 0.07371 0.62595 0.0
C239 C 0.69182 0.08277 0.63953 0.0
H240 H 0.61493 0.08712 0.63004 0.0
H241 H 0.97124 0.10396 0.68446 0.0
H242 H 0.90138 0.09843 0.65853 0.0
H243 H 0.83885 0.18042 0.69718 0.0
H244 H 0.90923 0.18653 0.72315 0.0
H245 H 0.79612 0.15556 0.6629 0.0
H246 H 0.80296 0.05125 0.64682 0.0
H247 H 0.75889 0.0293 0.61209 0.0
H248 H 0.6793 0.01502 0.58816 0.0
C249 C 0.98823 0.95749 0.03864 0.0
C250 C 0.96879 0.99759 0.03956 0.0
C251 C 0.95532 0.90502 0.02688 0.0
C252 C 0.90175 0.89124 0.0161 0.0
C253 C 0.88121 0.93021 0.01762 0.0
C254 C 0.91475 0.9832 0.029 0.0
C255 C 0.86606 0.83668 0.0032 0.0
C256 C 0.89179 0.81413 0.99259 0.0
C257 C 0.85559 0.76521 0.9776 0.0
C258 C 0.8791 0.76796 0.9596 0.0
C259 C 0.84259 0.72708 0.94432 0.0
C260 C 0.78233 0.68185 0.94694 0.0
H261 H 0.77801 0.7136 0.99452 0.0
C262 C 0.76066 0.67623 0.96547 0.0
C263 C 0.79676 0.71774 0.98061 0.0
H264 H 0.71455 0.64182 0.96805 0.0
H265 H 0.02973 0.96735 0.0466 0.0
H266 H 0.97164 0.87523 0.02633 0.0
H267 H 0.83981 0.92034 0.00957 0.0
H268 H 0.89838 0.01297 0.02951 0.0
H269 H 0.81755 0.81814 1.00086 0.0
H270 H 0.94093 0.83642 0.99325 0.0
H271 H 0.92459 0.80377 0.95701 0.0
H272 H 0.86074 0.73243 0.93026 0.0
C273 C 0.94097 0.87216 0.36719 0.0
C274 C 0.97206 0.93349 0.36444 0.0
C275 C 0.93992 0.83296 0.3532 0.0
C276 C 0.97034 0.85437 0.33617 0.0
C277 C 1.00156 0.91568 0.33353 0.0
C278 C 1.00262 0.95479 0.34748 0.0
C279 C 0.96901 0.81467 0.32046 0.0
C280 C 0.95485 0.75854 0.32273 0.0
C281 C 0.95675 0.72161 0.30672 0.0
C282 C 0.97061 0.67867 0.31117 0.0
C283 C 0.97738 0.64655 0.29638 0.0
C284 C 0.96981 0.65639 0.27681 0.0
H285 H 0.93248 0.75976 0.28314 0.0
C286 C 0.95238 0.69682 0.2724 0.0
C287 C 0.94575 0.72892 0.28716 0.0
H288 H 0.94534 0.70494 0.25749 0.0
H289 H 0.9166 0.85421 0.38003 0.0
H290 H 0.91406 0.78601 0.35566 0.0
H291 H 0.02518 0.93353 0.32054 0.0
H292 H 0.02693 1.00171 0.34485 0.0
H293 H 0.98332 0.83399 0.30655 0.0
H294 H 0.94589 0.74033 0.33694 0.0
H295 H 0.97837 0.67143 0.32612 0.0
H296 H 0.99049 0.6155 0.3003 0.0
C297 C 0.2124 0.12037 0.69429 0.0
C298 C 0.21637 0.1081 0.71382 0.0
C299 C 0.26097 0.13733 0.68272 0.0
C300 C 0.31472 0.14246 0.69046 0.0
C301 C 0.31833 0.12976 0.70992 0.0
C302 C 0.26998 0.11314 0.7215 0.0
C303 C 0.36643 0.15717 0.67854 0.0
C304 C 0.37747 0.18619 0.66197 0.0
C305 C 0.42595 0.19499 0.64937 0.0
C306 C 0.41831 0.19982 0.62938 0.0
C307 C 0.45876 0.20047 0.61674 0.0
C308 C 0.50807 0.1967 0.62387 0.0
H309 H 0.48735 0.19549 0.67203 0.0
C310 C 0.51856 0.19695 0.64403 0.0
C311 C 0.47812 0.19628 0.65665 0.0
H312 H 0.55661 0.195 0.65005 0.0
H313 H 0.17166 0.11673 0.6879 0.0
H314 H 0.25541 0.14488 0.66766 0.0
H315 H 0.35883 0.13273 0.71624 0.0
H316 H 0.27465 0.104 0.73647 0.0
H317 H 0.39589 0.14217 0.68366 0.0
H318 H 0.34792 0.20093 0.65671 0.0
H319 H 0.37919 0.20003 0.62339 0.0
H320 H 0.44946 0.20074 0.60131 0.0
C321 C 0.24512 0.22292 0.03358 0.0
C322 C 0.2018 0.22988 0.0423 0.0
C323 C 0.27866 0.26007 0.01913 0.0
C324 C 0.26931 0.30493 0.01291 0.0
C325 C 0.22537 0.31131 0.02146 0.0
C326 C 0.19168 0.27399 0.03593 0.0
C327 C 0.30822 0.34858 0.99882 0.0
C328 C 0.337 0.33631 0.98577 0.0
C329 C 0.38569 0.38169 0.97437 0.0
C330 C 0.43157 0.37236 0.96959 0.0
C331 C 0.47988 0.41401 0.95954 0.0
C332 C 0.48305 0.46571 0.95358 0.0
H333 H 0.35279 0.44115 0.97148 0.0
C334 C 0.43637 0.47473 0.95784 0.0
C335 C 0.38817 0.43321 0.96834 0.0
H336 H 0.43747 0.51397 0.95327 0.0
H337 H 0.25445 0.18978 0.03829 0.0
H338 H 0.31354 0.25482 0.01353 0.0
H339 H 0.2177 0.34585 0.01714 0.0
H340 H 0.15897 0.28087 0.04248 0.0
H341 H 0.31549 0.39267 0.99996 0.0
H342 H 0.32866 0.29183 0.98449 0.0
H343 H 0.43068 0.33303 0.97396 0.0
H344 H 0.51455 0.40512 0.95627 0.0
C345 C 0.12463 0.2566 0.35249 0.0
C346 C 0.13212 0.27398 0.37224 0.0
C347 C 0.14734 0.29911 0.33845 0.0
C348 C 0.17864 0.36025 0.3439 0.0
C349 C 0.19033 0.37736 0.36375 0.0
C350 C 0.16736 0.33489 0.37774 0.0
C351 C 0.19315 0.40707 0.32975 0.0
C352 C 0.18307 0.39697 0.31034 0.0
C353 C 0.1821 0.43956 0.2968 0.0
C354 C 0.18223 0.42948 0.27682 0.0
C355 C 0.17045 0.46139 0.26337 0.0
C356 C 0.15785 0.50398 0.26959 0.0
H357 H 0.17129 0.49358 0.31821 0.0
C358 C 0.16146 0.51678 0.28958 0.0
C359 C 0.17314 0.48482 0.30305 0.0
H360 H 0.15193 0.54925 0.2949 0.0
H361 H 0.09794 0.21007 0.34771 0.0
H362 H 0.13707 0.28314 0.32345 0.0
H363 H 0.21459 0.42391 0.36848 0.0
H364 H 0.17465 0.35001 0.39284 0.0
H365 H 0.20912 0.4512 0.33586 0.0
H366 H 0.17165 0.3546 0.30388 0.0
H367 H 0.18882 0.39493 0.27154 0.0
H368 H 0.16825 0.45048 0.24807 0.0
loop_
_geom_bond_atom_site_label_1
_geom_bond_atom_site_label_2
_geom_bond_distance
_geom_bond_site_symmetry_2
_ccdc_geom_bond_type
Mg0 O1 2.028 . S
Mg0 O7 1.986 . S
Mg0 O9 2.114 . S
Mg0 O10 2.251 . S
Mg0 O13 2.010 . S
O1 Mg0 2.028 . S
O1 C4 1.250 . S
O2 Mg3 2.028 . S
O2 C4 1.248 . S
Mg3 O2 2.028 . S
Mg3 O8 2.032 . S
Mg3 O10 2.079 . S
C4 O1 1.250 . S
C4 O2 1.248 . S
C5 O6 1.264 . S
C5 O13 1.249 . S
O6 C5 1.264 . S
O7 Mg0 1.986 . S
O7 C11 1.246 . S
O8 Mg3 2.032 . S
O8 C11 1.259 . S
O9 Mg0 2.114 . S
O9 C12 1.252 . S
O10 Mg0 2.251 . S
O10 Mg3 2.079 . S
O10 C12 1.273 . S
C11 O7 1.246 . S
C11 O8 1.259 . S
C12 O9 1.252 . S
C12 O10 1.273 . S
O13 Mg0 2.010 . S
O13 C5 1.249 . S
Mg14 O15 2.028 1_655 S
Mg14 O21 1.986 1_655 S
Mg14 O23 2.114 . S
Mg14 O24 2.251 . S
Mg14 O27 2.013 . S
O15 Mg14 2.028 1_455 S
O15 C18 1.250 . S
O16 Mg17 2.028 . S
O16 C18 1.248 . S
Mg17 O16 2.028 . S
Mg17 O22 2.032 . S
Mg17 O24 2.079 1_455 S
C18 O15 1.250 . S
C18 O16 1.248 . S
C19 O20 1.264 . S
C19 O27 1.246 1_565 S
O20 C19 1.264 . S
O21 Mg14 1.986 1_455 S
O21 C25 1.246 . S
O22 Mg17 2.032 . S
O22 C25 1.259 . S
O23 Mg14 2.114 . S
O23 C26 1.252 . S
O24 Mg14 2.251 . S
O24 Mg17 2.079 1_655 S
O24 C26 1.273 . S
C25 O21 1.246 . S
C25 O22 1.259 . S
C26 O23 1.252 . S
C26 O24 1.273 . S
O27 Mg14 2.013 . S
O27 C19 1.246 1_545 S
Mg28 O29 2.028 . S
Mg28 O35 1.986 . S
Mg28 O37 2.114 1_545 S
Mg28 O38 2.251 1_455 S
Mg28 O41 2.010 . S
O29 Mg28 2.028 . S
O29 C32 1.250 . S
O30 Mg31 2.028 1_455 S
O30 C32 1.248 . S
Mg31 O30 2.028 1_655 S
Mg31 O36 2.032 . S
Mg31 O38 2.079 . S
C32 O29 1.250 . S
C32 O30 1.248 . S
C33 O34 1.264 1_545 S
C33 O41 1.249 . S
O34 C33 1.264 1_565 S
O35 Mg28 1.986 . S
O35 C39 1.246 1_455 S
O36 Mg31 2.032 . S
O36 C39 1.259 . S
O37 Mg28 2.114 1_565 S
O37 C40 1.252 1_455 S
O38 Mg28 2.251 1_655 S
O38 Mg31 2.079 . S
O38 C40 1.273 1_545 S
C39 O35 1.246 1_655 S
C39 O36 1.259 . S
C40 O37 1.252 1_655 S
C40 O38 1.273 1_565 S
O41 Mg28 2.010 . S
O41 C33 1.249 . S
Mg42 O49 2.141 . S
Mg42 O50 2.048 . S
Mg42 O51 2.048 . S
Mg42 O54 2.141 . S
C43 O44 1.313 1_455 S
C43 O50 1.195 . S
O44 C43 1.313 1_655 S
C45 O46 1.245 . S
C45 O54 1.289 . S
O46 C45 1.245 . S
C47 O48 1.245 . S
C47 O49 1.289 . S
O48 C47 1.245 . S
O49 Mg42 2.141 . S
O49 C47 1.289 . S
O50 Mg42 2.048 . S
O50 C43 1.195 . S
O51 Mg42 2.048 . S
O51 C52 1.195 . S
C52 O51 1.195 . S
C52 O53 1.313 1_455 S
O53 C52 1.313 1_655 S
O54 Mg42 2.141 . S
O54 C45 1.289 . S
Mg55 O62 2.141 . S
Mg55 O63 2.048 . S
Mg55 O64 2.048 . S
Mg55 O67 2.141 . S
C56 O57 1.313 . S
C56 O63 1.195 . S
O57 C56 1.313 . S
C58 O59 1.245 . S
C58 O67 1.289 . S
O59 C58 1.245 . S
C60 O61 1.245 . S
C60 O62 1.289 . S
O61 C60 1.245 . S
O62 Mg55 2.141 . S
O62 C60 1.289 . S
O63 Mg55 2.048 . S
O63 C56 1.195 . S
O64 Mg55 2.048 . S
O64 C65 1.195 . S
C65 O64 1.195 . S
C65 O66 1.313 . S
O66 C65 1.313 . S
O67 Mg55 2.141 . S
O67 C58 1.289 . S
Mg68 O75 2.141 . S
Mg68 O76 2.048 . S
Mg68 O77 2.048 . S
Mg68 O80 2.141 . S
C69 O70 1.313 . S
C69 O76 1.195 . S
O70 C69 1.313 . S
C71 O72 1.245 . S
C71 O80 1.289 . S
O72 C71 1.245 . S
C73 O74 1.245 . S
C73 O75 1.289 . S
O74 C73 1.245 . S
O75 Mg68 2.141 . S
O75 C73 1.289 . S
O76 Mg68 2.048 . S
O76 C69 1.195 . S
O77 Mg68 2.048 . S
O77 C78 1.195 . S
C78 O77 1.195 . S
C78 O79 1.313 . S
O79 C78 1.313 . S
O80 Mg68 2.141 . S
O80 C71 1.289 . S
C81 C82 1.386 . S
C81 C83 1.383 . S
C81 H97 0.951 . S
C82 C81 1.386 . S
C82 C86 1.383 . S
C83 C81 1.383 . S
C83 C84 1.402 . S
C83 H98 0.951 . S
C84 C83 1.402 . S
C84 C85 1.375 . S
C84 C87 1.481 . S
C85 C84 1.375 . S
C85 C86 1.367 . S
C85 H99 0.951 . S
C86 C82 1.383 . S
C86 C85 1.367 . S
C86 H100 0.950 . S
C87 C84 1.481 . S
C87 C88 1.297 . S
C87 H101 0.950 . S
C88 C87 1.297 . S
C88 C89 1.479 . S
C88 H102 0.950 . S
C89 C88 1.479 . S
C89 C90 1.375 . S
C89 C95 1.404 . S
C90 C89 1.375 . S
C90 C91 1.369 . S
C90 H103 0.950 . S
C91 C90 1.369 . S
C91 C92 1.392 . S
C91 H104 0.951 . S
C92 C91 1.392 . S
C92 C94 1.384 . S
H93 C95 0.949 . S
C94 C92 1.384 . S
C94 C95 1.385 . S
C94 H96 0.950 . S
C95 C89 1.404 . S
C95 H93 0.949 . S
C95 C94 1.385 . S
H96 C94 0.950 . S
H97 C81 0.951 . S
H98 C83 0.951 . S
H99 C85 0.951 . S
H100 C86 0.950 . S
H101 C87 0.950 . S
H102 C88 0.950 . S
H103 C90 0.950 . S
H104 C91 0.951 . S
C105 C106 1.386 . S
C105 C107 1.383 . S
C105 H121 0.951 . S
C106 C105 1.386 . S
C106 C110 1.383 . S
C107 C105 1.383 . S
C107 C108 1.402 . S
C107 H122 0.951 . S
C108 C107 1.402 . S
C108 C109 1.375 . S
C108 C111 1.481 . S
C109 C108 1.375 . S
C109 C110 1.367 . S
C109 H123 0.951 1_545 S
C110 C106 1.383 . S
C110 C109 1.367 . S
C110 H124 0.950 1_545 S
C111 C108 1.481 . S
C111 C112 1.297 . S
C111 H125 0.950 . S
C112 C111 1.297 . S
C112 C113 1.479 . S
C112 H126 0.950 . S
C113 C112 1.479 . S
C113 C114 1.375 . S
C113 C119 1.404 . S
C114 C113 1.375 . S
C114 C115 1.369 . S
C114 H127 0.950 . S
C115 C114 1.369 . S
C115 C116 1.392 . S
C115 H128 0.951 . S
C116 C115 1.392 . S
C116 C118 1.384 . S
H117 C119 0.949 . S
C118 C116 1.384 . S
C118 C119 1.385 . S
C118 H120 0.950 . S
C119 C113 1.404 . S
C119 H117 0.949 . S
C119 C118 1.385 . S
H120 C118 0.950 . S
H121 C105 0.951 . S
H122 C107 0.951 . S
H123 C109 0.951 1_565 S
H124 C110 0.950 1_565 S
H125 C111 0.950 . S
H126 C112 0.950 . S
H127 C114 0.950 . S
H128 C115 0.951 . S
C129 C130 1.386 . S
C129 C131 1.383 . S
C129 H145 0.951 1_565 S
C130 C129 1.386 . S
C130 C134 1.383 . S
C131 C129 1.383 . S
C131 C132 1.402 . S
C131 H146 0.951 . S
C132 C131 1.402 . S
C132 C133 1.375 . S
C132 C135 1.481 . S
C133 C132 1.375 . S
C133 C134 1.367 . S
C133 H147 0.951 . S
C134 C130 1.383 . S
C134 C133 1.367 . S
C134 H148 0.950 . S
C135 C132 1.481 . S
C135 C136 1.297 . S
C135 H149 0.950 . S
C136 C135 1.297 . S
C136 C137 1.479 . S
C136 H150 0.950 . S
C137 C136 1.479 . S
C137 C138 1.375 . S
C137 C143 1.404 . S
C138 C137 1.375 . S
C138 C139 1.369 . S
C138 H151 0.950 . S
C139 C138 1.369 . S
C139 C140 1.392 . S
C139 H152 0.951 . S
C140 C139 1.392 . S
C140 C142 1.384 . S
H141 C143 0.949 . S
C142 C140 1.384 . S
C142 C143 1.385 . S
C142 H144 0.950 . S
C143 C137 1.404 . S
C143 H141 0.949 . S
C143 C142 1.385 . S
H144 C142 0.950 . S
H145 C129 0.951 1_545 S
H146 C131 0.951 . S
H147 C133 0.951 . S
H148 C134 0.950 . S
H149 C135 0.950 . S
H150 C136 0.950 . S
H151 C138 0.950 . S
H152 C139 0.951 . S
C153 C154 1.386 . S
C153 C155 1.383 . S
C153 H169 0.951 . S
C154 C153 1.386 . S
C154 C158 1.383 . S
C155 C153 1.383 . S
C155 C156 1.402 . S
C155 H170 0.951 . S
C156 C155 1.402 . S
C156 C157 1.375 . S
C156 C159 1.481 . S
C157 C156 1.375 . S
C157 C158 1.367 . S
C157 H171 0.951 . S
C158 C154 1.383 . S
C158 C157 1.367 . S
C158 H172 0.950 1_565 S
C159 C156 1.481 . S
C159 C160 1.297 . S
C159 H173 0.950 . S
C160 C159 1.297 . S
C160 C161 1.479 . S
C160 H174 0.950 . S
C161 C160 1.479 . S
C161 C162 1.375 . S
C161 C167 1.404 . S
C162 C161 1.375 . S
C162 C163 1.369 . S
C162 H175 0.930 1_455 S
C163 C162 1.369 . S
C163 C164 1.392 . S
C163 H176 0.951 1_455 S
C164 C163 1.392 . S
C164 C166 1.384 . S
H165 C167 0.949 . S
C166 C164 1.384 . S
C166 C167 1.385 . S
C166 H168 0.950 . S
C167 C161 1.404 . S
C167 H165 0.949 . S
C167 C166 1.385 . S
H168 C166 0.950 . S
H169 C153 0.951 . S
H170 C155 0.951 . S
H171 C157 0.951 . S
H172 C158 0.950 1_545 S
H173 C159 0.950 . S
H174 C160 0.950 . S
H175 C162 0.930 1_655 S
H176 C163 0.951 1_655 S
C177 C178 1.386 . S
C177 C179 1.383 . S
C177 H193 0.951 . S
C178 C177 1.386 . S
C178 C182 1.383 . S
C179 C177 1.383 . S
C179 C180 1.402 . S
C179 H194 0.951 . S
C180 C179 1.402 . S
C180 C181 1.375 . S
C180 C183 1.481 . S
C181 C180 1.375 . S
C181 C182 1.367 . S
C181 H195 0.951 . S
C182 C178 1.383 . S
C182 C181 1.367 . S
C182 H196 0.950 . S
C183 C180 1.481 . S
C183 C184 1.297 . S
C183 H197 0.950 . S
C184 C183 1.297 . S
C184 C185 1.479 . S
C184 H198 0.950 . S
C185 C184 1.479 . S
C185 C186 1.375 . S
C185 C191 1.404 . S
C186 C185 1.375 . S
C186 C187 1.369 . S
C186 H199 0.950 . S
C187 C186 1.369 . S
C187 C188 1.392 . S
C187 H200 0.951 . S
C188 C187 1.392 . S
C188 C190 1.384 . S
H189 C191 0.949 . S
C190 C188 1.384 . S
C190 C191 1.385 . S
C190 H192 0.950 . S
C191 C185 1.404 . S
C191 H189 0.949 . S
C191 C190 1.385 . S
H192 C190 0.950 . S
H193 C177 0.951 . S
H194 C179 0.951 . S
H195 C181 0.951 . S
H196 C182 0.950 . S
H197 C183 0.950 . S
H198 C184 0.950 . S
H199 C186 0.950 . S
H200 C187 0.951 . S
C201 C202 1.386 . S
C201 C203 1.383 . S
C201 H217 0.951 . S
C202 C201 1.386 . S
C202 C206 1.383 . S
C203 C201 1.383 . S
C203 C204 1.402 . S
C203 H218 0.951 . S
C204 C203 1.402 . S
C204 C205 1.375 . S
C204 C207 1.481 . S
C205 C204 1.375 . S
C205 C206 1.367 . S
C205 H219 0.951 . S
C206 C202 1.383 . S
C206 C205 1.367 . S
C206 H220 0.950 . S
C207 C204 1.481 . S
C207 C208 1.297 . S
C207 H221 0.950 . S
C208 C207 1.297 . S
C208 C209 1.479 . S
C208 H222 0.950 . S
C209 C208 1.479 . S
C209 C210 1.375 . S
C209 C215 1.404 . S
C210 C209 1.375 . S
C210 C211 1.369 . S
C210 H223 0.950 . S
C211 C210 1.369 . S
C211 C212 1.392 . S
C211 H224 0.951 . S
C212 C211 1.392 . S
C212 C214 1.384 . S
H213 C215 0.949 . S
C214 C212 1.384 . S
C214 C215 1.385 . S
C214 H216 0.950 . S
C215 C209 1.404 . S
C215 H213 0.949 . S
C215 C214 1.385 . S
H216 C214 0.950 . S
H217 C201 0.951 . S
H218 C203 0.951 . S
H219 C205 0.951 . S
H220 C206 0.950 . S
H221 C207 0.950 . S
H222 C208 0.950 . S
H223 C210 0.950 . S
H224 C211 0.951 . S
C225 C226 1.386 . S
C225 C227 1.383 . S
C225 H241 0.951 . S
C226 C225 1.386 . S
C226 C230 1.383 . S
C227 C225 1.383 . S
C227 C228 1.402 . S
C227 H242 0.951 . S
C228 C227 1.402 . S
C228 C229 1.375 . S
C228 C231 1.481 . S
C229 C228 1.375 . S
C229 C230 1.367 . S
C229 H243 0.951 . S
C230 C226 1.383 . S
C230 C229 1.367 . S
C230 H244 0.950 . S
C231 C228 1.481 . S
C231 C232 1.297 . S
C231 H245 0.950 . S
C232 C231 1.297 . S
C232 C233 1.479 . S
C232 H246 0.950 . S
C233 C232 1.479 . S
C233 C234 1.375 . S
C233 C239 1.404 . S
C234 C233 1.375 . S
C234 C235 1.369 . S
C234 H247 0.950 . S
C235 C234 1.369 . S
C235 C236 1.392 . S
C235 H248 0.951 . S
C236 C235 1.392 . S
C236 C238 1.384 . S
H237 C239 0.949 . S
C238 C236 1.384 . S
C238 C239 1.385 . S
C238 H240 0.950 . S
C239 C233 1.404 . S
C239 H237 0.949 . S
C239 C238 1.385 . S
H240 C238 0.950 . S
H241 C225 0.951 . S
H242 C227 0.951 . S
H243 C229 0.951 . S
H244 C230 0.950 . S
H245 C231 0.950 . S
H246 C232 0.950 . S
H247 C234 0.950 . S
H248 C235 0.951 . S
C249 C250 1.386 1_565 S
C249 C251 1.383 . S
C249 H265 0.951 1_655 S
C250 C249 1.386 1_545 S
C250 C254 1.383 . S
C251 C249 1.383 . S
C251 C252 1.402 . S
C251 H266 0.951 . S
C252 C251 1.402 . S
C252 C253 1.375 . S
C252 C255 1.481 . S
C253 C252 1.375 . S
C253 C254 1.367 1_565 S
C253 H267 0.951 . S
C254 C250 1.383 . S
C254 C253 1.367 1_545 S
C254 H268 0.950 . S
C255 C252 1.481 . S
C255 C256 1.297 1_554 S
C255 H269 0.950 1_554 S
C256 C255 1.297 1_556 S
C256 C257 1.479 . S
C256 H270 0.950 1_556 S
C257 C256 1.479 . S
C257 C258 1.375 . S
C257 C263 1.404 . S
C258 C257 1.375 . S
C258 C259 1.369 . S
C258 H271 0.950 . S
C259 C258 1.369 . S
C259 C260 1.392 . S
C259 H272 0.951 . S
C260 C259 1.392 . S
C260 C262 1.384 . S
H261 C263 0.949 . S
C262 C260 1.384 . S
C262 C263 1.385 . S
C262 H264 0.950 . S
C263 C257 1.404 . S
C263 H261 0.949 . S
C263 C262 1.385 . S
H264 C262 0.950 . S
H265 C249 0.951 1_455 S
H266 C251 0.951 . S
H267 C253 0.951 . S
H268 C254 0.950 . S
H269 C255 0.950 1_556 S
H270 C256 0.950 1_554 S
H271 C258 0.950 . S
H272 C259 0.951 . S
C273 C274 1.386 1_455 S
C273 C275 1.383 . S
C273 H289 0.951 . S
C274 C273 1.386 1_655 S
C274 C278 1.383 . S
C275 C273 1.383 . S
C275 C276 1.402 1_455 S
C275 H290 0.951 . S
C276 C275 1.402 1_655 S
C276 C277 1.375 . S
C276 C279 1.478 1_655 S
C277 C276 1.375 . S
C277 C278 1.367 . S
C277 H291 0.951 . S
C278 C274 1.383 . S
C278 C277 1.367 . S
C278 H292 0.950 . S
C279 C276 1.478 1_455 S
C279 C280 1.301 . S
C279 H293 0.949 1_455 S
C280 C279 1.301 . S
C280 C281 1.479 . S
C280 H294 0.950 . S
C281 C280 1.479 . S
C281 C282 1.375 . S
C281 C287 1.404 . S
C282 C281 1.375 . S
C282 C283 1.369 . S
C282 H295 0.950 . S
C283 C282 1.369 . S
C283 C284 1.392 . S
C283 H296 0.951 . S
C284 C283 1.392 . S
C284 C286 1.384 . S
H285 C287 0.949 1_655 S
C286 C284 1.384 . S
C286 C287 1.385 . S
C286 H288 0.950 . S
C287 C281 1.404 . S
C287 H285 0.949 1_455 S
C287 C286 1.385 . S
H288 C286 0.950 . S
H289 C273 0.951 . S
H290 C275 0.951 . S
H291 C277 0.951 . S
H292 C278 0.950 . S
H293 C279 0.949 1_655 S
H294 C280 0.950 . S
H295 C282 0.950 . S
H296 C283 0.951 . S
C297 C298 1.386 . S
C297 C299 1.383 . S
C297 H313 0.951 . S
C298 C297 1.386 . S
C298 C302 1.383 . S
C299 C297 1.383 . S
C299 C300 1.402 . S
C299 H314 0.951 . S
C300 C299 1.402 . S
C300 C301 1.375 . S
C300 C303 1.481 . S
C301 C300 1.375 . S
C301 C302 1.367 . S
C301 H315 0.951 . S
C302 C298 1.383 . S
C302 C301 1.367 . S
C302 H316 0.950 . S
C303 C300 1.481 . S
C303 C304 1.297 . S
C303 H317 0.950 . S
C304 C303 1.297 . S
C304 C305 1.479 . S
C304 H318 0.950 . S
C305 C304 1.479 . S
C305 C306 1.375 . S
C305 C311 1.404 . S
C306 C305 1.375 . S
C306 C307 1.369 . S
C306 H319 0.950 . S
C307 C306 1.369 . S
C307 C308 1.392 . S
C307 H320 0.951 . S
C308 C307 1.392 . S
C308 C310 1.384 . S
H309 C311 0.949 . S
C310 C308 1.384 . S
C310 C311 1.385 . S
C310 H312 0.950 . S
C311 C305 1.404 . S
C311 H309 0.949 . S
C311 C310 1.385 . S
H312 C310 0.950 . S
H313 C297 0.951 . S
H314 C299 0.951 . S
H315 C301 0.951 . S
H316 C302 0.950 . S
H317 C303 0.950 . S
H318 C304 0.950 . S
H319 C306 0.950 . S
H320 C307 0.951 . S
C321 C322 1.386 . S
C321 C323 1.383 . S
C321 H337 0.951 . S
C322 C321 1.386 . S
C322 C326 1.383 . S
C323 C321 1.383 . S
C323 C324 1.402 . S
C323 H338 0.988 . S
C324 C323 1.402 . S
C324 C325 1.375 . S
C324 C327 1.481 1_554 S
C325 C324 1.375 . S
C325 C326 1.367 . S
C325 H339 0.951 . S
C326 C322 1.383 . S
C326 C325 1.367 . S
C326 H340 0.950 . S
C327 C324 1.481 1_556 S
C327 C328 1.297 . S
C327 H341 0.948 1_556 S
C328 C327 1.297 . S
C328 C329 1.479 . S
C328 H342 0.950 . S
C329 C328 1.479 . S
C329 C330 1.375 . S
C329 C335 1.404 . S
C330 C329 1.375 . S
C330 C331 1.369 . S
C330 H343 0.950 . S
C331 C330 1.369 . S
C331 C332 1.392 . S
C331 H344 0.951 . S
C332 C331 1.392 . S
C332 C334 1.384 . S
H333 C335 0.949 . S
C334 C332 1.384 . S
C334 C335 1.385 . S
C334 H336 0.950 . S
C335 C329 1.404 . S
C335 H333 0.949 . S
C335 C334 1.385 . S
H336 C334 0.950 . S
H337 C321 0.951 . S
H338 C323 0.988 . S
H339 C325 0.951 . S
H340 C326 0.950 . S
H341 C327 0.948 1_554 S
H342 C328 0.950 . S
H343 C330 0.950 . S
H344 C331 0.951 . S
C345 C346 1.386 . S
C345 C347 1.383 . S
C345 H361 0.951 1_455 S
C346 C345 1.386 . S
C346 C350 1.383 . S
C347 C345 1.383 . S
C347 C348 1.402 . S
C347 H362 0.951 1_455 S
C348 C347 1.402 . S
C348 C349 1.375 . S
C348 C351 1.481 . S
C349 C348 1.375 . S
C349 C350 1.367 . S
C349 H363 0.951 . S
C350 C346 1.383 . S
C350 C349 1.367 . S
C350 H364 0.950 . S
C351 C348 1.481 . S
C351 C352 1.297 . S
C351 H365 0.950 . S
C352 C351 1.297 . S
C352 C353 1.479 . S
C352 H366 0.950 1_455 S
C353 C352 1.479 . S
C353 C354 1.375 . S
C353 C359 1.404 . S
C354 C353 1.375 . S
C354 C355 1.369 . S
C354 H367 0.950 1_455 S
C355 C354 1.369 . S
C355 C356 1.392 . S
C355 H368 0.951 1_455 S
C356 C355 1.392 . S
C356 C358 1.384 . S
H357 C359 0.949 . S
C358 C356 1.384 . S
C358 C359 1.385 . S
C358 H360 0.950 . S
C359 C353 1.404 . S
C359 H357 0.949 . S
C359 C358 1.385 . S
H360 C358 0.950 . S
H361 C345 0.951 1_655 S
H362 C347 0.951 1_655 S
H363 C349 0.951 . S
H364 C350 0.950 . S
H365 C351 0.950 . S
H366 C352 0.950 1_655 S
H367 C354 0.950 1_655 S
H368 C355 0.951 1_655 S
C92 C47 1.280 . S
C82 C11 1.336 . S
C106 C26 1.510 . S
C116 C65 1.473 . S
C130 C40 1.398 . S
C140 C78 1.396 . S
C154 C5 1.138 1_565 S
C164 C45 1.297 . S
C188 C56 1.503 . S
C178 C18 1.509 . S
C202 C32 1.378 . S
C212 C69 1.397 . S
C236 C58 1.167 . S
C226 C39 1.185 . S
C250 C4 1.324 1_655 S
C260 C71 1.332 . S
C284 C52 1.348 . S
C274 C19 1.163 . S
C308 C60 1.257 . S
C298 C33 1.143 . S
C332 C73 1.330 . S
C322 C12 1.311 . S
C346 C25 1.388 . S
C356 C43 1.395 . S
