# Generated by pormake.
# Topology pto, (3,4)-cn, num edge types: 1
# Building blocks:
#     Node 0, Type 0, BuildingBlock: WUSLED_clean_sbu_0, # of connection points: 3
#     Node 1, Type 0, BuildingBlock: WUSLED_clean_sbu_0, # of connection points: 3
#     Node 2, Type 0, BuildingBlock: WUSLED_clean_sbu_0, # of connection points: 3
#     Node 3, Type 0, BuildingBlock: WUSLED_clean_sbu_0, # of connection points: 3
#     Node 4, Type 0, BuildingBlock: WUSLED_clean_sbu_0, # of connection points: 3
#     Node 5, Type 0, BuildingBlock: WUSLED_clean_sbu_0, # of connection points: 3
#     Node 6, Type 0, BuildingBlock: WUSLED_clean_sbu_0, # of connection points: 3
#     Node 7, Type 0, BuildingBlock: WUSLED_clean_sbu_0, # of connection points: 3
#     Node 8, Type 1, BuildingBlock: NAWXER_clean_sbu_0, # of connection points: 4
#     Node 9, Type 1, BuildingBlock: NAWXER_clean_sbu_0, # of connection points: 4
#     Node 10, Type 1, BuildingBlock: NAWXER_clean_sbu_0, # of connection points: 4
#     Node 11, Type 1, BuildingBlock: NAWXER_clean_sbu_0, # of connection points: 4
#     Node 12, Type 1, BuildingBlock: NAWXER_clean_sbu_0, # of connection points: 4
#     Node 13, Type 1, BuildingBlock: NAWXER_clean_sbu_0, # of connection points: 4
#     Edge 14, Type (0, 1), None
#     Edge 15, Type (0, 1), None
#     Edge 16, Type (0, 1), None
#     Edge 17, Type (0, 1), None
#     Edge 18, Type (0, 1), None
#     Edge 19, Type (0, 1), None
#     Edge 20, Type (0, 1), None
#     Edge 21, Type (0, 1), None
#     Edge 22, Type (0, 1), None
#     Edge 23, Type (0, 1), None
#     Edge 24, Type (0, 1), None
#     Edge 25, Type (0, 1), None
#     Edge 26, Type (0, 1), None
#     Edge 27, Type (0, 1), None
#     Edge 28, Type (0, 1), None
#     Edge 29, Type (0, 1), None
#     Edge 30, Type (0, 1), None
#     Edge 31, Type (0, 1), None
#     Edge 32, Type (0, 1), None
#     Edge 33, Type (0, 1), None
#     Edge 34, Type (0, 1), None
#     Edge 35, Type (0, 1), None
#     Edge 36, Type (0, 1), None
#     Edge 37, Type (0, 1), None
# Relax obj value: 0.000
# Max RMSD: 0.006
# Mean RMSD: 0.004
data_MOF--net-pto--node1-WUSLED_clean_sbu_0--node2-NAWXER_clean_sbu_0--edge1-none
_symmetry_space_group_name_H-M    P1
_symmetry_Int_Tables_number       1
_symmetry_cell_setting            triclinic
loop_
_symmetry_equiv_pos_as_xyz
'x, y, z'
_cell_length_a     30.372199
_cell_length_b     28.712047
_cell_length_c     27.590853
_cell_angle_alpha  89.831323
_cell_angle_beta   90.598021
_cell_angle_gamma 90.720889
loop_
_atom_site_label
_atom_site_type_symbol
_atom_site_fract_x
_atom_site_fract_y
_atom_site_fract_z
_atom_type_partial_charge
C0 C 0.23256 0.19273 0.3371 0.0
C1 C 0.27472 0.17664 0.34922 0.0
C2 C 0.24338 0.12353 0.4092 0.0
C3 C 0.28009 0.14255 0.38505 0.0
C4 C 0.20107 0.13847 0.3956 0.0
C5 C 0.19576 0.17291 0.35999 0.0
U6 U 0.27021 0.26588 0.22853 0.0
O7 O 0.23133 0.30044 0.17106 0.0
O8 O 0.27363 0.3419 0.21981 0.0
C9 C 0.2436 0.34238 0.18516 0.0
C10 C 0.22671 0.23163 0.30265 0.0
C11 C 0.20819 0.37661 0.19089 0.0
C12 C 0.15719 0.41898 0.24135 0.0
C13 C 0.18846 0.38396 0.23596 0.0
C14 C 0.16389 0.43874 0.15634 0.0
C15 C 0.14487 0.44717 0.2017 0.0
C16 C 0.1953 0.40387 0.15106 0.0
C17 C 0.37625 0.23335 0.16291 0.0
C18 C 0.41761 0.28689 0.11189 0.0
C19 C 0.43928 0.20614 0.11756 0.0
C20 C 0.40435 0.19734 0.14927 0.0
C21 C 0.44681 0.25127 0.09923 0.0
C22 C 0.38263 0.27799 0.14329 0.0
C23 C 0.34207 0.22454 0.19947 0.0
O24 O 0.25589 0.26566 0.30634 0.0
O25 O 0.2177 0.22011 0.2575 0.0
O26 O 0.30257 0.21383 0.1827 0.0
O27 O 0.34138 0.25447 0.23541 0.0
H28 H 0.3036 0.1912 0.33177 0.0
H29 H 0.31313 0.13168 0.39437 0.0
H30 H 0.17212 0.12461 0.41348 0.0
H31 H 0.16294 0.18482 0.35107 0.0
H32 H 0.14313 0.42432 0.27677 0.0
H33 H 0.19781 0.36319 0.26718 0.0
H34 H 0.1552 0.45971 0.12503 0.0
H35 H 0.21015 0.39873 0.11597 0.0
H36 H 0.42223 0.32202 0.09829 0.0
H37 H 0.46113 0.17797 0.10865 0.0
H38 H 0.39989 0.16262 0.16406 0.0
H39 H 0.36118 0.30623 0.15318 0.0
C40 C 0.23329 0.89201 0.71178 0.0
C41 C 0.27473 0.91229 0.70297 0.0
C42 C 0.2444 0.95572 0.63437 0.0
C43 C 0.28026 0.94381 0.66457 0.0
C44 C 0.20282 0.93581 0.64397 0.0
C45 C 0.19738 0.90423 0.68226 0.0
U46 U 0.27055 0.82865 0.82782 0.0
O47 O 0.23058 0.80235 0.88862 0.0
O48 O 0.26889 0.75393 0.84524 0.0
C49 C 0.23923 0.75857 0.87918 0.0
C50 C 0.22713 0.85704 0.75044 0.0
C51 C 0.2008 0.72698 0.87468 0.0
C52 C 0.14169 0.69347 0.82571 0.0
C53 C 0.17521 0.72671 0.83214 0.0
C54 C 0.15722 0.66165 0.9054 0.0
C55 C 0.13289 0.65986 0.86178 0.0
C56 C 0.19107 0.69489 0.91168 0.0
C57 C 0.38079 0.86194 0.8891 0.0
C58 C 0.42804 0.81145 0.93708 0.0
C59 C 0.43956 0.89503 0.9394 0.0
C60 C 0.40423 0.90077 0.90697 0.0
C61 C 0.45232 0.85024 0.95423 0.0
C62 C 0.39252 0.81725 0.90504 0.0
C63 C 0.34594 0.86853 0.85207 0.0
O64 O 0.25473 0.82215 0.75021 0.0
O65 O 0.22022 0.87342 0.79411 0.0
O66 O 0.3078 0.88319 0.86768 0.0
O67 O 0.3421 0.83546 0.81938 0.0
H68 H 0.30287 0.90336 0.72545 0.0
H69 H 0.31271 0.95853 0.65837 0.0
H70 H 0.17449 0.94417 0.62155 0.0
H71 H 0.16515 0.8889 0.68851 0.0
H72 H 0.12347 0.69331 0.79175 0.0
H73 H 0.18209 0.75131 0.80325 0.0
H74 H 0.15143 0.63618 0.93373 0.0
H75 H 0.21052 0.69464 0.94482 0.0
H76 H 0.43671 0.77649 0.94802 0.0
H77 H 0.45752 0.92564 0.95192 0.0
H78 H 0.39572 0.93554 0.89511 0.0
H79 H 0.37476 0.78672 0.89202 0.0
C80 C 0.73891 0.86243 0.18025 0.0
C81 C 0.72872 0.81818 0.16143 0.0
C82 C 0.66331 0.84895 0.1209 0.0
C83 C 0.69121 0.81147 0.13209 0.0
C84 C 0.67411 0.89329 0.13941 0.0
C85 C 0.71148 0.89989 0.16881 0.0
U86 U 0.85316 0.83262 0.23454 0.0
O87 O 0.90575 0.88068 0.25961 0.0
O88 O 0.87435 0.83271 0.31097 0.0
C89 C 0.90147 0.86829 0.30523 0.0
C90 C 0.77675 0.8702 0.21335 0.0
C91 C 0.89566 0.90661 0.33981 0.0
C92 C 0.84874 0.96412 0.37655 0.0
C93 C 0.85588 0.93072 0.34087 0.0
C94 C 0.92188 0.95133 0.40945 0.0
C95 C 0.88127 0.97417 0.41191 0.0
C96 C 0.92893 0.91765 0.3737 0.0
C97 C 0.91871 0.72767 0.19234 0.0
C98 C 0.97176 0.68595 0.24212 0.0
C99 C 0.96735 0.67116 0.15582 0.0
C100 C 0.93383 0.70409 0.15139 0.0
C101 C 0.98597 0.66096 0.20147 0.0
C102 C 0.93866 0.71913 0.23757 0.0
C103 C 0.88063 0.75892 0.18803 0.0
O104 O 0.78224 0.83883 0.2476 0.0
O105 O 0.81388 0.88367 0.19329 0.0
O106 O 0.88913 0.80174 0.17356 0.0
O107 O 0.85275 0.75689 0.22414 0.0
H108 H 0.74949 0.78875 0.16979 0.0
H109 H 0.68404 0.77691 0.11831 0.0
H110 H 0.6535 0.92297 0.1315 0.0
H111 H 0.71873 0.93429 0.18308 0.0
H112 H 0.81711 0.98112 0.37719 0.0
H113 H 0.82986 0.92275 0.31491 0.0
H114 H 0.94747 0.95805 0.43623 0.0
H115 H 0.95989 0.89932 0.37336 0.0
H116 H 0.9856 0.67922 0.27776 0.0
H117 H 0.97747 0.65248 0.12384 0.0
H118 H 0.91891 0.71026 0.11615 0.0
H119 H 0.92784 0.73721 0.26965 0.0
C120 C 0.82333 0.16035 0.74003 0.0
C121 C 0.86543 0.16007 0.71928 0.0
C122 C 0.83813 0.10941 0.65443 0.0
C123 C 0.87287 0.13443 0.67685 0.0
C124 C 0.79646 0.10915 0.67627 0.0
C125 C 0.78924 0.13423 0.71857 0.0
U126 U 0.84328 0.26457 0.82586 0.0
O127 O 0.79522 0.31618 0.8494 0.0
O128 O 0.82776 0.27152 0.90333 0.0
C129 C 0.79741 0.30292 0.89494 0.0
C130 C 0.8127 0.18968 0.78191 0.0
C131 C 0.75459 0.29622 0.9188 0.0
C132 C 0.69333 0.2478 0.94675 0.0
C133 C 0.73467 0.25209 0.92462 0.0
C134 C 0.69161 0.33154 0.95678 0.0
C135 C 0.67128 0.28761 0.96292 0.0
C136 C 0.73272 0.3357 0.93508 0.0
C137 C 0.94201 0.34797 0.8062 0.0
C138 C 0.97025 0.40936 0.85951 0.0
C139 C 0.98483 0.41235 0.77341 0.0
C140 C 0.96157 0.37068 0.76685 0.0
C141 C 0.98938 0.43244 0.81972 0.0
C142 C 0.94648 0.36748 0.85276 0.0
C143 C 0.91637 0.30494 0.79656 0.0
O144 O 0.83942 0.18805 0.8197 0.0
O145 O 0.8001 0.23204 0.77099 0.0
O146 O 0.87798 0.31116 0.77534 0.0
O147 O 0.91544 0.27301 0.83087 0.0
H148 H 0.89212 0.18038 0.73523 0.0
H149 H 0.90525 0.13547 0.66078 0.0
H150 H 0.76902 0.09003 0.66026 0.0
H151 H 0.75654 0.13409 0.73395 0.0
H152 H 0.67856 0.2135 0.95085 0.0
H153 H 0.75091 0.22112 0.91191 0.0
H154 H 0.67584 0.36301 0.96883 0.0
H155 H 0.74744 0.37005 0.93078 0.0
H156 H 0.97307 0.42395 0.89559 0.0
H157 H 0.99926 0.42884 0.74189 0.0
H158 H 0.9585 0.3563 0.73066 0.0
H159 H 0.93137 0.35064 0.8837 0.0
C160 C 0.8628 0.67512 0.77938 0.0
C161 C 0.88555 0.67309 0.7353 0.0
C162 C 0.94465 0.6297 0.77473 0.0
C163 C 0.92622 0.65032 0.73294 0.0
C164 C 0.92139 0.63215 0.81854 0.0
C165 C 0.88105 0.65451 0.82074 0.0
U166 U 0.77526 0.76414 0.73958 0.0
O167 O 0.70343 0.76238 0.74962 0.0
O168 O 0.74377 0.81714 0.7844 0.0
C169 C 0.7046 0.79761 0.78004 0.0
C170 C 0.82099 0.6999 0.78456 0.0
C171 C 0.68009 0.79219 0.82558 0.0
C172 C 0.6483 0.74523 0.89041 0.0
C173 C 0.67219 0.74851 0.84723 0.0
C174 C 0.64079 0.82913 0.8909 0.0
C175 C 0.6323 0.78561 0.91267 0.0
C176 C 0.66429 0.8323 0.84786 0.0
C177 C 0.7904 0.83823 0.62538 0.0
C178 C 0.75349 0.91221 0.61253 0.0
C179 C 0.81117 0.88807 0.55834 0.0
C180 C 0.81556 0.8465 0.58404 0.0
C181 C 0.78125 0.92192 0.57331 0.0
C182 C 0.75823 0.87052 0.6387 0.0
C183 C 0.80283 0.79955 0.65747 0.0
O184 O 0.82491 0.74454 0.79407 0.0
O185 O 0.78937 0.69009 0.75311 0.0
O186 O 0.77545 0.76377 0.65959 0.0
O187 O 0.81828 0.81245 0.70005 0.0
H188 H 0.87202 0.68925 0.70299 0.0
H189 H 0.94324 0.64906 0.69868 0.0
H190 H 0.93427 0.61668 0.85153 0.0
H191 H 0.86415 0.65596 0.85511 0.0
H192 H 0.64239 0.71122 0.90629 0.0
H193 H 0.68434 0.71702 0.8308 0.0
H194 H 0.62898 0.861 0.90686 0.0
H195 H 0.67008 0.86631 0.83182 0.0
H196 H 0.73074 0.93817 0.62512 0.0
H197 H 0.83308 0.89501 0.52832 0.0
H198 H 0.84061 0.82212 0.57337 0.0
H199 H 0.73872 0.86471 0.67087 0.0
C200 C 0.66488 0.33514 0.2367 0.0
C201 C 0.67383 0.37088 0.20311 0.0
C202 C 0.6096 0.34728 0.15529 0.0
C203 C 0.64604 0.37717 0.16264 0.0
C204 C 0.59953 0.31356 0.19058 0.0
C205 C 0.6268 0.30773 0.23102 0.0
U206 U 0.77716 0.34449 0.3023 0.0
O207 O 0.79368 0.33165 0.37916 0.0
O208 O 0.82171 0.28791 0.32235 0.0
C209 C 0.81751 0.29507 0.36904 0.0
C210 C 0.69699 0.32154 0.27418 0.0
C211 C 0.80998 0.25297 0.39834 0.0
C212 C 0.76683 0.18411 0.4204 0.0
C213 C 0.77088 0.22638 0.39487 0.0
C214 C 0.84051 0.19554 0.45314 0.0
C215 C 0.80201 0.16792 0.4492 0.0
C216 C 0.84437 0.23752 0.42804 0.0
C217 C 0.86477 0.43417 0.26485 0.0
C218 C 0.9286 0.46103 0.31173 0.0
C219 C 0.92799 0.46831 0.22425 0.0
C220 C 0.88603 0.44795 0.22228 0.0
C221 C 0.94965 0.47561 0.26899 0.0
C222 C 0.88655 0.44029 0.30967 0.0
C223 C 0.82009 0.41359 0.26117 0.0
O224 O 0.73249 0.30155 0.25773 0.0
O225 O 0.70524 0.35165 0.30904 0.0
O226 O 0.79425 0.4191 0.29867 0.0
O227 O 0.81788 0.37149 0.24272 0.0
H228 H 0.70338 0.39215 0.20684 0.0
H229 H 0.65481 0.40287 0.13547 0.0
H230 H 0.57173 0.28997 0.18553 0.0
H231 H 0.61946 0.27993 0.25646 0.0
H232 H 0.73679 0.16365 0.41661 0.0
H233 H 0.74405 0.2378 0.37175 0.0
H234 H 0.86818 0.18449 0.47524 0.0
H235 H 0.8748 0.25749 0.431 0.0
H236 H 0.94434 0.46611 0.34675 0.0
H237 H 0.94307 0.4791 0.19056 0.0
H238 H 0.86994 0.44332 0.18734 0.0
H239 H 0.87097 0.42947 0.34307 0.0
C240 C 0.29579 0.24828 0.65234 0.0
C241 C 0.33748 0.23001 0.64258 0.0
C242 C 0.30299 0.16142 0.6056 0.0
C243 C 0.34105 0.18686 0.61924 0.0
C244 C 0.26149 0.17969 0.61653 0.0
C245 C 0.258 0.22261 0.63956 0.0
U246 U 0.33085 0.34697 0.7396 0.0
O247 O 0.31816 0.42244 0.7329 0.0
O248 O 0.29124 0.38226 0.79374 0.0
C249 C 0.29089 0.42183 0.76968 0.0
C250 C 0.29015 0.29373 0.67583 0.0
C251 C 0.2468 0.44273 0.76216 0.0
C252 C 0.19891 0.50124 0.72538 0.0
C253 C 0.23983 0.47892 0.72836 0.0
C254 C 0.17127 0.45069 0.78877 0.0
C255 C 0.16472 0.48804 0.75664 0.0
C256 C 0.21163 0.42843 0.79158 0.0
C257 C 0.43667 0.33274 0.81715 0.0
C258 C 0.45318 0.3728 0.89311 0.0
C259 C 0.4987 0.3091 0.86692 0.0
C260 C 0.4733 0.30452 0.82481 0.0
C261 C 0.48821 0.34229 0.90219 0.0
C262 C 0.42723 0.36776 0.8509 0.0
C263 C 0.40597 0.3201 0.77764 0.0
O264 O 0.28214 0.29205 0.72247 0.0
O265 O 0.31774 0.32738 0.66367 0.0
O266 O 0.40364 0.34825 0.73999 0.0
O267 O 0.3674 0.30453 0.79191 0.0
H268 H 0.36711 0.2492 0.6526 0.0
H269 H 0.37348 0.17378 0.61135 0.0
H270 H 0.23144 0.16115 0.60672 0.0
H271 H 0.22557 0.236 0.64707 0.0
H272 H 0.19484 0.53028 0.70066 0.0
H273 H 0.26634 0.49094 0.70535 0.0
H274 H 0.14544 0.43957 0.81321 0.0
H275 H 0.21552 0.40091 0.81816 0.0
H276 H 0.44425 0.39848 0.91983 0.0
H277 H 0.52571 0.28534 0.87275 0.0
H278 H 0.48097 0.27719 0.79934 0.0
H279 H 0.39873 0.38961 0.84571 0.0
C280 C 0.22856 0.69643 0.32969 0.0
C281 C 0.22392 0.67897 0.28245 0.0
C282 C 0.16073 0.63165 0.30703 0.0
C283 C 0.19023 0.64706 0.27119 0.0
C284 C 0.16644 0.64803 0.35471 0.0
C285 C 0.19999 0.68031 0.36585 0.0
U286 U 0.33692 0.76182 0.30547 0.0
O287 O 0.34997 0.83709 0.30162 0.0
O288 O 0.38383 0.79504 0.35666 0.0
C289 C 0.3755 0.83713 0.34037 0.0
C290 C 0.26132 0.73321 0.34104 0.0
C291 C 0.36439 0.87188 0.37722 0.0
C292 C 0.31001 0.91096 0.42588 0.0
C293 C 0.32101 0.87582 0.39342 0.0
C294 C 0.386 0.93772 0.42777 0.0
C295 C 0.34226 0.94266 0.44306 0.0
C296 C 0.39691 0.90266 0.39495 0.0
C297 C 0.41155 0.72673 0.20248 0.0
C298 C 0.46586 0.78073 0.16984 0.0
C299 C 0.46132 0.70172 0.13942 0.0
C300 C 0.42698 0.69197 0.17159 0.0
C301 C 0.48043 0.74658 0.13742 0.0
C302 C 0.43189 0.77085 0.20217 0.0
C303 C 0.37265 0.71788 0.23268 0.0
O304 O 0.29955 0.7192 0.35803 0.0
O305 O 0.26495 0.76639 0.30835 0.0
O306 O 0.34108 0.74842 0.22739 0.0
O307 O 0.38064 0.70715 0.27826 0.0
H308 H 0.24578 0.69076 0.25402 0.0
H309 H 0.18702 0.63491 0.23417 0.0
H310 H 0.14434 0.63686 0.38314 0.0
H311 H 0.20308 0.69341 0.40254 0.0
H312 H 0.27606 0.91353 0.43711 0.0
H313 H 0.29548 0.85222 0.38026 0.0
H314 H 0.41159 0.96152 0.44029 0.0
H315 H 0.43059 0.90007 0.3828 0.0
H316 H 0.48001 0.81556 0.16949 0.0
H317 H 0.4717 0.6747 0.11489 0.0
H318 H 0.41166 0.65768 0.17142 0.0
H319 H 0.42057 0.79808 0.22595 0.0
C320 C 0.99271 0.50067 0.27042 0.0
C321 C 0.12342 0.60014 0.29391 0.0
O322 O 1.01116 0.51174 0.31041 0.0
Zn323 Zn 0.0593 0.54833 0.28329 0.0
O324 O 1.01022 0.514 0.23055 0.0
Zn325 Zn 0.06582 0.55475 0.20708 0.0
O326 O 0.10117 0.51055 0.17225 0.0
O327 O 0.10041 0.49658 0.25079 0.0
O328 O 0.11408 0.59295 0.24908 0.0
O329 O 0.09983 0.58102 0.32637 0.0
O330 O 1.02389 0.60511 0.25024 0.0
O331 O 1.03606 0.60385 0.17155 0.0
C332 C 0.11373 0.48617 0.20822 0.0
C333 C 1.01743 0.62222 0.20777 0.0
C334 C 1.01358 0.47748 0.82484 0.0
C335 C 0.10187 0.62078 0.851 0.0
O336 O 1.02505 0.4938 0.86607 0.0
Zn337 Zn 0.05566 0.54953 0.84182 0.0
O338 O 1.02366 0.50006 0.78626 0.0
Zn339 Zn 0.05707 0.56244 0.76404 0.0
O340 O 0.10602 0.53686 0.72642 0.0
O341 O 0.10817 0.51873 0.8043 0.0
O342 O 0.09182 0.61249 0.80665 0.0
O343 O 0.08773 0.59345 0.88397 0.0
O344 O 1.00239 0.58872 0.81419 0.0
O345 O 1.00878 0.59869 0.7353 0.0
C346 C 0.12444 0.51585 0.76186 0.0
C347 C 0.98739 0.60505 0.77416 0.0
C348 C 0.25059 0.98794 0.59263 0.0
C349 C 0.24974 0.09056 0.45017 0.0
O350 O 0.21805 0.99966 0.56616 0.0
Zn351 Zn 0.24959 1.03855 0.52061 0.0
O352 O 0.28917 1.00365 0.58245 0.0
Zn353 Zn 0.31862 0.04849 0.52838 0.0
O354 O 0.34236 0.09996 0.56661 0.0
O355 O 0.26979 0.09726 0.56364 0.0
O356 O 0.28835 0.08538 0.46859 0.0
O357 O 0.21719 0.06911 0.46894 0.0
O358 O 0.2887 0.98952 0.48203 0.0
O359 O 0.35858 1.00739 0.49545 0.0
C360 C 0.30556 0.11722 0.57811 0.0
C361 C 0.32961 0.9814 0.47528 0.0
C362 C 0.62334 0.84192 0.09006 0.0
C363 C 0.49147 0.84351 0.98604 0.0
O364 O 0.61267 0.80106 0.07484 0.0
Zn365 Zn 0.56147 0.77012 0.0299 0.0
O366 O 0.59952 0.87625 0.07812 0.0
Zn367 Zn 0.55662 0.84318 0.03875 0.0
O368 O 0.52018 0.80239 0.09016 0.0
O369 O 0.53051 0.72828 0.0736 0.0
O370 O 0.51035 0.87793 1.0069 0.0
O371 O 0.50715 0.80253 0.99182 0.0
O372 O 0.59473 0.74452 0.97652 0.0
O373 O 0.59433 0.8213 0.97782 0.0
C374 C 0.51258 0.75925 0.09937 0.0
C375 C 0.60628 0.78328 0.95785 0.0
C376 C 0.78645 0.96944 0.55398 0.0
C377 C 0.80052 0.12202 0.47403 0.0
O378 O 0.75431 0.99251 0.5367 0.0
Zn379 Zn 0.78991 0.04588 0.51449 0.0
O380 O 0.82549 0.98667 0.55326 0.0
Zn381 Zn 0.86018 0.0471 0.52981 0.0
O382 O 0.88095 0.075 0.59084 0.0
O383 O 0.80872 0.07653 0.58185 0.0
O384 O 0.83646 0.10577 0.49138 0.0
O385 O 0.76492 0.09855 0.4785 0.0
O386 O 0.82989 1.01328 0.46137 0.0
O387 O 0.89984 1.0186 0.48354 0.0
C388 C 0.84335 0.08576 0.60712 0.0
C389 C 0.87045 1.00449 0.45349 0.0
C390 C 0.58711 0.34407 0.10782 0.0
C391 C 0.51092 0.34036 0.94984 0.0
O392 O 0.58228 0.30351 0.0893 0.0
Zn393 Zn 0.55637 0.27077 1.02606 0.0
O394 O 0.57319 0.37972 0.08503 0.0
Zn395 Zn 0.54834 0.34541 0.02943 0.0
O396 O 0.49686 0.30522 0.06255 0.0
O397 O 0.51114 0.23055 0.05409 0.0
O398 O 0.51711 0.37639 0.97593 0.0
O399 O 0.52404 0.30069 0.96514 0.0
O400 O 0.6095 0.24567 0.99702 0.0
O401 O 0.60754 0.32246 0.99619 0.0
C402 C 0.48631 0.26242 0.06986 0.0
C403 C 0.62742 0.28461 0.98617 0.0
loop_
_geom_bond_atom_site_label_1
_geom_bond_atom_site_label_2
_geom_bond_distance
_geom_bond_site_symmetry_2
_ccdc_geom_bond_type
C0 C1 1.264 . S
C0 C5 1.479 . S
C0 C10 1.465 . S
C1 C0 1.264 . S
C1 C3 1.339 . S
C1 H28 0.931 . S
C2 C3 1.395 . S
C2 C4 1.320 . S
C3 C1 1.339 . S
C3 C2 1.395 . S
C3 H29 0.929 . S
C4 C2 1.320 . S
C4 C5 1.405 . S
C4 H30 0.930 . S
C5 C0 1.479 . S
C5 C4 1.405 . S
C5 H31 0.931 . S
U6 O7 2.454 . S
U6 O8 2.458 . S
U6 C9 2.984 . S
U6 C10 2.847 . S
U6 C23 2.882 . S
U6 O24 2.441 . S
U6 O25 2.420 . S
U6 O26 2.455 . S
U6 O27 2.449 . S
O7 U6 2.454 . S
O7 C9 1.353 . S
O8 U6 2.458 . S
O8 C9 1.286 . S
C9 U6 2.984 . S
C9 O7 1.353 . S
C9 O8 1.286 . S
C9 C11 1.363 . S
C10 C0 1.465 . S
C10 U6 2.847 . S
C10 O24 1.249 . S
C10 O25 1.202 . S
C11 C9 1.363 . S
C11 C13 1.408 . S
C11 C16 1.342 . S
C12 C13 1.310 . S
C12 C15 1.461 . S
C12 H32 0.932 . S
C13 C11 1.408 . S
C13 C12 1.310 . S
C13 H33 0.930 . S
C14 C15 1.474 . S
C14 C16 1.285 . S
C14 H34 0.929 . S
C15 C12 1.461 . S
C15 C14 1.474 . S
C16 C11 1.342 . S
C16 C14 1.285 . S
C16 H35 0.930 . S
C17 C20 1.424 . S
C17 C22 1.245 . S
C17 C23 1.428 . S
C18 C21 1.260 . S
C18 C22 1.477 . S
C18 H36 0.932 . S
C19 C20 1.384 . S
C19 C21 1.479 . S
C19 H37 0.929 . S
C20 C17 1.424 . S
C20 C19 1.384 . S
C20 H38 0.928 . S
C21 C18 1.260 . S
C21 C19 1.479 . S
C22 C17 1.245 . S
C22 C18 1.477 . S
C22 H39 0.932 . S
C23 U6 2.882 . S
C23 C17 1.428 . S
C23 O26 1.301 . S
C23 O27 1.282 . S
O24 U6 2.441 . S
O24 C10 1.249 . S
O25 U6 2.420 . S
O25 C10 1.202 . S
O26 U6 2.455 . S
O26 C23 1.301 . S
O27 U6 2.449 . S
O27 C23 1.282 . S
H28 C1 0.931 . S
H29 C3 0.929 . S
H30 C4 0.930 . S
H31 C5 0.931 . S
H32 C12 0.932 . S
H33 C13 0.930 . S
H34 C14 0.929 . S
H35 C16 0.930 . S
H36 C18 0.932 . S
H37 C19 0.929 . S
H38 C20 0.928 . S
H39 C22 0.932 . S
C40 C41 1.264 . S
C40 C45 1.479 . S
C40 C50 1.465 . S
C41 C40 1.264 . S
C41 C43 1.339 . S
C41 H68 0.931 . S
C42 C43 1.395 . S
C42 C44 1.320 . S
C43 C41 1.339 . S
C43 C42 1.395 . S
C43 H69 0.929 . S
C44 C42 1.320 . S
C44 C45 1.405 . S
C44 H70 0.930 . S
C45 C40 1.479 . S
C45 C44 1.405 . S
C45 H71 0.931 . S
U46 O47 2.454 . S
U46 O48 2.458 . S
U46 C49 2.984 . S
U46 C50 2.847 . S
U46 C63 2.882 . S
U46 O64 2.441 . S
U46 O65 2.420 . S
U46 O66 2.455 . S
U46 O67 2.449 . S
O47 U46 2.454 . S
O47 C49 1.353 . S
O48 U46 2.458 . S
O48 C49 1.286 . S
C49 U46 2.984 . S
C49 O47 1.353 . S
C49 O48 1.286 . S
C49 C51 1.363 . S
C50 C40 1.465 . S
C50 U46 2.847 . S
C50 O64 1.249 . S
C50 O65 1.202 . S
C51 C49 1.363 . S
C51 C53 1.408 . S
C51 C56 1.342 . S
C52 C53 1.310 . S
C52 C55 1.461 . S
C52 H72 0.932 . S
C53 C51 1.408 . S
C53 C52 1.310 . S
C53 H73 0.930 . S
C54 C55 1.474 . S
C54 C56 1.285 . S
C54 H74 0.929 . S
C55 C52 1.461 . S
C55 C54 1.474 . S
C56 C51 1.342 . S
C56 C54 1.285 . S
C56 H75 0.930 . S
C57 C60 1.424 . S
C57 C62 1.245 . S
C57 C63 1.428 . S
C58 C61 1.260 . S
C58 C62 1.477 . S
C58 H76 0.932 . S
C59 C60 1.384 . S
C59 C61 1.479 . S
C59 H77 0.929 . S
C60 C57 1.424 . S
C60 C59 1.384 . S
C60 H78 0.928 . S
C61 C58 1.260 . S
C61 C59 1.479 . S
C62 C57 1.245 . S
C62 C58 1.477 . S
C62 H79 0.932 . S
C63 U46 2.882 . S
C63 C57 1.428 . S
C63 O66 1.301 . S
C63 O67 1.282 . S
O64 U46 2.441 . S
O64 C50 1.249 . S
O65 U46 2.420 . S
O65 C50 1.202 . S
O66 U46 2.455 . S
O66 C63 1.301 . S
O67 U46 2.449 . S
O67 C63 1.282 . S
H68 C41 0.931 . S
H69 C43 0.929 . S
H70 C44 0.930 . S
H71 C45 0.931 . S
H72 C52 0.932 . S
H73 C53 0.930 . S
H74 C54 0.929 . S
H75 C56 0.930 . S
H76 C58 0.932 . S
H77 C59 0.929 . S
H78 C60 0.928 . S
H79 C62 0.932 . S
C80 C81 1.264 . S
C80 C85 1.479 . S
C80 C90 1.465 . S
C81 C80 1.264 . S
C81 C83 1.339 . S
C81 H108 0.931 . S
C82 C83 1.395 . S
C82 C84 1.320 . S
C83 C81 1.339 . S
C83 C82 1.395 . S
C83 H109 0.929 . S
C84 C82 1.320 . S
C84 C85 1.405 . S
C84 H110 0.930 . S
C85 C80 1.479 . S
C85 C84 1.405 . S
C85 H111 0.931 . S
U86 O87 2.454 . S
U86 O88 2.458 . S
U86 C89 2.984 . S
U86 C90 2.847 . S
U86 C103 2.882 . S
U86 O104 2.441 . S
U86 O105 2.420 . S
U86 O106 2.455 . S
U86 O107 2.449 . S
O87 U86 2.454 . S
O87 C89 1.353 . S
O88 U86 2.458 . S
O88 C89 1.286 . S
C89 U86 2.984 . S
C89 O87 1.353 . S
C89 O88 1.286 . S
C89 C91 1.363 . S
C90 C80 1.465 . S
C90 U86 2.847 . S
C90 O104 1.249 . S
C90 O105 1.202 . S
C91 C89 1.363 . S
C91 C93 1.408 . S
C91 C96 1.342 . S
C92 C93 1.310 . S
C92 C95 1.461 . S
C92 H112 0.932 . S
C93 C91 1.408 . S
C93 C92 1.310 . S
C93 H113 0.930 . S
C94 C95 1.474 . S
C94 C96 1.285 . S
C94 H114 0.929 . S
C95 C92 1.461 . S
C95 C94 1.474 . S
C96 C91 1.342 . S
C96 C94 1.285 . S
C96 H115 0.930 . S
C97 C100 1.424 . S
C97 C102 1.245 . S
C97 C103 1.428 . S
C98 C101 1.260 . S
C98 C102 1.477 . S
C98 H116 0.932 . S
C99 C100 1.384 . S
C99 C101 1.479 . S
C99 H117 0.929 . S
C100 C97 1.424 . S
C100 C99 1.384 . S
C100 H118 0.928 . S
C101 C98 1.260 . S
C101 C99 1.479 . S
C102 C97 1.245 . S
C102 C98 1.477 . S
C102 H119 0.932 . S
C103 U86 2.882 . S
C103 C97 1.428 . S
C103 O106 1.301 . S
C103 O107 1.282 . S
O104 U86 2.441 . S
O104 C90 1.249 . S
O105 U86 2.420 . S
O105 C90 1.202 . S
O106 U86 2.455 . S
O106 C103 1.301 . S
O107 U86 2.449 . S
O107 C103 1.282 . S
H108 C81 0.931 . S
H109 C83 0.929 . S
H110 C84 0.930 . S
H111 C85 0.931 . S
H112 C92 0.932 . S
H113 C93 0.930 . S
H114 C94 0.929 . S
H115 C96 0.930 . S
H116 C98 0.932 . S
H117 C99 0.929 . S
H118 C100 0.928 . S
H119 C102 0.932 . S
C120 C121 1.264 . S
C120 C125 1.479 . S
C120 C130 1.465 . S
C121 C120 1.264 . S
C121 C123 1.339 . S
C121 H148 0.931 . S
C122 C123 1.395 . S
C122 C124 1.320 . S
C123 C121 1.339 . S
C123 C122 1.395 . S
C123 H149 0.929 . S
C124 C122 1.320 . S
C124 C125 1.405 . S
C124 H150 0.930 . S
C125 C120 1.479 . S
C125 C124 1.405 . S
C125 H151 0.931 . S
U126 O127 2.454 . S
U126 O128 2.458 . S
U126 C129 2.984 . S
U126 C130 2.847 . S
U126 C143 2.882 . S
U126 O144 2.441 . S
U126 O145 2.420 . S
U126 O146 2.455 . S
U126 O147 2.449 . S
O127 U126 2.454 . S
O127 C129 1.353 . S
O128 U126 2.458 . S
O128 C129 1.286 . S
C129 U126 2.984 . S
C129 O127 1.353 . S
C129 O128 1.286 . S
C129 C131 1.363 . S
C130 C120 1.465 . S
C130 U126 2.847 . S
C130 O144 1.249 . S
C130 O145 1.202 . S
C131 C129 1.363 . S
C131 C133 1.408 . S
C131 C136 1.342 . S
C132 C133 1.310 . S
C132 C135 1.461 . S
C132 H152 0.932 . S
C133 C131 1.408 . S
C133 C132 1.310 . S
C133 H153 0.930 . S
C134 C135 1.474 . S
C134 C136 1.285 . S
C134 H154 0.929 . S
C135 C132 1.461 . S
C135 C134 1.474 . S
C136 C131 1.342 . S
C136 C134 1.285 . S
C136 H155 0.930 . S
C137 C140 1.424 . S
C137 C142 1.245 . S
C137 C143 1.428 . S
C138 C141 1.260 . S
C138 C142 1.477 . S
C138 H156 0.932 . S
C139 C140 1.384 . S
C139 C141 1.479 . S
C139 H157 0.929 . S
C140 C137 1.424 . S
C140 C139 1.384 . S
C140 H158 0.928 . S
C141 C138 1.260 . S
C141 C139 1.479 . S
C142 C137 1.245 . S
C142 C138 1.477 . S
C142 H159 0.932 . S
C143 U126 2.882 . S
C143 C137 1.428 . S
C143 O146 1.301 . S
C143 O147 1.282 . S
O144 U126 2.441 . S
O144 C130 1.249 . S
O145 U126 2.420 . S
O145 C130 1.202 . S
O146 U126 2.455 . S
O146 C143 1.301 . S
O147 U126 2.449 . S
O147 C143 1.282 . S
H148 C121 0.931 . S
H149 C123 0.929 . S
H150 C124 0.930 . S
H151 C125 0.931 . S
H152 C132 0.932 . S
H153 C133 0.930 . S
H154 C134 0.929 . S
H155 C136 0.930 . S
H156 C138 0.932 . S
H157 C139 0.929 . S
H158 C140 0.928 . S
H159 C142 0.932 . S
C160 C161 1.264 . S
C160 C165 1.479 . S
C160 C170 1.465 . S
C161 C160 1.264 . S
C161 C163 1.339 . S
C161 H188 0.931 . S
C162 C163 1.395 . S
C162 C164 1.320 . S
C163 C161 1.339 . S
C163 C162 1.395 . S
C163 H189 0.929 . S
C164 C162 1.320 . S
C164 C165 1.405 . S
C164 H190 0.930 . S
C165 C160 1.479 . S
C165 C164 1.405 . S
C165 H191 0.931 . S
U166 O167 2.454 . S
U166 O168 2.458 . S
U166 C169 2.984 . S
U166 C170 2.847 . S
U166 C183 2.882 . S
U166 O184 2.441 . S
U166 O185 2.420 . S
U166 O186 2.455 . S
U166 O187 2.449 . S
O167 U166 2.454 . S
O167 C169 1.353 . S
O168 U166 2.458 . S
O168 C169 1.286 . S
C169 U166 2.984 . S
C169 O167 1.353 . S
C169 O168 1.286 . S
C169 C171 1.363 . S
C170 C160 1.465 . S
C170 U166 2.847 . S
C170 O184 1.249 . S
C170 O185 1.202 . S
C171 C169 1.363 . S
C171 C173 1.408 . S
C171 C176 1.342 . S
C172 C173 1.310 . S
C172 C175 1.461 . S
C172 H192 0.932 . S
C173 C171 1.408 . S
C173 C172 1.310 . S
C173 H193 0.930 . S
C174 C175 1.474 . S
C174 C176 1.285 . S
C174 H194 0.929 . S
C175 C172 1.461 . S
C175 C174 1.474 . S
C176 C171 1.342 . S
C176 C174 1.285 . S
C176 H195 0.930 . S
C177 C180 1.424 . S
C177 C182 1.245 . S
C177 C183 1.428 . S
C178 C181 1.260 . S
C178 C182 1.477 . S
C178 H196 0.932 . S
C179 C180 1.384 . S
C179 C181 1.479 . S
C179 H197 0.929 . S
C180 C177 1.424 . S
C180 C179 1.384 . S
C180 H198 0.928 . S
C181 C178 1.260 . S
C181 C179 1.479 . S
C182 C177 1.245 . S
C182 C178 1.477 . S
C182 H199 0.932 . S
C183 U166 2.882 . S
C183 C177 1.428 . S
C183 O186 1.301 . S
C183 O187 1.282 . S
O184 U166 2.441 . S
O184 C170 1.249 . S
O185 U166 2.420 . S
O185 C170 1.202 . S
O186 U166 2.455 . S
O186 C183 1.301 . S
O187 U166 2.449 . S
O187 C183 1.282 . S
H188 C161 0.931 . S
H189 C163 0.929 . S
H190 C164 0.930 . S
H191 C165 0.931 . S
H192 C172 0.932 . S
H193 C173 0.930 . S
H194 C174 0.929 . S
H195 C176 0.930 . S
H196 C178 0.932 . S
H197 C179 0.929 . S
H198 C180 0.928 . S
H199 C182 0.932 . S
C200 C201 1.264 . S
C200 C205 1.479 . S
C200 C210 1.465 . S
C201 C200 1.264 . S
C201 C203 1.339 . S
C201 H228 0.931 . S
C202 C203 1.395 . S
C202 C204 1.320 . S
C203 C201 1.339 . S
C203 C202 1.395 . S
C203 H229 0.929 . S
C204 C202 1.320 . S
C204 C205 1.405 . S
C204 H230 0.930 . S
C205 C200 1.479 . S
C205 C204 1.405 . S
C205 H231 0.931 . S
U206 O207 2.454 . S
U206 O208 2.458 . S
U206 C209 2.984 . S
U206 C210 2.847 . S
U206 C223 2.882 . S
U206 O224 2.441 . S
U206 O225 2.420 . S
U206 O226 2.455 . S
U206 O227 2.449 . S
O207 U206 2.454 . S
O207 C209 1.353 . S
O208 U206 2.458 . S
O208 C209 1.286 . S
C209 U206 2.984 . S
C209 O207 1.353 . S
C209 O208 1.286 . S
C209 C211 1.363 . S
C210 C200 1.465 . S
C210 U206 2.847 . S
C210 O224 1.249 . S
C210 O225 1.202 . S
C211 C209 1.363 . S
C211 C213 1.408 . S
C211 C216 1.342 . S
C212 C213 1.310 . S
C212 C215 1.461 . S
C212 H232 0.932 . S
C213 C211 1.408 . S
C213 C212 1.310 . S
C213 H233 0.930 . S
C214 C215 1.474 . S
C214 C216 1.285 . S
C214 H234 0.929 . S
C215 C212 1.461 . S
C215 C214 1.474 . S
C216 C211 1.342 . S
C216 C214 1.285 . S
C216 H235 0.930 . S
C217 C220 1.424 . S
C217 C222 1.245 . S
C217 C223 1.428 . S
C218 C221 1.260 . S
C218 C222 1.477 . S
C218 H236 0.932 . S
C219 C220 1.384 . S
C219 C221 1.479 . S
C219 H237 0.929 . S
C220 C217 1.424 . S
C220 C219 1.384 . S
C220 H238 0.928 . S
C221 C218 1.260 . S
C221 C219 1.479 . S
C222 C217 1.245 . S
C222 C218 1.477 . S
C222 H239 0.932 . S
C223 U206 2.882 . S
C223 C217 1.428 . S
C223 O226 1.301 . S
C223 O227 1.282 . S
O224 U206 2.441 . S
O224 C210 1.249 . S
O225 U206 2.420 . S
O225 C210 1.202 . S
O226 U206 2.455 . S
O226 C223 1.301 . S
O227 U206 2.449 . S
O227 C223 1.282 . S
H228 C201 0.931 . S
H229 C203 0.929 . S
H230 C204 0.930 . S
H231 C205 0.931 . S
H232 C212 0.932 . S
H233 C213 0.930 . S
H234 C214 0.929 . S
H235 C216 0.930 . S
H236 C218 0.932 . S
H237 C219 0.929 . S
H238 C220 0.928 . S
H239 C222 0.932 . S
C240 C241 1.264 . S
C240 C245 1.479 . S
C240 C250 1.465 . S
C241 C240 1.264 . S
C241 C243 1.339 . S
C241 H268 0.931 . S
C242 C243 1.395 . S
C242 C244 1.320 . S
C243 C241 1.339 . S
C243 C242 1.395 . S
C243 H269 0.929 . S
C244 C242 1.320 . S
C244 C245 1.405 . S
C244 H270 0.930 . S
C245 C240 1.479 . S
C245 C244 1.405 . S
C245 H271 0.931 . S
U246 O247 2.454 . S
U246 O248 2.458 . S
U246 C249 2.984 . S
U246 C250 2.847 . S
U246 C263 2.882 . S
U246 O264 2.441 . S
U246 O265 2.420 . S
U246 O266 2.455 . S
U246 O267 2.449 . S
O247 U246 2.454 . S
O247 C249 1.353 . S
O248 U246 2.458 . S
O248 C249 1.286 . S
C249 U246 2.984 . S
C249 O247 1.353 . S
C249 O248 1.286 . S
C249 C251 1.363 . S
C250 C240 1.465 . S
C250 U246 2.847 . S
C250 O264 1.249 . S
C250 O265 1.202 . S
C251 C249 1.363 . S
C251 C253 1.408 . S
C251 C256 1.342 . S
C252 C253 1.310 . S
C252 C255 1.461 . S
C252 H272 0.932 . S
C253 C251 1.408 . S
C253 C252 1.310 . S
C253 H273 0.930 . S
C254 C255 1.474 . S
C254 C256 1.285 . S
C254 H274 0.929 . S
C255 C252 1.461 . S
C255 C254 1.474 . S
C256 C251 1.342 . S
C256 C254 1.285 . S
C256 H275 0.930 . S
C257 C260 1.424 . S
C257 C262 1.245 . S
C257 C263 1.428 . S
C258 C261 1.260 . S
C258 C262 1.477 . S
C258 H276 0.932 . S
C259 C260 1.384 . S
C259 C261 1.479 . S
C259 H277 0.929 . S
C260 C257 1.424 . S
C260 C259 1.384 . S
C260 H278 0.928 . S
C261 C258 1.260 . S
C261 C259 1.479 . S
C262 C257 1.245 . S
C262 C258 1.477 . S
C262 H279 0.932 . S
C263 U246 2.882 . S
C263 C257 1.428 . S
C263 O266 1.301 . S
C263 O267 1.282 . S
O264 U246 2.441 . S
O264 C250 1.249 . S
O265 U246 2.420 . S
O265 C250 1.202 . S
O266 U246 2.455 . S
O266 C263 1.301 . S
O267 U246 2.449 . S
O267 C263 1.282 . S
H268 C241 0.931 . S
H269 C243 0.929 . S
H270 C244 0.930 . S
H271 C245 0.931 . S
H272 C252 0.932 . S
H273 C253 0.930 . S
H274 C254 0.929 . S
H275 C256 0.930 . S
H276 C258 0.932 . S
H277 C259 0.929 . S
H278 C260 0.928 . S
H279 C262 0.932 . S
C280 C281 1.264 . S
C280 C285 1.479 . S
C280 C290 1.465 . S
C281 C280 1.264 . S
C281 C283 1.339 . S
C281 H308 0.931 . S
C282 C283 1.395 . S
C282 C284 1.320 . S
C283 C281 1.339 . S
C283 C282 1.395 . S
C283 H309 0.929 . S
C284 C282 1.320 . S
C284 C285 1.405 . S
C284 H310 0.930 . S
C285 C280 1.479 . S
C285 C284 1.405 . S
C285 H311 0.931 . S
U286 O287 2.454 . S
U286 O288 2.458 . S
U286 C289 2.984 . S
U286 C290 2.847 . S
U286 C303 2.882 . S
U286 O304 2.441 . S
U286 O305 2.420 . S
U286 O306 2.455 . S
U286 O307 2.449 . S
O287 U286 2.454 . S
O287 C289 1.353 . S
O288 U286 2.458 . S
O288 C289 1.286 . S
C289 U286 2.984 . S
C289 O287 1.353 . S
C289 O288 1.286 . S
C289 C291 1.363 . S
C290 C280 1.465 . S
C290 U286 2.847 . S
C290 O304 1.249 . S
C290 O305 1.202 . S
C291 C289 1.363 . S
C291 C293 1.408 . S
C291 C296 1.342 . S
C292 C293 1.310 . S
C292 C295 1.461 . S
C292 H312 0.932 . S
C293 C291 1.408 . S
C293 C292 1.310 . S
C293 H313 0.930 . S
C294 C295 1.474 . S
C294 C296 1.285 . S
C294 H314 0.929 . S
C295 C292 1.461 . S
C295 C294 1.474 . S
C296 C291 1.342 . S
C296 C294 1.285 . S
C296 H315 0.930 . S
C297 C300 1.424 . S
C297 C302 1.245 . S
C297 C303 1.428 . S
C298 C301 1.260 . S
C298 C302 1.477 . S
C298 H316 0.932 . S
C299 C300 1.384 . S
C299 C301 1.479 . S
C299 H317 0.929 . S
C300 C297 1.424 . S
C300 C299 1.384 . S
C300 H318 0.928 . S
C301 C298 1.260 . S
C301 C299 1.479 . S
C302 C297 1.245 . S
C302 C298 1.477 . S
C302 H319 0.932 . S
C303 U286 2.882 . S
C303 C297 1.428 . S
C303 O306 1.301 . S
C303 O307 1.282 . S
O304 U286 2.441 . S
O304 C290 1.249 . S
O305 U286 2.420 . S
O305 C290 1.202 . S
O306 U286 2.455 . S
O306 C303 1.301 . S
O307 U286 2.449 . S
O307 C303 1.282 . S
H308 C281 0.931 . S
H309 C283 0.929 . S
H310 C284 0.930 . S
H311 C285 0.931 . S
H312 C292 0.932 . S
H313 C293 0.930 . S
H314 C294 0.929 . S
H315 C296 0.930 . S
H316 C298 0.932 . S
H317 C299 0.929 . S
H318 C300 0.928 . S
H319 C302 0.932 . S
C320 O322 1.247 . S
C320 O324 1.258 . S
C321 O328 1.247 . S
C321 O329 1.258 . S
O322 C320 1.247 . S
O322 Zn323 2.028 1_655 S
Zn323 O322 2.028 1_455 S
Zn323 O327 2.035 . S
Zn323 O329 2.035 . S
Zn323 O330 2.028 1_455 S
O324 C320 1.258 . S
O324 Zn325 2.035 1_655 S
Zn325 O324 2.035 1_455 S
Zn325 O326 2.028 . S
Zn325 O328 2.028 . S
Zn325 O331 2.035 1_455 S
O326 Zn325 2.028 . S
O326 C332 1.247 . S
O327 Zn323 2.035 . S
O327 C332 1.258 . S
O328 C321 1.247 . S
O328 Zn325 2.028 . S
O329 C321 1.258 . S
O329 Zn323 2.035 . S
O330 Zn323 2.028 1_655 S
O330 C333 1.247 . S
O331 Zn325 2.035 1_655 S
O331 C333 1.258 . S
C332 O326 1.247 . S
C332 O327 1.258 . S
C333 O330 1.247 . S
C333 O331 1.258 . S
C334 O336 1.247 . S
C334 O338 1.258 . S
C335 O342 1.247 . S
C335 O343 1.258 . S
O336 C334 1.247 . S
O336 Zn337 2.028 1_655 S
Zn337 O336 2.028 1_455 S
Zn337 O341 2.035 . S
Zn337 O343 2.035 . S
Zn337 O344 2.028 1_455 S
O338 C334 1.258 . S
O338 Zn339 2.035 1_655 S
Zn339 O338 2.035 1_455 S
Zn339 O340 2.028 . S
Zn339 O342 2.028 . S
Zn339 O345 2.035 1_455 S
O340 Zn339 2.028 . S
O340 C346 1.247 . S
O341 Zn337 2.035 . S
O341 C346 1.258 . S
O342 C335 1.247 . S
O342 Zn339 2.028 . S
O343 C335 1.258 . S
O343 Zn337 2.035 . S
O344 Zn337 2.028 1_655 S
O344 C347 1.247 . S
O345 Zn339 2.035 1_655 S
O345 C347 1.258 . S
C346 O340 1.247 . S
C346 O341 1.258 . S
C347 O344 1.247 . S
C347 O345 1.258 . S
C348 O350 1.247 . S
C348 O352 1.258 . S
C349 O356 1.247 . S
C349 O357 1.258 . S
O350 C348 1.247 . S
O350 Zn351 2.028 1_565 S
Zn351 O350 2.028 1_545 S
Zn351 O355 2.035 . S
Zn351 O357 2.035 . S
Zn351 O358 2.028 1_545 S
O352 C348 1.258 . S
O352 Zn353 2.035 1_565 S
Zn353 O352 2.035 1_545 S
Zn353 O354 2.028 . S
Zn353 O356 2.028 . S
Zn353 O359 2.035 1_545 S
O354 Zn353 2.028 . S
O354 C360 1.247 . S
O355 Zn351 2.035 . S
O355 C360 1.258 . S
O356 C349 1.247 . S
O356 Zn353 2.028 . S
O357 C349 1.258 . S
O357 Zn351 2.035 . S
O358 Zn351 2.028 1_565 S
O358 C361 1.247 . S
O359 Zn353 2.035 1_565 S
O359 C361 1.258 . S
C360 O354 1.247 . S
C360 O355 1.258 . S
C361 O358 1.247 . S
C361 O359 1.258 . S
C362 O364 1.247 . S
C362 O366 1.258 . S
C363 O370 1.247 . S
C363 O371 1.258 . S
O364 C362 1.247 . S
O364 Zn365 2.028 . S
Zn365 O364 2.028 . S
Zn365 O369 2.035 . S
Zn365 O371 2.035 1_554 S
Zn365 O372 2.028 1_554 S
O366 C362 1.258 . S
O366 Zn367 2.035 . S
Zn367 O366 2.035 . S
Zn367 O368 2.028 . S
Zn367 O370 2.028 1_554 S
Zn367 O373 2.035 1_554 S
O368 Zn367 2.028 . S
O368 C374 1.247 . S
O369 Zn365 2.035 . S
O369 C374 1.258 . S
O370 C363 1.247 . S
O370 Zn367 2.028 1_556 S
O371 C363 1.258 . S
O371 Zn365 2.035 1_556 S
O372 Zn365 2.028 1_556 S
O372 C375 1.247 . S
O373 Zn367 2.035 1_556 S
O373 C375 1.258 . S
C374 O368 1.247 . S
C374 O369 1.258 . S
C375 O372 1.247 . S
C375 O373 1.258 . S
C376 O378 1.247 . S
C376 O380 1.258 . S
C377 O384 1.247 . S
C377 O385 1.258 . S
O378 C376 1.247 . S
O378 Zn379 2.027 1_565 S
Zn379 O378 2.027 1_545 S
Zn379 O383 2.036 . S
Zn379 O385 2.036 . S
Zn379 O386 2.027 1_545 S
O380 C376 1.258 . S
O380 Zn381 2.035 1_565 S
Zn381 O380 2.035 1_545 S
Zn381 O382 2.028 . S
Zn381 O384 2.028 . S
Zn381 O387 2.035 1_545 S
O382 Zn381 2.028 . S
O382 C388 1.247 . S
O383 Zn379 2.036 . S
O383 C388 1.258 . S
O384 C377 1.247 . S
O384 Zn381 2.028 . S
O385 C377 1.258 . S
O385 Zn379 2.036 . S
O386 Zn379 2.027 1_565 S
O386 C389 1.247 . S
O387 Zn381 2.035 1_565 S
O387 C389 1.258 . S
C388 O382 1.247 . S
C388 O383 1.258 . S
C389 O386 1.247 . S
C389 O387 1.258 . S
C390 O392 1.247 . S
C390 O394 1.258 . S
C391 O398 1.247 . S
C391 O399 1.258 . S
O392 C390 1.247 . S
O392 Zn393 2.028 . S
Zn393 O392 2.028 . S
Zn393 O397 2.035 . S
Zn393 O399 2.035 1_554 S
Zn393 O400 2.028 1_554 S
O394 C390 1.258 . S
O394 Zn395 2.036 . S
Zn395 O394 2.036 . S
Zn395 O396 2.029 . S
Zn395 O398 2.027 1_554 S
Zn395 O401 2.034 1_554 S
O396 Zn395 2.029 . S
O396 C402 1.247 . S
O397 Zn393 2.035 . S
O397 C402 1.258 . S
O398 C391 1.247 . S
O398 Zn395 2.027 1_556 S
O399 C391 1.258 . S
O399 Zn393 2.035 1_556 S
O400 Zn393 2.028 1_556 S
O400 C403 1.247 . S
O401 Zn395 2.034 1_556 S
O401 C403 1.258 . S
C402 O396 1.247 . S
C402 O397 1.258 . S
C403 O400 1.247 . S
C403 O401 1.258 . S
C332 C15 1.537 . S
C335 C55 1.462 . S
C333 C101 1.531 . S
C334 C141 1.513 . S
C349 C2 1.488 . S
C363 C61 1.502 . S
C95 C389 1.546 . S
C403 C135 1.498 . S
C348 C42 1.465 . S
C82 C362 1.512 . S
C388 C122 1.548 . S
C402 C21 1.536 . S
C162 C347 1.532 . S
C320 C221 1.628 . S
C255 C346 1.478 . S
C282 C321 1.504 . S
C376 C181 1.594 . S
C390 C202 1.527 . S
C360 C242 1.501 . S
C301 C374 1.538 . S
C377 C215 1.571 . S
C391 C261 1.506 . S
C361 C295 1.503 . S
C175 C375 1.496 . S
