# Generated by pormake.
# Topology tsx, (6,3)-cn, num edge types: 1
# Building blocks:
#     Node 0, Type 0, BuildingBlock: CIFDUS_clean_sbu_1, # of connection points: 6
#     Node 1, Type 0, BuildingBlock: CIFDUS_clean_sbu_1, # of connection points: 6
#     Node 2, Type 1, BuildingBlock: OLANEW_clean_sbu_2, # of connection points: 3
#     Node 3, Type 1, BuildingBlock: OLANEW_clean_sbu_2, # of connection points: 3
#     Node 4, Type 1, BuildingBlock: OLANEW_clean_sbu_2, # of connection points: 3
#     Node 5, Type 1, BuildingBlock: OLANEW_clean_sbu_2, # of connection points: 3
#     Edge 6, Type (0, 1), BuildingBlock: XIVTED_clean_linker_0, # of connection points: 2
#     Edge 7, Type (0, 1), BuildingBlock: XIVTED_clean_linker_0, # of connection points: 2
#     Edge 8, Type (0, 1), BuildingBlock: XIVTED_clean_linker_0, # of connection points: 2
#     Edge 9, Type (0, 1), BuildingBlock: XIVTED_clean_linker_0, # of connection points: 2
#     Edge 10, Type (0, 1), BuildingBlock: XIVTED_clean_linker_0, # of connection points: 2
#     Edge 11, Type (0, 1), BuildingBlock: XIVTED_clean_linker_0, # of connection points: 2
#     Edge 12, Type (0, 1), BuildingBlock: XIVTED_clean_linker_0, # of connection points: 2
#     Edge 13, Type (0, 1), BuildingBlock: XIVTED_clean_linker_0, # of connection points: 2
#     Edge 14, Type (0, 1), BuildingBlock: XIVTED_clean_linker_0, # of connection points: 2
#     Edge 15, Type (0, 1), BuildingBlock: XIVTED_clean_linker_0, # of connection points: 2
#     Edge 16, Type (0, 1), BuildingBlock: XIVTED_clean_linker_0, # of connection points: 2
#     Edge 17, Type (0, 1), BuildingBlock: XIVTED_clean_linker_0, # of connection points: 2
# Relax obj value: 0.039
# Max RMSD: 0.094
# Mean RMSD: 0.050
data_MOF--net-tsx--node1-CIFDUS_clean_sbu_1--node2-OLANEW_clean_sbu_2--edge1-XIVTED_clean_linker_0
_symmetry_space_group_name_H-M    P1
_symmetry_Int_Tables_number       1
_symmetry_cell_setting            triclinic
loop_
_symmetry_equiv_pos_as_xyz
'x, y, z'
_cell_length_a     20.623568
_cell_length_b     25.132026
_cell_length_c     35.348493
_cell_angle_alpha  102.6238
_cell_angle_beta   91.507475
_cell_angle_gamma 90.997594
loop_
_atom_site_label
_atom_site_type_symbol
_atom_site_fract_x
_atom_site_fract_y
_atom_site_fract_z
_atom_type_partial_charge
O0 O 0.96382 0.07831 -0.00105 0.0
Mn1 Mn 0.03345 0.01921 0.00222 0.0
O2 O 0.88545 0.03487 0.95677 0.0
Mn3 Mn 0.92819 0.97061 0.93822 0.0
O4 O 0.10044 0.95951 0.00515 0.0
O5 O 0.09933 0.0783 0.02528 0.0
Mn6 Mn 0.13745 0.06192 0.06656 0.0
O7 O 0.00112 0.01387 0.05712 0.0
O8 O 0.17806 -0.00428 0.04955 0.0
O9 O 0.06643 0.02207 0.94688 0.0
O10 O 0.99323 0.97325 0.90378 0.0
O11 O 0.17554 0.12665 0.06153 0.0
O12 O 0.07305 0.06033 0.10165 0.0
C13 C 0.93735 0.91475 0.97617 0.0
C14 C 0.90798 0.0766 0.98133 0.0
C15 C 0.15347 0.95593 0.02414 0.0
C16 C 0.137 0.12116 0.03138 0.0
C17 C 0.0199 0.03362 0.09244 0.0
C18 C 0.04737 -0.0011 0.91211 0.0
O19 O 0.96958 0.95974 0.97956 0.0
O20 O 0.89742 0.90433 0.94657 0.0
O21 O 0.46136 0.57894 0.5025 0.0
Mn22 Mn 0.52275 0.51362 0.50461 0.0
O23 O 0.37486 0.54274 0.46435 0.0
Mn24 Mn 0.40832 0.47462 0.44504 0.0
O25 O 0.58246 0.4482 0.50648 0.0
O26 O 0.59616 0.5669 0.52434 0.0
Mn27 Mn 0.63573 0.54918 0.56455 0.0
O28 O 0.49334 0.51401 0.56116 0.0
O29 O 0.66724 0.4796 0.54697 0.0
O30 O 0.55234 0.51153 0.44794 0.0
O31 O 0.47044 0.47053 0.40786 0.0
O32 O 0.67963 0.61 0.55644 0.0
O33 O 0.57405 0.55468 0.60203 0.0
C34 C 0.41343 0.4178 0.48231 0.0
C35 C 0.40467 0.58266 0.48712 0.0
C36 C 0.63657 0.44115 0.52336 0.0
C37 C 0.63791 0.60668 0.52799 0.0
C38 C 0.51721 0.5335 0.59549 0.0
C39 C 0.52807 0.49032 0.41396 0.0
O40 O 0.45078 0.45993 0.48492 0.0
O41 O 0.3702 0.41159 0.45447 0.0
O42 O 0.04531 0.96333 0.36717 0.0
Cd43 Cd 0.06846 0.98028 0.43751 0.0
O44 O 0.94188 0.98127 0.37537 0.0
Cd45 Cd 0.94508 0.00082 0.43849 0.0
O46 O 0.89731 0.06862 0.47533 0.0
C47 C 0.83931 0.07468 0.46426 0.0
O48 O 0.81325 0.03777 0.43545 0.0
C49 C 0.98896 0.96838 0.35299 0.0
C50 C 0.14502 0.90197 0.46101 0.0
O51 O 0.08293 0.89751 0.45934 0.0
O52 O 0.17124 0.94341 0.45124 0.0
O53 O 0.11451 0.02863 0.6253 0.0
Cd54 Cd 0.10441 0.03819 0.55865 0.0
O55 O 0.07263 0.94564 0.61874 0.0
Cd56 Cd 0.03458 0.93228 0.55865 0.0
O57 O 0.9612 0.88462 0.51826 0.0
C58 C 0.90296 0.90051 0.51795 0.0
O59 O 0.88912 0.94846 0.53924 0.0
C60 C 0.10048 -0.01204 0.63965 0.0
C61 C 0.19504 0.11941 0.55313 0.0
O62 O 0.13727 0.13118 0.56404 0.0
O63 O 0.20938 0.06893 0.54333 0.0
O64 O 0.48193 0.43061 0.86879 0.0
Cd65 Cd 0.49426 0.42786 0.93768 0.0
O66 O 0.48343 0.52008 0.88648 0.0
Cd67 Cd 0.48601 0.52933 0.9492 0.0
O68 O 0.43444 0.59441 0.98617 0.0
C69 C 0.37614 0.59797 0.97462 0.0
O70 O 0.3523 0.55979 0.94585 0.0
C71 C 0.47968 0.47692 0.85987 0.0
C72 C 0.58992 0.35921 0.95549 0.0
O73 O 0.53116 0.34222 0.94733 0.0
O74 O 0.60411 0.40875 0.95452 0.0
O75 O 0.62128 0.5399 0.13276 0.0
Cd76 Cd 0.61481 0.55823 0.06821 0.0
O77 O 0.56746 0.46095 0.12121 0.0
Cd78 Cd 0.53189 0.45267 0.06102 0.0
O79 O 0.45924 0.40331 0.02097 0.0
C80 C 0.40056 0.41808 0.02051 0.0
O81 O 0.38563 0.46606 0.04132 0.0
C82 C 0.60005 0.49858 0.14424 0.0
C83 C 0.71205 0.6354 0.06453 0.0
O84 O 0.65568 0.64999 0.07666 0.0
O85 O 0.7221 0.58426 0.05334 0.0
H86 H 0.20932 0.10956 0.96753 0.0
H87 H 0.26891 0.43024 0.02515 0.0
H88 H 0.08647 0.22168 0.04105 0.0
H89 H 0.41276 0.31344 0.97789 0.0
H90 H 0.18558 0.35777 0.00983 0.0
H91 H 0.26422 0.18669 0.94875 0.0
C92 C 0.19145 0.15028 0.97796 0.0
C93 C 0.1433 0.15949 0.00573 0.0
C94 C 0.23517 0.34827 0.00206 0.0
C95 C 0.20744 0.24787 0.98588 0.0
C96 C 0.2829 0.38965 0.01078 0.0
C97 C 0.34835 0.37772 0.00366 0.0
C98 C 0.25289 0.29452 0.98603 0.0
C99 C 0.36318 0.32442 0.98455 0.0
C100 C 0.22355 0.19439 0.96781 0.0
C101 C 0.12311 0.21303 0.01929 0.0
N102 N 0.31604 0.28464 0.97699 0.0
N103 N 0.15619 0.25538 0.0099 0.0
H104 H 0.10975 0.85863 0.97869 0.0
H105 H 0.41664 0.6915 0.02638 0.0
H106 H 0.26932 0.93096 0.05551 0.0
H107 H 0.25331 0.61987 0.95272 0.0
H108 H 0.36106 0.77848 0.04052 0.0
H109 H 0.16052 0.77026 0.97063 0.0
C110 C 0.15567 0.85609 0.99373 0.0
C111 C 0.18544 0.90254 0.01769 0.0
C112 C 0.33719 0.74359 0.02152 0.0
C113 C 0.24368 0.80099 0.00876 0.0
C114 C 0.36876 0.69384 0.01358 0.0
C115 C 0.33982 0.64844 0.98806 0.0
C116 C 0.27637 0.74793 0.00372 0.0
C117 C 0.2777 0.65386 0.97235 0.0
C118 C 0.18449 0.80544 0.98925 0.0
C119 C 0.24466 0.89639 0.03666 0.0
N120 N 0.24832 0.70279 0.98019 0.0
N121 N 0.27188 0.84658 0.03172 0.0
H122 H 0.8958 0.93685 0.05005 0.0
H123 H 0.83043 0.61873 0.03106 0.0
H124 H 0.97649 0.81065 0.96272 0.0
H125 H 0.71088 0.74568 0.09368 0.0
H126 H 0.90929 0.68843 0.02206 0.0
H127 H 0.85671 0.86712 0.08344 0.0
C128 C 0.90807 0.89466 0.03904 0.0
C129 C 0.93934 0.87909 0.00379 0.0
C130 C 0.86624 0.70091 0.03827 0.0
C131 C 0.89295 0.7994 0.04061 0.0
C132 C 0.8211 0.66119 0.04332 0.0
C133 C 0.7633 0.6765 0.06241 0.0
C134 C 0.85361 0.75631 0.05253 0.0
C135 C 0.7542 0.73211 0.07811 0.0
C136 C 0.88489 0.85483 0.05769 0.0
C137 C 0.95261 0.82395 0.98999 0.0
N138 N 0.79852 0.77005 0.07245 0.0
N139 N 0.92839 0.78587 0.00808 0.0
H140 H 0.78003 0.07439 0.99387 0.0
H141 H 0.7219 0.37745 0.96634 0.0
H142 H 0.93823 0.18529 0.98576 0.0
H143 H 0.5708 0.25725 0.96854 0.0
H144 H 0.8025 0.31352 0.98119 0.0
H145 H 0.7039 0.14728 0.99442 0.0
C146 C 0.79872 0.1146 0.99279 0.0
C147 C 0.86528 0.12389 0.98947 0.0
C148 C 0.75165 0.30142 0.97865 0.0
C149 C 0.77807 0.2076 0.98899 0.0
C150 C 0.70564 0.33778 0.97011 0.0
C151 C 0.63952 0.32244 0.96577 0.0
C152 C 0.73123 0.24955 0.98306 0.0
C153 C 0.62119 0.27071 0.97118 0.0
C154 C 0.75521 0.15621 0.99291 0.0
C155 C 0.88713 0.1767 0.98842 0.0
N156 N 0.66671 0.23623 0.97937 0.0
N157 N 0.84339 0.21659 0.98754 0.0
H158 H 0.70949 0.59475 0.46394 0.0
H159 H 0.77163 0.91429 0.52354 0.0
H160 H 0.58625 0.70682 0.5372 0.0
H161 H 0.91295 0.79694 0.47328 0.0
H162 H 0.68704 0.84294 0.50758 0.0
H163 H 0.76385 0.67173 0.4448 0.0
C164 C 0.69146 0.63545 0.47426 0.0
C165 C 0.64345 0.6447 0.5021 0.0
C166 C 0.73633 0.83309 0.4993 0.0
C167 C 0.70717 0.73296 0.48196 0.0
C168 C 0.78478 0.87384 0.50839 0.0
C169 C 0.84991 0.8613 0.50068 0.0
C170 C 0.75304 0.7794 0.48233 0.0
C171 C 0.86365 0.80827 0.48053 0.0
C172 C 0.72324 0.67948 0.46389 0.0
C173 C 0.62289 0.69817 0.51544 0.0
N174 N 0.81586 0.76909 0.47266 0.0
N175 N 0.65589 0.74051 0.50598 0.0
H176 H 0.58416 0.34616 0.47853 0.0
H177 H 0.88401 0.16518 0.51754 0.0
H178 H 0.75079 0.4096 0.55227 0.0
H179 H 0.71768 0.10174 0.44368 0.0
H180 H 0.83216 0.25359 0.53447 0.0
H181 H 0.62949 0.25519 0.46823 0.0
C182 C 0.6303 0.34108 0.49251 0.0
C183 C 0.6638 0.38581 0.51616 0.0
C184 C 0.8068 0.2202 0.51479 0.0
C185 C 0.71587 0.28157 0.50459 0.0
C186 C 0.83628 0.16963 0.50524 0.0
C187 C 0.8054 0.12611 0.47889 0.0
C188 C 0.74609 0.22732 0.49779 0.0
C189 C 0.74352 0.13424 0.46391 0.0
C190 C 0.65607 0.28903 0.48671 0.0
C191 C 0.72326 0.3765 0.53367 0.0
N192 N 0.71614 0.18396 0.47333 0.0
N193 N 0.74741 0.32551 0.52745 0.0
H194 H 0.36734 0.43157 0.55474 0.0
H195 H 0.31448 0.10936 0.52034 0.0
H196 H 0.45827 0.31547 0.46514 0.0
H197 H 0.18675 0.22857 0.5841 0.0
H198 H 0.39062 0.18323 0.5153 0.0
H199 H 0.3281 0.35629 0.58271 0.0
C200 C 0.38171 0.39036 0.54217 0.0
C201 C 0.41608 0.37929 0.50784 0.0
C202 C 0.34628 0.19305 0.53082 0.0
C203 C 0.36955 0.29333 0.53836 0.0
C204 C 0.30271 0.15099 0.53357 0.0
C205 C 0.24359 0.16296 0.55198 0.0
C206 C 0.33082 0.24738 0.54684 0.0
C207 C 0.2312 0.21757 0.569 0.0
C208 C 0.35852 0.34739 0.5577 0.0
C209 C 0.43221 0.32533 0.49189 0.0
N210 N 0.27418 0.25778 0.56574 0.0
N211 N 0.40783 0.2841 0.50689 0.0
H212 H 0.45657 0.68671 0.49569 0.0
H213 H 0.1031 0.81195 0.48562 0.0
H214 H 0.2758 0.59744 0.49472 0.0
H215 H 0.27808 0.89584 0.46401 0.0
H216 H 0.16867 0.73939 0.50107 0.0
H217 H 0.3949 0.7701 0.49643 0.0
C218 C 0.40411 0.68497 0.49649 0.0
C219 C 0.37107 0.63517 0.49473 0.0
C220 C 0.1929 0.77377 0.49315 0.0
C221 C 0.30067 0.72956 0.49541 0.0
C222 C 0.15539 0.81525 0.48426 0.0
C223 C 0.18503 0.85971 0.47295 0.0
C224 C 0.26075 0.77644 0.49066 0.0
C225 C 0.25315 0.86201 0.47222 0.0
C226 C 0.36897 0.73232 0.4966 0.0
C227 C 0.30311 0.6349 0.49556 0.0
N228 N 0.28875 0.8207 0.48063 0.0
N229 N 0.27028 0.68116 0.49561 0.0
H230 H 0.95917 0.09702 0.15297 0.0
H231 H 0.06222 0.91662 0.29251 0.0
H232 H 0.01405 0.93186 0.10545 0.0
H233 H 0.89377 0.01621 0.31815 0.0
H234 H 0.05103 0.92374 0.22439 0.0
H235 H 0.93692 0.0716 0.21471 0.0
C236 C 0.96407 0.05496 0.1552 0.0
C237 C 0.98714 0.01614 0.12415 0.0
C238 C 0.01593 0.94311 0.24492 0.0
C239 C 0.96577 -0.01233 0.1948 0.0
C240 C 0.02248 0.9393 0.28372 0.0
C241 C 0.97903 0.96598 0.31102 0.0
C242 C 0.96686 0.97513 0.23375 0.0
C243 C 0.92831 -0.00512 0.29807 0.0
C244 C 0.95193 0.04055 0.19038 0.0
C245 C 0.99495 0.96252 0.12866 0.0
N246 N 0.92443 -0.00033 0.26054 0.0
N247 N 0.98587 0.95007 0.16373 0.0
H248 H 0.09691 0.91283 0.86358 0.0
H249 H 0.13262 0.07832 0.69665 0.0
H250 H 0.08503 0.08768 0.88426 0.0
H251 H 0.09909 0.90435 0.6779 0.0
H252 H 0.14397 0.08319 0.76649 0.0
H253 H 0.13079 0.91068 0.79763 0.0
C254 C 0.10379 0.95099 0.85449 0.0
C255 C 0.08835 0.00048 0.87909 0.0
C256 C 0.13499 0.04393 0.74699 0.0
C257 C 0.1242 -0.00171 0.8033 0.0
C258 C 0.12848 0.04103 0.70713 0.0
C259 C 0.11392 -0.00911 0.68141 0.0
C260 C 0.1275 -0.00373 0.76116 0.0
C261 C 0.10936 0.94396 0.69664 0.0
C262 C 0.12236 0.94974 0.81676 0.0
C263 C 0.09707 0.0488 0.86604 0.0
N264 N 0.1157 0.94788 0.73549 0.0
N265 N 0.11327 0.04647 0.82861 0.0
H266 H 0.48787 0.61101 0.65821 0.0
H267 H 0.47556 0.39582 0.79275 0.0
H268 H 0.47444 0.43782 0.6114 0.0
H269 H 0.46249 0.5701 0.83389 0.0
H270 H 0.46425 0.4082 0.72581 0.0
H271 H 0.46344 0.59546 0.72209 0.0
C272 C 0.47752 0.56977 0.6613 0.0
C273 C 0.48252 0.52568 0.62969 0.0
C274 C 0.46326 0.44356 0.7496 0.0
C275 C 0.45797 0.50698 0.70303 0.0
C276 C 0.47008 0.43655 0.78778 0.0
C277 C 0.47102 0.48203 0.81903 0.0
C278 C 0.45742 0.49639 0.74278 0.0
C279 C 0.46305 0.5338 0.81085 0.0
C280 C 0.46428 0.56071 0.69783 0.0
C281 C 0.46996 0.47287 0.63514 0.0
N282 N 0.45707 0.5395 0.77368 0.0
N283 N 0.45956 0.46479 0.67139 0.0
H284 H 0.5479 0.40166 0.35766 0.0
H285 H 0.64334 0.57938 0.20584 0.0
H286 H 0.59243 0.57397 0.3911 0.0
H287 H 0.58004 0.41033 0.17626 0.0
H288 H 0.64776 0.57509 0.27446 0.0
H289 H 0.58556 0.40068 0.29278 0.0
C290 C 0.56722 0.43909 0.35141 0.0
C291 C 0.56675 0.48802 0.37939 0.0
C292 C 0.63377 0.53881 0.25286 0.0
C293 C 0.60763 0.48784 0.30482 0.0
C294 C 0.63121 0.54117 0.21368 0.0
C295 C 0.61025 0.49534 0.18528 0.0
C296 C 0.61557 0.49021 0.26361 0.0
C297 C 0.59548 0.44692 0.19713 0.0
C298 C 0.58831 0.43866 0.31433 0.0
C299 C 0.59221 0.53546 0.37012 0.0
N300 N 0.59793 0.4458 0.23534 0.0
N301 N 0.61048 0.53449 0.3332 0.0
loop_
_geom_bond_atom_site_label_1
_geom_bond_atom_site_label_2
_geom_bond_distance
_geom_bond_site_symmetry_2
_ccdc_geom_bond_type
O0 Mn1 2.163 1_655 S
O0 C14 1.244 . S
Mn1 O0 2.163 1_455 S
Mn1 O4 2.160 1_544 S
Mn1 O5 2.221 . S
Mn1 O7 2.163 . S
Mn1 O9 2.160 1_554 S
Mn1 O19 2.221 1_444 S
O2 Mn3 2.087 1_545 S
O2 C14 1.256 1_556 S
Mn3 O2 2.087 1_565 S
Mn3 O10 2.089 1_565 S
Mn3 O19 2.290 . S
Mn3 O20 2.251 . S
O4 Mn1 2.160 1_566 S
O4 C15 1.239 1_556 S
O5 Mn1 2.221 . S
O5 Mn6 2.290 . S
O5 C16 1.278 . S
Mn6 O5 2.290 . S
Mn6 O8 2.089 1_545 S
Mn6 O11 2.251 . S
Mn6 O12 2.087 . S
O7 Mn1 2.163 . S
O7 C17 1.244 . S
O8 Mn6 2.089 1_565 S
O8 C15 1.256 . S
O9 Mn1 2.160 1_556 S
O9 C18 1.239 . S
O10 Mn3 2.089 1_545 S
O10 C18 1.256 1_655 S
O11 Mn6 2.251 . S
O11 C16 1.241 . S
O12 Mn6 2.087 . S
O12 C17 1.256 . S
C13 O19 1.278 1_554 S
C13 O20 1.241 1_554 S
C14 O0 1.244 . S
C14 O2 1.256 1_554 S
C15 O4 1.239 1_554 S
C15 O8 1.256 . S
C16 O5 1.278 . S
C16 O11 1.241 . S
C17 O7 1.244 . S
C17 O12 1.256 . S
C18 O9 1.239 . S
C18 O10 1.256 1_455 S
O19 Mn1 2.221 1_666 S
O19 Mn3 2.290 . S
O19 C13 1.278 1_556 S
O20 Mn3 2.251 . S
O20 C13 1.241 1_556 S
O21 Mn22 2.163 . S
O21 C35 1.244 . S
Mn22 O21 2.163 . S
Mn22 O25 2.160 . S
Mn22 O26 2.221 . S
Mn22 O28 2.163 . S
Mn22 O30 2.160 . S
Mn22 O40 2.221 . S
O23 Mn24 2.087 . S
O23 C35 1.256 . S
Mn24 O23 2.087 . S
Mn24 O31 2.089 . S
Mn24 O40 2.290 . S
Mn24 O41 2.251 . S
O25 Mn22 2.160 . S
O25 C36 1.239 . S
O26 Mn22 2.221 . S
O26 Mn27 2.290 . S
O26 C37 1.278 . S
Mn27 O26 2.290 . S
Mn27 O29 2.089 . S
Mn27 O32 2.251 . S
Mn27 O33 2.087 . S
O28 Mn22 2.163 . S
O28 C38 1.244 . S
O29 Mn27 2.089 . S
O29 C36 1.256 . S
O30 Mn22 2.160 . S
O30 C39 1.239 . S
O31 Mn24 2.089 . S
O31 C39 1.256 . S
O32 Mn27 2.251 . S
O32 C37 1.241 . S
O33 Mn27 2.087 . S
O33 C38 1.256 . S
C34 O40 1.278 . S
C34 O41 1.241 . S
C35 O21 1.244 . S
C35 O23 1.256 . S
C36 O25 1.239 . S
C36 O29 1.256 . S
C37 O26 1.278 . S
C37 O32 1.241 . S
C38 O28 1.244 . S
C38 O33 1.256 . S
C39 O30 1.239 . S
C39 O31 1.256 . S
O40 Mn22 2.221 . S
O40 Mn24 2.290 . S
O40 C34 1.278 . S
O41 Mn24 2.251 . S
O41 C34 1.241 . S
O42 Cd43 2.300 . S
O42 C49 1.275 1_565 S
Cd43 O42 2.300 . S
Cd43 O51 2.381 . S
Cd43 O52 2.378 . S
O44 Cd45 2.385 . S
O44 C49 1.255 . S
Cd45 O44 2.385 . S
Cd45 O46 2.317 1_455 S
O46 Cd45 2.317 1_655 S
O46 C47 1.232 . S
C47 O46 1.232 . S
C47 O48 1.218 . S
O48 C47 1.218 . S
C49 O42 1.275 1_545 S
C49 O44 1.255 . S
C50 O51 1.258 . S
C50 O52 1.256 . S
O51 Cd43 2.381 . S
O51 C50 1.258 . S
O52 Cd43 2.378 . S
O52 C50 1.256 . S
O53 Cd54 2.300 . S
O53 C60 1.275 . S
Cd54 O53 2.300 . S
Cd54 O62 2.381 . S
Cd54 O63 2.378 . S
O55 Cd56 2.385 . S
O55 C60 1.255 1_565 S
Cd56 O55 2.385 . S
Cd56 O57 2.317 1_455 S
O57 Cd56 2.317 1_655 S
O57 C58 1.232 . S
C58 O57 1.232 . S
C58 O59 1.218 . S
O59 C58 1.218 . S
C60 O53 1.275 . S
C60 O55 1.255 1_545 S
C61 O62 1.258 . S
C61 O63 1.256 . S
O62 Cd54 2.381 . S
O62 C61 1.258 . S
O63 Cd54 2.378 . S
O63 C61 1.256 . S
O64 Cd65 2.300 . S
O64 C71 1.275 . S
Cd65 O64 2.300 . S
Cd65 O73 2.381 . S
Cd65 O74 2.378 . S
O66 Cd67 2.385 . S
O66 C71 1.255 . S
Cd67 O66 2.385 . S
Cd67 O68 2.317 . S
O68 Cd67 2.317 . S
O68 C69 1.232 . S
C69 O68 1.232 . S
C69 O70 1.218 . S
O70 C69 1.218 . S
C71 O64 1.275 . S
C71 O66 1.255 . S
C72 O73 1.258 . S
C72 O74 1.256 . S
O73 Cd65 2.381 . S
O73 C72 1.258 . S
O74 Cd65 2.378 . S
O74 C72 1.256 . S
O75 Cd76 2.300 . S
O75 C82 1.275 . S
Cd76 O75 2.300 . S
Cd76 O84 2.381 . S
Cd76 O85 2.378 . S
O77 Cd78 2.385 . S
O77 C82 1.255 . S
Cd78 O77 2.385 . S
Cd78 O79 2.317 . S
O79 Cd78 2.317 . S
O79 C80 1.232 . S
C80 O79 1.232 . S
C80 O81 1.218 . S
O81 C80 1.218 . S
C82 O75 1.275 . S
C82 O77 1.255 . S
C83 O84 1.258 . S
C83 O85 1.256 . S
O84 Cd76 2.381 . S
O84 C83 1.258 . S
O85 Cd76 2.378 . S
O85 C83 1.256 . S
H86 C92 0.930 . S
H87 C96 0.930 . S
H88 C101 0.929 . S
H89 C99 0.929 1_556 S
H90 C94 0.929 . S
H91 C100 0.929 . S
C92 H86 0.930 . S
C92 C93 1.367 1_556 S
C92 C100 1.378 . S
C93 C92 1.367 1_554 S
C93 C101 1.433 . S
C94 H90 0.929 . S
C94 C96 1.378 . S
C94 C98 1.350 . S
C95 C98 1.463 . S
C95 C100 1.350 1_554 S
C95 N103 1.427 . S
C96 H87 0.930 . S
C96 C94 1.378 . S
C96 C97 1.367 . S
C97 C96 1.367 . S
C97 C99 1.433 . S
C98 C94 1.350 . S
C98 C95 1.463 . S
C98 N102 1.427 . S
C99 H89 0.929 1_554 S
C99 C97 1.433 . S
C99 N102 1.384 . S
C100 H91 0.929 . S
C100 C92 1.378 . S
C100 C95 1.350 1_556 S
C101 H88 0.929 . S
C101 C93 1.433 . S
C101 N103 1.384 . S
N102 C98 1.427 . S
N102 C99 1.384 . S
N103 C95 1.427 . S
N103 C101 1.384 . S
H104 C110 0.930 . S
H105 C114 0.930 . S
H106 C119 0.929 . S
H107 C117 0.929 1_554 S
H108 C112 0.929 . S
H109 C118 0.929 . S
C110 H104 0.930 . S
C110 C111 1.367 . S
C110 C118 1.378 . S
C111 C110 1.367 . S
C111 C119 1.433 1_554 S
C112 H108 0.929 . S
C112 C114 1.378 . S
C112 C116 1.350 . S
C113 C116 1.463 . S
C113 C118 1.350 1_556 S
C113 N121 1.427 . S
C114 H105 0.930 . S
C114 C112 1.378 . S
C114 C115 1.367 . S
C115 C114 1.367 . S
C115 C117 1.433 . S
C116 C112 1.350 . S
C116 C113 1.463 . S
C116 N120 1.427 1_556 S
C117 H107 0.929 1_556 S
C117 C115 1.433 . S
C117 N120 1.384 1_556 S
C118 H109 0.929 . S
C118 C110 1.378 . S
C118 C113 1.350 1_554 S
C119 H106 0.929 . S
C119 C111 1.433 1_556 S
C119 N121 1.384 . S
N120 C116 1.427 1_554 S
N120 C117 1.384 1_554 S
N121 C113 1.427 . S
N121 C119 1.384 . S
H122 C128 0.930 . S
H123 C132 0.930 1_556 S
H124 C137 0.929 . S
H125 C135 0.929 . S
H126 C130 0.929 . S
H127 C136 0.929 . S
C128 H122 0.930 . S
C128 C129 1.367 . S
C128 C136 1.378 . S
C129 C128 1.367 . S
C129 C137 1.433 1_554 S
C130 H126 0.929 . S
C130 C132 1.378 1_556 S
C130 C134 1.350 1_556 S
C131 C134 1.463 . S
C131 C136 1.350 . S
C131 N139 1.427 1_554 S
C132 H123 0.930 1_554 S
C132 C130 1.378 1_554 S
C132 C133 1.367 . S
C133 C132 1.367 . S
C133 C135 1.433 . S
C134 C130 1.350 1_554 S
C134 C131 1.463 . S
C134 N138 1.427 . S
C135 H125 0.929 . S
C135 C133 1.433 . S
C135 N138 1.384 . S
C136 H127 0.929 . S
C136 C128 1.378 . S
C136 C131 1.350 . S
C137 H124 0.929 . S
C137 C129 1.433 1_556 S
C137 N139 1.384 . S
N138 C134 1.427 . S
N138 C135 1.384 . S
N139 C131 1.427 1_556 S
N139 C137 1.384 . S
H140 C146 0.930 . S
H141 C150 0.930 . S
H142 C155 0.929 . S
H143 C153 0.929 . S
H144 C148 0.929 . S
H145 C154 0.929 . S
C146 H140 0.930 . S
C146 C147 1.367 . S
C146 C154 1.378 . S
C147 C146 1.367 . S
C147 C155 1.433 1_554 S
C148 H144 0.929 . S
C148 C150 1.378 . S
C148 C152 1.350 . S
C149 C152 1.463 . S
C149 C154 1.350 1_556 S
C149 N157 1.427 . S
C150 H141 0.930 . S
C150 C148 1.378 . S
C150 C151 1.367 . S
C151 C150 1.367 . S
C151 C153 1.433 1_556 S
C152 C148 1.350 . S
C152 C149 1.463 . S
C152 N156 1.427 1_556 S
C153 H143 0.929 . S
C153 C151 1.433 1_554 S
C153 N156 1.384 . S
C154 H145 0.929 . S
C154 C146 1.378 . S
C154 C149 1.350 1_554 S
C155 H142 0.929 . S
C155 C147 1.433 1_556 S
C155 N157 1.384 . S
N156 C152 1.427 1_554 S
N156 C153 1.384 . S
N157 C149 1.427 . S
N157 C155 1.384 . S
H158 C164 0.930 . S
H159 C168 0.930 . S
H160 C173 0.929 . S
H161 C171 0.929 . S
H162 C166 0.929 . S
H163 C172 0.929 . S
C164 H158 0.930 . S
C164 C165 1.367 . S
C164 C172 1.378 . S
C165 C164 1.367 . S
C165 C173 1.433 . S
C166 H162 0.929 . S
C166 C168 1.378 . S
C166 C170 1.350 . S
C167 C170 1.463 . S
C167 C172 1.350 . S
C167 N175 1.427 . S
C168 H159 0.930 . S
C168 C166 1.378 . S
C168 C169 1.367 . S
C169 C168 1.367 . S
C169 C171 1.433 . S
C170 C166 1.350 . S
C170 C167 1.463 . S
C170 N174 1.427 . S
C171 H161 0.929 . S
C171 C169 1.433 . S
C171 N174 1.384 . S
C172 H163 0.929 . S
C172 C164 1.378 . S
C172 C167 1.350 . S
C173 H160 0.929 . S
C173 C165 1.433 . S
C173 N175 1.384 . S
N174 C170 1.427 . S
N174 C171 1.384 . S
N175 C167 1.427 . S
N175 C173 1.384 . S
H176 C182 0.930 . S
H177 C186 0.930 . S
H178 C191 0.929 . S
H179 C189 0.929 . S
H180 C184 0.929 . S
H181 C190 0.929 . S
C182 H176 0.930 . S
C182 C183 1.367 . S
C182 C190 1.378 . S
C183 C182 1.367 . S
C183 C191 1.433 . S
C184 H180 0.929 . S
C184 C186 1.378 . S
C184 C188 1.350 . S
C185 C188 1.463 . S
C185 C190 1.350 . S
C185 N193 1.427 . S
C186 H177 0.930 . S
C186 C184 1.378 . S
C186 C187 1.367 . S
C187 C186 1.367 . S
C187 C189 1.433 . S
C188 C184 1.350 . S
C188 C185 1.463 . S
C188 N192 1.427 . S
C189 H179 0.929 . S
C189 C187 1.433 . S
C189 N192 1.384 . S
C190 H181 0.929 . S
C190 C182 1.378 . S
C190 C185 1.350 . S
C191 H178 0.929 . S
C191 C183 1.433 . S
C191 N193 1.384 . S
N192 C188 1.427 . S
N192 C189 1.384 . S
N193 C185 1.427 . S
N193 C191 1.384 . S
H194 C200 0.930 . S
H195 C204 0.930 . S
H196 C209 0.929 . S
H197 C207 0.929 . S
H198 C202 0.929 . S
H199 C208 0.929 . S
C200 H194 0.930 . S
C200 C201 1.367 . S
C200 C208 1.378 . S
C201 C200 1.367 . S
C201 C209 1.433 . S
C202 H198 0.929 . S
C202 C204 1.378 . S
C202 C206 1.350 . S
C203 C206 1.463 . S
C203 C208 1.350 . S
C203 N211 1.427 . S
C204 H195 0.930 . S
C204 C202 1.378 . S
C204 C205 1.367 . S
C205 C204 1.367 . S
C205 C207 1.433 . S
C206 C202 1.350 . S
C206 C203 1.463 . S
C206 N210 1.427 . S
C207 H197 0.929 . S
C207 C205 1.433 . S
C207 N210 1.384 . S
C208 H199 0.929 . S
C208 C200 1.378 . S
C208 C203 1.350 . S
C209 H196 0.929 . S
C209 C201 1.433 . S
C209 N211 1.384 . S
N210 C206 1.427 . S
N210 C207 1.384 . S
N211 C203 1.427 . S
N211 C209 1.384 . S
H212 C218 0.930 . S
H213 C222 0.930 . S
H214 C227 0.929 . S
H215 C225 0.929 . S
H216 C220 0.929 . S
H217 C226 0.929 . S
C218 H212 0.930 . S
C218 C219 1.367 . S
C218 C226 1.378 . S
C219 C218 1.367 . S
C219 C227 1.433 . S
C220 H216 0.929 . S
C220 C222 1.378 . S
C220 C224 1.350 . S
C221 C224 1.463 . S
C221 C226 1.350 . S
C221 N229 1.427 . S
C222 H213 0.930 . S
C222 C220 1.378 . S
C222 C223 1.367 . S
C223 C222 1.367 . S
C223 C225 1.433 . S
C224 C220 1.350 . S
C224 C221 1.463 . S
C224 N228 1.427 . S
C225 H215 0.929 . S
C225 C223 1.433 . S
C225 N228 1.384 . S
C226 H217 0.929 . S
C226 C218 1.378 . S
C226 C221 1.350 . S
C227 H214 0.929 . S
C227 C219 1.433 . S
C227 N229 1.384 . S
N228 C224 1.427 . S
N228 C225 1.384 . S
N229 C221 1.427 . S
N229 C227 1.384 . S
H230 C236 0.930 1_655 S
H231 C240 0.930 . S
H232 C245 0.929 . S
H233 C243 0.928 1_655 S
H234 C238 0.929 . S
H235 C244 0.929 1_655 S
C236 H230 0.930 1_455 S
C236 C237 1.367 . S
C236 C244 1.378 . S
C237 C236 1.367 . S
C237 C245 1.433 1_545 S
C238 H234 0.929 . S
C238 C240 1.378 . S
C238 C242 1.350 1_565 S
C239 C242 1.463 . S
C239 C244 1.350 . S
C239 N247 1.427 1_545 S
C240 H231 0.930 . S
C240 C238 1.378 . S
C240 C241 1.367 1_565 S
C241 C240 1.367 1_545 S
C241 C243 1.434 . S
C242 C238 1.350 1_545 S
C242 C239 1.463 . S
C242 N246 1.427 . S
C243 H233 0.928 1_455 S
C243 C241 1.434 . S
C243 N246 1.384 . S
C244 H235 0.929 1_455 S
C244 C236 1.378 . S
C244 C239 1.350 . S
C245 H232 0.929 . S
C245 C237 1.433 1_565 S
C245 N247 1.384 . S
N246 C242 1.427 . S
N246 C243 1.384 . S
N247 C239 1.427 1_565 S
N247 C245 1.384 . S
H248 C254 0.930 . S
H249 C258 0.930 . S
H250 C263 0.929 . S
H251 C261 0.929 1_565 S
H252 C256 0.929 . S
H253 C262 0.929 . S
C254 H248 0.930 . S
C254 C255 1.367 1_565 S
C254 C262 1.378 . S
C255 C254 1.367 1_545 S
C255 C263 1.433 1_455 S
C256 H252 0.929 . S
C256 C258 1.378 . S
C256 C260 1.350 1_655 S
C257 C260 1.463 . S
C257 C262 1.350 1_545 S
C257 N265 1.427 1_455 S
C258 H249 0.930 . S
C258 C256 1.378 . S
C258 C259 1.367 . S
C259 C258 1.367 . S
C259 C261 1.433 1_655 S
C260 C256 1.350 1_455 S
C260 C257 1.463 . S
C260 N264 1.425 1_545 S
C261 H251 0.929 1_545 S
C261 C259 1.433 1_455 S
C261 N264 1.382 1_545 S
C262 H253 0.929 . S
C262 C254 1.378 . S
C262 C257 1.350 1_565 S
C263 H250 0.929 . S
C263 C255 1.433 1_655 S
C263 N265 1.384 . S
N264 C260 1.425 1_565 S
N264 C261 1.382 1_565 S
N265 C257 1.427 1_655 S
N265 C263 1.384 . S
H266 C272 0.930 . S
H267 C276 0.930 . S
H268 C281 0.929 . S
H269 C279 0.929 . S
H270 C274 0.929 . S
H271 C280 0.929 . S
C272 H266 0.930 . S
C272 C273 1.367 . S
C272 C280 1.378 . S
C273 C272 1.367 . S
C273 C281 1.433 . S
C274 H270 0.929 . S
C274 C276 1.378 . S
C274 C278 1.350 . S
C275 C278 1.463 . S
C275 C280 1.350 . S
C275 N283 1.427 . S
C276 H267 0.930 . S
C276 C274 1.378 . S
C276 C277 1.367 . S
C277 C276 1.367 . S
C277 C279 1.433 . S
C278 C274 1.350 . S
C278 C275 1.463 . S
C278 N282 1.427 . S
C279 H269 0.929 . S
C279 C277 1.433 . S
C279 N282 1.384 . S
C280 H271 0.929 . S
C280 C272 1.378 . S
C280 C275 1.350 . S
C281 H268 0.929 . S
C281 C273 1.433 . S
C281 N283 1.384 . S
N282 C278 1.427 . S
N282 C279 1.384 . S
N283 C275 1.427 . S
N283 C281 1.384 . S
H284 C290 0.930 . S
H285 C294 0.930 . S
H286 C299 0.929 . S
H287 C297 0.929 . S
H288 C292 0.929 . S
H289 C298 0.929 . S
C290 H284 0.930 . S
C290 C291 1.367 . S
C290 C298 1.378 . S
C291 C290 1.367 . S
C291 C299 1.433 . S
C292 H288 0.929 . S
C292 C294 1.378 . S
C292 C296 1.350 . S
C293 C296 1.463 . S
C293 C298 1.350 . S
C293 N301 1.427 . S
C294 H285 0.930 . S
C294 C292 1.378 . S
C294 C295 1.367 . S
C295 C294 1.367 . S
C295 C297 1.433 . S
C296 C292 1.350 . S
C296 C293 1.463 . S
C296 N300 1.427 . S
C297 H287 0.929 . S
C297 C295 1.433 . S
C297 N300 1.384 . S
C298 H289 0.929 . S
C298 C290 1.378 . S
C298 C293 1.350 . S
C299 H286 0.929 . S
C299 C291 1.433 . S
C299 N301 1.384 . S
N300 C296 1.427 . S
N300 C297 1.384 . S
N301 C293 1.427 . S
N301 C299 1.384 . S
C97 C80 1.198 . S
C93 C16 1.274 . S
C111 C15 1.481 . S
C115 C69 1.255 . S
C129 C13 1.288 . S
C133 C83 1.434 . S
C147 C14 1.361 . S
C151 C72 1.381 . S
C165 C37 1.283 . S
C169 C58 1.184 . S
C183 C36 1.480 . S
C187 C47 1.278 . S
C205 C61 1.437 . S
C201 C34 1.294 . S
C223 C50 1.391 . S
C219 C35 1.368 . S
C237 C17 1.521 . S
C241 C49 1.512 . S
C255 C18 1.386 . S
C259 C60 1.382 1_655 S
C277 C71 1.511 . S
C273 C38 1.522 . S
C291 C39 1.376 . S
C295 C82 1.371 . S
