# Generated by pormake.
# Topology ctn, (3,4)-cn, num edge types: 1
# Building blocks:
#     Node 0, Type 0, BuildingBlock: WUSLED_clean_sbu_0, # of connection points: 3
#     Node 1, Type 0, BuildingBlock: WUSLED_clean_sbu_0, # of connection points: 3
#     Node 2, Type 0, BuildingBlock: WUSLED_clean_sbu_0, # of connection points: 3
#     Node 3, Type 0, BuildingBlock: WUSLED_clean_sbu_0, # of connection points: 3
#     Node 4, Type 0, BuildingBlock: WUSLED_clean_sbu_0, # of connection points: 3
#     Node 5, Type 0, BuildingBlock: WUSLED_clean_sbu_0, # of connection points: 3
#     Node 6, Type 0, BuildingBlock: WUSLED_clean_sbu_0, # of connection points: 3
#     Node 7, Type 0, BuildingBlock: WUSLED_clean_sbu_0, # of connection points: 3
#     Node 8, Type 0, BuildingBlock: WUSLED_clean_sbu_0, # of connection points: 3
#     Node 9, Type 0, BuildingBlock: WUSLED_clean_sbu_0, # of connection points: 3
#     Node 10, Type 0, BuildingBlock: WUSLED_clean_sbu_0, # of connection points: 3
#     Node 11, Type 0, BuildingBlock: WUSLED_clean_sbu_0, # of connection points: 3
#     Node 12, Type 0, BuildingBlock: WUSLED_clean_sbu_0, # of connection points: 3
#     Node 13, Type 0, BuildingBlock: WUSLED_clean_sbu_0, # of connection points: 3
#     Node 14, Type 0, BuildingBlock: WUSLED_clean_sbu_0, # of connection points: 3
#     Node 15, Type 0, BuildingBlock: WUSLED_clean_sbu_0, # of connection points: 3
#     Node 16, Type 1, BuildingBlock: TATPOV_clean_sbu_0, # of connection points: 4
#     Node 17, Type 1, BuildingBlock: TATPOV_clean_sbu_0, # of connection points: 4
#     Node 18, Type 1, BuildingBlock: TATPOV_clean_sbu_0, # of connection points: 4
#     Node 19, Type 1, BuildingBlock: TATPOV_clean_sbu_0, # of connection points: 4
#     Node 20, Type 1, BuildingBlock: TATPOV_clean_sbu_0, # of connection points: 4
#     Node 21, Type 1, BuildingBlock: TATPOV_clean_sbu_0, # of connection points: 4
#     Node 22, Type 1, BuildingBlock: TATPOV_clean_sbu_0, # of connection points: 4
#     Node 23, Type 1, BuildingBlock: TATPOV_clean_sbu_0, # of connection points: 4
#     Node 24, Type 1, BuildingBlock: TATPOV_clean_sbu_0, # of connection points: 4
#     Node 25, Type 1, BuildingBlock: TATPOV_clean_sbu_0, # of connection points: 4
#     Node 26, Type 1, BuildingBlock: TATPOV_clean_sbu_0, # of connection points: 4
#     Node 27, Type 1, BuildingBlock: TATPOV_clean_sbu_0, # of connection points: 4
#     Edge 28, Type (0, 1), BuildingBlock: TEMPAE_clean_linker_10, # of connection points: 2
#     Edge 29, Type (0, 1), BuildingBlock: TEMPAE_clean_linker_10, # of connection points: 2
#     Edge 30, Type (0, 1), BuildingBlock: TEMPAE_clean_linker_10, # of connection points: 2
#     Edge 31, Type (0, 1), BuildingBlock: TEMPAE_clean_linker_10, # of connection points: 2
#     Edge 32, Type (0, 1), BuildingBlock: TEMPAE_clean_linker_10, # of connection points: 2
#     Edge 33, Type (0, 1), BuildingBlock: TEMPAE_clean_linker_10, # of connection points: 2
#     Edge 34, Type (0, 1), BuildingBlock: TEMPAE_clean_linker_10, # of connection points: 2
#     Edge 35, Type (0, 1), BuildingBlock: TEMPAE_clean_linker_10, # of connection points: 2
#     Edge 36, Type (0, 1), BuildingBlock: TEMPAE_clean_linker_10, # of connection points: 2
#     Edge 37, Type (0, 1), BuildingBlock: TEMPAE_clean_linker_10, # of connection points: 2
#     Edge 38, Type (0, 1), BuildingBlock: TEMPAE_clean_linker_10, # of connection points: 2
#     Edge 39, Type (0, 1), BuildingBlock: TEMPAE_clean_linker_10, # of connection points: 2
#     Edge 40, Type (0, 1), BuildingBlock: TEMPAE_clean_linker_10, # of connection points: 2
#     Edge 41, Type (0, 1), BuildingBlock: TEMPAE_clean_linker_10, # of connection points: 2
#     Edge 42, Type (0, 1), BuildingBlock: TEMPAE_clean_linker_10, # of connection points: 2
#     Edge 43, Type (0, 1), BuildingBlock: TEMPAE_clean_linker_10, # of connection points: 2
#     Edge 44, Type (0, 1), BuildingBlock: TEMPAE_clean_linker_10, # of connection points: 2
#     Edge 45, Type (0, 1), BuildingBlock: TEMPAE_clean_linker_10, # of connection points: 2
#     Edge 46, Type (0, 1), BuildingBlock: TEMPAE_clean_linker_10, # of connection points: 2
#     Edge 47, Type (0, 1), BuildingBlock: TEMPAE_clean_linker_10, # of connection points: 2
#     Edge 48, Type (0, 1), BuildingBlock: TEMPAE_clean_linker_10, # of connection points: 2
#     Edge 49, Type (0, 1), BuildingBlock: TEMPAE_clean_linker_10, # of connection points: 2
#     Edge 50, Type (0, 1), BuildingBlock: TEMPAE_clean_linker_10, # of connection points: 2
#     Edge 51, Type (0, 1), BuildingBlock: TEMPAE_clean_linker_10, # of connection points: 2
#     Edge 52, Type (0, 1), BuildingBlock: TEMPAE_clean_linker_10, # of connection points: 2
#     Edge 53, Type (0, 1), BuildingBlock: TEMPAE_clean_linker_10, # of connection points: 2
#     Edge 54, Type (0, 1), BuildingBlock: TEMPAE_clean_linker_10, # of connection points: 2
#     Edge 55, Type (0, 1), BuildingBlock: TEMPAE_clean_linker_10, # of connection points: 2
#     Edge 56, Type (0, 1), BuildingBlock: TEMPAE_clean_linker_10, # of connection points: 2
#     Edge 57, Type (0, 1), BuildingBlock: TEMPAE_clean_linker_10, # of connection points: 2
#     Edge 58, Type (0, 1), BuildingBlock: TEMPAE_clean_linker_10, # of connection points: 2
#     Edge 59, Type (0, 1), BuildingBlock: TEMPAE_clean_linker_10, # of connection points: 2
#     Edge 60, Type (0, 1), BuildingBlock: TEMPAE_clean_linker_10, # of connection points: 2
#     Edge 61, Type (0, 1), BuildingBlock: TEMPAE_clean_linker_10, # of connection points: 2
#     Edge 62, Type (0, 1), BuildingBlock: TEMPAE_clean_linker_10, # of connection points: 2
#     Edge 63, Type (0, 1), BuildingBlock: TEMPAE_clean_linker_10, # of connection points: 2
#     Edge 64, Type (0, 1), BuildingBlock: TEMPAE_clean_linker_10, # of connection points: 2
#     Edge 65, Type (0, 1), BuildingBlock: TEMPAE_clean_linker_10, # of connection points: 2
#     Edge 66, Type (0, 1), BuildingBlock: TEMPAE_clean_linker_10, # of connection points: 2
#     Edge 67, Type (0, 1), BuildingBlock: TEMPAE_clean_linker_10, # of connection points: 2
#     Edge 68, Type (0, 1), BuildingBlock: TEMPAE_clean_linker_10, # of connection points: 2
#     Edge 69, Type (0, 1), BuildingBlock: TEMPAE_clean_linker_10, # of connection points: 2
#     Edge 70, Type (0, 1), BuildingBlock: TEMPAE_clean_linker_10, # of connection points: 2
#     Edge 71, Type (0, 1), BuildingBlock: TEMPAE_clean_linker_10, # of connection points: 2
#     Edge 72, Type (0, 1), BuildingBlock: TEMPAE_clean_linker_10, # of connection points: 2
#     Edge 73, Type (0, 1), BuildingBlock: TEMPAE_clean_linker_10, # of connection points: 2
#     Edge 74, Type (0, 1), BuildingBlock: TEMPAE_clean_linker_10, # of connection points: 2
#     Edge 75, Type (0, 1), BuildingBlock: TEMPAE_clean_linker_10, # of connection points: 2
# Relax obj value: 0.004
# Max RMSD: 0.049
# Mean RMSD: 0.024
data_MOF--net-ctn--node1-WUSLED_clean_sbu_0--node2-TATPOV_clean_sbu_0--edge1-TEMPAE_clean_linker_10
_symmetry_space_group_name_H-M    P1
_symmetry_Int_Tables_number       1
_symmetry_cell_setting            triclinic
loop_
_symmetry_equiv_pos_as_xyz
'x, y, z'
_cell_length_a     71.852831
_cell_length_b     72.303358
_cell_length_c     72.122643
_cell_angle_alpha  91.531216
_cell_angle_beta   90.906788
_cell_angle_gamma 90.897721
loop_
_atom_site_label
_atom_site_type_symbol
_atom_site_fract_x
_atom_site_fract_y
_atom_site_fract_z
_atom_type_partial_charge
C0 C 0.00886 0.05075 0.08287 0.0
C1 C 1.00334 0.03233 0.08587 0.0
C2 C 0.98658 0.04189 0.11377 0.0
C3 C 0.99232 0.02796 0.10113 0.0
C4 C 0.99249 0.06023 0.11084 0.0
C5 C 1.00344 0.06457 0.09561 0.0
U6 U 0.04728 0.04634 0.04528 0.0
O7 O 0.0448 0.05124 0.0153 0.0
O8 O 0.06365 0.06867 0.03271 0.0
C9 C 0.05641 0.06548 0.01606 0.0
C10 C 0.01906 0.05627 0.06606 0.0
C11 C 0.05111 0.08184 0.00537 0.0
C12 C 0.03152 0.10837 0.99943 0.0
C13 C 0.03598 0.09299 0.01012 0.0
C14 C 0.05724 0.10158 0.97924 0.0
C15 C 0.04206 0.11283 0.98376 0.0
C16 C 0.06166 0.08631 0.98989 0.0
C17 C 0.08284 0.00618 0.04687 0.0
C18 C 0.11428 1.00402 0.03473 0.0
C19 C 0.09773 0.97624 0.04335 0.0
C20 C 0.08241 0.98688 0.04846 0.0
C21 C 0.11396 0.98463 0.03653 0.0
C22 C 0.09888 0.01467 0.03981 0.0
C23 C 0.06676 0.01699 0.05359 0.0
O24 O 0.03608 0.06288 0.06865 0.0
O25 O 0.0173 0.04539 0.0512 0.0
O26 O 0.05155 0.01616 0.04322 0.0
O27 O 0.07034 0.03367 0.0606 0.0
H28 H 0.00731 0.02134 0.0763 0.0
H29 H 0.98826 0.01365 0.10302 0.0
H30 H 0.98818 0.0714 0.12003 0.0
H31 H 0.00735 0.0789 0.09354 0.0
H32 H 0.01966 0.11661 1.00329 0.0
H33 H 0.02763 0.08978 0.02203 0.0
H34 H 0.06594 0.1047 0.96757 0.0
H35 H 0.07345 0.07796 0.98601 0.0
H36 H 0.12642 0.01096 0.02932 0.0
H37 H 0.097 0.96143 0.04519 0.0
H38 H 0.07027 0.98001 0.05398 0.0
H39 H 0.09959 0.02954 0.03839 0.0
C40 C 0.26618 0.74081 0.17992 0.0
C41 C 0.28159 0.75231 0.17647 0.0
C42 C 0.26387 0.76809 0.15251 0.0
C43 C 0.28044 0.76585 0.1629 0.0
C44 C 0.24838 0.75676 0.1564 0.0
C45 C 0.24955 0.74329 0.16993 0.0
U46 U 0.28836 0.71449 0.22077 0.0
O47 O 0.27429 0.70057 0.24356 0.0
O48 O 0.29087 0.6844 0.22388 0.0
C49 C 0.27975 0.68405 0.23816 0.0
C50 C 0.26713 0.7257 0.1933 0.0
C51 C 0.26548 0.66916 0.23787 0.0
C52 C 0.23576 0.65564 0.22742 0.0
C53 C 0.24907 0.67006 0.22713 0.0
C54 C 0.25519 0.63936 0.24912 0.0
C55 C 0.23869 0.64007 0.23841 0.0
C56 C 0.26842 0.65373 0.24883 0.0
C57 C 0.33341 0.73184 0.24564 0.0
C58 C 0.35521 0.71383 0.26378 0.0
C59 C 0.35565 0.74725 0.2669 0.0
C60 C 0.34105 0.74807 0.2539 0.0
C61 C 0.36303 0.73014 0.27195 0.0
C62 C 0.34049 0.71467 0.25081 0.0
C63 C 0.31844 0.73331 0.23144 0.0
O64 O 0.28074 0.71394 0.19108 0.0
O65 O 0.26434 0.73029 0.21078 0.0
O66 O 0.30178 0.73695 0.23771 0.0
O67 O 0.31821 0.72081 0.21786 0.0
H68 H 0.29458 0.75062 0.18403 0.0
H69 H 0.2927 0.77419 0.16018 0.0
H70 H 0.23533 0.75826 0.14893 0.0
H71 H 0.23747 0.73461 0.17244 0.0
H72 H 0.22329 0.65657 0.21888 0.0
H73 H 0.24658 0.68187 0.21855 0.0
H74 H 0.25781 0.62779 0.25797 0.0
H75 H 0.28096 0.65283 0.25727 0.0
H76 H 0.36044 0.70042 0.26745 0.0
H77 H 0.36149 0.7601 0.27267 0.0
H78 H 0.33586 0.76146 0.2501 0.0
H79 H 0.33475 0.70192 0.24472 0.0
C80 C 0.96052 0.42186 0.01403 0.0
C81 C 0.97903 0.41873 0.00891 0.0
C82 C 0.97014 0.3887 0.99483 0.0
C83 C 0.98377 0.40238 0.99937 0.0
C84 C 0.95173 0.3917 1.00047 0.0
C85 C 0.94699 0.40811 0.0099 0.0
U86 U 0.96783 0.46118 0.05037 0.0
O87 O 0.96459 0.49128 0.04813 0.0
O88 O 0.94757 0.47591 0.06768 0.0
C89 C 0.95105 0.49194 0.06014 0.0
C90 C 0.95493 0.43945 0.02319 0.0
C91 C 0.93476 0.50285 0.05479 0.0
C92 C 0.90538 0.50637 0.03813 0.0
C93 C 0.92062 0.49551 0.04299 0.0
C94 C 0.91832 0.53195 0.05677 0.0
C95 C 0.9041 0.52477 0.04491 0.0
C96 C 0.93347 0.52109 0.06165 0.0
C97 C 0.01 0.4594 0.08364 0.0
C98 C 0.01705 0.48286 0.10765 0.0
C99 C 0.03608 0.45558 0.10494 0.0
C100 C 0.02511 0.44914 0.08988 0.0
C101 C 0.03217 0.47248 0.1141 0.0
C102 C 0.00606 0.47636 0.09254 0.0
C103 C 0.99835 0.45191 0.06816 0.0
O104 O 0.94928 0.4383 0.04037 0.0
O105 O 0.96574 0.45398 0.02059 0.0
O106 O 0.99841 0.46149 0.05294 0.0
O107 O 0.98166 0.44604 0.07262 0.0
H108 H 0.98981 0.42905 0.01199 0.0
H109 H 0.99803 0.40074 0.99508 0.0
H110 H 0.94091 0.3814 0.99754 0.0
H111 H 0.93265 0.41014 0.0138 0.0
H112 H 0.89478 0.50048 0.0288 0.0
H113 H 0.92142 0.48146 0.03749 0.0
H114 H 0.91768 0.54595 0.06242 0.0
H115 H 0.94424 0.52698 0.07081 0.0
H116 H 0.01373 0.49598 0.11427 0.0
H117 H 0.04734 0.44704 0.10971 0.0
H118 H 0.0283 0.43597 0.08323 0.0
H119 H 0.99441 0.48447 0.08788 0.0
C120 C 0.71764 0.74672 0.17778 0.0
C121 C 0.73564 0.74781 0.17051 0.0
C122 C 0.72674 0.72568 0.14561 0.0
C123 C 0.74016 0.73734 0.1546 0.0
C124 C 0.70868 0.7249 0.15285 0.0
C125 C 0.70421 0.73529 0.16876 0.0
U126 U 0.72311 0.78701 0.21382 0.0
O127 O 0.70136 0.80234 0.22858 0.0
O128 O 0.72149 0.7862 0.24428 0.0
C129 C 0.70632 0.79611 0.24486 0.0
C130 C 0.7126 0.75689 0.19496 0.0
C131 C 0.69112 0.78889 0.25631 0.0
C132 C 0.66531 0.76746 0.26141 0.0
C133 C 0.67999 0.77365 0.2504 0.0
C134 C 0.67292 0.79153 0.28438 0.0
C135 C 0.66153 0.77638 0.27854 0.0
C136 C 0.68753 0.79768 0.2734 0.0
C137 C 0.76081 0.82514 0.20659 0.0
C138 C 0.7623 0.85701 0.21845 0.0
C139 C 0.78993 0.84282 0.2061 0.0
C140 C 0.77977 0.82642 0.20237 0.0
C141 C 0.78132 0.85838 0.21409 0.0
C142 C 0.75215 0.84054 0.21478 0.0
C143 C 0.75036 0.80788 0.20152 0.0
O144 O 0.72497 0.757 0.2086 0.0
O145 O 0.7048 0.77303 0.1928 0.0
O146 O 0.73284 0.80963 0.19642 0.0
O147 O 0.75311 0.7937 0.2122 0.0
H148 H 0.74621 0.75663 0.17721 0.0
H149 H 0.75413 0.73844 0.14929 0.0
H150 H 0.69807 0.71591 0.14646 0.0
H151 H 0.69026 0.73421 0.17417 0.0
H152 H 0.65696 0.75568 0.25652 0.0
H153 H 0.68258 0.76664 0.23726 0.0
H154 H 0.67028 0.79898 0.29727 0.0
H155 H 0.69592 0.80951 0.27817 0.0
H156 H 0.75529 0.86863 0.22485 0.0
H157 H 0.80447 0.84341 0.20239 0.0
H158 H 0.78672 0.81475 0.19595 0.0
H159 H 0.73754 0.83989 0.21823 0.0
C160 C 0.00967 0.9614 0.42319 0.0
C161 C 0.01602 0.97639 0.4129 0.0
C162 C 0.99059 0.97126 0.39035 0.0
C163 C 0.00656 0.98129 0.39662 0.0
C164 C 0.98436 0.95626 0.4008 0.0
C165 C 0.99381 0.95139 0.41701 0.0
U166 U 0.04709 0.96889 0.46132 0.0
O167 O 0.04566 0.96525 0.49143 0.0
O168 O 0.06492 0.94852 0.47495 0.0
C169 C 0.05745 0.95152 0.49126 0.0
C170 C 0.01929 0.95598 0.44037 0.0
C171 C 0.05221 0.93492 0.50173 0.0
C172 C 0.02958 0.91655 0.51843 0.0
C173 C 0.03382 0.93162 0.50735 0.0
C174 C 0.06187 0.90753 0.5181 0.0
C175 C 0.04357 0.9044 0.52406 0.0
C176 C 0.06613 0.92266 0.50713 0.0
C177 C 0.08016 0.01111 0.45916 0.0
C178 C 0.10535 0.01785 0.48136 0.0
C179 C 0.10029 0.03801 0.45553 0.0
C180 C 0.08522 0.02687 0.44944 0.0
C181 C 0.11063 0.03362 0.47152 0.0
C182 C 0.09022 0.00669 0.47523 0.0
C183 C 0.06456 0.9994 0.45205 0.0
O184 O 0.03656 0.9506 0.4385 0.0
O185 O 0.01703 0.96699 0.45493 0.0
O186 O 0.04955 0.99928 0.46223 0.0
O187 O 0.069 0.98288 0.44568 0.0
H188 H 0.02828 0.98428 0.41746 0.0
H189 H 0.01184 0.99282 0.38888 0.0
H190 H 0.97194 0.94844 0.39665 0.0
H191 H 0.98865 0.93983 0.42481 0.0
H192 H 0.01529 0.91437 0.52255 0.0
H193 H 0.02275 0.94078 0.50337 0.0
H194 H 0.07299 0.89852 0.52229 0.0
H195 H 0.08042 0.92498 0.5031 0.0
H196 H 0.11291 0.01414 0.49379 0.0
H197 H 0.10413 0.04981 0.44739 0.0
H198 H 0.07764 0.03045 0.43697 0.0
H199 H 0.08646 0.99455 0.48293 0.0
C200 C 0.20828 0.76118 0.8248 0.0
C201 C 0.21594 0.7525 0.84029 0.0
C202 C 0.21597 0.78174 0.85814 0.0
C203 C 0.2197 0.76267 0.85681 0.0
C204 C 0.20853 0.79037 0.84247 0.0
C205 C 0.20471 0.78019 0.82603 0.0
U206 U 0.21452 0.72288 0.78661 0.0
O207 O 0.19288 0.70542 0.77258 0.0
O208 O 0.20966 0.72464 0.75651 0.0
C209 C 0.19561 0.71278 0.75636 0.0
C210 C 0.20306 0.75074 0.8075 0.0
C211 C 0.17878 0.7182 0.74601 0.0
C212 C 0.15322 0.73917 0.74036 0.0
C213 C 0.16899 0.73426 0.75077 0.0
C214 C 0.15686 0.71199 0.72049 0.0
C215 C 0.14695 0.72807 0.72507 0.0
C216 C 0.17257 0.70713 0.73085 0.0
C217 C 0.2559 0.68915 0.78829 0.0
C218 C 0.25901 0.65651 0.77959 0.0
C219 C 0.28624 0.67664 0.78061 0.0
C220 C 0.27513 0.69157 0.78592 0.0
C221 C 0.27839 0.65881 0.77764 0.0
C222 C 0.2479 0.67149 0.78483 0.0
C223 C 0.24483 0.7049 0.79549 0.0
O224 O 0.21408 0.75284 0.79331 0.0
O225 O 0.19722 0.73356 0.80927 0.0
O226 O 0.2283 0.70097 0.80207 0.0
O227 O 0.24505 0.71998 0.78569 0.0
H228 H 0.21888 0.73785 0.83969 0.0
H229 H 0.22568 0.75564 0.8685 0.0
H230 H 0.2053 0.80495 0.84302 0.0
H231 H 0.1987 0.78715 0.8143 0.0
H232 H 0.14585 0.75155 0.7444 0.0
H233 H 0.17356 0.74298 0.76247 0.0
H234 H 0.15267 0.70327 0.70866 0.0
H235 H 0.17999 0.69473 0.72691 0.0
H236 H 0.25246 0.643 0.77768 0.0
H237 H 0.30102 0.67906 0.77898 0.0
H238 H 0.28167 0.70502 0.78851 0.0
H239 H 0.23311 0.66911 0.78655 0.0
C240 C 0.95697 0.581 0.51416 0.0
C241 C 0.97372 0.58994 0.50966 0.0
C242 C 0.97024 0.61181 0.53572 0.0
C243 C 0.9803 0.60522 0.52035 0.0
C244 C 0.95354 0.60262 0.54017 0.0
C245 C 0.94701 0.58738 0.52951 0.0
U246 U 0.95867 0.54712 0.4724 0.0
O247 O 0.95229 0.51723 0.47079 0.0
O248 O 0.93579 0.5363 0.45434 0.0
C249 C 0.93778 0.51922 0.45973 0.0
C250 C 0.94949 0.56522 0.50291 0.0
C251 C 0.92057 0.50947 0.46504 0.0
C252 C 0.89488 0.5046 0.48608 0.0
C253 C 0.91109 0.51432 0.48129 0.0
C254 C 0.89743 0.48523 0.45835 0.0
C255 C 0.88784 0.4899 0.47465 0.0
C256 C 0.91359 0.49492 0.45361 0.0
C257 C 0.99938 0.5515 0.43786 0.0
C258 C 0.01047 0.55875 0.40705 0.0
C259 C 0.022 0.5318 0.42246 0.0
C260 C 0.01081 0.53587 0.43771 0.0
C261 C 0.02208 0.54327 0.40699 0.0
C262 C 0.99934 0.56286 0.42234 0.0
C263 C 0.98876 0.557 0.4546 0.0
O264 O 0.943 0.56922 0.48638 0.0
O265 O 0.95956 0.5502 0.50284 0.0
O266 O 0.9889 0.54559 0.4685 0.0
O267 O 0.9724 0.56442 0.45175 0.0
H268 H 0.98162 0.58516 0.49784 0.0
H269 H 0.99327 0.61187 0.5166 0.0
H270 H 0.94523 0.60748 0.55166 0.0
H271 H 0.93401 0.58069 0.53314 0.0
H272 H 0.88779 0.50866 0.49865 0.0
H273 H 0.91627 0.52557 0.49028 0.0
H274 H 0.89268 0.4738 0.44939 0.0
H275 H 0.92075 0.49093 0.44105 0.0
H276 H 0.01034 0.56797 0.39546 0.0
H277 H 0.03058 0.51963 0.42277 0.0
H278 H 0.01136 0.52687 0.44946 0.0
H279 H 0.99094 0.57517 0.42215 0.0
C280 C 0.7863 0.78517 0.85012 0.0
C281 C 0.7818 0.76672 0.84489 0.0
C282 C 0.78407 0.75747 0.87711 0.0
C283 C 0.78068 0.75307 0.85823 0.0
C284 C 0.78879 0.77585 0.88231 0.0
C285 C 0.78979 0.78956 0.86897 0.0
U286 U 0.80669 0.80954 0.80792 0.0
O287 O 0.79237 0.82126 0.78383 0.0
O288 O 0.80969 0.83922 0.8023 0.0
C289 C 0.79774 0.83829 0.78828 0.0
C290 C 0.78649 0.80006 0.83632 0.0
C291 C 0.78306 0.85252 0.7877 0.0
C292 C 0.76868 0.8806 0.79982 0.0
C293 C 0.78208 0.8668 0.80128 0.0
C294 C 0.75695 0.86609 0.77127 0.0
C295 C 0.75598 0.88047 0.78474 0.0
C296 C 0.77037 0.85237 0.77269 0.0
C297 C 0.84991 0.78923 0.78462 0.0
C298 C 0.86438 0.80217 0.75751 0.0
C299 C 0.87618 0.77397 0.77037 0.0
C300 C 0.8627 0.7748 0.78412 0.0
C301 C 0.87715 0.78758 0.75682 0.0
C302 C 0.85085 0.80297 0.77129 0.0
C303 C 0.83556 0.78945 0.79897 0.0
O304 O 0.80037 0.81213 0.83771 0.0
O305 O 0.78232 0.79513 0.81904 0.0
O306 O 0.81851 0.78559 0.79308 0.0
O307 O 0.83648 0.80341 0.81102 0.0
H308 H 0.77898 0.7628 0.83052 0.0
H309 H 0.77725 0.73899 0.85374 0.0
H310 H 0.79133 0.77972 0.89675 0.0
H311 H 0.79308 0.80367 0.87344 0.0
H312 H 0.7685 0.89155 0.81035 0.0
H313 H 0.79176 0.86747 0.81295 0.0
H314 H 0.74724 0.86532 0.75963 0.0
H315 H 0.77087 0.84165 0.76193 0.0
H316 H 0.8646 0.81276 0.74717 0.0
H317 H 0.88592 0.76268 0.7704 0.0
H318 H 0.8622 0.7641 0.79434 0.0
H319 H 0.84102 0.81419 0.77143 0.0
C320 C 0.28695 0.28639 0.34981 0.0
C321 C 0.3007 0.27285 0.35052 0.0
C322 C 0.28498 0.25831 0.37627 0.0
C323 C 0.29975 0.25894 0.36366 0.0
C324 C 0.27135 0.27205 0.37554 0.0
C325 C 0.27235 0.28594 0.36245 0.0
U326 U 0.30786 0.30973 0.30746 0.0
O327 O 0.2937 0.32138 0.28331 0.0
O328 O 0.3109 0.33944 0.30176 0.0
C329 C 0.29891 0.33846 0.28777 0.0
C330 C 0.28736 0.30089 0.33588 0.0
C331 C 0.28421 0.3527 0.28749 0.0
C332 C 0.25285 0.36225 0.27918 0.0
C333 C 0.26622 0.34847 0.28048 0.0
C334 C 0.27504 0.38484 0.29199 0.0
C335 C 0.25711 0.38062 0.28481 0.0
C336 C 0.28846 0.37105 0.29321 0.0
C337 C 0.35093 0.28912 0.28362 0.0
C338 C 0.37885 0.30147 0.26926 0.0
C339 C 0.36459 0.27301 0.25717 0.0
C340 C 0.35091 0.27424 0.27071 0.0
C341 C 0.37881 0.28655 0.25631 0.0
C342 C 0.36508 0.30274 0.28277 0.0
C343 C 0.33663 0.28963 0.29825 0.0
O344 O 0.3015 0.31264 0.33715 0.0
O345 O 0.28352 0.29531 0.31873 0.0
O346 O 0.31948 0.28558 0.29274 0.0
O347 O 0.33762 0.30342 0.31053 0.0
H348 H 0.31206 0.27296 0.34081 0.0
H349 H 0.31035 0.24846 0.36369 0.0
H350 H 0.25994 0.27213 0.38517 0.0
H351 H 0.26163 0.29631 0.36213 0.0
H352 H 0.2391 0.35849 0.27381 0.0
H353 H 0.26244 0.33453 0.27581 0.0
H354 H 0.27882 0.39888 0.29628 0.0
H355 H 0.30227 0.37482 0.29841 0.0
H356 H 0.38969 0.31203 0.26917 0.0
H357 H 0.36389 0.26149 0.24727 0.0
H358 H 0.34028 0.26347 0.2711 0.0
H359 H 0.36565 0.31433 0.29261 0.0
C360 C 0.46184 0.9212 0.51021 0.0
C361 C 0.47986 0.91921 0.50316 0.0
C362 C 0.47189 0.88814 0.49109 0.0
C363 C 0.4848 0.90289 0.49368 0.0
C364 C 0.45405 0.89003 0.49863 0.0
C365 C 0.44908 0.90638 0.508 0.0
U366 U 0.46734 0.96107 0.5465 0.0
O367 O 0.46286 0.9909 0.54411 0.0
O368 O 0.44596 0.97493 0.5633 0.0
C369 C 0.44877 0.99096 0.55552 0.0
C370 C 0.45578 0.93871 0.51924 0.0
C371 C 0.43198 1.00107 0.54967 0.0
C372 C 0.41426 0.01776 0.5266 0.0
C373 C 0.42937 0.00672 0.53132 0.0
C374 C 0.40379 0.01726 0.55832 0.0
C375 C 0.40139 0.02331 0.54008 0.0
C376 C 0.41897 0.00633 0.56306 0.0
C377 C 0.50889 0.96154 0.58089 0.0
C378 C 0.5113 0.97392 0.61257 0.0
C379 C 0.53924 0.96846 0.59506 0.0
C380 C 0.52836 0.9622 0.57983 0.0
C381 C 0.53088 0.97408 0.61176 0.0
C382 C 0.50042 0.96777 0.59728 0.0
C383 C 0.49786 0.95346 0.56511 0.0
O384 O 0.44985 0.93748 0.53632 0.0
O385 O 0.4662 0.95354 0.51675 0.0
O386 O 0.49791 0.96287 0.54977 0.0
O387 O 0.48138 0.94654 0.56898 0.0
H388 H 0.49005 0.93037 0.50466 0.0
H389 H 0.49858 0.90209 0.48788 0.0
H390 H 0.44382 0.8789 0.49719 0.0
H391 H 0.43513 0.90754 0.51335 0.0
H392 H 0.41265 0.02196 0.51237 0.0
H393 H 0.43914 1.00288 0.52065 0.0
H394 H 0.39421 0.02139 0.56905 0.0
H395 H 0.42075 1.00229 0.57733 0.0
H396 H 0.50435 0.97793 0.62523 0.0
H397 H 0.55424 0.9687 0.5938 0.0
H398 H 0.53519 0.95755 0.56729 0.0
H399 H 0.48541 0.9675 0.59846 0.0
C400 C 0.21624 0.24689 0.67629 0.0
C401 C 0.23427 0.24832 0.66917 0.0
C402 C 0.22585 0.22634 0.64396 0.0
C403 C 0.23905 0.23809 0.65317 0.0
C404 C 0.20776 0.22519 0.6511 0.0
C405 C 0.20304 0.23534 0.66707 0.0
U406 U 0.22035 0.28696 0.71286 0.0
O407 O 0.19792 0.3018 0.72706 0.0
O408 O 0.21776 0.28582 0.74324 0.0
C409 C 0.20216 0.29511 0.74334 0.0
C410 C 0.21087 0.25683 0.69349 0.0
C411 C 0.18644 0.28744 0.75417 0.0
C412 C 0.17482 0.26837 0.77911 0.0
C413 C 0.18948 0.27439 0.76801 0.0
C414 C 0.15372 0.28818 0.76275 0.0
C415 C 0.15676 0.27527 0.77671 0.0
C416 C 0.16835 0.29422 0.75171 0.0
C417 C 0.25721 0.32622 0.70607 0.0
C418 C 0.27248 0.34752 0.72844 0.0
C419 C 0.27296 0.35409 0.69572 0.0
C420 C 0.26266 0.33783 0.69178 0.0
C421 C 0.27814 0.35912 0.71409 0.0
C422 C 0.26209 0.33125 0.72448 0.0
C423 C 0.24724 0.30864 0.70114 0.0
O424 O 0.22307 0.25706 0.70728 0.0
O425 O 0.20276 0.27281 0.69136 0.0
O426 O 0.22979 0.31 0.6957 0.0
O427 O 0.2501 0.29455 0.71194 0.0
H428 H 0.24467 0.25723 0.67602 0.0
H429 H 0.25304 0.23945 0.64795 0.0
H430 H 0.19732 0.21612 0.64456 0.0
H431 H 0.18907 0.234 0.67237 0.0
H432 H 0.17767 0.25834 0.78964 0.0
H433 H 0.20325 0.26901 0.77049 0.0
H434 H 0.14012 0.2941 0.76071 0.0
H435 H 0.16552 0.30453 0.74146 0.0
H436 H 0.27598 0.35109 0.74276 0.0
H437 H 0.27721 0.36254 0.68431 0.0
H438 H 0.25915 0.33418 0.67747 0.0
H439 H 0.25801 0.32257 0.73578 0.0
C440 C 0.76598 0.24292 0.681 0.0
C441 C 0.77507 0.24048 0.66399 0.0
C442 C 0.76256 0.26942 0.65274 0.0
C443 C 0.77343 0.25356 0.6501 0.0
C444 C 0.75371 0.27203 0.66986 0.0
C445 C 0.75531 0.25891 0.68376 0.0
U446 U 0.78676 0.21706 0.72303 0.0
O447 O 0.77234 0.20445 0.74641 0.0
O448 O 0.78849 0.1871 0.72735 0.0
C449 C 0.77757 0.18763 0.74179 0.0
C450 C 0.76616 0.22812 0.69502 0.0
C451 C 0.76332 0.1728 0.74269 0.0
C452 C 0.73493 0.15695 0.73167 0.0
C453 C 0.74804 0.17147 0.73032 0.0
C454 C 0.75229 0.14511 0.75772 0.0
C455 C 0.73698 0.14351 0.74535 0.0
C456 C 0.76529 0.15956 0.75638 0.0
C457 C 0.83241 0.23417 0.74713 0.0
C458 C 0.85546 0.21676 0.76433 0.0
C459 C 0.85374 0.24994 0.76908 0.0
C460 C 0.83903 0.25044 0.75616 0.0
C461 C 0.86226 0.23312 0.77325 0.0
C462 C 0.84063 0.21725 0.75146 0.0
C463 C 0.81739 0.23539 0.73292 0.0
O464 O 0.77902 0.21546 0.69337 0.0
O465 O 0.76325 0.23317 0.71238 0.0
O466 O 0.80087 0.23976 0.73908 0.0
O467 O 0.81675 0.22239 0.71981 0.0
H468 H 0.78324 0.22828 0.66122 0.0
H469 H 0.78067 0.2512 0.63721 0.0
H470 H 0.74507 0.28396 0.67233 0.0
H471 H 0.74785 0.26111 0.69654 0.0
H472 H 0.72337 0.15608 0.72186 0.0
H473 H 0.74631 0.18157 0.71963 0.0
H474 H 0.75416 0.13527 0.76864 0.0
H475 H 0.77694 0.1604 0.7661 0.0
H476 H 0.86159 0.20355 0.76733 0.0
H477 H 0.85876 0.26285 0.77544 0.0
H478 H 0.83297 0.26365 0.75301 0.0
H479 H 0.83574 0.20445 0.74479 0.0
C480 C 0.50305 0.54893 0.58289 0.0
C481 C 0.50213 0.53049 0.58853 0.0
C482 C 0.48124 0.53911 0.61375 0.0
C483 C 0.49136 0.52563 0.60384 0.0
C484 C 0.48263 0.55761 0.60824 0.0
C485 C 0.49338 0.56243 0.59302 0.0
U486 U 0.54125 0.54504 0.54506 0.0
O487 O 0.53809 0.54929 0.51498 0.0
O488 O 0.55658 0.56764 0.5318 0.0
C489 C 0.54879 0.56422 0.51541 0.0
C490 C 0.513 0.5545 0.56601 0.0
C491 C 0.54215 0.58027 0.50472 0.0
C492 C 0.53838 0.61353 0.50097 0.0
C493 C 0.54281 0.5985 0.51211 0.0
C494 C 0.53221 0.59244 0.47495 0.0
C495 C 0.53327 0.61074 0.48214 0.0
C496 C 0.53665 0.57747 0.48606 0.0
C497 C 0.5778 0.50546 0.54681 0.0
C498 C 0.6111 0.50206 0.54152 0.0
C499 C 0.59059 0.47527 0.53871 0.0
C500 C 0.57539 0.4864 0.54304 0.0
C501 C 0.60873 0.48287 0.53811 0.0
C502 C 0.59584 0.51322 0.54582 0.0
C503 C 0.56165 0.51634 0.55344 0.0
O504 O 0.5299 0.56147 0.56842 0.0
O505 O 0.51141 0.54331 0.55138 0.0
O506 O 0.54623 0.51499 0.5434 0.0
O507 O 0.56496 0.53319 0.56013 0.0
H508 H 0.50945 0.5198 0.58093 0.0
H509 H 0.49055 0.51124 0.60757 0.0
H510 H 0.47536 0.56843 0.61568 0.0
H511 H 0.49389 0.57675 0.58895 0.0
H512 H 0.53952 0.62738 0.507 0.0
H513 H 0.54714 0.60124 0.52638 0.0
H514 H 0.52803 0.58964 0.46065 0.0
H515 H 0.53614 0.56363 0.4799 0.0
H516 H 0.6248 0.50846 0.54098 0.0
H517 H 0.58819 0.46055 0.53645 0.0
H518 H 0.56172 0.47996 0.54395 0.0
H519 H 0.59825 0.52784 0.54871 0.0
C520 C 0.5104 0.4616 0.92373 0.0
C521 C 0.51519 0.47774 0.91438 0.0
C522 C 0.4905 0.4713 0.8913 0.0
C523 C 0.50531 0.48256 0.89832 0.0
C524 C 0.48591 0.45508 0.90074 0.0
C525 C 0.49576 0.4503 0.91675 0.0
U526 U 0.54871 0.46952 0.96085 0.0
O527 O 0.54779 0.46667 0.99116 0.0
O528 O 0.56665 0.4495 0.97469 0.0
C529 C 0.55985 0.45319 0.99117 0.0
C530 C 0.52033 0.4564 0.94083 0.0
C531 C 0.55499 0.43713 1.00241 0.0
C532 C 0.53748 0.40868 0.00739 0.0
C533 C 0.54179 0.42374 0.99627 0.0
C534 C 0.55951 0.42029 0.03082 0.0
C535 C 0.54625 0.4068 0.02485 0.0
C536 C 0.56382 0.43527 0.01971 0.0
C537 C 0.58222 0.51109 0.95719 0.0
C538 C 0.60695 0.51842 0.97975 0.0
C539 C 0.60361 0.53677 0.95232 0.0
C540 C 0.58829 0.52583 0.94651 0.0
C541 C 0.6132 0.5332 0.96899 0.0
C542 C 0.59158 0.50745 0.9739 0.0
C543 C 0.56631 0.49956 0.95048 0.0
O544 O 0.53748 0.45076 0.9387 0.0
O545 O 0.51852 0.46775 0.95521 0.0
O546 O 0.55148 0.49988 0.96091 0.0
O547 O 0.57039 0.48285 0.94437 0.0
H548 H 0.52651 0.48663 0.91954 0.0
H549 H 0.50934 0.49505 0.89135 0.0
H550 H 0.4744 0.44623 0.89598 0.0
H551 H 0.49182 0.43782 0.92381 0.0
H552 H 0.52704 0.39867 1.00246 0.0
H553 H 0.53478 0.42498 0.98296 0.0
H554 H 0.56671 0.41918 0.04405 0.0
H555 H 0.5741 0.44544 0.02465 0.0
H556 H 0.6139 0.51536 0.99272 0.0
H557 H 0.6082 0.54777 0.94349 0.0
H558 H 0.58127 0.52878 0.93353 0.0
H559 H 0.58706 0.4961 0.98233 0.0
C560 C 0.70799 0.25751 0.32539 0.0
C561 C 0.72638 0.2617 0.33117 0.0
C562 C 0.71521 0.27766 0.35908 0.0
C563 C 0.72994 0.27171 0.34782 0.0
C564 C 0.69685 0.27314 0.35334 0.0
C565 C 0.69331 0.26322 0.33668 0.0
U566 U 0.7164 0.2215 0.28557 0.0
O567 O 0.69567 0.20452 0.26971 0.0
O568 O 0.71289 0.22482 0.25544 0.0
C569 C 0.69896 0.21283 0.25408 0.0
C570 C 0.70359 0.248 0.30737 0.0
C571 C 0.68246 0.21875 0.24348 0.0
C572 C 0.6543 0.23681 0.24047 0.0
C573 C 0.66995 0.2316 0.25088 0.0
C574 C 0.66361 0.21645 0.21519 0.0
C575 C 0.65089 0.22923 0.22249 0.0
C576 C 0.67919 0.21127 0.22559 0.0
C577 C 0.75817 0.18842 0.28807 0.0
C578 C 0.7645 0.16349 0.26575 0.0
C579 C 0.7854 0.16924 0.292 0.0
C580 C 0.7743 0.18387 0.29801 0.0
C581 C 0.78066 0.15876 0.27581 0.0
C582 C 0.75337 0.17819 0.27181 0.0
C583 C 0.74651 0.20357 0.29524 0.0
O584 O 0.71511 0.25098 0.29374 0.0
O585 O 0.6979 0.23067 0.30805 0.0
O586 O 0.72967 0.19882 0.30037 0.0
O587 O 0.74694 0.21901 0.28602 0.0
H588 H 0.73797 0.25739 0.32275 0.0
H589 H 0.74426 0.27471 0.35193 0.0
H590 H 0.68517 0.27762 0.36153 0.0
H591 H 0.67901 0.26023 0.33247 0.0
H592 H 0.64474 0.24656 0.24659 0.0
H593 H 0.67224 0.23752 0.2647 0.0
H594 H 0.66166 0.21057 0.20132 0.0
H595 H 0.68874 0.2014 0.21961 0.0
H596 H 0.76048 0.15585 0.25316 0.0
H597 H 0.79747 0.16585 0.30034 0.0
H598 H 0.7782 0.19153 0.31064 0.0
H599 H 0.74097 0.1815 0.26392 0.0
C600 C 0.45943 0.083 0.01247 0.0
C601 C 0.46722 0.09848 1.00392 0.0
C602 C 0.47199 0.11414 0.03407 0.0
C603 C 0.47336 0.11391 0.01459 0.0
C604 C 0.46471 0.09834 0.04257 0.0
C605 C 0.45845 0.08298 0.03187 0.0
U606 U 0.46084 0.04894 0.97091 0.0
O607 O 0.45484 0.01895 0.96937 0.0
O608 O 0.43806 0.03781 0.95293 0.0
C609 C 0.44022 0.02077 0.95842 0.0
C610 C 0.45186 0.067 1.00147 0.0
C611 C 0.42312 0.01095 0.96397 0.0
C612 C 0.39594 0.00798 0.98351 0.0
C613 C 0.41214 0.01763 0.97855 0.0
C614 C 0.40159 0.98491 0.95938 0.0
C615 C 0.39043 0.99148 0.97395 0.0
C616 C 0.41772 0.99455 0.95446 0.0
C617 C 0.50184 0.05468 0.93698 0.0
C618 C 0.50604 0.03773 0.9078 0.0
C619 C 0.53047 0.05839 0.91984 0.0
C620 C 0.51954 0.06279 0.93516 0.0
C621 C 0.52391 0.04577 0.90598 0.0
C622 C 0.49511 0.04212 0.92321 0.0
C623 C 0.49087 0.05961 0.95344 0.0
O624 O 0.44483 0.07062 0.98504 0.0
O625 O 0.46201 0.05204 1.00142 0.0
O626 O 0.49111 0.04771 0.96689 0.0
O627 O 0.4743 0.06643 0.95032 0.0
H628 H 0.46824 0.09879 0.98896 0.0
H629 H 0.47866 0.12586 0.00752 0.0
H630 H 0.46373 0.09787 0.05751 0.0
H631 H 0.45263 0.07113 0.03875 0.0
H632 H 0.38765 0.01352 0.9947 0.0
H633 H 0.4161 0.0303 0.98607 0.0
H634 H 0.39805 0.97209 0.95195 0.0
H635 H 0.42605 0.98913 0.94323 0.0
H636 H 0.50065 0.02779 0.89749 0.0
H637 H 0.54402 0.06502 0.91879 0.0
H638 H 0.52494 0.07256 0.94563 0.0
H639 H 0.48149 0.03567 0.92442 0.0
Zn640 Zn 0.28375 0.85738 0.00539 0.0
Zn641 Zn 0.25459 0.87713 0.01093 0.0
O642 O 0.25711 0.86095 0.03497 0.0
O643 O 0.28216 0.84475 0.02953 0.0
O644 O 0.23165 0.89303 0.01634 0.0
O645 O 0.30051 0.87936 1.00311 0.0
O646 O 0.27616 0.89693 0.00725 0.0
C647 C 0.26886 0.84885 0.04006 0.0
C648 C 0.25648 0.84958 0.97711 0.0
O649 O 0.24743 0.86168 0.98645 0.0
O650 O 0.27263 0.84525 0.98253 0.0
C651 C 0.22582 0.90532 0.0054 0.0
O652 O 0.23469 0.90783 0.98984 0.0
C653 C 0.2936 0.89531 1.00431 0.0
Zn654 Zn 0.10891 0.47146 0.27208 0.0
Zn655 Zn 0.12741 0.50271 0.2668 0.0
O656 O 0.1109 0.50886 0.28983 0.0
O657 O 0.09544 0.48276 0.29358 0.0
O658 O 0.14267 0.52647 0.26342 0.0
O659 O 0.13236 0.45754 0.27656 0.0
O660 O 0.14811 0.48309 0.27105 0.0
C661 C 0.09891 0.49937 0.29861 0.0
C662 C 0.1012 0.48578 0.23616 0.0
O663 O 0.11213 0.49883 0.24206 0.0
O664 O 0.09779 0.47222 0.24639 0.0
C665 C 0.14819 0.53175 0.24769 0.0
O666 O 0.14362 0.52176 0.23277 0.0
C667 C 0.1478 0.46594 0.27497 0.0
Zn668 Zn 0.77198 0.61019 0.96734 0.0
Zn669 Zn 0.76573 0.62909 0.99855 0.0
O670 O 0.7885 0.61274 0.00548 0.0
O671 O 0.7932 0.5971 0.97942 0.0
O672 O 0.76149 0.64519 0.02171 0.0
O673 O 0.77696 0.63323 0.9532 0.0
O674 O 0.7705 0.64911 0.97866 0.0
C675 C 0.79764 0.6007 0.9962 0.0
C676 C 0.73539 0.60291 0.98144 0.0
O677 O 0.74095 0.61401 0.99453 0.0
O678 O 0.74602 0.59929 0.96803 0.0
C679 C 0.75334 0.63964 0.03613 0.0
O680 O 0.74739 0.62238 0.03655 0.0
C681 C 0.77498 0.64865 0.96158 0.0
Zn682 Zn 0.85802 1.0049 0.28132 0.0
Zn683 Zn 0.87878 0.00915 0.25269 0.0
O684 O 0.86375 0.03422 0.25472 0.0
O685 O 0.84703 0.02987 0.27956 0.0
O686 O 0.89638 0.01217 0.23054 0.0
O687 O 0.87937 1.00129 0.29865 0.0
O688 O 0.89773 1.00488 0.27489 0.0
C689 C 0.85186 0.04009 0.26646 0.0
C690 C 0.84951 0.97686 0.25414 0.0
O691 O 0.86229 0.98542 0.24543 0.0
O692 O 0.84487 0.98276 0.27004 0.0
C693 C 0.8943 0.02372 0.21763 0.0
O694 O 0.87978 0.03454 0.21795 0.0
C695 C 0.8956 1.00192 0.29217 0.0
Zn696 Zn 0.26844 0.10988 0.46574 0.0
Zn697 Zn 0.26377 0.12961 0.49668 0.0
O698 O 0.28624 0.11286 0.50343 0.0
O699 O 0.28924 0.09607 0.47777 0.0
O700 O 0.26026 0.1461 0.51971 0.0
O701 O 0.27377 0.13245 0.451 0.0
O702 O 0.26888 0.1491 0.47636 0.0
C703 C 0.29441 0.10004 0.49429 0.0
C704 C 0.2322 0.104 0.48066 0.0
O705 O 0.23852 0.11504 0.49348 0.0
O706 O 0.24226 0.09991 0.46695 0.0
C707 C 0.25251 0.14058 0.53437 0.0
O708 O 0.2467 0.12329 0.535 0.0
C709 C 0.27271 0.14812 0.45912 0.0
Zn710 Zn 0.3556 0.5035 0.78369 0.0
Zn711 Zn 0.37647 0.50895 0.75526 0.0
O712 O 0.36096 0.53361 0.75816 0.0
O713 O 0.34415 0.52833 0.78272 0.0
O714 O 0.39379 0.51423 0.73332 0.0
O715 O 0.37718 0.49934 0.80073 0.0
O716 O 0.39553 0.50419 0.77719 0.0
C717 C 0.34879 0.53895 0.76988 0.0
C718 C 0.34723 0.47654 0.75538 0.0
O719 O 0.36028 0.48522 0.74719 0.0
O720 O 0.34242 0.48191 0.77141 0.0
C721 C 0.39439 0.50478 0.71814 0.0
O722 O 0.38309 0.49043 0.71572 0.0
C723 C 0.39342 0.50047 0.7943 0.0
Zn724 Zn 0.77955 0.35603 0.50619 0.0
Zn725 Zn 0.75052 0.37681 0.51007 0.0
O726 O 0.75187 0.36208 0.53512 0.0
O727 O 0.77775 0.34653 0.53181 0.0
O728 O 0.7283 0.39437 0.51283 0.0
O729 O 0.79663 0.37732 0.50141 0.0
O730 O 0.77285 0.39555 0.50599 0.0
C731 C 0.76395 0.35096 0.54154 0.0
C732 C 0.75211 0.34665 0.47849 0.0
O733 O 0.74369 0.36014 0.48636 0.0
O734 O 0.76776 0.34177 0.48479 0.0
C735 C 0.71475 0.39214 0.52382 0.0
O736 O 0.71442 0.37748 0.53419 0.0
C737 C 0.7901 0.39345 0.50245 0.0
Zn738 Zn 0.60757 0.972 0.77013 0.0
Zn739 Zn 0.62671 1.00275 0.76446 0.0
O740 O 0.61091 0.00963 0.78782 0.0
O741 O 0.59644 0.98326 0.79302 0.0
O742 O 0.64202 0.02599 0.75904 0.0
O743 O 0.63086 0.95719 0.77195 0.0
O744 O 0.64715 0.98288 0.76871 0.0
C745 C 0.59978 1.00004 0.79752 0.0
C746 C 0.59841 0.98674 0.735 0.0
O747 O 0.61087 0.9987 0.7401 0.0
O748 O 0.59412 0.97379 0.74568 0.0
C749 C 0.64845 0.03725 0.77151 0.0
O750 O 0.64494 0.03411 0.78898 0.0
C751 C 0.64648 0.96544 0.77115 0.0
Zn752 Zn 0.00766 0.28311 0.86093 0.0
Zn753 Zn 0.01021 0.2532 0.87966 0.0
O754 O 0.03582 0.2548 0.86528 0.0
O755 O 0.03308 0.28107 0.85083 0.0
O756 O 0.0122 0.22979 0.89525 0.0
O757 O 1.00401 0.2993 0.88325 0.0
O758 O 0.006 0.27436 0.89993 0.0
C759 C 0.04259 0.2671 0.8547 0.0
C760 C 0.97909 0.25743 0.8496 0.0
O761 O 0.98671 0.24787 0.86226 0.0
O762 O 0.98574 0.27325 0.84616 0.0
C763 C 0.02685 0.22615 0.9046 0.0
O764 O 0.0412 0.23759 0.90398 0.0
C765 C 1.00389 0.29186 0.8989 0.0
Zn766 Zn 0.50804 0.78123 0.35715 0.0
Zn767 Zn 0.51189 0.75201 0.37667 0.0
O768 O 0.53715 0.75444 0.36183 0.0
O769 O 0.53332 0.78012 0.34664 0.0
O770 O 0.51643 0.72961 0.39327 0.0
O771 O 0.5039 0.79791 0.379 0.0
O772 O 0.50708 0.77357 0.39634 0.0
C773 C 0.54337 0.76662 0.35081 0.0
C774 C 0.48032 0.75411 0.34688 0.0
O775 O 0.48829 0.74513 0.35978 0.0
O776 O 0.48645 0.77 0.34296 0.0
C777 C 0.50462 0.71676 0.3964 0.0
O778 O 0.48811 0.71723 0.38835 0.0
C779 C 0.50427 0.79092 0.39487 0.0
Zn780 Zn 0.96969 0.77143 0.60874 0.0
Zn781 Zn 1.00026 0.76634 0.6285 0.0
O782 O 0.00767 0.78861 0.61191 0.0
O783 O 0.9822 0.7918 0.59502 0.0
O784 O 0.02296 0.76234 0.6452 0.0
O785 O 0.95457 0.77712 0.63125 0.0
O786 O 0.97965 0.77182 0.648 0.0
C787 C 0.99877 0.79678 0.59908 0.0
C788 C 0.98384 0.73506 0.60271 0.0
O789 O 0.99673 0.74113 0.6138 0.0
O790 O 0.97041 0.74538 0.5986 0.0
C791 C 0.03899 0.7582 0.63923 0.0
O792 O 0.04139 0.75659 0.62124 0.0
C793 C 0.96243 0.77593 0.64698 0.0
Zn794 Zn 0.47225 0.2735 0.10856 0.0
Zn795 Zn 0.50284 0.26781 0.12817 0.0
O796 O 0.50998 0.29093 0.11258 0.0
O797 O 0.4836 0.29629 0.0979 0.0
O798 O 0.52559 0.26308 0.14459 0.0
O799 O 0.45659 0.27539 0.13131 0.0
O800 O 0.48221 0.27218 0.1479 0.0
C801 C 0.50043 0.30065 0.10145 0.0
C802 C 0.48772 0.23824 0.09968 0.0
O803 O 0.49946 0.24325 0.11241 0.0
O804 O 0.47481 0.24902 0.09515 0.0
C805 C 0.54232 0.26328 0.13903 0.0
O806 O 0.54555 0.26694 0.12161 0.0
C807 C 0.46465 0.27462 0.14698 0.0
C808 C 0.228 0.81039 0.87532 0.0
C809 C 0.21984 0.79263 0.87574 0.0
C810 C 0.2323 0.82056 0.89178 0.0
C811 C 0.22833 0.81285 0.90917 0.0
C812 C 0.2196 0.79516 0.90968 0.0
C813 C 0.21552 0.78527 0.893 0.0
C814 C 0.24176 0.83927 0.89056 0.0
C815 C 0.21506 0.78644 0.92788 0.0
C816 C 0.25965 0.82757 0.95004 0.0
C817 C 0.24872 0.84038 0.95984 0.0
C818 C 0.25312 0.81861 0.93368 0.0
C819 C 0.2351 0.82238 0.92674 0.0
C820 C 0.22388 0.83523 0.9365 0.0
C821 C 0.23082 0.84411 0.95294 0.0
C822 C 0.26563 0.80508 0.92377 0.0
C823 C 0.20457 0.83959 0.92956 0.0
H824 H 0.23156 0.81616 0.8621 0.0
H825 H 0.20892 0.7717 0.89347 0.0
H826 H 0.2343 0.84974 0.89902 0.0
H827 H 0.25615 0.83859 0.89629 0.0
H828 H 0.24245 0.84402 0.87607 0.0
H829 H 0.20684 0.77337 0.92592 0.0
H830 H 0.22814 0.78338 0.93549 0.0
H831 H 0.2071 0.79618 0.93673 0.0
H832 H 0.27351 0.82451 0.95513 0.0
H833 H 0.22225 0.85394 0.96035 0.0
H834 H 0.26815 0.80965 0.90945 0.0
H835 H 0.25876 0.79124 0.92265 0.0
H836 H 0.27929 0.80367 0.93098 0.0
H837 H 0.20529 0.84529 0.91546 0.0
H838 H 0.19751 0.84972 0.9388 0.0
H839 H 0.19596 0.82673 0.92845 0.0
C840 C 0.02759 0.54047 0.37267 0.0
C841 C 0.03433 0.5391 0.39095 0.0
C842 C 0.03872 0.5357 0.35746 0.0
C843 C 0.05707 0.52943 0.36056 0.0
C844 C 0.06416 0.52862 0.37895 0.0
C845 C 0.05271 0.53342 0.3939 0.0
C846 C 0.03057 0.53666 0.33809 0.0
C847 C 0.08365 0.5221 0.38289 0.0
C848 C 0.07667 0.49601 0.32466 0.0
C849 C 0.08867 0.50741 0.31463 0.0
C850 C 0.06644 0.50303 0.33959 0.0
C851 C 0.06814 0.522 0.34475 0.0
C852 C 0.08029 0.53364 0.33482 0.0
C853 C 0.09045 0.5262 0.31988 0.0
C854 C 0.05373 0.4901 0.34981 0.0
C855 C 0.08245 0.55394 0.33991 0.0
H856 H 0.01338 0.54472 0.37025 0.0
H857 H 0.05815 0.53266 0.40795 0.0
H858 H 0.04008 0.54451 0.3291 0.0
H859 H 0.02901 0.52248 0.33194 0.0
H860 H 0.01673 0.5433 0.33792 0.0
H861 H 0.08761 0.52371 0.3978 0.0
H862 H 0.08472 0.50728 0.3787 0.0
H863 H 0.09384 0.52992 0.37461 0.0
H864 H 0.07518 0.48146 0.32084 0.0
H865 H 0.09964 0.53512 0.31223 0.0
H866 H 0.03919 0.49501 0.34901 0.0
H867 H 0.05783 0.48998 0.3647 0.0
H868 H 0.05403 0.47568 0.3441 0.0
H869 H 0.06881 0.56081 0.33862 0.0
H870 H 0.0926 0.56109 0.33099 0.0
H871 H 0.08714 0.55569 0.35459 0.0
C872 C 0.76754 0.73023 0.89056 0.0
C873 C 0.78254 0.74291 0.89126 0.0
C874 C 0.76624 0.71593 0.9033 0.0
C875 C 0.78035 0.71413 0.91704 0.0
C876 C 0.79531 0.72714 0.91811 0.0
C877 C 0.79619 0.74141 0.90525 0.0
C878 C 0.74997 0.70247 0.90176 0.0
C879 C 0.81072 0.72561 0.93242 0.0
C880 C 0.76995 0.6827 0.95743 0.0
C881 C 0.77745 0.66592 0.95112 0.0
C882 C 0.77105 0.69865 0.94667 0.0
C883 C 0.78009 0.69784 0.92934 0.0
C884 C 0.78825 0.6811 0.92326 0.0
C885 C 0.78674 0.66537 0.93413 0.0
C886 C 0.76205 0.7162 0.95356 0.0
C887 C 0.79824 0.67967 0.90501 0.0
H888 H 0.75679 0.73149 0.87998 0.0
H889 H 0.80788 0.75108 0.90581 0.0
H890 H 0.75501 0.68846 0.89802 0.0
H891 H 0.74299 0.70154 0.91532 0.0
H892 H 0.73954 0.70651 0.89114 0.0
H893 H 0.82069 0.7375 0.93224 0.0
H894 H 0.80483 0.72479 0.94651 0.0
H895 H 0.81849 0.71268 0.92979 0.0
H896 H 0.76271 0.68323 0.9705 0.0
H897 H 0.79274 0.65252 0.92921 0.0
H898 H 0.75047 0.71977 0.94401 0.0
H899 H 0.77224 0.72789 0.95367 0.0
H900 H 0.75644 0.71488 0.96774 0.0
H901 H 0.78828 0.6819 0.8934 0.0
H902 H 0.80477 0.66597 0.90279 0.0
H903 H 0.80922 0.69058 0.90441 0.0
C904 C 0.9723 0.96297 0.36117 0.0
C905 C 0.98004 0.97661 0.37333 0.0
C906 C 0.96059 0.96764 0.34628 0.0
C907 C 0.95652 0.98645 0.34334 0.0
C908 C 0.96515 1.00036 0.35487 0.0
C909 C 0.97676 0.99529 0.36974 0.0
C910 C 0.95173 0.95234 0.33435 0.0
C911 C 0.96128 0.02058 0.35221 0.0
C912 C 0.9301 0.99843 0.29881 0.0
C913 C 0.91167 0.99877 0.30498 0.0
C914 C 0.94498 0.99476 0.31114 0.0
C915 C 0.94131 0.99129 0.33002 0.0
C916 C 0.92278 0.99188 0.3363 0.0
C917 C 0.90829 0.99563 0.32379 0.0
C918 C 0.96457 0.99437 0.30395 0.0
C919 C 0.91814 0.98825 0.35627 0.0
H920 H 0.97508 0.94852 0.36354 0.0
H921 H 0.98256 0.00596 0.37906 0.0
H922 H 0.9366 0.95151 0.33714 0.0
H923 H 0.95327 0.95529 0.31944 0.0
H924 H 0.95787 0.93865 0.33707 0.0
H925 H 0.971 0.02973 0.36049 0.0
H926 H 0.96234 0.02405 0.33737 0.0
H927 H 0.94686 0.02358 0.35653 0.0
H928 H 0.93289 1.00086 0.28435 0.0
H929 H 0.89417 0.99589 0.32883 0.0
H930 H 0.9703 0.98031 0.30535 0.0
H931 H 0.97368 1.00401 0.31234 0.0
H932 H 0.96525 0.99822 0.28917 0.0
H933 H 0.92244 0.97409 0.35985 0.0
H934 H 0.90304 0.98955 0.35902 0.0
H935 H 0.92593 0.9981 0.36566 0.0
C936 C 0.24785 0.20564 0.62659 0.0
C937 C 0.23088 0.21498 0.62724 0.0
C938 C 0.25223 0.194 0.61138 0.0
C939 C 0.23935 0.19162 0.59639 0.0
C940 C 0.22239 0.20135 0.59676 0.0
C941 C 0.21838 0.21288 0.61213 0.0
C942 C 0.27044 0.18388 0.61156 0.0
C943 C 0.20832 0.19933 0.58103 0.0
C944 C 0.25559 0.17216 0.54978 0.0
C945 C 0.24963 0.15359 0.55039 0.0
C946 C 0.25252 0.18464 0.5647 0.0
C947 C 0.24326 0.17846 0.58064 0.0
C948 C 0.23736 0.15971 0.5814 0.0
C949 C 0.24061 0.14753 0.56631 0.0
C950 C 0.25905 0.2045 0.56332 0.0
C951 C 0.22742 0.15254 0.59811 0.0
H952 H 0.25752 0.207 0.63826 0.0
H953 H 0.20536 0.22025 0.61235 0.0
H954 H 0.26771 0.16874 0.61171 0.0
H955 H 0.27827 0.18672 0.59879 0.0
H956 H 0.27934 0.18788 0.6238 0.0
H957 H 0.19611 0.20835 0.58311 0.0
H958 H 0.2149 0.20281 0.56773 0.0
H959 H 0.20333 0.18475 0.57971 0.0
H960 H 0.26258 0.17701 0.53758 0.0
H961 H 0.23594 0.13325 0.56697 0.0
H962 H 0.26858 0.20827 0.57513 0.0
H963 H 0.24697 0.21384 0.5642 0.0
H964 H 0.26639 0.20705 0.55017 0.0
H965 H 0.23616 0.15499 0.61078 0.0
H966 H 0.22404 0.13751 0.59672 0.0
H967 H 0.21428 0.16014 0.60015 0.0
C968 C 0.45137 0.54211 0.63142 0.0
C969 C 0.4689 0.53398 0.62946 0.0
C970 C 0.43956 0.53755 0.64605 0.0
C971 C 0.44529 0.5245 0.6592 0.0
C972 C 0.46297 0.51624 0.65736 0.0
C973 C 0.47451 0.52103 0.64253 0.0
C974 C 0.42081 0.5466 0.64733 0.0
C975 C 0.4697 0.50232 0.67107 0.0
C976 C 0.42054 0.52449 0.70582 0.0
C977 C 0.40764 0.5098 0.70324 0.0
C978 C 0.433 0.52927 0.69175 0.0
C979 C 0.43258 0.51921 0.67458 0.0
C980 C 0.41966 0.50434 0.67194 0.0
C981 C 0.40742 0.49981 0.68625 0.0
C982 C 0.44656 0.54519 0.6952 0.0
C983 C 0.41863 0.49327 0.65389 0.0
H984 H 0.44671 0.55189 0.62128 0.0
H985 H 0.48807 0.5148 0.64132 0.0
H986 H 0.40958 0.5359 0.64633 0.0
H987 H 0.41953 0.55388 0.66098 0.0
H988 H 0.41852 0.55671 0.63622 0.0
H989 H 0.48388 0.49735 0.6679 0.0
H990 H 0.46987 0.50856 0.68529 0.0
H991 H 0.45999 0.49024 0.67103 0.0
H992 H 0.4209 0.53229 0.71887 0.0
H993 H 0.39757 0.48844 0.68403 0.0
H994 H 0.44397 0.55615 0.68504 0.0
H995 H 0.46102 0.54044 0.69318 0.0
H996 H 0.4455 0.55133 0.70942 0.0
H997 H 0.41519 0.50249 0.64231 0.0
H998 H 0.40801 0.48194 0.65409 0.0
H999 H 0.43236 0.48715 0.65091 0.0
C1000 C 0.75774 0.2766 0.61907 0.0
C1001 C 0.76026 0.28292 0.63753 0.0
C1002 C 0.7565 0.28901 0.60443 0.0
C1003 C 0.75784 0.30832 0.60823 0.0
C1004 C 0.75973 0.31484 0.62689 0.0
C1005 C 0.7609 0.3021 0.64129 0.0
C1006 C 0.75442 0.28139 0.5848 0.0
C1007 C 0.76128 0.33528 0.63158 0.0
C1008 C 0.77805 0.33546 0.56872 0.0
C1009 C 0.7621 0.3424 0.55998 0.0
C1010 C 0.77686 0.32512 0.58485 0.0
C1011 C 0.75923 0.32139 0.59252 0.0
C1012 C 0.74311 0.32904 0.5843 0.0
C1013 C 0.74473 0.33956 0.56815 0.0
C1014 C 0.79447 0.31749 0.59319 0.0
C1015 C 0.72406 0.32542 0.59206 0.0
H1016 H 0.75682 0.26185 0.61602 0.0
H1017 H 0.76293 0.30716 0.65547 0.0
H1018 H 0.74258 0.28799 0.57764 0.0
H1019 H 0.76716 0.28465 0.57695 0.0
H1020 H 0.75211 0.26615 0.58426 0.0
H1021 H 0.76068 0.33821 0.64675 0.0
H1022 H 0.77467 0.34084 0.62644 0.0
H1023 H 0.74995 0.34283 0.62458 0.0
H1024 H 0.79158 0.33776 0.56267 0.0
H1025 H 0.73235 0.34482 0.56148 0.0
H1026 H 0.79418 0.30217 0.59176 0.0
H1027 H 0.79545 0.3211 0.60822 0.0
H1028 H 0.80718 0.3228 0.58641 0.0
H1029 H 0.72025 0.31059 0.58987 0.0
H1030 H 0.71321 0.33388 0.58536 0.0
H1031 H 0.72411 0.3284 0.60723 0.0
C1032 C 0.55835 0.96874 0.63282 0.0
C1033 C 0.54247 0.97899 0.6286 0.0
C1034 C 0.56847 0.97198 0.64943 0.0
C1035 C 0.56253 0.98571 0.66229 0.0
C1036 C 0.54699 0.99665 0.6578 0.0
C1037 C 0.53718 0.99319 0.64101 0.0
C1038 C 0.58498 0.96003 0.65364 0.0
C1039 C 0.5402 0.01143 0.67111 0.0
C1040 C 0.57325 0.97607 0.71274 0.0
C1041 C 0.58887 0.98754 0.7166 0.0
C1042 C 0.56436 0.97575 0.6953 0.0
C1043 C 0.57125 0.9871 0.68119 0.0
C1044 C 0.58678 0.99901 0.68503 0.0
C1045 C 0.59538 0.99914 0.70273 0.0
C1046 C 0.54776 0.96294 0.69188 0.0
C1047 C 0.59455 0.01127 0.67031 0.0
H1048 H 0.56247 0.95759 0.6235 0.0
H1049 H 0.52515 1.00142 0.63774 0.0
H1050 H 0.59713 0.96873 0.65825 0.0
H1051 H 0.58156 0.95073 0.66514 0.0
H1052 H 0.58903 0.95138 0.64144 0.0
H1053 H 0.5292 0.01999 0.6648 0.0
H1054 H 0.53445 1.00486 0.68356 0.0
H1055 H 0.55191 0.02064 0.67588 0.0
H1056 H 0.56798 0.96716 0.72337 0.0
H1057 H 0.60742 0.00804 0.70558 0.0
H1058 H 0.551 0.9525 0.6809 0.0
H1059 H 0.53567 0.97087 0.68689 0.0
H1060 H 0.54368 0.95556 0.70455 0.0
H1061 H 0.59995 1.00259 0.65874 0.0
H1062 H 0.60599 0.02048 0.67577 0.0
H1063 H 0.58339 0.01991 0.66446 0.0
C1064 C 0.87885 0.24397 0.80264 0.0
C1065 C 0.8786 0.23294 0.78632 0.0
C1066 C 0.89487 0.24556 0.81406 0.0
C1067 C 0.91115 0.23593 0.80907 0.0
C1068 C 0.91069 0.22401 0.79314 0.0
C1069 C 0.89444 0.22264 0.78198 0.0
C1070 C 0.89465 0.25833 0.83096 0.0
C1071 C 0.9277 0.21352 0.78726 0.0
C1072 C 0.95663 0.26026 0.82308 0.0
C1073 C 0.96232 0.25069 0.83885 0.0
C1074 C 0.94032 0.25528 0.81315 0.0
C1075 C 0.92917 0.24031 0.81904 0.0
C1076 C 0.93499 0.23022 0.83466 0.0
C1077 C 0.95154 0.2355 0.84437 0.0
C1078 C 0.9348 0.26638 0.79652 0.0
C1079 C 0.9235 0.21417 0.84136 0.0
H1080 H 0.86658 0.25171 0.80631 0.0
H1081 H 0.89445 0.21415 0.76937 0.0
H1082 H 0.90033 0.25129 0.84325 0.0
H1083 H 0.90369 0.27061 0.82863 0.0
H1084 H 0.88042 0.26316 0.83412 0.0
H1085 H 0.92443 0.20304 0.77609 0.0
H1086 H 0.93829 0.22337 0.78209 0.0
H1087 H 0.93402 0.20647 0.79924 0.0
H1088 H 0.96489 0.27191 0.81852 0.0
H1089 H 0.95578 0.22802 0.85652 0.0
H1090 H 0.92133 0.27322 0.79909 0.0
H1091 H 0.93282 0.2571 0.78412 0.0
H1092 H 0.94535 0.27718 0.79333 0.0
H1093 H 0.90983 0.21918 0.84615 0.0
H1094 H 0.93046 0.20702 0.85295 0.0
H1095 H 0.92071 0.204 0.82982 0.0
C1096 C 0.46359 0.86311 0.46733 0.0
C1097 C 0.47672 0.8713 0.47977 0.0
C1098 C 0.46831 0.84827 0.45543 0.0
C1099 C 0.48668 0.84144 0.45579 0.0
C1100 C 0.4998 0.84909 0.46884 0.0
C1101 C 0.49467 0.86388 0.48067 0.0
C1102 C 0.45386 0.84055 0.44177 0.0
C1103 C 0.51952 0.84225 0.4697 0.0
C1104 C 0.4956 0.79648 0.42839 0.0
C1105 C 0.50124 0.80332 0.41131 0.0
C1106 C 0.49121 0.80867 0.44326 0.0
C1107 C 0.49267 0.82807 0.44098 0.0
C1108 C 0.49904 0.83494 0.42399 0.0
C1109 C 0.50316 0.82254 0.40943 0.0
C1110 C 0.48444 0.80082 0.46115 0.0
C1111 C 0.50101 0.85548 0.42095 0.0
H1112 H 0.44976 0.8688 0.4663 0.0
H1113 H 0.50484 0.86983 0.49045 0.0
H1114 H 0.45769 0.84439 0.42751 0.0
H1115 H 0.45336 0.82522 0.4421 0.0
H1116 H 0.43974 0.84587 0.44462 0.0
H1117 H 0.52739 0.84809 0.48194 0.0
H1118 H 0.51961 0.82693 0.4702 0.0
H1119 H 0.52691 0.84623 0.45698 0.0
H1120 H 0.49406 0.78167 0.42996 0.0
H1121 H 0.50772 0.828 0.39637 0.0
H1122 H 0.46968 0.80457 0.46319 0.0
H1123 H 0.49257 0.80686 0.4731 0.0
H1124 H 0.48548 0.78551 0.46128 0.0
H1125 H 0.48717 0.86202 0.42179 0.0
H1126 H 0.50705 0.85854 0.40726 0.0
H1127 H 0.51002 0.86205 0.43197 0.0
C1128 C 0.14424 0.26842 0.80835 0.0
C1129 C 0.14124 0.26976 0.78913 0.0
C1130 C 0.12935 0.26527 0.8204 0.0
C1131 C 0.11095 0.26346 0.81312 0.0
C1132 C 0.10799 0.26378 0.79366 0.0
C1133 C 0.12311 0.2669 0.78194 0.0
C1134 C 0.13319 0.265 0.84102 0.0
C1135 C 0.08866 0.26184 0.78524 0.0
C1136 C 0.06948 0.24847 0.84229 0.0
C1137 C 0.06134 0.26559 0.84635 0.0
C1138 C 0.08602 0.24746 0.83198 0.0
C1139 C 0.09463 0.26395 0.82578 0.0
C1140 C 0.08692 0.28124 0.83073 0.0
C1141 C 0.07045 0.28183 0.84085 0.0
C1142 C 0.09383 0.22876 0.82706 0.0
C1143 C 0.09565 0.29921 0.82467 0.0
H1144 H 0.15813 0.2707 0.81412 0.0
H1145 H 0.12067 0.26751 0.76711 0.0
H1146 H 0.12814 0.27798 0.84764 0.0
H1147 H 0.1256 0.25332 0.84732 0.0
H1148 H 0.14828 0.26381 0.84429 0.0
H1149 H 0.08888 0.26036 0.76987 0.0
H1150 H 0.08129 0.24966 0.79083 0.0
H1151 H 0.08049 0.27425 0.789 0.0
H1152 H 0.06251 0.23588 0.84644 0.0
H1153 H 0.06442 0.29515 0.84413 0.0
H1154 H 0.10899 0.22857 0.8302 0.0
H1155 H 0.09198 0.22592 0.81194 0.0
H1156 H 0.08686 0.21747 0.83462 0.0
H1157 H 0.11054 0.29998 0.82893 0.0
H1158 H 0.08856 0.31152 0.8306 0.0
H1159 H 0.09499 0.29986 0.80932 0.0
C1160 C 0.51979 0.64228 0.47646 0.0
C1161 C 0.52948 0.62676 0.46987 0.0
C1162 C 0.51602 0.65727 0.46494 0.0
C1163 C 0.52203 0.65684 0.4463 0.0
C1164 C 0.53196 0.64132 0.43962 0.0
C1165 C 0.53558 0.62656 0.45144 0.0
C1166 C 0.5054 0.67351 0.47267 0.0
C1167 C 0.53867 0.64023 0.41989 0.0
C1168 C 0.49686 0.6864 0.41095 0.0
C1169 C 0.50923 0.70147 0.40916 0.0
C1170 C 0.50084 0.67188 0.42295 0.0
C1171 C 0.51757 0.67238 0.43363 0.0
C1172 C 0.5301 0.68758 0.43198 0.0
C1173 C 0.52583 0.70187 0.41974 0.0
C1174 C 0.48713 0.65593 0.42413 0.0
C1175 C 0.54803 0.68876 0.44316 0.0
H1176 H 0.51483 0.64258 0.49057 0.0
H1177 H 0.54339 0.61487 0.44623 0.0
H1178 H 0.51355 0.68651 0.471 0.0
H1179 H 0.49212 0.67491 0.46481 0.0
H1180 H 0.50222 0.67206 0.48759 0.0
H1181 H 0.54637 0.62732 0.41685 0.0
H1182 H 0.52665 0.64086 0.4101 0.0
H1183 H 0.54793 0.65225 0.4172 0.0
H1184 H 0.48401 0.68587 0.40286 0.0
H1185 H 0.53547 0.71344 0.41856 0.0
H1186 H 0.48243 0.65461 0.43862 0.0
H1187 H 0.49398 0.64279 0.42013 0.0
H1188 H 0.47472 0.65761 0.41499 0.0
H1189 H 0.545 0.68836 0.45818 0.0
H1190 H 0.55618 0.70158 0.44051 0.0
H1191 H 0.55676 0.67664 0.43978 0.0
C1192 C 0.89454 0.76915 0.73292 0.0
C1193 C 0.89111 0.78625 0.74178 0.0
C1194 C 0.9072 0.7677 0.71833 0.0
C1195 C 0.91673 0.78373 0.71241 0.0
C1196 C 0.91363 0.80098 0.72153 0.0
C1197 C 0.90083 0.80204 0.73606 0.0
C1198 C 0.90997 0.74907 0.70889 0.0
C1199 C 0.92356 0.81838 0.71569 0.0
C1200 C 0.95902 0.77672 0.68176 0.0
C1201 C 0.95122 0.77876 0.66397 0.0
C1202 C 0.94807 0.77863 0.69772 0.0
C1203 C 0.92889 0.78262 0.69584 0.0
C1204 C 0.92105 0.78498 0.67796 0.0
C1205 C 0.93227 0.78306 0.66231 0.0
C1206 C 0.95695 0.77607 0.71656 0.0
C1207 C 0.90067 0.78922 0.6753 0.0
H1208 H 0.88693 0.75692 0.73706 0.0
H1209 H 0.89846 0.81526 0.743 0.0
H1210 H 0.90505 0.74947 0.69425 0.0
H1211 H 0.92498 0.74573 0.70873 0.0
H1212 H 0.90234 0.73778 0.71582 0.0
H1213 H 0.92048 0.83047 0.7249 0.0
H1214 H 0.93882 0.8163 0.71574 0.0
H1215 H 0.91931 0.82162 0.7013 0.0
H1216 H 0.97362 0.77342 0.68322 0.0
H1217 H 0.92606 0.78472 0.64868 0.0
H1218 H 0.95045 0.76398 0.72324 0.0
H1219 H 0.9545 0.78837 0.72567 0.0
H1220 H 0.97218 0.77385 0.71575 0.0
H1221 H 0.892 0.77777 0.68066 0.0
H1222 H 0.89683 0.79113 0.6605 0.0
H1223 H 0.89715 0.80196 0.68331 0.0
C1224 C 0.02746 0.89112 0.55148 0.0
C1225 C 0.0391 0.88861 0.5362 0.0
C1226 C 0.02256 0.87626 0.56269 0.0
C1227 C 0.02933 0.85836 0.55847 0.0
C1228 C 0.04148 0.85582 0.54336 0.0
C1229 C 0.04626 0.87097 0.53246 0.0
C1230 C 0.00968 0.87962 0.57873 0.0
C1231 C 0.04885 0.83696 0.53826 0.0
C1232 C 0.02405 0.82088 0.59454 0.0
C1233 C 0.00737 0.81208 0.58859 0.0
C1234 C 0.03153 0.83588 0.58482 0.0
C1235 C 0.02221 0.84207 0.5687 0.0
C1236 C 0.00562 0.83296 0.56246 0.0
C1237 C 0.99841 0.8182 0.57247 0.0
C1238 C 0.04921 0.8453 0.59195 0.0
C1239 C 0.99529 0.83895 0.54527 0.0
H1240 H 0.02214 0.90477 0.55467 0.0
H1241 H 0.05516 0.86888 0.52062 0.0
H1242 H 0.99622 0.87226 0.57595 0.0
H1243 H 0.01573 0.87401 0.59162 0.0
H1244 H 0.0069 0.89455 0.58113 0.0
H1245 H 0.05936 0.83755 0.52714 0.0
H1246 H 0.05525 0.83058 0.55059 0.0
H1247 H 0.03718 0.82774 0.53339 0.0
H1248 H 0.03107 0.81628 0.60696 0.0
H1249 H 0.98561 0.81144 0.5676 0.0
H1250 H 0.04642 0.85996 0.59571 0.0
H1251 H 0.05981 0.8453 0.58093 0.0
H1252 H 0.05511 0.83849 0.60431 0.0
H1253 H 0.99061 0.85341 0.54723 0.0
H1254 H 0.98291 0.83001 0.54191 0.0
H1255 H 1.00467 0.83863 0.53321 0.0
C1256 C 0.11753 0.7196 0.7072 0.0
C1257 C 0.13034 0.73324 0.7137 0.0
C1258 C 0.10238 0.72402 0.69565 0.0
C1259 C 0.09986 0.74257 0.69043 0.0
C1260 C 0.11248 0.75649 0.69726 0.0
C1261 C 0.12754 0.75167 0.7088 0.0
C1262 C 0.08923 0.70875 0.68879 0.0
C1263 C 0.11031 0.77643 0.69206 0.0
C1264 C 0.07232 0.7502 0.64575 0.0
C1265 C 0.05467 0.75476 0.6524 0.0
C1266 C 0.08716 0.74645 0.65796 0.0
C1267 C 0.08436 0.74725 0.67737 0.0
C1268 C 0.06665 0.75203 0.6842 0.0
C1269 C 0.05204 0.75573 0.67166 0.0
C1270 C 0.10581 0.74142 0.65007 0.0
C1271 C 0.06306 0.75304 0.70477 0.0
H1272 H 0.11935 0.70537 0.71115 0.0
H1273 H 0.13743 0.7623 0.71357 0.0
H1274 H 0.07474 0.71207 0.69263 0.0
H1275 H 0.08958 0.70757 0.67343 0.0
H1276 H 0.09278 0.69512 0.69454 0.0
H1277 H 0.12078 0.78573 0.69917 0.0
H1278 H 0.1118 0.77768 0.67685 0.0
H1279 H 0.09619 0.78125 0.69561 0.0
H1280 H 0.07456 0.74943 0.63092 0.0
H1281 H 0.03849 0.75925 0.67699 0.0
H1282 H 0.10957 0.72729 0.65426 0.0
H1283 H 0.11679 0.75105 0.65574 0.0
H1284 H 0.10587 0.74187 0.63469 0.0
H1285 H 0.06532 0.73929 0.71083 0.0
H1286 H 0.04867 0.75743 0.70788 0.0
H1287 H 0.07302 0.76291 0.71177 0.0
C1288 C 0.97446 0.62964 0.56597 0.0
C1289 C 0.97651 0.62866 0.54663 0.0
C1290 C 0.97808 0.64618 0.57615 0.0
C1291 C 0.98399 0.66216 0.56682 0.0
C1292 C 0.98722 0.66097 0.5475 0.0
C1293 C 0.9834 0.64427 0.53764 0.0
C1294 C 0.9745 0.6468 0.59672 0.0
C1295 C 0.9936 0.67765 0.53701 0.0
C1296 C 0.96804 0.70872 0.58548 0.0
C1297 C 0.98417 0.71605 0.59434 0.0
C1298 C 0.96784 0.69118 0.57674 0.0
C1299 C 0.98423 0.68059 0.57667 0.0
C1300 C 1.00056 0.68774 0.58576 0.0
C1301 C 1.00032 0.70538 0.59458 0.0
C1302 C 0.95005 0.68407 0.56741 0.0
C1303 C 0.01832 0.67688 0.58588 0.0
H1304 H 0.96955 0.61755 0.57312 0.0
H1305 H 0.98495 0.64374 0.52271 0.0
H1306 H 0.98634 0.65361 0.6044 0.0
H1307 H 0.96195 0.65513 0.59949 0.0
H1308 H 0.97221 0.63278 0.60228 0.0
H1309 H 0.99786 0.6739 0.52267 0.0
H1310 H 0.9821 0.68768 0.5362 0.0
H1311 H 0.00547 0.68474 0.54437 0.0
H1312 H 0.95542 0.71674 0.58532 0.0
H1313 H 0.01285 0.71094 0.60134 0.0
H1314 H 0.94582 0.67064 0.57328 0.0
H1315 H 0.95234 0.6816 0.55237 0.0
H1316 H 0.9384 0.69386 0.56906 0.0
H1317 H 0.0158 0.66306 0.59174 0.0
H1318 H 0.02964 0.68407 0.59406 0.0
H1319 H 0.02309 0.6746 0.57145 0.0
C1320 C 0.78442 0.89315 0.21403 0.0
C1321 C 0.79216 0.87593 0.21788 0.0
C1322 C 0.7943 0.90978 0.21803 0.0
C1323 C 0.81234 0.90926 0.22622 0.0
C1324 C 0.82041 0.89191 0.22972 0.0
C1325 C 0.81026 0.8755 0.22549 0.0
C1326 C 0.7852 0.92794 0.21399 0.0
C1327 C 0.83949 0.89068 0.23861 0.0
C1328 C 0.84347 0.95282 0.22841 0.0
C1329 C 0.8401 0.95973 0.24639 0.0
C1330 C 0.83447 0.93648 0.22151 0.0
C1331 C 0.82192 0.92678 0.23291 0.0
C1332 C 0.81852 0.93372 0.25104 0.0
C1333 C 0.82754 0.95003 0.25748 0.0
C1334 C 0.83839 0.92956 0.20207 0.0
C1335 C 0.80537 0.92384 0.26376 0.0
H1336 H 0.77059 0.89363 0.20787 0.0
H1337 H 0.81631 0.8623 0.22867 0.0
H1338 H 0.78239 0.93551 0.22721 0.0
H1339 H 0.79467 0.9368 0.20592 0.0
H1340 H 0.77185 0.92601 0.20614 0.0
H1341 H 0.84444 0.87622 0.23901 0.0
H1342 H 0.84973 0.8991 0.23098 0.0
H1343 H 0.83915 0.89641 0.25303 0.0
H1344 H 0.85311 0.96017 0.21971 0.0
H1345 H 0.82479 0.95511 0.27143 0.0
H1346 H 0.82522 0.92844 0.19384 0.0
H1347 H 0.84432 0.9155 0.20246 0.0
H1348 H 0.84826 0.93878 0.19485 0.0
H1349 H 0.79127 0.92275 0.25729 0.0
H1350 H 0.80426 0.93103 0.27749 0.0
H1351 H 0.81018 0.90955 0.26596 0.0
C1352 C 0.81168 0.1433 0.27216 0.0
C1353 C 0.79219 0.14255 0.2701 0.0
C1354 C 0.82254 0.12752 0.26906 0.0
C1355 C 0.81378 0.11049 0.26366 0.0
C1356 C 0.79426 0.1099 0.26044 0.0
C1357 C 0.78372 0.12588 0.26373 0.0
C1358 C 0.84328 0.12885 0.27266 0.0
C1359 C 0.78432 0.09209 0.25462 0.0
C1360 C 0.84287 0.06868 0.24897 0.0
C1361 C 0.84336 0.05872 0.26541 0.0
C1362 C 0.83344 0.08566 0.24811 0.0
C1363 C 0.82449 0.0929 0.26409 0.0
C1364 C 0.82545 0.0831 0.28079 0.0
C1365 C 0.83476 0.06623 0.28121 0.0
C1366 C 0.83267 0.09565 0.23003 0.0
C1367 C 0.81638 0.09031 0.29827 0.0
H1368 H 0.81846 0.15618 0.27667 0.0
H1369 H 0.76871 0.12503 0.26217 0.0
H1370 H 0.84681 0.1214 0.28546 0.0
H1371 H 0.85091 0.12216 0.26111 0.0
H1372 H 0.84827 0.14342 0.27443 0.0
H1373 H 0.76966 0.09439 0.25027 0.0
H1374 H 0.79165 0.08515 0.243 0.0
H1375 H 0.78434 0.08252 0.26639 0.0
H1376 H 0.84942 0.06299 0.23669 0.0
H1377 H 0.83519 0.0588 0.29407 0.0
H1378 H 0.83775 0.11014 0.23212 0.0
H1379 H 0.81804 0.09621 0.22497 0.0
H1380 H 0.84112 0.08878 0.21915 0.0
H1381 H 0.82181 0.1044 0.30195 0.0
H1382 H 0.81885 0.08128 0.31025 0.0
H1383 H 0.80114 0.09135 0.29592 0.0
C1384 C 0.36925 0.97832 0.99805 0.0
C1385 C 0.37345 0.98077 0.97931 0.0
C1386 C 0.35448 0.9666 1.00321 0.0
C1387 C 0.34369 0.95698 0.98933 0.0
C1388 C 0.34721 0.96021 0.97041 0.0
C1389 C 0.36197 0.97206 0.96565 0.0
C1390 C 0.35115 0.96368 0.02354 0.0
C1391 C 0.33609 0.95029 0.95512 0.0
C1392 C 0.32529 0.90887 0.99946 0.0
C1393 C 0.30612 0.91165 1.00168 0.0
C1394 C 0.33755 0.92355 0.99582 0.0
C1395 C 0.33064 0.94167 0.99441 0.0
C1396 C 0.3114 0.94478 0.99711 0.0
C1397 C 0.29934 0.92972 1.00068 0.0
C1398 C 0.35791 0.91951 0.99305 0.0
C1399 C 0.30354 0.96393 0.99586 0.0
H1400 H 0.37803 0.98488 0.00875 0.0
H1401 H 0.36478 0.97419 0.95114 0.0
H1402 H 0.33608 0.96435 0.02655 0.0
H1403 H 0.35591 0.94971 0.02726 0.0
H1404 H 0.35875 0.97409 0.03252 0.0
H1405 H 0.33917 0.95577 0.94124 0.0
H1406 H 0.33938 0.93534 0.955 0.0
H1407 H 0.32096 0.95151 0.95761 0.0
H1408 H 0.33081 0.89505 1.00029 0.0
H1409 H 0.2846 0.93205 1.0024 0.0
H1410 H 0.36664 0.92807 1.00288 0.0
H1411 H 0.36198 0.92318 0.97881 0.0
H1412 H 0.36115 0.90472 0.99508 0.0
H1413 H 0.3115 0.97376 1.00515 0.0
H1414 H 0.28861 0.9643 0.99961 0.0
H1415 H 0.30495 0.96888 0.98151 0.0
C1416 C 0.2316 0.39602 0.26707 0.0
C1417 C 0.24287 0.39527 0.2831 0.0
C1418 C 0.21738 0.40903 0.26562 0.0
C1419 C 0.21424 0.42161 0.28059 0.0
C1420 C 0.22596 0.42135 0.29657 0.0
C1421 C 0.24015 0.40822 0.29761 0.0
C1422 C 0.20531 0.40889 0.24828 0.0
C1423 C 0.22301 0.43444 0.31288 0.0
C1424 C 0.18248 0.46241 0.27162 0.0
C1425 C 0.16525 0.45542 0.27739 0.0
C1426 C 0.19869 0.45174 0.27287 0.0
C1427 C 0.19763 0.43375 0.28018 0.0
C1428 C 0.18038 0.42689 0.28651 0.0
C1429 C 0.16446 0.43774 0.28499 0.0
C1430 C 0.21682 0.4595 0.26592 0.0
C1431 C 0.17861 0.40786 0.29454 0.0
H1432 H 0.23384 0.38629 0.25565 0.0
H1433 H 0.24871 0.40767 0.31009 0.0
H1434 H 0.19089 0.40462 0.2517 0.0
H1435 H 0.20466 0.423 0.24264 0.0
H1436 H 0.21048 0.39928 0.23733 0.0
H1437 H 0.2343 0.43364 0.32351 0.0
H1438 H 0.22223 0.4489 0.30818 0.0
H1439 H 0.20957 0.43106 0.31946 0.0
H1440 H 0.18323 0.47603 0.26572 0.0
H1441 H 0.15127 0.43223 0.28965 0.0
H1442 H 0.22152 0.45098 0.25391 0.0
H1443 H 0.22779 0.45888 0.27688 0.0
H1444 H 0.21557 0.47406 0.26157 0.0
H1445 H 0.18202 0.39719 0.28385 0.0
H1446 H 0.16438 0.40491 0.29962 0.0
H1447 H 0.18867 0.40648 0.30624 0.0
C1448 C 0.12721 0.06438 0.47576 0.0
C1449 C 0.12733 0.04505 0.47721 0.0
C1450 C 0.14351 0.07511 0.47872 0.0
C1451 C 0.16037 0.06634 0.48334 0.0
C1452 C 0.16034 0.047 0.48598 0.0
C1453 C 0.14385 0.03658 0.48285 0.0
C1454 C 0.14288 0.0957 0.47582 0.0
C1455 C 0.17799 0.0371 0.49099 0.0
C1456 C 0.20539 0.08685 0.46557 0.0
C1457 C 0.2133 0.09546 0.48156 0.0
C1458 C 0.18809 0.07767 0.46599 0.0
C1459 C 0.17838 0.07688 0.48287 0.0
C1460 C 0.18607 0.08581 0.49905 0.0
C1461 C 0.20343 0.09509 0.49819 0.0
C1462 C 0.18035 0.06855 0.44835 0.0
C1463 C 0.17616 0.08519 0.51732 0.0
H1464 H 0.11442 0.07111 0.47181 0.0
H1465 H 0.14417 0.02167 0.48391 0.0
H1466 H 0.15005 0.10338 0.48745 0.0
H1467 H 0.15033 0.09903 0.46293 0.0
H1468 H 0.12839 0.10071 0.47456 0.0
H1469 H 0.17522 0.02256 0.4949 0.0
H1470 H 0.18743 0.03698 0.47896 0.0
H1471 H 0.18542 0.04445 0.50268 0.0
H1472 H 0.2128 0.08718 0.4526 0.0
H1473 H 0.20946 0.10165 0.51062 0.0
H1474 H 0.16632 0.07396 0.44516 0.0
H1475 H 0.17878 0.05342 0.45017 0.0
H1476 H 0.1894 0.07089 0.43625 0.0
H1477 H 0.16178 0.09035 0.51572 0.0
H1478 H 0.18351 0.09356 0.5284 0.0
H1479 H 0.17503 0.07066 0.52181 0.0
C1480 C 0.70406 0.13084 0.74552 0.0
C1481 C 0.72329 0.12789 0.74699 0.0
C1482 C 0.69109 0.11642 0.74841 0.0
C1483 C 0.69748 0.0986 0.75286 0.0
C1484 C 0.71686 0.09542 0.75381 0.0
C1485 C 0.72948 0.11004 0.75085 0.0
C1486 C 0.67056 0.1204 0.74722 0.0
C1487 C 0.72431 0.07664 0.75839 0.0
C1488 C 0.66687 0.06604 0.7803 0.0
C1489 C 0.66028 0.05341 0.7665 0.0
C1490 C 0.67862 0.081 0.77597 0.0
C1491 C 0.68401 0.08345 0.75737 0.0
C1492 C 0.67716 0.07096 0.74331 0.0
C1493 C 0.66538 0.05612 0.74803 0.0
C1494 C 0.68555 0.094 0.79138 0.0
C1495 C 0.68256 0.07305 0.72333 0.0
H1496 H 0.69911 0.14458 0.74269 0.0
H1497 H 0.7443 0.10751 0.75166 0.0
H1498 H 0.66343 0.11033 0.73753 0.0
H1499 H 0.66426 0.11877 0.76104 0.0
H1500 H 0.66783 0.13461 0.7425 0.0
H1501 H 0.73974 0.07623 0.75785 0.0
H1502 H 0.71996 0.07288 0.77251 0.0
H1503 H 0.71843 0.06594 0.74856 0.0
H1504 H 0.663 0.06417 0.79459 0.0
H1505 H 0.66037 0.04648 0.73725 0.0
H1506 H 0.68209 0.10847 0.78814 0.0
H1507 H 0.70094 0.0933 0.79263 0.0
H1508 H 0.67949 0.09067 0.80499 0.0
H1509 H 0.67918 0.08712 0.71866 0.0
H1510 H 0.67539 0.06271 0.71392 0.0
H1511 H 0.69781 0.07142 0.722 0.0
C1512 C 0.38871 0.05095 0.52407 0.0
C1513 C 0.38568 0.03558 0.53517 0.0
C1514 C 0.37397 0.06238 0.51886 0.0
C1515 C 0.35569 0.05828 0.52477 0.0
C1516 C 0.35261 0.04303 0.53634 0.0
C1517 C 0.36764 0.03191 0.54144 0.0
C1518 C 0.3779 0.07856 0.50664 0.0
C1519 C 0.33333 0.03806 0.54278 0.0
C1520 C 0.31827 0.09487 0.51964 0.0
C1521 C 0.30984 0.08939 0.50265 0.0
C1522 C 0.33317 0.08486 0.52713 0.0
C1523 C 0.33964 0.06892 0.51748 0.0
C1524 C 0.33097 0.06321 0.50049 0.0
C1525 C 0.31629 0.07351 0.49329 0.0
C1526 C 0.34214 0.09143 0.54523 0.0
C1527 C 0.33728 0.04624 0.4898 0.0
H1528 H 0.40266 0.05407 0.51943 0.0
H1529 H 0.36517 0.02 0.54993 0.0
H1530 H 0.37092 0.07619 0.49293 0.0
H1531 H 0.37216 0.09142 0.51286 0.0
H1532 H 0.39303 0.08073 0.50442 0.0
H1533 H 0.33345 0.02666 0.5528 0.0
H1534 H 0.32677 0.0503 0.54941 0.0
H1535 H 0.32444 0.03371 0.53066 0.0
H1536 H 0.31341 0.1071 0.52697 0.0
H1537 H 0.30982 0.06902 0.48022 0.0
H1538 H 0.35705 0.09483 0.54307 0.0
H1539 H 0.34157 0.08026 0.55546 0.0
H1540 H 0.33529 0.10385 0.55121 0.0
H1541 H 0.35201 0.04807 0.48576 0.0
H1542 H 0.32873 0.04336 0.47705 0.0
H1543 H 0.33653 0.03396 0.49867 0.0
C1544 C 0.62382 0.45589 0.52157 0.0
C1545 C 0.62507 0.47064 0.53465 0.0
C1546 C 0.63864 0.4436 0.51901 0.0
C1547 C 0.65523 0.44601 0.52976 0.0
C1548 C 0.65676 0.46111 0.54267 0.0
C1549 C 0.64172 0.47321 0.54495 0.0
C1550 C 0.6364 0.42779 0.50501 0.0
C1551 C 0.67412 0.46422 0.55447 0.0
C1552 C 0.68507 0.4036 0.53777 0.0
C1553 C 0.69956 0.40599 0.52516 0.0
C1554 C 0.67066 0.4165 0.5394 0.0
C1555 C 0.6706 0.43226 0.52813 0.0
C1556 C 0.68516 0.43476 0.51535 0.0
C1557 C 0.69944 0.42164 0.51402 0.0
C1558 C 0.65548 0.41323 0.55323 0.0
C1559 C 0.68565 0.45132 0.50305 0.0
H1560 H 0.61118 0.4539 0.51332 0.0
H1561 H 0.64282 0.48437 0.55525 0.0
H1562 H 0.64798 0.42806 0.49502 0.0
H1563 H 0.63705 0.41442 0.51218 0.0
H1564 H 0.623 0.42826 0.49716 0.0
H1565 H 0.67356 0.47712 0.56315 0.0
H1566 H 0.67604 0.45237 0.56373 0.0
H1567 H 0.68654 0.46498 0.54556 0.0
H1568 H 0.68496 0.39162 0.54647 0.0
H1569 H 0.71053 0.42367 0.50423 0.0
H1570 H 0.64175 0.41228 0.54598 0.0
H1571 H 0.65498 0.42508 0.5633 0.0
H1572 H 0.65754 0.40036 0.56102 0.0
H1573 H 0.67279 0.45157 0.49435 0.0
H1574 H 0.69788 0.4513 0.49381 0.0
H1575 H 0.68607 0.46426 0.51169 0.0
C1576 C 0.70899 0.28492 0.39278 0.0
C1577 C 0.71894 0.28864 0.37665 0.0
C1578 C 0.71266 0.29488 0.40951 0.0
C1579 C 0.72658 0.30899 0.41019 0.0
C1580 C 0.73635 0.31311 0.39384 0.0
C1581 C 0.73246 0.30288 0.37733 0.0
C1582 C 0.70203 0.28991 0.42661 0.0
C1583 C 0.75125 0.32807 0.3939 0.0
C1584 C 0.72974 0.34391 0.45104 0.0
C1585 C 0.74431 0.33668 0.46167 0.0
C1586 C 0.72358 0.33495 0.43437 0.0
C1587 C 0.73209 0.31833 0.42827 0.0
C1588 C 0.74641 0.31075 0.43924 0.0
C1589 C 0.75234 0.31999 0.45569 0.0
C1590 C 0.70827 0.34348 0.42305 0.0
C1591 C 0.7558 0.29301 0.43343 0.0
H1592 H 0.69864 0.27385 0.39247 0.0
H1593 H 0.73999 0.30609 0.36489 0.0
H1594 H 0.71169 0.2841 0.43702 0.0
H1595 H 0.69587 0.30246 0.43304 0.0
H1596 H 0.69071 0.27959 0.4235 0.0
H1597 H 0.75669 0.33044 0.37981 0.0
H1598 H 0.7457 0.34126 0.39954 0.0
H1599 H 0.76303 0.32418 0.40306 0.0
H1600 H 0.72347 0.35679 0.45549 0.0
H1601 H 0.7635 0.31415 0.46382 0.0
H1602 H 0.69681 0.33326 0.42036 0.0
H1603 H 0.71371 0.34746 0.40938 0.0
H1604 H 0.7025 0.35596 0.43005 0.0
H1605 H 0.74527 0.28174 0.43122 0.0
H1606 H 0.76622 0.28856 0.44387 0.0
H1607 H 0.76293 0.29488 0.42006 0.0
C1608 C 0.52818 0.03919 0.87186 0.0
C1609 C 0.53582 0.04084 0.88987 0.0
C1610 C 0.53921 0.03412 0.85667 0.0
C1611 C 0.55836 0.03049 0.85952 0.0
C1612 C 0.56624 0.03251 0.8776 0.0
C1613 C 0.5549 0.03765 0.89252 0.0
C1614 C 0.53027 0.03218 0.83762 0.0
C1615 C 0.58652 0.02861 0.8813 0.0
C1616 C 0.58022 0.99651 0.82559 0.0
C1617 C 0.59014 0.00819 0.81386 0.0
C1618 C 0.57008 1.00361 0.84054 0.0
C1619 C 0.56969 0.02296 0.84395 0.0
C1620 C 0.5799 0.03488 0.8324 0.0
C1621 C 0.59007 0.02735 0.81751 0.0
C1622 C 0.55956 0.99036 0.85256 0.0
C1623 C 0.57981 0.05558 0.83559 0.0
H1624 H 0.51353 0.0419 0.86963 0.0
H1625 H 0.56091 0.03869 0.90639 0.0
H1626 H 0.53821 0.0404 0.82756 0.0
H1627 H 0.53055 0.01751 0.83275 0.0
H1628 H 0.51559 0.03678 0.83748 0.0
H1629 H 0.59085 0.03219 0.89583 0.0
H1630 H 0.58916 0.01371 0.87858 0.0
H1631 H 0.59542 0.03653 0.87179 0.0
H1632 H 0.58025 0.98167 0.82303 0.0
H1633 H 0.59765 0.03648 0.80853 0.0
H1634 H 0.54445 0.99323 0.85182 0.0
H1635 H 0.56409 0.99234 0.86727 0.0
H1636 H 0.56165 0.97566 0.84833 0.0
H1637 H 0.5654 0.0607 0.83409 0.0
H1638 H 0.58884 0.06294 0.82572 0.0
H1639 H 0.58462 0.05919 0.84995 0.0
C1640 C 0.29932 0.23709 0.39944 0.0
C1641 C 0.28351 0.24316 0.38983 0.0
C1642 C 0.29812 0.22247 0.41186 0.0
C1643 C 0.28071 0.21361 0.41471 0.0
C1644 C 0.26465 0.21988 0.40529 0.0
C1645 C 0.26624 0.23455 0.393 0.0
C1646 C 0.31555 0.21625 0.42168 0.0
C1647 C 0.24585 0.21075 0.4078 0.0
C1648 C 0.27976 0.16351 0.42929 0.0
C1649 C 0.27548 0.16511 0.4482 0.0
C1650 C 0.28175 0.17917 0.41838 0.0
C1651 C 0.27944 0.197 0.42651 0.0
C1652 C 0.27543 0.1988 0.44565 0.0
C1653 C 0.27348 0.18283 0.45628 0.0
C1654 C 0.28602 0.17659 0.39804 0.0
C1655 C 0.27291 0.21758 0.45482 0.0
H1656 H 0.31266 0.24382 0.39727 0.0
H1657 H 0.25399 0.23896 0.38547 0.0
H1658 H 0.31342 0.21624 0.43688 0.0
H1659 H 0.31871 0.20185 0.4172 0.0
H1660 H 0.3278 0.22523 0.4188 0.0
H1661 H 0.23456 0.21792 0.40029 0.0
H1662 H 0.24618 0.19617 0.40262 0.0
H1663 H 0.24242 0.21051 0.42274 0.0
H1664 H 0.28139 0.14993 0.42286 0.0
H1665 H 0.27019 0.18424 0.47086 0.0
H1666 H 0.29891 0.18438 0.39471 0.0
H1667 H 0.27456 0.18222 0.38949 0.0
H1668 H 0.28784 0.16182 0.39394 0.0
H1669 H 0.28537 0.22648 0.45263 0.0
H1670 H 0.27058 0.2167 0.46996 0.0
H1671 H 0.26085 0.22451 0.44839 0.0
C1672 C 0.47317 0.46307 0.86151 0.0
C1673 C 0.47938 0.4766 0.87462 0.0
C1674 C 0.46106 0.46749 0.84683 0.0
C1675 C 0.45498 0.48591 0.84511 0.0
C1676 C 0.46199 0.49983 0.85768 0.0
C1677 C 0.47406 0.49501 0.87228 0.0
C1678 C 0.45399 0.45221 0.83376 0.0
C1679 C 0.45591 0.51965 0.85636 0.0
C1680 C 0.42805 0.49886 0.80118 0.0
C1681 C 0.40956 0.49712 0.80697 0.0
C1682 C 0.44307 0.49544 0.81342 0.0
C1683 C 0.43949 0.49008 0.83183 0.0
C1684 C 0.42087 0.48837 0.8377 0.0
C1685 C 0.40623 0.49193 0.82529 0.0
C1686 C 0.46274 0.49751 0.80668 0.0
C1687 C 0.41633 0.48263 0.85714 0.0
H1688 H 0.4775 0.44888 0.86293 0.0
H1689 H 0.47864 0.50558 0.88235 0.0
H1690 H 0.43899 0.44957 0.83619 0.0
H1691 H 0.45535 0.45636 0.81914 0.0
H1692 H 0.46157 0.43909 0.83565 0.0
H1693 H 0.4644 0.52917 0.86555 0.0
H1694 H 0.4569 0.52432 0.84188 0.0
H1695 H 0.44113 0.52069 0.86042 0.0
H1696 H 0.43081 0.50288 0.7871 0.0
H1697 H 0.39205 0.49049 0.83001 0.0
H1698 H 0.46998 0.48411 0.8076 0.0
H1699 H 0.4706 0.50768 0.81569 0.0
H1700 H 0.46324 0.50211 0.79213 0.0
H1701 H 0.42213 0.46878 0.85973 0.0
H1702 H 0.40111 0.48205 0.85957 0.0
H1703 H 0.42286 0.49249 0.86744 0.0
C1704 C 0.719 0.71202 0.11391 0.0
C1705 C 0.73154 0.71405 0.12899 0.0
C1706 C 0.72289 0.70039 0.09857 0.0
C1707 C 0.73974 0.69047 0.09823 0.0
C1708 C 0.75261 0.69271 0.11324 0.0
C1709 C 0.74838 0.70447 0.1284 0.0
C1710 C 0.70884 0.69852 0.08281 0.0
C1711 C 0.7707 0.68237 0.11347 0.0
C1712 C 0.74097 0.64652 0.06792 0.0
C1713 C 0.75023 0.6526 0.05215 0.0
C1714 C 0.7376 0.65865 0.08302 0.0
C1715 C 0.74362 0.67737 0.08241 0.0
C1716 C 0.75308 0.68359 0.0666 0.0
C1717 C 0.75627 0.67115 0.05168 0.0
C1718 C 0.72746 0.65144 0.0996 0.0
C1719 C 0.75972 0.70343 0.06539 0.0
H1720 H 0.70609 0.71957 0.11409 0.0
H1721 H 0.75806 0.70577 0.14006 0.0
H1722 H 0.71546 0.70206 0.06955 0.0
H1723 H 0.70379 0.68397 0.08139 0.0
H1724 H 0.69667 0.70758 0.08492 0.0
H1725 H 0.77954 0.68614 0.12581 0.0
H1726 H 0.76779 0.66725 0.11342 0.0
H1727 H 0.77867 0.68527 0.10079 0.0
H1728 H 0.73623 0.63224 0.06846 0.0
H1729 H 0.76344 0.67603 0.03959 0.0
H1730 H 0.71439 0.65916 0.10161 0.0
H1731 H 0.73614 0.65372 0.11234 0.0
H1732 H 0.72396 0.63645 0.09807 0.0
H1733 H 0.7477 0.71283 0.06633 0.0
H1734 H 0.7671 0.70603 0.05227 0.0
H1735 H 0.76926 0.70705 0.07723 0.0
C1736 C 0.97652 0.0466 0.14696 0.0
C1737 C 0.97403 0.03756 0.12958 0.0
C1738 C 0.96414 0.04361 0.16157 0.0
C1739 C 0.94879 0.03122 0.15888 0.0
C1740 C 0.94645 0.02167 0.14155 0.0
C1741 C 0.95904 0.02495 0.12716 0.0
C1742 C 0.96727 0.05404 0.1798 0.0
C1743 C 0.93032 0.00835 0.13803 0.0
C1744 C 0.92363 0.01364 0.20158 0.0
C1745 C 0.9082 0.02531 0.20252 0.0
C1746 C 0.93687 0.01528 0.18744 0.0
C1747 C 0.93472 0.02897 0.17387 0.0
C1748 C 0.91914 0.04073 0.17472 0.0
C1749 C 0.90613 0.03875 0.18895 0.0
C1750 C 0.9532 1.00242 0.18706 0.0
C1751 C 0.91627 0.05554 0.16063 0.0
H1752 H 0.98819 0.05613 0.14916 0.0
H1753 H 0.95679 0.01802 0.11379 0.0
H1754 H 0.95537 0.06327 0.18251 0.0
H1755 H 0.96798 0.04422 0.19134 0.0
H1756 H 0.98027 0.06256 0.17998 0.0
H1757 H 0.93103 1.0012 0.12424 0.0
H1758 H 0.93002 0.99778 0.14889 0.0
H1759 H 0.91703 0.01592 0.13876 0.0
H1760 H 0.92542 1.00319 0.21194 0.0
H1761 H 0.89432 0.04787 0.18947 0.0
H1762 H 0.96641 0.01055 0.18831 0.0
H1763 H 0.95342 0.99465 0.17359 0.0
H1764 H 0.95279 0.99235 0.19842 0.0
H1765 H 0.92831 0.06534 0.16106 0.0
H1766 H 0.90338 0.06346 0.16308 0.0
H1767 H 0.91547 0.0492 0.14645 0.0
C1768 C 0.27117 0.7993 0.13918 0.0
C1769 C 0.26288 0.78162 0.13719 0.0
C1770 C 0.27094 0.81177 0.12449 0.0
C1771 C 0.26234 0.80643 0.1073 0.0
C1772 C 0.25355 0.7888 0.10538 0.0
C1773 C 0.25392 0.77666 0.12029 0.0
C1774 C 0.28041 0.83045 0.12718 0.0
C1775 C 0.24438 0.78242 0.08728 0.0
C1776 C 0.25207 0.84154 0.06974 0.0
C1777 C 0.26722 0.839 0.05792 0.0
C1778 C 0.25044 0.83138 0.08611 0.0
C1779 C 0.26423 0.81836 0.09074 0.0
C1780 C 0.27968 0.81605 0.07905 0.0
C1781 C 0.28099 0.82636 0.06291 0.0
C1782 C 0.2338 0.83431 0.09828 0.0
C1783 C 0.29472 0.80235 0.08334 0.0
H1784 H 0.2779 0.80339 0.15224 0.0
H1785 H 0.24768 0.76298 0.11846 0.0
H1786 H 0.29284 0.83118 0.11828 0.0
H1787 H 0.27093 0.84157 0.12288 0.0
H1788 H 0.28491 0.83321 0.14182 0.0
H1789 H 0.23686 0.76897 0.08847 0.0
H1790 H 0.2344 0.79288 0.08248 0.0
H1791 H 0.2551 0.78087 0.07647 0.0
H1792 H 0.24138 0.85126 0.06608 0.0
H1793 H 0.29283 0.82427 0.05402 0.0
H1794 H 0.23843 0.83758 0.11276 0.0
H1795 H 0.22528 0.82139 0.0985 0.0
H1796 H 0.22487 0.84566 0.0934 0.0
H1797 H 0.30079 0.80537 0.09736 0.0
H1798 H 0.30612 0.80259 0.07312 0.0
H1799 H 0.28865 0.78815 0.08341 0.0
C1800 C 0.06268 0.47598 0.13151 0.0
C1801 C 0.04337 0.47866 0.1308 0.0
C1802 C 0.07305 0.47948 0.14793 0.0
C1803 C 0.06394 0.48592 0.16407 0.0
C1804 C 0.04468 0.48977 0.16314 0.0
C1805 C 0.03462 0.48605 0.14655 0.0
C1806 C 0.09356 0.47522 0.14829 0.0
C1807 C 0.03445 0.49674 0.17998 0.0
C1808 C 0.08266 0.47028 0.21046 0.0
C1809 C 0.09224 0.48611 0.21745 0.0
C1810 C 0.07359 0.47009 0.19311 0.0
C1811 C 0.07392 0.48619 0.18238 0.0
C1812 C 0.08364 0.50223 0.18922 0.0
C1813 C 0.09277 0.50199 0.20667 0.0
C1814 C 0.06355 0.45261 0.18632 0.0
C1815 C 0.08421 0.51968 0.17821 0.0
H1816 H 0.06964 0.47067 0.1193 0.0
H1817 H 0.01971 0.48808 0.14622 0.0
H1818 H 0.10168 0.48687 0.15487 0.0
H1819 H 0.09595 0.46284 0.15673 0.0
H1820 H 0.09899 0.47244 0.13416 0.0
H1821 H 0.0202 0.50139 0.17641 0.0
H1822 H 0.03329 0.48551 0.19011 0.0
H1823 H 0.04225 0.5084 0.18693 0.0
H1824 H 0.08222 0.45788 0.21857 0.0
H1825 H 0.10009 0.5143 0.21196 0.0
H1826 H 0.06921 0.4479 0.1728 0.0
H1827 H 0.04855 0.45538 0.18408 0.0
H1828 H 0.06484 0.44119 0.19624 0.0
H1829 H 0.09008 0.51677 0.16432 0.0
H1830 H 0.09267 0.53086 0.18526 0.0
H1831 H 0.06987 0.52473 0.17599 0.0
C1832 C 0.39437 0.71802 0.28148 0.0
C1833 C 0.37924 0.72955 0.28515 0.0
C1834 C 0.41066 0.71902 0.2926 0.0
C1835 C 0.4119 0.73185 0.30779 0.0
C1836 C 0.39625 0.7427 0.31222 0.0
C1837 C 0.38017 0.74144 0.30087 0.0
C1838 C 0.42697 0.70717 0.28737 0.0
C1839 C 0.39686 0.75649 0.32831 0.0
C1840 C 0.45245 0.73235 0.343 0.0
C1841 C 0.46368 0.74671 0.33637 0.0
C1842 C 0.43574 0.72691 0.33363 0.0
C1843 C 0.43024 0.736 0.31726 0.0
C1844 C 0.44194 0.74997 0.3102 0.0
C1845 C 0.4584 0.75512 0.3198 0.0
C1846 C 0.42368 0.7119 0.34155 0.0
C1847 C 0.4368 0.75998 0.29275 0.0
H1848 H 0.39386 0.70884 0.26935 0.0
H1849 H 0.36842 0.75013 0.30406 0.0
H1850 H 0.43796 0.71595 0.28126 0.0
H1851 H 0.4331 0.70077 0.29982 0.0
H1852 H 0.42295 0.69604 0.27709 0.0
H1853 H 0.38294 0.76224 0.33127 0.0
H1854 H 0.4023 0.74997 0.341 0.0
H1855 H 0.40646 0.76811 0.32513 0.0
H1856 H 0.45639 0.72577 0.35578 0.0
H1857 H 0.46704 0.76608 0.31438 0.0
H1858 H 0.41993 0.70131 0.33067 0.0
H1859 H 0.41051 0.71794 0.34655 0.0
H1860 H 0.43066 0.70501 0.3533 0.0
H1861 H 0.43423 0.74989 0.2811 0.0
H1862 H 0.44782 0.76993 0.28864 0.0
H1863 H 0.42374 0.76768 0.29489 0.0
C1864 C 0.96267 0.36493 0.96955 0.0
C1865 C 0.97496 0.37186 0.9835 0.0
C1866 C 0.96756 0.35009 0.95773 0.0
C1867 C 0.98527 0.34197 0.9597 0.0
C1868 C 0.99746 0.34836 0.9742 0.0
C1869 C 0.99215 0.36316 0.98593 0.0
C1870 C 0.9541 0.34373 0.94248 0.0
C1871 C 0.01647 0.34013 0.97679 0.0
C1872 C 0.99335 0.29708 0.93188 0.0
C1873 C 1.00095 0.30393 0.91558 0.0
C1874 C 0.98864 0.3092 0.94669 0.0
C1875 C 0.99179 0.32852 0.94519 0.0
C1876 C 1.00028 0.33532 0.92911 0.0
C1877 C 1.00465 0.323 0.91455 0.0
C1878 C 0.97959 0.30142 0.96359 0.0
C1879 C 1.00415 0.35575 0.92694 0.0
H1880 H 0.94945 0.3716 0.96732 0.0
H1881 H 1.00163 0.36811 0.99686 0.0
H1882 H 0.95969 0.34759 0.92884 0.0
H1883 H 0.95243 0.32845 0.94232 0.0
H1884 H 0.94018 0.35 0.94404 0.0
H1885 H 0.02343 0.34513 0.98989 0.0
H1886 H 0.01542 0.32481 0.97683 0.0
H1887 H 0.02541 0.34389 0.96502 0.0
H1888 H 0.99042 0.28238 0.93277 0.0
H1889 H 0.01074 0.32842 0.90211 0.0
H1890 H 0.96493 0.30596 0.96419 0.0
H1891 H 0.98677 0.30678 0.97641 0.0
H1892 H 0.97972 0.28605 0.96346 0.0
H1893 H 0.99083 0.36329 0.9265 0.0
H1894 H 0.01188 0.35866 0.9141 0.0
H1895 H 0.01237 0.36139 0.93902 0.0
C1896 C 0.64679 0.77081 0.30944 0.0
C1897 C 0.64536 0.77059 0.28998 0.0
C1898 C 0.63114 0.76757 0.32046 0.0
C1899 C 0.61355 0.76397 0.31186 0.0
C1900 C 0.61222 0.76263 0.29224 0.0
C1901 C 0.62809 0.76598 0.28156 0.0
C1902 C 0.63325 0.76909 0.3413 0.0
C1903 C 0.59378 0.75879 0.28246 0.0
C1904 C 0.57146 0.74874 0.34007 0.0
C1905 C 0.56216 0.76553 0.34246 0.0
C1906 C 0.58839 0.74793 0.33039 0.0
C1907 C 0.59624 0.76432 0.32314 0.0
C1908 C 0.58719 0.78136 0.32617 0.0
C1909 C 0.57035 0.78172 0.33568 0.0
C1910 C 0.59759 0.7295 0.32742 0.0
C1911 C 0.59508 0.79924 0.31896 0.0
H1912 H 0.66012 0.77395 0.31613 0.0
H1913 H 0.62672 0.76586 0.26657 0.0
H1914 H 0.62655 0.78192 0.34644 0.0
H1915 H 0.62617 0.75727 0.34788 0.0
H1916 H 0.6481 0.76953 0.34588 0.0
H1917 H 0.59542 0.75583 0.26739 0.0
H1918 H 0.58651 0.74686 0.28867 0.0
H1919 H 0.58472 0.77099 0.28418 0.0
H1920 H 0.56522 0.73617 0.3452 0.0
H1921 H 0.56342 0.79483 0.33763 0.0
H1922 H 0.61241 0.73041 0.33194 0.0
H1923 H 0.59732 0.7257 0.31241 0.0
H1924 H 0.59055 0.7183 0.33505 0.0
H1925 H 0.60955 0.80153 0.32423 0.0
H1926 H 0.5867 0.81141 0.32309 0.0
H1927 H 0.5956 0.79842 0.30359 0.0
C1928 C 0.03235 0.1461 0.98039 0.0
C1929 C 0.03757 0.12917 0.97217 0.0
C1930 C 0.02938 0.16184 0.96965 0.0
C1931 C 0.03169 0.16073 0.95016 0.0
C1932 C 0.03643 0.14355 0.94172 0.0
C1933 C 0.03925 0.12805 0.95277 0.0
C1934 C 0.02427 0.17982 0.97924 0.0
C1935 C 0.03901 0.14165 0.92103 0.0
C1936 C 0.01206 0.19817 0.91908 0.0
C1937 C 0.02785 0.20938 0.91623 0.0
C1938 C 0.01301 0.18245 0.93024 0.0
C1939 C 0.03018 0.17768 0.93868 0.0
C1940 C 0.04614 0.18895 0.93582 0.0
C1941 C 0.04477 0.20462 0.92474 0.0
C1942 C 0.99562 0.17094 0.933 0.0
C1943 C 0.06477 0.18436 0.94437 0.0
H1944 H 0.03115 0.14724 0.99534 0.0
H1945 H 0.04289 0.115 0.94616 0.0
H1946 H 0.03568 0.19016 0.97772 0.0
H1947 H 0.01161 0.18551 0.97266 0.0
H1948 H 0.02172 0.17814 0.99426 0.0
H1949 H 0.04191 0.12719 0.91649 0.0
H1950 H 0.02637 0.14628 0.91357 0.0
H1951 H 0.05076 0.15066 0.91682 0.0
H1952 H 0.9989 0.20172 0.91267 0.0
H1953 H 0.05709 0.2131 0.92266 0.0
H1954 H 0.99269 0.17011 0.94801 0.0
H1955 H 0.99772 0.1566 0.92767 0.0
H1956 H 0.98327 0.17666 0.92584 0.0
H1957 H 0.06366 0.18393 0.95968 0.0
H1958 H 0.07583 0.19457 0.94096 0.0
H1959 H 0.06909 0.17044 0.93941 0.0
C1960 C 0.40065 0.26783 0.23666 0.0
C1961 C 0.39339 0.28511 0.24182 0.0
C1962 C 0.41347 0.26607 0.22223 0.0
C1963 C 0.41934 0.28199 0.21276 0.0
C1964 C 0.41262 0.29956 0.21833 0.0
C1965 C 0.39969 0.3009 0.23272 0.0
C1966 C 0.42024 0.24707 0.2167 0.0
C1967 C 0.41857 0.31688 0.20865 0.0
C1968 C 0.46177 0.27879 0.18165 0.0
C1969 C 0.45336 0.27639 0.16404 0.0
C1970 C 0.45092 0.28074 0.19768 0.0
C1971 C 0.43123 0.28006 0.19605 0.0
C1972 C 0.42271 0.27747 0.17833 0.0
C1973 C 0.43384 0.27576 0.16259 0.0
C1974 C 0.4605 0.28364 0.21632 0.0
C1975 C 0.40179 0.27645 0.17595 0.0
H1976 H 0.39621 0.25559 0.24383 0.0
H1977 H 0.39407 0.31429 0.23643 0.0
H1978 H 0.41524 0.24338 0.20242 0.0
H1979 H 0.43567 0.247 0.21658 0.0
H1980 H 0.41528 0.23625 0.22618 0.0
H1981 H 0.41345 0.32962 0.2157 0.0
H1982 H 0.43398 0.31778 0.208 0.0
H1983 H 0.41312 0.31639 0.19416 0.0
H1984 H 0.47682 0.27935 0.18291 0.0
H1985 H 0.42716 0.2738 0.14909 0.0
H1986 H 0.45637 0.27244 0.22572 0.0
H1987 H 0.45606 0.29689 0.22284 0.0
H1988 H 0.47591 0.28389 0.21526 0.0
H1989 H 0.39603 0.26501 0.18417 0.0
H1990 H 0.39735 0.27419 0.16123 0.0
H1991 H 0.39557 0.28946 0.18126 0.0
C1992 C 0.53895 0.37307 0.0294 0.0
C1993 C 0.54144 0.39104 0.03695 0.0
C1994 C 0.53389 0.35823 0.0406 0.0
C1995 C 0.53115 0.3614 0.05983 0.0
C1996 C 0.53405 0.37942 0.06761 0.0
C1997 C 0.53915 0.39399 0.05611 0.0
C1998 C 0.53101 0.33922 0.03174 0.0
C1999 C 0.53113 0.38347 0.088 0.0
C2000 C 0.49693 0.329 0.08274 0.0
C2001 C 0.5087 0.3168 0.09199 0.0
C2002 C 0.5041 0.34366 0.07255 0.0
C2003 C 0.52359 0.34627 0.07141 0.0
C2004 C 0.53562 0.33428 0.081 0.0
C2005 C 0.52803 0.31971 0.09125 0.0
C2006 C 0.49073 0.35618 0.06273 0.0
C2007 C 0.55648 0.33662 0.0801 0.0
H2008 H 0.54097 0.37058 0.01469 0.0
H2009 H 0.54084 0.40785 0.06206 0.0
H2010 H 0.53927 0.32891 0.0393 0.0
H2011 H 0.51615 0.33499 0.03263 0.0
H2012 H 0.53501 0.33874 0.01692 0.0
H2013 H 0.53539 0.39783 0.09218 0.0
H2014 H 0.51621 0.38146 0.09125 0.0
H2015 H 0.53913 0.3737 0.0965 0.0
H2016 H 0.48197 0.32701 0.08331 0.0
H2017 H 0.53723 0.31034 0.09829 0.0
H2018 H 0.4929 0.35519 0.04754 0.0
H2019 H 0.49342 0.3708 0.06719 0.0
H2020 H 0.47595 0.35264 0.06548 0.0
H2021 H 0.56101 0.33467 0.06555 0.0
H2022 H 0.56392 0.32661 0.08885 0.0
H2023 H 0.56071 0.35086 0.08468 0.0
C2024 C 0.62425 0.22119 0.2005 0.0
C2025 C 0.63423 0.23457 0.21128 0.0
C2026 C 0.60903 0.22604 0.18925 0.0
C2027 C 0.60351 0.24474 0.18873 0.0
C2028 C 0.61328 0.25828 0.19982 0.0
C2029 C 0.6285 0.25304 0.21094 0.0
C2030 C 0.59897 0.21115 0.17774 0.0
C2031 C 0.60787 0.27836 0.19969 0.0
C2032 C 0.57643 0.25937 0.1458 0.0
C2033 C 0.55799 0.25905 0.15195 0.0
C2034 C 0.59135 0.255 0.15768 0.0
C2035 C 0.58782 0.25015 0.17621 0.0
C2036 C 0.56927 0.24999 0.18258 0.0
C2037 C 0.5546 0.25444 0.1704 0.0
C2038 C 0.6109 0.25536 0.15031 0.0
C2039 C 0.56488 0.2449 0.20222 0.0
H2040 H 0.62832 0.20684 0.20089 0.0
H2041 H 0.63619 0.26352 0.21905 0.0
H2042 H 0.58397 0.21086 0.18114 0.0
H2043 H 0.59999 0.21423 0.16279 0.0
H2044 H 0.60472 0.19719 0.17998 0.0
H2045 H 0.61639 0.28708 0.2096 0.0
H2046 H 0.60956 0.28379 0.18556 0.0
H2047 H 0.59298 0.27974 0.20326 0.0
H2048 H 0.57925 0.26294 0.1316 0.0
H2049 H 0.54043 0.25416 0.17534 0.0
H2050 H 0.61695 0.24136 0.15101 0.0
H2051 H 0.61987 0.26484 0.15902 0.0
H2052 H 0.61139 0.25989 0.13572 0.0
H2053 H 0.56932 0.23054 0.20471 0.0
H2054 H 0.5498 0.24591 0.2052 0.0
H2055 H 0.57276 0.25411 0.21219 0.0
C2056 C 0.46622 0.13684 0.06028 0.0
C2057 C 0.47723 0.13113 0.04533 0.0
C2058 C 0.46999 0.15355 0.07009 0.0
C2059 C 0.48505 0.165 0.06477 0.0
C2060 C 0.49666 0.15902 0.05018 0.0
C2061 C 0.49265 0.14215 0.04067 0.0
C2062 C 0.45726 0.15938 0.08558 0.0
C2063 C 0.51285 0.17081 0.04407 0.0
C2064 C 0.47802 0.2163 0.07389 0.0
C2065 C 0.48856 0.21976 0.09021 0.0
C2066 C 0.47729 0.19872 0.06523 0.0
C2067 C 0.48726 0.18405 0.07309 0.0
C2068 C 0.49838 0.1875 0.08927 0.0
C2069 C 0.49897 0.20537 0.09761 0.0
C2070 C 0.46541 0.19574 0.0479 0.0
C2071 C 0.50916 0.1722 0.09808 0.0
H2072 H 0.45414 0.12862 0.06389 0.0
H2073 H 0.50146 0.13773 0.02939 0.0
H2074 H 0.46552 0.16368 0.09813 0.0
H2075 H 0.44909 0.17148 0.0813 0.0
H2076 H 0.44741 0.14813 0.08929 0.0
H2077 H 0.52165 0.1634 0.03385 0.0
H2078 H 0.50754 0.1835 0.03763 0.0
H2079 H 0.52167 0.17527 0.05619 0.0
H2080 H 0.47007 0.22735 0.06791 0.0
H2081 H 0.50714 0.20791 0.11021 0.0
H2082 H 0.45388 0.18584 0.05063 0.0
H2083 H 0.47379 0.1896 0.03658 0.0
H2084 H 0.45931 0.2088 0.043 0.0
H2085 H 0.49933 0.16168 0.10337 0.0
H2086 H 0.51823 0.1774 0.10977 0.0
H2087 H 0.51793 0.16514 0.08763 0.0
C2088 C 0.28554 0.39279 0.70906 0.0
C2089 C 0.28942 0.37634 0.7182 0.0
C2090 C 0.29572 0.40923 0.71318 0.0
C2091 C 0.31018 0.40928 0.72676 0.0
C2092 C 0.31452 0.3926 0.73565 0.0
C2093 C 0.30408 0.37639 0.7313 0.0
C2094 C 0.2905 0.4267 0.70349 0.0
C2095 C 0.32985 0.392 0.75016 0.0
C2096 C 0.34479 0.45006 0.73169 0.0
C2097 C 0.33749 0.45999 0.74682 0.0
C2098 C 0.33597 0.43363 0.72477 0.0
C2099 C 0.31944 0.42709 0.7331 0.0
C2100 C 0.31179 0.43738 0.74801 0.0
C2101 C 0.32089 0.45358 0.75467 0.0
C2102 C 0.34456 0.42304 0.70885 0.0
C2103 C 0.29413 0.4311 0.75723 0.0
H2104 H 0.27416 0.39297 0.69903 0.0
H2105 H 0.30743 0.36369 0.7382 0.0
H2106 H 0.28456 0.43668 0.71365 0.0
H2107 H 0.30303 0.43337 0.69765 0.0
H2108 H 0.28011 0.42404 0.69212 0.0
H2109 H 0.33251 0.3777 0.75469 0.0
H2110 H 0.34294 0.39793 0.74473 0.0
H2111 H 0.32603 0.40056 0.76248 0.0
H2112 H 0.3576 0.45486 0.72555 0.0
H2113 H 0.31497 0.46118 0.76625 0.0
H2114 H 0.33417 0.42077 0.69744 0.0
H2115 H 0.34883 0.40921 0.71349 0.0
H2116 H 0.35692 0.43035 0.70334 0.0
H2117 H 0.28269 0.42937 0.74679 0.0
H2118 H 0.28964 0.44101 0.76825 0.0
H2119 H 0.29625 0.41744 0.76353 0.0
C2120 C 0.30781 0.64084 0.78243 0.0
C2121 C 0.29044 0.64253 0.77345 0.0
C2122 C 0.3186 0.62492 0.77989 0.0
C2123 C 0.31189 0.61017 0.76818 0.0
C2124 C 0.29476 0.61209 0.75846 0.0
C2125 C 0.28428 0.62821 0.76118 0.0
C2126 C 0.33675 0.62351 0.79056 0.0
C2127 C 0.28704 0.59674 0.74585 0.0
C2128 C 0.34438 0.57032 0.75558 0.0
C2129 C 0.33962 0.5573 0.76887 0.0
C2130 C 0.33548 0.58761 0.75505 0.0
C2131 C 0.32148 0.59192 0.76807 0.0
C2132 C 0.31661 0.57877 0.7814 0.0
C2133 C 0.32569 0.56176 0.78165 0.0
C2134 C 0.3411 0.60128 0.74065 0.0
C2135 C 0.30177 0.58267 0.79555 0.0
H2136 H 0.31269 0.65164 0.7921 0.0
H2137 H 0.27109 0.62946 0.75388 0.0
H2138 H 0.33522 0.61313 0.80151 0.0
H2139 H 0.34795 0.61873 0.78125 0.0
H2140 H 0.34116 0.63692 0.79724 0.0
H2141 H 0.27466 0.60111 0.73775 0.0
H2142 H 0.29781 0.59194 0.73606 0.0
H2143 H 0.28296 0.58475 0.75426 0.0
H2144 H 0.35509 0.56706 0.74565 0.0
H2145 H 0.32176 0.55189 0.79199 0.0
H2146 H 0.34639 0.61426 0.74757 0.0
H2147 H 0.32881 0.60492 0.73207 0.0
H2148 H 0.35204 0.59581 0.73138 0.0
H2149 H 0.30576 0.59508 0.80418 0.0
H2150 H 0.29946 0.5709 0.80488 0.0
H2151 H 0.2884 0.58569 0.78842 0.0
C2152 C 0.86837 0.47366 0.49822 0.0
C2153 C 0.87096 0.47898 0.47984 0.0
C2154 C 0.85365 0.46166 0.50287 0.0
C2155 C 0.84121 0.45473 0.48881 0.0
C2156 C 0.84315 0.46083 0.47043 0.0
C2157 C 0.85794 0.47288 0.46619 0.0
C2158 C 0.85207 0.45558 0.52264 0.0
C2159 C 0.83023 0.45384 0.455 0.0
C2160 C 0.8213 0.40623 0.49408 0.0
C2161 C 0.80284 0.4095 0.49927 0.0
C2162 C 0.8338 0.42081 0.49077 0.0
C2163 C 0.82785 0.43931 0.49274 0.0
C2164 C 0.8093 0.44282 0.49809 0.0
C2165 C 0.79697 0.42787 0.50125 0.0
C2166 C 0.85339 0.41634 0.48501 0.0
C2167 C 0.80248 0.46236 0.50042 0.0
H2168 H 0.87837 0.47817 0.50888 0.0
H2169 H 0.85955 0.47721 0.45203 0.0
H2170 H 0.83747 0.4565 0.5273 0.0
H2171 H 0.85618 0.44089 0.52351 0.0
H2172 H 0.86113 0.46403 0.53232 0.0
H2173 H 0.83228 0.46142 0.44197 0.0
H2174 H 0.83274 0.43894 0.45214 0.0
H2175 H 0.81551 0.45514 0.45916 0.0
H2176 H 0.82608 0.39214 0.49246 0.0
H2177 H 0.78279 0.43058 0.50527 0.0
H2178 H 0.86359 0.4228 0.49503 0.0
H2179 H 0.85619 0.42216 0.47123 0.0
H2180 H 0.85586 0.40122 0.48422 0.0
H2181 H 0.81136 0.47014 0.51076 0.0
H2182 H 0.7878 0.46282 0.50499 0.0
H2183 H 0.80359 0.46962 0.48711 0.0
C2184 C 0.737 0.90213 0.76562 0.0
C2185 C 0.74167 0.89513 0.78304 0.0
C2186 C 0.72266 0.91496 0.76359 0.0
C2187 C 0.71279 0.9211 0.77937 0.0
C2188 C 0.71791 0.91468 0.79709 0.0
C2189 C 0.73222 0.90175 0.79871 0.0
C2190 C 0.71763 0.9214 0.74443 0.0
C2191 C 0.70778 0.92092 0.81428 0.0
C2192 C 0.68129 0.96299 0.77555 0.0
C2193 C 0.66372 0.95445 0.77299 0.0
C2194 C 0.69743 0.95237 0.77772 0.0
C2195 C 0.69598 0.93278 0.77711 0.0
C2196 C 0.67832 0.92414 0.77431 0.0
C2197 C 0.66247 0.93503 0.77237 0.0
C2198 C 0.71601 0.96208 0.7808 0.0
C2199 C 0.67612 0.90331 0.77337 0.0
H2200 H 0.74445 0.89744 0.75347 0.0
H2201 H 0.73557 0.89635 0.81221 0.0
H2202 H 0.70345 0.91624 0.74047 0.0
H2203 H 0.71737 0.93673 0.74431 0.0
H2204 H 0.72751 0.91642 0.73379 0.0
H2205 H 0.7146 0.91612 0.82718 0.0
H2206 H 0.70703 0.93623 0.81503 0.0
H2207 H 0.69328 0.91541 0.81368 0.0
H2208 H 0.6824 0.97796 0.77609 0.0
H2209 H 0.64902 0.92824 0.77028 0.0
H2210 H 0.72578 0.95779 0.7698 0.0
H2211 H 0.72221 0.95802 0.79425 0.0
H2212 H 0.71483 0.97739 0.78084 0.0
H2213 H 0.68473 0.89746 0.76207 0.0
H2214 H 0.66144 0.89874 0.77089 0.0
H2215 H 0.68114 0.89738 0.78653 0.0
C2216 C 0.64599 0.53596 0.98165 0.0
C2217 C 0.63004 0.54447 0.97459 0.0
C2218 C 0.66259 0.54612 0.98506 0.0
C2219 C 0.66335 0.56523 0.98124 0.0
C2220 C 0.64705 0.57408 0.97502 0.0
C2221 C 0.63061 0.56362 0.97181 0.0
C2222 C 0.67962 0.53614 0.99178 0.0
C2223 C 0.64721 0.59442 0.9708 0.0
C2224 C 0.70564 0.59436 0.99754 0.0
C2225 C 0.71663 0.59392 0.98162 0.0
C2226 C 0.68822 0.58513 0.99771 0.0
C2227 C 0.68161 0.57538 0.98154 0.0
C2228 C 0.69254 0.57516 0.96539 0.0
C2229 C 0.70986 0.58434 0.96565 0.0
C2230 C 0.677 0.58558 0.01522 0.0
C2231 C 0.68598 0.56509 0.94778 0.0
H2232 H 0.64577 0.52117 0.98373 0.0
H2233 H 0.61826 0.57041 0.96674 0.0
H2234 H 0.68987 0.53521 0.98045 0.0
H2235 H 0.68642 0.54395 1.00355 0.0
H2236 H 0.67623 0.52191 0.99625 0.0
H2237 H 0.633 0.59964 0.96799 0.0
H2238 H 0.65356 0.60266 0.98252 0.0
H2239 H 0.65583 0.59682 0.95843 0.0
H2240 H 0.71077 0.60167 0.00996 0.0
H2241 H 0.71814 0.58398 0.95322 0.0
H2242 H 0.67489 0.57131 0.02015 0.0
H2243 H 0.66301 0.59125 0.01238 0.0
H2244 H 0.68388 0.59409 0.02649 0.0
H2245 H 0.6839 0.55016 0.95041 0.0
H2246 H 0.69602 0.5665 0.93632 0.0
H2247 H 0.67237 0.57054 0.94316 0.0
C2248 C 0.23051 0.60614 0.23908 0.0
C2249 C 0.22468 0.62459 0.23888 0.0
C2250 C 0.21764 0.59141 0.24034 0.0
C2251 C 0.19839 0.59511 0.24137 0.0
C2252 C 0.19235 0.61366 0.24088 0.0
C2253 C 0.20555 0.62816 0.23965 0.0
C2254 C 0.2247 0.57185 0.24071 0.0
C2255 C 0.17195 0.61821 0.2419 0.0
C2256 C 0.16504 0.55508 0.22867 0.0
C2257 C 0.16028 0.54854 0.24616 0.0
C2258 C 0.17706 0.57046 0.22692 0.0
C2259 C 0.18465 0.57951 0.24304 0.0
C2260 C 0.17967 0.57318 0.26074 0.0
C2261 C 0.16752 0.55783 0.2621 0.0
C2262 C 0.18188 0.57682 0.20778 0.0
C2263 C 0.18751 0.58238 0.27827 0.0
H2264 H 0.24521 0.60319 0.23817 0.0
H2265 H 0.2009 0.64235 0.2397 0.0
H2266 H 0.22045 0.56526 0.25372 0.0
H2267 H 0.21842 0.56351 0.22901 0.0
H2268 H 0.2401 0.57129 0.23973 0.0
H2269 H 0.16948 0.63328 0.2409 0.0
H2270 H 0.16408 0.61081 0.23053 0.0
H2271 H 0.16624 0.61341 0.25517 0.0
H2272 H 0.15947 0.54809 0.21626 0.0
H2273 H 0.16396 0.55291 0.27567 0.0
H2274 H 0.19702 0.57528 0.20552 0.0
H2275 H 0.17872 0.5917 0.2065 0.0
H2276 H 0.17416 0.56885 0.19666 0.0
H2277 H 0.20288 0.58106 0.27868 0.0
H2278 H 0.18177 0.57624 0.29097 0.0
H2279 H 0.18446 0.59737 0.27848 0.0
C2280 C 0.86991 0.5294 0.03877 0.0
C2281 C 0.88818 0.53658 0.03943 0.0
C2282 C 0.85489 0.54032 0.03321 0.0
C2283 C 0.85819 0.55885 0.02806 0.0
C2284 C 0.87654 0.56628 0.02904 0.0
C2285 C 0.89128 0.55508 0.03471 0.0
C2286 C 0.83553 0.53188 0.03243 0.0
C2287 C 0.88071 0.58589 0.02351 0.0
C2288 C 0.82437 0.57914 0.99339 0.0
C2289 C 0.81335 0.59055 1.00468 0.0
C2290 C 0.83897 0.5689 1.00084 0.0
C2291 C 0.84274 0.56993 0.02015 0.0
C2292 C 0.83179 0.58148 0.03169 0.0
C2293 C 0.81725 0.59171 0.02381 0.0
C2294 C 0.85034 0.55688 0.98799 0.0
C2295 C 0.83536 0.58291 0.05236 0.0
H2296 H 0.86735 0.51522 0.04265 0.0
H2297 H 0.90536 0.5607 0.03497 0.0
H2298 H 0.82582 0.54074 0.04036 0.0
H2299 H 0.83038 0.53109 0.01784 0.0
H2300 H 0.83509 0.51775 0.0381 0.0
H2301 H 0.89548 0.59 0.02628 0.0
H2302 H 0.87766 0.58732 0.00849 0.0
H2303 H 0.87165 0.59567 0.03112 0.0
H2304 H 0.82159 0.57815 0.97858 0.0
H2305 H 0.80882 0.60043 0.03266 0.0
H2306 H 0.84926 0.54223 0.99208 0.0
H2307 H 0.86525 0.56105 0.98911 0.0
H2308 H 0.84576 0.55777 0.97326 0.0
H2309 H 0.8338 0.56905 0.05846 0.0
H2310 H 0.82571 0.59255 0.05941 0.0
H2311 H 0.84987 0.58774 0.05525 0.0
C2312 C 0.12819 0.95581 0.02261 0.0
C2313 C 0.13051 0.97318 0.03165 0.0
C2314 C 0.14354 0.94466 0.01839 0.0
C2315 C 0.16179 0.95092 0.02331 0.0
C2316 C 0.16427 0.96846 0.03235 0.0
C2317 C 0.14866 0.97935 0.03638 0.0
C2318 C 0.14021 0.92615 0.00862 0.0
C2319 C 0.18343 0.97569 0.0379 0.0
C2320 C 0.20028 0.91512 0.02705 0.0
C2321 C 0.20939 0.91687 0.01008 0.0
C2322 C 0.18486 0.92611 0.03156 0.0
C2323 C 0.17828 0.93921 0.01881 0.0
C2324 C 0.1874 0.94101 1.00166 0.0
C2325 C 0.20279 0.9299 0.99754 0.0
C2326 C 0.17561 0.92373 0.05001 0.0
C2327 C 0.18087 0.95471 0.98762 0.0
H2328 H 0.11431 0.95097 0.01864 0.0
H2329 H 0.15066 0.9926 0.04358 0.0
H2330 H 0.14765 0.92574 0.99526 0.0
H2331 H 0.14587 0.91495 0.01717 0.0
H2332 H 0.12519 0.92321 0.0058 0.0
H2333 H 0.18305 0.9896 0.04481 0.0
H2334 H 0.19019 0.96599 0.04748 0.0
H2335 H 0.19229 0.97655 0.02548 0.0
H2336 H 0.20522 0.90516 0.03688 0.0
H2337 H 0.20965 0.93142 0.98438 0.0
H2338 H 0.16077 0.91968 0.04778 0.0
H2339 H 0.17593 0.93706 0.05801 0.0
H2340 H 0.18245 0.91308 0.05847 0.0
H2341 H 0.16617 0.95165 0.98355 0.0
H2342 H 0.18943 0.95446 0.97492 0.0
H2343 H 0.18142 0.96891 0.99383 0.0
loop_
_geom_bond_atom_site_label_1
_geom_bond_atom_site_label_2
_geom_bond_distance
_geom_bond_site_symmetry_2
_ccdc_geom_bond_type
C0 C1 1.265 . S
C0 C5 1.473 1_455 S
C0 C10 1.468 . S
C1 C0 1.265 . S
C1 C3 1.339 1_455 S
C1 H28 0.931 . S
C2 C3 1.395 . S
C2 C4 1.320 . S
C3 C1 1.339 1_655 S
C3 C2 1.395 . S
C3 H29 0.946 . S
C4 C2 1.320 . S
C4 C5 1.405 . S
C4 H30 0.930 . S
C5 C0 1.473 1_655 S
C5 C4 1.405 . S
C5 H31 0.931 . S
U6 O7 2.454 . S
U6 O8 2.458 . S
U6 C9 2.984 . S
U6 C10 2.847 . S
U6 C23 2.882 . S
U6 O24 2.441 . S
U6 O25 2.420 . S
U6 O26 2.455 . S
U6 O27 2.449 . S
O7 U6 2.454 . S
O7 C9 1.353 . S
O8 U6 2.458 . S
O8 C9 1.286 . S
C9 U6 2.984 . S
C9 O7 1.353 . S
C9 O8 1.286 . S
C9 C11 1.363 . S
C10 C0 1.468 . S
C10 U6 2.847 . S
C10 O24 1.249 . S
C10 O25 1.202 . S
C11 C9 1.363 . S
C11 C13 1.408 . S
C11 C16 1.342 1_554 S
C12 C13 1.310 1_556 S
C12 C15 1.461 . S
C12 H32 0.932 . S
C13 C11 1.408 . S
C13 C12 1.310 1_554 S
C13 H33 0.930 . S
C14 C15 1.474 . S
C14 C16 1.285 . S
C14 H34 0.929 . S
C15 C12 1.461 . S
C15 C14 1.474 . S
C16 C11 1.342 1_556 S
C16 C14 1.285 . S
C16 H35 0.930 . S
C17 C20 1.390 1_545 S
C17 C22 1.257 . S
C17 C23 1.456 . S
C18 C21 1.260 . S
C18 C22 1.477 1_565 S
C18 H36 0.932 . S
C19 C20 1.384 . S
C19 C21 1.479 . S
C19 H37 0.929 . S
C20 C17 1.390 1_565 S
C20 C19 1.384 . S
C20 H38 0.928 . S
C21 C18 1.260 . S
C21 C19 1.479 . S
C22 C17 1.257 . S
C22 C18 1.477 1_545 S
C22 H39 0.932 . S
C23 U6 2.882 . S
C23 C17 1.456 . S
C23 O26 1.301 . S
C23 O27 1.282 . S
O24 U6 2.441 . S
O24 C10 1.249 . S
O25 U6 2.420 . S
O25 C10 1.202 . S
O26 U6 2.455 . S
O26 C23 1.301 . S
O27 U6 2.449 . S
O27 C23 1.282 . S
H28 C1 0.931 . S
H29 C3 0.946 . S
H30 C4 0.930 . S
H31 C5 0.931 . S
H32 C12 0.932 . S
H33 C13 0.930 . S
H34 C14 0.929 . S
H35 C16 0.930 . S
H36 C18 0.932 . S
H37 C19 0.929 . S
H38 C20 0.928 . S
H39 C22 0.932 . S
C40 C41 1.264 . S
C40 C45 1.479 . S
C40 C50 1.465 . S
C41 C40 1.264 . S
C41 C43 1.339 . S
C41 H68 0.931 . S
C42 C43 1.395 . S
C42 C44 1.320 . S
C43 C41 1.339 . S
C43 C42 1.395 . S
C43 H69 0.929 . S
C44 C42 1.320 . S
C44 C45 1.405 . S
C44 H70 0.930 . S
C45 C40 1.479 . S
C45 C44 1.405 . S
C45 H71 0.931 . S
U46 O47 2.454 . S
U46 O48 2.458 . S
U46 C49 2.984 . S
U46 C50 2.847 . S
U46 C63 2.882 . S
U46 O64 2.441 . S
U46 O65 2.420 . S
U46 O66 2.455 . S
U46 O67 2.449 . S
O47 U46 2.454 . S
O47 C49 1.353 . S
O48 U46 2.458 . S
O48 C49 1.286 . S
C49 U46 2.984 . S
C49 O47 1.353 . S
C49 O48 1.286 . S
C49 C51 1.363 . S
C50 C40 1.465 . S
C50 U46 2.847 . S
C50 O64 1.249 . S
C50 O65 1.202 . S
C51 C49 1.363 . S
C51 C53 1.408 . S
C51 C56 1.342 . S
C52 C53 1.310 . S
C52 C55 1.461 . S
C52 H72 0.932 . S
C53 C51 1.408 . S
C53 C52 1.310 . S
C53 H73 0.930 . S
C54 C55 1.474 . S
C54 C56 1.285 . S
C54 H74 0.929 . S
C55 C52 1.461 . S
C55 C54 1.474 . S
C56 C51 1.342 . S
C56 C54 1.285 . S
C56 H75 0.930 . S
C57 C60 1.424 . S
C57 C62 1.245 . S
C57 C63 1.428 . S
C58 C61 1.260 . S
C58 C62 1.477 . S
C58 H76 0.932 . S
C59 C60 1.384 . S
C59 C61 1.479 . S
C59 H77 0.929 . S
C60 C57 1.424 . S
C60 C59 1.384 . S
C60 H78 0.928 . S
C61 C58 1.260 . S
C61 C59 1.479 . S
C62 C57 1.245 . S
C62 C58 1.477 . S
C62 H79 0.932 . S
C63 U46 2.882 . S
C63 C57 1.428 . S
C63 O66 1.301 . S
C63 O67 1.282 . S
O64 U46 2.441 . S
O64 C50 1.249 . S
O65 U46 2.420 . S
O65 C50 1.202 . S
O66 U46 2.455 . S
O66 C63 1.301 . S
O67 U46 2.449 . S
O67 C63 1.282 . S
H68 C41 0.931 . S
H69 C43 0.929 . S
H70 C44 0.930 . S
H71 C45 0.931 . S
H72 C52 0.932 . S
H73 C53 0.930 . S
H74 C54 0.929 . S
H75 C56 0.930 . S
H76 C58 0.932 . S
H77 C59 0.929 . S
H78 C60 0.928 . S
H79 C62 0.932 . S
C80 C81 1.264 . S
C80 C85 1.479 1_554 S
C80 C90 1.465 . S
C81 C80 1.264 . S
C81 C83 1.339 . S
C81 H108 0.931 . S
C82 C83 1.395 1_556 S
C82 C84 1.320 . S
C83 C81 1.339 . S
C83 C82 1.395 1_554 S
C83 H109 0.929 . S
C84 C82 1.320 . S
C84 C85 1.405 . S
C84 H110 0.930 . S
C85 C80 1.479 1_556 S
C85 C84 1.405 . S
C85 H111 0.931 . S
U86 O87 2.454 . S
U86 O88 2.458 . S
U86 C89 2.984 . S
U86 C90 2.847 . S
U86 C103 2.882 . S
U86 O104 2.441 . S
U86 O105 2.420 . S
U86 O106 2.455 . S
U86 O107 2.449 . S
O87 U86 2.454 . S
O87 C89 1.353 . S
O88 U86 2.458 . S
O88 C89 1.286 . S
C89 U86 2.984 . S
C89 O87 1.353 . S
C89 O88 1.286 . S
C89 C91 1.363 . S
C90 C80 1.465 . S
C90 U86 2.847 . S
C90 O104 1.249 . S
C90 O105 1.202 . S
C91 C89 1.363 . S
C91 C93 1.408 . S
C91 C96 1.342 . S
C92 C93 1.310 . S
C92 C95 1.461 . S
C92 H112 0.932 . S
C93 C91 1.408 . S
C93 C92 1.310 . S
C93 H113 0.930 . S
C94 C95 1.474 . S
C94 C96 1.285 . S
C94 H114 0.929 . S
C95 C92 1.461 . S
C95 C94 1.474 . S
C96 C91 1.342 . S
C96 C94 1.285 . S
C96 H115 0.930 . S
C97 C100 1.424 1_655 S
C97 C102 1.245 . S
C97 C103 1.428 . S
C98 C101 1.260 1_655 S
C98 C102 1.477 . S
C98 H116 0.932 . S
C99 C100 1.384 . S
C99 C101 1.479 . S
C99 H117 0.929 . S
C100 C97 1.424 1_455 S
C100 C99 1.384 . S
C100 H118 0.928 . S
C101 C98 1.260 1_455 S
C101 C99 1.479 . S
C102 C97 1.245 . S
C102 C98 1.477 . S
C102 H119 0.932 . S
C103 U86 2.882 . S
C103 C97 1.428 . S
C103 O106 1.301 . S
C103 O107 1.282 . S
O104 U86 2.441 . S
O104 C90 1.249 . S
O105 U86 2.420 . S
O105 C90 1.202 . S
O106 U86 2.455 . S
O106 C103 1.301 . S
O107 U86 2.449 . S
O107 C103 1.282 . S
H108 C81 0.931 . S
H109 C83 0.929 . S
H110 C84 0.930 . S
H111 C85 0.931 . S
H112 C92 0.932 . S
H113 C93 0.930 . S
H114 C94 0.929 . S
H115 C96 0.930 . S
H116 C98 0.932 . S
H117 C99 0.929 . S
H118 C100 0.928 . S
H119 C102 0.932 . S
C120 C121 1.264 . S
C120 C125 1.479 . S
C120 C130 1.465 . S
C121 C120 1.264 . S
C121 C123 1.339 . S
C121 H148 0.931 . S
C122 C123 1.395 . S
C122 C124 1.320 . S
C123 C121 1.339 . S
C123 C122 1.395 . S
C123 H149 0.929 . S
C124 C122 1.320 . S
C124 C125 1.405 . S
C124 H150 0.930 . S
C125 C120 1.479 . S
C125 C124 1.405 . S
C125 H151 0.931 . S
U126 O127 2.454 . S
U126 O128 2.458 . S
U126 C129 2.984 . S
U126 C130 2.847 . S
U126 C143 2.882 . S
U126 O144 2.441 . S
U126 O145 2.420 . S
U126 O146 2.455 . S
U126 O147 2.449 . S
O127 U126 2.454 . S
O127 C129 1.353 . S
O128 U126 2.458 . S
O128 C129 1.286 . S
C129 U126 2.984 . S
C129 O127 1.353 . S
C129 O128 1.286 . S
C129 C131 1.363 . S
C130 C120 1.465 . S
C130 U126 2.847 . S
C130 O144 1.249 . S
C130 O145 1.202 . S
C131 C129 1.363 . S
C131 C133 1.408 . S
C131 C136 1.342 . S
C132 C133 1.310 . S
C132 C135 1.461 . S
C132 H152 0.932 . S
C133 C131 1.408 . S
C133 C132 1.310 . S
C133 H153 0.930 . S
C134 C135 1.474 . S
C134 C136 1.285 . S
C134 H154 0.929 . S
C135 C132 1.461 . S
C135 C134 1.474 . S
C136 C131 1.342 . S
C136 C134 1.285 . S
C136 H155 0.930 . S
C137 C140 1.424 . S
C137 C142 1.245 . S
C137 C143 1.428 . S
C138 C141 1.260 . S
C138 C142 1.477 . S
C138 H156 0.932 . S
C139 C140 1.384 . S
C139 C141 1.479 . S
C139 H157 0.929 . S
C140 C137 1.424 . S
C140 C139 1.384 . S
C140 H158 0.928 . S
C141 C138 1.260 . S
C141 C139 1.479 . S
C142 C137 1.245 . S
C142 C138 1.477 . S
C142 H159 0.932 . S
C143 U126 2.882 . S
C143 C137 1.428 . S
C143 O146 1.301 . S
C143 O147 1.282 . S
O144 U126 2.441 . S
O144 C130 1.249 . S
O145 U126 2.420 . S
O145 C130 1.202 . S
O146 U126 2.455 . S
O146 C143 1.301 . S
O147 U126 2.449 . S
O147 C143 1.282 . S
H148 C121 0.931 . S
H149 C123 0.929 . S
H150 C124 0.930 . S
H151 C125 0.931 . S
H152 C132 0.932 . S
H153 C133 0.930 . S
H154 C134 0.929 . S
H155 C136 0.930 . S
H156 C138 0.932 . S
H157 C139 0.929 . S
H158 C140 0.928 . S
H159 C142 0.932 . S
C160 C161 1.264 . S
C160 C165 1.479 1_455 S
C160 C170 1.465 . S
C161 C160 1.264 . S
C161 C163 1.339 . S
C161 H188 0.931 . S
C162 C163 1.395 1_655 S
C162 C164 1.320 . S
C163 C161 1.339 . S
C163 C162 1.395 1_455 S
C163 H189 0.929 . S
C164 C162 1.320 . S
C164 C165 1.405 . S
C164 H190 0.930 . S
C165 C160 1.479 1_655 S
C165 C164 1.405 . S
C165 H191 0.931 . S
U166 O167 2.454 . S
U166 O168 2.458 . S
U166 C169 2.984 . S
U166 C170 2.847 . S
U166 C183 2.882 . S
U166 O184 2.441 . S
U166 O185 2.420 . S
U166 O186 2.455 . S
U166 O187 2.449 . S
O167 U166 2.454 . S
O167 C169 1.353 . S
O168 U166 2.458 . S
O168 C169 1.286 . S
C169 U166 2.984 . S
C169 O167 1.353 . S
C169 O168 1.286 . S
C169 C171 1.363 . S
C170 C160 1.465 . S
C170 U166 2.847 . S
C170 O184 1.249 . S
C170 O185 1.202 . S
C171 C169 1.363 . S
C171 C173 1.408 . S
C171 C176 1.342 . S
C172 C173 1.310 . S
C172 C175 1.461 . S
C172 H192 0.932 . S
C173 C171 1.408 . S
C173 C172 1.310 . S
C173 H193 0.930 . S
C174 C175 1.474 . S
C174 C176 1.285 . S
C174 H194 0.929 . S
C175 C172 1.461 . S
C175 C174 1.474 . S
C176 C171 1.342 . S
C176 C174 1.285 . S
C176 H195 0.930 . S
C177 C180 1.424 1_565 S
C177 C182 1.245 . S
C177 C183 1.428 . S
C178 C181 1.232 1_565 S
C178 C182 1.502 . S
C178 H196 0.936 . S
C179 C180 1.384 . S
C179 C181 1.479 . S
C179 H197 0.929 . S
C180 C177 1.424 1_545 S
C180 C179 1.384 . S
C180 H198 0.928 . S
C181 C178 1.232 1_545 S
C181 C179 1.479 . S
C182 C177 1.245 . S
C182 C178 1.502 . S
C182 H199 0.932 . S
C183 U166 2.882 . S
C183 C177 1.428 . S
C183 O186 1.301 . S
C183 O187 1.282 . S
O184 U166 2.441 . S
O184 C170 1.249 . S
O185 U166 2.420 . S
O185 C170 1.202 . S
O186 U166 2.455 . S
O186 C183 1.301 . S
O187 U166 2.449 . S
O187 C183 1.282 . S
H188 C161 0.931 . S
H189 C163 0.929 . S
H190 C164 0.930 . S
H191 C165 0.931 . S
H192 C172 0.932 . S
H193 C173 0.930 . S
H194 C174 0.929 . S
H195 C176 0.930 . S
H196 C178 0.936 . S
H197 C179 0.929 . S
H198 C180 0.928 . S
H199 C182 0.932 . S
C200 C201 1.264 . S
C200 C205 1.479 . S
C200 C210 1.465 . S
C201 C200 1.264 . S
C201 C203 1.339 . S
C201 H228 0.931 . S
C202 C203 1.395 . S
C202 C204 1.320 . S
C203 C201 1.339 . S
C203 C202 1.395 . S
C203 H229 0.929 . S
C204 C202 1.320 . S
C204 C205 1.405 . S
C204 H230 0.930 . S
C205 C200 1.479 . S
C205 C204 1.405 . S
C205 H231 0.931 . S
U206 O207 2.454 . S
U206 O208 2.458 . S
U206 C209 2.984 . S
U206 C210 2.847 . S
U206 C223 2.882 . S
U206 O224 2.441 . S
U206 O225 2.420 . S
U206 O226 2.455 . S
U206 O227 2.449 . S
O207 U206 2.454 . S
O207 C209 1.353 . S
O208 U206 2.458 . S
O208 C209 1.286 . S
C209 U206 2.984 . S
C209 O207 1.353 . S
C209 O208 1.286 . S
C209 C211 1.363 . S
C210 C200 1.465 . S
C210 U206 2.847 . S
C210 O224 1.249 . S
C210 O225 1.202 . S
C211 C209 1.363 . S
C211 C213 1.408 . S
C211 C216 1.342 . S
C212 C213 1.310 . S
C212 C215 1.461 . S
C212 H232 0.932 . S
C213 C211 1.408 . S
C213 C212 1.310 . S
C213 H233 0.930 . S
C214 C215 1.474 . S
C214 C216 1.285 . S
C214 H234 0.929 . S
C215 C212 1.461 . S
C215 C214 1.474 . S
C216 C211 1.342 . S
C216 C214 1.285 . S
C216 H235 0.930 . S
C217 C220 1.424 . S
C217 C222 1.245 . S
C217 C223 1.428 . S
C218 C221 1.260 . S
C218 C222 1.477 . S
C218 H236 0.932 . S
C219 C220 1.384 . S
C219 C221 1.479 . S
C219 H237 0.929 . S
C220 C217 1.424 . S
C220 C219 1.384 . S
C220 H238 0.928 . S
C221 C218 1.260 . S
C221 C219 1.479 . S
C222 C217 1.245 . S
C222 C218 1.477 . S
C222 H239 0.932 . S
C223 U206 2.882 . S
C223 C217 1.428 . S
C223 O226 1.301 . S
C223 O227 1.282 . S
O224 U206 2.441 . S
O224 C210 1.249 . S
O225 U206 2.420 . S
O225 C210 1.202 . S
O226 U206 2.455 . S
O226 C223 1.301 . S
O227 U206 2.449 . S
O227 C223 1.282 . S
H228 C201 0.931 . S
H229 C203 0.929 . S
H230 C204 0.930 . S
H231 C205 0.931 . S
H232 C212 0.932 . S
H233 C213 0.930 . S
H234 C214 0.929 . S
H235 C216 0.930 . S
H236 C218 0.932 . S
H237 C219 0.929 . S
H238 C220 0.928 . S
H239 C222 0.932 . S
C240 C241 1.264 . S
C240 C245 1.479 . S
C240 C250 1.465 . S
C241 C240 1.264 . S
C241 C243 1.339 . S
C241 H268 0.931 . S
C242 C243 1.395 . S
C242 C244 1.320 . S
C243 C241 1.339 . S
C243 C242 1.395 . S
C243 H269 0.929 . S
C244 C242 1.320 . S
C244 C245 1.405 . S
C244 H270 0.930 . S
C245 C240 1.479 . S
C245 C244 1.405 . S
C245 H271 0.931 . S
U246 O247 2.454 . S
U246 O248 2.458 . S
U246 C249 2.984 . S
U246 C250 2.847 . S
U246 C263 2.882 . S
U246 O264 2.441 . S
U246 O265 2.420 . S
U246 O266 2.455 . S
U246 O267 2.449 . S
O247 U246 2.454 . S
O247 C249 1.353 . S
O248 U246 2.458 . S
O248 C249 1.286 . S
C249 U246 2.984 . S
C249 O247 1.353 . S
C249 O248 1.286 . S
C249 C251 1.363 . S
C250 C240 1.465 . S
C250 U246 2.847 . S
C250 O264 1.249 . S
C250 O265 1.202 . S
C251 C249 1.363 . S
C251 C253 1.408 . S
C251 C256 1.342 . S
C252 C253 1.310 . S
C252 C255 1.461 . S
C252 H272 0.932 . S
C253 C251 1.408 . S
C253 C252 1.310 . S
C253 H273 0.930 . S
C254 C255 1.474 . S
C254 C256 1.285 . S
C254 H274 0.929 . S
C255 C252 1.461 . S
C255 C254 1.474 . S
C256 C251 1.342 . S
C256 C254 1.285 . S
C256 H275 0.930 . S
C257 C260 1.424 1_655 S
C257 C262 1.245 . S
C257 C263 1.428 . S
C258 C261 1.260 . S
C258 C262 1.477 1_455 S
C258 H276 0.932 . S
C259 C260 1.384 . S
C259 C261 1.479 . S
C259 H277 0.929 . S
C260 C257 1.424 1_455 S
C260 C259 1.384 . S
C260 H278 0.928 . S
C261 C258 1.260 . S
C261 C259 1.479 . S
C262 C257 1.245 . S
C262 C258 1.477 1_655 S
C262 H279 0.932 . S
C263 U246 2.882 . S
C263 C257 1.428 . S
C263 O266 1.301 . S
C263 O267 1.282 . S
O264 U246 2.441 . S
O264 C250 1.249 . S
O265 U246 2.420 . S
O265 C250 1.202 . S
O266 U246 2.455 . S
O266 C263 1.301 . S
O267 U246 2.449 . S
O267 C263 1.282 . S
H268 C241 0.931 . S
H269 C243 0.929 . S
H270 C244 0.930 . S
H271 C245 0.931 . S
H272 C252 0.932 . S
H273 C253 0.930 . S
H274 C254 0.929 . S
H275 C256 0.930 . S
H276 C258 0.932 . S
H277 C259 0.929 . S
H278 C260 0.928 . S
H279 C262 0.932 . S
C280 C281 1.264 . S
C280 C285 1.479 . S
C280 C290 1.465 . S
C281 C280 1.264 . S
C281 C283 1.339 . S
C281 H308 0.931 . S
C282 C283 1.395 . S
C282 C284 1.320 . S
C283 C281 1.339 . S
C283 C282 1.395 . S
C283 H309 0.929 . S
C284 C282 1.320 . S
C284 C285 1.405 . S
C284 H310 0.930 . S
C285 C280 1.479 . S
C285 C284 1.405 . S
C285 H311 0.931 . S
U286 O287 2.454 . S
U286 O288 2.458 . S
U286 C289 2.984 . S
U286 C290 2.847 . S
U286 C303 2.882 . S
U286 O304 2.441 . S
U286 O305 2.420 . S
U286 O306 2.455 . S
U286 O307 2.449 . S
O287 U286 2.454 . S
O287 C289 1.353 . S
O288 U286 2.458 . S
O288 C289 1.286 . S
C289 U286 2.984 . S
C289 O287 1.353 . S
C289 O288 1.286 . S
C289 C291 1.363 . S
C290 C280 1.465 . S
C290 U286 2.847 . S
C290 O304 1.249 . S
C290 O305 1.202 . S
C291 C289 1.363 . S
C291 C293 1.408 . S
C291 C296 1.342 . S
C292 C293 1.310 . S
C292 C295 1.461 . S
C292 H312 0.932 . S
C293 C291 1.408 . S
C293 C292 1.310 . S
C293 H313 0.930 . S
C294 C295 1.474 . S
C294 C296 1.285 . S
C294 H314 0.929 . S
C295 C292 1.461 . S
C295 C294 1.474 . S
C296 C291 1.342 . S
C296 C294 1.285 . S
C296 H315 0.930 . S
C297 C300 1.424 . S
C297 C302 1.245 . S
C297 C303 1.428 . S
C298 C301 1.260 . S
C298 C302 1.477 . S
C298 H316 0.932 . S
C299 C300 1.384 . S
C299 C301 1.479 . S
C299 H317 0.929 . S
C300 C297 1.424 . S
C300 C299 1.384 . S
C300 H318 0.928 . S
C301 C298 1.260 . S
C301 C299 1.479 . S
C302 C297 1.245 . S
C302 C298 1.477 . S
C302 H319 0.932 . S
C303 U286 2.882 . S
C303 C297 1.428 . S
C303 O306 1.301 . S
C303 O307 1.282 . S
O304 U286 2.441 . S
O304 C290 1.249 . S
O305 U286 2.420 . S
O305 C290 1.202 . S
O306 U286 2.455 . S
O306 C303 1.301 . S
O307 U286 2.449 . S
O307 C303 1.282 . S
H308 C281 0.931 . S
H309 C283 0.929 . S
H310 C284 0.930 . S
H311 C285 0.931 . S
H312 C292 0.932 . S
H313 C293 0.930 . S
H314 C294 0.929 . S
H315 C296 0.930 . S
H316 C298 0.932 . S
H317 C299 0.929 . S
H318 C300 0.928 . S
H319 C302 0.932 . S
C320 C321 1.264 . S
C320 C325 1.479 . S
C320 C330 1.465 . S
C321 C320 1.264 . S
C321 C323 1.339 . S
C321 H348 0.931 . S
C322 C323 1.395 . S
C322 C324 1.320 . S
C323 C321 1.339 . S
C323 C322 1.395 . S
C323 H349 0.929 . S
C324 C322 1.320 . S
C324 C325 1.405 . S
C324 H350 0.930 . S
C325 C320 1.479 . S
C325 C324 1.405 . S
C325 H351 0.931 . S
U326 O327 2.454 . S
U326 O328 2.458 . S
U326 C329 2.984 . S
U326 C330 2.847 . S
U326 C343 2.882 . S
U326 O344 2.441 . S
U326 O345 2.420 . S
U326 O346 2.455 . S
U326 O347 2.449 . S
O327 U326 2.454 . S
O327 C329 1.353 . S
O328 U326 2.458 . S
O328 C329 1.286 . S
C329 U326 2.984 . S
C329 O327 1.353 . S
C329 O328 1.286 . S
C329 C331 1.363 . S
C330 C320 1.465 . S
C330 U326 2.847 . S
C330 O344 1.249 . S
C330 O345 1.202 . S
C331 C329 1.363 . S
C331 C333 1.408 . S
C331 C336 1.342 . S
C332 C333 1.310 . S
C332 C335 1.461 . S
C332 H352 0.932 . S
C333 C331 1.408 . S
C333 C332 1.310 . S
C333 H353 0.930 . S
C334 C335 1.474 . S
C334 C336 1.285 . S
C334 H354 0.929 . S
C335 C332 1.461 . S
C335 C334 1.474 . S
C336 C331 1.342 . S
C336 C334 1.285 . S
C336 H355 0.930 . S
C337 C340 1.424 . S
C337 C342 1.245 . S
C337 C343 1.428 . S
C338 C341 1.260 . S
C338 C342 1.477 . S
C338 H356 0.932 . S
C339 C340 1.384 . S
C339 C341 1.479 . S
C339 H357 0.929 . S
C340 C337 1.424 . S
C340 C339 1.384 . S
C340 H358 0.928 . S
C341 C338 1.260 . S
C341 C339 1.479 . S
C342 C337 1.245 . S
C342 C338 1.477 . S
C342 H359 0.932 . S
C343 U326 2.882 . S
C343 C337 1.428 . S
C343 O346 1.301 . S
C343 O347 1.282 . S
O344 U326 2.441 . S
O344 C330 1.249 . S
O345 U326 2.420 . S
O345 C330 1.202 . S
O346 U326 2.455 . S
O346 C343 1.301 . S
O347 U326 2.449 . S
O347 C343 1.282 . S
H348 C321 0.931 . S
H349 C323 0.929 . S
H350 C324 0.930 . S
H351 C325 0.931 . S
H352 C332 0.932 . S
H353 C333 0.930 . S
H354 C334 0.929 . S
H355 C336 0.930 . S
H356 C338 0.932 . S
H357 C339 0.929 . S
H358 C340 0.928 . S
H359 C342 0.932 . S
C360 C361 1.264 . S
C360 C365 1.479 . S
C360 C370 1.465 . S
C361 C360 1.264 . S
C361 C363 1.339 . S
C361 H388 0.931 . S
C362 C363 1.395 . S
C362 C364 1.320 . S
C363 C361 1.339 . S
C363 C362 1.395 . S
C363 H389 0.929 . S
C364 C362 1.320 . S
C364 C365 1.405 . S
C364 H390 0.930 . S
C365 C360 1.479 . S
C365 C364 1.405 . S
C365 H391 0.931 . S
U366 O367 2.454 . S
U366 O368 2.458 . S
U366 C369 2.984 . S
U366 C370 2.847 . S
U366 C383 2.882 . S
U366 O384 2.441 . S
U366 O385 2.420 . S
U366 O386 2.455 . S
U366 O387 2.449 . S
O367 U366 2.454 . S
O367 C369 1.353 . S
O368 U366 2.458 . S
O368 C369 1.286 . S
C369 U366 2.984 . S
C369 O367 1.353 . S
C369 O368 1.286 . S
C369 C371 1.363 . S
C370 C360 1.465 . S
C370 U366 2.847 . S
C370 O384 1.249 . S
C370 O385 1.202 . S
C371 C369 1.363 . S
C371 C373 1.408 . S
C371 C376 1.342 1_565 S
C372 C373 1.310 1_545 S
C372 C375 1.461 . S
C372 H392 0.934 . S
C373 C371 1.408 . S
C373 C372 1.310 1_565 S
C373 H393 0.930 . S
C374 C375 1.474 . S
C374 C376 1.285 . S
C374 H394 0.929 . S
C375 C372 1.461 . S
C375 C374 1.474 . S
C376 C371 1.342 1_545 S
C376 C374 1.285 . S
C376 H395 0.930 . S
C377 C380 1.424 . S
C377 C382 1.245 . S
C377 C383 1.428 . S
C378 C381 1.260 . S
C378 C382 1.477 . S
C378 H396 0.932 . S
C379 C380 1.384 . S
C379 C381 1.479 . S
C379 H397 0.929 . S
C380 C377 1.424 . S
C380 C379 1.384 . S
C380 H398 0.928 . S
C381 C378 1.260 . S
C381 C379 1.479 . S
C382 C377 1.245 . S
C382 C378 1.477 . S
C382 H399 0.932 . S
C383 U366 2.882 . S
C383 C377 1.428 . S
C383 O386 1.301 . S
C383 O387 1.282 . S
O384 U366 2.441 . S
O384 C370 1.249 . S
O385 U366 2.420 . S
O385 C370 1.202 . S
O386 U366 2.455 . S
O386 C383 1.301 . S
O387 U366 2.449 . S
O387 C383 1.282 . S
H388 C361 0.931 . S
H389 C363 0.929 . S
H390 C364 0.930 . S
H391 C365 0.931 . S
H392 C372 0.934 . S
H393 C373 0.930 . S
H394 C374 0.929 . S
H395 C376 0.930 . S
H396 C378 0.932 . S
H397 C379 0.929 . S
H398 C380 0.928 . S
H399 C382 0.932 . S
C400 C401 1.264 . S
C400 C405 1.479 . S
C400 C410 1.465 . S
C401 C400 1.264 . S
C401 C403 1.339 . S
C401 H428 0.931 . S
C402 C403 1.395 . S
C402 C404 1.320 . S
C403 C401 1.339 . S
C403 C402 1.395 . S
C403 H429 0.929 . S
C404 C402 1.320 . S
C404 C405 1.405 . S
C404 H430 0.930 . S
C405 C400 1.479 . S
C405 C404 1.405 . S
C405 H431 0.931 . S
U406 O407 2.454 . S
U406 O408 2.458 . S
U406 C409 2.984 . S
U406 C410 2.847 . S
U406 C423 2.882 . S
U406 O424 2.441 . S
U406 O425 2.420 . S
U406 O426 2.455 . S
U406 O427 2.449 . S
O407 U406 2.454 . S
O407 C409 1.353 . S
O408 U406 2.458 . S
O408 C409 1.286 . S
C409 U406 2.984 . S
C409 O407 1.353 . S
C409 O408 1.286 . S
C409 C411 1.363 . S
C410 C400 1.465 . S
C410 U406 2.847 . S
C410 O424 1.249 . S
C410 O425 1.202 . S
C411 C409 1.363 . S
C411 C413 1.408 . S
C411 C416 1.342 . S
C412 C413 1.310 . S
C412 C415 1.461 . S
C412 H432 0.932 . S
C413 C411 1.408 . S
C413 C412 1.310 . S
C413 H433 0.930 . S
C414 C415 1.474 . S
C414 C416 1.285 . S
C414 H434 0.929 . S
C415 C412 1.461 . S
C415 C414 1.474 . S
C416 C411 1.342 . S
C416 C414 1.285 . S
C416 H435 0.930 . S
C417 C420 1.424 . S
C417 C422 1.245 . S
C417 C423 1.428 . S
C418 C421 1.260 . S
C418 C422 1.477 . S
C418 H436 0.932 . S
C419 C420 1.384 . S
C419 C421 1.479 . S
C419 H437 0.929 . S
C420 C417 1.424 . S
C420 C419 1.384 . S
C420 H438 0.928 . S
C421 C418 1.260 . S
C421 C419 1.479 . S
C422 C417 1.245 . S
C422 C418 1.477 . S
C422 H439 0.932 . S
C423 U406 2.882 . S
C423 C417 1.428 . S
C423 O426 1.301 . S
C423 O427 1.282 . S
O424 U406 2.441 . S
O424 C410 1.249 . S
O425 U406 2.420 . S
O425 C410 1.202 . S
O426 U406 2.455 . S
O426 C423 1.301 . S
O427 U406 2.449 . S
O427 C423 1.282 . S
H428 C401 0.931 . S
H429 C403 0.929 . S
H430 C404 0.930 . S
H431 C405 0.931 . S
H432 C412 0.932 . S
H433 C413 0.930 . S
H434 C414 0.929 . S
H435 C416 0.930 . S
H436 C418 0.932 . S
H437 C419 0.929 . S
H438 C420 0.928 . S
H439 C422 0.932 . S
C440 C441 1.264 . S
C440 C445 1.479 . S
C440 C450 1.465 . S
C441 C440 1.264 . S
C441 C443 1.339 . S
C441 H468 0.931 . S
C442 C443 1.395 . S
C442 C444 1.320 . S
C443 C441 1.339 . S
C443 C442 1.395 . S
C443 H469 0.929 . S
C444 C442 1.320 . S
C444 C445 1.405 . S
C444 H470 0.930 . S
C445 C440 1.479 . S
C445 C444 1.405 . S
C445 H471 0.931 . S
U446 O447 2.454 . S
U446 O448 2.458 . S
U446 C449 2.984 . S
U446 C450 2.847 . S
U446 C463 2.882 . S
U446 O464 2.441 . S
U446 O465 2.420 . S
U446 O466 2.455 . S
U446 O467 2.449 . S
O447 U446 2.454 . S
O447 C449 1.353 . S
O448 U446 2.458 . S
O448 C449 1.286 . S
C449 U446 2.984 . S
C449 O447 1.353 . S
C449 O448 1.286 . S
C449 C451 1.363 . S
C450 C440 1.465 . S
C450 U446 2.847 . S
C450 O464 1.249 . S
C450 O465 1.202 . S
C451 C449 1.363 . S
C451 C453 1.408 . S
C451 C456 1.342 . S
C452 C453 1.310 . S
C452 C455 1.461 . S
C452 H472 0.932 . S
C453 C451 1.408 . S
C453 C452 1.310 . S
C453 H473 0.930 . S
C454 C455 1.474 . S
C454 C456 1.285 . S
C454 H474 0.929 . S
C455 C452 1.461 . S
C455 C454 1.474 . S
C456 C451 1.342 . S
C456 C454 1.285 . S
C456 H475 0.930 . S
C457 C460 1.424 . S
C457 C462 1.245 . S
C457 C463 1.428 . S
C458 C461 1.260 . S
C458 C462 1.477 . S
C458 H476 0.932 . S
C459 C460 1.384 . S
C459 C461 1.479 . S
C459 H477 0.929 . S
C460 C457 1.424 . S
C460 C459 1.384 . S
C460 H478 0.928 . S
C461 C458 1.260 . S
C461 C459 1.479 . S
C462 C457 1.245 . S
C462 C458 1.477 . S
C462 H479 0.932 . S
C463 U446 2.882 . S
C463 C457 1.428 . S
C463 O466 1.301 . S
C463 O467 1.282 . S
O464 U446 2.441 . S
O464 C450 1.249 . S
O465 U446 2.420 . S
O465 C450 1.202 . S
O466 U446 2.455 . S
O466 C463 1.301 . S
O467 U446 2.449 . S
O467 C463 1.282 . S
H468 C441 0.931 . S
H469 C443 0.929 . S
H470 C444 0.930 . S
H471 C445 0.931 . S
H472 C452 0.932 . S
H473 C453 0.930 . S
H474 C454 0.929 . S
H475 C456 0.930 . S
H476 C458 0.932 . S
H477 C459 0.929 . S
H478 C460 0.928 . S
H479 C462 0.932 . S
C480 C481 1.264 . S
C480 C485 1.479 . S
C480 C490 1.465 . S
C481 C480 1.264 . S
C481 C483 1.339 . S
C481 H508 0.931 . S
C482 C483 1.395 . S
C482 C484 1.320 . S
C483 C481 1.339 . S
C483 C482 1.395 . S
C483 H509 0.929 . S
C484 C482 1.320 . S
C484 C485 1.405 . S
C484 H510 0.930 . S
C485 C480 1.479 . S
C485 C484 1.405 . S
C485 H511 0.931 . S
U486 O487 2.454 . S
U486 O488 2.458 . S
U486 C489 2.984 . S
U486 C490 2.847 . S
U486 C503 2.882 . S
U486 O504 2.441 . S
U486 O505 2.420 . S
U486 O506 2.455 . S
U486 O507 2.449 . S
O487 U486 2.454 . S
O487 C489 1.353 . S
O488 U486 2.458 . S
O488 C489 1.286 . S
C489 U486 2.984 . S
C489 O487 1.353 . S
C489 O488 1.286 . S
C489 C491 1.363 . S
C490 C480 1.465 . S
C490 U486 2.847 . S
C490 O504 1.249 . S
C490 O505 1.202 . S
C491 C489 1.363 . S
C491 C493 1.408 . S
C491 C496 1.342 . S
C492 C493 1.310 . S
C492 C495 1.461 . S
C492 H512 0.932 . S
C493 C491 1.408 . S
C493 C492 1.310 . S
C493 H513 0.930 . S
C494 C495 1.474 . S
C494 C496 1.285 . S
C494 H514 0.929 . S
C495 C492 1.461 . S
C495 C494 1.474 . S
C496 C491 1.342 . S
C496 C494 1.285 . S
C496 H515 0.930 . S
C497 C500 1.424 . S
C497 C502 1.245 . S
C497 C503 1.428 . S
C498 C501 1.260 . S
C498 C502 1.477 . S
C498 H516 0.932 . S
C499 C500 1.384 . S
C499 C501 1.479 . S
C499 H517 0.929 . S
C500 C497 1.424 . S
C500 C499 1.384 . S
C500 H518 0.928 . S
C501 C498 1.260 . S
C501 C499 1.479 . S
C502 C497 1.245 . S
C502 C498 1.477 . S
C502 H519 0.932 . S
C503 U486 2.882 . S
C503 C497 1.428 . S
C503 O506 1.301 . S
C503 O507 1.282 . S
O504 U486 2.441 . S
O504 C490 1.249 . S
O505 U486 2.420 . S
O505 C490 1.202 . S
O506 U486 2.455 . S
O506 C503 1.301 . S
O507 U486 2.449 . S
O507 C503 1.282 . S
H508 C481 0.931 . S
H509 C483 0.929 . S
H510 C484 0.930 . S
H511 C485 0.931 . S
H512 C492 0.932 . S
H513 C493 0.930 . S
H514 C494 0.929 . S
H515 C496 0.930 . S
H516 C498 0.932 . S
H517 C499 0.929 . S
H518 C500 0.928 . S
H519 C502 0.932 . S
C520 C521 1.264 . S
C520 C525 1.479 . S
C520 C530 1.465 . S
C521 C520 1.264 . S
C521 C523 1.339 . S
C521 H548 0.931 . S
C522 C523 1.395 . S
C522 C524 1.320 . S
C523 C521 1.339 . S
C523 C522 1.395 . S
C523 H549 0.929 . S
C524 C522 1.320 . S
C524 C525 1.405 . S
C524 H550 0.930 . S
C525 C520 1.479 . S
C525 C524 1.405 . S
C525 H551 0.931 . S
U526 O527 2.454 . S
U526 O528 2.458 . S
U526 C529 2.984 . S
U526 C530 2.847 . S
U526 C543 2.882 . S
U526 O544 2.441 . S
U526 O545 2.420 . S
U526 O546 2.455 . S
U526 O547 2.449 . S
O527 U526 2.454 . S
O527 C529 1.353 . S
O528 U526 2.458 . S
O528 C529 1.286 . S
C529 U526 2.984 . S
C529 O527 1.353 . S
C529 O528 1.286 . S
C529 C531 1.363 . S
C530 C520 1.465 . S
C530 U526 2.847 . S
C530 O544 1.249 . S
C530 O545 1.202 . S
C531 C529 1.363 . S
C531 C533 1.408 . S
C531 C536 1.342 1_556 S
C532 C533 1.310 1_554 S
C532 C535 1.461 . S
C532 H552 0.926 1_554 S
C533 C531 1.408 . S
C533 C532 1.310 1_556 S
C533 H553 0.930 . S
C534 C535 1.474 . S
C534 C536 1.285 . S
C534 H554 0.929 . S
C535 C532 1.461 . S
C535 C534 1.474 . S
C536 C531 1.342 1_554 S
C536 C534 1.285 . S
C536 H555 0.930 . S
C537 C540 1.424 . S
C537 C542 1.245 . S
C537 C543 1.428 . S
C538 C541 1.260 . S
C538 C542 1.477 . S
C538 H556 0.932 . S
C539 C540 1.384 . S
C539 C541 1.479 . S
C539 H557 0.929 . S
C540 C537 1.424 . S
C540 C539 1.384 . S
C540 H558 0.928 . S
C541 C538 1.260 . S
C541 C539 1.479 . S
C542 C537 1.245 . S
C542 C538 1.477 . S
C542 H559 0.932 . S
C543 U526 2.882 . S
C543 C537 1.428 . S
C543 O546 1.301 . S
C543 O547 1.282 . S
O544 U526 2.441 . S
O544 C530 1.249 . S
O545 U526 2.420 . S
O545 C530 1.202 . S
O546 U526 2.455 . S
O546 C543 1.301 . S
O547 U526 2.449 . S
O547 C543 1.282 . S
H548 C521 0.931 . S
H549 C523 0.929 . S
H550 C524 0.930 . S
H551 C525 0.931 . S
H552 C532 0.926 1_556 S
H553 C533 0.930 . S
H554 C534 0.929 . S
H555 C536 0.930 . S
H556 C538 0.932 . S
H557 C539 0.929 . S
H558 C540 0.928 . S
H559 C542 0.932 . S
C560 C561 1.264 . S
C560 C565 1.479 . S
C560 C570 1.465 . S
C561 C560 1.264 . S
C561 C563 1.339 . S
C561 H588 0.931 . S
C562 C563 1.395 . S
C562 C564 1.320 . S
C563 C561 1.339 . S
C563 C562 1.395 . S
C563 H589 0.929 . S
C564 C562 1.320 . S
C564 C565 1.405 . S
C564 H590 0.930 . S
C565 C560 1.479 . S
C565 C564 1.405 . S
C565 H591 0.931 . S
U566 O567 2.454 . S
U566 O568 2.458 . S
U566 C569 2.984 . S
U566 C570 2.847 . S
U566 C583 2.882 . S
U566 O584 2.441 . S
U566 O585 2.420 . S
U566 O586 2.455 . S
U566 O587 2.449 . S
O567 U566 2.454 . S
O567 C569 1.353 . S
O568 U566 2.458 . S
O568 C569 1.286 . S
C569 U566 2.984 . S
C569 O567 1.353 . S
C569 O568 1.286 . S
C569 C571 1.363 . S
C570 C560 1.465 . S
C570 U566 2.847 . S
C570 O584 1.249 . S
C570 O585 1.202 . S
C571 C569 1.363 . S
C571 C573 1.408 . S
C571 C576 1.342 . S
C572 C573 1.310 . S
C572 C575 1.461 . S
C572 H592 0.932 . S
C573 C571 1.408 . S
C573 C572 1.310 . S
C573 H593 0.930 . S
C574 C575 1.474 . S
C574 C576 1.285 . S
C574 H594 0.929 . S
C575 C572 1.461 . S
C575 C574 1.474 . S
C576 C571 1.342 . S
C576 C574 1.285 . S
C576 H595 0.930 . S
C577 C580 1.424 . S
C577 C582 1.245 . S
C577 C583 1.428 . S
C578 C581 1.260 . S
C578 C582 1.477 . S
C578 H596 0.932 . S
C579 C580 1.384 . S
C579 C581 1.479 . S
C579 H597 0.929 . S
C580 C577 1.424 . S
C580 C579 1.384 . S
C580 H598 0.928 . S
C581 C578 1.260 . S
C581 C579 1.479 . S
C582 C577 1.245 . S
C582 C578 1.477 . S
C582 H599 0.932 . S
C583 U566 2.882 . S
C583 C577 1.428 . S
C583 O586 1.301 . S
C583 O587 1.282 . S
O584 U566 2.441 . S
O584 C570 1.249 . S
O585 U566 2.420 . S
O585 C570 1.202 . S
O586 U566 2.455 . S
O586 C583 1.301 . S
O587 U566 2.449 . S
O587 C583 1.282 . S
H588 C561 0.931 . S
H589 C563 0.929 . S
H590 C564 0.930 . S
H591 C565 0.931 . S
H592 C572 0.932 . S
H593 C573 0.930 . S
H594 C574 0.929 . S
H595 C576 0.930 . S
H596 C578 0.932 . S
H597 C579 0.929 . S
H598 C580 0.928 . S
H599 C582 0.932 . S
C600 C601 1.264 . S
C600 C605 1.479 1_556 S
C600 C610 1.465 . S
C601 C600 1.264 . S
C601 C603 1.339 . S
C601 H628 0.931 . S
C602 C603 1.395 1_554 S
C602 C604 1.320 . S
C603 C601 1.339 . S
C603 C602 1.395 1_556 S
C603 H629 0.929 . S
C604 C602 1.320 . S
C604 C605 1.405 . S
C604 H630 0.930 . S
C605 C600 1.479 1_554 S
C605 C604 1.405 . S
C605 H631 0.931 . S
U606 O607 2.454 . S
U606 O608 2.458 . S
U606 C609 2.984 . S
U606 C610 2.847 . S
U606 C623 2.882 . S
U606 O624 2.441 . S
U606 O625 2.420 . S
U606 O626 2.455 . S
U606 O627 2.449 . S
O607 U606 2.454 . S
O607 C609 1.353 . S
O608 U606 2.458 . S
O608 C609 1.286 . S
C609 U606 2.984 . S
C609 O607 1.353 . S
C609 O608 1.286 . S
C609 C611 1.363 . S
C610 C600 1.465 . S
C610 U606 2.847 . S
C610 O624 1.249 . S
C610 O625 1.202 . S
C611 C609 1.363 . S
C611 C613 1.408 . S
C611 C616 1.341 . S
C612 C613 1.310 . S
C612 C615 1.461 1_545 S
C612 H632 0.932 . S
C613 C611 1.408 . S
C613 C612 1.310 . S
C613 H633 0.930 . S
C614 C615 1.474 . S
C614 C616 1.286 1_565 S
C614 H634 0.929 . S
C615 C612 1.461 1_565 S
C615 C614 1.474 . S
C616 C611 1.341 . S
C616 C614 1.286 1_545 S
C616 H635 0.929 1_545 S
C617 C620 1.424 . S
C617 C622 1.245 . S
C617 C623 1.428 . S
C618 C621 1.260 . S
C618 C622 1.477 . S
C618 H636 0.932 . S
C619 C620 1.384 . S
C619 C621 1.479 . S
C619 H637 0.929 . S
C620 C617 1.424 . S
C620 C619 1.384 . S
C620 H638 0.928 . S
C621 C618 1.260 . S
C621 C619 1.479 . S
C622 C617 1.245 . S
C622 C618 1.477 . S
C622 H639 0.932 . S
C623 U606 2.882 . S
C623 C617 1.428 . S
C623 O626 1.301 . S
C623 O627 1.282 . S
O624 U606 2.441 . S
O624 C610 1.249 . S
O625 U606 2.420 . S
O625 C610 1.202 . S
O626 U606 2.455 . S
O626 C623 1.301 . S
O627 U606 2.449 . S
O627 C623 1.282 . S
H628 C601 0.931 . S
H629 C603 0.929 . S
H630 C604 0.930 . S
H631 C605 0.931 . S
H632 C612 0.932 . S
H633 C613 0.930 . S
H634 C614 0.929 . S
H635 C616 0.929 1_565 S
H636 C618 0.932 . S
H637 C619 0.929 . S
H638 C620 0.928 . S
H639 C622 0.932 . S
Zn640 O643 2.031 . S
Zn640 O645 2.049 1_554 S
Zn640 O650 2.067 1_554 S
Zn641 O642 1.962 . S
Zn641 O644 1.986 . S
Zn641 O646 1.996 . S
Zn641 O649 1.943 1_554 S
O642 Zn641 1.962 . S
O642 C647 1.254 . S
O643 Zn640 2.031 . S
O643 C647 1.269 . S
O644 Zn641 1.986 . S
O644 C651 1.262 . S
O645 Zn640 2.049 1_556 S
O645 C653 1.260 . S
O646 Zn641 1.996 . S
O646 C653 1.257 1_554 S
C647 O642 1.254 . S
C647 O643 1.269 . S
C648 O649 1.249 . S
C648 O650 1.270 . S
O649 Zn641 1.943 1_556 S
O649 C648 1.249 . S
O650 Zn640 2.067 1_556 S
O650 C648 1.270 . S
C651 O644 1.262 . S
C651 O652 1.232 . S
O652 C651 1.232 . S
C653 O645 1.260 . S
C653 O646 1.257 1_556 S
Zn654 O657 2.031 . S
Zn654 O659 2.049 . S
Zn654 O664 2.067 . S
Zn655 O656 1.962 . S
Zn655 O658 1.986 . S
Zn655 O660 1.996 . S
Zn655 O663 1.943 . S
O656 Zn655 1.962 . S
O656 C661 1.254 . S
O657 Zn654 2.031 . S
O657 C661 1.269 . S
O658 Zn655 1.986 . S
O658 C665 1.262 . S
O659 Zn654 2.049 . S
O659 C667 1.260 . S
O660 Zn655 1.996 . S
O660 C667 1.257 . S
C661 O656 1.254 . S
C661 O657 1.269 . S
C662 O663 1.249 . S
C662 O664 1.270 . S
O663 Zn655 1.943 . S
O663 C662 1.249 . S
O664 Zn654 2.067 . S
O664 C662 1.270 . S
C665 O658 1.262 . S
C665 O666 1.232 . S
O666 C665 1.232 . S
C667 O659 1.260 . S
C667 O660 1.257 . S
Zn668 O671 2.031 . S
Zn668 O673 2.049 . S
Zn668 O678 2.067 . S
Zn669 O670 1.962 . S
Zn669 O672 1.986 . S
Zn669 O674 1.996 1_554 S
Zn669 O677 1.943 . S
O670 Zn669 1.962 . S
O670 C675 1.254 . S
O671 Zn668 2.031 . S
O671 C675 1.269 1_556 S
O672 Zn669 1.986 . S
O672 C679 1.262 . S
O673 Zn668 2.049 . S
O673 C681 1.260 . S
O674 Zn669 1.996 1_556 S
O674 C681 1.257 . S
C675 O670 1.254 . S
C675 O671 1.269 1_554 S
C676 O677 1.249 1_556 S
C676 O678 1.270 . S
O677 Zn669 1.943 . S
O677 C676 1.249 1_554 S
O678 Zn668 2.067 . S
O678 C676 1.270 . S
C679 O672 1.262 . S
C679 O680 1.232 . S
O680 C679 1.232 . S
C681 O673 1.260 . S
C681 O674 1.257 . S
Zn682 O685 2.027 1_565 S
Zn682 O687 2.052 . S
Zn682 O692 2.073 . S
Zn683 O684 1.962 . S
Zn683 O686 1.986 . S
Zn683 O688 1.996 . S
Zn683 O691 1.943 1_545 S
O684 Zn683 1.962 . S
O684 C689 1.254 . S
O685 Zn682 2.027 1_545 S
O685 C689 1.269 . S
O686 Zn683 1.986 . S
O686 C693 1.262 . S
O687 Zn682 2.052 . S
O687 C695 1.260 . S
O688 Zn683 1.996 . S
O688 C695 1.257 1_545 S
C689 O684 1.254 . S
C689 O685 1.269 . S
C690 O691 1.249 . S
C690 O692 1.270 . S
O691 Zn683 1.943 1_565 S
O691 C690 1.249 . S
O692 Zn682 2.073 . S
O692 C690 1.270 . S
C693 O686 1.262 . S
C693 O694 1.232 . S
O694 C693 1.232 . S
C695 O687 1.260 . S
C695 O688 1.257 1_565 S
Zn696 O699 2.031 . S
Zn696 O701 2.049 . S
Zn696 O706 2.067 . S
Zn697 O698 1.962 . S
Zn697 O700 1.986 . S
Zn697 O702 1.996 . S
Zn697 O705 1.943 . S
O698 Zn697 1.962 . S
O698 C703 1.254 . S
O699 Zn696 2.031 . S
O699 C703 1.269 . S
O700 Zn697 1.986 . S
O700 C707 1.262 . S
O701 Zn696 2.049 . S
O701 C709 1.260 . S
O702 Zn697 1.996 . S
O702 C709 1.257 . S
C703 O698 1.254 . S
C703 O699 1.269 . S
C704 O705 1.249 . S
C704 O706 1.270 . S
O705 Zn697 1.943 . S
O705 C704 1.249 . S
O706 Zn696 2.067 . S
O706 C704 1.270 . S
C707 O700 1.262 . S
C707 O708 1.232 . S
O708 C707 1.232 . S
C709 O701 1.260 . S
C709 O702 1.257 . S
Zn710 O713 2.031 . S
Zn710 O715 2.049 . S
Zn710 O720 2.067 . S
Zn711 O712 1.962 . S
Zn711 O714 1.986 . S
Zn711 O716 1.996 . S
Zn711 O719 1.943 . S
O712 Zn711 1.962 . S
O712 C717 1.254 . S
O713 Zn710 2.031 . S
O713 C717 1.269 . S
O714 Zn711 1.986 . S
O714 C721 1.262 . S
O715 Zn710 2.049 . S
O715 C723 1.260 . S
O716 Zn711 1.996 . S
O716 C723 1.257 . S
C717 O712 1.254 . S
C717 O713 1.269 . S
C718 O719 1.249 . S
C718 O720 1.270 . S
O719 Zn711 1.943 . S
O719 C718 1.249 . S
O720 Zn710 2.067 . S
O720 C718 1.270 . S
C721 O714 1.262 . S
C721 O722 1.232 . S
O722 C721 1.232 . S
C723 O715 1.260 . S
C723 O716 1.257 . S
Zn724 O727 2.031 . S
Zn724 O729 2.049 . S
Zn724 O734 2.067 . S
Zn725 O726 1.962 . S
Zn725 O728 1.986 . S
Zn725 O730 1.996 . S
Zn725 O733 1.943 . S
O726 Zn725 1.962 . S
O726 C731 1.254 . S
O727 Zn724 2.031 . S
O727 C731 1.269 . S
O728 Zn725 1.986 . S
O728 C735 1.262 . S
O729 Zn724 2.049 . S
O729 C737 1.260 . S
O730 Zn725 1.996 . S
O730 C737 1.257 . S
C731 O726 1.254 . S
C731 O727 1.269 . S
C732 O733 1.249 . S
C732 O734 1.270 . S
O733 Zn725 1.943 . S
O733 C732 1.249 . S
O734 Zn724 2.067 . S
O734 C732 1.270 . S
C735 O728 1.262 . S
C735 O736 1.232 . S
O736 C735 1.232 . S
C737 O729 1.260 . S
C737 O730 1.257 . S
Zn738 O741 2.031 . S
Zn738 O743 2.049 . S
Zn738 O748 2.067 . S
Zn739 O740 1.962 . S
Zn739 O742 1.986 . S
Zn739 O744 1.996 1_545 S
Zn739 O747 1.943 . S
O740 Zn739 1.962 . S
O740 C745 1.254 . S
O741 Zn738 2.031 . S
O741 C745 1.269 1_565 S
O742 Zn739 1.986 . S
O742 C749 1.262 . S
O743 Zn738 2.049 . S
O743 C751 1.260 . S
O744 Zn739 1.996 1_565 S
O744 C751 1.257 . S
C745 O740 1.254 . S
C745 O741 1.269 1_545 S
C746 O747 1.249 1_565 S
C746 O748 1.270 . S
O747 Zn739 1.943 . S
O747 C746 1.249 1_545 S
O748 Zn738 2.067 . S
O748 C746 1.270 . S
C749 O742 1.262 . S
C749 O750 1.232 . S
O750 C749 1.232 . S
C751 O743 1.260 . S
C751 O744 1.257 . S
Zn752 O755 2.051 . S
Zn752 O757 2.036 1_455 S
Zn752 O762 2.040 1_455 S
Zn753 O754 1.962 . S
Zn753 O756 1.986 . S
Zn753 O758 1.996 . S
Zn753 O761 1.943 1_455 S
O754 Zn753 1.962 . S
O754 C759 1.254 . S
O755 Zn752 2.051 . S
O755 C759 1.269 . S
O756 Zn753 1.986 . S
O756 C763 1.262 . S
O757 Zn752 2.036 1_655 S
O757 C765 1.260 . S
O758 Zn753 1.996 . S
O758 C765 1.257 1_455 S
C759 O754 1.254 . S
C759 O755 1.269 . S
C760 O761 1.249 . S
C760 O762 1.270 . S
O761 Zn753 1.943 1_655 S
O761 C760 1.249 . S
O762 Zn752 2.040 1_655 S
O762 C760 1.270 . S
C763 O756 1.262 . S
C763 O764 1.232 . S
O764 C763 1.232 . S
C765 O757 1.260 . S
C765 O758 1.257 1_655 S
Zn766 O769 2.031 . S
Zn766 O771 2.049 . S
Zn766 O776 2.067 . S
Zn767 O768 1.962 . S
Zn767 O770 1.986 . S
Zn767 O772 1.996 . S
Zn767 O775 1.943 . S
O768 Zn767 1.962 . S
O768 C773 1.254 . S
O769 Zn766 2.031 . S
O769 C773 1.269 . S
O770 Zn767 1.986 . S
O770 C777 1.262 . S
O771 Zn766 2.049 . S
O771 C779 1.260 . S
O772 Zn767 1.996 . S
O772 C779 1.257 . S
C773 O768 1.254 . S
C773 O769 1.269 . S
C774 O775 1.249 . S
C774 O776 1.270 . S
O775 Zn767 1.943 . S
O775 C774 1.249 . S
O776 Zn766 2.067 . S
O776 C774 1.270 . S
C777 O770 1.262 . S
C777 O778 1.232 . S
O778 C777 1.232 . S
C779 O771 1.260 . S
C779 O772 1.257 . S
Zn780 O783 2.031 . S
Zn780 O785 2.049 . S
Zn780 O790 2.067 . S
Zn781 O782 1.962 . S
Zn781 O784 1.986 . S
Zn781 O786 1.996 1_455 S
Zn781 O789 1.943 . S
O782 Zn781 1.962 . S
O782 C787 1.254 . S
O783 Zn780 2.031 . S
O783 C787 1.269 1_655 S
O784 Zn781 1.986 . S
O784 C791 1.262 . S
O785 Zn780 2.049 . S
O785 C793 1.260 . S
O786 Zn781 1.996 1_655 S
O786 C793 1.257 . S
C787 O782 1.254 . S
C787 O783 1.269 1_455 S
C788 O789 1.249 1_655 S
C788 O790 1.270 . S
O789 Zn781 1.943 . S
O789 C788 1.249 1_455 S
O790 Zn780 2.067 . S
O790 C788 1.270 . S
C791 O784 1.262 . S
C791 O792 1.232 . S
O792 C791 1.232 . S
C793 O785 1.260 . S
C793 O786 1.257 . S
Zn794 O797 2.031 . S
Zn794 O799 2.049 . S
Zn794 O804 2.067 . S
Zn795 O796 1.962 . S
Zn795 O798 1.986 . S
Zn795 O800 1.996 . S
Zn795 O803 1.943 . S
O796 Zn795 1.962 . S
O796 C801 1.254 . S
O797 Zn794 2.031 . S
O797 C801 1.269 . S
O798 Zn795 1.986 . S
O798 C805 1.262 . S
O799 Zn794 2.049 . S
O799 C807 1.260 . S
O800 Zn795 1.996 . S
O800 C807 1.257 . S
C801 O796 1.254 . S
C801 O797 1.269 . S
C802 O803 1.249 . S
C802 O804 1.270 . S
O803 Zn795 1.943 . S
O803 C802 1.249 . S
O804 Zn794 2.067 . S
O804 C802 1.270 . S
C805 O798 1.262 . S
C805 O806 1.232 . S
O806 C805 1.232 . S
C807 O799 1.260 . S
C807 O800 1.257 . S
C808 C809 1.391 . S
C808 C810 1.394 . S
C808 H824 0.931 . S
C809 C808 1.391 . S
C809 C813 1.376 . S
C810 C808 1.394 . S
C810 C811 1.369 . S
C810 C814 1.531 . S
C811 C810 1.369 . S
C811 C812 1.410 . S
C811 C819 1.503 . S
C812 C811 1.410 . S
C812 C813 1.392 . S
C812 C815 1.511 . S
C813 C809 1.376 . S
C813 C812 1.392 . S
C813 H825 0.929 . S
C814 C810 1.531 . S
C814 H826 0.960 . S
C814 H827 0.962 . S
C814 H828 0.960 . S
C815 C812 1.511 . S
C815 H829 0.961 . S
C815 H830 0.961 . S
C815 H831 0.961 . S
C816 C817 1.370 . S
C816 C818 1.363 . S
C816 H832 0.931 . S
C817 C816 1.370 . S
C817 C821 1.408 . S
C818 C816 1.363 . S
C818 C819 1.370 . S
C818 C822 1.524 . S
C819 C811 1.503 . S
C819 C818 1.370 . S
C819 C820 1.403 . S
C820 C819 1.403 . S
C820 C821 1.404 . S
C820 C823 1.539 . S
C821 C817 1.408 . S
C821 C820 1.404 . S
C821 H833 0.930 . S
C822 C818 1.524 . S
C822 H834 0.956 . S
C822 H835 0.961 . S
C822 H836 0.961 . S
C823 C820 1.539 . S
C823 H837 0.958 . S
C823 H838 0.961 . S
C823 H839 0.960 . S
H824 C808 0.931 . S
H825 C813 0.929 . S
H826 C814 0.960 . S
H827 C814 0.962 . S
H828 C814 0.960 . S
H829 C815 0.961 . S
H830 C815 0.961 . S
H831 C815 0.961 . S
H832 C816 0.931 . S
H833 C821 0.930 . S
H834 C822 0.956 . S
H835 C822 0.961 . S
H836 C822 0.961 . S
H837 C823 0.958 . S
H838 C823 0.961 . S
H839 C823 0.960 . S
C840 C841 1.391 . S
C840 C842 1.394 . S
C840 H856 0.931 . S
C841 C840 1.391 . S
C841 C845 1.376 . S
C842 C840 1.394 . S
C842 C843 1.369 . S
C842 C846 1.531 . S
C843 C842 1.369 . S
C843 C844 1.410 . S
C843 C851 1.503 . S
C844 C843 1.410 . S
C844 C845 1.392 . S
C844 C847 1.511 . S
C845 C841 1.376 . S
C845 C844 1.392 . S
C845 H857 0.929 . S
C846 C842 1.531 . S
C846 H858 0.960 . S
C846 H859 0.962 . S
C846 H860 0.960 . S
C847 C844 1.511 . S
C847 H861 0.961 . S
C847 H862 0.961 . S
C847 H863 0.961 . S
C848 C849 1.370 . S
C848 C850 1.363 . S
C848 H864 0.931 . S
C849 C848 1.370 . S
C849 C853 1.408 . S
C850 C848 1.363 . S
C850 C851 1.370 . S
C850 C854 1.524 . S
C851 C843 1.503 . S
C851 C850 1.370 . S
C851 C852 1.403 . S
C852 C851 1.403 . S
C852 C853 1.404 . S
C852 C855 1.539 . S
C853 C849 1.408 . S
C853 C852 1.404 . S
C853 H865 0.930 . S
C854 C850 1.524 . S
C854 H866 0.956 . S
C854 H867 0.961 . S
C854 H868 0.961 . S
C855 C852 1.539 . S
C855 H869 0.958 . S
C855 H870 0.961 . S
C855 H871 0.960 . S
H856 C840 0.931 . S
H857 C845 0.929 . S
H858 C846 0.960 . S
H859 C846 0.962 . S
H860 C846 0.960 . S
H861 C847 0.961 . S
H862 C847 0.961 . S
H863 C847 0.961 . S
H864 C848 0.931 . S
H865 C853 0.930 . S
H866 C854 0.956 . S
H867 C854 0.961 . S
H868 C854 0.961 . S
H869 C855 0.958 . S
H870 C855 0.961 . S
H871 C855 0.960 . S
C872 C873 1.391 . S
C872 C874 1.394 . S
C872 H888 0.931 . S
C873 C872 1.391 . S
C873 C877 1.376 . S
C874 C872 1.394 . S
C874 C875 1.369 . S
C874 C878 1.531 . S
C875 C874 1.369 . S
C875 C876 1.410 . S
C875 C883 1.503 . S
C876 C875 1.410 . S
C876 C877 1.392 . S
C876 C879 1.511 . S
C877 C873 1.376 . S
C877 C876 1.392 . S
C877 H889 0.929 . S
C878 C874 1.531 . S
C878 H890 0.960 . S
C878 H891 0.962 . S
C878 H892 0.960 . S
C879 C876 1.511 . S
C879 H893 0.961 . S
C879 H894 0.961 . S
C879 H895 0.961 . S
C880 C881 1.370 . S
C880 C882 1.363 . S
C880 H896 0.931 . S
C881 C880 1.370 . S
C881 C885 1.408 . S
C882 C880 1.363 . S
C882 C883 1.370 . S
C882 C886 1.524 . S
C883 C875 1.503 . S
C883 C882 1.370 . S
C883 C884 1.403 . S
C884 C883 1.403 . S
C884 C885 1.404 . S
C884 C887 1.539 . S
C885 C881 1.408 . S
C885 C884 1.404 . S
C885 H897 0.930 . S
C886 C882 1.524 . S
C886 H898 0.956 . S
C886 H899 0.961 . S
C886 H900 0.961 . S
C887 C884 1.539 . S
C887 H901 0.958 . S
C887 H902 0.961 . S
C887 H903 0.960 . S
H888 C872 0.931 . S
H889 C877 0.929 . S
H890 C878 0.960 . S
H891 C878 0.962 . S
H892 C878 0.960 . S
H893 C879 0.961 . S
H894 C879 0.961 . S
H895 C879 0.961 . S
H896 C880 0.931 . S
H897 C885 0.930 . S
H898 C886 0.956 . S
H899 C886 0.961 . S
H900 C886 0.961 . S
H901 C887 0.958 . S
H902 C887 0.961 . S
H903 C887 0.960 . S
C904 C905 1.391 . S
C904 C906 1.394 . S
C904 H920 0.931 . S
C905 C904 1.391 . S
C905 C909 1.376 . S
C906 C904 1.394 . S
C906 C907 1.369 . S
C906 C910 1.531 . S
C907 C906 1.369 . S
C907 C908 1.410 . S
C907 C915 1.503 . S
C908 C907 1.410 . S
C908 C909 1.392 . S
C908 C911 1.511 1_565 S
C909 C905 1.376 . S
C909 C908 1.392 . S
C909 H921 0.929 . S
C910 C906 1.531 . S
C910 H922 0.960 . S
C910 H923 0.962 . S
C910 H924 0.960 . S
C911 C908 1.511 1_545 S
C911 H925 0.961 . S
C911 H926 0.961 . S
C911 H927 0.961 . S
C912 C913 1.370 . S
C912 C914 1.363 . S
C912 H928 0.931 . S
C913 C912 1.370 . S
C913 C917 1.408 . S
C914 C912 1.363 . S
C914 C915 1.370 . S
C914 C918 1.524 . S
C915 C907 1.503 . S
C915 C914 1.370 . S
C915 C916 1.403 . S
C916 C915 1.403 . S
C916 C917 1.404 . S
C916 C919 1.539 . S
C917 C913 1.408 . S
C917 C916 1.404 . S
C917 H929 0.930 . S
C918 C914 1.524 . S
C918 H930 0.956 . S
C918 H931 0.961 . S
C918 H932 0.961 . S
C919 C916 1.539 . S
C919 H933 0.958 . S
C919 H934 0.961 . S
C919 H935 0.960 . S
H920 C904 0.931 . S
H921 C909 0.929 . S
H922 C910 0.960 . S
H923 C910 0.962 . S
H924 C910 0.960 . S
H925 C911 0.961 . S
H926 C911 0.961 . S
H927 C911 0.961 . S
H928 C912 0.931 . S
H929 C917 0.930 . S
H930 C918 0.956 . S
H931 C918 0.961 . S
H932 C918 0.961 . S
H933 C919 0.958 . S
H934 C919 0.961 . S
H935 C919 0.960 . S
C936 C937 1.391 . S
C936 C938 1.394 . S
C936 H952 0.931 . S
C937 C936 1.391 . S
C937 C941 1.376 . S
C938 C936 1.394 . S
C938 C939 1.369 . S
C938 C942 1.531 . S
C939 C938 1.369 . S
C939 C940 1.410 . S
C939 C947 1.503 . S
C940 C939 1.410 . S
C940 C941 1.392 . S
C940 C943 1.511 . S
C941 C937 1.376 . S
C941 C940 1.392 . S
C941 H953 0.929 . S
C942 C938 1.531 . S
C942 H954 0.960 . S
C942 H955 0.962 . S
C942 H956 0.960 . S
C943 C940 1.511 . S
C943 H957 0.961 . S
C943 H958 0.961 . S
C943 H959 0.961 . S
C944 C945 1.370 . S
C944 C946 1.363 . S
C944 H960 0.931 . S
C945 C944 1.370 . S
C945 C949 1.408 . S
C946 C944 1.363 . S
C946 C947 1.370 . S
C946 C950 1.524 . S
C947 C939 1.503 . S
C947 C946 1.370 . S
C947 C948 1.403 . S
C948 C947 1.403 . S
C948 C949 1.404 . S
C948 C951 1.539 . S
C949 C945 1.408 . S
C949 C948 1.404 . S
C949 H961 0.930 . S
C950 C946 1.524 . S
C950 H962 0.956 . S
C950 H963 0.961 . S
C950 H964 0.961 . S
C951 C948 1.539 . S
C951 H965 0.958 . S
C951 H966 0.961 . S
C951 H967 0.960 . S
H952 C936 0.931 . S
H953 C941 0.929 . S
H954 C942 0.960 . S
H955 C942 0.962 . S
H956 C942 0.960 . S
H957 C943 0.961 . S
H958 C943 0.961 . S
H959 C943 0.961 . S
H960 C944 0.931 . S
H961 C949 0.930 . S
H962 C950 0.956 . S
H963 C950 0.961 . S
H964 C950 0.961 . S
H965 C951 0.958 . S
H966 C951 0.961 . S
H967 C951 0.960 . S
C968 C969 1.391 . S
C968 C970 1.394 . S
C968 H984 0.931 . S
C969 C968 1.391 . S
C969 C973 1.376 . S
C970 C968 1.394 . S
C970 C971 1.369 . S
C970 C974 1.531 . S
C971 C970 1.369 . S
C971 C972 1.410 . S
C971 C979 1.503 . S
C972 C971 1.410 . S
C972 C973 1.392 . S
C972 C975 1.511 . S
C973 C969 1.376 . S
C973 C972 1.392 . S
C973 H985 0.929 . S
C974 C970 1.531 . S
C974 H986 0.960 . S
C974 H987 0.962 . S
C974 H988 0.960 . S
C975 C972 1.511 . S
C975 H989 0.961 . S
C975 H990 0.961 . S
C975 H991 0.961 . S
C976 C977 1.370 . S
C976 C978 1.363 . S
C976 H992 0.931 . S
C977 C976 1.370 . S
C977 C981 1.408 . S
C978 C976 1.363 . S
C978 C979 1.370 . S
C978 C982 1.524 . S
C979 C971 1.503 . S
C979 C978 1.370 . S
C979 C980 1.403 . S
C980 C979 1.403 . S
C980 C981 1.404 . S
C980 C983 1.539 . S
C981 C977 1.408 . S
C981 C980 1.404 . S
C981 H993 0.930 . S
C982 C978 1.524 . S
C982 H994 0.956 . S
C982 H995 0.961 . S
C982 H996 0.961 . S
C983 C980 1.539 . S
C983 H997 0.958 . S
C983 H998 0.961 . S
C983 H999 0.960 . S
H984 C968 0.931 . S
H985 C973 0.929 . S
H986 C974 0.960 . S
H987 C974 0.962 . S
H988 C974 0.960 . S
H989 C975 0.961 . S
H990 C975 0.961 . S
H991 C975 0.961 . S
H992 C976 0.931 . S
H993 C981 0.930 . S
H994 C982 0.956 . S
H995 C982 0.961 . S
H996 C982 0.961 . S
H997 C983 0.958 . S
H998 C983 0.961 . S
H999 C983 0.960 . S
C1000 C1001 1.391 . S
C1000 C1002 1.394 . S
C1000 H1016 0.931 . S
C1001 C1000 1.391 . S
C1001 C1005 1.376 . S
C1002 C1000 1.394 . S
C1002 C1003 1.369 . S
C1002 C1006 1.531 . S
C1003 C1002 1.369 . S
C1003 C1004 1.410 . S
C1003 C1011 1.503 . S
C1004 C1003 1.410 . S
C1004 C1005 1.392 . S
C1004 C1007 1.511 . S
C1005 C1001 1.376 . S
C1005 C1004 1.392 . S
C1005 H1017 0.929 . S
C1006 C1002 1.531 . S
C1006 H1018 0.960 . S
C1006 H1019 0.962 . S
C1006 H1020 0.960 . S
C1007 C1004 1.511 . S
C1007 H1021 0.961 . S
C1007 H1022 0.961 . S
C1007 H1023 0.961 . S
C1008 C1009 1.370 . S
C1008 C1010 1.363 . S
C1008 H1024 0.931 . S
C1009 C1008 1.370 . S
C1009 C1013 1.408 . S
C1010 C1008 1.363 . S
C1010 C1011 1.370 . S
C1010 C1014 1.524 . S
C1011 C1003 1.503 . S
C1011 C1010 1.370 . S
C1011 C1012 1.403 . S
C1012 C1011 1.403 . S
C1012 C1013 1.404 . S
C1012 C1015 1.539 . S
C1013 C1009 1.408 . S
C1013 C1012 1.404 . S
C1013 H1025 0.930 . S
C1014 C1010 1.524 . S
C1014 H1026 0.956 . S
C1014 H1027 0.961 . S
C1014 H1028 0.961 . S
C1015 C1012 1.539 . S
C1015 H1029 0.958 . S
C1015 H1030 0.961 . S
C1015 H1031 0.960 . S
H1016 C1000 0.931 . S
H1017 C1005 0.929 . S
H1018 C1006 0.960 . S
H1019 C1006 0.962 . S
H1020 C1006 0.960 . S
H1021 C1007 0.961 . S
H1022 C1007 0.961 . S
H1023 C1007 0.961 . S
H1024 C1008 0.931 . S
H1025 C1013 0.930 . S
H1026 C1014 0.956 . S
H1027 C1014 0.961 . S
H1028 C1014 0.961 . S
H1029 C1015 0.958 . S
H1030 C1015 0.961 . S
H1031 C1015 0.960 . S
C1032 C1033 1.391 . S
C1032 C1034 1.394 . S
C1032 H1048 0.931 . S
C1033 C1032 1.391 . S
C1033 C1037 1.376 . S
C1034 C1032 1.394 . S
C1034 C1035 1.369 . S
C1034 C1038 1.531 . S
C1035 C1034 1.369 . S
C1035 C1036 1.410 . S
C1035 C1043 1.503 . S
C1036 C1035 1.410 . S
C1036 C1037 1.392 . S
C1036 C1039 1.511 1_565 S
C1037 C1033 1.376 . S
C1037 C1036 1.392 . S
C1037 H1049 0.929 1_565 S
C1038 C1034 1.531 . S
C1038 H1050 0.960 . S
C1038 H1051 0.962 . S
C1038 H1052 0.960 . S
C1039 C1036 1.511 1_545 S
C1039 H1053 0.961 . S
C1039 H1054 0.961 . S
C1039 H1055 0.961 . S
C1040 C1041 1.370 . S
C1040 C1042 1.363 . S
C1040 H1056 0.931 . S
C1041 C1040 1.370 . S
C1041 C1045 1.408 . S
C1042 C1040 1.363 . S
C1042 C1043 1.370 . S
C1042 C1046 1.524 . S
C1043 C1035 1.503 . S
C1043 C1042 1.370 . S
C1043 C1044 1.403 . S
C1044 C1043 1.403 . S
C1044 C1045 1.404 . S
C1044 C1047 1.539 . S
C1045 C1041 1.408 . S
C1045 C1044 1.404 . S
C1045 H1057 0.930 . S
C1046 C1042 1.524 . S
C1046 H1058 0.956 . S
C1046 H1059 0.961 . S
C1046 H1060 0.961 . S
C1047 C1044 1.539 . S
C1047 H1061 0.958 . S
C1047 H1062 0.961 . S
C1047 H1063 0.960 . S
H1048 C1032 0.931 . S
H1049 C1037 0.929 1_545 S
H1050 C1038 0.960 . S
H1051 C1038 0.962 . S
H1052 C1038 0.960 . S
H1053 C1039 0.961 . S
H1054 C1039 0.961 . S
H1055 C1039 0.961 . S
H1056 C1040 0.931 . S
H1057 C1045 0.930 . S
H1058 C1046 0.956 . S
H1059 C1046 0.961 . S
H1060 C1046 0.961 . S
H1061 C1047 0.958 . S
H1062 C1047 0.961 . S
H1063 C1047 0.960 . S
C1064 C1065 1.391 . S
C1064 C1066 1.394 . S
C1064 H1080 0.931 . S
C1065 C1064 1.391 . S
C1065 C1069 1.376 . S
C1066 C1064 1.394 . S
C1066 C1067 1.369 . S
C1066 C1070 1.531 . S
C1067 C1066 1.369 . S
C1067 C1068 1.410 . S
C1067 C1075 1.503 . S
C1068 C1067 1.410 . S
C1068 C1069 1.392 . S
C1068 C1071 1.511 . S
C1069 C1065 1.376 . S
C1069 C1068 1.392 . S
C1069 H1081 0.929 . S
C1070 C1066 1.531 . S
C1070 H1082 0.960 . S
C1070 H1083 0.962 . S
C1070 H1084 0.960 . S
C1071 C1068 1.511 . S
C1071 H1085 0.961 . S
C1071 H1086 0.961 . S
C1071 H1087 0.961 . S
C1072 C1073 1.370 . S
C1072 C1074 1.363 . S
C1072 H1088 0.931 . S
C1073 C1072 1.370 . S
C1073 C1077 1.408 . S
C1074 C1072 1.363 . S
C1074 C1075 1.370 . S
C1074 C1078 1.524 . S
C1075 C1067 1.503 . S
C1075 C1074 1.370 . S
C1075 C1076 1.403 . S
C1076 C1075 1.403 . S
C1076 C1077 1.404 . S
C1076 C1079 1.539 . S
C1077 C1073 1.408 . S
C1077 C1076 1.404 . S
C1077 H1089 0.930 . S
C1078 C1074 1.524 . S
C1078 H1090 0.956 . S
C1078 H1091 0.961 . S
C1078 H1092 0.961 . S
C1079 C1076 1.539 . S
C1079 H1093 0.958 . S
C1079 H1094 0.961 . S
C1079 H1095 0.960 . S
H1080 C1064 0.931 . S
H1081 C1069 0.929 . S
H1082 C1070 0.960 . S
H1083 C1070 0.962 . S
H1084 C1070 0.960 . S
H1085 C1071 0.961 . S
H1086 C1071 0.961 . S
H1087 C1071 0.961 . S
H1088 C1072 0.931 . S
H1089 C1077 0.930 . S
H1090 C1078 0.956 . S
H1091 C1078 0.961 . S
H1092 C1078 0.961 . S
H1093 C1079 0.958 . S
H1094 C1079 0.961 . S
H1095 C1079 0.960 . S
C1096 C1097 1.391 . S
C1096 C1098 1.394 . S
C1096 H1112 0.931 . S
C1097 C1096 1.391 . S
C1097 C1101 1.376 . S
C1098 C1096 1.394 . S
C1098 C1099 1.369 . S
C1098 C1102 1.531 . S
C1099 C1098 1.369 . S
C1099 C1100 1.410 . S
C1099 C1107 1.503 . S
C1100 C1099 1.410 . S
C1100 C1101 1.392 . S
C1100 C1103 1.511 . S
C1101 C1097 1.376 . S
C1101 C1100 1.392 . S
C1101 H1113 0.929 . S
C1102 C1098 1.531 . S
C1102 H1114 0.960 . S
C1102 H1115 0.962 . S
C1102 H1116 0.960 . S
C1103 C1100 1.511 . S
C1103 H1117 0.961 . S
C1103 H1118 0.961 . S
C1103 H1119 0.961 . S
C1104 C1105 1.370 . S
C1104 C1106 1.363 . S
C1104 H1120 0.931 . S
C1105 C1104 1.370 . S
C1105 C1109 1.408 . S
C1106 C1104 1.363 . S
C1106 C1107 1.370 . S
C1106 C1110 1.524 . S
C1107 C1099 1.503 . S
C1107 C1106 1.370 . S
C1107 C1108 1.403 . S
C1108 C1107 1.403 . S
C1108 C1109 1.404 . S
C1108 C1111 1.539 . S
C1109 C1105 1.408 . S
C1109 C1108 1.404 . S
C1109 H1121 0.930 . S
C1110 C1106 1.524 . S
C1110 H1122 0.956 . S
C1110 H1123 0.961 . S
C1110 H1124 0.961 . S
C1111 C1108 1.539 . S
C1111 H1125 0.958 . S
C1111 H1126 0.961 . S
C1111 H1127 0.960 . S
H1112 C1096 0.931 . S
H1113 C1101 0.929 . S
H1114 C1102 0.960 . S
H1115 C1102 0.962 . S
H1116 C1102 0.960 . S
H1117 C1103 0.961 . S
H1118 C1103 0.961 . S
H1119 C1103 0.961 . S
H1120 C1104 0.931 . S
H1121 C1109 0.930 . S
H1122 C1110 0.956 . S
H1123 C1110 0.961 . S
H1124 C1110 0.961 . S
H1125 C1111 0.958 . S
H1126 C1111 0.961 . S
H1127 C1111 0.960 . S
C1128 C1129 1.391 . S
C1128 C1130 1.394 . S
C1128 H1144 0.931 . S
C1129 C1128 1.391 . S
C1129 C1133 1.376 . S
C1130 C1128 1.394 . S
C1130 C1131 1.369 . S
C1130 C1134 1.531 . S
C1131 C1130 1.369 . S
C1131 C1132 1.410 . S
C1131 C1139 1.503 . S
C1132 C1131 1.410 . S
C1132 C1133 1.392 . S
C1132 C1135 1.511 . S
C1133 C1129 1.376 . S
C1133 C1132 1.392 . S
C1133 H1145 0.929 . S
C1134 C1130 1.531 . S
C1134 H1146 0.960 . S
C1134 H1147 0.962 . S
C1134 H1148 0.960 . S
C1135 C1132 1.511 . S
C1135 H1149 0.961 . S
C1135 H1150 0.961 . S
C1135 H1151 0.961 . S
C1136 C1137 1.370 . S
C1136 C1138 1.363 . S
C1136 H1152 0.931 . S
C1137 C1136 1.370 . S
C1137 C1141 1.408 . S
C1138 C1136 1.363 . S
C1138 C1139 1.370 . S
C1138 C1142 1.524 . S
C1139 C1131 1.503 . S
C1139 C1138 1.370 . S
C1139 C1140 1.403 . S
C1140 C1139 1.403 . S
C1140 C1141 1.404 . S
C1140 C1143 1.539 . S
C1141 C1137 1.408 . S
C1141 C1140 1.404 . S
C1141 H1153 0.930 . S
C1142 C1138 1.524 . S
C1142 H1154 0.956 . S
C1142 H1155 0.961 . S
C1142 H1156 0.961 . S
C1143 C1140 1.539 . S
C1143 H1157 0.958 . S
C1143 H1158 0.961 . S
C1143 H1159 0.960 . S
H1144 C1128 0.931 . S
H1145 C1133 0.929 . S
H1146 C1134 0.960 . S
H1147 C1134 0.962 . S
H1148 C1134 0.960 . S
H1149 C1135 0.961 . S
H1150 C1135 0.961 . S
H1151 C1135 0.961 . S
H1152 C1136 0.931 . S
H1153 C1141 0.930 . S
H1154 C1142 0.956 . S
H1155 C1142 0.961 . S
H1156 C1142 0.961 . S
H1157 C1143 0.958 . S
H1158 C1143 0.961 . S
H1159 C1143 0.960 . S
C1160 C1161 1.391 . S
C1160 C1162 1.394 . S
C1160 H1176 0.931 . S
C1161 C1160 1.391 . S
C1161 C1165 1.376 . S
C1162 C1160 1.394 . S
C1162 C1163 1.369 . S
C1162 C1166 1.531 . S
C1163 C1162 1.369 . S
C1163 C1164 1.410 . S
C1163 C1171 1.503 . S
C1164 C1163 1.410 . S
C1164 C1165 1.392 . S
C1164 C1167 1.511 . S
C1165 C1161 1.376 . S
C1165 C1164 1.392 . S
C1165 H1177 0.929 . S
C1166 C1162 1.531 . S
C1166 H1178 0.960 . S
C1166 H1179 0.962 . S
C1166 H1180 0.960 . S
C1167 C1164 1.511 . S
C1167 H1181 0.961 . S
C1167 H1182 0.961 . S
C1167 H1183 0.961 . S
C1168 C1169 1.370 . S
C1168 C1170 1.363 . S
C1168 H1184 0.931 . S
C1169 C1168 1.370 . S
C1169 C1173 1.408 . S
C1170 C1168 1.363 . S
C1170 C1171 1.370 . S
C1170 C1174 1.524 . S
C1171 C1163 1.503 . S
C1171 C1170 1.370 . S
C1171 C1172 1.403 . S
C1172 C1171 1.403 . S
C1172 C1173 1.404 . S
C1172 C1175 1.539 . S
C1173 C1169 1.408 . S
C1173 C1172 1.404 . S
C1173 H1185 0.930 . S
C1174 C1170 1.524 . S
C1174 H1186 0.956 . S
C1174 H1187 0.961 . S
C1174 H1188 0.961 . S
C1175 C1172 1.539 . S
C1175 H1189 0.958 . S
C1175 H1190 0.961 . S
C1175 H1191 0.960 . S
H1176 C1160 0.931 . S
H1177 C1165 0.929 . S
H1178 C1166 0.960 . S
H1179 C1166 0.962 . S
H1180 C1166 0.960 . S
H1181 C1167 0.961 . S
H1182 C1167 0.961 . S
H1183 C1167 0.961 . S
H1184 C1168 0.931 . S
H1185 C1173 0.930 . S
H1186 C1174 0.956 . S
H1187 C1174 0.961 . S
H1188 C1174 0.961 . S
H1189 C1175 0.958 . S
H1190 C1175 0.961 . S
H1191 C1175 0.960 . S
C1192 C1193 1.391 . S
C1192 C1194 1.394 . S
C1192 H1208 0.931 . S
C1193 C1192 1.391 . S
C1193 C1197 1.376 . S
C1194 C1192 1.394 . S
C1194 C1195 1.369 . S
C1194 C1198 1.531 . S
C1195 C1194 1.369 . S
C1195 C1196 1.410 . S
C1195 C1203 1.503 . S
C1196 C1195 1.410 . S
C1196 C1197 1.392 . S
C1196 C1199 1.511 . S
C1197 C1193 1.376 . S
C1197 C1196 1.392 . S
C1197 H1209 0.929 . S
C1198 C1194 1.531 . S
C1198 H1210 0.960 . S
C1198 H1211 0.962 . S
C1198 H1212 0.960 . S
C1199 C1196 1.511 . S
C1199 H1213 0.961 . S
C1199 H1214 0.961 . S
C1199 H1215 0.961 . S
C1200 C1201 1.370 . S
C1200 C1202 1.363 . S
C1200 H1216 0.931 . S
C1201 C1200 1.370 . S
C1201 C1205 1.408 . S
C1202 C1200 1.363 . S
C1202 C1203 1.370 . S
C1202 C1206 1.524 . S
C1203 C1195 1.503 . S
C1203 C1202 1.370 . S
C1203 C1204 1.403 . S
C1204 C1203 1.403 . S
C1204 C1205 1.404 . S
C1204 C1207 1.539 . S
C1205 C1201 1.408 . S
C1205 C1204 1.404 . S
C1205 H1217 0.930 . S
C1206 C1202 1.524 . S
C1206 H1218 0.956 . S
C1206 H1219 0.961 . S
C1206 H1220 0.961 . S
C1207 C1204 1.539 . S
C1207 H1221 0.958 . S
C1207 H1222 0.961 . S
C1207 H1223 0.960 . S
H1208 C1192 0.931 . S
H1209 C1197 0.929 . S
H1210 C1198 0.960 . S
H1211 C1198 0.962 . S
H1212 C1198 0.960 . S
H1213 C1199 0.961 . S
H1214 C1199 0.961 . S
H1215 C1199 0.961 . S
H1216 C1200 0.931 . S
H1217 C1205 0.930 . S
H1218 C1206 0.956 . S
H1219 C1206 0.961 . S
H1220 C1206 0.961 . S
H1221 C1207 0.958 . S
H1222 C1207 0.961 . S
H1223 C1207 0.960 . S
C1224 C1225 1.391 . S
C1224 C1226 1.394 . S
C1224 H1240 0.931 . S
C1225 C1224 1.391 . S
C1225 C1229 1.376 . S
C1226 C1224 1.394 . S
C1226 C1227 1.369 . S
C1226 C1230 1.531 1_455 S
C1227 C1226 1.369 . S
C1227 C1228 1.410 . S
C1227 C1235 1.503 . S
C1228 C1227 1.410 . S
C1228 C1229 1.392 . S
C1228 C1231 1.511 . S
C1229 C1225 1.376 . S
C1229 C1228 1.392 . S
C1229 H1241 0.929 . S
C1230 C1226 1.531 1_655 S
C1230 H1242 0.960 . S
C1230 H1243 0.972 . S
C1230 H1244 0.960 . S
C1231 C1228 1.511 . S
C1231 H1245 0.961 . S
C1231 H1246 0.961 . S
C1231 H1247 0.961 . S
C1232 C1233 1.370 . S
C1232 C1234 1.363 . S
C1232 H1248 0.931 . S
C1233 C1232 1.370 . S
C1233 C1237 1.408 . S
C1234 C1232 1.363 . S
C1234 C1235 1.370 . S
C1234 C1238 1.524 . S
C1235 C1227 1.503 . S
C1235 C1234 1.370 . S
C1235 C1236 1.403 . S
C1236 C1235 1.403 . S
C1236 C1237 1.404 . S
C1236 C1239 1.539 . S
C1237 C1233 1.408 . S
C1237 C1236 1.404 . S
C1237 H1249 0.963 . S
C1238 C1234 1.524 . S
C1238 H1250 0.956 . S
C1238 H1251 0.961 . S
C1238 H1252 0.961 . S
C1239 C1236 1.539 . S
C1239 H1253 0.958 1_455 S
C1239 H1254 0.961 . S
C1239 H1255 0.960 . S
H1240 C1224 0.931 . S
H1241 C1229 0.929 . S
H1242 C1230 0.960 . S
H1243 C1230 0.972 . S
H1244 C1230 0.960 . S
H1245 C1231 0.961 . S
H1246 C1231 0.961 . S
H1247 C1231 0.961 . S
H1248 C1232 0.931 . S
H1249 C1237 0.963 . S
H1250 C1238 0.956 . S
H1251 C1238 0.961 . S
H1252 C1238 0.961 . S
H1253 C1239 0.958 1_655 S
H1254 C1239 0.961 . S
H1255 C1239 0.960 . S
C1256 C1257 1.391 . S
C1256 C1258 1.394 . S
C1256 H1272 0.931 . S
C1257 C1256 1.391 . S
C1257 C1261 1.376 . S
C1258 C1256 1.394 . S
C1258 C1259 1.369 . S
C1258 C1262 1.531 . S
C1259 C1258 1.369 . S
C1259 C1260 1.410 . S
C1259 C1267 1.503 . S
C1260 C1259 1.410 . S
C1260 C1261 1.392 . S
C1260 C1263 1.511 . S
C1261 C1257 1.376 . S
C1261 C1260 1.392 . S
C1261 H1273 0.929 . S
C1262 C1258 1.531 . S
C1262 H1274 0.960 . S
C1262 H1275 0.962 . S
C1262 H1276 0.960 . S
C1263 C1260 1.511 . S
C1263 H1277 0.961 . S
C1263 H1278 0.961 . S
C1263 H1279 0.961 . S
C1264 C1265 1.370 . S
C1264 C1266 1.363 . S
C1264 H1280 0.931 . S
C1265 C1264 1.370 . S
C1265 C1269 1.408 . S
C1266 C1264 1.363 . S
C1266 C1267 1.370 . S
C1266 C1270 1.524 . S
C1267 C1259 1.503 . S
C1267 C1266 1.370 . S
C1267 C1268 1.403 . S
C1268 C1267 1.403 . S
C1268 C1269 1.404 . S
C1268 C1271 1.539 . S
C1269 C1265 1.408 . S
C1269 C1268 1.404 . S
C1269 H1281 0.930 . S
C1270 C1266 1.524 . S
C1270 H1282 0.956 . S
C1270 H1283 0.961 . S
C1270 H1284 0.961 . S
C1271 C1268 1.539 . S
C1271 H1285 0.958 . S
C1271 H1286 0.961 . S
C1271 H1287 0.960 . S
H1272 C1256 0.931 . S
H1273 C1261 0.929 . S
H1274 C1262 0.960 . S
H1275 C1262 0.962 . S
H1276 C1262 0.960 . S
H1277 C1263 0.961 . S
H1278 C1263 0.961 . S
H1279 C1263 0.961 . S
H1280 C1264 0.931 . S
H1281 C1269 0.930 . S
H1282 C1270 0.956 . S
H1283 C1270 0.961 . S
H1284 C1270 0.961 . S
H1285 C1271 0.958 . S
H1286 C1271 0.961 . S
H1287 C1271 0.960 . S
C1288 C1289 1.391 . S
C1288 C1290 1.394 . S
C1288 H1304 0.931 . S
C1289 C1288 1.391 . S
C1289 C1293 1.376 . S
C1290 C1288 1.394 . S
C1290 C1291 1.369 . S
C1290 C1294 1.531 . S
C1291 C1290 1.369 . S
C1291 C1292 1.410 . S
C1291 C1299 1.503 . S
C1292 C1291 1.410 . S
C1292 C1293 1.392 . S
C1292 C1295 1.511 . S
C1293 C1289 1.376 . S
C1293 C1292 1.392 . S
C1293 H1305 0.929 . S
C1294 C1290 1.531 . S
C1294 H1306 0.960 1_655 S
C1294 H1307 0.962 . S
C1294 H1308 0.960 1_655 S
C1295 C1292 1.511 . S
C1295 H1309 0.961 . S
C1295 H1310 0.961 . S
C1295 H1311 0.961 . S
C1296 C1297 1.370 . S
C1296 C1298 1.363 . S
C1296 H1312 0.931 . S
C1297 C1296 1.370 . S
C1297 C1301 1.408 1_655 S
C1298 C1296 1.363 . S
C1298 C1299 1.370 . S
C1298 C1302 1.524 . S
C1299 C1291 1.503 . S
C1299 C1298 1.370 . S
C1299 C1300 1.403 1_655 S
C1300 C1299 1.403 1_455 S
C1300 C1301 1.404 . S
C1300 C1303 1.539 . S
C1301 C1297 1.408 1_455 S
C1301 C1300 1.404 . S
C1301 H1313 0.930 . S
C1302 C1298 1.524 . S
C1302 H1314 0.956 . S
C1302 H1315 0.961 . S
C1302 H1316 0.961 . S
C1303 C1300 1.539 . S
C1303 H1317 0.958 . S
C1303 H1318 0.961 . S
C1303 H1319 0.960 . S
H1304 C1288 0.931 . S
H1305 C1293 0.929 . S
H1306 C1294 0.960 1_455 S
H1307 C1294 0.962 . S
H1308 C1294 0.960 1_455 S
H1309 C1295 0.961 . S
H1310 C1295 0.961 . S
H1311 C1295 0.961 . S
H1312 C1296 0.931 . S
H1313 C1301 0.930 . S
H1314 C1302 0.956 . S
H1315 C1302 0.961 . S
H1316 C1302 0.961 . S
H1317 C1303 0.958 . S
H1318 C1303 0.961 . S
H1319 C1303 0.960 . S
C1320 C1321 1.391 . S
C1320 C1322 1.394 . S
C1320 H1336 0.931 . S
C1321 C1320 1.391 . S
C1321 C1325 1.376 . S
C1322 C1320 1.394 . S
C1322 C1323 1.369 . S
C1322 C1326 1.531 . S
C1323 C1322 1.369 . S
C1323 C1324 1.410 . S
C1323 C1331 1.503 . S
C1324 C1323 1.410 . S
C1324 C1325 1.392 . S
C1324 C1327 1.511 . S
C1325 C1321 1.376 . S
C1325 C1324 1.392 . S
C1325 H1337 0.929 . S
C1326 C1322 1.531 . S
C1326 H1338 0.960 . S
C1326 H1339 0.962 . S
C1326 H1340 0.960 . S
C1327 C1324 1.511 . S
C1327 H1341 0.961 . S
C1327 H1342 0.961 . S
C1327 H1343 0.961 . S
C1328 C1329 1.370 . S
C1328 C1330 1.363 . S
C1328 H1344 0.931 . S
C1329 C1328 1.370 . S
C1329 C1333 1.408 . S
C1330 C1328 1.363 . S
C1330 C1331 1.370 . S
C1330 C1334 1.524 . S
C1331 C1323 1.503 . S
C1331 C1330 1.370 . S
C1331 C1332 1.403 . S
C1332 C1331 1.403 . S
C1332 C1333 1.404 . S
C1332 C1335 1.539 . S
C1333 C1329 1.408 . S
C1333 C1332 1.404 . S
C1333 H1345 0.930 . S
C1334 C1330 1.524 . S
C1334 H1346 0.956 . S
C1334 H1347 0.961 . S
C1334 H1348 0.961 . S
C1335 C1332 1.539 . S
C1335 H1349 0.958 . S
C1335 H1350 0.961 . S
C1335 H1351 0.960 . S
H1336 C1320 0.931 . S
H1337 C1325 0.929 . S
H1338 C1326 0.960 . S
H1339 C1326 0.962 . S
H1340 C1326 0.960 . S
H1341 C1327 0.961 . S
H1342 C1327 0.961 . S
H1343 C1327 0.961 . S
H1344 C1328 0.931 . S
H1345 C1333 0.930 . S
H1346 C1334 0.956 . S
H1347 C1334 0.961 . S
H1348 C1334 0.961 . S
H1349 C1335 0.958 . S
H1350 C1335 0.961 . S
H1351 C1335 0.960 . S
C1352 C1353 1.391 . S
C1352 C1354 1.394 . S
C1352 H1368 0.931 . S
C1353 C1352 1.391 . S
C1353 C1357 1.376 . S
C1354 C1352 1.394 . S
C1354 C1355 1.369 . S
C1354 C1358 1.531 . S
C1355 C1354 1.369 . S
C1355 C1356 1.410 . S
C1355 C1363 1.503 . S
C1356 C1355 1.410 . S
C1356 C1357 1.392 . S
C1356 C1359 1.511 . S
C1357 C1353 1.376 . S
C1357 C1356 1.392 . S
C1357 H1369 0.929 . S
C1358 C1354 1.531 . S
C1358 H1370 0.960 . S
C1358 H1371 0.962 . S
C1358 H1372 0.960 . S
C1359 C1356 1.511 . S
C1359 H1373 0.961 . S
C1359 H1374 0.961 . S
C1359 H1375 0.961 . S
C1360 C1361 1.370 . S
C1360 C1362 1.363 . S
C1360 H1376 0.931 . S
C1361 C1360 1.370 . S
C1361 C1365 1.408 . S
C1362 C1360 1.363 . S
C1362 C1363 1.370 . S
C1362 C1366 1.524 . S
C1363 C1355 1.503 . S
C1363 C1362 1.370 . S
C1363 C1364 1.403 . S
C1364 C1363 1.403 . S
C1364 C1365 1.404 . S
C1364 C1367 1.539 . S
C1365 C1361 1.408 . S
C1365 C1364 1.404 . S
C1365 H1377 0.930 . S
C1366 C1362 1.524 . S
C1366 H1378 0.956 . S
C1366 H1379 0.961 . S
C1366 H1380 0.961 . S
C1367 C1364 1.539 . S
C1367 H1381 0.958 . S
C1367 H1382 0.961 . S
C1367 H1383 0.960 . S
H1368 C1352 0.931 . S
H1369 C1357 0.929 . S
H1370 C1358 0.960 . S
H1371 C1358 0.962 . S
H1372 C1358 0.960 . S
H1373 C1359 0.961 . S
H1374 C1359 0.961 . S
H1375 C1359 0.961 . S
H1376 C1360 0.931 . S
H1377 C1365 0.930 . S
H1378 C1366 0.956 . S
H1379 C1366 0.961 . S
H1380 C1366 0.961 . S
H1381 C1367 0.958 . S
H1382 C1367 0.961 . S
H1383 C1367 0.960 . S
C1384 C1385 1.391 . S
C1384 C1386 1.394 . S
C1384 H1400 0.931 . S
C1385 C1384 1.391 . S
C1385 C1389 1.376 . S
C1386 C1384 1.394 . S
C1386 C1387 1.369 . S
C1386 C1390 1.531 1_556 S
C1387 C1386 1.369 . S
C1387 C1388 1.410 . S
C1387 C1395 1.503 . S
C1388 C1387 1.410 . S
C1388 C1389 1.392 . S
C1388 C1391 1.511 . S
C1389 C1385 1.376 . S
C1389 C1388 1.392 . S
C1389 H1401 0.929 . S
C1390 C1386 1.531 1_554 S
C1390 H1402 0.960 . S
C1390 H1403 0.962 . S
C1390 H1404 0.960 . S
C1391 C1388 1.511 . S
C1391 H1405 0.961 . S
C1391 H1406 0.961 . S
C1391 H1407 0.961 . S
C1392 C1393 1.370 . S
C1392 C1394 1.363 . S
C1392 H1408 0.939 . S
C1393 C1392 1.370 . S
C1393 C1397 1.408 . S
C1394 C1392 1.363 . S
C1394 C1395 1.370 . S
C1394 C1398 1.524 . S
C1395 C1387 1.503 . S
C1395 C1394 1.370 . S
C1395 C1396 1.403 . S
C1396 C1395 1.403 . S
C1396 C1397 1.404 . S
C1396 C1399 1.539 . S
C1397 C1393 1.408 . S
C1397 C1396 1.404 . S
C1397 H1409 0.930 . S
C1398 C1394 1.524 . S
C1398 H1410 0.950 1_556 S
C1398 H1411 0.961 . S
C1398 H1412 0.961 . S
C1399 C1396 1.539 . S
C1399 H1413 0.958 . S
C1399 H1414 0.961 . S
C1399 H1415 0.960 . S
H1400 C1384 0.931 . S
H1401 C1389 0.929 . S
H1402 C1390 0.960 . S
H1403 C1390 0.962 . S
H1404 C1390 0.960 . S
H1405 C1391 0.961 . S
H1406 C1391 0.961 . S
H1407 C1391 0.961 . S
H1408 C1392 0.939 . S
H1409 C1397 0.930 . S
H1410 C1398 0.950 1_554 S
H1411 C1398 0.961 . S
H1412 C1398 0.961 . S
H1413 C1399 0.958 . S
H1414 C1399 0.961 . S
H1415 C1399 0.960 . S
C1416 C1417 1.391 . S
C1416 C1418 1.394 . S
C1416 H1432 0.931 . S
C1417 C1416 1.391 . S
C1417 C1421 1.376 . S
C1418 C1416 1.394 . S
C1418 C1419 1.369 . S
C1418 C1422 1.531 . S
C1419 C1418 1.369 . S
C1419 C1420 1.410 . S
C1419 C1427 1.503 . S
C1420 C1419 1.410 . S
C1420 C1421 1.392 . S
C1420 C1423 1.511 . S
C1421 C1417 1.376 . S
C1421 C1420 1.392 . S
C1421 H1433 0.929 . S
C1422 C1418 1.531 . S
C1422 H1434 0.960 . S
C1422 H1435 0.962 . S
C1422 H1436 0.960 . S
C1423 C1420 1.511 . S
C1423 H1437 0.961 . S
C1423 H1438 0.961 . S
C1423 H1439 0.961 . S
C1424 C1425 1.370 . S
C1424 C1426 1.363 . S
C1424 H1440 0.931 . S
C1425 C1424 1.370 . S
C1425 C1429 1.408 . S
C1426 C1424 1.363 . S
C1426 C1427 1.370 . S
C1426 C1430 1.524 . S
C1427 C1419 1.503 . S
C1427 C1426 1.370 . S
C1427 C1428 1.403 . S
C1428 C1427 1.403 . S
C1428 C1429 1.404 . S
C1428 C1431 1.539 . S
C1429 C1425 1.408 . S
C1429 C1428 1.404 . S
C1429 H1441 0.930 . S
C1430 C1426 1.524 . S
C1430 H1442 0.956 . S
C1430 H1443 0.961 . S
C1430 H1444 0.961 . S
C1431 C1428 1.539 . S
C1431 H1445 0.958 . S
C1431 H1446 0.961 . S
C1431 H1447 0.960 . S
H1432 C1416 0.931 . S
H1433 C1421 0.929 . S
H1434 C1422 0.960 . S
H1435 C1422 0.962 . S
H1436 C1422 0.960 . S
H1437 C1423 0.961 . S
H1438 C1423 0.961 . S
H1439 C1423 0.961 . S
H1440 C1424 0.931 . S
H1441 C1429 0.930 . S
H1442 C1430 0.956 . S
H1443 C1430 0.961 . S
H1444 C1430 0.961 . S
H1445 C1431 0.958 . S
H1446 C1431 0.961 . S
H1447 C1431 0.960 . S
C1448 C1449 1.391 . S
C1448 C1450 1.394 . S
C1448 H1464 0.931 . S
C1449 C1448 1.391 . S
C1449 C1453 1.376 . S
C1450 C1448 1.394 . S
C1450 C1451 1.369 . S
C1450 C1454 1.531 . S
C1451 C1450 1.369 . S
C1451 C1452 1.410 . S
C1451 C1459 1.503 . S
C1452 C1451 1.410 . S
C1452 C1453 1.392 . S
C1452 C1455 1.511 . S
C1453 C1449 1.376 . S
C1453 C1452 1.392 . S
C1453 H1465 0.929 . S
C1454 C1450 1.531 . S
C1454 H1466 0.960 . S
C1454 H1467 0.962 . S
C1454 H1468 0.960 . S
C1455 C1452 1.511 . S
C1455 H1469 0.961 . S
C1455 H1470 0.961 . S
C1455 H1471 0.961 . S
C1456 C1457 1.370 . S
C1456 C1458 1.363 . S
C1456 H1472 0.931 . S
C1457 C1456 1.370 . S
C1457 C1461 1.408 . S
C1458 C1456 1.363 . S
C1458 C1459 1.370 . S
C1458 C1462 1.524 . S
C1459 C1451 1.503 . S
C1459 C1458 1.370 . S
C1459 C1460 1.403 . S
C1460 C1459 1.403 . S
C1460 C1461 1.404 . S
C1460 C1463 1.539 . S
C1461 C1457 1.408 . S
C1461 C1460 1.404 . S
C1461 H1473 0.930 . S
C1462 C1458 1.524 . S
C1462 H1474 0.956 . S
C1462 H1475 0.961 . S
C1462 H1476 0.961 . S
C1463 C1460 1.539 . S
C1463 H1477 0.958 . S
C1463 H1478 0.961 . S
C1463 H1479 0.960 . S
H1464 C1448 0.931 . S
H1465 C1453 0.929 . S
H1466 C1454 0.960 . S
H1467 C1454 0.962 . S
H1468 C1454 0.960 . S
H1469 C1455 0.961 . S
H1470 C1455 0.961 . S
H1471 C1455 0.961 . S
H1472 C1456 0.931 . S
H1473 C1461 0.930 . S
H1474 C1462 0.956 . S
H1475 C1462 0.961 . S
H1476 C1462 0.961 . S
H1477 C1463 0.958 . S
H1478 C1463 0.961 . S
H1479 C1463 0.960 . S
C1480 C1481 1.391 . S
C1480 C1482 1.394 . S
C1480 H1496 0.931 . S
C1481 C1480 1.391 . S
C1481 C1485 1.376 . S
C1482 C1480 1.394 . S
C1482 C1483 1.369 . S
C1482 C1486 1.531 . S
C1483 C1482 1.369 . S
C1483 C1484 1.410 . S
C1483 C1491 1.503 . S
C1484 C1483 1.410 . S
C1484 C1485 1.392 . S
C1484 C1487 1.511 . S
C1485 C1481 1.376 . S
C1485 C1484 1.392 . S
C1485 H1497 0.929 . S
C1486 C1482 1.531 . S
C1486 H1498 0.960 . S
C1486 H1499 0.962 . S
C1486 H1500 0.960 . S
C1487 C1484 1.511 . S
C1487 H1501 0.961 . S
C1487 H1502 0.961 . S
C1487 H1503 0.961 . S
C1488 C1489 1.370 . S
C1488 C1490 1.363 . S
C1488 H1504 0.931 . S
C1489 C1488 1.370 . S
C1489 C1493 1.408 . S
C1490 C1488 1.363 . S
C1490 C1491 1.370 . S
C1490 C1494 1.524 . S
C1491 C1483 1.503 . S
C1491 C1490 1.370 . S
C1491 C1492 1.403 . S
C1492 C1491 1.403 . S
C1492 C1493 1.404 . S
C1492 C1495 1.539 . S
C1493 C1489 1.408 . S
C1493 C1492 1.404 . S
C1493 H1505 0.930 . S
C1494 C1490 1.524 . S
C1494 H1506 0.956 . S
C1494 H1507 0.961 . S
C1494 H1508 0.961 . S
C1495 C1492 1.539 . S
C1495 H1509 0.958 . S
C1495 H1510 0.961 . S
C1495 H1511 0.960 . S
H1496 C1480 0.931 . S
H1497 C1485 0.929 . S
H1498 C1486 0.960 . S
H1499 C1486 0.962 . S
H1500 C1486 0.960 . S
H1501 C1487 0.961 . S
H1502 C1487 0.961 . S
H1503 C1487 0.961 . S
H1504 C1488 0.931 . S
H1505 C1493 0.930 . S
H1506 C1494 0.956 . S
H1507 C1494 0.961 . S
H1508 C1494 0.961 . S
H1509 C1495 0.958 . S
H1510 C1495 0.961 . S
H1511 C1495 0.960 . S
C1512 C1513 1.391 . S
C1512 C1514 1.394 . S
C1512 H1528 0.931 . S
C1513 C1512 1.391 . S
C1513 C1517 1.376 . S
C1514 C1512 1.394 . S
C1514 C1515 1.369 . S
C1514 C1518 1.531 . S
C1515 C1514 1.369 . S
C1515 C1516 1.410 . S
C1515 C1523 1.503 . S
C1516 C1515 1.410 . S
C1516 C1517 1.392 . S
C1516 C1519 1.511 . S
C1517 C1513 1.376 . S
C1517 C1516 1.392 . S
C1517 H1529 0.929 . S
C1518 C1514 1.531 . S
C1518 H1530 0.960 . S
C1518 H1531 0.962 . S
C1518 H1532 0.960 . S
C1519 C1516 1.511 . S
C1519 H1533 0.961 . S
C1519 H1534 0.961 . S
C1519 H1535 0.961 . S
C1520 C1521 1.370 . S
C1520 C1522 1.363 . S
C1520 H1536 0.931 . S
C1521 C1520 1.370 . S
C1521 C1525 1.408 . S
C1522 C1520 1.363 . S
C1522 C1523 1.370 . S
C1522 C1526 1.524 . S
C1523 C1515 1.503 . S
C1523 C1522 1.370 . S
C1523 C1524 1.403 . S
C1524 C1523 1.403 . S
C1524 C1525 1.404 . S
C1524 C1527 1.539 . S
C1525 C1521 1.408 . S
C1525 C1524 1.404 . S
C1525 H1537 0.930 . S
C1526 C1522 1.524 . S
C1526 H1538 0.956 . S
C1526 H1539 0.961 . S
C1526 H1540 0.961 . S
C1527 C1524 1.539 . S
C1527 H1541 0.958 . S
C1527 H1542 0.961 . S
C1527 H1543 0.960 . S
H1528 C1512 0.931 . S
H1529 C1517 0.929 . S
H1530 C1518 0.960 . S
H1531 C1518 0.962 . S
H1532 C1518 0.960 . S
H1533 C1519 0.961 . S
H1534 C1519 0.961 . S
H1535 C1519 0.961 . S
H1536 C1520 0.931 . S
H1537 C1525 0.930 . S
H1538 C1526 0.956 . S
H1539 C1526 0.961 . S
H1540 C1526 0.961 . S
H1541 C1527 0.958 . S
H1542 C1527 0.961 . S
H1543 C1527 0.960 . S
C1544 C1545 1.391 . S
C1544 C1546 1.394 . S
C1544 H1560 0.931 . S
C1545 C1544 1.391 . S
C1545 C1549 1.376 . S
C1546 C1544 1.394 . S
C1546 C1547 1.369 . S
C1546 C1550 1.531 . S
C1547 C1546 1.369 . S
C1547 C1548 1.410 . S
C1547 C1555 1.503 . S
C1548 C1547 1.410 . S
C1548 C1549 1.392 . S
C1548 C1551 1.511 . S
C1549 C1545 1.376 . S
C1549 C1548 1.392 . S
C1549 H1561 0.929 . S
C1550 C1546 1.531 . S
C1550 H1562 0.960 . S
C1550 H1563 0.962 . S
C1550 H1564 0.960 . S
C1551 C1548 1.511 . S
C1551 H1565 0.961 . S
C1551 H1566 0.961 . S
C1551 H1567 0.961 . S
C1552 C1553 1.370 . S
C1552 C1554 1.363 . S
C1552 H1568 0.931 . S
C1553 C1552 1.370 . S
C1553 C1557 1.408 . S
C1554 C1552 1.363 . S
C1554 C1555 1.370 . S
C1554 C1558 1.524 . S
C1555 C1547 1.503 . S
C1555 C1554 1.370 . S
C1555 C1556 1.403 . S
C1556 C1555 1.403 . S
C1556 C1557 1.404 . S
C1556 C1559 1.539 . S
C1557 C1553 1.408 . S
C1557 C1556 1.404 . S
C1557 H1569 0.930 . S
C1558 C1554 1.524 . S
C1558 H1570 0.956 . S
C1558 H1571 0.961 . S
C1558 H1572 0.961 . S
C1559 C1556 1.539 . S
C1559 H1573 0.958 . S
C1559 H1574 0.961 . S
C1559 H1575 0.960 . S
H1560 C1544 0.931 . S
H1561 C1549 0.929 . S
H1562 C1550 0.960 . S
H1563 C1550 0.962 . S
H1564 C1550 0.960 . S
H1565 C1551 0.961 . S
H1566 C1551 0.961 . S
H1567 C1551 0.961 . S
H1568 C1552 0.931 . S
H1569 C1557 0.930 . S
H1570 C1558 0.956 . S
H1571 C1558 0.961 . S
H1572 C1558 0.961 . S
H1573 C1559 0.958 . S
H1574 C1559 0.961 . S
H1575 C1559 0.960 . S
C1576 C1577 1.391 . S
C1576 C1578 1.394 . S
C1576 H1592 0.931 . S
C1577 C1576 1.391 . S
C1577 C1581 1.376 . S
C1578 C1576 1.394 . S
C1578 C1579 1.369 . S
C1578 C1582 1.531 . S
C1579 C1578 1.369 . S
C1579 C1580 1.410 . S
C1579 C1587 1.503 . S
C1580 C1579 1.410 . S
C1580 C1581 1.392 . S
C1580 C1583 1.511 . S
C1581 C1577 1.376 . S
C1581 C1580 1.392 . S
C1581 H1593 0.929 . S
C1582 C1578 1.531 . S
C1582 H1594 0.960 . S
C1582 H1595 0.962 . S
C1582 H1596 0.960 . S
C1583 C1580 1.511 . S
C1583 H1597 0.961 . S
C1583 H1598 0.961 . S
C1583 H1599 0.961 . S
C1584 C1585 1.370 . S
C1584 C1586 1.363 . S
C1584 H1600 0.931 . S
C1585 C1584 1.370 . S
C1585 C1589 1.408 . S
C1586 C1584 1.363 . S
C1586 C1587 1.370 . S
C1586 C1590 1.524 . S
C1587 C1579 1.503 . S
C1587 C1586 1.370 . S
C1587 C1588 1.403 . S
C1588 C1587 1.403 . S
C1588 C1589 1.404 . S
C1588 C1591 1.539 . S
C1589 C1585 1.408 . S
C1589 C1588 1.404 . S
C1589 H1601 0.930 . S
C1590 C1586 1.524 . S
C1590 H1602 0.956 . S
C1590 H1603 0.961 . S
C1590 H1604 0.961 . S
C1591 C1588 1.539 . S
C1591 H1605 0.958 . S
C1591 H1606 0.961 . S
C1591 H1607 0.960 . S
H1592 C1576 0.931 . S
H1593 C1581 0.929 . S
H1594 C1582 0.960 . S
H1595 C1582 0.962 . S
H1596 C1582 0.960 . S
H1597 C1583 0.961 . S
H1598 C1583 0.961 . S
H1599 C1583 0.961 . S
H1600 C1584 0.931 . S
H1601 C1589 0.930 . S
H1602 C1590 0.956 . S
H1603 C1590 0.961 . S
H1604 C1590 0.961 . S
H1605 C1591 0.958 . S
H1606 C1591 0.961 . S
H1607 C1591 0.960 . S
C1608 C1609 1.391 . S
C1608 C1610 1.394 . S
C1608 H1624 0.931 . S
C1609 C1608 1.391 . S
C1609 C1613 1.376 . S
C1610 C1608 1.394 . S
C1610 C1611 1.369 . S
C1610 C1614 1.531 . S
C1611 C1610 1.369 . S
C1611 C1612 1.410 . S
C1611 C1619 1.503 . S
C1612 C1611 1.410 . S
C1612 C1613 1.392 . S
C1612 C1615 1.511 . S
C1613 C1609 1.376 . S
C1613 C1612 1.392 . S
C1613 H1625 0.929 . S
C1614 C1610 1.531 . S
C1614 H1626 0.960 . S
C1614 H1627 0.962 . S
C1614 H1628 0.960 . S
C1615 C1612 1.511 . S
C1615 H1629 0.961 . S
C1615 H1630 0.961 . S
C1615 H1631 0.961 . S
C1616 C1617 1.370 . S
C1616 C1618 1.363 . S
C1616 H1632 0.931 1_545 S
C1617 C1616 1.370 . S
C1617 C1621 1.408 . S
C1618 C1616 1.363 . S
C1618 C1619 1.370 . S
C1618 C1622 1.524 1_545 S
C1619 C1611 1.503 . S
C1619 C1618 1.370 . S
C1619 C1620 1.403 . S
C1620 C1619 1.403 . S
C1620 C1621 1.404 . S
C1620 C1623 1.539 . S
C1621 C1617 1.408 . S
C1621 C1620 1.404 . S
C1621 H1633 0.930 . S
C1622 C1618 1.524 1_565 S
C1622 H1634 0.956 . S
C1622 H1635 0.961 . S
C1622 H1636 0.961 . S
C1623 C1620 1.539 . S
C1623 H1637 0.958 . S
C1623 H1638 0.961 . S
C1623 H1639 0.960 . S
H1624 C1608 0.931 . S
H1625 C1613 0.929 . S
H1626 C1614 0.960 . S
H1627 C1614 0.962 . S
H1628 C1614 0.960 . S
H1629 C1615 0.961 . S
H1630 C1615 0.961 . S
H1631 C1615 0.961 . S
H1632 C1616 0.931 1_565 S
H1633 C1621 0.930 . S
H1634 C1622 0.956 . S
H1635 C1622 0.961 . S
H1636 C1622 0.961 . S
H1637 C1623 0.958 . S
H1638 C1623 0.961 . S
H1639 C1623 0.960 . S
C1640 C1641 1.391 . S
C1640 C1642 1.394 . S
C1640 H1656 0.931 . S
C1641 C1640 1.391 . S
C1641 C1645 1.376 . S
C1642 C1640 1.394 . S
C1642 C1643 1.369 . S
C1642 C1646 1.531 . S
C1643 C1642 1.369 . S
C1643 C1644 1.410 . S
C1643 C1651 1.503 . S
C1644 C1643 1.410 . S
C1644 C1645 1.392 . S
C1644 C1647 1.511 . S
C1645 C1641 1.376 . S
C1645 C1644 1.392 . S
C1645 H1657 0.929 . S
C1646 C1642 1.531 . S
C1646 H1658 0.960 . S
C1646 H1659 0.962 . S
C1646 H1660 0.960 . S
C1647 C1644 1.511 . S
C1647 H1661 0.961 . S
C1647 H1662 0.961 . S
C1647 H1663 0.961 . S
C1648 C1649 1.370 . S
C1648 C1650 1.363 . S
C1648 H1664 0.931 . S
C1649 C1648 1.370 . S
C1649 C1653 1.408 . S
C1650 C1648 1.363 . S
C1650 C1651 1.370 . S
C1650 C1654 1.524 . S
C1651 C1643 1.503 . S
C1651 C1650 1.370 . S
C1651 C1652 1.403 . S
C1652 C1651 1.403 . S
C1652 C1653 1.404 . S
C1652 C1655 1.539 . S
C1653 C1649 1.408 . S
C1653 C1652 1.404 . S
C1653 H1665 0.930 . S
C1654 C1650 1.524 . S
C1654 H1666 0.956 . S
C1654 H1667 0.961 . S
C1654 H1668 0.961 . S
C1655 C1652 1.539 . S
C1655 H1669 0.958 . S
C1655 H1670 0.961 . S
C1655 H1671 0.960 . S
H1656 C1640 0.931 . S
H1657 C1645 0.929 . S
H1658 C1646 0.960 . S
H1659 C1646 0.962 . S
H1660 C1646 0.960 . S
H1661 C1647 0.961 . S
H1662 C1647 0.961 . S
H1663 C1647 0.961 . S
H1664 C1648 0.931 . S
H1665 C1653 0.930 . S
H1666 C1654 0.956 . S
H1667 C1654 0.961 . S
H1668 C1654 0.961 . S
H1669 C1655 0.958 . S
H1670 C1655 0.961 . S
H1671 C1655 0.960 . S
C1672 C1673 1.391 . S
C1672 C1674 1.394 . S
C1672 H1688 0.931 . S
C1673 C1672 1.391 . S
C1673 C1677 1.376 . S
C1674 C1672 1.394 . S
C1674 C1675 1.369 . S
C1674 C1678 1.531 . S
C1675 C1674 1.369 . S
C1675 C1676 1.410 . S
C1675 C1683 1.503 . S
C1676 C1675 1.410 . S
C1676 C1677 1.392 . S
C1676 C1679 1.511 . S
C1677 C1673 1.376 . S
C1677 C1676 1.392 . S
C1677 H1689 0.929 . S
C1678 C1674 1.531 . S
C1678 H1690 0.960 . S
C1678 H1691 0.962 . S
C1678 H1692 0.960 . S
C1679 C1676 1.511 . S
C1679 H1693 0.961 . S
C1679 H1694 0.961 . S
C1679 H1695 0.961 . S
C1680 C1681 1.370 . S
C1680 C1682 1.363 . S
C1680 H1696 0.931 . S
C1681 C1680 1.370 . S
C1681 C1685 1.408 . S
C1682 C1680 1.363 . S
C1682 C1683 1.370 . S
C1682 C1686 1.524 . S
C1683 C1675 1.503 . S
C1683 C1682 1.370 . S
C1683 C1684 1.403 . S
C1684 C1683 1.403 . S
C1684 C1685 1.404 . S
C1684 C1687 1.539 . S
C1685 C1681 1.408 . S
C1685 C1684 1.404 . S
C1685 H1697 0.930 . S
C1686 C1682 1.524 . S
C1686 H1698 0.956 . S
C1686 H1699 0.961 . S
C1686 H1700 0.961 . S
C1687 C1684 1.539 . S
C1687 H1701 0.958 . S
C1687 H1702 0.961 . S
C1687 H1703 0.960 . S
H1688 C1672 0.931 . S
H1689 C1677 0.929 . S
H1690 C1678 0.960 . S
H1691 C1678 0.962 . S
H1692 C1678 0.960 . S
H1693 C1679 0.961 . S
H1694 C1679 0.961 . S
H1695 C1679 0.961 . S
H1696 C1680 0.931 . S
H1697 C1685 0.930 . S
H1698 C1686 0.956 . S
H1699 C1686 0.961 . S
H1700 C1686 0.961 . S
H1701 C1687 0.958 . S
H1702 C1687 0.961 . S
H1703 C1687 0.960 . S
C1704 C1705 1.391 . S
C1704 C1706 1.394 . S
C1704 H1720 0.931 . S
C1705 C1704 1.391 . S
C1705 C1709 1.376 . S
C1706 C1704 1.394 . S
C1706 C1707 1.369 . S
C1706 C1710 1.531 . S
C1707 C1706 1.369 . S
C1707 C1708 1.410 . S
C1707 C1715 1.503 . S
C1708 C1707 1.410 . S
C1708 C1709 1.392 . S
C1708 C1711 1.511 . S
C1709 C1705 1.376 . S
C1709 C1708 1.392 . S
C1709 H1721 0.929 . S
C1710 C1706 1.531 . S
C1710 H1722 0.960 . S
C1710 H1723 0.962 . S
C1710 H1724 0.960 . S
C1711 C1708 1.511 . S
C1711 H1725 0.961 . S
C1711 H1726 0.961 . S
C1711 H1727 0.961 . S
C1712 C1713 1.370 . S
C1712 C1714 1.363 . S
C1712 H1728 0.931 . S
C1713 C1712 1.370 . S
C1713 C1717 1.408 . S
C1714 C1712 1.363 . S
C1714 C1715 1.370 . S
C1714 C1718 1.524 . S
C1715 C1707 1.503 . S
C1715 C1714 1.370 . S
C1715 C1716 1.403 . S
C1716 C1715 1.403 . S
C1716 C1717 1.404 . S
C1716 C1719 1.539 . S
C1717 C1713 1.408 . S
C1717 C1716 1.404 . S
C1717 H1729 0.930 . S
C1718 C1714 1.524 . S
C1718 H1730 0.956 . S
C1718 H1731 0.961 . S
C1718 H1732 0.961 . S
C1719 C1716 1.539 . S
C1719 H1733 0.958 . S
C1719 H1734 0.961 . S
C1719 H1735 0.960 . S
H1720 C1704 0.931 . S
H1721 C1709 0.929 . S
H1722 C1710 0.960 . S
H1723 C1710 0.962 . S
H1724 C1710 0.960 . S
H1725 C1711 0.961 . S
H1726 C1711 0.961 . S
H1727 C1711 0.961 . S
H1728 C1712 0.931 . S
H1729 C1717 0.930 . S
H1730 C1718 0.956 . S
H1731 C1718 0.961 . S
H1732 C1718 0.961 . S
H1733 C1719 0.958 . S
H1734 C1719 0.961 . S
H1735 C1719 0.960 . S
C1736 C1737 1.391 . S
C1736 C1738 1.394 . S
C1736 H1752 0.931 . S
C1737 C1736 1.391 . S
C1737 C1741 1.376 . S
C1738 C1736 1.394 . S
C1738 C1739 1.369 . S
C1738 C1742 1.531 . S
C1739 C1738 1.369 . S
C1739 C1740 1.410 . S
C1739 C1747 1.503 . S
C1740 C1739 1.410 . S
C1740 C1741 1.392 . S
C1740 C1743 1.511 . S
C1741 C1737 1.376 . S
C1741 C1740 1.392 . S
C1741 H1753 0.929 . S
C1742 C1738 1.531 . S
C1742 H1754 0.960 . S
C1742 H1755 0.962 . S
C1742 H1756 0.960 . S
C1743 C1740 1.511 . S
C1743 H1757 0.961 1_545 S
C1743 H1758 0.961 1_545 S
C1743 H1759 0.961 . S
C1744 C1745 1.393 . S
C1744 C1746 1.369 . S
C1744 H1760 0.902 1_545 S
C1745 C1744 1.393 . S
C1745 C1749 1.408 . S
C1746 C1744 1.369 . S
C1746 C1747 1.370 . S
C1746 C1750 1.524 1_545 S
C1747 C1739 1.503 . S
C1747 C1746 1.370 . S
C1747 C1748 1.403 . S
C1748 C1747 1.403 . S
C1748 C1749 1.404 . S
C1748 C1751 1.539 . S
C1749 C1745 1.408 . S
C1749 C1748 1.404 . S
C1749 H1761 0.930 . S
C1750 C1746 1.524 1_565 S
C1750 H1762 0.956 . S
C1750 H1763 0.961 . S
C1750 H1764 0.961 . S
C1751 C1748 1.539 . S
C1751 H1765 0.958 . S
C1751 H1766 0.961 . S
C1751 H1767 0.960 . S
H1752 C1736 0.931 . S
H1753 C1741 0.929 . S
H1754 C1742 0.960 . S
H1755 C1742 0.962 . S
H1756 C1742 0.960 . S
H1757 C1743 0.961 1_565 S
H1758 C1743 0.961 1_565 S
H1759 C1743 0.961 . S
H1760 C1744 0.902 1_565 S
H1761 C1749 0.930 . S
H1762 C1750 0.956 . S
H1763 C1750 0.961 . S
H1764 C1750 0.961 . S
H1765 C1751 0.958 . S
H1766 C1751 0.961 . S
H1767 C1751 0.960 . S
C1768 C1769 1.391 . S
C1768 C1770 1.394 . S
C1768 H1784 0.931 . S
C1769 C1768 1.391 . S
C1769 C1773 1.376 . S
C1770 C1768 1.394 . S
C1770 C1771 1.369 . S
C1770 C1774 1.531 . S
C1771 C1770 1.369 . S
C1771 C1772 1.410 . S
C1771 C1779 1.503 . S
C1772 C1771 1.410 . S
C1772 C1773 1.392 . S
C1772 C1775 1.511 . S
C1773 C1769 1.376 . S
C1773 C1772 1.392 . S
C1773 H1785 0.929 . S
C1774 C1770 1.531 . S
C1774 H1786 0.960 . S
C1774 H1787 0.962 . S
C1774 H1788 0.960 . S
C1775 C1772 1.511 . S
C1775 H1789 0.961 . S
C1775 H1790 0.961 . S
C1775 H1791 0.961 . S
C1776 C1777 1.370 . S
C1776 C1778 1.363 . S
C1776 H1792 0.931 . S
C1777 C1776 1.370 . S
C1777 C1781 1.408 . S
C1778 C1776 1.363 . S
C1778 C1779 1.370 . S
C1778 C1782 1.524 . S
C1779 C1771 1.503 . S
C1779 C1778 1.370 . S
C1779 C1780 1.403 . S
C1780 C1779 1.403 . S
C1780 C1781 1.404 . S
C1780 C1783 1.539 . S
C1781 C1777 1.408 . S
C1781 C1780 1.404 . S
C1781 H1793 0.930 . S
C1782 C1778 1.524 . S
C1782 H1794 0.956 . S
C1782 H1795 0.961 . S
C1782 H1796 0.961 . S
C1783 C1780 1.539 . S
C1783 H1797 0.958 . S
C1783 H1798 0.961 . S
C1783 H1799 0.960 . S
H1784 C1768 0.931 . S
H1785 C1773 0.929 . S
H1786 C1774 0.960 . S
H1787 C1774 0.962 . S
H1788 C1774 0.960 . S
H1789 C1775 0.961 . S
H1790 C1775 0.961 . S
H1791 C1775 0.961 . S
H1792 C1776 0.931 . S
H1793 C1781 0.930 . S
H1794 C1782 0.956 . S
H1795 C1782 0.961 . S
H1796 C1782 0.961 . S
H1797 C1783 0.958 . S
H1798 C1783 0.961 . S
H1799 C1783 0.960 . S
C1800 C1801 1.391 . S
C1800 C1802 1.394 . S
C1800 H1816 0.931 . S
C1801 C1800 1.391 . S
C1801 C1805 1.376 . S
C1802 C1800 1.394 . S
C1802 C1803 1.369 . S
C1802 C1806 1.531 . S
C1803 C1802 1.369 . S
C1803 C1804 1.410 . S
C1803 C1811 1.503 . S
C1804 C1803 1.410 . S
C1804 C1805 1.392 . S
C1804 C1807 1.511 . S
C1805 C1801 1.376 . S
C1805 C1804 1.392 . S
C1805 H1817 0.929 . S
C1806 C1802 1.531 . S
C1806 H1818 0.960 . S
C1806 H1819 0.962 . S
C1806 H1820 0.960 . S
C1807 C1804 1.511 . S
C1807 H1821 0.961 . S
C1807 H1822 0.961 . S
C1807 H1823 0.961 . S
C1808 C1809 1.370 . S
C1808 C1810 1.363 . S
C1808 H1824 0.931 . S
C1809 C1808 1.370 . S
C1809 C1813 1.408 . S
C1810 C1808 1.363 . S
C1810 C1811 1.370 . S
C1810 C1814 1.524 . S
C1811 C1803 1.503 . S
C1811 C1810 1.370 . S
C1811 C1812 1.403 . S
C1812 C1811 1.403 . S
C1812 C1813 1.404 . S
C1812 C1815 1.539 . S
C1813 C1809 1.408 . S
C1813 C1812 1.404 . S
C1813 H1825 0.930 . S
C1814 C1810 1.524 . S
C1814 H1826 0.956 . S
C1814 H1827 0.961 . S
C1814 H1828 0.961 . S
C1815 C1812 1.539 . S
C1815 H1829 0.958 . S
C1815 H1830 0.961 . S
C1815 H1831 0.960 . S
H1816 C1800 0.931 . S
H1817 C1805 0.929 . S
H1818 C1806 0.960 . S
H1819 C1806 0.962 . S
H1820 C1806 0.960 . S
H1821 C1807 0.961 . S
H1822 C1807 0.961 . S
H1823 C1807 0.961 . S
H1824 C1808 0.931 . S
H1825 C1813 0.930 . S
H1826 C1814 0.956 . S
H1827 C1814 0.961 . S
H1828 C1814 0.961 . S
H1829 C1815 0.958 . S
H1830 C1815 0.961 . S
H1831 C1815 0.960 . S
C1832 C1833 1.391 . S
C1832 C1834 1.394 . S
C1832 H1848 0.931 . S
C1833 C1832 1.391 . S
C1833 C1837 1.376 . S
C1834 C1832 1.394 . S
C1834 C1835 1.369 . S
C1834 C1838 1.531 . S
C1835 C1834 1.369 . S
C1835 C1836 1.410 . S
C1835 C1843 1.503 . S
C1836 C1835 1.410 . S
C1836 C1837 1.392 . S
C1836 C1839 1.511 . S
C1837 C1833 1.376 . S
C1837 C1836 1.392 . S
C1837 H1849 0.929 . S
C1838 C1834 1.531 . S
C1838 H1850 0.960 . S
C1838 H1851 0.962 . S
C1838 H1852 0.960 . S
C1839 C1836 1.511 . S
C1839 H1853 0.961 . S
C1839 H1854 0.961 . S
C1839 H1855 0.961 . S
C1840 C1841 1.370 . S
C1840 C1842 1.363 . S
C1840 H1856 0.931 . S
C1841 C1840 1.370 . S
C1841 C1845 1.408 . S
C1842 C1840 1.363 . S
C1842 C1843 1.370 . S
C1842 C1846 1.524 . S
C1843 C1835 1.503 . S
C1843 C1842 1.370 . S
C1843 C1844 1.403 . S
C1844 C1843 1.403 . S
C1844 C1845 1.404 . S
C1844 C1847 1.539 . S
C1845 C1841 1.408 . S
C1845 C1844 1.404 . S
C1845 H1857 0.930 . S
C1846 C1842 1.524 . S
C1846 H1858 0.956 . S
C1846 H1859 0.961 . S
C1846 H1860 0.961 . S
C1847 C1844 1.539 . S
C1847 H1861 0.958 . S
C1847 H1862 0.961 . S
C1847 H1863 0.960 . S
H1848 C1832 0.931 . S
H1849 C1837 0.929 . S
H1850 C1838 0.960 . S
H1851 C1838 0.962 . S
H1852 C1838 0.960 . S
H1853 C1839 0.961 . S
H1854 C1839 0.961 . S
H1855 C1839 0.961 . S
H1856 C1840 0.931 . S
H1857 C1845 0.930 . S
H1858 C1846 0.956 . S
H1859 C1846 0.961 . S
H1860 C1846 0.961 . S
H1861 C1847 0.958 . S
H1862 C1847 0.961 . S
H1863 C1847 0.960 . S
C1864 C1865 1.391 . S
C1864 C1866 1.394 . S
C1864 H1880 0.931 . S
C1865 C1864 1.391 . S
C1865 C1869 1.376 . S
C1866 C1864 1.394 . S
C1866 C1867 1.369 . S
C1866 C1870 1.531 . S
C1867 C1866 1.369 . S
C1867 C1868 1.410 . S
C1867 C1875 1.503 . S
C1868 C1867 1.410 . S
C1868 C1869 1.392 . S
C1868 C1871 1.511 1_655 S
C1869 C1865 1.376 . S
C1869 C1868 1.392 . S
C1869 H1881 0.929 . S
C1870 C1866 1.531 . S
C1870 H1882 0.960 . S
C1870 H1883 0.962 . S
C1870 H1884 0.960 . S
C1871 C1868 1.511 1_455 S
C1871 H1885 0.963 . S
C1871 H1886 0.961 1_455 S
C1871 H1887 0.961 . S
C1872 C1873 1.370 . S
C1872 C1874 1.363 . S
C1872 H1888 0.931 . S
C1873 C1872 1.370 . S
C1873 C1877 1.408 1_655 S
C1874 C1872 1.363 . S
C1874 C1875 1.370 . S
C1874 C1878 1.524 . S
C1875 C1867 1.503 . S
C1875 C1874 1.370 . S
C1875 C1876 1.436 . S
C1876 C1875 1.436 . S
C1876 C1877 1.395 1_655 S
C1876 C1879 1.513 1_655 S
C1877 C1873 1.408 1_455 S
C1877 C1876 1.395 1_455 S
C1877 H1889 0.930 . S
C1878 C1874 1.524 . S
C1878 H1890 0.956 . S
C1878 H1891 0.961 . S
C1878 H1892 0.961 . S
C1879 C1876 1.513 1_455 S
C1879 H1893 0.958 . S
C1879 H1894 0.961 . S
C1879 H1895 0.960 . S
H1880 C1864 0.931 . S
H1881 C1869 0.929 . S
H1882 C1870 0.960 . S
H1883 C1870 0.962 . S
H1884 C1870 0.960 . S
H1885 C1871 0.963 . S
H1886 C1871 0.961 1_655 S
H1887 C1871 0.961 . S
H1888 C1872 0.931 . S
H1889 C1877 0.930 . S
H1890 C1878 0.956 . S
H1891 C1878 0.961 . S
H1892 C1878 0.961 . S
H1893 C1879 0.958 . S
H1894 C1879 0.961 . S
H1895 C1879 0.960 . S
C1896 C1897 1.391 . S
C1896 C1898 1.394 . S
C1896 H1912 0.931 . S
C1897 C1896 1.391 . S
C1897 C1901 1.376 . S
C1898 C1896 1.394 . S
C1898 C1899 1.369 . S
C1898 C1902 1.531 . S
C1899 C1898 1.369 . S
C1899 C1900 1.410 . S
C1899 C1907 1.503 . S
C1900 C1899 1.410 . S
C1900 C1901 1.392 . S
C1900 C1903 1.511 . S
C1901 C1897 1.376 . S
C1901 C1900 1.392 . S
C1901 H1913 0.929 . S
C1902 C1898 1.531 . S
C1902 H1914 0.960 . S
C1902 H1915 0.962 . S
C1902 H1916 0.960 . S
C1903 C1900 1.511 . S
C1903 H1917 0.961 . S
C1903 H1918 0.961 . S
C1903 H1919 0.961 . S
C1904 C1905 1.370 . S
C1904 C1906 1.363 . S
C1904 H1920 0.931 . S
C1905 C1904 1.370 . S
C1905 C1909 1.408 . S
C1906 C1904 1.363 . S
C1906 C1907 1.370 . S
C1906 C1910 1.524 . S
C1907 C1899 1.503 . S
C1907 C1906 1.370 . S
C1907 C1908 1.403 . S
C1908 C1907 1.403 . S
C1908 C1909 1.404 . S
C1908 C1911 1.539 . S
C1909 C1905 1.408 . S
C1909 C1908 1.404 . S
C1909 H1921 0.930 . S
C1910 C1906 1.524 . S
C1910 H1922 0.956 . S
C1910 H1923 0.961 . S
C1910 H1924 0.961 . S
C1911 C1908 1.539 . S
C1911 H1925 0.958 . S
C1911 H1926 0.961 . S
C1911 H1927 0.960 . S
H1912 C1896 0.931 . S
H1913 C1901 0.929 . S
H1914 C1902 0.960 . S
H1915 C1902 0.962 . S
H1916 C1902 0.960 . S
H1917 C1903 0.961 . S
H1918 C1903 0.961 . S
H1919 C1903 0.961 . S
H1920 C1904 0.931 . S
H1921 C1909 0.930 . S
H1922 C1910 0.956 . S
H1923 C1910 0.961 . S
H1924 C1910 0.961 . S
H1925 C1911 0.958 . S
H1926 C1911 0.961 . S
H1927 C1911 0.960 . S
C1928 C1929 1.391 . S
C1928 C1930 1.394 . S
C1928 H1944 0.931 . S
C1929 C1928 1.391 . S
C1929 C1933 1.376 . S
C1930 C1928 1.394 . S
C1930 C1931 1.369 . S
C1930 C1934 1.531 . S
C1931 C1930 1.369 . S
C1931 C1932 1.410 . S
C1931 C1939 1.503 . S
C1932 C1931 1.410 . S
C1932 C1933 1.392 . S
C1932 C1935 1.511 . S
C1933 C1929 1.376 . S
C1933 C1932 1.392 . S
C1933 H1945 0.929 . S
C1934 C1930 1.531 . S
C1934 H1946 0.960 . S
C1934 H1947 0.962 . S
C1934 H1948 0.960 . S
C1935 C1932 1.511 . S
C1935 H1949 0.961 . S
C1935 H1950 0.961 . S
C1935 H1951 0.961 . S
C1936 C1937 1.371 1_655 S
C1936 C1938 1.363 1_655 S
C1936 H1952 0.930 . S
C1937 C1936 1.371 1_455 S
C1937 C1941 1.408 . S
C1938 C1936 1.363 1_455 S
C1938 C1939 1.370 . S
C1938 C1942 1.524 1_455 S
C1939 C1931 1.503 . S
C1939 C1938 1.370 . S
C1939 C1940 1.403 . S
C1940 C1939 1.403 . S
C1940 C1941 1.404 . S
C1940 C1943 1.539 . S
C1941 C1937 1.408 . S
C1941 C1940 1.404 . S
C1941 H1953 0.930 . S
C1942 C1938 1.524 1_655 S
C1942 H1954 0.956 . S
C1942 H1955 0.961 . S
C1942 H1956 0.961 . S
C1943 C1940 1.539 . S
C1943 H1957 0.958 . S
C1943 H1958 0.961 . S
C1943 H1959 0.960 . S
H1944 C1928 0.931 . S
H1945 C1933 0.929 . S
H1946 C1934 0.960 . S
H1947 C1934 0.962 . S
H1948 C1934 0.960 . S
H1949 C1935 0.961 . S
H1950 C1935 0.961 . S
H1951 C1935 0.961 . S
H1952 C1936 0.930 . S
H1953 C1941 0.930 . S
H1954 C1942 0.956 . S
H1955 C1942 0.961 . S
H1956 C1942 0.961 . S
H1957 C1943 0.958 . S
H1958 C1943 0.961 . S
H1959 C1943 0.960 . S
C1960 C1961 1.391 . S
C1960 C1962 1.394 . S
C1960 H1976 0.931 . S
C1961 C1960 1.391 . S
C1961 C1965 1.376 . S
C1962 C1960 1.394 . S
C1962 C1963 1.369 . S
C1962 C1966 1.531 . S
C1963 C1962 1.369 . S
C1963 C1964 1.410 . S
C1963 C1971 1.503 . S
C1964 C1963 1.410 . S
C1964 C1965 1.392 . S
C1964 C1967 1.511 . S
C1965 C1961 1.376 . S
C1965 C1964 1.392 . S
C1965 H1977 0.929 . S
C1966 C1962 1.531 . S
C1966 H1978 0.960 . S
C1966 H1979 0.962 . S
C1966 H1980 0.960 . S
C1967 C1964 1.511 . S
C1967 H1981 0.961 . S
C1967 H1982 0.961 . S
C1967 H1983 0.961 . S
C1968 C1969 1.370 . S
C1968 C1970 1.363 . S
C1968 H1984 0.931 . S
C1969 C1968 1.370 . S
C1969 C1973 1.408 . S
C1970 C1968 1.363 . S
C1970 C1971 1.370 . S
C1970 C1974 1.524 . S
C1971 C1963 1.503 . S
C1971 C1970 1.370 . S
C1971 C1972 1.403 . S
C1972 C1971 1.403 . S
C1972 C1973 1.404 . S
C1972 C1975 1.539 . S
C1973 C1969 1.408 . S
C1973 C1972 1.404 . S
C1973 H1985 0.930 . S
C1974 C1970 1.524 . S
C1974 H1986 0.956 . S
C1974 H1987 0.961 . S
C1974 H1988 0.961 . S
C1975 C1972 1.539 . S
C1975 H1989 0.958 . S
C1975 H1990 0.961 . S
C1975 H1991 0.960 . S
H1976 C1960 0.931 . S
H1977 C1965 0.929 . S
H1978 C1966 0.960 . S
H1979 C1966 0.962 . S
H1980 C1966 0.960 . S
H1981 C1967 0.961 . S
H1982 C1967 0.961 . S
H1983 C1967 0.961 . S
H1984 C1968 0.931 . S
H1985 C1973 0.930 . S
H1986 C1974 0.956 . S
H1987 C1974 0.961 . S
H1988 C1974 0.961 . S
H1989 C1975 0.958 . S
H1990 C1975 0.961 . S
H1991 C1975 0.960 . S
C1992 C1993 1.391 . S
C1992 C1994 1.394 . S
C1992 H2008 0.931 . S
C1993 C1992 1.391 . S
C1993 C1997 1.376 . S
C1994 C1992 1.394 . S
C1994 C1995 1.369 . S
C1994 C1998 1.531 . S
C1995 C1994 1.369 . S
C1995 C1996 1.410 . S
C1995 C2003 1.503 . S
C1996 C1995 1.410 . S
C1996 C1997 1.392 . S
C1996 C1999 1.511 . S
C1997 C1993 1.376 . S
C1997 C1996 1.392 . S
C1997 H2009 0.929 . S
C1998 C1994 1.531 . S
C1998 H2010 0.960 . S
C1998 H2011 0.962 . S
C1998 H2012 0.960 . S
C1999 C1996 1.511 . S
C1999 H2013 0.961 . S
C1999 H2014 0.961 . S
C1999 H2015 0.961 . S
C2000 C2001 1.370 . S
C2000 C2002 1.363 . S
C2000 H2016 0.931 . S
C2001 C2000 1.370 . S
C2001 C2005 1.408 . S
C2002 C2000 1.363 . S
C2002 C2003 1.370 . S
C2002 C2006 1.524 . S
C2003 C1995 1.503 . S
C2003 C2002 1.370 . S
C2003 C2004 1.403 . S
C2004 C2003 1.403 . S
C2004 C2005 1.404 . S
C2004 C2007 1.539 . S
C2005 C2001 1.408 . S
C2005 C2004 1.404 . S
C2005 H2017 0.930 . S
C2006 C2002 1.524 . S
C2006 H2018 0.956 . S
C2006 H2019 0.961 . S
C2006 H2020 0.961 . S
C2007 C2004 1.539 . S
C2007 H2021 0.958 . S
C2007 H2022 0.961 . S
C2007 H2023 0.960 . S
H2008 C1992 0.931 . S
H2009 C1997 0.929 . S
H2010 C1998 0.960 . S
H2011 C1998 0.962 . S
H2012 C1998 0.960 . S
H2013 C1999 0.961 . S
H2014 C1999 0.961 . S
H2015 C1999 0.961 . S
H2016 C2000 0.931 . S
H2017 C2005 0.930 . S
H2018 C2006 0.956 . S
H2019 C2006 0.961 . S
H2020 C2006 0.961 . S
H2021 C2007 0.958 . S
H2022 C2007 0.961 . S
H2023 C2007 0.960 . S
C2024 C2025 1.391 . S
C2024 C2026 1.394 . S
C2024 H2040 0.931 . S
C2025 C2024 1.391 . S
C2025 C2029 1.376 . S
C2026 C2024 1.394 . S
C2026 C2027 1.369 . S
C2026 C2030 1.531 . S
C2027 C2026 1.369 . S
C2027 C2028 1.410 . S
C2027 C2035 1.503 . S
C2028 C2027 1.410 . S
C2028 C2029 1.392 . S
C2028 C2031 1.511 . S
C2029 C2025 1.376 . S
C2029 C2028 1.392 . S
C2029 H2041 0.929 . S
C2030 C2026 1.531 . S
C2030 H2042 0.960 . S
C2030 H2043 0.962 . S
C2030 H2044 0.960 . S
C2031 C2028 1.511 . S
C2031 H2045 0.961 . S
C2031 H2046 0.961 . S
C2031 H2047 0.961 . S
C2032 C2033 1.370 . S
C2032 C2034 1.363 . S
C2032 H2048 0.931 . S
C2033 C2032 1.370 . S
C2033 C2037 1.408 . S
C2034 C2032 1.363 . S
C2034 C2035 1.370 . S
C2034 C2038 1.524 . S
C2035 C2027 1.503 . S
C2035 C2034 1.370 . S
C2035 C2036 1.403 . S
C2036 C2035 1.403 . S
C2036 C2037 1.404 . S
C2036 C2039 1.539 . S
C2037 C2033 1.408 . S
C2037 C2036 1.404 . S
C2037 H2049 0.930 . S
C2038 C2034 1.524 . S
C2038 H2050 0.956 . S
C2038 H2051 0.961 . S
C2038 H2052 0.961 . S
C2039 C2036 1.539 . S
C2039 H2053 0.958 . S
C2039 H2054 0.961 . S
C2039 H2055 0.960 . S
H2040 C2024 0.931 . S
H2041 C2029 0.929 . S
H2042 C2030 0.960 . S
H2043 C2030 0.962 . S
H2044 C2030 0.960 . S
H2045 C2031 0.961 . S
H2046 C2031 0.961 . S
H2047 C2031 0.961 . S
H2048 C2032 0.931 . S
H2049 C2037 0.930 . S
H2050 C2038 0.956 . S
H2051 C2038 0.961 . S
H2052 C2038 0.961 . S
H2053 C2039 0.958 . S
H2054 C2039 0.961 . S
H2055 C2039 0.960 . S
C2056 C2057 1.391 . S
C2056 C2058 1.394 . S
C2056 H2072 0.931 . S
C2057 C2056 1.391 . S
C2057 C2061 1.376 . S
C2058 C2056 1.394 . S
C2058 C2059 1.369 . S
C2058 C2062 1.531 . S
C2059 C2058 1.369 . S
C2059 C2060 1.410 . S
C2059 C2067 1.503 . S
C2060 C2059 1.410 . S
C2060 C2061 1.392 . S
C2060 C2063 1.511 . S
C2061 C2057 1.376 . S
C2061 C2060 1.392 . S
C2061 H2073 0.929 . S
C2062 C2058 1.531 . S
C2062 H2074 0.960 . S
C2062 H2075 0.962 . S
C2062 H2076 0.960 . S
C2063 C2060 1.511 . S
C2063 H2077 0.961 . S
C2063 H2078 0.961 . S
C2063 H2079 0.961 . S
C2064 C2065 1.370 . S
C2064 C2066 1.363 . S
C2064 H2080 0.931 . S
C2065 C2064 1.370 . S
C2065 C2069 1.408 . S
C2066 C2064 1.363 . S
C2066 C2067 1.370 . S
C2066 C2070 1.524 . S
C2067 C2059 1.503 . S
C2067 C2066 1.370 . S
C2067 C2068 1.403 . S
C2068 C2067 1.403 . S
C2068 C2069 1.404 . S
C2068 C2071 1.539 . S
C2069 C2065 1.408 . S
C2069 C2068 1.404 . S
C2069 H2081 0.930 . S
C2070 C2066 1.524 . S
C2070 H2082 0.956 . S
C2070 H2083 0.961 . S
C2070 H2084 0.961 . S
C2071 C2068 1.539 . S
C2071 H2085 0.958 . S
C2071 H2086 0.961 . S
C2071 H2087 0.960 . S
H2072 C2056 0.931 . S
H2073 C2061 0.929 . S
H2074 C2062 0.960 . S
H2075 C2062 0.962 . S
H2076 C2062 0.960 . S
H2077 C2063 0.961 . S
H2078 C2063 0.961 . S
H2079 C2063 0.961 . S
H2080 C2064 0.931 . S
H2081 C2069 0.930 . S
H2082 C2070 0.956 . S
H2083 C2070 0.961 . S
H2084 C2070 0.961 . S
H2085 C2071 0.958 . S
H2086 C2071 0.961 . S
H2087 C2071 0.960 . S
C2088 C2089 1.391 . S
C2088 C2090 1.394 . S
C2088 H2104 0.931 . S
C2089 C2088 1.391 . S
C2089 C2093 1.376 . S
C2090 C2088 1.394 . S
C2090 C2091 1.369 . S
C2090 C2094 1.531 . S
C2091 C2090 1.369 . S
C2091 C2092 1.410 . S
C2091 C2099 1.503 . S
C2092 C2091 1.410 . S
C2092 C2093 1.392 . S
C2092 C2095 1.511 . S
C2093 C2089 1.376 . S
C2093 C2092 1.392 . S
C2093 H2105 0.929 . S
C2094 C2090 1.531 . S
C2094 H2106 0.960 . S
C2094 H2107 0.962 . S
C2094 H2108 0.960 . S
C2095 C2092 1.511 . S
C2095 H2109 0.961 . S
C2095 H2110 0.961 . S
C2095 H2111 0.961 . S
C2096 C2097 1.370 . S
C2096 C2098 1.363 . S
C2096 H2112 0.931 . S
C2097 C2096 1.370 . S
C2097 C2101 1.408 . S
C2098 C2096 1.363 . S
C2098 C2099 1.370 . S
C2098 C2102 1.524 . S
C2099 C2091 1.503 . S
C2099 C2098 1.370 . S
C2099 C2100 1.403 . S
C2100 C2099 1.403 . S
C2100 C2101 1.404 . S
C2100 C2103 1.539 . S
C2101 C2097 1.408 . S
C2101 C2100 1.404 . S
C2101 H2113 0.930 . S
C2102 C2098 1.524 . S
C2102 H2114 0.956 . S
C2102 H2115 0.961 . S
C2102 H2116 0.961 . S
C2103 C2100 1.539 . S
C2103 H2117 0.958 . S
C2103 H2118 0.961 . S
C2103 H2119 0.960 . S
H2104 C2088 0.931 . S
H2105 C2093 0.929 . S
H2106 C2094 0.960 . S
H2107 C2094 0.962 . S
H2108 C2094 0.960 . S
H2109 C2095 0.961 . S
H2110 C2095 0.961 . S
H2111 C2095 0.961 . S
H2112 C2096 0.931 . S
H2113 C2101 0.930 . S
H2114 C2102 0.956 . S
H2115 C2102 0.961 . S
H2116 C2102 0.961 . S
H2117 C2103 0.958 . S
H2118 C2103 0.961 . S
H2119 C2103 0.960 . S
C2120 C2121 1.391 . S
C2120 C2122 1.394 . S
C2120 H2136 0.931 . S
C2121 C2120 1.391 . S
C2121 C2125 1.376 . S
C2122 C2120 1.394 . S
C2122 C2123 1.369 . S
C2122 C2126 1.531 . S
C2123 C2122 1.369 . S
C2123 C2124 1.410 . S
C2123 C2131 1.503 . S
C2124 C2123 1.410 . S
C2124 C2125 1.392 . S
C2124 C2127 1.511 . S
C2125 C2121 1.376 . S
C2125 C2124 1.392 . S
C2125 H2137 0.929 . S
C2126 C2122 1.531 . S
C2126 H2138 0.960 . S
C2126 H2139 0.962 . S
C2126 H2140 0.960 . S
C2127 C2124 1.511 . S
C2127 H2141 0.961 . S
C2127 H2142 0.961 . S
C2127 H2143 0.961 . S
C2128 C2129 1.370 . S
C2128 C2130 1.363 . S
C2128 H2144 0.931 . S
C2129 C2128 1.370 . S
C2129 C2133 1.408 . S
C2130 C2128 1.363 . S
C2130 C2131 1.370 . S
C2130 C2134 1.524 . S
C2131 C2123 1.503 . S
C2131 C2130 1.370 . S
C2131 C2132 1.403 . S
C2132 C2131 1.403 . S
C2132 C2133 1.404 . S
C2132 C2135 1.539 . S
C2133 C2129 1.408 . S
C2133 C2132 1.404 . S
C2133 H2145 0.930 . S
C2134 C2130 1.524 . S
C2134 H2146 0.956 . S
C2134 H2147 0.961 . S
C2134 H2148 0.961 . S
C2135 C2132 1.539 . S
C2135 H2149 0.958 . S
C2135 H2150 0.961 . S
C2135 H2151 0.960 . S
H2136 C2120 0.931 . S
H2137 C2125 0.929 . S
H2138 C2126 0.960 . S
H2139 C2126 0.962 . S
H2140 C2126 0.960 . S
H2141 C2127 0.961 . S
H2142 C2127 0.961 . S
H2143 C2127 0.961 . S
H2144 C2128 0.931 . S
H2145 C2133 0.930 . S
H2146 C2134 0.956 . S
H2147 C2134 0.961 . S
H2148 C2134 0.961 . S
H2149 C2135 0.958 . S
H2150 C2135 0.961 . S
H2151 C2135 0.960 . S
C2152 C2153 1.391 . S
C2152 C2154 1.394 . S
C2152 H2168 0.931 . S
C2153 C2152 1.391 . S
C2153 C2157 1.376 . S
C2154 C2152 1.394 . S
C2154 C2155 1.369 . S
C2154 C2158 1.531 . S
C2155 C2154 1.369 . S
C2155 C2156 1.410 . S
C2155 C2163 1.503 . S
C2156 C2155 1.410 . S
C2156 C2157 1.392 . S
C2156 C2159 1.511 . S
C2157 C2153 1.376 . S
C2157 C2156 1.392 . S
C2157 H2169 0.929 . S
C2158 C2154 1.531 . S
C2158 H2170 0.960 . S
C2158 H2171 0.962 . S
C2158 H2172 0.960 . S
C2159 C2156 1.511 . S
C2159 H2173 0.961 . S
C2159 H2174 0.961 . S
C2159 H2175 0.961 . S
C2160 C2161 1.370 . S
C2160 C2162 1.363 . S
C2160 H2176 0.931 . S
C2161 C2160 1.370 . S
C2161 C2165 1.408 . S
C2162 C2160 1.363 . S
C2162 C2163 1.370 . S
C2162 C2166 1.524 . S
C2163 C2155 1.503 . S
C2163 C2162 1.370 . S
C2163 C2164 1.403 . S
C2164 C2163 1.403 . S
C2164 C2165 1.404 . S
C2164 C2167 1.539 . S
C2165 C2161 1.408 . S
C2165 C2164 1.404 . S
C2165 H2177 0.930 . S
C2166 C2162 1.524 . S
C2166 H2178 0.956 . S
C2166 H2179 0.961 . S
C2166 H2180 0.961 . S
C2167 C2164 1.539 . S
C2167 H2181 0.958 . S
C2167 H2182 0.961 . S
C2167 H2183 0.960 . S
H2168 C2152 0.931 . S
H2169 C2157 0.929 . S
H2170 C2158 0.960 . S
H2171 C2158 0.962 . S
H2172 C2158 0.960 . S
H2173 C2159 0.961 . S
H2174 C2159 0.961 . S
H2175 C2159 0.961 . S
H2176 C2160 0.931 . S
H2177 C2165 0.930 . S
H2178 C2166 0.956 . S
H2179 C2166 0.961 . S
H2180 C2166 0.961 . S
H2181 C2167 0.958 . S
H2182 C2167 0.961 . S
H2183 C2167 0.960 . S
C2184 C2185 1.391 . S
C2184 C2186 1.394 . S
C2184 H2200 0.931 . S
C2185 C2184 1.391 . S
C2185 C2189 1.376 . S
C2186 C2184 1.394 . S
C2186 C2187 1.369 . S
C2186 C2190 1.531 . S
C2187 C2186 1.369 . S
C2187 C2188 1.410 . S
C2187 C2195 1.503 . S
C2188 C2187 1.410 . S
C2188 C2189 1.392 . S
C2188 C2191 1.511 . S
C2189 C2185 1.376 . S
C2189 C2188 1.392 . S
C2189 H2201 0.929 . S
C2190 C2186 1.531 . S
C2190 H2202 0.960 . S
C2190 H2203 0.962 . S
C2190 H2204 0.960 . S
C2191 C2188 1.511 . S
C2191 H2205 0.961 . S
C2191 H2206 0.961 . S
C2191 H2207 0.961 . S
C2192 C2193 1.370 . S
C2192 C2194 1.363 . S
C2192 H2208 0.931 . S
C2193 C2192 1.370 . S
C2193 C2197 1.408 . S
C2194 C2192 1.363 . S
C2194 C2195 1.370 . S
C2194 C2198 1.524 . S
C2195 C2187 1.503 . S
C2195 C2194 1.370 . S
C2195 C2196 1.403 . S
C2196 C2195 1.403 . S
C2196 C2197 1.404 . S
C2196 C2199 1.539 . S
C2197 C2193 1.408 . S
C2197 C2196 1.404 . S
C2197 H2209 0.930 . S
C2198 C2194 1.524 . S
C2198 H2210 0.956 . S
C2198 H2211 0.961 . S
C2198 H2212 0.961 . S
C2199 C2196 1.539 . S
C2199 H2213 0.958 . S
C2199 H2214 0.961 . S
C2199 H2215 0.960 . S
H2200 C2184 0.931 . S
H2201 C2189 0.929 . S
H2202 C2190 0.960 . S
H2203 C2190 0.962 . S
H2204 C2190 0.960 . S
H2205 C2191 0.961 . S
H2206 C2191 0.961 . S
H2207 C2191 0.961 . S
H2208 C2192 0.931 . S
H2209 C2197 0.930 . S
H2210 C2198 0.956 . S
H2211 C2198 0.961 . S
H2212 C2198 0.961 . S
H2213 C2199 0.958 . S
H2214 C2199 0.961 . S
H2215 C2199 0.960 . S
C2216 C2217 1.391 . S
C2216 C2218 1.394 . S
C2216 H2232 0.931 . S
C2217 C2216 1.391 . S
C2217 C2221 1.376 . S
C2218 C2216 1.394 . S
C2218 C2219 1.369 . S
C2218 C2222 1.531 . S
C2219 C2218 1.369 . S
C2219 C2220 1.410 . S
C2219 C2227 1.503 . S
C2220 C2219 1.410 . S
C2220 C2221 1.392 . S
C2220 C2223 1.511 . S
C2221 C2217 1.376 . S
C2221 C2220 1.392 . S
C2221 H2233 0.929 . S
C2222 C2218 1.531 . S
C2222 H2234 0.960 . S
C2222 H2235 0.962 . S
C2222 H2236 0.960 . S
C2223 C2220 1.511 . S
C2223 H2237 0.923 1_556 S
C2223 H2238 0.986 . S
C2223 H2239 0.961 . S
C2224 C2225 1.370 1_554 S
C2224 C2226 1.363 1_554 S
C2224 H2240 0.931 . S
C2225 C2224 1.370 1_556 S
C2225 C2229 1.408 . S
C2226 C2224 1.363 1_556 S
C2226 C2227 1.370 . S
C2226 C2230 1.524 1_556 S
C2227 C2219 1.503 . S
C2227 C2226 1.370 . S
C2227 C2228 1.403 . S
C2228 C2227 1.403 . S
C2228 C2229 1.404 . S
C2228 C2231 1.539 . S
C2229 C2225 1.408 . S
C2229 C2228 1.404 . S
C2229 H2241 0.930 . S
C2230 C2226 1.524 1_554 S
C2230 H2242 0.956 . S
C2230 H2243 0.961 . S
C2230 H2244 0.961 . S
C2231 C2228 1.539 . S
C2231 H2245 0.958 . S
C2231 H2246 0.961 . S
C2231 H2247 0.960 . S
H2232 C2216 0.931 . S
H2233 C2221 0.929 . S
H2234 C2222 0.960 . S
H2235 C2222 0.962 . S
H2236 C2222 0.960 . S
H2237 C2223 0.923 1_554 S
H2238 C2223 0.986 . S
H2239 C2223 0.961 . S
H2240 C2224 0.931 . S
H2241 C2229 0.930 . S
H2242 C2230 0.956 . S
H2243 C2230 0.961 . S
H2244 C2230 0.961 . S
H2245 C2231 0.958 . S
H2246 C2231 0.961 . S
H2247 C2231 0.960 . S
C2248 C2249 1.391 . S
C2248 C2250 1.394 . S
C2248 H2264 0.931 . S
C2249 C2248 1.391 . S
C2249 C2253 1.376 . S
C2250 C2248 1.394 . S
C2250 C2251 1.369 . S
C2250 C2254 1.531 . S
C2251 C2250 1.369 . S
C2251 C2252 1.410 . S
C2251 C2259 1.503 . S
C2252 C2251 1.410 . S
C2252 C2253 1.392 . S
C2252 C2255 1.511 . S
C2253 C2249 1.376 . S
C2253 C2252 1.392 . S
C2253 H2265 0.929 . S
C2254 C2250 1.531 . S
C2254 H2266 0.960 . S
C2254 H2267 0.962 . S
C2254 H2268 0.960 . S
C2255 C2252 1.511 . S
C2255 H2269 0.961 . S
C2255 H2270 0.961 . S
C2255 H2271 0.961 . S
C2256 C2257 1.370 . S
C2256 C2258 1.363 . S
C2256 H2272 0.931 . S
C2257 C2256 1.370 . S
C2257 C2261 1.408 . S
C2258 C2256 1.363 . S
C2258 C2259 1.370 . S
C2258 C2262 1.524 . S
C2259 C2251 1.503 . S
C2259 C2258 1.370 . S
C2259 C2260 1.403 . S
C2260 C2259 1.403 . S
C2260 C2261 1.404 . S
C2260 C2263 1.539 . S
C2261 C2257 1.408 . S
C2261 C2260 1.404 . S
C2261 H2273 0.930 . S
C2262 C2258 1.524 . S
C2262 H2274 0.956 . S
C2262 H2275 0.961 . S
C2262 H2276 0.961 . S
C2263 C2260 1.539 . S
C2263 H2277 0.958 . S
C2263 H2278 0.961 . S
C2263 H2279 0.960 . S
H2264 C2248 0.931 . S
H2265 C2253 0.929 . S
H2266 C2254 0.960 . S
H2267 C2254 0.962 . S
H2268 C2254 0.960 . S
H2269 C2255 0.961 . S
H2270 C2255 0.961 . S
H2271 C2255 0.961 . S
H2272 C2256 0.931 . S
H2273 C2261 0.930 . S
H2274 C2262 0.956 . S
H2275 C2262 0.961 . S
H2276 C2262 0.961 . S
H2277 C2263 0.958 . S
H2278 C2263 0.961 . S
H2279 C2263 0.960 . S
C2280 C2281 1.391 . S
C2280 C2282 1.394 . S
C2280 H2296 0.931 . S
C2281 C2280 1.391 . S
C2281 C2285 1.376 . S
C2282 C2280 1.394 . S
C2282 C2283 1.369 . S
C2282 C2286 1.531 . S
C2283 C2282 1.369 . S
C2283 C2284 1.410 . S
C2283 C2291 1.503 . S
C2284 C2283 1.410 . S
C2284 C2285 1.392 . S
C2284 C2287 1.511 . S
C2285 C2281 1.376 . S
C2285 C2284 1.392 . S
C2285 H2297 0.929 . S
C2286 C2282 1.531 . S
C2286 H2298 0.960 . S
C2286 H2299 0.912 1_554 S
C2286 H2300 0.960 . S
C2287 C2284 1.511 . S
C2287 H2301 0.961 . S
C2287 H2302 0.961 . S
C2287 H2303 0.961 . S
C2288 C2289 1.370 . S
C2288 C2290 1.363 . S
C2288 H2304 0.931 1_554 S
C2289 C2288 1.370 . S
C2289 C2293 1.408 . S
C2290 C2288 1.363 . S
C2290 C2291 1.370 . S
C2290 C2294 1.524 1_554 S
C2291 C2283 1.503 . S
C2291 C2290 1.370 . S
C2291 C2292 1.403 . S
C2292 C2291 1.403 . S
C2292 C2293 1.404 . S
C2292 C2295 1.539 . S
C2293 C2289 1.408 . S
C2293 C2292 1.404 . S
C2293 H2305 0.930 . S
C2294 C2290 1.524 1_556 S
C2294 H2306 0.956 . S
C2294 H2307 0.961 1_556 S
C2294 H2308 0.961 . S
C2295 C2292 1.539 . S
C2295 H2309 0.958 . S
C2295 H2310 0.961 . S
C2295 H2311 0.960 . S
H2296 C2280 0.931 . S
H2297 C2285 0.929 . S
H2298 C2286 0.960 . S
H2299 C2286 0.912 1_556 S
H2300 C2286 0.960 . S
H2301 C2287 0.961 . S
H2302 C2287 0.961 . S
H2303 C2287 0.961 . S
H2304 C2288 0.931 1_556 S
H2305 C2293 0.930 . S
H2306 C2294 0.956 . S
H2307 C2294 0.961 1_554 S
H2308 C2294 0.961 . S
H2309 C2295 0.958 . S
H2310 C2295 0.961 . S
H2311 C2295 0.960 . S
C2312 C2313 1.391 . S
C2312 C2314 1.394 . S
C2312 H2328 0.931 . S
C2313 C2312 1.391 . S
C2313 C2317 1.376 . S
C2314 C2312 1.394 . S
C2314 C2315 1.369 . S
C2314 C2318 1.531 . S
C2315 C2314 1.369 . S
C2315 C2316 1.410 . S
C2315 C2323 1.503 . S
C2316 C2315 1.410 . S
C2316 C2317 1.392 . S
C2316 C2319 1.511 . S
C2317 C2313 1.376 . S
C2317 C2316 1.392 . S
C2317 H2329 0.929 . S
C2318 C2314 1.531 . S
C2318 H2330 0.960 . S
C2318 H2331 0.962 . S
C2318 H2332 0.960 . S
C2319 C2316 1.511 . S
C2319 H2333 0.961 . S
C2319 H2334 0.961 . S
C2319 H2335 0.961 1_554 S
C2320 C2321 1.370 . S
C2320 C2322 1.363 . S
C2320 H2336 0.931 . S
C2321 C2320 1.370 . S
C2321 C2325 1.408 1_554 S
C2322 C2320 1.363 . S
C2322 C2323 1.370 . S
C2322 C2326 1.524 . S
C2323 C2315 1.503 . S
C2323 C2322 1.370 . S
C2323 C2324 1.403 1_554 S
C2324 C2323 1.403 1_556 S
C2324 C2325 1.404 . S
C2324 C2327 1.539 . S
C2325 C2321 1.408 1_556 S
C2325 C2324 1.404 . S
C2325 H2337 0.930 . S
C2326 C2322 1.524 . S
C2326 H2338 0.956 . S
C2326 H2339 0.961 . S
C2326 H2340 0.961 . S
C2327 C2324 1.539 . S
C2327 H2341 0.958 . S
C2327 H2342 0.961 . S
C2327 H2343 0.960 . S
H2328 C2312 0.931 . S
H2329 C2317 0.929 . S
H2330 C2318 0.960 . S
H2331 C2318 0.962 . S
H2332 C2318 0.960 . S
H2333 C2319 0.961 . S
H2334 C2319 0.961 . S
H2335 C2319 0.961 1_556 S
H2336 C2320 0.931 . S
H2337 C2325 0.930 . S
H2338 C2326 0.956 . S
H2339 C2326 0.961 . S
H2340 C2326 0.961 . S
H2341 C2327 0.958 . S
H2342 C2327 0.961 . S
H2343 C2327 0.960 . S
C817 C648 1.488 . S
C809 C202 1.480 . S
C849 C661 1.497 . S
C841 C261 1.495 . S
C873 C282 1.684 . S
C881 C681 1.561 . S
C913 C695 1.355 . S
C905 C162 1.394 . S
C945 C707 1.502 . S
C937 C402 1.484 . S
C977 C721 1.424 . S
C969 C482 1.403 . S
C1001 C442 1.474 . S
C1009 C731 1.490 . S
C1041 C746 1.529 . S
C1033 C381 1.515 . S
C1065 C461 1.535 . S
C1073 C760 1.533 . S
C1105 C779 1.335 . S
C1097 C362 1.368 . S
C1129 C415 1.451 . S
C1137 C759 1.435 . S
C1169 C777 1.437 . S
C1161 C495 1.434 . S
C1193 C301 1.717 . S
C1201 C793 1.584 . S
C1225 C175 1.504 . S
C1233 C787 1.499 . S
C1257 C215 1.480 . S
C1265 C791 1.484 . S
C1289 C242 1.496 . S
C1297 C788 1.502 . S
C1321 C141 1.556 . S
C1329 C690 1.521 . S
C1353 C581 1.514 . S
C1361 C689 1.514 . S
C1393 C653 1.345 . S
C1385 C615 1.399 . S
C1425 C667 1.540 . S
C1417 C335 1.651 . S
C1449 C181 1.577 . S
C1457 C704 1.577 . S
C1489 C749 1.504 . S
C1481 C455 1.503 . S
C1521 C703 1.432 . S
C1513 C375 1.435 . S
C1553 C735 1.475 . S
C1545 C501 1.467 . S
C1585 C732 1.479 . S
C1577 C562 1.496 . S
C1609 C621 1.480 . S
C1617 C745 1.499 . S
C1641 C322 1.669 . S
C1649 C709 1.575 . S
C1681 C723 1.361 . S
C1673 C522 1.408 . S
C1705 C122 1.496 . S
C1713 C679 1.501 . S
C1745 C693 1.420 . S
C1737 C2 1.402 . S
C1777 C647 1.483 . S
C1769 C42 1.494 . S
C1809 C662 1.535 . S
C1801 C101 1.531 . S
C1833 C61 1.556 . S
C1841 C774 1.532 . S
C1865 C82 1.369 . S
C1873 C765 1.336 . S
C1897 C135 1.451 . S
C1905 C773 1.433 . S
C1929 C15 1.436 . S
C1937 C763 1.434 . S
C1969 C807 1.595 . S
C1961 C341 1.717 . S
C2001 C801 1.506 . S
C1993 C535 1.509 . S
C2033 C805 1.484 . S
C2025 C575 1.481 . S
C2057 C602 1.471 . S
C2065 C802 1.500 . S
C2089 C421 1.537 . S
C2097 C718 1.529 . S
C2129 C717 1.518 . S
C2121 C221 1.505 . S
C2161 C737 1.344 . S
C2153 C255 1.389 . S
C2193 C751 1.537 . S
C2185 C295 1.666 . S
C2217 C541 1.574 . S
C2225 C676 1.563 . S
C2257 C665 1.498 . S
C2249 C55 1.500 . S
C2281 C95 1.440 . S
C2289 C675 1.437 . S
C2321 C651 1.474 . S
C2313 C21 1.459 . S
