# Generated by pormake.
# Topology ocu, (6,8)-cn, num edge types: 1
# Building blocks:
#     Node 0, Type 0, BuildingBlock: KUMBOL_clean_sbu_1, # of connection points: 6
#     Node 1, Type 0, BuildingBlock: KUMBOL_clean_sbu_1, # of connection points: 6
#     Node 2, Type 0, BuildingBlock: KUMBOL_clean_sbu_1, # of connection points: 6
#     Node 3, Type 0, BuildingBlock: KUMBOL_clean_sbu_1, # of connection points: 6
#     Node 4, Type 0, BuildingBlock: KUMBOL_clean_sbu_1, # of connection points: 6
#     Node 5, Type 0, BuildingBlock: KUMBOL_clean_sbu_1, # of connection points: 6
#     Node 6, Type 0, BuildingBlock: KUMBOL_clean_sbu_1, # of connection points: 6
#     Node 7, Type 0, BuildingBlock: KUMBOL_clean_sbu_1, # of connection points: 6
#     Node 8, Type 1, BuildingBlock: GIZVER_clean_sbu_0, # of connection points: 8
#     Node 9, Type 1, BuildingBlock: GIZVER_clean_sbu_0, # of connection points: 8
#     Node 10, Type 1, BuildingBlock: GIZVER_clean_sbu_0, # of connection points: 8
#     Node 11, Type 1, BuildingBlock: GIZVER_clean_sbu_0, # of connection points: 8
#     Node 12, Type 1, BuildingBlock: GIZVER_clean_sbu_0, # of connection points: 8
#     Node 13, Type 1, BuildingBlock: GIZVER_clean_sbu_0, # of connection points: 8
#     Edge 14, Type (0, 1), BuildingBlock: ZUJKAS_clean_linker_0, # of connection points: 2
#     Edge 15, Type (0, 1), BuildingBlock: ZUJKAS_clean_linker_0, # of connection points: 2
#     Edge 16, Type (0, 1), BuildingBlock: ZUJKAS_clean_linker_0, # of connection points: 2
#     Edge 17, Type (0, 1), BuildingBlock: ZUJKAS_clean_linker_0, # of connection points: 2
#     Edge 18, Type (0, 1), BuildingBlock: ZUJKAS_clean_linker_0, # of connection points: 2
#     Edge 19, Type (0, 1), BuildingBlock: ZUJKAS_clean_linker_0, # of connection points: 2
#     Edge 20, Type (0, 1), BuildingBlock: ZUJKAS_clean_linker_0, # of connection points: 2
#     Edge 21, Type (0, 1), BuildingBlock: ZUJKAS_clean_linker_0, # of connection points: 2
#     Edge 22, Type (0, 1), BuildingBlock: ZUJKAS_clean_linker_0, # of connection points: 2
#     Edge 23, Type (0, 1), BuildingBlock: ZUJKAS_clean_linker_0, # of connection points: 2
#     Edge 24, Type (0, 1), BuildingBlock: ZUJKAS_clean_linker_0, # of connection points: 2
#     Edge 25, Type (0, 1), BuildingBlock: ZUJKAS_clean_linker_0, # of connection points: 2
#     Edge 26, Type (0, 1), BuildingBlock: ZUJKAS_clean_linker_0, # of connection points: 2
#     Edge 27, Type (0, 1), BuildingBlock: ZUJKAS_clean_linker_0, # of connection points: 2
#     Edge 28, Type (0, 1), BuildingBlock: ZUJKAS_clean_linker_0, # of connection points: 2
#     Edge 29, Type (0, 1), BuildingBlock: ZUJKAS_clean_linker_0, # of connection points: 2
#     Edge 30, Type (0, 1), BuildingBlock: ZUJKAS_clean_linker_0, # of connection points: 2
#     Edge 31, Type (0, 1), BuildingBlock: ZUJKAS_clean_linker_0, # of connection points: 2
#     Edge 32, Type (0, 1), BuildingBlock: ZUJKAS_clean_linker_0, # of connection points: 2
#     Edge 33, Type (0, 1), BuildingBlock: ZUJKAS_clean_linker_0, # of connection points: 2
#     Edge 34, Type (0, 1), BuildingBlock: ZUJKAS_clean_linker_0, # of connection points: 2
#     Edge 35, Type (0, 1), BuildingBlock: ZUJKAS_clean_linker_0, # of connection points: 2
#     Edge 36, Type (0, 1), BuildingBlock: ZUJKAS_clean_linker_0, # of connection points: 2
#     Edge 37, Type (0, 1), BuildingBlock: ZUJKAS_clean_linker_0, # of connection points: 2
#     Edge 38, Type (0, 1), BuildingBlock: ZUJKAS_clean_linker_0, # of connection points: 2
#     Edge 39, Type (0, 1), BuildingBlock: ZUJKAS_clean_linker_0, # of connection points: 2
#     Edge 40, Type (0, 1), BuildingBlock: ZUJKAS_clean_linker_0, # of connection points: 2
#     Edge 41, Type (0, 1), BuildingBlock: ZUJKAS_clean_linker_0, # of connection points: 2
#     Edge 42, Type (0, 1), BuildingBlock: ZUJKAS_clean_linker_0, # of connection points: 2
#     Edge 43, Type (0, 1), BuildingBlock: ZUJKAS_clean_linker_0, # of connection points: 2
#     Edge 44, Type (0, 1), BuildingBlock: ZUJKAS_clean_linker_0, # of connection points: 2
#     Edge 45, Type (0, 1), BuildingBlock: ZUJKAS_clean_linker_0, # of connection points: 2
#     Edge 46, Type (0, 1), BuildingBlock: ZUJKAS_clean_linker_0, # of connection points: 2
#     Edge 47, Type (0, 1), BuildingBlock: ZUJKAS_clean_linker_0, # of connection points: 2
#     Edge 48, Type (0, 1), BuildingBlock: ZUJKAS_clean_linker_0, # of connection points: 2
#     Edge 49, Type (0, 1), BuildingBlock: ZUJKAS_clean_linker_0, # of connection points: 2
#     Edge 50, Type (0, 1), BuildingBlock: ZUJKAS_clean_linker_0, # of connection points: 2
#     Edge 51, Type (0, 1), BuildingBlock: ZUJKAS_clean_linker_0, # of connection points: 2
#     Edge 52, Type (0, 1), BuildingBlock: ZUJKAS_clean_linker_0, # of connection points: 2
#     Edge 53, Type (0, 1), BuildingBlock: ZUJKAS_clean_linker_0, # of connection points: 2
#     Edge 54, Type (0, 1), BuildingBlock: ZUJKAS_clean_linker_0, # of connection points: 2
#     Edge 55, Type (0, 1), BuildingBlock: ZUJKAS_clean_linker_0, # of connection points: 2
#     Edge 56, Type (0, 1), BuildingBlock: ZUJKAS_clean_linker_0, # of connection points: 2
#     Edge 57, Type (0, 1), BuildingBlock: ZUJKAS_clean_linker_0, # of connection points: 2
#     Edge 58, Type (0, 1), BuildingBlock: ZUJKAS_clean_linker_0, # of connection points: 2
#     Edge 59, Type (0, 1), BuildingBlock: ZUJKAS_clean_linker_0, # of connection points: 2
#     Edge 60, Type (0, 1), BuildingBlock: ZUJKAS_clean_linker_0, # of connection points: 2
#     Edge 61, Type (0, 1), BuildingBlock: ZUJKAS_clean_linker_0, # of connection points: 2
# Relax obj value: 0.148
# Max RMSD: 0.215
# Mean RMSD: 0.171
data_MOF--net-ocu--node1-KUMBOL_clean_sbu_1--node2-GIZVER_clean_sbu_0--edge1-ZUJKAS_clean_linker_0
_symmetry_space_group_name_H-M    P1
_symmetry_Int_Tables_number       1
_symmetry_cell_setting            triclinic
loop_
_symmetry_equiv_pos_as_xyz
'x, y, z'
_cell_length_a     53.325977
_cell_length_b     55.928453
_cell_length_c     43.331847
_cell_angle_alpha  99.405075
_cell_angle_beta   81.102849
_cell_angle_gamma 107.58628
loop_
_atom_site_label
_atom_site_type_symbol
_atom_site_fract_x
_atom_site_fract_y
_atom_site_fract_z
_atom_type_partial_charge
C0 C 0.32271 0.33267 0.3295 0.0
C1 C 0.2876 0.32875 0.37303 0.0
C2 C 0.29941 0.31837 0.34473 0.0
C3 C 0.29931 0.35377 0.38559 0.0
C4 C 0.33459 0.35773 0.34216 0.0
C5 C 0.32271 0.36822 0.37019 0.0
N6 N 0.33373 0.32206 0.30234 0.0
C7 C 0.35688 0.3352 0.28708 0.0
C8 C 0.35809 0.37151 0.32628 0.0
C9 C 0.36932 0.36015 0.29869 0.0
Gd10 Gd 0.2628 0.26261 0.21681 0.0
Gd11 Gd 0.31108 0.28036 0.28477 0.0
N12 N 0.28819 0.29435 0.33159 0.0
C13 C 0.26436 0.31364 0.38783 0.0
C14 C 0.26623 0.27921 0.34663 0.0
C15 C 0.25378 0.28871 0.37472 0.0
H16 H 0.25838 0.25978 0.33726 0.0
H17 H 0.23613 0.27673 0.38635 0.0
H18 H 0.31395 0.28895 0.16504 0.0
H19 H 0.36603 0.32629 0.26626 0.0
H20 H 0.33981 0.27532 0.11698 0.0
H21 H 0.25465 0.32094 0.40959 0.0
H22 H 0.29045 0.36211 0.40724 0.0
H23 H 0.21211 0.21206 0.23276 0.0
H24 H 0.36782 0.39083 0.33525 0.0
H25 H 0.38766 0.37055 0.28647 0.0
H26 H 0.2958 0.18698 0.09383 0.0
H27 H 0.33153 0.38747 0.38023 0.0
H28 H 0.2191 0.15026 0.1626 0.0
H29 H 0.19571 0.1672 0.2111 0.0
N30 N 0.24495 0.22009 0.19763 0.0
C31 C 0.25776 0.21135 0.17052 0.0
C32 C 0.22277 0.20471 0.212 0.0
C33 C 0.22648 0.16991 0.17213 0.0
C34 C 0.21327 0.17938 0.19957 0.0
C35 C 0.24896 0.18594 0.15716 0.0
H36 H 0.2565 0.15782 0.11899 0.0
N37 N 0.28833 0.25219 0.17012 0.0
C38 C 0.27998 0.22789 0.15626 0.0
C39 C 0.31593 0.23651 0.11449 0.0
C40 C 0.29384 0.21931 0.12834 0.0
C41 C 0.30888 0.26932 0.15574 0.0
C42 C 0.32326 0.2617 0.12804 0.0
O43 O 0.28323 0.30509 0.28641 0.0
O44 O 0.24623 0.28014 0.2634 0.0
O45 O 0.25619 0.28833 0.1883 0.0
O46 O 0.22433 0.2557 0.20071 0.0
O47 O 0.27943 0.24277 0.28166 0.0
O48 O 0.24354 0.24793 0.26264 0.0
O49 O 0.28932 0.23724 0.21838 0.0
O50 O 0.32717 0.26402 0.23711 0.0
O51 O 0.3154 0.25148 0.30993 0.0
O52 O 0.34831 0.28459 0.30273 0.0
O53 O 0.29306 0.30116 0.22161 0.0
O54 O 0.32913 0.29497 0.23873 0.0
C55 C 0.25816 0.30023 0.28181 0.0
C56 C 0.25387 0.23665 0.27961 0.0
C57 C 0.22419 0.27046 0.15245 0.0
C58 C 0.20705 0.28445 0.11128 0.0
C59 C 0.21727 0.24407 0.10244 0.0
C60 C 0.22514 0.24824 0.13255 0.0
C61 C 0.20819 0.26191 0.09188 0.0
C62 C 0.21528 0.28857 0.14167 0.0
C63 C 0.23196 0.27489 0.18462 0.0
C64 C 0.28527 0.19394 0.11516 0.0
C65 C 0.26289 0.17732 0.1295 0.0
H66 H 0.32714 0.23065 0.09306 0.0
C67 C 0.31492 0.24299 0.22053 0.0
C68 C 0.31862 0.30757 0.22385 0.0
C69 C 0.34532 0.26524 0.3484 0.0
C70 C 0.3632 0.24932 0.38702 0.0
C71 C 0.34278 0.28353 0.40318 0.0
C72 C 0.33783 0.28271 0.3723 0.0
C73 C 0.35532 0.26695 0.41057 0.0
C74 C 0.35815 0.24863 0.35581 0.0
C75 C 0.33946 0.26385 0.31587 0.0
H76 H 0.21791 0.22677 0.08733 0.0
H77 H 0.23167 0.23397 0.14033 0.0
H78 H 0.20156 0.25773 0.0687 0.0
H79 H 0.21486 0.30585 0.15699 0.0
H80 H 0.33694 0.29711 0.42145 0.0
H81 H 0.32822 0.29574 0.36719 0.0
H82 H 0.3592 0.2682 0.43467 0.0
H83 H 0.36382 0.23498 0.33742 0.0
C84 C 0.85705 0.2716 0.1912 0.0
C85 C 0.89217 0.30792 0.20939 0.0
C86 C 0.86782 0.2895 0.21549 0.0
C87 C 0.90503 0.30854 0.17857 0.0
C88 C 0.87003 0.27202 0.16028 0.0
C89 C 0.89401 0.29064 0.15409 0.0
N90 N 0.83333 0.25433 0.19764 0.0
C91 C 0.8219 0.23649 0.17459 0.0
C92 C 0.85828 0.25394 0.13641 0.0
C93 C 0.83417 0.23604 0.14363 0.0
Gd94 Gd 0.75799 0.29328 0.26764 0.0
Gd95 Gd 0.81407 0.25691 0.24998 0.0
N96 N 0.85462 0.28878 0.24503 0.0
C97 C 0.90309 0.32492 0.23456 0.0
C98 C 0.86652 0.3037 0.26993 0.0
C99 C 0.89046 0.32246 0.26506 0.0
H100 H 0.85829 0.30062 0.29365 0.0
H101 H 0.89944 0.33462 0.28491 0.0
H102 H 0.71094 0.24064 0.24382 0.0
H103 H 0.80338 0.22249 0.18008 0.0
H104 H 0.66842 0.21366 0.26568 0.0
H105 H 0.92172 0.33938 0.23086 0.0
H106 H 0.92364 0.32268 0.17345 0.0
H107 H 0.77603 0.34292 0.32261 0.0
H108 H 0.86763 0.25364 0.11236 0.0
H109 H 0.82502 0.22193 0.12535 0.0
H110 H 0.65278 0.25573 0.36947 0.0
H111 H 0.90418 0.29138 0.13045 0.0
H112 H 0.71739 0.33262 0.40255 0.0
H113 H 0.75981 0.3575 0.37679 0.0
N114 N 0.74372 0.30962 0.31833 0.0
C115 C 0.72011 0.29592 0.33177 0.0
C116 C 0.75782 0.33162 0.33392 0.0
C117 C 0.72454 0.32601 0.37888 0.0
C118 C 0.74853 0.34008 0.36446 0.0
C119 C 0.70994 0.3037 0.36251 0.0
H120 H 0.67752 0.29467 0.39955 0.0
N121 N 0.71679 0.2666 0.28544 0.0
C122 C 0.70611 0.27393 0.31475 0.0
C123 C 0.66813 0.23717 0.31029 0.0
C124 C 0.68162 0.25923 0.3281 0.0
C125 C 0.70321 0.24569 0.26754 0.0
C126 C 0.67889 0.23048 0.2798 0.0
O127 O 0.81068 0.28253 0.21589 0.0
O128 O 0.79921 0.3142 0.24932 0.0
O129 O 0.74115 0.29959 0.22818 0.0
O130 O 0.74295 0.32568 0.27116 0.0
O131 O 0.81011 0.28047 0.29784 0.0
O132 O 0.79694 0.31318 0.28623 0.0
O133 O 0.75552 0.26471 0.30037 0.0
O134 O 0.77428 0.23467 0.27149 0.0
O135 O 0.83616 0.24573 0.28053 0.0
O136 O 0.82666 0.22288 0.23637 0.0
O137 O 0.75704 0.26498 0.22335 0.0
O138 O 0.77605 0.23421 0.23034 0.0
C139 C 0.8121 0.30654 0.22329 0.0
C140 C 0.80828 0.3038 0.30426 0.0
C141 C 0.75027 0.34268 0.22335 0.0
C142 C 0.74639 0.36844 0.18514 0.0
C143 C 0.7876 0.37769 0.20811 0.0
C144 C 0.77638 0.35774 0.22606 0.0
C145 C 0.7727 0.38312 0.1878 0.0
C146 C 0.7354 0.34797 0.20272 0.0
C147 C 0.73846 0.3214 0.24181 0.0
C148 C 0.6715 0.26686 0.35878 0.0
C149 C 0.68561 0.28903 0.37593 0.0
H150 H 0.64933 0.22529 0.31977 0.0
C151 C 0.75745 0.24152 0.29414 0.0
C152 C 0.75999 0.24203 0.21672 0.0
C153 C 0.82654 0.20174 0.27927 0.0
C154 C 0.83501 0.17457 0.31291 0.0
C155 C 0.792 0.16439 0.29354 0.0
C156 C 0.80069 0.18573 0.27772 0.0
C157 C 0.80901 0.15872 0.31086 0.0
C158 C 0.8435 0.19625 0.29709 0.0
C159 C 0.83587 0.22446 0.26295 0.0
H160 H 0.80777 0.38916 0.21023 0.0
H161 H 0.78802 0.35424 0.24225 0.0
H162 H 0.78166 0.39887 0.17431 0.0
H163 H 0.71507 0.33662 0.20107 0.0
H164 H 0.77207 0.15205 0.29211 0.0
H165 H 0.78728 0.18965 0.26416 0.0
H166 H 0.8019 0.14161 0.32208 0.0
H167 H 0.86324 0.20901 0.2987 0.0
C168 C 0.83104 0.77779 0.16291 0.0
C169 C 0.807 0.7492 0.1221 0.0
C170 C 0.80722 0.76364 0.15202 0.0
C171 C 0.83108 0.74828 0.10413 0.0
C172 C 0.85525 0.7778 0.14446 0.0
C173 C 0.85515 0.76258 0.11526 0.0
N174 N 0.83049 0.79185 0.19156 0.0
C175 C 0.8532 0.8078 0.20225 0.0
C176 C 0.87877 0.7933 0.15583 0.0
C177 C 0.87771 0.80858 0.18469 0.0
Gd178 Gd 0.77236 0.74516 0.28911 0.0
Gd179 Gd 0.78875 0.78907 0.21988 0.0
N180 N 0.78431 0.76517 0.16987 0.0
C181 C 0.7826 0.73686 0.1107 0.0
C182 C 0.76074 0.75513 0.15756 0.0
C183 C 0.7594 0.74026 0.12825 0.0
H184 H 0.743 0.75905 0.16988 0.0
H185 H 0.74053 0.73183 0.11899 0.0
H186 H 0.79918 0.78458 0.34906 0.0
H187 H 0.85238 0.81964 0.22451 0.0
H188 H 0.78457 0.80684 0.3998 0.0
H189 H 0.78156 0.72557 0.08783 0.0
H190 H 0.83129 0.73709 0.08123 0.0
H191 H 0.7179 0.69785 0.26903 0.0
H192 H 0.89778 0.79386 0.14235 0.0
H193 H 0.89575 0.82091 0.19344 0.0
H194 H 0.68955 0.7783 0.40639 0.0
H195 H 0.87355 0.76209 0.10088 0.0
H196 H 0.65068 0.71191 0.32826 0.0
H197 H 0.66971 0.68696 0.28337 0.0
N198 N 0.72615 0.73071 0.30281 0.0
C199 C 0.71624 0.74343 0.329 0.0
C200 C 0.7099 0.70979 0.28756 0.0
C201 C 0.67187 0.71726 0.32149 0.0
C202 C 0.68253 0.70317 0.29609 0.0
C203 C 0.68882 0.73722 0.33888 0.0
H204 H 0.65829 0.74616 0.37409 0.0
N205 N 0.76006 0.76663 0.33748 0.0
C206 C 0.73375 0.76158 0.34725 0.0
C207 C 0.74304 0.79072 0.39454 0.0
C208 C 0.72448 0.77393 0.37574 0.0
C209 C 0.77832 0.78185 0.35645 0.0
C210 C 0.77008 0.79436 0.38509 0.0
O211 O 0.81553 0.76436 0.22284 0.0
O212 O 0.78682 0.72863 0.24063 0.0
O213 O 0.80301 0.7355 0.30826 0.0
O214 O 0.76296 0.71135 0.31225 0.0
O215 O 0.74768 0.76124 0.2253 0.0
O216 O 0.75421 0.72737 0.24346 0.0
O217 O 0.76602 0.78463 0.29847 0.0
O218 O 0.75114 0.78707 0.25314 0.0
O219 O 0.78029 0.80997 0.1864 0.0
O220 O 0.79905 0.83003 0.22747 0.0
O221 O 0.81325 0.77291 0.28501 0.0
O222 O 0.80958 0.80693 0.26363 0.0
C223 C 0.80836 0.73968 0.22314 0.0
C224 C 0.74145 0.73681 0.227 0.0
C225 C 0.78851 0.71467 0.35374 0.0
C226 C 0.81062 0.7045 0.39337 0.0
C227 C 0.77241 0.72076 0.40917 0.0
C228 C 0.77032 0.7218 0.37778 0.0
C229 C 0.79236 0.71222 0.41697 0.0
C230 C 0.8087 0.70608 0.36165 0.0
C231 C 0.78661 0.71614 0.32047 0.0
C232 C 0.69712 0.76874 0.3848 0.0
C233 C 0.67932 0.75046 0.36636 0.0
H234 H 0.73671 0.80053 0.41666 0.0
C235 C 0.75115 0.79287 0.28368 0.0
C236 C 0.82064 0.79719 0.28187 0.0
C237 C 0.76667 0.84549 0.21177 0.0
C238 C 0.73234 0.86001 0.19533 0.0
C239 C 0.73976 0.86675 0.25046 0.0
C240 C 0.75991 0.85498 0.24309 0.0
C241 C 0.72592 0.86909 0.22687 0.0
C242 C 0.753 0.84843 0.18786 0.0
C243 C 0.78687 0.83144 0.20426 0.0
H244 H 0.75842 0.7265 0.42755 0.0
H245 H 0.75441 0.7281 0.37237 0.0
H246 H 0.79355 0.71175 0.44158 0.0
H247 H 0.82249 0.70016 0.34308 0.0
H248 H 0.73469 0.87391 0.27465 0.0
H249 H 0.76992 0.85306 0.26208 0.0
H250 H 0.71034 0.87831 0.23324 0.0
H251 H 0.75794 0.84114 0.16365 0.0
C252 C 0.30188 0.73361 0.31166 0.0
C253 C 0.28072 0.68953 0.2942 0.0
C254 C 0.29103 0.71492 0.28835 0.0
C255 C 0.28086 0.68329 0.32425 0.0
C256 C 0.30306 0.72724 0.34149 0.0
C257 C 0.29195 0.70211 0.34787 0.0
N258 N 0.3126 0.75771 0.3046 0.0
C259 C 0.32765 0.77548 0.32506 0.0
C260 C 0.31622 0.74612 0.36361 0.0
C261 C 0.32905 0.77022 0.3551 0.0
Gd262 Gd 0.24934 0.79967 0.27048 0.0
Gd263 Gd 0.30718 0.76466 0.25393 0.0
N264 N 0.2908 0.72161 0.2597 0.0
C265 C 0.27086 0.67117 0.26954 0.0
C266 C 0.28228 0.70375 0.2352 0.0
C267 C 0.27192 0.67829 0.23979 0.0
H268 H 0.28316 0.70929 0.21225 0.0
H269 H 0.26473 0.66421 0.22045 0.0
H270 H 0.25556 0.83539 0.34122 0.0
H271 H 0.33926 0.79359 0.31821 0.0
H272 H 0.27125 0.8806 0.36167 0.0
H273 H 0.26274 0.65145 0.27309 0.0
H274 H 0.27288 0.66391 0.3293 0.0
H275 H 0.2293 0.79729 0.20077 0.0
H276 H 0.31759 0.74201 0.38678 0.0
H277 H 0.34048 0.78462 0.37145 0.0
H278 H 0.2823 0.92354 0.27095 0.0
H279 H 0.29246 0.69692 0.37074 0.0
H280 H 0.25074 0.87285 0.17665 0.0
H281 H 0.23088 0.82685 0.16311 0.0
N282 N 0.24841 0.8264 0.23455 0.0
C283 C 0.25784 0.85158 0.24322 0.0
C284 C 0.23777 0.8174 0.20676 0.0
C285 C 0.25 0.86 0.19317 0.0
C286 C 0.23871 0.83404 0.18547 0.0
C287 C 0.25933 0.86911 0.22259 0.0
H288 H 0.27079 0.90889 0.2168 0.0
N289 N 0.26018 0.84217 0.29346 0.0
C290 C 0.26424 0.85973 0.27363 0.0
C291 C 0.27591 0.8933 0.31621 0.0
C292 C 0.27242 0.88579 0.28434 0.0
C293 C 0.26118 0.84938 0.32502 0.0
C294 C 0.26971 0.875 0.33676 0.0
O295 O 0.26447 0.74454 0.2687 0.0
O296 O 0.2543 0.77536 0.30433 0.0
O297 O 0.21085 0.7721 0.26744 0.0
O298 O 0.21369 0.80914 0.29311 0.0
O299 O 0.28361 0.75671 0.21212 0.0
O300 O 0.24428 0.76692 0.23173 0.0
O301 O 0.27953 0.80815 0.22725 0.0
O302 O 0.31699 0.80472 0.24359 0.0
O303 O 0.33028 0.75554 0.21018 0.0
O304 O 0.34733 0.76362 0.25421 0.0
O305 O 0.27572 0.80452 0.30883 0.0
O306 O 0.31588 0.8038 0.28135 0.0
C307 C 0.2511 0.75134 0.29483 0.0
C308 C 0.25849 0.75498 0.2107 0.0
C309 C 0.18361 0.77374 0.3152 0.0
C310 C 0.17522 0.77264 0.37208 0.0
C311 C 0.1514 0.73772 0.33668 0.0
C312 C 0.16486 0.75003 0.31078 0.0
C313 C 0.1564 0.74898 0.36722 0.0
C314 C 0.18881 0.7848 0.34591 0.0
C315 C 0.19883 0.78598 0.28771 0.0
C316 C 0.27568 0.90342 0.26328 0.0
C317 C 0.2691 0.89509 0.23245 0.0
H318 H 0.28222 0.91313 0.3254 0.0
C319 C 0.30544 0.81425 0.22606 0.0
C320 C 0.30162 0.81317 0.30503 0.0
C321 C 0.36211 0.73493 0.21561 0.0
C322 C 0.36253 0.69384 0.18716 0.0
C323 C 0.39808 0.71752 0.21862 0.0
C324 C 0.38607 0.73695 0.22688 0.0
C325 C 0.38647 0.69608 0.19874 0.0
C326 C 0.35023 0.71317 0.19593 0.0
C327 C 0.35033 0.75599 0.22429 0.0
H328 H 0.13697 0.71945 0.33306 0.0
H329 H 0.16081 0.74095 0.28729 0.0
H330 H 0.14557 0.73925 0.38699 0.0
H331 H 0.20308 0.80321 0.34956 0.0
H332 H 0.41655 0.71918 0.22739 0.0
H333 H 0.39555 0.75364 0.24202 0.0
H334 H 0.39622 0.68128 0.19225 0.0
H335 H 0.33195 0.71152 0.18667 0.0
C336 C 0.34548 0.71942 0.6779 0.0
C337 C 0.38925 0.74885 0.67044 0.0
C338 C 0.36423 0.74138 0.68799 0.0
C339 C 0.39468 0.73438 0.64187 0.0
C340 C 0.35115 0.70432 0.64986 0.0
C341 C 0.37566 0.71218 0.63159 0.0
N342 N 0.32223 0.71215 0.69641 0.0
C343 C 0.30438 0.6893 0.68934 0.0
C344 C 0.33226 0.68147 0.6415 0.0
C345 C 0.30889 0.6738 0.66153 0.0
Gd346 Gd 0.26374 0.78252 0.75219 0.0
Gd347 Gd 0.31537 0.74035 0.74097 0.0
N348 N 0.35833 0.75493 0.71566 0.0
C349 C 0.4082 0.77034 0.68249 0.0
C350 C 0.37714 0.77509 0.7284 0.0
C351 C 0.40221 0.78333 0.71178 0.0
H352 H 0.37253 0.78519 0.75099 0.0
H353 H 0.41688 0.79969 0.72154 0.0
H354 H 0.22389 0.74896 0.69726 0.0
H355 H 0.28663 0.68303 0.70521 0.0
H356 H 0.18059 0.71717 0.69485 0.0
H357 H 0.42764 0.77675 0.66968 0.0
H358 H 0.41371 0.73993 0.62788 0.0
H359 H 0.26663 0.80844 0.82709 0.0
H360 H 0.33582 0.66934 0.6201 0.0
H361 H 0.29446 0.65589 0.65568 0.0
H362 H 0.14338 0.71631 0.80262 0.0
H363 H 0.38032 0.70093 0.60984 0.0
H364 H 0.19364 0.77387 0.88037 0.0
H365 H 0.23819 0.80458 0.87792 0.0
N366 N 0.23874 0.77957 0.80155 0.0
C367 C 0.21417 0.76287 0.80222 0.0
C368 C 0.24732 0.79478 0.82811 0.0
C369 C 0.2061 0.77534 0.85811 0.0
C370 C 0.23125 0.7927 0.85683 0.0
C371 C 0.19718 0.76034 0.83058 0.0
H372 H 0.15838 0.74116 0.85206 0.0
N373 N 0.22236 0.75236 0.74704 0.0
C374 C 0.20589 0.74866 0.77426 0.0
C375 C 0.17145 0.71955 0.74523 0.0
C376 C 0.18008 0.73195 0.77407 0.0
C377 C 0.21277 0.74266 0.7188 0.0
C378 C 0.18769 0.72536 0.7174 0.0
O379 O 0.3286 0.77293 0.7117 0.0
O380 O 0.30384 0.80169 0.72876 0.0
O381 O 0.24641 0.79911 0.72202 0.0
O382 O 0.25452 0.81821 0.76828 0.0
O383 O 0.3245 0.7757 0.77603 0.0
O384 O 0.29913 0.80369 0.77783 0.0
O385 O 0.26503 0.75699 0.78761 0.0
O386 O 0.27216 0.72332 0.75496 0.0
O387 O 0.31907 0.73628 0.78893 0.0
O388 O 0.33192 0.71153 0.7499 0.0
O389 O 0.27076 0.7601 0.70411 0.0
O390 O 0.27744 0.72539 0.71896 0.0
C391 C 0.32423 0.79503 0.71259 0.0
C392 C 0.31859 0.79712 0.78648 0.0
C393 C 0.21659 0.82103 0.74826 0.0
C394 C 0.18204 0.83188 0.72733 0.0
C395 C 0.17302 0.81544 0.7777 0.0
C396 C 0.19894 0.81395 0.775 0.0
C397 C 0.1645 0.82418 0.75393 0.0
C398 C 0.20811 0.83028 0.72467 0.0
C399 C 0.24324 0.81742 0.74345 0.0
C400 C 0.16326 0.72906 0.80237 0.0
C401 C 0.17176 0.74326 0.83052 0.0
H402 H 0.15179 0.70655 0.74409 0.0
C403 C 0.2602 0.73247 0.78068 0.0
C404 C 0.27041 0.73615 0.69838 0.0
C405 C 0.31315 0.69419 0.79682 0.0
C406 C 0.31223 0.66571 0.83423 0.0
C407 C 0.27455 0.65841 0.80513 0.0
C408 C 0.28791 0.6794 0.78956 0.0
C409 C 0.28662 0.65151 0.82729 0.0
C410 C 0.32522 0.68736 0.81921 0.0
C411 C 0.32733 0.71621 0.78035 0.0
H412 H 0.15948 0.80979 0.79828 0.0
H413 H 0.20505 0.80717 0.79372 0.0
H414 H 0.14436 0.82537 0.75659 0.0
H415 H 0.22164 0.83573 0.70394 0.0
H416 H 0.25498 0.6472 0.79961 0.0
H417 H 0.27872 0.68388 0.77158 0.0
H418 H 0.27608 0.63491 0.83876 0.0
H419 H 0.34507 0.69836 0.82406 0.0
C420 C 0.34843 0.29736 0.67278 0.0
C421 C 0.34417 0.2625 0.63051 0.0
C422 C 0.33333 0.27478 0.65802 0.0
C423 C 0.37052 0.273 0.61832 0.0
C424 C 0.37477 0.30814 0.66034 0.0
C425 C 0.38577 0.29576 0.63318 0.0
N426 N 0.33731 0.30884 0.69914 0.0
C427 C 0.35113 0.33147 0.71369 0.0
C428 C 0.38926 0.3311 0.67554 0.0
C429 C 0.37733 0.34287 0.70222 0.0
Gd430 Gd 0.27491 0.24323 0.78503 0.0
Gd431 Gd 0.29377 0.28753 0.71723 0.0
N432 N 0.30805 0.26472 0.67086 0.0
C433 C 0.32814 0.24005 0.61604 0.0
C434 C 0.29194 0.24367 0.65591 0.0
C435 C 0.30181 0.23078 0.62859 0.0
H436 H 0.27147 0.23684 0.66484 0.0
H437 H 0.28907 0.21379 0.61713 0.0
H438 H 0.29678 0.29379 0.83745 0.0
H439 H 0.34183 0.34096 0.73385 0.0
H440 H 0.2793 0.31559 0.88641 0.0
H441 H 0.33575 0.22999 0.59491 0.0
H442 H 0.37925 0.26374 0.59731 0.0
H443 H 0.22574 0.19117 0.76507 0.0
H444 H 0.40956 0.33999 0.66671 0.0
H445 H 0.38826 0.36078 0.71389 0.0
H446 H 0.18939 0.26489 0.90577 0.0
H447 H 0.40603 0.3037 0.62337 0.0
H448 H 0.15828 0.19115 0.83286 0.0
H449 H 0.1792 0.17156 0.78439 0.0
N450 N 0.2308 0.22232 0.80137 0.0
C451 C 0.21988 0.2331 0.82849 0.0
C452 C 0.21668 0.20031 0.78579 0.0
C453 C 0.17866 0.20003 0.82432 0.0
C454 C 0.19037 0.18895 0.79689 0.0
C455 C 0.19344 0.22228 0.8406 0.0
H456 H 0.16231 0.22593 0.8781 0.0
N457 N 0.26038 0.26554 0.83148 0.0
C458 C 0.23518 0.25512 0.84422 0.0
C459 C 0.24044 0.28896 0.88736 0.0
C460 C 0.22441 0.2668 0.87229 0.0
C461 C 0.27644 0.28649 0.84672 0.0
C462 C 0.26663 0.29872 0.87464 0.0
O463 O 0.31904 0.26058 0.71657 0.0
O464 O 0.29177 0.22573 0.73857 0.0
O465 O 0.30369 0.24054 0.81379 0.0
O466 O 0.2694 0.20873 0.80537 0.0
O467 O 0.25334 0.25831 0.72171 0.0
O468 O 0.25944 0.22408 0.73899 0.0
O469 O 0.2506 0.27125 0.7861 0.0
O470 O 0.27887 0.3057 0.76415 0.0
O471 O 0.26235 0.29049 0.69291 0.0
O472 O 0.29805 0.32163 0.69651 0.0
O473 O 0.31552 0.27196 0.78108 0.0
O474 O 0.31097 0.3065 0.76253 0.0
C475 C 0.31297 0.23648 0.72033 0.0
C476 C 0.24732 0.2338 0.72228 0.0
C477 C 0.30946 0.20006 0.80899 0.0
C478 C 0.34301 0.18349 0.82319 0.0
C479 C 0.32889 0.172 0.77066 0.0
C480 C 0.31125 0.1866 0.77882 0.0
C481 C 0.34476 0.17051 0.7926 0.0
C482 C 0.32521 0.19829 0.83127 0.0
C483 C 0.29212 0.21679 0.81676 0.0
C484 C 0.19804 0.25612 0.88429 0.0
C485 C 0.18261 0.23394 0.8685 0.0
H486 H 0.23287 0.29854 0.90893 0.0
C487 C 0.25765 0.29554 0.78273 0.0
C488 C 0.32242 0.29646 0.7798 0.0
C489 C 0.27558 0.31578 0.65153 0.0
C490 C 0.25456 0.32648 0.61139 0.0
C491 C 0.2947 0.31313 0.59697 0.0
C492 C 0.29532 0.31061 0.62832 0.0
C493 C 0.27451 0.321 0.58849 0.0
C494 C 0.25525 0.32371 0.64299 0.0
C495 C 0.27558 0.31262 0.68461 0.0
H496 H 0.3302 0.16172 0.74731 0.0
H497 H 0.29899 0.1874 0.7616 0.0
H498 H 0.35804 0.15875 0.78584 0.0
H499 H 0.3239 0.20866 0.85461 0.0
H500 H 0.31005 0.30915 0.57919 0.0
H501 H 0.31125 0.30474 0.63436 0.0
H502 H 0.27486 0.3233 0.56408 0.0
H503 H 0.23989 0.32752 0.66094 0.0
C504 C 0.79326 0.20379 0.8 0.0
C505 C 0.76309 0.1653 0.77732 0.0
C506 C 0.7795 0.19015 0.77488 0.0
C507 C 0.76012 0.15472 0.80537 0.0
C508 C 0.7906 0.19305 0.82803 0.0
C509 C 0.77389 0.16851 0.8306 0.0
N510 N 0.80881 0.22779 0.79727 0.0
C511 C 0.82295 0.24172 0.8211 0.0
C512 C 0.80461 0.20742 0.85281 0.0
C513 C 0.82089 0.23182 0.84929 0.0
Gd514 Gd 0.76785 0.28763 0.75367 0.0
Gd515 Gd 0.81284 0.24148 0.74804 0.0
N516 N 0.78257 0.2009 0.74795 0.0
C517 C 0.75061 0.15153 0.7512 0.0
C518 C 0.77257 0.18656 0.72161 0.0
C519 C 0.75577 0.16206 0.72306 0.0
H520 H 0.77853 0.1933 0.69905 0.0
H521 H 0.74754 0.15101 0.70217 0.0
H522 H 0.81637 0.34198 0.76202 0.0
H523 H 0.83595 0.26041 0.81828 0.0
H524 H 0.83336 0.38179 0.73821 0.0
H525 H 0.73788 0.1324 0.75213 0.0
H526 H 0.74744 0.13573 0.80767 0.0
H527 H 0.70948 0.25834 0.72785 0.0
H528 H 0.80304 0.19983 0.87472 0.0
H529 H 0.83197 0.24296 0.86823 0.0
H530 H 0.77314 0.37341 0.66257 0.0
H531 H 0.77147 0.16003 0.85203 0.0
H532 H 0.69802 0.29969 0.65869 0.0
H533 H 0.68259 0.26265 0.68838 0.0
N534 N 0.74004 0.29183 0.71934 0.0
C535 C 0.74855 0.31252 0.70388 0.0
C536 C 0.71648 0.27423 0.71448 0.0
C537 C 0.70996 0.2977 0.67568 0.0
C538 C 0.70118 0.27677 0.69239 0.0
C539 C 0.73379 0.31608 0.68159 0.0
H540 H 0.73209 0.34102 0.64903 0.0
N541 N 0.78487 0.32657 0.73338 0.0
C542 C 0.77164 0.33061 0.71132 0.0
C543 C 0.80338 0.37142 0.70644 0.0
C544 C 0.78066 0.35299 0.69694 0.0
C545 C 0.80636 0.34491 0.74376 0.0
C546 C 0.81608 0.36747 0.73025 0.0
O547 O 0.78219 0.2471 0.78943 0.0
O548 O 0.7488 0.24796 0.76429 0.0
O549 O 0.7654 0.30042 0.8035 0.0
O550 O 0.7337 0.29963 0.77676 0.0
O551 O 0.7925 0.23949 0.70468 0.0
O552 O 0.75421 0.24869 0.72728 0.0
O553 O 0.80213 0.29504 0.71534 0.0
O554 O 0.83379 0.27629 0.72367 0.0
O555 O 0.83193 0.21865 0.71262 0.0
O556 O 0.84943 0.23473 0.75569 0.0
O557 O 0.80213 0.30086 0.78375 0.0
O558 O 0.8345 0.27968 0.76956 0.0
C559 C 0.75685 0.23998 0.7865 0.0
C560 C 0.7677 0.23862 0.70348 0.0
C561 C 0.72253 0.28908 0.82904 0.0
C562 C 0.70753 0.28763 0.88494 0.0
C563 C 0.68892 0.25227 0.84655 0.0
C564 C 0.70491 0.26506 0.82217 0.0
C565 C 0.69013 0.26348 0.87782 0.0
C566 C 0.72376 0.30017 0.86028 0.0
C567 C 0.74143 0.3022 0.8046 0.0
C568 C 0.76645 0.35642 0.67407 0.0
C569 C 0.74306 0.33798 0.66638 0.0
H570 H 0.81095 0.38891 0.69601 0.0
C571 C 0.82623 0.29246 0.71075 0.0
C572 C 0.82562 0.29814 0.78547 0.0
C573 C 0.84555 0.19147 0.73806 0.0
C574 C 0.82988 0.14605 0.72186 0.0
C575 C 0.84172 0.16168 0.77484 0.0
C576 C 0.84828 0.18657 0.76802 0.0
C577 C 0.83249 0.14146 0.75193 0.0
C578 C 0.83682 0.17105 0.71508 0.0
C579 C 0.84799 0.2173 0.73162 0.0
H580 H 0.67546 0.23369 0.84117 0.0
H581 H 0.70374 0.25609 0.79811 0.0
H582 H 0.67724 0.25349 0.89634 0.0
H583 H 0.73703 0.31898 0.86522 0.0
H584 H 0.84356 0.15806 0.79805 0.0
H585 H 0.85471 0.20188 0.78645 0.0
H586 H 0.82749 0.12231 0.75763 0.0
H587 H 0.83526 0.17469 0.69172 0.0
C588 C 0.82342 0.82977 0.83496 0.0
C589 C 0.78779 0.82238 0.87774 0.0
C590 C 0.80109 0.81356 0.84951 0.0
C591 C 0.79708 0.84765 0.89097 0.0
C592 C 0.83289 0.85509 0.84833 0.0
C593 C 0.81955 0.86395 0.87633 0.0
N594 N 0.83576 0.82077 0.80765 0.0
C595 C 0.85803 0.83581 0.79301 0.0
C596 C 0.85547 0.87079 0.83309 0.0
C597 C 0.86815 0.86106 0.80539 0.0
Gd598 Gd 0.7682 0.76071 0.7213 0.0
Gd599 Gd 0.81698 0.77839 0.7887 0.0
N600 N 0.7921 0.78933 0.83566 0.0
C601 C 0.76555 0.80551 0.89183 0.0
C602 C 0.77134 0.7725 0.8502 0.0
C603 C 0.75749 0.78039 0.87818 0.0
H604 H 0.76568 0.75291 0.84079 0.0
H605 H 0.74077 0.76702 0.88939 0.0
H606 H 0.82017 0.78183 0.66813 0.0
H607 H 0.8683 0.82824 0.77206 0.0
H608 H 0.84241 0.76514 0.61887 0.0
H609 H 0.75476 0.81156 0.9135 0.0
H610 H 0.78703 0.85478 0.91258 0.0
H611 H 0.71407 0.71412 0.7405 0.0
H612 H 0.86336 0.89037 0.84262 0.0
H613 H 0.88579 0.87297 0.79365 0.0
H614 H 0.78935 0.67918 0.59876 0.0
H615 H 0.82649 0.88338 0.88688 0.0
H616 H 0.71291 0.64958 0.67168 0.0
H617 H 0.69306 0.66962 0.72065 0.0
N618 N 0.74609 0.71874 0.70403 0.0
C619 C 0.75709 0.70826 0.67676 0.0
C620 C 0.72325 0.70533 0.71959 0.0
C621 C 0.72237 0.66901 0.68048 0.0
C622 C 0.71114 0.68024 0.70818 0.0
C623 C 0.74554 0.68307 0.6643 0.0
H624 H 0.74884 0.65336 0.62627 0.0
N625 N 0.791 0.74696 0.67423 0.0
C626 C 0.78007 0.72282 0.66126 0.0
C627 C 0.81478 0.72792 0.61778 0.0
C628 C 0.79187 0.71257 0.63287 0.0
C629 C 0.81261 0.76233 0.65892 0.0
C630 C 0.82504 0.75296 0.63073 0.0
O631 O 0.79036 0.80387 0.78798 0.0
O632 O 0.75247 0.77734 0.76896 0.0
O633 O 0.7631 0.78885 0.69548 0.0
O634 O 0.73042 0.75591 0.7044 0.0
O635 O 0.78651 0.73998 0.78433 0.0
O636 O 0.75046 0.74644 0.76758 0.0
O637 O 0.79581 0.73582 0.71982 0.0
O638 O 0.83316 0.76112 0.74172 0.0
O639 O 0.82335 0.75211 0.81656 0.0
O640 O 0.85542 0.78474 0.80463 0.0
O641 O 0.79983 0.79839 0.72409 0.0
O642 O 0.83579 0.79303 0.74274 0.0
C643 C 0.76479 0.79827 0.78567 0.0
C644 C 0.76095 0.73373 0.78228 0.0
C645 C 0.73215 0.77409 0.65819 0.0
C646 C 0.7128 0.78878 0.61985 0.0
C647 C 0.73325 0.7546 0.60387 0.0
C648 C 0.73916 0.75621 0.63452 0.0
C649 C 0.72022 0.77077 0.5965 0.0
C650 C 0.71883 0.79028 0.65081 0.0
C651 C 0.73887 0.77628 0.69049 0.0
C652 C 0.78048 0.68743 0.62049 0.0
C653 C 0.75741 0.67272 0.63616 0.0
H654 H 0.82447 0.72073 0.59594 0.0
C655 C 0.82106 0.74089 0.72367 0.0
C656 C 0.82542 0.80446 0.726 0.0
C657 C 0.85533 0.76932 0.85253 0.0
C658 C 0.87176 0.75446 0.89356 0.0
C659 C 0.8624 0.79525 0.90282 0.0
C660 C 0.85471 0.79152 0.87267 0.0
C661 C 0.87095 0.77699 0.9132 0.0
C662 C 0.86375 0.7508 0.86311 0.0
C663 C 0.84763 0.76534 0.82036 0.0
H664 H 0.73874 0.7407 0.58577 0.0
H665 H 0.74911 0.74346 0.63965 0.0
H666 H 0.7156 0.76893 0.5726 0.0
H667 H 0.71352 0.80424 0.66903 0.0
H668 H 0.86201 0.81252 0.91812 0.0
H669 H 0.84858 0.8061 0.86506 0.0
H670 H 0.87743 0.78081 0.93644 0.0
H671 H 0.86394 0.73354 0.84761 0.0
Co672 Co 0.071 0.96913 0.49396 0.0
Co673 Co 0.06539 0.99993 0.54594 0.0
Co674 Co 0.04021 1.01468 0.49597 0.0
O675 O 0.07062 1.00398 0.50325 0.0
H676 H 0.08751 1.01596 0.49792 0.0
O677 O 1.00932 0.02397 0.4885 0.0
Co678 Co 1.00191 0.055 0.50271 0.0
Co679 Co 1.01276 0.03119 0.4479 0.0
H680 H 0.99351 1.01002 0.49121 0.0
O681 O 0.09157 0.99726 0.56719 0.0
O682 O 0.06298 0.96567 0.53997 0.0
O683 O 1.033 1.00368 0.57007 0.0
O684 O 1.01433 0.99201 0.52591 0.0
O685 O 0.04834 0.04291 0.53091 0.0
O686 O 0.99001 0.08217 0.516 0.0
O687 O 0.9675 0.04215 0.49953 0.0
O688 O 0.03856 0.07237 0.5098 0.0
O689 O 0.0662 0.03773 0.46645 0.0
O690 O 0.0463 0.03361 0.4237 0.0
O691 O 1.0079 0.06309 0.45833 0.0
O692 O 0.98425 0.02979 0.42788 0.0
C693 C 0.0993 0.95089 0.49112 0.0
C694 C 1.02446 0.96399 0.46565 0.0
C695 C 1.01268 0.99326 0.55584 0.0
C696 C 0.08131 0.97325 0.5591 0.0
C697 C 0.96769 0.06529 0.51026 0.0
C698 C 0.05128 0.06604 0.52838 0.0
C699 C 0.06702 0.04066 0.43759 0.0
C700 C 0.9899 0.05362 0.43892 0.0
O701 O 0.07509 0.93856 0.48604 0.0
O702 O 0.1059 0.9755 0.49733 0.0
O703 O 1.03202 0.98702 0.46084 0.0
O704 O 1.03384 0.95696 0.48693 0.0
Co705 Co 0.56981 0.97137 0.97601 0.0
Co706 Co 0.5692 0.99022 0.03432 0.0
Co707 Co 0.53841 0.01924 1.00367 0.0
O708 O 0.56916 1.00439 0.9988 0.0
H709 H 0.5859 0.017 0.99491 0.0
O710 O 0.50768 0.03404 0.00882 0.0
Co711 Co 0.50783 0.06749 0.0307 0.0
Co712 Co 0.5068 0.04684 0.97265 0.0
H713 H 0.49095 0.02163 0.01354 0.0
O714 O 0.60057 0.9902 0.04549 0.0
O715 O 0.57289 0.95903 0.01606 0.0
O716 O 0.53822 0.9847 0.0645 0.0
O717 O 0.51465 0.99616 0.03461 0.0
O718 O 0.55458 0.04474 0.0382 0.0
O719 O 0.50501 0.0972 0.05163 0.0
O720 O 0.47179 0.06216 0.0415 0.0
O721 O 0.54582 0.07785 0.02445 0.0
O722 O 0.56191 0.04257 0.97267 0.0
O723 O 0.53689 0.05043 0.94121 0.0
O724 O 0.50469 0.07877 0.99021 0.0
O725 O 0.47527 0.04781 0.96275 0.0
C726 C 0.59849 0.9539 0.95235 0.0
C727 C 0.51739 0.9698 0.96874 0.0
C728 C 0.5162 0.98565 0.05804 0.0
C729 C 0.59376 0.96713 0.03158 0.0
C730 C 0.47973 0.08577 0.05413 0.0
C731 C 0.55985 0.0686 0.03797 0.0
C732 C 0.55941 0.05137 0.94819 0.0
C733 C 0.4831 0.07098 0.97611 0.0
O734 O 0.5733 0.94216 0.95417 0.0
O735 O 0.60596 0.97733 0.96575 0.0
O736 O 0.52223 0.99369 0.96913 0.0
O737 O 0.53176 0.96047 0.98163 0.0
Co738 Co 0.06948 0.47312 0.97943 0.0
Co739 Co 0.07273 0.4936 0.03786 0.0
Co740 Co 0.04 0.52199 0.00872 0.0
O741 O 0.07072 0.50679 1.00185 0.0
H742 H 0.08735 0.51907 0.99635 0.0
O743 O 1.00915 0.53693 0.01553 0.0
Co744 Co 1.00941 0.5704 0.03736 0.0
Co745 Co 1.00706 0.54953 0.97936 0.0
H746 H 0.9926 0.5245 0.02091 0.0
O747 O 0.10385 0.48928 0.04626 0.0
O748 O 0.07231 0.46108 0.01931 0.0
O749 O 0.04329 0.49034 0.07017 0.0
O750 O 1.01751 0.4984 0.03988 0.0
O751 O 0.05743 0.54741 0.04274 0.0
O752 O 1.00646 0.60015 0.05834 0.0
O753 O 0.97339 0.56507 0.04781 0.0
O754 O 0.04746 0.58074 0.03122 0.0
O755 O 0.06245 0.54546 0.97751 0.0
O756 O 0.03619 0.55209 0.94672 0.0
O757 O 1.00672 0.58205 0.99691 0.0
O758 O 0.9758 0.55248 0.97023 0.0
C759 C 0.09683 0.45418 0.95554 0.0
C760 C 1.01758 0.47306 0.97358 0.0
C761 C 1.02055 0.48937 0.0639 0.0
C762 C 0.09403 0.46652 0.03269 0.0
C763 C 0.98118 0.5887 0.0604 0.0
C764 C 0.06271 0.57129 0.0424 0.0
C765 C 0.05908 0.55352 0.95295 0.0
C766 C 0.98523 0.57567 0.98276 0.0
O767 O 0.07145 0.44324 0.95814 0.0
O768 O 0.10532 0.47776 0.96805 0.0
O769 O 1.02271 0.49699 0.97444 0.0
O770 O 1.0316 0.46344 0.98651 0.0
Co771 Co 0.5721 0.47369 0.98814 0.0
Co772 Co 0.56497 0.50008 0.04255 0.0
Co773 Co 0.53703 0.51651 0.9968 0.0
O774 O 0.56859 0.50686 1.00156 0.0
H775 H 0.58484 0.52001 0.99737 0.0
O776 O 0.50497 0.5252 0.99205 0.0
Co777 Co 0.49242 0.55135 0.01643 0.0
Co778 Co 0.5063 0.54057 0.95783 0.0
H779 H 0.49052 0.50984 0.99028 0.0
O780 O 0.59344 0.50151 0.06145 0.0
O781 O 0.56791 0.46748 0.03349 0.0
O782 O 0.53252 0.50003 0.06891 0.0
O783 O 0.51218 0.49274 0.02619 0.0
O784 O 0.54599 0.54348 0.03278 0.0
O785 O 0.47619 0.57328 0.03871 0.0
O786 O 0.45836 0.53449 0.01374 0.0
O787 O 0.52792 0.57237 0.02375 0.0
O788 O 0.56203 0.54034 0.96731 0.0
O789 O 0.53991 0.55143 0.93491 0.0
O790 O 0.4938 0.56705 0.97752 0.0
O791 O 0.47661 0.5365 0.93915 0.0
C792 C 0.60308 0.45853 0.97947 0.0
C793 C 0.52307 0.46616 0.96467 0.0
C794 C 0.51155 0.49183 0.05556 0.0
C795 C 0.58662 0.47736 0.05208 0.0
C796 C 0.45542 0.5551 0.03068 0.0
C797 C 0.54542 0.56634 0.03554 0.0
C798 C 0.5614 0.55118 0.94368 0.0
C799 C 0.47682 0.55772 0.95681 0.0
O800 O 0.57908 0.44454 0.97578 0.0
O801 O 0.60751 0.48277 0.98816 0.0
O802 O 0.52845 0.48939 0.9611 0.0
O803 O 0.5346 0.45939 0.98413 0.0
Co804 Co 0.08722 0.4917 0.50045 0.0
Co805 Co 0.07236 0.48963 0.44722 0.0
Co806 Co 0.03907 0.52109 0.501 0.0
O807 O 0.05437 0.49159 0.48717 0.0
H808 H 0.04092 0.47573 0.48972 0.0
O809 O 1.02366 0.55054 0.51469 0.0
Co810 Co 0.99012 0.54967 0.50229 0.0
Co811 Co 1.00644 0.55261 0.55502 0.0
H812 H 0.03688 0.56643 0.51161 0.0
O813 O 0.07335 0.45854 0.42463 0.0
O814 O 0.10321 0.48398 0.4559 0.0
O815 O 0.08099 0.52001 0.42787 0.0
O816 O 0.06058 0.54181 0.46629 0.0
O817 O 1.01022 0.50354 0.47379 0.0
O818 O 0.96089 0.5514 0.48934 0.0
O819 O 0.99826 0.58284 0.49685 0.0
O820 O 0.97728 0.51431 0.50504 0.0
O821 O 1.01758 0.50032 0.53576 0.0
O822 O 0.99889 0.52273 0.57526 0.0
O823 O 0.97505 0.55765 0.54715 0.0
O824 O 1.00562 0.58374 0.57713 0.0
C825 C 0.10179 0.46569 0.5145 0.0
C826 C 0.0925 0.54323 0.51786 0.0
C827 C 0.07537 0.54029 0.44009 0.0
C828 C 0.09583 0.46357 0.43592 0.0
C829 C 0.97437 0.57494 0.48822 0.0
C830 C 0.98575 0.49871 0.48439 0.0
C831 C 1.0038 0.50221 0.56264 0.0
C832 C 0.98278 0.57835 0.56657 0.0
O833 O 0.11577 0.48916 0.51416 0.0
O834 O 0.0781 0.45845 0.50538 0.0
O835 O 0.06799 0.53877 0.52822 0.0
O836 O 0.10093 0.52706 0.49815 0.0
Co837 Co 0.58388 0.98721 0.50615 0.0
Co838 Co 0.57069 0.98638 0.45275 0.0
Co839 Co 0.53877 0.02028 0.50535 0.0
O840 O 0.55219 0.98949 0.49211 0.0
H841 H 0.5379 0.97419 0.49445 0.0
O842 O 0.52537 0.05118 0.51868 0.0
Co843 Co 0.49357 0.053 0.50447 0.0
Co844 Co 0.50671 0.05424 0.5581 0.0
H845 H 0.5396 0.0665 0.51622 0.0
O846 O 0.56976 0.95501 0.42999 0.0
O847 O 0.60018 0.97849 0.46186 0.0
O848 O 0.5808 0.01644 0.43274 0.0
O849 O 0.56031 0.03945 0.46946 0.0
O850 O 0.50893 1.00306 0.47907 0.0
O851 O 0.4662 0.05725 0.48968 0.0
O852 O 0.50494 0.08616 0.49889 0.0
O853 O 0.47769 0.01828 0.5077 0.0
O854 O 0.51732 1.00116 0.5413 0.0
O855 O 0.49668 0.02403 0.57805 0.0
O856 O 0.47706 0.06151 0.5484 0.0
O857 O 0.50666 0.08566 0.58074 0.0
C858 C 0.59531 0.95952 0.52112 0.0
C859 C 0.593 0.03972 0.52236 0.0
C860 C 0.57526 0.037 0.44361 0.0
C861 C 0.59206 0.95869 0.44119 0.0
C862 C 0.4816 0.08021 0.48903 0.0
C863 C 0.48454 1.00107 0.48839 0.0
C864 C 0.50237 1.00353 0.56718 0.0
C865 C 0.48453 0.08147 0.56894 0.0
O866 O 0.61103 0.98238 0.52074 0.0
O867 O 0.57203 0.95401 0.51128 0.0
O868 O 0.56854 0.0374 0.53157 0.0
O869 O 0.60031 0.02231 0.50377 0.0
H870 H 0.26864 0.20336 0.30744 0.0
H871 H 0.24013 0.16884 0.33556 0.0
H872 H 0.1712 0.18757 0.31836 0.0
H873 H 0.19965 0.22268 0.29072 0.0
H874 H 0.17056 0.17914 0.38075 0.0
H875 H 0.19431 0.10152 0.29495 0.0
H876 H 0.22259 0.12529 0.30914 0.0
H877 H 0.20209 0.13347 0.28574 0.0
C878 C 0.24741 0.20018 0.30955 0.0
C879 C 0.23639 0.21562 0.29645 0.0
C880 C 0.23116 0.18032 0.32549 0.0
C881 C 0.20358 0.17539 0.32855 0.0
C882 C 0.19248 0.19097 0.316 0.0
H883 H 0.07724 0.0467 0.37529 0.0
H884 H 0.11302 0.07869 0.35044 0.0
C885 C 0.20874 0.21092 0.30006 0.0
C886 C 0.18631 0.15418 0.34522 0.0
H887 H 0.1678 0.08991 0.34223 0.0
C888 C 0.16998 0.15962 0.37244 0.0
C889 C 0.18555 0.12877 0.33411 0.0
C890 C 0.20188 0.12179 0.30424 0.0
C891 C 0.15269 0.14026 0.38879 0.0
C892 C 0.15213 0.11484 0.37789 0.0
C893 C 0.1686 0.10944 0.35077 0.0
C894 C 0.13268 0.09354 0.39249 0.0
C895 C 0.13451 0.14712 0.41692 0.0
C896 C 0.1325 0.09057 0.4241 0.0
C897 C 0.11196 0.07223 0.4385 0.0
C898 C 0.09134 0.0566 0.42143 0.0
C899 C 0.09265 0.05857 0.38922 0.0
C900 C 0.11312 0.07684 0.37493 0.0
H901 H 0.13365 0.16688 0.4183 0.0
H902 H 0.11413 0.13421 0.41611 0.0
H903 H 0.14183 0.14526 0.43878 0.0
H904 H 0.14775 0.10297 0.43788 0.0
H905 H 0.1116 0.07114 0.4633 0.0
H906 H 0.82336 0.15257 0.3677 0.0
H907 H 0.85252 0.13758 0.39298 0.0
H908 H 0.91787 0.16793 0.32492 0.0
H909 H 0.88847 0.18128 0.29805 0.0
H910 H 0.91522 0.12177 0.32905 0.0
H911 H 0.90805 0.17012 0.45053 0.0
H912 H 0.87593 0.15272 0.43936 0.0
H913 H 0.89566 0.17893 0.41887 0.0
C914 C 0.84392 0.15604 0.358 0.0
C915 C 0.8534 0.16799 0.33057 0.0
C916 C 0.86073 0.14788 0.37293 0.0
C917 C 0.88756 0.15198 0.36123 0.0
C918 C 0.8973 0.16469 0.33455 0.0
H919 H 1.00065 0.10532 0.44894 0.0
H920 H 0.9768 0.13109 0.43144 0.0
C921 C 0.88043 0.17252 0.31932 0.0
C922 C 0.9047 0.1406 0.37456 0.0
H923 H 0.92409 0.13328 0.44322 0.0
C924 C 0.91743 0.12465 0.35397 0.0
C925 C 0.9079 0.14448 0.40704 0.0
C926 C 0.89638 0.16272 0.43013 0.0
C927 C 0.93245 0.11183 0.36499 0.0
C928 C 0.93417 0.11437 0.39767 0.0
C929 C 0.92237 0.13106 0.41823 0.0
C930 C 0.94741 0.09909 0.41071 0.0
C931 C 0.94631 0.09561 0.34143 0.0
C932 C 0.93825 0.07264 0.40575 0.0
C933 C 0.95192 0.05797 0.41532 0.0
C934 C 0.97485 0.06945 0.43049 0.0
C935 C 0.98323 0.09595 0.43697 0.0
C936 C 0.9696 0.11068 0.42711 0.0
H937 H 0.94974 0.10165 0.31757 0.0
H938 H 0.96565 0.09631 0.34862 0.0
H939 H 0.93373 0.07571 0.33983 0.0
H940 H 0.92075 0.06331 0.3939 0.0
H941 H 0.94459 0.03759 0.41055 0.0
H942 H 0.84135 0.84891 0.28479 0.0
H943 H 0.87613 0.87645 0.31601 0.0
H944 H 0.88313 0.81165 0.35214 0.0
H945 H 0.84889 0.78403 0.3208 0.0
H946 H 0.87721 0.8841 0.38064 0.0
H947 H 0.95975 0.84597 0.32263 0.0
H948 H 0.92906 0.83911 0.30579 0.0
H949 H 0.93113 0.82227 0.33687 0.0
C950 C 0.85044 0.84046 0.29915 0.0
C951 C 0.84231 0.81415 0.30002 0.0
C952 C 0.87031 0.85627 0.31708 0.0
C953 C 0.88263 0.84614 0.33611 0.0
C954 C 0.87445 0.81992 0.33713 0.0
H955 H 1.00351 0.91249 0.46642 0.0
H956 H 0.96848 0.88361 0.43631 0.0
C957 C 0.85467 0.80413 0.31923 0.0
C958 C 0.90342 0.86298 0.35564 0.0
H959 H 0.96764 0.87417 0.36977 0.0
C960 C 0.89701 0.88199 0.37813 0.0
C961 C 0.92928 0.86021 0.35257 0.0
C962 C 0.93786 0.84095 0.32797 0.0
C963 C 0.91555 0.89801 0.3978 0.0
C964 C 0.94142 0.89528 0.39467 0.0
C965 C 0.9478 0.87619 0.37232 0.0
C966 C 0.96241 0.91272 0.41342 0.0
C967 C 0.90714 0.9175 0.42218 0.0
C968 C 0.97089 0.93861 0.41036 0.0
C969 C 0.99088 0.95508 0.42739 0.0
C970 C 1.00304 0.94609 0.44793 0.0
C971 C 0.99458 0.92009 0.45093 0.0
C972 C 0.97457 0.90356 0.43369 0.0
H973 H 0.88526 0.91266 0.42751 0.0
H974 H 0.91594 0.9194 0.44439 0.0
H975 H 0.91408 0.9361 0.41309 0.0
H976 H 0.96223 0.9461 0.39446 0.0
H977 H 0.99682 0.97493 0.42433 0.0
H978 H 0.22175 0.79883 0.39651 0.0
H979 H 0.2265 0.83113 0.44244 0.0
H980 H 0.14149 0.8102 0.46445 0.0
H981 H 0.13684 0.77795 0.41944 0.0
H982 H 0.21053 0.86885 0.44012 0.0
H983 H 0.15989 0.83513 0.55059 0.0
H984 H 0.17107 0.81408 0.51888 0.0
H985 H 0.13839 0.81822 0.52158 0.0
C986 C 0.2042 0.80054 0.412 0.0
C987 C 0.17887 0.78623 0.40414 0.0
C988 C 0.20695 0.81889 0.43835 0.0
C989 C 0.18441 0.82322 0.45714 0.0
C990 C 0.15933 0.80698 0.45108 0.0
H991 H 0.09107 0.90034 0.47706 0.0
H992 H 0.1203 0.87558 0.48147 0.0
C993 C 0.1566 0.78855 0.42498 0.0
C994 C 0.18586 0.84789 0.47679 0.0
H995 H 0.14607 0.87138 0.53511 0.0
C996 C 0.1976 0.8698 0.46193 0.0
C997 C 0.16973 0.84963 0.50573 0.0
C998 C 0.15939 0.82794 0.52516 0.0
C999 C 0.18962 0.89178 0.47192 0.0
C1000 C 0.16948 0.89163 0.4973 0.0
C1001 C 0.16124 0.87136 0.51531 0.0
C1002 C 0.15159 0.90752 0.49875 0.0
C1003 C 0.19992 0.91357 0.45256 0.0
C1004 C 0.15953 0.93382 0.50702 0.0
C1005 C 0.14279 0.94826 0.50414 0.0
C1006 C 0.118 0.93649 0.49298 0.0
C1007 C 0.1101 0.91011 0.4854 0.0
C1008 C 0.12668 0.89584 0.48828 0.0
H1009 H 0.21622 0.91101 0.43417 0.0
H1010 H 0.18362 0.91552 0.4409 0.0
H1011 H 0.20737 0.93143 0.46808 0.0
H1012 H 0.17868 0.94313 0.51526 0.0
H1013 H 0.14917 0.96852 0.51076 0.0
H1014 H 0.13788 0.81054 0.69697 0.0
H1015 H 0.12168 0.82865 0.65891 0.0
H1016 H 0.18922 0.89468 0.66586 0.0
H1017 H 0.20594 0.87611 0.70278 0.0
H1018 H 0.10609 0.86901 0.6693 0.0
H1019 H 0.18835 0.88442 0.57332 0.0
H1020 H 0.18616 0.86452 0.60306 0.0
H1021 H 0.19984 0.89833 0.61062 0.0
C1022 C 0.14943 0.82874 0.6899 0.0
C1023 C 0.17316 0.84194 0.70269 0.0
C1024 C 0.14022 0.83905 0.66813 0.0
C1025 C 0.15444 0.86286 0.65897 0.0
C1026 C 0.17832 0.87592 0.67158 0.0
H1027 H 0.12502 0.98348 0.58969 0.0
H1028 H 0.14207 0.95369 0.60931 0.0
C1029 C 0.18777 0.86542 0.69291 0.0
C1030 C 0.14296 0.8752 0.63903 0.0
H1031 H 0.15811 0.90974 0.57703 0.0
C1032 C 0.11726 0.87737 0.64867 0.0
C1033 C 0.15749 0.88617 0.61207 0.0
C1034 C 0.18436 0.883 0.59898 0.0
C1035 C 0.10623 0.89124 0.63314 0.0
C1036 C 0.12127 0.90319 0.60721 0.0
C1037 C 0.14663 0.90045 0.59691 0.0
C1038 C 0.1119 0.92054 0.59252 0.0
C1039 C 0.07911 0.8941 0.64561 0.0
C1040 C 0.08951 0.91167 0.57605 0.0
C1041 C 0.07953 0.92872 0.56492 0.0
C1042 C 0.09189 0.95486 0.57003 0.0
C1043 C 0.1148 0.96351 0.58569 0.0
C1044 C 0.12473 0.9465 0.59672 0.0
H1045 H 0.0718 0.88687 0.66871 0.0
H1046 H 0.07938 0.91427 0.64824 0.0
H1047 H 0.06486 0.88339 0.62863 0.0
H1048 H 0.07955 0.89162 0.57225 0.0
H1049 H 0.06204 0.92145 0.55264 0.0
H1050 H 0.2024 0.24263 0.7099 0.0
H1051 H 0.16809 0.21462 0.67846 0.0
H1052 H 0.21225 0.15961 0.65805 0.0
H1053 H 0.24536 0.18676 0.69153 0.0
H1054 H 0.16591 0.19816 0.6217 0.0
H1055 H 0.14373 0.11281 0.68089 0.0
H1056 H 0.16488 0.14268 0.69631 0.0
H1057 H 0.17798 0.1221 0.66582 0.0
C1058 C 0.2045 0.22436 0.69906 0.0
C1059 C 0.22632 0.2167 0.70357 0.0
C1060 C 0.18493 0.20834 0.68093 0.0
C1061 C 0.18698 0.1845 0.66622 0.0
C1062 C 0.20933 0.17727 0.67005 0.0
H1063 H 0.09445 0.10377 0.50913 0.0
H1064 H 0.12754 0.13274 0.54164 0.0
C1065 C 0.22844 0.19292 0.68904 0.0
C1066 C 0.16623 0.16771 0.64624 0.0
H1067 H 0.12826 0.10671 0.63055 0.0
C1068 C 0.15749 0.1782 0.62397 0.0
C1069 C 0.15464 0.14166 0.64924 0.0
C1070 C 0.16058 0.12926 0.67461 0.0
C1071 C 0.13787 0.16358 0.60472 0.0
C1072 C 0.1275 0.13721 0.60637 0.0
C1073 C 0.13619 0.12678 0.62874 0.0
C1074 C 0.10716 0.1201 0.58602 0.0
C1075 C 0.12792 0.17695 0.58375 0.0
C1076 C 0.08498 0.10245 0.5995 0.0
C1077 C 0.06673 0.08522 0.5807 0.0
C1078 C 0.06969 0.08563 0.54803 0.0
C1079 C 0.09143 0.10347 0.53438 0.0
C1080 C 0.11025 0.1202 0.5531 0.0
H1081 H 0.13058 0.19716 0.59323 0.0
H1082 H 0.13948 0.17641 0.56017 0.0
H1083 H 0.10663 0.16796 0.58106 0.0
H1084 H 0.08186 0.10177 0.62468 0.0
H1085 H 0.05023 0.07149 0.59174 0.0
H1086 H 0.79476 0.14035 0.67945 0.0
H1087 H 0.79428 0.11467 0.62802 0.0
H1088 H 0.84894 0.08031 0.65454 0.0
H1089 H 0.84912 0.10551 0.70563 0.0
H1090 H 0.83758 0.12516 0.59096 0.0
H1091 H 0.81265 0.02363 0.5949 0.0
H1092 H 0.80087 0.04414 0.6268 0.0
H1093 H 0.83234 0.03804 0.62648 0.0
C1094 C 0.80574 0.12647 0.67467 0.0
C1095 C 0.82241 0.12522 0.6962 0.0
C1096 C 0.80536 0.11175 0.64533 0.0
C1097 C 0.82159 0.09555 0.63724 0.0
C1098 C 0.83574 0.09218 0.66027 0.0
H1099 H 0.9575 0.10711 0.54537 0.0
H1100 H 0.91414 0.11354 0.5629 0.0
C1101 C 0.83601 0.10678 0.68958 0.0
C1102 C 0.82958 0.08757 0.60379 0.0
H1103 H 0.85652 0.04239 0.56285 0.0
C1104 C 0.84075 0.10667 0.58412 0.0
C1105 C 0.83292 0.06329 0.59379 0.0
C1106 C 0.81869 0.04112 0.6116 0.0
C1107 C 0.85894 0.10337 0.55793 0.0
C1108 C 0.86639 0.08073 0.55193 0.0
C1109 C 0.85164 0.0602 0.56811 0.0
C1110 C 0.89251 0.07985 0.53507 0.0
C1111 C 0.87161 0.12493 0.53861 0.0
C1112 C 0.89495 0.05896 0.51331 0.0
C1113 C 0.91976 0.05502 0.50378 0.0
C1114 C 0.9425 0.07188 0.51593 0.0
C1115 C 0.94032 0.0938 0.53571 0.0
C1116 C 0.91549 0.09762 0.54543 0.0
H1117 H 0.85683 0.13458 0.53583 0.0
H1118 H 0.88748 0.13911 0.55107 0.0
H1119 H 0.88029 0.1184 0.51492 0.0
H1120 H 0.87752 0.04499 0.5051 0.0
H1121 H 0.92095 0.03815 0.48799 0.0
H1122 H 0.87957 0.81763 0.71445 0.0
H1123 H 0.90833 0.85173 0.68549 0.0
H1124 H 0.83995 0.87108 0.66764 0.0
H1125 H 0.8111 0.83758 0.69725 0.0
H1126 H 0.90924 0.85815 0.6233 0.0
H1127 H 0.88694 0.93903 0.70368 0.0
H1128 H 0.8782 0.9076 0.71491 0.0
H1129 H 0.85829 0.91535 0.6903 0.0
C1130 C 0.87065 0.82937 0.70478 0.0
C1131 C 0.84305 0.8251 0.70861 0.0
C1132 C 0.88711 0.84874 0.68807 0.0
C1133 C 0.87629 0.86419 0.67487 0.0
C1134 C 0.84875 0.85975 0.67823 0.0
H1135 H 0.96821 0.96056 0.53217 0.0
H1136 H 0.93246 0.9302 0.56024 0.0
C1137 C 0.83228 0.84045 0.69501 0.0
C1138 C 0.89383 0.88452 0.6569 0.0
H1139 H 0.91322 0.94841 0.65543 0.0
C1140 C 0.9101 0.87789 0.63026 0.0
C1141 C 0.89501 0.91026 0.66623 0.0
C1142 C 0.87888 0.9186 0.6955 0.0
C1143 C 0.92765 0.89631 0.61271 0.0
C1144 C 0.92853 0.92202 0.62172 0.0
C1145 C 0.9122 0.92865 0.64833 0.0
C1146 C 0.94788 0.94243 0.60535 0.0
C1147 C 0.94573 0.88815 0.58535 0.0
C1148 C 0.96752 0.96024 0.62178 0.0
C1149 C 0.98776 0.97775 0.60596 0.0
C1150 C 0.98879 0.97779 0.57332 0.0
C1151 C 0.96813 0.96095 0.55727 0.0
C1152 C 0.94779 0.94345 0.5732 0.0
H1153 H 0.94668 0.86865 0.5859 0.0
H1154 H 0.93822 0.88852 0.56299 0.0
H1155 H 0.96611 0.90119 0.58527 0.0
H1156 H 0.96783 0.9599 0.64665 0.0
H1157 H 1.00321 0.99057 0.61914 0.0
H1158 H 0.36904 0.25249 0.20844 0.0
H1159 H 0.39443 0.22437 0.1794 0.0
H1160 H 0.32185 0.16597 0.16357 0.0
H1161 H 0.2964 0.19384 0.19294 0.0
H1162 H 0.39614 0.17798 0.19156 0.0
H1163 H 0.36063 0.16698 0.07487 0.0
H1164 H 0.35541 0.19118 0.10618 0.0
H1165 H 0.3348 0.15918 0.10662 0.0
C1166 C 0.3584 0.23369 0.19877 0.0
C1167 C 0.33051 0.22571 0.20281 0.0
C1168 C 0.37301 0.21757 0.18203 0.0
C1169 C 0.36023 0.19304 0.1686 0.0
C1170 C 0.33237 0.18493 0.17286 0.0
H1171 H 0.42464 0.0706 0.06173 0.0
H1172 H 0.39471 0.09525 0.08932 0.0
C1173 C 0.31775 0.20099 0.18976 0.0
C1174 C 0.37611 0.17577 0.15131 0.0
H1175 H 0.38792 0.1416 0.08 0.0
C1176 C 0.39431 0.1701 0.16715 0.0
C1177 C 0.37374 0.16514 0.11944 0.0
C1178 C 0.35528 0.17104 0.10061 0.0
C1179 C 0.40998 0.15423 0.1523 0.0
C1180 C 0.40805 0.14398 0.12026 0.0
C1181 C 0.38953 0.14931 0.10449 0.0
C1182 C 0.42599 0.12881 0.10257 0.0
C1183 C 0.42823 0.14829 0.17139 0.0
C1184 C 0.4536 0.13938 0.10006 0.0
C1185 C 0.47066 0.12536 0.08442 0.0
C1186 C 0.46077 0.10023 0.07051 0.0
C1187 C 0.43307 0.08974 0.07236 0.0
C1188 C 0.4159 0.1039 0.08808 0.0
H1189 H 0.42162 0.15078 0.19701 0.0
H1190 H 0.42946 0.12862 0.1645 0.0
H1191 H 0.44838 0.1614 0.1673 0.0
H1192 H 0.46207 0.15867 0.1102 0.0
H1193 H 0.49178 0.13436 0.08334 0.0
H1194 H 0.83762 0.35488 0.24492 0.0
H1195 H 0.87055 0.38633 0.21568 0.0
H1196 H 0.86377 0.33289 0.13136 0.0
H1197 H 0.83047 0.30122 0.16065 0.0
H1198 H 0.91592 0.35738 0.14265 0.0
H1199 H 0.85914 0.4269 0.15137 0.0
H1200 H 0.86048 0.41755 0.18865 0.0
H1201 H 0.84375 0.39457 0.15886 0.0
C1202 C 0.84284 0.34991 0.22004 0.0
C1203 C 0.83143 0.32561 0.20501 0.0
C1204 C 0.86165 0.36794 0.20335 0.0
C1205 C 0.86929 0.36214 0.17121 0.0
C1206 C 0.85799 0.33784 0.1561 0.0
H1207 H 0.96914 0.4732 0.04991 0.0
H1208 H 0.93191 0.44242 0.07525 0.0
C1209 C 0.83908 0.31976 0.17283 0.0
C1210 C 0.8899 0.38119 0.15389 0.0
H1211 H 0.90559 0.44147 0.13537 0.0
C1212 C 0.9136 0.37569 0.14085 0.0
C1213 C 0.88669 0.40494 0.15113 0.0
C1214 C 0.86105 0.41132 0.16296 0.0
C1215 C 0.93452 0.39361 0.12603 0.0
C1216 C 0.93186 0.41787 0.12476 0.0
C1217 C 0.90779 0.42305 0.13682 0.0
C1218 C 0.95387 0.43804 0.11094 0.0
C1219 C 0.95919 0.38627 0.11163 0.0
C1220 C 0.97831 0.44657 0.12331 0.0
C1221 C 0.99965 0.46415 0.10891 0.0
C1222 C 0.99694 0.4738 0.08195 0.0
C1223 C 0.97198 0.46624 0.07064 0.0
C1224 C 0.95067 0.44855 0.08502 0.0
H1225 H 0.95525 0.36541 0.10669 0.0
H1226 H 0.96746 0.39459 0.08936 0.0
H1227 H 0.97438 0.39339 0.12834 0.0
H1228 H 0.98105 0.43925 0.14381 0.0
H1229 H 1.01847 0.46966 0.11844 0.0
H1230 H 0.67881 0.84746 0.19591 0.0
H1231 H 0.65385 0.8573 0.15927 0.0
H1232 H 0.72686 0.89006 0.10331 0.0
H1233 H 0.75186 0.87959 0.13961 0.0
H1234 H 0.65685 0.90348 0.1507 0.0
H1235 H 0.68158 0.85266 0.03469 0.0
H1236 H 0.68863 0.84544 0.071 0.0
H1237 H 0.71052 0.8718 0.05242 0.0
C1238 C 0.68949 0.85634 0.17545 0.0
C1239 C 0.71728 0.86288 0.17068 0.0
C1240 C 0.67521 0.8619 0.15447 0.0
C1241 C 0.68837 0.87427 0.12829 0.0
C1242 C 0.71612 0.87997 0.12282 0.0
H1243 H 0.64463 0.98027 0.04451 0.0
H1244 H 0.66692 0.95418 0.06338 0.0
C1245 C 0.73044 0.87411 0.14368 0.0
C1246 C 0.67329 0.88386 0.10927 0.0
H1247 H 0.66256 0.88662 0.03417 0.0
C1248 C 0.65782 0.89938 0.12527 0.0
C1249 C 0.67442 0.87858 0.07602 0.0
C1250 C 0.68947 0.861 0.05755 0.0
C1251 C 0.64424 0.91037 0.10902 0.0
C1252 C 0.64632 0.90602 0.07581 0.0
C1253 C 0.66109 0.88996 0.05966 0.0
C1254 C 0.63479 0.91984 0.05804 0.0
C1255 C 0.62823 0.92718 0.12743 0.0
C1256 C 0.60969 0.90887 0.04755 0.0
C1257 C 0.5968 0.92381 0.03656 0.0
C1258 C 0.6088 0.94991 0.03636 0.0
C1259 C 0.6347 0.96029 0.04478 0.0
C1260 C 0.64755 0.9454 0.05544 0.0
H1261 H 0.62525 0.92554 0.15304 0.0
H1262 H 0.63867 0.94716 0.12408 0.0
H1263 H 0.60857 0.92239 0.11871 0.0
H1264 H 0.5995 0.88915 0.04952 0.0
H1265 H 0.57687 0.9153 0.03023 0.0
H1266 H 0.20666 0.74571 0.20194 0.0
H1267 H 0.18047 0.71199 0.16739 0.0
H1268 H 0.24969 0.68811 0.12868 0.0
H1269 H 0.27663 0.72224 0.16352 0.0
H1270 H 0.20868 0.69208 0.08404 0.0
H1271 H 0.16791 0.63389 0.18238 0.0
H1272 H 0.16956 0.66686 0.19155 0.0
H1273 H 0.1996 0.65773 0.18166 0.0
C1274 C 0.21666 0.7336 0.18597 0.0
C1275 C 0.24387 0.73659 0.18605 0.0
C1276 C 0.2015 0.71424 0.1662 0.0
C1277 C 0.21305 0.69739 0.14585 0.0
C1278 C 0.2404 0.70089 0.14445 0.0
H1279 H 0.10193 0.55868 0.0649 0.0
H1280 H 0.14176 0.58737 0.0862 0.0
C1281 C 0.25574 0.72038 0.16441 0.0
C1282 C 0.1958 0.67565 0.12737 0.0
H1283 H 0.14439 0.62255 0.13729 0.0
C1284 C 0.19493 0.67659 0.09543 0.0
C1285 C 0.17807 0.65537 0.14225 0.0
C1286 C 0.17884 0.65315 0.17631 0.0
C1287 C 0.17578 0.6584 0.07839 0.0
C1288 C 0.15679 0.6391 0.09391 0.0
C1289 C 0.15874 0.63741 0.1254 0.0
C1290 C 0.13369 0.62155 0.07878 0.0
C1291 C 0.17589 0.66027 0.04403 0.0
C1292 C 0.11574 0.63115 0.06771 0.0
C1293 C 0.09297 0.61484 0.05554 0.0
C1294 C 0.08742 0.58847 0.05444 0.0
C1295 C 0.1055 0.57886 0.0654 0.0
C1296 C 0.12834 0.59524 0.07754 0.0
H1297 H 0.19599 0.67001 0.03339 0.0
H1298 H 0.16897 0.64129 0.03049 0.0
H1299 H 0.16246 0.67149 0.04174 0.0
H1300 H 0.11899 0.65136 0.06918 0.0
H1301 H 0.0795 0.62298 0.04749 0.0
H1302 H 0.32091 0.84706 0.8059 0.0
H1303 H 0.35198 0.87781 0.83932 0.0
H1304 H 0.38794 0.82031 0.84866 0.0
H1305 H 0.35705 0.78945 0.81562 0.0
H1306 H 0.37694 0.85087 0.90658 0.0
H1307 H 0.43208 0.90821 0.81098 0.0
H1308 H 0.39673 0.90246 0.81627 0.0
H1309 H 0.41062 0.87656 0.80307 0.0
C1310 C 0.33534 0.84089 0.81515 0.0
C1311 C 0.33651 0.81575 0.80783 0.0
C1312 C 0.35318 0.85855 0.83412 0.0
C1313 C 0.37247 0.8514 0.84614 0.0
C1314 C 0.37328 0.82624 0.83952 0.0
H1315 H 0.50342 0.91802 0.95764 0.0
H1316 H 0.46708 0.89 0.92947 0.0
C1317 C 0.35559 0.80864 0.8205 0.0
C1318 C 0.39206 0.87004 0.86546 0.0
H1319 H 0.44562 0.92218 0.86169 0.0
C1320 C 0.39192 0.86653 0.89684 0.0
C1321 C 0.41151 0.89046 0.85269 0.0
C1322 C 0.41303 0.89468 0.81885 0.0
C1323 C 0.41072 0.88291 0.91583 0.0
C1324 C 0.43059 0.90301 0.90286 0.0
C1325 C 0.43042 0.90676 0.87162 0.0
C1326 C 0.45214 0.92 0.92096 0.0
C1327 C 0.40888 0.87871 0.94973 0.0
C1328 C 0.45625 0.94627 0.92503 0.0
C1329 C 0.4772 0.9624 0.94088 0.0
C1330 C 0.49459 0.95259 0.95292 0.0
C1331 C 0.49033 0.92624 0.94892 0.0
C1332 C 0.46943 0.91015 0.93296 0.0
H1333 H 0.38856 0.8679 0.95844 0.0
H1334 H 0.42253 0.86762 0.95171 0.0
H1335 H 0.4146 0.89694 0.9652 0.0
H1336 H 0.44326 0.95433 0.91585 0.0
H1337 H 0.47982 0.98257 0.94351 0.0
H1338 H 0.20726 0.28212 0.81436 0.0
H1339 H 0.1822 0.30994 0.84516 0.0
H1340 H 0.24784 0.37497 0.8259 0.0
H1341 H 0.27281 0.34736 0.79491 0.0
H1342 H 0.18992 0.3437 0.8976 0.0
H1343 H 0.18954 0.39555 0.79926 0.0
H1344 H 0.20013 0.36725 0.79315 0.0
H1345 H 0.2223 0.39726 0.80642 0.0
C1346 C 0.21643 0.30234 0.8167 0.0
C1347 C 0.24213 0.31236 0.80184 0.0
C1348 C 0.20199 0.31831 0.83436 0.0
C1349 C 0.21271 0.3448 0.83751 0.0
C1350 C 0.2386 0.35477 0.82324 0.0
H1351 H 0.15064 0.47078 0.93592 0.0
H1352 H 0.17979 0.44513 0.90899 0.0
C1353 C 0.25299 0.33884 0.80553 0.0
C1354 C 0.19694 0.36192 0.85571 0.0
H1355 H 0.17367 0.41181 0.85011 0.0
C1356 C 0.18636 0.35852 0.88708 0.0
C1357 C 0.19211 0.38146 0.84233 0.0
C1358 C 0.20138 0.38549 0.80837 0.0
C1359 C 0.17151 0.37405 0.90526 0.0
C1360 C 0.16669 0.39351 0.89182 0.0
C1361 C 0.17745 0.3971 0.86063 0.0
C1362 C 0.14932 0.40934 0.90909 0.0
C1363 C 0.1613 0.36965 0.93894 0.0
C1364 C 0.12239 0.398 0.91803 0.0
C1365 C 0.10569 0.41261 0.93302 0.0
C1366 C 0.11535 0.43911 0.93977 0.0
C1367 C 0.14243 0.4505 0.93115 0.0
C1368 C 0.15914 0.43581 0.91571 0.0
H1369 H 0.17274 0.35945 0.94849 0.0
H1370 H 0.16213 0.38778 0.95426 0.0
H1371 H 0.14033 0.35798 0.94002 0.0
H1372 H 0.11409 0.37774 0.91293 0.0
H1373 H 0.08505 0.40301 0.93936 0.0
H1374 H 0.71272 0.20447 0.76785 0.0
H1375 H 0.68229 0.17147 0.79723 0.0
H1376 H 0.72851 0.19847 0.87581 0.0
H1377 H 0.75846 0.2322 0.8468 0.0
H1378 H 0.69179 0.133 0.81913 0.0
H1379 H 0.65528 0.19396 0.91946 0.0
H1380 H 0.67379 0.20612 0.88412 0.0
H1381 H 0.69061 0.20009 0.91363 0.0
C1382 C 0.71616 0.20358 0.79158 0.0
C1383 C 0.73802 0.22077 0.80503 0.0
C1384 C 0.69887 0.18461 0.80828 0.0
C1385 C 0.7029 0.18254 0.83889 0.0
C1386 C 0.72461 0.19992 0.85251 0.0
H1387 H 0.60904 0.07306 0.96672 0.0
H1388 H 0.64626 0.10319 0.94012 0.0
C1389 C 0.74187 0.21902 0.83583 0.0
C1390 C 0.68457 0.16183 0.85601 0.0
H1391 H 0.64073 0.14995 0.92199 0.0
C1392 C 0.68066 0.13674 0.84165 0.0
C1393 C 0.6701 0.16663 0.88549 0.0
C1394 C 0.67242 0.19315 0.90152 0.0
C1395 C 0.66247 0.11645 0.8557 0.0
C1396 C 0.64775 0.12133 0.88486 0.0
C1397 C 0.65215 0.14628 0.89968 0.0
C1398 C 0.62642 0.10109 0.89942 0.0
C1399 C 0.659 0.08992 0.83924 0.0
C1400 C 0.60305 0.08972 0.8852 0.0
C1401 C 0.58169 0.07265 0.9004 0.0
C1402 C 0.58332 0.06647 0.9301 0.0
C1403 C 0.60718 0.07716 0.94374 0.0
C1404 C 0.62844 0.09449 0.92866 0.0
H1405 H 0.67579 0.08869 0.82095 0.0
H1406 H 0.65714 0.07658 0.8564 0.0
H1407 H 0.64055 0.08381 0.82762 0.0
H1408 H 0.60095 0.09476 0.86283 0.0
H1409 H 0.56362 0.06484 0.88926 0.0
H1410 H 0.90238 0.72524 0.85973 0.0
H1411 H 0.91971 0.69526 0.8788 0.0
H1412 H 0.88238 0.71159 0.97225 0.0
H1413 H 0.86371 0.74042 0.95309 0.0
H1414 H 0.95347 0.7035 0.92161 0.0
H1415 H 0.85896 0.63589 0.96226 0.0
H1416 H 0.86033 0.66 0.93853 0.0
H1417 H 0.86211 0.66774 0.98028 0.0
C1418 C 0.89731 0.72206 0.88419 0.0
C1419 C 0.88152 0.73532 0.90477 0.0
C1420 C 0.90749 0.70507 0.89516 0.0
C1421 C 0.90214 0.70088 0.92693 0.0
C1422 C 0.88639 0.71404 0.94752 0.0
H1423 H 0.99683 0.626 0.00745 0.0
H1424 H 0.9764 0.65756 0.99774 0.0
C1425 C 0.87602 0.73086 0.93655 0.0
C1426 C 0.9138 0.68339 0.93859 0.0
H1427 H 0.89819 0.63058 0.97591 0.0
C1428 C 0.94137 0.68754 0.93346 0.0
C1429 C 0.89803 0.66247 0.95399 0.0
C1430 C 0.86821 0.65607 0.95884 0.0
C1431 C 0.95356 0.67128 0.9429 0.0
C1432 C 0.93783 0.65058 0.95867 0.0
C1433 C 0.91029 0.6466 0.96415 0.0
C1434 C 0.94919 0.63149 0.96699 0.0
C1435 C 0.98307 0.67591 0.93481 0.0
C1436 C 0.93997 0.60614 0.95415 0.0
C1437 C 0.95129 0.58808 0.96001 0.0
C1438 C 0.97224 0.59489 0.97883 0.0
C1439 C 0.98094 0.62015 0.99258 0.0
C1440 C 0.96939 0.63825 0.98688 0.0
H1441 H 0.99116 0.68886 0.91648 0.0
H1442 H 0.99307 0.68472 0.95619 0.0
H1443 H 0.98806 0.6579 0.92627 0.0
H1444 H 0.92436 0.60038 0.93886 0.0
H1445 H 0.94393 0.56883 0.9491 0.0
H1446 H 0.17637 0.31361 0.14521 0.0
H1447 H 0.15824 0.34289 0.12607 0.0
H1448 H 0.19459 0.32601 0.03224 0.0
H1449 H 0.21418 0.29788 0.05151 0.0
H1450 H 0.20008 0.37487 0.04469 0.0
H1451 H 0.09536 0.32449 0.07797 0.0
H1452 H 0.11378 0.33327 0.11134 0.0
H1453 H 0.12197 0.3111 0.07914 0.0
C1454 C 0.18087 0.31634 0.12058 0.0
C1455 C 0.19664 0.3031 0.09994 0.0
C1456 C 0.17006 0.33281 0.10953 0.0
C1457 C 0.17437 0.33617 0.07749 0.0
C1458 C 0.19064 0.32352 0.05698 0.0
H1459 H 0.07954 0.41635 0.00775 0.0
H1460 H 0.10008 0.38367 0.01303 0.0
C1461 C 0.20167 0.30723 0.06804 0.0
C1462 C 0.16238 0.35326 0.06555 0.0
H1463 H 0.10399 0.36689 0.06613 0.0
C1464 C 0.17902 0.37293 0.04912 0.0
C1465 C 0.13479 0.35044 0.07044 0.0
C1466 C 0.11542 0.32851 0.08536 0.0
C1467 C 0.16904 0.39051 0.03889 0.0
C1468 C 0.14178 0.38884 0.04602 0.0
C1469 C 0.12495 0.36845 0.06103 0.0
C1470 C 0.13063 0.40889 0.04017 0.0
C1471 C 0.1879 0.41072 0.0206 0.0
C1472 C 0.14096 0.43395 0.0535 0.0
C1473 C 0.12944 0.45264 0.0503 0.0
C1474 C 0.10701 0.44669 0.03406 0.0
C1475 C 0.09679 0.42162 0.02039 0.0
C1476 C 0.1085 0.4029 0.02342 0.0
H1477 H 0.20447 0.40401 0.00703 0.0
H1478 H 0.17775 0.41675 1.00401 0.0
H1479 H 0.19657 0.42743 0.03729 0.0
H1480 H 0.15756 0.43899 0.0672 0.0
H1481 H 0.13783 0.47168 0.06127 0.0
H1482 H 0.23033 0.68533 0.7612 0.0
H1483 H 0.19856 0.65501 0.79314 0.0
H1484 H 0.21322 0.70903 0.87624 0.0
H1485 H 0.24529 0.73959 0.8442 0.0
H1486 H 0.20822 0.63535 0.84639 0.0
H1487 H 0.13142 0.68695 0.87727 0.0
H1488 H 0.15494 0.69118 0.84251 0.0
H1489 H 0.16543 0.70475 0.88055 0.0
C1490 C 0.22679 0.69078 0.78629 0.0
C1491 C 0.24025 0.71483 0.80026 0.0
C1492 C 0.20864 0.67343 0.80449 0.0
C1493 C 0.20344 0.67978 0.83702 0.0
C1494 C 0.21673 0.70385 0.8511 0.0
H1495 H 0.11066 0.57101 0.9663 0.0
H1496 H 0.14744 0.60071 0.93871 0.0
C1497 C 0.235 0.72128 0.83283 0.0
C1498 C 0.18409 0.66097 0.85587 0.0
H1499 H 0.12224 0.64806 0.89626 0.0
C1500 C 0.18949 0.63816 0.85755 0.0
C1501 C 0.15961 0.66461 0.87012 0.0
C1502 C 0.15225 0.68812 0.86759 0.0
C1503 C 0.17084 0.61875 0.87274 0.0
C1504 C 0.1463 0.62239 0.88682 0.0
C1505 C 0.14112 0.64536 0.88554 0.0
C1506 C 0.12508 0.60238 0.90188 0.0
C1507 C 0.17716 0.59421 0.87268 0.0
C1508 C 0.10034 0.59334 0.89026 0.0
C1509 C 0.07925 0.57649 0.90601 0.0
C1510 C 0.08242 0.56835 0.93384 0.0
C1511 C 0.10755 0.5767 0.94479 0.0
C1512 C 0.12865 0.59366 0.92902 0.0
H1513 H 0.19426 0.59241 0.85515 0.0
H1514 H 0.1822 0.59339 0.89631 0.0
H1515 H 0.15979 0.57782 0.86749 0.0
H1516 H 0.09716 0.59982 0.86934 0.0
H1517 H 0.06024 0.57045 0.89685 0.0
H1518 H 0.39585 0.18778 0.81513 0.0
H1519 H 0.42103 0.17605 0.84993 0.0
H1520 H 0.35211 0.16046 0.91832 0.0
H1521 H 0.32683 0.1725 0.88366 0.0
H1522 H 0.40303 0.18296 0.94487 0.0
H1523 H 0.4011 0.09908 0.85552 0.0
H1524 H 0.41489 0.12896 0.84043 0.0
H1525 H 0.3805 0.11941 0.8556 0.0
C1526 C 0.3862 0.18226 0.83782 0.0
C1527 C 0.35929 0.18067 0.84651 0.0
C1528 C 0.40061 0.17565 0.8577 0.0
C1529 C 0.3883 0.16701 0.88645 0.0
C1530 C 0.36196 0.16708 0.89621 0.0
H1531 H 0.43077 0.05873 0.97044 0.0
H1532 H 0.40697 0.08493 0.95473 0.0
C1533 C 0.34755 0.17394 0.8764 0.0
C1534 C 0.40185 0.15496 0.90417 0.0
H1535 H 0.42593 0.10417 0.89779 0.0
C1536 C 0.40808 0.16574 0.93468 0.0
C1537 C 0.40803 0.13229 0.89094 0.0
C1538 C 0.40061 0.11907 0.85895 0.0
C1539 C 0.42072 0.15451 0.95212 0.0
C1540 C 0.42733 0.13214 0.93852 0.0
C1541 C 0.42093 0.1214 0.90813 0.0
C1542 C 0.44018 0.11868 0.95521 0.0
C1543 C 0.42644 0.16626 0.98509 0.0
C1544 C 0.46649 0.12927 0.96205 0.0
C1545 C 0.48019 0.11426 0.97133 0.0
C1546 C 0.46781 0.08844 0.97328 0.0
C1547 C 0.44095 0.07848 0.96864 0.0
C1548 C 0.42727 0.09346 0.95978 0.0
H1549 H 0.41555 0.18049 0.99439 0.0
H1550 H 0.42103 0.15152 1.00122 0.0
H1551 H 0.44795 0.17581 0.98506 0.0
H1552 H 0.47694 0.14862 0.95829 0.0
H1553 H 0.50089 0.12239 0.97477 0.0
H1554 H 0.81398 0.33576 0.82946 0.0
H1555 H 0.84414 0.36759 0.86293 0.0
H1556 H 0.90808 0.33648 0.82108 0.0
H1557 H 0.87831 0.30471 0.78758 0.0
H1558 H 0.87574 0.35872 0.9069 0.0
H1559 H 0.9367 0.41339 0.81193 0.0
H1560 H 0.90413 0.39196 0.80735 0.0
H1561 H 0.93218 0.37988 0.8041 0.0
C1562 C 0.83448 0.33573 0.82725 0.0
C1563 C 0.84369 0.31766 0.80572 0.0
C1564 C 0.85165 0.3539 0.84647 0.0
C1565 C 0.87837 0.35453 0.84421 0.0
C1566 C 0.8876 0.33652 0.82287 0.0
H1567 H 1.0001 0.4213 0.96735 0.0
H1568 H 0.96451 0.39358 0.93778 0.0
C1569 C 0.87047 0.31828 0.80384 0.0
C1570 C 0.89669 0.37368 0.86446 0.0
H1571 H 0.95367 0.42236 0.86153 0.0
C1572 C 0.89267 0.37279 0.89708 0.0
C1573 C 0.91855 0.39217 0.85157 0.0
C1574 C 0.92312 0.39466 0.81685 0.0
C1575 C 0.91051 0.38939 0.91707 0.0
C1576 C 0.93304 0.40715 0.90399 0.0
C1577 C 0.93651 0.40859 0.87149 0.0
C1578 C 0.95361 0.42402 0.9234 0.0
C1579 C 0.90509 0.38782 0.952 0.0
C1580 C 0.95954 0.45036 0.92484 0.0
C1581 C 0.97996 0.4663 0.94164 0.0
C1582 C 0.99504 0.45619 0.95712 0.0
C1583 C 0.98887 0.42976 0.95583 0.0
C1584 C 0.96841 0.41385 0.93908 0.0
H1585 H 0.88391 0.37836 0.95908 0.0
H1586 H 0.91709 0.37663 0.95842 0.0
H1587 H 0.91062 0.40692 0.96561 0.0
H1588 H 0.94845 0.45859 0.91277 0.0
H1589 H 0.98414 0.48654 0.94209 0.0
H1590 H 0.78316 0.84722 0.81417 0.0
H1591 H 0.75746 0.87461 0.84453 0.0
H1592 H 0.68514 0.81628 0.82724 0.0
H1593 H 0.7107 0.78856 0.79775 0.0
H1594 H 0.72062 0.89401 0.82766 0.0
H1595 H 0.67297 0.83355 0.92168 0.0
H1596 H 0.70068 0.82838 0.89455 0.0
H1597 H 0.66769 0.81711 0.88301 0.0
C1598 C 0.7618 0.84003 0.81717 0.0
C1599 C 0.74916 0.81539 0.80376 0.0
C1600 C 0.74705 0.85586 0.83443 0.0
C1601 C 0.7192 0.84755 0.83886 0.0
C1602 C 0.70654 0.82311 0.825 0.0
H1603 H 0.58751 0.90567 0.92196 0.0
H1604 H 0.61802 0.88196 0.89573 0.0
C1605 C 0.72126 0.80727 0.8078 0.0
C1606 C 0.70335 0.86448 0.85726 0.0
H1607 H 0.65489 0.86714 0.91868 0.0
C1608 C 0.70644 0.8882 0.84775 0.0
C1609 C 0.68482 0.85718 0.88368 0.0
C1610 C 0.68148 0.83279 0.89658 0.0
C1611 C 0.69092 0.90419 0.86296 0.0
C1612 C 0.67192 0.8966 0.88891 0.0
C1613 C 0.66926 0.87311 0.8988 0.0
C1614 C 0.65363 0.91194 0.9051 0.0
C1615 C 0.69432 0.92867 0.85027 0.0
C1616 C 0.66315 0.93695 0.91963 0.0
C1617 C 0.64552 0.95079 0.93483 0.0
C1618 C 0.6179 0.93994 0.93599 0.0
C1619 C 0.60856 0.91487 0.9216 0.0
C1620 C 0.62608 0.90114 0.90653 0.0
H1621 H 0.7049 0.92895 0.82608 0.0
H1622 H 0.67484 0.93195 0.84993 0.0
H1623 H 0.70611 0.94456 0.86571 0.0
H1624 H 0.68424 0.94571 0.91961 0.0
H1625 H 0.65354 0.96989 0.94585 0.0
H1626 H 0.79428 0.68861 0.20351 0.0
H1627 H 0.82242 0.66277 0.1749 0.0
H1628 H 0.88937 0.72923 0.17261 0.0
H1629 H 0.86145 0.75501 0.20176 0.0
H1630 H 0.8538 0.6657 0.11489 0.0
H1631 H 0.91646 0.68043 0.21117 0.0
H1632 H 0.8852 0.68777 0.21736 0.0
H1633 H 0.91421 0.70897 0.19934 0.0
C1634 C 0.81502 0.69776 0.197 0.0
C1635 C 0.82549 0.72403 0.20496 0.0
C1636 C 0.83111 0.68292 0.18045 0.0
C1637 C 0.85824 0.69383 0.17174 0.0
C1638 C 0.86866 0.72013 0.17932 0.0
H1639 H 0.99228 0.63881 0.08392 0.0
H1640 H 0.96194 0.66302 0.1092 0.0
C1641 C 0.85255 0.73498 0.19574 0.0
C1642 C 0.87562 0.67772 0.15519 0.0
H1643 H 0.92978 0.65906 0.1626 0.0
C1644 C 0.87034 0.66417 0.1254 0.0
C1645 C 0.89732 0.67558 0.16867 0.0
C1646 C 0.9036 0.68875 0.201 0.0
C1647 C 0.88643 0.64923 0.10856 0.0
C1648 C 0.90815 0.64707 0.1221 0.0
C1649 C 0.91325 0.66051 0.15199 0.0
C1650 C 0.92638 0.63175 0.10549 0.0
C1651 C 0.88052 0.63664 0.0759 0.0
C1652 C 0.9169 0.60576 0.09474 0.0
C1653 C 0.93442 0.59169 0.07999 0.0
C1654 C 0.96195 0.60315 0.07587 0.0
C1655 C 0.97131 0.62912 0.08669 0.0
C1656 C 0.95387 0.64312 0.10127 0.0
H1657 H 0.86842 0.64571 0.06558 0.0
H1658 H 0.89904 0.63725 0.0599 0.0
H1659 H 0.86914 0.61655 0.0771 0.0
H1660 H 0.89594 0.59618 0.09819 0.0
H1661 H 0.92639 0.57179 0.07208 0.0
H1662 H 0.35709 0.83937 0.23153 0.0
H1663 H 0.38706 0.87027 0.19954 0.0
H1664 H 0.32405 0.86578 0.14549 0.0
H1665 H 0.29355 0.83407 0.17746 0.0
H1666 H 0.396 0.85913 0.12873 0.0
H1667 H 0.3622 0.94484 0.17352 0.0
H1668 H 0.3566 0.91983 0.19764 0.0
H1669 H 0.33824 0.91471 0.16471 0.0
C1670 C 0.34934 0.8449 0.21299 0.0
C1671 C 0.32274 0.83419 0.20716 0.0
C1672 C 0.3666 0.86269 0.19476 0.0
C1673 C 0.35779 0.87039 0.17027 0.0
C1674 C 0.33115 0.86024 0.16455 0.0
H1675 H 0.46477 0.97925 0.04795 0.0
H1676 H 0.4244 0.95187 0.07327 0.0
C1677 C 0.31373 0.84221 0.18288 0.0
C1678 C 0.37735 0.88791 0.15 0.0
H1679 H 0.40181 0.95026 0.13905 0.0
C1680 C 0.39706 0.87898 0.13059 0.0
C1681 C 0.3786 0.91375 0.15244 0.0
C1682 C 0.35789 0.92409 0.17319 0.0
C1683 C 0.41851 0.89535 0.11439 0.0
C1684 C 0.42065 0.92149 0.11822 0.0
C1685 C 0.40026 0.93026 0.1364 0.0
C1686 C 0.44467 0.9399 0.10478 0.0
C1687 C 0.43897 0.88458 0.09365 0.0
C1688 C 0.46937 0.94288 0.1148 0.0
C1689 C 0.49246 0.95851 0.10048 0.0
C1690 C 0.49138 0.9716 0.07583 0.0
C1691 C 0.46641 0.96945 0.06681 0.0
C1692 C 0.44328 0.9538 0.08123 0.0
H1693 H 0.43093 0.86398 0.0864 0.0
H1694 H 0.44625 0.89425 0.0722 0.0
H1695 H 0.45608 0.88737 0.10686 0.0
H1696 H 0.47084 0.93266 0.13331 0.0
H1697 H 0.51123 0.95975 0.10822 0.0
H1698 H 0.75171 0.19068 0.20516 0.0
H1699 H 0.72092 0.16027 0.17123 0.0
H1700 H 0.69853 0.2212 0.1443 0.0
H1701 H 0.72943 0.25173 0.1777 0.0
H1702 H 0.66642 0.15266 0.1773 0.0
H1703 H 0.7117 0.18011 0.05954 0.0
H1704 H 0.72953 0.18991 0.09379 0.0
H1705 H 0.70659 0.20609 0.08761 0.0
C1706 C 0.74059 0.19768 0.1916 0.0
C1707 C 0.74312 0.22369 0.19413 0.0
C1708 C 0.72293 0.18025 0.1723 0.0
C1709 C 0.70766 0.18848 0.15492 0.0
C1710 C 0.71048 0.21444 0.15697 0.0
H1711 H 0.57632 0.12044 0.04456 0.0
H1712 H 0.61288 0.1486 0.0724 0.0
C1713 C 0.72808 0.23187 0.17627 0.0
C1714 C 0.6875 0.16989 0.13631 0.0
H1715 H 0.66748 0.1529 0.06265 0.0
C1716 C 0.66679 0.15252 0.15217 0.0
C1717 C 0.68795 0.16983 0.10356 0.0
C1718 C 0.71026 0.18732 0.08502 0.0
C1719 C 0.64611 0.13557 0.13636 0.0
C1720 C 0.6464 0.1357 0.10366 0.0
C1721 C 0.66727 0.15287 0.08772 0.0
C1722 C 0.62492 0.11845 0.08577 0.0
C1723 C 0.62369 0.11825 0.15501 0.0
C1724 C 0.61989 0.09214 0.08349 0.0
C1725 C 0.59897 0.07597 0.06766 0.0
C1726 C 0.58273 0.08579 0.0536 0.0
C1727 C 0.58832 0.11219 0.0552 0.0
C1728 C 0.60924 0.12834 0.07107 0.0
H1729 H 0.62314 0.12473 0.18069 0.0
H1730 H 0.60433 0.11693 0.14738 0.0
H1731 H 0.62635 0.09902 0.15104 0.0
H1732 H 0.63208 0.08409 0.09408 0.0
H1733 H 0.59544 0.05575 0.06666 0.0
H1734 H 0.77463 0.69623 0.80292 0.0
H1735 H 0.74566 0.66213 0.83191 0.0
H1736 H 0.679 0.6897 0.8284 0.0
H1737 H 0.70777 0.72397 0.79979 0.0
H1738 H 0.68648 0.67945 0.89017 0.0
H1739 H 0.68698 0.59968 0.79462 0.0
H1740 H 0.71845 0.62121 0.80352 0.0
H1741 H 0.69583 0.63211 0.78676 0.0
C1742 C 0.75377 0.69497 0.80822 0.0
C1743 C 0.7434 0.71262 0.79879 0.0
C1744 C 0.73728 0.67545 0.82466 0.0
C1745 C 0.71023 0.67335 0.83199 0.0
C1746 C 0.69985 0.691 0.82279 0.0
H1747 H 0.56824 0.56668 0.88586 0.0
H1748 H 0.60788 0.59429 0.86044 0.0
C1749 C 0.71627 0.71044 0.80626 0.0
C1750 C 0.6926 0.65304 0.84972 0.0
H1751 H 0.66094 0.58983 0.84239 0.0
C1752 C 0.68111 0.65978 0.87998 0.0
C1753 C 0.68572 0.62751 0.83615 0.0
C1754 C 0.69719 0.61953 0.8034 0.0
C1755 C 0.66219 0.64169 0.89676 0.0
C1756 C 0.65483 0.61621 0.8829 0.0
C1757 C 0.66691 0.60936 0.853 0.0
C1758 C 0.63216 0.59723 0.89727 0.0
C1759 C 0.64922 0.65013 0.92845 0.0
C1760 C 0.63295 0.5892 0.92607 0.0
C1761 C 0.61021 0.5733 0.94077 0.0
C1762 C 0.5864 0.56538 0.92689 0.0
C1763 C 0.58616 0.57263 0.89737 0.0
C1764 C 0.60883 0.58833 0.8827 0.0
H1765 H 0.65464 0.67105 0.93388 0.0
H1766 H 0.62734 0.64274 0.92937 0.0
H1767 H 0.6555 0.64245 0.94707 0.0
H1768 H 0.65093 0.59573 0.93749 0.0
H1769 H 0.61103 0.568 0.96347 0.0
H1770 H 0.31543 0.61806 0.83352 0.0
H1771 H 0.34054 0.60375 0.86548 0.0
H1772 H 0.36571 0.67911 0.91452 0.0
H1773 H 0.34093 0.69373 0.88184 0.0
H1774 H 0.40643 0.65965 0.89565 0.0
H1775 H 0.32576 0.58785 0.95409 0.0
H1776 H 0.32492 0.58331 0.91241 0.0
H1777 H 0.31958 0.61168 0.9352 0.0
C1778 C 0.32586 0.63148 0.85154 0.0
C1779 C 0.32604 0.65696 0.85539 0.0
C1780 C 0.34011 0.62326 0.86994 0.0
C1781 C 0.35444 0.64019 0.89302 0.0
C1782 C 0.35454 0.66566 0.8971 0.0
H1783 H 0.47218 0.6037 0.987 0.0
H1784 H 0.44129 0.62612 0.97825 0.0
C1785 C 0.34047 0.67399 0.8784 0.0
C1786 C 0.37098 0.63151 0.91081 0.0
H1787 H 0.36975 0.58298 0.95007 0.0
C1788 C 0.39837 0.6433 0.90834 0.0
C1789 C 0.36041 0.61023 0.92743 0.0
C1790 C 0.33102 0.59773 0.93275 0.0
C1791 C 0.41567 0.63327 0.92002 0.0
C1792 C 0.40519 0.61105 0.93486 0.0
C1793 C 0.3777 0.60008 0.93883 0.0
C1794 C 0.42249 0.59713 0.94272 0.0
C1795 C 0.44511 0.64551 0.91448 0.0
C1796 C 0.42147 0.57309 0.92649 0.0
C1797 C 0.43883 0.56023 0.93156 0.0
C1798 C 0.45764 0.57113 0.95302 0.0
C1799 C 0.4581 0.59491 0.97008 0.0
C1800 C 0.44055 0.60778 0.96505 0.0
H1801 H 0.4501 0.66018 0.89829 0.0
H1802 H 0.45266 0.65465 0.93726 0.0
H1803 H 0.45559 0.63111 0.90446 0.0
H1804 H 0.40763 0.56451 0.90922 0.0
H1805 H 0.43774 0.54187 0.91819 0.0
H1806 H 0.3374 0.34832 0.7914 0.0
H1807 H 0.37183 0.37549 0.82317 0.0
H1808 H 0.38885 0.30972 0.84441 0.0
H1809 H 0.35508 0.28247 0.81196 0.0
H1810 H 0.37543 0.37752 0.88604 0.0
H1811 H 0.4623 0.35269 0.81584 0.0
H1812 H 0.43052 0.34447 0.80113 0.0
H1813 H 0.4363 0.32594 0.82809 0.0
C1814 C 0.34878 0.33961 0.80232 0.0
C1815 C 0.34369 0.31316 0.7986 0.0
C1816 C 0.36835 0.3552 0.82071 0.0
C1817 C 0.38333 0.34474 0.83579 0.0
C1818 C 0.37808 0.31834 0.83242 0.0
H1819 H 0.50807 0.41415 0.96098 0.0
H1820 H 0.47357 0.38386 0.93132 0.0
C1821 C 0.35858 0.30274 0.81398 0.0
C1822 C 0.40379 0.36143 0.85582 0.0
H1823 H 0.46973 0.37809 0.86491 0.0
C1824 C 0.39605 0.37766 0.88134 0.0
C1825 C 0.43073 0.36157 0.84987 0.0
C1826 C 0.44058 0.34542 0.82209 0.0
C1827 C 0.4144 0.39389 0.90106 0.0
C1828 C 0.44134 0.39421 0.89492 0.0
C1829 C 0.44906 0.37776 0.86969 0.0
C1830 C 0.462 0.41242 0.91342 0.0
C1831 C 0.40472 0.41042 0.92853 0.0
C1832 C 0.46715 0.43849 0.91298 0.0
C1833 C 0.48682 0.45577 0.92974 0.0
C1834 C 0.50194 0.44742 0.94737 0.0
C1835 C 0.49677 0.42125 0.94779 0.0
C1836 C 0.47709 0.40391 0.9308 0.0
H1837 H 0.38304 0.40314 0.93512 0.0
H1838 H 0.41507 0.41186 0.94941 0.0
H1839 H 0.40884 0.42972 0.92199 0.0
H1840 H 0.45612 0.44551 0.89934 0.0
H1841 H 0.49018 0.47573 0.92876 0.0
H1842 H 0.7492 0.31704 0.91667 0.0
H1843 H 0.74682 0.35172 0.95842 0.0
H1844 H 0.66151 0.32474 0.96656 0.0
H1845 H 0.6638 0.29051 0.92517 0.0
H1846 H 0.72704 0.38377 0.94019 0.0
H1847 H 0.67057 0.36069 0.05316 0.0
H1848 H 0.68727 0.33939 0.0287 0.0
H1849 H 0.65386 0.33802 0.02346 0.0
C1850 C 0.72997 0.31796 0.9284 0.0
C1851 C 0.70664 0.30157 0.91706 0.0
C1852 C 0.72867 0.33766 0.95243 0.0
C1853 C 0.70403 0.34104 0.96553 0.0
C1854 C 0.68082 0.32243 0.95733 0.0
H1855 H 0.59839 0.40836 0.96666 0.0
H1856 H 0.63078 0.38698 0.97119 0.0
C1857 C 0.68211 0.3028 0.93334 0.0
C1858 C 0.70187 0.36648 0.97931 0.0
H1859 H 0.65611 0.39076 0.02652 0.0
C1860 C 0.71254 0.38598 0.96012 0.0
C1861 C 0.68346 0.36972 0.00562 0.0
C1862 C 0.67344 0.35085 0.02903 0.0
C1863 C 0.70178 0.40634 0.96321 0.0
C1864 C 0.68018 0.40717 0.9863 0.0
C1865 C 0.67248 0.38989 0.00853 0.0
C1866 C 0.6616 0.4213 0.98307 0.0
C1867 C 0.71128 0.42491 0.93933 0.0
C1868 C 0.66855 0.44779 0.98716 0.0
C1869 C 0.64984 0.46022 0.98486 0.0
C1870 C 0.62421 0.44623 0.97777 0.0
C1871 C 0.61791 0.41975 0.97217 0.0
C1872 C 0.63634 0.40745 0.97503 0.0
H1873 H 0.72766 0.42093 0.92204 0.0
H1874 H 0.69469 0.42438 0.92634 0.0
H1875 H 0.71842 0.44434 0.95157 0.0
H1876 H 0.6881 0.45881 0.99294 0.0
H1877 H 0.65522 0.48065 0.98941 0.0
H1878 H 0.74118 0.41507 0.18438 0.0
H1879 H 0.71284 0.42688 0.15406 0.0
H1880 H 0.68636 0.34965 0.111 0.0
H1881 H 0.71438 0.33757 0.14213 0.0
H1882 H 0.71357 0.42354 0.0909 0.0
H1883 H 0.61664 0.36506 0.14254 0.0
H1884 H 0.647 0.36997 0.15931 0.0
H1885 H 0.64012 0.3484 0.12406 0.0
C1886 C 0.72944 0.40063 0.16833 0.0
C1887 C 0.72994 0.37543 0.16557 0.0
C1888 C 0.71319 0.40736 0.1511 0.0
C1889 C 0.69722 0.38908 0.1306 0.0
C1890 C 0.69804 0.36393 0.12724 0.0
H1891 H 0.58104 0.42634 0.03571 0.0
H1892 H 0.60826 0.40206 0.04961 0.0
C1893 C 0.71412 0.3571 0.14486 0.0
C1894 C 0.68009 0.39696 0.11287 0.0
H1895 H 0.61558 0.39226 0.10712 0.0
C1896 C 0.69213 0.41652 0.09424 0.0
C1897 C 0.65215 0.38751 0.11683 0.0
C1898 C 0.63809 0.3667 0.13692 0.0
C1899 C 0.67709 0.42803 0.08111 0.0
C1900 C 0.64911 0.41958 0.08651 0.0
C1901 C 0.63701 0.39877 0.10317 0.0
C1902 C 0.6323 0.4337 0.07792 0.0
C1903 C 0.6917 0.44957 0.0624 0.0
C1904 C 0.63634 0.45924 0.0899 0.0
C1905 C 0.62126 0.47313 0.08166 0.0
C1906 C 0.60135 0.4617 0.06169 0.0
C1907 C 0.59643 0.43577 0.05082 0.0
C1908 C 0.61191 0.42188 0.05876 0.0
H1909 H 0.70843 0.44484 0.04646 0.0
H1910 H 0.67884 0.45439 0.04818 0.0
H1911 H 0.70024 0.46654 0.07883 0.0
H1912 H 0.65145 0.46856 0.10545 0.0
H1913 H 0.62541 0.49295 0.09091 0.0
H1914 H 0.69985 0.74807 0.20866 0.0
H1915 H 0.66536 0.72037 0.17721 0.0
H1916 H 0.69893 0.6588 0.17418 0.0
H1917 H 0.73356 0.68646 0.20554 0.0
H1918 H 0.67128 0.69455 0.11651 0.0
H1919 H 0.62054 0.6273 0.20273 0.0
H1920 H 0.64356 0.65759 0.21364 0.0
H1921 H 0.65555 0.63144 0.1947 0.0
C1922 C 0.69983 0.72859 0.20141 0.0
C1923 C 0.71953 0.7195 0.20958 0.0
C1924 C 0.68009 0.71277 0.1834 0.0
C1925 C 0.67931 0.68739 0.17349 0.0
C1926 C 0.69877 0.67817 0.18195 0.0
H1927 H 0.58663 0.55969 0.06018 0.0
H1928 H 0.61803 0.59015 0.09271 0.0
C1929 C 0.7186 0.69402 0.19988 0.0
C1930 C 0.65861 0.67077 0.15363 0.0
H1931 H 0.60831 0.61564 0.1507 0.0
C1932 C 0.65736 0.67739 0.12408 0.0
C1933 C 0.64038 0.6484 0.16347 0.0
C1934 C 0.63982 0.64081 0.19548 0.0
C1935 C 0.63903 0.66186 0.10374 0.0
C1936 C 0.62105 0.63927 0.11339 0.0
C1937 C 0.62205 0.63291 0.14318 0.0
C1938 C 0.60194 0.62126 0.0925 0.0
C1939 C 0.63974 0.66932 0.07163 0.0
C1940 C 0.5822 0.62845 0.08127 0.0
C1941 C 0.56401 0.61092 0.06236 0.0
C1942 C 0.56506 0.58576 0.05449 0.0
C1943 C 0.58499 0.5788 0.0657 0.0
C1944 C 0.60306 0.59624 0.08445 0.0
H1945 H 0.65851 0.68375 0.065 0.0
H1946 H 0.63739 0.65262 0.05336 0.0
H1947 H 0.62315 0.67746 0.07173 0.0
H1948 H 0.58056 0.64751 0.08756 0.0
H1949 H 0.54891 0.61697 0.05435 0.0
H1950 H 0.31216 0.66156 0.18974 0.0
H1951 H 0.29613 0.62251 0.15388 0.0
H1952 H 0.37239 0.63877 0.09808 0.0
H1953 H 0.38809 0.67729 0.1333 0.0
H1954 H 0.32576 0.61702 0.06217 0.0
H1955 H 0.3266 0.56241 0.15812 0.0
H1956 H 0.30651 0.58384 0.16225 0.0
H1957 H 0.34154 0.59607 0.16448 0.0
C1958 C 0.32515 0.65685 0.16939 0.0
C1959 C 0.35146 0.67197 0.16439 0.0
C1960 C 0.31599 0.63468 0.149 0.0
C1961 C 0.33307 0.62781 0.12339 0.0
C1962 C 0.35878 0.64385 0.11755 0.0
H1963 H 0.44282 0.59938 0.04552 0.0
H1964 H 0.39886 0.6053 0.059 0.0
C1965 C 0.3679 0.66567 0.13786 0.0
C1966 C 0.32691 0.60257 0.10488 0.0
H1967 H 0.35057 0.55326 0.10858 0.0
C1968 C 0.32958 0.60202 0.07206 0.0
C1969 C 0.33079 0.58242 0.11763 0.0
C1970 C 0.32604 0.58094 0.15256 0.0
C1971 C 0.34264 0.58587 0.05262 0.0
C1972 C 0.35243 0.56993 0.0666 0.0
C1973 C 0.34372 0.56616 0.09811 0.0
C1974 C 0.37801 0.56532 0.05363 0.0
C1975 C 0.3496 0.58876 0.01817 0.0
C1976 C 0.38082 0.54086 0.04659 0.0
C1977 C 0.40609 0.53745 0.03866 0.0
C1978 C 0.42875 0.55846 0.03868 0.0
C1979 C 0.42575 0.58286 0.04564 0.0
C1980 C 0.40062 0.58625 0.05285 0.0
H1981 H 0.33431 0.59472 0.00918 0.0
H1982 H 0.36874 0.60357 0.01473 0.0
H1983 H 0.35166 0.57078 1.00428 0.0
H1984 H 0.36361 0.52453 0.04774 0.0
H1985 H 0.40792 0.5184 0.03331 0.0
H1986 H 0.30465 0.34406 0.20135 0.0
H1987 H 0.33336 0.3775 0.17125 0.0
H1988 H 0.40074 0.35216 0.17856 0.0
H1989 H 0.37217 0.31837 0.20802 0.0
H1990 H 0.3784 0.41696 0.18784 0.0
H1991 H 0.40244 0.35262 0.08339 0.0
H1992 H 0.37537 0.34235 0.11334 0.0
H1993 H 0.40873 0.34517 0.1197 0.0
C1994 C 0.32559 0.34562 0.19657 0.0
C1995 C 0.33616 0.32862 0.20716 0.0
C1996 C 0.34194 0.36475 0.17943 0.0
C1997 C 0.36906 0.36705 0.17235 0.0
C1998 C 0.37976 0.35043 0.18338 0.0
H1999 H 0.50334 0.48599 0.11803 0.0
H2000 H 0.46556 0.45764 0.14546 0.0
C2001 C 0.36345 0.33131 0.20051 0.0
C2002 C 0.38628 0.38687 0.15349 0.0
H2003 H 0.42926 0.39553 0.08655 0.0
C2004 C 0.38934 0.41233 0.16553 0.0
C2005 C 0.40008 0.38075 0.12411 0.0
C2006 C 0.39634 0.35374 0.10917 0.0
C2007 C 0.40683 0.43186 0.1496 0.0
C2008 C 0.42185 0.42568 0.12117 0.0
C2009 C 0.41786 0.40024 0.10846 0.0
C2010 C 0.44315 0.44505 0.10532 0.0
C2011 C 0.40918 0.4589 0.16344 0.0
C2012 C 0.44315 0.44738 0.07355 0.0
C2013 C 0.46489 0.46351 0.05763 0.0
C2014 C 0.48711 0.47737 0.07318 0.0
C2015 C 0.48658 0.47561 0.10531 0.0
C2016 C 0.46488 0.45953 0.12115 0.0
H2017 H 0.39092 0.46059 0.17882 0.0
H2018 H 0.42588 0.46574 0.17808 0.0
H2019 H 0.41307 0.47137 0.14472 0.0
H2020 H 0.42662 0.43623 0.06087 0.0
H2021 H 0.46465 0.46439 0.03289 0.0
H2022 H 0.8029 0.69351 0.69073 0.0
H2023 H 0.82876 0.66601 0.6611 0.0
H2024 H 0.90069 0.72105 0.68732 0.0
H2025 H 0.87508 0.74901 0.71619 0.0
H2026 H 0.87324 0.67629 0.60951 0.0
H2027 H 0.90208 0.65384 0.71677 0.0
H2028 H 0.87462 0.66667 0.71793 0.0
H2029 H 0.90798 0.68691 0.71436 0.0
C2030 C 0.82424 0.70005 0.68982 0.0
C2031 C 0.83677 0.72378 0.70574 0.0
C2032 C 0.83904 0.68415 0.67292 0.0
C2033 C 0.86677 0.69127 0.67199 0.0
C2034 C 0.87934 0.71492 0.68781 0.0
H2035 H 0.99447 0.62319 0.6052 0.0
H2036 H 0.9658 0.64967 0.62798 0.0
C2037 C 0.86459 0.73094 0.7044 0.0
C2038 C 0.88254 0.67383 0.65525 0.0
H2039 H 0.92261 0.63957 0.66793 0.0
C2040 C 0.88394 0.66814 0.62227 0.0
C2041 C 0.89654 0.6631 0.67175 0.0
C2042 C 0.89517 0.66769 0.70718 0.0
C2043 C 0.89958 0.65278 0.6054 0.0
C2044 C 0.91378 0.64216 0.62195 0.0
C2045 C 0.91193 0.6476 0.655 0.0
C2046 C 0.93146 0.6262 0.60581 0.0
C2047 C 0.90151 0.64891 0.56992 0.0
C2048 C 0.9221 0.60393 0.58527 0.0
C2049 C 0.93872 0.58861 0.57187 0.0
C2050 C 0.96505 0.59499 0.57896 0.0
C2051 C 0.97436 0.61743 0.59918 0.0
C2052 C 0.95787 0.6327 0.61236 0.0
H2053 H 0.89581 0.66369 0.56066 0.0
H2054 H 0.92188 0.64905 0.55933 0.0
H2055 H 0.88782 0.63032 0.5621 0.0
H2056 H 0.90174 0.598 0.58016 0.0
H2057 H 0.93077 0.57152 0.55648 0.0
H2058 H 0.33272 0.84614 0.72366 0.0
H2059 H 0.36715 0.87864 0.69768 0.0
H2060 H 0.39708 0.82115 0.63858 0.0
H2061 H 0.3622 0.78832 0.66402 0.0
H2062 H 0.42342 0.88728 0.69379 0.0
H2063 H 0.38657 0.86532 0.57601 0.0
H2064 H 0.36599 0.8541 0.61087 0.0
H2065 H 0.39103 0.83944 0.59221 0.0
C2066 C 0.3464 0.84031 0.70489 0.0
C2067 C 0.34466 0.81457 0.69589 0.0
C2068 C 0.36619 0.85895 0.69022 0.0
C2069 C 0.38454 0.85231 0.66608 0.0
C2070 C 0.38292 0.82667 0.65693 0.0
H2071 H 0.50488 0.95481 0.54885 0.0
H2072 H 0.47954 0.91701 0.57342 0.0
C2073 C 0.3631 0.80795 0.67166 0.0
C2074 C 0.40541 0.87246 0.65088 0.0
H2075 H 0.42514 0.89908 0.5824 0.0
C2076 C 0.42394 0.88978 0.66937 0.0
C2077 C 0.40613 0.87555 0.61898 0.0
C2078 C 0.38631 0.85777 0.59828 0.0
C2079 C 0.44293 0.9104 0.65696 0.0
C2080 C 0.44301 0.91407 0.62539 0.0
C2081 C 0.42505 0.89625 0.6066 0.0
C2082 C 0.46024 0.93714 0.61204 0.0
C2083 C 0.46268 0.92807 0.6778 0.0
C2084 C 0.45792 0.96104 0.62567 0.0
C2085 C 0.47238 0.98267 0.61178 0.0
C2086 C 0.48936 0.9809 0.58373 0.0
C2087 C 0.4921 0.95696 0.57049 0.0
C2088 C 0.47757 0.93529 0.58444 0.0
H2089 H 0.4656 0.91851 0.69697 0.0
H2090 H 0.48215 0.93553 0.66408 0.0
H2091 H 0.45516 0.94427 0.6889 0.0
H2092 H 0.44424 0.96289 0.64656 0.0
H2093 H 0.46962 1.00071 0.6226 0.0
H2094 H 0.22775 0.30977 0.55924 0.0
H2095 H 0.19674 0.32791 0.54173 0.0
H2096 H 0.20295 0.38221 0.62518 0.0
H2097 H 0.23414 0.36437 0.64277 0.0
H2098 H 0.14999 0.36058 0.60759 0.0
H2099 H 0.22352 0.39742 0.50818 0.0
H2100 H 0.21584 0.36409 0.5101 0.0
H2101 H 0.23251 0.38626 0.54049 0.0
C2102 C 0.22251 0.32557 0.5739 0.0
C2103 C 0.2337 0.33581 0.60225 0.0
C2104 C 0.20473 0.33585 0.56389 0.0
C2105 C 0.19784 0.35662 0.58194 0.0
C2106 C 0.20801 0.36618 0.61089 0.0
H2107 H 0.1496 0.47631 0.53626 0.0
H2108 H 0.17001 0.44723 0.55152 0.0
C2109 C 0.2258 0.3559 0.62095 0.0
C2110 C 0.18136 0.36942 0.56988 0.0
H2111 H 0.18226 0.40556 0.51314 0.0
C2112 C 0.15688 0.37024 0.58678 0.0
C2113 C 0.19053 0.38214 0.54284 0.0
C2114 C 0.21711 0.38269 0.5244 0.0
C2115 C 0.14151 0.38382 0.57764 0.0
C2116 C 0.15087 0.39676 0.55082 0.0
C2117 C 0.17507 0.39546 0.53357 0.0
C2118 C 0.13741 0.41393 0.54203 0.0
C2119 C 0.11595 0.38512 0.59741 0.0
C2120 C 0.11218 0.40485 0.53152 0.0
C2121 C 0.10029 0.42157 0.52272 0.0
C2122 C 0.11353 0.44758 0.52423 0.0
C2123 C 0.13877 0.45644 0.53479 0.0
C2124 C 0.15054 0.43982 0.54352 0.0
H2125 H 0.11357 0.37734 0.62004 0.0
H2126 H 0.11501 0.40496 0.60252 0.0
H2127 H 0.09905 0.37404 0.58419 0.0
H2128 H 0.10187 0.38485 0.52975 0.0
H2129 H 0.08092 0.41413 0.5145 0.0
H2130 H 0.71422 0.21815 0.70524 0.0
H2131 H 0.68943 0.18716 0.66656 0.0
H2132 H 0.762 0.18666 0.60714 0.0
H2133 H 0.78726 0.21855 0.6457 0.0
H2134 H 0.69085 0.18966 0.59674 0.0
H2135 H 0.72296 0.11085 0.62642 0.0
H2136 H 0.72355 0.13899 0.65383 0.0
H2137 H 0.74747 0.14034 0.61975 0.0
C2138 C 0.72502 0.21208 0.68365 0.0
C2139 C 0.75279 0.22113 0.67849 0.0
C2140 C 0.71075 0.19413 0.66164 0.0
C2141 C 0.72387 0.18455 0.6341 0.0
C2142 C 0.75154 0.19378 0.62838 0.0
H2143 H 0.647 0.05147 0.50816 0.0
H2144 H 0.68049 0.08775 0.531 0.0
C2145 C 0.7659 0.21201 0.65036 0.0
C2146 C 0.70827 0.16427 0.61221 0.0
H2147 H 0.69026 0.10027 0.59201 0.0
C2148 C 0.69094 0.17014 0.59532 0.0
C2149 C 0.70852 0.13888 0.61037 0.0
C2150 C 0.72651 0.13164 0.62855 0.0
C2151 C 0.6734 0.15117 0.57714 0.0
C2152 C 0.67264 0.12558 0.57659 0.0
C2153 C 0.69074 0.11985 0.59252 0.0
C2154 C 0.65228 0.10437 0.56122 0.0
C2155 C 0.65582 0.15877 0.55875 0.0
C2156 C 0.62522 0.10155 0.57062 0.0
C2157 C 0.606 0.08088 0.55754 0.0
C2158 C 0.6134 0.06236 0.535 0.0
C2159 C 0.64054 0.06532 0.52546 0.0
C2160 C 0.65975 0.08607 0.5385 0.0
H2161 H 0.66464 0.17849 0.55317 0.0
H2162 H 0.65217 0.146 0.53642 0.0
H2163 H 0.6365 0.1578 0.57313 0.0
H2164 H 0.61893 0.11505 0.58866 0.0
H2165 H 0.58535 0.07921 0.56558 0.0
H2166 H 0.82364 0.29242 0.35641 0.0
H2167 H 0.85041 0.32203 0.39544 0.0
H2168 H 0.85466 0.38394 0.34521 0.0
H2169 H 0.82756 0.35485 0.30707 0.0
H2170 H 0.8997 0.35183 0.38837 0.0
H2171 H 0.83406 0.4124 0.43276 0.0
H2172 H 0.82296 0.38238 0.40894 0.0
H2173 H 0.84045 0.41048 0.39075 0.0
C2174 C 0.82999 0.31242 0.35409 0.0
C2175 C 0.82318 0.32135 0.32897 0.0
C2176 C 0.8453 0.32929 0.37631 0.0
C2177 C 0.85404 0.35532 0.37371 0.0
C2178 C 0.8474 0.36412 0.34843 0.0
H2179 H 0.99223 0.46905 0.42884 0.0
H2180 H 0.9597 0.43212 0.40601 0.0
C2181 C 0.83196 0.34739 0.32651 0.0
C2182 C 0.87141 0.37334 0.39608 0.0
H2183 H 0.88049 0.43149 0.43915 0.0
C2184 C 0.8953 0.36905 0.39995 0.0
C2185 C 0.86547 0.39555 0.41185 0.0
C2186 C 0.83918 0.40031 0.41114 0.0
C2187 C 0.91405 0.38705 0.41759 0.0
C2188 C 0.90914 0.41031 0.43088 0.0
C2189 C 0.88457 0.4139 0.42855 0.0
C2190 C 0.92956 0.4317 0.44584 0.0
C2191 C 0.9389 0.38088 0.4217 0.0
C2192 C 0.92334 0.4443 0.47553 0.0
C2193 C 0.94172 0.46588 0.48829 0.0
C2194 C 0.96677 0.47518 0.47169 0.0
C2195 C 0.97319 0.46224 0.44233 0.0
C2196 C 0.95466 0.44093 0.42937 0.0
H2197 H 0.9353 0.36016 0.42092 0.0
H2198 H 0.95434 0.38724 0.4021 0.0
H2199 H 0.94658 0.39034 0.44432 0.0
H2200 H 0.9041 0.43765 0.48868 0.0
H2201 H 0.93626 0.47535 0.51107 0.0
H2202 H 0.75939 0.82368 0.33975 0.0
H2203 H 0.73304 0.85111 0.36863 0.0
H2204 H 0.68079 0.82867 0.29598 0.0
H2205 H 0.70693 0.80102 0.2672 0.0
H2206 H 0.72096 0.89253 0.34858 0.0
H2207 H 0.62948 0.8166 0.37768 0.0
H2208 H 0.66118 0.81057 0.36534 0.0
H2209 H 0.64236 0.81492 0.33678 0.0
C2210 C 0.74208 0.82429 0.33011 0.0
C2211 C 0.73513 0.80975 0.30132 0.0
C2212 C 0.7271 0.84019 0.34657 0.0
C2213 C 0.70456 0.84185 0.33489 0.0
C2214 C 0.69771 0.82749 0.30597 0.0
H2215 H 0.58391 0.92089 0.39163 0.0
H2216 H 0.61174 0.89375 0.36792 0.0
C2217 C 0.71282 0.81174 0.28938 0.0
C2218 C 0.6885 0.85883 0.35257 0.0
H2219 H 0.62643 0.85864 0.38837 0.0
C2220 C 0.70033 0.8851 0.35748 0.0
C2221 C 0.66153 0.84932 0.36429 0.0
C2222 C 0.64785 0.82131 0.36108 0.0
C2223 C 0.68586 0.90202 0.37271 0.0
C2224 C 0.65876 0.89254 0.38426 0.0
C2225 C 0.64709 0.86618 0.37969 0.0
C2226 C 0.6418 0.9095 0.39973 0.0
C2227 C 0.6996 0.93001 0.37513 0.0
C2228 C 0.64883 0.92752 0.42615 0.0
C2229 C 0.63285 0.94342 0.43981 0.0
C2230 C 0.60918 0.94157 0.42769 0.0
C2231 C 0.60193 0.92311 0.40176 0.0
C2232 C 0.61793 0.90741 0.38807 0.0
H2233 H 0.71756 0.93443 0.35786 0.0
H2234 H 0.68616 0.94072 0.37119 0.0
H2235 H 0.70588 0.93669 0.39904 0.0
H2236 H 0.66664 0.92923 0.43643 0.0
H2237 H 0.63904 0.95712 0.45991 0.0
H2238 H 0.22835 0.75581 0.35604 0.0
H2239 H 0.19658 0.72223 0.38406 0.0
H2240 H 0.19716 0.66935 0.29975 0.0
H2241 H 0.22841 0.7026 0.27171 0.0
H2242 H 0.14382 0.68837 0.36562 0.0
H2243 H 0.21754 0.63729 0.37012 0.0
H2244 H 0.22684 0.67041 0.36516 0.0
H2245 H 0.21727 0.64673 0.33247 0.0
C2246 C 0.22153 0.73705 0.34349 0.0
C2247 C 0.23107 0.73177 0.31177 0.0
C2248 C 0.20346 0.71791 0.35952 0.0
C2249 C 0.19478 0.69326 0.34404 0.0
C2250 C 0.20387 0.68817 0.31223 0.0
H2251 H 0.10174 0.5442 0.38085 0.0
H2252 H 0.12895 0.58255 0.35901 0.0
C2253 C 0.22179 0.7072 0.29627 0.0
C2254 C 0.17649 0.67253 0.36087 0.0
H2255 H 0.17243 0.61555 0.38308 0.0
C2256 C 0.15005 0.67253 0.36975 0.0
C2257 C 0.18474 0.65196 0.36624 0.0
C2258 C 0.21318 0.65153 0.35827 0.0
C2259 C 0.13131 0.65191 0.38266 0.0
C2260 C 0.13943 0.631 0.38733 0.0
C2261 C 0.16611 0.63144 0.37925 0.0
C2262 C 0.12067 0.60811 0.39983 0.0
C2263 C 0.10283 0.65227 0.38998 0.0
C2264 C 0.10656 0.60967 0.42993 0.0
C2265 C 0.09071 0.5877 0.44243 0.0
C2266 C 0.08893 0.5637 0.42522 0.0
C2267 C 0.10259 0.56231 0.39478 0.0
C2268 C 0.11825 0.58425 0.38227 0.0
H2269 H 0.09866 0.66636 0.37765 0.0
H2270 H 0.08916 0.63338 0.38323 0.0
H2271 H 0.09854 0.65745 0.41567 0.0
H2272 H 0.10852 0.62778 0.44424 0.0
H2273 H 0.08079 0.58951 0.4661 0.0
H2274 H 0.34978 0.22242 0.43734 0.0
H2275 H 0.37332 0.19582 0.45297 0.0
H2276 H 0.43091 0.21033 0.37161 0.0
H2277 H 0.40719 0.23684 0.3556 0.0
H2278 H 0.41596 0.16101 0.38031 0.0
H2279 H 0.44148 0.21955 0.49318 0.0
H2280 H 0.40656 0.21005 0.49037 0.0
H2281 H 0.42873 0.23052 0.46362 0.0
C2282 C 0.36755 0.22007 0.42284 0.0
C2283 C 0.37676 0.23195 0.39537 0.0
C2284 C 0.38107 0.20495 0.4319 0.0
C2285 C 0.40431 0.2016 0.41395 0.0
C2286 C 0.41317 0.21283 0.38602 0.0
H2287 H 0.50759 0.13034 0.48375 0.0
H2288 H 0.49112 0.16092 0.46405 0.0
C2289 C 0.39952 0.22787 0.3768 0.0
C2290 C 0.41889 0.18583 0.424 0.0
H2291 H 0.44644 0.17774 0.48637 0.0
C2292 C 0.42286 0.16483 0.40338 0.0
C2293 C 0.42835 0.19102 0.45391 0.0
C2294 C 0.42633 0.21417 0.47641 0.0
C2295 C 0.435 0.14835 0.41232 0.0
C2296 C 0.443 0.1527 0.44291 0.0
C2297 C 0.44005 0.17426 0.46306 0.0
C2298 C 0.45322 0.13442 0.4549 0.0
C2299 C 0.43911 0.12636 0.38889 0.0
C2300 C 0.43721 0.10959 0.45689 0.0
C2301 C 0.44651 0.09218 0.46806 0.0
C2302 C 0.47203 0.09921 0.47772 0.0
C2303 C 0.48791 0.12427 0.47632 0.0
C2304 C 0.47853 0.14175 0.46509 0.0
H2305 H 0.43949 0.12992 0.36431 0.0
H2306 H 0.45788 0.12239 0.39121 0.0
H2307 H 0.42251 0.10924 0.39326 0.0
H2308 H 0.41738 0.10366 0.44993 0.0
H2309 H 0.43358 0.07314 0.46909 0.0
H2310 H 0.66941 0.80157 0.65253 0.0
H2311 H 0.64514 0.82788 0.63721 0.0
H2312 H 0.70042 0.84088 0.55362 0.0
H2313 H 0.72451 0.81447 0.56858 0.0
H2314 H 0.66028 0.87692 0.62781 0.0
H2315 H 0.63077 0.81775 0.51669 0.0
H2316 H 0.64424 0.80678 0.54561 0.0
H2317 H 0.66589 0.82664 0.51787 0.0
C2318 C 0.67643 0.81014 0.63096 0.0
C2319 C 0.69874 0.80575 0.61162 0.0
C2320 C 0.66247 0.82506 0.62215 0.0
C2321 C 0.67055 0.83585 0.59385 0.0
C2322 C 0.69327 0.83209 0.57502 0.0
H2323 H 0.64347 0.96532 0.53986 0.0
H2324 H 0.65892 0.93413 0.55865 0.0
C2325 C 0.70711 0.81708 0.58368 0.0
C2326 C 0.65584 0.85177 0.58444 0.0
H2327 H 0.6271 0.86008 0.52324 0.0
C2328 C 0.65277 0.87306 0.60509 0.0
C2329 C 0.64555 0.84652 0.55503 0.0
C2330 C 0.64651 0.82302 0.53268 0.0
C2331 C 0.64079 0.88984 0.59656 0.0
C2332 C 0.63212 0.88549 0.56633 0.0
C2333 C 0.63406 0.86359 0.54625 0.0
C2334 C 0.62235 0.90416 0.55456 0.0
C2335 C 0.63764 0.91215 0.62001 0.0
C2336 C 0.59688 0.89746 0.54493 0.0
C2337 C 0.58795 0.91533 0.53389 0.0
C2338 C 0.60443 0.94012 0.53213 0.0
C2339 C 0.6301 0.94651 0.5412 0.0
C2340 C 0.63896 0.92872 0.55216 0.0
H2341 H 0.63746 0.90858 0.64454 0.0
H2342 H 0.6546 0.92891 0.61529 0.0
H2343 H 0.6191 0.9167 0.61812 0.0
H2344 H 0.58383 0.8785 0.54628 0.0
H2345 H 0.56814 0.90976 0.52692 0.0
H2346 H 0.74085 0.19089 0.27481 0.0
H2347 H 0.70681 0.15862 0.3017 0.0
H2348 H 0.69489 0.21524 0.37841 0.0
H2349 H 0.72977 0.24755 0.35217 0.0
H2350 H 0.69733 0.17132 0.39832 0.0
H2351 H 0.62722 0.14871 0.30872 0.0
H2352 H 0.65961 0.14654 0.29235 0.0
H2353 H 0.65523 0.17662 0.31011 0.0
C2354 C 0.73131 0.19644 0.29763 0.0
C2355 C 0.738 0.22178 0.31137 0.0
C2356 C 0.71155 0.17803 0.31274 0.0
C2357 C 0.69791 0.18462 0.34173 0.0
C2358 C 0.705 0.20979 0.35591 0.0
H2359 H 0.57772 0.08658 0.46497 0.0
H2360 H 0.60511 0.12404 0.44098 0.0
C2361 C 0.72487 0.22822 0.34086 0.0
C2362 C 0.6767 0.16504 0.35746 0.0
H2363 H 0.6186 0.11921 0.3461 0.0
C2364 C 0.67992 0.16013 0.38714 0.0
C2365 C 0.65394 0.1506 0.34287 0.0
C2366 C 0.6486 0.15602 0.3119 0.0
C2367 C 0.66161 0.14037 0.40196 0.0
C2368 C 0.63935 0.12535 0.38682 0.0
C2369 C 0.63573 0.13072 0.35758 0.0
C2370 C 0.62064 0.10293 0.40004 0.0
C2371 C 0.66675 0.13504 0.43308 0.0
C2372 C 0.61951 0.0787 0.38434 0.0
C2373 C 0.60386 0.05726 0.39787 0.0
C2374 C 0.58886 0.05964 0.42734 0.0
C2375 C 0.58902 0.08401 0.44228 0.0
C2376 C 0.6048 0.10547 0.42873 0.0
H2377 H 0.68713 0.14541 0.43881 0.0
H2378 H 0.65256 0.14096 0.45211 0.0
H2379 H 0.66378 0.11449 0.43292 0.0
H2380 H 0.63149 0.07636 0.36208 0.0
H2381 H 0.60414 0.03883 0.3856 0.0
H2382 H 0.80447 0.67238 0.43704 0.0
H2383 H 0.83788 0.65656 0.45273 0.0
H2384 H 0.89665 0.69736 0.38532 0.0
H2385 H 0.86316 0.71347 0.36946 0.0
H2386 H 0.89827 0.64875 0.38289 0.0
H2387 H 0.89712 0.69311 0.5067 0.0
H2388 H 0.86461 0.67529 0.49709 0.0
H2389 H 0.88233 0.70269 0.47776 0.0
C2390 C 0.82458 0.67833 0.4258 0.0
C2391 C 0.83114 0.69445 0.40218 0.0
C2392 C 0.84371 0.66931 0.43491 0.0
C2393 C 0.86997 0.67626 0.42082 0.0
C2394 C 0.87658 0.69195 0.39679 0.0
H2395 H 0.99118 0.62705 0.49244 0.0
H2396 H 0.96928 0.65471 0.47506 0.0
C2397 C 0.85737 0.70101 0.3876 0.0
C2398 C 0.88998 0.6659 0.43011 0.0
H2399 H 0.91556 0.65785 0.49413 0.0
C2400 C 0.90237 0.6511 0.40712 0.0
C2401 C 0.89573 0.66923 0.46167 0.0
C2402 C 0.88446 0.68617 0.48716 0.0
C2403 C 0.91905 0.63839 0.41513 0.0
C2404 C 0.92325 0.64028 0.447 0.0
C2405 C 0.91213 0.65622 0.46974 0.0
C2406 C 0.937 0.62403 0.45744 0.0
C2407 C 0.93163 0.62259 0.38945 0.0
C2408 C 0.9259 0.59775 0.4538 0.0
C2409 C 0.93818 0.58205 0.46378 0.0
C2410 C 0.96195 0.59222 0.47768 0.0
C2411 C 0.97304 0.61862 0.48157 0.0
C2412 C 0.96053 0.63443 0.47173 0.0
H2413 H 0.93296 0.62884 0.36604 0.0
H2414 H 0.9518 0.62345 0.39415 0.0
H2415 H 0.91936 0.60259 0.3884 0.0
H2416 H 0.90751 0.58933 0.44341 0.0
H2417 H 0.92897 0.56183 0.46048 0.0
H2418 H 0.34714 0.84941 0.29249 0.0
H2419 H 0.37372 0.88052 0.32987 0.0
H2420 H 0.31559 0.8533 0.4066 0.0
H2421 H 0.28866 0.82184 0.36895 0.0
H2422 H 0.35679 0.91907 0.37821 0.0
H2423 H 0.3905 0.84828 0.42503 0.0
H2424 H 0.37785 0.84185 0.38727 0.0
H2425 H 0.35563 0.84227 0.42275 0.0
C2426 C 0.33991 0.85014 0.31731 0.0
C2427 C 0.31589 0.83326 0.3279 0.0
C2428 C 0.35508 0.86794 0.33859 0.0
C2429 C 0.34671 0.86902 0.37093 0.0
C2430 C 0.32241 0.85259 0.38168 0.0
H2431 H 0.431 0.99113 0.50363 0.0
H2432 H 0.39618 0.95812 0.47834 0.0
C2433 C 0.30701 0.83482 0.36023 0.0
C2434 C 0.36409 0.88713 0.39298 0.0
H2435 H 0.40948 0.89121 0.44271 0.0
C2436 C 0.36804 0.91304 0.39271 0.0
C2437 C 0.37897 0.87907 0.4114 0.0
C2438 C 0.37577 0.85138 0.41173 0.0
C2439 C 0.38689 0.93121 0.40999 0.0
C2440 C 0.40202 0.92319 0.42816 0.0
C2441 C 0.39777 0.89725 0.42883 0.0
C2442 C 0.42309 0.9416 0.44552 0.0
C2443 C 0.39118 0.95884 0.4077 0.0
C2444 C 0.44978 0.94269 0.43619 0.0
C2445 C 0.46986 0.96156 0.45065 0.0
C2446 C 0.46353 0.97963 0.47477 0.0
C2447 C 0.43667 0.97773 0.48491 0.0
C2448 C 0.41668 0.95889 0.47046 0.0
H2449 H 0.38178 0.96161 0.3879 0.0
H2450 H 0.3824 0.96767 0.42986 0.0
H2451 H 0.41265 0.96889 0.4045 0.0
H2452 H 0.4551 0.92941 0.41704 0.0
H2453 H 0.4903 0.96235 0.44239 0.0
H2454 H 0.27597 0.34731 0.31563 0.0
H2455 H 0.24997 0.37447 0.34557 0.0
H2456 H 0.17849 0.32057 0.3159 0.0
H2457 H 0.20423 0.29274 0.28736 0.0
H2458 H 0.21986 0.39882 0.32903 0.0
H2459 H 0.15521 0.33115 0.40763 0.0
H2460 H 0.18387 0.3252 0.3833 0.0
H2461 H 0.15302 0.31863 0.36702 0.0
C2462 C 0.25467 0.34089 0.316 0.0
C2463 C 0.24232 0.31737 0.29951 0.0
C2464 C 0.23974 0.35666 0.33298 0.0
C2465 C 0.21196 0.34954 0.33388 0.0
C2466 C 0.19969 0.32636 0.3167 0.0
H2467 H 0.08463 0.41874 0.39699 0.0
H2468 H 0.11365 0.39232 0.37469 0.0
C2469 C 0.21457 0.31048 0.29997 0.0
C2470 C 0.19601 0.36664 0.35175 0.0
H2471 H 0.1415 0.36774 0.40515 0.0
C2472 C 0.20292 0.39202 0.34593 0.0
C2473 C 0.17385 0.35813 0.37413 0.0
C2474 C 0.16621 0.33188 0.38366 0.0
C2475 C 0.18793 0.40858 0.36074 0.0
C2476 C 0.16534 0.39979 0.3823 0.0
C2477 C 0.15867 0.3746 0.38858 0.0
C2478 C 0.14763 0.416 0.39728 0.0
C2479 C 0.19589 0.4352 0.35238 0.0
C2480 C 0.15666 0.43812 0.41815 0.0
C2481 C 0.1399 0.45337 0.43126 0.0
C2482 C 0.1137 0.44698 0.42369 0.0
C2483 C 0.10466 0.42453 0.40332 0.0
C2484 C 0.12129 0.40927 0.39049 0.0
H2485 H 0.21068 0.4377 0.33122 0.0
H2486 H 0.17832 0.44037 0.34802 0.0
H2487 H 0.20473 0.44851 0.37238 0.0
H2488 H 0.17671 0.44362 0.42433 0.0
H2489 H 0.14758 0.47033 0.447 0.0
H2490 H 0.36448 0.25221 0.69301 0.0
H2491 H 0.3924 0.22623 0.66445 0.0
H2492 H 0.32815 0.15886 0.6778 0.0
H2493 H 0.29996 0.18475 0.70568 0.0
H2494 H 0.37579 0.15538 0.69303 0.0
H2495 H 0.39076 0.18764 0.57539 0.0
H2496 H 0.39884 0.2127 0.60711 0.0
H2497 H 0.36518 0.19352 0.60563 0.0
C2498 C 0.35615 0.23188 0.68962 0.0
C2499 C 0.32993 0.22067 0.70212 0.0
C2500 C 0.37219 0.21698 0.67313 0.0
C2501 C 0.36249 0.19042 0.66863 0.0
C2502 C 0.33627 0.17923 0.68089 0.0
H2503 H 0.43763 0.08123 0.54859 0.0
H2504 H 0.40796 0.1073 0.57161 0.0
C2505 C 0.32016 0.19412 0.69711 0.0
C2506 C 0.37986 0.17426 0.6523 0.0
H2507 H 0.41705 0.1618 0.58282 0.0
C2508 C 0.38472 0.15679 0.6689 0.0
C2509 C 0.39143 0.17571 0.62063 0.0
C2510 C 0.38616 0.19321 0.60096 0.0
C2511 C 0.40111 0.14132 0.65512 0.0
C2512 C 0.41332 0.14327 0.62377 0.0
C2513 C 0.40798 0.16031 0.60687 0.0
C2514 C 0.43196 0.12807 0.60858 0.0
C2515 C 0.40502 0.12274 0.67425 0.0
C2516 C 0.45576 0.13126 0.62103 0.0
C2517 C 0.47282 0.11651 0.60781 0.0
C2518 C 0.46665 0.09795 0.58171 0.0
C2519 C 0.44306 0.09513 0.56876 0.0
C2520 C 0.42605 0.11011 0.58191 0.0
H2521 H 0.3894 0.11897 0.69448 0.0
H2522 H 0.405 0.10454 0.65947 0.0
H2523 H 0.42444 0.13063 0.68371 0.0
H2524 H 0.46115 0.1452 0.64119 0.0
H2525 H 0.49077 0.11947 0.61846 0.0
H2526 H 0.87959 0.30966 0.71489 0.0
H2527 H 0.91197 0.34387 0.68906 0.0
H2528 H 0.85139 0.35063 0.63837 0.0
H2529 H 0.81884 0.31707 0.66482 0.0
H2530 H 0.93162 0.35168 0.62993 0.0
H2531 H 0.87687 0.42171 0.67904 0.0
H2532 H 0.86848 0.39103 0.69217 0.0
H2533 H 0.85718 0.39466 0.65659 0.0
C2534 C 0.87325 0.31822 0.69793 0.0
C2535 C 0.84659 0.31071 0.69204 0.0
C2536 C 0.89177 0.33787 0.68325 0.0
C2537 C 0.88407 0.35034 0.66228 0.0
C2538 C 0.85773 0.34192 0.65515 0.0
H2539 H 0.99016 0.4531 0.535 0.0
H2540 H 0.96275 0.41584 0.55922 0.0
C2541 C 0.83916 0.32254 0.6701 0.0
C2542 C 0.90337 0.37244 0.64842 0.0
H2543 H 0.91255 0.4342 0.63947 0.0
C2544 C 0.92751 0.36977 0.63214 0.0
C2545 C 0.89836 0.39627 0.65177 0.0
C2546 C 0.87395 0.40123 0.67111 0.0
C2547 C 0.94645 0.39004 0.61872 0.0
C2548 C 0.94086 0.41351 0.62084 0.0
C2549 C 0.91688 0.41623 0.6375 0.0
C2550 C 0.95945 0.43567 0.60632 0.0
C2551 C 0.9725 0.38619 0.60309 0.0
C2552 C 0.96658 0.45947 0.62444 0.0
C2553 C 0.98182 0.48091 0.61049 0.0
C2554 C 0.99057 0.47906 0.57811 0.0
C2555 C 0.98417 0.45512 0.56013 0.0
C2556 C 0.96853 0.43372 0.57401 0.0
H2557 H 0.97706 0.37072 0.61226 0.0
H2558 H 0.97135 0.38082 0.57743 0.0
H2559 H 0.98905 0.4037 0.60668 0.0
H2560 H 0.95987 0.46158 0.64937 0.0
H2561 H 0.98634 0.49905 0.62501 0.0
H2562 H 0.24294 0.6868 0.69933 0.0
H2563 H 0.21653 0.65865 0.66012 0.0
H2564 H 0.23555 0.71868 0.60184 0.0
H2565 H 0.26238 0.74747 0.6417 0.0
H2566 H 0.18204 0.69218 0.6072 0.0
H2567 H 0.24224 0.62512 0.5762 0.0
H2568 H 0.23383 0.63018 0.61796 0.0
H2569 H 0.25441 0.6561 0.59754 0.0
C2570 C 0.24211 0.69401 0.67791 0.0
C2571 C 0.25528 0.71927 0.67331 0.0
C2572 C 0.22688 0.67783 0.65548 0.0
C2573 C 0.22457 0.68633 0.62767 0.0
C2574 C 0.23735 0.71165 0.623 0.0
H2575 H 0.1432 0.56408 0.49242 0.0
H2576 H 0.17577 0.60181 0.51386 0.0
C2577 C 0.25268 0.72803 0.64567 0.0
C2578 C 0.20785 0.66862 0.60446 0.0
H2579 H 0.19646 0.60867 0.56607 0.0
C2580 C 0.18542 0.6741 0.59766 0.0
C2581 C 0.2125 0.64522 0.59149 0.0
C2582 C 0.23722 0.63893 0.5959 0.0
C2583 C 0.16668 0.65615 0.57988 0.0
C2584 C 0.17015 0.63187 0.56934 0.0
C2585 C 0.19346 0.62707 0.5745 0.0
C2586 C 0.14944 0.61069 0.55447 0.0
C2587 C 0.1433 0.66337 0.57281 0.0
C2588 C 0.12365 0.60312 0.56995 0.0
C2589 C 0.10488 0.58169 0.55755 0.0
C2590 C 0.11168 0.56702 0.52976 0.0
C2591 C 0.13737 0.57483 0.51402 0.0
C2592 C 0.15601 0.59645 0.52621 0.0
H2593 H 0.14831 0.68406 0.57198 0.0
H2594 H 0.13634 0.6533 0.55005 0.0
H2595 H 0.12682 0.65845 0.59183 0.0
H2596 H 0.11823 0.61327 0.59224 0.0
H2597 H 0.08532 0.57613 0.57035 0.0
loop_
_geom_bond_atom_site_label_1
_geom_bond_atom_site_label_2
_geom_bond_distance
_geom_bond_site_symmetry_2
_ccdc_geom_bond_type
C0 C2 1.422 . S
C0 C4 1.415 . S
C0 N6 1.369 . S
C1 C2 1.421 . S
C1 C3 1.417 . S
C1 C13 1.422 . S
C2 C0 1.422 . S
C2 C1 1.421 . S
C2 N12 1.359 . S
C3 C1 1.417 . S
C3 C5 1.329 . S
C3 H22 0.930 . S
C4 C0 1.415 . S
C4 C5 1.437 . S
C4 C8 1.413 . S
C5 C3 1.329 . S
C5 C4 1.437 . S
C5 H27 0.929 . S
N6 C0 1.369 . S
N6 C7 1.338 . S
N6 Gd11 2.622 . S
C7 N6 1.338 . S
C7 C9 1.378 . S
C7 H19 0.929 . S
C8 C4 1.413 . S
C8 C9 1.348 . S
C8 H24 0.931 . S
C9 C7 1.378 . S
C9 C8 1.348 . S
C9 H25 0.930 . S
Gd10 N30 2.622 . S
Gd10 N37 2.570 . S
Gd10 O44 2.353 . S
Gd10 O45 2.468 . S
Gd10 O46 2.427 . S
Gd10 O48 2.388 . S
Gd10 O49 2.386 . S
Gd10 O53 2.307 . S
Gd10 C63 2.805 . S
Gd11 N6 2.622 . S
Gd11 N12 2.570 . S
Gd11 O43 2.386 . S
Gd11 O47 2.307 . S
Gd11 O50 2.353 . S
Gd11 O51 2.468 . S
Gd11 O52 2.427 . S
Gd11 O54 2.388 . S
Gd11 C75 2.805 . S
N12 C2 1.359 . S
N12 Gd11 2.570 . S
N12 C14 1.343 . S
C13 C1 1.422 . S
C13 C15 1.321 . S
C13 H21 0.931 . S
C14 N12 1.343 . S
C14 C15 1.390 . S
C14 H16 0.931 . S
C15 C13 1.321 . S
C15 C14 1.390 . S
C15 H17 0.930 . S
H16 C14 0.931 . S
H17 C15 0.930 . S
H18 C41 0.931 . S
H19 C7 0.929 . S
H20 C42 0.930 . S
H21 C13 0.931 . S
H22 C3 0.930 . S
H23 C32 0.929 . S
H24 C8 0.931 . S
H25 C9 0.930 . S
H26 C64 0.930 . S
H27 C5 0.929 . S
H28 C33 0.931 . S
H29 C34 0.930 . S
N30 Gd10 2.622 . S
N30 C31 1.369 . S
N30 C32 1.338 . S
C31 N30 1.369 . S
C31 C35 1.415 . S
C31 C38 1.422 . S
C32 H23 0.929 . S
C32 N30 1.338 . S
C32 C34 1.378 . S
C33 H28 0.931 . S
C33 C34 1.348 . S
C33 C35 1.413 . S
C34 H29 0.930 . S
C34 C32 1.378 . S
C34 C33 1.348 . S
C35 C31 1.415 . S
C35 C33 1.413 . S
C35 C65 1.437 . S
H36 C65 0.929 . S
N37 Gd10 2.570 . S
N37 C38 1.359 . S
N37 C41 1.343 . S
C38 C31 1.422 . S
C38 N37 1.359 . S
C38 C40 1.421 . S
C39 C40 1.422 . S
C39 C42 1.321 . S
C39 H66 0.931 . S
C40 C38 1.421 . S
C40 C39 1.422 . S
C40 C64 1.417 . S
C41 H18 0.931 . S
C41 N37 1.343 . S
C41 C42 1.390 . S
C42 H20 0.930 . S
C42 C39 1.321 . S
C42 C41 1.390 . S
O43 Gd11 2.386 . S
O43 C55 1.265 . S
O44 Gd10 2.353 . S
O44 C55 1.242 . S
O45 Gd10 2.468 . S
O45 C63 1.263 . S
O46 Gd10 2.427 . S
O46 C63 1.252 . S
O47 Gd11 2.307 . S
O47 C56 1.261 . S
O48 Gd10 2.388 . S
O48 C56 1.252 . S
O49 Gd10 2.386 . S
O49 C67 1.265 . S
O50 Gd11 2.353 . S
O50 C67 1.242 . S
O51 Gd11 2.468 . S
O51 C75 1.263 . S
O52 Gd11 2.427 . S
O52 C75 1.252 . S
O53 Gd10 2.307 . S
O53 C68 1.261 . S
O54 Gd11 2.388 . S
O54 C68 1.252 . S
C55 O43 1.265 . S
C55 O44 1.242 . S
C56 O47 1.261 . S
C56 O48 1.252 . S
C57 C60 1.394 . S
C57 C62 1.370 . S
C57 C63 1.500 . S
C58 C61 1.383 . S
C58 C62 1.395 . S
C59 C60 1.396 . S
C59 C61 1.365 . S
C59 H76 0.929 . S
C60 C57 1.394 . S
C60 C59 1.396 . S
C60 H77 0.930 . S
C61 C58 1.383 . S
C61 C59 1.365 . S
C61 H78 0.931 . S
C62 C57 1.370 . S
C62 C58 1.395 . S
C62 H79 0.930 . S
C63 Gd10 2.805 . S
C63 O45 1.263 . S
C63 O46 1.252 . S
C63 C57 1.500 . S
C64 H26 0.930 . S
C64 C40 1.417 . S
C64 C65 1.329 . S
C65 C35 1.437 . S
C65 H36 0.929 . S
C65 C64 1.329 . S
H66 C39 0.931 . S
C67 O49 1.265 . S
C67 O50 1.242 . S
C68 O53 1.261 . S
C68 O54 1.252 . S
C69 C72 1.394 . S
C69 C74 1.370 . S
C69 C75 1.500 . S
C70 C73 1.383 . S
C70 C74 1.395 . S
C71 C72 1.396 . S
C71 C73 1.365 . S
C71 H80 0.929 . S
C72 C69 1.394 . S
C72 C71 1.396 . S
C72 H81 0.930 . S
C73 C70 1.383 . S
C73 C71 1.365 . S
C73 H82 0.931 . S
C74 C69 1.370 . S
C74 C70 1.395 . S
C74 H83 0.930 . S
C75 Gd11 2.805 . S
C75 O51 1.263 . S
C75 O52 1.252 . S
C75 C69 1.500 . S
H76 C59 0.929 . S
H77 C60 0.930 . S
H78 C61 0.931 . S
H79 C62 0.930 . S
H80 C71 0.929 . S
H81 C72 0.930 . S
H82 C73 0.931 . S
H83 C74 0.930 . S
C84 C86 1.422 . S
C84 C88 1.415 . S
C84 N90 1.369 . S
C85 C86 1.421 . S
C85 C87 1.417 . S
C85 C97 1.422 . S
C86 C84 1.422 . S
C86 C85 1.421 . S
C86 N96 1.359 . S
C87 C85 1.417 . S
C87 C89 1.329 . S
C87 H106 0.930 . S
C88 C84 1.415 . S
C88 C89 1.437 . S
C88 C92 1.413 . S
C89 C87 1.329 . S
C89 C88 1.437 . S
C89 H111 0.929 . S
N90 C84 1.369 . S
N90 C91 1.338 . S
N90 Gd95 2.622 . S
C91 N90 1.338 . S
C91 C93 1.378 . S
C91 H103 0.929 . S
C92 C88 1.413 . S
C92 C93 1.348 . S
C92 H108 0.931 . S
C93 C91 1.378 . S
C93 C92 1.348 . S
C93 H109 0.930 . S
Gd94 N114 2.622 . S
Gd94 N121 2.570 . S
Gd94 O128 2.353 . S
Gd94 O129 2.468 . S
Gd94 O130 2.427 . S
Gd94 O132 2.388 . S
Gd94 O133 2.386 . S
Gd94 O137 2.307 . S
Gd94 C147 2.805 . S
Gd95 N90 2.622 . S
Gd95 N96 2.570 . S
Gd95 O127 2.386 . S
Gd95 O131 2.307 . S
Gd95 O134 2.353 . S
Gd95 O135 2.468 . S
Gd95 O136 2.427 . S
Gd95 O138 2.388 . S
Gd95 C159 2.805 . S
N96 C86 1.359 . S
N96 Gd95 2.570 . S
N96 C98 1.343 . S
C97 C85 1.422 . S
C97 C99 1.321 . S
C97 H105 0.931 . S
C98 N96 1.343 . S
C98 C99 1.390 . S
C98 H100 0.931 . S
C99 C97 1.321 . S
C99 C98 1.390 . S
C99 H101 0.930 . S
H100 C98 0.931 . S
H101 C99 0.930 . S
H102 C125 0.931 . S
H103 C91 0.929 . S
H104 C126 0.930 . S
H105 C97 0.931 . S
H106 C87 0.930 . S
H107 C116 0.929 . S
H108 C92 0.931 . S
H109 C93 0.930 . S
H110 C148 0.930 . S
H111 C89 0.929 . S
H112 C117 0.931 . S
H113 C118 0.930 . S
N114 Gd94 2.622 . S
N114 C115 1.369 . S
N114 C116 1.338 . S
C115 N114 1.369 . S
C115 C119 1.415 . S
C115 C122 1.422 . S
C116 H107 0.929 . S
C116 N114 1.338 . S
C116 C118 1.378 . S
C117 H112 0.931 . S
C117 C118 1.348 . S
C117 C119 1.413 . S
C118 H113 0.930 . S
C118 C116 1.378 . S
C118 C117 1.348 . S
C119 C115 1.415 . S
C119 C117 1.413 . S
C119 C149 1.437 . S
H120 C149 0.929 . S
N121 Gd94 2.570 . S
N121 C122 1.359 . S
N121 C125 1.343 . S
C122 C115 1.422 . S
C122 N121 1.359 . S
C122 C124 1.421 . S
C123 C124 1.422 . S
C123 C126 1.321 . S
C123 H150 0.931 . S
C124 C122 1.421 . S
C124 C123 1.422 . S
C124 C148 1.417 . S
C125 H102 0.931 . S
C125 N121 1.343 . S
C125 C126 1.390 . S
C126 H104 0.930 . S
C126 C123 1.321 . S
C126 C125 1.390 . S
O127 Gd95 2.386 . S
O127 C139 1.265 . S
O128 Gd94 2.353 . S
O128 C139 1.242 . S
O129 Gd94 2.468 . S
O129 C147 1.263 . S
O130 Gd94 2.427 . S
O130 C147 1.252 . S
O131 Gd95 2.307 . S
O131 C140 1.261 . S
O132 Gd94 2.388 . S
O132 C140 1.252 . S
O133 Gd94 2.386 . S
O133 C151 1.265 . S
O134 Gd95 2.353 . S
O134 C151 1.242 . S
O135 Gd95 2.468 . S
O135 C159 1.263 . S
O136 Gd95 2.427 . S
O136 C159 1.252 . S
O137 Gd94 2.307 . S
O137 C152 1.261 . S
O138 Gd95 2.388 . S
O138 C152 1.252 . S
C139 O127 1.265 . S
C139 O128 1.242 . S
C140 O131 1.261 . S
C140 O132 1.252 . S
C141 C144 1.394 . S
C141 C146 1.370 . S
C141 C147 1.500 . S
C142 C145 1.383 . S
C142 C146 1.395 . S
C143 C144 1.396 . S
C143 C145 1.365 . S
C143 H160 0.929 . S
C144 C141 1.394 . S
C144 C143 1.396 . S
C144 H161 0.930 . S
C145 C142 1.383 . S
C145 C143 1.365 . S
C145 H162 0.931 . S
C146 C141 1.370 . S
C146 C142 1.395 . S
C146 H163 0.930 . S
C147 Gd94 2.805 . S
C147 O129 1.263 . S
C147 O130 1.252 . S
C147 C141 1.500 . S
C148 H110 0.930 . S
C148 C124 1.417 . S
C148 C149 1.329 . S
C149 C119 1.437 . S
C149 H120 0.929 . S
C149 C148 1.329 . S
H150 C123 0.931 . S
C151 O133 1.265 . S
C151 O134 1.242 . S
C152 O137 1.261 . S
C152 O138 1.252 . S
C153 C156 1.394 . S
C153 C158 1.370 . S
C153 C159 1.500 . S
C154 C157 1.383 . S
C154 C158 1.395 . S
C155 C156 1.396 . S
C155 C157 1.365 . S
C155 H164 0.929 . S
C156 C153 1.394 . S
C156 C155 1.396 . S
C156 H165 0.930 . S
C157 C154 1.383 . S
C157 C155 1.365 . S
C157 H166 0.931 . S
C158 C153 1.370 . S
C158 C154 1.395 . S
C158 H167 0.930 . S
C159 Gd95 2.805 . S
C159 O135 1.263 . S
C159 O136 1.252 . S
C159 C153 1.500 . S
H160 C143 0.929 . S
H161 C144 0.930 . S
H162 C145 0.931 . S
H163 C146 0.930 . S
H164 C155 0.929 . S
H165 C156 0.930 . S
H166 C157 0.931 . S
H167 C158 0.930 . S
C168 C170 1.422 . S
C168 C172 1.415 . S
C168 N174 1.369 . S
C169 C170 1.421 . S
C169 C171 1.417 . S
C169 C181 1.422 . S
C170 C168 1.422 . S
C170 C169 1.421 . S
C170 N180 1.359 . S
C171 C169 1.417 . S
C171 C173 1.329 . S
C171 H190 0.930 . S
C172 C168 1.415 . S
C172 C173 1.437 . S
C172 C176 1.413 . S
C173 C171 1.329 . S
C173 C172 1.437 . S
C173 H195 0.929 . S
N174 C168 1.369 . S
N174 C175 1.338 . S
N174 Gd179 2.622 . S
C175 N174 1.338 . S
C175 C177 1.378 . S
C175 H187 0.929 . S
C176 C172 1.413 . S
C176 C177 1.348 . S
C176 H192 0.931 . S
C177 C175 1.378 . S
C177 C176 1.348 . S
C177 H193 0.930 . S
Gd178 N198 2.622 . S
Gd178 N205 2.570 . S
Gd178 O212 2.353 . S
Gd178 O213 2.468 . S
Gd178 O214 2.427 . S
Gd178 O216 2.388 . S
Gd178 O217 2.386 . S
Gd178 O221 2.307 . S
Gd178 C231 2.805 . S
Gd179 N174 2.622 . S
Gd179 N180 2.570 . S
Gd179 O211 2.386 . S
Gd179 O215 2.307 . S
Gd179 O218 2.353 . S
Gd179 O219 2.468 . S
Gd179 O220 2.427 . S
Gd179 O222 2.388 . S
Gd179 C243 2.805 . S
N180 C170 1.359 . S
N180 Gd179 2.570 . S
N180 C182 1.343 . S
C181 C169 1.422 . S
C181 C183 1.321 . S
C181 H189 0.931 . S
C182 N180 1.343 . S
C182 C183 1.390 . S
C182 H184 0.931 . S
C183 C181 1.321 . S
C183 C182 1.390 . S
C183 H185 0.930 . S
H184 C182 0.931 . S
H185 C183 0.930 . S
H186 C209 0.931 . S
H187 C175 0.929 . S
H188 C210 0.930 . S
H189 C181 0.931 . S
H190 C171 0.930 . S
H191 C200 0.929 . S
H192 C176 0.931 . S
H193 C177 0.930 . S
H194 C232 0.930 . S
H195 C173 0.929 . S
H196 C201 0.931 . S
H197 C202 0.930 . S
N198 Gd178 2.622 . S
N198 C199 1.369 . S
N198 C200 1.338 . S
C199 N198 1.369 . S
C199 C203 1.415 . S
C199 C206 1.422 . S
C200 H191 0.929 . S
C200 N198 1.338 . S
C200 C202 1.378 . S
C201 H196 0.931 . S
C201 C202 1.348 . S
C201 C203 1.413 . S
C202 H197 0.930 . S
C202 C200 1.378 . S
C202 C201 1.348 . S
C203 C199 1.415 . S
C203 C201 1.413 . S
C203 C233 1.437 . S
H204 C233 0.929 . S
N205 Gd178 2.570 . S
N205 C206 1.359 . S
N205 C209 1.343 . S
C206 C199 1.422 . S
C206 N205 1.359 . S
C206 C208 1.421 . S
C207 C208 1.422 . S
C207 C210 1.321 . S
C207 H234 0.931 . S
C208 C206 1.421 . S
C208 C207 1.422 . S
C208 C232 1.417 . S
C209 H186 0.931 . S
C209 N205 1.343 . S
C209 C210 1.390 . S
C210 H188 0.930 . S
C210 C207 1.321 . S
C210 C209 1.390 . S
O211 Gd179 2.386 . S
O211 C223 1.265 . S
O212 Gd178 2.353 . S
O212 C223 1.242 . S
O213 Gd178 2.468 . S
O213 C231 1.263 . S
O214 Gd178 2.427 . S
O214 C231 1.252 . S
O215 Gd179 2.307 . S
O215 C224 1.261 . S
O216 Gd178 2.388 . S
O216 C224 1.252 . S
O217 Gd178 2.386 . S
O217 C235 1.265 . S
O218 Gd179 2.353 . S
O218 C235 1.242 . S
O219 Gd179 2.468 . S
O219 C243 1.263 . S
O220 Gd179 2.427 . S
O220 C243 1.252 . S
O221 Gd178 2.307 . S
O221 C236 1.261 . S
O222 Gd179 2.388 . S
O222 C236 1.252 . S
C223 O211 1.265 . S
C223 O212 1.242 . S
C224 O215 1.261 . S
C224 O216 1.252 . S
C225 C228 1.394 . S
C225 C230 1.370 . S
C225 C231 1.500 . S
C226 C229 1.383 . S
C226 C230 1.395 . S
C227 C228 1.396 . S
C227 C229 1.365 . S
C227 H244 0.929 . S
C228 C225 1.394 . S
C228 C227 1.396 . S
C228 H245 0.930 . S
C229 C226 1.383 . S
C229 C227 1.365 . S
C229 H246 0.931 . S
C230 C225 1.370 . S
C230 C226 1.395 . S
C230 H247 0.930 . S
C231 Gd178 2.805 . S
C231 O213 1.263 . S
C231 O214 1.252 . S
C231 C225 1.500 . S
C232 H194 0.930 . S
C232 C208 1.417 . S
C232 C233 1.329 . S
C233 C203 1.437 . S
C233 H204 0.929 . S
C233 C232 1.329 . S
H234 C207 0.931 . S
C235 O217 1.265 . S
C235 O218 1.242 . S
C236 O221 1.261 . S
C236 O222 1.252 . S
C237 C240 1.394 . S
C237 C242 1.370 . S
C237 C243 1.500 . S
C238 C241 1.383 . S
C238 C242 1.395 . S
C239 C240 1.396 . S
C239 C241 1.365 . S
C239 H248 0.929 . S
C240 C237 1.394 . S
C240 C239 1.396 . S
C240 H249 0.930 . S
C241 C238 1.383 . S
C241 C239 1.365 . S
C241 H250 0.931 . S
C242 C237 1.370 . S
C242 C238 1.395 . S
C242 H251 0.930 . S
C243 Gd179 2.805 . S
C243 O219 1.263 . S
C243 O220 1.252 . S
C243 C237 1.500 . S
H244 C227 0.929 . S
H245 C228 0.930 . S
H246 C229 0.931 . S
H247 C230 0.930 . S
H248 C239 0.929 . S
H249 C240 0.930 . S
H250 C241 0.931 . S
H251 C242 0.930 . S
C252 C254 1.422 . S
C252 C256 1.415 . S
C252 N258 1.369 . S
C253 C254 1.421 . S
C253 C255 1.417 . S
C253 C265 1.422 . S
C254 C252 1.422 . S
C254 C253 1.421 . S
C254 N264 1.359 . S
C255 C253 1.417 . S
C255 C257 1.329 . S
C255 H274 0.930 . S
C256 C252 1.415 . S
C256 C257 1.437 . S
C256 C260 1.413 . S
C257 C255 1.329 . S
C257 C256 1.437 . S
C257 H279 0.929 . S
N258 C252 1.369 . S
N258 C259 1.338 . S
N258 Gd263 2.622 . S
C259 N258 1.338 . S
C259 C261 1.378 . S
C259 H271 0.929 . S
C260 C256 1.413 . S
C260 C261 1.348 . S
C260 H276 0.931 . S
C261 C259 1.378 . S
C261 C260 1.348 . S
C261 H277 0.930 . S
Gd262 N282 2.622 . S
Gd262 N289 2.570 . S
Gd262 O296 2.353 . S
Gd262 O297 2.468 . S
Gd262 O298 2.427 . S
Gd262 O300 2.388 . S
Gd262 O301 2.386 . S
Gd262 O305 2.307 . S
Gd262 C315 2.805 . S
Gd263 N258 2.622 . S
Gd263 N264 2.570 . S
Gd263 O295 2.386 . S
Gd263 O299 2.307 . S
Gd263 O302 2.353 . S
Gd263 O303 2.468 . S
Gd263 O304 2.427 . S
Gd263 O306 2.388 . S
Gd263 C327 2.805 . S
N264 C254 1.359 . S
N264 Gd263 2.570 . S
N264 C266 1.343 . S
C265 C253 1.422 . S
C265 C267 1.321 . S
C265 H273 0.931 . S
C266 N264 1.343 . S
C266 C267 1.390 . S
C266 H268 0.931 . S
C267 C265 1.321 . S
C267 C266 1.390 . S
C267 H269 0.930 . S
H268 C266 0.931 . S
H269 C267 0.930 . S
H270 C293 0.931 . S
H271 C259 0.929 . S
H272 C294 0.930 . S
H273 C265 0.931 . S
H274 C255 0.930 . S
H275 C284 0.929 . S
H276 C260 0.931 . S
H277 C261 0.930 . S
H278 C316 0.930 . S
H279 C257 0.929 . S
H280 C285 0.931 . S
H281 C286 0.930 . S
N282 Gd262 2.622 . S
N282 C283 1.369 . S
N282 C284 1.338 . S
C283 N282 1.369 . S
C283 C287 1.415 . S
C283 C290 1.422 . S
C284 H275 0.929 . S
C284 N282 1.338 . S
C284 C286 1.378 . S
C285 H280 0.931 . S
C285 C286 1.348 . S
C285 C287 1.413 . S
C286 H281 0.930 . S
C286 C284 1.378 . S
C286 C285 1.348 . S
C287 C283 1.415 . S
C287 C285 1.413 . S
C287 C317 1.437 . S
H288 C317 0.929 . S
N289 Gd262 2.570 . S
N289 C290 1.359 . S
N289 C293 1.343 . S
C290 C283 1.422 . S
C290 N289 1.359 . S
C290 C292 1.421 . S
C291 C292 1.422 . S
C291 C294 1.321 . S
C291 H318 0.931 . S
C292 C290 1.421 . S
C292 C291 1.422 . S
C292 C316 1.417 . S
C293 H270 0.931 . S
C293 N289 1.343 . S
C293 C294 1.390 . S
C294 H272 0.930 . S
C294 C291 1.321 . S
C294 C293 1.390 . S
O295 Gd263 2.386 . S
O295 C307 1.265 . S
O296 Gd262 2.353 . S
O296 C307 1.242 . S
O297 Gd262 2.468 . S
O297 C315 1.263 . S
O298 Gd262 2.427 . S
O298 C315 1.252 . S
O299 Gd263 2.307 . S
O299 C308 1.261 . S
O300 Gd262 2.388 . S
O300 C308 1.252 . S
O301 Gd262 2.386 . S
O301 C319 1.265 . S
O302 Gd263 2.353 . S
O302 C319 1.242 . S
O303 Gd263 2.468 . S
O303 C327 1.263 . S
O304 Gd263 2.427 . S
O304 C327 1.252 . S
O305 Gd262 2.307 . S
O305 C320 1.261 . S
O306 Gd263 2.388 . S
O306 C320 1.252 . S
C307 O295 1.265 . S
C307 O296 1.242 . S
C308 O299 1.261 . S
C308 O300 1.252 . S
C309 C312 1.394 . S
C309 C314 1.370 . S
C309 C315 1.500 . S
C310 C313 1.383 . S
C310 C314 1.395 . S
C311 C312 1.396 . S
C311 C313 1.365 . S
C311 H328 0.929 . S
C312 C309 1.394 . S
C312 C311 1.396 . S
C312 H329 0.930 . S
C313 C310 1.383 . S
C313 C311 1.365 . S
C313 H330 0.931 . S
C314 C309 1.370 . S
C314 C310 1.395 . S
C314 H331 0.930 . S
C315 Gd262 2.805 . S
C315 O297 1.263 . S
C315 O298 1.252 . S
C315 C309 1.500 . S
C316 H278 0.930 . S
C316 C292 1.417 . S
C316 C317 1.329 . S
C317 C287 1.437 . S
C317 H288 0.929 . S
C317 C316 1.329 . S
H318 C291 0.931 . S
C319 O301 1.265 . S
C319 O302 1.242 . S
C320 O305 1.261 . S
C320 O306 1.252 . S
C321 C324 1.394 . S
C321 C326 1.370 . S
C321 C327 1.500 . S
C322 C325 1.383 . S
C322 C326 1.395 . S
C323 C324 1.396 . S
C323 C325 1.365 . S
C323 H332 0.929 . S
C324 C321 1.394 . S
C324 C323 1.396 . S
C324 H333 0.930 . S
C325 C322 1.383 . S
C325 C323 1.365 . S
C325 H334 0.931 . S
C326 C321 1.370 . S
C326 C322 1.395 . S
C326 H335 0.930 . S
C327 Gd263 2.805 . S
C327 O303 1.263 . S
C327 O304 1.252 . S
C327 C321 1.500 . S
H328 C311 0.929 . S
H329 C312 0.930 . S
H330 C313 0.931 . S
H331 C314 0.930 . S
H332 C323 0.929 . S
H333 C324 0.930 . S
H334 C325 0.931 . S
H335 C326 0.930 . S
C336 C338 1.422 . S
C336 C340 1.415 . S
C336 N342 1.369 . S
C337 C338 1.421 . S
C337 C339 1.417 . S
C337 C349 1.422 . S
C338 C336 1.422 . S
C338 C337 1.421 . S
C338 N348 1.359 . S
C339 C337 1.417 . S
C339 C341 1.329 . S
C339 H358 0.930 . S
C340 C336 1.415 . S
C340 C341 1.437 . S
C340 C344 1.413 . S
C341 C339 1.329 . S
C341 C340 1.437 . S
C341 H363 0.929 . S
N342 C336 1.369 . S
N342 C343 1.338 . S
N342 Gd347 2.622 . S
C343 N342 1.338 . S
C343 C345 1.378 . S
C343 H355 0.929 . S
C344 C340 1.413 . S
C344 C345 1.348 . S
C344 H360 0.931 . S
C345 C343 1.378 . S
C345 C344 1.348 . S
C345 H361 0.930 . S
Gd346 N366 2.622 . S
Gd346 N373 2.570 . S
Gd346 O380 2.353 . S
Gd346 O381 2.468 . S
Gd346 O382 2.427 . S
Gd346 O384 2.388 . S
Gd346 O385 2.386 . S
Gd346 O389 2.307 . S
Gd346 C399 2.805 . S
Gd347 N342 2.622 . S
Gd347 N348 2.570 . S
Gd347 O379 2.386 . S
Gd347 O383 2.307 . S
Gd347 O386 2.353 . S
Gd347 O387 2.468 . S
Gd347 O388 2.427 . S
Gd347 O390 2.388 . S
Gd347 C411 2.805 . S
N348 C338 1.359 . S
N348 Gd347 2.570 . S
N348 C350 1.343 . S
C349 C337 1.422 . S
C349 C351 1.321 . S
C349 H357 0.931 . S
C350 N348 1.343 . S
C350 C351 1.390 . S
C350 H352 0.931 . S
C351 C349 1.321 . S
C351 C350 1.390 . S
C351 H353 0.930 . S
H352 C350 0.931 . S
H353 C351 0.930 . S
H354 C377 0.931 . S
H355 C343 0.929 . S
H356 C378 0.930 . S
H357 C349 0.931 . S
H358 C339 0.930 . S
H359 C368 0.929 . S
H360 C344 0.931 . S
H361 C345 0.930 . S
H362 C400 0.930 . S
H363 C341 0.929 . S
H364 C369 0.931 . S
H365 C370 0.930 . S
N366 Gd346 2.622 . S
N366 C367 1.369 . S
N366 C368 1.338 . S
C367 N366 1.369 . S
C367 C371 1.415 . S
C367 C374 1.422 . S
C368 H359 0.929 . S
C368 N366 1.338 . S
C368 C370 1.378 . S
C369 H364 0.931 . S
C369 C370 1.348 . S
C369 C371 1.413 . S
C370 H365 0.930 . S
C370 C368 1.378 . S
C370 C369 1.348 . S
C371 C367 1.415 . S
C371 C369 1.413 . S
C371 C401 1.437 . S
H372 C401 0.929 . S
N373 Gd346 2.570 . S
N373 C374 1.359 . S
N373 C377 1.343 . S
C374 C367 1.422 . S
C374 N373 1.359 . S
C374 C376 1.421 . S
C375 C376 1.422 . S
C375 C378 1.321 . S
C375 H402 0.931 . S
C376 C374 1.421 . S
C376 C375 1.422 . S
C376 C400 1.417 . S
C377 H354 0.931 . S
C377 N373 1.343 . S
C377 C378 1.390 . S
C378 H356 0.930 . S
C378 C375 1.321 . S
C378 C377 1.390 . S
O379 Gd347 2.386 . S
O379 C391 1.265 . S
O380 Gd346 2.353 . S
O380 C391 1.242 . S
O381 Gd346 2.468 . S
O381 C399 1.263 . S
O382 Gd346 2.427 . S
O382 C399 1.252 . S
O383 Gd347 2.307 . S
O383 C392 1.261 . S
O384 Gd346 2.388 . S
O384 C392 1.252 . S
O385 Gd346 2.386 . S
O385 C403 1.265 . S
O386 Gd347 2.353 . S
O386 C403 1.242 . S
O387 Gd347 2.468 . S
O387 C411 1.263 . S
O388 Gd347 2.427 . S
O388 C411 1.252 . S
O389 Gd346 2.307 . S
O389 C404 1.261 . S
O390 Gd347 2.388 . S
O390 C404 1.252 . S
C391 O379 1.265 . S
C391 O380 1.242 . S
C392 O383 1.261 . S
C392 O384 1.252 . S
C393 C396 1.394 . S
C393 C398 1.370 . S
C393 C399 1.500 . S
C394 C397 1.383 . S
C394 C398 1.395 . S
C395 C396 1.396 . S
C395 C397 1.365 . S
C395 H412 0.929 . S
C396 C393 1.394 . S
C396 C395 1.396 . S
C396 H413 0.930 . S
C397 C394 1.383 . S
C397 C395 1.365 . S
C397 H414 0.931 . S
C398 C393 1.370 . S
C398 C394 1.395 . S
C398 H415 0.930 . S
C399 Gd346 2.805 . S
C399 O381 1.263 . S
C399 O382 1.252 . S
C399 C393 1.500 . S
C400 H362 0.930 . S
C400 C376 1.417 . S
C400 C401 1.329 . S
C401 C371 1.437 . S
C401 H372 0.929 . S
C401 C400 1.329 . S
H402 C375 0.931 . S
C403 O385 1.265 . S
C403 O386 1.242 . S
C404 O389 1.261 . S
C404 O390 1.252 . S
C405 C408 1.394 . S
C405 C410 1.370 . S
C405 C411 1.500 . S
C406 C409 1.383 . S
C406 C410 1.395 . S
C407 C408 1.396 . S
C407 C409 1.365 . S
C407 H416 0.929 . S
C408 C405 1.394 . S
C408 C407 1.396 . S
C408 H417 0.930 . S
C409 C406 1.383 . S
C409 C407 1.365 . S
C409 H418 0.931 . S
C410 C405 1.370 . S
C410 C406 1.395 . S
C410 H419 0.930 . S
C411 Gd347 2.805 . S
C411 O387 1.263 . S
C411 O388 1.252 . S
C411 C405 1.500 . S
H412 C395 0.929 . S
H413 C396 0.930 . S
H414 C397 0.931 . S
H415 C398 0.930 . S
H416 C407 0.929 . S
H417 C408 0.930 . S
H418 C409 0.931 . S
H419 C410 0.930 . S
C420 C422 1.422 . S
C420 C424 1.415 . S
C420 N426 1.369 . S
C421 C422 1.421 . S
C421 C423 1.417 . S
C421 C433 1.422 . S
C422 C420 1.422 . S
C422 C421 1.421 . S
C422 N432 1.359 . S
C423 C421 1.417 . S
C423 C425 1.329 . S
C423 H442 0.930 . S
C424 C420 1.415 . S
C424 C425 1.437 . S
C424 C428 1.413 . S
C425 C423 1.329 . S
C425 C424 1.437 . S
C425 H447 0.929 . S
N426 C420 1.369 . S
N426 C427 1.338 . S
N426 Gd431 2.622 . S
C427 N426 1.338 . S
C427 C429 1.378 . S
C427 H439 0.929 . S
C428 C424 1.413 . S
C428 C429 1.348 . S
C428 H444 0.931 . S
C429 C427 1.378 . S
C429 C428 1.348 . S
C429 H445 0.930 . S
Gd430 N450 2.622 . S
Gd430 N457 2.570 . S
Gd430 O464 2.353 . S
Gd430 O465 2.468 . S
Gd430 O466 2.427 . S
Gd430 O468 2.388 . S
Gd430 O469 2.386 . S
Gd430 O473 2.307 . S
Gd430 C483 2.805 . S
Gd431 N426 2.622 . S
Gd431 N432 2.570 . S
Gd431 O463 2.386 . S
Gd431 O467 2.307 . S
Gd431 O470 2.353 . S
Gd431 O471 2.468 . S
Gd431 O472 2.427 . S
Gd431 O474 2.388 . S
Gd431 C495 2.805 . S
N432 C422 1.359 . S
N432 Gd431 2.570 . S
N432 C434 1.343 . S
C433 C421 1.422 . S
C433 C435 1.321 . S
C433 H441 0.931 . S
C434 N432 1.343 . S
C434 C435 1.390 . S
C434 H436 0.931 . S
C435 C433 1.321 . S
C435 C434 1.390 . S
C435 H437 0.930 . S
H436 C434 0.931 . S
H437 C435 0.930 . S
H438 C461 0.931 . S
H439 C427 0.929 . S
H440 C462 0.930 . S
H441 C433 0.931 . S
H442 C423 0.930 . S
H443 C452 0.929 . S
H444 C428 0.931 . S
H445 C429 0.930 . S
H446 C484 0.930 . S
H447 C425 0.929 . S
H448 C453 0.931 . S
H449 C454 0.930 . S
N450 Gd430 2.622 . S
N450 C451 1.369 . S
N450 C452 1.338 . S
C451 N450 1.369 . S
C451 C455 1.415 . S
C451 C458 1.422 . S
C452 H443 0.929 . S
C452 N450 1.338 . S
C452 C454 1.378 . S
C453 H448 0.931 . S
C453 C454 1.348 . S
C453 C455 1.413 . S
C454 H449 0.930 . S
C454 C452 1.378 . S
C454 C453 1.348 . S
C455 C451 1.415 . S
C455 C453 1.413 . S
C455 C485 1.437 . S
H456 C485 0.929 . S
N457 Gd430 2.570 . S
N457 C458 1.359 . S
N457 C461 1.343 . S
C458 C451 1.422 . S
C458 N457 1.359 . S
C458 C460 1.421 . S
C459 C460 1.422 . S
C459 C462 1.321 . S
C459 H486 0.931 . S
C460 C458 1.421 . S
C460 C459 1.422 . S
C460 C484 1.417 . S
C461 H438 0.931 . S
C461 N457 1.343 . S
C461 C462 1.390 . S
C462 H440 0.930 . S
C462 C459 1.321 . S
C462 C461 1.390 . S
O463 Gd431 2.386 . S
O463 C475 1.265 . S
O464 Gd430 2.353 . S
O464 C475 1.242 . S
O465 Gd430 2.468 . S
O465 C483 1.263 . S
O466 Gd430 2.427 . S
O466 C483 1.252 . S
O467 Gd431 2.307 . S
O467 C476 1.261 . S
O468 Gd430 2.388 . S
O468 C476 1.252 . S
O469 Gd430 2.386 . S
O469 C487 1.265 . S
O470 Gd431 2.353 . S
O470 C487 1.242 . S
O471 Gd431 2.468 . S
O471 C495 1.263 . S
O472 Gd431 2.427 . S
O472 C495 1.252 . S
O473 Gd430 2.307 . S
O473 C488 1.261 . S
O474 Gd431 2.388 . S
O474 C488 1.252 . S
C475 O463 1.265 . S
C475 O464 1.242 . S
C476 O467 1.261 . S
C476 O468 1.252 . S
C477 C480 1.394 . S
C477 C482 1.370 . S
C477 C483 1.500 . S
C478 C481 1.383 . S
C478 C482 1.395 . S
C479 C480 1.396 . S
C479 C481 1.365 . S
C479 H496 0.929 . S
C480 C477 1.394 . S
C480 C479 1.396 . S
C480 H497 0.930 . S
C481 C478 1.383 . S
C481 C479 1.365 . S
C481 H498 0.931 . S
C482 C477 1.370 . S
C482 C478 1.395 . S
C482 H499 0.930 . S
C483 Gd430 2.805 . S
C483 O465 1.263 . S
C483 O466 1.252 . S
C483 C477 1.500 . S
C484 H446 0.930 . S
C484 C460 1.417 . S
C484 C485 1.329 . S
C485 C455 1.437 . S
C485 H456 0.929 . S
C485 C484 1.329 . S
H486 C459 0.931 . S
C487 O469 1.265 . S
C487 O470 1.242 . S
C488 O473 1.261 . S
C488 O474 1.252 . S
C489 C492 1.394 . S
C489 C494 1.370 . S
C489 C495 1.500 . S
C490 C493 1.383 . S
C490 C494 1.395 . S
C491 C492 1.396 . S
C491 C493 1.365 . S
C491 H500 0.929 . S
C492 C489 1.394 . S
C492 C491 1.396 . S
C492 H501 0.930 . S
C493 C490 1.383 . S
C493 C491 1.365 . S
C493 H502 0.931 . S
C494 C489 1.370 . S
C494 C490 1.395 . S
C494 H503 0.930 . S
C495 Gd431 2.805 . S
C495 O471 1.263 . S
C495 O472 1.252 . S
C495 C489 1.500 . S
H496 C479 0.929 . S
H497 C480 0.930 . S
H498 C481 0.931 . S
H499 C482 0.930 . S
H500 C491 0.929 . S
H501 C492 0.930 . S
H502 C493 0.931 . S
H503 C494 0.930 . S
C504 C506 1.422 . S
C504 C508 1.415 . S
C504 N510 1.369 . S
C505 C506 1.421 . S
C505 C507 1.417 . S
C505 C517 1.422 . S
C506 C504 1.422 . S
C506 C505 1.421 . S
C506 N516 1.359 . S
C507 C505 1.417 . S
C507 C509 1.329 . S
C507 H526 0.930 . S
C508 C504 1.415 . S
C508 C509 1.437 . S
C508 C512 1.413 . S
C509 C507 1.329 . S
C509 C508 1.437 . S
C509 H531 0.929 . S
N510 C504 1.369 . S
N510 C511 1.338 . S
N510 Gd515 2.622 . S
C511 N510 1.338 . S
C511 C513 1.378 . S
C511 H523 0.929 . S
C512 C508 1.413 . S
C512 C513 1.348 . S
C512 H528 0.931 . S
C513 C511 1.378 . S
C513 C512 1.348 . S
C513 H529 0.930 . S
Gd514 N534 2.622 . S
Gd514 N541 2.570 . S
Gd514 O548 2.353 . S
Gd514 O549 2.468 . S
Gd514 O550 2.427 . S
Gd514 O552 2.388 . S
Gd514 O553 2.386 . S
Gd514 O557 2.307 . S
Gd514 C567 2.805 . S
Gd515 N510 2.622 . S
Gd515 N516 2.570 . S
Gd515 O547 2.386 . S
Gd515 O551 2.307 . S
Gd515 O554 2.353 . S
Gd515 O555 2.468 . S
Gd515 O556 2.427 . S
Gd515 O558 2.388 . S
Gd515 C579 2.805 . S
N516 C506 1.359 . S
N516 Gd515 2.570 . S
N516 C518 1.343 . S
C517 C505 1.422 . S
C517 C519 1.321 . S
C517 H525 0.931 . S
C518 N516 1.343 . S
C518 C519 1.390 . S
C518 H520 0.931 . S
C519 C517 1.321 . S
C519 C518 1.390 . S
C519 H521 0.930 . S
H520 C518 0.931 . S
H521 C519 0.930 . S
H522 C545 0.931 . S
H523 C511 0.929 . S
H524 C546 0.930 . S
H525 C517 0.931 . S
H526 C507 0.930 . S
H527 C536 0.929 . S
H528 C512 0.931 . S
H529 C513 0.930 . S
H530 C568 0.930 . S
H531 C509 0.929 . S
H532 C537 0.931 . S
H533 C538 0.930 . S
N534 Gd514 2.622 . S
N534 C535 1.369 . S
N534 C536 1.338 . S
C535 N534 1.369 . S
C535 C539 1.415 . S
C535 C542 1.422 . S
C536 H527 0.929 . S
C536 N534 1.338 . S
C536 C538 1.378 . S
C537 H532 0.931 . S
C537 C538 1.348 . S
C537 C539 1.413 . S
C538 H533 0.930 . S
C538 C536 1.378 . S
C538 C537 1.348 . S
C539 C535 1.415 . S
C539 C537 1.413 . S
C539 C569 1.437 . S
H540 C569 0.929 . S
N541 Gd514 2.570 . S
N541 C542 1.359 . S
N541 C545 1.343 . S
C542 C535 1.422 . S
C542 N541 1.359 . S
C542 C544 1.421 . S
C543 C544 1.422 . S
C543 C546 1.321 . S
C543 H570 0.931 . S
C544 C542 1.421 . S
C544 C543 1.422 . S
C544 C568 1.417 . S
C545 H522 0.931 . S
C545 N541 1.343 . S
C545 C546 1.390 . S
C546 H524 0.930 . S
C546 C543 1.321 . S
C546 C545 1.390 . S
O547 Gd515 2.386 . S
O547 C559 1.265 . S
O548 Gd514 2.353 . S
O548 C559 1.242 . S
O549 Gd514 2.468 . S
O549 C567 1.263 . S
O550 Gd514 2.427 . S
O550 C567 1.252 . S
O551 Gd515 2.307 . S
O551 C560 1.261 . S
O552 Gd514 2.388 . S
O552 C560 1.252 . S
O553 Gd514 2.386 . S
O553 C571 1.265 . S
O554 Gd515 2.353 . S
O554 C571 1.242 . S
O555 Gd515 2.468 . S
O555 C579 1.263 . S
O556 Gd515 2.427 . S
O556 C579 1.252 . S
O557 Gd514 2.307 . S
O557 C572 1.261 . S
O558 Gd515 2.388 . S
O558 C572 1.252 . S
C559 O547 1.265 . S
C559 O548 1.242 . S
C560 O551 1.261 . S
C560 O552 1.252 . S
C561 C564 1.394 . S
C561 C566 1.370 . S
C561 C567 1.500 . S
C562 C565 1.383 . S
C562 C566 1.395 . S
C563 C564 1.396 . S
C563 C565 1.365 . S
C563 H580 0.929 . S
C564 C561 1.394 . S
C564 C563 1.396 . S
C564 H581 0.930 . S
C565 C562 1.383 . S
C565 C563 1.365 . S
C565 H582 0.931 . S
C566 C561 1.370 . S
C566 C562 1.395 . S
C566 H583 0.930 . S
C567 Gd514 2.805 . S
C567 O549 1.263 . S
C567 O550 1.252 . S
C567 C561 1.500 . S
C568 H530 0.930 . S
C568 C544 1.417 . S
C568 C569 1.329 . S
C569 C539 1.437 . S
C569 H540 0.929 . S
C569 C568 1.329 . S
H570 C543 0.931 . S
C571 O553 1.265 . S
C571 O554 1.242 . S
C572 O557 1.261 . S
C572 O558 1.252 . S
C573 C576 1.394 . S
C573 C578 1.370 . S
C573 C579 1.500 . S
C574 C577 1.383 . S
C574 C578 1.395 . S
C575 C576 1.396 . S
C575 C577 1.365 . S
C575 H584 0.929 . S
C576 C573 1.394 . S
C576 C575 1.396 . S
C576 H585 0.930 . S
C577 C574 1.383 . S
C577 C575 1.365 . S
C577 H586 0.931 . S
C578 C573 1.370 . S
C578 C574 1.395 . S
C578 H587 0.930 . S
C579 Gd515 2.805 . S
C579 O555 1.263 . S
C579 O556 1.252 . S
C579 C573 1.500 . S
H580 C563 0.929 . S
H581 C564 0.930 . S
H582 C565 0.931 . S
H583 C566 0.930 . S
H584 C575 0.929 . S
H585 C576 0.930 . S
H586 C577 0.931 . S
H587 C578 0.930 . S
C588 C590 1.422 . S
C588 C592 1.415 . S
C588 N594 1.369 . S
C589 C590 1.421 . S
C589 C591 1.417 . S
C589 C601 1.422 . S
C590 C588 1.422 . S
C590 C589 1.421 . S
C590 N600 1.359 . S
C591 C589 1.417 . S
C591 C593 1.329 . S
C591 H610 0.930 . S
C592 C588 1.415 . S
C592 C593 1.437 . S
C592 C596 1.413 . S
C593 C591 1.329 . S
C593 C592 1.437 . S
C593 H615 0.929 . S
N594 C588 1.369 . S
N594 C595 1.338 . S
N594 Gd599 2.622 . S
C595 N594 1.338 . S
C595 C597 1.378 . S
C595 H607 0.929 . S
C596 C592 1.413 . S
C596 C597 1.348 . S
C596 H612 0.931 . S
C597 C595 1.378 . S
C597 C596 1.348 . S
C597 H613 0.930 . S
Gd598 N618 2.622 . S
Gd598 N625 2.570 . S
Gd598 O632 2.353 . S
Gd598 O633 2.468 . S
Gd598 O634 2.427 . S
Gd598 O636 2.388 . S
Gd598 O637 2.386 . S
Gd598 O641 2.307 . S
Gd598 C651 2.805 . S
Gd599 N594 2.622 . S
Gd599 N600 2.570 . S
Gd599 O631 2.386 . S
Gd599 O635 2.307 . S
Gd599 O638 2.353 . S
Gd599 O639 2.468 . S
Gd599 O640 2.427 . S
Gd599 O642 2.388 . S
Gd599 C663 2.805 . S
N600 C590 1.359 . S
N600 Gd599 2.570 . S
N600 C602 1.343 . S
C601 C589 1.422 . S
C601 C603 1.321 . S
C601 H609 0.931 . S
C602 N600 1.343 . S
C602 C603 1.390 . S
C602 H604 0.931 . S
C603 C601 1.321 . S
C603 C602 1.390 . S
C603 H605 0.930 . S
H604 C602 0.931 . S
H605 C603 0.930 . S
H606 C629 0.931 . S
H607 C595 0.929 . S
H608 C630 0.930 . S
H609 C601 0.931 . S
H610 C591 0.930 . S
H611 C620 0.929 . S
H612 C596 0.931 . S
H613 C597 0.930 . S
H614 C652 0.930 . S
H615 C593 0.929 . S
H616 C621 0.931 . S
H617 C622 0.930 . S
N618 Gd598 2.622 . S
N618 C619 1.369 . S
N618 C620 1.338 . S
C619 N618 1.369 . S
C619 C623 1.415 . S
C619 C626 1.422 . S
C620 H611 0.929 . S
C620 N618 1.338 . S
C620 C622 1.378 . S
C621 H616 0.931 . S
C621 C622 1.348 . S
C621 C623 1.413 . S
C622 H617 0.930 . S
C622 C620 1.378 . S
C622 C621 1.348 . S
C623 C619 1.415 . S
C623 C621 1.413 . S
C623 C653 1.437 . S
H624 C653 0.929 . S
N625 Gd598 2.570 . S
N625 C626 1.359 . S
N625 C629 1.343 . S
C626 C619 1.422 . S
C626 N625 1.359 . S
C626 C628 1.421 . S
C627 C628 1.422 . S
C627 C630 1.321 . S
C627 H654 0.931 . S
C628 C626 1.421 . S
C628 C627 1.422 . S
C628 C652 1.417 . S
C629 H606 0.931 . S
C629 N625 1.343 . S
C629 C630 1.390 . S
C630 H608 0.930 . S
C630 C627 1.321 . S
C630 C629 1.390 . S
O631 Gd599 2.386 . S
O631 C643 1.265 . S
O632 Gd598 2.353 . S
O632 C643 1.242 . S
O633 Gd598 2.468 . S
O633 C651 1.263 . S
O634 Gd598 2.427 . S
O634 C651 1.252 . S
O635 Gd599 2.307 . S
O635 C644 1.261 . S
O636 Gd598 2.388 . S
O636 C644 1.252 . S
O637 Gd598 2.386 . S
O637 C655 1.265 . S
O638 Gd599 2.353 . S
O638 C655 1.242 . S
O639 Gd599 2.468 . S
O639 C663 1.263 . S
O640 Gd599 2.427 . S
O640 C663 1.252 . S
O641 Gd598 2.307 . S
O641 C656 1.261 . S
O642 Gd599 2.388 . S
O642 C656 1.252 . S
C643 O631 1.265 . S
C643 O632 1.242 . S
C644 O635 1.261 . S
C644 O636 1.252 . S
C645 C648 1.394 . S
C645 C650 1.370 . S
C645 C651 1.500 . S
C646 C649 1.383 . S
C646 C650 1.395 . S
C647 C648 1.396 . S
C647 C649 1.365 . S
C647 H664 0.929 . S
C648 C645 1.394 . S
C648 C647 1.396 . S
C648 H665 0.930 . S
C649 C646 1.383 . S
C649 C647 1.365 . S
C649 H666 0.931 . S
C650 C645 1.370 . S
C650 C646 1.395 . S
C650 H667 0.930 . S
C651 Gd598 2.805 . S
C651 O633 1.263 . S
C651 O634 1.252 . S
C651 C645 1.500 . S
C652 H614 0.930 . S
C652 C628 1.417 . S
C652 C653 1.329 . S
C653 C623 1.437 . S
C653 H624 0.929 . S
C653 C652 1.329 . S
H654 C627 0.931 . S
C655 O637 1.265 . S
C655 O638 1.242 . S
C656 O641 1.261 . S
C656 O642 1.252 . S
C657 C660 1.394 . S
C657 C662 1.370 . S
C657 C663 1.500 . S
C658 C661 1.383 . S
C658 C662 1.395 . S
C659 C660 1.396 . S
C659 C661 1.365 . S
C659 H668 0.929 . S
C660 C657 1.394 . S
C660 C659 1.396 . S
C660 H669 0.930 . S
C661 C658 1.383 . S
C661 C659 1.365 . S
C661 H670 0.931 . S
C662 C657 1.370 . S
C662 C658 1.395 . S
C662 H671 0.930 . S
C663 Gd599 2.805 . S
C663 O639 1.263 . S
C663 O640 1.252 . S
C663 C657 1.500 . S
H664 C647 0.929 . S
H665 C648 0.930 . S
H666 C649 0.931 . S
H667 C650 0.930 . S
H668 C659 0.929 . S
H669 C660 0.930 . S
H670 C661 0.931 . S
H671 C662 0.930 . S
Co672 O675 2.042 . S
Co672 O682 2.264 . S
Co672 O701 2.286 . S
Co672 O702 2.069 . S
Co672 O704 2.015 1_455 S
Co673 O675 2.122 . S
Co673 O681 2.073 . S
Co673 O682 2.327 . S
Co673 O683 1.976 1_455 S
Co674 O675 2.083 1_545 S
Co674 O677 2.091 1_455 S
Co674 O684 2.109 1_445 S
Co674 O685 2.146 . S
Co674 O689 2.113 . S
Co674 O703 2.141 1_445 S
O675 Co672 2.042 . S
O675 Co673 2.122 . S
O675 Co674 2.083 1_565 S
O675 H676 0.980 . S
H676 O675 0.980 . S
O677 Co674 2.091 1_655 S
O677 Co678 2.042 . S
O677 Co679 2.122 . S
O677 H680 0.980 . S
Co678 O677 2.042 . S
Co678 O686 2.286 . S
Co678 O687 2.069 . S
Co678 O688 2.015 1_655 S
Co678 O691 2.264 . S
Co679 O677 2.122 . S
Co679 O690 1.976 1_655 S
Co679 O691 2.327 . S
Co679 O692 2.073 . S
H680 O677 0.980 . S
O681 Co673 2.073 . S
O681 C696 1.245 . S
O682 Co672 2.264 . S
O682 Co673 2.327 . S
O682 C696 1.257 . S
O683 Co673 1.976 1_655 S
O683 C695 1.251 . S
O684 Co674 2.109 1_665 S
O684 C695 1.274 . S
O685 Co674 2.146 . S
O685 C698 1.246 . S
O686 Co678 2.286 . S
O686 C697 1.259 . S
O687 Co678 2.069 . S
O687 C697 1.289 . S
O688 Co678 2.015 1_455 S
O688 C698 1.257 . S
O689 Co674 2.113 . S
O689 C699 1.274 . S
O690 Co679 1.976 1_455 S
O690 C699 1.251 . S
O691 Co678 2.264 . S
O691 Co679 2.327 . S
O691 C700 1.257 . S
O692 Co679 2.073 . S
O692 C700 1.245 . S
C693 O701 1.259 . S
C693 O702 1.289 . S
C694 O703 1.246 . S
C694 O704 1.257 . S
C695 O683 1.251 . S
C695 O684 1.274 . S
C696 O681 1.245 . S
C696 O682 1.257 . S
C697 O686 1.259 . S
C697 O687 1.289 . S
C698 O685 1.246 . S
C698 O688 1.257 . S
C699 O689 1.274 . S
C699 O690 1.251 . S
C700 O691 1.257 . S
C700 O692 1.245 . S
O701 Co672 2.286 . S
O701 C693 1.259 . S
O702 Co672 2.069 . S
O702 C693 1.289 . S
O703 Co674 2.141 1_665 S
O703 C694 1.246 . S
O704 Co672 2.015 1_655 S
O704 C694 1.257 . S
Co705 O708 2.042 1_556 S
Co705 O715 2.264 1_556 S
Co705 O734 2.286 . S
Co705 O735 2.069 . S
Co705 O737 2.015 . S
Co706 O708 2.122 . S
Co706 O714 2.073 . S
Co706 O715 2.327 . S
Co706 O716 1.976 . S
Co707 O708 2.083 1_545 S
Co707 O710 2.091 1_554 S
Co707 O717 2.110 1_545 S
Co707 O718 2.146 . S
Co707 O722 2.113 1_554 S
Co707 O736 2.141 1_544 S
O708 Co705 2.042 1_554 S
O708 Co706 2.122 . S
O708 Co707 2.083 1_565 S
O708 H709 0.980 . S
H709 O708 0.980 . S
O710 Co707 2.091 1_556 S
O710 Co711 2.042 1_556 S
O710 Co712 2.122 . S
O710 H713 0.980 . S
Co711 O710 2.042 1_554 S
Co711 O719 2.286 . S
Co711 O720 2.069 . S
Co711 O721 2.015 . S
Co711 O724 2.264 1_554 S
Co712 O710 2.122 . S
Co712 O723 1.976 . S
Co712 O724 2.327 . S
Co712 O725 2.073 . S
H713 O710 0.980 . S
O714 Co706 2.073 . S
O714 C729 1.245 . S
O715 Co705 2.264 1_554 S
O715 Co706 2.327 . S
O715 C729 1.257 . S
O716 Co706 1.976 . S
O716 C728 1.251 . S
O717 Co707 2.110 1_565 S
O717 C728 1.274 . S
O718 Co707 2.146 . S
O718 C731 1.246 . S
O719 Co711 2.286 . S
O719 C730 1.259 . S
O720 Co711 2.069 . S
O720 C730 1.289 . S
O721 Co711 2.015 . S
O721 C731 1.257 . S
O722 Co707 2.113 1_556 S
O722 C732 1.274 . S
O723 Co712 1.976 . S
O723 C732 1.251 . S
O724 Co711 2.264 1_556 S
O724 Co712 2.327 . S
O724 C733 1.257 . S
O725 Co712 2.073 . S
O725 C733 1.245 . S
C726 O734 1.259 . S
C726 O735 1.289 . S
C727 O736 1.246 . S
C727 O737 1.257 . S
C728 O716 1.251 . S
C728 O717 1.274 . S
C729 O714 1.245 . S
C729 O715 1.257 . S
C730 O719 1.259 . S
C730 O720 1.289 . S
C731 O718 1.246 . S
C731 O721 1.257 . S
C732 O722 1.274 . S
C732 O723 1.251 . S
C733 O724 1.257 . S
C733 O725 1.245 . S
O734 Co705 2.286 . S
O734 C726 1.259 . S
O735 Co705 2.069 . S
O735 C726 1.289 . S
O736 Co707 2.141 1_566 S
O736 C727 1.246 . S
O737 Co705 2.015 . S
O737 C727 1.257 . S
Co738 O741 2.042 1_556 S
Co738 O748 2.264 1_556 S
Co738 O767 2.286 . S
Co738 O768 2.069 . S
Co738 O770 2.015 1_455 S
Co739 O741 2.122 . S
Co739 O747 2.073 . S
Co739 O748 2.327 . S
Co739 O749 1.976 1_455 S
Co740 O741 2.088 . S
Co740 O743 2.086 1_454 S
Co740 O750 2.111 1_455 S
Co740 O751 2.144 . S
Co740 O755 2.112 1_554 S
Co740 O769 2.143 1_454 S
O741 Co738 2.042 1_554 S
O741 Co739 2.122 . S
O741 Co740 2.088 . S
O741 H742 0.980 . S
H742 O741 0.980 . S
O743 Co740 2.086 1_656 S
O743 Co744 2.042 1_556 S
O743 Co745 2.122 . S
O743 H746 0.980 . S
Co744 O743 2.042 1_554 S
Co744 O752 2.286 . S
Co744 O753 2.069 . S
Co744 O754 2.015 1_655 S
Co744 O757 2.264 1_554 S
Co745 O743 2.122 . S
Co745 O756 1.976 1_655 S
Co745 O757 2.327 . S
Co745 O758 2.073 . S
H746 O743 0.980 . S
O747 Co739 2.073 . S
O747 C762 1.245 . S
O748 Co738 2.264 1_554 S
O748 Co739 2.327 . S
O748 C762 1.257 . S
O749 Co739 1.976 1_655 S
O749 C761 1.251 . S
O750 Co740 2.111 1_655 S
O750 C761 1.274 . S
O751 Co740 2.144 . S
O751 C764 1.246 . S
O752 Co744 2.286 . S
O752 C763 1.259 . S
O753 Co744 2.069 . S
O753 C763 1.289 . S
O754 Co744 2.015 1_455 S
O754 C764 1.257 . S
O755 Co740 2.112 1_556 S
O755 C765 1.274 . S
O756 Co745 1.976 1_455 S
O756 C765 1.251 . S
O757 Co744 2.264 1_556 S
O757 Co745 2.327 . S
O757 C766 1.257 . S
O758 Co745 2.073 . S
O758 C766 1.245 . S
C759 O767 1.259 . S
C759 O768 1.289 . S
C760 O769 1.246 . S
C760 O770 1.257 . S
C761 O749 1.251 . S
C761 O750 1.274 . S
C762 O747 1.245 . S
C762 O748 1.257 . S
C763 O752 1.259 . S
C763 O753 1.289 . S
C764 O751 1.246 . S
C764 O754 1.257 . S
C765 O755 1.274 . S
C765 O756 1.251 . S
C766 O757 1.257 . S
C766 O758 1.245 . S
O767 Co738 2.286 . S
O767 C759 1.259 . S
O768 Co738 2.069 . S
O768 C759 1.289 . S
O769 Co740 2.143 1_656 S
O769 C760 1.246 . S
O770 Co738 2.015 1_655 S
O770 C760 1.257 . S
Co771 O774 2.042 1_556 S
Co771 O781 2.264 1_556 S
Co771 O800 2.286 . S
Co771 O801 2.069 . S
Co771 O803 2.015 . S
Co772 O774 2.122 . S
Co772 O780 2.073 . S
Co772 O781 2.327 . S
Co772 O782 1.976 . S
Co773 O774 2.087 . S
Co773 O776 2.087 1_554 S
Co773 O783 2.111 . S
Co773 O784 2.143 . S
Co773 O788 2.111 1_554 S
Co773 O802 2.143 1_554 S
O774 Co771 2.042 1_554 S
O774 Co772 2.122 . S
O774 Co773 2.087 . S
O774 H775 0.980 . S
H775 O774 0.980 . S
O776 Co773 2.087 1_556 S
O776 Co777 2.042 1_556 S
O776 Co778 2.122 . S
O776 H779 0.980 . S
Co777 O776 2.042 1_554 S
Co777 O785 2.286 . S
Co777 O786 2.069 . S
Co777 O787 2.015 . S
Co777 O790 2.264 1_554 S
Co778 O776 2.122 . S
Co778 O789 1.976 . S
Co778 O790 2.327 . S
Co778 O791 2.073 . S
H779 O776 0.980 . S
O780 Co772 2.073 . S
O780 C795 1.245 . S
O781 Co771 2.264 1_554 S
O781 Co772 2.327 . S
O781 C795 1.257 . S
O782 Co772 1.976 . S
O782 C794 1.251 . S
O783 Co773 2.111 . S
O783 C794 1.274 . S
O784 Co773 2.143 . S
O784 C797 1.246 . S
O785 Co777 2.286 . S
O785 C796 1.259 . S
O786 Co777 2.069 . S
O786 C796 1.289 . S
O787 Co777 2.015 . S
O787 C797 1.257 . S
O788 Co773 2.111 1_556 S
O788 C798 1.274 . S
O789 Co778 1.976 . S
O789 C798 1.251 . S
O790 Co777 2.264 1_556 S
O790 Co778 2.327 . S
O790 C799 1.257 . S
O791 Co778 2.073 . S
O791 C799 1.245 . S
C792 O800 1.259 . S
C792 O801 1.289 . S
C793 O802 1.246 . S
C793 O803 1.257 . S
C794 O782 1.251 . S
C794 O783 1.274 . S
C795 O780 1.245 . S
C795 O781 1.257 . S
C796 O785 1.259 . S
C796 O786 1.289 . S
C797 O784 1.246 . S
C797 O787 1.257 . S
C798 O788 1.274 . S
C798 O789 1.251 . S
C799 O790 1.257 . S
C799 O791 1.245 . S
O800 Co771 2.286 . S
O800 C792 1.259 . S
O801 Co771 2.069 . S
O801 C792 1.289 . S
O802 Co773 2.143 1_556 S
O802 C793 1.246 . S
O803 Co771 2.015 . S
O803 C793 1.257 . S
Co804 O807 2.042 . S
Co804 O814 2.264 . S
Co804 O833 2.286 . S
Co804 O834 2.069 . S
Co804 O836 2.015 . S
Co805 O807 2.122 . S
Co805 O813 2.073 . S
Co805 O814 2.327 . S
Co805 O815 1.976 . S
Co806 O807 2.088 . S
Co806 O809 2.086 1_455 S
Co806 O816 2.111 . S
Co806 O817 2.143 1_455 S
Co806 O821 2.111 1_455 S
Co806 O835 2.144 . S
O807 Co804 2.042 . S
O807 Co805 2.122 . S
O807 Co806 2.088 . S
O807 H808 0.980 . S
H808 O807 0.980 . S
O809 Co806 2.086 1_655 S
O809 Co810 2.042 . S
O809 Co811 2.122 . S
O809 H812 0.980 . S
Co810 O809 2.042 . S
Co810 O818 2.286 . S
Co810 O819 2.069 . S
Co810 O820 2.015 . S
Co810 O823 2.264 . S
Co811 O809 2.122 . S
Co811 O822 1.976 . S
Co811 O823 2.327 . S
Co811 O824 2.073 . S
H812 O809 0.980 . S
O813 Co805 2.073 . S
O813 C828 1.245 . S
O814 Co804 2.264 . S
O814 Co805 2.327 . S
O814 C828 1.257 . S
O815 Co805 1.976 . S
O815 C827 1.251 . S
O816 Co806 2.111 . S
O816 C827 1.274 . S
O817 Co806 2.143 1_655 S
O817 C830 1.246 . S
O818 Co810 2.286 . S
O818 C829 1.259 . S
O819 Co810 2.069 . S
O819 C829 1.289 . S
O820 Co810 2.015 . S
O820 C830 1.257 . S
O821 Co806 2.111 1_655 S
O821 C831 1.274 . S
O822 Co811 1.976 . S
O822 C831 1.251 . S
O823 Co810 2.264 . S
O823 Co811 2.327 . S
O823 C832 1.257 . S
O824 Co811 2.073 . S
O824 C832 1.245 . S
C825 O833 1.259 . S
C825 O834 1.289 . S
C826 O835 1.246 . S
C826 O836 1.257 . S
C827 O815 1.251 . S
C827 O816 1.274 . S
C828 O813 1.245 . S
C828 O814 1.257 . S
C829 O818 1.259 . S
C829 O819 1.289 . S
C830 O817 1.246 . S
C830 O820 1.257 . S
C831 O821 1.274 . S
C831 O822 1.251 . S
C832 O823 1.257 . S
C832 O824 1.245 . S
O833 Co804 2.286 . S
O833 C825 1.259 . S
O834 Co804 2.069 . S
O834 C825 1.289 . S
O835 Co806 2.144 . S
O835 C826 1.246 . S
O836 Co804 2.015 . S
O836 C826 1.257 . S
Co837 O840 2.042 . S
Co837 O847 2.264 . S
Co837 O866 2.286 . S
Co837 O867 2.069 . S
Co837 O869 2.015 1_565 S
Co838 O840 2.122 . S
Co838 O846 2.073 . S
Co838 O847 2.327 . S
Co838 O848 1.976 1_565 S
Co839 O840 2.083 1_545 S
Co839 O842 2.091 . S
Co839 O849 2.114 . S
Co839 O850 2.142 1_545 S
Co839 O854 2.108 1_545 S
Co839 O868 2.145 . S
O840 Co837 2.042 . S
O840 Co838 2.122 . S
O840 Co839 2.083 1_565 S
O840 H841 0.980 . S
H841 O840 0.980 . S
O842 Co839 2.091 . S
O842 Co843 2.042 . S
O842 Co844 2.122 . S
O842 H845 0.980 . S
Co843 O842 2.042 . S
Co843 O851 2.286 . S
Co843 O852 2.069 . S
Co843 O853 2.015 1_545 S
Co843 O856 2.264 . S
Co844 O842 2.122 . S
Co844 O855 1.976 1_545 S
Co844 O856 2.327 . S
Co844 O857 2.073 . S
H845 O842 0.980 . S
O846 Co838 2.073 . S
O846 C861 1.245 . S
O847 Co837 2.264 . S
O847 Co838 2.327 . S
O847 C861 1.257 . S
O848 Co838 1.976 1_545 S
O848 C860 1.251 . S
O849 Co839 2.114 . S
O849 C860 1.274 . S
O850 Co839 2.142 1_565 S
O850 C863 1.246 . S
O851 Co843 2.286 . S
O851 C862 1.259 . S
O852 Co843 2.069 . S
O852 C862 1.289 . S
O853 Co843 2.015 1_565 S
O853 C863 1.257 . S
O854 Co839 2.108 1_565 S
O854 C864 1.274 . S
O855 Co844 1.976 1_565 S
O855 C864 1.251 . S
O856 Co843 2.264 . S
O856 Co844 2.327 . S
O856 C865 1.257 . S
O857 Co844 2.073 . S
O857 C865 1.245 . S
C858 O866 1.259 . S
C858 O867 1.289 . S
C859 O868 1.246 . S
C859 O869 1.257 . S
C860 O848 1.251 . S
C860 O849 1.274 . S
C861 O846 1.245 . S
C861 O847 1.257 . S
C862 O851 1.259 . S
C862 O852 1.289 . S
C863 O850 1.246 . S
C863 O853 1.257 . S
C864 O854 1.274 . S
C864 O855 1.251 . S
C865 O856 1.257 . S
C865 O857 1.245 . S
O866 Co837 2.286 . S
O866 C858 1.259 . S
O867 Co837 2.069 . S
O867 C858 1.289 . S
O868 Co839 2.145 . S
O868 C859 1.246 . S
O869 Co837 2.015 1_545 S
O869 C859 1.257 . S
H870 C878 0.929 . S
H871 C880 0.930 . S
H872 C882 0.930 . S
H873 C885 0.929 . S
H874 C888 0.930 . S
H875 C890 0.960 . S
H876 C890 0.960 . S
H877 C890 0.960 . S
C878 H870 0.929 . S
C878 C879 1.377 . S
C878 C880 1.384 . S
C879 C878 1.377 . S
C879 C885 1.390 . S
C880 H871 0.930 . S
C880 C878 1.384 . S
C880 C881 1.372 . S
C881 C880 1.372 . S
C881 C882 1.400 . S
C881 C886 1.490 . S
C882 H872 0.930 . S
C882 C881 1.400 . S
C882 C885 1.386 . S
H883 C899 0.930 . S
H884 C900 0.931 . S
C885 H873 0.929 . S
C885 C879 1.390 . S
C885 C882 1.386 . S
C886 C881 1.490 . S
C886 C888 1.395 . S
C886 C889 1.403 . S
H887 C893 0.930 . S
C888 H874 0.930 . S
C888 C886 1.395 . S
C888 C891 1.403 . S
C889 C886 1.403 . S
C889 C890 1.524 . S
C889 C893 1.400 . S
C890 H875 0.960 . S
C890 H876 0.960 . S
C890 H877 0.960 . S
C890 C889 1.524 . S
C891 C888 1.403 . S
C891 C892 1.392 . S
C891 C895 1.495 . S
C892 C891 1.392 . S
C892 C893 1.385 . S
C892 C894 1.478 . S
C893 H887 0.930 . S
C893 C889 1.400 . S
C893 C892 1.385 . S
C894 C892 1.478 . S
C894 C896 1.381 . S
C894 C900 1.383 . S
C895 C891 1.495 . S
C895 H901 0.959 . S
C895 H902 0.961 . S
C895 H903 0.960 . S
C896 C894 1.381 . S
C896 C897 1.394 . S
C896 H904 0.930 . S
C897 C896 1.394 . S
C897 C898 1.383 . S
C897 H905 0.929 . S
C898 C897 1.383 . S
C898 C899 1.377 . S
C899 H883 0.930 . S
C899 C898 1.377 . S
C899 C900 1.379 . S
C900 H884 0.931 . S
C900 C894 1.383 . S
C900 C899 1.379 . S
H901 C895 0.959 . S
H902 C895 0.961 . S
H903 C895 0.960 . S
H904 C896 0.930 . S
H905 C897 0.929 . S
H906 C914 0.929 . S
H907 C916 0.930 . S
H908 C918 0.930 . S
H909 C921 0.929 . S
H910 C924 0.930 . S
H911 C926 0.960 . S
H912 C926 0.960 . S
H913 C926 0.960 . S
C914 H906 0.929 . S
C914 C915 1.377 . S
C914 C916 1.384 . S
C915 C914 1.377 . S
C915 C921 1.390 . S
C916 H907 0.930 . S
C916 C914 1.384 . S
C916 C917 1.372 . S
C917 C916 1.372 . S
C917 C918 1.400 . S
C917 C922 1.490 . S
C918 H908 0.930 . S
C918 C917 1.400 . S
C918 C921 1.386 . S
H919 C935 0.930 . S
H920 C936 0.931 . S
C921 H909 0.929 . S
C921 C915 1.390 . S
C921 C918 1.386 . S
C922 C917 1.490 . S
C922 C924 1.395 . S
C922 C925 1.403 . S
H923 C929 0.930 . S
C924 H910 0.930 . S
C924 C922 1.395 . S
C924 C927 1.403 . S
C925 C922 1.403 . S
C925 C926 1.524 . S
C925 C929 1.400 . S
C926 H911 0.960 . S
C926 H912 0.960 . S
C926 H913 0.960 . S
C926 C925 1.524 . S
C927 C924 1.403 . S
C927 C928 1.392 . S
C927 C931 1.495 . S
C928 C927 1.392 . S
C928 C929 1.385 . S
C928 C930 1.478 . S
C929 H923 0.930 . S
C929 C925 1.400 . S
C929 C928 1.385 . S
C930 C928 1.478 . S
C930 C932 1.381 . S
C930 C936 1.383 . S
C931 C927 1.495 . S
C931 H937 0.959 . S
C931 H938 0.961 . S
C931 H939 0.960 . S
C932 C930 1.381 . S
C932 C933 1.394 . S
C932 H940 0.930 . S
C933 C932 1.394 . S
C933 C934 1.383 . S
C933 H941 0.929 . S
C934 C933 1.383 . S
C934 C935 1.377 . S
C935 H919 0.930 . S
C935 C934 1.377 . S
C935 C936 1.379 . S
C936 H920 0.931 . S
C936 C930 1.383 . S
C936 C935 1.379 . S
H937 C931 0.959 . S
H938 C931 0.961 . S
H939 C931 0.960 . S
H940 C932 0.930 . S
H941 C933 0.929 . S
H942 C950 0.929 . S
H943 C952 0.930 . S
H944 C954 0.930 . S
H945 C957 0.929 . S
H946 C960 0.930 . S
H947 C962 0.960 . S
H948 C962 0.960 . S
H949 C962 0.960 . S
C950 H942 0.929 . S
C950 C951 1.377 . S
C950 C952 1.384 . S
C951 C950 1.377 . S
C951 C957 1.390 . S
C952 H943 0.930 . S
C952 C950 1.384 . S
C952 C953 1.372 . S
C953 C952 1.372 . S
C953 C954 1.400 . S
C953 C958 1.490 . S
C954 H944 0.930 . S
C954 C953 1.400 . S
C954 C957 1.386 . S
H955 C971 0.930 . S
H956 C972 0.931 . S
C957 H945 0.929 . S
C957 C951 1.390 . S
C957 C954 1.386 . S
C958 C953 1.490 . S
C958 C960 1.395 . S
C958 C961 1.403 . S
H959 C965 0.930 . S
C960 H946 0.930 . S
C960 C958 1.395 . S
C960 C963 1.403 . S
C961 C958 1.403 . S
C961 C962 1.524 . S
C961 C965 1.400 . S
C962 H947 0.960 . S
C962 H948 0.960 . S
C962 H949 0.960 . S
C962 C961 1.524 . S
C963 C960 1.403 . S
C963 C964 1.392 . S
C963 C967 1.495 . S
C964 C963 1.392 . S
C964 C965 1.385 . S
C964 C966 1.478 . S
C965 H959 0.930 . S
C965 C961 1.400 . S
C965 C964 1.385 . S
C966 C964 1.478 . S
C966 C968 1.381 . S
C966 C972 1.383 . S
C967 C963 1.495 . S
C967 H973 0.959 . S
C967 H974 0.961 . S
C967 H975 0.960 . S
C968 C966 1.381 . S
C968 C969 1.394 . S
C968 H976 0.930 . S
C969 C968 1.394 . S
C969 C970 1.383 . S
C969 H977 0.929 . S
C970 C969 1.383 . S
C970 C971 1.377 . S
C971 H955 0.930 . S
C971 C970 1.377 . S
C971 C972 1.379 . S
C972 H956 0.931 . S
C972 C966 1.383 . S
C972 C971 1.379 . S
H973 C967 0.959 . S
H974 C967 0.961 . S
H975 C967 0.960 . S
H976 C968 0.930 . S
H977 C969 0.929 . S
H978 C986 0.929 . S
H979 C988 0.930 . S
H980 C990 0.930 . S
H981 C993 0.929 . S
H982 C996 0.930 . S
H983 C998 0.960 . S
H984 C998 0.960 . S
H985 C998 0.960 . S
C986 H978 0.929 . S
C986 C987 1.377 . S
C986 C988 1.384 . S
C987 C986 1.377 . S
C987 C993 1.390 . S
C988 H979 0.930 . S
C988 C986 1.384 . S
C988 C989 1.372 . S
C989 C988 1.372 . S
C989 C990 1.400 . S
C989 C994 1.490 . S
C990 H980 0.930 . S
C990 C989 1.400 . S
C990 C993 1.386 . S
H991 C1007 0.930 . S
H992 C1008 0.931 . S
C993 H981 0.929 . S
C993 C987 1.390 . S
C993 C990 1.386 . S
C994 C989 1.490 . S
C994 C996 1.395 . S
C994 C997 1.403 . S
H995 C1001 0.930 . S
C996 H982 0.930 . S
C996 C994 1.395 . S
C996 C999 1.403 . S
C997 C994 1.403 . S
C997 C998 1.524 . S
C997 C1001 1.400 . S
C998 H983 0.960 . S
C998 H984 0.960 . S
C998 H985 0.960 . S
C998 C997 1.524 . S
C999 C996 1.403 . S
C999 C1000 1.392 . S
C999 C1003 1.495 . S
C1000 C999 1.392 . S
C1000 C1001 1.385 . S
C1000 C1002 1.478 . S
C1001 H995 0.930 . S
C1001 C997 1.400 . S
C1001 C1000 1.385 . S
C1002 C1000 1.478 . S
C1002 C1004 1.381 . S
C1002 C1008 1.383 . S
C1003 C999 1.495 . S
C1003 H1009 0.959 . S
C1003 H1010 0.961 . S
C1003 H1011 0.960 . S
C1004 C1002 1.381 . S
C1004 C1005 1.394 . S
C1004 H1012 0.930 . S
C1005 C1004 1.394 . S
C1005 C1006 1.383 . S
C1005 H1013 0.929 . S
C1006 C1005 1.383 . S
C1006 C1007 1.377 . S
C1007 H991 0.930 . S
C1007 C1006 1.377 . S
C1007 C1008 1.379 . S
C1008 H992 0.931 . S
C1008 C1002 1.383 . S
C1008 C1007 1.379 . S
H1009 C1003 0.959 . S
H1010 C1003 0.961 . S
H1011 C1003 0.960 . S
H1012 C1004 0.930 . S
H1013 C1005 0.929 . S
H1014 C1022 0.929 . S
H1015 C1024 0.930 . S
H1016 C1026 0.930 . S
H1017 C1029 0.929 . S
H1018 C1032 0.930 . S
H1019 C1034 0.960 . S
H1020 C1034 0.960 . S
H1021 C1034 0.960 . S
C1022 H1014 0.929 . S
C1022 C1023 1.377 . S
C1022 C1024 1.384 . S
C1023 C1022 1.377 . S
C1023 C1029 1.390 . S
C1024 H1015 0.930 . S
C1024 C1022 1.384 . S
C1024 C1025 1.372 . S
C1025 C1024 1.372 . S
C1025 C1026 1.400 . S
C1025 C1030 1.490 . S
C1026 H1016 0.930 . S
C1026 C1025 1.400 . S
C1026 C1029 1.386 . S
H1027 C1043 0.930 . S
H1028 C1044 0.931 . S
C1029 H1017 0.929 . S
C1029 C1023 1.390 . S
C1029 C1026 1.386 . S
C1030 C1025 1.490 . S
C1030 C1032 1.395 . S
C1030 C1033 1.403 . S
H1031 C1037 0.930 . S
C1032 H1018 0.930 . S
C1032 C1030 1.395 . S
C1032 C1035 1.403 . S
C1033 C1030 1.403 . S
C1033 C1034 1.524 . S
C1033 C1037 1.400 . S
C1034 H1019 0.960 . S
C1034 H1020 0.960 . S
C1034 H1021 0.960 . S
C1034 C1033 1.524 . S
C1035 C1032 1.403 . S
C1035 C1036 1.392 . S
C1035 C1039 1.495 . S
C1036 C1035 1.392 . S
C1036 C1037 1.385 . S
C1036 C1038 1.478 . S
C1037 H1031 0.930 . S
C1037 C1033 1.400 . S
C1037 C1036 1.385 . S
C1038 C1036 1.478 . S
C1038 C1040 1.381 . S
C1038 C1044 1.383 . S
C1039 C1035 1.495 . S
C1039 H1045 0.959 . S
C1039 H1046 0.961 . S
C1039 H1047 0.960 . S
C1040 C1038 1.381 . S
C1040 C1041 1.394 . S
C1040 H1048 0.930 . S
C1041 C1040 1.394 . S
C1041 C1042 1.383 . S
C1041 H1049 0.929 . S
C1042 C1041 1.383 . S
C1042 C1043 1.377 . S
C1043 H1027 0.930 . S
C1043 C1042 1.377 . S
C1043 C1044 1.379 . S
C1044 H1028 0.931 . S
C1044 C1038 1.383 . S
C1044 C1043 1.379 . S
H1045 C1039 0.959 . S
H1046 C1039 0.961 . S
H1047 C1039 0.960 . S
H1048 C1040 0.930 . S
H1049 C1041 0.929 . S
H1050 C1058 0.929 . S
H1051 C1060 0.930 . S
H1052 C1062 0.930 . S
H1053 C1065 0.929 . S
H1054 C1068 0.930 . S
H1055 C1070 0.960 . S
H1056 C1070 0.960 . S
H1057 C1070 0.960 . S
C1058 H1050 0.929 . S
C1058 C1059 1.377 . S
C1058 C1060 1.384 . S
C1059 C1058 1.377 . S
C1059 C1065 1.390 . S
C1060 H1051 0.930 . S
C1060 C1058 1.384 . S
C1060 C1061 1.372 . S
C1061 C1060 1.372 . S
C1061 C1062 1.400 . S
C1061 C1066 1.490 . S
C1062 H1052 0.930 . S
C1062 C1061 1.400 . S
C1062 C1065 1.386 . S
H1063 C1079 0.930 . S
H1064 C1080 0.931 . S
C1065 H1053 0.929 . S
C1065 C1059 1.390 . S
C1065 C1062 1.386 . S
C1066 C1061 1.490 . S
C1066 C1068 1.395 . S
C1066 C1069 1.403 . S
H1067 C1073 0.930 . S
C1068 H1054 0.930 . S
C1068 C1066 1.395 . S
C1068 C1071 1.403 . S
C1069 C1066 1.403 . S
C1069 C1070 1.524 . S
C1069 C1073 1.400 . S
C1070 H1055 0.960 . S
C1070 H1056 0.960 . S
C1070 H1057 0.960 . S
C1070 C1069 1.524 . S
C1071 C1068 1.403 . S
C1071 C1072 1.392 . S
C1071 C1075 1.495 . S
C1072 C1071 1.392 . S
C1072 C1073 1.385 . S
C1072 C1074 1.478 . S
C1073 H1067 0.930 . S
C1073 C1069 1.400 . S
C1073 C1072 1.385 . S
C1074 C1072 1.478 . S
C1074 C1076 1.381 . S
C1074 C1080 1.383 . S
C1075 C1071 1.495 . S
C1075 H1081 0.959 . S
C1075 H1082 0.961 . S
C1075 H1083 0.960 . S
C1076 C1074 1.381 . S
C1076 C1077 1.394 . S
C1076 H1084 0.930 . S
C1077 C1076 1.394 . S
C1077 C1078 1.383 . S
C1077 H1085 0.929 . S
C1078 C1077 1.383 . S
C1078 C1079 1.377 . S
C1079 H1063 0.930 . S
C1079 C1078 1.377 . S
C1079 C1080 1.379 . S
C1080 H1064 0.931 . S
C1080 C1074 1.383 . S
C1080 C1079 1.379 . S
H1081 C1075 0.959 . S
H1082 C1075 0.961 . S
H1083 C1075 0.960 . S
H1084 C1076 0.930 . S
H1085 C1077 0.929 . S
H1086 C1094 0.929 . S
H1087 C1096 0.930 . S
H1088 C1098 0.930 . S
H1089 C1101 0.929 . S
H1090 C1104 0.930 . S
H1091 C1106 0.960 . S
H1092 C1106 0.960 . S
H1093 C1106 0.960 . S
C1094 H1086 0.929 . S
C1094 C1095 1.377 . S
C1094 C1096 1.384 . S
C1095 C1094 1.377 . S
C1095 C1101 1.390 . S
C1096 H1087 0.930 . S
C1096 C1094 1.384 . S
C1096 C1097 1.372 . S
C1097 C1096 1.372 . S
C1097 C1098 1.400 . S
C1097 C1102 1.490 . S
C1098 H1088 0.930 . S
C1098 C1097 1.400 . S
C1098 C1101 1.386 . S
H1099 C1115 0.930 . S
H1100 C1116 0.931 . S
C1101 H1089 0.929 . S
C1101 C1095 1.390 . S
C1101 C1098 1.386 . S
C1102 C1097 1.490 . S
C1102 C1104 1.395 . S
C1102 C1105 1.403 . S
H1103 C1109 0.930 . S
C1104 H1090 0.930 . S
C1104 C1102 1.395 . S
C1104 C1107 1.403 . S
C1105 C1102 1.403 . S
C1105 C1106 1.524 . S
C1105 C1109 1.400 . S
C1106 H1091 0.960 . S
C1106 H1092 0.960 . S
C1106 H1093 0.960 . S
C1106 C1105 1.524 . S
C1107 C1104 1.403 . S
C1107 C1108 1.392 . S
C1107 C1111 1.495 . S
C1108 C1107 1.392 . S
C1108 C1109 1.385 . S
C1108 C1110 1.478 . S
C1109 H1103 0.930 . S
C1109 C1105 1.400 . S
C1109 C1108 1.385 . S
C1110 C1108 1.478 . S
C1110 C1112 1.381 . S
C1110 C1116 1.383 . S
C1111 C1107 1.495 . S
C1111 H1117 0.959 . S
C1111 H1118 0.961 . S
C1111 H1119 0.960 . S
C1112 C1110 1.381 . S
C1112 C1113 1.394 . S
C1112 H1120 0.930 . S
C1113 C1112 1.394 . S
C1113 C1114 1.383 . S
C1113 H1121 0.929 . S
C1114 C1113 1.383 . S
C1114 C1115 1.377 . S
C1115 H1099 0.930 . S
C1115 C1114 1.377 . S
C1115 C1116 1.379 . S
C1116 H1100 0.931 . S
C1116 C1110 1.383 . S
C1116 C1115 1.379 . S
H1117 C1111 0.959 . S
H1118 C1111 0.961 . S
H1119 C1111 0.960 . S
H1120 C1112 0.930 . S
H1121 C1113 0.929 . S
H1122 C1130 0.929 . S
H1123 C1132 0.930 . S
H1124 C1134 0.930 . S
H1125 C1137 0.929 . S
H1126 C1140 0.930 . S
H1127 C1142 0.960 . S
H1128 C1142 0.960 . S
H1129 C1142 0.960 . S
C1130 H1122 0.929 . S
C1130 C1131 1.377 . S
C1130 C1132 1.384 . S
C1131 C1130 1.377 . S
C1131 C1137 1.390 . S
C1132 H1123 0.930 . S
C1132 C1130 1.384 . S
C1132 C1133 1.372 . S
C1133 C1132 1.372 . S
C1133 C1134 1.400 . S
C1133 C1138 1.490 . S
C1134 H1124 0.930 . S
C1134 C1133 1.400 . S
C1134 C1137 1.386 . S
H1135 C1151 0.930 . S
H1136 C1152 0.931 . S
C1137 H1125 0.929 . S
C1137 C1131 1.390 . S
C1137 C1134 1.386 . S
C1138 C1133 1.490 . S
C1138 C1140 1.395 . S
C1138 C1141 1.403 . S
H1139 C1145 0.930 . S
C1140 H1126 0.930 . S
C1140 C1138 1.395 . S
C1140 C1143 1.403 . S
C1141 C1138 1.403 . S
C1141 C1142 1.524 . S
C1141 C1145 1.400 . S
C1142 H1127 0.960 . S
C1142 H1128 0.960 . S
C1142 H1129 0.960 . S
C1142 C1141 1.524 . S
C1143 C1140 1.403 . S
C1143 C1144 1.392 . S
C1143 C1147 1.495 . S
C1144 C1143 1.392 . S
C1144 C1145 1.385 . S
C1144 C1146 1.478 . S
C1145 H1139 0.930 . S
C1145 C1141 1.400 . S
C1145 C1144 1.385 . S
C1146 C1144 1.478 . S
C1146 C1148 1.381 . S
C1146 C1152 1.383 . S
C1147 C1143 1.495 . S
C1147 H1153 0.959 . S
C1147 H1154 0.961 . S
C1147 H1155 0.960 . S
C1148 C1146 1.381 . S
C1148 C1149 1.394 . S
C1148 H1156 0.930 . S
C1149 C1148 1.394 . S
C1149 C1150 1.383 . S
C1149 H1157 0.929 . S
C1150 C1149 1.383 . S
C1150 C1151 1.377 . S
C1151 H1135 0.930 . S
C1151 C1150 1.377 . S
C1151 C1152 1.379 . S
C1152 H1136 0.931 . S
C1152 C1146 1.383 . S
C1152 C1151 1.379 . S
H1153 C1147 0.959 . S
H1154 C1147 0.961 . S
H1155 C1147 0.960 . S
H1156 C1148 0.930 . S
H1157 C1149 0.929 . S
H1158 C1166 0.929 . S
H1159 C1168 0.930 . S
H1160 C1170 0.930 . S
H1161 C1173 0.929 . S
H1162 C1176 0.930 . S
H1163 C1178 0.960 . S
H1164 C1178 0.960 . S
H1165 C1178 0.960 . S
C1166 H1158 0.929 . S
C1166 C1167 1.377 . S
C1166 C1168 1.384 . S
C1167 C1166 1.377 . S
C1167 C1173 1.390 . S
C1168 H1159 0.930 . S
C1168 C1166 1.384 . S
C1168 C1169 1.372 . S
C1169 C1168 1.372 . S
C1169 C1170 1.400 . S
C1169 C1174 1.490 . S
C1170 H1160 0.930 . S
C1170 C1169 1.400 . S
C1170 C1173 1.386 . S
H1171 C1187 0.930 . S
H1172 C1188 0.931 . S
C1173 H1161 0.929 . S
C1173 C1167 1.390 . S
C1173 C1170 1.386 . S
C1174 C1169 1.490 . S
C1174 C1176 1.395 . S
C1174 C1177 1.403 . S
H1175 C1181 0.930 . S
C1176 H1162 0.930 . S
C1176 C1174 1.395 . S
C1176 C1179 1.403 . S
C1177 C1174 1.403 . S
C1177 C1178 1.524 . S
C1177 C1181 1.400 . S
C1178 H1163 0.960 . S
C1178 H1164 0.960 . S
C1178 H1165 0.960 . S
C1178 C1177 1.524 . S
C1179 C1176 1.403 . S
C1179 C1180 1.392 . S
C1179 C1183 1.495 . S
C1180 C1179 1.392 . S
C1180 C1181 1.385 . S
C1180 C1182 1.478 . S
C1181 H1175 0.930 . S
C1181 C1177 1.400 . S
C1181 C1180 1.385 . S
C1182 C1180 1.478 . S
C1182 C1184 1.381 . S
C1182 C1188 1.383 . S
C1183 C1179 1.495 . S
C1183 H1189 0.959 . S
C1183 H1190 0.961 . S
C1183 H1191 0.960 . S
C1184 C1182 1.381 . S
C1184 C1185 1.394 . S
C1184 H1192 0.930 . S
C1185 C1184 1.394 . S
C1185 C1186 1.383 . S
C1185 H1193 0.929 . S
C1186 C1185 1.383 . S
C1186 C1187 1.377 . S
C1187 H1171 0.930 . S
C1187 C1186 1.377 . S
C1187 C1188 1.379 . S
C1188 H1172 0.931 . S
C1188 C1182 1.383 . S
C1188 C1187 1.379 . S
H1189 C1183 0.959 . S
H1190 C1183 0.961 . S
H1191 C1183 0.960 . S
H1192 C1184 0.930 . S
H1193 C1185 0.929 . S
H1194 C1202 0.929 . S
H1195 C1204 0.930 . S
H1196 C1206 0.930 . S
H1197 C1209 0.929 . S
H1198 C1212 0.930 . S
H1199 C1214 0.960 . S
H1200 C1214 0.960 . S
H1201 C1214 0.960 . S
C1202 H1194 0.929 . S
C1202 C1203 1.377 . S
C1202 C1204 1.384 . S
C1203 C1202 1.377 . S
C1203 C1209 1.390 . S
C1204 H1195 0.930 . S
C1204 C1202 1.384 . S
C1204 C1205 1.372 . S
C1205 C1204 1.372 . S
C1205 C1206 1.400 . S
C1205 C1210 1.490 . S
C1206 H1196 0.930 . S
C1206 C1205 1.400 . S
C1206 C1209 1.386 . S
H1207 C1223 0.930 . S
H1208 C1224 0.931 . S
C1209 H1197 0.929 . S
C1209 C1203 1.390 . S
C1209 C1206 1.386 . S
C1210 C1205 1.490 . S
C1210 C1212 1.395 . S
C1210 C1213 1.403 . S
H1211 C1217 0.930 . S
C1212 H1198 0.930 . S
C1212 C1210 1.395 . S
C1212 C1215 1.403 . S
C1213 C1210 1.403 . S
C1213 C1214 1.524 . S
C1213 C1217 1.400 . S
C1214 H1199 0.960 . S
C1214 H1200 0.960 . S
C1214 H1201 0.960 . S
C1214 C1213 1.524 . S
C1215 C1212 1.403 . S
C1215 C1216 1.392 . S
C1215 C1219 1.495 . S
C1216 C1215 1.392 . S
C1216 C1217 1.385 . S
C1216 C1218 1.478 . S
C1217 H1211 0.930 . S
C1217 C1213 1.400 . S
C1217 C1216 1.385 . S
C1218 C1216 1.478 . S
C1218 C1220 1.381 . S
C1218 C1224 1.383 . S
C1219 C1215 1.495 . S
C1219 H1225 0.959 . S
C1219 H1226 0.961 . S
C1219 H1227 0.960 . S
C1220 C1218 1.381 . S
C1220 C1221 1.394 . S
C1220 H1228 0.930 . S
C1221 C1220 1.394 . S
C1221 C1222 1.383 . S
C1221 H1229 0.929 . S
C1222 C1221 1.383 . S
C1222 C1223 1.377 . S
C1223 H1207 0.930 . S
C1223 C1222 1.377 . S
C1223 C1224 1.379 . S
C1224 H1208 0.931 . S
C1224 C1218 1.383 . S
C1224 C1223 1.379 . S
H1225 C1219 0.959 . S
H1226 C1219 0.961 . S
H1227 C1219 0.960 . S
H1228 C1220 0.930 . S
H1229 C1221 0.929 . S
H1230 C1238 0.929 . S
H1231 C1240 0.930 . S
H1232 C1242 0.930 . S
H1233 C1245 0.929 . S
H1234 C1248 0.930 . S
H1235 C1250 0.960 . S
H1236 C1250 0.960 . S
H1237 C1250 0.960 . S
C1238 H1230 0.929 . S
C1238 C1239 1.377 . S
C1238 C1240 1.384 . S
C1239 C1238 1.377 . S
C1239 C1245 1.390 . S
C1240 H1231 0.930 . S
C1240 C1238 1.384 . S
C1240 C1241 1.372 . S
C1241 C1240 1.372 . S
C1241 C1242 1.400 . S
C1241 C1246 1.490 . S
C1242 H1232 0.930 . S
C1242 C1241 1.400 . S
C1242 C1245 1.386 . S
H1243 C1259 0.930 . S
H1244 C1260 0.931 . S
C1245 H1233 0.929 . S
C1245 C1239 1.390 . S
C1245 C1242 1.386 . S
C1246 C1241 1.490 . S
C1246 C1248 1.395 . S
C1246 C1249 1.403 . S
H1247 C1253 0.930 . S
C1248 H1234 0.930 . S
C1248 C1246 1.395 . S
C1248 C1251 1.403 . S
C1249 C1246 1.403 . S
C1249 C1250 1.524 . S
C1249 C1253 1.400 . S
C1250 H1235 0.960 . S
C1250 H1236 0.960 . S
C1250 H1237 0.960 . S
C1250 C1249 1.524 . S
C1251 C1248 1.403 . S
C1251 C1252 1.392 . S
C1251 C1255 1.495 . S
C1252 C1251 1.392 . S
C1252 C1253 1.385 . S
C1252 C1254 1.478 . S
C1253 H1247 0.930 . S
C1253 C1249 1.400 . S
C1253 C1252 1.385 . S
C1254 C1252 1.478 . S
C1254 C1256 1.381 . S
C1254 C1260 1.383 . S
C1255 C1251 1.495 . S
C1255 H1261 0.959 . S
C1255 H1262 0.961 . S
C1255 H1263 0.960 . S
C1256 C1254 1.381 . S
C1256 C1257 1.394 . S
C1256 H1264 0.930 . S
C1257 C1256 1.394 . S
C1257 C1258 1.383 . S
C1257 H1265 0.929 . S
C1258 C1257 1.383 . S
C1258 C1259 1.377 . S
C1259 H1243 0.930 . S
C1259 C1258 1.377 . S
C1259 C1260 1.379 . S
C1260 H1244 0.931 . S
C1260 C1254 1.383 . S
C1260 C1259 1.379 . S
H1261 C1255 0.959 . S
H1262 C1255 0.961 . S
H1263 C1255 0.960 . S
H1264 C1256 0.930 . S
H1265 C1257 0.929 . S
H1266 C1274 0.929 . S
H1267 C1276 0.930 . S
H1268 C1278 0.930 . S
H1269 C1281 0.929 . S
H1270 C1284 0.930 . S
H1271 C1286 0.960 . S
H1272 C1286 0.960 . S
H1273 C1286 0.960 . S
C1274 H1266 0.929 . S
C1274 C1275 1.377 . S
C1274 C1276 1.384 . S
C1275 C1274 1.377 . S
C1275 C1281 1.390 . S
C1276 H1267 0.930 . S
C1276 C1274 1.384 . S
C1276 C1277 1.372 . S
C1277 C1276 1.372 . S
C1277 C1278 1.400 . S
C1277 C1282 1.490 . S
C1278 H1268 0.930 . S
C1278 C1277 1.400 . S
C1278 C1281 1.386 . S
H1279 C1295 0.930 . S
H1280 C1296 0.931 . S
C1281 H1269 0.929 . S
C1281 C1275 1.390 . S
C1281 C1278 1.386 . S
C1282 C1277 1.490 . S
C1282 C1284 1.395 . S
C1282 C1285 1.403 . S
H1283 C1289 0.930 . S
C1284 H1270 0.930 . S
C1284 C1282 1.395 . S
C1284 C1287 1.403 . S
C1285 C1282 1.403 . S
C1285 C1286 1.524 . S
C1285 C1289 1.400 . S
C1286 H1271 0.960 . S
C1286 H1272 0.960 . S
C1286 H1273 0.960 . S
C1286 C1285 1.524 . S
C1287 C1284 1.403 . S
C1287 C1288 1.392 . S
C1287 C1291 1.495 . S
C1288 C1287 1.392 . S
C1288 C1289 1.385 . S
C1288 C1290 1.478 . S
C1289 H1283 0.930 . S
C1289 C1285 1.400 . S
C1289 C1288 1.385 . S
C1290 C1288 1.478 . S
C1290 C1292 1.381 . S
C1290 C1296 1.383 . S
C1291 C1287 1.495 . S
C1291 H1297 0.959 . S
C1291 H1298 0.961 . S
C1291 H1299 0.960 . S
C1292 C1290 1.381 . S
C1292 C1293 1.394 . S
C1292 H1300 0.930 . S
C1293 C1292 1.394 . S
C1293 C1294 1.383 . S
C1293 H1301 0.929 . S
C1294 C1293 1.383 . S
C1294 C1295 1.377 . S
C1295 H1279 0.930 . S
C1295 C1294 1.377 . S
C1295 C1296 1.379 . S
C1296 H1280 0.931 . S
C1296 C1290 1.383 . S
C1296 C1295 1.379 . S
H1297 C1291 0.959 . S
H1298 C1291 0.961 . S
H1299 C1291 0.960 . S
H1300 C1292 0.930 . S
H1301 C1293 0.929 . S
H1302 C1310 0.929 . S
H1303 C1312 0.930 . S
H1304 C1314 0.930 . S
H1305 C1317 0.929 . S
H1306 C1320 0.930 . S
H1307 C1322 0.960 . S
H1308 C1322 0.960 . S
H1309 C1322 0.960 . S
C1310 H1302 0.929 . S
C1310 C1311 1.377 . S
C1310 C1312 1.384 . S
C1311 C1310 1.377 . S
C1311 C1317 1.390 . S
C1312 H1303 0.930 . S
C1312 C1310 1.384 . S
C1312 C1313 1.372 . S
C1313 C1312 1.372 . S
C1313 C1314 1.400 . S
C1313 C1318 1.490 . S
C1314 H1304 0.930 . S
C1314 C1313 1.400 . S
C1314 C1317 1.386 . S
H1315 C1331 0.930 . S
H1316 C1332 0.931 . S
C1317 H1305 0.929 . S
C1317 C1311 1.390 . S
C1317 C1314 1.386 . S
C1318 C1313 1.490 . S
C1318 C1320 1.395 . S
C1318 C1321 1.403 . S
H1319 C1325 0.930 . S
C1320 H1306 0.930 . S
C1320 C1318 1.395 . S
C1320 C1323 1.403 . S
C1321 C1318 1.403 . S
C1321 C1322 1.524 . S
C1321 C1325 1.400 . S
C1322 H1307 0.960 . S
C1322 H1308 0.960 . S
C1322 H1309 0.960 . S
C1322 C1321 1.524 . S
C1323 C1320 1.403 . S
C1323 C1324 1.392 . S
C1323 C1327 1.495 . S
C1324 C1323 1.392 . S
C1324 C1325 1.385 . S
C1324 C1326 1.478 . S
C1325 H1319 0.930 . S
C1325 C1321 1.400 . S
C1325 C1324 1.385 . S
C1326 C1324 1.478 . S
C1326 C1328 1.381 . S
C1326 C1332 1.383 . S
C1327 C1323 1.495 . S
C1327 H1333 0.959 . S
C1327 H1334 0.961 . S
C1327 H1335 0.960 . S
C1328 C1326 1.381 . S
C1328 C1329 1.394 . S
C1328 H1336 0.930 . S
C1329 C1328 1.394 . S
C1329 C1330 1.383 . S
C1329 H1337 0.929 . S
C1330 C1329 1.383 . S
C1330 C1331 1.377 . S
C1331 H1315 0.930 . S
C1331 C1330 1.377 . S
C1331 C1332 1.379 . S
C1332 H1316 0.931 . S
C1332 C1326 1.383 . S
C1332 C1331 1.379 . S
H1333 C1327 0.959 . S
H1334 C1327 0.961 . S
H1335 C1327 0.960 . S
H1336 C1328 0.930 . S
H1337 C1329 0.929 . S
H1338 C1346 0.929 . S
H1339 C1348 0.930 . S
H1340 C1350 0.930 . S
H1341 C1353 0.929 . S
H1342 C1356 0.930 . S
H1343 C1358 0.960 . S
H1344 C1358 0.960 . S
H1345 C1358 0.960 . S
C1346 H1338 0.929 . S
C1346 C1347 1.377 . S
C1346 C1348 1.384 . S
C1347 C1346 1.377 . S
C1347 C1353 1.390 . S
C1348 H1339 0.930 . S
C1348 C1346 1.384 . S
C1348 C1349 1.372 . S
C1349 C1348 1.372 . S
C1349 C1350 1.400 . S
C1349 C1354 1.490 . S
C1350 H1340 0.930 . S
C1350 C1349 1.400 . S
C1350 C1353 1.386 . S
H1351 C1367 0.930 . S
H1352 C1368 0.931 . S
C1353 H1341 0.929 . S
C1353 C1347 1.390 . S
C1353 C1350 1.386 . S
C1354 C1349 1.490 . S
C1354 C1356 1.395 . S
C1354 C1357 1.403 . S
H1355 C1361 0.930 . S
C1356 H1342 0.930 . S
C1356 C1354 1.395 . S
C1356 C1359 1.403 . S
C1357 C1354 1.403 . S
C1357 C1358 1.524 . S
C1357 C1361 1.400 . S
C1358 H1343 0.960 . S
C1358 H1344 0.960 . S
C1358 H1345 0.960 . S
C1358 C1357 1.524 . S
C1359 C1356 1.403 . S
C1359 C1360 1.392 . S
C1359 C1363 1.495 . S
C1360 C1359 1.392 . S
C1360 C1361 1.385 . S
C1360 C1362 1.478 . S
C1361 H1355 0.930 . S
C1361 C1357 1.400 . S
C1361 C1360 1.385 . S
C1362 C1360 1.478 . S
C1362 C1364 1.381 . S
C1362 C1368 1.383 . S
C1363 C1359 1.495 . S
C1363 H1369 0.959 . S
C1363 H1370 0.961 . S
C1363 H1371 0.960 . S
C1364 C1362 1.381 . S
C1364 C1365 1.394 . S
C1364 H1372 0.930 . S
C1365 C1364 1.394 . S
C1365 C1366 1.383 . S
C1365 H1373 0.929 . S
C1366 C1365 1.383 . S
C1366 C1367 1.377 . S
C1367 H1351 0.930 . S
C1367 C1366 1.377 . S
C1367 C1368 1.379 . S
C1368 H1352 0.931 . S
C1368 C1362 1.383 . S
C1368 C1367 1.379 . S
H1369 C1363 0.959 . S
H1370 C1363 0.961 . S
H1371 C1363 0.960 . S
H1372 C1364 0.930 . S
H1373 C1365 0.929 . S
H1374 C1382 0.929 . S
H1375 C1384 0.930 . S
H1376 C1386 0.930 . S
H1377 C1389 0.929 . S
H1378 C1392 0.930 . S
H1379 C1394 0.960 . S
H1380 C1394 0.960 . S
H1381 C1394 0.960 . S
C1382 H1374 0.929 . S
C1382 C1383 1.377 . S
C1382 C1384 1.384 . S
C1383 C1382 1.377 . S
C1383 C1389 1.390 . S
C1384 H1375 0.930 . S
C1384 C1382 1.384 . S
C1384 C1385 1.372 . S
C1385 C1384 1.372 . S
C1385 C1386 1.400 . S
C1385 C1390 1.490 . S
C1386 H1376 0.930 . S
C1386 C1385 1.400 . S
C1386 C1389 1.386 . S
H1387 C1403 0.930 . S
H1388 C1404 0.931 . S
C1389 H1377 0.929 . S
C1389 C1383 1.390 . S
C1389 C1386 1.386 . S
C1390 C1385 1.490 . S
C1390 C1392 1.395 . S
C1390 C1393 1.403 . S
H1391 C1397 0.930 . S
C1392 H1378 0.930 . S
C1392 C1390 1.395 . S
C1392 C1395 1.403 . S
C1393 C1390 1.403 . S
C1393 C1394 1.524 . S
C1393 C1397 1.400 . S
C1394 H1379 0.960 . S
C1394 H1380 0.960 . S
C1394 H1381 0.960 . S
C1394 C1393 1.524 . S
C1395 C1392 1.403 . S
C1395 C1396 1.392 . S
C1395 C1399 1.495 . S
C1396 C1395 1.392 . S
C1396 C1397 1.385 . S
C1396 C1398 1.478 . S
C1397 H1391 0.930 . S
C1397 C1393 1.400 . S
C1397 C1396 1.385 . S
C1398 C1396 1.478 . S
C1398 C1400 1.381 . S
C1398 C1404 1.383 . S
C1399 C1395 1.495 . S
C1399 H1405 0.959 . S
C1399 H1406 0.961 . S
C1399 H1407 0.960 . S
C1400 C1398 1.381 . S
C1400 C1401 1.394 . S
C1400 H1408 0.930 . S
C1401 C1400 1.394 . S
C1401 C1402 1.383 . S
C1401 H1409 0.929 . S
C1402 C1401 1.383 . S
C1402 C1403 1.377 . S
C1403 H1387 0.930 . S
C1403 C1402 1.377 . S
C1403 C1404 1.379 . S
C1404 H1388 0.931 . S
C1404 C1398 1.383 . S
C1404 C1403 1.379 . S
H1405 C1399 0.959 . S
H1406 C1399 0.961 . S
H1407 C1399 0.960 . S
H1408 C1400 0.930 . S
H1409 C1401 0.929 . S
H1410 C1418 0.929 . S
H1411 C1420 0.930 . S
H1412 C1422 0.930 . S
H1413 C1425 0.929 . S
H1414 C1428 0.930 . S
H1415 C1430 0.960 . S
H1416 C1430 0.960 . S
H1417 C1430 0.960 . S
C1418 H1410 0.929 . S
C1418 C1419 1.377 . S
C1418 C1420 1.384 . S
C1419 C1418 1.377 . S
C1419 C1425 1.390 . S
C1420 H1411 0.930 . S
C1420 C1418 1.384 . S
C1420 C1421 1.372 . S
C1421 C1420 1.372 . S
C1421 C1422 1.400 . S
C1421 C1426 1.490 . S
C1422 H1412 0.930 . S
C1422 C1421 1.400 . S
C1422 C1425 1.386 . S
H1423 C1439 0.930 1_554 S
H1424 C1440 0.931 . S
C1425 H1413 0.929 . S
C1425 C1419 1.390 . S
C1425 C1422 1.386 . S
C1426 C1421 1.490 . S
C1426 C1428 1.395 . S
C1426 C1429 1.403 . S
H1427 C1433 0.930 . S
C1428 H1414 0.930 . S
C1428 C1426 1.395 . S
C1428 C1431 1.403 . S
C1429 C1426 1.403 . S
C1429 C1430 1.524 . S
C1429 C1433 1.400 . S
C1430 H1415 0.960 . S
C1430 H1416 0.960 . S
C1430 H1417 0.960 . S
C1430 C1429 1.524 . S
C1431 C1428 1.403 . S
C1431 C1432 1.392 . S
C1431 C1435 1.495 . S
C1432 C1431 1.392 . S
C1432 C1433 1.385 . S
C1432 C1434 1.478 . S
C1433 H1427 0.930 . S
C1433 C1429 1.400 . S
C1433 C1432 1.385 . S
C1434 C1432 1.478 . S
C1434 C1436 1.381 . S
C1434 C1440 1.383 . S
C1435 C1431 1.495 . S
C1435 H1441 0.959 . S
C1435 H1442 0.961 . S
C1435 H1443 0.960 . S
C1436 C1434 1.381 . S
C1436 C1437 1.394 . S
C1436 H1444 0.930 . S
C1437 C1436 1.394 . S
C1437 C1438 1.383 . S
C1437 H1445 0.929 . S
C1438 C1437 1.383 . S
C1438 C1439 1.377 . S
C1439 H1423 0.930 1_556 S
C1439 C1438 1.377 . S
C1439 C1440 1.379 . S
C1440 H1424 0.931 . S
C1440 C1434 1.383 . S
C1440 C1439 1.379 . S
H1441 C1435 0.959 . S
H1442 C1435 0.961 . S
H1443 C1435 0.960 . S
H1444 C1436 0.930 . S
H1445 C1437 0.929 . S
H1446 C1454 0.929 . S
H1447 C1456 0.930 . S
H1448 C1458 0.930 . S
H1449 C1461 0.929 . S
H1450 C1464 0.930 . S
H1451 C1466 0.960 . S
H1452 C1466 0.960 . S
H1453 C1466 0.960 . S
C1454 H1446 0.929 . S
C1454 C1455 1.377 . S
C1454 C1456 1.384 . S
C1455 C1454 1.377 . S
C1455 C1461 1.390 . S
C1456 H1447 0.930 . S
C1456 C1454 1.384 . S
C1456 C1457 1.372 . S
C1457 C1456 1.372 . S
C1457 C1458 1.400 . S
C1457 C1462 1.490 . S
C1458 H1448 0.930 . S
C1458 C1457 1.400 . S
C1458 C1461 1.386 . S
H1459 C1475 0.930 . S
H1460 C1476 0.931 . S
C1461 H1449 0.929 . S
C1461 C1455 1.390 . S
C1461 C1458 1.386 . S
C1462 C1457 1.490 . S
C1462 C1464 1.395 . S
C1462 C1465 1.403 . S
H1463 C1469 0.930 . S
C1464 H1450 0.930 . S
C1464 C1462 1.395 . S
C1464 C1467 1.403 . S
C1465 C1462 1.403 . S
C1465 C1466 1.524 . S
C1465 C1469 1.400 . S
C1466 H1451 0.960 . S
C1466 H1452 0.960 . S
C1466 H1453 0.960 . S
C1466 C1465 1.524 . S
C1467 C1464 1.403 . S
C1467 C1468 1.392 . S
C1467 C1471 1.495 . S
C1468 C1467 1.392 . S
C1468 C1469 1.385 . S
C1468 C1470 1.478 . S
C1469 H1463 0.930 . S
C1469 C1465 1.400 . S
C1469 C1468 1.385 . S
C1470 C1468 1.478 . S
C1470 C1472 1.381 . S
C1470 C1476 1.383 . S
C1471 C1467 1.495 . S
C1471 H1477 0.959 . S
C1471 H1478 0.961 . S
C1471 H1479 0.960 . S
C1472 C1470 1.381 . S
C1472 C1473 1.394 . S
C1472 H1480 0.930 . S
C1473 C1472 1.394 . S
C1473 C1474 1.383 . S
C1473 H1481 0.929 . S
C1474 C1473 1.383 . S
C1474 C1475 1.377 . S
C1475 H1459 0.930 . S
C1475 C1474 1.377 . S
C1475 C1476 1.379 . S
C1476 H1460 0.931 . S
C1476 C1470 1.383 . S
C1476 C1475 1.379 . S
H1477 C1471 0.959 . S
H1478 C1471 0.961 . S
H1479 C1471 0.960 . S
H1480 C1472 0.930 . S
H1481 C1473 0.929 . S
H1482 C1490 0.929 . S
H1483 C1492 0.930 . S
H1484 C1494 0.930 . S
H1485 C1497 0.929 . S
H1486 C1500 0.930 . S
H1487 C1502 0.960 . S
H1488 C1502 0.960 . S
H1489 C1502 0.960 . S
C1490 H1482 0.929 . S
C1490 C1491 1.377 . S
C1490 C1492 1.384 . S
C1491 C1490 1.377 . S
C1491 C1497 1.390 . S
C1492 H1483 0.930 . S
C1492 C1490 1.384 . S
C1492 C1493 1.372 . S
C1493 C1492 1.372 . S
C1493 C1494 1.400 . S
C1493 C1498 1.490 . S
C1494 H1484 0.930 . S
C1494 C1493 1.400 . S
C1494 C1497 1.386 . S
H1495 C1511 0.930 . S
H1496 C1512 0.931 . S
C1497 H1485 0.929 . S
C1497 C1491 1.390 . S
C1497 C1494 1.386 . S
C1498 C1493 1.490 . S
C1498 C1500 1.395 . S
C1498 C1501 1.403 . S
H1499 C1505 0.930 . S
C1500 H1486 0.930 . S
C1500 C1498 1.395 . S
C1500 C1503 1.403 . S
C1501 C1498 1.403 . S
C1501 C1502 1.524 . S
C1501 C1505 1.400 . S
C1502 H1487 0.960 . S
C1502 H1488 0.960 . S
C1502 H1489 0.960 . S
C1502 C1501 1.524 . S
C1503 C1500 1.403 . S
C1503 C1504 1.392 . S
C1503 C1507 1.495 . S
C1504 C1503 1.392 . S
C1504 C1505 1.385 . S
C1504 C1506 1.478 . S
C1505 H1499 0.930 . S
C1505 C1501 1.400 . S
C1505 C1504 1.385 . S
C1506 C1504 1.478 . S
C1506 C1508 1.381 . S
C1506 C1512 1.383 . S
C1507 C1503 1.495 . S
C1507 H1513 0.959 . S
C1507 H1514 0.961 . S
C1507 H1515 0.960 . S
C1508 C1506 1.381 . S
C1508 C1509 1.394 . S
C1508 H1516 0.930 . S
C1509 C1508 1.394 . S
C1509 C1510 1.383 . S
C1509 H1517 0.929 . S
C1510 C1509 1.383 . S
C1510 C1511 1.377 . S
C1511 H1495 0.930 . S
C1511 C1510 1.377 . S
C1511 C1512 1.379 . S
C1512 H1496 0.931 . S
C1512 C1506 1.383 . S
C1512 C1511 1.379 . S
H1513 C1507 0.959 . S
H1514 C1507 0.961 . S
H1515 C1507 0.960 . S
H1516 C1508 0.930 . S
H1517 C1509 0.929 . S
H1518 C1526 0.929 . S
H1519 C1528 0.930 . S
H1520 C1530 0.930 . S
H1521 C1533 0.929 . S
H1522 C1536 0.930 . S
H1523 C1538 0.960 . S
H1524 C1538 0.960 . S
H1525 C1538 0.960 . S
C1526 H1518 0.929 . S
C1526 C1527 1.377 . S
C1526 C1528 1.384 . S
C1527 C1526 1.377 . S
C1527 C1533 1.390 . S
C1528 H1519 0.930 . S
C1528 C1526 1.384 . S
C1528 C1529 1.372 . S
C1529 C1528 1.372 . S
C1529 C1530 1.400 . S
C1529 C1534 1.490 . S
C1530 H1520 0.930 . S
C1530 C1529 1.400 . S
C1530 C1533 1.386 . S
H1531 C1547 0.930 1_554 S
H1532 C1548 0.931 . S
C1533 H1521 0.929 . S
C1533 C1527 1.390 . S
C1533 C1530 1.386 . S
C1534 C1529 1.490 . S
C1534 C1536 1.395 . S
C1534 C1537 1.403 . S
H1535 C1541 0.930 . S
C1536 H1522 0.930 . S
C1536 C1534 1.395 . S
C1536 C1539 1.403 . S
C1537 C1534 1.403 . S
C1537 C1538 1.524 . S
C1537 C1541 1.400 . S
C1538 H1523 0.960 . S
C1538 H1524 0.960 . S
C1538 H1525 0.960 . S
C1538 C1537 1.524 . S
C1539 C1536 1.403 . S
C1539 C1540 1.392 . S
C1539 C1543 1.495 . S
C1540 C1539 1.392 . S
C1540 C1541 1.385 . S
C1540 C1542 1.478 . S
C1541 H1535 0.930 . S
C1541 C1537 1.400 . S
C1541 C1540 1.385 . S
C1542 C1540 1.478 . S
C1542 C1544 1.381 . S
C1542 C1548 1.383 . S
C1543 C1539 1.495 . S
C1543 H1549 0.959 . S
C1543 H1550 0.961 . S
C1543 H1551 0.960 . S
C1544 C1542 1.381 . S
C1544 C1545 1.394 . S
C1544 H1552 0.930 . S
C1545 C1544 1.394 . S
C1545 C1546 1.383 . S
C1545 H1553 0.929 . S
C1546 C1545 1.383 . S
C1546 C1547 1.377 . S
C1547 H1531 0.930 1_556 S
C1547 C1546 1.377 . S
C1547 C1548 1.379 . S
C1548 H1532 0.931 . S
C1548 C1542 1.383 . S
C1548 C1547 1.379 . S
H1549 C1543 0.959 . S
H1550 C1543 0.961 . S
H1551 C1543 0.960 . S
H1552 C1544 0.930 . S
H1553 C1545 0.929 . S
H1554 C1562 0.929 . S
H1555 C1564 0.930 . S
H1556 C1566 0.930 . S
H1557 C1569 0.929 . S
H1558 C1572 0.930 . S
H1559 C1574 0.960 . S
H1560 C1574 0.960 . S
H1561 C1574 0.960 . S
C1562 H1554 0.929 . S
C1562 C1563 1.377 . S
C1562 C1564 1.384 . S
C1563 C1562 1.377 . S
C1563 C1569 1.390 . S
C1564 H1555 0.930 . S
C1564 C1562 1.384 . S
C1564 C1565 1.372 . S
C1565 C1564 1.372 . S
C1565 C1566 1.400 . S
C1565 C1570 1.490 . S
C1566 H1556 0.930 . S
C1566 C1565 1.400 . S
C1566 C1569 1.386 . S
H1567 C1583 0.930 . S
H1568 C1584 0.931 . S
C1569 H1557 0.929 . S
C1569 C1563 1.390 . S
C1569 C1566 1.386 . S
C1570 C1565 1.490 . S
C1570 C1572 1.395 . S
C1570 C1573 1.403 . S
H1571 C1577 0.930 . S
C1572 H1558 0.930 . S
C1572 C1570 1.395 . S
C1572 C1575 1.403 . S
C1573 C1570 1.403 . S
C1573 C1574 1.524 . S
C1573 C1577 1.400 . S
C1574 H1559 0.960 . S
C1574 H1560 0.960 . S
C1574 H1561 0.960 . S
C1574 C1573 1.524 . S
C1575 C1572 1.403 . S
C1575 C1576 1.392 . S
C1575 C1579 1.495 . S
C1576 C1575 1.392 . S
C1576 C1577 1.385 . S
C1576 C1578 1.478 . S
C1577 H1571 0.930 . S
C1577 C1573 1.400 . S
C1577 C1576 1.385 . S
C1578 C1576 1.478 . S
C1578 C1580 1.381 . S
C1578 C1584 1.383 . S
C1579 C1575 1.495 . S
C1579 H1585 0.959 . S
C1579 H1586 0.961 . S
C1579 H1587 0.960 . S
C1580 C1578 1.381 . S
C1580 C1581 1.394 . S
C1580 H1588 0.930 . S
C1581 C1580 1.394 . S
C1581 C1582 1.383 . S
C1581 H1589 0.929 . S
C1582 C1581 1.383 . S
C1582 C1583 1.377 . S
C1583 H1567 0.930 . S
C1583 C1582 1.377 . S
C1583 C1584 1.379 . S
C1584 H1568 0.931 . S
C1584 C1578 1.383 . S
C1584 C1583 1.379 . S
H1585 C1579 0.959 . S
H1586 C1579 0.961 . S
H1587 C1579 0.960 . S
H1588 C1580 0.930 . S
H1589 C1581 0.929 . S
H1590 C1598 0.929 . S
H1591 C1600 0.930 . S
H1592 C1602 0.930 . S
H1593 C1605 0.929 . S
H1594 C1608 0.930 . S
H1595 C1610 0.960 . S
H1596 C1610 0.960 . S
H1597 C1610 0.960 . S
C1598 H1590 0.929 . S
C1598 C1599 1.377 . S
C1598 C1600 1.384 . S
C1599 C1598 1.377 . S
C1599 C1605 1.390 . S
C1600 H1591 0.930 . S
C1600 C1598 1.384 . S
C1600 C1601 1.372 . S
C1601 C1600 1.372 . S
C1601 C1602 1.400 . S
C1601 C1606 1.490 . S
C1602 H1592 0.930 . S
C1602 C1601 1.400 . S
C1602 C1605 1.386 . S
H1603 C1619 0.930 . S
H1604 C1620 0.931 . S
C1605 H1593 0.929 . S
C1605 C1599 1.390 . S
C1605 C1602 1.386 . S
C1606 C1601 1.490 . S
C1606 C1608 1.395 . S
C1606 C1609 1.403 . S
H1607 C1613 0.930 . S
C1608 H1594 0.930 . S
C1608 C1606 1.395 . S
C1608 C1611 1.403 . S
C1609 C1606 1.403 . S
C1609 C1610 1.524 . S
C1609 C1613 1.400 . S
C1610 H1595 0.960 . S
C1610 H1596 0.960 . S
C1610 H1597 0.960 . S
C1610 C1609 1.524 . S
C1611 C1608 1.403 . S
C1611 C1612 1.392 . S
C1611 C1615 1.495 . S
C1612 C1611 1.392 . S
C1612 C1613 1.385 . S
C1612 C1614 1.478 . S
C1613 H1607 0.930 . S
C1613 C1609 1.400 . S
C1613 C1612 1.385 . S
C1614 C1612 1.478 . S
C1614 C1616 1.381 . S
C1614 C1620 1.383 . S
C1615 C1611 1.495 . S
C1615 H1621 0.959 . S
C1615 H1622 0.961 . S
C1615 H1623 0.960 . S
C1616 C1614 1.381 . S
C1616 C1617 1.394 . S
C1616 H1624 0.930 . S
C1617 C1616 1.394 . S
C1617 C1618 1.383 . S
C1617 H1625 0.929 . S
C1618 C1617 1.383 . S
C1618 C1619 1.377 . S
C1619 H1603 0.930 . S
C1619 C1618 1.377 . S
C1619 C1620 1.379 . S
C1620 H1604 0.931 . S
C1620 C1614 1.383 . S
C1620 C1619 1.379 . S
H1621 C1615 0.959 . S
H1622 C1615 0.961 . S
H1623 C1615 0.960 . S
H1624 C1616 0.930 . S
H1625 C1617 0.929 . S
H1626 C1634 0.929 . S
H1627 C1636 0.930 . S
H1628 C1638 0.930 . S
H1629 C1641 0.929 . S
H1630 C1644 0.930 . S
H1631 C1646 0.960 . S
H1632 C1646 0.960 . S
H1633 C1646 0.960 . S
C1634 H1626 0.929 . S
C1634 C1635 1.377 . S
C1634 C1636 1.384 . S
C1635 C1634 1.377 . S
C1635 C1641 1.390 . S
C1636 H1627 0.930 . S
C1636 C1634 1.384 . S
C1636 C1637 1.372 . S
C1637 C1636 1.372 . S
C1637 C1638 1.400 . S
C1637 C1642 1.490 . S
C1638 H1628 0.930 . S
C1638 C1637 1.400 . S
C1638 C1641 1.386 . S
H1639 C1655 0.930 . S
H1640 C1656 0.931 . S
C1641 H1629 0.929 . S
C1641 C1635 1.390 . S
C1641 C1638 1.386 . S
C1642 C1637 1.490 . S
C1642 C1644 1.395 . S
C1642 C1645 1.403 . S
H1643 C1649 0.930 . S
C1644 H1630 0.930 . S
C1644 C1642 1.395 . S
C1644 C1647 1.403 . S
C1645 C1642 1.403 . S
C1645 C1646 1.524 . S
C1645 C1649 1.400 . S
C1646 H1631 0.960 . S
C1646 H1632 0.960 . S
C1646 H1633 0.960 . S
C1646 C1645 1.524 . S
C1647 C1644 1.403 . S
C1647 C1648 1.392 . S
C1647 C1651 1.495 . S
C1648 C1647 1.392 . S
C1648 C1649 1.385 . S
C1648 C1650 1.478 . S
C1649 H1643 0.930 . S
C1649 C1645 1.400 . S
C1649 C1648 1.385 . S
C1650 C1648 1.478 . S
C1650 C1652 1.381 . S
C1650 C1656 1.383 . S
C1651 C1647 1.495 . S
C1651 H1657 0.959 . S
C1651 H1658 0.961 . S
C1651 H1659 0.960 . S
C1652 C1650 1.381 . S
C1652 C1653 1.394 . S
C1652 H1660 0.930 . S
C1653 C1652 1.394 . S
C1653 C1654 1.383 . S
C1653 H1661 0.929 . S
C1654 C1653 1.383 . S
C1654 C1655 1.377 . S
C1655 H1639 0.930 . S
C1655 C1654 1.377 . S
C1655 C1656 1.379 . S
C1656 H1640 0.931 . S
C1656 C1650 1.383 . S
C1656 C1655 1.379 . S
H1657 C1651 0.959 . S
H1658 C1651 0.961 . S
H1659 C1651 0.960 . S
H1660 C1652 0.930 . S
H1661 C1653 0.929 . S
H1662 C1670 0.929 . S
H1663 C1672 0.930 . S
H1664 C1674 0.930 . S
H1665 C1677 0.929 . S
H1666 C1680 0.930 . S
H1667 C1682 0.960 . S
H1668 C1682 0.960 . S
H1669 C1682 0.960 . S
C1670 H1662 0.929 . S
C1670 C1671 1.377 . S
C1670 C1672 1.384 . S
C1671 C1670 1.377 . S
C1671 C1677 1.390 . S
C1672 H1663 0.930 . S
C1672 C1670 1.384 . S
C1672 C1673 1.372 . S
C1673 C1672 1.372 . S
C1673 C1674 1.400 . S
C1673 C1678 1.490 . S
C1674 H1664 0.930 . S
C1674 C1673 1.400 . S
C1674 C1677 1.386 . S
H1675 C1691 0.930 . S
H1676 C1692 0.931 . S
C1677 H1665 0.929 . S
C1677 C1671 1.390 . S
C1677 C1674 1.386 . S
C1678 C1673 1.490 . S
C1678 C1680 1.395 . S
C1678 C1681 1.403 . S
H1679 C1685 0.930 . S
C1680 H1666 0.930 . S
C1680 C1678 1.395 . S
C1680 C1683 1.403 . S
C1681 C1678 1.403 . S
C1681 C1682 1.524 . S
C1681 C1685 1.400 . S
C1682 H1667 0.960 . S
C1682 H1668 0.960 . S
C1682 H1669 0.960 . S
C1682 C1681 1.524 . S
C1683 C1680 1.403 . S
C1683 C1684 1.392 . S
C1683 C1687 1.495 . S
C1684 C1683 1.392 . S
C1684 C1685 1.385 . S
C1684 C1686 1.478 . S
C1685 H1679 0.930 . S
C1685 C1681 1.400 . S
C1685 C1684 1.385 . S
C1686 C1684 1.478 . S
C1686 C1688 1.381 . S
C1686 C1692 1.383 . S
C1687 C1683 1.495 . S
C1687 H1693 0.959 . S
C1687 H1694 0.961 . S
C1687 H1695 0.960 . S
C1688 C1686 1.381 . S
C1688 C1689 1.394 . S
C1688 H1696 0.930 . S
C1689 C1688 1.394 . S
C1689 C1690 1.383 . S
C1689 H1697 0.929 . S
C1690 C1689 1.383 . S
C1690 C1691 1.377 . S
C1691 H1675 0.930 . S
C1691 C1690 1.377 . S
C1691 C1692 1.379 . S
C1692 H1676 0.931 . S
C1692 C1686 1.383 . S
C1692 C1691 1.379 . S
H1693 C1687 0.959 . S
H1694 C1687 0.961 . S
H1695 C1687 0.960 . S
H1696 C1688 0.930 . S
H1697 C1689 0.929 . S
H1698 C1706 0.929 . S
H1699 C1708 0.930 . S
H1700 C1710 0.930 . S
H1701 C1713 0.929 . S
H1702 C1716 0.930 . S
H1703 C1718 0.960 . S
H1704 C1718 0.960 . S
H1705 C1718 0.960 . S
C1706 H1698 0.929 . S
C1706 C1707 1.377 . S
C1706 C1708 1.384 . S
C1707 C1706 1.377 . S
C1707 C1713 1.390 . S
C1708 H1699 0.930 . S
C1708 C1706 1.384 . S
C1708 C1709 1.372 . S
C1709 C1708 1.372 . S
C1709 C1710 1.400 . S
C1709 C1714 1.490 . S
C1710 H1700 0.930 . S
C1710 C1709 1.400 . S
C1710 C1713 1.386 . S
H1711 C1727 0.930 . S
H1712 C1728 0.931 . S
C1713 H1701 0.929 . S
C1713 C1707 1.390 . S
C1713 C1710 1.386 . S
C1714 C1709 1.490 . S
C1714 C1716 1.395 . S
C1714 C1717 1.403 . S
H1715 C1721 0.930 . S
C1716 H1702 0.930 . S
C1716 C1714 1.395 . S
C1716 C1719 1.403 . S
C1717 C1714 1.403 . S
C1717 C1718 1.524 . S
C1717 C1721 1.400 . S
C1718 H1703 0.960 . S
C1718 H1704 0.960 . S
C1718 H1705 0.960 . S
C1718 C1717 1.524 . S
C1719 C1716 1.403 . S
C1719 C1720 1.392 . S
C1719 C1723 1.495 . S
C1720 C1719 1.392 . S
C1720 C1721 1.385 . S
C1720 C1722 1.478 . S
C1721 H1715 0.930 . S
C1721 C1717 1.400 . S
C1721 C1720 1.385 . S
C1722 C1720 1.478 . S
C1722 C1724 1.381 . S
C1722 C1728 1.383 . S
C1723 C1719 1.495 . S
C1723 H1729 0.959 . S
C1723 H1730 0.961 . S
C1723 H1731 0.960 . S
C1724 C1722 1.381 . S
C1724 C1725 1.394 . S
C1724 H1732 0.930 . S
C1725 C1724 1.394 . S
C1725 C1726 1.383 . S
C1725 H1733 0.929 . S
C1726 C1725 1.383 . S
C1726 C1727 1.377 . S
C1727 H1711 0.930 . S
C1727 C1726 1.377 . S
C1727 C1728 1.379 . S
C1728 H1712 0.931 . S
C1728 C1722 1.383 . S
C1728 C1727 1.379 . S
H1729 C1723 0.959 . S
H1730 C1723 0.961 . S
H1731 C1723 0.960 . S
H1732 C1724 0.930 . S
H1733 C1725 0.929 . S
H1734 C1742 0.929 . S
H1735 C1744 0.930 . S
H1736 C1746 0.930 . S
H1737 C1749 0.929 . S
H1738 C1752 0.930 . S
H1739 C1754 0.960 . S
H1740 C1754 0.960 . S
H1741 C1754 0.960 . S
C1742 H1734 0.929 . S
C1742 C1743 1.377 . S
C1742 C1744 1.384 . S
C1743 C1742 1.377 . S
C1743 C1749 1.390 . S
C1744 H1735 0.930 . S
C1744 C1742 1.384 . S
C1744 C1745 1.372 . S
C1745 C1744 1.372 . S
C1745 C1746 1.400 . S
C1745 C1750 1.490 . S
C1746 H1736 0.930 . S
C1746 C1745 1.400 . S
C1746 C1749 1.386 . S
H1747 C1763 0.930 . S
H1748 C1764 0.931 . S
C1749 H1737 0.929 . S
C1749 C1743 1.390 . S
C1749 C1746 1.386 . S
C1750 C1745 1.490 . S
C1750 C1752 1.395 . S
C1750 C1753 1.403 . S
H1751 C1757 0.930 . S
C1752 H1738 0.930 . S
C1752 C1750 1.395 . S
C1752 C1755 1.403 . S
C1753 C1750 1.403 . S
C1753 C1754 1.524 . S
C1753 C1757 1.400 . S
C1754 H1739 0.960 . S
C1754 H1740 0.960 . S
C1754 H1741 0.960 . S
C1754 C1753 1.524 . S
C1755 C1752 1.403 . S
C1755 C1756 1.392 . S
C1755 C1759 1.495 . S
C1756 C1755 1.392 . S
C1756 C1757 1.385 . S
C1756 C1758 1.478 . S
C1757 H1751 0.930 . S
C1757 C1753 1.400 . S
C1757 C1756 1.385 . S
C1758 C1756 1.478 . S
C1758 C1760 1.381 . S
C1758 C1764 1.383 . S
C1759 C1755 1.495 . S
C1759 H1765 0.959 . S
C1759 H1766 0.961 . S
C1759 H1767 0.960 . S
C1760 C1758 1.381 . S
C1760 C1761 1.394 . S
C1760 H1768 0.930 . S
C1761 C1760 1.394 . S
C1761 C1762 1.383 . S
C1761 H1769 0.929 . S
C1762 C1761 1.383 . S
C1762 C1763 1.377 . S
C1763 H1747 0.930 . S
C1763 C1762 1.377 . S
C1763 C1764 1.379 . S
C1764 H1748 0.931 . S
C1764 C1758 1.383 . S
C1764 C1763 1.379 . S
H1765 C1759 0.959 . S
H1766 C1759 0.961 . S
H1767 C1759 0.960 . S
H1768 C1760 0.930 . S
H1769 C1761 0.929 . S
H1770 C1778 0.929 . S
H1771 C1780 0.930 . S
H1772 C1782 0.930 . S
H1773 C1785 0.929 . S
H1774 C1788 0.930 . S
H1775 C1790 0.960 . S
H1776 C1790 0.960 . S
H1777 C1790 0.960 . S
C1778 H1770 0.929 . S
C1778 C1779 1.377 . S
C1778 C1780 1.384 . S
C1779 C1778 1.377 . S
C1779 C1785 1.390 . S
C1780 H1771 0.930 . S
C1780 C1778 1.384 . S
C1780 C1781 1.372 . S
C1781 C1780 1.372 . S
C1781 C1782 1.400 . S
C1781 C1786 1.490 . S
C1782 H1772 0.930 . S
C1782 C1781 1.400 . S
C1782 C1785 1.386 . S
H1783 C1799 0.930 . S
H1784 C1800 0.931 . S
C1785 H1773 0.929 . S
C1785 C1779 1.390 . S
C1785 C1782 1.386 . S
C1786 C1781 1.490 . S
C1786 C1788 1.395 . S
C1786 C1789 1.403 . S
H1787 C1793 0.930 . S
C1788 H1774 0.930 . S
C1788 C1786 1.395 . S
C1788 C1791 1.403 . S
C1789 C1786 1.403 . S
C1789 C1790 1.524 . S
C1789 C1793 1.400 . S
C1790 H1775 0.960 . S
C1790 H1776 0.960 . S
C1790 H1777 0.960 . S
C1790 C1789 1.524 . S
C1791 C1788 1.403 . S
C1791 C1792 1.392 . S
C1791 C1795 1.495 . S
C1792 C1791 1.392 . S
C1792 C1793 1.385 . S
C1792 C1794 1.478 . S
C1793 H1787 0.930 . S
C1793 C1789 1.400 . S
C1793 C1792 1.385 . S
C1794 C1792 1.478 . S
C1794 C1796 1.381 . S
C1794 C1800 1.383 . S
C1795 C1791 1.495 . S
C1795 H1801 0.959 . S
C1795 H1802 0.961 . S
C1795 H1803 0.960 . S
C1796 C1794 1.381 . S
C1796 C1797 1.394 . S
C1796 H1804 0.930 . S
C1797 C1796 1.394 . S
C1797 C1798 1.383 . S
C1797 H1805 0.929 . S
C1798 C1797 1.383 . S
C1798 C1799 1.377 . S
C1799 H1783 0.930 . S
C1799 C1798 1.377 . S
C1799 C1800 1.379 . S
C1800 H1784 0.931 . S
C1800 C1794 1.383 . S
C1800 C1799 1.379 . S
H1801 C1795 0.959 . S
H1802 C1795 0.961 . S
H1803 C1795 0.960 . S
H1804 C1796 0.930 . S
H1805 C1797 0.929 . S
H1806 C1814 0.929 . S
H1807 C1816 0.930 . S
H1808 C1818 0.930 . S
H1809 C1821 0.929 . S
H1810 C1824 0.930 . S
H1811 C1826 0.960 . S
H1812 C1826 0.960 . S
H1813 C1826 0.960 . S
C1814 H1806 0.929 . S
C1814 C1815 1.377 . S
C1814 C1816 1.384 . S
C1815 C1814 1.377 . S
C1815 C1821 1.390 . S
C1816 H1807 0.930 . S
C1816 C1814 1.384 . S
C1816 C1817 1.372 . S
C1817 C1816 1.372 . S
C1817 C1818 1.400 . S
C1817 C1822 1.490 . S
C1818 H1808 0.930 . S
C1818 C1817 1.400 . S
C1818 C1821 1.386 . S
H1819 C1835 0.930 . S
H1820 C1836 0.931 . S
C1821 H1809 0.929 . S
C1821 C1815 1.390 . S
C1821 C1818 1.386 . S
C1822 C1817 1.490 . S
C1822 C1824 1.395 . S
C1822 C1825 1.403 . S
H1823 C1829 0.930 . S
C1824 H1810 0.930 . S
C1824 C1822 1.395 . S
C1824 C1827 1.403 . S
C1825 C1822 1.403 . S
C1825 C1826 1.524 . S
C1825 C1829 1.400 . S
C1826 H1811 0.960 . S
C1826 H1812 0.960 . S
C1826 H1813 0.960 . S
C1826 C1825 1.524 . S
C1827 C1824 1.403 . S
C1827 C1828 1.392 . S
C1827 C1831 1.495 . S
C1828 C1827 1.392 . S
C1828 C1829 1.385 . S
C1828 C1830 1.478 . S
C1829 H1823 0.930 . S
C1829 C1825 1.400 . S
C1829 C1828 1.385 . S
C1830 C1828 1.478 . S
C1830 C1832 1.381 . S
C1830 C1836 1.383 . S
C1831 C1827 1.495 . S
C1831 H1837 0.959 . S
C1831 H1838 0.961 . S
C1831 H1839 0.960 . S
C1832 C1830 1.381 . S
C1832 C1833 1.394 . S
C1832 H1840 0.930 . S
C1833 C1832 1.394 . S
C1833 C1834 1.383 . S
C1833 H1841 0.929 . S
C1834 C1833 1.383 . S
C1834 C1835 1.377 . S
C1835 H1819 0.930 . S
C1835 C1834 1.377 . S
C1835 C1836 1.379 . S
C1836 H1820 0.931 . S
C1836 C1830 1.383 . S
C1836 C1835 1.379 . S
H1837 C1831 0.959 . S
H1838 C1831 0.961 . S
H1839 C1831 0.960 . S
H1840 C1832 0.930 . S
H1841 C1833 0.929 . S
H1842 C1850 0.929 . S
H1843 C1852 0.930 . S
H1844 C1854 0.930 . S
H1845 C1857 0.929 . S
H1846 C1860 0.930 . S
H1847 C1862 0.960 . S
H1848 C1862 0.960 . S
H1849 C1862 0.960 . S
C1850 H1842 0.929 . S
C1850 C1851 1.377 . S
C1850 C1852 1.384 . S
C1851 C1850 1.377 . S
C1851 C1857 1.390 . S
C1852 H1843 0.930 . S
C1852 C1850 1.384 . S
C1852 C1853 1.372 . S
C1853 C1852 1.372 . S
C1853 C1854 1.400 . S
C1853 C1858 1.490 . S
C1854 H1844 0.930 . S
C1854 C1853 1.400 . S
C1854 C1857 1.386 . S
H1855 C1871 0.930 . S
H1856 C1872 0.931 . S
C1857 H1845 0.929 . S
C1857 C1851 1.390 . S
C1857 C1854 1.386 . S
C1858 C1853 1.490 . S
C1858 C1860 1.395 . S
C1858 C1861 1.403 . S
H1859 C1865 0.930 . S
C1860 H1846 0.930 . S
C1860 C1858 1.395 . S
C1860 C1863 1.403 . S
C1861 C1858 1.403 . S
C1861 C1862 1.524 . S
C1861 C1865 1.400 . S
C1862 H1847 0.960 . S
C1862 H1848 0.960 . S
C1862 H1849 0.960 . S
C1862 C1861 1.524 . S
C1863 C1860 1.403 . S
C1863 C1864 1.392 . S
C1863 C1867 1.495 . S
C1864 C1863 1.392 . S
C1864 C1865 1.385 . S
C1864 C1866 1.478 . S
C1865 H1859 0.930 . S
C1865 C1861 1.400 . S
C1865 C1864 1.385 . S
C1866 C1864 1.478 . S
C1866 C1868 1.381 . S
C1866 C1872 1.383 . S
C1867 C1863 1.495 . S
C1867 H1873 0.959 . S
C1867 H1874 0.961 . S
C1867 H1875 0.960 . S
C1868 C1866 1.381 . S
C1868 C1869 1.394 . S
C1868 H1876 0.930 . S
C1869 C1868 1.394 . S
C1869 C1870 1.383 . S
C1869 H1877 0.929 . S
C1870 C1869 1.383 . S
C1870 C1871 1.377 . S
C1871 H1855 0.930 . S
C1871 C1870 1.377 . S
C1871 C1872 1.379 . S
C1872 H1856 0.931 . S
C1872 C1866 1.383 . S
C1872 C1871 1.379 . S
H1873 C1867 0.959 . S
H1874 C1867 0.961 . S
H1875 C1867 0.960 . S
H1876 C1868 0.930 . S
H1877 C1869 0.929 . S
H1878 C1886 0.929 . S
H1879 C1888 0.930 . S
H1880 C1890 0.930 . S
H1881 C1893 0.929 . S
H1882 C1896 0.930 . S
H1883 C1898 0.960 . S
H1884 C1898 0.960 . S
H1885 C1898 0.960 . S
C1886 H1878 0.929 . S
C1886 C1887 1.377 . S
C1886 C1888 1.384 . S
C1887 C1886 1.377 . S
C1887 C1893 1.390 . S
C1888 H1879 0.930 . S
C1888 C1886 1.384 . S
C1888 C1889 1.372 . S
C1889 C1888 1.372 . S
C1889 C1890 1.400 . S
C1889 C1894 1.490 . S
C1890 H1880 0.930 . S
C1890 C1889 1.400 . S
C1890 C1893 1.386 . S
H1891 C1907 0.930 . S
H1892 C1908 0.931 . S
C1893 H1881 0.929 . S
C1893 C1887 1.390 . S
C1893 C1890 1.386 . S
C1894 C1889 1.490 . S
C1894 C1896 1.395 . S
C1894 C1897 1.403 . S
H1895 C1901 0.930 . S
C1896 H1882 0.930 . S
C1896 C1894 1.395 . S
C1896 C1899 1.403 . S
C1897 C1894 1.403 . S
C1897 C1898 1.524 . S
C1897 C1901 1.400 . S
C1898 H1883 0.960 . S
C1898 H1884 0.960 . S
C1898 H1885 0.960 . S
C1898 C1897 1.524 . S
C1899 C1896 1.403 . S
C1899 C1900 1.392 . S
C1899 C1903 1.495 . S
C1900 C1899 1.392 . S
C1900 C1901 1.385 . S
C1900 C1902 1.478 . S
C1901 H1895 0.930 . S
C1901 C1897 1.400 . S
C1901 C1900 1.385 . S
C1902 C1900 1.478 . S
C1902 C1904 1.381 . S
C1902 C1908 1.383 . S
C1903 C1899 1.495 . S
C1903 H1909 0.959 . S
C1903 H1910 0.961 . S
C1903 H1911 0.960 . S
C1904 C1902 1.381 . S
C1904 C1905 1.394 . S
C1904 H1912 0.930 . S
C1905 C1904 1.394 . S
C1905 C1906 1.383 . S
C1905 H1913 0.929 . S
C1906 C1905 1.383 . S
C1906 C1907 1.377 . S
C1907 H1891 0.930 . S
C1907 C1906 1.377 . S
C1907 C1908 1.379 . S
C1908 H1892 0.931 . S
C1908 C1902 1.383 . S
C1908 C1907 1.379 . S
H1909 C1903 0.959 . S
H1910 C1903 0.961 . S
H1911 C1903 0.960 . S
H1912 C1904 0.930 . S
H1913 C1905 0.929 . S
H1914 C1922 0.929 . S
H1915 C1924 0.930 . S
H1916 C1926 0.930 . S
H1917 C1929 0.929 . S
H1918 C1932 0.930 . S
H1919 C1934 0.960 . S
H1920 C1934 0.960 . S
H1921 C1934 0.960 . S
C1922 H1914 0.929 . S
C1922 C1923 1.377 . S
C1922 C1924 1.384 . S
C1923 C1922 1.377 . S
C1923 C1929 1.390 . S
C1924 H1915 0.930 . S
C1924 C1922 1.384 . S
C1924 C1925 1.372 . S
C1925 C1924 1.372 . S
C1925 C1926 1.400 . S
C1925 C1930 1.490 . S
C1926 H1916 0.930 . S
C1926 C1925 1.400 . S
C1926 C1929 1.386 . S
H1927 C1943 0.930 . S
H1928 C1944 0.931 . S
C1929 H1917 0.929 . S
C1929 C1923 1.390 . S
C1929 C1926 1.386 . S
C1930 C1925 1.490 . S
C1930 C1932 1.395 . S
C1930 C1933 1.403 . S
H1931 C1937 0.930 . S
C1932 H1918 0.930 . S
C1932 C1930 1.395 . S
C1932 C1935 1.403 . S
C1933 C1930 1.403 . S
C1933 C1934 1.524 . S
C1933 C1937 1.400 . S
C1934 H1919 0.960 . S
C1934 H1920 0.960 . S
C1934 H1921 0.960 . S
C1934 C1933 1.524 . S
C1935 C1932 1.403 . S
C1935 C1936 1.392 . S
C1935 C1939 1.495 . S
C1936 C1935 1.392 . S
C1936 C1937 1.385 . S
C1936 C1938 1.478 . S
C1937 H1931 0.930 . S
C1937 C1933 1.400 . S
C1937 C1936 1.385 . S
C1938 C1936 1.478 . S
C1938 C1940 1.381 . S
C1938 C1944 1.383 . S
C1939 C1935 1.495 . S
C1939 H1945 0.959 . S
C1939 H1946 0.961 . S
C1939 H1947 0.960 . S
C1940 C1938 1.381 . S
C1940 C1941 1.394 . S
C1940 H1948 0.930 . S
C1941 C1940 1.394 . S
C1941 C1942 1.383 . S
C1941 H1949 0.929 . S
C1942 C1941 1.383 . S
C1942 C1943 1.377 . S
C1943 H1927 0.930 . S
C1943 C1942 1.377 . S
C1943 C1944 1.379 . S
C1944 H1928 0.931 . S
C1944 C1938 1.383 . S
C1944 C1943 1.379 . S
H1945 C1939 0.959 . S
H1946 C1939 0.961 . S
H1947 C1939 0.960 . S
H1948 C1940 0.930 . S
H1949 C1941 0.929 . S
H1950 C1958 0.929 . S
H1951 C1960 0.930 . S
H1952 C1962 0.930 . S
H1953 C1965 0.929 . S
H1954 C1968 0.930 . S
H1955 C1970 0.960 . S
H1956 C1970 0.960 . S
H1957 C1970 0.960 . S
C1958 H1950 0.929 . S
C1958 C1959 1.377 . S
C1958 C1960 1.384 . S
C1959 C1958 1.377 . S
C1959 C1965 1.390 . S
C1960 H1951 0.930 . S
C1960 C1958 1.384 . S
C1960 C1961 1.372 . S
C1961 C1960 1.372 . S
C1961 C1962 1.400 . S
C1961 C1966 1.490 . S
C1962 H1952 0.930 . S
C1962 C1961 1.400 . S
C1962 C1965 1.386 . S
H1963 C1979 0.930 . S
H1964 C1980 0.931 . S
C1965 H1953 0.929 . S
C1965 C1959 1.390 . S
C1965 C1962 1.386 . S
C1966 C1961 1.490 . S
C1966 C1968 1.395 . S
C1966 C1969 1.403 . S
H1967 C1973 0.930 . S
C1968 H1954 0.930 . S
C1968 C1966 1.395 . S
C1968 C1971 1.403 . S
C1969 C1966 1.403 . S
C1969 C1970 1.524 . S
C1969 C1973 1.400 . S
C1970 H1955 0.960 . S
C1970 H1956 0.960 . S
C1970 H1957 0.960 . S
C1970 C1969 1.524 . S
C1971 C1968 1.403 . S
C1971 C1972 1.392 . S
C1971 C1975 1.495 . S
C1972 C1971 1.392 . S
C1972 C1973 1.385 . S
C1972 C1974 1.478 . S
C1973 H1967 0.930 . S
C1973 C1969 1.400 . S
C1973 C1972 1.385 . S
C1974 C1972 1.478 . S
C1974 C1976 1.381 . S
C1974 C1980 1.383 . S
C1975 C1971 1.495 . S
C1975 H1981 0.959 . S
C1975 H1982 0.961 . S
C1975 H1983 0.960 . S
C1976 C1974 1.381 . S
C1976 C1977 1.394 . S
C1976 H1984 0.930 . S
C1977 C1976 1.394 . S
C1977 C1978 1.383 . S
C1977 H1985 0.929 . S
C1978 C1977 1.383 . S
C1978 C1979 1.377 . S
C1979 H1963 0.930 . S
C1979 C1978 1.377 . S
C1979 C1980 1.379 . S
C1980 H1964 0.931 . S
C1980 C1974 1.383 . S
C1980 C1979 1.379 . S
H1981 C1975 0.959 . S
H1982 C1975 0.961 . S
H1983 C1975 0.960 . S
H1984 C1976 0.930 . S
H1985 C1977 0.929 . S
H1986 C1994 0.929 . S
H1987 C1996 0.930 . S
H1988 C1998 0.930 . S
H1989 C2001 0.929 . S
H1990 C2004 0.930 . S
H1991 C2006 0.960 . S
H1992 C2006 0.960 . S
H1993 C2006 0.960 . S
C1994 H1986 0.929 . S
C1994 C1995 1.377 . S
C1994 C1996 1.384 . S
C1995 C1994 1.377 . S
C1995 C2001 1.390 . S
C1996 H1987 0.930 . S
C1996 C1994 1.384 . S
C1996 C1997 1.372 . S
C1997 C1996 1.372 . S
C1997 C1998 1.400 . S
C1997 C2002 1.490 . S
C1998 H1988 0.930 . S
C1998 C1997 1.400 . S
C1998 C2001 1.386 . S
H1999 C2015 0.930 . S
H2000 C2016 0.931 . S
C2001 H1989 0.929 . S
C2001 C1995 1.390 . S
C2001 C1998 1.386 . S
C2002 C1997 1.490 . S
C2002 C2004 1.395 . S
C2002 C2005 1.403 . S
H2003 C2009 0.930 . S
C2004 H1990 0.930 . S
C2004 C2002 1.395 . S
C2004 C2007 1.403 . S
C2005 C2002 1.403 . S
C2005 C2006 1.524 . S
C2005 C2009 1.400 . S
C2006 H1991 0.960 . S
C2006 H1992 0.960 . S
C2006 H1993 0.960 . S
C2006 C2005 1.524 . S
C2007 C2004 1.403 . S
C2007 C2008 1.392 . S
C2007 C2011 1.495 . S
C2008 C2007 1.392 . S
C2008 C2009 1.385 . S
C2008 C2010 1.478 . S
C2009 H2003 0.930 . S
C2009 C2005 1.400 . S
C2009 C2008 1.385 . S
C2010 C2008 1.478 . S
C2010 C2012 1.381 . S
C2010 C2016 1.383 . S
C2011 C2007 1.495 . S
C2011 H2017 0.959 . S
C2011 H2018 0.961 . S
C2011 H2019 0.960 . S
C2012 C2010 1.381 . S
C2012 C2013 1.394 . S
C2012 H2020 0.930 . S
C2013 C2012 1.394 . S
C2013 C2014 1.383 . S
C2013 H2021 0.929 . S
C2014 C2013 1.383 . S
C2014 C2015 1.377 . S
C2015 H1999 0.930 . S
C2015 C2014 1.377 . S
C2015 C2016 1.379 . S
C2016 H2000 0.931 . S
C2016 C2010 1.383 . S
C2016 C2015 1.379 . S
H2017 C2011 0.959 . S
H2018 C2011 0.961 . S
H2019 C2011 0.960 . S
H2020 C2012 0.930 . S
H2021 C2013 0.929 . S
H2022 C2030 0.929 . S
H2023 C2032 0.930 . S
H2024 C2034 0.930 . S
H2025 C2037 0.929 . S
H2026 C2040 0.930 . S
H2027 C2042 0.960 . S
H2028 C2042 0.960 . S
H2029 C2042 0.960 . S
C2030 H2022 0.929 . S
C2030 C2031 1.377 . S
C2030 C2032 1.384 . S
C2031 C2030 1.377 . S
C2031 C2037 1.390 . S
C2032 H2023 0.930 . S
C2032 C2030 1.384 . S
C2032 C2033 1.372 . S
C2033 C2032 1.372 . S
C2033 C2034 1.400 . S
C2033 C2038 1.490 . S
C2034 H2024 0.930 . S
C2034 C2033 1.400 . S
C2034 C2037 1.386 . S
H2035 C2051 0.930 . S
H2036 C2052 0.931 . S
C2037 H2025 0.929 . S
C2037 C2031 1.390 . S
C2037 C2034 1.386 . S
C2038 C2033 1.490 . S
C2038 C2040 1.395 . S
C2038 C2041 1.403 . S
H2039 C2045 0.930 . S
C2040 H2026 0.930 . S
C2040 C2038 1.395 . S
C2040 C2043 1.403 . S
C2041 C2038 1.403 . S
C2041 C2042 1.524 . S
C2041 C2045 1.400 . S
C2042 H2027 0.960 . S
C2042 H2028 0.960 . S
C2042 H2029 0.960 . S
C2042 C2041 1.524 . S
C2043 C2040 1.403 . S
C2043 C2044 1.392 . S
C2043 C2047 1.495 . S
C2044 C2043 1.392 . S
C2044 C2045 1.385 . S
C2044 C2046 1.478 . S
C2045 H2039 0.930 . S
C2045 C2041 1.400 . S
C2045 C2044 1.385 . S
C2046 C2044 1.478 . S
C2046 C2048 1.381 . S
C2046 C2052 1.383 . S
C2047 C2043 1.495 . S
C2047 H2053 0.959 . S
C2047 H2054 0.961 . S
C2047 H2055 0.960 . S
C2048 C2046 1.381 . S
C2048 C2049 1.394 . S
C2048 H2056 0.930 . S
C2049 C2048 1.394 . S
C2049 C2050 1.383 . S
C2049 H2057 0.929 . S
C2050 C2049 1.383 . S
C2050 C2051 1.377 . S
C2051 H2035 0.930 . S
C2051 C2050 1.377 . S
C2051 C2052 1.379 . S
C2052 H2036 0.931 . S
C2052 C2046 1.383 . S
C2052 C2051 1.379 . S
H2053 C2047 0.959 . S
H2054 C2047 0.961 . S
H2055 C2047 0.960 . S
H2056 C2048 0.930 . S
H2057 C2049 0.929 . S
H2058 C2066 0.929 . S
H2059 C2068 0.930 . S
H2060 C2070 0.930 . S
H2061 C2073 0.929 . S
H2062 C2076 0.930 . S
H2063 C2078 0.960 . S
H2064 C2078 0.960 . S
H2065 C2078 0.960 . S
C2066 H2058 0.929 . S
C2066 C2067 1.377 . S
C2066 C2068 1.384 . S
C2067 C2066 1.377 . S
C2067 C2073 1.390 . S
C2068 H2059 0.930 . S
C2068 C2066 1.384 . S
C2068 C2069 1.372 . S
C2069 C2068 1.372 . S
C2069 C2070 1.400 . S
C2069 C2074 1.490 . S
C2070 H2060 0.930 . S
C2070 C2069 1.400 . S
C2070 C2073 1.386 . S
H2071 C2087 0.930 . S
H2072 C2088 0.931 . S
C2073 H2061 0.929 . S
C2073 C2067 1.390 . S
C2073 C2070 1.386 . S
C2074 C2069 1.490 . S
C2074 C2076 1.395 . S
C2074 C2077 1.403 . S
H2075 C2081 0.930 . S
C2076 H2062 0.930 . S
C2076 C2074 1.395 . S
C2076 C2079 1.403 . S
C2077 C2074 1.403 . S
C2077 C2078 1.524 . S
C2077 C2081 1.400 . S
C2078 H2063 0.960 . S
C2078 H2064 0.960 . S
C2078 H2065 0.960 . S
C2078 C2077 1.524 . S
C2079 C2076 1.403 . S
C2079 C2080 1.392 . S
C2079 C2083 1.495 . S
C2080 C2079 1.392 . S
C2080 C2081 1.385 . S
C2080 C2082 1.478 . S
C2081 H2075 0.930 . S
C2081 C2077 1.400 . S
C2081 C2080 1.385 . S
C2082 C2080 1.478 . S
C2082 C2084 1.381 . S
C2082 C2088 1.383 . S
C2083 C2079 1.495 . S
C2083 H2089 0.959 . S
C2083 H2090 0.961 . S
C2083 H2091 0.960 . S
C2084 C2082 1.381 . S
C2084 C2085 1.394 . S
C2084 H2092 0.930 . S
C2085 C2084 1.394 . S
C2085 C2086 1.383 . S
C2085 H2093 0.929 . S
C2086 C2085 1.383 . S
C2086 C2087 1.377 . S
C2087 H2071 0.930 . S
C2087 C2086 1.377 . S
C2087 C2088 1.379 . S
C2088 H2072 0.931 . S
C2088 C2082 1.383 . S
C2088 C2087 1.379 . S
H2089 C2083 0.959 . S
H2090 C2083 0.961 . S
H2091 C2083 0.960 . S
H2092 C2084 0.930 . S
H2093 C2085 0.929 . S
H2094 C2102 0.929 . S
H2095 C2104 0.930 . S
H2096 C2106 0.930 . S
H2097 C2109 0.929 . S
H2098 C2112 0.930 . S
H2099 C2114 0.960 . S
H2100 C2114 0.960 . S
H2101 C2114 0.960 . S
C2102 H2094 0.929 . S
C2102 C2103 1.377 . S
C2102 C2104 1.384 . S
C2103 C2102 1.377 . S
C2103 C2109 1.390 . S
C2104 H2095 0.930 . S
C2104 C2102 1.384 . S
C2104 C2105 1.372 . S
C2105 C2104 1.372 . S
C2105 C2106 1.400 . S
C2105 C2110 1.490 . S
C2106 H2096 0.930 . S
C2106 C2105 1.400 . S
C2106 C2109 1.386 . S
H2107 C2123 0.930 . S
H2108 C2124 0.931 . S
C2109 H2097 0.929 . S
C2109 C2103 1.390 . S
C2109 C2106 1.386 . S
C2110 C2105 1.490 . S
C2110 C2112 1.395 . S
C2110 C2113 1.403 . S
H2111 C2117 0.930 . S
C2112 H2098 0.930 . S
C2112 C2110 1.395 . S
C2112 C2115 1.403 . S
C2113 C2110 1.403 . S
C2113 C2114 1.524 . S
C2113 C2117 1.400 . S
C2114 H2099 0.960 . S
C2114 H2100 0.960 . S
C2114 H2101 0.960 . S
C2114 C2113 1.524 . S
C2115 C2112 1.403 . S
C2115 C2116 1.392 . S
C2115 C2119 1.495 . S
C2116 C2115 1.392 . S
C2116 C2117 1.385 . S
C2116 C2118 1.478 . S
C2117 H2111 0.930 . S
C2117 C2113 1.400 . S
C2117 C2116 1.385 . S
C2118 C2116 1.478 . S
C2118 C2120 1.381 . S
C2118 C2124 1.383 . S
C2119 C2115 1.495 . S
C2119 H2125 0.959 . S
C2119 H2126 0.961 . S
C2119 H2127 0.960 . S
C2120 C2118 1.381 . S
C2120 C2121 1.394 . S
C2120 H2128 0.930 . S
C2121 C2120 1.394 . S
C2121 C2122 1.383 . S
C2121 H2129 0.929 . S
C2122 C2121 1.383 . S
C2122 C2123 1.377 . S
C2123 H2107 0.930 . S
C2123 C2122 1.377 . S
C2123 C2124 1.379 . S
C2124 H2108 0.931 . S
C2124 C2118 1.383 . S
C2124 C2123 1.379 . S
H2125 C2119 0.959 . S
H2126 C2119 0.961 . S
H2127 C2119 0.960 . S
H2128 C2120 0.930 . S
H2129 C2121 0.929 . S
H2130 C2138 0.929 . S
H2131 C2140 0.930 . S
H2132 C2142 0.930 . S
H2133 C2145 0.929 . S
H2134 C2148 0.930 . S
H2135 C2150 0.960 . S
H2136 C2150 0.960 . S
H2137 C2150 0.960 . S
C2138 H2130 0.929 . S
C2138 C2139 1.377 . S
C2138 C2140 1.384 . S
C2139 C2138 1.377 . S
C2139 C2145 1.390 . S
C2140 H2131 0.930 . S
C2140 C2138 1.384 . S
C2140 C2141 1.372 . S
C2141 C2140 1.372 . S
C2141 C2142 1.400 . S
C2141 C2146 1.490 . S
C2142 H2132 0.930 . S
C2142 C2141 1.400 . S
C2142 C2145 1.386 . S
H2143 C2159 0.930 . S
H2144 C2160 0.931 . S
C2145 H2133 0.929 . S
C2145 C2139 1.390 . S
C2145 C2142 1.386 . S
C2146 C2141 1.490 . S
C2146 C2148 1.395 . S
C2146 C2149 1.403 . S
H2147 C2153 0.930 . S
C2148 H2134 0.930 . S
C2148 C2146 1.395 . S
C2148 C2151 1.403 . S
C2149 C2146 1.403 . S
C2149 C2150 1.524 . S
C2149 C2153 1.400 . S
C2150 H2135 0.960 . S
C2150 H2136 0.960 . S
C2150 H2137 0.960 . S
C2150 C2149 1.524 . S
C2151 C2148 1.403 . S
C2151 C2152 1.392 . S
C2151 C2155 1.495 . S
C2152 C2151 1.392 . S
C2152 C2153 1.385 . S
C2152 C2154 1.478 . S
C2153 H2147 0.930 . S
C2153 C2149 1.400 . S
C2153 C2152 1.385 . S
C2154 C2152 1.478 . S
C2154 C2156 1.381 . S
C2154 C2160 1.383 . S
C2155 C2151 1.495 . S
C2155 H2161 0.959 . S
C2155 H2162 0.961 . S
C2155 H2163 0.960 . S
C2156 C2154 1.381 . S
C2156 C2157 1.394 . S
C2156 H2164 0.930 . S
C2157 C2156 1.394 . S
C2157 C2158 1.383 . S
C2157 H2165 0.929 . S
C2158 C2157 1.383 . S
C2158 C2159 1.377 . S
C2159 H2143 0.930 . S
C2159 C2158 1.377 . S
C2159 C2160 1.379 . S
C2160 H2144 0.931 . S
C2160 C2154 1.383 . S
C2160 C2159 1.379 . S
H2161 C2155 0.959 . S
H2162 C2155 0.961 . S
H2163 C2155 0.960 . S
H2164 C2156 0.930 . S
H2165 C2157 0.929 . S
H2166 C2174 0.929 . S
H2167 C2176 0.930 . S
H2168 C2178 0.930 . S
H2169 C2181 0.929 . S
H2170 C2184 0.930 . S
H2171 C2186 0.960 . S
H2172 C2186 0.960 . S
H2173 C2186 0.960 . S
C2174 H2166 0.929 . S
C2174 C2175 1.377 . S
C2174 C2176 1.384 . S
C2175 C2174 1.377 . S
C2175 C2181 1.390 . S
C2176 H2167 0.930 . S
C2176 C2174 1.384 . S
C2176 C2177 1.372 . S
C2177 C2176 1.372 . S
C2177 C2178 1.400 . S
C2177 C2182 1.490 . S
C2178 H2168 0.930 . S
C2178 C2177 1.400 . S
C2178 C2181 1.386 . S
H2179 C2195 0.930 . S
H2180 C2196 0.931 . S
C2181 H2169 0.929 . S
C2181 C2175 1.390 . S
C2181 C2178 1.386 . S
C2182 C2177 1.490 . S
C2182 C2184 1.395 . S
C2182 C2185 1.403 . S
H2183 C2189 0.930 . S
C2184 H2170 0.930 . S
C2184 C2182 1.395 . S
C2184 C2187 1.403 . S
C2185 C2182 1.403 . S
C2185 C2186 1.524 . S
C2185 C2189 1.400 . S
C2186 H2171 0.960 . S
C2186 H2172 0.960 . S
C2186 H2173 0.960 . S
C2186 C2185 1.524 . S
C2187 C2184 1.403 . S
C2187 C2188 1.392 . S
C2187 C2191 1.495 . S
C2188 C2187 1.392 . S
C2188 C2189 1.385 . S
C2188 C2190 1.478 . S
C2189 H2183 0.930 . S
C2189 C2185 1.400 . S
C2189 C2188 1.385 . S
C2190 C2188 1.478 . S
C2190 C2192 1.381 . S
C2190 C2196 1.383 . S
C2191 C2187 1.495 . S
C2191 H2197 0.959 . S
C2191 H2198 0.961 . S
C2191 H2199 0.960 . S
C2192 C2190 1.381 . S
C2192 C2193 1.394 . S
C2192 H2200 0.930 . S
C2193 C2192 1.394 . S
C2193 C2194 1.383 . S
C2193 H2201 0.929 . S
C2194 C2193 1.383 . S
C2194 C2195 1.377 . S
C2195 H2179 0.930 . S
C2195 C2194 1.377 . S
C2195 C2196 1.379 . S
C2196 H2180 0.931 . S
C2196 C2190 1.383 . S
C2196 C2195 1.379 . S
H2197 C2191 0.959 . S
H2198 C2191 0.961 . S
H2199 C2191 0.960 . S
H2200 C2192 0.930 . S
H2201 C2193 0.929 . S
H2202 C2210 0.929 . S
H2203 C2212 0.930 . S
H2204 C2214 0.930 . S
H2205 C2217 0.929 . S
H2206 C2220 0.930 . S
H2207 C2222 0.960 . S
H2208 C2222 0.960 . S
H2209 C2222 0.960 . S
C2210 H2202 0.929 . S
C2210 C2211 1.377 . S
C2210 C2212 1.384 . S
C2211 C2210 1.377 . S
C2211 C2217 1.390 . S
C2212 H2203 0.930 . S
C2212 C2210 1.384 . S
C2212 C2213 1.372 . S
C2213 C2212 1.372 . S
C2213 C2214 1.400 . S
C2213 C2218 1.490 . S
C2214 H2204 0.930 . S
C2214 C2213 1.400 . S
C2214 C2217 1.386 . S
H2215 C2231 0.930 . S
H2216 C2232 0.931 . S
C2217 H2205 0.929 . S
C2217 C2211 1.390 . S
C2217 C2214 1.386 . S
C2218 C2213 1.490 . S
C2218 C2220 1.395 . S
C2218 C2221 1.403 . S
H2219 C2225 0.930 . S
C2220 H2206 0.930 . S
C2220 C2218 1.395 . S
C2220 C2223 1.403 . S
C2221 C2218 1.403 . S
C2221 C2222 1.524 . S
C2221 C2225 1.400 . S
C2222 H2207 0.960 . S
C2222 H2208 0.960 . S
C2222 H2209 0.960 . S
C2222 C2221 1.524 . S
C2223 C2220 1.403 . S
C2223 C2224 1.392 . S
C2223 C2227 1.495 . S
C2224 C2223 1.392 . S
C2224 C2225 1.385 . S
C2224 C2226 1.478 . S
C2225 H2219 0.930 . S
C2225 C2221 1.400 . S
C2225 C2224 1.385 . S
C2226 C2224 1.478 . S
C2226 C2228 1.381 . S
C2226 C2232 1.383 . S
C2227 C2223 1.495 . S
C2227 H2233 0.959 . S
C2227 H2234 0.961 . S
C2227 H2235 0.960 . S
C2228 C2226 1.381 . S
C2228 C2229 1.394 . S
C2228 H2236 0.930 . S
C2229 C2228 1.394 . S
C2229 C2230 1.383 . S
C2229 H2237 0.929 . S
C2230 C2229 1.383 . S
C2230 C2231 1.377 . S
C2231 H2215 0.930 . S
C2231 C2230 1.377 . S
C2231 C2232 1.379 . S
C2232 H2216 0.931 . S
C2232 C2226 1.383 . S
C2232 C2231 1.379 . S
H2233 C2227 0.959 . S
H2234 C2227 0.961 . S
H2235 C2227 0.960 . S
H2236 C2228 0.930 . S
H2237 C2229 0.929 . S
H2238 C2246 0.929 . S
H2239 C2248 0.930 . S
H2240 C2250 0.930 . S
H2241 C2253 0.929 . S
H2242 C2256 0.930 . S
H2243 C2258 0.960 . S
H2244 C2258 0.960 . S
H2245 C2258 0.960 . S
C2246 H2238 0.929 . S
C2246 C2247 1.377 . S
C2246 C2248 1.384 . S
C2247 C2246 1.377 . S
C2247 C2253 1.390 . S
C2248 H2239 0.930 . S
C2248 C2246 1.384 . S
C2248 C2249 1.372 . S
C2249 C2248 1.372 . S
C2249 C2250 1.400 . S
C2249 C2254 1.490 . S
C2250 H2240 0.930 . S
C2250 C2249 1.400 . S
C2250 C2253 1.386 . S
H2251 C2267 0.930 . S
H2252 C2268 0.931 . S
C2253 H2241 0.929 . S
C2253 C2247 1.390 . S
C2253 C2250 1.386 . S
C2254 C2249 1.490 . S
C2254 C2256 1.395 . S
C2254 C2257 1.403 . S
H2255 C2261 0.930 . S
C2256 H2242 0.930 . S
C2256 C2254 1.395 . S
C2256 C2259 1.403 . S
C2257 C2254 1.403 . S
C2257 C2258 1.524 . S
C2257 C2261 1.400 . S
C2258 H2243 0.960 . S
C2258 H2244 0.960 . S
C2258 H2245 0.960 . S
C2258 C2257 1.524 . S
C2259 C2256 1.403 . S
C2259 C2260 1.392 . S
C2259 C2263 1.495 . S
C2260 C2259 1.392 . S
C2260 C2261 1.385 . S
C2260 C2262 1.478 . S
C2261 H2255 0.930 . S
C2261 C2257 1.400 . S
C2261 C2260 1.385 . S
C2262 C2260 1.478 . S
C2262 C2264 1.381 . S
C2262 C2268 1.383 . S
C2263 C2259 1.495 . S
C2263 H2269 0.959 . S
C2263 H2270 0.961 . S
C2263 H2271 0.960 . S
C2264 C2262 1.381 . S
C2264 C2265 1.394 . S
C2264 H2272 0.930 . S
C2265 C2264 1.394 . S
C2265 C2266 1.383 . S
C2265 H2273 0.929 . S
C2266 C2265 1.383 . S
C2266 C2267 1.377 . S
C2267 H2251 0.930 . S
C2267 C2266 1.377 . S
C2267 C2268 1.379 . S
C2268 H2252 0.931 . S
C2268 C2262 1.383 . S
C2268 C2267 1.379 . S
H2269 C2263 0.959 . S
H2270 C2263 0.961 . S
H2271 C2263 0.960 . S
H2272 C2264 0.930 . S
H2273 C2265 0.929 . S
H2274 C2282 0.929 . S
H2275 C2284 0.930 . S
H2276 C2286 0.930 . S
H2277 C2289 0.929 . S
H2278 C2292 0.930 . S
H2279 C2294 0.960 . S
H2280 C2294 0.960 . S
H2281 C2294 0.960 . S
C2282 H2274 0.929 . S
C2282 C2283 1.377 . S
C2282 C2284 1.384 . S
C2283 C2282 1.377 . S
C2283 C2289 1.390 . S
C2284 H2275 0.930 . S
C2284 C2282 1.384 . S
C2284 C2285 1.372 . S
C2285 C2284 1.372 . S
C2285 C2286 1.400 . S
C2285 C2290 1.490 . S
C2286 H2276 0.930 . S
C2286 C2285 1.400 . S
C2286 C2289 1.386 . S
H2287 C2303 0.930 . S
H2288 C2304 0.931 . S
C2289 H2277 0.929 . S
C2289 C2283 1.390 . S
C2289 C2286 1.386 . S
C2290 C2285 1.490 . S
C2290 C2292 1.395 . S
C2290 C2293 1.403 . S
H2291 C2297 0.930 . S
C2292 H2278 0.930 . S
C2292 C2290 1.395 . S
C2292 C2295 1.403 . S
C2293 C2290 1.403 . S
C2293 C2294 1.524 . S
C2293 C2297 1.400 . S
C2294 H2279 0.960 . S
C2294 H2280 0.960 . S
C2294 H2281 0.960 . S
C2294 C2293 1.524 . S
C2295 C2292 1.403 . S
C2295 C2296 1.392 . S
C2295 C2299 1.495 . S
C2296 C2295 1.392 . S
C2296 C2297 1.385 . S
C2296 C2298 1.478 . S
C2297 H2291 0.930 . S
C2297 C2293 1.400 . S
C2297 C2296 1.385 . S
C2298 C2296 1.478 . S
C2298 C2300 1.381 . S
C2298 C2304 1.383 . S
C2299 C2295 1.495 . S
C2299 H2305 0.959 . S
C2299 H2306 0.961 . S
C2299 H2307 0.960 . S
C2300 C2298 1.381 . S
C2300 C2301 1.394 . S
C2300 H2308 0.930 . S
C2301 C2300 1.394 . S
C2301 C2302 1.383 . S
C2301 H2309 0.929 . S
C2302 C2301 1.383 . S
C2302 C2303 1.377 . S
C2303 H2287 0.930 . S
C2303 C2302 1.377 . S
C2303 C2304 1.379 . S
C2304 H2288 0.931 . S
C2304 C2298 1.383 . S
C2304 C2303 1.379 . S
H2305 C2299 0.959 . S
H2306 C2299 0.961 . S
H2307 C2299 0.960 . S
H2308 C2300 0.930 . S
H2309 C2301 0.929 . S
H2310 C2318 0.929 . S
H2311 C2320 0.930 . S
H2312 C2322 0.930 . S
H2313 C2325 0.929 . S
H2314 C2328 0.930 . S
H2315 C2330 0.960 . S
H2316 C2330 0.960 . S
H2317 C2330 0.960 . S
C2318 H2310 0.929 . S
C2318 C2319 1.377 . S
C2318 C2320 1.384 . S
C2319 C2318 1.377 . S
C2319 C2325 1.390 . S
C2320 H2311 0.930 . S
C2320 C2318 1.384 . S
C2320 C2321 1.372 . S
C2321 C2320 1.372 . S
C2321 C2322 1.400 . S
C2321 C2326 1.490 . S
C2322 H2312 0.930 . S
C2322 C2321 1.400 . S
C2322 C2325 1.386 . S
H2323 C2339 0.930 . S
H2324 C2340 0.931 . S
C2325 H2313 0.929 . S
C2325 C2319 1.390 . S
C2325 C2322 1.386 . S
C2326 C2321 1.490 . S
C2326 C2328 1.395 . S
C2326 C2329 1.403 . S
H2327 C2333 0.930 . S
C2328 H2314 0.930 . S
C2328 C2326 1.395 . S
C2328 C2331 1.403 . S
C2329 C2326 1.403 . S
C2329 C2330 1.524 . S
C2329 C2333 1.400 . S
C2330 H2315 0.960 . S
C2330 H2316 0.960 . S
C2330 H2317 0.960 . S
C2330 C2329 1.524 . S
C2331 C2328 1.403 . S
C2331 C2332 1.392 . S
C2331 C2335 1.495 . S
C2332 C2331 1.392 . S
C2332 C2333 1.385 . S
C2332 C2334 1.478 . S
C2333 H2327 0.930 . S
C2333 C2329 1.400 . S
C2333 C2332 1.385 . S
C2334 C2332 1.478 . S
C2334 C2336 1.381 . S
C2334 C2340 1.383 . S
C2335 C2331 1.495 . S
C2335 H2341 0.959 . S
C2335 H2342 0.961 . S
C2335 H2343 0.960 . S
C2336 C2334 1.381 . S
C2336 C2337 1.394 . S
C2336 H2344 0.930 . S
C2337 C2336 1.394 . S
C2337 C2338 1.383 . S
C2337 H2345 0.929 . S
C2338 C2337 1.383 . S
C2338 C2339 1.377 . S
C2339 H2323 0.930 . S
C2339 C2338 1.377 . S
C2339 C2340 1.379 . S
C2340 H2324 0.931 . S
C2340 C2334 1.383 . S
C2340 C2339 1.379 . S
H2341 C2335 0.959 . S
H2342 C2335 0.961 . S
H2343 C2335 0.960 . S
H2344 C2336 0.930 . S
H2345 C2337 0.929 . S
H2346 C2354 0.929 . S
H2347 C2356 0.930 . S
H2348 C2358 0.930 . S
H2349 C2361 0.929 . S
H2350 C2364 0.930 . S
H2351 C2366 0.960 . S
H2352 C2366 0.960 . S
H2353 C2366 0.960 . S
C2354 H2346 0.929 . S
C2354 C2355 1.377 . S
C2354 C2356 1.384 . S
C2355 C2354 1.377 . S
C2355 C2361 1.390 . S
C2356 H2347 0.930 . S
C2356 C2354 1.384 . S
C2356 C2357 1.372 . S
C2357 C2356 1.372 . S
C2357 C2358 1.400 . S
C2357 C2362 1.490 . S
C2358 H2348 0.930 . S
C2358 C2357 1.400 . S
C2358 C2361 1.386 . S
H2359 C2375 0.930 . S
H2360 C2376 0.931 . S
C2361 H2349 0.929 . S
C2361 C2355 1.390 . S
C2361 C2358 1.386 . S
C2362 C2357 1.490 . S
C2362 C2364 1.395 . S
C2362 C2365 1.403 . S
H2363 C2369 0.930 . S
C2364 H2350 0.930 . S
C2364 C2362 1.395 . S
C2364 C2367 1.403 . S
C2365 C2362 1.403 . S
C2365 C2366 1.524 . S
C2365 C2369 1.400 . S
C2366 H2351 0.960 . S
C2366 H2352 0.960 . S
C2366 H2353 0.960 . S
C2366 C2365 1.524 . S
C2367 C2364 1.403 . S
C2367 C2368 1.392 . S
C2367 C2371 1.495 . S
C2368 C2367 1.392 . S
C2368 C2369 1.385 . S
C2368 C2370 1.478 . S
C2369 H2363 0.930 . S
C2369 C2365 1.400 . S
C2369 C2368 1.385 . S
C2370 C2368 1.478 . S
C2370 C2372 1.381 . S
C2370 C2376 1.383 . S
C2371 C2367 1.495 . S
C2371 H2377 0.959 . S
C2371 H2378 0.961 . S
C2371 H2379 0.960 . S
C2372 C2370 1.381 . S
C2372 C2373 1.394 . S
C2372 H2380 0.930 . S
C2373 C2372 1.394 . S
C2373 C2374 1.383 . S
C2373 H2381 0.929 . S
C2374 C2373 1.383 . S
C2374 C2375 1.377 . S
C2375 H2359 0.930 . S
C2375 C2374 1.377 . S
C2375 C2376 1.379 . S
C2376 H2360 0.931 . S
C2376 C2370 1.383 . S
C2376 C2375 1.379 . S
H2377 C2371 0.959 . S
H2378 C2371 0.961 . S
H2379 C2371 0.960 . S
H2380 C2372 0.930 . S
H2381 C2373 0.929 . S
H2382 C2390 0.929 . S
H2383 C2392 0.930 . S
H2384 C2394 0.930 . S
H2385 C2397 0.929 . S
H2386 C2400 0.930 . S
H2387 C2402 0.960 . S
H2388 C2402 0.960 . S
H2389 C2402 0.960 . S
C2390 H2382 0.929 . S
C2390 C2391 1.377 . S
C2390 C2392 1.384 . S
C2391 C2390 1.377 . S
C2391 C2397 1.390 . S
C2392 H2383 0.930 . S
C2392 C2390 1.384 . S
C2392 C2393 1.372 . S
C2393 C2392 1.372 . S
C2393 C2394 1.400 . S
C2393 C2398 1.490 . S
C2394 H2384 0.930 . S
C2394 C2393 1.400 . S
C2394 C2397 1.386 . S
H2395 C2411 0.930 . S
H2396 C2412 0.931 . S
C2397 H2385 0.929 . S
C2397 C2391 1.390 . S
C2397 C2394 1.386 . S
C2398 C2393 1.490 . S
C2398 C2400 1.395 . S
C2398 C2401 1.403 . S
H2399 C2405 0.930 . S
C2400 H2386 0.930 . S
C2400 C2398 1.395 . S
C2400 C2403 1.403 . S
C2401 C2398 1.403 . S
C2401 C2402 1.524 . S
C2401 C2405 1.400 . S
C2402 H2387 0.960 . S
C2402 H2388 0.960 . S
C2402 H2389 0.960 . S
C2402 C2401 1.524 . S
C2403 C2400 1.403 . S
C2403 C2404 1.392 . S
C2403 C2407 1.495 . S
C2404 C2403 1.392 . S
C2404 C2405 1.385 . S
C2404 C2406 1.478 . S
C2405 H2399 0.930 . S
C2405 C2401 1.400 . S
C2405 C2404 1.385 . S
C2406 C2404 1.478 . S
C2406 C2408 1.381 . S
C2406 C2412 1.383 . S
C2407 C2403 1.495 . S
C2407 H2413 0.959 . S
C2407 H2414 0.961 . S
C2407 H2415 0.960 . S
C2408 C2406 1.381 . S
C2408 C2409 1.394 . S
C2408 H2416 0.930 . S
C2409 C2408 1.394 . S
C2409 C2410 1.383 . S
C2409 H2417 0.929 . S
C2410 C2409 1.383 . S
C2410 C2411 1.377 . S
C2411 H2395 0.930 . S
C2411 C2410 1.377 . S
C2411 C2412 1.379 . S
C2412 H2396 0.931 . S
C2412 C2406 1.383 . S
C2412 C2411 1.379 . S
H2413 C2407 0.959 . S
H2414 C2407 0.961 . S
H2415 C2407 0.960 . S
H2416 C2408 0.930 . S
H2417 C2409 0.929 . S
H2418 C2426 0.929 . S
H2419 C2428 0.930 . S
H2420 C2430 0.930 . S
H2421 C2433 0.929 . S
H2422 C2436 0.930 . S
H2423 C2438 0.960 . S
H2424 C2438 0.960 . S
H2425 C2438 0.960 . S
C2426 H2418 0.929 . S
C2426 C2427 1.377 . S
C2426 C2428 1.384 . S
C2427 C2426 1.377 . S
C2427 C2433 1.390 . S
C2428 H2419 0.930 . S
C2428 C2426 1.384 . S
C2428 C2429 1.372 . S
C2429 C2428 1.372 . S
C2429 C2430 1.400 . S
C2429 C2434 1.490 . S
C2430 H2420 0.930 . S
C2430 C2429 1.400 . S
C2430 C2433 1.386 . S
H2431 C2447 0.930 . S
H2432 C2448 0.931 . S
C2433 H2421 0.929 . S
C2433 C2427 1.390 . S
C2433 C2430 1.386 . S
C2434 C2429 1.490 . S
C2434 C2436 1.395 . S
C2434 C2437 1.403 . S
H2435 C2441 0.930 . S
C2436 H2422 0.930 . S
C2436 C2434 1.395 . S
C2436 C2439 1.403 . S
C2437 C2434 1.403 . S
C2437 C2438 1.524 . S
C2437 C2441 1.400 . S
C2438 H2423 0.960 . S
C2438 H2424 0.960 . S
C2438 H2425 0.960 . S
C2438 C2437 1.524 . S
C2439 C2436 1.403 . S
C2439 C2440 1.392 . S
C2439 C2443 1.495 . S
C2440 C2439 1.392 . S
C2440 C2441 1.385 . S
C2440 C2442 1.478 . S
C2441 H2435 0.930 . S
C2441 C2437 1.400 . S
C2441 C2440 1.385 . S
C2442 C2440 1.478 . S
C2442 C2444 1.381 . S
C2442 C2448 1.383 . S
C2443 C2439 1.495 . S
C2443 H2449 0.959 . S
C2443 H2450 0.961 . S
C2443 H2451 0.960 . S
C2444 C2442 1.381 . S
C2444 C2445 1.394 . S
C2444 H2452 0.930 . S
C2445 C2444 1.394 . S
C2445 C2446 1.383 . S
C2445 H2453 0.929 . S
C2446 C2445 1.383 . S
C2446 C2447 1.377 . S
C2447 H2431 0.930 . S
C2447 C2446 1.377 . S
C2447 C2448 1.379 . S
C2448 H2432 0.931 . S
C2448 C2442 1.383 . S
C2448 C2447 1.379 . S
H2449 C2443 0.959 . S
H2450 C2443 0.961 . S
H2451 C2443 0.960 . S
H2452 C2444 0.930 . S
H2453 C2445 0.929 . S
H2454 C2462 0.929 . S
H2455 C2464 0.930 . S
H2456 C2466 0.930 . S
H2457 C2469 0.929 . S
H2458 C2472 0.930 . S
H2459 C2474 0.960 . S
H2460 C2474 0.960 . S
H2461 C2474 0.960 . S
C2462 H2454 0.929 . S
C2462 C2463 1.377 . S
C2462 C2464 1.384 . S
C2463 C2462 1.377 . S
C2463 C2469 1.390 . S
C2464 H2455 0.930 . S
C2464 C2462 1.384 . S
C2464 C2465 1.372 . S
C2465 C2464 1.372 . S
C2465 C2466 1.400 . S
C2465 C2470 1.490 . S
C2466 H2456 0.930 . S
C2466 C2465 1.400 . S
C2466 C2469 1.386 . S
H2467 C2483 0.930 . S
H2468 C2484 0.931 . S
C2469 H2457 0.929 . S
C2469 C2463 1.390 . S
C2469 C2466 1.386 . S
C2470 C2465 1.490 . S
C2470 C2472 1.395 . S
C2470 C2473 1.403 . S
H2471 C2477 0.930 . S
C2472 H2458 0.930 . S
C2472 C2470 1.395 . S
C2472 C2475 1.403 . S
C2473 C2470 1.403 . S
C2473 C2474 1.524 . S
C2473 C2477 1.400 . S
C2474 H2459 0.960 . S
C2474 H2460 0.960 . S
C2474 H2461 0.960 . S
C2474 C2473 1.524 . S
C2475 C2472 1.403 . S
C2475 C2476 1.392 . S
C2475 C2479 1.495 . S
C2476 C2475 1.392 . S
C2476 C2477 1.385 . S
C2476 C2478 1.478 . S
C2477 H2471 0.930 . S
C2477 C2473 1.400 . S
C2477 C2476 1.385 . S
C2478 C2476 1.478 . S
C2478 C2480 1.381 . S
C2478 C2484 1.383 . S
C2479 C2475 1.495 . S
C2479 H2485 0.959 . S
C2479 H2486 0.961 . S
C2479 H2487 0.960 . S
C2480 C2478 1.381 . S
C2480 C2481 1.394 . S
C2480 H2488 0.930 . S
C2481 C2480 1.394 . S
C2481 C2482 1.383 . S
C2481 H2489 0.929 . S
C2482 C2481 1.383 . S
C2482 C2483 1.377 . S
C2483 H2467 0.930 . S
C2483 C2482 1.377 . S
C2483 C2484 1.379 . S
C2484 H2468 0.931 . S
C2484 C2478 1.383 . S
C2484 C2483 1.379 . S
H2485 C2479 0.959 . S
H2486 C2479 0.961 . S
H2487 C2479 0.960 . S
H2488 C2480 0.930 . S
H2489 C2481 0.929 . S
H2490 C2498 0.929 . S
H2491 C2500 0.930 . S
H2492 C2502 0.930 . S
H2493 C2505 0.929 . S
H2494 C2508 0.930 . S
H2495 C2510 0.960 . S
H2496 C2510 0.960 . S
H2497 C2510 0.960 . S
C2498 H2490 0.929 . S
C2498 C2499 1.377 . S
C2498 C2500 1.384 . S
C2499 C2498 1.377 . S
C2499 C2505 1.390 . S
C2500 H2491 0.930 . S
C2500 C2498 1.384 . S
C2500 C2501 1.372 . S
C2501 C2500 1.372 . S
C2501 C2502 1.400 . S
C2501 C2506 1.490 . S
C2502 H2492 0.930 . S
C2502 C2501 1.400 . S
C2502 C2505 1.386 . S
H2503 C2519 0.930 . S
H2504 C2520 0.931 . S
C2505 H2493 0.929 . S
C2505 C2499 1.390 . S
C2505 C2502 1.386 . S
C2506 C2501 1.490 . S
C2506 C2508 1.395 . S
C2506 C2509 1.403 . S
H2507 C2513 0.930 . S
C2508 H2494 0.930 . S
C2508 C2506 1.395 . S
C2508 C2511 1.403 . S
C2509 C2506 1.403 . S
C2509 C2510 1.524 . S
C2509 C2513 1.400 . S
C2510 H2495 0.960 . S
C2510 H2496 0.960 . S
C2510 H2497 0.960 . S
C2510 C2509 1.524 . S
C2511 C2508 1.403 . S
C2511 C2512 1.392 . S
C2511 C2515 1.495 . S
C2512 C2511 1.392 . S
C2512 C2513 1.385 . S
C2512 C2514 1.478 . S
C2513 H2507 0.930 . S
C2513 C2509 1.400 . S
C2513 C2512 1.385 . S
C2514 C2512 1.478 . S
C2514 C2516 1.381 . S
C2514 C2520 1.383 . S
C2515 C2511 1.495 . S
C2515 H2521 0.959 . S
C2515 H2522 0.961 . S
C2515 H2523 0.960 . S
C2516 C2514 1.381 . S
C2516 C2517 1.394 . S
C2516 H2524 0.930 . S
C2517 C2516 1.394 . S
C2517 C2518 1.383 . S
C2517 H2525 0.929 . S
C2518 C2517 1.383 . S
C2518 C2519 1.377 . S
C2519 H2503 0.930 . S
C2519 C2518 1.377 . S
C2519 C2520 1.379 . S
C2520 H2504 0.931 . S
C2520 C2514 1.383 . S
C2520 C2519 1.379 . S
H2521 C2515 0.959 . S
H2522 C2515 0.961 . S
H2523 C2515 0.960 . S
H2524 C2516 0.930 . S
H2525 C2517 0.929 . S
H2526 C2534 0.929 . S
H2527 C2536 0.930 . S
H2528 C2538 0.930 . S
H2529 C2541 0.929 . S
H2530 C2544 0.930 . S
H2531 C2546 0.960 . S
H2532 C2546 0.960 . S
H2533 C2546 0.960 . S
C2534 H2526 0.929 . S
C2534 C2535 1.377 . S
C2534 C2536 1.384 . S
C2535 C2534 1.377 . S
C2535 C2541 1.390 . S
C2536 H2527 0.930 . S
C2536 C2534 1.384 . S
C2536 C2537 1.372 . S
C2537 C2536 1.372 . S
C2537 C2538 1.400 . S
C2537 C2542 1.490 . S
C2538 H2528 0.930 . S
C2538 C2537 1.400 . S
C2538 C2541 1.386 . S
H2539 C2555 0.930 . S
H2540 C2556 0.931 . S
C2541 H2529 0.929 . S
C2541 C2535 1.390 . S
C2541 C2538 1.386 . S
C2542 C2537 1.490 . S
C2542 C2544 1.395 . S
C2542 C2545 1.403 . S
H2543 C2549 0.930 . S
C2544 H2530 0.930 . S
C2544 C2542 1.395 . S
C2544 C2547 1.403 . S
C2545 C2542 1.403 . S
C2545 C2546 1.524 . S
C2545 C2549 1.400 . S
C2546 H2531 0.960 . S
C2546 H2532 0.960 . S
C2546 H2533 0.960 . S
C2546 C2545 1.524 . S
C2547 C2544 1.403 . S
C2547 C2548 1.392 . S
C2547 C2551 1.495 . S
C2548 C2547 1.392 . S
C2548 C2549 1.385 . S
C2548 C2550 1.478 . S
C2549 H2543 0.930 . S
C2549 C2545 1.400 . S
C2549 C2548 1.385 . S
C2550 C2548 1.478 . S
C2550 C2552 1.381 . S
C2550 C2556 1.383 . S
C2551 C2547 1.495 . S
C2551 H2557 0.959 . S
C2551 H2558 0.961 . S
C2551 H2559 0.960 . S
C2552 C2550 1.381 . S
C2552 C2553 1.394 . S
C2552 H2560 0.930 . S
C2553 C2552 1.394 . S
C2553 C2554 1.383 . S
C2553 H2561 0.929 . S
C2554 C2553 1.383 . S
C2554 C2555 1.377 . S
C2555 H2539 0.930 . S
C2555 C2554 1.377 . S
C2555 C2556 1.379 . S
C2556 H2540 0.931 . S
C2556 C2550 1.383 . S
C2556 C2555 1.379 . S
H2557 C2551 0.959 . S
H2558 C2551 0.961 . S
H2559 C2551 0.960 . S
H2560 C2552 0.930 . S
H2561 C2553 0.929 . S
H2562 C2570 0.929 . S
H2563 C2572 0.930 . S
H2564 C2574 0.930 . S
H2565 C2577 0.929 . S
H2566 C2580 0.930 . S
H2567 C2582 0.960 . S
H2568 C2582 0.960 . S
H2569 C2582 0.960 . S
C2570 H2562 0.929 . S
C2570 C2571 1.377 . S
C2570 C2572 1.384 . S
C2571 C2570 1.377 . S
C2571 C2577 1.390 . S
C2572 H2563 0.930 . S
C2572 C2570 1.384 . S
C2572 C2573 1.372 . S
C2573 C2572 1.372 . S
C2573 C2574 1.400 . S
C2573 C2578 1.490 . S
C2574 H2564 0.930 . S
C2574 C2573 1.400 . S
C2574 C2577 1.386 . S
H2575 C2591 0.930 . S
H2576 C2592 0.931 . S
C2577 H2565 0.929 . S
C2577 C2571 1.390 . S
C2577 C2574 1.386 . S
C2578 C2573 1.490 . S
C2578 C2580 1.395 . S
C2578 C2581 1.403 . S
H2579 C2585 0.930 . S
C2580 H2566 0.930 . S
C2580 C2578 1.395 . S
C2580 C2583 1.403 . S
C2581 C2578 1.403 . S
C2581 C2582 1.524 . S
C2581 C2585 1.400 . S
C2582 H2567 0.960 . S
C2582 H2568 0.960 . S
C2582 H2569 0.960 . S
C2582 C2581 1.524 . S
C2583 C2580 1.403 . S
C2583 C2584 1.392 . S
C2583 C2587 1.495 . S
C2584 C2583 1.392 . S
C2584 C2585 1.385 . S
C2584 C2586 1.478 . S
C2585 H2579 0.930 . S
C2585 C2581 1.400 . S
C2585 C2584 1.385 . S
C2586 C2584 1.478 . S
C2586 C2588 1.381 . S
C2586 C2592 1.383 . S
C2587 C2583 1.495 . S
C2587 H2593 0.959 . S
C2587 H2594 0.961 . S
C2587 H2595 0.960 . S
C2588 C2586 1.381 . S
C2588 C2589 1.394 . S
C2588 H2596 0.930 . S
C2589 C2588 1.394 . S
C2589 C2590 1.383 . S
C2589 H2597 0.929 . S
C2590 C2589 1.383 . S
C2590 C2591 1.377 . S
C2591 H2575 0.930 . S
C2591 C2590 1.377 . S
C2591 C2592 1.379 . S
C2592 H2576 0.931 . S
C2592 C2586 1.383 . S
C2592 C2591 1.379 . S
H2593 C2587 0.959 . S
H2594 C2587 0.961 . S
H2595 C2587 0.960 . S
H2596 C2588 0.930 . S
H2597 C2589 0.929 . S
C898 C699 1.319 . S
C879 C56 1.369 . S
C934 C700 1.713 . S
C915 C154 1.643 . S
C970 C694 1.488 . S
C951 C236 1.479 . S
C987 C310 0.900 . S
C1006 C693 0.402 . S
C1023 C394 1.644 . S
C1042 C696 1.707 . S
C1078 C698 1.447 . S
C1059 C476 1.479 . S
C1095 C574 0.887 . S
C1114 C697 0.398 . S
C1131 C656 1.370 . S
C1150 C695 1.245 . S
C1186 C730 2.630 . S
C1167 C67 2.633 . S
C1203 C139 1.557 . S
C1222 C761 1.411 . S
C1258 C729 1.401 . S
C1239 C238 1.333 . S
C1294 C764 1.239 . S
C1275 C308 1.204 . S
C1311 C392 1.545 . S
C1330 C727 1.565 . S
C1366 C759 2.640 . S
C1347 C487 2.657 . S
C1383 C559 1.237 . S
C1402 C732 1.148 . S
C1419 C658 1.302 . S
C1438 C766 1.377 . S
C1455 C58 1.291 . S
C1474 C762 1.366 . S
C1491 C403 1.555 . S
C1510 C765 1.455 . S
C1546 C733 1.412 . S
C1527 C478 1.323 . S
C1582 C760 1.238 . S
C1563 C572 1.220 . S
C1599 C643 2.636 . S
C1618 C726 2.626 . S
C1635 C223 2.656 . S
C1654 C763 2.649 . S
C1690 C728 1.132 . S
C1671 C319 1.233 . S
C1707 C152 1.552 . S
C1726 C731 1.560 . S
C1743 C644 1.422 . S
C1762 C798 1.373 . S
C1779 C406 1.229 . S
C1798 C799 1.233 . S
C1834 C793 1.319 . S
C1815 C488 1.304 . S
C1870 C792 0.371 . S
C1851 C562 0.683 . S
C1887 C142 1.231 . S
C1906 C795 1.283 . S
C1942 C797 1.304 . S
C1923 C224 1.307 . S
C1959 C322 0.663 . S
C1978 C796 0.358 . S
C1995 C68 1.424 . S
C2014 C794 1.291 . S
C2031 C655 2.848 . S
C2050 C832 2.768 . S
C2086 C864 1.175 . S
C2067 C391 1.283 . S
C2103 C490 1.203 . S
C2122 C825 1.366 . S
C2139 C560 1.561 . S
C2158 C859 1.576 . S
C2194 C830 1.268 . S
C2175 C140 1.228 . S
C2211 C235 2.860 . S
C2230 C861 2.774 . S
C2266 C827 1.556 . S
C2247 C307 1.647 . S
C2302 C862 1.351 . S
C2283 C70 1.252 . S
C2338 C858 1.351 . S
C2319 C646 1.237 . S
C2355 C151 1.280 . S
C2374 C860 1.235 . S
C2391 C226 1.200 . S
C2410 C829 1.350 . S
C2446 C863 1.538 . S
C2427 C320 1.555 . S
C2463 C55 2.850 . S
C2482 C828 2.749 . S
C2499 C475 2.860 . S
C2518 C865 2.763 . S
C2554 C831 1.573 . S
C2535 C571 1.644 . S
C2590 C826 1.267 . S
C2571 C404 1.223 . S
