# Generated by pormake.
# Topology ssa, (4,4)-cn, num edge types: 1
# Building blocks:
#     Node 0, Type 0, BuildingBlock: NAWXER_clean_sbu_0, # of connection points: 4
#     Node 1, Type 0, BuildingBlock: NAWXER_clean_sbu_0, # of connection points: 4
#     Node 2, Type 0, BuildingBlock: NAWXER_clean_sbu_0, # of connection points: 4
#     Node 3, Type 0, BuildingBlock: NAWXER_clean_sbu_0, # of connection points: 4
#     Node 4, Type 0, BuildingBlock: NAWXER_clean_sbu_0, # of connection points: 4
#     Node 5, Type 0, BuildingBlock: NAWXER_clean_sbu_0, # of connection points: 4
#     Node 6, Type 1, BuildingBlock: MUDLON_clean_sbu_0, # of connection points: 4
#     Node 7, Type 1, BuildingBlock: MUDLON_clean_sbu_0, # of connection points: 4
#     Node 8, Type 1, BuildingBlock: MUDLON_clean_sbu_0, # of connection points: 4
#     Node 9, Type 1, BuildingBlock: MUDLON_clean_sbu_0, # of connection points: 4
#     Node 10, Type 1, BuildingBlock: MUDLON_clean_sbu_0, # of connection points: 4
#     Node 11, Type 1, BuildingBlock: MUDLON_clean_sbu_0, # of connection points: 4
#     Edge 12, Type (0, 1), BuildingBlock: OJICUG_clean_linker_0, # of connection points: 2
#     Edge 13, Type (0, 1), BuildingBlock: OJICUG_clean_linker_0, # of connection points: 2
#     Edge 14, Type (0, 1), BuildingBlock: OJICUG_clean_linker_0, # of connection points: 2
#     Edge 15, Type (0, 1), BuildingBlock: OJICUG_clean_linker_0, # of connection points: 2
#     Edge 16, Type (0, 1), BuildingBlock: OJICUG_clean_linker_0, # of connection points: 2
#     Edge 17, Type (0, 1), BuildingBlock: OJICUG_clean_linker_0, # of connection points: 2
#     Edge 18, Type (0, 1), BuildingBlock: OJICUG_clean_linker_0, # of connection points: 2
#     Edge 19, Type (0, 1), BuildingBlock: OJICUG_clean_linker_0, # of connection points: 2
#     Edge 20, Type (0, 1), BuildingBlock: OJICUG_clean_linker_0, # of connection points: 2
#     Edge 21, Type (0, 1), BuildingBlock: OJICUG_clean_linker_0, # of connection points: 2
#     Edge 22, Type (0, 1), BuildingBlock: OJICUG_clean_linker_0, # of connection points: 2
#     Edge 23, Type (0, 1), BuildingBlock: OJICUG_clean_linker_0, # of connection points: 2
#     Edge 24, Type (0, 1), BuildingBlock: OJICUG_clean_linker_0, # of connection points: 2
#     Edge 25, Type (0, 1), BuildingBlock: OJICUG_clean_linker_0, # of connection points: 2
#     Edge 26, Type (0, 1), BuildingBlock: OJICUG_clean_linker_0, # of connection points: 2
#     Edge 27, Type (0, 1), BuildingBlock: OJICUG_clean_linker_0, # of connection points: 2
#     Edge 28, Type (0, 1), BuildingBlock: OJICUG_clean_linker_0, # of connection points: 2
#     Edge 29, Type (0, 1), BuildingBlock: OJICUG_clean_linker_0, # of connection points: 2
#     Edge 30, Type (0, 1), BuildingBlock: OJICUG_clean_linker_0, # of connection points: 2
#     Edge 31, Type (0, 1), BuildingBlock: OJICUG_clean_linker_0, # of connection points: 2
#     Edge 32, Type (0, 1), BuildingBlock: OJICUG_clean_linker_0, # of connection points: 2
#     Edge 33, Type (0, 1), BuildingBlock: OJICUG_clean_linker_0, # of connection points: 2
#     Edge 34, Type (0, 1), BuildingBlock: OJICUG_clean_linker_0, # of connection points: 2
#     Edge 35, Type (0, 1), BuildingBlock: OJICUG_clean_linker_0, # of connection points: 2
# Relax obj value: 0.034
# Max RMSD: 0.048
# Mean RMSD: 0.037
data_MOF--net-ssa--node1-NAWXER_clean_sbu_0--node2-MUDLON_clean_sbu_0--edge1-OJICUG_clean_linker_0
_symmetry_space_group_name_H-M    P1
_symmetry_Int_Tables_number       1
_symmetry_cell_setting            triclinic
loop_
_symmetry_equiv_pos_as_xyz
'x, y, z'
_cell_length_a     30.935277
_cell_length_b     30.671505
_cell_length_c     28.01983
_cell_angle_alpha  89.381947
_cell_angle_beta   90.159866
_cell_angle_gamma 120.18285
loop_
_atom_site_label
_atom_site_type_symbol
_atom_site_fract_x
_atom_site_fract_y
_atom_site_fract_z
_atom_type_partial_charge
C0 C 0.07155 0.57541 0.11008 0.0
C1 C 0.96103 0.42145 1.01756 0.0
O2 O 0.02613 0.5437 0.12045 0.0
Zn3 Zn 1.01205 0.49622 0.06748 0.0
O4 O 0.09111 0.5682 0.07296 0.0
Zn5 Zn 0.07322 0.51548 1.01727 0.0
O6 O 0.07623 0.55401 0.95925 0.0
O7 O 1.01305 0.53775 1.00676 0.0
O8 O 1.00594 0.44802 1.00235 0.0
O9 O 0.94764 0.43479 0.05518 0.0
O10 O 0.05825 0.46616 0.085 0.0
O11 O 0.1186 0.49005 0.0316 0.0
C12 C 0.03701 0.55646 0.96781 0.0
C13 C 0.09704 0.4659 0.06976 0.0
C14 C 0.50707 0.01401 0.63327 0.0
C15 C 0.52212 0.89758 0.52513 0.0
O16 O 0.49072 0.96734 0.64158 0.0
Zn17 Zn 0.51398 0.95322 0.58173 0.0
O18 O 0.5274 0.03309 0.59294 0.0
Zn19 Zn 0.54971 1.01325 0.52952 0.0
O20 O 0.5088 0.02104 0.48087 0.0
O21 O 0.46498 0.95531 0.52834 0.0
O22 O 0.54005 0.94256 0.50881 0.0
O23 O 0.50624 0.8872 0.56799 0.0
O24 O 0.59256 1.0014 0.59126 0.0
O25 O 0.62207 0.05902 0.534 0.0
C26 C 0.46739 0.98176 0.49161 0.0
C27 C 0.62923 0.04086 0.57235 0.0
C28 C 0.52131 0.42501 1.00133 0.0
C29 C 0.58662 0.56127 0.11677 0.0
O30 O 0.51875 0.46331 0.98605 0.0
Zn31 Zn 0.5383 0.537 1.01196 0.0
O32 O 0.53784 0.42588 0.04305 0.0
Zn33 Zn 0.55425 0.49297 0.0612 0.0
O34 O 0.48508 0.49025 0.0742 0.0
O35 O 0.47656 0.53968 1.02198 0.0
O36 O 0.58318 0.51849 0.12351 0.0
O37 O 0.57255 0.57163 0.07747 0.0
O38 O 0.59008 0.58293 0.96728 0.0
O39 O 0.61505 0.54216 1.01494 0.0
C40 C 0.46109 0.51156 0.05908 0.0
C41 C 0.62449 0.57467 0.9815 0.0
C42 C 1.01138 0.63977 0.44833 0.0
C43 C 0.95849 0.50208 0.56483 0.0
O44 O 0.04456 0.64736 0.47977 0.0
Zn45 Zn 0.05597 0.60869 0.5384 0.0
O46 O 0.97124 0.59717 0.44633 0.0
Zn47 Zn 0.98666 0.56792 0.50127 0.0
O48 O 0.99004 0.6188 0.55544 0.0
O49 O 0.06465 0.65558 0.58926 0.0
O50 O 0.93564 0.50304 0.52744 0.0
O51 O 1.00342 0.53804 0.57186 0.0
O52 O 0.11289 0.60312 0.51549 0.0
O53 O 0.04561 0.55813 0.47222 0.0
C54 C 0.02108 0.65004 0.58564 0.0
C55 C 0.09219 0.57457 0.48002 0.0
C56 C 0.5133 0.94122 0.05896 0.0
C57 C 0.42853 1.00482 0.9518 0.0
O58 O 0.52107 0.98492 0.07067 0.0
Zn59 Zn 0.50148 0.03887 0.04373 0.0
O60 O 0.48885 0.92126 1.02101 0.0
Zn61 Zn 0.47294 0.97272 1.00016 0.0
O62 O 0.54149 0.03455 0.97527 0.0
O63 O 0.56344 0.09896 1.02315 0.0
O64 O 0.42984 0.96446 0.94471 0.0
O65 O 0.45358 0.03377 0.98615 0.0
O66 O 0.46116 0.04118 0.09602 0.0
O67 O 0.42436 0.97007 0.05547 0.0
C68 C 0.57138 0.08071 0.98586 0.0
C69 C 0.42306 0.99794 0.08848 0.0
C70 C 0.6107 0.55283 0.61343 0.0
C71 C 0.46637 0.50849 0.51011 0.0
O72 O 0.57453 0.56046 0.62105 0.0
Zn73 Zn 0.53855 0.53284 0.56221 0.0
O74 O 0.61265 0.53307 0.574 0.0
Zn75 Zn 0.56814 0.50365 0.511 0.0
O76 O 0.61127 0.54857 0.46022 0.0
O77 O 0.58466 0.58629 0.50858 0.0
O78 O 0.49771 0.49731 0.49236 0.0
O79 O 0.47512 0.52943 0.55073 0.0
O80 O 0.51559 0.455 0.57138 0.0
O81 O 0.55046 0.43277 0.51542 0.0
C82 C 0.60974 0.58786 0.47162 0.0
C83 C 0.52238 0.42125 0.55208 0.0
Mg84 Mg 0.28056 0.51678 0.28973 0.0
C85 C 0.18653 0.42794 0.22806 0.0
O86 O 0.16518 0.39207 0.26051 0.0
C87 C 0.31432 0.50218 0.38605 0.0
O88 O 0.29794 0.53304 0.39623 0.0
C89 C 0.20294 0.52585 0.34325 0.0
O90 O 0.18134 0.47844 0.33034 0.0
O91 O 0.24764 0.55582 0.32891 0.0
O92 O 0.22447 0.46993 0.23835 0.0
O93 O 0.33911 0.54749 0.23375 0.0
C94 C 0.33996 0.5094 0.2166 0.0
O95 O 0.3129 0.46562 0.23829 0.0
O96 O 0.30825 0.48488 0.34386 0.0
Mg97 Mg 0.7916 0.26282 0.77139 0.0
C98 C 0.76171 0.16126 0.71904 0.0
O99 O 0.74899 0.13977 0.76139 0.0
C100 C 0.83399 0.30847 0.86285 0.0
O101 O 0.79471 0.31359 0.85623 0.0
C102 C 0.72307 0.19577 0.84422 0.0
O103 O 0.76232 0.18994 0.84514 0.0
O104 O 0.7219 0.22631 0.81358 0.0
O105 O 0.78366 0.20912 0.71572 0.0
O106 O 0.81496 0.33004 0.726 0.0
C107 C 0.86108 0.35053 0.7145 0.0
O108 O 0.88773 0.33262 0.73402 0.0
O109 O 0.84603 0.28792 0.82997 0.0
Mg110 Mg 0.56876 0.77565 0.2843 0.0
C111 C 0.5508 0.8199 0.196 0.0
O112 O 0.51778 0.77152 0.19436 0.0
C113 C 0.60956 0.72154 0.33734 0.0
O114 O 0.56513 0.6873 0.32251 0.0
C115 C 0.51783 0.7637 0.3814 0.0
O116 O 0.53723 0.73544 0.39211 0.0
O117 O 0.51903 0.77784 0.33818 0.0
O118 O 0.58153 0.83576 0.231 0.0
O119 O 0.54702 0.71052 0.24012 0.0
C120 C 0.58662 0.71724 0.21958 0.0
O121 O 0.62723 0.76185 0.22215 0.0
O122 O 0.6249 0.76809 0.32805 0.0
Mg123 Mg 0.86297 0.65018 0.79991 0.0
C124 C 0.75884 0.59264 0.75934 0.0
O125 O 0.7484 0.59664 0.80386 0.0
C126 C 0.93453 0.61282 0.82828 0.0
O127 O 0.95605 0.63453 0.78769 0.0
C128 C 0.8179 0.65637 0.89181 0.0
O129 O 0.84357 0.63521 0.9062 0.0
O130 O 0.82563 0.675 0.84981 0.0
O131 O 0.80389 0.60664 0.74808 0.0
O132 O 0.9271 0.70531 0.75888 0.0
C133 C 0.92015 0.71056 0.71502 0.0
O134 O 0.87479 0.69832 0.70134 0.0
O135 O 0.89325 0.60989 0.83974 0.0
Mg136 Mg 0.21545 0.83549 0.29692 0.0
C137 C 0.19922 0.75285 0.22329 0.0
O138 O 0.24107 0.78853 0.2042 0.0
C139 C 0.30051 0.90238 0.35961 0.0
O140 O 0.29184 0.93403 0.3353 0.0
C141 C 0.10787 0.79658 0.31361 0.0
O142 O 0.10614 0.78383 0.26873 0.0
O143 O 0.14992 0.82908 0.33081 0.0
O144 O 0.18414 0.76143 0.26237 0.0
O145 O 0.25405 0.89682 0.24638 0.0
C146 C 0.24547 0.89612 0.2021 0.0
O147 O 0.20486 0.85785 0.18446 0.0
O148 O 0.27278 0.85515 0.3522 0.0
Mg149 Mg 0.45184 0.20777 0.77347 0.0
C150 C 0.50796 0.15223 0.77231 0.0
O151 O 0.48535 0.13494 0.81351 0.0
C152 C 0.48325 0.26229 0.87238 0.0
O153 O 0.48839 0.2242 0.88665 0.0
C154 C 0.37613 0.12347 0.83691 0.0
O155 O 0.37826 0.16133 0.86044 0.0
O156 O 0.3938 0.13184 0.79479 0.0
O157 O 0.51024 0.19175 0.75468 0.0
O158 O 0.43999 0.24143 0.70904 0.0
C159 C 0.46403 0.24587 0.67066 0.0
O160 O 0.49012 0.22297 0.66776 0.0
O161 O 0.47013 0.26368 0.82955 0.0
C162 C 0.17134 0.46491 0.10349 0.0
C163 C 0.11934 0.44371 0.10145 0.0
H164 H 0.23358 0.47576 0.14584 0.0
C165 C 0.08938 0.40823 0.13673 0.0
H166 H 0.19533 0.49224 0.07688 0.0
C167 C 0.11119 0.39858 0.17621 0.0
C168 C 0.16328 0.4247 0.18114 0.0
H169 H 0.04903 0.39086 0.13573 0.0
H170 H 0.08732 0.37442 0.20474 0.0
C171 C 0.19315 0.45566 0.14319 0.0
C172 C 0.705 0.1227 0.59567 0.0
C173 C 0.67484 0.07019 0.6018 0.0
H174 H 0.75686 0.19301 0.62792 0.0
C175 C 0.68176 0.04765 0.64294 0.0
H176 H 0.70066 0.14135 0.56452 0.0
C177 C 0.71359 0.07722 0.67948 0.0
C178 C 0.73953 0.1301 0.67572 0.0
H179 H 0.65955 1.00725 0.64869 0.0
H180 H 0.7151 0.05868 0.71204 0.0
C181 C 0.7371 0.15237 0.63227 0.0
C182 C 0.63494 0.64562 0.15052 0.0
C183 C 0.59551 0.59594 0.15555 0.0
H184 H 0.66268 0.72309 0.1665 0.0
C185 C 0.55486 0.58548 0.18524 0.0
H186 H 0.6657 0.65456 0.12639 0.0
C187 C 0.55194 0.62481 0.20675 0.0
C188 C 0.58995 0.67499 0.19911 0.0
H189 H 0.52311 0.54751 0.188 0.0
H190 H 0.51917 0.61607 0.22779 0.0
C191 C 0.63244 0.68482 0.17251 0.0
C192 C 0.0227 0.69276 0.66242 0.0
C193 C 1.00417 0.67772 0.61609 0.0
H194 H 1.0113 0.71686 0.73042 0.0
C195 C 0.96464 0.68428 0.60021 0.0
H196 H 0.05351 0.68868 0.6754 0.0
C197 C 0.94068 0.70051 0.63136 0.0
C198 C 0.95529 0.71 0.67937 0.0
H199 H 0.95034 0.6742 0.56423 0.0
H200 H 0.90826 0.70181 0.61859 0.0
C201 C 0.99842 0.70885 0.69388 0.0
C202 C 0.331 0.94186 0.09541 0.0
C203 C 0.37613 0.97893 0.11578 0.0
H204 H 0.25379 0.88761 0.10628 0.0
C205 C 0.37578 0.9944 0.16258 0.0
H206 H 0.3299 0.92995 0.05894 0.0
C207 C 0.33187 0.96995 0.18985 0.0
C208 C 0.2876 0.93006 0.17051 0.0
H209 H 0.40991 0.02321 0.17893 0.0
H210 H 0.33331 0.98046 0.22686 0.0
C211 C 0.28714 0.91789 0.12237 0.0
C212 C 0.51902 0.33837 0.56671 0.0
C213 C 0.50068 0.37108 0.57588 0.0
H214 H 0.52137 0.27262 0.58926 0.0
C215 C 0.46471 0.35797 0.6122 0.0
H216 H 0.5466 0.34725 0.53894 0.0
C217 C 0.45016 0.31529 0.64095 0.0
C218 C 0.47134 0.28464 0.63425 0.0
H219 H 0.44925 0.38195 0.61987 0.0
H220 H 0.42423 0.30786 0.66999 0.0
C221 C 0.50453 0.2956 0.59566 0.0
C222 C 0.5028 0.86348 0.44333 0.0
C223 C 0.51403 0.85797 0.49089 0.0
H224 H 0.49321 0.83702 0.37187 0.0
C225 C 0.51874 0.81624 0.50365 0.0
H226 H 0.49754 0.8946 0.43272 0.0
C227 C 0.51646 0.78299 0.46835 0.0
C228 C 0.50867 0.79072 0.42007 0.0
H229 H 0.52675 0.81086 0.54019 0.0
H230 H 0.52326 0.7528 0.47856 0.0
C231 C 0.49977 0.83011 0.40844 0.0
C232 C 0.71454 0.59894 0.98357 0.0
C233 C 0.67563 0.60201 0.96067 0.0
H234 H 0.79012 0.61505 0.98062 0.0
C235 C 0.68616 0.62969 0.91771 0.0
H236 H 0.70817 0.57881 1.01719 0.0
C237 C 0.73377 0.65092 0.89664 0.0
C238 C 0.77166 0.64483 0.91821 0.0
H239 H 0.65715 0.63319 0.89942 0.0
H240 H 0.74002 0.66974 0.86231 0.0
C241 C 0.76186 0.62015 0.96273 0.0
C242 C 0.05204 0.73098 0.42951 0.0
C243 C 0.02239 0.68098 0.4143 0.0
H244 H 0.10098 0.80778 0.40914 0.0
C245 C 1.01127 0.67151 0.36567 0.0
H246 H 0.06033 0.73929 0.46704 0.0
C247 C 0.03485 0.71093 0.33224 0.0
C248 C 0.06966 0.7601 0.34727 0.0
H249 H 0.98828 0.63325 0.35319 0.0
H250 H 0.02938 0.70184 0.29466 0.0
C251 C 0.07517 0.77026 0.39633 0.0
C252 C 0.38081 0.04939 0.94221 0.0
C253 C 0.39997 0.0211 0.92129 0.0
H254 H 0.35642 0.10267 0.93178 0.0
C255 C 0.39927 0.01723 0.87141 0.0
H256 H 0.37996 0.05222 0.98068 0.0
C257 C 0.38548 0.04634 0.84303 0.0
C258 C 0.37274 0.07996 0.86429 0.0
H259 H 0.41356 0.99548 0.85439 0.0
H260 H 0.38936 0.04601 0.80466 0.0
C261 C 0.36711 0.07825 0.91408 0.0
C262 C 0.39151 0.51855 0.49664 0.0
C263 C 0.42252 0.50018 0.48139 0.0
H264 H 0.3325 0.53287 0.47873 0.0
C265 C 0.41347 0.47691 0.43652 0.0
H266 H 0.3972 0.53639 0.53105 0.0
C267 C 0.37622 0.47472 0.40649 0.0
C268 C 0.34728 0.4959 0.42059 0.0
H269 H 0.43638 0.46194 0.42375 0.0
H270 H 0.37174 0.45853 0.37139 0.0
C271 C 0.35436 0.51648 0.46657 0.0
C272 C 0.87488 0.37037 0.98374 0.0
C273 C 0.92473 0.38165 0.98551 0.0
H274 H 0.8072 0.33844 0.94335 0.0
C275 C 0.94236 0.36241 0.94972 0.0
H276 H 0.86026 0.38485 1.01047 0.0
C277 C 0.91214 0.33606 0.91096 0.0
C278 C 0.86374 0.32869 0.90707 0.0
H279 H 0.98066 0.37033 0.95018 0.0
H280 H 0.92766 0.32406 0.88285 0.0
C281 C 0.84476 0.34431 0.94483 0.0
C282 C 0.96976 0.57446 0.94407 0.0
C283 C 1.01403 0.57462 0.93194 0.0
H284 H 0.90981 0.58509 0.92117 0.0
C285 C 0.03206 0.58738 0.8849 0.0
H286 H 0.95444 0.56476 0.97986 0.0
C287 C 1.00601 0.59924 0.85085 0.0
C288 C 0.96127 0.59812 0.86313 0.0
H289 H 0.06569 0.58738 0.87424 0.0
H290 H 0.02077 0.60903 0.81487 0.0
C291 C 0.94368 0.58573 0.91019 0.0
C292 C 0.42035 0.99349 0.42391 0.0
C293 C 0.42349 0.96253 0.45934 0.0
H294 H 0.37893 0.99882 0.36505 0.0
C295 C 0.38555 0.91139 0.46188 0.0
H296 H 0.44902 0.03285 0.42076 0.0
C297 C 0.34581 0.89155 0.4294 0.0
C298 C 0.34261 0.92255 0.39408 0.0
H299 H 0.38708 0.88622 0.48837 0.0
H300 H 0.31753 0.85201 0.4321 0.0
C301 C 0.38014 0.97385 0.39197 0.0
C302 C 0.51417 0.34105 0.98482 0.0
C303 C 0.50866 0.38181 0.96931 0.0
H304 H 0.5107 0.27162 0.96663 0.0
C305 C 0.49373 0.38224 0.92194 0.0
H306 H 0.52574 0.33946 1.021 0.0
C307 C 0.4853 0.34342 0.8907 0.0
C308 C 0.49157 0.30307 0.90597 0.0
H309 H 0.48923 0.41302 0.90865 0.0
H310 H 0.47424 0.34533 0.85438 0.0
C311 C 0.50571 0.30217 0.95355 0.0
C312 C 0.09665 0.52286 0.41343 0.0
C313 C 0.1216 0.56259 0.44576 0.0
H314 H 0.10257 0.48066 0.3561 0.0
C315 C 0.1742 0.59197 0.44286 0.0
H316 H 0.05627 0.49957 0.41429 0.0
C317 C 0.20097 0.5817 0.40846 0.0
C318 C 0.17576 0.5413 0.37676 0.0
H319 H 0.19464 0.62325 0.46682 0.0
H320 H 0.24137 0.60453 0.40745 0.0
C321 C 0.1233 0.51214 0.37981 0.0
C322 C 0.63615 0.09071 0.92744 0.0
C323 C 0.61218 0.11228 0.952 0.0
H324 H 0.68984 0.10045 0.87429 0.0
C325 C 0.62362 0.1616 0.93977 0.0
H326 H 0.62765 0.05261 0.93575 0.0
C327 C 0.65817 0.18856 0.90312 0.0
C328 C 0.68252 0.1669 0.87913 0.0
H329 H 0.60488 0.17871 0.95757 0.0
H330 H 0.66669 0.22655 0.89433 0.0
C331 C 0.6714 0.11794 0.89199 0.0
C332 C 0.62958 0.67649 0.45366 0.0
C333 C 0.62898 0.63236 0.43891 0.0
H334 H 0.62675 0.74234 0.43191 0.0
C335 C 0.63773 0.6279 0.39053 0.0
H336 H 0.62346 0.68142 0.49077 0.0
C337 C 0.63984 0.66308 0.35694 0.0
C338 C 0.63402 0.70369 0.37113 0.0
H339 H 0.63768 0.59463 0.37788 0.0
H340 H 0.64028 0.65533 0.31934 0.0
C341 C 0.63229 0.71199 0.42002 0.0
C342 C 0.53001 0.10043 0.65946 0.0
C343 C 0.50812 0.04864 0.67039 0.0
H344 H 0.54885 0.17374 0.68329 0.0
C345 C 0.49074 0.03203 0.71706 0.0
H346 H 0.54472 0.115 0.62416 0.0
C347 C 0.49361 0.06632 0.75144 0.0
C348 C 0.51378 0.11779 0.7397 0.0
H349 H 0.47456 0.99262 0.72689 0.0
H350 H 0.47845 0.05216 0.78667 0.0
C351 C 0.53293 0.13447 0.6936 0.0
C352 C 0.39193 0.46587 0.1172 0.0
C353 C 0.42249 0.51028 0.09136 0.0
H354 H 0.34261 0.43097 0.176 0.0
C355 C 0.42388 0.55507 0.10517 0.0
H356 H 0.39071 0.43102 0.10802 0.0
C357 C 0.39683 0.55555 0.14547 0.0
C358 C 0.36784 0.51116 0.17245 0.0
H359 H 0.4483 0.59026 0.08673 0.0
H360 H 0.39974 0.59073 0.15623 0.0
C361 C 0.36485 0.4662 0.15678 0.0
C362 C 0.96078 0.45582 0.63823 0.0
C363 C 0.93274 0.46229 0.60222 0.0
H364 H 0.9602 0.41608 0.7016 0.0
C365 C 0.88015 0.43271 0.60435 0.0
H366 H 1.00124 0.47807 0.638 0.0
C367 C 0.85634 0.39757 0.6417 0.0
C368 C 0.88468 0.39075 0.67723 0.0
H369 H 0.85736 0.43717 0.57752 0.0
H370 H 0.81591 0.37502 0.64216 0.0
C371 C 0.93714 0.42035 0.67492 0.0
C372 C 0.55603 0.93425 0.13388 0.0
C373 C 0.52896 0.91263 0.0916 0.0
H374 H 0.58509 0.92255 0.19982 0.0
C375 C 0.51376 0.86195 0.08257 0.0
H376 H 0.56849 0.97321 0.14211 0.0
C377 C 0.52304 0.83308 0.11569 0.0
C378 C 0.54824 0.85391 0.15882 0.0
H379 H 0.49303 0.84386 0.05057 0.0
H380 H 0.50918 0.79372 0.1079 0.0
C381 C 0.5658 0.9053 0.16698 0.0
C382 C 0.69351 0.5641 0.63918 0.0
C383 C 0.64894 0.56359 0.65056 0.0
H384 H 0.76325 0.57361 0.66447 0.0
C385 C 0.64033 0.57108 0.69813 0.0
H386 H 0.70122 0.55827 0.60285 0.0
C387 C 0.67538 0.57885 0.73351 0.0
C388 C 0.72027 0.58004 0.7221 0.0
H389 H 0.60622 0.57042 0.70819 0.0
H390 H 0.66758 0.58485 0.76975 0.0
C391 C 0.72897 0.57262 0.6745 0.0
C392 C 0.08616 0.62884 0.18359 0.0
C393 C 0.10341 0.62008 0.14036 0.0
H394 H 0.10288 0.67722 0.2441 0.0
C395 C 0.15291 0.65436 0.12602 0.0
H396 H 0.04845 0.60319 0.19591 0.0
C397 C 0.18403 0.69642 0.15353 0.0
C398 C 0.16685 0.70566 0.19644 0.0
H399 H 0.16785 0.649 0.09311 0.0
H400 H 0.22157 0.72206 0.14074 0.0
C401 C 0.11755 0.67114 0.21136 0.0
loop_
_geom_bond_atom_site_label_1
_geom_bond_atom_site_label_2
_geom_bond_distance
_geom_bond_site_symmetry_2
_ccdc_geom_bond_type
C0 O2 1.247 . S
C0 O4 1.258 . S
C1 O8 1.247 1_655 S
C1 O9 1.258 . S
O2 C0 1.247 . S
O2 Zn3 2.028 1_455 S
Zn3 O2 2.028 1_655 S
Zn3 O7 2.035 1_554 S
Zn3 O9 2.035 1_554 S
Zn3 O10 2.028 1_655 S
O4 C0 1.258 . S
O4 Zn5 2.035 1_554 S
Zn5 O4 2.035 1_556 S
Zn5 O6 2.028 . S
Zn5 O8 2.028 . S
Zn5 O11 2.035 1_556 S
O6 Zn5 2.028 . S
O6 C12 1.247 1_455 S
O7 Zn3 2.035 1_556 S
O7 C12 1.258 . S
O8 C1 1.247 1_455 S
O8 Zn5 2.028 . S
O9 C1 1.258 . S
O9 Zn3 2.035 1_556 S
O10 Zn3 2.028 1_455 S
O10 C13 1.247 . S
O11 Zn5 2.035 1_554 S
O11 C13 1.258 . S
C12 O6 1.247 1_655 S
C12 O7 1.258 . S
C13 O10 1.247 . S
C13 O11 1.258 . S
C14 O16 1.247 . S
C14 O18 1.258 . S
C15 O22 1.247 1_565 S
C15 O23 1.258 . S
O16 C14 1.247 . S
O16 Zn17 2.028 1_545 S
Zn17 O16 2.028 1_565 S
Zn17 O21 2.035 . S
Zn17 O23 2.035 . S
Zn17 O24 2.028 1_565 S
O18 C14 1.258 . S
O18 Zn19 2.035 . S
Zn19 O18 2.035 . S
Zn19 O20 2.028 . S
Zn19 O22 2.028 . S
Zn19 O25 2.035 . S
O20 Zn19 2.028 . S
O20 C26 1.247 1_545 S
O21 Zn17 2.035 . S
O21 C26 1.258 . S
O22 C15 1.247 1_545 S
O22 Zn19 2.028 . S
O23 C15 1.258 . S
O23 Zn17 2.035 . S
O24 Zn17 2.028 1_545 S
O24 C27 1.247 . S
O25 Zn19 2.035 . S
O25 C27 1.258 . S
C26 O20 1.247 1_565 S
C26 O21 1.258 . S
C27 O24 1.247 . S
C27 O25 1.258 . S
C28 O30 1.247 . S
C28 O32 1.258 . S
C29 O36 1.247 . S
C29 O37 1.258 . S
O30 C28 1.247 . S
O30 Zn31 2.028 . S
Zn31 O30 2.028 . S
Zn31 O35 2.035 1_556 S
Zn31 O37 2.035 1_556 S
Zn31 O38 2.028 . S
O32 C28 1.258 . S
O32 Zn33 2.035 1_556 S
Zn33 O32 2.035 1_554 S
Zn33 O34 2.028 . S
Zn33 O36 2.028 . S
Zn33 O39 2.035 1_554 S
O34 Zn33 2.028 . S
O34 C40 1.247 . S
O35 Zn31 2.035 1_554 S
O35 C40 1.258 . S
O36 C29 1.247 . S
O36 Zn33 2.028 . S
O37 C29 1.258 . S
O37 Zn31 2.035 1_554 S
O38 Zn31 2.028 . S
O38 C41 1.247 . S
O39 Zn33 2.035 1_556 S
O39 C41 1.258 . S
C40 O34 1.247 . S
C40 O35 1.258 . S
C41 O38 1.247 . S
C41 O39 1.258 . S
C42 O44 1.247 . S
C42 O46 1.257 . S
C43 O50 1.247 . S
C43 O51 1.258 1_655 S
O44 C42 1.247 . S
O44 Zn45 2.028 . S
Zn45 O44 2.028 . S
Zn45 O49 2.035 . S
Zn45 O51 2.035 . S
Zn45 O52 2.028 . S
O46 C42 1.257 . S
O46 Zn47 2.035 1_455 S
Zn47 O46 2.035 1_655 S
Zn47 O48 2.028 . S
Zn47 O50 2.028 . S
Zn47 O53 2.037 1_655 S
O48 Zn47 2.028 . S
O48 C54 1.247 . S
O49 Zn45 2.035 . S
O49 C54 1.258 1_455 S
O50 C43 1.247 . S
O50 Zn47 2.028 . S
O51 C43 1.258 1_455 S
O51 Zn45 2.035 . S
O52 Zn45 2.028 . S
O52 C55 1.247 . S
O53 Zn47 2.037 1_455 S
O53 C55 1.256 . S
C54 O48 1.247 . S
C54 O49 1.258 1_655 S
C55 O52 1.247 . S
C55 O53 1.256 . S
C56 O58 1.247 1_565 S
C56 O60 1.258 . S
C57 O64 1.245 1_545 S
C57 O65 1.258 . S
O58 C56 1.247 1_545 S
O58 Zn59 2.028 . S
Zn59 O58 2.028 . S
Zn59 O63 2.035 1_554 S
Zn59 O65 2.035 1_554 S
Zn59 O66 2.028 . S
O60 C56 1.258 . S
O60 Zn61 2.035 1_554 S
Zn61 O60 2.035 1_556 S
Zn61 O62 2.028 . S
Zn61 O64 2.029 . S
Zn61 O67 2.035 1_556 S
O62 Zn61 2.028 . S
O62 C68 1.245 1_565 S
O63 Zn59 2.035 1_556 S
O63 C68 1.258 . S
O64 C57 1.245 1_565 S
O64 Zn61 2.029 . S
O65 C57 1.258 . S
O65 Zn59 2.035 1_556 S
O66 Zn59 2.028 . S
O66 C69 1.247 1_545 S
O67 Zn61 2.035 1_554 S
O67 C69 1.258 . S
C68 O62 1.245 1_545 S
C68 O63 1.258 . S
C69 O66 1.247 1_565 S
C69 O67 1.258 . S
C70 O72 1.247 . S
C70 O74 1.258 . S
C71 O78 1.247 . S
C71 O79 1.258 . S
O72 C70 1.247 . S
O72 Zn73 2.028 . S
Zn73 O72 2.028 . S
Zn73 O77 2.035 . S
Zn73 O79 2.035 . S
Zn73 O80 2.028 . S
O74 C70 1.258 . S
O74 Zn75 2.035 . S
Zn75 O74 2.035 . S
Zn75 O76 2.028 . S
Zn75 O78 2.028 . S
Zn75 O81 2.035 . S
O76 Zn75 2.028 . S
O76 C82 1.247 . S
O77 Zn73 2.035 . S
O77 C82 1.258 . S
O78 C71 1.247 . S
O78 Zn75 2.028 . S
O79 C71 1.258 . S
O79 Zn73 2.035 . S
O80 Zn73 2.028 . S
O80 C83 1.247 . S
O81 Zn75 2.035 . S
O81 C83 1.258 . S
C82 O76 1.247 . S
C82 O77 1.258 . S
C83 O80 1.247 . S
C83 O81 1.258 . S
Mg84 O91 2.141 . S
Mg84 O92 2.048 . S
Mg84 O93 2.048 . S
Mg84 O96 2.141 . S
C85 O86 1.313 . S
C85 O92 1.195 . S
O86 C85 1.313 . S
C87 O88 1.245 . S
C87 O96 1.289 . S
O88 C87 1.245 . S
C89 O90 1.245 . S
C89 O91 1.289 . S
O90 C89 1.245 . S
O91 Mg84 2.141 . S
O91 C89 1.289 . S
O92 Mg84 2.048 . S
O92 C85 1.195 . S
O93 Mg84 2.048 . S
O93 C94 1.195 . S
C94 O93 1.195 . S
C94 O95 1.313 . S
O95 C94 1.313 . S
O96 Mg84 2.141 . S
O96 C87 1.289 . S
Mg97 O104 2.141 . S
Mg97 O105 2.048 . S
Mg97 O106 2.048 . S
Mg97 O109 2.141 . S
C98 O99 1.313 . S
C98 O105 1.195 . S
O99 C98 1.313 . S
C100 O101 1.245 . S
C100 O109 1.289 . S
O101 C100 1.245 . S
C102 O103 1.245 . S
C102 O104 1.289 . S
O103 C102 1.245 . S
O104 Mg97 2.141 . S
O104 C102 1.289 . S
O105 Mg97 2.048 . S
O105 C98 1.195 . S
O106 Mg97 2.048 . S
O106 C107 1.195 . S
C107 O106 1.195 . S
C107 O108 1.313 . S
O108 C107 1.313 . S
O109 Mg97 2.141 . S
O109 C100 1.289 . S
Mg110 O117 2.141 . S
Mg110 O118 2.048 . S
Mg110 O119 2.048 . S
Mg110 O122 2.141 . S
C111 O112 1.313 . S
C111 O118 1.195 . S
O112 C111 1.313 . S
C113 O114 1.245 . S
C113 O122 1.289 . S
O114 C113 1.245 . S
C115 O116 1.245 . S
C115 O117 1.289 . S
O116 C115 1.245 . S
O117 Mg110 2.141 . S
O117 C115 1.289 . S
O118 Mg110 2.048 . S
O118 C111 1.195 . S
O119 Mg110 2.048 . S
O119 C120 1.195 . S
C120 O119 1.195 . S
C120 O121 1.313 . S
O121 C120 1.313 . S
O122 Mg110 2.141 . S
O122 C113 1.289 . S
Mg123 O130 2.141 . S
Mg123 O131 2.048 . S
Mg123 O132 2.048 . S
Mg123 O135 2.141 . S
C124 O125 1.313 . S
C124 O131 1.195 . S
O125 C124 1.313 . S
C126 O127 1.245 . S
C126 O135 1.289 . S
O127 C126 1.245 . S
C128 O129 1.245 . S
C128 O130 1.289 . S
O129 C128 1.245 . S
O130 Mg123 2.141 . S
O130 C128 1.289 . S
O131 Mg123 2.048 . S
O131 C124 1.195 . S
O132 Mg123 2.048 . S
O132 C133 1.195 . S
C133 O132 1.195 . S
C133 O134 1.313 . S
O134 C133 1.313 . S
O135 Mg123 2.141 . S
O135 C126 1.289 . S
Mg136 O143 2.141 . S
Mg136 O144 2.048 . S
Mg136 O145 2.048 . S
Mg136 O148 2.141 . S
C137 O138 1.313 . S
C137 O144 1.195 . S
O138 C137 1.313 . S
C139 O140 1.245 . S
C139 O148 1.289 . S
O140 C139 1.245 . S
C141 O142 1.245 . S
C141 O143 1.289 . S
O142 C141 1.245 . S
O143 Mg136 2.141 . S
O143 C141 1.289 . S
O144 Mg136 2.048 . S
O144 C137 1.195 . S
O145 Mg136 2.048 . S
O145 C146 1.195 . S
C146 O145 1.195 . S
C146 O147 1.313 . S
O147 C146 1.313 . S
O148 Mg136 2.141 . S
O148 C139 1.289 . S
Mg149 O156 2.141 . S
Mg149 O157 2.048 . S
Mg149 O158 2.048 . S
Mg149 O161 2.141 . S
C150 O151 1.313 . S
C150 O157 1.195 . S
O151 C150 1.313 . S
C152 O153 1.245 . S
C152 O161 1.289 . S
O153 C152 1.245 . S
C154 O155 1.245 . S
C154 O156 1.289 . S
O155 C154 1.245 . S
O156 Mg149 2.141 . S
O156 C154 1.289 . S
O157 Mg149 2.048 . S
O157 C150 1.195 . S
O158 Mg149 2.048 . S
O158 C159 1.195 . S
C159 O158 1.195 . S
C159 O160 1.313 . S
O160 C159 1.313 . S
O161 Mg149 2.141 . S
O161 C152 1.289 . S
C162 C163 1.387 . S
C162 H166 0.950 . S
C162 C171 1.390 . S
C163 C162 1.387 . S
C163 C165 1.387 . S
H164 C171 0.950 . S
C165 C163 1.387 . S
C165 C167 1.390 . S
C165 H169 0.950 . S
H166 C162 0.950 . S
C167 C165 1.390 . S
C167 C168 1.387 . S
C167 H170 0.950 . S
C168 C167 1.387 . S
C168 C171 1.387 . S
H169 C165 0.950 . S
H170 C167 0.950 . S
C171 C162 1.390 . S
C171 H164 0.950 . S
C171 C168 1.387 . S
C172 C173 1.387 . S
C172 H176 0.950 . S
C172 C181 1.390 . S
C173 C172 1.387 . S
C173 C175 1.387 . S
H174 C181 0.950 . S
C175 C173 1.387 . S
C175 C177 1.390 . S
C175 H179 0.950 . S
H176 C172 0.950 . S
C177 C175 1.390 . S
C177 C178 1.387 . S
C177 H180 0.950 . S
C178 C177 1.387 . S
C178 C181 1.387 . S
H179 C175 0.950 . S
H180 C177 0.950 . S
C181 C172 1.390 . S
C181 H174 0.950 . S
C181 C178 1.387 . S
C182 C183 1.387 . S
C182 H186 0.950 . S
C182 C191 1.390 . S
C183 C182 1.387 . S
C183 C185 1.387 . S
H184 C191 0.950 . S
C185 C183 1.387 . S
C185 C187 1.390 . S
C185 H189 0.950 . S
H186 C182 0.950 . S
C187 C185 1.390 . S
C187 C188 1.387 . S
C187 H190 0.950 . S
C188 C187 1.387 . S
C188 C191 1.387 . S
H189 C185 0.950 . S
H190 C187 0.950 . S
C191 C182 1.390 . S
C191 H184 0.950 . S
C191 C188 1.387 . S
C192 C193 1.387 . S
C192 H196 0.950 . S
C192 C201 1.390 . S
C193 C192 1.387 . S
C193 C195 1.387 . S
H194 C201 0.950 . S
C195 C193 1.387 . S
C195 C197 1.390 . S
C195 H199 0.950 . S
H196 C192 0.950 . S
C197 C195 1.390 . S
C197 C198 1.387 . S
C197 H200 0.950 . S
C198 C197 1.387 . S
C198 C201 1.387 . S
H199 C195 0.950 . S
H200 C197 0.950 . S
C201 C192 1.390 . S
C201 H194 0.950 . S
C201 C198 1.387 . S
C202 C203 1.387 . S
C202 H206 0.950 . S
C202 C211 1.390 . S
C203 C202 1.387 . S
C203 C205 1.387 . S
H204 C211 0.950 . S
C205 C203 1.387 . S
C205 C207 1.390 . S
C205 H209 0.950 1_565 S
H206 C202 0.950 . S
C207 C205 1.390 . S
C207 C208 1.387 . S
C207 H210 0.950 . S
C208 C207 1.387 . S
C208 C211 1.387 . S
H209 C205 0.950 1_545 S
H210 C207 0.950 . S
C211 C202 1.390 . S
C211 H204 0.950 . S
C211 C208 1.387 . S
C212 C213 1.387 . S
C212 H216 0.950 . S
C212 C221 1.390 . S
C213 C212 1.387 . S
C213 C215 1.387 . S
H214 C221 0.950 . S
C215 C213 1.387 . S
C215 C217 1.390 . S
C215 H219 0.950 . S
H216 C212 0.950 . S
C217 C215 1.390 . S
C217 C218 1.387 . S
C217 H220 0.950 . S
C218 C217 1.387 . S
C218 C221 1.387 . S
H219 C215 0.950 . S
H220 C217 0.950 . S
C221 C212 1.390 . S
C221 H214 0.950 . S
C221 C218 1.387 . S
C222 C223 1.387 . S
C222 H226 0.950 . S
C222 C231 1.390 . S
C223 C222 1.387 . S
C223 C225 1.387 . S
H224 C231 0.950 . S
C225 C223 1.387 . S
C225 C227 1.390 . S
C225 H229 0.950 . S
H226 C222 0.950 . S
C227 C225 1.390 . S
C227 C228 1.387 . S
C227 H230 0.950 . S
C228 C227 1.387 . S
C228 C231 1.387 . S
H229 C225 0.950 . S
H230 C227 0.950 . S
C231 C222 1.390 . S
C231 H224 0.950 . S
C231 C228 1.387 . S
C232 C233 1.387 . S
C232 H236 0.950 . S
C232 C241 1.390 . S
C233 C232 1.387 . S
C233 C235 1.387 . S
H234 C241 0.950 . S
C235 C233 1.387 . S
C235 C237 1.390 . S
C235 H239 0.950 . S
H236 C232 0.950 . S
C237 C235 1.390 . S
C237 C238 1.387 . S
C237 H240 0.950 . S
C238 C237 1.387 . S
C238 C241 1.387 . S
H239 C235 0.950 . S
H240 C237 0.950 . S
C241 C232 1.390 . S
C241 H234 0.950 . S
C241 C238 1.387 . S
C242 C243 1.387 . S
C242 H246 0.950 . S
C242 C251 1.390 . S
C243 C242 1.387 . S
C243 C245 1.387 . S
H244 C251 0.950 . S
C245 C243 1.387 . S
C245 C247 1.390 . S
C245 H249 0.950 . S
H246 C242 0.950 . S
C247 C245 1.390 . S
C247 C248 1.387 . S
C247 H250 0.950 . S
C248 C247 1.387 . S
C248 C251 1.387 . S
H249 C245 0.950 . S
H250 C247 0.950 . S
C251 C242 1.390 . S
C251 H244 0.950 . S
C251 C248 1.387 . S
C252 C253 1.387 . S
C252 H256 0.950 . S
C252 C261 1.390 . S
C253 C252 1.387 . S
C253 C255 1.387 . S
H254 C261 0.950 . S
C255 C253 1.387 . S
C255 C257 1.390 . S
C255 H259 0.950 . S
H256 C252 0.950 . S
C257 C255 1.390 . S
C257 C258 1.387 . S
C257 H260 0.950 . S
C258 C257 1.387 . S
C258 C261 1.387 . S
H259 C255 0.950 . S
H260 C257 0.950 . S
C261 C252 1.390 . S
C261 H254 0.950 . S
C261 C258 1.387 . S
C262 C263 1.387 . S
C262 H266 0.950 . S
C262 C271 1.390 . S
C263 C262 1.387 . S
C263 C265 1.387 . S
H264 C271 0.950 . S
C265 C263 1.387 . S
C265 C267 1.390 . S
C265 H269 0.950 . S
H266 C262 0.950 . S
C267 C265 1.390 . S
C267 C268 1.387 . S
C267 H270 0.950 . S
C268 C267 1.387 . S
C268 C271 1.387 . S
H269 C265 0.950 . S
H270 C267 0.950 . S
C271 C262 1.390 . S
C271 H264 0.950 . S
C271 C268 1.387 . S
C272 C273 1.387 . S
C272 H276 0.950 . S
C272 C281 1.390 . S
C273 C272 1.387 . S
C273 C275 1.387 . S
H274 C281 0.950 . S
C275 C273 1.387 . S
C275 C277 1.390 . S
C275 H279 0.950 1_655 S
H276 C272 0.950 . S
C277 C275 1.390 . S
C277 C278 1.387 . S
C277 H280 0.950 . S
C278 C277 1.387 . S
C278 C281 1.387 . S
H279 C275 0.950 1_455 S
H280 C277 0.950 . S
C281 C272 1.390 . S
C281 H274 0.950 . S
C281 C278 1.387 . S
C282 C283 1.387 . S
C282 H286 0.950 . S
C282 C291 1.390 . S
C283 C282 1.387 . S
C283 C285 1.387 . S
H284 C291 0.950 . S
C285 C283 1.387 . S
C285 C287 1.390 . S
C285 H289 0.950 . S
H286 C282 0.950 . S
C287 C285 1.390 . S
C287 C288 1.387 . S
C287 H290 0.950 . S
C288 C287 1.387 . S
C288 C291 1.387 . S
H289 C285 0.950 . S
H290 C287 0.950 . S
C291 C282 1.390 . S
C291 H284 0.950 . S
C291 C288 1.387 . S
C292 C293 1.387 . S
C292 H296 0.950 . S
C292 C301 1.390 . S
C293 C292 1.387 . S
C293 C295 1.387 . S
H294 C301 0.950 . S
C295 C293 1.387 . S
C295 C297 1.390 . S
C295 H299 0.950 . S
H296 C292 0.950 . S
C297 C295 1.390 . S
C297 C298 1.387 . S
C297 H300 0.950 . S
C298 C297 1.387 . S
C298 C301 1.387 . S
H299 C295 0.950 . S
H300 C297 0.950 . S
C301 C292 1.390 . S
C301 H294 0.950 . S
C301 C298 1.387 . S
C302 C303 1.387 . S
C302 H306 0.950 . S
C302 C311 1.390 . S
C303 C302 1.387 . S
C303 C305 1.387 . S
H304 C311 0.950 . S
C305 C303 1.387 . S
C305 C307 1.390 . S
C305 H309 0.950 . S
H306 C302 0.950 . S
C307 C305 1.390 . S
C307 C308 1.387 . S
C307 H310 0.950 . S
C308 C307 1.387 . S
C308 C311 1.387 . S
H309 C305 0.950 . S
H310 C307 0.950 . S
C311 C302 1.390 . S
C311 H304 0.950 . S
C311 C308 1.387 . S
C312 C313 1.387 . S
C312 H316 0.950 . S
C312 C321 1.390 . S
C313 C312 1.387 . S
C313 C315 1.387 . S
H314 C321 0.950 . S
C315 C313 1.387 . S
C315 C317 1.390 . S
C315 H319 0.950 . S
H316 C312 0.950 . S
C317 C315 1.390 . S
C317 C318 1.387 . S
C317 H320 0.950 . S
C318 C317 1.387 . S
C318 C321 1.387 . S
H319 C315 0.950 . S
H320 C317 0.950 . S
C321 C312 1.390 . S
C321 H314 0.950 . S
C321 C318 1.387 . S
C322 C323 1.387 . S
C322 H326 0.950 . S
C322 C331 1.390 . S
C323 C322 1.387 . S
C323 C325 1.387 . S
H324 C331 0.950 . S
C325 C323 1.387 . S
C325 C327 1.390 . S
C325 H329 0.950 . S
H326 C322 0.950 . S
C327 C325 1.390 . S
C327 C328 1.387 . S
C327 H330 0.950 . S
C328 C327 1.387 . S
C328 C331 1.387 . S
H329 C325 0.950 . S
H330 C327 0.950 . S
C331 C322 1.390 . S
C331 H324 0.950 . S
C331 C328 1.387 . S
C332 C333 1.387 . S
C332 H336 0.950 . S
C332 C341 1.390 . S
C333 C332 1.387 . S
C333 C335 1.387 . S
H334 C341 0.950 . S
C335 C333 1.387 . S
C335 C337 1.390 . S
C335 H339 0.950 . S
H336 C332 0.950 . S
C337 C335 1.390 . S
C337 C338 1.387 . S
C337 H340 0.950 . S
C338 C337 1.387 . S
C338 C341 1.387 . S
H339 C335 0.950 . S
H340 C337 0.950 . S
C341 C332 1.390 . S
C341 H334 0.950 . S
C341 C338 1.387 . S
C342 C343 1.387 . S
C342 H346 0.950 . S
C342 C351 1.390 . S
C343 C342 1.387 . S
C343 C345 1.387 . S
H344 C351 0.950 . S
C345 C343 1.387 . S
C345 C347 1.390 . S
C345 H349 0.950 . S
H346 C342 0.950 . S
C347 C345 1.390 . S
C347 C348 1.387 . S
C347 H350 0.950 . S
C348 C347 1.387 . S
C348 C351 1.387 . S
H349 C345 0.950 . S
H350 C347 0.950 . S
C351 C342 1.390 . S
C351 H344 0.950 . S
C351 C348 1.387 . S
C352 C353 1.387 . S
C352 H356 0.950 . S
C352 C361 1.390 . S
C353 C352 1.387 . S
C353 C355 1.387 . S
H354 C361 0.950 . S
C355 C353 1.387 . S
C355 C357 1.390 . S
C355 H359 0.950 . S
H356 C352 0.950 . S
C357 C355 1.390 . S
C357 C358 1.387 . S
C357 H360 0.950 . S
C358 C357 1.387 . S
C358 C361 1.387 . S
H359 C355 0.950 . S
H360 C357 0.950 . S
C361 C352 1.390 . S
C361 H354 0.950 . S
C361 C358 1.387 . S
C362 C363 1.387 . S
C362 H366 0.950 . S
C362 C371 1.390 . S
C363 C362 1.387 . S
C363 C365 1.387 . S
H364 C371 0.950 . S
C365 C363 1.387 . S
C365 C367 1.390 . S
C365 H369 0.950 . S
H366 C362 0.950 . S
C367 C365 1.390 . S
C367 C368 1.387 . S
C367 H370 0.950 . S
C368 C367 1.387 . S
C368 C371 1.387 . S
H369 C365 0.950 . S
H370 C367 0.950 . S
C371 C362 1.390 . S
C371 H364 0.950 . S
C371 C368 1.387 . S
C372 C373 1.387 . S
C372 H376 0.950 1_565 S
C372 C381 1.390 . S
C373 C372 1.387 . S
C373 C375 1.387 . S
H374 C381 0.950 . S
C375 C373 1.387 . S
C375 C377 1.390 . S
C375 H379 0.950 . S
H376 C372 0.950 1_545 S
C377 C375 1.390 . S
C377 C378 1.387 . S
C377 H380 0.950 . S
C378 C377 1.387 . S
C378 C381 1.387 . S
H379 C375 0.950 . S
H380 C377 0.950 . S
C381 C372 1.390 . S
C381 H374 0.950 . S
C381 C378 1.387 . S
C382 C383 1.387 . S
C382 H386 0.950 . S
C382 C391 1.390 . S
C383 C382 1.387 . S
C383 C385 1.387 . S
H384 C391 0.950 . S
C385 C383 1.387 . S
C385 C387 1.390 . S
C385 H389 0.950 . S
H386 C382 0.950 . S
C387 C385 1.390 . S
C387 C388 1.387 . S
C387 H390 0.950 . S
C388 C387 1.387 . S
C388 C391 1.387 . S
H389 C385 0.950 . S
H390 C387 0.950 . S
C391 C382 1.390 . S
C391 H384 0.950 . S
C391 C388 1.387 . S
C392 C393 1.387 . S
C392 H396 0.950 . S
C392 C401 1.390 . S
C393 C392 1.387 . S
C393 C395 1.387 . S
H394 C401 0.950 . S
C395 C393 1.387 . S
C395 C397 1.390 . S
C395 H399 0.950 . S
H396 C392 0.950 . S
C397 C395 1.390 . S
C397 C398 1.387 . S
C397 H400 0.950 . S
C398 C397 1.387 . S
C398 C401 1.387 . S
H399 C395 0.950 . S
H400 C397 0.950 . S
C401 C392 1.390 . S
C401 H394 0.950 . S
C401 C398 1.387 . S
C163 C13 1.687 . S
C168 C85 1.674 . S
C173 C27 1.687 . S
C178 C98 1.674 . S
C188 C120 1.591 . S
C183 C29 1.686 . S
C198 C133 1.593 . S
C193 C54 1.688 . S
C208 C146 1.592 . S
C203 C69 1.687 . S
C218 C159 1.592 . S
C213 C83 1.687 . S
C223 C15 1.680 . S
C228 C115 1.571 . S
C233 C41 1.679 . S
C238 C128 1.568 . S
C248 C141 1.568 . S
C243 C42 1.680 . S
C258 C154 1.567 . S
C253 C57 1.679 . S
C263 C71 1.679 . S
C268 C87 1.673 . S
C278 C100 1.674 . S
C273 C1 1.679 . S
C288 C126 1.571 . S
C283 C12 1.680 . S
C293 C26 1.679 . S
C298 C139 1.567 . S
C308 C152 1.569 . S
C303 C28 1.679 . S
C313 C55 1.680 . S
C318 C89 1.674 . S
C323 C68 1.679 . S
C328 C102 1.673 . S
C333 C82 1.680 . S
C338 C113 1.569 . S
C343 C14 1.687 . S
C348 C150 1.594 . S
C358 C94 1.675 . S
C353 C40 1.688 . S
C363 C43 1.688 . S
C368 C107 1.675 . S
C373 C56 1.687 . S
C378 C111 1.592 . S
C383 C70 1.688 . S
C388 C124 1.595 . S
C393 C0 1.687 . S
C398 C137 1.593 . S
