# Generated by pormake.
# Topology nia, (6,6)-cn, num edge types: 1
# Building blocks:
#     Node 0, Type 0, BuildingBlock: BETGAK_clean_sbu_0, # of connection points: 6
#     Node 1, Type 0, BuildingBlock: BETGAK_clean_sbu_0, # of connection points: 6
#     Node 2, Type 1, BuildingBlock: MIDCAF_clean_sbu_0, # of connection points: 6
#     Node 3, Type 1, BuildingBlock: MIDCAF_clean_sbu_0, # of connection points: 6
#     Edge 4, Type (0, 1), BuildingBlock: UKIBIB_clean_linker_0, # of connection points: 2
#     Edge 5, Type (0, 1), BuildingBlock: UKIBIB_clean_linker_0, # of connection points: 2
#     Edge 6, Type (0, 1), BuildingBlock: UKIBIB_clean_linker_0, # of connection points: 2
#     Edge 7, Type (0, 1), BuildingBlock: UKIBIB_clean_linker_0, # of connection points: 2
#     Edge 8, Type (0, 1), BuildingBlock: UKIBIB_clean_linker_0, # of connection points: 2
#     Edge 9, Type (0, 1), BuildingBlock: UKIBIB_clean_linker_0, # of connection points: 2
#     Edge 10, Type (0, 1), BuildingBlock: UKIBIB_clean_linker_0, # of connection points: 2
#     Edge 11, Type (0, 1), BuildingBlock: UKIBIB_clean_linker_0, # of connection points: 2
#     Edge 12, Type (0, 1), BuildingBlock: UKIBIB_clean_linker_0, # of connection points: 2
#     Edge 13, Type (0, 1), BuildingBlock: UKIBIB_clean_linker_0, # of connection points: 2
#     Edge 14, Type (0, 1), BuildingBlock: UKIBIB_clean_linker_0, # of connection points: 2
#     Edge 15, Type (0, 1), BuildingBlock: UKIBIB_clean_linker_0, # of connection points: 2
# Relax obj value: 0.286
# Max RMSD: 0.259
# Mean RMSD: 0.236
data_MOF--net-nia--node1-BETGAK_clean_sbu_0--node2-MIDCAF_clean_sbu_0--edge1-UKIBIB_clean_linker_0
_symmetry_space_group_name_H-M    P1
_symmetry_Int_Tables_number       1
_symmetry_cell_setting            triclinic
loop_
_symmetry_equiv_pos_as_xyz
'x, y, z'
_cell_length_a     33.612746
_cell_length_b     36.028221
_cell_length_c     44.941958
_cell_angle_alpha  75.54442
_cell_angle_beta   97.847523
_cell_angle_gamma 126.1725
loop_
_atom_site_label
_atom_site_type_symbol
_atom_site_fract_x
_atom_site_fract_y
_atom_site_fract_z
_atom_type_partial_charge
La0 La 0.05508 0.04355 0.03521 0.0
La1 La 0.99943 0.96464 0.99323 0.0
C2 C 0.11262 0.12064 0.05259 0.0
C3 C 0.11386 0.16142 0.05636 0.0
C4 C 0.09724 0.16086 0.08369 0.0
C5 C 0.1064 0.20192 0.08914 0.0
C6 C 0.13246 0.24482 0.06746 0.0
C7 C 0.14603 0.24453 0.03928 0.0
C8 C 0.13714 0.20352 0.03392 0.0
C9 C 0.96181 0.97541 0.05415 0.0
C10 C 0.98423 0.04662 0.98013 0.0
C11 C 0.94439 0.88617 0.97713 0.0
C12 C 0.94487 0.846 0.97337 0.0
C13 C 0.96299 0.84725 0.94635 0.0
C14 C 0.95478 0.80646 0.94079 0.0
C15 C 0.92783 0.76297 0.96187 0.0
C16 C 0.91257 0.76245 0.98973 0.0
C17 C 0.92107 0.80331 0.99538 0.0
C18 C 0.09291 0.03383 0.97453 0.0
C19 C 0.06965 0.96126 0.04804 0.0
O20 O 0.08454 0.07993 0.07144 0.0
O21 O 0.11202 0.11584 0.02449 0.0
O22 O 0.99334 0.01015 0.06732 0.0
O23 O 0.98446 0.9801 0.0316 0.0
O24 O 0.01946 0.06853 0.99989 0.0
O25 O 0.9681 0.00459 0.97554 0.0
O26 O 0.96997 0.92682 0.95763 0.0
O27 O 0.94569 0.89156 1.00518 0.0
O28 O 0.06192 -0.0012 0.96147 0.0
O29 O 0.06939 0.0287 0.99663 0.0
O30 O 0.03654 0.94087 0.0272 0.0
O31 O 0.08432 0.00188 0.05422 0.0
H32 H 0.07922 0.12927 0.1016 0.0
H33 H 0.09565 0.20037 0.1113 0.0
H34 H 0.16515 0.27639 0.02166 0.0
H35 H 0.15042 0.20537 0.0126 0.0
H36 H 0.98157 0.8792 0.92876 0.0
H37 H 0.96707 0.80853 0.91899 0.0
H38 H 0.89262 0.73006 1.00686 0.0
H39 H 0.90685 0.80084 0.01654 0.0
La40 La 0.00514 0.01936 0.53746 0.0
La41 La 0.04921 0.99274 0.49291 0.0
C42 C 0.9732 0.05726 0.55668 0.0
C43 C 0.92638 0.05157 0.56028 0.0
C44 C 0.89954 0.02752 0.58812 0.0
C45 C 0.86369 0.03285 0.59439 0.0
C46 C 0.85353 0.0622 0.57288 0.0
C47 C 0.87599 0.08106 0.54357 0.0
C48 C 0.91242 0.07642 0.53754 0.0
C49 C 0.97656 0.92954 0.5539 0.0
C50 C 0.9434 0.97137 0.48122 0.0
C51 C 0.08261 0.95575 0.47422 0.0
C52 C 0.13045 0.96309 0.47089 0.0
C53 C 0.15843 0.98877 0.44344 0.0
C54 C 0.19593 0.98534 0.43756 0.0
C55 C 0.20606 0.95602 0.45895 0.0
C56 C 0.18193 0.93482 0.48772 0.0
C57 C 0.14448 0.93818 0.49356 0.0
C58 C 0.07812 0.08248 0.47568 0.0
C59 C 0.11088 0.04037 0.54892 0.0
O60 O 0.98051 0.02699 0.57469 0.0
O61 O 0.98977 0.0695 0.52859 0.0
O62 O 0.96734 0.94935 0.56965 0.0
O63 O 0.99838 0.96024 0.52988 0.0
O64 O 0.95075 0.99615 0.50136 0.0
O65 O 0.97409 0.96149 0.47633 0.0
O66 O 0.07392 0.98483 0.45586 0.0
O67 O 0.06589 0.94353 0.50229 0.0
O68 O 0.08719 0.06169 0.46079 0.0
O69 O 0.05486 0.05207 0.49961 0.0
O70 O 0.10323 0.01596 0.5286 0.0
O71 O 0.08043 0.05024 0.55429 0.0
H72 H 0.90861 0.0073 0.60602 0.0
H73 H 0.8473 0.01692 0.61717 0.0
H74 H 0.86771 0.10182 0.52563 0.0
H75 H 0.93169 0.09479 0.51559 0.0
H76 H 0.14922 0.00891 0.42558 0.0
H77 H 0.21394 0.00247 0.41519 0.0
H78 H 0.18976 0.91308 0.50506 0.0
H79 H 0.12432 0.91854 0.51515 0.0
Zn80 Zn 0.37796 0.71216 0.18832 0.0
Zn81 Zn 0.38774 0.68409 0.32637 0.0
Zn82 Zn 0.38538 0.6978 0.26547 0.0
C83 C 0.47767 0.72274 0.30508 0.0
C84 C 0.31762 0.59867 0.3182 0.0
O85 O 0.33551 0.7232 0.24101 0.0
O86 O 0.34749 0.7395 0.19038 0.0
C87 C 0.47866 0.76117 0.21568 0.0
O88 O 0.46065 0.73712 0.28118 0.0
O89 O 0.44905 0.68971 0.32633 0.0
O90 O 0.32878 0.62218 0.33826 0.0
O91 O 0.33812 0.62017 0.29119 0.0
O92 O 0.44878 0.75133 0.19374 0.0
O93 O 0.46297 0.74248 0.24399 0.0
O94 O 0.39547 0.66694 0.23728 0.0
O95 O 0.33302 0.6462 0.20708 0.0
C96 C 0.35648 0.6352 0.22683 0.0
O97 O 0.35553 0.73345 0.27094 0.0
O98 O 0.38509 0.7386 0.31837 0.0
C99 C 0.32639 0.73666 0.21265 0.0
C100 C 0.36583 0.75023 0.29519 0.0
Zn101 Zn 0.66617 0.27733 0.84741 0.0
Zn102 Zn 0.66725 0.3265 0.70035 0.0
Zn103 Zn 0.66978 0.315 0.7632 0.0
C104 C 0.69905 0.41007 0.71239 0.0
C105 C 0.57491 0.2502 0.72836 0.0
O106 O 0.70854 0.28006 0.78937 0.0
O107 O 0.66298 0.2286 0.83115 0.0
C108 C 0.73473 0.35738 0.81888 0.0
O109 O 0.70348 0.38989 0.73937 0.0
O110 O 0.67713 0.38674 0.69164 0.0
O111 O 0.60178 0.26793 0.70476 0.0
O112 O 0.59184 0.26628 0.75318 0.0
O113 O 0.73493 0.34016 0.84701 0.0
O114 O 0.70641 0.32793 0.80227 0.0
O115 O 0.59478 0.2786 0.78309 0.0
O116 O 0.60659 0.27881 0.83382 0.0
C117 C 0.58008 0.27372 0.80997 0.0
O118 O 0.70728 0.28899 0.75253 0.0
O119 O 0.72474 0.32583 0.70386 0.0
C120 C 0.69672 0.24443 0.81214 0.0
C121 C 0.73149 0.30315 0.7278 0.0
C122 C 0.08965 0.92362 0.09658 0.0
C123 C 0.0915 0.93655 0.06442 0.0
C124 C 0.10659 0.89651 0.11172 0.0
C125 C 0.2792 0.75231 0.1702 0.0
C126 C 0.2895 0.74751 0.20219 0.0
C127 C 0.25033 0.76769 0.15725 0.0
H128 H 0.11088 0.93043 0.02268 0.0
H129 H 0.14245 0.88445 0.0494 0.0
H130 H 0.2714 0.75006 0.24568 0.0
H131 H 0.2185 0.77662 0.22238 0.0
C132 C 0.10993 0.92148 0.04758 0.0
C133 C 0.12759 0.89503 0.06274 0.0
C134 C 0.26573 0.75469 0.22112 0.0
C135 C 0.23561 0.76976 0.20781 0.0
C136 C 0.1262 0.88268 0.0949 0.0
C137 C 0.14653 0.85752 0.11093 0.0
C138 C 0.16278 0.83663 0.12604 0.0
C139 C 0.22925 0.77753 0.17573 0.0
C140 C 0.20361 0.79787 0.16072 0.0
C141 C 0.18356 0.81465 0.14503 0.0
H142 H 0.07405 0.93348 0.10993 0.0
H143 H 0.10466 0.88656 0.13659 0.0
H144 H 0.29463 0.74554 0.15433 0.0
H145 H 0.24551 0.77293 0.13253 0.0
C146 C 0.1898 0.10493 0.56716 0.0
C147 C 0.15692 0.05737 0.56573 0.0
C148 C 0.23563 0.12119 0.58084 0.0
C149 C 0.50307 0.17438 0.71842 0.0
C150 C 0.52256 0.21958 0.72252 0.0
C151 C 0.46267 0.15273 0.69935 0.0
H152 H 0.1461 0.98986 0.57579 0.0
H153 H 0.22574 0.01816 0.60099 0.0
H154 H 0.51681 0.27824 0.70928 0.0
H155 H 0.4458 0.24015 0.67612 0.0
C156 C 0.17072 0.02653 0.57736 0.0
C157 C 0.21618 0.04265 0.59136 0.0
C158 C 0.50027 0.24216 0.70805 0.0
C159 C 0.46064 0.22098 0.68854 0.0
C160 C 0.24841 0.08989 0.59342 0.0
C161 C 0.2926 0.10557 0.61074 0.0
C162 C 0.33015 0.1211 0.62495 0.0
C163 C 0.44232 0.17659 0.6838 0.0
C164 C 0.40348 0.15615 0.6624 0.0
C165 C 0.3709 0.13997 0.64431 0.0
H166 H 0.1805 0.12952 0.5572 0.0
H167 H 0.26076 0.15796 0.58206 0.0
H168 H 0.52154 0.15759 0.72785 0.0
H169 H 0.44896 0.11852 0.69553 0.0
C170 C 0.19761 0.33121 0.06619 0.0
C171 C 0.15049 0.28998 0.07599 0.0
C172 C 0.2192 0.37022 0.07944 0.0
C173 C 0.30293 0.55245 0.23206 0.0
C174 C 0.35031 0.5933 0.2249 0.0
C175 C 0.28329 0.51737 0.21587 0.0
H176 H 0.08705 0.26071 0.10464 0.0
H177 H 0.12603 0.32842 0.12849 0.0
H178 H 0.41625 0.63009 0.1971 0.0
H179 H 0.38122 0.56824 0.16798 0.0
C180 C 0.12396 0.29086 0.09726 0.0
C181 C 0.14588 0.3297 0.11072 0.0
C182 C 0.3803 0.59742 0.20372 0.0
C183 C 0.36004 0.5628 0.18675 0.0
C184 C 0.19408 0.36863 0.10257 0.0
C185 C 0.21939 0.40444 0.12016 0.0
C186 C 0.24012 0.43417 0.13509 0.0
C187 C 0.31093 0.52379 0.19215 0.0
C188 C 0.28686 0.49302 0.17131 0.0
C189 C 0.26531 0.46637 0.15429 0.0
H190 H 0.21947 0.33244 0.0499 0.0
H191 H 0.25654 0.40047 0.07288 0.0
H192 H 0.27858 0.55081 0.2467 0.0
H193 H 0.24505 0.48763 0.21983 0.0
C194 C 0.79417 0.05301 0.60826 0.0
C195 C 0.82664 0.07894 0.58261 0.0
C196 C 0.77909 0.07376 0.6219 0.0
C197 C 0.79026 0.30818 0.69783 0.0
C198 C 0.75824 0.28466 0.72342 0.0
C199 C 0.79618 0.28289 0.68237 0.0
H200 H 0.86368 0.14627 0.5496 0.0
H201 H 0.83502 0.1806 0.5727 0.0
H202 H 0.71454 0.2188 0.75629 0.0
H203 H 0.7287 0.17513 0.73042 0.0
C204 C 0.83887 0.12447 0.56916 0.0
C205 C 0.82291 0.1447 0.58251 0.0
C206 C 0.73945 0.23758 0.73665 0.0
C207 C 0.74654 0.21246 0.72152 0.0
C208 C 0.7948 0.12009 0.60958 0.0
C209 C 0.78647 0.14388 0.62637 0.0
C210 C 0.77922 0.16339 0.64068 0.0
C211 C 0.77271 0.23469 0.69356 0.0
C212 C 0.77326 0.2079 0.67527 0.0
C213 C 0.77479 0.18692 0.65908 0.0
H214 H 0.78195 0.01736 0.61878 0.0
H215 H 0.75692 0.0543 0.64281 0.0
H216 H 0.80533 0.34469 0.68743 0.0
H217 H 0.81647 0.30038 0.66074 0.0
C218 C 0.90348 0.92122 0.09783 0.0
C219 C 0.91017 0.93973 0.06593 0.0
C220 C 0.85904 0.90173 0.11265 0.0
C221 C 0.54251 0.8174 0.17456 0.0
C222 C 0.53148 0.79209 0.20549 0.0
C223 C 0.58713 0.83633 0.16056 0.0
H224 H 0.87434 0.95148 0.02455 0.0
H225 H 0.79557 0.91596 0.05051 0.0
H226 H 0.5621 0.77264 0.24674 0.0
H227 H 0.64223 0.80838 0.22234 0.0
C228 C 0.86995 0.93597 0.04891 0.0
C229 C 0.82517 0.9164 0.06386 0.0
C230 C 0.56896 0.79118 0.22295 0.0
C231 C 0.61452 0.8112 0.20887 0.0
C232 C 0.81999 0.90045 0.09602 0.0
C233 C 0.77658 0.88579 0.11245 0.0
C234 C 0.74154 0.8732 0.12755 0.0
C235 C 0.62293 0.83204 0.17724 0.0
C236 C 0.66625 0.84635 0.16105 0.0
C237 C 0.70127 0.85906 0.14591 0.0
H238 H 0.93409 0.92481 0.11176 0.0
H239 H 0.85619 0.88986 0.13743 0.0
H240 H 0.51523 0.82012 0.16029 0.0
H241 H 0.59271 0.85261 0.13629 0.0
C242 C 0.97948 0.86626 0.5904 0.0
C243 C 0.96015 0.87969 0.56349 0.0
C244 C 0.95533 0.81876 0.60553 0.0
C245 C 0.70533 0.47829 0.67655 0.0
C246 C 0.72304 0.46146 0.70279 0.0
C247 C 0.73274 0.52592 0.6623 0.0
H248 H 0.89946 0.85329 0.5318 0.0
H249 H 0.85749 0.77009 0.55811 0.0
H250 H 0.78244 0.48205 0.73544 0.0
H251 H 0.83025 0.56633 0.71067 0.0
C252 C 0.9165 0.84409 0.55169 0.0
C253 C 0.89208 0.79655 0.56699 0.0
C254 C 0.76757 0.49398 0.71555 0.0
C255 C 0.7951 0.54198 0.70119 0.0
C256 C 0.91081 0.78364 0.59436 0.0
C257 C 0.88317 0.73509 0.61173 0.0
C258 C 0.86001 0.69459 0.62614 0.0
C259 C 0.77833 0.55799 0.67409 0.0
C260 C 0.80825 0.60676 0.65763 0.0
C261 C 0.8322 0.64719 0.64326 0.0
H262 H 0.01205 0.89286 0.60064 0.0
H263 H 0.9704 0.80975 0.62669 0.0
H264 H 0.67108 0.45417 0.66612 0.0
H265 H 0.71895 0.53739 0.6415 0.0
C266 C 0.21693 0.89351 0.45718 0.0
C267 C 0.23466 0.94133 0.44934 0.0
C268 C 0.23689 0.87718 0.44333 0.0
C269 C 0.37602 0.82315 0.29611 0.0
C270 C 0.34589 0.77401 0.30091 0.0
C271 C 0.36734 0.84548 0.31299 0.0
H272 H 0.2903 0.00995 0.42274 0.0
H273 H 0.32479 0.98081 0.3983 0.0
H274 H 0.28453 0.70931 0.32711 0.0
H275 H 0.2692 0.74843 0.35648 0.0
C276 C 0.27523 0.97288 0.42894 0.0
C277 C 0.29512 0.9564 0.41507 0.0
C278 C 0.30627 0.74744 0.3219 0.0
C279 C 0.29821 0.7696 0.33909 0.0
C280 C 0.27492 0.90836 0.42158 0.0
C281 C 0.28998 0.89045 0.40396 0.0
C282 C 0.30246 0.87525 0.38927 0.0
C283 C 0.32911 0.81854 0.33495 0.0
C284 C 0.32201 0.84061 0.35394 0.0
C285 C 0.3142 0.85708 0.37056 0.0
H286 H 0.18544 0.86797 0.47245 0.0
H287 H 0.22096 0.83988 0.44848 0.0
H288 H 0.40828 0.84381 0.28122 0.0
H289 H 0.39175 0.88342 0.30995 0.0
C290 C 0.1738 0.11432 0.95816 0.0
C291 C 0.14654 0.06491 0.96673 0.0
C292 C 0.21961 0.1406 0.94248 0.0
C293 C 0.49519 0.2046 0.82614 0.0
C294 C 0.52833 0.25365 0.81644 0.0
C295 C 0.45168 0.18482 0.84228 0.0
H296 H 0.1468 0.00502 0.96657 0.0
H297 H 0.22588 0.05046 0.93989 0.0
H298 H 0.54262 0.32041 0.81696 0.0
H299 H 0.46534 0.28577 0.8439 0.0
C300 C 0.16714 0.04301 0.96068 0.0
C301 C 0.21232 0.06895 0.94517 0.0
C302 C 0.51662 0.28248 0.82277 0.0
C303 C 0.47289 0.2627 0.83865 0.0
C304 C 0.23848 0.11776 0.93526 0.0
C305 C 0.28306 0.14291 0.91659 0.0
C306 C 0.3195 0.16 0.90127 0.0
C307 C 0.44055 0.2138 0.84904 0.0
C308 C 0.39727 0.19383 0.86761 0.0
C309 C 0.36145 0.17818 0.88305 0.0
H310 H 0.1585 0.13222 0.96175 0.0
H311 H 0.23926 0.17839 0.93497 0.0
H312 H 0.50461 0.18173 0.82305 0.0
H313 H 0.42772 0.14703 0.85046 0.0
C314 C 0.10463 0.14936 0.43142 0.0
C315 C 0.09128 0.13099 0.46284 0.0
C316 C 0.12431 0.19633 0.418 0.0
C317 C 0.25988 0.52777 0.35749 0.0
C318 C 0.28446 0.54644 0.3288 0.0
C319 C 0.23604 0.48025 0.37141 0.0
H320 H 0.08751 0.14845 0.5047 0.0
H321 H 0.12166 0.23186 0.48061 0.0
H322 H 0.30271 0.52847 0.29292 0.0
H323 H 0.25562 0.44381 0.31557 0.0
C324 C 0.09676 0.16108 0.48042 0.0
C325 C 0.11666 0.20877 0.46674 0.0
C326 C 0.28203 0.5153 0.31382 0.0
C327 C 0.25633 0.46704 0.32732 0.0
C328 C 0.13112 0.22661 0.4355 0.0
C329 C 0.15357 0.27569 0.42082 0.0
C330 C 0.17255 0.31557 0.40601 0.0
C331 C 0.23454 0.44967 0.35663 0.0
C332 C 0.21306 0.40138 0.37264 0.0
C333 C 0.19443 0.36171 0.38765 0.0
H334 H 0.10104 0.12749 0.41704 0.0
H335 H 0.13505 0.20918 0.39391 0.0
H336 H 0.26099 0.55034 0.37013 0.0
H337 H 0.21989 0.46771 0.39416 0.0
C338 C 0.91547 0.04427 0.94819 0.0
C339 C 0.96028 0.06981 0.96337 0.0
C340 C 0.89164 0.06519 0.93359 0.0
C341 C 0.77481 0.25792 0.83533 0.0
C342 C 0.72897 0.22838 0.82239 0.0
C343 C 0.80031 0.23988 0.85232 0.0
H344 H 0.01545 0.13812 0.97461 0.0
H345 H 0.97364 0.17462 0.94867 0.0
H346 H 0.67243 0.15618 0.81888 0.0
H347 H 0.71837 0.12502 0.84729 0.0
C348 C 0.98091 0.11721 0.96324 0.0
C349 C 0.95706 0.13821 0.94843 0.0
C350 C 0.70887 0.18019 0.82722 0.0
C351 C 0.73469 0.16224 0.84389 0.0
C352 C 0.91204 0.11213 0.93365 0.0
C353 C 0.88615 0.13268 0.9185 0.0
C354 C 0.86175 0.14649 0.90526 0.0
C355 C 0.78058 0.19202 0.85667 0.0
C356 C 0.8078 0.17407 0.87411 0.0
C357 C 0.83208 0.16101 0.88884 0.0
H358 H 0.89823 0.00775 0.94798 0.0
H359 H 0.85691 0.04446 0.92235 0.0
H360 H 0.78967 0.29446 0.8337 0.0
H361 H 0.83513 0.26323 0.86257 0.0
C362 C 0.86857 0.90354 0.46319 0.0
C363 C 0.89633 0.95086 0.46521 0.0
C364 C 0.82288 0.88324 0.44901 0.0
C365 C 0.55158 0.79848 0.31274 0.0
C366 C 0.52936 0.7511 0.31306 0.0
C367 C 0.59211 0.82188 0.33116 0.0
H368 H 0.89826 0.01401 0.45513 0.0
H369 H 0.81842 0.97853 0.4289 0.0
H370 H 0.53272 0.6913 0.33111 0.0
H371 H 0.60567 0.73337 0.36241 0.0
C372 C 0.87746 0.9775 0.45344 0.0
C373 C 0.83199 0.95732 0.43874 0.0
C374 C 0.55031 0.72832 0.33006 0.0
C375 C 0.5912 0.75193 0.34826 0.0
C376 C 0.80494 0.91023 0.43633 0.0
C377 C 0.76045 0.88985 0.41909 0.0
C378 C 0.72308 0.86858 0.40528 0.0
C379 C 0.61111 0.79829 0.34949 0.0
C380 C 0.64999 0.82152 0.37022 0.0
C381 C 0.68259 0.84264 0.38718 0.0
H382 H 0.88192 0.88214 0.47292 0.0
H383 H 0.80191 0.84665 0.44747 0.0
H384 H 0.53478 0.81597 0.3007 0.0
H385 H 0.60713 0.85765 0.33221 0.0
C386 C 0.86318 0.67715 0.95964 0.0
C387 C 0.91166 0.7182 0.95315 0.0
C388 C 0.84493 0.63855 0.94631 0.0
C389 C 0.79674 0.44327 0.80573 0.0
C390 C 0.74734 0.40494 0.81157 0.0
C391 C 0.81597 0.48296 0.81793 0.0
H392 H 0.98029 0.74769 0.93035 0.0
H393 H 0.94808 0.68047 0.90704 0.0
H394 H 0.67741 0.38041 0.82956 0.0
H395 H 0.71107 0.4485 0.85174 0.0
C396 C 0.94245 0.71755 0.93518 0.0
C397 C 0.92417 0.67897 0.92194 0.0
C398 C 0.71568 0.40988 0.82479 0.0
C399 C 0.73505 0.44844 0.83793 0.0
C400 C 0.87486 0.64004 0.92647 0.0
C401 C 0.85435 0.60424 0.90851 0.0
C402 C 0.83937 0.57552 0.89289 0.0
C403 C 0.78576 0.48384 0.83609 0.0
C404 C 0.80687 0.51732 0.85576 0.0
C405 C 0.82222 0.54427 0.87276 0.0
H406 H 0.83825 0.67589 0.97344 0.0
H407 H 0.80677 0.60856 0.95034 0.0
H408 H 0.82156 0.44023 0.79518 0.0
H409 H 0.8551 0.51068 0.81565 0.0
loop_
_geom_bond_atom_site_label_1
_geom_bond_atom_site_label_2
_geom_bond_distance
_geom_bond_site_symmetry_2
_ccdc_geom_bond_type
La0 C2 2.928 . S
La0 O20 2.521 . S
La0 O21 2.628 . S
La0 O22 2.554 1_445 S
La0 O23 2.757 1_445 S
La0 O24 2.470 . S
La0 O29 2.482 1_554 S
La0 O31 2.503 1_545 S
La1 C11 2.928 . S
La1 O23 2.482 1_556 S
La1 O25 2.503 1_565 S
La1 O26 2.521 . S
La1 O27 2.628 . S
La1 O28 2.554 1_665 S
La1 O29 2.757 1_665 S
La1 O30 2.470 1_656 S
C2 La0 2.928 . S
C2 C3 1.503 . S
C2 O20 1.261 . S
C2 O21 1.243 . S
C3 C2 1.503 . S
C3 C4 1.394 . S
C3 C8 1.373 . S
C4 C3 1.394 . S
C4 C5 1.380 . S
C4 H32 0.930 . S
C5 C4 1.380 . S
C5 C6 1.376 . S
C5 H33 0.930 . S
C6 C5 1.376 . S
C6 C7 1.370 . S
C7 C6 1.370 . S
C7 C8 1.396 . S
C7 H34 0.929 . S
C8 C3 1.373 . S
C8 C7 1.396 . S
C8 H35 0.929 . S
C9 O22 1.240 . S
C9 O23 1.289 . S
C10 O24 1.258 1_656 S
C10 O25 1.256 . S
C11 La1 2.928 . S
C11 C12 1.503 . S
C11 O26 1.261 . S
C11 O27 1.243 . S
C12 C11 1.503 . S
C12 C13 1.394 . S
C12 C17 1.373 . S
C13 C12 1.394 . S
C13 C14 1.380 . S
C13 H36 0.930 . S
C14 C13 1.380 . S
C14 C15 1.376 . S
C14 H37 0.930 . S
C15 C14 1.376 . S
C15 C16 1.370 . S
C16 C15 1.370 . S
C16 C17 1.396 . S
C16 H38 0.929 . S
C17 C12 1.373 . S
C17 C16 1.396 . S
C17 H39 0.929 . S
C18 O28 1.240 . S
C18 O29 1.289 . S
C19 O30 1.258 . S
C19 O31 1.256 . S
O20 La0 2.521 . S
O20 C2 1.261 . S
O21 La0 2.628 . S
O21 C2 1.243 . S
O22 La0 2.554 1_665 S
O22 C9 1.240 . S
O23 La0 2.757 1_665 S
O23 La1 2.482 1_554 S
O23 C9 1.289 . S
O24 La0 2.470 . S
O24 C10 1.258 1_454 S
O25 La1 2.503 1_545 S
O25 C10 1.256 . S
O26 La1 2.521 . S
O26 C11 1.261 . S
O27 La1 2.628 . S
O27 C11 1.243 . S
O28 La1 2.554 1_445 S
O28 C18 1.240 . S
O29 La0 2.482 1_556 S
O29 La1 2.757 1_445 S
O29 C18 1.289 . S
O30 La1 2.470 1_454 S
O30 C19 1.258 . S
O31 La0 2.503 1_565 S
O31 C19 1.256 . S
H32 C4 0.930 . S
H33 C5 0.930 . S
H34 C7 0.929 . S
H35 C8 0.929 . S
H36 C13 0.930 . S
H37 C14 0.930 . S
H38 C16 0.929 . S
H39 C17 0.929 . S
La40 C42 2.928 1_455 S
La40 O60 2.521 1_455 S
La40 O61 2.628 1_455 S
La40 O62 2.554 1_445 S
La40 O63 2.757 1_545 S
La40 O64 2.470 1_445 S
La40 O69 2.482 . S
La40 O71 2.503 . S
La41 C51 2.928 . S
La41 O63 2.482 . S
La41 O65 2.503 1_455 S
La41 O66 2.520 . S
La41 O67 2.628 . S
La41 O68 2.554 1_565 S
La41 O69 2.757 1_565 S
La41 O70 2.470 1_565 S
C42 La40 2.928 1_655 S
C42 C43 1.503 . S
C42 O60 1.261 . S
C42 O61 1.243 . S
C43 C42 1.503 . S
C43 C44 1.394 . S
C43 C48 1.373 . S
C44 C43 1.394 . S
C44 C45 1.380 . S
C44 H72 0.930 . S
C45 C44 1.380 . S
C45 C46 1.376 . S
C45 H73 0.930 . S
C46 C45 1.376 . S
C46 C47 1.370 . S
C47 C46 1.370 . S
C47 C48 1.396 . S
C47 H74 0.929 . S
C48 C43 1.373 . S
C48 C47 1.396 . S
C48 H75 0.929 . S
C49 O62 1.240 . S
C49 O63 1.289 1_655 S
C50 O64 1.258 . S
C50 O65 1.256 . S
C51 La41 2.928 . S
C51 C52 1.503 . S
C51 O66 1.262 . S
C51 O67 1.243 . S
C52 C51 1.503 . S
C52 C53 1.394 . S
C52 C57 1.373 . S
C53 C52 1.394 . S
C53 C54 1.380 . S
C53 H76 0.930 1_565 S
C54 C53 1.380 . S
C54 C55 1.376 . S
C54 H77 0.930 . S
C55 C54 1.376 . S
C55 C56 1.370 . S
C56 C55 1.370 . S
C56 C57 1.396 . S
C56 H78 0.929 . S
C57 C52 1.373 . S
C57 C56 1.396 . S
C57 H79 0.929 . S
C58 O68 1.240 . S
C58 O69 1.289 . S
C59 O70 1.258 . S
C59 O71 1.256 . S
O60 La40 2.521 1_655 S
O60 C42 1.261 . S
O61 La40 2.628 1_655 S
O61 C42 1.243 . S
O62 La40 2.554 1_665 S
O62 C49 1.240 . S
O63 La40 2.757 1_565 S
O63 La41 2.482 . S
O63 C49 1.289 1_455 S
O64 La40 2.470 1_665 S
O64 C50 1.258 . S
O65 La41 2.503 1_655 S
O65 C50 1.256 . S
O66 La41 2.520 . S
O66 C51 1.262 . S
O67 La41 2.628 . S
O67 C51 1.243 . S
O68 La41 2.554 1_545 S
O68 C58 1.240 . S
O69 La40 2.482 . S
O69 La41 2.757 1_545 S
O69 C58 1.289 . S
O70 La41 2.470 1_545 S
O70 C59 1.258 . S
O71 La40 2.503 . S
O71 C59 1.256 . S
H72 C44 0.930 . S
H73 C45 0.930 . S
H74 C47 0.929 . S
H75 C48 0.929 . S
H76 C53 0.930 1_545 S
H77 C54 0.930 . S
H78 C56 0.929 . S
H79 C57 0.929 . S
Zn80 O86 1.920 . S
Zn80 O92 1.898 . S
Zn80 O95 1.905 . S
Zn81 O89 1.905 . S
Zn81 O90 1.898 . S
Zn81 O98 1.920 . S
Zn82 O85 2.080 . S
Zn82 O88 2.114 . S
Zn82 O91 2.120 . S
Zn82 O93 2.120 . S
Zn82 O94 2.114 . S
Zn82 O97 2.080 . S
C83 O88 1.166 . S
C83 O89 1.182 . S
C84 O90 1.167 . S
C84 O91 1.299 . S
O85 Zn82 2.080 . S
O85 C99 1.305 . S
O86 Zn80 1.920 . S
O86 C99 1.234 . S
C87 O92 1.167 . S
C87 O93 1.299 . S
O88 Zn82 2.114 . S
O88 C83 1.166 . S
O89 Zn81 1.905 . S
O89 C83 1.182 . S
O90 Zn81 1.898 . S
O90 C84 1.167 . S
O91 Zn82 2.120 . S
O91 C84 1.299 . S
O92 Zn80 1.898 . S
O92 C87 1.167 . S
O93 Zn82 2.120 . S
O93 C87 1.299 . S
O94 Zn82 2.114 . S
O94 C96 1.166 . S
O95 Zn80 1.905 . S
O95 C96 1.182 . S
C96 O94 1.166 . S
C96 O95 1.182 . S
O97 Zn82 2.080 . S
O97 C100 1.305 . S
O98 Zn81 1.920 . S
O98 C100 1.234 . S
C99 O85 1.305 . S
C99 O86 1.234 . S
C100 O97 1.305 . S
C100 O98 1.234 . S
Zn101 O107 1.920 . S
Zn101 O113 1.898 . S
Zn101 O116 1.905 . S
Zn102 O110 1.905 . S
Zn102 O111 1.898 . S
Zn102 O119 1.920 . S
Zn103 O106 2.080 . S
Zn103 O109 2.114 . S
Zn103 O112 2.120 . S
Zn103 O114 2.120 . S
Zn103 O115 2.114 . S
Zn103 O118 2.080 . S
C104 O109 1.166 . S
C104 O110 1.182 . S
C105 O111 1.167 . S
C105 O112 1.299 . S
O106 Zn103 2.080 . S
O106 C120 1.305 . S
O107 Zn101 1.920 . S
O107 C120 1.234 . S
C108 O113 1.167 . S
C108 O114 1.299 . S
O109 Zn103 2.114 . S
O109 C104 1.166 . S
O110 Zn102 1.905 . S
O110 C104 1.182 . S
O111 Zn102 1.898 . S
O111 C105 1.167 . S
O112 Zn103 2.120 . S
O112 C105 1.299 . S
O113 Zn101 1.898 . S
O113 C108 1.167 . S
O114 Zn103 2.120 . S
O114 C108 1.299 . S
O115 Zn103 2.114 . S
O115 C117 1.166 . S
O116 Zn101 1.905 . S
O116 C117 1.182 . S
C117 O115 1.166 . S
C117 O116 1.182 . S
O118 Zn103 2.080 . S
O118 C121 1.305 . S
O119 Zn102 1.920 . S
O119 C121 1.234 . S
C120 O106 1.305 . S
C120 O107 1.234 . S
C121 O118 1.305 . S
C121 O119 1.234 . S
C122 C123 1.332 . S
C122 C124 1.345 . S
C122 H142 0.932 . S
C123 C122 1.332 . S
C123 C132 1.332 . S
C124 C122 1.345 . S
C124 C136 1.334 . S
C124 H143 0.928 . S
C125 C126 1.332 . S
C125 C127 1.345 . S
C125 H144 0.932 . S
C126 C125 1.332 . S
C126 C134 1.332 . S
C127 C125 1.345 . S
C127 C139 1.334 . S
C127 H145 0.928 . S
H128 C132 0.932 . S
H129 C133 0.928 . S
H130 C134 0.932 . S
H131 C135 0.928 . S
C132 C123 1.332 . S
C132 H128 0.932 . S
C132 C133 1.345 . S
C133 H129 0.928 . S
C133 C132 1.345 . S
C133 C136 1.334 . S
C134 C126 1.332 . S
C134 H130 0.932 . S
C134 C135 1.345 . S
C135 H131 0.928 . S
C135 C134 1.345 . S
C135 C139 1.334 . S
C136 C124 1.334 . S
C136 C133 1.334 . S
C136 C137 1.487 . S
C137 C136 1.487 . S
C137 C138 1.185 . S
C138 C137 1.185 . S
C138 C141 1.482 . S
C139 C127 1.334 . S
C139 C135 1.334 . S
C139 C140 1.487 . S
C140 C139 1.487 . S
C140 C141 1.185 . S
C141 C138 1.482 . S
C141 C140 1.185 . S
H142 C122 0.932 . S
H143 C124 0.928 . S
H144 C125 0.932 . S
H145 C127 0.928 . S
C146 C147 1.332 . S
C146 C148 1.345 . S
C146 H166 0.932 . S
C147 C146 1.332 . S
C147 C156 1.332 . S
C148 C146 1.345 . S
C148 C160 1.334 . S
C148 H167 0.928 . S
C149 C150 1.332 . S
C149 C151 1.345 . S
C149 H168 0.932 . S
C150 C149 1.332 . S
C150 C158 1.332 . S
C151 C149 1.345 . S
C151 C163 1.334 . S
C151 H169 0.928 . S
H152 C156 0.932 1_565 S
H153 C157 0.928 . S
H154 C158 0.932 . S
H155 C159 0.928 . S
C156 C147 1.332 . S
C156 H152 0.932 1_545 S
C156 C157 1.345 . S
C157 H153 0.928 . S
C157 C156 1.345 . S
C157 C160 1.334 . S
C158 C150 1.332 . S
C158 H154 0.932 . S
C158 C159 1.345 . S
C159 H155 0.928 . S
C159 C158 1.345 . S
C159 C163 1.334 . S
C160 C148 1.334 . S
C160 C157 1.334 . S
C160 C161 1.487 . S
C161 C160 1.487 . S
C161 C162 1.185 . S
C162 C161 1.185 . S
C162 C165 1.482 . S
C163 C151 1.334 . S
C163 C159 1.334 . S
C163 C164 1.487 . S
C164 C163 1.487 . S
C164 C165 1.185 . S
C165 C162 1.482 . S
C165 C164 1.185 . S
H166 C146 0.932 . S
H167 C148 0.928 . S
H168 C149 0.932 . S
H169 C151 0.928 . S
C170 C171 1.332 . S
C170 C172 1.345 . S
C170 H190 0.932 . S
C171 C170 1.332 . S
C171 C180 1.332 . S
C172 C170 1.345 . S
C172 C184 1.334 . S
C172 H191 0.928 . S
C173 C174 1.332 . S
C173 C175 1.345 . S
C173 H192 0.932 . S
C174 C173 1.332 . S
C174 C182 1.332 . S
C175 C173 1.345 . S
C175 C187 1.334 . S
C175 H193 0.928 . S
H176 C180 0.932 . S
H177 C181 0.928 . S
H178 C182 0.932 . S
H179 C183 0.928 . S
C180 C171 1.332 . S
C180 H176 0.932 . S
C180 C181 1.345 . S
C181 H177 0.928 . S
C181 C180 1.345 . S
C181 C184 1.334 . S
C182 C174 1.332 . S
C182 H178 0.932 . S
C182 C183 1.345 . S
C183 H179 0.928 . S
C183 C182 1.345 . S
C183 C187 1.334 . S
C184 C172 1.334 . S
C184 C181 1.334 . S
C184 C185 1.487 . S
C185 C184 1.487 . S
C185 C186 1.185 . S
C186 C185 1.185 . S
C186 C189 1.482 . S
C187 C175 1.334 . S
C187 C183 1.334 . S
C187 C188 1.487 . S
C188 C187 1.487 . S
C188 C189 1.185 . S
C189 C186 1.482 . S
C189 C188 1.185 . S
H190 C170 0.932 . S
H191 C172 0.928 . S
H192 C173 0.932 . S
H193 C175 0.928 . S
C194 C195 1.332 . S
C194 C196 1.345 . S
C194 H214 0.932 . S
C195 C194 1.332 . S
C195 C204 1.332 . S
C196 C194 1.345 . S
C196 C208 1.334 . S
C196 H215 0.928 . S
C197 C198 1.332 . S
C197 C199 1.345 . S
C197 H216 0.932 . S
C198 C197 1.332 . S
C198 C206 1.332 . S
C199 C197 1.345 . S
C199 C211 1.334 . S
C199 H217 0.928 . S
H200 C204 0.932 . S
H201 C205 0.928 . S
H202 C206 0.932 . S
H203 C207 0.928 . S
C204 C195 1.332 . S
C204 H200 0.932 . S
C204 C205 1.345 . S
C205 H201 0.928 . S
C205 C204 1.345 . S
C205 C208 1.334 . S
C206 C198 1.332 . S
C206 H202 0.932 . S
C206 C207 1.345 . S
C207 H203 0.928 . S
C207 C206 1.345 . S
C207 C211 1.334 . S
C208 C196 1.334 . S
C208 C205 1.334 . S
C208 C209 1.487 . S
C209 C208 1.487 . S
C209 C210 1.185 . S
C210 C209 1.185 . S
C210 C213 1.482 . S
C211 C199 1.334 . S
C211 C207 1.334 . S
C211 C212 1.487 . S
C212 C211 1.487 . S
C212 C213 1.185 . S
C213 C210 1.482 . S
C213 C212 1.185 . S
H214 C194 0.932 . S
H215 C196 0.928 . S
H216 C197 0.932 . S
H217 C199 0.928 . S
C218 C219 1.332 . S
C218 C220 1.345 . S
C218 H238 0.932 . S
C219 C218 1.332 . S
C219 C228 1.332 . S
C220 C218 1.345 . S
C220 C232 1.334 . S
C220 H239 0.928 . S
C221 C222 1.332 . S
C221 C223 1.345 . S
C221 H240 0.932 . S
C222 C221 1.332 . S
C222 C230 1.332 . S
C223 C221 1.345 . S
C223 C235 1.334 . S
C223 H241 0.928 . S
H224 C228 0.932 . S
H225 C229 0.928 . S
H226 C230 0.932 . S
H227 C231 0.928 . S
C228 C219 1.332 . S
C228 H224 0.932 . S
C228 C229 1.345 . S
C229 H225 0.928 . S
C229 C228 1.345 . S
C229 C232 1.334 . S
C230 C222 1.332 . S
C230 H226 0.932 . S
C230 C231 1.345 . S
C231 H227 0.928 . S
C231 C230 1.345 . S
C231 C235 1.334 . S
C232 C220 1.334 . S
C232 C229 1.334 . S
C232 C233 1.487 . S
C233 C232 1.487 . S
C233 C234 1.185 . S
C234 C233 1.185 . S
C234 C237 1.482 . S
C235 C223 1.334 . S
C235 C231 1.334 . S
C235 C236 1.487 . S
C236 C235 1.487 . S
C236 C237 1.185 . S
C237 C234 1.482 . S
C237 C236 1.185 . S
H238 C218 0.932 . S
H239 C220 0.928 . S
H240 C221 0.932 . S
H241 C223 0.928 . S
C242 C243 1.332 . S
C242 C244 1.345 . S
C242 H262 0.932 . S
C243 C242 1.332 . S
C243 C252 1.332 . S
C244 C242 1.345 . S
C244 C256 1.334 . S
C244 H263 0.928 . S
C245 C246 1.332 . S
C245 C247 1.345 . S
C245 H264 0.932 . S
C246 C245 1.332 . S
C246 C254 1.332 . S
C247 C245 1.345 . S
C247 C259 1.334 . S
C247 H265 0.928 . S
H248 C252 0.932 . S
H249 C253 0.928 . S
H250 C254 0.932 . S
H251 C255 0.928 . S
C252 C243 1.332 . S
C252 H248 0.932 . S
C252 C253 1.345 . S
C253 H249 0.928 . S
C253 C252 1.345 . S
C253 C256 1.334 . S
C254 C246 1.332 . S
C254 H250 0.932 . S
C254 C255 1.345 . S
C255 H251 0.928 . S
C255 C254 1.345 . S
C255 C259 1.334 . S
C256 C244 1.334 . S
C256 C253 1.334 . S
C256 C257 1.487 . S
C257 C256 1.487 . S
C257 C258 1.185 . S
C258 C257 1.185 . S
C258 C261 1.482 . S
C259 C247 1.334 . S
C259 C255 1.334 . S
C259 C260 1.487 . S
C260 C259 1.487 . S
C260 C261 1.185 . S
C261 C258 1.482 . S
C261 C260 1.185 . S
H262 C242 0.932 . S
H263 C244 0.928 . S
H264 C245 0.932 . S
H265 C247 0.928 . S
C266 C267 1.332 . S
C266 C268 1.345 . S
C266 H286 0.932 . S
C267 C266 1.332 . S
C267 C276 1.332 . S
C268 C266 1.345 . S
C268 C280 1.334 . S
C268 H287 0.928 . S
C269 C270 1.332 . S
C269 C271 1.345 . S
C269 H288 0.932 . S
C270 C269 1.332 . S
C270 C278 1.332 . S
C271 C269 1.345 . S
C271 C283 1.334 . S
C271 H289 0.928 . S
H272 C276 0.932 1_545 S
H273 C277 0.928 . S
H274 C278 0.932 . S
H275 C279 0.928 . S
C276 C267 1.332 . S
C276 H272 0.932 1_565 S
C276 C277 1.345 . S
C277 H273 0.928 . S
C277 C276 1.345 . S
C277 C280 1.334 . S
C278 C270 1.332 . S
C278 H274 0.932 . S
C278 C279 1.345 . S
C279 H275 0.928 . S
C279 C278 1.345 . S
C279 C283 1.334 . S
C280 C268 1.334 . S
C280 C277 1.334 . S
C280 C281 1.487 . S
C281 C280 1.487 . S
C281 C282 1.185 . S
C282 C281 1.185 . S
C282 C285 1.482 . S
C283 C271 1.334 . S
C283 C279 1.334 . S
C283 C284 1.487 . S
C284 C283 1.487 . S
C284 C285 1.185 . S
C285 C282 1.482 . S
C285 C284 1.185 . S
H286 C266 0.932 . S
H287 C268 0.928 . S
H288 C269 0.932 . S
H289 C271 0.928 . S
C290 C291 1.332 . S
C290 C292 1.345 . S
C290 H310 0.932 . S
C291 C290 1.332 . S
C291 C300 1.332 . S
C292 C290 1.345 . S
C292 C304 1.334 . S
C292 H311 0.928 . S
C293 C294 1.332 . S
C293 C295 1.345 . S
C293 H312 0.932 . S
C294 C293 1.332 . S
C294 C302 1.332 . S
C295 C293 1.345 . S
C295 C307 1.334 . S
C295 H313 0.928 . S
H296 C300 0.932 . S
H297 C301 0.928 . S
H298 C302 0.932 . S
H299 C303 0.928 . S
C300 C291 1.332 . S
C300 H296 0.932 . S
C300 C301 1.345 . S
C301 H297 0.928 . S
C301 C300 1.345 . S
C301 C304 1.334 . S
C302 C294 1.332 . S
C302 H298 0.932 . S
C302 C303 1.345 . S
C303 H299 0.928 . S
C303 C302 1.345 . S
C303 C307 1.334 . S
C304 C292 1.334 . S
C304 C301 1.334 . S
C304 C305 1.487 . S
C305 C304 1.487 . S
C305 C306 1.185 . S
C306 C305 1.185 . S
C306 C309 1.482 . S
C307 C295 1.334 . S
C307 C303 1.334 . S
C307 C308 1.487 . S
C308 C307 1.487 . S
C308 C309 1.185 . S
C309 C306 1.482 . S
C309 C308 1.185 . S
H310 C290 0.932 . S
H311 C292 0.928 . S
H312 C293 0.932 . S
H313 C295 0.928 . S
C314 C315 1.332 . S
C314 C316 1.345 . S
C314 H334 0.932 . S
C315 C314 1.332 . S
C315 C324 1.332 . S
C316 C314 1.345 . S
C316 C328 1.334 . S
C316 H335 0.928 . S
C317 C318 1.332 . S
C317 C319 1.345 . S
C317 H336 0.932 . S
C318 C317 1.332 . S
C318 C326 1.332 . S
C319 C317 1.345 . S
C319 C331 1.334 . S
C319 H337 0.928 . S
H320 C324 0.932 . S
H321 C325 0.928 . S
H322 C326 0.932 . S
H323 C327 0.928 . S
C324 C315 1.332 . S
C324 H320 0.932 . S
C324 C325 1.345 . S
C325 H321 0.928 . S
C325 C324 1.345 . S
C325 C328 1.334 . S
C326 C318 1.332 . S
C326 H322 0.932 . S
C326 C327 1.345 . S
C327 H323 0.928 . S
C327 C326 1.345 . S
C327 C331 1.334 . S
C328 C316 1.334 . S
C328 C325 1.334 . S
C328 C329 1.487 . S
C329 C328 1.487 . S
C329 C330 1.185 . S
C330 C329 1.185 . S
C330 C333 1.482 . S
C331 C319 1.334 . S
C331 C327 1.334 . S
C331 C332 1.487 . S
C332 C331 1.487 . S
C332 C333 1.185 . S
C333 C330 1.482 . S
C333 C332 1.185 . S
H334 C314 0.932 . S
H335 C316 0.928 . S
H336 C317 0.932 . S
H337 C319 0.928 . S
C338 C339 1.332 . S
C338 C340 1.345 . S
C338 H358 0.932 . S
C339 C338 1.332 . S
C339 C348 1.332 . S
C340 C338 1.345 . S
C340 C352 1.334 . S
C340 H359 0.928 . S
C341 C342 1.332 . S
C341 C343 1.345 . S
C341 H360 0.932 . S
C342 C341 1.332 . S
C342 C350 1.332 . S
C343 C341 1.345 . S
C343 C355 1.334 . S
C343 H361 0.928 . S
H344 C348 0.932 1_455 S
H345 C349 0.928 . S
H346 C350 0.932 . S
H347 C351 0.928 . S
C348 C339 1.332 . S
C348 H344 0.932 1_655 S
C348 C349 1.345 . S
C349 H345 0.928 . S
C349 C348 1.345 . S
C349 C352 1.334 . S
C350 C342 1.332 . S
C350 H346 0.932 . S
C350 C351 1.345 . S
C351 H347 0.928 . S
C351 C350 1.345 . S
C351 C355 1.334 . S
C352 C340 1.334 . S
C352 C349 1.334 . S
C352 C353 1.487 . S
C353 C352 1.487 . S
C353 C354 1.185 . S
C354 C353 1.185 . S
C354 C357 1.482 . S
C355 C343 1.334 . S
C355 C351 1.334 . S
C355 C356 1.487 . S
C356 C355 1.487 . S
C356 C357 1.185 . S
C357 C354 1.482 . S
C357 C356 1.185 . S
H358 C338 0.932 . S
H359 C340 0.928 . S
H360 C341 0.932 . S
H361 C343 0.928 . S
C362 C363 1.332 . S
C362 C364 1.345 . S
C362 H382 0.932 . S
C363 C362 1.332 . S
C363 C372 1.332 . S
C364 C362 1.345 . S
C364 C376 1.334 . S
C364 H383 0.928 . S
C365 C366 1.332 . S
C365 C367 1.345 . S
C365 H384 0.932 . S
C366 C365 1.332 . S
C366 C374 1.332 . S
C367 C365 1.345 . S
C367 C379 1.334 . S
C367 H385 0.928 . S
H368 C372 0.932 1_545 S
H369 C373 0.928 . S
H370 C374 0.932 . S
H371 C375 0.928 . S
C372 C363 1.332 . S
C372 H368 0.932 1_565 S
C372 C373 1.345 . S
C373 H369 0.928 . S
C373 C372 1.345 . S
C373 C376 1.334 . S
C374 C366 1.332 . S
C374 H370 0.932 . S
C374 C375 1.345 . S
C375 H371 0.928 . S
C375 C374 1.345 . S
C375 C379 1.334 . S
C376 C364 1.334 . S
C376 C373 1.334 . S
C376 C377 1.487 . S
C377 C376 1.487 . S
C377 C378 1.185 . S
C378 C377 1.185 . S
C378 C381 1.482 . S
C379 C367 1.334 . S
C379 C375 1.334 . S
C379 C380 1.487 . S
C380 C379 1.487 . S
C380 C381 1.185 . S
C381 C378 1.482 . S
C381 C380 1.185 . S
H382 C362 0.932 . S
H383 C364 0.928 . S
H384 C365 0.932 . S
H385 C367 0.928 . S
C386 C387 1.332 . S
C386 C388 1.345 . S
C386 H406 0.932 . S
C387 C386 1.332 . S
C387 C396 1.332 . S
C388 C386 1.345 . S
C388 C400 1.334 . S
C388 H407 0.928 . S
C389 C390 1.332 . S
C389 C391 1.345 . S
C389 H408 0.932 . S
C390 C389 1.332 . S
C390 C398 1.332 . S
C391 C389 1.345 . S
C391 C403 1.334 . S
C391 H409 0.928 . S
H392 C396 0.932 . S
H393 C397 0.928 . S
H394 C398 0.932 . S
H395 C399 0.928 . S
C396 C387 1.332 . S
C396 H392 0.932 . S
C396 C397 1.345 . S
C397 H393 0.928 . S
C397 C396 1.345 . S
C397 C400 1.334 . S
C398 C390 1.332 . S
C398 H394 0.932 . S
C398 C399 1.345 . S
C399 H395 0.928 . S
C399 C398 1.345 . S
C399 C403 1.334 . S
C400 C388 1.334 . S
C400 C397 1.334 . S
C400 C401 1.487 . S
C401 C400 1.487 . S
C401 C402 1.185 . S
C402 C401 1.185 . S
C402 C405 1.482 . S
C403 C391 1.334 . S
C403 C399 1.334 . S
C403 C404 1.487 . S
C404 C403 1.487 . S
C404 C405 1.185 . S
C405 C402 1.482 . S
C405 C404 1.185 . S
H406 C386 0.932 . S
H407 C388 0.928 . S
H408 C389 0.932 . S
H409 C391 0.928 . S
C123 C19 1.875 . S
C126 C99 1.813 . S
C147 C59 1.103 . S
C150 C105 1.041 . S
C171 C6 0.731 . S
C174 C96 0.738 . S
C195 C46 1.235 . S
C198 C121 1.133 . S
C219 C9 2.098 . S
C222 C87 1.990 . S
C246 C104 2.298 . S
C243 C49 2.376 . S
C267 C55 1.149 . S
C270 C100 1.072 . S
C294 C117 1.791 . S
C291 C18 1.862 . S
C318 C84 2.135 . S
C315 C58 2.233 . S
C342 C120 1.987 . S
C339 C10 2.039 . S
C366 C83 1.242 . S
C363 C50 1.302 . S
C390 C108 0.739 . S
C387 C15 0.731 . S
