# Generated by pormake.
# Topology zzz, (3,6)-cn, num edge types: 1
# Building blocks:
#     Node 0, Type 0, BuildingBlock: OLANEW_clean_sbu_2, # of connection points: 3
#     Node 1, Type 0, BuildingBlock: OLANEW_clean_sbu_2, # of connection points: 3
#     Node 2, Type 0, BuildingBlock: OLANEW_clean_sbu_2, # of connection points: 3
#     Node 3, Type 0, BuildingBlock: OLANEW_clean_sbu_2, # of connection points: 3
#     Node 4, Type 0, BuildingBlock: OLANEW_clean_sbu_2, # of connection points: 3
#     Node 5, Type 0, BuildingBlock: OLANEW_clean_sbu_2, # of connection points: 3
#     Node 6, Type 0, BuildingBlock: OLANEW_clean_sbu_2, # of connection points: 3
#     Node 7, Type 0, BuildingBlock: OLANEW_clean_sbu_2, # of connection points: 3
#     Node 8, Type 1, BuildingBlock: KUMJIN_clean_sbu_0, # of connection points: 6
#     Node 9, Type 1, BuildingBlock: KUMJIN_clean_sbu_0, # of connection points: 6
#     Node 10, Type 1, BuildingBlock: KUMJIN_clean_sbu_0, # of connection points: 6
#     Node 11, Type 1, BuildingBlock: KUMJIN_clean_sbu_0, # of connection points: 6
#     Edge 12, Type (0, 1), BuildingBlock: UVAHIK_clean_linker_0, # of connection points: 2
#     Edge 13, Type (0, 1), BuildingBlock: UVAHIK_clean_linker_0, # of connection points: 2
#     Edge 14, Type (0, 1), BuildingBlock: UVAHIK_clean_linker_0, # of connection points: 2
#     Edge 15, Type (0, 1), BuildingBlock: UVAHIK_clean_linker_0, # of connection points: 2
#     Edge 16, Type (0, 1), BuildingBlock: UVAHIK_clean_linker_0, # of connection points: 2
#     Edge 17, Type (0, 1), BuildingBlock: UVAHIK_clean_linker_0, # of connection points: 2
#     Edge 18, Type (0, 1), BuildingBlock: UVAHIK_clean_linker_0, # of connection points: 2
#     Edge 19, Type (0, 1), BuildingBlock: UVAHIK_clean_linker_0, # of connection points: 2
#     Edge 20, Type (0, 1), BuildingBlock: UVAHIK_clean_linker_0, # of connection points: 2
#     Edge 21, Type (0, 1), BuildingBlock: UVAHIK_clean_linker_0, # of connection points: 2
#     Edge 22, Type (0, 1), BuildingBlock: UVAHIK_clean_linker_0, # of connection points: 2
#     Edge 23, Type (0, 1), BuildingBlock: UVAHIK_clean_linker_0, # of connection points: 2
#     Edge 24, Type (0, 1), BuildingBlock: UVAHIK_clean_linker_0, # of connection points: 2
#     Edge 25, Type (0, 1), BuildingBlock: UVAHIK_clean_linker_0, # of connection points: 2
#     Edge 26, Type (0, 1), BuildingBlock: UVAHIK_clean_linker_0, # of connection points: 2
#     Edge 27, Type (0, 1), BuildingBlock: UVAHIK_clean_linker_0, # of connection points: 2
#     Edge 28, Type (0, 1), BuildingBlock: UVAHIK_clean_linker_0, # of connection points: 2
#     Edge 29, Type (0, 1), BuildingBlock: UVAHIK_clean_linker_0, # of connection points: 2
#     Edge 30, Type (0, 1), BuildingBlock: UVAHIK_clean_linker_0, # of connection points: 2
#     Edge 31, Type (0, 1), BuildingBlock: UVAHIK_clean_linker_0, # of connection points: 2
#     Edge 32, Type (0, 1), BuildingBlock: UVAHIK_clean_linker_0, # of connection points: 2
#     Edge 33, Type (0, 1), BuildingBlock: UVAHIK_clean_linker_0, # of connection points: 2
#     Edge 34, Type (0, 1), BuildingBlock: UVAHIK_clean_linker_0, # of connection points: 2
#     Edge 35, Type (0, 1), BuildingBlock: UVAHIK_clean_linker_0, # of connection points: 2
# Relax obj value: 0.135
# Max RMSD: 0.158
# Mean RMSD: 0.121
data_MOF--net-zzz--node1-OLANEW_clean_sbu_2--node2-KUMJIN_clean_sbu_0--edge1-UVAHIK_clean_linker_0
_symmetry_space_group_name_H-M    P1
_symmetry_Int_Tables_number       1
_symmetry_cell_setting            triclinic
loop_
_symmetry_equiv_pos_as_xyz
'x, y, z'
_cell_length_a     68.633425
_cell_length_b     68.614286
_cell_length_c     21.177482
_cell_angle_alpha  89.895329
_cell_angle_beta   90.097238
_cell_angle_gamma 89.976797
loop_
_atom_site_label
_atom_site_type_symbol
_atom_site_fract_x
_atom_site_fract_y
_atom_site_fract_z
_atom_type_partial_charge
O0 O 0.76618 0.61286 0.85163 0.0
Cd1 Cd 0.73581 0.63111 0.86355 0.0
O2 O 0.76639 0.60714 0.95378 0.0
Cd3 Cd 0.78241 0.5968 0.03681 0.0
O4 O 0.8076 0.58744 0.09225 0.0
C5 C 0.81237 0.56957 0.09564 0.0
O6 O 0.80125 0.55646 0.06843 0.0
C7 C 0.77427 0.60529 0.89978 0.0
C8 C 0.70286 0.61068 0.82374 0.0
O9 O 0.71258 0.62131 0.78516 0.0
O10 O 0.70888 0.60954 0.88097 0.0
O11 O 0.88783 0.75764 0.99527 0.0
Cd12 Cd 0.88244 0.72554 0.04328 0.0
O13 O 0.90551 0.76545 0.07766 0.0
Cd14 Cd 0.92531 0.7841 0.13208 0.0
O15 O 0.9416 0.80618 0.1846 0.0
C16 C 0.94819 0.82102 0.15571 0.0
O17 O 0.94572 0.82238 0.09437 0.0
C18 C 0.89791 0.77019 0.02492 0.0
C19 C 0.89781 0.69422 0.97525 0.0
O20 O 0.88052 0.7005 0.96454 0.0
O21 O 0.90796 0.70295 0.01746 0.0
O22 O 0.7632 0.89161 0.9703 0.0
Cd23 Cd 0.79088 0.87229 0.0079 0.0
O24 O 0.75972 0.90307 0.06646 0.0
Cd25 Cd 0.74161 0.91966 0.13215 0.0
O26 O 0.71532 0.93411 0.16619 0.0
C27 C 0.71524 0.94463 0.21546 0.0
O28 O 0.73153 0.94699 0.24724 0.0
C29 C 0.75436 0.90263 0.00898 0.0
C30 C 0.82584 0.88589 0.95745 0.0
O31 O 0.81661 0.87183 0.93121 0.0
O32 O 0.8186 0.89337 0.00762 0.0
O33 O 0.63358 0.74849 0.94218 0.0
Cd34 Cd 0.64881 0.77853 0.97944 0.0
O35 O 0.61373 0.7513 0.02281 0.0
Cd36 Cd 0.5913 0.73847 0.08325 0.0
O37 O 0.57373 0.7172 0.13468 0.0
C38 C 0.57669 0.69933 0.12221 0.0
O39 O 0.58998 0.69477 0.0802 0.0
C40 C 0.61917 0.74217 0.97371 0.0
C41 C 0.63067 0.8111 0.92692 0.0
O42 O 0.64607 0.80389 0.90201 0.0
O43 O 0.62394 0.80299 0.97689 0.0
O44 O 0.23412 0.40633 0.30733 0.0
Cd45 Cd 0.26512 0.3907 0.28216 0.0
O46 O 0.23154 0.41241 0.20594 0.0
Cd47 Cd 0.21477 0.4232 0.12511 0.0
O48 O 0.19127 0.43438 0.06568 0.0
C49 C 0.18715 0.45245 0.06457 0.0
O50 O 0.1978 0.46462 0.09775 0.0
C51 C 0.22472 0.41379 0.2616 0.0
C52 C 0.2971 0.41257 0.32218 0.0
O53 O 0.28905 0.41585 0.26855 0.0
O54 O 0.28996 0.39904 0.35694 0.0
O55 O 0.08081 0.2747 0.17362 0.0
Cd56 Cd 0.09764 0.30292 0.12842 0.0
O57 O 0.09397 0.25711 0.09851 0.0
Cd58 Cd 0.09545 0.22975 0.04604 0.0
O59 O 0.08902 0.20161 0.00307 0.0
C60 C 0.07226 0.19424 0.01203 0.0
O61 O 0.05958 0.20381 0.04655 0.0
C62 C 0.08313 0.25829 0.14699 0.0
C63 C 0.08836 0.33793 0.18809 0.0
O64 O 0.0779 0.33136 0.14267 0.0
O65 O 0.10316 0.32787 0.2056 0.0
O66 O 0.25806 0.11729 0.14301 0.0
Cd67 Cd 0.22699 0.12374 0.09051 0.0
O68 O 0.27213 0.11419 0.05059 0.0
Cd69 Cd 0.29668 0.10418 0.99367 0.0
O70 O 0.32276 0.09113 0.95308 0.0
C71 C 0.32953 0.07542 0.97634 0.0
O72 O 0.32059 0.06736 0.02459 0.0
C73 C 0.27317 0.11365 0.11051 0.0
C74 C 0.19644 0.10733 0.15916 0.0
O75 O 0.20657 0.09704 0.12091 0.0
O76 O 0.20059 0.12547 0.16456 0.0
O77 O 0.39499 0.25232 0.25535 0.0
Cd78 Cd 0.37084 0.22769 0.22607 0.0
O79 O 0.39293 0.26583 0.16152 0.0
Cd80 Cd 0.40248 0.28721 0.09115 0.0
O81 O 0.4132 0.31065 0.03036 0.0
C82 C 0.4274 0.32095 0.04954 0.0
O83 O 0.43561 0.31676 0.10389 0.0
C84 C 0.40009 0.26559 0.21695 0.0
C85 C 0.38315 0.1909 0.26494 0.0
O86 O 0.38607 0.19673 0.20821 0.0
O87 O 0.37416 0.20234 0.30277 0.0
Eu88 Eu 0.0313 0.99248 0.65094 0.0
C89 C 0.95769 0.99704 0.47213 0.0
C90 C 0.9674 0.98107 0.37529 0.0
C91 C 0.93344 0.98057 0.40762 0.0
C92 C 0.97211 0.99176 0.43006 0.0
C93 C 0.93813 0.99184 0.46084 0.0
C94 C 0.94806 0.97517 0.36496 0.0
C95 C 0.92913 0.01041 0.55325 0.0
N96 N 0.9627 0.00792 0.52296 0.0
C97 C 0.94874 0.0152 0.56235 0.0
C98 C 0.92382 0.99849 0.50266 0.0
Eu99 Eu 0.99616 0.01493 0.53669 0.0
N100 N 0.99065 0.99766 0.44155 0.0
C101 C 0.00493 0.99457 0.39784 0.0
C102 C 0.98221 0.97695 0.33198 0.0
C103 C 0.001 0.98396 0.34294 0.0
H104 H 0.95285 0.02431 0.60175 0.0
H105 H 0.0125 0.98112 0.30927 0.0
H106 H 0.94421 0.96677 0.32351 0.0
H107 H 0.91815 0.01586 0.58529 0.0
H108 H 0.01954 0.99979 0.40576 0.0
H109 H 0.01074 0.0253 0.8772 0.0
H110 H 0.97922 0.9687 0.28947 0.0
H111 H 0.07595 0.98242 0.59887 0.0
H112 H 0.00573 0.00638 0.78049 0.0
H113 H 0.11014 0.99184 0.6205 0.0
H114 H 0.91852 0.97627 0.39841 0.0
H115 H 0.04315 0.03914 0.90143 0.0
H116 H 0.07852 0.04229 0.87267 0.0
H117 H 0.90862 0.99481 0.49564 0.0
H118 H 0.10564 0.03324 0.80262 0.0
N119 N 0.03498 0.00956 0.74814 0.0
C120 C 0.02003 0.01212 0.78993 0.0
C121 C 0.04108 0.03072 0.85871 0.0
C122 C 0.05662 0.02709 0.81774 0.0
C123 C 0.02279 0.02291 0.84523 0.0
C124 C 0.05308 0.01615 0.76253 0.0
H125 H 0.11764 0.01417 0.70896 0.0
N126 N 0.06435 0.99981 0.67265 0.0
C127 C 0.09849 0.9975 0.64959 0.0
C128 C 0.06826 0.01118 0.72326 0.0
C129 C 0.07917 0.99219 0.63749 0.0
C130 C 0.10266 0.01014 0.69944 0.0
C131 C 0.08749 0.01686 0.7378 0.0
O132 O 0.04468 0.9637 0.65793 0.0
O133 O 0.01274 0.98863 0.56613 0.0
O134 O 0.98009 0.99194 0.59278 0.0
O135 O 0.99952 0.99091 0.68308 0.0
O136 O 0.0393 0.97462 0.5643 0.0
O137 O 0.02119 0.97137 0.72098 0.0
O138 O 0.98331 0.04394 0.52901 0.0
O139 O 0.01531 0.01894 0.61989 0.0
O140 O 0.04861 0.01289 0.58832 0.0
O141 O 0.02752 0.01731 0.50191 0.0
O142 O 0.98902 0.03339 0.62305 0.0
O143 O 0.00549 0.03476 0.46222 0.0
C144 C 0.02319 0.9773 0.53407 0.0
C145 C 0.02086 0.93944 0.67884 0.0
C146 C 0.99423 0.91632 0.69753 0.0
C147 C 0.00535 0.93262 0.71622 0.0
C148 C 0.99916 0.90684 0.64073 0.0
C149 C 0.02534 0.92967 0.62238 0.0
C150 C 0.0145 0.91354 0.60355 0.0
C151 C 0.98328 0.98663 0.65203 0.0
C152 C 0.0316 0.95727 0.69737 0.0
C153 C 0.091 0.02853 0.79103 0.0
C154 C 0.07557 0.03366 0.83093 0.0
C155 C 0.00528 0.03053 0.65218 0.0
C156 C 0.98313 0.05848 0.42733 0.0
C157 C 0.99201 0.07477 0.39983 0.0
C158 C 0.98281 0.08507 0.35072 0.0
C159 C 0.96444 0.07878 0.32946 0.0
C160 C 0.96492 0.05219 0.40525 0.0
C161 C 0.95563 0.06236 0.35647 0.0
C162 C 0.04475 0.01885 0.53005 0.0
C163 C 0.99336 0.04845 0.47876 0.0
H164 H 0.00184 0.94024 0.75939 0.0
H165 H 0.99148 0.89392 0.62535 0.0
H166 H 0.03715 0.9345 0.59234 0.0
H167 H 0.01807 0.90612 0.55998 0.0
H168 H 0.00604 0.07963 0.41753 0.0
H169 H 0.95703 0.08639 0.29154 0.0
H170 H 0.95792 0.03953 0.42572 0.0
H171 H 0.94155 0.05752 0.33954 0.0
Eu172 Eu 0.52418 0.01803 0.62313 0.0
C173 C 0.51924 0.94682 0.43608 0.0
C174 C 0.5357 0.95818 0.342 0.0
C175 C 0.53615 0.92371 0.36868 0.0
C176 C 0.52468 0.96193 0.39681 0.0
C177 C 0.52453 0.92747 0.42182 0.0
C178 C 0.54176 0.93905 0.32888 0.0
C179 C 0.50525 0.91691 0.51098 0.0
N180 N 0.50803 0.95098 0.48687 0.0
C181 C 0.50045 0.93636 0.52318 0.0
C182 C 0.51757 0.91246 0.46055 0.0
Eu183 Eu 0.50127 0.98419 0.50705 0.0
N184 N 0.51851 0.98019 0.41085 0.0
C185 C 0.52161 0.99516 0.36943 0.0
C186 C 0.53991 0.9737 0.30131 0.0
C187 C 0.53258 0.99221 0.31464 0.0
H188 H 0.49111 0.9398 0.56267 0.0
H189 H 0.53544 0.00425 0.2829 0.0
H190 H 0.5504 0.93591 0.28734 0.0
H191 H 0.49955 0.9054 0.54065 0.0
H192 H 0.51618 0.00958 0.37912 0.0
H193 H 0.49392 0.99753 0.85302 0.0
H194 H 0.54841 0.97145 0.25887 0.0
H195 H 0.53133 0.06259 0.56371 0.0
H196 H 0.51174 0.99244 0.75411 0.0
H197 H 0.52145 0.09663 0.5852 0.0
H198 H 0.54053 0.90896 0.35724 0.0
H199 H 0.48013 0.02992 0.87782 0.0
H200 H 0.47628 0.06515 0.84825 0.0
H201 H 0.52128 0.89739 0.45119 0.0
H202 H 0.48375 0.09213 0.77549 0.0
N203 N 0.50782 0.02156 0.72119 0.0
C204 C 0.50591 0.00669 0.76373 0.0
C205 C 0.48802 0.0278 0.83408 0.0
C206 C 0.49097 0.04325 0.79207 0.0
C207 C 0.49579 0.00951 0.82027 0.0
C208 C 0.50124 0.03968 0.73559 0.0
H209 H 0.50081 0.10405 0.6778 0.0
N210 N 0.51612 0.05099 0.64262 0.0
C211 C 0.5168 0.08502 0.61633 0.0
C212 C 0.50546 0.05485 0.69491 0.0
C213 C 0.52242 0.06578 0.60443 0.0
C214 C 0.50511 0.08914 0.66856 0.0
C215 C 0.49952 0.07402 0.70915 0.0
O216 O 0.55146 0.03363 0.64079 0.0
O217 O 0.52784 0.0004 0.53647 0.0
O218 O 0.52335 0.967 0.5635 0.0
O219 O 0.52591 0.98613 0.65443 0.0
O220 O 0.54181 0.02682 0.53646 0.0
O221 O 0.54662 0.00514 0.68233 0.0
O222 O 0.4724 0.97117 0.49883 0.0
O223 O 0.49784 0.00192 0.59346 0.0
O224 O 0.50084 0.03425 0.5689 0.0
O225 O 0.49929 0.01607 0.47627 0.0
O226 O 0.48338 0.97578 0.59412 0.0
O227 O 0.48073 0.99445 0.43523 0.0
C228 C 0.53904 0.01106 0.50471 0.0
C229 C 0.56652 0.02635 0.73944 0.0
C230 C 0.58955 0.01935 0.82445 0.0
C231 C 0.58184 0.01528 0.76438 0.0
C232 C 0.5819 0.03514 0.85874 0.0
C233 C 0.55886 0.0419 0.77437 0.0
C234 C 0.56666 0.04633 0.83367 0.0
C235 C 0.52887 0.96968 0.62282 0.0
C236 C 0.55806 0.02022 0.67906 0.0
C237 C 0.48861 0.07753 0.764 0.0
C238 C 0.48436 0.06218 0.80542 0.0
C239 C 0.48649 0.99155 0.62552 0.0
C240 C 0.44863 0.99524 0.47525 0.0
C241 C 0.44034 0.00836 0.43173 0.0
C242 C 0.42418 0.01986 0.44869 0.0
C243 C 0.41653 0.01818 0.51007 0.0
C244 C 0.44044 0.99359 0.5359 0.0
C245 C 0.42462 0.00512 0.5532 0.0
C246 C 0.4951 0.03182 0.50974 0.0
C247 C 0.46638 0.98421 0.45829 0.0
H248 H 0.5877 0.00335 0.73674 0.0
H249 H 0.58741 0.0386 0.90533 0.0
H250 H 0.54679 0.05043 0.75622 0.0
H251 H 0.56072 0.05832 0.86067 0.0
H252 H 0.44662 0.00976 0.38501 0.0
H253 H 0.40392 0.02657 0.52433 0.0
H254 H 0.44625 0.9835 0.57038 0.0
H255 H 0.41853 0.00383 0.60014 0.0
Eu256 Eu 0.51152 0.49983 0.55102 0.0
C257 C 0.43243 0.52924 0.58909 0.0
C258 C 0.42474 0.55995 0.53877 0.0
C259 C 0.40065 0.53404 0.54025 0.0
C260 C 0.43795 0.54765 0.57081 0.0
C261 C 0.41346 0.52242 0.57585 0.0
C262 C 0.4063 0.55281 0.52167 0.0
C263 C 0.4206 0.49399 0.6388 0.0
N264 N 0.44522 0.51847 0.62332 0.0
C265 C 0.43931 0.50131 0.65006 0.0
C266 C 0.40773 0.5044 0.60046 0.0
Eu267 Eu 0.47718 0.53141 0.63838 0.0
N268 N 0.45568 0.55412 0.58926 0.0
C269 C 0.46026 0.57344 0.58348 0.0
C270 C 0.43013 0.57931 0.52751 0.0
C271 C 0.44783 0.58619 0.55116 0.0
H272 H 0.44887 0.49297 0.67982 0.0
H273 H 0.45186 0.60132 0.54491 0.0
H274 H 0.39605 0.56193 0.49622 0.0
H275 H 0.41619 0.48022 0.65927 0.0
H276 H 0.47381 0.57888 0.60258 0.0
H277 H 0.55753 0.48547 0.75673 0.0
H278 H 0.42042 0.58924 0.50304 0.0
H279 H 0.52483 0.50909 0.40285 0.0
H280 H 0.52694 0.48716 0.69627 0.0
H281 H 0.55442 0.51842 0.34313 0.0
H282 H 0.38615 0.52891 0.52865 0.0
H283 H 0.5885 0.49588 0.70746 0.0
H284 H 0.60608 0.50853 0.61178 0.0
H285 H 0.3933 0.49863 0.59139 0.0
H286 H 0.60516 0.51804 0.49966 0.0
N287 N 0.54026 0.49829 0.61308 0.0
C288 C 0.54029 0.49155 0.67379 0.0
C289 C 0.5751 0.49648 0.68043 0.0
C290 C 0.57505 0.50292 0.61772 0.0
C291 C 0.55765 0.49058 0.70837 0.0
C292 C 0.55719 0.50345 0.58469 0.0
H293 H 0.58599 0.52166 0.39888 0.0
N294 N 0.53933 0.50851 0.49143 0.0
C295 C 0.55524 0.51601 0.39358 0.0
C296 C 0.55667 0.50893 0.52201 0.0
C297 C 0.53853 0.51087 0.42744 0.0
C298 C 0.57302 0.51782 0.42522 0.0
C299 C 0.57399 0.51386 0.49002 0.0
O300 O 0.50747 0.47977 0.47197 0.0
O301 O 0.48031 0.50685 0.57084 0.0
O302 O 0.48156 0.50357 0.69501 0.0
O303 O 0.49767 0.48199 0.62812 0.0
O304 O 0.48846 0.50498 0.47664 0.0
O305 O 0.51827 0.46892 0.56136 0.0
O306 O 0.46815 0.52756 0.73664 0.0
O307 O 0.50775 0.52022 0.63193 0.0
O308 O 0.51316 0.52963 0.50517 0.0
O309 O 0.48645 0.54692 0.54692 0.0
O310 O 0.50393 0.55019 0.64604 0.0
O311 O 0.47632 0.55602 0.70367 0.0
C312 C 0.47401 0.50745 0.51473 0.0
C313 C 0.5257 0.45058 0.46997 0.0
C314 C 0.52742 0.42017 0.41091 0.0
C315 C 0.51653 0.43462 0.44172 0.0
C316 C 0.54781 0.42194 0.40877 0.0
C317 C 0.54602 0.45238 0.46699 0.0
C318 C 0.55702 0.43805 0.43637 0.0
C319 C 0.48802 0.48603 0.68016 0.0
C320 C 0.5135 0.46466 0.50352 0.0
C321 C 0.59173 0.51408 0.52321 0.0
C322 C 0.59226 0.50861 0.58697 0.0
C323 C 0.51642 0.53638 0.63917 0.0
C324 C 0.4871 0.54706 0.80589 0.0
C325 C 0.49858 0.56395 0.81217 0.0
C326 C 0.51309 0.56514 0.85895 0.0
C327 C 0.51601 0.54929 0.8999 0.0
C328 C 0.4899 0.53161 0.84868 0.0
C329 C 0.50434 0.53271 0.89504 0.0
C330 C 0.5012 0.54482 0.50671 0.0
C331 C 0.4731 0.54516 0.75286 0.0
H332 H 0.50081 0.43323 0.44501 0.0
H333 H 0.55657 0.41101 0.38529 0.0
H334 H 0.55332 0.46468 0.48861 0.0
H335 H 0.57272 0.43938 0.43424 0.0
H336 H 0.49654 0.57606 0.77987 0.0
H337 H 0.52703 0.54992 0.93652 0.0
H338 H 0.48108 0.51858 0.84593 0.0
H339 H 0.5065 0.52065 0.92733 0.0
Eu340 Eu 0.01108 0.54088 0.57389 0.0
C341 C 0.99166 0.45416 0.51418 0.0
C342 C 0.96144 0.44944 0.45688 0.0
C343 C 0.98832 0.42687 0.44169 0.0
C344 C 0.97297 0.46016 0.49971 0.0
C345 C 0.99939 0.43715 0.48642 0.0
C346 C 0.96937 0.43301 0.42693 0.0
C347 C 0.02784 0.44093 0.55238 0.0
N348 N 0.00197 0.46445 0.55749 0.0
C349 C 0.01957 0.45772 0.57843 0.0
C350 C 0.01783 0.43072 0.50556 0.0
Eu351 Eu 0.98684 0.49269 0.59962 0.0
N352 N 0.96571 0.47597 0.52985 0.0
C353 C 0.94658 0.48111 0.52276 0.0
C354 C 0.94213 0.45525 0.44681 0.0
C355 C 0.93459 0.47101 0.48054 0.0
H356 H 0.02758 0.46547 0.61414 0.0
H357 H 0.91959 0.47543 0.47392 0.0
H358 H 0.96081 0.42469 0.39345 0.0
H359 H 0.04201 0.43595 0.56813 0.0
H360 H 0.94074 0.49338 0.54844 0.0
H361 H 0.07786 0.56079 0.69789 0.0
H362 H 0.93281 0.44742 0.41424 0.0
H363 H 0.97062 0.5683 0.5512 0.0
H364 H 0.05696 0.54149 0.62642 0.0
H365 H 0.95625 0.59873 0.58972 0.0
H366 H 0.9941 0.41391 0.41935 0.0
H367 H 0.06442 0.58978 0.75187 0.0
H368 H 0.03636 0.61286 0.76708 0.0
H369 H 0.02431 0.41777 0.48526 0.0
H370 H 0.00328 0.62326 0.73715 0.0
N371 N 0.03185 0.55905 0.64115 0.0
C372 C 0.05099 0.55415 0.64963 0.0
C373 C 0.05519 0.58132 0.72068 0.0
C374 C 0.0359 0.5869 0.70891 0.0
C375 C 0.06285 0.56502 0.69014 0.0
C376 C 0.02451 0.57537 0.66795 0.0
H377 H 0.97353 0.61836 0.66996 0.0
N378 N 0.99587 0.57005 0.6095 0.0
C379 C 0.97023 0.59393 0.60766 0.0
C380 C 0.00596 0.58114 0.65125 0.0
C381 C 0.9785 0.57656 0.58591 0.0
C382 C 0.98 0.60495 0.65299 0.0
C383 C 0.99822 0.59875 0.67481 0.0
O384 O 0.00481 0.5553 0.4838 0.0
O385 O 0.00902 0.50972 0.54634 0.0
O386 O 0.01505 0.49574 0.65544 0.0
O387 O 0.02029 0.52908 0.67002 0.0
O388 O 0.03678 0.52134 0.54942 0.0
O389 O 0.03466 0.55146 0.51429 0.0
O390 O 0.99335 0.47497 0.68314 0.0
O391 O 0.98935 0.52372 0.62813 0.0
O392 O 0.98243 0.5374 0.51955 0.0
O393 O 0.97879 0.50403 0.5026 0.0
O394 O 0.96152 0.51227 0.62877 0.0
O395 O 0.96338 0.48158 0.65849 0.0
C396 C 0.02671 0.50609 0.53585 0.0
C397 C 0.02775 0.54609 0.40593 0.0
C398 C 0.04802 0.52396 0.34336 0.0
C399 C 0.04389 0.53357 0.40038 0.0
C400 C 0.03558 0.52699 0.29141 0.0
C401 C 0.01559 0.54894 0.35338 0.0
C402 C 0.0195 0.53939 0.29656 0.0
C403 C 0.02326 0.51056 0.68558 0.0
C404 C 0.02309 0.55541 0.46706 0.0
C405 C 0.0091 0.60984 0.71797 0.0
C406 C 0.02792 0.60391 0.73505 0.0
C407 C 0.97187 0.52746 0.64078 0.0
C408 C 0.97118 0.4797 0.76766 0.0
C409 C 0.95658 0.49326 0.78322 0.0
C410 C 0.95225 0.49747 0.84661 0.0
C411 C 0.96283 0.48812 0.89469 0.0
C412 C 0.98171 0.47062 0.8164 0.0
C413 C 0.97757 0.47488 0.87951 0.0
C414 C 0.97532 0.52242 0.48721 0.0
C415 C 0.97518 0.47451 0.70118 0.0
H416 H 0.05314 0.531 0.44094 0.0
H417 H 0.03844 0.52008 0.24644 0.0
H418 H 0.00299 0.5584 0.35643 0.0
H419 H 0.01004 0.54166 0.25625 0.0
H420 H 0.94816 0.50023 0.7462 0.0
H421 H 0.95978 0.49114 0.94387 0.0
H422 H 0.99303 0.46013 0.80565 0.0
H423 H 0.98573 0.46778 0.9168 0.0
C424 C 0.16561 0.11002 0.22163 0.0
C425 C 0.18063 0.09845 0.19669 0.0
C426 C 0.15072 0.10156 0.25739 0.0
C427 C 0.14018 0.06171 0.36295 0.0
H428 H 0.08617 0.0675 0.31246 0.0
C429 C 0.07885 0.01941 0.48916 0.0
C430 C 0.06045 0.02813 0.49368 0.0
C431 C 0.0935 0.0281 0.45303 0.0
C432 C 0.10111 0.06601 0.32817 0.0
H433 H 0.192 0.06903 0.19016 0.0
H434 H 0.16626 0.05437 0.25451 0.0
H435 H 0.11173 0.08294 0.25019 0.0
H436 H 0.04285 0.05282 0.46538 0.0
H437 H 0.06858 0.06857 0.40492 0.0
H438 H 0.1298 0.04552 0.44221 0.0
C439 C 0.16593 0.06991 0.24554 0.0
C440 C 0.11573 0.07476 0.29207 0.0
C441 C 0.18056 0.07829 0.20858 0.0
C442 C 0.05694 0.04576 0.46211 0.0
C443 C 0.07168 0.05469 0.42708 0.0
C444 C 0.12555 0.05331 0.39988 0.0
C445 C 0.15087 0.08147 0.27004 0.0
C446 C 0.13537 0.07256 0.30894 0.0
C447 C 0.09017 0.04592 0.42156 0.0
C448 C 0.10579 0.05521 0.38282 0.0
H449 H 0.16527 0.12559 0.21306 0.0
H450 H 0.13925 0.11075 0.27603 0.0
H451 H 0.15526 0.06 0.37712 0.0
H452 H 0.08173 0.00557 0.51184 0.0
H453 H 0.10731 0.02059 0.44888 0.0
C454 C 0.39336 0.16853 0.35196 0.0
C455 C 0.3908 0.17196 0.28713 0.0
C456 C 0.40227 0.15143 0.37312 0.0
C457 C 0.43536 0.11245 0.31725 0.0
H458 H 0.42396 0.09056 0.48193 0.0
C459 C 0.47658 0.04557 0.41748 0.0
C460 C 0.48244 0.04691 0.481 0.0
C461 C 0.46376 0.05928 0.39162 0.0
C462 C 0.42736 0.09655 0.4359 0.0
H463 H 0.39452 0.15971 0.19366 0.0
H464 H 0.40935 0.12943 0.23065 0.0
H465 H 0.40331 0.11627 0.43953 0.0
H466 H 0.47911 0.06362 0.56732 0.0
H467 H 0.45728 0.08773 0.52179 0.0
H468 H 0.45929 0.09247 0.31355 0.0
C469 C 0.40514 0.14025 0.26517 0.0
C470 C 0.41555 0.11135 0.41161 0.0
C471 C 0.39653 0.15755 0.24393 0.0
C472 C 0.47516 0.06225 0.51802 0.0
C473 C 0.46239 0.07595 0.49215 0.0
C474 C 0.44696 0.09739 0.34112 0.0
C475 C 0.40855 0.13717 0.33001 0.0
C476 C 0.41967 0.11984 0.3526 0.0
C477 C 0.45655 0.07463 0.42869 0.0
C478 C 0.44331 0.08953 0.40121 0.0
H479 H 0.38917 0.1794 0.38639 0.0
H480 H 0.4049 0.14981 0.42328 0.0
H481 H 0.43924 0.11878 0.27214 0.0
H482 H 0.48174 0.03384 0.38773 0.0
H483 H 0.45931 0.05773 0.3428 0.0
C484 C 0.32038 0.4405 0.30969 0.0
C485 C 0.31442 0.42374 0.34276 0.0
C486 C 0.33713 0.45065 0.32812 0.0
C487 C 0.38371 0.44314 0.40768 0.0
H488 H 0.38474 0.49929 0.42852 0.0
C489 C 0.4492 0.48144 0.52046 0.0
C490 C 0.45495 0.49959 0.49658 0.0
C491 C 0.43186 0.47288 0.5004 0.0
C492 C 0.38477 0.48364 0.42196 0.0
H493 H 0.32121 0.40465 0.42153 0.0
H494 H 0.35056 0.4222 0.45301 0.0
H495 H 0.35452 0.48319 0.39595 0.0
H496 H 0.448 0.52264 0.43059 0.0
H497 H 0.41741 0.50766 0.39485 0.0
H498 H 0.41388 0.44342 0.4322 0.0
C499 C 0.34227 0.42747 0.41289 0.0
C500 C 0.36745 0.47444 0.40358 0.0
C501 C 0.32542 0.41748 0.39501 0.0
C502 C 0.44347 0.50884 0.45067 0.0
C503 C 0.42601 0.50027 0.43051 0.0
C504 C 0.40101 0.45232 0.42527 0.0
C505 C 0.34836 0.44408 0.3794 0.0
C506 C 0.36673 0.45407 0.397 0.0
C507 C 0.42004 0.48214 0.45508 0.0
C508 C 0.40173 0.47265 0.43341 0.0
H509 H 0.31218 0.44573 0.26933 0.0
H510 H 0.34157 0.46335 0.3013 0.0
H511 H 0.38365 0.42746 0.40184 0.0
H512 H 0.45818 0.47382 0.55471 0.0
H513 H 0.42765 0.45906 0.52105 0.0
C514 C 0.06581 0.36611 0.20585 0.0
C515 C 0.08345 0.35656 0.21944 0.0
C516 C 0.06099 0.38351 0.23621 0.0
C517 C 0.07253 0.41219 0.37912 0.0
H518 H 0.04432 0.45296 0.29086 0.0
C519 C 0.05356 0.48418 0.50238 0.0
C520 C 0.03432 0.49064 0.49472 0.0
C521 C 0.06093 0.46937 0.46407 0.0
C522 C 0.05212 0.44168 0.31626 0.0
H523 H 0.11007 0.35805 0.27455 0.0
H524 H 0.10185 0.38864 0.32656 0.0
H525 H 0.05487 0.42408 0.23346 0.0
H526 H 0.00844 0.48856 0.43656 0.0
H527 H 0.02101 0.46226 0.37061 0.0
H528 H 0.06972 0.42973 0.46192 0.0
C529 C 0.09153 0.38246 0.29344 0.0
C530 C 0.05814 0.42509 0.28339 0.0
C531 C 0.09629 0.36496 0.2634 0.0
C532 C 0.02305 0.4832 0.44502 0.0
C533 C 0.0304 0.46838 0.40661 0.0
C534 C 0.06665 0.42883 0.41183 0.0
C535 C 0.07375 0.39188 0.28058 0.0
C536 C 0.06825 0.41004 0.31456 0.0
C537 C 0.04924 0.46092 0.41687 0.0
C538 C 0.05629 0.44373 0.38089 0.0
H539 H 0.05557 0.35999 0.17235 0.0
H540 H 0.04704 0.39018 0.22584 0.0
H541 H 0.07996 0.40076 0.405 0.0
H542 H 0.06274 0.49026 0.53906 0.0
H543 H 0.07571 0.46438 0.47186 0.0
C544 C 0.85144 0.91168 0.94988 0.0
C545 C 0.84404 0.89365 0.92982 0.0
C546 C 0.86807 0.91956 0.92192 0.0
C547 C 0.89844 0.91598 0.77712 0.0
H548 H 0.93158 0.95066 0.87338 0.0
C549 C 0.95121 0.96901 0.65371 0.0
C550 C 0.96827 0.97491 0.68506 0.0
C551 C 0.93746 0.95734 0.68435 0.0
C552 C 0.92281 0.94077 0.84562 0.0
H553 H 0.84863 0.86944 0.86593 0.0
H554 H 0.87795 0.8829 0.81817 0.0
H555 H 0.90632 0.93251 0.92668 0.0
H556 H 0.98428 0.97287 0.7733 0.0
H557 H 0.96109 0.95168 0.82503 0.0
H558 H 0.91562 0.92343 0.69663 0.0
C559 C 0.87071 0.89122 0.85458 0.0
C560 C 0.90797 0.93057 0.87625 0.0
C561 C 0.85391 0.88344 0.88213 0.0
C562 C 0.9713 0.9687 0.74757 0.0
C563 C 0.95781 0.95662 0.77764 0.0
C564 C 0.91359 0.92585 0.74668 0.0
C565 C 0.87796 0.90949 0.87373 0.0
C566 C 0.89519 0.91848 0.84219 0.0
C567 C 0.94059 0.95087 0.74675 0.0
C568 C 0.92566 0.93883 0.78012 0.0
H569 H 0.84409 0.91998 0.9862 0.0
H570 H 0.87282 0.93385 0.93708 0.0
H571 H 0.88895 0.90686 0.749 0.0
H572 H 0.94843 0.97335 0.60537 0.0
H573 H 0.92425 0.95365 0.65911 0.0
C574 C 0.60169 0.83302 0.91606 0.0
C575 C 0.62078 0.82812 0.89831 0.0
C576 C 0.5921 0.84872 0.88759 0.0
C577 C 0.57794 0.88825 0.84383 0.0
H578 H 0.58694 0.8985 0.66624 0.0
C579 C 0.54529 0.95565 0.71867 0.0
C580 C 0.53912 0.95356 0.65567 0.0
C581 C 0.55557 0.94072 0.74892 0.0
C582 C 0.58405 0.89574 0.7157 0.0
H583 H 0.64499 0.83613 0.83802 0.0
H584 H 0.62857 0.86392 0.78993 0.0
H585 H 0.6038 0.87169 0.71745 0.0
H586 H 0.53929 0.93411 0.57499 0.0
H587 H 0.55615 0.90777 0.62853 0.0
H588 H 0.55748 0.91173 0.8413 0.0
C589 C 0.62073 0.85532 0.82444 0.0
C590 C 0.59401 0.88051 0.74544 0.0
C591 C 0.63021 0.83945 0.85231 0.0
C592 C 0.54345 0.93615 0.6238 0.0
C593 C 0.55346 0.92111 0.65432 0.0
C594 C 0.5678 0.90334 0.81389 0.0
C595 C 0.60147 0.86007 0.84127 0.0
C596 C 0.59108 0.87654 0.80991 0.0
C597 C 0.55975 0.92322 0.7172 0.0
C598 C 0.57069 0.90727 0.74937 0.0
H599 H 0.59399 0.82449 0.95111 0.0
H600 H 0.57718 0.85168 0.90107 0.0
H601 H 0.57549 0.88584 0.89374 0.0
H602 H 0.54241 0.96891 0.74468 0.0
H603 H 0.56049 0.94307 0.79691 0.0
C604 C 0.67382 0.58972 0.84678 0.0
C605 C 0.68492 0.60049 0.80327 0.0
C606 C 0.65639 0.58089 0.82821 0.0
C607 C 0.62842 0.56461 0.68827 0.0
H608 H 0.584 0.57017 0.79962 0.0
C609 C 0.54908 0.54902 0.61028 0.0
C610 C 0.53699 0.53955 0.65385 0.0
C611 C 0.56788 0.55472 0.62776 0.0
C612 C 0.59631 0.56822 0.76839 0.0
H613 H 0.68659 0.6101 0.70577 0.0
H614 H 0.65611 0.59478 0.67351 0.0
H615 H 0.61548 0.58318 0.83151 0.0
H616 H 0.53409 0.52994 0.75067 0.0
H617 H 0.56703 0.53968 0.7815 0.0
H618 H 0.6091 0.54984 0.6248 0.0
C619 C 0.66097 0.59302 0.72186 0.0
C620 C 0.61438 0.57569 0.78667 0.0
C621 C 0.67839 0.6019 0.74047 0.0
C622 C 0.54358 0.53649 0.71571 0.0
C623 C 0.56229 0.54232 0.73345 0.0
C624 C 0.61032 0.55712 0.66997 0.0
C625 C 0.64967 0.58259 0.76568 0.0
C626 C 0.63063 0.57405 0.74676 0.0
C627 C 0.57462 0.55161 0.68978 0.0
C628 C 0.59405 0.55891 0.70976 0.0
H629 H 0.67847 0.58828 0.89547 0.0
H630 H 0.64815 0.57272 0.8629 0.0
H631 H 0.64072 0.56291 0.65679 0.0
H632 H 0.54388 0.55223 0.56305 0.0
H633 H 0.57686 0.56219 0.59339 0.0
C634 C 0.92426 0.66974 0.95503 0.0
C635 C 0.90566 0.67715 0.94078 0.0
C636 C 0.93145 0.65335 0.92351 0.0
C637 C 0.92512 0.62457 0.77782 0.0
H638 H 0.95226 0.58419 0.87152 0.0
C639 C 0.94556 0.55115 0.66452 0.0
C640 C 0.96449 0.54431 0.67603 0.0
C641 C 0.93828 0.56702 0.69825 0.0
C642 C 0.94489 0.59544 0.84463 0.0
H643 H 0.88004 0.67313 0.8821 0.0
H644 H 0.89256 0.64454 0.82732 0.0
H645 H 0.93995 0.61286 0.92691 0.0
H646 H 0.99007 0.54734 0.73511 0.0
H647 H 0.97741 0.57523 0.79423 0.0
H648 H 0.93013 0.60723 0.69555 0.0
C649 C 0.90167 0.65151 0.86245 0.0
C650 C 0.93784 0.61186 0.87632 0.0
C651 C 0.89445 0.66785 0.89408 0.0
C652 C 0.97564 0.55281 0.72421 0.0
C653 C 0.96829 0.56858 0.7585 0.0
C654 C 0.93219 0.60818 0.74617 0.0
C655 C 0.92023 0.64403 0.87687 0.0
C656 C 0.92785 0.62661 0.84328 0.0
C657 C 0.94963 0.57605 0.74519 0.0
C658 C 0.94212 0.59342 0.77919 0.0
H659 H 0.93327 0.67656 0.99073 0.0
H660 H 0.9459 0.6481 0.9352 0.0
H661 H 0.91776 0.6358 0.75081 0.0
H662 H 0.93655 0.54443 0.6286 0.0
H663 H 0.92369 0.57214 0.68791 0.0
C664 C 0.08241 0.22284 0.17338 0.0
C665 C 0.0728 0.24088 0.17041 0.0
C666 C 0.07246 0.20611 0.19265 0.0
C667 C 0.02333 0.18524 0.20325 0.0
H668 H 0.04758 0.14873 0.31917 0.0
C669 C 0.98195 0.11983 0.31329 0.0
C670 C 0.99241 0.10247 0.32298 0.0
C671 C 0.99146 0.13666 0.29222 0.0
C672 C 0.04069 0.15861 0.28604 0.0
H673 H 0.0455 0.25581 0.18701 0.0
H674 H 0.02795 0.22645 0.22046 0.0
H675 H 0.06481 0.17835 0.28926 0.0
H676 H 0.02079 0.08884 0.31502 0.0
H677 H 0.03731 0.11804 0.27735 0.0
H678 H 0.99927 0.1654 0.19952 0.0
C679 C 0.04313 0.22523 0.20723 0.0
C680 C 0.05056 0.17563 0.2691 0.0
C681 C 0.05318 0.24202 0.18863 0.0
C682 C 0.01241 0.10211 0.30904 0.0
C683 C 0.02189 0.11886 0.28766 0.0
C684 C 0.01348 0.16814 0.21994 0.0
C685 C 0.05265 0.20707 0.20905 0.0
C686 C 0.04199 0.18913 0.22757 0.0
C687 C 0.01161 0.13646 0.28006 0.0
C688 C 0.02205 0.1546 0.26152 0.0
H689 H 0.09765 0.22167 0.16076 0.0
H690 H 0.08018 0.19234 0.19332 0.0
H691 H 0.01648 0.19525 0.17042 0.0
H692 H 0.96655 0.12059 0.32418 0.0
H693 H 0.98312 0.14999 0.28748 0.0
C694 C 0.30956 0.11292 0.12008 0.0
C695 C 0.29117 0.10698 0.14191 0.0
C696 C 0.32656 0.10534 0.14726 0.0
C697 C 0.34412 0.06199 0.22763 0.0
H698 H 0.38625 0.09381 0.29314 0.0
C699 C 0.41099 0.02638 0.34011 0.0
C700 C 0.41451 0.03285 0.402 0.0
C701 C 0.39918 0.03723 0.29932 0.0
C702 C 0.37465 0.08478 0.27451 0.0
H703 H 0.27601 0.08912 0.21043 0.0
H704 H 0.30569 0.07568 0.25744 0.0
H705 H 0.35829 0.10944 0.24112 0.0
H706 H 0.4098 0.05656 0.46774 0.0
H707 H 0.38897 0.07537 0.39679 0.0
H708 H 0.36006 0.0374 0.26182 0.0
C709 C 0.30696 0.0861 0.21917 0.0
C710 C 0.35874 0.09369 0.24468 0.0
C711 C 0.29002 0.09387 0.19264 0.0
C712 C 0.4071 0.05105 0.42065 0.0
C713 C 0.39536 0.06194 0.37978 0.0
C714 C 0.36008 0.0531 0.25653 0.0
C715 C 0.32537 0.09157 0.1962 0.0
C716 C 0.34312 0.08236 0.22242 0.0
C717 C 0.39076 0.05482 0.31949 0.0
C718 C 0.37533 0.06439 0.28142 0.0
H719 H 0.31079 0.12335 0.08186 0.0
H720 H 0.34059 0.10981 0.12891 0.0
H721 H 0.33235 0.05295 0.21021 0.0
H722 H 0.4164 0.01238 0.32432 0.0
H723 H 0.39597 0.03148 0.25285 0.0
C724 C 0.43076 0.27547 0.27208 0.0
C725 C 0.41419 0.28058 0.23682 0.0
C726 C 0.44434 0.2897 0.28954 0.0
C727 C 0.46055 0.33933 0.24559 0.0
H728 H 0.48509 0.33929 0.41059 0.0
C729 C 0.50026 0.40613 0.34664 0.0
C730 C 0.51723 0.40323 0.38263 0.0
C731 C 0.48937 0.39028 0.32533 0.0
C732 C 0.4786 0.33932 0.36394 0.0
H733 H 0.39798 0.30458 0.19608 0.0
H734 H 0.4213 0.32953 0.22809 0.0
H735 H 0.46222 0.3134 0.383 0.0
H736 H 0.53644 0.38145 0.42301 0.0
H737 H 0.5174 0.35358 0.38528 0.0
H738 H 0.47665 0.36539 0.22682 0.0
C739 C 0.42431 0.31447 0.24004 0.0
C740 C 0.46546 0.32451 0.34818 0.0
C741 C 0.41096 0.30022 0.22164 0.0
C742 C 0.52347 0.3841 0.39507 0.0
C743 C 0.51247 0.36818 0.37406 0.0
C744 C 0.47363 0.35413 0.26134 0.0
C745 C 0.44139 0.30935 0.27297 0.0
C746 C 0.45606 0.32451 0.28911 0.0
C747 C 0.49516 0.37112 0.33966 0.0
C748 C 0.48261 0.35445 0.321 0.0
H749 H 0.43345 0.2604 0.28479 0.0
H750 H 0.45733 0.28525 0.31485 0.0
H751 H 0.45392 0.33953 0.19922 0.0
H752 H 0.49519 0.42073 0.33591 0.0
H753 H 0.47603 0.39307 0.29944 0.0
C754 C 0.20197 0.44124 0.23964 0.0
C755 C 0.20615 0.42404 0.27281 0.0
C756 C 0.18436 0.45094 0.24886 0.0
C757 C 0.1343 0.44499 0.31043 0.0
H758 H 0.13599 0.50147 0.31298 0.0
C759 C 0.08277 0.51609 0.37056 0.0
C760 C 0.06552 0.51118 0.3384 0.0
C761 C 0.09928 0.50435 0.36606 0.0
C762 C 0.13523 0.4857 0.31308 0.0
H763 H 0.19561 0.4038 0.34344 0.0
H764 H 0.16476 0.42104 0.36081 0.0
H765 H 0.16596 0.4832 0.30052 0.0
H766 H 0.05215 0.4897 0.27699 0.0
H767 H 0.08142 0.46969 0.26655 0.0
H768 H 0.10344 0.44766 0.32442 0.0
C769 C 0.17491 0.42672 0.32628 0.0
C770 C 0.15242 0.47521 0.30504 0.0
C771 C 0.1926 0.41696 0.31684 0.0
C772 C 0.06524 0.49411 0.30166 0.0
C773 C 0.08191 0.48245 0.29653 0.0
C774 C 0.11701 0.45554 0.31869 0.0
C775 C 0.17062 0.44386 0.29237 0.0
C776 C 0.15219 0.45475 0.30314 0.0
C777 C 0.09916 0.48754 0.32833 0.0
C778 C 0.11732 0.47604 0.32006 0.0
H779 H 0.21248 0.4474 0.20721 0.0
H780 H 0.1815 0.46402 0.22169 0.0
H781 H 0.13361 0.42923 0.30873 0.0
H782 H 0.08375 0.52926 0.39845 0.0
H783 H 0.11224 0.50858 0.39185 0.0
C784 C 0.90377 0.80613 0.03553 0.0
C785 C 0.90135 0.78967 0.99695 0.0
C786 C 0.90869 0.82415 0.00913 0.0
C787 C 0.91063 0.85326 0.86396 0.0
H788 H 0.96109 0.87029 0.92462 0.0
C789 C 0.96213 0.8989 0.71046 0.0
C790 C 0.97808 0.90862 0.73784 0.0
C791 C 0.94876 0.88883 0.74791 0.0
C792 C 0.94673 0.86633 0.90786 0.0
H793 H 0.90039 0.77954 0.90012 0.0
H794 H 0.90897 0.81111 0.85392 0.0
H795 H 0.94415 0.84438 0.97923 0.0
H796 H 0.99093 0.91713 0.82753 0.0
H797 H 0.96675 0.9012 0.89244 0.0
H798 H 0.91307 0.87514 0.79257 0.0
C799 C 0.90725 0.80998 0.90463 0.0
C800 C 0.93708 0.85128 0.93924 0.0
C801 C 0.90246 0.79192 0.93109 0.0
C802 C 0.97905 0.90971 0.80412 0.0
C803 C 0.96527 0.90018 0.84168 0.0
C804 C 0.92009 0.86866 0.83326 0.0
C805 C 0.91098 0.82611 0.9436 0.0
C806 C 0.91927 0.84417 0.91637 0.0
C807 C 0.95053 0.8887 0.81416 0.0
C808 C 0.93864 0.87497 0.85332 0.0
H809 H 0.90194 0.80511 0.08615 0.0
H810 H 0.91112 0.8365 0.03999 0.0
H811 H 0.89677 0.84815 0.84588 0.0
H812 H 0.96028 0.89841 0.65972 0.0
H813 H 0.93769 0.88034 0.72419 0.0
C814 C 0.72306 0.9065 0.94964 0.0
C815 C 0.73763 0.9145 0.98815 0.0
C816 C 0.7066 0.91752 0.93364 0.0
C817 C 0.67888 0.96149 0.9836 0.0
H818 H 0.65559 0.95693 0.81737 0.0
C819 C 0.62117 0.01521 0.88346 0.0
C820 C 0.6054 0.00693 0.85059 0.0
C821 C 0.63673 0.00356 0.90371 0.0
C822 C 0.66184 0.95822 0.86419 0.0
H823 H 0.74725 0.94053 0.03663 0.0
H824 H 0.7188 0.95991 0.00796 0.0
H825 H 0.68419 0.93748 0.84369 0.0
H826 H 0.59311 0.97971 0.81671 0.0
H827 H 0.6204 0.95957 0.85087 0.0
H828 H 0.6567 0.98263 0.00324 0.0
C829 C 0.71958 0.94495 0.99197 0.0
C830 C 0.6782 0.94703 0.87938 0.0
C831 C 0.73591 0.93389 0.00825 0.0
C832 C 0.60525 0.98666 0.8404 0.0
C833 C 0.62084 0.97509 0.86011 0.0
C834 C 0.66263 0.97283 0.96813 0.0
C835 C 0.70458 0.93684 0.95512 0.0
C836 C 0.68697 0.94854 0.93923 0.0
C837 C 0.63686 0.98345 0.89117 0.0
C838 C 0.65395 0.9713 0.90827 0.0
H839 H 0.72412 0.89156 0.93353 0.0
H840 H 0.69528 0.91073 0.90562 0.0
H841 H 0.685 0.96276 0.03058 0.0
H842 H 0.62182 0.03077 0.89167 0.0
H843 H 0.64896 0.0104 0.92727 0.0
C844 C 0.61961 0.7075 0.93741 0.0
C845 C 0.60907 0.72417 0.95473 0.0
C846 C 0.60987 0.69007 0.92392 0.0
C847 C 0.56233 0.66584 0.9523 0.0
H848 H 0.5801 0.62961 0.82431 0.0
C849 C 0.51565 0.60135 0.86851 0.0
C850 C 0.52486 0.5831 0.86589 0.0
C851 C 0.52655 0.61827 0.87776 0.0
C852 C 0.57509 0.63955 0.86051 0.0
H853 H 0.58023 0.7363 0.96706 0.0
H854 H 0.56314 0.70619 0.94154 0.0
H855 H 0.59785 0.66006 0.84135 0.0
H856 H 0.55269 0.56821 0.86896 0.0
H857 H 0.57189 0.59799 0.88433 0.0
H858 H 0.53939 0.6455 0.97059 0.0
C859 C 0.57891 0.70619 0.94082 0.0
C860 C 0.58526 0.65697 0.87043 0.0
C861 C 0.58866 0.72346 0.95526 0.0
C862 C 0.54525 0.58212 0.87129 0.0
C863 C 0.55621 0.59912 0.87966 0.0
C864 C 0.55209 0.64857 0.94195 0.0
C865 C 0.58938 0.68913 0.92645 0.0
C866 C 0.5789 0.6704 0.91615 0.0
C867 C 0.54692 0.61733 0.8838 0.0
C868 C 0.55827 0.63533 0.89568 0.0
H869 H 0.63539 0.70777 0.93651 0.0
H870 H 0.61842 0.67722 0.91342 0.0
H871 H 0.5573 0.67555 0.98909 0.0
H872 H 0.49994 0.60248 0.86477 0.0
H873 H 0.51904 0.63214 0.88013 0.0
C874 C 0.7964 0.57766 0.92642 0.0
C875 C 0.7931 0.59514 0.89373 0.0
C876 C 0.81456 0.56854 0.92385 0.0
C877 C 0.85941 0.56529 0.82993 0.0
H878 H 0.88101 0.54324 0.98372 0.0
C879 C 0.93472 0.52903 0.83007 0.0
C880 C 0.93619 0.51112 0.86177 0.0
C881 C 0.91856 0.54106 0.83899 0.0
C882 C 0.87513 0.54921 0.94031 0.0
H883 H 0.8058 0.61649 0.83066 0.0
H884 H 0.83777 0.60063 0.8265 0.0
H885 H 0.84998 0.56058 0.98728 0.0
H886 H 0.92225 0.49199 0.92943 0.0
H887 H 0.89374 0.51279 0.94427 0.0
H888 H 0.88428 0.55365 0.78262 0.0
C889 C 0.8263 0.59395 0.85416 0.0
C890 C 0.85735 0.55913 0.94233 0.0
C891 C 0.80805 0.60303 0.8565 0.0
C892 C 0.92154 0.5058 0.90466 0.0
C893 C 0.90524 0.51775 0.91321 0.0
C894 C 0.87715 0.55534 0.82786 0.0
C895 C 0.82981 0.57672 0.8885 0.0
C896 C 0.84919 0.56709 0.887 0.0
C897 C 0.90337 0.53533 0.87935 0.0
C898 C 0.88514 0.547 0.88289 0.0
H899 H 0.78487 0.57099 0.95382 0.0
H900 H 0.81663 0.55495 0.9491 0.0
H901 H 0.85341 0.57104 0.78638 0.0
H902 H 0.94598 0.53355 0.79763 0.0
H903 H 0.91779 0.55472 0.81348 0.0
C904 C 0.07986 0.16587 0.94183 0.0
C905 C 0.06677 0.17559 0.98186 0.0
C906 C 0.07428 0.14881 0.91075 0.0
C907 C 0.0376 0.10915 0.9108 0.0
H908 H 0.05104 0.10542 0.73345 0.0
C909 C 0.00129 0.05438 0.73975 0.0
C910 C 0.01337 0.04521 0.69549 0.0
C911 C 0.00865 0.06916 0.7784 0.0
C912 C 0.0474 0.10608 0.78315 0.0
H913 H 0.03774 0.17466 0.02221 0.0
H914 H 0.02794 0.14504 0.96737 0.0
H915 H 0.06254 0.13304 0.79496 0.0
H916 H 0.04226 0.04483 0.6545 0.0
H917 H 0.05524 0.07035 0.72244 0.0
H918 H 0.02223 0.08223 0.89847 0.0
C919 C 0.04258 0.15051 0.9604 0.0
C920 C 0.05401 0.12192 0.81845 0.0
C921 C 0.04815 0.16758 0.99147 0.0
C922 C 0.03278 0.05133 0.68936 0.0
C923 C 0.04013 0.0661 0.72779 0.0
C924 C 0.03098 0.09328 0.87542 0.0
C925 C 0.05549 0.14107 0.91903 0.0
C926 C 0.0491 0.12372 0.88258 0.0
C927 C 0.02814 0.07525 0.77256 0.0
C928 C 0.03572 0.09164 0.81109 0.0
H929 H 0.09436 0.17158 0.93374 0.0
H930 H 0.08468 0.14172 0.87997 0.0
H931 H 0.03379 0.10998 0.96032 0.0
H932 H 0.98616 0.05012 0.74437 0.0
H933 H 0.99896 0.07615 0.81171 0.0
C934 C 0.3532 0.04764 0.96889 0.0
C935 C 0.34702 0.06618 0.94865 0.0
C936 C 0.36944 0.03874 0.94138 0.0
C937 C 0.41382 0.04957 0.84993 0.0
H938 H 0.40968 0.99608 0.7925 0.0
C939 C 0.46521 0.01843 0.66373 0.0
C940 C 0.47209 0.99929 0.67048 0.0
C941 C 0.45102 0.02571 0.70419 0.0
C942 C 0.41121 0.0109 0.80925 0.0
H943 H 0.35323 0.09002 0.88431 0.0
H944 H 0.38152 0.07453 0.83658 0.0
H945 H 0.38297 0.01063 0.85229 0.0
H946 H 0.46868 0.97227 0.72206 0.0
H947 H 0.44379 0.9851 0.79416 0.0
H948 H 0.44188 0.04999 0.80631 0.0
C949 C 0.37388 0.06691 0.87391 0.0
C950 C 0.3959 0.01925 0.8434 0.0
C951 C 0.35759 0.07573 0.901 0.0
C952 C 0.46389 0.98724 0.71696 0.0
C953 C 0.44962 0.99455 0.75783 0.0
C954 C 0.42912 0.04122 0.81611 0.0
C955 C 0.37994 0.04829 0.89357 0.0
C956 C 0.39688 0.0388 0.86287 0.0
C957 C 0.44315 0.01394 0.75208 0.0
C958 C 0.42781 0.02194 0.79411 0.0
H959 H 0.34539 0.0399 0.00557 0.0
H960 H 0.37386 0.02444 0.95777 0.0
H961 H 0.41515 0.06455 0.86536 0.0
H962 H 0.47044 0.02775 0.6264 0.0
H963 H 0.44594 0.0405 0.69704 0.0
C964 C 0.43044 0.33918 0.94761 0.0
C965 C 0.43413 0.33793 0.01267 0.0
C966 C 0.43668 0.35539 0.9131 0.0
C967 C 0.46983 0.39852 0.92246 0.0
H968 H 0.43865 0.41614 0.78054 0.0
C969 C 0.48027 0.47196 0.78661 0.0
C970 C 0.48288 0.46949 0.72137 0.0
C971 C 0.47472 0.45617 0.82445 0.0
C972 C 0.44746 0.41133 0.82011 0.0
H973 H 0.44693 0.35274 0.09292 0.0
H974 H 0.45703 0.38136 0.03368 0.0
H975 H 0.42785 0.38823 0.8425 0.0
H976 H 0.48154 0.44872 0.6443 0.0
H977 H 0.47136 0.42135 0.71019 0.0
H978 H 0.48906 0.42226 0.90058 0.0
C979 C 0.44997 0.3696 0.00846 0.0
C980 C 0.44141 0.39523 0.85534 0.0
C981 C 0.44408 0.35321 0.04265 0.0
C982 C 0.47982 0.45101 0.6946 0.0
C983 C 0.47388 0.43539 0.73207 0.0
C984 C 0.47566 0.41488 0.8879 0.0
C985 C 0.44638 0.37093 0.94314 0.0
C986 C 0.45262 0.38844 0.90661 0.0
C987 C 0.47126 0.43784 0.79721 0.0
C988 C 0.46463 0.42126 0.83608 0.0
H989 H 0.42293 0.32752 0.9232 0.0
H990 H 0.43402 0.35561 0.86271 0.0
H991 H 0.47906 0.39359 0.96079 0.0
H992 H 0.48262 0.48602 0.8083 0.0
H993 H 0.47274 0.45834 0.87469 0.0
C994 C 0.15875 0.44646 0.99295 0.0
C995 C 0.17021 0.45956 0.02783 0.0
C996 C 0.14264 0.45305 0.95875 0.0
C997 C 0.1075 0.49361 0.94553 0.0
H998 H 0.09876 0.47177 0.77917 0.0
C999 C 0.04752 0.5204 0.76929 0.0
C1000 C 0.03809 0.50578 0.73424 0.0
C1001 C 0.06325 0.51574 0.80884 0.0
C1002 C 0.10088 0.47788 0.82581 0.0
H1003 H 0.17362 0.48989 0.05453 0.0
H1004 H 0.14553 0.50143 0.99409 0.0
H1005 H 0.12728 0.46192 0.83949 0.0
H1006 H 0.03656 0.4745 0.71882 0.0
H1007 H 0.06355 0.46649 0.78767 0.0
H1008 H 0.08095 0.50959 0.93135 0.0
C1009 C 0.14895 0.48602 0.99375 0.0
C1010 C 0.11723 0.47222 0.86039 0.0
C1011 C 0.16512 0.47942 0.028 0.0
C1012 C 0.04377 0.48628 0.74337 0.0
C1013 C 0.05935 0.48165 0.78279 0.0
C1014 C 0.09107 0.49931 0.91074 0.0
C1015 C 0.13759 0.47291 0.95851 0.0
C1016 C 0.12061 0.4798 0.92099 0.0
C1017 C 0.06967 0.49635 0.81444 0.0
C1018 C 0.08746 0.49126 0.85087 0.0
H1019 H 0.16217 0.43105 0.99212 0.0
H1020 H 0.13401 0.44252 0.93294 0.0
H1021 H 0.10964 0.49961 0.99228 0.0
H1022 H 0.04304 0.53547 0.7653 0.0
H1023 H 0.0708 0.52738 0.83321 0.0
C1024 C 0.95979 0.85552 0.16295 0.0
C1025 C 0.95753 0.83708 0.19105 0.0
C1026 C 0.96766 0.87102 0.19732 0.0
C1027 C 0.99876 0.88281 0.33231 0.0
H1028 H 0.97017 0.9316 0.33688 0.0
C1029 C 0.02861 0.95331 0.44787 0.0
C1030 C 0.01578 0.96246 0.48997 0.0
C1031 C 0.02205 0.93824 0.40891 0.0
C1032 C 0.97831 0.91806 0.33583 0.0
H1033 H 0.96221 0.82029 0.27662 0.0
H1034 H 0.97632 0.84732 0.33625 0.0
H1035 H 0.95799 0.90457 0.27261 0.0
H1036 H 0.98642 0.96211 0.52752 0.0
H1037 H 0.97478 0.93637 0.45799 0.0
H1038 H 0.01908 0.89632 0.3956 0.0
C1039 C 0.97188 0.84976 0.28776 0.0
C1040 C 0.97142 0.90268 0.29887 0.0
C1041 C 0.96373 0.83434 0.25373 0.0
C1042 C 0.99642 0.95595 0.4937 0.0
C1043 C 0.98979 0.9411 0.45422 0.0
C1044 C 0.00582 0.8983 0.36849 0.0
C1045 C 0.97372 0.8683 0.2601 0.0
C1046 C 0.98149 0.88485 0.29722 0.0
C1047 C 0.00254 0.93209 0.41154 0.0
C1048 C 0.99555 0.916 0.371 0.0
H1049 H 0.95511 0.85811 0.11477 0.0
H1050 H 0.96905 0.88513 0.17479 0.0
H1051 H 0.00684 0.86924 0.33158 0.0
H1052 H 0.04372 0.9578 0.44523 0.0
H1053 H 0.03217 0.93147 0.37646 0.0
C1054 C 0.67968 0.95201 0.20189 0.0
C1055 C 0.69678 0.95322 0.2384 0.0
C1056 C 0.66199 0.95909 0.22523 0.0
C1057 C 0.63742 0.96864 0.37547 0.0
H1058 H 0.6002 0.99756 0.27388 0.0
C1059 C 0.56072 0.98425 0.46741 0.0
C1060 C 0.5543 0.00361 0.4622 0.0
C1061 C 0.57693 0.97787 0.43362 0.0
C1062 C 0.61049 0.98952 0.30274 0.0
H1063 H 0.70884 0.96345 0.3271 0.0
H1064 H 0.67799 0.97576 0.36777 0.0
H1065 H 0.63154 0.98793 0.22815 0.0
H1066 H 0.55965 0.03148 0.41753 0.0
H1067 H 0.58824 0.02036 0.35837 0.0
H1068 H 0.61662 0.97034 0.45018 0.0
C1069 C 0.67823 0.96913 0.32139 0.0
C1070 C 0.62835 0.98391 0.27652 0.0
C1071 C 0.69592 0.96217 0.29794 0.0
C1072 C 0.5642 0.01641 0.42165 0.0
C1073 C 0.58047 0.01002 0.38768 0.0
C1074 C 0.61959 0.97411 0.40144 0.0
C1075 C 0.66103 0.96742 0.2857 0.0
C1076 C 0.64204 0.9735 0.3128 0.0
C1077 C 0.58727 0.9908 0.39458 0.0
C1078 C 0.60592 0.98462 0.36547 0.0
H1079 H 0.67987 0.94531 0.1556 0.0
H1080 H 0.64897 0.95747 0.19675 0.0
H1081 H 0.64755 0.96042 0.40439 0.0
H1082 H 0.55368 0.97415 0.49918 0.0
H1083 H 0.58167 0.96291 0.43932 0.0
C1084 C 0.56745 0.66435 0.13588 0.0
C1085 C 0.56603 0.68379 0.15609 0.0
C1086 C 0.55831 0.64944 0.1696 0.0
C1087 C 0.52108 0.63952 0.29296 0.0
H1088 H 0.55089 0.59199 0.31566 0.0
C1089 C 0.50295 0.58035 0.48009 0.0
C1090 C 0.50523 0.56082 0.46191 0.0
C1091 C 0.50852 0.59545 0.43947 0.0
C1092 C 0.54226 0.60506 0.3091 0.0
H1093 H 0.55351 0.7029 0.22667 0.0
H1094 H 0.53795 0.6768 0.28652 0.0
H1095 H 0.56402 0.61813 0.25091 0.0
H1096 H 0.51416 0.54179 0.38586 0.0
H1097 H 0.52412 0.56802 0.31526 0.0
H1098 H 0.49951 0.62643 0.35267 0.0
C1099 C 0.54585 0.6731 0.24398 0.0
C1100 C 0.54977 0.62006 0.27184 0.0
C1101 C 0.55487 0.68806 0.20989 0.0
C1102 C 0.51265 0.55667 0.4017 0.0
C1103 C 0.51828 0.57171 0.36122 0.0
C1104 C 0.5136 0.62451 0.33061 0.0
C1105 C 0.54769 0.65357 0.22472 0.0
C1106 C 0.5393 0.63749 0.26327 0.0
C1107 C 0.51658 0.59126 0.38003 0.0
C1108 C 0.52412 0.60712 0.33904 0.0
H1109 H 0.57576 0.66059 0.0942 0.0
H1110 H 0.55969 0.63463 0.1526 0.0
H1111 H 0.51253 0.65265 0.28676 0.0
H1112 H 0.49772 0.58399 0.52668 0.0
H1113 H 0.50724 0.61036 0.45562 0.0
C1114 C 0.84208 0.57763 0.1592 0.0
C1115 C 0.83064 0.56371 0.12775 0.0
C1116 C 0.85937 0.57218 0.18927 0.0
C1117 C 0.88413 0.5297 0.25911 0.0
H1118 H 0.92893 0.56412 0.25808 0.0
C1119 C 0.95465 0.5113 0.39612 0.0
C1120 C 0.96166 0.52647 0.43451 0.0
C1121 C 0.94037 0.51491 0.35041 0.0
C1122 C 0.91652 0.55438 0.2589 0.0
H1123 H 0.82862 0.53318 0.10203 0.0
H1124 H 0.85889 0.52368 0.15433 0.0
H1125 H 0.9005 0.57208 0.1937 0.0
H1126 H 0.96016 0.55764 0.45126 0.0
H1127 H 0.93537 0.5639 0.37202 0.0
H1128 H 0.90003 0.51218 0.32521 0.0
C1129 C 0.85432 0.53878 0.15647 0.0
C1130 C 0.90022 0.55895 0.22214 0.0
C1131 C 0.83699 0.54423 0.12643 0.0
C1132 C 0.95492 0.54552 0.42346 0.0
C1133 C 0.94077 0.54916 0.37753 0.0
C1134 C 0.90046 0.5251 0.29577 0.0
C1135 C 0.86567 0.55268 0.18847 0.0
C1136 C 0.88368 0.54687 0.22281 0.0
C1137 C 0.93305 0.53385 0.34136 0.0
C1138 C 0.91668 0.5376 0.29703 0.0
H1139 H 0.83763 0.59277 0.16108 0.0
H1140 H 0.86759 0.58321 0.2143 0.0
H1141 H 0.87156 0.52018 0.26124 0.0
H1142 H 0.95999 0.49655 0.40184 0.0
H1143 H 0.93495 0.50287 0.32244 0.0
loop_
_geom_bond_atom_site_label_1
_geom_bond_atom_site_label_2
_geom_bond_distance
_geom_bond_site_symmetry_2
_ccdc_geom_bond_type
O0 Cd1 2.300 . S
O0 C7 1.275 . S
Cd1 O0 2.300 . S
Cd1 O9 2.381 . S
Cd1 O10 2.378 . S
O2 Cd3 2.385 . S
O2 C7 1.255 . S
Cd3 O2 2.385 . S
Cd3 O4 2.317 . S
O4 Cd3 2.317 . S
O4 C5 1.232 . S
C5 O4 1.232 . S
C5 O6 1.218 . S
O6 C5 1.218 . S
C7 O0 1.275 . S
C7 O2 1.255 . S
C8 O9 1.258 . S
C8 O10 1.256 . S
O9 Cd1 2.381 . S
O9 C8 1.258 . S
O10 Cd1 2.378 . S
O10 C8 1.256 . S
O11 Cd12 2.300 . S
O11 C18 1.275 . S
Cd12 O11 2.300 . S
Cd12 O20 2.381 . S
Cd12 O21 2.378 . S
O13 Cd14 2.385 . S
O13 C18 1.255 . S
Cd14 O13 2.385 . S
Cd14 O15 2.317 . S
O15 Cd14 2.317 . S
O15 C16 1.232 . S
C16 O15 1.232 . S
C16 O17 1.218 . S
O17 C16 1.218 . S
C18 O11 1.275 . S
C18 O13 1.255 . S
C19 O20 1.258 . S
C19 O21 1.256 . S
O20 Cd12 2.381 . S
O20 C19 1.258 . S
O21 Cd12 2.378 . S
O21 C19 1.256 . S
O22 Cd23 2.300 . S
O22 C29 1.275 . S
Cd23 O22 2.300 . S
Cd23 O31 2.381 . S
Cd23 O32 2.378 . S
O24 Cd25 2.385 . S
O24 C29 1.255 . S
Cd25 O24 2.385 . S
Cd25 O26 2.317 . S
O26 Cd25 2.317 . S
O26 C27 1.232 . S
C27 O26 1.232 . S
C27 O28 1.218 . S
O28 C27 1.218 . S
C29 O22 1.275 . S
C29 O24 1.255 . S
C30 O31 1.258 . S
C30 O32 1.256 . S
O31 Cd23 2.381 . S
O31 C30 1.258 . S
O32 Cd23 2.378 . S
O32 C30 1.256 . S
O33 Cd34 2.300 . S
O33 C40 1.275 . S
Cd34 O33 2.300 . S
Cd34 O42 2.381 . S
Cd34 O43 2.378 . S
O35 Cd36 2.385 . S
O35 C40 1.255 . S
Cd36 O35 2.385 . S
Cd36 O37 2.317 . S
O37 Cd36 2.317 . S
O37 C38 1.232 . S
C38 O37 1.232 . S
C38 O39 1.218 . S
O39 C38 1.218 . S
C40 O33 1.275 . S
C40 O35 1.255 . S
C41 O42 1.258 . S
C41 O43 1.256 . S
O42 Cd34 2.381 . S
O42 C41 1.258 . S
O43 Cd34 2.378 . S
O43 C41 1.256 . S
O44 Cd45 2.300 . S
O44 C51 1.275 . S
Cd45 O44 2.300 . S
Cd45 O53 2.381 . S
Cd45 O54 2.378 . S
O46 Cd47 2.385 1_554 S
O46 C51 1.255 . S
Cd47 O46 2.385 1_556 S
Cd47 O48 2.317 . S
O48 Cd47 2.317 . S
O48 C49 1.232 . S
C49 O48 1.232 . S
C49 O50 1.218 . S
O50 C49 1.218 . S
C51 O44 1.275 . S
C51 O46 1.255 . S
C52 O53 1.258 . S
C52 O54 1.256 . S
O53 Cd45 2.381 . S
O53 C52 1.258 . S
O54 Cd45 2.378 . S
O54 C52 1.256 . S
O55 Cd56 2.300 . S
O55 C62 1.275 . S
Cd56 O55 2.300 . S
Cd56 O64 2.381 . S
Cd56 O65 2.378 . S
O57 Cd58 2.385 1_554 S
O57 C62 1.255 . S
Cd58 O57 2.385 1_556 S
Cd58 O59 2.317 . S
O59 Cd58 2.317 . S
O59 C60 1.232 . S
C60 O59 1.232 . S
C60 O61 1.218 . S
O61 C60 1.218 . S
C62 O55 1.275 . S
C62 O57 1.255 . S
C63 O64 1.258 . S
C63 O65 1.256 . S
O64 Cd56 2.381 . S
O64 C63 1.258 . S
O65 Cd56 2.378 . S
O65 C63 1.256 . S
O66 Cd67 2.300 . S
O66 C73 1.275 . S
Cd67 O66 2.300 . S
Cd67 O75 2.381 . S
Cd67 O76 2.378 . S
O68 Cd69 2.385 1_554 S
O68 C73 1.255 . S
Cd69 O68 2.385 1_556 S
Cd69 O70 2.317 . S
O70 Cd69 2.317 . S
O70 C71 1.232 . S
C71 O70 1.232 . S
C71 O72 1.218 . S
O72 C71 1.218 . S
C73 O66 1.275 . S
C73 O68 1.255 . S
C74 O75 1.258 . S
C74 O76 1.256 . S
O75 Cd67 2.381 . S
O75 C74 1.258 . S
O76 Cd67 2.378 . S
O76 C74 1.256 . S
O77 Cd78 2.300 . S
O77 C84 1.275 . S
Cd78 O77 2.300 . S
Cd78 O86 2.381 . S
Cd78 O87 2.378 . S
O79 Cd80 2.385 1_554 S
O79 C84 1.255 . S
Cd80 O79 2.385 1_556 S
Cd80 O81 2.317 . S
O81 Cd80 2.317 . S
O81 C82 1.232 . S
C82 O81 1.232 . S
C82 O83 1.218 . S
O83 C82 1.218 . S
C84 O77 1.275 . S
C84 O79 1.255 . S
C85 O86 1.258 . S
C85 O87 1.256 . S
O86 Cd78 2.381 . S
O86 C85 1.258 . S
O87 Cd78 2.378 . S
O87 C85 1.256 . S
Eu88 N119 2.657 1_565 S
Eu88 N126 2.615 . S
Eu88 O132 2.558 . S
Eu88 O133 2.612 1_455 S
Eu88 O135 2.348 1_455 S
Eu88 O136 2.563 . S
Eu88 O137 2.419 . S
Eu88 O139 2.380 1_565 S
Eu88 O140 2.432 . S
Eu88 C152 2.848 . S
C89 C92 1.429 . S
C89 C93 1.411 . S
C89 N96 1.377 . S
C90 C92 1.420 1_565 S
C90 C94 1.423 . S
C90 C102 1.392 . S
C91 C93 1.420 1_565 S
C91 C94 1.351 . S
C91 H114 0.931 . S
C92 C89 1.429 . S
C92 C90 1.420 1_545 S
C92 N100 1.362 . S
C93 C89 1.411 . S
C93 C91 1.420 1_545 S
C93 C98 1.395 . S
C94 C90 1.423 . S
C94 C91 1.351 . S
C94 H106 0.930 . S
C95 C97 1.400 . S
C95 C98 1.386 . S
C95 H107 0.930 . S
N96 C89 1.377 . S
N96 C97 1.321 . S
N96 Eu99 2.609 . S
C97 C95 1.400 . S
C97 N96 1.321 . S
C97 H104 0.930 . S
C98 C93 1.395 . S
C98 C95 1.386 . S
C98 H117 0.930 . S
Eu99 N96 2.609 . S
Eu99 N100 2.657 . S
Eu99 O133 2.380 1_545 S
Eu99 O134 2.432 . S
Eu99 O138 2.558 . S
Eu99 O139 2.612 1_655 S
Eu99 O141 2.339 1_655 S
Eu99 O142 2.563 1_655 S
Eu99 O143 2.421 . S
Eu99 C163 2.848 . S
N100 C92 1.362 . S
N100 Eu99 2.657 . S
N100 C101 1.334 1_645 S
C101 N100 1.334 1_465 S
C101 C103 1.413 . S
C101 H108 0.934 . S
C102 C90 1.392 . S
C102 C103 1.367 1_655 S
C102 H110 0.930 . S
C103 C101 1.413 . S
C103 C102 1.367 1_455 S
C103 H105 0.930 . S
H104 C97 0.930 . S
H105 C103 0.930 . S
H106 C94 0.930 . S
H107 C95 0.930 . S
H108 C101 0.934 . S
H109 C123 0.930 1_655 S
H110 C102 0.930 . S
H111 C129 0.930 . S
H112 C120 0.929 1_655 S
H113 C127 0.930 . S
H114 C91 0.931 . S
H115 C121 0.930 . S
H116 C154 0.930 . S
H117 C98 0.930 . S
H118 C153 0.931 . S
N119 Eu88 2.657 1_545 S
N119 C120 1.334 . S
N119 C124 1.362 . S
C120 H112 0.929 1_455 S
C120 N119 1.334 . S
C120 C123 1.413 . S
C121 H115 0.930 . S
C121 C122 1.392 . S
C121 C123 1.367 . S
C122 C121 1.392 . S
C122 C124 1.420 . S
C122 C154 1.423 . S
C123 H109 0.930 1_455 S
C123 C120 1.413 . S
C123 C121 1.367 . S
C124 N119 1.362 . S
C124 C122 1.420 . S
C124 C128 1.429 . S
H125 C130 0.930 . S
N126 Eu88 2.615 . S
N126 C128 1.363 1_565 S
N126 C129 1.334 . S
C127 H113 0.930 . S
C127 C129 1.400 . S
C127 C130 1.386 1_565 S
C128 C124 1.429 . S
C128 N126 1.363 1_545 S
C128 C131 1.411 . S
C129 H111 0.930 . S
C129 N126 1.334 . S
C129 C127 1.400 . S
C130 H125 0.930 . S
C130 C127 1.386 1_545 S
C130 C131 1.395 . S
C131 C128 1.411 . S
C131 C130 1.395 . S
C131 C153 1.420 . S
O132 Eu88 2.558 . S
O132 C152 1.257 . S
O133 Eu88 2.612 1_655 S
O133 Eu99 2.380 1_565 S
O133 C144 1.276 . S
O134 Eu99 2.432 . S
O134 C151 1.264 . S
O135 Eu88 2.348 1_655 S
O135 C151 1.240 1_565 S
O136 Eu88 2.563 . S
O136 C144 1.235 1_455 S
O137 Eu88 2.419 . S
O137 C152 1.249 . S
O138 Eu99 2.558 . S
O138 C163 1.257 . S
O139 Eu88 2.380 1_545 S
O139 Eu99 2.612 1_455 S
O139 C155 1.276 . S
O140 Eu88 2.432 . S
O140 C162 1.264 1_565 S
O141 Eu99 2.339 1_455 S
O141 C162 1.254 . S
O142 Eu99 2.563 1_455 S
O142 C155 1.235 . S
O143 Eu99 2.421 . S
O143 C163 1.256 . S
C144 O133 1.276 . S
C144 O136 1.235 1_655 S
C145 C147 1.393 . S
C145 C149 1.395 . S
C145 C152 1.492 . S
C146 C147 1.392 . S
C146 C148 1.386 . S
C147 C145 1.393 . S
C147 C146 1.392 . S
C147 H164 0.930 1_455 S
C148 C146 1.386 . S
C148 C150 1.395 . S
C148 H165 0.930 . S
C149 C145 1.395 . S
C149 C150 1.379 . S
C149 H166 0.930 . S
C150 C148 1.395 . S
C150 C149 1.379 . S
C150 H167 0.930 . S
C151 O134 1.264 . S
C151 O135 1.240 1_545 S
C152 Eu88 2.848 . S
C152 O132 1.257 . S
C152 O137 1.249 . S
C152 C145 1.492 . S
C153 H118 0.931 . S
C153 C131 1.420 . S
C153 C154 1.351 . S
C154 H116 0.930 . S
C154 C122 1.423 . S
C154 C153 1.351 . S
C155 O139 1.276 . S
C155 O142 1.235 . S
C156 C157 1.349 1_655 S
C156 C160 1.395 . S
C156 C163 1.492 . S
C157 C156 1.349 1_455 S
C157 C158 1.392 . S
C157 H168 0.976 . S
C158 C157 1.392 . S
C158 C159 1.384 1_455 S
C159 C158 1.384 1_655 S
C159 C161 1.395 . S
C159 H169 0.930 . S
C160 C156 1.395 . S
C160 C161 1.379 . S
C160 H170 0.930 . S
C161 C159 1.395 . S
C161 C160 1.379 . S
C161 H171 0.930 . S
C162 O140 1.264 1_545 S
C162 O141 1.254 . S
C163 Eu99 2.848 . S
C163 O138 1.257 . S
C163 O143 1.256 . S
C163 C156 1.492 . S
H164 C147 0.930 1_655 S
H165 C148 0.930 . S
H166 C149 0.930 . S
H167 C150 0.930 . S
H168 C157 0.976 . S
H169 C159 0.930 . S
H170 C160 0.930 . S
H171 C161 0.930 . S
Eu172 N203 2.657 . S
Eu172 N210 2.609 . S
Eu172 O216 2.558 . S
Eu172 O217 2.611 . S
Eu172 O219 2.339 1_545 S
Eu172 O220 2.563 . S
Eu172 O221 2.419 . S
Eu172 O223 2.380 . S
Eu172 O224 2.432 . S
Eu172 C236 2.848 . S
C173 C176 1.429 . S
C173 C177 1.411 . S
C173 N180 1.377 . S
C174 C176 1.420 . S
C174 C178 1.423 . S
C174 C186 1.392 . S
C175 C177 1.420 . S
C175 C178 1.351 . S
C175 H198 0.931 . S
C176 C173 1.429 . S
C176 C174 1.420 . S
C176 N184 1.362 . S
C177 C173 1.411 . S
C177 C175 1.420 . S
C177 C182 1.395 . S
C178 C174 1.423 . S
C178 C175 1.351 . S
C178 H190 0.930 . S
C179 C181 1.400 . S
C179 C182 1.386 . S
C179 H191 0.930 . S
N180 C173 1.377 . S
N180 C181 1.321 . S
N180 Eu183 2.609 . S
C181 C179 1.400 . S
C181 N180 1.321 . S
C181 H188 0.930 . S
C182 C177 1.395 . S
C182 C179 1.386 . S
C182 H201 0.930 . S
Eu183 N180 2.609 . S
Eu183 N184 2.657 . S
Eu183 O217 2.381 1_565 S
Eu183 O218 2.432 . S
Eu183 O222 2.558 . S
Eu183 O223 2.612 1_565 S
Eu183 O225 2.339 1_565 S
Eu183 O226 2.563 1_565 S
Eu183 O227 2.419 1_565 S
Eu183 C247 2.848 . S
N184 C176 1.362 . S
N184 Eu183 2.657 . S
N184 C185 1.334 1_565 S
C185 N184 1.334 1_545 S
C185 C187 1.413 . S
C185 H192 0.929 . S
C186 C174 1.392 . S
C186 C187 1.367 1_565 S
C186 H194 0.930 . S
C187 C185 1.413 . S
C187 C186 1.367 1_545 S
C187 H189 0.930 . S
H188 C181 0.930 . S
H189 C187 0.930 . S
H190 C178 0.930 . S
H191 C179 0.930 . S
H192 C185 0.929 . S
H193 C207 0.930 1_565 S
H194 C186 0.930 . S
H195 C213 0.930 . S
H196 C204 0.929 1_565 S
H197 C211 0.930 . S
H198 C175 0.931 . S
H199 C205 0.930 . S
H200 C238 0.930 . S
H201 C182 0.930 . S
H202 C237 0.931 . S
N203 Eu172 2.657 . S
N203 C204 1.334 . S
N203 C208 1.362 . S
C204 H196 0.929 1_545 S
C204 N203 1.334 . S
C204 C207 1.413 . S
C205 H199 0.930 . S
C205 C206 1.392 . S
C205 C207 1.367 . S
C206 C205 1.392 . S
C206 C208 1.420 . S
C206 C238 1.423 . S
C207 H193 0.930 1_545 S
C207 C204 1.413 . S
C207 C205 1.367 . S
C208 N203 1.362 . S
C208 C206 1.420 . S
C208 C212 1.429 . S
H209 C214 0.930 . S
N210 Eu172 2.609 . S
N210 C212 1.377 . S
N210 C213 1.321 . S
C211 H197 0.930 . S
C211 C213 1.400 . S
C211 C214 1.386 . S
C212 C208 1.429 . S
C212 N210 1.377 . S
C212 C215 1.411 . S
C213 H195 0.930 . S
C213 N210 1.321 . S
C213 C211 1.400 . S
C214 H209 0.930 . S
C214 C211 1.386 . S
C214 C215 1.395 . S
C215 C212 1.411 . S
C215 C214 1.395 . S
C215 C237 1.420 . S
O216 Eu172 2.558 . S
O216 C236 1.257 . S
O217 Eu172 2.611 . S
O217 Eu183 2.381 1_545 S
O217 C228 1.276 . S
O218 Eu183 2.432 . S
O218 C235 1.264 . S
O219 Eu172 2.339 1_565 S
O219 C235 1.254 . S
O220 Eu172 2.563 . S
O220 C228 1.244 . S
O221 Eu172 2.419 . S
O221 C236 1.249 . S
O222 Eu183 2.558 . S
O222 C247 1.257 . S
O223 Eu172 2.380 . S
O223 Eu183 2.612 1_545 S
O223 C239 1.276 . S
O224 Eu172 2.432 . S
O224 C246 1.264 . S
O225 Eu183 2.339 1_545 S
O225 C246 1.254 . S
O226 Eu183 2.563 1_545 S
O226 C239 1.235 . S
O227 Eu183 2.419 1_545 S
O227 C247 1.249 1_545 S
C228 O217 1.276 . S
C228 O220 1.244 . S
C229 C231 1.393 . S
C229 C233 1.395 . S
C229 C236 1.492 . S
C230 C231 1.392 . S
C230 C232 1.386 . S
C231 C229 1.393 . S
C231 C230 1.392 . S
C231 H248 0.930 . S
C232 C230 1.386 . S
C232 C234 1.395 . S
C232 H249 0.930 . S
C233 C229 1.395 . S
C233 C234 1.379 . S
C233 H250 0.930 . S
C234 C232 1.395 . S
C234 C233 1.379 . S
C234 H251 0.930 . S
C235 O218 1.264 . S
C235 O219 1.254 . S
C236 Eu172 2.848 . S
C236 O216 1.257 . S
C236 O221 1.249 . S
C236 C229 1.492 . S
C237 H202 0.931 . S
C237 C215 1.420 . S
C237 C238 1.351 . S
C238 H200 0.930 . S
C238 C206 1.423 . S
C238 C237 1.351 . S
C239 O223 1.276 . S
C239 O226 1.235 . S
C240 C241 1.393 1_565 S
C240 C244 1.395 . S
C240 C247 1.492 . S
C241 C240 1.393 1_545 S
C241 C242 1.392 . S
C241 H252 0.930 . S
C242 C241 1.392 . S
C242 C243 1.386 1_545 S
C243 C242 1.386 1_565 S
C243 C245 1.395 . S
C243 H253 0.930 . S
C244 C240 1.395 . S
C244 C245 1.379 . S
C244 H254 0.930 . S
C245 C243 1.395 . S
C245 C244 1.379 . S
C245 H255 0.930 . S
C246 O224 1.264 . S
C246 O225 1.254 . S
C247 Eu183 2.848 . S
C247 O222 1.257 . S
C247 O227 1.249 1_565 S
C247 C240 1.492 . S
H248 C231 0.930 . S
H249 C232 0.930 . S
H250 C233 0.930 . S
H251 C234 0.930 . S
H252 C241 0.930 . S
H253 C243 0.930 . S
H254 C244 0.930 . S
H255 C245 0.930 . S
Eu256 N287 2.657 . S
Eu256 N294 2.609 . S
Eu256 O300 2.558 . S
Eu256 O301 2.612 . S
Eu256 O303 2.339 . S
Eu256 O304 2.563 . S
Eu256 O305 2.419 . S
Eu256 O307 2.380 . S
Eu256 O308 2.432 . S
Eu256 C320 2.848 . S
C257 C260 1.429 . S
C257 C261 1.411 . S
C257 N264 1.377 . S
C258 C260 1.420 . S
C258 C262 1.423 . S
C258 C270 1.392 . S
C259 C261 1.420 . S
C259 C262 1.351 . S
C259 H282 0.931 . S
C260 C257 1.429 . S
C260 C258 1.420 . S
C260 N268 1.362 . S
C261 C257 1.411 . S
C261 C259 1.420 . S
C261 C266 1.395 . S
C262 C258 1.423 . S
C262 C259 1.351 . S
C262 H274 0.930 . S
C263 C265 1.400 . S
C263 C266 1.386 . S
C263 H275 0.930 . S
N264 C257 1.377 . S
N264 C265 1.321 . S
N264 Eu267 2.609 . S
C265 C263 1.400 . S
C265 N264 1.321 . S
C265 H272 0.930 . S
C266 C261 1.395 . S
C266 C263 1.386 . S
C266 H285 0.930 . S
Eu267 N264 2.609 . S
Eu267 N268 2.657 . S
Eu267 O301 2.380 . S
Eu267 O302 2.432 . S
Eu267 O306 2.558 . S
Eu267 O307 2.612 . S
Eu267 O309 2.339 . S
Eu267 O310 2.563 . S
Eu267 O311 2.419 . S
Eu267 C331 2.848 . S
N268 C260 1.362 . S
N268 Eu267 2.657 . S
N268 C269 1.334 . S
C269 N268 1.334 . S
C269 C271 1.413 . S
C269 H276 0.929 . S
C270 C258 1.392 . S
C270 C271 1.367 . S
C270 H278 0.930 . S
C271 C269 1.413 . S
C271 C270 1.367 . S
C271 H273 0.930 . S
H272 C265 0.930 . S
H273 C271 0.930 . S
H274 C262 0.930 . S
H275 C263 0.930 . S
H276 C269 0.929 . S
H277 C291 0.930 . S
H278 C270 0.930 . S
H279 C297 0.930 . S
H280 C288 0.929 . S
H281 C295 0.930 . S
H282 C259 0.931 . S
H283 C289 0.930 . S
H284 C322 0.930 . S
H285 C266 0.930 . S
H286 C321 0.931 . S
N287 Eu256 2.657 . S
N287 C288 1.334 . S
N287 C292 1.362 . S
C288 H280 0.929 . S
C288 N287 1.334 . S
C288 C291 1.413 . S
C289 H283 0.930 . S
C289 C290 1.392 . S
C289 C291 1.367 . S
C290 C289 1.392 . S
C290 C292 1.420 . S
C290 C322 1.423 . S
C291 H277 0.930 . S
C291 C288 1.413 . S
C291 C289 1.367 . S
C292 N287 1.362 . S
C292 C290 1.420 . S
C292 C296 1.429 . S
H293 C298 0.930 . S
N294 Eu256 2.609 . S
N294 C296 1.377 . S
N294 C297 1.321 . S
C295 H281 0.930 . S
C295 C297 1.400 . S
C295 C298 1.386 . S
C296 C292 1.429 . S
C296 N294 1.377 . S
C296 C299 1.411 . S
C297 H279 0.930 . S
C297 N294 1.321 . S
C297 C295 1.400 . S
C298 H293 0.930 . S
C298 C295 1.386 . S
C298 C299 1.395 . S
C299 C296 1.411 . S
C299 C298 1.395 . S
C299 C321 1.420 . S
O300 Eu256 2.558 . S
O300 C320 1.257 . S
O301 Eu256 2.612 . S
O301 Eu267 2.380 . S
O301 C312 1.276 . S
O302 Eu267 2.432 . S
O302 C319 1.264 . S
O303 Eu256 2.339 . S
O303 C319 1.254 . S
O304 Eu256 2.563 . S
O304 C312 1.235 . S
O305 Eu256 2.419 . S
O305 C320 1.249 . S
O306 Eu267 2.558 . S
O306 C331 1.257 . S
O307 Eu256 2.380 . S
O307 Eu267 2.612 . S
O307 C323 1.276 . S
O308 Eu256 2.432 . S
O308 C330 1.264 . S
O309 Eu267 2.339 . S
O309 C330 1.254 . S
O310 Eu267 2.563 . S
O310 C323 1.235 . S
O311 Eu267 2.419 . S
O311 C331 1.249 . S
C312 O301 1.276 . S
C312 O304 1.235 . S
C313 C315 1.393 . S
C313 C317 1.395 . S
C313 C320 1.492 . S
C314 C315 1.392 . S
C314 C316 1.386 . S
C315 C313 1.393 . S
C315 C314 1.392 . S
C315 H332 0.930 . S
C316 C314 1.386 . S
C316 C318 1.395 . S
C316 H333 0.930 . S
C317 C313 1.395 . S
C317 C318 1.379 . S
C317 H334 0.930 . S
C318 C316 1.395 . S
C318 C317 1.379 . S
C318 H335 0.930 . S
C319 O302 1.264 . S
C319 O303 1.254 . S
C320 Eu256 2.848 . S
C320 O300 1.257 . S
C320 O305 1.249 . S
C320 C313 1.492 . S
C321 H286 0.931 . S
C321 C299 1.420 . S
C321 C322 1.351 . S
C322 H284 0.930 . S
C322 C290 1.423 . S
C322 C321 1.351 . S
C323 O307 1.276 . S
C323 O310 1.235 . S
C324 C325 1.393 . S
C324 C328 1.395 . S
C324 C331 1.492 . S
C325 C324 1.393 . S
C325 C326 1.392 . S
C325 H336 0.930 . S
C326 C325 1.392 . S
C326 C327 1.386 . S
C327 C326 1.386 . S
C327 C329 1.395 . S
C327 H337 0.930 . S
C328 C324 1.395 . S
C328 C329 1.379 . S
C328 H338 0.930 . S
C329 C327 1.395 . S
C329 C328 1.379 . S
C329 H339 0.930 . S
C330 O308 1.264 . S
C330 O309 1.254 . S
C331 Eu267 2.848 . S
C331 O306 1.257 . S
C331 O311 1.249 . S
C331 C324 1.492 . S
H332 C315 0.930 . S
H333 C316 0.930 . S
H334 C317 0.930 . S
H335 C318 0.930 . S
H336 C325 0.930 . S
H337 C327 0.930 . S
H338 C328 0.930 . S
H339 C329 0.930 . S
Eu340 N371 2.657 . S
Eu340 N378 2.609 . S
Eu340 O384 2.558 . S
Eu340 O385 2.612 . S
Eu340 O387 2.339 . S
Eu340 O388 2.563 . S
Eu340 O389 2.419 . S
Eu340 O391 2.380 . S
Eu340 O392 2.432 1_455 S
Eu340 C404 2.848 . S
C341 C344 1.429 . S
C341 C345 1.411 . S
C341 N348 1.377 . S
C342 C344 1.420 . S
C342 C346 1.423 . S
C342 C354 1.392 . S
C343 C345 1.420 . S
C343 C346 1.351 . S
C343 H366 0.931 . S
C344 C341 1.429 . S
C344 C342 1.420 . S
C344 N352 1.362 . S
C345 C341 1.411 . S
C345 C343 1.420 . S
C345 C350 1.395 . S
C346 C342 1.423 . S
C346 C343 1.351 . S
C346 H358 0.930 . S
C347 C349 1.400 . S
C347 C350 1.386 1_455 S
C347 H359 0.930 . S
N348 C341 1.377 . S
N348 C349 1.321 1_655 S
N348 Eu351 2.609 . S
C349 C347 1.400 . S
C349 N348 1.321 1_455 S
C349 H356 0.930 . S
C350 C345 1.395 . S
C350 C347 1.386 1_655 S
C350 H369 0.930 . S
Eu351 N348 2.609 . S
Eu351 N352 2.657 . S
Eu351 O385 2.380 1_655 S
Eu351 O386 2.432 1_655 S
Eu351 O390 2.558 . S
Eu351 O391 2.612 1_655 S
Eu351 O393 2.339 . S
Eu351 O394 2.563 . S
Eu351 O395 2.419 . S
Eu351 C415 2.848 . S
N352 C344 1.362 . S
N352 Eu351 2.657 . S
N352 C353 1.334 . S
C353 N352 1.334 . S
C353 C355 1.413 . S
C353 H360 0.929 . S
C354 C342 1.392 . S
C354 C355 1.367 . S
C354 H362 0.930 . S
C355 C353 1.413 . S
C355 C354 1.367 . S
C355 H357 0.930 . S
H356 C349 0.930 . S
H357 C355 0.930 . S
H358 C346 0.930 . S
H359 C347 0.930 . S
H360 C353 0.929 . S
H361 C375 0.930 . S
H362 C354 0.930 . S
H363 C381 0.930 1_655 S
H364 C372 0.929 . S
H365 C379 0.930 1_655 S
H366 C343 0.931 . S
H367 C373 0.930 . S
H368 C406 0.930 . S
H369 C350 0.930 . S
H370 C405 0.931 . S
N371 Eu340 2.657 . S
N371 C372 1.334 . S
N371 C376 1.362 . S
C372 H364 0.929 . S
C372 N371 1.334 . S
C372 C375 1.413 . S
C373 H367 0.930 . S
C373 C374 1.392 . S
C373 C375 1.367 . S
C374 C373 1.392 . S
C374 C376 1.420 . S
C374 C406 1.423 . S
C375 H361 0.930 . S
C375 C372 1.413 . S
C375 C373 1.367 . S
C376 N371 1.362 . S
C376 C374 1.420 . S
C376 C380 1.429 . S
H377 C382 0.930 . S
N378 Eu340 2.609 . S
N378 C380 1.377 . S
N378 C381 1.321 . S
C379 H365 0.930 1_455 S
C379 C381 1.400 . S
C379 C382 1.386 . S
C380 C376 1.429 . S
C380 N378 1.377 . S
C380 C383 1.411 . S
C381 H363 0.930 1_455 S
C381 N378 1.321 . S
C381 C379 1.400 . S
C382 H377 0.930 . S
C382 C379 1.386 . S
C382 C383 1.395 . S
C383 C380 1.411 . S
C383 C382 1.395 . S
C383 C405 1.420 . S
O384 Eu340 2.558 . S
O384 C404 1.257 . S
O385 Eu340 2.612 . S
O385 Eu351 2.380 1_455 S
O385 C396 1.276 . S
O386 Eu351 2.432 1_455 S
O386 C403 1.264 . S
O387 Eu340 2.339 . S
O387 C403 1.254 . S
O388 Eu340 2.563 . S
O388 C396 1.235 . S
O389 Eu340 2.419 . S
O389 C404 1.249 . S
O390 Eu351 2.558 . S
O390 C415 1.257 . S
O391 Eu340 2.380 . S
O391 Eu351 2.612 1_455 S
O391 C407 1.276 1_455 S
O392 Eu340 2.432 1_655 S
O392 C414 1.264 . S
O393 Eu351 2.339 . S
O393 C414 1.254 . S
O394 Eu351 2.563 . S
O394 C407 1.235 . S
O395 Eu351 2.419 . S
O395 C415 1.249 . S
C396 O385 1.276 . S
C396 O388 1.235 . S
C397 C399 1.393 . S
C397 C401 1.395 . S
C397 C404 1.492 . S
C398 C399 1.392 . S
C398 C400 1.386 . S
C399 C397 1.393 . S
C399 C398 1.392 . S
C399 H416 0.930 . S
C400 C398 1.386 . S
C400 C402 1.395 . S
C400 H417 0.930 . S
C401 C397 1.395 . S
C401 C402 1.379 . S
C401 H418 0.930 . S
C402 C400 1.395 . S
C402 C401 1.379 . S
C402 H419 0.930 . S
C403 O386 1.264 . S
C403 O387 1.254 . S
C404 Eu340 2.848 . S
C404 O384 1.257 . S
C404 O389 1.249 . S
C404 C397 1.492 . S
C405 H370 0.931 . S
C405 C383 1.420 . S
C405 C406 1.351 . S
C406 H368 0.930 . S
C406 C374 1.423 . S
C406 C405 1.351 . S
C407 O391 1.276 1_655 S
C407 O394 1.235 . S
C408 C409 1.393 . S
C408 C412 1.395 . S
C408 C415 1.492 . S
C409 C408 1.393 . S
C409 C410 1.392 . S
C409 H420 0.930 . S
C410 C409 1.392 . S
C410 C411 1.386 . S
C411 C410 1.386 . S
C411 C413 1.395 . S
C411 H421 0.930 . S
C412 C408 1.395 . S
C412 C413 1.379 . S
C412 H422 0.930 . S
C413 C411 1.395 . S
C413 C412 1.379 . S
C413 H423 0.930 . S
C414 O392 1.264 . S
C414 O393 1.254 . S
C415 Eu351 2.848 . S
C415 O390 1.257 . S
C415 O395 1.249 . S
C415 C408 1.492 . S
H416 C399 0.930 . S
H417 C400 0.930 . S
H418 C401 0.930 . S
H419 C402 0.930 . S
H420 C409 0.930 . S
H421 C411 0.930 . S
H422 C412 0.930 . S
H423 C413 0.930 . S
C424 C425 1.349 . S
C424 C426 1.327 . S
C424 H449 0.950 . S
C425 C424 1.349 . S
C425 C441 1.349 . S
C426 C424 1.327 . S
C426 C445 1.429 . S
C426 H450 0.950 . S
C427 C444 1.574 . S
C427 C446 1.368 . S
C427 H451 0.949 . S
H428 C432 0.949 . S
C429 C430 1.349 . S
C429 C431 1.327 . S
C429 H452 0.950 . S
C430 C429 1.349 . S
C430 C442 1.349 . S
C431 C429 1.327 . S
C431 C447 1.429 . S
C431 H453 0.950 . S
C432 H428 0.949 . S
C432 C440 1.574 . S
C432 C448 1.368 . S
H433 C441 0.950 . S
H434 C439 0.950 . S
H435 C440 0.949 . S
H436 C442 0.950 . S
H437 C443 0.950 . S
H438 C444 0.949 . S
C439 H434 0.950 . S
C439 C441 1.327 . S
C439 C445 1.429 . S
C440 C432 1.574 . S
C440 H435 0.949 . S
C440 C446 1.368 . S
C441 C425 1.349 . S
C441 H433 0.950 . S
C441 C439 1.327 . S
C442 C430 1.349 . S
C442 H436 0.950 . S
C442 C443 1.327 . S
C443 H437 0.950 . S
C443 C442 1.327 . S
C443 C447 1.429 . S
C444 C427 1.574 . S
C444 H438 0.949 . S
C444 C448 1.368 . S
C445 C426 1.429 . S
C445 C439 1.429 . S
C445 C446 1.523 . S
C446 C427 1.368 . S
C446 C440 1.368 . S
C446 C445 1.523 . S
C447 C431 1.429 . S
C447 C443 1.429 . S
C447 C448 1.523 . S
C448 C432 1.368 . S
C448 C444 1.368 . S
C448 C447 1.523 . S
H449 C424 0.950 . S
H450 C426 0.950 . S
H451 C427 0.949 . S
H452 C429 0.950 . S
H453 C431 0.950 . S
C454 C455 1.349 . S
C454 C456 1.327 . S
C454 H479 0.950 . S
C455 C454 1.349 . S
C455 C471 1.349 . S
C456 C454 1.327 . S
C456 C475 1.429 . S
C456 H480 0.950 . S
C457 C474 1.574 . S
C457 C476 1.368 . S
C457 H481 0.949 . S
H458 C462 0.949 . S
C459 C460 1.349 . S
C459 C461 1.327 . S
C459 H482 0.950 . S
C460 C459 1.349 . S
C460 C472 1.349 . S
C461 C459 1.327 . S
C461 C477 1.429 . S
C461 H483 0.950 . S
C462 H458 0.949 . S
C462 C470 1.574 . S
C462 C478 1.368 . S
H463 C471 0.950 . S
H464 C469 0.950 . S
H465 C470 0.949 . S
H466 C472 0.950 . S
H467 C473 0.950 . S
H468 C474 0.949 . S
C469 H464 0.950 . S
C469 C471 1.327 . S
C469 C475 1.429 . S
C470 C462 1.574 . S
C470 H465 0.949 . S
C470 C476 1.368 . S
C471 C455 1.349 . S
C471 H463 0.950 . S
C471 C469 1.327 . S
C472 C460 1.349 . S
C472 H466 0.950 . S
C472 C473 1.327 . S
C473 H467 0.950 . S
C473 C472 1.327 . S
C473 C477 1.429 . S
C474 C457 1.574 . S
C474 H468 0.949 . S
C474 C478 1.368 . S
C475 C456 1.429 . S
C475 C469 1.429 . S
C475 C476 1.523 . S
C476 C457 1.368 . S
C476 C470 1.368 . S
C476 C475 1.523 . S
C477 C461 1.429 . S
C477 C473 1.429 . S
C477 C478 1.523 . S
C478 C462 1.368 . S
C478 C474 1.368 . S
C478 C477 1.523 . S
H479 C454 0.950 . S
H480 C456 0.950 . S
H481 C457 0.949 . S
H482 C459 0.950 . S
H483 C461 0.950 . S
C484 C485 1.349 . S
C484 C486 1.327 . S
C484 H509 0.950 . S
C485 C484 1.349 . S
C485 C501 1.349 . S
C486 C484 1.327 . S
C486 C505 1.429 . S
C486 H510 0.950 . S
C487 C504 1.574 . S
C487 C506 1.368 . S
C487 H511 0.949 . S
H488 C492 0.949 . S
C489 C490 1.349 . S
C489 C491 1.327 . S
C489 H512 0.950 . S
C490 C489 1.349 . S
C490 C502 1.349 . S
C491 C489 1.327 . S
C491 C507 1.429 . S
C491 H513 0.950 . S
C492 H488 0.949 . S
C492 C500 1.574 . S
C492 C508 1.368 . S
H493 C501 0.950 . S
H494 C499 0.950 . S
H495 C500 0.949 . S
H496 C502 0.950 . S
H497 C503 0.950 . S
H498 C504 0.949 . S
C499 H494 0.950 . S
C499 C501 1.327 . S
C499 C505 1.429 . S
C500 C492 1.574 . S
C500 H495 0.949 . S
C500 C506 1.368 . S
C501 C485 1.349 . S
C501 H493 0.950 . S
C501 C499 1.327 . S
C502 C490 1.349 . S
C502 H496 0.950 . S
C502 C503 1.327 . S
C503 H497 0.950 . S
C503 C502 1.327 . S
C503 C507 1.429 . S
C504 C487 1.574 . S
C504 H498 0.949 . S
C504 C508 1.368 . S
C505 C486 1.429 . S
C505 C499 1.429 . S
C505 C506 1.523 . S
C506 C487 1.368 . S
C506 C500 1.368 . S
C506 C505 1.523 . S
C507 C491 1.429 . S
C507 C503 1.429 . S
C507 C508 1.523 . S
C508 C492 1.368 . S
C508 C504 1.368 . S
C508 C507 1.523 . S
H509 C484 0.950 . S
H510 C486 0.950 . S
H511 C487 0.949 . S
H512 C489 0.950 . S
H513 C491 0.950 . S
C514 C515 1.349 . S
C514 C516 1.327 . S
C514 H539 0.950 . S
C515 C514 1.349 . S
C515 C531 1.349 . S
C516 C514 1.327 . S
C516 C535 1.429 . S
C516 H540 0.950 . S
C517 C534 1.574 . S
C517 C536 1.368 . S
C517 H541 0.949 . S
H518 C522 0.949 . S
C519 C520 1.349 . S
C519 C521 1.327 . S
C519 H542 0.950 . S
C520 C519 1.349 . S
C520 C532 1.349 . S
C521 C519 1.327 . S
C521 C537 1.429 . S
C521 H543 0.950 . S
C522 H518 0.949 . S
C522 C530 1.574 . S
C522 C538 1.368 . S
H523 C531 0.950 . S
H524 C529 0.950 . S
H525 C530 0.949 . S
H526 C532 0.950 . S
H527 C533 0.950 . S
H528 C534 0.949 . S
C529 H524 0.950 . S
C529 C531 1.327 . S
C529 C535 1.429 . S
C530 C522 1.574 . S
C530 H525 0.949 . S
C530 C536 1.368 . S
C531 C515 1.349 . S
C531 H523 0.950 . S
C531 C529 1.327 . S
C532 C520 1.349 . S
C532 H526 0.950 . S
C532 C533 1.327 . S
C533 H527 0.950 . S
C533 C532 1.327 . S
C533 C537 1.429 . S
C534 C517 1.574 . S
C534 H528 0.949 . S
C534 C538 1.368 . S
C535 C516 1.429 . S
C535 C529 1.429 . S
C535 C536 1.523 . S
C536 C517 1.368 . S
C536 C530 1.368 . S
C536 C535 1.523 . S
C537 C521 1.429 . S
C537 C533 1.429 . S
C537 C538 1.523 . S
C538 C522 1.368 . S
C538 C534 1.368 . S
C538 C537 1.523 . S
H539 C514 0.950 . S
H540 C516 0.950 . S
H541 C517 0.949 . S
H542 C519 0.950 . S
H543 C521 0.950 . S
C544 C545 1.349 . S
C544 C546 1.327 . S
C544 H569 0.950 . S
C545 C544 1.349 . S
C545 C561 1.349 1_554 S
C546 C544 1.327 . S
C546 C565 1.429 1_554 S
C546 H570 0.950 . S
C547 C564 1.574 . S
C547 C566 1.368 . S
C547 H571 0.949 . S
H548 C552 0.949 . S
C549 C550 1.349 . S
C549 C551 1.327 . S
C549 H572 0.950 . S
C550 C549 1.349 . S
C550 C562 1.349 . S
C551 C549 1.327 . S
C551 C567 1.429 . S
C551 H573 0.950 . S
C552 H548 0.949 . S
C552 C560 1.574 . S
C552 C568 1.368 . S
H553 C561 0.950 . S
H554 C559 0.950 . S
H555 C560 0.949 . S
H556 C562 0.955 . S
H557 C563 0.950 . S
H558 C564 0.949 . S
C559 H554 0.950 . S
C559 C561 1.327 . S
C559 C565 1.429 . S
C560 C552 1.574 . S
C560 H555 0.949 . S
C560 C566 1.368 . S
C561 C545 1.349 1_556 S
C561 H553 0.950 . S
C561 C559 1.327 . S
C562 C550 1.349 . S
C562 H556 0.955 . S
C562 C563 1.327 . S
C563 H557 0.950 . S
C563 C562 1.327 . S
C563 C567 1.429 . S
C564 C547 1.574 . S
C564 H558 0.949 . S
C564 C568 1.368 . S
C565 C546 1.429 1_556 S
C565 C559 1.429 . S
C565 C566 1.523 . S
C566 C547 1.368 . S
C566 C560 1.368 . S
C566 C565 1.523 . S
C567 C551 1.429 . S
C567 C563 1.429 . S
C567 C568 1.523 . S
C568 C552 1.368 . S
C568 C564 1.368 . S
C568 C567 1.523 . S
H569 C544 0.950 . S
H570 C546 0.950 . S
H571 C547 0.949 . S
H572 C549 0.950 . S
H573 C551 0.950 . S
C574 C575 1.349 . S
C574 C576 1.327 1_554 S
C574 H599 0.950 . S
C575 C574 1.349 . S
C575 C591 1.349 . S
C576 C574 1.327 1_556 S
C576 C595 1.429 . S
C576 H600 0.950 . S
C577 C594 1.574 . S
C577 C596 1.368 . S
C577 H601 0.949 . S
H578 C582 0.949 . S
C579 C580 1.349 . S
C579 C581 1.327 . S
C579 H602 0.950 . S
C580 C579 1.349 . S
C580 C592 1.349 . S
C581 C579 1.327 . S
C581 C597 1.429 . S
C581 H603 0.950 . S
C582 H578 0.949 . S
C582 C590 1.574 . S
C582 C598 1.368 . S
H583 C591 0.950 . S
H584 C589 0.950 . S
H585 C590 0.949 . S
H586 C592 0.950 . S
H587 C593 0.950 . S
H588 C594 0.949 . S
C589 H584 0.950 . S
C589 C591 1.320 1_556 S
C589 C595 1.436 . S
C590 C582 1.574 . S
C590 H585 0.949 . S
C590 C596 1.368 . S
C591 C575 1.349 . S
C591 H583 0.950 . S
C591 C589 1.320 1_554 S
C592 C580 1.349 . S
C592 H586 0.950 . S
C592 C593 1.327 . S
C593 H587 0.950 . S
C593 C592 1.327 . S
C593 C597 1.429 . S
C594 C577 1.574 . S
C594 H588 0.949 . S
C594 C598 1.368 . S
C595 C576 1.429 . S
C595 C589 1.436 . S
C595 C596 1.523 . S
C596 C577 1.368 . S
C596 C590 1.368 . S
C596 C595 1.523 . S
C597 C581 1.429 . S
C597 C593 1.429 . S
C597 C598 1.523 . S
C598 C582 1.368 . S
C598 C594 1.368 . S
C598 C597 1.523 . S
H599 C574 0.950 . S
H600 C576 0.950 . S
H601 C577 0.949 . S
H602 C579 0.950 . S
H603 C581 0.950 . S
C604 C605 1.349 . S
C604 C606 1.327 . S
C604 H629 0.950 . S
C605 C604 1.349 . S
C605 C621 1.349 1_554 S
C606 C604 1.327 . S
C606 C625 1.429 1_554 S
C606 H630 0.950 . S
C607 C624 1.574 . S
C607 C626 1.368 . S
C607 H631 0.949 . S
H608 C612 0.949 . S
C609 C610 1.349 . S
C609 C611 1.327 . S
C609 H632 0.950 . S
C610 C609 1.349 . S
C610 C622 1.349 . S
C611 C609 1.327 . S
C611 C627 1.429 . S
C611 H633 0.950 . S
C612 H608 0.949 . S
C612 C620 1.574 . S
C612 C628 1.368 . S
H613 C621 0.950 . S
H614 C619 0.950 . S
H615 C620 0.949 . S
H616 C622 0.950 . S
H617 C623 0.950 . S
H618 C624 0.949 . S
C619 H614 0.950 . S
C619 C621 1.327 . S
C619 C625 1.429 . S
C620 C612 1.574 . S
C620 H615 0.949 . S
C620 C626 1.368 . S
C621 C605 1.349 1_556 S
C621 H613 0.950 . S
C621 C619 1.327 . S
C622 C610 1.349 . S
C622 H616 0.950 . S
C622 C623 1.327 . S
C623 H617 0.950 . S
C623 C622 1.327 . S
C623 C627 1.429 . S
C624 C607 1.574 . S
C624 H618 0.949 . S
C624 C628 1.368 . S
C625 C606 1.429 1_556 S
C625 C619 1.429 . S
C625 C626 1.523 . S
C626 C607 1.368 . S
C626 C620 1.368 . S
C626 C625 1.523 . S
C627 C611 1.429 . S
C627 C623 1.429 . S
C627 C628 1.523 . S
C628 C612 1.368 . S
C628 C624 1.368 . S
C628 C627 1.523 . S
H629 C604 0.950 . S
H630 C606 0.950 . S
H631 C607 0.949 . S
H632 C609 0.950 . S
H633 C611 0.950 . S
C634 C635 1.349 . S
C634 C636 1.327 . S
C634 H659 0.950 . S
C635 C634 1.349 . S
C635 C651 1.349 1_554 S
C636 C634 1.327 . S
C636 C655 1.429 1_554 S
C636 H660 0.950 . S
C637 C654 1.574 . S
C637 C656 1.368 . S
C637 H661 0.949 . S
H638 C642 0.949 . S
C639 C640 1.349 . S
C639 C641 1.327 . S
C639 H662 0.950 . S
C640 C639 1.349 . S
C640 C652 1.349 . S
C641 C639 1.327 . S
C641 C657 1.429 . S
C641 H663 0.950 . S
C642 H638 0.949 . S
C642 C650 1.574 . S
C642 C658 1.368 . S
H643 C651 0.950 . S
H644 C649 0.950 . S
H645 C650 0.949 . S
H646 C652 0.950 . S
H647 C653 0.950 . S
H648 C654 0.949 . S
C649 H644 0.950 . S
C649 C651 1.327 . S
C649 C655 1.429 . S
C650 C642 1.574 . S
C650 H645 0.949 . S
C650 C656 1.368 . S
C651 C635 1.349 1_556 S
C651 H643 0.950 . S
C651 C649 1.327 . S
C652 C640 1.349 . S
C652 H646 0.950 . S
C652 C653 1.327 . S
C653 H647 0.950 . S
C653 C652 1.327 . S
C653 C657 1.429 . S
C654 C637 1.574 . S
C654 H648 0.949 . S
C654 C658 1.368 . S
C655 C636 1.429 1_556 S
C655 C649 1.429 . S
C655 C656 1.523 . S
C656 C637 1.368 . S
C656 C650 1.368 . S
C656 C655 1.523 . S
C657 C641 1.429 . S
C657 C653 1.429 . S
C657 C658 1.523 . S
C658 C642 1.368 . S
C658 C654 1.368 . S
C658 C657 1.523 . S
H659 C634 0.950 . S
H660 C636 0.950 . S
H661 C637 0.949 . S
H662 C639 0.950 . S
H663 C641 0.950 . S
C664 C665 1.349 . S
C664 C666 1.327 . S
C664 H689 0.950 . S
C665 C664 1.349 . S
C665 C681 1.349 . S
C666 C664 1.327 . S
C666 C685 1.429 . S
C666 H690 0.950 . S
C667 C684 1.574 . S
C667 C686 1.368 . S
C667 H691 0.949 . S
H668 C672 0.949 . S
C669 C670 1.349 1_655 S
C669 C671 1.327 1_655 S
C669 H692 0.950 . S
C670 C669 1.349 1_455 S
C670 C682 1.349 . S
C671 C669 1.327 1_455 S
C671 C687 1.429 . S
C671 H693 0.950 1_455 S
C672 H668 0.949 . S
C672 C680 1.574 . S
C672 C688 1.368 . S
H673 C681 0.950 . S
H674 C679 0.950 . S
H675 C680 0.949 . S
H676 C682 0.950 . S
H677 C683 0.950 . S
H678 C684 0.949 . S
C679 H674 0.950 . S
C679 C681 1.327 . S
C679 C685 1.429 . S
C680 C672 1.574 . S
C680 H675 0.949 . S
C680 C686 1.368 . S
C681 C665 1.349 . S
C681 H673 0.950 . S
C681 C679 1.327 . S
C682 C670 1.349 . S
C682 H676 0.950 . S
C682 C683 1.327 . S
C683 H677 0.950 . S
C683 C682 1.327 . S
C683 C687 1.429 . S
C684 C667 1.574 . S
C684 H678 0.949 . S
C684 C688 1.368 . S
C685 C666 1.429 . S
C685 C679 1.429 . S
C685 C686 1.523 . S
C686 C667 1.368 . S
C686 C680 1.368 . S
C686 C685 1.523 . S
C687 C671 1.429 . S
C687 C683 1.429 . S
C687 C688 1.523 . S
C688 C672 1.368 . S
C688 C684 1.368 . S
C688 C687 1.523 . S
H689 C664 0.950 . S
H690 C666 0.950 . S
H691 C667 0.949 . S
H692 C669 0.950 . S
H693 C671 0.950 1_655 S
C694 C695 1.349 . S
C694 C696 1.327 . S
C694 H719 0.950 . S
C695 C694 1.349 . S
C695 C711 1.349 . S
C696 C694 1.327 . S
C696 C715 1.429 . S
C696 H720 0.950 . S
C697 C714 1.574 . S
C697 C716 1.368 . S
C697 H721 0.949 . S
H698 C702 0.949 . S
C699 C700 1.349 . S
C699 C701 1.327 . S
C699 H722 0.950 1_545 S
C700 C699 1.349 . S
C700 C712 1.349 . S
C701 C699 1.327 . S
C701 C717 1.429 . S
C701 H723 0.950 . S
C702 H698 0.949 . S
C702 C710 1.574 . S
C702 C718 1.368 . S
H703 C711 0.950 . S
H704 C709 0.950 . S
H705 C710 0.949 . S
H706 C712 0.950 . S
H707 C713 0.950 . S
H708 C714 0.949 . S
C709 H704 0.950 . S
C709 C711 1.327 . S
C709 C715 1.429 . S
C710 C702 1.574 . S
C710 H705 0.949 . S
C710 C716 1.368 . S
C711 C695 1.349 . S
C711 H703 0.950 . S
C711 C709 1.327 . S
C712 C700 1.349 . S
C712 H706 0.950 . S
C712 C713 1.327 . S
C713 H707 0.950 . S
C713 C712 1.327 . S
C713 C717 1.429 . S
C714 C697 1.574 . S
C714 H708 0.949 . S
C714 C718 1.368 . S
C715 C696 1.429 . S
C715 C709 1.429 . S
C715 C716 1.523 . S
C716 C697 1.368 . S
C716 C710 1.368 . S
C716 C715 1.523 . S
C717 C701 1.429 . S
C717 C713 1.429 . S
C717 C718 1.523 . S
C718 C702 1.368 . S
C718 C714 1.368 . S
C718 C717 1.523 . S
H719 C694 0.950 . S
H720 C696 0.950 . S
H721 C697 0.949 . S
H722 C699 0.950 1_565 S
H723 C701 0.950 . S
C724 C725 1.349 . S
C724 C726 1.327 . S
C724 H749 0.950 . S
C725 C724 1.349 . S
C725 C741 1.349 . S
C726 C724 1.327 . S
C726 C745 1.429 . S
C726 H750 0.950 . S
C727 C744 1.574 . S
C727 C746 1.368 . S
C727 H751 0.949 . S
H728 C732 0.949 . S
C729 C730 1.349 . S
C729 C731 1.327 . S
C729 H752 0.950 . S
C730 C729 1.349 . S
C730 C742 1.349 . S
C731 C729 1.327 . S
C731 C747 1.429 . S
C731 H753 0.950 . S
C732 H728 0.949 . S
C732 C740 1.574 . S
C732 C748 1.368 . S
H733 C741 0.950 . S
H734 C739 0.950 . S
H735 C740 0.949 . S
H736 C742 0.950 . S
H737 C743 0.950 . S
H738 C744 0.949 . S
C739 H734 0.950 . S
C739 C741 1.327 . S
C739 C745 1.429 . S
C740 C732 1.574 . S
C740 H735 0.949 . S
C740 C746 1.368 . S
C741 C725 1.349 . S
C741 H733 0.950 . S
C741 C739 1.327 . S
C742 C730 1.349 . S
C742 H736 0.950 . S
C742 C743 1.327 . S
C743 H737 0.950 . S
C743 C742 1.327 . S
C743 C747 1.429 . S
C744 C727 1.574 . S
C744 H738 0.949 . S
C744 C748 1.368 . S
C745 C726 1.429 . S
C745 C739 1.429 . S
C745 C746 1.523 . S
C746 C727 1.368 . S
C746 C740 1.368 . S
C746 C745 1.523 . S
C747 C731 1.429 . S
C747 C743 1.429 . S
C747 C748 1.523 . S
C748 C732 1.368 . S
C748 C744 1.368 . S
C748 C747 1.523 . S
H749 C724 0.950 . S
H750 C726 0.950 . S
H751 C727 0.949 . S
H752 C729 0.950 . S
H753 C731 0.950 . S
C754 C755 1.349 . S
C754 C756 1.327 . S
C754 H779 0.950 . S
C755 C754 1.349 . S
C755 C771 1.349 . S
C756 C754 1.327 . S
C756 C775 1.429 . S
C756 H780 0.950 . S
C757 C774 1.574 . S
C757 C776 1.368 . S
C757 H781 0.949 . S
H758 C762 0.949 . S
C759 C760 1.349 . S
C759 C761 1.327 . S
C759 H782 0.950 . S
C760 C759 1.349 . S
C760 C772 1.349 . S
C761 C759 1.327 . S
C761 C777 1.429 . S
C761 H783 0.950 . S
C762 H758 0.949 . S
C762 C770 1.574 . S
C762 C778 1.368 . S
H763 C771 0.950 . S
H764 C769 0.950 . S
H765 C770 0.949 . S
H766 C772 0.950 . S
H767 C773 0.950 . S
H768 C774 0.949 . S
C769 H764 0.950 . S
C769 C771 1.327 . S
C769 C775 1.429 . S
C770 C762 1.574 . S
C770 H765 0.949 . S
C770 C776 1.368 . S
C771 C755 1.349 . S
C771 H763 0.950 . S
C771 C769 1.327 . S
C772 C760 1.349 . S
C772 H766 0.950 . S
C772 C773 1.327 . S
C773 H767 0.950 . S
C773 C772 1.327 . S
C773 C777 1.429 . S
C774 C757 1.574 . S
C774 H768 0.949 . S
C774 C778 1.368 . S
C775 C756 1.429 . S
C775 C769 1.429 . S
C775 C776 1.523 . S
C776 C757 1.368 . S
C776 C770 1.368 . S
C776 C775 1.523 . S
C777 C761 1.429 . S
C777 C773 1.429 . S
C777 C778 1.523 . S
C778 C762 1.368 . S
C778 C774 1.368 . S
C778 C777 1.523 . S
H779 C754 0.950 . S
H780 C756 0.950 . S
H781 C757 0.949 . S
H782 C759 0.950 . S
H783 C761 0.950 . S
C784 C785 1.349 . S
C784 C786 1.327 . S
C784 H809 0.950 . S
C785 C784 1.349 . S
C785 C801 1.349 . S
C786 C784 1.327 . S
C786 C805 1.429 . S
C786 H810 0.950 . S
C787 C804 1.574 . S
C787 C806 1.368 . S
C787 H811 0.949 . S
H788 C792 0.949 . S
C789 C790 1.349 1_655 S
C789 C791 1.327 . S
C789 H812 0.950 . S
C790 C789 1.349 1_455 S
C790 C802 1.349 . S
C791 C789 1.327 . S
C791 C807 1.429 . S
C791 H813 0.950 . S
C792 H788 0.949 . S
C792 C800 1.574 1_556 S
C792 C808 1.368 . S
H793 C801 0.950 1_556 S
H794 C799 0.950 . S
H795 C800 0.949 . S
H796 C802 0.950 . S
H797 C803 0.949 . S
H798 C804 0.949 . S
C799 H794 0.950 . S
C799 C801 1.327 1_556 S
C799 C805 1.429 1_556 S
C800 C792 1.574 1_554 S
C800 H795 0.949 . S
C800 C806 1.368 1_554 S
C801 C785 1.349 . S
C801 H793 0.950 1_554 S
C801 C799 1.327 1_554 S
C802 C790 1.349 . S
C802 H796 0.950 . S
C802 C803 1.327 1_455 S
C803 H797 0.949 . S
C803 C802 1.327 1_655 S
C803 C807 1.429 . S
C804 C787 1.574 . S
C804 H798 0.949 . S
C804 C808 1.368 . S
C805 C786 1.429 . S
C805 C799 1.429 1_554 S
C805 C806 1.523 1_554 S
C806 C787 1.368 . S
C806 C800 1.368 1_556 S
C806 C805 1.523 1_556 S
C807 C791 1.429 . S
C807 C803 1.429 . S
C807 C808 1.523 . S
C808 C792 1.368 . S
C808 C804 1.368 . S
C808 C807 1.523 . S
H809 C784 0.950 . S
H810 C786 0.950 . S
H811 C787 0.949 . S
H812 C789 0.950 . S
H813 C791 0.950 . S
C814 C815 1.349 . S
C814 C816 1.327 . S
C814 H839 0.950 . S
C815 C814 1.349 . S
C815 C831 1.349 . S
C816 C814 1.327 . S
C816 C835 1.429 . S
C816 H840 0.950 . S
C817 C834 1.574 . S
C817 C836 1.368 . S
C817 H841 0.949 . S
H818 C822 0.949 . S
C819 C820 1.349 . S
C819 C821 1.327 . S
C819 H842 0.950 . S
C820 C819 1.349 . S
C820 C832 1.349 1_545 S
C821 C819 1.327 . S
C821 C837 1.429 1_545 S
C821 H843 0.950 . S
C822 H818 0.949 . S
C822 C830 1.574 . S
C822 C838 1.368 . S
H823 C831 0.950 . S
H824 C829 0.950 . S
H825 C830 0.949 . S
H826 C832 0.950 . S
H827 C833 0.950 . S
H828 C834 0.949 1_545 S
C829 H824 0.950 . S
C829 C831 1.327 . S
C829 C835 1.429 . S
C830 C822 1.574 . S
C830 H825 0.949 . S
C830 C836 1.368 . S
C831 C815 1.349 . S
C831 H823 0.950 . S
C831 C829 1.327 . S
C832 C820 1.349 1_565 S
C832 H826 0.950 . S
C832 C833 1.327 . S
C833 H827 0.950 . S
C833 C832 1.327 . S
C833 C837 1.429 . S
C834 C817 1.574 . S
C834 H828 0.949 1_565 S
C834 C838 1.368 . S
C835 C816 1.429 . S
C835 C829 1.429 . S
C835 C836 1.523 1_554 S
C836 C817 1.368 . S
C836 C830 1.368 . S
C836 C835 1.523 1_556 S
C837 C821 1.429 1_565 S
C837 C833 1.429 . S
C837 C838 1.523 . S
C838 C822 1.368 . S
C838 C834 1.368 . S
C838 C837 1.523 . S
H839 C814 0.950 . S
H840 C816 0.950 . S
H841 C817 0.949 . S
H842 C819 0.950 . S
H843 C821 0.950 . S
C844 C845 1.349 . S
C844 C846 1.327 1_554 S
C844 H869 0.950 1_554 S
C845 C844 1.349 . S
C845 C861 1.349 . S
C846 C844 1.327 1_556 S
C846 C865 1.429 1_556 S
C846 H870 0.950 . S
C847 C864 1.574 1_554 S
C847 C866 1.368 1_554 S
C847 H871 0.949 . S
H848 C852 0.949 . S
C849 C850 1.349 . S
C849 C851 1.327 . S
C849 H872 0.950 . S
C850 C849 1.349 . S
C850 C862 1.349 . S
C851 C849 1.327 . S
C851 C867 1.429 . S
C851 H873 0.950 . S
C852 H848 0.949 . S
C852 C860 1.574 . S
C852 C868 1.368 . S
H853 C861 0.950 . S
H854 C859 0.950 . S
H855 C860 0.949 . S
H856 C862 0.950 . S
H857 C863 0.950 . S
H858 C864 0.949 . S
C859 H854 0.950 . S
C859 C861 1.327 . S
C859 C865 1.429 . S
C860 C852 1.574 . S
C860 H855 0.949 . S
C860 C866 1.368 . S
C861 C845 1.349 . S
C861 H853 0.950 . S
C861 C859 1.327 . S
C862 C850 1.349 . S
C862 H856 0.950 . S
C862 C863 1.327 . S
C863 H857 0.950 . S
C863 C862 1.327 . S
C863 C867 1.429 . S
C864 C847 1.574 1_556 S
C864 H858 0.949 . S
C864 C868 1.368 . S
C865 C846 1.429 1_554 S
C865 C859 1.429 . S
C865 C866 1.523 1_554 S
C866 C847 1.368 1_556 S
C866 C860 1.368 . S
C866 C865 1.523 1_556 S
C867 C851 1.429 . S
C867 C863 1.429 . S
C867 C868 1.523 . S
C868 C852 1.368 . S
C868 C864 1.368 . S
C868 C867 1.523 . S
H869 C844 0.950 1_556 S
H870 C846 0.950 . S
H871 C847 0.949 . S
H872 C849 0.950 . S
H873 C851 0.950 . S
C874 C875 1.349 . S
C874 C876 1.327 . S
C874 H899 0.950 . S
C875 C874 1.349 . S
C875 C891 1.349 . S
C876 C874 1.327 . S
C876 C895 1.429 . S
C876 H900 0.950 . S
C877 C894 1.574 . S
C877 C896 1.368 . S
C877 H901 0.949 . S
H878 C882 0.949 . S
C879 C880 1.349 . S
C879 C881 1.327 . S
C879 H902 0.950 . S
C880 C879 1.349 . S
C880 C892 1.349 . S
C881 C879 1.327 . S
C881 C897 1.429 . S
C881 H903 0.950 . S
C882 H878 0.949 . S
C882 C890 1.574 1_556 S
C882 C898 1.368 . S
H883 C891 0.950 1_556 S
H884 C889 0.950 . S
H885 C890 0.949 . S
H886 C892 0.950 . S
H887 C893 0.950 . S
H888 C894 0.949 . S
C889 H884 0.950 . S
C889 C891 1.327 1_556 S
C889 C895 1.429 1_556 S
C890 C882 1.574 1_554 S
C890 H885 0.949 . S
C890 C896 1.368 1_554 S
C891 C875 1.349 . S
C891 H883 0.950 1_554 S
C891 C889 1.327 1_554 S
C892 C880 1.349 . S
C892 H886 0.950 . S
C892 C893 1.327 . S
C893 H887 0.950 . S
C893 C892 1.327 . S
C893 C897 1.429 . S
C894 C877 1.574 . S
C894 H888 0.949 . S
C894 C898 1.368 . S
C895 C876 1.429 . S
C895 C889 1.429 1_554 S
C895 C896 1.523 1_554 S
C896 C877 1.368 . S
C896 C890 1.368 1_556 S
C896 C895 1.523 1_556 S
C897 C881 1.429 . S
C897 C893 1.429 . S
C897 C898 1.523 . S
C898 C882 1.368 . S
C898 C894 1.368 . S
C898 C897 1.523 . S
H899 C874 0.950 . S
H900 C876 0.950 . S
H901 C877 0.949 . S
H902 C879 0.950 . S
H903 C881 0.950 . S
C904 C905 1.349 . S
C904 C906 1.327 . S
C904 H929 0.950 . S
C905 C904 1.349 . S
C905 C921 1.349 . S
C906 C904 1.327 . S
C906 C925 1.429 . S
C906 H930 0.950 . S
C907 C924 1.574 . S
C907 C926 1.368 . S
C907 H931 0.949 . S
H908 C912 0.949 . S
C909 C910 1.349 . S
C909 C911 1.327 . S
C909 H932 0.950 . S
C910 C909 1.349 . S
C910 C922 1.349 . S
C911 C909 1.327 . S
C911 C927 1.429 . S
C911 H933 0.950 . S
C912 H908 0.949 . S
C912 C920 1.574 . S
C912 C928 1.368 . S
H913 C921 0.950 . S
H914 C919 0.950 . S
H915 C920 0.949 . S
H916 C922 0.950 . S
H917 C923 0.950 . S
H918 C924 0.949 . S
C919 H914 0.950 . S
C919 C921 1.327 . S
C919 C925 1.429 . S
C920 C912 1.574 . S
C920 H915 0.949 . S
C920 C926 1.368 . S
C921 C905 1.349 . S
C921 H913 0.950 . S
C921 C919 1.327 . S
C922 C910 1.349 . S
C922 H916 0.950 . S
C922 C923 1.327 . S
C923 H917 0.950 . S
C923 C922 1.327 . S
C923 C927 1.429 . S
C924 C907 1.574 . S
C924 H918 0.949 . S
C924 C928 1.368 . S
C925 C906 1.429 . S
C925 C919 1.429 . S
C925 C926 1.523 . S
C926 C907 1.368 . S
C926 C920 1.368 . S
C926 C925 1.523 . S
C927 C911 1.429 . S
C927 C923 1.429 . S
C927 C928 1.523 . S
C928 C912 1.368 . S
C928 C924 1.368 . S
C928 C927 1.523 . S
H929 C904 0.950 . S
H930 C906 0.950 . S
H931 C907 0.949 . S
H932 C909 0.950 . S
H933 C911 0.950 . S
C934 C935 1.349 . S
C934 C936 1.327 . S
C934 H959 0.950 . S
C935 C934 1.349 . S
C935 C951 1.349 . S
C936 C934 1.327 . S
C936 C955 1.429 . S
C936 H960 0.950 . S
C937 C954 1.574 . S
C937 C956 1.368 . S
C937 H961 0.949 . S
H938 C942 0.949 . S
C939 C940 1.349 . S
C939 C941 1.327 . S
C939 H962 0.950 . S
C940 C939 1.349 . S
C940 C952 1.349 . S
C941 C939 1.327 . S
C941 C957 1.429 . S
C941 H963 0.950 . S
C942 H938 0.949 . S
C942 C950 1.574 . S
C942 C958 1.368 . S
H943 C951 0.950 . S
H944 C949 0.950 . S
H945 C950 0.949 . S
H946 C952 0.966 . S
H947 C953 0.950 . S
H948 C954 0.949 . S
C949 H944 0.950 . S
C949 C951 1.327 . S
C949 C955 1.429 . S
C950 C942 1.574 . S
C950 H945 0.949 . S
C950 C956 1.368 . S
C951 C935 1.349 . S
C951 H943 0.950 . S
C951 C949 1.327 . S
C952 C940 1.349 . S
C952 H946 0.966 . S
C952 C953 1.327 . S
C953 H947 0.950 . S
C953 C952 1.327 . S
C953 C957 1.429 . S
C954 C937 1.574 . S
C954 H948 0.949 . S
C954 C958 1.368 . S
C955 C936 1.429 . S
C955 C949 1.429 . S
C955 C956 1.523 . S
C956 C937 1.368 . S
C956 C950 1.368 . S
C956 C955 1.523 . S
C957 C941 1.429 . S
C957 C953 1.429 . S
C957 C958 1.523 . S
C958 C942 1.368 . S
C958 C954 1.368 . S
C958 C957 1.523 . S
H959 C934 0.950 . S
H960 C936 0.950 . S
H961 C937 0.949 . S
H962 C939 0.950 . S
H963 C941 0.950 . S
C964 C965 1.349 . S
C964 C966 1.327 . S
C964 H989 0.950 . S
C965 C964 1.349 . S
C965 C981 1.349 . S
C966 C964 1.327 . S
C966 C985 1.429 . S
C966 H990 0.950 . S
C967 C984 1.574 . S
C967 C986 1.368 . S
C967 H991 0.949 . S
H968 C972 0.949 . S
C969 C970 1.349 . S
C969 C971 1.327 . S
C969 H992 0.950 . S
C970 C969 1.349 . S
C970 C982 1.349 . S
C971 C969 1.327 . S
C971 C987 1.429 . S
C971 H993 0.950 . S
C972 H968 0.949 . S
C972 C980 1.574 . S
C972 C988 1.368 . S
H973 C981 0.950 . S
H974 C979 0.950 . S
H975 C980 0.949 . S
H976 C982 0.950 . S
H977 C983 0.950 . S
H978 C984 0.949 . S
C979 H974 0.950 . S
C979 C981 1.327 . S
C979 C985 1.429 . S
C980 C972 1.574 . S
C980 H975 0.949 . S
C980 C986 1.368 . S
C981 C965 1.349 . S
C981 H973 0.950 . S
C981 C979 1.327 . S
C982 C970 1.349 . S
C982 H976 0.950 . S
C982 C983 1.327 . S
C983 H977 0.950 . S
C983 C982 1.327 . S
C983 C987 1.429 . S
C984 C967 1.574 . S
C984 H978 0.949 . S
C984 C988 1.368 . S
C985 C966 1.429 . S
C985 C979 1.429 . S
C985 C986 1.523 . S
C986 C967 1.368 . S
C986 C980 1.368 . S
C986 C985 1.523 . S
C987 C971 1.429 . S
C987 C983 1.429 . S
C987 C988 1.523 . S
C988 C972 1.368 . S
C988 C984 1.368 . S
C988 C987 1.523 . S
H989 C964 0.950 . S
H990 C966 0.950 . S
H991 C967 0.949 . S
H992 C969 0.950 . S
H993 C971 0.950 . S
C994 C995 1.349 . S
C994 C996 1.327 . S
C994 H1019 0.950 . S
C995 C994 1.349 . S
C995 C1011 1.349 . S
C996 C994 1.327 . S
C996 C1015 1.429 . S
C996 H1020 0.950 . S
C997 C1014 1.574 . S
C997 C1016 1.368 . S
C997 H1021 0.949 . S
H998 C1002 0.949 . S
C999 C1000 1.349 . S
C999 C1001 1.327 . S
C999 H1022 0.950 . S
C1000 C999 1.349 . S
C1000 C1012 1.349 . S
C1001 C999 1.327 . S
C1001 C1017 1.429 . S
C1001 H1023 0.950 . S
C1002 H998 0.949 . S
C1002 C1010 1.574 . S
C1002 C1018 1.368 . S
H1003 C1011 0.950 . S
H1004 C1009 0.950 . S
H1005 C1010 0.949 . S
H1006 C1012 0.950 . S
H1007 C1013 0.950 . S
H1008 C1014 0.949 . S
C1009 H1004 0.950 . S
C1009 C1011 1.327 . S
C1009 C1015 1.429 . S
C1010 C1002 1.574 . S
C1010 H1005 0.949 . S
C1010 C1016 1.368 . S
C1011 C995 1.349 . S
C1011 H1003 0.950 . S
C1011 C1009 1.327 . S
C1012 C1000 1.349 . S
C1012 H1006 0.950 . S
C1012 C1013 1.327 . S
C1013 H1007 0.950 . S
C1013 C1012 1.327 . S
C1013 C1017 1.429 . S
C1014 C997 1.574 . S
C1014 H1008 0.949 . S
C1014 C1018 1.368 . S
C1015 C996 1.429 . S
C1015 C1009 1.429 . S
C1015 C1016 1.523 . S
C1016 C997 1.368 . S
C1016 C1010 1.368 . S
C1016 C1015 1.523 . S
C1017 C1001 1.429 . S
C1017 C1013 1.429 . S
C1017 C1018 1.523 . S
C1018 C1002 1.368 . S
C1018 C1014 1.368 . S
C1018 C1017 1.523 . S
H1019 C994 0.950 . S
H1020 C996 0.950 . S
H1021 C997 0.949 . S
H1022 C999 0.950 . S
H1023 C1001 0.950 . S
C1024 C1025 1.349 . S
C1024 C1026 1.327 . S
C1024 H1049 0.950 . S
C1025 C1024 1.349 . S
C1025 C1041 1.349 . S
C1026 C1024 1.327 . S
C1026 C1045 1.429 . S
C1026 H1050 0.950 . S
C1027 C1044 1.574 . S
C1027 C1046 1.368 . S
C1027 H1051 0.949 . S
H1028 C1032 0.949 . S
C1029 C1030 1.349 . S
C1029 C1031 1.327 . S
C1029 H1052 0.950 1_655 S
C1030 C1029 1.349 . S
C1030 C1042 1.349 . S
C1031 C1029 1.327 . S
C1031 C1047 1.429 . S
C1031 H1053 0.916 1_655 S
C1032 H1028 0.949 . S
C1032 C1040 1.574 . S
C1032 C1048 1.368 . S
H1033 C1041 0.950 . S
H1034 C1039 0.950 . S
H1035 C1040 0.949 . S
H1036 C1042 0.950 . S
H1037 C1043 0.950 . S
H1038 C1044 0.949 . S
C1039 H1034 0.950 . S
C1039 C1041 1.327 . S
C1039 C1045 1.429 . S
C1040 C1032 1.574 . S
C1040 H1035 0.949 . S
C1040 C1046 1.368 . S
C1041 C1025 1.349 . S
C1041 H1033 0.950 . S
C1041 C1039 1.327 . S
C1042 C1030 1.349 . S
C1042 H1036 0.950 . S
C1042 C1043 1.327 . S
C1043 H1037 0.950 . S
C1043 C1042 1.327 . S
C1043 C1047 1.429 . S
C1044 C1027 1.574 . S
C1044 H1038 0.949 . S
C1044 C1048 1.368 . S
C1045 C1026 1.429 . S
C1045 C1039 1.429 . S
C1045 C1046 1.523 . S
C1046 C1027 1.368 . S
C1046 C1040 1.368 . S
C1046 C1045 1.523 . S
C1047 C1031 1.429 . S
C1047 C1043 1.429 . S
C1047 C1048 1.523 . S
C1048 C1032 1.368 . S
C1048 C1044 1.368 . S
C1048 C1047 1.523 . S
H1049 C1024 0.950 . S
H1050 C1026 0.950 . S
H1051 C1027 0.949 . S
H1052 C1029 0.950 1_455 S
H1053 C1031 0.916 1_455 S
C1054 C1055 1.349 . S
C1054 C1056 1.327 . S
C1054 H1079 0.950 . S
C1055 C1054 1.349 . S
C1055 C1071 1.349 . S
C1056 C1054 1.327 . S
C1056 C1075 1.429 . S
C1056 H1080 0.950 . S
C1057 C1074 1.574 . S
C1057 C1076 1.368 . S
C1057 H1081 0.949 . S
H1058 C1062 0.949 . S
C1059 C1060 1.349 . S
C1059 C1061 1.327 . S
C1059 H1082 0.950 . S
C1060 C1059 1.349 . S
C1060 C1072 1.349 . S
C1061 C1059 1.327 . S
C1061 C1077 1.429 . S
C1061 H1083 0.950 . S
C1062 H1058 0.949 . S
C1062 C1070 1.574 . S
C1062 C1078 1.368 . S
H1063 C1071 0.950 . S
H1064 C1069 0.950 . S
H1065 C1070 0.949 . S
H1066 C1072 0.950 . S
H1067 C1073 0.950 . S
H1068 C1074 0.949 . S
C1069 H1064 0.950 . S
C1069 C1071 1.327 . S
C1069 C1075 1.429 . S
C1070 C1062 1.574 . S
C1070 H1065 0.949 . S
C1070 C1076 1.368 . S
C1071 C1055 1.349 . S
C1071 H1063 0.950 . S
C1071 C1069 1.327 . S
C1072 C1060 1.349 . S
C1072 H1066 0.950 . S
C1072 C1073 1.327 . S
C1073 H1067 0.950 . S
C1073 C1072 1.327 . S
C1073 C1077 1.429 . S
C1074 C1057 1.574 . S
C1074 H1068 0.949 . S
C1074 C1078 1.368 . S
C1075 C1056 1.429 . S
C1075 C1069 1.429 . S
C1075 C1076 1.523 . S
C1076 C1057 1.368 . S
C1076 C1070 1.368 . S
C1076 C1075 1.523 . S
C1077 C1061 1.429 . S
C1077 C1073 1.429 . S
C1077 C1078 1.523 . S
C1078 C1062 1.368 . S
C1078 C1074 1.368 . S
C1078 C1077 1.523 . S
H1079 C1054 0.950 . S
H1080 C1056 0.950 . S
H1081 C1057 0.949 . S
H1082 C1059 0.950 . S
H1083 C1061 0.950 . S
C1084 C1085 1.349 . S
C1084 C1086 1.327 . S
C1084 H1109 0.950 . S
C1085 C1084 1.349 . S
C1085 C1101 1.349 . S
C1086 C1084 1.327 . S
C1086 C1105 1.429 . S
C1086 H1110 0.950 . S
C1087 C1104 1.574 . S
C1087 C1106 1.368 . S
C1087 H1111 0.949 . S
H1088 C1092 0.949 . S
C1089 C1090 1.349 . S
C1089 C1091 1.327 . S
C1089 H1112 0.950 . S
C1090 C1089 1.349 . S
C1090 C1102 1.349 . S
C1091 C1089 1.327 . S
C1091 C1107 1.429 . S
C1091 H1113 0.950 . S
C1092 H1088 0.949 . S
C1092 C1100 1.574 . S
C1092 C1108 1.368 . S
H1093 C1101 0.950 . S
H1094 C1099 0.950 . S
H1095 C1100 0.949 . S
H1096 C1102 0.950 . S
H1097 C1103 0.950 . S
H1098 C1104 0.949 . S
C1099 H1094 0.950 . S
C1099 C1101 1.327 . S
C1099 C1105 1.429 . S
C1100 C1092 1.574 . S
C1100 H1095 0.949 . S
C1100 C1106 1.368 . S
C1101 C1085 1.349 . S
C1101 H1093 0.950 . S
C1101 C1099 1.327 . S
C1102 C1090 1.349 . S
C1102 H1096 0.950 . S
C1102 C1103 1.327 . S
C1103 H1097 0.950 . S
C1103 C1102 1.327 . S
C1103 C1107 1.429 . S
C1104 C1087 1.574 . S
C1104 H1098 0.949 . S
C1104 C1108 1.368 . S
C1105 C1086 1.429 . S
C1105 C1099 1.429 . S
C1105 C1106 1.523 . S
C1106 C1087 1.368 . S
C1106 C1100 1.368 . S
C1106 C1105 1.523 . S
C1107 C1091 1.429 . S
C1107 C1103 1.429 . S
C1107 C1108 1.523 . S
C1108 C1092 1.368 . S
C1108 C1104 1.368 . S
C1108 C1107 1.523 . S
H1109 C1084 0.950 . S
H1110 C1086 0.950 . S
H1111 C1087 0.949 . S
H1112 C1089 0.950 . S
H1113 C1091 0.950 . S
C1114 C1115 1.349 . S
C1114 C1116 1.327 . S
C1114 H1139 0.950 . S
C1115 C1114 1.349 . S
C1115 C1131 1.349 . S
C1116 C1114 1.327 . S
C1116 C1135 1.429 . S
C1116 H1140 0.950 . S
C1117 C1134 1.574 . S
C1117 C1136 1.368 . S
C1117 H1141 0.949 . S
H1118 C1122 0.949 . S
C1119 C1120 1.349 . S
C1119 C1121 1.327 . S
C1119 H1142 0.950 . S
C1120 C1119 1.349 . S
C1120 C1132 1.349 . S
C1121 C1119 1.327 . S
C1121 C1137 1.429 . S
C1121 H1143 0.950 . S
C1122 H1118 0.949 . S
C1122 C1130 1.574 . S
C1122 C1138 1.368 . S
H1123 C1131 0.950 . S
H1124 C1129 0.950 . S
H1125 C1130 0.949 . S
H1126 C1132 0.950 . S
H1127 C1133 0.950 . S
H1128 C1134 0.949 . S
C1129 H1124 0.950 . S
C1129 C1131 1.327 . S
C1129 C1135 1.429 . S
C1130 C1122 1.574 . S
C1130 H1125 0.949 . S
C1130 C1136 1.368 . S
C1131 C1115 1.349 . S
C1131 H1123 0.950 . S
C1131 C1129 1.327 . S
C1132 C1120 1.349 . S
C1132 H1126 0.950 . S
C1132 C1133 1.327 . S
C1133 H1127 0.950 . S
C1133 C1132 1.327 . S
C1133 C1137 1.429 . S
C1134 C1117 1.574 . S
C1134 H1128 0.949 . S
C1134 C1138 1.368 . S
C1135 C1116 1.429 . S
C1135 C1129 1.429 . S
C1135 C1136 1.523 . S
C1136 C1117 1.368 . S
C1136 C1130 1.368 . S
C1136 C1135 1.523 . S
C1137 C1121 1.429 . S
C1137 C1133 1.429 . S
C1137 C1138 1.523 . S
C1138 C1122 1.368 . S
C1138 C1134 1.368 . S
C1138 C1137 1.523 . S
H1139 C1114 0.950 . S
H1140 C1116 0.950 . S
H1141 C1117 0.949 . S
H1142 C1119 0.950 . S
H1143 C1121 0.950 . S
C425 C74 1.793 . S
C430 C162 1.791 . S
C460 C246 1.830 . S
C455 C85 1.832 . S
C490 C312 1.845 . S
C485 C52 1.956 . S
C520 C396 1.813 . S
C515 C63 1.922 . S
C550 C151 1.791 1_565 S
C545 C30 1.744 . S
C575 C41 1.778 . S
C580 C235 1.830 . S
C605 C8 1.897 . S
C610 C323 1.845 . S
C635 C19 1.868 . S
C640 C407 1.814 . S
C670 C158 0.598 . S
C665 C62 0.551 . S
C700 C242 0.569 . S
C695 C73 0.507 . S
C730 C314 0.550 . S
C725 C84 0.443 . S
C755 C51 0.489 . S
C760 C398 0.572 . S
C785 C18 0.616 . S
C790 C146 0.596 . S
C820 C230 0.569 . S
C815 C29 0.587 . S
C850 C326 0.550 . S
C845 C40 0.556 . S
C875 C7 0.582 . S
C880 C410 0.572 . S
C905 C60 1.813 . S
C910 C155 2.011 . S
C935 C71 1.763 . S
C940 C239 1.969 . S
C970 C319 1.946 . S
C965 C82 1.673 . S
C1000 C403 1.983 . S
C995 C49 1.712 . S
C1025 C16 1.583 . S
C1030 C144 2.011 . S
C1060 C228 1.962 1_565 S
C1055 C27 1.554 . S
C1090 C330 1.946 . S
C1085 C38 1.444 . S
C1115 C5 1.470 . S
C1120 C414 1.983 . S
