# Generated by pormake.
# Topology ctn, (3,4)-cn, num edge types: 1
# Building blocks:
#     Node 0, Type 0, BuildingBlock: OLANEW_clean_sbu_2, # of connection points: 3
#     Node 1, Type 0, BuildingBlock: OLANEW_clean_sbu_2, # of connection points: 3
#     Node 2, Type 0, BuildingBlock: OLANEW_clean_sbu_2, # of connection points: 3
#     Node 3, Type 0, BuildingBlock: OLANEW_clean_sbu_2, # of connection points: 3
#     Node 4, Type 0, BuildingBlock: OLANEW_clean_sbu_2, # of connection points: 3
#     Node 5, Type 0, BuildingBlock: OLANEW_clean_sbu_2, # of connection points: 3
#     Node 6, Type 0, BuildingBlock: OLANEW_clean_sbu_2, # of connection points: 3
#     Node 7, Type 0, BuildingBlock: OLANEW_clean_sbu_2, # of connection points: 3
#     Node 8, Type 0, BuildingBlock: OLANEW_clean_sbu_2, # of connection points: 3
#     Node 9, Type 0, BuildingBlock: OLANEW_clean_sbu_2, # of connection points: 3
#     Node 10, Type 0, BuildingBlock: OLANEW_clean_sbu_2, # of connection points: 3
#     Node 11, Type 0, BuildingBlock: OLANEW_clean_sbu_2, # of connection points: 3
#     Node 12, Type 0, BuildingBlock: OLANEW_clean_sbu_2, # of connection points: 3
#     Node 13, Type 0, BuildingBlock: OLANEW_clean_sbu_2, # of connection points: 3
#     Node 14, Type 0, BuildingBlock: OLANEW_clean_sbu_2, # of connection points: 3
#     Node 15, Type 0, BuildingBlock: OLANEW_clean_sbu_2, # of connection points: 3
#     Node 16, Type 1, BuildingBlock: NAHDIM_clean_sbu_0, # of connection points: 4
#     Node 17, Type 1, BuildingBlock: NAHDIM_clean_sbu_0, # of connection points: 4
#     Node 18, Type 1, BuildingBlock: NAHDIM_clean_sbu_0, # of connection points: 4
#     Node 19, Type 1, BuildingBlock: NAHDIM_clean_sbu_0, # of connection points: 4
#     Node 20, Type 1, BuildingBlock: NAHDIM_clean_sbu_0, # of connection points: 4
#     Node 21, Type 1, BuildingBlock: NAHDIM_clean_sbu_0, # of connection points: 4
#     Node 22, Type 1, BuildingBlock: NAHDIM_clean_sbu_0, # of connection points: 4
#     Node 23, Type 1, BuildingBlock: NAHDIM_clean_sbu_0, # of connection points: 4
#     Node 24, Type 1, BuildingBlock: NAHDIM_clean_sbu_0, # of connection points: 4
#     Node 25, Type 1, BuildingBlock: NAHDIM_clean_sbu_0, # of connection points: 4
#     Node 26, Type 1, BuildingBlock: NAHDIM_clean_sbu_0, # of connection points: 4
#     Node 27, Type 1, BuildingBlock: NAHDIM_clean_sbu_0, # of connection points: 4
#     Edge 28, Type (0, 1), None
#     Edge 29, Type (0, 1), None
#     Edge 30, Type (0, 1), None
#     Edge 31, Type (0, 1), None
#     Edge 32, Type (0, 1), None
#     Edge 33, Type (0, 1), None
#     Edge 34, Type (0, 1), None
#     Edge 35, Type (0, 1), None
#     Edge 36, Type (0, 1), None
#     Edge 37, Type (0, 1), None
#     Edge 38, Type (0, 1), None
#     Edge 39, Type (0, 1), None
#     Edge 40, Type (0, 1), None
#     Edge 41, Type (0, 1), None
#     Edge 42, Type (0, 1), None
#     Edge 43, Type (0, 1), None
#     Edge 44, Type (0, 1), None
#     Edge 45, Type (0, 1), None
#     Edge 46, Type (0, 1), None
#     Edge 47, Type (0, 1), None
#     Edge 48, Type (0, 1), None
#     Edge 49, Type (0, 1), None
#     Edge 50, Type (0, 1), None
#     Edge 51, Type (0, 1), None
#     Edge 52, Type (0, 1), None
#     Edge 53, Type (0, 1), None
#     Edge 54, Type (0, 1), None
#     Edge 55, Type (0, 1), None
#     Edge 56, Type (0, 1), None
#     Edge 57, Type (0, 1), None
#     Edge 58, Type (0, 1), None
#     Edge 59, Type (0, 1), None
#     Edge 60, Type (0, 1), None
#     Edge 61, Type (0, 1), None
#     Edge 62, Type (0, 1), None
#     Edge 63, Type (0, 1), None
#     Edge 64, Type (0, 1), None
#     Edge 65, Type (0, 1), None
#     Edge 66, Type (0, 1), None
#     Edge 67, Type (0, 1), None
#     Edge 68, Type (0, 1), None
#     Edge 69, Type (0, 1), None
#     Edge 70, Type (0, 1), None
#     Edge 71, Type (0, 1), None
#     Edge 72, Type (0, 1), None
#     Edge 73, Type (0, 1), None
#     Edge 74, Type (0, 1), None
#     Edge 75, Type (0, 1), None
# Relax obj value: 0.068
# Max RMSD: 0.169
# Mean RMSD: 0.091
data_MOF--net-ctn--node1-OLANEW_clean_sbu_2--node2-NAHDIM_clean_sbu_0--edge1-none
_symmetry_space_group_name_H-M    P1
_symmetry_Int_Tables_number       1
_symmetry_cell_setting            triclinic
loop_
_symmetry_equiv_pos_as_xyz
'x, y, z'
_cell_length_a     27.230358
_cell_length_b     27.932606
_cell_length_c     25.828229
_cell_angle_alpha  91.835912
_cell_angle_beta   95.355111
_cell_angle_gamma 99.653061
loop_
_atom_site_label
_atom_site_type_symbol
_atom_site_fract_x
_atom_site_fract_y
_atom_site_fract_z
_atom_type_partial_charge
O0 O 0.04424 0.07725 0.86865 0.0
Cd1 Cd 0.03837 0.98844 0.87078 0.0
O2 O 0.04776 0.07827 0.95348 0.0
Cd3 Cd 0.04473 0.11115 0.03024 0.0
O4 O 0.02207 0.11633 0.10816 0.0
C5 C 0.97547 0.10744 0.11278 0.0
O6 O 0.94352 0.09838 0.07089 0.0
C7 C 0.04571 0.10088 0.91172 0.0
C8 C 0.11626 0.95261 0.92659 0.0
O9 O 0.11804 0.96286 0.87872 0.0
O10 O 0.07827 0.96056 0.94921 0.0
O11 O 0.35761 0.80454 0.2853 0.0
Cd12 Cd 0.26593 0.79972 0.27347 0.0
O13 O 0.35171 0.72953 0.31128 0.0
Cd14 Cd 0.27065 0.70939 0.29814 0.0
O15 O 0.20261 0.65561 0.29688 0.0
C16 C 0.20753 0.61715 0.32031 0.0
O17 O 0.25145 0.6129 0.34364 0.0
C18 C 0.37826 0.76968 0.30216 0.0
C19 C 0.22859 0.81577 0.17239 0.0
O20 O 0.242 0.85139 0.20603 0.0
O21 O 0.23288 0.77293 0.18636 0.0
O22 O 0.98844 0.48655 0.17693 0.0
Cd23 Cd 0.95073 0.47286 0.0868 0.0
O24 O 0.04507 0.43908 0.17068 0.0
Cd25 Cd 0.02278 0.41411 0.08932 0.0
O26 O 0.01331 0.38053 0.01033 0.0
C27 C 0.0271 0.33992 0.00182 0.0
O28 O 0.04665 0.31786 0.04076 0.0
C29 C 0.0249 0.46819 0.19728 0.0
C30 C 0.88831 0.54053 0.06303 0.0
O31 O 0.87125 0.49982 0.0817 0.0
O32 O 0.93463 0.54927 0.05507 0.0
O33 O 0.84173 0.87149 0.23722 0.0
Cd34 Cd 0.78738 0.79452 0.24675 0.0
O35 O 0.77926 0.9125 0.22605 0.0
Cd36 Cd 0.7192 0.85314 0.23919 0.0
O37 O 0.65407 0.81698 0.27491 0.0
C38 C 0.61868 0.78698 0.2504 0.0
O39 O 0.62064 0.77536 0.20106 0.0
C40 C 0.82585 0.91102 0.22876 0.0
C41 C 0.76911 0.73626 0.15544 0.0
O42 O 0.7389 0.7647 0.16674 0.0
O43 O 0.80827 0.73567 0.18685 0.0
O44 O 0.10783 0.05644 0.60767 0.0
Cd45 Cd 0.02617 0.0355 0.64117 0.0
O46 O 0.06624 0.08271 0.54115 0.0
Cd47 Cd 0.0575 0.11552 0.46644 0.0
O48 O 0.01811 0.1286 0.39277 0.0
C49 C 0.00121 0.09164 0.36254 0.0
O50 O 0.01064 0.04879 0.37561 0.0
C51 C 0.10769 0.07607 0.56402 0.0
C52 C 0.00871 0.94088 0.67364 0.0
O53 O 0.9955 0.95009 0.62659 0.0
O54 O 0.03003 0.97618 0.70519 0.0
O55 O 0.26081 0.72503 0.9391 0.0
Cd56 Cd 0.22579 0.6525 0.8845 0.0
O57 O 0.18254 0.73275 0.92417 0.0
Cd58 Cd 0.11826 0.76946 0.92401 0.0
O59 O 0.05542 0.78491 0.87329 0.0
C60 C 0.061 0.77931 0.82536 0.0
O61 O 0.10259 0.76679 0.81185 0.0
C62 C 0.2264 0.74956 0.9449 0.0
C63 C 0.29634 0.61303 0.83491 0.0
O64 O 0.28412 0.59889 0.87937 0.0
O65 O 0.27567 0.64651 0.81378 0.0
O66 O -0.00344 0.50075 0.46309 0.0
Cd67 Cd 0.94503 0.52234 0.52942 0.0
O68 O 0.02901 0.57628 0.48333 0.0
Cd69 Cd 0.07579 0.64796 0.48866 0.0
O70 O 0.07385 0.71107 0.54027 0.0
C71 C 0.03202 0.71068 0.55856 0.0
O72 O 0.99475 0.67517 0.54379 0.0
C73 C 0.02938 0.5374 0.45663 0.0
C74 C 0.85983 0.45491 0.53744 0.0
O75 O 0.85944 0.48878 0.50518 0.0
O76 O 0.90066 0.45243 0.5654 0.0
O77 O 0.76888 0.64362 0.86767 0.0
Cd78 Cd 0.76421 0.65009 0.77283 0.0
O79 O 0.74258 0.71322 0.87185 0.0
Cd80 Cd 0.71581 0.77628 0.90423 0.0
O81 O 0.68294 0.84213 0.89405 0.0
C82 C 0.69708 0.88126 0.92182 0.0
O83 O 0.73232 0.88319 0.96054 0.0
C84 C 0.75583 0.67718 0.89482 0.0
C85 C 0.85313 0.69367 0.73593 0.0
O86 O 0.82023 0.71928 0.74677 0.0
O87 O 0.84437 0.64797 0.74306 0.0
O88 O 0.26916 0.14379 0.36779 0.0
Cd89 Cd 0.26448 0.15032 0.27296 0.0
O90 O 0.24257 0.21325 0.372 0.0
Cd91 Cd 0.21551 0.27613 0.4044 0.0
O92 O 0.1825 0.34191 0.3943 0.0
C93 C 0.19692 0.38115 0.42179 0.0
O94 O 0.23253 0.38324 0.46017 0.0
C95 C 0.25595 0.17725 0.39494 0.0
C96 C 0.35338 0.1939 0.23601 0.0
O97 O 0.32051 0.21953 0.2469 0.0
O98 O 0.34461 0.1482 0.24311 0.0
O99 O 0.48864 0.98667 0.67696 0.0
Cd100 Cd 0.45083 0.97284 0.58688 0.0
O101 O 0.54517 0.9391 0.67079 0.0
Cd102 Cd 0.52284 0.91392 0.58948 0.0
O103 O 0.5135 0.8802 0.51054 0.0
C104 C 0.52685 0.83936 0.50219 0.0
O105 O 0.54586 0.8171 0.54127 0.0
C106 C 0.52508 0.96831 0.69733 0.0
C107 C 0.38839 0.04049 0.56307 0.0
O108 O 0.37135 -0.00019 0.58182 0.0
O109 O 0.43469 0.0492 0.55503 0.0
O110 O 0.34197 0.37146 0.73698 0.0
Cd111 Cd 0.28727 0.29472 0.74664 0.0
O112 O 0.27978 0.41276 0.72521 0.0
Cd113 Cd 0.21945 0.35369 0.73845 0.0
O114 O 0.15427 0.31768 0.77419 0.0
C115 C 0.11907 0.28733 0.74984 0.0
O116 O 0.12127 0.27529 0.70066 0.0
C117 C 0.32634 0.41105 0.72818 0.0
C118 C 0.26903 0.23625 0.65546 0.0
O119 O 0.23889 0.26481 0.66659 0.0
O120 O 0.30811 0.23563 0.68698 0.0
O121 O 0.85775 0.30502 0.78529 0.0
Cd122 Cd 0.76608 0.30043 0.77406 0.0
O123 O 0.85193 0.23003 0.81134 0.0
Cd124 Cd 0.77086 0.20988 0.79844 0.0
O125 O 0.70285 0.15602 0.79707 0.0
C126 C 0.7078 0.11751 0.8204 0.0
O127 O 0.75172 0.11326 0.84372 0.0
C128 C 0.87845 0.27015 0.80207 0.0
C129 C 0.72807 0.31609 0.6731 0.0
O130 O 0.74207 0.35188 0.70643 0.0
O131 O 0.7321 0.27327 0.6873 0.0
O132 O 0.54364 0.57648 0.36878 0.0
Cd133 Cd 0.53752 0.48764 0.37091 0.0
O134 O 0.54943 0.57794 0.45372 0.0
Cd135 Cd 0.54808 0.6112 0.53065 0.0
O136 O 0.52489 0.61652 0.60832 0.0
C137 C 0.47822 0.60692 0.61239 0.0
O138 O 0.44676 0.5971 0.57019 0.0
C139 C 0.54634 0.60035 0.41189 0.0
C140 C 0.61533 0.45164 0.42664 0.0
O141 O 0.61708 0.46184 0.37875 0.0
O142 O 0.57741 0.45971 0.44931 0.0
O143 O 0.60785 0.55671 0.10788 0.0
Cd144 Cd 0.52625 0.53579 0.1415 0.0
O145 O 0.56617 0.58275 0.04128 0.0
Cd146 Cd 0.55735 0.61531 0.96644 0.0
O147 O 0.5183 0.62832 0.89256 0.0
C148 C 0.5015 0.59134 0.86231 0.0
O149 O 0.51078 0.54849 0.87553 0.0
C150 C 0.60765 0.57621 0.06416 0.0
C151 C 0.50882 0.44111 0.17378 0.0
O152 O 0.49555 0.4504 0.12677 0.0
O153 O 0.53018 0.47635 0.20538 0.0
O154 O 0.76023 0.22294 0.44318 0.0
Cd155 Cd 0.7255 0.14972 0.38959 0.0
O156 O 0.68238 0.23134 0.42599 0.0
Cd157 Cd 0.61848 0.26874 0.42367 0.0
O158 O 0.55591 0.28464 0.37288 0.0
C159 C 0.56142 0.27914 0.32492 0.0
O160 O 0.6029 0.26646 0.3113 0.0
C161 C 0.72599 0.248 0.4475 0.0
C162 C 0.79585 0.11156 0.3383 0.0
O163 O 0.78482 0.09733 0.3831 0.0
O164 O 0.77406 0.14453 0.3176 0.0
O165 O 0.4977 0.00028 0.96411 0.0
Cd166 Cd 0.44673 0.0213 0.03124 0.0
O167 O 0.52938 0.07612 0.98366 0.0
Cd168 Cd 0.57537 0.14817 0.9881 0.0
O169 O 0.57342 0.21142 0.03948 0.0
C170 C 0.53169 0.21097 0.05799 0.0
O171 O 0.49447 0.17532 0.04351 0.0
C172 C 0.52994 0.03722 0.95707 0.0
C173 C 0.36086 0.95445 0.03825 0.0
O174 O 0.36086 0.98895 0.00673 0.0
O175 O 0.40159 0.95108 0.06593 0.0
C176 C 0.15608 0.93039 0.95361 0.0
O177 O 0.1934 0.9215 0.92817 0.0
O178 O 0.20148 0.81904 0.9822 0.0
Zn179 Zn 0.20965 0.88131 0.02613 0.0
O180 O 0.27485 0.92379 0.0156 0.0
C181 C 0.21234 0.82392 0.11808 0.0
O182 O 0.20419 0.7872 0.08364 0.0
O183 O 0.15367 0.91677 3e-05 0.0
C184 C 0.31482 0.92055 0.04382 0.0
O185 O 0.3142 0.88821 0.07963 0.0
C186 C 0.237 0.79626 0.97459 0.0
O187 O 0.2826 0.81339 0.99551 0.0
O188 O 0.21232 0.86689 0.10307 0.0
C189 C 0.17549 0.42458 0.40864 0.0
O190 O 0.1896 0.46528 0.43699 0.0
O191 O 0.06479 0.49468 0.39315 0.0
Zn192 Zn 0.11538 0.48154 0.34446 0.0
O193 O 0.17097 0.539 0.34405 0.0
C194 C 0.04445 0.48111 0.25174 0.0
O195 O 0.02304 0.50982 0.28027 0.0
O196 O 0.14463 0.42331 0.36833 0.0
C197 C 0.16522 0.5772 0.32043 0.0
O198 O 0.12159 0.58043 0.29579 0.0
C199 C 0.06698 0.53394 0.42027 0.0
O200 O 0.10379 0.57031 0.41717 0.0
O201 O 0.0829 0.46523 0.27104 0.0
C202 C 0.85571 0.57653 0.05166 0.0
O203 O 0.87364 0.61812 0.03249 0.0
O204 O 0.76389 0.6341 0.97186 0.0
Zn205 Zn 0.76434 0.61702 0.04787 0.0
O206 O 0.6959 0.58683 0.06634 0.0
C207 C 0.75696 0.70231 0.10985 0.0
O208 O 0.71195 0.69599 0.08486 0.0
O209 O 0.81022 0.56798 0.06124 0.0
C210 C 0.65489 0.59287 0.04194 0.0
O211 O 0.65541 0.61799 -0.00014 0.0
C212 C 0.75508 0.67302 0.95136 0.0
O213 O 0.7444 0.70856 0.98039 0.0
O214 O 0.78746 0.6747 0.09848 0.0
C215 C 0.8312 0.08891 0.31085 0.0
O216 O 0.84793 0.05119 0.33038 0.0
O217 O 0.94522 0.05769 0.29011 0.0
Zn218 Zn 0.88804 0.06176 0.23612 0.0
O219 O 0.84494 0.99612 0.22424 0.0
C220 C 0.95809 0.10042 0.16428 0.0
O221 O 0.99081 0.10431 0.20547 0.0
O222 O 0.8442 0.10357 0.26724 0.0
C223 C 0.86142 0.95633 0.22698 0.0
O224 O 0.90981 0.95669 0.2352 0.0
C225 C 0.96616 0.09566 0.31713 0.0
O226 O 0.95229 0.13756 0.30744 0.0
O227 O 0.91212 0.08474 0.16839 0.0
C228 C 0.35578 0.07648 0.55168 0.0
O229 O 0.37368 0.11803 0.53241 0.0
O230 O 0.26404 0.13413 0.47196 0.0
Zn231 Zn 0.2644 0.11697 0.54794 0.0
O232 O 0.19595 0.08671 0.56631 0.0
C233 C 0.25691 0.20225 0.60992 0.0
O234 O 0.21193 0.19592 0.58487 0.0
O235 O 0.31032 0.06796 0.56134 0.0
C236 C 0.15496 0.09278 0.54188 0.0
O237 O 0.15553 0.11798 0.49985 0.0
C238 C 0.25515 0.17304 0.45148 0.0
O239 O 0.24435 0.2085 0.48052 0.0
O240 O 0.28743 0.17464 0.59861 0.0
C241 C 0.33179 0.58975 0.80831 0.0
O242 O 0.34771 0.55185 0.82839 0.0
O243 O 0.44602 0.55744 0.78948 0.0
Zn244 Zn 0.3894 0.56155 0.73484 0.0
O245 O 0.34591 0.49609 0.72316 0.0
C246 C 0.46025 0.60014 0.66367 0.0
O247 O 0.49249 0.60504 0.70532 0.0
O248 O 0.34565 0.60405 0.7649 0.0
C249 C 0.36215 0.45619 0.7263 0.0
O250 O 0.41048 0.45632 0.73481 0.0
C251 C 0.4668 0.59539 0.81663 0.0
O252 O 0.45311 0.63734 0.80672 0.0
O253 O 0.41431 0.58387 0.66724 0.0
C254 C 0.65515 0.42942 0.45365 0.0
O255 O 0.69243 0.42048 0.42818 0.0
O256 O 0.70099 0.31823 0.48295 0.0
Zn257 Zn 0.70901 0.38078 0.52635 0.0
O258 O 0.77399 0.42331 0.5152 0.0
C259 C 0.71141 0.32399 0.61883 0.0
O260 O 0.70215 0.28697 0.58475 0.0
O261 O 0.65284 0.41594 0.50013 0.0
C262 C 0.81408 0.42079 0.54354 0.0
O263 O 0.81381 0.38909 0.58001 0.0
C264 C 0.73645 0.29501 0.47657 0.0
O265 O 0.78177 0.31191 0.49843 0.0
O266 O 0.7121 0.36693 0.60344 0.0
C267 C 0.67567 0.9247 0.90868 0.0
O268 O 0.68938 0.96524 0.93738 0.0
O269 O 0.56527 0.99469 0.89336 0.0
Zn270 Zn 0.61575 0.98178 0.84443 0.0
O271 O 0.67127 0.03931 0.84404 0.0
C272 C 0.54469 0.98132 0.75176 0.0
O273 O 0.52332 0.01009 0.78027 0.0
O274 O 0.64514 0.92357 0.86814 0.0
C275 C 0.66551 0.07751 0.82043 0.0
O276 O 0.6219 0.08073 0.79575 0.0
C277 C 0.56722 0.03404 0.92027 0.0
O278 O 0.6036 0.0707 0.91668 0.0
O279 O 0.58315 0.96546 0.77106 0.0
C280 C 0.04205 0.15287 0.91284 0.0
O281 O 0.04496 0.17751 0.95746 0.0
O282 O 0.95155 0.24344 0.83807 0.0
Zn283 Zn 0.02307 0.24377 0.86783 0.0
O284 O 0.03294 0.27626 0.94038 0.0
C285 C 0.07734 0.2644 0.77757 0.0
O286 O 0.04498 0.22755 0.75555 0.0
O287 O 0.03346 0.17355 0.87061 0.0
C288 C 0.02095 0.31771 0.94881 0.0
O289 O 0.00263 0.34055 0.90987 0.0
C290 C 0.93303 0.27631 0.81393 0.0
O291 O 0.96204 0.31655 0.80338 0.0
O292 O 0.07397 0.27865 0.82412 0.0
C293 C 0.54281 0.65236 0.41307 0.0
O294 O 0.54731 0.67733 0.45767 0.0
O295 O 0.45125 0.74289 0.33834 0.0
Zn296 Zn 0.52267 0.74306 0.3683 0.0
O297 O 0.53237 0.77547 0.44089 0.0
C298 C 0.57691 0.76401 0.27807 0.0
O299 O 0.54428 0.72751 0.25578 0.0
O300 O 0.53289 0.67278 0.37099 0.0
C301 C 0.52082 0.81713 0.44919 0.0
O302 O 0.50312 0.8402 0.41011 0.0
C303 C 0.43282 0.77583 0.31424 0.0
O304 O 0.46188 0.81609 0.30386 0.0
O305 O 0.57374 0.77793 0.32478 0.0
C306 C 0.00086 0.89099 0.6909 0.0
O307 O 0.01677 0.88242 0.73865 0.0
O308 O 0.9076 0.76041 0.70526 0.0
Zn309 Zn 0.97472 0.78601 0.68013 0.0
O310 O 0.98472 0.74331 0.61897 0.0
C311 C 0.02121 0.78514 0.78527 0.0
O312 O 0.97836 0.79494 0.79831 0.0
O313 O 0.9806 0.85582 0.65935 0.0
C314 C 0.026 0.74681 0.59891 0.0
O315 O 0.06396 0.78038 0.6171 0.0
C316 C 0.89993 0.71581 0.71595 0.0
O317 O 0.93459 0.68934 0.70918 0.0
O318 O 0.02812 0.78028 0.73755 0.0
C319 C 0.50099 0.39118 0.19092 0.0
O320 O 0.51692 0.38253 0.23864 0.0
O321 O 0.40781 0.26064 0.20527 0.0
Zn322 Zn 0.47486 0.28621 0.17995 0.0
O323 O 0.48463 0.24355 0.11866 0.0
C324 C 0.52161 0.28517 0.28493 0.0
O325 O 0.47884 0.29502 0.29812 0.0
O326 O 0.48073 0.35606 0.15931 0.0
C327 C 0.52577 0.24714 0.09835 0.0
O328 O 0.56373 0.28079 0.11632 0.0
C329 C 0.40015 0.21603 0.21595 0.0
O330 O 0.43477 0.18954 0.20909 0.0
O331 O 0.5284 0.28035 0.23718 0.0
loop_
_geom_bond_atom_site_label_1
_geom_bond_atom_site_label_2
_geom_bond_distance
_geom_bond_site_symmetry_2
_ccdc_geom_bond_type
O0 Cd1 2.300 1_556 S
O0 C7 1.275 1_556 S
Cd1 O0 2.300 1_554 S
Cd1 O9 2.381 1_544 S
Cd1 O10 2.378 1_545 S
O2 Cd3 2.385 . S
O2 C7 1.255 . S
Cd3 O2 2.385 . S
Cd3 O4 2.317 1_455 S
O4 Cd3 2.317 1_655 S
O4 C5 1.232 . S
C5 O4 1.232 . S
C5 O6 1.218 . S
O6 C5 1.218 . S
C7 O0 1.275 1_554 S
C7 O2 1.255 . S
C8 O9 1.258 1_554 S
C8 O10 1.256 . S
O9 Cd1 2.381 1_566 S
O9 C8 1.258 1_556 S
O10 Cd1 2.378 1_565 S
O10 C8 1.256 . S
O11 Cd12 2.300 . S
O11 C18 1.275 . S
Cd12 O11 2.300 . S
Cd12 O20 2.381 . S
Cd12 O21 2.378 . S
O13 Cd14 2.385 . S
O13 C18 1.255 . S
Cd14 O13 2.385 . S
Cd14 O15 2.317 . S
O15 Cd14 2.317 . S
O15 C16 1.232 . S
C16 O15 1.232 . S
C16 O17 1.218 . S
O17 C16 1.218 . S
C18 O11 1.275 . S
C18 O13 1.255 . S
C19 O20 1.258 . S
C19 O21 1.256 . S
O20 Cd12 2.381 . S
O20 C19 1.258 . S
O21 Cd12 2.378 . S
O21 C19 1.256 . S
O22 Cd23 2.300 . S
O22 C29 1.275 1_655 S
Cd23 O22 2.300 . S
Cd23 O31 2.381 . S
Cd23 O32 2.378 . S
O24 Cd25 2.385 . S
O24 C29 1.255 . S
Cd25 O24 2.385 . S
Cd25 O26 2.317 . S
O26 Cd25 2.317 . S
O26 C27 1.232 . S
C27 O26 1.232 . S
C27 O28 1.218 . S
O28 C27 1.218 . S
C29 O22 1.275 1_455 S
C29 O24 1.255 . S
C30 O31 1.258 . S
C30 O32 1.256 . S
O31 Cd23 2.381 . S
O31 C30 1.258 . S
O32 Cd23 2.378 . S
O32 C30 1.256 . S
O33 Cd34 2.300 . S
O33 C40 1.275 . S
Cd34 O33 2.300 . S
Cd34 O42 2.381 . S
Cd34 O43 2.378 . S
O35 Cd36 2.385 . S
O35 C40 1.255 . S
Cd36 O35 2.385 . S
Cd36 O37 2.317 . S
O37 Cd36 2.317 . S
O37 C38 1.232 . S
C38 O37 1.232 . S
C38 O39 1.218 . S
O39 C38 1.218 . S
C40 O33 1.275 . S
C40 O35 1.255 . S
C41 O42 1.258 . S
C41 O43 1.256 . S
O42 Cd34 2.381 . S
O42 C41 1.258 . S
O43 Cd34 2.378 . S
O43 C41 1.256 . S
O44 Cd45 2.300 1_545 S
O44 C51 1.275 . S
Cd45 O44 2.300 1_565 S
Cd45 O53 2.381 . S
Cd45 O54 2.378 . S
O46 Cd47 2.385 . S
O46 C51 1.255 . S
Cd47 O46 2.385 . S
Cd47 O48 2.317 1_455 S
O48 Cd47 2.317 1_655 S
O48 C49 1.232 . S
C49 O48 1.232 . S
C49 O50 1.218 . S
O50 C49 1.218 . S
C51 O44 1.275 . S
C51 O46 1.255 . S
C52 O53 1.258 . S
C52 O54 1.256 . S
O53 Cd45 2.381 . S
O53 C52 1.258 . S
O54 Cd45 2.378 . S
O54 C52 1.256 . S
O55 Cd56 2.300 . S
O55 C62 1.275 . S
Cd56 O55 2.300 . S
Cd56 O64 2.381 . S
Cd56 O65 2.378 . S
O57 Cd58 2.385 . S
O57 C62 1.255 . S
Cd58 O57 2.385 . S
Cd58 O59 2.317 . S
O59 Cd58 2.317 . S
O59 C60 1.232 . S
C60 O59 1.232 . S
C60 O61 1.218 . S
O61 C60 1.218 . S
C62 O55 1.275 . S
C62 O57 1.255 . S
C63 O64 1.258 . S
C63 O65 1.256 . S
O64 Cd56 2.381 . S
O64 C63 1.258 . S
O65 Cd56 2.378 . S
O65 C63 1.256 . S
O66 Cd67 2.300 . S
O66 C73 1.275 1_655 S
Cd67 O66 2.300 . S
Cd67 O75 2.381 . S
Cd67 O76 2.378 . S
O68 Cd69 2.385 . S
O68 C73 1.255 . S
Cd69 O68 2.385 . S
Cd69 O70 2.317 . S
O70 Cd69 2.317 . S
O70 C71 1.232 . S
C71 O70 1.232 . S
C71 O72 1.218 . S
O72 C71 1.218 . S
C73 O66 1.275 1_455 S
C73 O68 1.255 . S
C74 O75 1.258 . S
C74 O76 1.256 . S
O75 Cd67 2.381 . S
O75 C74 1.258 . S
O76 Cd67 2.378 . S
O76 C74 1.256 . S
O77 Cd78 2.300 . S
O77 C84 1.275 . S
Cd78 O77 2.300 . S
Cd78 O86 2.381 . S
Cd78 O87 2.378 . S
O79 Cd80 2.385 . S
O79 C84 1.255 . S
Cd80 O79 2.385 . S
Cd80 O81 2.317 . S
O81 Cd80 2.317 . S
O81 C82 1.232 . S
C82 O81 1.232 . S
C82 O83 1.218 . S
O83 C82 1.218 . S
C84 O77 1.275 . S
C84 O79 1.255 . S
C85 O86 1.258 . S
C85 O87 1.256 . S
O86 Cd78 2.381 . S
O86 C85 1.258 . S
O87 Cd78 2.378 . S
O87 C85 1.256 . S
O88 Cd89 2.300 . S
O88 C95 1.275 . S
Cd89 O88 2.300 . S
Cd89 O97 2.381 . S
Cd89 O98 2.378 . S
O90 Cd91 2.385 . S
O90 C95 1.255 . S
Cd91 O90 2.385 . S
Cd91 O92 2.317 . S
O92 Cd91 2.317 . S
O92 C93 1.232 . S
C93 O92 1.232 . S
C93 O94 1.218 . S
O94 C93 1.218 . S
C95 O88 1.275 . S
C95 O90 1.255 . S
C96 O97 1.258 . S
C96 O98 1.256 . S
O97 Cd89 2.381 . S
O97 C96 1.258 . S
O98 Cd89 2.378 . S
O98 C96 1.256 . S
O99 Cd100 2.300 . S
O99 C106 1.275 1_545 S
Cd100 O99 2.300 . S
Cd100 O108 2.381 . S
Cd100 O109 2.378 . S
O101 Cd102 2.385 . S
O101 C106 1.255 . S
Cd102 O101 2.385 . S
Cd102 O103 2.317 . S
O103 Cd102 2.317 . S
O103 C104 1.232 . S
C104 O103 1.232 . S
C104 O105 1.218 . S
O105 C104 1.218 . S
C106 O99 1.275 1_565 S
C106 O101 1.255 . S
C107 O108 1.258 . S
C107 O109 1.256 . S
O108 Cd100 2.381 . S
O108 C107 1.258 . S
O109 Cd100 2.378 . S
O109 C107 1.256 . S
O110 Cd111 2.300 . S
O110 C117 1.275 . S
Cd111 O110 2.300 . S
Cd111 O119 2.381 . S
Cd111 O120 2.378 . S
O112 Cd113 2.385 . S
O112 C117 1.255 . S
Cd113 O112 2.385 . S
Cd113 O114 2.317 . S
O114 Cd113 2.317 . S
O114 C115 1.232 . S
C115 O114 1.232 . S
C115 O116 1.218 . S
O116 C115 1.218 . S
C117 O110 1.275 . S
C117 O112 1.255 . S
C118 O119 1.258 . S
C118 O120 1.256 . S
O119 Cd111 2.381 . S
O119 C118 1.258 . S
O120 Cd111 2.378 . S
O120 C118 1.256 . S
O121 Cd122 2.300 . S
O121 C128 1.275 . S
Cd122 O121 2.300 . S
Cd122 O130 2.381 . S
Cd122 O131 2.378 . S
O123 Cd124 2.385 . S
O123 C128 1.255 . S
Cd124 O123 2.385 . S
Cd124 O125 2.317 . S
O125 Cd124 2.317 . S
O125 C126 1.232 . S
C126 O125 1.232 . S
C126 O127 1.218 . S
O127 C126 1.218 . S
C128 O121 1.275 . S
C128 O123 1.255 . S
C129 O130 1.258 . S
C129 O131 1.256 . S
O130 Cd122 2.381 . S
O130 C129 1.258 . S
O131 Cd122 2.378 . S
O131 C129 1.256 . S
O132 Cd133 2.300 . S
O132 C139 1.275 . S
Cd133 O132 2.300 . S
Cd133 O141 2.381 . S
Cd133 O142 2.378 . S
O134 Cd135 2.385 . S
O134 C139 1.255 . S
Cd135 O134 2.385 . S
Cd135 O136 2.317 . S
O136 Cd135 2.317 . S
O136 C137 1.232 . S
C137 O136 1.232 . S
C137 O138 1.218 . S
O138 C137 1.218 . S
C139 O132 1.275 . S
C139 O134 1.255 . S
C140 O141 1.258 . S
C140 O142 1.256 . S
O141 Cd133 2.381 . S
O141 C140 1.258 . S
O142 Cd133 2.378 . S
O142 C140 1.256 . S
O143 Cd144 2.300 . S
O143 C150 1.275 1_554 S
Cd144 O143 2.300 . S
Cd144 O152 2.381 . S
Cd144 O153 2.378 . S
O145 Cd146 2.385 . S
O145 C150 1.255 . S
Cd146 O145 2.385 . S
Cd146 O147 2.317 . S
O147 Cd146 2.317 . S
O147 C148 1.232 . S
C148 O147 1.232 . S
C148 O149 1.218 . S
O149 C148 1.218 . S
C150 O143 1.275 1_556 S
C150 O145 1.255 . S
C151 O152 1.258 . S
C151 O153 1.256 . S
O152 Cd144 2.381 . S
O152 C151 1.258 . S
O153 Cd144 2.378 . S
O153 C151 1.256 . S
O154 Cd155 2.300 . S
O154 C161 1.275 . S
Cd155 O154 2.300 . S
Cd155 O163 2.381 . S
Cd155 O164 2.378 . S
O156 Cd157 2.385 . S
O156 C161 1.255 . S
Cd157 O156 2.385 . S
Cd157 O158 2.317 . S
O158 Cd157 2.317 . S
O158 C159 1.232 . S
C159 O158 1.232 . S
C159 O160 1.218 . S
O160 C159 1.218 . S
C161 O154 1.275 . S
C161 O156 1.255 . S
C162 O163 1.258 . S
C162 O164 1.256 . S
O163 Cd155 2.381 . S
O163 C162 1.258 . S
O164 Cd155 2.378 . S
O164 C162 1.256 . S
O165 Cd166 2.300 1_546 S
O165 C172 1.275 . S
Cd166 O165 2.300 1_564 S
Cd166 O174 2.381 1_554 S
Cd166 O175 2.378 . S
O167 Cd168 2.385 1_556 S
O167 C172 1.255 . S
Cd168 O167 2.385 1_554 S
Cd168 O169 2.317 . S
O169 Cd168 2.317 . S
O169 C170 1.232 . S
C170 O169 1.232 . S
C170 O171 1.218 . S
O171 C170 1.218 . S
C172 O165 1.275 . S
C172 O167 1.255 . S
C173 O174 1.258 1_554 S
C173 O175 1.256 . S
O174 Cd166 2.381 1_556 S
O174 C173 1.258 1_556 S
O175 Cd166 2.378 . S
O175 C173 1.256 . S
C176 O177 1.160 1_554 S
C176 O183 1.185 . S
O177 C176 1.160 1_556 S
O178 Zn179 1.899 1_556 S
O178 C186 1.284 . S
Zn179 O178 1.899 1_554 S
Zn179 O180 2.032 . S
Zn179 O183 2.086 . S
Zn179 O188 1.977 . S
O180 Zn179 2.032 . S
O180 C184 1.278 . S
C181 O182 1.203 . S
C181 O188 1.267 . S
O182 C181 1.203 . S
O183 C176 1.185 . S
O183 Zn179 2.086 . S
C184 O180 1.278 . S
C184 O185 1.211 . S
O185 C184 1.211 . S
C186 O178 1.284 . S
C186 O187 1.273 . S
O187 C186 1.273 . S
O188 Zn179 1.977 . S
O188 C181 1.267 . S
C189 O190 1.160 . S
C189 O196 1.185 . S
O190 C189 1.160 . S
O191 Zn192 1.899 . S
O191 C199 1.284 . S
Zn192 O191 1.899 . S
Zn192 O193 2.032 . S
Zn192 O196 2.086 . S
Zn192 O201 1.977 . S
O193 Zn192 2.032 . S
O193 C197 1.278 . S
C194 O195 1.203 . S
C194 O201 1.267 . S
O195 C194 1.203 . S
O196 C189 1.185 . S
O196 Zn192 2.086 . S
C197 O193 1.278 . S
C197 O198 1.211 . S
O198 C197 1.211 . S
C199 O191 1.284 . S
C199 O200 1.273 . S
O200 C199 1.273 . S
O201 Zn192 1.977 . S
O201 C194 1.267 . S
C202 O203 1.160 1_554 S
C202 O209 1.185 . S
O203 C202 1.160 1_556 S
O204 Zn205 1.899 1_556 S
O204 C212 1.284 . S
Zn205 O204 1.899 1_554 S
Zn205 O206 2.032 1_554 S
Zn205 O209 2.086 . S
Zn205 O214 1.977 . S
O206 Zn205 2.032 1_556 S
O206 C210 1.278 . S
C207 O208 1.203 . S
C207 O214 1.267 . S
O208 C207 1.203 . S
O209 C202 1.185 . S
O209 Zn205 2.086 . S
C210 O206 1.278 . S
C210 O211 1.211 1_556 S
O211 C210 1.211 1_554 S
C212 O204 1.284 . S
C212 O213 1.273 . S
O213 C212 1.273 . S
O214 Zn205 1.977 . S
O214 C207 1.267 . S
C215 O216 1.160 . S
C215 O222 1.185 . S
O216 C215 1.160 . S
O217 Zn218 1.899 . S
O217 C225 1.284 . S
Zn218 O217 1.899 . S
Zn218 O219 2.032 1_545 S
Zn218 O222 2.086 . S
Zn218 O227 1.977 . S
O219 Zn218 2.032 1_565 S
O219 C223 1.278 . S
C220 O221 1.203 . S
C220 O227 1.267 . S
O221 C220 1.203 . S
O222 C215 1.185 . S
O222 Zn218 2.086 . S
C223 O219 1.278 . S
C223 O224 1.211 . S
O224 C223 1.211 . S
C225 O217 1.284 . S
C225 O226 1.273 1_545 S
O226 C225 1.273 1_565 S
O227 Zn218 1.977 . S
O227 C220 1.267 . S
C228 O229 1.160 . S
C228 O235 1.185 . S
O229 C228 1.160 . S
O230 Zn231 1.899 . S
O230 C238 1.284 . S
Zn231 O230 1.899 . S
Zn231 O232 2.032 . S
Zn231 O235 2.086 . S
Zn231 O240 1.977 . S
O232 Zn231 2.032 . S
O232 C236 1.278 . S
C233 O234 1.203 . S
C233 O240 1.267 . S
O234 C233 1.203 . S
O235 C228 1.185 . S
O235 Zn231 2.086 . S
C236 O232 1.278 . S
C236 O237 1.211 . S
O237 C236 1.211 . S
C238 O230 1.284 . S
C238 O239 1.273 . S
O239 C238 1.273 . S
O240 Zn231 1.977 . S
O240 C233 1.267 . S
C241 O242 1.160 . S
C241 O248 1.185 . S
O242 C241 1.160 . S
O243 Zn244 1.899 . S
O243 C251 1.284 . S
Zn244 O243 1.899 . S
Zn244 O245 2.032 . S
Zn244 O248 2.086 . S
Zn244 O253 1.977 . S
O245 Zn244 2.032 . S
O245 C249 1.278 . S
C246 O247 1.203 . S
C246 O253 1.267 . S
O247 C246 1.203 . S
O248 C241 1.185 . S
O248 Zn244 2.086 . S
C249 O245 1.278 . S
C249 O250 1.211 . S
O250 C249 1.211 . S
C251 O243 1.284 . S
C251 O252 1.273 . S
O252 C251 1.273 . S
O253 Zn244 1.977 . S
O253 C246 1.267 . S
C254 O255 1.160 . S
C254 O261 1.185 . S
O255 C254 1.160 . S
O256 Zn257 1.899 . S
O256 C264 1.284 . S
Zn257 O256 1.899 . S
Zn257 O258 2.032 . S
Zn257 O261 2.086 . S
Zn257 O266 1.977 . S
O258 Zn257 2.032 . S
O258 C262 1.278 . S
C259 O260 1.203 . S
C259 O266 1.267 . S
O260 C259 1.203 . S
O261 C254 1.185 . S
O261 Zn257 2.086 . S
C262 O258 1.278 . S
C262 O263 1.211 . S
O263 C262 1.211 . S
C264 O256 1.284 . S
C264 O265 1.273 . S
O265 C264 1.273 . S
O266 Zn257 1.977 . S
O266 C259 1.267 . S
C267 O268 1.160 . S
C267 O274 1.185 . S
O268 C267 1.160 . S
O269 Zn270 1.899 . S
O269 C277 1.284 1_565 S
Zn270 O269 1.899 . S
Zn270 O271 2.032 1_565 S
Zn270 O274 2.086 . S
Zn270 O279 1.977 . S
O271 Zn270 2.032 1_545 S
O271 C275 1.278 . S
C272 O273 1.203 1_565 S
C272 O279 1.267 . S
O273 C272 1.203 1_545 S
O274 C267 1.185 . S
O274 Zn270 2.086 . S
C275 O271 1.278 . S
C275 O276 1.211 . S
O276 C275 1.211 . S
C277 O269 1.284 1_545 S
C277 O278 1.273 . S
O278 C277 1.273 . S
O279 Zn270 1.977 . S
O279 C272 1.267 . S
C280 O281 1.160 1_454 S
C280 O287 1.185 1_554 S
O281 C280 1.160 1_656 S
O282 Zn283 1.899 1_655 S
O282 C290 1.284 . S
Zn283 O282 1.899 1_455 S
Zn283 O284 2.021 1_556 S
Zn283 O287 2.086 . S
Zn283 O292 1.977 . S
O284 Zn283 2.021 1_554 S
O284 C288 1.276 1_554 S
C285 O286 1.203 . S
C285 O292 1.267 . S
O286 C285 1.203 . S
O287 C280 1.185 1_556 S
O287 Zn283 2.086 . S
C288 O284 1.276 1_556 S
C288 O289 1.211 . S
O289 C288 1.211 . S
C290 O282 1.284 . S
C290 O291 1.273 . S
O291 C290 1.273 . S
O292 Zn283 1.977 . S
O292 C285 1.267 . S
C293 O294 1.160 . S
C293 O300 1.185 . S
O294 C293 1.160 . S
O295 Zn296 1.899 . S
O295 C303 1.284 . S
Zn296 O295 1.899 . S
Zn296 O297 2.032 . S
Zn296 O300 2.086 . S
Zn296 O305 1.977 . S
O297 Zn296 2.032 . S
O297 C301 1.278 . S
C298 O299 1.203 . S
C298 O305 1.267 . S
O299 C298 1.203 . S
O300 C293 1.185 . S
O300 Zn296 2.086 . S
C301 O297 1.278 . S
C301 O302 1.211 . S
O302 C301 1.211 . S
C303 O295 1.284 . S
C303 O304 1.273 . S
O304 C303 1.273 . S
O305 Zn296 1.977 . S
O305 C298 1.267 . S
C306 O307 1.160 1_455 S
C306 O313 1.185 . S
O307 C306 1.160 1_655 S
O308 Zn309 1.899 1_655 S
O308 C316 1.284 . S
Zn309 O308 1.899 1_455 S
Zn309 O310 2.032 . S
Zn309 O313 2.086 . S
Zn309 O318 1.977 . S
O310 Zn309 2.032 . S
O310 C314 1.278 . S
C311 O312 1.203 . S
C311 O318 1.267 . S
O312 C311 1.203 . S
O313 C306 1.185 . S
O313 Zn309 2.086 . S
C314 O310 1.278 . S
C314 O315 1.211 . S
O315 C314 1.211 . S
C316 O308 1.284 . S
C316 O317 1.273 . S
O317 C316 1.273 . S
O318 Zn309 1.977 . S
O318 C311 1.267 . S
C319 O320 1.160 . S
C319 O326 1.185 . S
O320 C319 1.160 . S
O321 Zn322 1.899 . S
O321 C329 1.284 . S
Zn322 O321 1.899 . S
Zn322 O323 2.032 . S
Zn322 O326 2.086 . S
Zn322 O331 1.977 . S
O323 Zn322 2.032 . S
O323 C327 1.278 . S
C324 O325 1.203 . S
C324 O331 1.267 . S
O325 C324 1.203 . S
O326 C319 1.185 . S
O326 Zn322 2.086 . S
C327 O323 1.278 . S
C327 O328 1.211 . S
O328 C327 1.211 . S
C329 O321 1.284 . S
C329 O330 1.273 . S
O330 C329 1.273 . S
O331 Zn322 1.977 . S
O331 C324 1.267 . S
C186 C62 1.073 . S
C199 C73 1.624 . S
C84 C212 1.490 . S
C225 C49 1.516 . S
C233 C118 1.320 . S
C246 C137 1.550 . S
C129 C259 1.661 . S
C272 C106 2.002 . S
C128 C290 1.842 . S
C301 C104 1.422 . S
C115 C285 1.747 . S
C293 C139 1.729 . S
C85 C316 1.591 . S
C52 C306 1.187 . S
C60 C311 1.112 . S
C71 C314 1.962 . S
C40 C223 1.699 . S
C162 C215 1.130 . S
C184 C173 1.205 . S
C189 C93 1.841 . S
C51 C236 1.395 . S
C275 C126 1.728 . S
C228 C107 1.889 . S
C254 C140 1.668 . S
C264 C161 1.073 . S
C172 C277 1.621 . S
C95 C238 1.490 . S
C251 C148 1.517 . S
C41 C207 1.320 . S
C220 C5 1.550 . S
C181 C19 1.661 . S
C194 C29 2.002 . S
C18 C303 1.842 . S
C27 C288 1.422 1_554 S
C38 C298 1.747 . S
C7 C280 1.729 . S
C329 C96 1.591 . S
C319 C151 1.187 . S
C324 C159 1.113 . S
C170 C327 1.963 . S
C117 C249 1.699 . S
C241 C63 1.130 . S
C262 C74 1.204 . S
C267 C82 1.840 . S
C150 C210 1.395 . S
C197 C16 1.728 . S
C30 C202 1.889 . S
C176 C8 1.668 . S
