# Generated by pormake.
# Topology gar, (4,6)-cn, num edge types: 1
# Building blocks:
#     Node 0, Type 0, BuildingBlock: CEKHIL_clean_sbu_0, # of connection points: 4
#     Node 1, Type 0, BuildingBlock: CEKHIL_clean_sbu_0, # of connection points: 4
#     Node 2, Type 0, BuildingBlock: CEKHIL_clean_sbu_0, # of connection points: 4
#     Node 3, Type 0, BuildingBlock: CEKHIL_clean_sbu_0, # of connection points: 4
#     Node 4, Type 0, BuildingBlock: CEKHIL_clean_sbu_0, # of connection points: 4
#     Node 5, Type 0, BuildingBlock: CEKHIL_clean_sbu_0, # of connection points: 4
#     Node 6, Type 0, BuildingBlock: CEKHIL_clean_sbu_0, # of connection points: 4
#     Node 7, Type 0, BuildingBlock: CEKHIL_clean_sbu_0, # of connection points: 4
#     Node 8, Type 0, BuildingBlock: CEKHIL_clean_sbu_0, # of connection points: 4
#     Node 9, Type 0, BuildingBlock: CEKHIL_clean_sbu_0, # of connection points: 4
#     Node 10, Type 0, BuildingBlock: CEKHIL_clean_sbu_0, # of connection points: 4
#     Node 11, Type 0, BuildingBlock: CEKHIL_clean_sbu_0, # of connection points: 4
#     Node 12, Type 0, BuildingBlock: CEKHIL_clean_sbu_0, # of connection points: 4
#     Node 13, Type 0, BuildingBlock: CEKHIL_clean_sbu_0, # of connection points: 4
#     Node 14, Type 0, BuildingBlock: CEKHIL_clean_sbu_0, # of connection points: 4
#     Node 15, Type 0, BuildingBlock: CEKHIL_clean_sbu_0, # of connection points: 4
#     Node 16, Type 0, BuildingBlock: CEKHIL_clean_sbu_0, # of connection points: 4
#     Node 17, Type 0, BuildingBlock: CEKHIL_clean_sbu_0, # of connection points: 4
#     Node 18, Type 0, BuildingBlock: CEKHIL_clean_sbu_0, # of connection points: 4
#     Node 19, Type 0, BuildingBlock: CEKHIL_clean_sbu_0, # of connection points: 4
#     Node 20, Type 0, BuildingBlock: CEKHIL_clean_sbu_0, # of connection points: 4
#     Node 21, Type 0, BuildingBlock: CEKHIL_clean_sbu_0, # of connection points: 4
#     Node 22, Type 0, BuildingBlock: CEKHIL_clean_sbu_0, # of connection points: 4
#     Node 23, Type 0, BuildingBlock: CEKHIL_clean_sbu_0, # of connection points: 4
#     Node 24, Type 1, BuildingBlock: KUMBUR_clean_sbu_1, # of connection points: 6
#     Node 25, Type 1, BuildingBlock: KUMBUR_clean_sbu_1, # of connection points: 6
#     Node 26, Type 1, BuildingBlock: KUMBUR_clean_sbu_1, # of connection points: 6
#     Node 27, Type 1, BuildingBlock: KUMBUR_clean_sbu_1, # of connection points: 6
#     Node 28, Type 1, BuildingBlock: KUMBUR_clean_sbu_1, # of connection points: 6
#     Node 29, Type 1, BuildingBlock: KUMBUR_clean_sbu_1, # of connection points: 6
#     Node 30, Type 1, BuildingBlock: KUMBUR_clean_sbu_1, # of connection points: 6
#     Node 31, Type 1, BuildingBlock: KUMBUR_clean_sbu_1, # of connection points: 6
#     Node 32, Type 1, BuildingBlock: KUMBUR_clean_sbu_1, # of connection points: 6
#     Node 33, Type 1, BuildingBlock: KUMBUR_clean_sbu_1, # of connection points: 6
#     Node 34, Type 1, BuildingBlock: KUMBUR_clean_sbu_1, # of connection points: 6
#     Node 35, Type 1, BuildingBlock: KUMBUR_clean_sbu_1, # of connection points: 6
#     Node 36, Type 1, BuildingBlock: KUMBUR_clean_sbu_1, # of connection points: 6
#     Node 37, Type 1, BuildingBlock: KUMBUR_clean_sbu_1, # of connection points: 6
#     Node 38, Type 1, BuildingBlock: KUMBUR_clean_sbu_1, # of connection points: 6
#     Node 39, Type 1, BuildingBlock: KUMBUR_clean_sbu_1, # of connection points: 6
#     Edge 40, Type (0, 1), BuildingBlock: XIVTED_clean_linker_0, # of connection points: 2
#     Edge 41, Type (0, 1), BuildingBlock: XIVTED_clean_linker_0, # of connection points: 2
#     Edge 42, Type (0, 1), BuildingBlock: XIVTED_clean_linker_0, # of connection points: 2
#     Edge 43, Type (0, 1), BuildingBlock: XIVTED_clean_linker_0, # of connection points: 2
#     Edge 44, Type (0, 1), BuildingBlock: XIVTED_clean_linker_0, # of connection points: 2
#     Edge 45, Type (0, 1), BuildingBlock: XIVTED_clean_linker_0, # of connection points: 2
#     Edge 46, Type (0, 1), BuildingBlock: XIVTED_clean_linker_0, # of connection points: 2
#     Edge 47, Type (0, 1), BuildingBlock: XIVTED_clean_linker_0, # of connection points: 2
#     Edge 48, Type (0, 1), BuildingBlock: XIVTED_clean_linker_0, # of connection points: 2
#     Edge 49, Type (0, 1), BuildingBlock: XIVTED_clean_linker_0, # of connection points: 2
#     Edge 50, Type (0, 1), BuildingBlock: XIVTED_clean_linker_0, # of connection points: 2
#     Edge 51, Type (0, 1), BuildingBlock: XIVTED_clean_linker_0, # of connection points: 2
#     Edge 52, Type (0, 1), BuildingBlock: XIVTED_clean_linker_0, # of connection points: 2
#     Edge 53, Type (0, 1), BuildingBlock: XIVTED_clean_linker_0, # of connection points: 2
#     Edge 54, Type (0, 1), BuildingBlock: XIVTED_clean_linker_0, # of connection points: 2
#     Edge 55, Type (0, 1), BuildingBlock: XIVTED_clean_linker_0, # of connection points: 2
#     Edge 56, Type (0, 1), BuildingBlock: XIVTED_clean_linker_0, # of connection points: 2
#     Edge 57, Type (0, 1), BuildingBlock: XIVTED_clean_linker_0, # of connection points: 2
#     Edge 58, Type (0, 1), BuildingBlock: XIVTED_clean_linker_0, # of connection points: 2
#     Edge 59, Type (0, 1), BuildingBlock: XIVTED_clean_linker_0, # of connection points: 2
#     Edge 60, Type (0, 1), BuildingBlock: XIVTED_clean_linker_0, # of connection points: 2
#     Edge 61, Type (0, 1), BuildingBlock: XIVTED_clean_linker_0, # of connection points: 2
#     Edge 62, Type (0, 1), BuildingBlock: XIVTED_clean_linker_0, # of connection points: 2
#     Edge 63, Type (0, 1), BuildingBlock: XIVTED_clean_linker_0, # of connection points: 2
#     Edge 64, Type (0, 1), BuildingBlock: XIVTED_clean_linker_0, # of connection points: 2
#     Edge 65, Type (0, 1), BuildingBlock: XIVTED_clean_linker_0, # of connection points: 2
#     Edge 66, Type (0, 1), BuildingBlock: XIVTED_clean_linker_0, # of connection points: 2
#     Edge 67, Type (0, 1), BuildingBlock: XIVTED_clean_linker_0, # of connection points: 2
#     Edge 68, Type (0, 1), BuildingBlock: XIVTED_clean_linker_0, # of connection points: 2
#     Edge 69, Type (0, 1), BuildingBlock: XIVTED_clean_linker_0, # of connection points: 2
#     Edge 70, Type (0, 1), BuildingBlock: XIVTED_clean_linker_0, # of connection points: 2
#     Edge 71, Type (0, 1), BuildingBlock: XIVTED_clean_linker_0, # of connection points: 2
#     Edge 72, Type (0, 1), BuildingBlock: XIVTED_clean_linker_0, # of connection points: 2
#     Edge 73, Type (0, 1), BuildingBlock: XIVTED_clean_linker_0, # of connection points: 2
#     Edge 74, Type (0, 1), BuildingBlock: XIVTED_clean_linker_0, # of connection points: 2
#     Edge 75, Type (0, 1), BuildingBlock: XIVTED_clean_linker_0, # of connection points: 2
#     Edge 76, Type (0, 1), BuildingBlock: XIVTED_clean_linker_0, # of connection points: 2
#     Edge 77, Type (0, 1), BuildingBlock: XIVTED_clean_linker_0, # of connection points: 2
#     Edge 78, Type (0, 1), BuildingBlock: XIVTED_clean_linker_0, # of connection points: 2
#     Edge 79, Type (0, 1), BuildingBlock: XIVTED_clean_linker_0, # of connection points: 2
#     Edge 80, Type (0, 1), BuildingBlock: XIVTED_clean_linker_0, # of connection points: 2
#     Edge 81, Type (0, 1), BuildingBlock: XIVTED_clean_linker_0, # of connection points: 2
#     Edge 82, Type (0, 1), BuildingBlock: XIVTED_clean_linker_0, # of connection points: 2
#     Edge 83, Type (0, 1), BuildingBlock: XIVTED_clean_linker_0, # of connection points: 2
#     Edge 84, Type (0, 1), BuildingBlock: XIVTED_clean_linker_0, # of connection points: 2
#     Edge 85, Type (0, 1), BuildingBlock: XIVTED_clean_linker_0, # of connection points: 2
#     Edge 86, Type (0, 1), BuildingBlock: XIVTED_clean_linker_0, # of connection points: 2
#     Edge 87, Type (0, 1), BuildingBlock: XIVTED_clean_linker_0, # of connection points: 2
#     Edge 88, Type (0, 1), BuildingBlock: XIVTED_clean_linker_0, # of connection points: 2
#     Edge 89, Type (0, 1), BuildingBlock: XIVTED_clean_linker_0, # of connection points: 2
#     Edge 90, Type (0, 1), BuildingBlock: XIVTED_clean_linker_0, # of connection points: 2
#     Edge 91, Type (0, 1), BuildingBlock: XIVTED_clean_linker_0, # of connection points: 2
#     Edge 92, Type (0, 1), BuildingBlock: XIVTED_clean_linker_0, # of connection points: 2
#     Edge 93, Type (0, 1), BuildingBlock: XIVTED_clean_linker_0, # of connection points: 2
#     Edge 94, Type (0, 1), BuildingBlock: XIVTED_clean_linker_0, # of connection points: 2
#     Edge 95, Type (0, 1), BuildingBlock: XIVTED_clean_linker_0, # of connection points: 2
#     Edge 96, Type (0, 1), BuildingBlock: XIVTED_clean_linker_0, # of connection points: 2
#     Edge 97, Type (0, 1), BuildingBlock: XIVTED_clean_linker_0, # of connection points: 2
#     Edge 98, Type (0, 1), BuildingBlock: XIVTED_clean_linker_0, # of connection points: 2
#     Edge 99, Type (0, 1), BuildingBlock: XIVTED_clean_linker_0, # of connection points: 2
#     Edge 100, Type (0, 1), BuildingBlock: XIVTED_clean_linker_0, # of connection points: 2
#     Edge 101, Type (0, 1), BuildingBlock: XIVTED_clean_linker_0, # of connection points: 2
#     Edge 102, Type (0, 1), BuildingBlock: XIVTED_clean_linker_0, # of connection points: 2
#     Edge 103, Type (0, 1), BuildingBlock: XIVTED_clean_linker_0, # of connection points: 2
#     Edge 104, Type (0, 1), BuildingBlock: XIVTED_clean_linker_0, # of connection points: 2
#     Edge 105, Type (0, 1), BuildingBlock: XIVTED_clean_linker_0, # of connection points: 2
#     Edge 106, Type (0, 1), BuildingBlock: XIVTED_clean_linker_0, # of connection points: 2
#     Edge 107, Type (0, 1), BuildingBlock: XIVTED_clean_linker_0, # of connection points: 2
#     Edge 108, Type (0, 1), BuildingBlock: XIVTED_clean_linker_0, # of connection points: 2
#     Edge 109, Type (0, 1), BuildingBlock: XIVTED_clean_linker_0, # of connection points: 2
#     Edge 110, Type (0, 1), BuildingBlock: XIVTED_clean_linker_0, # of connection points: 2
#     Edge 111, Type (0, 1), BuildingBlock: XIVTED_clean_linker_0, # of connection points: 2
#     Edge 112, Type (0, 1), BuildingBlock: XIVTED_clean_linker_0, # of connection points: 2
#     Edge 113, Type (0, 1), BuildingBlock: XIVTED_clean_linker_0, # of connection points: 2
#     Edge 114, Type (0, 1), BuildingBlock: XIVTED_clean_linker_0, # of connection points: 2
#     Edge 115, Type (0, 1), BuildingBlock: XIVTED_clean_linker_0, # of connection points: 2
#     Edge 116, Type (0, 1), BuildingBlock: XIVTED_clean_linker_0, # of connection points: 2
#     Edge 117, Type (0, 1), BuildingBlock: XIVTED_clean_linker_0, # of connection points: 2
#     Edge 118, Type (0, 1), BuildingBlock: XIVTED_clean_linker_0, # of connection points: 2
#     Edge 119, Type (0, 1), BuildingBlock: XIVTED_clean_linker_0, # of connection points: 2
#     Edge 120, Type (0, 1), BuildingBlock: XIVTED_clean_linker_0, # of connection points: 2
#     Edge 121, Type (0, 1), BuildingBlock: XIVTED_clean_linker_0, # of connection points: 2
#     Edge 122, Type (0, 1), BuildingBlock: XIVTED_clean_linker_0, # of connection points: 2
#     Edge 123, Type (0, 1), BuildingBlock: XIVTED_clean_linker_0, # of connection points: 2
#     Edge 124, Type (0, 1), BuildingBlock: XIVTED_clean_linker_0, # of connection points: 2
#     Edge 125, Type (0, 1), BuildingBlock: XIVTED_clean_linker_0, # of connection points: 2
#     Edge 126, Type (0, 1), BuildingBlock: XIVTED_clean_linker_0, # of connection points: 2
#     Edge 127, Type (0, 1), BuildingBlock: XIVTED_clean_linker_0, # of connection points: 2
#     Edge 128, Type (0, 1), BuildingBlock: XIVTED_clean_linker_0, # of connection points: 2
#     Edge 129, Type (0, 1), BuildingBlock: XIVTED_clean_linker_0, # of connection points: 2
#     Edge 130, Type (0, 1), BuildingBlock: XIVTED_clean_linker_0, # of connection points: 2
#     Edge 131, Type (0, 1), BuildingBlock: XIVTED_clean_linker_0, # of connection points: 2
#     Edge 132, Type (0, 1), BuildingBlock: XIVTED_clean_linker_0, # of connection points: 2
#     Edge 133, Type (0, 1), BuildingBlock: XIVTED_clean_linker_0, # of connection points: 2
#     Edge 134, Type (0, 1), BuildingBlock: XIVTED_clean_linker_0, # of connection points: 2
#     Edge 135, Type (0, 1), BuildingBlock: XIVTED_clean_linker_0, # of connection points: 2
# Relax obj value: 0.068
# Max RMSD: 0.179
# Mean RMSD: 0.109
data_MOF--net-gar--node1-CEKHIL_clean_sbu_0--node2-KUMBUR_clean_sbu_1--edge1-XIVTED_clean_linker_0
_symmetry_space_group_name_H-M    P1
_symmetry_Int_Tables_number       1
_symmetry_cell_setting            triclinic
loop_
_symmetry_equiv_pos_as_xyz
'x, y, z'
_cell_length_a     60.077898
_cell_length_b     59.457286
_cell_length_c     55.315648
_cell_angle_alpha  96.099404
_cell_angle_beta   96.300691
_cell_angle_gamma 100.84804
loop_
_atom_site_label
_atom_site_type_symbol
_atom_site_fract_x
_atom_site_fract_y
_atom_site_fract_z
_atom_type_partial_charge
Co0 Co 0.06651 0.3331 0.36334 0.0
O1 O 0.10019 0.33598 0.3697 0.0
O2 O 0.08049 0.32197 0.33425 0.0
C3 C 0.06632 0.36945 0.38374 0.0
O4 O 0.03111 0.32812 0.34897 0.0
Co5 Co 0.036 0.33653 0.40536 0.0
O6 O 1.0113 0.33833 0.37933 0.0
C7 C 0.05659 0.29529 0.396 0.0
C8 C 0.10061 0.32718 0.34733 0.0
C9 C 1.01214 0.33206 0.35677 0.0
O10 O 0.06188 0.30106 0.37505 0.0
O11 O 0.04836 0.30833 0.41108 0.0
O12 O 0.07085 0.36723 0.3612 0.0
O13 O 0.06329 0.35037 0.39291 0.0
Co14 Co 0.02931 0.76449 0.702 0.0
O15 O 0.9959 0.76315 0.69467 0.0
O16 O 1.01138 0.75758 0.73009 0.0
C17 C 0.03873 0.79915 0.68676 0.0
O18 O 0.06424 0.76598 0.71654 0.0
Co19 Co 0.06047 0.76652 0.66058 0.0
O20 O 0.0867 0.7738 0.68699 0.0
C21 C 0.03255 0.7212 0.66719 0.0
C22 C 0.99277 0.75988 0.71686 0.0
C23 C 0.08449 0.7707 0.70908 0.0
O24 O 0.02573 0.73016 0.68697 0.0
O25 O 0.04486 0.73325 0.65385 0.0
O26 O 0.03405 0.79847 0.70903 0.0
O27 O 0.03664 0.77918 0.67421 0.0
Co28 Co 0.57062 0.83307 0.86526 0.0
O29 O 0.6043 0.83667 0.87319 0.0
O30 O 0.58618 0.82264 0.83704 0.0
C31 C 0.56818 0.86906 0.88486 0.0
O32 O 0.53558 0.82707 0.84955 0.0
Co33 Co 0.53837 0.83497 0.90597 0.0
O34 O 0.51357 0.83411 0.87902 0.0
C35 C 0.56089 0.79507 0.89763 0.0
C36 C 0.60583 0.82802 0.85104 0.0
C37 C 0.51576 0.829 0.85659 0.0
O38 O 0.56631 0.80103 0.87682 0.0
O39 O 0.55206 0.80772 0.91251 0.0
O40 O 0.57407 0.86703 0.86287 0.0
O41 O 0.56561 0.85011 0.89432 0.0
Co42 Co 0.52581 0.26394 0.20079 0.0
O43 O 0.49278 0.26379 0.19354 0.0
O44 O 0.50757 0.25641 0.22853 0.0
C45 C 0.53592 0.2988 0.18647 0.0
O46 O 0.56068 0.2648 0.21497 0.0
Co47 Co 0.55632 0.26582 0.15877 0.0
O48 O 0.5823 0.27504 0.1854 0.0
C49 C 0.52803 0.22073 0.16524 0.0
C50 C 0.48936 0.25986 0.21544 0.0
C51 C 0.58067 0.27104 0.20736 0.0
O52 O 0.52145 0.22977 0.1851 0.0
O53 O 0.54051 0.23263 0.15192 0.0
O54 O 0.53126 0.29784 0.20873 0.0
O55 O 0.53331 0.27899 0.17343 0.0
Co56 Co 0.07202 0.80767 0.12109 0.0
O57 O 0.03886 0.80364 0.11419 0.0
O58 O 0.05725 0.79859 0.14915 0.0
C59 C 0.07832 0.8441 0.10618 0.0
O60 O 0.10521 0.81078 0.13814 0.0
Co61 Co 0.10336 0.80857 0.08595 0.0
O62 O 0.13038 0.81585 0.11174 0.0
C63 C 0.07911 0.76224 0.09144 0.0
C64 C 0.03785 0.79878 0.13643 0.0
C65 C 0.12608 0.81415 0.13349 0.0
O66 O 0.07016 0.77291 0.10839 0.0
O67 O 0.09256 0.77379 0.07875 0.0
O68 O 0.0746 0.84132 0.12838 0.0
O69 O 0.07822 0.82469 0.09253 0.0
Co70 Co 0.5191 0.78517 0.44935 0.0
O71 O 0.55252 0.79084 0.45356 0.0
O72 O 0.53043 0.77445 0.41953 0.0
C73 C 0.51713 0.82299 0.46567 0.0
O74 O 0.48485 0.77852 0.43442 0.0
Co75 Co 0.49096 0.78304 0.48752 0.0
O76 O 0.46362 0.78416 0.46403 0.0
C77 C 0.51199 0.74295 0.48003 0.0
C78 C 0.551 0.78214 0.43074 0.0
C79 C 0.46543 0.78069 0.44135 0.0
O80 O 0.51823 0.75235 0.461 0.0
O81 O 0.50141 0.75359 0.49488 0.0
O82 O 0.52008 0.81715 0.44324 0.0
O83 O 0.51657 0.80605 0.47912 0.0
Co84 Co 0.581 0.31359 0.62148 0.0
O85 O 0.5478 0.31048 0.61566 0.0
O86 O 0.56671 0.30483 0.65 0.0
C87 C 0.58741 0.35028 0.60645 0.0
O88 O 0.61444 0.31574 0.63798 0.0
Co89 Co 0.61119 0.31355 0.58605 0.0
O90 O 0.63894 0.31956 0.61087 0.0
C91 C 0.58596 0.26756 0.59091 0.0
C92 C 0.54718 0.30556 0.63791 0.0
C93 C 0.63515 0.31817 0.63281 0.0
O94 O 0.5778 0.27851 0.60837 0.0
O95 O 0.59944 0.27894 0.57814 0.0
O96 O 0.5845 0.34752 0.62886 0.0
O97 O 0.58675 0.33076 0.5927 0.0
Co98 Co 0.02315 0.28304 0.95284 0.0
O99 O 0.05664 0.28899 0.95653 0.0
O100 O 0.03394 0.27195 0.92305 0.0
C101 C 0.02061 0.3204 0.96913 0.0
O102 O 0.989 0.27592 0.93802 0.0
Co103 Co 0.99418 0.28084 0.99085 0.0
O104 O 0.96732 0.28234 0.96701 0.0
C105 C 1.01468 0.24037 0.98253 0.0
C106 C 0.05464 0.27973 0.9338 0.0
C107 C 0.96952 0.27839 0.94449 0.0
O108 O 0.02269 0.25063 0.9648 0.0
O109 O 1.00272 0.25017 0.99649 0.0
O110 O 0.02376 0.31486 0.94667 0.0
O111 O 0.02016 0.30344 0.9825 0.0
Co112 Co 0.41911 0.02454 0.29475 0.0
O113 O 0.42391 0.05628 0.28899 0.0
O114 O 0.39062 0.0314 0.28142 0.0
C115 C 0.43897 0.03102 0.33227 0.0
O116 O 0.40706 0.99129 0.29923 0.0
Co117 Co 0.4587 0.99818 0.30339 0.0
O118 O 0.43523 0.97456 0.31419 0.0
C119 C 0.4412 1.00443 0.25292 0.0
C120 C 0.40206 0.05229 0.28166 0.0
C121 C 0.41413 0.97441 0.30815 0.0
O122 O 0.42583 0.01452 0.26099 0.0
O123 O 0.45648 0.99777 0.26686 0.0
O124 O 0.41802 0.03401 0.32926 0.0
O125 O 0.44774 0.02612 0.31255 0.0
Co126 Co 0.28362 0.19353 0.51746 0.0
O127 O 0.31677 0.20097 0.52187 0.0
O128 O 0.29585 0.168 0.52845 0.0
C129 C 0.28014 0.2066 0.47994 0.0
O130 O 0.24998 0.1776 0.51431 0.0
Co131 Co 0.2522 0.22747 0.51218 0.0
O132 O 0.22604 0.20075 0.50464 0.0
C133 C 0.27517 0.22471 0.56169 0.0
C134 C 0.316 0.18028 0.5278 0.0
C135 C 0.22963 0.18102 0.5088 0.0
O136 O 0.28296 0.20723 0.55274 0.0
O137 O 0.26392 0.23606 0.54814 0.0
O138 O 0.28353 0.18593 0.48211 0.0
O139 O 0.27931 0.21908 0.50037 0.0
Co140 Co 0.15285 0.06406 0.80635 0.0
O141 O 0.14543 0.0306 0.80175 0.0
O142 O 0.17787 0.05197 0.79485 0.0
C143 C 0.14076 0.06764 0.84416 0.0
O144 O 0.16863 0.09793 0.80948 0.0
Co145 Co 0.11941 0.09575 0.81165 0.0
O146 O 0.14586 0.12223 0.81891 0.0
C147 C 0.12165 0.07263 0.76221 0.0
C148 C 0.16577 0.03157 0.79542 0.0
C149 C 0.16535 0.11849 0.81485 0.0
O150 O 0.13895 0.06484 0.77128 0.0
O151 O 0.11045 0.08407 0.77565 0.0
O152 O 0.16102 0.06394 0.84144 0.0
O153 O 0.12792 0.06852 0.82396 0.0
Co154 Co 0.31438 0.93415 0.01077 0.0
O155 O 0.2856 0.93114 0.02367 0.0
O156 O 0.31182 0.96344 0.02753 0.0
C157 C 0.29948 0.91472 0.9737 0.0
O158 O 0.34507 0.94493 0.99922 0.0
Co159 Co 0.33557 0.89303 0.99201 0.0
O160 O 0.35771 0.91624 0.97887 0.0
C161 C 0.33822 0.90748 0.04553 0.0
C162 C 0.29168 0.95312 0.03133 0.0
C163 C 0.35937 0.93758 0.98629 0.0
O164 O 0.32969 0.92532 0.0417 0.0
O165 O 0.34022 0.89211 0.02828 0.0
O166 O 0.29899 0.9365 0.97835 0.0
O167 O 0.30789 0.90531 0.99158 0.0
Co168 Co 0.3196 0.40069 0.04776 0.0
O169 O 0.28651 0.39666 0.04487 0.0
O170 O 0.31106 0.42819 0.06234 0.0
C171 C 0.3207 0.3862 0.00817 0.0
O172 O 0.35414 0.41331 0.05302 0.0
Co173 Co 0.34663 0.3623 0.04066 0.0
O174 O 0.37094 0.38752 0.03356 0.0
C175 C 0.32708 0.36952 0.0873 0.0
C176 C 0.28994 0.41785 0.05549 0.0
C177 C 0.3712 0.40798 0.0432 0.0
O178 O 0.32051 0.38759 0.0804 0.0
O179 O 0.33684 0.3567 0.07357 0.0
O180 O 0.31858 0.4074 0.01385 0.0
O181 O 0.32081 0.37398 0.02619 0.0
Co182 Co 0.76683 0.1333 0.04183 0.0
O183 O 0.79914 0.14508 0.04298 0.0
O184 O 0.78362 0.11036 0.05127 0.0
C185 C 0.75629 0.14494 0.00548 0.0
O186 O 0.7349 0.11436 0.04187 0.0
Co187 Co 0.73017 0.16417 0.03929 0.0
O188 O 0.70873 0.13431 0.02871 0.0
C189 C 0.75744 0.16176 0.08682 0.0
C190 C 0.80191 0.12509 0.04886 0.0
C191 C 0.71424 0.11571 0.03439 0.0
O192 O 0.76781 0.14668 0.07714 0.0
O193 O 0.74314 0.17116 0.07464 0.0
O194 O 0.76392 0.1259 0.00596 0.0
O195 O 0.75684 0.15678 0.02649 0.0
Co196 Co 0.20154 0.5447 0.27822 0.0
O197 O 0.19231 0.5117 0.27434 0.0
O198 O 0.22693 0.53068 0.2706 0.0
C199 C 0.18647 0.55087 0.31328 0.0
O200 O 0.21759 0.57866 0.28213 0.0
Co201 Co 0.1658 0.57675 0.28013 0.0
O202 O 0.1931 0.59975 0.29588 0.0
C203 C 0.17474 0.55468 0.23235 0.0
C204 C 0.21324 0.51101 0.27113 0.0
C205 C 0.21314 0.59774 0.29179 0.0
O206 O 0.19054 0.54536 0.2424 0.0
O207 O 0.16279 0.56645 0.24428 0.0
O208 O 0.20645 0.54541 0.31398 0.0
O209 O 0.17583 0.55052 0.29171 0.0
Co210 Co 0.81763 0.89948 0.54586 0.0
O211 O 0.78467 0.89236 0.54398 0.0
O212 O 0.8066 0.92612 0.55937 0.0
C213 C 0.81881 0.88432 0.50655 0.0
O214 O 0.8517 0.9145 0.54966 0.0
Co215 Co 0.84653 0.86219 0.53965 0.0
O216 O 0.87244 0.88816 0.53915 0.0
C217 C 0.82587 0.86874 0.5854 0.0
C218 C 0.78613 0.9136 0.5535 0.0
C219 C 0.87076 0.90897 0.54532 0.0
O220 O 0.82055 0.8876 0.57918 0.0
O221 O 0.83458 0.85539 0.57112 0.0
O222 O 0.815 0.90499 0.51153 0.0
O223 O 0.8202 0.87285 0.52508 0.0
Co224 Co 0.94582 0.02769 0.27725 0.0
O225 O 0.95336 0.06109 0.28019 0.0
O226 O 0.91987 0.03957 0.26395 0.0
C227 C 0.96048 0.02524 0.31639 0.0
O228 O 0.93021 0.99344 0.27213 0.0
Co229 Co 0.98066 0.99647 0.28256 0.0
O230 O 0.95433 0.97366 0.28981 0.0
C231 C 0.97416 0.01688 0.23631 0.0
C232 C 0.93243 0.06008 0.27049 0.0
C233 C 0.93429 0.97526 0.28105 0.0
O234 O 0.95765 0.02545 0.24412 0.0
O235 O 0.98593 1.00548 0.24923 0.0
O236 O 0.94016 0.02948 0.3114 0.0
O237 O 0.97192 0.0239 0.29793 0.0
Co238 Co 0.28506 0.63709 0.56613 0.0
O239 O 0.31739 0.6387 0.57291 0.0
O240 O 0.29063 0.60748 0.5732 0.0
C241 C 0.28689 0.65528 0.53253 0.0
O242 O 0.25036 0.62821 0.55911 0.0
Co243 Co 0.2634 0.6807 0.56435 0.0
O244 O 0.23547 0.65837 0.54897 0.0
C245 C 0.27812 0.66557 0.61208 0.0
C246 C 0.31223 0.61691 0.57529 0.0
C247 C 0.23341 0.63699 0.55114 0.0
O248 O 0.28366 0.64737 0.60175 0.0
O249 O 0.27106 0.68093 0.60046 0.0
O250 O 0.28684 0.6333 0.53081 0.0
O251 O 0.2872 0.66553 0.5543 0.0
Co252 Co 0.44446 0.52823 0.77588 0.0
O253 O 0.44722 0.56154 0.77777 0.0
O254 O 0.41661 0.53556 0.76103 0.0
C255 C 0.45936 0.52825 0.81561 0.0
O256 O 0.43317 0.49324 0.77153 0.0
Co257 Co 0.48394 0.50254 0.78437 0.0
O258 O 0.45958 0.47713 0.79099 0.0
C259 C 0.47581 0.52125 0.73703 0.0
C260 C 0.42611 0.55717 0.7673 0.0
C261 C 0.4392 0.47622 0.78121 0.0
O262 O 0.45728 0.52692 0.7432 0.0
O263 O 0.48913 0.51263 0.7515 0.0
O264 O 0.43815 0.5297 0.80997 0.0
O265 O 0.47123 0.52822 0.79748 0.0
Co266 Co 0.68675 0.0576 0.78208 0.0
O267 O 0.67692 0.02464 0.77726 0.0
O268 O 0.70969 0.04374 0.76809 0.0
C269 C 0.67798 0.06301 0.82037 0.0
O270 O 0.703 0.09117 0.78506 0.0
Co271 Co 0.65334 0.09076 0.79267 0.0
O272 O 0.68192 0.11409 0.80276 0.0
C273 C 0.65458 0.06961 0.74189 0.0
C274 C 0.69638 0.02404 0.76931 0.0
C275 C 0.70039 0.11092 0.79493 0.0
O276 O 0.6711 0.0598 0.74874 0.0
O277 O 0.64469 0.08125 0.75664 0.0
O278 O 0.69707 0.05681 0.81666 0.0
O279 O 0.66423 0.06372 0.80101 0.0
Co280 Co 0.78696 0.68702 0.01919 0.0
O281 O 0.82014 0.69456 0.02506 0.0
O282 O 0.79876 0.66188 0.03174 0.0
C283 C 0.78448 0.69908 0.98119 0.0
O284 O 0.75323 0.67118 0.01483 0.0
Co285 Co 0.75568 0.72121 0.01128 0.0
O286 O 0.7296 0.69439 0.00417 0.0
C287 C 0.77751 0.71969 0.06162 0.0
C288 C 0.81907 0.67409 0.03172 0.0
C289 C 0.733 0.67468 0.00869 0.0
O290 O 0.78494 0.70158 0.05379 0.0
O291 O 0.7671 0.73095 0.04715 0.0
O292 O 0.78833 0.67871 0.98418 0.0
O293 O 0.78298 0.71189 1.00115 0.0
Co294 Co 0.9112 0.54092 0.81103 0.0
O295 O 0.91617 0.57243 0.80464 0.0
O296 O 0.88289 0.54755 0.79681 0.0
C297 C 0.9308 0.54758 0.84889 0.0
O298 O 0.89925 0.50761 0.81571 0.0
Co299 Co 0.95201 0.51604 0.82066 0.0
O300 O 0.92827 0.4913 0.82932 0.0
C301 C 0.93774 0.52629 0.77105 0.0
C302 C 0.89454 0.56822 0.79621 0.0
C303 C 0.90696 0.49073 0.82389 0.0
O304 O 0.91903 0.53097 0.77756 0.0
O305 O 0.95397 0.52253 0.78611 0.0
O306 O 0.90981 0.55055 0.84582 0.0
O307 O 0.93946 0.54292 0.82916 0.0
Co308 Co 0.79787 0.44171 0.498 0.0
O309 O 0.76585 0.43733 0.50054 0.0
O310 O 0.79099 0.47041 0.51126 0.0
C311 C 0.79478 0.42257 0.46026 0.0
O312 O 0.83185 0.45293 0.49732 0.0
Co313 Co 0.82151 0.39941 0.4924 0.0
O314 O 0.84803 0.42275 0.48679 0.0
C315 C 0.80416 0.41274 0.53815 0.0
C316 C 0.77007 0.45896 0.50973 0.0
C317 C 0.84898 0.44441 0.4915 0.0
O318 O 0.80358 0.43288 0.53197 0.0
O319 O 0.80799 0.39613 0.52358 0.0
O320 O 0.79211 0.44388 0.46274 0.0
O321 O 0.79677 0.41334 0.48016 0.0
Co322 Co 0.65678 0.55841 0.30378 0.0
O323 O 0.65312 0.52491 0.29714 0.0
O324 O 0.68366 0.55042 0.2924 0.0
C325 C 0.64329 0.55878 0.34097 0.0
O326 O 0.66937 0.59315 0.30914 0.0
Co327 Co 0.61934 0.58588 0.31006 0.0
O328 O 0.64375 0.61414 0.31888 0.0
C329 C 0.62447 0.56606 0.26 0.0
C330 C 0.6738 0.52893 0.29129 0.0
C331 C 0.66402 0.61269 0.31528 0.0
O332 O 0.64292 0.5599 0.26875 0.0
O333 O 0.61186 0.57515 0.27379 0.0
O334 O 0.66424 0.55693 0.33894 0.0
O335 O 0.63077 0.55937 0.32052 0.0
Tb336 Tb 0.07837 0.05481 0.05529 0.0
C337 C 1.0149 0.98633 0.96965 0.0
N338 N 1.0182 1.00969 0.97443 0.0
C339 C 1.01843 1.0126 0.93143 0.0
C340 C 1.01418 0.97522 0.94565 0.0
C341 C 1.01862 0.02275 0.95546 0.0
C342 C 1.01662 0.98876 0.92655 0.0
C343 C 1.00466 0.94911 0.98405 0.0
C344 C 1.01012 0.97343 0.98851 0.0
C345 C 1.00528 0.93795 0.96052 0.0
C346 C 1.01004 0.95098 0.94135 0.0
Tb347 Tb 0.02006 0.02409 0.01502 0.0
N348 N 1.00934 0.98481 0.0109 0.0
C349 C 0.99797 0.93681 1.00316 0.0
C350 C 1.00136 0.97299 0.02912 0.0
C351 C 0.99596 0.94883 0.02567 0.0
H352 H 0.01947 0.04112 0.95883 0.0
H353 H 0.99021 0.9395 0.04034 0.0
H354 H 0.06898 0.05948 0.11401 0.0
H355 H 0.13067 0.11349 0.0066 0.0
H356 H 0.99948 0.98208 0.04647 0.0
H357 H 0.99366 0.91811 1.00049 0.0
H358 H 0.10947 0.07549 0.01398 0.0
H359 H 0.01946 0.02316 0.91665 0.0
H360 H 1.00138 0.91926 0.95678 0.0
H361 H 1.00967 0.94215 0.92309 0.0
H362 H 0.07247 0.09103 0.14799 0.0
H363 H 1.01619 0.98091 0.90786 0.0
H364 H 0.13277 0.14808 0.03661 0.0
N365 N 0.08179 0.08189 0.08892 0.0
C366 C 0.09178 0.10372 0.08591 0.0
C367 C 0.07778 0.09487 0.13055 0.0
C368 C 0.09468 0.12214 0.10499 0.0
C369 C 0.07562 0.07709 0.11121 0.0
C370 C 0.08709 0.11754 0.12734 0.0
N371 N 0.09852 0.08881 0.04676 0.0
C372 C 0.10989 0.09059 0.02678 0.0
C373 C 0.1128 0.12922 0.06102 0.0
C374 C 0.10066 0.10728 0.0642 0.0
C375 C 0.12322 0.13152 0.03972 0.0
C376 C 0.12207 0.11203 0.02272 0.0
H377 H 0.08899 0.13124 0.14245 0.0
H378 H 0.108 0.15876 0.11584 0.0
H379 H 0.12393 0.16493 0.07736 0.0
O380 O 0.10712 0.04138 0.04742 0.0
O381 O 0.06439 0.07985 0.03362 0.0
O382 O 0.02639 0.06297 0.01915 0.0
O383 O 0.10388 0.05435 0.08444 0.0
O384 O 0.07757 0.03732 0.01791 0.0
O385 O 0.04566 0.04394 0.99628 0.0
O386 O 0.99322 0.03505 0.03142 0.0
O387 O 0.04402 1.00087 0.02672 0.0
O388 O 0.06494 0.01928 0.06337 0.0
O389 O 0.98726 0.01728 0.99469 0.0
O390 O 0.0215 0.02149 0.05412 0.0
O391 O 0.04635 0.05476 0.07179 0.0
C392 C 0.04337 0.08145 0.02484 0.0
C393 C 0.14135 0.05718 0.07366 0.0
C394 C 0.1809 0.053 0.07215 0.0
C395 C 0.18807 0.07704 0.07869 0.0
C396 C 0.1489 0.081 0.08072 0.0
C397 C 0.17216 0.09086 0.08306 0.0
C398 C 0.15737 0.0433 0.06972 0.0
C399 C 0.06723 0.04265 0.99781 0.0
C400 C 0.11696 0.04616 0.07004 0.0
C401 C 0.10576 0.14434 0.10146 0.0
C402 C 0.11484 0.14786 0.07953 0.0
C403 C 0.05685 1.00019 0.0478 0.0
C404 C 0.9686 0.04829 1.00281 0.0
C405 C 0.94268 0.07495 0.0083 0.0
C406 C 0.95097 0.08618 0.98898 0.0
C407 C 0.97665 0.05986 0.98364 0.0
C408 C 0.95156 0.05587 0.01507 0.0
C409 C 0.96781 0.07862 0.97674 0.0
C410 C 0.02899 0.03782 0.07259 0.0
C411 C 0.97907 0.02946 0.01118 0.0
H412 H 0.20594 0.08525 0.08024 0.0
H413 H 0.13697 0.09198 0.08451 0.0
H414 H 0.17787 0.1093 0.08825 0.0
H415 H 0.15138 0.02481 0.06506 0.0
H416 H 0.94423 0.10065 0.98308 0.0
H417 H 0.99001 0.05466 0.9742 0.0
H418 H 0.94561 0.04725 0.03017 0.0
H419 H 0.97415 0.08743 0.96197 0.0
Tb420 Tb 0.26939 0.78837 0.31708 0.0
C421 C 0.33121 0.76132 0.22934 0.0
N422 N 0.33758 0.77425 0.25158 0.0
C423 C 0.36944 0.75572 0.25882 0.0
C424 C 0.34335 0.74451 0.22115 0.0
C425 C 0.35678 0.77215 0.2661 0.0
C426 C 0.36257 0.74166 0.23634 0.0
C427 C 0.30579 0.75287 0.19109 0.0
C428 C 0.31265 0.76534 0.21473 0.0
C429 C 0.31732 0.73557 0.183 0.0
C430 C 0.33609 0.7314 0.19802 0.0
Tb431 Tb 0.31548 0.79993 0.26264 0.0
N432 N 0.30217 0.78238 0.22319 0.0
C433 C 0.28807 0.75867 0.17601 0.0
C434 C 0.2862 0.78931 0.20767 0.0
C435 C 0.27853 0.77727 0.18419 0.0
H436 H 0.36242 0.7831 0.2833 0.0
H437 H 0.26558 0.78267 0.17224 0.0
H438 H 0.21997 0.79816 0.28916 0.0
H439 H 0.31201 0.81592 0.40946 0.0
H440 H 0.27975 0.80455 0.21269 0.0
H441 H 0.28228 0.74955 0.15772 0.0
H442 H 0.30505 0.79348 0.3685 0.0
H443 H 0.38451 0.75396 0.27052 0.0
H444 H 0.31219 0.72569 0.16498 0.0
H445 H 0.34508 0.71829 0.19142 0.0
H446 H 0.1937 0.8241 0.29659 0.0
H447 H 0.3724 0.72897 0.23072 0.0
H448 H 0.28741 0.84342 0.4204 0.0
N449 N 0.24293 0.81138 0.32194 0.0
C450 C 0.24561 0.82473 0.34403 0.0
C451 C 0.20849 0.82479 0.30993 0.0
C452 C 0.23028 0.83924 0.34958 0.0
C453 C 0.22397 0.81048 0.30543 0.0
C454 C 0.21181 0.83947 0.33197 0.0
N455 N 0.27763 0.80892 0.35547 0.0
C456 C 0.29457 0.80579 0.37261 0.0
C457 C 0.26651 0.83623 0.38492 0.0
C458 C 0.26335 0.8232 0.36153 0.0
C459 C 0.28443 0.83377 0.4022 0.0
C460 C 0.2984 0.81833 0.39606 0.0
H461 H 0.19963 0.85034 0.33551 0.0
H462 H 0.22197 0.86388 0.37724 0.0
H463 H 0.25378 0.86128 0.40818 0.0
O464 O 0.26878 0.75983 0.33684 0.0
O465 O 0.28922 0.82394 0.32464 0.0
O466 O 0.29677 0.81119 0.28981 0.0
O467 O 0.23774 0.76749 0.31974 0.0
O468 O 0.30506 0.78186 0.3257 0.0
O469 O 0.3316 0.79884 0.3005 0.0
O470 O 0.32433 0.82664 0.24127 0.0
O471 O 0.30712 0.76353 0.269 0.0
O472 O 0.27574 0.7716 0.2823 0.0
O473 O 0.34649 0.82382 0.27345 0.0
O474 O 0.28082 0.80939 0.25508 0.0
O475 O 0.25405 0.78969 0.27807 0.0
C476 C 0.30057 0.82855 0.30683 0.0
C477 C 0.23683 0.75472 0.35852 0.0
C478 C 0.23635 0.74086 0.39835 0.0
C479 C 0.22044 0.75451 0.40407 0.0
C480 C 0.22087 0.76828 0.36455 0.0
C481 C 0.2127 0.76804 0.38717 0.0
C482 C 0.24428 0.74084 0.37541 0.0
C483 C 0.32633 0.78927 0.32047 0.0
C484 C 0.24658 0.75568 0.33527 0.0
C485 C 0.23353 0.85259 0.3727 0.0
C486 C 0.25161 0.85107 0.39034 0.0
C487 C 0.28891 0.75677 0.27934 0.0
C488 C 0.36388 0.83952 0.24073 0.0
C489 C 0.38067 0.85808 0.20779 0.0
C490 C 0.40108 0.85066 0.21459 0.0
C491 C 0.38441 0.83225 0.24728 0.0
C492 C 0.36223 0.85252 0.22113 0.0
C493 C 0.4029 0.83787 0.23425 0.0
C494 C 0.25929 0.80137 0.25922 0.0
C495 C 0.34414 0.83445 0.25431 0.0
H496 H 0.214 0.75469 0.42161 0.0
H497 H 0.21482 0.77923 0.35195 0.0
H498 H 0.20049 0.77856 0.39171 0.0
H499 H 0.25685 0.73067 0.37101 0.0
H500 H 0.41564 0.85477 0.20475 0.0
H501 H 0.38623 0.8223 0.26242 0.0
H502 H 0.34627 0.85786 0.21591 0.0
H503 H 0.41868 0.83225 0.23936 0.0
Tb504 Tb 0.5178 0.04146 0.54976 0.0
C505 C 0.60047 0.08293 0.49341 0.0
N506 N 0.58737 0.06124 0.48956 0.0
C507 C 0.58645 0.06105 0.44605 0.0
C508 C 0.60654 0.09481 0.47361 0.0
C509 C 0.58111 0.04986 0.46629 0.0
C510 C 0.59898 0.08372 0.4497 0.0
C511 C 0.62324 0.11483 0.52213 0.0
C512 C 0.60873 0.09285 0.51734 0.0
C513 C 0.62873 0.12704 0.50248 0.0
C514 C 0.62038 0.11707 0.47829 0.0
Tb515 Tb 0.57931 0.04547 0.52427 0.0
N516 N 0.6026 0.0808 0.53597 0.0
C517 C 0.63202 0.12368 0.5465 0.0
C518 C 0.61245 0.08856 0.55955 0.0
C519 C 0.62688 0.11033 0.56525 0.0
H520 H 0.5723 0.03201 0.46327 0.0
H521 H 0.63414 0.11672 0.58406 0.0
H522 H 0.52819 0.04731 0.61158 0.0
H523 H 0.46324 0.97524 0.48367 0.0
H524 H 0.60898 0.07808 0.57389 0.0
H525 H 0.64322 0.14053 0.55097 0.0
H526 H 0.48884 1.01316 0.49757 0.0
H527 H 0.58116 0.05208 0.42765 0.0
H528 H 0.63971 0.14405 0.50578 0.0
H529 H 0.62509 0.12653 0.4633 0.0
H530 H 0.51957 0.02291 0.64384 0.0
H531 H 0.60326 0.09226 0.43398 0.0
H532 H 0.45335 0.94818 0.51371 0.0
N533 N 0.51112 0.02141 0.58221 0.0
C534 C 0.49712 1.00021 0.57611 0.0
C535 C 0.5134 0.01622 0.62482 0.0
C536 C 0.49129 0.98593 0.59418 0.0
C537 C 0.51862 0.02986 0.60632 0.0
C538 C 0.49988 0.99408 0.61873 0.0
N539 N 0.49447 1.00695 0.53456 0.0
C540 C 0.48504 1.00127 0.5106 0.0
C541 C 0.47344 0.97125 0.54464 0.0
C542 C 0.48815 0.99294 0.55163 0.0
C543 C 0.46471 0.96473 0.51983 0.0
C544 C 0.47034 0.97992 0.50279 0.0
H545 H 0.49577 0.98364 0.63316 0.0
H546 H 0.47226 0.95292 0.60089 0.0
H547 H 0.45674 0.94005 0.55755 0.0
O548 O 0.49157 0.05567 0.53223 0.0
O549 O 0.52897 1.00772 0.53867 0.0
O550 O 0.55602 1.0116 0.51131 0.0
O551 O 0.49239 0.05033 0.56997 0.0
O552 O 0.52562 0.0542 0.51547 0.0
O553 O 0.5494 0.03442 0.49675 0.0
O554 O 0.60375 0.032 0.5457 0.0
O555 O 0.56886 0.07954 0.53488 0.0
O556 O 0.54013 0.07645 0.56045 0.0
O557 O 0.60575 0.03414 0.50757 0.0
O558 O 0.56964 0.03343 0.55815 0.0
O559 O 0.54728 0.05416 0.57711 0.0
C560 C 0.54077 0.99861 0.5224 0.0
C561 C 0.47961 0.08336 0.55922 0.0
C562 C 0.45682 0.11338 0.55707 0.0
C563 C 0.47438 0.12871 0.57296 0.0
C564 C 0.49652 0.09893 0.57552 0.0
C565 C 0.49402 0.12148 0.58212 0.0
C566 C 0.4596 0.09059 0.55014 0.0
C567 C 0.53032 0.04215 0.49626 0.0
C568 C 0.48279 0.05954 0.5524 0.0
C569 C 0.47684 0.96415 0.58725 0.0
C570 C 0.46795 0.95683 0.56256 0.0
C571 C 0.55619 0.08902 0.54988 0.0
C572 C 0.61792 1.00266 0.52355 0.0
C573 C 0.64216 0.9743 0.52977 0.0
C574 C 0.62477 0.95719 0.51571 0.0
C575 C 0.60113 0.98524 0.50938 0.0
C576 C 0.63852 0.99717 0.53369 0.0
C577 C 0.60446 0.96265 0.50569 0.0
C578 C 0.56652 0.04702 0.57694 0.0
C579 C 0.61409 0.02658 0.52709 0.0
H580 H 0.47266 0.14617 0.57895 0.0
H581 H 0.51152 0.09349 0.58353 0.0
H582 H 0.5072 0.13331 0.5947 0.0
H583 H 0.44632 0.07856 0.53783 0.0
H584 H 0.62705 0.93959 0.51183 0.0
H585 H 0.5856 0.98918 0.50077 0.0
H586 H 0.6516 1.01062 0.54451 0.0
H587 H 0.59138 0.94938 0.49465 0.0
Tb588 Tb 0.33331 0.28395 0.79037 0.0
C589 C 0.24864 0.32133 0.74103 0.0
N590 N 0.26247 0.33091 0.76217 0.0
C591 C 0.26251 0.36879 0.75092 0.0
C592 C 0.24143 0.33517 0.72378 0.0
C593 C 0.26909 0.35436 0.76757 0.0
C594 C 0.24875 0.35916 0.72885 0.0
C595 C 0.22626 0.28692 0.71573 0.0
C596 C 0.24115 0.29754 0.737 0.0
C597 C 0.21937 0.30059 0.69824 0.0
C598 C 0.22695 0.32465 0.70224 0.0
Tb599 Tb 0.27228 0.30536 0.78735 0.0
N600 N 0.24852 0.28482 0.75412 0.0
C601 C 0.21856 0.26294 0.71287 0.0
C602 C 0.24009 0.26164 0.75211 0.0
C603 C 0.2253 0.25029 0.73128 0.0
H604 H 0.2792 0.36204 0.78487 0.0
H605 H 0.21901 0.23182 0.7295 0.0
H606 H 0.32577 0.22666 0.78929 0.0
H607 H 0.38806 0.35427 0.85142 0.0
H608 H 0.24483 0.25191 0.76644 0.0
H609 H 0.20708 0.2541 0.69677 0.0
H610 H 0.36222 0.33613 0.81365 0.0
H611 H 0.2679 0.38735 0.7552 0.0
H612 H 0.20801 0.29276 0.68169 0.0
H613 H 0.2213 0.33499 0.68871 0.0
H614 H 0.33591 0.19955 0.8174 0.0
H615 H 0.24359 0.37041 0.71606 0.0
H616 H 0.39861 0.3301 0.88292 0.0
N617 N 0.34222 0.25673 0.81387 0.0
C618 C 0.35591 0.26515 0.83541 0.0
C619 C 0.34147 0.21797 0.82278 0.0
C620 C 0.36254 0.25025 0.85177 0.0
C621 C 0.3355 0.23343 0.80704 0.0
C622 C 0.35487 0.22641 0.84534 0.0
N623 N 0.35708 0.3026 0.82448 0.0
C624 C 0.36642 0.32566 0.82749 0.0
C625 C 0.3788 0.29825 0.86238 0.0
C626 C 0.36394 0.28881 0.8407 0.0
C627 C 0.38716 0.32215 0.86646 0.0
C628 C 0.38119 0.33587 0.84876 0.0
H629 H 0.35957 0.21438 0.85741 0.0
H630 H 0.38206 0.24842 0.88663 0.0
H631 H 0.3963 0.29044 0.8959 0.0
O632 O 0.35863 0.30115 0.77133 0.0
O633 O 0.32313 0.29888 0.8255 0.0
O634 O 0.29756 0.32328 0.81806 0.0
O635 O 0.3579 0.26618 0.77764 0.0
O636 O 0.32537 0.31275 0.77141 0.0
O637 O 0.30261 0.33328 0.79112 0.0
O638 O 0.24733 0.28918 0.80738 0.0
O639 O 0.28336 0.29166 0.7525 0.0
O640 O 0.30802 0.26629 0.75922 0.0
O641 O 0.2493 0.3245 0.80149 0.0
O642 O 0.28122 0.2775 0.80693 0.0
O643 O 0.30271 0.25606 0.78679 0.0
C644 C 0.31213 0.31525 0.83281 0.0
C645 C 0.37231 0.27744 0.7416 0.0
C646 C 0.39795 0.27907 0.70971 0.0
C647 C 0.37947 0.26639 0.69278 0.0
C648 C 0.35447 0.26478 0.7242 0.0
C649 C 0.358 0.25934 0.69999 0.0
C650 C 0.39421 0.28447 0.73436 0.0
C651 C 0.32155 0.3324 0.7814 0.0
C652 C 0.36784 0.28321 0.76715 0.0
C653 C 0.37688 0.25959 0.87376 0.0
C654 C 0.38501 0.28353 0.87904 0.0
C655 C 0.29394 0.27514 0.7447 0.0
C656 C 0.21278 0.30302 0.80614 0.0
C657 C 0.17537 0.29436 0.82102 0.0
C658 C 0.16483 0.29474 0.79708 0.0
C659 C 0.20164 0.30339 0.7826 0.0
C660 C 0.19956 0.29866 0.82544 0.0
C661 C 0.17786 0.29924 0.77813 0.0
C662 C 0.28433 0.25743 0.79741 0.0
C663 C 0.23808 0.30719 0.81066 0.0
H664 H 0.38169 0.26156 0.67389 0.0
H665 H 0.33783 0.25897 0.72949 0.0
H666 H 0.34405 0.24948 0.68675 0.0
H667 H 0.40811 0.29429 0.74773 0.0
H668 H 0.14639 0.29192 0.79302 0.0
H669 H 0.21129 0.30708 0.76767 0.0
H670 H 0.20804 0.29835 0.8437 0.0
H671 H 0.16947 0.29962 0.75987 0.0
Tb672 Tb 0.06387 1.01351 0.53333 0.0
C673 C 0.02615 0.09988 0.58067 0.0
N674 N 1.01712 0.08607 0.55934 0.0
C675 C 0.97922 0.08735 0.56843 0.0
C676 C 1.01199 0.1077 0.597 0.0
C677 C 0.99399 0.0801 0.55277 0.0
C678 C 0.98825 0.10109 0.59072 0.0
C679 C 0.05984 0.12103 0.60772 0.0
C680 C 0.04975 0.10647 0.58599 0.0
C681 C 0.0458 0.12861 0.62424 0.0
C682 C 0.02194 0.12195 0.6189 0.0
Tb683 Tb 0.04304 0.0749 0.53593 0.0
N684 N 0.06281 0.09821 0.56994 0.0
C685 C 0.08371 0.1276 0.61208 0.0
C686 C 0.086 0.10558 0.57341 0.0
C687 C 0.09682 0.12005 0.59471 0.0
H688 H 0.98689 0.07002 0.53528 0.0
H689 H 0.11526 0.12542 0.59768 0.0
H690 H 0.12023 0.02193 0.53078 0.0
H691 H 0.99188 0.95855 0.47524 0.0
H692 H 0.09617 0.10008 0.55998 0.0
H693 H 0.09214 0.13876 0.62859 0.0
H694 H 1.01135 0.98492 0.51217 0.0
H695 H 0.9609 0.08248 0.56324 0.0
H696 H 0.05323 0.13973 0.64112 0.0
H697 H 1.01134 0.12806 0.63174 0.0
H698 H 0.14544 1.01161 0.50099 0.0
H699 H 0.97676 0.10673 0.60278 0.0
H700 H 1.01425 0.94712 0.44266 0.0
N701 N 0.0895 1.00462 0.50805 0.0
C702 C 0.08025 0.99036 0.48704 0.0
C703 C 0.1271 1.00571 0.49674 0.0
C704 C 0.09409 0.98363 0.46973 0.0
C705 C 0.11269 1.01182 0.51343 0.0
C706 C 0.11777 0.99172 0.4747 0.0
N707 N 0.04398 0.98928 0.50002 0.0
C708 C 0.02111 0.98028 0.49794 0.0
C709 C 0.04651 0.96698 0.46177 0.0
C710 C 0.05679 0.98208 0.48308 0.0
C711 C 0.02282 0.95875 0.4588 0.0
C712 C 1.01012 0.96522 0.47711 0.0
H713 H 0.129 0.98695 0.46188 0.0
H714 H 0.09426 0.96358 0.43466 0.0
H715 H 0.05261 0.94904 0.42769 0.0
O716 O 0.04865 0.98768 0.55324 0.0
O717 O 0.04937 0.02396 0.4982 0.0
O718 O 0.02485 0.04933 0.5055 0.0
O719 O 0.08272 0.98912 0.54486 0.0
O720 O 0.0343 0.01974 0.55154 0.0
O721 O 1.015 0.04458 0.53271 0.0
O722 O 0.06107 0.1011 0.51852 0.0
O723 O 0.05459 0.06293 0.57103 0.0
O724 O 0.08054 0.03907 0.56477 0.0
O725 O 0.02538 0.09877 0.52086 0.0
O726 O 0.07061 0.0657 0.51655 0.0
O727 O 0.09152 0.0444 0.53772 0.0
C728 C 0.0326 0.03438 0.49096 0.0
C729 C 0.07405 0.97449 0.58168 0.0
C730 C 0.07303 0.94922 0.61423 0.0
C731 C 0.08796 0.96732 0.62994 0.0
C732 C 0.08904 0.99193 0.59782 0.0
C733 C 0.09586 0.98841 0.62178 0.0
C734 C 0.06615 0.95298 0.58988 0.0
C735 C 1.01514 0.02534 0.54267 0.0
C736 C 0.06681 0.97883 0.55638 0.0
C737 C 0.08391 0.96886 0.44823 0.0
C738 C 0.06019 0.96055 0.44426 0.0
C739 C 0.0709 0.05238 0.57922 0.0
C740 C 0.03938 0.11305 0.48579 0.0
C741 C 0.04243 0.13865 0.45354 0.0
C742 C 0.03212 0.11942 0.43612 0.0
C743 C 0.02933 0.09441 0.46788 0.0
C744 C 0.04603 0.13518 0.47857 0.0
C745 C 0.02576 0.09756 0.44326 0.0
C746 C 0.09042 0.06268 0.52647 0.0
C747 C 0.04305 0.1093 0.51189 0.0
H748 H 0.09395 0.96504 0.64855 0.0
H749 H 0.09564 1.00823 0.59172 0.0
H750 H 0.10749 1.00205 0.63405 0.0
H751 H 0.05456 0.93939 0.57747 0.0
H752 H 0.02844 0.12126 0.41692 0.0
H753 H 0.02408 0.07743 0.47299 0.0
H754 H 0.05409 0.14954 0.4924 0.0
H755 H 1.0178 0.08299 0.42964 0.0
Tb756 Tb 0.30295 0.829 0.76815 0.0
C757 C 0.29362 0.75691 0.85183 0.0
N758 N 0.30876 0.7679 0.83829 0.0
C759 C 0.33535 0.78204 0.87485 0.0
C760 C 0.29879 0.75799 0.87747 0.0
C761 C 0.32944 0.78051 0.84947 0.0
C762 C 0.32001 0.77068 0.88892 0.0
C763 C 0.25624 0.73349 0.85325 0.0
C764 C 0.27261 0.74501 0.83996 0.0
C765 C 0.26136 0.73431 0.87876 0.0
C766 C 0.28258 0.74656 0.89085 0.0
Tb767 Tb 0.29694 0.76397 0.79697 0.0
N768 N 0.26821 0.74475 0.81536 0.0
C769 C 0.23526 0.72145 0.84048 0.0
C770 C 0.24792 0.73261 0.80272 0.0
C771 C 0.23113 0.72094 0.81508 0.0
H772 H 0.34147 0.78976 0.83923 0.0
H773 H 0.2151 0.71137 0.80497 0.0
H774 H 0.2749 0.82057 0.71057 0.0
H775 H 0.37741 0.8925 0.80919 0.0
H776 H 0.24479 0.73129 0.78298 0.0
H777 H 0.22224 0.71234 0.85001 0.0
H778 H 0.34145 0.86419 0.80919 0.0
H779 H 0.35174 0.79208 0.88356 0.0
H780 H 0.24901 0.72557 0.88929 0.0
H781 H 0.28626 0.74716 0.91056 0.0
H782 H 0.28364 0.83046 0.67002 0.0
H783 H 0.32463 0.77197 0.90858 0.0
H784 H 0.39179 0.8998 0.76991 0.0
N785 N 0.30802 0.83664 0.72906 0.0
C786 C 0.32849 0.85032 0.72724 0.0
C787 C 0.29647 0.836 0.68593 0.0
C788 C 0.33412 0.85648 0.7044 0.0
C789 C 0.29153 0.83061 0.70901 0.0
C790 C 0.318 0.84864 0.68353 0.0
N791 N 0.33596 0.85549 0.77046 0.0
C792 C 0.34756 0.8675 0.79201 0.0
C793 C 0.3633 0.87601 0.74774 0.0
C794 C 0.34293 0.86004 0.74865 0.0
C795 C 0.37606 0.88739 0.76984 0.0
C796 C 0.36793 0.88342 0.79205 0.0
H797 H 0.32168 0.853 0.66566 0.0
H798 H 0.35986 0.87586 0.68585 0.0
H799 H 0.38542 0.89294 0.72381 0.0
O800 O 0.27712 0.84085 0.78566 0.0
O801 O 0.33651 0.82058 0.78471 0.0
O802 O 0.33304 0.7827 0.79624 0.0
O803 O 0.29824 0.86307 0.76582 0.0
O804 O 0.31029 0.82062 0.80544 0.0
O805 O 0.28736 0.79156 0.82002 0.0
O806 O 0.28727 0.73217 0.77388 0.0
O807 O 0.26419 0.76915 0.77619 0.0
O808 O 0.26775 0.80646 0.76304 0.0
O809 O 0.32009 0.74151 0.79619 0.0
O810 O 0.30303 0.78606 0.7709 0.0
O811 O 0.29936 0.80083 0.73813 0.0
C812 C 0.34551 0.80304 0.7926 0.0
C813 C 0.25966 0.86601 0.76381 0.0
C814 C 0.23093 0.88999 0.76003 0.0
C815 C 0.21952 0.87494 0.73918 0.0
C816 C 0.24802 0.8514 0.74285 0.0
C817 C 0.22808 0.85581 0.73065 0.0
C818 C 0.25119 0.88549 0.77227 0.0
C819 C 0.29455 0.81375 0.81931 0.0
C820 C 0.28022 0.86046 0.77696 0.0
C821 C 0.35513 0.87118 0.70327 0.0
C822 C 0.36969 0.88092 0.7249 0.0
C823 C 0.25547 0.78611 0.76679 0.0
C824 C 0.30442 0.70166 0.78695 0.0
C825 C 0.3191 0.66584 0.78508 0.0
C826 C 0.30133 0.65618 0.79774 0.0
C827 C 0.28705 0.69166 0.7998 0.0
C828 C 0.32061 0.68874 0.77985 0.0
C829 C 0.28553 0.66906 0.80511 0.0
C830 C 0.30133 0.78236 0.74738 0.0
C831 C 0.30614 0.72551 0.78098 0.0
H832 H 0.20409 0.87813 0.72925 0.0
H833 H 0.254 0.83618 0.7363 0.0
H834 H 0.21916 0.8443 0.71461 0.0
H835 H 0.26008 0.89681 0.7885 0.0
H836 H 0.29984 0.63872 0.80225 0.0
H837 H 0.27466 0.70121 0.80578 0.0
H838 H 0.33414 0.69638 0.76998 0.0
H839 H 0.27205 0.6615 0.81503 0.0
Tb840 Tb 0.55569 0.06704 0.00869 0.0
C841 C 0.52777 0.98909 0.08849 0.0
N842 N 0.52773 0.98741 0.06389 0.0
C843 C 0.54404 0.95355 0.06462 0.0
C844 C 0.53654 0.9734 0.10237 0.0
C845 C 0.5349 0.96941 0.05166 0.0
C846 C 0.54513 0.95571 0.09015 0.0
C847 C 0.51539 1.00691 0.12459 0.0
C848 C 0.51761 1.0057 0.09938 0.0
C849 C 0.52508 0.99212 0.13887 0.0
C850 C 0.5357 0.97541 0.12778 0.0
Tb851 Tb 0.51391 0.01486 0.04421 0.0
N852 N 0.5081 0.01926 0.08479 0.0
C853 C 0.50257 0.02212 0.13439 0.0
C854 C 0.49399 0.03272 0.09394 0.0
C855 C 0.49146 0.03475 0.11887 0.0
H856 H 0.53419 0.96773 0.03196 0.0
H857 H 0.48062 0.04578 0.12601 0.0
H858 H 0.5202 0.10335 0.01919 0.0
H859 H 0.59833 0.04688 0.93075 0.0
H860 H 0.48437 0.04174 0.08199 0.0
H861 H 0.50033 0.02349 0.15363 0.0
H862 H 0.58897 0.04483 0.97293 0.0
H863 H 0.55019 0.93965 0.05492 0.0
H864 H 0.52379 0.99296 0.15832 0.0
H865 H 0.54253 0.96367 0.13884 0.0
H866 H 0.50261 0.13025 0.9965 0.0
H867 H 0.55206 0.94331 0.10014 0.0
H868 H 0.58098 0.07202 0.90462 0.0
N869 N 0.53759 0.09232 0.98987 0.0
C870 C 0.54199 0.09472 0.96657 0.0
C871 C 0.51366 0.12035 0.98788 0.0
C872 C 0.53221 0.10997 0.95292 0.0
C873 C 0.52378 0.10503 1.00075 0.0
C874 C 0.51786 0.12283 0.96387 0.0
N875 N 0.56518 0.06701 0.96999 0.0
C876 C 0.58044 0.05492 0.96125 0.0
C877 C 0.56136 0.08369 0.93229 0.0
C878 C 0.55616 0.08156 0.9563 0.0
C879 C 0.57643 0.07076 0.92292 0.0
C880 C 0.58616 0.05645 0.93756 0.0
H881 H 0.50998 0.13472 0.95398 0.0
H882 H 0.52968 0.12353 0.91808 0.0
H883 H 0.55536 0.10066 0.90009 0.0
O884 O 0.59162 0.07186 0.01342 0.0
O885 O 0.52126 0.05614 0.98728 0.0
O886 O 0.51834 0.03967 0.01957 0.0
O887 O 0.57478 0.09965 0.0239 0.0
O888 O 0.55536 0.02995 0.99462 0.0
O889 O 0.52774 1.00298 0.01051 0.0
O890 O 0.47831 1.01252 0.03942 0.0
O891 O 0.55086 0.01524 0.05246 0.0
O892 O 0.55538 0.04999 0.04141 0.0
O893 O 0.49262 0.98456 0.02486 0.0
O894 O 0.51622 0.05215 0.05972 0.0
O895 O 0.54065 0.07982 0.04127 0.0
C896 C 0.50804 0.04245 0.99872 0.0
C897 C 0.61093 0.11048 0.01151 0.0
C898 C 0.63627 0.12039 0.98106 0.0
C899 C 0.64179 0.14337 0.99243 0.0
C900 C 0.61674 0.13349 0.02275 0.0
C901 C 0.63213 0.14981 0.01326 0.0
C902 C 0.621 0.10402 0.99089 0.0
C903 C 0.54293 1.0087 0.99508 0.0
C904 C 0.59427 0.09374 0.02158 0.0
C905 C 0.53704 0.1119 0.92886 0.0
C906 C 0.55163 0.09884 0.91859 0.0
C907 C 0.56475 0.03295 0.04685 0.0
C908 C 0.45699 0.97475 0.0388 0.0
C909 C 0.43745 0.96254 0.07292 0.0
C910 C 0.42548 0.94246 0.05788 0.0
C911 C 0.44486 0.95471 0.02384 0.0
C912 C 0.45316 0.97853 0.06325 0.0
C913 C 0.42909 0.93868 0.03335 0.0
C914 C 0.52665 0.07381 0.05774 0.0
C915 C 0.47397 0.99129 0.02897 0.0
H916 H 0.65373 0.15628 0.98538 0.0
H917 H 0.60929 0.13883 0.03884 0.0
H918 H 0.6365 0.16752 0.02202 0.0
H919 H 0.61683 0.08633 0.98228 0.0
H920 H 0.41329 0.92987 0.06505 0.0
H921 H 0.44773 0.95139 0.00491 0.0
H922 H 0.46269 0.99373 0.07503 0.0
H923 H 0.41976 0.92325 0.02172 0.0
Tb924 Tb 0.27789 0.25936 0.26263 0.0
C925 C 0.35571 0.35027 0.29421 0.0
N926 N 0.34777 0.33296 0.30703 0.0
C927 C 0.38602 0.3332 0.32503 0.0
C928 C 0.37931 0.35912 0.29539 0.0
C929 C 0.36238 0.32523 0.32345 0.0
C930 C 0.39456 0.34993 0.31059 0.0
C931 C 0.34723 0.37987 0.26995 0.0
C932 C 0.33993 0.36042 0.28173 0.0
C933 C 0.37074 0.38783 0.26952 0.0
C934 C 0.38677 0.37746 0.28225 0.0
Tb935 Tb 0.30911 0.31966 0.30147 0.0
N936 N 0.3175 0.3526 0.28327 0.0
C937 C 0.33077 0.39139 0.26012 0.0
C938 C 0.3016 0.36488 0.27547 0.0
C939 C 0.30791 0.38416 0.26338 0.0
H940 H 0.35572 0.31222 0.3345 0.0
H941 H 0.29514 0.39342 0.25662 0.0
H942 H 0.29241 0.26528 0.20561 0.0
H943 H 0.19775 0.21627 0.2859 0.0
H944 H 0.28388 0.35946 0.27801 0.0
H945 H 0.33564 0.40642 0.25092 0.0
H946 H 0.23975 0.23057 0.29154 0.0
H947 H 0.39762 0.32649 0.3374 0.0
H948 H 0.3767 0.40256 0.26028 0.0
H949 H 0.40485 0.38434 0.2826 0.0
H950 H 0.27292 0.26884 0.1653 0.0
H951 H 0.41285 0.35622 0.312 0.0
H952 H 0.17419 0.22242 0.24847 0.0
N953 N 0.262 0.26097 0.22291 0.0
C954 C 0.23879 0.25621 0.21879 0.0
C955 C 0.26308 0.26563 0.18028 0.0
C956 C 0.2268 0.25712 0.19561 0.0
C957 C 0.2741 0.26385 0.20342 0.0
C958 C 0.23933 0.26277 0.17649 0.0
N959 N 0.23956 0.24512 0.25809 0.0
C960 C 0.22946 0.23331 0.27523 0.0
C961 C 0.20322 0.23983 0.23291 0.0
C962 C 0.22713 0.24773 0.23705 0.0
C963 C 0.19252 0.2288 0.25096 0.0
C964 C 0.20577 0.22522 0.27208 0.0
H965 H 0.23081 0.26369 0.15842 0.0
H966 H 0.19329 0.25183 0.17431 0.0
H967 H 0.17259 0.23663 0.20706 0.0
O968 O 0.29475 0.2347 0.27715 0.0
O969 O 0.25509 0.27761 0.28381 0.0
O970 O 0.27144 0.31682 0.29251 0.0
O971 O 0.26941 0.22518 0.2453 0.0
O972 O 0.27724 0.26456 0.30209 0.0
O973 O 0.31242 0.28699 0.31559 0.0
O974 O 0.3186 0.34814 0.32898 0.0
O975 O 0.33402 0.30022 0.28598 0.0
O976 O 0.31551 0.26661 0.26033 0.0
O977 O 0.29507 0.31782 0.3347 0.0
O978 O 0.28907 0.31883 0.26563 0.0
O979 O 0.29657 0.28682 0.24507 0.0
C980 C 0.25367 0.29934 0.29105 0.0
C981 C 0.30187 0.20883 0.24511 0.0
C982 C 0.32549 0.18028 0.23918 0.0
C983 C 0.33221 0.18959 0.21823 0.0
C984 C 0.30901 0.21818 0.22427 0.0
C985 C 0.3241 0.20861 0.21093 0.0
C986 C 0.31042 0.19002 0.25275 0.0
C987 C 0.29509 0.27096 0.31888 0.0
C988 C 0.28568 0.21891 0.25879 0.0
C989 C 0.2028 0.25097 0.19189 0.0
C990 C 0.19101 0.24227 0.21051 0.0
C991 C 0.33443 0.28139 0.27089 0.0
C992 C 0.2885 0.35365 0.35142 0.0
C993 C 0.26607 0.38318 0.3445 0.0
C994 C 0.25515 0.37801 0.36504 0.0
C995 C 0.27753 0.34881 0.37192 0.0
C996 C 0.28304 0.37121 0.33812 0.0
C997 C 0.26103 0.36106 0.37876 0.0
C998 C 0.29414 0.3082 0.24573 0.0
C999 C 0.30428 0.33922 0.34302 0.0
H1000 H 0.34392 0.18229 0.2077 0.0
H1001 H 0.30291 0.23288 0.21829 0.0
H1002 H 0.32948 0.21592 0.1949 0.0
H1003 H 0.30518 0.18282 0.26893 0.0
H1004 H 0.24211 0.38708 0.37051 0.0
H1005 H 0.28145 0.3353 0.38235 0.0
H1006 H 0.29123 0.37488 0.32214 0.0
H1007 H 0.25251 0.35716 0.39451 0.0
Tb1008 Tb 0.56249 0.51134 0.03135 0.0
C1009 C 0.52787 0.59846 0.08042 0.0
N1010 N 0.51848 0.58483 0.05908 0.0
C1011 C 0.48085 0.58651 0.06887 0.0
C1012 C 0.51404 0.60641 0.09707 0.0
C1013 C 0.49528 0.57909 0.05288 0.0
C1014 C 0.49026 0.60011 0.09112 0.0
C1015 C 0.56197 0.61901 0.10722 0.0
C1016 C 0.55151 0.60469 0.08546 0.0
C1017 C 0.54828 0.62675 0.12404 0.0
C1018 C 0.52437 0.62046 0.11898 0.0
Tb1019 Tb 0.54393 0.57355 0.03504 0.0
N1020 N 0.56424 0.59629 0.06913 0.0
C1021 C 0.58588 0.62518 0.11132 0.0
C1022 C 0.58746 0.60327 0.07235 0.0
C1023 C 0.59865 0.61748 0.09367 0.0
H1024 H 0.48783 0.56906 0.03545 0.0
H1025 H 0.61711 0.62256 0.09643 0.0
H1026 H 0.61871 0.51785 0.0287 0.0
H1027 H 0.48932 0.45859 0.97315 0.0
H1028 H 0.59736 0.59771 0.05868 0.0
H1029 H 0.5946 0.63615 0.12783 0.0
H1030 H 0.5096 0.48391 0.01046 0.0
H1031 H 0.46248 0.58185 0.06395 0.0
H1032 H 0.55599 0.6377 0.14093 0.0
H1033 H 0.51403 0.62667 0.13206 0.0
H1034 H 0.64345 0.50698 0.99862 0.0
H1035 H 0.47903 0.60587 0.10343 0.0
H1036 H 0.51111 0.44697 0.94009 0.0
N1037 N 0.58767 0.50171 0.00587 0.0
C1038 C 0.57804 0.48791 0.98467 0.0
C1039 C 0.62506 0.5017 0.99437 0.0
C1040 C 0.59157 0.48088 0.96719 0.0
C1041 C 0.61093 0.50813 0.01123 0.0
C1042 C 0.61534 0.48819 0.97216 0.0
N1043 N 0.542 0.48783 0.99789 0.0
C1044 C 0.51905 0.47938 0.99592 0.0
C1045 C 0.54378 0.46576 0.95925 0.0
C1046 C 0.55448 0.48039 0.98072 0.0
C1047 C 0.52 0.45822 0.95634 0.0
C1048 C 0.50762 0.46483 0.97492 0.0
H1049 H 0.62635 0.48315 0.9592 0.0
H1050 H 0.5911 0.46111 0.9318 0.0
H1051 H 0.54926 0.4479 0.92484 0.0
O1052 O 0.54666 0.48605 0.05153 0.0
O1053 O 0.54893 0.52283 0.99638 0.0
O1054 O 0.52517 0.54874 0.0043 0.0
O1055 O 0.58022 0.48589 0.04204 0.0
O1056 O 0.53347 0.5184 0.05 0.0
O1057 O 0.51526 0.54373 0.03079 0.0
O1058 O 0.56205 0.59933 0.01717 0.0
O1059 O 0.55521 0.56096 0.06993 0.0
O1060 O 0.58022 0.53628 0.06286 0.0
O1061 O 0.52689 0.59848 0.02142 0.0
O1062 O 0.57174 0.56469 0.01565 0.0
O1063 O 0.59088 0.54142 0.03629 0.0
C1064 C 0.53261 0.53389 0.98936 0.0
C1065 C 0.57209 0.47229 0.07937 0.0
C1066 C 0.57146 0.44735 0.11212 0.0
C1067 C 0.58709 0.46524 0.12736 0.0
C1068 C 0.58786 0.48954 0.09497 0.0
C1069 C 0.59518 0.48609 0.11883 0.0
C1070 C 0.56399 0.45107 0.08794 0.0
C1071 C 0.51471 0.52458 0.041 0.0
C1072 C 0.56439 0.47645 0.05418 0.0
C1073 C 0.58099 0.4666 0.94551 0.0
C1074 C 0.55716 0.45906 0.94155 0.0
C1075 C 0.57125 0.54991 0.0777 0.0
C1076 C 0.53984 0.61252 0.98581 0.0
C1077 C 0.54324 0.63832 0.95383 0.0
C1078 C 0.53109 0.61972 0.93657 0.0
C1079 C 0.52784 0.5945 0.9681 0.0
C1080 C 0.54761 0.63443 0.97862 0.0
C1081 C 0.52358 0.59804 0.94367 0.0
C1082 C 0.59096 0.56002 0.02531 0.0
C1083 C 0.54434 0.60839 0.01169 0.0
H1084 H 0.59353 0.46295 0.14582 0.0
H1085 H 0.59471 0.50557 0.08851 0.0
H1086 H 0.60739 0.49957 0.13069 0.0
H1087 H 0.55185 0.43763 0.0759 0.0
H1088 H 0.52684 0.62196 0.91757 0.0
H1089 H 0.52158 0.57772 0.97324 0.0
H1090 H 0.55711 0.64831 0.99229 0.0
H1091 H 0.51416 0.58396 0.9302 0.0
Tb1092 Tb 0.8002 0.32312 0.25557 0.0
C1093 C 0.75908 0.24773 0.32395 0.0
N1094 N 0.78015 0.26161 0.3259 0.0
C1095 C 0.78085 0.26901 0.36955 0.0
C1096 C 0.74775 0.24462 0.34475 0.0
C1097 C 0.79165 0.27107 0.34852 0.0
C1098 C 0.75865 0.25606 0.36761 0.0
C1099 C 0.72908 0.21854 0.29924 0.0
C1100 C 0.74968 0.23497 0.30141 0.0
C1101 C 0.7172 0.21629 0.31962 0.0
C1102 C 0.72646 0.22939 0.34229 0.0
Tb1103 Tb 0.79525 0.26353 0.2898 0.0
N1104 N 0.76145 0.2377 0.28191 0.0
C1105 C 0.72145 0.20435 0.27684 0.0
C1106 C 0.755 0.22284 0.26065 0.0
C1107 C 0.73466 0.20628 0.25759 0.0
H1108 H 0.80929 0.28002 0.35051 0.0
H1109 H 0.72932 0.19487 0.24051 0.0
H1110 H 0.80887 0.29739 0.20011 0.0
H1111 H 0.85119 0.39389 0.31896 0.0
H1112 H 0.7656 0.22372 0.24618 0.0
H1113 H 0.70575 0.19145 0.27447 0.0
H1114 H 0.81744 0.36295 0.30398 0.0
H1115 H 0.78984 0.27702 0.38732 0.0
H1116 H 0.70117 0.20399 0.31823 0.0
H1117 H 0.71743 0.22694 0.35803 0.0
H1118 H 0.83953 0.3012 0.17451 0.0
H1119 H 0.7505 0.25415 0.38401 0.0
H1120 H 0.88342 0.40014 0.29453 0.0
N1121 N 0.82712 0.32317 0.22919 0.0
C1122 C 0.84618 0.34022 0.23605 0.0
C1123 C 0.84173 0.31207 0.19194 0.0
C1124 C 0.86399 0.34328 0.22133 0.0
C1125 C 0.82442 0.30968 0.20699 0.0
C1126 C 0.86165 0.32879 0.19919 0.0
N1127 N 0.83095 0.35092 0.27242 0.0
C1128 C 0.8317 0.36498 0.29374 0.0
C1129 C 0.86755 0.37229 0.26579 0.0
C1130 C 0.84801 0.3547 0.2581 0.0
C1131 C 0.86872 0.38639 0.28803 0.0
C1132 C 0.85063 0.38282 0.30197 0.0
H1133 H 0.87494 0.33063 0.18737 0.0
H1134 H 0.89733 0.36332 0.21791 0.0
H1135 H 0.90044 0.38863 0.25677 0.0
O1136 O 0.7884 0.35452 0.26205 0.0
O1137 O 0.83277 0.31466 0.2738 0.0
O1138 O 0.82986 0.28542 0.29946 0.0
O1139 O 0.79004 0.33867 0.225 0.0
O1140 O 0.78628 0.31891 0.28978 0.0
O1141 O 0.80478 0.29676 0.31319 0.0
O1142 O 0.81049 0.23811 0.2721 0.0
O1143 O 0.76121 0.26975 0.27276 0.0
O1144 O 0.76445 0.30503 0.25644 0.0
O1145 O 0.80563 0.23847 0.30993 0.0
O1146 O 0.80628 0.27259 0.25558 0.0
O1147 O 0.78645 0.29139 0.23124 0.0
C1148 C 0.84201 0.30201 0.28918 0.0
C1149 C 0.77632 0.37472 0.22793 0.0
C1150 C 0.75779 0.40805 0.23095 0.0
C1151 C 0.76116 0.41087 0.20662 0.0
C1152 C 0.7793 0.37791 0.20361 0.0
C1153 C 0.77175 0.39586 0.19307 0.0
C1154 C 0.76532 0.38979 0.24159 0.0
C1155 C 0.79762 0.316 0.31032 0.0
C1156 C 0.78499 0.35575 0.23863 0.0
C1157 C 0.88351 0.36077 0.22901 0.0
C1158 C 0.88527 0.37523 0.25114 0.0
C1159 C 0.75208 0.28586 0.26238 0.0
C1160 C 0.83843 0.22605 0.29878 0.0
C1161 C 0.86802 0.20289 0.29574 0.0
C1162 C 0.88289 0.21969 0.31303 0.0
C1163 C 0.85363 0.24229 0.31622 0.0
C1164 C 0.84567 0.20629 0.28863 0.0
C1165 C 0.87573 0.23918 0.32311 0.0
C1166 C 0.79201 0.27208 0.23606 0.0
C1167 C 0.81478 0.22921 0.29218 0.0
H1168 H 0.75544 0.4247 0.19801 0.0
H1169 H 0.78769 0.36664 0.19272 0.0
H1170 H 0.7742 0.3982 0.17433 0.0
H1171 H 0.76292 0.38755 0.26038 0.0
H1172 H 0.89997 0.21751 0.31936 0.0
H1173 H 0.84842 0.25739 0.32467 0.0
H1174 H 0.83391 0.19363 0.27534 0.0
H1175 H 0.8873 0.25182 0.33654 0.0
Tb1176 Tb 0.05169 0.56871 0.50432 0.0
C1177 C 0.05847 0.50323 0.59741 0.0
N1178 N 0.05534 0.4988 0.57254 0.0
C1179 C 0.08067 0.4721 0.57422 0.0
C1180 C 0.07326 0.49253 0.61172 0.0
C1181 C 0.06584 0.48315 0.5608 0.0
C1182 C 0.08451 0.4769 0.59978 0.0
C1183 C 0.04904 0.52311 0.63425 0.0
C1184 C 0.04669 0.51852 0.60843 0.0
C1185 C 0.06411 0.51288 0.64862 0.0
C1186 C 0.07621 0.49764 0.63738 0.0
Tb1187 Tb 0.0313 0.51819 0.55245 0.0
N1188 N 0.03216 0.52798 0.59393 0.0
C1189 C 0.03566 0.5373 0.64486 0.0
C1190 C 1.01764 0.54014 0.60437 0.0
C1191 C 0.0196 0.5455 0.62985 0.0
H1192 H 0.06302 0.47937 0.54108 0.0
H1193 H 1.00835 0.55551 0.63791 0.0
H1194 H 0.04505 0.6186 0.53295 0.0
H1195 H 1.01622 0.52272 0.4141 0.0
H1196 H 1.00407 0.54537 0.59327 0.0
H1197 H 0.03691 0.5412 0.66461 0.0
H1198 H 0.03689 0.52712 0.45528 0.0
H1199 H 0.08915 0.4599 0.56484 0.0
H1200 H 0.06623 0.51633 0.66846 0.0
H1201 H 0.08758 0.48967 0.64871 0.0
H1202 H 0.02643 0.65053 0.52314 0.0
H1203 H 0.09602 0.46831 0.61013 0.0
H1204 H 0.99834 0.55411 0.40022 0.0
N1205 N 0.03403 0.59872 0.49783 0.0
C1206 C 0.02288 0.59791 0.47495 0.0
C1207 C 0.02516 0.63576 0.50945 0.0
C1208 C 1.01217 0.61598 0.46846 0.0
C1209 C 0.03547 0.61739 0.51504 0.0
C1210 C 1.01347 0.63507 0.48606 0.0
N1211 N 0.03157 0.56118 0.46558 0.0
C1212 C 0.02958 0.54125 0.44996 0.0
C1213 C 1.00938 0.57655 0.43459 0.0
C1214 C 0.02162 0.57852 0.45824 0.0
C1215 C 1.00762 0.55631 0.41853 0.0
C1216 C 1.01767 0.53856 0.42631 0.0
H1217 H 1.0055 0.64933 0.48179 0.0
H1218 H 0.9921 0.62806 0.43941 0.0
H1219 H 0.98957 0.59347 0.40975 0.0
O1220 O 0.08028 0.57249 0.48509 0.0
O1221 O 1.01422 0.55856 0.50182 0.0
O1222 O 0.02207 0.52784 0.51665 0.0
O1223 O 0.07724 0.59856 0.51389 0.0
O1224 O 0.05934 0.53354 0.49305 0.0
O1225 O 0.04378 0.50547 0.51776 0.0
O1226 O 0.99614 0.50883 0.5543 0.0
O1227 O 0.06872 0.53115 0.56166 0.0
O1228 O 0.05828 0.55014 0.53374 0.0
O1229 O 1.01573 0.48283 0.54677 0.0
O1230 O 0.02395 0.55404 0.56009 0.0
O1231 O 0.04971 0.58121 0.54318 0.0
C1232 C 1.00662 0.5395 0.51059 0.0
C1233 C 0.0962 0.61122 0.48112 0.0
C1234 C 0.11878 0.62386 0.4493 0.0
C1235 C 0.11087 0.64468 0.451 0.0
C1236 C 0.08851 0.6322 0.48278 0.0
C1237 C 0.09591 0.64884 0.4678 0.0
C1238 C 0.11151 0.60734 0.46459 0.0
C1239 C 0.05429 0.51176 0.49856 0.0
C1240 C 0.08879 0.59316 0.49644 0.0
C1241 C 1.00039 0.61433 0.44477 0.0
C1242 C 0.99897 0.59465 0.42787 0.0
C1243 C 0.07544 0.54654 0.54788 0.0
C1244 C 0.98373 0.47245 0.56736 0.0
C1245 C 0.96614 0.46872 0.60475 0.0
C1246 C 0.95863 0.44492 0.59724 0.0
C1247 C 0.97628 0.44863 0.56013 0.0
C1248 C 0.97863 0.48235 0.58968 0.0
C1249 C 0.9638 0.43495 0.57504 0.0
C1250 C 0.03524 0.57553 0.55921 0.0
C1251 C 0.99591 0.4868 0.55096 0.0
H1252 H 0.11617 0.65764 0.4393 0.0
H1253 H 0.07682 0.63579 0.49553 0.0
H1254 H 0.08987 0.66491 0.46908 0.0
H1255 H 0.11717 0.59103 0.46309 0.0
H1256 H 0.94909 0.43404 0.60866 0.0
H1257 H 0.97996 0.44067 0.54287 0.0
H1258 H 0.98393 0.50076 0.59519 0.0
H1259 H 0.95808 0.41658 0.56937 0.0
Tb1260 Tb 0.82562 0.78123 0.2893 0.0
C1261 C 0.7452 0.8092 0.22967 0.0
N1262 N 0.75952 0.82227 0.24895 0.0
C1263 C 0.76348 0.85497 0.22672 0.0
C1264 C 0.73981 0.81848 0.20789 0.0
C1265 C 0.76848 0.84497 0.24791 0.0
C1266 C 0.74915 0.84167 0.20659 0.0
C1267 C 0.72223 0.77187 0.21171 0.0
C1268 C 0.73663 0.78612 0.23153 0.0
C1269 C 0.71679 0.78107 0.18996 0.0
C1270 C 0.72555 0.8043 0.18806 0.0
Tb1271 Tb 0.76604 0.80384 0.28232 0.0
N1272 N 0.74285 0.77757 0.2526 0.0
C1273 C 0.71366 0.74884 0.21441 0.0
C1274 C 0.73333 0.75559 0.25584 0.0
C1275 C 0.71899 0.74077 0.23669 0.0
H1276 H 0.77918 0.85559 0.2635 0.0
H1277 H 0.71175 0.72323 0.23929 0.0
H1278 H 0.81561 0.72415 0.28866 0.0
H1279 H 0.8821 0.85036 0.35036 0.0
H1280 H 0.73599 0.74961 0.27331 0.0
H1281 H 0.70251 0.73732 0.19963 0.0
H1282 H 0.85608 0.83282 0.31256 0.0
H1283 H 0.77062 0.87296 0.22594 0.0
H1284 H 0.7058 0.77036 0.17451 0.0
H1285 H 0.72125 0.81111 0.17114 0.0
H1286 H 0.82437 0.69654 0.31689 0.0
H1287 H 0.74541 0.84947 0.19018 0.0
H1288 H 0.89167 0.82586 0.38191 0.0
N1289 N 0.83337 0.75378 0.31302 0.0
C1290 C 0.84718 0.76182 0.33454 0.0
C1291 C 0.83074 0.71488 0.32216 0.0
C1292 C 0.85306 0.74667 0.35097 0.0
C1293 C 0.82555 0.73059 0.30635 0.0
C1294 C 0.84442 0.72296 0.34465 0.0
N1295 N 0.84975 0.79931 0.32344 0.0
C1296 C 0.85973 0.82221 0.32646 0.0
C1297 C 0.871 0.7944 0.36142 0.0
C1298 C 0.85601 0.78532 0.33974 0.0
C1299 C 0.88009 0.81817 0.36546 0.0
C1300 C 0.87466 0.83208 0.34773 0.0
H1301 H 0.84852 0.71073 0.35678 0.0
H1302 H 0.87225 0.7443 0.38585 0.0
H1303 H 0.88797 0.7861 0.39498 0.0
O1304 O 0.84975 0.79591 0.26742 0.0
O1305 O 0.81561 0.79625 0.32402 0.0
O1306 O 0.78823 0.81877 0.31641 0.0
O1307 O 0.85021 0.76256 0.27847 0.0
O1308 O 0.82237 0.81294 0.27297 0.0
O1309 O 0.79646 0.8317 0.29016 0.0
O1310 O 0.7358 0.79469 0.29911 0.0
O1311 O 0.78254 0.79389 0.2498 0.0
O1312 O 0.79962 0.76382 0.25887 0.0
O1313 O 0.74648 0.82909 0.28899 0.0
O1314 O 0.76943 0.77529 0.3037 0.0
O1315 O 0.79373 0.7551 0.2854 0.0
C1316 C 0.8035 0.81158 0.3311 0.0
C1317 C 0.86379 0.76957 0.24082 0.0
C1318 C 0.88922 0.769 0.20887 0.0
C1319 C 0.87152 0.75325 0.19356 0.0
C1320 C 0.84675 0.75363 0.22521 0.0
C1321 C 0.85055 0.74565 0.2017 0.0
C1322 C 0.88515 0.77713 0.23269 0.0
C1323 C 0.81648 0.83186 0.28242 0.0
C1324 C 0.85939 0.77805 0.26564 0.0
C1325 C 0.8676 0.75565 0.37293 0.0
C1326 C 0.87657 0.77946 0.37813 0.0
C1327 C 0.78929 0.77461 0.24291 0.0
C1328 C 0.7112 0.82285 0.30758 0.0
C1329 C 0.6786 0.81849 0.33121 0.0
C1330 C 0.67369 0.83914 0.32403 0.0
C1331 C 0.7057 0.84348 0.30082 0.0
C1332 C 0.69743 0.81021 0.32287 0.0
C1333 C 0.68711 0.85149 0.30895 0.0
C1334 C 0.77683 0.75609 0.29856 0.0
C1335 C 0.73142 0.81528 0.29855 0.0
H1336 H 0.87404 0.74633 0.17538 0.0
H1337 H 0.83061 0.74719 0.23139 0.0
H1338 H 0.83725 0.73331 0.18979 0.0
H1339 H 0.89843 0.78937 0.24477 0.0
H1340 H 0.65936 0.84576 0.33017 0.0
H1341 H 0.71577 0.8535 0.28911 0.0
H1342 H 0.70138 0.7943 0.32836 0.0
H1343 H 0.6831 0.86739 0.30356 0.0
Tb1344 Tb 0.77849 0.29105 0.81538 0.0
C1345 C 0.84742 0.26672 0.73016 0.0
N1346 N 0.85098 0.27878 0.75302 0.0
C1347 C 0.88547 0.26455 0.76205 0.0
C1348 C 0.86253 0.25268 0.72256 0.0
C1349 C 0.87008 0.27831 0.76871 0.0
C1350 C 0.8816 0.25153 0.73895 0.0
C1351 C 0.82448 0.25667 0.69023 0.0
C1352 C 0.82866 0.26869 0.71421 0.0
C1353 C 0.83931 0.24246 0.68269 0.0
C1354 C 0.85829 0.24047 0.69882 0.0
Tb1355 Tb 0.82486 0.30116 0.76152 0.0
N1356 N 0.81452 0.2824 0.72226 0.0
C1357 C 0.80566 0.25947 0.67446 0.0
C1358 C 0.79676 0.28598 0.70645 0.0
C1359 C 0.79188 0.27436 0.68255 0.0
H1360 H 0.8741 0.28904 0.78608 0.0
H1361 H 0.77763 0.27716 0.67027 0.0
H1362 H 0.72936 0.3015 0.79067 0.0
H1363 H 0.82873 0.32238 0.90455 0.0
H1364 H 0.7865 0.29811 0.71167 0.0
H1365 H 0.80188 0.25058 0.65589 0.0
H1366 H 0.81748 0.29674 0.86607 0.0
H1367 H 0.90049 0.26426 0.77466 0.0
H1368 H 0.83634 0.23306 0.66435 0.0
H1369 H 0.86969 0.22958 0.69269 0.0
H1370 H 0.704 0.32846 0.79945 0.0
H1371 H 0.89363 0.24099 0.7338 0.0
H1372 H 0.80674 0.35227 0.91556 0.0
N1373 N 0.75339 0.31469 0.82246 0.0
C1374 C 0.75816 0.32925 0.8438 0.0
C1375 C 0.71932 0.32906 0.81198 0.0
C1376 C 0.744 0.34486 0.84977 0.0
C1377 C 0.73396 0.31397 0.80686 0.0
C1378 C 0.72446 0.34474 0.83343 0.0
N1379 N 0.79026 0.3128 0.85323 0.0
C1380 C 0.80813 0.31014 0.86954 0.0
C1381 C 0.78289 0.34316 0.8821 0.0
C1382 C 0.77734 0.3284 0.85965 0.0
C1383 C 0.8019 0.34127 0.89814 0.0
C1384 C 0.8144 0.32449 0.89193 0.0
H1385 H 0.71309 0.35641 0.83736 0.0
H1386 H 0.73907 0.37208 0.87675 0.0
H1387 H 0.77316 0.37059 0.90512 0.0
O1388 O 0.7706 0.2669 0.84004 0.0
O1389 O 0.78911 0.32754 0.81001 0.0
O1390 O 0.81977 0.3178 0.79677 0.0
O1391 O 0.74899 0.26502 0.8059 0.0
O1392 O 0.81305 0.28228 0.82526 0.0
O1393 O 0.84015 0.29704 0.79958 0.0
O1394 O 0.82647 0.331 0.744 0.0
O1395 O 0.80866 0.26435 0.7565 0.0
O1396 O 0.79628 0.27957 0.78736 0.0
O1397 O 0.85706 0.32175 0.76028 0.0
O1398 O 0.78969 0.30925 0.75381 0.0
O1399 O 0.76282 0.28985 0.77682 0.0
C1400 C 0.80794 0.33372 0.80042 0.0
C1401 C 0.73139 0.25002 0.83872 0.0
C1402 C 0.71209 0.22561 0.86609 0.0
C1403 C 0.69244 0.23482 0.86088 0.0
C1404 C 0.71165 0.25907 0.83377 0.0
C1405 C 0.69229 0.25146 0.84485 0.0
C1406 C 0.73148 0.23335 0.85481 0.0
C1407 C 0.83449 0.28754 0.81967 0.0
C1408 C 0.7517 0.25645 0.8264 0.0
C1409 C 0.74968 0.3599 0.87187 0.0
C1410 C 0.7691 0.35906 0.888 0.0
C1411 C 0.79619 0.26054 0.77362 0.0
C1412 C 0.85856 0.33732 0.7229 0.0
C1413 C 0.85684 0.35127 0.68316 0.0
C1414 C 0.87366 0.33905 0.67682 0.0
C1415 C 0.87557 0.32529 0.71643 0.0
C1416 C 0.84967 0.35068 0.70635 0.0
C1417 C 0.88313 0.32632 0.69353 0.0
C1418 C 0.76825 0.30101 0.75791 0.0
C1419 C 0.8487 0.33485 0.7459 0.0
H1420 H 0.67715 0.22912 0.86911 0.0
H1421 H 0.71107 0.27178 0.82123 0.0
H1422 H 0.67707 0.25842 0.84092 0.0
H1423 H 0.74689 0.22666 0.85877 0.0
H1424 H 0.87935 0.33926 0.65891 0.0
H1425 H 0.88274 0.31478 0.7288 0.0
H1426 H 0.83631 0.35969 0.71105 0.0
H1427 H 0.89605 0.31688 0.68855 0.0
Tb1428 Tb 0.78163 0.76214 0.76759 0.0
C1429 C 0.86122 0.83048 0.84016 0.0
N1430 N 0.83857 0.82378 0.84169 0.0
C1431 C 0.84703 0.82282 0.88496 0.0
C1432 C 0.87777 0.83319 0.86094 0.0
C1433 C 0.83125 0.82061 0.86385 0.0
C1434 C 0.87041 0.82894 0.88347 0.0
C1435 C 0.89093 0.84324 0.81541 0.0
C1436 C 0.86773 0.83547 0.81778 0.0
C1437 C 0.90758 0.84549 0.83592 0.0
C1438 C 0.90101 0.84046 0.85864 0.0
Tb1439 Tb 0.81454 0.82013 0.80582 0.0
N1440 N 0.85116 0.83258 0.79824 0.0
C1441 C 0.89662 0.84866 0.79255 0.0
C1442 C 0.85647 0.83905 0.77626 0.0
C1443 C 0.87928 0.84678 0.77296 0.0
H1444 H 0.81322 0.81693 0.86544 0.0
H1445 H 0.88347 0.85141 0.75536 0.0
H1446 H 0.76223 0.78398 0.71831 0.0
H1447 H 0.73804 0.71334 0.83205 0.0
H1448 H 0.84321 0.83805 0.7612 0.0
H1449 H 0.91426 0.85466 0.78994 0.0
H1450 H 0.77109 0.72893 0.81218 0.0
H1451 H 0.84113 0.8201 0.90243 0.0
H1452 H 0.92553 0.85132 0.83447 0.0
H1453 H 0.91401 0.84256 0.87438 0.0
H1454 H 0.7247 0.78632 0.69679 0.0
H1455 H 0.88258 0.83083 0.8999 0.0
H1456 H 0.69937 0.71772 0.81552 0.0
N1457 N 0.7482 0.76678 0.7467 0.0
C1458 C 0.72885 0.75691 0.75541 0.0
C1459 C 0.72565 0.77814 0.71335 0.0
C1460 C 0.70706 0.75778 0.74362 0.0
C1461 C 0.74691 0.77702 0.72573 0.0
C1462 C 0.70564 0.76854 0.72234 0.0
N1463 N 0.75241 0.74598 0.78758 0.0
C1464 C 0.75482 0.73291 0.8062 0.0
C1465 C 0.71136 0.73683 0.78667 0.0
C1466 C 0.73106 0.74673 0.77683 0.0
C1467 C 0.71406 0.72554 0.8074 0.0
C1468 C 0.73587 0.7232 0.81691 0.0
H1469 H 0.68921 0.76957 0.71276 0.0
H1470 H 0.67058 0.74897 0.74499 0.0
H1471 H 0.67433 0.73053 0.78257 0.0
O1472 O 0.78312 0.72681 0.76491 0.0
O1473 O 0.76302 0.79103 0.77684 0.0
O1474 O 0.77951 0.80787 0.81495 0.0
O1475 O 0.77199 0.74177 0.73336 0.0
O1476 O 0.80034 0.75976 0.80381 0.0
O1477 O 0.79776 0.79366 0.82601 0.0
O1478 O 0.8035 0.84854 0.79258 0.0
O1479 O 0.83824 0.79759 0.79311 0.0
O1480 O 0.81862 0.7688 0.76234 0.0
O1481 O 0.81944 0.85099 0.82988 0.0
O1482 O 0.80154 0.8211 0.76697 0.0
O1483 O 0.79994 0.78534 0.74552 0.0
C1484 C 0.76094 0.80106 0.7988 0.0
C1485 C 0.79538 0.71462 0.72741 0.0
C1486 C 0.82182 0.68833 0.72406 0.0
C1487 C 0.82972 0.69862 0.70407 0.0
C1488 C 0.80336 0.7246 0.70719 0.0
C1489 C 0.82038 0.71656 0.69561 0.0
C1490 C 0.80449 0.69627 0.73549 0.0
C1491 C 0.7999 0.77206 0.82496 0.0
C1492 C 0.77867 0.72402 0.74109 0.0
C1493 C 0.68747 0.74833 0.75368 0.0
C1494 C 0.68962 0.73794 0.77517 0.0
C1495 C 0.83802 0.78092 0.77505 0.0
C1496 C 0.7883 0.86942 0.8227 0.0
C1497 C 0.7595 0.89279 0.81611 0.0
C1498 C 0.74901 0.88405 0.83564 0.0
C1499 C 0.77761 0.86084 0.84216 0.0
C1500 C 0.77921 0.88536 0.80981 0.0
C1501 C 0.75809 0.86822 0.84858 0.0
C1502 C 0.80252 0.80781 0.74665 0.0
C1503 C 0.80775 0.86059 0.81426 0.0
H1504 H 0.84302 0.69272 0.69494 0.0
H1505 H 0.79677 0.73886 0.70051 0.0
H1506 H 0.82653 0.72444 0.68019 0.0
H1507 H 0.79866 0.68872 0.75126 0.0
H1508 H 0.73396 0.88968 0.84111 0.0
H1509 H 0.78409 0.8482 0.85215 0.0
H1510 H 0.78719 0.89151 0.79444 0.0
H1511 H 0.74988 0.86153 0.86354 0.0
Tb1512 Tb 0.57898 0.56326 0.55416 0.0
C1513 C 0.51633 0.47963 0.48351 0.0
N1514 N 0.52256 0.50237 0.48093 0.0
C1515 C 0.52612 0.49212 0.43854 0.0
C1516 C 0.51523 0.4622 0.46378 0.0
C1517 C 0.52672 0.50879 0.45857 0.0
C1518 C 0.52054 0.46872 0.44119 0.0
C1519 C 0.50345 0.45055 0.50932 0.0
C1520 C 0.51047 0.47384 0.50591 0.0
C1521 C 0.50264 0.43309 0.48984 0.0
C1522 C 0.50854 0.4389 0.46713 0.0
Tb1523 Tb 0.52277 0.52787 0.51512 0.0
N1524 N 0.51222 0.4912 0.52459 0.0
C1525 C 0.49746 0.44555 0.5322 0.0
C1526 C 0.50521 0.48648 0.5465 0.0
C1527 C 0.49814 0.46362 0.55078 0.0
H1528 H 0.52973 0.52674 0.45584 0.0
H1529 H 0.49302 0.45995 0.56835 0.0
H1530 H 0.55677 0.58158 0.60334 0.0
H1531 H 0.62513 0.6093 0.48944 0.0
H1532 H 0.50497 0.50023 0.56069 0.0
H1533 H 0.492 0.42787 0.53558 0.0
H1534 H 0.61152 0.57553 0.50968 0.0
H1535 H 0.52959 0.49735 0.42094 0.0
H1536 H 0.49738 0.41507 0.49211 0.0
H1537 H 0.50765 0.42526 0.45221 0.0
H1538 H 0.55232 0.61891 0.62432 0.0
H1539 H 0.51989 0.45585 0.42557 0.0
H1540 H 0.61861 0.64764 0.50539 0.0
N1541 N 0.57286 0.59645 0.57476 0.0
C1542 C 0.58157 0.61628 0.56583 0.0
C1543 C 0.56042 0.61838 0.60778 0.0
C1544 C 0.57941 0.63796 0.57725 0.0
C1545 C 0.56275 0.59722 0.59572 0.0
C1546 C 0.5687 0.63883 0.59847 0.0
N1547 N 0.59361 0.5933 0.53401 0.0
C1548 C 0.60669 0.59156 0.51547 0.0
C1549 C 0.60041 0.63472 0.53438 0.0
C1550 C 0.59175 0.61457 0.54449 0.0
C1551 C 0.61172 0.63259 0.51372 0.0
C1552 C 0.61526 0.61096 0.50453 0.0
H1553 H 0.56673 0.65517 0.60779 0.0
H1554 H 0.58599 0.67479 0.57533 0.0
H1555 H 0.60447 0.67198 0.5379 0.0
O1556 O 0.61445 0.56454 0.55732 0.0
O1557 O 0.5493 0.58052 0.54478 0.0
O1558 O 0.53254 0.56409 0.50656 0.0
O1559 O 0.5984 0.57265 0.58891 0.0
O1560 O 0.58208 0.54471 0.51809 0.0
O1561 O 0.5484 0.54651 0.49544 0.0
O1562 O 0.49166 0.53451 0.52577 0.0
O1563 O 0.54651 0.50532 0.5285 0.0
O1564 O 0.57411 0.52589 0.55972 0.0
O1565 O 0.49408 0.52126 0.488 0.0
O1566 O 0.52078 0.54187 0.55348 0.0
O1567 O 0.55604 0.54367 0.57538 0.0
C1568 C 0.53954 0.58283 0.52278 0.0
C1569 C 0.62761 0.55149 0.59404 0.0
C1570 C 0.65496 0.52605 0.59501 0.0
C1571 C 0.64595 0.51685 0.61506 0.0
C1572 C 0.61892 0.54233 0.61436 0.0
C1573 C 0.62816 0.52517 0.62482 0.0
C1574 C 0.64592 0.54355 0.58483 0.0
C1575 C 0.57001 0.54512 0.49681 0.0
C1576 C 0.6168 0.56799 0.58117 0.0
C1577 C 0.58762 0.65798 0.56692 0.0
C1578 C 0.59804 0.65636 0.54552 0.0
C1579 C 0.56289 0.50601 0.54693 0.0
C1580 C 0.45661 0.52677 0.49664 0.0
C1581 C 0.42014 0.53417 0.50741 0.0
C1582 C 0.40963 0.52403 0.48378 0.0
C1583 C 0.44584 0.51678 0.4731 0.0
C1584 C 0.44368 0.53542 0.51371 0.0
C1585 C 0.42246 0.51542 0.46676 0.0
C1586 C 0.5338 0.54107 0.57405 0.0
C1587 C 0.48105 0.52727 0.50368 0.0
H1588 H 0.65269 0.50329 0.62314 0.0
H1589 H 0.60474 0.54804 0.62192 0.0
H1590 H 0.62125 0.51805 0.64028 0.0
H1591 H 0.65248 0.55029 0.56897 0.0
H1592 H 0.39159 0.52314 0.4783 0.0
H1593 H 0.45543 0.50984 0.45965 0.0
H1594 H 0.45186 0.54292 0.53199 0.0
H1595 H 0.41425 0.50773 0.44859 0.0
Tb1596 Tb 0.02029 0.53723 0.0601 0.0
C1597 C 0.09697 0.57925 0.99597 0.0
N1598 N 0.08404 0.55751 0.99253 0.0
C1599 C 0.08057 0.55762 0.94893 0.0
C1600 C 0.1019 0.59123 0.97593 0.0
C1601 C 0.07638 0.54632 0.9694 0.0
C1602 C 0.09321 0.58025 0.95221 0.0
C1603 C 0.12067 0.61111 0.024 0.0
C1604 C 0.10616 0.58914 0.01967 0.0
C1605 C 0.12511 0.62341 0.00415 0.0
C1606 C 0.11572 0.61351 0.98017 0.0
Tb1607 Tb 0.07794 0.54146 0.02747 0.0
N1608 N 0.10126 0.57686 0.03849 0.0
C1609 C 0.13062 0.6198 0.04808 0.0
C1610 C 0.11212 0.58452 0.06172 0.0
C1611 C 0.12658 0.60629 0.06696 0.0
H1612 H 0.06728 0.52856 0.96668 0.0
H1613 H 0.13471 0.61258 0.08551 0.0
H1614 H 0.03501 0.54226 0.12128 0.0
H1615 H 0.96065 0.47259 0.99682 0.0
H1616 H 0.10937 0.57396 0.07615 0.0
H1617 H 0.14189 0.63663 0.05219 0.0
H1618 H 0.98751 0.50996 0.00953 0.0
H1619 H 0.07427 0.54878 0.93064 0.0
H1620 H 0.13609 0.64041 0.00709 0.0
H1621 H 0.1196 0.62305 0.96501 0.0
H1622 H 0.02854 0.51761 0.1538 0.0
H1623 H 0.0966 0.58887 0.9363 0.0
H1624 H 0.95281 0.4452 0.02702 0.0
N1625 N 1.01578 0.51682 0.09263 0.0
C1626 C 1.00136 0.49582 0.08715 0.0
C1627 C 0.02102 0.51117 0.13507 0.0
C1628 C 0.99671 0.48142 0.10542 0.0
C1629 C 0.025 0.52495 0.1164 0.0
C1630 C 1.00701 0.48923 0.12954 0.0
N1631 N 0.99581 0.5031 0.04593 0.0
C1632 C 0.98456 0.49793 0.0226 0.0
C1633 C 0.97532 0.46755 0.05689 0.0
C1634 C 0.99069 0.48894 0.0632 0.0
C1635 C 0.96472 0.4615 0.03261 0.0
C1636 C 0.96918 0.47688 0.01547 0.0
H1637 H 1.00386 0.47868 0.1441 0.0
H1638 H 0.97798 0.44857 0.11293 0.0
H1639 H 0.95932 0.43642 0.07045 0.0
O1640 O 0.99314 0.55161 0.04504 0.0
O1641 O 0.02968 0.50338 0.04548 0.0
O1642 O 0.05427 0.50785 0.01554 0.0
O1643 O 0.99709 0.54694 0.08302 0.0
O1644 O 0.02457 0.55056 0.02526 0.0
O1645 O 0.0462 0.53141 1.00239 0.0
O1646 O 0.10402 0.52897 0.04717 0.0
O1647 O 0.06747 0.57512 0.03943 0.0
O1648 O 0.04358 0.57163 0.07003 0.0
O1649 O 0.10134 0.52729 0.00794 0.0
O1650 O 0.07025 0.52784 0.0611 0.0
O1651 O 0.05202 0.54862 0.08528 0.0
C1652 C 0.0402 0.49464 0.02765 0.0
C1653 C 0.98313 0.57978 0.07297 0.0
C1654 C 0.96084 0.61018 0.06987 0.0
C1655 C 0.9784 0.62545 0.08582 0.0
C1656 C 1.0001 0.59534 0.08919 0.0
C1657 C 0.9978 0.61804 0.09541 0.0
C1658 C 0.96337 0.58721 0.06345 0.0
C1659 C 0.02732 0.53904 0.00472 0.0
C1660 C 0.98612 0.55589 0.06616 0.0
C1661 C 0.98167 0.45989 0.09914 0.0
C1662 C 0.97101 0.45298 0.07495 0.0
C1663 C 0.05702 0.58439 0.05691 0.0
C1664 C 0.1382 0.52976 0.02963 0.0
C1665 C 0.17563 0.51942 0.03808 0.0
C1666 C 0.18605 0.54168 0.03389 0.0
C1667 C 0.14903 0.55172 0.02534 0.0
C1668 C 0.15155 0.51361 0.03591 0.0
C1669 C 0.17281 0.55764 0.02757 0.0
C1670 C 0.07035 0.54064 0.08161 0.0
C1671 C 0.11309 0.52332 0.02768 0.0
H1672 H 0.97689 0.64306 0.09142 0.0
H1673 H 1.01508 0.58985 0.09724 0.0
H1674 H 1.01102 0.62989 0.10792 0.0
H1675 H 0.95013 0.57523 0.05103 0.0
H1676 H 0.20446 0.54664 0.03502 0.0
H1677 H 0.13917 0.56423 0.02012 0.0
H1678 H 0.14319 0.49664 0.03929 0.0
H1679 H 0.18104 0.57463 0.02419 0.0
H1680 H 0.04959 0.21782 0.96942 0.0
H1681 H 1.00298 0.09807 0.02212 0.0
H1682 H 0.99016 0.20765 0.00708 0.0
H1683 H 0.07358 0.11889 0.01211 0.0
H1684 H 0.9961 0.13555 0.01134 0.0
H1685 H 0.05678 0.18002 0.9794 0.0
C1686 C 0.0379 0.20771 0.9796 0.0
C1687 C 1.01916 0.21648 0.98732 0.0
C1688 C 1.01314 0.13201 0.01145 0.0
C1689 C 0.02727 0.17224 0.9987 0.0
C1690 C 1.01709 0.11037 0.01752 0.0
C1691 C 0.03898 0.10481 0.01815 0.0
C1692 C 0.03104 0.14862 0.00536 0.0
C1693 C 0.05645 0.12207 0.01217 0.0
C1694 C 0.04211 0.18601 0.98544 0.0
C1695 C 1.00488 0.20209 1.00066 0.0
N1696 N 0.0521 0.14282 0.00592 0.0
N1697 N 1.00908 0.18097 0.00565 0.0
H1698 H 0.12421 0.79676 0.17781 0.0
H1699 H 0.25868 0.83359 0.22646 0.0
H1700 H 0.17242 0.83106 0.13463 0.0
H1701 H 0.21494 0.77605 0.24985 0.0
H1702 H 0.22671 0.83752 0.19647 0.0
H1703 H 0.15625 0.79416 0.20838 0.0
C1704 C 0.14147 0.80401 0.17482 0.0
C1705 C 0.14541 0.81418 0.15341 0.0
C1706 C 0.2241 0.82409 0.20824 0.0
C1707 C 0.18249 0.81132 0.18875 0.0
C1708 C 0.24243 0.82175 0.22538 0.0
C1709 C 0.23976 0.80444 0.24097 0.0
C1710 C 0.20257 0.80936 0.20684 0.0
C1711 C 0.21796 0.78992 0.23869 0.0
C1712 C 0.15982 0.80236 0.19227 0.0
C1713 C 0.16837 0.82304 0.1507 0.0
N1714 N 0.20033 0.79279 0.2222 0.0
N1715 N 0.1859 0.82151 0.1681 0.0
H1716 H 0.52611 0.86029 0.44042 0.0
H1717 H 0.52363 0.96273 0.54864 0.0
H1718 H 0.51393 0.84538 0.5129 0.0
H1719 H 0.54649 0.97373 0.47896 0.0
H1720 H 0.51734 0.92057 0.53627 0.0
H1721 H 0.53104 0.90143 0.45434 0.0
C1722 C 0.52438 0.8655 0.45936 0.0
C1723 C 0.51957 0.84867 0.47532 0.0
C1724 C 0.52377 0.93217 0.52368 0.0
C1725 C 0.52523 0.89726 0.49178 0.0
C1726 C 0.52727 0.95644 0.5307 0.0
C1727 C 0.53586 0.97236 0.51503 0.0
C1728 C 0.52859 0.92328 0.50054 0.0
C1729 C 0.5402 0.96259 0.49202 0.0
C1730 C 0.52727 0.88934 0.46737 0.0
C1731 C 0.51763 0.8573 0.49971 0.0
N1732 N 0.53654 0.9391 0.48563 0.0
N1733 N 0.52039 0.88074 0.50708 0.0
H1734 H 0.54089 0.29423 0.68401 0.0
H1735 H 0.40686 0.29685 0.66725 0.0
H1736 H 0.50411 0.30899 0.61808 0.0
H1737 H 0.4411 0.27714 0.73193 0.0
H1738 H 0.44303 0.30368 0.65041 0.0
H1739 H 0.50542 0.28958 0.7028 0.0
C1740 C 0.52536 0.29644 0.67343 0.0
C1741 C 0.52556 0.30195 0.64933 0.0
C1742 C 0.44276 0.29794 0.66833 0.0
C1743 C 0.48477 0.29682 0.67092 0.0
C1744 C 0.42203 0.29402 0.678 0.0
C1745 C 0.42074 0.28612 0.70101 0.0
C1746 C 0.46265 0.29401 0.68162 0.0
C1747 C 0.4412 0.28326 0.71419 0.0
C1748 C 0.50509 0.29383 0.68423 0.0
C1749 C 0.50486 0.30467 0.63663 0.0
N1750 N 0.46123 0.28702 0.70425 0.0
N1751 N 0.48541 0.3021 0.64755 0.0
H1752 H 0.04855 0.80465 0.64014 0.0
H1753 H 0.05931 0.94232 0.65905 0.0
H1754 H 0.04088 0.84365 0.70795 0.0
H1755 H 0.06932 0.90465 0.59141 0.0
H1756 H 0.05106 0.90608 0.6764 0.0
H1757 H 0.05536 0.84056 0.62158 0.0
C1758 C 0.04841 0.82077 0.6512 0.0
C1759 C 0.04418 0.82106 0.67573 0.0
C1760 C 0.05498 0.90564 0.65774 0.0
C1761 C 0.05179 0.8624 0.6544 0.0
C1762 C 0.05973 0.9264 0.64776 0.0
C1763 C 0.06529 0.9267 0.62373 0.0
C1764 C 0.05574 0.88474 0.6437 0.0
C1765 C 0.06506 0.90534 0.60995 0.0
C1766 C 0.05223 0.8413 0.64052 0.0
C1767 C 0.04413 0.84253 0.68904 0.0
N1768 N 0.06055 0.8853 0.62016 0.0
N1769 N 0.04783 0.86224 0.67823 0.0
H1770 H 0.48571 0.78742 0.84469 0.0
H1771 H 0.37997 0.8399 0.78613 0.0
H1772 H 0.493 0.85859 0.83291 0.0
H1773 H 0.37153 0.774 0.81327 0.0
H1774 H 0.42143 0.84577 0.79834 0.0
H1775 H 0.44503 0.7807 0.82781 0.0
C1776 C 0.47903 0.80147 0.83762 0.0
C1777 C 0.49341 0.82342 0.83941 0.0
C1778 C 0.41054 0.83002 0.80169 0.0
C1779 C 0.44579 0.81605 0.82079 0.0
C1780 C 0.3866 0.82671 0.79486 0.0
C1781 C 0.37153 0.80663 0.79902 0.0
C1782 C 0.42009 0.81297 0.81256 0.0
C1783 C 0.38195 0.78992 0.80971 0.0
C1784 C 0.45555 0.79771 0.82833 0.0
C1785 C 0.48307 0.84116 0.8311 0.0
N1786 N 0.40524 0.79346 0.81601 0.0
N1787 N 0.46016 0.83712 0.82224 0.0
H1788 H 0.48796 0.19025 0.14383 0.0
H1789 H 0.56096 0.10888 0.07959 0.0
H1790 H 0.55963 0.19406 0.16613 0.0
H1791 H 0.48888 0.08345 0.07945 0.0
H1792 H 0.55939 0.1416 0.10943 0.0
H1793 H 0.48599 0.15217 0.11976 0.0
C1794 C 0.50304 0.18269 0.14452 0.0
C1795 C 0.5239 0.19521 0.1576 0.0
C1796 C 0.54387 0.12885 0.10311 0.0
C1797 C 0.52207 0.15224 0.12898 0.0
C1798 C 0.54473 0.11011 0.08589 0.0
C1799 C 0.52506 0.09315 0.07693 0.0
C1800 C 0.52304 0.13132 0.11138 0.0
C1801 C 0.50455 0.09587 0.08601 0.0
C1802 C 0.50198 0.16107 0.13049 0.0
C1803 C 0.54309 0.1849 0.15682 0.0
N1804 N 0.504 0.11471 0.10247 0.0
N1805 N 0.54178 0.1644 0.14261 0.0
H1806 H 0.10707 0.29961 0.30533 0.0
H1807 H 0.24551 0.33591 0.32232 0.0
H1808 H 0.14572 0.34558 0.36743 0.0
H1809 H 0.20889 0.27439 0.27667 0.0
H1810 H 0.2093 0.34275 0.33562 0.0
H1811 H 0.14332 0.29303 0.29145 0.0
C1812 C 0.12308 0.30848 0.31606 0.0
C1813 C 0.12286 0.32325 0.33778 0.0
C1814 C 0.20906 0.32768 0.32267 0.0
C1815 C 0.16523 0.31589 0.3215 0.0
C1816 C 0.22995 0.32379 0.31496 0.0
C1817 C 0.23089 0.30429 0.29843 0.0
C1818 C 0.18822 0.31227 0.31349 0.0
C1819 C 0.20956 0.28939 0.28969 0.0
C1820 C 0.14393 0.30462 0.30809 0.0
C1821 C 0.1446 0.33401 0.35066 0.0
N1822 N 0.18942 0.29369 0.2971 0.0
N1823 N 0.16456 0.33028 0.34235 0.0
H1824 H 0.96979 0.05312 0.20993 0.0
H1825 H 1.01361 0.99767 0.09058 0.0
H1826 H 0.99275 0.98849 0.20582 0.0
H1827 H 0.02323 0.07152 0.10844 0.0
H1828 H 0.99899 0.99277 0.12964 0.0
H1829 H 0.98252 0.05895 0.16974 0.0
C1830 C 0.97727 0.04006 0.2005 0.0
C1831 C 0.98023 0.02029 0.21133 0.0
C1832 C 1.00423 1.01006 0.12502 0.0
C1833 C 0.99457 0.02675 0.16533 0.0
C1834 C 1.01245 1.01288 0.10263 0.0
C1835 C 0.01967 0.03505 0.09619 0.0
C1836 C 1.00275 0.02951 0.14107 0.0
C1837 C 1.01799 0.05412 0.11275 0.0
C1838 C 0.98467 0.04349 0.17768 0.0
C1839 C 0.99022 1.00404 0.19831 0.0
N1840 N 1.00959 0.05093 0.13438 0.0
N1841 N 0.99686 1.00756 0.17604 0.0
H1842 H 0.29319 0.70144 0.53258 0.0
H1843 H 0.24185 0.69591 0.39207 0.0
H1844 H 0.27233 0.63719 0.48416 0.0
H1845 H 0.25211 0.75589 0.44638 0.0
H1846 H 0.25718 0.67456 0.42348 0.0
H1847 H 0.28319 0.72219 0.49885 0.0
C1848 C 0.28661 0.6917 0.51472 0.0
C1849 C 0.28331 0.66756 0.51117 0.0
C1850 C 0.25608 0.69239 0.42845 0.0
C1851 C 0.27156 0.69125 0.4724 0.0
C1852 C 0.24741 0.70456 0.41058 0.0
C1853 C 0.24554 0.72758 0.41679 0.0
C1854 C 0.26312 0.7035 0.45251 0.0
C1855 C 0.2529 0.73804 0.44096 0.0
C1856 C 0.28085 0.70357 0.49546 0.0
C1857 C 0.27503 0.65583 0.48761 0.0
N1858 N 0.26136 0.72592 0.45791 0.0
N1859 N 0.2692 0.66781 0.46905 0.0
H1860 H 0.65728 0.03592 0.70485 0.0
H1861 H 0.572 0.08331 0.61212 0.0
H1862 H 0.63373 0.09971 0.71932 0.0
H1863 H 0.59804 0.02193 0.59242 0.0
H1864 H 0.59792 0.09112 0.65023 0.0
H1865 H 0.63943 0.03201 0.66209 0.0
C1866 C 0.6486 0.04919 0.69894 0.0
C1867 C 0.64643 0.06785 0.71565 0.0
C1868 C 0.59814 0.07597 0.6376 0.0
C1869 C 0.62625 0.0636 0.66725 0.0
C1870 C 0.5832 0.07144 0.61594 0.0
C1871 C 0.58276 0.05182 0.59942 0.0
C1872 C 0.61247 0.06053 0.64299 0.0
C1873 C 0.59791 0.03723 0.60486 0.0
C1874 C 0.63844 0.04696 0.67463 0.0
C1875 C 0.63526 0.08471 0.70716 0.0
N1876 N 0.61205 0.04173 0.62645 0.0
N1877 N 0.62543 0.08207 0.68361 0.0
H1878 H 0.31723 0.40728 0.96667 0.0
H1879 H 0.32912 0.29784 0.87384 0.0
H1880 H 0.32758 0.34309 0.99117 0.0
H1881 H 0.30534 0.35749 0.85142 0.0
H1882 H 0.33359 0.31551 0.91683 0.0
H1883 H 0.31767 0.39068 0.92442 0.0
C1884 C 0.31972 0.38971 0.9632 0.0
C1885 C 0.32223 0.37655 0.98256 0.0
C1886 C 0.3275 0.32474 0.90245 0.0
C1887 C 0.32277 0.3573 0.93394 0.0
C1888 C 0.32509 0.31472 0.87788 0.0
C1889 C 0.31674 0.32611 0.8589 0.0
C1890 C 0.32169 0.34638 0.90808 0.0
C1891 C 0.31161 0.3479 0.86535 0.0
C1892 C 0.31992 0.3802 0.939 0.0
C1893 C 0.32546 0.35385 0.97683 0.0
N1894 N 0.31413 0.35724 0.88926 0.0
N1895 N 0.32558 0.34493 0.95307 0.0
H1896 H 0.94018 0.02887 0.35811 0.0
H1897 H 0.05053 0.01938 0.44976 0.0
H1898 H 1.00307 0.01755 0.33283 0.0
H1899 H 0.98925 0.03744 0.47305 0.0
H1900 H 0.03255 0.01455 0.40689 0.0
H1901 H 0.95699 0.02823 0.40019 0.0
C1902 C 0.95751 0.02611 0.36138 0.0
C1903 C 0.97025 0.02338 0.34184 0.0
C1904 C 0.02301 0.01945 0.42141 0.0
C1905 C 0.98977 0.02268 0.3903 0.0
C1906 C 0.03322 0.02206 0.4459 0.0
C1907 C 0.02147 0.02903 0.46505 0.0
C1908 C 1.00084 0.0237 0.41606 0.0
C1909 C 0.99909 0.03232 0.45891 0.0
C1910 C 0.96715 0.02578 0.38548 0.0
C1911 C 0.99264 0.01981 0.34731 0.0
N1912 N 0.98961 0.02975 0.43506 0.0
N1913 N 1.00172 0.01966 0.371 0.0
H1914 H 0.31708 0.67351 0.64458 0.0
H1915 H 0.26102 0.75975 0.72163 0.0
H1916 H 0.24445 0.67008 0.63938 0.0
H1917 H 0.33098 0.75386 0.74055 0.0
H1918 H 0.25374 0.72255 0.69583 0.0
H1919 H 0.32202 0.69694 0.68478 0.0
C1920 C 0.30211 0.67677 0.65251 0.0
C1921 C 0.28038 0.6702 0.6388 0.0
C1922 C 0.27063 0.72909 0.70588 0.0
C1923 C 0.28582 0.69749 0.68389 0.0
C1924 C 0.27475 0.75037 0.72046 0.0
C1925 C 0.29654 0.75957 0.73304 0.0
C1926 C 0.2887 0.7174 0.70322 0.0
C1927 C 0.31394 0.74708 0.73092 0.0
C1928 C 0.3049 0.69036 0.67528 0.0
C1929 C 0.26149 0.67507 0.64949 0.0
N1930 N 0.30975 0.72668 0.71594 0.0
N1931 N 0.26468 0.68887 0.6712 0.0
H1932 H 0.64592 0.08807 0.83062 0.0
H1933 H 0.65213 0.08075 0.96929 0.0
H1934 H 0.7001 0.05922 0.86536 0.0
H1935 H 0.6414 0.14353 0.94126 0.0
H1936 H 0.66573 0.06857 0.93104 0.0
H1937 H 0.63934 0.10448 0.87071 0.0
C1938 C 0.65654 0.08525 0.84665 0.0
C1939 C 0.67374 0.07241 0.84468 0.0
C1940 C 0.66078 0.08518 0.93356 0.0
C1941 C 0.66585 0.09075 0.89052 0.0
C1942 C 0.65296 0.09216 0.95531 0.0
C1943 C 0.64591 0.11339 0.95864 0.0
C1944 C 0.66075 0.09912 0.91474 0.0
C1945 C 0.647 0.12722 0.93962 0.0
C1946 C 0.6528 0.09474 0.86948 0.0
C1947 C 0.68673 0.0691 0.86617 0.0
N1948 N 0.65394 0.11965 0.91825 0.0
N1949 N 0.68231 0.078 0.88839 0.0
H1950 H 0.34543 0.33783 0.11096 0.0
H1951 H 0.27598 0.34323 0.22678 0.0
H1952 H 0.30023 0.38562 0.12052 0.0
H1953 H 0.32613 0.30117 0.21632 0.0
H1954 H 0.28483 0.36041 0.18935 0.0
H1955 H 0.33854 0.32537 0.15031 0.0
C1956 C 0.33402 0.34579 0.12132 0.0
C1957 C 0.32335 0.36281 0.11212 0.0
C1958 C 0.29398 0.34754 0.19539 0.0
C1959 C 0.31523 0.34833 0.15788 0.0
C1960 C 0.28905 0.33786 0.21684 0.0
C1961 C 0.30029 0.32069 0.22468 0.0
C1962 C 0.31021 0.33991 0.18171 0.0
C1963 C 0.31683 0.31415 0.21088 0.0
C1964 C 0.33012 0.33864 0.14398 0.0
C1965 C 0.30887 0.37247 0.12678 0.0
N1966 N 0.32116 0.32363 0.19016 0.0
N1967 N 0.30513 0.36501 0.14883 0.0
H1968 H 0.24542 0.93949 0.02861 0.0
H1969 H 0.22472 0.05763 0.09575 0.0
H1970 H 0.30108 0.99688 0.05615 0.0
H1971 H 0.17573 1.01402 0.03873 0.0
H1972 H 0.25192 0.03265 0.08824 0.0
H1973 H 0.21834 0.9634 0.04026 0.0
C1974 C 0.25196 0.957 0.03748 0.0
C1975 C 0.27551 0.96629 0.04133 0.0
C1976 C 0.23515 0.02861 0.07749 0.0
C1977 C 0.24467 0.99363 0.05462 0.0
C1978 C 0.21964 0.04294 0.08159 0.0
C1979 C 0.19776 0.03803 0.06788 0.0
C1980 C 0.22865 1.00901 0.05985 0.0
C1981 C 0.19213 0.01835 0.05016 0.0
C1982 C 0.2365 0.97065 0.04393 0.0
C1983 C 0.28304 0.98912 0.05275 0.0
N1984 N 0.20742 1.00454 0.04675 0.0
N1985 N 0.26764 1.00206 0.059 0.0
H1986 H 0.73294 0.63117 0.02133 0.0
H1987 H 0.63429 0.55994 0.04721 0.0
H1988 H 0.68721 0.67443 0.99647 0.0
H1989 H 0.598 0.59359 0.99489 0.0
H1990 H 0.66988 0.58571 0.04253 0.0
H1991 H 0.69998 0.60117 0.02439 0.0
C1992 C 0.71597 0.63441 0.0165 0.0
C1993 C 0.71298 0.65558 0.00882 0.0
C1994 C 0.65427 0.58722 0.03165 0.0
C1995 C 0.67484 0.62126 0.01295 0.0
C1996 C 0.63384 0.57249 0.03442 0.0
C1997 C 0.61304 0.5745 0.02143 0.0
C1998 C 0.65396 0.60416 0.01572 0.0
C1999 C 0.61353 0.59144 0.00548 0.0
C2000 C 0.69706 0.61728 0.01856 0.0
C2001 C 0.69047 0.65854 1.00264 0.0
N2002 N 0.63357 0.60567 1.00322 0.0
N2003 N 0.67234 0.64163 0.00487 0.0
H2004 H 0.71702 0.53431 0.27956 0.0
H2005 H 0.71917 0.39944 0.25392 0.0
H2006 H 0.6594 0.4814 0.28769 0.0
H2007 H 0.77108 0.4547 0.23855 0.0
H2008 H 0.6985 0.42834 0.27087 0.0
H2009 H 0.73821 0.50468 0.26861 0.0
C2010 C 0.70874 0.5164 0.27899 0.0
C2011 C 0.68627 0.51039 0.28439 0.0
C2012 C 0.71453 0.4341 0.26401 0.0
C2013 C 0.71073 0.476 0.27177 0.0
C2014 C 0.72639 0.41764 0.25456 0.0
C2015 C 0.74678 0.42476 0.24476 0.0
C2016 C 0.7233 0.45774 0.26378 0.0
C2017 C 0.75533 0.44851 0.24577 0.0
C2018 C 0.72094 0.4994 0.27275 0.0
C2019 C 0.67663 0.48681 0.2835 0.0
N2020 N 0.74355 0.46406 0.25497 0.0
N2021 N 0.6889 0.47043 0.27722 0.0
H2022 H 0.86061 0.49143 0.50569 0.0
H2023 H 0.99198 0.49445 0.49396 0.0
H2024 H 0.88787 0.43348 0.4766 0.0
H2025 H 0.96722 0.55659 0.51356 0.0
H2026 H 0.9531 0.47261 0.48666 0.0
H2027 H 0.89845 0.51633 0.5077 0.0
C2028 C 0.87444 0.48396 0.49955 0.0
C2029 C 0.87108 0.46023 0.49121 0.0
C2030 C 0.95595 0.49102 0.49242 0.0
C2031 C 0.91424 0.48858 0.4935 0.0
C2032 C 0.97822 0.50351 0.4967 0.0
C2033 C 0.98272 0.52726 0.50474 0.0
C2034 C 0.93787 0.50226 0.49627 0.0
C2035 C 0.9643 0.53822 0.50752 0.0
C2036 C 0.896 0.4982 0.5007 0.0
C2037 C 0.88961 0.45156 0.48342 0.0
N2038 N 0.94252 0.52553 0.50355 0.0
N2039 N 0.91034 0.46569 0.4849 0.0
H2040 H 0.41755 0.09853 0.29467 0.0
H2041 H 0.3177 0.13704 0.21452 0.0
H2042 H 0.3602 0.04852 0.25498 0.0
H2043 H 0.35401 0.17902 0.28048 0.0
H2044 H 0.33556 0.10498 0.22555 0.0
H2045 H 0.39735 0.12943 0.28577 0.0
C2046 C 0.40078 0.09409 0.28392 0.0
C2047 C 0.39051 0.07101 0.27541 0.0
C2048 C 0.33943 0.12113 0.23771 0.0
C2049 C 0.36747 0.10612 0.26522 0.0
C2050 C 0.32931 0.13932 0.23143 0.0
C2051 C 0.33447 0.16043 0.24673 0.0
C2052 C 0.35518 0.12442 0.25909 0.0
C2053 C 0.34961 0.16282 0.26838 0.0
C2054 C 0.38922 0.11167 0.27907 0.0
C2055 C 0.36867 0.06614 0.26182 0.0
N2056 N 0.35971 0.14505 0.27383 0.0
N2057 N 0.3579 0.0836 0.25694 0.0
H2058 H 0.36034 0.20099 0.52527 0.0
H2059 H 0.41224 0.09052 0.55513 0.0
H2060 H 0.31919 0.13712 0.53911 0.0
H2061 H 0.45272 0.15463 0.54105 0.0
H2062 H 0.37765 0.10629 0.54705 0.0
H2063 H 0.39421 0.18377 0.52988 0.0
C2064 C 0.35844 0.18338 0.52942 0.0
C2065 C 0.33689 0.17053 0.53191 0.0
C2066 C 0.39409 0.11685 0.54558 0.0
C2067 C 0.37563 0.15056 0.537 0.0
C2068 C 0.41383 0.10776 0.54996 0.0
C2069 C 0.43545 0.12133 0.54897 0.0
C2070 C 0.39598 0.13966 0.54012 0.0
C2071 C 0.43646 0.14367 0.54242 0.0
C2072 C 0.37778 0.1735 0.53194 0.0
C2073 C 0.33547 0.14772 0.53713 0.0
N2074 N 0.41708 0.15215 0.53841 0.0
N2075 N 0.35455 0.13847 0.5395 0.0
H2076 H 0.66096 0.65761 0.32995 0.0
H2077 H 0.74883 0.75252 0.33415 0.0
H2078 H 0.7075 0.61695 0.30267 0.0
H2079 H 0.77331 0.71077 0.2783 0.0
H2080 H 0.72238 0.71841 0.34165 0.0
H2081 H 0.68928 0.69258 0.32883 0.0
C2082 C 0.67727 0.65598 0.32408 0.0
C2083 C 0.68178 0.63417 0.31653 0.0
C2084 C 0.73334 0.71661 0.3276 0.0
C2085 C 0.71475 0.67443 0.31555 0.0
C2086 C 0.74873 0.73611 0.3235 0.0
C2087 C 0.76328 0.73461 0.30543 0.0
C2088 C 0.73221 0.6953 0.31337 0.0
C2089 C 0.76253 0.71277 0.2925 0.0
C2090 C 0.69361 0.67605 0.32363 0.0
C2091 C 0.70322 0.63331 0.30883 0.0
N2092 N 0.74715 0.694 0.29662 0.0
N2093 N 0.71878 0.6531 0.30834 0.0
H2094 H 0.91664 0.45083 0.83861 0.0
H2095 H 0.79085 0.37361 0.80846 0.0
H2096 H 0.86011 0.48077 0.81147 0.0
H2097 H 0.85341 0.34907 0.8016 0.0
H2098 H 0.8136 0.41353 0.81729 0.0
H2099 H 0.89075 0.41359 0.83479 0.0
C2100 C 0.89874 0.44968 0.83206 0.0
C2101 C 0.89067 0.46894 0.82491 0.0
C2102 C 0.82212 0.39924 0.81368 0.0
C2103 C 0.86089 0.42614 0.8204 0.0
C2104 C 0.80921 0.3766 0.80859 0.0
C2105 C 0.8202 0.35802 0.80401 0.0
C2106 C 0.84604 0.40297 0.81472 0.0
C2107 C 0.84405 0.36275 0.80462 0.0
C2108 C 0.88397 0.42836 0.82981 0.0
C2109 C 0.86714 0.46631 0.81689 0.0
N2110 N 0.8561 0.38465 0.81002 0.0
N2111 N 0.85303 0.44519 0.81462 0.0
H2112 H 0.08175 0.88695 0.13262 0.0
H2113 H 0.04988 0.95681 0.01943 0.0
H2114 H 0.07055 0.85484 0.05763 0.0
H2115 H 0.07233 0.98925 0.09368 0.0
H2116 H 0.05551 0.91957 0.03237 0.0
H2117 H 0.07699 0.92365 0.1184 0.0
C2118 C 0.0784 0.88748 0.11307 0.0
C2119 C 0.07674 0.86722 0.09652 0.0
C2120 C 0.05925 0.93479 0.04589 0.0
C2121 C 0.07077 0.91033 0.07969 0.0
C2122 C 0.05592 0.95627 0.03849 0.0
C2123 C 0.06046 0.97676 0.05532 0.0
C2124 C 0.06717 0.93323 0.07056 0.0
C2125 C 0.06853 0.97434 0.07975 0.0
C2126 C 0.07562 0.9087 0.10491 0.0
C2127 C 0.07222 0.86967 0.07134 0.0
N2128 N 0.07145 0.95332 0.08648 0.0
N2129 N 0.0693 0.89052 0.06384 0.0
H2130 H 0.96969 0.28634 0.89629 0.0
H2131 H 0.83369 0.26052 0.85778 0.0
H2132 H 0.92329 0.26903 0.94875 0.0
H2133 H 0.88002 0.30894 0.82473 0.0
H2134 H 0.86595 0.25722 0.8879 0.0
H2135 H 0.93693 0.2878 0.86612 0.0
C2136 C 0.95263 0.28256 0.90144 0.0
C2137 C 0.94943 0.27754 0.92527 0.0
C2138 C 0.86902 0.2684 0.87388 0.0
C2139 C 0.91154 0.27901 0.89043 0.0
C2140 C 0.85058 0.27033 0.85663 0.0
C2141 C 0.85395 0.28473 0.83814 0.0
C2142 C 0.89125 0.28059 0.87251 0.0
C2143 C 0.87644 0.29696 0.83788 0.0
C2144 C 0.9339 0.28355 0.88419 0.0
C2145 C 0.92673 0.27303 0.93072 0.0
N2146 N 0.89408 0.29448 0.85452 0.0
N2147 N 0.90875 0.27372 0.91349 0.0
H2148 H 0.56201 0.23398 0.61617 0.0
H2149 H 0.57579 0.12315 0.5233 0.0
H2150 H 0.5975 0.2395 0.55281 0.0
H2151 H 0.54811 0.11621 0.59126 0.0
H2152 H 0.58273 0.16539 0.53333 0.0
H2153 H 0.55508 0.19145 0.60684 0.0
C2154 C 0.5683 0.22645 0.60025 0.0
C2155 C 0.58044 0.241 0.58539 0.0
C2156 C 0.57502 0.15471 0.54609 0.0
C2157 C 0.57242 0.19136 0.5744 0.0
C2158 C 0.57116 0.13034 0.54039 0.0
C2159 C 0.56101 0.11546 0.55617 0.0
C2160 C 0.56868 0.16496 0.56786 0.0
C2161 C 0.55531 0.12649 0.57797 0.0
C2162 C 0.56436 0.20195 0.59493 0.0
C2163 C 0.58808 0.22953 0.56503 0.0
N2164 N 0.55909 0.15021 0.58303 0.0
N2165 N 0.58396 0.20583 0.56025 0.0
H2166 H 0.55236 0.76395 0.38337 0.0
H2167 H 0.68301 0.82491 0.38123 0.0
H2168 H 0.59617 0.80199 0.44739 0.0
H2169 H 0.63883 0.78671 0.31779 0.0
H2170 H 0.6532 0.81268 0.40691 0.0
H2171 H 0.58505 0.76835 0.36032 0.0
C2172 C 0.56891 0.77305 0.3927 0.0
C2173 C 0.57139 0.7827 0.41741 0.0
C2174 C 0.65015 0.80653 0.38747 0.0
C2175 C 0.60915 0.788 0.39087 0.0
C2176 C 0.66729 0.81329 0.37287 0.0
C2177 C 0.66354 0.8064 0.34745 0.0
C2178 C 0.62891 0.79301 0.37652 0.0
C2179 C 0.64257 0.792 0.33739 0.0
C2180 C 0.58763 0.77558 0.37947 0.0
C2181 C 0.59336 0.79427 0.42841 0.0
N2182 N 0.62602 0.78595 0.35187 0.0
N2183 N 0.61129 0.79676 0.41505 0.0
H2184 H 0.06021 0.28483 0.44265 0.0
H2185 H 0.05804 0.15009 0.41021 0.0
H2186 H 0.05907 0.25382 0.36822 0.0
H2187 H 0.04057 0.18118 0.47786 0.0
H2188 H 0.06402 0.18795 0.39564 0.0
H2189 H 0.05946 0.2475 0.45664 0.0
C2190 C 0.05991 0.27016 0.42912 0.0
C2191 C 0.05933 0.27261 0.40403 0.0
C2192 C 0.05897 0.18645 0.41369 0.0
C2193 C 0.05848 0.22919 0.42032 0.0
C2194 C 0.05541 0.16477 0.42208 0.0
C2195 C 0.04845 0.16211 0.44535 0.0
C2196 C 0.05589 0.20584 0.42873 0.0
C2197 C 0.04608 0.18213 0.45996 0.0
C2198 C 0.05945 0.24872 0.43724 0.0
C2199 C 0.05944 0.25283 0.38768 0.0
N2200 N 0.04971 0.20299 0.4514 0.0
N2201 N 0.05881 0.23189 0.39608 0.0
H2202 H 0.61412 0.30979 0.21759 0.0
H2203 H 0.71687 0.24825 0.26607 0.0
H2204 H 0.60137 0.23864 0.23015 0.0
H2205 H 0.72659 0.31681 0.2455 0.0
H2206 H 0.67521 0.24454 0.25661 0.0
H2207 H 0.65474 0.31309 0.23202 0.0
C2208 C 0.61967 0.29498 0.22421 0.0
C2209 C 0.60368 0.27411 0.22325 0.0
C2210 C 0.68643 0.26043 0.25419 0.0
C2211 C 0.6515 0.27749 0.23912 0.0
C2212 C 0.71047 0.26257 0.25966 0.0
C2213 C 0.72597 0.28282 0.25672 0.0
C2214 C 0.67727 0.2788 0.24574 0.0
C2215 C 0.7159 0.3007 0.24816 0.0
C2216 C 0.64315 0.2968 0.23216 0.0
C2217 C 0.61258 0.25535 0.23126 0.0
N2218 N 0.69261 0.29827 0.24311 0.0
N2219 N 0.63568 0.25745 0.23866 0.0
H2220 H 0.58115 0.91527 0.87713 0.0
H2221 H 0.51969 0.96333 0.98835 0.0
H2222 H 0.54543 0.87264 0.92473 0.0
H2223 H 0.57345 1.00757 0.96005 0.0
H2224 H 0.52547 0.93082 0.96089 0.0
H2225 H 0.57515 0.94987 0.90272 0.0
C2226 C 0.57188 0.91309 0.89271 0.0
C2227 C 0.56378 0.89078 0.89859 0.0
C2228 C 0.53606 0.94765 0.96063 0.0
C2229 C 0.55671 0.93042 0.92796 0.0
C2230 C 0.53285 0.96646 0.97652 0.0
C2231 C 0.54629 0.98875 0.97718 0.0
C2232 C 0.55266 0.95075 0.94458 0.0
C2233 C 0.56263 0.99109 0.96059 0.0
C2234 C 0.56857 0.93289 0.90742 0.0
C2235 C 0.55203 0.88926 0.91925 0.0
N2236 N 0.56532 0.97248 0.94506 0.0
N2237 N 0.54882 0.90858 0.93293 0.0
H2238 H 0.95001 0.75516 0.69008 0.0
H2239 H 0.8819 0.79197 0.80181 0.0
H2240 H 0.98192 0.76768 0.76511 0.0
H2241 H 0.84759 0.76014 0.73059 0.0
H2242 H 0.91857 0.78612 0.78874 0.0
H2243 H 0.9134 0.75931 0.70417 0.0
C2244 C 0.94945 0.75863 0.7096 0.0
C2245 C 0.96962 0.76077 0.72623 0.0
C2246 C 0.90307 0.78032 0.77592 0.0
C2247 C 0.92672 0.76627 0.74286 0.0
C2248 C 0.8819 0.7838 0.78338 0.0
C2249 C 0.86103 0.77667 0.76747 0.0
C2250 C 0.90402 0.76981 0.75201 0.0
C2251 C 0.8628 0.76591 0.74383 0.0
C2252 C 0.9283 0.76106 0.71768 0.0
C2253 C 0.96716 0.76554 0.75135 0.0
N2254 N 0.88358 0.76304 0.73692 0.0
N2255 N 0.94646 0.76828 0.75873 0.0
H2256 H 0.16319 0.0614 0.88809 0.0
H2257 H 0.1071 0.0296 0.98725 0.0
H2258 H 0.09748 0.07021 0.85511 0.0
H2259 H 0.05598 0.06564 0.95915 0.0
H2260 H 0.12659 0.03607 0.95131 0.0
H2261 H 0.14753 0.05593 0.92637 0.0
C2262 C 0.14541 0.06218 0.88888 0.0
C2263 C 0.13164 0.06615 0.86815 0.0
C2264 C 0.11129 0.04287 0.95302 0.0
C2265 C 0.11315 0.05914 0.91218 0.0
C2266 C 0.10001 0.03897 0.97357 0.0
C2267 C 0.07966 0.0468 0.9762 0.0
C2268 C 0.10226 0.05486 0.93486 0.0
C2269 C 0.07131 0.0588 0.95774 0.0
C2270 C 0.13633 0.05874 0.91079 0.0
C2271 C 0.10876 0.06713 0.8705 0.0
N2272 N 0.08252 0.06233 0.9379 0.0
N2273 N 0.10028 0.06364 0.89203 0.0
H2274 H 0.82319 0.442 0.57992 0.0
H2275 H 0.85006 0.39574 0.68822 0.0
H2276 H 0.78362 0.37367 0.55401 0.0
H2277 H 0.83663 0.33307 0.63735 0.0
H2278 H 0.83045 0.41453 0.65715 0.0
H2279 H 0.83194 0.42973 0.62017 0.0
C2280 C 0.81555 0.42473 0.58308 0.0
C2281 C 0.80309 0.40862 0.56369 0.0
C2282 C 0.83192 0.39674 0.6528 0.0
C2283 C 0.81297 0.39446 0.60923 0.0
C2284 C 0.84302 0.38604 0.67046 0.0
C2285 C 0.84534 0.36307 0.66495 0.0
C2286 C 0.82295 0.38414 0.62975 0.0
C2287 C 0.83568 0.351 0.64199 0.0
C2288 C 0.82057 0.41769 0.60603 0.0
C2289 C 0.79369 0.38642 0.56848 0.0
N2290 N 0.8249 0.36169 0.62523 0.0
N2291 N 0.79926 0.37983 0.59064 0.0
H2292 H 0.479 0.017 0.34304 0.0
H2293 H 0.49572 0.06488 0.48467 0.0
H2294 H 0.42782 0.04668 0.37673 0.0
H2295 H 0.53181 0.0146 0.45412 0.0
H2296 H 0.47217 0.06116 0.44495 0.0
H2297 H 0.50046 0.01892 0.38342 0.0
C2298 C 0.47226 0.02389 0.35897 0.0
C2299 C 0.45165 0.03173 0.35663 0.0
C2300 C 0.48526 0.05096 0.44703 0.0
C2301 C 0.47617 0.0341 0.4028 0.0
C2302 C 0.49873 0.0531 0.46963 0.0
C2303 C 0.516 0.0403 0.47255 0.0
C2304 C 0.48928 0.03609 0.42728 0.0
C2305 C 0.51908 0.02523 0.45251 0.0
C2306 C 0.48448 0.0249 0.38201 0.0
C2307 C 0.44366 0.04045 0.37784 0.0
N2308 N 0.50593 0.02365 0.43065 0.0
N2309 N 0.45606 0.04156 0.40015 0.0
H2310 H 0.77127 0.76101 0.08389 0.0
H2311 H 0.78861 0.73052 0.22156 0.0
H2312 H 0.78966 0.69718 0.101 0.0
H2313 H 0.78384 0.79837 0.20346 0.0
H2314 H 0.78651 0.7169 0.17774 0.0
H2315 H 0.7736 0.77383 0.12754 0.0
C2316 C 0.77587 0.74963 0.09679 0.0
C2317 C 0.78025 0.72787 0.08852 0.0
C2318 C 0.78591 0.73476 0.18336 0.0
C2319 C 0.7828 0.74262 0.13908 0.0
C2320 C 0.78712 0.74257 0.20838 0.0
C2321 C 0.78669 0.76573 0.21631 0.0
C2322 C 0.78393 0.75012 0.16597 0.0
C2323 C 0.78426 0.7804 0.19831 0.0
C2324 C 0.77721 0.75704 0.12184 0.0
C2325 C 0.78621 0.71409 0.10639 0.0
N2326 N 0.78302 0.77237 0.1741 0.0
N2327 N 0.78719 0.72163 0.13077 0.0
H2328 H 0.14322 0.05402 0.72552 0.0
H2329 H 0.048 0.06619 0.61647 0.0
H2330 H 0.08385 0.08298 0.7366 0.0
H2331 H 0.11222 0.04792 0.60351 0.0
H2332 H 0.06049 0.07111 0.66057 0.0
H2333 H 0.13151 0.04956 0.68104 0.0
C2334 C 0.12771 0.05938 0.71869 0.0
C2335 C 0.11457 0.06894 0.73505 0.0
C2336 C 0.07187 0.06595 0.64813 0.0
C2337 C 0.10107 0.06389 0.68395 0.0
C2338 C 0.06476 0.06321 0.62286 0.0
C2339 C 0.07889 0.05622 0.60613 0.0
C2340 C 0.0933 0.06161 0.65698 0.0
C2341 C 0.10047 0.05271 0.61567 0.0
C2342 C 0.12108 0.0569 0.69324 0.0
C2343 C 0.09463 0.07558 0.72491 0.0
N2344 N 0.10695 0.05528 0.64041 0.0
N2345 N 0.08854 0.07291 0.70017 0.0
H2346 H 0.78145 0.43062 0.41325 0.0
H2347 H 0.82643 0.32215 0.35314 0.0
H2348 H 0.81449 0.38538 0.45426 0.0
H2349 H 0.77169 0.34881 0.31629 0.0
H2350 H 0.82834 0.35093 0.38864 0.0
H2351 H 0.78399 0.40622 0.37511 0.0
C2352 C 0.78945 0.41581 0.41421 0.0
C2353 C 0.79761 0.40989 0.4369 0.0
C2354 C 0.81591 0.35044 0.37275 0.0
C2355 C 0.80076 0.3824 0.39393 0.0
C2356 C 0.81469 0.33391 0.35264 0.0
C2357 C 0.79865 0.33288 0.332 0.0
C2358 C 0.80107 0.36609 0.37212 0.0
C2359 C 0.7842 0.34893 0.33199 0.0
C2360 C 0.79082 0.40192 0.39258 0.0
C2361 C 0.80783 0.39056 0.43727 0.0
N2362 N 0.78574 0.36493 0.35181 0.0
N2363 N 0.80909 0.37752 0.41614 0.0
H2364 H 0.42024 0.02422 0.21665 0.0
H2365 H 0.44046 0.93391 0.10807 0.0
H2366 H 0.45955 0.97159 0.2283 0.0
H2367 H 0.42848 1.00155 0.09683 0.0
H2368 H 0.44058 0.9439 0.15232 0.0
H2369 H 0.41708 1.01296 0.17234 0.0
C2370 C 0.42826 1.01036 0.2099 0.0
C2371 C 0.44027 0.99889 0.22616 0.0
C2372 C 0.43777 0.95646 0.14009 0.0
C2373 C 0.43634 0.98572 0.17571 0.0
C2374 C 0.43745 0.95068 0.11493 0.0
C2375 C 0.43446 0.96697 0.09897 0.0
C2376 C 0.43477 0.97852 0.14915 0.0
C2377 C 0.43092 0.98859 0.10867 0.0
C2378 C 0.42644 1.00396 0.18466 0.0
C2379 C 0.45031 0.98104 0.21642 0.0
N2380 N 0.43119 0.99377 0.13318 0.0
N2381 N 0.44799 0.97489 0.1918 0.0
H2382 H 0.7959 0.67922 0.93815 0.0
H2383 H 0.78035 0.78589 0.8648 0.0
H2384 H 0.77522 0.74037 0.96945 0.0
H2385 H 0.81348 0.73203 0.83703 0.0
H2386 H 0.7761 0.76781 0.90192 0.0
H2387 H 0.7997 0.69626 0.89987 0.0
C2388 C 0.79196 0.69614 0.93694 0.0
C2389 C 0.7852 0.70835 0.95715 0.0
C2390 C 0.78441 0.75992 0.88783 0.0
C2391 C 0.78962 0.72803 0.91326 0.0
C2392 C 0.78703 0.77037 0.86658 0.0
C2393 C 0.79765 0.76073 0.84773 0.0
C2394 C 0.79223 0.73939 0.89049 0.0
C2395 C 0.80529 0.74017 0.85106 0.0
C2396 C 0.79427 0.70591 0.91508 0.0
C2397 C 0.78048 0.73028 0.95444 0.0
N2398 N 0.8024 0.73017 0.87196 0.0
N2399 N 0.78276 0.73935 0.93301 0.0
H2400 H 0.81197 0.0829 0.05507 0.0
H2401 H 0.93918 0.11947 0.02291 0.0
H2402 H 0.84324 0.15231 0.04532 0.0
H2403 H 0.90464 0.04881 0.02217 0.0
H2404 H 0.90672 0.1325 0.0387 0.0
H2405 H 0.84833 0.07104 0.05093 0.0
C2406 C 0.82658 0.09573 0.05243 0.0
C2407 C 0.82451 0.11857 0.0502 0.0
C2408 C 0.90631 0.11415 0.0353 0.0
C2409 C 0.86609 0.10508 0.0453 0.0
C2410 C 0.92479 0.10669 0.02619 0.0
C2411 C 0.92444 0.083 0.02081 0.0
C2412 C 0.88727 0.09781 0.03903 0.0
C2413 C 0.90563 0.06723 0.02603 0.0
C2414 C 0.84731 0.08893 0.04999 0.0
C2415 C 0.84401 0.13447 0.04689 0.0
N2416 N 0.88768 0.07491 0.03459 0.0
N2417 N 0.86393 0.12737 0.0443 0.0
H2418 H 0.3965 0.41565 0.00583 0.0
H2419 H 0.50356 0.49945 0.07816 0.0
H2420 H 0.39264 0.44155 0.08074 0.0
H2421 H 0.47536 0.516 0.00873 0.0
H2422 H 0.46747 0.47229 0.0795 0.0
H2423 H 0.43037 0.44629 0.00593 0.0
C2424 C 0.4029 0.4277 0.02233 0.0
C2425 C 0.39185 0.4261 0.04333 0.0
C2426 C 0.46919 0.48208 0.06414 0.0
C2427 C 0.43062 0.46069 0.04366 0.0
C2428 C 0.4897 0.49751 0.06332 0.0
C2429 C 0.49235 0.51006 0.04335 0.0
C2430 C 0.45159 0.47857 0.04442 0.0
C2431 C 0.47389 0.50684 0.02456 0.0
C2432 C 0.42204 0.4452 0.02229 0.0
C2433 C 0.40067 0.44227 0.06418 0.0
N2434 N 0.45442 0.49104 0.02529 0.0
N2435 N 0.4198 0.45871 0.06397 0.0
H2436 H 0.43859 0.60361 0.78472 0.0
H2437 H 0.30992 0.62185 0.76139 0.0
H2438 H 0.3823 0.55228 0.74516 0.0
H2439 H 0.36617 0.67746 0.7921 0.0
H2440 H 0.33702 0.59705 0.75326 0.0
H2441 H 0.41353 0.63186 0.78548 0.0
C2442 C 0.42109 0.59837 0.77587 0.0
C2443 C 0.41251 0.57546 0.76501 0.0
C2444 C 0.34356 0.61472 0.76158 0.0
C2445 C 0.3837 0.60761 0.76605 0.0
C2446 C 0.32805 0.62888 0.76628 0.0
C2447 C 0.33579 0.6517 0.77761 0.0
C2448 C 0.36711 0.62324 0.76855 0.0
C2449 C 0.3595 0.65998 0.78329 0.0
C2450 C 0.40678 0.61449 0.77637 0.0
C2451 C 0.38967 0.56965 0.75389 0.0
N2452 N 0.37433 0.64567 0.77898 0.0
N2453 N 0.37607 0.58551 0.7549 0.0
H2454 H 0.19277 0.65008 0.53898 0.0
H2455 H 0.11209 0.52722 0.53948 0.0
H2456 H 0.22099 0.59033 0.55321 0.0
H2457 H 0.09269 0.59235 0.55801 0.0
H2458 H 0.15134 0.54815 0.53749 0.0
H2459 H 0.15449 0.62681 0.53679 0.0
C2460 C 0.19097 0.63202 0.54143 0.0
C2461 C 0.2102 0.62226 0.54667 0.0
C2462 C 0.13837 0.55778 0.54184 0.0
C2463 C 0.1663 0.59558 0.54431 0.0
C2464 C 0.11615 0.54591 0.54307 0.0
C2465 C 0.09919 0.55829 0.54817 0.0
C2466 C 0.14331 0.58205 0.54569 0.0
C2467 C 0.1051 0.58233 0.55305 0.0
C2468 C 0.16908 0.61879 0.54031 0.0
C2469 C 0.20667 0.59865 0.54942 0.0
N2470 N 0.12662 0.59348 0.55146 0.0
N2471 N 0.18509 0.5861 0.54835 0.0
H2472 H 0.67131 0.9804 0.76706 0.0
H2473 H 0.78311 0.93122 0.80015 0.0
H2474 H 0.73965 0.01788 0.76416 0.0
H2475 H 0.71458 0.89304 0.80085 0.0
H2476 H 0.7673 0.9604 0.7801 0.0
H2477 H 0.6864 0.94555 0.7716 0.0
C2478 C 0.68945 0.98117 0.76687 0.0
C2479 C 0.70434 1.00213 0.76576 0.0
C2480 C 0.7557 0.94552 0.78437 0.0
C2481 C 0.72178 0.96248 0.77144 0.0
C2482 C 0.76473 0.92881 0.79579 0.0
C2483 C 0.75012 0.90981 0.80249 0.0
C2484 C 0.73189 0.94332 0.77977 0.0
C2485 C 0.72645 0.9077 0.79655 0.0
C2486 C 0.69807 0.96128 0.76955 0.0
C2487 C 0.72762 1.00211 0.76527 0.0
N2488 N 0.71807 0.92438 0.78575 0.0
N2489 N 0.73571 0.98267 0.76861 0.0
H2490 H 0.74207 0.89039 0.55184 0.0
H2491 H 0.68625 0.99908 0.53176 0.0
H2492 H 0.78285 0.95927 0.55887 0.0
H2493 H 0.64841 0.93491 0.54906 0.0
H2494 H 0.72189 0.98561 0.54189 0.0
H2495 H 0.70756 0.90664 0.55053 0.0
C2496 C 0.74377 0.90897 0.55336 0.0
C2497 C 0.76538 0.92347 0.55544 0.0
C2498 C 0.70577 0.97461 0.54371 0.0
C2499 C 0.72583 0.94226 0.55353 0.0
C2500 C 0.6854 0.98235 0.53806 0.0
C2501 C 0.66417 0.968 0.53916 0.0
C2502 C 0.70493 0.9523 0.55031 0.0
C2503 C 0.66426 0.94638 0.54729 0.0
C2504 C 0.72405 0.91826 0.55264 0.0
C2505 C 0.76653 0.94745 0.55733 0.0
N2506 N 0.68421 0.93911 0.55222 0.0
N2507 N 0.74703 0.95608 0.55601 0.0
H2508 H 0.43247 0.44983 0.81816 0.0
H2509 H 0.34823 0.34227 0.74527 0.0
H2510 H 0.40647 0.45435 0.7434 0.0
H2511 H 0.33172 0.37171 0.81408 0.0
H2512 H 0.37652 0.37792 0.74447 0.0
H2513 H 0.4025 0.41521 0.81771 0.0
C2514 C 0.42059 0.44338 0.80161 0.0
C2515 C 0.42189 0.45486 0.78077 0.0
C2516 C 0.36656 0.37651 0.75962 0.0
C2517 C 0.38812 0.4153 0.78004 0.0
C2518 C 0.35051 0.35626 0.76013 0.0
C2519 C 0.33757 0.35417 0.77972 0.0
C2520 C 0.37023 0.39434 0.77925 0.0
C2521 C 0.34119 0.37279 0.79854 0.0
C2522 C 0.40349 0.42382 0.80144 0.0
C2523 C 0.40596 0.44597 0.75984 0.0
N2524 N 0.35749 0.39197 0.79807 0.0
N2525 N 0.38987 0.42648 0.75986 0.0
H2526 H 0.25195 0.60814 0.26927 0.0
H2527 H 0.24645 0.73657 0.2863 0.0
H2528 H 0.21439 0.63633 0.32321 0.0
H2529 H 0.31335 0.7217 0.28049 0.0
H2530 H 0.23314 0.69754 0.2948 0.0
H2531 H 0.27502 0.64714 0.26952 0.0
C2532 C 0.24898 0.62234 0.28163 0.0
C2533 C 0.23086 0.61915 0.29579 0.0
C2534 C 0.25085 0.70285 0.29207 0.0
C2535 C 0.25678 0.66331 0.29587 0.0
C2536 C 0.25854 0.72522 0.28742 0.0
C2537 C 0.2813 0.7327 0.28382 0.0
C2538 C 0.26573 0.68735 0.29214 0.0
C2539 C 0.29576 0.71666 0.28373 0.0
C2540 C 0.26212 0.64451 0.28172 0.0
C2541 C 0.22778 0.63811 0.31151 0.0
N2542 N 0.28767 0.69449 0.28768 0.0
N2543 N 0.24025 0.65942 0.31074 0.0
H2544 H 0.52704 0.70859 0.45023 0.0
H2545 H 0.53238 0.62064 0.55326 0.0
H2546 H 0.5081 0.72194 0.52243 0.0
H2547 H 0.53704 0.59981 0.47743 0.0
H2548 H 0.52669 0.65862 0.54289 0.0
H2549 H 0.5336 0.67048 0.45996 0.0
C2550 C 0.52429 0.70374 0.46815 0.0
C2551 C 0.51683 0.71914 0.48535 0.0
C2552 C 0.52896 0.64584 0.5284 0.0
C2553 C 0.52471 0.67462 0.49694 0.0
C2554 C 0.53241 0.62398 0.53441 0.0
C2555 C 0.53548 0.60651 0.5164 0.0
C2556 C 0.52857 0.65098 0.50399 0.0
C2557 C 0.53475 0.61233 0.49216 0.0
C2558 C 0.52803 0.68173 0.47373 0.0
C2559 C 0.51369 0.71114 0.50827 0.0
N2560 N 0.53155 0.63377 0.4868 0.0
N2561 N 0.51768 0.68992 0.51328 0.0
H2562 H 0.68156 0.33295 0.63207 0.0
H2563 H 0.72287 0.27826 0.7516 0.0
H2564 H 0.6343 0.30164 0.67797 0.0
H2565 H 0.76789 0.33069 0.72202 0.0
H2566 H 0.69092 0.28383 0.7229 0.0
H2567 H 0.71352 0.32964 0.66235 0.0
C2568 C 0.6778 0.32548 0.64855 0.0
C2569 C 0.6549 0.3177 0.65227 0.0
C2570 C 0.70776 0.29417 0.72268 0.0
C2571 C 0.69197 0.31337 0.68721 0.0
C2572 C 0.72618 0.29109 0.73925 0.0
C2573 C 0.74848 0.30411 0.73971 0.0
C2574 C 0.71137 0.31011 0.70573 0.0
C2575 C 0.75127 0.32005 0.72252 0.0
C2576 C 0.69618 0.3236 0.66591 0.0
C2577 C 0.65147 0.3081 0.67417 0.0
N2578 N 0.73313 0.32244 0.70629 0.0
N2579 N 0.66965 0.30602 0.69052 0.0
H2580 H 0.02904 0.35801 0.94436 0.0
H2581 H 0.02251 0.4582 0.05297 0.0
H2582 H 1.01613 0.34171 0.01624 0.0
H2583 H 0.04803 0.47067 0.98481 0.0
H2584 H 1.01692 0.41622 0.04002 0.0
H2585 H 0.03287 0.3989 0.95876 0.0
C2586 C 0.02692 0.36288 0.96326 0.0
C2587 C 0.02226 0.3458 0.97894 0.0
C2588 C 0.02369 0.42813 0.02787 0.0
C2589 C 0.02663 0.39396 0.99592 0.0
C2590 C 0.02673 0.45228 0.03519 0.0
C2591 C 0.03568 0.46852 0.02003 0.0
C2592 C 0.02943 0.41975 0.00499 0.0
C2593 C 0.04114 0.45925 0.99736 0.0
C2594 C 0.02918 0.38654 0.97154 0.0
C2595 C 0.01976 0.35391 1.00329 0.0
N2596 N 0.03789 0.43586 0.99066 0.0
N2597 N 0.0219 0.37719 0.01094 0.0
H2598 H 0.99462 0.79864 0.1142 0.0
H2599 H 0.93284 0.77399 0.23345 0.0
H2600 H 0.03099 0.79009 0.18321 0.0
H2601 H 0.89713 0.78016 0.16321 0.0
H2602 H 0.96917 0.78194 0.21639 0.0
H2603 H 0.95899 0.79321 0.13247 0.0
C2604 C 0.99513 0.79554 0.13318 0.0
C2605 C 1.0159 0.79475 0.14711 0.0
C2606 C 0.95338 0.78164 0.20474 0.0
C2607 C 0.97497 0.78864 0.16834 0.0
C2608 C 0.93262 0.77729 0.21455 0.0
C2609 C 0.91176 0.77619 0.19975 0.0
C2610 C 0.95339 0.78505 0.17994 0.0
C2611 C 0.91266 0.78042 0.17527 0.0
C2612 C 0.97474 0.7925 0.14366 0.0
C2613 C 1.01541 0.79077 0.1717 0.0
N2614 N 0.933 0.78455 0.16618 0.0
N2615 N 0.99534 0.78788 0.1815 0.0
H2616 H 0.5395 0.34306 0.20888 0.0
H2617 H 0.56596 0.40295 0.08854 0.0
H2618 H 0.54501 0.3048 0.13981 0.0
H2619 H 0.55969 0.44051 0.15777 0.0
H2620 H 0.55714 0.36673 0.10634 0.0
H2621 H 0.54669 0.37889 0.19027 0.0
C2622 C 0.54236 0.3422 0.18984 0.0
C2623 C 0.54169 0.32086 0.17594 0.0
C2624 C 0.55762 0.3829 0.1176 0.0
C2625 C 0.54975 0.3619 0.15432 0.0
C2626 C 0.56246 0.4036 0.10737 0.0
C2627 C 0.56378 0.42492 0.12168 0.0
C2628 C 0.55398 0.38344 0.14235 0.0
C2629 C 0.55929 0.42458 0.1461 0.0
C2630 C 0.54638 0.36267 0.17916 0.0
C2631 C 0.54541 0.32084 0.15127 0.0
N2632 N 0.55472 0.40429 0.15563 0.0
N2633 N 0.54925 0.34098 0.14127 0.0
H2634 H 0.98847 0.29426 0.32283 0.0
H2635 H 0.8707 0.34335 0.30985 0.0
H2636 H 0.98229 0.36148 0.35528 0.0
H2637 H 0.87277 0.2729 0.28508 0.0
H2638 H 0.91227 0.35122 0.32252 0.0
H2639 H 0.94774 0.28705 0.30486 0.0
C2640 C 0.97889 0.30782 0.32556 0.0
C2641 C 0.98936 0.32878 0.34035 0.0
C2642 C 0.90376 0.33398 0.31429 0.0
C2643 C 0.94197 0.32034 0.32017 0.0
C2644 C 0.87987 0.32954 0.30682 0.0
C2645 C 0.86785 0.30737 0.2964 0.0
C2646 C 0.91626 0.31619 0.31131 0.0
C2647 C 0.88101 0.29015 0.29348 0.0
C2648 C 0.95539 0.30356 0.31556 0.0
C2649 C 0.97537 0.34521 0.3438 0.0
N2650 N 0.90423 0.29485 0.30081 0.0
N2651 N 0.95278 0.34069 0.33397 0.0
H2652 H 0.99318 0.68998 0.64512 0.0
H2653 H 0.06898 0.6114 0.5815 0.0
H2654 H 0.06485 0.6953 0.66876 0.0
H2655 H 0.99723 0.58401 0.58089 0.0
H2656 H 0.06645 0.64368 0.61144 0.0
H2657 H 0.99237 0.65224 0.62092 0.0
C2658 C 1.00849 0.68281 0.6461 0.0
C2659 C 0.029 0.69567 0.65964 0.0
C2660 C 0.05121 0.63059 0.60499 0.0
C2661 C 0.02852 0.65309 0.63078 0.0
C2662 C 0.05264 0.61207 0.58771 0.0
C2663 C 0.03336 0.59467 0.57858 0.0
C2664 C 0.03017 0.63242 0.61312 0.0
C2665 C 1.01264 0.59679 0.58754 0.0
C2666 C 1.00811 0.66139 0.63197 0.0
C2667 C 0.04854 0.68586 0.65915 0.0
N2668 N 1.01152 0.61541 0.60403 0.0
N2669 N 0.04789 0.66555 0.64481 0.0
H2670 H 0.6483 0.83372 0.87899 0.0
H2671 H 0.72073 0.80277 0.76864 0.0
H2672 H 0.61651 0.81343 0.80428 0.0
H2673 H 0.74763 0.81 0.84498 0.0
H2674 H 0.6835 0.80825 0.78043 0.0
H2675 H 0.68485 0.82737 0.86641 0.0
C2676 C 0.64884 0.82797 0.85987 0.0
C2677 C 0.62872 0.8242 0.84286 0.0
C2678 C 0.69746 0.80856 0.79469 0.0
C2679 C 0.67167 0.81682 0.82795 0.0
C2680 C 0.71886 0.80512 0.7879 0.0
C2681 C 0.73772 0.80522 0.80564 0.0
C2682 C 0.69449 0.81272 0.81965 0.0
C2683 C 0.73394 0.80955 0.83038 0.0
C2684 C 0.66996 0.82427 0.85265 0.0
C2685 C 0.63119 0.81665 0.8183 0.0
N2686 N 0.71313 0.81311 0.8365 0.0
N2687 N 0.65198 0.81335 0.8117 0.0
H2688 H 0.45206 0.53542 0.69705 0.0
H2689 H 0.55484 0.53109 0.6165 0.0
H2690 H 0.51538 0.51467 0.72004 0.0
H2691 H 0.49002 0.54364 0.58501 0.0
H2692 H 0.53991 0.52671 0.65494 0.0
H2693 H 0.46477 0.54014 0.65659 0.0
C2694 C 0.46857 0.53187 0.6937 0.0
C2695 C 0.4826 0.5246 0.7122 0.0
C2696 C 0.52879 0.5304 0.63974 0.0
C2697 C 0.49721 0.53002 0.66597 0.0
C2698 C 0.53738 0.53299 0.61761 0.0
C2699 C 0.52376 0.53789 0.5973 0.0
C2700 C 0.50626 0.53274 0.64205 0.0
C2701 C 0.50117 0.53989 0.60014 0.0
C2702 C 0.47577 0.53453 0.67057 0.0
C2703 C 0.5038 0.52026 0.70662 0.0
N2704 N 0.49313 0.53739 0.62213 0.0
N2705 N 0.51035 0.52306 0.68424 0.0
H2706 H 0.75713 0.12834 0.95709 0.0
H2707 H 0.69431 0.22583 0.90957 0.0
H2708 H 0.7309 0.17797 1.00284 0.0
H2709 H 0.73211 0.1875 0.86419 0.0
H2710 H 0.70014 0.20155 0.94149 0.0
H2711 H 0.74143 0.14371 0.9207 0.0
C2712 C 0.74787 0.14221 0.95947 0.0
C2713 C 0.74554 0.15205 0.98302 0.0
C2714 C 0.707 0.19829 0.92444 0.0
C2715 C 0.7275 0.16945 0.94183 0.0
C2716 C 0.70349 0.21205 0.90609 0.0
C2717 C 0.713 0.20896 0.88423 0.0
C2718 C 0.72024 0.18136 0.92106 0.0
C2719 C 0.72493 0.19087 0.88095 0.0
C2720 C 0.73895 0.15096 0.93877 0.0
C2721 C 0.73332 0.16993 0.98512 0.0
N2722 N 0.72845 0.17791 0.89929 0.0
N2723 N 0.72489 0.17808 0.96486 0.0
H2724 H 0.17326 0.58898 0.20477 0.0
H2725 H 0.09723 0.5091 0.08932 0.0
H2726 H 0.1617 0.51479 0.2001 0.0
H2727 H 0.08486 0.57473 0.11999 0.0
H2728 H 0.12872 0.51229 0.12257 0.0
H2729 H 0.15053 0.58534 0.16465 0.0
C2730 C 0.16661 0.57191 0.19478 0.0
C2731 C 0.16914 0.55214 0.20563 0.0
C2732 C 0.11914 0.52598 0.12186 0.0
C2733 C 0.14269 0.54788 0.1603 0.0
C2734 C 0.10123 0.52423 0.103 0.0
C2735 C 0.08854 0.54175 0.10202 0.0
C2736 C 0.12458 0.5456 0.13945 0.0
C2737 C 0.09417 0.56081 0.12026 0.0
C2738 C 0.15344 0.56986 0.17211 0.0
C2739 C 0.16015 0.5304 0.19216 0.0
N2740 N 0.11193 0.56232 0.13817 0.0
N2741 N 0.14687 0.52879 0.1702 0.0
H2742 H 0.82712 0.84157 0.49064 0.0
H2743 H 0.79576 0.85362 0.34883 0.0
H2744 H 0.81201 0.90344 0.4642 0.0
H2745 H 0.82185 0.79557 0.37243 0.0
H2746 H 0.80169 0.87171 0.39124 0.0
H2747 H 0.82561 0.82417 0.44802 0.0
C2748 C 0.82363 0.85155 0.4759 0.0
C2749 C 0.81959 0.87399 0.48104 0.0
C2750 C 0.80626 0.85508 0.38723 0.0
C2751 C 0.81766 0.8541 0.43221 0.0
C2752 C 0.80279 0.84464 0.36294 0.0
C2753 C 0.80824 0.82294 0.35695 0.0
C2754 C 0.81506 0.84373 0.40598 0.0
C2755 C 0.81753 0.81236 0.37613 0.0
C2756 C 0.82278 0.8416 0.45158 0.0
C2757 C 0.81519 0.8861 0.46118 0.0
N2758 N 0.82048 0.82276 0.3998 0.0
N2759 N 0.8142 0.87597 0.43774 0.0
H2760 H 0.43894 0.5304 0.85753 0.0
H2761 H 0.55 0.51946 0.94754 0.0
H2762 H 0.50243 0.52193 0.83174 0.0
H2763 H 0.48926 0.53754 0.97221 0.0
H2764 H 0.53173 0.51579 0.90488 0.0
H2765 H 0.45602 0.52895 0.89943 0.0
C2766 C 0.45645 0.52812 0.86065 0.0
C2767 C 0.46927 0.5264 0.84104 0.0
C2768 C 0.52238 0.52044 0.91966 0.0
C2769 C 0.48905 0.52468 0.88918 0.0
C2770 C 0.53276 0.52239 0.94402 0.0
C2771 C 0.52126 0.52907 0.96351 0.0
C2772 C 0.50026 0.525 0.91477 0.0
C2773 C 0.49891 0.53263 0.95781 0.0
C2774 C 0.46623 0.52732 0.88463 0.0
C2775 C 0.49191 0.52344 0.84628 0.0
N2776 N 0.48924 0.53068 0.93407 0.0
N2777 N 0.50108 0.52272 0.8698 0.0
H2778 H 0.79863 0.17064 0.11673 0.0
H2779 H 0.7526 0.25805 0.20522 0.0
H2780 H 0.72702 0.17166 0.11659 0.0
H2781 H 0.81814 0.24048 0.22449 0.0
H2782 H 0.74315 0.22522 0.17289 0.0
H2783 H 0.80668 0.19381 0.15746 0.0
C2784 C 0.78458 0.17513 0.12562 0.0
C2785 C 0.76223 0.16975 0.11325 0.0
C2786 C 0.75951 0.22831 0.18436 0.0
C2787 C 0.77121 0.19629 0.1591 0.0
C2788 C 0.76493 0.24715 0.2026 0.0
C2789 C 0.7861 0.25182 0.21735 0.0
C2790 C 0.77565 0.21443 0.18043 0.0
C2791 C 0.80153 0.2372 0.21351 0.0
C2792 C 0.78915 0.18843 0.14872 0.0
C2793 C 0.74457 0.17596 0.12539 0.0
N2794 N 0.79613 0.21925 0.1951 0.0
N2795 N 0.74948 0.18924 0.14745 0.0
H2796 H 0.20803 0.56178 0.36091 0.0
H2797 H 0.11209 0.62925 0.40099 0.0
H2798 H 0.14654 0.56544 0.31439 0.0
H2799 H 0.15694 0.60482 0.45405 0.0
H2800 H 0.13105 0.61338 0.36831 0.0
H2801 H 0.19454 0.58327 0.39506 0.0
C2802 C 0.19171 0.56698 0.35793 0.0
C2803 C 0.1784 0.5619 0.33482 0.0
C2804 C 0.13691 0.6117 0.38714 0.0
C2805 C 0.16333 0.58673 0.37323 0.0
C2806 C 0.12627 0.62099 0.40579 0.0
C2807 C 0.13284 0.61811 0.43016 0.0
C2808 C 0.15423 0.5995 0.39292 0.0
C2809 C 0.15118 0.60704 0.43537 0.0
C2810 C 0.18413 0.57931 0.37729 0.0
C2811 C 0.15745 0.5691 0.33183 0.0
N2812 N 0.16117 0.59792 0.41683 0.0
N2813 N 0.15065 0.58124 0.35075 0.0
H2814 H 0.81167 0.89247 0.6253 0.0
H2815 H 0.81125 0.78629 0.70377 0.0
H2816 H 0.83103 0.8281 0.60174 0.0
H2817 H 0.80134 0.8524 0.73619 0.0
H2818 H 0.81632 0.80188 0.66562 0.0
H2819 H 0.80579 0.87884 0.66522 0.0
C2820 C 0.81469 0.87555 0.62842 0.0
C2821 C 0.82193 0.8615 0.60995 0.0
C2822 C 0.81306 0.81312 0.68098 0.0
C2823 C 0.81514 0.84581 0.6555 0.0
C2824 C 0.81007 0.80415 0.70292 0.0
C2825 C 0.80576 0.81797 0.72341 0.0
C2826 C 0.81174 0.83623 0.67908 0.0
C2827 C 0.80463 0.84108 0.72092 0.0
C2828 C 0.81136 0.86781 0.65123 0.0
C2829 C 0.82554 0.83973 0.61519 0.0
N2830 N 0.80754 0.84949 0.69914 0.0
N2831 N 0.82208 0.83266 0.63725 0.0
H2832 H 0.72658 0.43769 0.51382 0.0
H2833 H 0.69419 0.54998 0.58187 0.0
H2834 H 0.77321 0.50381 0.52941 0.0
H2835 H 0.6559 0.48082 0.58152 0.0
H2836 H 0.72193 0.53414 0.55953 0.0
H2837 H 0.69854 0.45422 0.53469 0.0
C2838 C 0.73084 0.45576 0.52144 0.0
C2839 C 0.75228 0.4694 0.52002 0.0
C2840 C 0.70754 0.52243 0.56447 0.0
C2841 C 0.72037 0.48832 0.54405 0.0
C2842 C 0.69175 0.53144 0.57718 0.0
C2843 C 0.67286 0.51663 0.58355 0.0
C2844 C 0.70423 0.49847 0.5579 0.0
C2845 C 0.67042 0.49277 0.57717 0.0
C2846 C 0.71488 0.46513 0.53349 0.0
C2847 C 0.7569 0.49268 0.5302 0.0
N2848 N 0.68589 0.48441 0.56455 0.0
N2849 N 0.74106 0.50142 0.54187 0.0
H2850 H 0.22944 0.13988 0.52739 0.0
H2851 H 0.09428 0.09432 0.49385 0.0
H2852 H 0.18435 0.17829 0.49139 0.0
H2853 H 0.13502 0.0663 0.54769 0.0
H2854 H 0.12819 0.12191 0.48834 0.0
H2855 H 0.19627 0.10976 0.53044 0.0
C2856 C 0.21262 0.14193 0.5199 0.0
C2857 C 0.20978 0.16179 0.50913 0.0
C2858 C 0.12978 0.10974 0.50135 0.0
C2859 C 0.17165 0.12719 0.51259 0.0
C2860 C 0.11034 0.09395 0.50462 0.0
C2861 C 0.11161 0.07811 0.52162 0.0
C2862 C 0.1509 0.10969 0.51493 0.0
C2863 C 0.13317 0.07819 0.53443 0.0
C2864 C 0.19367 0.12473 0.52179 0.0
C2865 C 0.18747 0.16341 0.49991 0.0
N2866 N 0.15196 0.09377 0.53088 0.0
N2867 N 0.16934 0.14638 0.50183 0.0
H2868 H 0.20929 0.02942 0.78695 0.0
H2869 H 0.18667 0.89157 0.76596 0.0
H2870 H 0.14444 0.98616 0.79319 0.0
H2871 H 0.25383 0.93487 0.7728 0.0
H2872 H 0.17073 0.92589 0.77547 0.0
H2873 H 0.22561 0.99498 0.78062 0.0
C2874 C 0.19843 1.01265 0.78687 0.0
C2875 C 0.17541 1.01066 0.79051 0.0
C2876 C 0.18897 0.92791 0.77507 0.0
C2877 C 0.19409 0.9711 0.78338 0.0
C2878 C 0.19807 0.90834 0.7696 0.0
C2879 C 0.22159 0.91042 0.76844 0.0
C2880 C 0.20344 0.94981 0.77918 0.0
C2881 C 0.23563 0.9325 0.77362 0.0
C2882 C 0.20782 0.99299 0.78339 0.0
C2883 C 0.16223 0.98849 0.79038 0.0
N2884 N 0.22631 0.95137 0.77853 0.0
N2885 N 0.17174 0.96956 0.7868 0.0
H2886 H 0.36786 0.98449 0.99791 0.0
H2887 H 0.49628 1.00193 0.96775 0.0
H2888 H 0.39637 0.92959 0.96376 0.0
H2889 H 0.46816 0.05398 0.00722 0.0
H2890 H 0.4579 0.97728 0.95852 0.0
H2891 H 0.40241 1.01193 0.99419 0.0
C2892 C 0.38129 0.97818 0.98939 0.0
C2893 C 0.37928 0.95457 0.98146 0.0
C2894 C 0.46003 0.99428 0.96874 0.0
C2895 C 0.41909 0.98612 0.97714 0.0
C2896 C 0.48187 1.00832 0.97392 0.0
C2897 C 0.48513 0.02974 0.98842 0.0
C2898 C 0.44155 1.0019 0.97822 0.0
C2899 C 0.46613 0.03744 0.99604 0.0
C2900 C 0.40106 0.99393 0.98724 0.0
C2901 C 0.39722 0.94758 0.97032 0.0
N2902 N 0.44514 0.0234 0.9911 0.0
N2903 N 0.41648 0.96326 0.96871 0.0
H2904 H 0.91555 0.61135 0.78905 0.0
H2905 H 0.79992 0.64762 0.73689 0.0
H2906 H 0.84938 0.56563 0.77984 0.0
H2907 H 0.86718 0.68741 0.73352 0.0
H2908 H 0.81748 0.61821 0.75477 0.0
H2909 H 0.89781 0.64047 0.77105 0.0
C2910 C 0.89727 0.60746 0.78327 0.0
C2911 C 0.88389 0.58605 0.78588 0.0
C2912 C 0.82839 0.63332 0.75001 0.0
C2913 C 0.86352 0.61925 0.76527 0.0
C2914 C 0.81839 0.65011 0.7399 0.0
C2915 C 0.83216 0.6699 0.73372 0.0
C2916 C 0.85231 0.63647 0.75414 0.0
C2917 C 0.85598 0.67226 0.73778 0.0
C2918 C 0.88717 0.62406 0.77293 0.0
C2919 C 0.86031 0.58192 0.7781 0.0
N2920 N 0.86532 0.65577 0.74786 0.0
N2921 N 0.85084 0.59841 0.76816 0.0
H2922 H 0.82145 0.63139 0.04489 0.0
H2923 H 0.95795 0.65131 0.05283 0.0
H2924 H 0.86396 0.69444 0.03095 0.0
H2925 H 0.91584 0.58808 0.06685 0.0
H2926 H 0.92356 0.66666 0.04307 0.0
H2927 H 0.85555 0.61487 0.05204 0.0
C2928 C 0.83797 0.64183 0.04346 0.0
C2929 C 0.83982 0.66441 0.0374 0.0
C2930 C 0.92177 0.64938 0.04815 0.0
C2931 C 0.87903 0.64546 0.04539 0.0
C2932 C 0.94143 0.64059 0.05376 0.0
C2933 C 0.93983 0.61842 0.06091 0.0
C2934 C 0.90021 0.63599 0.04976 0.0
C2935 C 0.91791 0.6052 0.06133 0.0
C2936 C 0.85745 0.63233 0.04745 0.0
C2937 C 0.8617 0.67703 0.03568 0.0
N2938 N 0.89899 0.61425 0.05605 0.0
N2939 N 0.88041 0.66739 0.03964 0.0
H2940 H 0.20612 0.11798 0.79688 0.0
H2941 H 0.25297 0.25409 0.82984 0.0
H2942 H 0.16837 0.16441 0.83158 0.0
H2943 H 0.28046 0.21224 0.77668 0.0
H2944 H 0.22512 0.22024 0.83524 0.0
H2945 H 0.23643 0.15104 0.79396 0.0
C2946 C 0.20424 0.13508 0.8041 0.0
C2947 C 0.18454 0.13834 0.81449 0.0
C2948 C 0.23723 0.2184 0.8224 0.0
C2949 C 0.21936 0.17632 0.81119 0.0
C2950 C 0.25318 0.23779 0.8192 0.0
C2951 C 0.26894 0.23619 0.80241 0.0
C2952 C 0.23704 0.19698 0.80896 0.0
C2953 C 0.26865 0.21433 0.78978 0.0
C2954 C 0.22155 0.15396 0.80229 0.0
C2955 C 0.18314 0.16099 0.82337 0.0
N2956 N 0.25289 0.19558 0.79325 0.0
N2957 N 0.20029 0.17905 0.82154 0.0
H2958 H 0.37061 0.96224 0.28446 0.0
H2959 H 0.33581 0.84635 0.34303 0.0
H2960 H 0.41887 0.93853 0.33451 0.0
H2961 H 0.30402 0.858 0.27304 0.0
H2962 H 0.36416 0.88242 0.3444 0.0
H2963 H 0.34319 0.92647 0.28463 0.0
C2964 C 0.37539 0.9496 0.29567 0.0
C2965 C 0.39709 0.95335 0.30947 0.0
C2966 C 0.35104 0.87697 0.32871 0.0
C2967 C 0.36573 0.91237 0.30968 0.0
C2968 C 0.33495 0.85657 0.32798 0.0
C2969 C 0.318 0.84939 0.30774 0.0
C2970 C 0.34957 0.89035 0.30937 0.0
C2971 C 0.31717 0.86302 0.28874 0.0
C2972 C 0.35977 0.92912 0.2956 0.0
C2973 C 0.40236 0.93626 0.32352 0.0
N2974 N 0.33273 0.88298 0.29004 0.0
N2975 N 0.38671 0.91646 0.32334 0.0
H2976 H 0.59239 0.39378 0.63266 0.0
H2977 H 0.55392 0.46175 0.52008 0.0
H2978 H 0.57721 0.3607 0.55804 0.0
H2979 H 0.5831 0.49649 0.59195 0.0
H2980 H 0.56014 0.42491 0.53345 0.0
H2981 H 0.58738 0.4305 0.61836 0.0
C2982 C 0.5881 0.39407 0.61318 0.0
C2983 C 0.58546 0.37348 0.59677 0.0
C2984 C 0.56526 0.44053 0.54638 0.0
C2985 C 0.5791 0.41669 0.57985 0.0
C2986 C 0.56154 0.46183 0.53874 0.0
C2987 C 0.56774 0.48291 0.55472 0.0
C2988 C 0.57522 0.4396 0.57054 0.0
C2989 C 0.57799 0.48116 0.57862 0.0
C2990 C 0.58519 0.41533 0.60497 0.0
C2991 C 0.57971 0.37572 0.57168 0.0
N2992 N 0.58119 0.46025 0.58566 0.0
N2993 N 0.57663 0.39655 0.56418 0.0
H2994 H 0.46401 0.78831 0.39271 0.0
H2995 H 0.32697 0.7646 0.36073 0.0
H2996 H 0.41949 0.77195 0.44713 0.0
H2997 H 0.37228 0.80838 0.32186 0.0
H2998 H 0.36014 0.76183 0.38974 0.0
H2999 H 0.43046 0.78986 0.36361 0.0
C3000 C 0.44721 0.78477 0.39854 0.0
C3001 C 0.44483 0.77996 0.42263 0.0
C3002 C 0.36279 0.77201 0.37482 0.0
C3003 C 0.40591 0.78158 0.38897 0.0
C3004 C 0.34375 0.77374 0.35821 0.0
C3005 C 0.34643 0.78687 0.33855 0.0
C3006 C 0.38499 0.78304 0.37167 0.0
C3007 C 0.36901 0.79781 0.33634 0.0
C3008 C 0.428 0.78581 0.38189 0.0
C3009 C 0.42238 0.77577 0.4289 0.0
N3010 N 0.38721 0.79553 0.35243 0.0
N3011 N 0.40395 0.77654 0.41227 0.0
H3012 H 0.05759 0.72901 0.11844 0.0
H3013 H 0.07193 0.61772 0.02735 0.0
H3014 H 0.09074 0.7342 0.05344 0.0
H3015 H 0.05145 0.61216 0.09899 0.0
H3016 H 0.07701 0.65991 0.03572 0.0
H3017 H 0.05258 0.68656 0.11065 0.0
C3018 C 0.06372 0.72139 0.10245 0.0
C3019 C 0.07465 0.73578 0.08666 0.0
C3020 C 0.07128 0.64953 0.04965 0.0
C3021 C 0.06887 0.68635 0.07749 0.0
C3022 C 0.06849 0.62521 0.0449 0.0
C3023 C 0.06088 0.61075 0.06226 0.0
C3024 C 0.06633 0.66007 0.07198 0.0
C3025 C 0.05663 0.62211 0.08459 0.0
C3026 C 0.06093 0.69697 0.09805 0.0
C3027 C 0.08223 0.72429 0.06632 0.0
N3028 N 0.05925 0.64576 0.08868 0.0
N3029 N 0.07917 0.70064 0.06238 0.0
H3030 H 0.0551 0.25407 0.89013 0.0
H3031 H 0.18032 0.31671 0.86846 0.0
H3032 H 0.09929 0.30426 0.94538 0.0
H3033 H 0.13652 0.26128 0.81865 0.0
H3034 H 0.15271 0.3114 0.89821 0.0
H3035 H 0.08609 0.25554 0.86508 0.0
C3036 C 0.07142 0.26531 0.89712 0.0
C3037 C 0.07449 0.27911 0.91992 0.0
C3038 C 0.14928 0.30028 0.88085 0.0
C3039 C 0.11037 0.28114 0.89092 0.0
C3040 C 0.16511 0.30321 0.86391 0.0
C3041 C 0.16065 0.28962 0.84083 0.0
C3042 C 0.12886 0.28361 0.87469 0.0
C3043 C 0.14054 0.27249 0.83596 0.0
C3044 C 0.0892 0.26615 0.88274 0.0
C3045 C 0.09615 0.29327 0.92795 0.0
N3046 N 0.12544 0.27013 0.85256 0.0
N3047 N 0.11319 0.29411 0.91337 0.0
H3048 H 0.56617 0.78485 0.94427 0.0
H3049 H 0.55771 0.64912 0.90984 0.0
H3050 H 0.56224 0.75362 0.86944 0.0
H3051 H 0.54486 0.68124 0.97929 0.0
H3052 H 0.5652 0.68713 0.89571 0.0
H3053 H 0.56512 0.74734 0.95807 0.0
C3054 C 0.56526 0.77008 0.93064 0.0
C3055 C 0.56395 0.77248 0.90552 0.0
C3056 C 0.56086 0.68583 0.91407 0.0
C3057 C 0.56264 0.72894 0.92149 0.0
C3058 C 0.55644 0.66408 0.9222 0.0
C3059 C 0.5503 0.66169 0.94583 0.0
C3060 C 0.55944 0.70553 0.92971 0.0
C3061 C 0.54967 0.68198 0.96106 0.0
C3062 C 0.56461 0.74857 0.93863 0.0
C3063 C 0.56322 0.75264 0.88895 0.0
N3064 N 0.55406 0.7029 0.95272 0.0
N3065 N 0.56235 0.73163 0.89721 0.0
H3066 H 0.11456 0.80896 0.73426 0.0
H3067 H 0.22284 0.74535 0.74995 0.0
H3068 H 0.10778 0.73562 0.71682 0.0
H3069 H 0.22784 0.81836 0.76882 0.0
H3070 H 0.18105 0.74084 0.73958 0.0
H3071 H 0.15534 0.81217 0.7491 0.0
C3072 C 0.12135 0.79334 0.73447 0.0
C3073 C 0.107 0.77182 0.72521 0.0
C3074 C 0.19127 0.75791 0.74589 0.0
C3075 C 0.15494 0.77553 0.74112 0.0
C3076 C 0.21532 0.76051 0.75193 0.0
C3077 C 0.22949 0.78243 0.75992 0.0
C3078 C 0.18079 0.77731 0.74792 0.0
C3079 C 0.21816 0.80123 0.76193 0.0
C3080 C 0.14492 0.79523 0.74259 0.0
C3081 C 0.11762 0.75247 0.7247 0.0
N3082 N 0.19488 0.79828 0.75602 0.0
N3083 N 0.14063 0.75477 0.73237 0.0
H3084 H 0.05106 0.37372 0.42808 0.0
H3085 H 0.07465 0.51261 0.45517 0.0
H3086 H 0.07741 0.41581 0.37471 0.0
H3087 H 0.04181 0.46516 0.50049 0.0
H3088 H 0.07764 0.47919 0.42589 0.0
H3089 H 0.0492 0.40821 0.4546 0.0
C3090 C 0.05639 0.39025 0.42173 0.0
C3091 C 0.06433 0.39152 0.39881 0.0
C3092 C 0.06988 0.47621 0.44234 0.0
C3093 C 0.06243 0.43211 0.43001 0.0
C3094 C 0.06822 0.49533 0.45918 0.0
C3095 C 0.05806 0.49207 0.48074 0.0
C3096 C 0.06143 0.45353 0.44702 0.0
C3097 C 0.05003 0.46903 0.48456 0.0
C3098 C 0.05535 0.41016 0.4371 0.0
C3099 C 0.07104 0.41381 0.39207 0.0
N3100 N 0.0519 0.45098 0.46807 0.0
N3101 N 0.07002 0.43319 0.40759 0.0
H3102 H 0.4615 0.28964 0.20311 0.0
H3103 H 0.35047 0.24036 0.26346 0.0
H3104 H 0.46476 0.2363 0.24944 0.0
H3105 H 0.37172 0.31333 0.26149 0.0
H3106 H 0.3878 0.23465 0.25175 0.0
H3107 H 0.4252 0.29479 0.21727 0.0
C3108 C 0.45463 0.27885 0.21621 0.0
C3109 C 0.46675 0.2625 0.22497 0.0
C3110 C 0.38437 0.25194 0.25396 0.0
C3111 C 0.42384 0.26802 0.24105 0.0
C3112 C 0.36287 0.25524 0.26056 0.0
C3113 C 0.35755 0.27747 0.26378 0.0
C3114 C 0.40085 0.27084 0.24956 0.0
C3115 C 0.37477 0.2959 0.25964 0.0
C3116 C 0.43375 0.28191 0.22439 0.0
C3117 C 0.45646 0.24923 0.2421 0.0
N3118 N 0.39518 0.29216 0.25251 0.0
N3119 N 0.43567 0.25203 0.24921 0.0
H3120 H 0.66319 0.54944 0.38512 0.0
H3121 H 0.55602 0.56373 0.45605 0.0
H3122 H 0.60121 0.5659 0.3511 0.0
H3123 H 0.61023 0.53225 0.4858 0.0
H3124 H 0.57402 0.56741 0.41888 0.0
H3125 H 0.64604 0.54614 0.42326 0.0
C3126 C 0.64604 0.55252 0.38568 0.0
C3127 C 0.63366 0.55797 0.36475 0.0
C3128 C 0.58201 0.5596 0.43343 0.0
C3129 C 0.61388 0.5542 0.40854 0.0
C3130 C 0.57163 0.55734 0.45472 0.0
C3131 C 0.58136 0.5473 0.47411 0.0
C3132 C 0.60258 0.55204 0.43132 0.0
C3133 C 0.60201 0.53998 0.47135 0.0
C3134 C 0.63622 0.55052 0.40747 0.0
C3135 C 0.61144 0.56165 0.36666 0.0
N3136 N 0.61192 0.54252 0.45042 0.0
N3137 N 0.60234 0.55975 0.38807 0.0
H3138 H 0.33606 0.93398 0.08907 0.0
H3139 H 0.35941 0.89469 0.20242 0.0
H3140 H 0.3596 0.87359 0.05994 0.0
H3141 H 0.39518 0.84909 0.16329 0.0
H3142 H 0.35041 0.91075 0.16471 0.0
H3143 H 0.3492 0.92702 0.13047 0.0
C3144 C 0.34387 0.91921 0.09137 0.0
C3145 C 0.34638 0.90419 0.07093 0.0
C3146 C 0.36068 0.89766 0.16434 0.0
C3147 C 0.36116 0.89579 0.11833 0.0
C3148 C 0.36563 0.88828 0.18592 0.0
C3149 C 0.37789 0.87035 0.18598 0.0
C3150 C 0.36809 0.88904 0.14263 0.0
C3151 C 0.38582 0.86296 0.16419 0.0
C3152 C 0.35128 0.91513 0.1151 0.0
C3153 C 0.35695 0.88553 0.07504 0.0
N3154 N 0.38056 0.87216 0.1434 0.0
N3155 N 0.36383 0.88187 0.09817 0.0
H3156 H 0.91853 0.55683 0.89502 0.0
H3157 H 0.0256 0.51449 0.95987 0.0
H3158 H 0.97186 0.53548 0.8573 0.0
H3159 H 0.99249 0.56282 0.99897 0.0
H3160 H 1.00041 0.51566 0.92262 0.0
H3161 H 0.94063 0.55352 0.93432 0.0
C3162 C 0.93477 0.55143 0.895 0.0
C3163 C 0.94334 0.54634 0.87292 0.0
C3164 C 0.99868 0.52602 0.93938 0.0
C3165 C 0.9682 0.5422 0.91723 0.0
C3166 C 1.01313 0.52545 0.9606 0.0
C3167 C 1.01148 0.53896 0.98241 0.0
C3168 C 0.98231 0.54 0.94 0.0
C3169 C 0.99447 0.55227 0.98247 0.0
C3170 C 0.9473 0.54955 0.91731 0.0
C3171 C 0.96446 0.53944 0.87381 0.0
N3172 N 0.98052 0.55254 0.96149 0.0
N3173 N 0.97608 0.53747 0.89556 0.0
H3174 H 0.26544 0.26344 0.58626 0.0
H3175 H 0.2988 0.23311 0.72185 0.0
H3176 H 0.29221 0.20272 0.5994 0.0
H3177 H 0.27976 0.29703 0.70638 0.0
H3178 H 0.2947 0.22043 0.67758 0.0
H3179 H 0.26912 0.27476 0.6303 0.0
C3180 C 0.27217 0.25242 0.59836 0.0
C3181 C 0.27851 0.23199 0.58883 0.0
C3182 C 0.29136 0.2372 0.68388 0.0
C3183 C 0.28268 0.24503 0.63994 0.0
C3184 C 0.29371 0.24447 0.70917 0.0
C3185 C 0.28989 0.26632 0.71796 0.0
C3186 C 0.2849 0.25176 0.66712 0.0
C3187 C 0.28292 0.28007 0.7006 0.0
C3188 C 0.27426 0.25897 0.62365 0.0
C3189 C 0.28715 0.21862 0.60574 0.0
N3190 N 0.28075 0.27262 0.67614 0.0
N3191 N 0.28891 0.22533 0.63042 0.0
H3192 H 0.64702 0.55062 0.22228 0.0
H3193 H 0.54932 0.56351 0.11588 0.0
H3194 H 0.58567 0.57521 0.23537 0.0
H3195 H 0.61293 0.54508 0.10072 0.0
H3196 H 0.56263 0.56761 0.15977 0.0
H3197 H 0.63486 0.54738 0.17792 0.0
C3198 C 0.63101 0.55529 0.21593 0.0
C3199 C 0.61743 0.56322 0.23283 0.0
C3200 C 0.57371 0.56259 0.1469 0.0
C3201 C 0.60342 0.55962 0.1819 0.0
C3202 C 0.56613 0.56034 0.12175 0.0
C3203 C 0.57981 0.55349 0.10447 0.0
C3204 C 0.59523 0.55799 0.15506 0.0
C3205 C 0.60151 0.54976 0.11334 0.0
C3206 C 0.62411 0.5535 0.19055 0.0
C3207 C 0.59684 0.56904 0.22329 0.0
N3208 N 0.60848 0.55191 0.13795 0.0
N3209 N 0.59053 0.56711 0.19864 0.0
H3210 H 0.28202 0.8691 0.96359 0.0
H3211 H 0.30797 0.86103 0.82669 0.0
H3212 H 0.30177 0.92992 0.92866 0.0
H3213 H 0.27081 0.80395 0.85758 0.0
H3214 H 0.30398 0.88714 0.86241 0.0
H3215 H 0.27559 0.84547 0.92381 0.0
C3216 C 0.28474 0.87747 0.94739 0.0
C3217 C 0.29261 0.90138 0.94928 0.0
C3218 C 0.29647 0.86894 0.86119 0.0
C3219 C 0.28572 0.87444 0.90371 0.0
C3220 C 0.2989 0.85398 0.84088 0.0
C3221 C 0.29019 0.83018 0.83935 0.0
C3222 C 0.28547 0.85994 0.8802 0.0
C3223 C 0.27812 0.82211 0.85807 0.0
C3224 C 0.28102 0.864 0.92467 0.0
C3225 C 0.2957 0.91148 0.92782 0.0
N3226 N 0.27639 0.83692 0.87785 0.0
N3227 N 0.29264 0.89786 0.90584 0.0
H3228 H 0.9043 0.51154 0.73166 0.0
H3229 H 0.99595 0.49888 0.6392 0.0
H3230 H 0.97733 0.53362 0.75107 0.0
H3231 H 0.92545 0.4633 0.62374 0.0
H3232 H 0.98796 0.51768 0.67775 0.0
H3233 H 0.9103 0.50012 0.68926 0.0
C3234 C 0.92153 0.51441 0.72687 0.0
C3235 C 0.94039 0.52322 0.74486 0.0
C3236 C 0.97418 0.50583 0.66593 0.0
C3237 C 0.94734 0.51016 0.69681 0.0
C3238 C 0.97873 0.4952 0.64391 0.0
C3239 C 0.96133 0.47959 0.62835 0.0
C3240 C 0.95205 0.50072 0.67253 0.0
C3241 C 0.93938 0.47505 0.63543 0.0
C3242 C 0.92495 0.50773 0.70279 0.0
C3243 C 0.96236 0.52655 0.7378 0.0
N3244 N 0.93535 0.48556 0.6571 0.0
N3245 N 0.96524 0.51987 0.71436 0.0
H3246 H 0.28971 0.25231 0.47266 0.0
H3247 H 0.27161 0.22891 0.32642 0.0
H3248 H 0.27409 0.18351 0.4332 0.0
H3249 H 0.31629 0.29038 0.36548 0.0
H3250 H 0.26784 0.21337 0.36535 0.0
H3251 H 0.29459 0.26803 0.43378 0.0
C3252 C 0.28707 0.2405 0.45581 0.0
C3253 C 0.28141 0.2165 0.45627 0.0
C3254 C 0.27854 0.23022 0.36543 0.0
C3255 C 0.2869 0.23448 0.4116 0.0
C3256 C 0.28069 0.23916 0.34319 0.0
C3257 C 0.2943 0.26103 0.34257 0.0
C3258 C 0.28964 0.24339 0.38752 0.0
C3259 C 0.3057 0.27342 0.365 0.0
C3260 C 0.29005 0.24951 0.43365 0.0
C3261 C 0.27843 0.20209 0.4338 0.0
N3262 N 0.30291 0.26456 0.38655 0.0
N3263 N 0.28105 0.21128 0.41245 0.0
H3264 H 0.30634 0.56984 0.57114 0.0
H3265 H 0.43242 0.57531 0.5375 0.0
H3266 H 0.35852 0.63203 0.58089 0.0
H3267 H 0.37737 0.51582 0.51761 0.0
H3268 H 0.40845 0.59344 0.56316 0.0
H3269 H 0.33512 0.54724 0.562 0.0
C3270 C 0.32395 0.57869 0.57196 0.0
C3271 C 0.32999 0.60287 0.57619 0.0
C3272 C 0.40172 0.57628 0.55345 0.0
C3273 C 0.36283 0.57721 0.56546 0.0
C3274 C 0.41542 0.56589 0.53886 0.0
C3275 C 0.40672 0.54418 0.52509 0.0
C3276 C 0.37914 0.56493 0.55421 0.0
C3277 C 0.38453 0.53282 0.52747 0.0
C3278 C 0.34034 0.56579 0.56661 0.0
C3279 C 0.35307 0.61344 0.57724 0.0
N3280 N 0.3714 0.54344 0.54152 0.0
N3281 N 0.3686 0.60057 0.57147 0.0
H3282 H 0.91517 0.9045 0.55475 0.0
H3283 H 0.97139 0.02823 0.52398 0.0
H3284 H 0.87419 0.95511 0.54037 0.0
H3285 H 1.00828 0.98794 0.56802 0.0
H3286 H 0.93568 1.00126 0.52671 0.0
H3287 H 0.94968 0.93407 0.55615 0.0
C3288 C 0.91341 0.92187 0.55194 0.0
C3289 C 0.89171 0.9273 0.54743 0.0
C3290 C 0.95162 0.99851 0.53593 0.0
C3291 C 0.93133 0.9613 0.54872 0.0
C3292 C 0.97203 1.01394 0.53446 0.0
C3293 C 0.99302 1.0104 0.54571 0.0
C3294 C 0.95223 0.97919 0.54838 0.0
C3295 C 0.99267 0.99134 0.55878 0.0
C3296 C 0.93315 0.93878 0.55284 0.0
C3297 C 0.89057 0.95019 0.54403 0.0
N3298 N 0.97271 0.97638 0.55952 0.0
N3299 N 0.9101 0.9663 0.54447 0.0
H3300 H 0.95546 0.10509 0.27699 0.0
H3301 H 0.84385 0.15786 0.28699 0.0
H3302 H 0.88738 0.06321 0.26136 0.0
H3303 H 0.9103 0.19922 0.28317 0.0
H3304 H 0.85887 0.12299 0.27666 0.0
H3305 H 0.93902 0.13977 0.27887 0.0
C3306 C 0.93705 0.10319 0.27371 0.0
C3307 C 0.9228 0.0812 0.26908 0.0
C3308 C 0.87009 0.13972 0.27786 0.0
C3309 C 0.90377 0.1209 0.27155 0.0
C3310 C 0.86148 0.15968 0.28361 0.0
C3311 C 0.87588 0.18161 0.28632 0.0
C3312 C 0.89331 0.14165 0.27495 0.0
C3313 C 0.89866 0.18274 0.28192 0.0
C3314 C 0.92765 0.12301 0.27477 0.0
C3315 C 0.89904 0.07981 0.26496 0.0
N3316 N 0.9067 0.16311 0.27675 0.0
N3317 N 0.89026 0.09936 0.26657 0.0
H3318 H 0.71218 0.08266 0.06555 0.0
H3319 H 0.58876 1.01152 0.01524 0.0
H3320 H 0.67397 0.10432 0.00488 0.0
H3321 H 0.59664 0.05987 0.08091 0.0
H3322 H 0.62926 0.02556 0.01117 0.0
H3323 H 0.67788 0.05404 0.07002 0.0
C3324 C 0.69683 0.08082 0.05264 0.0
C3325 C 0.69568 0.09576 0.03471 0.0
C3326 C 0.62221 0.03228 0.02698 0.0
C3327 C 0.65725 0.06293 0.03926 0.0
C3328 C 0.59921 0.0244 0.02928 0.0
C3329 C 0.58951 0.03488 0.04827 0.0
C3330 C 0.63543 0.05 0.04431 0.0
C3331 C 0.60368 0.05146 0.06605 0.0
C3332 C 0.67742 0.06457 0.05522 0.0
C3333 C 0.67536 0.09299 0.01874 0.0
N3334 N 0.62598 0.05875 0.06352 0.0
N3335 N 0.65683 0.07696 0.02143 0.0
H3336 H 0.18788 0.46755 0.26867 0.0
H3337 H 0.29357 0.41707 0.32507 0.0
H3338 H 0.25769 0.50528 0.27824 0.0
H3339 H 0.22273 0.38774 0.32824 0.0
H3340 H 0.28145 0.44562 0.30041 0.0
H3341 H 0.20133 0.43399 0.28176 0.0
C3342 C 0.20611 0.46862 0.27303 0.0
C3343 C 0.22167 0.48936 0.27275 0.0
C3344 C 0.26859 0.43285 0.30641 0.0
C3345 C 0.23715 0.4511 0.28821 0.0
C3346 C 0.27547 0.41657 0.32046 0.0
C3347 C 0.25912 0.40027 0.32907 0.0
C3348 C 0.24519 0.4327 0.30077 0.0
C3349 C 0.23591 0.40034 0.3225 0.0
C3350 C 0.21376 0.44949 0.28067 0.0
C3351 C 0.24509 0.48967 0.27837 0.0
N3352 N 0.22966 0.41635 0.30884 0.0
N3353 N 0.25213 0.47093 0.28627 0.0
H3354 H 0.29202 0.46021 0.08106 0.0
H3355 H 0.16845 0.4731 0.0207 0.0
H3356 H 0.2451 0.40489 0.03405 0.0
H3357 H 0.21582 0.52691 0.06924 0.0
H3358 H 0.19436 0.44654 0.02822 0.0
H3359 H 0.26257 0.48339 0.07992 0.0
C3360 C 0.27541 0.45282 0.0707 0.0
C3361 C 0.27109 0.4306 0.05751 0.0
C3362 C 0.19899 0.46411 0.03737 0.0
C3363 C 0.23721 0.45729 0.05583 0.0
C3364 C 0.18414 0.47926 0.03319 0.0
C3365 C 0.19005 0.50239 0.04414 0.0
C3366 C 0.21992 0.4721 0.05265 0.0
C3367 C 0.21073 0.5094 0.05999 0.0
C3368 C 0.25857 0.46611 0.07001 0.0
C3369 C 0.24919 0.42193 0.04449 0.0
N3370 N 0.22491 0.49441 0.06362 0.0
N3371 N 0.23314 0.43538 0.04376 0.0
H3372 H 0.90027 0.95591 0.24335 0.0
H3373 H 0.82611 0.86995 0.31682 0.0
H3374 H 0.92532 0.94917 0.31775 0.0
H3375 H 0.84143 0.8447 0.24583 0.0
H3376 H 0.85403 0.906 0.31643 0.0
H3377 H 0.86996 0.92142 0.24286 0.0
C3378 C 0.89923 0.9473 0.25961 0.0
C3379 C 0.91533 0.95524 0.28058 0.0
C3380 C 0.85101 0.89261 0.30087 0.0
C3381 C 0.88057 0.91651 0.28034 0.0
C3382 C 0.83505 0.87219 0.30099 0.0
C3383 C 0.83154 0.8544 0.28134 0.0
C3384 C 0.8629 0.89551 0.28058 0.0
C3385 C 0.84375 0.858 0.26137 0.0
C3386 C 0.88206 0.92767 0.25928 0.0
C3387 C 0.91332 0.94345 0.30117 0.0
N3388 N 0.85878 0.87826 0.26139 0.0
N3389 N 0.89611 0.9248 0.30065 0.0
H3390 H 0.71078 0.15085 0.82673 0.0
H3391 H 0.77308 0.22659 0.73802 0.0
H3392 H 0.72958 0.11778 0.76084 0.0
H3393 H 0.79373 0.24145 0.81603 0.0
H3394 H 0.75245 0.18806 0.74396 0.0
H3395 H 0.73656 0.18673 0.82155 0.0
C3396 C 0.72061 0.15107 0.81143 0.0
C3397 C 0.71818 0.1314 0.79422 0.0
C3398 C 0.76145 0.19993 0.75972 0.0
C3399 C 0.7471 0.17217 0.7881 0.0
C3400 C 0.77302 0.22181 0.75639 0.0
C3401 C 0.78395 0.23754 0.77678 0.0
C3402 C 0.7609 0.19406 0.78359 0.0
C3403 C 0.78422 0.23042 0.80008 0.0
C3404 C 0.73528 0.17142 0.80857 0.0
C3405 C 0.73118 0.13256 0.77462 0.0
N3406 N 0.77246 0.2093 0.80297 0.0
N3407 N 0.74487 0.1528 0.77183 0.0
loop_
_geom_bond_atom_site_label_1
_geom_bond_atom_site_label_2
_geom_bond_distance
_geom_bond_site_symmetry_2
_ccdc_geom_bond_type
Co0 O1 2.216 . S
Co0 O2 2.091 . S
Co0 O4 2.004 . S
Co0 O10 2.021 . S
Co0 O12 2.137 . S
Co0 O13 2.244 . S
O1 Co0 2.216 . S
O1 C8 1.247 . S
O2 Co0 2.091 . S
O2 C8 1.261 . S
C3 O12 1.247 . S
C3 O13 1.272 . S
O4 Co0 2.004 . S
O4 C9 1.259 1_455 S
Co5 O6 2.061 1_455 S
Co5 O11 2.052 . S
Co5 O13 2.135 . S
O6 Co5 2.061 1_655 S
O6 C9 1.235 . S
C7 O10 1.238 . S
C7 O11 1.241 . S
C8 O1 1.247 . S
C8 O2 1.261 . S
C9 O4 1.259 1_655 S
C9 O6 1.235 . S
O10 Co0 2.021 . S
O10 C7 1.238 . S
O11 Co5 2.052 . S
O11 C7 1.241 . S
O12 Co0 2.137 . S
O12 C3 1.247 . S
O13 Co0 2.244 . S
O13 C3 1.272 . S
O13 Co5 2.135 . S
Co14 O15 2.216 1_455 S
Co14 O16 2.091 1_455 S
Co14 O18 2.004 . S
Co14 O24 2.021 . S
Co14 O26 2.137 . S
Co14 O27 2.244 . S
O15 Co14 2.216 1_655 S
O15 C22 1.247 . S
O16 Co14 2.091 1_655 S
O16 C22 1.261 . S
C17 O26 1.247 . S
C17 O27 1.272 . S
O18 Co14 2.004 . S
O18 C23 1.259 . S
Co19 O20 2.061 . S
Co19 O25 2.052 . S
Co19 O27 2.135 . S
O20 Co19 2.061 . S
O20 C23 1.235 . S
C21 O24 1.238 . S
C21 O25 1.241 . S
C22 O15 1.247 . S
C22 O16 1.261 . S
C23 O18 1.259 . S
C23 O20 1.235 . S
O24 Co14 2.021 . S
O24 C21 1.238 . S
O25 Co19 2.052 . S
O25 C21 1.241 . S
O26 Co14 2.137 . S
O26 C17 1.247 . S
O27 Co14 2.244 . S
O27 C17 1.272 . S
O27 Co19 2.135 . S
Co28 O29 2.216 . S
Co28 O30 2.091 . S
Co28 O32 2.004 . S
Co28 O38 2.021 . S
Co28 O40 2.137 . S
Co28 O41 2.244 . S
O29 Co28 2.216 . S
O29 C36 1.247 . S
O30 Co28 2.091 . S
O30 C36 1.261 . S
C31 O40 1.247 . S
C31 O41 1.272 . S
O32 Co28 2.004 . S
O32 C37 1.259 . S
Co33 O34 2.061 . S
Co33 O39 2.052 . S
Co33 O41 2.135 . S
O34 Co33 2.061 . S
O34 C37 1.235 . S
C35 O38 1.238 . S
C35 O39 1.241 . S
C36 O29 1.247 . S
C36 O30 1.261 . S
C37 O32 1.259 . S
C37 O34 1.235 . S
O38 Co28 2.021 . S
O38 C35 1.238 . S
O39 Co33 2.052 . S
O39 C35 1.241 . S
O40 Co28 2.137 . S
O40 C31 1.247 . S
O41 Co28 2.244 . S
O41 C31 1.272 . S
O41 Co33 2.135 . S
Co42 O43 2.216 . S
Co42 O44 2.091 . S
Co42 O46 2.004 . S
Co42 O52 2.021 . S
Co42 O54 2.137 . S
Co42 O55 2.244 . S
O43 Co42 2.216 . S
O43 C50 1.247 . S
O44 Co42 2.091 . S
O44 C50 1.261 . S
C45 O54 1.247 . S
C45 O55 1.272 . S
O46 Co42 2.004 . S
O46 C51 1.259 . S
Co47 O48 2.061 . S
Co47 O53 2.052 . S
Co47 O55 2.135 . S
O48 Co47 2.061 . S
O48 C51 1.235 . S
C49 O52 1.238 . S
C49 O53 1.241 . S
C50 O43 1.247 . S
C50 O44 1.261 . S
C51 O46 1.259 . S
C51 O48 1.235 . S
O52 Co42 2.021 . S
O52 C49 1.238 . S
O53 Co47 2.052 . S
O53 C49 1.241 . S
O54 Co42 2.137 . S
O54 C45 1.247 . S
O55 Co42 2.244 . S
O55 C45 1.272 . S
O55 Co47 2.135 . S
Co56 O57 2.216 . S
Co56 O58 2.091 . S
Co56 O60 2.004 . S
Co56 O66 2.021 . S
Co56 O68 2.137 . S
Co56 O69 2.244 . S
O57 Co56 2.216 . S
O57 C64 1.247 . S
O58 Co56 2.091 . S
O58 C64 1.261 . S
C59 O68 1.247 . S
C59 O69 1.272 . S
O60 Co56 2.004 . S
O60 C65 1.259 . S
Co61 O62 2.061 . S
Co61 O67 2.052 . S
Co61 O69 2.135 . S
O62 Co61 2.061 . S
O62 C65 1.235 . S
C63 O66 1.238 . S
C63 O67 1.241 . S
C64 O57 1.247 . S
C64 O58 1.261 . S
C65 O60 1.259 . S
C65 O62 1.235 . S
O66 Co56 2.021 . S
O66 C63 1.238 . S
O67 Co61 2.052 . S
O67 C63 1.241 . S
O68 Co56 2.137 . S
O68 C59 1.247 . S
O69 Co56 2.244 . S
O69 C59 1.272 . S
O69 Co61 2.135 . S
Co70 O71 2.216 . S
Co70 O72 2.091 . S
Co70 O74 2.004 . S
Co70 O80 2.021 . S
Co70 O82 2.137 . S
Co70 O83 2.244 . S
O71 Co70 2.216 . S
O71 C78 1.247 . S
O72 Co70 2.091 . S
O72 C78 1.261 . S
C73 O82 1.247 . S
C73 O83 1.272 . S
O74 Co70 2.004 . S
O74 C79 1.259 . S
Co75 O76 2.061 . S
Co75 O81 2.052 . S
Co75 O83 2.135 . S
O76 Co75 2.061 . S
O76 C79 1.235 . S
C77 O80 1.238 . S
C77 O81 1.241 . S
C78 O71 1.247 . S
C78 O72 1.261 . S
C79 O74 1.259 . S
C79 O76 1.235 . S
O80 Co70 2.021 . S
O80 C77 1.238 . S
O81 Co75 2.052 . S
O81 C77 1.241 . S
O82 Co70 2.137 . S
O82 C73 1.247 . S
O83 Co70 2.244 . S
O83 C73 1.272 . S
O83 Co75 2.135 . S
Co84 O85 2.216 . S
Co84 O86 2.091 . S
Co84 O88 2.004 . S
Co84 O94 2.021 . S
Co84 O96 2.137 . S
Co84 O97 2.244 . S
O85 Co84 2.216 . S
O85 C92 1.247 . S
O86 Co84 2.091 . S
O86 C92 1.261 . S
C87 O96 1.247 . S
C87 O97 1.272 . S
O88 Co84 2.004 . S
O88 C93 1.259 . S
Co89 O90 2.061 . S
Co89 O95 2.052 . S
Co89 O97 2.135 . S
O90 Co89 2.061 . S
O90 C93 1.235 . S
C91 O94 1.238 . S
C91 O95 1.241 . S
C92 O85 1.247 . S
C92 O86 1.261 . S
C93 O88 1.259 . S
C93 O90 1.235 . S
O94 Co84 2.021 . S
O94 C91 1.238 . S
O95 Co89 2.052 . S
O95 C91 1.241 . S
O96 Co84 2.137 . S
O96 C87 1.247 . S
O97 Co84 2.244 . S
O97 C87 1.272 . S
O97 Co89 2.135 . S
Co98 O99 2.216 . S
Co98 O100 2.091 . S
Co98 O102 2.004 1_455 S
Co98 O108 2.021 1_455 S
Co98 O110 2.137 . S
Co98 O111 2.244 1_455 S
O99 Co98 2.216 . S
O99 C106 1.247 . S
O100 Co98 2.091 . S
O100 C106 1.261 . S
C101 O110 1.247 . S
C101 O111 1.272 1_455 S
O102 Co98 2.004 1_655 S
O102 C107 1.259 . S
Co103 O104 2.061 . S
Co103 O109 2.052 . S
Co103 O111 2.135 . S
O104 Co103 2.061 . S
O104 C107 1.235 . S
C105 O108 1.238 . S
C105 O109 1.241 . S
C106 O99 1.247 . S
C106 O100 1.261 . S
C107 O102 1.259 . S
C107 O104 1.235 . S
O108 Co98 2.021 1_655 S
O108 C105 1.238 . S
O109 Co103 2.052 . S
O109 C105 1.241 . S
O110 Co98 2.137 . S
O110 C101 1.247 . S
O111 Co98 2.244 1_655 S
O111 C101 1.272 1_655 S
O111 Co103 2.135 . S
Co112 O113 2.216 . S
Co112 O114 2.091 . S
Co112 O116 2.004 1_545 S
Co112 O122 2.021 . S
Co112 O124 2.137 . S
Co112 O125 2.244 . S
O113 Co112 2.216 . S
O113 C120 1.247 . S
O114 Co112 2.091 . S
O114 C120 1.261 . S
C115 O124 1.247 . S
C115 O125 1.272 . S
O116 Co112 2.004 1_565 S
O116 C121 1.259 . S
Co117 O118 2.061 . S
Co117 O123 2.052 . S
Co117 O125 2.135 1_565 S
O118 Co117 2.061 . S
O118 C121 1.235 . S
C119 O122 1.238 . S
C119 O123 1.241 1_545 S
C120 O113 1.247 . S
C120 O114 1.261 . S
C121 O116 1.259 . S
C121 O118 1.235 . S
O122 Co112 2.021 . S
O122 C119 1.238 . S
O123 Co117 2.052 . S
O123 C119 1.241 1_565 S
O124 Co112 2.137 . S
O124 C115 1.247 . S
O125 Co112 2.244 . S
O125 C115 1.272 . S
O125 Co117 2.135 1_545 S
Co126 O127 2.216 . S
Co126 O128 2.091 . S
Co126 O130 2.004 . S
Co126 O136 2.021 . S
Co126 O138 2.137 . S
Co126 O139 2.244 . S
O127 Co126 2.216 . S
O127 C134 1.247 . S
O128 Co126 2.091 . S
O128 C134 1.261 . S
C129 O138 1.247 . S
C129 O139 1.272 . S
O130 Co126 2.004 . S
O130 C135 1.259 . S
Co131 O132 2.061 . S
Co131 O137 2.052 . S
Co131 O139 2.135 . S
O132 Co131 2.061 . S
O132 C135 1.235 . S
C133 O136 1.238 . S
C133 O137 1.241 . S
C134 O127 1.247 . S
C134 O128 1.261 . S
C135 O130 1.259 . S
C135 O132 1.235 . S
O136 Co126 2.021 . S
O136 C133 1.238 . S
O137 Co131 2.052 . S
O137 C133 1.241 . S
O138 Co126 2.137 . S
O138 C129 1.247 . S
O139 Co126 2.244 . S
O139 C129 1.272 . S
O139 Co131 2.135 . S
Co140 O141 2.216 . S
Co140 O142 2.091 . S
Co140 O144 2.004 . S
Co140 O150 2.021 . S
Co140 O152 2.137 . S
Co140 O153 2.244 . S
O141 Co140 2.216 . S
O141 C148 1.247 . S
O142 Co140 2.091 . S
O142 C148 1.261 . S
C143 O152 1.247 . S
C143 O153 1.272 . S
O144 Co140 2.004 . S
O144 C149 1.259 . S
Co145 O146 2.061 . S
Co145 O151 2.052 . S
Co145 O153 2.135 . S
O146 Co145 2.061 . S
O146 C149 1.235 . S
C147 O150 1.238 . S
C147 O151 1.241 . S
C148 O141 1.247 . S
C148 O142 1.261 . S
C149 O144 1.259 . S
C149 O146 1.235 . S
O150 Co140 2.021 . S
O150 C147 1.238 . S
O151 Co145 2.052 . S
O151 C147 1.241 . S
O152 Co140 2.137 . S
O152 C143 1.247 . S
O153 Co140 2.244 . S
O153 C143 1.272 . S
O153 Co145 2.135 . S
Co154 O155 2.216 . S
Co154 O156 2.091 1_556 S
Co154 O158 2.002 . S
Co154 O164 2.021 1_556 S
Co154 O166 2.137 . S
Co154 O167 2.244 . S
O155 Co154 2.216 . S
O155 C162 1.247 . S
O156 Co154 2.091 1_554 S
O156 C162 1.261 1_554 S
C157 O166 1.247 . S
C157 O167 1.272 . S
O158 Co154 2.002 . S
O158 C163 1.256 1_556 S
Co159 O160 2.061 1_556 S
Co159 O165 2.052 1_556 S
Co159 O167 2.135 . S
O160 Co159 2.061 1_554 S
O160 C163 1.235 . S
C161 O164 1.238 . S
C161 O165 1.241 . S
C162 O155 1.247 . S
C162 O156 1.261 1_556 S
C163 O158 1.256 1_554 S
C163 O160 1.235 . S
O164 Co154 2.021 1_554 S
O164 C161 1.238 . S
O165 Co159 2.052 1_554 S
O165 C161 1.241 . S
O166 Co154 2.137 . S
O166 C157 1.247 . S
O167 Co154 2.244 . S
O167 C157 1.272 . S
O167 Co159 2.135 . S
Co168 O169 2.216 . S
Co168 O170 2.091 . S
Co168 O172 2.004 . S
Co168 O178 2.021 . S
Co168 O180 2.137 . S
Co168 O181 2.244 . S
O169 Co168 2.216 . S
O169 C176 1.247 . S
O170 Co168 2.091 . S
O170 C176 1.261 . S
C171 O180 1.247 . S
C171 O181 1.272 . S
O172 Co168 2.004 . S
O172 C177 1.259 . S
Co173 O174 2.061 . S
Co173 O179 2.052 . S
Co173 O181 2.135 . S
O174 Co173 2.061 . S
O174 C177 1.235 . S
C175 O178 1.238 . S
C175 O179 1.241 . S
C176 O169 1.247 . S
C176 O170 1.261 . S
C177 O172 1.259 . S
C177 O174 1.235 . S
O178 Co168 2.021 . S
O178 C175 1.238 . S
O179 Co173 2.052 . S
O179 C175 1.241 . S
O180 Co168 2.137 . S
O180 C171 1.247 . S
O181 Co168 2.244 . S
O181 C171 1.272 . S
O181 Co173 2.135 . S
Co182 O183 2.216 . S
Co182 O184 2.091 . S
Co182 O186 2.004 . S
Co182 O192 2.021 . S
Co182 O194 2.137 . S
Co182 O195 2.244 . S
O183 Co182 2.216 . S
O183 C190 1.247 . S
O184 Co182 2.091 . S
O184 C190 1.261 . S
C185 O194 1.247 . S
C185 O195 1.272 . S
O186 Co182 2.004 . S
O186 C191 1.259 . S
Co187 O188 2.061 . S
Co187 O193 2.052 . S
Co187 O195 2.135 . S
O188 Co187 2.061 . S
O188 C191 1.235 . S
C189 O192 1.238 . S
C189 O193 1.241 . S
C190 O183 1.247 . S
C190 O184 1.261 . S
C191 O186 1.259 . S
C191 O188 1.235 . S
O192 Co182 2.021 . S
O192 C189 1.238 . S
O193 Co187 2.052 . S
O193 C189 1.241 . S
O194 Co182 2.137 . S
O194 C185 1.247 . S
O195 Co182 2.244 . S
O195 C185 1.272 . S
O195 Co187 2.135 . S
Co196 O197 2.216 . S
Co196 O198 2.091 . S
Co196 O200 2.004 . S
Co196 O206 2.021 . S
Co196 O208 2.137 . S
Co196 O209 2.244 . S
O197 Co196 2.216 . S
O197 C204 1.247 . S
O198 Co196 2.091 . S
O198 C204 1.261 . S
C199 O208 1.247 . S
C199 O209 1.272 . S
O200 Co196 2.004 . S
O200 C205 1.259 . S
Co201 O202 2.061 . S
Co201 O207 2.052 . S
Co201 O209 2.135 . S
O202 Co201 2.061 . S
O202 C205 1.235 . S
C203 O206 1.238 . S
C203 O207 1.241 . S
C204 O197 1.247 . S
C204 O198 1.261 . S
C205 O200 1.259 . S
C205 O202 1.235 . S
O206 Co196 2.021 . S
O206 C203 1.238 . S
O207 Co201 2.052 . S
O207 C203 1.241 . S
O208 Co196 2.137 . S
O208 C199 1.247 . S
O209 Co196 2.244 . S
O209 C199 1.272 . S
O209 Co201 2.135 . S
Co210 O211 2.216 . S
Co210 O212 2.091 . S
Co210 O214 2.004 . S
Co210 O220 2.021 . S
Co210 O222 2.137 . S
Co210 O223 2.244 . S
O211 Co210 2.216 . S
O211 C218 1.247 . S
O212 Co210 2.091 . S
O212 C218 1.261 . S
C213 O222 1.247 . S
C213 O223 1.272 . S
O214 Co210 2.004 . S
O214 C219 1.259 . S
Co215 O216 2.061 . S
Co215 O221 2.052 . S
Co215 O223 2.135 . S
O216 Co215 2.061 . S
O216 C219 1.235 . S
C217 O220 1.238 . S
C217 O221 1.241 . S
C218 O211 1.247 . S
C218 O212 1.261 . S
C219 O214 1.259 . S
C219 O216 1.235 . S
O220 Co210 2.021 . S
O220 C217 1.238 . S
O221 Co215 2.052 . S
O221 C217 1.241 . S
O222 Co210 2.137 . S
O222 C213 1.247 . S
O223 Co210 2.244 . S
O223 C213 1.272 . S
O223 Co215 2.135 . S
Co224 O225 2.216 . S
Co224 O226 2.091 . S
Co224 O228 2.004 1_545 S
Co224 O234 2.021 . S
Co224 O236 2.137 . S
Co224 O237 2.244 . S
O225 Co224 2.216 . S
O225 C232 1.247 . S
O226 Co224 2.091 . S
O226 C232 1.261 . S
C227 O236 1.247 . S
C227 O237 1.272 . S
O228 Co224 2.004 1_565 S
O228 C233 1.259 . S
Co229 O230 2.061 . S
Co229 O235 2.052 1_565 S
Co229 O237 2.135 1_565 S
O230 Co229 2.061 . S
O230 C233 1.235 . S
C231 O234 1.238 . S
C231 O235 1.241 . S
C232 O225 1.247 . S
C232 O226 1.261 . S
C233 O228 1.259 . S
C233 O230 1.235 . S
O234 Co224 2.021 . S
O234 C231 1.238 . S
O235 Co229 2.052 1_545 S
O235 C231 1.241 . S
O236 Co224 2.137 . S
O236 C227 1.247 . S
O237 Co224 2.244 . S
O237 C227 1.272 . S
O237 Co229 2.135 1_545 S
Co238 O239 2.216 . S
Co238 O240 2.091 . S
Co238 O242 2.004 . S
Co238 O248 2.021 . S
Co238 O250 2.137 . S
Co238 O251 2.244 . S
O239 Co238 2.216 . S
O239 C246 1.247 . S
O240 Co238 2.091 . S
O240 C246 1.261 . S
C241 O250 1.247 . S
C241 O251 1.272 . S
O242 Co238 2.004 . S
O242 C247 1.259 . S
Co243 O244 2.061 . S
Co243 O249 2.052 . S
Co243 O251 2.135 . S
O244 Co243 2.061 . S
O244 C247 1.235 . S
C245 O248 1.238 . S
C245 O249 1.241 . S
C246 O239 1.247 . S
C246 O240 1.261 . S
C247 O242 1.259 . S
C247 O244 1.235 . S
O248 Co238 2.021 . S
O248 C245 1.238 . S
O249 Co243 2.052 . S
O249 C245 1.241 . S
O250 Co238 2.137 . S
O250 C241 1.247 . S
O251 Co238 2.244 . S
O251 C241 1.272 . S
O251 Co243 2.135 . S
Co252 O253 2.216 . S
Co252 O254 2.091 . S
Co252 O256 2.004 . S
Co252 O262 2.021 . S
Co252 O264 2.137 . S
Co252 O265 2.244 . S
O253 Co252 2.216 . S
O253 C260 1.247 . S
O254 Co252 2.091 . S
O254 C260 1.261 . S
C255 O264 1.247 . S
C255 O265 1.272 . S
O256 Co252 2.004 . S
O256 C261 1.259 . S
Co257 O258 2.061 . S
Co257 O263 2.052 . S
Co257 O265 2.135 . S
O258 Co257 2.061 . S
O258 C261 1.235 . S
C259 O262 1.238 . S
C259 O263 1.241 . S
C260 O253 1.247 . S
C260 O254 1.261 . S
C261 O256 1.259 . S
C261 O258 1.235 . S
O262 Co252 2.021 . S
O262 C259 1.238 . S
O263 Co257 2.052 . S
O263 C259 1.241 . S
O264 Co252 2.137 . S
O264 C255 1.247 . S
O265 Co252 2.244 . S
O265 C255 1.272 . S
O265 Co257 2.135 . S
Co266 O267 2.216 . S
Co266 O268 2.091 . S
Co266 O270 2.004 . S
Co266 O276 2.021 . S
Co266 O278 2.137 . S
Co266 O279 2.244 . S
O267 Co266 2.216 . S
O267 C274 1.247 . S
O268 Co266 2.091 . S
O268 C274 1.261 . S
C269 O278 1.247 . S
C269 O279 1.272 . S
O270 Co266 2.004 . S
O270 C275 1.259 . S
Co271 O272 2.061 . S
Co271 O277 2.052 . S
Co271 O279 2.135 . S
O272 Co271 2.061 . S
O272 C275 1.235 . S
C273 O276 1.238 . S
C273 O277 1.241 . S
C274 O267 1.247 . S
C274 O268 1.261 . S
C275 O270 1.259 . S
C275 O272 1.235 . S
O276 Co266 2.021 . S
O276 C273 1.238 . S
O277 Co271 2.052 . S
O277 C273 1.241 . S
O278 Co266 2.137 . S
O278 C269 1.247 . S
O279 Co266 2.244 . S
O279 C269 1.272 . S
O279 Co271 2.135 . S
Co280 O281 2.216 . S
Co280 O282 2.091 . S
Co280 O284 2.004 . S
Co280 O290 2.021 . S
Co280 O292 2.137 1_554 S
Co280 O293 2.244 1_554 S
O281 Co280 2.216 . S
O281 C288 1.247 . S
O282 Co280 2.091 . S
O282 C288 1.261 . S
C283 O292 1.247 . S
C283 O293 1.272 . S
O284 Co280 2.004 . S
O284 C289 1.259 . S
Co285 O286 2.061 . S
Co285 O291 2.052 . S
Co285 O293 2.135 1_554 S
O286 Co285 2.061 . S
O286 C289 1.235 . S
C287 O290 1.238 . S
C287 O291 1.241 . S
C288 O281 1.247 . S
C288 O282 1.261 . S
C289 O284 1.259 . S
C289 O286 1.235 . S
O290 Co280 2.021 . S
O290 C287 1.238 . S
O291 Co285 2.052 . S
O291 C287 1.241 . S
O292 Co280 2.137 1_556 S
O292 C283 1.247 . S
O293 Co280 2.244 1_556 S
O293 C283 1.272 . S
O293 Co285 2.135 1_556 S
Co294 O295 2.216 . S
Co294 O296 2.091 . S
Co294 O298 2.004 . S
Co294 O304 2.021 . S
Co294 O306 2.137 . S
Co294 O307 2.244 . S
O295 Co294 2.216 . S
O295 C302 1.247 . S
O296 Co294 2.091 . S
O296 C302 1.261 . S
C297 O306 1.247 . S
C297 O307 1.272 . S
O298 Co294 2.004 . S
O298 C303 1.259 . S
Co299 O300 2.061 . S
Co299 O305 2.052 . S
Co299 O307 2.135 . S
O300 Co299 2.061 . S
O300 C303 1.235 . S
C301 O304 1.238 . S
C301 O305 1.241 . S
C302 O295 1.247 . S
C302 O296 1.261 . S
C303 O298 1.259 . S
C303 O300 1.235 . S
O304 Co294 2.021 . S
O304 C301 1.238 . S
O305 Co299 2.052 . S
O305 C301 1.241 . S
O306 Co294 2.137 . S
O306 C297 1.247 . S
O307 Co294 2.244 . S
O307 C297 1.272 . S
O307 Co299 2.135 . S
Co308 O309 2.216 . S
Co308 O310 2.091 . S
Co308 O312 2.004 . S
Co308 O318 2.021 . S
Co308 O320 2.137 . S
Co308 O321 2.244 . S
O309 Co308 2.216 . S
O309 C316 1.247 . S
O310 Co308 2.091 . S
O310 C316 1.261 . S
C311 O320 1.247 . S
C311 O321 1.272 . S
O312 Co308 2.004 . S
O312 C317 1.259 . S
Co313 O314 2.061 . S
Co313 O319 2.052 . S
Co313 O321 2.135 . S
O314 Co313 2.061 . S
O314 C317 1.235 . S
C315 O318 1.238 . S
C315 O319 1.241 . S
C316 O309 1.247 . S
C316 O310 1.261 . S
C317 O312 1.259 . S
C317 O314 1.235 . S
O318 Co308 2.021 . S
O318 C315 1.238 . S
O319 Co313 2.052 . S
O319 C315 1.241 . S
O320 Co308 2.137 . S
O320 C311 1.247 . S
O321 Co308 2.244 . S
O321 C311 1.272 . S
O321 Co313 2.135 . S
Co322 O323 2.216 . S
Co322 O324 2.091 . S
Co322 O326 2.004 . S
Co322 O332 2.021 . S
Co322 O334 2.137 . S
Co322 O335 2.244 . S
O323 Co322 2.216 . S
O323 C330 1.247 . S
O324 Co322 2.091 . S
O324 C330 1.261 . S
C325 O334 1.247 . S
C325 O335 1.272 . S
O326 Co322 2.004 . S
O326 C331 1.259 . S
Co327 O328 2.061 . S
Co327 O333 2.052 . S
Co327 O335 2.135 . S
O328 Co327 2.061 . S
O328 C331 1.235 . S
C329 O332 1.238 . S
C329 O333 1.241 . S
C330 O323 1.247 . S
C330 O324 1.261 . S
C331 O326 1.259 . S
C331 O328 1.235 . S
O332 Co322 2.021 . S
O332 C329 1.238 . S
O333 Co327 2.052 . S
O333 C329 1.241 . S
O334 Co322 2.137 . S
O334 C325 1.247 . S
O335 Co322 2.244 . S
O335 C325 1.272 . S
O335 Co327 2.135 . S
Tb336 N365 2.617 . S
Tb336 N371 2.572 . S
Tb336 O380 2.465 . S
Tb336 O381 2.387 . S
Tb336 O383 2.428 . S
Tb336 O384 2.308 . S
Tb336 O388 2.349 . S
Tb336 O391 2.393 . S
Tb336 C400 2.802 . S
C337 N338 1.379 . S
C337 C340 1.416 . S
C337 C344 1.424 1_556 S
N338 C337 1.379 . S
N338 C341 1.334 . S
N338 Tb347 2.617 1_566 S
C339 C341 1.390 . S
C339 C342 1.339 . S
C339 H359 0.930 . S
C340 C337 1.416 . S
C340 C342 1.416 . S
C340 C346 1.448 . S
C341 N338 1.334 . S
C341 C339 1.390 . S
C341 H352 0.932 1_565 S
C342 C339 1.339 . S
C342 C340 1.416 . S
C342 H363 0.930 . S
C343 C344 1.413 . S
C343 C345 1.427 1_554 S
C343 C349 1.416 . S
C344 C337 1.424 1_554 S
C344 C343 1.413 . S
C344 N348 1.361 . S
C345 C343 1.427 1_556 S
C345 C346 1.328 . S
C345 H360 0.919 1_556 S
C346 C340 1.448 . S
C346 C345 1.328 . S
C346 H361 0.930 . S
Tb347 N338 2.617 1_544 S
Tb347 N348 2.572 1_545 S
Tb347 O382 2.349 1_655 S
Tb347 O385 2.393 1_654 S
Tb347 O386 2.465 . S
Tb347 O387 2.387 1_645 S
Tb347 O389 2.428 1_554 S
Tb347 O390 2.308 1_655 S
Tb347 C411 2.802 . S
N348 C344 1.361 . S
N348 Tb347 2.572 1_565 S
N348 C350 1.340 . S
C349 C343 1.416 . S
C349 C351 1.332 . S
C349 H357 0.931 . S
C350 N348 1.340 . S
C350 C351 1.407 . S
C350 H356 0.930 . S
C351 C349 1.332 . S
C351 C350 1.407 . S
C351 H353 0.929 . S
H352 C341 0.932 1_545 S
H353 C351 0.929 . S
H354 C369 0.930 . S
H355 C376 0.929 1_556 S
H356 C350 0.930 . S
H357 C349 0.931 . S
H358 C372 0.930 . S
H359 C339 0.930 . S
H360 C345 0.919 1_554 S
H361 C346 0.930 . S
H362 C367 0.930 . S
H363 C342 0.930 . S
H364 C375 0.931 . S
N365 Tb336 2.617 . S
N365 C366 1.379 . S
N365 C369 1.334 . S
C366 N365 1.379 . S
C366 C368 1.416 . S
C366 C374 1.424 . S
C367 H362 0.930 . S
C367 C369 1.390 . S
C367 C370 1.339 . S
C368 C366 1.416 . S
C368 C370 1.416 . S
C368 C401 1.448 . S
C369 H354 0.930 . S
C369 N365 1.334 . S
C369 C367 1.390 . S
C370 C367 1.339 . S
C370 C368 1.416 . S
C370 H377 0.930 . S
N371 Tb336 2.572 . S
N371 C372 1.340 . S
N371 C374 1.361 . S
C372 H358 0.930 . S
C372 N371 1.340 . S
C372 C376 1.407 . S
C373 C374 1.413 . S
C373 C375 1.416 . S
C373 C402 1.427 . S
C374 C366 1.424 . S
C374 N371 1.361 . S
C374 C373 1.413 . S
C375 H364 0.931 . S
C375 C373 1.416 . S
C375 C376 1.332 . S
C376 H355 0.929 1_554 S
C376 C372 1.407 . S
C376 C375 1.332 . S
H377 C370 0.930 . S
H378 C401 0.930 . S
H379 C402 0.929 . S
O380 Tb336 2.465 . S
O380 C400 1.264 . S
O381 Tb336 2.387 . S
O381 C392 1.264 . S
O382 Tb347 2.349 1_455 S
O382 C392 1.243 . S
O383 Tb336 2.428 . S
O383 C400 1.256 . S
O384 Tb336 2.308 . S
O384 C399 1.266 1_554 S
O385 Tb347 2.393 1_456 S
O385 C399 1.248 . S
O386 Tb347 2.465 . S
O386 C411 1.264 . S
O387 Tb347 2.387 1_465 S
O387 C403 1.264 . S
O388 Tb336 2.349 . S
O388 C403 1.243 1_545 S
O389 Tb347 2.428 1_556 S
O389 C411 1.256 1_556 S
O390 Tb347 2.308 1_455 S
O390 C410 1.266 . S
O391 Tb336 2.393 . S
O391 C410 1.248 . S
C392 O381 1.264 . S
C392 O382 1.243 . S
C393 C396 1.399 . S
C393 C398 1.383 . S
C393 C400 1.496 . S
C394 C395 1.399 . S
C394 C398 1.389 . S
C395 C394 1.399 . S
C395 C397 1.380 . S
C395 H412 0.929 . S
C396 C393 1.399 . S
C396 C397 1.392 . S
C396 H413 0.929 . S
C397 C395 1.380 . S
C397 C396 1.392 . S
C397 H414 0.929 . S
C398 C393 1.383 . S
C398 C394 1.389 . S
C398 H415 0.931 . S
C399 O384 1.266 1_556 S
C399 O385 1.248 . S
C400 Tb336 2.802 . S
C400 O380 1.264 . S
C400 O383 1.256 . S
C400 C393 1.496 . S
C401 C368 1.448 . S
C401 H378 0.930 . S
C401 C402 1.328 . S
C402 C373 1.427 . S
C402 H379 0.929 . S
C402 C401 1.328 . S
C403 O387 1.264 . S
C403 O388 1.243 1_565 S
C404 C407 1.399 1_554 S
C404 C408 1.383 . S
C404 C411 1.496 . S
C405 C406 1.399 1_554 S
C405 C408 1.389 . S
C406 C405 1.399 1_556 S
C406 C409 1.380 . S
C406 H416 0.929 . S
C407 C404 1.399 1_556 S
C407 C409 1.392 . S
C407 H417 0.929 . S
C408 C404 1.383 . S
C408 C405 1.389 . S
C408 H418 0.931 . S
C409 C406 1.380 . S
C409 C407 1.392 . S
C409 H419 0.929 . S
C410 O390 1.266 . S
C410 O391 1.248 . S
C411 Tb347 2.802 . S
C411 O386 1.264 . S
C411 O389 1.256 1_554 S
C411 C404 1.496 . S
H412 C395 0.929 . S
H413 C396 0.929 . S
H414 C397 0.929 . S
H415 C398 0.931 . S
H416 C406 0.929 . S
H417 C407 0.929 . S
H418 C408 0.931 . S
H419 C409 0.929 . S
Tb420 N449 2.617 . S
Tb420 N455 2.572 . S
Tb420 O464 2.465 . S
Tb420 O465 2.387 . S
Tb420 O467 2.428 . S
Tb420 O468 2.308 . S
Tb420 O472 2.349 . S
Tb420 O475 2.393 . S
Tb420 C484 2.802 . S
C421 N422 1.379 . S
C421 C424 1.416 . S
C421 C428 1.424 . S
N422 C421 1.379 . S
N422 C425 1.334 . S
N422 Tb431 2.617 . S
C423 C425 1.390 . S
C423 C426 1.339 . S
C423 H443 0.930 . S
C424 C421 1.416 . S
C424 C426 1.416 . S
C424 C430 1.448 . S
C425 N422 1.334 . S
C425 C423 1.390 . S
C425 H436 0.930 . S
C426 C423 1.339 . S
C426 C424 1.416 . S
C426 H447 0.930 . S
C427 C428 1.413 . S
C427 C429 1.427 . S
C427 C433 1.416 . S
C428 C421 1.424 . S
C428 C427 1.413 . S
C428 N432 1.361 . S
C429 C427 1.427 . S
C429 C430 1.328 . S
C429 H444 0.929 . S
C430 C424 1.448 . S
C430 C429 1.328 . S
C430 H445 0.930 . S
Tb431 N422 2.617 . S
Tb431 N432 2.572 . S
Tb431 O466 2.349 . S
Tb431 O469 2.393 . S
Tb431 O470 2.465 . S
Tb431 O471 2.387 . S
Tb431 O473 2.428 . S
Tb431 O474 2.308 . S
Tb431 C495 2.802 . S
N432 C428 1.361 . S
N432 Tb431 2.572 . S
N432 C434 1.340 . S
C433 C427 1.416 . S
C433 C435 1.332 . S
C433 H441 0.931 . S
C434 N432 1.340 . S
C434 C435 1.407 . S
C434 H440 0.930 . S
C435 C433 1.332 . S
C435 C434 1.407 . S
C435 H437 0.929 . S
H436 C425 0.930 . S
H437 C435 0.929 . S
H438 C453 0.930 . S
H439 C460 0.929 . S
H440 C434 0.930 . S
H441 C433 0.931 . S
H442 C456 0.930 . S
H443 C423 0.930 . S
H444 C429 0.929 . S
H445 C430 0.930 . S
H446 C451 0.930 . S
H447 C426 0.930 . S
H448 C459 0.931 . S
N449 Tb420 2.617 . S
N449 C450 1.379 . S
N449 C453 1.334 . S
C450 N449 1.379 . S
C450 C452 1.416 . S
C450 C458 1.424 . S
C451 H446 0.930 . S
C451 C453 1.390 . S
C451 C454 1.339 . S
C452 C450 1.416 . S
C452 C454 1.416 . S
C452 C485 1.448 . S
C453 H438 0.930 . S
C453 N449 1.334 . S
C453 C451 1.390 . S
C454 C451 1.339 . S
C454 C452 1.416 . S
C454 H461 0.930 . S
N455 Tb420 2.572 . S
N455 C456 1.340 . S
N455 C458 1.361 . S
C456 H442 0.930 . S
C456 N455 1.340 . S
C456 C460 1.407 . S
C457 C458 1.413 . S
C457 C459 1.416 . S
C457 C486 1.427 . S
C458 C450 1.424 . S
C458 N455 1.361 . S
C458 C457 1.413 . S
C459 H448 0.931 . S
C459 C457 1.416 . S
C459 C460 1.332 . S
C460 H439 0.929 . S
C460 C456 1.407 . S
C460 C459 1.332 . S
H461 C454 0.930 . S
H462 C485 0.930 . S
H463 C486 0.929 . S
O464 Tb420 2.465 . S
O464 C484 1.264 . S
O465 Tb420 2.387 . S
O465 C476 1.264 . S
O466 Tb431 2.349 . S
O466 C476 1.243 . S
O467 Tb420 2.428 . S
O467 C484 1.256 . S
O468 Tb420 2.308 . S
O468 C483 1.266 . S
O469 Tb431 2.393 . S
O469 C483 1.248 . S
O470 Tb431 2.465 . S
O470 C495 1.264 . S
O471 Tb431 2.387 . S
O471 C487 1.264 . S
O472 Tb420 2.349 . S
O472 C487 1.243 . S
O473 Tb431 2.428 . S
O473 C495 1.256 . S
O474 Tb431 2.308 . S
O474 C494 1.266 . S
O475 Tb420 2.393 . S
O475 C494 1.248 . S
C476 O465 1.264 . S
C476 O466 1.243 . S
C477 C480 1.399 . S
C477 C482 1.383 . S
C477 C484 1.496 . S
C478 C479 1.399 . S
C478 C482 1.389 . S
C479 C478 1.399 . S
C479 C481 1.380 . S
C479 H496 0.929 . S
C480 C477 1.399 . S
C480 C481 1.392 . S
C480 H497 0.929 . S
C481 C479 1.380 . S
C481 C480 1.392 . S
C481 H498 0.929 . S
C482 C477 1.383 . S
C482 C478 1.389 . S
C482 H499 0.931 . S
C483 O468 1.266 . S
C483 O469 1.248 . S
C484 Tb420 2.802 . S
C484 O464 1.264 . S
C484 O467 1.256 . S
C484 C477 1.496 . S
C485 C452 1.448 . S
C485 H462 0.930 . S
C485 C486 1.328 . S
C486 C457 1.427 . S
C486 H463 0.929 . S
C486 C485 1.328 . S
C487 O471 1.264 . S
C487 O472 1.243 . S
C488 C491 1.399 . S
C488 C492 1.383 . S
C488 C495 1.496 . S
C489 C490 1.399 . S
C489 C492 1.389 . S
C490 C489 1.399 . S
C490 C493 1.380 . S
C490 H500 0.929 . S
C491 C488 1.399 . S
C491 C493 1.392 . S
C491 H501 0.929 . S
C492 C488 1.383 . S
C492 C489 1.389 . S
C492 H502 0.931 . S
C493 C490 1.380 . S
C493 C491 1.392 . S
C493 H503 0.929 . S
C494 O474 1.266 . S
C494 O475 1.248 . S
C495 Tb431 2.802 . S
C495 O470 1.264 . S
C495 O473 1.256 . S
C495 C488 1.496 . S
H496 C479 0.929 . S
H497 C480 0.929 . S
H498 C481 0.929 . S
H499 C482 0.931 . S
H500 C490 0.929 . S
H501 C491 0.929 . S
H502 C492 0.931 . S
H503 C493 0.929 . S
Tb504 N533 2.605 1_545 S
Tb504 N539 2.572 1_545 S
Tb504 O548 2.465 . S
Tb504 O549 2.387 1_545 S
Tb504 O551 2.428 . S
Tb504 O552 2.308 . S
Tb504 O556 2.349 . S
Tb504 O559 2.393 . S
Tb504 C568 2.802 . S
C505 N506 1.379 . S
C505 C508 1.416 . S
C505 C512 1.424 . S
N506 C505 1.379 . S
N506 C509 1.334 . S
N506 Tb515 2.617 . S
C507 C509 1.390 . S
C507 C510 1.339 . S
C507 H527 0.930 . S
C508 C505 1.416 . S
C508 C510 1.416 . S
C508 C514 1.448 . S
C509 N506 1.334 . S
C509 C507 1.390 . S
C509 H520 0.930 . S
C510 C507 1.339 . S
C510 C508 1.416 . S
C510 H531 0.930 . S
C511 C512 1.413 . S
C511 C513 1.427 . S
C511 C517 1.416 . S
C512 C505 1.424 . S
C512 C511 1.413 . S
C512 N516 1.361 . S
C513 C511 1.427 . S
C513 C514 1.328 . S
C513 H528 0.929 . S
C514 C508 1.448 . S
C514 C513 1.328 . S
C514 H529 0.930 . S
Tb515 N506 2.617 . S
Tb515 N516 2.572 . S
Tb515 O550 2.349 1_545 S
Tb515 O553 2.393 . S
Tb515 O554 2.465 . S
Tb515 O555 2.387 . S
Tb515 O557 2.428 . S
Tb515 O558 2.308 . S
Tb515 C579 2.802 . S
N516 C512 1.361 . S
N516 Tb515 2.572 . S
N516 C518 1.340 . S
C517 C511 1.416 . S
C517 C519 1.332 . S
C517 H525 0.931 . S
C518 N516 1.340 . S
C518 C519 1.407 . S
C518 H524 0.930 . S
C519 C517 1.332 . S
C519 C518 1.407 . S
C519 H521 0.929 . S
H520 C509 0.930 . S
H521 C519 0.929 . S
H522 C537 0.930 . S
H523 C544 0.929 . S
H524 C518 0.930 . S
H525 C517 0.931 . S
H526 C540 0.930 . S
H527 C507 0.930 . S
H528 C513 0.929 . S
H529 C514 0.930 . S
H530 C535 0.930 . S
H531 C510 0.930 . S
H532 C543 0.931 . S
N533 Tb504 2.605 1_565 S
N533 C534 1.393 . S
N533 C537 1.335 1_565 S
C534 N533 1.393 . S
C534 C536 1.416 . S
C534 C542 1.424 . S
C535 H530 0.930 . S
C535 C537 1.390 1_565 S
C535 C538 1.339 . S
C536 C534 1.416 . S
C536 C538 1.416 . S
C536 C569 1.448 . S
C537 H522 0.930 . S
C537 N533 1.335 1_545 S
C537 C535 1.390 1_545 S
C538 C535 1.339 . S
C538 C536 1.416 . S
C538 H545 0.930 . S
N539 Tb504 2.572 1_565 S
N539 C540 1.340 . S
N539 C542 1.361 . S
C540 H526 0.930 . S
C540 N539 1.340 . S
C540 C544 1.407 . S
C541 C542 1.413 . S
C541 C543 1.416 . S
C541 C570 1.427 . S
C542 C534 1.424 . S
C542 N539 1.361 . S
C542 C541 1.413 . S
C543 H532 0.931 . S
C543 C541 1.416 . S
C543 C544 1.332 . S
C544 H523 0.929 . S
C544 C540 1.407 . S
C544 C543 1.332 . S
H545 C538 0.930 . S
H546 C569 0.930 . S
H547 C570 0.929 . S
O548 Tb504 2.465 . S
O548 C568 1.264 . S
O549 Tb504 2.387 1_565 S
O549 C560 1.264 . S
O550 Tb515 2.349 1_565 S
O550 C560 1.243 . S
O551 Tb504 2.428 . S
O551 C568 1.256 . S
O552 Tb504 2.308 . S
O552 C567 1.266 . S
O553 Tb515 2.393 . S
O553 C567 1.248 . S
O554 Tb515 2.465 . S
O554 C579 1.264 . S
O555 Tb515 2.387 . S
O555 C571 1.264 . S
O556 Tb504 2.349 . S
O556 C571 1.243 . S
O557 Tb515 2.428 . S
O557 C579 1.256 . S
O558 Tb515 2.308 . S
O558 C578 1.266 . S
O559 Tb504 2.393 . S
O559 C578 1.248 . S
C560 O549 1.264 . S
C560 O550 1.243 . S
C561 C564 1.399 . S
C561 C566 1.383 . S
C561 C568 1.496 . S
C562 C563 1.399 . S
C562 C566 1.389 . S
C563 C562 1.399 . S
C563 C565 1.380 . S
C563 H580 0.929 . S
C564 C561 1.399 . S
C564 C565 1.392 . S
C564 H581 0.929 . S
C565 C563 1.380 . S
C565 C564 1.392 . S
C565 H582 0.929 . S
C566 C561 1.383 . S
C566 C562 1.389 . S
C566 H583 0.931 . S
C567 O552 1.266 . S
C567 O553 1.248 . S
C568 Tb504 2.802 . S
C568 O548 1.264 . S
C568 O551 1.256 . S
C568 C561 1.496 . S
C569 C536 1.448 . S
C569 H546 0.930 . S
C569 C570 1.328 . S
C570 C541 1.427 . S
C570 H547 0.929 . S
C570 C569 1.328 . S
C571 O555 1.264 . S
C571 O556 1.243 . S
C572 C575 1.399 . S
C572 C576 1.383 . S
C572 C579 1.496 1_565 S
C573 C574 1.399 . S
C573 C576 1.389 . S
C574 C573 1.399 . S
C574 C577 1.380 . S
C574 H584 0.929 . S
C575 C572 1.399 . S
C575 C577 1.392 . S
C575 H585 0.929 . S
C576 C572 1.383 . S
C576 C573 1.389 . S
C576 H586 0.931 . S
C577 C574 1.380 . S
C577 C575 1.392 . S
C577 H587 0.929 . S
C578 O558 1.266 . S
C578 O559 1.248 . S
C579 Tb515 2.802 . S
C579 O554 1.264 . S
C579 O557 1.256 . S
C579 C572 1.496 1_545 S
H580 C563 0.929 . S
H581 C564 0.929 . S
H582 C565 0.929 . S
H583 C566 0.931 . S
H584 C574 0.929 . S
H585 C575 0.929 . S
H586 C576 0.931 . S
H587 C577 0.929 . S
Tb588 N617 2.617 . S
Tb588 N623 2.572 . S
Tb588 O632 2.465 . S
Tb588 O633 2.387 . S
Tb588 O635 2.428 . S
Tb588 O636 2.308 . S
Tb588 O640 2.349 . S
Tb588 O643 2.393 . S
Tb588 C652 2.802 . S
C589 N590 1.379 . S
C589 C592 1.416 . S
C589 C596 1.424 . S
N590 C589 1.379 . S
N590 C593 1.334 . S
N590 Tb599 2.617 . S
C591 C593 1.390 . S
C591 C594 1.339 . S
C591 H611 0.930 . S
C592 C589 1.416 . S
C592 C594 1.416 . S
C592 C598 1.448 . S
C593 N590 1.334 . S
C593 C591 1.390 . S
C593 H604 0.930 . S
C594 C591 1.339 . S
C594 C592 1.416 . S
C594 H615 0.930 . S
C595 C596 1.413 . S
C595 C597 1.427 . S
C595 C601 1.416 . S
C596 C589 1.424 . S
C596 C595 1.413 . S
C596 N600 1.361 . S
C597 C595 1.427 . S
C597 C598 1.328 . S
C597 H612 0.929 . S
C598 C592 1.448 . S
C598 C597 1.328 . S
C598 H613 0.930 . S
Tb599 N590 2.617 . S
Tb599 N600 2.572 . S
Tb599 O634 2.349 . S
Tb599 O637 2.393 . S
Tb599 O638 2.465 . S
Tb599 O639 2.387 . S
Tb599 O641 2.428 . S
Tb599 O642 2.308 . S
Tb599 C663 2.802 . S
N600 C596 1.361 . S
N600 Tb599 2.572 . S
N600 C602 1.340 . S
C601 C595 1.416 . S
C601 C603 1.332 . S
C601 H609 0.931 . S
C602 N600 1.340 . S
C602 C603 1.407 . S
C602 H608 0.930 . S
C603 C601 1.332 . S
C603 C602 1.407 . S
C603 H605 0.929 . S
H604 C593 0.930 . S
H605 C603 0.929 . S
H606 C621 0.930 . S
H607 C628 0.929 . S
H608 C602 0.930 . S
H609 C601 0.931 . S
H610 C624 0.930 . S
H611 C591 0.930 . S
H612 C597 0.929 . S
H613 C598 0.930 . S
H614 C619 0.930 . S
H615 C594 0.930 . S
H616 C627 0.931 . S
N617 Tb588 2.617 . S
N617 C618 1.379 . S
N617 C621 1.334 . S
C618 N617 1.379 . S
C618 C620 1.416 . S
C618 C626 1.424 . S
C619 H614 0.930 . S
C619 C621 1.390 . S
C619 C622 1.339 . S
C620 C618 1.416 . S
C620 C622 1.416 . S
C620 C653 1.448 . S
C621 H606 0.930 . S
C621 N617 1.334 . S
C621 C619 1.390 . S
C622 C619 1.339 . S
C622 C620 1.416 . S
C622 H629 0.930 . S
N623 Tb588 2.572 . S
N623 C624 1.340 . S
N623 C626 1.361 . S
C624 H610 0.930 . S
C624 N623 1.340 . S
C624 C628 1.407 . S
C625 C626 1.413 . S
C625 C627 1.416 . S
C625 C654 1.427 . S
C626 C618 1.424 . S
C626 N623 1.361 . S
C626 C625 1.413 . S
C627 H616 0.931 . S
C627 C625 1.416 . S
C627 C628 1.332 . S
C628 H607 0.929 . S
C628 C624 1.407 . S
C628 C627 1.332 . S
H629 C622 0.930 . S
H630 C653 0.930 . S
H631 C654 0.929 . S
O632 Tb588 2.465 . S
O632 C652 1.264 . S
O633 Tb588 2.387 . S
O633 C644 1.264 . S
O634 Tb599 2.349 . S
O634 C644 1.243 . S
O635 Tb588 2.428 . S
O635 C652 1.256 . S
O636 Tb588 2.308 . S
O636 C651 1.266 . S
O637 Tb599 2.393 . S
O637 C651 1.248 . S
O638 Tb599 2.465 . S
O638 C663 1.264 . S
O639 Tb599 2.387 . S
O639 C655 1.264 . S
O640 Tb588 2.349 . S
O640 C655 1.243 . S
O641 Tb599 2.428 . S
O641 C663 1.256 . S
O642 Tb599 2.308 . S
O642 C662 1.266 . S
O643 Tb588 2.393 . S
O643 C662 1.248 . S
C644 O633 1.264 . S
C644 O634 1.243 . S
C645 C648 1.399 . S
C645 C650 1.383 . S
C645 C652 1.496 . S
C646 C647 1.399 . S
C646 C650 1.389 . S
C647 C646 1.399 . S
C647 C649 1.380 . S
C647 H664 0.929 . S
C648 C645 1.399 . S
C648 C649 1.392 . S
C648 H665 0.929 . S
C649 C647 1.380 . S
C649 C648 1.392 . S
C649 H666 0.929 . S
C650 C645 1.383 . S
C650 C646 1.389 . S
C650 H667 0.931 . S
C651 O636 1.266 . S
C651 O637 1.248 . S
C652 Tb588 2.802 . S
C652 O632 1.264 . S
C652 O635 1.256 . S
C652 C645 1.496 . S
C653 C620 1.448 . S
C653 H630 0.930 . S
C653 C654 1.328 . S
C654 C625 1.427 . S
C654 H631 0.929 . S
C654 C653 1.328 . S
C655 O639 1.264 . S
C655 O640 1.243 . S
C656 C659 1.399 . S
C656 C660 1.383 . S
C656 C663 1.496 . S
C657 C658 1.399 . S
C657 C660 1.389 . S
C658 C657 1.399 . S
C658 C661 1.380 . S
C658 H668 0.929 . S
C659 C656 1.399 . S
C659 C661 1.392 . S
C659 H669 0.929 . S
C660 C656 1.383 . S
C660 C657 1.389 . S
C660 H670 0.931 . S
C661 C658 1.380 . S
C661 C659 1.392 . S
C661 H671 0.929 . S
C662 O642 1.266 . S
C662 O643 1.248 . S
C663 Tb599 2.802 . S
C663 O638 1.264 . S
C663 O641 1.256 . S
C663 C656 1.496 . S
H664 C647 0.929 . S
H665 C648 0.929 . S
H666 C649 0.929 . S
H667 C650 0.931 . S
H668 C658 0.929 . S
H669 C659 0.929 . S
H670 C660 0.931 . S
H671 C661 0.929 . S
Tb672 N701 2.617 . S
Tb672 N707 2.572 . S
Tb672 O716 2.465 . S
Tb672 O717 2.387 1_565 S
Tb672 O719 2.428 . S
Tb672 O720 2.308 1_565 S
Tb672 O724 2.349 1_565 S
Tb672 O727 2.393 1_565 S
Tb672 C736 2.802 . S
C673 N674 1.379 1_455 S
C673 C676 1.416 1_455 S
C673 C680 1.424 . S
N674 C673 1.379 1_655 S
N674 C677 1.334 . S
N674 Tb683 2.617 1_655 S
C675 C677 1.390 . S
C675 C678 1.339 . S
C675 H695 0.930 . S
C676 C673 1.416 1_655 S
C676 C678 1.416 . S
C676 C682 1.448 1_655 S
C677 N674 1.334 . S
C677 C675 1.390 . S
C677 H688 0.930 . S
C678 C675 1.339 . S
C678 C676 1.416 . S
C678 H699 0.930 . S
C679 C680 1.413 . S
C679 C681 1.427 . S
C679 C685 1.416 . S
C680 C673 1.424 . S
C680 C679 1.413 . S
C680 N684 1.361 . S
C681 C679 1.427 . S
C681 C682 1.328 . S
C681 H696 0.929 . S
C682 C676 1.448 1_455 S
C682 C681 1.328 . S
C682 H697 0.902 1_455 S
Tb683 N674 2.617 1_455 S
Tb683 N684 2.572 . S
Tb683 O718 2.349 . S
Tb683 O721 2.393 1_455 S
Tb683 O722 2.465 . S
Tb683 O723 2.387 . S
Tb683 O725 2.428 1_455 S
Tb683 O726 2.308 . S
Tb683 C747 2.802 . S
N684 C680 1.361 . S
N684 Tb683 2.572 . S
N684 C686 1.340 . S
C685 C679 1.416 . S
C685 C687 1.332 . S
C685 H693 0.931 . S
C686 N684 1.340 . S
C686 C687 1.407 . S
C686 H692 0.930 . S
C687 C685 1.332 . S
C687 C686 1.407 . S
C687 H689 0.929 . S
H688 C677 0.930 . S
H689 C687 0.929 . S
H690 C705 0.930 1_545 S
H691 C712 0.929 . S
H692 C686 0.930 . S
H693 C685 0.931 . S
H694 C708 0.921 1_655 S
H695 C675 0.930 . S
H696 C681 0.929 . S
H697 C682 0.902 1_655 S
H698 C703 0.930 . S
H699 C678 0.930 . S
H700 C711 0.931 . S
N701 Tb672 2.617 . S
N701 C702 1.379 . S
N701 C705 1.334 . S
C702 N701 1.379 . S
C702 C704 1.416 . S
C702 C710 1.424 . S
C703 H698 0.930 . S
C703 C705 1.390 . S
C703 C706 1.339 . S
C704 C702 1.416 . S
C704 C706 1.416 . S
C704 C737 1.448 . S
C705 H690 0.930 1_565 S
C705 N701 1.334 . S
C705 C703 1.390 . S
C706 C703 1.339 . S
C706 C704 1.416 . S
C706 H713 0.930 . S
N707 Tb672 2.572 . S
N707 C708 1.353 . S
N707 C710 1.361 . S
C708 H694 0.921 1_455 S
C708 N707 1.353 . S
C708 C712 1.403 1_455 S
C709 C710 1.413 . S
C709 C711 1.416 1_455 S
C709 C738 1.427 . S
C710 C702 1.424 . S
C710 N707 1.361 . S
C710 C709 1.413 . S
C711 H700 0.931 . S
C711 C709 1.416 1_655 S
C711 C712 1.332 . S
C712 H691 0.929 . S
C712 C708 1.403 1_655 S
C712 C711 1.332 . S
H713 C706 0.930 . S
H714 C737 0.930 . S
H715 C738 0.929 . S
O716 Tb672 2.465 . S
O716 C736 1.264 . S
O717 Tb672 2.387 1_545 S
O717 C728 1.264 . S
O718 Tb683 2.349 . S
O718 C728 1.243 . S
O719 Tb672 2.428 . S
O719 C736 1.256 . S
O720 Tb672 2.308 1_545 S
O720 C735 1.266 1_455 S
O721 Tb683 2.393 1_655 S
O721 C735 1.248 . S
O722 Tb683 2.465 . S
O722 C747 1.264 . S
O723 Tb683 2.387 . S
O723 C739 1.264 . S
O724 Tb672 2.349 1_545 S
O724 C739 1.243 . S
O725 Tb683 2.428 1_655 S
O725 C747 1.256 1_655 S
O726 Tb683 2.308 . S
O726 C746 1.266 . S
O727 Tb672 2.393 1_545 S
O727 C746 1.248 . S
C728 O717 1.264 . S
C728 O718 1.243 . S
C729 C732 1.399 . S
C729 C734 1.383 . S
C729 C736 1.496 . S
C730 C731 1.399 . S
C730 C734 1.389 . S
C731 C730 1.399 . S
C731 C733 1.380 . S
C731 H748 0.929 . S
C732 C729 1.399 . S
C732 C733 1.392 . S
C732 H749 0.929 . S
C733 C731 1.380 . S
C733 C732 1.392 . S
C733 H750 0.929 . S
C734 C729 1.383 . S
C734 C730 1.389 . S
C734 H751 0.931 . S
C735 O720 1.266 1_655 S
C735 O721 1.248 . S
C736 Tb672 2.802 . S
C736 O716 1.264 . S
C736 O719 1.256 . S
C736 C729 1.496 . S
C737 C704 1.448 . S
C737 H714 0.930 . S
C737 C738 1.328 . S
C738 C709 1.427 . S
C738 H715 0.929 . S
C738 C737 1.328 . S
C739 O723 1.264 . S
C739 O724 1.243 . S
C740 C743 1.399 1_455 S
C740 C744 1.383 . S
C740 C747 1.496 . S
C741 C742 1.345 1_455 S
C741 C744 1.389 . S
C742 C741 1.345 1_655 S
C742 C745 1.418 . S
C742 H752 0.946 . S
C743 C740 1.399 1_655 S
C743 C745 1.392 . S
C743 H753 0.929 . S
C744 C740 1.383 . S
C744 C741 1.389 . S
C744 H754 0.931 . S
C745 C742 1.418 . S
C745 C743 1.392 . S
C745 H755 0.929 . S
C746 O726 1.266 . S
C746 O727 1.248 . S
C747 Tb683 2.802 . S
C747 O722 1.264 . S
C747 O725 1.256 1_455 S
C747 C740 1.496 . S
H748 C731 0.929 . S
H749 C732 0.929 . S
H750 C733 0.929 . S
H751 C734 0.931 . S
H752 C742 0.946 . S
H753 C743 0.929 . S
H754 C744 0.931 . S
H755 C745 0.929 . S
Tb756 N785 2.617 . S
Tb756 N791 2.572 . S
Tb756 O800 2.465 . S
Tb756 O801 2.387 . S
Tb756 O803 2.428 . S
Tb756 O804 2.308 . S
Tb756 O808 2.349 . S
Tb756 O811 2.393 . S
Tb756 C820 2.802 . S
C757 N758 1.379 . S
C757 C760 1.416 . S
C757 C764 1.424 . S
N758 C757 1.379 . S
N758 C761 1.334 . S
N758 Tb767 2.617 . S
C759 C761 1.390 . S
C759 C762 1.339 . S
C759 H779 0.930 . S
C760 C757 1.416 . S
C760 C762 1.416 . S
C760 C766 1.448 . S
C761 N758 1.334 . S
C761 C759 1.390 . S
C761 H772 0.930 . S
C762 C759 1.339 . S
C762 C760 1.416 . S
C762 H783 0.930 . S
C763 C764 1.413 . S
C763 C765 1.427 . S
C763 C769 1.416 . S
C764 C757 1.424 . S
C764 C763 1.413 . S
C764 N768 1.361 . S
C765 C763 1.427 . S
C765 C766 1.328 . S
C765 H780 0.929 . S
C766 C760 1.448 . S
C766 C765 1.328 . S
C766 H781 0.930 . S
Tb767 N758 2.617 . S
Tb767 N768 2.572 . S
Tb767 O802 2.349 . S
Tb767 O805 2.393 . S
Tb767 O806 2.465 . S
Tb767 O807 2.387 . S
Tb767 O809 2.428 . S
Tb767 O810 2.308 . S
Tb767 C831 2.802 . S
N768 C764 1.361 . S
N768 Tb767 2.572 . S
N768 C770 1.340 . S
C769 C763 1.416 . S
C769 C771 1.332 . S
C769 H777 0.931 . S
C770 N768 1.340 . S
C770 C771 1.407 . S
C770 H776 0.930 . S
C771 C769 1.332 . S
C771 C770 1.407 . S
C771 H773 0.929 . S
H772 C761 0.930 . S
H773 C771 0.929 . S
H774 C789 0.930 . S
H775 C796 0.929 . S
H776 C770 0.930 . S
H777 C769 0.931 . S
H778 C792 0.930 . S
H779 C759 0.930 . S
H780 C765 0.929 . S
H781 C766 0.930 . S
H782 C787 0.930 . S
H783 C762 0.930 . S
H784 C795 0.931 . S
N785 Tb756 2.617 . S
N785 C786 1.379 . S
N785 C789 1.334 . S
C786 N785 1.379 . S
C786 C788 1.416 . S
C786 C794 1.424 . S
C787 H782 0.930 . S
C787 C789 1.390 . S
C787 C790 1.339 . S
C788 C786 1.416 . S
C788 C790 1.416 . S
C788 C821 1.448 . S
C789 H774 0.930 . S
C789 N785 1.334 . S
C789 C787 1.390 . S
C790 C787 1.339 . S
C790 C788 1.416 . S
C790 H797 0.930 . S
N791 Tb756 2.572 . S
N791 C792 1.340 . S
N791 C794 1.361 . S
C792 H778 0.930 . S
C792 N791 1.340 . S
C792 C796 1.407 . S
C793 C794 1.413 . S
C793 C795 1.416 . S
C793 C822 1.427 . S
C794 C786 1.424 . S
C794 N791 1.361 . S
C794 C793 1.413 . S
C795 H784 0.931 . S
C795 C793 1.416 . S
C795 C796 1.332 . S
C796 H775 0.929 . S
C796 C792 1.407 . S
C796 C795 1.332 . S
H797 C790 0.930 . S
H798 C821 0.930 . S
H799 C822 0.929 . S
O800 Tb756 2.465 . S
O800 C820 1.264 . S
O801 Tb756 2.387 . S
O801 C812 1.264 . S
O802 Tb767 2.349 . S
O802 C812 1.243 . S
O803 Tb756 2.428 . S
O803 C820 1.256 . S
O804 Tb756 2.308 . S
O804 C819 1.266 . S
O805 Tb767 2.393 . S
O805 C819 1.248 . S
O806 Tb767 2.465 . S
O806 C831 1.264 . S
O807 Tb767 2.387 . S
O807 C823 1.264 . S
O808 Tb756 2.349 . S
O808 C823 1.243 . S
O809 Tb767 2.428 . S
O809 C831 1.256 . S
O810 Tb767 2.308 . S
O810 C830 1.266 . S
O811 Tb756 2.393 . S
O811 C830 1.248 . S
C812 O801 1.264 . S
C812 O802 1.243 . S
C813 C816 1.399 . S
C813 C818 1.383 . S
C813 C820 1.496 . S
C814 C815 1.399 . S
C814 C818 1.389 . S
C815 C814 1.399 . S
C815 C817 1.380 . S
C815 H832 0.929 . S
C816 C813 1.399 . S
C816 C817 1.392 . S
C816 H833 0.929 . S
C817 C815 1.380 . S
C817 C816 1.392 . S
C817 H834 0.929 . S
C818 C813 1.383 . S
C818 C814 1.389 . S
C818 H835 0.931 . S
C819 O804 1.266 . S
C819 O805 1.248 . S
C820 Tb756 2.802 . S
C820 O800 1.264 . S
C820 O803 1.256 . S
C820 C813 1.496 . S
C821 C788 1.448 . S
C821 H798 0.930 . S
C821 C822 1.328 . S
C822 C793 1.427 . S
C822 H799 0.929 . S
C822 C821 1.328 . S
C823 O807 1.264 . S
C823 O808 1.243 . S
C824 C827 1.399 . S
C824 C828 1.383 . S
C824 C831 1.496 . S
C825 C826 1.399 . S
C825 C828 1.389 . S
C826 C825 1.399 . S
C826 C829 1.380 . S
C826 H836 0.929 . S
C827 C824 1.399 . S
C827 C829 1.392 . S
C827 H837 0.929 . S
C828 C824 1.383 . S
C828 C825 1.389 . S
C828 H838 0.931 . S
C829 C826 1.380 . S
C829 C827 1.392 . S
C829 H839 0.929 . S
C830 O810 1.266 . S
C830 O811 1.248 . S
C831 Tb767 2.802 . S
C831 O806 1.264 . S
C831 O809 1.256 . S
C831 C824 1.496 . S
H832 C815 0.929 . S
H833 C816 0.929 . S
H834 C817 0.929 . S
H835 C818 0.931 . S
H836 C826 0.929 . S
H837 C827 0.929 . S
H838 C828 0.931 . S
H839 C829 0.929 . S
Tb840 N869 2.617 . S
Tb840 N875 2.572 . S
Tb840 O884 2.465 . S
Tb840 O885 2.387 1_556 S
Tb840 O887 2.428 . S
Tb840 O888 2.305 1_556 S
Tb840 O892 2.349 1_556 S
Tb840 O895 2.393 1_556 S
Tb840 C904 2.802 . S
C841 N842 1.390 . S
C841 C844 1.453 . S
C841 C848 1.376 1_565 S
N842 C841 1.390 . S
N842 C845 1.334 . S
N842 Tb851 2.617 1_565 S
C843 C845 1.390 . S
C843 C846 1.339 . S
C843 H863 0.930 . S
C844 C841 1.453 . S
C844 C846 1.416 . S
C844 C850 1.448 . S
C845 N842 1.334 . S
C845 C843 1.390 . S
C845 H856 0.930 . S
C846 C843 1.339 . S
C846 C844 1.416 . S
C846 H867 0.930 . S
C847 C848 1.413 . S
C847 C849 1.427 . S
C847 C853 1.416 . S
C848 C841 1.376 1_545 S
C848 C847 1.413 . S
C848 N852 1.361 . S
C849 C847 1.427 . S
C849 C850 1.328 1_545 S
C849 H864 0.929 . S
C850 C844 1.448 . S
C850 C849 1.328 1_565 S
C850 H865 0.930 . S
Tb851 N842 2.617 1_545 S
Tb851 N852 2.572 . S
Tb851 O886 2.349 . S
Tb851 O889 2.393 1_545 S
Tb851 O890 2.465 . S
Tb851 O891 2.387 . S
Tb851 O893 2.428 1_545 S
Tb851 O894 2.308 . S
Tb851 C915 2.802 . S
N852 C848 1.361 . S
N852 Tb851 2.572 . S
N852 C854 1.340 . S
C853 C847 1.416 . S
C853 C855 1.332 . S
C853 H861 0.931 . S
C854 N852 1.340 . S
C854 C855 1.407 . S
C854 H860 0.930 . S
C855 C853 1.332 . S
C855 C854 1.407 . S
C855 H857 0.929 . S
H856 C845 0.930 . S
H857 C855 0.929 . S
H858 C873 0.930 1_554 S
H859 C880 0.929 . S
H860 C854 0.930 . S
H861 C853 0.931 . S
H862 C876 0.966 . S
H863 C843 0.930 . S
H864 C849 0.929 . S
H865 C850 0.930 . S
H866 C871 0.930 . S
H867 C846 0.930 . S
H868 C879 0.936 . S
N869 Tb840 2.617 . S
N869 C870 1.379 . S
N869 C873 1.334 . S
C870 N869 1.379 . S
C870 C872 1.416 . S
C870 C878 1.424 . S
C871 H866 0.930 . S
C871 C873 1.390 . S
C871 C874 1.339 . S
C872 C870 1.416 . S
C872 C874 1.416 . S
C872 C905 1.448 . S
C873 H858 0.930 1_556 S
C873 N869 1.334 . S
C873 C871 1.390 . S
C874 C871 1.339 . S
C874 C872 1.416 . S
C874 H881 0.930 . S
N875 Tb840 2.572 . S
N875 C876 1.340 . S
N875 C878 1.361 . S
C876 H862 0.966 . S
C876 N875 1.340 . S
C876 C880 1.407 1_545 S
C877 C878 1.413 . S
C877 C879 1.416 . S
C877 C906 1.427 . S
C878 C870 1.424 . S
C878 N875 1.361 . S
C878 C877 1.413 . S
C879 H868 0.936 . S
C879 C877 1.416 . S
C879 C880 1.332 1_545 S
C880 H859 0.929 . S
C880 C876 1.407 1_565 S
C880 C879 1.332 1_565 S
H881 C874 0.930 . S
H882 C905 0.930 . S
H883 C906 0.929 . S
O884 Tb840 2.465 . S
O884 C904 1.264 . S
O885 Tb840 2.387 1_554 S
O885 C896 1.264 . S
O886 Tb851 2.349 . S
O886 C896 1.243 . S
O887 Tb840 2.428 . S
O887 C904 1.256 . S
O888 Tb840 2.305 1_554 S
O888 C903 1.272 1_545 S
O889 Tb851 2.393 1_565 S
O889 C903 1.248 . S
O890 Tb851 2.465 . S
O890 C915 1.264 . S
O891 Tb851 2.387 . S
O891 C907 1.264 . S
O892 Tb840 2.349 1_554 S
O892 C907 1.243 . S
O893 Tb851 2.428 1_565 S
O893 C915 1.256 1_565 S
O894 Tb851 2.308 . S
O894 C914 1.266 . S
O895 Tb840 2.393 1_554 S
O895 C914 1.248 . S
C896 O885 1.264 . S
C896 O886 1.243 . S
C897 C900 1.399 . S
C897 C902 1.383 . S
C897 C904 1.496 . S
C898 C899 1.399 . S
C898 C902 1.389 . S
C899 C898 1.399 . S
C899 C901 1.380 . S
C899 H916 0.929 . S
C900 C897 1.399 . S
C900 C901 1.392 . S
C900 H917 0.929 . S
C901 C899 1.380 . S
C901 C900 1.392 . S
C901 H918 0.929 . S
C902 C897 1.383 . S
C902 C898 1.389 . S
C902 H919 0.931 . S
C903 O888 1.272 1_565 S
C903 O889 1.248 . S
C904 Tb840 2.802 . S
C904 O884 1.264 . S
C904 O887 1.256 . S
C904 C897 1.496 . S
C905 C872 1.448 . S
C905 H882 0.930 . S
C905 C906 1.328 . S
C906 C877 1.427 . S
C906 H883 0.929 . S
C906 C905 1.328 . S
C907 O891 1.264 . S
C907 O892 1.243 . S
C908 C911 1.399 . S
C908 C912 1.383 1_565 S
C908 C915 1.496 1_565 S
C909 C910 1.399 1_545 S
C909 C912 1.389 . S
C910 C909 1.399 1_565 S
C910 C913 1.380 . S
C910 H920 0.929 . S
C911 C908 1.399 . S
C911 C913 1.392 . S
C911 H921 0.929 . S
C912 C908 1.383 1_545 S
C912 C909 1.389 . S
C912 H922 0.931 . S
C913 C910 1.380 . S
C913 C911 1.392 . S
C913 H923 0.929 . S
C914 O894 1.266 . S
C914 O895 1.248 . S
C915 Tb851 2.802 . S
C915 O890 1.264 . S
C915 O893 1.256 1_545 S
C915 C908 1.496 1_545 S
H916 C899 0.929 . S
H917 C900 0.929 . S
H918 C901 0.929 . S
H919 C902 0.931 . S
H920 C910 0.929 . S
H921 C911 0.929 . S
H922 C912 0.931 . S
H923 C913 0.929 . S
Tb924 N953 2.617 . S
Tb924 N959 2.572 . S
Tb924 O968 2.465 . S
Tb924 O969 2.387 . S
Tb924 O971 2.428 . S
Tb924 O972 2.308 . S
Tb924 O976 2.349 . S
Tb924 O979 2.393 . S
Tb924 C988 2.802 . S
C925 N926 1.379 . S
C925 C928 1.416 . S
C925 C932 1.424 . S
N926 C925 1.379 . S
N926 C929 1.334 . S
N926 Tb935 2.617 . S
C927 C929 1.390 . S
C927 C930 1.339 . S
C927 H947 0.930 . S
C928 C925 1.416 . S
C928 C930 1.416 . S
C928 C934 1.448 . S
C929 N926 1.334 . S
C929 C927 1.390 . S
C929 H940 0.930 . S
C930 C927 1.339 . S
C930 C928 1.416 . S
C930 H951 0.930 . S
C931 C932 1.413 . S
C931 C933 1.427 . S
C931 C937 1.416 . S
C932 C925 1.424 . S
C932 C931 1.413 . S
C932 N936 1.361 . S
C933 C931 1.427 . S
C933 C934 1.328 . S
C933 H948 0.929 . S
C934 C928 1.448 . S
C934 C933 1.328 . S
C934 H949 0.930 . S
Tb935 N926 2.617 . S
Tb935 N936 2.572 . S
Tb935 O970 2.349 . S
Tb935 O973 2.393 . S
Tb935 O974 2.465 . S
Tb935 O975 2.387 . S
Tb935 O977 2.428 . S
Tb935 O978 2.308 . S
Tb935 C999 2.802 . S
N936 C932 1.361 . S
N936 Tb935 2.572 . S
N936 C938 1.340 . S
C937 C931 1.416 . S
C937 C939 1.332 . S
C937 H945 0.931 . S
C938 N936 1.340 . S
C938 C939 1.407 . S
C938 H944 0.930 . S
C939 C937 1.332 . S
C939 C938 1.407 . S
C939 H941 0.929 . S
H940 C929 0.930 . S
H941 C939 0.929 . S
H942 C957 0.930 . S
H943 C964 0.929 . S
H944 C938 0.930 . S
H945 C937 0.931 . S
H946 C960 0.930 . S
H947 C927 0.930 . S
H948 C933 0.929 . S
H949 C934 0.930 . S
H950 C955 0.930 . S
H951 C930 0.930 . S
H952 C963 0.931 . S
N953 Tb924 2.617 . S
N953 C954 1.379 . S
N953 C957 1.334 . S
C954 N953 1.379 . S
C954 C956 1.416 . S
C954 C962 1.424 . S
C955 H950 0.930 . S
C955 C957 1.390 . S
C955 C958 1.339 . S
C956 C954 1.416 . S
C956 C958 1.416 . S
C956 C989 1.448 . S
C957 H942 0.930 . S
C957 N953 1.334 . S
C957 C955 1.390 . S
C958 C955 1.339 . S
C958 C956 1.416 . S
C958 H965 0.930 . S
N959 Tb924 2.572 . S
N959 C960 1.340 . S
N959 C962 1.361 . S
C960 H946 0.930 . S
C960 N959 1.340 . S
C960 C964 1.407 . S
C961 C962 1.413 . S
C961 C963 1.416 . S
C961 C990 1.427 . S
C962 C954 1.424 . S
C962 N959 1.361 . S
C962 C961 1.413 . S
C963 H952 0.931 . S
C963 C961 1.416 . S
C963 C964 1.332 . S
C964 H943 0.929 . S
C964 C960 1.407 . S
C964 C963 1.332 . S
H965 C958 0.930 . S
H966 C989 0.930 . S
H967 C990 0.929 . S
O968 Tb924 2.465 . S
O968 C988 1.264 . S
O969 Tb924 2.387 . S
O969 C980 1.264 . S
O970 Tb935 2.349 . S
O970 C980 1.243 . S
O971 Tb924 2.428 . S
O971 C988 1.256 . S
O972 Tb924 2.308 . S
O972 C987 1.266 . S
O973 Tb935 2.393 . S
O973 C987 1.248 . S
O974 Tb935 2.465 . S
O974 C999 1.264 . S
O975 Tb935 2.387 . S
O975 C991 1.264 . S
O976 Tb924 2.349 . S
O976 C991 1.243 . S
O977 Tb935 2.428 . S
O977 C999 1.256 . S
O978 Tb935 2.308 . S
O978 C998 1.266 . S
O979 Tb924 2.393 . S
O979 C998 1.248 . S
C980 O969 1.264 . S
C980 O970 1.243 . S
C981 C984 1.399 . S
C981 C986 1.383 . S
C981 C988 1.496 . S
C982 C983 1.399 . S
C982 C986 1.389 . S
C983 C982 1.399 . S
C983 C985 1.380 . S
C983 H1000 0.929 . S
C984 C981 1.399 . S
C984 C985 1.392 . S
C984 H1001 0.929 . S
C985 C983 1.380 . S
C985 C984 1.392 . S
C985 H1002 0.929 . S
C986 C981 1.383 . S
C986 C982 1.389 . S
C986 H1003 0.931 . S
C987 O972 1.266 . S
C987 O973 1.248 . S
C988 Tb924 2.802 . S
C988 O968 1.264 . S
C988 O971 1.256 . S
C988 C981 1.496 . S
C989 C956 1.448 . S
C989 H966 0.930 . S
C989 C990 1.328 . S
C990 C961 1.427 . S
C990 H967 0.929 . S
C990 C989 1.328 . S
C991 O975 1.264 . S
C991 O976 1.243 . S
C992 C995 1.399 . S
C992 C996 1.383 . S
C992 C999 1.496 . S
C993 C994 1.399 . S
C993 C996 1.389 . S
C994 C993 1.399 . S
C994 C997 1.380 . S
C994 H1004 0.929 . S
C995 C992 1.399 . S
C995 C997 1.392 . S
C995 H1005 0.929 . S
C996 C992 1.383 . S
C996 C993 1.389 . S
C996 H1006 0.931 . S
C997 C994 1.380 . S
C997 C995 1.392 . S
C997 H1007 0.929 . S
C998 O978 1.266 . S
C998 O979 1.248 . S
C999 Tb935 2.802 . S
C999 O974 1.264 . S
C999 O977 1.256 . S
C999 C992 1.496 . S
H1000 C983 0.929 . S
H1001 C984 0.929 . S
H1002 C985 0.929 . S
H1003 C986 0.931 . S
H1004 C994 0.929 . S
H1005 C995 0.929 . S
H1006 C996 0.931 . S
H1007 C997 0.929 . S
Tb1008 N1037 2.617 1_554 S
Tb1008 N1043 2.572 1_554 S
Tb1008 O1052 2.465 . S
Tb1008 O1053 2.387 1_554 S
Tb1008 O1055 2.428 . S
Tb1008 O1056 2.308 . S
Tb1008 O1060 2.349 . S
Tb1008 O1063 2.393 . S
Tb1008 C1072 2.802 . S
C1009 N1010 1.379 . S
C1009 C1012 1.416 . S
C1009 C1016 1.424 . S
N1010 C1009 1.379 . S
N1010 C1013 1.334 . S
N1010 Tb1019 2.617 . S
C1011 C1013 1.390 . S
C1011 C1014 1.339 . S
C1011 H1031 0.930 . S
C1012 C1009 1.416 . S
C1012 C1014 1.416 . S
C1012 C1018 1.448 . S
C1013 N1010 1.334 . S
C1013 C1011 1.390 . S
C1013 H1024 0.930 . S
C1014 C1011 1.339 . S
C1014 C1012 1.416 . S
C1014 H1035 0.930 . S
C1015 C1016 1.413 . S
C1015 C1017 1.427 . S
C1015 C1021 1.416 . S
C1016 C1009 1.424 . S
C1016 C1015 1.413 . S
C1016 N1020 1.361 . S
C1017 C1015 1.427 . S
C1017 C1018 1.328 . S
C1017 H1032 0.929 . S
C1018 C1012 1.448 . S
C1018 C1017 1.328 . S
C1018 H1033 0.930 . S
Tb1019 N1010 2.617 . S
Tb1019 N1020 2.572 . S
Tb1019 O1054 2.349 1_554 S
Tb1019 O1057 2.393 . S
Tb1019 O1058 2.465 . S
Tb1019 O1059 2.387 . S
Tb1019 O1061 2.428 . S
Tb1019 O1062 2.308 . S
Tb1019 C1083 2.802 . S
N1020 C1016 1.361 . S
N1020 Tb1019 2.572 . S
N1020 C1022 1.340 . S
C1021 C1015 1.416 . S
C1021 C1023 1.332 . S
C1021 H1029 0.931 . S
C1022 N1020 1.340 . S
C1022 C1023 1.407 . S
C1022 H1028 0.930 . S
C1023 C1021 1.332 . S
C1023 C1022 1.407 . S
C1023 H1025 0.929 . S
H1024 C1013 0.930 . S
H1025 C1023 0.929 . S
H1026 C1041 0.930 1_554 S
H1027 C1048 0.929 . S
H1028 C1022 0.930 . S
H1029 C1021 0.931 . S
H1030 C1044 0.930 1_554 S
H1031 C1011 0.930 . S
H1032 C1017 0.929 . S
H1033 C1018 0.930 . S
H1034 C1039 0.930 . S
H1035 C1014 0.930 . S
H1036 C1047 0.931 . S
N1037 Tb1008 2.617 1_556 S
N1037 C1038 1.379 . S
N1037 C1041 1.334 . S
C1038 N1037 1.379 . S
C1038 C1040 1.416 . S
C1038 C1046 1.424 . S
C1039 H1034 0.930 . S
C1039 C1041 1.390 . S
C1039 C1042 1.339 . S
C1040 C1038 1.416 . S
C1040 C1042 1.416 . S
C1040 C1073 1.448 . S
C1041 H1026 0.930 1_556 S
C1041 N1037 1.334 . S
C1041 C1039 1.390 . S
C1042 C1039 1.339 . S
C1042 C1040 1.416 . S
C1042 H1049 0.930 . S
N1043 Tb1008 2.572 1_556 S
N1043 C1044 1.340 . S
N1043 C1046 1.361 . S
C1044 H1030 0.930 1_556 S
C1044 N1043 1.340 . S
C1044 C1048 1.407 . S
C1045 C1046 1.413 . S
C1045 C1047 1.416 . S
C1045 C1074 1.427 . S
C1046 C1038 1.424 . S
C1046 N1043 1.361 . S
C1046 C1045 1.413 . S
C1047 H1036 0.931 . S
C1047 C1045 1.416 . S
C1047 C1048 1.332 . S
C1048 H1027 0.929 . S
C1048 C1044 1.407 . S
C1048 C1047 1.332 . S
H1049 C1042 0.930 . S
H1050 C1073 0.930 . S
H1051 C1074 0.929 . S
O1052 Tb1008 2.465 . S
O1052 C1072 1.264 . S
O1053 Tb1008 2.387 1_556 S
O1053 C1064 1.264 . S
O1054 Tb1019 2.349 1_556 S
O1054 C1064 1.243 . S
O1055 Tb1008 2.428 . S
O1055 C1072 1.256 . S
O1056 Tb1008 2.308 . S
O1056 C1071 1.266 . S
O1057 Tb1019 2.393 . S
O1057 C1071 1.248 . S
O1058 Tb1019 2.465 . S
O1058 C1083 1.264 . S
O1059 Tb1019 2.387 . S
O1059 C1075 1.264 . S
O1060 Tb1008 2.349 . S
O1060 C1075 1.243 . S
O1061 Tb1019 2.428 . S
O1061 C1083 1.256 . S
O1062 Tb1019 2.308 . S
O1062 C1082 1.266 . S
O1063 Tb1008 2.393 . S
O1063 C1082 1.248 . S
C1064 O1053 1.264 . S
C1064 O1054 1.243 . S
C1065 C1068 1.399 . S
C1065 C1070 1.383 . S
C1065 C1072 1.496 . S
C1066 C1067 1.399 . S
C1066 C1070 1.389 . S
C1067 C1066 1.399 . S
C1067 C1069 1.380 . S
C1067 H1084 0.929 . S
C1068 C1065 1.399 . S
C1068 C1069 1.392 . S
C1068 H1085 0.929 . S
C1069 C1067 1.380 . S
C1069 C1068 1.392 . S
C1069 H1086 0.929 . S
C1070 C1065 1.383 . S
C1070 C1066 1.389 . S
C1070 H1087 0.931 . S
C1071 O1056 1.266 . S
C1071 O1057 1.248 . S
C1072 Tb1008 2.802 . S
C1072 O1052 1.264 . S
C1072 O1055 1.256 . S
C1072 C1065 1.496 . S
C1073 C1040 1.448 . S
C1073 H1050 0.930 . S
C1073 C1074 1.328 . S
C1074 C1045 1.427 . S
C1074 H1051 0.929 . S
C1074 C1073 1.328 . S
C1075 O1059 1.264 . S
C1075 O1060 1.243 . S
C1076 C1079 1.399 . S
C1076 C1080 1.383 . S
C1076 C1083 1.496 1_556 S
C1077 C1078 1.399 . S
C1077 C1080 1.389 . S
C1078 C1077 1.399 . S
C1078 C1081 1.380 . S
C1078 H1088 0.929 . S
C1079 C1076 1.399 . S
C1079 C1081 1.392 . S
C1079 H1089 0.927 . S
C1080 C1076 1.383 . S
C1080 C1077 1.389 . S
C1080 H1090 0.931 . S
C1081 C1078 1.380 . S
C1081 C1079 1.392 . S
C1081 H1091 0.929 . S
C1082 O1062 1.266 . S
C1082 O1063 1.248 . S
C1083 Tb1019 2.802 . S
C1083 O1058 1.264 . S
C1083 O1061 1.256 . S
C1083 C1076 1.496 1_554 S
H1084 C1067 0.929 . S
H1085 C1068 0.929 . S
H1086 C1069 0.929 . S
H1087 C1070 0.931 . S
H1088 C1078 0.929 . S
H1089 C1079 0.927 . S
H1090 C1080 0.931 . S
H1091 C1081 0.929 . S
Tb1092 N1121 2.617 . S
Tb1092 N1127 2.572 . S
Tb1092 O1136 2.465 . S
Tb1092 O1137 2.387 . S
Tb1092 O1139 2.428 . S
Tb1092 O1140 2.308 . S
Tb1092 O1144 2.349 . S
Tb1092 O1147 2.393 . S
Tb1092 C1156 2.802 . S
C1093 N1094 1.379 . S
C1093 C1096 1.416 . S
C1093 C1100 1.424 . S
N1094 C1093 1.379 . S
N1094 C1097 1.334 . S
N1094 Tb1103 2.617 . S
C1095 C1097 1.390 . S
C1095 C1098 1.339 . S
C1095 H1115 0.930 . S
C1096 C1093 1.416 . S
C1096 C1098 1.416 . S
C1096 C1102 1.448 . S
C1097 N1094 1.334 . S
C1097 C1095 1.390 . S
C1097 H1108 0.930 . S
C1098 C1095 1.339 . S
C1098 C1096 1.416 . S
C1098 H1119 0.930 . S
C1099 C1100 1.413 . S
C1099 C1101 1.427 . S
C1099 C1105 1.416 . S
C1100 C1093 1.424 . S
C1100 C1099 1.413 . S
C1100 N1104 1.361 . S
C1101 C1099 1.427 . S
C1101 C1102 1.328 . S
C1101 H1116 0.929 . S
C1102 C1096 1.448 . S
C1102 C1101 1.328 . S
C1102 H1117 0.930 . S
Tb1103 N1094 2.617 . S
Tb1103 N1104 2.572 . S
Tb1103 O1138 2.349 . S
Tb1103 O1141 2.393 . S
Tb1103 O1142 2.465 . S
Tb1103 O1143 2.387 . S
Tb1103 O1145 2.428 . S
Tb1103 O1146 2.308 . S
Tb1103 C1167 2.802 . S
N1104 C1100 1.361 . S
N1104 Tb1103 2.572 . S
N1104 C1106 1.340 . S
C1105 C1099 1.416 . S
C1105 C1107 1.332 . S
C1105 H1113 0.931 . S
C1106 N1104 1.340 . S
C1106 C1107 1.407 . S
C1106 H1112 0.930 . S
C1107 C1105 1.332 . S
C1107 C1106 1.407 . S
C1107 H1109 0.929 . S
H1108 C1097 0.930 . S
H1109 C1107 0.929 . S
H1110 C1125 0.930 . S
H1111 C1132 0.929 . S
H1112 C1106 0.930 . S
H1113 C1105 0.931 . S
H1114 C1128 0.930 . S
H1115 C1095 0.930 . S
H1116 C1101 0.929 . S
H1117 C1102 0.930 . S
H1118 C1123 0.930 . S
H1119 C1098 0.930 . S
H1120 C1131 0.931 . S
N1121 Tb1092 2.617 . S
N1121 C1122 1.379 . S
N1121 C1125 1.334 . S
C1122 N1121 1.379 . S
C1122 C1124 1.416 . S
C1122 C1130 1.424 . S
C1123 H1118 0.930 . S
C1123 C1125 1.390 . S
C1123 C1126 1.339 . S
C1124 C1122 1.416 . S
C1124 C1126 1.416 . S
C1124 C1157 1.448 . S
C1125 H1110 0.930 . S
C1125 N1121 1.334 . S
C1125 C1123 1.390 . S
C1126 C1123 1.339 . S
C1126 C1124 1.416 . S
C1126 H1133 0.930 . S
N1127 Tb1092 2.572 . S
N1127 C1128 1.340 . S
N1127 C1130 1.361 . S
C1128 H1114 0.930 . S
C1128 N1127 1.340 . S
C1128 C1132 1.407 . S
C1129 C1130 1.413 . S
C1129 C1131 1.416 . S
C1129 C1158 1.427 . S
C1130 C1122 1.424 . S
C1130 N1127 1.361 . S
C1130 C1129 1.413 . S
C1131 H1120 0.931 . S
C1131 C1129 1.416 . S
C1131 C1132 1.332 . S
C1132 H1111 0.929 . S
C1132 C1128 1.407 . S
C1132 C1131 1.332 . S
H1133 C1126 0.930 . S
H1134 C1157 0.930 . S
H1135 C1158 0.929 . S
O1136 Tb1092 2.465 . S
O1136 C1156 1.264 . S
O1137 Tb1092 2.387 . S
O1137 C1148 1.264 . S
O1138 Tb1103 2.349 . S
O1138 C1148 1.243 . S
O1139 Tb1092 2.428 . S
O1139 C1156 1.256 . S
O1140 Tb1092 2.308 . S
O1140 C1155 1.266 . S
O1141 Tb1103 2.393 . S
O1141 C1155 1.248 . S
O1142 Tb1103 2.465 . S
O1142 C1167 1.264 . S
O1143 Tb1103 2.387 . S
O1143 C1159 1.264 . S
O1144 Tb1092 2.349 . S
O1144 C1159 1.243 . S
O1145 Tb1103 2.428 . S
O1145 C1167 1.256 . S
O1146 Tb1103 2.308 . S
O1146 C1166 1.266 . S
O1147 Tb1092 2.393 . S
O1147 C1166 1.248 . S
C1148 O1137 1.264 . S
C1148 O1138 1.243 . S
C1149 C1152 1.399 . S
C1149 C1154 1.383 . S
C1149 C1156 1.496 . S
C1150 C1151 1.399 . S
C1150 C1154 1.389 . S
C1151 C1150 1.399 . S
C1151 C1153 1.380 . S
C1151 H1168 0.929 . S
C1152 C1149 1.399 . S
C1152 C1153 1.392 . S
C1152 H1169 0.929 . S
C1153 C1151 1.380 . S
C1153 C1152 1.392 . S
C1153 H1170 0.929 . S
C1154 C1149 1.383 . S
C1154 C1150 1.389 . S
C1154 H1171 0.931 . S
C1155 O1140 1.266 . S
C1155 O1141 1.248 . S
C1156 Tb1092 2.802 . S
C1156 O1136 1.264 . S
C1156 O1139 1.256 . S
C1156 C1149 1.496 . S
C1157 C1124 1.448 . S
C1157 H1134 0.930 . S
C1157 C1158 1.328 . S
C1158 C1129 1.427 . S
C1158 H1135 0.929 . S
C1158 C1157 1.328 . S
C1159 O1143 1.264 . S
C1159 O1144 1.243 . S
C1160 C1163 1.399 . S
C1160 C1164 1.383 . S
C1160 C1167 1.496 . S
C1161 C1162 1.399 . S
C1161 C1164 1.389 . S
C1162 C1161 1.399 . S
C1162 C1165 1.380 . S
C1162 H1172 0.929 . S
C1163 C1160 1.399 . S
C1163 C1165 1.392 . S
C1163 H1173 0.929 . S
C1164 C1160 1.383 . S
C1164 C1161 1.389 . S
C1164 H1174 0.931 . S
C1165 C1162 1.380 . S
C1165 C1163 1.392 . S
C1165 H1175 0.929 . S
C1166 O1146 1.266 . S
C1166 O1147 1.248 . S
C1167 Tb1103 2.802 . S
C1167 O1142 1.264 . S
C1167 O1145 1.256 . S
C1167 C1160 1.496 . S
H1168 C1151 0.929 . S
H1169 C1152 0.929 . S
H1170 C1153 0.929 . S
H1171 C1154 0.931 . S
H1172 C1162 0.929 . S
H1173 C1163 0.929 . S
H1174 C1164 0.931 . S
H1175 C1165 0.929 . S
Tb1176 N1205 2.617 1_455 S
Tb1176 N1211 2.572 1_455 S
Tb1176 O1220 2.465 . S
Tb1176 O1221 2.387 1_455 S
Tb1176 O1223 2.428 . S
Tb1176 O1224 2.308 . S
Tb1176 O1228 2.349 . S
Tb1176 O1231 2.393 . S
Tb1176 C1240 2.802 . S
C1177 N1178 1.379 . S
C1177 C1180 1.416 . S
C1177 C1184 1.424 . S
N1178 C1177 1.379 . S
N1178 C1181 1.334 . S
N1178 Tb1187 2.617 . S
C1179 C1181 1.390 . S
C1179 C1182 1.339 . S
C1179 H1199 0.930 . S
C1180 C1177 1.416 . S
C1180 C1182 1.416 . S
C1180 C1186 1.448 . S
C1181 N1178 1.334 . S
C1181 C1179 1.390 . S
C1181 H1192 0.930 . S
C1182 C1179 1.339 . S
C1182 C1180 1.416 . S
C1182 H1203 0.930 . S
C1183 C1184 1.413 . S
C1183 C1185 1.427 . S
C1183 C1189 1.416 . S
C1184 C1177 1.424 . S
C1184 C1183 1.413 . S
C1184 N1188 1.361 . S
C1185 C1183 1.427 . S
C1185 C1186 1.328 . S
C1185 H1200 0.929 . S
C1186 C1180 1.448 . S
C1186 C1185 1.328 . S
C1186 H1201 0.930 . S
Tb1187 N1178 2.617 . S
Tb1187 N1188 2.572 . S
Tb1187 O1222 2.349 1_455 S
Tb1187 O1225 2.393 . S
Tb1187 O1226 2.465 . S
Tb1187 O1227 2.387 . S
Tb1187 O1229 2.428 . S
Tb1187 O1230 2.308 . S
Tb1187 C1251 2.802 . S
N1188 C1184 1.361 . S
N1188 Tb1187 2.572 . S
N1188 C1190 1.340 . S
C1189 C1183 1.416 . S
C1189 C1191 1.332 . S
C1189 H1197 0.931 . S
C1190 N1188 1.340 . S
C1190 C1191 1.407 . S
C1190 H1196 0.930 . S
C1191 C1189 1.332 . S
C1191 C1190 1.407 . S
C1191 H1193 0.929 . S
H1192 C1181 0.930 . S
H1193 C1191 0.929 . S
H1194 C1209 0.898 1_455 S
H1195 C1216 0.929 . S
H1196 C1190 0.930 . S
H1197 C1189 0.931 . S
H1198 C1212 0.930 1_455 S
H1199 C1179 0.930 . S
H1200 C1185 0.929 . S
H1201 C1186 0.930 . S
H1202 C1207 0.930 . S
H1203 C1182 0.930 . S
H1204 C1215 0.931 . S
N1205 Tb1176 2.617 1_655 S
N1205 C1206 1.379 . S
N1205 C1209 1.326 . S
C1206 N1205 1.379 . S
C1206 C1208 1.416 . S
C1206 C1214 1.424 . S
C1207 H1202 0.930 . S
C1207 C1209 1.431 . S
C1207 C1210 1.339 . S
C1208 C1206 1.416 . S
C1208 C1210 1.416 . S
C1208 C1241 1.448 . S
C1209 H1194 0.898 1_655 S
C1209 N1205 1.326 . S
C1209 C1207 1.431 . S
C1210 C1207 1.339 . S
C1210 C1208 1.416 . S
C1210 H1217 0.930 . S
N1211 Tb1176 2.572 1_655 S
N1211 C1212 1.340 . S
N1211 C1214 1.361 . S
C1212 H1198 0.930 1_655 S
C1212 N1211 1.340 . S
C1212 C1216 1.407 . S
C1213 C1214 1.413 . S
C1213 C1215 1.416 . S
C1213 C1242 1.427 . S
C1214 C1206 1.424 . S
C1214 N1211 1.361 . S
C1214 C1213 1.413 . S
C1215 H1204 0.931 . S
C1215 C1213 1.416 . S
C1215 C1216 1.332 . S
C1216 H1195 0.929 . S
C1216 C1212 1.407 . S
C1216 C1215 1.332 . S
H1217 C1210 0.930 . S
H1218 C1241 0.930 . S
H1219 C1242 0.929 . S
O1220 Tb1176 2.465 . S
O1220 C1240 1.264 . S
O1221 Tb1176 2.387 1_655 S
O1221 C1232 1.264 . S
O1222 Tb1187 2.349 1_655 S
O1222 C1232 1.243 . S
O1223 Tb1176 2.428 . S
O1223 C1240 1.256 . S
O1224 Tb1176 2.308 . S
O1224 C1239 1.266 . S
O1225 Tb1187 2.393 . S
O1225 C1239 1.248 . S
O1226 Tb1187 2.465 . S
O1226 C1251 1.264 . S
O1227 Tb1187 2.387 . S
O1227 C1243 1.264 . S
O1228 Tb1176 2.349 . S
O1228 C1243 1.243 . S
O1229 Tb1187 2.428 . S
O1229 C1251 1.256 . S
O1230 Tb1187 2.308 . S
O1230 C1250 1.266 . S
O1231 Tb1176 2.393 . S
O1231 C1250 1.248 . S
C1232 O1221 1.264 . S
C1232 O1222 1.243 . S
C1233 C1236 1.399 . S
C1233 C1238 1.383 . S
C1233 C1240 1.496 . S
C1234 C1235 1.399 . S
C1234 C1238 1.389 . S
C1235 C1234 1.399 . S
C1235 C1237 1.380 . S
C1235 H1252 0.929 . S
C1236 C1233 1.399 . S
C1236 C1237 1.392 . S
C1236 H1253 0.929 . S
C1237 C1235 1.380 . S
C1237 C1236 1.392 . S
C1237 H1254 0.929 . S
C1238 C1233 1.383 . S
C1238 C1234 1.389 . S
C1238 H1255 0.931 . S
C1239 O1224 1.266 . S
C1239 O1225 1.248 . S
C1240 Tb1176 2.802 . S
C1240 O1220 1.264 . S
C1240 O1223 1.256 . S
C1240 C1233 1.496 . S
C1241 C1208 1.448 . S
C1241 H1218 0.930 . S
C1241 C1242 1.328 . S
C1242 C1213 1.427 . S
C1242 H1219 0.929 . S
C1242 C1241 1.328 . S
C1243 O1227 1.264 . S
C1243 O1228 1.243 . S
C1244 C1247 1.399 . S
C1244 C1248 1.383 . S
C1244 C1251 1.496 1_655 S
C1245 C1246 1.399 . S
C1245 C1248 1.389 . S
C1246 C1245 1.399 . S
C1246 C1249 1.380 . S
C1246 H1256 0.929 . S
C1247 C1244 1.399 . S
C1247 C1249 1.392 . S
C1247 H1257 0.929 . S
C1248 C1244 1.383 . S
C1248 C1245 1.389 . S
C1248 H1258 0.931 . S
C1249 C1246 1.380 . S
C1249 C1247 1.392 . S
C1249 H1259 0.929 . S
C1250 O1230 1.266 . S
C1250 O1231 1.248 . S
C1251 Tb1187 2.802 . S
C1251 O1226 1.264 . S
C1251 O1229 1.256 . S
C1251 C1244 1.496 1_455 S
H1252 C1235 0.929 . S
H1253 C1236 0.929 . S
H1254 C1237 0.929 . S
H1255 C1238 0.931 . S
H1256 C1246 0.929 . S
H1257 C1247 0.929 . S
H1258 C1248 0.931 . S
H1259 C1249 0.929 . S
Tb1260 N1289 2.617 . S
Tb1260 N1295 2.572 . S
Tb1260 O1304 2.465 . S
Tb1260 O1305 2.387 . S
Tb1260 O1307 2.428 . S
Tb1260 O1308 2.308 . S
Tb1260 O1312 2.349 . S
Tb1260 O1315 2.393 . S
Tb1260 C1324 2.802 . S
C1261 N1262 1.379 . S
C1261 C1264 1.416 . S
C1261 C1268 1.424 . S
N1262 C1261 1.379 . S
N1262 C1265 1.334 . S
N1262 Tb1271 2.617 . S
C1263 C1265 1.390 . S
C1263 C1266 1.339 . S
C1263 H1283 0.930 . S
C1264 C1261 1.416 . S
C1264 C1266 1.416 . S
C1264 C1270 1.448 . S
C1265 N1262 1.334 . S
C1265 C1263 1.390 . S
C1265 H1276 0.930 . S
C1266 C1263 1.339 . S
C1266 C1264 1.416 . S
C1266 H1287 0.930 . S
C1267 C1268 1.413 . S
C1267 C1269 1.427 . S
C1267 C1273 1.416 . S
C1268 C1261 1.424 . S
C1268 C1267 1.413 . S
C1268 N1272 1.361 . S
C1269 C1267 1.427 . S
C1269 C1270 1.328 . S
C1269 H1284 0.929 . S
C1270 C1264 1.448 . S
C1270 C1269 1.328 . S
C1270 H1285 0.930 . S
Tb1271 N1262 2.617 . S
Tb1271 N1272 2.572 . S
Tb1271 O1306 2.349 . S
Tb1271 O1309 2.393 . S
Tb1271 O1310 2.465 . S
Tb1271 O1311 2.387 . S
Tb1271 O1313 2.428 . S
Tb1271 O1314 2.308 . S
Tb1271 C1335 2.802 . S
N1272 C1268 1.361 . S
N1272 Tb1271 2.572 . S
N1272 C1274 1.340 . S
C1273 C1267 1.416 . S
C1273 C1275 1.332 . S
C1273 H1281 0.931 . S
C1274 N1272 1.340 . S
C1274 C1275 1.407 . S
C1274 H1280 0.930 . S
C1275 C1273 1.332 . S
C1275 C1274 1.407 . S
C1275 H1277 0.929 . S
H1276 C1265 0.930 . S
H1277 C1275 0.929 . S
H1278 C1293 0.930 . S
H1279 C1300 0.929 . S
H1280 C1274 0.930 . S
H1281 C1273 0.931 . S
H1282 C1296 0.930 . S
H1283 C1263 0.930 . S
H1284 C1269 0.929 . S
H1285 C1270 0.930 . S
H1286 C1291 0.930 . S
H1287 C1266 0.930 . S
H1288 C1299 0.931 . S
N1289 Tb1260 2.617 . S
N1289 C1290 1.379 . S
N1289 C1293 1.334 . S
C1290 N1289 1.379 . S
C1290 C1292 1.416 . S
C1290 C1298 1.424 . S
C1291 H1286 0.930 . S
C1291 C1293 1.390 . S
C1291 C1294 1.339 . S
C1292 C1290 1.416 . S
C1292 C1294 1.416 . S
C1292 C1325 1.448 . S
C1293 H1278 0.930 . S
C1293 N1289 1.334 . S
C1293 C1291 1.390 . S
C1294 C1291 1.339 . S
C1294 C1292 1.416 . S
C1294 H1301 0.930 . S
N1295 Tb1260 2.572 . S
N1295 C1296 1.340 . S
N1295 C1298 1.361 . S
C1296 H1282 0.930 . S
C1296 N1295 1.340 . S
C1296 C1300 1.407 . S
C1297 C1298 1.413 . S
C1297 C1299 1.416 . S
C1297 C1326 1.427 . S
C1298 C1290 1.424 . S
C1298 N1295 1.361 . S
C1298 C1297 1.413 . S
C1299 H1288 0.931 . S
C1299 C1297 1.416 . S
C1299 C1300 1.332 . S
C1300 H1279 0.929 . S
C1300 C1296 1.407 . S
C1300 C1299 1.332 . S
H1301 C1294 0.930 . S
H1302 C1325 0.930 . S
H1303 C1326 0.929 . S
O1304 Tb1260 2.465 . S
O1304 C1324 1.264 . S
O1305 Tb1260 2.387 . S
O1305 C1316 1.264 . S
O1306 Tb1271 2.349 . S
O1306 C1316 1.243 . S
O1307 Tb1260 2.428 . S
O1307 C1324 1.256 . S
O1308 Tb1260 2.308 . S
O1308 C1323 1.266 . S
O1309 Tb1271 2.393 . S
O1309 C1323 1.248 . S
O1310 Tb1271 2.465 . S
O1310 C1335 1.264 . S
O1311 Tb1271 2.387 . S
O1311 C1327 1.264 . S
O1312 Tb1260 2.349 . S
O1312 C1327 1.243 . S
O1313 Tb1271 2.428 . S
O1313 C1335 1.256 . S
O1314 Tb1271 2.308 . S
O1314 C1334 1.266 . S
O1315 Tb1260 2.393 . S
O1315 C1334 1.248 . S
C1316 O1305 1.264 . S
C1316 O1306 1.243 . S
C1317 C1320 1.399 . S
C1317 C1322 1.383 . S
C1317 C1324 1.496 . S
C1318 C1319 1.399 . S
C1318 C1322 1.389 . S
C1319 C1318 1.399 . S
C1319 C1321 1.380 . S
C1319 H1336 0.929 . S
C1320 C1317 1.399 . S
C1320 C1321 1.392 . S
C1320 H1337 0.929 . S
C1321 C1319 1.380 . S
C1321 C1320 1.392 . S
C1321 H1338 0.929 . S
C1322 C1317 1.383 . S
C1322 C1318 1.389 . S
C1322 H1339 0.931 . S
C1323 O1308 1.266 . S
C1323 O1309 1.248 . S
C1324 Tb1260 2.802 . S
C1324 O1304 1.264 . S
C1324 O1307 1.256 . S
C1324 C1317 1.496 . S
C1325 C1292 1.448 . S
C1325 H1302 0.930 . S
C1325 C1326 1.328 . S
C1326 C1297 1.427 . S
C1326 H1303 0.929 . S
C1326 C1325 1.328 . S
C1327 O1311 1.264 . S
C1327 O1312 1.243 . S
C1328 C1331 1.399 . S
C1328 C1332 1.383 . S
C1328 C1335 1.496 . S
C1329 C1330 1.399 . S
C1329 C1332 1.389 . S
C1330 C1329 1.399 . S
C1330 C1333 1.380 . S
C1330 H1340 0.929 . S
C1331 C1328 1.399 . S
C1331 C1333 1.392 . S
C1331 H1341 0.929 . S
C1332 C1328 1.383 . S
C1332 C1329 1.389 . S
C1332 H1342 0.931 . S
C1333 C1330 1.380 . S
C1333 C1331 1.392 . S
C1333 H1343 0.929 . S
C1334 O1314 1.266 . S
C1334 O1315 1.248 . S
C1335 Tb1271 2.802 . S
C1335 O1310 1.264 . S
C1335 O1313 1.256 . S
C1335 C1328 1.496 . S
H1336 C1319 0.929 . S
H1337 C1320 0.929 . S
H1338 C1321 0.929 . S
H1339 C1322 0.931 . S
H1340 C1330 0.929 . S
H1341 C1331 0.929 . S
H1342 C1332 0.931 . S
H1343 C1333 0.929 . S
Tb1344 N1373 2.617 . S
Tb1344 N1379 2.572 . S
Tb1344 O1388 2.465 . S
Tb1344 O1389 2.387 . S
Tb1344 O1391 2.428 . S
Tb1344 O1392 2.308 . S
Tb1344 O1396 2.349 . S
Tb1344 O1399 2.393 . S
Tb1344 C1408 2.802 . S
C1345 N1346 1.379 . S
C1345 C1348 1.416 . S
C1345 C1352 1.424 . S
N1346 C1345 1.379 . S
N1346 C1349 1.334 . S
N1346 Tb1355 2.617 . S
C1347 C1349 1.390 . S
C1347 C1350 1.339 . S
C1347 H1367 0.930 . S
C1348 C1345 1.416 . S
C1348 C1350 1.416 . S
C1348 C1354 1.448 . S
C1349 N1346 1.334 . S
C1349 C1347 1.390 . S
C1349 H1360 0.930 . S
C1350 C1347 1.339 . S
C1350 C1348 1.416 . S
C1350 H1371 0.930 . S
C1351 C1352 1.413 . S
C1351 C1353 1.427 . S
C1351 C1357 1.416 . S
C1352 C1345 1.424 . S
C1352 C1351 1.413 . S
C1352 N1356 1.361 . S
C1353 C1351 1.427 . S
C1353 C1354 1.328 . S
C1353 H1368 0.929 . S
C1354 C1348 1.448 . S
C1354 C1353 1.328 . S
C1354 H1369 0.930 . S
Tb1355 N1346 2.617 . S
Tb1355 N1356 2.572 . S
Tb1355 O1390 2.349 . S
Tb1355 O1393 2.393 . S
Tb1355 O1394 2.465 . S
Tb1355 O1395 2.387 . S
Tb1355 O1397 2.428 . S
Tb1355 O1398 2.308 . S
Tb1355 C1419 2.802 . S
N1356 C1352 1.361 . S
N1356 Tb1355 2.572 . S
N1356 C1358 1.340 . S
C1357 C1351 1.416 . S
C1357 C1359 1.332 . S
C1357 H1365 0.931 . S
C1358 N1356 1.340 . S
C1358 C1359 1.407 . S
C1358 H1364 0.930 . S
C1359 C1357 1.332 . S
C1359 C1358 1.407 . S
C1359 H1361 0.929 . S
H1360 C1349 0.930 . S
H1361 C1359 0.929 . S
H1362 C1377 0.930 . S
H1363 C1384 0.929 . S
H1364 C1358 0.930 . S
H1365 C1357 0.931 . S
H1366 C1380 0.930 . S
H1367 C1347 0.930 . S
H1368 C1353 0.929 . S
H1369 C1354 0.930 . S
H1370 C1375 0.930 . S
H1371 C1350 0.930 . S
H1372 C1383 0.931 . S
N1373 Tb1344 2.617 . S
N1373 C1374 1.379 . S
N1373 C1377 1.334 . S
C1374 N1373 1.379 . S
C1374 C1376 1.416 . S
C1374 C1382 1.424 . S
C1375 H1370 0.930 . S
C1375 C1377 1.390 . S
C1375 C1378 1.339 . S
C1376 C1374 1.416 . S
C1376 C1378 1.416 . S
C1376 C1409 1.448 . S
C1377 H1362 0.930 . S
C1377 N1373 1.334 . S
C1377 C1375 1.390 . S
C1378 C1375 1.339 . S
C1378 C1376 1.416 . S
C1378 H1385 0.930 . S
N1379 Tb1344 2.572 . S
N1379 C1380 1.340 . S
N1379 C1382 1.361 . S
C1380 H1366 0.930 . S
C1380 N1379 1.340 . S
C1380 C1384 1.407 . S
C1381 C1382 1.413 . S
C1381 C1383 1.416 . S
C1381 C1410 1.427 . S
C1382 C1374 1.424 . S
C1382 N1379 1.361 . S
C1382 C1381 1.413 . S
C1383 H1372 0.931 . S
C1383 C1381 1.416 . S
C1383 C1384 1.332 . S
C1384 H1363 0.929 . S
C1384 C1380 1.407 . S
C1384 C1383 1.332 . S
H1385 C1378 0.930 . S
H1386 C1409 0.930 . S
H1387 C1410 0.929 . S
O1388 Tb1344 2.465 . S
O1388 C1408 1.264 . S
O1389 Tb1344 2.387 . S
O1389 C1400 1.264 . S
O1390 Tb1355 2.349 . S
O1390 C1400 1.243 . S
O1391 Tb1344 2.428 . S
O1391 C1408 1.256 . S
O1392 Tb1344 2.308 . S
O1392 C1407 1.266 . S
O1393 Tb1355 2.393 . S
O1393 C1407 1.248 . S
O1394 Tb1355 2.465 . S
O1394 C1419 1.264 . S
O1395 Tb1355 2.387 . S
O1395 C1411 1.264 . S
O1396 Tb1344 2.349 . S
O1396 C1411 1.243 . S
O1397 Tb1355 2.428 . S
O1397 C1419 1.256 . S
O1398 Tb1355 2.308 . S
O1398 C1418 1.266 . S
O1399 Tb1344 2.393 . S
O1399 C1418 1.248 . S
C1400 O1389 1.264 . S
C1400 O1390 1.243 . S
C1401 C1404 1.399 . S
C1401 C1406 1.383 . S
C1401 C1408 1.496 . S
C1402 C1403 1.399 . S
C1402 C1406 1.389 . S
C1403 C1402 1.399 . S
C1403 C1405 1.380 . S
C1403 H1420 0.929 . S
C1404 C1401 1.399 . S
C1404 C1405 1.392 . S
C1404 H1421 0.929 . S
C1405 C1403 1.380 . S
C1405 C1404 1.392 . S
C1405 H1422 0.929 . S
C1406 C1401 1.383 . S
C1406 C1402 1.389 . S
C1406 H1423 0.931 . S
C1407 O1392 1.266 . S
C1407 O1393 1.248 . S
C1408 Tb1344 2.802 . S
C1408 O1388 1.264 . S
C1408 O1391 1.256 . S
C1408 C1401 1.496 . S
C1409 C1376 1.448 . S
C1409 H1386 0.930 . S
C1409 C1410 1.328 . S
C1410 C1381 1.427 . S
C1410 H1387 0.929 . S
C1410 C1409 1.328 . S
C1411 O1395 1.264 . S
C1411 O1396 1.243 . S
C1412 C1415 1.399 . S
C1412 C1416 1.383 . S
C1412 C1419 1.496 . S
C1413 C1414 1.399 . S
C1413 C1416 1.389 . S
C1414 C1413 1.399 . S
C1414 C1417 1.380 . S
C1414 H1424 0.929 . S
C1415 C1412 1.399 . S
C1415 C1417 1.392 . S
C1415 H1425 0.929 . S
C1416 C1412 1.383 . S
C1416 C1413 1.389 . S
C1416 H1426 0.931 . S
C1417 C1414 1.380 . S
C1417 C1415 1.392 . S
C1417 H1427 0.929 . S
C1418 O1398 1.266 . S
C1418 O1399 1.248 . S
C1419 Tb1355 2.802 . S
C1419 O1394 1.264 . S
C1419 O1397 1.256 . S
C1419 C1412 1.496 . S
H1420 C1403 0.929 . S
H1421 C1404 0.929 . S
H1422 C1405 0.929 . S
H1423 C1406 0.931 . S
H1424 C1414 0.929 . S
H1425 C1415 0.929 . S
H1426 C1416 0.931 . S
H1427 C1417 0.929 . S
Tb1428 N1457 2.617 . S
Tb1428 N1463 2.572 . S
Tb1428 O1472 2.465 . S
Tb1428 O1473 2.387 . S
Tb1428 O1475 2.428 . S
Tb1428 O1476 2.308 . S
Tb1428 O1480 2.349 . S
Tb1428 O1483 2.393 . S
Tb1428 C1492 2.802 . S
C1429 N1430 1.379 . S
C1429 C1432 1.416 . S
C1429 C1436 1.424 . S
N1430 C1429 1.379 . S
N1430 C1433 1.334 . S
N1430 Tb1439 2.617 . S
C1431 C1433 1.390 . S
C1431 C1434 1.339 . S
C1431 H1451 0.930 . S
C1432 C1429 1.416 . S
C1432 C1434 1.416 . S
C1432 C1438 1.448 . S
C1433 N1430 1.334 . S
C1433 C1431 1.390 . S
C1433 H1444 0.930 . S
C1434 C1431 1.339 . S
C1434 C1432 1.416 . S
C1434 H1455 0.930 . S
C1435 C1436 1.413 . S
C1435 C1437 1.427 . S
C1435 C1441 1.416 . S
C1436 C1429 1.424 . S
C1436 C1435 1.413 . S
C1436 N1440 1.361 . S
C1437 C1435 1.427 . S
C1437 C1438 1.328 . S
C1437 H1452 0.929 . S
C1438 C1432 1.448 . S
C1438 C1437 1.328 . S
C1438 H1453 0.930 . S
Tb1439 N1430 2.617 . S
Tb1439 N1440 2.572 . S
Tb1439 O1474 2.349 . S
Tb1439 O1477 2.393 . S
Tb1439 O1478 2.465 . S
Tb1439 O1479 2.387 . S
Tb1439 O1481 2.428 . S
Tb1439 O1482 2.308 . S
Tb1439 C1503 2.802 . S
N1440 C1436 1.361 . S
N1440 Tb1439 2.572 . S
N1440 C1442 1.340 . S
C1441 C1435 1.416 . S
C1441 C1443 1.332 . S
C1441 H1449 0.931 . S
C1442 N1440 1.340 . S
C1442 C1443 1.407 . S
C1442 H1448 0.930 . S
C1443 C1441 1.332 . S
C1443 C1442 1.407 . S
C1443 H1445 0.929 . S
H1444 C1433 0.930 . S
H1445 C1443 0.929 . S
H1446 C1461 0.930 . S
H1447 C1468 0.929 . S
H1448 C1442 0.930 . S
H1449 C1441 0.931 . S
H1450 C1464 0.930 . S
H1451 C1431 0.930 . S
H1452 C1437 0.929 . S
H1453 C1438 0.930 . S
H1454 C1459 0.930 . S
H1455 C1434 0.930 . S
H1456 C1467 0.931 . S
N1457 Tb1428 2.617 . S
N1457 C1458 1.379 . S
N1457 C1461 1.334 . S
C1458 N1457 1.379 . S
C1458 C1460 1.416 . S
C1458 C1466 1.424 . S
C1459 H1454 0.930 . S
C1459 C1461 1.390 . S
C1459 C1462 1.339 . S
C1460 C1458 1.416 . S
C1460 C1462 1.416 . S
C1460 C1493 1.448 . S
C1461 H1446 0.930 . S
C1461 N1457 1.334 . S
C1461 C1459 1.390 . S
C1462 C1459 1.339 . S
C1462 C1460 1.416 . S
C1462 H1469 0.930 . S
N1463 Tb1428 2.572 . S
N1463 C1464 1.340 . S
N1463 C1466 1.361 . S
C1464 H1450 0.930 . S
C1464 N1463 1.340 . S
C1464 C1468 1.407 . S
C1465 C1466 1.413 . S
C1465 C1467 1.416 . S
C1465 C1494 1.427 . S
C1466 C1458 1.424 . S
C1466 N1463 1.361 . S
C1466 C1465 1.413 . S
C1467 H1456 0.931 . S
C1467 C1465 1.416 . S
C1467 C1468 1.332 . S
C1468 H1447 0.929 . S
C1468 C1464 1.407 . S
C1468 C1467 1.332 . S
H1469 C1462 0.930 . S
H1470 C1493 0.930 . S
H1471 C1494 0.929 . S
O1472 Tb1428 2.465 . S
O1472 C1492 1.264 . S
O1473 Tb1428 2.387 . S
O1473 C1484 1.264 . S
O1474 Tb1439 2.349 . S
O1474 C1484 1.243 . S
O1475 Tb1428 2.428 . S
O1475 C1492 1.256 . S
O1476 Tb1428 2.308 . S
O1476 C1491 1.266 . S
O1477 Tb1439 2.393 . S
O1477 C1491 1.248 . S
O1478 Tb1439 2.465 . S
O1478 C1503 1.264 . S
O1479 Tb1439 2.387 . S
O1479 C1495 1.264 . S
O1480 Tb1428 2.349 . S
O1480 C1495 1.243 . S
O1481 Tb1439 2.428 . S
O1481 C1503 1.256 . S
O1482 Tb1439 2.308 . S
O1482 C1502 1.266 . S
O1483 Tb1428 2.393 . S
O1483 C1502 1.248 . S
C1484 O1473 1.264 . S
C1484 O1474 1.243 . S
C1485 C1488 1.399 . S
C1485 C1490 1.383 . S
C1485 C1492 1.496 . S
C1486 C1487 1.399 . S
C1486 C1490 1.389 . S
C1487 C1486 1.399 . S
C1487 C1489 1.380 . S
C1487 H1504 0.929 . S
C1488 C1485 1.399 . S
C1488 C1489 1.392 . S
C1488 H1505 0.929 . S
C1489 C1487 1.380 . S
C1489 C1488 1.392 . S
C1489 H1506 0.929 . S
C1490 C1485 1.383 . S
C1490 C1486 1.389 . S
C1490 H1507 0.931 . S
C1491 O1476 1.266 . S
C1491 O1477 1.248 . S
C1492 Tb1428 2.802 . S
C1492 O1472 1.264 . S
C1492 O1475 1.256 . S
C1492 C1485 1.496 . S
C1493 C1460 1.448 . S
C1493 H1470 0.930 . S
C1493 C1494 1.328 . S
C1494 C1465 1.427 . S
C1494 H1471 0.929 . S
C1494 C1493 1.328 . S
C1495 O1479 1.264 . S
C1495 O1480 1.243 . S
C1496 C1499 1.399 . S
C1496 C1500 1.383 . S
C1496 C1503 1.496 . S
C1497 C1498 1.399 . S
C1497 C1500 1.389 . S
C1498 C1497 1.399 . S
C1498 C1501 1.380 . S
C1498 H1508 0.929 . S
C1499 C1496 1.399 . S
C1499 C1501 1.392 . S
C1499 H1509 0.929 . S
C1500 C1496 1.383 . S
C1500 C1497 1.389 . S
C1500 H1510 0.931 . S
C1501 C1498 1.380 . S
C1501 C1499 1.392 . S
C1501 H1511 0.929 . S
C1502 O1482 1.266 . S
C1502 O1483 1.248 . S
C1503 Tb1439 2.802 . S
C1503 O1478 1.264 . S
C1503 O1481 1.256 . S
C1503 C1496 1.496 . S
H1504 C1487 0.929 . S
H1505 C1488 0.929 . S
H1506 C1489 0.929 . S
H1507 C1490 0.931 . S
H1508 C1498 0.929 . S
H1509 C1499 0.929 . S
H1510 C1500 0.931 . S
H1511 C1501 0.929 . S
Tb1512 N1541 2.617 . S
Tb1512 N1547 2.572 . S
Tb1512 O1556 2.465 . S
Tb1512 O1557 2.387 . S
Tb1512 O1559 2.428 . S
Tb1512 O1560 2.308 . S
Tb1512 O1564 2.349 . S
Tb1512 O1567 2.393 . S
Tb1512 C1576 2.802 . S
C1513 N1514 1.379 . S
C1513 C1516 1.416 . S
C1513 C1520 1.424 . S
N1514 C1513 1.379 . S
N1514 C1517 1.334 . S
N1514 Tb1523 2.617 . S
C1515 C1517 1.390 . S
C1515 C1518 1.339 . S
C1515 H1535 0.930 . S
C1516 C1513 1.416 . S
C1516 C1518 1.416 . S
C1516 C1522 1.448 . S
C1517 N1514 1.334 . S
C1517 C1515 1.390 . S
C1517 H1528 0.930 . S
C1518 C1515 1.339 . S
C1518 C1516 1.416 . S
C1518 H1539 0.930 . S
C1519 C1520 1.413 . S
C1519 C1521 1.427 . S
C1519 C1525 1.416 . S
C1520 C1513 1.424 . S
C1520 C1519 1.413 . S
C1520 N1524 1.361 . S
C1521 C1519 1.427 . S
C1521 C1522 1.328 . S
C1521 H1536 0.929 . S
C1522 C1516 1.448 . S
C1522 C1521 1.328 . S
C1522 H1537 0.930 . S
Tb1523 N1514 2.617 . S
Tb1523 N1524 2.572 . S
Tb1523 O1558 2.349 . S
Tb1523 O1561 2.393 . S
Tb1523 O1562 2.465 . S
Tb1523 O1563 2.387 . S
Tb1523 O1565 2.428 . S
Tb1523 O1566 2.308 . S
Tb1523 C1587 2.802 . S
N1524 C1520 1.361 . S
N1524 Tb1523 2.572 . S
N1524 C1526 1.340 . S
C1525 C1519 1.416 . S
C1525 C1527 1.332 . S
C1525 H1533 0.931 . S
C1526 N1524 1.340 . S
C1526 C1527 1.407 . S
C1526 H1532 0.930 . S
C1527 C1525 1.332 . S
C1527 C1526 1.407 . S
C1527 H1529 0.929 . S
H1528 C1517 0.930 . S
H1529 C1527 0.929 . S
H1530 C1545 0.930 . S
H1531 C1552 0.929 . S
H1532 C1526 0.930 . S
H1533 C1525 0.931 . S
H1534 C1548 0.930 . S
H1535 C1515 0.930 . S
H1536 C1521 0.929 . S
H1537 C1522 0.930 . S
H1538 C1543 0.930 . S
H1539 C1518 0.930 . S
H1540 C1551 0.931 . S
N1541 Tb1512 2.617 . S
N1541 C1542 1.379 . S
N1541 C1545 1.334 . S
C1542 N1541 1.379 . S
C1542 C1544 1.416 . S
C1542 C1550 1.424 . S
C1543 H1538 0.930 . S
C1543 C1545 1.390 . S
C1543 C1546 1.339 . S
C1544 C1542 1.416 . S
C1544 C1546 1.416 . S
C1544 C1577 1.448 . S
C1545 H1530 0.930 . S
C1545 N1541 1.334 . S
C1545 C1543 1.390 . S
C1546 C1543 1.339 . S
C1546 C1544 1.416 . S
C1546 H1553 0.930 . S
N1547 Tb1512 2.572 . S
N1547 C1548 1.340 . S
N1547 C1550 1.361 . S
C1548 H1534 0.930 . S
C1548 N1547 1.340 . S
C1548 C1552 1.407 . S
C1549 C1550 1.413 . S
C1549 C1551 1.416 . S
C1549 C1578 1.427 . S
C1550 C1542 1.424 . S
C1550 N1547 1.361 . S
C1550 C1549 1.413 . S
C1551 H1540 0.931 . S
C1551 C1549 1.416 . S
C1551 C1552 1.332 . S
C1552 H1531 0.929 . S
C1552 C1548 1.407 . S
C1552 C1551 1.332 . S
H1553 C1546 0.930 . S
H1554 C1577 0.930 . S
H1555 C1578 0.929 . S
O1556 Tb1512 2.465 . S
O1556 C1576 1.264 . S
O1557 Tb1512 2.387 . S
O1557 C1568 1.264 . S
O1558 Tb1523 2.349 . S
O1558 C1568 1.243 . S
O1559 Tb1512 2.428 . S
O1559 C1576 1.256 . S
O1560 Tb1512 2.308 . S
O1560 C1575 1.266 . S
O1561 Tb1523 2.393 . S
O1561 C1575 1.248 . S
O1562 Tb1523 2.465 . S
O1562 C1587 1.264 . S
O1563 Tb1523 2.387 . S
O1563 C1579 1.264 . S
O1564 Tb1512 2.349 . S
O1564 C1579 1.243 . S
O1565 Tb1523 2.428 . S
O1565 C1587 1.256 . S
O1566 Tb1523 2.308 . S
O1566 C1586 1.266 . S
O1567 Tb1512 2.393 . S
O1567 C1586 1.248 . S
C1568 O1557 1.264 . S
C1568 O1558 1.243 . S
C1569 C1572 1.399 . S
C1569 C1574 1.383 . S
C1569 C1576 1.496 . S
C1570 C1571 1.399 . S
C1570 C1574 1.389 . S
C1571 C1570 1.399 . S
C1571 C1573 1.380 . S
C1571 H1588 0.929 . S
C1572 C1569 1.399 . S
C1572 C1573 1.392 . S
C1572 H1589 0.929 . S
C1573 C1571 1.380 . S
C1573 C1572 1.392 . S
C1573 H1590 0.929 . S
C1574 C1569 1.383 . S
C1574 C1570 1.389 . S
C1574 H1591 0.931 . S
C1575 O1560 1.266 . S
C1575 O1561 1.248 . S
C1576 Tb1512 2.802 . S
C1576 O1556 1.264 . S
C1576 O1559 1.256 . S
C1576 C1569 1.496 . S
C1577 C1544 1.448 . S
C1577 H1554 0.930 . S
C1577 C1578 1.328 . S
C1578 C1549 1.427 . S
C1578 H1555 0.929 . S
C1578 C1577 1.328 . S
C1579 O1563 1.264 . S
C1579 O1564 1.243 . S
C1580 C1583 1.399 . S
C1580 C1584 1.383 . S
C1580 C1587 1.496 . S
C1581 C1582 1.399 . S
C1581 C1584 1.389 . S
C1582 C1581 1.399 . S
C1582 C1585 1.380 . S
C1582 H1592 0.929 . S
C1583 C1580 1.399 . S
C1583 C1585 1.392 . S
C1583 H1593 0.929 . S
C1584 C1580 1.383 . S
C1584 C1581 1.389 . S
C1584 H1594 0.931 . S
C1585 C1582 1.380 . S
C1585 C1583 1.392 . S
C1585 H1595 0.929 . S
C1586 O1566 1.266 . S
C1586 O1567 1.248 . S
C1587 Tb1523 2.802 . S
C1587 O1562 1.264 . S
C1587 O1565 1.256 . S
C1587 C1580 1.496 . S
H1588 C1571 0.929 . S
H1589 C1572 0.929 . S
H1590 C1573 0.929 . S
H1591 C1574 0.931 . S
H1592 C1582 0.929 . S
H1593 C1583 0.929 . S
H1594 C1584 0.931 . S
H1595 C1585 0.929 . S
Tb1596 N1625 2.629 . S
Tb1596 N1631 2.600 . S
Tb1596 O1640 2.504 . S
Tb1596 O1641 2.362 1_655 S
Tb1596 O1643 2.459 . S
Tb1596 O1644 2.300 1_655 S
Tb1596 O1648 2.336 1_655 S
Tb1596 O1651 2.361 1_655 S
Tb1596 C1660 2.841 . S
C1597 N1598 1.379 . S
C1597 C1600 1.416 . S
C1597 C1604 1.424 1_556 S
N1598 C1597 1.379 . S
N1598 C1601 1.334 . S
N1598 Tb1607 2.617 1_556 S
C1599 C1601 1.390 . S
C1599 C1602 1.339 . S
C1599 H1619 0.930 . S
C1600 C1597 1.416 . S
C1600 C1602 1.416 . S
C1600 C1606 1.448 . S
C1601 N1598 1.334 . S
C1601 C1599 1.390 . S
C1601 H1612 0.930 . S
C1602 C1599 1.339 . S
C1602 C1600 1.416 . S
C1602 H1623 0.930 . S
C1603 C1604 1.413 . S
C1603 C1605 1.427 . S
C1603 C1609 1.416 . S
C1604 C1597 1.424 1_554 S
C1604 C1603 1.413 . S
C1604 N1608 1.361 . S
C1605 C1603 1.427 . S
C1605 C1606 1.328 1_554 S
C1605 H1620 0.929 . S
C1606 C1600 1.448 . S
C1606 C1605 1.328 1_556 S
C1606 H1621 0.930 . S
Tb1607 N1598 2.617 1_554 S
Tb1607 N1608 2.572 . S
Tb1607 O1642 2.349 . S
Tb1607 O1645 2.393 1_554 S
Tb1607 O1646 2.465 . S
Tb1607 O1647 2.387 . S
Tb1607 O1649 2.428 1_554 S
Tb1607 O1650 2.308 . S
Tb1607 C1671 2.802 . S
N1608 C1604 1.361 . S
N1608 Tb1607 2.572 . S
N1608 C1610 1.340 . S
C1609 C1603 1.416 . S
C1609 C1611 1.332 . S
C1609 H1617 0.931 . S
C1610 N1608 1.340 . S
C1610 C1611 1.407 . S
C1610 H1616 0.930 . S
C1611 C1609 1.332 . S
C1611 C1610 1.407 . S
C1611 H1613 0.929 . S
H1612 C1601 0.930 . S
H1613 C1611 0.929 . S
H1614 C1629 0.930 1_455 S
H1615 C1636 0.929 1_556 S
H1616 C1610 0.930 . S
H1617 C1609 0.931 . S
H1618 C1632 0.930 . S
H1619 C1599 0.930 . S
H1620 C1605 0.929 . S
H1621 C1606 0.930 . S
H1622 C1627 0.921 1_455 S
H1623 C1602 0.930 . S
H1624 C1635 0.931 . S
N1625 Tb1596 2.629 . S
N1625 C1626 1.379 . S
N1625 C1629 1.334 . S
C1626 N1625 1.379 . S
C1626 C1628 1.416 . S
C1626 C1634 1.424 . S
C1627 H1622 0.921 1_655 S
C1627 C1629 1.390 . S
C1627 C1630 1.339 . S
C1628 C1626 1.416 . S
C1628 C1630 1.416 . S
C1628 C1661 1.448 . S
C1629 H1614 0.930 1_655 S
C1629 N1625 1.334 . S
C1629 C1627 1.390 . S
C1630 C1627 1.339 . S
C1630 C1628 1.416 . S
C1630 H1637 0.930 . S
N1631 Tb1596 2.600 . S
N1631 C1632 1.340 . S
N1631 C1634 1.361 . S
C1632 H1618 0.930 . S
C1632 N1631 1.340 . S
C1632 C1636 1.407 . S
C1633 C1634 1.413 . S
C1633 C1635 1.416 . S
C1633 C1662 1.427 . S
C1634 C1626 1.424 . S
C1634 N1631 1.361 . S
C1634 C1633 1.413 . S
C1635 H1624 0.931 . S
C1635 C1633 1.416 . S
C1635 C1636 1.332 . S
C1636 H1615 0.929 1_554 S
C1636 C1632 1.407 . S
C1636 C1635 1.332 . S
H1637 C1630 0.930 . S
H1638 C1661 0.930 . S
H1639 C1662 0.929 . S
O1640 Tb1596 2.504 . S
O1640 C1660 1.264 . S
O1641 Tb1596 2.362 1_455 S
O1641 C1652 1.264 . S
O1642 Tb1607 2.349 . S
O1642 C1652 1.243 . S
O1643 Tb1596 2.459 . S
O1643 C1660 1.256 . S
O1644 Tb1596 2.300 1_455 S
O1644 C1659 1.266 1_554 S
O1645 Tb1607 2.393 1_556 S
O1645 C1659 1.248 . S
O1646 Tb1607 2.465 . S
O1646 C1671 1.264 . S
O1647 Tb1607 2.387 . S
O1647 C1663 1.264 . S
O1648 Tb1596 2.336 1_455 S
O1648 C1663 1.243 . S
O1649 Tb1607 2.428 1_556 S
O1649 C1671 1.256 1_556 S
O1650 Tb1607 2.308 . S
O1650 C1670 1.266 . S
O1651 Tb1596 2.361 1_455 S
O1651 C1670 1.248 . S
C1652 O1641 1.264 . S
C1652 O1642 1.243 . S
C1653 C1656 1.399 . S
C1653 C1658 1.383 . S
C1653 C1660 1.496 . S
C1654 C1655 1.399 . S
C1654 C1658 1.389 . S
C1655 C1654 1.399 . S
C1655 C1657 1.380 . S
C1655 H1672 0.929 . S
C1656 C1653 1.399 . S
C1656 C1657 1.392 . S
C1656 H1673 0.929 . S
C1657 C1655 1.380 . S
C1657 C1656 1.392 . S
C1657 H1674 0.929 . S
C1658 C1653 1.383 . S
C1658 C1654 1.389 . S
C1658 H1675 0.931 . S
C1659 O1644 1.266 1_556 S
C1659 O1645 1.248 . S
C1660 Tb1596 2.841 . S
C1660 O1640 1.264 . S
C1660 O1643 1.256 . S
C1660 C1653 1.496 . S
C1661 C1628 1.448 . S
C1661 H1638 0.930 . S
C1661 C1662 1.328 . S
C1662 C1633 1.427 . S
C1662 H1639 0.929 . S
C1662 C1661 1.328 . S
C1663 O1647 1.264 . S
C1663 O1648 1.243 . S
C1664 C1667 1.359 1_554 S
C1664 C1668 1.413 . S
C1664 C1671 1.506 . S
C1665 C1666 1.399 1_554 S
C1665 C1668 1.389 . S
C1666 C1665 1.399 1_556 S
C1666 C1669 1.380 . S
C1666 H1676 0.929 . S
C1667 C1664 1.359 1_556 S
C1667 C1669 1.392 . S
C1667 H1677 0.929 . S
C1668 C1664 1.413 . S
C1668 C1665 1.389 . S
C1668 H1678 0.931 . S
C1669 C1666 1.380 . S
C1669 C1667 1.392 . S
C1669 H1679 0.929 . S
C1670 O1650 1.266 . S
C1670 O1651 1.248 . S
C1671 Tb1607 2.802 . S
C1671 O1646 1.264 . S
C1671 O1649 1.256 1_554 S
C1671 C1664 1.506 . S
H1672 C1655 0.929 . S
H1673 C1656 0.929 . S
H1674 C1657 0.929 . S
H1675 C1658 0.931 . S
H1676 C1666 0.929 . S
H1677 C1667 0.929 . S
H1678 C1668 0.931 . S
H1679 C1669 0.929 . S
H1680 C1686 0.930 . S
H1681 C1690 0.930 1_655 S
H1682 C1695 0.929 . S
H1683 C1693 0.929 . S
H1684 C1688 0.929 . S
H1685 C1694 0.923 1_554 S
C1686 H1680 0.930 . S
C1686 C1687 1.367 . S
C1686 C1694 1.384 . S
C1687 C1686 1.367 . S
C1687 C1695 1.433 1_455 S
C1688 H1684 0.929 . S
C1688 C1690 1.378 1_656 S
C1688 C1692 1.350 1_656 S
C1689 C1692 1.463 1_556 S
C1689 C1694 1.350 . S
C1689 N1697 1.427 1_455 S
C1690 H1681 0.930 1_455 S
C1690 C1688 1.378 1_454 S
C1690 C1691 1.367 . S
C1691 C1690 1.367 . S
C1691 C1693 1.433 . S
C1692 C1688 1.350 1_454 S
C1692 C1689 1.463 1_554 S
C1692 N1696 1.427 . S
C1693 H1683 0.929 . S
C1693 C1691 1.433 . S
C1693 N1696 1.384 . S
C1694 H1685 0.923 1_556 S
C1694 C1686 1.384 . S
C1694 C1689 1.350 . S
C1695 H1682 0.929 . S
C1695 C1687 1.433 1_655 S
C1695 N1697 1.384 . S
N1696 C1692 1.427 . S
N1696 C1693 1.384 . S
N1697 C1689 1.427 1_655 S
N1697 C1695 1.384 . S
H1698 C1704 0.930 . S
H1699 C1708 0.930 . S
H1700 C1713 0.929 . S
H1701 C1711 0.929 . S
H1702 C1706 0.929 . S
H1703 C1712 0.929 . S
C1704 H1698 0.930 . S
C1704 C1705 1.367 . S
C1704 C1712 1.378 . S
C1705 C1704 1.367 . S
C1705 C1713 1.433 . S
C1706 H1702 0.929 . S
C1706 C1708 1.378 . S
C1706 C1710 1.350 . S
C1707 C1710 1.463 . S
C1707 C1712 1.350 . S
C1707 N1715 1.427 . S
C1708 H1699 0.930 . S
C1708 C1706 1.378 . S
C1708 C1709 1.367 . S
C1709 C1708 1.367 . S
C1709 C1711 1.433 . S
C1710 C1706 1.350 . S
C1710 C1707 1.463 . S
C1710 N1714 1.427 . S
C1711 H1701 0.929 . S
C1711 C1709 1.433 . S
C1711 N1714 1.384 . S
C1712 H1703 0.929 . S
C1712 C1704 1.378 . S
C1712 C1707 1.350 . S
C1713 H1700 0.929 . S
C1713 C1705 1.433 . S
C1713 N1715 1.384 . S
N1714 C1710 1.427 . S
N1714 C1711 1.384 . S
N1715 C1707 1.427 . S
N1715 C1713 1.384 . S
H1716 C1722 0.930 . S
H1717 C1726 0.930 . S
H1718 C1731 0.929 . S
H1719 C1729 0.929 . S
H1720 C1724 0.929 . S
H1721 C1730 0.929 . S
C1722 H1716 0.930 . S
C1722 C1723 1.367 . S
C1722 C1730 1.378 . S
C1723 C1722 1.367 . S
C1723 C1731 1.433 . S
C1724 H1720 0.929 . S
C1724 C1726 1.378 . S
C1724 C1728 1.350 . S
C1725 C1728 1.463 . S
C1725 C1730 1.350 . S
C1725 N1733 1.427 . S
C1726 H1717 0.930 . S
C1726 C1724 1.378 . S
C1726 C1727 1.367 . S
C1727 C1726 1.367 . S
C1727 C1729 1.433 . S
C1728 C1724 1.350 . S
C1728 C1725 1.463 . S
C1728 N1732 1.427 . S
C1729 H1719 0.929 . S
C1729 C1727 1.433 . S
C1729 N1732 1.384 . S
C1730 H1721 0.929 . S
C1730 C1722 1.378 . S
C1730 C1725 1.350 . S
C1731 H1718 0.929 . S
C1731 C1723 1.433 . S
C1731 N1733 1.384 . S
N1732 C1728 1.427 . S
N1732 C1729 1.384 . S
N1733 C1725 1.427 . S
N1733 C1731 1.384 . S
H1734 C1740 0.930 . S
H1735 C1744 0.930 . S
H1736 C1749 0.929 . S
H1737 C1747 0.929 . S
H1738 C1742 0.929 . S
H1739 C1748 0.929 . S
C1740 H1734 0.930 . S
C1740 C1741 1.367 . S
C1740 C1748 1.378 . S
C1741 C1740 1.367 . S
C1741 C1749 1.433 . S
C1742 H1738 0.929 . S
C1742 C1744 1.378 . S
C1742 C1746 1.350 . S
C1743 C1746 1.463 . S
C1743 C1748 1.350 . S
C1743 N1751 1.427 . S
C1744 H1735 0.930 . S
C1744 C1742 1.378 . S
C1744 C1745 1.367 . S
C1745 C1744 1.367 . S
C1745 C1747 1.433 . S
C1746 C1742 1.350 . S
C1746 C1743 1.463 . S
C1746 N1750 1.427 . S
C1747 H1737 0.929 . S
C1747 C1745 1.433 . S
C1747 N1750 1.384 . S
C1748 H1739 0.929 . S
C1748 C1740 1.378 . S
C1748 C1743 1.350 . S
C1749 H1736 0.929 . S
C1749 C1741 1.433 . S
C1749 N1751 1.384 . S
N1750 C1746 1.427 . S
N1750 C1747 1.384 . S
N1751 C1743 1.427 . S
N1751 C1749 1.384 . S
H1752 C1758 0.930 1_655 S
H1753 C1762 0.930 . S
H1754 C1767 0.929 . S
H1755 C1765 0.929 . S
H1756 C1760 0.929 . S
H1757 C1766 0.899 1_655 S
C1758 H1752 0.930 1_455 S
C1758 C1759 1.367 . S
C1758 C1766 1.378 . S
C1759 C1758 1.367 . S
C1759 C1767 1.433 . S
C1760 H1756 0.929 . S
C1760 C1762 1.378 . S
C1760 C1764 1.350 . S
C1761 C1764 1.463 . S
C1761 C1766 1.350 . S
C1761 N1769 1.427 . S
C1762 H1753 0.930 . S
C1762 C1760 1.378 . S
C1762 C1763 1.367 . S
C1763 C1762 1.367 . S
C1763 C1765 1.433 . S
C1764 C1760 1.350 . S
C1764 C1761 1.463 . S
C1764 N1768 1.427 . S
C1765 H1755 0.929 . S
C1765 C1763 1.433 . S
C1765 N1768 1.384 . S
C1766 H1757 0.899 1_455 S
C1766 C1758 1.378 . S
C1766 C1761 1.350 . S
C1767 H1754 0.929 . S
C1767 C1759 1.433 . S
C1767 N1769 1.384 . S
N1768 C1764 1.427 . S
N1768 C1765 1.384 . S
N1769 C1761 1.427 . S
N1769 C1767 1.384 . S
H1770 C1776 0.930 . S
H1771 C1780 0.930 . S
H1772 C1785 0.929 . S
H1773 C1783 0.929 . S
H1774 C1778 0.929 . S
H1775 C1784 0.929 . S
C1776 H1770 0.930 . S
C1776 C1777 1.367 . S
C1776 C1784 1.378 . S
C1777 C1776 1.367 . S
C1777 C1785 1.433 . S
C1778 H1774 0.929 . S
C1778 C1780 1.378 . S
C1778 C1782 1.350 . S
C1779 C1782 1.463 . S
C1779 C1784 1.350 . S
C1779 N1787 1.427 . S
C1780 H1771 0.930 . S
C1780 C1778 1.378 . S
C1780 C1781 1.367 . S
C1781 C1780 1.367 . S
C1781 C1783 1.433 . S
C1782 C1778 1.350 . S
C1782 C1779 1.463 . S
C1782 N1786 1.427 . S
C1783 H1773 0.929 . S
C1783 C1781 1.433 . S
C1783 N1786 1.384 . S
C1784 H1775 0.929 . S
C1784 C1776 1.378 . S
C1784 C1779 1.350 . S
C1785 H1772 0.929 . S
C1785 C1777 1.433 . S
C1785 N1787 1.384 . S
N1786 C1782 1.427 . S
N1786 C1783 1.384 . S
N1787 C1779 1.427 . S
N1787 C1785 1.384 . S
H1788 C1794 0.930 . S
H1789 C1798 0.930 . S
H1790 C1803 0.929 . S
H1791 C1801 0.929 . S
H1792 C1796 0.929 . S
H1793 C1802 0.929 . S
C1794 H1788 0.930 . S
C1794 C1795 1.367 . S
C1794 C1802 1.378 . S
C1795 C1794 1.367 . S
C1795 C1803 1.433 . S
C1796 H1792 0.929 . S
C1796 C1798 1.378 . S
C1796 C1800 1.350 . S
C1797 C1800 1.463 . S
C1797 C1802 1.350 . S
C1797 N1805 1.427 . S
C1798 H1789 0.930 . S
C1798 C1796 1.378 . S
C1798 C1799 1.367 . S
C1799 C1798 1.367 . S
C1799 C1801 1.433 . S
C1800 C1796 1.350 . S
C1800 C1797 1.463 . S
C1800 N1804 1.427 . S
C1801 H1791 0.929 . S
C1801 C1799 1.433 . S
C1801 N1804 1.384 . S
C1802 H1793 0.929 . S
C1802 C1794 1.378 . S
C1802 C1797 1.350 . S
C1803 H1790 0.929 . S
C1803 C1795 1.433 . S
C1803 N1805 1.384 . S
N1804 C1800 1.427 . S
N1804 C1801 1.384 . S
N1805 C1797 1.427 . S
N1805 C1803 1.384 . S
H1806 C1812 0.930 . S
H1807 C1816 0.930 . S
H1808 C1821 0.929 . S
H1809 C1819 0.929 . S
H1810 C1814 0.929 . S
H1811 C1820 0.929 . S
C1812 H1806 0.930 . S
C1812 C1813 1.367 . S
C1812 C1820 1.378 . S
C1813 C1812 1.367 . S
C1813 C1821 1.433 . S
C1814 H1810 0.929 . S
C1814 C1816 1.378 . S
C1814 C1818 1.350 . S
C1815 C1818 1.463 . S
C1815 C1820 1.350 . S
C1815 N1823 1.427 . S
C1816 H1807 0.930 . S
C1816 C1814 1.378 . S
C1816 C1817 1.367 . S
C1817 C1816 1.367 . S
C1817 C1819 1.433 . S
C1818 C1814 1.350 . S
C1818 C1815 1.463 . S
C1818 N1822 1.427 . S
C1819 H1809 0.929 . S
C1819 C1817 1.433 . S
C1819 N1822 1.384 . S
C1820 H1811 0.929 . S
C1820 C1812 1.378 . S
C1820 C1815 1.350 . S
C1821 H1808 0.929 . S
C1821 C1813 1.433 . S
C1821 N1823 1.384 . S
N1822 C1818 1.427 . S
N1822 C1819 1.384 . S
N1823 C1815 1.427 . S
N1823 C1821 1.384 . S
H1824 C1830 0.930 . S
H1825 C1834 0.930 . S
H1826 C1839 0.930 . S
H1827 C1837 0.929 . S
H1828 C1832 0.902 1_565 S
H1829 C1838 0.929 . S
C1830 H1824 0.930 . S
C1830 C1831 1.367 . S
C1830 C1838 1.378 . S
C1831 C1830 1.367 . S
C1831 C1839 1.432 1_545 S
C1832 H1828 0.902 1_545 S
C1832 C1834 1.378 . S
C1832 C1836 1.350 . S
C1833 C1836 1.463 . S
C1833 C1838 1.350 . S
C1833 N1841 1.427 . S
C1834 H1825 0.930 . S
C1834 C1832 1.378 . S
C1834 C1835 1.367 1_655 S
C1835 C1834 1.367 1_455 S
C1835 C1837 1.433 . S
C1836 C1832 1.350 . S
C1836 C1833 1.463 . S
C1836 N1840 1.427 1_655 S
C1837 H1827 0.929 . S
C1837 C1835 1.433 . S
C1837 N1840 1.384 . S
C1838 H1829 0.929 . S
C1838 C1830 1.378 . S
C1838 C1833 1.350 . S
C1839 H1826 0.930 . S
C1839 C1831 1.432 1_565 S
C1839 N1841 1.383 1_565 S
N1840 C1836 1.427 1_455 S
N1840 C1837 1.384 . S
N1841 C1833 1.427 . S
N1841 C1839 1.383 1_545 S
H1842 C1848 0.930 . S
H1843 C1852 0.930 . S
H1844 C1857 0.929 . S
H1845 C1855 0.929 . S
H1846 C1850 0.929 . S
H1847 C1856 0.929 . S
C1848 H1842 0.930 . S
C1848 C1849 1.367 . S
C1848 C1856 1.378 . S
C1849 C1848 1.367 . S
C1849 C1857 1.433 . S
C1850 H1846 0.929 . S
C1850 C1852 1.378 . S
C1850 C1854 1.350 . S
C1851 C1854 1.463 . S
C1851 C1856 1.350 . S
C1851 N1859 1.427 . S
C1852 H1843 0.930 . S
C1852 C1850 1.378 . S
C1852 C1853 1.367 . S
C1853 C1852 1.367 . S
C1853 C1855 1.433 . S
C1854 C1850 1.350 . S
C1854 C1851 1.463 . S
C1854 N1858 1.427 . S
C1855 H1845 0.929 . S
C1855 C1853 1.433 . S
C1855 N1858 1.384 . S
C1856 H1847 0.929 . S
C1856 C1848 1.378 . S
C1856 C1851 1.350 . S
C1857 H1844 0.929 . S
C1857 C1849 1.433 . S
C1857 N1859 1.384 . S
N1858 C1854 1.427 . S
N1858 C1855 1.384 . S
N1859 C1851 1.427 . S
N1859 C1857 1.384 . S
H1860 C1866 0.930 . S
H1861 C1870 0.930 . S
H1862 C1875 0.929 . S
H1863 C1873 0.929 1_565 S
H1864 C1868 0.929 . S
H1865 C1874 0.929 . S
C1866 H1860 0.930 . S
C1866 C1867 1.367 . S
C1866 C1874 1.378 . S
C1867 C1866 1.367 . S
C1867 C1875 1.433 . S
C1868 H1864 0.929 . S
C1868 C1870 1.378 . S
C1868 C1872 1.350 . S
C1869 C1872 1.463 . S
C1869 C1874 1.350 . S
C1869 N1877 1.427 . S
C1870 H1861 0.930 . S
C1870 C1868 1.378 . S
C1870 C1871 1.367 . S
C1871 C1870 1.367 . S
C1871 C1873 1.433 . S
C1872 C1868 1.350 . S
C1872 C1869 1.463 . S
C1872 N1876 1.427 . S
C1873 H1863 0.929 1_545 S
C1873 C1871 1.433 . S
C1873 N1876 1.384 . S
C1874 H1865 0.929 . S
C1874 C1866 1.378 . S
C1874 C1869 1.350 . S
C1875 H1862 0.929 . S
C1875 C1867 1.433 . S
C1875 N1877 1.384 . S
N1876 C1872 1.427 . S
N1876 C1873 1.384 . S
N1877 C1869 1.427 . S
N1877 C1875 1.384 . S
H1878 C1884 0.930 . S
H1879 C1888 0.930 . S
H1880 C1893 0.929 . S
H1881 C1891 0.929 . S
H1882 C1886 0.929 . S
H1883 C1892 0.929 . S
C1884 H1878 0.930 . S
C1884 C1885 1.367 . S
C1884 C1892 1.378 . S
C1885 C1884 1.367 . S
C1885 C1893 1.433 . S
C1886 H1882 0.929 . S
C1886 C1888 1.378 . S
C1886 C1890 1.350 . S
C1887 C1890 1.463 . S
C1887 C1892 1.350 . S
C1887 N1895 1.427 . S
C1888 H1879 0.930 . S
C1888 C1886 1.378 . S
C1888 C1889 1.367 . S
C1889 C1888 1.367 . S
C1889 C1891 1.433 . S
C1890 C1886 1.350 . S
C1890 C1887 1.463 . S
C1890 N1894 1.427 . S
C1891 H1881 0.929 . S
C1891 C1889 1.433 . S
C1891 N1894 1.384 . S
C1892 H1883 0.929 . S
C1892 C1884 1.378 . S
C1892 C1887 1.350 . S
C1893 H1880 0.929 . S
C1893 C1885 1.433 . S
C1893 N1895 1.384 . S
N1894 C1890 1.427 . S
N1894 C1891 1.384 . S
N1895 C1887 1.427 . S
N1895 C1893 1.384 . S
H1896 C1902 0.930 . S
H1897 C1906 0.930 1_565 S
H1898 C1911 0.929 1_565 S
H1899 C1909 0.929 . S
H1900 C1904 0.922 1_465 S
H1901 C1910 0.929 . S
C1902 H1896 0.930 . S
C1902 C1903 1.367 . S
C1902 C1910 1.378 . S
C1903 C1902 1.367 . S
C1903 C1911 1.433 . S
C1904 H1900 0.922 1_645 S
C1904 C1906 1.372 1_655 S
C1904 C1908 1.363 . S
C1905 C1908 1.463 . S
C1905 C1910 1.350 . S
C1905 N1913 1.427 . S
C1906 H1897 0.930 1_545 S
C1906 C1904 1.372 1_455 S
C1906 C1907 1.367 . S
C1907 C1906 1.367 . S
C1907 C1909 1.433 1_455 S
C1908 C1904 1.363 . S
C1908 C1905 1.463 . S
C1908 N1912 1.427 . S
C1909 H1899 0.929 . S
C1909 C1907 1.433 1_655 S
C1909 N1912 1.384 . S
C1910 H1901 0.929 . S
C1910 C1902 1.378 . S
C1910 C1905 1.350 . S
C1911 H1898 0.929 1_545 S
C1911 C1903 1.433 . S
C1911 N1913 1.384 . S
N1912 C1908 1.427 . S
N1912 C1909 1.384 . S
N1913 C1905 1.427 . S
N1913 C1911 1.384 . S
H1914 C1920 0.930 . S
H1915 C1924 0.930 . S
H1916 C1929 0.929 . S
H1917 C1927 0.929 . S
H1918 C1922 0.929 . S
H1919 C1928 0.929 . S
C1920 H1914 0.930 . S
C1920 C1921 1.367 . S
C1920 C1928 1.378 . S
C1921 C1920 1.367 . S
C1921 C1929 1.433 . S
C1922 H1918 0.929 . S
C1922 C1924 1.378 . S
C1922 C1926 1.350 . S
C1923 C1926 1.463 . S
C1923 C1928 1.350 . S
C1923 N1931 1.427 . S
C1924 H1915 0.930 . S
C1924 C1922 1.378 . S
C1924 C1925 1.367 . S
C1925 C1924 1.367 . S
C1925 C1927 1.433 . S
C1926 C1922 1.350 . S
C1926 C1923 1.463 . S
C1926 N1930 1.427 . S
C1927 H1917 0.929 . S
C1927 C1925 1.433 . S
C1927 N1930 1.384 . S
C1928 H1919 0.929 . S
C1928 C1920 1.378 . S
C1928 C1923 1.350 . S
C1929 H1916 0.929 . S
C1929 C1921 1.433 . S
C1929 N1931 1.384 . S
N1930 C1926 1.427 . S
N1930 C1927 1.384 . S
N1931 C1923 1.427 . S
N1931 C1929 1.384 . S
H1932 C1938 0.930 . S
H1933 C1942 0.930 . S
H1934 C1947 0.929 . S
H1935 C1945 0.929 . S
H1936 C1940 0.929 . S
H1937 C1946 0.929 . S
C1938 H1932 0.930 . S
C1938 C1939 1.367 . S
C1938 C1946 1.378 . S
C1939 C1938 1.367 . S
C1939 C1947 1.433 . S
C1940 H1936 0.929 . S
C1940 C1942 1.378 . S
C1940 C1944 1.350 . S
C1941 C1944 1.463 . S
C1941 C1946 1.350 . S
C1941 N1949 1.427 . S
C1942 H1933 0.930 . S
C1942 C1940 1.378 . S
C1942 C1943 1.367 . S
C1943 C1942 1.367 . S
C1943 C1945 1.433 . S
C1944 C1940 1.350 . S
C1944 C1941 1.463 . S
C1944 N1948 1.427 . S
C1945 H1935 0.929 . S
C1945 C1943 1.433 . S
C1945 N1948 1.384 . S
C1946 H1937 0.929 . S
C1946 C1938 1.378 . S
C1946 C1941 1.350 . S
C1947 H1934 0.929 . S
C1947 C1939 1.433 . S
C1947 N1949 1.384 . S
N1948 C1944 1.427 . S
N1948 C1945 1.384 . S
N1949 C1941 1.427 . S
N1949 C1947 1.384 . S
H1950 C1956 0.930 . S
H1951 C1960 0.930 . S
H1952 C1965 0.929 . S
H1953 C1963 0.929 . S
H1954 C1958 0.929 . S
H1955 C1964 0.929 . S
C1956 H1950 0.930 . S
C1956 C1957 1.367 . S
C1956 C1964 1.378 . S
C1957 C1956 1.367 . S
C1957 C1965 1.433 . S
C1958 H1954 0.929 . S
C1958 C1960 1.378 . S
C1958 C1962 1.350 . S
C1959 C1962 1.463 . S
C1959 C1964 1.350 . S
C1959 N1967 1.427 . S
C1960 H1951 0.930 . S
C1960 C1958 1.378 . S
C1960 C1961 1.367 . S
C1961 C1960 1.367 . S
C1961 C1963 1.433 . S
C1962 C1958 1.350 . S
C1962 C1959 1.463 . S
C1962 N1966 1.427 . S
C1963 H1953 0.929 . S
C1963 C1961 1.433 . S
C1963 N1966 1.384 . S
C1964 H1955 0.929 . S
C1964 C1956 1.378 . S
C1964 C1959 1.350 . S
C1965 H1952 0.929 . S
C1965 C1957 1.433 . S
C1965 N1967 1.384 . S
N1966 C1962 1.427 . S
N1966 C1963 1.384 . S
N1967 C1959 1.427 . S
N1967 C1965 1.384 . S
H1968 C1974 0.930 . S
H1969 C1978 0.930 . S
H1970 C1983 0.929 . S
H1971 C1981 0.931 1_546 S
H1972 C1976 0.929 . S
H1973 C1982 0.929 . S
C1974 H1968 0.930 . S
C1974 C1975 1.352 1_556 S
C1974 C1982 1.378 . S
C1975 C1974 1.352 1_554 S
C1975 C1983 1.455 . S
C1976 H1972 0.929 . S
C1976 C1978 1.378 . S
C1976 C1980 1.350 . S
C1977 C1980 1.463 . S
C1977 C1982 1.350 1_554 S
C1977 N1985 1.427 . S
C1978 H1969 0.930 . S
C1978 C1976 1.378 . S
C1978 C1979 1.368 . S
C1979 C1978 1.368 . S
C1979 C1981 1.433 . S
C1980 C1976 1.350 . S
C1980 C1977 1.463 . S
C1980 N1984 1.427 . S
C1981 H1971 0.931 1_564 S
C1981 C1979 1.433 . S
C1981 N1984 1.384 . S
C1982 H1973 0.929 . S
C1982 C1974 1.378 . S
C1982 C1977 1.350 1_556 S
C1983 H1970 0.929 . S
C1983 C1975 1.455 . S
C1983 N1985 1.384 . S
N1984 C1980 1.427 . S
N1984 C1981 1.384 . S
N1985 C1977 1.427 . S
N1985 C1983 1.384 . S
H1986 C1992 0.930 . S
H1987 C1996 0.930 . S
H1988 C2001 0.929 . S
H1989 C1999 0.929 . S
H1990 C1994 0.929 . S
H1991 C2000 0.929 . S
C1992 H1986 0.930 . S
C1992 C1993 1.367 1_556 S
C1992 C2000 1.378 . S
C1993 C1992 1.367 1_554 S
C1993 C2001 1.433 . S
C1994 H1990 0.929 . S
C1994 C1996 1.378 . S
C1994 C1998 1.350 . S
C1995 C1998 1.463 . S
C1995 C2000 1.350 1_554 S
C1995 N2003 1.427 . S
C1996 H1987 0.930 . S
C1996 C1994 1.378 . S
C1996 C1997 1.367 . S
C1997 C1996 1.367 . S
C1997 C1999 1.433 1_554 S
C1998 C1994 1.350 . S
C1998 C1995 1.463 . S
C1998 N2002 1.427 1_554 S
C1999 H1989 0.929 . S
C1999 C1997 1.433 1_556 S
C1999 N2002 1.384 . S
C2000 H1991 0.929 . S
C2000 C1992 1.378 . S
C2000 C1995 1.350 1_556 S
C2001 H1988 0.929 . S
C2001 C1993 1.433 . S
C2001 N2003 1.384 . S
N2002 C1998 1.427 1_556 S
N2002 C1999 1.384 . S
N2003 C1995 1.427 . S
N2003 C2001 1.384 . S
H2004 C2010 0.930 . S
H2005 C2014 0.930 . S
H2006 C2019 0.929 . S
H2007 C2017 0.929 . S
H2008 C2012 0.929 . S
H2009 C2018 0.929 . S
C2010 H2004 0.930 . S
C2010 C2011 1.367 . S
C2010 C2018 1.378 . S
C2011 C2010 1.367 . S
C2011 C2019 1.433 . S
C2012 H2008 0.929 . S
C2012 C2014 1.378 . S
C2012 C2016 1.350 . S
C2013 C2016 1.463 . S
C2013 C2018 1.350 . S
C2013 N2021 1.427 . S
C2014 H2005 0.930 . S
C2014 C2012 1.378 . S
C2014 C2015 1.367 . S
C2015 C2014 1.367 . S
C2015 C2017 1.433 . S
C2016 C2012 1.350 . S
C2016 C2013 1.463 . S
C2016 N2020 1.427 . S
C2017 H2007 0.929 . S
C2017 C2015 1.433 . S
C2017 N2020 1.384 . S
C2018 H2009 0.929 . S
C2018 C2010 1.378 . S
C2018 C2013 1.350 . S
C2019 H2006 0.929 . S
C2019 C2011 1.433 . S
C2019 N2021 1.384 . S
N2020 C2016 1.427 . S
N2020 C2017 1.384 . S
N2021 C2013 1.427 . S
N2021 C2019 1.384 . S
H2022 C2028 0.930 . S
H2023 C2032 0.930 . S
H2024 C2037 0.929 . S
H2025 C2035 0.929 . S
H2026 C2030 0.929 . S
H2027 C2036 0.929 . S
C2028 H2022 0.930 . S
C2028 C2029 1.367 . S
C2028 C2036 1.378 . S
C2029 C2028 1.367 . S
C2029 C2037 1.433 . S
C2030 H2026 0.929 . S
C2030 C2032 1.378 . S
C2030 C2034 1.350 . S
C2031 C2034 1.463 . S
C2031 C2036 1.350 . S
C2031 N2039 1.427 . S
C2032 H2023 0.930 . S
C2032 C2030 1.378 . S
C2032 C2033 1.367 . S
C2033 C2032 1.367 . S
C2033 C2035 1.433 . S
C2034 C2030 1.350 . S
C2034 C2031 1.463 . S
C2034 N2038 1.427 . S
C2035 H2025 0.929 . S
C2035 C2033 1.433 . S
C2035 N2038 1.384 . S
C2036 H2027 0.929 . S
C2036 C2028 1.378 . S
C2036 C2031 1.350 . S
C2037 H2024 0.929 . S
C2037 C2029 1.433 . S
C2037 N2039 1.384 . S
N2038 C2034 1.427 . S
N2038 C2035 1.384 . S
N2039 C2031 1.427 . S
N2039 C2037 1.384 . S
H2040 C2046 0.930 . S
H2041 C2050 0.930 . S
H2042 C2055 0.929 . S
H2043 C2053 0.929 . S
H2044 C2048 0.929 . S
H2045 C2054 0.929 . S
C2046 H2040 0.930 . S
C2046 C2047 1.367 . S
C2046 C2054 1.378 . S
C2047 C2046 1.367 . S
C2047 C2055 1.433 . S
C2048 H2044 0.929 . S
C2048 C2050 1.378 . S
C2048 C2052 1.350 . S
C2049 C2052 1.463 . S
C2049 C2054 1.350 . S
C2049 N2057 1.427 . S
C2050 H2041 0.930 . S
C2050 C2048 1.378 . S
C2050 C2051 1.367 . S
C2051 C2050 1.367 . S
C2051 C2053 1.433 . S
C2052 C2048 1.350 . S
C2052 C2049 1.463 . S
C2052 N2056 1.427 . S
C2053 H2043 0.929 . S
C2053 C2051 1.433 . S
C2053 N2056 1.384 . S
C2054 H2045 0.929 . S
C2054 C2046 1.378 . S
C2054 C2049 1.350 . S
C2055 H2042 0.929 . S
C2055 C2047 1.433 . S
C2055 N2057 1.384 . S
N2056 C2052 1.427 . S
N2056 C2053 1.384 . S
N2057 C2049 1.427 . S
N2057 C2055 1.384 . S
H2058 C2064 0.930 . S
H2059 C2068 0.930 . S
H2060 C2073 0.929 . S
H2061 C2071 0.929 . S
H2062 C2066 0.929 . S
H2063 C2072 0.929 . S
C2064 H2058 0.930 . S
C2064 C2065 1.367 . S
C2064 C2072 1.378 . S
C2065 C2064 1.367 . S
C2065 C2073 1.433 . S
C2066 H2062 0.929 . S
C2066 C2068 1.378 . S
C2066 C2070 1.350 . S
C2067 C2070 1.463 . S
C2067 C2072 1.350 . S
C2067 N2075 1.427 . S
C2068 H2059 0.930 . S
C2068 C2066 1.378 . S
C2068 C2069 1.367 . S
C2069 C2068 1.367 . S
C2069 C2071 1.433 . S
C2070 C2066 1.350 . S
C2070 C2067 1.463 . S
C2070 N2074 1.427 . S
C2071 H2061 0.929 . S
C2071 C2069 1.433 . S
C2071 N2074 1.384 . S
C2072 H2063 0.929 . S
C2072 C2064 1.378 . S
C2072 C2067 1.350 . S
C2073 H2060 0.929 . S
C2073 C2065 1.433 . S
C2073 N2075 1.384 . S
N2074 C2070 1.427 . S
N2074 C2071 1.384 . S
N2075 C2067 1.427 . S
N2075 C2073 1.384 . S
H2076 C2082 0.930 . S
H2077 C2086 0.930 . S
H2078 C2091 0.929 . S
H2079 C2089 0.929 . S
H2080 C2084 0.929 . S
H2081 C2090 0.929 . S
C2082 H2076 0.930 . S
C2082 C2083 1.367 . S
C2082 C2090 1.378 . S
C2083 C2082 1.367 . S
C2083 C2091 1.433 . S
C2084 H2080 0.929 . S
C2084 C2086 1.378 . S
C2084 C2088 1.350 . S
C2085 C2088 1.463 . S
C2085 C2090 1.350 . S
C2085 N2093 1.427 . S
C2086 H2077 0.930 . S
C2086 C2084 1.378 . S
C2086 C2087 1.367 . S
C2087 C2086 1.367 . S
C2087 C2089 1.433 . S
C2088 C2084 1.350 . S
C2088 C2085 1.463 . S
C2088 N2092 1.427 . S
C2089 H2079 0.929 . S
C2089 C2087 1.433 . S
C2089 N2092 1.384 . S
C2090 H2081 0.929 . S
C2090 C2082 1.378 . S
C2090 C2085 1.350 . S
C2091 H2078 0.929 . S
C2091 C2083 1.433 . S
C2091 N2093 1.384 . S
N2092 C2088 1.427 . S
N2092 C2089 1.384 . S
N2093 C2085 1.427 . S
N2093 C2091 1.384 . S
H2094 C2100 0.930 . S
H2095 C2104 0.930 . S
H2096 C2109 0.929 . S
H2097 C2107 0.929 . S
H2098 C2102 0.929 . S
H2099 C2108 0.929 . S
C2100 H2094 0.930 . S
C2100 C2101 1.367 . S
C2100 C2108 1.378 . S
C2101 C2100 1.367 . S
C2101 C2109 1.433 . S
C2102 H2098 0.929 . S
C2102 C2104 1.378 . S
C2102 C2106 1.350 . S
C2103 C2106 1.463 . S
C2103 C2108 1.350 . S
C2103 N2111 1.427 . S
C2104 H2095 0.930 . S
C2104 C2102 1.378 . S
C2104 C2105 1.367 . S
C2105 C2104 1.367 . S
C2105 C2107 1.433 . S
C2106 C2102 1.350 . S
C2106 C2103 1.463 . S
C2106 N2110 1.427 . S
C2107 H2097 0.929 . S
C2107 C2105 1.433 . S
C2107 N2110 1.384 . S
C2108 H2099 0.929 . S
C2108 C2100 1.378 . S
C2108 C2103 1.350 . S
C2109 H2096 0.929 . S
C2109 C2101 1.433 . S
C2109 N2111 1.384 . S
N2110 C2106 1.427 . S
N2110 C2107 1.384 . S
N2111 C2103 1.427 . S
N2111 C2109 1.384 . S
H2112 C2118 0.930 . S
H2113 C2122 0.930 . S
H2114 C2127 0.929 . S
H2115 C2125 0.929 . S
H2116 C2120 0.929 . S
H2117 C2126 0.929 . S
C2118 H2112 0.930 . S
C2118 C2119 1.367 . S
C2118 C2126 1.378 . S
C2119 C2118 1.367 . S
C2119 C2127 1.433 . S
C2120 H2116 0.929 . S
C2120 C2122 1.378 . S
C2120 C2124 1.350 . S
C2121 C2124 1.463 . S
C2121 C2126 1.350 . S
C2121 N2129 1.427 . S
C2122 H2113 0.930 . S
C2122 C2120 1.378 . S
C2122 C2123 1.367 . S
C2123 C2122 1.367 . S
C2123 C2125 1.433 . S
C2124 C2120 1.350 . S
C2124 C2121 1.463 . S
C2124 N2128 1.427 . S
C2125 H2115 0.929 . S
C2125 C2123 1.433 . S
C2125 N2128 1.384 . S
C2126 H2117 0.929 . S
C2126 C2118 1.378 . S
C2126 C2121 1.350 . S
C2127 H2114 0.929 . S
C2127 C2119 1.433 . S
C2127 N2129 1.384 . S
N2128 C2124 1.427 . S
N2128 C2125 1.384 . S
N2129 C2121 1.427 . S
N2129 C2127 1.384 . S
H2130 C2136 0.930 . S
H2131 C2140 0.930 . S
H2132 C2145 0.929 . S
H2133 C2143 0.929 . S
H2134 C2138 0.929 . S
H2135 C2144 0.929 . S
C2136 H2130 0.930 . S
C2136 C2137 1.367 . S
C2136 C2144 1.378 . S
C2137 C2136 1.367 . S
C2137 C2145 1.433 . S
C2138 H2134 0.929 . S
C2138 C2140 1.378 . S
C2138 C2142 1.350 . S
C2139 C2142 1.463 . S
C2139 C2144 1.350 . S
C2139 N2147 1.427 . S
C2140 H2131 0.930 . S
C2140 C2138 1.378 . S
C2140 C2141 1.367 . S
C2141 C2140 1.367 . S
C2141 C2143 1.433 . S
C2142 C2138 1.350 . S
C2142 C2139 1.463 . S
C2142 N2146 1.427 . S
C2143 H2133 0.929 . S
C2143 C2141 1.433 . S
C2143 N2146 1.384 . S
C2144 H2135 0.929 . S
C2144 C2136 1.378 . S
C2144 C2139 1.350 . S
C2145 H2132 0.929 . S
C2145 C2137 1.433 . S
C2145 N2147 1.384 . S
N2146 C2142 1.427 . S
N2146 C2143 1.384 . S
N2147 C2139 1.427 . S
N2147 C2145 1.384 . S
H2148 C2154 0.930 . S
H2149 C2158 0.930 . S
H2150 C2163 0.929 . S
H2151 C2161 0.929 . S
H2152 C2156 0.929 . S
H2153 C2162 0.929 . S
C2154 H2148 0.930 . S
C2154 C2155 1.367 . S
C2154 C2162 1.378 . S
C2155 C2154 1.367 . S
C2155 C2163 1.433 . S
C2156 H2152 0.929 . S
C2156 C2158 1.378 . S
C2156 C2160 1.350 . S
C2157 C2160 1.463 . S
C2157 C2162 1.350 . S
C2157 N2165 1.427 . S
C2158 H2149 0.930 . S
C2158 C2156 1.378 . S
C2158 C2159 1.367 . S
C2159 C2158 1.367 . S
C2159 C2161 1.433 . S
C2160 C2156 1.350 . S
C2160 C2157 1.463 . S
C2160 N2164 1.427 . S
C2161 H2151 0.929 . S
C2161 C2159 1.433 . S
C2161 N2164 1.384 . S
C2162 H2153 0.929 . S
C2162 C2154 1.378 . S
C2162 C2157 1.350 . S
C2163 H2150 0.929 . S
C2163 C2155 1.433 . S
C2163 N2165 1.384 . S
N2164 C2160 1.427 . S
N2164 C2161 1.384 . S
N2165 C2157 1.427 . S
N2165 C2163 1.384 . S
H2166 C2172 0.930 . S
H2167 C2176 0.930 . S
H2168 C2181 0.929 . S
H2169 C2179 0.929 . S
H2170 C2174 0.929 . S
H2171 C2180 0.929 . S
C2172 H2166 0.930 . S
C2172 C2173 1.367 . S
C2172 C2180 1.378 . S
C2173 C2172 1.367 . S
C2173 C2181 1.433 . S
C2174 H2170 0.929 . S
C2174 C2176 1.378 . S
C2174 C2178 1.350 . S
C2175 C2178 1.463 . S
C2175 C2180 1.350 . S
C2175 N2183 1.427 . S
C2176 H2167 0.930 . S
C2176 C2174 1.378 . S
C2176 C2177 1.367 . S
C2177 C2176 1.367 . S
C2177 C2179 1.433 . S
C2178 C2174 1.350 . S
C2178 C2175 1.463 . S
C2178 N2182 1.427 . S
C2179 H2169 0.929 . S
C2179 C2177 1.433 . S
C2179 N2182 1.384 . S
C2180 H2171 0.929 . S
C2180 C2172 1.378 . S
C2180 C2175 1.350 . S
C2181 H2168 0.929 . S
C2181 C2173 1.433 . S
C2181 N2183 1.384 . S
N2182 C2178 1.427 . S
N2182 C2179 1.384 . S
N2183 C2175 1.427 . S
N2183 C2181 1.384 . S
H2184 C2190 0.930 . S
H2185 C2194 0.930 . S
H2186 C2199 0.929 . S
H2187 C2197 0.929 . S
H2188 C2192 0.929 . S
H2189 C2198 0.929 . S
C2190 H2184 0.930 . S
C2190 C2191 1.367 . S
C2190 C2198 1.378 . S
C2191 C2190 1.367 . S
C2191 C2199 1.433 . S
C2192 H2188 0.929 . S
C2192 C2194 1.378 . S
C2192 C2196 1.350 . S
C2193 C2196 1.463 . S
C2193 C2198 1.350 . S
C2193 N2201 1.427 . S
C2194 H2185 0.930 . S
C2194 C2192 1.378 . S
C2194 C2195 1.367 . S
C2195 C2194 1.367 . S
C2195 C2197 1.433 . S
C2196 C2192 1.350 . S
C2196 C2193 1.463 . S
C2196 N2200 1.427 . S
C2197 H2187 0.929 . S
C2197 C2195 1.433 . S
C2197 N2200 1.384 . S
C2198 H2189 0.929 . S
C2198 C2190 1.378 . S
C2198 C2193 1.350 . S
C2199 H2186 0.929 . S
C2199 C2191 1.433 . S
C2199 N2201 1.384 . S
N2200 C2196 1.427 . S
N2200 C2197 1.384 . S
N2201 C2193 1.427 . S
N2201 C2199 1.384 . S
H2202 C2208 0.930 . S
H2203 C2212 0.930 . S
H2204 C2217 0.929 . S
H2205 C2215 0.929 . S
H2206 C2210 0.929 . S
H2207 C2216 0.929 . S
C2208 H2202 0.930 . S
C2208 C2209 1.367 . S
C2208 C2216 1.378 . S
C2209 C2208 1.367 . S
C2209 C2217 1.433 . S
C2210 H2206 0.929 . S
C2210 C2212 1.378 . S
C2210 C2214 1.350 . S
C2211 C2214 1.463 . S
C2211 C2216 1.350 . S
C2211 N2219 1.427 . S
C2212 H2203 0.930 . S
C2212 C2210 1.378 . S
C2212 C2213 1.367 . S
C2213 C2212 1.367 . S
C2213 C2215 1.433 . S
C2214 C2210 1.350 . S
C2214 C2211 1.463 . S
C2214 N2218 1.427 . S
C2215 H2205 0.929 . S
C2215 C2213 1.433 . S
C2215 N2218 1.384 . S
C2216 H2207 0.929 . S
C2216 C2208 1.378 . S
C2216 C2211 1.350 . S
C2217 H2204 0.929 . S
C2217 C2209 1.433 . S
C2217 N2219 1.384 . S
N2218 C2214 1.427 . S
N2218 C2215 1.384 . S
N2219 C2211 1.427 . S
N2219 C2217 1.384 . S
H2220 C2226 0.930 . S
H2221 C2230 0.906 1_554 S
H2222 C2235 0.929 . S
H2223 C2233 0.929 . S
H2224 C2228 0.929 . S
H2225 C2234 0.929 . S
C2226 H2220 0.930 . S
C2226 C2227 1.367 . S
C2226 C2234 1.378 . S
C2227 C2226 1.367 . S
C2227 C2235 1.433 . S
C2228 H2224 0.929 . S
C2228 C2230 1.378 . S
C2228 C2232 1.350 . S
C2229 C2232 1.463 . S
C2229 C2234 1.350 . S
C2229 N2237 1.427 . S
C2230 H2221 0.906 1_556 S
C2230 C2228 1.378 . S
C2230 C2231 1.367 . S
C2231 C2230 1.367 . S
C2231 C2233 1.433 . S
C2232 C2228 1.350 . S
C2232 C2229 1.463 . S
C2232 N2236 1.427 . S
C2233 H2223 0.929 . S
C2233 C2231 1.433 . S
C2233 N2236 1.384 . S
C2234 H2225 0.929 . S
C2234 C2226 1.378 . S
C2234 C2229 1.350 . S
C2235 H2222 0.929 . S
C2235 C2227 1.433 . S
C2235 N2237 1.384 . S
N2236 C2232 1.427 . S
N2236 C2233 1.384 . S
N2237 C2229 1.427 . S
N2237 C2235 1.384 . S
H2238 C2244 0.930 . S
H2239 C2248 0.930 . S
H2240 C2253 0.929 . S
H2241 C2251 0.929 . S
H2242 C2246 0.929 . S
H2243 C2252 0.929 . S
C2244 H2238 0.930 . S
C2244 C2245 1.367 . S
C2244 C2252 1.378 . S
C2245 C2244 1.367 . S
C2245 C2253 1.433 . S
C2246 H2242 0.929 . S
C2246 C2248 1.378 . S
C2246 C2250 1.350 . S
C2247 C2250 1.463 . S
C2247 C2252 1.350 . S
C2247 N2255 1.427 . S
C2248 H2239 0.930 . S
C2248 C2246 1.378 . S
C2248 C2249 1.367 . S
C2249 C2248 1.367 . S
C2249 C2251 1.433 . S
C2250 C2246 1.350 . S
C2250 C2247 1.463 . S
C2250 N2254 1.427 . S
C2251 H2241 0.929 . S
C2251 C2249 1.433 . S
C2251 N2254 1.384 . S
C2252 H2243 0.929 . S
C2252 C2244 1.378 . S
C2252 C2247 1.350 . S
C2253 H2240 0.929 . S
C2253 C2245 1.433 . S
C2253 N2255 1.384 . S
N2254 C2250 1.427 . S
N2254 C2251 1.384 . S
N2255 C2247 1.427 . S
N2255 C2253 1.384 . S
H2256 C2262 0.930 . S
H2257 C2266 0.930 . S
H2258 C2271 0.929 . S
H2259 C2269 0.929 . S
H2260 C2264 0.929 . S
H2261 C2270 0.929 . S
C2262 H2256 0.930 . S
C2262 C2263 1.367 . S
C2262 C2270 1.378 . S
C2263 C2262 1.367 . S
C2263 C2271 1.433 . S
C2264 H2260 0.929 . S
C2264 C2266 1.378 . S
C2264 C2268 1.350 . S
C2265 C2268 1.463 . S
C2265 C2270 1.350 . S
C2265 N2273 1.427 . S
C2266 H2257 0.930 . S
C2266 C2264 1.378 . S
C2266 C2267 1.367 . S
C2267 C2266 1.367 . S
C2267 C2269 1.433 . S
C2268 C2264 1.350 . S
C2268 C2265 1.463 . S
C2268 N2272 1.427 . S
C2269 H2259 0.929 . S
C2269 C2267 1.433 . S
C2269 N2272 1.384 . S
C2270 H2261 0.929 . S
C2270 C2262 1.378 . S
C2270 C2265 1.350 . S
C2271 H2258 0.929 . S
C2271 C2263 1.433 . S
C2271 N2273 1.384 . S
N2272 C2268 1.427 . S
N2272 C2269 1.384 . S
N2273 C2265 1.427 . S
N2273 C2271 1.384 . S
H2274 C2280 0.930 . S
H2275 C2284 0.930 . S
H2276 C2289 0.929 . S
H2277 C2287 0.929 . S
H2278 C2282 0.929 . S
H2279 C2288 0.929 . S
C2280 H2274 0.930 . S
C2280 C2281 1.367 . S
C2280 C2288 1.378 . S
C2281 C2280 1.367 . S
C2281 C2289 1.433 . S
C2282 H2278 0.929 . S
C2282 C2284 1.378 . S
C2282 C2286 1.350 . S
C2283 C2286 1.463 . S
C2283 C2288 1.350 . S
C2283 N2291 1.427 . S
C2284 H2275 0.930 . S
C2284 C2282 1.378 . S
C2284 C2285 1.367 . S
C2285 C2284 1.367 . S
C2285 C2287 1.433 . S
C2286 C2282 1.350 . S
C2286 C2283 1.463 . S
C2286 N2290 1.427 . S
C2287 H2277 0.929 . S
C2287 C2285 1.433 . S
C2287 N2290 1.384 . S
C2288 H2279 0.929 . S
C2288 C2280 1.378 . S
C2288 C2283 1.350 . S
C2289 H2276 0.929 . S
C2289 C2281 1.433 . S
C2289 N2291 1.384 . S
N2290 C2286 1.427 . S
N2290 C2287 1.384 . S
N2291 C2283 1.427 . S
N2291 C2289 1.384 . S
H2292 C2298 0.930 . S
H2293 C2302 0.930 . S
H2294 C2307 0.929 . S
H2295 C2305 0.929 . S
H2296 C2300 0.929 . S
H2297 C2306 0.929 1_565 S
C2298 H2292 0.930 . S
C2298 C2299 1.367 1_565 S
C2298 C2306 1.378 1_565 S
C2299 C2298 1.367 1_545 S
C2299 C2307 1.433 . S
C2300 H2296 0.929 . S
C2300 C2302 1.378 . S
C2300 C2304 1.350 . S
C2301 C2304 1.463 . S
C2301 C2306 1.350 . S
C2301 N2309 1.427 . S
C2302 H2293 0.930 . S
C2302 C2300 1.378 . S
C2302 C2303 1.367 . S
C2303 C2302 1.367 . S
C2303 C2305 1.433 . S
C2304 C2300 1.350 . S
C2304 C2301 1.463 . S
C2304 N2308 1.427 . S
C2305 H2295 0.929 . S
C2305 C2303 1.433 . S
C2305 N2308 1.384 . S
C2306 H2297 0.929 1_545 S
C2306 C2298 1.378 1_545 S
C2306 C2301 1.350 . S
C2307 H2294 0.929 . S
C2307 C2299 1.433 . S
C2307 N2309 1.384 . S
N2308 C2304 1.427 . S
N2308 C2305 1.384 . S
N2309 C2301 1.427 . S
N2309 C2307 1.384 . S
H2310 C2316 0.930 . S
H2311 C2320 0.930 . S
H2312 C2325 0.929 . S
H2313 C2323 0.929 . S
H2314 C2318 0.929 . S
H2315 C2324 0.929 . S
C2316 H2310 0.930 . S
C2316 C2317 1.367 . S
C2316 C2324 1.378 . S
C2317 C2316 1.367 . S
C2317 C2325 1.433 . S
C2318 H2314 0.929 . S
C2318 C2320 1.378 . S
C2318 C2322 1.350 . S
C2319 C2322 1.463 . S
C2319 C2324 1.350 . S
C2319 N2327 1.427 . S
C2320 H2311 0.930 . S
C2320 C2318 1.378 . S
C2320 C2321 1.367 . S
C2321 C2320 1.367 . S
C2321 C2323 1.433 . S
C2322 C2318 1.350 . S
C2322 C2319 1.463 . S
C2322 N2326 1.427 . S
C2323 H2313 0.929 . S
C2323 C2321 1.433 . S
C2323 N2326 1.384 . S
C2324 H2315 0.929 . S
C2324 C2316 1.378 . S
C2324 C2319 1.350 . S
C2325 H2312 0.929 . S
C2325 C2317 1.433 . S
C2325 N2327 1.384 . S
N2326 C2322 1.427 . S
N2326 C2323 1.384 . S
N2327 C2319 1.427 . S
N2327 C2325 1.384 . S
H2328 C2334 0.930 . S
H2329 C2338 0.930 . S
H2330 C2343 0.929 . S
H2331 C2341 0.929 . S
H2332 C2336 0.929 . S
H2333 C2342 0.929 . S
C2334 H2328 0.930 . S
C2334 C2335 1.367 . S
C2334 C2342 1.378 . S
C2335 C2334 1.367 . S
C2335 C2343 1.433 . S
C2336 H2332 0.929 . S
C2336 C2338 1.378 . S
C2336 C2340 1.350 . S
C2337 C2340 1.463 . S
C2337 C2342 1.350 . S
C2337 N2345 1.427 . S
C2338 H2329 0.930 . S
C2338 C2336 1.378 . S
C2338 C2339 1.367 . S
C2339 C2338 1.367 . S
C2339 C2341 1.433 . S
C2340 C2336 1.350 . S
C2340 C2337 1.463 . S
C2340 N2344 1.427 . S
C2341 H2331 0.929 . S
C2341 C2339 1.433 . S
C2341 N2344 1.384 . S
C2342 H2333 0.929 . S
C2342 C2334 1.378 . S
C2342 C2337 1.350 . S
C2343 H2330 0.929 . S
C2343 C2335 1.433 . S
C2343 N2345 1.384 . S
N2344 C2340 1.427 . S
N2344 C2341 1.384 . S
N2345 C2337 1.427 . S
N2345 C2343 1.384 . S
H2346 C2352 0.930 . S
H2347 C2356 0.930 . S
H2348 C2361 0.929 . S
H2349 C2359 0.929 . S
H2350 C2354 0.929 . S
H2351 C2360 0.929 . S
C2352 H2346 0.930 . S
C2352 C2353 1.367 . S
C2352 C2360 1.378 . S
C2353 C2352 1.367 . S
C2353 C2361 1.433 . S
C2354 H2350 0.929 . S
C2354 C2356 1.378 . S
C2354 C2358 1.350 . S
C2355 C2358 1.463 . S
C2355 C2360 1.350 . S
C2355 N2363 1.427 . S
C2356 H2347 0.930 . S
C2356 C2354 1.378 . S
C2356 C2357 1.367 . S
C2357 C2356 1.367 . S
C2357 C2359 1.433 . S
C2358 C2354 1.350 . S
C2358 C2355 1.463 . S
C2358 N2362 1.427 . S
C2359 H2349 0.929 . S
C2359 C2357 1.433 . S
C2359 N2362 1.384 . S
C2360 H2351 0.929 . S
C2360 C2352 1.378 . S
C2360 C2355 1.350 . S
C2361 H2348 0.929 . S
C2361 C2353 1.433 . S
C2361 N2363 1.384 . S
N2362 C2358 1.427 . S
N2362 C2359 1.384 . S
N2363 C2355 1.427 . S
N2363 C2361 1.384 . S
H2364 C2370 0.930 . S
H2365 C2374 0.930 . S
H2366 C2379 0.929 . S
H2367 C2377 0.929 . S
H2368 C2372 0.929 . S
H2369 C2378 0.929 . S
C2370 H2364 0.930 . S
C2370 C2371 1.367 1_565 S
C2370 C2378 1.378 . S
C2371 C2370 1.367 1_545 S
C2371 C2379 1.433 . S
C2372 H2368 0.929 . S
C2372 C2374 1.378 . S
C2372 C2376 1.350 . S
C2373 C2376 1.463 . S
C2373 C2378 1.350 1_545 S
C2373 N2381 1.427 . S
C2374 H2365 0.930 . S
C2374 C2372 1.378 . S
C2374 C2375 1.367 . S
C2375 C2374 1.367 . S
C2375 C2377 1.433 1_545 S
C2376 C2372 1.350 . S
C2376 C2373 1.463 . S
C2376 N2380 1.427 1_545 S
C2377 H2367 0.929 . S
C2377 C2375 1.433 1_565 S
C2377 N2380 1.384 . S
C2378 H2369 0.929 . S
C2378 C2370 1.378 . S
C2378 C2373 1.350 1_565 S
C2379 H2366 0.929 . S
C2379 C2371 1.433 . S
C2379 N2381 1.384 . S
N2380 C2376 1.427 1_565 S
N2380 C2377 1.384 . S
N2381 C2373 1.427 . S
N2381 C2379 1.384 . S
H2382 C2388 0.930 . S
H2383 C2392 0.930 . S
H2384 C2397 0.929 . S
H2385 C2395 0.929 . S
H2386 C2390 0.929 . S
H2387 C2396 0.929 . S
C2388 H2382 0.930 . S
C2388 C2389 1.367 . S
C2388 C2396 1.378 . S
C2389 C2388 1.367 . S
C2389 C2397 1.433 . S
C2390 H2386 0.929 . S
C2390 C2392 1.378 . S
C2390 C2394 1.350 . S
C2391 C2394 1.463 . S
C2391 C2396 1.350 . S
C2391 N2399 1.427 . S
C2392 H2383 0.930 . S
C2392 C2390 1.378 . S
C2392 C2393 1.367 . S
C2393 C2392 1.367 . S
C2393 C2395 1.433 . S
C2394 C2390 1.350 . S
C2394 C2391 1.463 . S
C2394 N2398 1.427 . S
C2395 H2385 0.929 . S
C2395 C2393 1.433 . S
C2395 N2398 1.384 . S
C2396 H2387 0.929 . S
C2396 C2388 1.378 . S
C2396 C2391 1.350 . S
C2397 H2384 0.929 . S
C2397 C2389 1.433 . S
C2397 N2399 1.384 . S
N2398 C2394 1.427 . S
N2398 C2395 1.384 . S
N2399 C2391 1.427 . S
N2399 C2397 1.384 . S
H2400 C2406 0.930 . S
H2401 C2410 0.930 1_556 S
H2402 C2415 0.929 . S
H2403 C2413 0.929 . S
H2404 C2408 0.929 . S
H2405 C2414 0.929 . S
C2406 H2400 0.930 . S
C2406 C2407 1.367 . S
C2406 C2414 1.378 . S
C2407 C2406 1.367 . S
C2407 C2415 1.433 . S
C2408 H2404 0.929 . S
C2408 C2410 1.378 . S
C2408 C2412 1.350 . S
C2409 C2412 1.463 . S
C2409 C2414 1.350 . S
C2409 N2417 1.427 . S
C2410 H2401 0.930 1_554 S
C2410 C2408 1.378 . S
C2410 C2411 1.367 . S
C2411 C2410 1.367 . S
C2411 C2413 1.433 . S
C2412 C2408 1.350 . S
C2412 C2409 1.463 . S
C2412 N2416 1.427 . S
C2413 H2403 0.929 . S
C2413 C2411 1.433 . S
C2413 N2416 1.384 . S
C2414 H2405 0.929 . S
C2414 C2406 1.378 . S
C2414 C2409 1.350 . S
C2415 H2402 0.929 . S
C2415 C2407 1.433 . S
C2415 N2417 1.384 . S
N2416 C2412 1.427 . S
N2416 C2413 1.384 . S
N2417 C2409 1.427 . S
N2417 C2415 1.384 . S
H2418 C2424 0.930 . S
H2419 C2428 0.930 . S
H2420 C2433 0.929 . S
H2421 C2431 0.929 . S
H2422 C2426 0.929 . S
H2423 C2432 0.929 . S
C2424 H2418 0.930 . S
C2424 C2425 1.367 . S
C2424 C2432 1.378 . S
C2425 C2424 1.367 . S
C2425 C2433 1.433 . S
C2426 H2422 0.929 . S
C2426 C2428 1.378 . S
C2426 C2430 1.350 . S
C2427 C2430 1.463 . S
C2427 C2432 1.350 . S
C2427 N2435 1.427 . S
C2428 H2419 0.930 . S
C2428 C2426 1.378 . S
C2428 C2429 1.367 . S
C2429 C2428 1.367 . S
C2429 C2431 1.433 . S
C2430 C2426 1.350 . S
C2430 C2427 1.463 . S
C2430 N2434 1.427 . S
C2431 H2421 0.929 . S
C2431 C2429 1.433 . S
C2431 N2434 1.384 . S
C2432 H2423 0.929 . S
C2432 C2424 1.378 . S
C2432 C2427 1.350 . S
C2433 H2420 0.929 . S
C2433 C2425 1.433 . S
C2433 N2435 1.384 . S
N2434 C2430 1.427 . S
N2434 C2431 1.384 . S
N2435 C2427 1.427 . S
N2435 C2433 1.384 . S
H2436 C2442 0.930 . S
H2437 C2446 0.930 . S
H2438 C2451 0.929 . S
H2439 C2449 0.929 . S
H2440 C2444 0.929 . S
H2441 C2450 0.929 . S
C2442 H2436 0.930 . S
C2442 C2443 1.367 . S
C2442 C2450 1.378 . S
C2443 C2442 1.367 . S
C2443 C2451 1.433 . S
C2444 H2440 0.929 . S
C2444 C2446 1.378 . S
C2444 C2448 1.350 . S
C2445 C2448 1.463 . S
C2445 C2450 1.350 . S
C2445 N2453 1.427 . S
C2446 H2437 0.930 . S
C2446 C2444 1.378 . S
C2446 C2447 1.367 . S
C2447 C2446 1.367 . S
C2447 C2449 1.433 . S
C2448 C2444 1.350 . S
C2448 C2445 1.463 . S
C2448 N2452 1.427 . S
C2449 H2439 0.929 . S
C2449 C2447 1.433 . S
C2449 N2452 1.384 . S
C2450 H2441 0.929 . S
C2450 C2442 1.378 . S
C2450 C2445 1.350 . S
C2451 H2438 0.929 . S
C2451 C2443 1.433 . S
C2451 N2453 1.384 . S
N2452 C2448 1.427 . S
N2452 C2449 1.384 . S
N2453 C2445 1.427 . S
N2453 C2451 1.384 . S
H2454 C2460 0.930 . S
H2455 C2464 0.930 . S
H2456 C2469 0.929 . S
H2457 C2467 0.929 . S
H2458 C2462 0.929 . S
H2459 C2468 0.929 . S
C2460 H2454 0.930 . S
C2460 C2461 1.367 . S
C2460 C2468 1.378 . S
C2461 C2460 1.367 . S
C2461 C2469 1.433 . S
C2462 H2458 0.929 . S
C2462 C2464 1.378 . S
C2462 C2466 1.350 . S
C2463 C2466 1.463 . S
C2463 C2468 1.350 . S
C2463 N2471 1.427 . S
C2464 H2455 0.930 . S
C2464 C2462 1.378 . S
C2464 C2465 1.367 . S
C2465 C2464 1.367 . S
C2465 C2467 1.433 . S
C2466 C2462 1.350 . S
C2466 C2463 1.463 . S
C2466 N2470 1.427 . S
C2467 H2457 0.929 . S
C2467 C2465 1.433 . S
C2467 N2470 1.384 . S
C2468 H2459 0.929 . S
C2468 C2460 1.378 . S
C2468 C2463 1.350 . S
C2469 H2456 0.929 . S
C2469 C2461 1.433 . S
C2469 N2471 1.384 . S
N2470 C2466 1.427 . S
N2470 C2467 1.384 . S
N2471 C2463 1.427 . S
N2471 C2469 1.384 . S
H2472 C2478 0.930 1_545 S
H2473 C2482 0.930 . S
H2474 C2487 0.929 . S
H2475 C2485 0.929 . S
H2476 C2480 0.929 . S
H2477 C2486 0.929 . S
C2478 H2472 0.930 1_565 S
C2478 C2479 1.382 . S
C2478 C2486 1.378 . S
C2479 C2478 1.382 . S
C2479 C2487 1.461 . S
C2480 H2476 0.929 . S
C2480 C2482 1.378 . S
C2480 C2484 1.350 . S
C2481 C2484 1.463 . S
C2481 C2486 1.350 . S
C2481 N2489 1.427 . S
C2482 H2473 0.930 . S
C2482 C2480 1.378 . S
C2482 C2483 1.367 . S
C2483 C2482 1.367 . S
C2483 C2485 1.433 . S
C2484 C2480 1.350 . S
C2484 C2481 1.463 . S
C2484 N2488 1.427 . S
C2485 H2475 0.929 . S
C2485 C2483 1.433 . S
C2485 N2488 1.384 . S
C2486 H2477 0.929 . S
C2486 C2478 1.378 . S
C2486 C2481 1.350 . S
C2487 H2474 0.929 . S
C2487 C2479 1.461 . S
C2487 N2489 1.384 . S
N2488 C2484 1.427 . S
N2488 C2485 1.384 . S
N2489 C2481 1.427 . S
N2489 C2487 1.384 . S
H2490 C2496 0.930 . S
H2491 C2500 0.930 . S
H2492 C2505 0.929 . S
H2493 C2503 0.929 . S
H2494 C2498 0.929 . S
H2495 C2504 0.929 . S
C2496 H2490 0.930 . S
C2496 C2497 1.367 . S
C2496 C2504 1.378 . S
C2497 C2496 1.367 . S
C2497 C2505 1.433 . S
C2498 H2494 0.929 . S
C2498 C2500 1.378 . S
C2498 C2502 1.350 . S
C2499 C2502 1.463 . S
C2499 C2504 1.350 . S
C2499 N2507 1.427 . S
C2500 H2491 0.930 . S
C2500 C2498 1.378 . S
C2500 C2501 1.367 . S
C2501 C2500 1.367 . S
C2501 C2503 1.433 . S
C2502 C2498 1.350 . S
C2502 C2499 1.463 . S
C2502 N2506 1.427 . S
C2503 H2493 0.929 . S
C2503 C2501 1.433 . S
C2503 N2506 1.384 . S
C2504 H2495 0.929 . S
C2504 C2496 1.378 . S
C2504 C2499 1.350 . S
C2505 H2492 0.929 . S
C2505 C2497 1.433 . S
C2505 N2507 1.384 . S
N2506 C2502 1.427 . S
N2506 C2503 1.384 . S
N2507 C2499 1.427 . S
N2507 C2505 1.384 . S
H2508 C2514 0.930 . S
H2509 C2518 0.930 . S
H2510 C2523 0.929 . S
H2511 C2521 0.929 . S
H2512 C2516 0.929 . S
H2513 C2522 0.929 . S
C2514 H2508 0.930 . S
C2514 C2515 1.367 . S
C2514 C2522 1.378 . S
C2515 C2514 1.367 . S
C2515 C2523 1.433 . S
C2516 H2512 0.929 . S
C2516 C2518 1.378 . S
C2516 C2520 1.350 . S
C2517 C2520 1.463 . S
C2517 C2522 1.350 . S
C2517 N2525 1.427 . S
C2518 H2509 0.930 . S
C2518 C2516 1.378 . S
C2518 C2519 1.367 . S
C2519 C2518 1.367 . S
C2519 C2521 1.433 . S
C2520 C2516 1.350 . S
C2520 C2517 1.463 . S
C2520 N2524 1.427 . S
C2521 H2511 0.929 . S
C2521 C2519 1.433 . S
C2521 N2524 1.384 . S
C2522 H2513 0.929 . S
C2522 C2514 1.378 . S
C2522 C2517 1.350 . S
C2523 H2510 0.929 . S
C2523 C2515 1.433 . S
C2523 N2525 1.384 . S
N2524 C2520 1.427 . S
N2524 C2521 1.384 . S
N2525 C2517 1.427 . S
N2525 C2523 1.384 . S
H2526 C2532 0.930 . S
H2527 C2536 0.930 . S
H2528 C2541 0.929 . S
H2529 C2539 0.929 . S
H2530 C2534 0.929 . S
H2531 C2540 0.929 . S
C2532 H2526 0.930 . S
C2532 C2533 1.367 . S
C2532 C2540 1.378 . S
C2533 C2532 1.367 . S
C2533 C2541 1.433 . S
C2534 H2530 0.929 . S
C2534 C2536 1.378 . S
C2534 C2538 1.350 . S
C2535 C2538 1.463 . S
C2535 C2540 1.350 . S
C2535 N2543 1.427 . S
C2536 H2527 0.930 . S
C2536 C2534 1.378 . S
C2536 C2537 1.367 . S
C2537 C2536 1.367 . S
C2537 C2539 1.433 . S
C2538 C2534 1.350 . S
C2538 C2535 1.463 . S
C2538 N2542 1.427 . S
C2539 H2529 0.929 . S
C2539 C2537 1.433 . S
C2539 N2542 1.384 . S
C2540 H2531 0.929 . S
C2540 C2532 1.378 . S
C2540 C2535 1.350 . S
C2541 H2528 0.929 . S
C2541 C2533 1.433 . S
C2541 N2543 1.384 . S
N2542 C2538 1.427 . S
N2542 C2539 1.384 . S
N2543 C2535 1.427 . S
N2543 C2541 1.384 . S
H2544 C2550 0.930 . S
H2545 C2554 0.930 . S
H2546 C2559 0.929 . S
H2547 C2557 0.929 . S
H2548 C2552 0.929 . S
H2549 C2558 0.929 . S
C2550 H2544 0.930 . S
C2550 C2551 1.367 . S
C2550 C2558 1.378 . S
C2551 C2550 1.367 . S
C2551 C2559 1.433 . S
C2552 H2548 0.929 . S
C2552 C2554 1.378 . S
C2552 C2556 1.350 . S
C2553 C2556 1.463 . S
C2553 C2558 1.350 . S
C2553 N2561 1.427 . S
C2554 H2545 0.930 . S
C2554 C2552 1.378 . S
C2554 C2555 1.367 . S
C2555 C2554 1.367 . S
C2555 C2557 1.433 . S
C2556 C2552 1.350 . S
C2556 C2553 1.463 . S
C2556 N2560 1.427 . S
C2557 H2547 0.929 . S
C2557 C2555 1.433 . S
C2557 N2560 1.384 . S
C2558 H2549 0.929 . S
C2558 C2550 1.378 . S
C2558 C2553 1.350 . S
C2559 H2546 0.929 . S
C2559 C2551 1.433 . S
C2559 N2561 1.384 . S
N2560 C2556 1.427 . S
N2560 C2557 1.384 . S
N2561 C2553 1.427 . S
N2561 C2559 1.384 . S
H2562 C2568 0.930 . S
H2563 C2572 0.930 . S
H2564 C2577 0.929 . S
H2565 C2575 0.929 . S
H2566 C2570 0.929 . S
H2567 C2576 0.929 . S
C2568 H2562 0.930 . S
C2568 C2569 1.367 . S
C2568 C2576 1.378 . S
C2569 C2568 1.367 . S
C2569 C2577 1.433 . S
C2570 H2566 0.929 . S
C2570 C2572 1.378 . S
C2570 C2574 1.350 . S
C2571 C2574 1.463 . S
C2571 C2576 1.350 . S
C2571 N2579 1.427 . S
C2572 H2563 0.930 . S
C2572 C2570 1.378 . S
C2572 C2573 1.367 . S
C2573 C2572 1.367 . S
C2573 C2575 1.433 . S
C2574 C2570 1.350 . S
C2574 C2571 1.463 . S
C2574 N2578 1.427 . S
C2575 H2565 0.929 . S
C2575 C2573 1.433 . S
C2575 N2578 1.384 . S
C2576 H2567 0.929 . S
C2576 C2568 1.378 . S
C2576 C2571 1.350 . S
C2577 H2564 0.929 . S
C2577 C2569 1.433 . S
C2577 N2579 1.384 . S
N2578 C2574 1.427 . S
N2578 C2575 1.384 . S
N2579 C2571 1.427 . S
N2579 C2577 1.384 . S
H2580 C2586 0.926 1_655 S
H2581 C2590 0.930 . S
H2582 C2595 0.929 . S
H2583 C2593 0.929 . S
H2584 C2588 0.929 . S
H2585 C2594 0.929 . S
C2586 H2580 0.926 1_455 S
C2586 C2587 1.367 . S
C2586 C2594 1.378 . S
C2587 C2586 1.367 . S
C2587 C2595 1.433 1_556 S
C2588 H2584 0.929 . S
C2588 C2590 1.378 . S
C2588 C2592 1.350 . S
C2589 C2592 1.463 1_556 S
C2589 C2594 1.350 . S
C2589 N2597 1.427 1_556 S
C2590 H2581 0.930 . S
C2590 C2588 1.378 . S
C2590 C2591 1.367 . S
C2591 C2590 1.367 . S
C2591 C2593 1.433 1_554 S
C2592 C2588 1.350 . S
C2592 C2589 1.463 1_554 S
C2592 N2596 1.427 1_554 S
C2593 H2583 0.929 . S
C2593 C2591 1.433 1_556 S
C2593 N2596 1.384 . S
C2594 H2585 0.929 . S
C2594 C2586 1.378 . S
C2594 C2589 1.350 . S
C2595 H2582 0.929 . S
C2595 C2587 1.433 1_554 S
C2595 N2597 1.384 . S
N2596 C2592 1.427 1_556 S
N2596 C2593 1.384 . S
N2597 C2589 1.427 1_554 S
N2597 C2595 1.384 . S
H2598 C2604 0.930 . S
H2599 C2608 0.930 . S
H2600 C2613 0.954 . S
H2601 C2611 0.929 . S
H2602 C2606 0.929 . S
H2603 C2612 0.929 . S
C2604 H2598 0.930 . S
C2604 C2605 1.367 . S
C2604 C2612 1.378 . S
C2605 C2604 1.367 . S
C2605 C2613 1.435 1_655 S
C2606 H2602 0.929 . S
C2606 C2608 1.378 . S
C2606 C2610 1.350 . S
C2607 C2610 1.463 . S
C2607 C2612 1.350 . S
C2607 N2615 1.427 . S
C2608 H2599 0.930 . S
C2608 C2606 1.378 . S
C2608 C2609 1.367 . S
C2609 C2608 1.367 . S
C2609 C2611 1.433 . S
C2610 C2606 1.350 . S
C2610 C2607 1.463 . S
C2610 N2614 1.427 . S
C2611 H2601 0.929 . S
C2611 C2609 1.433 . S
C2611 N2614 1.384 . S
C2612 H2603 0.929 . S
C2612 C2604 1.378 . S
C2612 C2607 1.350 . S
C2613 H2600 0.954 . S
C2613 C2605 1.435 1_455 S
C2613 N2615 1.357 1_455 S
N2614 C2610 1.427 . S
N2614 C2611 1.384 . S
N2615 C2607 1.427 . S
N2615 C2613 1.357 1_655 S
H2616 C2622 0.930 . S
H2617 C2626 0.930 . S
H2618 C2631 0.929 . S
H2619 C2629 0.929 . S
H2620 C2624 0.929 . S
H2621 C2630 0.929 . S
C2622 H2616 0.930 . S
C2622 C2623 1.367 . S
C2622 C2630 1.378 . S
C2623 C2622 1.367 . S
C2623 C2631 1.433 . S
C2624 H2620 0.929 . S
C2624 C2626 1.378 . S
C2624 C2628 1.350 . S
C2625 C2628 1.463 . S
C2625 C2630 1.350 . S
C2625 N2633 1.427 . S
C2626 H2617 0.930 . S
C2626 C2624 1.378 . S
C2626 C2627 1.367 . S
C2627 C2626 1.367 . S
C2627 C2629 1.433 . S
C2628 C2624 1.350 . S
C2628 C2625 1.463 . S
C2628 N2632 1.427 . S
C2629 H2619 0.929 . S
C2629 C2627 1.433 . S
C2629 N2632 1.384 . S
C2630 H2621 0.929 . S
C2630 C2622 1.378 . S
C2630 C2625 1.350 . S
C2631 H2618 0.929 . S
C2631 C2623 1.433 . S
C2631 N2633 1.384 . S
N2632 C2628 1.427 . S
N2632 C2629 1.384 . S
N2633 C2625 1.427 . S
N2633 C2631 1.384 . S
H2634 C2640 0.930 . S
H2635 C2644 0.930 . S
H2636 C2649 0.929 . S
H2637 C2647 0.929 . S
H2638 C2642 0.929 . S
H2639 C2648 0.929 . S
C2640 H2634 0.930 . S
C2640 C2641 1.367 . S
C2640 C2648 1.378 . S
C2641 C2640 1.367 . S
C2641 C2649 1.433 . S
C2642 H2638 0.929 . S
C2642 C2644 1.378 . S
C2642 C2646 1.350 . S
C2643 C2646 1.463 . S
C2643 C2648 1.350 . S
C2643 N2651 1.427 . S
C2644 H2635 0.930 . S
C2644 C2642 1.378 . S
C2644 C2645 1.367 . S
C2645 C2644 1.367 . S
C2645 C2647 1.433 . S
C2646 C2642 1.350 . S
C2646 C2643 1.463 . S
C2646 N2650 1.427 . S
C2647 H2637 0.929 . S
C2647 C2645 1.433 . S
C2647 N2650 1.384 . S
C2648 H2639 0.929 . S
C2648 C2640 1.378 . S
C2648 C2643 1.350 . S
C2649 H2636 0.929 . S
C2649 C2641 1.433 . S
C2649 N2651 1.384 . S
N2650 C2646 1.427 . S
N2650 C2647 1.384 . S
N2651 C2643 1.427 . S
N2651 C2649 1.384 . S
H2652 C2658 0.930 . S
H2653 C2662 0.930 . S
H2654 C2667 0.929 . S
H2655 C2665 0.929 . S
H2656 C2660 0.929 . S
H2657 C2666 0.929 . S
C2658 H2652 0.930 . S
C2658 C2659 1.367 1_655 S
C2658 C2666 1.378 . S
C2659 C2658 1.367 1_455 S
C2659 C2667 1.433 . S
C2660 H2656 0.929 . S
C2660 C2662 1.378 . S
C2660 C2664 1.350 . S
C2661 C2664 1.463 . S
C2661 C2666 1.350 1_455 S
C2661 N2669 1.427 . S
C2662 H2653 0.930 . S
C2662 C2660 1.378 . S
C2662 C2663 1.367 . S
C2663 C2662 1.367 . S
C2663 C2665 1.433 1_455 S
C2664 C2660 1.350 . S
C2664 C2661 1.463 . S
C2664 N2668 1.427 1_455 S
C2665 H2655 0.929 . S
C2665 C2663 1.433 1_655 S
C2665 N2668 1.384 . S
C2666 H2657 0.929 . S
C2666 C2658 1.378 . S
C2666 C2661 1.350 1_655 S
C2667 H2654 0.929 . S
C2667 C2659 1.433 . S
C2667 N2669 1.384 . S
N2668 C2664 1.427 1_655 S
N2668 C2665 1.384 . S
N2669 C2661 1.427 . S
N2669 C2667 1.384 . S
H2670 C2676 0.930 . S
H2671 C2680 0.930 . S
H2672 C2685 0.929 . S
H2673 C2683 0.929 . S
H2674 C2678 0.929 . S
H2675 C2684 0.929 . S
C2676 H2670 0.930 . S
C2676 C2677 1.367 . S
C2676 C2684 1.378 . S
C2677 C2676 1.367 . S
C2677 C2685 1.433 . S
C2678 H2674 0.929 . S
C2678 C2680 1.378 . S
C2678 C2682 1.350 . S
C2679 C2682 1.463 . S
C2679 C2684 1.350 . S
C2679 N2687 1.427 . S
C2680 H2671 0.930 . S
C2680 C2678 1.378 . S
C2680 C2681 1.367 . S
C2681 C2680 1.367 . S
C2681 C2683 1.433 . S
C2682 C2678 1.350 . S
C2682 C2679 1.463 . S
C2682 N2686 1.427 . S
C2683 H2673 0.929 . S
C2683 C2681 1.433 . S
C2683 N2686 1.384 . S
C2684 H2675 0.929 . S
C2684 C2676 1.378 . S
C2684 C2679 1.350 . S
C2685 H2672 0.929 . S
C2685 C2677 1.433 . S
C2685 N2687 1.384 . S
N2686 C2682 1.427 . S
N2686 C2683 1.384 . S
N2687 C2679 1.427 . S
N2687 C2685 1.384 . S
H2688 C2694 0.930 . S
H2689 C2698 0.930 . S
H2690 C2703 0.929 . S
H2691 C2701 0.929 . S
H2692 C2696 0.929 . S
H2693 C2702 0.929 . S
C2694 H2688 0.930 . S
C2694 C2695 1.367 . S
C2694 C2702 1.378 . S
C2695 C2694 1.367 . S
C2695 C2703 1.433 . S
C2696 H2692 0.929 . S
C2696 C2698 1.378 . S
C2696 C2700 1.350 . S
C2697 C2700 1.463 . S
C2697 C2702 1.350 . S
C2697 N2705 1.427 . S
C2698 H2689 0.930 . S
C2698 C2696 1.378 . S
C2698 C2699 1.367 . S
C2699 C2698 1.367 . S
C2699 C2701 1.433 . S
C2700 C2696 1.350 . S
C2700 C2697 1.463 . S
C2700 N2704 1.427 . S
C2701 H2691 0.929 . S
C2701 C2699 1.433 . S
C2701 N2704 1.384 . S
C2702 H2693 0.929 . S
C2702 C2694 1.378 . S
C2702 C2697 1.350 . S
C2703 H2690 0.929 . S
C2703 C2695 1.433 . S
C2703 N2705 1.384 . S
N2704 C2700 1.427 . S
N2704 C2701 1.384 . S
N2705 C2697 1.427 . S
N2705 C2703 1.384 . S
H2706 C2712 0.930 . S
H2707 C2716 0.930 . S
H2708 C2721 0.929 . S
H2709 C2719 0.929 . S
H2710 C2714 0.929 . S
H2711 C2720 0.929 . S
C2712 H2706 0.930 . S
C2712 C2713 1.367 1_556 S
C2712 C2720 1.378 . S
C2713 C2712 1.367 1_554 S
C2713 C2721 1.433 . S
C2714 H2710 0.929 . S
C2714 C2716 1.378 . S
C2714 C2718 1.350 . S
C2715 C2718 1.463 . S
C2715 C2720 1.350 . S
C2715 N2723 1.427 . S
C2716 H2707 0.930 . S
C2716 C2714 1.378 . S
C2716 C2717 1.367 . S
C2717 C2716 1.367 . S
C2717 C2719 1.433 . S
C2718 C2714 1.350 . S
C2718 C2715 1.463 . S
C2718 N2722 1.427 . S
C2719 H2709 0.929 . S
C2719 C2717 1.433 . S
C2719 N2722 1.384 . S
C2720 H2711 0.929 . S
C2720 C2712 1.378 . S
C2720 C2715 1.350 . S
C2721 H2708 0.929 . S
C2721 C2713 1.433 . S
C2721 N2723 1.384 1_554 S
N2722 C2718 1.427 . S
N2722 C2719 1.384 . S
N2723 C2715 1.427 . S
N2723 C2721 1.384 1_556 S
H2724 C2730 0.930 . S
H2725 C2734 0.930 . S
H2726 C2739 0.929 . S
H2727 C2737 0.929 . S
H2728 C2732 0.929 . S
H2729 C2738 0.929 . S
C2730 H2724 0.930 . S
C2730 C2731 1.367 . S
C2730 C2738 1.378 . S
C2731 C2730 1.367 . S
C2731 C2739 1.433 . S
C2732 H2728 0.929 . S
C2732 C2734 1.378 . S
C2732 C2736 1.350 . S
C2733 C2736 1.463 . S
C2733 C2738 1.350 . S
C2733 N2741 1.427 . S
C2734 H2725 0.930 . S
C2734 C2732 1.378 . S
C2734 C2735 1.367 . S
C2735 C2734 1.367 . S
C2735 C2737 1.433 . S
C2736 C2732 1.350 . S
C2736 C2733 1.463 . S
C2736 N2740 1.427 . S
C2737 H2727 0.929 . S
C2737 C2735 1.433 . S
C2737 N2740 1.384 . S
C2738 H2729 0.929 . S
C2738 C2730 1.378 . S
C2738 C2733 1.350 . S
C2739 H2726 0.929 . S
C2739 C2731 1.433 . S
C2739 N2741 1.384 . S
N2740 C2736 1.427 . S
N2740 C2737 1.384 . S
N2741 C2733 1.427 . S
N2741 C2739 1.384 . S
H2742 C2748 0.930 . S
H2743 C2752 0.930 . S
H2744 C2757 0.929 . S
H2745 C2755 0.929 . S
H2746 C2750 0.929 . S
H2747 C2756 0.929 . S
C2748 H2742 0.930 . S
C2748 C2749 1.367 . S
C2748 C2756 1.378 . S
C2749 C2748 1.367 . S
C2749 C2757 1.433 . S
C2750 H2746 0.929 . S
C2750 C2752 1.378 . S
C2750 C2754 1.350 . S
C2751 C2754 1.463 . S
C2751 C2756 1.350 . S
C2751 N2759 1.427 . S
C2752 H2743 0.930 . S
C2752 C2750 1.378 . S
C2752 C2753 1.367 . S
C2753 C2752 1.367 . S
C2753 C2755 1.433 . S
C2754 C2750 1.350 . S
C2754 C2751 1.463 . S
C2754 N2758 1.427 . S
C2755 H2745 0.929 . S
C2755 C2753 1.433 . S
C2755 N2758 1.384 . S
C2756 H2747 0.929 . S
C2756 C2748 1.378 . S
C2756 C2751 1.350 . S
C2757 H2744 0.929 . S
C2757 C2749 1.433 . S
C2757 N2759 1.384 . S
N2758 C2754 1.427 . S
N2758 C2755 1.384 . S
N2759 C2751 1.427 . S
N2759 C2757 1.384 . S
H2760 C2766 0.930 . S
H2761 C2770 0.930 . S
H2762 C2775 0.929 . S
H2763 C2773 0.929 . S
H2764 C2768 0.929 . S
H2765 C2774 0.929 . S
C2766 H2760 0.930 . S
C2766 C2767 1.367 . S
C2766 C2774 1.378 . S
C2767 C2766 1.367 . S
C2767 C2775 1.433 . S
C2768 H2764 0.929 . S
C2768 C2770 1.378 . S
C2768 C2772 1.350 . S
C2769 C2772 1.463 . S
C2769 C2774 1.350 . S
C2769 N2777 1.427 . S
C2770 H2761 0.930 . S
C2770 C2768 1.378 . S
C2770 C2771 1.367 . S
C2771 C2770 1.367 . S
C2771 C2773 1.433 . S
C2772 C2768 1.350 . S
C2772 C2769 1.463 . S
C2772 N2776 1.427 . S
C2773 H2763 0.929 . S
C2773 C2771 1.433 . S
C2773 N2776 1.384 . S
C2774 H2765 0.929 . S
C2774 C2766 1.378 . S
C2774 C2769 1.350 . S
C2775 H2762 0.929 . S
C2775 C2767 1.433 . S
C2775 N2777 1.384 . S
N2776 C2772 1.427 . S
N2776 C2773 1.384 . S
N2777 C2769 1.427 . S
N2777 C2775 1.384 . S
H2778 C2784 0.930 . S
H2779 C2788 0.930 . S
H2780 C2793 0.929 . S
H2781 C2791 0.929 . S
H2782 C2786 0.929 . S
H2783 C2792 0.929 . S
C2784 H2778 0.930 . S
C2784 C2785 1.367 . S
C2784 C2792 1.378 . S
C2785 C2784 1.367 . S
C2785 C2793 1.433 . S
C2786 H2782 0.929 . S
C2786 C2788 1.378 . S
C2786 C2790 1.350 . S
C2787 C2790 1.463 . S
C2787 C2792 1.350 . S
C2787 N2795 1.427 . S
C2788 H2779 0.930 . S
C2788 C2786 1.378 . S
C2788 C2789 1.367 . S
C2789 C2788 1.367 . S
C2789 C2791 1.433 . S
C2790 C2786 1.350 . S
C2790 C2787 1.463 . S
C2790 N2794 1.427 . S
C2791 H2781 0.929 . S
C2791 C2789 1.433 . S
C2791 N2794 1.384 . S
C2792 H2783 0.929 . S
C2792 C2784 1.378 . S
C2792 C2787 1.350 . S
C2793 H2780 0.929 . S
C2793 C2785 1.433 . S
C2793 N2795 1.384 . S
N2794 C2790 1.427 . S
N2794 C2791 1.384 . S
N2795 C2787 1.427 . S
N2795 C2793 1.384 . S
H2796 C2802 0.930 . S
H2797 C2806 0.930 . S
H2798 C2811 0.929 . S
H2799 C2809 0.929 . S
H2800 C2804 0.929 . S
H2801 C2810 0.929 . S
C2802 H2796 0.930 . S
C2802 C2803 1.367 . S
C2802 C2810 1.378 . S
C2803 C2802 1.367 . S
C2803 C2811 1.433 . S
C2804 H2800 0.929 . S
C2804 C2806 1.378 . S
C2804 C2808 1.350 . S
C2805 C2808 1.463 . S
C2805 C2810 1.350 . S
C2805 N2813 1.427 . S
C2806 H2797 0.930 . S
C2806 C2804 1.378 . S
C2806 C2807 1.367 . S
C2807 C2806 1.367 . S
C2807 C2809 1.433 . S
C2808 C2804 1.350 . S
C2808 C2805 1.463 . S
C2808 N2812 1.427 . S
C2809 H2799 0.929 . S
C2809 C2807 1.433 . S
C2809 N2812 1.384 . S
C2810 H2801 0.929 . S
C2810 C2802 1.378 . S
C2810 C2805 1.350 . S
C2811 H2798 0.929 . S
C2811 C2803 1.433 . S
C2811 N2813 1.384 . S
N2812 C2808 1.427 . S
N2812 C2809 1.384 . S
N2813 C2805 1.427 . S
N2813 C2811 1.384 . S
H2814 C2820 0.930 . S
H2815 C2824 0.930 . S
H2816 C2829 0.929 . S
H2817 C2827 0.929 . S
H2818 C2822 0.929 . S
H2819 C2828 0.929 . S
C2820 H2814 0.930 . S
C2820 C2821 1.367 . S
C2820 C2828 1.378 . S
C2821 C2820 1.367 . S
C2821 C2829 1.433 . S
C2822 H2818 0.929 . S
C2822 C2824 1.378 . S
C2822 C2826 1.350 . S
C2823 C2826 1.463 . S
C2823 C2828 1.350 . S
C2823 N2831 1.427 . S
C2824 H2815 0.930 . S
C2824 C2822 1.378 . S
C2824 C2825 1.367 . S
C2825 C2824 1.367 . S
C2825 C2827 1.433 . S
C2826 C2822 1.350 . S
C2826 C2823 1.463 . S
C2826 N2830 1.427 . S
C2827 H2817 0.929 . S
C2827 C2825 1.433 . S
C2827 N2830 1.384 . S
C2828 H2819 0.929 . S
C2828 C2820 1.378 . S
C2828 C2823 1.350 . S
C2829 H2816 0.929 . S
C2829 C2821 1.433 . S
C2829 N2831 1.384 . S
N2830 C2826 1.427 . S
N2830 C2827 1.384 . S
N2831 C2823 1.427 . S
N2831 C2829 1.384 . S
H2832 C2838 0.930 . S
H2833 C2842 0.930 . S
H2834 C2847 0.929 . S
H2835 C2845 0.929 . S
H2836 C2840 0.929 . S
H2837 C2846 0.929 . S
C2838 H2832 0.930 . S
C2838 C2839 1.367 . S
C2838 C2846 1.378 . S
C2839 C2838 1.367 . S
C2839 C2847 1.433 . S
C2840 H2836 0.929 . S
C2840 C2842 1.378 . S
C2840 C2844 1.350 . S
C2841 C2844 1.463 . S
C2841 C2846 1.350 . S
C2841 N2849 1.427 . S
C2842 H2833 0.930 . S
C2842 C2840 1.378 . S
C2842 C2843 1.367 . S
C2843 C2842 1.367 . S
C2843 C2845 1.433 . S
C2844 C2840 1.350 . S
C2844 C2841 1.463 . S
C2844 N2848 1.427 . S
C2845 H2835 0.929 . S
C2845 C2843 1.433 . S
C2845 N2848 1.384 . S
C2846 H2837 0.929 . S
C2846 C2838 1.378 . S
C2846 C2841 1.350 . S
C2847 H2834 0.929 . S
C2847 C2839 1.433 . S
C2847 N2849 1.384 . S
N2848 C2844 1.427 . S
N2848 C2845 1.384 . S
N2849 C2841 1.427 . S
N2849 C2847 1.384 . S
H2850 C2856 0.930 . S
H2851 C2860 0.930 . S
H2852 C2865 0.929 . S
H2853 C2863 0.929 . S
H2854 C2858 0.929 . S
H2855 C2864 0.929 . S
C2856 H2850 0.930 . S
C2856 C2857 1.367 . S
C2856 C2864 1.378 . S
C2857 C2856 1.367 . S
C2857 C2865 1.433 . S
C2858 H2854 0.929 . S
C2858 C2860 1.378 . S
C2858 C2862 1.350 . S
C2859 C2862 1.463 . S
C2859 C2864 1.350 . S
C2859 N2867 1.427 . S
C2860 H2851 0.930 . S
C2860 C2858 1.378 . S
C2860 C2861 1.367 . S
C2861 C2860 1.367 . S
C2861 C2863 1.433 . S
C2862 C2858 1.350 . S
C2862 C2859 1.463 . S
C2862 N2866 1.427 . S
C2863 H2853 0.929 . S
C2863 C2861 1.433 . S
C2863 N2866 1.384 . S
C2864 H2855 0.929 . S
C2864 C2856 1.378 . S
C2864 C2859 1.350 . S
C2865 H2852 0.929 . S
C2865 C2857 1.433 . S
C2865 N2867 1.384 . S
N2866 C2862 1.427 . S
N2866 C2863 1.384 . S
N2867 C2859 1.427 . S
N2867 C2865 1.384 . S
H2868 C2874 0.906 1_545 S
H2869 C2878 0.930 . S
H2870 C2883 0.929 . S
H2871 C2881 0.929 . S
H2872 C2876 0.929 . S
H2873 C2882 0.929 . S
C2874 H2868 0.906 1_565 S
C2874 C2875 1.367 . S
C2874 C2882 1.378 . S
C2875 C2874 1.367 . S
C2875 C2883 1.433 . S
C2876 H2872 0.929 . S
C2876 C2878 1.378 . S
C2876 C2880 1.350 . S
C2877 C2880 1.463 . S
C2877 C2882 1.350 . S
C2877 N2885 1.427 . S
C2878 H2869 0.930 . S
C2878 C2876 1.378 . S
C2878 C2879 1.367 . S
C2879 C2878 1.367 . S
C2879 C2881 1.433 . S
C2880 C2876 1.350 . S
C2880 C2877 1.463 . S
C2880 N2884 1.427 . S
C2881 H2871 0.929 . S
C2881 C2879 1.433 . S
C2881 N2884 1.384 . S
C2882 H2873 0.929 . S
C2882 C2874 1.378 . S
C2882 C2877 1.350 . S
C2883 H2870 0.929 . S
C2883 C2875 1.433 . S
C2883 N2885 1.384 . S
N2884 C2880 1.427 . S
N2884 C2881 1.384 . S
N2885 C2877 1.427 . S
N2885 C2883 1.384 . S
H2886 C2892 0.930 . S
H2887 C2896 0.930 1_556 S
H2888 C2901 0.929 . S
H2889 C2899 0.929 . S
H2890 C2894 0.940 . S
H2891 C2900 0.929 . S
C2892 H2886 0.930 . S
C2892 C2893 1.367 . S
C2892 C2900 1.378 . S
C2893 C2892 1.367 . S
C2893 C2901 1.433 1_554 S
C2894 H2890 0.940 . S
C2894 C2896 1.379 1_556 S
C2894 C2898 1.337 1_556 S
C2895 C2898 1.463 . S
C2895 C2900 1.350 . S
C2895 N2903 1.427 1_554 S
C2896 H2887 0.930 1_554 S
C2896 C2894 1.379 1_554 S
C2896 C2897 1.367 1_565 S
C2897 C2896 1.367 1_545 S
C2897 C2899 1.433 . S
C2898 C2894 1.337 1_554 S
C2898 C2895 1.463 . S
C2898 N2902 1.427 1_565 S
C2899 H2889 0.929 . S
C2899 C2897 1.433 . S
C2899 N2902 1.384 . S
C2900 H2891 0.929 . S
C2900 C2892 1.378 . S
C2900 C2895 1.350 . S
C2901 H2888 0.929 . S
C2901 C2893 1.433 1_556 S
C2901 N2903 1.384 . S
N2902 C2898 1.427 1_545 S
N2902 C2899 1.384 . S
N2903 C2895 1.427 1_556 S
N2903 C2901 1.384 . S
H2904 C2910 0.930 . S
H2905 C2914 0.930 . S
H2906 C2919 0.929 . S
H2907 C2917 0.929 . S
H2908 C2912 0.929 . S
H2909 C2918 0.929 . S
C2910 H2904 0.930 . S
C2910 C2911 1.367 . S
C2910 C2918 1.378 . S
C2911 C2910 1.367 . S
C2911 C2919 1.433 . S
C2912 H2908 0.929 . S
C2912 C2914 1.378 . S
C2912 C2916 1.350 . S
C2913 C2916 1.463 . S
C2913 C2918 1.350 . S
C2913 N2921 1.427 . S
C2914 H2905 0.930 . S
C2914 C2912 1.378 . S
C2914 C2915 1.367 . S
C2915 C2914 1.367 . S
C2915 C2917 1.433 . S
C2916 C2912 1.350 . S
C2916 C2913 1.463 . S
C2916 N2920 1.427 . S
C2917 H2907 0.929 . S
C2917 C2915 1.433 . S
C2917 N2920 1.384 . S
C2918 H2909 0.929 . S
C2918 C2910 1.378 . S
C2918 C2913 1.350 . S
C2919 H2906 0.929 . S
C2919 C2911 1.433 . S
C2919 N2921 1.384 . S
N2920 C2916 1.427 . S
N2920 C2917 1.384 . S
N2921 C2913 1.427 . S
N2921 C2919 1.384 . S
H2922 C2928 0.930 . S
H2923 C2932 0.930 . S
H2924 C2937 0.929 1_556 S
H2925 C2935 0.929 . S
H2926 C2930 0.929 1_556 S
H2927 C2936 0.929 . S
C2928 H2922 0.930 . S
C2928 C2929 1.367 . S
C2928 C2936 1.378 . S
C2929 C2928 1.367 . S
C2929 C2937 1.433 . S
C2930 H2926 0.929 1_554 S
C2930 C2932 1.378 . S
C2930 C2934 1.350 . S
C2931 C2934 1.463 . S
C2931 C2936 1.350 . S
C2931 N2939 1.427 . S
C2932 H2923 0.930 . S
C2932 C2930 1.378 . S
C2932 C2933 1.367 . S
C2933 C2932 1.367 . S
C2933 C2935 1.433 . S
C2934 C2930 1.350 . S
C2934 C2931 1.463 . S
C2934 N2938 1.427 . S
C2935 H2925 0.929 . S
C2935 C2933 1.433 . S
C2935 N2938 1.384 . S
C2936 H2927 0.929 . S
C2936 C2928 1.378 . S
C2936 C2931 1.350 . S
C2937 H2924 0.929 1_554 S
C2937 C2929 1.433 . S
C2937 N2939 1.384 . S
N2938 C2934 1.427 . S
N2938 C2935 1.384 . S
N2939 C2931 1.427 . S
N2939 C2937 1.384 . S
H2940 C2946 0.930 . S
H2941 C2950 0.930 . S
H2942 C2955 0.929 . S
H2943 C2953 0.929 . S
H2944 C2948 0.929 . S
H2945 C2954 0.929 . S
C2946 H2940 0.930 . S
C2946 C2947 1.367 . S
C2946 C2954 1.378 . S
C2947 C2946 1.367 . S
C2947 C2955 1.433 . S
C2948 H2944 0.929 . S
C2948 C2950 1.378 . S
C2948 C2952 1.350 . S
C2949 C2952 1.463 . S
C2949 C2954 1.350 . S
C2949 N2957 1.427 . S
C2950 H2941 0.930 . S
C2950 C2948 1.378 . S
C2950 C2951 1.367 . S
C2951 C2950 1.367 . S
C2951 C2953 1.433 . S
C2952 C2948 1.350 . S
C2952 C2949 1.463 . S
C2952 N2956 1.427 . S
C2953 H2943 0.929 . S
C2953 C2951 1.433 . S
C2953 N2956 1.384 . S
C2954 H2945 0.929 . S
C2954 C2946 1.378 . S
C2954 C2949 1.350 . S
C2955 H2942 0.929 . S
C2955 C2947 1.433 . S
C2955 N2957 1.384 . S
N2956 C2952 1.427 . S
N2956 C2953 1.384 . S
N2957 C2949 1.427 . S
N2957 C2955 1.384 . S
H2958 C2964 0.930 . S
H2959 C2968 0.930 . S
H2960 C2973 0.929 . S
H2961 C2971 0.929 . S
H2962 C2966 0.929 . S
H2963 C2972 0.929 . S
C2964 H2958 0.930 . S
C2964 C2965 1.367 . S
C2964 C2972 1.378 . S
C2965 C2964 1.367 . S
C2965 C2973 1.433 . S
C2966 H2962 0.929 . S
C2966 C2968 1.378 . S
C2966 C2970 1.350 . S
C2967 C2970 1.463 . S
C2967 C2972 1.350 . S
C2967 N2975 1.427 . S
C2968 H2959 0.930 . S
C2968 C2966 1.378 . S
C2968 C2969 1.367 . S
C2969 C2968 1.367 . S
C2969 C2971 1.433 . S
C2970 C2966 1.350 . S
C2970 C2967 1.463 . S
C2970 N2974 1.427 . S
C2971 H2961 0.929 . S
C2971 C2969 1.433 . S
C2971 N2974 1.384 . S
C2972 H2963 0.929 . S
C2972 C2964 1.378 . S
C2972 C2967 1.350 . S
C2973 H2960 0.929 . S
C2973 C2965 1.433 . S
C2973 N2975 1.384 . S
N2974 C2970 1.427 . S
N2974 C2971 1.384 . S
N2975 C2967 1.427 . S
N2975 C2973 1.384 . S
H2976 C2982 0.930 . S
H2977 C2986 0.930 . S
H2978 C2991 0.929 . S
H2979 C2989 0.929 . S
H2980 C2984 0.929 . S
H2981 C2990 0.929 . S
C2982 H2976 0.930 . S
C2982 C2983 1.367 . S
C2982 C2990 1.378 . S
C2983 C2982 1.367 . S
C2983 C2991 1.433 . S
C2984 H2980 0.929 . S
C2984 C2986 1.378 . S
C2984 C2988 1.350 . S
C2985 C2988 1.463 . S
C2985 C2990 1.350 . S
C2985 N2993 1.427 . S
C2986 H2977 0.930 . S
C2986 C2984 1.378 . S
C2986 C2987 1.367 . S
C2987 C2986 1.367 . S
C2987 C2989 1.433 . S
C2988 C2984 1.350 . S
C2988 C2985 1.463 . S
C2988 N2992 1.427 . S
C2989 H2979 0.929 . S
C2989 C2987 1.433 . S
C2989 N2992 1.384 . S
C2990 H2981 0.929 . S
C2990 C2982 1.378 . S
C2990 C2985 1.350 . S
C2991 H2978 0.929 . S
C2991 C2983 1.433 . S
C2991 N2993 1.384 . S
N2992 C2988 1.427 . S
N2992 C2989 1.384 . S
N2993 C2985 1.427 . S
N2993 C2991 1.384 . S
H2994 C3000 0.930 . S
H2995 C3004 0.930 . S
H2996 C3009 0.929 . S
H2997 C3007 0.929 . S
H2998 C3002 0.929 . S
H2999 C3008 0.929 . S
C3000 H2994 0.930 . S
C3000 C3001 1.367 . S
C3000 C3008 1.378 . S
C3001 C3000 1.367 . S
C3001 C3009 1.433 . S
C3002 H2998 0.929 . S
C3002 C3004 1.378 . S
C3002 C3006 1.350 . S
C3003 C3006 1.463 . S
C3003 C3008 1.350 . S
C3003 N3011 1.427 . S
C3004 H2995 0.930 . S
C3004 C3002 1.378 . S
C3004 C3005 1.367 . S
C3005 C3004 1.367 . S
C3005 C3007 1.433 . S
C3006 C3002 1.350 . S
C3006 C3003 1.463 . S
C3006 N3010 1.427 . S
C3007 H2997 0.929 . S
C3007 C3005 1.433 . S
C3007 N3010 1.384 . S
C3008 H2999 0.929 . S
C3008 C3000 1.378 . S
C3008 C3003 1.350 . S
C3009 H2996 0.929 . S
C3009 C3001 1.433 . S
C3009 N3011 1.384 . S
N3010 C3006 1.427 . S
N3010 C3007 1.384 . S
N3011 C3003 1.427 . S
N3011 C3009 1.384 . S
H3012 C3018 0.930 . S
H3013 C3022 0.930 . S
H3014 C3027 0.929 . S
H3015 C3025 0.929 . S
H3016 C3020 0.929 . S
H3017 C3026 0.929 . S
C3018 H3012 0.930 . S
C3018 C3019 1.367 . S
C3018 C3026 1.378 . S
C3019 C3018 1.367 . S
C3019 C3027 1.433 . S
C3020 H3016 0.929 . S
C3020 C3022 1.378 . S
C3020 C3024 1.350 . S
C3021 C3024 1.463 . S
C3021 C3026 1.350 . S
C3021 N3029 1.427 . S
C3022 H3013 0.930 . S
C3022 C3020 1.378 . S
C3022 C3023 1.367 . S
C3023 C3022 1.367 . S
C3023 C3025 1.433 . S
C3024 C3020 1.350 . S
C3024 C3021 1.463 . S
C3024 N3028 1.427 . S
C3025 H3015 0.929 . S
C3025 C3023 1.433 . S
C3025 N3028 1.384 . S
C3026 H3017 0.929 . S
C3026 C3018 1.378 . S
C3026 C3021 1.350 . S
C3027 H3014 0.929 . S
C3027 C3019 1.433 . S
C3027 N3029 1.384 . S
N3028 C3024 1.427 . S
N3028 C3025 1.384 . S
N3029 C3021 1.427 . S
N3029 C3027 1.384 . S
H3030 C3036 0.930 . S
H3031 C3040 0.930 . S
H3032 C3045 0.929 . S
H3033 C3043 0.929 . S
H3034 C3038 0.929 . S
H3035 C3044 0.929 . S
C3036 H3030 0.930 . S
C3036 C3037 1.367 . S
C3036 C3044 1.378 . S
C3037 C3036 1.367 . S
C3037 C3045 1.433 . S
C3038 H3034 0.929 . S
C3038 C3040 1.378 . S
C3038 C3042 1.350 . S
C3039 C3042 1.463 . S
C3039 C3044 1.350 . S
C3039 N3047 1.427 . S
C3040 H3031 0.930 . S
C3040 C3038 1.378 . S
C3040 C3041 1.367 . S
C3041 C3040 1.367 . S
C3041 C3043 1.433 . S
C3042 C3038 1.350 . S
C3042 C3039 1.463 . S
C3042 N3046 1.427 . S
C3043 H3033 0.929 . S
C3043 C3041 1.433 . S
C3043 N3046 1.384 . S
C3044 H3035 0.929 . S
C3044 C3036 1.378 . S
C3044 C3039 1.350 . S
C3045 H3032 0.929 . S
C3045 C3037 1.433 . S
C3045 N3047 1.384 . S
N3046 C3042 1.427 . S
N3046 C3043 1.384 . S
N3047 C3039 1.427 . S
N3047 C3045 1.384 . S
H3048 C3054 0.930 . S
H3049 C3058 0.930 . S
H3050 C3063 0.929 . S
H3051 C3061 0.929 . S
H3052 C3056 0.929 . S
H3053 C3062 0.929 . S
C3054 H3048 0.930 . S
C3054 C3055 1.367 . S
C3054 C3062 1.378 . S
C3055 C3054 1.367 . S
C3055 C3063 1.433 . S
C3056 H3052 0.929 . S
C3056 C3058 1.378 . S
C3056 C3060 1.350 . S
C3057 C3060 1.463 . S
C3057 C3062 1.350 . S
C3057 N3065 1.427 . S
C3058 H3049 0.930 . S
C3058 C3056 1.378 . S
C3058 C3059 1.367 . S
C3059 C3058 1.367 . S
C3059 C3061 1.433 . S
C3060 C3056 1.350 . S
C3060 C3057 1.463 . S
C3060 N3064 1.427 . S
C3061 H3051 0.929 . S
C3061 C3059 1.433 . S
C3061 N3064 1.384 . S
C3062 H3053 0.929 . S
C3062 C3054 1.378 . S
C3062 C3057 1.350 . S
C3063 H3050 0.929 . S
C3063 C3055 1.433 . S
C3063 N3065 1.384 . S
N3064 C3060 1.427 . S
N3064 C3061 1.384 . S
N3065 C3057 1.427 . S
N3065 C3063 1.384 . S
H3066 C3072 0.930 . S
H3067 C3076 0.930 . S
H3068 C3081 0.929 . S
H3069 C3079 0.929 . S
H3070 C3074 0.929 . S
H3071 C3080 0.929 . S
C3072 H3066 0.930 . S
C3072 C3073 1.367 . S
C3072 C3080 1.378 . S
C3073 C3072 1.367 . S
C3073 C3081 1.433 . S
C3074 H3070 0.929 . S
C3074 C3076 1.378 . S
C3074 C3078 1.350 . S
C3075 C3078 1.463 . S
C3075 C3080 1.350 . S
C3075 N3083 1.427 . S
C3076 H3067 0.930 . S
C3076 C3074 1.378 . S
C3076 C3077 1.367 . S
C3077 C3076 1.367 . S
C3077 C3079 1.433 . S
C3078 C3074 1.350 . S
C3078 C3075 1.463 . S
C3078 N3082 1.427 . S
C3079 H3069 0.929 . S
C3079 C3077 1.433 . S
C3079 N3082 1.384 . S
C3080 H3071 0.929 . S
C3080 C3072 1.378 . S
C3080 C3075 1.350 . S
C3081 H3068 0.929 . S
C3081 C3073 1.433 . S
C3081 N3083 1.384 . S
N3082 C3078 1.427 . S
N3082 C3079 1.384 . S
N3083 C3075 1.427 . S
N3083 C3081 1.384 . S
H3084 C3090 0.930 . S
H3085 C3094 0.930 . S
H3086 C3099 0.929 . S
H3087 C3097 0.929 . S
H3088 C3092 0.929 . S
H3089 C3098 0.929 . S
C3090 H3084 0.930 . S
C3090 C3091 1.367 . S
C3090 C3098 1.378 . S
C3091 C3090 1.367 . S
C3091 C3099 1.433 . S
C3092 H3088 0.929 . S
C3092 C3094 1.378 . S
C3092 C3096 1.350 . S
C3093 C3096 1.463 . S
C3093 C3098 1.350 . S
C3093 N3101 1.427 . S
C3094 H3085 0.930 . S
C3094 C3092 1.378 . S
C3094 C3095 1.367 . S
C3095 C3094 1.367 . S
C3095 C3097 1.433 . S
C3096 C3092 1.350 . S
C3096 C3093 1.463 . S
C3096 N3100 1.427 . S
C3097 H3087 0.929 . S
C3097 C3095 1.433 . S
C3097 N3100 1.384 . S
C3098 H3089 0.929 . S
C3098 C3090 1.378 . S
C3098 C3093 1.350 . S
C3099 H3086 0.929 . S
C3099 C3091 1.433 . S
C3099 N3101 1.384 . S
N3100 C3096 1.427 . S
N3100 C3097 1.384 . S
N3101 C3093 1.427 . S
N3101 C3099 1.384 . S
H3102 C3108 0.930 . S
H3103 C3112 0.930 . S
H3104 C3117 0.929 . S
H3105 C3115 0.929 . S
H3106 C3110 0.929 . S
H3107 C3116 0.929 . S
C3108 H3102 0.930 . S
C3108 C3109 1.367 . S
C3108 C3116 1.378 . S
C3109 C3108 1.367 . S
C3109 C3117 1.433 . S
C3110 H3106 0.929 . S
C3110 C3112 1.378 . S
C3110 C3114 1.350 . S
C3111 C3114 1.463 . S
C3111 C3116 1.350 . S
C3111 N3119 1.427 . S
C3112 H3103 0.930 . S
C3112 C3110 1.378 . S
C3112 C3113 1.367 . S
C3113 C3112 1.367 . S
C3113 C3115 1.433 . S
C3114 C3110 1.350 . S
C3114 C3111 1.463 . S
C3114 N3118 1.427 . S
C3115 H3105 0.929 . S
C3115 C3113 1.433 . S
C3115 N3118 1.384 . S
C3116 H3107 0.929 . S
C3116 C3108 1.378 . S
C3116 C3111 1.350 . S
C3117 H3104 0.929 . S
C3117 C3109 1.433 . S
C3117 N3119 1.384 . S
N3118 C3114 1.427 . S
N3118 C3115 1.384 . S
N3119 C3111 1.427 . S
N3119 C3117 1.384 . S
H3120 C3126 0.930 . S
H3121 C3130 0.930 . S
H3122 C3135 0.929 . S
H3123 C3133 0.929 . S
H3124 C3128 0.929 . S
H3125 C3134 0.929 . S
C3126 H3120 0.930 . S
C3126 C3127 1.367 . S
C3126 C3134 1.378 . S
C3127 C3126 1.367 . S
C3127 C3135 1.433 . S
C3128 H3124 0.929 . S
C3128 C3130 1.378 . S
C3128 C3132 1.350 . S
C3129 C3132 1.463 . S
C3129 C3134 1.350 . S
C3129 N3137 1.427 . S
C3130 H3121 0.930 . S
C3130 C3128 1.378 . S
C3130 C3131 1.367 . S
C3131 C3130 1.367 . S
C3131 C3133 1.433 . S
C3132 C3128 1.350 . S
C3132 C3129 1.463 . S
C3132 N3136 1.427 . S
C3133 H3123 0.929 . S
C3133 C3131 1.433 . S
C3133 N3136 1.384 . S
C3134 H3125 0.929 . S
C3134 C3126 1.378 . S
C3134 C3129 1.350 . S
C3135 H3122 0.929 . S
C3135 C3127 1.433 . S
C3135 N3137 1.384 . S
N3136 C3132 1.427 . S
N3136 C3133 1.384 . S
N3137 C3129 1.427 . S
N3137 C3135 1.384 . S
H3138 C3144 0.930 . S
H3139 C3148 0.930 . S
H3140 C3153 0.929 . S
H3141 C3151 0.929 . S
H3142 C3146 0.929 . S
H3143 C3152 0.929 . S
C3144 H3138 0.930 . S
C3144 C3145 1.367 . S
C3144 C3152 1.378 . S
C3145 C3144 1.367 . S
C3145 C3153 1.433 . S
C3146 H3142 0.929 . S
C3146 C3148 1.378 . S
C3146 C3150 1.350 . S
C3147 C3150 1.463 . S
C3147 C3152 1.350 . S
C3147 N3155 1.427 . S
C3148 H3139 0.930 . S
C3148 C3146 1.378 . S
C3148 C3149 1.367 . S
C3149 C3148 1.367 . S
C3149 C3151 1.433 . S
C3150 C3146 1.350 . S
C3150 C3147 1.463 . S
C3150 N3154 1.427 . S
C3151 H3141 0.929 . S
C3151 C3149 1.433 . S
C3151 N3154 1.384 . S
C3152 H3143 0.929 . S
C3152 C3144 1.378 . S
C3152 C3147 1.350 . S
C3153 H3140 0.929 . S
C3153 C3145 1.433 . S
C3153 N3155 1.384 . S
N3154 C3150 1.427 . S
N3154 C3151 1.384 . S
N3155 C3147 1.427 . S
N3155 C3153 1.384 . S
H3156 C3162 0.930 . S
H3157 C3166 0.930 . S
H3158 C3171 0.929 . S
H3159 C3169 0.929 . S
H3160 C3164 0.929 . S
H3161 C3170 0.929 . S
C3162 H3156 0.930 . S
C3162 C3163 1.367 . S
C3162 C3170 1.378 . S
C3163 C3162 1.367 . S
C3163 C3171 1.433 . S
C3164 H3160 0.929 . S
C3164 C3166 1.378 . S
C3164 C3168 1.350 . S
C3165 C3168 1.463 . S
C3165 C3170 1.350 . S
C3165 N3173 1.427 . S
C3166 H3157 0.930 . S
C3166 C3164 1.378 . S
C3166 C3167 1.367 . S
C3167 C3166 1.367 . S
C3167 C3169 1.433 . S
C3168 C3164 1.350 . S
C3168 C3165 1.463 . S
C3168 N3172 1.427 . S
C3169 H3159 0.929 . S
C3169 C3167 1.433 . S
C3169 N3172 1.384 . S
C3170 H3161 0.929 . S
C3170 C3162 1.378 . S
C3170 C3165 1.350 . S
C3171 H3158 0.929 . S
C3171 C3163 1.433 . S
C3171 N3173 1.384 . S
N3172 C3168 1.427 . S
N3172 C3169 1.384 . S
N3173 C3165 1.427 . S
N3173 C3171 1.384 . S
H3174 C3180 0.930 . S
H3175 C3184 0.930 . S
H3176 C3189 0.929 . S
H3177 C3187 0.929 . S
H3178 C3182 0.929 . S
H3179 C3188 0.929 . S
C3180 H3174 0.930 . S
C3180 C3181 1.367 . S
C3180 C3188 1.378 . S
C3181 C3180 1.367 . S
C3181 C3189 1.433 . S
C3182 H3178 0.929 . S
C3182 C3184 1.378 . S
C3182 C3186 1.350 . S
C3183 C3186 1.463 . S
C3183 C3188 1.350 . S
C3183 N3191 1.427 . S
C3184 H3175 0.930 . S
C3184 C3182 1.378 . S
C3184 C3185 1.367 . S
C3185 C3184 1.367 . S
C3185 C3187 1.433 . S
C3186 C3182 1.350 . S
C3186 C3183 1.463 . S
C3186 N3190 1.427 . S
C3187 H3177 0.929 . S
C3187 C3185 1.433 . S
C3187 N3190 1.384 . S
C3188 H3179 0.929 . S
C3188 C3180 1.378 . S
C3188 C3183 1.350 . S
C3189 H3176 0.929 . S
C3189 C3181 1.433 . S
C3189 N3191 1.384 . S
N3190 C3186 1.427 . S
N3190 C3187 1.384 . S
N3191 C3183 1.427 . S
N3191 C3189 1.384 . S
H3192 C3198 0.930 . S
H3193 C3202 0.930 . S
H3194 C3207 0.929 . S
H3195 C3205 0.929 . S
H3196 C3200 0.929 . S
H3197 C3206 0.929 . S
C3198 H3192 0.930 . S
C3198 C3199 1.367 . S
C3198 C3206 1.378 . S
C3199 C3198 1.367 . S
C3199 C3207 1.433 . S
C3200 H3196 0.929 . S
C3200 C3202 1.378 . S
C3200 C3204 1.350 . S
C3201 C3204 1.463 . S
C3201 C3206 1.350 . S
C3201 N3209 1.427 . S
C3202 H3193 0.930 . S
C3202 C3200 1.378 . S
C3202 C3203 1.367 . S
C3203 C3202 1.367 . S
C3203 C3205 1.433 . S
C3204 C3200 1.350 . S
C3204 C3201 1.463 . S
C3204 N3208 1.427 . S
C3205 H3195 0.929 . S
C3205 C3203 1.433 . S
C3205 N3208 1.384 . S
C3206 H3197 0.929 . S
C3206 C3198 1.378 . S
C3206 C3201 1.350 . S
C3207 H3194 0.929 . S
C3207 C3199 1.433 . S
C3207 N3209 1.384 . S
N3208 C3204 1.427 . S
N3208 C3205 1.384 . S
N3209 C3201 1.427 . S
N3209 C3207 1.384 . S
H3210 C3216 0.930 . S
H3211 C3220 0.930 . S
H3212 C3225 0.929 . S
H3213 C3223 0.929 . S
H3214 C3218 0.929 . S
H3215 C3224 0.929 . S
C3216 H3210 0.930 . S
C3216 C3217 1.367 . S
C3216 C3224 1.378 . S
C3217 C3216 1.367 . S
C3217 C3225 1.433 . S
C3218 H3214 0.929 . S
C3218 C3220 1.378 . S
C3218 C3222 1.350 . S
C3219 C3222 1.463 . S
C3219 C3224 1.350 . S
C3219 N3227 1.427 . S
C3220 H3211 0.930 . S
C3220 C3218 1.378 . S
C3220 C3221 1.367 . S
C3221 C3220 1.367 . S
C3221 C3223 1.433 . S
C3222 C3218 1.350 . S
C3222 C3219 1.463 . S
C3222 N3226 1.427 . S
C3223 H3213 0.929 . S
C3223 C3221 1.433 . S
C3223 N3226 1.384 . S
C3224 H3215 0.929 . S
C3224 C3216 1.378 . S
C3224 C3219 1.350 . S
C3225 H3212 0.929 . S
C3225 C3217 1.433 . S
C3225 N3227 1.384 . S
N3226 C3222 1.427 . S
N3226 C3223 1.384 . S
N3227 C3219 1.427 . S
N3227 C3225 1.384 . S
H3228 C3234 0.930 . S
H3229 C3238 0.930 . S
H3230 C3243 0.929 . S
H3231 C3241 0.929 . S
H3232 C3236 0.929 . S
H3233 C3242 0.929 . S
C3234 H3228 0.930 . S
C3234 C3235 1.367 . S
C3234 C3242 1.378 . S
C3235 C3234 1.367 . S
C3235 C3243 1.433 . S
C3236 H3232 0.929 . S
C3236 C3238 1.378 . S
C3236 C3240 1.350 . S
C3237 C3240 1.463 . S
C3237 C3242 1.350 . S
C3237 N3245 1.427 . S
C3238 H3229 0.930 . S
C3238 C3236 1.378 . S
C3238 C3239 1.367 . S
C3239 C3238 1.367 . S
C3239 C3241 1.433 . S
C3240 C3236 1.350 . S
C3240 C3237 1.463 . S
C3240 N3244 1.427 . S
C3241 H3231 0.929 . S
C3241 C3239 1.433 . S
C3241 N3244 1.384 . S
C3242 H3233 0.929 . S
C3242 C3234 1.378 . S
C3242 C3237 1.350 . S
C3243 H3230 0.929 . S
C3243 C3235 1.433 . S
C3243 N3245 1.384 . S
N3244 C3240 1.427 . S
N3244 C3241 1.384 . S
N3245 C3237 1.427 . S
N3245 C3243 1.384 . S
H3246 C3252 0.930 . S
H3247 C3256 0.930 . S
H3248 C3261 0.929 . S
H3249 C3259 0.929 . S
H3250 C3254 0.929 . S
H3251 C3260 0.929 . S
C3252 H3246 0.930 . S
C3252 C3253 1.367 . S
C3252 C3260 1.378 . S
C3253 C3252 1.367 . S
C3253 C3261 1.433 . S
C3254 H3250 0.929 . S
C3254 C3256 1.378 . S
C3254 C3258 1.350 . S
C3255 C3258 1.463 . S
C3255 C3260 1.350 . S
C3255 N3263 1.427 . S
C3256 H3247 0.930 . S
C3256 C3254 1.378 . S
C3256 C3257 1.367 . S
C3257 C3256 1.367 . S
C3257 C3259 1.433 . S
C3258 C3254 1.350 . S
C3258 C3255 1.463 . S
C3258 N3262 1.427 . S
C3259 H3249 0.929 . S
C3259 C3257 1.433 . S
C3259 N3262 1.384 . S
C3260 H3251 0.929 . S
C3260 C3252 1.378 . S
C3260 C3255 1.350 . S
C3261 H3248 0.929 . S
C3261 C3253 1.433 . S
C3261 N3263 1.384 . S
N3262 C3258 1.427 . S
N3262 C3259 1.384 . S
N3263 C3255 1.427 . S
N3263 C3261 1.384 . S
H3264 C3270 0.930 . S
H3265 C3274 0.930 . S
H3266 C3279 0.929 . S
H3267 C3277 0.929 . S
H3268 C3272 0.929 . S
H3269 C3278 0.929 . S
C3270 H3264 0.930 . S
C3270 C3271 1.367 . S
C3270 C3278 1.378 . S
C3271 C3270 1.367 . S
C3271 C3279 1.433 . S
C3272 H3268 0.929 . S
C3272 C3274 1.378 . S
C3272 C3276 1.350 . S
C3273 C3276 1.463 . S
C3273 C3278 1.350 . S
C3273 N3281 1.427 . S
C3274 H3265 0.930 . S
C3274 C3272 1.378 . S
C3274 C3275 1.367 . S
C3275 C3274 1.367 . S
C3275 C3277 1.433 . S
C3276 C3272 1.350 . S
C3276 C3273 1.463 . S
C3276 N3280 1.427 . S
C3277 H3267 0.929 . S
C3277 C3275 1.433 . S
C3277 N3280 1.384 . S
C3278 H3269 0.929 . S
C3278 C3270 1.378 . S
C3278 C3273 1.350 . S
C3279 H3266 0.929 . S
C3279 C3271 1.433 . S
C3279 N3281 1.384 . S
N3280 C3276 1.427 . S
N3280 C3277 1.384 . S
N3281 C3273 1.427 . S
N3281 C3279 1.384 . S
H3282 C3288 0.930 . S
H3283 C3292 0.930 1_545 S
H3284 C3297 0.929 . S
H3285 C3295 0.929 . S
H3286 C3290 0.929 . S
H3287 C3296 0.929 . S
C3288 H3282 0.930 . S
C3288 C3289 1.367 . S
C3288 C3296 1.378 . S
C3289 C3288 1.367 . S
C3289 C3297 1.433 . S
C3290 H3286 0.929 . S
C3290 C3292 1.378 . S
C3290 C3294 1.350 . S
C3291 C3294 1.463 . S
C3291 C3296 1.350 . S
C3291 N3299 1.427 . S
C3292 H3283 0.930 1_565 S
C3292 C3290 1.378 . S
C3292 C3293 1.367 . S
C3293 C3292 1.367 . S
C3293 C3295 1.433 . S
C3294 C3290 1.350 . S
C3294 C3291 1.463 . S
C3294 N3298 1.427 . S
C3295 H3285 0.929 . S
C3295 C3293 1.433 . S
C3295 N3298 1.384 . S
C3296 H3287 0.929 . S
C3296 C3288 1.378 . S
C3296 C3291 1.350 . S
C3297 H3284 0.929 . S
C3297 C3289 1.433 . S
C3297 N3299 1.384 . S
N3298 C3294 1.427 . S
N3298 C3295 1.384 . S
N3299 C3291 1.427 . S
N3299 C3297 1.384 . S
H3300 C3306 0.930 . S
H3301 C3310 0.930 . S
H3302 C3315 0.929 . S
H3303 C3313 0.929 . S
H3304 C3308 0.929 . S
H3305 C3314 0.929 . S
C3306 H3300 0.930 . S
C3306 C3307 1.367 . S
C3306 C3314 1.378 . S
C3307 C3306 1.367 . S
C3307 C3315 1.433 . S
C3308 H3304 0.929 . S
C3308 C3310 1.378 . S
C3308 C3312 1.350 . S
C3309 C3312 1.463 . S
C3309 C3314 1.350 . S
C3309 N3317 1.427 . S
C3310 H3301 0.930 . S
C3310 C3308 1.378 . S
C3310 C3311 1.367 . S
C3311 C3310 1.367 . S
C3311 C3313 1.433 . S
C3312 C3308 1.350 . S
C3312 C3309 1.463 . S
C3312 N3316 1.427 . S
C3313 H3303 0.929 . S
C3313 C3311 1.433 . S
C3313 N3316 1.384 . S
C3314 H3305 0.929 . S
C3314 C3306 1.378 . S
C3314 C3309 1.350 . S
C3315 H3302 0.929 . S
C3315 C3307 1.433 . S
C3315 N3317 1.384 . S
N3316 C3312 1.427 . S
N3316 C3313 1.384 . S
N3317 C3309 1.427 . S
N3317 C3315 1.384 . S
H3318 C3324 0.930 . S
H3319 C3328 0.930 . S
H3320 C3333 0.929 . S
H3321 C3331 0.929 . S
H3322 C3326 0.929 . S
H3323 C3332 0.929 . S
C3324 H3318 0.930 . S
C3324 C3325 1.367 . S
C3324 C3332 1.378 . S
C3325 C3324 1.367 . S
C3325 C3333 1.433 . S
C3326 H3322 0.929 . S
C3326 C3328 1.378 . S
C3326 C3330 1.350 . S
C3327 C3330 1.463 . S
C3327 C3332 1.350 . S
C3327 N3335 1.427 . S
C3328 H3319 0.930 . S
C3328 C3326 1.378 . S
C3328 C3329 1.367 . S
C3329 C3328 1.367 . S
C3329 C3331 1.433 . S
C3330 C3326 1.350 . S
C3330 C3327 1.463 . S
C3330 N3334 1.427 . S
C3331 H3321 0.929 . S
C3331 C3329 1.433 . S
C3331 N3334 1.384 . S
C3332 H3323 0.929 . S
C3332 C3324 1.378 . S
C3332 C3327 1.350 . S
C3333 H3320 0.929 . S
C3333 C3325 1.433 . S
C3333 N3335 1.384 . S
N3334 C3330 1.427 . S
N3334 C3331 1.384 . S
N3335 C3327 1.427 . S
N3335 C3333 1.384 . S
H3336 C3342 0.930 . S
H3337 C3346 0.930 . S
H3338 C3351 0.929 . S
H3339 C3349 0.929 . S
H3340 C3344 0.929 . S
H3341 C3350 0.929 . S
C3342 H3336 0.930 . S
C3342 C3343 1.367 . S
C3342 C3350 1.378 . S
C3343 C3342 1.367 . S
C3343 C3351 1.433 . S
C3344 H3340 0.929 . S
C3344 C3346 1.378 . S
C3344 C3348 1.350 . S
C3345 C3348 1.463 . S
C3345 C3350 1.350 . S
C3345 N3353 1.427 . S
C3346 H3337 0.930 . S
C3346 C3344 1.378 . S
C3346 C3347 1.367 . S
C3347 C3346 1.367 . S
C3347 C3349 1.433 . S
C3348 C3344 1.350 . S
C3348 C3345 1.463 . S
C3348 N3352 1.427 . S
C3349 H3339 0.929 . S
C3349 C3347 1.433 . S
C3349 N3352 1.384 . S
C3350 H3341 0.929 . S
C3350 C3342 1.378 . S
C3350 C3345 1.350 . S
C3351 H3338 0.929 . S
C3351 C3343 1.433 . S
C3351 N3353 1.384 . S
N3352 C3348 1.427 . S
N3352 C3349 1.384 . S
N3353 C3345 1.427 . S
N3353 C3351 1.384 . S
H3354 C3360 0.930 . S
H3355 C3364 0.930 1_556 S
H3356 C3369 0.929 . S
H3357 C3367 0.929 . S
H3358 C3362 0.929 1_556 S
H3359 C3368 0.929 . S
C3360 H3354 0.930 . S
C3360 C3361 1.367 . S
C3360 C3368 1.378 . S
C3361 C3360 1.367 . S
C3361 C3369 1.433 . S
C3362 H3358 0.929 1_554 S
C3362 C3364 1.378 . S
C3362 C3366 1.350 . S
C3363 C3366 1.463 . S
C3363 C3368 1.350 . S
C3363 N3371 1.427 . S
C3364 H3355 0.930 1_554 S
C3364 C3362 1.378 . S
C3364 C3365 1.367 . S
C3365 C3364 1.367 . S
C3365 C3367 1.433 . S
C3366 C3362 1.350 . S
C3366 C3363 1.463 . S
C3366 N3370 1.427 . S
C3367 H3357 0.929 . S
C3367 C3365 1.433 . S
C3367 N3370 1.384 . S
C3368 H3359 0.929 . S
C3368 C3360 1.378 . S
C3368 C3363 1.350 . S
C3369 H3356 0.929 . S
C3369 C3361 1.433 . S
C3369 N3371 1.384 . S
N3370 C3366 1.427 . S
N3370 C3367 1.384 . S
N3371 C3363 1.427 . S
N3371 C3369 1.384 . S
H3372 C3378 0.930 . S
H3373 C3382 0.930 . S
H3374 C3387 0.929 . S
H3375 C3385 0.929 . S
H3376 C3380 0.929 . S
H3377 C3386 0.929 . S
C3378 H3372 0.930 . S
C3378 C3379 1.367 . S
C3378 C3386 1.378 . S
C3379 C3378 1.367 . S
C3379 C3387 1.433 . S
C3380 H3376 0.929 . S
C3380 C3382 1.378 . S
C3380 C3384 1.350 . S
C3381 C3384 1.463 . S
C3381 C3386 1.350 . S
C3381 N3389 1.427 . S
C3382 H3373 0.930 . S
C3382 C3380 1.378 . S
C3382 C3383 1.367 . S
C3383 C3382 1.367 . S
C3383 C3385 1.433 . S
C3384 C3380 1.350 . S
C3384 C3381 1.463 . S
C3384 N3388 1.427 . S
C3385 H3375 0.929 . S
C3385 C3383 1.433 . S
C3385 N3388 1.384 . S
C3386 H3377 0.929 . S
C3386 C3378 1.378 . S
C3386 C3381 1.350 . S
C3387 H3374 0.929 . S
C3387 C3379 1.433 . S
C3387 N3389 1.384 . S
N3388 C3384 1.427 . S
N3388 C3385 1.384 . S
N3389 C3381 1.427 . S
N3389 C3387 1.384 . S
H3390 C3396 0.930 . S
H3391 C3400 0.930 . S
H3392 C3405 0.929 . S
H3393 C3403 0.929 . S
H3394 C3398 0.929 . S
H3395 C3404 0.929 . S
C3396 H3390 0.930 . S
C3396 C3397 1.367 . S
C3396 C3404 1.378 . S
C3397 C3396 1.367 . S
C3397 C3405 1.433 . S
C3398 H3394 0.929 . S
C3398 C3400 1.378 . S
C3398 C3402 1.350 . S
C3399 C3402 1.463 . S
C3399 C3404 1.350 . S
C3399 N3407 1.427 . S
C3400 H3391 0.930 . S
C3400 C3398 1.378 . S
C3400 C3401 1.367 . S
C3401 C3400 1.367 . S
C3401 C3403 1.433 . S
C3402 C3398 1.350 . S
C3402 C3399 1.463 . S
C3402 N3406 1.427 . S
C3403 H3393 0.929 . S
C3403 C3401 1.433 . S
C3403 N3406 1.384 . S
C3404 H3395 0.929 . S
C3404 C3396 1.378 . S
C3404 C3399 1.350 . S
C3405 H3392 0.929 . S
C3405 C3397 1.433 . S
C3405 N3407 1.384 . S
N3406 C3402 1.427 . S
N3406 C3403 1.384 . S
N3407 C3399 1.427 . S
N3407 C3405 1.384 . S
C1687 C105 2.170 1_455 S
C1691 C392 2.165 . S
C1705 C65 1.904 . S
C1709 C494 1.897 . S
C1723 C73 1.872 . S
C1727 C560 1.893 . S
C1745 C646 1.405 . S
C1741 C92 1.488 . S
C1759 C17 1.550 . S
C1763 C730 1.430 . S
C1781 C812 1.860 . S
C1777 C37 1.825 . S
C1799 C914 1.903 . S
C1795 C49 1.823 . S
C1813 C8 2.099 . S
C1817 C980 2.097 . S
C1835 C410 1.691 . S
C1831 C231 1.713 . S
C1849 C241 0.951 . S
C1853 C478 0.903 . S
C1871 C578 1.157 . S
C1867 C273 1.131 . S
C1889 C644 1.634 . S
C1885 C171 1.632 1_556 S
C1903 C227 1.620 . S
C1907 C728 1.623 . S
C1925 C830 1.166 . S
C1921 C245 1.136 . S
C1943 C898 0.923 . S
C1939 C269 0.952 . S
C1961 C998 1.687 . S
C1957 C175 1.702 . S
C1979 C394 0.998 1_565 S
C1975 C162 1.037 1_554 S
C1993 C289 1.704 . S
C1997 C1082 1.684 . S
C2015 C1150 1.339 . S
C2011 C330 1.388 . S
C2033 C1232 0.837 . S
C2029 C317 0.841 . S
C2047 C120 1.008 . S
C2051 C982 0.968 . S
C2065 C134 1.406 . S
C2069 C562 1.333 . S
C2083 C331 1.663 . S
C2087 C1334 1.650 . S
C2105 C1400 0.778 . S
C2101 C303 0.772 . S
C2123 C403 2.192 . S
C2119 C59 2.162 . S
C2141 C1407 1.940 . S
C2137 C107 1.940 . S
C2155 C91 1.926 . S
C2159 C571 1.945 . S
C2173 C78 1.515 . S
C2177 C1329 1.427 . S
C2195 C741 1.475 . S
C2191 C7 1.530 . S
C2209 C51 1.861 . S
C2213 C1159 1.904 . S
C2231 C903 1.949 1_556 S
C2227 C31 1.957 . S
C2249 C1495 2.129 . S
C2245 C22 2.112 . S
C2267 C399 1.731 . S
C2263 C143 1.767 . S
C2285 C1413 0.951 . S
C2281 C315 0.958 . S
C2299 C115 1.208 . S
C2303 C567 1.197 . S
C2317 C287 1.645 . S
C2321 C1327 1.679 . S
C2335 C147 1.636 . S
C2339 C739 1.668 . S
C2357 C1155 1.204 . S
C2353 C311 1.218 . S
C2371 C119 0.963 . S
C2375 C909 0.943 . S
C2389 C283 1.753 . S
C2393 C1491 1.713 . S
C2407 C190 1.040 . S
C2411 C405 1.001 . S
C2425 C177 1.728 . S
C2429 C1071 1.722 . S
C2443 C260 1.399 . S
C2447 C825 1.329 . S
C2461 C247 0.874 . S
C2465 C1243 0.881 . S
C2483 C1497 0.992 . S
C2479 C274 0.947 1_565 S
C2497 C218 1.414 . S
C2501 C573 1.340 . S
C2519 C651 1.685 . S
C2515 C261 1.692 . S
C2537 C487 0.820 . S
C2533 C205 0.817 . S
C2551 C77 2.171 . S
C2555 C1568 2.166 . S
C2573 C1418 1.893 . S
C2569 C93 1.905 . S
C2587 C101 1.872 . S
C2591 C1652 1.893 . S
C2605 C64 1.495 1_655 S
C2609 C1318 1.407 . S
C2623 C45 1.551 . S
C2627 C1066 1.442 . S
C2645 C1148 1.861 . S
C2641 C9 1.822 . S
C2663 C1250 1.903 . S
C2659 C21 1.821 . S
C2681 C1484 2.100 . S
C2677 C36 2.102 . S
C2699 C1586 1.694 . S
C2695 C259 1.717 . S
C2713 C185 0.956 . S
C2717 C1402 0.917 . S
C2735 C1670 1.170 . S
C2731 C203 1.121 . S
C2753 C1316 1.635 . S
C2749 C213 1.635 . S
C2771 C1064 1.623 . S
C2767 C255 1.620 . S
C2785 C189 1.136 . S
C2789 C1166 1.166 . S
C2807 C1234 0.918 . S
C2803 C199 0.953 . S
C2821 C217 1.706 . S
C2825 C1502 1.681 . S
C2843 C1570 1.005 . S
C2839 C316 1.042 . S
C2857 C135 1.701 . S
C2861 C746 1.690 . S
C2879 C814 1.339 . S
C2875 C148 1.388 1_565 S
C2897 C896 0.840 . S
C2893 C163 0.840 . S
C2915 C1486 0.975 . S
C2911 C302 1.008 . S
C2929 C288 1.402 . S
C2933 C1654 1.350 . S
C2951 C662 1.649 . S
C2947 C149 1.666 . S
C2969 C476 0.774 . S
C2965 C121 0.780 . S
C2983 C87 2.161 . S
C2987 C1579 2.191 . S
C3005 C483 1.940 . S
C3001 C79 1.940 . S
C3019 C63 1.925 . S
C3023 C1663 1.945 . S
C3037 C106 1.519 . S
C3041 C657 1.414 . S
C3055 C35 1.530 . S
C3059 C1077 1.475 . S
C3077 C823 1.904 . S
C3073 C23 1.859 . S
C3091 C3 1.956 . S
C3095 C1239 1.949 . S
C3109 C50 2.108 . S
C3113 C991 2.127 . S
C3131 C1575 1.725 . S
C3127 C325 1.764 . S
C3145 C161 0.959 . S
C3149 C489 0.947 . S
C3167 C1659 1.187 1_655 S
C3163 C297 1.206 . S
C3181 C133 1.640 . S
C3185 C655 1.677 . S
C3199 C329 1.636 . S
C3203 C1075 1.668 . S
C3221 C819 1.199 . S
C3217 C157 1.217 . S
C3235 C301 0.961 . S
C3239 C1245 0.945 . S
C3257 C987 1.717 . S
C3253 C129 1.755 . S
C3275 C1581 1.011 . S
C3271 C246 1.033 . S
C3293 C735 1.716 1_565 S
C3289 C219 1.731 . S
C3307 C232 1.399 . S
C3311 C1161 1.333 . S
C3329 C907 0.880 . S
C3325 C191 0.878 . S
C3343 C204 0.996 . S
C3347 C993 0.991 . S
C3361 C176 1.410 . S
C3365 C1665 1.338 . S
C3383 C1323 1.683 . S
C3379 C233 1.696 . S
C3401 C1411 0.820 . S
C3397 C275 0.815 . S
