# Generated by pormake.
# Topology zzz, (3,6)-cn, num edge types: 1
# Building blocks:
#     Node 0, Type 0, BuildingBlock: WUSLED_clean_sbu_0, # of connection points: 3
#     Node 1, Type 0, BuildingBlock: WUSLED_clean_sbu_0, # of connection points: 3
#     Node 2, Type 0, BuildingBlock: WUSLED_clean_sbu_0, # of connection points: 3
#     Node 3, Type 0, BuildingBlock: WUSLED_clean_sbu_0, # of connection points: 3
#     Node 4, Type 0, BuildingBlock: WUSLED_clean_sbu_0, # of connection points: 3
#     Node 5, Type 0, BuildingBlock: WUSLED_clean_sbu_0, # of connection points: 3
#     Node 6, Type 0, BuildingBlock: WUSLED_clean_sbu_0, # of connection points: 3
#     Node 7, Type 0, BuildingBlock: WUSLED_clean_sbu_0, # of connection points: 3
#     Node 8, Type 1, BuildingBlock: BETDIP_clean_sbu_0, # of connection points: 6
#     Node 9, Type 1, BuildingBlock: BETDIP_clean_sbu_0, # of connection points: 6
#     Node 10, Type 1, BuildingBlock: BETDIP_clean_sbu_0, # of connection points: 6
#     Node 11, Type 1, BuildingBlock: BETDIP_clean_sbu_0, # of connection points: 6
#     Edge 12, Type (0, 1), BuildingBlock: CIFDUS_clean_linker_0, # of connection points: 2
#     Edge 13, Type (0, 1), BuildingBlock: CIFDUS_clean_linker_0, # of connection points: 2
#     Edge 14, Type (0, 1), BuildingBlock: CIFDUS_clean_linker_0, # of connection points: 2
#     Edge 15, Type (0, 1), BuildingBlock: CIFDUS_clean_linker_0, # of connection points: 2
#     Edge 16, Type (0, 1), BuildingBlock: CIFDUS_clean_linker_0, # of connection points: 2
#     Edge 17, Type (0, 1), BuildingBlock: CIFDUS_clean_linker_0, # of connection points: 2
#     Edge 18, Type (0, 1), BuildingBlock: CIFDUS_clean_linker_0, # of connection points: 2
#     Edge 19, Type (0, 1), BuildingBlock: CIFDUS_clean_linker_0, # of connection points: 2
#     Edge 20, Type (0, 1), BuildingBlock: CIFDUS_clean_linker_0, # of connection points: 2
#     Edge 21, Type (0, 1), BuildingBlock: CIFDUS_clean_linker_0, # of connection points: 2
#     Edge 22, Type (0, 1), BuildingBlock: CIFDUS_clean_linker_0, # of connection points: 2
#     Edge 23, Type (0, 1), BuildingBlock: CIFDUS_clean_linker_0, # of connection points: 2
#     Edge 24, Type (0, 1), BuildingBlock: CIFDUS_clean_linker_0, # of connection points: 2
#     Edge 25, Type (0, 1), BuildingBlock: CIFDUS_clean_linker_0, # of connection points: 2
#     Edge 26, Type (0, 1), BuildingBlock: CIFDUS_clean_linker_0, # of connection points: 2
#     Edge 27, Type (0, 1), BuildingBlock: CIFDUS_clean_linker_0, # of connection points: 2
#     Edge 28, Type (0, 1), BuildingBlock: CIFDUS_clean_linker_0, # of connection points: 2
#     Edge 29, Type (0, 1), BuildingBlock: CIFDUS_clean_linker_0, # of connection points: 2
#     Edge 30, Type (0, 1), BuildingBlock: CIFDUS_clean_linker_0, # of connection points: 2
#     Edge 31, Type (0, 1), BuildingBlock: CIFDUS_clean_linker_0, # of connection points: 2
#     Edge 32, Type (0, 1), BuildingBlock: CIFDUS_clean_linker_0, # of connection points: 2
#     Edge 33, Type (0, 1), BuildingBlock: CIFDUS_clean_linker_0, # of connection points: 2
#     Edge 34, Type (0, 1), BuildingBlock: CIFDUS_clean_linker_0, # of connection points: 2
#     Edge 35, Type (0, 1), BuildingBlock: CIFDUS_clean_linker_0, # of connection points: 2
# Relax obj value: 0.427
# Max RMSD: 0.257
# Mean RMSD: 0.236
data_MOF--net-zzz--node1-WUSLED_clean_sbu_0--node2-BETDIP_clean_sbu_0--edge1-CIFDUS_clean_linker_0
_symmetry_space_group_name_H-M    P1
_symmetry_Int_Tables_number       1
_symmetry_cell_setting            triclinic
loop_
_symmetry_equiv_pos_as_xyz
'x, y, z'
_cell_length_a     57.887541
_cell_length_b     58.017149
_cell_length_c     17.971553
_cell_angle_alpha  89.981213
_cell_angle_beta   90.188828
_cell_angle_gamma 90.051933
loop_
_atom_site_label
_atom_site_type_symbol
_atom_site_fract_x
_atom_site_fract_y
_atom_site_fract_z
_atom_type_partial_charge
C0 C 0.78629 0.51764 0.44907 0.0
C1 C 0.80634 0.5139 0.40648 0.0
C2 C 0.8305 0.5133 0.51902 0.0
C3 C 0.82812 0.51179 0.44097 0.0
C4 C 0.81031 0.51641 0.56139 0.0
C5 C 0.7886 0.51862 0.52692 0.0
U6 U 0.73296 0.50434 0.32121 0.0
O7 O 0.69551 0.51047 0.33741 0.0
O8 O 0.71437 0.52924 0.25097 0.0
C9 C 0.69407 0.52421 0.27923 0.0
C10 C 0.7633 0.52265 0.41419 0.0
C11 C 0.6749 0.51991 0.22498 0.0
C12 C 0.6335 0.51643 0.19936 0.0
C13 C 0.65194 0.51852 0.25001 0.0
C14 C 0.66049 0.51695 0.09713 0.0
C15 C 0.63747 0.51591 0.12203 0.0
C16 C 0.67893 0.51889 0.14776 0.0
C17 C 0.766 0.45144 0.26641 0.0
C18 C 0.79472 0.43039 0.19629 0.0
C19 C 0.80578 0.45083 0.30855 0.0
C20 C 0.78284 0.4573 0.31942 0.0
C21 C 0.81211 0.43865 0.24415 0.0
C22 C 0.77176 0.43687 0.20725 0.0
C23 C 0.74458 0.46474 0.26238 0.0
O24 O 0.76285 0.527 0.34237 0.0
O25 O 0.74562 0.51012 0.43609 0.0
O26 O 0.73259 0.46634 0.3242 0.0
O27 O 0.74716 0.48458 0.22821 0.0
H28 H 0.8053 0.51298 0.34637 0.0
H29 H 0.84313 0.50904 0.40632 0.0
H30 H 0.81133 0.51792 0.62136 0.0
H31 H 0.77358 0.52172 0.56132 0.0
H32 H 0.61605 0.51588 0.22082 0.0
H33 H 0.64821 0.5195 0.30895 0.0
H34 H 0.66433 0.51624 0.03824 0.0
H35 H 0.69633 0.5199 0.12607 0.0
H36 H 0.7991 0.42111 0.14599 0.0
H37 H 0.81885 0.45724 0.3466 0.0
H38 H 0.77868 0.46867 0.36529 0.0
H39 H 0.75895 0.43235 0.16563 0.0
C40 C 1.00315 0.79872 0.41586 0.0
C41 C 1.00756 0.81867 0.37356 0.0
C42 C 1.00829 0.84259 0.48629 0.0
C43 C 1.01017 0.84028 0.40832 0.0
C44 C 1.00417 0.82247 0.52823 0.0
C45 C 1.00164 0.80094 0.49354 0.0
U46 U 0.01531 0.7456 0.28644 0.0
O47 O 1.0097 0.70836 0.30702 0.0
O48 O 0.98956 0.72628 0.22135 0.0
C49 C 0.99516 0.70632 0.25097 0.0
C50 C 0.9981 0.77585 0.38107 0.0
C51 C 0.99917 0.68694 0.19806 0.0
C52 C 0.99901 0.64555 0.17276 0.0
C53 C 0.99689 0.66406 0.22265 0.0
C54 C 1.00594 0.67238 0.07235 0.0
C55 C 1.00331 0.64943 0.09664 0.0
C56 C 1.00398 0.69087 0.12235 0.0
C57 C 0.06859 0.77714 0.21823 0.0
C58 C 0.0976 0.79926 0.15261 0.0
C59 C 0.07145 0.81834 0.23776 0.0
C60 C 0.06143 0.79715 0.25512 0.0
C61 C 0.08886 0.81978 0.18336 0.0
C62 C 0.08738 0.77809 0.16952 0.0
C63 C 0.05413 0.75646 0.22027 0.0
O64 O 0.99291 0.77546 0.30975 0.0
O65 O 1.01116 0.7584 0.40152 0.0
O66 O 0.05341 0.74529 0.28387 0.0
O67 O 0.03368 0.75933 0.1898 0.0
H68 H 1.0087 0.81769 0.31351 0.0
H69 H 0.01366 0.85519 0.37388 0.0
H70 H 1.00219 0.82338 0.58803 0.0
H71 H 0.99794 0.78598 0.52763 0.0
H72 H 0.99669 0.62818 0.19358 0.0
H73 H 0.99305 0.66049 0.28049 0.0
H74 H 1.00962 0.67608 0.01453 0.0
H75 H 1.00595 0.70827 0.10142 0.0
H76 H 0.11128 0.79975 0.11166 0.0
H77 H 0.06412 0.83373 0.26224 0.0
H78 H 0.04693 0.7966 0.29298 0.0
H79 H 0.09313 0.76272 0.14081 0.0
C80 C 0.72021 1.00273 0.40445 0.0
C81 C 0.70122 1.00974 0.36096 0.0
C82 C 0.67544 1.00723 0.46862 0.0
C83 C 0.67922 0.01209 0.39267 0.0
C84 C 0.69466 1.00106 0.51256 0.0
C85 C 0.71671 0.99882 0.48082 0.0
U86 U 0.77401 0.01371 0.27755 0.0
O87 O 0.79001 0.9874 0.20639 0.0
O88 O 0.8109 1.00471 0.29162 0.0
C89 C 0.81076 0.99058 0.23428 0.0
C90 C 0.74298 0.99696 0.37049 0.0
C91 C 0.82956 0.9926 0.17842 0.0
C92 C 0.85981 0.01399 0.11332 0.0
C93 C 0.84272 0.01281 0.16884 0.0
C94 C 0.85094 0.97485 0.07679 0.0
C95 C 0.86389 0.9951 0.06584 0.0
C96 C 0.8341 0.97363 0.13232 0.0
C97 C 0.74564 0.06994 0.22346 0.0
C98 C 0.72392 0.10132 0.16833 0.0
C99 C 0.7053 0.07511 0.2544 0.0
C100 C 0.72619 0.06357 0.26469 0.0
C101 C 0.70362 0.09342 0.20313 0.0
C102 C 0.74474 0.08946 0.17778 0.0
C103 C 0.76536 0.05423 0.21898 0.0
O104 O 0.74309 0.99271 0.29865 0.0
O105 O 0.76115 1.0088 0.39258 0.0
O106 O 0.77745 0.05156 0.28043 0.0
O107 O 0.76057 0.03465 0.18562 0.0
H108 H 0.70318 0.01282 0.30189 0.0
H109 H 0.66503 0.01733 0.35709 0.0
H110 H 0.69253 0.99696 0.57092 0.0
H111 H 0.73094 0.99317 0.51563 0.0
H112 H 0.86935 0.0299 0.10614 0.0
H113 H 0.83961 0.02777 0.20342 0.0
H114 H 0.85379 0.95986 0.04212 0.0
H115 H 0.82434 0.9578 0.13871 0.0
H116 H 0.72342 0.11572 0.13 0.0
H117 H 0.69015 0.06831 0.28197 0.0
H118 H 0.72676 0.04862 0.30064 0.0
H119 H 0.75973 0.09468 0.14597 0.0
C120 C 0.51822 0.72634 0.41985 0.0
C121 C 0.50271 0.72181 0.4784 0.0
C122 C 0.51198 0.68059 0.47494 0.0
C123 C 0.49963 0.69923 0.50556 0.0
C124 C 0.52746 0.68526 0.4165 0.0
C125 C 0.53056 0.70771 0.38964 0.0
U126 U 0.50574 0.78158 0.30271 0.0
O127 O 0.51097 0.81889 0.32363 0.0
O128 O 0.53168 0.80101 0.23981 0.0
C129 C 0.52583 0.82095 0.26872 0.0
C130 C 0.52321 0.75031 0.3935 0.0
C131 C 0.52168 0.83965 0.2138 0.0
C132 C 0.52931 0.87887 0.17094 0.0
C133 C 0.53054 0.86186 0.22653 0.0
C134 C 0.50974 0.85189 0.08972 0.0
C135 C 0.51942 0.8739 0.10108 0.0
C136 C 0.51076 0.83501 0.14545 0.0
C137 C 0.45321 0.74917 0.23592 0.0
C138 C 0.42227 0.72654 0.18164 0.0
C139 C 0.4508 0.70824 0.26105 0.0
C140 C 0.46145 0.7295 0.27257 0.0
C141 C 0.43166 0.70633 0.21284 0.0
C142 C 0.4331 0.74781 0.19271 0.0
C143 C 0.46713 0.77023 0.23556 0.0
O144 O 0.52918 0.75244 0.32332 0.0
O145 O 0.50965 0.76712 0.41605 0.0
O146 O 0.46769 0.78177 0.29846 0.0
O147 O 0.4876 0.7677 0.20526 0.0
H148 H 0.49308 0.73571 0.50381 0.0
H149 H 0.48746 0.69637 0.55023 0.0
H150 H 0.53766 0.67156 0.39227 0.0
H151 H 0.54301 0.71052 0.34567 0.0
H152 H 0.53701 0.89558 0.18145 0.0
H153 H 0.53911 0.86584 0.27865 0.0
H154 H 0.5017 0.84757 0.03701 0.0
H155 H 0.50367 0.81808 0.13419 0.0
H156 H 0.40732 0.72572 0.14534 0.0
H157 H 0.45874 0.69311 0.28542 0.0
H158 H 0.47699 0.73033 0.30625 0.0
H159 H 0.42648 0.76294 0.16447 0.0
C160 C 0.22305 0.51706 0.03729 0.0
C161 C 0.21923 0.50827 0.96523 0.0
C162 C 0.17725 0.51219 0.97882 0.0
C163 C 0.1967 0.5058 0.93653 0.0
C164 C 0.18117 0.52083 0.05114 0.0
C165 C 0.20363 0.52321 0.07985 0.0
U166 U 0.27715 0.50177 0.15606 0.0
O167 O 0.31479 0.5051 0.13617 0.0
O168 O 0.29813 0.52543 0.22369 0.0
C169 C 0.31771 0.51917 0.19293 0.0
C170 C 0.2471 0.52147 0.06534 0.0
C171 C 0.33734 0.51443 0.24467 0.0
C172 C 0.37893 0.51508 0.26825 0.0
C173 C 0.36012 0.51675 0.21902 0.0
C174 C 0.35266 0.50816 0.37008 0.0
C175 C 0.37552 0.51119 0.34492 0.0
C176 C 0.33384 0.50974 0.32069 0.0
C177 C 0.2389 0.45337 0.20873 0.0
C178 C 0.20465 0.44061 0.27396 0.0
C179 C 0.20128 0.45642 0.14956 0.0
C180 C 0.22523 0.45886 0.14648 0.0
C181 C 0.19068 0.4487 0.21525 0.0
C182 C 0.22864 0.44302 0.27075 0.0
C183 C 0.26191 0.46372 0.21628 0.0
O184 O 0.24931 0.52689 0.13604 0.0
O185 O 0.26358 0.5076 0.04228 0.0
O186 O 0.27469 0.46385 0.15589 0.0
O187 O 0.26154 0.48369 0.25064 0.0
H188 H 0.23371 0.50353 0.93045 0.0
H189 H 0.19456 0.4988 0.8811 0.0
H190 H 0.16686 0.52639 0.08534 0.0
H191 H 0.20571 0.53033 0.13515 0.0
H192 H 0.39619 0.51708 0.24611 0.0
H193 H 0.36337 0.52042 0.16087 0.0
H194 H 0.34916 0.50539 0.42854 0.0
H195 H 0.31652 0.50793 0.34253 0.0
H196 H 0.19702 0.43473 0.32555 0.0
H197 H 0.19096 0.46255 0.10319 0.0
H198 H 0.23279 0.46704 0.09812 0.0
H199 H 0.2389 0.43889 0.3195 0.0
C200 C 1.01094 0.22639 0.05381 0.0
C201 C 0.0301 0.21215 0.06654 0.0
C202 C 0.01358 0.18183 0.98772 0.0
C203 C 0.03145 0.19016 0.03411 0.0
C204 C 0.99439 0.19626 0.97498 0.0
C205 C 0.99309 0.21821 1.0077 0.0
U206 U 0.02831 0.27441 0.19511 0.0
O207 O 0.03122 0.31226 0.18081 0.0
O208 O 1.00436 0.29772 0.25248 0.0
C209 C 0.0149 0.3165 0.22974 0.0
C210 C 1.00914 0.24971 0.08768 0.0
C211 C 0.01977 0.33435 0.28746 0.0
C212 C 0.02657 0.37476 0.31941 0.0
C213 C 0.02405 0.35725 0.26597 0.0
C214 C 0.02081 0.3468 0.41731 0.0
C215 C 0.02474 0.36988 0.39604 0.0
C216 C 0.01843 0.32931 0.36393 0.0
C217 C 0.07047 0.23089 0.27594 0.0
C218 C 0.07333 0.19476 0.3431 0.0
C219 C 0.07927 0.19546 0.20975 0.0
C220 C 0.07668 0.21943 0.2101 0.0
C221 C 0.07662 0.18286 0.27587 0.0
C222 C 0.07014 0.21858 0.34303 0.0
C223 C 0.0607 0.25434 0.27448 0.0
O224 O 1.00112 0.25056 0.15593 0.0
O225 O 0.02664 0.26381 0.07723 0.0
O226 O 0.06516 0.26706 0.2156 0.0
O227 O 0.03897 0.25538 0.29504 0.0
H228 H 0.04402 0.2181 0.10139 0.0
H229 H 0.04665 0.17981 0.04485 0.0
H230 H 0.9801 0.19044 0.94075 0.0
H231 H 0.97804 0.22882 0.99713 0.0
H232 H 0.02995 0.39215 0.30047 0.0
H233 H 0.02508 0.3617 0.20752 0.0
H234 H 0.0189 0.34224 0.47538 0.0
H235 H 0.01503 0.31189 0.38271 0.0
H236 H 0.07107 0.18543 0.39483 0.0
H237 H 0.08192 0.18664 0.15733 0.0
H238 H 0.07788 0.22872 0.15802 0.0
H239 H 0.06564 0.22712 0.39462 0.0
C240 C 0.29198 0.03995 0.02736 0.0
C241 C 0.31145 0.05035 0.06026 0.0
C242 C 0.33747 0.03087 0.97359 0.0
C243 C 0.33376 0.04585 0.03405 0.0
C244 C 0.31799 0.02056 0.94001 0.0
C245 C 0.29555 0.02504 0.96652 0.0
U246 U 0.23665 0.02816 0.14306 0.0
O247 O 0.19929 0.03536 0.12734 0.0
O248 O 0.21906 0.05342 0.21367 0.0
C249 C 0.1985 0.04892 0.18602 0.0
C250 C 0.26832 0.04599 0.05472 0.0
C251 C 0.17997 0.04458 0.24174 0.0
C252 C 0.13932 0.04689 0.27751 0.0
C253 C 0.15669 0.04851 0.22319 0.0
C254 C 0.16815 0.037 0.36976 0.0
C255 C 0.14492 0.04162 0.35189 0.0
C256 C 0.18541 0.03833 0.31544 0.0
C257 C 0.26847 0.97427 0.19153 0.0
C258 C 0.29697 0.95007 0.25166 0.0
C259 C 0.30715 0.97166 0.14089 0.0
C260 C 0.28461 0.98002 0.13644 0.0
C261 C 0.31383 0.95757 0.20083 0.0
C262 C 0.27442 0.95848 0.24716 0.0
C263 C 0.24741 0.98797 0.1992 0.0
O264 O 0.25063 0.03389 0.02995 0.0
O265 O 0.26669 0.05077 0.12599 0.0
O266 O 0.2507 1.00748 0.23476 0.0
O267 O 0.23488 0.99027 0.1385 0.0
H268 H 0.30946 0.06227 0.10617 0.0
H269 H 0.34815 0.05454 0.06064 0.0
H270 H 0.32009 1.00882 0.89371 0.0
H271 H 0.28101 0.01687 0.93912 0.0
H272 H 0.12162 0.05062 0.26193 0.0
H273 H 0.15199 0.05344 0.167 0.0
H274 H 0.17303 0.03256 0.42621 0.0
H275 H 0.20313 0.035 0.33177 0.0
H276 H 0.30165 0.93944 0.29889 0.0
H277 H 0.31974 0.97756 0.10067 0.0
H278 H 0.28026 0.9923 0.09322 0.0
H279 H 0.26218 0.95404 0.29036 0.0
C280 C 0.49389 0.29693 0.04301 0.0
C281 C 0.48141 0.31559 0.0724 0.0
C282 C 0.50047 0.34261 0.98799 0.0
C283 C 0.48468 0.33802 0.04558 0.0
C284 C 0.51294 0.32394 0.95809 0.0
C285 C 0.5097 0.30139 0.98524 0.0
U286 U 0.50641 0.24181 0.16031 0.0
O287 O 0.48054 0.22261 0.22426 0.0
O288 O 0.50095 0.2045 0.14023 0.0
C289 C 0.48627 0.20259 0.19568 0.0
C290 C 0.48881 0.27302 0.06965 0.0
C291 C 0.49068 0.18412 0.2511 0.0
C292 C 0.48276 0.14535 0.29744 0.0
C293 C 0.48114 0.16206 0.241 0.0
C294 C 0.50403 0.17234 0.37413 0.0
C295 C 0.49371 0.1505 0.36549 0.0
C296 C 0.50262 0.1889 0.31754 0.0
C297 C 0.55927 0.27404 0.2254 0.0
C298 C 0.59035 0.29657 0.27931 0.0
C299 C 0.56177 0.31497 0.20033 0.0
C300 C 0.55105 0.29374 0.18887 0.0
C301 C 0.58096 0.31681 0.24836 0.0
C302 C 0.57945 0.27533 0.2683 0.0
C303 C 0.54524 0.25306 0.22623 0.0
O304 O 0.50222 0.25612 0.04689 0.0
O305 O 0.48302 0.27101 0.14002 0.0
O306 O 0.52487 0.25572 0.25705 0.0
O307 O 0.54446 0.24148 0.16344 0.0
H308 H 0.46874 0.31283 0.11575 0.0
H309 H 0.47439 0.35175 0.0692 0.0
H310 H 0.52535 0.32677 0.91406 0.0
H311 H 0.51945 0.28746 0.9605 0.0
H312 H 0.47455 0.12877 0.28909 0.0
H313 H 0.47178 0.15799 0.19039 0.0
H314 H 0.51287 0.17677 0.42538 0.0
H315 H 0.51024 0.20574 0.32669 0.0
H316 H 0.60534 0.29733 0.31545 0.0
H317 H 0.55384 0.33014 0.17615 0.0
H318 H 0.53545 0.29297 0.15543 0.0
H319 H 0.58605 0.26017 0.29644 0.0
Tb320 Tb 0.01862 1.00997 0.76234 0.0
Tb321 Tb 0.98803 0.02534 0.64538 0.0
C322 C 0.03735 0.99097 0.87285 0.0
C323 C 0.05062 0.97012 0.89065 0.0
C324 C 0.04433 0.9485 0.8621 0.0
C325 C 0.05595 0.9287 0.8855 0.0
C326 C 0.07414 0.93019 0.93752 0.0
C327 C 0.08108 0.95203 0.96304 0.0
C328 C 0.06936 0.97181 0.93992 0.0
C329 C 0.04116 0.0263 0.64421 0.0
C330 C 1.00316 0.97385 0.63771 0.0
C331 C 0.96984 0.0454 0.53523 0.0
C332 C 0.97937 0.05294 0.46375 0.0
C333 C 0.99993 0.04324 0.43708 0.0
C334 C 0.01224 0.05407 0.38021 0.0
C335 C 1.004 0.07468 0.34887 0.0
C336 C 0.98232 0.08315 0.37125 0.0
C337 C 0.97017 0.07241 0.42863 0.0
C338 C 0.9655 1.0101 0.76513 0.0
C339 C 1.00741 0.06181 0.7612 0.0
O340 O 0.0156 0.98818 0.85464 0.0
O341 O 0.04773 1.00616 0.83107 0.0
O342 O 0.02315 0.01411 0.64367 0.0
O343 O 0.04766 0.02875 0.71262 0.0
O344 O 1.01045 0.9766 0.70722 0.0
O345 O 0.99715 0.99205 0.59796 0.0
O346 O 0.96863 0.02322 0.54642 0.0
O347 O 0.97843 0.05612 0.59271 0.0
O348 O 0.98368 0.02194 0.76388 0.0
O349 O 0.95842 1.00808 0.69737 0.0
O350 O 1.00181 0.05805 0.69072 0.0
O351 O 1.01118 0.04417 0.80578 0.0
H352 H 0.02998 0.94681 0.82365 0.0
H353 H 0.04992 0.91215 0.86542 0.0
H354 H 0.09522 0.9538 1.00227 0.0
H355 H 0.07456 0.9884 0.96203 0.0
H356 H 1.00709 0.02812 0.46341 0.0
H357 H 0.02883 0.04711 0.36382 0.0
H358 H 0.97564 0.09916 0.34889 0.0
H359 H 0.95439 0.08021 0.4489 0.0
Tb360 Tb 0.51322 0.02856 0.79581 0.0
Tb361 Tb 0.50178 0.99688 0.67487 0.0
C362 C 0.5286 0.0479 0.9111 0.0
C363 C 0.54905 0.06145 0.9319 0.0
C364 C 0.57046 0.05723 0.89853 0.0
C365 C 0.59007 0.06918 0.92194 0.0
C366 C 0.58864 0.08573 0.979 0.0
C367 C 0.56694 0.09055 1.01036 0.0
C368 C 0.5473 0.07846 0.98697 0.0
C369 C 0.49969 0.04983 0.67229 0.0
C370 C 0.55378 0.01126 0.6873 0.0
C371 C 0.48778 0.97551 0.56142 0.0
C372 C 0.46863 0.97515 0.50836 0.0
C373 C 0.45232 0.99295 0.50619 0.0
C374 C 0.43481 0.99267 0.45255 0.0
C375 C 0.43343 0.97457 0.40055 0.0
C376 C 0.44987 0.95679 0.40322 0.0
C377 C 0.46736 0.95712 0.45674 0.0
C378 C 0.5157 0.97619 0.79935 0.0
C379 C 0.46172 0.01585 0.77689 0.0
O380 O 0.53215 0.02617 0.89492 0.0
O381 O 0.51433 0.05778 0.8646 0.0
O382 O 0.51225 0.03214 0.67656 0.0
O383 O 0.4955 0.0569 0.73914 0.0
O384 O 0.54815 0.02192 0.75008 0.0
O385 O 0.53789 1.00119 0.64588 0.0
O386 O 0.50091 0.9938 0.55914 0.0
O387 O 0.48324 0.96904 0.6295 0.0
O388 O 0.50257 0.99341 0.79412 0.0
O389 O 0.52078 0.96955 0.73276 0.0
O390 O 0.46748 1.01039 0.70765 0.0
O391 O 0.47803 0.01972 0.82685 0.0
H392 H 0.57216 0.04423 0.85588 0.0
H393 H 0.60652 0.06465 0.89743 0.0
H394 H 0.5652 0.10333 0.05386 0.0
H395 H 0.53082 0.08207 0.01289 0.0
H396 H 0.45319 1.00704 0.54569 0.0
H397 H 0.42215 1.0064 0.45252 0.0
H398 H 0.44931 0.94274 0.36356 0.0
H399 H 0.48002 0.94337 0.45749 0.0
Tb400 Tb 0.49322 0.5168 0.79586 0.0
Tb401 Tb 0.52054 0.50639 0.66813 0.0
C402 C 0.47532 0.53241 0.91299 0.0
C403 C 0.46231 0.55296 0.93517 0.0
C404 C 0.46655 0.57438 0.90188 0.0
C405 C 0.45494 0.59398 0.92644 0.0
C406 C 0.43871 0.59249 0.98445 0.0
C407 C 0.43386 0.57079 0.01563 0.0
C408 C 0.44562 0.55119 0.99118 0.0
C409 C 0.46836 0.50297 0.67926 0.0
C410 C 0.50545 0.55731 0.68152 0.0
C411 C 0.53849 0.49083 0.55098 0.0
C412 C 0.55124 0.47017 0.52835 0.0
C413 C 0.54674 0.44873 0.56118 0.0
C414 C 0.55812 0.42905 0.53621 0.0
C415 C 0.57436 0.43046 0.47822 0.0
C416 C 0.57945 0.45217 0.44744 0.0
C417 C 0.56794 0.47186 0.47232 0.0
C418 C 0.54536 0.52037 0.78474 0.0
C419 C 0.50823 0.4659 0.78226 0.0
O420 O 0.49697 0.53555 0.89478 0.0
O421 O 0.46469 0.51847 0.86738 0.0
O422 O 0.4853 0.51663 0.67813 0.0
O423 O 0.46469 0.49701 0.74742 0.0
O424 O 0.50018 0.55184 0.7511 0.0
O425 O 0.51064 0.54092 0.63366 0.0
O426 O 0.51677 0.48795 0.56862 0.0
O427 O 0.54922 0.50446 0.5973 0.0
O428 O 0.52852 0.50659 0.78593 0.0
O429 O 0.54893 0.52634 0.71651 0.0
O430 O 0.51345 0.47137 0.71265 0.0
O431 O 0.50316 0.48229 0.83023 0.0
H432 H 0.47927 0.57611 0.85827 0.0
H433 H 0.45944 0.61044 0.902 0.0
H434 H 0.4213 0.56902 0.05979 0.0
H435 H 0.44197 0.53469 0.01692 0.0
H436 H 0.53401 0.44708 0.60476 0.0
H437 H 0.55344 0.4126 0.56034 0.0
H438 H 0.59203 0.45387 0.40329 0.0
H439 H 0.57178 0.48836 0.44691 0.0
Tb440 Tb 1.00146 0.50601 0.78222 0.0
Tb441 Tb 0.01639 0.53102 0.64845 0.0
C442 C 0.98508 0.49405 0.90565 0.0
C443 C 0.96366 0.48664 0.94205 0.0
C444 C 0.94315 0.49934 0.93503 0.0
C445 C 0.92406 0.49382 0.97876 0.0
C446 C 0.92514 0.47544 0.02967 0.0
C447 C 0.94526 0.46203 0.03377 0.0
C448 C 0.96443 0.46769 0.99051 0.0
C449 C 0.015 0.47897 0.67121 0.0
C450 C 0.96304 0.52162 0.66264 0.0
C451 C 0.03357 0.54256 0.52544 0.0
C452 C 0.05138 0.53319 0.47645 0.0
C453 C 0.06615 0.51567 0.50132 0.0
C454 C 0.08179 0.50552 0.45237 0.0
C455 C 0.08272 0.51254 0.37744 0.0
C456 C 0.06777 0.53009 0.35285 0.0
C457 C 0.05222 0.54032 0.40207 0.0
C458 C 1.00279 0.55839 0.75798 0.0
C459 C 0.05411 0.51392 0.76494 0.0
O460 O 0.98613 0.51546 0.88271 0.0
O461 O 0.99455 0.47961 0.85903 0.0
O462 O 1.00345 0.49727 0.66651 0.0
O463 O 0.01826 0.47446 0.74106 0.0
O464 O 0.96724 0.51286 0.72979 0.0
O465 O 0.98006 0.52881 0.61975 0.0
O466 O 0.01546 0.52936 0.53243 0.0
O467 O 0.04043 0.55105 0.58929 0.0
O468 O 0.01445 0.54011 0.76429 0.0
O469 O 0.99997 0.5626 0.68784 0.0
O470 O 0.04932 0.51741 0.69357 0.0
O471 O 0.03723 0.51226 0.81372 0.0
H472 H 0.94208 0.51396 0.89764 0.0
H473 H 0.90856 0.50418 0.97386 0.0
H474 H 0.94651 0.44783 0.07274 0.0
H475 H 0.98015 0.45775 0.99684 0.0
H476 H 0.06546 0.50968 0.55831 0.0
H477 H 0.09333 0.49237 0.47354 0.0
H478 H 0.06789 0.53573 0.2954 0.0
H479 H 0.04059 0.55354 0.38177 0.0
H480 H 0.10194 0.0215 0.35105 0.0
H481 H 0.14758 0.06248 0.48745 0.0
H482 H 0.11924 0.06243 0.58782 0.0
H483 H 0.08184 0.04982 0.63904 0.0
H484 H 0.03744 1.00637 0.50688 0.0
H485 H 0.06442 1.00872 0.40278 0.0
C486 C 0.10558 0.03055 0.40255 0.0
C487 C 0.12697 0.04188 0.41164 0.0
C488 C 0.08926 0.03016 0.46087 0.0
C489 C 0.13144 0.05337 0.47914 0.0
C490 C 0.11517 0.05344 0.53658 0.0
C491 C 0.07801 0.041 0.58723 0.0
C492 C 0.05728 0.02846 0.58017 0.0
C493 C 0.0941 0.04173 0.52843 0.0
C494 C 0.0528 0.01684 0.513 0.0
C495 C 0.06842 0.01793 0.45369 0.0
H496 H 0.50302 0.10398 0.36514 0.0
H497 H 0.48277 0.15977 0.50946 0.0
H498 H 0.48172 0.1335 0.61537 0.0
H499 H 0.4872 0.0949 0.66831 0.0
H500 H 0.50929 0.03914 0.52715 0.0
H501 H 0.50866 0.06492 0.41901 0.0
C502 C 0.49829 0.11032 0.41974 0.0
C503 C 0.49313 0.13391 0.4292 0.0
C504 C 0.49796 0.09507 0.4811 0.0
C505 C 0.48716 0.14183 0.50058 0.0
C506 C 0.48642 0.12677 0.56124 0.0
C507 C 0.49174 0.08833 0.6138 0.0
C508 C 0.49818 0.06506 0.60583 0.0
C509 C 0.49189 0.10339 0.55233 0.0
C510 C 0.50418 0.05692 0.53483 0.0
C511 C 0.50389 0.0717 0.47299 0.0
H512 H 0.38205 0.48447 0.46994 0.0
H513 H 0.4144 0.53846 0.34181 0.0
H514 H 0.4465 0.53969 0.42988 0.0
H515 H 0.46495 0.52667 0.54721 0.0
H516 H 0.43165 0.4739 0.67756 0.0
H517 H 0.40059 0.47115 0.58563 0.0
C518 C 0.39601 0.49663 0.46127 0.0
C519 C 0.39557 0.51129 0.39854 0.0
C520 C 0.41441 0.49753 0.51304 0.0
C521 C 0.41422 0.52663 0.3884 0.0
C522 C 0.43261 0.5275 0.43928 0.0
C523 C 0.45098 0.51444 0.55507 0.0
C524 C 0.45066 0.50052 0.6194 0.0
C525 C 0.43287 0.51315 0.50217 0.0
C526 C 0.43235 0.48486 0.62878 0.0
C527 C 0.41451 0.48329 0.57619 0.0
H528 H 1.00913 0.41465 0.38706 0.0
H529 H 0.04425 0.36774 0.5357 0.0
H530 H 0.04486 0.39718 0.63239 0.0
H531 H 0.03435 0.43605 0.67717 0.0
H532 H 1.00025 0.48323 0.52758 0.0
H533 H 1.00091 0.45423 0.42895 0.0
C534 C 0.01728 0.41088 0.44005 0.0
C535 C 0.0264 0.38868 0.45357 0.0
C536 C 0.01781 0.42808 0.49569 0.0
C537 C 0.03659 0.38433 0.52354 0.0
C538 C 0.03711 0.40128 0.57903 0.0
C539 C 0.02722 0.44002 0.6228 0.0
C540 C 0.01716 0.46179 0.61005 0.0
C541 C 0.02756 0.42315 0.56614 0.0
C542 C 1.00808 0.46665 0.5391 0.0
C543 C 1.00838 0.45001 0.48261 0.0
H544 H 0.90816 0.01267 0.06612 0.0
H545 H 0.85742 0.98068 0.92312 0.0
H546 H 0.88444 0.9817 0.81946 0.0
H547 H 0.92231 0.99191 0.76803 0.0
H548 H 0.97352 0.02384 0.90896 0.0
H549 H 0.9467 0.02252 0.01427 0.0
C550 C 0.903 1.00605 0.01215 0.0
C551 C 0.88072 0.99651 1.00286 0.0
C552 C 0.91879 1.00658 0.95223 0.0
C553 C 0.87448 0.98783 0.93246 0.0
C554 C 0.88992 0.98848 0.87288 0.0
C555 C 0.92766 0.99849 0.82188 0.0
C556 C 0.94989 1.00801 0.83046 0.0
C557 C 0.91212 0.99775 0.88203 0.0
C558 C 0.95652 0.01642 0.90075 0.0
C559 C 0.94114 0.01573 0.96098 0.0
H560 H 0.50926 0.92028 0.1027 0.0
H561 H 0.53243 0.86567 0.95826 0.0
H562 H 0.53447 0.89255 0.85415 0.0
H563 H 0.52904 0.93134 0.80265 0.0
H564 H 0.50414 0.98596 0.9436 0.0
H565 H 0.50371 0.95956 0.05028 0.0
C566 C 0.51485 0.91432 0.04848 0.0
C567 C 0.52054 0.89087 0.03844 0.0
C568 C 0.51576 0.92994 0.98811 0.0
C569 C 0.52761 0.88347 0.96754 0.0
C570 C 0.52892 0.89889 0.90792 0.0
C571 C 0.52367 0.93754 0.85682 0.0
C572 C 0.51673 0.96065 0.86516 0.0
C573 C 0.52294 0.92212 0.91736 0.0
C574 C 0.50963 0.96829 0.93569 0.0
C575 C 0.50932 0.95316 0.99667 0.0
H576 H 0.63237 0.53919 0.99044 0.0
H577 H 0.59785 0.48979 0.13092 0.0
H578 H 0.56587 0.48744 0.04183 0.0
H579 H 0.54797 0.49865 0.92109 0.0
H580 H 0.58316 0.54784 0.78152 0.0
H581 H 0.61437 0.55093 0.87249 0.0
C582 C 0.61796 0.52775 1.00149 0.0
C583 C 0.61774 0.51462 0.06757 0.0
C584 C 0.59958 0.52645 0.94986 0.0
C585 C 0.59855 0.50027 0.0811 0.0
C586 C 0.58023 0.49883 0.02987 0.0
C587 C 0.5624 0.51015 0.91097 0.0
C588 C 0.5632 0.52295 0.84422 0.0
C589 C 0.58055 0.51178 0.96377 0.0
C590 C 0.58208 0.53774 0.83209 0.0
C591 C 0.60001 0.5395 0.88415 0.0
H592 H 0.98522 0.64679 0.95608 0.0
H593 H 0.0245 0.60739 0.11579 0.0
H594 H 0.02705 0.57535 0.02769 0.0
H595 H 0.01901 0.5587 0.90262 0.0
H596 H 0.97987 0.59874 0.74414 0.0
H597 H 0.97648 0.63008 0.83376 0.0
C598 C 0.99451 0.63128 0.97159 0.0
C599 C 1.00474 0.62971 0.04272 0.0
C600 C 0.99593 0.61287 0.92054 0.0
C601 C 0.01628 0.60916 0.06188 0.0
C602 C 0.01784 0.5908 0.01126 0.0
C603 C 1.00962 0.57423 0.88805 0.0
C604 C 0.99979 0.57635 0.81642 0.0
C605 C 1.0078 0.59244 0.94017 0.0
C606 C 0.98769 0.59663 0.79857 0.0
C607 C 0.98575 0.61463 0.84985 0.0
H608 H 0.04508 0.16064 0.19239 0.0
H609 H 0.09757 0.14944 0.3591 0.0
H610 H 0.08194 0.11102 0.38441 0.0
H611 H 0.04851 0.08524 0.37886 0.0
H612 H 0.99368 0.0985 0.22155 0.0
H613 H 0.01498 0.13149 0.17249 0.0
C614 C 0.05362 0.14939 0.2321 0.0
C615 C 0.07234 0.15776 0.27418 0.0
C616 C 0.04375 0.12794 0.24909 0.0
C617 C 0.0831 0.14325 0.32632 0.0
C618 C 0.07404 0.12142 0.34113 0.0
C619 C 0.04166 0.09476 0.33175 0.0
C620 C 0.01943 0.08966 0.3044 0.0
C621 C 0.05363 0.11418 0.30582 0.0
C622 C 1.01065 0.10231 0.24397 0.0
C623 C 0.02283 0.12118 0.21598 0.0
H624 H 0.3467 0.99049 0.19798 0.0
H625 H 0.33606 0.91861 0.24934 0.0
H626 H 0.37402 0.91698 0.30945 0.0
H627 H 0.40719 0.93757 0.36314 0.0
H628 H 0.41678 1.00985 0.31558 0.0
H629 H 0.38214 1.00974 0.23753 0.0
C630 C 0.35298 0.97424 0.22003 0.0
C631 C 0.33857 0.95471 0.21967 0.0
C632 C 0.37437 0.97367 0.25645 0.0
C633 C 0.34681 0.9339 0.2496 0.0
C634 C 0.36842 0.93301 0.28422 0.0
C635 C 0.40198 0.95316 0.33433 0.0
C636 C 0.41428 0.97377 0.34589 0.0
C637 C 0.3819 0.95303 0.29058 0.0
C638 C 0.40727 0.9939 0.30869 0.0
C639 C 0.38756 0.99381 0.26387 0.0
H640 H 0.59265 0.32842 0.38977 0.0
H641 H 0.58476 0.35728 0.16964 0.0
H642 H 0.58539 0.39611 0.22202 0.0
H643 H 0.58092 0.42085 0.33167 0.0
H644 H 0.58917 0.39178 0.55135 0.0
H645 H 0.59608 0.35388 0.49716 0.0
C646 C 0.59197 0.34314 0.35262 0.0
C647 C 0.58814 0.33988 0.27596 0.0
C648 C 0.59198 0.36535 0.38315 0.0
C649 C 0.58714 0.35928 0.2291 0.0
C650 C 0.58748 0.38149 0.259 0.0
C651 C 0.58499 0.40642 0.36776 0.0
C652 C 0.58395 0.40903 0.44554 0.0
C653 C 0.58874 0.38463 0.33628 0.0
C654 C 0.58921 0.39008 0.49133 0.0
C655 C 0.59324 0.36842 0.4604 0.0
H656 H 0.16868 0.48835 0.18253 0.0
H657 H 0.15801 0.4218 0.28404 0.0
H658 H 0.12137 0.43518 0.3362 0.0
H659 H 0.09566 0.46747 0.36733 0.0
H660 H 0.10869 0.53467 0.27277 0.0
H661 H 0.14072 0.51908 0.20131 0.0
C662 C 0.15798 0.47645 0.21377 0.0
C663 C 0.1661 0.45414 0.22976 0.0
C664 C 0.13749 0.4845 0.24557 0.0
C665 C 0.15218 0.43911 0.27153 0.0
C666 C 0.13133 0.4468 0.3016 0.0
C667 C 0.10546 0.47868 0.33084 0.0
C668 C 0.10001 0.50229 0.32646 0.0
C669 C 0.12437 0.46977 0.29166 0.0
C670 C 0.11244 0.51643 0.27722 0.0
C671 C 0.13089 0.50757 0.23665 0.0
H672 H 0.09452 0.82913 0.0368 0.0
H673 H 0.09477 0.86156 0.25301 0.0
H674 H 0.09325 0.8995 0.19409 0.0
H675 H 0.0852 0.92251 0.08257 0.0
H676 H 0.085 0.88986 0.86668 0.0
H677 H 0.0935 0.85276 0.92459 0.0
C678 C 0.09512 0.84445 0.07131 0.0
C679 C 0.09438 0.84246 0.14935 0.0
C680 C 0.09383 0.86611 0.03717 0.0
C681 C 0.09489 0.8626 0.19284 0.0
C682 C 0.09398 0.88428 0.15918 0.0
C683 C 0.08773 0.90746 0.04781 0.0
C684 C 0.08402 0.90889 0.97047 0.0
C685 C 0.0924 0.88615 0.08151 0.0
C686 C 0.0872 0.88912 0.92651 0.0
C687 C 0.09213 0.86792 0.95954 0.0
H688 H 0.69123 0.10445 0.06142 0.0
H689 H 0.66353 0.09881 0.2836 0.0
H690 H 0.62435 0.09929 0.233 0.0
H691 H 0.59893 0.09378 0.12477 0.0
H692 H 0.62688 0.10046 0.90332 0.0
H693 H 0.66517 0.10764 0.95531 0.0
C694 C 0.67675 0.10426 0.09949 0.0
C695 C 0.68045 0.10093 0.17624 0.0
C696 C 0.65431 0.10432 0.07006 0.0
C697 C 0.66124 0.10064 0.22406 0.0
C698 C 0.63881 0.10093 0.19518 0.0
C699 C 0.61319 0.09759 0.08776 0.0
C700 C 0.61015 0.0959 1.01017 0.0
C701 C 0.63522 0.10155 0.118 0.0
C702 C 0.62889 0.10092 0.96325 0.0
C703 C 0.65078 0.1051 0.99291 0.0
H704 H 0.41995 0.69452 0.07157 0.0
H705 H 0.4279 0.66595 0.29206 0.0
H706 H 0.42738 0.62706 0.24018 0.0
H707 H 0.432 0.60222 0.13086 0.0
H708 H 0.42361 0.63098 0.91081 0.0
H709 H 0.41653 0.66892 0.96451 0.0
C710 C 0.42067 0.67986 0.10891 0.0
C711 C 0.42451 0.68322 0.18552 0.0
C712 C 0.4207 0.65761 0.07867 0.0
C713 C 0.42554 0.66387 0.23263 0.0
C714 C 0.42526 0.64162 0.20301 0.0
C715 C 0.42786 0.61658 0.09458 0.0
C716 C 0.42893 0.61388 0.01683 0.0
C717 C 0.42401 0.63839 0.12578 0.0
C718 C 0.42356 0.63275 0.97081 0.0
C719 C 0.41944 0.65443 1.00146 0.0
H720 H 0.83928 0.47606 0.24106 0.0
H721 H 0.83815 0.40401 0.18222 0.0
H722 H 0.87449 0.40872 0.11399 0.0
H723 H 0.90416 0.43452 0.06041 0.0
H724 H 0.90311 0.50693 0.11486 0.0
H725 H 0.86992 0.50091 0.19585 0.0
C726 C 0.84733 0.46119 0.21536 0.0
C727 C 0.8362 0.43967 0.21713 0.0
C728 C 0.86755 0.46424 0.17424 0.0
C729 C 0.84651 0.42072 0.18172 0.0
C730 C 0.86716 0.42346 0.1424 0.0
C731 C 0.89676 0.44886 0.09077 0.0
C732 C 0.90577 0.47118 0.08112 0.0
C733 C 0.87743 0.44532 0.13643 0.0
C734 C 0.8961 0.4897 0.12043 0.0
C735 C 0.87726 0.48624 0.16704 0.0
H736 H 0.99992 0.16776 0.84798 0.0
H737 H 0.03008 0.14217 0.05172 0.0
H738 H 0.03112 0.10331 1.00011 0.0
H739 H 0.02279 0.07614 0.89791 0.0
H740 H 0.99334 0.10172 0.69307 0.0
H741 H 0.99266 0.14074 0.74428 0.0
C742 C 1.00659 0.15369 0.88141 0.0
C743 C 0.01472 0.15809 0.95429 0.0
C744 C 1.0073 0.13123 0.851 0.0
C745 C 0.02374 0.13953 0.99566 0.0
C746 C 0.02429 0.11718 0.96616 0.0
C747 C 0.01627 0.09023 0.86425 0.0
C748 C 1.00807 0.08582 0.79154 0.0
C749 C 0.01603 0.11277 0.89399 0.0
C750 C 0.99982 0.10446 0.74898 0.0
C751 C 0.99936 0.12685 0.77838 0.0
H752 H 0.35338 0.02621 0.82925 0.0
H753 H 0.37634 0.02463 0.05804 0.0
H754 H 0.41614 0.01996 0.01753 0.0
H755 H 0.44485 0.01737 0.91807 0.0
H756 H 0.42269 0.0175 0.68871 0.0
H757 H 0.38238 0.02138 0.72849 0.0
C758 C 0.36703 0.02458 0.87031 0.0
C759 C 0.36164 0.02619 0.9469 0.0
C760 C 0.39017 0.02169 0.84652 0.0
C761 C 0.37979 0.02407 0.99887 0.0
C762 C 0.40266 0.02125 0.97573 0.0
C763 C 0.43126 0.01824 0.8765 0.0
C764 C 0.43697 0.01732 0.80027 0.0
C765 C 0.40811 0.02032 0.8998 0.0
C766 C 0.41893 0.01819 0.74767 0.0
C767 C 0.39582 0.02045 0.77048 0.0
H768 H 0.50597 0.35782 0.84343 0.0
H769 H 0.50234 0.38225 0.06996 0.0
H770 H 0.50464 0.42196 0.02662 0.0
H771 H 0.50649 0.45007 0.92496 0.0
H772 H 0.51072 0.42635 0.69798 0.0
H773 H 0.50973 0.38631 0.74095 0.0
C774 C 0.50596 0.3718 0.88343 0.0
C775 C 0.50366 0.36683 0.96009 0.0
C776 C 0.50737 0.39486 0.85802 0.0
C777 C 0.50357 0.38537 0.01068 0.0
C778 C 0.50501 0.40818 0.98594 0.0
C779 C 0.50725 0.43619 0.88464 0.0
C780 C 0.50863 0.44139 0.80808 0.0
C781 C 0.50663 0.41317 0.90977 0.0
C782 C 0.50976 0.42301 0.75714 0.0
C783 C 0.50911 0.40003 0.78176 0.0
H784 H 0.16189 0.51932 0.83471 0.0
H785 H 0.13758 0.50028 0.05327 0.0
H786 H 0.09803 0.49906 1.00685 0.0
H787 H 0.06988 0.50405 0.90521 0.0
H788 H 0.09388 0.5218 0.68544 0.0
H789 H 0.13376 0.52236 0.73106 0.0
C790 C 0.14804 0.51458 0.87219 0.0
C791 C 0.15304 0.51018 0.94806 0.0
C792 C 0.12509 0.51363 0.84481 0.0
C793 C 0.13453 0.50432 0.99524 0.0
C794 C 0.11178 0.50344 0.96853 0.0
C795 C 0.08379 0.50796 0.86696 0.0
C796 C 0.07865 0.51296 0.79174 0.0
C797 C 0.10679 0.50824 0.89361 0.0
C798 C 0.09712 0.51787 0.74347 0.0
C799 C 0.12002 0.51825 0.76965 0.0
H800 H 0.99248 0.88454 0.43632 0.0
H801 H 0.02799 0.85323 0.62201 0.0
H802 H 0.02923 0.89035 0.68588 0.0
H803 H 0.02008 0.93217 0.68987 0.0
H804 H 0.98551 0.96311 0.5015 0.0
H805 H 0.98444 0.92605 0.4385 0.0
C806 C 1.0008 0.88578 0.4903 0.0
C807 C 1.01002 0.86578 0.52387 0.0
C808 C 1.00163 0.90733 0.52684 0.0
C809 C 0.02036 0.86802 0.59473 0.0
C810 C 0.0212 0.88938 0.63139 0.0
C811 C 0.01229 0.93082 0.63511 0.0
C812 C 1.00286 0.95065 0.60101 0.0
C813 C 0.01179 0.90921 0.59827 0.0
C814 C 0.99296 0.94836 0.52963 0.0
C815 C 0.9923 0.92706 0.49322 0.0
H816 H 0.66054 0.02146 0.60745 0.0
H817 H 0.63584 0.99201 0.40132 0.0
H818 H 0.59676 0.99072 0.45045 0.0
H819 H 0.56935 0.99745 0.55141 0.0
H820 H 0.59325 0.02652 0.75871 0.0
H821 H 0.63266 0.02814 0.71005 0.0
C822 C 0.64665 0.01465 0.57332 0.0
C823 C 0.65138 1.00704 0.50012 0.0
C824 C 0.62395 0.01377 0.60229 0.0
C825 C 0.63291 0.99847 0.457 0.0
C826 C 0.61046 0.99752 0.48537 0.0
C827 C 0.58312 1.00408 0.58642 0.0
C828 C 0.57811 0.01183 0.65906 0.0
C829 C 0.60575 1.00507 0.55786 0.0
C830 C 0.59638 0.02048 0.70275 0.0
C831 C 0.61901 0.0214 0.67481 0.0
H832 H 0.507 0.66538 0.61975 0.0
H833 H 0.51011 0.64087 0.39321 0.0
H834 H 0.5082 0.60117 0.4368 0.0
H835 H 0.50679 0.57309 0.53866 0.0
H836 H 0.50297 0.59688 0.76562 0.0
H837 H 0.50364 0.63692 0.72244 0.0
C838 C 0.50697 0.65139 0.57979 0.0
C839 C 0.50902 0.65635 0.50303 0.0
C840 C 0.50577 0.62833 0.60535 0.0
C841 C 0.50908 0.63779 0.45254 0.0
C842 C 0.50786 0.61497 0.47743 0.0
C843 C 0.50606 0.58699 0.57893 0.0
C844 C 0.50489 0.58181 0.65555 0.0
C845 C 0.50648 0.61 0.55366 0.0
C846 C 0.50377 0.6002 0.70642 0.0
C847 C 0.50424 0.62318 0.68167 0.0
H848 H 0.87101 0.53307 0.47277 0.0
H849 H 0.84287 0.49166 0.64992 0.0
H850 H 0.88058 0.49108 0.71187 0.0
H851 H 0.92229 0.50203 0.71532 0.0
H852 H 0.94946 0.54353 0.53612 0.0
H853 H 0.91184 0.54418 0.47648 0.0
C854 C 0.8731 0.52368 0.52453 0.0
C855 C 0.8539 0.51238 0.55605 0.0
C856 C 0.8949 0.52346 0.56018 0.0
C857 C 0.85712 0.50072 0.6242 0.0
C858 C 0.8788 0.50031 0.65975 0.0
C859 C 0.91995 0.51133 0.66351 0.0
C860 C 0.93903 0.52263 0.63072 0.0
C861 C 0.89791 0.51165 0.62841 0.0
C862 C 0.93541 0.53452 0.56317 0.0
C863 C 0.91376 0.53493 0.52855 0.0
loop_
_geom_bond_atom_site_label_1
_geom_bond_atom_site_label_2
_geom_bond_distance
_geom_bond_site_symmetry_2
_ccdc_geom_bond_type
C0 C1 1.264 . S
C0 C5 1.479 . S
C0 C10 1.465 . S
C1 C0 1.264 . S
C1 C3 1.339 . S
C1 H28 0.931 . S
C2 C3 1.395 . S
C2 C4 1.320 . S
C3 C1 1.339 . S
C3 C2 1.395 . S
C3 H29 0.929 . S
C4 C2 1.320 . S
C4 C5 1.405 . S
C4 H30 0.930 . S
C5 C0 1.479 . S
C5 C4 1.405 . S
C5 H31 0.931 . S
U6 O7 2.454 . S
U6 O8 2.458 . S
U6 C9 2.984 . S
U6 C10 2.847 . S
U6 C23 2.882 . S
U6 O24 2.441 . S
U6 O25 2.420 . S
U6 O26 2.455 . S
U6 O27 2.449 . S
O7 U6 2.454 . S
O7 C9 1.353 . S
O8 U6 2.458 . S
O8 C9 1.286 . S
C9 U6 2.984 . S
C9 O7 1.353 . S
C9 O8 1.286 . S
C9 C11 1.363 . S
C10 C0 1.465 . S
C10 U6 2.847 . S
C10 O24 1.249 . S
C10 O25 1.202 . S
C11 C9 1.363 . S
C11 C13 1.408 . S
C11 C16 1.342 . S
C12 C13 1.310 . S
C12 C15 1.461 . S
C12 H32 0.932 . S
C13 C11 1.408 . S
C13 C12 1.310 . S
C13 H33 0.930 . S
C14 C15 1.474 . S
C14 C16 1.285 . S
C14 H34 0.929 . S
C15 C12 1.461 . S
C15 C14 1.474 . S
C16 C11 1.342 . S
C16 C14 1.285 . S
C16 H35 0.930 . S
C17 C20 1.424 . S
C17 C22 1.245 . S
C17 C23 1.428 . S
C18 C21 1.260 . S
C18 C22 1.477 . S
C18 H36 0.932 . S
C19 C20 1.384 . S
C19 C21 1.479 . S
C19 H37 0.929 . S
C20 C17 1.424 . S
C20 C19 1.384 . S
C20 H38 0.928 . S
C21 C18 1.260 . S
C21 C19 1.479 . S
C22 C17 1.245 . S
C22 C18 1.477 . S
C22 H39 0.932 . S
C23 U6 2.882 . S
C23 C17 1.428 . S
C23 O26 1.301 . S
C23 O27 1.282 . S
O24 U6 2.441 . S
O24 C10 1.249 . S
O25 U6 2.420 . S
O25 C10 1.202 . S
O26 U6 2.455 . S
O26 C23 1.301 . S
O27 U6 2.449 . S
O27 C23 1.282 . S
H28 C1 0.931 . S
H29 C3 0.929 . S
H30 C4 0.930 . S
H31 C5 0.931 . S
H32 C12 0.932 . S
H33 C13 0.930 . S
H34 C14 0.929 . S
H35 C16 0.930 . S
H36 C18 0.932 . S
H37 C19 0.929 . S
H38 C20 0.928 . S
H39 C22 0.932 . S
C40 C41 1.264 . S
C40 C45 1.479 . S
C40 C50 1.465 . S
C41 C40 1.264 . S
C41 C43 1.339 . S
C41 H68 0.931 . S
C42 C43 1.395 . S
C42 C44 1.320 . S
C43 C41 1.339 . S
C43 C42 1.395 . S
C43 H69 0.929 . S
C44 C42 1.320 . S
C44 C45 1.405 . S
C44 H70 0.921 1_455 S
C45 C40 1.479 . S
C45 C44 1.405 . S
C45 H71 0.931 . S
U46 O47 2.454 . S
U46 O48 2.458 . S
U46 C49 2.984 . S
U46 C50 2.847 . S
U46 C63 2.882 . S
U46 O64 2.441 . S
U46 O65 2.420 . S
U46 O66 2.455 . S
U46 O67 2.449 . S
O47 U46 2.454 . S
O47 C49 1.353 . S
O48 U46 2.458 . S
O48 C49 1.286 . S
C49 U46 2.984 . S
C49 O47 1.353 . S
C49 O48 1.286 . S
C49 C51 1.363 . S
C50 C40 1.465 . S
C50 U46 2.847 . S
C50 O64 1.249 . S
C50 O65 1.202 . S
C51 C49 1.363 . S
C51 C53 1.408 . S
C51 C56 1.342 . S
C52 C53 1.310 . S
C52 C55 1.461 . S
C52 H72 0.932 . S
C53 C51 1.408 . S
C53 C52 1.310 . S
C53 H73 0.930 . S
C54 C55 1.474 1_655 S
C54 C56 1.285 1_655 S
C54 H74 0.930 . S
C55 C52 1.461 . S
C55 C54 1.474 1_455 S
C56 C51 1.342 . S
C56 C54 1.285 1_455 S
C56 H75 0.933 . S
C57 C60 1.424 . S
C57 C62 1.245 . S
C57 C63 1.428 . S
C58 C61 1.260 . S
C58 C62 1.477 . S
C58 H76 0.932 . S
C59 C60 1.384 . S
C59 C61 1.479 . S
C59 H77 0.929 . S
C60 C57 1.424 . S
C60 C59 1.384 . S
C60 H78 0.928 . S
C61 C58 1.260 . S
C61 C59 1.479 . S
C62 C57 1.245 . S
C62 C58 1.477 . S
C62 H79 0.932 . S
C63 U46 2.882 . S
C63 C57 1.428 . S
C63 O66 1.301 . S
C63 O67 1.282 . S
O64 U46 2.441 . S
O64 C50 1.249 . S
O65 U46 2.420 . S
O65 C50 1.202 . S
O66 U46 2.455 . S
O66 C63 1.301 . S
O67 U46 2.449 . S
O67 C63 1.282 . S
H68 C41 0.931 . S
H69 C43 0.929 . S
H70 C44 0.921 1_655 S
H71 C45 0.931 . S
H72 C52 0.932 . S
H73 C53 0.930 . S
H74 C54 0.930 . S
H75 C56 0.933 . S
H76 C58 0.932 . S
H77 C59 0.929 . S
H78 C60 0.928 . S
H79 C62 0.932 . S
C80 C81 1.264 . S
C80 C85 1.479 . S
C80 C90 1.465 . S
C81 C80 1.264 . S
C81 C83 1.339 . S
C81 H108 0.931 . S
C82 C83 1.395 . S
C82 C84 1.320 . S
C83 C81 1.339 . S
C83 C82 1.395 . S
C83 H109 0.929 . S
C84 C82 1.320 . S
C84 C85 1.405 . S
C84 H110 0.921 1_545 S
C85 C80 1.479 . S
C85 C84 1.405 . S
C85 H111 0.931 . S
U86 O87 2.454 . S
U86 O88 2.458 . S
U86 C89 2.984 . S
U86 C90 2.847 . S
U86 C103 2.882 . S
U86 O104 2.441 . S
U86 O105 2.420 . S
U86 O106 2.455 . S
U86 O107 2.449 . S
O87 U86 2.454 . S
O87 C89 1.353 . S
O88 U86 2.458 . S
O88 C89 1.286 . S
C89 U86 2.984 . S
C89 O87 1.353 . S
C89 O88 1.286 . S
C89 C91 1.363 . S
C90 C80 1.465 . S
C90 U86 2.847 . S
C90 O104 1.249 . S
C90 O105 1.202 . S
C91 C89 1.363 . S
C91 C93 1.408 . S
C91 C96 1.342 . S
C92 C93 1.310 . S
C92 C95 1.461 . S
C92 H112 0.932 . S
C93 C91 1.408 . S
C93 C92 1.310 . S
C93 H113 0.930 . S
C94 C95 1.474 1_565 S
C94 C96 1.285 1_565 S
C94 H114 0.931 . S
C95 C92 1.461 . S
C95 C94 1.474 1_545 S
C96 C91 1.342 . S
C96 C94 1.285 1_545 S
C96 H115 0.933 . S
C97 C100 1.424 . S
C97 C102 1.245 . S
C97 C103 1.428 . S
C98 C101 1.260 . S
C98 C102 1.477 . S
C98 H116 0.932 . S
C99 C100 1.384 . S
C99 C101 1.479 . S
C99 H117 0.929 . S
C100 C97 1.424 . S
C100 C99 1.384 . S
C100 H118 0.928 . S
C101 C98 1.260 . S
C101 C99 1.479 . S
C102 C97 1.245 . S
C102 C98 1.477 . S
C102 H119 0.932 . S
C103 U86 2.882 . S
C103 C97 1.428 . S
C103 O106 1.301 . S
C103 O107 1.282 . S
O104 U86 2.441 . S
O104 C90 1.249 . S
O105 U86 2.420 . S
O105 C90 1.202 . S
O106 U86 2.455 . S
O106 C103 1.301 . S
O107 U86 2.449 . S
O107 C103 1.282 . S
H108 C81 0.931 . S
H109 C83 0.929 . S
H110 C84 0.921 1_565 S
H111 C85 0.931 . S
H112 C92 0.932 . S
H113 C93 0.930 . S
H114 C94 0.931 . S
H115 C96 0.933 . S
H116 C98 0.932 . S
H117 C99 0.929 . S
H118 C100 0.928 . S
H119 C102 0.932 . S
C120 C121 1.264 . S
C120 C125 1.479 . S
C120 C130 1.465 . S
C121 C120 1.264 . S
C121 C123 1.339 . S
C121 H148 0.931 . S
C122 C123 1.395 . S
C122 C124 1.320 . S
C123 C121 1.339 . S
C123 C122 1.395 . S
C123 H149 0.929 . S
C124 C122 1.320 . S
C124 C125 1.405 . S
C124 H150 0.930 . S
C125 C120 1.479 . S
C125 C124 1.405 . S
C125 H151 0.931 . S
U126 O127 2.454 . S
U126 O128 2.458 . S
U126 C129 2.984 . S
U126 C130 2.847 . S
U126 C143 2.882 . S
U126 O144 2.441 . S
U126 O145 2.420 . S
U126 O146 2.455 . S
U126 O147 2.449 . S
O127 U126 2.454 . S
O127 C129 1.353 . S
O128 U126 2.458 . S
O128 C129 1.286 . S
C129 U126 2.984 . S
C129 O127 1.353 . S
C129 O128 1.286 . S
C129 C131 1.363 . S
C130 C120 1.465 . S
C130 U126 2.847 . S
C130 O144 1.249 . S
C130 O145 1.202 . S
C131 C129 1.363 . S
C131 C133 1.408 . S
C131 C136 1.342 . S
C132 C133 1.310 . S
C132 C135 1.461 . S
C132 H152 0.932 . S
C133 C131 1.408 . S
C133 C132 1.310 . S
C133 H153 0.930 . S
C134 C135 1.474 . S
C134 C136 1.285 . S
C134 H154 0.929 . S
C135 C132 1.461 . S
C135 C134 1.474 . S
C136 C131 1.342 . S
C136 C134 1.285 . S
C136 H155 0.930 . S
C137 C140 1.424 . S
C137 C142 1.245 . S
C137 C143 1.428 . S
C138 C141 1.260 . S
C138 C142 1.477 . S
C138 H156 0.932 . S
C139 C140 1.384 . S
C139 C141 1.479 . S
C139 H157 0.929 . S
C140 C137 1.424 . S
C140 C139 1.384 . S
C140 H158 0.928 . S
C141 C138 1.260 . S
C141 C139 1.479 . S
C142 C137 1.245 . S
C142 C138 1.477 . S
C142 H159 0.932 . S
C143 U126 2.882 . S
C143 C137 1.428 . S
C143 O146 1.301 . S
C143 O147 1.282 . S
O144 U126 2.441 . S
O144 C130 1.249 . S
O145 U126 2.420 . S
O145 C130 1.202 . S
O146 U126 2.455 . S
O146 C143 1.301 . S
O147 U126 2.449 . S
O147 C143 1.282 . S
H148 C121 0.931 . S
H149 C123 0.929 . S
H150 C124 0.930 . S
H151 C125 0.931 . S
H152 C132 0.932 . S
H153 C133 0.930 . S
H154 C134 0.929 . S
H155 C136 0.930 . S
H156 C138 0.932 . S
H157 C139 0.929 . S
H158 C140 0.928 . S
H159 C142 0.932 . S
C160 C161 1.264 . S
C160 C165 1.479 . S
C160 C170 1.465 . S
C161 C160 1.264 . S
C161 C163 1.339 . S
C161 H188 0.931 . S
C162 C163 1.395 . S
C162 C164 1.320 . S
C163 C161 1.339 . S
C163 C162 1.395 . S
C163 H189 0.929 . S
C164 C162 1.320 . S
C164 C165 1.405 . S
C164 H190 0.930 . S
C165 C160 1.479 . S
C165 C164 1.405 . S
C165 H191 0.931 . S
U166 O167 2.454 . S
U166 O168 2.458 . S
U166 C169 2.984 . S
U166 C170 2.847 1_554 S
U166 C183 2.882 . S
U166 O184 2.441 1_554 S
U166 O185 2.420 1_554 S
U166 O186 2.455 . S
U166 O187 2.449 . S
O167 U166 2.454 . S
O167 C169 1.353 . S
O168 U166 2.458 . S
O168 C169 1.286 . S
C169 U166 2.984 . S
C169 O167 1.353 . S
C169 O168 1.286 . S
C169 C171 1.363 . S
C170 C160 1.465 . S
C170 U166 2.847 1_556 S
C170 O184 1.249 . S
C170 O185 1.202 . S
C171 C169 1.363 . S
C171 C173 1.408 . S
C171 C176 1.342 . S
C172 C173 1.310 . S
C172 C175 1.461 . S
C172 H192 0.932 . S
C173 C171 1.408 . S
C173 C172 1.310 . S
C173 H193 0.930 . S
C174 C175 1.474 . S
C174 C176 1.285 . S
C174 H194 0.929 . S
C175 C172 1.461 . S
C175 C174 1.474 . S
C176 C171 1.342 . S
C176 C174 1.285 . S
C176 H195 0.930 . S
C177 C180 1.424 . S
C177 C182 1.245 . S
C177 C183 1.428 . S
C178 C181 1.260 . S
C178 C182 1.477 . S
C178 H196 0.932 . S
C179 C180 1.384 . S
C179 C181 1.479 . S
C179 H197 0.929 . S
C180 C177 1.424 . S
C180 C179 1.384 . S
C180 H198 0.928 . S
C181 C178 1.260 . S
C181 C179 1.479 . S
C182 C177 1.245 . S
C182 C178 1.477 . S
C182 H199 0.932 . S
C183 U166 2.882 . S
C183 C177 1.428 . S
C183 O186 1.301 . S
C183 O187 1.282 . S
O184 U166 2.441 1_556 S
O184 C170 1.249 . S
O185 U166 2.420 1_556 S
O185 C170 1.202 . S
O186 U166 2.455 . S
O186 C183 1.301 . S
O187 U166 2.449 . S
O187 C183 1.282 . S
H188 C161 0.931 . S
H189 C163 0.929 . S
H190 C164 0.930 . S
H191 C165 0.931 . S
H192 C172 0.932 . S
H193 C173 0.930 . S
H194 C174 0.929 . S
H195 C176 0.930 . S
H196 C178 0.932 . S
H197 C179 0.929 . S
H198 C180 0.928 . S
H199 C182 0.932 . S
C200 C201 1.264 . S
C200 C205 1.479 . S
C200 C210 1.465 . S
C201 C200 1.264 . S
C201 C203 1.339 . S
C201 H228 0.931 . S
C202 C203 1.395 . S
C202 C204 1.320 . S
C203 C201 1.339 . S
C203 C202 1.395 . S
C203 H229 0.929 . S
C204 C202 1.320 . S
C204 C205 1.405 . S
C204 H230 0.923 1_455 S
C205 C200 1.479 . S
C205 C204 1.405 . S
C205 H231 0.931 . S
U206 O207 2.454 . S
U206 O208 2.458 . S
U206 C209 2.984 . S
U206 C210 2.847 1_554 S
U206 C223 2.882 . S
U206 O224 2.441 1_554 S
U206 O225 2.420 1_554 S
U206 O226 2.455 . S
U206 O227 2.449 . S
O207 U206 2.454 . S
O207 C209 1.353 . S
O208 U206 2.458 . S
O208 C209 1.286 . S
C209 U206 2.984 . S
C209 O207 1.353 . S
C209 O208 1.286 . S
C209 C211 1.363 . S
C210 C200 1.465 . S
C210 U206 2.847 1_556 S
C210 O224 1.249 . S
C210 O225 1.202 . S
C211 C209 1.363 . S
C211 C213 1.408 . S
C211 C216 1.342 . S
C212 C213 1.310 . S
C212 C215 1.462 . S
C212 H232 0.932 . S
C213 C211 1.408 . S
C213 C212 1.310 . S
C213 H233 0.930 . S
C214 C215 1.474 1_655 S
C214 C216 1.286 1_655 S
C214 H234 0.929 . S
C215 C212 1.462 . S
C215 C214 1.474 1_455 S
C216 C211 1.342 . S
C216 C214 1.286 1_455 S
C216 H235 0.933 . S
C217 C220 1.424 . S
C217 C222 1.245 . S
C217 C223 1.428 . S
C218 C221 1.260 . S
C218 C222 1.477 . S
C218 H236 0.932 . S
C219 C220 1.384 . S
C219 C221 1.479 . S
C219 H237 0.929 . S
C220 C217 1.424 . S
C220 C219 1.384 . S
C220 H238 0.928 . S
C221 C218 1.260 . S
C221 C219 1.479 . S
C222 C217 1.245 . S
C222 C218 1.477 . S
C222 H239 0.932 . S
C223 U206 2.882 . S
C223 C217 1.428 . S
C223 O226 1.301 . S
C223 O227 1.282 . S
O224 U206 2.441 1_556 S
O224 C210 1.249 . S
O225 U206 2.420 1_556 S
O225 C210 1.202 . S
O226 U206 2.455 . S
O226 C223 1.301 . S
O227 U206 2.449 . S
O227 C223 1.282 . S
H228 C201 0.931 . S
H229 C203 0.929 . S
H230 C204 0.923 1_655 S
H231 C205 0.931 . S
H232 C212 0.932 . S
H233 C213 0.930 . S
H234 C214 0.929 . S
H235 C216 0.933 . S
H236 C218 0.932 . S
H237 C219 0.929 . S
H238 C220 0.928 . S
H239 C222 0.932 . S
C240 C241 1.264 . S
C240 C245 1.479 . S
C240 C250 1.465 . S
C241 C240 1.264 . S
C241 C243 1.339 . S
C241 H268 0.931 . S
C242 C243 1.395 . S
C242 C244 1.320 . S
C243 C241 1.339 . S
C243 C242 1.395 . S
C243 H269 0.929 . S
C244 C242 1.320 . S
C244 C245 1.405 . S
C244 H270 0.923 1_545 S
C245 C240 1.479 . S
C245 C244 1.405 . S
C245 H271 0.931 . S
U246 O247 2.454 . S
U246 O248 2.458 . S
U246 C249 2.984 . S
U246 C250 2.847 1_554 S
U246 C263 2.882 . S
U246 O264 2.441 1_554 S
U246 O265 2.420 1_554 S
U246 O266 2.455 . S
U246 O267 2.449 . S
O247 U246 2.454 . S
O247 C249 1.353 . S
O248 U246 2.458 . S
O248 C249 1.286 . S
C249 U246 2.984 . S
C249 O247 1.353 . S
C249 O248 1.286 . S
C249 C251 1.363 . S
C250 C240 1.465 . S
C250 U246 2.847 1_556 S
C250 O264 1.249 . S
C250 O265 1.202 . S
C251 C249 1.363 . S
C251 C253 1.408 . S
C251 C256 1.342 . S
C252 C253 1.310 . S
C252 C255 1.462 . S
C252 H272 0.932 . S
C253 C251 1.408 . S
C253 C252 1.310 . S
C253 H273 0.930 . S
C254 C255 1.474 1_565 S
C254 C256 1.286 1_565 S
C254 H274 0.929 . S
C255 C252 1.462 . S
C255 C254 1.474 1_545 S
C256 C251 1.342 . S
C256 C254 1.286 1_545 S
C256 H275 0.933 . S
C257 C260 1.424 . S
C257 C262 1.245 . S
C257 C263 1.428 . S
C258 C261 1.260 . S
C258 C262 1.477 . S
C258 H276 0.932 . S
C259 C260 1.384 . S
C259 C261 1.479 . S
C259 H277 0.929 . S
C260 C257 1.424 . S
C260 C259 1.384 . S
C260 H278 0.928 . S
C261 C258 1.260 . S
C261 C259 1.479 . S
C262 C257 1.245 . S
C262 C258 1.477 . S
C262 H279 0.932 . S
C263 U246 2.882 . S
C263 C257 1.428 . S
C263 O266 1.301 . S
C263 O267 1.282 . S
O264 U246 2.441 1_556 S
O264 C250 1.249 . S
O265 U246 2.420 1_556 S
O265 C250 1.202 . S
O266 U246 2.455 . S
O266 C263 1.301 . S
O267 U246 2.449 . S
O267 C263 1.282 . S
H268 C241 0.931 . S
H269 C243 0.929 . S
H270 C244 0.923 1_565 S
H271 C245 0.931 . S
H272 C252 0.932 . S
H273 C253 0.930 . S
H274 C254 0.929 . S
H275 C256 0.933 . S
H276 C258 0.932 . S
H277 C259 0.929 . S
H278 C260 0.928 . S
H279 C262 0.932 . S
C280 C281 1.264 . S
C280 C285 1.479 . S
C280 C290 1.465 . S
C281 C280 1.264 . S
C281 C283 1.339 . S
C281 H308 0.931 . S
C282 C283 1.395 . S
C282 C284 1.320 . S
C283 C281 1.339 . S
C283 C282 1.395 . S
C283 H309 0.929 . S
C284 C282 1.320 . S
C284 C285 1.405 . S
C284 H310 0.930 . S
C285 C280 1.479 . S
C285 C284 1.405 . S
C285 H311 0.931 . S
U286 O287 2.454 . S
U286 O288 2.458 . S
U286 C289 2.984 . S
U286 C290 2.847 1_554 S
U286 C303 2.882 . S
U286 O304 2.441 1_554 S
U286 O305 2.420 1_554 S
U286 O306 2.455 . S
U286 O307 2.449 . S
O287 U286 2.454 . S
O287 C289 1.353 . S
O288 U286 2.458 . S
O288 C289 1.286 . S
C289 U286 2.984 . S
C289 O287 1.353 . S
C289 O288 1.286 . S
C289 C291 1.363 . S
C290 C280 1.465 . S
C290 U286 2.847 1_556 S
C290 O304 1.249 . S
C290 O305 1.202 . S
C291 C289 1.363 . S
C291 C293 1.408 . S
C291 C296 1.342 . S
C292 C293 1.310 . S
C292 C295 1.461 . S
C292 H312 0.932 . S
C293 C291 1.408 . S
C293 C292 1.310 . S
C293 H313 0.928 1_554 S
C294 C295 1.474 . S
C294 C296 1.285 . S
C294 H314 0.929 . S
C295 C292 1.461 . S
C295 C294 1.474 . S
C296 C291 1.342 . S
C296 C294 1.285 . S
C296 H315 0.930 . S
C297 C300 1.424 . S
C297 C302 1.245 . S
C297 C303 1.428 . S
C298 C301 1.260 . S
C298 C302 1.477 . S
C298 H316 0.932 . S
C299 C300 1.384 . S
C299 C301 1.479 . S
C299 H317 0.929 . S
C300 C297 1.424 . S
C300 C299 1.384 . S
C300 H318 0.928 . S
C301 C298 1.260 . S
C301 C299 1.479 . S
C302 C297 1.245 . S
C302 C298 1.477 . S
C302 H319 0.932 . S
C303 U286 2.882 . S
C303 C297 1.428 . S
C303 O306 1.301 . S
C303 O307 1.282 . S
O304 U286 2.441 1_556 S
O304 C290 1.249 . S
O305 U286 2.420 1_556 S
O305 C290 1.202 . S
O306 U286 2.455 . S
O306 C303 1.301 . S
O307 U286 2.449 . S
O307 C303 1.282 . S
H308 C281 0.931 . S
H309 C283 0.929 . S
H310 C284 0.930 . S
H311 C285 0.931 . S
H312 C292 0.932 . S
H313 C293 0.928 1_556 S
H314 C294 0.929 . S
H315 C296 0.930 . S
H316 C298 0.932 . S
H317 C299 0.929 . S
H318 C300 0.928 . S
H319 C302 0.932 . S
Tb320 C322 2.809 . S
Tb320 O340 2.484 . S
Tb320 O341 2.440 . S
Tb320 O342 2.658 1_565 S
Tb320 O343 2.409 . S
Tb320 O344 2.378 . S
Tb320 O348 2.325 1_455 S
Tb320 O351 2.341 1_565 S
Tb321 C331 2.809 . S
Tb321 O342 2.325 1_655 S
Tb321 O345 2.341 1_545 S
Tb321 O346 2.484 . S
Tb321 O347 2.440 . S
Tb321 O348 2.658 1_545 S
Tb321 O349 2.409 . S
Tb321 O350 2.378 . S
C322 Tb320 2.809 . S
C322 C323 1.514 . S
C322 O340 1.248 . S
C322 O341 1.266 . S
C323 C322 1.514 . S
C323 C324 1.359 . S
C323 C328 1.348 . S
C324 C323 1.359 . S
C324 C325 1.380 . S
C324 H352 0.929 1_455 S
C325 C324 1.380 . S
C325 C326 1.347 . S
C325 H353 0.931 1_455 S
C326 C325 1.347 . S
C326 C327 1.369 . S
C327 C326 1.369 . S
C327 C328 1.408 . S
C327 H354 0.930 . S
C328 C323 1.348 . S
C328 C327 1.408 . S
C328 H355 0.930 . S
C329 O342 1.281 1_565 S
C329 O343 1.254 . S
C330 O344 1.236 1_655 S
C330 O345 1.266 . S
C331 Tb321 2.809 . S
C331 C332 1.514 . S
C331 O346 1.248 . S
C331 O347 1.266 . S
C332 C331 1.514 . S
C332 C333 1.359 . S
C332 C337 1.348 . S
C333 C332 1.359 . S
C333 C334 1.380 . S
C333 H356 0.929 1_655 S
C334 C333 1.380 . S
C334 C335 1.347 . S
C334 H357 0.931 1_655 S
C335 C334 1.347 . S
C335 C336 1.369 . S
C336 C335 1.369 . S
C336 C337 1.408 . S
C336 H358 0.930 . S
C337 C332 1.348 . S
C337 C336 1.408 . S
C337 H359 0.930 . S
C338 O348 1.281 1_545 S
C338 O349 1.254 . S
C339 O350 1.236 1_455 S
C339 O351 1.266 . S
O340 Tb320 2.484 . S
O340 C322 1.248 . S
O341 Tb320 2.440 . S
O341 C322 1.266 . S
O342 Tb320 2.658 1_545 S
O342 Tb321 2.325 1_455 S
O342 C329 1.281 1_545 S
O343 Tb320 2.409 . S
O343 C329 1.254 . S
O344 Tb320 2.378 . S
O344 C330 1.236 1_455 S
O345 Tb321 2.341 1_565 S
O345 C330 1.266 . S
O346 Tb321 2.484 . S
O346 C331 1.248 . S
O347 Tb321 2.440 . S
O347 C331 1.266 . S
O348 Tb320 2.325 1_655 S
O348 Tb321 2.658 1_565 S
O348 C338 1.281 1_565 S
O349 Tb321 2.409 . S
O349 C338 1.254 . S
O350 Tb321 2.378 . S
O350 C339 1.236 1_655 S
O351 Tb320 2.341 1_545 S
O351 C339 1.266 . S
H352 C324 0.929 1_655 S
H353 C325 0.931 1_655 S
H354 C327 0.930 . S
H355 C328 0.930 . S
H356 C333 0.929 1_455 S
H357 C334 0.931 1_455 S
H358 C336 0.930 . S
H359 C337 0.930 . S
Tb360 C362 2.809 . S
Tb360 O380 2.484 . S
Tb360 O381 2.440 . S
Tb360 O382 2.658 . S
Tb360 O383 2.409 . S
Tb360 O384 2.378 . S
Tb360 O388 2.325 1_545 S
Tb360 O391 2.341 . S
Tb361 C371 2.809 . S
Tb361 O382 2.325 1_565 S
Tb361 O385 2.341 . S
Tb361 O386 2.484 . S
Tb361 O387 2.440 . S
Tb361 O388 2.658 . S
Tb361 O389 2.409 . S
Tb361 O390 2.378 . S
C362 Tb360 2.809 . S
C362 C363 1.514 . S
C362 O380 1.248 . S
C362 O381 1.266 . S
C363 C362 1.514 . S
C363 C364 1.359 . S
C363 C368 1.348 . S
C364 C363 1.359 . S
C364 C365 1.380 . S
C364 H392 0.929 1_545 S
C365 C364 1.380 . S
C365 C366 1.347 . S
C365 H393 0.931 1_545 S
C366 C365 1.347 . S
C366 C367 1.369 . S
C367 C366 1.369 . S
C367 C368 1.408 . S
C367 H394 0.930 . S
C368 C363 1.348 . S
C368 C367 1.408 . S
C368 H395 0.930 . S
C369 O382 1.281 . S
C369 O383 1.254 . S
C370 O384 1.236 1_565 S
C370 O385 1.266 . S
C371 Tb361 2.809 . S
C371 C372 1.514 . S
C371 O386 1.248 . S
C371 O387 1.266 . S
C372 C371 1.514 . S
C372 C373 1.359 . S
C372 C377 1.348 . S
C373 C372 1.359 . S
C373 C374 1.380 . S
C373 H396 0.929 1_565 S
C374 C373 1.380 . S
C374 C375 1.347 . S
C374 H397 0.931 1_565 S
C375 C374 1.347 . S
C375 C376 1.369 . S
C376 C375 1.369 . S
C376 C377 1.408 . S
C376 H398 0.930 . S
C377 C372 1.348 . S
C377 C376 1.408 . S
C377 H399 0.930 . S
C378 O388 1.281 . S
C378 O389 1.254 . S
C379 O390 1.236 1_545 S
C379 O391 1.266 . S
O380 Tb360 2.484 . S
O380 C362 1.248 . S
O381 Tb360 2.440 . S
O381 C362 1.266 . S
O382 Tb360 2.658 . S
O382 Tb361 2.325 1_545 S
O382 C369 1.281 . S
O383 Tb360 2.409 . S
O383 C369 1.254 . S
O384 Tb360 2.378 . S
O384 C370 1.236 1_545 S
O385 Tb361 2.341 . S
O385 C370 1.266 . S
O386 Tb361 2.484 . S
O386 C371 1.248 . S
O387 Tb361 2.440 . S
O387 C371 1.266 . S
O388 Tb360 2.325 1_565 S
O388 Tb361 2.658 . S
O388 C378 1.281 . S
O389 Tb361 2.409 . S
O389 C378 1.254 . S
O390 Tb361 2.378 . S
O390 C379 1.236 1_565 S
O391 Tb360 2.341 . S
O391 C379 1.266 . S
H392 C364 0.929 1_565 S
H393 C365 0.931 1_565 S
H394 C367 0.930 . S
H395 C368 0.930 . S
H396 C373 0.929 1_545 S
H397 C374 0.931 1_545 S
H398 C376 0.930 . S
H399 C377 0.930 . S
Tb400 C402 2.809 . S
Tb400 O420 2.484 . S
Tb400 O421 2.440 . S
Tb400 O422 2.658 . S
Tb400 O423 2.409 . S
Tb400 O424 2.378 . S
Tb400 O428 2.325 . S
Tb400 O431 2.341 . S
Tb401 C411 2.809 . S
Tb401 O422 2.325 . S
Tb401 O425 2.341 . S
Tb401 O426 2.484 . S
Tb401 O427 2.440 . S
Tb401 O428 2.658 . S
Tb401 O429 2.409 . S
Tb401 O430 2.378 . S
C402 Tb400 2.809 . S
C402 C403 1.514 . S
C402 O420 1.248 . S
C402 O421 1.266 . S
C403 C402 1.514 . S
C403 C404 1.359 . S
C403 C408 1.348 . S
C404 C403 1.359 . S
C404 C405 1.380 . S
C404 H432 0.929 . S
C405 C404 1.380 . S
C405 C406 1.347 . S
C405 H433 0.931 . S
C406 C405 1.347 . S
C406 C407 1.369 . S
C407 C406 1.369 . S
C407 C408 1.408 . S
C407 H434 0.930 . S
C408 C403 1.348 . S
C408 C407 1.408 . S
C408 H435 0.930 . S
C409 O422 1.281 . S
C409 O423 1.254 . S
C410 O424 1.236 . S
C410 O425 1.266 . S
C411 Tb401 2.809 . S
C411 C412 1.514 . S
C411 O426 1.248 . S
C411 O427 1.266 . S
C412 C411 1.514 . S
C412 C413 1.359 . S
C412 C417 1.348 . S
C413 C412 1.359 . S
C413 C414 1.380 . S
C413 H436 0.929 . S
C414 C413 1.380 . S
C414 C415 1.347 . S
C414 H437 0.931 . S
C415 C414 1.347 . S
C415 C416 1.369 . S
C416 C415 1.369 . S
C416 C417 1.408 . S
C416 H438 0.930 . S
C417 C412 1.348 . S
C417 C416 1.408 . S
C417 H439 0.930 . S
C418 O428 1.281 . S
C418 O429 1.254 . S
C419 O430 1.236 . S
C419 O431 1.266 . S
O420 Tb400 2.484 . S
O420 C402 1.248 . S
O421 Tb400 2.440 . S
O421 C402 1.266 . S
O422 Tb400 2.658 . S
O422 Tb401 2.325 . S
O422 C409 1.281 . S
O423 Tb400 2.409 . S
O423 C409 1.254 . S
O424 Tb400 2.378 . S
O424 C410 1.236 . S
O425 Tb401 2.341 . S
O425 C410 1.266 . S
O426 Tb401 2.484 . S
O426 C411 1.248 . S
O427 Tb401 2.440 . S
O427 C411 1.266 . S
O428 Tb400 2.325 . S
O428 Tb401 2.658 . S
O428 C418 1.281 . S
O429 Tb401 2.409 . S
O429 C418 1.254 . S
O430 Tb401 2.378 . S
O430 C419 1.236 . S
O431 Tb400 2.341 . S
O431 C419 1.266 . S
H432 C404 0.929 . S
H433 C405 0.931 . S
H434 C407 0.930 . S
H435 C408 0.930 . S
H436 C413 0.929 . S
H437 C414 0.931 . S
H438 C416 0.930 . S
H439 C417 0.930 . S
Tb440 C442 2.809 . S
Tb440 O460 2.484 . S
Tb440 O461 2.440 . S
Tb440 O462 2.658 1_655 S
Tb440 O463 2.409 . S
Tb440 O464 2.378 . S
Tb440 O468 2.325 . S
Tb440 O471 2.341 1_655 S
Tb441 C451 2.809 . S
Tb441 O462 2.325 . S
Tb441 O465 2.341 1_455 S
Tb441 O466 2.484 . S
Tb441 O467 2.440 . S
Tb441 O468 2.658 1_455 S
Tb441 O469 2.409 . S
Tb441 O470 2.378 . S
C442 Tb440 2.809 . S
C442 C443 1.514 . S
C442 O460 1.248 . S
C442 O461 1.266 . S
C443 C442 1.514 . S
C443 C444 1.359 . S
C443 C448 1.348 . S
C444 C443 1.359 . S
C444 C445 1.380 . S
C444 H472 0.929 . S
C445 C444 1.380 . S
C445 C446 1.347 . S
C445 H473 0.931 . S
C446 C445 1.347 . S
C446 C447 1.369 . S
C447 C446 1.369 . S
C447 C448 1.408 . S
C447 H474 0.930 . S
C448 C443 1.348 . S
C448 C447 1.408 . S
C448 H475 0.930 . S
C449 O462 1.275 1_655 S
C449 O463 1.261 . S
C450 O464 1.236 . S
C450 O465 1.266 . S
C451 Tb441 2.809 . S
C451 C452 1.514 . S
C451 O466 1.248 . S
C451 O467 1.266 . S
C452 C451 1.514 . S
C452 C453 1.359 . S
C452 C457 1.348 . S
C453 C452 1.359 . S
C453 C454 1.380 . S
C453 H476 0.929 . S
C454 C453 1.380 . S
C454 C455 1.347 . S
C454 H477 0.931 . S
C455 C454 1.347 . S
C455 C456 1.369 . S
C456 C455 1.369 . S
C456 C457 1.408 . S
C456 H478 0.930 . S
C457 C452 1.348 . S
C457 C456 1.408 . S
C457 H479 0.930 . S
C458 O468 1.272 1_455 S
C458 O469 1.267 . S
C459 O470 1.236 . S
C459 O471 1.266 . S
O460 Tb440 2.484 . S
O460 C442 1.248 . S
O461 Tb440 2.440 . S
O461 C442 1.266 . S
O462 Tb440 2.658 1_455 S
O462 Tb441 2.325 . S
O462 C449 1.275 1_455 S
O463 Tb440 2.409 . S
O463 C449 1.261 . S
O464 Tb440 2.378 . S
O464 C450 1.236 . S
O465 Tb441 2.341 1_655 S
O465 C450 1.266 . S
O466 Tb441 2.484 . S
O466 C451 1.248 . S
O467 Tb441 2.440 . S
O467 C451 1.266 . S
O468 Tb440 2.325 . S
O468 Tb441 2.658 1_655 S
O468 C458 1.272 1_655 S
O469 Tb441 2.409 . S
O469 C458 1.267 . S
O470 Tb441 2.378 . S
O470 C459 1.236 . S
O471 Tb440 2.341 1_455 S
O471 C459 1.266 . S
H472 C444 0.929 . S
H473 C445 0.931 . S
H474 C447 0.930 . S
H475 C448 0.930 . S
H476 C453 0.929 . S
H477 C454 0.931 . S
H478 C456 0.930 . S
H479 C457 0.930 . S
H480 C486 0.930 . S
H481 C489 0.930 . S
H482 C490 0.930 . S
H483 C491 0.930 . S
H484 C494 0.930 . S
H485 C495 0.930 . S
C486 H480 0.930 . S
C486 C487 1.355 1_565 S
C486 C488 1.415 . S
C487 C486 1.355 1_545 S
C487 C489 1.419 . S
C488 C486 1.415 . S
C488 C493 1.425 1_565 S
C488 C495 1.409 . S
C489 H481 0.930 . S
C489 C487 1.419 . S
C489 C490 1.362 . S
C490 H482 0.930 . S
C490 C489 1.362 . S
C490 C493 1.409 . S
C491 H483 0.930 . S
C491 C492 1.355 1_545 S
C491 C493 1.415 . S
C492 C491 1.355 1_565 S
C492 C494 1.419 . S
C493 C488 1.425 1_545 S
C493 C490 1.409 . S
C493 C491 1.415 . S
C494 H484 0.930 . S
C494 C492 1.419 . S
C494 C495 1.362 . S
C495 H485 0.930 . S
C495 C488 1.409 . S
C495 C494 1.362 . S
H496 C502 0.930 . S
H497 C505 0.930 . S
H498 C506 0.930 . S
H499 C507 0.930 . S
H500 C510 0.930 . S
H501 C511 0.930 . S
C502 H496 0.930 . S
C502 C503 1.355 . S
C502 C504 1.415 . S
C503 C502 1.355 . S
C503 C505 1.419 . S
C504 C502 1.415 . S
C504 C509 1.425 . S
C504 C511 1.409 . S
C505 H497 0.930 . S
C505 C503 1.419 . S
C505 C506 1.362 . S
C506 H498 0.930 . S
C506 C505 1.362 . S
C506 C509 1.409 . S
C507 H499 0.930 . S
C507 C508 1.355 . S
C507 C509 1.415 . S
C508 C507 1.355 . S
C508 C510 1.419 . S
C509 C504 1.425 . S
C509 C506 1.409 . S
C509 C507 1.415 . S
C510 H500 0.930 . S
C510 C508 1.419 . S
C510 C511 1.362 . S
C511 H501 0.930 . S
C511 C504 1.409 . S
C511 C510 1.362 . S
H512 C518 0.930 . S
H513 C521 0.930 . S
H514 C522 0.930 . S
H515 C523 0.930 . S
H516 C526 0.930 . S
H517 C527 0.930 . S
C518 H512 0.930 . S
C518 C519 1.355 . S
C518 C520 1.415 . S
C519 C518 1.355 . S
C519 C521 1.419 . S
C520 C518 1.415 . S
C520 C525 1.425 . S
C520 C527 1.409 . S
C521 H513 0.930 . S
C521 C519 1.419 . S
C521 C522 1.362 . S
C522 H514 0.930 . S
C522 C521 1.362 . S
C522 C525 1.409 . S
C523 H515 0.930 . S
C523 C524 1.355 . S
C523 C525 1.415 . S
C524 C523 1.355 . S
C524 C526 1.419 . S
C525 C520 1.425 . S
C525 C522 1.409 . S
C525 C523 1.415 . S
C526 H516 0.930 . S
C526 C524 1.419 . S
C526 C527 1.362 . S
C527 H517 0.930 . S
C527 C520 1.409 . S
C527 C526 1.362 . S
H528 C534 0.930 . S
H529 C537 0.930 . S
H530 C538 0.930 . S
H531 C539 0.930 . S
H532 C542 0.930 . S
H533 C543 0.930 . S
C534 H528 0.930 . S
C534 C535 1.355 1_655 S
C534 C536 1.415 . S
C535 C534 1.355 1_455 S
C535 C537 1.419 . S
C536 C534 1.415 . S
C536 C541 1.425 1_655 S
C536 C543 1.409 . S
C537 H529 0.930 . S
C537 C535 1.419 . S
C537 C538 1.362 . S
C538 H530 0.930 . S
C538 C537 1.362 . S
C538 C541 1.409 . S
C539 H531 0.930 . S
C539 C540 1.355 1_455 S
C539 C541 1.415 . S
C540 C539 1.355 1_655 S
C540 C542 1.419 . S
C541 C536 1.425 1_455 S
C541 C538 1.409 . S
C541 C539 1.415 . S
C542 H532 0.930 . S
C542 C540 1.419 . S
C542 C543 1.362 . S
C543 H533 0.930 . S
C543 C536 1.409 . S
C543 C542 1.362 . S
H544 C550 0.930 . S
H545 C553 0.930 . S
H546 C554 0.930 . S
H547 C555 0.930 . S
H548 C558 0.930 . S
H549 C559 0.930 . S
C550 H544 0.930 . S
C550 C551 1.355 1_565 S
C550 C552 1.415 . S
C551 C550 1.355 1_545 S
C551 C553 1.419 . S
C552 C550 1.415 . S
C552 C557 1.425 1_565 S
C552 C559 1.409 . S
C553 H545 0.930 . S
C553 C551 1.419 . S
C553 C554 1.362 . S
C554 H546 0.930 . S
C554 C553 1.362 . S
C554 C557 1.409 . S
C555 H547 0.930 . S
C555 C556 1.355 1_545 S
C555 C557 1.415 1_556 S
C556 C555 1.355 1_565 S
C556 C558 1.419 . S
C557 C552 1.425 1_545 S
C557 C554 1.409 . S
C557 C555 1.415 1_554 S
C558 H548 0.930 . S
C558 C556 1.419 . S
C558 C559 1.362 1_556 S
C559 H549 0.930 . S
C559 C552 1.409 . S
C559 C558 1.362 1_554 S
H560 C566 0.930 . S
H561 C569 0.930 . S
H562 C570 0.930 . S
H563 C571 0.930 . S
H564 C574 0.930 . S
H565 C575 0.930 . S
C566 H560 0.930 . S
C566 C567 1.355 . S
C566 C568 1.415 . S
C567 C566 1.355 . S
C567 C569 1.419 . S
C568 C566 1.415 . S
C568 C573 1.425 . S
C568 C575 1.409 . S
C569 H561 0.930 . S
C569 C567 1.419 . S
C569 C570 1.362 . S
C570 H562 0.930 . S
C570 C569 1.362 . S
C570 C573 1.409 . S
C571 H563 0.930 . S
C571 C572 1.355 . S
C571 C573 1.415 1_556 S
C572 C571 1.355 . S
C572 C574 1.419 . S
C573 C568 1.425 . S
C573 C570 1.409 . S
C573 C571 1.415 1_554 S
C574 H564 0.930 . S
C574 C572 1.419 . S
C574 C575 1.362 1_556 S
C575 H565 0.930 . S
C575 C568 1.409 . S
C575 C574 1.362 1_554 S
H576 C582 0.930 . S
H577 C585 0.930 . S
H578 C586 0.930 . S
H579 C587 0.930 . S
H580 C590 0.930 . S
H581 C591 0.930 . S
C582 H576 0.930 . S
C582 C583 1.355 . S
C582 C584 1.415 . S
C583 C582 1.355 . S
C583 C585 1.419 . S
C584 C582 1.415 . S
C584 C589 1.425 . S
C584 C591 1.409 . S
C585 H577 0.930 . S
C585 C583 1.419 . S
C585 C586 1.362 . S
C586 H578 0.930 . S
C586 C585 1.362 . S
C586 C589 1.409 . S
C587 H579 0.930 . S
C587 C588 1.355 . S
C587 C589 1.415 1_556 S
C588 C587 1.355 . S
C588 C590 1.419 . S
C589 C584 1.425 . S
C589 C586 1.409 . S
C589 C587 1.415 1_554 S
C590 H580 0.930 . S
C590 C588 1.419 . S
C590 C591 1.362 1_556 S
C591 H581 0.930 . S
C591 C584 1.409 . S
C591 C590 1.362 1_554 S
H592 C598 0.930 . S
H593 C601 0.930 . S
H594 C602 0.930 . S
H595 C603 0.930 . S
H596 C606 0.930 . S
H597 C607 0.930 . S
C598 H592 0.930 . S
C598 C599 1.360 . S
C598 C600 1.415 . S
C599 C598 1.360 . S
C599 C601 1.413 1_655 S
C600 C598 1.415 . S
C600 C605 1.425 1_655 S
C600 C607 1.409 1_554 S
C601 H593 0.930 . S
C601 C599 1.413 1_455 S
C601 C602 1.362 . S
C602 H594 0.930 . S
C602 C601 1.362 . S
C602 C605 1.409 . S
C603 H595 0.930 . S
C603 C604 1.349 1_455 S
C603 C605 1.415 1_556 S
C604 C603 1.349 1_655 S
C604 C606 1.427 . S
C605 C600 1.425 1_455 S
C605 C602 1.409 . S
C605 C603 1.415 1_554 S
C606 H596 0.930 . S
C606 C604 1.427 . S
C606 C607 1.362 . S
C607 H597 0.930 . S
C607 C600 1.409 1_556 S
C607 C606 1.362 . S
H608 C614 0.930 . S
H609 C617 0.930 . S
H610 C618 0.930 . S
H611 C619 0.930 . S
H612 C622 0.930 . S
H613 C623 0.930 . S
C614 H608 0.930 . S
C614 C615 1.355 1_655 S
C614 C616 1.415 . S
C615 C614 1.355 1_455 S
C615 C617 1.419 . S
C616 C614 1.415 . S
C616 C621 1.425 . S
C616 C623 1.409 . S
C617 H609 0.930 . S
C617 C615 1.419 . S
C617 C618 1.362 . S
C618 H610 0.930 . S
C618 C617 1.362 . S
C618 C621 1.409 1_455 S
C619 H611 0.930 . S
C619 C620 1.355 . S
C619 C621 1.415 . S
C620 C619 1.355 . S
C620 C622 1.419 . S
C621 C616 1.425 . S
C621 C618 1.409 1_655 S
C621 C619 1.415 . S
C622 H612 0.930 . S
C622 C620 1.419 . S
C622 C623 1.362 . S
C623 H613 0.930 . S
C623 C616 1.409 . S
C623 C622 1.362 . S
H624 C630 0.930 . S
H625 C633 0.930 . S
H626 C634 0.930 . S
H627 C635 0.930 . S
H628 C638 0.928 1_545 S
H629 C639 0.930 . S
C630 H624 0.930 . S
C630 C631 1.356 1_545 S
C630 C632 1.415 1_545 S
C631 C630 1.356 1_565 S
C631 C633 1.415 . S
C632 C630 1.415 1_565 S
C632 C637 1.425 . S
C632 C639 1.409 1_565 S
C633 H625 0.930 . S
C633 C631 1.415 . S
C633 C634 1.362 . S
C634 H626 0.930 . S
C634 C633 1.362 . S
C634 C637 1.409 . S
C635 H627 0.930 . S
C635 C636 1.355 . S
C635 C637 1.415 . S
C636 C635 1.355 . S
C636 C638 1.419 . S
C637 C632 1.425 . S
C637 C634 1.409 . S
C637 C635 1.415 . S
C638 H628 0.928 1_565 S
C638 C636 1.419 . S
C638 C639 1.362 1_565 S
C639 H629 0.930 . S
C639 C632 1.409 1_545 S
C639 C638 1.362 1_545 S
H640 C646 0.930 . S
H641 C649 0.930 . S
H642 C650 0.930 . S
H643 C651 0.930 . S
H644 C654 0.930 . S
H645 C655 0.930 . S
C646 H640 0.930 . S
C646 C647 1.355 . S
C646 C648 1.415 . S
C647 C646 1.355 . S
C647 C649 1.419 . S
C648 C646 1.415 . S
C648 C653 1.425 . S
C648 C655 1.409 . S
C649 H641 0.930 . S
C649 C647 1.419 . S
C649 C650 1.362 . S
C650 H642 0.930 . S
C650 C649 1.362 . S
C650 C653 1.409 . S
C651 H643 0.930 . S
C651 C652 1.355 . S
C651 C653 1.415 . S
C652 C651 1.355 . S
C652 C654 1.419 . S
C653 C648 1.425 . S
C653 C650 1.409 . S
C653 C651 1.415 . S
C654 H644 0.930 . S
C654 C652 1.419 . S
C654 C655 1.362 . S
C655 H645 0.930 . S
C655 C648 1.409 . S
C655 C654 1.362 . S
H656 C662 0.930 . S
H657 C665 0.930 . S
H658 C666 0.930 . S
H659 C667 0.930 . S
H660 C670 0.930 . S
H661 C671 0.930 . S
C662 H656 0.930 . S
C662 C663 1.355 . S
C662 C664 1.415 . S
C663 C662 1.355 . S
C663 C665 1.419 . S
C664 C662 1.415 . S
C664 C669 1.425 . S
C664 C671 1.409 . S
C665 H657 0.930 . S
C665 C663 1.419 . S
C665 C666 1.362 . S
C666 H658 0.930 . S
C666 C665 1.362 . S
C666 C669 1.409 . S
C667 H659 0.930 . S
C667 C668 1.355 . S
C667 C669 1.415 . S
C668 C667 1.355 . S
C668 C670 1.419 . S
C669 C664 1.425 . S
C669 C666 1.409 . S
C669 C667 1.415 . S
C670 H660 0.930 . S
C670 C668 1.419 . S
C670 C671 1.362 . S
C671 H661 0.930 . S
C671 C664 1.409 . S
C671 C670 1.362 . S
H672 C678 0.928 1_655 S
H673 C681 0.930 . S
H674 C682 0.930 . S
H675 C683 0.930 . S
H676 C686 0.930 . S
H677 C687 0.930 . S
C678 H672 0.928 1_455 S
C678 C679 1.352 1_456 S
C678 C680 1.418 . S
C679 C678 1.352 1_654 S
C679 C681 1.400 1_655 S
C680 C678 1.418 . S
C680 C685 1.425 1_556 S
C680 C687 1.409 . S
C681 H673 0.930 . S
C681 C679 1.400 1_455 S
C681 C682 1.362 . S
C682 H674 0.930 . S
C682 C681 1.362 . S
C682 C685 1.409 . S
C683 H675 0.930 . S
C683 C684 1.355 1_554 S
C683 C685 1.415 . S
C684 C683 1.355 1_556 S
C684 C686 1.419 . S
C685 C680 1.425 1_554 S
C685 C682 1.409 . S
C685 C683 1.415 . S
C686 H676 0.930 . S
C686 C684 1.419 . S
C686 C687 1.362 . S
C687 H677 0.930 . S
C687 C680 1.409 . S
C687 C686 1.362 . S
H688 C694 0.930 1_556 S
H689 C697 0.930 . S
H690 C698 0.930 . S
H691 C699 0.930 . S
H692 C702 0.930 . S
H693 C703 0.930 1_565 S
C694 H688 0.930 1_554 S
C694 C695 1.354 . S
C694 C696 1.415 1_564 S
C695 C694 1.354 . S
C695 C697 1.423 1_565 S
C696 C694 1.415 1_546 S
C696 C701 1.425 1_556 S
C696 C703 1.409 . S
C697 H689 0.930 . S
C697 C695 1.423 1_545 S
C697 C698 1.362 . S
C698 H690 0.930 . S
C698 C697 1.362 . S
C698 C701 1.409 . S
C699 H691 0.930 . S
C699 C700 1.355 1_554 S
C699 C701 1.415 . S
C700 C699 1.355 1_556 S
C700 C702 1.419 . S
C701 C696 1.425 1_554 S
C701 C698 1.409 . S
C701 C699 1.415 . S
C702 H692 0.930 . S
C702 C700 1.419 . S
C702 C703 1.362 . S
C703 H693 0.930 1_545 S
C703 C696 1.409 . S
C703 C702 1.362 . S
H704 C710 0.930 1_556 S
H705 C713 0.930 . S
H706 C714 0.930 . S
H707 C715 0.930 . S
H708 C718 0.930 . S
H709 C719 0.930 . S
C710 H704 0.930 1_554 S
C710 C711 1.355 . S
C710 C712 1.415 1_554 S
C711 C710 1.355 . S
C711 C713 1.419 . S
C712 C710 1.415 1_556 S
C712 C717 1.425 1_556 S
C712 C719 1.409 . S
C713 H705 0.930 . S
C713 C711 1.419 . S
C713 C714 1.362 . S
C714 H706 0.930 . S
C714 C713 1.362 . S
C714 C717 1.409 . S
C715 H707 0.930 . S
C715 C716 1.355 1_554 S
C715 C717 1.415 . S
C716 C715 1.355 1_556 S
C716 C718 1.419 . S
C717 C712 1.425 1_554 S
C717 C714 1.409 . S
C717 C715 1.415 . S
C718 H708 0.930 . S
C718 C716 1.419 . S
C718 C719 1.362 . S
C719 H709 0.930 . S
C719 C712 1.409 . S
C719 C718 1.362 . S
H720 C726 0.930 . S
H721 C729 0.930 . S
H722 C730 0.930 . S
H723 C731 0.930 . S
H724 C734 0.930 . S
H725 C735 0.930 . S
C726 H720 0.930 . S
C726 C727 1.355 . S
C726 C728 1.415 . S
C727 C726 1.355 . S
C727 C729 1.419 . S
C728 C726 1.415 . S
C728 C733 1.425 1_554 S
C728 C735 1.409 . S
C729 H721 0.930 . S
C729 C727 1.419 . S
C729 C730 1.362 1_554 S
C730 H722 0.930 . S
C730 C729 1.362 1_556 S
C730 C733 1.409 . S
C731 H723 0.930 . S
C731 C732 1.355 . S
C731 C733 1.415 . S
C732 C731 1.355 . S
C732 C734 1.419 1_556 S
C733 C728 1.425 1_556 S
C733 C730 1.409 . S
C733 C731 1.415 . S
C734 H724 0.930 . S
C734 C732 1.419 1_554 S
C734 C735 1.362 . S
C735 H725 0.930 . S
C735 C728 1.409 . S
C735 C734 1.362 . S
H736 C742 0.930 . S
H737 C745 0.930 . S
H738 C746 0.930 . S
H739 C747 0.930 . S
H740 C750 0.930 . S
H741 C751 0.930 . S
C742 H736 0.930 . S
C742 C743 1.355 1_655 S
C742 C744 1.415 . S
C743 C742 1.355 1_455 S
C743 C745 1.419 . S
C744 C742 1.415 . S
C744 C749 1.425 1_655 S
C744 C751 1.409 . S
C745 H737 0.930 . S
C745 C743 1.419 . S
C745 C746 1.362 . S
C746 H738 0.930 . S
C746 C745 1.362 . S
C746 C749 1.409 . S
C747 H739 0.930 . S
C747 C748 1.355 . S
C747 C749 1.415 . S
C748 C747 1.355 . S
C748 C750 1.419 1_455 S
C749 C744 1.425 1_455 S
C749 C746 1.409 . S
C749 C747 1.415 . S
C750 H740 0.930 . S
C750 C748 1.419 1_655 S
C750 C751 1.362 . S
C751 H741 0.930 . S
C751 C744 1.409 . S
C751 C750 1.362 . S
H752 C758 0.942 . S
H753 C761 0.930 . S
H754 C762 0.930 . S
H755 C763 0.930 . S
H756 C766 0.925 1_565 S
H757 C767 0.939 . S
C758 H752 0.942 . S
C758 C759 1.349 1_565 S
C758 C760 1.410 1_565 S
C759 C758 1.349 1_545 S
C759 C761 1.419 . S
C760 C758 1.410 1_545 S
C760 C765 1.425 . S
C760 C767 1.405 1_545 S
C761 H753 0.930 . S
C761 C759 1.419 . S
C761 C762 1.362 . S
C762 H754 0.930 . S
C762 C761 1.362 . S
C762 C765 1.409 . S
C763 H755 0.930 . S
C763 C764 1.355 . S
C763 C765 1.415 . S
C764 C763 1.355 . S
C764 C766 1.419 . S
C765 C760 1.425 . S
C765 C762 1.409 . S
C765 C763 1.415 . S
C766 H756 0.925 1_545 S
C766 C764 1.419 . S
C766 C767 1.359 1_545 S
C767 H757 0.939 . S
C767 C760 1.405 1_565 S
C767 C766 1.359 1_565 S
H768 C774 0.930 . S
H769 C777 0.930 . S
H770 C778 0.930 . S
H771 C779 0.930 . S
H772 C782 0.930 . S
H773 C783 0.930 . S
C774 H768 0.930 . S
C774 C775 1.355 . S
C774 C776 1.415 . S
C775 C774 1.355 . S
C775 C777 1.419 . S
C776 C774 1.415 . S
C776 C781 1.425 . S
C776 C783 1.409 . S
C777 H769 0.930 . S
C777 C775 1.419 . S
C777 C778 1.362 . S
C778 H770 0.930 . S
C778 C777 1.362 . S
C778 C781 1.409 . S
C779 H771 0.930 . S
C779 C780 1.355 . S
C779 C781 1.415 . S
C780 C779 1.355 . S
C780 C782 1.419 . S
C781 C776 1.425 . S
C781 C778 1.409 . S
C781 C779 1.415 . S
C782 H772 0.930 . S
C782 C780 1.419 . S
C782 C783 1.362 . S
C783 H773 0.930 . S
C783 C776 1.409 . S
C783 C782 1.362 . S
H784 C790 0.930 . S
H785 C793 0.930 . S
H786 C794 0.930 . S
H787 C795 0.930 . S
H788 C798 0.930 . S
H789 C799 0.930 . S
C790 H784 0.930 . S
C790 C791 1.355 . S
C790 C792 1.415 . S
C791 C790 1.355 . S
C791 C793 1.419 . S
C792 C790 1.415 . S
C792 C797 1.425 . S
C792 C799 1.409 . S
C793 H785 0.930 . S
C793 C791 1.419 . S
C793 C794 1.362 . S
C794 H786 0.930 . S
C794 C793 1.362 . S
C794 C797 1.409 . S
C795 H787 0.930 . S
C795 C796 1.355 . S
C795 C797 1.415 . S
C796 C795 1.355 . S
C796 C798 1.419 . S
C797 C792 1.425 . S
C797 C794 1.409 . S
C797 C795 1.415 . S
C798 H788 0.930 . S
C798 C796 1.419 . S
C798 C799 1.362 . S
C799 H789 0.930 . S
C799 C792 1.409 . S
C799 C798 1.362 . S
H800 C806 0.930 . S
H801 C809 0.930 . S
H802 C810 0.930 . S
H803 C811 0.930 . S
H804 C814 0.930 . S
H805 C815 0.930 . S
C806 H800 0.930 . S
C806 C807 1.355 1_455 S
C806 C808 1.415 . S
C807 C806 1.355 1_655 S
C807 C809 1.419 . S
C808 C806 1.415 . S
C808 C813 1.425 1_455 S
C808 C815 1.409 . S
C809 H801 0.930 . S
C809 C807 1.419 . S
C809 C810 1.362 . S
C810 H802 0.930 . S
C810 C809 1.362 . S
C810 C813 1.409 . S
C811 H803 0.930 . S
C811 C812 1.355 . S
C811 C813 1.415 . S
C812 C811 1.355 . S
C812 C814 1.419 1_655 S
C813 C808 1.425 1_655 S
C813 C810 1.409 . S
C813 C811 1.415 . S
C814 H804 0.930 . S
C814 C812 1.419 1_455 S
C814 C815 1.362 . S
C815 H805 0.930 . S
C815 C808 1.409 . S
C815 C814 1.362 . S
H816 C822 0.930 . S
H817 C825 0.926 1_545 S
H818 C826 0.930 1_545 S
H819 C827 0.930 . S
H820 C830 0.930 . S
H821 C831 0.930 . S
C822 H816 0.930 . S
C822 C823 1.355 . S
C822 C824 1.415 . S
C823 C822 1.355 . S
C823 C825 1.422 . S
C824 C822 1.415 . S
C824 C829 1.425 . S
C824 C831 1.409 . S
C825 H817 0.926 1_565 S
C825 C823 1.422 . S
C825 C826 1.363 . S
C826 H818 0.930 1_565 S
C826 C825 1.363 . S
C826 C829 1.409 . S
C827 H819 0.930 . S
C827 C828 1.355 . S
C827 C829 1.415 . S
C828 C827 1.355 . S
C828 C830 1.419 . S
C829 C824 1.425 . S
C829 C826 1.409 . S
C829 C827 1.415 . S
C830 H820 0.930 . S
C830 C828 1.419 . S
C830 C831 1.362 . S
C831 H821 0.930 . S
C831 C824 1.409 . S
C831 C830 1.362 . S
H832 C838 0.930 . S
H833 C841 0.930 . S
H834 C842 0.930 . S
H835 C843 0.930 . S
H836 C846 0.930 . S
H837 C847 0.930 . S
C838 H832 0.930 . S
C838 C839 1.355 . S
C838 C840 1.415 . S
C839 C838 1.355 . S
C839 C841 1.419 . S
C840 C838 1.415 . S
C840 C845 1.425 . S
C840 C847 1.409 . S
C841 H833 0.930 . S
C841 C839 1.419 . S
C841 C842 1.362 . S
C842 H834 0.930 . S
C842 C841 1.362 . S
C842 C845 1.409 . S
C843 H835 0.930 . S
C843 C844 1.355 . S
C843 C845 1.415 . S
C844 C843 1.355 . S
C844 C846 1.419 . S
C845 C840 1.425 . S
C845 C842 1.409 . S
C845 C843 1.415 . S
C846 H836 0.930 . S
C846 C844 1.419 . S
C846 C847 1.362 . S
C847 H837 0.930 . S
C847 C840 1.409 . S
C847 C846 1.362 . S
H848 C854 0.930 . S
H849 C857 0.930 . S
H850 C858 0.930 . S
H851 C859 0.930 . S
H852 C862 0.930 . S
H853 C863 0.930 . S
C854 H848 0.930 . S
C854 C855 1.355 . S
C854 C856 1.415 . S
C855 C854 1.355 . S
C855 C857 1.419 . S
C856 C854 1.415 . S
C856 C861 1.425 . S
C856 C863 1.409 . S
C857 H849 0.930 . S
C857 C855 1.419 . S
C857 C858 1.362 . S
C858 H850 0.930 . S
C858 C857 1.362 . S
C858 C861 1.409 . S
C859 H851 0.930 . S
C859 C860 1.355 . S
C859 C861 1.415 . S
C860 C859 1.355 . S
C860 C862 1.419 . S
C861 C856 1.425 . S
C861 C858 1.409 . S
C861 C859 1.415 . S
C862 H852 0.930 . S
C862 C860 1.419 . S
C862 C863 1.362 . S
C863 H853 0.930 . S
C863 C856 1.409 . S
C863 C862 1.362 . S
C487 C255 2.360 . S
C492 C329 2.648 . S
C508 C369 2.672 . S
C503 C295 2.406 . S
C524 C409 2.691 . S
C519 C175 2.450 . S
C540 C449 2.658 . S
C535 C215 2.397 . S
C556 C338 2.661 1_565 S
C551 C95 2.379 . S
C567 C135 2.381 . S
C572 C378 2.670 . S
C583 C15 2.431 . S
C588 C418 2.691 . S
C599 C55 2.430 1_655 S
C604 C458 2.668 1_655 S
C620 C335 0.634 . S
C615 C221 0.601 . S
C636 C375 0.444 . S
C631 C261 0.493 1_565 S
C652 C415 0.473 . S
C647 C301 0.427 . S
C663 C181 0.432 . S
C668 C455 0.549 . S
C679 C61 0.452 1_655 S
C684 C326 0.466 . S
C700 C366 0.449 . S
C695 C101 0.469 1_565 S
C716 C406 0.449 . S
C711 C141 0.454 . S
C727 C21 0.606 . S
C732 C446 0.507 . S
C743 C202 3.319 . S
C748 C339 3.728 . S
C759 C242 3.286 . S
C764 C379 3.705 . S
C780 C419 3.694 . S
C775 C282 3.267 . S
C796 C459 3.732 . S
C791 C162 3.302 . S
C807 C42 3.393 1_655 S
C812 C330 3.753 . S
C828 C370 3.703 . S
C823 C82 3.304 1_565 S
C844 C410 3.688 . S
C839 C122 3.329 . S
C855 C2 3.387 . S
C860 C450 3.748 . S
