# Generated by pormake.
# Topology fgl, (4,4)-cn, num edge types: 1
# Building blocks:
#     Node 0, Type 0, BuildingBlock: ESEHIV_clean_sbu_0, # of connection points: 4
#     Node 1, Type 0, BuildingBlock: ESEHIV_clean_sbu_0, # of connection points: 4
#     Node 2, Type 0, BuildingBlock: ESEHIV_clean_sbu_0, # of connection points: 4
#     Node 3, Type 0, BuildingBlock: ESEHIV_clean_sbu_0, # of connection points: 4
#     Node 4, Type 0, BuildingBlock: ESEHIV_clean_sbu_0, # of connection points: 4
#     Node 5, Type 0, BuildingBlock: ESEHIV_clean_sbu_0, # of connection points: 4
#     Node 6, Type 0, BuildingBlock: ESEHIV_clean_sbu_0, # of connection points: 4
#     Node 7, Type 0, BuildingBlock: ESEHIV_clean_sbu_0, # of connection points: 4
#     Node 8, Type 0, BuildingBlock: ESEHIV_clean_sbu_0, # of connection points: 4
#     Node 9, Type 0, BuildingBlock: ESEHIV_clean_sbu_0, # of connection points: 4
#     Node 10, Type 0, BuildingBlock: ESEHIV_clean_sbu_0, # of connection points: 4
#     Node 11, Type 0, BuildingBlock: ESEHIV_clean_sbu_0, # of connection points: 4
#     Node 12, Type 0, BuildingBlock: ESEHIV_clean_sbu_0, # of connection points: 4
#     Node 13, Type 0, BuildingBlock: ESEHIV_clean_sbu_0, # of connection points: 4
#     Node 14, Type 0, BuildingBlock: ESEHIV_clean_sbu_0, # of connection points: 4
#     Node 15, Type 0, BuildingBlock: ESEHIV_clean_sbu_0, # of connection points: 4
#     Node 16, Type 0, BuildingBlock: ESEHIV_clean_sbu_0, # of connection points: 4
#     Node 17, Type 0, BuildingBlock: ESEHIV_clean_sbu_0, # of connection points: 4
#     Node 18, Type 1, BuildingBlock: TATPOV_clean_sbu_0, # of connection points: 4
#     Node 19, Type 1, BuildingBlock: TATPOV_clean_sbu_0, # of connection points: 4
#     Node 20, Type 1, BuildingBlock: TATPOV_clean_sbu_0, # of connection points: 4
#     Node 21, Type 1, BuildingBlock: TATPOV_clean_sbu_0, # of connection points: 4
#     Node 22, Type 1, BuildingBlock: TATPOV_clean_sbu_0, # of connection points: 4
#     Node 23, Type 1, BuildingBlock: TATPOV_clean_sbu_0, # of connection points: 4
#     Node 24, Type 1, BuildingBlock: TATPOV_clean_sbu_0, # of connection points: 4
#     Node 25, Type 1, BuildingBlock: TATPOV_clean_sbu_0, # of connection points: 4
#     Node 26, Type 1, BuildingBlock: TATPOV_clean_sbu_0, # of connection points: 4
#     Node 27, Type 1, BuildingBlock: TATPOV_clean_sbu_0, # of connection points: 4
#     Node 28, Type 1, BuildingBlock: TATPOV_clean_sbu_0, # of connection points: 4
#     Node 29, Type 1, BuildingBlock: TATPOV_clean_sbu_0, # of connection points: 4
#     Node 30, Type 1, BuildingBlock: TATPOV_clean_sbu_0, # of connection points: 4
#     Node 31, Type 1, BuildingBlock: TATPOV_clean_sbu_0, # of connection points: 4
#     Node 32, Type 1, BuildingBlock: TATPOV_clean_sbu_0, # of connection points: 4
#     Node 33, Type 1, BuildingBlock: TATPOV_clean_sbu_0, # of connection points: 4
#     Node 34, Type 1, BuildingBlock: TATPOV_clean_sbu_0, # of connection points: 4
#     Node 35, Type 1, BuildingBlock: TATPOV_clean_sbu_0, # of connection points: 4
#     Edge 36, Type (0, 1), BuildingBlock: XIVTED_clean_linker_0, # of connection points: 2
#     Edge 37, Type (0, 1), BuildingBlock: XIVTED_clean_linker_0, # of connection points: 2
#     Edge 38, Type (0, 1), BuildingBlock: XIVTED_clean_linker_0, # of connection points: 2
#     Edge 39, Type (0, 1), BuildingBlock: XIVTED_clean_linker_0, # of connection points: 2
#     Edge 40, Type (0, 1), BuildingBlock: XIVTED_clean_linker_0, # of connection points: 2
#     Edge 41, Type (0, 1), BuildingBlock: XIVTED_clean_linker_0, # of connection points: 2
#     Edge 42, Type (0, 1), BuildingBlock: XIVTED_clean_linker_0, # of connection points: 2
#     Edge 43, Type (0, 1), BuildingBlock: XIVTED_clean_linker_0, # of connection points: 2
#     Edge 44, Type (0, 1), BuildingBlock: XIVTED_clean_linker_0, # of connection points: 2
#     Edge 45, Type (0, 1), BuildingBlock: XIVTED_clean_linker_0, # of connection points: 2
#     Edge 46, Type (0, 1), BuildingBlock: XIVTED_clean_linker_0, # of connection points: 2
#     Edge 47, Type (0, 1), BuildingBlock: XIVTED_clean_linker_0, # of connection points: 2
#     Edge 48, Type (0, 1), BuildingBlock: XIVTED_clean_linker_0, # of connection points: 2
#     Edge 49, Type (0, 1), BuildingBlock: XIVTED_clean_linker_0, # of connection points: 2
#     Edge 50, Type (0, 1), BuildingBlock: XIVTED_clean_linker_0, # of connection points: 2
#     Edge 51, Type (0, 1), BuildingBlock: XIVTED_clean_linker_0, # of connection points: 2
#     Edge 52, Type (0, 1), BuildingBlock: XIVTED_clean_linker_0, # of connection points: 2
#     Edge 53, Type (0, 1), BuildingBlock: XIVTED_clean_linker_0, # of connection points: 2
#     Edge 54, Type (0, 1), BuildingBlock: XIVTED_clean_linker_0, # of connection points: 2
#     Edge 55, Type (0, 1), BuildingBlock: XIVTED_clean_linker_0, # of connection points: 2
#     Edge 56, Type (0, 1), BuildingBlock: XIVTED_clean_linker_0, # of connection points: 2
#     Edge 57, Type (0, 1), BuildingBlock: XIVTED_clean_linker_0, # of connection points: 2
#     Edge 58, Type (0, 1), BuildingBlock: XIVTED_clean_linker_0, # of connection points: 2
#     Edge 59, Type (0, 1), BuildingBlock: XIVTED_clean_linker_0, # of connection points: 2
#     Edge 60, Type (0, 1), BuildingBlock: XIVTED_clean_linker_0, # of connection points: 2
#     Edge 61, Type (0, 1), BuildingBlock: XIVTED_clean_linker_0, # of connection points: 2
#     Edge 62, Type (0, 1), BuildingBlock: XIVTED_clean_linker_0, # of connection points: 2
#     Edge 63, Type (0, 1), BuildingBlock: XIVTED_clean_linker_0, # of connection points: 2
#     Edge 64, Type (0, 1), BuildingBlock: XIVTED_clean_linker_0, # of connection points: 2
#     Edge 65, Type (0, 1), BuildingBlock: XIVTED_clean_linker_0, # of connection points: 2
#     Edge 66, Type (0, 1), BuildingBlock: XIVTED_clean_linker_0, # of connection points: 2
#     Edge 67, Type (0, 1), BuildingBlock: XIVTED_clean_linker_0, # of connection points: 2
#     Edge 68, Type (0, 1), BuildingBlock: XIVTED_clean_linker_0, # of connection points: 2
#     Edge 69, Type (0, 1), BuildingBlock: XIVTED_clean_linker_0, # of connection points: 2
#     Edge 70, Type (0, 1), BuildingBlock: XIVTED_clean_linker_0, # of connection points: 2
#     Edge 71, Type (0, 1), BuildingBlock: XIVTED_clean_linker_0, # of connection points: 2
#     Edge 72, Type (0, 1), BuildingBlock: XIVTED_clean_linker_0, # of connection points: 2
#     Edge 73, Type (0, 1), BuildingBlock: XIVTED_clean_linker_0, # of connection points: 2
#     Edge 74, Type (0, 1), BuildingBlock: XIVTED_clean_linker_0, # of connection points: 2
#     Edge 75, Type (0, 1), BuildingBlock: XIVTED_clean_linker_0, # of connection points: 2
#     Edge 76, Type (0, 1), BuildingBlock: XIVTED_clean_linker_0, # of connection points: 2
#     Edge 77, Type (0, 1), BuildingBlock: XIVTED_clean_linker_0, # of connection points: 2
#     Edge 78, Type (0, 1), BuildingBlock: XIVTED_clean_linker_0, # of connection points: 2
#     Edge 79, Type (0, 1), BuildingBlock: XIVTED_clean_linker_0, # of connection points: 2
#     Edge 80, Type (0, 1), BuildingBlock: XIVTED_clean_linker_0, # of connection points: 2
#     Edge 81, Type (0, 1), BuildingBlock: XIVTED_clean_linker_0, # of connection points: 2
#     Edge 82, Type (0, 1), BuildingBlock: XIVTED_clean_linker_0, # of connection points: 2
#     Edge 83, Type (0, 1), BuildingBlock: XIVTED_clean_linker_0, # of connection points: 2
#     Edge 84, Type (0, 1), BuildingBlock: XIVTED_clean_linker_0, # of connection points: 2
#     Edge 85, Type (0, 1), BuildingBlock: XIVTED_clean_linker_0, # of connection points: 2
#     Edge 86, Type (0, 1), BuildingBlock: XIVTED_clean_linker_0, # of connection points: 2
#     Edge 87, Type (0, 1), BuildingBlock: XIVTED_clean_linker_0, # of connection points: 2
#     Edge 88, Type (0, 1), BuildingBlock: XIVTED_clean_linker_0, # of connection points: 2
#     Edge 89, Type (0, 1), BuildingBlock: XIVTED_clean_linker_0, # of connection points: 2
#     Edge 90, Type (0, 1), BuildingBlock: XIVTED_clean_linker_0, # of connection points: 2
#     Edge 91, Type (0, 1), BuildingBlock: XIVTED_clean_linker_0, # of connection points: 2
#     Edge 92, Type (0, 1), BuildingBlock: XIVTED_clean_linker_0, # of connection points: 2
#     Edge 93, Type (0, 1), BuildingBlock: XIVTED_clean_linker_0, # of connection points: 2
#     Edge 94, Type (0, 1), BuildingBlock: XIVTED_clean_linker_0, # of connection points: 2
#     Edge 95, Type (0, 1), BuildingBlock: XIVTED_clean_linker_0, # of connection points: 2
#     Edge 96, Type (0, 1), BuildingBlock: XIVTED_clean_linker_0, # of connection points: 2
#     Edge 97, Type (0, 1), BuildingBlock: XIVTED_clean_linker_0, # of connection points: 2
#     Edge 98, Type (0, 1), BuildingBlock: XIVTED_clean_linker_0, # of connection points: 2
#     Edge 99, Type (0, 1), BuildingBlock: XIVTED_clean_linker_0, # of connection points: 2
#     Edge 100, Type (0, 1), BuildingBlock: XIVTED_clean_linker_0, # of connection points: 2
#     Edge 101, Type (0, 1), BuildingBlock: XIVTED_clean_linker_0, # of connection points: 2
#     Edge 102, Type (0, 1), BuildingBlock: XIVTED_clean_linker_0, # of connection points: 2
#     Edge 103, Type (0, 1), BuildingBlock: XIVTED_clean_linker_0, # of connection points: 2
#     Edge 104, Type (0, 1), BuildingBlock: XIVTED_clean_linker_0, # of connection points: 2
#     Edge 105, Type (0, 1), BuildingBlock: XIVTED_clean_linker_0, # of connection points: 2
#     Edge 106, Type (0, 1), BuildingBlock: XIVTED_clean_linker_0, # of connection points: 2
#     Edge 107, Type (0, 1), BuildingBlock: XIVTED_clean_linker_0, # of connection points: 2
# Relax obj value: 0.032
# Max RMSD: 0.135
# Mean RMSD: 0.102
data_MOF--net-fgl--node1-ESEHIV_clean_sbu_0--node2-TATPOV_clean_sbu_0--edge1-XIVTED_clean_linker_0
_symmetry_space_group_name_H-M    P1
_symmetry_Int_Tables_number       1
_symmetry_cell_setting            triclinic
loop_
_symmetry_equiv_pos_as_xyz
'x, y, z'
_cell_length_a     74.120127
_cell_length_b     76.720921
_cell_length_c     51.657877
_cell_angle_alpha  90.049503
_cell_angle_beta   90.278541
_cell_angle_gamma 119.89178
loop_
_atom_site_label
_atom_site_type_symbol
_atom_site_fract_x
_atom_site_fract_y
_atom_site_fract_z
_atom_type_partial_charge
Cu0 Cu 0.0237 0.54117 0.98767 0.0
N1 N 0.04104 0.5582 0.0137 0.0
N2 N 0.05005 0.57874 0.04797 0.0
C3 C 0.03762 0.5714 0.0269 0.0
C4 C 0.06182 0.56984 0.04797 0.0
C5 C 0.05621 0.55714 0.02677 0.0
O6 O 1.00133 0.54695 0.98318 0.0
C7 C 0.00533 0.50702 0.01969 0.0
O8 O 1.00131 0.51839 0.0349 0.0
H9 H 0.02525 0.57449 0.02212 0.0
H10 H 0.06194 0.54704 0.02203 0.0
N11 N 0.03733 0.54489 0.95618 0.0
N12 N 0.04204 0.53759 0.91578 0.0
C13 C 0.03041 0.53093 0.93735 0.0
C14 C 0.05419 0.56101 0.94642 0.0
C15 C 0.05722 0.55648 0.92141 0.0
C16 C 0.9883 0.54038 0.96459 0.0
O17 O 0.98827 0.52715 0.94842 0.0
H18 H 0.01696 0.5161 0.93947 0.0
H19 H 0.06335 0.57512 0.95655 0.0
O20 O 0.01393 0.51384 0.99802 0.0
H21 H 0.07323 0.5719 0.06261 0.0
H22 H 0.06924 0.56646 0.90821 0.0
Cu23 Cu 0.52583 0.55627 0.02005 0.0
N24 N 0.52804 0.56348 0.98333 0.0
N25 N 0.54066 0.5752 0.94396 0.0
C26 C 0.54501 0.57145 0.96809 0.0
C27 C 0.52014 0.56917 0.94409 0.0
C28 C 0.51243 0.56199 0.96838 0.0
O29 O 0.54315 0.58613 0.02982 0.0
C30 C 0.50936 0.51185 0.01845 0.0
O31 O 0.52411 0.51515 0.03523 0.0
H32 H 0.56018 0.57439 0.97445 0.0
H33 H 0.49663 0.55637 0.97486 0.0
N34 N 0.52324 0.54917 0.05688 0.0
N35 N 0.50992 0.53511 0.0951 0.0
C36 C 0.50581 0.53656 0.0699 0.0
C37 C 0.53883 0.55593 0.07433 0.0
C38 C 0.53065 0.54734 0.09793 0.0
C39 C 0.56292 0.59617 0.02793 0.0
O40 O 0.57296 0.58705 0.02019 0.0
H41 H 0.4905 0.5286 0.06108 0.0
H42 H 0.55502 0.56622 0.07013 0.0
O43 O 0.50763 0.52655 1.00987 0.0
H44 H 0.51144 0.57043 0.92802 0.0
H45 H 0.53939 0.54954 0.11566 0.0
Cu46 Cu 0.52181 0.07898 0.0629 0.0
N47 N 0.51277 0.09377 0.04398 0.0
N48 N 0.49495 0.09881 0.01296 0.0
C49 C 0.49611 0.08521 0.02822 0.0
C50 C 0.51146 0.11674 0.01941 0.0
C51 C 0.52242 0.11359 0.03877 0.0
O52 O 0.49726 0.05303 0.06998 0.0
C53 C 0.55852 0.09171 0.0352 0.0
O54 O 0.56184 0.10938 0.04294 0.0
H55 H 0.48599 0.0691 0.02653 0.0
H56 H 0.53701 0.12479 0.04725 0.0
N57 N 0.53397 0.09121 0.09425 0.0
N58 N 0.54436 0.09262 0.13515 0.0
C59 C 0.53836 0.08182 0.11303 0.0
C60 C 0.53752 0.10876 0.10463 0.0
C61 C 0.54414 0.10975 0.12993 0.0
C62 C 0.4862 0.05118 0.08971 0.0
O63 O 0.492 0.06664 0.10527 0.0
H64 H 0.53664 0.06706 0.11058 0.0
H65 H 0.53472 0.11967 0.09491 0.0
O66 O 0.54193 0.07601 0.04219 0.0
H67 H 0.51576 0.13089 0.01005 0.0
H68 H 0.54773 0.12174 0.14363 0.0
Cu69 Cu 0.52087 0.04968 0.54369 0.0
N70 N 0.547 0.06684 0.52973 0.0
N71 N 0.57403 0.07934 0.50284 0.0
C72 C 0.55545 0.06331 0.50881 0.0
C73 C 0.57735 0.09352 0.52067 0.0
C74 C 0.56063 0.08573 0.53728 0.0
O75 O 0.50908 0.02208 0.53101 0.0
C76 C 0.49933 0.0637 0.51048 0.0
O77 O 0.50869 0.06022 0.49129 0.0
H78 H 0.54781 0.04945 0.49777 0.0
H79 H 0.55836 0.09338 0.55346 0.0
N80 N 0.52117 0.04985 0.57977 0.0
N81 N 0.50876 0.04729 0.61982 0.0
C82 C 0.50419 0.04442 0.59429 0.0
C83 C 0.53718 0.05643 0.59659 0.0
C84 C 0.52956 0.05485 0.62136 0.0
C85 C 0.51232 0.00721 0.53279 0.0
O86 O 0.49891 0.99048 0.521 0.0
H87 H 0.4889 0.03925 0.58604 0.0
H88 H 0.55329 0.06239 0.59122 0.0
O89 O 0.50241 0.05992 0.53359 0.0
H90 H 0.59083 0.10845 0.52158 0.0
H91 H 0.53869 0.05916 0.63902 0.0
Cu92 Cu 0.02821 0.54536 0.48812 0.0
N93 N 0.0445 0.53616 0.50458 0.0
N94 N 0.05013 0.51828 0.53469 0.0
C95 C 0.03906 0.52721 0.52787 0.0
C96 C 0.06349 0.52216 0.51492 0.0
C97 C 0.0599 0.5331 0.49628 0.0
O98 O 1.00056 0.52211 0.49181 0.0
C99 C 0.04984 0.58212 0.51341 0.0
O100 O 0.06541 0.57894 0.50902 0.0
H101 H 0.0265 0.52663 0.53909 0.0
H102 H 0.06726 0.53758 0.47758 0.0
N103 N 0.03475 0.55305 0.45335 0.0
N104 N 0.03637 0.56871 0.416 0.0
C105 C 0.03114 0.56663 0.44132 0.0
C106 C 0.04263 0.54628 0.43506 0.0
C107 C 0.04361 0.55588 0.41202 0.0
C108 C 0.99262 0.50876 0.47415 0.0
O109 O 0.99811 0.51408 0.45004 0.0
H110 H 0.02427 0.57445 0.45093 0.0
H111 H 0.04695 0.53489 0.43809 0.0
O112 O 0.03154 0.56885 0.50653 0.0
H113 H 0.07427 0.51658 0.51333 0.0
H114 H 0.04927 0.55356 0.3938 0.0
Cu115 Cu 0.52925 0.53111 0.52637 0.0
N116 N 0.55237 0.53003 0.51476 0.0
N117 N 0.58541 0.54258 0.50278 0.0
C118 C 0.57207 0.54494 0.51802 0.0
C119 C 0.57365 0.52538 0.48947 0.0
C120 C 0.5532 0.51757 0.49705 0.0
O121 O 0.53776 0.55158 0.5526 0.0
C122 C 0.5228 0.54161 0.47529 0.0
O123 O 0.54285 0.54897 0.47185 0.0
H124 H 0.57625 0.55826 0.52949 0.0
H125 H 0.53974 0.50466 0.48876 0.0
N126 N 0.50991 0.50731 0.54168 0.0
N127 N 0.47868 0.48456 0.55631 0.0
C128 C 0.48952 0.50115 0.54182 0.0
C129 C 0.5123 0.49427 0.55669 0.0
C130 C 0.49293 0.48011 0.56578 0.0
C131 C 0.54593 0.57027 0.54824 0.0
O132 O 0.54848 0.5767 0.52425 0.0
H133 H 0.48293 0.50926 0.53222 0.0
H134 H 0.52706 0.49529 0.56119 0.0
O135 O 0.51499 0.53514 0.49749 0.0
H136 H 0.57923 0.51952 0.47435 0.0
H137 H 0.48963 0.46762 0.57838 0.0
Cu138 Cu 0.71196 0.8965 0.347 0.0
N139 N 0.72757 0.92359 0.33926 0.0
N140 N 0.73056 0.953 0.32848 0.0
C141 C 0.71994 0.93296 0.32482 0.0
C142 C 0.74565 0.95644 0.34583 0.0
C143 C 0.74376 0.93818 0.35248 0.0
O144 O 0.69508 0.89593 0.3766 0.0
C145 C 0.70813 0.88583 0.29514 0.0
O146 O 0.72782 0.89989 0.29644 0.0
H147 H 0.70535 0.92501 0.31431 0.0
H148 H 0.75218 0.93557 0.36774 0.0
N149 N 0.72879 0.88592 0.3561 0.0
N150 N 0.73672 0.86232 0.36642 0.0
C151 C 0.72148 0.86697 0.36415 0.0
C152 C 0.7494 0.89365 0.353 0.0
C153 C 0.75437 0.87908 0.35944 0.0
C154 C 0.70351 0.90003 0.3991 0.0
O155 O 0.72184 0.90154 0.40208 0.0
H156 H 0.7051 0.85654 0.36713 0.0
H157 H 0.75991 0.90855 0.34575 0.0
O158 O 0.69707 0.88186 0.31554 0.0
H159 H 0.7562 0.97087 0.35454 0.0
H160 H 0.76969 0.88063 0.35872 0.0
Cu161 Cu 0.17744 0.89505 0.36608 0.0
N162 N 0.15269 0.88001 0.34778 0.0
N163 N 0.12862 0.85284 0.32677 0.0
C164 C 0.14374 0.85997 0.34492 0.0
C165 C 0.12789 0.86904 0.31796 0.0
C166 C 0.14276 0.88582 0.33103 0.0
O167 O 0.17479 0.87934 0.39719 0.0
C168 C 0.20221 0.91319 0.3244 0.0
O169 O 0.18945 0.9204 0.32426 0.0
H170 H 0.14948 0.85107 0.35435 0.0
H171 H 0.14697 0.90123 0.3272 0.0
N172 N 0.18212 0.92034 0.37664 0.0
N173 N 0.2009 0.95201 0.39072 0.0
C174 C 0.20025 0.93431 0.38712 0.0
C175 C 0.17072 0.92945 0.37358 0.0
C176 C 0.18235 0.9491 0.38219 0.0
C177 C 0.16224 0.87946 0.41396 0.0
O178 O 0.15335 0.89028 0.40932 0.0
H179 H 0.21306 0.93169 0.39106 0.0
H180 H 0.15527 0.92249 0.36523 0.0
O181 O 0.20001 0.90049 0.34186 0.0
H182 H 0.11809 0.8689 0.30225 0.0
H183 H 0.17758 0.96034 0.38215 0.0
Cu184 Cu 0.18246 0.37212 0.33972 0.0
N185 N 0.17341 0.37296 0.30641 0.0
N186 N 0.16628 0.38314 0.26933 0.0
C187 C 0.16999 0.38682 0.29496 0.0
C188 C 0.16729 0.36634 0.26467 0.0
C189 C 0.17178 0.36018 0.28753 0.0
O190 O 0.16053 0.35145 0.36072 0.0
C191 C 0.22124 0.38343 0.32162 0.0
O192 O 0.21781 0.39734 0.31188 0.0
H193 H 0.17084 0.39959 0.30502 0.0
H194 H 0.17412 0.34747 0.29022 0.0
N195 N 0.19014 0.39537 0.35872 0.0
N196 N 0.20287 0.41001 0.3971 0.0
C197 C 0.20592 0.40169 0.37576 0.0
C198 C 0.17685 0.40053 0.36916 0.0
C199 C 0.18466 0.40955 0.39289 0.0
C200 C 0.14147 0.34206 0.35383 0.0
O201 O 0.13666 0.34187 0.3293 0.0
H202 H 0.21723 0.3967 0.37486 0.0
H203 H 0.16114 0.39513 0.36221 0.0
O204 O 0.20724 0.36978 0.33568 0.0
H205 H 0.16477 0.3589 0.24611 0.0
H206 H 0.17631 0.41302 0.40725 0.0
Cu207 Cu 0.17624 0.35493 0.85746 0.0
N208 N 0.17404 0.33866 0.82942 0.0
N209 N 0.18361 0.33107 0.79206 0.0
C210 C 0.19006 0.34193 0.81414 0.0
C211 C 0.16266 0.32023 0.7938 0.0
C212 C 0.15679 0.32495 0.81691 0.0
O213 O 0.20179 0.36144 0.87633 0.0
C214 C 0.17243 0.38135 0.82109 0.0
O215 O 0.17833 0.37299 0.80337 0.0
H216 H 0.20595 0.35355 0.81802 0.0
H217 H 0.14106 0.31988 0.82322 0.0
N218 N 0.15401 0.34197 0.88018 0.0
N219 N 0.13163 0.33946 0.91077 0.0
C220 C 0.14834 0.35197 0.89657 0.0
C221 C 0.14044 0.32235 0.88401 0.0
C222 C 0.12663 0.32074 0.90303 0.0
C223 C 0.20214 0.3466 0.88697 0.0
O224 O 0.18563 0.32865 0.88471 0.0
H225 H 0.15657 0.36819 0.89816 0.0
H226 H 0.14055 0.31012 0.8737 0.0
O227 O 0.17357 0.37763 0.84494 0.0
H228 H 0.15225 0.31041 0.77887 0.0
H229 H 0.11376 0.30691 0.91027 0.0
Cu230 Cu 0.66623 0.87821 0.84449 0.0
N231 N 0.64433 0.85238 0.83761 0.0
N232 N 0.62941 0.81973 0.82808 0.0
C233 C 0.64694 0.83631 0.83576 0.0
C234 C 0.61508 0.82552 0.82498 0.0
C235 C 0.62429 0.8457 0.83117 0.0
O236 O 0.68461 0.87395 0.8685 0.0
C237 C 0.6636 0.89487 0.7983 0.0
O238 O 0.64521 0.88834 0.80866 0.0
H239 H 0.66181 0.83706 0.8385 0.0
H240 H 0.61707 0.85493 0.83011 0.0
N241 N 0.65741 0.89373 0.86226 0.0
N242 N 0.66016 0.92073 0.88214 0.0
C243 C 0.66976 0.9134 0.86732 0.0
C244 C 0.63922 0.8884 0.87404 0.0
C245 C 0.64094 0.90507 0.88653 0.0
C246 C 0.67649 0.86731 0.89075 0.0
O247 O 0.65788 0.86465 0.89533 0.0
H248 H 0.6858 0.92195 0.86114 0.0
H249 H 0.62595 0.87335 0.87427 0.0
O250 O 0.67689 0.89208 0.8109 0.0
H251 H 0.59933 0.81601 0.818 0.0
H252 H 0.62913 0.9056 0.8982 0.0
Cu253 Cu 0.18001 0.88163 0.86395 0.0
N254 N 0.16173 0.87487 0.83586 0.0
N255 N 0.14701 0.86036 0.79812 0.0
C256 C 0.16176 0.86364 0.8159 0.0
C257 C 0.13727 0.86999 0.80729 0.0
C258 C 0.14634 0.87886 0.83071 0.0
O259 O 0.17011 0.85681 0.88342 0.0
C260 C 0.2122 0.90664 0.83276 0.0
O261 O 0.19761 0.91076 0.82604 0.0
H262 H 0.17253 0.85802 0.81453 0.0
H263 H 0.14179 0.88729 0.84322 0.0
N264 N 0.18015 0.90095 0.88611 0.0
N265 N 0.18667 0.91922 0.92228 0.0
C266 C 0.18716 0.9037 0.91068 0.0
C267 C 0.17515 0.91532 0.88178 0.0
C268 C 0.17916 0.92663 0.9041 0.0
C269 C 0.15407 0.85192 0.89723 0.0
O270 O 0.14643 0.86411 0.89816 0.0
H271 H 0.19321 0.89486 0.9195 0.0
H272 H 0.16954 0.91775 0.86355 0.0
O273 O 0.20806 0.8933 0.85 0.0
H274 H 0.12416 0.8701 0.79815 0.0
H275 H 0.177 0.93948 0.90657 0.0
Cu276 Cu 0.38034 0.23993 0.70871 0.0
N277 N 0.38591 0.26457 0.69542 0.0
N278 N 0.37776 0.28531 0.67504 0.0
C279 C 0.37063 0.26831 0.68887 0.0
C280 C 0.39847 0.29271 0.67294 0.0
C281 C 0.40352 0.27988 0.68575 0.0
O282 O 0.36487 0.23685 0.74072 0.0
C283 C 0.37587 0.22472 0.65974 0.0
O284 O 0.39423 0.24105 0.65892 0.0
H285 H 0.35432 0.25783 0.69233 0.0
H286 H 0.4186 0.2809 0.68639 0.0
N287 N 0.40442 0.23886 0.7156 0.0
N288 N 0.42254 0.22352 0.72456 0.0
C289 C 0.40513 0.22176 0.71378 0.0
C290 C 0.4222 0.25217 0.72757 0.0
C291 C 0.43337 0.24263 0.73335 0.0
C292 C 0.37071 0.23451 0.76313 0.0
O293 O 0.3856 0.23003 0.76503 0.0
H294 H 0.39212 0.20771 0.70706 0.0
H295 H 0.42593 0.26713 0.73351 0.0
O296 O 0.36576 0.22038 0.68096 0.0
H297 H 0.409 0.30589 0.66196 0.0
H298 H 0.44759 0.24882 0.74467 0.0
Cu299 Cu 0.85747 0.19902 0.68631 0.0
N300 N 0.87989 0.20203 0.66639 0.0
N301 N 0.90408 0.2168 0.63568 0.0
C302 C 0.89288 0.21933 0.65427 0.0
C303 C 0.89802 0.19705 0.63615 0.0
C304 C 0.8831 0.18796 0.65515 0.0
O305 O 0.8619 0.22646 0.68881 0.0
C306 C 0.82713 0.16027 0.67341 0.0
O307 O 0.83967 0.15688 0.68785 0.0
H308 H 0.89264 0.23314 0.65721 0.0
H309 H 0.87413 0.17202 0.65901 0.0
N310 N 0.85694 0.18981 0.72012 0.0
N311 N 0.84432 0.17829 0.75957 0.0
C312 C 0.84245 0.187 0.73782 0.0
C313 C 0.86857 0.1828 0.73109 0.0
C314 C 0.86074 0.17558 0.75543 0.0
C315 C 0.87581 0.23779 0.70521 0.0
O316 O 0.8845 0.23006 0.71996 0.0
H317 H 0.83017 0.19047 0.73428 0.0
H318 H 0.88134 0.18234 0.72171 0.0
O319 O 0.83174 0.17847 0.66935 0.0
H320 H 0.90317 0.18954 0.62284 0.0
H321 H 0.86651 0.16866 0.76888 0.0
Cu322 Cu 0.8731 0.74017 0.69189 0.0
N323 N 0.86853 0.7558 0.66825 0.0
N324 N 0.86031 0.76402 0.63025 0.0
C325 C 0.86523 0.75153 0.64287 0.0
C326 C 0.86064 0.77671 0.64871 0.0
C327 C 0.86568 0.77156 0.67214 0.0
O328 O 0.84571 0.71897 0.70273 0.0
C329 C 0.90598 0.74398 0.66328 0.0
O330 O 0.90994 0.76268 0.6639 0.0
H331 H 0.86596 0.73908 0.63418 0.0
H332 H 0.86642 0.7783 0.6908 0.0
N333 N 0.88876 0.75513 0.7202 0.0
N334 N 0.90711 0.76115 0.75668 0.0
C335 C 0.89223 0.74707 0.74138 0.0
C336 C 0.90189 0.77507 0.72211 0.0
C337 C 0.91336 0.77884 0.74464 0.0
C338 C 0.83692 0.72159 0.72232 0.0
O339 O 0.8473 0.73791 0.73643 0.0
H340 H 0.88517 0.73102 0.74441 0.0
H341 H 0.90398 0.7859 0.70735 0.0
O342 O 0.88972 0.73052 0.67456 0.0
H343 H 0.85658 0.78831 0.64589 0.0
H344 H 0.92603 0.79324 0.75097 0.0
Cu345 Cu 0.8365 0.69958 0.15628 0.0
N346 N 0.83871 0.68824 0.12531 0.0
N347 N 0.8544 0.68457 0.09059 0.0
C348 C 0.85629 0.69605 0.11133 0.0
C349 C 0.83479 0.66884 0.09155 0.0
C350 C 0.8251 0.67119 0.11299 0.0
O351 O 0.86158 0.70548 0.1759 0.0
C352 C 0.82605 0.72514 0.12763 0.0
O353 O 0.82479 0.71369 0.10801 0.0
H354 H 0.8704 0.70967 0.11676 0.0
H355 H 0.80934 0.66112 0.11922 0.0
N356 N 0.81369 0.68202 0.17631 0.0
N357 N 0.79233 0.67292 0.2102 0.0
C358 C 0.8066 0.68834 0.19604 0.0
C359 C 0.80331 0.66179 0.1778 0.0
C360 C 0.7902 0.65614 0.19889 0.0
C361 C 0.86286 0.69002 0.18213 0.0
O362 O 0.8475 0.67219 0.17569 0.0
H363 H 0.81279 0.70405 0.20089 0.0
H364 H 0.80589 0.6519 0.16539 0.0
O365 O 0.83257 0.72265 0.14949 0.0
H366 H 0.82793 0.65658 0.07772 0.0
H367 H 0.78034 0.64097 0.2058 0.0
Cu368 Cu 0.38222 0.22668 0.19727 0.0
N369 N 0.38787 0.20977 0.17716 0.0
N370 N 0.38543 0.18156 0.16127 0.0
C371 C 0.38014 0.18992 0.1807 0.0
C372 C 0.39691 0.19682 0.14491 0.0
C373 C 0.39829 0.21415 0.15468 0.0
O374 O 0.37142 0.2133 0.2309 0.0
C375 C 0.35562 0.22581 0.1558 0.0
O376 O 0.35234 0.2076 0.15133 0.0
H377 H 0.37042 0.18174 0.19691 0.0
H378 H 0.40549 0.22868 0.1454 0.0
N379 N 0.40662 0.25078 0.20424 0.0
N380 N 0.42582 0.28216 0.21899 0.0
C381 C 0.40767 0.26473 0.22087 0.0
C382 C 0.42486 0.25962 0.19151 0.0
C383 C 0.43673 0.27909 0.20051 0.0
C384 C 0.3845 0.21062 0.24412 0.0
O385 O 0.40305 0.21696 0.23425 0.0
H386 H 0.39474 0.26259 0.23277 0.0
H387 H 0.42888 0.25282 0.17593 0.0
O388 O 0.3656 0.23507 0.17623 0.0
H389 H 0.40304 0.19543 0.12654 0.0
H390 H 0.45183 0.29031 0.19343 0.0
Cu391 Cu 0.85786 0.24654 0.18878 0.0
N392 N 0.8482 0.24826 0.15612 0.0
N393 N 0.83116 0.23612 0.11875 0.0
C394 C 0.83243 0.23248 0.14405 0.0
C395 C 0.84676 0.25511 0.1148 0.0
C396 C 0.85727 0.26258 0.13796 0.0
O397 O 0.83627 0.22319 0.20581 0.0
C398 C 0.88633 0.23634 0.16584 0.0
O399 O 0.87246 0.22791 0.14724 0.0
H400 H 0.82328 0.218 0.15321 0.0
H401 H 0.87133 0.27686 0.14094 0.0
N402 N 0.86555 0.26924 0.20902 0.0
N403 N 0.87988 0.29022 0.24246 0.0
C404 C 0.87398 0.27182 0.23276 0.0
C405 C 0.866 0.28655 0.20334 0.0
C406 C 0.87493 0.29961 0.22399 0.0
C407 C 0.82201 0.224 0.21838 0.0
O408 O 0.82241 0.24124 0.22067 0.0
H409 H 0.87661 0.26068 0.2422 0.0
H410 H 0.86075 0.28965 0.18525 0.0
O411 O 0.88232 0.24403 0.18524 0.0
H412 H 0.85087 0.26272 0.09632 0.0
H413 H 0.87784 0.31489 0.22515 0.0
Zn414 Zn 0.0351 0.70107 0.19695 0.0
Zn415 Zn 0.02541 0.67644 0.23438 0.0
O416 O 0.03177 0.66315 0.20241 0.0
O417 O 0.03712 0.68375 0.17011 0.0
O418 O 0.0216 0.65655 0.26339 0.0
O419 O 0.06056 0.72278 0.21356 0.0
O420 O 0.04934 0.70406 0.24843 0.0
C421 C 0.03553 0.66757 0.17843 0.0
C422 C 0.99476 0.68987 0.21711 0.0
O423 O 0.99775 0.67766 0.23089 0.0
O424 O 0.0087 0.70165 0.20165 0.0
C425 C 0.0247 0.66112 0.28736 0.0
O426 O 0.02924 0.67927 0.29466 0.0
C427 C 0.06199 0.72069 0.23761 0.0
Zn428 Zn 0.40162 0.4105 0.333 0.0
Zn429 Zn 0.41205 0.43174 0.28989 0.0
O430 O 0.42862 0.45264 0.31866 0.0
O431 O 0.41743 0.43529 0.35469 0.0
O432 O 0.42254 0.44916 0.25777 0.0
O433 O 0.41474 0.39459 0.32092 0.0
O434 O 0.42046 0.41003 0.28346 0.0
C435 C 0.42846 0.45185 0.34331 0.0
C436 C 0.36622 0.40769 0.30662 0.0
O437 O 0.37999 0.42045 0.29135 0.0
O438 O 0.37158 0.40058 0.3253 0.0
C439 C 0.42018 0.44259 0.23465 0.0
O440 O 0.40917 0.42314 0.2304 0.0
C441 C 0.42107 0.3968 0.29781 0.0
Zn442 Zn 0.65793 0.05774 0.24732 0.0
Zn443 Zn 0.65598 0.06885 0.29537 0.0
O444 O 0.62976 0.06562 0.27684 0.0
O445 O 0.62988 0.05365 0.23816 0.0
O446 O 0.65045 0.07302 0.33227 0.0
O447 O 0.66126 0.03473 0.2585 0.0
O448 O 0.66167 0.04511 0.29832 0.0
C449 C 0.62129 0.05919 0.25477 0.0
C450 C 0.6912 0.09801 0.2624 0.0
O451 O 0.6821 0.09436 0.2842 0.0
O452 O 0.68385 0.08511 0.24427 0.0
C453 C 0.64876 0.08801 0.33936 0.0
O454 O 0.65205 0.10204 0.32242 0.0
C455 C 0.66337 0.03322 0.28254 0.0
Zn456 Zn 0.01469 0.39847 0.78367 0.0
Zn457 Zn 0.02802 0.41484 0.7389 0.0
O458 O 0.99924 0.38826 0.73099 0.0
O459 O 0.98928 0.37492 0.76961 0.0
O460 O 0.03638 0.42896 0.70375 0.0
O461 O 0.01219 0.42127 0.79771 0.0
O462 O 0.02702 0.43705 0.76165 0.0
C463 C 0.98594 0.37429 0.74553 0.0
C464 C 0.05525 0.40396 0.77248 0.0
O465 O 0.05252 0.41034 0.75075 0.0
O466 O 0.04127 0.39807 0.78961 0.0
C467 C 0.02349 0.43333 0.69347 0.0
O468 O 0.00591 0.42795 0.70553 0.0
C469 C 0.01983 0.43698 0.78409 0.0
Zn470 Zn 0.66365 0.69759 0.7103 0.0
Zn471 Zn 0.64576 0.67078 0.74816 0.0
O472 O 0.64436 0.69575 0.76054 0.0
O473 O 0.65966 0.71805 0.72963 0.0
O474 O 0.6304 0.65086 0.77691 0.0
O475 O 0.64168 0.67986 0.6852 0.0
O476 O 0.6276 0.65685 0.71557 0.0
C477 C 0.65028 0.71311 0.75108 0.0
C478 C 0.69038 0.68378 0.73144 0.0
O479 O 0.67534 0.67394 0.74701 0.0
O480 O 0.68904 0.69476 0.71415 0.0
C481 C 0.63659 0.65459 0.80034 0.0
O482 O 0.65398 0.67125 0.80574 0.0
C483 C 0.62777 0.66257 0.69231 0.0
Zn484 Zn 0.37062 0.06036 0.82867 0.0
Zn485 Zn 0.39563 0.05411 0.79898 0.0
O486 O 0.39792 0.0802 0.78402 0.0
O487 O 0.38035 0.08723 0.81235 0.0
O488 O 0.41498 0.04991 0.77559 0.0
O489 O 0.386 0.05929 0.86029 0.0
O490 O 0.40963 0.05915 0.83473 0.0
C491 C 0.39193 0.09205 0.79267 0.0
C492 C 0.34884 0.02289 0.80303 0.0
O493 O 0.36724 0.02735 0.79655 0.0
O494 O 0.34572 0.03543 0.81523 0.0
C495 C 0.40908 0.04186 0.75335 0.0
O496 O 0.38981 0.03551 0.74591 0.0
C497 C 0.40336 0.06015 0.85733 0.0
Zn498 Zn 0.6808 0.01544 0.55029 0.0
Zn499 Zn 0.67439 0.99251 0.59041 0.0
O500 O 0.67761 0.97622 0.55918 0.0
O501 O 0.68035 0.99502 0.52561 0.0
O502 O 0.67108 0.97514 0.62283 0.0
O503 O 0.7073 0.03828 0.56398 0.0
O504 O 0.70055 0.02065 0.59977 0.0
C505 C 0.67913 0.97915 0.53467 0.0
C506 C 0.64221 0.0053 0.57407 0.0
O507 O 0.64669 0.99423 0.58819 0.0
O508 O 0.65476 0.01635 0.55685 0.0
C509 C 0.6865 0.97508 0.63396 0.0
O510 O 0.7052 0.98636 0.62439 0.0
C511 C 0.71171 0.03698 0.58731 0.0
Zn512 Zn 0.06201 0.72642 0.63565 0.0
Zn513 Zn 0.07385 0.75099 0.5954 0.0
O514 O 0.09216 0.76836 0.62647 0.0
O515 O 0.08299 0.74741 0.65928 0.0
O516 O 0.08686 0.76938 0.56414 0.0
O517 O 0.06795 0.70649 0.61883 0.0
O518 O 0.07435 0.72508 0.58393 0.0
C519 C 0.09396 0.76491 0.65025 0.0
C520 C 0.02975 0.73396 0.61492 0.0
O521 O 0.04383 0.74573 0.59922 0.0
O522 O 0.03367 0.724 0.63135 0.0
C523 C 0.09453 0.78835 0.56546 0.0
O524 O 0.09299 0.79633 0.58727 0.0
C525 C 0.07222 0.7093 0.59502 0.0
Zn526 Zn 0.29858 0.36069 0.54097 0.0
Zn527 Zn 0.28521 0.367 0.58346 0.0
O528 O 0.26701 0.36896 0.55371 0.0
O529 O 0.27556 0.35833 0.51892 0.0
O530 O 0.26973 0.36618 0.61592 0.0
O531 O 0.30062 0.33693 0.55252 0.0
O532 O 0.28938 0.34251 0.58908 0.0
C533 C 0.26473 0.36484 0.52954 0.0
C534 C 0.32719 0.39852 0.5668 0.0
O535 O 0.31394 0.39237 0.58504 0.0
O536 O 0.32363 0.38826 0.54624 0.0
C537 C 0.27612 0.36407 0.63796 0.0
O538 O 0.29382 0.36407 0.63952 0.0
C539 C 0.296 0.33271 0.57607 0.0
Zn540 Zn 0.68013 0.75784 0.13377 0.0
Zn541 Zn 0.69085 0.78061 0.09303 0.0
O542 O 0.66567 0.75252 0.08108 0.0
O543 O 0.65646 0.73424 0.11652 0.0
O544 O 0.69555 0.79888 0.06123 0.0
O545 O 0.67438 0.77537 0.15631 0.0
O546 O 0.68654 0.79676 0.12397 0.0
C547 C 0.65385 0.73594 0.09267 0.0
C548 C 0.72204 0.77002 0.11673 0.0
O549 O 0.71777 0.77847 0.09821 0.0
O550 O 0.70876 0.76085 0.13429 0.0
C551 C 0.69808 0.79489 0.03797 0.0
O552 O 0.6987 0.77835 0.03335 0.0
C553 C 0.67966 0.79252 0.1472 0.0
Zn554 Zn 0.32187 0.0073 0.07745 0.0
Zn555 Zn 0.30536 0.99164 0.1202 0.0
O556 O 0.31713 0.02229 0.12692 0.0
O557 O 0.33608 0.0351 0.09207 0.0
O558 O 0.29192 0.97935 0.15481 0.0
O559 O 0.29503 0.99743 0.05905 0.0
O560 O 0.2807 0.97838 0.09316 0.0
C561 C 0.33021 0.03757 0.11403 0.0
C562 C 0.34015 0.98582 0.09642 0.0
O563 O 0.32955 0.98534 0.11612 0.0
O564 O 0.33768 0.99256 0.07517 0.0
C565 C 0.28745 0.9621 0.16343 0.0
O566 O 0.29149 0.95027 0.14919 0.0
C567 C 0.2792 0.98365 0.07014 0.0
Zn568 Zn 0.03623 0.38609 0.14614 0.0
Zn569 Zn 0.05078 0.37829 0.10317 0.0
O570 O 0.03853 0.39558 0.08971 0.0
O571 O 0.02403 0.39953 0.12468 0.0
O572 O 0.06189 0.37116 0.07179 0.0
O573 O 0.06504 0.40219 0.16073 0.0
O574 O 0.07635 0.39265 0.12731 0.0
C575 C 0.02784 0.4023 0.10071 0.0
C576 C 0.01873 0.34401 0.13659 0.0
O577 O 0.02899 0.3503 0.1157 0.0
O578 O 0.01975 0.3564 0.15356 0.0
C579 C 0.07165 0.38297 0.05327 0.0
O580 O 0.07501 0.40147 0.05381 0.0
C581 C 0.07974 0.40172 0.14903 0.0
Zn582 Zn 0.36825 0.35372 0.92065 0.0
Zn583 Zn 0.36107 0.33343 0.96124 0.0
O584 O 0.36156 0.31422 0.93173 0.0
O585 O 0.36367 0.33158 0.89688 0.0
O586 O 0.35791 0.31812 0.99555 0.0
O587 O 0.39663 0.37534 0.92969 0.0
O588 O 0.38892 0.36129 0.96806 0.0
C589 C 0.3616 0.31571 0.90701 0.0
C590 C 0.33152 0.34869 0.94322 0.0
O591 O 0.33447 0.33688 0.95796 0.0
O592 O 0.3449 0.35893 0.92632 0.0
C593 C 0.34739 0.29904 0.9979 0.0
O594 O 0.33724 0.28814 0.97762 0.0
C595 C 0.40117 0.37583 0.95337 0.0
Zn596 Zn 0.7106 0.0803 0.99447 0.0
Zn597 Zn 0.72373 0.09962 0.95151 0.0
O598 O 0.74403 0.11957 0.97935 0.0
O599 O 0.73189 0.10293 0.01564 0.0
O600 O 0.73812 0.11196 0.91744 0.0
O601 O 0.71352 0.05672 0.98561 0.0
O602 O 0.72 0.07091 0.94733 0.0
C603 C 0.74479 0.11873 1.00399 0.0
C604 C 0.68048 0.08819 0.96862 0.0
O605 O 0.69514 0.09849 0.95273 0.0
O606 O 0.68325 0.07874 0.98688 0.0
C607 C 0.74811 0.13053 0.91163 0.0
O608 O 0.74829 0.1438 0.92788 0.0
C609 C 0.71649 0.05601 0.96168 0.0
Zn610 Zn 1.00217 0.69229 0.88169 0.0
Zn611 Zn 0.98594 0.69759 0.92525 0.0
O612 O 0.97311 0.70668 0.89667 0.0
O613 O 0.98827 0.70468 0.86111 0.0
O614 O 0.97041 0.69798 0.95711 0.0
O615 O 0.98824 0.66234 0.88713 0.0
O616 O 0.9783 0.6679 0.92477 0.0
C617 C 0.97612 0.70934 0.8724 0.0
C618 C 0.03304 0.72072 0.91774 0.0
O619 O 0.01723 0.71785 0.93088 0.0
O620 O 0.03058 0.71082 0.89709 0.0
C621 C 0.96614 0.71171 0.96235 0.0
O622 O 0.97366 0.72777 0.94765 0.0
C623 C 0.97941 0.65587 0.90871 0.0
Zn624 Zn 0.35255 0.09712 0.50091 0.0
Zn625 Zn 0.36256 0.11853 0.46053 0.0
O626 O 0.33509 0.09191 0.45019 0.0
O627 O 0.32968 0.07293 0.48437 0.0
O628 O 0.36898 0.13559 0.42717 0.0
O629 O 0.34585 0.11458 0.52199 0.0
O630 O 0.35926 0.13616 0.49 0.0
C631 C 0.32459 0.07506 0.46172 0.0
C632 C 0.39295 0.10665 0.48609 0.0
O633 O 0.38838 0.11396 0.46647 0.0
O634 O 0.38033 0.09943 0.50468 0.0
C635 C 0.35476 0.13733 0.4154 0.0
O636 O 0.33595 0.12846 0.42524 0.0
C637 C 0.35162 0.13182 0.51286 0.0
Zn638 Zn 0.01089 0.3747 0.42421 0.0
Zn639 Zn 0.98598 0.34275 0.45185 0.0
O640 O 0.98536 0.36715 0.46929 0.0
O641 O 0.00906 0.39388 0.44872 0.0
O642 O 0.97008 0.31972 0.477 0.0
O643 O 0.98922 0.36201 0.39538 0.0
O644 O 0.96888 0.33506 0.41826 0.0
C645 C 0.99555 0.38619 0.4663 0.0
C646 C 0.03131 0.35349 0.43689 0.0
O647 O 0.01356 0.34194 0.4469 0.0
O648 O 0.03492 0.36975 0.42633 0.0
C649 C 0.97592 0.32249 0.5006 0.0
O650 O 0.99149 0.34009 0.50759 0.0
C651 C 0.9727 0.34511 0.39736 0.0
Zn652 Zn 0.7281 0.71514 0.4717 0.0
Zn653 Zn 0.74381 0.70607 0.43264 0.0
O654 O 0.73689 0.72779 0.42003 0.0
O655 O 0.7177 0.7301 0.45063 0.0
O656 O 0.75345 0.69887 0.39967 0.0
O657 O 0.75682 0.73051 0.48684 0.0
O658 O 0.76906 0.71811 0.45772 0.0
C659 C 0.72589 0.73508 0.42851 0.0
C660 C 0.70817 0.67315 0.46479 0.0
O661 O 0.71947 0.67849 0.44457 0.0
O662 O 0.70958 0.68628 0.48076 0.0
C663 C 0.74347 0.69737 0.37888 0.0
O664 O 0.72747 0.70031 0.37977 0.0
C665 C 0.77164 0.72858 0.47805 0.0
H666 H 0.98975 0.48853 0.06617 0.0
H667 H 0.03521 0.41432 0.04984 0.0
H668 H 0.01645 0.4822 0.99512 0.0
H669 H 0.00382 0.41751 0.11838 0.0
H670 H 0.02547 0.4367 0.02781 0.0
H671 H 0.99143 0.45989 0.08395 0.0
C672 C 0.99571 0.48096 0.05418 0.0
C673 C 0.00323 0.48795 0.02926 0.0
C674 C 0.02055 0.43232 0.0476 0.0
C675 C 0.00544 0.45531 0.04958 0.0
C676 C 0.02612 0.41956 0.06018 0.0
C677 C 0.02056 0.41423 0.0861 0.0
C678 C 0.00944 0.43986 0.0611 0.0
C679 C 0.00867 0.42139 0.09849 0.0
C680 C 0.9967 0.46462 0.06435 0.0
C681 C 0.01066 0.47746 0.01454 0.0
N682 N 0.00369 0.43396 0.08596 0.0
N683 N 0.01183 0.46183 0.02504 0.0
H684 H 0.55016 0.61755 0.05787 0.0
H685 H 0.65603 0.72303 0.0437 0.0
H686 H 0.60228 0.62435 0.01316 0.0
H687 H 0.61616 0.70725 0.11032 0.0
H688 H 0.63244 0.6896 0.02503 0.0
H689 H 0.5705 0.65312 0.07032 0.0
C690 C 0.56581 0.62655 0.0505 0.0
C691 C 0.5746 0.61789 0.03466 0.0
C692 C 0.62874 0.69364 0.04355 0.0
C693 C 0.59783 0.65867 0.04853 0.0
C694 C 0.64205 0.71275 0.05405 0.0
C695 C 0.63803 0.71786 0.07859 0.0
C696 C 0.61114 0.67978 0.0575 0.0
C697 C 0.61985 0.70386 0.09138 0.0
C698 C 0.57741 0.64682 0.05764 0.0
C699 C 0.59497 0.63032 0.02566 0.0
N700 N 0.60712 0.68549 0.08074 0.0
N701 N 0.60589 0.65007 0.0327 0.0
H702 H 0.46218 0.02189 0.05419 0.0
H703 H 0.3622 0.98867 0.14054 0.0
H704 H 0.46305 0.03958 0.13369 0.0
H705 H 0.36076 0.97832 0.05827 0.0
H706 H 0.39863 0.99703 0.14163 0.0
H707 H 0.42533 0.99662 0.05874 0.0
C708 C 0.45477 0.02014 0.07277 0.0
C709 C 0.46554 0.03315 0.09341 0.0
C710 C 0.39018 0.9924 0.12344 0.0
C711 C 0.42345 0.00442 0.09873 0.0
C712 C 0.36929 0.98741 0.12287 0.0
C713 C 0.35861 0.98333 0.09915 0.0
C714 C 0.40037 0.99333 0.10015 0.0
C715 C 0.36859 0.98186 0.07689 0.0
C716 C 0.43371 0.00575 0.07535 0.0
C717 C 0.45519 0.03015 0.11709 0.0
N718 N 0.38905 0.98732 0.0778 0.0
N719 N 0.43466 0.01633 0.11899 0.0
H720 H 0.48678 0.0713 0.46349 0.0
H721 H 0.41435 0.10869 0.52956 0.0
H722 H 0.48014 0.07557 0.54584 0.0
H723 H 0.41508 0.10088 0.44699 0.0
H724 H 0.44179 0.10038 0.53462 0.0
H725 H 0.46339 0.08489 0.45602 0.0
C726 C 0.48048 0.07513 0.48001 0.0
C727 C 0.48541 0.07216 0.50538 0.0
C728 C 0.43618 0.10062 0.51531 0.0
C729 C 0.45873 0.08787 0.49689 0.0
C730 C 0.42052 0.10548 0.51238 0.0
C731 C 0.41229 0.10539 0.48781 0.0
C732 C 0.44371 0.09534 0.49355 0.0
C733 C 0.42103 0.10122 0.46626 0.0
C734 C 0.46714 0.08291 0.4757 0.0
C735 C 0.47677 0.07746 0.52596 0.0
N736 N 0.43612 0.09611 0.46965 0.0
N737 N 0.46391 0.08499 0.52125 0.0
H738 H 0.99641 0.49351 0.52062 0.0
H739 H 0.01924 0.41797 0.49797 0.0
H740 H 0.97114 0.47532 0.44359 0.0
H741 H 0.95884 0.38555 0.46178 0.0
H742 H 0.01262 0.44553 0.50797 0.0
H743 H 0.99274 0.46032 0.52738 0.0
C744 C 0.98957 0.4824 0.50537 0.0
C745 C 0.98459 0.4874 0.48122 0.0
C746 C 1.00046 0.43205 0.49877 0.0
C747 C 0.98019 0.44939 0.48897 0.0
C748 C 0.00424 0.41634 0.49313 0.0
C749 C 0.98939 0.3994 0.4795 0.0
C750 C 0.98204 0.43107 0.48977 0.0
C751 C 0.97046 0.39824 0.47281 0.0
C752 C 0.98761 0.4635 0.50923 0.0
C753 C 0.97552 0.47223 0.46233 0.0
N754 N 0.96756 0.41415 0.4773 0.0
N755 N 0.9738 0.45396 0.4665 0.0
H756 H 0.61328 0.5673 0.53803 0.0
H757 H 0.69142 0.6411 0.43074 0.0
H758 H 0.60547 0.55302 0.4566 0.0
H759 H 0.691 0.65654 0.51102 0.0
H760 H 0.66421 0.60641 0.44027 0.0
H761 H 0.6465 0.59736 0.529 0.0
C762 C 0.61879 0.57039 0.51827 0.0
C763 C 0.60658 0.55785 0.49802 0.0
C764 C 0.67028 0.6174 0.45578 0.0
C765 C 0.64439 0.59239 0.48734 0.0
C766 C 0.68579 0.63715 0.45037 0.0
C767 C 0.69324 0.65177 0.47004 0.0
C768 C 0.66244 0.61232 0.48107 0.0
C769 C 0.68548 0.64586 0.49515 0.0
C770 C 0.6377 0.58756 0.51307 0.0
C771 C 0.61448 0.56233 0.47276 0.0
N772 N 0.67048 0.62667 0.49988 0.0
N773 N 0.63278 0.57945 0.46804 0.0
H774 H 0.97983 0.56384 0.99633 0.0
H775 H 0.97467 0.62489 0.87769 0.0
H776 H 0.97216 0.54229 0.9176 0.0
H777 H 0.96789 0.63891 0.95675 0.0
H778 H 0.9685 0.59201 0.8917 0.0
H779 H 0.96983 0.58828 0.98269 0.0
C780 C 0.97557 0.56395 0.97626 0.0
C781 C 0.97722 0.5513 0.95796 0.0
C782 C 0.96798 0.60212 0.90594 0.0
C783 C 0.9662 0.57952 0.9421 0.0
C784 C 0.97158 0.62094 0.89795 0.0
C785 C 0.97223 0.63483 0.91616 0.0
C786 C 0.96535 0.59727 0.93238 0.0
C787 C 0.96782 0.62878 0.94209 0.0
C788 C 0.96987 0.57793 0.96846 0.0
C789 C 0.9713 0.55191 0.9323 0.0
N790 N 0.96496 0.6106 0.94951 0.0
N791 N 0.96651 0.56615 0.92499 0.0
H792 H 0.49847 0.47625 0.04326 0.0
H793 H 0.4286 0.4086 0.9259 0.0
H794 H 0.48614 0.50008 0.97404 0.0
H795 H 0.41545 0.38598 1.00412 0.0
H796 H 0.45552 0.44088 0.94229 0.0
H797 H 0.4732 0.44203 0.02839 0.0
C798 C 0.49056 0.47429 0.0249 0.0
C799 C 0.49444 0.49105 1.00983 0.0
C800 C 0.44685 0.42885 0.95591 0.0
C801 C 0.46585 0.45209 0.99269 0.0
C802 C 0.43147 0.41028 0.94657 0.0
C803 C 0.41946 0.39444 0.96365 0.0
C804 C 0.45062 0.4318 0.98258 0.0
C805 C 0.42422 0.39773 0.99024 0.0
C806 C 0.4761 0.4548 0.01654 0.0
C807 C 0.48362 0.48764 0.98632 0.0
N808 N 0.43943 0.4161 0.99894 0.0
N809 N 0.46998 0.46859 0.97842 0.0
H810 H 0.55893 0.05776 0.01925 0.0
H811 H 0.67317 0.11934 0.95875 0.0
H812 H 0.59392 0.12251 0.01428 0.0
H813 H 0.64245 0.05639 0.97815 0.0
H814 H 0.64104 0.11974 0.96926 0.0
H815 H 0.58642 0.05615 0.99523 0.0
C816 C 0.57231 0.07163 0.01296 0.0
C817 C 0.57426 0.0903 0.01915 0.0
C818 C 0.64123 0.10575 0.97069 0.0
C819 C 0.60577 0.08858 0.99153 0.0
C820 C 0.65947 0.10549 0.96442 0.0
C821 C 0.66043 0.08785 0.96783 0.0
C822 C 0.62394 0.08821 0.98021 0.0
C823 C 0.64236 0.07035 0.97552 0.0
C824 C 0.588 0.07071 0.99921 0.0
C825 C 0.59188 0.10778 0.01026 0.0
N826 N 0.62495 0.07101 0.98171 0.0
N827 N 0.60702 0.10651 0.99709 0.0
H828 H 0.54824 0.03955 0.55359 0.0
H829 H 0.60279 0.97391 0.5847 0.0
H830 H 0.51768 0.97534 0.5437 0.0
H831 H 0.63659 0.0374 0.56831 0.0
H832 H 0.56996 0.97454 0.5805 0.0
H833 H 0.57923 0.03933 0.56954 0.0
C834 C 0.54792 0.02546 0.55478 0.0
C835 C 0.53042 0.00766 0.54639 0.0
C836 C 0.58462 0.98838 0.57825 0.0
C837 C 0.56576 0.00701 0.5654 0.0
C838 C 0.60331 0.98803 0.58085 0.0
C839 C 0.62241 0.00558 0.57665 0.0
C840 C 0.5851 0.00646 0.57182 0.0
C841 C 0.62219 0.02347 0.57145 0.0
C842 C 0.56564 0.02527 0.56403 0.0
C843 C 0.53089 0.98961 0.54936 0.0
N844 N 0.6039 0.02344 0.56907 0.0
N845 N 0.54824 0.98976 0.55839 0.0
H846 H 0.08195 0.60657 0.54529 0.0
H847 H 0.05828 0.69702 0.54553 0.0
H848 H 0.02763 0.60169 0.50731 0.0
H849 H 0.08599 0.6842 0.61107 0.0
H850 H 0.05345 0.66625 0.52427 0.0
H851 H 0.08964 0.63915 0.5632 0.0
C852 C 0.07164 0.61237 0.54074 0.0
C853 C 0.05403 0.60138 0.52501 0.0
C854 C 0.0608 0.67038 0.54317 0.0
C855 C 0.06305 0.63876 0.54486 0.0
C856 C 0.06377 0.68799 0.55514 0.0
C857 C 0.07254 0.69308 0.58005 0.0
C858 C 0.06709 0.65815 0.55601 0.0
C859 C 0.07912 0.68074 0.59187 0.0
C860 C 0.07606 0.63092 0.55094 0.0
C861 C 0.04123 0.6096 0.51964 0.0
N862 N 0.07631 0.66385 0.57973 0.0
N863 N 0.04607 0.62792 0.52942 0.0
H864 H 0.45756 0.46186 0.59795 0.0
H865 H 0.34797 0.42714 0.531 0.0
H866 H 0.44919 0.48394 0.52464 0.0
H867 H 0.35348 0.40957 0.60854 0.0
H868 H 0.38512 0.45125 0.53107 0.0
H869 H 0.41975 0.44461 0.60435 0.0
C870 C 0.44781 0.46309 0.58324 0.0
C871 C 0.45657 0.47433 0.5607 0.0
C872 C 0.37826 0.44245 0.54833 0.0
C873 C 0.41349 0.45493 0.56802 0.0
C874 C 0.35702 0.4288 0.54832 0.0
C875 C 0.34781 0.41644 0.56976 0.0
C876 C 0.39049 0.44337 0.56971 0.0
C877 C 0.36011 0.41901 0.5917 0.0
C878 C 0.42628 0.45343 0.58702 0.0
C879 C 0.44323 0.47566 0.54244 0.0
N880 N 0.381 0.43195 0.59095 0.0
N881 N 0.42243 0.46601 0.54645 0.0
H882 H 0.70667 0.83431 0.39684 0.0
H883 H 0.74989 0.75757 0.38782 0.0
H884 H 0.76072 0.84626 0.35228 0.0
H885 H 0.69969 0.74971 0.43746 0.0
H886 H 0.75155 0.78796 0.37012 0.0
H887 H 0.70178 0.80146 0.40804 0.0
C888 C 0.71746 0.82997 0.38926 0.0
C889 C 0.73413 0.84308 0.37358 0.0
C890 C 0.74004 0.77944 0.38469 0.0
C891 C 0.72872 0.80541 0.38655 0.0
C892 C 0.73898 0.76202 0.39466 0.0
C893 C 0.72478 0.75122 0.41434 0.0
C894 C 0.72675 0.78598 0.39444 0.0
C895 C 0.71104 0.75769 0.42251 0.0
C896 C 0.7147 0.81121 0.39574 0.0
C897 C 0.74782 0.83674 0.36468 0.0
N898 N 0.71248 0.77471 0.41267 0.0
N899 N 0.74482 0.81833 0.37131 0.0
H900 H 0.22851 0.95454 0.42675 0.0
H901 H 0.30209 0.07397 0.41806 0.0
H902 H 0.21294 0.99077 0.37795 0.0
H903 H 0.30579 0.03627 0.47745 0.0
H904 H 0.27125 0.04417 0.4 0.0
H905 H 0.25886 0.98487 0.44259 0.0
C906 C 0.23154 0.96894 0.41932 0.0
C907 C 0.21823 0.97013 0.40096 0.0
C908 C 0.2789 0.04255 0.41699 0.0
C909 C 0.25308 0.00516 0.41912 0.0
C910 C 0.29651 0.05949 0.4272 0.0
C911 C 0.30651 0.05765 0.44934 0.0
C912 C 0.27152 0.02373 0.4289 0.0
C913 C 0.29859 0.03854 0.46047 0.0
C914 C 0.24884 0.98631 0.42846 0.0
C915 C 0.22275 0.98924 0.39229 0.0
N916 N 0.28168 0.02243 0.45013 0.0
N917 N 0.2399 0.00607 0.40135 0.0
H918 H 0.14648 0.35748 0.40282 0.0
H919 H 0.02506 0.31642 0.42342 0.0
H920 H 0.09939 0.31662 0.34932 0.0
H921 H 0.07324 0.3765 0.44307 0.0
H922 H 0.05197 0.30878 0.40887 0.0
H923 H 0.11911 0.35631 0.43029 0.0
C924 C 0.13037 0.34773 0.39724 0.0
C925 C 0.12521 0.33727 0.37355 0.0
C926 C 0.05659 0.32344 0.41703 0.0
C927 C 0.09391 0.33591 0.40501 0.0
C928 C 0.04132 0.32775 0.42551 0.0
C929 C 0.04702 0.34713 0.43435 0.0
C930 C 0.07763 0.33849 0.41802 0.0
C931 C 0.06825 0.3614 0.43628 0.0
C932 C 0.1148 0.34721 0.41287 0.0
C933 C 0.10405 0.32504 0.36729 0.0
N934 N 0.0828 0.35683 0.42806 0.0
N935 N 0.08915 0.32483 0.38281 0.0
H936 H 0.16402 0.38914 0.77191 0.0
H937 H 0.06908 0.40128 0.82028 0.0
H938 H 0.15106 0.39381 0.85221 0.0
H939 H 0.08623 0.40683 0.73972 0.0
H940 H 0.10018 0.40003 0.8317 0.0
H941 H 0.13753 0.39773 0.75925 0.0
C942 C 0.15592 0.39234 0.78691 0.0
C943 C 0.15971 0.39054 0.81322 0.0
C944 C 0.09731 0.40163 0.8115 0.0
C945 C 0.12909 0.4001 0.79876 0.0
C946 C 0.0794 0.40223 0.80489 0.0
C947 C 0.07483 0.40395 0.7789 0.0
C948 C 0.11086 0.40251 0.79204 0.0
C949 C 0.08906 0.4054 0.75997 0.0
C950 C 0.14072 0.39718 0.77962 0.0
C951 C 0.14869 0.39491 0.83171 0.0
N952 N 0.10635 0.40443 0.76689 0.0
N953 N 0.13375 0.39921 0.82412 0.0
H954 H 0.64594 0.79988 0.8527 0.0
H955 H 0.64364 0.74116 0.72805 0.0
H956 H 0.61037 0.79776 0.78537 0.0
H957 H 0.64448 0.71673 0.80298 0.0
H958 H 0.63477 0.76449 0.74876 0.0
H959 H 0.64828 0.77118 0.8355 0.0
C960 C 0.63835 0.7931 0.8345 0.0
C961 C 0.62798 0.80111 0.82034 0.0
C962 C 0.63677 0.75394 0.76066 0.0
C963 C 0.63099 0.76886 0.80041 0.0
C964 C 0.64203 0.74077 0.74891 0.0
C965 C 0.64494 0.72712 0.76389 0.0
C966 C 0.63489 0.75383 0.78764 0.0
C967 C 0.64239 0.72708 0.7908 0.0
C968 C 0.63964 0.77678 0.82477 0.0
C969 C 0.61836 0.7919 0.79689 0.0
N970 N 0.6378 0.74049 0.80193 0.0
N971 N 0.62044 0.77648 0.78739 0.0
H972 H 0.22259 0.92973 0.7897 0.0
H973 H 0.34518 0.98676 0.81626 0.0
H974 H 0.24986 0.9121 0.85105 0.0
H975 H 0.31168 0.01341 0.78168 0.0
H976 H 0.31236 0.95437 0.81864 0.0
H977 H 0.25726 0.95494 0.77593 0.0
C978 C 0.23591 0.93097 0.80011 0.0
C979 C 0.2333 0.91907 0.82193 0.0
C980 C 0.31236 0.96722 0.80997 0.0
C981 C 0.27316 0.94807 0.80619 0.0
C982 C 0.33104 0.98557 0.80837 0.0
C983 C 0.33099 1.00263 0.7987 0.0
C984 C 0.29376 0.96602 0.80139 0.0
C985 C 0.31229 1.00054 0.78922 0.0
C986 C 0.25571 0.94539 0.7922 0.0
C987 C 0.25118 0.92111 0.83429 0.0
N988 N 0.29443 0.9826 0.79088 0.0
N989 N 0.27044 0.93562 0.82648 0.0
H990 H 0.71241 0.95257 0.2831 0.0
H991 H 0.67999 0.03261 0.32993 0.0
H992 H 0.7311 0.98314 0.35672 0.0
H993 H 0.66423 1.00326 0.25521 0.0
H994 H 0.69754 0.01374 0.34121 0.0
H995 H 0.69464 0.97126 0.27275 0.0
C996 C 0.71296 0.96345 0.29692 0.0
C997 C 0.7232 0.96635 0.32074 0.0
C998 C 0.6901 0.01135 0.32243 0.0
C999 C 0.70265 0.98758 0.30935 0.0
C1000 C 0.67991 0.02196 0.31608 0.0
C1001 C 0.67074 0.01958 0.29153 0.0
C1002 C 0.69106 0.99829 0.30411 0.0
C1003 C 0.67121 0.00568 0.27429 0.0
C1004 C 0.70275 0.97404 0.29112 0.0
C1005 C 0.72357 0.98065 0.33802 0.0
N1006 N 0.68131 0.99567 0.28086 0.0
N1007 N 0.71327 0.99065 0.33206 0.0
H1008 H 0.11549 0.81757 0.35186 0.0
H1009 H 0.09316 0.75634 0.21971 0.0
H1010 H 0.1203 0.84304 0.27614 0.0
H1011 H 0.06228 0.72666 0.29037 0.0
H1012 H 0.11031 0.78828 0.24278 0.0
H1013 H 0.10152 0.78413 0.33178 0.0
C1014 C 0.11349 0.81606 0.33104 0.0
C1015 C 0.11887 0.833 0.3156 0.0
C1016 C 0.09994 0.77476 0.25331 0.0
C1017 C 0.10352 0.79517 0.29264 0.0
C1018 C 0.09024 0.75646 0.24022 0.0
C1019 C 0.07597 0.7388 0.25302 0.0
C1020 C 0.09551 0.77551 0.27949 0.0
C1021 C 0.07308 0.73992 0.27971 0.0
C1022 C 0.10557 0.79707 0.31966 0.0
C1023 C 0.11604 0.83034 0.28875 0.0
N1024 N 0.08261 0.75806 0.29208 0.0
N1025 N 0.10872 0.81182 0.27812 0.0
H1026 H 0.23635 0.36007 0.34222 0.0
H1027 H 0.34843 0.42481 0.27643 0.0
H1028 H 0.25217 0.4093 0.28968 0.0
H1029 H 0.33326 0.37724 0.33153 0.0
H1030 H 0.31205 0.41694 0.27727 0.0
H1031 H 0.2708 0.36388 0.33515 0.0
C1032 C 0.24699 0.37158 0.3291 0.0
C1033 C 0.24142 0.38448 0.31672 0.0
C1034 C 0.31669 0.40813 0.289 0.0
C1035 C 0.28084 0.38897 0.30852 0.0
C1036 C 0.33743 0.41257 0.28843 0.0
C1037 C 0.34398 0.40184 0.30413 0.0
C1038 C 0.30243 0.39283 0.30536 0.0
C1039 C 0.32901 0.38611 0.31932 0.0
C1040 C 0.26667 0.37377 0.32506 0.0
C1041 C 0.25583 0.39911 0.29984 0.0
N1042 N 0.30903 0.38219 0.31969 0.0
N1043 N 0.27487 0.40102 0.29635 0.0
H1044 H 0.24123 0.3801 0.89102 0.0
H1045 H 0.29178 0.31945 0.95683 0.0
H1046 H 0.20581 0.31787 0.91387 0.0
H1047 H 0.32704 0.38038 0.92913 0.0
H1048 H 0.25952 0.32011 0.94769 0.0
H1049 H 0.2723 0.38192 0.91067 0.0
C1050 C 0.23993 0.36688 0.90034 0.0
C1051 C 0.2209 0.34877 0.90051 0.0
C1052 C 0.27435 0.33344 0.94399 0.0
C1053 C 0.25642 0.35069 0.92307 0.0
C1054 C 0.29275 0.3331 0.94945 0.0
C1055 C 0.3121 0.34979 0.9435 0.0
C1056 C 0.2754 0.35062 0.93261 0.0
C1057 C 0.31244 0.36706 0.93372 0.0
C1058 C 0.25768 0.36791 0.91157 0.0
C1059 C 0.22017 0.33213 0.913 0.0
N1060 N 0.29443 0.36695 0.92837 0.0
N1061 N 0.23765 0.33345 0.92357 0.0
H1062 H 0.68805 0.95545 0.85915 0.0
H1063 H 0.7047 0.0206 0.98659 0.0
H1064 H 0.65366 0.93131 0.92963 0.0
H1065 H 0.71888 0.04733 0.9105 0.0
H1066 H 0.69229 0.98769 0.9669 0.0
H1067 H 0.70486 0.98922 0.87855 0.0
C1068 C 0.68408 0.95731 0.87871 0.0
C1069 C 0.66941 0.94066 0.89283 0.0
C1070 C 0.69828 1.00079 0.95454 0.0
C1071 C 0.6887 0.97895 0.91515 0.0
C1072 C 0.70553 0.01964 0.96575 0.0
C1073 C 0.71264 0.03679 0.95015 0.0
C1074 C 0.69828 0.99901 0.92753 0.0
C1075 C 0.71341 0.03451 0.92325 0.0
C1076 C 0.69361 0.97651 0.88971 0.0
C1077 C 0.66468 0.9438 0.91802 0.0
N1078 N 0.70617 0.01591 0.91275 0.0
N1079 N 0.67439 0.96257 0.92845 0.0
H1080 H 0.15388 0.81701 0.88425 0.0
H1081 H 0.04427 0.75161 0.95261 0.0
H1082 H 0.12601 0.84085 0.93614 0.0
H1083 H 0.07004 0.72809 0.89699 0.0
H1084 H 0.07799 0.78255 0.95518 0.0
H1085 H 0.12751 0.78291 0.89696 0.0
C1086 C 0.14256 0.81509 0.89879 0.0
C1087 C 0.14185 0.83173 0.90878 0.0
C1088 C 0.07637 0.77047 0.94275 0.0
C1089 C 0.11156 0.7929 0.92316 0.0
C1090 C 0.05712 0.75275 0.94138 0.0
C1091 C 0.05417 0.7374 0.92413 0.0
C1092 C 0.09273 0.77287 0.92669 0.0
C1093 C 0.07146 0.7397 0.91017 0.0
C1094 C 0.12743 0.79563 0.90595 0.0
C1095 C 0.12685 0.82839 0.92758 0.0
N1096 N 0.08987 0.75722 0.91142 0.0
N1097 N 0.11213 0.80938 0.93386 0.0
H1098 H 0.41409 0.19127 0.69496 0.0
H1099 H 0.39702 0.12534 0.81743 0.0
H1100 H 0.43569 0.21716 0.77066 0.0
H1101 H 0.40519 0.10488 0.74287 0.0
H1102 H 0.40987 0.15883 0.7997 0.0
H1103 H 0.41049 0.15946 0.71056 0.0
C1104 C 0.41856 0.19035 0.71468 0.0
C1105 C 0.42509 0.20676 0.73161 0.0
C1106 C 0.40903 0.14709 0.78722 0.0
C1107 C 0.42056 0.17051 0.74968 0.0
C1108 C 0.40147 0.1279 0.79724 0.0
C1109 C 0.39982 0.11226 0.78149 0.0
C1110 C 0.41459 0.15068 0.76106 0.0
C1111 C 0.40614 0.11653 0.75559 0.0
C1112 C 0.4165 0.17226 0.72355 0.0
C1113 C 0.43071 0.20491 0.75697 0.0
N1114 N 0.41297 0.13534 0.74601 0.0
N1115 N 0.4279 0.18696 0.7654 0.0
H1116 H 0.89545 0.26508 0.66623 0.0
H1117 H 0.94978 0.35307 0.77139 0.0
H1118 H 0.87873 0.26039 0.74668 0.0
H1119 H 0.97711 0.35638 0.69674 0.0
H1120 H 0.91889 0.32227 0.75809 0.0
H1121 H 0.92027 0.30113 0.67271 0.0
C1122 C 0.89638 0.2718 0.68497 0.0
C1123 C 0.88491 0.25982 0.70595 0.0
C1124 C 0.9315 0.32971 0.74443 0.0
C1125 C 0.91342 0.30079 0.71359 0.0
C1126 C 0.94923 0.34737 0.75203 0.0
C1127 C 0.96627 0.35718 0.73533 0.0
C1128 C 0.93067 0.32143 0.71993 0.0
C1129 C 0.96439 0.34922 0.71029 0.0
C1130 C 0.91074 0.29231 0.68873 0.0
C1131 C 0.88712 0.26916 0.72997 0.0
N1132 N 0.94702 0.33159 0.70346 0.0
N1133 N 0.90116 0.28898 0.73315 0.0
H1134 H 0.80736 0.69538 0.68813 0.0
H1135 H 0.71186 0.68242 0.77436 0.0
H1136 H 0.81482 0.71887 0.7658 0.0
H1137 H 0.71261 0.6825 0.69091 0.0
H1138 H 0.74673 0.68577 0.77451 0.0
H1139 H 0.76959 0.68009 0.69247 0.0
C1140 C 0.80106 0.69692 0.70631 0.0
C1141 C 0.81426 0.70871 0.72648 0.0
C1142 C 0.73903 0.68468 0.75622 0.0
C1143 C 0.77113 0.69133 0.7315 0.0
C1144 C 0.71917 0.6827 0.75614 0.0
C1145 C 0.70957 0.68247 0.73259 0.0
C1146 C 0.74899 0.68602 0.73258 0.0
C1147 C 0.71966 0.68293 0.70948 0.0
C1148 C 0.77951 0.68829 0.70872 0.0
C1149 C 0.80519 0.71017 0.74962 0.0
N1150 N 0.73883 0.68477 0.71005 0.0
N1151 N 0.78419 0.70179 0.75142 0.0
H1152 H 0.8139 0.7362 0.08337 0.0
H1153 H 0.7419 0.76784 0.15984 0.0
H1154 H 0.81516 0.74268 0.16644 0.0
H1155 H 0.74711 0.77096 0.07667 0.0
H1156 H 0.77116 0.76181 0.1623 0.0
H1157 H 0.79229 0.75194 0.08009 0.0
C1158 C 0.80993 0.74123 0.10093 0.0
C1159 C 0.81624 0.73791 0.12527 0.0
C1160 C 0.76617 0.76407 0.14348 0.0
C1161 C 0.79118 0.75577 0.1216 0.0
C1162 C 0.74941 0.76751 0.14205 0.0
C1163 C 0.74192 0.76975 0.11797 0.0
C1164 C 0.77543 0.76246 0.12064 0.0
C1165 C 0.75239 0.76933 0.09562 0.0
C1166 C 0.79754 0.75021 0.09901 0.0
C1167 C 0.81066 0.74485 0.14728 0.0
N1168 N 0.76841 0.76541 0.09746 0.0
N1169 N 0.79823 0.75317 0.14493 0.0
H1170 H 0.40457 0.16591 0.13269 0.0
H1171 H 0.31647 0.05112 0.15488 0.0
H1172 H 0.35105 0.14903 0.18105 0.0
H1173 H 0.36392 0.07134 0.09619 0.0
H1174 H 0.33088 0.08622 0.16914 0.0
H1175 H 0.3919 0.13053 0.12362 0.0
C1176 C 0.39013 0.15479 0.1414 0.0
C1177 C 0.37877 0.16057 0.15741 0.0
C1178 C 0.33812 0.08288 0.15321 0.0
C1179 C 0.36417 0.1198 0.14726 0.0
C1180 C 0.32994 0.06288 0.14512 0.0
C1181 C 0.33888 0.0583 0.12417 0.0
C1182 C 0.35545 0.09827 0.14041 0.0
C1183 C 0.35635 0.07413 0.11224 0.0
C1184 C 0.38293 0.13453 0.13629 0.0
C1185 C 0.3604 0.14534 0.16866 0.0
N1186 N 0.364 0.09332 0.1205 0.0
N1187 N 0.35359 0.12565 0.16324 0.0
H1188 H 0.9165 0.24551 0.20217 0.0
H1189 H 1.00056 0.3143 0.09984 0.0
H1190 H 0.90605 0.24079 0.11961 0.0
H1191 H 0.00426 0.32453 0.18233 0.0
H1192 H 0.97154 0.28014 0.10673 0.0
H1193 H 0.95383 0.2658 0.19473 0.0
C1194 C 0.92214 0.24826 0.18244 0.0
C1195 C 0.9082 0.24205 0.16148 0.0
C1196 C 0.97906 0.28972 0.12334 0.0
C1197 C 0.95074 0.26569 0.15285 0.0
C1198 C 0.99559 0.3092 0.11943 0.0
C1199 C 0.00436 0.32238 0.14052 0.0
C1200 C 0.97144 0.2835 0.14849 0.0
C1201 C 0.99753 0.31499 0.16549 0.0
C1202 C 0.94344 0.25991 0.17819 0.0
C1203 C 0.91629 0.24565 0.13632 0.0
N1204 N 0.98127 0.29615 0.16875 0.0
N1205 N 0.93706 0.25778 0.13268 0.0
H1206 H 0.34284 0.28392 0.69264 0.0
H1207 H 0.31702 0.31502 0.55593 0.0
H1208 H 0.38318 0.30022 0.62647 0.0
H1209 H 0.29131 0.32209 0.62742 0.0
H1210 H 0.33591 0.30194 0.58038 0.0
H1211 H 0.31942 0.29181 0.66798 0.0
C1212 C 0.34677 0.28927 0.67295 0.0
C1213 C 0.365 0.29161 0.66157 0.0
C1214 C 0.32592 0.30613 0.59065 0.0
C1215 C 0.33819 0.30015 0.63319 0.0
C1216 C 0.31493 0.31339 0.5767 0.0
C1217 C 0.30276 0.31995 0.58967 0.0
C1218 C 0.32459 0.30521 0.61773 0.0
C1219 C 0.30064 0.31738 0.61663 0.0
C1220 C 0.33343 0.2937 0.65892 0.0
C1221 C 0.36945 0.29854 0.63603 0.0
N1222 N 0.31164 0.31038 0.62983 0.0
N1223 N 0.35606 0.30245 0.62262 0.0
H1224 H 0.80778 0.12192 0.69109 0.0
H1225 H 0.73424 0.07487 0.56742 0.0
H1226 H 0.80413 0.15832 0.62996 0.0
H1227 H 0.72796 0.04084 0.63665 0.0
H1228 H 0.7609 0.10514 0.58899 0.0
H1229 H 0.77943 0.09207 0.67087 0.0
C1230 C 0.80092 0.12367 0.67343 0.0
C1231 C 0.80844 0.1427 0.66214 0.0
C1232 C 0.7537 0.09108 0.59949 0.0
C1233 C 0.77592 0.1083 0.63862 0.0
C1234 C 0.73853 0.07368 0.58714 0.0
C1235 C 0.72879 0.05513 0.60018 0.0
C1236 C 0.75946 0.09006 0.62509 0.0
C1237 C 0.73502 0.05472 0.62578 0.0
C1238 C 0.78467 0.10655 0.66191 0.0
C1239 C 0.79879 0.14398 0.63936 0.0
N1240 N 0.74999 0.0719 0.63734 0.0
N1241 N 0.78315 0.12697 0.6282 0.0
H1242 H 0.90932 0.70994 0.66801 0.0
H1243 H 0.01782 0.7591 0.59223 0.0
H1244 H 0.93736 0.76783 0.63063 0.0
H1245 H 0.99481 0.70611 0.63985 0.0
H1246 H 0.98519 0.75916 0.59932 0.0
H1247 H 0.93739 0.70504 0.65119 0.0
C1248 C 0.92121 0.72148 0.65601 0.0
C1249 C 0.92116 0.73942 0.651 0.0
C1250 C 0.98722 0.7474 0.60798 0.0
C1251 C 0.95326 0.73397 0.63176 0.0
C1252 C 0.00581 0.74732 0.60384 0.0
C1253 C 0.00918 0.73276 0.61574 0.0
C1254 C 0.97189 0.73278 0.62406 0.0
C1255 C 0.99303 0.71781 0.63058 0.0
C1256 C 0.93725 0.71872 0.64648 0.0
C1257 C 0.93693 0.75387 0.63529 0.0
N1258 N 0.97518 0.71831 0.63449 0.0
N1259 N 0.95239 0.7509 0.6264 0.0
H1260 H 0.86655 0.6601 0.20534 0.0
H1261 H 0.99028 0.72192 0.20529 0.0
H1262 H 0.90242 0.72293 0.18554 0.0
H1263 H 0.95515 0.66062 0.23177 0.0
H1264 H 0.9583 0.72332 0.20214 0.0
H1265 H 0.89841 0.66081 0.21919 0.0
C1266 C 0.88113 0.67415 0.20416 0.0
C1267 C 0.88183 0.69146 0.19397 0.0
C1268 C 0.9575 0.70959 0.20887 0.0
C1269 C 0.91851 0.69229 0.2097 0.0
C1270 C 0.97579 0.70873 0.21063 0.0
C1271 C 0.97538 0.691 0.21848 0.0
C1272 C 0.93844 0.69251 0.2147 0.0
C1273 C 0.95618 0.67455 0.22553 0.0
C1274 C 0.89933 0.67452 0.21213 0.0
C1275 C 0.90114 0.70924 0.19319 0.0
N1276 N 0.9384 0.67561 0.22313 0.0
N1277 N 0.91874 0.70912 0.20063 0.0
H1278 H 0.44464 0.31941 0.19776 0.0
H1279 H 0.42462 0.36772 0.32386 0.0
H1280 H 0.41748 0.28712 0.26824 0.0
H1281 H 0.43195 0.39364 0.24776 0.0
H1282 H 0.43045 0.34171 0.30562 0.0
H1283 H 0.44821 0.35006 0.21785 0.0
C1284 C 0.43984 0.31891 0.21763 0.0
C1285 C 0.43065 0.30077 0.23141 0.0
C1286 C 0.43097 0.35318 0.29293 0.0
C1287 C 0.43463 0.33551 0.25435 0.0
C1288 C 0.42767 0.3681 0.30332 0.0
C1289 C 0.42746 0.38275 0.28725 0.0
C1290 C 0.43413 0.35284 0.26624 0.0
C1291 C 0.43178 0.38254 0.26083 0.0
C1292 C 0.44172 0.33631 0.22898 0.0
C1293 C 0.42444 0.30079 0.25696 0.0
N1294 N 0.43475 0.36766 0.25108 0.0
N1295 N 0.42648 0.31787 0.26759 0.0
H1296 H 0.81242 0.18542 0.20823 0.0
H1297 H 0.70762 0.13327 0.29029 0.0
H1298 H 0.79083 0.2201 0.25041 0.0
H1299 H 0.71975 0.10551 0.22497 0.0
H1300 H 0.74071 0.16427 0.2821 0.0
H1301 H 0.78122 0.15469 0.22121 0.0
C1302 C 0.80121 0.18658 0.22043 0.0
C1303 C 0.80412 0.20535 0.22808 0.0
C1304 C 0.73603 0.15133 0.26965 0.0
C1305 C 0.76839 0.17023 0.24294 0.0
C1306 C 0.71724 0.13369 0.27431 0.0
C1307 C 0.7109 0.11687 0.25817 0.0
C1308 C 0.74861 0.1519 0.24906 0.0
C1309 C 0.72392 0.11817 0.23776 0.0
C1310 C 0.78337 0.16903 0.22772 0.0
C1311 C 0.78907 0.20592 0.24392 0.0
N1312 N 0.74217 0.13535 0.23385 0.0
N1313 N 0.77177 0.18856 0.25081 0.0
H1314 H 0.00465 0.51019 0.8961 0.0
H1315 H 0.05269 0.47567 0.78191 0.0
H1316 H 0.07045 0.54009 0.88047 0.0
H1317 H 0.99141 0.43959 0.81395 0.0
H1318 H 0.05791 0.50375 0.81016 0.0
H1319 H 0.99824 0.48875 0.85843 0.0
C1320 C 0.01778 0.51225 0.88469 0.0
C1321 C 0.03817 0.52662 0.8918 0.0
C1322 C 0.04319 0.4898 0.81056 0.0
C1323 C 0.03092 0.50212 0.84835 0.0
C1324 C 0.04014 0.47389 0.79431 0.0
C1325 C 0.02163 0.45533 0.79577 0.0
C1326 C 0.02749 0.48707 0.82801 0.0
C1327 C 0.00595 0.45364 0.81237 0.0
C1328 C 0.0141 0.50007 0.86307 0.0
C1329 C 0.05452 0.52909 0.87575 0.0
N1330 N 0.00928 0.46923 0.82792 0.0
N1331 N 0.05058 0.51674 0.85491 0.0
H1332 H 0.53196 0.57056 0.89245 0.0
H1333 H 0.6458 0.65737 0.85218 0.0
H1334 H 0.58216 0.60202 0.94721 0.0
H1335 H 0.59743 0.62151 0.79691 0.0
H1336 H 0.6231 0.63674 0.88712 0.0
H1337 H 0.5559 0.58859 0.85719 0.0
C1338 C 0.54802 0.58125 0.89708 0.0
C1339 C 0.55499 0.58483 0.9229 0.0
C1340 C 0.61748 0.63329 0.86734 0.0
C1341 C 0.58261 0.60556 0.88249 0.0
C1342 C 0.63046 0.64508 0.84734 0.0
C1343 C 0.62352 0.64126 0.82152 0.0
C1344 C 0.59732 0.61759 0.86157 0.0
C1345 C 0.60347 0.62507 0.8165 0.0
C1346 C 0.56173 0.59148 0.8769 0.0
C1347 C 0.5761 0.59864 0.92764 0.0
N1348 N 0.59105 0.61394 0.83633 0.0
N1349 N 0.58911 0.60859 0.90767 0.0
H1350 H 0.45416 0.07121 0.0114 0.0
H1351 H 0.44569 0.07661 0.85833 0.0
H1352 H 0.50446 0.11526 0.96517 0.0
H1353 H 0.392 0.05324 0.90805 0.0
H1354 H 0.46817 0.08661 0.89681 0.0
H1355 H 0.43149 0.06071 0.97306 0.0
C1356 C 0.46031 0.07875 0.99316 0.0
C1357 C 0.48107 0.09416 0.99133 0.0
C1358 C 0.45146 0.07922 0.89921 0.0
C1359 C 0.45557 0.08204 0.9475 0.0
C1360 C 0.43863 0.07334 0.87732 0.0
C1361 C 0.41698 0.06414 0.88006 0.0
C1362 C 0.44251 0.07556 0.92391 0.0
C1363 C 0.40864 0.06039 0.9051 0.0
C1364 C 0.44745 0.07278 0.97136 0.0
C1365 C 0.48844 0.10351 0.96735 0.0
N1366 N 0.42143 0.06609 0.92609 0.0
N1367 N 0.47573 0.09716 0.94623 0.0
H1368 H 0.46686 0.02227 0.61997 0.0
H1369 H 0.4513 0.05818 0.75957 0.0
H1370 H 0.51782 0.06543 0.66728 0.0
H1371 H 0.40104 0.02325 0.70606 0.0
H1372 H 0.47588 0.05792 0.72832 0.0
H1373 H 0.44262 0.01945 0.65359 0.0
C1374 C 0.473 0.0312 0.63738 0.0
C1375 C 0.49448 0.04433 0.64053 0.0
C1376 C 0.45946 0.05024 0.72348 0.0
C1377 C 0.46667 0.04095 0.67944 0.0
C1378 C 0.4454 0.05034 0.74134 0.0
C1379 C 0.42406 0.04081 0.73539 0.0
C1380 C 0.45214 0.04046 0.69954 0.0
C1381 C 0.41734 0.03089 0.71145 0.0
C1382 C 0.45912 0.0295 0.65667 0.0
C1383 C 0.50146 0.05508 0.66394 0.0
N1384 N 0.43133 0.03101 0.69442 0.0
N1385 N 0.48759 0.05324 0.68241 0.0
H1386 H 0.01439 0.49791 0.56229 0.0
H1387 H 0.0597 0.45065 0.6646 0.0
H1388 H 0.07728 0.50871 0.55806 0.0
H1389 H 0.99783 0.44269 0.66636 0.0
H1390 H 0.0667 0.47092 0.6251 0.0
H1391 H 0.0084 0.47686 0.59977 0.0
C1392 C 0.02708 0.49604 0.56928 0.0
C1393 C 0.0465 0.50542 0.55692 0.0
C1394 C 0.0516 0.46466 0.63415 0.0
C1395 C 0.03955 0.48078 0.60035 0.0
C1396 C 0.04757 0.45306 0.65667 0.0
C1397 C 0.02815 0.44496 0.66894 0.0
C1398 C 0.03607 0.46814 0.62382 0.0
C1399 C 0.01306 0.44863 0.65775 0.0
C1400 C 0.02357 0.48381 0.59077 0.0
C1401 C 0.06206 0.5018 0.56684 0.0
N1402 N 0.01735 0.45991 0.63599 0.0
N1403 N 0.05829 0.48985 0.58803 0.0
H1404 H 0.56772 0.61149 0.54676 0.0
H1405 H 0.59845 0.62247 0.69701 0.0
H1406 H 0.54375 0.56149 0.59979 0.0
H1407 H 0.62201 0.67202 0.64329 0.0
H1408 H 0.57538 0.60026 0.66283 0.0
H1409 H 0.58477 0.63439 0.58311 0.0
C1410 C 0.56587 0.60534 0.56606 0.0
C1411 C 0.5545 0.58454 0.57017 0.0
C1412 C 0.5855 0.61604 0.65863 0.0
C1413 C 0.57408 0.61061 0.61186 0.0
C1414 C 0.59865 0.62871 0.67815 0.0
C1415 C 0.61236 0.64907 0.67294 0.0
C1416 C 0.58612 0.62383 0.6338 0.0
C1417 C 0.6119 0.65637 0.64815 0.0
C1418 C 0.57564 0.61841 0.58682 0.0
C1419 C 0.55254 0.57742 0.59565 0.0
N1420 N 0.59913 0.64375 0.6295 0.0
N1421 N 0.5624 0.59041 0.61549 0.0
H1422 H 0.05782 0.57931 0.09969 0.0
H1423 H 0.03695 0.67042 0.12595 0.0
H1424 H 0.04008 0.60782 0.04086 0.0
H1425 H 0.03958 0.63413 0.1881 0.0
H1426 H 0.04124 0.6491 0.09486 0.0
H1427 H 0.05455 0.60076 0.13252 0.0
C1428 C 0.05342 0.59019 0.09365 0.0
C1429 C 0.04919 0.59177 0.06747 0.0
C1430 C 0.04086 0.6457 0.11527 0.0
C1431 C 0.04533 0.61621 0.10486 0.0
C1432 C 0.03844 0.65794 0.13314 0.0
C1433 C 0.03789 0.6541 0.15979 0.0
C1434 C 0.0429 0.62944 0.12389 0.0
C1435 C 0.03986 0.63761 0.16775 0.0
C1436 C 0.05139 0.60229 0.11241 0.0
C1437 C 0.04328 0.60594 0.0608 0.0
N1438 N 0.04235 0.62589 0.14985 0.0
N1439 N 0.04158 0.6176 0.07931 0.0
H1440 H 0.51228 0.54288 0.14653 0.0
H1441 H 0.41779 0.43429 0.18256 0.0
H1442 H 0.47484 0.49876 0.0888 0.0
H1443 H 0.44826 0.48295 0.23758 0.0
H1444 H 0.43833 0.45733 0.14788 0.0
H1445 H 0.48905 0.52083 0.18011 0.0
C1446 C 0.49915 0.52853 0.14093 0.0
C1447 C 0.49556 0.52263 0.11482 0.0
C1448 C 0.44041 0.46298 0.16752 0.0
C1449 C 0.4688 0.4972 0.15324 0.0
C1450 C 0.42869 0.44983 0.18735 0.0
C1451 C 0.43133 0.45664 0.2131 0.0
C1452 C 0.45504 0.48306 0.17347 0.0
C1453 C 0.44568 0.47698 0.21808 0.0
C1454 C 0.48581 0.51597 0.1601 0.0
C1455 C 0.4781 0.50398 0.10866 0.0
N1456 N 0.45707 0.48939 0.19852 0.0
N1457 N 0.46546 0.49185 0.12774 0.0
H1458 H 0.52918 0.05461 0.15263 0.0
H1459 H 0.61276 0.08895 0.26688 0.0
H1460 H 0.57089 0.1167 0.17279 0.0
H1461 H 0.58947 0.03382 0.22334 0.0
H1462 H 0.58825 0.09616 0.24357 0.0
H1463 H 0.54219 0.04428 0.18956 0.0
C1464 C 0.54101 0.06609 0.16491 0.0
C1465 C 0.54949 0.08656 0.15914 0.0
C1466 C 0.58816 0.08224 0.23969 0.0
C1467 C 0.56411 0.0748 0.2017 0.0
C1468 C 0.60197 0.07804 0.25308 0.0
C1469 C 0.6032 0.06089 0.24669 0.0
C1470 C 0.5754 0.06899 0.22021 0.0
C1471 C 0.5891 0.04731 0.22856 0.0
C1472 C 0.54828 0.06016 0.1861 0.0
C1473 C 0.56414 0.10077 0.17637 0.0
N1474 N 0.5759 0.05175 0.21574 0.0
N1475 N 0.57128 0.09462 0.19671 0.0
H1476 H 0.57835 0.04976 0.48036 0.0
H1477 H 0.64432 0.11804 0.3619 0.0
H1478 H 0.59915 0.11311 0.4757 0.0
H1479 H 0.63484 0.05862 0.37627 0.0
H1480 H 0.62804 0.11679 0.40348 0.0
H1481 H 0.59886 0.05274 0.44198 0.0
C1482 C 0.58725 0.0643 0.47123 0.0
C1483 C 0.58696 0.08118 0.48112 0.0
C1484 C 0.6297 0.10411 0.39762 0.0
C1485 C 0.61049 0.08476 0.4372 0.0
C1486 C 0.63898 0.10481 0.37388 0.0
C1487 C 0.64083 0.08836 0.36549 0.0
C1488 C 0.62202 0.08677 0.41296 0.0
C1489 C 0.63369 0.07164 0.38187 0.0
C1490 C 0.59906 0.06603 0.44943 0.0
C1491 C 0.59905 0.09975 0.4688 0.0
N1492 N 0.62444 0.0712 0.40468 0.0
N1493 N 0.61018 0.10101 0.44733 0.0
H1494 H 0.03244 0.56382 0.36355 0.0
H1495 H 0.02908 0.66557 0.3401 0.0
H1496 H 0.03522 0.60315 0.42511 0.0
H1497 H 0.02102 0.62398 0.27883 0.0
H1498 H 0.0314 0.64288 0.37136 0.0
H1499 H 0.02872 0.58573 0.33222 0.0
C1500 C 0.03238 0.57709 0.37054 0.0
C1501 C 0.03417 0.58156 0.39716 0.0
C1502 C 0.02904 0.63864 0.3511 0.0
C1503 C 0.02974 0.60676 0.36118 0.0
C1504 C 0.02769 0.65162 0.33318 0.0
C1505 C 0.02486 0.64675 0.30668 0.0
C1506 C 0.02767 0.62061 0.3426 0.0
C1507 C 0.02317 0.6284 0.29901 0.0
C1508 C 0.03011 0.58955 0.35259 0.0
C1509 C 0.03366 0.59889 0.40492 0.0
N1510 N 0.0247 0.61608 0.31682 0.0
N1511 N 0.03156 0.61083 0.38707 0.0
H1512 H 0.4809 0.52738 0.47553 0.0
H1513 H 0.46534 0.48562 0.33064 0.0
H1514 H 0.53214 0.54258 0.42369 0.0
H1515 H 0.4204 0.45931 0.39195 0.0
H1516 H 0.48793 0.51341 0.36001 0.0
H1517 H 0.45667 0.51019 0.44 0.0
C1518 C 0.48709 0.52749 0.45653 0.0
C1519 C 0.50859 0.53602 0.45274 0.0
C1520 C 0.47296 0.50168 0.3668 0.0
C1521 C 0.48086 0.51609 0.41205 0.0
C1522 C 0.46009 0.48589 0.3501 0.0
C1523 C 0.44118 0.47002 0.35909 0.0
C1524 C 0.46661 0.50166 0.39241 0.0
C1525 C 0.43504 0.47106 0.3844 0.0
C1526 C 0.47322 0.51758 0.43627 0.0
C1527 C 0.51568 0.53594 0.42758 0.0
N1528 N 0.44776 0.48652 0.40019 0.0
N1529 N 0.50182 0.52575 0.40824 0.0
H1530 H 0.72548 0.89571 0.24716 0.0
H1531 H 0.65532 0.7854 0.18963 0.0
H1532 H 0.67312 0.84857 0.28758 0.0
H1533 H 0.70382 0.83398 0.14615 0.0
H1534 H 0.65918 0.80916 0.22355 0.0
H1535 H 0.71562 0.87448 0.20859 0.0
C1536 C 0.71173 0.88094 0.24787 0.0
C1537 C 0.70022 0.87387 0.27083 0.0
C1538 C 0.66881 0.81475 0.20648 0.0
C1539 C 0.6889 0.84928 0.22646 0.0
C1540 C 0.6666 0.80117 0.187 0.0
C1541 C 0.67938 0.80765 0.165 0.0
C1542 C 0.68414 0.83505 0.20429 0.0
C1543 C 0.69361 0.82829 0.1627 0.0
C1544 C 0.70611 0.86881 0.22574 0.0
C1545 C 0.68248 0.85466 0.27039 0.0
N1546 N 0.69582 0.8412 0.18227 0.0
N1547 N 0.67753 0.84295 0.24869 0.0
H1548 H 0.21984 0.89313 0.29972 0.0
H1549 H 0.27863 0.9835 0.19847 0.0
H1550 H 0.22152 0.95008 0.30313 0.0
H1551 H 0.2734 0.92539 0.18723 0.0
H1552 H 0.26106 0.97214 0.23981 0.0
H1553 H 0.24298 0.90533 0.26172 0.0
C1554 C 0.22539 0.90828 0.29281 0.0
C1555 C 0.21865 0.92057 0.30443 0.0
C1556 C 0.26377 0.96182 0.22841 0.0
C1557 C 0.24483 0.93451 0.26117 0.0
C1558 C 0.27383 0.96833 0.2047 0.0
C1559 C 0.27739 0.95536 0.18914 0.0
C1560 C 0.25705 0.9421 0.23685 0.0
C1561 C 0.27089 0.93589 0.19849 0.0
C1562 C 0.23843 0.91518 0.27104 0.0
C1563 C 0.22613 0.94001 0.29459 0.0
N1564 N 0.26093 0.9298 0.22166 0.0
N1565 N 0.23867 0.94629 0.27359 0.0
H1566 H 0.17404 0.38643 0.21785 0.0
H1567 H 0.09263 0.42316 0.19423 0.0
H1568 H 0.14686 0.40462 0.27827 0.0
H1569 H 0.11225 0.39608 0.13561 0.0
H1570 H 0.12065 0.42642 0.22236 0.0
H1571 H 0.15957 0.39935 0.18559 0.0
C1572 C 0.16518 0.39332 0.22433 0.0
C1573 C 0.16111 0.39392 0.25073 0.0
C1574 C 0.11909 0.42013 0.20315 0.0
C1575 C 0.14463 0.40885 0.21396 0.0
C1576 C 0.10312 0.4183 0.18702 0.0
C1577 C 0.09971 0.40877 0.16282 0.0
C1578 C 0.13165 0.41227 0.19507 0.0
C1579 C 0.11405 0.40316 0.15432 0.0
C1580 C 0.15705 0.40082 0.20592 0.0
C1581 C 0.15018 0.40365 0.25812 0.0
N1582 N 0.12914 0.4046 0.17067 0.0
N1583 N 0.14197 0.41041 0.23978 0.0
H1584 H 0.13108 0.37454 0.91377 0.0
H1585 H 0.06807 0.3459 0.04693 0.0
H1586 H 0.10913 0.3176 0.95214 0.0
H1587 H 0.09292 0.40383 0.01016 0.0
H1588 H 0.08154 0.33468 0.01149 0.0
H1589 H 0.11579 0.38486 0.94791 0.0
C1590 C 0.12312 0.3642 0.92943 0.0
C1591 C 0.12161 0.34521 0.93017 0.0
C1592 C 0.08402 0.34983 0.01114 0.0
C1593 C 0.10378 0.35692 0.96935 0.0
C1594 C 0.07633 0.35627 0.03139 0.0
C1595 C 0.07941 0.37589 0.03159 0.0
C1596 C 0.09489 0.36307 0.99087 0.0
C1597 C 0.09021 0.38861 0.01087 0.0
C1598 C 0.11428 0.37009 0.94888 0.0
C1599 C 0.11061 0.33231 0.95068 0.0
N1600 N 0.09757 0.38199 0.99139 0.0
N1601 N 0.10221 0.33844 0.96951 0.0
H1602 H 0.67811 0.87586 0.94167 0.0
H1603 H 0.70436 0.79116 0.98622 0.0
H1604 H 0.69577 0.84436 0.88757 0.0
H1605 H 0.69372 0.82854 0.03923 0.0
H1606 H 0.7035 0.81144 0.95012 0.0
H1607 H 0.68655 0.8604 0.97747 0.0
C1608 C 0.68427 0.86601 0.93735 0.0
C1609 C 0.68644 0.86157 0.91157 0.0
C1610 C 0.70153 0.81532 0.96965 0.0
C1611 C 0.6955 0.84308 0.95275 0.0
C1612 C 0.70198 0.8037 0.99036 0.0
C1613 C 0.69899 0.808 0.01598 0.0
C1614 C 0.69794 0.83137 0.97442 0.0
C1615 C 0.69604 0.82453 0.01994 0.0
C1616 C 0.68896 0.85705 0.95786 0.0
C1617 C 0.69421 0.84847 0.90714 0.0
N1618 N 0.69544 0.83545 0.99946 0.0
N1619 N 0.69819 0.83946 0.92752 0.0
H1620 H 0.18995 0.89922 0.96389 0.0
H1621 H 0.26417 1.00124 0.03809 0.0
H1622 H 0.20184 0.95768 0.93905 0.0
H1623 H 0.25044 0.94328 0.06711 0.0
H1624 H 0.2368 0.98473 1.00566 0.0
H1625 H 0.20777 0.91407 1.00479 0.0
C1626 C 0.1962 0.91516 0.96705 0.0
C1627 C 0.19472 0.92728 0.9477 0.0
C1628 C 0.23944 0.97552 0.01932 0.0
C1629 C 0.21498 0.94434 0.99469 0.0
C1630 C 0.25503 0.98496 0.03792 0.0
C1631 C 0.25962 0.97357 0.05513 0.0
C1632 C 0.2286 0.95447 0.01747 0.0
C1633 C 0.24731 0.95257 0.05419 0.0
C1634 C 0.20624 0.9236 0.99052 0.0
C1635 C 0.20261 0.94773 0.95325 0.0
N1636 N 0.23258 0.94364 0.03527 0.0
N1637 N 0.21261 0.95563 0.97605 0.0
H1638 H 0.71255 0.90168 0.4507 0.0
H1639 H 0.66889 0.97493 0.48348 0.0
H1640 H 0.67614 0.91449 0.39674 0.0
H1641 H 0.6896 0.94955 0.5432 0.0
H1642 H 0.67119 0.95255 0.45188 0.0
H1643 H 0.70379 0.91816 0.48504 0.0
C1644 C 0.70241 0.90767 0.44614 0.0
C1645 C 0.69511 0.9067 0.4207 0.0
C1646 C 0.67508 0.95169 0.47189 0.0
C1647 C 0.68535 0.92602 0.46001 0.0
C1648 C 0.67388 0.96457 0.49002 0.0
C1649 C 0.67922 0.96429 0.51612 0.0
C1650 C 0.68203 0.9385 0.47961 0.0
C1651 C 0.68535 0.95033 0.52334 0.0
C1652 C 0.69745 0.91711 0.46581 0.0
C1653 C 0.68205 0.91476 0.41603 0.0
N1654 N 0.68684 0.93818 0.50513 0.0
N1655 N 0.67785 0.92431 0.43537 0.0
H1656 H 0.15101 0.88812 0.45976 0.0
H1657 H 0.10504 0.77799 0.51902 0.0
H1658 H 0.15895 0.8423 0.42195 0.0
H1659 H 0.11006 0.82887 0.56109 0.0
H1660 H 0.12415 0.80047 0.483 0.0
H1661 H 0.13603 0.86617 0.49694 0.0
C1662 C 0.14982 0.87346 0.45944 0.0
C1663 C 0.15626 0.86704 0.43773 0.0
C1664 C 0.12112 0.80668 0.50018 0.0
C1665 C 0.13858 0.84146 0.48028 0.0
C1666 C 0.11011 0.79385 0.5207 0.0
C1667 C 0.10581 0.8015 0.54315 0.0
C1668 C 0.12774 0.82729 0.50201 0.0
C1669 C 0.11291 0.82221 0.54423 0.0
C1670 C 0.14121 0.86089 0.48071 0.0
C1671 C 0.15434 0.84789 0.43841 0.0
N1672 N 0.12339 0.83429 0.52399 0.0
N1673 N 0.14542 0.83563 0.45924 0.0
H1674 H 0.18364 0.39666 0.44366 0.0
H1675 H 0.2624 0.3632 0.47703 0.0
H1676 H 0.24331 0.42285 0.40617 0.0
H1677 H 0.23979 0.38081 0.54338 0.0
H1678 H 0.248 0.37855 0.44883 0.0
H1679 H 0.1981 0.38697 0.48024 0.0
C1680 C 0.19998 0.40111 0.44357 0.0
C1681 C 0.2123 0.41037 0.42168 0.0
C1682 C 0.24612 0.37896 0.46958 0.0
C1683 C 0.22846 0.39872 0.46274 0.0
C1684 C 0.25413 0.37001 0.48575 0.0
C1685 C 0.25251 0.37085 0.51274 0.0
C1686 C 0.23599 0.38852 0.48023 0.0
C1687 C 0.24147 0.37989 0.5227 0.0
C1688 C 0.20812 0.39541 0.46433 0.0
C1689 C 0.23328 0.4155 0.4225 0.0
N1690 N 0.23352 0.3884 0.50637 0.0
N1691 N 0.24055 0.40911 0.44231 0.0
H1692 H 0.17191 0.32763 0.7415 0.0
H1693 H 0.28581 0.36076 0.6883 0.0
H1694 H 0.2243 0.3414 0.79122 0.0
H1695 H 0.23612 0.35714 0.64047 0.0
H1696 H 0.263 0.35162 0.7259 0.0
H1697 H 0.19447 0.33552 0.70384 0.0
C1698 C 0.18808 0.33203 0.7445 0.0
C1699 C 0.19623 0.33386 0.76959 0.0
C1700 C 0.25711 0.35289 0.7072 0.0
C1701 C 0.22225 0.34323 0.72652 0.0
C1702 C 0.27014 0.35814 0.6857 0.0
C1703 C 0.26289 0.35976 0.66116 0.0
C1704 C 0.23661 0.34906 0.70414 0.0
C1705 C 0.24241 0.35614 0.659 0.0
C1706 C 0.20102 0.33674 0.72298 0.0
C1707 C 0.21743 0.33998 0.77226 0.0
N1708 N 0.22997 0.35089 0.68018 0.0
N1709 N 0.22971 0.34446 0.75102 0.0
H1710 H 0.63522 0.89547 0.7655 0.0
H1711 H 0.7165 0.97261 0.66276 0.0
H1712 H 0.70133 0.91859 0.77274 0.0
H1713 H 0.65019 0.94924 0.65935 0.0
H1714 H 0.71177 0.95256 0.70171 0.0
H1715 H 0.64097 0.91419 0.7257 0.0
C1716 C 0.65105 0.90447 0.75872 0.0
C1717 C 0.66783 0.90544 0.77282 0.0
C1718 C 0.69826 0.95179 0.69243 0.0
C1719 C 0.67456 0.92731 0.72651 0.0
C1720 C 0.70091 0.96325 0.67012 0.0
C1721 C 0.6837 0.96271 0.65759 0.0
C1722 C 0.67822 0.93958 0.70245 0.0
C1723 C 0.66394 0.95024 0.66821 0.0
C1724 C 0.6543 0.91522 0.73581 0.0
C1725 C 0.68791 0.91732 0.76261 0.0
N1726 N 0.66179 0.93926 0.6899 0.0
N1727 N 0.69072 0.92787 0.74016 0.0
H1728 H 0.15287 0.82858 0.79055 0.0
H1729 H 0.10475 0.8047 0.64721 0.0
H1730 H 0.12986 0.86396 0.7531 0.0
H1731 H 0.11174 0.76244 0.69522 0.0
H1732 H 0.12031 0.8299 0.68201 0.0
H1733 H 0.14397 0.8075 0.75205 0.0
C1734 C 0.14614 0.83207 0.77413 0.0
C1735 C 0.14208 0.84808 0.77513 0.0
C1736 C 0.11867 0.81518 0.68471 0.0
C1737 C 0.13166 0.82378 0.73084 0.0
C1738 C 0.11001 0.80089 0.6648 0.0
C1739 C 0.10687 0.78144 0.66843 0.0
C1740 C 0.12445 0.80999 0.70818 0.0
C1741 C 0.11374 0.77721 0.69169 0.0
C1742 C 0.14095 0.81993 0.75216 0.0
C1743 C 0.13301 0.85163 0.75328 0.0
N1744 N 0.1221 0.79131 0.71068 0.0
N1745 N 0.12807 0.83955 0.73201 0.0
H1746 H 0.34298 0.18581 0.65502 0.0
H1747 H 0.37444 0.17329 0.51049 0.0
H1748 H 0.39164 0.23396 0.61105 0.0
H1749 H 0.32763 0.12454 0.55561 0.0
H1750 H 0.37731 0.19686 0.54462 0.0
H1751 H 0.33369 0.16409 0.61657 0.0
C1752 C 0.35154 0.19187 0.63726 0.0
C1753 C 0.36827 0.21165 0.6364 0.0
C1754 C 0.36621 0.18102 0.54687 0.0
C1755 C 0.35781 0.18694 0.59235 0.0
C1756 C 0.36448 0.16759 0.52727 0.0
C1757 C 0.35098 0.14689 0.53031 0.0
C1758 C 0.35434 0.17366 0.5696 0.0
C1759 C 0.33849 0.14035 0.55258 0.0
C1760 C 0.34629 0.17948 0.61531 0.0
C1761 C 0.3788 0.21872 0.61279 0.0
N1762 N 0.34062 0.15362 0.57142 0.0
N1763 N 0.37352 0.20638 0.59185 0.0
H1764 H 0.92854 0.25678 0.6433 0.0
H1765 H 0.94757 0.28241 0.49252 0.0
H1766 H 0.90775 0.21078 0.58447 0.0
H1767 H 0.98105 0.32551 0.55314 0.0
H1768 H 0.93133 0.25606 0.52544 0.0
H1769 H 0.94671 0.28232 0.61019 0.0
C1770 C 0.92796 0.25206 0.6234 0.0
C1771 C 0.91664 0.23163 0.61665 0.0
C1772 C 0.94229 0.27128 0.53147 0.0
C1773 C 0.93721 0.26082 0.57846 0.0
C1774 C 0.95148 0.28635 0.51271 0.0
C1775 C 0.96568 0.30624 0.52005 0.0
C1776 C 0.94714 0.27618 0.55778 0.0
C1777 C 0.97022 0.31042 0.54652 0.0
C1778 C 0.93834 0.26664 0.60449 0.0
C1779 C 0.91647 0.22634 0.59056 0.0
N1780 N 0.96092 0.29558 0.56437 0.0
N1781 N 0.92642 0.24086 0.57237 0.0
H1782 H 0.85488 0.7913 0.60231 0.0
H1783 H 0.79823 0.71388 0.48603 0.0
H1784 H 0.85028 0.73298 0.59632 0.0
H1785 H 0.7891 0.76377 0.50448 0.0
H1786 H 0.82586 0.72582 0.51911 0.0
H1787 H 0.83899 0.78609 0.55953 0.0
C1788 C 0.85068 0.77745 0.59215 0.0
C1789 C 0.8535 0.76236 0.6036 0.0
C1790 C 0.81808 0.73436 0.51548 0.0
C1791 C 0.83558 0.7565 0.55421 0.0
C1792 C 0.80246 0.72763 0.49653 0.0
C1793 C 0.79125 0.73771 0.49293 0.0
C1794 C 0.8225 0.75132 0.53059 0.0
C1795 C 0.79721 0.75541 0.50704 0.0
C1796 C 0.84172 0.77456 0.56757 0.0
C1797 C 0.8483 0.74504 0.58879 0.0
N1798 N 0.81227 0.76153 0.52544 0.0
N1799 N 0.83937 0.7425 0.56505 0.0
H1800 H 0.78581 0.6509 0.25376 0.0
H1801 H 0.73384 0.70457 0.33057 0.0
H1802 H 0.77905 0.69903 0.22119 0.0
H1803 H 0.76755 0.67996 0.37003 0.0
H1804 H 0.74456 0.69743 0.28908 0.0
H1805 H 0.77318 0.65603 0.29545 0.0
C1806 C 0.78139 0.66234 0.25534 0.0
C1807 C 0.78343 0.67458 0.23411 0.0
C1808 C 0.74959 0.69358 0.30683 0.0
C1809 C 0.76902 0.68047 0.28141 0.0
C1810 C 0.74343 0.69759 0.33051 0.0
C1811 C 0.74988 0.69291 0.3538 0.0
C1812 C 0.76197 0.68449 0.30634 0.0
C1813 C 0.76236 0.68392 0.35253 0.0
C1814 C 0.77439 0.66538 0.27911 0.0
C1815 C 0.77778 0.68939 0.23719 0.0
N1816 N 0.76792 0.67988 0.32915 0.0
N1817 N 0.77074 0.69187 0.26036 0.0
H1818 H 0.41094 0.20547 0.27579 0.0
H1819 H 0.3274 0.14328 0.38576 0.0
H1820 H 0.34719 0.19229 0.27147 0.0
H1821 H 0.39146 0.15733 0.38808 0.0
H1822 H 0.33406 0.16133 0.3447 0.0
H1823 H 0.40377 0.18832 0.31713 0.0
C1824 C 0.39535 0.19898 0.2835 0.0
C1825 C 0.37964 0.20038 0.26986 0.0
C1826 C 0.34667 0.1605 0.35419 0.0
C1827 C 0.37127 0.18042 0.3179 0.0
C1828 C 0.34291 0.15018 0.37772 0.0
C1829 C 0.3589 0.1487 0.39057 0.0
C1830 C 0.3666 0.16949 0.34322 0.0
C1831 C 0.37863 0.15801 0.37901 0.0
C1832 C 0.39128 0.18913 0.30728 0.0
C1833 C 0.35981 0.19163 0.28118 0.0
N1834 N 0.38188 0.16793 0.35609 0.0
N1835 N 0.35619 0.182 0.30449 0.0
H1836 H 0.87711 0.27001 0.28661 0.0
H1837 H 0.97397 0.36476 0.35271 0.0
H1838 H 0.90841 0.32918 0.25278 0.0
H1839 H 0.93764 0.30796 0.3916 0.0
H1840 H 0.94991 0.35193 0.31613 0.0
H1841 H 0.89868 0.28358 0.32546 0.0
C1842 C 0.88849 0.28588 0.2874 0.0
C1843 C 0.89108 0.29846 0.26633 0.0
C1844 C 0.94713 0.34227 0.33268 0.0
C1845 C 0.91584 0.31411 0.31076 0.0
C1846 C 0.96092 0.34956 0.35359 0.0
C1847 C 0.9579 0.33738 0.37527 0.0
C1848 C 0.9302 0.32258 0.33327 0.0
C1849 C 0.94061 0.31787 0.37529 0.0
C1850 C 0.90074 0.29363 0.30963 0.0
C1851 C 0.90581 0.31897 0.26859 0.0
N1852 N 0.92747 0.31103 0.35455 0.0
N1853 N 0.91776 0.32612 0.2903 0.0
H1854 H 0.34351 0.24894 0.76642 0.0
H1855 H 0.37314 0.28664 0.91379 0.0
H1856 H 0.38313 0.23538 0.81362 0.0
H1857 H 0.34362 0.30744 0.85959 0.0
H1858 H 0.37164 0.26272 0.88064 0.0
H1859 H 0.33767 0.26491 0.80382 0.0
C1860 C 0.35073 0.24901 0.78473 0.0
C1861 C 0.36403 0.24096 0.78668 0.0
C1862 C 0.3653 0.2724 0.8762 0.0
C1863 C 0.35762 0.25958 0.82976 0.0
C1864 C 0.36607 0.28596 0.89514 0.0
C1865 C 0.35874 0.29923 0.88933 0.0
C1866 C 0.35686 0.27199 0.85154 0.0
C1867 C 0.34976 0.29773 0.86482 0.0
C1868 C 0.34748 0.25826 0.80612 0.0
C1869 C 0.37288 0.24151 0.81108 0.0
N1870 N 0.34917 0.28451 0.84691 0.0
N1871 N 0.36972 0.25087 0.83157 0.0
H1872 H 0.82406 0.19642 0.7796 0.0
H1873 H 0.75912 0.10843 0.88054 0.0
H1874 H 0.83306 0.1455 0.78968 0.0
H1875 H 0.76725 0.1679 0.88901 0.0
H1876 H 0.78258 0.12018 0.84346 0.0
H1877 H 0.7999 0.18476 0.8162 0.0
C1878 C 0.82092 0.18277 0.78951 0.0
C1879 C 0.83062 0.17193 0.78161 0.0
C1880 C 0.7792 0.13064 0.8534 0.0
C1881 C 0.80287 0.1584 0.82334 0.0
C1882 C 0.76569 0.12392 0.8745 0.0
C1883 C 0.76119 0.1372 0.888 0.0
C1884 C 0.78812 0.15073 0.84542 0.0
C1885 C 0.7703 0.15714 0.87926 0.0
C1886 C 0.80721 0.17617 0.81044 0.0
C1887 C 0.82612 0.15442 0.79528 0.0
N1888 N 0.78327 0.16329 0.8585 0.0
N1889 N 0.81247 0.14813 0.81534 0.0
H1890 H 0.88848 0.73413 0.79483 0.0
H1891 H 0.98973 0.73011 0.82737 0.0
H1892 H 0.94843 0.77841 0.76582 0.0
H1893 H 0.94045 0.71031 0.88348 0.0
H1894 H 0.97352 0.74572 0.80243 0.0
H1895 H 0.90587 0.72334 0.82632 0.0
C1896 C 0.90532 0.74177 0.79548 0.0
C1897 C 0.91711 0.75712 0.77783 0.0
C1898 C 0.96634 0.73808 0.82029 0.0
C1899 C 0.93696 0.74466 0.81306 0.0
C1900 C 0.97545 0.729 0.8344 0.0
C1901 C 0.96631 0.71878 0.85741 0.0
C1902 C 0.9477 0.73656 0.82892 0.0
C1903 C 0.94794 0.71803 0.86579 0.0
C1904 C 0.9152 0.73566 0.81338 0.0
C1905 C 0.93885 0.76662 0.77928 0.0
N1906 N 0.93905 0.72659 0.85134 0.0
N1907 N 0.9481 0.75999 0.79629 0.0
H1908 H 0.85986 0.65689 0.0643 0.0
H1909 H 0.95597 0.73886 0.98225 0.0
H1910 H 0.88544 0.72074 0.07445 0.0
H1911 H 0.94115 0.67703 0.98889 0.0
H1912 H 0.92879 0.73234 0.0138 0.0
H1913 H 0.88778 0.66368 0.03373 0.0
C1914 C 0.87127 0.67233 0.05996 0.0
C1915 C 0.87035 0.68827 0.07197 0.0
C1916 C 0.93158 0.72024 1.00845 0.0
C1917 C 0.90237 0.69617 0.03713 0.0
C1918 C 0.94711 0.72395 0.99044 0.0
C1919 C 0.95088 0.70848 0.98289 0.0
C1920 C 0.91954 0.70085 0.01873 0.0
C1921 C 0.93886 0.68945 0.99417 0.0
C1922 C 0.8873 0.6762 0.04269 0.0
C1923 C 0.8857 0.708 0.06587 0.0
N1924 N 0.92365 0.68614 0.01136 0.0
N1925 N 0.90102 0.7114 0.04881 0.0
H1926 H 0.33196 0.20982 0.11205 0.0
H1927 H 0.36733 0.3162 0.04424 0.0
H1928 H 0.36969 0.26652 0.15106 0.0
H1929 H 0.32687 0.25868 1.00855 0.0
H1930 H 0.36746 0.29877 0.08407 0.0
H1931 H 0.32865 0.22777 0.075 0.0
C1932 C 0.33936 0.22606 0.11301 0.0
C1933 C 0.35114 0.2366 0.13486 0.0
C1934 C 0.35848 0.28999 0.06756 0.0
C1935 C 0.34766 0.25747 0.09192 0.0
C1936 C 0.3584 0.29994 0.04475 0.0
C1937 C 0.34713 0.28896 0.02281 0.0
C1938 C 0.34724 0.26884 0.06852 0.0
C1939 C 0.33585 0.26787 0.0248 0.0
C1940 C 0.33752 0.23634 0.09171 0.0
C1941 C 0.36037 0.25769 0.13476 0.0
N1942 N 0.33627 0.25858 0.04708 0.0
N1943 N 0.35858 0.26742 0.11359 0.0
H1944 H 0.83898 0.23473 0.06733 0.0
H1945 H 0.74818 0.1213 0.05643 0.0
H1946 H 0.79349 0.20342 0.12682 0.0
H1947 H 0.77403 0.15684 0.98748 0.0
H1948 H 0.76884 0.15096 0.08269 0.0
H1949 H 0.81839 0.20663 0.03751 0.0
C1950 C 0.82455 0.22214 0.07403 0.0
C1951 C 0.81811 0.2213 0.0998 0.0
C1952 C 0.77004 0.15234 0.06182 0.0
C1953 C 0.7949 0.18909 0.06605 0.0
C1954 C 0.75833 0.13533 0.04673 0.0
C1955 C 0.75923 0.13654 0.01961 0.0
C1956 C 0.78301 0.17084 0.0499 0.0
C1957 C 0.77282 0.15523 1.00832 0.0
C1958 C 0.81291 0.20608 0.05705 0.0
C1959 C 0.79935 0.20453 0.10741 0.0
N1960 N 0.78423 0.17172 0.02355 0.0
N1961 N 0.78857 0.18905 0.09074 0.0
loop_
_geom_bond_atom_site_label_1
_geom_bond_atom_site_label_2
_geom_bond_distance
_geom_bond_site_symmetry_2
_ccdc_geom_bond_type
Cu0 N1 1.999 . S
Cu0 O6 1.974 1_554 S
Cu0 N11 1.985 1_554 S
Cu0 O20 1.959 . S
N1 Cu0 1.999 . S
N1 C3 1.263 . S
N1 C5 1.389 . S
N2 C3 1.358 . S
N2 C4 1.400 . S
C3 N1 1.263 . S
C3 N2 1.358 . S
C3 H9 0.930 . S
C4 N2 1.400 . S
C4 C5 1.351 . S
C4 H21 0.930 . S
C5 N1 1.389 . S
C5 C4 1.351 . S
C5 H10 0.930 . S
O6 Cu0 1.974 1_556 S
O6 C16 1.282 . S
C7 O8 1.261 . S
C7 O20 1.251 . S
O8 C7 1.261 . S
H9 C3 0.930 . S
H10 C5 0.930 . S
N11 Cu0 1.985 1_556 S
N11 C13 1.335 . S
N11 C14 1.390 . S
N12 C13 1.345 . S
N12 C15 1.336 . S
C13 N11 1.335 . S
C13 N12 1.345 . S
C13 H18 0.930 . S
C14 N11 1.390 . S
C14 C15 1.346 . S
C14 H19 0.930 . S
C15 N12 1.336 . S
C15 C14 1.346 . S
C15 H22 0.929 . S
C16 O6 1.282 . S
C16 O17 1.216 1_455 S
O17 C16 1.216 1_655 S
H18 C13 0.930 . S
H19 C14 0.930 . S
O20 Cu0 1.959 . S
O20 C7 1.251 . S
H21 C4 0.930 . S
H22 C15 0.929 . S
Cu23 N24 1.999 1_554 S
Cu23 O29 1.974 . S
Cu23 N34 1.985 . S
Cu23 O43 1.959 1_554 S
N24 Cu23 1.999 1_556 S
N24 C26 1.263 . S
N24 C28 1.389 . S
N25 C26 1.358 . S
N25 C27 1.400 . S
C26 N24 1.263 . S
C26 N25 1.358 . S
C26 H32 0.930 . S
C27 N25 1.400 . S
C27 C28 1.351 . S
C27 H44 0.930 . S
C28 N24 1.389 . S
C28 C27 1.351 . S
C28 H33 0.930 . S
O29 Cu23 1.974 . S
O29 C39 1.282 . S
C30 O31 1.261 . S
C30 O43 1.251 . S
O31 C30 1.261 . S
H32 C26 0.930 . S
H33 C28 0.930 . S
N34 Cu23 1.985 . S
N34 C36 1.335 . S
N34 C37 1.390 . S
N35 C36 1.345 . S
N35 C38 1.336 . S
C36 N34 1.335 . S
C36 N35 1.345 . S
C36 H41 0.930 . S
C37 N34 1.390 . S
C37 C38 1.346 . S
C37 H42 0.930 . S
C38 N35 1.336 . S
C38 C37 1.346 . S
C38 H45 0.929 . S
C39 O29 1.282 . S
C39 O40 1.216 . S
O40 C39 1.216 . S
H41 C36 0.930 . S
H42 C37 0.930 . S
O43 Cu23 1.959 1_556 S
O43 C30 1.251 . S
H44 C27 0.930 . S
H45 C38 0.929 . S
Cu46 N47 1.999 1_554 S
Cu46 O52 1.974 . S
Cu46 N57 1.985 . S
Cu46 O66 1.959 . S
N47 Cu46 1.999 1_556 S
N47 C49 1.263 . S
N47 C51 1.389 . S
N48 C49 1.358 . S
N48 C50 1.400 . S
C49 N47 1.263 . S
C49 N48 1.358 . S
C49 H55 0.930 . S
C50 N48 1.400 . S
C50 C51 1.351 . S
C50 H67 0.930 . S
C51 N47 1.389 . S
C51 C50 1.351 . S
C51 H56 0.930 . S
O52 Cu46 1.974 . S
O52 C62 1.282 . S
C53 O54 1.259 1_556 S
C53 O66 1.249 1_556 S
O54 C53 1.259 1_554 S
H55 C49 0.930 . S
H56 C51 0.930 . S
N57 Cu46 1.985 . S
N57 C59 1.335 . S
N57 C60 1.390 . S
N58 C59 1.345 . S
N58 C61 1.336 . S
C59 N57 1.335 . S
C59 N58 1.345 . S
C59 H64 0.930 . S
C60 N57 1.390 . S
C60 C61 1.346 . S
C60 H65 0.930 . S
C61 N58 1.336 . S
C61 C60 1.346 . S
C61 H68 0.929 . S
C62 O52 1.282 . S
C62 O63 1.216 . S
O63 C62 1.216 . S
H64 C59 0.930 . S
H65 C60 0.930 . S
O66 Cu46 1.959 . S
O66 C53 1.249 1_554 S
H67 C50 0.930 . S
H68 C61 0.929 . S
Cu69 N70 1.999 . S
Cu69 O75 1.974 . S
Cu69 N80 1.985 . S
Cu69 O89 1.959 . S
N70 Cu69 1.999 . S
N70 C72 1.263 . S
N70 C74 1.389 . S
N71 C72 1.358 . S
N71 C73 1.400 . S
C72 N70 1.263 . S
C72 N71 1.358 . S
C72 H78 0.930 . S
C73 N71 1.400 . S
C73 C74 1.351 . S
C73 H90 0.930 . S
C74 N70 1.389 . S
C74 C73 1.351 . S
C74 H79 0.930 . S
O75 Cu69 1.974 . S
O75 C85 1.282 . S
C76 O77 1.261 . S
C76 O89 1.251 . S
O77 C76 1.261 . S
H78 C72 0.930 . S
H79 C74 0.930 . S
N80 Cu69 1.985 . S
N80 C82 1.335 . S
N80 C83 1.390 . S
N81 C82 1.345 . S
N81 C84 1.336 . S
C82 N80 1.335 . S
C82 N81 1.345 . S
C82 H87 0.930 . S
C83 N80 1.390 . S
C83 C84 1.346 . S
C83 H88 0.930 . S
C84 N81 1.336 . S
C84 C83 1.346 . S
C84 H91 0.929 . S
C85 O75 1.282 . S
C85 O86 1.216 1_545 S
O86 C85 1.216 1_565 S
H87 C82 0.930 . S
H88 C83 0.930 . S
O89 Cu69 1.959 . S
O89 C76 1.251 . S
H90 C73 0.930 . S
H91 C84 0.929 . S
Cu92 N93 1.999 . S
Cu92 O98 1.974 . S
Cu92 N103 1.985 . S
Cu92 O112 1.959 . S
N93 Cu92 1.999 . S
N93 C95 1.263 . S
N93 C97 1.389 . S
N94 C95 1.358 . S
N94 C96 1.400 . S
C95 N93 1.263 . S
C95 N94 1.358 . S
C95 H101 0.930 . S
C96 N94 1.400 . S
C96 C97 1.351 . S
C96 H113 0.930 . S
C97 N93 1.389 . S
C97 C96 1.351 . S
C97 H102 0.930 . S
O98 Cu92 1.974 . S
O98 C108 1.282 . S
C99 O100 1.261 . S
C99 O112 1.251 . S
O100 C99 1.261 . S
H101 C95 0.930 . S
H102 C97 0.930 . S
N103 Cu92 1.985 . S
N103 C105 1.335 . S
N103 C106 1.390 . S
N104 C105 1.345 . S
N104 C107 1.336 . S
C105 N103 1.335 . S
C105 N104 1.345 . S
C105 H110 0.930 . S
C106 N103 1.390 . S
C106 C107 1.346 . S
C106 H111 0.930 . S
C107 N104 1.336 . S
C107 C106 1.346 . S
C107 H114 0.929 . S
C108 O98 1.282 . S
C108 O109 1.216 . S
O109 C108 1.216 . S
H110 C105 0.930 . S
H111 C106 0.930 . S
O112 Cu92 1.959 . S
O112 C99 1.251 . S
H113 C96 0.930 . S
H114 C107 0.929 . S
Cu115 N116 1.999 . S
Cu115 O121 1.974 . S
Cu115 N126 1.985 . S
Cu115 O135 1.959 . S
N116 Cu115 1.999 . S
N116 C118 1.263 . S
N116 C120 1.389 . S
N117 C118 1.358 . S
N117 C119 1.400 . S
C118 N116 1.263 . S
C118 N117 1.358 . S
C118 H124 0.930 . S
C119 N117 1.400 . S
C119 C120 1.351 . S
C119 H136 0.930 . S
C120 N116 1.389 . S
C120 C119 1.351 . S
C120 H125 0.930 . S
O121 Cu115 1.974 . S
O121 C131 1.282 . S
C122 O123 1.261 . S
C122 O135 1.251 . S
O123 C122 1.261 . S
H124 C118 0.930 . S
H125 C120 0.930 . S
N126 Cu115 1.985 . S
N126 C128 1.335 . S
N126 C129 1.390 . S
N127 C128 1.345 . S
N127 C130 1.336 . S
C128 N126 1.335 . S
C128 N127 1.345 . S
C128 H133 0.930 . S
C129 N126 1.390 . S
C129 C130 1.346 . S
C129 H134 0.930 . S
C130 N127 1.336 . S
C130 C129 1.346 . S
C130 H137 0.929 . S
C131 O121 1.282 . S
C131 O132 1.216 . S
O132 C131 1.216 . S
H133 C128 0.930 . S
H134 C129 0.930 . S
O135 Cu115 1.959 . S
O135 C122 1.251 . S
H136 C119 0.930 . S
H137 C130 0.929 . S
Cu138 N139 1.999 . S
Cu138 O144 1.974 . S
Cu138 N149 1.985 . S
Cu138 O158 1.959 . S
N139 Cu138 1.999 . S
N139 C141 1.263 . S
N139 C143 1.389 . S
N140 C141 1.358 . S
N140 C142 1.400 . S
C141 N139 1.263 . S
C141 N140 1.358 . S
C141 H147 0.930 . S
C142 N140 1.400 . S
C142 C143 1.351 . S
C142 H159 0.930 . S
C143 N139 1.389 . S
C143 C142 1.351 . S
C143 H148 0.930 . S
O144 Cu138 1.974 . S
O144 C154 1.282 . S
C145 O146 1.261 . S
C145 O158 1.251 . S
O146 C145 1.261 . S
H147 C141 0.930 . S
H148 C143 0.930 . S
N149 Cu138 1.985 . S
N149 C151 1.335 . S
N149 C152 1.390 . S
N150 C151 1.345 . S
N150 C153 1.336 . S
C151 N149 1.335 . S
C151 N150 1.345 . S
C151 H156 0.930 . S
C152 N149 1.390 . S
C152 C153 1.346 . S
C152 H157 0.930 . S
C153 N150 1.336 . S
C153 C152 1.346 . S
C153 H160 0.929 . S
C154 O144 1.282 . S
C154 O155 1.216 . S
O155 C154 1.216 . S
H156 C151 0.930 . S
H157 C152 0.930 . S
O158 Cu138 1.959 . S
O158 C145 1.251 . S
H159 C142 0.930 . S
H160 C153 0.929 . S
Cu161 N162 1.999 . S
Cu161 O167 1.974 . S
Cu161 N172 1.985 . S
Cu161 O181 1.959 . S
N162 Cu161 1.999 . S
N162 C164 1.263 . S
N162 C166 1.389 . S
N163 C164 1.358 . S
N163 C165 1.400 . S
C164 N162 1.263 . S
C164 N163 1.358 . S
C164 H170 0.930 . S
C165 N163 1.400 . S
C165 C166 1.351 . S
C165 H182 0.930 . S
C166 N162 1.389 . S
C166 C165 1.351 . S
C166 H171 0.930 . S
O167 Cu161 1.974 . S
O167 C177 1.282 . S
C168 O169 1.261 . S
C168 O181 1.251 . S
O169 C168 1.261 . S
H170 C164 0.930 . S
H171 C166 0.930 . S
N172 Cu161 1.985 . S
N172 C174 1.335 . S
N172 C175 1.390 . S
N173 C174 1.345 . S
N173 C176 1.336 . S
C174 N172 1.335 . S
C174 N173 1.345 . S
C174 H179 0.930 . S
C175 N172 1.390 . S
C175 C176 1.346 . S
C175 H180 0.930 . S
C176 N173 1.336 . S
C176 C175 1.346 . S
C176 H183 0.929 . S
C177 O167 1.282 . S
C177 O178 1.216 . S
O178 C177 1.216 . S
H179 C174 0.930 . S
H180 C175 0.930 . S
O181 Cu161 1.959 . S
O181 C168 1.251 . S
H182 C165 0.930 . S
H183 C176 0.929 . S
Cu184 N185 1.999 . S
Cu184 O190 1.974 . S
Cu184 N195 1.985 . S
Cu184 O204 1.959 . S
N185 Cu184 1.999 . S
N185 C187 1.263 . S
N185 C189 1.389 . S
N186 C187 1.358 . S
N186 C188 1.400 . S
C187 N185 1.263 . S
C187 N186 1.358 . S
C187 H193 0.930 . S
C188 N186 1.400 . S
C188 C189 1.351 . S
C188 H205 0.930 . S
C189 N185 1.389 . S
C189 C188 1.351 . S
C189 H194 0.930 . S
O190 Cu184 1.974 . S
O190 C200 1.282 . S
C191 O192 1.261 . S
C191 O204 1.251 . S
O192 C191 1.261 . S
H193 C187 0.930 . S
H194 C189 0.930 . S
N195 Cu184 1.985 . S
N195 C197 1.335 . S
N195 C198 1.390 . S
N196 C197 1.345 . S
N196 C199 1.336 . S
C197 N195 1.335 . S
C197 N196 1.345 . S
C197 H202 0.930 . S
C198 N195 1.390 . S
C198 C199 1.346 . S
C198 H203 0.930 . S
C199 N196 1.336 . S
C199 C198 1.346 . S
C199 H206 0.929 . S
C200 O190 1.282 . S
C200 O201 1.216 . S
O201 C200 1.216 . S
H202 C197 0.930 . S
H203 C198 0.930 . S
O204 Cu184 1.959 . S
O204 C191 1.251 . S
H205 C188 0.930 . S
H206 C199 0.929 . S
Cu207 N208 1.999 . S
Cu207 O213 1.974 . S
Cu207 N218 1.985 . S
Cu207 O227 1.959 . S
N208 Cu207 1.999 . S
N208 C210 1.263 . S
N208 C212 1.389 . S
N209 C210 1.358 . S
N209 C211 1.400 . S
C210 N208 1.263 . S
C210 N209 1.358 . S
C210 H216 0.930 . S
C211 N209 1.400 . S
C211 C212 1.351 . S
C211 H228 0.930 . S
C212 N208 1.389 . S
C212 C211 1.351 . S
C212 H217 0.930 . S
O213 Cu207 1.974 . S
O213 C223 1.282 . S
C214 O215 1.261 . S
C214 O227 1.251 . S
O215 C214 1.261 . S
H216 C210 0.930 . S
H217 C212 0.930 . S
N218 Cu207 1.985 . S
N218 C220 1.335 . S
N218 C221 1.390 . S
N219 C220 1.345 . S
N219 C222 1.336 . S
C220 N218 1.335 . S
C220 N219 1.345 . S
C220 H225 0.930 . S
C221 N218 1.390 . S
C221 C222 1.346 . S
C221 H226 0.930 . S
C222 N219 1.336 . S
C222 C221 1.346 . S
C222 H229 0.929 . S
C223 O213 1.282 . S
C223 O224 1.216 . S
O224 C223 1.216 . S
H225 C220 0.930 . S
H226 C221 0.930 . S
O227 Cu207 1.959 . S
O227 C214 1.251 . S
H228 C211 0.930 . S
H229 C222 0.929 . S
Cu230 N231 1.999 . S
Cu230 O236 1.974 . S
Cu230 N241 1.985 . S
Cu230 O250 1.959 . S
N231 Cu230 1.999 . S
N231 C233 1.263 . S
N231 C235 1.389 . S
N232 C233 1.358 . S
N232 C234 1.400 . S
C233 N231 1.263 . S
C233 N232 1.358 . S
C233 H239 0.930 . S
C234 N232 1.400 . S
C234 C235 1.351 . S
C234 H251 0.930 . S
C235 N231 1.389 . S
C235 C234 1.351 . S
C235 H240 0.930 . S
O236 Cu230 1.974 . S
O236 C246 1.282 . S
C237 O238 1.261 . S
C237 O250 1.251 . S
O238 C237 1.261 . S
H239 C233 0.930 . S
H240 C235 0.930 . S
N241 Cu230 1.985 . S
N241 C243 1.335 . S
N241 C244 1.390 . S
N242 C243 1.345 . S
N242 C245 1.336 . S
C243 N241 1.335 . S
C243 N242 1.345 . S
C243 H248 0.930 . S
C244 N241 1.390 . S
C244 C245 1.346 . S
C244 H249 0.930 . S
C245 N242 1.336 . S
C245 C244 1.346 . S
C245 H252 0.929 . S
C246 O236 1.282 . S
C246 O247 1.216 . S
O247 C246 1.216 . S
H248 C243 0.930 . S
H249 C244 0.930 . S
O250 Cu230 1.959 . S
O250 C237 1.251 . S
H251 C234 0.930 . S
H252 C245 0.929 . S
Cu253 N254 1.999 . S
Cu253 O259 1.974 . S
Cu253 N264 1.985 . S
Cu253 O273 1.959 . S
N254 Cu253 1.999 . S
N254 C256 1.263 . S
N254 C258 1.389 . S
N255 C256 1.358 . S
N255 C257 1.400 . S
C256 N254 1.263 . S
C256 N255 1.358 . S
C256 H262 0.930 . S
C257 N255 1.400 . S
C257 C258 1.351 . S
C257 H274 0.930 . S
C258 N254 1.389 . S
C258 C257 1.351 . S
C258 H263 0.930 . S
O259 Cu253 1.974 . S
O259 C269 1.282 . S
C260 O261 1.261 . S
C260 O273 1.251 . S
O261 C260 1.261 . S
H262 C256 0.930 . S
H263 C258 0.930 . S
N264 Cu253 1.985 . S
N264 C266 1.335 . S
N264 C267 1.390 . S
N265 C266 1.345 . S
N265 C268 1.336 . S
C266 N264 1.335 . S
C266 N265 1.345 . S
C266 H271 0.930 . S
C267 N264 1.390 . S
C267 C268 1.346 . S
C267 H272 0.930 . S
C268 N265 1.336 . S
C268 C267 1.346 . S
C268 H275 0.929 . S
C269 O259 1.282 . S
C269 O270 1.216 . S
O270 C269 1.216 . S
H271 C266 0.930 . S
H272 C267 0.930 . S
O273 Cu253 1.959 . S
O273 C260 1.251 . S
H274 C257 0.930 . S
H275 C268 0.929 . S
Cu276 N277 1.999 . S
Cu276 O282 1.974 . S
Cu276 N287 1.985 . S
Cu276 O296 1.959 . S
N277 Cu276 1.999 . S
N277 C279 1.263 . S
N277 C281 1.389 . S
N278 C279 1.358 . S
N278 C280 1.400 . S
C279 N277 1.263 . S
C279 N278 1.358 . S
C279 H285 0.930 . S
C280 N278 1.400 . S
C280 C281 1.351 . S
C280 H297 0.930 . S
C281 N277 1.389 . S
C281 C280 1.351 . S
C281 H286 0.930 . S
O282 Cu276 1.974 . S
O282 C292 1.282 . S
C283 O284 1.261 . S
C283 O296 1.251 . S
O284 C283 1.261 . S
H285 C279 0.930 . S
H286 C281 0.930 . S
N287 Cu276 1.985 . S
N287 C289 1.335 . S
N287 C290 1.390 . S
N288 C289 1.345 . S
N288 C291 1.336 . S
C289 N287 1.335 . S
C289 N288 1.345 . S
C289 H294 0.930 . S
C290 N287 1.390 . S
C290 C291 1.346 . S
C290 H295 0.930 . S
C291 N288 1.336 . S
C291 C290 1.346 . S
C291 H298 0.929 . S
C292 O282 1.282 . S
C292 O293 1.216 . S
O293 C292 1.216 . S
H294 C289 0.930 . S
H295 C290 0.930 . S
O296 Cu276 1.959 . S
O296 C283 1.251 . S
H297 C280 0.930 . S
H298 C291 0.929 . S
Cu299 N300 1.999 . S
Cu299 O305 1.974 . S
Cu299 N310 1.985 . S
Cu299 O319 1.959 . S
N300 Cu299 1.999 . S
N300 C302 1.263 . S
N300 C304 1.389 . S
N301 C302 1.358 . S
N301 C303 1.400 . S
C302 N300 1.263 . S
C302 N301 1.358 . S
C302 H308 0.930 . S
C303 N301 1.400 . S
C303 C304 1.351 . S
C303 H320 0.930 . S
C304 N300 1.389 . S
C304 C303 1.351 . S
C304 H309 0.930 . S
O305 Cu299 1.974 . S
O305 C315 1.282 . S
C306 O307 1.261 . S
C306 O319 1.251 . S
O307 C306 1.261 . S
H308 C302 0.930 . S
H309 C304 0.930 . S
N310 Cu299 1.985 . S
N310 C312 1.335 . S
N310 C313 1.390 . S
N311 C312 1.345 . S
N311 C314 1.336 . S
C312 N310 1.335 . S
C312 N311 1.345 . S
C312 H317 0.930 . S
C313 N310 1.390 . S
C313 C314 1.346 . S
C313 H318 0.930 . S
C314 N311 1.336 . S
C314 C313 1.346 . S
C314 H321 0.929 . S
C315 O305 1.282 . S
C315 O316 1.216 . S
O316 C315 1.216 . S
H317 C312 0.930 . S
H318 C313 0.930 . S
O319 Cu299 1.959 . S
O319 C306 1.251 . S
H320 C303 0.930 . S
H321 C314 0.929 . S
Cu322 N323 1.999 . S
Cu322 O328 1.974 . S
Cu322 N333 1.985 . S
Cu322 O342 1.959 . S
N323 Cu322 1.999 . S
N323 C325 1.263 . S
N323 C327 1.389 . S
N324 C325 1.358 . S
N324 C326 1.400 . S
C325 N323 1.263 . S
C325 N324 1.358 . S
C325 H331 0.930 . S
C326 N324 1.400 . S
C326 C327 1.351 . S
C326 H343 0.930 . S
C327 N323 1.389 . S
C327 C326 1.351 . S
C327 H332 0.930 . S
O328 Cu322 1.974 . S
O328 C338 1.282 . S
C329 O330 1.261 . S
C329 O342 1.251 . S
O330 C329 1.261 . S
H331 C325 0.930 . S
H332 C327 0.930 . S
N333 Cu322 1.985 . S
N333 C335 1.335 . S
N333 C336 1.390 . S
N334 C335 1.345 . S
N334 C337 1.336 . S
C335 N333 1.335 . S
C335 N334 1.345 . S
C335 H340 0.930 . S
C336 N333 1.390 . S
C336 C337 1.346 . S
C336 H341 0.930 . S
C337 N334 1.336 . S
C337 C336 1.346 . S
C337 H344 0.929 . S
C338 O328 1.282 . S
C338 O339 1.216 . S
O339 C338 1.216 . S
H340 C335 0.930 . S
H341 C336 0.930 . S
O342 Cu322 1.959 . S
O342 C329 1.251 . S
H343 C326 0.930 . S
H344 C337 0.929 . S
Cu345 N346 1.999 . S
Cu345 O351 1.974 . S
Cu345 N356 1.985 . S
Cu345 O365 1.959 . S
N346 Cu345 1.999 . S
N346 C348 1.263 . S
N346 C350 1.389 . S
N347 C348 1.358 . S
N347 C349 1.400 . S
C348 N346 1.263 . S
C348 N347 1.358 . S
C348 H354 0.930 . S
C349 N347 1.400 . S
C349 C350 1.351 . S
C349 H366 0.930 . S
C350 N346 1.389 . S
C350 C349 1.351 . S
C350 H355 0.930 . S
O351 Cu345 1.974 . S
O351 C361 1.282 . S
C352 O353 1.261 . S
C352 O365 1.251 . S
O353 C352 1.261 . S
H354 C348 0.930 . S
H355 C350 0.930 . S
N356 Cu345 1.985 . S
N356 C358 1.335 . S
N356 C359 1.390 . S
N357 C358 1.345 . S
N357 C360 1.336 . S
C358 N356 1.335 . S
C358 N357 1.345 . S
C358 H363 0.930 . S
C359 N356 1.390 . S
C359 C360 1.346 . S
C359 H364 0.930 . S
C360 N357 1.336 . S
C360 C359 1.346 . S
C360 H367 0.929 . S
C361 O351 1.282 . S
C361 O362 1.216 . S
O362 C361 1.216 . S
H363 C358 0.930 . S
H364 C359 0.930 . S
O365 Cu345 1.959 . S
O365 C352 1.251 . S
H366 C349 0.930 . S
H367 C360 0.929 . S
Cu368 N369 1.999 . S
Cu368 O374 1.974 . S
Cu368 N379 1.985 . S
Cu368 O388 1.959 . S
N369 Cu368 1.999 . S
N369 C371 1.263 . S
N369 C373 1.389 . S
N370 C371 1.358 . S
N370 C372 1.400 . S
C371 N369 1.263 . S
C371 N370 1.358 . S
C371 H377 0.930 . S
C372 N370 1.400 . S
C372 C373 1.351 . S
C372 H389 0.930 . S
C373 N369 1.389 . S
C373 C372 1.351 . S
C373 H378 0.930 . S
O374 Cu368 1.974 . S
O374 C384 1.282 . S
C375 O376 1.261 . S
C375 O388 1.251 . S
O376 C375 1.261 . S
H377 C371 0.930 . S
H378 C373 0.930 . S
N379 Cu368 1.985 . S
N379 C381 1.335 . S
N379 C382 1.390 . S
N380 C381 1.345 . S
N380 C383 1.336 . S
C381 N379 1.335 . S
C381 N380 1.345 . S
C381 H386 0.930 . S
C382 N379 1.390 . S
C382 C383 1.346 . S
C382 H387 0.930 . S
C383 N380 1.336 . S
C383 C382 1.346 . S
C383 H390 0.929 . S
C384 O374 1.282 . S
C384 O385 1.216 . S
O385 C384 1.216 . S
H386 C381 0.930 . S
H387 C382 0.930 . S
O388 Cu368 1.959 . S
O388 C375 1.251 . S
H389 C372 0.930 . S
H390 C383 0.929 . S
Cu391 N392 1.999 . S
Cu391 O397 1.974 . S
Cu391 N402 1.985 . S
Cu391 O411 1.959 . S
N392 Cu391 1.999 . S
N392 C394 1.263 . S
N392 C396 1.389 . S
N393 C394 1.358 . S
N393 C395 1.400 . S
C394 N392 1.263 . S
C394 N393 1.358 . S
C394 H400 0.930 . S
C395 N393 1.400 . S
C395 C396 1.351 . S
C395 H412 0.930 . S
C396 N392 1.389 . S
C396 C395 1.351 . S
C396 H401 0.930 . S
O397 Cu391 1.974 . S
O397 C407 1.282 . S
C398 O399 1.261 . S
C398 O411 1.251 . S
O399 C398 1.261 . S
H400 C394 0.930 . S
H401 C396 0.930 . S
N402 Cu391 1.985 . S
N402 C404 1.335 . S
N402 C405 1.390 . S
N403 C404 1.345 . S
N403 C406 1.336 . S
C404 N402 1.335 . S
C404 N403 1.345 . S
C404 H409 0.930 . S
C405 N402 1.390 . S
C405 C406 1.346 . S
C405 H410 0.930 . S
C406 N403 1.336 . S
C406 C405 1.346 . S
C406 H413 0.929 . S
C407 O397 1.282 . S
C407 O408 1.216 . S
O408 C407 1.216 . S
H409 C404 0.930 . S
H410 C405 0.930 . S
O411 Cu391 1.959 . S
O411 C398 1.251 . S
H412 C395 0.930 . S
H413 C406 0.929 . S
Zn414 O417 2.031 . S
Zn414 O419 2.049 . S
Zn414 O424 2.067 1_455 S
Zn415 O416 1.962 . S
Zn415 O418 1.986 . S
Zn415 O420 1.996 . S
Zn415 O423 1.943 1_455 S
O416 Zn415 1.962 . S
O416 C421 1.254 . S
O417 Zn414 2.031 . S
O417 C421 1.269 . S
O418 Zn415 1.986 . S
O418 C425 1.262 . S
O419 Zn414 2.049 . S
O419 C427 1.260 . S
O420 Zn415 1.996 . S
O420 C427 1.257 . S
C421 O416 1.254 . S
C421 O417 1.269 . S
C422 O423 1.249 . S
C422 O424 1.270 . S
O423 Zn415 1.943 1_655 S
O423 C422 1.249 . S
O424 Zn414 2.067 1_655 S
O424 C422 1.270 . S
C425 O418 1.262 . S
C425 O426 1.232 . S
O426 C425 1.232 . S
C427 O419 1.260 . S
C427 O420 1.257 . S
Zn428 O431 2.031 . S
Zn428 O433 2.049 . S
Zn428 O438 2.067 . S
Zn429 O430 1.962 . S
Zn429 O432 1.986 . S
Zn429 O434 1.996 . S
Zn429 O437 1.943 . S
O430 Zn429 1.962 . S
O430 C435 1.254 . S
O431 Zn428 2.031 . S
O431 C435 1.269 . S
O432 Zn429 1.986 . S
O432 C439 1.262 . S
O433 Zn428 2.049 . S
O433 C441 1.260 . S
O434 Zn429 1.996 . S
O434 C441 1.257 . S
C435 O430 1.254 . S
C435 O431 1.269 . S
C436 O437 1.249 . S
C436 O438 1.270 . S
O437 Zn429 1.943 . S
O437 C436 1.249 . S
O438 Zn428 2.067 . S
O438 C436 1.270 . S
C439 O432 1.262 . S
C439 O440 1.232 . S
O440 C439 1.232 . S
C441 O433 1.260 . S
C441 O434 1.257 . S
Zn442 O445 2.031 . S
Zn442 O447 2.049 . S
Zn442 O452 2.067 . S
Zn443 O444 1.962 . S
Zn443 O446 1.986 . S
Zn443 O448 1.996 . S
Zn443 O451 1.943 . S
O444 Zn443 1.962 . S
O444 C449 1.254 . S
O445 Zn442 2.031 . S
O445 C449 1.269 . S
O446 Zn443 1.986 . S
O446 C453 1.262 . S
O447 Zn442 2.049 . S
O447 C455 1.260 . S
O448 Zn443 1.996 . S
O448 C455 1.257 . S
C449 O444 1.254 . S
C449 O445 1.269 . S
C450 O451 1.249 . S
C450 O452 1.270 . S
O451 Zn443 1.943 . S
O451 C450 1.249 . S
O452 Zn442 2.067 . S
O452 C450 1.270 . S
C453 O446 1.262 . S
C453 O454 1.232 . S
O454 C453 1.232 . S
C455 O447 1.260 . S
C455 O448 1.257 . S
Zn456 O459 2.031 . S
Zn456 O461 2.049 . S
Zn456 O466 2.067 . S
Zn457 O458 1.962 1_455 S
Zn457 O460 1.986 . S
Zn457 O462 1.996 . S
Zn457 O465 1.943 . S
O458 Zn457 1.962 1_655 S
O458 C463 1.254 . S
O459 Zn456 2.031 . S
O459 C463 1.233 1_455 S
O460 Zn457 1.986 . S
O460 C467 1.262 . S
O461 Zn456 2.049 . S
O461 C469 1.260 . S
O462 Zn457 1.996 . S
O462 C469 1.257 . S
C463 O458 1.254 . S
C463 O459 1.233 1_655 S
C464 O465 1.249 . S
C464 O466 1.270 . S
O465 Zn457 1.943 . S
O465 C464 1.249 . S
O466 Zn456 2.067 . S
O466 C464 1.270 . S
C467 O460 1.262 . S
C467 O468 1.232 . S
O468 C467 1.232 . S
C469 O461 1.260 . S
C469 O462 1.257 . S
Zn470 O473 2.031 . S
Zn470 O475 2.049 . S
Zn470 O480 2.067 . S
Zn471 O472 1.962 . S
Zn471 O474 1.986 . S
Zn471 O476 1.996 . S
Zn471 O479 1.943 . S
O472 Zn471 1.962 . S
O472 C477 1.254 . S
O473 Zn470 2.031 . S
O473 C477 1.269 . S
O474 Zn471 1.986 . S
O474 C481 1.262 . S
O475 Zn470 2.049 . S
O475 C483 1.260 . S
O476 Zn471 1.996 . S
O476 C483 1.257 . S
C477 O472 1.254 . S
C477 O473 1.269 . S
C478 O479 1.249 . S
C478 O480 1.270 . S
O479 Zn471 1.943 . S
O479 C478 1.249 . S
O480 Zn470 2.067 . S
O480 C478 1.270 . S
C481 O474 1.262 . S
C481 O482 1.232 . S
O482 C481 1.232 . S
C483 O475 1.260 . S
C483 O476 1.257 . S
Zn484 O487 2.031 . S
Zn484 O489 2.049 . S
Zn484 O494 2.067 . S
Zn485 O486 1.962 . S
Zn485 O488 1.986 . S
Zn485 O490 1.996 . S
Zn485 O493 1.943 . S
O486 Zn485 1.962 . S
O486 C491 1.254 . S
O487 Zn484 2.031 . S
O487 C491 1.269 . S
O488 Zn485 1.986 . S
O488 C495 1.262 . S
O489 Zn484 2.049 . S
O489 C497 1.260 . S
O490 Zn485 1.996 . S
O490 C497 1.257 . S
C491 O486 1.254 . S
C491 O487 1.269 . S
C492 O493 1.249 . S
C492 O494 1.270 . S
O493 Zn485 1.943 . S
O493 C492 1.249 . S
O494 Zn484 2.067 . S
O494 C492 1.270 . S
C495 O488 1.262 . S
C495 O496 1.232 . S
O496 C495 1.232 . S
C497 O489 1.260 . S
C497 O490 1.257 . S
Zn498 O501 2.031 1_545 S
Zn498 O503 2.049 . S
Zn498 O508 2.067 . S
Zn499 O500 1.962 . S
Zn499 O502 1.986 . S
Zn499 O504 1.996 1_565 S
Zn499 O507 1.943 . S
O500 Zn499 1.962 . S
O500 C505 1.254 . S
O501 Zn498 2.031 1_565 S
O501 C505 1.269 . S
O502 Zn499 1.986 . S
O502 C509 1.262 . S
O503 Zn498 2.049 . S
O503 C511 1.260 . S
O504 Zn499 1.996 1_545 S
O504 C511 1.257 . S
C505 O500 1.254 . S
C505 O501 1.269 . S
C506 O507 1.249 1_545 S
C506 O508 1.270 . S
O507 Zn499 1.943 . S
O507 C506 1.249 1_565 S
O508 Zn498 2.067 . S
O508 C506 1.270 . S
C509 O502 1.262 . S
C509 O510 1.232 . S
O510 C509 1.232 . S
C511 O503 1.260 . S
C511 O504 1.257 . S
Zn512 O515 2.031 . S
Zn512 O517 2.049 . S
Zn512 O522 2.067 . S
Zn513 O514 1.962 . S
Zn513 O516 1.986 . S
Zn513 O518 1.996 . S
Zn513 O521 1.943 . S
O514 Zn513 1.962 . S
O514 C519 1.254 . S
O515 Zn512 2.031 . S
O515 C519 1.269 . S
O516 Zn513 1.986 . S
O516 C523 1.262 . S
O517 Zn512 2.049 . S
O517 C525 1.260 . S
O518 Zn513 1.996 . S
O518 C525 1.257 . S
C519 O514 1.254 . S
C519 O515 1.269 . S
C520 O521 1.249 . S
C520 O522 1.270 . S
O521 Zn513 1.943 . S
O521 C520 1.249 . S
O522 Zn512 2.067 . S
O522 C520 1.270 . S
C523 O516 1.262 . S
C523 O524 1.232 . S
O524 C523 1.232 . S
C525 O517 1.260 . S
C525 O518 1.257 . S
Zn526 O529 2.031 . S
Zn526 O531 2.049 . S
Zn526 O536 2.067 . S
Zn527 O528 1.962 . S
Zn527 O530 1.986 . S
Zn527 O532 1.996 . S
Zn527 O535 1.943 . S
O528 Zn527 1.962 . S
O528 C533 1.254 . S
O529 Zn526 2.031 . S
O529 C533 1.269 . S
O530 Zn527 1.986 . S
O530 C537 1.262 . S
O531 Zn526 2.049 . S
O531 C539 1.260 . S
O532 Zn527 1.996 . S
O532 C539 1.257 . S
C533 O528 1.254 . S
C533 O529 1.269 . S
C534 O535 1.249 . S
C534 O536 1.270 . S
O535 Zn527 1.943 . S
O535 C534 1.249 . S
O536 Zn526 2.067 . S
O536 C534 1.270 . S
C537 O530 1.262 . S
C537 O538 1.232 . S
O538 C537 1.232 . S
C539 O531 1.260 . S
C539 O532 1.257 . S
Zn540 O543 2.031 . S
Zn540 O545 2.049 . S
Zn540 O550 2.067 . S
Zn541 O542 1.962 . S
Zn541 O544 1.986 . S
Zn541 O546 1.996 . S
Zn541 O549 1.943 . S
O542 Zn541 1.962 . S
O542 C547 1.254 . S
O543 Zn540 2.031 . S
O543 C547 1.269 . S
O544 Zn541 1.986 . S
O544 C551 1.262 . S
O545 Zn540 2.049 . S
O545 C553 1.260 . S
O546 Zn541 1.996 . S
O546 C553 1.257 . S
C547 O542 1.254 . S
C547 O543 1.269 . S
C548 O549 1.249 . S
C548 O550 1.270 . S
O549 Zn541 1.943 . S
O549 C548 1.249 . S
O550 Zn540 2.067 . S
O550 C548 1.270 . S
C551 O544 1.262 . S
C551 O552 1.232 . S
O552 C551 1.232 . S
C553 O545 1.260 . S
C553 O546 1.257 . S
Zn554 O557 2.031 . S
Zn554 O559 2.049 1_545 S
Zn554 O564 2.067 . S
Zn555 O556 1.962 1_565 S
Zn555 O558 1.986 . S
Zn555 O560 1.996 . S
Zn555 O563 1.943 . S
O556 Zn555 1.962 1_545 S
O556 C561 1.254 . S
O557 Zn554 2.031 . S
O557 C561 1.269 . S
O558 Zn555 1.986 . S
O558 C565 1.262 . S
O559 Zn554 2.049 1_565 S
O559 C567 1.260 . S
O560 Zn555 1.996 . S
O560 C567 1.257 . S
C561 O556 1.254 . S
C561 O557 1.269 . S
C562 O563 1.249 1_545 S
C562 O564 1.270 . S
O563 Zn555 1.943 . S
O563 C562 1.249 1_565 S
O564 Zn554 2.067 . S
O564 C562 1.270 . S
C565 O558 1.262 . S
C565 O566 1.232 . S
O566 C565 1.232 . S
C567 O559 1.260 . S
C567 O560 1.257 . S
Zn568 O571 2.031 . S
Zn568 O573 2.049 . S
Zn568 O578 2.067 . S
Zn569 O570 1.962 . S
Zn569 O572 1.986 . S
Zn569 O574 1.996 . S
Zn569 O577 1.943 . S
O570 Zn569 1.962 . S
O570 C575 1.254 . S
O571 Zn568 2.031 . S
O571 C575 1.269 . S
O572 Zn569 1.986 . S
O572 C579 1.262 . S
O573 Zn568 2.049 . S
O573 C581 1.260 . S
O574 Zn569 1.996 . S
O574 C581 1.257 . S
C575 O570 1.254 . S
C575 O571 1.269 . S
C576 O577 1.249 . S
C576 O578 1.270 . S
O577 Zn569 1.943 . S
O577 C576 1.249 . S
O578 Zn568 2.067 . S
O578 C576 1.270 . S
C579 O572 1.262 . S
C579 O580 1.232 . S
O580 C579 1.232 . S
C581 O573 1.260 . S
C581 O574 1.257 . S
Zn582 O585 2.031 . S
Zn582 O587 2.049 . S
Zn582 O592 2.067 . S
Zn583 O584 1.962 . S
Zn583 O586 1.986 . S
Zn583 O588 1.996 . S
Zn583 O591 1.943 . S
O584 Zn583 1.962 . S
O584 C589 1.254 . S
O585 Zn582 2.031 . S
O585 C589 1.269 . S
O586 Zn583 1.986 . S
O586 C593 1.262 . S
O587 Zn582 2.049 . S
O587 C595 1.260 . S
O588 Zn583 1.996 . S
O588 C595 1.257 . S
C589 O584 1.254 . S
C589 O585 1.269 . S
C590 O591 1.249 . S
C590 O592 1.270 . S
O591 Zn583 1.943 . S
O591 C590 1.249 . S
O592 Zn582 2.067 . S
O592 C590 1.270 . S
C593 O586 1.262 . S
C593 O594 1.232 . S
O594 C593 1.232 . S
C595 O587 1.260 . S
C595 O588 1.257 . S
Zn596 O599 2.031 . S
Zn596 O601 2.049 . S
Zn596 O606 2.067 . S
Zn597 O598 1.962 . S
Zn597 O600 1.986 . S
Zn597 O602 1.996 . S
Zn597 O605 1.943 . S
O598 Zn597 1.962 . S
O598 C603 1.254 . S
O599 Zn596 2.031 . S
O599 C603 1.269 . S
O600 Zn597 1.986 . S
O600 C607 1.262 . S
O601 Zn596 2.049 . S
O601 C609 1.260 . S
O602 Zn597 1.996 . S
O602 C609 1.257 . S
C603 O598 1.254 . S
C603 O599 1.269 . S
C604 O605 1.249 . S
C604 O606 1.270 . S
O605 Zn597 1.943 . S
O605 C604 1.249 . S
O606 Zn596 2.067 . S
O606 C604 1.270 . S
C607 O600 1.262 . S
C607 O608 1.232 . S
O608 C607 1.232 . S
C609 O601 1.260 . S
C609 O602 1.257 . S
Zn610 O613 2.031 . S
Zn610 O615 2.049 1_655 S
Zn610 O620 2.067 1_655 S
Zn611 O612 1.962 . S
Zn611 O614 1.986 . S
Zn611 O616 1.996 . S
Zn611 O619 1.943 . S
O612 Zn611 1.962 . S
O612 C617 1.254 . S
O613 Zn610 2.031 . S
O613 C617 1.269 . S
O614 Zn611 1.986 . S
O614 C621 1.262 . S
O615 Zn610 2.049 1_455 S
O615 C623 1.260 1_455 S
O616 Zn611 1.996 . S
O616 C623 1.257 . S
C617 O612 1.254 . S
C617 O613 1.269 . S
C618 O619 1.249 1_455 S
C618 O620 1.270 . S
O619 Zn611 1.943 . S
O619 C618 1.249 1_655 S
O620 Zn610 2.067 1_455 S
O620 C618 1.270 . S
C621 O614 1.262 . S
C621 O622 1.232 . S
O622 C621 1.232 . S
C623 O615 1.260 1_655 S
C623 O616 1.257 . S
Zn624 O627 2.031 . S
Zn624 O629 2.049 . S
Zn624 O634 2.067 . S
Zn625 O626 1.962 . S
Zn625 O628 1.986 . S
Zn625 O630 1.996 . S
Zn625 O633 1.943 . S
O626 Zn625 1.962 . S
O626 C631 1.254 . S
O627 Zn624 2.031 . S
O627 C631 1.269 . S
O628 Zn625 1.986 . S
O628 C635 1.262 . S
O629 Zn624 2.049 . S
O629 C637 1.260 . S
O630 Zn625 1.996 . S
O630 C637 1.257 . S
C631 O626 1.254 . S
C631 O627 1.269 . S
C632 O633 1.249 . S
C632 O634 1.270 . S
O633 Zn625 1.943 . S
O633 C632 1.249 . S
O634 Zn624 2.067 . S
O634 C632 1.270 . S
C635 O628 1.262 . S
C635 O636 1.232 . S
O636 C635 1.232 . S
C637 O629 1.260 . S
C637 O630 1.257 . S
Zn638 O641 2.027 1_655 S
Zn638 O643 2.049 . S
Zn638 O648 2.067 1_655 S
Zn639 O640 1.962 . S
Zn639 O642 1.986 . S
Zn639 O644 1.996 . S
Zn639 O647 1.943 . S
O640 Zn639 1.962 . S
O640 C645 1.254 . S
O641 Zn638 2.027 1_455 S
O641 C645 1.230 1_455 S
O642 Zn639 1.986 . S
O642 C649 1.262 . S
O643 Zn638 2.049 . S
O643 C651 1.260 . S
O644 Zn639 1.996 . S
O644 C651 1.257 . S
C645 O640 1.254 . S
C645 O641 1.230 1_655 S
C646 O647 1.249 1_455 S
C646 O648 1.270 . S
O647 Zn639 1.943 . S
O647 C646 1.249 1_655 S
O648 Zn638 2.067 1_455 S
O648 C646 1.270 . S
C649 O642 1.262 . S
C649 O650 1.232 . S
O650 C649 1.232 . S
C651 O643 1.260 . S
C651 O644 1.257 . S
Zn652 O655 2.031 . S
Zn652 O657 2.049 . S
Zn652 O662 2.067 . S
Zn653 O654 1.962 . S
Zn653 O656 1.986 . S
Zn653 O658 1.996 . S
Zn653 O661 1.943 . S
O654 Zn653 1.962 . S
O654 C659 1.254 . S
O655 Zn652 2.031 . S
O655 C659 1.269 . S
O656 Zn653 1.986 . S
O656 C663 1.262 . S
O657 Zn652 2.049 . S
O657 C665 1.260 . S
O658 Zn653 1.996 . S
O658 C665 1.257 . S
C659 O654 1.254 . S
C659 O655 1.269 . S
C660 O661 1.249 . S
C660 O662 1.270 . S
O661 Zn653 1.943 . S
O661 C660 1.249 . S
O662 Zn652 2.067 . S
O662 C660 1.270 . S
C663 O656 1.262 . S
C663 O664 1.232 . S
O664 C663 1.232 . S
C665 O657 1.260 . S
C665 O658 1.257 . S
H666 C672 0.930 . S
H667 C676 0.930 . S
H668 C681 0.929 . S
H669 C679 0.929 . S
H670 C674 0.929 . S
H671 C680 0.929 . S
C672 H666 0.930 . S
C672 C673 1.367 . S
C672 C680 1.378 . S
C673 C672 1.367 . S
C673 C681 1.433 . S
C674 H670 0.929 . S
C674 C676 1.378 . S
C674 C678 1.350 . S
C675 C678 1.463 . S
C675 C680 1.350 . S
C675 N683 1.427 . S
C676 H667 0.930 . S
C676 C674 1.378 . S
C676 C677 1.367 . S
C677 C676 1.367 . S
C677 C679 1.433 . S
C678 C674 1.350 . S
C678 C675 1.463 . S
C678 N682 1.427 . S
C679 H669 0.929 . S
C679 C677 1.433 . S
C679 N682 1.384 . S
C680 H671 0.929 . S
C680 C672 1.378 . S
C680 C675 1.350 . S
C681 H668 0.929 . S
C681 C673 1.433 . S
C681 N683 1.384 . S
N682 C678 1.427 . S
N682 C679 1.384 . S
N683 C675 1.427 . S
N683 C681 1.384 . S
H684 C690 0.930 . S
H685 C694 0.930 . S
H686 C699 0.929 . S
H687 C697 0.929 . S
H688 C692 0.929 . S
H689 C698 0.929 . S
C690 H684 0.930 . S
C690 C691 1.367 . S
C690 C698 1.378 . S
C691 C690 1.367 . S
C691 C699 1.433 . S
C692 H688 0.929 . S
C692 C694 1.378 . S
C692 C696 1.350 . S
C693 C696 1.463 . S
C693 C698 1.350 . S
C693 N701 1.427 . S
C694 H685 0.930 . S
C694 C692 1.378 . S
C694 C695 1.367 . S
C695 C694 1.367 . S
C695 C697 1.433 . S
C696 C692 1.350 . S
C696 C693 1.463 . S
C696 N700 1.427 . S
C697 H687 0.929 . S
C697 C695 1.433 . S
C697 N700 1.384 . S
C698 H689 0.929 . S
C698 C690 1.378 . S
C698 C693 1.350 . S
C699 H686 0.929 . S
C699 C691 1.433 . S
C699 N701 1.384 . S
N700 C696 1.427 . S
N700 C697 1.384 . S
N701 C693 1.427 . S
N701 C699 1.384 . S
H702 C708 0.930 . S
H703 C712 0.930 . S
H704 C717 0.929 . S
H705 C715 0.929 . S
H706 C710 0.929 . S
H707 C716 0.929 1_565 S
C708 H702 0.930 . S
C708 C709 1.367 . S
C708 C716 1.378 . S
C709 C708 1.367 . S
C709 C717 1.433 . S
C710 H706 0.929 . S
C710 C712 1.378 . S
C710 C714 1.350 . S
C711 C714 1.463 . S
C711 C716 1.350 . S
C711 N719 1.427 . S
C712 H703 0.930 . S
C712 C710 1.378 . S
C712 C713 1.367 . S
C713 C712 1.367 . S
C713 C715 1.433 1_545 S
C714 C710 1.350 . S
C714 C711 1.463 . S
C714 N718 1.427 1_545 S
C715 H705 0.929 . S
C715 C713 1.433 1_565 S
C715 N718 1.384 . S
C716 H707 0.929 1_545 S
C716 C708 1.378 . S
C716 C711 1.350 . S
C717 H704 0.929 . S
C717 C709 1.433 . S
C717 N719 1.384 . S
N718 C714 1.427 1_565 S
N718 C715 1.384 . S
N719 C711 1.427 . S
N719 C717 1.384 . S
H720 C726 0.930 . S
H721 C730 0.930 . S
H722 C735 0.929 . S
H723 C733 0.929 . S
H724 C728 0.929 . S
H725 C734 0.929 . S
C726 H720 0.930 . S
C726 C727 1.367 . S
C726 C734 1.378 . S
C727 C726 1.367 . S
C727 C735 1.433 . S
C728 H724 0.929 . S
C728 C730 1.378 . S
C728 C732 1.350 . S
C729 C732 1.463 . S
C729 C734 1.350 . S
C729 N737 1.427 . S
C730 H721 0.930 . S
C730 C728 1.378 . S
C730 C731 1.367 . S
C731 C730 1.367 . S
C731 C733 1.433 . S
C732 C728 1.350 . S
C732 C729 1.463 . S
C732 N736 1.427 . S
C733 H723 0.929 . S
C733 C731 1.433 . S
C733 N736 1.384 . S
C734 H725 0.929 . S
C734 C726 1.378 . S
C734 C729 1.350 . S
C735 H722 0.929 . S
C735 C727 1.433 . S
C735 N737 1.384 . S
N736 C732 1.427 . S
N736 C733 1.384 . S
N737 C729 1.427 . S
N737 C735 1.384 . S
H738 C744 0.930 . S
H739 C748 0.930 . S
H740 C753 0.929 . S
H741 C751 0.929 . S
H742 C746 0.929 . S
H743 C752 0.929 . S
C744 H738 0.930 . S
C744 C745 1.367 . S
C744 C752 1.378 . S
C745 C744 1.367 . S
C745 C753 1.433 . S
C746 H742 0.929 . S
C746 C748 1.378 . S
C746 C750 1.350 . S
C747 C750 1.463 . S
C747 C752 1.350 . S
C747 N755 1.427 . S
C748 H739 0.930 . S
C748 C746 1.378 . S
C748 C749 1.367 1_455 S
C749 C748 1.367 1_655 S
C749 C751 1.433 . S
C750 C746 1.350 . S
C750 C747 1.463 . S
C750 N754 1.427 1_455 S
C751 H741 0.929 . S
C751 C749 1.433 . S
C751 N754 1.384 . S
C752 H743 0.929 . S
C752 C744 1.378 . S
C752 C747 1.350 . S
C753 H740 0.929 . S
C753 C745 1.433 . S
C753 N755 1.384 . S
N754 C750 1.427 1_655 S
N754 C751 1.384 . S
N755 C747 1.427 . S
N755 C753 1.384 . S
H756 C762 0.930 . S
H757 C766 0.930 . S
H758 C771 0.929 . S
H759 C769 0.929 . S
H760 C764 0.929 . S
H761 C770 0.929 . S
C762 H756 0.930 . S
C762 C763 1.367 . S
C762 C770 1.378 . S
C763 C762 1.367 . S
C763 C771 1.433 . S
C764 H760 0.929 . S
C764 C766 1.378 . S
C764 C768 1.350 . S
C765 C768 1.463 . S
C765 C770 1.350 . S
C765 N773 1.427 . S
C766 H757 0.930 . S
C766 C764 1.378 . S
C766 C767 1.367 . S
C767 C766 1.367 . S
C767 C769 1.433 . S
C768 C764 1.350 . S
C768 C765 1.463 . S
C768 N772 1.427 . S
C769 H759 0.929 . S
C769 C767 1.433 . S
C769 N772 1.384 . S
C770 H761 0.929 . S
C770 C762 1.378 . S
C770 C765 1.350 . S
C771 H758 0.929 . S
C771 C763 1.433 . S
C771 N773 1.384 . S
N772 C768 1.427 . S
N772 C769 1.384 . S
N773 C765 1.427 . S
N773 C771 1.384 . S
H774 C780 0.933 . S
H775 C784 0.930 . S
H776 C789 0.929 . S
H777 C787 0.929 . S
H778 C782 0.929 . S
H779 C788 0.929 . S
C780 H774 0.933 . S
C780 C781 1.367 . S
C780 C788 1.378 . S
C781 C780 1.367 . S
C781 C789 1.433 1_455 S
C782 H778 0.929 . S
C782 C784 1.378 . S
C782 C786 1.350 1_655 S
C783 C786 1.463 . S
C783 C788 1.350 . S
C783 N791 1.427 1_455 S
C784 H775 0.930 . S
C784 C782 1.378 . S
C784 C785 1.367 . S
C785 C784 1.367 . S
C785 C787 1.433 1_655 S
C786 C782 1.350 1_455 S
C786 C783 1.463 . S
C786 N790 1.427 . S
C787 H777 0.929 . S
C787 C785 1.433 1_455 S
C787 N790 1.384 . S
C788 H779 0.929 . S
C788 C780 1.378 . S
C788 C783 1.350 . S
C789 H776 0.929 . S
C789 C781 1.433 1_655 S
C789 N791 1.384 . S
N790 C786 1.427 . S
N790 C787 1.384 . S
N791 C783 1.427 1_655 S
N791 C789 1.384 . S
H792 C798 0.930 . S
H793 C802 0.930 . S
H794 C807 0.929 . S
H795 C805 0.929 . S
H796 C800 0.929 . S
H797 C806 0.929 1_554 S
C798 H792 0.930 . S
C798 C799 1.367 1_554 S
C798 C806 1.378 1_554 S
C799 C798 1.367 1_556 S
C799 C807 1.433 . S
C800 H796 0.929 . S
C800 C802 1.378 . S
C800 C804 1.350 . S
C801 C804 1.463 . S
C801 C806 1.350 . S
C801 N809 1.427 . S
C802 H793 0.930 . S
C802 C800 1.378 . S
C802 C803 1.367 . S
C803 C802 1.367 . S
C803 C805 1.433 . S
C804 C800 1.350 . S
C804 C801 1.463 . S
C804 N808 1.427 . S
C805 H795 0.929 . S
C805 C803 1.433 . S
C805 N808 1.384 . S
C806 H797 0.929 1_556 S
C806 C798 1.378 1_556 S
C806 C801 1.350 . S
C807 H794 0.929 . S
C807 C799 1.433 . S
C807 N809 1.384 . S
N808 C804 1.427 . S
N808 C805 1.384 . S
N809 C801 1.427 . S
N809 C807 1.384 . S
H810 C816 0.930 . S
H811 C820 0.930 . S
H812 C825 0.929 . S
H813 C823 0.929 . S
H814 C818 0.929 . S
H815 C824 0.929 . S
C816 H810 0.930 . S
C816 C817 1.367 . S
C816 C824 1.378 . S
C817 C816 1.367 . S
C817 C825 1.433 1_556 S
C818 H814 0.929 . S
C818 C820 1.378 . S
C818 C822 1.350 . S
C819 C822 1.463 . S
C819 C824 1.350 . S
C819 N827 1.427 . S
C820 H811 0.930 . S
C820 C818 1.378 . S
C820 C821 1.367 . S
C821 C820 1.367 . S
C821 C823 1.433 . S
C822 C818 1.350 . S
C822 C819 1.463 . S
C822 N826 1.427 . S
C823 H813 0.929 . S
C823 C821 1.433 . S
C823 N826 1.384 . S
C824 H815 0.929 . S
C824 C816 1.378 . S
C824 C819 1.350 . S
C825 H812 0.929 . S
C825 C817 1.433 1_554 S
C825 N827 1.384 1_554 S
N826 C822 1.427 . S
N826 C823 1.384 . S
N827 C819 1.427 . S
N827 C825 1.384 1_556 S
H828 C834 0.930 . S
H829 C838 0.930 . S
H830 C843 0.929 . S
H831 C841 0.929 . S
H832 C836 0.929 . S
H833 C842 0.929 . S
C834 H828 0.930 . S
C834 C835 1.367 . S
C834 C842 1.378 . S
C835 C834 1.367 . S
C835 C843 1.433 1_545 S
C836 H832 0.929 . S
C836 C838 1.378 . S
C836 C840 1.350 1_565 S
C837 C840 1.463 . S
C837 C842 1.350 . S
C837 N845 1.427 1_545 S
C838 H829 0.930 . S
C838 C836 1.378 . S
C838 C839 1.367 . S
C839 C838 1.367 . S
C839 C841 1.433 1_565 S
C840 C836 1.350 1_545 S
C840 C837 1.463 . S
C840 N844 1.427 . S
C841 H831 0.929 . S
C841 C839 1.433 1_545 S
C841 N844 1.384 . S
C842 H833 0.929 . S
C842 C834 1.378 . S
C842 C837 1.350 . S
C843 H830 0.929 . S
C843 C835 1.433 1_565 S
C843 N845 1.384 . S
N844 C840 1.427 . S
N844 C841 1.384 . S
N845 C837 1.427 1_565 S
N845 C843 1.384 . S
H846 C852 0.930 . S
H847 C856 0.930 . S
H848 C861 0.929 . S
H849 C859 0.929 . S
H850 C854 0.929 . S
H851 C860 0.929 . S
C852 H846 0.930 . S
C852 C853 1.367 . S
C852 C860 1.378 . S
C853 C852 1.367 . S
C853 C861 1.433 . S
C854 H850 0.929 . S
C854 C856 1.378 . S
C854 C858 1.350 . S
C855 C858 1.463 . S
C855 C860 1.350 . S
C855 N863 1.427 . S
C856 H847 0.930 . S
C856 C854 1.378 . S
C856 C857 1.367 . S
C857 C856 1.367 . S
C857 C859 1.433 . S
C858 C854 1.350 . S
C858 C855 1.463 . S
C858 N862 1.427 . S
C859 H849 0.929 . S
C859 C857 1.433 . S
C859 N862 1.384 . S
C860 H851 0.929 . S
C860 C852 1.378 . S
C860 C855 1.350 . S
C861 H848 0.929 . S
C861 C853 1.433 . S
C861 N863 1.384 . S
N862 C858 1.427 . S
N862 C859 1.384 . S
N863 C855 1.427 . S
N863 C861 1.384 . S
H864 C870 0.930 . S
H865 C874 0.930 . S
H866 C879 0.929 . S
H867 C877 0.929 . S
H868 C872 0.929 . S
H869 C878 0.929 . S
C870 H864 0.930 . S
C870 C871 1.367 . S
C870 C878 1.378 . S
C871 C870 1.367 . S
C871 C879 1.433 . S
C872 H868 0.929 . S
C872 C874 1.378 . S
C872 C876 1.350 . S
C873 C876 1.463 . S
C873 C878 1.350 . S
C873 N881 1.427 . S
C874 H865 0.930 . S
C874 C872 1.378 . S
C874 C875 1.367 . S
C875 C874 1.367 . S
C875 C877 1.433 . S
C876 C872 1.350 . S
C876 C873 1.463 . S
C876 N880 1.427 . S
C877 H867 0.929 . S
C877 C875 1.433 . S
C877 N880 1.384 . S
C878 H869 0.929 . S
C878 C870 1.378 . S
C878 C873 1.350 . S
C879 H866 0.929 . S
C879 C871 1.433 . S
C879 N881 1.384 . S
N880 C876 1.427 . S
N880 C877 1.384 . S
N881 C873 1.427 . S
N881 C879 1.384 . S
H882 C888 0.930 . S
H883 C892 0.930 . S
H884 C897 0.929 . S
H885 C895 0.929 . S
H886 C890 0.929 . S
H887 C896 0.929 . S
C888 H882 0.930 . S
C888 C889 1.367 . S
C888 C896 1.378 . S
C889 C888 1.367 . S
C889 C897 1.433 . S
C890 H886 0.929 . S
C890 C892 1.378 . S
C890 C894 1.350 . S
C891 C894 1.463 . S
C891 C896 1.350 . S
C891 N899 1.427 . S
C892 H883 0.930 . S
C892 C890 1.378 . S
C892 C893 1.367 . S
C893 C892 1.367 . S
C893 C895 1.433 . S
C894 C890 1.350 . S
C894 C891 1.463 . S
C894 N898 1.427 . S
C895 H885 0.929 . S
C895 C893 1.433 . S
C895 N898 1.384 . S
C896 H887 0.929 . S
C896 C888 1.378 . S
C896 C891 1.350 . S
C897 H884 0.929 . S
C897 C889 1.433 . S
C897 N899 1.384 . S
N898 C894 1.427 . S
N898 C895 1.384 . S
N899 C891 1.427 . S
N899 C897 1.384 . S
H900 C906 0.930 . S
H901 C910 0.930 . S
H902 C915 0.929 . S
H903 C913 0.929 . S
H904 C908 0.929 . S
H905 C914 0.929 . S
C906 H900 0.930 . S
C906 C907 1.367 . S
C906 C914 1.378 . S
C907 C906 1.367 . S
C907 C915 1.433 . S
C908 H904 0.929 . S
C908 C910 1.378 . S
C908 C912 1.350 . S
C909 C912 1.463 1_565 S
C909 C914 1.350 . S
C909 N917 1.427 . S
C910 H901 0.930 . S
C910 C908 1.378 . S
C910 C911 1.367 . S
C911 C910 1.367 . S
C911 C913 1.433 . S
C912 C908 1.350 . S
C912 C909 1.463 1_545 S
C912 N916 1.427 . S
C913 H903 0.929 . S
C913 C911 1.433 . S
C913 N916 1.384 . S
C914 H905 0.929 . S
C914 C906 1.378 . S
C914 C909 1.350 . S
C915 H902 0.929 . S
C915 C907 1.433 . S
C915 N917 1.384 . S
N916 C912 1.427 . S
N916 C913 1.384 . S
N917 C909 1.427 . S
N917 C915 1.384 . S
H918 C924 0.930 . S
H919 C928 0.930 . S
H920 C933 0.929 . S
H921 C931 0.929 . S
H922 C926 0.929 . S
H923 C932 0.929 . S
C924 H918 0.930 . S
C924 C925 1.367 . S
C924 C932 1.378 . S
C925 C924 1.367 . S
C925 C933 1.433 . S
C926 H922 0.929 . S
C926 C928 1.378 . S
C926 C930 1.350 . S
C927 C930 1.463 . S
C927 C932 1.350 . S
C927 N935 1.427 . S
C928 H919 0.930 . S
C928 C926 1.378 . S
C928 C929 1.367 . S
C929 C928 1.367 . S
C929 C931 1.433 . S
C930 C926 1.350 . S
C930 C927 1.463 . S
C930 N934 1.427 . S
C931 H921 0.929 . S
C931 C929 1.433 . S
C931 N934 1.384 . S
C932 H923 0.929 . S
C932 C924 1.378 . S
C932 C927 1.350 . S
C933 H920 0.929 . S
C933 C925 1.433 . S
C933 N935 1.384 . S
N934 C930 1.427 . S
N934 C931 1.384 . S
N935 C927 1.427 . S
N935 C933 1.384 . S
H936 C942 0.930 . S
H937 C946 0.930 . S
H938 C951 0.929 . S
H939 C949 0.929 . S
H940 C944 0.929 . S
H941 C950 0.929 . S
C942 H936 0.930 . S
C942 C943 1.367 . S
C942 C950 1.378 . S
C943 C942 1.367 . S
C943 C951 1.433 . S
C944 H940 0.929 . S
C944 C946 1.378 . S
C944 C948 1.350 . S
C945 C948 1.463 . S
C945 C950 1.350 . S
C945 N953 1.427 . S
C946 H937 0.930 . S
C946 C944 1.378 . S
C946 C947 1.367 . S
C947 C946 1.367 . S
C947 C949 1.433 . S
C948 C944 1.350 . S
C948 C945 1.463 . S
C948 N952 1.427 . S
C949 H939 0.929 . S
C949 C947 1.433 . S
C949 N952 1.384 . S
C950 H941 0.929 . S
C950 C942 1.378 . S
C950 C945 1.350 . S
C951 H938 0.929 . S
C951 C943 1.433 . S
C951 N953 1.384 . S
N952 C948 1.427 . S
N952 C949 1.384 . S
N953 C945 1.427 . S
N953 C951 1.384 . S
H954 C960 0.930 . S
H955 C964 0.930 . S
H956 C969 0.929 . S
H957 C967 0.929 . S
H958 C962 0.929 . S
H959 C968 0.929 . S
C960 H954 0.930 . S
C960 C961 1.367 . S
C960 C968 1.378 . S
C961 C960 1.367 . S
C961 C969 1.433 . S
C962 H958 0.929 . S
C962 C964 1.378 . S
C962 C966 1.350 . S
C963 C966 1.463 . S
C963 C968 1.350 . S
C963 N971 1.427 . S
C964 H955 0.930 . S
C964 C962 1.378 . S
C964 C965 1.367 . S
C965 C964 1.367 . S
C965 C967 1.433 . S
C966 C962 1.350 . S
C966 C963 1.463 . S
C966 N970 1.427 . S
C967 H957 0.929 . S
C967 C965 1.433 . S
C967 N970 1.384 . S
C968 H959 0.929 . S
C968 C960 1.378 . S
C968 C963 1.350 . S
C969 H956 0.929 . S
C969 C961 1.433 . S
C969 N971 1.384 . S
N970 C966 1.427 . S
N970 C967 1.384 . S
N971 C963 1.427 . S
N971 C969 1.384 . S
H972 C978 0.930 . S
H973 C982 0.930 . S
H974 C987 0.929 . S
H975 C985 0.923 1_545 S
H976 C980 0.929 . S
H977 C986 0.929 . S
C978 H972 0.930 . S
C978 C979 1.367 . S
C978 C986 1.378 . S
C979 C978 1.367 . S
C979 C987 1.433 . S
C980 H976 0.929 . S
C980 C982 1.378 . S
C980 C984 1.350 . S
C981 C984 1.463 . S
C981 C986 1.350 . S
C981 N989 1.427 . S
C982 H973 0.930 . S
C982 C980 1.378 . S
C982 C983 1.367 . S
C983 C982 1.367 . S
C983 C985 1.439 . S
C984 C980 1.350 . S
C984 C981 1.463 . S
C984 N988 1.427 . S
C985 H975 0.923 1_565 S
C985 C983 1.439 . S
C985 N988 1.384 . S
C986 H977 0.929 . S
C986 C978 1.378 . S
C986 C981 1.350 . S
C987 H974 0.929 . S
C987 C979 1.433 . S
C987 N989 1.384 . S
N988 C984 1.427 . S
N988 C985 1.384 . S
N989 C981 1.427 . S
N989 C987 1.384 . S
H990 C996 0.930 . S
H991 C1000 0.930 . S
H992 C1005 0.929 . S
H993 C1003 0.921 . S
H994 C998 0.929 . S
H995 C1004 0.929 . S
C996 H990 0.930 . S
C996 C997 1.367 . S
C996 C1004 1.378 . S
C997 C996 1.367 . S
C997 C1005 1.433 . S
C998 H994 0.929 . S
C998 C1000 1.378 . S
C998 C1002 1.350 1_545 S
C999 C1002 1.463 . S
C999 C1004 1.350 . S
C999 N1007 1.427 . S
C1000 H991 0.930 . S
C1000 C998 1.378 . S
C1000 C1001 1.367 . S
C1001 C1000 1.367 . S
C1001 C1003 1.411 1_545 S
C1002 C998 1.350 1_565 S
C1002 C999 1.463 . S
C1002 N1006 1.427 . S
C1003 H993 0.921 . S
C1003 C1001 1.411 1_565 S
C1003 N1006 1.415 . S
C1004 H995 0.929 . S
C1004 C996 1.378 . S
C1004 C999 1.350 . S
C1005 H992 0.929 . S
C1005 C997 1.433 . S
C1005 N1007 1.384 . S
N1006 C1002 1.427 . S
N1006 C1003 1.415 . S
N1007 C999 1.427 . S
N1007 C1005 1.384 . S
H1008 C1014 0.930 . S
H1009 C1018 0.930 . S
H1010 C1023 0.929 . S
H1011 C1021 0.929 . S
H1012 C1016 0.929 . S
H1013 C1022 0.929 . S
C1014 H1008 0.930 . S
C1014 C1015 1.367 . S
C1014 C1022 1.378 . S
C1015 C1014 1.367 . S
C1015 C1023 1.433 . S
C1016 H1012 0.929 . S
C1016 C1018 1.378 . S
C1016 C1020 1.350 . S
C1017 C1020 1.463 . S
C1017 C1022 1.350 . S
C1017 N1025 1.427 . S
C1018 H1009 0.930 . S
C1018 C1016 1.378 . S
C1018 C1019 1.367 . S
C1019 C1018 1.367 . S
C1019 C1021 1.433 . S
C1020 C1016 1.350 . S
C1020 C1017 1.463 . S
C1020 N1024 1.427 . S
C1021 H1011 0.929 . S
C1021 C1019 1.433 . S
C1021 N1024 1.384 . S
C1022 H1013 0.929 . S
C1022 C1014 1.378 . S
C1022 C1017 1.350 . S
C1023 H1010 0.929 . S
C1023 C1015 1.433 . S
C1023 N1025 1.384 . S
N1024 C1020 1.427 . S
N1024 C1021 1.384 . S
N1025 C1017 1.427 . S
N1025 C1023 1.384 . S
H1026 C1032 0.930 . S
H1027 C1036 0.930 . S
H1028 C1041 0.929 . S
H1029 C1039 0.929 . S
H1030 C1034 0.929 . S
H1031 C1040 0.929 . S
C1032 H1026 0.930 . S
C1032 C1033 1.367 . S
C1032 C1040 1.378 . S
C1033 C1032 1.367 . S
C1033 C1041 1.433 . S
C1034 H1030 0.929 . S
C1034 C1036 1.378 . S
C1034 C1038 1.350 . S
C1035 C1038 1.463 . S
C1035 C1040 1.350 . S
C1035 N1043 1.427 . S
C1036 H1027 0.930 . S
C1036 C1034 1.378 . S
C1036 C1037 1.367 . S
C1037 C1036 1.367 . S
C1037 C1039 1.433 . S
C1038 C1034 1.350 . S
C1038 C1035 1.463 . S
C1038 N1042 1.427 . S
C1039 H1029 0.929 . S
C1039 C1037 1.433 . S
C1039 N1042 1.384 . S
C1040 H1031 0.929 . S
C1040 C1032 1.378 . S
C1040 C1035 1.350 . S
C1041 H1028 0.929 . S
C1041 C1033 1.433 . S
C1041 N1043 1.384 . S
N1042 C1038 1.427 . S
N1042 C1039 1.384 . S
N1043 C1035 1.427 . S
N1043 C1041 1.384 . S
H1044 C1050 0.930 . S
H1045 C1054 0.930 . S
H1046 C1059 0.929 . S
H1047 C1057 0.929 . S
H1048 C1052 0.929 . S
H1049 C1058 0.929 . S
C1050 H1044 0.930 . S
C1050 C1051 1.367 . S
C1050 C1058 1.378 . S
C1051 C1050 1.367 . S
C1051 C1059 1.433 . S
C1052 H1048 0.929 . S
C1052 C1054 1.378 . S
C1052 C1056 1.350 . S
C1053 C1056 1.463 . S
C1053 C1058 1.350 . S
C1053 N1061 1.427 . S
C1054 H1045 0.930 . S
C1054 C1052 1.378 . S
C1054 C1055 1.367 . S
C1055 C1054 1.367 . S
C1055 C1057 1.433 . S
C1056 C1052 1.350 . S
C1056 C1053 1.463 . S
C1056 N1060 1.427 . S
C1057 H1047 0.929 . S
C1057 C1055 1.433 . S
C1057 N1060 1.384 . S
C1058 H1049 0.929 . S
C1058 C1050 1.378 . S
C1058 C1053 1.350 . S
C1059 H1046 0.929 . S
C1059 C1051 1.433 . S
C1059 N1061 1.384 . S
N1060 C1056 1.427 . S
N1060 C1057 1.384 . S
N1061 C1053 1.427 . S
N1061 C1059 1.384 . S
H1062 C1068 0.930 . S
H1063 C1072 0.930 . S
H1064 C1077 0.929 . S
H1065 C1075 0.929 . S
H1066 C1070 0.929 . S
H1067 C1076 0.886 1_545 S
C1068 H1062 0.930 . S
C1068 C1069 1.367 . S
C1068 C1076 1.378 . S
C1069 C1068 1.367 . S
C1069 C1077 1.433 . S
C1070 H1066 0.929 . S
C1070 C1072 1.378 . S
C1070 C1074 1.350 . S
C1071 C1074 1.463 1_565 S
C1071 C1076 1.350 . S
C1071 N1079 1.427 . S
C1072 H1063 0.930 . S
C1072 C1070 1.378 . S
C1072 C1073 1.367 . S
C1073 C1072 1.367 . S
C1073 C1075 1.433 . S
C1074 C1070 1.350 . S
C1074 C1071 1.463 1_545 S
C1074 N1078 1.427 . S
C1075 H1065 0.929 . S
C1075 C1073 1.433 . S
C1075 N1078 1.384 . S
C1076 H1067 0.886 1_565 S
C1076 C1068 1.378 . S
C1076 C1071 1.350 . S
C1077 H1064 0.929 . S
C1077 C1069 1.433 . S
C1077 N1079 1.384 . S
N1078 C1074 1.427 . S
N1078 C1075 1.384 . S
N1079 C1071 1.427 . S
N1079 C1077 1.384 . S
H1080 C1086 0.930 . S
H1081 C1090 0.930 . S
H1082 C1095 0.929 . S
H1083 C1093 0.929 . S
H1084 C1088 0.929 . S
H1085 C1094 0.929 . S
C1086 H1080 0.930 . S
C1086 C1087 1.367 . S
C1086 C1094 1.378 . S
C1087 C1086 1.367 . S
C1087 C1095 1.433 . S
C1088 H1084 0.929 . S
C1088 C1090 1.378 . S
C1088 C1092 1.350 . S
C1089 C1092 1.463 . S
C1089 C1094 1.350 . S
C1089 N1097 1.427 . S
C1090 H1081 0.930 . S
C1090 C1088 1.378 . S
C1090 C1091 1.367 . S
C1091 C1090 1.367 . S
C1091 C1093 1.433 . S
C1092 C1088 1.350 . S
C1092 C1089 1.463 . S
C1092 N1096 1.427 . S
C1093 H1083 0.929 . S
C1093 C1091 1.433 . S
C1093 N1096 1.384 . S
C1094 H1085 0.929 . S
C1094 C1086 1.378 . S
C1094 C1089 1.350 . S
C1095 H1082 0.929 . S
C1095 C1087 1.433 . S
C1095 N1097 1.384 . S
N1096 C1092 1.427 . S
N1096 C1093 1.384 . S
N1097 C1089 1.427 . S
N1097 C1095 1.384 . S
H1098 C1104 0.930 . S
H1099 C1108 0.930 . S
H1100 C1113 0.929 . S
H1101 C1111 0.929 . S
H1102 C1106 0.929 . S
H1103 C1112 0.929 . S
C1104 H1098 0.930 . S
C1104 C1105 1.367 . S
C1104 C1112 1.378 . S
C1105 C1104 1.367 . S
C1105 C1113 1.433 . S
C1106 H1102 0.929 . S
C1106 C1108 1.378 . S
C1106 C1110 1.350 . S
C1107 C1110 1.463 . S
C1107 C1112 1.350 . S
C1107 N1115 1.427 . S
C1108 H1099 0.930 . S
C1108 C1106 1.378 . S
C1108 C1109 1.367 . S
C1109 C1108 1.367 . S
C1109 C1111 1.433 . S
C1110 C1106 1.350 . S
C1110 C1107 1.463 . S
C1110 N1114 1.427 . S
C1111 H1101 0.929 . S
C1111 C1109 1.433 . S
C1111 N1114 1.384 . S
C1112 H1103 0.929 . S
C1112 C1104 1.378 . S
C1112 C1107 1.350 . S
C1113 H1100 0.929 . S
C1113 C1105 1.433 . S
C1113 N1115 1.384 . S
N1114 C1110 1.427 . S
N1114 C1111 1.384 . S
N1115 C1107 1.427 . S
N1115 C1113 1.384 . S
H1116 C1122 0.930 . S
H1117 C1126 0.930 . S
H1118 C1131 0.929 . S
H1119 C1129 0.929 . S
H1120 C1124 0.929 . S
H1121 C1130 0.929 . S
C1122 H1116 0.930 . S
C1122 C1123 1.367 . S
C1122 C1130 1.378 . S
C1123 C1122 1.367 . S
C1123 C1131 1.433 . S
C1124 H1120 0.929 . S
C1124 C1126 1.378 . S
C1124 C1128 1.350 . S
C1125 C1128 1.463 . S
C1125 C1130 1.350 . S
C1125 N1133 1.427 . S
C1126 H1117 0.930 . S
C1126 C1124 1.378 . S
C1126 C1127 1.367 . S
C1127 C1126 1.367 . S
C1127 C1129 1.433 . S
C1128 C1124 1.350 . S
C1128 C1125 1.463 . S
C1128 N1132 1.427 . S
C1129 H1119 0.929 . S
C1129 C1127 1.433 . S
C1129 N1132 1.384 . S
C1130 H1121 0.929 . S
C1130 C1122 1.378 . S
C1130 C1125 1.350 . S
C1131 H1118 0.929 . S
C1131 C1123 1.433 . S
C1131 N1133 1.384 . S
N1132 C1128 1.427 . S
N1132 C1129 1.384 . S
N1133 C1125 1.427 . S
N1133 C1131 1.384 . S
H1134 C1140 0.930 . S
H1135 C1144 0.930 . S
H1136 C1149 0.929 . S
H1137 C1147 0.929 . S
H1138 C1142 0.929 . S
H1139 C1148 0.929 . S
C1140 H1134 0.930 . S
C1140 C1141 1.367 . S
C1140 C1148 1.378 . S
C1141 C1140 1.367 . S
C1141 C1149 1.433 . S
C1142 H1138 0.929 . S
C1142 C1144 1.378 . S
C1142 C1146 1.350 . S
C1143 C1146 1.463 . S
C1143 C1148 1.350 . S
C1143 N1151 1.427 . S
C1144 H1135 0.930 . S
C1144 C1142 1.378 . S
C1144 C1145 1.367 . S
C1145 C1144 1.367 . S
C1145 C1147 1.433 . S
C1146 C1142 1.350 . S
C1146 C1143 1.463 . S
C1146 N1150 1.427 . S
C1147 H1137 0.929 . S
C1147 C1145 1.433 . S
C1147 N1150 1.384 . S
C1148 H1139 0.929 . S
C1148 C1140 1.378 . S
C1148 C1143 1.350 . S
C1149 H1136 0.929 . S
C1149 C1141 1.433 . S
C1149 N1151 1.384 . S
N1150 C1146 1.427 . S
N1150 C1147 1.384 . S
N1151 C1143 1.427 . S
N1151 C1149 1.384 . S
H1152 C1158 0.930 . S
H1153 C1162 0.930 . S
H1154 C1167 0.929 . S
H1155 C1165 0.929 . S
H1156 C1160 0.929 . S
H1157 C1166 0.929 . S
C1158 H1152 0.930 . S
C1158 C1159 1.367 . S
C1158 C1166 1.378 . S
C1159 C1158 1.367 . S
C1159 C1167 1.433 . S
C1160 H1156 0.929 . S
C1160 C1162 1.378 . S
C1160 C1164 1.350 . S
C1161 C1164 1.463 . S
C1161 C1166 1.350 . S
C1161 N1169 1.427 . S
C1162 H1153 0.930 . S
C1162 C1160 1.378 . S
C1162 C1163 1.367 . S
C1163 C1162 1.367 . S
C1163 C1165 1.433 . S
C1164 C1160 1.350 . S
C1164 C1161 1.463 . S
C1164 N1168 1.427 . S
C1165 H1155 0.929 . S
C1165 C1163 1.433 . S
C1165 N1168 1.384 . S
C1166 H1157 0.929 . S
C1166 C1158 1.378 . S
C1166 C1161 1.350 . S
C1167 H1154 0.929 . S
C1167 C1159 1.433 . S
C1167 N1169 1.384 . S
N1168 C1164 1.427 . S
N1168 C1165 1.384 . S
N1169 C1161 1.427 . S
N1169 C1167 1.384 . S
H1170 C1176 0.930 . S
H1171 C1180 0.930 . S
H1172 C1185 0.929 . S
H1173 C1183 0.929 . S
H1174 C1178 0.929 . S
H1175 C1184 0.929 . S
C1176 H1170 0.930 . S
C1176 C1177 1.367 . S
C1176 C1184 1.378 . S
C1177 C1176 1.367 . S
C1177 C1185 1.433 . S
C1178 H1174 0.929 . S
C1178 C1180 1.378 . S
C1178 C1182 1.350 . S
C1179 C1182 1.463 . S
C1179 C1184 1.350 . S
C1179 N1187 1.427 . S
C1180 H1171 0.930 . S
C1180 C1178 1.378 . S
C1180 C1181 1.367 . S
C1181 C1180 1.367 . S
C1181 C1183 1.433 . S
C1182 C1178 1.350 . S
C1182 C1179 1.463 . S
C1182 N1186 1.427 . S
C1183 H1173 0.929 . S
C1183 C1181 1.433 . S
C1183 N1186 1.384 . S
C1184 H1175 0.929 . S
C1184 C1176 1.378 . S
C1184 C1179 1.350 . S
C1185 H1172 0.929 . S
C1185 C1177 1.433 . S
C1185 N1187 1.384 . S
N1186 C1182 1.427 . S
N1186 C1183 1.384 . S
N1187 C1179 1.427 . S
N1187 C1185 1.384 . S
H1188 C1194 0.930 . S
H1189 C1198 0.930 . S
H1190 C1203 0.929 . S
H1191 C1201 0.929 . S
H1192 C1196 0.929 . S
H1193 C1202 0.929 . S
C1194 H1188 0.930 . S
C1194 C1195 1.367 . S
C1194 C1202 1.378 . S
C1195 C1194 1.367 . S
C1195 C1203 1.433 . S
C1196 H1192 0.929 . S
C1196 C1198 1.378 . S
C1196 C1200 1.350 . S
C1197 C1200 1.463 . S
C1197 C1202 1.350 . S
C1197 N1205 1.427 . S
C1198 H1189 0.930 . S
C1198 C1196 1.378 . S
C1198 C1199 1.367 . S
C1199 C1198 1.367 . S
C1199 C1201 1.433 . S
C1200 C1196 1.350 . S
C1200 C1197 1.463 . S
C1200 N1204 1.427 . S
C1201 H1191 0.929 . S
C1201 C1199 1.433 . S
C1201 N1204 1.384 . S
C1202 H1193 0.929 . S
C1202 C1194 1.378 . S
C1202 C1197 1.350 . S
C1203 H1190 0.929 . S
C1203 C1195 1.433 . S
C1203 N1205 1.384 . S
N1204 C1200 1.427 . S
N1204 C1201 1.384 . S
N1205 C1197 1.427 . S
N1205 C1203 1.384 . S
H1206 C1212 0.930 . S
H1207 C1216 0.930 . S
H1208 C1221 0.929 . S
H1209 C1219 0.929 . S
H1210 C1214 0.929 . S
H1211 C1220 0.929 . S
C1212 H1206 0.930 . S
C1212 C1213 1.367 . S
C1212 C1220 1.378 . S
C1213 C1212 1.367 . S
C1213 C1221 1.433 . S
C1214 H1210 0.929 . S
C1214 C1216 1.378 . S
C1214 C1218 1.350 . S
C1215 C1218 1.463 . S
C1215 C1220 1.350 . S
C1215 N1223 1.427 . S
C1216 H1207 0.930 . S
C1216 C1214 1.378 . S
C1216 C1217 1.367 . S
C1217 C1216 1.367 . S
C1217 C1219 1.433 . S
C1218 C1214 1.350 . S
C1218 C1215 1.463 . S
C1218 N1222 1.427 . S
C1219 H1209 0.929 . S
C1219 C1217 1.433 . S
C1219 N1222 1.384 . S
C1220 H1211 0.929 . S
C1220 C1212 1.378 . S
C1220 C1215 1.350 . S
C1221 H1208 0.929 . S
C1221 C1213 1.433 . S
C1221 N1223 1.384 . S
N1222 C1218 1.427 . S
N1222 C1219 1.384 . S
N1223 C1215 1.427 . S
N1223 C1221 1.384 . S
H1224 C1230 0.930 . S
H1225 C1234 0.930 . S
H1226 C1239 0.929 . S
H1227 C1237 0.929 . S
H1228 C1232 0.929 . S
H1229 C1238 0.929 . S
C1230 H1224 0.930 . S
C1230 C1231 1.367 . S
C1230 C1238 1.378 . S
C1231 C1230 1.367 . S
C1231 C1239 1.433 . S
C1232 H1228 0.929 . S
C1232 C1234 1.378 . S
C1232 C1236 1.350 . S
C1233 C1236 1.463 . S
C1233 C1238 1.350 . S
C1233 N1241 1.427 . S
C1234 H1225 0.930 . S
C1234 C1232 1.378 . S
C1234 C1235 1.367 . S
C1235 C1234 1.367 . S
C1235 C1237 1.433 . S
C1236 C1232 1.350 . S
C1236 C1233 1.463 . S
C1236 N1240 1.427 . S
C1237 H1227 0.929 . S
C1237 C1235 1.433 . S
C1237 N1240 1.384 . S
C1238 H1229 0.929 . S
C1238 C1230 1.378 . S
C1238 C1233 1.350 . S
C1239 H1226 0.929 . S
C1239 C1231 1.433 . S
C1239 N1241 1.384 . S
N1240 C1236 1.427 . S
N1240 C1237 1.384 . S
N1241 C1233 1.427 . S
N1241 C1239 1.384 . S
H1242 C1248 0.930 . S
H1243 C1252 0.930 . S
H1244 C1257 0.929 . S
H1245 C1255 0.929 1_455 S
H1246 C1250 0.929 . S
H1247 C1256 0.929 . S
C1248 H1242 0.930 . S
C1248 C1249 1.367 . S
C1248 C1256 1.378 . S
C1249 C1248 1.367 . S
C1249 C1257 1.433 . S
C1250 H1246 0.929 . S
C1250 C1252 1.378 1_655 S
C1250 C1254 1.350 . S
C1251 C1254 1.463 . S
C1251 C1256 1.350 . S
C1251 N1259 1.427 . S
C1252 H1243 0.930 . S
C1252 C1250 1.378 1_455 S
C1252 C1253 1.367 . S
C1253 C1252 1.367 . S
C1253 C1255 1.433 1_455 S
C1254 C1250 1.350 . S
C1254 C1251 1.463 . S
C1254 N1258 1.427 . S
C1255 H1245 0.929 1_655 S
C1255 C1253 1.433 1_655 S
C1255 N1258 1.384 . S
C1256 H1247 0.929 . S
C1256 C1248 1.378 . S
C1256 C1251 1.350 . S
C1257 H1244 0.929 . S
C1257 C1249 1.433 . S
C1257 N1259 1.384 . S
N1258 C1254 1.427 . S
N1258 C1255 1.384 . S
N1259 C1251 1.427 . S
N1259 C1257 1.384 . S
H1260 C1266 0.930 . S
H1261 C1270 0.930 . S
H1262 C1275 0.929 . S
H1263 C1273 0.929 . S
H1264 C1268 0.929 . S
H1265 C1274 0.929 . S
C1266 H1260 0.930 . S
C1266 C1267 1.367 . S
C1266 C1274 1.378 . S
C1267 C1266 1.367 . S
C1267 C1275 1.433 . S
C1268 H1264 0.929 . S
C1268 C1270 1.378 . S
C1268 C1272 1.350 . S
C1269 C1272 1.463 . S
C1269 C1274 1.350 . S
C1269 N1277 1.427 . S
C1270 H1261 0.930 . S
C1270 C1268 1.378 . S
C1270 C1271 1.367 . S
C1271 C1270 1.367 . S
C1271 C1273 1.433 . S
C1272 C1268 1.350 . S
C1272 C1269 1.463 . S
C1272 N1276 1.427 . S
C1273 H1263 0.929 . S
C1273 C1271 1.433 . S
C1273 N1276 1.384 . S
C1274 H1265 0.929 . S
C1274 C1266 1.378 . S
C1274 C1269 1.350 . S
C1275 H1262 0.929 . S
C1275 C1267 1.433 . S
C1275 N1277 1.384 . S
N1276 C1272 1.427 . S
N1276 C1273 1.384 . S
N1277 C1269 1.427 . S
N1277 C1275 1.384 . S
H1278 C1284 0.930 . S
H1279 C1288 0.930 . S
H1280 C1293 0.929 . S
H1281 C1291 0.929 . S
H1282 C1286 0.929 . S
H1283 C1292 0.929 . S
C1284 H1278 0.930 . S
C1284 C1285 1.367 . S
C1284 C1292 1.378 . S
C1285 C1284 1.367 . S
C1285 C1293 1.433 . S
C1286 H1282 0.929 . S
C1286 C1288 1.378 . S
C1286 C1290 1.350 . S
C1287 C1290 1.463 . S
C1287 C1292 1.350 . S
C1287 N1295 1.427 . S
C1288 H1279 0.930 . S
C1288 C1286 1.378 . S
C1288 C1289 1.367 . S
C1289 C1288 1.367 . S
C1289 C1291 1.433 . S
C1290 C1286 1.350 . S
C1290 C1287 1.463 . S
C1290 N1294 1.427 . S
C1291 H1281 0.929 . S
C1291 C1289 1.433 . S
C1291 N1294 1.384 . S
C1292 H1283 0.929 . S
C1292 C1284 1.378 . S
C1292 C1287 1.350 . S
C1293 H1280 0.929 . S
C1293 C1285 1.433 . S
C1293 N1295 1.384 . S
N1294 C1290 1.427 . S
N1294 C1291 1.384 . S
N1295 C1287 1.427 . S
N1295 C1293 1.384 . S
H1296 C1302 0.930 . S
H1297 C1306 0.930 . S
H1298 C1311 0.929 . S
H1299 C1309 0.929 . S
H1300 C1304 0.929 . S
H1301 C1310 0.929 . S
C1302 H1296 0.930 . S
C1302 C1303 1.367 . S
C1302 C1310 1.378 . S
C1303 C1302 1.367 . S
C1303 C1311 1.433 . S
C1304 H1300 0.929 . S
C1304 C1306 1.378 . S
C1304 C1308 1.350 . S
C1305 C1308 1.463 . S
C1305 C1310 1.350 . S
C1305 N1313 1.427 . S
C1306 H1297 0.930 . S
C1306 C1304 1.378 . S
C1306 C1307 1.367 . S
C1307 C1306 1.367 . S
C1307 C1309 1.433 . S
C1308 C1304 1.350 . S
C1308 C1305 1.463 . S
C1308 N1312 1.427 . S
C1309 H1299 0.929 . S
C1309 C1307 1.433 . S
C1309 N1312 1.384 . S
C1310 H1301 0.929 . S
C1310 C1302 1.378 . S
C1310 C1305 1.350 . S
C1311 H1298 0.929 . S
C1311 C1303 1.433 . S
C1311 N1313 1.384 . S
N1312 C1308 1.427 . S
N1312 C1309 1.384 . S
N1313 C1305 1.427 . S
N1313 C1311 1.384 . S
H1314 C1320 0.930 . S
H1315 C1324 0.930 . S
H1316 C1329 0.929 . S
H1317 C1327 0.929 1_655 S
H1318 C1322 0.929 . S
H1319 C1328 0.929 . S
C1320 H1314 0.930 . S
C1320 C1321 1.367 . S
C1320 C1328 1.378 . S
C1321 C1320 1.367 . S
C1321 C1329 1.433 . S
C1322 H1318 0.929 . S
C1322 C1324 1.378 . S
C1322 C1326 1.350 . S
C1323 C1326 1.463 . S
C1323 C1328 1.350 . S
C1323 N1331 1.427 . S
C1324 H1315 0.930 . S
C1324 C1322 1.378 . S
C1324 C1325 1.367 . S
C1325 C1324 1.367 . S
C1325 C1327 1.433 . S
C1326 C1322 1.350 . S
C1326 C1323 1.463 . S
C1326 N1330 1.427 . S
C1327 H1317 0.929 1_455 S
C1327 C1325 1.433 . S
C1327 N1330 1.384 . S
C1328 H1319 0.929 . S
C1328 C1320 1.378 . S
C1328 C1323 1.350 . S
C1329 H1316 0.929 . S
C1329 C1321 1.433 . S
C1329 N1331 1.384 . S
N1330 C1326 1.427 . S
N1330 C1327 1.384 . S
N1331 C1323 1.427 . S
N1331 C1329 1.384 . S
H1332 C1338 0.930 . S
H1333 C1342 0.930 . S
H1334 C1347 0.929 . S
H1335 C1345 0.929 . S
H1336 C1340 0.929 . S
H1337 C1346 0.929 . S
C1338 H1332 0.930 . S
C1338 C1339 1.367 . S
C1338 C1346 1.378 . S
C1339 C1338 1.367 . S
C1339 C1347 1.433 . S
C1340 H1336 0.929 . S
C1340 C1342 1.378 . S
C1340 C1344 1.350 . S
C1341 C1344 1.463 . S
C1341 C1346 1.350 . S
C1341 N1349 1.427 . S
C1342 H1333 0.930 . S
C1342 C1340 1.378 . S
C1342 C1343 1.367 . S
C1343 C1342 1.367 . S
C1343 C1345 1.433 . S
C1344 C1340 1.350 . S
C1344 C1341 1.463 . S
C1344 N1348 1.427 . S
C1345 H1335 0.929 . S
C1345 C1343 1.433 . S
C1345 N1348 1.384 . S
C1346 H1337 0.929 . S
C1346 C1338 1.378 . S
C1346 C1341 1.350 . S
C1347 H1334 0.929 . S
C1347 C1339 1.433 . S
C1347 N1349 1.384 . S
N1348 C1344 1.427 . S
N1348 C1345 1.384 . S
N1349 C1341 1.427 . S
N1349 C1347 1.384 . S
H1350 C1356 0.930 . S
H1351 C1360 0.930 . S
H1352 C1365 0.929 . S
H1353 C1363 0.929 . S
H1354 C1358 0.929 . S
H1355 C1364 0.929 . S
C1356 H1350 0.930 . S
C1356 C1357 1.367 . S
C1356 C1364 1.378 . S
C1357 C1356 1.367 . S
C1357 C1365 1.433 . S
C1358 H1354 0.929 . S
C1358 C1360 1.378 . S
C1358 C1362 1.350 . S
C1359 C1362 1.463 . S
C1359 C1364 1.350 . S
C1359 N1367 1.427 . S
C1360 H1351 0.930 . S
C1360 C1358 1.378 . S
C1360 C1361 1.367 . S
C1361 C1360 1.367 . S
C1361 C1363 1.433 . S
C1362 C1358 1.350 . S
C1362 C1359 1.463 . S
C1362 N1366 1.427 . S
C1363 H1353 0.929 . S
C1363 C1361 1.433 . S
C1363 N1366 1.384 . S
C1364 H1355 0.929 . S
C1364 C1356 1.378 . S
C1364 C1359 1.350 . S
C1365 H1352 0.929 . S
C1365 C1357 1.433 . S
C1365 N1367 1.384 . S
N1366 C1362 1.427 . S
N1366 C1363 1.384 . S
N1367 C1359 1.427 . S
N1367 C1365 1.384 . S
H1368 C1374 0.930 . S
H1369 C1378 0.930 . S
H1370 C1383 0.929 . S
H1371 C1381 0.929 . S
H1372 C1376 0.929 . S
H1373 C1382 0.929 . S
C1374 H1368 0.930 . S
C1374 C1375 1.367 . S
C1374 C1382 1.378 . S
C1375 C1374 1.367 . S
C1375 C1383 1.433 . S
C1376 H1372 0.929 . S
C1376 C1378 1.378 . S
C1376 C1380 1.350 . S
C1377 C1380 1.463 . S
C1377 C1382 1.350 . S
C1377 N1385 1.427 . S
C1378 H1369 0.930 . S
C1378 C1376 1.378 . S
C1378 C1379 1.367 . S
C1379 C1378 1.367 . S
C1379 C1381 1.433 . S
C1380 C1376 1.350 . S
C1380 C1377 1.463 . S
C1380 N1384 1.427 . S
C1381 H1371 0.929 . S
C1381 C1379 1.433 . S
C1381 N1384 1.384 . S
C1382 H1373 0.929 . S
C1382 C1374 1.378 . S
C1382 C1377 1.350 . S
C1383 H1370 0.929 . S
C1383 C1375 1.433 . S
C1383 N1385 1.384 . S
N1384 C1380 1.427 . S
N1384 C1381 1.384 . S
N1385 C1377 1.427 . S
N1385 C1383 1.384 . S
H1386 C1392 0.930 . S
H1387 C1396 0.930 . S
H1388 C1401 0.929 . S
H1389 C1399 0.929 . S
H1390 C1394 0.929 . S
H1391 C1400 0.929 . S
C1392 H1386 0.930 . S
C1392 C1393 1.367 . S
C1392 C1400 1.378 . S
C1393 C1392 1.367 . S
C1393 C1401 1.433 . S
C1394 H1390 0.929 . S
C1394 C1396 1.378 . S
C1394 C1398 1.350 . S
C1395 C1398 1.463 . S
C1395 C1400 1.350 . S
C1395 N1403 1.427 . S
C1396 H1387 0.930 . S
C1396 C1394 1.378 . S
C1396 C1397 1.367 . S
C1397 C1396 1.367 . S
C1397 C1399 1.433 . S
C1398 C1394 1.350 . S
C1398 C1395 1.463 . S
C1398 N1402 1.427 . S
C1399 H1389 0.929 . S
C1399 C1397 1.433 . S
C1399 N1402 1.384 . S
C1400 H1391 0.929 . S
C1400 C1392 1.378 . S
C1400 C1395 1.350 . S
C1401 H1388 0.929 . S
C1401 C1393 1.433 . S
C1401 N1403 1.384 . S
N1402 C1398 1.427 . S
N1402 C1399 1.384 . S
N1403 C1395 1.427 . S
N1403 C1401 1.384 . S
H1404 C1410 0.930 . S
H1405 C1414 0.930 . S
H1406 C1419 0.929 . S
H1407 C1417 0.929 . S
H1408 C1412 0.929 . S
H1409 C1418 0.929 . S
C1410 H1404 0.930 . S
C1410 C1411 1.367 . S
C1410 C1418 1.378 . S
C1411 C1410 1.367 . S
C1411 C1419 1.433 . S
C1412 H1408 0.929 . S
C1412 C1414 1.378 . S
C1412 C1416 1.350 . S
C1413 C1416 1.463 . S
C1413 C1418 1.350 . S
C1413 N1421 1.427 . S
C1414 H1405 0.930 . S
C1414 C1412 1.378 . S
C1414 C1415 1.367 . S
C1415 C1414 1.367 . S
C1415 C1417 1.433 . S
C1416 C1412 1.350 . S
C1416 C1413 1.463 . S
C1416 N1420 1.427 . S
C1417 H1407 0.929 . S
C1417 C1415 1.433 . S
C1417 N1420 1.384 . S
C1418 H1409 0.929 . S
C1418 C1410 1.378 . S
C1418 C1413 1.350 . S
C1419 H1406 0.929 . S
C1419 C1411 1.433 . S
C1419 N1421 1.384 . S
N1420 C1416 1.427 . S
N1420 C1417 1.384 . S
N1421 C1413 1.427 . S
N1421 C1419 1.384 . S
H1422 C1428 0.930 . S
H1423 C1432 0.930 . S
H1424 C1437 0.929 . S
H1425 C1435 0.929 . S
H1426 C1430 0.929 . S
H1427 C1436 0.929 . S
C1428 H1422 0.930 . S
C1428 C1429 1.367 . S
C1428 C1436 1.378 . S
C1429 C1428 1.367 . S
C1429 C1437 1.433 . S
C1430 H1426 0.929 . S
C1430 C1432 1.378 . S
C1430 C1434 1.350 . S
C1431 C1434 1.463 . S
C1431 C1436 1.350 . S
C1431 N1439 1.427 . S
C1432 H1423 0.930 . S
C1432 C1430 1.378 . S
C1432 C1433 1.367 . S
C1433 C1432 1.367 . S
C1433 C1435 1.433 . S
C1434 C1430 1.350 . S
C1434 C1431 1.463 . S
C1434 N1438 1.427 . S
C1435 H1425 0.929 . S
C1435 C1433 1.433 . S
C1435 N1438 1.384 . S
C1436 H1427 0.929 . S
C1436 C1428 1.378 . S
C1436 C1431 1.350 . S
C1437 H1424 0.929 . S
C1437 C1429 1.433 . S
C1437 N1439 1.384 . S
N1438 C1434 1.427 . S
N1438 C1435 1.384 . S
N1439 C1431 1.427 . S
N1439 C1437 1.384 . S
H1440 C1446 0.930 . S
H1441 C1450 0.930 . S
H1442 C1455 0.929 . S
H1443 C1453 0.929 . S
H1444 C1448 0.929 . S
H1445 C1454 0.929 . S
C1446 H1440 0.930 . S
C1446 C1447 1.367 . S
C1446 C1454 1.378 . S
C1447 C1446 1.367 . S
C1447 C1455 1.433 . S
C1448 H1444 0.929 . S
C1448 C1450 1.378 . S
C1448 C1452 1.350 . S
C1449 C1452 1.463 . S
C1449 C1454 1.350 . S
C1449 N1457 1.427 . S
C1450 H1441 0.930 . S
C1450 C1448 1.378 . S
C1450 C1451 1.367 . S
C1451 C1450 1.367 . S
C1451 C1453 1.433 . S
C1452 C1448 1.350 . S
C1452 C1449 1.463 . S
C1452 N1456 1.427 . S
C1453 H1443 0.929 . S
C1453 C1451 1.433 . S
C1453 N1456 1.384 . S
C1454 H1445 0.929 . S
C1454 C1446 1.378 . S
C1454 C1449 1.350 . S
C1455 H1442 0.929 . S
C1455 C1447 1.433 . S
C1455 N1457 1.384 . S
N1456 C1452 1.427 . S
N1456 C1453 1.384 . S
N1457 C1449 1.427 . S
N1457 C1455 1.384 . S
H1458 C1464 0.930 . S
H1459 C1468 0.930 . S
H1460 C1473 0.929 . S
H1461 C1471 0.929 . S
H1462 C1466 0.929 . S
H1463 C1472 0.929 . S
C1464 H1458 0.930 . S
C1464 C1465 1.367 . S
C1464 C1472 1.378 . S
C1465 C1464 1.367 . S
C1465 C1473 1.433 . S
C1466 H1462 0.929 . S
C1466 C1468 1.378 . S
C1466 C1470 1.350 . S
C1467 C1470 1.463 . S
C1467 C1472 1.350 . S
C1467 N1475 1.427 . S
C1468 H1459 0.930 . S
C1468 C1466 1.378 . S
C1468 C1469 1.367 . S
C1469 C1468 1.367 . S
C1469 C1471 1.433 . S
C1470 C1466 1.350 . S
C1470 C1467 1.463 . S
C1470 N1474 1.427 . S
C1471 H1461 0.929 . S
C1471 C1469 1.433 . S
C1471 N1474 1.384 . S
C1472 H1463 0.929 . S
C1472 C1464 1.378 . S
C1472 C1467 1.350 . S
C1473 H1460 0.929 . S
C1473 C1465 1.433 . S
C1473 N1475 1.384 . S
N1474 C1470 1.427 . S
N1474 C1471 1.384 . S
N1475 C1467 1.427 . S
N1475 C1473 1.384 . S
H1476 C1482 0.930 . S
H1477 C1486 0.930 . S
H1478 C1491 0.929 . S
H1479 C1489 0.929 . S
H1480 C1484 0.929 . S
H1481 C1490 0.929 . S
C1482 H1476 0.930 . S
C1482 C1483 1.367 . S
C1482 C1490 1.378 . S
C1483 C1482 1.367 . S
C1483 C1491 1.433 . S
C1484 H1480 0.929 . S
C1484 C1486 1.378 . S
C1484 C1488 1.350 . S
C1485 C1488 1.463 . S
C1485 C1490 1.350 . S
C1485 N1493 1.427 . S
C1486 H1477 0.930 . S
C1486 C1484 1.378 . S
C1486 C1487 1.367 . S
C1487 C1486 1.367 . S
C1487 C1489 1.433 . S
C1488 C1484 1.350 . S
C1488 C1485 1.463 . S
C1488 N1492 1.427 . S
C1489 H1479 0.929 . S
C1489 C1487 1.433 . S
C1489 N1492 1.384 . S
C1490 H1481 0.929 . S
C1490 C1482 1.378 . S
C1490 C1485 1.350 . S
C1491 H1478 0.929 . S
C1491 C1483 1.433 . S
C1491 N1493 1.384 . S
N1492 C1488 1.427 . S
N1492 C1489 1.384 . S
N1493 C1485 1.427 . S
N1493 C1491 1.384 . S
H1494 C1500 0.930 . S
H1495 C1504 0.960 . S
H1496 C1509 0.929 . S
H1497 C1507 0.929 . S
H1498 C1502 0.929 1_655 S
H1499 C1508 0.929 . S
C1500 H1494 0.930 . S
C1500 C1501 1.367 . S
C1500 C1508 1.378 . S
C1501 C1500 1.367 . S
C1501 C1509 1.433 . S
C1502 H1498 0.929 1_455 S
C1502 C1504 1.361 1_455 S
C1502 C1506 1.350 . S
C1503 C1506 1.463 . S
C1503 C1508 1.350 . S
C1503 N1511 1.427 . S
C1504 H1495 0.960 . S
C1504 C1502 1.361 1_655 S
C1504 C1505 1.354 1_655 S
C1505 C1504 1.354 1_455 S
C1505 C1507 1.433 . S
C1506 C1502 1.350 . S
C1506 C1503 1.463 . S
C1506 N1510 1.427 . S
C1507 H1497 0.929 . S
C1507 C1505 1.433 . S
C1507 N1510 1.384 . S
C1508 H1499 0.929 . S
C1508 C1500 1.378 . S
C1508 C1503 1.350 . S
C1509 H1496 0.929 . S
C1509 C1501 1.433 . S
C1509 N1511 1.384 . S
N1510 C1506 1.427 . S
N1510 C1507 1.384 . S
N1511 C1503 1.427 . S
N1511 C1509 1.384 . S
H1512 C1518 0.930 . S
H1513 C1522 0.930 . S
H1514 C1527 0.929 . S
H1515 C1525 0.929 . S
H1516 C1520 0.929 . S
H1517 C1526 0.929 . S
C1518 H1512 0.930 . S
C1518 C1519 1.367 . S
C1518 C1526 1.378 . S
C1519 C1518 1.367 . S
C1519 C1527 1.433 . S
C1520 H1516 0.929 . S
C1520 C1522 1.378 . S
C1520 C1524 1.350 . S
C1521 C1524 1.463 . S
C1521 C1526 1.350 . S
C1521 N1529 1.427 . S
C1522 H1513 0.930 . S
C1522 C1520 1.378 . S
C1522 C1523 1.367 . S
C1523 C1522 1.367 . S
C1523 C1525 1.433 . S
C1524 C1520 1.350 . S
C1524 C1521 1.463 . S
C1524 N1528 1.427 . S
C1525 H1515 0.929 . S
C1525 C1523 1.433 . S
C1525 N1528 1.384 . S
C1526 H1517 0.929 . S
C1526 C1518 1.378 . S
C1526 C1521 1.350 . S
C1527 H1514 0.929 . S
C1527 C1519 1.433 . S
C1527 N1529 1.384 . S
N1528 C1524 1.427 . S
N1528 C1525 1.384 . S
N1529 C1521 1.427 . S
N1529 C1527 1.384 . S
H1530 C1536 0.930 . S
H1531 C1540 0.930 . S
H1532 C1545 0.929 . S
H1533 C1543 0.929 . S
H1534 C1538 0.929 . S
H1535 C1544 0.929 . S
C1536 H1530 0.930 . S
C1536 C1537 1.367 . S
C1536 C1544 1.378 . S
C1537 C1536 1.367 . S
C1537 C1545 1.433 . S
C1538 H1534 0.929 . S
C1538 C1540 1.378 . S
C1538 C1542 1.350 . S
C1539 C1542 1.463 . S
C1539 C1544 1.350 . S
C1539 N1547 1.427 . S
C1540 H1531 0.930 . S
C1540 C1538 1.378 . S
C1540 C1541 1.367 . S
C1541 C1540 1.367 . S
C1541 C1543 1.433 . S
C1542 C1538 1.350 . S
C1542 C1539 1.463 . S
C1542 N1546 1.427 . S
C1543 H1533 0.929 . S
C1543 C1541 1.433 . S
C1543 N1546 1.384 . S
C1544 H1535 0.929 . S
C1544 C1536 1.378 . S
C1544 C1539 1.350 . S
C1545 H1532 0.929 . S
C1545 C1537 1.433 . S
C1545 N1547 1.384 . S
N1546 C1542 1.427 . S
N1546 C1543 1.384 . S
N1547 C1539 1.427 . S
N1547 C1545 1.384 . S
H1548 C1554 0.930 . S
H1549 C1558 0.930 . S
H1550 C1563 0.929 . S
H1551 C1561 0.929 . S
H1552 C1556 0.929 . S
H1553 C1562 0.929 . S
C1554 H1548 0.930 . S
C1554 C1555 1.367 . S
C1554 C1562 1.378 . S
C1555 C1554 1.367 . S
C1555 C1563 1.433 . S
C1556 H1552 0.929 . S
C1556 C1558 1.378 . S
C1556 C1560 1.350 . S
C1557 C1560 1.463 . S
C1557 C1562 1.350 . S
C1557 N1565 1.427 . S
C1558 H1549 0.930 . S
C1558 C1556 1.378 . S
C1558 C1559 1.367 . S
C1559 C1558 1.367 . S
C1559 C1561 1.433 . S
C1560 C1556 1.350 . S
C1560 C1557 1.463 . S
C1560 N1564 1.427 . S
C1561 H1551 0.929 . S
C1561 C1559 1.433 . S
C1561 N1564 1.384 . S
C1562 H1553 0.929 . S
C1562 C1554 1.378 . S
C1562 C1557 1.350 . S
C1563 H1550 0.929 . S
C1563 C1555 1.433 . S
C1563 N1565 1.384 . S
N1564 C1560 1.427 . S
N1564 C1561 1.384 . S
N1565 C1557 1.427 . S
N1565 C1563 1.384 . S
H1566 C1572 0.930 . S
H1567 C1576 0.930 . S
H1568 C1581 0.929 . S
H1569 C1579 0.929 . S
H1570 C1574 0.929 . S
H1571 C1580 0.929 . S
C1572 H1566 0.930 . S
C1572 C1573 1.367 . S
C1572 C1580 1.378 . S
C1573 C1572 1.367 . S
C1573 C1581 1.433 . S
C1574 H1570 0.929 . S
C1574 C1576 1.378 . S
C1574 C1578 1.350 . S
C1575 C1578 1.463 . S
C1575 C1580 1.350 . S
C1575 N1583 1.427 . S
C1576 H1567 0.930 . S
C1576 C1574 1.378 . S
C1576 C1577 1.367 . S
C1577 C1576 1.367 . S
C1577 C1579 1.433 . S
C1578 C1574 1.350 . S
C1578 C1575 1.463 . S
C1578 N1582 1.427 . S
C1579 H1569 0.929 . S
C1579 C1577 1.433 . S
C1579 N1582 1.384 . S
C1580 H1571 0.929 . S
C1580 C1572 1.378 . S
C1580 C1575 1.350 . S
C1581 H1568 0.929 . S
C1581 C1573 1.433 . S
C1581 N1583 1.384 . S
N1582 C1578 1.427 . S
N1582 C1579 1.384 . S
N1583 C1575 1.427 . S
N1583 C1581 1.384 . S
H1584 C1590 0.930 . S
H1585 C1594 0.930 . S
H1586 C1599 0.929 . S
H1587 C1597 0.929 . S
H1588 C1592 0.929 . S
H1589 C1598 0.929 . S
C1590 H1584 0.930 . S
C1590 C1591 1.367 . S
C1590 C1598 1.378 . S
C1591 C1590 1.367 . S
C1591 C1599 1.433 . S
C1592 H1588 0.929 . S
C1592 C1594 1.378 . S
C1592 C1596 1.350 1_554 S
C1593 C1596 1.463 . S
C1593 C1598 1.350 . S
C1593 N1601 1.427 . S
C1594 H1585 0.930 . S
C1594 C1592 1.378 . S
C1594 C1595 1.367 . S
C1595 C1594 1.367 . S
C1595 C1597 1.433 . S
C1596 C1592 1.350 1_556 S
C1596 C1593 1.463 . S
C1596 N1600 1.427 . S
C1597 H1587 0.929 . S
C1597 C1595 1.433 . S
C1597 N1600 1.384 1_554 S
C1598 H1589 0.929 . S
C1598 C1590 1.378 . S
C1598 C1593 1.350 . S
C1599 H1586 0.929 . S
C1599 C1591 1.433 . S
C1599 N1601 1.384 . S
N1600 C1596 1.427 . S
N1600 C1597 1.384 1_556 S
N1601 C1593 1.427 . S
N1601 C1599 1.384 . S
H1602 C1608 0.930 . S
H1603 C1612 0.930 . S
H1604 C1617 0.929 . S
H1605 C1615 0.929 . S
H1606 C1610 0.929 . S
H1607 C1616 0.929 . S
C1608 H1602 0.930 . S
C1608 C1609 1.367 . S
C1608 C1616 1.378 . S
C1609 C1608 1.367 . S
C1609 C1617 1.433 . S
C1610 H1606 0.929 . S
C1610 C1612 1.378 1_556 S
C1610 C1614 1.350 . S
C1611 C1614 1.463 . S
C1611 C1616 1.350 . S
C1611 N1619 1.427 . S
C1612 H1603 0.930 . S
C1612 C1610 1.378 1_554 S
C1612 C1613 1.367 . S
C1613 C1612 1.367 . S
C1613 C1615 1.433 . S
C1614 C1610 1.350 . S
C1614 C1611 1.463 . S
C1614 N1618 1.427 . S
C1615 H1605 0.929 . S
C1615 C1613 1.433 . S
C1615 N1618 1.384 1_554 S
C1616 H1607 0.929 . S
C1616 C1608 1.378 . S
C1616 C1611 1.350 . S
C1617 H1604 0.929 . S
C1617 C1609 1.433 . S
C1617 N1619 1.384 . S
N1618 C1614 1.427 . S
N1618 C1615 1.384 1_556 S
N1619 C1611 1.427 . S
N1619 C1617 1.384 . S
H1620 C1626 0.930 . S
H1621 C1630 0.930 . S
H1622 C1635 0.929 . S
H1623 C1633 0.929 . S
H1624 C1628 0.929 1_556 S
H1625 C1634 0.929 . S
C1626 H1620 0.930 . S
C1626 C1627 1.367 . S
C1626 C1634 1.378 . S
C1627 C1626 1.367 . S
C1627 C1635 1.433 . S
C1628 H1624 0.929 1_554 S
C1628 C1630 1.378 . S
C1628 C1632 1.348 1_554 S
C1629 C1632 1.488 . S
C1629 C1634 1.350 . S
C1629 N1637 1.427 . S
C1630 H1621 0.930 . S
C1630 C1628 1.378 . S
C1630 C1631 1.367 . S
C1631 C1630 1.367 . S
C1631 C1633 1.433 . S
C1632 C1628 1.348 1_556 S
C1632 C1629 1.488 . S
C1632 N1636 1.404 1_556 S
C1633 H1623 0.929 . S
C1633 C1631 1.433 . S
C1633 N1636 1.384 . S
C1634 H1625 0.929 . S
C1634 C1626 1.378 . S
C1634 C1629 1.350 . S
C1635 H1622 0.929 . S
C1635 C1627 1.433 . S
C1635 N1637 1.384 . S
N1636 C1632 1.404 1_554 S
N1636 C1633 1.384 . S
N1637 C1629 1.427 . S
N1637 C1635 1.384 . S
H1638 C1644 0.930 . S
H1639 C1648 0.930 . S
H1640 C1653 0.929 . S
H1641 C1651 0.929 . S
H1642 C1646 0.929 . S
H1643 C1652 0.929 . S
C1644 H1638 0.930 . S
C1644 C1645 1.367 . S
C1644 C1652 1.378 . S
C1645 C1644 1.367 . S
C1645 C1653 1.433 . S
C1646 H1642 0.929 . S
C1646 C1648 1.378 . S
C1646 C1650 1.350 . S
C1647 C1650 1.463 . S
C1647 C1652 1.350 . S
C1647 N1655 1.427 . S
C1648 H1639 0.930 . S
C1648 C1646 1.378 . S
C1648 C1649 1.367 . S
C1649 C1648 1.367 . S
C1649 C1651 1.433 . S
C1650 C1646 1.350 . S
C1650 C1647 1.463 . S
C1650 N1654 1.427 . S
C1651 H1641 0.929 . S
C1651 C1649 1.433 . S
C1651 N1654 1.384 . S
C1652 H1643 0.929 . S
C1652 C1644 1.378 . S
C1652 C1647 1.350 . S
C1653 H1640 0.929 . S
C1653 C1645 1.433 . S
C1653 N1655 1.384 . S
N1654 C1650 1.427 . S
N1654 C1651 1.384 . S
N1655 C1647 1.427 . S
N1655 C1653 1.384 . S
H1656 C1662 0.930 . S
H1657 C1666 0.930 . S
H1658 C1671 0.929 . S
H1659 C1669 0.929 . S
H1660 C1664 0.929 . S
H1661 C1670 0.929 . S
C1662 H1656 0.930 . S
C1662 C1663 1.367 . S
C1662 C1670 1.378 . S
C1663 C1662 1.367 . S
C1663 C1671 1.433 . S
C1664 H1660 0.929 . S
C1664 C1666 1.378 . S
C1664 C1668 1.350 . S
C1665 C1668 1.463 . S
C1665 C1670 1.350 . S
C1665 N1673 1.427 . S
C1666 H1657 0.930 . S
C1666 C1664 1.378 . S
C1666 C1667 1.367 . S
C1667 C1666 1.367 . S
C1667 C1669 1.433 . S
C1668 C1664 1.350 . S
C1668 C1665 1.463 . S
C1668 N1672 1.427 . S
C1669 H1659 0.929 . S
C1669 C1667 1.433 . S
C1669 N1672 1.384 . S
C1670 H1661 0.929 . S
C1670 C1662 1.378 . S
C1670 C1665 1.350 . S
C1671 H1658 0.929 . S
C1671 C1663 1.433 . S
C1671 N1673 1.384 . S
N1672 C1668 1.427 . S
N1672 C1669 1.384 . S
N1673 C1665 1.427 . S
N1673 C1671 1.384 . S
H1674 C1680 0.930 . S
H1675 C1684 0.930 . S
H1676 C1689 0.929 . S
H1677 C1687 0.929 . S
H1678 C1682 0.929 . S
H1679 C1688 0.929 . S
C1680 H1674 0.930 . S
C1680 C1681 1.367 . S
C1680 C1688 1.378 . S
C1681 C1680 1.367 . S
C1681 C1689 1.433 . S
C1682 H1678 0.929 . S
C1682 C1684 1.378 . S
C1682 C1686 1.350 . S
C1683 C1686 1.463 . S
C1683 C1688 1.350 . S
C1683 N1691 1.427 . S
C1684 H1675 0.930 . S
C1684 C1682 1.378 . S
C1684 C1685 1.367 . S
C1685 C1684 1.367 . S
C1685 C1687 1.433 . S
C1686 C1682 1.350 . S
C1686 C1683 1.463 . S
C1686 N1690 1.427 . S
C1687 H1677 0.929 . S
C1687 C1685 1.433 . S
C1687 N1690 1.384 . S
C1688 H1679 0.929 . S
C1688 C1680 1.378 . S
C1688 C1683 1.350 . S
C1689 H1676 0.929 . S
C1689 C1681 1.433 . S
C1689 N1691 1.384 . S
N1690 C1686 1.427 . S
N1690 C1687 1.384 . S
N1691 C1683 1.427 . S
N1691 C1689 1.384 . S
H1692 C1698 0.930 . S
H1693 C1702 0.930 . S
H1694 C1707 0.929 . S
H1695 C1705 0.929 . S
H1696 C1700 0.929 . S
H1697 C1706 0.929 . S
C1698 H1692 0.930 . S
C1698 C1699 1.367 . S
C1698 C1706 1.378 . S
C1699 C1698 1.367 . S
C1699 C1707 1.433 . S
C1700 H1696 0.929 . S
C1700 C1702 1.378 . S
C1700 C1704 1.350 . S
C1701 C1704 1.463 . S
C1701 C1706 1.350 . S
C1701 N1709 1.427 . S
C1702 H1693 0.930 . S
C1702 C1700 1.378 . S
C1702 C1703 1.367 . S
C1703 C1702 1.367 . S
C1703 C1705 1.433 . S
C1704 C1700 1.350 . S
C1704 C1701 1.463 . S
C1704 N1708 1.427 . S
C1705 H1695 0.929 . S
C1705 C1703 1.433 . S
C1705 N1708 1.384 . S
C1706 H1697 0.929 . S
C1706 C1698 1.378 . S
C1706 C1701 1.350 . S
C1707 H1694 0.929 . S
C1707 C1699 1.433 . S
C1707 N1709 1.384 . S
N1708 C1704 1.427 . S
N1708 C1705 1.384 . S
N1709 C1701 1.427 . S
N1709 C1707 1.384 . S
H1710 C1716 0.930 . S
H1711 C1720 0.930 . S
H1712 C1725 0.929 . S
H1713 C1723 0.929 . S
H1714 C1718 0.929 . S
H1715 C1724 0.929 . S
C1716 H1710 0.930 . S
C1716 C1717 1.367 . S
C1716 C1724 1.378 . S
C1717 C1716 1.367 . S
C1717 C1725 1.433 . S
C1718 H1714 0.929 . S
C1718 C1720 1.378 . S
C1718 C1722 1.350 . S
C1719 C1722 1.463 . S
C1719 C1724 1.350 . S
C1719 N1727 1.427 . S
C1720 H1711 0.930 . S
C1720 C1718 1.378 . S
C1720 C1721 1.367 . S
C1721 C1720 1.367 . S
C1721 C1723 1.433 . S
C1722 C1718 1.350 . S
C1722 C1719 1.463 . S
C1722 N1726 1.427 . S
C1723 H1713 0.929 . S
C1723 C1721 1.433 . S
C1723 N1726 1.384 . S
C1724 H1715 0.929 . S
C1724 C1716 1.378 . S
C1724 C1719 1.350 . S
C1725 H1712 0.929 . S
C1725 C1717 1.433 . S
C1725 N1727 1.384 . S
N1726 C1722 1.427 . S
N1726 C1723 1.384 . S
N1727 C1719 1.427 . S
N1727 C1725 1.384 . S
H1728 C1734 0.930 . S
H1729 C1738 0.930 . S
H1730 C1743 0.929 . S
H1731 C1741 0.929 . S
H1732 C1736 0.929 . S
H1733 C1742 0.929 . S
C1734 H1728 0.930 . S
C1734 C1735 1.367 . S
C1734 C1742 1.378 . S
C1735 C1734 1.367 . S
C1735 C1743 1.433 . S
C1736 H1732 0.929 . S
C1736 C1738 1.378 . S
C1736 C1740 1.350 . S
C1737 C1740 1.463 . S
C1737 C1742 1.350 . S
C1737 N1745 1.427 . S
C1738 H1729 0.930 . S
C1738 C1736 1.378 . S
C1738 C1739 1.367 . S
C1739 C1738 1.367 . S
C1739 C1741 1.433 . S
C1740 C1736 1.350 . S
C1740 C1737 1.463 . S
C1740 N1744 1.427 . S
C1741 H1731 0.929 . S
C1741 C1739 1.433 . S
C1741 N1744 1.384 . S
C1742 H1733 0.929 . S
C1742 C1734 1.378 . S
C1742 C1737 1.350 . S
C1743 H1730 0.929 . S
C1743 C1735 1.433 . S
C1743 N1745 1.384 . S
N1744 C1740 1.427 . S
N1744 C1741 1.384 . S
N1745 C1737 1.427 . S
N1745 C1743 1.384 . S
H1746 C1752 0.930 . S
H1747 C1756 0.930 . S
H1748 C1761 0.929 . S
H1749 C1759 0.929 . S
H1750 C1754 0.929 . S
H1751 C1760 0.929 . S
C1752 H1746 0.930 . S
C1752 C1753 1.367 . S
C1752 C1760 1.378 . S
C1753 C1752 1.367 . S
C1753 C1761 1.433 . S
C1754 H1750 0.929 . S
C1754 C1756 1.378 . S
C1754 C1758 1.350 . S
C1755 C1758 1.463 . S
C1755 C1760 1.350 . S
C1755 N1763 1.427 . S
C1756 H1747 0.930 . S
C1756 C1754 1.378 . S
C1756 C1757 1.367 . S
C1757 C1756 1.367 . S
C1757 C1759 1.433 . S
C1758 C1754 1.350 . S
C1758 C1755 1.463 . S
C1758 N1762 1.427 . S
C1759 H1749 0.929 . S
C1759 C1757 1.433 . S
C1759 N1762 1.384 . S
C1760 H1751 0.929 . S
C1760 C1752 1.378 . S
C1760 C1755 1.350 . S
C1761 H1748 0.929 . S
C1761 C1753 1.433 . S
C1761 N1763 1.384 . S
N1762 C1758 1.427 . S
N1762 C1759 1.384 . S
N1763 C1755 1.427 . S
N1763 C1761 1.384 . S
H1764 C1770 0.930 . S
H1765 C1774 0.930 . S
H1766 C1779 0.929 . S
H1767 C1777 0.929 . S
H1768 C1772 0.929 . S
H1769 C1778 0.929 . S
C1770 H1764 0.930 . S
C1770 C1771 1.367 . S
C1770 C1778 1.378 . S
C1771 C1770 1.367 . S
C1771 C1779 1.433 . S
C1772 H1768 0.929 . S
C1772 C1774 1.378 . S
C1772 C1776 1.350 . S
C1773 C1776 1.463 . S
C1773 C1778 1.350 . S
C1773 N1781 1.427 . S
C1774 H1765 0.930 . S
C1774 C1772 1.378 . S
C1774 C1775 1.367 . S
C1775 C1774 1.367 . S
C1775 C1777 1.433 . S
C1776 C1772 1.350 . S
C1776 C1773 1.463 . S
C1776 N1780 1.427 . S
C1777 H1767 0.929 . S
C1777 C1775 1.433 . S
C1777 N1780 1.384 . S
C1778 H1769 0.929 . S
C1778 C1770 1.378 . S
C1778 C1773 1.350 . S
C1779 H1766 0.929 . S
C1779 C1771 1.433 . S
C1779 N1781 1.384 . S
N1780 C1776 1.427 . S
N1780 C1777 1.384 . S
N1781 C1773 1.427 . S
N1781 C1779 1.384 . S
H1782 C1788 0.930 . S
H1783 C1792 0.930 . S
H1784 C1797 0.929 . S
H1785 C1795 0.929 . S
H1786 C1790 0.929 . S
H1787 C1796 0.929 . S
C1788 H1782 0.930 . S
C1788 C1789 1.367 . S
C1788 C1796 1.378 . S
C1789 C1788 1.367 . S
C1789 C1797 1.433 . S
C1790 H1786 0.929 . S
C1790 C1792 1.378 . S
C1790 C1794 1.350 . S
C1791 C1794 1.463 . S
C1791 C1796 1.350 . S
C1791 N1799 1.427 . S
C1792 H1783 0.930 . S
C1792 C1790 1.378 . S
C1792 C1793 1.367 . S
C1793 C1792 1.367 . S
C1793 C1795 1.433 . S
C1794 C1790 1.350 . S
C1794 C1791 1.463 . S
C1794 N1798 1.427 . S
C1795 H1785 0.929 . S
C1795 C1793 1.433 . S
C1795 N1798 1.384 . S
C1796 H1787 0.929 . S
C1796 C1788 1.378 . S
C1796 C1791 1.350 . S
C1797 H1784 0.929 . S
C1797 C1789 1.433 . S
C1797 N1799 1.384 . S
N1798 C1794 1.427 . S
N1798 C1795 1.384 . S
N1799 C1791 1.427 . S
N1799 C1797 1.384 . S
H1800 C1806 0.930 . S
H1801 C1810 0.930 . S
H1802 C1815 0.929 . S
H1803 C1813 0.929 . S
H1804 C1808 0.929 . S
H1805 C1814 0.929 . S
C1806 H1800 0.930 . S
C1806 C1807 1.367 . S
C1806 C1814 1.378 . S
C1807 C1806 1.367 . S
C1807 C1815 1.433 . S
C1808 H1804 0.929 . S
C1808 C1810 1.378 . S
C1808 C1812 1.350 . S
C1809 C1812 1.463 . S
C1809 C1814 1.350 . S
C1809 N1817 1.427 . S
C1810 H1801 0.930 . S
C1810 C1808 1.378 . S
C1810 C1811 1.367 . S
C1811 C1810 1.367 . S
C1811 C1813 1.433 . S
C1812 C1808 1.350 . S
C1812 C1809 1.463 . S
C1812 N1816 1.427 . S
C1813 H1803 0.929 . S
C1813 C1811 1.433 . S
C1813 N1816 1.384 . S
C1814 H1805 0.929 . S
C1814 C1806 1.378 . S
C1814 C1809 1.350 . S
C1815 H1802 0.929 . S
C1815 C1807 1.433 . S
C1815 N1817 1.384 . S
N1816 C1812 1.427 . S
N1816 C1813 1.384 . S
N1817 C1809 1.427 . S
N1817 C1815 1.384 . S
H1818 C1824 0.930 . S
H1819 C1828 0.930 . S
H1820 C1833 0.929 . S
H1821 C1831 0.929 . S
H1822 C1826 0.929 . S
H1823 C1832 0.929 . S
C1824 H1818 0.930 . S
C1824 C1825 1.367 . S
C1824 C1832 1.378 . S
C1825 C1824 1.367 . S
C1825 C1833 1.433 . S
C1826 H1822 0.929 . S
C1826 C1828 1.378 . S
C1826 C1830 1.350 . S
C1827 C1830 1.463 . S
C1827 C1832 1.350 . S
C1827 N1835 1.427 . S
C1828 H1819 0.930 . S
C1828 C1826 1.378 . S
C1828 C1829 1.367 . S
C1829 C1828 1.367 . S
C1829 C1831 1.433 . S
C1830 C1826 1.350 . S
C1830 C1827 1.463 . S
C1830 N1834 1.427 . S
C1831 H1821 0.929 . S
C1831 C1829 1.433 . S
C1831 N1834 1.384 . S
C1832 H1823 0.929 . S
C1832 C1824 1.378 . S
C1832 C1827 1.350 . S
C1833 H1820 0.929 . S
C1833 C1825 1.433 . S
C1833 N1835 1.384 . S
N1834 C1830 1.427 . S
N1834 C1831 1.384 . S
N1835 C1827 1.427 . S
N1835 C1833 1.384 . S
H1836 C1842 0.930 . S
H1837 C1846 0.930 . S
H1838 C1851 0.929 . S
H1839 C1849 0.929 . S
H1840 C1844 0.929 . S
H1841 C1850 0.929 . S
C1842 H1836 0.930 . S
C1842 C1843 1.367 . S
C1842 C1850 1.378 . S
C1843 C1842 1.367 . S
C1843 C1851 1.433 . S
C1844 H1840 0.929 . S
C1844 C1846 1.378 . S
C1844 C1848 1.350 . S
C1845 C1848 1.463 . S
C1845 C1850 1.350 . S
C1845 N1853 1.427 . S
C1846 H1837 0.930 . S
C1846 C1844 1.378 . S
C1846 C1847 1.367 . S
C1847 C1846 1.367 . S
C1847 C1849 1.433 . S
C1848 C1844 1.350 . S
C1848 C1845 1.463 . S
C1848 N1852 1.427 . S
C1849 H1839 0.929 . S
C1849 C1847 1.433 . S
C1849 N1852 1.384 . S
C1850 H1841 0.929 . S
C1850 C1842 1.378 . S
C1850 C1845 1.350 . S
C1851 H1838 0.929 . S
C1851 C1843 1.433 . S
C1851 N1853 1.384 . S
N1852 C1848 1.427 . S
N1852 C1849 1.384 . S
N1853 C1845 1.427 . S
N1853 C1851 1.384 . S
H1854 C1860 0.930 . S
H1855 C1864 0.930 . S
H1856 C1869 0.929 . S
H1857 C1867 0.929 . S
H1858 C1862 0.929 . S
H1859 C1868 0.929 . S
C1860 H1854 0.930 . S
C1860 C1861 1.367 . S
C1860 C1868 1.378 . S
C1861 C1860 1.367 . S
C1861 C1869 1.433 . S
C1862 H1858 0.929 . S
C1862 C1864 1.378 . S
C1862 C1866 1.350 . S
C1863 C1866 1.463 . S
C1863 C1868 1.350 . S
C1863 N1871 1.427 . S
C1864 H1855 0.930 . S
C1864 C1862 1.378 . S
C1864 C1865 1.367 . S
C1865 C1864 1.367 . S
C1865 C1867 1.433 . S
C1866 C1862 1.350 . S
C1866 C1863 1.463 . S
C1866 N1870 1.427 . S
C1867 H1857 0.929 . S
C1867 C1865 1.433 . S
C1867 N1870 1.384 . S
C1868 H1859 0.929 . S
C1868 C1860 1.378 . S
C1868 C1863 1.350 . S
C1869 H1856 0.929 . S
C1869 C1861 1.433 . S
C1869 N1871 1.384 . S
N1870 C1866 1.427 . S
N1870 C1867 1.384 . S
N1871 C1863 1.427 . S
N1871 C1869 1.384 . S
H1872 C1878 0.930 . S
H1873 C1882 0.930 . S
H1874 C1887 0.929 . S
H1875 C1885 0.929 . S
H1876 C1880 0.929 . S
H1877 C1886 0.929 . S
C1878 H1872 0.930 . S
C1878 C1879 1.367 . S
C1878 C1886 1.378 . S
C1879 C1878 1.367 . S
C1879 C1887 1.433 . S
C1880 H1876 0.929 . S
C1880 C1882 1.378 . S
C1880 C1884 1.350 . S
C1881 C1884 1.463 . S
C1881 C1886 1.350 . S
C1881 N1889 1.427 . S
C1882 H1873 0.930 . S
C1882 C1880 1.378 . S
C1882 C1883 1.367 . S
C1883 C1882 1.367 . S
C1883 C1885 1.433 . S
C1884 C1880 1.350 . S
C1884 C1881 1.463 . S
C1884 N1888 1.427 . S
C1885 H1875 0.929 . S
C1885 C1883 1.433 . S
C1885 N1888 1.384 . S
C1886 H1877 0.929 . S
C1886 C1878 1.378 . S
C1886 C1881 1.350 . S
C1887 H1874 0.929 . S
C1887 C1879 1.433 . S
C1887 N1889 1.384 . S
N1888 C1884 1.427 . S
N1888 C1885 1.384 . S
N1889 C1881 1.427 . S
N1889 C1887 1.384 . S
H1890 C1896 0.930 . S
H1891 C1900 0.930 . S
H1892 C1905 0.929 . S
H1893 C1903 0.929 . S
H1894 C1898 0.929 . S
H1895 C1904 0.929 . S
C1896 H1890 0.930 . S
C1896 C1897 1.367 . S
C1896 C1904 1.378 . S
C1897 C1896 1.367 . S
C1897 C1905 1.433 . S
C1898 H1894 0.929 . S
C1898 C1900 1.378 . S
C1898 C1902 1.350 . S
C1899 C1902 1.463 . S
C1899 C1904 1.350 . S
C1899 N1907 1.427 . S
C1900 H1891 0.930 . S
C1900 C1898 1.378 . S
C1900 C1901 1.367 . S
C1901 C1900 1.367 . S
C1901 C1903 1.433 . S
C1902 C1898 1.350 . S
C1902 C1899 1.463 . S
C1902 N1906 1.427 . S
C1903 H1893 0.929 . S
C1903 C1901 1.433 . S
C1903 N1906 1.384 . S
C1904 H1895 0.929 . S
C1904 C1896 1.378 . S
C1904 C1899 1.350 . S
C1905 H1892 0.929 . S
C1905 C1897 1.433 . S
C1905 N1907 1.384 . S
N1906 C1902 1.427 . S
N1906 C1903 1.384 . S
N1907 C1899 1.427 . S
N1907 C1905 1.384 . S
H1908 C1914 0.930 . S
H1909 C1918 0.929 1_556 S
H1910 C1923 0.929 . S
H1911 C1921 0.929 . S
H1912 C1916 0.929 . S
H1913 C1922 0.929 . S
C1914 H1908 0.930 . S
C1914 C1915 1.367 . S
C1914 C1922 1.378 . S
C1915 C1914 1.367 . S
C1915 C1923 1.433 . S
C1916 H1912 0.929 . S
C1916 C1918 1.383 . S
C1916 C1920 1.350 . S
C1917 C1920 1.463 . S
C1917 C1922 1.350 . S
C1917 N1925 1.427 . S
C1918 H1909 0.929 1_554 S
C1918 C1916 1.383 . S
C1918 C1919 1.362 1_554 S
C1919 C1918 1.362 1_556 S
C1919 C1921 1.433 . S
C1920 C1916 1.350 . S
C1920 C1917 1.463 . S
C1920 N1924 1.427 . S
C1921 H1911 0.929 . S
C1921 C1919 1.433 . S
C1921 N1924 1.384 1_556 S
C1922 H1913 0.929 . S
C1922 C1914 1.378 . S
C1922 C1917 1.350 . S
C1923 H1910 0.929 . S
C1923 C1915 1.433 . S
C1923 N1925 1.384 . S
N1924 C1920 1.427 . S
N1924 C1921 1.384 1_554 S
N1925 C1917 1.427 . S
N1925 C1923 1.384 . S
H1926 C1932 0.930 . S
H1927 C1936 0.930 . S
H1928 C1941 0.929 . S
H1929 C1939 0.929 1_556 S
H1930 C1934 0.929 . S
H1931 C1940 0.929 . S
C1932 H1926 0.930 . S
C1932 C1933 1.367 . S
C1932 C1940 1.378 . S
C1933 C1932 1.367 . S
C1933 C1941 1.433 . S
C1934 H1930 0.929 . S
C1934 C1936 1.378 . S
C1934 C1938 1.350 . S
C1935 C1938 1.463 . S
C1935 C1940 1.350 . S
C1935 N1943 1.427 . S
C1936 H1927 0.930 . S
C1936 C1934 1.378 . S
C1936 C1937 1.367 . S
C1937 C1936 1.367 . S
C1937 C1939 1.433 . S
C1938 C1934 1.350 . S
C1938 C1935 1.463 . S
C1938 N1942 1.427 . S
C1939 H1929 0.929 1_554 S
C1939 C1937 1.433 . S
C1939 N1942 1.384 . S
C1940 H1931 0.929 . S
C1940 C1932 1.378 . S
C1940 C1935 1.350 . S
C1941 H1928 0.929 . S
C1941 C1933 1.433 . S
C1941 N1943 1.384 . S
N1942 C1938 1.427 . S
N1942 C1939 1.384 . S
N1943 C1935 1.427 . S
N1943 C1941 1.384 . S
H1944 C1950 0.930 . S
H1945 C1954 0.930 . S
H1946 C1959 0.929 . S
H1947 C1957 0.929 . S
H1948 C1952 0.929 . S
H1949 C1958 0.929 . S
C1950 H1944 0.930 . S
C1950 C1951 1.367 . S
C1950 C1958 1.378 . S
C1951 C1950 1.367 . S
C1951 C1959 1.433 . S
C1952 H1948 0.929 . S
C1952 C1954 1.378 . S
C1952 C1956 1.350 . S
C1953 C1956 1.463 . S
C1953 C1958 1.350 . S
C1953 N1961 1.427 . S
C1954 H1945 0.930 . S
C1954 C1952 1.378 . S
C1954 C1955 1.367 1_554 S
C1955 C1954 1.367 1_556 S
C1955 C1957 1.433 . S
C1956 C1952 1.350 . S
C1956 C1953 1.463 . S
C1956 N1960 1.427 . S
C1957 H1947 0.929 . S
C1957 C1955 1.433 . S
C1957 N1960 1.384 1_556 S
C1958 H1949 0.929 . S
C1958 C1950 1.378 . S
C1958 C1953 1.350 . S
C1959 H1946 0.929 . S
C1959 C1951 1.433 . S
C1959 N1961 1.384 . S
N1960 C1956 1.427 . S
N1960 C1957 1.384 1_554 S
N1961 C1953 1.427 . S
N1961 C1959 1.384 . S
C673 C7 1.436 . S
C677 C575 1.440 . S
C695 C547 1.728 . S
C691 C39 1.721 . S
C713 C562 1.505 . S
C709 C62 1.574 . S
C727 C76 1.862 . S
C731 C632 1.810 . S
C745 C108 1.416 . S
C749 C645 1.412 . S
C763 N117 1.359 . S
C767 C660 1.324 . S
C785 C623 1.257 . S
C781 C16 1.302 . S
C799 C30 1.720 . S
C803 C595 1.632 . S
C821 C604 1.409 . S
C817 C53 1.461 . S
C835 C85 1.832 . S
C839 C506 1.776 1_565 S
C857 C525 1.522 . S
C853 C99 1.592 . S
C871 N127 1.282 . S
C875 C534 1.310 . S
C889 N150 1.117 . S
C893 C659 1.145 . S
C911 C631 1.492 . S
C907 N173 1.464 . S
C929 C646 1.355 . S
C925 C200 1.402 . S
C943 C214 1.661 . S
C947 C464 1.606 . S
C961 N232 1.471 . S
C965 C477 1.489 . S
C979 C260 1.534 . S
C983 C492 1.483 1_565 S
C1001 C455 1.104 . S
C997 N140 1.112 . S
C1015 N163 1.187 . S
C1019 C427 1.175 . S
C1037 C436 1.482 . S
C1033 C191 1.532 . S
C1055 C590 1.853 . S
C1051 C223 1.902 . S
C1073 C609 1.346 . S
C1069 N242 1.347 . S
C1091 C618 1.506 . S
C1087 C269 1.530 . S
C1105 N288 1.253 . S
C1109 C491 1.267 . S
C1123 C315 1.443 . S
C1127 C463 1.460 . S
C1141 C338 1.647 . S
C1145 C478 1.597 . S
C1159 C352 1.882 . S
C1163 C548 1.836 . S
C1181 C561 1.528 . S
C1177 N370 1.506 . S
C1199 C576 1.546 1_655 S
C1195 C398 1.585 . S
C1217 C539 1.057 . S
C1213 N278 1.062 . S
C1231 C306 1.627 . S
C1235 C511 1.542 . S
C1249 C329 1.568 . S
C1253 C520 1.525 . S
C1271 C422 1.523 . S
C1267 C361 1.574 . S
C1285 N380 1.386 . S
C1289 C441 1.383 . S
C1307 C450 1.442 . S
C1303 C407 1.470 . S
C1325 C469 1.290 . S
C1321 N12 1.310 . S
C1339 N25 1.455 . S
C1343 C481 1.442 . S
C1361 C497 1.161 . S
C1357 N48 1.203 . S
C1379 C495 1.270 . S
C1375 N81 1.271 . S
C1397 C467 1.443 . S
C1393 N94 1.418 . S
C1415 C483 1.437 . S
C1411 C131 1.505 . S
C1433 C421 1.324 . S
C1429 N2 1.303 . S
C1447 N35 1.338 . S
C1451 C439 1.378 . S
C1465 N58 1.152 . S
C1469 C449 1.169 . S
C1487 C453 1.217 . S
C1483 N71 1.187 . S
C1505 C425 1.325 . S
C1501 N104 1.314 . S
C1523 C435 1.538 . S
C1519 C122 1.538 . S
C1537 C145 1.940 . S
C1541 C553 1.842 . S
C1555 C168 1.588 . S
C1559 C565 1.561 . S
C1573 N186 1.327 . S
C1577 C581 1.287 . S
C1595 C579 1.269 . S
C1591 N219 1.267 . S
C1613 C551 1.709 . S
C1609 C246 1.713 . S
C1631 C567 1.336 . S
C1627 N265 1.409 . S
C1649 C505 1.827 . S
C1645 C154 1.834 . S
C1663 C177 1.652 . S
C1667 C523 1.647 . S
C1681 N196 1.164 . S
C1685 C533 1.189 . S
C1699 N209 1.088 . S
C1703 C537 1.131 . S
C1717 C237 1.769 . S
C1721 C509 1.763 . S
C1739 C519 1.411 . S
C1735 N255 1.352 . S
C1753 C283 1.719 . S
C1757 C637 1.620 . S
C1771 N301 1.345 . S
C1775 C649 1.345 . S
C1789 N324 1.188 . S
C1793 C665 1.142 . S
C1811 C663 1.086 . S
C1807 N357 1.078 . S
C1829 C635 1.664 . S
C1825 C384 1.693 . S
C1843 N403 1.252 . S
C1847 C651 1.196 . S
C1861 C292 1.819 . S
C1865 C589 1.816 . S
C1883 C607 1.237 . S
C1879 N311 1.212 . S
C1897 N334 1.249 . S
C1901 C617 1.276 . S
C1915 N347 1.237 . S
C1919 C621 1.268 . S
C1937 C593 1.812 1_554 S
C1933 C375 1.817 . S
C1951 N393 1.287 . S
C1955 C603 1.339 . S
