# Generated by pormake.
# Topology ocu, (6,8)-cn, num edge types: 1
# Building blocks:
#     Node 0, Type 0, BuildingBlock: KUMBUR_clean_sbu_0, # of connection points: 6
#     Node 1, Type 0, BuildingBlock: KUMBUR_clean_sbu_0, # of connection points: 6
#     Node 2, Type 0, BuildingBlock: KUMBUR_clean_sbu_0, # of connection points: 6
#     Node 3, Type 0, BuildingBlock: KUMBUR_clean_sbu_0, # of connection points: 6
#     Node 4, Type 0, BuildingBlock: KUMBUR_clean_sbu_0, # of connection points: 6
#     Node 5, Type 0, BuildingBlock: KUMBUR_clean_sbu_0, # of connection points: 6
#     Node 6, Type 0, BuildingBlock: KUMBUR_clean_sbu_0, # of connection points: 6
#     Node 7, Type 0, BuildingBlock: KUMBUR_clean_sbu_0, # of connection points: 6
#     Node 8, Type 1, BuildingBlock: AJUNOK_clean_sbu_0, # of connection points: 8
#     Node 9, Type 1, BuildingBlock: AJUNOK_clean_sbu_0, # of connection points: 8
#     Node 10, Type 1, BuildingBlock: AJUNOK_clean_sbu_0, # of connection points: 8
#     Node 11, Type 1, BuildingBlock: AJUNOK_clean_sbu_0, # of connection points: 8
#     Node 12, Type 1, BuildingBlock: AJUNOK_clean_sbu_0, # of connection points: 8
#     Node 13, Type 1, BuildingBlock: AJUNOK_clean_sbu_0, # of connection points: 8
#     Edge 14, Type (0, 1), BuildingBlock: UVAHIK_clean_linker_0, # of connection points: 2
#     Edge 15, Type (0, 1), BuildingBlock: UVAHIK_clean_linker_0, # of connection points: 2
#     Edge 16, Type (0, 1), BuildingBlock: UVAHIK_clean_linker_0, # of connection points: 2
#     Edge 17, Type (0, 1), BuildingBlock: UVAHIK_clean_linker_0, # of connection points: 2
#     Edge 18, Type (0, 1), BuildingBlock: UVAHIK_clean_linker_0, # of connection points: 2
#     Edge 19, Type (0, 1), BuildingBlock: UVAHIK_clean_linker_0, # of connection points: 2
#     Edge 20, Type (0, 1), BuildingBlock: UVAHIK_clean_linker_0, # of connection points: 2
#     Edge 21, Type (0, 1), BuildingBlock: UVAHIK_clean_linker_0, # of connection points: 2
#     Edge 22, Type (0, 1), BuildingBlock: UVAHIK_clean_linker_0, # of connection points: 2
#     Edge 23, Type (0, 1), BuildingBlock: UVAHIK_clean_linker_0, # of connection points: 2
#     Edge 24, Type (0, 1), BuildingBlock: UVAHIK_clean_linker_0, # of connection points: 2
#     Edge 25, Type (0, 1), BuildingBlock: UVAHIK_clean_linker_0, # of connection points: 2
#     Edge 26, Type (0, 1), BuildingBlock: UVAHIK_clean_linker_0, # of connection points: 2
#     Edge 27, Type (0, 1), BuildingBlock: UVAHIK_clean_linker_0, # of connection points: 2
#     Edge 28, Type (0, 1), BuildingBlock: UVAHIK_clean_linker_0, # of connection points: 2
#     Edge 29, Type (0, 1), BuildingBlock: UVAHIK_clean_linker_0, # of connection points: 2
#     Edge 30, Type (0, 1), BuildingBlock: UVAHIK_clean_linker_0, # of connection points: 2
#     Edge 31, Type (0, 1), BuildingBlock: UVAHIK_clean_linker_0, # of connection points: 2
#     Edge 32, Type (0, 1), BuildingBlock: UVAHIK_clean_linker_0, # of connection points: 2
#     Edge 33, Type (0, 1), BuildingBlock: UVAHIK_clean_linker_0, # of connection points: 2
#     Edge 34, Type (0, 1), BuildingBlock: UVAHIK_clean_linker_0, # of connection points: 2
#     Edge 35, Type (0, 1), BuildingBlock: UVAHIK_clean_linker_0, # of connection points: 2
#     Edge 36, Type (0, 1), BuildingBlock: UVAHIK_clean_linker_0, # of connection points: 2
#     Edge 37, Type (0, 1), BuildingBlock: UVAHIK_clean_linker_0, # of connection points: 2
#     Edge 38, Type (0, 1), BuildingBlock: UVAHIK_clean_linker_0, # of connection points: 2
#     Edge 39, Type (0, 1), BuildingBlock: UVAHIK_clean_linker_0, # of connection points: 2
#     Edge 40, Type (0, 1), BuildingBlock: UVAHIK_clean_linker_0, # of connection points: 2
#     Edge 41, Type (0, 1), BuildingBlock: UVAHIK_clean_linker_0, # of connection points: 2
#     Edge 42, Type (0, 1), BuildingBlock: UVAHIK_clean_linker_0, # of connection points: 2
#     Edge 43, Type (0, 1), BuildingBlock: UVAHIK_clean_linker_0, # of connection points: 2
#     Edge 44, Type (0, 1), BuildingBlock: UVAHIK_clean_linker_0, # of connection points: 2
#     Edge 45, Type (0, 1), BuildingBlock: UVAHIK_clean_linker_0, # of connection points: 2
#     Edge 46, Type (0, 1), BuildingBlock: UVAHIK_clean_linker_0, # of connection points: 2
#     Edge 47, Type (0, 1), BuildingBlock: UVAHIK_clean_linker_0, # of connection points: 2
#     Edge 48, Type (0, 1), BuildingBlock: UVAHIK_clean_linker_0, # of connection points: 2
#     Edge 49, Type (0, 1), BuildingBlock: UVAHIK_clean_linker_0, # of connection points: 2
#     Edge 50, Type (0, 1), BuildingBlock: UVAHIK_clean_linker_0, # of connection points: 2
#     Edge 51, Type (0, 1), BuildingBlock: UVAHIK_clean_linker_0, # of connection points: 2
#     Edge 52, Type (0, 1), BuildingBlock: UVAHIK_clean_linker_0, # of connection points: 2
#     Edge 53, Type (0, 1), BuildingBlock: UVAHIK_clean_linker_0, # of connection points: 2
#     Edge 54, Type (0, 1), BuildingBlock: UVAHIK_clean_linker_0, # of connection points: 2
#     Edge 55, Type (0, 1), BuildingBlock: UVAHIK_clean_linker_0, # of connection points: 2
#     Edge 56, Type (0, 1), BuildingBlock: UVAHIK_clean_linker_0, # of connection points: 2
#     Edge 57, Type (0, 1), BuildingBlock: UVAHIK_clean_linker_0, # of connection points: 2
#     Edge 58, Type (0, 1), BuildingBlock: UVAHIK_clean_linker_0, # of connection points: 2
#     Edge 59, Type (0, 1), BuildingBlock: UVAHIK_clean_linker_0, # of connection points: 2
#     Edge 60, Type (0, 1), BuildingBlock: UVAHIK_clean_linker_0, # of connection points: 2
#     Edge 61, Type (0, 1), BuildingBlock: UVAHIK_clean_linker_0, # of connection points: 2
# Relax obj value: 0.158
# Max RMSD: 0.259
# Mean RMSD: 0.210
data_MOF--net-ocu--node1-KUMBUR_clean_sbu_0--node2-AJUNOK_clean_sbu_0--edge1-UVAHIK_clean_linker_0
_symmetry_space_group_name_H-M    P1
_symmetry_Int_Tables_number       1
_symmetry_cell_setting            triclinic
loop_
_symmetry_equiv_pos_as_xyz
'x, y, z'
_cell_length_a     53.997542
_cell_length_b     53.213671
_cell_length_c     48.648609
_cell_angle_alpha  87.965521
_cell_angle_beta   103.50661
_cell_angle_gamma 111.46104
loop_
_atom_site_label
_atom_site_type_symbol
_atom_site_fract_x
_atom_site_fract_y
_atom_site_fract_z
_atom_type_partial_charge
Tb0 Tb 0.25509 0.22676 0.21609 0.0
C1 C 0.32566 0.29641 0.32382 0.0
C2 C 0.32597 0.26319 0.35892 0.0
C3 C 0.36451 0.30602 0.36434 0.0
C4 C 0.31332 0.2713 0.33329 0.0
C5 C 0.35097 0.3145 0.33965 0.0
C6 C 0.35203 0.28035 0.37394 0.0
C7 C 0.3457 0.34889 0.30761 0.0
N8 N 0.3116 0.30392 0.30024 0.0
C9 C 0.32057 0.33019 0.29274 0.0
C10 C 0.36123 0.34087 0.33087 0.0
Tb11 Tb 0.27096 0.27188 0.27687 0.0
N12 N 0.28788 0.25576 0.31854 0.0
C13 C 0.27295 0.2328 0.32968 0.0
C14 C 0.31153 0.23867 0.36926 0.0
C15 C 0.2847 0.22367 0.35483 0.0
H16 H 0.30877 0.33667 0.27483 0.0
H17 H 0.27304 0.20504 0.36304 0.0
H18 H 0.36223 0.27437 0.39352 0.0
H19 H 0.35306 0.36945 0.30111 0.0
H20 H 0.25219 0.22089 0.31888 0.0
H21 H 0.25151 0.29298 0.12966 0.0
H22 H 0.32053 0.23165 0.38883 0.0
H23 H 0.21817 0.16179 0.21913 0.0
H24 H 0.27273 0.27782 0.17415 0.0
H25 H 0.17488 0.12796 0.1924 0.0
H26 H 0.38414 0.31948 0.37665 0.0
H27 H 0.20457 0.26512 0.10345 0.0
H28 H 0.16386 0.22146 0.0985 0.0
H29 H 0.3806 0.35542 0.34246 0.0
H30 H 0.14298 0.17617 0.1155 0.0
N31 N 0.23767 0.24228 0.17431 0.0
C32 C 0.25218 0.26545 0.16318 0.0
C33 C 0.2137 0.25845 0.12318 0.0
C34 C 0.19979 0.23371 0.13352 0.0
C35 C 0.24023 0.27416 0.13785 0.0
C36 C 0.21258 0.2261 0.15938 0.0
H37 H 0.14728 0.14081 0.15018 0.0
N38 N 0.21499 0.19392 0.19282 0.0
C39 C 0.18185 0.14846 0.18565 0.0
C40 C 0.20082 0.20086 0.16892 0.0
C41 C 0.20643 0.16777 0.20078 0.0
C42 C 0.16627 0.15581 0.1619 0.0
C43 C 0.17596 0.18218 0.15294 0.0
O44 O 0.2685 0.19465 0.21233 0.0
O45 O 0.2765 0.23771 0.26003 0.0
O46 O 0.30972 0.2812 0.26488 0.0
O47 O 0.29277 0.26244 0.21833 0.0
O48 O 0.25688 0.19767 0.24867 0.0
O49 O 0.28101 0.23006 0.18877 0.0
O50 O 0.25705 0.30382 0.27943 0.0
O51 O 0.24933 0.26095 0.23287 0.0
O52 O 0.21618 0.21742 0.22802 0.0
O53 O 0.23349 0.23605 0.27451 0.0
O54 O 0.27 0.30097 0.24433 0.0
O55 O 0.24637 0.26999 0.30534 0.0
C56 C 0.2725 0.21445 0.26946 0.0
C57 C 0.27828 0.18913 0.16849 0.0
C58 C 0.29574 0.16391 0.14176 0.0
C59 C 0.29875 0.1793 0.16621 0.0
C60 C 0.27177 0.15804 0.12005 0.0
C61 C 0.2547 0.18311 0.14641 0.0
C62 C 0.25142 0.16752 0.12244 0.0
C63 C 0.31282 0.27741 0.23933 0.0
C64 C 0.28204 0.20619 0.19355 0.0
C65 C 0.16227 0.1901 0.12795 0.0
C66 C 0.17416 0.21588 0.11828 0.0
C67 C 0.25395 0.28435 0.22354 0.0
C68 C 0.24935 0.31192 0.3235 0.0
C69 C 0.22834 0.3204 0.32701 0.0
C70 C 0.23279 0.33814 0.35013 0.0
C71 C 0.25874 0.34767 0.36911 0.0
C72 C 0.27475 0.3213 0.34314 0.0
C73 C 0.27945 0.33922 0.36564 0.0
C74 C 0.21322 0.22099 0.25372 0.0
C75 C 0.24463 0.29338 0.29932 0.0
H76 H 0.31718 0.18413 0.18308 0.0
H77 H 0.26868 0.14594 0.10122 0.0
H78 H 0.2389 0.19061 0.14753 0.0
H79 H 0.2331 0.1629 0.10555 0.0
H80 H 0.20853 0.31287 0.31211 0.0
H81 H 0.26315 0.36183 0.38665 0.0
H82 H 0.29098 0.31481 0.34117 0.0
H83 H 0.29924 0.34659 0.38052 0.0
Tb84 Tb 0.77894 0.23182 0.22918 0.0
C85 C 0.7233 0.2576 0.31542 0.0
C86 C 0.67767 0.22352 0.30661 0.0
C87 C 0.7003 0.24427 0.35398 0.0
C88 C 0.70114 0.23925 0.29707 0.0
C89 C 0.72299 0.26083 0.34397 0.0
C90 C 0.67762 0.22566 0.3353 0.0
C91 C 0.76618 0.29835 0.34979 0.0
N92 N 0.74463 0.27334 0.30485 0.0
C93 C 0.76541 0.29445 0.32127 0.0
C94 C 0.74508 0.28118 0.36133 0.0
Tb95 Tb 0.74196 0.2654 0.25793 0.0
N96 N 0.70213 0.23765 0.26959 0.0
C97 C 0.67941 0.22158 0.25022 0.0
C98 C 0.65475 0.20661 0.28695 0.0
C99 C 0.65559 0.20576 0.25859 0.0
H100 H 0.78192 0.30768 0.31251 0.0
H101 H 0.6379 0.19282 0.24314 0.0
H102 H 0.65995 0.21344 0.34309 0.0
H103 H 0.7831 0.31453 0.36284 0.0
H104 H 0.67938 0.22029 0.22826 0.0
H105 H 0.88219 0.30294 0.23539 0.0
H106 H 0.63622 0.19451 0.29335 0.0
H107 H 0.73536 0.187 0.17797 0.0
H108 H 0.84226 0.27711 0.25385 0.0
H109 H 0.73146 0.17582 0.12804 0.0
H110 H 0.69976 0.24622 0.37591 0.0
H111 H 0.88091 0.29747 0.18477 0.0
H112 H 0.85531 0.27358 0.13718 0.0
H113 H 0.74565 0.28429 0.38339 0.0
H114 H 0.81417 0.2391 0.10783 0.0
N115 N 0.81747 0.25746 0.21406 0.0
C116 C 0.84099 0.27438 0.23173 0.0
C117 C 0.86311 0.28604 0.19276 0.0
C118 C 0.83956 0.26775 0.175 0.0
C119 C 0.86392 0.28912 0.22133 0.0
C120 C 0.81692 0.2535 0.18649 0.0
H121 H 0.76793 0.20238 0.10429 0.0
N122 N 0.77345 0.2201 0.18253 0.0
C123 C 0.74918 0.19231 0.1396 0.0
C124 C 0.79405 0.23411 0.17011 0.0
C125 C 0.75153 0.19868 0.16797 0.0
C126 C 0.76975 0.2074 0.12625 0.0
C127 C 0.79277 0.22834 0.14162 0.0
O128 O 0.77704 0.19196 0.22712 0.0
O129 O 0.74962 0.22936 0.2533 0.0
O130 O 0.76927 0.25462 0.29282 0.0
O131 O 0.80278 0.25362 0.27063 0.0
O132 O 0.74157 0.1959 0.22923 0.0
O133 O 0.81057 0.22227 0.25591 0.0
O134 O 0.74368 0.30474 0.26393 0.0
O135 O 0.77155 0.26808 0.2342 0.0
O136 O 0.75344 0.24394 0.19382 0.0
O137 O 0.71957 0.24605 0.2149 0.0
O138 O 0.77921 0.30168 0.25802 0.0
O139 O 0.71168 0.27709 0.23146 0.0
C140 C 0.73302 0.20557 0.24724 0.0
C141 C 0.79208 0.17824 0.27244 0.0
C142 C 0.80495 0.16797 0.32195 0.0
C143 C 0.80802 0.18621 0.30014 0.0
C144 C 0.78404 0.1421 0.31569 0.0
C145 C 0.77125 0.15248 0.26697 0.0
C146 C 0.76705 0.13475 0.2886 0.0
C147 C 0.79454 0.25645 0.29368 0.0
C148 C 0.79747 0.19645 0.24913 0.0
C149 C 0.81478 0.24312 0.12971 0.0
C150 C 0.83819 0.26274 0.14641 0.0
C151 C 0.78794 0.29202 0.24012 0.0
C152 C 0.73144 0.32301 0.22061 0.0
C153 C 0.71836 0.3174 0.19179 0.0
C154 C 0.72493 0.33733 0.1722 0.0
C155 C 0.7454 0.36281 0.18168 0.0
C156 C 0.75172 0.34866 0.22965 0.0
C157 C 0.75879 0.3683 0.21021 0.0
C158 C 0.72851 0.24358 0.19218 0.0
C159 C 0.72434 0.30224 0.24129 0.0
H160 H 0.82316 0.2065 0.30434 0.0
H161 H 0.7812 0.12688 0.33118 0.0
H162 H 0.75836 0.14586 0.24589 0.0
H163 H 0.75116 0.11482 0.28413 0.0
H164 H 0.70283 0.29765 0.18461 0.0
H165 H 0.75042 0.37888 0.16728 0.0
H166 H 0.76216 0.35359 0.25177 0.0
H167 H 0.77431 0.38803 0.21736 0.0
Tb168 Tb 0.74349 0.74382 0.27154 0.0
C169 C 0.80204 0.80409 0.181 0.0
C170 C 0.76499 0.79911 0.13996 0.0
C171 C 0.80754 0.83809 0.14589 0.0
C172 C 0.77581 0.78982 0.16577 0.0
C173 C 0.81854 0.82805 0.17096 0.0
C174 C 0.78077 0.82366 0.13043 0.0
C175 C 0.85619 0.82877 0.20962 0.0
N176 N 0.81199 0.79339 0.20477 0.0
C177 C 0.83905 0.80479 0.21856 0.0
C178 C 0.84581 0.84063 0.18589 0.0
Tb179 Tb 0.78234 0.75423 0.21793 0.0
N180 N 0.76157 0.76593 0.17539 0.0
C181 C 0.73697 0.74937 0.15903 0.0
C182 C 0.73907 0.783 0.12406 0.0
C183 C 0.72517 0.75785 0.13347 0.0
H184 H 0.84736 0.79575 0.23682 0.0
H185 H 0.70537 0.74492 0.12104 0.0
H186 H 0.77274 0.83125 0.11076 0.0
H187 H 0.87742 0.838 0.22097 0.0
H188 H 0.72587 0.72982 0.16579 0.0
H189 H 0.82046 0.75364 0.36849 0.0
H190 H 0.72997 0.78944 0.10416 0.0
H191 H 0.67879 0.70167 0.25186 0.0
H192 H 0.80019 0.76827 0.3233 0.0
H193 H 0.64854 0.65981 0.26817 0.0
H194 H 0.81978 0.8566 0.13791 0.0
H195 H 0.79541 0.7097 0.38614 0.0
H196 H 0.75238 0.66821 0.38004 0.0
H197 H 0.85918 0.85907 0.17887 0.0
H198 H 0.70541 0.6427 0.35282 0.0
N199 N 0.76418 0.73242 0.31425 0.0
C200 C 0.78891 0.74895 0.3304 0.0
C201 C 0.78641 0.71592 0.36605 0.0
C202 C 0.76042 0.69983 0.35029 0.0
C203 C 0.80057 0.74075 0.3562 0.0
C204 C 0.74975 0.70882 0.32421 0.0
H205 H 0.66635 0.6396 0.31122 0.0
N206 N 0.71381 0.70475 0.28477 0.0
C207 C 0.66966 0.66927 0.27976 0.0
C208 C 0.72356 0.69445 0.30893 0.0
C209 C 0.6869 0.69303 0.27059 0.0
C210 C 0.6798 0.65789 0.30404 0.0
C211 C 0.70695 0.6707 0.3192 0.0
O212 O 0.71073 0.75595 0.27304 0.0
O213 O 0.74947 0.7605 0.23135 0.0
O214 O 0.7919 0.79439 0.23608 0.0
O215 O 0.77964 0.78142 0.27896 0.0
O216 O 0.71027 0.74206 0.23485 0.0
O217 O 0.74966 0.77351 0.3026 0.0
O218 O 0.81481 0.74156 0.21679 0.0
O219 O 0.77641 0.73748 0.2582 0.0
O220 O 0.73432 0.70362 0.25344 0.0
O221 O 0.74597 0.71694 0.2104 0.0
O222 O 0.81555 0.75622 0.25463 0.0
O223 O 0.77639 0.72514 0.18628 0.0
C224 C 0.72495 0.75557 0.21813 0.0
C225 C 0.71052 0.77155 0.31777 0.0
C226 C 0.6888 0.79196 0.34456 0.0
C227 C 0.70225 0.79292 0.32267 0.0
C228 C 0.6834 0.76911 0.36098 0.0
C229 C 0.70521 0.74928 0.33476 0.0
C230 C 0.69163 0.74804 0.35614 0.0
C231 C 0.79144 0.79975 0.26218 0.0
C232 C 0.72459 0.77266 0.29492 0.0
C233 C 0.71775 0.66103 0.34464 0.0
C234 C 0.74448 0.67556 0.36014 0.0
C235 C 0.801 0.7426 0.27142 0.0
C236 C 0.81602 0.72752 0.1719 0.0
C237 C 0.82436 0.70635 0.16654 0.0
C238 C 0.83888 0.70828 0.1454 0.0
C239 C 0.84524 0.73191 0.13018 0.0
C240 C 0.82217 0.75051 0.15598 0.0
C241 C 0.83681 0.75272 0.13536 0.0
C242 C 0.7346 0.69842 0.2272 0.0
C243 C 0.80128 0.72559 0.19432 0.0
H244 H 0.7066 0.81031 0.30976 0.0
H245 H 0.67251 0.76734 0.37748 0.0
H246 H 0.7115 0.73282 0.33152 0.0
H247 H 0.6874 0.73065 0.369 0.0
H248 H 0.81928 0.68839 0.17858 0.0
H249 H 0.85705 0.73451 0.11438 0.0
H250 H 0.81579 0.76682 0.15952 0.0
H251 H 0.84174 0.77071 0.12341 0.0
Tb252 Tb 0.28234 0.73038 0.25217 0.0
C253 C 0.22822 0.80433 0.18661 0.0
C254 C 0.26451 0.84838 0.19303 0.0
C255 C 0.22776 0.83676 0.15028 0.0
C256 C 0.25233 0.82245 0.20258 0.0
C257 C 0.21518 0.81142 0.16061 0.0
C258 C 0.25245 0.85521 0.16646 0.0
C259 C 0.17721 0.769 0.15843 0.0
N260 N 0.21672 0.78023 0.19749 0.0
C261 C 0.191 0.76293 0.18434 0.0
C262 C 0.18953 0.79319 0.14629 0.0
Tb263 Tb 0.24105 0.77163 0.23955 0.0
N264 N 0.26297 0.81513 0.22824 0.0
C265 C 0.28478 0.83375 0.24645 0.0
C266 C 0.2879 0.8669 0.21085 0.0
C267 C 0.29781 0.85967 0.23787 0.0
H268 H 0.18137 0.74406 0.19336 0.0
H269 H 0.31555 0.87401 0.25208 0.0
H270 H 0.26161 0.87496 0.15861 0.0
H271 H 0.15718 0.75494 0.14778 0.0
H272 H 0.29292 0.82856 0.26733 0.0
H273 H 0.20948 0.62725 0.23922 0.0
H274 H 0.29796 0.88701 0.20429 0.0
H275 H 0.34141 0.75907 0.29914 0.0
H276 H 0.23132 0.67299 0.22419 0.0
H277 H 0.36566 0.74851 0.34482 0.0
H278 H 0.21823 0.84254 0.1302 0.0
H279 H 0.22724 0.61442 0.28703 0.0
H280 H 0.26333 0.62689 0.33287 0.0
H281 H 0.1788 0.79786 0.12624 0.0
H282 H 0.30612 0.65988 0.3616 0.0
N283 N 0.26099 0.68673 0.2634 0.0
C284 C 0.23954 0.66789 0.24508 0.0
C285 C 0.23696 0.63466 0.28056 0.0
C286 C 0.26 0.65345 0.29852 0.0
C287 C 0.22696 0.64179 0.25353 0.0
C288 C 0.27175 0.67954 0.2891 0.0
H289 H 0.34475 0.70516 0.36599 0.0
N290 N 0.30665 0.72229 0.29455 0.0
C291 C 0.34589 0.73414 0.33396 0.0
C292 C 0.29554 0.69798 0.30526 0.0
C293 C 0.33206 0.74003 0.30799 0.0
C294 C 0.33398 0.7097 0.34589 0.0
C295 C 0.30866 0.69107 0.33132 0.0
O296 O 0.32007 0.73686 0.24254 0.0
O297 O 0.2773 0.76637 0.23508 0.0
O298 O 0.24007 0.7564 0.19804 0.0
O299 O 0.25145 0.71869 0.21129 0.0
O300 O 0.31581 0.76981 0.25516 0.0
O301 O 0.28309 0.70494 0.22065 0.0
O302 O 0.20359 0.76554 0.24965 0.0
O303 O 0.24594 0.73552 0.25621 0.0
O304 O 0.28222 0.74481 0.29363 0.0
O305 O 0.27196 0.78304 0.28039 0.0
O306 O 0.20733 0.73233 0.23681 0.0
O307 O 0.2409 0.79726 0.27124 0.0
C308 C 0.3016 0.78289 0.24129 0.0
C309 C 0.32399 0.69734 0.2274 0.0
C310 C 0.3402 0.66822 0.20531 0.0
C311 C 0.32789 0.68747 0.20311 0.0
C312 C 0.34881 0.65908 0.23195 0.0
C313 C 0.33298 0.68835 0.25397 0.0
C314 C 0.34536 0.66929 0.25619 0.0
C315 C 0.24123 0.73285 0.19194 0.0
C316 C 0.30956 0.71611 0.22441 0.0
C317 C 0.29651 0.66554 0.34149 0.0
C318 C 0.27216 0.64676 0.32513 0.0
C319 C 0.22162 0.71906 0.2501 0.0
C320 C 0.2002 0.80506 0.26551 0.0
C321 C 0.19543 0.81354 0.28998 0.0
C322 C 0.1828 0.8325 0.28858 0.0
C323 C 0.17486 0.84278 0.26236 0.0
C324 C 0.19208 0.81533 0.23945 0.0
C325 C 0.17942 0.83411 0.23791 0.0
C326 C 0.28137 0.76847 0.29983 0.0
C327 C 0.21447 0.78621 0.26788 0.0
H328 H 0.32085 0.69429 0.18251 0.0
H329 H 0.35843 0.64423 0.23396 0.0
H330 H 0.33045 0.6959 0.27295 0.0
H331 H 0.35219 0.66236 0.27673 0.0
H332 H 0.20201 0.80578 0.31018 0.0
H333 H 0.16489 0.8573 0.26075 0.0
H334 H 0.19549 0.80897 0.22035 0.0
H335 H 0.17318 0.84199 0.21775 0.0
Tb336 Tb 0.27849 0.73371 0.72948 0.0
C337 C 0.22463 0.76144 0.81634 0.0
C338 C 0.18003 0.72585 0.80974 0.0
C339 C 0.20324 0.74882 0.8561 0.0
C340 C 0.2026 0.74198 0.79904 0.0
C341 C 0.22511 0.7655 0.84498 0.0
C342 C 0.18067 0.72908 0.83847 0.0
C343 C 0.26753 0.80367 0.8487 0.0
N344 N 0.2451 0.77727 0.80467 0.0
C345 C 0.26597 0.79894 0.82013 0.0
C346 C 0.24717 0.78667 0.8613 0.0
Tb347 Tb 0.24156 0.76753 0.75795 0.0
N348 N 0.20272 0.73983 0.77137 0.0
C349 C 0.17983 0.72294 0.75283 0.0
C350 C 0.15723 0.70754 0.79109 0.0
C351 C 0.15697 0.70641 0.76242 0.0
H352 H 0.28197 0.81201 0.81063 0.0
H353 H 0.13925 0.69261 0.74768 0.0
H354 H 0.16361 0.71676 0.84711 0.0
H355 H 0.28448 0.82035 0.86101 0.0
H356 H 0.17909 0.72145 0.73067 0.0
H357 H 0.38261 0.80444 0.73916 0.0
H358 H 0.13955 0.69465 0.79847 0.0
H359 H 0.23628 0.68965 0.67719 0.0
H360 H 0.34181 0.77856 0.75617 0.0
H361 H 0.23332 0.67994 0.62706 0.0
H362 H 0.20327 0.75146 0.8781 0.0
H363 H 0.38252 0.80013 0.68871 0.0
H364 H 0.35735 0.77854 0.64012 0.0
H365 H 0.24836 0.79041 0.8834 0.0
H366 H 0.31654 0.7448 0.60942 0.0
N367 N 0.31782 0.7596 0.71579 0.0
C368 C 0.34108 0.77616 0.73414 0.0
C369 C 0.36435 0.78866 0.69606 0.0
C370 C 0.34091 0.77109 0.67752 0.0
C371 C 0.3645 0.79102 0.72455 0.0
C372 C 0.31788 0.75644 0.68826 0.0
H373 H 0.27028 0.70767 0.60445 0.0
N374 N 0.27426 0.72301 0.68287 0.0
C375 C 0.25084 0.69626 0.63918 0.0
C376 C 0.29519 0.73753 0.67113 0.0
C377 C 0.25264 0.70177 0.66764 0.0
C378 C 0.27168 0.71201 0.62647 0.0
C379 C 0.29446 0.73267 0.64259 0.0
O380 O 0.27462 0.69313 0.72777 0.0
O381 O 0.24924 0.7315 0.75348 0.0
O382 O 0.26855 0.75704 0.79328 0.0
O383 O 0.30189 0.7545 0.77161 0.0
O384 O 0.24071 0.69815 0.72905 0.0
O385 O 0.30978 0.72312 0.75523 0.0
O386 O 0.24269 0.80699 0.76167 0.0
O387 O 0.27128 0.76997 0.73456 0.0
O388 O 0.25274 0.74558 0.69418 0.0
O389 O 0.21879 0.74717 0.71543 0.0
O390 O 0.27897 0.80363 0.75824 0.0
O391 O 0.21063 0.77775 0.73066 0.0
C392 C 0.23244 0.70776 0.74741 0.0
C393 C 0.28943 0.68059 0.77377 0.0
C394 C 0.30216 0.67301 0.82414 0.0
C395 C 0.30534 0.68985 0.8012 0.0
C396 C 0.28045 0.64755 0.81935 0.0
C397 C 0.26797 0.65523 0.76967 0.0
C398 C 0.2632 0.63913 0.79249 0.0
C399 C 0.29347 0.75755 0.79449 0.0
C400 C 0.29526 0.69736 0.74953 0.0
C401 C 0.31677 0.74805 0.63136 0.0
C402 C 0.34 0.76723 0.64883 0.0
C403 C 0.28778 0.79384 0.74054 0.0
C404 C 0.23103 0.8222 0.71629 0.0
C405 C 0.21611 0.81553 0.68807 0.0
C406 C 0.22326 0.83331 0.66672 0.0
C407 C 0.24626 0.85755 0.67387 0.0
C408 C 0.25384 0.8466 0.72291 0.0
C409 C 0.26152 0.86395 0.70173 0.0
C410 C 0.22769 0.74482 0.69266 0.0
C411 C 0.22353 0.80336 0.7386 0.0
H412 H 0.32068 0.71004 0.80429 0.0
H413 H 0.2772 0.63336 0.83578 0.0
H414 H 0.25493 0.64775 0.74882 0.0
H415 H 0.24671 0.61953 0.78914 0.0
H416 H 0.19877 0.79659 0.68279 0.0
H417 H 0.25196 0.87216 0.65821 0.0
H418 H 0.2659 0.8523 0.74444 0.0
H419 H 0.27904 0.88271 0.70703 0.0
Tb420 Tb 0.24104 0.2406 0.76983 0.0
C421 C 0.29919 0.30345 0.68378 0.0
C422 C 0.26081 0.30001 0.64482 0.0
C423 C 0.30171 0.34095 0.65322 0.0
C424 C 0.27293 0.28923 0.66876 0.0
C425 C 0.3144 0.32901 0.67556 0.0
C426 C 0.2749 0.32643 0.63783 0.0
C427 C 0.35436 0.32695 0.70906 0.0
N428 N 0.31064 0.29098 0.70492 0.0
C429 C 0.33837 0.30144 0.71625 0.0
C430 C 0.34217 0.34111 0.68912 0.0
Tb431 Tb 0.2818 0.25075 0.7174 0.0
N432 N 0.26023 0.26381 0.67618 0.0
C433 C 0.23651 0.24696 0.65868 0.0
C434 C 0.23553 0.2835 0.62801 0.0
C435 C 0.22369 0.25662 0.63456 0.0
H436 H 0.34775 0.29067 0.73195 0.0
H437 H 0.20453 0.2434 0.62125 0.0
H438 H 0.26572 0.33534 0.61988 0.0
H439 H 0.37603 0.33569 0.71893 0.0
H440 H 0.22684 0.22625 0.66367 0.0
H441 H 0.32107 0.25821 0.86586 0.0
H442 H 0.2255 0.29098 0.6094 0.0
H443 H 0.17768 0.19606 0.75314 0.0
H444 H 0.29901 0.26946 0.81994 0.0
H445 H 0.14956 0.15465 0.77249 0.0
H446 H 0.31282 0.36085 0.6469 0.0
H447 H 0.29859 0.21495 0.88624 0.0
H448 H 0.25735 0.17215 0.88275 0.0
H449 H 0.35459 0.3608 0.68348 0.0
H450 H 0.21056 0.14388 0.85738 0.0
N451 N 0.26393 0.23259 0.81313 0.0
C452 C 0.28851 0.25052 0.82819 0.0
C453 C 0.28864 0.21974 0.86582 0.0
C454 C 0.26289 0.2021 0.85108 0.0
C455 C 0.30133 0.24421 0.85446 0.0
C456 C 0.25093 0.20923 0.8245 0.0
H457 H 0.16998 0.13742 0.81644 0.0
N458 N 0.21382 0.20156 0.7853 0.0
C459 C 0.1708 0.16517 0.78317 0.0
C460 C 0.22491 0.19315 0.8101 0.0
C461 C 0.18676 0.18861 0.77228 0.0
C462 C 0.18241 0.15547 0.80794 0.0
C463 C 0.20968 0.16973 0.822 0.0
O464 O 0.206 0.24972 0.76914 0.0
O465 O 0.24878 0.25819 0.73019 0.0
O466 O 0.29747 0.28957 0.74057 0.0
O467 O 0.27491 0.27969 0.77763 0.0
O468 O 0.20899 0.23748 0.73175 0.0
O469 O 0.24363 0.26959 0.79993 0.0
O470 O 0.31418 0.23832 0.71507 0.0
O471 O 0.27422 0.23448 0.75716 0.0
O472 O 0.23307 0.20024 0.75274 0.0
O473 O 0.24576 0.21292 0.71008 0.0
O474 O 0.31336 0.24691 0.75326 0.0
O475 O 0.27639 0.22407 0.68354 0.0
C476 C 0.22427 0.25249 0.71621 0.0
C477 C 0.20247 0.2651 0.81266 0.0
C478 C 0.18056 0.28544 0.83947 0.0
C479 C 0.19561 0.28715 0.8188 0.0
C480 C 0.17214 0.26116 0.85335 0.0
C481 C 0.19417 0.24145 0.82728 0.0
C482 C 0.179 0.23948 0.84736 0.0
C483 C 0.29313 0.2958 0.7645 0.0
C484 C 0.21807 0.26694 0.79091 0.0
C485 C 0.22181 0.16195 0.84797 0.0
C486 C 0.24843 0.17806 0.86244 0.0
C487 C 0.29787 0.23582 0.77021 0.0
C488 C 0.31659 0.22779 0.66928 0.0
C489 C 0.32583 0.20749 0.66327 0.0
C490 C 0.3414 0.21101 0.6428 0.0
C491 C 0.34771 0.23534 0.62874 0.0
C492 C 0.32272 0.25155 0.65451 0.0
C493 C 0.3383 0.2553 0.63446 0.0
C494 C 0.23495 0.1944 0.72727 0.0
C495 C 0.30112 0.22411 0.69141 0.0
H496 H 0.20226 0.3056 0.80779 0.0
H497 H 0.15991 0.25874 0.86872 0.0
H498 H 0.19922 0.22441 0.82315 0.0
H499 H 0.17245 0.221 0.8583 0.0
H500 H 0.32067 0.18895 0.67438 0.0
H501 H 0.36024 0.23917 0.61348 0.0
H502 H 0.31562 0.26726 0.65854 0.0
H503 H 0.34325 0.27385 0.62339 0.0
Tb504 Tb 0.78269 0.22686 0.75148 0.0
C505 C 0.72943 0.29949 0.68308 0.0
C506 C 0.76556 0.34367 0.68928 0.0
C507 C 0.72958 0.33116 0.64588 0.0
C508 C 0.75326 0.31795 0.69922 0.0
C509 C 0.71682 0.30606 0.65657 0.0
C510 C 0.75397 0.34993 0.6622 0.0
C511 C 0.67881 0.26365 0.65455 0.0
N512 N 0.71771 0.2756 0.69429 0.0
C513 C 0.69216 0.25809 0.68098 0.0
C514 C 0.69137 0.28757 0.64209 0.0
Tb515 Tb 0.74138 0.26803 0.73725 0.0
N516 N 0.76347 0.31121 0.72538 0.0
C517 C 0.78483 0.3302 0.74364 0.0
C518 C 0.78856 0.36257 0.70722 0.0
C519 C 0.79794 0.35594 0.7347 0.0
H520 H 0.68241 0.23946 0.69032 0.0
H521 H 0.81536 0.37059 0.74897 0.0
H522 H 0.76325 0.36949 0.65405 0.0
H523 H 0.65893 0.24943 0.64377 0.0
H524 H 0.79254 0.32539 0.76486 0.0
H525 H 0.70612 0.12564 0.74258 0.0
H526 H 0.7987 0.38252 0.70036 0.0
H527 H 0.84399 0.25351 0.79502 0.0
H528 H 0.72896 0.17035 0.72596 0.0
H529 H 0.86961 0.24246 0.83956 0.0
H530 H 0.72038 0.33652 0.6254 0.0
H531 H 0.72516 0.11297 0.78999 0.0
H532 H 0.76327 0.12484 0.83423 0.0
H533 H 0.68096 0.29184 0.62164 0.0
H534 H 0.80805 0.15665 0.86064 0.0
N535 N 0.76043 0.18387 0.764 0.0
C536 C 0.73772 0.16536 0.74669 0.0
C537 C 0.7353 0.13279 0.78284 0.0
C538 C 0.75959 0.15106 0.79963 0.0
C539 C 0.72456 0.13983 0.75605 0.0
C540 C 0.77184 0.17665 0.78936 0.0
H541 H 0.84819 0.20039 0.8625 0.0
N542 N 0.80807 0.21825 0.79277 0.0
C543 C 0.84902 0.22884 0.82995 0.0
C544 C 0.79668 0.19447 0.80426 0.0
C545 C 0.83438 0.23504 0.80465 0.0
C546 C 0.83683 0.20513 0.84288 0.0
C547 C 0.81048 0.18737 0.82981 0.0
O548 O 0.81889 0.23412 0.7383 0.0
O549 O 0.7778 0.26269 0.73384 0.0
O550 O 0.74152 0.2526 0.69637 0.0
O551 O 0.75136 0.2145 0.71095 0.0
O552 O 0.81628 0.2662 0.75431 0.0
O553 O 0.78265 0.19908 0.72181 0.0
O554 O 0.70362 0.2619 0.74657 0.0
O555 O 0.74657 0.23265 0.75571 0.0
O556 O 0.78556 0.24386 0.79299 0.0
O557 O 0.77098 0.27973 0.77882 0.0
O558 O 0.70796 0.22869 0.7354 0.0
O559 O 0.7403 0.2952 0.76668 0.0
C560 C 0.80211 0.27925 0.74021 0.0
C561 C 0.82519 0.19562 0.72437 0.0
C562 C 0.84571 0.17198 0.7007 0.0
C563 C 0.82825 0.18617 0.69942 0.0
C564 C 0.85995 0.16701 0.72704 0.0
C565 C 0.83902 0.19013 0.75069 0.0
C566 C 0.85639 0.1759 0.75197 0.0
C567 C 0.74221 0.22874 0.69092 0.0
C568 C 0.80836 0.212 0.7222 0.0
C569 C 0.79792 0.16242 0.84088 0.0
C570 C 0.77245 0.1443 0.82584 0.0
C571 C 0.72225 0.21613 0.75032 0.0
C572 C 0.69871 0.30152 0.75941 0.0
C573 C 0.69135 0.30911 0.7826 0.0
C574 C 0.67587 0.32562 0.77897 0.0
C575 C 0.66827 0.33489 0.75206 0.0
C576 C 0.69115 0.31097 0.73269 0.0
C577 C 0.67604 0.32766 0.72907 0.0
C578 C 0.78197 0.26638 0.79853 0.0
C579 C 0.71394 0.28351 0.76352 0.0
H580 H 0.81749 0.19028 0.67902 0.0
H581 H 0.87353 0.15603 0.72826 0.0
H582 H 0.8367 0.197 0.77016 0.0
H583 H 0.86719 0.17188 0.7723 0.0
H584 H 0.69708 0.30166 0.80324 0.0
H585 H 0.65642 0.3478 0.74888 0.0
H586 H 0.69664 0.30535 0.71461 0.0
H587 H 0.67019 0.33485 0.70839 0.0
Tb588 Tb 0.75529 0.72582 0.71657 0.0
C589 C 0.82921 0.80141 0.82066 0.0
C590 C 0.83262 0.77052 0.85766 0.0
C591 C 0.86948 0.8142 0.8599 0.0
C592 C 0.81845 0.77678 0.83179 0.0
C593 C 0.85448 0.8208 0.83493 0.0
C594 C 0.85856 0.78905 0.87124 0.0
C595 C 0.84658 0.85261 0.80065 0.0
N596 N 0.81379 0.80706 0.79684 0.0
C597 C 0.82162 0.83266 0.78729 0.0
C598 C 0.86333 0.84653 0.8243 0.0
Tb599 Tb 0.77339 0.77299 0.7761 0.0
N600 N 0.79306 0.75987 0.81839 0.0
C601 C 0.77968 0.73729 0.83113 0.0
C602 C 0.81978 0.74639 0.86966 0.0
C603 C 0.79299 0.72994 0.85657 0.0
H604 H 0.80901 0.8378 0.76907 0.0
H605 H 0.78255 0.71158 0.86605 0.0
H606 H 0.8699 0.7845 0.89099 0.0
H607 H 0.85291 0.87265 0.79263 0.0
H608 H 0.75897 0.72429 0.82146 0.0
H609 H 0.74766 0.78674 0.62614 0.0
H610 H 0.82997 0.74076 0.88947 0.0
H611 H 0.71602 0.663 0.72736 0.0
H612 H 0.77067 0.77416 0.67138 0.0
H613 H 0.67063 0.6296 0.7051 0.0
H614 H 0.88908 0.8287 0.87105 0.0
H615 H 0.70011 0.75793 0.60266 0.0
H616 H 0.65925 0.71519 0.60185 0.0
H617 H 0.8826 0.86203 0.83466 0.0
H618 H 0.6383 0.67231 0.62329 0.0
N619 N 0.73614 0.73909 0.67432 0.0
C620 C 0.74987 0.76143 0.66152 0.0
C621 C 0.71006 0.75237 0.62265 0.0
C622 C 0.69668 0.72867 0.63502 0.0
C623 C 0.73691 0.76864 0.6358 0.0
C624 C 0.71052 0.72247 0.66111 0.0
H625 H 0.6425 0.64009 0.66168 0.0
N626 N 0.71344 0.69293 0.69758 0.0
C627 C 0.67823 0.64897 0.69596 0.0
C628 C 0.69874 0.6985 0.67312 0.0
C629 C 0.70402 0.66805 0.70855 0.0
C630 C 0.6624 0.65498 0.67148 0.0
C631 C 0.67277 0.67983 0.65949 0.0
O632 O 0.76953 0.69412 0.71485 0.0
O633 O 0.77843 0.73823 0.75981 0.0
O634 O 0.81154 0.78094 0.76306 0.0
O635 O 0.79271 0.76137 0.71691 0.0
O636 O 0.75878 0.69786 0.74995 0.0
O637 O 0.77657 0.72537 0.68533 0.0
O638 O 0.75886 0.80448 0.77858 0.0
O639 O 0.75067 0.76087 0.73257 0.0
O640 O 0.71776 0.71914 0.72995 0.0
O641 O 0.7375 0.73612 0.77671 0.0
O642 O 0.77092 0.80097 0.74255 0.0
O643 O 0.74838 0.77042 0.8043 0.0
C644 C 0.77496 0.7153 0.76999 0.0
C645 C 0.77348 0.68207 0.67045 0.0
C646 C 0.78887 0.65416 0.64441 0.0
C647 C 0.79477 0.67547 0.6644 0.0
C648 C 0.76123 0.63954 0.63103 0.0
C649 C 0.74636 0.66765 0.65606 0.0
C650 C 0.7403 0.64647 0.63659 0.0
C651 C 0.81366 0.77625 0.73729 0.0
C652 C 0.7796 0.70279 0.69301 0.0
C653 C 0.65839 0.68629 0.63401 0.0
C654 C 0.67031 0.7107 0.62181 0.0
C655 C 0.75469 0.78382 0.72233 0.0
C656 C 0.75082 0.81202 0.82263 0.0
C657 C 0.73 0.82113 0.82539 0.0
C658 C 0.73393 0.83824 0.84883 0.0
C659 C 0.75916 0.84646 0.86901 0.0
C660 C 0.7756 0.82031 0.84325 0.0
C661 C 0.77976 0.83755 0.86619 0.0
C662 C 0.7165 0.72143 0.75644 0.0
C663 C 0.74641 0.79375 0.79837 0.0
H664 H 0.81575 0.68695 0.67527 0.0
H665 H 0.75554 0.62236 0.61646 0.0
H666 H 0.72976 0.67237 0.66016 0.0
H667 H 0.71922 0.63511 0.62599 0.0
H668 H 0.71068 0.81451 0.80965 0.0
H669 H 0.76305 0.86 0.88696 0.0
H670 H 0.79171 0.81341 0.84171 0.0
H671 H 0.79903 0.84398 0.88192 0.0
Cd672 Cd 0.99046 0.98805 0.53269 0.0
Cd673 Cd 0.0313 0.00952 0.45802 0.0
C674 C 0.04216 0.97072 0.55238 0.0
N675 N 0.01664 0.96245 0.53507 0.0
C676 C 0.02126 0.92304 0.51906 0.0
C677 C 0.04823 0.93201 0.53546 0.0
C678 C 0.05861 0.95591 0.55258 0.0
C679 C 1.00565 0.93875 0.51922 0.0
H680 H 0.04985 0.98879 0.56604 0.0
H681 H 0.98485 0.93221 0.50658 0.0
C682 C 0.97614 0.96616 0.45933 0.0
C683 C 0.98142 0.0306 0.44592 0.0
C684 C 0.96806 0.04821 0.44742 0.0
C685 C 0.98262 0.07332 0.46254 0.0
C686 C 1.01046 0.08011 0.47567 0.0
C687 C 0.02308 0.06212 0.47306 0.0
N688 N 1.00833 0.03776 0.45895 0.0
H689 H 0.9704 0.0115 0.43395 0.0
H690 H 0.04467 0.06744 0.48235 0.0
C691 C 0.04231 0.95506 0.4631 0.0
N692 N 0.05515 0.98173 0.47116 0.0
C693 C 0.09893 0.97836 0.47883 0.0
C694 C 0.08632 0.95123 0.46838 0.0
C695 C 0.05761 0.93927 0.46167 0.0
C696 C 0.0828 0.99341 0.47986 0.0
H697 H 0.02031 0.94649 0.45565 0.0
H698 H 0.09233 0.01488 0.48541 0.0
C699 C 0.04513 0.03062 0.53012 0.0
C700 C 0.96091 0.95415 0.56858 0.0
N701 N 0.96688 0.01625 0.52145 0.0
C702 C 0.97938 0.04283 0.52992 0.0
C703 C 0.96376 0.05857 0.53003 0.0
C704 C 0.93501 0.04693 0.52074 0.0
C705 C 0.92311 0.01996 0.50965 0.0
C706 C 0.93943 0.00469 0.51116 0.0
C707 C 0.06225 0.04102 0.42172 0.0
O708 O 0.98765 0.97942 0.48288 0.0
O709 O 0.98848 0.97231 0.43939 0.0
O710 O 0.03239 0.01722 0.50693 0.0
O711 O 0.0334 0.0258 0.55052 0.0
O712 O 0.95369 0.94916 0.54192 0.0
O713 O 0.98106 0.97584 0.57819 0.0
O714 O 0.06978 0.04676 0.44825 0.0
O715 O 0.04066 0.02043 0.41256 0.0
H716 H 1.00123 0.05136 0.53859 0.0
H717 H 0.93005 0.9832 0.50598 0.0
H718 H 0.01264 0.90453 0.50577 0.0
H719 H 0.07912 0.96292 0.56611 0.0
H720 H 0.9468 0.04244 0.43618 0.0
H721 H 0.02245 0.09912 0.48773 0.0
H722 H 0.12101 0.98822 0.48473 0.0
H723 H 0.04698 0.91855 0.45323 0.0
H724 H 0.97421 0.07901 0.5392 0.0
H725 H 0.90127 0.01011 0.50138 0.0
Cd726 Cd 0.51267 0.9732 0.0417 0.0
Cd727 Cd 0.51456 0.02485 0.9509 0.0
C728 C 0.56761 0.96352 0.07865 0.0
N729 N 0.54659 0.95309 0.05545 0.0
C730 C 0.55894 0.91424 0.05335 0.0
C731 C 0.58054 0.92417 0.07767 0.0
C732 C 0.58491 0.94948 0.09 0.0
C733 C 0.5422 0.92899 0.04265 0.0
H734 H 0.57043 0.98237 0.08897 0.0
H735 H 0.52497 0.92062 0.02475 0.0
C736 C 0.47807 0.96371 0.96643 0.0
C737 C 0.4587 0.03314 0.91398 0.0
C738 C 0.44081 0.04656 0.90255 0.0
C739 C 0.44491 0.07203 0.91431 0.0
C740 C 0.46696 0.08281 0.93808 0.0
C741 C 0.48431 0.06868 0.94885 0.0
N742 N 0.48008 0.04434 0.93669 0.0
H743 H 0.45596 0.01409 0.90414 0.0
H744 H 0.50179 0.07767 0.96635 0.0
C745 C 0.52336 0.9835 0.90813 0.0
N746 N 0.53264 0.99583 0.93455 0.0
C747 C 0.56925 0.97921 0.94475 0.0
C748 C 0.56039 0.96629 0.91756 0.0
C749 C 0.53693 0.96847 0.89921 0.0
C750 C 0.55503 0.99385 0.95279 0.0
H751 H 0.5057 0.98567 0.89386 0.0
H752 H 0.56225 0.00427 0.97348 0.0
C753 C 0.54876 0.03358 0.02566 0.0
C754 C 0.47623 0.93525 0.06933 0.0
N755 N 0.49334 0.00217 0.05598 0.0
C756 C 0.50524 0.01954 0.07928 0.0
C757 C 0.49128 0.03446 0.08759 0.0
C758 C 0.46469 0.03116 0.07202 0.0
C759 C 0.45313 0.01318 0.04797 0.0
C760 C 0.46786 -0.00112 0.04033 0.0
C761 C 0.55289 0.06501 0.92699 0.0
O762 O 0.4947 0.97345 0.99007 0.0
O763 O 0.47917 0.97879 0.94543 0.0
O764 O 0.53148 0.02328 0.00251 0.0
O765 O 0.54854 0.01891 0.04696 0.0
O766 O 0.47125 0.93417 0.04237 0.0
O767 O 0.49844 0.95325 0.08271 0.0
O768 O 0.55744 0.06309 0.95373 0.0
O769 O 0.53039 0.04869 0.91207 0.0
H770 H 0.52532 0.02144 0.09173 0.0
H771 H 0.45875 0.98468 0.02211 0.0
H772 H 0.55422 0.89471 0.04322 0.0
H773 H 0.60138 0.95833 0.10849 0.0
H774 H 0.42404 0.03706 0.88451 0.0
H775 H 0.4715 0.10249 0.94774 0.0
H776 H 0.58747 0.9787 0.9595 0.0
H777 H 0.5291 0.95867 0.87818 0.0
H778 H 0.50087 0.04782 0.10648 0.0
H779 H 0.43286 0.01017 0.03513 0.0
Cd780 Cd 0.01346 0.47509 0.04341 0.0
Cd781 Cd 0.0166 0.52656 0.94999 0.0
C782 C 0.06868 0.46497 0.07909 0.0
N783 N 0.04659 0.45406 0.05699 0.0
C784 C 0.05724 0.41407 0.05571 0.0
C785 C 0.07995 0.42453 0.0789 0.0
C786 C 0.08568 0.4506 0.09031 0.0
C787 C 0.04078 0.42913 0.04517 0.0
H788 H 0.07255 0.48446 0.08877 0.0
H789 H 0.0228 0.42052 0.02805 0.0
C790 C 0.97821 0.46558 0.96724 0.0
C791 C 0.96492 0.53892 0.9097 0.0
C792 C 0.94805 0.55331 0.89812 0.0
C793 C 0.9498 0.57648 0.91283 0.0
C794 C 0.96832 0.58389 0.93957 0.0
C795 C 0.9848 0.56889 0.95037 0.0
N796 N 0.98301 0.54694 0.93533 0.0
H797 H 0.96419 0.5218 0.89775 0.0
H798 H 0.9998 0.57543 0.97032 0.0
C799 C 0.02426 0.48482 0.90717 0.0
N800 N 0.03281 0.49584 0.93413 0.0
C801 C 0.0666 0.47559 0.94532 0.0
C802 C 0.05844 0.46397 0.91759 0.0
C803 C 0.03682 0.46869 0.89843 0.0
C804 C 0.05347 0.49146 0.95313 0.0
H805 H 1.00802 0.48892 0.89234 0.0
H806 H 0.06019 0.5009 0.97426 0.0
C807 C 0.05101 0.53355 0.02339 0.0
C808 C 0.97759 0.43898 0.07375 0.0
N809 N 0.99637 0.50577 0.05726 0.0
C810 C 1.00996 0.52436 0.07937 0.0
C811 C 0.99729 0.54049 0.0878 0.0
C812 C 0.97031 0.53711 0.07359 0.0
C813 C 0.95695 0.51783 0.05076 0.0
C814 C 0.97044 0.50236 0.04292 0.0
C815 C 0.05522 0.56393 0.9236 0.0
O816 O 0.99404 0.47434 0.99154 0.0
O817 O 0.98104 0.48077 0.94636 0.0
O818 O 0.03191 0.52367 0.00141 0.0
O819 O 0.0511 0.51962 0.04528 0.0
O820 O 0.97314 0.43569 0.04697 0.0
O821 O 0.99921 0.4583 0.08609 0.0
O822 O 0.06003 0.56397 0.95055 0.0
O823 O 0.03231 0.54736 0.90976 0.0
H824 H 0.03039 0.52631 0.09077 0.0
H825 H 0.96007 0.48722 0.02563 0.0
H826 H 0.05201 0.39429 0.04587 0.0
H827 H 0.10255 0.4595 0.10846 0.0
H828 H 0.93395 0.54642 0.87767 0.0
H829 H 0.97091 0.60174 0.95164 0.0
H830 H 0.08344 0.47305 0.96073 0.0
H831 H 0.02959 0.45997 0.87694 0.0
H832 H 1.00821 0.55492 0.10571 0.0
H833 H 0.93629 0.51476 0.03902 0.0
Cd834 Cd 0.50231 0.49139 0.04633 0.0
Cd835 Cd 0.54427 0.52157 0.97348 0.0
C836 C 0.55138 0.47094 0.0547 0.0
N837 N 0.52492 0.46408 0.04012 0.0
C838 C 0.52491 0.42368 0.02059 0.0
C839 C 0.55273 0.43133 0.03402 0.0
C840 C 0.56595 0.45505 0.05148 0.0
C841 C 0.51127 0.44071 0.0238 0.0
H842 H 0.5612 0.48864 0.06903 0.0
H843 H 0.48989 0.43539 0.01333 0.0
C844 C 0.48168 0.48166 0.96742 0.0
C845 C 0.50642 0.55196 0.9444 0.0
C846 C 0.49167 0.56888 0.94026 0.0
C847 C 0.48935 0.58125 0.96391 0.0
C848 C 0.50153 0.57651 0.9911 0.0
C849 C 0.51643 0.55979 0.99423 0.0
N850 N 0.51857 0.54791 0.97107 0.0
H851 H 0.50841 0.54224 0.92636 0.0
H852 H 0.5265 0.55694 0.01514 0.0
C853 C 0.54503 0.4624 0.96954 0.0
N854 N 0.56195 0.48873 0.97406 0.0
C855 C 0.59944 0.47825 0.9674 0.0
C856 C 0.58222 0.45092 0.9615 0.0
C857 C 0.5549 0.44295 0.96365 0.0
C858 C 0.58879 0.49692 0.97373 0.0
H859 H 0.5236 0.45668 0.96925 0.0
H860 H 0.60143 0.51821 0.97657 0.0
C861 C 0.55654 0.53339 0.04387 0.0
C862 C 0.47522 0.45719 0.0839 0.0
N863 N 0.48008 0.52108 0.03903 0.0
C864 C 0.49014 0.54375 0.05635 0.0
C865 C 0.47481 0.55995 0.05547 0.0
C866 C 0.44885 0.55247 0.03676 0.0
C867 C 0.43957 0.52959 0.0182 0.0
C868 C 0.45561 0.51397 0.01981 0.0
C869 C 0.57225 0.55559 0.93698 0.0
O870 O 0.48875 0.485 0.99425 0.0
O871 O 0.49916 0.49152 0.95263 0.0
O872 O 0.54334 0.51865 0.02164 0.0
O873 O 0.54598 0.52872 0.06506 0.0
O874 O 0.46376 0.45549 0.05772 0.0
O875 O 0.49854 0.47577 0.09251 0.0
O876 O 0.58097 0.56159 0.96357 0.0
O877 O 0.55268 0.5332 0.92882 0.0
H878 H 0.50943 0.54851 0.07179 0.0
H879 H 0.44795 0.49544 0.00676 0.0
H880 H 0.51416 0.40525 0.00724 0.0
H881 H 0.58719 0.46097 0.0629 0.0
H882 H 0.48234 0.57242 0.91897 0.0
H883 H 0.50025 0.58632 0.00957 0.0
H884 H 0.62045 0.48552 0.96548 0.0
H885 H 0.54102 0.42206 0.95991 0.0
H886 H 0.48241 0.57711 0.07055 0.0
H887 H 0.41962 0.52318 0.00359 0.0
Cd888 Cd 0.01456 0.47539 0.54275 0.0
Cd889 Cd 0.01202 0.52395 0.44973 0.0
C890 C 0.06681 0.46251 0.58177 0.0
N891 N 0.04796 0.45446 0.55659 0.0
C892 C 0.06158 0.41686 0.55177 0.0
C893 C 0.08085 0.42425 0.57808 0.0
C894 C 0.08349 0.44777 0.59285 0.0
C895 C 0.04526 0.43215 0.54151 0.0
H896 H 0.06817 0.47982 0.59389 0.0
H897 H 0.02978 0.42566 0.52186 0.0
C898 C 0.9768 0.46531 0.47004 0.0
C899 C 0.96222 0.5376 0.40821 0.0
C900 C 0.94517 0.5517 0.39634 0.0
C901 C 0.9444 0.57304 0.41203 0.0
C902 C 0.96055 0.57884 0.44003 0.0
C903 C 0.97742 0.56422 0.45108 0.0
N904 N 0.97817 0.54415 0.43504 0.0
H905 H 0.96342 0.52195 0.39558 0.0
H906 H 0.99067 0.56962 0.47211 0.0
C907 C 0.01767 0.47653 0.41203 0.0
N908 N 0.02949 0.49331 0.43579 0.0
C909 C 0.06858 0.48045 0.44467 0.0
C910 C 0.05714 0.46303 0.42018 0.0
C911 C 0.03117 0.46105 0.40386 0.0
C912 C 0.05437 0.49539 0.45209 0.0
H913 H 0.99805 0.47557 0.39915 0.0
H914 H 0.06355 0.50933 0.47051 0.0
C915 C 0.05008 0.53573 0.52418 0.0
C916 C 0.97678 0.43926 0.57052 0.0
N917 N 0.99767 0.50656 0.55696 0.0
C918 C 1.00315 0.51546 0.5844 0.0
C919 C 0.98909 0.53051 0.5922 0.0
C920 C 0.96932 0.53665 0.57154 0.0
C921 C 0.96508 0.52808 0.54322 0.0
C922 C 0.9793 0.51284 0.53646 0.0
C923 C 0.04816 0.5593 0.41984 0.0
O924 O 0.99615 0.4759 0.49163 0.0
O925 O 0.97562 0.47892 0.44802 0.0
O926 O 0.03259 0.52538 0.50116 0.0
O927 O 0.05011 0.52124 0.54567 0.0
O928 O 0.97184 0.43784 0.54356 0.0
O929 O 0.99961 0.45644 0.58377 0.0
O930 O 0.05315 0.56241 0.4467 0.0
O931 O 0.026 0.54062 0.40749 0.0
H932 H 0.01763 0.50998 0.60042 0.0
H933 H 0.9751 0.50536 0.51485 0.0
H934 H 0.05882 0.39921 0.53924 0.0
H935 H 0.09754 0.45422 0.61339 0.0
H936 H 0.93293 0.54607 0.37487 0.0
H937 H 0.96106 0.59525 0.45295 0.0
H938 H 0.08873 0.48321 0.45763 0.0
H939 H 0.0214 0.44775 0.38494 0.0
H940 H 0.99293 0.53629 0.61435 0.0
H941 H 0.95061 0.53271 0.52636 0.0
Cd942 Cd 0.51213 0.97229 0.54127 0.0
Cd943 Cd 0.51321 0.02419 0.44888 0.0
C944 C 0.56686 0.96181 0.57737 0.0
N945 N 0.54518 0.95109 0.55483 0.0
C946 C 0.55626 0.91134 0.55348 0.0
C947 C 0.57856 0.92163 0.5771 0.0
C948 C 0.58385 0.94748 0.58877 0.0
C949 C 0.53978 0.92636 0.54275 0.0
H950 H 0.57038 0.9811 0.58725 0.0
H951 H 0.5221 0.91785 0.5253 0.0
C952 C 0.47531 0.96453 0.46733 0.0
C953 C 0.46257 0.03789 0.40861 0.0
C954 C 0.44591 0.05251 0.39714 0.0
C955 C 0.4472 0.07516 0.4124 0.0
C956 C 0.46505 0.08179 0.43957 0.0
C957 C 0.48137 0.06659 0.45024 0.0
N958 N 0.48003 0.04516 0.43466 0.0
H959 H 0.46219 0.02118 0.39626 0.0
H960 H 0.49588 0.07255 0.47056 0.0
C961 C 0.51955 0.97939 0.40881 0.0
N962 N 0.53027 0.99376 0.43416 0.0
C963 C 0.56744 0.97802 0.44404 0.0
C964 C 0.55706 0.96296 0.41796 0.0
C965 C 0.53265 0.9637 0.40029 0.0
C966 C 0.55367 0.99329 0.45171 0.0
H967 H 0.50114 0.9805 0.39502 0.0
H968 H 0.56205 0.0054 0.47145 0.0
C969 C 0.54987 0.03161 0.52255 0.0
C970 C 0.47568 0.9364 0.57107 0.0
N971 N 0.49588 0.00376 0.55525 0.0
C972 C 0.50561 0.01679 0.58131 0.0
C973 C 0.49315 0.0333 0.5894 0.0
C974 C 0.47041 0.03631 0.57051 0.0
C975 C 0.46112 0.02275 0.54365 0.0
C976 C 0.47417 0.00652 0.53647 0.0
C977 C 0.55015 0.06065 0.4201 0.0
O978 O 0.49403 0.97369 0.48979 0.0
O979 O 0.4759 0.97918 0.44593 0.0
O980 O 0.53093 0.0223 0.50029 0.0
O981 O 0.54958 0.01712 0.54406 0.0
O982 O 0.47038 0.93398 0.54412 0.0
O983 O 0.49806 0.95476 0.58348 0.0
O984 O 0.55491 0.06306 0.44702 0.0
O985 O 0.52806 0.04212 0.40735 0.0
H986 H 0.52271 0.01397 0.59598 0.0
H987 H 0.46653 0.99552 0.5161 0.0
H988 H 0.55137 0.89173 0.54343 0.0
H989 H 0.60036 0.95622 0.60726 0.0
H990 H 0.43233 0.0462 0.37634 0.0
H991 H 0.46724 0.09921 0.45211 0.0
H992 H 0.58642 0.97862 0.45816 0.0
H993 H 0.5237 0.95226 0.38013 0.0
H994 H 0.50123 0.04356 0.61021 0.0
H995 H 0.44342 0.024 0.52854 0.0
C996 C 0.1683 0.18167 0.24606 0.0
C997 C 0.18712 0.20552 0.26139 0.0
C998 C 0.14763 0.16383 0.25777 0.0
C999 C 0.1149 0.15514 0.31867 0.0
H1000 H 0.12467 0.08627 0.32292 0.0
C1001 C 0.09351 0.08554 0.41007 0.0
C1002 C 0.07671 0.05847 0.40197 0.0
C1003 C 0.10425 0.10295 0.39009 0.0
C1004 C 0.12149 0.10528 0.32165 0.0
H1005 H 0.19602 0.23174 0.29849 0.0
H1006 H 0.1603 0.20099 0.31871 0.0
H1007 H 0.14327 0.11837 0.28915 0.0
H1008 H 0.05929 0.02784 0.36741 0.0
H1009 H 0.07853 0.05819 0.33263 0.0
H1010 H 0.09412 0.14235 0.35211 0.0
C1011 C 0.16174 0.19549 0.29808 0.0
C1012 C 0.13184 0.12353 0.30214 0.0
C1013 C 0.18251 0.21302 0.28659 0.0
C1014 C 0.07202 0.04871 0.37407 0.0
C1015 C 0.08305 0.06601 0.35423 0.0
C1016 C 0.10467 0.13692 0.33829 0.0
C1017 C 0.14518 0.17003 0.28463 0.0
C1018 C 0.12919 0.14888 0.30089 0.0
C1019 C 0.09865 0.0934 0.36189 0.0
C1020 C 0.10839 0.1121 0.3403 0.0
H1021 H 0.17049 0.17593 0.22602 0.0
H1022 H 0.1346 0.14456 0.24662 0.0
H1023 H 0.11244 0.17447 0.31803 0.0
H1024 H 0.09744 0.09351 0.4315 0.0
H1025 H 0.11663 0.12394 0.39655 0.0
C1026 C 0.81923 0.15992 0.3737 0.0
C1027 C 0.82535 0.17454 0.34989 0.0
C1028 C 0.84013 0.1603 0.39695 0.0
C1029 C 0.91323 0.17219 0.4069 0.0
H1030 H 0.90191 0.13691 0.47648 0.0
C1031 C 0.98393 0.12071 0.46155 0.0
C1032 C 0.96925 0.09296 0.463 0.0
C1033 C 0.97062 0.13893 0.45857 0.0
C1034 C 0.90551 0.14723 0.45736 0.0
H1035 H 0.8585 0.20524 0.33498 0.0
H1036 H 0.89352 0.20846 0.37659 0.0
H1037 H 0.87038 0.15807 0.45183 0.0
H1038 H 0.92943 0.06286 0.46408 0.0
H1039 H 0.90606 0.09461 0.45782 0.0
H1040 H 0.94778 0.16071 0.41198 0.0
C1041 C 0.8729 0.19461 0.37615 0.0
C1042 C 0.88738 0.15914 0.44307 0.0
C1043 C 0.85233 0.19312 0.35223 0.0
C1044 C 0.9413 0.08404 0.4628 0.0
C1045 C 0.92797 0.10227 0.45967 0.0
C1046 C 0.93153 0.16085 0.42143 0.0
C1047 C 0.86752 0.17645 0.39759 0.0
C1048 C 0.89025 0.17059 0.41689 0.0
C1049 C 0.9424 0.12971 0.45666 0.0
C1050 C 0.92713 0.14727 0.44605 0.0
H1051 H 0.79856 0.14668 0.37383 0.0
H1052 H 0.8348 0.14625 0.41315 0.0
H1053 H 0.91611 0.18011 0.38662 0.0
H1054 H 1.00534 0.12828 0.46104 0.0
H1055 H 0.98206 0.16003 0.45607 0.0
C1056 C 0.83459 0.83482 0.28596 0.0
C1057 C 0.8063 0.8268 0.27515 0.0
C1058 C 0.84714 0.85243 0.3099 0.0
C1059 C 0.84861 0.9003 0.35872 0.0
H1060 H 0.86962 0.8542 0.41583 0.0
C1061 C 0.92648 0.95098 0.45503 0.0
C1062 C 0.94935 0.94462 0.45473 0.0
C1063 C 0.90028 0.93275 0.44279 0.0
C1064 C 0.86336 0.86717 0.40033 0.0
H1065 H 0.76942 0.83292 0.27772 0.0
H1066 H 0.7917 0.86451 0.3193 0.0
H1067 H 0.843 0.83484 0.36845 0.0
H1068 H 0.96356 0.91394 0.44432 0.0
H1069 H 0.91805 0.88227 0.42212 0.0
H1070 H 0.87081 0.93307 0.38943 0.0
C1071 C 0.804 0.85709 0.30957 0.0
C1072 C 0.84841 0.85619 0.37329 0.0
C1073 C 0.79142 0.83934 0.28574 0.0
C1074 C 0.94594 0.919 0.4447 0.0
C1075 C 0.91981 0.90081 0.43233 0.0
C1076 C 0.86379 0.91137 0.3857 0.0
C1077 C 0.83141 0.86213 0.32276 0.0
C1078 C 0.84232 0.87302 0.35208 0.0
C1079 C 0.89696 0.90839 0.42942 0.0
C1080 C 0.87273 0.89517 0.40619 0.0
H1081 H 0.8462 0.82491 0.27833 0.0
H1082 H 0.86847 0.85644 0.31991 0.0
H1083 H 0.84366 0.91337 0.34254 0.0
H1084 H 0.92899 0.9711 0.46165 0.0
H1085 H 0.88301 0.93899 0.44096 0.0
C1086 C 0.18551 0.86948 0.32047 0.0
C1087 C 0.1781 0.84176 0.31443 0.0
C1088 C 0.17994 0.87833 0.34411 0.0
C1089 C 0.13137 0.85712 0.38827 0.0
H1090 H 0.18185 0.9214 0.43445 0.0
C1091 C 0.09481 0.90841 0.46353 0.0
C1092 C 0.10269 0.93651 0.46112 0.0
C1093 C 0.10796 0.89417 0.45277 0.0
C1094 C 0.16752 0.90341 0.42176 0.0
H1095 H 0.15977 0.80151 0.32855 0.0
H1096 H 0.14966 0.81709 0.36995 0.0
H1097 H 0.19765 0.90132 0.40106 0.0
H1098 H 0.13087 0.97171 0.44585 0.0
H1099 H 0.15333 0.94705 0.42687 0.0
H1100 H 0.10075 0.86009 0.40748 0.0
C1101 C 0.15982 0.83188 0.35637 0.0
C1102 C 0.1766 0.89192 0.40274 0.0
C1103 C 0.16567 0.82302 0.33283 0.0
C1104 C 0.12467 0.95019 0.44874 0.0
C1105 C 0.13762 0.93598 0.43781 0.0
C1106 C 0.12219 0.86878 0.40707 0.0
C1107 C 0.16669 0.85961 0.36203 0.0
C1108 C 0.15839 0.86914 0.38526 0.0
C1109 C 0.129 0.90774 0.43907 0.0
C1110 C 0.13997 0.89256 0.42336 0.0
H1111 H 0.19542 0.88429 0.30675 0.0
H1112 H 0.18517 0.89982 0.34782 0.0
H1113 H 0.11686 0.83968 0.37485 0.0
H1114 H 0.07808 0.8973 0.47316 0.0
H1115 H 0.10111 0.87246 0.45444 0.0
C1116 C 0.17648 0.81769 0.63426 0.0
C1117 C 0.20511 0.82838 0.63784 0.0
C1118 C 0.15944 0.82007 0.60883 0.0
C1119 C 0.1651 0.87493 0.56803 0.0
H1120 H 0.09045 0.83371 0.52819 0.0
C1121 C 0.09254 0.93004 0.53223 0.0
C1122 C 0.06565 0.9166 0.53486 0.0
C1123 C 0.10954 0.91577 0.53259 0.0
C1124 C 0.11121 0.84557 0.53931 0.0
H1125 H 0.23786 0.84574 0.61604 0.0
H1126 H 0.20802 0.85139 0.57217 0.0
H1127 H 0.12043 0.81007 0.55051 0.0
H1128 H 0.03523 0.87802 0.54032 0.0
H1129 H 0.06552 0.85333 0.54384 0.0
H1130 H 0.1556 0.91008 0.56105 0.0
C1131 C 0.19894 0.841 0.58901 0.0
C1132 C 0.12843 0.83198 0.55154 0.0
C1133 C 0.21598 0.8382 0.61429 0.0
C1134 C 0.05587 0.88866 0.53784 0.0
C1135 C 0.07325 0.8745 0.53945 0.0
C1136 C 0.14773 0.88842 0.55682 0.0
C1137 C 0.17081 0.83351 0.58683 0.0
C1138 C 0.15519 0.84662 0.56676 0.0
C1139 C 0.10048 0.88794 0.5372 0.0
C1140 C 0.12019 0.87389 0.5433 0.0
H1141 H 0.16725 0.81 0.65183 0.0
H1142 H 0.13778 0.8144 0.6077 0.0
H1143 H 0.18553 0.88665 0.58023 0.0
H1144 H 0.10044 0.95166 0.52993 0.0
H1145 H 0.12993 0.92681 0.52971 0.0
C1146 C 0.23694 0.15919 0.69769 0.0
C1147 C 0.22386 0.16639 0.71608 0.0
C1148 C 0.2223 0.13776 0.67781 0.0
C1149 C 0.15173 0.11509 0.63967 0.0
H1150 H 0.17573 0.07974 0.58854 0.0
C1151 C 0.0795 0.07696 0.53835 0.0
C1152 C 0.07332 0.04924 0.53453 0.0
C1153 C 0.10549 0.09343 0.55333 0.0
C1154 C 0.16882 0.08964 0.60259 0.0
H1155 H 0.18785 0.15347 0.73314 0.0
H1156 H 0.16238 0.11493 0.69921 0.0
H1157 H 0.20356 0.09391 0.63669 0.0
H1158 H 0.08945 0.01726 0.53935 0.0
H1159 H 0.13391 0.04523 0.56775 0.0
H1160 H 0.1166 0.10996 0.60674 0.0
C1161 C 0.18344 0.12683 0.69892 0.0
C1162 C 0.18465 0.0976 0.63019 0.0
C1163 C 0.198 0.14875 0.71851 0.0
C1164 C 0.09404 0.0387 0.54239 0.0
C1165 C 0.11963 0.05488 0.55849 0.0
C1166 C 0.13586 0.10688 0.61246 0.0
C1167 C 0.19452 0.12313 0.67654 0.0
C1168 C 0.17622 0.11042 0.64903 0.0
C1169 C 0.12452 0.08173 0.56643 0.0
C1170 C 0.14414 0.09409 0.59348 0.0
H1171 H 0.2575 0.17193 0.69651 0.0
H1172 H 0.23181 0.13518 0.66139 0.0
H1173 H 0.14494 0.12576 0.65309 0.0
H1174 H 0.06363 0.08536 0.53225 0.0
H1175 H 0.10925 0.11445 0.55797 0.0
C1176 C 0.87397 0.17366 0.66661 0.0
C1177 C 0.84899 0.16224 0.67451 0.0
C1178 C 0.87767 0.16319 0.64267 0.0
C1179 C 0.8577 0.09962 0.60607 0.0
H1180 H 0.89009 0.14044 0.54739 0.0
C1181 C 0.89185 0.04704 0.53175 0.0
C1182 C 0.91764 0.06155 0.52619 0.0
C1183 C 0.87781 0.06034 0.54218 0.0
C1184 C 0.88123 0.12877 0.56372 0.0
H1185 H 0.80798 0.13197 0.66371 0.0
H1186 H 0.81476 0.11286 0.62213 0.0
H1187 H 0.87702 0.16296 0.58139 0.0
H1188 H 0.94708 0.10211 0.52435 0.0
H1189 H 0.92407 0.12483 0.54521 0.0
H1190 H 0.8638 0.06609 0.59058 0.0
C1191 C 0.83126 0.13008 0.63419 0.0
C1192 C 0.87359 0.14164 0.58298 0.0
C1193 C 0.82741 0.14088 0.65784 0.0
C1194 C 0.92788 0.08997 0.52938 0.0
C1195 C 0.91427 0.10319 0.54084 0.0
C1196 C 0.86589 0.08693 0.58735 0.0
C1197 C 0.85655 0.14092 0.62671 0.0
C1198 C 0.86202 0.12716 0.60442 0.0
C1199 C 0.88961 0.08837 0.54853 0.0
C1200 C 0.87806 0.10138 0.56609 0.0
H1201 H 0.89071 0.19031 0.67927 0.0
H1202 H 0.89742 0.17164 0.6374 0.0
H1203 H 0.84925 0.0882 0.62279 0.0
H1204 H 0.88298 0.0252 0.5299 0.0
H1205 H 0.85832 0.04832 0.54674 0.0
C1206 C 0.8455 0.77663 0.70791 0.0
C1207 C 0.84005 0.78911 0.72952 0.0
C1208 C 0.86651 0.79108 0.69502 0.0
C1209 C 0.92225 0.85637 0.69247 0.0
H1210 H 0.88028 0.85242 0.61513 0.0
C1211 C 0.95299 0.94167 0.6165 0.0
C1212 C 0.94832 0.93431 0.5878 0.0
C1213 C 0.94326 0.92216 0.63527 0.0
C1214 C 0.89264 0.85349 0.6364 0.0
H1215 H 0.85496 0.82478 0.75768 0.0
H1216 H 0.89114 0.85063 0.73436 0.0
H1217 H 0.86133 0.81967 0.6476 0.0
H1218 H 0.93003 0.90098 0.55609 0.0
H1219 H 0.91369 0.86684 0.58884 0.0
H1220 H 0.95352 0.89056 0.68109 0.0
C1221 C 0.87917 0.82966 0.72743 0.0
C1222 C 0.88177 0.83464 0.65504 0.0
C1223 C 0.85825 0.81499 0.7406 0.0
C1224 C 0.93357 0.90725 0.57806 0.0
C1225 C 0.92423 0.8877 0.59687 0.0
C1226 C 0.93338 0.87514 0.67359 0.0
C1227 C 0.88214 0.81834 0.70331 0.0
C1228 C 0.89624 0.8361 0.68333 0.0
C1229 C 0.92903 0.8949 0.6257 0.0
C1230 C 0.91842 0.87413 0.64547 0.0
H1231 H 0.83239 0.75627 0.69967 0.0
H1232 H 0.8689 0.78172 0.67689 0.0
H1233 H 0.93371 0.8579 0.71424 0.0
H1234 H 0.96432 0.96246 0.6245 0.0
H1235 H 0.94676 0.92847 0.65721 0.0
C1236 C 0.32825 0.13962 0.15926 0.0
C1237 C 0.31726 0.15393 0.13818 0.0
C1238 C 0.34608 0.1276 0.15416 0.0
C1239 C 0.39136 0.12885 0.10672 0.0
H1240 H 0.37871 0.05506 0.12796 0.0
C1241 C 0.46167 0.07309 0.09115 0.0
C1242 C 0.44885 0.04587 0.08102 0.0
C1243 C 0.44669 0.08685 0.09947 0.0
C1244 C 0.38244 0.07563 0.12177 0.0
H1245 H 0.31736 0.168 0.09584 0.0
H1246 H 0.34828 0.14718 0.08697 0.0
H1247 H 0.35135 0.07865 0.14046 0.0
H1248 H 0.41017 0.01171 0.07213 0.0
H1249 H 0.38403 0.03579 0.08616 0.0
H1250 H 0.4219 0.12562 0.08734 0.0
C1251 C 0.34324 0.14513 0.10742 0.0
C1252 C 0.36699 0.08927 0.12927 0.0
C1253 C 0.32534 0.15691 0.11242 0.0
C1254 C 0.42068 0.03274 0.07953 0.0
C1255 C 0.40573 0.04647 0.08791 0.0
C1256 C 0.40686 0.11524 0.09929 0.0
C1257 C 0.35352 0.12997 0.12802 0.0
C1258 C 0.37112 0.11599 0.12165 0.0
C1259 C 0.41853 0.07371 0.09797 0.0
C1260 C 0.40249 0.0884 0.10656 0.0
H1261 H 0.32229 0.13688 0.17926 0.0
H1262 H 0.35386 0.11628 0.1706 0.0
H1263 H 0.39523 0.14947 0.10068 0.0
H1264 H 0.48325 0.0839 0.09235 0.0
H1265 H 0.45726 0.10775 0.10733 0.0
C1266 C 0.83036 0.32981 0.23444 0.0
C1267 C 0.8055 0.30902 0.2222 0.0
C1268 C 0.84753 0.34507 0.2174 0.0
C1269 C 0.86114 0.34077 0.14676 0.0
H1270 H 0.90699 0.41633 0.1644 0.0
C1271 C 0.93187 0.40401 0.07579 0.0
C1272 C 0.95771 0.42243 0.08981 0.0
C1273 C 0.9123 0.39029 0.09104 0.0
C1274 C 0.89455 0.39512 0.15938 0.0
H1275 H 0.77731 0.29056 0.18243 0.0
H1276 H 0.80703 0.31673 0.15284 0.0
H1277 H 0.87419 0.39352 0.19264 0.0
H1278 H 0.9836 0.44025 0.13089 0.0
H1279 H 0.9498 0.41607 0.15741 0.0
H1280 H 0.88171 0.34226 0.11372 0.0
C1281 C 0.81407 0.32048 0.17558 0.0
C1282 C 0.87571 0.38205 0.17558 0.0
C1283 C 0.79707 0.30524 0.1926 0.0
C1284 C 0.96383 0.4263 0.11941 0.0
C1285 C 0.94434 0.41261 0.13461 0.0
C1286 C 0.88007 0.35379 0.13066 0.0
C1287 C 0.83984 0.34015 0.18776 0.0
C1288 C 0.85896 0.3546 0.16969 0.0
C1289 C 0.91819 0.39474 0.12062 0.0
C1290 C 0.89723 0.38106 0.13696 0.0
H1291 H 0.83701 0.33348 0.25722 0.0
H1292 H 0.86725 0.36 0.22756 0.0
H1293 H 0.84869 0.31963 0.14162 0.0
H1294 H 0.92649 0.40069 0.05296 0.0
H1295 H 0.89232 0.37678 0.07956 0.0
C1296 C 0.68701 0.76303 0.1831 0.0
C1297 C 0.71453 0.7733 0.19819 0.0
C1298 C 0.67469 0.77997 0.16801 0.0
C1299 C 0.68159 0.8522 0.16498 0.0
H1300 H 0.62313 0.82516 0.09735 0.0
C1301 C 0.60785 0.9086 0.12005 0.0
C1302 C 0.59772 0.90792 0.09049 0.0
C1303 C 0.62341 0.89309 0.13206 0.0
C1304 C 0.6396 0.83331 0.11601 0.0
H1305 H 0.75089 0.8097 0.20902 0.0
H1306 H 0.72966 0.83936 0.18198 0.0
H1307 H 0.64887 0.79737 0.11839 0.0
H1308 H 0.59689 0.89025 0.05059 0.0
H1309 H 0.62381 0.86339 0.0714 0.0
H1310 H 0.67268 0.88842 0.16219 0.0
C1311 C 0.71742 0.81808 0.18202 0.0
C1312 C 0.65422 0.81711 0.12838 0.0
C1313 C 0.72978 0.801 0.1972 0.0
C1314 C 0.60381 0.89116 0.07342 0.0
C1315 C 0.61936 0.87564 0.08544 0.0
C1316 C 0.66704 0.86849 0.1525 0.0
C1317 C 0.68948 0.80789 0.16759 0.0
C1318 C 0.67528 0.82613 0.15325 0.0
C1319 C 0.6294 0.87627 0.11498 0.0
C1320 C 0.64562 0.85923 0.12792 0.0
H1321 H 0.67463 0.74185 0.18379 0.0
H1322 H 0.65312 0.77123 0.1577 0.0
H1323 H 0.69737 0.85987 0.18426 0.0
H1324 H 0.60326 0.92069 0.13413 0.0
H1325 H 0.6302 0.89386 0.15489 0.0
C1326 C 0.2174 0.73465 0.14119 0.0
C1327 C 0.22845 0.72063 0.16268 0.0
C1328 C 0.20191 0.72159 0.11485 0.0
C1329 C 0.1509 0.67617 0.07814 0.0
H1330 H 0.17204 0.62886 0.03761 0.0
C1331 C 0.10053 0.56166 0.03739 0.0
C1332 C 0.07391 0.55934 0.02346 0.0
C1333 C 0.12176 0.58689 0.04235 0.0
C1334 C 0.16584 0.6422 0.0484 0.0
H1335 H 0.23427 0.68269 0.17209 0.0
H1336 H 0.20817 0.66038 0.12602 0.0
H1337 H 0.20716 0.66474 0.07074 0.0
H1338 H 0.04865 0.58117 0.00236 0.0
H1339 H 0.0859 0.6258 0.01165 0.0
H1340 H 0.10944 0.65214 0.058 0.0
C1341 C 0.21093 0.68128 0.1298 0.0
C1342 C 0.18595 0.66274 0.06728 0.0
C1343 C 0.22576 0.69406 0.15631 0.0
C1344 C 0.06912 0.58253 0.01305 0.0
C1345 C 0.09037 0.608 0.01845 0.0
C1346 C 0.13073 0.65543 0.05947 0.0
C1347 C 0.19816 0.69461 0.10914 0.0
C1348 C 0.17849 0.67893 0.08342 0.0
C1349 C 0.11676 0.61051 0.03397 0.0
C1350 C 0.13791 0.63722 0.0457 0.0
H1351 H 0.22009 0.75549 0.14492 0.0
H1352 H 0.19242 0.73236 0.09917 0.0
H1353 H 0.14462 0.68835 0.09042 0.0
H1354 H 0.1047 0.54404 0.04556 0.0
H1355 H 0.14167 0.58801 0.05466 0.0
C1356 C 0.34131 0.77854 0.82432 0.0
C1357 C 0.31322 0.76507 0.82243 0.0
C1358 C 0.35895 0.79132 0.84996 0.0
C1359 C 0.35465 0.82529 0.91146 0.0
H1360 H 0.4333 0.84386 0.93056 0.0
C1361 C 0.46196 0.91434 0.97622 0.0
C1362 C 0.45658 0.93636 0.96311 0.0
C1363 C 0.44306 0.88784 0.96868 0.0
C1364 C 0.41133 0.83852 0.92608 0.0
H1365 H 0.2822 0.75122 0.84674 0.0
H1366 H 0.31293 0.77355 0.89144 0.0
H1367 H 0.40376 0.80428 0.89901 0.0
H1368 H 0.42658 0.94829 0.93362 0.0
H1369 H 0.39357 0.90252 0.92097 0.0
H1370 H 0.36234 0.86031 0.93737 0.0
C1371 C 0.32127 0.77492 0.87299 0.0
C1372 C 0.39441 0.81599 0.90773 0.0
C1373 C 0.30367 0.76212 0.84735 0.0
C1374 C 0.43129 0.93166 0.94396 0.0
C1375 C 0.41228 0.9054 0.93689 0.0
C1376 C 0.37156 0.84782 0.92971 0.0
C1377 C 0.34888 0.79077 0.8743 0.0
C1378 C 0.36599 0.8099 0.8991 0.0
C1379 C 0.41828 0.8831 0.94838 0.0
C1380 C 0.40018 0.85546 0.93607 0.0
H1381 H 0.3494 0.781 0.80565 0.0
H1382 H 0.38004 0.80338 0.85007 0.0
H1383 H 0.33289 0.82132 0.90532 0.0
H1384 H 0.48139 0.91746 0.99096 0.0
H1385 H 0.44821 0.87105 0.97793 0.0
C1386 C 0.17334 0.31345 0.87511 0.0
C1387 C 0.1731 0.30835 0.84683 0.0
C1388 C 0.16288 0.33214 0.88202 0.0
C1389 C 0.14295 0.38996 0.85748 0.0
H1390 H 0.09418 0.36389 0.90811 0.0
C1391 C 0.07724 0.44814 0.8815 0.0
C1392 C 0.07255 0.44721 0.90886 0.0
C1393 C 0.09044 0.43232 0.87346 0.0
C1394 C 0.10807 0.37179 0.89434 0.0
H1395 H 0.16325 0.32051 0.80389 0.0
H1396 H 0.14527 0.35369 0.81613 0.0
H1397 H 0.11634 0.33544 0.89502 0.0
H1398 H 0.07825 0.4287 0.94917 0.0
H1399 H 0.10217 0.40224 0.93567 0.0
H1400 H 0.13492 0.42655 0.85715 0.0
C1401 C 0.15338 0.34284 0.83286 0.0
C1402 C 0.12073 0.35536 0.88673 0.0
C1403 C 0.16375 0.32387 0.82586 0.0
C1404 C 0.08171 0.43025 0.92802 0.0
C1405 C 0.09512 0.41469 0.92009 0.0
C1406 C 0.13043 0.40659 0.86533 0.0
C1407 C 0.1521 0.34655 0.86093 0.0
C1408 C 0.13844 0.36425 0.86834 0.0
C1409 C 0.09948 0.41528 0.89262 0.0
C1410 C 0.11287 0.39775 0.88397 0.0
H1411 H 0.18112 0.30251 0.89198 0.0
H1412 H 0.16288 0.33504 0.90395 0.0
H1413 H 0.15661 0.39746 0.84342 0.0
H1414 H 0.0709 0.46125 0.86628 0.0
H1415 H 0.09315 0.43317 0.85204 0.0
C1416 C 0.68299 0.17812 0.76091 0.0
C1417 C 0.71015 0.19619 0.76994 0.0
C1418 C 0.66918 0.16301 0.78045 0.0
C1419 C 0.67322 0.13759 0.85106 0.0
H1420 H 0.60869 0.15492 0.84733 0.0
C1421 C 0.6009 0.09631 0.92776 0.0
C1422 C 0.57324 0.08423 0.91331 0.0
C1423 C 0.62041 0.11216 0.91338 0.0
C1424 C 0.62661 0.14985 0.84862 0.0
H1425 H 0.74455 0.2115 0.80631 0.0
H1426 H 0.7206 0.18459 0.84027 0.0
H1427 H 0.63767 0.1746 0.81458 0.0
H1428 H 0.54409 0.0801 0.87302 0.0
H1429 H 0.57781 0.10771 0.84819 0.0
H1430 H 0.6615 0.11208 0.88465 0.0
C1431 C 0.7101 0.18215 0.81808 0.0
C1432 C 0.64308 0.161 0.82983 0.0
C1433 C 0.72381 0.19755 0.79857 0.0
C1434 C 0.56526 0.08909 0.8847 0.0
C1435 C 0.58458 0.10505 0.87051 0.0
C1436 C 0.65648 0.12614 0.86981 0.0
C1437 C 0.68235 0.1657 0.80932 0.0
C1438 C 0.66609 0.15445 0.8304 0.0
C1439 C 0.61238 0.11645 0.88452 0.0
C1440 C 0.63262 0.13166 0.86821 0.0
H1441 H 0.67203 0.17671 0.73895 0.0
H1442 H 0.64778 0.15019 0.77324 0.0
H1443 H 0.69109 0.13256 0.85199 0.0
H1444 H 0.60757 0.09279 0.94985 0.0
H1445 H 0.64171 0.12086 0.9247 0.0
C1446 C 0.78554 0.68256 0.80368 0.0
C1447 C 0.79509 0.70745 0.79131 0.0
C1448 C 0.80377 0.67138 0.81945 0.0
C1449 C 0.87377 0.67181 0.82732 0.0
H1450 H 0.85719 0.62882 0.89133 0.0
C1451 C 0.92725 0.59653 0.87069 0.0
C1452 C 0.93307 0.59313 0.90008 0.0
C1453 C 0.91178 0.61215 0.85878 0.0
C1454 C 0.86243 0.64094 0.87371 0.0
H1455 H 0.8315 0.74039 0.78602 0.0
H1456 H 0.86368 0.72095 0.81394 0.0
H1457 H 0.82908 0.65448 0.87015 0.0
H1458 H 0.92667 0.60385 0.93977 0.0
H1459 H 0.90045 0.6315 0.91922 0.0
H1460 H 0.90731 0.65844 0.83108 0.0
C1461 C 0.84191 0.71005 0.81141 0.0
C1462 C 0.84604 0.6555 0.8613 0.0
C1463 C 0.82352 0.72141 0.79575 0.0
C1464 C 0.92296 0.60606 0.91714 0.0
C1465 C 0.90754 0.62173 0.90523 0.0
C1466 C 0.89021 0.65723 0.83976 0.0
C1467 C 0.83223 0.6846 0.82309 0.0
C1468 C 0.85125 0.67096 0.83773 0.0
C1469 C 0.90164 0.62501 0.87584 0.0
C1470 C 0.88467 0.64136 0.86303 0.0
H1471 H 0.76374 0.67117 0.80025 0.0
H1472 H 0.79537 0.65166 0.82765 0.0
H1473 H 0.87831 0.68318 0.80903 0.0
H1474 H 0.93492 0.58736 0.85675 0.0
H1475 H 0.90748 0.61381 0.83606 0.0
C1476 C 0.20627 0.27867 0.19431 0.0
C1477 C 0.23464 0.29358 0.20246 0.0
C1478 C 0.18834 0.29068 0.17878 0.0
C1479 C 0.18557 0.35911 0.1672 0.0
H1480 H 0.12306 0.32448 0.10512 0.0
C1481 C 0.12543 0.42074 0.10282 0.0
C1482 C 0.09702 0.40818 0.09159 0.0
C1483 C 0.14127 0.40566 0.11528 0.0
C1484 C 0.1402 0.33444 0.12269 0.0
H1485 H 0.26638 0.33217 0.19979 0.0
H1486 H 0.23559 0.3528 0.17288 0.0
H1487 H 0.15154 0.29946 0.12821 0.0
H1488 H 0.06324 0.36938 0.08512 0.0
H1489 H 0.09064 0.34327 0.10703 0.0
H1490 H 0.17427 0.39378 0.16246 0.0
C1491 C 0.22692 0.33208 0.17859 0.0
C1492 C 0.1566 0.32001 0.13589 0.0
C1493 C 0.24466 0.32015 0.19381 0.0
C1494 C 0.08507 0.3799 0.09308 0.0
C1495 C 0.1009 0.36481 0.10572 0.0
C1496 C 0.16912 0.37339 0.15426 0.0
C1497 C 0.19844 0.3179 0.17154 0.0
C1498 C 0.17978 0.33231 0.15807 0.0
C1499 C 0.1293 0.37743 0.11722 0.0
C1500 C 0.14633 0.36151 0.1315 0.0
H1501 H 0.19785 0.25829 0.20099 0.0
H1502 H 0.16653 0.2791 0.17368 0.0
H1503 H 0.20282 0.36912 0.18467 0.0
H1504 H 0.13563 0.44233 0.10169 0.0
H1505 H 0.16309 0.41628 0.12311 0.0
C1506 C 0.193 0.669 0.75756 0.0
C1507 C 0.21804 0.69037 0.76744 0.0
C1508 C 0.17866 0.65366 0.77677 0.0
C1509 C 0.17349 0.65881 0.85086 0.0
H1510 H 0.12446 0.5841 0.83391 0.0
C1511 C 0.1028 0.59608 0.92318 0.0
C1512 C 0.0759 0.58066 0.90853 0.0
C1513 C 0.12283 0.60928 0.90823 0.0
C1514 C 0.13799 0.60503 0.83885 0.0
H1515 H 0.24989 0.70944 0.80486 0.0
H1516 H 0.22514 0.68302 0.83825 0.0
H1517 H 0.15534 0.60576 0.80343 0.0
H1518 H 0.04861 0.56804 0.86683 0.0
H1519 H 0.08326 0.59107 0.84104 0.0
H1520 H 0.15574 0.65805 0.88614 0.0
C1521 C 0.21564 0.67903 0.81584 0.0
C1522 C 0.15565 0.61747 0.82135 0.0
C1523 C 0.22975 0.69445 0.79666 0.0
C1524 C 0.06919 0.57954 0.8788 0.0
C1525 C 0.08911 0.59256 0.86397 0.0
C1526 C 0.15579 0.64635 0.86839 0.0
C1527 C 0.18953 0.65897 0.80621 0.0
C1528 C 0.17308 0.64475 0.82665 0.0
C1529 C 0.11625 0.60709 0.87845 0.0
C1530 C 0.13733 0.61955 0.86209 0.0
H1531 H 0.18391 0.66506 0.73505 0.0
H1532 H 0.15855 0.63844 0.76851 0.0
H1533 H 0.18671 0.67979 0.85573 0.0
H1534 H 0.10856 0.59731 0.94611 0.0
H1535 H 0.1436 0.62046 0.91994 0.0
C1536 C 0.2905 0.19 0.792 0.0
C1537 C 0.30594 0.21784 0.79185 0.0
C1538 C 0.30216 0.17274 0.80818 0.0
C1539 C 0.36462 0.17404 0.86434 0.0
H1540 H 0.34891 0.10353 0.83036 0.0
C1541 C 0.42056 0.10404 0.91868 0.0
C1542 C 0.4268 0.08744 0.90158 0.0
C1543 C 0.40386 0.11853 0.9068 0.0
C1544 C 0.35383 0.12328 0.84009 0.0
H1545 H 0.34521 0.24918 0.80895 0.0
H1546 H 0.36535 0.21982 0.83663 0.0
H1547 H 0.32273 0.13084 0.80832 0.0
H1548 H 0.4204 0.07395 0.85801 0.0
H1549 H 0.39161 0.09912 0.83745 0.0
H1550 H 0.39665 0.16732 0.89512 0.0
C1551 C 0.34419 0.21095 0.82501 0.0
C1552 C 0.33836 0.13884 0.82764 0.0
C1553 C 0.33265 0.22797 0.80896 0.0
C1554 C 0.41574 0.08595 0.87212 0.0
C1555 C 0.39908 0.10049 0.86023 0.0
C1556 C 0.38023 0.15867 0.87655 0.0
C1557 C 0.32953 0.1829 0.82445 0.0
C1558 C 0.34376 0.16473 0.83931 0.0
C1559 C 0.39281 0.11707 0.87734 0.0
C1560 C 0.37533 0.13309 0.86456 0.0
H1561 H 0.27008 0.18126 0.77858 0.0
H1562 H 0.28994 0.15136 0.80733 0.0
H1563 H 0.36926 0.19353 0.8745 0.0
H1564 H 0.42821 0.10558 0.94144 0.0
H1565 H 0.39932 0.1306 0.92094 0.0
C1566 C 0.81216 0.27246 0.84765 0.0
C1567 C 0.79189 0.27848 0.82792 0.0
C1568 C 0.82514 0.28775 0.87328 0.0
C1569 C 0.85271 0.32368 0.92691 0.0
H1570 H 0.86679 0.39856 0.90944 0.0
C1571 C 0.93838 0.42998 0.9814 0.0
C1572 C 0.95582 0.43891 0.96274 0.0
C1573 C 0.91447 0.40674 0.97412 0.0
C1574 C 0.8626 0.37775 0.91502 0.0
H1575 H 0.76579 0.30198 0.82188 0.0
H1576 H 0.78723 0.32759 0.86704 0.0
H1577 H 0.82847 0.36327 0.87983 0.0
H1578 H 0.96301 0.43009 0.92285 0.0
H1579 H 0.92146 0.38963 0.91024 0.0
H1580 H 0.88907 0.33895 0.96068 0.0
C1581 C 0.79461 0.31236 0.86199 0.0
C1582 C 0.84046 0.35735 0.89812 0.0
C1583 C 0.78226 0.29763 0.836 0.0
C1584 C 0.94987 0.42359 0.93756 0.0
C1585 C 0.92624 0.40046 0.93041 0.0
C1586 C 0.87515 0.34426 0.94374 0.0
C1587 C 0.81746 0.3089 0.88014 0.0
C1588 C 0.83599 0.32994 0.90287 0.0
C1589 C 0.908 0.39232 0.9482 0.0
C1590 C 0.88082 0.37132 0.93701 0.0
H1591 H 0.81922 0.25709 0.84274 0.0
H1592 H 0.84248 0.28416 0.8866 0.0
H1593 H 0.84953 0.30286 0.93168 0.0
H1594 H 0.94217 0.44191 0.00052 0.0
H1595 H 0.90039 0.40093 0.98789 0.0
C1596 C 0.69743 0.85784 0.83056 0.0
C1597 C 0.7121 0.84759 0.85289 0.0
C1598 C 0.67888 0.869 0.83549 0.0
C1599 C 0.63913 0.87163 0.8877 0.0
H1600 H 0.64059 0.93943 0.85487 0.0
C1601 C 0.58837 0.93662 0.92796 0.0
C1602 C 0.57587 0.95113 0.90846 0.0
C1603 C 0.60368 0.9232 0.91982 0.0
C1604 C 0.63956 0.9203 0.86392 0.0
H1605 H 0.71777 0.83981 0.89753 0.0
H1606 H 0.68599 0.85946 0.90619 0.0
H1607 H 0.66856 0.91668 0.84235 0.0
H1608 H 0.5699 0.96271 0.86488 0.0
H1609 H 0.59557 0.93838 0.85042 0.0
H1610 H 0.61025 0.87513 0.90931 0.0
C1611 C 0.68859 0.85888 0.88484 0.0
C1612 C 0.65565 0.90723 0.8567 0.0
C1613 C 0.70707 0.84784 0.87993 0.0
C1614 C 0.57887 0.95151 0.88045 0.0
C1615 C 0.59401 0.93786 0.87224 0.0
C1616 C 0.62301 0.8846 0.89482 0.0
C1617 C 0.67446 0.8699 0.8628 0.0
C1618 C 0.65588 0.88287 0.86876 0.0
C1619 C 0.60673 0.92359 0.89183 0.0
C1620 C 0.62319 0.90928 0.88329 0.0
H1621 H 0.70093 0.85803 0.8095 0.0
H1622 H 0.66812 0.87704 0.81796 0.0
H1623 H 0.63842 0.85267 0.89704 0.0
H1624 H 0.58628 0.93548 0.94961 0.0
H1625 H 0.61344 0.9128 0.93568 0.0
C1626 C 0.84742 0.68029 0.11093 0.0
C1627 C 0.84794 0.68627 0.13905 0.0
C1628 C 0.85912 0.66238 0.10484 0.0
C1629 C 0.88267 0.6076 0.13172 0.0
H1630 H 0.93067 0.63395 0.0803 0.0
C1631 C 0.9284 0.54122 0.08386 0.0
C1632 C 0.95602 0.55336 0.08259 0.0
C1633 C 0.91483 0.55658 0.09193 0.0
C1634 C 0.9175 0.62637 0.09484 0.0
H1635 H 0.85967 0.67655 0.18269 0.0
H1636 H 0.87974 0.64468 0.17187 0.0
H1637 H 0.90705 0.66157 0.09252 0.0
H1638 H 0.99099 0.59114 0.08876 0.0
H1639 H 0.96738 0.61792 0.10307 0.0
H1640 H 0.89334 0.57239 0.13408 0.0
C1641 C 0.87046 0.65424 0.15464 0.0
C1642 C 0.90374 0.64206 0.10161 0.0
C1643 C 0.85889 0.67244 0.1608 0.0
C1644 C 0.96979 0.58115 0.08975 0.0
C1645 C 0.9562 0.59653 0.09768 0.0
C1646 C 0.89634 0.59176 0.12478 0.0
C1647 C 0.87136 0.64967 0.12665 0.0
C1648 C 0.88612 0.63284 0.12004 0.0
C1649 C 0.92855 0.58444 0.09876 0.0
C1650 C 0.91394 0.60104 0.1063 0.0
H1651 H 0.83842 0.6899 0.09354 0.0
H1652 H 0.8589 0.65875 0.083 0.0
H1653 H 0.86912 0.59995 0.14588 0.0
H1654 H 0.91729 0.51977 0.07875 0.0
H1655 H 0.89347 0.54674 0.09233 0.0
C1656 C 0.33994 0.82406 0.23492 0.0
C1657 C 0.314 0.80454 0.22349 0.0
C1658 C 0.35485 0.84108 0.21724 0.0
C1659 C 0.35417 0.86467 0.14492 0.0
H1660 H 0.42551 0.85849 0.1608 0.0
C1661 C 0.42945 0.9022 0.07071 0.0
C1662 C 0.45648 0.91778 0.08483 0.0
C1663 C 0.41027 0.88794 0.08616 0.0
C1664 C 0.40575 0.86059 0.15618 0.0
H1665 H 0.28264 0.78839 0.18486 0.0
H1666 H 0.30868 0.81814 0.15396 0.0
H1667 H 0.39483 0.83837 0.19169 0.0
H1668 H 0.48482 0.93009 0.126 0.0
H1669 H 0.45164 0.90534 0.15271 0.0
H1670 H 0.36544 0.88713 0.10932 0.0
C1671 C 0.31733 0.82054 0.1766 0.0
C1672 C 0.38826 0.84922 0.17397 0.0
C1673 C 0.3024 0.80349 0.19432 0.0
C1674 C 0.46417 0.91824 0.11449 0.0
C1675 C 0.44516 0.90396 0.12981 0.0
C1676 C 0.37186 0.87627 0.12709 0.0
C1677 C 0.34419 0.83854 0.18778 0.0
C1678 C 0.36248 0.85144 0.16879 0.0
C1679 C 0.41797 0.88886 0.1159 0.0
C1680 C 0.39798 0.87462 0.13285 0.0
H1681 H 0.34922 0.82524 0.25738 0.0
H1682 H 0.37537 0.85517 0.22642 0.0
H1683 H 0.33428 0.86644 0.14038 0.0
H1684 H 0.42295 0.90158 0.04784 0.0
H1685 H 0.38947 0.87625 0.07492 0.0
C1686 C 0.71934 0.23904 0.13937 0.0
C1687 C 0.70923 0.23648 0.16393 0.0
C1688 C 0.70216 0.22592 0.11368 0.0
C1689 C 0.62941 0.18363 0.07853 0.0
H1690 H 0.66292 0.13886 0.05229 0.0
C1691 C 0.56327 0.08261 0.01477 0.0
C1692 C 0.56968 0.06118 0.02812 0.0
C1693 C 0.5817 0.1094 0.02132 0.0
C1694 C 0.65328 0.1514 0.05905 0.0
H1695 H 0.67244 0.22135 0.17973 0.0
H1696 H 0.64261 0.19836 0.13534 0.0
H1697 H 0.69157 0.17905 0.0829 0.0
H1698 H 0.60085 0.05066 0.05741 0.0
H1699 H 0.63293 0.097 0.06865 0.0
H1700 H 0.59091 0.15466 0.05641 0.0
C1701 C 0.66381 0.21027 0.13576 0.0
C1702 C 0.66974 0.17466 0.07643 0.0
C1703 C 0.681 0.22338 0.16143 0.0
C1704 C 0.59539 0.06681 0.04678 0.0
C1705 C 0.61388 0.0934 0.05303 0.0
C1706 C 0.61293 0.16034 0.06113 0.0
C1707 C 0.67446 0.21015 0.11197 0.0
C1708 C 0.65788 0.19028 0.08761 0.0
C1709 C 0.60696 0.11511 0.04111 0.0
C1710 C 0.62459 0.1432 0.05245 0.0
H1711 H 0.74093 0.24967 0.14041 0.0
H1712 H 0.71094 0.22683 0.09563 0.0
H1713 H 0.61965 0.19552 0.08628 0.0
H1714 H 0.54344 0.07879 0.00056 0.0
H1715 H 0.5758 0.12567 0.01173 0.0
C1716 C 0.69526 0.68009 0.77955 0.0
C1717 C 0.69283 0.70268 0.76531 0.0
C1718 C 0.67477 0.66419 0.79239 0.0
C1719 C 0.61862 0.62897 0.80447 0.0
H1720 H 0.62436 0.66511 0.87493 0.0
C1721 C 0.56535 0.57088 0.88821 0.0
C1722 C 0.58206 0.57456 0.91577 0.0
C1723 C 0.57362 0.58852 0.86756 0.0
C1724 C 0.62238 0.65486 0.85523 0.0
H1725 H 0.66744 0.72638 0.75218 0.0
H1726 H 0.63139 0.69863 0.7757 0.0
H1727 H 0.64612 0.69132 0.83877 0.0
H1728 H 0.62007 0.60001 0.94373 0.0
H1729 H 0.63523 0.63065 0.90698 0.0
H1730 H 0.5962 0.59233 0.8212 0.0
C1731 C 0.64893 0.6931 0.77638 0.0
C1732 C 0.63444 0.66985 0.83449 0.0
C1733 C 0.66933 0.70879 0.76301 0.0
C1734 C 0.60698 0.59667 0.92255 0.0
C1735 C 0.61545 0.61428 0.90165 0.0
C1736 C 0.60632 0.61404 0.82499 0.0
C1737 C 0.6519 0.67105 0.79154 0.0
C1738 C 0.63332 0.6568 0.80943 0.0
C1739 C 0.59893 0.61009 0.87388 0.0
C1740 C 0.60886 0.62671 0.85094 0.0
H1741 H 0.71352 0.6754 0.78171 0.0
H1742 H 0.67749 0.64742 0.80434 0.0
H1743 H 0.61792 0.6186 0.78536 0.0
H1744 H 0.54566 0.55438 0.88253 0.0
H1745 H 0.56029 0.5851 0.8465 0.0
C1746 C 0.31893 0.6661 0.8759 0.0
C1747 C 0.32367 0.68016 0.85136 0.0
C1748 C 0.3409 0.66594 0.89765 0.0
C1749 C 0.40839 0.66938 0.89648 0.0
H1750 H 0.41226 0.64804 0.9739 0.0
C1751 C 0.48594 0.62409 0.9468 0.0
C1752 C 0.47532 0.60016 0.96011 0.0
C1753 C 0.4717 0.64142 0.94126 0.0
C1754 C 0.41143 0.6541 0.95232 0.0
H1755 H 0.35599 0.70987 0.83419 0.0
H1756 H 0.39287 0.71145 0.87289 0.0
H1757 H 0.37877 0.66808 0.95157 0.0
H1758 H 0.44278 0.57551 0.97931 0.0
H1759 H 0.41675 0.60518 0.96827 0.0
H1760 H 0.43939 0.65396 0.89616 0.0
C1761 C 0.37226 0.69892 0.87422 0.0
C1762 C 0.39241 0.66562 0.93964 0.0
C1763 C 0.3506 0.69811 0.85189 0.0
C1764 C 0.45103 0.59406 0.96898 0.0
C1765 C 0.43641 0.61113 0.96292 0.0
C1766 C 0.42712 0.65786 0.90899 0.0
C1767 C 0.36784 0.68086 0.89577 0.0
C1768 C 0.39053 0.67303 0.91146 0.0
C1769 C 0.44629 0.63458 0.94828 0.0
C1770 C 0.42861 0.64977 0.93687 0.0
H1771 H 0.29852 0.65348 0.87757 0.0
H1772 H 0.33677 0.6522 0.91442 0.0
H1773 H 0.40686 0.67386 0.87439 0.0
H1774 H 0.50498 0.62906 0.94026 0.0
H1775 H 0.48004 0.65964 0.93047 0.0
C1776 C 0.29652 0.33704 0.78878 0.0
C1777 C 0.30962 0.32244 0.77833 0.0
C1778 C 0.31178 0.35947 0.80736 0.0
C1779 C 0.34658 0.38482 0.86489 0.0
H1780 H 0.41511 0.4414 0.86019 0.0
C1781 C 0.43833 0.44149 0.95685 0.0
C1782 C 0.45309 0.46849 0.95263 0.0
C1783 C 0.41454 0.42687 0.93666 0.0
C1784 C 0.39573 0.42597 0.86159 0.0
H1785 H 0.34863 0.32012 0.77744 0.0
H1786 H 0.37565 0.3596 0.81039 0.0
H1787 H 0.38765 0.41071 0.81899 0.0
H1788 H 0.45332 0.50274 0.92717 0.0
H1789 H 0.41168 0.47733 0.89211 0.0
H1790 H 0.3554 0.39938 0.90799 0.0
C1791 C 0.35362 0.35392 0.80386 0.0
C1792 C 0.38024 0.40834 0.83815 0.0
C1793 C 0.33828 0.33148 0.78503 0.0
C1794 C 0.44227 0.48171 0.93036 0.0
C1795 C 0.41854 0.46726 0.91041 0.0
C1796 C 0.36228 0.40225 0.8885 0.0
C1797 C 0.34031 0.36738 0.81595 0.0
C1798 C 0.35569 0.38751 0.83972 0.0
C1799 C 0.40561 0.43938 0.91242 0.0
C1800 C 0.38706 0.42281 0.88704 0.0
H1801 H 0.27437 0.33031 0.78359 0.0
H1802 H 0.3012 0.36986 0.81608 0.0
H1803 H 0.32783 0.36859 0.86665 0.0
H1804 H 0.4465 0.4311 0.97405 0.0
H1805 H 0.40478 0.40533 0.93858 0.0
C1806 C 0.63924 0.32871 0.79969 0.0
C1807 C 0.66688 0.33267 0.80292 0.0
C1808 C 0.63078 0.33765 0.82103 0.0
C1809 C 0.65009 0.36321 0.89554 0.0
H1810 H 0.60114 0.40092 0.86507 0.0
C1811 C 0.61954 0.43409 0.95875 0.0
C1812 C 0.59191 0.43156 0.95034 0.0
C1813 C 0.62939 0.41872 0.94466 0.0
C1814 C 0.61454 0.39018 0.8739 0.0
H1815 H 0.70721 0.3474 0.83142 0.0
H1816 H 0.69245 0.36392 0.86881 0.0
H1817 H 0.61737 0.38033 0.83304 0.0
H1818 H 0.55271 0.40964 0.92147 0.0
H1819 H 0.56974 0.38254 0.89775 0.0
H1820 H 0.64743 0.3739 0.93667 0.0
C1821 C 0.67732 0.35363 0.84986 0.0
C1822 C 0.6238 0.37834 0.85557 0.0
C1823 C 0.68577 0.34434 0.8285 0.0
C1824 C 0.57401 0.41203 0.92889 0.0
C1825 C 0.58381 0.39666 0.91499 0.0
C1826 C 0.64084 0.37529 0.91405 0.0
C1827 C 0.64986 0.35109 0.84587 0.0
C1828 C 0.64123 0.36429 0.86609 0.0
C1829 C 0.61174 0.40067 0.92196 0.0
C1830 C 0.62257 0.38841 0.90324 0.0
H1831 H 0.62425 0.31915 0.78038 0.0
H1832 H 0.60934 0.33474 0.81772 0.0
H1833 H 0.66364 0.3526 0.90418 0.0
H1834 H 0.63378 0.4486 0.97554 0.0
H1835 H 0.65103 0.4221 0.95043 0.0
C1836 C 0.6798 0.31993 0.13704 0.0
C1837 C 0.70845 0.33283 0.14264 0.0
C1838 C 0.66356 0.32187 0.11087 0.0
C1839 C 0.66825 0.37632 0.06697 0.0
H1840 H 0.5942 0.33123 0.02884 0.0
C1841 C 0.59395 0.42705 0.02425 0.0
C1842 C 0.56828 0.41473 0.03043 0.0
C1843 C 0.61054 0.41235 0.02446 0.0
C1844 C 0.61485 0.34411 0.03927 0.0
H1845 H 0.74265 0.35421 0.12394 0.0
H1846 H 0.71411 0.35831 0.07841 0.0
H1847 H 0.62564 0.31021 0.05417 0.0
H1848 H 0.53916 0.37753 0.04093 0.0
H1849 H 0.56905 0.35226 0.04393 0.0
H1850 H 0.65722 0.41017 0.0557 0.0
C1851 C 0.70433 0.34683 0.09434 0.0
C1852 C 0.63288 0.33203 0.05341 0.0
C1853 C 0.7206 0.34477 0.12047 0.0
C1854 C 0.55887 0.38725 0.03581 0.0
C1855 C 0.57596 0.37276 0.03719 0.0
C1856 C 0.65017 0.38835 0.05354 0.0
C1857 C 0.67572 0.33689 0.09003 0.0
C1858 C 0.65938 0.34813 0.06826 0.0
C1859 C 0.60242 0.38545 0.03245 0.0
C1860 C 0.62288 0.37244 0.0405 0.0
H1861 H 0.66971 0.31058 0.15362 0.0
H1862 H 0.64153 0.31421 0.10819 0.0
H1863 H 0.68838 0.3893 0.07875 0.0
H1864 H 0.60158 0.44834 0.02019 0.0
H1865 H 0.6304 0.42263 0.01993 0.0
C1866 C 0.69296 0.66424 0.19999 0.0
C1867 C 0.72049 0.67135 0.21408 0.0
C1868 C 0.68295 0.64848 0.17472 0.0
C1869 C 0.68714 0.60315 0.12658 0.0
H1870 H 0.66344 0.64899 0.07106 0.0
C1871 C 0.60341 0.55188 0.03618 0.0
C1872 C 0.58199 0.5561 0.04446 0.0
C1873 C 0.62998 0.57108 0.04422 0.0
C1874 C 0.67088 0.63624 0.08594 0.0
H1875 H 0.75814 0.66495 0.21579 0.0
H1876 H 0.7402 0.63639 0.1719 0.0
H1877 H 0.69044 0.66811 0.11834 0.0
H1878 H 0.56974 0.58471 0.06289 0.0
H1879 H 0.61573 0.61852 0.07639 0.0
H1880 H 0.66524 0.57067 0.09538 0.0
C1881 C 0.72663 0.64333 0.18002 0.0
C1882 C 0.68591 0.64703 0.11302 0.0
C1883 C 0.73665 0.65919 0.20527 0.0
C1884 C 0.5863 0.58105 0.05692 0.0
C1885 C 0.6126 0.60051 0.0642 0.0
C1886 C 0.67199 0.5923 0.09948 0.0
C1887 C 0.7004 0.63962 0.16374 0.0
C1888 C 0.69223 0.63003 0.13394 0.0
C1889 C 0.63494 0.59471 0.06006 0.0
C1890 C 0.66165 0.60828 0.07989 0.0
H1891 H 0.68039 0.67382 0.20628 0.0
H1892 H 0.6624 0.64527 0.16248 0.0
H1893 H 0.69233 0.58994 0.14245 0.0
H1894 H 0.60015 0.53265 0.02628 0.0
H1895 H 0.64686 0.56623 0.04075 0.0
C1896 C 0.33202 0.62948 0.17309 0.0
C1897 C 0.34389 0.65732 0.1799 0.0
C1898 C 0.33757 0.61858 0.1507 0.0
C1899 C 0.37148 0.63621 0.09007 0.0
H1900 H 0.38256 0.56885 0.10734 0.0
C1901 C 0.43986 0.59411 0.04507 0.0
C1902 C 0.43014 0.56594 0.04005 0.0
C1903 C 0.42431 0.60596 0.0552 0.0
C1904 C 0.37908 0.58742 0.10194 0.0
H1905 H 0.36974 0.69599 0.16834 0.0
H1906 H 0.38079 0.67689 0.12997 0.0
H1907 H 0.36519 0.58818 0.13921 0.0
H1908 H 0.3957 0.52835 0.03926 0.0
H1909 H 0.36854 0.54911 0.05659 0.0
H1910 H 0.38731 0.63588 0.05351 0.0
C1911 C 0.36657 0.66342 0.14127 0.0
C1912 C 0.36899 0.59851 0.12017 0.0
C1913 C 0.36047 0.67438 0.16333 0.0
C1914 C 0.40365 0.55014 0.04277 0.0
C1915 C 0.38819 0.56195 0.05292 0.0
C1916 C 0.38205 0.62524 0.07198 0.0
C1917 C 0.35573 0.63527 0.13517 0.0
C1918 C 0.36505 0.62306 0.11454 0.0
C1919 C 0.39894 0.58973 0.06046 0.0
C1920 C 0.38589 0.60075 0.07783 0.0
H1921 H 0.3188 0.61611 0.18543 0.0
H1922 H 0.32814 0.59694 0.14606 0.0
H1923 H 0.3685 0.65503 0.08494 0.0
H1924 H 0.46013 0.60671 0.0428 0.0
H1925 H 0.43303 0.62744 0.06093 0.0
C1926 C 0.34851 0.27795 0.21511 0.0
C1927 C 0.33952 0.29131 0.23275 0.0
C1928 C 0.37087 0.29227 0.2039 0.0
C1929 C 0.39506 0.33144 0.16277 0.0
H1930 H 0.45486 0.39737 0.19591 0.0
C1931 C 0.43521 0.42107 0.09614 0.0
C1932 C 0.46322 0.43698 0.10305 0.0
C1933 C 0.42435 0.4007 0.11361 0.0
C1934 C 0.43858 0.3788 0.18634 0.0
H1935 H 0.34789 0.32944 0.25417 0.0
H1936 H 0.38654 0.35466 0.23443 0.0
H1937 H 0.43163 0.36466 0.22661 0.0
H1938 H 0.50203 0.44398 0.13308 0.0
H1939 H 0.48325 0.40795 0.16318 0.0
H1940 H 0.40179 0.34557 0.12253 0.0
C1941 C 0.37679 0.33306 0.22957 0.0
C1942 C 0.42516 0.36017 0.20394 0.0
C1943 C 0.35456 0.31863 0.24095 0.0
C1944 C 0.48024 0.43223 0.12758 0.0
C1945 C 0.4695 0.41159 0.14478 0.0
C1946 C 0.40859 0.34993 0.14522 0.0
C1947 C 0.38433 0.32026 0.20988 0.0
C1948 C 0.40259 0.33681 0.19226 0.0
C1949 C 0.44144 0.3956 0.138 0.0
C1950 C 0.42979 0.37428 0.15675 0.0
H1951 H 0.33749 0.25668 0.20895 0.0
H1952 H 0.3766 0.28175 0.18927 0.0
H1953 H 0.37759 0.31376 0.15301 0.0
H1954 H 0.42169 0.42443 0.07731 0.0
H1955 H 0.40252 0.38915 0.10814 0.0
C1956 C 0.80742 0.63568 0.61025 0.0
C1957 C 0.8109 0.64643 0.63757 0.0
C1958 C 0.82608 0.62545 0.60429 0.0
C1959 C 0.89592 0.62787 0.62339 0.0
H1960 H 0.86407 0.5538 0.59227 0.0
C1961 C 0.96323 0.57042 0.60216 0.0
C1962 C 0.9524 0.55078 0.57951 0.0
C1963 C 0.94694 0.58285 0.6101 0.0
C1964 C 0.87341 0.57466 0.60041 0.0
H1965 H 0.83824 0.65624 0.67954 0.0
H1966 H 0.8716 0.63942 0.66848 0.0
H1967 H 0.83485 0.57513 0.60416 0.0
H1968 H 0.9155 0.52897 0.54755 0.0
H1969 H 0.88797 0.55174 0.55998 0.0
H1970 H 0.93432 0.62799 0.61851 0.0
C1971 C 0.85383 0.63848 0.65202 0.0
C1972 C 0.85659 0.58677 0.60748 0.0
C1973 C 0.83474 0.64824 0.65825 0.0
C1974 C 0.9249 0.54429 0.56478 0.0
C1975 C 0.9088 0.55704 0.57236 0.0
C1976 C 0.91276 0.61593 0.61575 0.0
C1977 C 0.84921 0.62633 0.62518 0.0
C1978 C 0.86763 0.6135 0.61893 0.0
C1979 C 0.91942 0.5763 0.59537 0.0
C1980 C 0.90172 0.58914 0.60401 0.0
H1981 H 0.79001 0.63479 0.59335 0.0
H1982 H 0.82232 0.61666 0.58326 0.0
H1983 H 0.90488 0.64859 0.63201 0.0
H1984 H 0.98437 0.57631 0.61382 0.0
H1985 H 0.95591 0.59729 0.62812 0.0
C1986 C 0.33006 0.83173 0.73486 0.0
C1987 C 0.30537 0.81075 0.72263 0.0
C1988 C 0.34755 0.84653 0.71794 0.0
C1989 C 0.35132 0.86204 0.64339 0.0
H1990 H 0.42772 0.87181 0.67204 0.0
C1991 C 0.43072 0.90039 0.57417 0.0
C1992 C 0.4562 0.91985 0.58754 0.0
C1993 C 0.4118 0.88636 0.59004 0.0
C1994 C 0.40651 0.8695 0.6638 0.0
H1995 H 0.27765 0.79166 0.68284 0.0
H1996 H 0.30831 0.81645 0.65353 0.0
H1997 H 0.39538 0.8517 0.70135 0.0
H1998 H 0.48195 0.93956 0.62801 0.0
H1999 H 0.44911 0.91552 0.65538 0.0
H2000 H 0.36262 0.88013 0.60588 0.0
C2001 C 0.31463 0.82128 0.67613 0.0
C2002 C 0.38796 0.85803 0.68067 0.0
C2003 C 0.29726 0.80655 0.69304 0.0
C2004 C 0.46256 0.9246 0.61704 0.0
C2005 C 0.44374 0.91069 0.63281 0.0
C2006 C 0.36995 0.87369 0.62654 0.0
C2007 C 0.34036 0.8409 0.68843 0.0
C2008 C 0.36014 0.85418 0.67072 0.0
C2009 C 0.41804 0.89153 0.61955 0.0
C2010 C 0.39782 0.8777 0.63662 0.0
H2011 H 0.33633 0.83591 0.75759 0.0
H2012 H 0.36694 0.86201 0.72801 0.0
H2013 H 0.33008 0.85956 0.63515 0.0
H2014 H 0.42525 0.89627 0.55146 0.0
H2015 H 0.3923 0.8715 0.57921 0.0
C2016 C 0.2276 0.29908 0.69933 0.0
C2017 C 0.21361 0.27088 0.6974 0.0
C2018 C 0.21478 0.31618 0.68488 0.0
C2019 C 0.14402 0.31522 0.65125 0.0
H2020 H 0.18331 0.38471 0.62502 0.0
C2021 C 0.08601 0.37874 0.58596 0.0
C2022 C 0.09728 0.40712 0.59046 0.0
C2023 C 0.10096 0.36268 0.59803 0.0
C2024 C 0.17197 0.36547 0.63243 0.0
H2025 H 0.17567 0.23857 0.6782 0.0
H2026 H 0.15393 0.26778 0.6521 0.0
H2027 H 0.20819 0.35617 0.64682 0.0
H2028 H 0.13387 0.44055 0.61122 0.0
H2029 H 0.15947 0.41263 0.63283 0.0
H2030 H 0.10785 0.3244 0.63689 0.0
C2031 C 0.17438 0.27712 0.66536 0.0
C2032 C 0.18633 0.349 0.64504 0.0
C2033 C 0.187 0.2602 0.68005 0.0
C2034 C 0.12417 0.41883 0.60739 0.0
C2035 C 0.1391 0.40274 0.61956 0.0
C2036 C 0.12969 0.33157 0.63855 0.0
C2037 C 0.18763 0.30549 0.66814 0.0
C2038 C 0.17259 0.32347 0.65458 0.0
C2039 C 0.12772 0.37436 0.61521 0.0
C2040 C 0.14335 0.35697 0.62882 0.0
H2041 H 0.24798 0.308 0.71293 0.0
H2042 H 0.2258 0.33782 0.68786 0.0
H2043 H 0.13252 0.29622 0.65895 0.0
H2044 H 0.06532 0.36869 0.57348 0.0
H2045 H 0.09145 0.341 0.59372 0.0
C2046 C 0.72612 0.18934 0.65593 0.0
C2047 C 0.7299 0.21635 0.6617 0.0
C2048 C 0.71163 0.17662 0.62931 0.0
C2049 C 0.68759 0.1578 0.56673 0.0
H2050 H 0.61182 0.15087 0.55533 0.0
C2051 C 0.56966 0.08043 0.51183 0.0
C2052 C 0.57337 0.05704 0.52312 0.0
C2053 C 0.59157 0.10549 0.51705 0.0
C2054 C 0.63295 0.15313 0.55738 0.0
H2055 H 0.72398 0.25197 0.64293 0.0
H2056 H 0.69688 0.22902 0.59696 0.0
H2057 H 0.64768 0.18672 0.58765 0.0
H2058 H 0.60293 0.04088 0.54666 0.0
H2059 H 0.64094 0.08407 0.55553 0.0
H2060 H 0.67278 0.12328 0.53777 0.0
C2061 C 0.70524 0.21786 0.61315 0.0
C2062 C 0.65349 0.17366 0.57599 0.0
C2063 C 0.7204 0.23082 0.63961 0.0
C2064 C 0.59956 0.05868 0.53785 0.0
C2065 C 0.62141 0.08345 0.54265 0.0
C2066 C 0.66712 0.13749 0.54789 0.0
C2067 C 0.70031 0.19048 0.60798 0.0
C2068 C 0.68073 0.17507 0.5821 0.0
C2069 C 0.61753 0.10734 0.53325 0.0
C2070 C 0.63939 0.13381 0.5445 0.0
H2071 H 0.73344 0.17763 0.67223 0.0
H2072 H 0.70793 0.15541 0.62592 0.0
H2073 H 0.70854 0.15877 0.57083 0.0
H2074 H 0.54954 0.07962 0.50047 0.0
H2075 H 0.58795 0.12353 0.50948 0.0
C2076 C 0.84134 0.28524 0.32052 0.0
C2077 C 0.81498 0.26694 0.32073 0.0
C2078 C 0.85811 0.30113 0.34488 0.0
C2079 C 0.87566 0.31581 0.41996 0.0
H2080 H 0.88261 0.38867 0.39902 0.0
C2081 C 0.96097 0.41539 0.47362 0.0
C2082 C 0.95487 0.43894 0.4703 0.0
C2083 C 0.94035 0.39013 0.46415 0.0
C2084 C 0.8805 0.36847 0.40559 0.0
H2085 H 0.78668 0.2486 0.34733 0.0
H2086 H 0.81628 0.27653 0.39011 0.0
H2087 H 0.85585 0.351 0.36481 0.0
H2088 H 0.92238 0.45464 0.45851 0.0
H2089 H 0.8862 0.4106 0.44328 0.0
H2090 H 0.90139 0.33372 0.46065 0.0
C2091 C 0.8238 0.27857 0.37105 0.0
C2092 C 0.86542 0.34694 0.38578 0.0
C2093 C 0.8069 0.26273 0.34656 0.0
C2094 C 0.92752 0.43669 0.46095 0.0
C2095 C 0.90689 0.4115 0.4521 0.0
C2096 C 0.89121 0.33761 0.43991 0.0
C2097 C 0.84897 0.29877 0.36994 0.0
C2098 C 0.86332 0.32055 0.39251 0.0
C2099 C 0.91342 0.38825 0.45154 0.0
C2100 C 0.89407 0.36426 0.43274 0.0
H2101 H 0.84815 0.2891 0.30105 0.0
H2102 H 0.8775 0.31662 0.34361 0.0
H2103 H 0.8741 0.2955 0.42559 0.0
H2104 H 0.98202 0.41676 0.48076 0.0
H2105 H 0.94608 0.37264 0.46414 0.0
C2106 C 0.66701 0.82642 0.32867 0.0
C2107 C 0.67996 0.81424 0.35059 0.0
C2108 C 0.65546 0.84463 0.33491 0.0
C2109 C 0.6272 0.85995 0.39137 0.0
H2110 H 0.63033 0.92567 0.35289 0.0
C2111 C 0.58513 0.93358 0.42964 0.0
C2112 C 0.5718 0.94683 0.40936 0.0
C2113 C 0.59926 0.91873 0.42182 0.0
C2114 C 0.62894 0.9072 0.36361 0.0
H2115 H 0.69309 0.81358 0.39621 0.0
H2116 H 0.673 0.84499 0.40697 0.0
H2117 H 0.65371 0.89794 0.33987 0.0
H2118 H 0.56337 0.95499 0.3648 0.0
H2119 H 0.58693 0.92805 0.35095 0.0
H2120 H 0.60212 0.86861 0.41472 0.0
C2121 C 0.67104 0.83998 0.38498 0.0
C2122 C 0.64242 0.89136 0.35617 0.0
C2123 C 0.68258 0.82196 0.37879 0.0
C2124 C 0.573 0.94475 0.38097 0.0
C2125 C 0.58693 0.92962 0.37308 0.0
C2126 C 0.61361 0.87559 0.39864 0.0
C2127 C 0.65666 0.85094 0.36317 0.0
C2128 C 0.64192 0.8677 0.3702 0.0
C2129 C 0.60019 0.91633 0.39339 0.0
C2130 C 0.61445 0.89957 0.38507 0.0
H2131 H 0.66464 0.82093 0.30672 0.0
H2132 H 0.64455 0.85279 0.31762 0.0
H2133 H 0.62586 0.84151 0.40217 0.0
H2134 H 0.58445 0.9344 0.45165 0.0
H2135 H 0.60958 0.90922 0.4382 0.0
C2136 C 0.18434 0.67619 0.2546 0.0
C2137 C 0.20939 0.69655 0.26707 0.0
C2138 C 0.16959 0.65762 0.27132 0.0
C2139 C 0.1703 0.63296 0.34386 0.0
H2140 H 0.09504 0.62902 0.32364 0.0
C2141 C 0.09402 0.59347 0.41699 0.0
C2142 C 0.06778 0.57542 0.40346 0.0
C2143 C 0.11294 0.60723 0.40107 0.0
C2144 C 0.11591 0.62969 0.32944 0.0
H2145 H 0.23917 0.71303 0.30659 0.0
H2146 H 0.21326 0.68088 0.33591 0.0
H2147 H 0.12569 0.65196 0.29365 0.0
H2148 H 0.04079 0.55766 0.36277 0.0
H2149 H 0.07356 0.58162 0.33524 0.0
H2150 H 0.16024 0.61088 0.38009 0.0
C2151 C 0.20529 0.67878 0.31316 0.0
C2152 C 0.13345 0.64267 0.31214 0.0
C2153 C 0.22017 0.69724 0.29636 0.0
C2154 C 0.06076 0.57156 0.37384 0.0
C2155 C 0.07953 0.58532 0.35803 0.0
C2156 C 0.15263 0.6199 0.36129 0.0
C2157 C 0.1793 0.65955 0.30093 0.0
C2158 C 0.16078 0.64432 0.319 0.0
C2159 C 0.10579 0.60327 0.37142 0.0
C2160 C 0.1252 0.61802 0.35407 0.0
H2161 H 0.17572 0.6753 0.23202 0.0
H2162 H 0.14988 0.6426 0.26123 0.0
H2163 H 0.19129 0.63399 0.34969 0.0
H2164 H 0.10002 0.59671 0.43983 0.0
H2165 H 0.13301 0.62115 0.41189 0.0
C2166 C 0.32083 0.22042 0.29609 0.0
C2167 C 0.29238 0.20605 0.29061 0.0
C2168 C 0.33916 0.20902 0.31182 0.0
C2169 C 0.34275 0.15335 0.36026 0.0
H2170 H 0.4059 0.15884 0.33212 0.0
C2171 C 0.41979 0.10419 0.41675 0.0
C2172 C 0.43066 0.09204 0.39978 0.0
C2173 C 0.40437 0.11989 0.4049 0.0
C2174 C 0.38828 0.15692 0.34022 0.0
H2175 H 0.26096 0.16891 0.29768 0.0
H2176 H 0.29251 0.14931 0.32517 0.0
H2177 H 0.37672 0.18335 0.3099 0.0
H2178 H 0.43398 0.0878 0.35669 0.0
H2179 H 0.40659 0.11431 0.33608 0.0
H2180 H 0.35361 0.12622 0.38988 0.0
C2181 C 0.30092 0.16938 0.31775 0.0
C2182 C 0.37172 0.17136 0.32769 0.0
C2183 C 0.28275 0.18061 0.30191 0.0
C2184 C 0.42569 0.09633 0.37055 0.0
C2185 C 0.41024 0.11199 0.3587 0.0
C2186 C 0.35927 0.13895 0.37278 0.0
C2187 C 0.32943 0.1831 0.32251 0.0
C2188 C 0.34851 0.16958 0.33732 0.0
C2189 C 0.39926 0.124 0.37566 0.0
C2190 C 0.38219 0.14028 0.36284 0.0
H2191 H 0.32891 0.23985 0.28722 0.0
H2192 H 0.36096 0.22032 0.31521 0.0
H2193 H 0.32525 0.1516 0.36852 0.0
H2194 H 0.42286 0.1013 0.43926 0.0
H2195 H 0.39661 0.12899 0.41882 0.0
C2196 C 0.7445 0.81858 0.69152 0.0
C2197 C 0.73488 0.79233 0.70108 0.0
C2198 C 0.7264 0.83016 0.67638 0.0
C2199 C 0.65589 0.81763 0.63466 0.0
H2200 H 0.67288 0.89118 0.66143 0.0
C2201 C 0.58394 0.87701 0.59096 0.0
C2202 C 0.5957 0.90536 0.58994 0.0
C2203 C 0.59983 0.862 0.60376 0.0
C2204 C 0.66792 0.87087 0.65315 0.0
H2205 H 0.69836 0.75722 0.70132 0.0
H2206 H 0.6664 0.77731 0.67389 0.0
H2207 H 0.70178 0.86681 0.68353 0.0
H2208 H 0.63405 0.93973 0.60104 0.0
H2209 H 0.66161 0.91387 0.62264 0.0
H2210 H 0.62233 0.82191 0.60378 0.0
C2211 C 0.6882 0.78893 0.67831 0.0
C2212 C 0.68454 0.85675 0.66606 0.0
C2213 C 0.70649 0.77732 0.69387 0.0
C2214 C 0.62397 0.91808 0.60179 0.0
C2215 C 0.63988 0.90309 0.61438 0.0
C2216 C 0.63935 0.83193 0.62141 0.0
C2217 C 0.69794 0.81589 0.67021 0.0
C2218 C 0.679 0.83003 0.65687 0.0
C2219 C 0.6281 0.87478 0.61588 0.0
C2220 C 0.64523 0.85894 0.63027 0.0
H2221 H 0.76622 0.83071 0.69683 0.0
H2222 H 0.73475 0.85071 0.67007 0.0
H2223 H 0.65103 0.79713 0.62696 0.0
H2224 H 0.56221 0.86635 0.5825 0.0
H2225 H 0.58968 0.84039 0.60468 0.0
C2226 C 0.69236 0.16669 0.25473 0.0
C2227 C 0.71677 0.18835 0.26607 0.0
C2228 C 0.67592 0.15172 0.27248 0.0
C2229 C 0.67433 0.13788 0.34793 0.0
H2230 H 0.59723 0.12536 0.31986 0.0
C2231 C 0.59491 0.09741 0.41748 0.0
C2232 C 0.56986 0.07736 0.40398 0.0
C2233 C 0.61388 0.11181 0.4018 0.0
C2234 C 0.61865 0.12846 0.32797 0.0
H2235 H 0.7453 0.20849 0.30508 0.0
H2236 H 0.71635 0.18343 0.33585 0.0
H2237 H 0.62866 0.14552 0.28983 0.0
H2238 H 0.54512 0.05675 0.36354 0.0
H2239 H 0.578 0.08133 0.33658 0.0
H2240 H 0.66397 0.1202 0.386 0.0
C2241 C 0.70946 0.17816 0.31333 0.0
C2242 C 0.63671 0.14 0.31069 0.0
C2243 C 0.72583 0.19302 0.29558 0.0
C2244 C 0.5641 0.07221 0.37461 0.0
C2245 C 0.58295 0.08644 0.35906 0.0
C2246 C 0.65613 0.12603 0.3652 0.0
C2247 C 0.68385 0.15793 0.30192 0.0
C2248 C 0.66476 0.14478 0.32034 0.0
C2249 C 0.60808 0.10639 0.37237 0.0
C2250 C 0.62801 0.12093 0.35526 0.0
H2251 H 0.68543 0.16213 0.23208 0.0
H2252 H 0.65667 0.13572 0.26308 0.0
H2253 H 0.69579 0.14114 0.35599 0.0
H2254 H 0.59994 0.10178 0.44013 0.0
H2255 H 0.633 0.12721 0.41265 0.0
C2256 C 0.84001 0.73507 0.30439 0.0
C2257 C 0.81187 0.72512 0.29143 0.0
C2258 C 0.85262 0.71819 0.31906 0.0
C2259 C 0.84159 0.65288 0.3534 0.0
H2260 H 0.91075 0.66131 0.33625 0.0
C2261 C 0.91422 0.5997 0.41469 0.0
C2262 C 0.92773 0.58964 0.39886 0.0
C2263 C 0.8989 0.61536 0.40221 0.0
C2264 C 0.8914 0.65846 0.34122 0.0
H2265 H 0.77472 0.68936 0.2844 0.0
H2266 H 0.79667 0.65984 0.31097 0.0
H2267 H 0.8857 0.68937 0.314 0.0
H2268 H 0.93575 0.58893 0.35725 0.0
H2269 H 0.90891 0.61561 0.33563 0.0
H2270 H 0.84736 0.62171 0.38054 0.0
C2271 C 0.80898 0.68091 0.30967 0.0
C2272 C 0.87711 0.67483 0.32864 0.0
C2273 C 0.79632 0.69787 0.29456 0.0
C2274 C 0.92542 0.59584 0.37018 0.0
C2275 C 0.91022 0.61153 0.35778 0.0
C2276 C 0.85605 0.63654 0.36621 0.0
C2277 C 0.83751 0.6907 0.32137 0.0
C2278 C 0.85206 0.67243 0.33459 0.0
C2279 C 0.89677 0.62164 0.37358 0.0
C2280 C 0.88119 0.63907 0.36026 0.0
H2281 H 0.85261 0.7559 0.30226 0.0
H2282 H 0.87448 0.72664 0.32817 0.0
H2283 H 0.82244 0.65051 0.35858 0.0
H2284 H 0.91526 0.59528 0.43673 0.0
H2285 H 0.88909 0.62295 0.41519 0.0
C2286 C 0.30393 0.7659 0.35087 0.0
C2287 C 0.29367 0.78033 0.32927 0.0
C2288 C 0.31909 0.77866 0.37744 0.0
C2289 C 0.37022 0.82236 0.41519 0.0
H2290 H 0.35187 0.87407 0.45248 0.0
C2291 C 0.42562 0.93767 0.45102 0.0
C2292 C 0.45157 0.93923 0.4665 0.0
C2293 C 0.40355 0.91305 0.44642 0.0
C2294 C 0.35725 0.85946 0.44265 0.0
H2295 H 0.28872 0.81866 0.31984 0.0
H2296 H 0.31429 0.84048 0.36616 0.0
H2297 H 0.31569 0.83826 0.42014 0.0
H2298 H 0.4747 0.91666 0.49056 0.0
H2299 H 0.43593 0.87298 0.48179 0.0
H2300 H 0.41204 0.84498 0.43557 0.0
C2301 C 0.31118 0.81948 0.36239 0.0
C2302 C 0.33655 0.83898 0.4242 0.0
C2303 C 0.29666 0.80698 0.33571 0.0
C2304 C 0.45479 0.91592 0.47861 0.0
C2305 C 0.43268 0.89099 0.47355 0.0
C2306 C 0.39099 0.843 0.43351 0.0
C2307 C 0.32332 0.80578 0.38321 0.0
C2308 C 0.34308 0.82125 0.40903 0.0
C2309 C 0.40697 0.88923 0.45677 0.0
C2310 C 0.38488 0.86277 0.446 0.0
H2311 H 0.30098 0.745 0.34705 0.0
H2312 H 0.32805 0.76758 0.39321 0.0
H2313 H 0.37583 0.80898 0.40374 0.0
H2314 H 0.42258 0.9554 0.4416 0.0
H2315 H 0.38421 0.91245 0.43308 0.0
C2316 C 0.19393 0.35496 0.3328 0.0
C2317 C 0.21087 0.34696 0.35507 0.0
C2318 C 0.17561 0.3661 0.33842 0.0
C2319 C 0.16548 0.40089 0.39724 0.0
H2320 H 0.09269 0.38612 0.34986 0.0
C2321 C 0.08905 0.43748 0.43211 0.0
C2322 C 0.07265 0.44769 0.41155 0.0
C2323 C 0.10477 0.42438 0.42429 0.0
C2324 C 0.11308 0.39069 0.36316 0.0
H2325 H 0.2202 0.34247 0.4004 0.0
H2326 H 0.18846 0.36161 0.4101 0.0
H2327 H 0.12187 0.36462 0.3374 0.0
H2328 H 0.05993 0.45178 0.36642 0.0
H2329 H 0.08725 0.42883 0.3528 0.0
H2330 H 0.15695 0.42699 0.42292 0.0
C2331 C 0.18983 0.36014 0.3884 0.0
C2332 C 0.12981 0.37836 0.356 0.0
C2333 C 0.20802 0.34908 0.38281 0.0
C2334 C 0.07199 0.4439 0.38286 0.0
C2335 C 0.08771 0.43073 0.37502 0.0
C2336 C 0.14883 0.4132 0.40436 0.0
C2337 C 0.17384 0.3694 0.36642 0.0
C2338 C 0.15613 0.38309 0.37314 0.0
C2339 C 0.10456 0.42107 0.39566 0.0
C2340 C 0.12231 0.40812 0.38758 0.0
H2341 H 0.19563 0.35364 0.31119 0.0
H2342 H 0.1636 0.37303 0.32098 0.0
H2343 H 0.18588 0.40556 0.41058 0.0
H2344 H 0.08971 0.43948 0.45437 0.0
H2345 H 0.11701 0.41671 0.44077 0.0
C2346 C 0.36109 0.17481 0.65747 0.0
C2347 C 0.35146 0.1898 0.63609 0.0
C2348 C 0.37216 0.15626 0.65116 0.0
C2349 C 0.37708 0.11855 0.59054 0.0
H2350 H 0.44147 0.11487 0.64339 0.0
C2351 C 0.44558 0.06863 0.5589 0.0
C2352 C 0.45615 0.05307 0.5788 0.0
C2353 C 0.4318 0.084 0.56648 0.0
C2354 C 0.42331 0.1154 0.62853 0.0
H2355 H 0.34491 0.19595 0.59101 0.0
H2356 H 0.36514 0.16478 0.58032 0.0
H2357 H 0.4187 0.14331 0.65567 0.0
H2358 H 0.45999 0.04125 0.62229 0.0
H2359 H 0.43617 0.06823 0.63554 0.0
H2360 H 0.38202 0.09101 0.5632 0.0
C2361 C 0.36382 0.16692 0.60193 0.0
C2362 C 0.41017 0.13168 0.63561 0.0
C2363 C 0.35256 0.18521 0.60817 0.0
C2364 C 0.4526 0.05335 0.60653 0.0
C2365 C 0.43887 0.06879 0.61413 0.0
C2366 C 0.39029 0.1024 0.58342 0.0
C2367 C 0.37396 0.15231 0.62333 0.0
C2368 C 0.38702 0.13369 0.61659 0.0
C2369 C 0.42826 0.08427 0.59419 0.0
C2370 C 0.4137 0.10079 0.60222 0.0
H2371 H 0.36076 0.17789 0.67924 0.0
H2372 H 0.37939 0.1451 0.66815 0.0
H2373 H 0.35899 0.11908 0.57557 0.0
H2374 H 0.44827 0.06928 0.53748 0.0
H2375 H 0.4243 0.09603 0.5507 0.0
C2376 C 0.80393 0.29917 0.69301 0.0
C2377 C 0.81467 0.30082 0.7224 0.0
C2378 C 0.81876 0.31697 0.6757 0.0
C2379 C 0.89043 0.3536 0.67596 0.0
H2380 H 0.86298 0.3849 0.60794 0.0
C2381 C 0.96283 0.42668 0.6158 0.0
C2382 C 0.95654 0.42297 0.58619 0.0
C2383 C 0.94374 0.41246 0.63107 0.0
C2384 C 0.87077 0.376 0.62674 0.0
H2385 H 0.84846 0.3229 0.75698 0.0
H2386 H 0.87426 0.35438 0.72684 0.0
H2387 H 0.83205 0.36115 0.63826 0.0
H2388 H 0.92514 0.40166 0.54926 0.0
H2389 H 0.89157 0.3763 0.5763 0.0
H2390 H 0.92892 0.36808 0.66461 0.0
C2391 C 0.85455 0.33918 0.7171 0.0
C2392 C 0.85316 0.36256 0.64412 0.0
C2393 C 0.83982 0.32129 0.73435 0.0
C2394 C 0.93059 0.40476 0.5721 0.0
C2395 C 0.91134 0.39046 0.5875 0.0
C2396 C 0.90789 0.36694 0.65871 0.0
C2397 C 0.84472 0.33646 0.6875 0.0
C2398 C 0.86297 0.35149 0.66908 0.0
C2399 C 0.91788 0.3941 0.61717 0.0
C2400 C 0.89839 0.37854 0.63411 0.0
H2401 H 0.78488 0.28325 0.68317 0.0
H2402 H 0.81072 0.31426 0.65297 0.0
H2403 H 0.8984 0.34454 0.69453 0.0
H2404 H 0.98249 0.44079 0.62731 0.0
H2405 H 0.94918 0.41601 0.65386 0.0
C2406 C 0.21824 0.7408 0.63984 0.0
C2407 C 0.20828 0.73724 0.66455 0.0
C2408 C 0.20122 0.7277 0.61409 0.0
C2409 C 0.12903 0.68441 0.57868 0.0
H2410 H 0.16384 0.64209 0.55034 0.0
C2411 C 0.09672 0.56905 0.54492 0.0
C2412 C 0.07099 0.56329 0.52625 0.0
C2413 C 0.11509 0.59568 0.55111 0.0
C2414 C 0.15386 0.65401 0.55763 0.0
H2415 H 0.17192 0.71979 0.68084 0.0
H2416 H 0.1423 0.69689 0.63622 0.0
H2417 H 0.19181 0.68169 0.58211 0.0
H2418 H 0.04479 0.58063 0.49811 0.0
H2419 H 0.07686 0.62765 0.50954 0.0
H2420 H 0.0909 0.65538 0.55585 0.0
C2421 C 0.16324 0.70971 0.63656 0.0
C2422 C 0.16991 0.67689 0.57571 0.0
C2423 C 0.18029 0.7228 0.66231 0.0
C2424 C 0.06458 0.58458 0.51252 0.0
C2425 C 0.08284 0.61143 0.51915 0.0
C2426 C 0.11298 0.66154 0.56051 0.0
C2427 C 0.17382 0.71091 0.61247 0.0
C2428 C 0.15757 0.69154 0.58765 0.0
C2429 C 0.10799 0.61727 0.53917 0.0
C2430 C 0.12513 0.64529 0.55102 0.0
H2431 H 0.23965 0.75233 0.64076 0.0
H2432 H 0.20991 0.72953 0.59584 0.0
H2433 H 0.11892 0.69554 0.58706 0.0
H2434 H 0.10223 0.55299 0.55568 0.0
H2435 H 0.13411 0.5994 0.56682 0.0
loop_
_geom_bond_atom_site_label_1
_geom_bond_atom_site_label_2
_geom_bond_distance
_geom_bond_site_symmetry_2
_ccdc_geom_bond_type
Tb0 N31 2.660 . S
Tb0 N38 2.600 . S
Tb0 O44 2.546 . S
Tb0 O45 2.610 . S
Tb0 O47 2.320 . S
Tb0 O48 2.552 . S
Tb0 O49 2.413 . S
Tb0 O51 2.362 . S
Tb0 O52 2.421 . S
Tb0 C64 2.833 . S
C1 C4 1.432 . S
C1 C5 1.414 . S
C1 N8 1.359 . S
C2 C4 1.417 . S
C2 C6 1.432 . S
C2 C14 1.410 . S
C3 C5 1.444 . S
C3 C6 1.317 . S
C3 H26 0.929 . S
C4 C1 1.432 . S
C4 C2 1.417 . S
C4 N12 1.360 . S
C5 C1 1.414 . S
C5 C3 1.444 . S
C5 C10 1.385 . S
C6 C2 1.432 . S
C6 C3 1.317 . S
C6 H18 0.930 . S
C7 C9 1.392 . S
C7 C10 1.370 . S
C7 H19 0.931 . S
N8 C1 1.359 . S
N8 C9 1.327 . S
N8 Tb11 2.600 . S
C9 C7 1.392 . S
C9 N8 1.327 . S
C9 H16 0.930 . S
C10 C5 1.385 . S
C10 C7 1.370 . S
C10 H29 0.930 . S
Tb11 N8 2.600 . S
Tb11 N12 2.660 . S
Tb11 O45 2.362 . S
Tb11 O46 2.421 . S
Tb11 O50 2.546 . S
Tb11 O51 2.610 . S
Tb11 O53 2.320 . S
Tb11 O54 2.552 . S
Tb11 O55 2.413 . S
Tb11 C75 2.833 . S
N12 C4 1.360 . S
N12 Tb11 2.660 . S
N12 C13 1.305 . S
C13 N12 1.305 . S
C13 C15 1.407 . S
C13 H20 0.930 . S
C14 C2 1.410 . S
C14 C15 1.345 . S
C14 H22 0.930 . S
C15 C13 1.407 . S
C15 C14 1.345 . S
C15 H17 0.930 . S
H16 C9 0.930 . S
H17 C15 0.930 . S
H18 C6 0.930 . S
H19 C7 0.931 . S
H20 C13 0.930 . S
H21 C35 0.930 . S
H22 C14 0.930 . S
H23 C41 0.930 . S
H24 C32 0.930 . S
H25 C39 0.931 . S
H26 C3 0.929 . S
H27 C33 0.930 . S
H28 C66 0.930 . S
H29 C10 0.930 . S
H30 C65 0.929 . S
N31 Tb0 2.660 . S
N31 C32 1.305 . S
N31 C36 1.360 . S
C32 H24 0.930 . S
C32 N31 1.305 . S
C32 C35 1.407 . S
C33 H27 0.930 . S
C33 C34 1.410 . S
C33 C35 1.345 . S
C34 C33 1.410 . S
C34 C36 1.417 . S
C34 C66 1.432 . S
C35 H21 0.930 . S
C35 C32 1.407 . S
C35 C33 1.345 . S
C36 N31 1.360 . S
C36 C34 1.417 . S
C36 C40 1.432 . S
H37 C42 0.930 . S
N38 Tb0 2.600 . S
N38 C40 1.359 . S
N38 C41 1.327 . S
C39 H25 0.931 . S
C39 C41 1.392 . S
C39 C42 1.370 . S
C40 C36 1.432 . S
C40 N38 1.359 . S
C40 C43 1.414 . S
C41 H23 0.930 . S
C41 N38 1.327 . S
C41 C39 1.392 . S
C42 H37 0.930 . S
C42 C39 1.370 . S
C42 C43 1.385 . S
C43 C40 1.414 . S
C43 C42 1.385 . S
C43 C65 1.444 . S
O44 Tb0 2.546 . S
O44 C64 1.251 . S
O45 Tb0 2.610 . S
O45 Tb11 2.362 . S
O45 C56 1.283 . S
O46 Tb11 2.421 . S
O46 C63 1.262 . S
O47 Tb0 2.320 . S
O47 C63 1.260 . S
O48 Tb0 2.552 . S
O48 C56 1.243 . S
O49 Tb0 2.413 . S
O49 C64 1.256 . S
O50 Tb11 2.546 . S
O50 C75 1.251 . S
O51 Tb0 2.362 . S
O51 Tb11 2.610 . S
O51 C67 1.283 . S
O52 Tb0 2.421 . S
O52 C74 1.262 . S
O53 Tb11 2.320 . S
O53 C74 1.260 . S
O54 Tb11 2.552 . S
O54 C67 1.243 . S
O55 Tb11 2.413 . S
O55 C75 1.256 . S
C56 O45 1.283 . S
C56 O48 1.243 . S
C57 C59 1.382 . S
C57 C61 1.393 . S
C57 C64 1.500 . S
C58 C59 1.400 . S
C58 C60 1.384 . S
C59 C57 1.382 . S
C59 C58 1.400 . S
C59 H76 0.930 . S
C60 C58 1.384 . S
C60 C62 1.392 . S
C60 H77 0.931 . S
C61 C57 1.393 . S
C61 C62 1.401 . S
C61 H78 0.930 . S
C62 C60 1.392 . S
C62 C61 1.401 . S
C62 H79 0.930 . S
C63 O46 1.262 . S
C63 O47 1.260 . S
C64 Tb0 2.833 . S
C64 O44 1.251 . S
C64 O49 1.256 . S
C64 C57 1.500 . S
C65 H30 0.929 . S
C65 C43 1.444 . S
C65 C66 1.317 . S
C66 H28 0.930 . S
C66 C34 1.432 . S
C66 C65 1.317 . S
C67 O51 1.283 . S
C67 O54 1.243 . S
C68 C69 1.382 . S
C68 C72 1.393 . S
C68 C75 1.500 . S
C69 C68 1.382 . S
C69 C70 1.400 . S
C69 H80 0.930 . S
C70 C69 1.400 . S
C70 C71 1.384 . S
C71 C70 1.384 . S
C71 C73 1.392 . S
C71 H81 0.931 . S
C72 C68 1.393 . S
C72 C73 1.401 . S
C72 H82 0.930 . S
C73 C71 1.392 . S
C73 C72 1.401 . S
C73 H83 0.930 . S
C74 O52 1.262 . S
C74 O53 1.260 . S
C75 Tb11 2.833 . S
C75 O50 1.251 . S
C75 O55 1.256 . S
C75 C68 1.500 . S
H76 C59 0.930 . S
H77 C60 0.931 . S
H78 C61 0.930 . S
H79 C62 0.930 . S
H80 C69 0.930 . S
H81 C71 0.931 . S
H82 C72 0.930 . S
H83 C73 0.930 . S
Tb84 N115 2.660 . S
Tb84 N122 2.600 . S
Tb84 O128 2.546 . S
Tb84 O129 2.610 . S
Tb84 O131 2.320 . S
Tb84 O132 2.552 . S
Tb84 O133 2.413 . S
Tb84 O135 2.362 . S
Tb84 O136 2.421 . S
Tb84 C148 2.833 . S
C85 C88 1.432 . S
C85 C89 1.414 . S
C85 N92 1.359 . S
C86 C88 1.417 . S
C86 C90 1.432 . S
C86 C98 1.410 . S
C87 C89 1.444 . S
C87 C90 1.317 . S
C87 H110 0.929 . S
C88 C85 1.432 . S
C88 C86 1.417 . S
C88 N96 1.360 . S
C89 C85 1.414 . S
C89 C87 1.444 . S
C89 C94 1.385 . S
C90 C86 1.432 . S
C90 C87 1.317 . S
C90 H102 0.930 . S
C91 C93 1.392 . S
C91 C94 1.370 . S
C91 H103 0.931 . S
N92 C85 1.359 . S
N92 C93 1.327 . S
N92 Tb95 2.600 . S
C93 C91 1.392 . S
C93 N92 1.327 . S
C93 H100 0.930 . S
C94 C89 1.385 . S
C94 C91 1.370 . S
C94 H113 0.930 . S
Tb95 N92 2.600 . S
Tb95 N96 2.660 . S
Tb95 O129 2.362 . S
Tb95 O130 2.421 . S
Tb95 O134 2.546 . S
Tb95 O135 2.610 . S
Tb95 O137 2.320 . S
Tb95 O138 2.552 . S
Tb95 O139 2.413 . S
Tb95 C159 2.833 . S
N96 C88 1.360 . S
N96 Tb95 2.660 . S
N96 C97 1.305 . S
C97 N96 1.305 . S
C97 C99 1.407 . S
C97 H104 0.930 . S
C98 C86 1.410 . S
C98 C99 1.345 . S
C98 H106 0.930 . S
C99 C97 1.407 . S
C99 C98 1.345 . S
C99 H101 0.930 . S
H100 C93 0.930 . S
H101 C99 0.930 . S
H102 C90 0.930 . S
H103 C91 0.931 . S
H104 C97 0.930 . S
H105 C119 0.930 . S
H106 C98 0.930 . S
H107 C125 0.930 . S
H108 C116 0.930 . S
H109 C123 0.931 . S
H110 C87 0.929 . S
H111 C117 0.930 . S
H112 C150 0.930 . S
H113 C94 0.930 . S
H114 C149 0.929 . S
N115 Tb84 2.660 . S
N115 C116 1.305 . S
N115 C120 1.360 . S
C116 H108 0.930 . S
C116 N115 1.305 . S
C116 C119 1.407 . S
C117 H111 0.930 . S
C117 C118 1.410 . S
C117 C119 1.345 . S
C118 C117 1.410 . S
C118 C120 1.417 . S
C118 C150 1.432 . S
C119 H105 0.930 . S
C119 C116 1.407 . S
C119 C117 1.345 . S
C120 N115 1.360 . S
C120 C118 1.417 . S
C120 C124 1.432 . S
H121 C126 0.930 . S
N122 Tb84 2.600 . S
N122 C124 1.359 . S
N122 C125 1.327 . S
C123 H109 0.931 . S
C123 C125 1.392 . S
C123 C126 1.370 . S
C124 C120 1.432 . S
C124 N122 1.359 . S
C124 C127 1.414 . S
C125 H107 0.930 . S
C125 N122 1.327 . S
C125 C123 1.392 . S
C126 H121 0.930 . S
C126 C123 1.370 . S
C126 C127 1.385 . S
C127 C124 1.414 . S
C127 C126 1.385 . S
C127 C149 1.444 . S
O128 Tb84 2.546 . S
O128 C148 1.251 . S
O129 Tb84 2.610 . S
O129 Tb95 2.362 . S
O129 C140 1.283 . S
O130 Tb95 2.421 . S
O130 C147 1.262 . S
O131 Tb84 2.320 . S
O131 C147 1.260 . S
O132 Tb84 2.552 . S
O132 C140 1.243 . S
O133 Tb84 2.413 . S
O133 C148 1.256 . S
O134 Tb95 2.546 . S
O134 C159 1.251 . S
O135 Tb84 2.362 . S
O135 Tb95 2.610 . S
O135 C151 1.283 . S
O136 Tb84 2.421 . S
O136 C158 1.262 . S
O137 Tb95 2.320 . S
O137 C158 1.260 . S
O138 Tb95 2.552 . S
O138 C151 1.243 . S
O139 Tb95 2.413 . S
O139 C159 1.256 . S
C140 O129 1.283 . S
C140 O132 1.243 . S
C141 C143 1.382 . S
C141 C145 1.393 . S
C141 C148 1.500 . S
C142 C143 1.400 . S
C142 C144 1.384 . S
C143 C141 1.382 . S
C143 C142 1.400 . S
C143 H160 0.930 . S
C144 C142 1.384 . S
C144 C146 1.392 . S
C144 H161 0.931 . S
C145 C141 1.393 . S
C145 C146 1.401 . S
C145 H162 0.930 . S
C146 C144 1.392 . S
C146 C145 1.401 . S
C146 H163 0.930 . S
C147 O130 1.262 . S
C147 O131 1.260 . S
C148 Tb84 2.833 . S
C148 O128 1.251 . S
C148 O133 1.256 . S
C148 C141 1.500 . S
C149 H114 0.929 . S
C149 C127 1.444 . S
C149 C150 1.317 . S
C150 H112 0.930 . S
C150 C118 1.432 . S
C150 C149 1.317 . S
C151 O135 1.283 . S
C151 O138 1.243 . S
C152 C153 1.382 . S
C152 C156 1.393 . S
C152 C159 1.500 . S
C153 C152 1.382 . S
C153 C154 1.400 . S
C153 H164 0.930 . S
C154 C153 1.400 . S
C154 C155 1.384 . S
C155 C154 1.384 . S
C155 C157 1.392 . S
C155 H165 0.931 . S
C156 C152 1.393 . S
C156 C157 1.401 . S
C156 H166 0.930 . S
C157 C155 1.392 . S
C157 C156 1.401 . S
C157 H167 0.930 . S
C158 O136 1.262 . S
C158 O137 1.260 . S
C159 Tb95 2.833 . S
C159 O134 1.251 . S
C159 O139 1.256 . S
C159 C152 1.500 . S
H160 C143 0.930 . S
H161 C144 0.931 . S
H162 C145 0.930 . S
H163 C146 0.930 . S
H164 C153 0.930 . S
H165 C155 0.931 . S
H166 C156 0.930 . S
H167 C157 0.930 . S
Tb168 N199 2.660 . S
Tb168 N206 2.600 . S
Tb168 O212 2.546 . S
Tb168 O213 2.610 . S
Tb168 O215 2.320 . S
Tb168 O216 2.552 . S
Tb168 O217 2.413 . S
Tb168 O219 2.362 . S
Tb168 O220 2.421 . S
Tb168 C232 2.833 . S
C169 C172 1.432 . S
C169 C173 1.414 . S
C169 N176 1.359 . S
C170 C172 1.417 . S
C170 C174 1.432 . S
C170 C182 1.410 . S
C171 C173 1.444 . S
C171 C174 1.317 . S
C171 H194 0.929 . S
C172 C169 1.432 . S
C172 C170 1.417 . S
C172 N180 1.360 . S
C173 C169 1.414 . S
C173 C171 1.444 . S
C173 C178 1.385 . S
C174 C170 1.432 . S
C174 C171 1.317 . S
C174 H186 0.930 . S
C175 C177 1.392 . S
C175 C178 1.370 . S
C175 H187 0.931 . S
N176 C169 1.359 . S
N176 C177 1.327 . S
N176 Tb179 2.600 . S
C177 C175 1.392 . S
C177 N176 1.327 . S
C177 H184 0.930 . S
C178 C173 1.385 . S
C178 C175 1.370 . S
C178 H197 0.930 . S
Tb179 N176 2.600 . S
Tb179 N180 2.660 . S
Tb179 O213 2.362 . S
Tb179 O214 2.421 . S
Tb179 O218 2.546 . S
Tb179 O219 2.610 . S
Tb179 O221 2.320 . S
Tb179 O222 2.552 . S
Tb179 O223 2.413 . S
Tb179 C243 2.833 . S
N180 C172 1.360 . S
N180 Tb179 2.660 . S
N180 C181 1.305 . S
C181 N180 1.305 . S
C181 C183 1.407 . S
C181 H188 0.930 . S
C182 C170 1.410 . S
C182 C183 1.345 . S
C182 H190 0.930 . S
C183 C181 1.407 . S
C183 C182 1.345 . S
C183 H185 0.930 . S
H184 C177 0.930 . S
H185 C183 0.930 . S
H186 C174 0.930 . S
H187 C175 0.931 . S
H188 C181 0.930 . S
H189 C203 0.930 . S
H190 C182 0.930 . S
H191 C209 0.930 . S
H192 C200 0.930 . S
H193 C207 0.931 . S
H194 C171 0.929 . S
H195 C201 0.930 . S
H196 C234 0.930 . S
H197 C178 0.930 . S
H198 C233 0.929 . S
N199 Tb168 2.660 . S
N199 C200 1.305 . S
N199 C204 1.360 . S
C200 H192 0.930 . S
C200 N199 1.305 . S
C200 C203 1.407 . S
C201 H195 0.930 . S
C201 C202 1.410 . S
C201 C203 1.345 . S
C202 C201 1.410 . S
C202 C204 1.417 . S
C202 C234 1.432 . S
C203 H189 0.930 . S
C203 C200 1.407 . S
C203 C201 1.345 . S
C204 N199 1.360 . S
C204 C202 1.417 . S
C204 C208 1.432 . S
H205 C210 0.930 . S
N206 Tb168 2.600 . S
N206 C208 1.359 . S
N206 C209 1.327 . S
C207 H193 0.931 . S
C207 C209 1.392 . S
C207 C210 1.370 . S
C208 C204 1.432 . S
C208 N206 1.359 . S
C208 C211 1.414 . S
C209 H191 0.930 . S
C209 N206 1.327 . S
C209 C207 1.392 . S
C210 H205 0.930 . S
C210 C207 1.370 . S
C210 C211 1.385 . S
C211 C208 1.414 . S
C211 C210 1.385 . S
C211 C233 1.444 . S
O212 Tb168 2.546 . S
O212 C232 1.251 . S
O213 Tb168 2.610 . S
O213 Tb179 2.362 . S
O213 C224 1.283 . S
O214 Tb179 2.421 . S
O214 C231 1.262 . S
O215 Tb168 2.320 . S
O215 C231 1.260 . S
O216 Tb168 2.552 . S
O216 C224 1.243 . S
O217 Tb168 2.413 . S
O217 C232 1.256 . S
O218 Tb179 2.546 . S
O218 C243 1.251 . S
O219 Tb168 2.362 . S
O219 Tb179 2.610 . S
O219 C235 1.283 . S
O220 Tb168 2.421 . S
O220 C242 1.262 . S
O221 Tb179 2.320 . S
O221 C242 1.260 . S
O222 Tb179 2.552 . S
O222 C235 1.243 . S
O223 Tb179 2.413 . S
O223 C243 1.256 . S
C224 O213 1.283 . S
C224 O216 1.243 . S
C225 C227 1.382 . S
C225 C229 1.393 . S
C225 C232 1.500 . S
C226 C227 1.400 . S
C226 C228 1.384 . S
C227 C225 1.382 . S
C227 C226 1.400 . S
C227 H244 0.930 . S
C228 C226 1.384 . S
C228 C230 1.392 . S
C228 H245 0.931 . S
C229 C225 1.393 . S
C229 C230 1.401 . S
C229 H246 0.930 . S
C230 C228 1.392 . S
C230 C229 1.401 . S
C230 H247 0.930 . S
C231 O214 1.262 . S
C231 O215 1.260 . S
C232 Tb168 2.833 . S
C232 O212 1.251 . S
C232 O217 1.256 . S
C232 C225 1.500 . S
C233 H198 0.929 . S
C233 C211 1.444 . S
C233 C234 1.317 . S
C234 H196 0.930 . S
C234 C202 1.432 . S
C234 C233 1.317 . S
C235 O219 1.283 . S
C235 O222 1.243 . S
C236 C237 1.382 . S
C236 C240 1.393 . S
C236 C243 1.500 . S
C237 C236 1.382 . S
C237 C238 1.400 . S
C237 H248 0.930 . S
C238 C237 1.400 . S
C238 C239 1.384 . S
C239 C238 1.384 . S
C239 C241 1.392 . S
C239 H249 0.931 . S
C240 C236 1.393 . S
C240 C241 1.401 . S
C240 H250 0.930 . S
C241 C239 1.392 . S
C241 C240 1.401 . S
C241 H251 0.930 . S
C242 O220 1.262 . S
C242 O221 1.260 . S
C243 Tb179 2.833 . S
C243 O218 1.251 . S
C243 O223 1.256 . S
C243 C236 1.500 . S
H244 C227 0.930 . S
H245 C228 0.931 . S
H246 C229 0.930 . S
H247 C230 0.930 . S
H248 C237 0.930 . S
H249 C239 0.931 . S
H250 C240 0.930 . S
H251 C241 0.930 . S
Tb252 N283 2.660 . S
Tb252 N290 2.600 . S
Tb252 O296 2.546 . S
Tb252 O297 2.610 . S
Tb252 O299 2.320 . S
Tb252 O300 2.552 . S
Tb252 O301 2.413 . S
Tb252 O303 2.362 . S
Tb252 O304 2.421 . S
Tb252 C316 2.833 . S
C253 C256 1.432 . S
C253 C257 1.414 . S
C253 N260 1.359 . S
C254 C256 1.417 . S
C254 C258 1.432 . S
C254 C266 1.410 . S
C255 C257 1.444 . S
C255 C258 1.317 . S
C255 H278 0.929 . S
C256 C253 1.432 . S
C256 C254 1.417 . S
C256 N264 1.360 . S
C257 C253 1.414 . S
C257 C255 1.444 . S
C257 C262 1.385 . S
C258 C254 1.432 . S
C258 C255 1.317 . S
C258 H270 0.930 . S
C259 C261 1.392 . S
C259 C262 1.370 . S
C259 H271 0.931 . S
N260 C253 1.359 . S
N260 C261 1.327 . S
N260 Tb263 2.600 . S
C261 C259 1.392 . S
C261 N260 1.327 . S
C261 H268 0.930 . S
C262 C257 1.385 . S
C262 C259 1.370 . S
C262 H281 0.930 . S
Tb263 N260 2.600 . S
Tb263 N264 2.660 . S
Tb263 O297 2.362 . S
Tb263 O298 2.421 . S
Tb263 O302 2.546 . S
Tb263 O303 2.610 . S
Tb263 O305 2.320 . S
Tb263 O306 2.552 . S
Tb263 O307 2.413 . S
Tb263 C327 2.833 . S
N264 C256 1.360 . S
N264 Tb263 2.660 . S
N264 C265 1.305 . S
C265 N264 1.305 . S
C265 C267 1.407 . S
C265 H272 0.930 . S
C266 C254 1.410 . S
C266 C267 1.345 . S
C266 H274 0.930 . S
C267 C265 1.407 . S
C267 C266 1.345 . S
C267 H269 0.930 . S
H268 C261 0.930 . S
H269 C267 0.930 . S
H270 C258 0.930 . S
H271 C259 0.931 . S
H272 C265 0.930 . S
H273 C287 0.930 . S
H274 C266 0.930 . S
H275 C293 0.930 . S
H276 C284 0.930 . S
H277 C291 0.931 . S
H278 C255 0.929 . S
H279 C285 0.930 . S
H280 C318 0.930 . S
H281 C262 0.930 . S
H282 C317 0.929 . S
N283 Tb252 2.660 . S
N283 C284 1.305 . S
N283 C288 1.360 . S
C284 H276 0.930 . S
C284 N283 1.305 . S
C284 C287 1.407 . S
C285 H279 0.930 . S
C285 C286 1.410 . S
C285 C287 1.345 . S
C286 C285 1.410 . S
C286 C288 1.417 . S
C286 C318 1.432 . S
C287 H273 0.930 . S
C287 C284 1.407 . S
C287 C285 1.345 . S
C288 N283 1.360 . S
C288 C286 1.417 . S
C288 C292 1.432 . S
H289 C294 0.930 . S
N290 Tb252 2.600 . S
N290 C292 1.359 . S
N290 C293 1.327 . S
C291 H277 0.931 . S
C291 C293 1.392 . S
C291 C294 1.370 . S
C292 C288 1.432 . S
C292 N290 1.359 . S
C292 C295 1.414 . S
C293 H275 0.930 . S
C293 N290 1.327 . S
C293 C291 1.392 . S
C294 H289 0.930 . S
C294 C291 1.370 . S
C294 C295 1.385 . S
C295 C292 1.414 . S
C295 C294 1.385 . S
C295 C317 1.444 . S
O296 Tb252 2.546 . S
O296 C316 1.251 . S
O297 Tb252 2.610 . S
O297 Tb263 2.362 . S
O297 C308 1.283 . S
O298 Tb263 2.421 . S
O298 C315 1.262 . S
O299 Tb252 2.320 . S
O299 C315 1.260 . S
O300 Tb252 2.552 . S
O300 C308 1.243 . S
O301 Tb252 2.413 . S
O301 C316 1.256 . S
O302 Tb263 2.546 . S
O302 C327 1.251 . S
O303 Tb252 2.362 . S
O303 Tb263 2.610 . S
O303 C319 1.283 . S
O304 Tb252 2.421 . S
O304 C326 1.262 . S
O305 Tb263 2.320 . S
O305 C326 1.260 . S
O306 Tb263 2.552 . S
O306 C319 1.243 . S
O307 Tb263 2.413 . S
O307 C327 1.256 . S
C308 O297 1.283 . S
C308 O300 1.243 . S
C309 C311 1.382 . S
C309 C313 1.393 . S
C309 C316 1.500 . S
C310 C311 1.400 . S
C310 C312 1.384 . S
C311 C309 1.382 . S
C311 C310 1.400 . S
C311 H328 0.930 . S
C312 C310 1.384 . S
C312 C314 1.392 . S
C312 H329 0.931 . S
C313 C309 1.393 . S
C313 C314 1.401 . S
C313 H330 0.930 . S
C314 C312 1.392 . S
C314 C313 1.401 . S
C314 H331 0.930 . S
C315 O298 1.262 . S
C315 O299 1.260 . S
C316 Tb252 2.833 . S
C316 O296 1.251 . S
C316 O301 1.256 . S
C316 C309 1.500 . S
C317 H282 0.929 . S
C317 C295 1.444 . S
C317 C318 1.317 . S
C318 H280 0.930 . S
C318 C286 1.432 . S
C318 C317 1.317 . S
C319 O303 1.283 . S
C319 O306 1.243 . S
C320 C321 1.382 . S
C320 C324 1.393 . S
C320 C327 1.500 . S
C321 C320 1.382 . S
C321 C322 1.400 . S
C321 H332 0.930 . S
C322 C321 1.400 . S
C322 C323 1.384 . S
C323 C322 1.384 . S
C323 C325 1.392 . S
C323 H333 0.931 . S
C324 C320 1.393 . S
C324 C325 1.401 . S
C324 H334 0.930 . S
C325 C323 1.392 . S
C325 C324 1.401 . S
C325 H335 0.930 . S
C326 O304 1.262 . S
C326 O305 1.260 . S
C327 Tb263 2.833 . S
C327 O302 1.251 . S
C327 O307 1.256 . S
C327 C320 1.500 . S
H328 C311 0.930 . S
H329 C312 0.931 . S
H330 C313 0.930 . S
H331 C314 0.930 . S
H332 C321 0.930 . S
H333 C323 0.931 . S
H334 C324 0.930 . S
H335 C325 0.930 . S
Tb336 N367 2.660 . S
Tb336 N374 2.600 . S
Tb336 O380 2.546 . S
Tb336 O381 2.610 . S
Tb336 O383 2.320 . S
Tb336 O384 2.552 . S
Tb336 O385 2.413 . S
Tb336 O387 2.362 . S
Tb336 O388 2.421 . S
Tb336 C400 2.833 . S
C337 C340 1.432 . S
C337 C341 1.414 . S
C337 N344 1.359 . S
C338 C340 1.417 . S
C338 C342 1.432 . S
C338 C350 1.410 . S
C339 C341 1.444 . S
C339 C342 1.317 . S
C339 H362 0.929 . S
C340 C337 1.432 . S
C340 C338 1.417 . S
C340 N348 1.360 . S
C341 C337 1.414 . S
C341 C339 1.444 . S
C341 C346 1.385 . S
C342 C338 1.432 . S
C342 C339 1.317 . S
C342 H354 0.930 . S
C343 C345 1.392 . S
C343 C346 1.370 . S
C343 H355 0.931 . S
N344 C337 1.359 . S
N344 C345 1.327 . S
N344 Tb347 2.600 . S
C345 C343 1.392 . S
C345 N344 1.327 . S
C345 H352 0.930 . S
C346 C341 1.385 . S
C346 C343 1.370 . S
C346 H365 0.930 . S
Tb347 N344 2.600 . S
Tb347 N348 2.660 . S
Tb347 O381 2.362 . S
Tb347 O382 2.421 . S
Tb347 O386 2.546 . S
Tb347 O387 2.610 . S
Tb347 O389 2.320 . S
Tb347 O390 2.552 . S
Tb347 O391 2.413 . S
Tb347 C411 2.833 . S
N348 C340 1.360 . S
N348 Tb347 2.660 . S
N348 C349 1.305 . S
C349 N348 1.305 . S
C349 C351 1.407 . S
C349 H356 0.930 . S
C350 C338 1.410 . S
C350 C351 1.345 . S
C350 H358 0.930 . S
C351 C349 1.407 . S
C351 C350 1.345 . S
C351 H353 0.930 . S
H352 C345 0.930 . S
H353 C351 0.930 . S
H354 C342 0.930 . S
H355 C343 0.931 . S
H356 C349 0.930 . S
H357 C371 0.930 . S
H358 C350 0.930 . S
H359 C377 0.930 . S
H360 C368 0.930 . S
H361 C375 0.931 . S
H362 C339 0.929 . S
H363 C369 0.930 . S
H364 C402 0.930 . S
H365 C346 0.930 . S
H366 C401 0.929 . S
N367 Tb336 2.660 . S
N367 C368 1.305 . S
N367 C372 1.360 . S
C368 H360 0.930 . S
C368 N367 1.305 . S
C368 C371 1.407 . S
C369 H363 0.930 . S
C369 C370 1.410 . S
C369 C371 1.345 . S
C370 C369 1.410 . S
C370 C372 1.417 . S
C370 C402 1.432 . S
C371 H357 0.930 . S
C371 C368 1.407 . S
C371 C369 1.345 . S
C372 N367 1.360 . S
C372 C370 1.417 . S
C372 C376 1.432 . S
H373 C378 0.930 . S
N374 Tb336 2.600 . S
N374 C376 1.359 . S
N374 C377 1.327 . S
C375 H361 0.931 . S
C375 C377 1.392 . S
C375 C378 1.370 . S
C376 C372 1.432 . S
C376 N374 1.359 . S
C376 C379 1.414 . S
C377 H359 0.930 . S
C377 N374 1.327 . S
C377 C375 1.392 . S
C378 H373 0.930 . S
C378 C375 1.370 . S
C378 C379 1.385 . S
C379 C376 1.414 . S
C379 C378 1.385 . S
C379 C401 1.444 . S
O380 Tb336 2.546 . S
O380 C400 1.251 . S
O381 Tb336 2.610 . S
O381 Tb347 2.362 . S
O381 C392 1.283 . S
O382 Tb347 2.421 . S
O382 C399 1.262 . S
O383 Tb336 2.320 . S
O383 C399 1.260 . S
O384 Tb336 2.552 . S
O384 C392 1.243 . S
O385 Tb336 2.413 . S
O385 C400 1.256 . S
O386 Tb347 2.546 . S
O386 C411 1.251 . S
O387 Tb336 2.362 . S
O387 Tb347 2.610 . S
O387 C403 1.283 . S
O388 Tb336 2.421 . S
O388 C410 1.262 . S
O389 Tb347 2.320 . S
O389 C410 1.260 . S
O390 Tb347 2.552 . S
O390 C403 1.243 . S
O391 Tb347 2.413 . S
O391 C411 1.256 . S
C392 O381 1.283 . S
C392 O384 1.243 . S
C393 C395 1.382 . S
C393 C397 1.393 . S
C393 C400 1.500 . S
C394 C395 1.400 . S
C394 C396 1.384 . S
C395 C393 1.382 . S
C395 C394 1.400 . S
C395 H412 0.930 . S
C396 C394 1.384 . S
C396 C398 1.392 . S
C396 H413 0.931 . S
C397 C393 1.393 . S
C397 C398 1.401 . S
C397 H414 0.930 . S
C398 C396 1.392 . S
C398 C397 1.401 . S
C398 H415 0.930 . S
C399 O382 1.262 . S
C399 O383 1.260 . S
C400 Tb336 2.833 . S
C400 O380 1.251 . S
C400 O385 1.256 . S
C400 C393 1.500 . S
C401 H366 0.929 . S
C401 C379 1.444 . S
C401 C402 1.317 . S
C402 H364 0.930 . S
C402 C370 1.432 . S
C402 C401 1.317 . S
C403 O387 1.283 . S
C403 O390 1.243 . S
C404 C405 1.382 . S
C404 C408 1.393 . S
C404 C411 1.500 . S
C405 C404 1.382 . S
C405 C406 1.400 . S
C405 H416 0.930 . S
C406 C405 1.400 . S
C406 C407 1.384 . S
C407 C406 1.384 . S
C407 C409 1.392 . S
C407 H417 0.931 . S
C408 C404 1.393 . S
C408 C409 1.401 . S
C408 H418 0.930 . S
C409 C407 1.392 . S
C409 C408 1.401 . S
C409 H419 0.930 . S
C410 O388 1.262 . S
C410 O389 1.260 . S
C411 Tb347 2.833 . S
C411 O386 1.251 . S
C411 O391 1.256 . S
C411 C404 1.500 . S
H412 C395 0.930 . S
H413 C396 0.931 . S
H414 C397 0.930 . S
H415 C398 0.930 . S
H416 C405 0.930 . S
H417 C407 0.931 . S
H418 C408 0.930 . S
H419 C409 0.930 . S
Tb420 N451 2.660 . S
Tb420 N458 2.600 . S
Tb420 O464 2.546 . S
Tb420 O465 2.610 . S
Tb420 O467 2.320 . S
Tb420 O468 2.552 . S
Tb420 O469 2.413 . S
Tb420 O471 2.362 . S
Tb420 O472 2.421 . S
Tb420 C484 2.833 . S
C421 C424 1.432 . S
C421 C425 1.414 . S
C421 N428 1.359 . S
C422 C424 1.417 . S
C422 C426 1.432 . S
C422 C434 1.410 . S
C423 C425 1.444 . S
C423 C426 1.317 . S
C423 H446 0.929 . S
C424 C421 1.432 . S
C424 C422 1.417 . S
C424 N432 1.360 . S
C425 C421 1.414 . S
C425 C423 1.444 . S
C425 C430 1.385 . S
C426 C422 1.432 . S
C426 C423 1.317 . S
C426 H438 0.930 . S
C427 C429 1.392 . S
C427 C430 1.370 . S
C427 H439 0.931 . S
N428 C421 1.359 . S
N428 C429 1.327 . S
N428 Tb431 2.600 . S
C429 C427 1.392 . S
C429 N428 1.327 . S
C429 H436 0.930 . S
C430 C425 1.385 . S
C430 C427 1.370 . S
C430 H449 0.930 . S
Tb431 N428 2.600 . S
Tb431 N432 2.660 . S
Tb431 O465 2.362 . S
Tb431 O466 2.421 . S
Tb431 O470 2.546 . S
Tb431 O471 2.610 . S
Tb431 O473 2.320 . S
Tb431 O474 2.552 . S
Tb431 O475 2.413 . S
Tb431 C495 2.833 . S
N432 C424 1.360 . S
N432 Tb431 2.660 . S
N432 C433 1.305 . S
C433 N432 1.305 . S
C433 C435 1.407 . S
C433 H440 0.930 . S
C434 C422 1.410 . S
C434 C435 1.345 . S
C434 H442 0.930 . S
C435 C433 1.407 . S
C435 C434 1.345 . S
C435 H437 0.930 . S
H436 C429 0.930 . S
H437 C435 0.930 . S
H438 C426 0.930 . S
H439 C427 0.931 . S
H440 C433 0.930 . S
H441 C455 0.930 . S
H442 C434 0.930 . S
H443 C461 0.930 . S
H444 C452 0.930 . S
H445 C459 0.931 . S
H446 C423 0.929 . S
H447 C453 0.930 . S
H448 C486 0.930 . S
H449 C430 0.930 . S
H450 C485 0.929 . S
N451 Tb420 2.660 . S
N451 C452 1.305 . S
N451 C456 1.360 . S
C452 H444 0.930 . S
C452 N451 1.305 . S
C452 C455 1.407 . S
C453 H447 0.930 . S
C453 C454 1.410 . S
C453 C455 1.345 . S
C454 C453 1.410 . S
C454 C456 1.417 . S
C454 C486 1.432 . S
C455 H441 0.930 . S
C455 C452 1.407 . S
C455 C453 1.345 . S
C456 N451 1.360 . S
C456 C454 1.417 . S
C456 C460 1.432 . S
H457 C462 0.930 . S
N458 Tb420 2.600 . S
N458 C460 1.359 . S
N458 C461 1.327 . S
C459 H445 0.931 . S
C459 C461 1.392 . S
C459 C462 1.370 . S
C460 C456 1.432 . S
C460 N458 1.359 . S
C460 C463 1.414 . S
C461 H443 0.930 . S
C461 N458 1.327 . S
C461 C459 1.392 . S
C462 H457 0.930 . S
C462 C459 1.370 . S
C462 C463 1.385 . S
C463 C460 1.414 . S
C463 C462 1.385 . S
C463 C485 1.444 . S
O464 Tb420 2.546 . S
O464 C484 1.251 . S
O465 Tb420 2.610 . S
O465 Tb431 2.362 . S
O465 C476 1.283 . S
O466 Tb431 2.421 . S
O466 C483 1.262 . S
O467 Tb420 2.320 . S
O467 C483 1.260 . S
O468 Tb420 2.552 . S
O468 C476 1.243 . S
O469 Tb420 2.413 . S
O469 C484 1.256 . S
O470 Tb431 2.546 . S
O470 C495 1.251 . S
O471 Tb420 2.362 . S
O471 Tb431 2.610 . S
O471 C487 1.283 . S
O472 Tb420 2.421 . S
O472 C494 1.262 . S
O473 Tb431 2.320 . S
O473 C494 1.260 . S
O474 Tb431 2.552 . S
O474 C487 1.243 . S
O475 Tb431 2.413 . S
O475 C495 1.256 . S
C476 O465 1.283 . S
C476 O468 1.243 . S
C477 C479 1.382 . S
C477 C481 1.393 . S
C477 C484 1.500 . S
C478 C479 1.400 . S
C478 C480 1.384 . S
C479 C477 1.382 . S
C479 C478 1.400 . S
C479 H496 0.930 . S
C480 C478 1.384 . S
C480 C482 1.392 . S
C480 H497 0.931 . S
C481 C477 1.393 . S
C481 C482 1.401 . S
C481 H498 0.930 . S
C482 C480 1.392 . S
C482 C481 1.401 . S
C482 H499 0.930 . S
C483 O466 1.262 . S
C483 O467 1.260 . S
C484 Tb420 2.833 . S
C484 O464 1.251 . S
C484 O469 1.256 . S
C484 C477 1.500 . S
C485 H450 0.929 . S
C485 C463 1.444 . S
C485 C486 1.317 . S
C486 H448 0.930 . S
C486 C454 1.432 . S
C486 C485 1.317 . S
C487 O471 1.283 . S
C487 O474 1.243 . S
C488 C489 1.382 . S
C488 C492 1.393 . S
C488 C495 1.500 . S
C489 C488 1.382 . S
C489 C490 1.400 . S
C489 H500 0.930 . S
C490 C489 1.400 . S
C490 C491 1.384 . S
C491 C490 1.384 . S
C491 C493 1.392 . S
C491 H501 0.931 . S
C492 C488 1.393 . S
C492 C493 1.401 . S
C492 H502 0.930 . S
C493 C491 1.392 . S
C493 C492 1.401 . S
C493 H503 0.930 . S
C494 O472 1.262 . S
C494 O473 1.260 . S
C495 Tb431 2.833 . S
C495 O470 1.251 . S
C495 O475 1.256 . S
C495 C488 1.500 . S
H496 C479 0.930 . S
H497 C480 0.931 . S
H498 C481 0.930 . S
H499 C482 0.930 . S
H500 C489 0.930 . S
H501 C491 0.931 . S
H502 C492 0.930 . S
H503 C493 0.930 . S
Tb504 N535 2.660 . S
Tb504 N542 2.600 . S
Tb504 O548 2.546 . S
Tb504 O549 2.610 . S
Tb504 O551 2.320 . S
Tb504 O552 2.552 . S
Tb504 O553 2.413 . S
Tb504 O555 2.362 . S
Tb504 O556 2.421 . S
Tb504 C568 2.833 . S
C505 C508 1.432 . S
C505 C509 1.414 . S
C505 N512 1.359 . S
C506 C508 1.417 . S
C506 C510 1.432 . S
C506 C518 1.410 . S
C507 C509 1.444 . S
C507 C510 1.317 . S
C507 H530 0.929 . S
C508 C505 1.432 . S
C508 C506 1.417 . S
C508 N516 1.360 . S
C509 C505 1.414 . S
C509 C507 1.444 . S
C509 C514 1.385 . S
C510 C506 1.432 . S
C510 C507 1.317 . S
C510 H522 0.930 . S
C511 C513 1.392 . S
C511 C514 1.370 . S
C511 H523 0.931 . S
N512 C505 1.359 . S
N512 C513 1.327 . S
N512 Tb515 2.600 . S
C513 C511 1.392 . S
C513 N512 1.327 . S
C513 H520 0.930 . S
C514 C509 1.385 . S
C514 C511 1.370 . S
C514 H533 0.930 . S
Tb515 N512 2.600 . S
Tb515 N516 2.660 . S
Tb515 O549 2.362 . S
Tb515 O550 2.421 . S
Tb515 O554 2.546 . S
Tb515 O555 2.610 . S
Tb515 O557 2.320 . S
Tb515 O558 2.552 . S
Tb515 O559 2.413 . S
Tb515 C579 2.833 . S
N516 C508 1.360 . S
N516 Tb515 2.660 . S
N516 C517 1.305 . S
C517 N516 1.305 . S
C517 C519 1.407 . S
C517 H524 0.930 . S
C518 C506 1.410 . S
C518 C519 1.345 . S
C518 H526 0.930 . S
C519 C517 1.407 . S
C519 C518 1.345 . S
C519 H521 0.930 . S
H520 C513 0.930 . S
H521 C519 0.930 . S
H522 C510 0.930 . S
H523 C511 0.931 . S
H524 C517 0.930 . S
H525 C539 0.930 . S
H526 C518 0.930 . S
H527 C545 0.930 . S
H528 C536 0.930 . S
H529 C543 0.931 . S
H530 C507 0.929 . S
H531 C537 0.930 . S
H532 C570 0.930 . S
H533 C514 0.930 . S
H534 C569 0.929 . S
N535 Tb504 2.660 . S
N535 C536 1.305 . S
N535 C540 1.360 . S
C536 H528 0.930 . S
C536 N535 1.305 . S
C536 C539 1.407 . S
C537 H531 0.930 . S
C537 C538 1.410 . S
C537 C539 1.345 . S
C538 C537 1.410 . S
C538 C540 1.417 . S
C538 C570 1.432 . S
C539 H525 0.930 . S
C539 C536 1.407 . S
C539 C537 1.345 . S
C540 N535 1.360 . S
C540 C538 1.417 . S
C540 C544 1.432 . S
H541 C546 0.930 . S
N542 Tb504 2.600 . S
N542 C544 1.359 . S
N542 C545 1.327 . S
C543 H529 0.931 . S
C543 C545 1.392 . S
C543 C546 1.370 . S
C544 C540 1.432 . S
C544 N542 1.359 . S
C544 C547 1.414 . S
C545 H527 0.930 . S
C545 N542 1.327 . S
C545 C543 1.392 . S
C546 H541 0.930 . S
C546 C543 1.370 . S
C546 C547 1.385 . S
C547 C544 1.414 . S
C547 C546 1.385 . S
C547 C569 1.444 . S
O548 Tb504 2.546 . S
O548 C568 1.251 . S
O549 Tb504 2.610 . S
O549 Tb515 2.362 . S
O549 C560 1.283 . S
O550 Tb515 2.421 . S
O550 C567 1.262 . S
O551 Tb504 2.320 . S
O551 C567 1.260 . S
O552 Tb504 2.552 . S
O552 C560 1.243 . S
O553 Tb504 2.413 . S
O553 C568 1.256 . S
O554 Tb515 2.546 . S
O554 C579 1.251 . S
O555 Tb504 2.362 . S
O555 Tb515 2.610 . S
O555 C571 1.283 . S
O556 Tb504 2.421 . S
O556 C578 1.262 . S
O557 Tb515 2.320 . S
O557 C578 1.260 . S
O558 Tb515 2.552 . S
O558 C571 1.243 . S
O559 Tb515 2.413 . S
O559 C579 1.256 . S
C560 O549 1.283 . S
C560 O552 1.243 . S
C561 C563 1.382 . S
C561 C565 1.393 . S
C561 C568 1.500 . S
C562 C563 1.400 . S
C562 C564 1.384 . S
C563 C561 1.382 . S
C563 C562 1.400 . S
C563 H580 0.930 . S
C564 C562 1.384 . S
C564 C566 1.392 . S
C564 H581 0.931 . S
C565 C561 1.393 . S
C565 C566 1.401 . S
C565 H582 0.930 . S
C566 C564 1.392 . S
C566 C565 1.401 . S
C566 H583 0.930 . S
C567 O550 1.262 . S
C567 O551 1.260 . S
C568 Tb504 2.833 . S
C568 O548 1.251 . S
C568 O553 1.256 . S
C568 C561 1.500 . S
C569 H534 0.929 . S
C569 C547 1.444 . S
C569 C570 1.317 . S
C570 H532 0.930 . S
C570 C538 1.432 . S
C570 C569 1.317 . S
C571 O555 1.283 . S
C571 O558 1.243 . S
C572 C573 1.382 . S
C572 C576 1.393 . S
C572 C579 1.500 . S
C573 C572 1.382 . S
C573 C574 1.400 . S
C573 H584 0.930 . S
C574 C573 1.400 . S
C574 C575 1.384 . S
C575 C574 1.384 . S
C575 C577 1.392 . S
C575 H585 0.931 . S
C576 C572 1.393 . S
C576 C577 1.401 . S
C576 H586 0.930 . S
C577 C575 1.392 . S
C577 C576 1.401 . S
C577 H587 0.930 . S
C578 O556 1.262 . S
C578 O557 1.260 . S
C579 Tb515 2.833 . S
C579 O554 1.251 . S
C579 O559 1.256 . S
C579 C572 1.500 . S
H580 C563 0.930 . S
H581 C564 0.931 . S
H582 C565 0.930 . S
H583 C566 0.930 . S
H584 C573 0.930 . S
H585 C575 0.931 . S
H586 C576 0.930 . S
H587 C577 0.930 . S
Tb588 N619 2.660 . S
Tb588 N626 2.600 . S
Tb588 O632 2.546 . S
Tb588 O633 2.610 . S
Tb588 O635 2.320 . S
Tb588 O636 2.552 . S
Tb588 O637 2.413 . S
Tb588 O639 2.362 . S
Tb588 O640 2.421 . S
Tb588 C652 2.833 . S
C589 C592 1.432 . S
C589 C593 1.414 . S
C589 N596 1.359 . S
C590 C592 1.417 . S
C590 C594 1.432 . S
C590 C602 1.410 . S
C591 C593 1.444 . S
C591 C594 1.317 . S
C591 H614 0.929 . S
C592 C589 1.432 . S
C592 C590 1.417 . S
C592 N600 1.360 . S
C593 C589 1.414 . S
C593 C591 1.444 . S
C593 C598 1.385 . S
C594 C590 1.432 . S
C594 C591 1.317 . S
C594 H606 0.930 . S
C595 C597 1.392 . S
C595 C598 1.370 . S
C595 H607 0.931 . S
N596 C589 1.359 . S
N596 C597 1.327 . S
N596 Tb599 2.600 . S
C597 C595 1.392 . S
C597 N596 1.327 . S
C597 H604 0.930 . S
C598 C593 1.385 . S
C598 C595 1.370 . S
C598 H617 0.930 . S
Tb599 N596 2.600 . S
Tb599 N600 2.660 . S
Tb599 O633 2.362 . S
Tb599 O634 2.421 . S
Tb599 O638 2.546 . S
Tb599 O639 2.610 . S
Tb599 O641 2.320 . S
Tb599 O642 2.552 . S
Tb599 O643 2.413 . S
Tb599 C663 2.833 . S
N600 C592 1.360 . S
N600 Tb599 2.660 . S
N600 C601 1.305 . S
C601 N600 1.305 . S
C601 C603 1.407 . S
C601 H608 0.930 . S
C602 C590 1.410 . S
C602 C603 1.345 . S
C602 H610 0.930 . S
C603 C601 1.407 . S
C603 C602 1.345 . S
C603 H605 0.930 . S
H604 C597 0.930 . S
H605 C603 0.930 . S
H606 C594 0.930 . S
H607 C595 0.931 . S
H608 C601 0.930 . S
H609 C623 0.930 . S
H610 C602 0.930 . S
H611 C629 0.930 . S
H612 C620 0.930 . S
H613 C627 0.931 . S
H614 C591 0.929 . S
H615 C621 0.930 . S
H616 C654 0.930 . S
H617 C598 0.930 . S
H618 C653 0.929 . S
N619 Tb588 2.660 . S
N619 C620 1.305 . S
N619 C624 1.360 . S
C620 H612 0.930 . S
C620 N619 1.305 . S
C620 C623 1.407 . S
C621 H615 0.930 . S
C621 C622 1.410 . S
C621 C623 1.345 . S
C622 C621 1.410 . S
C622 C624 1.417 . S
C622 C654 1.432 . S
C623 H609 0.930 . S
C623 C620 1.407 . S
C623 C621 1.345 . S
C624 N619 1.360 . S
C624 C622 1.417 . S
C624 C628 1.432 . S
H625 C630 0.930 . S
N626 Tb588 2.600 . S
N626 C628 1.359 . S
N626 C629 1.327 . S
C627 H613 0.931 . S
C627 C629 1.392 . S
C627 C630 1.370 . S
C628 C624 1.432 . S
C628 N626 1.359 . S
C628 C631 1.414 . S
C629 H611 0.930 . S
C629 N626 1.327 . S
C629 C627 1.392 . S
C630 H625 0.930 . S
C630 C627 1.370 . S
C630 C631 1.385 . S
C631 C628 1.414 . S
C631 C630 1.385 . S
C631 C653 1.444 . S
O632 Tb588 2.546 . S
O632 C652 1.251 . S
O633 Tb588 2.610 . S
O633 Tb599 2.362 . S
O633 C644 1.283 . S
O634 Tb599 2.421 . S
O634 C651 1.262 . S
O635 Tb588 2.320 . S
O635 C651 1.260 . S
O636 Tb588 2.552 . S
O636 C644 1.243 . S
O637 Tb588 2.413 . S
O637 C652 1.256 . S
O638 Tb599 2.546 . S
O638 C663 1.251 . S
O639 Tb588 2.362 . S
O639 Tb599 2.610 . S
O639 C655 1.283 . S
O640 Tb588 2.421 . S
O640 C662 1.262 . S
O641 Tb599 2.320 . S
O641 C662 1.260 . S
O642 Tb599 2.552 . S
O642 C655 1.243 . S
O643 Tb599 2.413 . S
O643 C663 1.256 . S
C644 O633 1.283 . S
C644 O636 1.243 . S
C645 C647 1.382 . S
C645 C649 1.393 . S
C645 C652 1.500 . S
C646 C647 1.400 . S
C646 C648 1.384 . S
C647 C645 1.382 . S
C647 C646 1.400 . S
C647 H664 0.930 . S
C648 C646 1.384 . S
C648 C650 1.392 . S
C648 H665 0.931 . S
C649 C645 1.393 . S
C649 C650 1.401 . S
C649 H666 0.930 . S
C650 C648 1.392 . S
C650 C649 1.401 . S
C650 H667 0.930 . S
C651 O634 1.262 . S
C651 O635 1.260 . S
C652 Tb588 2.833 . S
C652 O632 1.251 . S
C652 O637 1.256 . S
C652 C645 1.500 . S
C653 H618 0.929 . S
C653 C631 1.444 . S
C653 C654 1.317 . S
C654 H616 0.930 . S
C654 C622 1.432 . S
C654 C653 1.317 . S
C655 O639 1.283 . S
C655 O642 1.243 . S
C656 C657 1.382 . S
C656 C660 1.393 . S
C656 C663 1.500 . S
C657 C656 1.382 . S
C657 C658 1.400 . S
C657 H668 0.930 . S
C658 C657 1.400 . S
C658 C659 1.384 . S
C659 C658 1.384 . S
C659 C661 1.392 . S
C659 H669 0.931 . S
C660 C656 1.393 . S
C660 C661 1.401 . S
C660 H670 0.930 . S
C661 C659 1.392 . S
C661 C660 1.401 . S
C661 H671 0.930 . S
C662 O640 1.262 . S
C662 O641 1.260 . S
C663 Tb599 2.833 . S
C663 O638 1.251 . S
C663 O643 1.256 . S
C663 C656 1.500 . S
H664 C647 0.930 . S
H665 C648 0.931 . S
H666 C649 0.930 . S
H667 C650 0.930 . S
H668 C657 0.930 . S
H669 C659 0.931 . S
H670 C660 0.930 . S
H671 C661 0.930 . S
Cd672 N675 2.334 1_655 S
Cd672 N701 2.304 1_565 S
Cd672 O708 2.268 . S
Cd672 O711 2.273 1_665 S
Cd672 O712 2.417 . S
Cd672 O713 2.330 . S
Cd673 N688 2.304 1_455 S
Cd673 N692 2.334 1_545 S
Cd673 O709 2.273 1_445 S
Cd673 O710 2.268 . S
Cd673 O714 2.417 . S
Cd673 O715 2.330 . S
C674 N675 1.332 . S
C674 C678 1.381 . S
C674 H680 0.931 . S
N675 Cd672 2.334 1_455 S
N675 C674 1.332 . S
N675 C679 1.328 . S
C676 C677 1.396 . S
C676 C679 1.378 . S
C676 H718 0.931 . S
C677 C676 1.396 . S
C677 C678 1.382 . S
C678 C674 1.381 . S
C678 C677 1.382 . S
C678 H719 0.930 . S
C679 N675 1.328 . S
C679 C676 1.378 . S
C679 H681 0.930 1_455 S
H680 C674 0.931 . S
H681 C679 0.930 1_655 S
C682 O708 1.238 . S
C682 O709 1.253 . S
C683 C684 1.379 . S
C683 N688 1.337 . S
C683 H689 0.929 . S
C684 C683 1.379 . S
C684 C685 1.380 . S
C684 H720 0.929 . S
C685 C684 1.380 . S
C685 C686 1.399 . S
C686 C685 1.399 . S
C686 C687 1.376 . S
C686 H721 0.931 . S
C687 C686 1.376 . S
C687 N688 1.338 . S
C687 H690 0.930 1_655 S
N688 Cd673 2.304 1_655 S
N688 C683 1.337 . S
N688 C687 1.338 . S
H689 C683 0.929 . S
H690 C687 0.930 1_455 S
C691 N692 1.332 . S
C691 C695 1.381 . S
C691 H697 0.931 . S
N692 Cd673 2.334 1_565 S
N692 C691 1.332 . S
N692 C696 1.328 . S
C693 C694 1.396 . S
C693 C696 1.378 . S
C693 H722 0.931 . S
C694 C693 1.396 . S
C694 C695 1.382 . S
C695 C691 1.381 . S
C695 C694 1.382 . S
C695 H723 0.930 . S
C696 N692 1.328 . S
C696 C693 1.378 . S
C696 H698 0.930 1_565 S
H697 C691 0.931 . S
H698 C696 0.930 1_545 S
C699 O710 1.238 . S
C699 O711 1.253 . S
C700 O712 1.239 . S
C700 O713 1.230 . S
N701 Cd672 2.304 1_545 S
N701 C702 1.337 . S
N701 C706 1.338 . S
C702 N701 1.337 . S
C702 C703 1.379 . S
C702 H716 0.929 . S
C703 C702 1.379 . S
C703 C704 1.380 . S
C703 H724 0.929 . S
C704 C703 1.380 . S
C704 C705 1.399 . S
C705 C704 1.399 . S
C705 C706 1.376 . S
C705 H725 0.931 . S
C706 N701 1.338 . S
C706 C705 1.376 . S
C706 H717 0.930 1_545 S
C707 O714 1.239 . S
C707 O715 1.230 . S
O708 Cd672 2.268 . S
O708 C682 1.238 . S
O709 Cd673 2.273 1_665 S
O709 C682 1.253 . S
O710 Cd673 2.268 . S
O710 C699 1.238 . S
O711 Cd672 2.273 1_445 S
O711 C699 1.253 . S
O712 Cd672 2.417 . S
O712 C700 1.239 . S
O713 Cd672 2.330 . S
O713 C700 1.230 . S
O714 Cd673 2.417 . S
O714 C707 1.239 . S
O715 Cd673 2.330 . S
O715 C707 1.230 . S
H716 C702 0.929 . S
H717 C706 0.930 1_565 S
H718 C676 0.931 . S
H719 C678 0.930 . S
H720 C684 0.929 . S
H721 C686 0.931 . S
H722 C693 0.931 . S
H723 C695 0.930 . S
H724 C703 0.929 . S
H725 C705 0.931 . S
Cd726 N729 2.334 . S
Cd726 N755 2.304 1_565 S
Cd726 O762 2.268 1_554 S
Cd726 O765 2.273 1_565 S
Cd726 O766 2.417 . S
Cd726 O767 2.330 . S
Cd727 N742 2.304 . S
Cd727 N746 2.334 1_545 S
Cd727 O763 2.273 1_545 S
Cd727 O764 2.268 1_556 S
Cd727 O768 2.417 . S
Cd727 O769 2.330 . S
C728 N729 1.332 . S
C728 C732 1.381 . S
C728 H734 0.931 . S
N729 Cd726 2.334 . S
N729 C728 1.332 . S
N729 C733 1.328 . S
C730 C731 1.396 . S
C730 C733 1.378 . S
C730 H772 0.931 . S
C731 C730 1.396 . S
C731 C732 1.382 . S
C732 C728 1.381 . S
C732 C731 1.382 . S
C732 H773 0.930 . S
C733 N729 1.328 . S
C733 C730 1.378 . S
C733 H735 0.930 . S
H734 C728 0.931 . S
H735 C733 0.930 . S
C736 O762 1.238 . S
C736 O763 1.253 . S
C737 C738 1.379 . S
C737 N742 1.337 . S
C737 H743 0.929 . S
C738 C737 1.379 . S
C738 C739 1.380 . S
C738 H774 0.929 . S
C739 C738 1.380 . S
C739 C740 1.399 . S
C740 C739 1.399 . S
C740 C741 1.376 . S
C740 H775 0.945 . S
C741 C740 1.376 . S
C741 N742 1.338 . S
C741 H744 0.930 1_556 S
N742 Cd727 2.304 . S
N742 C737 1.337 . S
N742 C741 1.338 . S
H743 C737 0.929 . S
H744 C741 0.930 1_554 S
C745 N746 1.332 . S
C745 C749 1.381 . S
C745 H751 0.931 . S
N746 Cd727 2.334 1_565 S
N746 C745 1.332 . S
N746 C750 1.328 . S
C747 C748 1.396 . S
C747 C750 1.378 . S
C747 H776 0.931 1_556 S
C748 C747 1.396 . S
C748 C749 1.382 . S
C749 C745 1.381 . S
C749 C748 1.382 . S
C749 H777 0.930 . S
C750 N746 1.328 . S
C750 C747 1.378 . S
C750 H752 0.930 1_566 S
H751 C745 0.931 . S
H752 C750 0.930 1_544 S
C753 O764 1.238 . S
C753 O765 1.253 . S
C754 O766 1.239 . S
C754 O767 1.230 . S
N755 Cd726 2.304 1_545 S
N755 C756 1.337 . S
N755 C760 1.338 . S
C756 N755 1.337 . S
C756 C757 1.379 . S
C756 H770 0.929 . S
C757 C756 1.379 . S
C757 C758 1.380 . S
C757 H778 0.929 . S
C758 C757 1.380 . S
C758 C759 1.399 . S
C759 C758 1.399 . S
C759 C760 1.376 . S
C759 H779 0.931 1_554 S
C760 N755 1.338 . S
C760 C759 1.376 . S
C760 H771 0.930 1_544 S
C761 O768 1.239 . S
C761 O769 1.230 . S
O762 Cd726 2.268 1_556 S
O762 C736 1.238 . S
O763 Cd727 2.273 1_565 S
O763 C736 1.253 . S
O764 Cd727 2.268 1_554 S
O764 C753 1.238 . S
O765 Cd726 2.273 1_545 S
O765 C753 1.253 . S
O766 Cd726 2.417 . S
O766 C754 1.239 . S
O767 Cd726 2.330 . S
O767 C754 1.230 . S
O768 Cd727 2.417 . S
O768 C761 1.239 . S
O769 Cd727 2.330 . S
O769 C761 1.230 . S
H770 C756 0.929 . S
H771 C760 0.930 1_566 S
H772 C730 0.931 . S
H773 C732 0.930 . S
H774 C738 0.929 . S
H775 C740 0.945 . S
H776 C747 0.931 1_554 S
H777 C749 0.930 . S
H778 C757 0.929 . S
H779 C759 0.931 1_556 S
Cd780 N783 2.334 1_655 S
Cd780 N809 2.304 . S
Cd780 O816 2.268 1_554 S
Cd780 O819 2.273 1_655 S
Cd780 O820 2.417 . S
Cd780 O821 2.330 . S
Cd781 N796 2.304 1_455 S
Cd781 N800 2.334 . S
Cd781 O817 2.273 1_455 S
Cd781 O818 2.268 1_556 S
Cd781 O822 2.417 . S
Cd781 O823 2.330 . S
C782 N783 1.332 . S
C782 C786 1.381 . S
C782 H788 0.931 . S
N783 Cd780 2.334 1_455 S
N783 C782 1.332 . S
N783 C787 1.328 . S
C784 C785 1.396 . S
C784 C787 1.378 . S
C784 H826 0.931 . S
C785 C784 1.396 . S
C785 C786 1.382 . S
C786 C782 1.381 . S
C786 C785 1.382 . S
C786 H827 0.930 . S
C787 N783 1.328 . S
C787 C784 1.378 . S
C787 H789 0.930 1_455 S
H788 C782 0.931 . S
H789 C787 0.930 1_655 S
C790 O816 1.238 . S
C790 O817 1.253 . S
C791 C792 1.379 . S
C791 N796 1.337 . S
C791 H797 0.929 . S
C792 C791 1.379 . S
C792 C793 1.380 . S
C792 H828 0.929 . S
C793 C792 1.380 . S
C793 C794 1.399 . S
C794 C793 1.399 . S
C794 C795 1.376 . S
C794 H829 0.945 . S
C795 C794 1.376 . S
C795 N796 1.338 . S
C795 H798 0.930 1_656 S
N796 Cd781 2.304 1_655 S
N796 C791 1.337 . S
N796 C795 1.338 . S
H797 C791 0.929 . S
H798 C795 0.930 1_454 S
C799 N800 1.332 . S
C799 C803 1.381 . S
C799 H805 0.931 . S
N800 Cd781 2.334 . S
N800 C799 1.332 . S
N800 C804 1.328 . S
C801 C802 1.396 . S
C801 C804 1.378 . S
C801 H830 0.931 1_556 S
C802 C801 1.396 . S
C802 C803 1.382 . S
C803 C799 1.381 . S
C803 C802 1.382 . S
C803 H831 0.930 . S
C804 N800 1.328 . S
C804 C801 1.378 . S
C804 H806 0.930 1_556 S
H805 C799 0.931 . S
H806 C804 0.930 1_554 S
C807 O818 1.238 . S
C807 O819 1.253 . S
C808 O820 1.239 . S
C808 O821 1.230 . S
N809 Cd780 2.304 . S
N809 C810 1.337 . S
N809 C814 1.338 . S
C810 N809 1.337 . S
C810 C811 1.379 . S
C810 H824 0.929 . S
C811 C810 1.379 . S
C811 C812 1.380 . S
C811 H832 0.929 . S
C812 C811 1.380 . S
C812 C813 1.399 . S
C813 C812 1.399 . S
C813 C814 1.376 . S
C813 H833 0.931 1_554 S
C814 N809 1.338 . S
C814 C813 1.376 . S
C814 H825 0.930 1_554 S
C815 O822 1.239 . S
C815 O823 1.230 . S
O816 Cd780 2.268 1_556 S
O816 C790 1.238 . S
O817 Cd781 2.273 1_655 S
O817 C790 1.253 . S
O818 Cd781 2.268 1_554 S
O818 C807 1.238 . S
O819 Cd780 2.273 1_455 S
O819 C807 1.253 . S
O820 Cd780 2.417 . S
O820 C808 1.239 . S
O821 Cd780 2.330 . S
O821 C808 1.230 . S
O822 Cd781 2.417 . S
O822 C815 1.239 . S
O823 Cd781 2.330 . S
O823 C815 1.230 . S
H824 C810 0.929 . S
H825 C814 0.930 1_556 S
H826 C784 0.931 . S
H827 C786 0.930 . S
H828 C792 0.929 . S
H829 C794 0.945 . S
H830 C801 0.931 1_554 S
H831 C803 0.930 . S
H832 C811 0.929 . S
H833 C813 0.931 1_556 S
Cd834 N837 2.334 . S
Cd834 N863 2.304 . S
Cd834 O870 2.268 1_554 S
Cd834 O873 2.273 . S
Cd834 O874 2.417 . S
Cd834 O875 2.330 . S
Cd835 N850 2.304 . S
Cd835 N854 2.334 . S
Cd835 O871 2.273 . S
Cd835 O872 2.268 1_556 S
Cd835 O876 2.417 . S
Cd835 O877 2.330 . S
C836 N837 1.332 . S
C836 C840 1.381 . S
C836 H842 0.931 . S
N837 Cd834 2.334 . S
N837 C836 1.332 . S
N837 C841 1.328 . S
C838 C839 1.396 . S
C838 C841 1.378 . S
C838 H880 0.931 . S
C839 C838 1.396 . S
C839 C840 1.382 . S
C840 C836 1.381 . S
C840 C839 1.382 . S
C840 H881 0.930 . S
C841 N837 1.328 . S
C841 C838 1.378 . S
C841 H843 0.929 . S
H842 C836 0.931 . S
H843 C841 0.929 . S
C844 O870 1.238 . S
C844 O871 1.253 . S
C845 C846 1.379 . S
C845 N850 1.337 . S
C845 H851 0.929 . S
C846 C845 1.379 . S
C846 C847 1.380 . S
C846 H882 0.929 . S
C847 C846 1.380 . S
C847 C848 1.399 . S
C848 C847 1.399 . S
C848 C849 1.376 . S
C848 H883 0.946 . S
C849 C848 1.376 . S
C849 N850 1.338 . S
C849 H852 0.930 1_556 S
N850 Cd835 2.304 . S
N850 C845 1.337 . S
N850 C849 1.338 . S
H851 C845 0.929 . S
H852 C849 0.930 1_554 S
C853 N854 1.332 . S
C853 C857 1.381 . S
C853 H859 0.931 . S
N854 Cd835 2.334 . S
N854 C853 1.332 . S
N854 C858 1.328 . S
C855 C856 1.396 . S
C855 C858 1.378 . S
C855 H884 0.931 1_556 S
C856 C855 1.396 . S
C856 C857 1.382 . S
C857 C853 1.381 . S
C857 C856 1.382 . S
C857 H885 0.930 . S
C858 N854 1.328 . S
C858 C855 1.378 . S
C858 H860 0.930 1_556 S
H859 C853 0.931 . S
H860 C858 0.930 1_554 S
C861 O872 1.238 . S
C861 O873 1.253 . S
C862 O874 1.239 . S
C862 O875 1.230 . S
N863 Cd834 2.304 . S
N863 C864 1.337 . S
N863 C868 1.338 . S
C864 N863 1.337 . S
C864 C865 1.379 . S
C864 H878 0.929 . S
C865 C864 1.379 . S
C865 C866 1.380 . S
C865 H886 0.929 . S
C866 C865 1.380 . S
C866 C867 1.399 . S
C867 C866 1.399 . S
C867 C868 1.376 . S
C867 H887 0.931 1_554 S
C868 N863 1.338 . S
C868 C867 1.376 . S
C868 H879 0.930 1_554 S
C869 O876 1.239 . S
C869 O877 1.230 . S
O870 Cd834 2.268 1_556 S
O870 C844 1.238 . S
O871 Cd835 2.273 . S
O871 C844 1.253 . S
O872 Cd835 2.268 1_554 S
O872 C861 1.238 . S
O873 Cd834 2.273 . S
O873 C861 1.253 . S
O874 Cd834 2.417 . S
O874 C862 1.239 . S
O875 Cd834 2.330 . S
O875 C862 1.230 . S
O876 Cd835 2.417 . S
O876 C869 1.239 . S
O877 Cd835 2.330 . S
O877 C869 1.230 . S
H878 C864 0.929 . S
H879 C868 0.930 1_556 S
H880 C838 0.931 . S
H881 C840 0.930 . S
H882 C846 0.929 . S
H883 C848 0.946 . S
H884 C855 0.931 1_554 S
H885 C857 0.930 . S
H886 C865 0.929 . S
H887 C867 0.931 1_556 S
Cd888 N891 2.334 1_655 S
Cd888 N917 2.304 . S
Cd888 O924 2.268 . S
Cd888 O927 2.273 1_655 S
Cd888 O928 2.417 . S
Cd888 O929 2.330 . S
Cd889 N904 2.304 1_455 S
Cd889 N908 2.334 . S
Cd889 O925 2.273 1_455 S
Cd889 O926 2.268 . S
Cd889 O930 2.417 . S
Cd889 O931 2.330 . S
C890 N891 1.332 . S
C890 C894 1.381 . S
C890 H896 0.931 . S
N891 Cd888 2.334 1_455 S
N891 C890 1.332 . S
N891 C895 1.328 . S
C892 C893 1.396 . S
C892 C895 1.378 . S
C892 H934 0.931 . S
C893 C892 1.396 . S
C893 C894 1.382 . S
C894 C890 1.381 . S
C894 C893 1.382 . S
C894 H935 0.930 . S
C895 N891 1.328 . S
C895 C892 1.378 . S
C895 H897 0.930 1_455 S
H896 C890 0.931 . S
H897 C895 0.930 1_655 S
C898 O924 1.238 . S
C898 O925 1.253 . S
C899 C900 1.379 . S
C899 N904 1.337 . S
C899 H905 0.929 . S
C900 C899 1.379 . S
C900 C901 1.380 . S
C900 H936 0.929 . S
C901 C900 1.380 . S
C901 C902 1.399 . S
C902 C901 1.399 . S
C902 C903 1.376 . S
C902 H937 0.931 . S
C903 C902 1.376 . S
C903 N904 1.338 . S
C903 H906 0.930 1_655 S
N904 Cd889 2.304 1_655 S
N904 C899 1.337 . S
N904 C903 1.338 . S
H905 C899 0.929 . S
H906 C903 0.930 1_455 S
C907 N908 1.332 . S
C907 C911 1.381 . S
C907 H913 0.931 . S
N908 Cd889 2.334 . S
N908 C907 1.332 . S
N908 C912 1.328 . S
C909 C910 1.396 . S
C909 C912 1.378 . S
C909 H938 0.931 . S
C910 C909 1.396 . S
C910 C911 1.382 . S
C911 C907 1.381 . S
C911 C910 1.382 . S
C911 H939 0.930 . S
C912 N908 1.328 . S
C912 C909 1.378 . S
C912 H914 0.930 . S
H913 C907 0.931 . S
H914 C912 0.930 . S
C915 O926 1.238 . S
C915 O927 1.253 . S
C916 O928 1.239 . S
C916 O929 1.230 . S
N917 Cd888 2.304 . S
N917 C918 1.337 . S
N917 C922 1.338 . S
C918 N917 1.337 . S
C918 C919 1.379 . S
C918 H932 0.929 . S
C919 C918 1.379 . S
C919 C920 1.380 . S
C919 H940 0.929 . S
C920 C919 1.380 . S
C920 C921 1.399 . S
C921 C920 1.399 . S
C921 C922 1.376 . S
C921 H941 0.931 . S
C922 N917 1.338 . S
C922 C921 1.376 . S
C922 H933 0.930 . S
C923 O930 1.239 . S
C923 O931 1.230 . S
O924 Cd888 2.268 . S
O924 C898 1.238 . S
O925 Cd889 2.273 1_655 S
O925 C898 1.253 . S
O926 Cd889 2.268 . S
O926 C915 1.238 . S
O927 Cd888 2.273 1_455 S
O927 C915 1.253 . S
O928 Cd888 2.417 . S
O928 C916 1.239 . S
O929 Cd888 2.330 . S
O929 C916 1.230 . S
O930 Cd889 2.417 . S
O930 C923 1.239 . S
O931 Cd889 2.330 . S
O931 C923 1.230 . S
H932 C918 0.929 . S
H933 C922 0.930 . S
H934 C892 0.931 . S
H935 C894 0.930 . S
H936 C900 0.929 . S
H937 C902 0.931 . S
H938 C909 0.931 . S
H939 C911 0.930 . S
H940 C919 0.929 . S
H941 C921 0.931 . S
Cd942 N945 2.334 . S
Cd942 N971 2.304 1_565 S
Cd942 O978 2.268 . S
Cd942 O981 2.273 1_565 S
Cd942 O982 2.417 . S
Cd942 O983 2.330 . S
Cd943 N958 2.304 . S
Cd943 N962 2.334 1_545 S
Cd943 O979 2.273 1_545 S
Cd943 O980 2.268 . S
Cd943 O984 2.417 . S
Cd943 O985 2.330 . S
C944 N945 1.332 . S
C944 C948 1.381 . S
C944 H950 0.931 . S
N945 Cd942 2.334 . S
N945 C944 1.332 . S
N945 C949 1.328 . S
C946 C947 1.396 . S
C946 C949 1.378 . S
C946 H988 0.931 . S
C947 C946 1.396 . S
C947 C948 1.382 . S
C948 C944 1.381 . S
C948 C947 1.382 . S
C948 H989 0.930 . S
C949 N945 1.328 . S
C949 C946 1.378 . S
C949 H951 0.930 . S
H950 C944 0.931 . S
H951 C949 0.930 . S
C952 O978 1.238 . S
C952 O979 1.253 . S
C953 C954 1.379 . S
C953 N958 1.337 . S
C953 H959 0.929 . S
C954 C953 1.379 . S
C954 C955 1.380 . S
C954 H990 0.929 . S
C955 C954 1.380 . S
C955 C956 1.399 . S
C956 C955 1.399 . S
C956 C957 1.376 . S
C956 H991 0.931 . S
C957 C956 1.376 . S
C957 N958 1.338 . S
C957 H960 0.930 . S
N958 Cd943 2.304 . S
N958 C953 1.337 . S
N958 C957 1.338 . S
H959 C953 0.929 . S
H960 C957 0.930 . S
C961 N962 1.332 . S
C961 C965 1.381 . S
C961 H967 0.931 . S
N962 Cd943 2.334 1_565 S
N962 C961 1.332 . S
N962 C966 1.328 . S
C963 C964 1.396 . S
C963 C966 1.378 . S
C963 H992 0.931 . S
C964 C963 1.396 . S
C964 C965 1.382 . S
C965 C961 1.381 . S
C965 C964 1.382 . S
C965 H993 0.930 . S
C966 N962 1.328 . S
C966 C963 1.378 . S
C966 H968 0.930 1_565 S
H967 C961 0.931 . S
H968 C966 0.930 1_545 S
C969 O980 1.238 . S
C969 O981 1.253 . S
C970 O982 1.239 . S
C970 O983 1.230 . S
N971 Cd942 2.304 1_545 S
N971 C972 1.337 . S
N971 C976 1.338 . S
C972 N971 1.337 . S
C972 C973 1.379 . S
C972 H986 0.929 . S
C973 C972 1.379 . S
C973 C974 1.380 . S
C973 H994 0.929 . S
C974 C973 1.380 . S
C974 C975 1.399 . S
C975 C974 1.399 . S
C975 C976 1.376 . S
C975 H995 0.931 . S
C976 N971 1.338 . S
C976 C975 1.376 . S
C976 H987 0.930 1_545 S
C977 O984 1.239 . S
C977 O985 1.230 . S
O978 Cd942 2.268 . S
O978 C952 1.238 . S
O979 Cd943 2.273 1_565 S
O979 C952 1.253 . S
O980 Cd943 2.268 . S
O980 C969 1.238 . S
O981 Cd942 2.273 1_545 S
O981 C969 1.253 . S
O982 Cd942 2.417 . S
O982 C970 1.239 . S
O983 Cd942 2.330 . S
O983 C970 1.230 . S
O984 Cd943 2.417 . S
O984 C977 1.239 . S
O985 Cd943 2.330 . S
O985 C977 1.230 . S
H986 C972 0.929 . S
H987 C976 0.930 1_565 S
H988 C946 0.931 . S
H989 C948 0.930 . S
H990 C954 0.929 . S
H991 C956 0.931 . S
H992 C963 0.931 . S
H993 C965 0.930 . S
H994 C973 0.929 . S
H995 C975 0.931 . S
C996 C997 1.349 . S
C996 C998 1.327 . S
C996 H1021 0.950 . S
C997 C996 1.349 . S
C997 C1013 1.349 . S
C998 C996 1.327 . S
C998 C1017 1.429 . S
C998 H1022 0.950 . S
C999 C1016 1.574 . S
C999 C1018 1.368 . S
C999 H1023 0.949 . S
H1000 C1004 0.949 . S
C1001 C1002 1.349 . S
C1001 C1003 1.327 . S
C1001 H1024 0.950 . S
C1002 C1001 1.349 . S
C1002 C1014 1.349 . S
C1003 C1001 1.327 . S
C1003 C1019 1.429 . S
C1003 H1025 0.950 . S
C1004 H1000 0.949 . S
C1004 C1012 1.574 . S
C1004 C1020 1.368 . S
H1005 C1013 0.950 . S
H1006 C1011 0.950 . S
H1007 C1012 0.949 . S
H1008 C1014 0.950 . S
H1009 C1015 0.950 . S
H1010 C1016 0.949 . S
C1011 H1006 0.950 . S
C1011 C1013 1.327 . S
C1011 C1017 1.429 . S
C1012 C1004 1.574 . S
C1012 H1007 0.949 . S
C1012 C1018 1.368 . S
C1013 C997 1.349 . S
C1013 H1005 0.950 . S
C1013 C1011 1.327 . S
C1014 C1002 1.349 . S
C1014 H1008 0.950 . S
C1014 C1015 1.327 . S
C1015 H1009 0.950 . S
C1015 C1014 1.327 . S
C1015 C1019 1.429 . S
C1016 C999 1.574 . S
C1016 H1010 0.949 . S
C1016 C1020 1.368 . S
C1017 C998 1.429 . S
C1017 C1011 1.429 . S
C1017 C1018 1.523 . S
C1018 C999 1.368 . S
C1018 C1012 1.368 . S
C1018 C1017 1.523 . S
C1019 C1003 1.429 . S
C1019 C1015 1.429 . S
C1019 C1020 1.523 . S
C1020 C1004 1.368 . S
C1020 C1016 1.368 . S
C1020 C1019 1.523 . S
H1021 C996 0.950 . S
H1022 C998 0.950 . S
H1023 C999 0.949 . S
H1024 C1001 0.950 . S
H1025 C1003 0.950 . S
C1026 C1027 1.349 . S
C1026 C1028 1.327 . S
C1026 H1051 0.950 . S
C1027 C1026 1.349 . S
C1027 C1043 1.349 . S
C1028 C1026 1.327 . S
C1028 C1047 1.429 . S
C1028 H1052 0.950 . S
C1029 C1046 1.574 . S
C1029 C1048 1.368 . S
C1029 H1053 0.949 . S
H1030 C1034 0.949 . S
C1031 C1032 1.349 . S
C1031 C1033 1.327 . S
C1031 H1054 0.950 . S
C1032 C1031 1.349 . S
C1032 C1044 1.349 . S
C1033 C1031 1.327 . S
C1033 C1049 1.429 . S
C1033 H1055 0.950 . S
C1034 H1030 0.949 . S
C1034 C1042 1.574 . S
C1034 C1050 1.368 . S
H1035 C1043 0.950 . S
H1036 C1041 0.950 . S
H1037 C1042 0.949 . S
H1038 C1044 0.950 . S
H1039 C1045 0.950 . S
H1040 C1046 0.949 . S
C1041 H1036 0.950 . S
C1041 C1043 1.327 . S
C1041 C1047 1.429 . S
C1042 C1034 1.574 . S
C1042 H1037 0.949 . S
C1042 C1048 1.368 . S
C1043 C1027 1.349 . S
C1043 H1035 0.950 . S
C1043 C1041 1.327 . S
C1044 C1032 1.349 . S
C1044 H1038 0.950 . S
C1044 C1045 1.327 . S
C1045 H1039 0.950 . S
C1045 C1044 1.327 . S
C1045 C1049 1.429 . S
C1046 C1029 1.574 . S
C1046 H1040 0.949 . S
C1046 C1050 1.368 . S
C1047 C1028 1.429 . S
C1047 C1041 1.429 . S
C1047 C1048 1.523 . S
C1048 C1029 1.368 . S
C1048 C1042 1.368 . S
C1048 C1047 1.523 . S
C1049 C1033 1.429 . S
C1049 C1045 1.429 . S
C1049 C1050 1.523 . S
C1050 C1034 1.368 . S
C1050 C1046 1.368 . S
C1050 C1049 1.523 . S
H1051 C1026 0.950 . S
H1052 C1028 0.950 . S
H1053 C1029 0.949 . S
H1054 C1031 0.950 . S
H1055 C1033 0.950 . S
C1056 C1057 1.349 . S
C1056 C1058 1.327 . S
C1056 H1081 0.950 . S
C1057 C1056 1.349 . S
C1057 C1073 1.349 . S
C1058 C1056 1.327 . S
C1058 C1077 1.429 . S
C1058 H1082 0.950 . S
C1059 C1076 1.574 . S
C1059 C1078 1.368 . S
C1059 H1083 0.949 . S
H1060 C1064 0.949 . S
C1061 C1062 1.349 . S
C1061 C1063 1.327 . S
C1061 H1084 0.950 . S
C1062 C1061 1.349 . S
C1062 C1074 1.349 . S
C1063 C1061 1.327 . S
C1063 C1079 1.429 . S
C1063 H1085 0.950 . S
C1064 H1060 0.949 . S
C1064 C1072 1.574 . S
C1064 C1080 1.368 . S
H1065 C1073 0.950 . S
H1066 C1071 0.950 . S
H1067 C1072 0.949 . S
H1068 C1074 0.950 . S
H1069 C1075 0.950 . S
H1070 C1076 0.949 . S
C1071 H1066 0.950 . S
C1071 C1073 1.327 . S
C1071 C1077 1.429 . S
C1072 C1064 1.574 . S
C1072 H1067 0.949 . S
C1072 C1078 1.368 . S
C1073 C1057 1.349 . S
C1073 H1065 0.950 . S
C1073 C1071 1.327 . S
C1074 C1062 1.349 . S
C1074 H1068 0.950 . S
C1074 C1075 1.327 . S
C1075 H1069 0.950 . S
C1075 C1074 1.327 . S
C1075 C1079 1.429 . S
C1076 C1059 1.574 . S
C1076 H1070 0.949 . S
C1076 C1080 1.368 . S
C1077 C1058 1.429 . S
C1077 C1071 1.429 . S
C1077 C1078 1.523 . S
C1078 C1059 1.368 . S
C1078 C1072 1.368 . S
C1078 C1077 1.523 . S
C1079 C1063 1.429 . S
C1079 C1075 1.429 . S
C1079 C1080 1.523 . S
C1080 C1064 1.368 . S
C1080 C1076 1.368 . S
C1080 C1079 1.523 . S
H1081 C1056 0.950 . S
H1082 C1058 0.950 . S
H1083 C1059 0.949 . S
H1084 C1061 0.950 . S
H1085 C1063 0.950 . S
C1086 C1087 1.349 . S
C1086 C1088 1.327 . S
C1086 H1111 0.950 . S
C1087 C1086 1.349 . S
C1087 C1103 1.349 . S
C1088 C1086 1.327 . S
C1088 C1107 1.429 . S
C1088 H1112 0.950 . S
C1089 C1106 1.574 . S
C1089 C1108 1.368 . S
C1089 H1113 0.949 . S
H1090 C1094 0.949 . S
C1091 C1092 1.349 . S
C1091 C1093 1.327 . S
C1091 H1114 0.950 . S
C1092 C1091 1.349 . S
C1092 C1104 1.349 . S
C1093 C1091 1.327 . S
C1093 C1109 1.429 . S
C1093 H1115 0.950 . S
C1094 H1090 0.949 . S
C1094 C1102 1.574 . S
C1094 C1110 1.368 . S
H1095 C1103 0.950 . S
H1096 C1101 0.950 . S
H1097 C1102 0.949 . S
H1098 C1104 0.950 . S
H1099 C1105 0.950 . S
H1100 C1106 0.949 . S
C1101 H1096 0.950 . S
C1101 C1103 1.327 . S
C1101 C1107 1.429 . S
C1102 C1094 1.574 . S
C1102 H1097 0.949 . S
C1102 C1108 1.368 . S
C1103 C1087 1.349 . S
C1103 H1095 0.950 . S
C1103 C1101 1.327 . S
C1104 C1092 1.349 . S
C1104 H1098 0.950 . S
C1104 C1105 1.327 . S
C1105 H1099 0.950 . S
C1105 C1104 1.327 . S
C1105 C1109 1.429 . S
C1106 C1089 1.574 . S
C1106 H1100 0.949 . S
C1106 C1110 1.368 . S
C1107 C1088 1.429 . S
C1107 C1101 1.429 . S
C1107 C1108 1.523 . S
C1108 C1089 1.368 . S
C1108 C1102 1.368 . S
C1108 C1107 1.523 . S
C1109 C1093 1.429 . S
C1109 C1105 1.429 . S
C1109 C1110 1.523 . S
C1110 C1094 1.368 . S
C1110 C1106 1.368 . S
C1110 C1109 1.523 . S
H1111 C1086 0.950 . S
H1112 C1088 0.950 . S
H1113 C1089 0.949 . S
H1114 C1091 0.950 . S
H1115 C1093 0.950 . S
C1116 C1117 1.349 . S
C1116 C1118 1.327 . S
C1116 H1141 0.950 . S
C1117 C1116 1.349 . S
C1117 C1133 1.349 . S
C1118 C1116 1.327 . S
C1118 C1137 1.429 . S
C1118 H1142 0.950 . S
C1119 C1136 1.574 . S
C1119 C1138 1.368 . S
C1119 H1143 0.949 . S
H1120 C1124 0.949 . S
C1121 C1122 1.349 . S
C1121 C1123 1.327 . S
C1121 H1144 0.950 . S
C1122 C1121 1.349 . S
C1122 C1134 1.349 . S
C1123 C1121 1.327 . S
C1123 C1139 1.429 . S
C1123 H1145 0.950 . S
C1124 H1120 0.949 . S
C1124 C1132 1.574 . S
C1124 C1140 1.368 . S
H1125 C1133 0.950 . S
H1126 C1131 0.950 . S
H1127 C1132 0.949 . S
H1128 C1134 0.950 . S
H1129 C1135 0.950 . S
H1130 C1136 0.949 . S
C1131 H1126 0.950 . S
C1131 C1133 1.327 . S
C1131 C1137 1.429 . S
C1132 C1124 1.574 . S
C1132 H1127 0.949 . S
C1132 C1138 1.368 . S
C1133 C1117 1.349 . S
C1133 H1125 0.950 . S
C1133 C1131 1.327 . S
C1134 C1122 1.349 . S
C1134 H1128 0.950 . S
C1134 C1135 1.327 . S
C1135 H1129 0.950 . S
C1135 C1134 1.327 . S
C1135 C1139 1.429 . S
C1136 C1119 1.574 . S
C1136 H1130 0.949 . S
C1136 C1140 1.368 . S
C1137 C1118 1.429 . S
C1137 C1131 1.429 . S
C1137 C1138 1.523 . S
C1138 C1119 1.368 . S
C1138 C1132 1.368 . S
C1138 C1137 1.523 . S
C1139 C1123 1.429 . S
C1139 C1135 1.429 . S
C1139 C1140 1.523 . S
C1140 C1124 1.368 . S
C1140 C1136 1.368 . S
C1140 C1139 1.523 . S
H1141 C1116 0.950 . S
H1142 C1118 0.950 . S
H1143 C1119 0.949 . S
H1144 C1121 0.950 . S
H1145 C1123 0.950 . S
C1146 C1147 1.349 . S
C1146 C1148 1.327 . S
C1146 H1171 0.950 . S
C1147 C1146 1.349 . S
C1147 C1163 1.349 . S
C1148 C1146 1.327 . S
C1148 C1167 1.429 . S
C1148 H1172 0.950 . S
C1149 C1166 1.574 . S
C1149 C1168 1.368 . S
C1149 H1173 0.949 . S
H1150 C1154 0.949 . S
C1151 C1152 1.349 . S
C1151 C1153 1.327 . S
C1151 H1174 0.950 . S
C1152 C1151 1.349 . S
C1152 C1164 1.349 . S
C1153 C1151 1.327 . S
C1153 C1169 1.429 . S
C1153 H1175 0.950 . S
C1154 H1150 0.949 . S
C1154 C1162 1.574 . S
C1154 C1170 1.368 . S
H1155 C1163 0.950 . S
H1156 C1161 0.950 . S
H1157 C1162 0.949 . S
H1158 C1164 0.950 . S
H1159 C1165 0.950 . S
H1160 C1166 0.949 . S
C1161 H1156 0.950 . S
C1161 C1163 1.327 . S
C1161 C1167 1.429 . S
C1162 C1154 1.574 . S
C1162 H1157 0.949 . S
C1162 C1168 1.368 . S
C1163 C1147 1.349 . S
C1163 H1155 0.950 . S
C1163 C1161 1.327 . S
C1164 C1152 1.349 . S
C1164 H1158 0.950 . S
C1164 C1165 1.327 . S
C1165 H1159 0.950 . S
C1165 C1164 1.327 . S
C1165 C1169 1.429 . S
C1166 C1149 1.574 . S
C1166 H1160 0.949 . S
C1166 C1170 1.368 . S
C1167 C1148 1.429 . S
C1167 C1161 1.429 . S
C1167 C1168 1.523 . S
C1168 C1149 1.368 . S
C1168 C1162 1.368 . S
C1168 C1167 1.523 . S
C1169 C1153 1.429 . S
C1169 C1165 1.429 . S
C1169 C1170 1.523 . S
C1170 C1154 1.368 . S
C1170 C1166 1.368 . S
C1170 C1169 1.523 . S
H1171 C1146 0.950 . S
H1172 C1148 0.950 . S
H1173 C1149 0.949 . S
H1174 C1151 0.950 . S
H1175 C1153 0.950 . S
C1176 C1177 1.349 . S
C1176 C1178 1.327 . S
C1176 H1201 0.950 . S
C1177 C1176 1.349 . S
C1177 C1193 1.349 . S
C1178 C1176 1.327 . S
C1178 C1197 1.429 . S
C1178 H1202 0.950 . S
C1179 C1196 1.574 . S
C1179 C1198 1.368 . S
C1179 H1203 0.949 . S
H1180 C1184 0.949 . S
C1181 C1182 1.349 . S
C1181 C1183 1.327 . S
C1181 H1204 0.950 . S
C1182 C1181 1.349 . S
C1182 C1194 1.349 . S
C1183 C1181 1.327 . S
C1183 C1199 1.429 . S
C1183 H1205 0.950 . S
C1184 H1180 0.949 . S
C1184 C1192 1.574 . S
C1184 C1200 1.368 . S
H1185 C1193 0.950 . S
H1186 C1191 0.950 . S
H1187 C1192 0.949 . S
H1188 C1194 0.950 . S
H1189 C1195 0.950 . S
H1190 C1196 0.949 . S
C1191 H1186 0.950 . S
C1191 C1193 1.327 . S
C1191 C1197 1.429 . S
C1192 C1184 1.574 . S
C1192 H1187 0.949 . S
C1192 C1198 1.368 . S
C1193 C1177 1.349 . S
C1193 H1185 0.950 . S
C1193 C1191 1.327 . S
C1194 C1182 1.349 . S
C1194 H1188 0.950 . S
C1194 C1195 1.327 . S
C1195 H1189 0.950 . S
C1195 C1194 1.327 . S
C1195 C1199 1.429 . S
C1196 C1179 1.574 . S
C1196 H1190 0.949 . S
C1196 C1200 1.368 . S
C1197 C1178 1.429 . S
C1197 C1191 1.429 . S
C1197 C1198 1.523 . S
C1198 C1179 1.368 . S
C1198 C1192 1.368 . S
C1198 C1197 1.523 . S
C1199 C1183 1.429 . S
C1199 C1195 1.429 . S
C1199 C1200 1.523 . S
C1200 C1184 1.368 . S
C1200 C1196 1.368 . S
C1200 C1199 1.523 . S
H1201 C1176 0.950 . S
H1202 C1178 0.950 . S
H1203 C1179 0.949 . S
H1204 C1181 0.950 . S
H1205 C1183 0.950 . S
C1206 C1207 1.349 . S
C1206 C1208 1.327 . S
C1206 H1231 0.950 . S
C1207 C1206 1.349 . S
C1207 C1223 1.349 . S
C1208 C1206 1.327 . S
C1208 C1227 1.429 . S
C1208 H1232 0.950 . S
C1209 C1226 1.574 . S
C1209 C1228 1.368 . S
C1209 H1233 0.949 . S
H1210 C1214 0.949 . S
C1211 C1212 1.349 . S
C1211 C1213 1.327 . S
C1211 H1234 0.950 . S
C1212 C1211 1.349 . S
C1212 C1224 1.349 . S
C1213 C1211 1.327 . S
C1213 C1229 1.429 . S
C1213 H1235 0.950 . S
C1214 H1210 0.949 . S
C1214 C1222 1.574 . S
C1214 C1230 1.368 . S
H1215 C1223 0.950 . S
H1216 C1221 0.950 . S
H1217 C1222 0.949 . S
H1218 C1224 0.950 . S
H1219 C1225 0.950 . S
H1220 C1226 0.949 . S
C1221 H1216 0.950 . S
C1221 C1223 1.327 . S
C1221 C1227 1.429 . S
C1222 C1214 1.574 . S
C1222 H1217 0.949 . S
C1222 C1228 1.368 . S
C1223 C1207 1.349 . S
C1223 H1215 0.950 . S
C1223 C1221 1.327 . S
C1224 C1212 1.349 . S
C1224 H1218 0.950 . S
C1224 C1225 1.327 . S
C1225 H1219 0.950 . S
C1225 C1224 1.327 . S
C1225 C1229 1.429 . S
C1226 C1209 1.574 . S
C1226 H1220 0.949 . S
C1226 C1230 1.368 . S
C1227 C1208 1.429 . S
C1227 C1221 1.429 . S
C1227 C1228 1.523 . S
C1228 C1209 1.368 . S
C1228 C1222 1.368 . S
C1228 C1227 1.523 . S
C1229 C1213 1.429 . S
C1229 C1225 1.429 . S
C1229 C1230 1.523 . S
C1230 C1214 1.368 . S
C1230 C1226 1.368 . S
C1230 C1229 1.523 . S
H1231 C1206 0.950 . S
H1232 C1208 0.950 . S
H1233 C1209 0.949 . S
H1234 C1211 0.950 . S
H1235 C1213 0.950 . S
C1236 C1237 1.349 . S
C1236 C1238 1.327 . S
C1236 H1261 0.950 . S
C1237 C1236 1.349 . S
C1237 C1253 1.349 . S
C1238 C1236 1.327 . S
C1238 C1257 1.429 . S
C1238 H1262 0.950 . S
C1239 C1256 1.574 . S
C1239 C1258 1.368 . S
C1239 H1263 0.949 . S
H1240 C1244 0.949 . S
C1241 C1242 1.349 . S
C1241 C1243 1.327 . S
C1241 H1264 0.950 . S
C1242 C1241 1.349 . S
C1242 C1254 1.349 . S
C1243 C1241 1.327 . S
C1243 C1259 1.429 . S
C1243 H1265 0.950 . S
C1244 H1240 0.949 . S
C1244 C1252 1.574 . S
C1244 C1260 1.368 . S
H1245 C1253 0.950 . S
H1246 C1251 0.950 . S
H1247 C1252 0.949 . S
H1248 C1254 0.950 . S
H1249 C1255 0.950 . S
H1250 C1256 0.949 . S
C1251 H1246 0.950 . S
C1251 C1253 1.327 . S
C1251 C1257 1.429 . S
C1252 C1244 1.574 . S
C1252 H1247 0.949 . S
C1252 C1258 1.368 . S
C1253 C1237 1.349 . S
C1253 H1245 0.950 . S
C1253 C1251 1.327 . S
C1254 C1242 1.349 . S
C1254 H1248 0.950 . S
C1254 C1255 1.327 . S
C1255 H1249 0.950 . S
C1255 C1254 1.327 . S
C1255 C1259 1.429 . S
C1256 C1239 1.574 . S
C1256 H1250 0.949 . S
C1256 C1260 1.368 . S
C1257 C1238 1.429 . S
C1257 C1251 1.429 . S
C1257 C1258 1.523 . S
C1258 C1239 1.368 . S
C1258 C1252 1.368 . S
C1258 C1257 1.523 . S
C1259 C1243 1.429 . S
C1259 C1255 1.429 . S
C1259 C1260 1.523 . S
C1260 C1244 1.368 . S
C1260 C1256 1.368 . S
C1260 C1259 1.523 . S
H1261 C1236 0.950 . S
H1262 C1238 0.950 . S
H1263 C1239 0.949 . S
H1264 C1241 0.950 . S
H1265 C1243 0.950 . S
C1266 C1267 1.349 . S
C1266 C1268 1.327 . S
C1266 H1291 0.950 . S
C1267 C1266 1.349 . S
C1267 C1283 1.349 . S
C1268 C1266 1.327 . S
C1268 C1287 1.429 . S
C1268 H1292 0.950 . S
C1269 C1286 1.574 . S
C1269 C1288 1.368 . S
C1269 H1293 0.949 . S
H1270 C1274 0.949 . S
C1271 C1272 1.349 . S
C1271 C1273 1.327 . S
C1271 H1294 0.950 . S
C1272 C1271 1.349 . S
C1272 C1284 1.349 . S
C1273 C1271 1.327 . S
C1273 C1289 1.429 . S
C1273 H1295 0.950 . S
C1274 H1270 0.949 . S
C1274 C1282 1.574 . S
C1274 C1290 1.368 . S
H1275 C1283 0.950 . S
H1276 C1281 0.950 . S
H1277 C1282 0.949 . S
H1278 C1284 0.950 . S
H1279 C1285 0.950 . S
H1280 C1286 0.949 . S
C1281 H1276 0.950 . S
C1281 C1283 1.327 . S
C1281 C1287 1.429 . S
C1282 C1274 1.574 . S
C1282 H1277 0.949 . S
C1282 C1288 1.368 . S
C1283 C1267 1.349 . S
C1283 H1275 0.950 . S
C1283 C1281 1.327 . S
C1284 C1272 1.349 . S
C1284 H1278 0.950 . S
C1284 C1285 1.327 . S
C1285 H1279 0.950 . S
C1285 C1284 1.327 . S
C1285 C1289 1.429 . S
C1286 C1269 1.574 . S
C1286 H1280 0.949 . S
C1286 C1290 1.368 . S
C1287 C1268 1.429 . S
C1287 C1281 1.429 . S
C1287 C1288 1.523 . S
C1288 C1269 1.368 . S
C1288 C1282 1.368 . S
C1288 C1287 1.523 . S
C1289 C1273 1.429 . S
C1289 C1285 1.429 . S
C1289 C1290 1.523 . S
C1290 C1274 1.368 . S
C1290 C1286 1.368 . S
C1290 C1289 1.523 . S
H1291 C1266 0.950 . S
H1292 C1268 0.950 . S
H1293 C1269 0.949 . S
H1294 C1271 0.950 . S
H1295 C1273 0.950 . S
C1296 C1297 1.349 . S
C1296 C1298 1.327 . S
C1296 H1321 0.950 . S
C1297 C1296 1.349 . S
C1297 C1313 1.349 . S
C1298 C1296 1.327 . S
C1298 C1317 1.429 . S
C1298 H1322 0.950 . S
C1299 C1316 1.574 . S
C1299 C1318 1.368 . S
C1299 H1323 0.949 . S
H1300 C1304 0.949 . S
C1301 C1302 1.349 . S
C1301 C1303 1.327 . S
C1301 H1324 0.950 . S
C1302 C1301 1.349 . S
C1302 C1314 1.349 . S
C1303 C1301 1.327 . S
C1303 C1319 1.429 . S
C1303 H1325 0.950 . S
C1304 H1300 0.949 . S
C1304 C1312 1.574 . S
C1304 C1320 1.368 . S
H1305 C1313 0.950 . S
H1306 C1311 0.950 . S
H1307 C1312 0.949 . S
H1308 C1314 0.950 . S
H1309 C1315 0.950 . S
H1310 C1316 0.949 . S
C1311 H1306 0.950 . S
C1311 C1313 1.327 . S
C1311 C1317 1.429 . S
C1312 C1304 1.574 . S
C1312 H1307 0.949 . S
C1312 C1318 1.368 . S
C1313 C1297 1.349 . S
C1313 H1305 0.950 . S
C1313 C1311 1.327 . S
C1314 C1302 1.349 . S
C1314 H1308 0.950 . S
C1314 C1315 1.327 . S
C1315 H1309 0.950 . S
C1315 C1314 1.327 . S
C1315 C1319 1.429 . S
C1316 C1299 1.574 . S
C1316 H1310 0.949 . S
C1316 C1320 1.368 . S
C1317 C1298 1.429 . S
C1317 C1311 1.429 . S
C1317 C1318 1.523 . S
C1318 C1299 1.368 . S
C1318 C1312 1.368 . S
C1318 C1317 1.523 . S
C1319 C1303 1.429 . S
C1319 C1315 1.429 . S
C1319 C1320 1.523 . S
C1320 C1304 1.368 . S
C1320 C1316 1.368 . S
C1320 C1319 1.523 . S
H1321 C1296 0.950 . S
H1322 C1298 0.950 . S
H1323 C1299 0.949 . S
H1324 C1301 0.950 . S
H1325 C1303 0.950 . S
C1326 C1327 1.349 . S
C1326 C1328 1.327 . S
C1326 H1351 0.950 . S
C1327 C1326 1.349 . S
C1327 C1343 1.349 . S
C1328 C1326 1.327 . S
C1328 C1347 1.429 . S
C1328 H1352 0.950 . S
C1329 C1346 1.574 . S
C1329 C1348 1.368 . S
C1329 H1353 0.949 . S
H1330 C1334 0.949 . S
C1331 C1332 1.349 . S
C1331 C1333 1.327 . S
C1331 H1354 0.950 . S
C1332 C1331 1.349 . S
C1332 C1344 1.349 . S
C1333 C1331 1.327 . S
C1333 C1349 1.429 . S
C1333 H1355 0.950 . S
C1334 H1330 0.949 . S
C1334 C1342 1.574 . S
C1334 C1350 1.368 . S
H1335 C1343 0.950 . S
H1336 C1341 0.950 . S
H1337 C1342 0.949 . S
H1338 C1344 0.950 . S
H1339 C1345 0.950 . S
H1340 C1346 0.949 . S
C1341 H1336 0.950 . S
C1341 C1343 1.327 . S
C1341 C1347 1.429 . S
C1342 C1334 1.574 . S
C1342 H1337 0.949 . S
C1342 C1348 1.368 . S
C1343 C1327 1.349 . S
C1343 H1335 0.950 . S
C1343 C1341 1.327 . S
C1344 C1332 1.349 . S
C1344 H1338 0.950 . S
C1344 C1345 1.327 . S
C1345 H1339 0.950 . S
C1345 C1344 1.327 . S
C1345 C1349 1.429 . S
C1346 C1329 1.574 . S
C1346 H1340 0.949 . S
C1346 C1350 1.368 . S
C1347 C1328 1.429 . S
C1347 C1341 1.429 . S
C1347 C1348 1.523 . S
C1348 C1329 1.368 . S
C1348 C1342 1.368 . S
C1348 C1347 1.523 . S
C1349 C1333 1.429 . S
C1349 C1345 1.429 . S
C1349 C1350 1.523 . S
C1350 C1334 1.368 . S
C1350 C1346 1.368 . S
C1350 C1349 1.523 . S
H1351 C1326 0.950 . S
H1352 C1328 0.950 . S
H1353 C1329 0.949 . S
H1354 C1331 0.950 . S
H1355 C1333 0.950 . S
C1356 C1357 1.349 . S
C1356 C1358 1.327 . S
C1356 H1381 0.950 . S
C1357 C1356 1.349 . S
C1357 C1373 1.349 . S
C1358 C1356 1.327 . S
C1358 C1377 1.429 . S
C1358 H1382 0.950 . S
C1359 C1376 1.574 . S
C1359 C1378 1.368 . S
C1359 H1383 0.949 . S
H1360 C1364 0.949 . S
C1361 C1362 1.349 . S
C1361 C1363 1.327 . S
C1361 H1384 0.950 . S
C1362 C1361 1.349 . S
C1362 C1374 1.349 . S
C1363 C1361 1.327 . S
C1363 C1379 1.429 . S
C1363 H1385 0.950 . S
C1364 H1360 0.949 . S
C1364 C1372 1.574 . S
C1364 C1380 1.368 . S
H1365 C1373 0.950 . S
H1366 C1371 0.950 . S
H1367 C1372 0.949 . S
H1368 C1374 0.950 . S
H1369 C1375 0.950 . S
H1370 C1376 0.949 . S
C1371 H1366 0.950 . S
C1371 C1373 1.327 . S
C1371 C1377 1.429 . S
C1372 C1364 1.574 . S
C1372 H1367 0.949 . S
C1372 C1378 1.368 . S
C1373 C1357 1.349 . S
C1373 H1365 0.950 . S
C1373 C1371 1.327 . S
C1374 C1362 1.349 . S
C1374 H1368 0.950 . S
C1374 C1375 1.327 . S
C1375 H1369 0.950 . S
C1375 C1374 1.327 . S
C1375 C1379 1.429 . S
C1376 C1359 1.574 . S
C1376 H1370 0.949 . S
C1376 C1380 1.368 . S
C1377 C1358 1.429 . S
C1377 C1371 1.429 . S
C1377 C1378 1.523 . S
C1378 C1359 1.368 . S
C1378 C1372 1.368 . S
C1378 C1377 1.523 . S
C1379 C1363 1.429 . S
C1379 C1375 1.429 . S
C1379 C1380 1.523 . S
C1380 C1364 1.368 . S
C1380 C1376 1.368 . S
C1380 C1379 1.523 . S
H1381 C1356 0.950 . S
H1382 C1358 0.950 . S
H1383 C1359 0.949 . S
H1384 C1361 0.950 . S
H1385 C1363 0.950 . S
C1386 C1387 1.349 . S
C1386 C1388 1.327 . S
C1386 H1411 0.950 . S
C1387 C1386 1.349 . S
C1387 C1403 1.349 . S
C1388 C1386 1.327 . S
C1388 C1407 1.429 . S
C1388 H1412 0.950 . S
C1389 C1406 1.574 . S
C1389 C1408 1.368 . S
C1389 H1413 0.949 . S
H1390 C1394 0.949 . S
C1391 C1392 1.349 . S
C1391 C1393 1.327 . S
C1391 H1414 0.950 . S
C1392 C1391 1.349 . S
C1392 C1404 1.349 . S
C1393 C1391 1.327 . S
C1393 C1409 1.429 . S
C1393 H1415 0.950 . S
C1394 H1390 0.949 . S
C1394 C1402 1.574 . S
C1394 C1410 1.368 . S
H1395 C1403 0.950 . S
H1396 C1401 0.950 . S
H1397 C1402 0.949 . S
H1398 C1404 0.950 . S
H1399 C1405 0.950 . S
H1400 C1406 0.949 . S
C1401 H1396 0.950 . S
C1401 C1403 1.327 . S
C1401 C1407 1.429 . S
C1402 C1394 1.574 . S
C1402 H1397 0.949 . S
C1402 C1408 1.368 . S
C1403 C1387 1.349 . S
C1403 H1395 0.950 . S
C1403 C1401 1.327 . S
C1404 C1392 1.349 . S
C1404 H1398 0.950 . S
C1404 C1405 1.327 . S
C1405 H1399 0.950 . S
C1405 C1404 1.327 . S
C1405 C1409 1.429 . S
C1406 C1389 1.574 . S
C1406 H1400 0.949 . S
C1406 C1410 1.368 . S
C1407 C1388 1.429 . S
C1407 C1401 1.429 . S
C1407 C1408 1.523 . S
C1408 C1389 1.368 . S
C1408 C1402 1.368 . S
C1408 C1407 1.523 . S
C1409 C1393 1.429 . S
C1409 C1405 1.429 . S
C1409 C1410 1.523 . S
C1410 C1394 1.368 . S
C1410 C1406 1.368 . S
C1410 C1409 1.523 . S
H1411 C1386 0.950 . S
H1412 C1388 0.950 . S
H1413 C1389 0.949 . S
H1414 C1391 0.950 . S
H1415 C1393 0.950 . S
C1416 C1417 1.349 . S
C1416 C1418 1.327 . S
C1416 H1441 0.950 . S
C1417 C1416 1.349 . S
C1417 C1433 1.349 . S
C1418 C1416 1.327 . S
C1418 C1437 1.429 . S
C1418 H1442 0.950 . S
C1419 C1436 1.574 . S
C1419 C1438 1.368 . S
C1419 H1443 0.949 . S
H1420 C1424 0.949 . S
C1421 C1422 1.349 . S
C1421 C1423 1.327 . S
C1421 H1444 0.950 . S
C1422 C1421 1.349 . S
C1422 C1434 1.349 . S
C1423 C1421 1.327 . S
C1423 C1439 1.429 . S
C1423 H1445 0.950 . S
C1424 H1420 0.949 . S
C1424 C1432 1.574 . S
C1424 C1440 1.368 . S
H1425 C1433 0.950 . S
H1426 C1431 0.950 . S
H1427 C1432 0.949 . S
H1428 C1434 0.950 . S
H1429 C1435 0.950 . S
H1430 C1436 0.949 . S
C1431 H1426 0.950 . S
C1431 C1433 1.327 . S
C1431 C1437 1.429 . S
C1432 C1424 1.574 . S
C1432 H1427 0.949 . S
C1432 C1438 1.368 . S
C1433 C1417 1.349 . S
C1433 H1425 0.950 . S
C1433 C1431 1.327 . S
C1434 C1422 1.349 . S
C1434 H1428 0.950 . S
C1434 C1435 1.327 . S
C1435 H1429 0.950 . S
C1435 C1434 1.327 . S
C1435 C1439 1.429 . S
C1436 C1419 1.574 . S
C1436 H1430 0.949 . S
C1436 C1440 1.368 . S
C1437 C1418 1.429 . S
C1437 C1431 1.429 . S
C1437 C1438 1.523 . S
C1438 C1419 1.368 . S
C1438 C1432 1.368 . S
C1438 C1437 1.523 . S
C1439 C1423 1.429 . S
C1439 C1435 1.429 . S
C1439 C1440 1.523 . S
C1440 C1424 1.368 . S
C1440 C1436 1.368 . S
C1440 C1439 1.523 . S
H1441 C1416 0.950 . S
H1442 C1418 0.950 . S
H1443 C1419 0.949 . S
H1444 C1421 0.950 . S
H1445 C1423 0.950 . S
C1446 C1447 1.349 . S
C1446 C1448 1.327 . S
C1446 H1471 0.950 . S
C1447 C1446 1.349 . S
C1447 C1463 1.349 . S
C1448 C1446 1.327 . S
C1448 C1467 1.429 . S
C1448 H1472 0.950 . S
C1449 C1466 1.574 . S
C1449 C1468 1.368 . S
C1449 H1473 0.949 . S
H1450 C1454 0.949 . S
C1451 C1452 1.349 . S
C1451 C1453 1.327 . S
C1451 H1474 0.950 . S
C1452 C1451 1.349 . S
C1452 C1464 1.349 . S
C1453 C1451 1.327 . S
C1453 C1469 1.429 . S
C1453 H1475 0.950 . S
C1454 H1450 0.949 . S
C1454 C1462 1.574 . S
C1454 C1470 1.368 . S
H1455 C1463 0.950 . S
H1456 C1461 0.950 . S
H1457 C1462 0.949 . S
H1458 C1464 0.950 . S
H1459 C1465 0.950 . S
H1460 C1466 0.949 . S
C1461 H1456 0.950 . S
C1461 C1463 1.327 . S
C1461 C1467 1.429 . S
C1462 C1454 1.574 . S
C1462 H1457 0.949 . S
C1462 C1468 1.368 . S
C1463 C1447 1.349 . S
C1463 H1455 0.950 . S
C1463 C1461 1.327 . S
C1464 C1452 1.349 . S
C1464 H1458 0.950 . S
C1464 C1465 1.327 . S
C1465 H1459 0.950 . S
C1465 C1464 1.327 . S
C1465 C1469 1.429 . S
C1466 C1449 1.574 . S
C1466 H1460 0.949 . S
C1466 C1470 1.368 . S
C1467 C1448 1.429 . S
C1467 C1461 1.429 . S
C1467 C1468 1.523 . S
C1468 C1449 1.368 . S
C1468 C1462 1.368 . S
C1468 C1467 1.523 . S
C1469 C1453 1.429 . S
C1469 C1465 1.429 . S
C1469 C1470 1.523 . S
C1470 C1454 1.368 . S
C1470 C1466 1.368 . S
C1470 C1469 1.523 . S
H1471 C1446 0.950 . S
H1472 C1448 0.950 . S
H1473 C1449 0.949 . S
H1474 C1451 0.950 . S
H1475 C1453 0.950 . S
C1476 C1477 1.349 . S
C1476 C1478 1.327 . S
C1476 H1501 0.950 . S
C1477 C1476 1.349 . S
C1477 C1493 1.349 . S
C1478 C1476 1.327 . S
C1478 C1497 1.429 . S
C1478 H1502 0.950 . S
C1479 C1496 1.574 . S
C1479 C1498 1.368 . S
C1479 H1503 0.949 . S
H1480 C1484 0.949 . S
C1481 C1482 1.349 . S
C1481 C1483 1.327 . S
C1481 H1504 0.950 . S
C1482 C1481 1.349 . S
C1482 C1494 1.349 . S
C1483 C1481 1.327 . S
C1483 C1499 1.429 . S
C1483 H1505 0.950 . S
C1484 H1480 0.949 . S
C1484 C1492 1.574 . S
C1484 C1500 1.368 . S
H1485 C1493 0.950 . S
H1486 C1491 0.950 . S
H1487 C1492 0.949 . S
H1488 C1494 0.950 . S
H1489 C1495 0.950 . S
H1490 C1496 0.949 . S
C1491 H1486 0.950 . S
C1491 C1493 1.327 . S
C1491 C1497 1.429 . S
C1492 C1484 1.574 . S
C1492 H1487 0.949 . S
C1492 C1498 1.368 . S
C1493 C1477 1.349 . S
C1493 H1485 0.950 . S
C1493 C1491 1.327 . S
C1494 C1482 1.349 . S
C1494 H1488 0.950 . S
C1494 C1495 1.327 . S
C1495 H1489 0.950 . S
C1495 C1494 1.327 . S
C1495 C1499 1.429 . S
C1496 C1479 1.574 . S
C1496 H1490 0.949 . S
C1496 C1500 1.368 . S
C1497 C1478 1.429 . S
C1497 C1491 1.429 . S
C1497 C1498 1.523 . S
C1498 C1479 1.368 . S
C1498 C1492 1.368 . S
C1498 C1497 1.523 . S
C1499 C1483 1.429 . S
C1499 C1495 1.429 . S
C1499 C1500 1.523 . S
C1500 C1484 1.368 . S
C1500 C1496 1.368 . S
C1500 C1499 1.523 . S
H1501 C1476 0.950 . S
H1502 C1478 0.950 . S
H1503 C1479 0.949 . S
H1504 C1481 0.950 . S
H1505 C1483 0.950 . S
C1506 C1507 1.349 . S
C1506 C1508 1.327 . S
C1506 H1531 0.950 . S
C1507 C1506 1.349 . S
C1507 C1523 1.349 . S
C1508 C1506 1.327 . S
C1508 C1527 1.429 . S
C1508 H1532 0.950 . S
C1509 C1526 1.574 . S
C1509 C1528 1.368 . S
C1509 H1533 0.949 . S
H1510 C1514 0.949 . S
C1511 C1512 1.349 . S
C1511 C1513 1.327 . S
C1511 H1534 0.950 . S
C1512 C1511 1.349 . S
C1512 C1524 1.349 . S
C1513 C1511 1.327 . S
C1513 C1529 1.429 . S
C1513 H1535 0.950 . S
C1514 H1510 0.949 . S
C1514 C1522 1.574 . S
C1514 C1530 1.368 . S
H1515 C1523 0.950 . S
H1516 C1521 0.950 . S
H1517 C1522 0.949 . S
H1518 C1524 0.950 . S
H1519 C1525 0.950 . S
H1520 C1526 0.949 . S
C1521 H1516 0.950 . S
C1521 C1523 1.327 . S
C1521 C1527 1.429 . S
C1522 C1514 1.574 . S
C1522 H1517 0.949 . S
C1522 C1528 1.368 . S
C1523 C1507 1.349 . S
C1523 H1515 0.950 . S
C1523 C1521 1.327 . S
C1524 C1512 1.349 . S
C1524 H1518 0.950 . S
C1524 C1525 1.327 . S
C1525 H1519 0.950 . S
C1525 C1524 1.327 . S
C1525 C1529 1.429 . S
C1526 C1509 1.574 . S
C1526 H1520 0.949 . S
C1526 C1530 1.368 . S
C1527 C1508 1.429 . S
C1527 C1521 1.429 . S
C1527 C1528 1.523 . S
C1528 C1509 1.368 . S
C1528 C1522 1.368 . S
C1528 C1527 1.523 . S
C1529 C1513 1.429 . S
C1529 C1525 1.429 . S
C1529 C1530 1.523 . S
C1530 C1514 1.368 . S
C1530 C1526 1.368 . S
C1530 C1529 1.523 . S
H1531 C1506 0.950 . S
H1532 C1508 0.950 . S
H1533 C1509 0.949 . S
H1534 C1511 0.950 . S
H1535 C1513 0.950 . S
C1536 C1537 1.349 . S
C1536 C1538 1.327 . S
C1536 H1561 0.950 . S
C1537 C1536 1.349 . S
C1537 C1553 1.349 . S
C1538 C1536 1.327 . S
C1538 C1557 1.429 . S
C1538 H1562 0.950 . S
C1539 C1556 1.574 . S
C1539 C1558 1.368 . S
C1539 H1563 0.949 . S
H1540 C1544 0.949 . S
C1541 C1542 1.349 . S
C1541 C1543 1.327 . S
C1541 H1564 0.950 . S
C1542 C1541 1.349 . S
C1542 C1554 1.349 . S
C1543 C1541 1.327 . S
C1543 C1559 1.429 . S
C1543 H1565 0.950 . S
C1544 H1540 0.949 . S
C1544 C1552 1.574 . S
C1544 C1560 1.368 . S
H1545 C1553 0.950 . S
H1546 C1551 0.950 . S
H1547 C1552 0.949 . S
H1548 C1554 0.950 . S
H1549 C1555 0.950 . S
H1550 C1556 0.949 . S
C1551 H1546 0.950 . S
C1551 C1553 1.327 . S
C1551 C1557 1.429 . S
C1552 C1544 1.574 . S
C1552 H1547 0.949 . S
C1552 C1558 1.368 . S
C1553 C1537 1.349 . S
C1553 H1545 0.950 . S
C1553 C1551 1.327 . S
C1554 C1542 1.349 . S
C1554 H1548 0.950 . S
C1554 C1555 1.327 . S
C1555 H1549 0.950 . S
C1555 C1554 1.327 . S
C1555 C1559 1.429 . S
C1556 C1539 1.574 . S
C1556 H1550 0.949 . S
C1556 C1560 1.368 . S
C1557 C1538 1.429 . S
C1557 C1551 1.429 . S
C1557 C1558 1.523 . S
C1558 C1539 1.368 . S
C1558 C1552 1.368 . S
C1558 C1557 1.523 . S
C1559 C1543 1.429 . S
C1559 C1555 1.429 . S
C1559 C1560 1.523 . S
C1560 C1544 1.368 . S
C1560 C1556 1.368 . S
C1560 C1559 1.523 . S
H1561 C1536 0.950 . S
H1562 C1538 0.950 . S
H1563 C1539 0.949 . S
H1564 C1541 0.950 . S
H1565 C1543 0.950 . S
C1566 C1567 1.349 . S
C1566 C1568 1.327 . S
C1566 H1591 0.950 . S
C1567 C1566 1.349 . S
C1567 C1583 1.349 . S
C1568 C1566 1.327 . S
C1568 C1587 1.429 . S
C1568 H1592 0.950 . S
C1569 C1586 1.574 . S
C1569 C1588 1.368 . S
C1569 H1593 0.949 . S
H1570 C1574 0.949 . S
C1571 C1572 1.349 . S
C1571 C1573 1.327 . S
C1571 H1594 0.950 . S
C1572 C1571 1.349 . S
C1572 C1584 1.349 . S
C1573 C1571 1.327 . S
C1573 C1589 1.429 . S
C1573 H1595 0.950 . S
C1574 H1570 0.949 . S
C1574 C1582 1.574 . S
C1574 C1590 1.368 . S
H1575 C1583 0.950 . S
H1576 C1581 0.950 . S
H1577 C1582 0.949 . S
H1578 C1584 0.950 . S
H1579 C1585 0.950 . S
H1580 C1586 0.949 . S
C1581 H1576 0.950 . S
C1581 C1583 1.327 . S
C1581 C1587 1.429 . S
C1582 C1574 1.574 . S
C1582 H1577 0.949 . S
C1582 C1588 1.368 . S
C1583 C1567 1.349 . S
C1583 H1575 0.950 . S
C1583 C1581 1.327 . S
C1584 C1572 1.349 . S
C1584 H1578 0.950 . S
C1584 C1585 1.327 . S
C1585 H1579 0.950 . S
C1585 C1584 1.327 . S
C1585 C1589 1.429 . S
C1586 C1569 1.574 . S
C1586 H1580 0.949 . S
C1586 C1590 1.368 . S
C1587 C1568 1.429 . S
C1587 C1581 1.429 . S
C1587 C1588 1.523 . S
C1588 C1569 1.368 . S
C1588 C1582 1.368 . S
C1588 C1587 1.523 . S
C1589 C1573 1.429 . S
C1589 C1585 1.429 . S
C1589 C1590 1.523 . S
C1590 C1574 1.368 . S
C1590 C1586 1.368 . S
C1590 C1589 1.523 . S
H1591 C1566 0.950 . S
H1592 C1568 0.950 . S
H1593 C1569 0.949 . S
H1594 C1571 0.950 . S
H1595 C1573 0.950 . S
C1596 C1597 1.349 . S
C1596 C1598 1.327 . S
C1596 H1621 0.950 . S
C1597 C1596 1.349 . S
C1597 C1613 1.349 . S
C1598 C1596 1.327 . S
C1598 C1617 1.429 . S
C1598 H1622 0.950 . S
C1599 C1616 1.574 . S
C1599 C1618 1.368 . S
C1599 H1623 0.949 . S
H1600 C1604 0.949 . S
C1601 C1602 1.349 . S
C1601 C1603 1.327 . S
C1601 H1624 0.950 . S
C1602 C1601 1.349 . S
C1602 C1614 1.349 . S
C1603 C1601 1.327 . S
C1603 C1619 1.429 . S
C1603 H1625 0.950 . S
C1604 H1600 0.949 . S
C1604 C1612 1.574 . S
C1604 C1620 1.368 . S
H1605 C1613 0.950 . S
H1606 C1611 0.950 . S
H1607 C1612 0.949 . S
H1608 C1614 0.950 . S
H1609 C1615 0.950 . S
H1610 C1616 0.949 . S
C1611 H1606 0.950 . S
C1611 C1613 1.327 . S
C1611 C1617 1.429 . S
C1612 C1604 1.574 . S
C1612 H1607 0.949 . S
C1612 C1618 1.368 . S
C1613 C1597 1.349 . S
C1613 H1605 0.950 . S
C1613 C1611 1.327 . S
C1614 C1602 1.349 . S
C1614 H1608 0.950 . S
C1614 C1615 1.327 . S
C1615 H1609 0.950 . S
C1615 C1614 1.327 . S
C1615 C1619 1.429 . S
C1616 C1599 1.574 . S
C1616 H1610 0.949 . S
C1616 C1620 1.368 . S
C1617 C1598 1.429 . S
C1617 C1611 1.429 . S
C1617 C1618 1.523 . S
C1618 C1599 1.368 . S
C1618 C1612 1.368 . S
C1618 C1617 1.523 . S
C1619 C1603 1.429 . S
C1619 C1615 1.429 . S
C1619 C1620 1.523 . S
C1620 C1604 1.368 . S
C1620 C1616 1.368 . S
C1620 C1619 1.523 . S
H1621 C1596 0.950 . S
H1622 C1598 0.950 . S
H1623 C1599 0.949 . S
H1624 C1601 0.950 . S
H1625 C1603 0.950 . S
C1626 C1627 1.349 . S
C1626 C1628 1.327 . S
C1626 H1651 0.950 . S
C1627 C1626 1.349 . S
C1627 C1643 1.349 . S
C1628 C1626 1.327 . S
C1628 C1647 1.429 . S
C1628 H1652 0.950 . S
C1629 C1646 1.574 . S
C1629 C1648 1.368 . S
C1629 H1653 0.949 . S
H1630 C1634 0.949 . S
C1631 C1632 1.349 . S
C1631 C1633 1.327 . S
C1631 H1654 0.950 . S
C1632 C1631 1.349 . S
C1632 C1644 1.349 . S
C1633 C1631 1.327 . S
C1633 C1649 1.429 . S
C1633 H1655 0.950 . S
C1634 H1630 0.949 . S
C1634 C1642 1.574 . S
C1634 C1650 1.368 . S
H1635 C1643 0.950 . S
H1636 C1641 0.950 . S
H1637 C1642 0.949 . S
H1638 C1644 0.950 . S
H1639 C1645 0.950 . S
H1640 C1646 0.949 . S
C1641 H1636 0.950 . S
C1641 C1643 1.327 . S
C1641 C1647 1.429 . S
C1642 C1634 1.574 . S
C1642 H1637 0.949 . S
C1642 C1648 1.368 . S
C1643 C1627 1.349 . S
C1643 H1635 0.950 . S
C1643 C1641 1.327 . S
C1644 C1632 1.349 . S
C1644 H1638 0.950 . S
C1644 C1645 1.327 . S
C1645 H1639 0.950 . S
C1645 C1644 1.327 . S
C1645 C1649 1.429 . S
C1646 C1629 1.574 . S
C1646 H1640 0.949 . S
C1646 C1650 1.368 . S
C1647 C1628 1.429 . S
C1647 C1641 1.429 . S
C1647 C1648 1.523 . S
C1648 C1629 1.368 . S
C1648 C1642 1.368 . S
C1648 C1647 1.523 . S
C1649 C1633 1.429 . S
C1649 C1645 1.429 . S
C1649 C1650 1.523 . S
C1650 C1634 1.368 . S
C1650 C1646 1.368 . S
C1650 C1649 1.523 . S
H1651 C1626 0.950 . S
H1652 C1628 0.950 . S
H1653 C1629 0.949 . S
H1654 C1631 0.950 . S
H1655 C1633 0.950 . S
C1656 C1657 1.349 . S
C1656 C1658 1.327 . S
C1656 H1681 0.950 . S
C1657 C1656 1.349 . S
C1657 C1673 1.349 . S
C1658 C1656 1.327 . S
C1658 C1677 1.429 . S
C1658 H1682 0.950 . S
C1659 C1676 1.574 . S
C1659 C1678 1.368 . S
C1659 H1683 0.949 . S
H1660 C1664 0.949 . S
C1661 C1662 1.349 . S
C1661 C1663 1.327 . S
C1661 H1684 0.950 . S
C1662 C1661 1.349 . S
C1662 C1674 1.349 . S
C1663 C1661 1.327 . S
C1663 C1679 1.429 . S
C1663 H1685 0.950 . S
C1664 H1660 0.949 . S
C1664 C1672 1.574 . S
C1664 C1680 1.368 . S
H1665 C1673 0.950 . S
H1666 C1671 0.950 . S
H1667 C1672 0.949 . S
H1668 C1674 0.950 . S
H1669 C1675 0.950 . S
H1670 C1676 0.949 . S
C1671 H1666 0.950 . S
C1671 C1673 1.327 . S
C1671 C1677 1.429 . S
C1672 C1664 1.574 . S
C1672 H1667 0.949 . S
C1672 C1678 1.368 . S
C1673 C1657 1.349 . S
C1673 H1665 0.950 . S
C1673 C1671 1.327 . S
C1674 C1662 1.349 . S
C1674 H1668 0.950 . S
C1674 C1675 1.327 . S
C1675 H1669 0.950 . S
C1675 C1674 1.327 . S
C1675 C1679 1.429 . S
C1676 C1659 1.574 . S
C1676 H1670 0.949 . S
C1676 C1680 1.368 . S
C1677 C1658 1.429 . S
C1677 C1671 1.429 . S
C1677 C1678 1.523 . S
C1678 C1659 1.368 . S
C1678 C1672 1.368 . S
C1678 C1677 1.523 . S
C1679 C1663 1.429 . S
C1679 C1675 1.429 . S
C1679 C1680 1.523 . S
C1680 C1664 1.368 . S
C1680 C1676 1.368 . S
C1680 C1679 1.523 . S
H1681 C1656 0.950 . S
H1682 C1658 0.950 . S
H1683 C1659 0.949 . S
H1684 C1661 0.950 . S
H1685 C1663 0.950 . S
C1686 C1687 1.349 . S
C1686 C1688 1.327 . S
C1686 H1711 0.950 . S
C1687 C1686 1.349 . S
C1687 C1703 1.349 . S
C1688 C1686 1.327 . S
C1688 C1707 1.429 . S
C1688 H1712 0.950 . S
C1689 C1706 1.574 . S
C1689 C1708 1.368 . S
C1689 H1713 0.949 . S
H1690 C1694 0.949 . S
C1691 C1692 1.349 . S
C1691 C1693 1.327 . S
C1691 H1714 0.950 . S
C1692 C1691 1.349 . S
C1692 C1704 1.349 . S
C1693 C1691 1.327 . S
C1693 C1709 1.429 . S
C1693 H1715 0.950 . S
C1694 H1690 0.949 . S
C1694 C1702 1.574 . S
C1694 C1710 1.368 . S
H1695 C1703 0.950 . S
H1696 C1701 0.950 . S
H1697 C1702 0.949 . S
H1698 C1704 0.950 . S
H1699 C1705 0.950 . S
H1700 C1706 0.949 . S
C1701 H1696 0.950 . S
C1701 C1703 1.327 . S
C1701 C1707 1.429 . S
C1702 C1694 1.574 . S
C1702 H1697 0.949 . S
C1702 C1708 1.368 . S
C1703 C1687 1.349 . S
C1703 H1695 0.950 . S
C1703 C1701 1.327 . S
C1704 C1692 1.349 . S
C1704 H1698 0.950 . S
C1704 C1705 1.327 . S
C1705 H1699 0.950 . S
C1705 C1704 1.327 . S
C1705 C1709 1.429 . S
C1706 C1689 1.574 . S
C1706 H1700 0.949 . S
C1706 C1710 1.368 . S
C1707 C1688 1.429 . S
C1707 C1701 1.429 . S
C1707 C1708 1.523 . S
C1708 C1689 1.368 . S
C1708 C1702 1.368 . S
C1708 C1707 1.523 . S
C1709 C1693 1.429 . S
C1709 C1705 1.429 . S
C1709 C1710 1.523 . S
C1710 C1694 1.368 . S
C1710 C1706 1.368 . S
C1710 C1709 1.523 . S
H1711 C1686 0.950 . S
H1712 C1688 0.950 . S
H1713 C1689 0.949 . S
H1714 C1691 0.950 . S
H1715 C1693 0.950 . S
C1716 C1717 1.349 . S
C1716 C1718 1.327 . S
C1716 H1741 0.950 . S
C1717 C1716 1.349 . S
C1717 C1733 1.349 . S
C1718 C1716 1.327 . S
C1718 C1737 1.429 . S
C1718 H1742 0.950 . S
C1719 C1736 1.574 . S
C1719 C1738 1.368 . S
C1719 H1743 0.949 . S
H1720 C1724 0.949 . S
C1721 C1722 1.349 . S
C1721 C1723 1.327 . S
C1721 H1744 0.950 . S
C1722 C1721 1.349 . S
C1722 C1734 1.349 . S
C1723 C1721 1.327 . S
C1723 C1739 1.429 . S
C1723 H1745 0.950 . S
C1724 H1720 0.949 . S
C1724 C1732 1.574 . S
C1724 C1740 1.368 . S
H1725 C1733 0.950 . S
H1726 C1731 0.950 . S
H1727 C1732 0.949 . S
H1728 C1734 0.950 . S
H1729 C1735 0.950 . S
H1730 C1736 0.949 . S
C1731 H1726 0.950 . S
C1731 C1733 1.327 . S
C1731 C1737 1.429 . S
C1732 C1724 1.574 . S
C1732 H1727 0.949 . S
C1732 C1738 1.368 . S
C1733 C1717 1.349 . S
C1733 H1725 0.950 . S
C1733 C1731 1.327 . S
C1734 C1722 1.349 . S
C1734 H1728 0.950 . S
C1734 C1735 1.327 . S
C1735 H1729 0.950 . S
C1735 C1734 1.327 . S
C1735 C1739 1.429 . S
C1736 C1719 1.574 . S
C1736 H1730 0.949 . S
C1736 C1740 1.368 . S
C1737 C1718 1.429 . S
C1737 C1731 1.429 . S
C1737 C1738 1.523 . S
C1738 C1719 1.368 . S
C1738 C1732 1.368 . S
C1738 C1737 1.523 . S
C1739 C1723 1.429 . S
C1739 C1735 1.429 . S
C1739 C1740 1.523 . S
C1740 C1724 1.368 . S
C1740 C1736 1.368 . S
C1740 C1739 1.523 . S
H1741 C1716 0.950 . S
H1742 C1718 0.950 . S
H1743 C1719 0.949 . S
H1744 C1721 0.950 . S
H1745 C1723 0.950 . S
C1746 C1747 1.349 . S
C1746 C1748 1.327 . S
C1746 H1771 0.950 . S
C1747 C1746 1.349 . S
C1747 C1763 1.349 . S
C1748 C1746 1.327 . S
C1748 C1767 1.429 . S
C1748 H1772 0.950 . S
C1749 C1766 1.574 . S
C1749 C1768 1.368 . S
C1749 H1773 0.949 . S
H1750 C1754 0.949 . S
C1751 C1752 1.349 . S
C1751 C1753 1.327 . S
C1751 H1774 0.950 . S
C1752 C1751 1.349 . S
C1752 C1764 1.349 . S
C1753 C1751 1.327 . S
C1753 C1769 1.429 . S
C1753 H1775 0.950 . S
C1754 H1750 0.949 . S
C1754 C1762 1.574 . S
C1754 C1770 1.368 . S
H1755 C1763 0.950 . S
H1756 C1761 0.950 . S
H1757 C1762 0.949 . S
H1758 C1764 0.950 . S
H1759 C1765 0.950 . S
H1760 C1766 0.949 . S
C1761 H1756 0.950 . S
C1761 C1763 1.327 . S
C1761 C1767 1.429 . S
C1762 C1754 1.574 . S
C1762 H1757 0.949 . S
C1762 C1768 1.368 . S
C1763 C1747 1.349 . S
C1763 H1755 0.950 . S
C1763 C1761 1.327 . S
C1764 C1752 1.349 . S
C1764 H1758 0.950 . S
C1764 C1765 1.327 . S
C1765 H1759 0.950 . S
C1765 C1764 1.327 . S
C1765 C1769 1.429 . S
C1766 C1749 1.574 . S
C1766 H1760 0.949 . S
C1766 C1770 1.368 . S
C1767 C1748 1.429 . S
C1767 C1761 1.429 . S
C1767 C1768 1.523 . S
C1768 C1749 1.368 . S
C1768 C1762 1.368 . S
C1768 C1767 1.523 . S
C1769 C1753 1.429 . S
C1769 C1765 1.429 . S
C1769 C1770 1.523 . S
C1770 C1754 1.368 . S
C1770 C1766 1.368 . S
C1770 C1769 1.523 . S
H1771 C1746 0.950 . S
H1772 C1748 0.950 . S
H1773 C1749 0.949 . S
H1774 C1751 0.950 . S
H1775 C1753 0.950 . S
C1776 C1777 1.349 . S
C1776 C1778 1.327 . S
C1776 H1801 0.950 . S
C1777 C1776 1.349 . S
C1777 C1793 1.349 . S
C1778 C1776 1.327 . S
C1778 C1797 1.429 . S
C1778 H1802 0.950 . S
C1779 C1796 1.574 . S
C1779 C1798 1.368 . S
C1779 H1803 0.949 . S
H1780 C1784 0.949 . S
C1781 C1782 1.349 . S
C1781 C1783 1.327 . S
C1781 H1804 0.950 . S
C1782 C1781 1.349 . S
C1782 C1794 1.349 . S
C1783 C1781 1.327 . S
C1783 C1799 1.429 . S
C1783 H1805 0.950 . S
C1784 H1780 0.949 . S
C1784 C1792 1.574 . S
C1784 C1800 1.368 . S
H1785 C1793 0.950 . S
H1786 C1791 0.950 . S
H1787 C1792 0.949 . S
H1788 C1794 0.950 . S
H1789 C1795 0.950 . S
H1790 C1796 0.949 . S
C1791 H1786 0.950 . S
C1791 C1793 1.327 . S
C1791 C1797 1.429 . S
C1792 C1784 1.574 . S
C1792 H1787 0.949 . S
C1792 C1798 1.368 . S
C1793 C1777 1.349 . S
C1793 H1785 0.950 . S
C1793 C1791 1.327 . S
C1794 C1782 1.349 . S
C1794 H1788 0.950 . S
C1794 C1795 1.327 . S
C1795 H1789 0.950 . S
C1795 C1794 1.327 . S
C1795 C1799 1.429 . S
C1796 C1779 1.574 . S
C1796 H1790 0.949 . S
C1796 C1800 1.368 . S
C1797 C1778 1.429 . S
C1797 C1791 1.429 . S
C1797 C1798 1.523 . S
C1798 C1779 1.368 . S
C1798 C1792 1.368 . S
C1798 C1797 1.523 . S
C1799 C1783 1.429 . S
C1799 C1795 1.429 . S
C1799 C1800 1.523 . S
C1800 C1784 1.368 . S
C1800 C1796 1.368 . S
C1800 C1799 1.523 . S
H1801 C1776 0.950 . S
H1802 C1778 0.950 . S
H1803 C1779 0.949 . S
H1804 C1781 0.950 . S
H1805 C1783 0.950 . S
C1806 C1807 1.349 . S
C1806 C1808 1.327 . S
C1806 H1831 0.950 . S
C1807 C1806 1.349 . S
C1807 C1823 1.349 . S
C1808 C1806 1.327 . S
C1808 C1827 1.429 . S
C1808 H1832 0.950 . S
C1809 C1826 1.574 . S
C1809 C1828 1.368 . S
C1809 H1833 0.949 . S
H1810 C1814 0.949 . S
C1811 C1812 1.349 . S
C1811 C1813 1.327 . S
C1811 H1834 0.950 . S
C1812 C1811 1.349 . S
C1812 C1824 1.349 . S
C1813 C1811 1.327 . S
C1813 C1829 1.429 . S
C1813 H1835 0.950 . S
C1814 H1810 0.949 . S
C1814 C1822 1.574 . S
C1814 C1830 1.368 . S
H1815 C1823 0.950 . S
H1816 C1821 0.950 . S
H1817 C1822 0.949 . S
H1818 C1824 0.950 . S
H1819 C1825 0.950 . S
H1820 C1826 0.949 . S
C1821 H1816 0.950 . S
C1821 C1823 1.327 . S
C1821 C1827 1.429 . S
C1822 C1814 1.574 . S
C1822 H1817 0.949 . S
C1822 C1828 1.368 . S
C1823 C1807 1.349 . S
C1823 H1815 0.950 . S
C1823 C1821 1.327 . S
C1824 C1812 1.349 . S
C1824 H1818 0.950 . S
C1824 C1825 1.327 . S
C1825 H1819 0.950 . S
C1825 C1824 1.327 . S
C1825 C1829 1.429 . S
C1826 C1809 1.574 . S
C1826 H1820 0.949 . S
C1826 C1830 1.368 . S
C1827 C1808 1.429 . S
C1827 C1821 1.429 . S
C1827 C1828 1.523 . S
C1828 C1809 1.368 . S
C1828 C1822 1.368 . S
C1828 C1827 1.523 . S
C1829 C1813 1.429 . S
C1829 C1825 1.429 . S
C1829 C1830 1.523 . S
C1830 C1814 1.368 . S
C1830 C1826 1.368 . S
C1830 C1829 1.523 . S
H1831 C1806 0.950 . S
H1832 C1808 0.950 . S
H1833 C1809 0.949 . S
H1834 C1811 0.950 . S
H1835 C1813 0.950 . S
C1836 C1837 1.349 . S
C1836 C1838 1.327 . S
C1836 H1861 0.950 . S
C1837 C1836 1.349 . S
C1837 C1853 1.349 . S
C1838 C1836 1.327 . S
C1838 C1857 1.429 . S
C1838 H1862 0.950 . S
C1839 C1856 1.574 . S
C1839 C1858 1.368 . S
C1839 H1863 0.949 . S
H1840 C1844 0.949 . S
C1841 C1842 1.349 . S
C1841 C1843 1.327 . S
C1841 H1864 0.950 . S
C1842 C1841 1.349 . S
C1842 C1854 1.349 . S
C1843 C1841 1.327 . S
C1843 C1859 1.429 . S
C1843 H1865 0.950 . S
C1844 H1840 0.949 . S
C1844 C1852 1.574 . S
C1844 C1860 1.368 . S
H1845 C1853 0.950 . S
H1846 C1851 0.950 . S
H1847 C1852 0.949 . S
H1848 C1854 0.950 . S
H1849 C1855 0.950 . S
H1850 C1856 0.949 . S
C1851 H1846 0.950 . S
C1851 C1853 1.327 . S
C1851 C1857 1.429 . S
C1852 C1844 1.574 . S
C1852 H1847 0.949 . S
C1852 C1858 1.368 . S
C1853 C1837 1.349 . S
C1853 H1845 0.950 . S
C1853 C1851 1.327 . S
C1854 C1842 1.349 . S
C1854 H1848 0.950 . S
C1854 C1855 1.327 . S
C1855 H1849 0.950 . S
C1855 C1854 1.327 . S
C1855 C1859 1.429 . S
C1856 C1839 1.574 . S
C1856 H1850 0.949 . S
C1856 C1860 1.368 . S
C1857 C1838 1.429 . S
C1857 C1851 1.429 . S
C1857 C1858 1.523 . S
C1858 C1839 1.368 . S
C1858 C1852 1.368 . S
C1858 C1857 1.523 . S
C1859 C1843 1.429 . S
C1859 C1855 1.429 . S
C1859 C1860 1.523 . S
C1860 C1844 1.368 . S
C1860 C1856 1.368 . S
C1860 C1859 1.523 . S
H1861 C1836 0.950 . S
H1862 C1838 0.950 . S
H1863 C1839 0.949 . S
H1864 C1841 0.950 . S
H1865 C1843 0.950 . S
C1866 C1867 1.349 . S
C1866 C1868 1.327 . S
C1866 H1891 0.950 . S
C1867 C1866 1.349 . S
C1867 C1883 1.349 . S
C1868 C1866 1.327 . S
C1868 C1887 1.429 . S
C1868 H1892 0.950 . S
C1869 C1886 1.574 . S
C1869 C1888 1.368 . S
C1869 H1893 0.949 . S
H1870 C1874 0.949 . S
C1871 C1872 1.349 . S
C1871 C1873 1.327 . S
C1871 H1894 0.950 . S
C1872 C1871 1.349 . S
C1872 C1884 1.349 . S
C1873 C1871 1.327 . S
C1873 C1889 1.429 . S
C1873 H1895 0.950 . S
C1874 H1870 0.949 . S
C1874 C1882 1.574 . S
C1874 C1890 1.368 . S
H1875 C1883 0.950 . S
H1876 C1881 0.950 . S
H1877 C1882 0.949 . S
H1878 C1884 0.950 . S
H1879 C1885 0.950 . S
H1880 C1886 0.949 . S
C1881 H1876 0.950 . S
C1881 C1883 1.327 . S
C1881 C1887 1.429 . S
C1882 C1874 1.574 . S
C1882 H1877 0.949 . S
C1882 C1888 1.368 . S
C1883 C1867 1.349 . S
C1883 H1875 0.950 . S
C1883 C1881 1.327 . S
C1884 C1872 1.349 . S
C1884 H1878 0.950 . S
C1884 C1885 1.327 . S
C1885 H1879 0.950 . S
C1885 C1884 1.327 . S
C1885 C1889 1.429 . S
C1886 C1869 1.574 . S
C1886 H1880 0.949 . S
C1886 C1890 1.368 . S
C1887 C1868 1.429 . S
C1887 C1881 1.429 . S
C1887 C1888 1.523 . S
C1888 C1869 1.368 . S
C1888 C1882 1.368 . S
C1888 C1887 1.523 . S
C1889 C1873 1.429 . S
C1889 C1885 1.429 . S
C1889 C1890 1.523 . S
C1890 C1874 1.368 . S
C1890 C1886 1.368 . S
C1890 C1889 1.523 . S
H1891 C1866 0.950 . S
H1892 C1868 0.950 . S
H1893 C1869 0.949 . S
H1894 C1871 0.950 . S
H1895 C1873 0.950 . S
C1896 C1897 1.349 . S
C1896 C1898 1.327 . S
C1896 H1921 0.950 . S
C1897 C1896 1.349 . S
C1897 C1913 1.349 . S
C1898 C1896 1.327 . S
C1898 C1917 1.429 . S
C1898 H1922 0.950 . S
C1899 C1916 1.574 . S
C1899 C1918 1.368 . S
C1899 H1923 0.949 . S
H1900 C1904 0.949 . S
C1901 C1902 1.349 . S
C1901 C1903 1.327 . S
C1901 H1924 0.950 . S
C1902 C1901 1.349 . S
C1902 C1914 1.349 . S
C1903 C1901 1.327 . S
C1903 C1919 1.429 . S
C1903 H1925 0.950 . S
C1904 H1900 0.949 . S
C1904 C1912 1.574 . S
C1904 C1920 1.368 . S
H1905 C1913 0.950 . S
H1906 C1911 0.950 . S
H1907 C1912 0.949 . S
H1908 C1914 0.950 . S
H1909 C1915 0.950 . S
H1910 C1916 0.949 . S
C1911 H1906 0.950 . S
C1911 C1913 1.327 . S
C1911 C1917 1.429 . S
C1912 C1904 1.574 . S
C1912 H1907 0.949 . S
C1912 C1918 1.368 . S
C1913 C1897 1.349 . S
C1913 H1905 0.950 . S
C1913 C1911 1.327 . S
C1914 C1902 1.349 . S
C1914 H1908 0.950 . S
C1914 C1915 1.327 . S
C1915 H1909 0.950 . S
C1915 C1914 1.327 . S
C1915 C1919 1.429 . S
C1916 C1899 1.574 . S
C1916 H1910 0.949 . S
C1916 C1920 1.368 . S
C1917 C1898 1.429 . S
C1917 C1911 1.429 . S
C1917 C1918 1.523 . S
C1918 C1899 1.368 . S
C1918 C1912 1.368 . S
C1918 C1917 1.523 . S
C1919 C1903 1.429 . S
C1919 C1915 1.429 . S
C1919 C1920 1.523 . S
C1920 C1904 1.368 . S
C1920 C1916 1.368 . S
C1920 C1919 1.523 . S
H1921 C1896 0.950 . S
H1922 C1898 0.950 . S
H1923 C1899 0.949 . S
H1924 C1901 0.950 . S
H1925 C1903 0.950 . S
C1926 C1927 1.349 . S
C1926 C1928 1.327 . S
C1926 H1951 0.950 . S
C1927 C1926 1.349 . S
C1927 C1943 1.349 . S
C1928 C1926 1.327 . S
C1928 C1947 1.429 . S
C1928 H1952 0.950 . S
C1929 C1946 1.574 . S
C1929 C1948 1.368 . S
C1929 H1953 0.949 . S
H1930 C1934 0.949 . S
C1931 C1932 1.349 . S
C1931 C1933 1.327 . S
C1931 H1954 0.950 . S
C1932 C1931 1.349 . S
C1932 C1944 1.349 . S
C1933 C1931 1.327 . S
C1933 C1949 1.429 . S
C1933 H1955 0.950 . S
C1934 H1930 0.949 . S
C1934 C1942 1.574 . S
C1934 C1950 1.368 . S
H1935 C1943 0.950 . S
H1936 C1941 0.950 . S
H1937 C1942 0.949 . S
H1938 C1944 0.950 . S
H1939 C1945 0.950 . S
H1940 C1946 0.949 . S
C1941 H1936 0.950 . S
C1941 C1943 1.327 . S
C1941 C1947 1.429 . S
C1942 C1934 1.574 . S
C1942 H1937 0.949 . S
C1942 C1948 1.368 . S
C1943 C1927 1.349 . S
C1943 H1935 0.950 . S
C1943 C1941 1.327 . S
C1944 C1932 1.349 . S
C1944 H1938 0.950 . S
C1944 C1945 1.327 . S
C1945 H1939 0.950 . S
C1945 C1944 1.327 . S
C1945 C1949 1.429 . S
C1946 C1929 1.574 . S
C1946 H1940 0.949 . S
C1946 C1950 1.368 . S
C1947 C1928 1.429 . S
C1947 C1941 1.429 . S
C1947 C1948 1.523 . S
C1948 C1929 1.368 . S
C1948 C1942 1.368 . S
C1948 C1947 1.523 . S
C1949 C1933 1.429 . S
C1949 C1945 1.429 . S
C1949 C1950 1.523 . S
C1950 C1934 1.368 . S
C1950 C1946 1.368 . S
C1950 C1949 1.523 . S
H1951 C1926 0.950 . S
H1952 C1928 0.950 . S
H1953 C1929 0.949 . S
H1954 C1931 0.950 . S
H1955 C1933 0.950 . S
C1956 C1957 1.349 . S
C1956 C1958 1.327 . S
C1956 H1981 0.950 . S
C1957 C1956 1.349 . S
C1957 C1973 1.349 . S
C1958 C1956 1.327 . S
C1958 C1977 1.429 . S
C1958 H1982 0.950 . S
C1959 C1976 1.574 . S
C1959 C1978 1.368 . S
C1959 H1983 0.949 . S
H1960 C1964 0.949 . S
C1961 C1962 1.349 . S
C1961 C1963 1.327 . S
C1961 H1984 0.950 . S
C1962 C1961 1.349 . S
C1962 C1974 1.349 . S
C1963 C1961 1.327 . S
C1963 C1979 1.429 . S
C1963 H1985 0.950 . S
C1964 H1960 0.949 . S
C1964 C1972 1.574 . S
C1964 C1980 1.368 . S
H1965 C1973 0.950 . S
H1966 C1971 0.950 . S
H1967 C1972 0.949 . S
H1968 C1974 0.950 . S
H1969 C1975 0.950 . S
H1970 C1976 0.949 . S
C1971 H1966 0.950 . S
C1971 C1973 1.327 . S
C1971 C1977 1.429 . S
C1972 C1964 1.574 . S
C1972 H1967 0.949 . S
C1972 C1978 1.368 . S
C1973 C1957 1.349 . S
C1973 H1965 0.950 . S
C1973 C1971 1.327 . S
C1974 C1962 1.349 . S
C1974 H1968 0.950 . S
C1974 C1975 1.327 . S
C1975 H1969 0.950 . S
C1975 C1974 1.327 . S
C1975 C1979 1.429 . S
C1976 C1959 1.574 . S
C1976 H1970 0.949 . S
C1976 C1980 1.368 . S
C1977 C1958 1.429 . S
C1977 C1971 1.429 . S
C1977 C1978 1.523 . S
C1978 C1959 1.368 . S
C1978 C1972 1.368 . S
C1978 C1977 1.523 . S
C1979 C1963 1.429 . S
C1979 C1975 1.429 . S
C1979 C1980 1.523 . S
C1980 C1964 1.368 . S
C1980 C1976 1.368 . S
C1980 C1979 1.523 . S
H1981 C1956 0.950 . S
H1982 C1958 0.950 . S
H1983 C1959 0.949 . S
H1984 C1961 0.950 . S
H1985 C1963 0.950 . S
C1986 C1987 1.349 . S
C1986 C1988 1.327 . S
C1986 H2011 0.950 . S
C1987 C1986 1.349 . S
C1987 C2003 1.349 . S
C1988 C1986 1.327 . S
C1988 C2007 1.429 . S
C1988 H2012 0.950 . S
C1989 C2006 1.574 . S
C1989 C2008 1.368 . S
C1989 H2013 0.949 . S
H1990 C1994 0.949 . S
C1991 C1992 1.349 . S
C1991 C1993 1.327 . S
C1991 H2014 0.950 . S
C1992 C1991 1.349 . S
C1992 C2004 1.349 . S
C1993 C1991 1.327 . S
C1993 C2009 1.429 . S
C1993 H2015 0.950 . S
C1994 H1990 0.949 . S
C1994 C2002 1.574 . S
C1994 C2010 1.368 . S
H1995 C2003 0.950 . S
H1996 C2001 0.950 . S
H1997 C2002 0.949 . S
H1998 C2004 0.950 . S
H1999 C2005 0.950 . S
H2000 C2006 0.949 . S
C2001 H1996 0.950 . S
C2001 C2003 1.327 . S
C2001 C2007 1.429 . S
C2002 C1994 1.574 . S
C2002 H1997 0.949 . S
C2002 C2008 1.368 . S
C2003 C1987 1.349 . S
C2003 H1995 0.950 . S
C2003 C2001 1.327 . S
C2004 C1992 1.349 . S
C2004 H1998 0.950 . S
C2004 C2005 1.327 . S
C2005 H1999 0.950 . S
C2005 C2004 1.327 . S
C2005 C2009 1.429 . S
C2006 C1989 1.574 . S
C2006 H2000 0.949 . S
C2006 C2010 1.368 . S
C2007 C1988 1.429 . S
C2007 C2001 1.429 . S
C2007 C2008 1.523 . S
C2008 C1989 1.368 . S
C2008 C2002 1.368 . S
C2008 C2007 1.523 . S
C2009 C1993 1.429 . S
C2009 C2005 1.429 . S
C2009 C2010 1.523 . S
C2010 C1994 1.368 . S
C2010 C2006 1.368 . S
C2010 C2009 1.523 . S
H2011 C1986 0.950 . S
H2012 C1988 0.950 . S
H2013 C1989 0.949 . S
H2014 C1991 0.950 . S
H2015 C1993 0.950 . S
C2016 C2017 1.349 . S
C2016 C2018 1.327 . S
C2016 H2041 0.950 . S
C2017 C2016 1.349 . S
C2017 C2033 1.349 . S
C2018 C2016 1.327 . S
C2018 C2037 1.429 . S
C2018 H2042 0.950 . S
C2019 C2036 1.574 . S
C2019 C2038 1.368 . S
C2019 H2043 0.949 . S
H2020 C2024 0.949 . S
C2021 C2022 1.349 . S
C2021 C2023 1.327 . S
C2021 H2044 0.950 . S
C2022 C2021 1.349 . S
C2022 C2034 1.349 . S
C2023 C2021 1.327 . S
C2023 C2039 1.429 . S
C2023 H2045 0.950 . S
C2024 H2020 0.949 . S
C2024 C2032 1.574 . S
C2024 C2040 1.368 . S
H2025 C2033 0.950 . S
H2026 C2031 0.950 . S
H2027 C2032 0.949 . S
H2028 C2034 0.950 . S
H2029 C2035 0.950 . S
H2030 C2036 0.949 . S
C2031 H2026 0.950 . S
C2031 C2033 1.327 . S
C2031 C2037 1.429 . S
C2032 C2024 1.574 . S
C2032 H2027 0.949 . S
C2032 C2038 1.368 . S
C2033 C2017 1.349 . S
C2033 H2025 0.950 . S
C2033 C2031 1.327 . S
C2034 C2022 1.349 . S
C2034 H2028 0.950 . S
C2034 C2035 1.327 . S
C2035 H2029 0.950 . S
C2035 C2034 1.327 . S
C2035 C2039 1.429 . S
C2036 C2019 1.574 . S
C2036 H2030 0.949 . S
C2036 C2040 1.368 . S
C2037 C2018 1.429 . S
C2037 C2031 1.429 . S
C2037 C2038 1.523 . S
C2038 C2019 1.368 . S
C2038 C2032 1.368 . S
C2038 C2037 1.523 . S
C2039 C2023 1.429 . S
C2039 C2035 1.429 . S
C2039 C2040 1.523 . S
C2040 C2024 1.368 . S
C2040 C2036 1.368 . S
C2040 C2039 1.523 . S
H2041 C2016 0.950 . S
H2042 C2018 0.950 . S
H2043 C2019 0.949 . S
H2044 C2021 0.950 . S
H2045 C2023 0.950 . S
C2046 C2047 1.349 . S
C2046 C2048 1.327 . S
C2046 H2071 0.950 . S
C2047 C2046 1.349 . S
C2047 C2063 1.349 . S
C2048 C2046 1.327 . S
C2048 C2067 1.429 . S
C2048 H2072 0.950 . S
C2049 C2066 1.574 . S
C2049 C2068 1.368 . S
C2049 H2073 0.949 . S
H2050 C2054 0.949 . S
C2051 C2052 1.349 . S
C2051 C2053 1.327 . S
C2051 H2074 0.950 . S
C2052 C2051 1.349 . S
C2052 C2064 1.349 . S
C2053 C2051 1.327 . S
C2053 C2069 1.429 . S
C2053 H2075 0.950 . S
C2054 H2050 0.949 . S
C2054 C2062 1.574 . S
C2054 C2070 1.368 . S
H2055 C2063 0.950 . S
H2056 C2061 0.950 . S
H2057 C2062 0.949 . S
H2058 C2064 0.950 . S
H2059 C2065 0.950 . S
H2060 C2066 0.949 . S
C2061 H2056 0.950 . S
C2061 C2063 1.327 . S
C2061 C2067 1.429 . S
C2062 C2054 1.574 . S
C2062 H2057 0.949 . S
C2062 C2068 1.368 . S
C2063 C2047 1.349 . S
C2063 H2055 0.950 . S
C2063 C2061 1.327 . S
C2064 C2052 1.349 . S
C2064 H2058 0.950 . S
C2064 C2065 1.327 . S
C2065 H2059 0.950 . S
C2065 C2064 1.327 . S
C2065 C2069 1.429 . S
C2066 C2049 1.574 . S
C2066 H2060 0.949 . S
C2066 C2070 1.368 . S
C2067 C2048 1.429 . S
C2067 C2061 1.429 . S
C2067 C2068 1.523 . S
C2068 C2049 1.368 . S
C2068 C2062 1.368 . S
C2068 C2067 1.523 . S
C2069 C2053 1.429 . S
C2069 C2065 1.429 . S
C2069 C2070 1.523 . S
C2070 C2054 1.368 . S
C2070 C2066 1.368 . S
C2070 C2069 1.523 . S
H2071 C2046 0.950 . S
H2072 C2048 0.950 . S
H2073 C2049 0.949 . S
H2074 C2051 0.950 . S
H2075 C2053 0.950 . S
C2076 C2077 1.349 . S
C2076 C2078 1.327 . S
C2076 H2101 0.950 . S
C2077 C2076 1.349 . S
C2077 C2093 1.349 . S
C2078 C2076 1.327 . S
C2078 C2097 1.429 . S
C2078 H2102 0.950 . S
C2079 C2096 1.574 . S
C2079 C2098 1.368 . S
C2079 H2103 0.949 . S
H2080 C2084 0.949 . S
C2081 C2082 1.349 . S
C2081 C2083 1.327 . S
C2081 H2104 0.950 . S
C2082 C2081 1.349 . S
C2082 C2094 1.349 . S
C2083 C2081 1.327 . S
C2083 C2099 1.429 . S
C2083 H2105 0.950 . S
C2084 H2080 0.949 . S
C2084 C2092 1.574 . S
C2084 C2100 1.368 . S
H2085 C2093 0.950 . S
H2086 C2091 0.950 . S
H2087 C2092 0.949 . S
H2088 C2094 0.950 . S
H2089 C2095 0.950 . S
H2090 C2096 0.949 . S
C2091 H2086 0.950 . S
C2091 C2093 1.327 . S
C2091 C2097 1.429 . S
C2092 C2084 1.574 . S
C2092 H2087 0.949 . S
C2092 C2098 1.368 . S
C2093 C2077 1.349 . S
C2093 H2085 0.950 . S
C2093 C2091 1.327 . S
C2094 C2082 1.349 . S
C2094 H2088 0.950 . S
C2094 C2095 1.327 . S
C2095 H2089 0.950 . S
C2095 C2094 1.327 . S
C2095 C2099 1.429 . S
C2096 C2079 1.574 . S
C2096 H2090 0.949 . S
C2096 C2100 1.368 . S
C2097 C2078 1.429 . S
C2097 C2091 1.429 . S
C2097 C2098 1.523 . S
C2098 C2079 1.368 . S
C2098 C2092 1.368 . S
C2098 C2097 1.523 . S
C2099 C2083 1.429 . S
C2099 C2095 1.429 . S
C2099 C2100 1.523 . S
C2100 C2084 1.368 . S
C2100 C2096 1.368 . S
C2100 C2099 1.523 . S
H2101 C2076 0.950 . S
H2102 C2078 0.950 . S
H2103 C2079 0.949 . S
H2104 C2081 0.950 . S
H2105 C2083 0.950 . S
C2106 C2107 1.349 . S
C2106 C2108 1.327 . S
C2106 H2131 0.950 . S
C2107 C2106 1.349 . S
C2107 C2123 1.349 . S
C2108 C2106 1.327 . S
C2108 C2127 1.429 . S
C2108 H2132 0.950 . S
C2109 C2126 1.574 . S
C2109 C2128 1.368 . S
C2109 H2133 0.949 . S
H2110 C2114 0.949 . S
C2111 C2112 1.349 . S
C2111 C2113 1.327 . S
C2111 H2134 0.950 . S
C2112 C2111 1.349 . S
C2112 C2124 1.349 . S
C2113 C2111 1.327 . S
C2113 C2129 1.429 . S
C2113 H2135 0.950 . S
C2114 H2110 0.949 . S
C2114 C2122 1.574 . S
C2114 C2130 1.368 . S
H2115 C2123 0.950 . S
H2116 C2121 0.950 . S
H2117 C2122 0.949 . S
H2118 C2124 0.950 . S
H2119 C2125 0.950 . S
H2120 C2126 0.949 . S
C2121 H2116 0.950 . S
C2121 C2123 1.327 . S
C2121 C2127 1.429 . S
C2122 C2114 1.574 . S
C2122 H2117 0.949 . S
C2122 C2128 1.368 . S
C2123 C2107 1.349 . S
C2123 H2115 0.950 . S
C2123 C2121 1.327 . S
C2124 C2112 1.349 . S
C2124 H2118 0.950 . S
C2124 C2125 1.327 . S
C2125 H2119 0.950 . S
C2125 C2124 1.327 . S
C2125 C2129 1.429 . S
C2126 C2109 1.574 . S
C2126 H2120 0.949 . S
C2126 C2130 1.368 . S
C2127 C2108 1.429 . S
C2127 C2121 1.429 . S
C2127 C2128 1.523 . S
C2128 C2109 1.368 . S
C2128 C2122 1.368 . S
C2128 C2127 1.523 . S
C2129 C2113 1.429 . S
C2129 C2125 1.429 . S
C2129 C2130 1.523 . S
C2130 C2114 1.368 . S
C2130 C2126 1.368 . S
C2130 C2129 1.523 . S
H2131 C2106 0.950 . S
H2132 C2108 0.950 . S
H2133 C2109 0.949 . S
H2134 C2111 0.950 . S
H2135 C2113 0.950 . S
C2136 C2137 1.349 . S
C2136 C2138 1.327 . S
C2136 H2161 0.950 . S
C2137 C2136 1.349 . S
C2137 C2153 1.349 . S
C2138 C2136 1.327 . S
C2138 C2157 1.429 . S
C2138 H2162 0.950 . S
C2139 C2156 1.574 . S
C2139 C2158 1.368 . S
C2139 H2163 0.949 . S
H2140 C2144 0.949 . S
C2141 C2142 1.349 . S
C2141 C2143 1.327 . S
C2141 H2164 0.950 . S
C2142 C2141 1.349 . S
C2142 C2154 1.349 . S
C2143 C2141 1.327 . S
C2143 C2159 1.429 . S
C2143 H2165 0.950 . S
C2144 H2140 0.949 . S
C2144 C2152 1.574 . S
C2144 C2160 1.368 . S
H2145 C2153 0.950 . S
H2146 C2151 0.950 . S
H2147 C2152 0.949 . S
H2148 C2154 0.950 . S
H2149 C2155 0.950 . S
H2150 C2156 0.949 . S
C2151 H2146 0.950 . S
C2151 C2153 1.327 . S
C2151 C2157 1.429 . S
C2152 C2144 1.574 . S
C2152 H2147 0.949 . S
C2152 C2158 1.368 . S
C2153 C2137 1.349 . S
C2153 H2145 0.950 . S
C2153 C2151 1.327 . S
C2154 C2142 1.349 . S
C2154 H2148 0.950 . S
C2154 C2155 1.327 . S
C2155 H2149 0.950 . S
C2155 C2154 1.327 . S
C2155 C2159 1.429 . S
C2156 C2139 1.574 . S
C2156 H2150 0.949 . S
C2156 C2160 1.368 . S
C2157 C2138 1.429 . S
C2157 C2151 1.429 . S
C2157 C2158 1.523 . S
C2158 C2139 1.368 . S
C2158 C2152 1.368 . S
C2158 C2157 1.523 . S
C2159 C2143 1.429 . S
C2159 C2155 1.429 . S
C2159 C2160 1.523 . S
C2160 C2144 1.368 . S
C2160 C2156 1.368 . S
C2160 C2159 1.523 . S
H2161 C2136 0.950 . S
H2162 C2138 0.950 . S
H2163 C2139 0.949 . S
H2164 C2141 0.950 . S
H2165 C2143 0.950 . S
C2166 C2167 1.349 . S
C2166 C2168 1.327 . S
C2166 H2191 0.950 . S
C2167 C2166 1.349 . S
C2167 C2183 1.349 . S
C2168 C2166 1.327 . S
C2168 C2187 1.429 . S
C2168 H2192 0.950 . S
C2169 C2186 1.574 . S
C2169 C2188 1.368 . S
C2169 H2193 0.949 . S
H2170 C2174 0.949 . S
C2171 C2172 1.349 . S
C2171 C2173 1.327 . S
C2171 H2194 0.950 . S
C2172 C2171 1.349 . S
C2172 C2184 1.349 . S
C2173 C2171 1.327 . S
C2173 C2189 1.429 . S
C2173 H2195 0.950 . S
C2174 H2170 0.949 . S
C2174 C2182 1.574 . S
C2174 C2190 1.368 . S
H2175 C2183 0.950 . S
H2176 C2181 0.950 . S
H2177 C2182 0.949 . S
H2178 C2184 0.950 . S
H2179 C2185 0.950 . S
H2180 C2186 0.949 . S
C2181 H2176 0.950 . S
C2181 C2183 1.327 . S
C2181 C2187 1.429 . S
C2182 C2174 1.574 . S
C2182 H2177 0.949 . S
C2182 C2188 1.368 . S
C2183 C2167 1.349 . S
C2183 H2175 0.950 . S
C2183 C2181 1.327 . S
C2184 C2172 1.349 . S
C2184 H2178 0.950 . S
C2184 C2185 1.327 . S
C2185 H2179 0.950 . S
C2185 C2184 1.327 . S
C2185 C2189 1.429 . S
C2186 C2169 1.574 . S
C2186 H2180 0.949 . S
C2186 C2190 1.368 . S
C2187 C2168 1.429 . S
C2187 C2181 1.429 . S
C2187 C2188 1.523 . S
C2188 C2169 1.368 . S
C2188 C2182 1.368 . S
C2188 C2187 1.523 . S
C2189 C2173 1.429 . S
C2189 C2185 1.429 . S
C2189 C2190 1.523 . S
C2190 C2174 1.368 . S
C2190 C2186 1.368 . S
C2190 C2189 1.523 . S
H2191 C2166 0.950 . S
H2192 C2168 0.950 . S
H2193 C2169 0.949 . S
H2194 C2171 0.950 . S
H2195 C2173 0.950 . S
C2196 C2197 1.349 . S
C2196 C2198 1.327 . S
C2196 H2221 0.950 . S
C2197 C2196 1.349 . S
C2197 C2213 1.349 . S
C2198 C2196 1.327 . S
C2198 C2217 1.429 . S
C2198 H2222 0.950 . S
C2199 C2216 1.574 . S
C2199 C2218 1.368 . S
C2199 H2223 0.949 . S
H2200 C2204 0.949 . S
C2201 C2202 1.349 . S
C2201 C2203 1.327 . S
C2201 H2224 0.950 . S
C2202 C2201 1.349 . S
C2202 C2214 1.349 . S
C2203 C2201 1.327 . S
C2203 C2219 1.429 . S
C2203 H2225 0.950 . S
C2204 H2200 0.949 . S
C2204 C2212 1.574 . S
C2204 C2220 1.368 . S
H2205 C2213 0.950 . S
H2206 C2211 0.950 . S
H2207 C2212 0.949 . S
H2208 C2214 0.950 . S
H2209 C2215 0.950 . S
H2210 C2216 0.949 . S
C2211 H2206 0.950 . S
C2211 C2213 1.327 . S
C2211 C2217 1.429 . S
C2212 C2204 1.574 . S
C2212 H2207 0.949 . S
C2212 C2218 1.368 . S
C2213 C2197 1.349 . S
C2213 H2205 0.950 . S
C2213 C2211 1.327 . S
C2214 C2202 1.349 . S
C2214 H2208 0.950 . S
C2214 C2215 1.327 . S
C2215 H2209 0.950 . S
C2215 C2214 1.327 . S
C2215 C2219 1.429 . S
C2216 C2199 1.574 . S
C2216 H2210 0.949 . S
C2216 C2220 1.368 . S
C2217 C2198 1.429 . S
C2217 C2211 1.429 . S
C2217 C2218 1.523 . S
C2218 C2199 1.368 . S
C2218 C2212 1.368 . S
C2218 C2217 1.523 . S
C2219 C2203 1.429 . S
C2219 C2215 1.429 . S
C2219 C2220 1.523 . S
C2220 C2204 1.368 . S
C2220 C2216 1.368 . S
C2220 C2219 1.523 . S
H2221 C2196 0.950 . S
H2222 C2198 0.950 . S
H2223 C2199 0.949 . S
H2224 C2201 0.950 . S
H2225 C2203 0.950 . S
C2226 C2227 1.349 . S
C2226 C2228 1.327 . S
C2226 H2251 0.950 . S
C2227 C2226 1.349 . S
C2227 C2243 1.349 . S
C2228 C2226 1.327 . S
C2228 C2247 1.429 . S
C2228 H2252 0.950 . S
C2229 C2246 1.574 . S
C2229 C2248 1.368 . S
C2229 H2253 0.949 . S
H2230 C2234 0.949 . S
C2231 C2232 1.349 . S
C2231 C2233 1.327 . S
C2231 H2254 0.950 . S
C2232 C2231 1.349 . S
C2232 C2244 1.349 . S
C2233 C2231 1.327 . S
C2233 C2249 1.429 . S
C2233 H2255 0.950 . S
C2234 H2230 0.949 . S
C2234 C2242 1.574 . S
C2234 C2250 1.368 . S
H2235 C2243 0.950 . S
H2236 C2241 0.950 . S
H2237 C2242 0.949 . S
H2238 C2244 0.950 . S
H2239 C2245 0.950 . S
H2240 C2246 0.949 . S
C2241 H2236 0.950 . S
C2241 C2243 1.327 . S
C2241 C2247 1.429 . S
C2242 C2234 1.574 . S
C2242 H2237 0.949 . S
C2242 C2248 1.368 . S
C2243 C2227 1.349 . S
C2243 H2235 0.950 . S
C2243 C2241 1.327 . S
C2244 C2232 1.349 . S
C2244 H2238 0.950 . S
C2244 C2245 1.327 . S
C2245 H2239 0.950 . S
C2245 C2244 1.327 . S
C2245 C2249 1.429 . S
C2246 C2229 1.574 . S
C2246 H2240 0.949 . S
C2246 C2250 1.368 . S
C2247 C2228 1.429 . S
C2247 C2241 1.429 . S
C2247 C2248 1.523 . S
C2248 C2229 1.368 . S
C2248 C2242 1.368 . S
C2248 C2247 1.523 . S
C2249 C2233 1.429 . S
C2249 C2245 1.429 . S
C2249 C2250 1.523 . S
C2250 C2234 1.368 . S
C2250 C2246 1.368 . S
C2250 C2249 1.523 . S
H2251 C2226 0.950 . S
H2252 C2228 0.950 . S
H2253 C2229 0.949 . S
H2254 C2231 0.950 . S
H2255 C2233 0.950 . S
C2256 C2257 1.349 . S
C2256 C2258 1.327 . S
C2256 H2281 0.950 . S
C2257 C2256 1.349 . S
C2257 C2273 1.349 . S
C2258 C2256 1.327 . S
C2258 C2277 1.429 . S
C2258 H2282 0.950 . S
C2259 C2276 1.574 . S
C2259 C2278 1.368 . S
C2259 H2283 0.949 . S
H2260 C2264 0.949 . S
C2261 C2262 1.349 . S
C2261 C2263 1.327 . S
C2261 H2284 0.950 . S
C2262 C2261 1.349 . S
C2262 C2274 1.349 . S
C2263 C2261 1.327 . S
C2263 C2279 1.429 . S
C2263 H2285 0.950 . S
C2264 H2260 0.949 . S
C2264 C2272 1.574 . S
C2264 C2280 1.368 . S
H2265 C2273 0.950 . S
H2266 C2271 0.950 . S
H2267 C2272 0.949 . S
H2268 C2274 0.950 . S
H2269 C2275 0.950 . S
H2270 C2276 0.949 . S
C2271 H2266 0.950 . S
C2271 C2273 1.327 . S
C2271 C2277 1.429 . S
C2272 C2264 1.574 . S
C2272 H2267 0.949 . S
C2272 C2278 1.368 . S
C2273 C2257 1.349 . S
C2273 H2265 0.950 . S
C2273 C2271 1.327 . S
C2274 C2262 1.349 . S
C2274 H2268 0.950 . S
C2274 C2275 1.327 . S
C2275 H2269 0.950 . S
C2275 C2274 1.327 . S
C2275 C2279 1.429 . S
C2276 C2259 1.574 . S
C2276 H2270 0.949 . S
C2276 C2280 1.368 . S
C2277 C2258 1.429 . S
C2277 C2271 1.429 . S
C2277 C2278 1.523 . S
C2278 C2259 1.368 . S
C2278 C2272 1.368 . S
C2278 C2277 1.523 . S
C2279 C2263 1.429 . S
C2279 C2275 1.429 . S
C2279 C2280 1.523 . S
C2280 C2264 1.368 . S
C2280 C2276 1.368 . S
C2280 C2279 1.523 . S
H2281 C2256 0.950 . S
H2282 C2258 0.950 . S
H2283 C2259 0.949 . S
H2284 C2261 0.950 . S
H2285 C2263 0.950 . S
C2286 C2287 1.349 . S
C2286 C2288 1.327 . S
C2286 H2311 0.950 . S
C2287 C2286 1.349 . S
C2287 C2303 1.349 . S
C2288 C2286 1.327 . S
C2288 C2307 1.429 . S
C2288 H2312 0.950 . S
C2289 C2306 1.574 . S
C2289 C2308 1.368 . S
C2289 H2313 0.949 . S
H2290 C2294 0.949 . S
C2291 C2292 1.349 . S
C2291 C2293 1.327 . S
C2291 H2314 0.950 . S
C2292 C2291 1.349 . S
C2292 C2304 1.349 . S
C2293 C2291 1.327 . S
C2293 C2309 1.429 . S
C2293 H2315 0.950 . S
C2294 H2290 0.949 . S
C2294 C2302 1.574 . S
C2294 C2310 1.368 . S
H2295 C2303 0.950 . S
H2296 C2301 0.950 . S
H2297 C2302 0.949 . S
H2298 C2304 0.950 . S
H2299 C2305 0.950 . S
H2300 C2306 0.949 . S
C2301 H2296 0.950 . S
C2301 C2303 1.327 . S
C2301 C2307 1.429 . S
C2302 C2294 1.574 . S
C2302 H2297 0.949 . S
C2302 C2308 1.368 . S
C2303 C2287 1.349 . S
C2303 H2295 0.950 . S
C2303 C2301 1.327 . S
C2304 C2292 1.349 . S
C2304 H2298 0.950 . S
C2304 C2305 1.327 . S
C2305 H2299 0.950 . S
C2305 C2304 1.327 . S
C2305 C2309 1.429 . S
C2306 C2289 1.574 . S
C2306 H2300 0.949 . S
C2306 C2310 1.368 . S
C2307 C2288 1.429 . S
C2307 C2301 1.429 . S
C2307 C2308 1.523 . S
C2308 C2289 1.368 . S
C2308 C2302 1.368 . S
C2308 C2307 1.523 . S
C2309 C2293 1.429 . S
C2309 C2305 1.429 . S
C2309 C2310 1.523 . S
C2310 C2294 1.368 . S
C2310 C2306 1.368 . S
C2310 C2309 1.523 . S
H2311 C2286 0.950 . S
H2312 C2288 0.950 . S
H2313 C2289 0.949 . S
H2314 C2291 0.950 . S
H2315 C2293 0.950 . S
C2316 C2317 1.349 . S
C2316 C2318 1.327 . S
C2316 H2341 0.950 . S
C2317 C2316 1.349 . S
C2317 C2333 1.349 . S
C2318 C2316 1.327 . S
C2318 C2337 1.429 . S
C2318 H2342 0.950 . S
C2319 C2336 1.574 . S
C2319 C2338 1.368 . S
C2319 H2343 0.949 . S
H2320 C2324 0.949 . S
C2321 C2322 1.349 . S
C2321 C2323 1.327 . S
C2321 H2344 0.950 . S
C2322 C2321 1.349 . S
C2322 C2334 1.349 . S
C2323 C2321 1.327 . S
C2323 C2339 1.429 . S
C2323 H2345 0.950 . S
C2324 H2320 0.949 . S
C2324 C2332 1.574 . S
C2324 C2340 1.368 . S
H2325 C2333 0.950 . S
H2326 C2331 0.950 . S
H2327 C2332 0.949 . S
H2328 C2334 0.950 . S
H2329 C2335 0.950 . S
H2330 C2336 0.949 . S
C2331 H2326 0.950 . S
C2331 C2333 1.327 . S
C2331 C2337 1.429 . S
C2332 C2324 1.574 . S
C2332 H2327 0.949 . S
C2332 C2338 1.368 . S
C2333 C2317 1.349 . S
C2333 H2325 0.950 . S
C2333 C2331 1.327 . S
C2334 C2322 1.349 . S
C2334 H2328 0.950 . S
C2334 C2335 1.327 . S
C2335 H2329 0.950 . S
C2335 C2334 1.327 . S
C2335 C2339 1.429 . S
C2336 C2319 1.574 . S
C2336 H2330 0.949 . S
C2336 C2340 1.368 . S
C2337 C2318 1.429 . S
C2337 C2331 1.429 . S
C2337 C2338 1.523 . S
C2338 C2319 1.368 . S
C2338 C2332 1.368 . S
C2338 C2337 1.523 . S
C2339 C2323 1.429 . S
C2339 C2335 1.429 . S
C2339 C2340 1.523 . S
C2340 C2324 1.368 . S
C2340 C2336 1.368 . S
C2340 C2339 1.523 . S
H2341 C2316 0.950 . S
H2342 C2318 0.950 . S
H2343 C2319 0.949 . S
H2344 C2321 0.950 . S
H2345 C2323 0.950 . S
C2346 C2347 1.349 . S
C2346 C2348 1.327 . S
C2346 H2371 0.950 . S
C2347 C2346 1.349 . S
C2347 C2363 1.349 . S
C2348 C2346 1.327 . S
C2348 C2367 1.429 . S
C2348 H2372 0.950 . S
C2349 C2366 1.574 . S
C2349 C2368 1.368 . S
C2349 H2373 0.949 . S
H2350 C2354 0.949 . S
C2351 C2352 1.349 . S
C2351 C2353 1.327 . S
C2351 H2374 0.950 . S
C2352 C2351 1.349 . S
C2352 C2364 1.349 . S
C2353 C2351 1.327 . S
C2353 C2369 1.429 . S
C2353 H2375 0.950 . S
C2354 H2350 0.949 . S
C2354 C2362 1.574 . S
C2354 C2370 1.368 . S
H2355 C2363 0.950 . S
H2356 C2361 0.950 . S
H2357 C2362 0.949 . S
H2358 C2364 0.950 . S
H2359 C2365 0.950 . S
H2360 C2366 0.949 . S
C2361 H2356 0.950 . S
C2361 C2363 1.327 . S
C2361 C2367 1.429 . S
C2362 C2354 1.574 . S
C2362 H2357 0.949 . S
C2362 C2368 1.368 . S
C2363 C2347 1.349 . S
C2363 H2355 0.950 . S
C2363 C2361 1.327 . S
C2364 C2352 1.349 . S
C2364 H2358 0.950 . S
C2364 C2365 1.327 . S
C2365 H2359 0.950 . S
C2365 C2364 1.327 . S
C2365 C2369 1.429 . S
C2366 C2349 1.574 . S
C2366 H2360 0.949 . S
C2366 C2370 1.368 . S
C2367 C2348 1.429 . S
C2367 C2361 1.429 . S
C2367 C2368 1.523 . S
C2368 C2349 1.368 . S
C2368 C2362 1.368 . S
C2368 C2367 1.523 . S
C2369 C2353 1.429 . S
C2369 C2365 1.429 . S
C2369 C2370 1.523 . S
C2370 C2354 1.368 . S
C2370 C2366 1.368 . S
C2370 C2369 1.523 . S
H2371 C2346 0.950 . S
H2372 C2348 0.950 . S
H2373 C2349 0.949 . S
H2374 C2351 0.950 . S
H2375 C2353 0.950 . S
C2376 C2377 1.349 . S
C2376 C2378 1.327 . S
C2376 H2401 0.950 . S
C2377 C2376 1.349 . S
C2377 C2393 1.349 . S
C2378 C2376 1.327 . S
C2378 C2397 1.429 . S
C2378 H2402 0.950 . S
C2379 C2396 1.574 . S
C2379 C2398 1.368 . S
C2379 H2403 0.949 . S
H2380 C2384 0.949 . S
C2381 C2382 1.349 . S
C2381 C2383 1.327 . S
C2381 H2404 0.950 . S
C2382 C2381 1.349 . S
C2382 C2394 1.349 . S
C2383 C2381 1.327 . S
C2383 C2399 1.429 . S
C2383 H2405 0.950 . S
C2384 H2380 0.949 . S
C2384 C2392 1.574 . S
C2384 C2400 1.368 . S
H2385 C2393 0.950 . S
H2386 C2391 0.950 . S
H2387 C2392 0.949 . S
H2388 C2394 0.950 . S
H2389 C2395 0.950 . S
H2390 C2396 0.949 . S
C2391 H2386 0.950 . S
C2391 C2393 1.327 . S
C2391 C2397 1.429 . S
C2392 C2384 1.574 . S
C2392 H2387 0.949 . S
C2392 C2398 1.368 . S
C2393 C2377 1.349 . S
C2393 H2385 0.950 . S
C2393 C2391 1.327 . S
C2394 C2382 1.349 . S
C2394 H2388 0.950 . S
C2394 C2395 1.327 . S
C2395 H2389 0.950 . S
C2395 C2394 1.327 . S
C2395 C2399 1.429 . S
C2396 C2379 1.574 . S
C2396 H2390 0.949 . S
C2396 C2400 1.368 . S
C2397 C2378 1.429 . S
C2397 C2391 1.429 . S
C2397 C2398 1.523 . S
C2398 C2379 1.368 . S
C2398 C2392 1.368 . S
C2398 C2397 1.523 . S
C2399 C2383 1.429 . S
C2399 C2395 1.429 . S
C2399 C2400 1.523 . S
C2400 C2384 1.368 . S
C2400 C2396 1.368 . S
C2400 C2399 1.523 . S
H2401 C2376 0.950 . S
H2402 C2378 0.950 . S
H2403 C2379 0.949 . S
H2404 C2381 0.950 . S
H2405 C2383 0.950 . S
C2406 C2407 1.349 . S
C2406 C2408 1.327 . S
C2406 H2431 0.950 . S
C2407 C2406 1.349 . S
C2407 C2423 1.349 . S
C2408 C2406 1.327 . S
C2408 C2427 1.429 . S
C2408 H2432 0.950 . S
C2409 C2426 1.574 . S
C2409 C2428 1.368 . S
C2409 H2433 0.949 . S
H2410 C2414 0.949 . S
C2411 C2412 1.349 . S
C2411 C2413 1.327 . S
C2411 H2434 0.950 . S
C2412 C2411 1.349 . S
C2412 C2424 1.349 . S
C2413 C2411 1.327 . S
C2413 C2429 1.429 . S
C2413 H2435 0.950 . S
C2414 H2410 0.949 . S
C2414 C2422 1.574 . S
C2414 C2430 1.368 . S
H2415 C2423 0.950 . S
H2416 C2421 0.950 . S
H2417 C2422 0.949 . S
H2418 C2424 0.950 . S
H2419 C2425 0.950 . S
H2420 C2426 0.949 . S
C2421 H2416 0.950 . S
C2421 C2423 1.327 . S
C2421 C2427 1.429 . S
C2422 C2414 1.574 . S
C2422 H2417 0.949 . S
C2422 C2428 1.368 . S
C2423 C2407 1.349 . S
C2423 H2415 0.950 . S
C2423 C2421 1.327 . S
C2424 C2412 1.349 . S
C2424 H2418 0.950 . S
C2424 C2425 1.327 . S
C2425 H2419 0.950 . S
C2425 C2424 1.327 . S
C2425 C2429 1.429 . S
C2426 C2409 1.574 . S
C2426 H2420 0.949 . S
C2426 C2430 1.368 . S
C2427 C2408 1.429 . S
C2427 C2421 1.429 . S
C2427 C2428 1.523 . S
C2428 C2409 1.368 . S
C2428 C2422 1.368 . S
C2428 C2427 1.523 . S
C2429 C2413 1.429 . S
C2429 C2425 1.429 . S
C2429 C2430 1.523 . S
C2430 C2414 1.368 . S
C2430 C2426 1.368 . S
C2430 C2429 1.523 . S
H2431 C2406 0.950 . S
H2432 C2408 0.950 . S
H2433 C2409 0.949 . S
H2434 C2411 0.950 . S
H2435 C2413 0.950 . S
C1002 C707 1.108 . S
C997 C74 1.050 . S
C1032 C685 0.331 . S
C1027 C142 0.705 . S
C1062 C682 0.531 . S
C1057 C231 0.588 . S
C1087 C322 1.703 . S
C1092 C694 1.788 . S
C1117 C406 0.706 . S
C1122 C677 0.337 . S
C1152 C699 0.530 . S
C1147 C494 0.588 . S
C1177 C562 1.706 . S
C1182 C704 1.795 . S
C1207 C651 1.052 . S
C1212 C700 1.110 . S
C1242 C758 1.817 . S
C1237 C58 1.727 . S
C1267 C151 1.176 . S
C1272 C808 1.228 . S
C1302 C731 2.825 . S
C1297 C224 2.727 . S
C1332 C807 0.515 . S
C1327 C315 0.587 . S
C1357 C399 0.601 . S
C1362 C736 0.531 . S
C1392 C802 1.805 . S
C1387 C478 1.717 . S
C1417 C571 1.139 . S
C1422 C761 1.213 . S
C1447 C644 2.735 . S
C1452 C793 2.824 . S
C1477 C67 2.738 . S
C1482 C785 2.827 . S
C1507 C392 1.182 . S
C1512 C815 1.235 . S
C1542 C739 2.844 . S
C1537 C487 2.741 . S
C1572 C790 0.531 . S
C1567 C578 0.596 . S
C1597 C658 1.733 . S
C1602 C748 1.820 . S
C1627 C238 1.732 . S
C1632 C812 1.823 . S
C1662 C754 1.226 . S
C1657 C308 1.149 . S
C1687 C158 0.609 . S
C1692 C753 0.543 . S
C1717 C662 1.050 . S
C1722 C869 1.108 . S
C1747 C394 0.705 . S
C1752 C847 0.331 . S
C1782 C844 0.531 . S
C1777 C483 0.588 . S
C1812 C856 1.788 . S
C1807 C574 1.703 . S
C1837 C154 0.706 . S
C1842 C839 0.337 . S
C1872 C861 0.530 . S
C1867 C242 0.588 . S
C1897 C310 1.706 . S
C1902 C866 1.794 . S
C1927 C63 1.052 . S
C1932 C862 1.110 . S
C1957 C646 1.727 . S
C1962 C920 1.817 . S
C1992 C970 1.228 . S
C1987 C403 1.175 . S
C2017 C476 2.727 . S
C2022 C893 2.824 . S
C2047 C567 0.586 . S
C2052 C969 0.515 . S
C2082 C898 0.531 . S
C2077 C147 0.601 . S
C2107 C226 1.717 . S
C2112 C964 1.806 . S
C2142 C923 1.213 . S
C2137 C319 1.139 . S
C2172 C955 2.824 . S
C2167 C56 2.735 . S
C2202 C947 2.827 . S
C2197 C655 2.738 . S
C2227 C140 1.182 . S
C2232 C977 1.235 . S
C2257 C235 2.741 . S
C2262 C901 2.844 . S
C2292 C952 0.531 . S
C2287 C326 0.596 . S
C2317 C70 1.733 . S
C2322 C910 1.820 . S
C2347 C490 1.732 . S
C2352 C974 1.823 . S
C2382 C916 1.226 . S
C2377 C560 1.150 . S
C2412 C915 0.543 . S
C2407 C410 0.609 . S
