# Generated by pormake.
# Topology hwx, (6,3)-cn, num edge types: 1
# Building blocks:
#     Node 0, Type 0, BuildingBlock: OJICUG_clean_sbu_0, # of connection points: 6
#     Node 1, Type 0, BuildingBlock: OJICUG_clean_sbu_0, # of connection points: 6
#     Node 2, Type 0, BuildingBlock: OJICUG_clean_sbu_0, # of connection points: 6
#     Node 3, Type 0, BuildingBlock: OJICUG_clean_sbu_0, # of connection points: 6
#     Node 4, Type 1, BuildingBlock: WUSLED_clean_sbu_0, # of connection points: 3
#     Node 5, Type 1, BuildingBlock: WUSLED_clean_sbu_0, # of connection points: 3
#     Node 6, Type 1, BuildingBlock: WUSLED_clean_sbu_0, # of connection points: 3
#     Node 7, Type 1, BuildingBlock: WUSLED_clean_sbu_0, # of connection points: 3
#     Node 8, Type 1, BuildingBlock: WUSLED_clean_sbu_0, # of connection points: 3
#     Node 9, Type 1, BuildingBlock: WUSLED_clean_sbu_0, # of connection points: 3
#     Node 10, Type 1, BuildingBlock: WUSLED_clean_sbu_0, # of connection points: 3
#     Node 11, Type 1, BuildingBlock: WUSLED_clean_sbu_0, # of connection points: 3
#     Edge 12, Type (0, 1), None
#     Edge 13, Type (0, 1), None
#     Edge 14, Type (0, 1), None
#     Edge 15, Type (0, 1), None
#     Edge 16, Type (0, 1), None
#     Edge 17, Type (0, 1), None
#     Edge 18, Type (0, 1), None
#     Edge 19, Type (0, 1), None
#     Edge 20, Type (0, 1), None
#     Edge 21, Type (0, 1), None
#     Edge 22, Type (0, 1), None
#     Edge 23, Type (0, 1), None
#     Edge 24, Type (0, 1), None
#     Edge 25, Type (0, 1), None
#     Edge 26, Type (0, 1), None
#     Edge 27, Type (0, 1), None
#     Edge 28, Type (0, 1), None
#     Edge 29, Type (0, 1), None
#     Edge 30, Type (0, 1), None
#     Edge 31, Type (0, 1), None
#     Edge 32, Type (0, 1), None
#     Edge 33, Type (0, 1), None
#     Edge 34, Type (0, 1), None
#     Edge 35, Type (0, 1), None
# Relax obj value: 0.072
# Max RMSD: 0.099
# Mean RMSD: 0.091
data_MOF--net-hwx--node1-OJICUG_clean_sbu_0--node2-WUSLED_clean_sbu_0--edge1-none
_symmetry_space_group_name_H-M    P1
_symmetry_Int_Tables_number       1
_symmetry_cell_setting            triclinic
loop_
_symmetry_equiv_pos_as_xyz
'x, y, z'
_cell_length_a     38.246643
_cell_length_b     38.031337
_cell_length_c     16.720539
_cell_angle_alpha  89.311114
_cell_angle_beta   89.973134
_cell_angle_gamma 89.327301
loop_
_atom_site_label
_atom_site_type_symbol
_atom_site_fract_x
_atom_site_fract_y
_atom_site_fract_z
_atom_type_partial_charge
Sc0 Sc 0.22936 0.24127 0.12954 0.0
Sc1 Sc 0.1754 0.19018 1.00479 0.0
Sc2 Sc 0.23481 0.24949 0.91983 0.0
O3 O 0.21315 0.22696 0.0182 0.0
C4 C 0.22934 0.31526 0.03661 0.0
C5 C 0.14657 0.23534 0.15119 0.0
C6 C 0.1555 0.24508 0.86489 0.0
C7 C 0.21899 0.15868 0.15339 0.0
C8 C 0.30109 0.23691 0.03278 0.0
C9 C 0.22721 0.16956 0.86385 0.0
O10 O 0.22775 0.29662 0.10014 0.0
O11 O 0.14237 0.21526 0.09173 0.0
O12 O 0.18533 0.25943 0.86371 0.0
O13 O 0.23248 0.18775 0.17282 0.0
O14 O 0.28638 0.24086 0.96518 0.0
O15 O 0.20422 0.16132 0.91551 0.0
O16 O 0.28443 0.23736 0.09869 0.0
O17 O 0.19818 0.15578 0.0946 0.0
O18 O 0.24003 0.2002 0.85874 0.0
O19 O 0.17634 0.24653 0.17255 0.0
O20 O 0.23222 0.3019 0.9676 0.0
O21 O 0.14811 0.2197 0.91201 0.0
Sc22 Sc 0.26592 0.75098 0.41147 0.0
Sc23 Sc 0.31864 0.68895 0.51592 0.0
Sc24 Sc 0.25753 0.74148 0.62037 0.0
O25 O 0.28072 0.7271 0.51589 0.0
C26 C 0.26556 0.81584 0.52917 0.0
C27 C 0.34852 0.7415 0.38266 0.0
C28 C 0.33774 0.73353 0.67125 0.0
C29 C 0.27348 0.6706 0.36046 0.0
C30 C 0.19217 0.74301 0.50342 0.0
C31 C 0.26674 0.65854 0.64883 0.0
O32 O 0.26909 0.80312 0.45965 0.0
O33 O 0.35205 0.71767 0.43598 0.0
O34 O 0.30693 0.74589 0.67873 0.0
O35 O 0.26101 0.70158 0.35305 0.0
O36 O 0.20535 0.73896 0.5727 0.0
O37 O 0.29031 0.65511 0.59589 0.0
O38 O 0.21076 0.74809 0.44113 0.0
O39 O 0.2949 0.66171 0.41587 0.0
O40 O 0.25223 0.68798 0.66419 0.0
O41 O 0.31916 0.75622 0.36706 0.0
O42 O 0.2606 0.79681 0.59117 0.0
O43 O 0.34635 0.71229 0.61587 0.0
Sc44 Sc 0.76564 0.77762 0.90137 0.0
Sc45 Sc 0.81674 0.83049 0.02686 0.0
Sc46 Sc 0.75903 0.76855 0.11106 0.0
O47 O 0.7805 0.79221 0.01311 0.0
C48 C 0.69258 0.7771 0.99638 0.0
C49 C 0.77219 0.86074 0.87875 0.0
C50 C 0.76332 0.84859 0.16766 0.0
C51 C 0.84816 0.78752 0.87885 0.0
C52 C 0.76826 0.70337 0.99389 0.0
C53 C 0.83847 0.77667 0.16684 0.0
O54 O 0.71062 0.77918 0.93239 0.0
O55 O 0.79254 0.86435 0.93812 0.0
O56 O 0.75096 0.8177 0.17132 0.0
O57 O 0.81897 0.77473 0.85786 0.0
O58 O 0.76471 0.71636 0.06317 0.0
O59 O 0.84515 0.8017 0.1183 0.0
O60 O 0.76934 0.72228 0.93063 0.0
O61 O 0.85125 0.80759 0.93877 0.0
O62 O 0.80894 0.7616 0.16925 0.0
O63 O 0.76024 0.8311 0.85838 0.0
O64 O 0.70644 0.77323 0.06509 0.0
O65 O 0.78669 0.85749 0.11739 0.0
Sc66 Sc 0.73789 0.26845 0.61012 0.0
Sc67 Sc 0.68259 0.33053 0.51631 0.0
Sc68 Sc 0.73898 0.27722 0.39965 0.0
O69 O 0.71974 0.29205 0.50852 0.0
C70 C 0.80771 0.27751 0.50803 0.0
C71 C 0.73166 0.34879 0.66399 0.0
C72 C 0.73035 0.36023 0.37426 0.0
C73 C 0.65776 0.27791 0.65481 0.0
C74 C 0.73382 0.20315 0.49299 0.0
C75 C 0.65712 0.28672 0.36429 0.0
O76 O 0.79069 0.27266 0.57216 0.0
O77 O 0.70937 0.35778 0.61083 0.0
O78 O 0.7436 0.3306 0.35571 0.0
O79 O 0.68724 0.26259 0.66165 0.0
O80 O 0.73608 0.2219 0.42963 0.0
O81 O 0.65199 0.30718 0.42304 0.0
O82 O 0.73368 0.21626 0.56254 0.0
O83 O 0.6518 0.30237 0.6039 0.0
O84 O 0.68706 0.27355 0.34799 0.0
O85 O 0.74415 0.31773 0.66993 0.0
O86 O 0.79316 0.27974 0.43955 0.0
O87 O 0.70864 0.36395 0.43115 0.0
C88 C 0.24558 0.56717 0.79511 0.0
C89 C 0.23437 0.6007 0.81975 0.0
C90 C 0.25756 0.62704 0.69742 0.0
C91 C 0.24009 0.63034 0.7711 0.0
C92 C 0.2684 0.59334 0.67288 0.0
C93 C 0.2624 0.56376 0.72117 0.0
U94 U 0.24091 0.52732 1.00312 0.0
O95 O 0.20733 0.48635 0.0559 0.0
O96 O 0.2645 0.47959 0.05637 0.0
C97 C 0.2341 0.46587 0.07469 0.0
C98 C 0.2415 0.53587 0.84729 0.0
C99 C 0.23041 0.42796 0.06057 0.0
C100 C 0.23556 0.37619 0.97722 0.0
C101 C 0.23661 0.41284 0.98565 0.0
C102 C 0.22161 0.36975 0.11797 0.0
C103 C 0.22854 0.35418 0.04368 0.0
C104 C 0.22249 0.40621 0.12611 0.0
C105 C 0.25075 0.60164 0.16539 0.0
C106 C 0.28067 0.61198 0.29158 0.0
C107 C 0.2388 0.65476 0.23985 0.0
C108 C 0.23246 0.63341 0.17455 0.0
C109 C 0.26376 0.64494 0.29808 0.0
C110 C 0.27433 0.5905 0.2254 0.0
C111 C 0.24837 0.5846 0.08687 0.0
O112 O 0.26945 0.5267 0.88863 0.0
O113 O 0.21253 0.53458 0.88955 0.0
O114 O 0.27484 0.565 0.06317 0.0
O115 O 0.2177 0.57305 0.06423 0.0
H116 H 0.22169 0.60406 0.87716 0.0
H117 H 0.23174 0.6559 0.79228 0.0
H118 H 0.28196 0.58979 0.6166 0.0
H119 H 0.27145 0.53822 0.70128 0.0
H120 H 0.24098 0.36511 0.91908 0.0
H121 H 0.24286 0.42924 0.93431 0.0
H122 H 0.21589 0.35379 0.17034 0.0
H123 H 0.21767 0.41745 0.1844 0.0
H124 H 0.29987 0.60351 0.33553 0.0
H125 H 0.22498 0.67974 0.2427 0.0
H126 H 0.21444 0.64269 0.12871 0.0
H127 H 0.28889 0.56608 0.21952 0.0
C128 C 0.94039 0.76653 0.73708 0.0
C129 C 0.90703 0.75876 0.70731 0.0
C130 C 0.87991 0.77944 0.83057 0.0
C131 C 0.87711 0.76494 0.75375 0.0
C132 C 0.91345 0.78708 0.86003 0.0
C133 C 0.94334 0.78062 0.81379 0.0
U134 U 0.98064 0.7553 0.53255 0.0
O135 O 0.02704 0.77825 0.47522 0.0
O136 O 0.02282 0.72088 0.48718 0.0
C137 C 0.04191 0.74746 0.4628 0.0
C138 C 0.972 0.76131 0.6875 0.0
C139 C 0.07993 0.74487 0.4767 0.0
C140 C 0.13137 0.74657 0.56206 0.0
C141 C 0.09486 0.74783 0.55294 0.0
C142 C 0.13813 0.73929 0.41914 0.0
C143 C 0.15346 0.74265 0.495 0.0
C144 C 0.10181 0.74029 0.41029 0.0
C145 C 0.90742 0.75822 0.36599 0.0
C146 C 0.89534 0.78712 0.23815 0.0
C147 C 0.85714 0.74129 0.28706 0.0
C148 C 0.87829 0.73685 0.3545 0.0
C149 C 0.86464 0.76737 0.22946 0.0
C150 C 0.91651 0.78266 0.306 0.0
C151 C 0.92332 0.7585 0.44637 0.0
O152 O 0.9746 0.73079 0.65163 0.0
O153 O 0.97997 0.78797 0.64049 0.0
O154 O 0.93637 0.7288 0.475 0.0
O155 O 0.94124 0.78633 0.46644 0.0
H156 H 0.9041 0.7482 0.64781 0.0
H157 H 0.85176 0.75895 0.72882 0.0
H158 H 0.91667 0.79816 0.9189 0.0
H159 H 0.96879 0.78695 0.83772 0.0
H160 H 0.14229 0.74936 0.62138 0.0
H161 H 0.07839 0.75147 0.60498 0.0
H162 H 0.15419 0.736 0.36631 0.0
H163 H 0.09075 0.73789 0.35097 0.0
H164 H 0.90203 0.80736 0.19487 0.0
H165 H 0.83387 0.72549 0.28246 0.0
H166 H 0.87059 0.71805 0.40026 0.0
H167 H 0.93882 0.7996 0.31338 0.0
C168 C 0.75162 0.45198 0.22998 0.0
C169 C 0.75913 0.41824 0.20064 0.0
C170 C 0.73923 0.39174 0.32568 0.0
C171 C 0.75323 0.38838 0.24829 0.0
C172 C 0.73203 0.42563 0.35486 0.0
C173 C 0.73826 0.45544 0.30747 0.0
U174 U 0.75899 0.4915 0.02318 0.0
O175 O 0.7354 0.53871 0.96742 0.0
O176 O 0.79261 0.53286 0.97249 0.0
C177 C 0.76584 0.55294 0.95165 0.0
C178 C 0.75599 0.48346 0.1789 0.0
C179 C 0.76876 0.59084 0.96681 0.0
C180 C 0.7623 0.64208 0.05136 0.0
C181 C 0.76162 0.60548 0.0418 0.0
C182 C 0.77775 0.64941 0.91164 0.0
C183 C 0.76989 0.66451 0.98597 0.0
C184 C 0.77724 0.613 0.90238 0.0
C185 C 0.7528 0.41728 0.86042 0.0
C186 C 0.7234 0.40671 0.73396 0.0
C187 C 0.76683 0.36512 0.78386 0.0
C188 C 0.77239 0.38632 0.85001 0.0
C189 C 0.74143 0.3744 0.72631 0.0
C190 C 0.72892 0.42794 0.80072 0.0
C191 C 0.75392 0.43382 0.9397 0.0
O192 O 0.78561 0.48511 0.13915 0.0
O193 O 0.72861 0.49206 0.13508 0.0
O194 O 0.784 0.44609 0.96431 0.0
O195 O 0.72675 0.45281 0.96187 0.0
H196 H 0.76909 0.41497 0.14046 0.0
H197 H 0.75873 0.36267 0.22369 0.0
H198 H 0.7213 0.42916 0.41423 0.0
H199 H 0.73213 0.48122 0.33095 0.0
H200 H 0.75607 0.65281 0.10945 0.0
H201 H 0.75495 0.58875 0.0923 0.0
H202 H 0.78388 0.66571 0.86007 0.0
H203 H 0.78281 0.60211 0.84408 0.0
H204 H 0.70374 0.41475 0.69063 0.0
H205 H 0.78142 0.34062 0.77995 0.0
H206 H 0.79071 0.37743 0.89559 0.0
H207 H 0.71336 0.4517 0.80744 0.0
C208 C 0.05566 0.26157 0.2905 0.0
C209 C 0.08921 0.26887 0.31964 0.0
C210 C 0.11532 0.24543 0.19838 0.0
C211 C 0.1188 0.26108 0.27374 0.0
C212 C 0.08157 0.23853 0.16932 0.0
C213 C 0.05203 0.24657 0.21502 0.0
U214 U 0.01726 0.27229 0.49561 0.0
O215 O 0.97543 0.30675 0.54193 0.0
O216 O 0.97105 0.24921 0.5524 0.0
C217 C 0.95596 0.27999 0.56347 0.0
C218 C 0.0246 0.26731 0.34057 0.0
C219 C 0.91868 0.2824 0.54331 0.0
C220 C 0.86937 0.2741 0.45352 0.0
C221 C 0.90565 0.27455 0.46698 0.0
C222 C 0.8596 0.29015 0.59171 0.0
C223 C 0.84602 0.28112 0.51655 0.0
C224 C 0.89546 0.2908 0.60475 0.0
C225 C 0.08944 0.26688 0.66282 0.0
C226 C 0.0986 0.23756 0.79144 0.0
C227 C 0.1395 0.28139 0.74456 0.0
C228 C 0.11941 0.28678 0.67593 0.0
C229 C 0.13015 0.2557 0.80169 0.0
C230 C 0.07839 0.24306 0.72237 0.0
C231 C 0.07445 0.2675 0.58163 0.0
O232 O 0.01645 0.24045 0.38677 0.0
O233 O 0.02307 0.29762 0.37752 0.0
O234 O 0.05634 0.24009 0.55968 0.0
O235 O 0.06192 0.29764 0.55415 0.0
H236 H 0.09254 0.28006 0.37841 0.0
H237 H 0.14437 0.2666 0.29812 0.0
H238 H 0.07791 0.22663 0.11145 0.0
H239 H 0.02635 0.24053 0.19198 0.0
H240 H 0.85966 0.26711 0.39505 0.0
H241 H 0.92339 0.268 0.41876 0.0
H242 H 0.84246 0.29622 0.64142 0.0
H243 H 0.90508 0.297 0.66385 0.0
H244 H 0.0905 0.21773 0.83443 0.0
H245 H 0.16348 0.29602 0.7503 0.0
H246 H 0.12855 0.3051 0.63059 0.0
H247 H 0.05529 0.22736 0.71372 0.0
C248 C 0.7484 0.95252 0.73437 0.0
C249 C 0.73978 0.91888 0.70725 0.0
C250 C 0.7629 0.89235 0.82998 0.0
C251 C 0.74676 0.88908 0.75481 0.0
C252 C 0.77119 0.92617 0.85698 0.0
C253 C 0.76395 0.95593 0.80962 0.0
U254 U 0.73769 0.99113 0.52717 0.0
O255 O 0.70456 0.03407 0.47823 0.0
O256 O 0.76176 0.03663 0.46765 0.0
C257 C 0.73157 0.05245 0.45403 0.0
C258 C 0.74324 0.98384 0.68274 0.0
C259 C 0.73029 0.0906 0.4677 0.0
C260 C 0.73549 0.14181 0.55236 0.0
C261 C 0.7349 0.10516 0.54365 0.0
C262 C 0.72659 0.14938 0.40968 0.0
C263 C 0.73174 0.16435 0.48518 0.0
C264 C 0.72582 0.11293 0.40124 0.0
C265 C 0.74105 0.91637 0.36553 0.0
C266 C 0.76848 0.90707 0.23599 0.0
C267 C 0.72902 0.86358 0.29054 0.0
C268 C 0.72339 0.88457 0.35728 0.0
C269 C 0.75261 0.87393 0.23033 0.0
C270 C 0.76282 0.92811 0.30321 0.0
C271 C 0.74062 0.93285 0.44488 0.0
O272 O 0.76989 0.99132 0.63621 0.0
O273 O 0.71297 0.9862 0.64565 0.0
O274 O 0.76838 0.95059 0.46577 0.0
O275 O 0.71103 0.94665 0.47034 0.0
H276 H 0.72813 0.91561 0.64879 0.0
H277 H 0.7402 0.86348 0.73186 0.0
H278 H 0.78355 0.9297 0.91455 0.0
H279 H 0.77103 0.98162 0.83129 0.0
H280 H 0.7395 0.15244 0.61141 0.0
H281 H 0.73849 0.08827 0.59571 0.0
H282 H 0.72337 0.16577 0.35672 0.0
H283 H 0.72223 0.10211 0.34218 0.0
H284 H 0.78664 0.91599 0.19059 0.0
H285 H 0.71619 0.83838 0.28842 0.0
H286 H 0.70671 0.87489 0.40492 0.0
H287 H 0.77681 0.95258 0.30823 0.0
C288 C 0.58217 0.25974 0.83946 0.0
C289 C 0.616 0.24573 0.84645 0.0
C290 C 0.63073 0.26946 0.71502 0.0
C291 C 0.64012 0.25064 0.78499 0.0
C292 C 0.59635 0.28257 0.70725 0.0
C293 C 0.57224 0.27779 0.76925 0.0
U294 U 0.51401 0.24864 0.02414 0.0
O295 O 0.46124 0.26771 0.99488 0.0
O296 O 0.47185 0.21064 1.00251 0.0
C297 C 0.44879 0.23584 0.98821 0.0
C298 C 0.55759 0.25576 0.90596 0.0
C299 C 0.41233 0.2305 1.01221 0.0
C300 C 0.35468 0.21484 0.96629 0.0
C301 C 0.39076 0.21418 0.95672 0.0
C302 C 0.36103 0.24575 0.09133 0.0
C303 C 0.33935 0.23158 0.0322 0.0
C304 C 0.39751 0.24556 0.08093 0.0
C305 C 0.56751 0.26345 0.21778 0.0
C306 C 0.5928 0.289 0.33657 0.0
C307 C 0.63045 0.26004 0.24057 0.0
C308 C 0.60113 0.25275 0.19312 0.0
C309 C 0.62657 0.27827 0.31308 0.0
C310 C 0.56374 0.28163 0.28957 0.0
C311 C 0.53558 0.2555 0.17217 0.0
O312 O 0.55297 0.22538 0.94252 0.0
O313 O 0.53969 0.28258 0.93424 0.0
O314 O 0.53472 0.22511 0.13553 0.0
O315 O 0.52204 0.2816 0.12977 0.0
H316 H 0.62407 0.23184 0.90045 0.0
H317 H 0.66648 0.24058 0.79365 0.0
H318 H 0.58828 0.29706 0.6541 0.0
H319 H 0.54596 0.28837 0.76265 0.0
H320 H 0.33864 0.20337 0.9202 0.0
H321 H 0.40172 0.20264 0.90314 0.0
H322 H 0.34978 0.25881 0.14265 0.0
H323 H 0.41386 0.25852 0.1242 0.0
H324 H 0.58862 0.303 0.39184 0.0
H325 H 0.65606 0.25153 0.22035 0.0
H326 H 0.60468 0.23872 0.13765 0.0
H327 H 0.53807 0.29002 0.30977 0.0
C328 C 0.24118 0.06641 0.29712 0.0
C329 C 0.24878 0.1 0.32607 0.0
C330 C 0.2273 0.1269 0.20232 0.0
C331 C 0.24213 0.12995 0.27891 0.0
C332 C 0.21974 0.09317 0.17371 0.0
C333 C 0.22671 0.06322 0.22067 0.0
U334 U 0.25258 0.02721 0.50313 0.0
O335 O 0.2304 0.9805 0.56176 0.0
O336 O 0.28743 0.98558 0.55136 0.0
C337 C 0.26122 0.96592 0.57496 0.0
C338 C 0.24681 0.03488 0.34773 0.0
C339 C 0.2642 0.92803 0.55962 0.0
C340 C 0.26162 0.87744 0.47242 0.0
C341 C 0.26039 0.91399 0.48291 0.0
C342 C 0.27069 0.86901 0.61486 0.0
C343 C 0.26634 0.85455 0.53858 0.0
C344 C 0.26973 0.90535 0.62506 0.0
C345 C 0.24773 0.10102 0.66662 0.0
C346 C 0.21878 0.112 0.79373 0.0
C347 C 0.26255 0.15231 0.74422 0.0
C348 C 0.26774 0.1312 0.67753 0.0
C349 C 0.23708 0.1437 0.80171 0.0
C350 C 0.22397 0.09086 0.72653 0.0
C351 C 0.24804 0.08501 0.58671 0.0
O352 O 0.27713 0.03297 0.38475 0.0
O353 O 0.22033 0.02664 0.39411 0.0
O354 O 0.27791 0.07241 0.55982 0.0
O355 O 0.22078 0.06645 0.56609 0.0
H356 H 0.25956 0.10307 0.38547 0.0
H357 H 0.24801 0.15551 0.30311 0.0
H358 H 0.20839 0.08987 0.11497 0.0
H359 H 0.22046 0.03755 0.19759 0.0
H360 H 0.25806 0.86713 0.41291 0.0
H361 H 0.25601 0.93117 0.43165 0.0
H362 H 0.27463 0.85225 0.667 0.0
H363 H 0.27278 0.91579 0.68464 0.0
H364 H 0.19909 0.10446 0.83703 0.0
H365 H 0.27734 0.17633 0.74845 0.0
H366 H 0.28602 0.13969 0.63184 0.0
H367 H 0.20811 0.06769 0.71956 0.0
C368 C 0.43966 0.76238 0.23762 0.0
C369 C 0.40634 0.77387 0.21191 0.0
C370 C 0.37991 0.75068 0.3343 0.0
C371 C 0.37678 0.76827 0.26003 0.0
C372 C 0.41341 0.73962 0.35988 0.0
C373 C 0.44288 0.74548 0.31217 0.0
U374 U 0.48069 0.76665 0.03104 0.0
O375 O 0.52182 0.80027 0.97915 0.0
O376 O 0.52845 0.74279 0.98118 0.0
C377 C 0.54215 0.77328 0.96189 0.0
C378 C 0.47102 0.76641 0.18646 0.0
C379 C 0.58005 0.77696 0.97543 0.0
C380 C 0.63244 0.77036 0.05702 0.0
C381 C 0.59588 0.76954 0.04954 0.0
C382 C 0.63748 0.78651 0.91697 0.0
C383 C 0.65374 0.77832 0.99037 0.0
C384 C 0.60109 0.78589 0.90979 0.0
C385 C 0.40707 0.75654 0.86593 0.0
C386 C 0.39624 0.72612 0.74091 0.0
C387 C 0.35414 0.76868 0.79037 0.0
C388 C 0.3756 0.77512 0.85559 0.0
C389 C 0.36356 0.74331 0.73337 0.0
C390 C 0.41783 0.73256 0.80709 0.0
C391 C 0.42414 0.75903 0.94465 0.0
O392 O 0.48047 0.73824 0.14672 0.0
O393 O 0.47254 0.79544 0.14312 0.0
O394 O 0.44358 0.73243 0.96993 0.0
O395 O 0.43556 0.7899 0.96674 0.0
H396 H 0.40308 0.78667 0.15413 0.0
H397 H 0.3514 0.77681 0.23801 0.0
H398 H 0.41691 0.72598 0.41661 0.0
H399 H 0.46823 0.73627 0.33307 0.0
H400 H 0.64402 0.76395 0.11455 0.0
H401 H 0.58009 0.76248 0.10095 0.0
H402 H 0.65285 0.79298 0.86451 0.0
H403 H 0.58936 0.79163 0.85204 0.0
H404 H 0.4044 0.70661 0.69788 0.0
H405 H 0.32939 0.78275 0.78663 0.0
H406 H 0.3666 0.79345 0.90054 0.0
H407 H 0.44203 0.71776 0.81393 0.0
loop_
_geom_bond_atom_site_label_1
_geom_bond_atom_site_label_2
_geom_bond_distance
_geom_bond_site_symmetry_2
_ccdc_geom_bond_type
Sc0 O3 2.025 . S
Sc0 O10 2.105 . S
Sc0 O13 2.105 . S
Sc0 O16 2.105 . S
Sc0 O19 2.105 . S
Sc1 O3 2.025 1_556 S
Sc1 O11 2.105 1_556 S
Sc1 O15 2.104 . S
Sc1 O17 2.105 1_556 S
Sc1 O21 2.104 . S
Sc2 O3 2.025 1_556 S
Sc2 O12 2.105 . S
Sc2 O14 2.105 . S
Sc2 O18 2.105 . S
Sc2 O20 2.105 . S
O3 Sc0 2.025 . S
O3 Sc1 2.025 1_554 S
O3 Sc2 2.025 1_554 S
C4 O10 1.268 . S
C4 O20 1.268 1_554 S
C5 O11 1.268 . S
C5 O19 1.268 . S
C6 O12 1.268 . S
C6 O21 1.268 . S
C7 O13 1.268 . S
C7 O17 1.268 . S
C8 O14 1.268 1_554 S
C8 O16 1.268 . S
C9 O15 1.268 . S
C9 O18 1.268 . S
O10 Sc0 2.105 . S
O10 C4 1.268 . S
O11 Sc1 2.105 1_554 S
O11 C5 1.268 . S
O12 Sc2 2.105 . S
O12 C6 1.268 . S
O13 Sc0 2.105 . S
O13 C7 1.268 . S
O14 Sc2 2.105 . S
O14 C8 1.268 1_556 S
O15 Sc1 2.104 . S
O15 C9 1.268 . S
O16 Sc0 2.105 . S
O16 C8 1.268 . S
O17 Sc1 2.105 1_554 S
O17 C7 1.268 . S
O18 Sc2 2.105 . S
O18 C9 1.268 . S
O19 Sc0 2.105 . S
O19 C5 1.268 . S
O20 Sc2 2.105 . S
O20 C4 1.268 1_556 S
O21 Sc1 2.104 . S
O21 C6 1.268 . S
Sc22 O25 2.025 . S
Sc22 O32 2.105 . S
Sc22 O35 2.105 . S
Sc22 O38 2.105 . S
Sc22 O41 2.105 . S
Sc23 O25 2.025 . S
Sc23 O33 2.105 . S
Sc23 O37 2.105 . S
Sc23 O39 2.105 . S
Sc23 O43 2.105 . S
Sc24 O25 2.025 . S
Sc24 O34 2.105 . S
Sc24 O36 2.105 . S
Sc24 O40 2.105 . S
Sc24 O42 2.105 . S
O25 Sc22 2.025 . S
O25 Sc23 2.025 . S
O25 Sc24 2.025 . S
C26 O32 1.268 . S
C26 O42 1.268 . S
C27 O33 1.268 . S
C27 O41 1.268 . S
C28 O34 1.268 . S
C28 O43 1.268 . S
C29 O35 1.268 . S
C29 O39 1.268 . S
C30 O36 1.268 . S
C30 O38 1.268 . S
C31 O37 1.268 . S
C31 O40 1.268 . S
O32 Sc22 2.105 . S
O32 C26 1.268 . S
O33 Sc23 2.105 . S
O33 C27 1.268 . S
O34 Sc24 2.105 . S
O34 C28 1.268 . S
O35 Sc22 2.105 . S
O35 C29 1.268 . S
O36 Sc24 2.105 . S
O36 C30 1.268 . S
O37 Sc23 2.105 . S
O37 C31 1.268 . S
O38 Sc22 2.105 . S
O38 C30 1.268 . S
O39 Sc23 2.105 . S
O39 C29 1.268 . S
O40 Sc24 2.105 . S
O40 C31 1.268 . S
O41 Sc22 2.105 . S
O41 C27 1.268 . S
O42 Sc24 2.105 . S
O42 C26 1.268 . S
O43 Sc23 2.105 . S
O43 C28 1.268 . S
Sc44 O47 2.025 1_556 S
Sc44 O54 2.105 . S
Sc44 O57 2.105 . S
Sc44 O60 2.105 . S
Sc44 O63 2.105 . S
Sc45 O47 2.025 . S
Sc45 O55 2.105 1_554 S
Sc45 O59 2.105 . S
Sc45 O61 2.105 1_554 S
Sc45 O65 2.105 . S
Sc46 O47 2.025 . S
Sc46 O56 2.105 . S
Sc46 O58 2.105 . S
Sc46 O62 2.105 . S
Sc46 O64 2.105 . S
O47 Sc44 2.025 1_554 S
O47 Sc45 2.025 . S
O47 Sc46 2.025 . S
C48 O54 1.268 1_554 S
C48 O64 1.268 . S
C49 O55 1.268 . S
C49 O63 1.268 . S
C50 O56 1.268 . S
C50 O65 1.268 . S
C51 O57 1.268 . S
C51 O61 1.268 . S
C52 O58 1.268 . S
C52 O60 1.268 1_554 S
C53 O59 1.268 . S
C53 O62 1.268 . S
O54 Sc44 2.105 . S
O54 C48 1.268 1_556 S
O55 Sc45 2.105 1_556 S
O55 C49 1.268 . S
O56 Sc46 2.105 . S
O56 C50 1.268 . S
O57 Sc44 2.105 . S
O57 C51 1.268 . S
O58 Sc46 2.105 . S
O58 C52 1.268 . S
O59 Sc45 2.105 . S
O59 C53 1.268 . S
O60 Sc44 2.105 . S
O60 C52 1.268 1_556 S
O61 Sc45 2.105 1_556 S
O61 C51 1.268 . S
O62 Sc46 2.105 . S
O62 C53 1.268 . S
O63 Sc44 2.105 . S
O63 C49 1.268 . S
O64 Sc46 2.105 . S
O64 C48 1.268 . S
O65 Sc45 2.105 . S
O65 C50 1.268 . S
Sc66 O69 2.025 . S
Sc66 O76 2.105 . S
Sc66 O79 2.105 . S
Sc66 O82 2.105 . S
Sc66 O85 2.105 . S
Sc67 O69 2.025 . S
Sc67 O77 2.105 . S
Sc67 O81 2.105 . S
Sc67 O83 2.105 . S
Sc67 O87 2.105 . S
Sc68 O69 2.025 . S
Sc68 O78 2.105 . S
Sc68 O80 2.105 . S
Sc68 O84 2.105 . S
Sc68 O86 2.105 . S
O69 Sc66 2.025 . S
O69 Sc67 2.025 . S
O69 Sc68 2.025 . S
C70 O76 1.268 . S
C70 O86 1.268 . S
C71 O77 1.268 . S
C71 O85 1.268 . S
C72 O78 1.268 . S
C72 O87 1.268 . S
C73 O79 1.268 . S
C73 O83 1.268 . S
C74 O80 1.268 . S
C74 O82 1.268 . S
C75 O81 1.268 . S
C75 O84 1.268 . S
O76 Sc66 2.105 . S
O76 C70 1.268 . S
O77 Sc67 2.105 . S
O77 C71 1.268 . S
O78 Sc68 2.105 . S
O78 C72 1.268 . S
O79 Sc66 2.105 . S
O79 C73 1.268 . S
O80 Sc68 2.105 . S
O80 C74 1.268 . S
O81 Sc67 2.105 . S
O81 C75 1.268 . S
O82 Sc66 2.105 . S
O82 C74 1.268 . S
O83 Sc67 2.105 . S
O83 C73 1.268 . S
O84 Sc68 2.105 . S
O84 C75 1.268 . S
O85 Sc66 2.105 . S
O85 C71 1.268 . S
O86 Sc68 2.105 . S
O86 C70 1.268 . S
O87 Sc67 2.105 . S
O87 C72 1.268 . S
C88 C89 1.264 . S
C88 C93 1.479 . S
C88 C98 1.465 . S
C89 C88 1.264 . S
C89 C91 1.339 . S
C89 H116 0.931 . S
C90 C91 1.395 . S
C90 C92 1.320 . S
C91 C89 1.339 . S
C91 C90 1.395 . S
C91 H117 0.929 . S
C92 C90 1.320 . S
C92 C93 1.405 . S
C92 H118 0.930 . S
C93 C88 1.479 . S
C93 C92 1.405 . S
C93 H119 0.931 . S
U94 O95 2.454 . S
U94 O96 2.458 1_556 S
U94 C97 2.984 . S
U94 C98 2.847 . S
U94 C111 2.882 1_556 S
U94 O112 2.441 . S
U94 O113 2.420 . S
U94 O114 2.455 1_556 S
U94 O115 2.449 1_556 S
O95 U94 2.454 . S
O95 C97 1.353 . S
O96 U94 2.458 1_554 S
O96 C97 1.286 1_554 S
C97 U94 2.984 . S
C97 O95 1.353 . S
C97 O96 1.286 1_556 S
C97 C99 1.363 . S
C98 C88 1.465 . S
C98 U94 2.847 . S
C98 O112 1.249 . S
C98 O113 1.202 . S
C99 C97 1.363 . S
C99 C101 1.408 . S
C99 C104 1.342 1_556 S
C100 C101 1.310 . S
C100 C103 1.461 1_556 S
C100 H120 0.932 . S
C101 C99 1.408 . S
C101 C100 1.310 . S
C101 H121 0.930 . S
C102 C103 1.474 . S
C102 C104 1.285 . S
C102 H122 0.929 . S
C103 C100 1.461 1_554 S
C103 C102 1.474 . S
C104 C99 1.342 1_554 S
C104 C102 1.285 . S
C104 H123 0.930 . S
C105 C108 1.424 . S
C105 C110 1.245 . S
C105 C111 1.428 . S
C106 C109 1.260 . S
C106 C110 1.477 . S
C106 H124 0.932 . S
C107 C108 1.384 . S
C107 C109 1.479 . S
C107 H125 0.929 . S
C108 C105 1.424 . S
C108 C107 1.384 . S
C108 H126 0.928 . S
C109 C106 1.260 . S
C109 C107 1.479 . S
C110 C105 1.245 . S
C110 C106 1.477 . S
C110 H127 0.932 . S
C111 U94 2.882 1_554 S
C111 C105 1.428 . S
C111 O114 1.301 . S
C111 O115 1.282 . S
O112 U94 2.441 . S
O112 C98 1.249 . S
O113 U94 2.420 . S
O113 C98 1.202 . S
O114 U94 2.455 1_554 S
O114 C111 1.301 . S
O115 U94 2.449 1_554 S
O115 C111 1.282 . S
H116 C89 0.931 . S
H117 C91 0.929 . S
H118 C92 0.930 . S
H119 C93 0.931 . S
H120 C100 0.932 . S
H121 C101 0.930 . S
H122 C102 0.929 . S
H123 C104 0.930 . S
H124 C106 0.932 . S
H125 C107 0.929 . S
H126 C108 0.928 . S
H127 C110 0.932 . S
C128 C129 1.264 . S
C128 C133 1.479 . S
C128 C138 1.465 . S
C129 C128 1.264 . S
C129 C131 1.339 . S
C129 H156 0.931 . S
C130 C131 1.395 . S
C130 C132 1.320 . S
C131 C129 1.339 . S
C131 C130 1.395 . S
C131 H157 0.929 . S
C132 C130 1.320 . S
C132 C133 1.405 . S
C132 H158 0.930 . S
C133 C128 1.479 . S
C133 C132 1.405 . S
C133 H159 0.931 . S
U134 O135 2.454 1_655 S
U134 O136 2.458 1_655 S
U134 C137 2.984 1_655 S
U134 C138 2.847 . S
U134 C151 2.882 . S
U134 O152 2.441 . S
U134 O153 2.420 . S
U134 O154 2.455 . S
U134 O155 2.449 . S
O135 U134 2.454 1_455 S
O135 C137 1.353 . S
O136 U134 2.458 1_455 S
O136 C137 1.286 . S
C137 U134 2.984 1_455 S
C137 O135 1.353 . S
C137 O136 1.286 . S
C137 C139 1.363 . S
C138 C128 1.465 . S
C138 U134 2.847 . S
C138 O152 1.249 . S
C138 O153 1.202 . S
C139 C137 1.363 . S
C139 C141 1.408 . S
C139 C144 1.342 . S
C140 C141 1.310 . S
C140 C143 1.461 . S
C140 H160 0.932 . S
C141 C139 1.408 . S
C141 C140 1.310 . S
C141 H161 0.930 . S
C142 C143 1.474 . S
C142 C144 1.285 . S
C142 H162 0.929 . S
C143 C140 1.461 . S
C143 C142 1.474 . S
C144 C139 1.342 . S
C144 C142 1.285 . S
C144 H163 0.930 . S
C145 C148 1.424 . S
C145 C150 1.245 . S
C145 C151 1.428 . S
C146 C149 1.260 . S
C146 C150 1.477 . S
C146 H164 0.932 . S
C147 C148 1.384 . S
C147 C149 1.479 . S
C147 H165 0.929 . S
C148 C145 1.424 . S
C148 C147 1.384 . S
C148 H166 0.928 . S
C149 C146 1.260 . S
C149 C147 1.479 . S
C150 C145 1.245 . S
C150 C146 1.477 . S
C150 H167 0.932 . S
C151 U134 2.882 . S
C151 C145 1.428 . S
C151 O154 1.301 . S
C151 O155 1.282 . S
O152 U134 2.441 . S
O152 C138 1.249 . S
O153 U134 2.420 . S
O153 C138 1.202 . S
O154 U134 2.455 . S
O154 C151 1.301 . S
O155 U134 2.449 . S
O155 C151 1.282 . S
H156 C129 0.931 . S
H157 C131 0.929 . S
H158 C132 0.930 . S
H159 C133 0.931 . S
H160 C140 0.932 . S
H161 C141 0.930 . S
H162 C142 0.929 . S
H163 C144 0.930 . S
H164 C146 0.932 . S
H165 C147 0.929 . S
H166 C148 0.928 . S
H167 C150 0.932 . S
C168 C169 1.264 . S
C168 C173 1.479 . S
C168 C178 1.465 . S
C169 C168 1.264 . S
C169 C171 1.339 . S
C169 H196 0.931 . S
C170 C171 1.395 . S
C170 C172 1.320 . S
C171 C169 1.339 . S
C171 C170 1.395 . S
C171 H197 0.929 . S
C172 C170 1.320 . S
C172 C173 1.405 . S
C172 H198 0.930 . S
C173 C168 1.479 . S
C173 C172 1.405 . S
C173 H199 0.931 . S
U174 O175 2.454 . S
U174 O176 2.458 1_554 S
U174 C177 2.984 . S
U174 C178 2.847 . S
U174 C191 2.882 1_554 S
U174 O192 2.441 . S
U174 O193 2.420 . S
U174 O194 2.455 1_554 S
U174 O195 2.449 1_554 S
O175 U174 2.454 . S
O175 C177 1.353 . S
O176 U174 2.458 1_556 S
O176 C177 1.286 1_556 S
C177 U174 2.984 . S
C177 O175 1.353 . S
C177 O176 1.286 1_554 S
C177 C179 1.363 . S
C178 C168 1.465 . S
C178 U174 2.847 . S
C178 O192 1.249 . S
C178 O193 1.202 . S
C179 C177 1.363 . S
C179 C181 1.408 . S
C179 C184 1.342 1_554 S
C180 C181 1.310 . S
C180 C183 1.461 . S
C180 H200 0.932 . S
C181 C179 1.408 . S
C181 C180 1.310 . S
C181 H201 0.930 . S
C182 C183 1.474 1_556 S
C182 C184 1.285 . S
C182 H202 0.929 . S
C183 C180 1.461 . S
C183 C182 1.474 1_554 S
C184 C179 1.342 1_556 S
C184 C182 1.285 . S
C184 H203 0.930 . S
C185 C188 1.424 . S
C185 C190 1.245 . S
C185 C191 1.428 . S
C186 C189 1.260 . S
C186 C190 1.477 . S
C186 H204 0.932 . S
C187 C188 1.384 . S
C187 C189 1.479 . S
C187 H205 0.929 . S
C188 C185 1.424 . S
C188 C187 1.384 . S
C188 H206 0.928 . S
C189 C186 1.260 . S
C189 C187 1.479 . S
C190 C185 1.245 . S
C190 C186 1.477 . S
C190 H207 0.932 . S
C191 U174 2.882 1_556 S
C191 C185 1.428 . S
C191 O194 1.301 . S
C191 O195 1.282 . S
O192 U174 2.441 . S
O192 C178 1.249 . S
O193 U174 2.420 . S
O193 C178 1.202 . S
O194 U174 2.455 1_556 S
O194 C191 1.301 . S
O195 U174 2.449 1_556 S
O195 C191 1.282 . S
H196 C169 0.931 . S
H197 C171 0.929 . S
H198 C172 0.930 . S
H199 C173 0.931 . S
H200 C180 0.932 . S
H201 C181 0.930 . S
H202 C182 0.929 . S
H203 C184 0.930 . S
H204 C186 0.932 . S
H205 C187 0.929 . S
H206 C188 0.928 . S
H207 C190 0.932 . S
C208 C209 1.264 . S
C208 C213 1.479 . S
C208 C218 1.465 . S
C209 C208 1.264 . S
C209 C211 1.339 . S
C209 H236 0.931 . S
C210 C211 1.395 . S
C210 C212 1.320 . S
C211 C209 1.339 . S
C211 C210 1.395 . S
C211 H237 0.929 . S
C212 C210 1.320 . S
C212 C213 1.405 . S
C212 H238 0.930 . S
C213 C208 1.479 . S
C213 C212 1.405 . S
C213 H239 0.931 . S
U214 O215 2.454 1_455 S
U214 O216 2.458 1_455 S
U214 C217 2.984 1_455 S
U214 C218 2.847 . S
U214 C231 2.882 . S
U214 O232 2.441 . S
U214 O233 2.420 . S
U214 O234 2.455 . S
U214 O235 2.449 . S
O215 U214 2.454 1_655 S
O215 C217 1.353 . S
O216 U214 2.458 1_655 S
O216 C217 1.286 . S
C217 U214 2.984 1_655 S
C217 O215 1.353 . S
C217 O216 1.286 . S
C217 C219 1.363 . S
C218 C208 1.465 . S
C218 U214 2.847 . S
C218 O232 1.249 . S
C218 O233 1.202 . S
C219 C217 1.363 . S
C219 C221 1.408 . S
C219 C224 1.342 . S
C220 C221 1.310 . S
C220 C223 1.461 . S
C220 H240 0.932 . S
C221 C219 1.408 . S
C221 C220 1.310 . S
C221 H241 0.930 . S
C222 C223 1.474 . S
C222 C224 1.285 . S
C222 H242 0.929 . S
C223 C220 1.461 . S
C223 C222 1.474 . S
C224 C219 1.342 . S
C224 C222 1.285 . S
C224 H243 0.930 . S
C225 C228 1.424 . S
C225 C230 1.245 . S
C225 C231 1.428 . S
C226 C229 1.260 . S
C226 C230 1.477 . S
C226 H244 0.932 . S
C227 C228 1.384 . S
C227 C229 1.479 . S
C227 H245 0.929 . S
C228 C225 1.424 . S
C228 C227 1.384 . S
C228 H246 0.928 . S
C229 C226 1.260 . S
C229 C227 1.479 . S
C230 C225 1.245 . S
C230 C226 1.477 . S
C230 H247 0.932 . S
C231 U214 2.882 . S
C231 C225 1.428 . S
C231 O234 1.301 . S
C231 O235 1.282 . S
O232 U214 2.441 . S
O232 C218 1.249 . S
O233 U214 2.420 . S
O233 C218 1.202 . S
O234 U214 2.455 . S
O234 C231 1.301 . S
O235 U214 2.449 . S
O235 C231 1.282 . S
H236 C209 0.931 . S
H237 C211 0.929 . S
H238 C212 0.930 . S
H239 C213 0.931 . S
H240 C220 0.932 . S
H241 C221 0.930 . S
H242 C222 0.929 . S
H243 C224 0.930 . S
H244 C226 0.932 . S
H245 C227 0.929 . S
H246 C228 0.928 . S
H247 C230 0.932 . S
C248 C249 1.264 . S
C248 C253 1.479 . S
C248 C258 1.465 . S
C249 C248 1.264 . S
C249 C251 1.339 . S
C249 H276 0.931 . S
C250 C251 1.395 . S
C250 C252 1.320 . S
C251 C249 1.339 . S
C251 C250 1.395 . S
C251 H277 0.929 . S
C252 C250 1.320 . S
C252 C253 1.405 . S
C252 H278 0.930 . S
C253 C248 1.479 . S
C253 C252 1.405 . S
C253 H279 0.931 . S
U254 O255 2.454 1_565 S
U254 O256 2.458 1_565 S
U254 C257 2.984 1_565 S
U254 C258 2.847 . S
U254 C271 2.882 . S
U254 O272 2.441 . S
U254 O273 2.420 . S
U254 O274 2.455 . S
U254 O275 2.449 . S
O255 U254 2.454 1_545 S
O255 C257 1.353 . S
O256 U254 2.458 1_545 S
O256 C257 1.286 . S
C257 U254 2.984 1_545 S
C257 O255 1.353 . S
C257 O256 1.286 . S
C257 C259 1.363 . S
C258 C248 1.465 . S
C258 U254 2.847 . S
C258 O272 1.249 . S
C258 O273 1.202 . S
C259 C257 1.363 . S
C259 C261 1.408 . S
C259 C264 1.342 . S
C260 C261 1.310 . S
C260 C263 1.461 . S
C260 H280 0.932 . S
C261 C259 1.408 . S
C261 C260 1.310 . S
C261 H281 0.930 . S
C262 C263 1.474 . S
C262 C264 1.285 . S
C262 H282 0.929 . S
C263 C260 1.461 . S
C263 C262 1.474 . S
C264 C259 1.342 . S
C264 C262 1.285 . S
C264 H283 0.930 . S
C265 C268 1.424 . S
C265 C270 1.245 . S
C265 C271 1.428 . S
C266 C269 1.260 . S
C266 C270 1.477 . S
C266 H284 0.932 . S
C267 C268 1.384 . S
C267 C269 1.479 . S
C267 H285 0.929 . S
C268 C265 1.424 . S
C268 C267 1.384 . S
C268 H286 0.928 . S
C269 C266 1.260 . S
C269 C267 1.479 . S
C270 C265 1.245 . S
C270 C266 1.477 . S
C270 H287 0.932 . S
C271 U254 2.882 . S
C271 C265 1.428 . S
C271 O274 1.301 . S
C271 O275 1.282 . S
O272 U254 2.441 . S
O272 C258 1.249 . S
O273 U254 2.420 . S
O273 C258 1.202 . S
O274 U254 2.455 . S
O274 C271 1.301 . S
O275 U254 2.449 . S
O275 C271 1.282 . S
H276 C249 0.931 . S
H277 C251 0.929 . S
H278 C252 0.930 . S
H279 C253 0.931 . S
H280 C260 0.932 . S
H281 C261 0.930 . S
H282 C262 0.929 . S
H283 C264 0.930 . S
H284 C266 0.932 . S
H285 C267 0.929 . S
H286 C268 0.928 . S
H287 C270 0.932 . S
C288 C289 1.264 . S
C288 C293 1.479 . S
C288 C298 1.465 . S
C289 C288 1.264 . S
C289 C291 1.339 . S
C289 H316 0.931 . S
C290 C291 1.395 . S
C290 C292 1.320 . S
C291 C289 1.339 . S
C291 C290 1.395 . S
C291 H317 0.929 . S
C292 C290 1.320 . S
C292 C293 1.405 . S
C292 H318 0.930 . S
C293 C288 1.479 . S
C293 C292 1.405 . S
C293 H319 0.931 . S
U294 O295 2.454 . S
U294 O296 2.458 1_556 S
U294 C297 2.984 . S
U294 C298 2.847 . S
U294 C311 2.882 1_556 S
U294 O312 2.441 . S
U294 O313 2.420 . S
U294 O314 2.455 1_556 S
U294 O315 2.449 1_556 S
O295 U294 2.454 . S
O295 C297 1.353 . S
O296 U294 2.458 1_554 S
O296 C297 1.286 1_554 S
C297 U294 2.984 . S
C297 O295 1.353 . S
C297 O296 1.286 1_556 S
C297 C299 1.363 . S
C298 C288 1.465 . S
C298 U294 2.847 . S
C298 O312 1.249 . S
C298 O313 1.202 . S
C299 C297 1.363 . S
C299 C301 1.418 . S
C299 C304 1.332 1_556 S
C300 C301 1.310 . S
C300 C303 1.461 1_556 S
C300 H320 0.932 . S
C301 C299 1.418 . S
C301 C300 1.310 . S
C301 H321 0.930 . S
C302 C303 1.474 . S
C302 C304 1.285 . S
C302 H322 0.929 . S
C303 C300 1.461 1_554 S
C303 C302 1.474 . S
C304 C299 1.332 1_554 S
C304 C302 1.285 . S
C304 H323 0.930 . S
C305 C308 1.424 . S
C305 C310 1.245 . S
C305 C311 1.428 . S
C306 C309 1.260 . S
C306 C310 1.477 . S
C306 H324 0.932 . S
C307 C308 1.384 . S
C307 C309 1.479 . S
C307 H325 0.929 . S
C308 C305 1.424 . S
C308 C307 1.384 . S
C308 H326 0.928 . S
C309 C306 1.260 . S
C309 C307 1.479 . S
C310 C305 1.245 . S
C310 C306 1.477 . S
C310 H327 0.932 . S
C311 U294 2.882 1_554 S
C311 C305 1.428 . S
C311 O314 1.301 . S
C311 O315 1.282 . S
O312 U294 2.441 . S
O312 C298 1.249 . S
O313 U294 2.420 . S
O313 C298 1.202 . S
O314 U294 2.455 1_554 S
O314 C311 1.301 . S
O315 U294 2.449 1_554 S
O315 C311 1.282 . S
H316 C289 0.931 . S
H317 C291 0.929 . S
H318 C292 0.930 . S
H319 C293 0.931 . S
H320 C300 0.932 . S
H321 C301 0.930 . S
H322 C302 0.929 . S
H323 C304 0.930 . S
H324 C306 0.932 . S
H325 C307 0.929 . S
H326 C308 0.928 . S
H327 C310 0.932 . S
C328 C329 1.264 . S
C328 C333 1.479 . S
C328 C338 1.465 . S
C329 C328 1.264 . S
C329 C331 1.339 . S
C329 H356 0.931 . S
C330 C331 1.395 . S
C330 C332 1.320 . S
C331 C329 1.339 . S
C331 C330 1.395 . S
C331 H357 0.929 . S
C332 C330 1.320 . S
C332 C333 1.405 . S
C332 H358 0.930 . S
C333 C328 1.479 . S
C333 C332 1.405 . S
C333 H359 0.931 . S
U334 O335 2.454 1_545 S
U334 O336 2.458 1_545 S
U334 C337 2.984 1_545 S
U334 C338 2.847 . S
U334 C351 2.882 . S
U334 O352 2.441 . S
U334 O353 2.420 . S
U334 O354 2.455 . S
U334 O355 2.449 . S
O335 U334 2.454 1_565 S
O335 C337 1.353 . S
O336 U334 2.458 1_565 S
O336 C337 1.286 . S
C337 U334 2.984 1_565 S
C337 O335 1.353 . S
C337 O336 1.286 . S
C337 C339 1.363 . S
C338 C328 1.465 . S
C338 U334 2.847 . S
C338 O352 1.249 . S
C338 O353 1.202 . S
C339 C337 1.363 . S
C339 C341 1.408 . S
C339 C344 1.342 . S
C340 C341 1.310 . S
C340 C343 1.461 . S
C340 H360 0.932 . S
C341 C339 1.408 . S
C341 C340 1.310 . S
C341 H361 0.930 . S
C342 C343 1.474 . S
C342 C344 1.285 . S
C342 H362 0.929 . S
C343 C340 1.461 . S
C343 C342 1.474 . S
C344 C339 1.342 . S
C344 C342 1.285 . S
C344 H363 0.930 . S
C345 C348 1.424 . S
C345 C350 1.245 . S
C345 C351 1.428 . S
C346 C349 1.260 . S
C346 C350 1.477 . S
C346 H364 0.932 . S
C347 C348 1.384 . S
C347 C349 1.479 . S
C347 H365 0.929 . S
C348 C345 1.424 . S
C348 C347 1.384 . S
C348 H366 0.928 . S
C349 C346 1.260 . S
C349 C347 1.479 . S
C350 C345 1.245 . S
C350 C346 1.477 . S
C350 H367 0.932 . S
C351 U334 2.882 . S
C351 C345 1.428 . S
C351 O354 1.301 . S
C351 O355 1.282 . S
O352 U334 2.441 . S
O352 C338 1.249 . S
O353 U334 2.420 . S
O353 C338 1.202 . S
O354 U334 2.455 . S
O354 C351 1.301 . S
O355 U334 2.449 . S
O355 C351 1.282 . S
H356 C329 0.931 . S
H357 C331 0.929 . S
H358 C332 0.930 . S
H359 C333 0.931 . S
H360 C340 0.932 . S
H361 C341 0.930 . S
H362 C342 0.929 . S
H363 C344 0.930 . S
H364 C346 0.932 . S
H365 C347 0.929 . S
H366 C348 0.928 . S
H367 C350 0.932 . S
C368 C369 1.264 . S
C368 C373 1.479 . S
C368 C378 1.465 . S
C369 C368 1.264 . S
C369 C371 1.339 . S
C369 H396 0.931 . S
C370 C371 1.395 . S
C370 C372 1.320 . S
C371 C369 1.339 . S
C371 C370 1.395 . S
C371 H397 0.929 . S
C372 C370 1.320 . S
C372 C373 1.405 . S
C372 H398 0.930 . S
C373 C368 1.479 . S
C373 C372 1.405 . S
C373 H399 0.931 . S
U374 O375 2.454 . S
U374 O376 2.458 1_554 S
U374 C377 2.984 . S
U374 C378 2.847 . S
U374 C391 2.882 1_554 S
U374 O392 2.441 . S
U374 O393 2.420 . S
U374 O394 2.455 1_554 S
U374 O395 2.449 1_554 S
O375 U374 2.454 . S
O375 C377 1.353 . S
O376 U374 2.458 1_556 S
O376 C377 1.286 1_556 S
C377 U374 2.984 . S
C377 O375 1.353 . S
C377 O376 1.286 1_554 S
C377 C379 1.363 . S
C378 C368 1.465 . S
C378 U374 2.847 . S
C378 O392 1.249 . S
C378 O393 1.202 . S
C379 C377 1.363 . S
C379 C381 1.408 . S
C379 C384 1.342 1_554 S
C380 C381 1.310 . S
C380 C383 1.461 . S
C380 H400 0.932 . S
C381 C379 1.408 . S
C381 C380 1.310 . S
C381 H401 0.930 . S
C382 C383 1.474 1_556 S
C382 C384 1.285 . S
C382 H402 0.929 . S
C383 C380 1.461 . S
C383 C382 1.474 1_554 S
C384 C379 1.342 1_556 S
C384 C382 1.285 . S
C384 H403 0.930 . S
C385 C388 1.424 . S
C385 C390 1.245 . S
C385 C391 1.428 . S
C386 C389 1.260 . S
C386 C390 1.477 . S
C386 H404 0.932 . S
C387 C388 1.384 . S
C387 C389 1.479 . S
C387 H405 0.929 . S
C388 C385 1.424 . S
C388 C387 1.384 . S
C388 H406 0.928 . S
C389 C386 1.260 . S
C389 C387 1.479 . S
C390 C385 1.245 . S
C390 C386 1.477 . S
C390 H407 0.932 . S
C391 U374 2.882 1_556 S
C391 C385 1.428 . S
C391 O394 1.301 . S
C391 O395 1.282 . S
O392 U374 2.441 . S
O392 C378 1.249 . S
O393 U374 2.420 . S
O393 C378 1.202 . S
O394 U374 2.455 1_556 S
O394 C391 1.301 . S
O395 U374 2.449 1_556 S
O395 C391 1.282 . S
H396 C369 0.931 . S
H397 C371 0.929 . S
H398 C372 0.930 . S
H399 C373 0.931 . S
H400 C380 0.932 . S
H401 C381 0.930 . S
H402 C382 0.929 . S
H403 C384 0.930 . S
H404 C386 0.932 . S
H405 C387 0.929 . S
H406 C388 0.928 . S
H407 C390 0.932 . S
C5 C210 2.200 . S
C31 C90 2.223 . S
C149 C53 1.981 . S
C71 C189 1.960 . S
C309 C75 1.960 . S
C349 C9 1.981 . S
C370 C27 2.223 . S
C250 C49 2.200 . S
C51 C130 2.005 . S
C72 C170 2.025 . S
C6 C229 2.198 . S
C109 C29 2.175 . S
C28 C389 2.175 . S
C269 C50 2.198 . S
C290 C73 2.025 . S
C7 C330 2.005 . S
C103 C4 1.880 . S
C143 C30 1.857 . S
C52 C183 1.857 . S
C70 C223 1.879 . S
C263 C74 1.879 . S
C8 C303 1.858 . S
C26 C343 1.857 . S
C48 C383 1.880 . S
