# Generated by pormake.
# Topology anh, (6,3)-cn, num edge types: 1
# Building blocks:
#     Node 0, Type 0, BuildingBlock: NUHQIS_clean_sbu_0, # of connection points: 6
#     Node 1, Type 0, BuildingBlock: NUHQIS_clean_sbu_0, # of connection points: 6
#     Node 2, Type 0, BuildingBlock: NUHQIS_clean_sbu_0, # of connection points: 6
#     Node 3, Type 1, BuildingBlock: WUSLED_clean_sbu_0, # of connection points: 3
#     Node 4, Type 1, BuildingBlock: WUSLED_clean_sbu_0, # of connection points: 3
#     Node 5, Type 1, BuildingBlock: WUSLED_clean_sbu_0, # of connection points: 3
#     Node 6, Type 1, BuildingBlock: WUSLED_clean_sbu_0, # of connection points: 3
#     Node 7, Type 1, BuildingBlock: WUSLED_clean_sbu_0, # of connection points: 3
#     Node 8, Type 1, BuildingBlock: WUSLED_clean_sbu_0, # of connection points: 3
#     Edge 9, Type (0, 1), BuildingBlock: ZUJKAS_clean_linker_0, # of connection points: 2
#     Edge 10, Type (0, 1), BuildingBlock: ZUJKAS_clean_linker_0, # of connection points: 2
#     Edge 11, Type (0, 1), BuildingBlock: ZUJKAS_clean_linker_0, # of connection points: 2
#     Edge 12, Type (0, 1), BuildingBlock: ZUJKAS_clean_linker_0, # of connection points: 2
#     Edge 13, Type (0, 1), BuildingBlock: ZUJKAS_clean_linker_0, # of connection points: 2
#     Edge 14, Type (0, 1), BuildingBlock: ZUJKAS_clean_linker_0, # of connection points: 2
#     Edge 15, Type (0, 1), BuildingBlock: ZUJKAS_clean_linker_0, # of connection points: 2
#     Edge 16, Type (0, 1), BuildingBlock: ZUJKAS_clean_linker_0, # of connection points: 2
#     Edge 17, Type (0, 1), BuildingBlock: ZUJKAS_clean_linker_0, # of connection points: 2
#     Edge 18, Type (0, 1), BuildingBlock: ZUJKAS_clean_linker_0, # of connection points: 2
#     Edge 19, Type (0, 1), BuildingBlock: ZUJKAS_clean_linker_0, # of connection points: 2
#     Edge 20, Type (0, 1), BuildingBlock: ZUJKAS_clean_linker_0, # of connection points: 2
#     Edge 21, Type (0, 1), BuildingBlock: ZUJKAS_clean_linker_0, # of connection points: 2
#     Edge 22, Type (0, 1), BuildingBlock: ZUJKAS_clean_linker_0, # of connection points: 2
#     Edge 23, Type (0, 1), BuildingBlock: ZUJKAS_clean_linker_0, # of connection points: 2
#     Edge 24, Type (0, 1), BuildingBlock: ZUJKAS_clean_linker_0, # of connection points: 2
#     Edge 25, Type (0, 1), BuildingBlock: ZUJKAS_clean_linker_0, # of connection points: 2
#     Edge 26, Type (0, 1), BuildingBlock: ZUJKAS_clean_linker_0, # of connection points: 2
# Relax obj value: 0.188
# Max RMSD: 0.178
# Mean RMSD: 0.143
data_MOF--net-anh--node1-NUHQIS_clean_sbu_0--node2-WUSLED_clean_sbu_0--edge1-ZUJKAS_clean_linker_0
_symmetry_space_group_name_H-M    P1
_symmetry_Int_Tables_number       1
_symmetry_cell_setting            triclinic
loop_
_symmetry_equiv_pos_as_xyz
'x, y, z'
_cell_length_a     49.542619
_cell_length_b     49.489113
_cell_length_c     86.139802
_cell_angle_alpha  90.163806
_cell_angle_beta   93.066989
_cell_angle_gamma 120.09855
loop_
_atom_site_label
_atom_site_type_symbol
_atom_site_fract_x
_atom_site_fract_y
_atom_site_fract_z
_atom_type_partial_charge
Tb0 Tb 0.08216 0.5187 0.16752 0.0
Eu1 Eu 0.05078 0.55859 0.16659 0.0
C2 C 0.06587 0.53809 0.19836 0.0
C3 C 1.00666 0.48167 0.17039 0.0
C4 C 0.14206 0.49851 0.17311 0.0
C5 C 0.1859 0.51861 0.19216 0.0
C6 C 0.15389 0.50438 0.1887 0.0
C7 C 0.16251 0.50681 0.1611 0.0
C8 C 0.19434 0.52124 0.16455 0.0
C9 C 0.20621 0.527 0.18009 0.0
C10 C 0.10924 0.48771 0.1691 0.0
O11 O 0.0666 0.51447 0.14291 0.0
O12 O 0.06435 0.55892 0.14194 0.0
O13 O 0.10139 0.5945 0.17445 0.0
O14 O 0.12428 0.56737 0.16647 0.0
C15 C 0.06536 0.53617 0.1348 0.0
O16 O 1.02135 0.57374 0.15469 0.0
O17 O 0.0485 0.59809 0.17607 0.0
O18 O 1.0434 0.53909 0.19031 0.0
O19 O 0.08833 0.53781 0.19117 0.0
O20 O 1.03311 0.48121 0.17047 0.0
O21 O 1.00733 0.50864 0.1684 0.0
C22 C 0.12702 0.59414 0.17161 0.0
O23 O 0.09316 0.4891 0.18025 0.0
O24 O 0.10415 0.49861 0.15622 0.0
C25 C 0.99652 0.5855 0.17294 0.0
C26 C 0.93448 0.55091 0.17973 0.0
C27 C 0.94284 0.57055 0.16703 0.0
C28 C 0.97394 0.58802 0.16368 0.0
C29 C 0.98823 0.5675 0.18634 0.0
C30 C 0.95714 0.55026 0.18975 0.0
C31 C 1.02539 0.59296 0.16618 0.0
H32 H 0.19478 0.52248 0.20422 0.0
H33 H 0.13857 0.4983 0.19819 0.0
H34 H 0.15393 0.50253 0.14899 0.0
H35 H 0.20953 0.52661 0.15504 0.0
H36 H 0.92516 0.57128 0.15935 0.0
H37 H 0.98 0.60122 0.15315 0.0
H38 H 1.00533 0.56473 0.19345 0.0
H39 H 0.95062 0.53517 0.19961 0.0
Tb40 Tb 0.59886 0.07796 0.50412 0.0
Eu41 Eu 0.52854 0.04923 0.49942 0.0
C42 C 0.56025 0.06167 0.53244 0.0
C43 C 0.55995 1.00366 0.5043 0.0
C44 C 0.67997 0.13427 0.50997 0.0
C45 C 0.7155 0.18274 0.52368 0.0
C46 C 0.69798 0.15047 0.52345 0.0
C47 C 0.67996 0.15033 0.4966 0.0
C48 C 0.69793 0.18248 0.49672 0.0
C49 C 0.71559 0.19878 0.51029 0.0
C50 C 0.6559 0.10223 0.51122 0.0
O51 O 0.59505 0.08408 0.47885 0.0
O52 O 0.54266 0.05073 0.47493 0.0
O53 O 0.54342 0.10073 0.49666 0.0
O54 O 0.59244 0.11998 0.50801 0.0
C55 C 0.57004 0.06794 0.46935 0.0
O56 O 0.48483 1.02213 0.48552 0.0
O57 O 0.48479 0.0409 0.50827 0.0
O58 O 0.54167 0.06794 0.52405 0.0
O59 O 0.57885 0.05505 0.52539 0.0
O60 O 0.58571 1.0285 0.50028 0.0
O61 O 0.53519 1.00678 0.50635 0.0
C62 C 0.56893 0.12456 0.50329 0.0
O63 O 0.63555 0.09914 0.52103 0.0
O64 O 0.64284 0.08657 0.49816 0.0
C65 C 0.44909 0.98865 0.50218 0.0
C66 C 0.41998 0.92556 0.50879 0.0
C67 C 0.41019 0.93533 0.49541 0.0
C68 C 0.42472 0.96684 0.49213 0.0
C69 C 0.45905 0.9788 0.51549 0.0
C70 C 0.44442 0.94739 0.51881 0.0
C71 C 0.46839 1.02026 0.49718 0.0
H72 H 0.72892 0.19516 0.53427 0.0
H73 H 0.69718 0.13827 0.534 0.0
H74 H 0.66534 0.13825 0.48622 0.0
H75 H 0.69824 0.19449 0.48618 0.0
H76 H 0.39097 0.91868 0.48766 0.0
H77 H 0.41761 0.9741 0.48157 0.0
H78 H 0.47873 0.99521 0.5231 0.0
H79 H 0.45217 0.94012 0.52915 0.0
Tb80 Tb 0.57784 0.57826 0.83766 0.0
Eu81 Eu 0.53634 0.50771 0.83358 0.0
C82 C 0.55705 0.53873 0.86657 0.0
C83 C 0.61314 0.53921 0.83852 0.0
C84 C 0.60412 0.65939 0.83969 0.0
C85 C 0.59542 0.69948 0.8498 0.0
C86 C 0.60964 0.68156 0.85137 0.0
C87 C 0.58478 0.6554 0.82636 0.0
C88 C 0.57085 0.67341 0.82475 0.0
C89 C 0.57599 0.69518 0.83652 0.0
C90 C 0.61163 0.6355 0.84314 0.0
O91 O 0.56205 0.57339 0.81283 0.0
O92 O 0.55326 0.52414 0.80962 0.0
O93 O 0.49882 0.5218 0.83166 0.0
O94 O 0.52975 0.57197 0.84107 0.0
C95 C 0.55799 0.55029 0.80357 0.0
O96 O 0.51452 0.46508 0.81902 0.0
O97 O 0.50567 0.46293 0.84347 0.0
O98 O 0.53232 0.51914 0.8581 0.0
O99 O 0.58157 0.5593 0.8598 0.0
O100 O 0.61368 0.56479 0.8338 0.0
O101 O 0.58563 0.51478 0.84128 0.0
C102 C 0.50122 0.54775 0.83733 0.0
O103 O 0.59362 0.6162 0.85321 0.0
O104 O 0.61439 0.62123 0.83109 0.0
C105 C 0.51941 0.4285 0.83349 0.0
C106 C 0.55328 0.3976 0.83553 0.0
C107 C 0.52629 0.38598 0.82537 0.0
C108 C 0.50955 0.40162 0.82426 0.0
C109 C 0.54628 0.44002 0.84364 0.0
C110 C 0.56338 0.42496 0.84448 0.0
C111 C 0.50515 0.44758 0.83107 0.0
H112 H 0.59955 0.71662 0.85885 0.0
H113 H 0.62362 0.68389 0.86195 0.0
H114 H 0.57928 0.63746 0.81751 0.0
H115 H 0.55573 0.67008 0.81448 0.0
H116 H 0.51772 0.36447 0.81858 0.0
H117 H 0.48918 0.39295 0.81619 0.0
H118 H 0.55428 0.46086 0.85088 0.0
H119 H 0.58417 0.43439 0.8523 0.0
C120 C 0.64895 0.11981 0.20252 0.0
C121 C 0.65902 0.14651 0.21238 0.0
C122 C 0.70787 0.17908 0.19827 0.0
C123 C 0.68766 0.17516 0.21039 0.0
C124 C 0.69722 0.15195 0.18848 0.0
C125 C 0.66891 0.12345 0.19058 0.0
U126 U 0.57001 0.04347 0.21828 0.0
O127 O 0.52169 1.01956 0.20675 0.0
O128 O 0.54757 0.99479 0.208 0.0
C129 C 0.52115 0.99334 0.20334 0.0
C130 C 0.61733 0.08897 0.20321 0.0
C131 C 0.49009 0.9617 0.20246 0.0
C132 C 0.45235 0.91375 0.18679 0.0
C133 C 0.48115 0.94257 0.18878 0.0
C134 C 0.43955 0.92106 0.2123 0.0
C135 C 0.43029 0.90167 0.19845 0.0
C136 C 0.46848 0.95024 0.21421 0.0
C137 C 0.57257 0.04958 0.26621 0.0
C138 C 0.55366 1.02465 0.29092 0.0
C139 C 0.59243 0.07952 0.29094 0.0
C140 C 0.59197 0.07786 0.27459 0.0
C141 C 0.57323 0.05296 0.29945 0.0
C142 C 0.55347 1.02298 0.27456 0.0
C143 C 0.57217 0.04809 0.24885 0.0
O144 O 0.61648 0.06326 0.20786 0.0
O145 O 0.59191 0.08934 0.20657 0.0
O146 O 0.55919 0.06031 0.23978 0.0
O147 O 0.58376 0.03326 0.2415 0.0
H148 H 0.64465 0.14543 0.22166 0.0
H149 H 0.69356 0.19423 0.21852 0.0
H150 H 0.71035 0.15225 0.17883 0.0
H151 H 0.66228 0.10403 0.18248 0.0
H152 H 0.44766 0.90133 0.17577 0.0
H153 H 0.49656 0.95019 0.17929 0.0
H154 H 0.4246 0.91392 0.22193 0.0
H155 H 0.47387 0.96385 0.22497 0.0
H156 H 0.53873 1.00354 0.29689 0.0
H157 H 0.60756 0.10187 0.29688 0.0
H158 H 0.60692 0.09878 0.26847 0.0
H159 H 0.5382 1.00086 0.26842 0.0
C160 C 0.56703 0.64526 0.53661 0.0
C161 C 0.54354 0.65008 0.54248 0.0
C162 C 0.56612 0.70425 0.53224 0.0
C163 C 0.54324 0.6787 0.54048 0.0
C164 C 0.58952 0.699 0.52641 0.0
C165 C 0.58994 0.6706 0.52855 0.0
U166 U 0.56511 0.56511 0.55183 0.0
O167 O 0.53954 0.51788 0.53966 0.0
O168 O 0.59027 0.54235 0.54231 0.0
C169 C 0.56488 0.51665 0.53711 0.0
C170 C 0.56627 0.61352 0.53677 0.0
C171 C 0.56411 0.48491 0.5366 0.0
C172 C 0.54393 0.4326 0.52353 0.0
C173 C 0.54335 0.46091 0.52577 0.0
C174 C 0.58602 0.45026 0.54305 0.0
C175 C 0.56532 0.42604 0.53205 0.0
C176 C 0.5856 0.47883 0.54516 0.0
C177 C 0.56359 0.56469 0.59976 0.0
C178 C 0.5644 0.53999 0.62428 0.0
C179 C 0.56147 0.5872 0.62474 0.0
C180 C 0.56181 0.58783 0.60839 0.0
C181 C 0.56268 0.56322 0.63309 0.0
C182 C 0.56494 0.54079 0.6079 0.0
C183 C 0.56408 0.56585 0.58241 0.0
O184 O 0.59137 0.61225 0.54139 0.0
O185 O 0.54063 0.58768 0.53992 0.0
O186 O 0.53846 0.55268 0.57317 0.0
O187 O 0.59022 0.57807 0.57522 0.0
H188 H 0.52494 0.63149 0.54853 0.0
H189 H 0.52459 0.68036 0.5455 0.0
H190 H 0.60765 0.71656 0.51975 0.0
H191 H 0.60815 0.66819 0.52342 0.0
H192 H 0.52756 0.41618 0.51472 0.0
H193 H 0.52679 0.46436 0.51857 0.0
H194 H 0.60304 0.44759 0.55021 0.0
H195 H 0.60252 0.49638 0.55347 0.0
H196 H 0.56486 0.52075 0.62996 0.0
H197 H 0.56073 0.60597 0.63081 0.0
H198 H 0.56086 0.60664 0.60246 0.0
H199 H 0.56625 0.52256 0.60159 0.0
C200 C 0.97917 0.54028 0.86772 0.0
C201 C 0.9634 0.54143 0.88071 0.0
C202 C 0.91959 0.54093 0.86416 0.0
C203 C 0.93449 0.54167 0.87899 0.0
C204 C 0.93595 0.53988 0.85129 0.0
C205 C 0.96454 0.53949 0.85304 0.0
U206 U 0.05913 0.5393 0.88378 0.0
O207 O 0.08153 0.51525 0.87255 0.0
O208 O 0.10599 0.56599 0.87367 0.0
C209 C 0.10707 0.54108 0.86927 0.0
C210 C 1.01056 0.54038 0.86852 0.0
C211 C 0.13884 0.54205 0.86875 0.0
C212 C 0.1879 0.55915 0.85518 0.0
C213 C 0.15953 0.55925 0.8572 0.0
C214 C 0.17709 0.5248 0.8764 0.0
C215 C 0.19795 0.54195 0.86467 0.0
C216 C 0.14836 0.52467 0.8783 0.0
C217 C 0.06043 0.53567 0.93163 0.0
C218 C 0.08744 0.53816 0.9567 0.0
C219 C 1.03509 0.53012 0.95597 0.0
C220 C 1.03452 0.53101 0.93962 0.0
C221 C 0.0616 0.53374 0.96485 0.0
C222 C 0.08686 0.53919 0.94034 0.0
C223 C 0.05995 0.53698 0.91432 0.0
O224 O 1.03665 0.56541 0.87366 0.0
O225 O 1.01137 0.51474 0.87154 0.0
O226 O 0.04647 0.51172 0.90519 0.0
O227 O 0.07304 0.56349 0.90705 0.0
H228 H 0.97339 0.54214 0.8923 0.0
H229 H 0.92396 0.54231 0.88953 0.0
H230 H 0.92712 0.53956 0.83953 0.0
H231 H 0.9755 0.53873 0.84262 0.0
H232 H 0.20155 0.57249 0.84576 0.0
H233 H 0.15339 0.57261 0.84932 0.0
H234 H 0.18271 0.51119 0.88432 0.0
H235 H 0.13349 0.5107 0.88728 0.0
H236 H 0.10845 0.54142 0.96295 0.0
H237 H 1.0145 0.52619 0.96163 0.0
H238 H 1.01378 0.52814 0.9332 0.0
H239 H 0.10718 0.54281 0.93449 0.0
C240 C 1.00793 0.54641 0.46596 0.0
C241 C 0.98481 0.52438 0.4554 0.0
C242 C 0.95634 0.49493 0.47685 0.0
C243 C 0.9591 0.49869 0.46082 0.0
C244 C 0.97958 0.51686 0.48746 0.0
C245 C 1.0055 0.54277 0.48198 0.0
U246 U 0.04807 0.58194 0.43079 0.0
O247 O 0.09728 0.60482 0.42537 0.0
O248 O 0.07192 0.63082 0.42387 0.0
C249 C 0.0992 0.63231 0.4251 0.0
C250 C 1.03476 0.57231 0.45977 0.0
C251 C 0.12032 0.65372 0.4374 0.0
C252 C 0.13686 0.66214 0.46478 0.0
C253 C 0.11586 0.6437 0.45277 0.0
C254 C 0.16574 0.70203 0.44632 0.0
C255 C 0.16248 0.69105 0.46157 0.0
C256 C 0.14472 0.68328 0.43422 0.0
C257 C 1.01888 0.54466 0.39219 0.0
C258 C 0.05439 0.57225 0.37215 0.0
C259 C 1.00552 0.52424 0.36568 0.0
C260 C 0.99813 0.52184 0.38122 0.0
C261 C 1.03378 0.54941 0.36105 0.0
C262 C 0.04693 0.5699 0.3876 0.0
C263 C 1.01256 0.54229 0.40858 0.0
O264 O 0.05324 0.56417 0.45338 0.0
O265 O 1.02776 0.58995 0.45104 0.0
O266 O 1.00743 0.56411 0.41398 0.0
O267 O 1.03267 0.53832 0.41743 0.0
H268 H 0.98687 0.52697 0.44296 0.0
H269 H 0.94166 0.48153 0.45251 0.0
H270 H 0.97758 0.51395 0.49989 0.0
H271 H 1.02355 0.55971 0.49014 0.0
H272 H 0.13394 0.65306 0.47639 0.0
H273 H 0.09678 0.62104 0.45541 0.0
H274 H 0.18513 0.72466 0.44371 0.0
H275 H 0.14793 0.69143 0.42244 0.0
H276 H 0.07614 0.59199 0.36887 0.0
H277 H 0.98944 0.50613 0.35735 0.0
H278 H 0.97653 0.50216 0.38468 0.0
H279 H 0.06319 0.58769 0.39603 0.0
C280 C 0.50703 0.98556 0.79919 0.0
C281 C 0.50387 0.96277 0.78842 0.0
C282 C 0.5138 0.93614 0.80921 0.0
C283 C 0.50715 0.93808 0.79341 0.0
C284 C 0.5159 0.95831 0.82011 0.0
C285 C 0.51267 0.98327 0.81506 0.0
U286 U 0.51098 1.02857 0.76426 0.0
O287 O 0.48774 0.05454 0.75664 0.0
O288 O 0.53914 0.07827 0.75926 0.0
C289 C 0.51421 0.08128 0.75846 0.0
C290 C 0.50775 1.01299 0.7932 0.0
C291 C 0.51467 0.10141 0.77086 0.0
C292 C 0.51296 0.10878 0.79853 0.0
C293 C 0.50935 0.08965 0.78591 0.0
C294 C 0.52651 0.15169 0.78113 0.0
C295 C 0.52157 0.13987 0.7962 0.0
C296 C 0.52327 0.13248 0.76845 0.0
C297 C 0.51479 0.99913 0.72578 0.0
C298 C 0.51085 1.02833 0.70412 0.0
C299 C 0.53165 0.99366 0.70077 0.0
C300 C 0.52735 0.98577 0.71633 0.0
C301 C 0.52342 1.01501 0.69454 0.0
C302 C 0.50672 1.02056 0.71965 0.0
C303 C 0.51254 0.99323 0.74234 0.0
O304 O 0.53431 0.03213 0.78714 0.0
O305 O 0.4829 1.00689 0.78422 0.0
O306 O 0.48625 0.98839 0.74785 0.0
O307 O 0.53763 1.01312 0.7509 0.0
H308 H 0.49985 0.96464 0.77608 0.0
H309 H 0.50503 0.9208 0.78492 0.0
H310 H 0.52106 0.95685 0.83236 0.0
H311 H 0.51548 1.00111 0.82337 0.0
H312 H 0.50919 0.0994 0.81008 0.0
H313 H 0.50305 0.06576 0.78794 0.0
H314 H 0.53372 0.17597 0.77925 0.0
H315 H 0.52806 0.14193 0.75695 0.0
H316 H 0.50409 0.04464 0.69962 0.0
H317 H 0.54193 0.98351 0.69368 0.0
H318 H 0.5343 0.96973 0.72104 0.0
H319 H 0.49752 0.03155 0.72693 0.0
C320 C 0.57801 0.47679 0.13481 0.0
C321 C 0.60002 0.47882 0.12465 0.0
C322 C 0.63209 0.47863 0.14656 0.0
C323 C 0.62703 0.47986 0.1305 0.0
C324 C 0.60986 0.47633 0.15674 0.0
C325 C 0.58274 0.47545 0.15084 0.0
U326 U 0.53612 0.47962 0.09909 0.0
O327 O 0.51259 0.50594 0.09296 0.0
O328 O 0.48613 0.45443 0.09176 0.0
C329 C 0.48501 0.48038 0.09256 0.0
C330 C 0.55073 0.47689 0.12827 0.0
C331 C 0.46577 0.48073 0.10452 0.0
C332 C 0.46196 0.489 0.13183 0.0
C333 C 0.47744 0.48448 0.1201 0.0
C334 C 0.42178 0.48386 0.11258 0.0
C335 C 0.43464 0.48964 0.12799 0.0
C336 C 0.43744 0.47944 0.10079 0.0
C337 C 0.56713 0.48668 0.06087 0.0
C338 C 0.53968 0.49859 0.04036 0.0
C339 C 0.57915 0.48554 0.0342 0.0
C340 C 0.58427 0.48193 0.04994 0.0
C341 C 0.55696 0.49407 0.02934 0.0
C342 C 0.54461 0.49471 0.05603 0.0
C343 C 0.57198 0.48309 0.07736 0.0
O344 O 0.55728 0.50328 0.12171 0.0
O345 O 0.53193 0.45186 0.11955 0.0
O346 O 0.55091 0.45623 0.08269 0.0
O347 O 0.57763 0.50745 0.08607 0.0
H348 H 0.59645 0.48003 0.11221 0.0
H349 H 0.64419 0.48224 0.1225 0.0
H350 H 0.6135 0.47523 0.16918 0.0
H351 H 0.56571 0.47393 0.1587 0.0
H352 H 0.47212 0.49363 0.14368 0.0
H353 H 0.49926 0.48529 0.1231 0.0
H354 H 0.40034 0.48406 0.10965 0.0
H355 H 0.42814 0.47621 0.08883 0.0
H356 H 0.52232 0.50494 0.03685 0.0
H357 H 0.59294 0.48227 0.02585 0.0
H358 H 0.6016 0.47562 0.05357 0.0
H359 H 0.53095 0.49813 0.06441 0.0
H360 H 0.22764 0.49835 0.19929 0.0
H361 H 0.27706 0.49968 0.19743 0.0
H362 H 0.30621 0.57415 0.165 0.0
H363 H 0.25699 0.5737 0.16718 0.0
H364 H 0.28529 0.48741 0.1652 0.0
H365 H 0.38646 0.59485 0.193 0.0
H366 H 0.347 0.57938 0.19891 0.0
H367 H 0.35824 0.59946 0.18102 0.0
C368 C 0.24535 0.51634 0.19255 0.0
C369 C 0.23881 0.53595 0.18336 0.0
C370 C 0.27334 0.51684 0.1914 0.0
C371 C 0.29487 0.53707 0.18117 0.0
C372 C 0.28981 0.55884 0.17316 0.0
H373 H 0.43012 0.54115 0.12715 0.0
H374 H 0.40001 0.55436 0.14397 0.0
C375 C 0.26185 0.55851 0.17438 0.0
C376 C 0.31927 0.5312 0.17663 0.0
H377 H 0.39799 0.56322 0.17691 0.0
C378 C 0.30996 0.50356 0.16799 0.0
C379 C 0.35106 0.553 0.18001 0.0
C380 C 0.36145 0.58333 0.18881 0.0
C381 C 0.33211 0.49732 0.16235 0.0
C382 C 0.36405 0.51888 0.16602 0.0
C383 C 0.37331 0.54644 0.17469 0.0
C384 C 0.38791 0.51522 0.15887 0.0
C385 C 0.32131 0.46874 0.15182 0.0
C386 C 0.39184 0.48972 0.16233 0.0
C387 C 0.40877 0.48205 0.15268 0.0
C388 C 0.42138 0.49987 0.13963 0.0
C389 C 0.41975 0.52692 0.13706 0.0
C390 C 0.40303 0.53462 0.14669 0.0
H391 H 0.29614 0.45772 0.14797 0.0
H392 H 0.33509 0.47488 0.14133 0.0
H393 H 0.32492 0.45118 0.15814 0.0
H394 H 0.38018 0.47476 0.17181 0.0
H395 H 0.4104 0.46133 0.15481 0.0
H396 H 0.70344 0.24224 0.49779 0.0
H397 H 0.7429 0.29577 0.49205 0.0
H398 H 0.81432 0.2831 0.51609 0.0
H399 H 0.77571 0.22948 0.52117 0.0
H400 H 0.78785 0.34582 0.51325 0.0
H401 H 0.84066 0.3041 0.47063 0.0
H402 H 0.80198 0.27944 0.47728 0.0
H403 H 0.8359 0.28684 0.48932 0.0
C404 C 0.72754 0.25117 0.50197 0.0
C405 C 0.73688 0.2321 0.5098 0.0
C406 C 0.74977 0.28141 0.49872 0.0
C407 C 0.78105 0.29237 0.50344 0.0
C408 C 0.79006 0.27426 0.51223 0.0
H409 H 0.95715 0.45475 0.49776 0.0
H410 H 0.91215 0.40522 0.50467 0.0
C411 C 0.76803 0.24402 0.51531 0.0
C412 C 0.80478 0.32258 0.49884 0.0
H413 H 0.86988 0.35808 0.4785 0.0
C414 C 0.80566 0.34876 0.50552 0.0
C415 C 0.82749 0.32544 0.48874 0.0
C416 C 0.82638 0.29746 0.48096 0.0
C417 C 0.82991 0.37848 0.50275 0.0
C418 C 0.85308 0.3813 0.49306 0.0
C419 C 0.85181 0.35516 0.48604 0.0
C420 C 0.87901 0.41146 0.48996 0.0
C421 C 0.83119 0.40658 0.51041 0.0
C422 C 0.87429 0.4305 0.47959 0.0
C423 C 0.89957 0.45857 0.47578 0.0
C424 C 0.92952 0.46737 0.48228 0.0
C425 C 0.93401 0.44841 0.49291 0.0
C426 C 0.90866 0.42032 0.49673 0.0
H427 H 0.81344 0.39989 0.51918 0.0
H428 H 0.85476 0.42202 0.51615 0.0
H429 H 0.82691 0.42023 0.50141 0.0
H430 H 0.85127 0.42328 0.47424 0.0
H431 H 0.8959 0.47308 0.46752 0.0
H432 H 0.58635 0.73323 0.81299 0.0
H433 H 0.5691 0.77131 0.81012 0.0
H434 H 0.51921 0.73953 0.85202 0.0
H435 H 0.53734 0.70172 0.85516 0.0
H436 H 0.5093 0.76224 0.80776 0.0
H437 H 0.58143 0.83367 0.86006 0.0
H438 H 0.58571 0.80271 0.85165 0.0
H439 H 0.55366 0.79355 0.86352 0.0
C440 C 0.57139 0.73427 0.82143 0.0
C441 C 0.56304 0.71524 0.83429 0.0
C442 C 0.56164 0.75577 0.81981 0.0
C443 C 0.54329 0.75793 0.83097 0.0
C444 C 0.53377 0.73802 0.8435 0.0
H445 H 0.48591 0.89582 0.832 0.0
H446 H 0.49104 0.85017 0.83813 0.0
C447 C 0.54394 0.7167 0.84525 0.0
C448 C 0.53545 0.78223 0.82963 0.0
H449 H 0.55249 0.8521 0.84571 0.0
C450 C 0.51822 0.78172 0.81612 0.0
C451 C 0.54807 0.80755 0.84053 0.0
C452 C 0.5685 0.80968 0.85469 0.0
C453 C 0.5137 0.80668 0.81301 0.0
C454 C 0.52634 0.83196 0.82389 0.0
C455 C 0.54273 0.8321 0.83762 0.0
C456 C 0.52438 0.85948 0.82078 0.0
C457 C 0.49654 0.8064 0.79793 0.0
C458 C 0.54236 0.87949 0.80941 0.0
C459 C 0.5397 0.90534 0.80601 0.0
C460 C 0.51908 0.91109 0.81403 0.0
C461 C 0.50202 0.89161 0.82584 0.0
C462 C 0.50472 0.86571 0.82923 0.0
H463 H 0.48269 0.78252 0.79251 0.0
H464 H 0.48068 0.81572 0.79982 0.0
H465 H 0.5138 0.8216 0.78963 0.0
H466 H 0.55798 0.87481 0.80307 0.0
H467 H 0.55324 0.92052 0.79697 0.0
H468 H 0.89318 0.50198 0.16142 0.0
H469 H 0.83656 0.48053 0.16026 0.0
H470 H 0.84659 0.5353 0.20153 0.0
H471 H 0.90327 0.55665 0.20276 0.0
H472 H 0.78446 0.4552 0.18455 0.0
H473 H 0.82585 0.5724 0.15927 0.0
H474 H 0.8497 0.55431 0.16048 0.0
H475 H 0.8441 0.57099 0.17766 0.0
C476 C 0.88291 0.50809 0.17063 0.0
C477 C 0.90177 0.53085 0.18212 0.0
C478 C 0.85088 0.4959 0.16999 0.0
C479 C 0.83813 0.50675 0.18078 0.0
C480 C 0.85656 0.52678 0.19327 0.0
H481 H 0.67032 0.51569 0.17059 0.0
H482 H 0.72045 0.52129 0.17986 0.0
C483 C 0.88861 0.53885 0.19396 0.0
C484 C 0.80749 0.50257 0.17701 0.0
H485 H 0.77167 0.53933 0.16017 0.0
C486 C 0.78139 0.47353 0.17938 0.0
C487 C 0.80444 0.52671 0.16995 0.0
C488 C 0.83244 0.55784 0.16656 0.0
C489 C 0.75155 0.46796 0.17499 0.0
C490 C 0.74845 0.49211 0.16806 0.0
C491 C 0.77462 0.52118 0.16567 0.0
C492 C 0.71812 0.4876 0.16297 0.0
C493 C 0.72362 0.43644 0.17772 0.0
C494 C 0.70108 0.46701 0.15043 0.0
C495 C 0.67248 0.46345 0.14531 0.0
C496 C 0.66113 0.48083 0.15259 0.0
C497 C 0.67846 0.5016 0.16509 0.0
C498 C 0.70696 0.50499 0.17028 0.0
H499 H 0.72959 0.42297 0.18614 0.0
H500 H 0.70435 0.43902 0.18212 0.0
H501 H 0.71499 0.42273 0.16655 0.0
H502 H 0.71006 0.45404 0.14456 0.0
H503 H 0.65936 0.44735 0.13561 0.0
H504 H 0.39471 0.9048 0.53621 0.0
H505 H 0.35169 0.85241 0.54057 0.0
H506 H 0.36064 0.82184 0.49512 0.0
H507 H 0.40386 0.87406 0.4908 0.0
H508 H 0.30263 0.83765 0.518 0.0
H509 H 0.33163 0.74328 0.52059 0.0
H510 H 0.35957 0.78342 0.52647 0.0
H511 H 0.35197 0.77137 0.50622 0.0
C512 C 0.38856 0.88637 0.52754 0.0
C513 C 0.40203 0.89308 0.51313 0.0
C514 C 0.36412 0.85658 0.53007 0.0
C515 C 0.35343 0.83343 0.51826 0.0
C516 C 0.3692 0.83931 0.50452 0.0
H517 H 0.22425 0.71657 0.45843 0.0
H518 H 0.26653 0.74549 0.47806 0.0
C519 C 0.39353 0.86911 0.50196 0.0
C520 C 0.32166 0.80688 0.51815 0.0
H521 H 0.28098 0.72978 0.50767 0.0
C522 C 0.2974 0.81369 0.51645 0.0
C523 C 0.3155 0.77609 0.51589 0.0
C524 C 0.3411 0.76808 0.51752 0.0
C525 C 0.26766 0.79104 0.51058 0.0
C526 C 0.26211 0.76069 0.50714 0.0
C527 C 0.28544 0.75307 0.51058 0.0
C528 C 0.23595 0.73974 0.4964 0.0
C529 C 0.24381 0.80073 0.50622 0.0
C530 C 0.20496 0.72699 0.50037 0.0
C531 C 0.1807 0.71112 0.48901 0.0
C532 C 0.18749 0.70794 0.4737 0.0
C533 C 0.21854 0.71965 0.47003 0.0
C534 C 0.2426 0.73556 0.48128 0.0
H535 H 0.25315 0.82612 0.50839 0.0
H536 H 0.236 0.7951 0.49371 0.0
H537 H 0.22301 0.78762 0.51309 0.0
H538 H 0.19966 0.73008 0.51205 0.0
H539 H 0.15681 0.70193 0.4921 0.0
H540 H 0.5676 0.36777 0.81379 0.0
H541 H 0.57746 0.32502 0.81878 0.0
H542 H 0.58421 0.34382 0.86826 0.0
H543 H 0.57247 0.38541 0.86338 0.0
H544 H 0.61896 0.31238 0.83495 0.0
H545 H 0.50302 0.26011 0.86094 0.0
H546 H 0.51893 0.29607 0.85074 0.0
H547 H 0.53458 0.29549 0.86996 0.0
C548 C 0.57191 0.3632 0.8257 0.0
C549 C 0.56845 0.37908 0.8382 0.0
C550 C 0.57789 0.33911 0.82855 0.0
C551 C 0.58087 0.33112 0.84392 0.0
C552 C 0.58151 0.34959 0.85637 0.0
H553 H 0.55904 0.15014 0.82236 0.0
H554 H 0.57517 0.19244 0.84196 0.0
C555 C 0.57504 0.37342 0.85353 0.0
C556 C 0.57716 0.30032 0.84646 0.0
H557 H 0.51889 0.2262 0.85227 0.0
C558 C 0.59778 0.29344 0.83931 0.0
C559 C 0.54901 0.27601 0.85195 0.0
C560 C 0.52494 0.28206 0.85875 0.0
C561 C 0.58901 0.26261 0.83548 0.0
C562 C 0.55997 0.23835 0.84008 0.0
C563 C 0.54136 0.24512 0.84913 0.0
C564 C 0.54478 0.20811 0.83175 0.0
C565 C 0.60857 0.25662 0.82463 0.0
C566 C 0.52127 0.20236 0.82022 0.0
C567 C 0.51224 0.17862 0.80911 0.0
C568 C 0.52657 0.16046 0.80951 0.0
C569 C 0.5479 0.1642 0.82191 0.0
C570 C 0.55704 0.18812 0.83306 0.0
H571 H 0.62948 0.27854 0.82137 0.0
H572 H 0.61651 0.24146 0.83025 0.0
H573 H 0.59437 0.24431 0.81379 0.0
H574 H 0.51169 0.21777 0.81908 0.0
H575 H 0.49537 0.17556 0.79972 0.0
H576 H 0.51256 0.94471 0.51361 0.0
H577 H 0.51491 0.89706 0.51888 0.0
H578 H 0.61074 0.94376 0.50664 0.0
H579 H 0.60878 0.99138 0.50212 0.0
H580 H 0.51862 0.85504 0.50562 0.0
H581 H 0.62962 0.90687 0.54144 0.0
H582 H 0.61191 0.92972 0.53577 0.0
H583 H 0.63568 0.92346 0.52264 0.0
C584 C 0.53431 0.94508 0.51212 0.0
C585 C 0.56038 0.97286 0.50731 0.0
C586 C 0.53572 0.91732 0.51517 0.0
C587 C 0.56331 0.91557 0.51368 0.0
C588 C 0.5892 0.94335 0.50866 0.0
H589 H 0.61207 0.76288 0.52107 0.0
H590 H 0.61046 0.81054 0.51655 0.0
C591 C 0.58787 0.97108 0.50574 0.0
C592 C 0.56432 0.88479 0.51671 0.0
H593 H 0.60936 0.85455 0.53231 0.0
C594 C 0.53856 0.85538 0.51164 0.0
C595 C 0.59002 0.88352 0.52447 0.0
C596 C 0.6182 0.91252 0.53153 0.0
C597 C 0.53783 0.82623 0.5137 0.0
C598 C 0.5635 0.82497 0.52139 0.0
C599 C 0.58938 0.85434 0.52639 0.0
C600 C 0.56406 0.79402 0.52426 0.0
C601 C 0.50946 0.79699 0.507 0.0
C602 C 0.53892 0.76719 0.53044 0.0
C603 C 0.53948 0.73889 0.5329 0.0
C604 C 0.5655 0.73545 0.52961 0.0
C605 C 0.59094 0.76274 0.52371 0.0
C606 C 0.59023 0.79095 0.52116 0.0
H607 H 0.49721 0.80229 0.49735 0.0
H608 H 0.51576 0.77995 0.50255 0.0
H609 H 0.49276 0.78598 0.51621 0.0
H610 H 0.51852 0.76801 0.53362 0.0
H611 H 0.51894 0.71963 0.5374 0.0
H612 H 0.6478 0.54486 0.86629 0.0
H613 H 0.69847 0.54718 0.87053 0.0
H614 H 0.69997 0.53396 0.82121 0.0
H615 H 0.65052 0.53375 0.81703 0.0
H616 H 0.72304 0.51454 0.86941 0.0
H617 H 0.78645 0.59667 0.82397 0.0
H618 H 0.74837 0.58889 0.82881 0.0
H619 H 0.75241 0.56281 0.81565 0.0
C620 C 0.65891 0.54252 0.85628 0.0
C621 C 0.64414 0.53885 0.84125 0.0
C622 C 0.68842 0.54388 0.85873 0.0
C623 C 0.705 0.54153 0.84629 0.0
C624 C 0.68969 0.53726 0.83127 0.0
H625 H 0.88106 0.53409 0.83679 0.0
H626 H 0.83246 0.53447 0.83353 0.0
C627 C 0.66052 0.53652 0.82882 0.0
C628 C 0.73708 0.54246 0.84914 0.0
H629 H 0.81042 0.56963 0.83512 0.0
C630 C 0.74202 0.52692 0.86185 0.0
C631 C 0.76318 0.55835 0.83963 0.0
C632 C 0.76251 0.57788 0.82637 0.0
C633 C 0.77031 0.52589 0.86493 0.0
C634 C 0.79626 0.5415 0.85532 0.0
C635 C 0.79144 0.55726 0.84268 0.0
C636 C 0.82789 0.54145 0.85783 0.0
C637 C 0.77121 0.5067 0.87828 0.0
C638 C 0.84401 0.54583 0.87261 0.0
C639 C 0.87276 0.54552 0.87465 0.0
C640 C 0.88788 0.54126 0.86202 0.0
C641 C 0.87185 0.53752 0.8472 0.0
C642 C 0.8431 0.53772 0.8452 0.0
H643 H 0.74731 0.4884 0.88105 0.0
H644 H 0.78476 0.4951 0.87571 0.0
H645 H 0.78221 0.52218 0.88882 0.0
H646 H 0.83476 0.55016 0.8828 0.0
H647 H 0.88314 0.54908 0.88636 0.0
H648 H 0.1414 0.64655 0.18991 0.0
H649 H 0.19061 0.6962 0.19442 0.0
H650 H 0.23563 0.6636 0.16436 0.0
H651 H 0.18632 0.61329 0.16008 0.0
H652 H 0.25183 0.71198 0.2072 0.0
H653 H 0.26116 0.75033 0.14648 0.0
H654 H 0.22512 0.7194 0.15339 0.0
H655 H 0.25582 0.71191 0.14893 0.0
C656 C 0.16164 0.64959 0.1842 0.0
C657 C 0.15891 0.62491 0.17452 0.0
C658 C 0.19025 0.6785 0.18685 0.0
C659 C 0.21784 0.68497 0.1797 0.0
C660 C 0.21527 0.66035 0.17002 0.0
H661 H 0.40807 0.85427 0.17436 0.0
H662 H 0.35943 0.80523 0.17076 0.0
C663 C 0.18669 0.63104 0.16761 0.0
C664 C 0.24879 0.71688 0.18252 0.0
H665 H 0.30365 0.78197 0.16416 0.0
C666 C 0.26302 0.72715 0.1977 0.0
C667 C 0.26445 0.73766 0.17044 0.0
C668 C 0.25088 0.72959 0.15388 0.0
C669 C 0.29191 0.75592 0.20098 0.0
C670 C 0.30752 0.77714 0.18891 0.0
C671 C 0.2929 0.76683 0.17372 0.0
C672 C 0.33882 0.80921 0.19154 0.0
C673 C 0.30595 0.76217 0.21747 0.0
C674 C 0.34542 0.83026 0.20434 0.0
C675 C 0.37427 0.85926 0.20661 0.0
C676 C 0.39851 0.86972 0.19608 0.0
C677 C 0.3914 0.8488 0.18308 0.0
C678 C 0.36267 0.81978 0.18089 0.0
H679 H 0.29793 0.74009 0.22375 0.0
H680 H 0.33187 0.77479 0.21785 0.0
H681 H 0.29826 0.7764 0.22384 0.0
H682 H 0.32797 0.82475 0.21266 0.0
H683 H 0.377 0.8736 0.2167 0.0
H684 H 0.61514 0.18151 0.51849 0.0
H685 H 0.61379 0.22975 0.52373 0.0
H686 H 0.52317 0.1891 0.49934 0.0
H687 H 0.52388 0.14083 0.49485 0.0
H688 H 0.61559 0.27539 0.51129 0.0
H689 H 0.49651 0.222 0.53142 0.0
H690 H 0.51438 0.19885 0.52785 0.0
H691 H 0.49538 0.20833 0.51203 0.0
C692 C 0.59471 0.18256 0.51429 0.0
C693 C 0.56962 0.15613 0.50616 0.0
C694 C 0.59389 0.21072 0.51732 0.0
C695 C 0.56791 0.21431 0.51249 0.0
C696 C 0.54325 0.18802 0.50405 0.0
H697 H 0.523 0.36992 0.5146 0.0
H698 H 0.52488 0.32242 0.51011 0.0
C699 C 0.54392 0.15989 0.50117 0.0
C700 C 0.56724 0.24531 0.51574 0.0
H701 H 0.52011 0.27554 0.52538 0.0
C702 C 0.59454 0.27493 0.51452 0.0
C703 C 0.54024 0.24656 0.52002 0.0
C704 C 0.5101 0.21726 0.52307 0.0
C705 C 0.59551 0.3042 0.51693 0.0
C706 C 0.56847 0.30538 0.52101 0.0
C707 C 0.54116 0.27586 0.52223 0.0
C708 C 0.56784 0.33637 0.52393 0.0
C709 C 0.62581 0.33378 0.51449 0.0
C710 C 0.59091 0.36176 0.5335 0.0
C711 C 0.59021 0.39002 0.53602 0.0
C712 C 0.56609 0.39487 0.52935 0.0
C713 C 0.54266 0.369 0.52002 0.0
C714 C 0.54351 0.34085 0.51744 0.0
H715 H 0.64057 0.32948 0.50673 0.0
H716 H 0.62165 0.35203 0.50937 0.0
H717 H 0.63922 0.34281 0.52586 0.0
H718 H 0.60968 0.35979 0.53934 0.0
H719 H 0.60912 0.40809 0.54331 0.0
H720 H 0.44425 0.49935 0.84616 0.0
H721 H 0.39534 0.49836 0.85111 0.0
H722 H 0.43764 0.59538 0.84019 0.0
H723 H 0.48722 0.59676 0.8358 0.0
H724 H 0.38033 0.53476 0.8729 0.0
H725 H 0.35373 0.55431 0.81215 0.0
H726 H 0.38131 0.54145 0.8171 0.0
H727 H 0.39231 0.58162 0.82036 0.0
C728 C 0.44346 0.52068 0.84476 0.0
C729 C 0.47065 0.54814 0.84041 0.0
C730 C 0.41499 0.52008 0.84768 0.0
C731 C 0.41147 0.54663 0.84596 0.0
C732 C 0.43859 0.57413 0.84157 0.0
H733 H 0.24935 0.58075 0.84656 0.0
H734 H 0.29747 0.58076 0.84281 0.0
C735 C 0.46746 0.57499 0.83908 0.0
C736 C 0.37996 0.54547 0.8488 0.0
H737 H 0.32006 0.55305 0.83073 0.0
C738 C 0.3673 0.5388 0.86359 0.0
C739 C 0.36191 0.5507 0.83699 0.0
C740 C 0.37268 0.5572 0.8207 0.0
C741 C 0.33888 0.5383 0.86694 0.0
C742 C 0.32035 0.54302 0.85504 0.0
C743 C 0.33304 0.54935 0.84018 0.0
C744 C 0.28876 0.54233 0.85764 0.0
C745 C 0.33018 0.53421 0.88363 0.0
C746 C 0.26532 0.52046 0.86708 0.0
C747 C 0.23686 0.52044 0.86941 0.0
C748 C 0.22932 0.54193 0.86225 0.0
C749 C 0.25256 0.56332 0.85251 0.0
C750 C 0.28105 0.56343 0.85029 0.0
H751 H 0.35106 0.54192 0.89179 0.0
H752 H 0.31871 0.5477 0.88662 0.0
H753 H 0.31402 0.50907 0.88551 0.0
H754 H 0.26848 0.50256 0.87258 0.0
H755 H 0.22052 0.50281 0.87676 0.0
H756 H 0.95338 0.4708 0.18568 0.0
H757 H 0.90681 0.42127 0.19118 0.0
H758 H 0.94118 0.37172 0.16492 0.0
H759 H 0.98905 0.42068 0.16129 0.0
H760 H 0.85942 0.38016 0.18209 0.0
H761 H 0.91126 0.30506 0.19124 0.0
H762 H 0.93569 0.34655 0.18978 0.0
H763 H 0.91915 0.32134 0.17245 0.0
C764 C 0.95126 0.4493 0.18121 0.0
C765 C 0.9759 0.45069 0.17298 0.0
C766 C 0.924 0.42026 0.18434 0.0
C767 C 0.91902 0.39065 0.17905 0.0
C768 C 0.94343 0.39252 0.17028 0.0
H769 H 0.75545 0.19364 0.17703 0.0
H770 H 0.80293 0.2423 0.17291 0.0
C771 C 0.97124 0.42137 0.16776 0.0
C772 C 0.88831 0.35901 0.18219 0.0
H773 H 0.85649 0.27929 0.18749 0.0
C774 C 0.85959 0.35852 0.1835 0.0
C775 C 0.88626 0.32912 0.18406 0.0
C776 C 0.91477 0.32555 0.18447 0.0
C777 C 0.83053 0.33086 0.18627 0.0
C778 C 0.82849 0.30114 0.18777 0.0
C779 C 0.85692 0.30131 0.18634 0.0
C780 C 0.79763 0.26999 0.19063 0.0
C781 C 0.80194 0.33404 0.18714 0.0
C782 C 0.77718 0.26719 0.20225 0.0
C783 C 0.74889 0.23864 0.20465 0.0
C784 C 0.73913 0.21058 0.19574 0.0
C785 C 0.7602 0.21348 0.18433 0.0
C786 C 0.78837 0.24207 0.1819 0.0
H787 H 0.80469 0.355 0.1811 0.0
H788 H 0.78072 0.31316 0.18193 0.0
H789 H 0.79836 0.33679 0.19952 0.0
H790 H 0.78318 0.28718 0.20978 0.0
H791 H 0.73481 0.23906 0.21368 0.0
H792 H 0.0882 0.50798 0.11607 0.0
H793 H 0.08874 0.50771 0.08758 0.0
H794 H 1.04014 0.55963 0.08554 0.0
H795 H 1.04105 0.56132 0.11394 0.0
H796 H 0.04589 0.48446 0.06461 0.0
H797 H 0.10781 0.61253 0.05859 0.0
H798 H 0.10424 0.59499 0.07723 0.0
H799 H 0.07266 0.59913 0.0685 0.0
C800 C 0.07776 0.51948 0.10954 0.0
C801 C 0.06487 0.53497 0.11738 0.0
C802 C 0.07806 0.51931 0.09319 0.0
C803 C 0.0652 0.53435 0.08417 0.0
C804 C 0.05138 0.54888 0.09203 0.0
H805 H 1.03564 0.55659 0.98505 0.0
H806 H 1.03629 0.5552 0.01342 0.0
C807 C 0.05165 0.54961 0.10836 0.0
C808 C 0.06569 0.53433 0.06664 0.0
H809 H 0.08396 0.58171 0.03529 0.0
C810 C 0.05447 0.50582 0.05826 0.0
C811 C 0.07692 0.56207 0.05809 0.0
C812 C 0.09138 0.59391 0.06608 0.0
C813 C 0.05331 0.50417 0.04181 0.0
C814 C 0.06404 0.53187 0.03329 0.0
C815 C 0.0755 0.56037 0.04167 0.0
C816 C 0.0633 0.53191 0.01574 0.0
C817 C 1.03968 0.47253 0.03373 0.0
C818 C 0.07853 0.51962 0.0073 0.0
C819 C 0.07795 0.52012 0.99094 0.0
C820 C 0.06231 0.53314 0.98244 0.0
C821 C 0.04743 0.54578 0.99098 0.0
C822 C 0.048 0.54524 0.00732 0.0
H823 H 1.02461 0.45339 0.04137 0.0
H824 H 1.02566 0.47092 0.02291 0.0
H825 H 0.059 0.46875 0.03058 0.0
H826 H 0.09119 0.50985 0.01337 0.0
H827 H 0.08957 0.50995 0.98495 0.0
H828 H 0.62197 0.09867 0.45163 0.0
H829 H 0.62328 0.09744 0.42311 0.0
H830 H 0.52358 0.03497 0.41909 0.0
H831 H 0.52196 0.03685 0.4472 0.0
H832 H 0.60948 0.05266 0.40187 0.0
H833 H 0.5278 0.09597 0.38844 0.0
H834 H 0.54306 0.09673 0.408 0.0
H835 H 0.51015 0.06141 0.39955 0.0
C836 C 0.60027 0.08498 0.44466 0.0
C837 C 0.57184 0.06819 0.45191 0.0
C838 C 0.60103 0.08418 0.42828 0.0
C839 C 0.5734 0.06673 0.41866 0.0
C840 C 0.54519 0.04954 0.42596 0.0
H841 H 0.52404 1.02252 0.31857 0.0
H842 H 0.52497 1.0255 0.34699 0.0
C843 C 0.54438 0.05045 0.44223 0.0
C844 C 0.57397 0.06562 0.40111 0.0
H845 H 0.53925 0.07332 0.36712 0.0
C846 C 0.5943 0.05751 0.39432 0.0
C847 C 0.55411 0.07168 0.39099 0.0
C848 C 0.5328 0.08223 0.39712 0.0
C849 C 0.59483 0.05463 0.37799 0.0
C850 C 0.57484 0.06049 0.3679 0.0
C851 C 0.55457 0.06866 0.37468 0.0
C852 C 0.57457 0.05839 0.35037 0.0
C853 C 0.61627 0.04436 0.37175 0.0
C854 C 0.60197 0.07608 0.34246 0.0
C855 C 0.60156 0.07425 0.32611 0.0
C856 C 0.57366 0.05481 0.31704 0.0
C857 C 0.54616 0.03736 0.32499 0.0
C858 C 0.5466 0.03923 0.34135 0.0
H859 H 0.62262 0.03184 0.38058 0.0
H860 H 0.60535 1.02884 0.36122 0.0
H861 H 0.63819 0.06527 0.36858 0.0
H862 H 0.62381 0.09166 0.34892 0.0
H863 H 0.62334 0.08794 0.32061 0.0
H864 H 0.54526 0.58821 0.78447 0.0
H865 H 0.54469 0.58996 0.75594 0.0
H866 H 0.57571 0.5227 0.75482 0.0
H867 H 0.57398 0.51926 0.78299 0.0
H868 H 0.58262 0.60686 0.73507 0.0
H869 H 0.50948 0.48002 0.72274 0.0
H870 H 0.51573 0.49648 0.74214 0.0
H871 H 0.54398 0.48817 0.73427 0.0
C872 C 0.55167 0.57358 0.77811 0.0
C873 C 0.55918 0.55323 0.78616 0.0
C874 C 0.5514 0.57459 0.76168 0.0
C875 C 0.55911 0.55565 0.75276 0.0
C876 C 0.56804 0.53647 0.76098 0.0
H877 H 0.58991 0.53997 0.6542 0.0
H878 H 0.58855 0.5386 0.68252 0.0
C879 C 0.56746 0.53481 0.77728 0.0
C880 C 0.55869 0.55656 0.73507 0.0
H881 H 0.53713 0.51059 0.70155 0.0
C882 C 0.5723 0.58565 0.72784 0.0
C883 C 0.54522 0.52913 0.7252 0.0
C884 C 0.5275 0.49675 0.7315 0.0
C885 C 0.57351 0.58809 0.71145 0.0
C886 C 0.56087 0.56073 0.70172 0.0
C887 C 0.54717 0.53168 0.70887 0.0
C888 C 0.5615 0.56166 0.68417 0.0
C889 C 0.58897 0.62014 0.70471 0.0
C890 C 0.54632 0.57458 0.6753 0.0
C891 C 0.54659 0.57498 0.65893 0.0
C892 C 0.56216 0.56253 0.65076 0.0
C893 C 0.5772 0.54944 0.65974 0.0
C894 C 0.57667 0.54883 0.67611 0.0
H895 H 0.60423 0.63863 0.71359 0.0
H896 H 0.6032 0.62133 0.69493 0.0
H897 H 0.57067 0.62524 0.70017 0.0
H898 H 0.53374 0.58401 0.68102 0.0
H899 H 0.534 0.58464 0.65269 0.0
H900 H 0.54013 0.09174 0.5509 0.0
H901 H 0.5384 0.0905 0.57921 0.0
H902 H 0.57624 1.02863 0.58051 0.0
H903 H 0.57936 1.03098 0.55228 0.0
H904 H 0.50469 0.04176 0.5957 0.0
H905 H 0.62926 0.08928 0.61493 0.0
H906 H 0.617 0.09171 0.59513 0.0
H907 H 0.61515 0.05632 0.6017 0.0
C908 C 0.54833 0.07812 0.55726 0.0
C909 C 0.55977 0.06137 0.54947 0.0
C910 C 0.54744 0.07751 0.57341 0.0
C911 C 0.55765 0.05988 0.58198 0.0
C912 C 0.56913 0.04315 0.57419 0.0
H913 H 0.51027 0.97578 0.66954 0.0
H914 H 0.51897 0.98963 0.64231 0.0
C915 C 0.5706 0.04424 0.55806 0.0
C916 C 0.55382 0.05697 0.59889 0.0
H917 H 0.5918 0.062 0.63397 0.0
C918 C 0.52387 0.04664 0.60407 0.0
C919 C 0.57891 0.06345 0.60981 0.0
C920 C 0.61193 0.07611 0.60512 0.0
C921 C 0.51813 0.04166 0.61982 0.0
C922 C 0.54287 0.04687 0.63054 0.0
C923 C 0.57297 0.058 0.62555 0.0
C924 C 0.53739 0.03898 0.64688 0.0
C925 C 0.48565 1.03042 0.62497 0.0
C926 C 0.54496 0.06236 0.65825 0.0
C927 C 0.54018 0.05459 0.67381 0.0
C928 C 0.52796 1.02336 0.6781 0.0
C929 C 0.52019 1.00006 0.66657 0.0
C930 C 0.52493 1.00785 0.65106 0.0
H931 H 0.46969 1.03047 0.61542 0.0
H932 H 0.47574 1.00627 0.62915 0.0
H933 H 0.48661 0.04545 0.63483 0.0
H934 H 0.55461 0.08651 0.65509 0.0
H935 H 0.54656 0.07303 0.68248 0.0
H936 H 0.52293 0.48753 0.8833 0.0
H937 H 0.52297 0.48438 0.91166 0.0
H938 H 0.59194 0.58241 0.91645 0.0
H939 H 0.5923 0.58576 0.88799 0.0
H940 H 0.59975 0.52946 0.93438 0.0
H941 H 0.49098 0.53437 0.94119 0.0
H942 H 0.49275 0.51309 0.92461 0.0
H943 H 0.51723 0.55474 0.9261 0.0
C944 C 0.53798 0.50843 0.8904 0.0
C945 C 0.55755 0.53689 0.88355 0.0
C946 C 0.53797 0.50658 0.90652 0.0
C947 C 0.55721 0.53324 0.91596 0.0
C948 C 0.57694 0.5617 0.90921 0.0
H949 H 0.55565 0.54389 0.01681 0.0
H950 H 0.55485 0.55498 0.98911 0.0
C951 C 0.57719 0.56351 0.89305 0.0
C952 C 0.55699 0.53087 0.93291 0.0
H953 H 0.51237 0.52198 0.96335 0.0
C954 C 0.58089 0.52813 0.94079 0.0
C955 C 0.53238 0.5294 0.94107 0.0
C956 C 0.50682 0.53317 0.93291 0.0
C957 C 0.58028 0.5229 0.95675 0.0
C958 C 0.55483 0.51992 0.96481 0.0
C959 C 0.53157 0.52392 0.95702 0.0
C960 C 0.55178 0.51188 0.98127 0.0
C961 C 0.60673 0.52042 0.96482 0.0
C962 C 0.54897 0.48346 0.98581 0.0
C963 C 0.54959 0.47719 1.0015 0.0
C964 C 0.55264 0.49912 0.01282 0.0
C965 C 0.55338 0.52669 0.00823 0.0
C966 C 0.55299 0.53306 0.9925 0.0
H967 H 0.62807 0.53159 0.95814 0.0
H968 H 0.61265 0.53144 0.97669 0.0
H969 H 0.59953 0.49538 0.96589 0.0
H970 H 0.54718 0.46653 0.97721 0.0
H971 H 0.54831 0.45549 0.00482 0.0
H972 H 0.11416 0.54864 0.2193 0.0
H973 H 0.11455 0.55099 0.24781 0.0
H974 H 1.01935 0.53179 0.2445 0.0
H975 H 1.01865 0.52942 0.21619 0.0
H976 H 0.10115 0.59199 0.26659 0.0
H977 H 1.01929 0.46588 0.27443 0.0
H978 H 1.03965 0.48054 0.25688 0.0
H979 H 1.0054 0.48306 0.26009 0.0
C980 C 0.09326 0.54473 0.22467 0.0
C981 C 0.06635 0.53878 0.21552 0.0
C982 C 0.09358 0.54616 0.24091 0.0
C983 C 0.06687 0.54121 0.24817 0.0
C984 C 1.04003 0.53525 0.23907 0.0
H985 H 0.99589 0.54054 0.33525 0.0
H986 H 1.00805 0.54071 0.30812 0.0
C987 C 1.03975 0.53405 0.2229 0.0
C988 C 0.06684 0.54291 0.26527 0.0
H989 H 1.02794 0.50044 0.2959 0.0
C990 C 0.08557 0.57194 0.2731 0.0
C991 C 0.04648 0.51663 0.27362 0.0
C992 C 1.02675 0.48468 0.26587 0.0
C993 C 0.08315 0.5757 0.28903 0.0
C994 C 0.0618 0.54963 0.2972 0.0
C995 C 1.04411 0.52038 0.2895 0.0
C996 C 0.0559 0.55229 0.31355 0.0
C997 C 0.10224 0.60768 0.29684 0.0
C998 C 0.07897 0.55907 0.32549 0.0
C999 C 0.07204 0.55887 0.34099 0.0
C1000 C 1.04187 0.55162 0.3447 0.0
C1001 C 1.01913 0.54564 0.33269 0.0
C1002 C 1.02609 0.54591 0.31723 0.0
H1003 H 0.11335 0.62633 0.28829 0.0
H1004 H 0.08741 0.61302 0.30402 0.0
H1005 H 0.12098 0.60817 0.3047 0.0
H1006 H 0.10197 0.5636 0.32283 0.0
H1007 H 0.08992 0.56335 0.35007 0.0
loop_
_geom_bond_atom_site_label_1
_geom_bond_atom_site_label_2
_geom_bond_distance
_geom_bond_site_symmetry_2
_ccdc_geom_bond_type
Tb0 C10 2.825 . S
Tb0 O11 2.347 . S
Tb0 O14 2.366 . S
Tb0 O19 2.418 . S
Tb0 O20 2.384 1_455 S
Tb0 O23 2.479 . S
Tb0 O24 2.471 . S
Eu1 O12 2.410 1_655 S
Eu1 O13 2.363 1_655 S
Eu1 O16 2.503 . S
Eu1 O17 2.493 . S
Eu1 O18 2.335 1_655 S
Eu1 O21 2.370 . S
Eu1 C31 2.851 . S
C2 O18 1.259 . S
C2 O19 1.265 . S
C3 O20 1.255 . S
C3 O21 1.265 . S
C4 C6 1.380 . S
C4 C7 1.374 . S
C4 C10 1.507 . S
C5 C6 1.384 . S
C5 C9 1.387 . S
C5 H32 0.930 . S
C6 C4 1.380 . S
C6 C5 1.384 . S
C6 H33 0.931 . S
C7 C4 1.374 . S
C7 C8 1.390 . S
C7 H34 0.930 . S
C8 C7 1.390 . S
C8 C9 1.391 . S
C8 H35 0.930 . S
C9 C5 1.387 . S
C9 C8 1.391 . S
C10 Tb0 2.825 . S
C10 C4 1.507 . S
C10 O23 1.238 . S
C10 O24 1.247 . S
O11 Tb0 2.347 . S
O11 C15 1.259 . S
O12 Eu1 2.410 1_455 S
O12 C15 1.276 . S
O13 Eu1 2.363 1_455 S
O13 C22 1.255 . S
O14 Tb0 2.366 . S
O14 C22 1.265 . S
C15 O11 1.259 . S
C15 O12 1.276 . S
O16 Eu1 2.503 . S
O16 C31 1.238 . S
O17 Eu1 2.493 . S
O17 C31 1.247 . S
O18 Eu1 2.335 1_455 S
O18 C2 1.259 . S
O19 Tb0 2.418 . S
O19 C2 1.265 . S
O20 Tb0 2.384 1_655 S
O20 C3 1.255 . S
O21 Eu1 2.370 . S
O21 C3 1.265 . S
C22 O13 1.255 . S
C22 O14 1.265 . S
O23 Tb0 2.479 . S
O23 C10 1.238 . S
O24 Tb0 2.471 . S
O24 C10 1.247 . S
C25 C28 1.380 . S
C25 C29 1.374 . S
C25 C31 1.507 . S
C26 C27 1.387 . S
C26 C30 1.391 . S
C27 C26 1.387 . S
C27 C28 1.384 . S
C27 H36 0.930 . S
C28 C25 1.380 . S
C28 C27 1.384 . S
C28 H37 0.931 . S
C29 C25 1.374 . S
C29 C30 1.390 . S
C29 H38 0.930 . S
C30 C26 1.391 . S
C30 C29 1.390 . S
C30 H39 0.930 . S
C31 Eu1 2.851 . S
C31 O16 1.238 . S
C31 O17 1.247 . S
C31 C25 1.507 . S
H32 C5 0.930 . S
H33 C6 0.931 . S
H34 C7 0.930 . S
H35 C8 0.930 . S
H36 C27 0.930 . S
H37 C28 0.931 . S
H38 C29 0.930 . S
H39 C30 0.930 . S
Tb40 C50 2.825 . S
Tb40 O51 2.347 . S
Tb40 O54 2.366 . S
Tb40 O59 2.418 . S
Tb40 O60 2.384 . S
Tb40 O63 2.479 . S
Tb40 O64 2.471 . S
Eu41 O52 2.418 . S
Eu41 O53 2.384 . S
Eu41 O56 2.479 1_545 S
Eu41 O57 2.471 1_545 S
Eu41 O58 2.347 . S
Eu41 O61 2.366 1_545 S
Eu41 C71 2.825 1_545 S
C42 O58 1.259 . S
C42 O59 1.265 . S
C43 O60 1.255 1_565 S
C43 O61 1.265 . S
C44 C46 1.380 . S
C44 C47 1.374 . S
C44 C50 1.507 . S
C45 C46 1.384 . S
C45 C49 1.387 . S
C45 H72 0.930 . S
C46 C44 1.380 . S
C46 C45 1.384 . S
C46 H73 0.931 . S
C47 C44 1.374 . S
C47 C48 1.390 . S
C47 H74 0.930 . S
C48 C47 1.390 . S
C48 C49 1.391 . S
C48 H75 0.930 . S
C49 C45 1.387 . S
C49 C48 1.391 . S
C50 Tb40 2.825 . S
C50 C44 1.507 . S
C50 O63 1.238 . S
C50 O64 1.247 . S
O51 Tb40 2.347 . S
O51 C55 1.259 . S
O52 Eu41 2.418 . S
O52 C55 1.265 . S
O53 Eu41 2.384 . S
O53 C62 1.255 . S
O54 Tb40 2.366 . S
O54 C62 1.265 . S
C55 O51 1.259 . S
C55 O52 1.265 . S
O56 Eu41 2.479 1_565 S
O56 C71 1.238 . S
O57 Eu41 2.471 1_565 S
O57 C71 1.247 . S
O58 Eu41 2.347 . S
O58 C42 1.259 . S
O59 Tb40 2.418 . S
O59 C42 1.265 . S
O60 Tb40 2.384 . S
O60 C43 1.255 1_545 S
O61 Eu41 2.366 1_565 S
O61 C43 1.265 . S
C62 O53 1.255 . S
C62 O54 1.265 . S
O63 Tb40 2.479 . S
O63 C50 1.238 . S
O64 Tb40 2.471 . S
O64 C50 1.247 . S
C65 C68 1.380 . S
C65 C69 1.374 . S
C65 C71 1.507 . S
C66 C67 1.387 . S
C66 C70 1.391 . S
C67 C66 1.387 . S
C67 C68 1.384 . S
C67 H76 0.930 . S
C68 C65 1.380 . S
C68 C67 1.384 . S
C68 H77 0.931 . S
C69 C65 1.374 . S
C69 C70 1.390 . S
C69 H78 0.930 . S
C70 C66 1.391 . S
C70 C69 1.390 . S
C70 H79 0.930 . S
C71 Eu41 2.825 1_565 S
C71 O56 1.238 . S
C71 O57 1.247 . S
C71 C65 1.507 . S
H72 C45 0.930 . S
H73 C46 0.931 . S
H74 C47 0.930 . S
H75 C48 0.930 . S
H76 C67 0.930 . S
H77 C68 0.931 . S
H78 C69 0.930 . S
H79 C70 0.930 . S
Tb80 C90 2.825 . S
Tb80 O91 2.347 . S
Tb80 O94 2.366 . S
Tb80 O99 2.418 . S
Tb80 O100 2.384 . S
Tb80 O103 2.479 . S
Tb80 O104 2.471 . S
Eu81 O92 2.418 . S
Eu81 O93 2.384 . S
Eu81 O96 2.479 . S
Eu81 O97 2.471 . S
Eu81 O98 2.347 . S
Eu81 O101 2.366 . S
Eu81 C111 2.825 . S
C82 O98 1.259 . S
C82 O99 1.265 . S
C83 O100 1.255 . S
C83 O101 1.265 . S
C84 C86 1.380 . S
C84 C87 1.374 . S
C84 C90 1.507 . S
C85 C86 1.384 . S
C85 C89 1.387 . S
C85 H112 0.930 . S
C86 C84 1.380 . S
C86 C85 1.384 . S
C86 H113 0.931 . S
C87 C84 1.374 . S
C87 C88 1.390 . S
C87 H114 0.930 . S
C88 C87 1.390 . S
C88 C89 1.391 . S
C88 H115 0.930 . S
C89 C85 1.387 . S
C89 C88 1.391 . S
C90 Tb80 2.825 . S
C90 C84 1.507 . S
C90 O103 1.238 . S
C90 O104 1.247 . S
O91 Tb80 2.347 . S
O91 C95 1.259 . S
O92 Eu81 2.418 . S
O92 C95 1.265 . S
O93 Eu81 2.384 . S
O93 C102 1.255 . S
O94 Tb80 2.366 . S
O94 C102 1.265 . S
C95 O91 1.259 . S
C95 O92 1.265 . S
O96 Eu81 2.479 . S
O96 C111 1.238 . S
O97 Eu81 2.471 . S
O97 C111 1.247 . S
O98 Eu81 2.347 . S
O98 C82 1.259 . S
O99 Tb80 2.418 . S
O99 C82 1.265 . S
O100 Tb80 2.384 . S
O100 C83 1.255 . S
O101 Eu81 2.366 . S
O101 C83 1.265 . S
C102 O93 1.255 . S
C102 O94 1.265 . S
O103 Tb80 2.479 . S
O103 C90 1.238 . S
O104 Tb80 2.471 . S
O104 C90 1.247 . S
C105 C108 1.380 . S
C105 C109 1.374 . S
C105 C111 1.507 . S
C106 C107 1.387 . S
C106 C110 1.391 . S
C107 C106 1.387 . S
C107 C108 1.384 . S
C107 H116 0.930 . S
C108 C105 1.380 . S
C108 C107 1.384 . S
C108 H117 0.931 . S
C109 C105 1.374 . S
C109 C110 1.390 . S
C109 H118 0.930 . S
C110 C106 1.391 . S
C110 C109 1.390 . S
C110 H119 0.930 . S
C111 Eu81 2.825 . S
C111 O96 1.238 . S
C111 O97 1.247 . S
C111 C105 1.507 . S
H112 C85 0.930 . S
H113 C86 0.931 . S
H114 C87 0.930 . S
H115 C88 0.930 . S
H116 C107 0.930 . S
H117 C108 0.931 . S
H118 C109 0.930 . S
H119 C110 0.930 . S
C120 C121 1.264 . S
C120 C125 1.479 . S
C120 C130 1.465 . S
C121 C120 1.264 . S
C121 C123 1.339 . S
C121 H148 0.931 . S
C122 C123 1.395 . S
C122 C124 1.320 . S
C123 C121 1.339 . S
C123 C122 1.395 . S
C123 H149 0.929 . S
C124 C122 1.320 . S
C124 C125 1.405 . S
C124 H150 0.930 . S
C125 C120 1.479 . S
C125 C124 1.405 . S
C125 H151 0.931 . S
U126 O127 2.454 1_545 S
U126 O128 2.458 1_545 S
U126 C129 2.984 1_545 S
U126 C130 2.847 . S
U126 C143 2.882 . S
U126 O144 2.441 . S
U126 O145 2.420 . S
U126 O146 2.455 . S
U126 O147 2.449 . S
O127 U126 2.454 1_565 S
O127 C129 1.353 . S
O128 U126 2.458 1_565 S
O128 C129 1.286 . S
C129 U126 2.984 1_565 S
C129 O127 1.353 . S
C129 O128 1.286 . S
C129 C131 1.363 . S
C130 C120 1.465 . S
C130 U126 2.847 . S
C130 O144 1.249 . S
C130 O145 1.202 . S
C131 C129 1.363 . S
C131 C133 1.408 . S
C131 C136 1.342 . S
C132 C133 1.310 . S
C132 C135 1.461 . S
C132 H152 0.932 . S
C133 C131 1.408 . S
C133 C132 1.310 . S
C133 H153 0.930 . S
C134 C135 1.474 . S
C134 C136 1.285 . S
C134 H154 0.929 . S
C135 C132 1.461 . S
C135 C134 1.474 . S
C136 C131 1.342 . S
C136 C134 1.285 . S
C136 H155 0.930 . S
C137 C140 1.424 . S
C137 C142 1.245 . S
C137 C143 1.428 . S
C138 C141 1.260 . S
C138 C142 1.477 . S
C138 H156 0.932 1_545 S
C139 C140 1.384 . S
C139 C141 1.479 . S
C139 H157 0.929 . S
C140 C137 1.424 . S
C140 C139 1.384 . S
C140 H158 0.928 . S
C141 C138 1.260 . S
C141 C139 1.479 . S
C142 C137 1.245 . S
C142 C138 1.477 . S
C142 H159 0.932 1_545 S
C143 U126 2.882 . S
C143 C137 1.428 . S
C143 O146 1.301 . S
C143 O147 1.282 . S
O144 U126 2.441 . S
O144 C130 1.249 . S
O145 U126 2.420 . S
O145 C130 1.202 . S
O146 U126 2.455 . S
O146 C143 1.301 . S
O147 U126 2.449 . S
O147 C143 1.282 . S
H148 C121 0.931 . S
H149 C123 0.929 . S
H150 C124 0.930 . S
H151 C125 0.931 . S
H152 C132 0.932 . S
H153 C133 0.930 . S
H154 C134 0.929 . S
H155 C136 0.930 . S
H156 C138 0.932 1_565 S
H157 C139 0.929 . S
H158 C140 0.928 . S
H159 C142 0.932 1_565 S
C160 C161 1.264 . S
C160 C165 1.479 . S
C160 C170 1.465 . S
C161 C160 1.264 . S
C161 C163 1.339 . S
C161 H188 0.931 . S
C162 C163 1.395 . S
C162 C164 1.320 . S
C163 C161 1.339 . S
C163 C162 1.395 . S
C163 H189 0.929 . S
C164 C162 1.320 . S
C164 C165 1.405 . S
C164 H190 0.930 . S
C165 C160 1.479 . S
C165 C164 1.405 . S
C165 H191 0.931 . S
U166 O167 2.454 . S
U166 O168 2.458 . S
U166 C169 2.984 . S
U166 C170 2.847 . S
U166 C183 2.882 . S
U166 O184 2.441 . S
U166 O185 2.420 . S
U166 O186 2.455 . S
U166 O187 2.449 . S
O167 U166 2.454 . S
O167 C169 1.353 . S
O168 U166 2.458 . S
O168 C169 1.286 . S
C169 U166 2.984 . S
C169 O167 1.353 . S
C169 O168 1.286 . S
C169 C171 1.363 . S
C170 C160 1.465 . S
C170 U166 2.847 . S
C170 O184 1.249 . S
C170 O185 1.202 . S
C171 C169 1.363 . S
C171 C173 1.408 . S
C171 C176 1.342 . S
C172 C173 1.310 . S
C172 C175 1.461 . S
C172 H192 0.932 . S
C173 C171 1.408 . S
C173 C172 1.310 . S
C173 H193 0.930 . S
C174 C175 1.474 . S
C174 C176 1.285 . S
C174 H194 0.929 . S
C175 C172 1.461 . S
C175 C174 1.474 . S
C176 C171 1.342 . S
C176 C174 1.285 . S
C176 H195 0.930 . S
C177 C180 1.424 . S
C177 C182 1.245 . S
C177 C183 1.428 . S
C178 C181 1.260 . S
C178 C182 1.477 . S
C178 H196 0.932 . S
C179 C180 1.384 . S
C179 C181 1.479 . S
C179 H197 0.929 . S
C180 C177 1.424 . S
C180 C179 1.384 . S
C180 H198 0.928 . S
C181 C178 1.260 . S
C181 C179 1.479 . S
C182 C177 1.245 . S
C182 C178 1.477 . S
C182 H199 0.932 . S
C183 U166 2.882 . S
C183 C177 1.428 . S
C183 O186 1.301 . S
C183 O187 1.282 . S
O184 U166 2.441 . S
O184 C170 1.249 . S
O185 U166 2.420 . S
O185 C170 1.202 . S
O186 U166 2.455 . S
O186 C183 1.301 . S
O187 U166 2.449 . S
O187 C183 1.282 . S
H188 C161 0.931 . S
H189 C163 0.929 . S
H190 C164 0.930 . S
H191 C165 0.931 . S
H192 C172 0.932 . S
H193 C173 0.930 . S
H194 C174 0.929 . S
H195 C176 0.930 . S
H196 C178 0.932 . S
H197 C179 0.929 . S
H198 C180 0.928 . S
H199 C182 0.932 . S
C200 C201 1.264 . S
C200 C205 1.479 . S
C200 C210 1.465 . S
C201 C200 1.264 . S
C201 C203 1.339 . S
C201 H228 0.931 . S
C202 C203 1.395 . S
C202 C204 1.320 . S
C203 C201 1.339 . S
C203 C202 1.395 . S
C203 H229 0.929 . S
C204 C202 1.320 . S
C204 C205 1.405 . S
C204 H230 0.930 . S
C205 C200 1.479 . S
C205 C204 1.405 . S
C205 H231 0.931 . S
U206 O207 2.454 . S
U206 O208 2.458 . S
U206 C209 2.984 . S
U206 C210 2.847 1_455 S
U206 C223 2.882 . S
U206 O224 2.441 1_455 S
U206 O225 2.420 1_455 S
U206 O226 2.455 . S
U206 O227 2.449 1_455 S
O207 U206 2.454 . S
O207 C209 1.353 . S
O208 U206 2.458 . S
O208 C209 1.286 . S
C209 U206 2.984 . S
C209 O207 1.353 . S
C209 O208 1.286 . S
C209 C211 1.363 . S
C210 C200 1.465 . S
C210 U206 2.847 1_655 S
C210 O224 1.249 . S
C210 O225 1.202 . S
C211 C209 1.363 . S
C211 C213 1.408 . S
C211 C216 1.342 . S
C212 C213 1.310 . S
C212 C215 1.461 . S
C212 H232 0.932 . S
C213 C211 1.408 . S
C213 C212 1.310 . S
C213 H233 0.930 . S
C214 C215 1.474 . S
C214 C216 1.285 . S
C214 H234 0.929 . S
C215 C212 1.461 . S
C215 C214 1.474 . S
C216 C211 1.342 . S
C216 C214 1.285 . S
C216 H235 0.930 . S
C217 C220 1.424 1_455 S
C217 C222 1.245 . S
C217 C223 1.428 . S
C218 C221 1.260 . S
C218 C222 1.477 . S
C218 H236 0.932 . S
C219 C220 1.384 . S
C219 C221 1.479 1_655 S
C219 H237 0.929 . S
C220 C217 1.424 1_655 S
C220 C219 1.384 . S
C220 H238 0.928 . S
C221 C218 1.260 . S
C221 C219 1.479 1_455 S
C222 C217 1.245 . S
C222 C218 1.477 . S
C222 H239 0.932 . S
C223 U206 2.882 . S
C223 C217 1.428 . S
C223 O226 1.301 . S
C223 O227 1.282 1_455 S
O224 U206 2.441 1_655 S
O224 C210 1.249 . S
O225 U206 2.420 1_655 S
O225 C210 1.202 . S
O226 U206 2.455 . S
O226 C223 1.301 . S
O227 U206 2.449 1_655 S
O227 C223 1.282 1_655 S
H228 C201 0.931 . S
H229 C203 0.929 . S
H230 C204 0.930 . S
H231 C205 0.931 . S
H232 C212 0.932 . S
H233 C213 0.930 . S
H234 C214 0.929 . S
H235 C216 0.930 . S
H236 C218 0.932 . S
H237 C219 0.929 . S
H238 C220 0.928 . S
H239 C222 0.932 . S
C240 C241 1.264 . S
C240 C245 1.479 . S
C240 C250 1.465 . S
C241 C240 1.264 . S
C241 C243 1.339 . S
C241 H268 0.931 . S
C242 C243 1.395 . S
C242 C244 1.320 . S
C243 C241 1.339 . S
C243 C242 1.395 . S
C243 H269 0.929 . S
C244 C242 1.320 . S
C244 C245 1.405 . S
C244 H270 0.930 . S
C245 C240 1.479 . S
C245 C244 1.405 . S
C245 H271 0.931 . S
U246 O247 2.454 1_655 S
U246 O248 2.458 1_655 S
U246 C249 2.984 1_655 S
U246 C250 2.847 . S
U246 C263 2.882 . S
U246 O264 2.441 . S
U246 O265 2.420 . S
U246 O266 2.455 1_655 S
U246 O267 2.449 . S
O247 U246 2.454 1_455 S
O247 C249 1.353 . S
O248 U246 2.458 1_455 S
O248 C249 1.286 . S
C249 U246 2.984 1_455 S
C249 O247 1.353 . S
C249 O248 1.286 . S
C249 C251 1.363 . S
C250 C240 1.465 . S
C250 U246 2.847 . S
C250 O264 1.249 . S
C250 O265 1.202 . S
C251 C249 1.363 . S
C251 C253 1.408 . S
C251 C256 1.342 . S
C252 C253 1.310 . S
C252 C255 1.461 . S
C252 H272 0.932 . S
C253 C251 1.408 . S
C253 C252 1.310 . S
C253 H273 0.930 . S
C254 C255 1.474 . S
C254 C256 1.285 . S
C254 H274 0.929 . S
C255 C252 1.461 . S
C255 C254 1.474 . S
C256 C251 1.342 . S
C256 C254 1.285 . S
C256 H275 0.930 . S
C257 C260 1.424 . S
C257 C262 1.245 1_655 S
C257 C263 1.428 . S
C258 C261 1.263 . S
C258 C262 1.477 . S
C258 H276 0.932 . S
C259 C260 1.384 . S
C259 C261 1.470 1_655 S
C259 H277 0.929 . S
C260 C257 1.424 . S
C260 C259 1.384 . S
C260 H278 0.928 . S
C261 C258 1.263 . S
C261 C259 1.470 1_455 S
C262 C257 1.245 1_455 S
C262 C258 1.477 . S
C262 H279 0.932 . S
C263 U246 2.882 . S
C263 C257 1.428 . S
C263 O266 1.301 1_655 S
C263 O267 1.282 . S
O264 U246 2.441 . S
O264 C250 1.249 . S
O265 U246 2.420 . S
O265 C250 1.202 . S
O266 U246 2.455 1_455 S
O266 C263 1.301 1_455 S
O267 U246 2.449 . S
O267 C263 1.282 . S
H268 C241 0.931 . S
H269 C243 0.929 . S
H270 C244 0.930 . S
H271 C245 0.931 . S
H272 C252 0.932 . S
H273 C253 0.930 . S
H274 C254 0.929 . S
H275 C256 0.930 . S
H276 C258 0.932 . S
H277 C259 0.929 . S
H278 C260 0.928 . S
H279 C262 0.932 . S
C280 C281 1.264 . S
C280 C285 1.479 . S
C280 C290 1.465 . S
C281 C280 1.264 . S
C281 C283 1.339 . S
C281 H308 0.931 . S
C282 C283 1.395 . S
C282 C284 1.320 . S
C283 C281 1.339 . S
C283 C282 1.395 . S
C283 H309 0.929 . S
C284 C282 1.320 . S
C284 C285 1.405 . S
C284 H310 0.930 . S
C285 C280 1.479 . S
C285 C284 1.405 . S
C285 H311 0.931 . S
U286 O287 2.454 1_565 S
U286 O288 2.458 1_565 S
U286 C289 2.984 1_565 S
U286 C290 2.847 . S
U286 C303 2.882 . S
U286 O304 2.441 . S
U286 O305 2.420 . S
U286 O306 2.455 1_565 S
U286 O307 2.449 . S
O287 U286 2.454 1_545 S
O287 C289 1.353 . S
O288 U286 2.458 1_545 S
O288 C289 1.286 . S
C289 U286 2.984 1_545 S
C289 O287 1.353 . S
C289 O288 1.286 . S
C289 C291 1.363 . S
C290 C280 1.465 . S
C290 U286 2.847 . S
C290 O304 1.249 . S
C290 O305 1.202 . S
C291 C289 1.363 . S
C291 C293 1.408 . S
C291 C296 1.342 . S
C292 C293 1.310 . S
C292 C295 1.461 . S
C292 H312 0.932 . S
C293 C291 1.408 . S
C293 C292 1.310 . S
C293 H313 0.930 . S
C294 C295 1.474 . S
C294 C296 1.285 . S
C294 H314 0.929 . S
C295 C292 1.461 . S
C295 C294 1.474 . S
C296 C291 1.342 . S
C296 C294 1.285 . S
C296 H315 0.930 . S
C297 C300 1.424 . S
C297 C302 1.245 1_565 S
C297 C303 1.428 . S
C298 C301 1.260 . S
C298 C302 1.477 . S
C298 H316 0.932 . S
C299 C300 1.384 . S
C299 C301 1.479 1_565 S
C299 H317 0.929 . S
C300 C297 1.424 . S
C300 C299 1.384 . S
C300 H318 0.928 . S
C301 C298 1.260 . S
C301 C299 1.479 1_545 S
C302 C297 1.245 1_545 S
C302 C298 1.477 . S
C302 H319 0.932 . S
C303 U286 2.882 . S
C303 C297 1.428 . S
C303 O306 1.301 1_565 S
C303 O307 1.282 . S
O304 U286 2.441 . S
O304 C290 1.249 . S
O305 U286 2.420 . S
O305 C290 1.202 . S
O306 U286 2.455 1_545 S
O306 C303 1.301 1_545 S
O307 U286 2.449 . S
O307 C303 1.282 . S
H308 C281 0.931 . S
H309 C283 0.929 . S
H310 C284 0.930 . S
H311 C285 0.931 . S
H312 C292 0.932 . S
H313 C293 0.930 . S
H314 C294 0.929 . S
H315 C296 0.930 . S
H316 C298 0.932 . S
H317 C299 0.929 . S
H318 C300 0.928 . S
H319 C302 0.932 . S
C320 C321 1.264 . S
C320 C325 1.479 . S
C320 C330 1.465 . S
C321 C320 1.264 . S
C321 C323 1.339 . S
C321 H348 0.931 . S
C322 C323 1.395 . S
C322 C324 1.320 . S
C323 C321 1.339 . S
C323 C322 1.395 . S
C323 H349 0.929 . S
C324 C322 1.320 . S
C324 C325 1.405 . S
C324 H350 0.930 . S
C325 C320 1.479 . S
C325 C324 1.405 . S
C325 H351 0.931 . S
U326 O327 2.454 . S
U326 O328 2.458 . S
U326 C329 2.984 . S
U326 C330 2.847 . S
U326 C343 2.882 . S
U326 O344 2.441 . S
U326 O345 2.420 . S
U326 O346 2.455 . S
U326 O347 2.449 . S
O327 U326 2.454 . S
O327 C329 1.353 . S
O328 U326 2.458 . S
O328 C329 1.286 . S
C329 U326 2.984 . S
C329 O327 1.353 . S
C329 O328 1.286 . S
C329 C331 1.363 . S
C330 C320 1.465 . S
C330 U326 2.847 . S
C330 O344 1.249 . S
C330 O345 1.202 . S
C331 C329 1.363 . S
C331 C333 1.408 . S
C331 C336 1.342 . S
C332 C333 1.310 . S
C332 C335 1.461 . S
C332 H352 0.932 . S
C333 C331 1.408 . S
C333 C332 1.310 . S
C333 H353 0.930 . S
C334 C335 1.474 . S
C334 C336 1.285 . S
C334 H354 0.929 . S
C335 C332 1.461 . S
C335 C334 1.474 . S
C336 C331 1.342 . S
C336 C334 1.285 . S
C336 H355 0.930 . S
C337 C340 1.424 . S
C337 C342 1.245 . S
C337 C343 1.428 . S
C338 C341 1.260 . S
C338 C342 1.477 . S
C338 H356 0.932 . S
C339 C340 1.384 . S
C339 C341 1.479 . S
C339 H357 0.929 . S
C340 C337 1.424 . S
C340 C339 1.384 . S
C340 H358 0.928 . S
C341 C338 1.260 . S
C341 C339 1.479 . S
C342 C337 1.245 . S
C342 C338 1.477 . S
C342 H359 0.932 . S
C343 U326 2.882 . S
C343 C337 1.428 . S
C343 O346 1.301 . S
C343 O347 1.282 . S
O344 U326 2.441 . S
O344 C330 1.249 . S
O345 U326 2.420 . S
O345 C330 1.202 . S
O346 U326 2.455 . S
O346 C343 1.301 . S
O347 U326 2.449 . S
O347 C343 1.282 . S
H348 C321 0.931 . S
H349 C323 0.929 . S
H350 C324 0.930 . S
H351 C325 0.931 . S
H352 C332 0.932 . S
H353 C333 0.930 . S
H354 C334 0.929 . S
H355 C336 0.930 . S
H356 C338 0.932 . S
H357 C339 0.929 . S
H358 C340 0.928 . S
H359 C342 0.932 . S
H360 C368 0.929 . S
H361 C370 0.930 . S
H362 C372 0.930 . S
H363 C375 0.929 . S
H364 C378 0.930 . S
H365 C380 0.960 . S
H366 C380 0.960 . S
H367 C380 0.960 . S
C368 H360 0.929 . S
C368 C369 1.377 . S
C368 C370 1.384 . S
C369 C368 1.377 . S
C369 C375 1.390 . S
C370 H361 0.930 . S
C370 C368 1.384 . S
C370 C371 1.372 . S
C371 C370 1.372 . S
C371 C372 1.400 . S
C371 C376 1.490 . S
C372 H362 0.930 . S
C372 C371 1.400 . S
C372 C375 1.386 . S
H373 C389 0.930 . S
H374 C390 0.931 . S
C375 H363 0.929 . S
C375 C369 1.390 . S
C375 C372 1.386 . S
C376 C371 1.490 . S
C376 C378 1.395 . S
C376 C379 1.403 . S
H377 C383 0.930 . S
C378 H364 0.930 . S
C378 C376 1.395 . S
C378 C381 1.403 . S
C379 C376 1.403 . S
C379 C380 1.524 . S
C379 C383 1.400 . S
C380 H365 0.960 . S
C380 H366 0.960 . S
C380 H367 0.960 . S
C380 C379 1.524 . S
C381 C378 1.403 . S
C381 C382 1.392 . S
C381 C385 1.495 . S
C382 C381 1.392 . S
C382 C383 1.385 . S
C382 C384 1.478 . S
C383 H377 0.930 . S
C383 C379 1.400 . S
C383 C382 1.385 . S
C384 C382 1.478 . S
C384 C386 1.381 . S
C384 C390 1.383 . S
C385 C381 1.495 . S
C385 H391 0.959 . S
C385 H392 0.961 . S
C385 H393 0.960 . S
C386 C384 1.381 . S
C386 C387 1.394 . S
C386 H394 0.930 . S
C387 C386 1.394 . S
C387 C388 1.383 . S
C387 H395 0.929 . S
C388 C387 1.383 . S
C388 C389 1.377 . S
C389 H373 0.930 . S
C389 C388 1.377 . S
C389 C390 1.379 . S
C390 H374 0.931 . S
C390 C384 1.383 . S
C390 C389 1.379 . S
H391 C385 0.959 . S
H392 C385 0.961 . S
H393 C385 0.960 . S
H394 C386 0.930 . S
H395 C387 0.929 . S
H396 C404 0.929 . S
H397 C406 0.930 . S
H398 C408 0.930 . S
H399 C411 0.929 . S
H400 C414 0.930 . S
H401 C416 0.960 . S
H402 C416 0.960 . S
H403 C416 0.960 . S
C404 H396 0.929 . S
C404 C405 1.377 . S
C404 C406 1.384 . S
C405 C404 1.377 . S
C405 C411 1.390 . S
C406 H397 0.930 . S
C406 C404 1.384 . S
C406 C407 1.372 . S
C407 C406 1.372 . S
C407 C408 1.400 . S
C407 C412 1.490 . S
C408 H398 0.930 . S
C408 C407 1.400 . S
C408 C411 1.386 . S
H409 C425 0.930 . S
H410 C426 0.931 . S
C411 H399 0.929 . S
C411 C405 1.390 . S
C411 C408 1.386 . S
C412 C407 1.490 . S
C412 C414 1.395 . S
C412 C415 1.403 . S
H413 C419 0.930 . S
C414 H400 0.930 . S
C414 C412 1.395 . S
C414 C417 1.403 . S
C415 C412 1.403 . S
C415 C416 1.524 . S
C415 C419 1.400 . S
C416 H401 0.960 . S
C416 H402 0.960 . S
C416 H403 0.960 . S
C416 C415 1.524 . S
C417 C414 1.403 . S
C417 C418 1.392 . S
C417 C421 1.495 . S
C418 C417 1.392 . S
C418 C419 1.385 . S
C418 C420 1.478 . S
C419 H413 0.930 . S
C419 C415 1.400 . S
C419 C418 1.385 . S
C420 C418 1.478 . S
C420 C422 1.381 . S
C420 C426 1.383 . S
C421 C417 1.495 . S
C421 H427 0.959 . S
C421 H428 0.961 . S
C421 H429 0.960 . S
C422 C420 1.381 . S
C422 C423 1.394 . S
C422 H430 0.930 . S
C423 C422 1.394 . S
C423 C424 1.383 . S
C423 H431 0.929 . S
C424 C423 1.383 . S
C424 C425 1.377 . S
C425 H409 0.930 . S
C425 C424 1.377 . S
C425 C426 1.379 . S
C426 H410 0.931 . S
C426 C420 1.383 . S
C426 C425 1.379 . S
H427 C421 0.959 . S
H428 C421 0.961 . S
H429 C421 0.960 . S
H430 C422 0.930 . S
H431 C423 0.929 . S
H432 C440 0.929 . S
H433 C442 0.930 . S
H434 C444 0.930 . S
H435 C447 0.929 . S
H436 C450 0.930 . S
H437 C452 0.960 . S
H438 C452 0.960 . S
H439 C452 0.960 . S
C440 H432 0.929 . S
C440 C441 1.377 . S
C440 C442 1.384 . S
C441 C440 1.377 . S
C441 C447 1.390 . S
C442 H433 0.930 . S
C442 C440 1.384 . S
C442 C443 1.372 . S
C443 C442 1.372 . S
C443 C444 1.400 . S
C443 C448 1.490 . S
C444 H434 0.930 . S
C444 C443 1.400 . S
C444 C447 1.386 . S
H445 C461 0.930 . S
H446 C462 0.931 . S
C447 H435 0.929 . S
C447 C441 1.390 . S
C447 C444 1.386 . S
C448 C443 1.490 . S
C448 C450 1.395 . S
C448 C451 1.403 . S
H449 C455 0.930 . S
C450 H436 0.930 . S
C450 C448 1.395 . S
C450 C453 1.403 . S
C451 C448 1.403 . S
C451 C452 1.524 . S
C451 C455 1.400 . S
C452 H437 0.960 . S
C452 H438 0.960 . S
C452 H439 0.960 . S
C452 C451 1.524 . S
C453 C450 1.403 . S
C453 C454 1.392 . S
C453 C457 1.495 . S
C454 C453 1.392 . S
C454 C455 1.385 . S
C454 C456 1.478 . S
C455 H449 0.930 . S
C455 C451 1.400 . S
C455 C454 1.385 . S
C456 C454 1.478 . S
C456 C458 1.381 . S
C456 C462 1.383 . S
C457 C453 1.495 . S
C457 H463 0.959 . S
C457 H464 0.961 . S
C457 H465 0.960 . S
C458 C456 1.381 . S
C458 C459 1.394 . S
C458 H466 0.930 . S
C459 C458 1.394 . S
C459 C460 1.383 . S
C459 H467 0.929 . S
C460 C459 1.383 . S
C460 C461 1.377 . S
C461 H445 0.930 . S
C461 C460 1.377 . S
C461 C462 1.379 . S
C462 H446 0.931 . S
C462 C456 1.383 . S
C462 C461 1.379 . S
H463 C457 0.959 . S
H464 C457 0.961 . S
H465 C457 0.960 . S
H466 C458 0.930 . S
H467 C459 0.929 . S
H468 C476 0.929 . S
H469 C478 0.930 . S
H470 C480 0.930 . S
H471 C483 0.929 . S
H472 C486 0.930 . S
H473 C488 0.960 . S
H474 C488 0.960 . S
H475 C488 0.960 . S
C476 H468 0.929 . S
C476 C477 1.377 . S
C476 C478 1.384 . S
C477 C476 1.377 . S
C477 C483 1.390 . S
C478 H469 0.930 . S
C478 C476 1.384 . S
C478 C479 1.372 . S
C479 C478 1.372 . S
C479 C480 1.400 . S
C479 C484 1.490 . S
C480 H470 0.930 . S
C480 C479 1.400 . S
C480 C483 1.386 . S
H481 C497 0.930 . S
H482 C498 0.931 . S
C483 H471 0.929 . S
C483 C477 1.390 . S
C483 C480 1.386 . S
C484 C479 1.490 . S
C484 C486 1.395 . S
C484 C487 1.403 . S
H485 C491 0.930 . S
C486 H472 0.930 . S
C486 C484 1.395 . S
C486 C489 1.403 . S
C487 C484 1.403 . S
C487 C488 1.524 . S
C487 C491 1.400 . S
C488 H473 0.960 . S
C488 H474 0.960 . S
C488 H475 0.960 . S
C488 C487 1.524 . S
C489 C486 1.403 . S
C489 C490 1.392 . S
C489 C493 1.495 . S
C490 C489 1.392 . S
C490 C491 1.385 . S
C490 C492 1.478 . S
C491 H485 0.930 . S
C491 C487 1.400 . S
C491 C490 1.385 . S
C492 C490 1.478 . S
C492 C494 1.381 . S
C492 C498 1.383 . S
C493 C489 1.495 . S
C493 H499 0.959 . S
C493 H500 0.961 . S
C493 H501 0.960 . S
C494 C492 1.381 . S
C494 C495 1.394 . S
C494 H502 0.930 . S
C495 C494 1.394 . S
C495 C496 1.383 . S
C495 H503 0.929 . S
C496 C495 1.383 . S
C496 C497 1.377 . S
C497 H481 0.930 . S
C497 C496 1.377 . S
C497 C498 1.379 . S
C498 H482 0.931 . S
C498 C492 1.383 . S
C498 C497 1.379 . S
H499 C493 0.959 . S
H500 C493 0.961 . S
H501 C493 0.960 . S
H502 C494 0.930 . S
H503 C495 0.929 . S
H504 C512 0.929 . S
H505 C514 0.930 . S
H506 C516 0.930 . S
H507 C519 0.929 . S
H508 C522 0.930 . S
H509 C524 0.960 . S
H510 C524 0.960 . S
H511 C524 0.960 . S
C512 H504 0.929 . S
C512 C513 1.377 . S
C512 C514 1.384 . S
C513 C512 1.377 . S
C513 C519 1.390 . S
C514 H505 0.930 . S
C514 C512 1.384 . S
C514 C515 1.372 . S
C515 C514 1.372 . S
C515 C516 1.400 . S
C515 C520 1.490 . S
C516 H506 0.930 . S
C516 C515 1.400 . S
C516 C519 1.386 . S
H517 C533 0.930 . S
H518 C534 0.931 . S
C519 H507 0.929 . S
C519 C513 1.390 . S
C519 C516 1.386 . S
C520 C515 1.490 . S
C520 C522 1.395 . S
C520 C523 1.403 . S
H521 C527 0.930 . S
C522 H508 0.930 . S
C522 C520 1.395 . S
C522 C525 1.403 . S
C523 C520 1.403 . S
C523 C524 1.524 . S
C523 C527 1.400 . S
C524 H509 0.960 . S
C524 H510 0.960 . S
C524 H511 0.960 . S
C524 C523 1.524 . S
C525 C522 1.403 . S
C525 C526 1.392 . S
C525 C529 1.495 . S
C526 C525 1.392 . S
C526 C527 1.385 . S
C526 C528 1.478 . S
C527 H521 0.930 . S
C527 C523 1.400 . S
C527 C526 1.385 . S
C528 C526 1.478 . S
C528 C530 1.381 . S
C528 C534 1.383 . S
C529 C525 1.495 . S
C529 H535 0.959 . S
C529 H536 0.961 . S
C529 H537 0.960 . S
C530 C528 1.381 . S
C530 C531 1.394 . S
C530 H538 0.930 . S
C531 C530 1.394 . S
C531 C532 1.383 . S
C531 H539 0.929 . S
C532 C531 1.383 . S
C532 C533 1.377 . S
C533 H517 0.930 . S
C533 C532 1.377 . S
C533 C534 1.379 . S
C534 H518 0.931 . S
C534 C528 1.383 . S
C534 C533 1.379 . S
H535 C529 0.959 . S
H536 C529 0.961 . S
H537 C529 0.960 . S
H538 C530 0.930 . S
H539 C531 0.929 . S
H540 C548 0.929 . S
H541 C550 0.930 . S
H542 C552 0.930 . S
H543 C555 0.929 . S
H544 C558 0.930 . S
H545 C560 0.960 . S
H546 C560 0.960 . S
H547 C560 0.960 . S
C548 H540 0.929 . S
C548 C549 1.377 . S
C548 C550 1.384 . S
C549 C548 1.377 . S
C549 C555 1.390 . S
C550 H541 0.930 . S
C550 C548 1.384 . S
C550 C551 1.372 . S
C551 C550 1.372 . S
C551 C552 1.400 . S
C551 C556 1.490 . S
C552 H542 0.930 . S
C552 C551 1.400 . S
C552 C555 1.386 . S
H553 C569 0.930 . S
H554 C570 0.931 . S
C555 H543 0.929 . S
C555 C549 1.390 . S
C555 C552 1.386 . S
C556 C551 1.490 . S
C556 C558 1.395 . S
C556 C559 1.403 . S
H557 C563 0.930 . S
C558 H544 0.930 . S
C558 C556 1.395 . S
C558 C561 1.403 . S
C559 C556 1.403 . S
C559 C560 1.524 . S
C559 C563 1.400 . S
C560 H545 0.960 . S
C560 H546 0.960 . S
C560 H547 0.960 . S
C560 C559 1.524 . S
C561 C558 1.403 . S
C561 C562 1.392 . S
C561 C565 1.495 . S
C562 C561 1.392 . S
C562 C563 1.385 . S
C562 C564 1.478 . S
C563 H557 0.930 . S
C563 C559 1.400 . S
C563 C562 1.385 . S
C564 C562 1.478 . S
C564 C566 1.381 . S
C564 C570 1.383 . S
C565 C561 1.495 . S
C565 H571 0.959 . S
C565 H572 0.961 . S
C565 H573 0.960 . S
C566 C564 1.381 . S
C566 C567 1.394 . S
C566 H574 0.930 . S
C567 C566 1.394 . S
C567 C568 1.383 . S
C567 H575 0.929 . S
C568 C567 1.383 . S
C568 C569 1.377 . S
C569 H553 0.930 . S
C569 C568 1.377 . S
C569 C570 1.379 . S
C570 H554 0.931 . S
C570 C564 1.383 . S
C570 C569 1.379 . S
H571 C565 0.959 . S
H572 C565 0.961 . S
H573 C565 0.960 . S
H574 C566 0.930 . S
H575 C567 0.929 . S
H576 C584 0.929 . S
H577 C586 0.930 . S
H578 C588 0.930 . S
H579 C591 0.929 . S
H580 C594 0.930 . S
H581 C596 0.960 . S
H582 C596 0.960 . S
H583 C596 0.960 . S
C584 H576 0.929 . S
C584 C585 1.377 . S
C584 C586 1.384 . S
C585 C584 1.377 . S
C585 C591 1.390 . S
C586 H577 0.930 . S
C586 C584 1.384 . S
C586 C587 1.372 . S
C587 C586 1.372 . S
C587 C588 1.400 . S
C587 C592 1.490 . S
C588 H578 0.930 . S
C588 C587 1.400 . S
C588 C591 1.386 . S
H589 C605 0.930 . S
H590 C606 0.931 . S
C591 H579 0.929 . S
C591 C585 1.390 . S
C591 C588 1.386 . S
C592 C587 1.490 . S
C592 C594 1.395 . S
C592 C595 1.403 . S
H593 C599 0.930 . S
C594 H580 0.930 . S
C594 C592 1.395 . S
C594 C597 1.403 . S
C595 C592 1.403 . S
C595 C596 1.524 . S
C595 C599 1.400 . S
C596 H581 0.960 . S
C596 H582 0.960 . S
C596 H583 0.960 . S
C596 C595 1.524 . S
C597 C594 1.403 . S
C597 C598 1.392 . S
C597 C601 1.495 . S
C598 C597 1.392 . S
C598 C599 1.385 . S
C598 C600 1.478 . S
C599 H593 0.930 . S
C599 C595 1.400 . S
C599 C598 1.385 . S
C600 C598 1.478 . S
C600 C602 1.381 . S
C600 C606 1.383 . S
C601 C597 1.495 . S
C601 H607 0.959 . S
C601 H608 0.961 . S
C601 H609 0.960 . S
C602 C600 1.381 . S
C602 C603 1.394 . S
C602 H610 0.930 . S
C603 C602 1.394 . S
C603 C604 1.383 . S
C603 H611 0.929 . S
C604 C603 1.383 . S
C604 C605 1.377 . S
C605 H589 0.930 . S
C605 C604 1.377 . S
C605 C606 1.379 . S
C606 H590 0.931 . S
C606 C600 1.383 . S
C606 C605 1.379 . S
H607 C601 0.959 . S
H608 C601 0.961 . S
H609 C601 0.960 . S
H610 C602 0.930 . S
H611 C603 0.929 . S
H612 C620 0.929 . S
H613 C622 0.930 . S
H614 C624 0.930 . S
H615 C627 0.929 . S
H616 C630 0.930 . S
H617 C632 0.960 . S
H618 C632 0.960 . S
H619 C632 0.960 . S
C620 H612 0.929 . S
C620 C621 1.377 . S
C620 C622 1.384 . S
C621 C620 1.377 . S
C621 C627 1.390 . S
C622 H613 0.930 . S
C622 C620 1.384 . S
C622 C623 1.372 . S
C623 C622 1.372 . S
C623 C624 1.400 . S
C623 C628 1.490 . S
C624 H614 0.930 . S
C624 C623 1.400 . S
C624 C627 1.386 . S
H625 C641 0.930 . S
H626 C642 0.931 . S
C627 H615 0.929 . S
C627 C621 1.390 . S
C627 C624 1.386 . S
C628 C623 1.490 . S
C628 C630 1.395 . S
C628 C631 1.403 . S
H629 C635 0.930 . S
C630 H616 0.930 . S
C630 C628 1.395 . S
C630 C633 1.403 . S
C631 C628 1.403 . S
C631 C632 1.524 . S
C631 C635 1.400 . S
C632 H617 0.960 . S
C632 H618 0.960 . S
C632 H619 0.960 . S
C632 C631 1.524 . S
C633 C630 1.403 . S
C633 C634 1.392 . S
C633 C637 1.495 . S
C634 C633 1.392 . S
C634 C635 1.385 . S
C634 C636 1.478 . S
C635 H629 0.930 . S
C635 C631 1.400 . S
C635 C634 1.385 . S
C636 C634 1.478 . S
C636 C638 1.381 . S
C636 C642 1.383 . S
C637 C633 1.495 . S
C637 H643 0.959 . S
C637 H644 0.961 . S
C637 H645 0.960 . S
C638 C636 1.381 . S
C638 C639 1.394 . S
C638 H646 0.930 . S
C639 C638 1.394 . S
C639 C640 1.383 . S
C639 H647 0.929 . S
C640 C639 1.383 . S
C640 C641 1.377 . S
C641 H625 0.930 . S
C641 C640 1.377 . S
C641 C642 1.379 . S
C642 H626 0.931 . S
C642 C636 1.383 . S
C642 C641 1.379 . S
H643 C637 0.959 . S
H644 C637 0.961 . S
H645 C637 0.960 . S
H646 C638 0.930 . S
H647 C639 0.929 . S
H648 C656 0.929 . S
H649 C658 0.930 . S
H650 C660 0.930 . S
H651 C663 0.929 . S
H652 C666 0.930 . S
H653 C668 0.960 . S
H654 C668 0.960 . S
H655 C668 0.960 . S
C656 H648 0.929 . S
C656 C657 1.377 . S
C656 C658 1.384 . S
C657 C656 1.377 . S
C657 C663 1.390 . S
C658 H649 0.930 . S
C658 C656 1.384 . S
C658 C659 1.372 . S
C659 C658 1.372 . S
C659 C660 1.400 . S
C659 C664 1.490 . S
C660 H650 0.930 . S
C660 C659 1.400 . S
C660 C663 1.386 . S
H661 C677 0.930 . S
H662 C678 0.931 . S
C663 H651 0.929 . S
C663 C657 1.390 . S
C663 C660 1.386 . S
C664 C659 1.490 . S
C664 C666 1.395 . S
C664 C667 1.403 . S
H665 C671 0.930 . S
C666 H652 0.930 . S
C666 C664 1.395 . S
C666 C669 1.403 . S
C667 C664 1.403 . S
C667 C668 1.524 . S
C667 C671 1.400 . S
C668 H653 0.960 . S
C668 H654 0.960 . S
C668 H655 0.960 . S
C668 C667 1.524 . S
C669 C666 1.403 . S
C669 C670 1.392 . S
C669 C673 1.495 . S
C670 C669 1.392 . S
C670 C671 1.385 . S
C670 C672 1.478 . S
C671 H665 0.930 . S
C671 C667 1.400 . S
C671 C670 1.385 . S
C672 C670 1.478 . S
C672 C674 1.381 . S
C672 C678 1.383 . S
C673 C669 1.495 . S
C673 H679 0.959 . S
C673 H680 0.961 . S
C673 H681 0.960 . S
C674 C672 1.381 . S
C674 C675 1.394 . S
C674 H682 0.930 . S
C675 C674 1.394 . S
C675 C676 1.383 . S
C675 H683 0.929 . S
C676 C675 1.383 . S
C676 C677 1.377 . S
C677 H661 0.930 . S
C677 C676 1.377 . S
C677 C678 1.379 . S
C678 H662 0.931 . S
C678 C672 1.383 . S
C678 C677 1.379 . S
H679 C673 0.959 . S
H680 C673 0.961 . S
H681 C673 0.960 . S
H682 C674 0.930 . S
H683 C675 0.929 . S
H684 C692 0.929 . S
H685 C694 0.930 . S
H686 C696 0.930 . S
H687 C699 0.929 . S
H688 C702 0.930 . S
H689 C704 0.960 . S
H690 C704 0.960 . S
H691 C704 0.960 . S
C692 H684 0.929 . S
C692 C693 1.377 . S
C692 C694 1.384 . S
C693 C692 1.377 . S
C693 C699 1.390 . S
C694 H685 0.930 . S
C694 C692 1.384 . S
C694 C695 1.372 . S
C695 C694 1.372 . S
C695 C696 1.400 . S
C695 C700 1.490 . S
C696 H686 0.930 . S
C696 C695 1.400 . S
C696 C699 1.386 . S
H697 C713 0.930 . S
H698 C714 0.931 . S
C699 H687 0.929 . S
C699 C693 1.390 . S
C699 C696 1.386 . S
C700 C695 1.490 . S
C700 C702 1.395 . S
C700 C703 1.403 . S
H701 C707 0.930 . S
C702 H688 0.930 . S
C702 C700 1.395 . S
C702 C705 1.403 . S
C703 C700 1.403 . S
C703 C704 1.524 . S
C703 C707 1.400 . S
C704 H689 0.960 . S
C704 H690 0.960 . S
C704 H691 0.960 . S
C704 C703 1.524 . S
C705 C702 1.403 . S
C705 C706 1.392 . S
C705 C709 1.495 . S
C706 C705 1.392 . S
C706 C707 1.385 . S
C706 C708 1.478 . S
C707 H701 0.930 . S
C707 C703 1.400 . S
C707 C706 1.385 . S
C708 C706 1.478 . S
C708 C710 1.381 . S
C708 C714 1.383 . S
C709 C705 1.495 . S
C709 H715 0.959 . S
C709 H716 0.961 . S
C709 H717 0.960 . S
C710 C708 1.381 . S
C710 C711 1.394 . S
C710 H718 0.930 . S
C711 C710 1.394 . S
C711 C712 1.383 . S
C711 H719 0.929 . S
C712 C711 1.383 . S
C712 C713 1.377 . S
C713 H697 0.930 . S
C713 C712 1.377 . S
C713 C714 1.379 . S
C714 H698 0.931 . S
C714 C708 1.383 . S
C714 C713 1.379 . S
H715 C709 0.959 . S
H716 C709 0.961 . S
H717 C709 0.960 . S
H718 C710 0.930 . S
H719 C711 0.929 . S
H720 C728 0.929 . S
H721 C730 0.930 . S
H722 C732 0.930 . S
H723 C735 0.929 . S
H724 C738 0.930 . S
H725 C740 0.960 . S
H726 C740 0.960 . S
H727 C740 0.960 . S
C728 H720 0.929 . S
C728 C729 1.377 . S
C728 C730 1.384 . S
C729 C728 1.377 . S
C729 C735 1.390 . S
C730 H721 0.930 . S
C730 C728 1.384 . S
C730 C731 1.372 . S
C731 C730 1.372 . S
C731 C732 1.400 . S
C731 C736 1.490 . S
C732 H722 0.930 . S
C732 C731 1.400 . S
C732 C735 1.386 . S
H733 C749 0.930 . S
H734 C750 0.931 . S
C735 H723 0.929 . S
C735 C729 1.390 . S
C735 C732 1.386 . S
C736 C731 1.490 . S
C736 C738 1.395 . S
C736 C739 1.403 . S
H737 C743 0.930 . S
C738 H724 0.930 . S
C738 C736 1.395 . S
C738 C741 1.403 . S
C739 C736 1.403 . S
C739 C740 1.524 . S
C739 C743 1.400 . S
C740 H725 0.960 . S
C740 H726 0.960 . S
C740 H727 0.960 . S
C740 C739 1.524 . S
C741 C738 1.403 . S
C741 C742 1.392 . S
C741 C745 1.495 . S
C742 C741 1.392 . S
C742 C743 1.385 . S
C742 C744 1.478 . S
C743 H737 0.930 . S
C743 C739 1.400 . S
C743 C742 1.385 . S
C744 C742 1.478 . S
C744 C746 1.381 . S
C744 C750 1.383 . S
C745 C741 1.495 . S
C745 H751 0.959 . S
C745 H752 0.961 . S
C745 H753 0.960 . S
C746 C744 1.381 . S
C746 C747 1.394 . S
C746 H754 0.930 . S
C747 C746 1.394 . S
C747 C748 1.383 . S
C747 H755 0.929 . S
C748 C747 1.383 . S
C748 C749 1.377 . S
C749 H733 0.930 . S
C749 C748 1.377 . S
C749 C750 1.379 . S
C750 H734 0.931 . S
C750 C744 1.383 . S
C750 C749 1.379 . S
H751 C745 0.959 . S
H752 C745 0.961 . S
H753 C745 0.960 . S
H754 C746 0.930 . S
H755 C747 0.929 . S
H756 C764 0.929 . S
H757 C766 0.930 . S
H758 C768 0.930 . S
H759 C771 0.929 . S
H760 C774 0.930 . S
H761 C776 0.960 . S
H762 C776 0.960 . S
H763 C776 0.960 . S
C764 H756 0.929 . S
C764 C765 1.377 . S
C764 C766 1.384 . S
C765 C764 1.377 . S
C765 C771 1.390 . S
C766 H757 0.930 . S
C766 C764 1.384 . S
C766 C767 1.372 . S
C767 C766 1.372 . S
C767 C768 1.400 . S
C767 C772 1.490 . S
C768 H758 0.930 . S
C768 C767 1.400 . S
C768 C771 1.386 . S
H769 C785 0.930 . S
H770 C786 0.931 . S
C771 H759 0.929 . S
C771 C765 1.390 . S
C771 C768 1.386 . S
C772 C767 1.490 . S
C772 C774 1.395 . S
C772 C775 1.403 . S
H773 C779 0.930 . S
C774 H760 0.930 . S
C774 C772 1.395 . S
C774 C777 1.403 . S
C775 C772 1.403 . S
C775 C776 1.524 . S
C775 C779 1.400 . S
C776 H761 0.960 . S
C776 H762 0.960 . S
C776 H763 0.960 . S
C776 C775 1.524 . S
C777 C774 1.403 . S
C777 C778 1.392 . S
C777 C781 1.495 . S
C778 C777 1.392 . S
C778 C779 1.385 . S
C778 C780 1.478 . S
C779 H773 0.930 . S
C779 C775 1.400 . S
C779 C778 1.385 . S
C780 C778 1.478 . S
C780 C782 1.381 . S
C780 C786 1.383 . S
C781 C777 1.495 . S
C781 H787 0.959 . S
C781 H788 0.961 . S
C781 H789 0.960 . S
C782 C780 1.381 . S
C782 C783 1.394 . S
C782 H790 0.930 . S
C783 C782 1.394 . S
C783 C784 1.383 . S
C783 H791 0.929 . S
C784 C783 1.383 . S
C784 C785 1.377 . S
C785 H769 0.930 . S
C785 C784 1.377 . S
C785 C786 1.379 . S
C786 H770 0.931 . S
C786 C780 1.383 . S
C786 C785 1.379 . S
H787 C781 0.959 . S
H788 C781 0.961 . S
H789 C781 0.960 . S
H790 C782 0.930 . S
H791 C783 0.929 . S
H792 C800 0.929 . S
H793 C802 0.930 . S
H794 C804 0.930 1_655 S
H795 C807 0.929 1_655 S
H796 C810 0.930 . S
H797 C812 0.960 . S
H798 C812 0.960 . S
H799 C812 0.960 . S
C800 H792 0.929 . S
C800 C801 1.377 . S
C800 C802 1.384 . S
C801 C800 1.377 . S
C801 C807 1.390 . S
C802 H793 0.930 . S
C802 C800 1.384 . S
C802 C803 1.372 . S
C803 C802 1.372 . S
C803 C804 1.400 . S
C803 C808 1.490 . S
C804 H794 0.930 1_455 S
C804 C803 1.400 . S
C804 C807 1.386 . S
H805 C821 0.958 . S
H806 C822 0.931 . S
C807 H795 0.929 1_455 S
C807 C801 1.390 . S
C807 C804 1.386 . S
C808 C803 1.490 . S
C808 C810 1.395 . S
C808 C811 1.403 . S
H809 C815 0.930 . S
C810 H796 0.930 . S
C810 C808 1.395 . S
C810 C813 1.403 . S
C811 C808 1.403 . S
C811 C812 1.524 . S
C811 C815 1.400 . S
C812 H797 0.960 . S
C812 H798 0.960 . S
C812 H799 0.960 . S
C812 C811 1.524 . S
C813 C810 1.403 . S
C813 C814 1.392 . S
C813 C817 1.495 1_455 S
C814 C813 1.392 . S
C814 C815 1.385 . S
C814 C816 1.478 . S
C815 H809 0.930 . S
C815 C811 1.400 . S
C815 C814 1.385 . S
C816 C814 1.478 . S
C816 C818 1.381 . S
C816 C822 1.383 1_455 S
C817 C813 1.495 1_655 S
C817 H823 0.959 . S
C817 H824 0.961 . S
C817 H825 0.960 1_655 S
C818 C816 1.381 . S
C818 C819 1.338 1_554 S
C818 H826 0.930 . S
C819 C818 1.338 1_556 S
C819 C820 1.410 . S
C819 H827 0.961 . S
C820 C819 1.410 . S
C820 C821 1.358 1_455 S
C821 H805 0.958 . S
C821 C820 1.358 1_655 S
C821 C822 1.371 1_556 S
C822 H806 0.931 . S
C822 C816 1.383 1_655 S
C822 C821 1.371 1_554 S
H823 C817 0.959 . S
H824 C817 0.961 . S
H825 C817 0.960 1_455 S
H826 C818 0.930 . S
H827 C819 0.961 . S
H828 C836 0.929 . S
H829 C838 0.930 . S
H830 C840 0.930 . S
H831 C843 0.929 . S
H832 C846 0.930 . S
H833 C848 0.960 . S
H834 C848 0.960 . S
H835 C848 0.960 . S
C836 H828 0.929 . S
C836 C837 1.377 . S
C836 C838 1.384 . S
C837 C836 1.377 . S
C837 C843 1.390 . S
C838 H829 0.930 . S
C838 C836 1.384 . S
C838 C839 1.372 . S
C839 C838 1.372 . S
C839 C840 1.400 . S
C839 C844 1.490 . S
C840 H830 0.930 . S
C840 C839 1.400 . S
C840 C843 1.386 . S
H841 C857 0.930 1_565 S
H842 C858 0.931 1_565 S
C843 H831 0.929 . S
C843 C837 1.390 . S
C843 C840 1.386 . S
C844 C839 1.490 . S
C844 C846 1.395 . S
C844 C847 1.403 . S
H845 C851 0.930 . S
C846 H832 0.930 . S
C846 C844 1.395 . S
C846 C849 1.403 . S
C847 C844 1.403 . S
C847 C848 1.524 . S
C847 C851 1.400 . S
C848 H833 0.960 . S
C848 H834 0.960 . S
C848 H835 0.960 . S
C848 C847 1.524 . S
C849 C846 1.403 . S
C849 C850 1.392 . S
C849 C853 1.495 . S
C850 C849 1.392 . S
C850 C851 1.385 . S
C850 C852 1.478 . S
C851 H845 0.930 . S
C851 C847 1.400 . S
C851 C850 1.385 . S
C852 C850 1.478 . S
C852 C854 1.381 . S
C852 C858 1.383 . S
C853 C849 1.495 . S
C853 H859 0.959 . S
C853 H860 0.961 1_545 S
C853 H861 0.960 . S
C854 C852 1.381 . S
C854 C855 1.394 . S
C854 H862 0.930 . S
C855 C854 1.394 . S
C855 C856 1.383 . S
C855 H863 0.929 . S
C856 C855 1.383 . S
C856 C857 1.377 . S
C857 H841 0.930 1_545 S
C857 C856 1.377 . S
C857 C858 1.379 . S
C858 H842 0.931 1_545 S
C858 C852 1.383 . S
C858 C857 1.379 . S
H859 C853 0.959 . S
H860 C853 0.961 1_565 S
H861 C853 0.960 . S
H862 C854 0.930 . S
H863 C855 0.929 . S
H864 C872 0.929 . S
H865 C874 0.930 . S
H866 C876 0.930 . S
H867 C879 0.929 . S
H868 C882 0.930 . S
H869 C884 0.960 . S
H870 C884 0.960 . S
H871 C884 0.960 . S
C872 H864 0.929 . S
C872 C873 1.377 . S
C872 C874 1.384 . S
C873 C872 1.377 . S
C873 C879 1.390 . S
C874 H865 0.930 . S
C874 C872 1.384 . S
C874 C875 1.372 . S
C875 C874 1.372 . S
C875 C876 1.400 . S
C875 C880 1.490 . S
C876 H866 0.930 . S
C876 C875 1.400 . S
C876 C879 1.386 . S
H877 C893 0.930 . S
H878 C894 0.931 . S
C879 H867 0.929 . S
C879 C873 1.390 . S
C879 C876 1.386 . S
C880 C875 1.490 . S
C880 C882 1.395 . S
C880 C883 1.403 . S
H881 C887 0.930 . S
C882 H868 0.930 . S
C882 C880 1.395 . S
C882 C885 1.403 . S
C883 C880 1.403 . S
C883 C884 1.524 . S
C883 C887 1.400 . S
C884 H869 0.960 . S
C884 H870 0.960 . S
C884 H871 0.960 . S
C884 C883 1.524 . S
C885 C882 1.403 . S
C885 C886 1.392 . S
C885 C889 1.495 . S
C886 C885 1.392 . S
C886 C887 1.385 . S
C886 C888 1.478 . S
C887 H881 0.930 . S
C887 C883 1.400 . S
C887 C886 1.385 . S
C888 C886 1.478 . S
C888 C890 1.381 . S
C888 C894 1.383 . S
C889 C885 1.495 . S
C889 H895 0.959 . S
C889 H896 0.961 . S
C889 H897 0.960 . S
C890 C888 1.381 . S
C890 C891 1.394 . S
C890 H898 0.930 . S
C891 C890 1.394 . S
C891 C892 1.383 . S
C891 H899 0.929 . S
C892 C891 1.383 . S
C892 C893 1.377 . S
C893 H877 0.930 . S
C893 C892 1.377 . S
C893 C894 1.379 . S
C894 H878 0.931 . S
C894 C888 1.383 . S
C894 C893 1.379 . S
H895 C889 0.959 . S
H896 C889 0.961 . S
H897 C889 0.960 . S
H898 C890 0.930 . S
H899 C891 0.929 . S
H900 C908 0.929 . S
H901 C910 0.930 . S
H902 C912 0.930 1_565 S
H903 C915 0.929 1_565 S
H904 C918 0.930 . S
H905 C920 0.960 . S
H906 C920 0.960 . S
H907 C920 0.960 . S
C908 H900 0.929 . S
C908 C909 1.377 . S
C908 C910 1.384 . S
C909 C908 1.377 . S
C909 C915 1.390 . S
C910 H901 0.930 . S
C910 C908 1.384 . S
C910 C911 1.372 . S
C911 C910 1.372 . S
C911 C912 1.400 . S
C911 C916 1.490 . S
C912 H902 0.930 1_545 S
C912 C911 1.400 . S
C912 C915 1.386 . S
H913 C929 0.930 . S
H914 C930 0.931 . S
C915 H903 0.929 1_545 S
C915 C909 1.390 . S
C915 C912 1.386 . S
C916 C911 1.490 . S
C916 C918 1.395 . S
C916 C919 1.403 . S
H917 C923 0.930 . S
C918 H904 0.930 . S
C918 C916 1.395 . S
C918 C921 1.403 . S
C919 C916 1.403 . S
C919 C920 1.524 . S
C919 C923 1.400 . S
C920 H905 0.960 . S
C920 H906 0.960 . S
C920 H907 0.960 . S
C920 C919 1.524 . S
C921 C918 1.403 . S
C921 C922 1.392 . S
C921 C925 1.495 . S
C922 C921 1.392 . S
C922 C923 1.385 . S
C922 C924 1.478 . S
C923 H917 0.930 . S
C923 C919 1.400 . S
C923 C922 1.385 . S
C924 C922 1.478 . S
C924 C926 1.381 . S
C924 C930 1.383 1_545 S
C925 C921 1.495 . S
C925 H931 0.959 . S
C925 H932 0.961 1_545 S
C925 H933 0.960 . S
C926 C924 1.381 . S
C926 C927 1.394 . S
C926 H934 0.930 . S
C927 C926 1.394 . S
C927 C928 1.383 . S
C927 H935 0.929 . S
C928 C927 1.383 . S
C928 C929 1.377 1_545 S
C929 H913 0.930 . S
C929 C928 1.377 1_565 S
C929 C930 1.379 . S
C930 H914 0.931 . S
C930 C924 1.383 1_565 S
C930 C929 1.379 . S
H931 C925 0.959 . S
H932 C925 0.961 1_565 S
H933 C925 0.960 . S
H934 C926 0.930 . S
H935 C927 0.929 . S
H936 C944 0.929 . S
H937 C946 0.930 . S
H938 C948 0.930 . S
H939 C951 0.929 . S
H940 C954 0.930 . S
H941 C956 0.960 . S
H942 C956 0.960 . S
H943 C956 0.960 . S
C944 H936 0.929 . S
C944 C945 1.377 . S
C944 C946 1.384 . S
C945 C944 1.377 . S
C945 C951 1.390 . S
C946 H937 0.930 . S
C946 C944 1.384 . S
C946 C947 1.372 . S
C947 C946 1.372 . S
C947 C948 1.400 . S
C947 C952 1.490 . S
C948 H938 0.930 . S
C948 C947 1.400 . S
C948 C951 1.386 . S
H949 C965 0.930 . S
H950 C966 0.931 . S
C951 H939 0.929 . S
C951 C945 1.390 . S
C951 C948 1.386 . S
C952 C947 1.490 . S
C952 C954 1.395 . S
C952 C955 1.403 . S
H953 C959 0.930 . S
C954 H940 0.930 . S
C954 C952 1.395 . S
C954 C957 1.403 . S
C955 C952 1.403 . S
C955 C956 1.524 . S
C955 C959 1.400 . S
C956 H941 0.960 . S
C956 H942 0.960 . S
C956 H943 0.960 . S
C956 C955 1.524 . S
C957 C954 1.403 . S
C957 C958 1.392 . S
C957 C961 1.495 . S
C958 C957 1.392 . S
C958 C959 1.385 . S
C958 C960 1.478 . S
C959 H953 0.930 . S
C959 C955 1.400 . S
C959 C958 1.385 . S
C960 C958 1.478 . S
C960 C962 1.381 . S
C960 C966 1.383 . S
C961 C957 1.495 . S
C961 H967 0.959 . S
C961 H968 0.961 . S
C961 H969 0.960 . S
C962 C960 1.381 . S
C962 C963 1.339 1_556 S
C962 H970 0.930 . S
C963 C962 1.339 1_554 S
C963 C964 1.417 . S
C963 H971 0.953 . S
C964 C963 1.417 . S
C964 C965 1.377 . S
C965 H949 0.930 . S
C965 C964 1.377 . S
C965 C966 1.379 1_554 S
C966 H950 0.931 . S
C966 C960 1.383 . S
C966 C965 1.379 1_556 S
H967 C961 0.959 . S
H968 C961 0.961 . S
H969 C961 0.960 . S
H970 C962 0.930 . S
H971 C963 0.953 . S
H972 C980 0.929 . S
H973 C982 0.930 . S
H974 C984 0.930 . S
H975 C987 0.929 . S
H976 C990 0.930 . S
H977 C992 0.960 . S
H978 C992 0.960 . S
H979 C992 0.960 . S
C980 H972 0.929 . S
C980 C981 1.377 . S
C980 C982 1.384 . S
C981 C980 1.377 . S
C981 C987 1.390 1_455 S
C982 H973 0.930 . S
C982 C980 1.384 . S
C982 C983 1.372 . S
C983 C982 1.372 . S
C983 C984 1.400 1_455 S
C983 C988 1.490 . S
C984 H974 0.930 . S
C984 C983 1.400 1_655 S
C984 C987 1.386 . S
H985 C1001 0.930 . S
H986 C1002 0.931 . S
C987 H975 0.929 . S
C987 C981 1.390 1_655 S
C987 C984 1.386 . S
C988 C983 1.490 . S
C988 C990 1.395 . S
C988 C991 1.403 1_455 S
H989 C995 0.930 . S
C990 H976 0.930 . S
C990 C988 1.395 . S
C990 C993 1.403 . S
C991 C988 1.403 1_655 S
C991 C992 1.524 . S
C991 C995 1.400 . S
C992 H977 0.960 . S
C992 H978 0.960 . S
C992 H979 0.960 . S
C992 C991 1.524 . S
C993 C990 1.403 . S
C993 C994 1.392 . S
C993 C997 1.495 . S
C994 C993 1.392 . S
C994 C995 1.385 1_455 S
C994 C996 1.478 . S
C995 H989 0.930 . S
C995 C991 1.400 . S
C995 C994 1.385 1_655 S
C996 C994 1.478 . S
C996 C998 1.381 . S
C996 C1002 1.383 1_455 S
C997 C993 1.495 . S
C997 H1003 0.959 . S
C997 H1004 0.961 . S
C997 H1005 0.960 . S
C998 C996 1.381 . S
C998 C999 1.394 . S
C998 H1006 0.930 . S
C999 C998 1.394 . S
C999 C1000 1.383 . S
C999 H1007 0.929 . S
C1000 C999 1.383 . S
C1000 C1001 1.377 1_455 S
C1001 H985 0.930 . S
C1001 C1000 1.377 1_655 S
C1001 C1002 1.379 . S
C1002 H986 0.931 . S
C1002 C996 1.383 1_655 S
C1002 C1001 1.379 . S
H1003 C997 0.959 . S
H1004 C997 0.961 . S
H1005 C997 0.960 . S
H1006 C998 0.930 . S
H1007 C999 0.929 . S
C369 C9 0.419 . S
C388 C335 0.412 . S
C405 C49 0.226 . S
C424 C242 0.244 . S
C441 C89 0.223 . S
C460 C282 0.192 . S
C477 C26 0.288 . S
C496 C322 0.213 . S
C532 C255 0.374 . S
C513 C66 0.416 . S
C568 C295 0.299 . S
C549 C106 0.404 . S
C585 C43 2.905 . S
C604 C162 2.865 . S
C621 C83 3.085 . S
C640 C202 3.029 . S
C657 C22 3.183 . S
C676 C135 3.106 . S
C712 C175 3.111 . S
C693 C62 3.171 . S
C748 C215 2.921 . S
C729 C102 2.986 . S
C765 C3 2.892 . S
C784 C122 2.851 . S
C820 C221 1.742 . S
C801 C15 1.715 . S
C837 C55 1.728 . S
C856 C141 1.765 . S
C873 C95 1.720 . S
C892 C181 1.756 . S
C928 C301 1.107 . S
C909 C42 1.103 . S
C964 C341 1.117 . S
C945 C82 1.112 . S
C981 C2 1.100 . S
C1000 C261 1.112 . S
