# Generated by pormake.
# Topology tsx, (6,3)-cn, num edge types: 1
# Building blocks:
#     Node 0, Type 0, BuildingBlock: FUNLAD_clean_sbu_0, # of connection points: 6
#     Node 1, Type 0, BuildingBlock: FUNLAD_clean_sbu_0, # of connection points: 6
#     Node 2, Type 1, BuildingBlock: OLANEW_clean_sbu_2, # of connection points: 3
#     Node 3, Type 1, BuildingBlock: OLANEW_clean_sbu_2, # of connection points: 3
#     Node 4, Type 1, BuildingBlock: OLANEW_clean_sbu_2, # of connection points: 3
#     Node 5, Type 1, BuildingBlock: OLANEW_clean_sbu_2, # of connection points: 3
#     Edge 6, Type (0, 1), BuildingBlock: CIFDUS_clean_linker_0, # of connection points: 2
#     Edge 7, Type (0, 1), BuildingBlock: CIFDUS_clean_linker_0, # of connection points: 2
#     Edge 8, Type (0, 1), BuildingBlock: CIFDUS_clean_linker_0, # of connection points: 2
#     Edge 9, Type (0, 1), BuildingBlock: CIFDUS_clean_linker_0, # of connection points: 2
#     Edge 10, Type (0, 1), BuildingBlock: CIFDUS_clean_linker_0, # of connection points: 2
#     Edge 11, Type (0, 1), BuildingBlock: CIFDUS_clean_linker_0, # of connection points: 2
#     Edge 12, Type (0, 1), BuildingBlock: CIFDUS_clean_linker_0, # of connection points: 2
#     Edge 13, Type (0, 1), BuildingBlock: CIFDUS_clean_linker_0, # of connection points: 2
#     Edge 14, Type (0, 1), BuildingBlock: CIFDUS_clean_linker_0, # of connection points: 2
#     Edge 15, Type (0, 1), BuildingBlock: CIFDUS_clean_linker_0, # of connection points: 2
#     Edge 16, Type (0, 1), BuildingBlock: CIFDUS_clean_linker_0, # of connection points: 2
#     Edge 17, Type (0, 1), BuildingBlock: CIFDUS_clean_linker_0, # of connection points: 2
# Relax obj value: 0.081
# Max RMSD: 0.101
# Mean RMSD: 0.090
data_MOF--net-tsx--node1-FUNLAD_clean_sbu_0--node2-OLANEW_clean_sbu_2--edge1-CIFDUS_clean_linker_0
_symmetry_space_group_name_H-M    P1
_symmetry_Int_Tables_number       1
_symmetry_cell_setting            triclinic
loop_
_symmetry_equiv_pos_as_xyz
'x, y, z'
_cell_length_a     18.559157
_cell_length_b     20.666082
_cell_length_c     35.903791
_cell_angle_alpha  96.903556
_cell_angle_beta   92.169568
_cell_angle_gamma 89.826057
loop_
_atom_site_label
_atom_site_type_symbol
_atom_site_fract_x
_atom_site_fract_y
_atom_site_fract_z
_atom_type_partial_charge
C0 C 0.95133 0.9282 0.98876 0.0
N1 N 0.0577 0.98901 0.09054 0.0
C2 C 0.99186 0.98376 0.10537 0.0
C3 C 0.98624 0.97318 0.14279 0.0
C4 C 0.04896 0.9679 0.16534 0.0
C5 C 0.11629 0.97333 0.1493 0.0
C6 C 0.11944 0.98388 0.11165 0.0
Zn7 Zn 0.06162 0.00542 0.03555 0.0
C8 C 0.16341 0.91723 0.99264 0.0
N9 N 0.06472 0.043 0.92102 0.0
C10 C 0.99984 0.05106 0.9032 0.0
C11 C 0.12755 0.05084 0.90367 0.0
C12 C 0.12648 0.06858 0.86721 0.0
C13 C 0.06013 0.07766 0.84836 0.0
C14 C 0.99631 0.06808 0.86674 0.0
Zn15 Zn 0.06451 0.02476 0.97605 0.0
O16 O 0.98231 0.93411 0.02107 0.0
C17 C 0.96092 0.11096 0.01819 0.0
O18 O 0.97409 0.9608 0.96373 0.0
H19 H 0.17858 0.04439 0.91832 0.0
H20 H 0.94337 0.98813 0.0882 0.0
H21 H 0.95044 0.04571 0.91756 0.0
O22 O 0.97841 0.07618 0.04394 0.0
O23 O 0.99234 0.1025 0.98725 0.0
H24 H 0.17122 0.98803 0.09928 0.0
O25 O 0.15209 0.08944 0.99008 0.0
O26 O 0.14153 0.07764 0.0496 0.0
O27 O 0.13752 0.94573 0.96557 0.0
O28 O 0.14247 0.93425 0.0257 0.0
C29 C 0.17227 0.10426 0.02428 0.0
H30 H 0.93322 0.97029 0.1541 0.0
H31 H 0.16603 0.96889 0.16555 0.0
H32 H 0.17693 0.0751 0.85391 0.0
H33 H 0.94404 0.07551 0.85348 0.0
C34 C 0.43374 0.41018 0.48065 0.0
N35 N 0.52444 0.47483 0.58597 0.0
C36 C 0.4568 0.4671 0.59816 0.0
C37 C 0.44651 0.45488 0.6349 0.0
C38 C 0.50633 0.44992 0.65944 0.0
C39 C 0.57573 0.45691 0.64608 0.0
C40 C 0.58361 0.46979 0.60904 0.0
Zn41 Zn 0.53295 0.49475 0.53178 0.0
C42 C 0.64643 0.41725 0.49122 0.0
N43 N 0.54206 0.53742 0.41826 0.0
C44 C 0.47883 0.54096 0.39812 0.0
C45 C 0.60598 0.5518 0.40374 0.0
C46 C 0.60763 0.57207 0.36795 0.0
C47 C 0.54298 0.57687 0.34681 0.0
C48 C 0.47811 0.56027 0.36218 0.0
Zn49 Zn 0.53769 0.51615 0.47258 0.0
O50 O 0.46064 0.4187 0.51387 0.0
C51 C 0.42402 0.59325 0.51298 0.0
O52 O 0.45573 0.44479 0.45638 0.0
H53 H 0.65566 0.54877 0.42018 0.0
H54 H 0.41042 0.47053 0.57937 0.0
H55 H 0.42845 0.53029 0.41028 0.0
O56 O 0.44446 0.55989 0.53889 0.0
O57 O 0.45639 0.58704 0.48226 0.0
H58 H 0.63688 0.47609 0.59878 0.0
O59 O 0.61714 0.5875 0.49032 0.0
O60 O 0.60587 0.5714 0.54919 0.0
O61 O 0.62017 0.44473 0.46383 0.0
O62 O 0.62013 0.42999 0.52347 0.0
C63 C 0.635 0.60172 0.52487 0.0
H64 H 0.39216 0.44877 0.64393 0.0
H65 H 0.6232 0.45363 0.66425 0.0
H66 H 0.65886 0.58399 0.35698 0.0
H67 H 0.42697 0.56413 0.34705 0.0
O68 O 0.94363 0.83026 0.38054 0.0
Cd69 Cd 0.93764 0.83206 0.44852 0.0
O70 O 0.98007 0.93035 0.39666 0.0
Cd71 Cd 0.00074 0.03114 0.38773 0.0
O72 O 0.95827 0.12989 0.3943 0.0
C73 C 0.94462 0.15368 0.42757 0.0
O74 O 0.96301 0.12025 0.45536 0.0
C75 C 0.96571 0.88377 0.37099 0.0
C76 C 0.07144 0.79427 0.47549 0.0
O77 O 0.01852 0.75404 0.47091 0.0
O78 O 0.06049 0.85288 0.46844 0.0
O79 O 0.97898 0.22027 0.63536 0.0
Cd80 Cd 0.95304 0.2339 0.56911 0.0
O81 O 0.96904 0.11965 0.60957 0.0
Cd82 Cd 0.96514 0.01435 0.60819 0.0
O83 O 0.91941 0.91775 0.59449 0.0
C84 C 0.89191 0.88793 0.61943 0.0
O85 O 0.89556 0.91444 0.6546 0.0
C86 C 0.97863 0.15993 0.63895 0.0
C87 C 0.07911 0.24833 0.53153 0.0
O88 O 0.0392 0.29754 0.54165 0.0
O89 O 0.05907 0.19202 0.53869 0.0
O90 O 0.47915 0.27231 0.86923 0.0
Cd91 Cd 0.44736 0.25963 0.93338 0.0
O92 O 0.45548 0.37454 0.88723 0.0
Cd93 Cd 0.44487 0.47866 0.88297 0.0
O94 O 0.40426 0.57819 0.88953 0.0
C95 C 0.39918 0.60669 0.9227 0.0
O96 O 0.42163 0.57617 0.95104 0.0
C97 C 0.47454 0.33062 0.8616 0.0
C98 C 0.56603 0.22036 0.97437 0.0
O99 O 0.51871 0.17895 0.95967 0.0
O100 O 0.55653 0.28055 0.97023 0.0
O101 O 0.4764 0.73311 0.13734 0.0
Cd102 Cd 0.45696 0.75593 0.07224 0.0
O103 O 0.47818 0.63443 0.10804 0.0
Cd104 Cd 0.48366 0.52854 0.10273 0.0
O105 O 0.44648 0.4293 0.08668 0.0
C106 C 0.4353 0.41032 0.05197 0.0
O107 O 0.45112 0.44977 0.02735 0.0
C108 C 0.48087 0.67213 0.13875 0.0
C109 C 0.58703 0.77543 0.03929 0.0
O110 O 0.54686 0.82374 0.05076 0.0
O111 O 0.56548 0.71781 0.04299 0.0
H112 H 0.23894 0.17842 0.97822 0.0
H113 H 0.23259 0.14191 0.094 0.0
H114 H 0.31886 0.22987 0.11224 0.0
H115 H 0.38901 0.32201 0.09608 0.0
H116 H 0.39224 0.36097 0.98066 0.0
H117 H 0.31459 0.2668 0.96158 0.0
C118 C 0.25685 0.18931 0.00741 0.0
C119 C 0.22881 0.15403 0.03473 0.0
C120 C 0.30576 0.2405 0.01782 0.0
C121 C 0.25286 0.16864 0.07241 0.0
C122 C 0.30223 0.21893 0.0829 0.0
C123 C 0.37348 0.30952 0.06667 0.0
C124 C 0.39597 0.34881 0.0399 0.0
C125 C 0.32799 0.25592 0.05594 0.0
C126 C 0.37551 0.33173 0.00191 0.0
C127 C 0.33093 0.27796 0.99095 0.0
H128 H 0.20962 0.86071 0.92531 0.0
H129 H 0.23451 0.85223 0.04471 0.0
H130 H 0.31423 0.75845 0.0336 0.0
H131 H 0.37055 0.67473 0.99003 0.0
H132 H 0.34326 0.68106 0.87055 0.0
H133 H 0.27139 0.78015 0.88175 0.0
C134 C 0.23284 0.83865 0.94892 0.0
C135 C 0.21554 0.86318 0.98575 0.0
C136 C 0.27806 0.78418 0.94235 0.0
C137 C 0.2464 0.83409 0.01603 0.0
C138 C 0.29206 0.78042 0.00973 0.0
C139 C 0.34942 0.698 0.9664 0.0
C140 C 0.36177 0.67012 0.92951 0.0
C141 C 0.30728 0.75441 0.973 0.0
C142 C 0.33426 0.70124 0.89926 0.0
C143 C 0.293 0.75786 0.90562 0.0
H144 H 0.91509 0.8143 0.01305 0.0
H145 H 0.82975 0.97142 0.95598 0.0
H146 H 0.70676 0.93539 0.96458 0.0
H147 H 0.62429 0.86799 0.99613 0.0
H148 H 0.7095 0.70725 0.05018 0.0
H149 H 0.83188 0.73523 0.03468 0.0
C150 C 0.86944 0.83914 1.00142 0.0
C151 C 0.88101 0.89519 0.98392 0.0
C152 C 0.79906 0.81813 0.00649 0.0
C153 C 0.82188 0.92749 0.96906 0.0
C154 C 0.7516 0.90743 0.97442 0.0
C155 C 0.6697 0.83861 0.00392 0.0
C156 C 0.65851 0.78643 0.02475 0.0
C157 C 0.73963 0.85427 0.99431 0.0
C158 C 0.71719 0.74783 0.03423 0.0
C159 C 0.78708 0.76391 0.02548 0.0
H160 H 0.83122 0.0707 0.03583 0.0
H161 H 0.94263 0.23506 0.00171 0.0
H162 H 0.8272 0.28876 0.99049 0.0
H163 H 0.69551 0.28125 0.98186 0.0
H164 H 0.58545 0.10937 0.00748 0.0
H165 H 0.69911 0.06596 0.03062 0.0
C166 C 0.82994 0.11927 0.02719 0.0
C167 C 0.89469 0.14982 0.02026 0.0
C168 C 0.76359 0.14763 0.01855 0.0
C169 C 0.89303 0.21149 0.00772 0.0
C170 C 0.82719 0.24174 1.001 0.0
C171 C 0.69627 0.23494 0.99325 0.0
C172 C 0.63243 0.19843 0.99294 0.0
C173 C 0.76217 0.20919 0.00502 0.0
C174 C 0.63412 0.13811 0.00728 0.0
C175 C 0.69901 0.11334 0.02052 0.0
H176 H 0.6797 0.6479 0.59609 0.0
H177 H 0.71178 0.67118 0.47989 0.0
H178 H 0.79824 0.75856 0.49909 0.0
H179 H 0.86024 0.83144 0.54861 0.0
H180 H 0.82595 0.81094 0.66491 0.0
H181 H 0.74533 0.71867 0.6458 0.0
C182 C 0.70576 0.67192 0.57494 0.0
C183 C 0.6889 0.6533 0.53663 0.0
C184 C 0.75504 0.7225 0.58615 0.0
C185 C 0.72339 0.68479 0.5096 0.0
C186 C 0.77293 0.73472 0.52052 0.0
C187 C 0.83569 0.80652 0.56985 0.0
C188 C 0.84883 0.82829 0.60814 0.0
C189 C 0.78855 0.75439 0.5587 0.0
C190 C 0.81657 0.79532 0.63524 0.0
C191 C 0.77031 0.74267 0.62434 0.0
H192 H 0.71595 0.37924 0.42671 0.0
H193 H 0.71437 0.3519 0.54408 0.0
H194 H 0.81191 0.27294 0.53539 0.0
H195 H 0.89211 0.2066 0.4939 0.0
H196 H 0.8918 0.23106 0.37615 0.0
H197 H 0.80152 0.31706 0.38581 0.0
C198 C 0.73704 0.35615 0.45042 0.0
C199 C 0.70722 0.37097 0.48587 0.0
C200 C 0.79297 0.31038 0.44523 0.0
C201 C 0.73575 0.34101 0.51637 0.0
C202 C 0.7917 0.2959 0.51148 0.0
C203 C 0.87295 0.23116 0.47038 0.0
C204 C 0.89815 0.21189 0.43429 0.0
C205 C 0.81996 0.27953 0.47595 0.0
C206 C 0.87302 0.24464 0.40421 0.0
C207 C 0.82112 0.29364 0.40966 0.0
H208 H 0.40451 0.29627 0.50682 0.0
H209 H 0.31347 0.43955 0.4409 0.0
H210 H 0.1925 0.397 0.44768 0.0
H211 H 0.11222 0.33193 0.48206 0.0
H212 H 0.20368 0.18555 0.54566 0.0
H213 H 0.32507 0.21581 0.52985 0.0
C214 C 0.35831 0.31648 0.49283 0.0
C215 C 0.36743 0.37111 0.4737 0.0
C216 C 0.28905 0.2921 0.4971 0.0
C217 C 0.30759 0.39708 0.45555 0.0
C218 C 0.23834 0.37336 0.45987 0.0
C219 C 0.15881 0.30586 0.4917 0.0
C220 C 0.14963 0.2576 0.51552 0.0
C221 C 0.22828 0.32297 0.4821 0.0
C222 C 0.20982 0.22314 0.52741 0.0
C223 C 0.27916 0.24059 0.51853 0.0
H224 H 0.39448 0.70452 0.48263 0.0
H225 H 0.30471 0.56807 0.5502 0.0
H226 H 0.18703 0.62094 0.54653 0.0
H227 H 0.10723 0.69909 0.51857 0.0
H228 H 0.19867 0.83967 0.45423 0.0
H229 H 0.3184 0.79267 0.46248 0.0
C230 C 0.34934 0.68726 0.49708 0.0
C231 C 0.35773 0.63238 0.51637 0.0
C232 C 0.28219 0.71828 0.49518 0.0
C233 C 0.29936 0.61055 0.53532 0.0
C234 C 0.23201 0.64042 0.533 0.0
C235 C 0.15366 0.71986 0.50685 0.0
C236 C 0.14434 0.77205 0.48544 0.0
C237 C 0.2224 0.69323 0.51217 0.0
C238 C 0.20476 0.79938 0.47081 0.0
C239 C 0.27309 0.77236 0.47534 0.0
H240 H 0.95692 0.88756 0.19538 0.0
H241 H 0.12952 0.0257 0.22552 0.0
H242 H 0.11939 0.0113 0.29163 0.0
H243 H 0.06126 0.95985 0.34086 0.0
H244 H 0.88713 0.82353 0.31116 0.0
H245 H 0.89827 0.83659 0.24477 0.0
C246 C 0.99194 0.91493 0.21644 0.0
C247 C 0.04381 0.95776 0.20546 0.0
C248 C 0.98546 0.90681 0.25444 0.0
C249 C 0.0897 0.99186 0.23308 0.0
C250 C 0.08363 0.984 0.27094 0.0
C251 C 0.02466 0.93418 0.31996 0.0
C252 C 0.97223 0.8921 0.33095 0.0
C253 C 0.03148 0.94189 0.28194 0.0
C254 C 0.92754 0.85664 0.30337 0.0
C255 C 0.93384 0.86413 0.26545 0.0
H256 H 0.97384 0.02935 0.7888 0.0
H257 H 0.13866 0.17349 0.82235 0.0
H258 H 0.12783 0.21243 0.76062 0.0
H259 H 0.06888 0.20711 0.69732 0.0
H260 H 0.90473 0.06215 0.66439 0.0
H261 H 0.91745 0.02222 0.72557 0.0
C262 C 0.0073 0.06937 0.78261 0.0
C263 C 0.05675 0.09864 0.81016 0.0
C264 C 0.00076 0.09143 0.74714 0.0
C265 C 0.10058 0.14977 0.80151 0.0
C266 C 0.09405 0.17235 0.76632 0.0
C267 C 0.03604 0.16681 0.70369 0.0
C268 C 0.9867 0.13694 0.67628 0.0
C269 C 0.04392 0.14387 0.73898 0.0
C270 C 0.9444 0.08477 0.68471 0.0
C271 C 0.95122 0.06226 0.7198 0.0
H272 H 0.57556 0.36166 0.69858 0.0
H273 H 0.4119 0.51077 0.70813 0.0
H274 H 0.38814 0.48753 0.77162 0.0
H275 H 0.41038 0.42202 0.82335 0.0
H276 H 0.57322 0.27242 0.81439 0.0
H277 H 0.60004 0.29771 0.75145 0.0
C278 C 0.53536 0.38949 0.7148 0.0
C279 C 0.49547 0.43776 0.69871 0.0
C280 C 0.52144 0.37541 0.7512 0.0
C281 C 0.4428 0.47292 0.71979 0.0
C282 C 0.42928 0.45977 0.7561 0.0
C283 C 0.45304 0.39617 0.80806 0.0
C284 C 0.49097 0.34655 0.82381 0.0
C285 C 0.46788 0.41084 0.77197 0.0
C286 C 0.54357 0.31112 0.80285 0.0
C287 C 0.55903 0.32567 0.76695 0.0
H288 H 0.46984 0.52623 0.28301 0.0
H289 H 0.61442 0.68224 0.32699 0.0
H290 H 0.60801 0.72589 0.26655 0.0
H291 H 0.55847 0.72119 0.2014 0.0
H292 H 0.41457 0.56449 0.15784 0.0
H293 H 0.42319 0.5198 0.21777 0.0
C294 C 0.49986 0.56983 0.27934 0.0
C295 C 0.54234 0.60105 0.30946 0.0
C296 C 0.49597 0.59454 0.24456 0.0
C297 C 0.58181 0.65697 0.30414 0.0
C298 C 0.57779 0.68219 0.26967 0.0
C299 C 0.52919 0.67723 0.20515 0.0
C300 C 0.48685 0.64557 0.17514 0.0
C301 C 0.53462 0.65166 0.23974 0.0
C302 C 0.44908 0.58869 0.18021 0.0
C303 C 0.45346 0.56344 0.21459 0.0
loop_
_geom_bond_atom_site_label_1
_geom_bond_atom_site_label_2
_geom_bond_distance
_geom_bond_site_symmetry_2
_ccdc_geom_bond_type
C0 O16 1.264 . S
C0 O18 1.239 1_554 S
N1 C2 1.333 1_455 S
N1 C6 1.307 . S
N1 Zn7 2.020 . S
C2 N1 1.333 1_655 S
C2 C3 1.379 . S
C2 H20 0.952 1_545 S
C3 C2 1.379 . S
C3 C4 1.390 1_655 S
C3 H30 0.949 . S
C4 C3 1.390 1_455 S
C4 C5 1.357 . S
C5 C4 1.357 . S
C5 C6 1.370 . S
C5 H31 0.950 . S
C6 N1 1.307 . S
C6 C5 1.370 . S
C6 H24 0.948 . S
Zn7 N1 2.020 . S
Zn7 O16 2.039 1_445 S
Zn7 O22 2.034 1_455 S
Zn7 O26 2.025 . S
Zn7 O28 2.024 1_545 S
C8 O27 1.221 1_554 S
C8 O28 1.274 . S
N9 C10 1.307 1_445 S
N9 C11 1.333 . S
N9 Zn15 2.020 . S
C10 N9 1.307 1_665 S
C10 C14 1.370 . S
C10 H21 0.948 . S
C11 N9 1.333 . S
C11 C12 1.379 . S
C11 H19 0.952 . S
C12 C11 1.379 . S
C12 C13 1.390 1_545 S
C12 H32 0.949 . S
C13 C12 1.390 1_565 S
C13 C14 1.357 1_455 S
C14 C10 1.370 . S
C14 C13 1.357 1_655 S
C14 H33 0.950 . S
Zn15 N9 2.020 . S
Zn15 O18 2.025 1_445 S
Zn15 O23 2.024 1_455 S
Zn15 O25 2.039 . S
Zn15 O27 2.034 1_545 S
O16 C0 1.264 . S
O16 Zn7 2.039 1_665 S
C17 O22 1.246 . S
C17 O23 1.249 1_554 S
O18 C0 1.239 1_556 S
O18 Zn15 2.025 1_665 S
H19 C11 0.952 . S
H20 C2 0.952 1_565 S
H21 C10 0.948 . S
O22 Zn7 2.034 1_655 S
O22 C17 1.246 . S
O23 Zn15 2.024 1_655 S
O23 C17 1.249 1_556 S
H24 C6 0.948 . S
O25 Zn15 2.039 . S
O25 C29 1.251 1_556 S
O26 Zn7 2.025 . S
O26 C29 1.254 . S
O27 C8 1.221 1_556 S
O27 Zn15 2.034 1_565 S
O28 Zn7 2.024 1_565 S
O28 C8 1.274 . S
C29 O25 1.251 1_554 S
C29 O26 1.254 . S
H30 C3 0.949 . S
H31 C5 0.950 . S
H32 C12 0.949 . S
H33 C14 0.950 . S
C34 O50 1.251 . S
C34 O52 1.254 . S
N35 C36 1.333 . S
N35 C40 1.307 . S
N35 Zn41 2.020 . S
C36 N35 1.333 . S
C36 C37 1.379 . S
C36 H54 0.952 . S
C37 C36 1.379 . S
C37 C38 1.390 . S
C37 H64 0.949 . S
C38 C37 1.390 . S
C38 C39 1.357 . S
C39 C38 1.357 . S
C39 C40 1.370 . S
C39 H65 0.950 . S
C40 N35 1.307 . S
C40 C39 1.370 . S
C40 H58 0.948 . S
Zn41 N35 2.020 . S
Zn41 O50 2.039 . S
Zn41 O56 2.034 . S
Zn41 O60 2.025 . S
Zn41 O62 2.024 . S
C42 O61 1.246 . S
C42 O62 1.249 . S
N43 C44 1.307 . S
N43 C45 1.333 . S
N43 Zn49 2.020 . S
C44 N43 1.307 . S
C44 C48 1.370 . S
C44 H55 0.948 . S
C45 N43 1.333 . S
C45 C46 1.379 . S
C45 H53 0.952 . S
C46 C45 1.379 . S
C46 C47 1.390 . S
C46 H66 0.949 . S
C47 C46 1.390 . S
C47 C48 1.357 . S
C48 C44 1.370 . S
C48 C47 1.357 . S
C48 H67 0.950 . S
Zn49 N43 2.020 . S
Zn49 O52 2.025 . S
Zn49 O57 2.024 . S
Zn49 O59 2.039 . S
Zn49 O61 2.034 . S
O50 C34 1.251 . S
O50 Zn41 2.039 . S
C51 O56 1.246 . S
C51 O57 1.249 . S
O52 C34 1.254 . S
O52 Zn49 2.025 . S
H53 C45 0.952 . S
H54 C36 0.952 . S
H55 C44 0.948 . S
O56 Zn41 2.034 . S
O56 C51 1.246 . S
O57 Zn49 2.024 . S
O57 C51 1.249 . S
H58 C40 0.948 . S
O59 Zn49 2.039 . S
O59 C63 1.251 . S
O60 Zn41 2.025 . S
O60 C63 1.254 . S
O61 C42 1.246 . S
O61 Zn49 2.034 . S
O62 Zn41 2.024 . S
O62 C42 1.249 . S
C63 O59 1.251 . S
C63 O60 1.254 . S
H64 C37 0.949 . S
H65 C39 0.950 . S
H66 C46 0.949 . S
H67 C48 0.950 . S
O68 Cd69 2.300 1_565 S
O68 C75 1.275 1_565 S
Cd69 O68 2.300 1_545 S
Cd69 O77 2.381 1_545 S
Cd69 O78 2.378 1_545 S
O70 Cd71 2.385 . S
O70 C75 1.255 . S
Cd71 O70 2.385 . S
Cd71 O72 2.317 1_455 S
O72 Cd71 2.317 1_655 S
O72 C73 1.232 . S
C73 O72 1.232 . S
C73 O74 1.218 . S
O74 C73 1.218 . S
C75 O68 1.275 1_545 S
C75 O70 1.255 . S
C76 O77 1.258 . S
C76 O78 1.256 . S
O77 Cd69 2.381 1_565 S
O77 C76 1.258 . S
O78 Cd69 2.378 1_565 S
O78 C76 1.256 . S
O79 Cd80 2.300 . S
O79 C86 1.275 1_545 S
Cd80 O79 2.300 . S
Cd80 O88 2.381 . S
Cd80 O89 2.378 . S
O81 Cd82 2.385 . S
O81 C86 1.255 . S
Cd82 O81 2.385 . S
Cd82 O83 2.317 1_455 S
O83 Cd82 2.317 1_655 S
O83 C84 1.232 . S
C84 O83 1.232 . S
C84 O85 1.218 . S
O85 C84 1.218 . S
C86 O79 1.275 1_565 S
C86 O81 1.255 . S
C87 O88 1.258 . S
C87 O89 1.256 . S
O88 Cd80 2.381 . S
O88 C87 1.258 . S
O89 Cd80 2.378 . S
O89 C87 1.256 . S
O90 Cd91 2.300 . S
O90 C97 1.275 . S
Cd91 O90 2.300 . S
Cd91 O99 2.381 . S
Cd91 O100 2.378 1_556 S
O92 Cd93 2.385 . S
O92 C97 1.255 . S
Cd93 O92 2.385 . S
Cd93 O94 2.317 . S
O94 Cd93 2.317 . S
O94 C95 1.232 . S
C95 O94 1.232 . S
C95 O96 1.218 . S
O96 C95 1.218 . S
C97 O90 1.275 . S
C97 O92 1.255 . S
C98 O99 1.258 . S
C98 O100 1.256 1_556 S
O99 Cd91 2.381 . S
O99 C98 1.258 . S
O100 Cd91 2.378 1_554 S
O100 C98 1.256 1_554 S
O101 Cd102 2.300 . S
O101 C108 1.275 . S
Cd102 O101 2.300 . S
Cd102 O110 2.381 . S
Cd102 O111 2.378 1_554 S
O103 Cd104 2.385 . S
O103 C108 1.255 . S
Cd104 O103 2.385 . S
Cd104 O105 2.317 . S
O105 Cd104 2.317 . S
O105 C106 1.232 . S
C106 O105 1.232 . S
C106 O107 1.218 . S
O107 C106 1.218 . S
C108 O101 1.275 . S
C108 O103 1.255 . S
C109 O110 1.258 . S
C109 O111 1.256 1_554 S
O110 Cd102 2.381 . S
O110 C109 1.258 . S
O111 Cd102 2.378 1_556 S
O111 C109 1.256 1_556 S
H112 C118 0.930 . S
H113 C121 0.930 . S
H114 C122 0.930 . S
H115 C123 0.930 . S
H116 C126 0.930 . S
H117 C127 0.930 . S
C118 H112 0.930 . S
C118 C119 1.355 1_556 S
C118 C120 1.415 . S
C119 C118 1.355 1_554 S
C119 C121 1.419 . S
C120 C118 1.415 . S
C120 C125 1.425 1_556 S
C120 C127 1.409 . S
C121 H113 0.930 . S
C121 C119 1.419 . S
C121 C122 1.362 . S
C122 H114 0.930 . S
C122 C121 1.362 . S
C122 C125 1.409 . S
C123 H115 0.930 . S
C123 C124 1.355 . S
C123 C125 1.415 . S
C124 C123 1.355 . S
C124 C126 1.419 1_554 S
C125 C120 1.425 1_554 S
C125 C122 1.409 . S
C125 C123 1.415 . S
C126 H116 0.930 . S
C126 C124 1.419 1_556 S
C126 C127 1.362 . S
C127 H117 0.930 . S
C127 C120 1.409 . S
C127 C126 1.362 . S
H128 C134 0.928 . S
H129 C137 0.930 . S
H130 C138 0.930 . S
H131 C139 0.930 . S
H132 C142 0.930 . S
H133 C143 0.930 1_554 S
C134 H128 0.928 . S
C134 C135 1.355 . S
C134 C136 1.415 . S
C135 C134 1.355 . S
C135 C137 1.419 . S
C136 C134 1.415 . S
C136 C141 1.425 . S
C136 C143 1.409 . S
C137 H129 0.930 . S
C137 C135 1.419 . S
C137 C138 1.362 . S
C138 H130 0.930 . S
C138 C137 1.362 . S
C138 C141 1.409 . S
C139 H131 0.930 . S
C139 C140 1.355 . S
C139 C141 1.415 . S
C140 C139 1.355 . S
C140 C142 1.419 . S
C141 C136 1.425 . S
C141 C138 1.409 . S
C141 C139 1.415 . S
C142 H132 0.930 . S
C142 C140 1.419 . S
C142 C143 1.362 . S
C143 H133 0.930 1_556 S
C143 C136 1.409 . S
C143 C142 1.362 . S
H144 C150 0.930 . S
H145 C153 0.930 . S
H146 C154 0.930 . S
H147 C155 0.930 . S
H148 C158 0.930 . S
H149 C159 0.930 . S
C150 H144 0.930 . S
C150 C151 1.355 1_554 S
C150 C152 1.415 . S
C151 C150 1.355 1_556 S
C151 C153 1.419 . S
C152 C150 1.415 . S
C152 C157 1.425 1_554 S
C152 C159 1.409 . S
C153 H145 0.930 . S
C153 C151 1.419 . S
C153 C154 1.362 . S
C154 H146 0.930 . S
C154 C153 1.362 . S
C154 C157 1.409 . S
C155 H147 0.930 . S
C155 C156 1.355 1_556 S
C155 C157 1.415 . S
C156 C155 1.355 1_554 S
C156 C158 1.419 . S
C157 C152 1.425 1_556 S
C157 C154 1.409 . S
C157 C155 1.415 . S
C158 H148 0.930 . S
C158 C156 1.419 . S
C158 C159 1.362 . S
C159 H149 0.930 . S
C159 C152 1.409 . S
C159 C158 1.362 . S
H160 C166 0.930 . S
H161 C169 0.930 . S
H162 C170 0.930 . S
H163 C171 0.930 . S
H164 C174 0.930 . S
H165 C175 0.930 . S
C166 H160 0.930 . S
C166 C167 1.355 1_556 S
C166 C168 1.415 . S
C167 C166 1.355 1_554 S
C167 C169 1.419 . S
C168 C166 1.415 . S
C168 C173 1.425 1_556 S
C168 C175 1.409 . S
C169 H161 0.930 . S
C169 C167 1.419 . S
C169 C170 1.362 . S
C170 H162 0.930 . S
C170 C169 1.362 . S
C170 C173 1.409 . S
C171 H163 0.930 . S
C171 C172 1.355 . S
C171 C173 1.415 . S
C172 C171 1.355 . S
C172 C174 1.419 1_554 S
C173 C168 1.425 1_554 S
C173 C170 1.409 . S
C173 C171 1.415 . S
C174 H164 0.930 . S
C174 C172 1.419 1_556 S
C174 C175 1.362 . S
C175 H165 0.930 . S
C175 C168 1.409 . S
C175 C174 1.362 . S
H176 C182 0.930 . S
H177 C185 0.930 . S
H178 C186 0.930 . S
H179 C187 0.930 . S
H180 C190 0.930 . S
H181 C191 0.930 . S
C182 H176 0.930 . S
C182 C183 1.355 . S
C182 C184 1.415 . S
C183 C182 1.355 . S
C183 C185 1.419 . S
C184 C182 1.415 . S
C184 C189 1.425 . S
C184 C191 1.409 . S
C185 H177 0.930 . S
C185 C183 1.419 . S
C185 C186 1.362 . S
C186 H178 0.930 . S
C186 C185 1.362 . S
C186 C189 1.409 . S
C187 H179 0.930 . S
C187 C188 1.355 . S
C187 C189 1.415 . S
C188 C187 1.355 . S
C188 C190 1.419 . S
C189 C184 1.425 . S
C189 C186 1.409 . S
C189 C187 1.415 . S
C190 H180 0.930 . S
C190 C188 1.419 . S
C190 C191 1.362 . S
C191 H181 0.930 . S
C191 C184 1.409 . S
C191 C190 1.362 . S
H192 C198 0.930 . S
H193 C201 0.930 . S
H194 C202 0.930 . S
H195 C203 0.930 . S
H196 C206 0.930 . S
H197 C207 0.930 . S
C198 H192 0.930 . S
C198 C199 1.355 . S
C198 C200 1.415 . S
C199 C198 1.355 . S
C199 C201 1.419 . S
C200 C198 1.415 . S
C200 C205 1.425 . S
C200 C207 1.409 . S
C201 H193 0.930 . S
C201 C199 1.419 . S
C201 C202 1.362 . S
C202 H194 0.930 . S
C202 C201 1.362 . S
C202 C205 1.409 . S
C203 H195 0.930 . S
C203 C204 1.355 . S
C203 C205 1.415 . S
C204 C203 1.355 . S
C204 C206 1.419 . S
C205 C200 1.425 . S
C205 C202 1.409 . S
C205 C203 1.415 . S
C206 H196 0.930 . S
C206 C204 1.419 . S
C206 C207 1.362 . S
C207 H197 0.930 . S
C207 C200 1.409 . S
C207 C206 1.362 . S
H208 C214 0.930 . S
H209 C217 0.930 . S
H210 C218 0.930 . S
H211 C219 0.930 . S
H212 C222 0.930 . S
H213 C223 0.930 . S
C214 H208 0.930 . S
C214 C215 1.355 . S
C214 C216 1.415 . S
C215 C214 1.355 . S
C215 C217 1.419 . S
C216 C214 1.415 . S
C216 C221 1.425 . S
C216 C223 1.409 . S
C217 H209 0.930 . S
C217 C215 1.419 . S
C217 C218 1.362 . S
C218 H210 0.930 . S
C218 C217 1.362 . S
C218 C221 1.409 . S
C219 H211 0.930 . S
C219 C220 1.355 . S
C219 C221 1.415 . S
C220 C219 1.355 . S
C220 C222 1.419 . S
C221 C216 1.425 . S
C221 C218 1.409 . S
C221 C219 1.415 . S
C222 H212 0.930 . S
C222 C220 1.419 . S
C222 C223 1.362 . S
C223 H213 0.930 . S
C223 C216 1.409 . S
C223 C222 1.362 . S
H224 C230 0.930 . S
H225 C233 0.930 . S
H226 C234 0.930 . S
H227 C235 0.930 . S
H228 C238 0.930 . S
H229 C239 0.930 . S
C230 H224 0.930 . S
C230 C231 1.355 . S
C230 C232 1.415 . S
C231 C230 1.355 . S
C231 C233 1.419 . S
C232 C230 1.415 . S
C232 C237 1.425 . S
C232 C239 1.409 . S
C233 H225 0.930 . S
C233 C231 1.419 . S
C233 C234 1.362 . S
C234 H226 0.930 . S
C234 C233 1.362 . S
C234 C237 1.409 . S
C235 H227 0.930 . S
C235 C236 1.355 . S
C235 C237 1.415 . S
C236 C235 1.355 . S
C236 C238 1.419 . S
C237 C232 1.425 . S
C237 C234 1.409 . S
C237 C235 1.415 . S
C238 H228 0.930 . S
C238 C236 1.419 . S
C238 C239 1.362 . S
C239 H229 0.930 . S
C239 C232 1.409 . S
C239 C238 1.362 . S
H240 C246 0.930 1_565 S
H241 C249 0.930 . S
H242 C250 0.930 . S
H243 C251 0.930 . S
H244 C254 0.930 . S
H245 C255 0.930 . S
C246 H240 0.930 1_545 S
C246 C247 1.355 1_655 S
C246 C248 1.415 . S
C247 C246 1.355 1_455 S
C247 C249 1.419 . S
C248 C246 1.415 . S
C248 C253 1.425 1_655 S
C248 C255 1.409 1_545 S
C249 H241 0.930 . S
C249 C247 1.419 . S
C249 C250 1.362 . S
C250 H242 0.930 . S
C250 C249 1.362 . S
C250 C253 1.409 . S
C251 H243 0.930 . S
C251 C252 1.355 . S
C251 C253 1.415 . S
C252 C251 1.355 . S
C252 C254 1.419 1_445 S
C253 C248 1.425 1_455 S
C253 C250 1.409 . S
C253 C251 1.415 . S
C254 H244 0.930 . S
C254 C252 1.419 1_665 S
C254 C255 1.362 . S
C255 H245 0.930 . S
C255 C248 1.409 1_565 S
C255 C254 1.362 . S
H256 C262 0.930 . S
H257 C265 0.930 . S
H258 C266 0.930 . S
H259 C267 0.930 . S
H260 C270 0.930 . S
H261 C271 0.930 . S
C262 H256 0.930 . S
C262 C263 1.355 1_665 S
C262 C264 1.415 1_655 S
C263 C262 1.355 1_445 S
C263 C265 1.419 . S
C264 C262 1.415 1_455 S
C264 C269 1.425 1_565 S
C264 C271 1.409 1_455 S
C265 H257 0.930 . S
C265 C263 1.419 . S
C265 C266 1.362 . S
C266 H258 0.930 . S
C266 C265 1.362 . S
C266 C269 1.409 . S
C267 H259 0.930 . S
C267 C268 1.355 1_545 S
C267 C269 1.415 . S
C268 C267 1.355 1_565 S
C268 C270 1.419 1_455 S
C269 C264 1.425 1_545 S
C269 C266 1.409 . S
C269 C267 1.415 . S
C270 H260 0.930 . S
C270 C268 1.419 1_655 S
C270 C271 1.362 . S
C271 H261 0.930 . S
C271 C264 1.409 1_655 S
C271 C270 1.362 . S
H272 C278 0.930 . S
H273 C281 0.930 . S
H274 C282 0.930 . S
H275 C283 0.930 . S
H276 C286 0.930 . S
H277 C287 0.930 . S
C278 H272 0.930 . S
C278 C279 1.355 . S
C278 C280 1.415 . S
C279 C278 1.355 . S
C279 C281 1.419 . S
C280 C278 1.415 . S
C280 C285 1.425 . S
C280 C287 1.409 . S
C281 H273 0.930 . S
C281 C279 1.419 . S
C281 C282 1.362 . S
C282 H274 0.930 . S
C282 C281 1.362 . S
C282 C285 1.409 . S
C283 H275 0.930 . S
C283 C284 1.355 . S
C283 C285 1.415 . S
C284 C283 1.355 . S
C284 C286 1.419 . S
C285 C280 1.425 . S
C285 C282 1.409 . S
C285 C283 1.415 . S
C286 H276 0.930 . S
C286 C284 1.419 . S
C286 C287 1.362 . S
C287 H277 0.930 . S
C287 C280 1.409 . S
C287 C286 1.362 . S
H288 C294 0.930 . S
H289 C297 0.930 . S
H290 C298 0.930 . S
H291 C299 0.930 . S
H292 C302 0.930 . S
H293 C303 0.930 . S
C294 H288 0.930 . S
C294 C295 1.355 . S
C294 C296 1.415 . S
C295 C294 1.355 . S
C295 C297 1.419 . S
C296 C294 1.415 . S
C296 C301 1.425 . S
C296 C303 1.409 . S
C297 H289 0.930 . S
C297 C295 1.419 . S
C297 C298 1.362 . S
C298 H290 0.930 . S
C298 C297 1.362 . S
C298 C301 1.409 . S
C299 H291 0.930 . S
C299 C300 1.355 . S
C299 C301 1.415 . S
C300 C299 1.355 . S
C300 C302 1.419 . S
C301 C296 1.425 . S
C301 C298 1.409 . S
C301 C299 1.415 . S
C302 H292 0.930 . S
C302 C300 1.419 . S
C302 C303 1.362 . S
C303 H293 0.930 . S
C303 C296 1.409 . S
C303 C302 1.362 . S
C124 C106 1.329 . S
C119 C29 1.489 . S
C135 C8 1.502 1_556 S
C140 C95 1.214 . S
C151 C0 1.466 1_556 S
C156 C109 1.401 . S
C167 C17 1.464 . S
C172 C98 1.402 1_554 S
C183 C63 1.490 . S
C188 C84 1.311 . S
C199 C42 1.502 . S
C204 C73 1.223 . S
C220 C87 1.451 . S
C215 C34 1.460 . S
C236 C76 1.396 . S
C231 C51 1.451 . S
C247 C4 1.501 . S
C252 C75 1.465 . S
C263 C13 1.501 1_545 S
C268 C86 1.476 . S
C284 C97 1.425 . S
C279 C38 1.507 . S
C295 C47 1.501 . S
C300 C108 1.480 . S
