# Generated by pormake.
# Topology rtl, (3,6)-cn, num edge types: 1
# Building blocks:
#     Node 0, Type 0, BuildingBlock: WUSLED_clean_sbu_0, # of connection points: 3
#     Node 1, Type 0, BuildingBlock: WUSLED_clean_sbu_0, # of connection points: 3
#     Node 2, Type 0, BuildingBlock: WUSLED_clean_sbu_0, # of connection points: 3
#     Node 3, Type 0, BuildingBlock: WUSLED_clean_sbu_0, # of connection points: 3
#     Node 4, Type 1, BuildingBlock: LEVNOQ01_clean_sbu_1, # of connection points: 6
#     Node 5, Type 1, BuildingBlock: LEVNOQ01_clean_sbu_1, # of connection points: 6
#     Edge 6, Type (0, 1), BuildingBlock: TEMPAE_clean_linker_10, # of connection points: 2
#     Edge 7, Type (0, 1), BuildingBlock: TEMPAE_clean_linker_10, # of connection points: 2
#     Edge 8, Type (0, 1), BuildingBlock: TEMPAE_clean_linker_10, # of connection points: 2
#     Edge 9, Type (0, 1), BuildingBlock: TEMPAE_clean_linker_10, # of connection points: 2
#     Edge 10, Type (0, 1), BuildingBlock: TEMPAE_clean_linker_10, # of connection points: 2
#     Edge 11, Type (0, 1), BuildingBlock: TEMPAE_clean_linker_10, # of connection points: 2
#     Edge 12, Type (0, 1), BuildingBlock: TEMPAE_clean_linker_10, # of connection points: 2
#     Edge 13, Type (0, 1), BuildingBlock: TEMPAE_clean_linker_10, # of connection points: 2
#     Edge 14, Type (0, 1), BuildingBlock: TEMPAE_clean_linker_10, # of connection points: 2
#     Edge 15, Type (0, 1), BuildingBlock: TEMPAE_clean_linker_10, # of connection points: 2
#     Edge 16, Type (0, 1), BuildingBlock: TEMPAE_clean_linker_10, # of connection points: 2
#     Edge 17, Type (0, 1), BuildingBlock: TEMPAE_clean_linker_10, # of connection points: 2
# Relax obj value: 0.023
# Max RMSD: 0.059
# Mean RMSD: 0.042
data_MOF--net-rtl--node1-WUSLED_clean_sbu_0--node2-LEVNOQ01_clean_sbu_1--edge1-TEMPAE_clean_linker_10
_symmetry_space_group_name_H-M    P1
_symmetry_Int_Tables_number       1
_symmetry_cell_setting            triclinic
loop_
_symmetry_equiv_pos_as_xyz
'x, y, z'
_cell_length_a     40.534265
_cell_length_b     45.607441
_cell_length_c     31.688766
_cell_angle_alpha  90.179311
_cell_angle_beta   98.211244
_cell_angle_gamma 90.269624
loop_
_atom_site_label
_atom_site_type_symbol
_atom_site_fract_x
_atom_site_fract_y
_atom_site_fract_z
_atom_type_partial_charge
C0 C 0.16557 0.84484 0.19398 0.0
C1 C 0.14784 0.87055 0.18199 0.0
C2 C 0.14013 0.87936 0.25587 0.0
C3 C 0.1353 0.88772 0.2127 0.0
C4 C 0.15823 0.8537 0.26766 0.0
C5 C 0.17084 0.83662 0.23696 0.0
U6 U 0.16959 0.82374 0.07828 0.0
O7 O 0.21205 0.80966 0.04729 0.0
O8 O 0.16931 0.78007 0.04841 0.0
C9 C 0.19962 0.78326 0.03888 0.0
C10 C 0.178 0.82608 0.16195 0.0
C11 C 0.22251 0.75879 0.05084 0.0
C12 C 0.26282 0.73341 0.10211 0.0
C13 C 0.23994 0.75619 0.09225 0.0
C14 C 0.25031 0.71532 0.02958 0.0
C15 C 0.26847 0.71282 0.07073 0.0
C16 C 0.22759 0.73806 0.0198 0.0
C17 C 0.12033 0.86866 0.98867 0.0
C18 C 0.12324 0.86023 0.91345 0.0
C19 C 0.08886 0.89931 0.93495 0.0
C20 C 0.09819 0.89177 0.97767 0.0
C21 C 0.10155 0.88387 0.9023 0.0
C22 C 0.13261 0.85271 0.95634 0.0
C23 C 0.13094 0.86213 0.03399 0.0
O24 O 0.15541 0.80941 0.13948 0.0
O25 O 0.19824 0.83888 0.13869 0.0
O26 O 0.16262 0.86698 0.04792 0.0
O27 O 0.1198 0.83737 0.04786 0.0
H28 H 0.14339 0.87714 0.14885 0.0
H29 H 0.12112 0.90715 0.20251 0.0
H30 H 0.16267 0.84684 0.30067 0.0
H31 H 0.18452 0.81685 0.24674 0.0
H32 H 0.27624 0.73202 0.13413 0.0
H33 H 0.23618 0.77198 0.11671 0.0
H34 H 0.25445 0.70025 1.0044 0.0
H35 H 0.2144 0.73977 0.98766 0.0
H36 H 0.13367 0.84807 0.88913 0.0
H37 H 0.07173 0.91733 0.92746 0.0
H38 H 0.08838 0.90424 1.00222 0.0
H39 H 0.1498 0.83479 0.96433 0.0
C40 C 0.72635 0.64889 0.71416 0.0
C41 C 0.69678 0.65862 0.72792 0.0
C42 C 0.69835 0.6182 0.77832 0.0
C43 C 0.68295 0.64346 0.75945 0.0
C44 C 0.72807 0.60853 0.76487 0.0
C45 C 0.74194 0.62373 0.7332 0.0
U46 U 0.73546 0.66827 0.59822 0.0
O47 O 0.7394 0.7113 0.56833 0.0
O48 O 0.78014 0.67964 0.56931 0.0
C49 C 0.76958 0.7063 0.5595 0.0
C50 C 0.74165 0.66577 0.68181 0.0
C51 C 0.79386 0.73023 0.5699 0.0
C52 C 0.82406 0.76505 0.61973 0.0
C53 C 0.80238 0.74094 0.61165 0.0
C54 C 0.82912 0.76745 0.54456 0.0
C55 C 0.83753 0.77874 0.58615 0.0
C56 C 0.80762 0.74346 0.53662 0.0
C57 C 0.68193 0.62709 0.50628 0.0
C58 C 0.65817 0.64333 0.43524 0.0
C59 C 0.66806 0.59168 0.44885 0.0
C60 C 0.68059 0.59808 0.49132 0.0
C61 C 0.65639 0.61418 0.42038 0.0
C62 C 0.67096 0.64975 0.47773 0.0
C63 C 0.6935 0.63283 0.552 0.0
O64 O 0.76101 0.65119 0.65924 0.0
O65 O 0.72219 0.68455 0.65887 0.0
O66 O 0.68464 0.65791 0.56749 0.0
O67 O 0.72451 0.62567 0.56599 0.0
H68 H 0.68437 0.67821 0.71468 0.0
H69 H 0.66046 0.65195 0.76968 0.0
H70 H 0.74053 0.58912 0.77864 0.0
H71 H 0.76501 0.61586 0.72381 0.0
H72 H 0.83012 0.77305 0.65213 0.0
H73 H 0.7919 0.73095 0.63777 0.0
H74 H 0.83828 0.77773 0.51772 0.0
H75 H 0.80113 0.73562 0.50416 0.0
H76 H 0.64964 0.66115 0.41401 0.0
H77 H 0.66663 0.56896 0.43862 0.0
H78 H 0.68874 0.58023 0.51274 0.0
H79 H 0.67185 0.67239 0.4883 0.0
C80 C 0.85191 0.21243 0.14691 0.0
C81 C 0.87601 0.1906 0.14551 0.0
C82 C 0.88435 0.18753 0.22321 0.0
C83 C 0.89211 0.17827 0.18332 0.0
C84 C 0.86041 0.20968 0.22427 0.0
C85 C 0.84437 0.22199 0.18647 0.0
U86 U 0.83202 0.21535 0.02536 0.0
O87 O 0.7844 0.22122 0.98368 0.0
O88 O 0.82441 0.25371 0.98285 0.0
C89 C 0.79295 0.24703 0.9702 0.0
C90 C 0.83416 0.22513 0.10749 0.0
C91 C 0.76871 0.27102 0.97196 0.0
C92 C 0.71871 0.2907 0.99555 0.0
C93 C 0.74187 0.26814 0.99529 0.0
C94 C 0.74897 0.31976 0.94984 0.0
C95 C 0.72195 0.31674 0.9728 0.0
C96 C 0.77201 0.29702 0.94923 0.0
C97 C 0.87409 0.16128 0.95758 0.0
C98 C 0.86993 0.16427 0.8804 0.0
C99 C 0.89705 0.12269 0.91781 0.0
C100 C 0.89066 0.13449 0.95655 0.0
C101 C 0.88699 0.13752 0.87927 0.0
C102 C 0.86344 0.17602 0.91927 0.0
C103 C 0.8685 0.17356 0.99891 0.0
O104 O 0.85287 0.23927 0.08357 0.0
O105 O 0.81192 0.20793 0.08542 0.0
O106 O 0.83871 0.16895 0.00943 0.0
O107 O 0.8795 0.20045 1.00701 0.0
H108 H 0.88219 0.18299 0.11519 0.0
H109 H 0.91064 0.16149 0.18132 0.0
H110 H 0.85342 0.21702 0.25429 0.0
H111 H 0.82576 0.23877 0.18811 0.0
H112 H 0.69847 0.28795 0.01415 0.0
H113 H 0.73869 0.24848 0.01338 0.0
H114 H 0.75205 0.33955 0.93197 0.0
H115 H 0.79241 0.2997 0.93087 0.0
H116 H 0.86161 0.1761 0.85127 0.0
H117 H 0.91068 0.10229 0.91818 0.0
H118 H 0.89905 0.12283 0.98584 0.0
H119 H 0.85039 0.19669 0.91948 0.0
C120 C 0.28327 0.395 0.37703 0.0
C121 C 0.30963 0.41483 0.3883 0.0
C122 C 0.311 0.42579 0.31321 0.0
C123 C 0.32339 0.43011 0.35665 0.0
C124 C 0.28399 0.40641 0.30233 0.0
C125 C 0.2703 0.39116 0.33397 0.0
U126 U 0.28011 0.37279 0.49301 0.0
O127 O 0.23684 0.36013 0.52414 0.0
O128 O 0.27745 0.32893 0.5207 0.0
C129 C 0.24728 0.33299 0.53028 0.0
C130 C 0.2699 0.37728 0.40949 0.0
C131 C 0.2225 0.30929 0.51788 0.0
C132 C 0.20916 0.25944 0.49284 0.0
C133 C 0.23166 0.28292 0.49962 0.0
C134 C 0.16737 0.2885 0.52079 0.0
C135 C 0.17693 0.26169 0.50415 0.0
C136 C 0.18994 0.31194 0.52775 0.0
C137 C 0.33802 0.41176 0.5835 0.0
C138 C 0.3327 0.41353 0.65904 0.0
C139 C 0.38498 0.427 0.63554 0.0
C140 C 0.37117 0.42124 0.59333 0.0
C141 C 0.36587 0.42345 0.66894 0.0
C142 C 0.31892 0.40762 0.6167 0.0
C143 C 0.32399 0.40709 0.53836 0.0
O144 O 0.29091 0.35862 0.43007 0.0
O145 O 0.25223 0.39148 0.43457 0.0
O146 O 0.29258 0.41432 0.52721 0.0
O147 O 0.33195 0.3823 0.52124 0.0
H148 H 0.3199 0.41812 0.42147 0.0
H149 H 0.34393 0.4451 0.36617 0.0
H150 H 0.27413 0.40222 0.26926 0.0
H151 H 0.24999 0.37586 0.32472 0.0
H152 H 0.21764 0.23905 0.48058 0.0
H153 H 0.25659 0.27996 0.49182 0.0
H154 H 0.14264 0.29116 0.52938 0.0
H155 H 0.18217 0.33191 0.54202 0.0
H156 H 0.31741 0.41033 0.68404 0.0
H157 H 0.41041 0.43501 0.64187 0.0
H158 H 0.38631 0.42462 0.56819 0.0
H159 H 0.29331 0.40011 0.60988 0.0
O160 O 0.02427 0.04636 0.65056 0.0
Mg161 Mg 0.05619 0.03392 0.6057 0.0
O162 O 0.98025 0.04737 0.60099 0.0
Mg163 Mg 0.00396 0.02194 0.54921 0.0
O164 O 0.0485 0.05673 0.54985 0.0
O165 O 0.09167 0.06436 0.60169 0.0
O166 O 0.0287 0.99631 0.49859 0.0
O167 O 0.98311 0.05842 0.4979 0.0
Mg168 Mg 0.95432 0.00886 0.4916 0.0
O169 O 0.95947 0.98662 0.54823 0.0
O170 O 0.98634 0.99624 0.44695 0.0
O171 O 0.92994 0.04928 0.48549 0.0
O172 O 0.91944 0.97773 0.49295 0.0
C173 C 0.05339 0.97684 0.61595 0.0
C174 C 0.99372 0.05229 0.6393 0.0
C175 C 0.0757 0.07094 0.56482 0.0
C176 C 0.01666 0.9906 0.46005 0.0
C177 C 0.95379 0.06645 0.48227 0.0
C178 C 0.93331 0.97176 0.53108 0.0
O179 O 0.07819 0.99215 0.60997 0.0
O180 O 0.02446 0.9862 0.60114 0.0
O181 O 0.52808 0.50452 0.15011 0.0
Mg182 Mg 0.51416 0.47698 0.09619 0.0
O183 O 0.53701 0.54063 0.10753 0.0
Mg184 Mg 0.50673 0.52053 0.04572 0.0
O185 O 0.54149 0.47793 0.04672 0.0
O186 O 0.54734 0.4443 0.09888 0.0
O187 O 0.47659 0.50056 0.98388 0.0
O188 O 0.55216 0.53383 0.00798 0.0
Mg189 Mg 0.50138 0.56309 0.99792 0.0
O190 O 0.47148 0.5634 0.04464 0.0
O191 O 0.48757 0.53665 0.94254 0.0
O192 O 0.54945 0.58124 0.01008 0.0
O193 O 0.4698 0.59687 0.99263 0.0
C194 C 0.44922 0.48146 0.09051 0.0
C195 C 0.5391 0.53009 0.14504 0.0
C196 C 0.55565 0.45436 0.06392 0.0
C197 C 0.47544 0.51136 0.94664 0.0
C198 C 0.56562 0.55871 1.00319 0.0
C199 C 0.45898 0.58726 0.02629 0.0
O200 O 0.46613 0.45894 0.08579 0.0
O201 O 0.46181 0.50641 0.08365 0.0
C202 C 0.13703 0.22931 0.53631 0.0
C203 C 0.15477 0.23533 0.50238 0.0
C204 C 0.11998 0.20264 0.53855 0.0
C205 C 0.12075 0.18125 0.50619 0.0
C206 C 0.13665 0.18793 0.47039 0.0
C207 C 0.15351 0.21487 0.46893 0.0
C208 C 0.10327 0.19652 0.57729 0.0
C209 C 0.13778 0.16591 0.435 0.0
C210 C 0.12131 0.10452 0.55108 0.0
C211 C 0.08766 0.09631 0.54211 0.0
C212 C 0.13265 0.13134 0.5371 0.0
C213 C 0.10976 0.15067 0.5137 0.0
C214 C 0.07611 0.14172 0.50206 0.0
C215 C 0.06545 0.11446 0.51626 0.0
C216 C 0.16881 0.13975 0.54995 0.0
C217 C 0.05108 0.16157 0.47666 0.0
H218 H 0.13802 0.24474 0.56254 0.0
H219 H 0.16659 0.21953 0.44215 0.0
H220 H 0.07791 0.18735 0.56768 0.0
H221 H 0.11788 0.17995 0.59754 0.0
H222 H 0.10128 0.21654 0.59681 0.0
H223 H 0.14556 0.17617 0.4062 0.0
H224 H 0.15589 0.14845 0.44615 0.0
H225 H 0.11311 0.15526 0.42604 0.0
H226 H 0.13866 0.0904 0.57063 0.0
H227 H 0.0394 0.10822 0.50936 0.0
H228 H 0.17058 0.15823 0.57306 0.0
H229 H 0.17989 0.14728 0.52181 0.0
H230 H 0.18391 0.12128 0.56492 0.0
H231 H 0.04894 0.18233 0.49438 0.0
H232 H 0.02598 0.15128 0.46983 0.0
H233 H 0.05965 0.16735 0.44602 0.0
C234 C 0.32629 0.69724 0.1014 0.0
C235 C 0.29475 0.69002 0.07934 0.0
C236 C 0.35316 0.67776 0.1024 0.0
C237 C 0.34844 0.65065 0.08042 0.0
C238 C 0.31597 0.64206 0.06196 0.0
C239 C 0.28951 0.66183 0.06165 0.0
C240 C 0.38718 0.6872 0.1239 0.0
C241 C 0.30972 0.61298 0.03934 0.0
C242 C 0.41723 0.62738 0.01874 0.0
C243 C 0.43159 0.6035 0.04232 0.0
C244 C 0.39053 0.64282 0.03129 0.0
C245 C 0.3778 0.63455 0.06885 0.0
C246 C 0.39256 0.61088 0.09357 0.0
C247 C 0.41913 0.5954 0.07975 0.0
C248 C 0.37558 0.66778 1.00368 0.0
C249 C 0.38009 0.60126 0.13397 0.0
H250 H 0.33063 0.71885 0.11545 0.0
H251 H 0.26496 0.65572 0.04572 0.0
H252 H 0.39982 0.6688 0.14242 0.0
H253 H 0.40279 0.69356 0.09932 0.0
H254 H 0.38578 0.7062 0.14559 0.0
H255 H 0.28269 0.60793 0.03153 0.0
H256 H 0.32073 0.61338 0.00922 0.0
H257 H 0.32193 0.59506 0.05932 0.0
H258 H 0.4265 0.63392 0.98973 0.0
H259 H 0.43 0.57697 0.09819 0.0
H260 H 0.37693 0.68839 0.02255 0.0
H261 H 0.34888 0.66317 0.99232 0.0
H262 H 0.38847 0.67141 0.97545 0.0
H263 H 0.36833 0.61945 0.14964 0.0
H264 H 0.40077 0.59224 0.15697 0.0
H265 H 0.36127 0.58359 0.12619 0.0
C266 C 0.885 0.81018 0.56962 0.0
C267 C 0.8586 0.80574 0.59318 0.0
C268 C 0.90071 0.83761 0.5689 0.0
C269 C 0.89022 0.86115 0.59293 0.0
C270 C 0.8662 0.85595 0.62042 0.0
C271 C 0.8504 0.82838 0.61995 0.0
C272 C 0.92659 0.84199 0.53958 0.0
C273 C 0.85539 0.88014 0.6479 0.0
C274 C 0.93973 0.93216 0.58712 0.0
C275 C 0.92051 0.94613 0.55269 0.0
C276 C 0.9296 0.905 0.60234 0.0
C277 C 0.89953 0.89173 0.58269 0.0
C278 C 0.87925 0.90665 0.54955 0.0
C279 C 0.88987 0.93362 0.53526 0.0
C280 C 0.95138 0.89033 0.63874 0.0
C281 C 0.84718 0.89332 0.52723 0.0
H282 H 0.89235 0.79254 0.55 0.0
H283 H 0.83024 0.82523 0.63857 0.0
H284 H 0.91614 0.85602 0.5124 0.0
H285 H 0.94884 0.85342 0.55659 0.0
H286 H 0.93459 0.82092 0.52669 0.0
H287 H 0.84141 0.87147 0.67292 0.0
H288 H 0.87733 0.89275 0.6634 0.0
H289 H 0.83903 0.89558 0.62772 0.0
H290 H 0.96332 0.94176 0.60089 0.0
H291 H 0.87458 0.94438 0.50901 0.0
H292 H 0.95382 0.86652 0.63267 0.0
H293 H 0.93973 0.89271 0.66818 0.0
H294 H 0.97671 0.90023 0.64456 0.0
H295 H 0.85266 0.87263 0.51111 0.0
H296 H 0.83378 0.90822 0.50298 0.0
H297 H 0.83031 0.88782 0.55071 0.0
C298 C 0.70848 0.36965 0.98361 0.0
C299 C 0.69756 0.34081 0.97437 0.0
C300 C 0.68592 0.39167 0.9914 0.0
C301 C 0.65168 0.38463 0.9897 0.0
C302 C 0.64025 0.3561 0.97704 0.0
C303 C 0.66334 0.33452 0.96974 0.0
C304 C 0.69918 0.42176 1.00482 0.0
C305 C 0.60392 0.34773 0.97432 0.0
C306 C 0.60254 0.41905 0.06963 0.0
C307 C 0.5818 0.43877 0.04456 0.0
C308 C 0.62612 0.40227 0.05231 0.0
C309 C 0.62901 0.40495 0.00852 0.0
C310 C 0.60897 0.42552 0.98314 0.0
C311 C 0.58565 0.44239 1.00158 0.0
C312 C 0.64727 0.38096 0.0808 0.0
C313 C 0.6114 0.42899 0.93636 0.0
H314 H 0.73492 0.37463 0.98722 0.0
H315 H 0.65472 0.31238 0.96175 0.0
H316 H 0.6827 0.43909 0.98914 0.0
H317 H 0.6998 0.42432 0.03976 0.0
H318 H 0.72481 0.42528 0.99716 0.0
H319 H 0.59838 0.32628 0.95806 0.0
H320 H 0.59715 0.34619 1.00697 0.0
H321 H 0.58787 0.36472 0.957 0.0
H322 H 0.60016 0.41644 0.10306 0.0
H323 H 0.56979 0.4577 0.9821 0.0
H324 H 0.67407 0.38478 0.07897 0.0
H325 H 0.64124 0.35817 0.06987 0.0
H326 H 0.64331 0.38282 0.11468 0.0
H327 H 0.63763 0.43311 0.93173 0.0
H328 H 0.59572 0.44723 0.92173 0.0
H329 H 0.60331 0.40838 0.91917 0.0
C330 C 0.12676 0.92752 0.28816 0.0
C331 C 0.12533 0.89677 0.28821 0.0
C332 C 0.11149 0.94412 0.31735 0.0
C333 C 0.09419 0.92964 0.3471 0.0
C334 C 0.09328 0.89861 0.34789 0.0
C335 C 0.10888 0.88257 0.31851 0.0
C336 C 0.11324 0.97717 0.31572 0.0
C337 C 0.07489 0.88231 0.37889 0.0
C338 C 0.07095 0.96977 0.44422 0.0
C339 C 0.03732 0.97642 0.43074 0.0
C340 C 0.09006 0.95512 0.41705 0.0
C341 C 0.07515 0.94681 0.37554 0.0
C342 C 0.04143 0.95394 0.36153 0.0
C343 C 0.023 0.96868 0.3892 0.0
C344 C 0.12602 0.94807 0.43301 0.0
C345 C 0.02455 0.94543 0.31755 0.0
H346 H 0.13981 0.93861 0.2652 0.0
H347 H 0.10733 0.85883 0.31843 0.0
H348 H 0.08788 0.98616 0.3064 0.0
H349 H 0.12282 0.98615 0.34773 0.0
H350 H 0.1295 0.98503 0.29265 0.0
H351 H 0.07806 0.85819 0.37696 0.0
H352 H 0.08382 0.8896 0.412 0.0
H353 H 0.0479 0.88735 0.37221 0.0
H354 H 0.08228 0.97573 0.47618 0.0
H355 H 0.99708 0.97373 0.37835 0.0
H356 H 0.14235 0.95674 0.41064 0.0
H357 H 0.12939 0.92394 0.43436 0.0
H358 H 0.1344 0.95735 0.46523 0.0
H359 H 0.03859 0.95453 0.29295 0.0
H360 H 0.99843 0.95332 0.3111 0.0
H361 H 0.02441 0.92121 0.31404 0.0
C362 C 0.70369 0.59285 0.84956 0.0
C363 C 0.68357 0.60267 0.81256 0.0
C364 C 0.68947 0.58106 0.88386 0.0
C365 C 0.65435 0.57928 0.88121 0.0
C366 C 0.63406 0.58766 0.84305 0.0
C367 C 0.6489 0.59912 0.80924 0.0
C368 C 0.71198 0.57186 0.92366 0.0
C369 C 0.5965 0.58594 0.83865 0.0
C370 C 0.60521 0.53844 0.95638 0.0
C371 C 0.5948 0.56184 0.98008 0.0
C372 C 0.62697 0.54323 0.92616 0.0
C373 C 0.63833 0.57207 0.91948 0.0
C374 C 0.6303 0.59515 0.94615 0.0
C375 C 0.60879 0.58972 0.97619 0.0
C376 C 0.63557 0.51783 0.89922 0.0
C377 C 0.64204 0.6262 0.94053 0.0
H378 H 0.7305 0.59552 0.85251 0.0
H379 H 0.63321 0.60594 0.78038 0.0
H380 H 0.71053 0.58822 0.9493 0.0
H381 H 0.70383 0.55044 0.93519 0.0
H382 H 0.73839 0.57014 0.91829 0.0
H383 H 0.5844 0.59147 0.80597 0.0
H384 H 0.58848 0.56358 0.84655 0.0
H385 H 0.58737 0.60138 0.86148 0.0
H386 H 0.59472 0.51676 0.95935 0.0
H387 H 0.60127 0.60785 0.99482 0.0
H388 H 0.66169 0.51944 0.89272 0.0
H389 H 0.61905 0.51816 0.86813 0.0
H390 H 0.63205 0.49647 0.9148 0.0
H391 H 0.66923 0.62671 0.93922 0.0
H392 H 0.63668 0.64092 0.96667 0.0
H393 H 0.62934 0.63501 0.90987 0.0
C394 C 0.90397 0.14274 0.26511 0.0
C395 C 0.89995 0.17327 0.26343 0.0
C396 C 0.91624 0.12862 0.30341 0.0
C397 C 0.9247 0.14537 0.34118 0.0
C398 C 0.92185 0.17628 0.33948 0.0
C399 C 0.90946 0.18986 0.30066 0.0
C400 C 0.91883 0.09559 0.30376 0.0
C401 C 0.93073 0.19493 0.37894 0.0
C402 C 0.91542 0.10162 0.4402 0.0
C403 C 0.94803 0.09167 0.45275 0.0
C404 C 0.90789 0.12068 0.40557 0.0
C405 C 0.9336 0.13005 0.38275 0.0
C406 C 0.967 0.12191 0.39726 0.0
C407 C 0.97385 0.10283 0.43222 0.0
C408 C 0.87199 0.12903 0.39156 0.0
C409 C 0.99516 0.13177 0.37415 0.0
H410 H 0.89634 0.12968 0.23673 0.0
H411 H 0.90692 0.2135 0.29955 0.0
H412 H 0.94415 0.0888 0.31832 0.0
H413 H 0.90087 0.08624 0.3235 0.0
H414 H 0.91352 0.08596 0.27124 0.0
H415 H 0.93072 0.21871 0.37145 0.0
H416 H 0.91246 0.1909 0.40125 0.0
H417 H 0.95565 0.18892 0.39578 0.0
H418 H 0.89538 0.09331 0.45618 0.0
H419 H 0.99911 0.09523 0.44165 0.0
H420 H 0.86275 0.11808 0.36079 0.0
H421 H 0.86982 0.15302 0.38635 0.0
H422 H 0.85558 0.12256 0.41524 0.0
H423 H 0.99222 0.12163 0.34194 0.0
H424 H 0.01994 0.12562 0.39145 0.0
H425 H 0.99448 0.15589 0.36978 0.0
C426 C 0.36186 0.44797 0.73917 0.0
C427 C 0.38031 0.43137 0.71349 0.0
C428 C 0.37638 0.45831 0.77945 0.0
C429 C 0.41017 0.45188 0.79454 0.0
C430 C 0.42841 0.43394 0.76967 0.0
C431 C 0.4133 0.42396 0.72948 0.0
C432 C 0.35604 0.47742 0.80487 0.0
C433 C 0.4644 0.42638 0.78463 0.0
C434 C 0.45866 0.50808 0.86771 0.0
C435 C 0.45939 0.49531 0.9081 0.0
C436 C 0.44289 0.49408 0.83075 0.0
C437 C 0.42737 0.46647 0.83394 0.0
C438 C 0.42825 0.45321 0.87449 0.0
C439 C 0.44424 0.4678 0.91113 0.0
C440 C 0.44263 0.50902 0.7882 0.0
C441 C 0.41209 0.42375 0.87915 0.0
H442 H 0.33646 0.45401 0.72699 0.0
H443 H 0.42756 0.41073 0.71016 0.0
H444 H 0.35797 0.46953 0.8382 0.0
H445 H 0.36598 0.50016 0.80602 0.0
H446 H 0.32932 0.47792 0.79086 0.0
H447 H 0.47403 0.40983 0.76375 0.0
H448 H 0.48 0.44647 0.78499 0.0
H449 H 0.46735 0.41783 0.81769 0.0
H450 H 0.47031 0.52929 0.86484 0.0
H451 H 0.44465 0.45773 0.94214 0.0
H452 H 0.41656 0.5128 0.77319 0.0
H453 H 0.45449 0.49473 0.76635 0.0
H454 H 0.45598 0.53042 0.79114 0.0
H455 H 0.385 0.425 0.86745 0.0
H456 H 0.4155 0.41611 0.91274 0.0
H457 H 0.42272 0.40715 0.85932 0.0
C458 C 0.65581 0.58586 0.35222 0.0
C459 C 0.64115 0.60689 0.37597 0.0
C460 C 0.63999 0.5765 0.31207 0.0
C461 C 0.60861 0.58832 0.29526 0.0
C462 C 0.59441 0.61054 0.31818 0.0
C463 C 0.61088 0.6196 0.35822 0.0
C464 C 0.65616 0.55295 0.28856 0.0
C465 C 0.56096 0.62363 0.30153 0.0
C466 C 0.57494 0.5716 0.17884 0.0
C467 C 0.55518 0.54671 0.18295 0.0
C468 C 0.59207 0.58584 0.2151 0.0
C469 C 0.58912 0.57503 0.25631 0.0
C470 C 0.56836 0.55049 0.26054 0.0
C471 C 0.55179 0.53664 0.22394 0.0
C472 C 0.61399 0.61192 0.20931 0.0
C473 C 0.56422 0.53837 0.30381 0.0
H474 H 0.67946 0.57629 0.36543 0.0
H475 H 0.59927 0.63572 0.37648 0.0
H476 H 0.64123 0.53245 0.28782 0.0
H477 H 0.65682 0.55957 0.25503 0.0
H478 H 0.68198 0.54817 0.30377 0.0
H479 H 0.55515 0.64294 0.32057 0.0
H480 H 0.56015 0.63037 0.2678 0.0
H481 H 0.54114 0.60688 0.30253 0.0
H482 H 0.57772 0.57951 0.14732 0.0
H483 H 0.53635 0.5176 0.22754 0.0
H484 H 0.64036 0.60649 0.221 0.0
H485 H 0.60723 0.63077 0.2285 0.0
H486 H 0.61206 0.61873 0.17542 0.0
H487 H 0.58856 0.5304 0.3201 0.0
H488 H 0.546 0.51996 0.30168 0.0
H489 H 0.55575 0.55588 0.32409 0.0
C490 C 0.9089 0.14416 0.80972 0.0
C491 C 0.89582 0.12563 0.83855 0.0
C492 C 0.92111 0.13276 0.77376 0.0
C493 C 0.92022 0.1021 0.76643 0.0
C494 C 0.90534 0.08347 0.79408 0.0
C495 C 0.89335 0.09545 0.82981 0.0
C496 C 0.93678 0.15339 0.74507 0.0
C497 C 0.90369 0.05068 0.78727 0.0
C498 C 0.9405 0.07218 0.66054 0.0
C499 C 0.97429 0.06497 0.67124 0.0
C500 C 0.9224 0.08427 0.69111 0.0
C501 C 0.9385 0.08925 0.73324 0.0
C502 C 0.97253 0.08195 0.74415 0.0
C503 C 0.98993 0.06993 0.71313 0.0
C504 C 0.88612 0.09174 0.67838 0.0
C505 C 0.99069 0.08684 0.7887 0.0
H506 H 0.91111 0.16747 0.81635 0.0
H507 H 0.88271 0.08106 0.85152 0.0
H508 H 0.96414 0.14995 0.74943 0.0
H509 H 0.9272 0.14881 0.71112 0.0
H510 H 0.93196 0.17674 0.75203 0.0
H511 H 0.88798 0.03967 0.80855 0.0
H512 H 0.89361 0.0454 0.75369 0.0
H513 H 0.92919 0.04145 0.79363 0.0
H514 H 0.92818 0.0684 0.62831 0.0
H515 H 0.01598 0.06443 0.72188 0.0
H516 H 0.88219 0.11544 0.68372 0.0
H517 H 0.87061 0.07952 0.6986 0.0
H518 H 0.87722 0.08646 0.6444 0.0
H519 H 0.98981 0.11038 0.79739 0.0
H520 H 0.0172 0.08002 0.79196 0.0
H521 H 0.97825 0.07434 0.812 0.0
C522 C 0.36236 0.44074 0.28287 0.0
C523 C 0.32748 0.43985 0.2792 0.0
C524 C 0.37845 0.45121 0.24949 0.0
C525 C 0.35926 0.46109 0.21134 0.0
C526 C 0.32406 0.46145 0.20806 0.0
C527 C 0.30859 0.45074 0.24197 0.0
C528 C 0.41606 0.45038 0.25437 0.0
C529 C 0.30271 0.472 0.16811 0.0
C530 C 0.4107 0.50177 0.13857 0.0
C531 C 0.42001 0.47861 0.11357 0.0
C532 C 0.38904 0.49692 0.16889 0.0
C533 C 0.37626 0.46836 0.1739 0.0
C534 C 0.38327 0.44561 0.14606 0.0
C535 C 0.40504 0.45101 0.11631 0.0
C536 C 0.38176 0.5218 0.19761 0.0
C537 C 0.36994 0.4149 0.14992 0.0
H538 H 0.37719 0.43206 0.31121 0.0
H539 H 0.28162 0.45052 0.23909 0.0
H540 H 0.424 0.43435 0.23145 0.0
H541 H 0.4261 0.47213 0.24691 0.0
H542 H 0.42739 0.44407 0.28706 0.0
H543 H 0.27619 0.47448 0.17262 0.0
H544 H 0.31207 0.49333 0.15783 0.0
H545 H 0.30402 0.45606 0.14189 0.0
H546 H 0.4221 0.52319 0.13661 0.0
H547 H 0.41184 0.43309 0.09676 0.0
H548 H 0.39348 0.51734 0.23077 0.0
H549 H 0.35452 0.52363 0.19796 0.0
H550 H 0.39137 0.54311 0.18753 0.0
H551 H 0.38213 0.40494 0.18005 0.0
H552 H 0.37459 0.40061 0.12296 0.0
H553 H 0.34275 0.41533 0.15121 0.0
C554 C 0.09296 0.92319 0.84691 0.0
C555 C 0.09309 0.89328 0.85707 0.0
C556 C 0.08517 0.93274 0.80466 0.0
C557 C 0.07726 0.9119 0.77147 0.0
C558 C 0.07729 0.88164 0.78138 0.0
C559 C 0.08531 0.87267 0.82408 0.0
C560 C 0.08563 0.96524 0.79555 0.0
C561 C 0.06893 0.8588 0.7469 0.0
C562 C 0.03124 0.94647 0.67141 0.0
C563 C 0.05775 0.9539 0.64936 0.0
C564 C 0.03681 0.9308 0.70987 0.0
C565 C 0.06963 0.92223 0.72653 0.0
C566 C 0.09595 0.92743 0.70249 0.0
C567 C 0.0897 0.94322 0.66424 0.0
C568 C 0.00801 0.92549 0.73434 0.0
C569 C 0.13127 0.9185 0.71887 0.0
H570 H 0.0995 0.93923 0.87207 0.0
H571 H 0.08509 0.84953 0.83173 0.0
H572 H 0.1042 0.97008 0.77393 0.0
H573 H 0.06092 0.97223 0.7791 0.0
H574 H 0.09189 0.97859 0.82501 0.0
H575 H 0.06976 0.83618 0.75988 0.0
H576 H 0.04367 0.8628 0.72936 0.0
H577 H 0.08672 0.8604 0.72344 0.0
H578 H 0.00652 0.95475 0.66037 0.0
H579 H 0.11029 0.94869 0.64726 0.0
H580 H 0.01176 0.93839 0.76441 0.0
H581 H 0.00687 0.90202 0.74314 0.0
H582 H 0.98373 0.93178 0.71584 0.0
H583 H 0.14139 0.93296 0.74593 0.0
H584 H 0.14781 0.92022 0.69388 0.0
H585 H 0.13199 0.89568 0.7309 0.0
loop_
_geom_bond_atom_site_label_1
_geom_bond_atom_site_label_2
_geom_bond_distance
_geom_bond_site_symmetry_2
_ccdc_geom_bond_type
C0 C1 1.264 . S
C0 C5 1.479 . S
C0 C10 1.465 . S
C1 C0 1.264 . S
C1 C3 1.339 . S
C1 H28 0.931 . S
C2 C3 1.395 . S
C2 C4 1.320 . S
C3 C1 1.339 . S
C3 C2 1.395 . S
C3 H29 0.929 . S
C4 C2 1.320 . S
C4 C5 1.405 . S
C4 H30 0.930 . S
C5 C0 1.479 . S
C5 C4 1.405 . S
C5 H31 0.931 . S
U6 O7 2.454 . S
U6 O8 2.458 . S
U6 C9 2.984 . S
U6 C10 2.847 . S
U6 C23 2.882 . S
U6 O24 2.441 . S
U6 O25 2.420 . S
U6 O26 2.455 . S
U6 O27 2.449 . S
O7 U6 2.454 . S
O7 C9 1.353 . S
O8 U6 2.458 . S
O8 C9 1.286 . S
C9 U6 2.984 . S
C9 O7 1.353 . S
C9 O8 1.286 . S
C9 C11 1.363 . S
C10 C0 1.465 . S
C10 U6 2.847 . S
C10 O24 1.249 . S
C10 O25 1.202 . S
C11 C9 1.363 . S
C11 C13 1.408 . S
C11 C16 1.342 . S
C12 C13 1.310 . S
C12 C15 1.461 . S
C12 H32 0.932 . S
C13 C11 1.408 . S
C13 C12 1.310 . S
C13 H33 0.930 . S
C14 C15 1.474 . S
C14 C16 1.285 . S
C14 H34 0.929 . S
C15 C12 1.461 . S
C15 C14 1.474 . S
C16 C11 1.342 . S
C16 C14 1.285 . S
C16 H35 0.930 . S
C17 C20 1.424 . S
C17 C22 1.245 . S
C17 C23 1.428 1_556 S
C18 C21 1.260 . S
C18 C22 1.477 . S
C18 H36 0.932 . S
C19 C20 1.384 . S
C19 C21 1.479 . S
C19 H37 0.929 . S
C20 C17 1.424 . S
C20 C19 1.384 . S
C20 H38 0.928 1_556 S
C21 C18 1.260 . S
C21 C19 1.479 . S
C22 C17 1.245 . S
C22 C18 1.477 . S
C22 H39 0.932 . S
C23 U6 2.882 . S
C23 C17 1.428 1_554 S
C23 O26 1.301 . S
C23 O27 1.282 . S
O24 U6 2.441 . S
O24 C10 1.249 . S
O25 U6 2.420 . S
O25 C10 1.202 . S
O26 U6 2.455 . S
O26 C23 1.301 . S
O27 U6 2.449 . S
O27 C23 1.282 . S
H28 C1 0.931 . S
H29 C3 0.929 . S
H30 C4 0.930 . S
H31 C5 0.931 . S
H32 C12 0.932 . S
H33 C13 0.930 . S
H34 C14 0.929 . S
H35 C16 0.930 . S
H36 C18 0.932 . S
H37 C19 0.929 . S
H38 C20 0.928 1_554 S
H39 C22 0.932 . S
C40 C41 1.264 . S
C40 C45 1.479 . S
C40 C50 1.465 . S
C41 C40 1.264 . S
C41 C43 1.339 . S
C41 H68 0.931 . S
C42 C43 1.395 . S
C42 C44 1.320 . S
C43 C41 1.339 . S
C43 C42 1.395 . S
C43 H69 0.929 . S
C44 C42 1.320 . S
C44 C45 1.405 . S
C44 H70 0.930 . S
C45 C40 1.479 . S
C45 C44 1.405 . S
C45 H71 0.931 . S
U46 O47 2.454 . S
U46 O48 2.458 . S
U46 C49 2.984 . S
U46 C50 2.847 . S
U46 C63 2.882 . S
U46 O64 2.441 . S
U46 O65 2.420 . S
U46 O66 2.455 . S
U46 O67 2.449 . S
O47 U46 2.454 . S
O47 C49 1.353 . S
O48 U46 2.458 . S
O48 C49 1.286 . S
C49 U46 2.984 . S
C49 O47 1.353 . S
C49 O48 1.286 . S
C49 C51 1.363 . S
C50 C40 1.465 . S
C50 U46 2.847 . S
C50 O64 1.249 . S
C50 O65 1.202 . S
C51 C49 1.363 . S
C51 C53 1.408 . S
C51 C56 1.342 . S
C52 C53 1.310 . S
C52 C55 1.461 . S
C52 H72 0.932 . S
C53 C51 1.408 . S
C53 C52 1.310 . S
C53 H73 0.930 . S
C54 C55 1.474 . S
C54 C56 1.285 . S
C54 H74 0.929 . S
C55 C52 1.461 . S
C55 C54 1.474 . S
C56 C51 1.342 . S
C56 C54 1.285 . S
C56 H75 0.930 . S
C57 C60 1.424 . S
C57 C62 1.245 . S
C57 C63 1.428 . S
C58 C61 1.260 . S
C58 C62 1.477 . S
C58 H76 0.932 . S
C59 C60 1.384 . S
C59 C61 1.479 . S
C59 H77 0.929 . S
C60 C57 1.424 . S
C60 C59 1.384 . S
C60 H78 0.928 . S
C61 C58 1.260 . S
C61 C59 1.479 . S
C62 C57 1.245 . S
C62 C58 1.477 . S
C62 H79 0.932 . S
C63 U46 2.882 . S
C63 C57 1.428 . S
C63 O66 1.301 . S
C63 O67 1.282 . S
O64 U46 2.441 . S
O64 C50 1.249 . S
O65 U46 2.420 . S
O65 C50 1.202 . S
O66 U46 2.455 . S
O66 C63 1.301 . S
O67 U46 2.449 . S
O67 C63 1.282 . S
H68 C41 0.931 . S
H69 C43 0.929 . S
H70 C44 0.930 . S
H71 C45 0.931 . S
H72 C52 0.932 . S
H73 C53 0.930 . S
H74 C54 0.929 . S
H75 C56 0.930 . S
H76 C58 0.932 . S
H77 C59 0.929 . S
H78 C60 0.928 . S
H79 C62 0.932 . S
C80 C81 1.264 . S
C80 C85 1.479 . S
C80 C90 1.465 . S
C81 C80 1.264 . S
C81 C83 1.339 . S
C81 H108 0.931 . S
C82 C83 1.395 . S
C82 C84 1.320 . S
C83 C81 1.339 . S
C83 C82 1.395 . S
C83 H109 0.929 . S
C84 C82 1.320 . S
C84 C85 1.405 . S
C84 H110 0.930 . S
C85 C80 1.479 . S
C85 C84 1.405 . S
C85 H111 0.931 . S
U86 O87 2.454 . S
U86 O88 2.458 1_554 S
U86 C89 2.984 1_554 S
U86 C90 2.847 . S
U86 C103 2.882 1_554 S
U86 O104 2.441 . S
U86 O105 2.420 . S
U86 O106 2.455 1_554 S
U86 O107 2.449 1_554 S
O87 U86 2.454 . S
O87 C89 1.353 1_554 S
O88 U86 2.458 1_556 S
O88 C89 1.286 . S
C89 U86 2.984 1_556 S
C89 O87 1.353 1_556 S
C89 O88 1.286 . S
C89 C91 1.363 . S
C90 C80 1.465 . S
C90 U86 2.847 . S
C90 O104 1.249 . S
C90 O105 1.202 . S
C91 C89 1.363 . S
C91 C93 1.408 1_556 S
C91 C96 1.342 . S
C92 C93 1.310 . S
C92 C95 1.461 1_554 S
C92 H112 0.932 . S
C93 C91 1.408 1_554 S
C93 C92 1.310 . S
C93 H113 0.930 . S
C94 C95 1.474 . S
C94 C96 1.285 . S
C94 H114 0.929 . S
C95 C92 1.461 1_556 S
C95 C94 1.474 . S
C96 C91 1.342 . S
C96 C94 1.285 . S
C96 H115 0.930 . S
C97 C100 1.424 . S
C97 C102 1.245 . S
C97 C103 1.428 . S
C98 C101 1.260 . S
C98 C102 1.477 . S
C98 H116 0.932 . S
C99 C100 1.384 . S
C99 C101 1.479 . S
C99 H117 0.929 . S
C100 C97 1.424 . S
C100 C99 1.384 . S
C100 H118 0.928 . S
C101 C98 1.260 . S
C101 C99 1.479 . S
C102 C97 1.245 . S
C102 C98 1.477 . S
C102 H119 0.932 . S
C103 U86 2.882 1_556 S
C103 C97 1.428 . S
C103 O106 1.301 . S
C103 O107 1.282 . S
O104 U86 2.441 . S
O104 C90 1.249 . S
O105 U86 2.420 . S
O105 C90 1.202 . S
O106 U86 2.455 1_556 S
O106 C103 1.301 . S
O107 U86 2.449 1_556 S
O107 C103 1.282 . S
H108 C81 0.931 . S
H109 C83 0.929 . S
H110 C84 0.930 . S
H111 C85 0.931 . S
H112 C92 0.932 . S
H113 C93 0.930 . S
H114 C94 0.929 . S
H115 C96 0.930 . S
H116 C98 0.932 . S
H117 C99 0.929 . S
H118 C100 0.928 . S
H119 C102 0.932 . S
C120 C121 1.264 . S
C120 C125 1.479 . S
C120 C130 1.465 . S
C121 C120 1.264 . S
C121 C123 1.339 . S
C121 H148 0.931 . S
C122 C123 1.395 . S
C122 C124 1.320 . S
C123 C121 1.339 . S
C123 C122 1.395 . S
C123 H149 0.929 . S
C124 C122 1.320 . S
C124 C125 1.405 . S
C124 H150 0.930 . S
C125 C120 1.479 . S
C125 C124 1.405 . S
C125 H151 0.931 . S
U126 O127 2.454 . S
U126 O128 2.458 . S
U126 C129 2.984 . S
U126 C130 2.847 . S
U126 C143 2.882 . S
U126 O144 2.441 . S
U126 O145 2.420 . S
U126 O146 2.455 . S
U126 O147 2.449 . S
O127 U126 2.454 . S
O127 C129 1.353 . S
O128 U126 2.458 . S
O128 C129 1.286 . S
C129 U126 2.984 . S
C129 O127 1.353 . S
C129 O128 1.286 . S
C129 C131 1.363 . S
C130 C120 1.465 . S
C130 U126 2.847 . S
C130 O144 1.249 . S
C130 O145 1.202 . S
C131 C129 1.363 . S
C131 C133 1.408 . S
C131 C136 1.342 . S
C132 C133 1.310 . S
C132 C135 1.461 . S
C132 H152 0.932 . S
C133 C131 1.408 . S
C133 C132 1.310 . S
C133 H153 0.930 . S
C134 C135 1.474 . S
C134 C136 1.285 . S
C134 H154 0.929 . S
C135 C132 1.461 . S
C135 C134 1.474 . S
C136 C131 1.342 . S
C136 C134 1.285 . S
C136 H155 0.930 . S
C137 C140 1.424 . S
C137 C142 1.245 . S
C137 C143 1.428 . S
C138 C141 1.260 . S
C138 C142 1.477 . S
C138 H156 0.932 . S
C139 C140 1.384 . S
C139 C141 1.479 . S
C139 H157 0.929 . S
C140 C137 1.424 . S
C140 C139 1.384 . S
C140 H158 0.928 . S
C141 C138 1.260 . S
C141 C139 1.479 . S
C142 C137 1.245 . S
C142 C138 1.477 . S
C142 H159 0.932 . S
C143 U126 2.882 . S
C143 C137 1.428 . S
C143 O146 1.301 . S
C143 O147 1.282 . S
O144 U126 2.441 . S
O144 C130 1.249 . S
O145 U126 2.420 . S
O145 C130 1.202 . S
O146 U126 2.455 . S
O146 C143 1.301 . S
O147 U126 2.449 . S
O147 C143 1.282 . S
H148 C121 0.931 . S
H149 C123 0.929 . S
H150 C124 0.930 . S
H151 C125 0.931 . S
H152 C132 0.932 . S
H153 C133 0.930 . S
H154 C134 0.929 . S
H155 C136 0.930 . S
H156 C138 0.932 . S
H157 C139 0.929 . S
H158 C140 0.928 . S
H159 C142 0.932 . S
O160 Mg161 1.990 1_655 S
O160 C174 1.253 . S
Mg161 O160 1.990 1_455 S
Mg161 O164 2.180 . S
Mg161 O165 2.117 . S
Mg161 O179 2.030 . S
O162 Mg163 2.072 1_655 S
O162 C174 1.260 . S
Mg163 O162 2.072 1_455 S
Mg163 O164 2.099 . S
Mg163 O166 2.079 1_545 S
Mg163 O167 2.072 1_455 S
Mg163 O169 2.099 1_445 S
Mg163 O180 2.079 1_545 S
O164 Mg161 2.180 . S
O164 Mg163 2.099 . S
O164 C175 1.279 . S
O165 Mg161 2.117 . S
O165 C175 1.250 . S
O166 Mg163 2.079 1_565 S
O166 C176 1.264 . S
O167 Mg163 2.072 1_655 S
O167 C177 1.260 . S
Mg168 O169 2.180 . S
Mg168 O170 2.030 1_655 S
Mg168 O171 1.990 1_565 S
Mg168 O172 2.117 . S
O169 Mg163 2.099 1_665 S
O169 Mg168 2.180 . S
O169 C178 1.279 . S
O170 Mg168 2.030 1_455 S
O170 C176 1.248 . S
O171 Mg168 1.990 1_545 S
O171 C177 1.253 . S
O172 Mg168 2.117 . S
O172 C178 1.250 . S
C173 O179 1.248 1_565 S
C173 O180 1.264 . S
C174 O160 1.253 . S
C174 O162 1.260 . S
C175 O164 1.279 . S
C175 O165 1.250 . S
C176 O166 1.264 . S
C176 O170 1.248 . S
C177 O167 1.260 . S
C177 O171 1.253 . S
C178 O169 1.279 . S
C178 O172 1.250 . S
O179 Mg161 2.030 . S
O179 C173 1.248 1_545 S
O180 Mg163 2.079 1_565 S
O180 C173 1.264 . S
O181 Mg182 1.990 . S
O181 C195 1.253 . S
Mg182 O181 1.990 . S
Mg182 O185 2.180 . S
Mg182 O186 2.117 . S
Mg182 O200 2.030 . S
O183 Mg184 2.072 . S
O183 C195 1.260 . S
Mg184 O183 2.072 . S
Mg184 O185 2.099 . S
Mg184 O187 2.079 1_554 S
Mg184 O188 2.072 1_554 S
Mg184 O190 2.099 . S
Mg184 O201 2.079 . S
O185 Mg182 2.180 . S
O185 Mg184 2.099 . S
O185 C196 1.279 . S
O186 Mg182 2.117 . S
O186 C196 1.250 . S
O187 Mg184 2.079 1_556 S
O187 C197 1.264 . S
O188 Mg184 2.072 1_556 S
O188 C198 1.260 . S
Mg189 O190 2.180 1_556 S
Mg189 O191 2.030 . S
Mg189 O192 1.990 . S
Mg189 O193 2.117 1_556 S
O190 Mg184 2.099 . S
O190 Mg189 2.180 1_554 S
O190 C199 1.279 . S
O191 Mg189 2.030 . S
O191 C197 1.248 . S
O192 Mg189 1.990 . S
O192 C198 1.253 . S
O193 Mg189 2.117 1_554 S
O193 C199 1.250 . S
C194 O200 1.248 . S
C194 O201 1.264 . S
C195 O181 1.253 . S
C195 O183 1.260 . S
C196 O185 1.279 . S
C196 O186 1.250 . S
C197 O187 1.264 . S
C197 O191 1.248 . S
C198 O188 1.260 . S
C198 O192 1.253 . S
C199 O190 1.279 . S
C199 O193 1.250 . S
O200 Mg182 2.030 . S
O200 C194 1.248 . S
O201 Mg184 2.079 . S
O201 C194 1.264 . S
C202 C203 1.391 . S
C202 C204 1.394 . S
C202 H218 0.931 . S
C203 C202 1.391 . S
C203 C207 1.376 . S
C204 C202 1.394 . S
C204 C205 1.369 . S
C204 C208 1.531 . S
C205 C204 1.369 . S
C205 C206 1.410 . S
C205 C213 1.503 . S
C206 C205 1.410 . S
C206 C207 1.392 . S
C206 C209 1.511 . S
C207 C203 1.376 . S
C207 C206 1.392 . S
C207 H219 0.929 . S
C208 C204 1.531 . S
C208 H220 0.960 . S
C208 H221 0.962 . S
C208 H222 0.960 . S
C209 C206 1.511 . S
C209 H223 0.961 . S
C209 H224 0.961 . S
C209 H225 0.961 . S
C210 C211 1.370 . S
C210 C212 1.363 . S
C210 H226 0.931 . S
C211 C210 1.370 . S
C211 C215 1.408 . S
C212 C210 1.363 . S
C212 C213 1.370 . S
C212 C216 1.524 . S
C213 C205 1.503 . S
C213 C212 1.370 . S
C213 C214 1.403 . S
C214 C213 1.403 . S
C214 C215 1.404 . S
C214 C217 1.539 . S
C215 C211 1.408 . S
C215 C214 1.404 . S
C215 H227 0.930 . S
C216 C212 1.524 . S
C216 H228 0.956 . S
C216 H229 0.961 . S
C216 H230 0.961 . S
C217 C214 1.539 . S
C217 H231 0.958 . S
C217 H232 0.961 1_455 S
C217 H233 0.960 . S
H218 C202 0.931 . S
H219 C207 0.929 . S
H220 C208 0.960 . S
H221 C208 0.962 . S
H222 C208 0.960 . S
H223 C209 0.961 . S
H224 C209 0.961 . S
H225 C209 0.961 . S
H226 C210 0.931 . S
H227 C215 0.930 . S
H228 C216 0.956 . S
H229 C216 0.961 . S
H230 C216 0.961 . S
H231 C217 0.958 . S
H232 C217 0.961 1_655 S
H233 C217 0.960 . S
C234 C235 1.391 . S
C234 C236 1.394 . S
C234 H250 0.931 . S
C235 C234 1.391 . S
C235 C239 1.376 . S
C236 C234 1.394 . S
C236 C237 1.369 . S
C236 C240 1.531 . S
C237 C236 1.369 . S
C237 C238 1.410 . S
C237 C245 1.503 . S
C238 C237 1.410 . S
C238 C239 1.392 . S
C238 C241 1.511 . S
C239 C235 1.376 . S
C239 C238 1.392 . S
C239 H251 0.929 . S
C240 C236 1.531 . S
C240 H252 0.960 . S
C240 H253 0.962 . S
C240 H254 0.960 . S
C241 C238 1.511 . S
C241 H255 0.961 . S
C241 H256 0.961 . S
C241 H257 0.961 . S
C242 C243 1.370 . S
C242 C244 1.363 . S
C242 H258 0.931 . S
C243 C242 1.370 . S
C243 C247 1.408 . S
C244 C242 1.363 . S
C244 C245 1.370 . S
C244 C248 1.524 . S
C245 C237 1.503 . S
C245 C244 1.370 . S
C245 C246 1.403 . S
C246 C245 1.403 . S
C246 C247 1.404 . S
C246 C249 1.539 . S
C247 C243 1.408 . S
C247 C246 1.404 . S
C247 H259 0.930 . S
C248 C244 1.524 . S
C248 H260 0.956 . S
C248 H261 0.961 . S
C248 H262 0.961 1_554 S
C249 C246 1.539 . S
C249 H263 0.958 . S
C249 H264 0.961 . S
C249 H265 0.960 . S
H250 C234 0.931 . S
H251 C239 0.929 . S
H252 C240 0.960 . S
H253 C240 0.962 . S
H254 C240 0.960 . S
H255 C241 0.961 . S
H256 C241 0.961 . S
H257 C241 0.961 . S
H258 C242 0.931 . S
H259 C247 0.930 . S
H260 C248 0.956 . S
H261 C248 0.961 . S
H262 C248 0.961 1_556 S
H263 C249 0.958 . S
H264 C249 0.961 . S
H265 C249 0.960 . S
C266 C267 1.391 . S
C266 C268 1.394 . S
C266 H282 0.931 . S
C267 C266 1.391 . S
C267 C271 1.376 . S
C268 C266 1.394 . S
C268 C269 1.369 . S
C268 C272 1.531 . S
C269 C268 1.369 . S
C269 C270 1.410 . S
C269 C277 1.503 . S
C270 C269 1.410 . S
C270 C271 1.392 . S
C270 C273 1.511 . S
C271 C267 1.376 . S
C271 C270 1.392 . S
C271 H283 0.929 . S
C272 C268 1.531 . S
C272 H284 0.960 . S
C272 H285 0.962 . S
C272 H286 0.960 . S
C273 C270 1.511 . S
C273 H287 0.961 . S
C273 H288 0.961 . S
C273 H289 0.961 . S
C274 C275 1.370 . S
C274 C276 1.363 . S
C274 H290 0.931 . S
C275 C274 1.370 . S
C275 C279 1.408 . S
C276 C274 1.363 . S
C276 C277 1.370 . S
C276 C280 1.524 . S
C277 C269 1.503 . S
C277 C276 1.370 . S
C277 C278 1.403 . S
C278 C277 1.403 . S
C278 C279 1.404 . S
C278 C281 1.539 . S
C279 C275 1.408 . S
C279 C278 1.404 . S
C279 H291 0.930 . S
C280 C276 1.524 . S
C280 H292 0.956 . S
C280 H293 0.961 . S
C280 H294 0.961 . S
C281 C278 1.539 . S
C281 H295 0.958 . S
C281 H296 0.961 . S
C281 H297 0.960 . S
H282 C266 0.931 . S
H283 C271 0.929 . S
H284 C272 0.960 . S
H285 C272 0.962 . S
H286 C272 0.960 . S
H287 C273 0.961 . S
H288 C273 0.961 . S
H289 C273 0.961 . S
H290 C274 0.931 . S
H291 C279 0.930 . S
H292 C280 0.956 . S
H293 C280 0.961 . S
H294 C280 0.961 . S
H295 C281 0.958 . S
H296 C281 0.961 . S
H297 C281 0.960 . S
C298 C299 1.391 . S
C298 C300 1.394 . S
C298 H314 0.931 . S
C299 C298 1.391 . S
C299 C303 1.376 1_556 S
C300 C298 1.394 . S
C300 C301 1.369 . S
C300 C304 1.531 . S
C301 C300 1.369 . S
C301 C302 1.410 1_556 S
C301 C309 1.503 1_556 S
C302 C301 1.410 1_554 S
C302 C303 1.392 . S
C302 C305 1.511 . S
C303 C299 1.376 1_554 S
C303 C302 1.392 . S
C303 H315 0.929 . S
C304 C300 1.531 . S
C304 H316 0.960 . S
C304 H317 0.962 . S
C304 H318 0.960 . S
C305 C302 1.511 . S
C305 H319 0.961 . S
C305 H320 0.961 . S
C305 H321 0.961 . S
C306 C307 1.370 . S
C306 C308 1.363 . S
C306 H322 0.931 . S
C307 C306 1.370 . S
C307 C311 1.408 1_554 S
C308 C306 1.363 . S
C308 C309 1.370 . S
C308 C312 1.524 . S
C309 C301 1.503 1_554 S
C309 C308 1.370 . S
C309 C310 1.403 1_554 S
C310 C309 1.403 1_556 S
C310 C311 1.404 . S
C310 C313 1.539 . S
C311 C307 1.408 1_556 S
C311 C310 1.404 . S
C311 H323 0.930 . S
C312 C308 1.524 . S
C312 H324 0.956 . S
C312 H325 0.961 . S
C312 H326 0.961 . S
C313 C310 1.539 . S
C313 H327 0.958 . S
C313 H328 0.961 . S
C313 H329 0.960 . S
H314 C298 0.931 . S
H315 C303 0.929 . S
H316 C304 0.960 . S
H317 C304 0.962 . S
H318 C304 0.960 . S
H319 C305 0.961 . S
H320 C305 0.961 . S
H321 C305 0.961 . S
H322 C306 0.931 . S
H323 C311 0.930 . S
H324 C312 0.956 . S
H325 C312 0.961 . S
H326 C312 0.961 . S
H327 C313 0.958 . S
H328 C313 0.961 . S
H329 C313 0.960 . S
C330 C331 1.391 . S
C330 C332 1.394 . S
C330 H346 0.931 . S
C331 C330 1.391 . S
C331 C335 1.376 . S
C332 C330 1.394 . S
C332 C333 1.369 . S
C332 C336 1.531 1_565 S
C333 C332 1.369 . S
C333 C334 1.410 . S
C333 C341 1.503 . S
C334 C333 1.410 . S
C334 C335 1.392 . S
C334 C337 1.511 . S
C335 C331 1.376 . S
C335 C334 1.392 . S
C335 H347 0.929 . S
C336 C332 1.531 1_545 S
C336 H348 0.960 . S
C336 H349 0.962 . S
C336 H350 0.960 . S
C337 C334 1.511 . S
C337 H351 0.961 . S
C337 H352 0.961 . S
C337 H353 0.961 . S
C338 C339 1.370 . S
C338 C340 1.363 . S
C338 H354 0.931 . S
C339 C338 1.370 . S
C339 C343 1.408 . S
C340 C338 1.363 . S
C340 C341 1.370 . S
C340 C344 1.524 . S
C341 C333 1.503 . S
C341 C340 1.370 . S
C341 C342 1.403 . S
C342 C341 1.403 . S
C342 C343 1.404 . S
C342 C345 1.539 . S
C343 C339 1.408 . S
C343 C342 1.404 . S
C343 H355 0.930 . S
C344 C340 1.524 . S
C344 H356 0.956 . S
C344 H357 0.961 . S
C344 H358 0.961 . S
C345 C342 1.539 . S
C345 H359 0.958 1_565 S
C345 H360 0.961 . S
C345 H361 0.960 . S
H346 C330 0.931 . S
H347 C335 0.929 . S
H348 C336 0.960 . S
H349 C336 0.962 . S
H350 C336 0.960 . S
H351 C337 0.961 . S
H352 C337 0.961 . S
H353 C337 0.961 . S
H354 C338 0.931 . S
H355 C343 0.930 . S
H356 C344 0.956 . S
H357 C344 0.961 . S
H358 C344 0.961 . S
H359 C345 0.958 1_545 S
H360 C345 0.961 . S
H361 C345 0.960 . S
C362 C363 1.391 . S
C362 C364 1.394 . S
C362 H378 0.931 . S
C363 C362 1.391 . S
C363 C367 1.376 . S
C364 C362 1.394 . S
C364 C365 1.369 . S
C364 C368 1.531 . S
C365 C364 1.369 . S
C365 C366 1.410 . S
C365 C373 1.503 . S
C366 C365 1.410 . S
C366 C367 1.392 . S
C366 C369 1.511 . S
C367 C363 1.376 . S
C367 C366 1.392 . S
C367 H379 0.929 . S
C368 C364 1.531 . S
C368 H380 0.960 . S
C368 H381 0.962 . S
C368 H382 0.960 . S
C369 C366 1.511 . S
C369 H383 0.961 . S
C369 H384 0.961 . S
C369 H385 0.961 . S
C370 C371 1.370 . S
C370 C372 1.363 . S
C370 H386 0.931 . S
C371 C370 1.370 . S
C371 C375 1.408 . S
C372 C370 1.363 . S
C372 C373 1.370 . S
C372 C376 1.524 . S
C373 C365 1.503 . S
C373 C372 1.370 . S
C373 C374 1.403 . S
C374 C373 1.403 . S
C374 C375 1.404 . S
C374 C377 1.539 . S
C375 C371 1.408 . S
C375 C374 1.404 . S
C375 H387 0.930 . S
C376 C372 1.524 . S
C376 H388 0.956 . S
C376 H389 0.961 . S
C376 H390 0.961 . S
C377 C374 1.539 . S
C377 H391 0.958 . S
C377 H392 0.961 . S
C377 H393 0.960 . S
H378 C362 0.931 . S
H379 C367 0.929 . S
H380 C368 0.960 . S
H381 C368 0.962 . S
H382 C368 0.960 . S
H383 C369 0.961 . S
H384 C369 0.961 . S
H385 C369 0.961 . S
H386 C370 0.931 . S
H387 C375 0.930 . S
H388 C376 0.956 . S
H389 C376 0.961 . S
H390 C376 0.961 . S
H391 C377 0.958 . S
H392 C377 0.961 . S
H393 C377 0.960 . S
C394 C395 1.391 . S
C394 C396 1.394 . S
C394 H410 0.931 . S
C395 C394 1.391 . S
C395 C399 1.376 . S
C396 C394 1.394 . S
C396 C397 1.369 . S
C396 C400 1.531 . S
C397 C396 1.369 . S
C397 C398 1.410 . S
C397 C405 1.503 . S
C398 C397 1.410 . S
C398 C399 1.392 . S
C398 C401 1.511 . S
C399 C395 1.376 . S
C399 C398 1.392 . S
C399 H411 0.929 . S
C400 C396 1.531 . S
C400 H412 0.960 . S
C400 H413 0.962 . S
C400 H414 0.960 1_545 S
C401 C398 1.511 . S
C401 H415 0.961 . S
C401 H416 0.961 . S
C401 H417 0.961 . S
C402 C403 1.370 . S
C402 C404 1.363 . S
C402 H418 0.931 . S
C403 C402 1.370 . S
C403 C407 1.408 . S
C404 C402 1.363 . S
C404 C405 1.370 . S
C404 C408 1.524 . S
C405 C397 1.503 . S
C405 C404 1.370 . S
C405 C406 1.403 . S
C406 C405 1.403 . S
C406 C407 1.404 . S
C406 C409 1.539 . S
C407 C403 1.408 . S
C407 C406 1.404 . S
C407 H419 0.930 . S
C408 C404 1.524 . S
C408 H420 0.956 . S
C408 H421 0.961 . S
C408 H422 0.961 . S
C409 C406 1.539 . S
C409 H423 0.958 . S
C409 H424 0.961 . S
C409 H425 0.960 . S
H410 C394 0.931 . S
H411 C399 0.929 . S
H412 C400 0.960 . S
H413 C400 0.962 . S
H414 C400 0.960 1_565 S
H415 C401 0.961 . S
H416 C401 0.961 . S
H417 C401 0.961 . S
H418 C402 0.931 . S
H419 C407 0.930 . S
H420 C408 0.956 . S
H421 C408 0.961 . S
H422 C408 0.961 . S
H423 C409 0.958 . S
H424 C409 0.961 . S
H425 C409 0.960 . S
C426 C427 1.391 . S
C426 C428 1.394 . S
C426 H442 0.931 . S
C427 C426 1.391 . S
C427 C431 1.376 . S
C428 C426 1.394 . S
C428 C429 1.369 . S
C428 C432 1.531 . S
C429 C428 1.369 . S
C429 C430 1.410 . S
C429 C437 1.503 . S
C430 C429 1.410 . S
C430 C431 1.392 . S
C430 C433 1.511 . S
C431 C427 1.376 . S
C431 C430 1.392 . S
C431 H443 0.929 . S
C432 C428 1.531 . S
C432 H444 0.960 . S
C432 H445 0.962 . S
C432 H446 0.960 . S
C433 C430 1.511 . S
C433 H447 0.961 . S
C433 H448 0.961 . S
C433 H449 0.961 . S
C434 C435 1.370 . S
C434 C436 1.363 . S
C434 H450 0.931 . S
C435 C434 1.370 . S
C435 C439 1.408 . S
C436 C434 1.363 . S
C436 C437 1.370 . S
C436 C440 1.524 . S
C437 C429 1.503 . S
C437 C436 1.370 . S
C437 C438 1.403 . S
C438 C437 1.403 . S
C438 C439 1.404 . S
C438 C441 1.539 . S
C439 C435 1.408 . S
C439 C438 1.404 . S
C439 H451 0.930 . S
C440 C436 1.524 . S
C440 H452 0.956 . S
C440 H453 0.961 . S
C440 H454 0.961 . S
C441 C438 1.539 . S
C441 H455 0.958 . S
C441 H456 0.961 . S
C441 H457 0.960 . S
H442 C426 0.931 . S
H443 C431 0.929 . S
H444 C432 0.960 . S
H445 C432 0.962 . S
H446 C432 0.960 . S
H447 C433 0.961 . S
H448 C433 0.961 . S
H449 C433 0.961 . S
H450 C434 0.931 . S
H451 C439 0.930 . S
H452 C440 0.956 . S
H453 C440 0.961 . S
H454 C440 0.961 . S
H455 C441 0.958 . S
H456 C441 0.961 . S
H457 C441 0.960 . S
C458 C459 1.391 . S
C458 C460 1.394 . S
C458 H474 0.931 . S
C459 C458 1.391 . S
C459 C463 1.376 . S
C460 C458 1.394 . S
C460 C461 1.369 . S
C460 C464 1.531 . S
C461 C460 1.369 . S
C461 C462 1.410 . S
C461 C469 1.503 . S
C462 C461 1.410 . S
C462 C463 1.392 . S
C462 C465 1.511 . S
C463 C459 1.376 . S
C463 C462 1.392 . S
C463 H475 0.929 . S
C464 C460 1.531 . S
C464 H476 0.960 . S
C464 H477 0.962 . S
C464 H478 0.960 . S
C465 C462 1.511 . S
C465 H479 0.961 . S
C465 H480 0.961 . S
C465 H481 0.961 . S
C466 C467 1.370 . S
C466 C468 1.363 . S
C466 H482 0.931 . S
C467 C466 1.370 . S
C467 C471 1.408 . S
C468 C466 1.363 . S
C468 C469 1.370 . S
C468 C472 1.524 . S
C469 C461 1.503 . S
C469 C468 1.370 . S
C469 C470 1.403 . S
C470 C469 1.403 . S
C470 C471 1.404 . S
C470 C473 1.539 . S
C471 C467 1.408 . S
C471 C470 1.404 . S
C471 H483 0.930 . S
C472 C468 1.524 . S
C472 H484 0.956 . S
C472 H485 0.961 . S
C472 H486 0.961 . S
C473 C470 1.539 . S
C473 H487 0.958 . S
C473 H488 0.961 . S
C473 H489 0.960 . S
H474 C458 0.931 . S
H475 C463 0.929 . S
H476 C464 0.960 . S
H477 C464 0.962 . S
H478 C464 0.960 . S
H479 C465 0.961 . S
H480 C465 0.961 . S
H481 C465 0.961 . S
H482 C466 0.931 . S
H483 C471 0.930 . S
H484 C472 0.956 . S
H485 C472 0.961 . S
H486 C472 0.961 . S
H487 C473 0.958 . S
H488 C473 0.961 . S
H489 C473 0.960 . S
C490 C491 1.391 . S
C490 C492 1.394 . S
C490 H506 0.931 . S
C491 C490 1.391 . S
C491 C495 1.376 . S
C492 C490 1.394 . S
C492 C493 1.369 . S
C492 C496 1.531 . S
C493 C492 1.369 . S
C493 C494 1.410 . S
C493 C501 1.503 . S
C494 C493 1.410 . S
C494 C495 1.392 . S
C494 C497 1.511 . S
C495 C491 1.376 . S
C495 C494 1.392 . S
C495 H507 0.929 . S
C496 C492 1.531 . S
C496 H508 0.960 . S
C496 H509 0.962 . S
C496 H510 0.960 . S
C497 C494 1.511 . S
C497 H511 0.961 . S
C497 H512 0.961 . S
C497 H513 0.961 . S
C498 C499 1.370 . S
C498 C500 1.363 . S
C498 H514 0.931 . S
C499 C498 1.370 . S
C499 C503 1.408 . S
C500 C498 1.363 . S
C500 C501 1.370 . S
C500 C504 1.524 . S
C501 C493 1.503 . S
C501 C500 1.370 . S
C501 C502 1.403 . S
C502 C501 1.403 . S
C502 C503 1.404 . S
C502 C505 1.539 . S
C503 C499 1.408 . S
C503 C502 1.404 . S
C503 H515 0.930 . S
C504 C500 1.524 . S
C504 H516 0.956 . S
C504 H517 0.961 . S
C504 H518 0.961 . S
C505 C502 1.539 . S
C505 H519 0.958 . S
C505 H520 0.961 . S
C505 H521 0.960 . S
H506 C490 0.931 . S
H507 C495 0.929 . S
H508 C496 0.960 . S
H509 C496 0.962 . S
H510 C496 0.960 . S
H511 C497 0.961 . S
H512 C497 0.961 . S
H513 C497 0.961 . S
H514 C498 0.931 . S
H515 C503 0.930 . S
H516 C504 0.956 . S
H517 C504 0.961 . S
H518 C504 0.961 . S
H519 C505 0.958 . S
H520 C505 0.961 . S
H521 C505 0.960 . S
C522 C523 1.391 . S
C522 C524 1.394 . S
C522 H538 0.931 . S
C523 C522 1.391 . S
C523 C527 1.376 . S
C524 C522 1.394 . S
C524 C525 1.369 . S
C524 C528 1.531 . S
C525 C524 1.369 . S
C525 C526 1.410 . S
C525 C533 1.503 . S
C526 C525 1.410 . S
C526 C527 1.392 . S
C526 C529 1.511 . S
C527 C523 1.376 . S
C527 C526 1.392 . S
C527 H539 0.929 . S
C528 C524 1.531 . S
C528 H540 0.960 . S
C528 H541 0.962 . S
C528 H542 0.960 . S
C529 C526 1.511 . S
C529 H543 0.961 . S
C529 H544 0.961 . S
C529 H545 0.961 . S
C530 C531 1.370 . S
C530 C532 1.363 . S
C530 H546 0.931 . S
C531 C530 1.370 . S
C531 C535 1.408 . S
C532 C530 1.363 . S
C532 C533 1.370 . S
C532 C536 1.524 . S
C533 C525 1.503 . S
C533 C532 1.370 . S
C533 C534 1.403 . S
C534 C533 1.403 . S
C534 C535 1.404 . S
C534 C537 1.539 . S
C535 C531 1.408 . S
C535 C534 1.404 . S
C535 H547 0.930 . S
C536 C532 1.524 . S
C536 H548 0.956 . S
C536 H549 0.961 . S
C536 H550 0.961 . S
C537 C534 1.539 . S
C537 H551 0.958 . S
C537 H552 0.961 . S
C537 H553 0.960 . S
H538 C522 0.931 . S
H539 C527 0.929 . S
H540 C528 0.960 . S
H541 C528 0.962 . S
H542 C528 0.960 . S
H543 C529 0.961 . S
H544 C529 0.961 . S
H545 C529 0.961 . S
H546 C530 0.931 . S
H547 C535 0.930 . S
H548 C536 0.956 . S
H549 C536 0.961 . S
H550 C536 0.961 . S
H551 C537 0.958 . S
H552 C537 0.961 . S
H553 C537 0.960 . S
C554 C555 1.391 . S
C554 C556 1.394 . S
C554 H570 0.931 . S
C555 C554 1.391 . S
C555 C559 1.376 . S
C556 C554 1.394 . S
C556 C557 1.369 . S
C556 C560 1.531 . S
C557 C556 1.369 . S
C557 C558 1.410 . S
C557 C565 1.503 . S
C558 C557 1.410 . S
C558 C559 1.392 . S
C558 C561 1.511 . S
C559 C555 1.376 . S
C559 C558 1.392 . S
C559 H571 0.929 . S
C560 C556 1.531 . S
C560 H572 0.960 . S
C560 H573 0.962 1_565 S
C560 H574 0.960 . S
C561 C558 1.511 . S
C561 H575 0.961 . S
C561 H576 0.961 . S
C561 H577 0.961 . S
C562 C563 1.370 . S
C562 C564 1.363 . S
C562 H578 0.931 1_565 S
C563 C562 1.370 . S
C563 C567 1.408 . S
C564 C562 1.363 . S
C564 C565 1.370 . S
C564 C568 1.524 1_565 S
C565 C557 1.503 . S
C565 C564 1.370 . S
C565 C566 1.403 . S
C566 C565 1.403 . S
C566 C567 1.404 . S
C566 C569 1.539 . S
C567 C563 1.408 . S
C567 C566 1.404 . S
C567 H579 0.930 . S
C568 C564 1.524 1_545 S
C568 H580 0.956 . S
C568 H581 0.961 1_545 S
C568 H582 0.961 . S
C569 C566 1.539 . S
C569 H583 0.958 . S
C569 H584 0.961 . S
C569 H585 0.960 . S
H570 C554 0.931 . S
H571 C559 0.929 . S
H572 C560 0.960 . S
H573 C560 0.962 1_545 S
H574 C560 0.960 . S
H575 C561 0.961 . S
H576 C561 0.961 . S
H577 C561 0.961 . S
H578 C562 0.931 1_545 S
H579 C567 0.930 . S
H580 C568 0.956 . S
H581 C568 0.961 1_565 S
H582 C568 0.961 . S
H583 C569 0.958 . S
H584 C569 0.961 . S
H585 C569 0.960 . S
C211 C175 1.384 . S
C203 C135 1.568 . S
C235 C15 1.549 . S
C243 C199 1.405 . S
C267 C55 1.664 . S
C275 C178 1.478 . S
C299 C95 1.711 . S
C307 C196 1.522 . S
C339 C176 1.635 . S
C331 C2 1.648 . S
C371 C198 1.584 . S
C363 C42 1.555 . S
C395 C82 1.602 . S
C403 C177 1.508 . S
C427 C141 1.636 . S
C435 C197 1.563 . S
C467 C195 1.539 . S
C459 C61 1.553 . S
C499 C174 1.619 . S
C491 C101 1.651 . S
C531 C194 1.664 . S
C523 C122 1.676 . S
C555 C21 1.665 . S
C563 C173 1.588 . S
