# Generated by pormake.
# Topology anh, (6,3)-cn, num edge types: 1
# Building blocks:
#     Node 0, Type 0, BuildingBlock: PAMTOO_clean_sbu_0, # of connection points: 6
#     Node 1, Type 0, BuildingBlock: PAMTOO_clean_sbu_0, # of connection points: 6
#     Node 2, Type 0, BuildingBlock: PAMTOO_clean_sbu_0, # of connection points: 6
#     Node 3, Type 1, BuildingBlock: WUSLED_clean_sbu_0, # of connection points: 3
#     Node 4, Type 1, BuildingBlock: WUSLED_clean_sbu_0, # of connection points: 3
#     Node 5, Type 1, BuildingBlock: WUSLED_clean_sbu_0, # of connection points: 3
#     Node 6, Type 1, BuildingBlock: WUSLED_clean_sbu_0, # of connection points: 3
#     Node 7, Type 1, BuildingBlock: WUSLED_clean_sbu_0, # of connection points: 3
#     Node 8, Type 1, BuildingBlock: WUSLED_clean_sbu_0, # of connection points: 3
#     Edge 9, Type (0, 1), BuildingBlock: OJICUG_clean_linker_0, # of connection points: 2
#     Edge 10, Type (0, 1), BuildingBlock: OJICUG_clean_linker_0, # of connection points: 2
#     Edge 11, Type (0, 1), BuildingBlock: OJICUG_clean_linker_0, # of connection points: 2
#     Edge 12, Type (0, 1), BuildingBlock: OJICUG_clean_linker_0, # of connection points: 2
#     Edge 13, Type (0, 1), BuildingBlock: OJICUG_clean_linker_0, # of connection points: 2
#     Edge 14, Type (0, 1), BuildingBlock: OJICUG_clean_linker_0, # of connection points: 2
#     Edge 15, Type (0, 1), BuildingBlock: OJICUG_clean_linker_0, # of connection points: 2
#     Edge 16, Type (0, 1), BuildingBlock: OJICUG_clean_linker_0, # of connection points: 2
#     Edge 17, Type (0, 1), BuildingBlock: OJICUG_clean_linker_0, # of connection points: 2
#     Edge 18, Type (0, 1), BuildingBlock: OJICUG_clean_linker_0, # of connection points: 2
#     Edge 19, Type (0, 1), BuildingBlock: OJICUG_clean_linker_0, # of connection points: 2
#     Edge 20, Type (0, 1), BuildingBlock: OJICUG_clean_linker_0, # of connection points: 2
#     Edge 21, Type (0, 1), BuildingBlock: OJICUG_clean_linker_0, # of connection points: 2
#     Edge 22, Type (0, 1), BuildingBlock: OJICUG_clean_linker_0, # of connection points: 2
#     Edge 23, Type (0, 1), BuildingBlock: OJICUG_clean_linker_0, # of connection points: 2
#     Edge 24, Type (0, 1), BuildingBlock: OJICUG_clean_linker_0, # of connection points: 2
#     Edge 25, Type (0, 1), BuildingBlock: OJICUG_clean_linker_0, # of connection points: 2
#     Edge 26, Type (0, 1), BuildingBlock: OJICUG_clean_linker_0, # of connection points: 2
# Relax obj value: 0.193
# Max RMSD: 0.199
# Mean RMSD: 0.156
data_MOF--net-anh--node1-PAMTOO_clean_sbu_0--node2-WUSLED_clean_sbu_0--edge1-OJICUG_clean_linker_0
_symmetry_space_group_name_H-M    P1
_symmetry_Int_Tables_number       1
_symmetry_cell_setting            triclinic
loop_
_symmetry_equiv_pos_as_xyz
'x, y, z'
_cell_length_a     30.541834
_cell_length_b     29.993162
_cell_length_c     55.204992
_cell_angle_alpha  90.376118
_cell_angle_beta   94.474874
_cell_angle_gamma 102.40048
loop_
_atom_site_label
_atom_site_type_symbol
_atom_site_fract_x
_atom_site_fract_y
_atom_site_fract_z
_atom_type_partial_charge
Dy0 Dy 1.07869 0.59749 0.16626 0.0
Dy1 Dy 1.04762 0.4843 0.15974 0.0
C2 C 1.06024 0.5488 0.11437 0.0
O3 O 1.00266 0.58342 0.16651 0.0
O4 O 0.98364 0.50876 0.15203 0.0
O5 O 0.11041 0.6625 0.15226 0.0
O6 O 1.08519 0.65946 0.18791 0.0
O7 O 1.03572 0.5044 0.1972 0.0
O8 O 0.09304 0.56689 0.20199 0.0
O9 O 0.12368 0.49778 0.16406 0.0
O10 O 0.14149 0.5752 0.1575 0.0
O11 O 1.04817 0.41776 0.17436 0.0
O12 O 1.0102 0.42347 0.1401 0.0
C13 C 0.97235 0.54717 0.15795 0.0
O14 O 1.05139 0.58141 0.12787 0.0
O15 O 1.06925 0.51146 0.12395 0.0
C16 C 0.15103 0.71551 0.18195 0.0
C17 C 0.23332 0.7751 0.19864 0.0
C18 C 0.1962 0.79244 0.18932 0.0
C19 C 0.15557 0.76296 0.18108 0.0
C20 C 0.18778 0.69784 0.19123 0.0
C21 C 0.22848 0.72731 0.1995 0.0
C22 C 0.1085 0.68499 0.1723 0.0
C23 C 1.06472 0.53364 0.21133 0.0
C24 C 0.15322 0.53555 0.15986 0.0
C25 C 0.97902 0.36408 0.1658 0.0
C26 C 0.90275 0.3018 0.18076 0.0
C27 C 0.92224 0.34164 0.19469 0.0
C28 C 0.95981 0.37256 0.18723 0.0
C29 C 0.95976 0.32442 0.1519 0.0
C30 C 0.92203 0.29366 0.15925 0.0
C31 C 1.01849 0.39647 0.1575 0.0
H32 H 0.1987 0.82888 0.18797 0.0
H33 H 0.12775 0.77727 0.17378 0.0
H34 H 0.18502 0.66126 0.19197 0.0
H35 H 0.256 0.7126 0.20681 0.0
H36 H 0.90799 0.34933 0.21117 0.0
H37 H 0.97373 0.40317 0.19817 0.0
H38 H 0.97393 0.31721 0.13529 0.0
H39 H 0.90827 0.26316 0.1482 0.0
Dy40 Dy 0.56423 0.03785 0.54106 0.0
Dy41 Dy 0.6762 0.0713 0.54612 0.0
C42 C 0.62063 0.0487 0.59262 0.0
O43 O 0.57693 0.11404 0.5401 0.0
O44 O 0.651 0.13295 0.55577 0.0
O45 O 0.50269 1.00333 0.55558 0.0
O46 O 0.50039 0.03347 0.52011 0.0
O47 O 0.64987 0.08832 0.50925 0.0
O48 O 0.58992 0.02825 0.50494 0.0
O49 O 0.66336 0.99558 0.53941 0.0
O50 O 0.58904 0.97441 0.54785 0.0
O51 O 0.73941 0.07423 0.53054 0.0
O52 O 0.73831 0.10742 0.5654 0.0
C53 C 0.61235 0.14392 0.54951 0.0
O54 O 0.58542 0.05792 0.58002 0.0
O55 O 0.65618 0.04295 0.58198 0.0
C56 C 0.44659 0.96438 0.52581 0.0
C57 C 0.38541 0.88409 0.50744 0.0
C58 C 0.40387 0.8871 0.5317 0.0
C59 C 0.43397 0.92673 0.54078 0.0
C60 C 0.4279 0.96153 0.50161 0.0
C61 C 0.39783 0.92186 0.49252 0.0
C62 C 0.47795 1.00679 0.53561 0.0
C63 C 0.62015 0.05932 0.49529 0.0
C64 C 0.62753 0.9643 0.54365 0.0
C65 C 0.79339 0.14308 0.53976 0.0
C66 C 0.85366 0.22209 0.52536 0.0
C67 C 0.81324 0.20428 0.51118 0.0
C68 C 0.78329 0.1653 0.51837 0.0
C69 C 0.83358 0.16077 0.55394 0.0
C70 C 0.86337 0.1999 0.54687 0.0
C71 C 0.76249 0.10175 0.54763 0.0
H72 H 0.39546 0.85858 0.54366 0.0
H73 H 0.44733 0.92778 0.55959 0.0
H74 H 0.43634 0.99008 0.48966 0.0
H75 H 0.38375 0.92108 0.47386 0.0
H76 H 0.80446 0.22084 0.49468 0.0
H77 H 0.75225 0.15258 0.50721 0.0
H78 H 0.84202 0.1442 0.57051 0.0
H79 H 0.89437 0.21239 0.55808 0.0
Dy80 Dy 0.65192 0.4862 0.85071 0.0
Dy81 Dy 0.544 0.47151 0.83685 0.0
C82 C 0.61114 0.4804 0.79519 0.0
O83 O 0.6356 0.55378 0.85891 0.0
O84 O 0.57385 0.54499 0.83183 0.0
O85 O 0.71905 0.52736 0.85169 0.0
O86 O 0.70773 0.459 0.86613 0.0
O87 O 0.55566 0.49361 0.87625 0.0
O88 O 0.62105 0.46995 0.88583 0.0
O89 O 0.55474 0.401 0.84283 0.0
O90 O 0.62897 0.41545 0.83491 0.0
O91 O 0.47492 0.45101 0.84576 0.0
O92 O 0.49023 0.48129 0.81107 0.0
C93 C 0.60612 0.57118 0.84565 0.0
O94 O 0.64387 0.50048 0.81107 0.0
O95 O 0.57248 0.45808 0.80215 0.0
C96 C 0.77443 0.48472 0.8469 0.0
C97 C 0.85171 0.47654 0.82426 0.0
C98 C 0.81592 0.49005 0.81086 0.0
C99 C 0.77738 0.4939 0.82207 0.0
C100 C 0.80866 0.46828 0.85982 0.0
C101 C 0.84694 0.46405 0.8486 0.0
C102 C 0.73732 0.49436 0.85995 0.0
C103 C 0.58543 0.48311 0.89249 0.0
C104 C 0.59065 0.38672 0.83742 0.0
C105 C 0.43838 0.50917 0.83213 0.0
C106 C 0.40752 0.59008 0.83902 0.0
C107 C 0.43713 0.5762 0.85672 0.0
C108 C 0.45259 0.53641 0.85324 0.0
C109 C 0.40857 0.52253 0.81445 0.0
C110 C 0.39315 0.56265 0.81788 0.0
C111 C 0.46044 0.47158 0.82694 0.0
H112 H 0.81868 0.49971 0.79207 0.0
H113 H 0.75083 0.50589 0.81163 0.0
H114 H 0.80672 0.46069 0.87893 0.0
H115 H 0.87417 0.4542 0.85955 0.0
H116 H 0.44809 0.59579 0.87347 0.0
H117 H 0.47644 0.5275 0.86693 0.0
H118 H 0.39819 0.50261 0.79775 0.0
H119 H 0.37054 0.57251 0.80384 0.0
C120 C 0.66901 0.10893 0.22448 0.0
C121 C 0.69014 0.14601 0.23993 0.0
C122 C 0.74584 0.17209 0.21067 0.0
C123 C 0.72804 0.17729 0.23308 0.0
C124 C 0.72474 0.13443 0.19545 0.0
C125 C 0.68677 0.10334 0.20227 0.0
U126 U 0.59464 0.046 0.27183 0.0
O127 O 0.52104 0.02923 0.27301 0.0
O128 O 0.55812 0.97415 0.27282 0.0
C129 C 0.5185 0.98488 0.2723 0.0
C130 C 0.62848 0.07594 0.23109 0.0
C131 C 0.48094 0.95596 0.25671 0.0
C132 C 0.4074 0.94558 0.23404 0.0
C133 C 0.44623 0.97431 0.24519 0.0
C134 C 0.43758 0.87958 0.24497 0.0
C135 C 0.40211 0.89775 0.2342 0.0
C136 C 0.47633 0.90828 0.25615 0.0
C137 C 0.63426 0.07243 0.33959 0.0
C138 C 0.58901 0.05705 0.37422 0.0
C139 C 0.67022 0.07789 0.38069 0.0
C140 C 0.67321 0.08094 0.35559 0.0
C141 C 0.62808 0.06639 0.3904 0.0
C142 C 0.59207 0.06001 0.34904 0.0
C143 C 0.63877 0.07801 0.31331 0.0
O144 O 0.63573 0.03862 0.2415 0.0
O145 O 0.59829 0.09333 0.24139 0.0
O146 O 0.60961 0.09794 0.30135 0.0
O147 O 0.64655 0.04275 0.30146 0.0
H148 H 0.67717 0.15097 0.25723 0.0
H149 H 0.74289 0.20599 0.24521 0.0
H150 H 0.73778 0.12861 0.1783 0.0
H151 H 0.67122 0.07483 0.19014 0.0
H152 H 0.38113 0.96088 0.22562 0.0
H153 H 0.44831 0.01081 0.24543 0.0
H154 H 0.43463 0.843 0.24574 0.0
H155 H 0.50199 0.89296 0.26524 0.0
H156 H 0.556 0.04845 0.38102 0.0
H157 H 0.70106 0.08441 0.39248 0.0
H158 H 0.70609 0.09034 0.34865 0.0
H159 H 0.56153 0.05317 0.33699 0.0
C160 C 0.62752 0.67737 0.54535 0.0
C161 C 0.65848 0.70707 0.56147 0.0
C162 C 0.63186 0.77221 0.54453 0.0
C163 C 0.66078 0.75425 0.56097 0.0
C164 C 0.6014 0.74229 0.5283 0.0
C165 C 0.59936 0.69543 0.52869 0.0
U166 U 0.62173 0.55984 0.5752 0.0
O167 O 0.57511 0.49567 0.56271 0.0
O168 O 0.64823 0.50263 0.56177 0.0
C169 C 0.60796 0.47621 0.55744 0.0
C170 C 0.62358 0.62757 0.5451 0.0
C171 C 0.60276 0.42721 0.56219 0.0
C172 C 0.56992 0.34974 0.54764 0.0
C173 C 0.57104 0.39645 0.5471 0.0
C174 C 0.63077 0.36343 0.57949 0.0
C175 C 0.60052 0.33267 0.56339 0.0
C176 C 0.63201 0.41038 0.57884 0.0
C177 C 0.63309 0.55532 0.6461 0.0
C178 C 0.60579 0.49472 0.67381 0.0
C179 C 0.65753 0.56378 0.68913 0.0
C180 C 0.65875 0.58072 0.66565 0.0
C181 C 0.63058 0.52082 0.69363 0.0
C182 C 0.60704 0.51182 0.65021 0.0
C183 C 0.63181 0.57704 0.62226 0.0
O184 O 0.65953 0.6124 0.55258 0.0
O185 O 0.5863 0.60347 0.55278 0.0
O186 O 0.59267 0.56987 0.60947 0.0
O187 O 0.66577 0.57676 0.60906 0.0
H188 H 0.68054 0.69385 0.57453 0.0
H189 H 0.68432 0.77653 0.57379 0.0
H190 H 0.57909 0.75518 0.51523 0.0
H191 H 0.57549 0.67313 0.51599 0.0
H192 H 0.54659 0.3274 0.53476 0.0
H193 H 0.54847 0.40882 0.53395 0.0
H194 H 0.65429 0.35136 0.59216 0.0
H195 H 0.65679 0.43354 0.59068 0.0
H196 H 0.58508 0.4613 0.67656 0.0
H197 H 0.67644 0.58526 0.70389 0.0
H198 H 0.6788 0.6145 0.66288 0.0
H199 H 0.587 0.49159 0.63533 0.0
C200 C 0.11315 0.59226 0.8482 0.0
C201 C 0.08964 0.55405 0.85976 0.0
C202 C 1.03713 0.53491 0.82394 0.0
C203 C 1.05217 0.52554 0.84773 0.0
C204 C 1.06291 0.57121 0.81175 0.0
C205 C 0.10066 0.59979 0.82386 0.0
U206 U 0.1548 0.64931 0.90882 0.0
O207 O 0.22218 0.667 0.92786 0.0
O208 O 0.18587 0.72116 0.91882 0.0
C209 C 0.22497 0.71102 0.92523 0.0
C210 C 0.1466 0.6269 0.86246 0.0
C211 C 0.2628 0.73222 0.91127 0.0
C212 C 0.33843 0.72583 0.90404 0.0
C213 C 0.30635 0.72948 0.92021 0.0
C214 C 0.28657 0.73662 0.87026 0.0
C215 C 0.32712 0.72504 0.8788 0.0
C216 C 0.2544 0.73989 0.8864 0.0
C217 C 0.09101 0.60118 0.96332 0.0
C218 C 0.12181 0.59259 1.00451 0.0
C219 C 1.04167 0.5868 0.99615 0.0
C220 C 1.04788 0.59462 0.97158 0.0
C221 C 1.07851 0.58485 0.01272 0.0
C222 C 0.12809 0.60101 0.98005 0.0
C223 C 0.09631 0.60441 0.93708 0.0
O224 O 0.13053 0.66046 0.87121 0.0
O225 O 0.17286 0.61076 0.87854 0.0
O226 O 0.13012 0.58869 0.92972 0.0
O227 O 0.09164 0.64278 0.92682 0.0
H228 H 0.09851 0.54782 0.87864 0.0
H229 H 1.03287 0.49854 0.85793 0.0
H230 H 1.05234 0.57912 0.79339 0.0
H231 H 0.11853 0.62918 0.81468 0.0
H232 H 0.36953 0.71731 0.91128 0.0
H233 H 0.31356 0.7236 0.93932 0.0
H234 H 0.27745 0.73735 0.85093 0.0
H235 H 0.22115 0.74239 0.87897 0.0
H236 H 0.15082 0.59194 0.01702 0.0
H237 H 1.00794 0.58087 1.00206 0.0
H238 H 1.01887 0.59446 0.95893 0.0
H239 H 0.16179 0.6063 0.97415 0.0
C240 C 1.04352 0.46057 0.48218 0.0
C241 C 1.00543 0.44149 0.4666 0.0
C242 C 0.98082 0.38283 0.49608 0.0
C243 C 0.97433 0.40315 0.47351 0.0
C244 C 1.01934 0.40201 0.5115 0.0
C245 C 1.05027 0.44048 0.50462 0.0
U246 U 0.09967 0.53678 0.43347 0.0
O247 O 0.17084 0.56962 0.4303 0.0
O248 O 0.12012 0.61144 0.4314 0.0
C249 C 0.16305 0.61105 0.43101 0.0
C250 C 1.07672 0.50085 0.47513 0.0
C251 C 0.19574 0.64598 0.44612 0.0
C252 C 0.21315 0.71338 0.47301 0.0
C253 C 0.18182 0.67658 0.46173 0.0
C254 C 0.27298 0.68888 0.45395 0.0
C255 C 0.25903 0.72055 0.46886 0.0
C256 C 0.24171 0.65219 0.44268 0.0
C257 C 1.0601 0.50499 0.3667 0.0
C258 C 0.10167 0.5307 0.33171 0.0
C259 C 1.02196 0.49695 0.32611 0.0
C260 C 1.02088 0.49126 0.35118 0.0
C261 C 1.06246 0.51631 0.31598 0.0
C262 C 0.10047 0.52521 0.35684 0.0
C263 C 1.05812 0.49722 0.39296 0.0
O264 O 0.11025 0.49186 0.46382 0.0
O265 O 1.06001 0.53402 0.46524 0.0
O266 O 1.04297 0.52749 0.40532 0.0
O267 O 0.09323 0.48523 0.40419 0.0
H268 H 0.99967 0.45633 0.44911 0.0
H269 H 0.94491 0.38982 0.46126 0.0
H270 H 1.02602 0.38695 0.5288 0.0
H271 H 1.07965 0.45444 0.51681 0.0
H272 H 0.20109 0.73725 0.4842 0.0
H273 H 0.1466 0.67303 0.46465 0.0
H274 H 0.30808 0.6928 0.45066 0.0
H275 H 0.25337 0.62937 0.43061 0.0
H276 H 0.13351 0.54535 0.32458 0.0
H277 H 0.99093 0.48632 0.31468 0.0
H278 H 0.98934 0.47589 0.35847 0.0
H279 H 0.13116 0.53628 0.36852 0.0
C280 C 0.61287 0.85988 0.84358 0.0
C281 C 0.60212 0.83343 0.82203 0.0
C282 C 0.61582 0.76647 0.84372 0.0
C283 C 0.60353 0.78709 0.82211 0.0
C284 C 0.62787 0.79359 0.86507 0.0
C285 C 0.6263 0.83984 0.86498 0.0
U286 U 0.60306 0.97498 0.81497 0.0
O287 O 0.55748 0.01865 0.82513 0.0
O288 O 0.63084 0.04368 0.83067 0.0
C289 C 0.59088 0.05258 0.83254 0.0
C290 C 0.60796 0.90756 0.84457 0.0
C291 C 0.58529 0.09926 0.82734 0.0
C292 C 0.55277 0.16254 0.83911 0.0
C293 C 0.55446 0.11647 0.84018 0.0
C294 C 0.61142 0.17476 0.81124 0.0
C295 C 0.58192 0.19259 0.82507 0.0
C296 C 0.6132 0.12848 0.81242 0.0
C297 C 0.60906 0.98671 0.7445 0.0
C298 C 0.57293 0.98951 0.70374 0.0
C299 C 0.64973 0.03067 0.7131 0.0
C300 C 0.64809 0.01567 0.73705 0.0
C301 C 0.6125 0.01693 0.69599 0.0
C302 C 0.57132 0.97444 0.72765 0.0
C303 C 0.60946 0.96366 0.76821 0.0
O304 O 0.64319 0.93882 0.83967 0.0
O305 O 0.56989 0.91523 0.83456 0.0
O306 O 0.57119 0.95298 0.77843 0.0
O307 O 0.64445 0.9777 0.78394 0.0
H308 H 0.59185 0.84839 0.8053 0.0
H309 H 0.59467 0.7673 0.80528 0.0
H310 H 0.63704 0.77875 0.88204 0.0
H311 H 0.6346 0.85976 0.8818 0.0
H312 H 0.53009 0.17494 0.85028 0.0
H313 H 0.53294 0.0946 0.852 0.0
H314 H 0.63383 0.19674 0.79992 0.0
H315 H 0.63729 0.11596 0.80232 0.0
H316 H 0.54381 0.97776 0.69102 0.0
H317 H 0.68055 0.05224 0.70783 0.0
H318 H 0.67799 0.02548 0.74943 0.0
H319 H 0.54104 0.9515 0.73264 0.0
C320 C 0.68563 0.54959 0.13554 0.0
C321 C 0.70336 0.51675 0.12354 0.0
C322 C 0.78024 0.55148 0.14073 0.0
C323 C 0.74997 0.51787 0.12596 0.0
C324 C 0.76214 0.58483 0.15218 0.0
C325 C 0.71579 0.58389 0.14957 0.0
U326 U 0.55261 0.53332 0.11666 0.0
O327 O 0.50029 0.49986 0.14028 0.0
O328 O 0.5097 0.57301 0.1338 0.0
C329 C 0.48545 0.53724 0.14372 0.0
C330 C 0.63619 0.5462 0.13672 0.0
C331 C 0.43545 0.53304 0.14286 0.0
C332 C 0.36404 0.50095 0.16008 0.0
C333 C 0.40994 0.50207 0.15812 0.0
C334 C 0.36739 0.56134 0.13116 0.0
C335 C 0.34197 0.53101 0.1469 0.0
C336 C 0.41336 0.56241 0.1292 0.0
C337 C 0.54547 0.50855 0.04517 0.0
C338 C 0.52182 0.47555 1.00458 0.0
C339 C 0.59436 0.52722 0.01212 0.0
C340 C 0.58611 0.53193 0.03665 0.0
C341 C 0.56182 0.49963 0.99569 0.0
C342 C 0.51386 0.47989 0.02899 0.0
C343 C 0.53214 0.51609 0.06983 0.0
O344 O 0.6181 0.57955 0.1282 0.0
O345 O 0.60867 0.50591 0.13401 0.0
O346 O 0.53283 0.48389 0.08581 0.0
O347 O 0.5433 0.55763 0.07943 0.0
H348 H 0.68117 0.48963 0.1127 0.0
H349 H 0.7621 0.49197 0.11636 0.0
H350 H 0.78344 0.61092 0.16402 0.0
H351 H 0.70319 0.60926 0.1594 0.0
H352 H 0.34629 0.47746 0.17264 0.0
H353 H 0.42593 0.47943 0.16919 0.0
H354 H 0.35184 0.58458 0.12034 0.0
H355 H 0.43174 0.58693 0.11732 0.0
H356 H 0.49637 0.45349 0.99259 0.0
H357 H 0.62549 0.54633 1.00584 0.0
H358 H 0.61091 0.55451 0.04875 0.0
H359 H 0.48218 0.46168 0.0351 0.0
C360 C 0.21627 0.49246 0.15756 0.0
C361 C 0.2015 0.53387 0.15694 0.0
H362 H 0.27102 0.45871 0.15456 0.0
C363 C 0.23347 0.57414 0.15297 0.0
H364 H 0.1929 0.46065 0.16045 0.0
C365 C 0.27843 0.57309 0.14965 0.0
C366 C 0.29333 0.53173 0.15016 0.0
H367 H 0.22386 0.60686 0.15244 0.0
H368 H 0.30173 0.60508 0.14705 0.0
C369 C 0.26139 0.49141 0.15425 0.0
C370 C 0.90686 0.29784 0.5349 0.0
C371 C 0.88568 0.26354 0.51776 0.0
H372 H 0.95232 0.36249 0.54153 0.0
C373 C 0.89568 0.26897 0.49337 0.0
H374 H 0.89942 0.2951 0.55376 0.0
C375 C 0.92639 0.30751 0.48635 0.0
C376 C 0.94773 0.34182 0.5035 0.0
H377 H 0.88044 0.24294 0.47976 0.0
H378 H 0.934 0.30991 0.46751 0.0
C379 C 0.93733 0.33649 0.52786 0.0
C380 C 0.5753 0.63884 0.8326 0.0
C381 C 0.60904 0.6212 0.84561 0.0
H382 H 0.55084 0.69805 0.82202 0.0
C383 C 0.64521 0.65178 0.85811 0.0
H384 H 0.54666 0.61637 0.82293 0.0
C385 C 0.64765 0.69897 0.85745 0.0
C386 C 0.61404 0.71651 0.84424 0.0
H387 H 0.67176 0.63936 0.86827 0.0
H388 H 0.67614 0.72175 0.86705 0.0
C389 C 0.57779 0.68581 0.83192 0.0
C390 C 0.8903 0.50851 0.14944 0.0
C391 C 0.9234 0.54899 0.15407 0.0
H392 H 0.82057 0.47717 0.14225 0.0
C393 C 0.90898 0.59054 0.15416 0.0
H394 H 0.89967 0.47567 0.14933 0.0
C395 C 0.86308 0.5915 0.14957 0.0
C396 C 0.82984 0.55089 0.14496 0.0
H397 H 0.93326 0.6225 0.15742 0.0
H398 H 0.85387 0.62438 0.14933 0.0
C399 C 0.84452 0.5094 0.14509 0.0
C400 C 0.31998 0.81795 0.51195 0.0
C401 C 0.35331 0.84183 0.49775 0.0
H402 H 0.26453 0.76098 0.51418 0.0
C403 C 0.35563 0.82508 0.47414 0.0
H404 H 0.31688 0.83008 0.53013 0.0
C405 C 0.32536 0.7857 0.46493 0.0
C406 C 0.29188 0.76191 0.47906 0.0
H407 H 0.38111 0.84223 0.46277 0.0
H408 H 0.3278 0.77434 0.44652 0.0
C409 C 0.28962 0.77856 0.50271 0.0
C410 C 0.54633 0.30588 0.83194 0.0
C411 C 0.58791 0.33724 0.83328 0.0
H412 H 0.51155 0.23597 0.82747 0.0
C413 C 0.62716 0.32088 0.83063 0.0
H414 H 0.51538 0.31733 0.83363 0.0
C415 C 0.62503 0.2742 0.82731 0.0
C416 C 0.58356 0.24263 0.8264 0.0
H417 H 0.65981 0.34404 0.83159 0.0
H418 H 0.65616 0.2628 0.82624 0.0
C419 C 0.54416 0.25916 0.82844 0.0
C420 C 0.67095 0.90155 0.54461 0.0
C421 C 0.6297 0.91541 0.54386 0.0
H422 H 0.70411 0.84513 0.54564 0.0
C423 C 0.58966 0.88182 0.54364 0.0
H424 H 0.70239 0.92657 0.5449 0.0
C425 C 0.59069 0.83563 0.54401 0.0
C426 C 0.63176 0.82166 0.54472 0.0
H427 H 0.55721 0.89109 0.54306 0.0
H428 H 0.55918 0.81075 0.54392 0.0
C429 C 0.67198 0.85503 0.54521 0.0
C430 C 0.91528 0.52648 0.80548 0.0
C431 C 0.89682 0.48385 0.81497 0.0
H432 H 0.97501 0.57621 0.8007 0.0
C433 C 0.92501 0.45339 0.82063 0.0
H434 H 0.89443 0.55071 0.80092 0.0
C435 C 0.97156 0.46793 0.82029 0.0
C436 C 0.99046 0.51328 0.81458 0.0
H437 H 0.91144 0.41992 0.82748 0.0
H438 H 0.99284 0.44522 0.82683 0.0
C439 C 0.96177 0.54112 0.80532 0.0
C440 C 0.31841 0.7964 0.20329 0.0
C441 C 0.27672 0.80676 0.20741 0.0
H442 H 0.39032 0.81701 0.20798 0.0
C443 C 0.27684 0.84776 0.22001 0.0
H444 H 0.31981 0.7656 0.19332 0.0
C445 C 0.31734 0.87737 0.22833 0.0
C446 C 0.35901 0.8669 0.22435 0.0
H447 H 0.24555 0.85665 0.22393 0.0
H448 H 0.3159 0.90802 0.23843 0.0
C449 C 0.35896 0.82601 0.21166 0.0
C450 C 0.56682 0.20399 0.55241 0.0
C451 C 0.60887 0.19186 0.55366 0.0
H452 H 0.53098 0.25751 0.55538 0.0
C453 C 0.64788 0.226 0.55925 0.0
H454 H 0.53607 0.17846 0.54844 0.0
C455 C 0.64502 0.27134 0.56302 0.0
C456 C 0.60305 0.28372 0.56147 0.0
H457 H 0.68088 0.21793 0.56031 0.0
H458 H 0.67592 0.29687 0.56641 0.0
C459 C 0.56393 0.24936 0.55639 0.0
C460 C 0.34347 0.6299 0.83845 0.0
C461 C 0.3894 0.63117 0.84375 0.0
H462 H 0.2879 0.65927 0.84513 0.0
C463 C 0.41642 0.66959 0.85635 0.0
H464 H 0.32161 0.60085 0.8289 0.0
C465 C 0.39695 0.70336 0.86584 0.0
C466 C 0.35022 0.6995 0.86266 0.0
H467 H 0.45225 0.67223 0.86009 0.0
H468 H 0.41796 0.73079 0.877 0.0
C469 C 0.32412 0.66376 0.84774 0.0
C470 C 0.82694 0.24897 0.17143 0.0
C471 C 0.86243 0.26895 0.18853 0.0
H472 H 0.76234 0.20404 0.16493 0.0
C473 C 0.8591 0.25712 0.21305 0.0
H474 H 0.82795 0.25781 0.15247 0.0
C475 C 0.8215 0.22587 0.22023 0.0
C476 C 0.78599 0.20572 0.20311 0.0
H477 H 0.88602 0.27137 0.22668 0.0
H478 H 0.82072 0.21691 0.23918 0.0
C479 C 0.78925 0.21795 0.17862 0.0
C480 C 1.08652 0.53118 0.07432 0.0
C481 C 1.06237 0.55578 0.08801 0.0
H482 H 0.1108 0.52149 0.03971 0.0
C483 C 1.04219 0.58889 0.07653 0.0
H484 H 0.10258 0.5056 0.08269 0.0
C485 C 1.04662 0.59768 0.05192 0.0
C486 C 1.0719 0.57406 0.03846 0.0
H487 H 1.02324 0.60829 0.0866 0.0
H488 H 1.03126 0.62379 0.04358 0.0
C489 C 0.09152 0.5405 0.04981 0.0
C490 C 0.65283 0.09555 0.458 0.0
C491 C 0.62132 0.06146 0.46845 0.0
H492 H 0.67907 0.12439 0.42543 0.0
C493 C 0.59145 0.02929 0.453 0.0
H494 H 0.67622 0.12105 0.46929 0.0
C495 C 0.59338 0.03096 0.42773 0.0
C496 C 0.62519 0.06485 0.41728 0.0
H497 H 0.56679 1.0025 0.46042 0.0
H498 H 0.57045 1.00515 0.41642 0.0
C499 C 0.65467 0.09728 0.43278 0.0
C500 C 0.65936 0.50523 0.76088 0.0
C501 C 0.61703 0.48567 0.76885 0.0
H502 H 0.69714 0.5303 0.73091 0.0
C503 C 0.57993 0.47395 0.75151 0.0
H504 H 0.68878 0.51421 0.77367 0.0
C505 C 0.58464 0.48366 0.72696 0.0
C506 C 0.62661 0.50511 0.71913 0.0
H507 H 0.54681 0.45888 0.75701 0.0
H508 H 0.55492 0.4762 0.71432 0.0
C509 C 0.66411 0.51466 0.73633 0.0
C510 C 0.58115 0.04713 0.631 0.0
C511 C 0.61959 0.04337 0.61932 0.0
H512 H 0.54901 0.04255 0.66431 0.0
C513 C 0.65646 0.03311 0.63334 0.0
H514 H 0.55217 0.05519 0.62084 0.0
C515 C 0.65457 0.02578 0.65828 0.0
C516 C 0.61573 0.02844 0.66986 0.0
H517 H 0.68662 0.02993 0.625 0.0
H518 H 0.68308 0.01657 0.66834 0.0
C519 C 0.57924 0.0397 0.65594 0.0
C520 C 0.53886 0.49473 0.92674 0.0
C521 C 0.57961 0.48769 0.91889 0.0
H522 H 0.50146 0.50417 0.95693 0.0
C523 C 0.61494 0.48556 0.93657 0.0
H524 H 0.51098 0.49676 0.91371 0.0
C525 C 0.60957 0.49021 0.96142 0.0
C526 C 0.56856 0.49649 0.96925 0.0
H527 H 0.64691 0.48044 0.93124 0.0
H528 H 0.63726 0.488 0.97454 0.0
C529 C 0.53334 0.49882 0.95157 0.0
C530 C 0.09101 0.56345 0.25385 0.0
C531 C 1.06487 0.52922 0.23808 0.0
H532 H 0.11017 0.58676 0.29069 0.0
C533 C 1.03844 0.49062 0.24811 0.0
H534 H 0.11163 0.59372 0.24673 0.0
C535 C 1.03799 0.48638 0.27328 0.0
C536 C 1.06369 0.52079 0.28913 0.0
H537 H 1.01817 0.4634 0.23652 0.0
H538 H 1.01776 0.45579 0.28031 0.0
C539 C 0.09035 0.55933 0.27908 0.0
loop_
_geom_bond_atom_site_label_1
_geom_bond_atom_site_label_2
_geom_bond_distance
_geom_bond_site_symmetry_2
_ccdc_geom_bond_type
Dy0 O3 2.307 1_455 S
Dy0 O5 2.395 . S
Dy0 O6 2.379 . S
Dy0 O8 2.339 . S
Dy0 O10 2.298 . S
Dy0 O14 2.275 . S
Dy0 C22 2.738 . S
Dy1 O4 2.298 . S
Dy1 O7 2.275 1_655 S
Dy1 O9 2.307 1_655 S
Dy1 O11 2.395 . S
Dy1 O12 2.379 . S
Dy1 O15 2.339 . S
Dy1 C31 2.738 . S
C2 O14 1.254 . S
C2 O15 1.257 1_455 S
O3 Dy0 2.307 1_655 S
O3 C13 1.266 . S
O4 Dy1 2.298 . S
O4 C13 1.236 . S
O5 Dy0 2.395 . S
O5 C22 1.255 . S
O6 Dy0 2.379 . S
O6 C22 1.249 . S
O7 Dy1 2.275 1_455 S
O7 C23 1.254 . S
O8 Dy0 2.339 . S
O8 C23 1.257 . S
O9 Dy1 2.307 1_455 S
O9 C24 1.266 . S
O10 Dy0 2.298 . S
O10 C24 1.236 . S
O11 Dy1 2.395 . S
O11 C31 1.255 . S
O12 Dy1 2.379 . S
O12 C31 1.249 . S
C13 O3 1.266 . S
C13 O4 1.236 . S
O14 Dy0 2.275 . S
O14 C2 1.254 . S
O15 Dy1 2.339 . S
O15 C2 1.257 1_655 S
C16 C19 1.344 . S
C16 C20 1.328 . S
C16 C22 1.516 . S
C17 C18 1.304 . S
C17 C21 1.323 . S
C18 C17 1.304 . S
C18 C19 1.371 . S
C18 H32 0.930 . S
C19 C16 1.344 . S
C19 C18 1.371 . S
C19 H33 0.931 . S
C20 C16 1.328 . S
C20 C21 1.433 . S
C20 H34 0.931 . S
C21 C17 1.323 . S
C21 C20 1.433 . S
C21 H35 0.933 . S
C22 Dy0 2.738 . S
C22 O5 1.255 . S
C22 O6 1.249 . S
C22 C16 1.516 . S
C23 O7 1.254 . S
C23 O8 1.257 . S
C24 O9 1.266 . S
C24 O10 1.236 . S
C25 C28 1.344 . S
C25 C29 1.328 . S
C25 C31 1.516 . S
C26 C27 1.304 . S
C26 C30 1.323 . S
C27 C26 1.304 . S
C27 C28 1.371 . S
C27 H36 0.930 . S
C28 C25 1.344 . S
C28 C27 1.371 . S
C28 H37 0.931 . S
C29 C25 1.328 . S
C29 C30 1.433 . S
C29 H38 0.931 . S
C30 C26 1.323 . S
C30 C29 1.433 . S
C30 H39 0.933 . S
C31 Dy1 2.738 . S
C31 O11 1.255 . S
C31 O12 1.249 . S
C31 C25 1.516 . S
H32 C18 0.930 . S
H33 C19 0.931 . S
H34 C20 0.931 . S
H35 C21 0.933 . S
H36 C27 0.930 . S
H37 C28 0.931 . S
H38 C29 0.931 . S
H39 C30 0.933 . S
Dy40 O43 2.307 1_565 S
Dy40 O45 2.395 . S
Dy40 O46 2.379 . S
Dy40 O48 2.339 1_565 S
Dy40 O50 2.298 . S
Dy40 O54 2.275 1_565 S
Dy40 C62 2.738 . S
Dy41 O44 2.298 . S
Dy41 O47 2.275 . S
Dy41 O49 2.307 1_545 S
Dy41 O51 2.395 . S
Dy41 O52 2.379 . S
Dy41 O55 2.339 . S
Dy41 C71 2.738 . S
C42 O54 1.254 . S
C42 O55 1.257 . S
O43 Dy40 2.307 1_545 S
O43 C53 1.266 . S
O44 Dy41 2.298 . S
O44 C53 1.236 . S
O45 Dy40 2.395 . S
O45 C62 1.255 . S
O46 Dy40 2.379 . S
O46 C62 1.249 . S
O47 Dy41 2.275 . S
O47 C63 1.254 . S
O48 Dy40 2.339 1_545 S
O48 C63 1.257 . S
O49 Dy41 2.307 1_565 S
O49 C64 1.266 . S
O50 Dy40 2.298 . S
O50 C64 1.236 . S
O51 Dy41 2.395 . S
O51 C71 1.255 . S
O52 Dy41 2.379 . S
O52 C71 1.249 . S
C53 O43 1.266 . S
C53 O44 1.236 . S
O54 Dy40 2.275 1_545 S
O54 C42 1.254 . S
O55 Dy41 2.339 . S
O55 C42 1.257 . S
C56 C59 1.344 . S
C56 C60 1.328 . S
C56 C62 1.516 . S
C57 C58 1.304 . S
C57 C61 1.323 . S
C58 C57 1.304 . S
C58 C59 1.371 . S
C58 H72 0.930 . S
C59 C56 1.344 . S
C59 C58 1.371 . S
C59 H73 0.931 . S
C60 C56 1.328 . S
C60 C61 1.433 . S
C60 H74 0.931 . S
C61 C57 1.323 . S
C61 C60 1.433 . S
C61 H75 0.933 . S
C62 Dy40 2.738 . S
C62 O45 1.255 . S
C62 O46 1.249 . S
C62 C56 1.516 . S
C63 O47 1.254 . S
C63 O48 1.257 . S
C64 O49 1.266 . S
C64 O50 1.236 . S
C65 C68 1.344 . S
C65 C69 1.328 . S
C65 C71 1.516 . S
C66 C67 1.304 . S
C66 C70 1.323 . S
C67 C66 1.304 . S
C67 C68 1.371 . S
C67 H76 0.930 . S
C68 C65 1.344 . S
C68 C67 1.371 . S
C68 H77 0.931 . S
C69 C65 1.328 . S
C69 C70 1.433 . S
C69 H78 0.931 . S
C70 C66 1.323 . S
C70 C69 1.433 . S
C70 H79 0.933 . S
C71 Dy41 2.738 . S
C71 O51 1.255 . S
C71 O52 1.249 . S
C71 C65 1.516 . S
H72 C58 0.930 . S
H73 C59 0.931 . S
H74 C60 0.931 . S
H75 C61 0.933 . S
H76 C67 0.930 . S
H77 C68 0.931 . S
H78 C69 0.931 . S
H79 C70 0.933 . S
Dy80 O83 2.307 . S
Dy80 O85 2.395 . S
Dy80 O86 2.379 . S
Dy80 O88 2.339 . S
Dy80 O90 2.298 . S
Dy80 O94 2.275 . S
Dy80 C102 2.738 . S
Dy81 O84 2.298 . S
Dy81 O87 2.275 . S
Dy81 O89 2.307 . S
Dy81 O91 2.395 . S
Dy81 O92 2.379 . S
Dy81 O95 2.339 . S
Dy81 C111 2.738 . S
C82 O94 1.254 . S
C82 O95 1.257 . S
O83 Dy80 2.307 . S
O83 C93 1.266 . S
O84 Dy81 2.298 . S
O84 C93 1.236 . S
O85 Dy80 2.395 . S
O85 C102 1.255 . S
O86 Dy80 2.379 . S
O86 C102 1.249 . S
O87 Dy81 2.275 . S
O87 C103 1.254 . S
O88 Dy80 2.339 . S
O88 C103 1.257 . S
O89 Dy81 2.307 . S
O89 C104 1.266 . S
O90 Dy80 2.298 . S
O90 C104 1.236 . S
O91 Dy81 2.395 . S
O91 C111 1.255 . S
O92 Dy81 2.379 . S
O92 C111 1.249 . S
C93 O83 1.266 . S
C93 O84 1.236 . S
O94 Dy80 2.275 . S
O94 C82 1.254 . S
O95 Dy81 2.339 . S
O95 C82 1.257 . S
C96 C99 1.344 . S
C96 C100 1.328 . S
C96 C102 1.516 . S
C97 C98 1.304 . S
C97 C101 1.323 . S
C98 C97 1.304 . S
C98 C99 1.371 . S
C98 H112 0.930 . S
C99 C96 1.344 . S
C99 C98 1.371 . S
C99 H113 0.931 . S
C100 C96 1.328 . S
C100 C101 1.433 . S
C100 H114 0.931 . S
C101 C97 1.323 . S
C101 C100 1.433 . S
C101 H115 0.933 . S
C102 Dy80 2.738 . S
C102 O85 1.255 . S
C102 O86 1.249 . S
C102 C96 1.516 . S
C103 O87 1.254 . S
C103 O88 1.257 . S
C104 O89 1.266 . S
C104 O90 1.236 . S
C105 C108 1.344 . S
C105 C109 1.328 . S
C105 C111 1.516 . S
C106 C107 1.304 . S
C106 C110 1.323 . S
C107 C106 1.304 . S
C107 C108 1.371 . S
C107 H116 0.930 . S
C108 C105 1.344 . S
C108 C107 1.371 . S
C108 H117 0.931 . S
C109 C105 1.328 . S
C109 C110 1.433 . S
C109 H118 0.931 . S
C110 C106 1.323 . S
C110 C109 1.433 . S
C110 H119 0.933 . S
C111 Dy81 2.738 . S
C111 O91 1.255 . S
C111 O92 1.249 . S
C111 C105 1.516 . S
H112 C98 0.930 . S
H113 C99 0.931 . S
H114 C100 0.931 . S
H115 C101 0.933 . S
H116 C107 0.930 . S
H117 C108 0.931 . S
H118 C109 0.931 . S
H119 C110 0.933 . S
C120 C121 1.264 . S
C120 C125 1.479 . S
C120 C130 1.465 . S
C121 C120 1.264 . S
C121 C123 1.339 . S
C121 H148 0.931 . S
C122 C123 1.395 . S
C122 C124 1.320 . S
C123 C121 1.339 . S
C123 C122 1.395 . S
C123 H149 0.929 . S
C124 C122 1.320 . S
C124 C125 1.405 . S
C124 H150 0.930 . S
C125 C120 1.479 . S
C125 C124 1.405 . S
C125 H151 0.931 . S
U126 O127 2.454 . S
U126 O128 2.458 1_545 S
U126 C129 2.984 1_545 S
U126 C130 2.847 . S
U126 C143 2.882 . S
U126 O144 2.441 . S
U126 O145 2.420 . S
U126 O146 2.455 . S
U126 O147 2.449 . S
O127 U126 2.454 . S
O127 C129 1.353 1_545 S
O128 U126 2.458 1_565 S
O128 C129 1.286 . S
C129 U126 2.984 1_565 S
C129 O127 1.353 1_565 S
C129 O128 1.286 . S
C129 C131 1.363 . S
C130 C120 1.465 . S
C130 U126 2.847 . S
C130 O144 1.249 . S
C130 O145 1.202 . S
C131 C129 1.363 . S
C131 C133 1.408 . S
C131 C136 1.342 . S
C132 C133 1.310 . S
C132 C135 1.461 . S
C132 H152 0.932 . S
C133 C131 1.408 . S
C133 C132 1.310 . S
C133 H153 0.930 . S
C134 C135 1.474 . S
C134 C136 1.285 . S
C134 H154 0.929 . S
C135 C132 1.461 . S
C135 C134 1.474 . S
C136 C131 1.342 . S
C136 C134 1.285 . S
C136 H155 0.930 . S
C137 C140 1.424 . S
C137 C142 1.245 . S
C137 C143 1.428 . S
C138 C141 1.260 . S
C138 C142 1.477 . S
C138 H156 0.932 . S
C139 C140 1.384 . S
C139 C141 1.479 . S
C139 H157 0.929 . S
C140 C137 1.424 . S
C140 C139 1.384 . S
C140 H158 0.928 . S
C141 C138 1.260 . S
C141 C139 1.479 . S
C142 C137 1.245 . S
C142 C138 1.477 . S
C142 H159 0.932 . S
C143 U126 2.882 . S
C143 C137 1.428 . S
C143 O146 1.301 . S
C143 O147 1.282 . S
O144 U126 2.441 . S
O144 C130 1.249 . S
O145 U126 2.420 . S
O145 C130 1.202 . S
O146 U126 2.455 . S
O146 C143 1.301 . S
O147 U126 2.449 . S
O147 C143 1.282 . S
H148 C121 0.931 . S
H149 C123 0.929 . S
H150 C124 0.930 . S
H151 C125 0.931 . S
H152 C132 0.932 . S
H153 C133 0.930 . S
H154 C134 0.929 . S
H155 C136 0.930 . S
H156 C138 0.932 . S
H157 C139 0.929 . S
H158 C140 0.928 . S
H159 C142 0.932 . S
C160 C161 1.264 . S
C160 C165 1.479 . S
C160 C170 1.465 . S
C161 C160 1.264 . S
C161 C163 1.339 . S
C161 H188 0.931 . S
C162 C163 1.395 . S
C162 C164 1.320 . S
C163 C161 1.339 . S
C163 C162 1.395 . S
C163 H189 0.929 . S
C164 C162 1.320 . S
C164 C165 1.405 . S
C164 H190 0.930 . S
C165 C160 1.479 . S
C165 C164 1.405 . S
C165 H191 0.931 . S
U166 O167 2.454 . S
U166 O168 2.458 . S
U166 C169 2.984 . S
U166 C170 2.847 . S
U166 C183 2.882 . S
U166 O184 2.441 . S
U166 O185 2.420 . S
U166 O186 2.455 . S
U166 O187 2.449 . S
O167 U166 2.454 . S
O167 C169 1.353 . S
O168 U166 2.458 . S
O168 C169 1.286 . S
C169 U166 2.984 . S
C169 O167 1.353 . S
C169 O168 1.286 . S
C169 C171 1.363 . S
C170 C160 1.465 . S
C170 U166 2.847 . S
C170 O184 1.249 . S
C170 O185 1.202 . S
C171 C169 1.363 . S
C171 C173 1.408 . S
C171 C176 1.342 . S
C172 C173 1.310 . S
C172 C175 1.461 . S
C172 H192 0.932 . S
C173 C171 1.408 . S
C173 C172 1.310 . S
C173 H193 0.930 . S
C174 C175 1.474 . S
C174 C176 1.285 . S
C174 H194 0.929 . S
C175 C172 1.461 . S
C175 C174 1.474 . S
C176 C171 1.342 . S
C176 C174 1.285 . S
C176 H195 0.930 . S
C177 C180 1.424 . S
C177 C182 1.245 . S
C177 C183 1.428 . S
C178 C181 1.260 . S
C178 C182 1.477 . S
C178 H196 0.932 . S
C179 C180 1.384 . S
C179 C181 1.479 . S
C179 H197 0.929 . S
C180 C177 1.424 . S
C180 C179 1.384 . S
C180 H198 0.928 . S
C181 C178 1.260 . S
C181 C179 1.479 . S
C182 C177 1.245 . S
C182 C178 1.477 . S
C182 H199 0.932 . S
C183 U166 2.882 . S
C183 C177 1.428 . S
C183 O186 1.301 . S
C183 O187 1.282 . S
O184 U166 2.441 . S
O184 C170 1.249 . S
O185 U166 2.420 . S
O185 C170 1.202 . S
O186 U166 2.455 . S
O186 C183 1.301 . S
O187 U166 2.449 . S
O187 C183 1.282 . S
H188 C161 0.931 . S
H189 C163 0.929 . S
H190 C164 0.930 . S
H191 C165 0.931 . S
H192 C172 0.932 . S
H193 C173 0.930 . S
H194 C174 0.929 . S
H195 C176 0.930 . S
H196 C178 0.932 . S
H197 C179 0.929 . S
H198 C180 0.928 . S
H199 C182 0.932 . S
C200 C201 1.264 . S
C200 C205 1.479 . S
C200 C210 1.465 . S
C201 C200 1.264 . S
C201 C203 1.339 . S
C201 H228 0.931 . S
C202 C203 1.395 . S
C202 C204 1.320 . S
C203 C201 1.339 . S
C203 C202 1.395 . S
C203 H229 0.929 . S
C204 C202 1.320 . S
C204 C205 1.405 . S
C204 H230 0.930 . S
C205 C200 1.479 . S
C205 C204 1.405 . S
C205 H231 0.931 . S
U206 O207 2.454 . S
U206 O208 2.458 . S
U206 C209 2.984 . S
U206 C210 2.847 1_455 S
U206 C223 2.882 . S
U206 O224 2.441 1_455 S
U206 O225 2.420 1_455 S
U206 O226 2.455 . S
U206 O227 2.449 1_455 S
O207 U206 2.454 . S
O207 C209 1.353 . S
O208 U206 2.458 . S
O208 C209 1.286 . S
C209 U206 2.984 . S
C209 O207 1.353 . S
C209 O208 1.286 . S
C209 C211 1.363 . S
C210 C200 1.465 . S
C210 U206 2.847 1_655 S
C210 O224 1.249 . S
C210 O225 1.202 . S
C211 C209 1.363 . S
C211 C213 1.408 . S
C211 C216 1.342 . S
C212 C213 1.310 . S
C212 C215 1.461 . S
C212 H232 0.932 . S
C213 C211 1.408 . S
C213 C212 1.310 . S
C213 H233 0.930 . S
C214 C215 1.474 . S
C214 C216 1.285 . S
C214 H234 0.929 . S
C215 C212 1.461 . S
C215 C214 1.474 . S
C216 C211 1.342 . S
C216 C214 1.285 . S
C216 H235 0.930 . S
C217 C220 1.424 1_455 S
C217 C222 1.245 . S
C217 C223 1.428 . S
C218 C221 1.260 . S
C218 C222 1.477 1_554 S
C218 H236 0.932 . S
C219 C220 1.384 1_554 S
C219 C221 1.479 1_655 S
C219 H237 0.929 . S
C220 C217 1.424 1_655 S
C220 C219 1.384 1_556 S
C220 H238 0.928 . S
C221 C218 1.260 . S
C221 C219 1.479 1_455 S
C222 C217 1.245 . S
C222 C218 1.477 1_556 S
C222 H239 0.932 . S
C223 U206 2.882 . S
C223 C217 1.428 . S
C223 O226 1.301 . S
C223 O227 1.282 1_455 S
O224 U206 2.441 1_655 S
O224 C210 1.249 . S
O225 U206 2.420 1_655 S
O225 C210 1.202 . S
O226 U206 2.455 . S
O226 C223 1.301 . S
O227 U206 2.449 1_655 S
O227 C223 1.282 1_655 S
H228 C201 0.931 . S
H229 C203 0.929 . S
H230 C204 0.930 . S
H231 C205 0.931 . S
H232 C212 0.932 . S
H233 C213 0.930 . S
H234 C214 0.929 . S
H235 C216 0.930 . S
H236 C218 0.932 . S
H237 C219 0.929 . S
H238 C220 0.928 . S
H239 C222 0.932 . S
C240 C241 1.264 . S
C240 C245 1.479 . S
C240 C250 1.465 . S
C241 C240 1.264 . S
C241 C243 1.339 . S
C241 H268 0.931 . S
C242 C243 1.395 . S
C242 C244 1.320 . S
C243 C241 1.339 . S
C243 C242 1.395 . S
C243 H269 0.929 . S
C244 C242 1.320 . S
C244 C245 1.405 . S
C244 H270 0.930 . S
C245 C240 1.479 . S
C245 C244 1.405 . S
C245 H271 0.931 . S
U246 O247 2.454 . S
U246 O248 2.458 . S
U246 C249 2.984 . S
U246 C250 2.847 1_455 S
U246 C263 2.882 1_455 S
U246 O264 2.441 1_455 S
U246 O265 2.420 1_455 S
U246 O266 2.455 . S
U246 O267 2.449 1_455 S
O247 U246 2.454 . S
O247 C249 1.353 . S
O248 U246 2.458 . S
O248 C249 1.286 . S
C249 U246 2.984 . S
C249 O247 1.353 . S
C249 O248 1.286 . S
C249 C251 1.363 . S
C250 C240 1.465 . S
C250 U246 2.847 1_655 S
C250 O264 1.249 . S
C250 O265 1.202 . S
C251 C249 1.363 . S
C251 C253 1.408 . S
C251 C256 1.342 . S
C252 C253 1.310 . S
C252 C255 1.461 . S
C252 H272 0.932 . S
C253 C251 1.408 . S
C253 C252 1.310 . S
C253 H273 0.930 . S
C254 C255 1.474 . S
C254 C256 1.285 . S
C254 H274 0.929 . S
C255 C252 1.461 . S
C255 C254 1.474 . S
C256 C251 1.342 . S
C256 C254 1.285 . S
C256 H275 0.930 . S
C257 C260 1.424 . S
C257 C262 1.245 1_655 S
C257 C263 1.428 . S
C258 C261 1.260 1_455 S
C258 C262 1.477 . S
C258 H276 0.932 . S
C259 C260 1.384 . S
C259 C261 1.479 . S
C259 H277 0.929 . S
C260 C257 1.424 . S
C260 C259 1.384 . S
C260 H278 0.928 . S
C261 C258 1.260 1_655 S
C261 C259 1.479 . S
C262 C257 1.245 1_455 S
C262 C258 1.477 . S
C262 H279 0.932 . S
C263 U246 2.882 1_655 S
C263 C257 1.428 . S
C263 O266 1.301 1_655 S
C263 O267 1.282 . S
O264 U246 2.441 1_655 S
O264 C250 1.249 . S
O265 U246 2.420 1_655 S
O265 C250 1.202 . S
O266 U246 2.455 . S
O266 C263 1.301 1_455 S
O267 U246 2.449 1_655 S
O267 C263 1.282 . S
H268 C241 0.931 . S
H269 C243 0.929 . S
H270 C244 0.930 . S
H271 C245 0.931 . S
H272 C252 0.932 . S
H273 C253 0.930 . S
H274 C254 0.929 . S
H275 C256 0.930 . S
H276 C258 0.932 . S
H277 C259 0.929 . S
H278 C260 0.928 . S
H279 C262 0.932 . S
C280 C281 1.264 . S
C280 C285 1.479 . S
C280 C290 1.465 . S
C281 C280 1.264 . S
C281 C283 1.339 . S
C281 H308 0.931 . S
C282 C283 1.395 . S
C282 C284 1.320 . S
C283 C281 1.339 . S
C283 C282 1.395 . S
C283 H309 0.929 . S
C284 C282 1.320 . S
C284 C285 1.405 . S
C284 H310 0.930 . S
C285 C280 1.479 . S
C285 C284 1.405 . S
C285 H311 0.931 . S
U286 O287 2.454 1_565 S
U286 O288 2.458 1_565 S
U286 C289 2.984 1_565 S
U286 C290 2.847 . S
U286 C303 2.882 . S
U286 O304 2.441 . S
U286 O305 2.420 . S
U286 O306 2.455 1_565 S
U286 O307 2.449 . S
O287 U286 2.454 1_545 S
O287 C289 1.353 . S
O288 U286 2.458 1_545 S
O288 C289 1.286 . S
C289 U286 2.984 1_545 S
C289 O287 1.353 . S
C289 O288 1.286 . S
C289 C291 1.363 . S
C290 C280 1.465 . S
C290 U286 2.847 . S
C290 O304 1.249 . S
C290 O305 1.202 . S
C291 C289 1.363 . S
C291 C293 1.408 . S
C291 C296 1.342 . S
C292 C293 1.310 . S
C292 C295 1.461 . S
C292 H312 0.932 . S
C293 C291 1.408 . S
C293 C292 1.310 . S
C293 H313 0.930 . S
C294 C295 1.474 . S
C294 C296 1.285 . S
C294 H314 0.929 . S
C295 C292 1.461 . S
C295 C294 1.474 . S
C296 C291 1.342 . S
C296 C294 1.285 . S
C296 H315 0.930 . S
C297 C300 1.424 1_545 S
C297 C302 1.245 . S
C297 C303 1.428 1_545 S
C298 C301 1.260 . S
C298 C302 1.477 . S
C298 H316 0.932 . S
C299 C300 1.384 . S
C299 C301 1.479 1_565 S
C299 H317 0.929 . S
C300 C297 1.424 1_565 S
C300 C299 1.384 . S
C300 H318 0.928 . S
C301 C298 1.260 . S
C301 C299 1.479 1_545 S
C302 C297 1.245 . S
C302 C298 1.477 . S
C302 H319 0.932 . S
C303 U286 2.882 . S
C303 C297 1.428 1_565 S
C303 O306 1.301 1_565 S
C303 O307 1.282 . S
O304 U286 2.441 . S
O304 C290 1.249 . S
O305 U286 2.420 . S
O305 C290 1.202 . S
O306 U286 2.455 1_545 S
O306 C303 1.301 1_545 S
O307 U286 2.449 . S
O307 C303 1.282 . S
H308 C281 0.931 . S
H309 C283 0.929 . S
H310 C284 0.930 . S
H311 C285 0.931 . S
H312 C292 0.932 . S
H313 C293 0.930 . S
H314 C294 0.929 . S
H315 C296 0.930 . S
H316 C298 0.932 . S
H317 C299 0.929 . S
H318 C300 0.928 . S
H319 C302 0.932 . S
C320 C321 1.264 . S
C320 C325 1.479 . S
C320 C330 1.465 . S
C321 C320 1.264 . S
C321 C323 1.339 . S
C321 H348 0.931 . S
C322 C323 1.395 . S
C322 C324 1.320 . S
C323 C321 1.339 . S
C323 C322 1.395 . S
C323 H349 0.929 . S
C324 C322 1.320 . S
C324 C325 1.405 . S
C324 H350 0.930 . S
C325 C320 1.479 . S
C325 C324 1.405 . S
C325 H351 0.931 . S
U326 O327 2.454 . S
U326 O328 2.458 . S
U326 C329 2.984 . S
U326 C330 2.847 . S
U326 C343 2.882 . S
U326 O344 2.441 . S
U326 O345 2.420 . S
U326 O346 2.455 . S
U326 O347 2.449 . S
O327 U326 2.454 . S
O327 C329 1.353 . S
O328 U326 2.458 . S
O328 C329 1.286 . S
C329 U326 2.984 . S
C329 O327 1.353 . S
C329 O328 1.286 . S
C329 C331 1.363 . S
C330 C320 1.465 . S
C330 U326 2.847 . S
C330 O344 1.249 . S
C330 O345 1.202 . S
C331 C329 1.363 . S
C331 C333 1.408 . S
C331 C336 1.342 . S
C332 C333 1.310 . S
C332 C335 1.461 . S
C332 H352 0.932 . S
C333 C331 1.408 . S
C333 C332 1.310 . S
C333 H353 0.930 . S
C334 C335 1.474 . S
C334 C336 1.285 . S
C334 H354 0.929 . S
C335 C332 1.461 . S
C335 C334 1.474 . S
C336 C331 1.342 . S
C336 C334 1.285 . S
C336 H355 0.930 . S
C337 C340 1.424 . S
C337 C342 1.245 . S
C337 C343 1.428 . S
C338 C341 1.260 . S
C338 C342 1.477 1_556 S
C338 H356 0.932 . S
C339 C340 1.347 1_556 S
C339 C341 1.498 . S
C339 H357 0.948 . S
C340 C337 1.424 . S
C340 C339 1.347 1_554 S
C340 H358 0.928 . S
C341 C338 1.260 . S
C341 C339 1.498 . S
C342 C337 1.245 . S
C342 C338 1.477 1_554 S
C342 H359 0.932 . S
C343 U326 2.882 . S
C343 C337 1.428 . S
C343 O346 1.301 . S
C343 O347 1.282 . S
O344 U326 2.441 . S
O344 C330 1.249 . S
O345 U326 2.420 . S
O345 C330 1.202 . S
O346 U326 2.455 . S
O346 C343 1.301 . S
O347 U326 2.449 . S
O347 C343 1.282 . S
H348 C321 0.931 . S
H349 C323 0.929 . S
H350 C324 0.930 . S
H351 C325 0.931 . S
H352 C332 0.932 . S
H353 C333 0.930 . S
H354 C334 0.929 . S
H355 C336 0.930 . S
H356 C338 0.932 . S
H357 C339 0.948 . S
H358 C340 0.928 . S
H359 C342 0.932 . S
C360 C361 1.387 . S
C360 H364 0.950 . S
C360 C369 1.390 . S
C361 C360 1.387 . S
C361 C363 1.387 . S
H362 C369 0.950 . S
C363 C361 1.387 . S
C363 C365 1.390 . S
C363 H367 0.950 . S
H364 C360 0.950 . S
C365 C363 1.390 . S
C365 C366 1.387 . S
C365 H368 0.950 . S
C366 C365 1.387 . S
C366 C369 1.387 . S
H367 C363 0.950 . S
H368 C365 0.950 . S
C369 C360 1.390 . S
C369 H362 0.950 . S
C369 C366 1.387 . S
C370 C371 1.387 . S
C370 H374 0.950 . S
C370 C379 1.390 . S
C371 C370 1.387 . S
C371 C373 1.387 . S
H372 C379 0.950 . S
C373 C371 1.387 . S
C373 C375 1.390 . S
C373 H377 0.950 . S
H374 C370 0.950 . S
C375 C373 1.390 . S
C375 C376 1.387 . S
C375 H378 0.950 . S
C376 C375 1.387 . S
C376 C379 1.387 . S
H377 C373 0.950 . S
H378 C375 0.950 . S
C379 C370 1.390 . S
C379 H372 0.950 . S
C379 C376 1.387 . S
C380 C381 1.387 . S
C380 H384 0.950 . S
C380 C389 1.390 . S
C381 C380 1.387 . S
C381 C383 1.387 . S
H382 C389 0.950 . S
C383 C381 1.387 . S
C383 C385 1.390 . S
C383 H387 0.950 . S
H384 C380 0.950 . S
C385 C383 1.390 . S
C385 C386 1.387 . S
C385 H388 0.950 . S
C386 C385 1.387 . S
C386 C389 1.387 . S
H387 C383 0.950 . S
H388 C385 0.950 . S
C389 C380 1.390 . S
C389 H382 0.950 . S
C389 C386 1.387 . S
C390 C391 1.387 . S
C390 H394 0.950 . S
C390 C399 1.390 . S
C391 C390 1.387 . S
C391 C393 1.387 . S
H392 C399 0.950 . S
C393 C391 1.387 . S
C393 C395 1.390 . S
C393 H397 0.950 . S
H394 C390 0.950 . S
C395 C393 1.390 . S
C395 C396 1.387 . S
C395 H398 0.950 . S
C396 C395 1.387 . S
C396 C399 1.387 . S
H397 C393 0.950 . S
H398 C395 0.950 . S
C399 C390 1.390 . S
C399 H392 0.950 . S
C399 C396 1.387 . S
C400 C401 1.387 . S
C400 H404 0.950 . S
C400 C409 1.390 . S
C401 C400 1.387 . S
C401 C403 1.387 . S
H402 C409 0.950 . S
C403 C401 1.387 . S
C403 C405 1.390 . S
C403 H407 0.950 . S
H404 C400 0.950 . S
C405 C403 1.390 . S
C405 C406 1.387 . S
C405 H408 0.950 . S
C406 C405 1.387 . S
C406 C409 1.387 . S
H407 C403 0.950 . S
H408 C405 0.950 . S
C409 C400 1.390 . S
C409 H402 0.950 . S
C409 C406 1.387 . S
C410 C411 1.387 . S
C410 H414 0.950 . S
C410 C419 1.390 . S
C411 C410 1.387 . S
C411 C413 1.387 . S
H412 C419 0.950 . S
C413 C411 1.387 . S
C413 C415 1.390 . S
C413 H417 0.950 . S
H414 C410 0.950 . S
C415 C413 1.390 . S
C415 C416 1.387 . S
C415 H418 0.950 . S
C416 C415 1.387 . S
C416 C419 1.387 . S
H417 C413 0.950 . S
H418 C415 0.950 . S
C419 C410 1.390 . S
C419 H412 0.950 . S
C419 C416 1.387 . S
C420 C421 1.387 . S
C420 H424 0.950 . S
C420 C429 1.390 . S
C421 C420 1.387 . S
C421 C423 1.387 . S
H422 C429 0.950 . S
C423 C421 1.387 . S
C423 C425 1.390 . S
C423 H427 0.950 . S
H424 C420 0.950 . S
C425 C423 1.390 . S
C425 C426 1.387 . S
C425 H428 0.950 . S
C426 C425 1.387 . S
C426 C429 1.387 . S
H427 C423 0.950 . S
H428 C425 0.950 . S
C429 C420 1.390 . S
C429 H422 0.950 . S
C429 C426 1.387 . S
C430 C431 1.387 . S
C430 H434 0.950 . S
C430 C439 1.390 . S
C431 C430 1.387 . S
C431 C433 1.387 . S
H432 C439 0.950 . S
C433 C431 1.387 . S
C433 C435 1.390 . S
C433 H437 0.950 . S
H434 C430 0.950 . S
C435 C433 1.390 . S
C435 C436 1.387 . S
C435 H438 0.950 . S
C436 C435 1.387 . S
C436 C439 1.387 . S
H437 C433 0.950 . S
H438 C435 0.950 . S
C439 C430 1.390 . S
C439 H432 0.950 . S
C439 C436 1.387 . S
C440 C441 1.387 . S
C440 H444 0.950 . S
C440 C449 1.390 . S
C441 C440 1.387 . S
C441 C443 1.387 . S
H442 C449 0.950 . S
C443 C441 1.387 . S
C443 C445 1.390 . S
C443 H447 0.950 . S
H444 C440 0.950 . S
C445 C443 1.390 . S
C445 C446 1.387 . S
C445 H448 0.950 . S
C446 C445 1.387 . S
C446 C449 1.387 . S
H447 C443 0.950 . S
H448 C445 0.950 . S
C449 C440 1.390 . S
C449 H442 0.950 . S
C449 C446 1.387 . S
C450 C451 1.387 . S
C450 H454 0.950 . S
C450 C459 1.390 . S
C451 C450 1.387 . S
C451 C453 1.387 . S
H452 C459 0.950 . S
C453 C451 1.387 . S
C453 C455 1.390 . S
C453 H457 0.950 . S
H454 C450 0.950 . S
C455 C453 1.390 . S
C455 C456 1.387 . S
C455 H458 0.950 . S
C456 C455 1.387 . S
C456 C459 1.387 . S
H457 C453 0.950 . S
H458 C455 0.950 . S
C459 C450 1.390 . S
C459 H452 0.950 . S
C459 C456 1.387 . S
C460 C461 1.387 . S
C460 H464 0.950 . S
C460 C469 1.390 . S
C461 C460 1.387 . S
C461 C463 1.387 . S
H462 C469 0.950 . S
C463 C461 1.387 . S
C463 C465 1.390 . S
C463 H467 0.950 . S
H464 C460 0.950 . S
C465 C463 1.390 . S
C465 C466 1.387 . S
C465 H468 0.950 . S
C466 C465 1.387 . S
C466 C469 1.387 . S
H467 C463 0.950 . S
H468 C465 0.950 . S
C469 C460 1.390 . S
C469 H462 0.950 . S
C469 C466 1.387 . S
C470 C471 1.387 . S
C470 H474 0.950 . S
C470 C479 1.390 . S
C471 C470 1.387 . S
C471 C473 1.387 . S
H472 C479 0.950 . S
C473 C471 1.387 . S
C473 C475 1.390 . S
C473 H477 0.950 . S
H474 C470 0.950 . S
C475 C473 1.390 . S
C475 C476 1.387 . S
C475 H478 0.950 . S
C476 C475 1.387 . S
C476 C479 1.387 . S
H477 C473 0.950 . S
H478 C475 0.950 . S
C479 C470 1.390 . S
C479 H472 0.950 . S
C479 C476 1.387 . S
C480 C481 1.387 . S
C480 H484 0.950 . S
C480 C489 1.390 . S
C481 C480 1.387 . S
C481 C483 1.387 1_455 S
H482 C489 0.950 . S
C483 C481 1.387 1_655 S
C483 C485 1.390 . S
C483 H487 0.950 . S
H484 C480 0.950 . S
C485 C483 1.390 . S
C485 C486 1.387 1_655 S
C485 H488 0.950 . S
C486 C485 1.387 1_455 S
C486 C489 1.387 . S
H487 C483 0.950 . S
H488 C485 0.950 . S
C489 C480 1.390 . S
C489 H482 0.950 . S
C489 C486 1.387 . S
C490 C491 1.387 . S
C490 H494 0.950 . S
C490 C499 1.390 . S
C491 C490 1.387 . S
C491 C493 1.387 . S
H492 C499 0.950 . S
C493 C491 1.387 . S
C493 C495 1.390 . S
C493 H497 0.950 1_545 S
H494 C490 0.950 . S
C495 C493 1.390 . S
C495 C496 1.387 . S
C495 H498 0.950 1_545 S
C496 C495 1.387 . S
C496 C499 1.387 . S
H497 C493 0.950 1_565 S
H498 C495 0.950 1_565 S
C499 C490 1.390 . S
C499 H492 0.950 . S
C499 C496 1.387 . S
C500 C501 1.387 . S
C500 H504 0.950 . S
C500 C509 1.390 . S
C501 C500 1.387 . S
C501 C503 1.387 . S
H502 C509 0.950 . S
C503 C501 1.387 . S
C503 C505 1.390 . S
C503 H507 0.950 . S
H504 C500 0.950 . S
C505 C503 1.390 . S
C505 C506 1.387 . S
C505 H508 0.950 . S
C506 C505 1.387 . S
C506 C509 1.387 . S
H507 C503 0.950 . S
H508 C505 0.950 . S
C509 C500 1.390 . S
C509 H502 0.950 . S
C509 C506 1.387 . S
C510 C511 1.387 . S
C510 H514 0.950 . S
C510 C519 1.390 . S
C511 C510 1.387 . S
C511 C513 1.387 1_545 S
H512 C519 0.950 . S
C513 C511 1.387 1_565 S
C513 C515 1.390 . S
C513 H517 0.950 . S
H514 C510 0.950 . S
C515 C513 1.390 . S
C515 C516 1.387 1_565 S
C515 H518 0.950 . S
C516 C515 1.387 1_545 S
C516 C519 1.387 . S
H517 C513 0.950 . S
H518 C515 0.950 . S
C519 C510 1.390 . S
C519 H512 0.950 . S
C519 C516 1.387 . S
C520 C521 1.387 . S
C520 H524 0.950 . S
C520 C529 1.390 . S
C521 C520 1.387 . S
C521 C523 1.387 . S
H522 C529 0.950 . S
C523 C521 1.387 . S
C523 C525 1.390 . S
C523 H527 0.950 . S
H524 C520 0.950 . S
C525 C523 1.390 . S
C525 C526 1.387 . S
C525 H528 0.950 . S
C526 C525 1.387 . S
C526 C529 1.387 . S
H527 C523 0.950 . S
H528 C525 0.950 . S
C529 C520 1.390 . S
C529 H522 0.950 . S
C529 C526 1.387 . S
C530 C531 1.387 . S
C530 H534 0.950 . S
C530 C539 1.390 . S
C531 C530 1.387 . S
C531 C533 1.387 1_455 S
H532 C539 0.950 . S
C533 C531 1.387 1_655 S
C533 C535 1.390 . S
C533 H537 0.950 . S
H534 C530 0.950 . S
C535 C533 1.390 . S
C535 C536 1.387 . S
C535 H538 0.950 . S
C536 C535 1.387 . S
C536 C539 1.387 1_655 S
H537 C533 0.950 . S
H538 C535 0.950 . S
C539 C530 1.390 . S
C539 H532 0.950 . S
C539 C536 1.387 1_455 S
C361 C24 3.100 . S
C366 C335 3.032 . S
C371 C66 1.203 . S
C376 C242 1.261 . S
C381 C93 2.057 . S
C386 C282 1.974 . S
C391 C13 3.271 . S
C396 C322 3.195 . S
C406 C255 1.357 . S
C401 C57 1.366 . S
C416 C295 2.111 . S
C411 C104 2.199 . S
C421 C64 2.144 . S
C426 C162 2.073 . S
C431 C97 0.812 . S
C436 C202 0.802 . S
C441 C17 1.379 . S
C446 C135 1.398 . S
C456 C175 1.972 . S
C451 C53 2.093 . S
C466 C215 0.360 . S
C461 C106 0.546 . S
C471 C26 1.233 . S
C476 C122 1.293 . S
C486 C221 1.061 . S
C481 C2 1.099 . S
C491 C63 1.473 . S
C496 C141 1.504 . S
C501 C82 1.373 . S
C506 C181 1.365 . S
C516 C301 1.414 . S
C511 C42 1.399 . S
C526 C341 1.783 . S
C521 C103 1.756 . S
C531 C23 1.500 . S
C536 C261 1.525 . S
