# Generated by pormake.
# Topology pth, (4,4)-cn, num edge types: 1
# Building blocks:
#     Node 0, Type 0, BuildingBlock: UXUYUI_clean_sbu_0, # of connection points: 4
#     Node 1, Type 0, BuildingBlock: UXUYUI_clean_sbu_0, # of connection points: 4
#     Node 2, Type 0, BuildingBlock: UXUYUI_clean_sbu_0, # of connection points: 4
#     Node 3, Type 1, BuildingBlock: KOZSID_clean_sbu_0, # of connection points: 4
#     Node 4, Type 1, BuildingBlock: KOZSID_clean_sbu_0, # of connection points: 4
#     Node 5, Type 1, BuildingBlock: KOZSID_clean_sbu_0, # of connection points: 4
#     Edge 6, Type (0, 1), BuildingBlock: XUDNAN_clean_linker_2, # of connection points: 2
#     Edge 7, Type (0, 1), BuildingBlock: XUDNAN_clean_linker_2, # of connection points: 2
#     Edge 8, Type (0, 1), BuildingBlock: XUDNAN_clean_linker_2, # of connection points: 2
#     Edge 9, Type (0, 1), BuildingBlock: XUDNAN_clean_linker_2, # of connection points: 2
#     Edge 10, Type (0, 1), BuildingBlock: XUDNAN_clean_linker_2, # of connection points: 2
#     Edge 11, Type (0, 1), BuildingBlock: XUDNAN_clean_linker_2, # of connection points: 2
#     Edge 12, Type (0, 1), BuildingBlock: XUDNAN_clean_linker_2, # of connection points: 2
#     Edge 13, Type (0, 1), BuildingBlock: XUDNAN_clean_linker_2, # of connection points: 2
#     Edge 14, Type (0, 1), BuildingBlock: XUDNAN_clean_linker_2, # of connection points: 2
#     Edge 15, Type (0, 1), BuildingBlock: XUDNAN_clean_linker_2, # of connection points: 2
#     Edge 16, Type (0, 1), BuildingBlock: XUDNAN_clean_linker_2, # of connection points: 2
#     Edge 17, Type (0, 1), BuildingBlock: XUDNAN_clean_linker_2, # of connection points: 2
# Relax obj value: 0.074
# Max RMSD: 0.212
# Mean RMSD: 0.112
data_MOF--net-pth--node1-UXUYUI_clean_sbu_0--node2-KOZSID_clean_sbu_0--edge1-XUDNAN_clean_linker_2
_symmetry_space_group_name_H-M    P1
_symmetry_Int_Tables_number       1
_symmetry_cell_setting            triclinic
loop_
_symmetry_equiv_pos_as_xyz
'x, y, z'
_cell_length_a     32.047932
_cell_length_b     32.057818
_cell_length_c     72.856289
_cell_angle_alpha  87.896069
_cell_angle_beta   87.7534
_cell_angle_gamma 119.96185
loop_
_atom_site_label
_atom_site_type_symbol
_atom_site_fract_x
_atom_site_fract_y
_atom_site_fract_z
_atom_type_partial_charge
Li0 Li 0.10416 0.08859 0.02467 0.0
Li1 Li 0.04773 0.08529 0.04752 0.0
Li2 Li 0.06975 0.02069 0.04816 0.0
Li3 Li 0.01912 0.02752 0.02291 0.0
C4 C 0.15279 0.11243 0.05958 0.0
N5 N 0.24004 0.15874 0.07566 0.0
C6 C 0.17042 0.15914 0.06531 0.0
C7 C 0.17912 0.08897 0.06233 0.0
C8 C 0.21473 0.18202 0.07333 0.0
C9 C 0.22327 0.11308 0.0704 0.0
C10 C 0.06204 0.14577 0.01619 0.0
C11 C 0.0526 0.20621 0.99921 0.0
N12 N 0.09057 0.2413 0.00749 0.0
C13 C 0.10097 0.18241 0.02451 0.0
C14 C 0.03765 0.15768 0.00341 0.0
C15 C 0.11486 0.23049 0.01994 0.0
C16 C 0.15518 0.14955 0.9927 0.0
N17 N 0.16164 0.13402 0.00943 0.0
C18 C 0.24633 0.19114 0.00587 0.0
C19 C 0.20649 0.15297 0.01579 0.0
C20 C 0.24023 0.20989 0.9891 0.0
C21 C 0.1941 0.18759 0.98226 0.0
H22 H 0.11935 0.13363 0.98775 0.0
H23 H 0.21149 0.13947 0.02876 0.0
C24 C 0.04628 0.12106 0.08172 0.0
N25 N 0.03398 0.12275 0.06417 0.0
C26 C 0.04134 0.14949 0.09472 0.0
C27 C 0.01123 0.18127 0.07141 0.0
C28 C 0.01588 0.15144 0.05891 0.0
C29 C 0.02424 0.1806 0.08956 0.0
H30 H 0.06063 0.09798 0.08554 0.0
H31 H 0.00564 0.15177 0.04498 0.0
C32 C 0.11069 0.02299 0.00783 0.0
N33 N 0.18152 0.0366 0.98149 0.0
C34 C 0.10375 0.02663 0.98915 0.0
C35 C 0.15354 0.02608 0.01312 0.0
C36 C 0.14002 0.03354 0.97604 0.0
C37 C 0.18894 0.03301 0.9996 0.0
C38 C 0.96638 0.01168 0.06044 0.0
C39 C 0.96074 0.99994 0.07937 0.0
C40 C 0.93466 0.02346 0.05217 0.0
C41 C 0.92335 1.00028 0.08977 0.0
C42 C 0.89774 0.02337 0.06304 0.0
N43 N 0.89291 0.01191 0.08146 0.0
C44 C 0.06774 0.96937 0.0815 0.0
C45 C 0.07862 0.93845 0.05382 0.0
C46 C 0.0631 0.92932 0.09181 0.0
N47 N 0.07432 0.9726 0.06284 0.0
C48 C 0.07478 0.89821 0.06356 0.0
C49 C 0.06545 0.89236 0.08279 0.0
H50 H 0.06418 0.99695 0.08832 0.0
H51 H 0.08333 0.94156 0.03897 0.0
C52 C 0.96656 0.99109 0.9901 0.0
N53 N 0.96752 0.9846 0.00862 0.0
C54 C 0.93259 0.95343 0.98022 0.0
C55 C 0.89988 0.90465 0.0088 0.0
C56 C 0.93444 0.94281 0.01804 0.0
C57 C 0.89962 0.90889 0.98954 0.0
H58 H 0.99354 0.02452 0.98288 0.0
H59 H 0.93623 0.93822 0.0327 0.0
O60 O 0.10925 0.08919 0.05188 0.0
O61 O 0.04796 0.09841 0.02033 0.0
O62 O 0.07632 0.01788 0.02087 0.0
O63 O 0.00374 0.0133 0.05008 0.0
H64 H 0.15008 0.1775 0.06369 0.0
H65 H 0.16578 0.05264 0.0582 0.0
H66 H 0.22892 0.21823 0.07775 0.0
H67 H 0.24418 0.09547 0.0725 0.0
H68 H 0.03404 0.21597 0.98935 0.0
H69 H 0.12037 0.17378 0.0343 0.0
H70 H 0.0075 0.12968 0.99681 0.0
H71 H 0.14498 0.2592 0.02627 0.0
H72 H 0.28147 0.20644 0.01145 0.0
H73 H 0.18766 0.20082 0.96941 0.0
H74 H 0.0519 0.14805 0.10857 0.0
H75 H 0.99732 0.20436 0.06699 0.0
H76 H 0.07098 0.02469 0.98484 0.0
H77 H 0.15959 0.0236 0.02751 0.0
H78 H 0.13524 0.03667 0.96154 0.0
H79 H 0.22238 0.0357 0.0035 0.0
H80 H 0.98515 0.99102 0.08599 0.0
H81 H 0.93892 0.03312 0.03754 0.0
H82 H 0.91863 0.99143 0.10445 0.0
H83 H 0.87304 0.03261 0.05685 0.0
H84 H 0.05561 0.92642 0.10656 0.0
H85 H 0.07803 0.87143 0.05599 0.0
H86 H 0.93384 0.95827 0.96538 0.0
H87 H 0.87463 0.87145 0.01663 0.0
Li88 Li 0.03776 0.02681 0.35868 0.0
Li89 Li 0.09446 0.08901 0.37952 0.0
Li90 Li 0.00424 0.06348 0.38017 0.0
Li91 Li 0.05841 0.11053 0.3544 0.0
C92 C 0.02334 0.98212 0.39566 0.0
N93 N 0.99948 0.89611 0.41469 0.0
C94 C 0.05959 0.97411 0.40193 0.0
C95 C 0.97493 0.94668 0.39935 0.0
C96 C 0.0468 0.9303 0.41144 0.0
C97 C 0.96362 0.90336 0.40891 0.0
C98 C 0.13048 0.11086 0.33754 0.0
C99 C 0.19752 0.18433 0.32344 0.0
N100 N 0.18383 0.16768 0.30654 0.0
C101 C 0.11711 0.0944 0.32005 0.0
C102 C 0.17099 0.15615 0.33929 0.0
C103 C 0.14454 0.1237 0.30453 0.0
C104 C 0.00747 0.95863 0.33063 0.0
N105 N 0.02982 0.97115 0.34668 0.0
C106 C 0.0488 0.90797 0.34537 0.0
C107 C 0.05096 0.94717 0.35393 0.0
C108 C 0.02569 0.89391 0.32889 0.0
C109 C 0.00508 0.91995 0.32142 0.0
H110 H 0.99208 0.97909 0.32485 0.0
H111 H 0.07053 0.95914 0.36615 0.0
C112 C 0.14611 0.104 0.41226 0.0
N113 N 0.14835 0.10227 0.39363 0.0
C114 C 0.1846 0.10907 0.42233 0.0
C115 C 0.22687 0.11093 0.39384 0.0
C116 C 0.18758 0.10543 0.38438 0.0
C117 C 0.22574 0.11263 0.41309 0.0
H118 H 0.11406 0.10049 0.41931 0.0
H119 H 0.18792 0.10252 0.36965 0.0
C120 C 0.94615 0.02155 0.35169 0.0
N121 N 0.84878 0.95976 0.34835 0.0
C122 C 0.91767 0.03901 0.34439 0.0
C123 C 0.92511 0.97263 0.35719 0.0
C124 C 0.86851 0.00723 0.34286 0.0
C125 C 0.87585 0.94197 0.3554 0.0
C126 C 0.08232 0.17757 0.38042 0.0
C127 C 0.05333 0.19818 0.37783 0.0
C128 C 0.13128 0.2071 0.38318 0.0
C129 C 0.07406 0.24826 0.37779 0.0
C130 C 0.15061 0.257 0.38309 0.0
N131 N 0.12185 0.27637 0.38039 0.0
C132 C 0.93525 0.03273 0.41193 0.0
C133 C 0.92786 0.07919 0.38761 0.0
C134 C 0.8959 0.03061 0.42199 0.0
N135 N 0.95004 0.05644 0.39498 0.0
C136 C 0.88853 0.07787 0.39708 0.0
C137 C 0.87178 0.05317 0.4145 0.0
H138 H 0.95409 0.01575 0.41771 0.0
H139 H 0.94109 0.09886 0.37435 0.0
C140 C 0.03597 0.14038 0.32166 0.0
N141 N 0.06719 0.1583 0.3352 0.0
C142 C 0.03562 0.17102 0.30764 0.0
C143 C 0.10099 0.23838 0.32119 0.0
C144 C 0.10028 0.20624 0.33492 0.0
C145 C 0.06794 0.22089 0.3074 0.0
H146 H 0.01083 0.10209 0.32182 0.0
H147 H 0.12604 0.2198 0.34535 0.0
O148 O 0.03525 0.02501 0.38647 0.0
O149 O 0.10317 0.08339 0.35285 0.0
O150 O 0.99427 0.05239 0.35351 0.0
O151 O 0.06273 0.12865 0.3807 0.0
H152 H 0.09724 1.00121 0.3993 0.0
H153 H 0.94633 0.95264 0.39503 0.0
H154 H 0.0745 0.92349 0.41624 0.0
H155 H 0.9263 0.87558 0.41181 0.0
H156 H 0.2288 0.21956 0.32457 0.0
H157 H 0.08559 0.0596 0.31848 0.0
H158 H 0.18141 0.16968 0.35273 0.0
H159 H 0.13451 0.11154 0.2909 0.0
H160 H 0.06604 0.88952 0.35138 0.0
H161 H 0.98703 0.91027 0.30871 0.0
H162 H 0.18229 0.11034 0.43715 0.0
H163 H 0.25737 0.11259 0.38617 0.0
H164 H 0.93326 0.07683 0.34012 0.0
H165 H 0.94655 0.95838 0.36272 0.0
H166 H 0.84603 0.02032 0.33732 0.0
H167 H 0.85914 0.90402 0.35962 0.0
H168 H 0.01538 0.17585 0.37573 0.0
H169 H 0.15415 0.19167 0.38529 0.0
H170 H 0.05215 0.26476 0.37568 0.0
H171 H 0.18848 0.28033 0.38513 0.0
H172 H 0.88421 0.01114 0.43536 0.0
H173 H 0.87191 0.09676 0.39092 0.0
H174 H 0.00937 0.15584 0.29736 0.0
H175 H 0.12722 0.27644 0.32132 0.0
Li176 Li 0.10099 0.05337 0.69175 0.0
Li177 Li 0.09222 0.10339 0.71425 0.0
Li178 Li 0.03205 0.01375 0.7145 0.0
Li179 Li 0.03159 0.06939 0.69044 0.0
C180 C 0.13766 0.03714 0.72158 0.0
N181 N 0.21141 0.01724 0.72577 0.0
C182 C 0.18275 0.07315 0.72649 0.0
C183 C 0.12987 0.99085 0.71906 0.0
C184 C 0.21963 0.06242 0.72848 0.0
C185 C 0.16766 0.98154 0.72116 0.0
C186 C 0.11998 0.16306 0.68106 0.0
C187 C 0.10797 0.23094 0.67576 0.0
N188 N 0.15453 0.25801 0.66885 0.0
C189 C 0.16751 0.19136 0.67364 0.0
C190 C 0.08978 0.18281 0.68191 0.0
C191 C 0.18439 0.23936 0.66765 0.0
C192 C 0.14335 0.01564 0.66599 0.0
N193 N 0.15129 0.05044 0.67778 0.0
C194 C 0.23649 0.0889 0.6708 0.0
C195 C 0.19666 0.08684 0.68017 0.0
C196 C 0.22974 0.0534 0.65862 0.0
C197 C 0.18234 0.01652 0.65616 0.0
H198 H 0.10688 0.98733 0.66418 0.0
H199 H 0.20189 0.11443 0.68942 0.0
C200 C 0.11172 0.14736 0.7479 0.0
N201 N 0.12904 0.15378 0.73007 0.0
C202 C 0.14075 0.17725 0.76108 0.0
C203 C 0.20444 0.22102 0.73724 0.0
C204 C 0.17417 0.19018 0.7245 0.0
C205 C 0.18831 0.21384 0.75591 0.0
H206 H 0.07612 0.11751 0.75205 0.0
H207 H 0.18787 0.19348 0.71044 0.0
C208 C 0.99864 0.96114 0.68512 0.0
N209 N 0.92984 0.86605 0.6812 0.0
C210 C 0.95201 0.94916 0.68076 0.0
C211 C 0.01042 0.92483 0.68727 0.0
C212 C 0.9177 0.90086 0.67889 0.0
C213 C 0.97509 0.87695 0.6853 0.0
C214 C 0.99383 0.0879 0.72446 0.0
C215 C 0.94642 0.05777 0.73173 0.0
C216 C 0.01437 0.13793 0.72471 0.0
C217 C 0.92004 0.07822 0.73876 0.0
C218 C 0.98684 0.157 0.73187 0.0
N219 N 0.94061 0.12701 0.73867 0.0
C220 C 0.007 0.94321 0.74427 0.0
C221 C 0.94108 0.93713 0.72856 0.0
C222 C 0.97546 0.90658 0.75729 0.0
N223 N 0.98939 0.95805 0.73037 0.0
C224 C 0.90827 0.90049 0.74127 0.0
C225 C 0.92524 0.88527 0.75611 0.0
H226 H 0.04551 0.96086 0.74561 0.0
H227 H 0.92786 0.95029 0.71768 0.0
C228 C 0.99826 0.07224 0.65585 0.0
N229 N 0.98948 0.07589 0.67396 0.0
C230 C 0.96541 0.06836 0.64301 0.0
C231 C 0.9159 0.07409 0.66751 0.0
C232 C 0.94967 0.07772 0.6799 0.0
C233 C 0.92292 0.0681 0.64884 0.0
H234 H 0.02992 0.07037 0.65151 0.0
H235 H 0.94288 0.07999 0.69432 0.0
O236 O 0.1014 0.0472 0.71919 0.0
O237 O 0.10283 0.11587 0.68686 0.0
O238 O 0.03266 0.0082 0.68712 0.0
O239 O 0.02028 0.06841 0.71763 0.0
H240 H 0.18936 0.10912 0.72858 0.0
H241 H 0.09505 0.96245 0.71548 0.0
H242 H 0.25482 0.09004 0.73214 0.0
H243 H 0.16221 0.94593 0.71915 0.0
H244 H 0.085 0.2467 0.67643 0.0
H245 H 0.19123 0.17651 0.67259 0.0
H246 H 0.05258 0.1612 0.68712 0.0
H247 H 0.2212 0.26176 0.66201 0.0
H248 H 0.27223 0.11845 0.67289 0.0
H249 H 0.17555 0.98837 0.64694 0.0
H250 H 0.12667 0.17067 0.77529 0.0
H251 H 0.24105 0.2482 0.73269 0.0
H252 H 0.94218 0.97673 0.67904 0.0
H253 H 0.04645 0.9335 0.69042 0.0
H254 H 0.88139 0.89105 0.67564 0.0
H255 H 0.98367 0.84847 0.68701 0.0
H256 H 0.92999 0.01901 0.73185 0.0
H257 H 0.05133 0.16187 0.7196 0.0
H258 H 0.88322 0.05531 0.7443 0.0
H259 H 1.0023 0.19565 0.73209 0.0
H260 H 0.99029 0.8957 0.76835 0.0
H261 H 0.87 0.88586 0.73991 0.0
H262 H 0.97272 0.06452 0.62873 0.0
H263 H 0.88351 0.07362 0.67268 0.0
C264 C 0.07833 0.63514 0.17273 0.0
C265 C 0.12224 0.67002 0.16411 0.0
C266 C 0.15742 0.66717 0.17305 0.0
C267 C 0.13319 0.63047 0.18638 0.0
N268 N 0.08462 0.60962 0.18653 0.0
Co269 Co 0.03608 0.55273 0.20287 0.0
N270 N 0.08803 0.54823 0.21564 0.0
C271 C 0.13584 0.58026 0.21378 0.0
C272 C 0.16274 0.56746 0.2243 0.0
C273 C 0.13016 0.52436 0.23324 0.0
C274 C 0.0851 0.51335 0.22761 0.0
N275 N 0.98764 0.49366 0.21833 0.0
C276 C 0.99436 0.4624 0.22912 0.0
C277 C 0.95085 0.42341 0.23614 0.0
C278 C 0.91523 0.42979 0.22926 0.0
C279 C 0.93902 0.47203 0.21844 0.0
N280 N 0.98404 0.55865 0.19076 0.0
C281 C 0.93613 0.53252 0.19548 0.0
C282 C 0.90927 0.54682 0.1857 0.0
C283 C 0.94197 0.58459 0.17413 0.0
C284 C 0.98712 0.59095 0.17741 0.0
N285 N 0.03586 0.50916 0.18421 0.0
C286 C 0.03198 0.43522 0.16349 0.0
C287 C 0.99017 0.43655 0.16832 0.0
C288 C 0.99297 0.474 0.17834 0.0
C289 C 0.07631 0.47334 0.168 0.0
C290 C 0.07746 0.50989 0.17837 0.0
N291 N 0.03585 0.59615 0.2219 0.0
C292 C 0.99486 0.61053 0.24743 0.0
C293 C 0.03423 0.65644 0.24899 0.0
C294 C 0.07441 0.67217 0.23665 0.0
C295 C 0.07468 0.64153 0.22342 0.0
C296 C 0.99625 0.58152 0.2339 0.0
H297 H 0.10692 0.65552 0.21472 0.0
H298 H 0.9645 0.5474 0.23361 0.0
H299 H 0.95969 0.4727 0.18188 0.0
H300 H 0.11202 0.53739 0.18215 0.0
C301 C 0.15484 0.61684 0.19975 0.0
C302 C 0.03184 0.62862 0.16769 0.0
C303 C 0.04113 0.46784 0.23283 0.0
C304 C 0.91714 0.49245 0.20809 0.0
H305 H 0.12839 0.69539 0.15269 0.0
H306 H 0.19608 0.68965 0.17033 0.0
H307 H 0.20166 0.58576 0.22457 0.0
H308 H 0.13881 0.50261 0.24228 0.0
H309 H 0.94553 0.39325 0.24512 0.0
H310 H 0.87665 0.40604 0.2316 0.0
H311 H 0.87046 0.53129 0.18671 0.0
H312 H 0.93345 0.60517 0.16442 0.0
H313 H 0.9552 0.40797 0.16481 0.0
H314 H 0.10957 0.47365 0.16436 0.0
H315 H 0.96264 0.59703 0.25656 0.0
H316 H 0.10593 0.70751 0.23745 0.0
C317 C 0.47124 0.02376 0.56455 0.0
C318 C 0.43264 0.97969 0.57142 0.0
C319 C 0.43323 0.94534 0.56112 0.0
C320 C 0.47212 0.97015 0.54869 0.0
N321 N 0.49665 0.01836 0.55041 0.0
Co322 Co 0.55616 0.06758 0.53535 0.0
N323 N 0.55582 0.01692 0.51982 0.0
C324 C 0.52304 0.96918 0.52116 0.0
C325 C 0.53244 0.94315 0.50886 0.0
C326 C 0.57379 0.97614 0.49905 0.0
C327 C 0.58721 0.02066 0.50593 0.0
N328 N 0.61629 0.11664 0.5205 0.0
C329 C 0.64255 0.11082 0.50679 0.0
C330 C 0.68271 0.15441 0.50055 0.0
C331 C 0.68214 0.18895 0.51077 0.0
C332 C 0.64183 0.16465 0.52261 0.0
N333 N 0.55596 0.11834 0.55068 0.0
C334 C 0.58764 0.16637 0.54885 0.0
C335 C 0.5774 0.19245 0.56085 0.0
C336 C 0.53662 0.1592 0.57094 0.0
C337 C 0.52442 0.11447 0.56455 0.0
N338 N 0.59733 0.05802 0.55285 0.0
C339 C 0.6625 0.04603 0.57443 0.0
C340 C 0.66857 0.09172 0.57033 0.0
C341 C 0.63583 0.09681 0.55971 0.0
C342 C 0.62187 0.00621 0.5682 0.0
C343 C 0.58991 0.01294 0.55761 0.0
N344 N 0.51535 0.07742 0.51773 0.0
C345 C 0.50082 0.13113 0.4983 0.0
C346 C 0.45906 0.09251 0.49224 0.0
C347 C 0.44541 0.04608 0.49945 0.0
C348 C 0.47393 0.03939 0.51203 0.0
C349 C 0.52805 0.12288 0.51088 0.0
H350 H 0.46195 0.00312 0.51686 0.0
H351 H 0.55934 0.15403 0.51479 0.0
H352 H 0.64316 0.13269 0.55691 0.0
H353 H 0.5599 0.9812 0.55318 0.0
C354 C 0.48546 0.94941 0.53484 0.0
C355 C 0.48212 0.06958 0.57195 0.0
C356 C 0.63078 0.06505 0.49913 0.0
C357 C 0.62688 0.18587 0.5358 0.0
H358 H 0.40658 0.97297 0.58269 0.0
H359 H 0.40807 0.90688 0.56244 0.0
H360 H 0.5122 0.9046 0.50747 0.0
H361 H 0.59238 0.96814 0.48824 0.0
H362 H 0.70967 0.1606 0.48973 0.0
H363 H 0.70809 0.22722 0.50973 0.0
H364 H 0.59712 0.23109 0.56206 0.0
H365 H 0.51781 0.16708 0.58169 0.0
H366 H 0.69944 0.12383 0.57473 0.0
H367 H 0.61482 0.96989 0.57137 0.0
H368 H 0.51254 0.16791 0.49343 0.0
H369 H 0.41348 0.0149 0.49511 0.0
C370 C 0.65348 0.58705 0.84056 0.0
C371 C 0.68759 0.57626 0.83352 0.0
C372 C 0.67854 0.53438 0.84268 0.0
C373 C 0.63954 0.52203 0.8547 0.0
N374 N 0.62258 0.55306 0.85355 0.0
Co375 Co 0.5676 0.55002 0.86886 0.0
N376 N 0.55963 0.4933 0.88454 0.0
C377 C 0.58654 0.47164 0.88308 0.0
C378 C 0.57269 0.4337 0.89576 0.0
C379 C 0.53452 0.43072 0.90591 0.0
C380 C 0.52712 0.46707 0.89874 0.0
N381 N 0.51191 0.54627 0.88393 0.0
C382 C 0.48334 0.51446 0.89798 0.0
C383 C 0.44724 0.52353 0.90409 0.0
C384 C 0.45302 0.56227 0.89348 0.0
C385 C 0.49206 0.57454 0.88151 0.0
N386 N 0.57668 0.60759 0.8535 0.0
C387 C 0.55008 0.62952 0.85489 0.0
C388 C 0.56705 0.6702 0.84333 0.0
C389 C 0.60757 0.67518 0.83428 0.0
C390 C 0.61283 0.63703 0.84086 0.0
N391 N 0.52106 0.50527 0.85169 0.0
C392 C 0.44738 0.43545 0.83151 0.0
C393 C 0.45031 0.47971 0.83417 0.0
C394 C 0.4871 0.5138 0.84425 0.0
C395 C 0.48348 0.4279 0.83815 0.0
C396 C 0.51991 0.46314 0.8479 0.0
N397 N 0.61365 0.59443 0.88606 0.0
C398 C 0.64078 0.66262 0.90509 0.0
C399 C 0.67921 0.65718 0.91058 0.0
C400 C 0.68456 0.62021 0.90331 0.0
C401 C 0.65173 0.58957 0.89122 0.0
C402 C 0.60866 0.63107 0.89294 0.0
H403 H 0.65788 0.56216 0.88621 0.0
H404 H 0.57988 0.63682 0.88937 0.0
H405 H 0.48645 0.54618 0.8462 0.0
H406 H 0.54606 0.45481 0.85256 0.0
C407 C 0.62238 0.48565 0.86885 0.0
C408 C 0.65406 0.63167 0.83547 0.0
C409 C 0.48814 0.47447 0.90566 0.0
C410 C 0.51119 0.61264 0.86799 0.0
H411 H 0.717 0.59747 0.82331 0.0
H412 H 0.69945 0.51645 0.8414 0.0
H413 H 0.58788 0.41033 0.89721 0.0
H414 H 0.51397 0.40431 0.91716 0.0
H415 H 0.4193 0.50385 0.91497 0.0
H416 H 0.43117 0.57928 0.89432 0.0
H417 H 0.55263 0.69427 0.84209 0.0
H418 H 0.63131 0.70423 0.82432 0.0
H419 H 0.42323 0.48727 0.82916 0.0
H420 H 0.48333 0.39454 0.83603 0.0
H421 H 0.63479 0.69042 0.91043 0.0
H422 H 0.71419 0.61493 0.90684 0.0
H423 H 0.0586 0.27827 0.0855 0.0
H424 H 0.98125 0.15379 0.12432 0.0
H425 H 0.97586 0.20578 0.14743 0.0
H426 H 0.12894 0.36156 0.11888 0.0
H427 H 0.12693 0.41202 0.10813 0.0
H428 H 0.12364 0.365 0.09439 0.0
H429 H 0.04331 0.35162 0.08216 0.0
H430 H 0.04646 0.39875 0.09579 0.0
H431 H 0.99377 0.33935 0.09828 0.0
H432 H 0.97702 0.27041 0.16599 0.0
H433 H 0.98715 0.34452 0.17934 0.0
H434 H 0.06745 0.42853 0.12931 0.0
C435 C 0.0402 0.26203 0.09883 0.0
C436 C 0.02009 0.21198 0.10314 0.0
C437 C 0.99698 0.19205 0.12079 0.0
C438 C 0.99368 0.22126 0.13397 0.0
C439 C 0.01414 0.27048 0.12936 0.0
C440 C 0.03721 0.29085 0.11226 0.0
C441 C 0.05712 0.345 0.11104 0.0
C442 C 0.11244 0.37251 0.10793 0.0
C443 C 0.03376 0.35952 0.09592 0.0
C444 C 0.04129 0.35179 0.13006 0.0
C445 C 0.01631 0.3082 0.14034 0.0
C446 C 0.99675 0.30476 0.15812 0.0
C447 C 1.00261 0.34691 0.16558 0.0
C448 C 0.02823 0.39194 0.15536 0.0
C449 C 0.04818 0.3945 0.13743 0.0
H450 H 0.85931 0.06291 0.45154 0.0
H451 H 0.78847 0.03965 0.40025 0.0
H452 H 0.72027 0.04157 0.41622 0.0
H453 H 0.75004 0.9887 0.48104 0.0
H454 H 0.77052 0.02829 0.49967 0.0
H455 H 0.81368 0.02451 0.48425 0.0
H456 H 0.85749 0.11706 0.47709 0.0
H457 H 0.81421 0.12104 0.49237 0.0
H458 H 0.82393 0.14445 0.46876 0.0
H459 H 0.6603 0.04748 0.43745 0.0
H460 H 0.61112 0.05401 0.4631 0.0
H461 H 0.71947 0.07224 0.50075 0.0
C462 C 0.82918 0.05761 0.44372 0.0
C463 C 0.8295 0.05144 0.42458 0.0
C464 C 0.78952 0.04521 0.41484 0.0
C465 C 0.75045 0.04603 0.42381 0.0
C466 C 0.75164 0.05295 0.44257 0.0
C467 C 0.78977 0.05835 0.45247 0.0
C468 C 0.78202 0.06549 0.47254 0.0
C469 C 0.77887 0.02429 0.48511 0.0
C470 C 0.82178 0.11495 0.47801 0.0
C471 C 0.73367 0.06333 0.47233 0.0
C472 C 0.71685 0.05615 0.45488 0.0
C473 C 0.67304 0.05301 0.45118 0.0
C474 C 0.64545 0.05686 0.46574 0.0
C475 C 0.66179 0.06367 0.48372 0.0
C476 C 0.70651 0.0672 0.48704 0.0
H477 H 0.83682 0.80397 0.75231 0.0
H478 H 0.93497 0.88669 0.79336 0.0
H479 H 0.87677 0.83045 0.81793 0.0
H480 H 0.72823 0.77909 0.77785 0.0
H481 H 0.69288 0.71895 0.77029 0.0
H482 H 0.7431 0.76447 0.75578 0.0
H483 H 0.78073 0.70936 0.7544 0.0
H484 H 0.73052 0.6636 0.76885 0.0
H485 H 0.7913 0.68608 0.77553 0.0
H486 H 0.80701 0.76654 0.83822 0.0
H487 H 0.73085 0.69799 0.85259 0.0
H488 H 0.67734 0.65779 0.79864 0.0
C489 C 0.84612 0.81035 0.76645 0.0
C490 C 0.8908 0.84976 0.77083 0.0
C491 C 0.90154 0.85636 0.78956 0.0
C492 C 0.8685 0.8248 0.80366 0.0
C493 C 0.82474 0.78668 0.79886 0.0
C494 C 0.81351 0.77921 0.78072 0.0
C495 C 0.76372 0.73575 0.77931 0.0
C496 C 0.73 0.75047 0.77028 0.0
C497 C 0.76677 0.69637 0.76891 0.0
C498 C 0.74858 0.72016 0.7995 0.0
C499 C 0.78437 0.75003 0.81055 0.0
C500 C 0.77878 0.74293 0.8297 0.0
C501 C 0.73559 0.70416 0.83774 0.0
C502 C 0.69873 0.67326 0.82664 0.0
C503 C 0.7052 0.68132 0.80732 0.0
H504 H 0.09052 0.88058 0.11782 0.0
H505 H 0.01667 0.80021 0.07135 0.0
H506 H 1.00008 0.72476 0.08795 0.0
H507 H 0.14456 0.80998 0.13047 0.0
H508 H 0.13578 0.81266 0.15489 0.0
H509 H 0.14277 0.86094 0.13927 0.0
H510 H 0.06146 0.84991 0.15262 0.0
H511 H 0.05426 0.80161 0.16828 0.0
H512 H 0.00771 0.79142 0.15296 0.0
H513 H 0.99233 0.65763 0.10931 0.0
H514 H 0.99316 0.60377 0.13443 0.0
H515 H 0.06755 0.72625 0.16767 0.0
C516 C 0.07056 0.84715 0.11115 0.0
C517 C 0.05554 0.8468 0.0931 0.0
C518 C 0.02978 0.80198 0.08493 0.0
C519 C 0.01972 0.75869 0.09433 0.0
C520 C 0.03518 0.76042 0.11201 0.0
C521 C 0.05985 0.80341 0.1204 0.0
C522 C 0.0721 0.79508 0.1396 0.0
C523 C 0.12707 0.82122 0.14114 0.0
C524 C 0.0474 0.81042 0.15423 0.0
C525 C 0.0506 0.74078 0.14063 0.0
C526 C 0.02958 0.7215 0.12454 0.0
C527 C 0.00841 0.67227 0.12202 0.0
C528 C 0.00893 0.64198 0.13631 0.0
C529 C 0.0302 0.661 0.15288 0.0
C530 C 0.05094 0.71095 0.1551 0.0
H531 H 0.22385 0.0636 0.44539 0.0
H532 H 0.32171 0.17287 0.40367 0.0
H533 H 0.39121 0.1787 0.41925 0.0
H534 H 0.29754 0.11618 0.4841 0.0
H535 H 0.28233 0.05859 0.49509 0.0
H536 H 0.24007 0.06359 0.48089 0.0
H537 H 0.23687 0.99667 0.46111 0.0
H538 H 0.2794 0.99171 0.47516 0.0
H539 H 0.29211 0.00373 0.45061 0.0
H540 H 0.45 0.17195 0.43876 0.0
H541 H 0.49496 0.1544 0.46151 0.0
H542 H 0.3599 0.05003 0.49112 0.0
C543 C 0.25992 0.08918 0.43968 0.0
C544 C 0.2673 0.11771 0.42325 0.0
C545 C 0.31511 0.15025 0.41609 0.0
C546 C 0.35484 0.15396 0.42488 0.0
C547 C 0.34633 0.12489 0.44085 0.0
C548 C 0.30015 0.09323 0.44826 0.0
C549 C 0.30127 0.06573 0.46548 0.0
C550 C 0.27899 0.07669 0.48239 0.0
C551 C 0.27591 0.01123 0.46293 0.0
C552 C 0.35529 0.08691 0.46656 0.0
C553 C 0.38049 0.12098 0.4522 0.0
C554 C 0.43069 0.14557 0.45014 0.0
C555 C 0.45592 0.13548 0.4632 0.0
C556 C 0.43109 0.10112 0.47822 0.0
C557 C 0.37998 0.07626 0.47976 0.0
H558 H 0.25624 0.31114 0.75493 0.0
H559 H 0.19808 0.1774 0.78887 0.0
H560 H 0.25652 0.22007 0.81196 0.0
H561 H 0.37998 0.35634 0.76383 0.0
H562 H 0.39472 0.41835 0.76451 0.0
H563 H 0.34706 0.37794 0.75082 0.0
H564 H 0.28734 0.39765 0.76802 0.0
H565 H 0.33487 0.43824 0.78174 0.0
H566 H 0.27958 0.38976 0.79279 0.0
H567 H 0.32357 0.27547 0.83059 0.0
H568 H 0.39291 0.34168 0.84448 0.0
H569 H 0.40774 0.4407 0.79912 0.0
C570 C 0.2557 0.29093 0.76726 0.0
C571 C 0.22218 0.24092 0.77014 0.0
C572 C 0.22266 0.21583 0.78649 0.0
C573 C 0.25599 0.23969 0.79965 0.0
C574 C 0.28861 0.2888 0.79635 0.0
C575 C 0.2886 0.31433 0.78066 0.0
C576 C 0.32793 0.36692 0.78052 0.0
C577 C 0.36459 0.38068 0.76394 0.0
C578 C 0.30611 0.4001 0.78079 0.0
C579 C 0.35028 0.36673 0.79848 0.0
C580 C 0.32706 0.32117 0.80733 0.0
C581 C 0.34189 0.31137 0.82385 0.0
C582 C 0.38146 0.34912 0.83158 0.0
C583 C 0.4057 0.39624 0.82287 0.0
C584 C 0.38961 0.40511 0.80615 0.0
H585 H 0.86678 0.11092 0.64607 0.0
H586 H 0.89211 0.00265 0.6223 0.0
H587 H 0.82779 0.98454 0.60115 0.0
H588 H 0.73723 0.04522 0.64448 0.0
H589 H 0.73311 0.09812 0.63864 0.0
H590 H 0.78159 0.10311 0.65184 0.0
H591 H 0.8441 0.16794 0.62774 0.0
H592 H 0.79582 0.16323 0.61448 0.0
H593 H 0.84237 0.15443 0.60388 0.0
H594 H 0.76025 0.97752 0.5827 0.0
H595 H 0.69631 0.98431 0.56747 0.0
H596 H 0.71321 0.09573 0.60362 0.0
C597 C 0.8587 0.08328 0.63647 0.0
C598 C 0.88485 0.05846 0.6358 0.0
C599 C 0.8733 0.02283 0.62288 0.0
C600 C 0.83651 0.01197 0.6109 0.0
C601 C 0.81142 0.03698 0.61195 0.0
C602 C 0.82208 0.07202 0.62435 0.0
C603 C 0.78984 0.09384 0.62253 0.0
C604 C 0.75859 0.0845 0.64044 0.0
C605 C 0.81983 0.14808 0.61681 0.0
C606 C 0.75943 0.06558 0.60717 0.0
C607 C 0.77237 0.03286 0.60132 0.0
C608 C 0.74966 0.00289 0.58722 0.0
C609 C 0.71306 0.00675 0.57874 0.0
C610 C 0.6994 0.04039 0.58435 0.0
C611 C 0.72293 0.06991 0.59887 0.0
H612 H 0.84722 0.90292 0.95926 0.0
H613 H 0.88094 0.81682 0.99665 0.0
H614 H 0.82801 0.74419 0.98078 0.0
H615 H 0.72222 0.81355 0.95558 0.0
H616 H 0.72199 0.82773 0.93142 0.0
H617 H 0.76263 0.87373 0.94565 0.0
H618 H 0.83525 0.88932 0.92371 0.0
H619 H 0.7948 0.84347 0.90938 0.0
H620 H 0.84435 0.83975 0.91855 0.0
H621 H 0.77167 0.68067 0.96133 0.0
H622 H 0.71541 0.62971 0.93896 0.0
H623 H 0.71841 0.75565 0.91323 0.0
C624 C 0.84361 0.86882 0.96404 0.0
C625 C 0.86785 0.86565 0.97941 0.0
C626 C 0.86199 0.82019 0.98522 0.0
C627 C 0.83221 0.77866 0.97621 0.0
C628 C 0.80849 0.78289 0.96129 0.0
C629 C 0.81381 0.82669 0.95516 0.0
C630 C 0.78398 0.82078 0.93872 0.0
C631 C 0.74542 0.83478 0.94311 0.0
C632 C 0.81655 0.85007 0.92158 0.0
C633 C 0.76119 0.76689 0.93666 0.0
C634 C 0.77596 0.7459 0.94984 0.0
C635 C 0.76002 0.69669 0.95085 0.0
C636 C 0.72826 0.66807 0.93799 0.0
C637 C 0.71266 0.68856 0.92419 0.0
C638 C 0.72933 0.73874 0.92365 0.0
H639 H 0.04681 0.8887 0.29229 0.0
H640 H 1.0 0.80538 0.34481 0.0
H641 H 0.99882 0.73661 0.33014 0.0
H642 H 0.97609 0.79007 0.26391 0.0
H643 H 0.02241 0.81118 0.24542 0.0
H644 H 0.01881 0.85365 0.25997 0.0
H645 H 0.10775 0.88645 0.26758 0.0
H646 H 0.11151 0.84384 0.25315 0.0
H647 H 0.12576 0.84539 0.27689 0.0
H648 H 1.00157 0.67674 0.30994 0.0
H649 H 0.00871 0.62921 0.28537 0.0
H650 H 0.05615 0.75136 0.24585 0.0
C651 C 0.03591 0.85578 0.30063 0.0
C652 C 0.02341 0.85228 0.3197 0.0
C653 C 0.01 0.8089 0.33022 0.0
C654 C 0.00913 0.76965 0.32201 0.0
C655 C 0.02212 0.7744 0.30325 0.0
C656 C 0.03536 0.81632 0.29267 0.0
C657 C 0.04839 0.81202 0.27284 0.0
C658 C 0.01438 0.81701 0.25976 0.0
C659 C 0.10151 0.84913 0.26729 0.0
C660 C 0.04005 0.76102 0.27393 0.0
C661 C 0.02478 0.74003 0.29162 0.0
C662 C 0.01362 0.69281 0.29605 0.0
C663 C 0.01769 0.66608 0.28201 0.0
C664 C 0.03306 0.68664 0.26376 0.0
C665 C 0.04488 0.73496 0.25974 0.0
H666 H 0.24052 0.03871 0.62209 0.0
H667 H 0.31524 0.07306 0.67258 0.0
H668 H 0.38773 0.08116 0.65592 0.0
H669 H 0.29224 0.9686 0.60409 0.0
H670 H 0.29654 0.99069 0.58058 0.0
H671 H 0.24999 0.98624 0.5966 0.0
H672 H 0.27933 0.07682 0.58933 0.0
H673 H 0.32613 0.08158 0.57339 0.0
H674 H 0.3415 0.12111 0.59203 0.0
H675 H 0.4527 0.08683 0.63375 0.0
H676 H 0.50511 0.08837 0.60746 0.0
H677 H 0.38899 0.05111 0.57134 0.0
C678 C 0.27191 0.04729 0.62968 0.0
C679 C 0.27221 0.05539 0.64865 0.0
C680 C 0.31433 0.06726 0.65801 0.0
C681 C 0.35563 0.07175 0.64869 0.0
C682 C 0.35439 0.06425 0.62996 0.0
C683 C 0.31362 0.05212 0.62055 0.0
C684 C 0.32218 0.04684 0.60036 0.0
C685 C 0.28822 0.99501 0.5951 0.0
C686 C 0.31698 0.0838 0.58805 0.0
C687 C 0.37413 0.05807 0.5999 0.0
C688 C 0.392 0.06791 0.61714 0.0
C689 C 0.43911 0.0792 0.62019 0.0
C690 C 0.46862 0.08015 0.60524 0.0
C691 C 0.45094 0.07009 0.58752 0.0
C692 C 0.40319 0.05907 0.58481 0.0
H693 H 0.2666 0.2287 0.95184 0.0
H694 H 0.30577 0.29169 0.00459 0.0
H695 H 0.37244 0.36629 0.98897 0.0
H696 H 0.3883 0.27994 0.93173 0.0
H697 H 0.37331 0.29015 0.90905 0.0
H698 H 0.32848 0.24158 0.92436 0.0
H699 H 0.27086 0.27577 0.92082 0.0
H700 H 0.31561 0.32452 0.90555 0.0
H701 H 0.29122 0.33742 0.92586 0.0
H702 H 0.43427 0.43472 0.96769 0.0
H703 H 0.4891 0.49088 0.94204 0.0
H704 H 0.41084 0.38392 0.90317 0.0
C705 C 0.28913 0.25826 0.96008 0.0
C706 C 0.28105 0.25419 0.97947 0.0
C707 C 0.31165 0.2936 0.98977 0.0
C708 C 0.34943 0.3363 0.98101 0.0
C709 C 0.35638 0.33915 0.96192 0.0
C710 C 0.32729 0.30114 0.95156 0.0
C711 C 0.34305 0.31342 0.93124 0.0
C712 C 0.35925 0.27924 0.92365 0.0
C713 C 0.30278 0.31275 0.92022 0.0
C714 C 0.38539 0.36426 0.9318 0.0
C715 C 0.39232 0.37848 0.94964 0.0
C716 C 0.4292 0.42398 0.95367 0.0
C717 C 0.46003 0.45561 0.9391 0.0
C718 C 0.45377 0.44147 0.92082 0.0
C719 C 0.41598 0.39535 0.91711 0.0
H720 H 0.07437 0.30882 0.31179 0.0
H721 H 0.05683 0.20789 0.27055 0.0
H722 H 0.04822 0.26011 0.24706 0.0
H723 H 0.98862 0.33872 0.29571 0.0
H724 H 0.02301 0.40151 0.30041 0.0
H725 H 0.02957 0.3572 0.31391 0.0
H726 H 0.12181 0.40419 0.30565 0.0
H727 H 0.11557 0.44884 0.29222 0.0
H728 H 0.14391 0.4183 0.2818 0.0
H729 H 0.039 0.32205 0.22818 0.0
H730 H 0.03241 0.39103 0.21519 0.0
H731 H 0.05653 0.45187 0.26847 0.0
C732 C 0.0695 0.29807 0.29776 0.0
C733 C 0.06619 0.25414 0.29303 0.0
C734 C 0.05893 0.24106 0.27456 0.0
C735 C 0.0542 0.27058 0.26109 0.0
C736 C 0.05687 0.31321 0.26627 0.0
C737 C 0.0646 0.3271 0.28413 0.0
C738 C 0.06514 0.37428 0.28615 0.0
C739 C 0.02414 0.3675 0.29986 0.0
C740 C 0.11455 0.41374 0.29179 0.0
C741 C 0.05634 0.38464 0.26666 0.0
C742 C 0.05166 0.34894 0.2554 0.0
C743 C 0.04282 0.3503 0.23685 0.0
C744 C 0.03901 0.38935 0.2296 0.0
C745 C 0.04414 0.42633 0.24089 0.0
C746 C 0.05267 0.42387 0.25963 0.0
loop_
_geom_bond_atom_site_label_1
_geom_bond_atom_site_label_2
_geom_bond_distance
_geom_bond_site_symmetry_2
_ccdc_geom_bond_type
Li0 N17 1.990 . S
Li0 O60 1.956 . S
Li0 O61 1.970 . S
Li0 O62 1.961 . S
Li1 N25 1.990 . S
Li1 O60 1.970 . S
Li1 O61 1.956 . S
Li1 O63 1.961 . S
Li2 N47 1.990 1_545 S
Li2 O60 1.961 . S
Li2 O62 1.956 . S
Li2 O63 1.970 . S
Li3 N53 1.990 1_445 S
Li3 O61 1.961 . S
Li3 O62 1.970 . S
Li3 O63 1.956 . S
C4 C6 1.348 . S
C4 C7 1.356 . S
C4 O60 1.325 . S
N5 C8 1.314 . S
N5 C9 1.279 . S
C6 C4 1.348 . S
C6 C8 1.353 . S
C6 H64 0.929 . S
C7 C4 1.356 . S
C7 C9 1.358 . S
C7 H65 0.930 . S
C8 N5 1.314 . S
C8 C6 1.353 . S
C8 H66 0.930 . S
C9 N5 1.279 . S
C9 C7 1.358 . S
C9 H67 0.930 . S
C10 C13 1.358 . S
C10 C14 1.356 . S
C10 O61 1.325 . S
C11 N12 1.279 1_655 S
C11 C14 1.358 1_656 S
C11 H68 0.930 . S
N12 C11 1.279 1_455 S
N12 C15 1.314 . S
C13 C10 1.358 . S
C13 C15 1.339 1_554 S
C13 H69 0.934 . S
C14 C10 1.356 . S
C14 C11 1.358 1_454 S
C14 H70 0.930 1_455 S
C15 N12 1.314 . S
C15 C13 1.339 1_556 S
C15 H71 0.930 . S
C16 N17 1.314 1_556 S
C16 C21 1.353 . S
C16 H22 0.930 . S
N17 Li0 1.990 . S
N17 C16 1.314 1_554 S
N17 C19 1.279 . S
C18 C19 1.357 1_556 S
C18 C20 1.358 . S
C18 H72 0.929 1_556 S
C19 N17 1.279 . S
C19 C18 1.357 1_554 S
C19 H23 0.930 . S
C20 C18 1.358 . S
C20 C21 1.348 . S
C21 C16 1.353 . S
C21 C20 1.348 . S
C21 H73 0.929 . S
H22 C16 0.930 . S
H23 C19 0.930 . S
C24 N25 1.314 . S
C24 C26 1.353 . S
C24 H30 0.930 . S
N25 Li1 1.990 . S
N25 C24 1.314 . S
N25 C28 1.279 . S
C26 C24 1.353 . S
C26 C29 1.348 . S
C26 H74 0.929 . S
C27 C28 1.358 . S
C27 C29 1.356 . S
C27 H75 0.930 . S
C28 N25 1.279 . S
C28 C27 1.358 . S
C28 H31 0.930 . S
C29 C26 1.348 . S
C29 C27 1.356 . S
H30 C24 0.930 . S
H31 C28 0.930 . S
C32 C34 1.348 . S
C32 C35 1.356 . S
C32 O62 1.325 1_565 S
N33 C36 1.314 . S
N33 C37 1.279 . S
C34 C32 1.348 . S
C34 C36 1.353 1_554 S
C34 H76 0.929 . S
C35 C32 1.356 . S
C35 C37 1.358 1_554 S
C35 H77 0.930 1_565 S
C36 N33 1.314 . S
C36 C34 1.353 1_556 S
C36 H78 0.930 . S
C37 N33 1.279 . S
C37 C35 1.358 1_556 S
C37 H79 0.930 . S
C38 C39 1.348 . S
C38 C40 1.356 . S
C38 O63 1.325 1_665 S
C39 C38 1.348 . S
C39 C41 1.353 . S
C39 H80 0.929 . S
C40 C38 1.356 . S
C40 C42 1.358 . S
C40 H81 0.930 1_565 S
C41 C39 1.353 . S
C41 N43 1.314 . S
C41 H82 0.930 . S
C42 C40 1.358 . S
C42 N43 1.279 . S
C42 H83 0.930 . S
N43 C41 1.314 . S
N43 C42 1.279 . S
C44 C46 1.353 . S
C44 N47 1.314 . S
C44 H50 0.930 1_565 S
C45 N47 1.279 . S
C45 C48 1.358 . S
C45 H51 0.930 . S
C46 C44 1.353 . S
C46 C49 1.348 . S
C46 H84 0.929 . S
N47 Li2 1.990 1_565 S
N47 C44 1.314 . S
N47 C45 1.279 . S
C48 C45 1.358 . S
C48 C49 1.356 . S
C48 H85 0.930 . S
C49 C46 1.348 . S
C49 C48 1.356 . S
H50 C44 0.930 1_545 S
H51 C45 0.930 . S
C52 N53 1.314 1_556 S
C52 C54 1.353 . S
C52 H58 0.930 1_565 S
N53 Li3 1.990 1_665 S
N53 C52 1.314 1_554 S
N53 C56 1.279 . S
C54 C52 1.353 . S
C54 C57 1.348 . S
C54 H86 0.929 . S
C55 C56 1.358 . S
C55 C57 1.356 1_554 S
C55 H87 0.930 . S
C56 N53 1.279 . S
C56 C55 1.358 . S
C56 H59 0.930 . S
C57 C54 1.348 . S
C57 C55 1.356 1_556 S
H58 C52 0.930 1_545 S
H59 C56 0.930 . S
O60 Li0 1.956 . S
O60 Li1 1.970 . S
O60 Li2 1.961 . S
O60 C4 1.325 . S
O61 Li0 1.970 . S
O61 Li1 1.956 . S
O61 Li3 1.961 . S
O61 C10 1.325 . S
O62 Li0 1.961 . S
O62 Li2 1.956 . S
O62 Li3 1.970 . S
O62 C32 1.325 1_545 S
O63 Li1 1.961 . S
O63 Li2 1.970 . S
O63 Li3 1.956 . S
O63 C38 1.325 1_445 S
H64 C6 0.929 . S
H65 C7 0.930 . S
H66 C8 0.930 . S
H67 C9 0.930 . S
H68 C11 0.930 . S
H69 C13 0.934 . S
H70 C14 0.930 1_655 S
H71 C15 0.930 . S
H72 C18 0.929 1_554 S
H73 C21 0.929 . S
H74 C26 0.929 . S
H75 C27 0.930 . S
H76 C34 0.929 . S
H77 C35 0.930 1_545 S
H78 C36 0.930 . S
H79 C37 0.930 . S
H80 C39 0.929 . S
H81 C40 0.930 1_545 S
H82 C41 0.930 . S
H83 C42 0.930 . S
H84 C46 0.929 . S
H85 C48 0.930 . S
H86 C54 0.929 . S
H87 C55 0.930 . S
Li88 N105 1.990 1_545 S
Li88 O148 1.956 . S
Li88 O149 1.970 . S
Li88 O150 1.961 1_455 S
Li89 N113 1.990 . S
Li89 O148 1.970 . S
Li89 O149 1.956 . S
Li89 O151 1.961 . S
Li90 N135 1.990 . S
Li90 O148 1.961 1_655 S
Li90 O150 1.956 . S
Li90 O151 1.970 1_655 S
Li91 N141 1.990 . S
Li91 O149 1.961 . S
Li91 O150 1.970 1_455 S
Li91 O151 1.956 . S
C92 C94 1.348 . S
C92 C95 1.356 1_455 S
C92 O148 1.325 1_565 S
N93 C96 1.314 1_655 S
N93 C97 1.279 . S
C94 C92 1.348 . S
C94 C96 1.353 . S
C94 H152 0.926 1_565 S
C95 C92 1.356 1_655 S
C95 C97 1.358 . S
C95 H153 0.930 . S
C96 N93 1.314 1_455 S
C96 C94 1.353 . S
C96 H154 0.930 . S
C97 N93 1.279 . S
C97 C95 1.358 . S
C97 H155 0.930 . S
C98 C101 1.348 . S
C98 C102 1.356 . S
C98 O149 1.325 . S
C99 N100 1.279 . S
C99 C102 1.358 . S
C99 H156 0.930 . S
N100 C99 1.279 . S
N100 C103 1.314 . S
C101 C98 1.348 . S
C101 C103 1.353 . S
C101 H157 0.929 . S
C102 C98 1.356 . S
C102 C99 1.358 . S
C102 H158 0.930 . S
C103 N100 1.314 . S
C103 C101 1.353 . S
C103 H159 0.930 . S
C104 N105 1.314 1_655 S
C104 C109 1.353 . S
C104 H110 0.930 . S
N105 Li88 1.990 1_565 S
N105 C104 1.314 1_455 S
N105 C107 1.279 . S
C106 C107 1.358 1_655 S
C106 C108 1.356 . S
C106 H160 0.930 . S
C107 N105 1.279 . S
C107 C106 1.358 1_455 S
C107 H111 0.930 . S
C108 C106 1.356 . S
C108 C109 1.348 . S
C109 C104 1.353 . S
C109 C108 1.348 . S
C109 H161 0.929 . S
H110 C104 0.930 . S
H111 C107 0.930 . S
C112 N113 1.314 . S
C112 C114 1.353 . S
C112 H118 0.930 . S
N113 Li89 1.990 . S
N113 C112 1.314 . S
N113 C116 1.279 . S
C114 C112 1.353 . S
C114 C117 1.348 . S
C114 H162 0.929 . S
C115 C116 1.358 . S
C115 C117 1.356 . S
C115 H163 0.930 . S
C116 N113 1.279 . S
C116 C115 1.358 . S
C116 H119 0.930 . S
C117 C114 1.348 . S
C117 C115 1.356 . S
H118 C112 0.930 . S
H119 C116 0.930 . S
C120 C122 1.348 . S
C120 C123 1.356 . S
C120 O150 1.325 . S
N121 C124 1.314 . S
N121 C125 1.279 1_545 S
C122 C120 1.348 . S
C122 C124 1.353 . S
C122 H164 0.929 . S
C123 C120 1.356 . S
C123 C125 1.358 1_545 S
C123 H165 0.930 1_545 S
C124 N121 1.314 . S
C124 C122 1.353 . S
C124 H166 0.930 . S
C125 N121 1.279 1_565 S
C125 C123 1.358 1_565 S
C125 H167 0.930 . S
C126 C127 1.348 . S
C126 C128 1.356 . S
C126 O151 1.325 . S
C127 C126 1.348 . S
C127 C129 1.353 . S
C127 H168 0.929 1_455 S
C128 C126 1.356 . S
C128 C130 1.358 . S
C128 H169 0.930 . S
C129 C127 1.353 . S
C129 N131 1.314 . S
C129 H170 0.930 . S
C130 C128 1.358 . S
C130 N131 1.279 . S
C130 H171 0.930 . S
N131 C129 1.314 . S
N131 C130 1.279 . S
C132 C134 1.353 . S
C132 N135 1.314 . S
C132 H138 0.930 . S
C133 N135 1.279 . S
C133 C136 1.358 . S
C133 H139 0.930 . S
C134 C132 1.353 . S
C134 C137 1.348 . S
C134 H172 0.929 . S
N135 Li90 1.990 . S
N135 C132 1.314 . S
N135 C133 1.279 . S
C136 C133 1.358 . S
C136 C137 1.356 . S
C136 H173 0.930 . S
C137 C134 1.348 . S
C137 C136 1.356 . S
H138 C132 0.930 . S
H139 C133 0.930 . S
C140 N141 1.314 . S
C140 C142 1.353 . S
C140 H146 0.930 . S
N141 Li91 1.990 . S
N141 C140 1.314 . S
N141 C144 1.279 . S
C142 C140 1.353 . S
C142 C145 1.348 . S
C142 H174 0.929 . S
C143 C144 1.358 . S
C143 C145 1.356 . S
C143 H175 0.930 . S
C144 N141 1.279 . S
C144 C143 1.358 . S
C144 H147 0.930 . S
C145 C142 1.348 . S
C145 C143 1.356 . S
H146 C140 0.930 . S
H147 C144 0.930 . S
O148 Li88 1.956 . S
O148 Li89 1.970 . S
O148 Li90 1.961 1_455 S
O148 C92 1.325 1_545 S
O149 Li88 1.970 . S
O149 Li89 1.956 . S
O149 Li91 1.961 . S
O149 C98 1.325 . S
O150 Li88 1.961 1_655 S
O150 Li90 1.956 . S
O150 Li91 1.970 1_655 S
O150 C120 1.325 . S
O151 Li89 1.961 . S
O151 Li90 1.970 1_455 S
O151 Li91 1.956 . S
O151 C126 1.325 . S
H152 C94 0.926 1_545 S
H153 C95 0.930 . S
H154 C96 0.930 . S
H155 C97 0.930 . S
H156 C99 0.930 . S
H157 C101 0.929 . S
H158 C102 0.930 . S
H159 C103 0.930 . S
H160 C106 0.930 . S
H161 C109 0.929 . S
H162 C114 0.929 . S
H163 C115 0.930 . S
H164 C122 0.929 . S
H165 C123 0.930 1_565 S
H166 C124 0.930 . S
H167 C125 0.930 . S
H168 C127 0.929 1_655 S
H169 C128 0.930 . S
H170 C129 0.930 . S
H171 C130 0.930 . S
H172 C134 0.929 . S
H173 C136 0.930 . S
H174 C142 0.929 . S
H175 C143 0.930 . S
Li176 N193 1.990 . S
Li176 O236 1.956 . S
Li176 O237 1.970 . S
Li176 O238 1.961 1_545 S
Li177 N201 1.990 . S
Li177 O236 1.970 . S
Li177 O237 1.956 . S
Li177 O239 1.961 . S
Li178 N223 1.990 1_455 S
Li178 O236 1.961 1_565 S
Li178 O238 1.956 . S
Li178 O239 1.970 1_565 S
Li179 N229 1.990 1_455 S
Li179 O237 1.961 . S
Li179 O238 1.970 1_545 S
Li179 O239 1.956 . S
C180 C182 1.348 . S
C180 C183 1.356 1_545 S
C180 O236 1.325 . S
N181 C184 1.314 1_565 S
N181 C185 1.279 . S
C182 C180 1.348 . S
C182 C184 1.353 . S
C182 H240 0.929 . S
C183 C180 1.356 1_565 S
C183 C185 1.358 . S
C183 H241 0.930 . S
C184 N181 1.314 1_545 S
C184 C182 1.353 . S
C184 H242 0.930 . S
C185 N181 1.279 . S
C185 C183 1.358 . S
C185 H243 0.930 . S
C186 C189 1.348 . S
C186 C190 1.356 . S
C186 O237 1.325 . S
C187 N188 1.279 . S
C187 C190 1.358 . S
C187 H244 0.930 . S
N188 C187 1.279 . S
N188 C191 1.314 . S
C189 C186 1.348 . S
C189 C191 1.353 . S
C189 H245 0.929 . S
C190 C186 1.356 . S
C190 C187 1.358 . S
C190 H246 0.930 . S
C191 N188 1.314 . S
C191 C189 1.353 . S
C191 H247 0.930 . S
C192 N193 1.314 . S
C192 C197 1.339 1_545 S
C192 H198 0.930 . S
N193 Li176 1.990 . S
N193 C192 1.314 . S
N193 C195 1.279 . S
C194 C195 1.358 . S
C194 C196 1.357 . S
C194 H248 0.930 . S
C195 N193 1.279 . S
C195 C194 1.358 . S
C195 H199 0.930 . S
C196 C194 1.357 . S
C196 C197 1.365 1_545 S
C197 C192 1.339 1_565 S
C197 C196 1.365 1_565 S
C197 H249 0.932 . S
H198 C192 0.930 . S
H199 C195 0.930 . S
C200 N201 1.314 . S
C200 C202 1.353 . S
C200 H206 0.930 . S
N201 Li177 1.990 . S
N201 C200 1.314 . S
N201 C204 1.279 . S
C202 C200 1.353 . S
C202 C205 1.348 . S
C202 H250 0.929 . S
C203 C204 1.358 . S
C203 C205 1.356 . S
C203 H251 0.930 . S
C204 N201 1.279 . S
C204 C203 1.358 . S
C204 H207 0.930 . S
C205 C202 1.348 . S
C205 C203 1.356 . S
H206 C200 0.930 . S
H207 C204 0.930 . S
C208 C210 1.348 . S
C208 C211 1.356 1_655 S
C208 O238 1.325 1_655 S
N209 C212 1.314 . S
N209 C213 1.279 . S
C210 C208 1.348 . S
C210 C212 1.353 . S
C210 H252 0.929 . S
C211 C208 1.356 1_455 S
C211 C213 1.358 1_455 S
C211 H253 0.930 . S
C212 N209 1.314 . S
C212 C210 1.353 . S
C212 H254 0.930 . S
C213 N209 1.279 . S
C213 C211 1.358 1_655 S
C213 H255 0.930 . S
C214 C215 1.348 . S
C214 C216 1.366 1_655 S
C214 O239 1.325 1_655 S
C215 C214 1.348 . S
C215 C217 1.353 . S
C215 H256 0.929 1_545 S
C216 C214 1.366 1_455 S
C216 C218 1.336 1_455 S
C216 H257 0.943 . S
C217 C215 1.353 . S
C217 N219 1.314 . S
C217 H258 0.930 . S
C218 C216 1.336 1_655 S
C218 N219 1.279 . S
C218 H259 0.930 . S
N219 C217 1.314 . S
N219 C218 1.279 . S
C220 C222 1.353 . S
C220 N223 1.314 . S
C220 H226 0.930 1_655 S
C221 N223 1.279 . S
C221 C224 1.358 . S
C221 H227 0.930 . S
C222 C220 1.353 . S
C222 C225 1.348 . S
C222 H260 0.929 . S
N223 Li178 1.990 1_655 S
N223 C220 1.314 . S
N223 C221 1.279 . S
C224 C221 1.358 . S
C224 C225 1.356 . S
C224 H261 0.930 . S
C225 C222 1.348 . S
C225 C224 1.356 . S
H226 C220 0.930 1_455 S
H227 C221 0.930 . S
C228 N229 1.314 . S
C228 C230 1.353 . S
C228 H234 0.930 1_655 S
N229 Li179 1.990 1_655 S
N229 C228 1.314 . S
N229 C232 1.279 . S
C230 C228 1.353 . S
C230 C233 1.348 . S
C230 H262 0.929 . S
C231 C232 1.358 . S
C231 C233 1.356 . S
C231 H263 0.930 . S
C232 N229 1.279 . S
C232 C231 1.358 . S
C232 H235 0.930 . S
C233 C230 1.348 . S
C233 C231 1.356 . S
H234 C228 0.930 1_455 S
H235 C232 0.930 . S
O236 Li176 1.956 . S
O236 Li177 1.970 . S
O236 Li178 1.961 1_545 S
O236 C180 1.325 . S
O237 Li176 1.970 . S
O237 Li177 1.956 . S
O237 Li179 1.961 . S
O237 C186 1.325 . S
O238 Li176 1.961 1_565 S
O238 Li178 1.956 . S
O238 Li179 1.970 1_565 S
O238 C208 1.325 1_455 S
O239 Li177 1.961 . S
O239 Li178 1.970 1_545 S
O239 Li179 1.956 . S
O239 C214 1.325 1_455 S
H240 C182 0.929 . S
H241 C183 0.930 . S
H242 C184 0.930 . S
H243 C185 0.930 . S
H244 C187 0.930 . S
H245 C189 0.929 . S
H246 C190 0.930 . S
H247 C191 0.930 . S
H248 C194 0.930 . S
H249 C197 0.932 . S
H250 C202 0.929 . S
H251 C203 0.930 . S
H252 C210 0.929 . S
H253 C211 0.930 . S
H254 C212 0.930 . S
H255 C213 0.930 . S
H256 C215 0.929 1_565 S
H257 C216 0.943 . S
H258 C217 0.930 . S
H259 C218 0.930 . S
H260 C222 0.929 . S
H261 C224 0.930 . S
H262 C230 0.929 . S
H263 C231 0.930 . S
C264 C265 1.443 . S
C264 N268 1.376 . S
C264 C302 1.389 . S
C265 C264 1.443 . S
C265 C266 1.340 . S
C265 H305 0.951 . S
C266 C265 1.340 . S
C266 C267 1.439 . S
C266 H306 0.950 . S
C267 C266 1.439 . S
C267 N268 1.374 . S
C267 C301 1.395 . S
N268 C264 1.376 . S
N268 C267 1.374 . S
N268 Co269 2.008 . S
Co269 N268 2.008 . S
Co269 N270 1.995 . S
Co269 N275 2.008 1_455 S
Co269 N280 1.995 1_455 S
Co269 N285 2.282 . S
Co269 N291 2.282 . S
N270 Co269 1.995 . S
N270 C271 1.376 . S
N270 C274 1.383 . S
C271 N270 1.376 . S
C271 C272 1.446 . S
C271 C301 1.391 . S
C272 C271 1.446 . S
C272 C273 1.339 . S
C272 H307 0.949 . S
C273 C272 1.339 . S
C273 C274 1.439 . S
C273 H308 0.950 . S
C274 N270 1.383 . S
C274 C273 1.439 . S
C274 C303 1.392 . S
N275 Co269 2.008 1_655 S
N275 C276 1.376 . S
N275 C279 1.374 . S
C276 N275 1.376 . S
C276 C277 1.443 . S
C276 C303 1.389 1_655 S
C277 C276 1.443 . S
C277 C278 1.340 . S
C277 H309 0.951 . S
C278 C277 1.340 . S
C278 C279 1.439 . S
C278 H310 0.950 . S
C279 N275 1.374 . S
C279 C278 1.439 . S
C279 C304 1.395 . S
N280 Co269 1.995 1_655 S
N280 C281 1.376 . S
N280 C284 1.383 . S
C281 N280 1.376 . S
C281 C282 1.446 . S
C281 C304 1.391 . S
C282 C281 1.446 . S
C282 C283 1.339 . S
C282 H311 0.949 . S
C283 C282 1.339 . S
C283 C284 1.439 . S
C283 H312 0.950 . S
C284 N280 1.383 . S
C284 C283 1.439 . S
C284 C302 1.392 1_655 S
N285 Co269 2.282 . S
N285 C288 1.332 1_455 S
N285 C290 1.332 . S
C286 C287 1.386 1_455 S
C286 C289 1.388 . S
C287 C286 1.386 1_655 S
C287 C288 1.382 . S
C287 H313 0.950 . S
C288 N285 1.332 1_655 S
C288 C287 1.382 . S
C288 H299 0.952 . S
C289 C286 1.388 . S
C289 C290 1.382 . S
C289 H314 0.950 . S
C290 N285 1.332 . S
C290 C289 1.382 . S
C290 H300 0.948 . S
N291 Co269 2.282 . S
N291 C295 1.332 . S
N291 C296 1.332 1_455 S
C292 C293 1.388 1_655 S
C292 C296 1.382 . S
C292 H315 0.950 . S
C293 C292 1.388 1_455 S
C293 C294 1.386 . S
C294 C293 1.386 . S
C294 C295 1.382 . S
C294 H316 0.950 . S
C295 N291 1.332 . S
C295 C294 1.382 . S
C295 H297 0.952 . S
C296 N291 1.332 1_655 S
C296 C292 1.382 . S
C296 H298 0.948 . S
H297 C295 0.952 . S
H298 C296 0.948 . S
H299 C288 0.952 . S
H300 C290 0.948 . S
C301 C267 1.395 . S
C301 C271 1.391 . S
C302 C264 1.389 . S
C302 C284 1.392 1_455 S
C303 C274 1.392 . S
C303 C276 1.389 1_455 S
C304 C279 1.395 . S
C304 C281 1.391 . S
H305 C265 0.951 . S
H306 C266 0.950 . S
H307 C272 0.949 . S
H308 C273 0.950 . S
H309 C277 0.951 . S
H310 C278 0.950 . S
H311 C282 0.949 . S
H312 C283 0.950 . S
H313 C287 0.950 . S
H314 C289 0.950 . S
H315 C292 0.950 . S
H316 C294 0.950 . S
C317 C318 1.443 1_545 S
C317 N321 1.376 . S
C317 C355 1.389 . S
C318 C317 1.443 1_565 S
C318 C319 1.340 . S
C318 H358 0.951 . S
C319 C318 1.340 . S
C319 C320 1.439 . S
C319 H359 0.950 . S
C320 C319 1.439 . S
C320 N321 1.374 1_565 S
C320 C354 1.395 . S
N321 C317 1.376 . S
N321 C320 1.374 1_545 S
N321 Co322 2.008 . S
Co322 N321 2.008 . S
Co322 N323 1.995 . S
Co322 N328 2.008 . S
Co322 N333 1.995 . S
Co322 N338 2.282 . S
Co322 N344 2.282 . S
N323 Co322 1.995 . S
N323 C324 1.376 1_545 S
N323 C327 1.383 . S
C324 N323 1.376 1_565 S
C324 C325 1.446 . S
C324 C354 1.391 . S
C325 C324 1.446 . S
C325 C326 1.339 . S
C325 H360 0.949 . S
C326 C325 1.339 . S
C326 C327 1.439 1_565 S
C326 H361 0.950 . S
C327 N323 1.383 . S
C327 C326 1.439 1_545 S
C327 C356 1.392 . S
N328 Co322 2.008 . S
N328 C329 1.376 . S
N328 C332 1.374 . S
C329 N328 1.376 . S
C329 C330 1.443 . S
C329 C356 1.389 . S
C330 C329 1.443 . S
C330 C331 1.340 . S
C330 H362 0.951 . S
C331 C330 1.340 . S
C331 C332 1.439 . S
C331 H363 0.950 . S
C332 N328 1.374 . S
C332 C331 1.439 . S
C332 C357 1.395 . S
N333 Co322 1.995 . S
N333 C334 1.376 . S
N333 C337 1.383 . S
C334 N333 1.376 . S
C334 C335 1.446 . S
C334 C357 1.391 . S
C335 C334 1.446 . S
C335 C336 1.339 . S
C335 H364 0.949 . S
C336 C335 1.339 . S
C336 C337 1.439 . S
C336 H365 0.950 . S
C337 N333 1.383 . S
C337 C336 1.439 . S
C337 C355 1.392 . S
N338 Co322 2.282 . S
N338 C341 1.332 . S
N338 C343 1.332 . S
C339 C340 1.386 . S
C339 C342 1.388 . S
C340 C339 1.386 . S
C340 C341 1.382 . S
C340 H366 0.950 . S
C341 N338 1.332 . S
C341 C340 1.382 . S
C341 H352 0.952 . S
C342 C339 1.388 . S
C342 C343 1.382 . S
C342 H367 0.950 . S
C343 N338 1.332 . S
C343 C342 1.382 . S
C343 H353 0.948 . S
N344 Co322 2.282 . S
N344 C348 1.332 . S
N344 C349 1.332 . S
C345 C346 1.388 . S
C345 C349 1.382 . S
C345 H368 0.950 . S
C346 C345 1.388 . S
C346 C347 1.386 . S
C347 C346 1.386 . S
C347 C348 1.382 . S
C347 H369 0.950 . S
C348 N344 1.332 . S
C348 C347 1.382 . S
C348 H350 0.952 . S
C349 N344 1.332 . S
C349 C345 1.382 . S
C349 H351 0.948 . S
H350 C348 0.952 . S
H351 C349 0.948 . S
H352 C341 0.952 . S
H353 C343 0.948 . S
C354 C320 1.395 . S
C354 C324 1.391 . S
C355 C317 1.389 . S
C355 C337 1.392 . S
C356 C327 1.392 . S
C356 C329 1.389 . S
C357 C332 1.395 . S
C357 C334 1.391 . S
H358 C318 0.951 . S
H359 C319 0.950 . S
H360 C325 0.949 . S
H361 C326 0.950 . S
H362 C330 0.951 . S
H363 C331 0.950 . S
H364 C335 0.949 . S
H365 C336 0.950 . S
H366 C340 0.950 . S
H367 C342 0.950 . S
H368 C345 0.950 . S
H369 C347 0.950 . S
C370 C371 1.443 . S
C370 N374 1.376 . S
C370 C408 1.389 . S
C371 C370 1.443 . S
C371 C372 1.340 . S
C371 H411 0.951 . S
C372 C371 1.340 . S
C372 C373 1.439 . S
C372 H412 0.950 . S
C373 C372 1.439 . S
C373 N374 1.374 . S
C373 C407 1.395 . S
N374 C370 1.376 . S
N374 C373 1.374 . S
N374 Co375 2.008 . S
Co375 N374 2.008 . S
Co375 N376 1.995 . S
Co375 N381 2.008 . S
Co375 N386 1.995 . S
Co375 N391 2.282 . S
Co375 N397 2.282 . S
N376 Co375 1.995 . S
N376 C377 1.376 . S
N376 C380 1.383 . S
C377 N376 1.376 . S
C377 C378 1.446 . S
C377 C407 1.391 . S
C378 C377 1.446 . S
C378 C379 1.339 . S
C378 H413 0.949 . S
C379 C378 1.339 . S
C379 C380 1.439 . S
C379 H414 0.950 . S
C380 N376 1.383 . S
C380 C379 1.439 . S
C380 C409 1.392 . S
N381 Co375 2.008 . S
N381 C382 1.376 . S
N381 C385 1.374 . S
C382 N381 1.376 . S
C382 C383 1.443 . S
C382 C409 1.389 . S
C383 C382 1.443 . S
C383 C384 1.340 . S
C383 H415 0.951 . S
C384 C383 1.340 . S
C384 C385 1.439 . S
C384 H416 0.950 . S
C385 N381 1.374 . S
C385 C384 1.439 . S
C385 C410 1.395 . S
N386 Co375 1.995 . S
N386 C387 1.376 . S
N386 C390 1.383 . S
C387 N386 1.376 . S
C387 C388 1.446 . S
C387 C410 1.391 . S
C388 C387 1.446 . S
C388 C389 1.339 . S
C388 H417 0.949 . S
C389 C388 1.339 . S
C389 C390 1.439 . S
C389 H418 0.950 . S
C390 N386 1.383 . S
C390 C389 1.439 . S
C390 C408 1.392 . S
N391 Co375 2.282 . S
N391 C394 1.332 . S
N391 C396 1.332 . S
C392 C393 1.386 . S
C392 C395 1.388 . S
C393 C392 1.386 . S
C393 C394 1.382 . S
C393 H419 0.950 . S
C394 N391 1.332 . S
C394 C393 1.382 . S
C394 H405 0.952 . S
C395 C392 1.388 . S
C395 C396 1.382 . S
C395 H420 0.950 . S
C396 N391 1.332 . S
C396 C395 1.382 . S
C396 H406 0.948 . S
N397 Co375 2.282 . S
N397 C401 1.332 . S
N397 C402 1.332 . S
C398 C399 1.388 . S
C398 C402 1.382 . S
C398 H421 0.950 . S
C399 C398 1.388 . S
C399 C400 1.386 . S
C400 C399 1.386 . S
C400 C401 1.382 . S
C400 H422 0.950 . S
C401 N397 1.332 . S
C401 C400 1.382 . S
C401 H403 0.952 . S
C402 N397 1.332 . S
C402 C398 1.382 . S
C402 H404 0.948 . S
H403 C401 0.952 . S
H404 C402 0.948 . S
H405 C394 0.952 . S
H406 C396 0.948 . S
C407 C373 1.395 . S
C407 C377 1.391 . S
C408 C370 1.389 . S
C408 C390 1.392 . S
C409 C380 1.392 . S
C409 C382 1.389 . S
C410 C385 1.395 . S
C410 C387 1.391 . S
H411 C371 0.951 . S
H412 C372 0.950 . S
H413 C378 0.949 . S
H414 C379 0.950 . S
H415 C383 0.951 . S
H416 C384 0.950 . S
H417 C388 0.949 . S
H418 C389 0.950 . S
H419 C393 0.950 . S
H420 C395 0.950 . S
H421 C398 0.950 . S
H422 C400 0.950 . S
H423 C435 0.930 . S
H424 C437 0.930 . S
H425 C438 0.930 . S
H426 C442 0.959 . S
H427 C442 0.959 . S
H428 C442 0.961 . S
H429 C443 0.960 . S
H430 C443 0.961 . S
H431 C443 0.959 1_655 S
H432 C446 0.929 . S
H433 C447 0.931 . S
H434 C449 0.930 . S
C435 H423 0.930 . S
C435 C436 1.399 . S
C435 C440 1.399 . S
C436 C435 1.399 . S
C436 C437 1.376 1_455 S
C437 H424 0.930 . S
C437 C436 1.376 1_655 S
C437 C438 1.388 . S
C438 H425 0.930 . S
C438 C437 1.388 . S
C438 C439 1.390 1_655 S
C439 C438 1.390 1_455 S
C439 C440 1.394 . S
C439 C445 1.465 . S
C440 C435 1.399 . S
C440 C439 1.394 . S
C440 C441 1.516 . S
C441 C440 1.516 . S
C441 C442 1.502 . S
C441 C443 1.561 . S
C441 C444 1.526 . S
C442 H426 0.959 . S
C442 H427 0.959 . S
C442 H428 0.961 . S
C442 C441 1.502 . S
C443 H429 0.960 . S
C443 H430 0.961 . S
C443 H431 0.959 1_455 S
C443 C441 1.561 . S
C444 C441 1.526 . S
C444 C445 1.396 . S
C444 C449 1.390 . S
C445 C439 1.465 . S
C445 C444 1.396 . S
C445 C446 1.399 1_455 S
C446 H432 0.929 . S
C446 C445 1.399 1_655 S
C446 C447 1.385 1_655 S
C447 H433 0.931 . S
C447 C446 1.385 1_455 S
C447 C448 1.389 . S
C448 C447 1.389 . S
C448 C449 1.387 . S
C449 H434 0.930 . S
C449 C444 1.390 . S
C449 C448 1.387 . S
H450 C462 0.930 . S
H451 C464 0.930 . S
H452 C465 0.930 . S
H453 C469 0.959 . S
H454 C469 0.959 . S
H455 C469 0.961 . S
H456 C470 0.960 . S
H457 C470 0.961 . S
H458 C470 0.959 . S
H459 C473 0.929 1_565 S
H460 C474 0.931 . S
H461 C476 0.930 . S
C462 H450 0.930 . S
C462 C463 1.399 . S
C462 C467 1.399 . S
C463 C462 1.399 . S
C463 C464 1.376 1_545 S
C464 H451 0.930 . S
C464 C463 1.376 1_565 S
C464 C465 1.388 . S
C465 H452 0.930 . S
C465 C464 1.388 . S
C465 C466 1.390 1_565 S
C466 C465 1.390 1_545 S
C466 C467 1.394 . S
C466 C472 1.465 . S
C467 C462 1.399 . S
C467 C466 1.394 . S
C467 C468 1.516 . S
C468 C467 1.516 . S
C468 C469 1.502 . S
C468 C470 1.561 . S
C468 C471 1.526 . S
C469 H453 0.959 . S
C469 H454 0.959 . S
C469 H455 0.961 . S
C469 C468 1.502 . S
C470 H456 0.960 . S
C470 H457 0.961 . S
C470 H458 0.959 . S
C470 C468 1.561 . S
C471 C468 1.526 . S
C471 C472 1.396 . S
C471 C476 1.390 . S
C472 C466 1.465 . S
C472 C471 1.396 . S
C472 C473 1.399 . S
C473 H459 0.929 1_545 S
C473 C472 1.399 . S
C473 C474 1.385 . S
C474 H460 0.931 . S
C474 C473 1.385 . S
C474 C475 1.389 . S
C475 C474 1.389 . S
C475 C476 1.387 . S
C476 H461 0.930 . S
C476 C471 1.390 . S
C476 C475 1.387 . S
H477 C489 0.930 . S
H478 C491 0.930 . S
H479 C492 0.930 . S
H480 C496 0.959 . S
H481 C496 0.959 . S
H482 C496 0.961 . S
H483 C497 0.960 . S
H484 C497 0.961 . S
H485 C497 0.959 . S
H486 C500 0.929 . S
H487 C501 0.931 . S
H488 C503 0.930 . S
C489 H477 0.930 . S
C489 C490 1.399 . S
C489 C494 1.399 . S
C490 C489 1.399 . S
C490 C491 1.376 . S
C491 H478 0.930 . S
C491 C490 1.376 . S
C491 C492 1.388 . S
C492 H479 0.930 . S
C492 C491 1.388 . S
C492 C493 1.390 . S
C493 C492 1.390 . S
C493 C494 1.394 . S
C493 C499 1.465 . S
C494 C489 1.399 . S
C494 C493 1.394 . S
C494 C495 1.516 . S
C495 C494 1.516 . S
C495 C496 1.502 . S
C495 C497 1.561 . S
C495 C498 1.526 . S
C496 H480 0.959 . S
C496 H481 0.959 . S
C496 H482 0.961 . S
C496 C495 1.502 . S
C497 H483 0.960 . S
C497 H484 0.961 . S
C497 H485 0.959 . S
C497 C495 1.561 . S
C498 C495 1.526 . S
C498 C499 1.396 . S
C498 C503 1.390 . S
C499 C493 1.465 . S
C499 C498 1.396 . S
C499 C500 1.399 . S
C500 H486 0.929 . S
C500 C499 1.399 . S
C500 C501 1.385 . S
C501 H487 0.931 . S
C501 C500 1.385 . S
C501 C502 1.389 . S
C502 C501 1.389 . S
C502 C503 1.387 . S
C503 H488 0.930 . S
C503 C498 1.390 . S
C503 C502 1.387 . S
H504 C516 0.930 . S
H505 C518 0.930 . S
H506 C519 0.930 . S
H507 C523 0.959 . S
H508 C523 0.959 . S
H509 C523 0.961 . S
H510 C524 0.960 . S
H511 C524 0.961 . S
H512 C524 0.959 . S
H513 C527 0.929 1_655 S
H514 C528 0.931 1_655 S
H515 C530 0.930 . S
C516 H504 0.930 . S
C516 C517 1.399 . S
C516 C521 1.399 . S
C517 C516 1.399 . S
C517 C518 1.376 . S
C518 H505 0.930 . S
C518 C517 1.376 . S
C518 C519 1.388 . S
C519 H506 0.930 . S
C519 C518 1.388 . S
C519 C520 1.390 . S
C520 C519 1.390 . S
C520 C521 1.394 . S
C520 C526 1.465 . S
C521 C516 1.399 . S
C521 C520 1.394 . S
C521 C522 1.516 . S
C522 C521 1.516 . S
C522 C523 1.502 . S
C522 C524 1.561 . S
C522 C525 1.526 . S
C523 H507 0.959 . S
C523 H508 0.959 . S
C523 H509 0.961 . S
C523 C522 1.502 . S
C524 H510 0.960 . S
C524 H511 0.961 . S
C524 H512 0.959 . S
C524 C522 1.561 . S
C525 C522 1.526 . S
C525 C526 1.396 . S
C525 C530 1.390 . S
C526 C520 1.465 . S
C526 C525 1.396 . S
C526 C527 1.399 . S
C527 H513 0.929 1_455 S
C527 C526 1.399 . S
C527 C528 1.385 . S
C528 H514 0.931 1_455 S
C528 C527 1.385 . S
C528 C529 1.389 . S
C529 C528 1.389 . S
C529 C530 1.387 . S
C530 H515 0.930 . S
C530 C525 1.390 . S
C530 C529 1.387 . S
H531 C543 0.930 . S
H532 C545 0.930 . S
H533 C546 0.930 . S
H534 C550 0.959 . S
H535 C550 0.959 . S
H536 C550 0.961 . S
H537 C551 0.960 . S
H538 C551 0.961 . S
H539 C551 0.959 . S
H540 C554 0.929 . S
H541 C555 0.931 . S
H542 C557 0.930 . S
C543 H531 0.930 . S
C543 C544 1.399 . S
C543 C548 1.399 . S
C544 C543 1.399 . S
C544 C545 1.376 . S
C545 H532 0.930 . S
C545 C544 1.376 . S
C545 C546 1.388 . S
C546 H533 0.930 . S
C546 C545 1.388 . S
C546 C547 1.390 . S
C547 C546 1.390 . S
C547 C548 1.394 . S
C547 C553 1.465 . S
C548 C543 1.399 . S
C548 C547 1.394 . S
C548 C549 1.516 . S
C549 C548 1.516 . S
C549 C550 1.502 . S
C549 C551 1.561 . S
C549 C552 1.526 . S
C550 H534 0.959 . S
C550 H535 0.959 . S
C550 H536 0.961 . S
C550 C549 1.502 . S
C551 H537 0.960 . S
C551 H538 0.961 . S
C551 H539 0.959 . S
C551 C549 1.561 . S
C552 C549 1.526 . S
C552 C553 1.396 . S
C552 C557 1.390 . S
C553 C547 1.465 . S
C553 C552 1.396 . S
C553 C554 1.399 . S
C554 H540 0.929 . S
C554 C553 1.399 . S
C554 C555 1.385 . S
C555 H541 0.931 . S
C555 C554 1.385 . S
C555 C556 1.389 . S
C556 C555 1.389 . S
C556 C557 1.387 . S
C557 H542 0.930 . S
C557 C552 1.390 . S
C557 C556 1.387 . S
H558 C570 0.930 . S
H559 C572 0.930 . S
H560 C573 0.930 . S
H561 C577 0.959 . S
H562 C577 0.959 . S
H563 C577 0.961 . S
H564 C578 0.960 . S
H565 C578 0.961 . S
H566 C578 0.959 . S
H567 C581 0.929 . S
H568 C582 0.931 . S
H569 C584 0.930 . S
C570 H558 0.930 . S
C570 C571 1.399 . S
C570 C575 1.399 . S
C571 C570 1.399 . S
C571 C572 1.376 . S
C572 H559 0.930 . S
C572 C571 1.376 . S
C572 C573 1.388 . S
C573 H560 0.930 . S
C573 C572 1.388 . S
C573 C574 1.390 . S
C574 C573 1.390 . S
C574 C575 1.394 . S
C574 C580 1.465 . S
C575 C570 1.399 . S
C575 C574 1.394 . S
C575 C576 1.516 . S
C576 C575 1.516 . S
C576 C577 1.502 . S
C576 C578 1.561 . S
C576 C579 1.526 . S
C577 H561 0.959 . S
C577 H562 0.959 . S
C577 H563 0.961 . S
C577 C576 1.502 . S
C578 H564 0.960 . S
C578 H565 0.961 . S
C578 H566 0.959 . S
C578 C576 1.561 . S
C579 C576 1.526 . S
C579 C580 1.396 . S
C579 C584 1.390 . S
C580 C574 1.465 . S
C580 C579 1.396 . S
C580 C581 1.399 . S
C581 H567 0.929 . S
C581 C580 1.399 . S
C581 C582 1.385 . S
C582 H568 0.931 . S
C582 C581 1.385 . S
C582 C583 1.389 . S
C583 C582 1.389 . S
C583 C584 1.387 . S
C584 H569 0.930 . S
C584 C579 1.390 . S
C584 C583 1.387 . S
H585 C597 0.930 . S
H586 C599 0.930 . S
H587 C600 0.930 . S
H588 C604 0.959 . S
H589 C604 0.959 . S
H590 C604 0.961 . S
H591 C605 0.960 . S
H592 C605 0.961 . S
H593 C605 0.959 . S
H594 C608 0.903 1_565 S
H595 C609 0.931 . S
H596 C611 0.930 . S
C597 H585 0.930 . S
C597 C598 1.399 . S
C597 C602 1.399 . S
C598 C597 1.399 . S
C598 C599 1.376 . S
C599 H586 0.930 . S
C599 C598 1.376 . S
C599 C600 1.388 . S
C600 H587 0.930 . S
C600 C599 1.388 . S
C600 C601 1.390 . S
C601 C600 1.390 . S
C601 C602 1.394 . S
C601 C607 1.465 . S
C602 C597 1.399 . S
C602 C601 1.394 . S
C602 C603 1.516 . S
C603 C602 1.516 . S
C603 C604 1.502 . S
C603 C605 1.561 . S
C603 C606 1.526 . S
C604 H588 0.959 . S
C604 H589 0.959 . S
C604 H590 0.961 . S
C604 C603 1.502 . S
C605 H591 0.960 . S
C605 H592 0.961 . S
C605 H593 0.959 . S
C605 C603 1.561 . S
C606 C603 1.526 . S
C606 C607 1.396 . S
C606 C611 1.390 . S
C607 C601 1.465 . S
C607 C606 1.396 . S
C607 C608 1.399 . S
C608 H594 0.903 1_545 S
C608 C607 1.399 . S
C608 C609 1.385 . S
C609 H595 0.931 . S
C609 C608 1.385 . S
C609 C610 1.389 . S
C610 C609 1.389 . S
C610 C611 1.387 . S
C611 H596 0.930 . S
C611 C606 1.390 . S
C611 C610 1.387 . S
H612 C624 0.930 . S
H613 C626 0.930 . S
H614 C627 0.930 . S
H615 C631 0.959 . S
H616 C631 0.959 . S
H617 C631 0.961 . S
H618 C632 0.960 . S
H619 C632 0.961 . S
H620 C632 0.959 . S
H621 C635 0.929 . S
H622 C636 0.931 . S
H623 C638 0.930 . S
C624 H612 0.930 . S
C624 C625 1.399 . S
C624 C629 1.399 . S
C625 C624 1.399 . S
C625 C626 1.376 . S
C626 H613 0.930 . S
C626 C625 1.376 . S
C626 C627 1.388 . S
C627 H614 0.930 . S
C627 C626 1.388 . S
C627 C628 1.390 . S
C628 C627 1.390 . S
C628 C629 1.394 . S
C628 C634 1.465 . S
C629 C624 1.399 . S
C629 C628 1.394 . S
C629 C630 1.516 . S
C630 C629 1.516 . S
C630 C631 1.502 . S
C630 C632 1.561 . S
C630 C633 1.526 . S
C631 H615 0.959 . S
C631 H616 0.959 . S
C631 H617 0.961 . S
C631 C630 1.502 . S
C632 H618 0.960 . S
C632 H619 0.961 . S
C632 H620 0.959 . S
C632 C630 1.561 . S
C633 C630 1.526 . S
C633 C634 1.396 . S
C633 C638 1.390 . S
C634 C628 1.465 . S
C634 C633 1.396 . S
C634 C635 1.399 . S
C635 H621 0.929 . S
C635 C634 1.399 . S
C635 C636 1.385 . S
C636 H622 0.931 . S
C636 C635 1.385 . S
C636 C637 1.389 . S
C637 C636 1.389 . S
C637 C638 1.387 . S
C638 H623 0.930 . S
C638 C633 1.390 . S
C638 C637 1.387 . S
H639 C651 0.930 . S
H640 C653 0.930 . S
H641 C654 0.930 . S
H642 C658 0.959 . S
H643 C658 0.959 . S
H644 C658 0.961 . S
H645 C659 0.960 . S
H646 C659 0.961 . S
H647 C659 0.959 . S
H648 C662 0.929 . S
H649 C663 0.931 . S
H650 C665 0.930 . S
C651 H639 0.930 . S
C651 C652 1.399 1_455 S
C651 C656 1.399 . S
C652 C651 1.399 1_655 S
C652 C653 1.376 . S
C653 H640 0.930 . S
C653 C652 1.376 . S
C653 C654 1.388 . S
C654 H641 0.930 . S
C654 C653 1.388 . S
C654 C655 1.390 . S
C655 C654 1.390 . S
C655 C656 1.394 1_655 S
C655 C661 1.465 . S
C656 C651 1.399 . S
C656 C655 1.394 1_455 S
C656 C657 1.516 . S
C657 C656 1.516 . S
C657 C658 1.502 . S
C657 C659 1.561 . S
C657 C660 1.526 . S
C658 H642 0.959 . S
C658 H643 0.959 . S
C658 H644 0.961 . S
C658 C657 1.502 . S
C659 H645 0.960 . S
C659 H646 0.961 . S
C659 H647 0.959 . S
C659 C657 1.561 . S
C660 C657 1.526 . S
C660 C661 1.396 1_455 S
C660 C665 1.390 . S
C661 C655 1.465 . S
C661 C660 1.396 1_655 S
C661 C662 1.399 . S
C662 H648 0.929 . S
C662 C661 1.399 . S
C662 C663 1.385 . S
C663 H649 0.931 . S
C663 C662 1.385 . S
C663 C664 1.389 1_655 S
C664 C663 1.389 1_455 S
C664 C665 1.387 . S
C665 H650 0.930 . S
C665 C660 1.390 . S
C665 C664 1.387 . S
H666 C678 0.930 . S
H667 C680 0.930 . S
H668 C681 0.930 . S
H669 C685 0.959 . S
H670 C685 0.959 . S
H671 C685 0.961 . S
H672 C686 0.960 . S
H673 C686 0.961 . S
H674 C686 0.959 . S
H675 C689 0.929 . S
H676 C690 0.931 1_565 S
H677 C692 0.930 . S
C678 H666 0.930 . S
C678 C679 1.386 1_545 S
C678 C683 1.399 . S
C679 C678 1.386 1_565 S
C679 C680 1.397 . S
C680 H667 0.930 . S
C680 C679 1.397 . S
C680 C681 1.388 . S
C681 H668 0.930 . S
C681 C680 1.388 . S
C681 C682 1.390 1_565 S
C682 C681 1.390 1_545 S
C682 C683 1.394 . S
C682 C688 1.465 . S
C683 C678 1.399 . S
C683 C682 1.394 . S
C683 C684 1.516 . S
C684 C683 1.516 . S
C684 C685 1.502 . S
C684 C686 1.561 . S
C684 C687 1.526 . S
C685 H669 0.959 . S
C685 H670 0.959 . S
C685 H671 0.961 . S
C685 C684 1.502 . S
C686 H672 0.960 . S
C686 H673 0.961 . S
C686 H674 0.959 . S
C686 C684 1.561 . S
C687 C684 1.526 . S
C687 C688 1.396 . S
C687 C692 1.390 . S
C688 C682 1.465 . S
C688 C687 1.396 . S
C688 C689 1.399 1_545 S
C689 H675 0.929 . S
C689 C688 1.399 1_565 S
C689 C690 1.385 1_565 S
C690 H676 0.931 1_545 S
C690 C689 1.385 1_545 S
C690 C691 1.389 . S
C691 C690 1.389 . S
C691 C692 1.387 . S
C692 H677 0.930 . S
C692 C687 1.390 . S
C692 C691 1.387 . S
H693 C705 0.930 . S
H694 C707 0.930 . S
H695 C708 0.930 . S
H696 C712 0.959 . S
H697 C712 0.959 . S
H698 C712 0.961 . S
H699 C713 0.960 . S
H700 C713 0.961 . S
H701 C713 0.959 . S
H702 C716 0.929 . S
H703 C717 0.931 . S
H704 C719 0.930 . S
C705 H693 0.930 . S
C705 C706 1.399 . S
C705 C710 1.399 . S
C706 C705 1.399 . S
C706 C707 1.376 . S
C707 H694 0.930 . S
C707 C706 1.376 . S
C707 C708 1.388 . S
C708 H695 0.930 . S
C708 C707 1.388 . S
C708 C709 1.390 . S
C709 C708 1.390 . S
C709 C710 1.394 . S
C709 C715 1.465 . S
C710 C705 1.399 . S
C710 C709 1.394 . S
C710 C711 1.516 . S
C711 C710 1.516 . S
C711 C712 1.502 . S
C711 C713 1.561 . S
C711 C714 1.526 . S
C712 H696 0.959 . S
C712 H697 0.959 . S
C712 H698 0.961 . S
C712 C711 1.502 . S
C713 H699 0.960 . S
C713 H700 0.961 . S
C713 H701 0.959 . S
C713 C711 1.561 . S
C714 C711 1.526 . S
C714 C715 1.396 . S
C714 C719 1.390 . S
C715 C709 1.465 . S
C715 C714 1.396 . S
C715 C716 1.399 . S
C716 H702 0.929 . S
C716 C715 1.399 . S
C716 C717 1.385 . S
C717 H703 0.931 . S
C717 C716 1.385 . S
C717 C718 1.389 . S
C718 C717 1.389 . S
C718 C719 1.387 . S
C719 H704 0.930 . S
C719 C714 1.390 . S
C719 C718 1.387 . S
H720 C732 0.930 . S
H721 C734 0.930 . S
H722 C735 0.930 . S
H723 C739 0.959 . S
H724 C739 0.959 . S
H725 C739 0.961 . S
H726 C740 0.960 . S
H727 C740 0.961 . S
H728 C740 0.959 . S
H729 C743 0.929 . S
H730 C744 0.931 . S
H731 C746 0.930 1_655 S
C732 H720 0.930 . S
C732 C733 1.399 . S
C732 C737 1.399 . S
C733 C732 1.399 . S
C733 C734 1.376 . S
C734 H721 0.930 . S
C734 C733 1.376 . S
C734 C735 1.388 . S
C735 H722 0.930 . S
C735 C734 1.388 . S
C735 C736 1.390 . S
C736 C735 1.390 . S
C736 C737 1.394 . S
C736 C742 1.465 . S
C737 C732 1.399 . S
C737 C736 1.394 . S
C737 C738 1.516 . S
C738 C737 1.516 . S
C738 C739 1.502 1_455 S
C738 C740 1.561 . S
C738 C741 1.526 . S
C739 H723 0.959 . S
C739 H724 0.959 . S
C739 H725 0.961 . S
C739 C738 1.502 1_655 S
C740 H726 0.960 . S
C740 H727 0.961 . S
C740 H728 0.959 . S
C740 C738 1.561 . S
C741 C738 1.526 . S
C741 C742 1.396 . S
C741 C746 1.390 . S
C742 C736 1.465 . S
C742 C741 1.396 . S
C742 C743 1.399 . S
C743 H729 0.929 . S
C743 C742 1.399 . S
C743 C744 1.385 . S
C744 H730 0.931 . S
C744 C743 1.385 . S
C744 C745 1.389 . S
C745 C744 1.389 . S
C745 C746 1.387 . S
C746 H731 0.930 1_455 S
C746 C741 1.390 . S
C746 C745 1.387 . S
C448 C286 1.440 . S
C436 C29 1.441 . S
C463 C137 1.481 . S
C475 C356 1.463 . S
C490 C225 1.475 . S
C502 C408 1.488 . S
C517 C49 1.445 . S
C529 C302 1.503 . S
C556 C346 1.440 . S
C544 C117 1.432 . S
C571 C205 1.435 . S
C583 C392 1.449 . S
C610 C339 1.448 . S
C598 C233 1.408 . S
C625 C57 1.405 . S
C637 C399 1.450 . S
C664 C293 1.435 . S
C652 C108 1.443 . S
C691 C355 1.471 . S
C679 C196 1.484 1_565 S
C718 C409 1.496 . S
C706 C20 1.435 . S
C733 C145 1.488 . S
C745 C303 1.470 . S
