# Generated by pormake.
# Topology anh, (6,3)-cn, num edge types: 1
# Building blocks:
#     Node 0, Type 0, BuildingBlock: VOLQOD_clean_sbu_1, # of connection points: 6
#     Node 1, Type 0, BuildingBlock: VOLQOD_clean_sbu_1, # of connection points: 6
#     Node 2, Type 0, BuildingBlock: VOLQOD_clean_sbu_1, # of connection points: 6
#     Node 3, Type 1, BuildingBlock: WUSLED_clean_sbu_0, # of connection points: 3
#     Node 4, Type 1, BuildingBlock: WUSLED_clean_sbu_0, # of connection points: 3
#     Node 5, Type 1, BuildingBlock: WUSLED_clean_sbu_0, # of connection points: 3
#     Node 6, Type 1, BuildingBlock: WUSLED_clean_sbu_0, # of connection points: 3
#     Node 7, Type 1, BuildingBlock: WUSLED_clean_sbu_0, # of connection points: 3
#     Node 8, Type 1, BuildingBlock: WUSLED_clean_sbu_0, # of connection points: 3
#     Edge 9, Type (0, 1), BuildingBlock: AJUNOK_clean_linker_0, # of connection points: 2
#     Edge 10, Type (0, 1), BuildingBlock: AJUNOK_clean_linker_0, # of connection points: 2
#     Edge 11, Type (0, 1), BuildingBlock: AJUNOK_clean_linker_0, # of connection points: 2
#     Edge 12, Type (0, 1), BuildingBlock: AJUNOK_clean_linker_0, # of connection points: 2
#     Edge 13, Type (0, 1), BuildingBlock: AJUNOK_clean_linker_0, # of connection points: 2
#     Edge 14, Type (0, 1), BuildingBlock: AJUNOK_clean_linker_0, # of connection points: 2
#     Edge 15, Type (0, 1), BuildingBlock: AJUNOK_clean_linker_0, # of connection points: 2
#     Edge 16, Type (0, 1), BuildingBlock: AJUNOK_clean_linker_0, # of connection points: 2
#     Edge 17, Type (0, 1), BuildingBlock: AJUNOK_clean_linker_0, # of connection points: 2
#     Edge 18, Type (0, 1), BuildingBlock: AJUNOK_clean_linker_0, # of connection points: 2
#     Edge 19, Type (0, 1), BuildingBlock: AJUNOK_clean_linker_0, # of connection points: 2
#     Edge 20, Type (0, 1), BuildingBlock: AJUNOK_clean_linker_0, # of connection points: 2
#     Edge 21, Type (0, 1), BuildingBlock: AJUNOK_clean_linker_0, # of connection points: 2
#     Edge 22, Type (0, 1), BuildingBlock: AJUNOK_clean_linker_0, # of connection points: 2
#     Edge 23, Type (0, 1), BuildingBlock: AJUNOK_clean_linker_0, # of connection points: 2
#     Edge 24, Type (0, 1), BuildingBlock: AJUNOK_clean_linker_0, # of connection points: 2
#     Edge 25, Type (0, 1), BuildingBlock: AJUNOK_clean_linker_0, # of connection points: 2
#     Edge 26, Type (0, 1), BuildingBlock: AJUNOK_clean_linker_0, # of connection points: 2
# Relax obj value: 0.164
# Max RMSD: 0.228
# Mean RMSD: 0.110
data_MOF--net-anh--node1-VOLQOD_clean_sbu_1--node2-WUSLED_clean_sbu_0--edge1-AJUNOK_clean_linker_0
_symmetry_space_group_name_H-M    P1
_symmetry_Int_Tables_number       1
_symmetry_cell_setting            triclinic
loop_
_symmetry_equiv_pos_as_xyz
'x, y, z'
_cell_length_a     29.510534
_cell_length_b     29.345065
_cell_length_c     62.849557
_cell_angle_alpha  89.751626
_cell_angle_beta   90.130462
_cell_angle_gamma 120.28598
loop_
_atom_site_label
_atom_site_type_symbol
_atom_site_fract_x
_atom_site_fract_y
_atom_site_fract_z
_atom_type_partial_charge
O0 O 0.99111 0.53304 0.22209 0.0
Zn1 Zn 0.99752 0.56125 0.19212 0.0
O2 O 1.00775 0.51648 0.172 0.0
Zn3 Zn 0.94823 0.48293 0.15334 0.0
Zn4 Zn 0.01452 0.46168 0.18726 0.0
Zn5 Zn 0.06847 0.55917 0.15407 0.0
O6 O 0.96886 0.48788 0.12283 0.0
O7 O 0.04946 0.55697 0.12263 0.0
O8 O 0.9336 0.56807 0.18438 0.0
O9 O 0.9063 0.51856 0.15526 0.0
O10 O 0.90066 0.40771 0.16172 0.0
O11 O 0.94784 0.39004 0.18416 0.0
O12 O 0.07916 0.45918 0.17701 0.0
O13 O 0.0629 0.63351 0.19253 0.0
O14 O 0.11592 0.52931 0.15562 0.0
O15 O 0.11096 0.63337 0.16544 0.0
C16 C 1.0049 0.50218 0.23047 0.0
C17 C 1.00894 0.52227 0.11269 0.0
C18 C 0.90534 0.37567 0.17396 0.0
C19 C 0.90307 0.54968 0.16834 0.0
C20 C 0.11627 0.49056 0.16463 0.0
C21 C 0.10444 0.65657 0.18125 0.0
O22 O 0.01934 0.47604 0.21895 0.0
O23 O 0.49348 0.04044 0.45975 0.0
Zn24 Zn 0.46658 0.02746 0.49019 0.0
O25 O 0.51185 0.0123 0.50813 0.0
Zn26 Zn 0.54975 0.06826 0.52817 0.0
Zn27 Zn 0.56346 1.00597 0.491 0.0
Zn28 Zn 0.46888 0.94876 0.52459 0.0
O29 O 0.54751 0.04062 0.55771 0.0
O30 O 0.47434 0.96258 0.55644 0.0
O31 O 0.46122 0.08984 0.50212 0.0
O32 O 0.51469 0.11054 0.53 0.0
O33 O 0.62412 0.11761 0.51862 0.0
O34 O 0.63578 0.07118 0.49381 0.0
O35 O 0.56429 0.93829 0.49818 0.0
O36 O 0.39403 0.962 0.48857 0.0
O37 O 0.49545 0.89932 0.51991 0.0
O38 O 0.39421 0.90926 0.51391 0.0
C39 C 0.5221 0.026 0.45001 0.0
C40 C 0.51181 0.99946 0.567 0.0
C41 C 0.65309 0.11318 0.50476 0.0
C42 C 0.48221 0.11687 0.5189 0.0
C43 C 0.53246 0.89914 0.50967 0.0
C44 C 0.37093 0.91851 0.49885 0.0
O45 O 0.54643 1.00692 0.46005 0.0
O46 O 0.47977 0.49385 0.79115 0.0
Zn47 Zn 0.46129 0.46677 0.82159 0.0
O48 O 0.52004 0.51299 0.84047 0.0
Zn49 Zn 0.5006 0.55041 0.86044 0.0
Zn50 Zn 0.58064 0.56524 0.82392 0.0
Zn51 Zn 0.53842 0.46939 0.85723 0.0
O52 O 0.51104 0.53724 0.89131 0.0
O53 O 0.52256 0.46858 0.88843 0.0
O54 O 0.39345 0.46474 0.83088 0.0
O55 O 0.42493 0.52504 0.85661 0.0
O56 O 0.53604 0.62796 0.85385 0.0
O57 O 0.58914 0.63832 0.82703 0.0
O58 O 0.64817 0.56548 0.8324 0.0
O59 O 0.45166 0.3927 0.8207 0.0
O60 O 0.61508 0.49864 0.85526 0.0
O61 O 0.50623 0.39598 0.84568 0.0
C62 C 0.52362 0.52374 0.78194 0.0
C63 C 0.51602 0.50052 0.89987 0.0
C64 C 0.56871 0.65692 0.83965 0.0
C65 C 0.38723 0.49226 0.84504 0.0
C66 C 0.65401 0.53494 0.84526 0.0
C67 C 0.47324 0.37105 0.831 0.0
O68 O 0.56584 0.54941 0.79265 0.0
C69 C 0.61368 0.10326 0.21222 0.0
C70 C 0.62784 0.15618 0.21562 0.0
C71 C 0.71222 0.18637 0.19855 0.0
C72 C 0.67645 0.19719 0.20878 0.0
C73 C 0.69863 0.13365 0.19538 0.0
C74 C 0.64963 0.09243 0.20206 0.0
U75 U 0.51427 0.02386 0.25557 0.0
O76 O 0.42954 0.99417 0.25763 0.0
O77 O 0.45872 0.93865 0.25891 0.0
C78 C 0.41739 0.94445 0.25756 0.0
C79 C 0.56157 0.0594 0.21888 0.0
C80 C 0.3749 0.90872 0.24283 0.0
C81 C 0.2944 0.88544 0.22344 0.0
C82 C 0.33738 0.9214 0.23561 0.0
C83 C 0.32585 0.82366 0.22513 0.0
C84 C 0.28772 0.83583 0.2184 0.0
C85 C 0.36879 0.85954 0.2373 0.0
C86 C 0.55688 0.06478 0.31347 0.0
C87 C 0.50294 0.01868 0.34418 0.0
C88 C 0.59058 0.09337 0.34915 0.0
C89 C 0.59706 0.09935 0.32712 0.0
C90 C 0.54379 0.0525 0.35791 0.0
C91 C 0.50951 0.02465 0.32207 0.0
C92 C 0.56599 0.07045 0.29041 0.0
O93 O 0.56148 0.02023 0.22917 0.0
O94 O 0.52906 0.07292 0.22707 0.0
O95 O 0.53837 0.08638 0.27955 0.0
O96 O 0.56862 0.03178 0.28116 0.0
H97 H 0.60133 0.16614 0.22344 0.0
H98 H 0.68617 0.23757 0.21148 0.0
H99 H 0.72541 0.12439 0.18733 0.0
H100 H 0.63964 0.05206 0.19915 0.0
H101 H 0.26598 0.89615 0.21823 0.0
H102 H 0.34052 0.95869 0.23972 0.0
H103 H 0.32148 0.78553 0.22162 0.0
H104 H 0.39645 0.84811 0.24282 0.0
H105 H 0.46649 0.98692 0.35055 0.0
H106 H 0.62227 0.1206 0.35937 0.0
H107 H 0.63377 0.13069 0.32073 0.0
H108 H 0.47806 0.99763 0.31171 0.0
C109 C 0.53648 0.61733 0.5422 0.0
C110 C 0.55893 0.66255 0.55506 0.0
C111 C 0.54468 0.71173 0.52717 0.0
C112 C 0.56329 0.70956 0.54753 0.0
C113 C 0.52369 0.66685 0.51414 0.0
C114 C 0.51968 0.62002 0.5216 0.0
U115 U 0.51794 0.52414 0.58818 0.0
O116 O 0.46307 0.43891 0.59145 0.0
O117 O 0.54813 0.46978 0.5926 0.0
C118 C 0.50098 0.42774 0.592 0.0
C119 C 0.52776 0.56648 0.55037 0.0
C120 C 0.49501 0.38425 0.57833 0.0
C121 C 0.4522 0.32069 0.54973 0.0
C122 C 0.45943 0.36481 0.5612 0.0
C123 C 0.51702 0.31623 0.57195 0.0
C124 C 0.48042 0.29554 0.55525 0.0
C125 C 0.5241 0.35995 0.58338 0.0
C126 C 0.52378 0.56854 0.6456 0.0
C127 C 0.5034 0.50901 0.67574 0.0
C128 C 0.54356 0.60313 0.68156 0.0
C129 C 0.54351 0.6113 0.65963 0.0
C130 C 0.52396 0.55198 0.68983 0.0
C131 C 0.50358 0.51726 0.65376 0.0
C132 C 0.52586 0.57831 0.62253 0.0
O133 O 0.56717 0.56793 0.56077 0.0
O134 O 0.48218 0.53675 0.55967 0.0
O135 O 0.4816 0.55019 0.61212 0.0
O136 O 0.56659 0.58146 0.6127 0.0
H137 H 0.57184 0.66112 0.57107 0.0
H138 H 0.57916 0.74355 0.55792 0.0
H139 H 0.50928 0.66771 0.49836 0.0
H140 H 0.50227 0.5855 0.51148 0.0
H141 H 0.4235 0.30534 0.53702 0.0
H142 H 0.43651 0.38294 0.55694 0.0
H143 H 0.5398 0.29805 0.57639 0.0
H144 H 0.55175 0.37425 0.59648 0.0
H145 H 0.48811 0.46922 0.68172 0.0
H146 H 0.55879 0.63684 0.69208 0.0
H147 H 0.55917 0.65112 0.65361 0.0
H148 H 0.48839 0.48374 0.64313 0.0
C149 C 0.94942 0.55689 0.8752 0.0
C150 C 0.91609 0.55686 0.89107 0.0
C151 C 0.85917 0.56101 0.86407 0.0
C152 C 0.87128 0.55884 0.88555 0.0
C153 C 0.89401 0.56388 0.84823 0.0
C154 C 0.93886 0.56159 0.85378 0.0
U155 U 0.02714 0.53587 0.91787 0.0
O156 O 0.05452 0.47884 0.92007 0.0
O157 O 0.11141 0.56393 0.92131 0.0
C158 C 0.10427 0.51599 0.9202 0.0
C159 C 0.99266 0.54805 0.88098 0.0
C160 C 0.13977 0.50933 0.90569 0.0
C161 C 0.15633 0.46703 0.87577 0.0
C162 C 0.12111 0.4732 0.88871 0.0
C163 C 0.22889 0.53321 0.8965 0.0
C164 C 0.21058 0.49714 0.87957 0.0
C165 C 0.19389 0.53909 0.90943 0.0
C166 C 0.98894 0.54006 0.97584 0.0
C167 C 0.03862 0.53862 1.00653 0.0
C168 C 0.95388 0.53159 0.01145 0.0
C169 C 0.94921 0.53508 0.98947 0.0
C170 C 0.9984 0.53289 0.0202 0.0
C171 C 0.03381 0.54191 0.98446 0.0
C172 C 0.98279 0.54363 0.95278 0.0
O173 O 0.03204 0.58702 0.89114 0.0
O174 O 0.97756 0.50168 0.88961 0.0
O175 O 0.9651 0.49936 0.94216 0.0
O176 O 0.02168 0.58439 0.94315 0.0
H177 H 0.92372 0.55334 0.9077 0.0
H178 H 0.84495 0.55671 0.89801 0.0
H179 H 0.88516 0.56521 0.83158 0.0
H180 H 0.96423 0.56163 0.84134 0.0
H181 H 0.1413 0.43925 0.86273 0.0
H182 H 0.07947 0.44971 0.88544 0.0
H183 H 0.27049 0.55653 0.89991 0.0
H184 H 0.20916 0.56682 0.92251 0.0
H185 H 0.07328 0.5397 0.0129 0.0
H186 H 0.92274 0.52812 0.02165 0.0
H187 H 0.91449 0.53391 0.98309 0.0
H188 H 0.06492 0.54579 0.97413 0.0
C189 C 0.92672 0.40836 0.46847 0.0
C190 C 0.88941 0.3749 0.45353 0.0
C191 C 0.84389 0.30793 0.48094 0.0
C192 C 0.84825 0.3253 0.45972 0.0
C193 C 0.8817 0.3415 0.49579 0.0
C194 C 0.92277 0.39123 0.48959 0.0
U195 U 1.00691 0.50705 0.42525 0.0
O196 O 0.03527 0.592 0.4221 0.0
O197 O 0.09158 0.56394 0.42266 0.0
C198 C 0.0849 0.60495 0.422 0.0
C199 C 0.96941 0.4612 0.46216 0.0
C200 C 0.12084 0.65052 0.43513 0.0
C201 C 0.15222 0.69457 0.46922 0.0
C202 C 0.11668 0.65024 0.45739 0.0
C203 C 0.19593 0.73946 0.43664 0.0
C204 C 0.19208 0.73981 0.45893 0.0
C205 C 0.1606 0.69538 0.4249 0.0
C206 C 0.97334 0.46171 0.36726 0.0
C207 C 0.01301 0.51972 0.33676 0.0
C208 C 0.95555 0.42582 0.33148 0.0
C209 C 0.94829 0.41858 0.35347 0.0
C210 C 0.9882 0.4764 0.32288 0.0
C211 C 1.00584 0.5124 0.35881 0.0
C212 C 0.96512 0.45282 0.39033 0.0
O213 O 0.00998 0.46243 0.45297 0.0
O214 O 0.95435 0.49121 0.45251 0.0
O215 O 0.94695 0.47984 0.4001 0.0
O216 O 1.00306 0.45165 0.40083 0.0
H217 H 0.89175 0.38746 0.43713 0.0
H218 H 0.81913 0.30108 0.448 0.0
H219 H 0.87945 0.32928 0.51223 0.0
H220 H 0.95126 0.41646 0.50133 0.0
H221 H 0.14853 0.69357 0.48638 0.0
H222 H 0.08624 0.61582 0.46556 0.0
H223 H 0.22705 0.77294 0.42827 0.0
H224 H 0.16464 0.69617 0.40775 0.0
H225 H 0.03834 0.55912 0.33055 0.0
H226 H 0.93507 0.39188 0.32117 0.0
H227 H 0.92292 0.37922 0.35972 0.0
H228 H 0.02558 0.54618 0.36925 0.0
C229 C 0.53965 0.92586 0.80528 0.0
C230 C 0.58455 0.9254 0.79806 0.0
C231 C 0.56033 0.84577 0.81875 0.0
C232 C 0.59475 0.8858 0.80474 0.0
C233 C 0.51534 0.84622 0.82583 0.0
C234 C 0.50537 0.88598 0.81929 0.0
U235 U 0.51369 1.00012 0.7613 0.0
O236 O 0.45591 0.0264 0.75901 0.0
O237 O 0.54012 0.08447 0.75719 0.0
C238 C 0.49215 0.07654 0.75757 0.0
C239 C 0.5274 0.96681 0.79827 0.0
C240 C 0.48417 0.11404 0.77027 0.0
C241 C 0.46436 0.14313 0.80339 0.0
C242 C 0.4716 0.10618 0.79202 0.0
C243 C 0.48199 0.19568 0.77137 0.0
C244 C 0.46982 0.18851 0.79318 0.0
C245 C 0.4891 0.15887 0.76008 0.0
C246 C 0.52008 0.96279 0.70339 0.0
C247 C 0.48206 0.98112 0.67243 0.0
C248 C 0.55327 0.96341 0.66798 0.0
C249 C 0.55465 0.95691 0.68997 0.0
C250 C 0.51713 0.97579 0.65901 0.0
C251 C 0.48375 0.97505 0.69449 0.0
C252 C 0.52306 0.95624 0.72653 0.0
O253 O 0.56487 1.0081 0.78826 0.0
O254 O 0.48091 0.94912 0.78959 0.0
O255 O 0.47891 0.93746 0.73723 0.0
O256 O 0.56318 0.9955 0.73621 0.0
H257 H 0.61172 0.9554 0.78716 0.0
H258 H 0.62966 0.88654 0.79895 0.0
H259 H 0.4871 0.81517 0.83609 0.0
H260 H 0.47036 0.88519 0.825 0.0
H261 H 0.4543 0.1361 0.8201 0.0
H262 H 0.46743 0.07165 0.80015 0.0
H263 H 0.48702 0.23038 0.76309 0.0
H264 H 0.49877 0.16562 0.7433 0.0
H265 H 0.45394 0.99078 0.66587 0.0
H266 H 0.58024 0.95841 0.65795 0.0
H267 H 0.58287 0.94736 0.69651 0.0
H268 H 0.45685 0.98008 0.70455 0.0
C269 C 0.61202 0.53049 0.1372 0.0
C270 C 0.63893 0.51311 0.12425 0.0
C271 C 0.71387 0.55247 0.14833 0.0
C272 C 0.68903 0.52349 0.12987 0.0
C273 C 0.68688 0.57002 0.16124 0.0
C274 C 0.63634 0.55914 0.15569 0.0
U275 U 0.50885 0.50114 0.09508 0.0
O276 O 0.42435 0.44214 0.09457 0.0
O277 O 0.45088 0.52652 0.09129 0.0
C278 C 0.41072 0.47837 0.09353 0.0
C279 C 0.5587 0.5186 0.13146 0.0
C280 C 0.36946 0.47211 0.10842 0.0
C281 C 0.34126 0.50025 0.13952 0.0
C282 C 0.38152 0.50259 0.12698 0.0
C283 C 0.27654 0.43476 0.11583 0.0
C284 C 0.28837 0.46705 0.13384 0.0
C285 C 0.31677 0.43733 0.10323 0.0
C286 C 0.54787 0.50157 0.03678 0.0
C287 C 0.49722 0.50185 1.00623 0.0
C288 C 0.5731 0.49186 1.00108 0.0
C289 C 0.58141 0.49492 0.02305 0.0
C290 C 0.53092 0.49526 0.99242 0.0
C291 C 0.50548 0.50473 0.02827 0.0
C292 C 0.55896 0.50689 0.05976 0.0
O293 O 0.55607 0.55573 0.12072 0.0
O294 O 0.52783 0.47109 0.12378 0.0
O295 O 0.53361 0.46344 0.07111 0.0
O296 O 0.56079 0.54802 0.06885 0.0
H297 H 0.62096 0.49094 0.10989 0.0
H298 H 0.70792 0.50791 0.11992 0.0
H299 H 0.70491 0.59225 0.17558 0.0
H300 H 0.61619 0.57297 0.16586 0.0
H301 H 0.35143 0.52559 0.15331 0.0
H302 H 0.42197 0.52946 0.13137 0.0
H303 H 0.23624 0.40962 0.11081 0.0
H304 H 0.30671 0.41355 0.08897 0.0
H305 H 0.46445 0.50459 0.99997 0.0
H306 H 0.60033 0.48788 0.99081 0.0
H307 H 0.61453 0.49278 0.02933 0.0
H308 H 0.47916 0.50992 0.03865 0.0
C309 C 0.20959 0.52701 0.15417 0.0
C310 C 0.16117 0.48283 0.15993 0.0
C311 C 0.25127 0.52147 0.14686 0.0
C312 C 0.24619 0.47145 0.14479 0.0
H313 H 0.21501 0.56636 0.15476 0.0
H314 H 0.28694 0.55657 0.14182 0.0
S315 S 0.1295 0.34343 0.15948 0.0
N316 N 0.11182 0.38752 0.16451 0.0
N317 N 0.1904 0.37705 0.15054 0.0
C318 C 0.19889 0.42701 0.15136 0.0
C319 C 0.15641 0.43272 0.15907 0.0
C320 C 0.72413 0.20654 0.51186 0.0
C321 C 0.70542 0.16008 0.49977 0.0
C322 C 0.76964 0.25351 0.50602 0.0
C323 C 0.7985 0.25625 0.48778 0.0
H324 H 0.70263 0.20728 0.52569 0.0
H325 H 0.78121 0.28846 0.51546 0.0
S326 S 0.76994 0.1451 0.45169 0.0
N327 N 0.72196 0.11934 0.46933 0.0
N328 N 0.80767 0.20745 0.45859 0.0
C329 C 0.78169 0.20972 0.47602 0.0
C330 C 0.7353 0.16174 0.48197 0.0
C331 C 0.58648 0.73139 0.81488 0.0
C332 C 0.57595 0.71022 0.83564 0.0
C333 C 0.58327 0.77633 0.80973 0.0
C334 C 0.56974 0.80213 0.82515 0.0
H335 H 0.59438 0.71147 0.8022 0.0
H336 H 0.58904 0.78942 0.79331 0.0
S337 S 0.54743 0.76799 0.88258 0.0
N338 N 0.55728 0.72211 0.8722 0.0
N339 N 0.55255 0.80712 0.86263 0.0
C340 C 0.56268 0.78348 0.84625 0.0
C341 C 0.56553 0.73751 0.85147 0.0
C342 C 0.8231 0.55128 0.1803 0.0
C343 C 0.86118 0.56221 0.16464 0.0
C344 C 0.77647 0.55095 0.17523 0.0
C345 C 0.76676 0.56189 0.15437 0.0
H346 H 0.82772 0.53946 0.19614 0.0
H347 H 0.74663 0.53907 0.1874 0.0
S348 S 0.85917 0.6024 0.10883 0.0
N349 N 0.88927 0.59015 0.12828 0.0
N350 N 0.80296 0.59162 0.11892 0.0
C351 C 0.80674 0.57713 0.13912 0.0
C352 C 0.85361 0.57673 0.14421 0.0
C353 C 0.30147 0.82252 0.49803 0.0
C354 C 0.31944 0.87473 0.49111 0.0
C355 C 0.25856 0.77925 0.48829 0.0
C356 C 0.23174 0.78631 0.47123 0.0
H357 H 0.32229 0.81456 0.51036 0.0
H358 H 0.24811 0.73986 0.49343 0.0
S359 S 0.25682 0.91467 0.44938 0.0
N360 N 0.30257 0.93087 0.46771 0.0
N361 N 0.22178 0.84958 0.44964 0.0
C362 C 0.24682 0.83827 0.46514 0.0
C363 C 0.29057 0.88239 0.47502 0.0
C364 C 0.43575 0.29467 0.80555 0.0
C365 C 0.46563 0.31909 0.82389 0.0
C366 C 0.43542 0.25102 0.79631 0.0
C367 C 0.46474 0.22967 0.80503 0.0
H368 H 0.41407 0.31066 0.79766 0.0
H369 H 0.41315 0.23475 0.78182 0.0
S370 S 0.54639 0.27578 0.85385 0.0
N371 N 0.52248 0.31566 0.85132 0.0
N372 N 0.52232 0.23444 0.83368 0.0
C373 C 0.49257 0.25177 0.82396 0.0
C374 C 0.4929 0.2962 0.83344 0.0
C375 C 0.58532 0.85481 0.51548 0.0
C376 C 0.53683 0.8513 0.51129 0.0
C377 C 0.588 0.80933 0.52024 0.0
C378 C 0.54247 0.75903 0.52043 0.0
H379 H 0.6209 0.89301 0.51605 0.0
H380 H 0.62572 0.81354 0.5241 0.0
S381 S 0.4067 0.72882 0.5092 0.0
N382 N 0.44283 0.79357 0.50675 0.0
N383 N 0.44802 0.70842 0.51532 0.0
C384 C 0.49421 0.75503 0.51542 0.0
C385 C 0.49138 0.80112 0.51094 0.0
C386 C 0.75294 0.58615 0.84239 0.0
C387 C 0.70647 0.5406 0.84901 0.0
C388 C 0.80259 0.59255 0.84694 0.0
C389 C 0.80727 0.5538 0.85836 0.0
H390 H 0.75105 0.61744 0.83399 0.0
H391 H 0.83747 0.62841 0.8419 0.0
S392 S 0.69874 0.42496 0.87722 0.0
N393 N 0.66927 0.45415 0.86611 0.0
N394 N 0.76215 0.46704 0.8747 0.0
C395 C 0.76144 0.50758 0.86444 0.0
C396 C 0.71117 0.50076 0.85976 0.0
C397 C 0.20007 0.7252 0.18062 0.0
C398 C 0.14922 0.7079 0.18853 0.0
C399 C 0.24447 0.76784 0.18984 0.0
C400 C 0.23989 0.79539 0.20717 0.0
H401 H 0.2061 0.70416 0.16786 0.0
H402 H 0.28287 0.77847 0.18371 0.0
S403 S 0.11587 0.76957 0.23272 0.0
N404 N 0.09696 0.72469 0.21383 0.0
N405 N 0.18048 0.80452 0.23114 0.0
C406 C 0.18928 0.78054 0.21451 0.0
C407 C 0.14399 0.73693 0.2052 0.0
C408 C 0.46324 0.1599 0.54847 0.0
C409 C 0.46974 0.15683 0.52648 0.0
C410 C 0.46349 0.20355 0.55735 0.0
C411 C 0.47087 0.24631 0.54465 0.0
H412 H 0.4603 0.12927 0.55906 0.0
H413 H 0.46012 0.20485 0.57448 0.0
S414 S 0.48536 0.25569 0.48592 0.0
N415 N 0.47973 0.19814 0.49191 0.0
N416 N 0.48103 0.28121 0.50869 0.0
C417 C 0.47402 0.24234 0.52244 0.0
C418 C 0.47331 0.19732 0.51332 0.0
C419 C 0.33563 0.53648 0.84956 0.0
C420 C 0.33626 0.48899 0.84832 0.0
C421 C 0.29283 0.53792 0.85824 0.0
C422 C 0.24916 0.49197 0.86621 0.0
H423 H 0.36989 0.57339 0.8449 0.0
H424 H 0.29516 0.57581 0.85979 0.0
S425 S 0.22969 0.35687 0.86499 0.0
N426 N 0.28813 0.39428 0.85415 0.0
N427 N 0.20731 0.39685 0.87081 0.0
C428 C 0.24758 0.44353 0.86368 0.0
C429 C 0.29133 0.44208 0.85465 0.0
C430 C 0.80863 0.3139 0.17105 0.0
C431 C 0.85793 0.32336 0.17827 0.0
C432 C 0.76205 0.26877 0.17723 0.0
C433 C 0.76263 0.2307 0.19063 0.0
H434 H 0.80553 0.34254 0.16119 0.0
H435 H 0.72506 0.26412 0.17179 0.0
S436 S 0.88059 0.23345 0.21266 0.0
N437 N 0.9042 0.28859 0.19868 0.0
N438 N 0.81615 0.2033 0.21006 0.0
C439 C 0.81139 0.23795 0.19718 0.0
C440 C 0.85912 0.28438 0.19106 0.0
C441 C 0.04858 0.56324 0.07722 0.0
C442 C 1.00714 0.52258 0.08897 0.0
C443 C 0.04621 0.56569 0.05493 0.0
C444 C 1.00223 0.52781 0.04356 0.0
H445 H 0.08276 0.59398 0.08528 0.0
H446 H 0.07841 0.59829 0.04658 0.0
S447 S 0.88553 0.41057 0.06615 0.0
N448 N 0.92215 0.44137 0.08702 0.0
N449 N 0.91822 0.44648 0.04533 0.0
C450 C 0.96139 0.48613 0.05494 0.0
C451 C 0.96372 0.48338 0.07756 0.0
C452 C 0.49005 0.03583 0.41417 0.0
C453 C 0.52799 0.03218 0.42653 0.0
C454 C 0.49491 0.04157 0.39195 0.0
C455 C 0.53829 0.0447 0.38132 0.0
H456 H 0.4561 0.03387 0.42167 0.0
H457 H 0.46495 0.04443 0.38305 0.0
S458 S 0.64843 0.03698 0.4061 0.0
N459 N 0.61047 0.03201 0.42627 0.0
N460 N 0.61928 0.04267 0.38465 0.0
C461 C 0.57638 0.04096 0.39343 0.0
C462 C 0.5713 0.0347 0.41598 0.0
C463 C 0.47934 0.50072 0.74613 0.0
C464 C 0.5253 0.53 0.75832 0.0
C465 C 0.47938 0.50729 0.72397 0.0
C466 C 0.52523 0.54369 0.71313 0.0
H467 H 0.44276 0.47275 0.75373 0.0
H468 H 0.44294 0.4845 0.71532 0.0
S469 S 0.65681 0.62762 0.73697 0.0
N470 N 0.61876 0.59528 0.75735 0.0
N471 N 0.61835 0.60721 0.71585 0.0
C472 C 0.57164 0.57238 0.72493 0.0
C473 C 0.57181 0.56561 0.74746 0.0
C474 C 0.46857 0.95878 0.60188 0.0
C475 C 0.51397 0.99451 0.5905 0.0
C476 C 0.46963 0.95357 0.62408 0.0
C477 C 0.51627 0.98325 0.63568 0.0
H478 H 0.43178 0.93482 0.59363 0.0
H479 H 0.43388 0.92546 0.63218 0.0
S480 S 0.64571 0.08273 0.61382 0.0
N481 N 0.6069 0.0606 0.59282 0.0
N482 N 0.60857 0.05029 0.63441 0.0
C483 C 0.56182 0.01917 0.6246 0.0
C484 C 0.56073 0.02496 0.60206 0.0
C485 C 0.51481 0.53468 0.93638 0.0
C486 C 0.51634 0.4962 0.92352 0.0
C487 C 0.51815 0.53333 0.95864 0.0
C488 C 0.52334 0.4936 0.96897 0.0
H489 H 0.51202 0.5668 0.92923 0.0
H490 H 0.51815 0.56453 0.96781 0.0
S491 S 0.52426 0.38065 0.94317 0.0
N492 N 0.51996 0.415 0.9232 0.0
N493 N 0.52603 0.41276 0.96494 0.0
C494 C 0.52324 0.45397 0.95646 0.0
C495 C 0.51974 0.45517 0.93381 0.0
C496 C 0.99087 0.52771 0.26694 0.0
C497 C 1.00313 0.49609 0.25409 0.0
C498 C 0.98721 0.52186 0.28915 0.0
C499 C 0.99527 0.48392 0.29945 0.0
H500 H 0.98357 0.55708 0.25983 0.0
H501 H 0.97679 0.54646 0.2983 0.0
S502 S 0.03152 0.39329 0.27367 0.0
N503 N 0.02551 0.42668 0.25373 0.0
N504 N 0.01873 0.41612 0.29541 0.0
C505 C 1.00859 0.45277 0.28696 0.0
C506 C 0.01255 0.45879 0.26434 0.0
loop_
_geom_bond_atom_site_label_1
_geom_bond_atom_site_label_2
_geom_bond_distance
_geom_bond_site_symmetry_2
_ccdc_geom_bond_type
O0 Zn1 1.953 . S
O0 C16 1.225 1_655 S
Zn1 O0 1.953 . S
Zn1 O2 1.949 1_655 S
Zn1 O8 1.919 . S
Zn1 O13 1.924 1_655 S
O2 Zn1 1.949 1_455 S
O2 Zn3 1.923 1_455 S
O2 Zn4 1.950 . S
O2 Zn5 1.945 . S
Zn3 O2 1.923 1_655 S
Zn3 O6 1.933 . S
Zn3 O9 1.941 . S
Zn3 O10 1.965 . S
Zn4 O2 1.950 . S
Zn4 O11 1.938 1_455 S
Zn4 O12 1.906 . S
Zn4 O22 1.953 . S
Zn5 O2 1.945 . S
Zn5 O7 1.932 . S
Zn5 O14 1.977 . S
Zn5 O15 1.910 . S
O6 Zn3 1.933 . S
O6 C17 1.226 1_655 S
O7 Zn5 1.932 . S
O7 C17 1.307 . S
O8 Zn1 1.919 . S
O8 C19 1.253 . S
O9 Zn3 1.941 . S
O9 C19 1.283 . S
O10 Zn3 1.965 . S
O10 C18 1.303 . S
O11 Zn4 1.938 1_655 S
O11 C18 1.247 . S
O12 Zn4 1.906 . S
O12 C20 1.304 . S
O13 Zn1 1.924 1_455 S
O13 C21 1.311 . S
O14 Zn5 1.977 . S
O14 C20 1.272 . S
O15 Zn5 1.910 . S
O15 C21 1.231 . S
C16 O0 1.225 1_455 S
C16 O22 1.298 . S
C17 O6 1.226 1_455 S
C17 O7 1.307 . S
C18 O10 1.303 . S
C18 O11 1.247 . S
C19 O8 1.253 . S
C19 O9 1.283 . S
C20 O12 1.304 . S
C20 O14 1.272 . S
C21 O13 1.311 . S
C21 O15 1.231 . S
O22 Zn4 1.953 . S
O22 C16 1.298 . S
O23 Zn24 1.953 . S
O23 C39 1.225 . S
Zn24 O23 1.953 . S
Zn24 O25 1.949 . S
Zn24 O31 1.919 . S
Zn24 O36 1.924 1_545 S
O25 Zn24 1.949 . S
O25 Zn26 1.923 . S
O25 Zn27 1.950 1_545 S
O25 Zn28 1.945 1_545 S
Zn26 O25 1.923 . S
Zn26 O29 1.933 . S
Zn26 O32 1.941 . S
Zn26 O33 1.965 . S
Zn27 O25 1.950 1_565 S
Zn27 O34 1.938 1_565 S
Zn27 O35 1.906 . S
Zn27 O45 1.953 . S
Zn28 O25 1.945 1_565 S
Zn28 O30 1.932 . S
Zn28 O37 1.977 . S
Zn28 O38 1.910 . S
O29 Zn26 1.933 . S
O29 C40 1.226 . S
O30 Zn28 1.932 . S
O30 C40 1.307 1_565 S
O31 Zn24 1.919 . S
O31 C42 1.253 . S
O32 Zn26 1.941 . S
O32 C42 1.283 . S
O33 Zn26 1.965 . S
O33 C41 1.303 . S
O34 Zn27 1.938 1_545 S
O34 C41 1.247 . S
O35 Zn27 1.906 . S
O35 C43 1.304 . S
O36 Zn24 1.924 1_565 S
O36 C44 1.311 . S
O37 Zn28 1.977 . S
O37 C43 1.272 . S
O38 Zn28 1.910 . S
O38 C44 1.231 . S
C39 O23 1.225 . S
C39 O45 1.298 1_545 S
C40 O29 1.226 . S
C40 O30 1.307 1_545 S
C41 O33 1.303 . S
C41 O34 1.247 . S
C42 O31 1.253 . S
C42 O32 1.283 . S
C43 O35 1.304 . S
C43 O37 1.272 . S
C44 O36 1.311 . S
C44 O38 1.231 . S
O45 Zn27 1.953 . S
O45 C39 1.298 1_565 S
O46 Zn47 1.953 . S
O46 C62 1.225 . S
Zn47 O46 1.953 . S
Zn47 O48 1.949 . S
Zn47 O54 1.919 . S
Zn47 O59 1.924 . S
O48 Zn47 1.949 . S
O48 Zn49 1.923 . S
O48 Zn50 1.950 . S
O48 Zn51 1.945 . S
Zn49 O48 1.923 . S
Zn49 O52 1.933 . S
Zn49 O55 1.941 . S
Zn49 O56 1.965 . S
Zn50 O48 1.950 . S
Zn50 O57 1.938 . S
Zn50 O58 1.906 . S
Zn50 O68 1.953 . S
Zn51 O48 1.945 . S
Zn51 O53 1.932 . S
Zn51 O60 1.977 . S
Zn51 O61 1.910 . S
O52 Zn49 1.933 . S
O52 C63 1.226 . S
O53 Zn51 1.932 . S
O53 C63 1.307 . S
O54 Zn47 1.919 . S
O54 C65 1.253 . S
O55 Zn49 1.941 . S
O55 C65 1.283 . S
O56 Zn49 1.965 . S
O56 C64 1.303 . S
O57 Zn50 1.938 . S
O57 C64 1.247 . S
O58 Zn50 1.906 . S
O58 C66 1.304 . S
O59 Zn47 1.924 . S
O59 C67 1.311 . S
O60 Zn51 1.977 . S
O60 C66 1.272 . S
O61 Zn51 1.910 . S
O61 C67 1.231 . S
C62 O46 1.225 . S
C62 O68 1.298 . S
C63 O52 1.226 . S
C63 O53 1.307 . S
C64 O56 1.303 . S
C64 O57 1.247 . S
C65 O54 1.253 . S
C65 O55 1.283 . S
C66 O58 1.304 . S
C66 O60 1.272 . S
C67 O59 1.311 . S
C67 O61 1.231 . S
O68 Zn50 1.953 . S
O68 C62 1.298 . S
C69 C70 1.264 . S
C69 C74 1.479 . S
C69 C79 1.465 . S
C70 C69 1.264 . S
C70 C72 1.339 . S
C70 H97 0.931 . S
C71 C72 1.395 . S
C71 C73 1.320 . S
C72 C70 1.339 . S
C72 C71 1.395 . S
C72 H98 0.929 . S
C73 C71 1.320 . S
C73 C74 1.405 . S
C73 H99 0.930 . S
C74 C69 1.479 . S
C74 C73 1.405 . S
C74 H100 0.931 . S
U75 O76 2.454 1_545 S
U75 O77 2.458 1_545 S
U75 C78 2.984 1_545 S
U75 C79 2.847 . S
U75 C92 2.882 . S
U75 O93 2.441 . S
U75 O94 2.420 . S
U75 O95 2.455 1_545 S
U75 O96 2.449 . S
O76 U75 2.454 1_565 S
O76 C78 1.353 . S
O77 U75 2.458 1_565 S
O77 C78 1.286 . S
C78 U75 2.984 1_565 S
C78 O76 1.353 . S
C78 O77 1.286 . S
C78 C80 1.363 . S
C79 C69 1.465 . S
C79 U75 2.847 . S
C79 O93 1.249 . S
C79 O94 1.202 . S
C80 C78 1.363 . S
C80 C82 1.408 . S
C80 C85 1.342 . S
C81 C82 1.310 . S
C81 C84 1.461 . S
C81 H101 0.932 . S
C82 C80 1.408 . S
C82 C81 1.310 . S
C82 H102 0.930 . S
C83 C84 1.474 . S
C83 C85 1.285 . S
C83 H103 0.929 . S
C84 C81 1.461 . S
C84 C83 1.474 . S
C85 C80 1.342 . S
C85 C83 1.285 . S
C85 H104 0.930 . S
C86 C89 1.424 . S
C86 C91 1.245 1_545 S
C86 C92 1.428 . S
C87 C90 1.260 1_565 S
C87 C91 1.477 . S
C87 H105 0.932 . S
C88 C89 1.384 . S
C88 C90 1.479 . S
C88 H106 0.929 . S
C89 C86 1.424 . S
C89 C88 1.384 . S
C89 H107 0.928 . S
C90 C87 1.260 1_545 S
C90 C88 1.479 . S
C91 C86 1.245 1_565 S
C91 C87 1.477 . S
C91 H108 0.932 . S
C92 U75 2.882 . S
C92 C86 1.428 . S
C92 O95 1.301 1_545 S
C92 O96 1.282 . S
O93 U75 2.441 . S
O93 C79 1.249 . S
O94 U75 2.420 . S
O94 C79 1.202 . S
O95 U75 2.455 1_565 S
O95 C92 1.301 1_565 S
O96 U75 2.449 . S
O96 C92 1.282 . S
H97 C70 0.931 . S
H98 C72 0.929 . S
H99 C73 0.930 . S
H100 C74 0.931 . S
H101 C81 0.932 . S
H102 C82 0.930 . S
H103 C83 0.929 . S
H104 C85 0.930 . S
H105 C87 0.932 . S
H106 C88 0.929 . S
H107 C89 0.928 . S
H108 C91 0.932 . S
C109 C110 1.264 . S
C109 C114 1.479 . S
C109 C119 1.465 . S
C110 C109 1.264 . S
C110 C112 1.339 . S
C110 H137 0.931 . S
C111 C112 1.395 . S
C111 C113 1.320 . S
C112 C110 1.339 . S
C112 C111 1.395 . S
C112 H138 0.929 . S
C113 C111 1.320 . S
C113 C114 1.405 . S
C113 H139 0.930 . S
C114 C109 1.479 . S
C114 C113 1.405 . S
C114 H140 0.931 . S
U115 O116 2.454 . S
U115 O117 2.458 . S
U115 C118 2.984 . S
U115 C119 2.847 . S
U115 C132 2.882 . S
U115 O133 2.441 . S
U115 O134 2.420 . S
U115 O135 2.455 . S
U115 O136 2.449 . S
O116 U115 2.454 . S
O116 C118 1.353 . S
O117 U115 2.458 . S
O117 C118 1.286 . S
C118 U115 2.984 . S
C118 O116 1.353 . S
C118 O117 1.286 . S
C118 C120 1.363 . S
C119 C109 1.465 . S
C119 U115 2.847 . S
C119 O133 1.249 . S
C119 O134 1.202 . S
C120 C118 1.363 . S
C120 C122 1.408 . S
C120 C125 1.342 . S
C121 C122 1.310 . S
C121 C124 1.461 . S
C121 H141 0.932 . S
C122 C120 1.408 . S
C122 C121 1.310 . S
C122 H142 0.930 . S
C123 C124 1.474 . S
C123 C125 1.285 . S
C123 H143 0.929 . S
C124 C121 1.461 . S
C124 C123 1.474 . S
C125 C120 1.342 . S
C125 C123 1.285 . S
C125 H144 0.930 . S
C126 C129 1.424 . S
C126 C131 1.245 . S
C126 C132 1.428 . S
C127 C130 1.260 . S
C127 C131 1.477 . S
C127 H145 0.932 . S
C128 C129 1.384 . S
C128 C130 1.479 . S
C128 H146 0.929 . S
C129 C126 1.424 . S
C129 C128 1.384 . S
C129 H147 0.928 . S
C130 C127 1.260 . S
C130 C128 1.479 . S
C131 C126 1.245 . S
C131 C127 1.477 . S
C131 H148 0.932 . S
C132 U115 2.882 . S
C132 C126 1.428 . S
C132 O135 1.301 . S
C132 O136 1.282 . S
O133 U115 2.441 . S
O133 C119 1.249 . S
O134 U115 2.420 . S
O134 C119 1.202 . S
O135 U115 2.455 . S
O135 C132 1.301 . S
O136 U115 2.449 . S
O136 C132 1.282 . S
H137 C110 0.931 . S
H138 C112 0.929 . S
H139 C113 0.930 . S
H140 C114 0.931 . S
H141 C121 0.932 . S
H142 C122 0.930 . S
H143 C123 0.929 . S
H144 C125 0.930 . S
H145 C127 0.932 . S
H146 C128 0.929 . S
H147 C129 0.928 . S
H148 C131 0.932 . S
C149 C150 1.264 . S
C149 C154 1.479 . S
C149 C159 1.465 . S
C150 C149 1.264 . S
C150 C152 1.339 . S
C150 H177 0.931 . S
C151 C152 1.395 . S
C151 C153 1.320 . S
C152 C150 1.339 . S
C152 C151 1.395 . S
C152 H178 0.929 . S
C153 C151 1.320 . S
C153 C154 1.405 . S
C153 H179 0.930 . S
C154 C149 1.479 . S
C154 C153 1.405 . S
C154 H180 0.931 . S
U155 O156 2.454 . S
U155 O157 2.458 . S
U155 C158 2.984 . S
U155 C159 2.847 1_455 S
U155 C172 2.882 . S
U155 O173 2.441 1_455 S
U155 O174 2.420 1_455 S
U155 O175 2.455 . S
U155 O176 2.449 1_455 S
O156 U155 2.454 . S
O156 C158 1.353 . S
O157 U155 2.458 . S
O157 C158 1.286 . S
C158 U155 2.984 . S
C158 O156 1.353 . S
C158 O157 1.286 . S
C158 C160 1.363 . S
C159 C149 1.465 . S
C159 U155 2.847 1_655 S
C159 O173 1.249 . S
C159 O174 1.202 . S
C160 C158 1.363 . S
C160 C162 1.408 . S
C160 C165 1.342 . S
C161 C162 1.310 . S
C161 C164 1.461 . S
C161 H181 0.932 . S
C162 C160 1.408 . S
C162 C161 1.310 . S
C162 H182 0.930 . S
C163 C164 1.474 . S
C163 C165 1.285 . S
C163 H183 0.929 . S
C164 C161 1.461 . S
C164 C163 1.474 . S
C165 C160 1.342 . S
C165 C163 1.285 . S
C165 H184 0.930 . S
C166 C169 1.424 1_455 S
C166 C171 1.245 . S
C166 C172 1.428 . S
C167 C170 1.260 . S
C167 C171 1.477 1_554 S
C167 H185 0.932 . S
C168 C169 1.384 1_554 S
C168 C170 1.479 1_655 S
C168 H186 0.929 . S
C169 C166 1.424 1_655 S
C169 C168 1.384 1_556 S
C169 H187 0.928 . S
C170 C167 1.260 . S
C170 C168 1.479 1_455 S
C171 C166 1.245 . S
C171 C167 1.477 1_556 S
C171 H188 0.932 . S
C172 U155 2.882 . S
C172 C166 1.428 . S
C172 O175 1.301 . S
C172 O176 1.282 1_455 S
O173 U155 2.441 1_655 S
O173 C159 1.249 . S
O174 U155 2.420 1_655 S
O174 C159 1.202 . S
O175 U155 2.455 . S
O175 C172 1.301 . S
O176 U155 2.449 1_655 S
O176 C172 1.282 1_655 S
H177 C150 0.931 . S
H178 C152 0.929 . S
H179 C153 0.930 . S
H180 C154 0.931 . S
H181 C161 0.932 . S
H182 C162 0.930 . S
H183 C163 0.929 . S
H184 C165 0.930 . S
H185 C167 0.932 . S
H186 C168 0.929 . S
H187 C169 0.928 . S
H188 C171 0.932 . S
C189 C190 1.264 . S
C189 C194 1.479 . S
C189 C199 1.465 . S
C190 C189 1.264 . S
C190 C192 1.339 . S
C190 H217 0.931 . S
C191 C192 1.395 . S
C191 C193 1.320 . S
C192 C190 1.339 . S
C192 C191 1.395 . S
C192 H218 0.929 . S
C193 C191 1.320 . S
C193 C194 1.405 . S
C193 H219 0.930 . S
C194 C189 1.479 . S
C194 C193 1.405 . S
C194 H220 0.931 . S
U195 O196 2.454 1_655 S
U195 O197 2.458 1_655 S
U195 C198 2.984 1_655 S
U195 C199 2.847 . S
U195 C212 2.882 . S
U195 O213 2.441 . S
U195 O214 2.420 . S
U195 O215 2.455 1_655 S
U195 O216 2.449 . S
O196 U195 2.454 1_455 S
O196 C198 1.353 . S
O197 U195 2.458 1_455 S
O197 C198 1.286 . S
C198 U195 2.984 1_455 S
C198 O196 1.353 . S
C198 O197 1.286 . S
C198 C200 1.363 . S
C199 C189 1.465 . S
C199 U195 2.847 . S
C199 O213 1.249 . S
C199 O214 1.202 . S
C200 C198 1.363 . S
C200 C202 1.408 . S
C200 C205 1.342 . S
C201 C202 1.310 . S
C201 C204 1.461 . S
C201 H221 0.932 . S
C202 C200 1.408 . S
C202 C201 1.310 . S
C202 H222 0.930 . S
C203 C204 1.474 . S
C203 C205 1.285 . S
C203 H223 0.929 . S
C204 C201 1.461 . S
C204 C203 1.474 . S
C205 C200 1.342 . S
C205 C203 1.285 . S
C205 H224 0.930 . S
C206 C209 1.424 . S
C206 C211 1.245 1_655 S
C206 C212 1.428 . S
C207 C210 1.260 1_455 S
C207 C211 1.477 . S
C207 H225 0.932 . S
C208 C209 1.384 . S
C208 C210 1.479 . S
C208 H226 0.929 . S
C209 C206 1.424 . S
C209 C208 1.384 . S
C209 H227 0.928 . S
C210 C207 1.260 1_655 S
C210 C208 1.479 . S
C211 C206 1.245 1_455 S
C211 C207 1.477 . S
C211 H228 0.932 . S
C212 U195 2.882 . S
C212 C206 1.428 . S
C212 O215 1.301 1_655 S
C212 O216 1.282 . S
O213 U195 2.441 . S
O213 C199 1.249 . S
O214 U195 2.420 . S
O214 C199 1.202 . S
O215 U195 2.455 1_455 S
O215 C212 1.301 1_455 S
O216 U195 2.449 . S
O216 C212 1.282 . S
H217 C190 0.931 . S
H218 C192 0.929 . S
H219 C193 0.930 . S
H220 C194 0.931 . S
H221 C201 0.932 . S
H222 C202 0.930 . S
H223 C203 0.929 . S
H224 C205 0.930 . S
H225 C207 0.932 . S
H226 C208 0.929 . S
H227 C209 0.928 . S
H228 C211 0.932 . S
C229 C230 1.264 . S
C229 C234 1.479 . S
C229 C239 1.465 . S
C230 C229 1.264 . S
C230 C232 1.339 . S
C230 H257 0.931 . S
C231 C232 1.395 . S
C231 C233 1.320 . S
C232 C230 1.339 . S
C232 C231 1.395 . S
C232 H258 0.929 . S
C233 C231 1.320 . S
C233 C234 1.405 . S
C233 H259 0.930 . S
C234 C229 1.479 . S
C234 C233 1.405 . S
C234 H260 0.931 . S
U235 O236 2.454 1_565 S
U235 O237 2.458 1_565 S
U235 C238 2.984 1_565 S
U235 C239 2.847 . S
U235 C252 2.882 . S
U235 O253 2.441 . S
U235 O254 2.420 . S
U235 O255 2.455 1_565 S
U235 O256 2.449 . S
O236 U235 2.454 1_545 S
O236 C238 1.353 . S
O237 U235 2.458 1_545 S
O237 C238 1.286 . S
C238 U235 2.984 1_545 S
C238 O236 1.353 . S
C238 O237 1.286 . S
C238 C240 1.363 . S
C239 C229 1.465 . S
C239 U235 2.847 . S
C239 O253 1.249 . S
C239 O254 1.202 . S
C240 C238 1.363 . S
C240 C242 1.408 . S
C240 C245 1.342 . S
C241 C242 1.310 . S
C241 C244 1.461 . S
C241 H261 0.932 . S
C242 C240 1.408 . S
C242 C241 1.310 . S
C242 H262 0.930 . S
C243 C244 1.474 . S
C243 C245 1.285 . S
C243 H263 0.929 . S
C244 C241 1.461 . S
C244 C243 1.474 . S
C245 C240 1.342 . S
C245 C243 1.285 . S
C245 H264 0.930 . S
C246 C249 1.424 . S
C246 C251 1.245 1_565 S
C246 C252 1.428 . S
C247 C250 1.260 1_545 S
C247 C251 1.477 . S
C247 H265 0.932 . S
C248 C249 1.384 . S
C248 C250 1.479 . S
C248 H266 0.929 . S
C249 C246 1.424 . S
C249 C248 1.384 . S
C249 H267 0.928 . S
C250 C247 1.260 1_565 S
C250 C248 1.479 . S
C251 C246 1.245 1_545 S
C251 C247 1.477 . S
C251 H268 0.932 . S
C252 U235 2.882 . S
C252 C246 1.428 . S
C252 O255 1.301 1_565 S
C252 O256 1.282 . S
O253 U235 2.441 . S
O253 C239 1.249 . S
O254 U235 2.420 . S
O254 C239 1.202 . S
O255 U235 2.455 1_545 S
O255 C252 1.301 1_545 S
O256 U235 2.449 . S
O256 C252 1.282 . S
H257 C230 0.931 . S
H258 C232 0.929 . S
H259 C233 0.930 . S
H260 C234 0.931 . S
H261 C241 0.932 . S
H262 C242 0.930 . S
H263 C243 0.929 . S
H264 C245 0.930 . S
H265 C247 0.932 . S
H266 C248 0.929 . S
H267 C249 0.928 . S
H268 C251 0.932 . S
C269 C270 1.264 . S
C269 C274 1.479 . S
C269 C279 1.465 . S
C270 C269 1.264 . S
C270 C272 1.339 . S
C270 H297 0.931 . S
C271 C272 1.395 . S
C271 C273 1.320 . S
C272 C270 1.339 . S
C272 C271 1.395 . S
C272 H298 0.929 . S
C273 C271 1.320 . S
C273 C274 1.405 . S
C273 H299 0.930 . S
C274 C269 1.479 . S
C274 C273 1.405 . S
C274 H300 0.931 . S
U275 O276 2.454 . S
U275 O277 2.458 . S
U275 C278 2.984 . S
U275 C279 2.847 . S
U275 C292 2.882 . S
U275 O293 2.441 . S
U275 O294 2.420 . S
U275 O295 2.455 . S
U275 O296 2.449 . S
O276 U275 2.454 . S
O276 C278 1.353 . S
O277 U275 2.458 . S
O277 C278 1.286 . S
C278 U275 2.984 . S
C278 O276 1.353 . S
C278 O277 1.286 . S
C278 C280 1.363 . S
C279 C269 1.465 . S
C279 U275 2.847 . S
C279 O293 1.249 . S
C279 O294 1.202 . S
C280 C278 1.363 . S
C280 C282 1.408 . S
C280 C285 1.342 . S
C281 C282 1.310 . S
C281 C284 1.461 . S
C281 H301 0.932 . S
C282 C280 1.408 . S
C282 C281 1.310 . S
C282 H302 0.930 . S
C283 C284 1.474 . S
C283 C285 1.285 . S
C283 H303 0.929 . S
C284 C281 1.461 . S
C284 C283 1.474 . S
C285 C280 1.342 . S
C285 C283 1.285 . S
C285 H304 0.930 . S
C286 C289 1.424 . S
C286 C291 1.245 . S
C286 C292 1.428 . S
C287 C290 1.260 . S
C287 C291 1.477 1_556 S
C287 H305 0.932 . S
C288 C289 1.384 1_556 S
C288 C290 1.479 . S
C288 H306 0.929 . S
C289 C286 1.424 . S
C289 C288 1.384 1_554 S
C289 H307 0.928 . S
C290 C287 1.260 . S
C290 C288 1.479 . S
C291 C286 1.245 . S
C291 C287 1.477 1_554 S
C291 H308 0.932 . S
C292 U275 2.882 . S
C292 C286 1.428 . S
C292 O295 1.301 . S
C292 O296 1.282 . S
O293 U275 2.441 . S
O293 C279 1.249 . S
O294 U275 2.420 . S
O294 C279 1.202 . S
O295 U275 2.455 . S
O295 C292 1.301 . S
O296 U275 2.449 . S
O296 C292 1.282 . S
H297 C270 0.931 . S
H298 C272 0.929 . S
H299 C273 0.930 . S
H300 C274 0.931 . S
H301 C281 0.932 . S
H302 C282 0.930 . S
H303 C283 0.929 . S
H304 C285 0.930 . S
H305 C287 0.932 . S
H306 C288 0.929 . S
H307 C289 0.928 . S
H308 C291 0.932 . S
C309 C310 1.369 . S
C309 C311 1.419 . S
C309 H313 0.930 . S
C310 C309 1.369 . S
C310 C319 1.429 . S
C311 C309 1.419 . S
C311 C312 1.363 . S
C311 H314 0.929 . S
C312 C311 1.363 . S
C312 C318 1.428 . S
H313 C309 0.930 . S
H314 C311 0.929 . S
S315 N316 1.613 . S
S315 N317 1.610 . S
N316 S315 1.613 . S
N316 C319 1.350 . S
N317 S315 1.610 . S
N317 C318 1.351 . S
C318 C312 1.428 . S
C318 N317 1.351 . S
C318 C319 1.434 . S
C319 C310 1.429 . S
C319 N316 1.350 . S
C319 C318 1.434 . S
C320 C321 1.369 . S
C320 C322 1.419 . S
C320 H324 0.930 . S
C321 C320 1.369 . S
C321 C330 1.429 . S
C322 C320 1.419 . S
C322 C323 1.363 . S
C322 H325 0.929 . S
C323 C322 1.363 . S
C323 C329 1.428 . S
H324 C320 0.930 . S
H325 C322 0.929 . S
S326 N327 1.613 . S
S326 N328 1.610 . S
N327 S326 1.613 . S
N327 C330 1.350 . S
N328 S326 1.610 . S
N328 C329 1.351 . S
C329 C323 1.428 . S
C329 N328 1.351 . S
C329 C330 1.434 . S
C330 C321 1.429 . S
C330 N327 1.350 . S
C330 C329 1.434 . S
C331 C332 1.369 . S
C331 C333 1.419 . S
C331 H335 0.930 . S
C332 C331 1.369 . S
C332 C341 1.429 . S
C333 C331 1.419 . S
C333 C334 1.363 . S
C333 H336 0.929 . S
C334 C333 1.363 . S
C334 C340 1.428 . S
H335 C331 0.930 . S
H336 C333 0.929 . S
S337 N338 1.613 . S
S337 N339 1.610 . S
N338 S337 1.613 . S
N338 C341 1.350 . S
N339 S337 1.610 . S
N339 C340 1.351 . S
C340 C334 1.428 . S
C340 N339 1.351 . S
C340 C341 1.434 . S
C341 C332 1.429 . S
C341 N338 1.350 . S
C341 C340 1.434 . S
C342 C343 1.369 . S
C342 C344 1.419 . S
C342 H346 0.930 . S
C343 C342 1.369 . S
C343 C352 1.429 . S
C344 C342 1.419 . S
C344 C345 1.363 . S
C344 H347 0.929 . S
C345 C344 1.363 . S
C345 C351 1.428 . S
H346 C342 0.930 . S
H347 C344 0.929 . S
S348 N349 1.613 . S
S348 N350 1.610 . S
N349 S348 1.613 . S
N349 C352 1.350 . S
N350 S348 1.610 . S
N350 C351 1.351 . S
C351 C345 1.428 . S
C351 N350 1.351 . S
C351 C352 1.434 . S
C352 C343 1.429 . S
C352 N349 1.350 . S
C352 C351 1.434 . S
C353 C354 1.369 . S
C353 C355 1.419 . S
C353 H357 0.930 . S
C354 C353 1.369 . S
C354 C363 1.429 . S
C355 C353 1.419 . S
C355 C356 1.363 . S
C355 H358 0.929 . S
C356 C355 1.363 . S
C356 C362 1.428 . S
H357 C353 0.930 . S
H358 C355 0.929 . S
S359 N360 1.613 . S
S359 N361 1.610 . S
N360 S359 1.613 . S
N360 C363 1.350 . S
N361 S359 1.610 . S
N361 C362 1.351 . S
C362 C356 1.428 . S
C362 N361 1.351 . S
C362 C363 1.434 . S
C363 C354 1.429 . S
C363 N360 1.350 . S
C363 C362 1.434 . S
C364 C365 1.369 . S
C364 C366 1.419 . S
C364 H368 0.930 . S
C365 C364 1.369 . S
C365 C374 1.429 . S
C366 C364 1.419 . S
C366 C367 1.363 . S
C366 H369 0.929 . S
C367 C366 1.363 . S
C367 C373 1.428 . S
H368 C364 0.930 . S
H369 C366 0.929 . S
S370 N371 1.613 . S
S370 N372 1.610 . S
N371 S370 1.613 . S
N371 C374 1.350 . S
N372 S370 1.610 . S
N372 C373 1.351 . S
C373 C367 1.428 . S
C373 N372 1.351 . S
C373 C374 1.434 . S
C374 C365 1.429 . S
C374 N371 1.350 . S
C374 C373 1.434 . S
C375 C376 1.369 . S
C375 C377 1.419 . S
C375 H379 0.930 . S
C376 C375 1.369 . S
C376 C385 1.429 . S
C377 C375 1.419 . S
C377 C378 1.363 . S
C377 H380 0.929 . S
C378 C377 1.363 . S
C378 C384 1.428 . S
H379 C375 0.930 . S
H380 C377 0.929 . S
S381 N382 1.613 . S
S381 N383 1.610 . S
N382 S381 1.613 . S
N382 C385 1.350 . S
N383 S381 1.610 . S
N383 C384 1.351 . S
C384 C378 1.428 . S
C384 N383 1.351 . S
C384 C385 1.434 . S
C385 C376 1.429 . S
C385 N382 1.350 . S
C385 C384 1.434 . S
C386 C387 1.369 . S
C386 C388 1.419 . S
C386 H390 0.930 . S
C387 C386 1.369 . S
C387 C396 1.429 . S
C388 C386 1.419 . S
C388 C389 1.363 . S
C388 H391 0.929 . S
C389 C388 1.363 . S
C389 C395 1.428 . S
H390 C386 0.930 . S
H391 C388 0.929 . S
S392 N393 1.613 . S
S392 N394 1.610 . S
N393 S392 1.613 . S
N393 C396 1.350 . S
N394 S392 1.610 . S
N394 C395 1.351 . S
C395 C389 1.428 . S
C395 N394 1.351 . S
C395 C396 1.434 . S
C396 C387 1.429 . S
C396 N393 1.350 . S
C396 C395 1.434 . S
C397 C398 1.369 . S
C397 C399 1.419 . S
C397 H401 0.930 . S
C398 C397 1.369 . S
C398 C407 1.429 . S
C399 C397 1.419 . S
C399 C400 1.363 . S
C399 H402 0.929 . S
C400 C399 1.363 . S
C400 C406 1.428 . S
H401 C397 0.930 . S
H402 C399 0.929 . S
S403 N404 1.613 . S
S403 N405 1.610 . S
N404 S403 1.613 . S
N404 C407 1.350 . S
N405 S403 1.610 . S
N405 C406 1.351 . S
C406 C400 1.428 . S
C406 N405 1.351 . S
C406 C407 1.434 . S
C407 C398 1.429 . S
C407 N404 1.350 . S
C407 C406 1.434 . S
C408 C409 1.369 . S
C408 C410 1.419 . S
C408 H412 0.930 . S
C409 C408 1.369 . S
C409 C418 1.429 . S
C410 C408 1.419 . S
C410 C411 1.363 . S
C410 H413 0.929 . S
C411 C410 1.363 . S
C411 C417 1.428 . S
H412 C408 0.930 . S
H413 C410 0.929 . S
S414 N415 1.613 . S
S414 N416 1.610 . S
N415 S414 1.613 . S
N415 C418 1.350 . S
N416 S414 1.610 . S
N416 C417 1.351 . S
C417 C411 1.428 . S
C417 N416 1.351 . S
C417 C418 1.434 . S
C418 C409 1.429 . S
C418 N415 1.350 . S
C418 C417 1.434 . S
C419 C420 1.369 . S
C419 C421 1.419 . S
C419 H423 0.930 . S
C420 C419 1.369 . S
C420 C429 1.429 . S
C421 C419 1.419 . S
C421 C422 1.363 . S
C421 H424 0.929 . S
C422 C421 1.363 . S
C422 C428 1.428 . S
H423 C419 0.930 . S
H424 C421 0.929 . S
S425 N426 1.613 . S
S425 N427 1.610 . S
N426 S425 1.613 . S
N426 C429 1.350 . S
N427 S425 1.610 . S
N427 C428 1.351 . S
C428 C422 1.428 . S
C428 N427 1.351 . S
C428 C429 1.434 . S
C429 C420 1.429 . S
C429 N426 1.350 . S
C429 C428 1.434 . S
C430 C431 1.369 . S
C430 C432 1.419 . S
C430 H434 0.930 . S
C431 C430 1.369 . S
C431 C440 1.429 . S
C432 C430 1.419 . S
C432 C433 1.363 . S
C432 H435 0.929 . S
C433 C432 1.363 . S
C433 C439 1.428 . S
H434 C430 0.930 . S
H435 C432 0.929 . S
S436 N437 1.613 . S
S436 N438 1.610 . S
N437 S436 1.613 . S
N437 C440 1.350 . S
N438 S436 1.610 . S
N438 C439 1.351 . S
C439 C433 1.428 . S
C439 N438 1.351 . S
C439 C440 1.434 . S
C440 C431 1.429 . S
C440 N437 1.350 . S
C440 C439 1.434 . S
C441 C442 1.369 . S
C441 C443 1.419 . S
C441 H445 0.930 . S
C442 C441 1.369 . S
C442 C451 1.429 1_455 S
C443 C441 1.419 . S
C443 C444 1.363 . S
C443 H446 0.929 . S
C444 C443 1.363 . S
C444 C450 1.428 1_455 S
H445 C441 0.930 . S
H446 C443 0.929 . S
S447 N448 1.613 . S
S447 N449 1.610 . S
N448 S447 1.613 . S
N448 C451 1.350 . S
N449 S447 1.610 . S
N449 C450 1.351 . S
C450 C444 1.428 1_655 S
C450 N449 1.351 . S
C450 C451 1.434 . S
C451 C442 1.429 1_655 S
C451 N448 1.350 . S
C451 C450 1.434 . S
C452 C453 1.369 1_565 S
C452 C454 1.419 . S
C452 H456 0.930 . S
C453 C452 1.369 1_545 S
C453 C462 1.429 . S
C454 C452 1.419 . S
C454 C455 1.363 1_565 S
C454 H457 0.929 . S
C455 C454 1.363 1_545 S
C455 C461 1.428 . S
H456 C452 0.930 . S
H457 C454 0.929 . S
S458 N459 1.613 . S
S458 N460 1.610 . S
N459 S458 1.613 . S
N459 C462 1.350 . S
N460 S458 1.610 . S
N460 C461 1.351 . S
C461 C455 1.428 . S
C461 N460 1.351 . S
C461 C462 1.434 . S
C462 C453 1.429 . S
C462 N459 1.350 . S
C462 C461 1.434 . S
C463 C464 1.369 . S
C463 C465 1.419 . S
C463 H467 0.930 . S
C464 C463 1.369 . S
C464 C473 1.429 . S
C465 C463 1.419 . S
C465 C466 1.363 . S
C465 H468 0.929 . S
C466 C465 1.363 . S
C466 C472 1.428 . S
H467 C463 0.930 . S
H468 C465 0.929 . S
S469 N470 1.613 . S
S469 N471 1.610 . S
N470 S469 1.613 . S
N470 C473 1.350 . S
N471 S469 1.610 . S
N471 C472 1.351 . S
C472 C466 1.428 . S
C472 N471 1.351 . S
C472 C473 1.434 . S
C473 C464 1.429 . S
C473 N470 1.350 . S
C473 C472 1.434 . S
C474 C475 1.369 . S
C474 C476 1.419 . S
C474 H478 0.930 . S
C475 C474 1.369 . S
C475 C484 1.429 1_545 S
C476 C474 1.419 . S
C476 C477 1.358 1_545 S
C476 H479 0.929 . S
C477 C476 1.358 1_565 S
C477 C483 1.433 . S
H478 C474 0.930 . S
H479 C476 0.929 . S
S480 N481 1.613 . S
S480 N482 1.610 . S
N481 S480 1.613 . S
N481 C484 1.350 . S
N482 S480 1.610 . S
N482 C483 1.351 . S
C483 C477 1.433 . S
C483 N482 1.351 . S
C483 C484 1.434 . S
C484 C475 1.429 1_565 S
C484 N481 1.350 . S
C484 C483 1.434 . S
C485 C486 1.369 . S
C485 C487 1.419 . S
C485 H489 0.930 . S
C486 C485 1.369 . S
C486 C495 1.429 . S
C487 C485 1.419 . S
C487 C488 1.363 . S
C487 H490 0.929 . S
C488 C487 1.363 . S
C488 C494 1.428 . S
H489 C485 0.930 . S
H490 C487 0.929 . S
S491 N492 1.613 . S
S491 N493 1.610 . S
N492 S491 1.613 . S
N492 C495 1.350 . S
N493 S491 1.610 . S
N493 C494 1.351 . S
C494 C488 1.428 . S
C494 N493 1.351 . S
C494 C495 1.434 . S
C495 C486 1.429 . S
C495 N492 1.350 . S
C495 C494 1.434 . S
C496 C497 1.369 1_655 S
C496 C498 1.419 . S
C496 H500 0.930 . S
C497 C496 1.369 1_455 S
C497 C506 1.429 . S
C498 C496 1.419 . S
C498 C499 1.363 1_655 S
C498 H501 0.929 . S
C499 C498 1.363 1_455 S
C499 C505 1.428 . S
H500 C496 0.930 . S
H501 C498 0.929 . S
S502 N503 1.613 . S
S502 N504 1.610 . S
N503 S502 1.613 . S
N503 C506 1.350 . S
N504 S502 1.610 . S
N504 C505 1.351 . S
C505 C499 1.428 . S
C505 N504 1.351 . S
C505 C506 1.434 . S
C506 C497 1.429 . S
C506 N503 1.350 . S
C506 C505 1.434 . S
C310 C20 1.269 . S
C312 C284 1.309 . S
C321 C41 1.361 . S
C323 C191 1.366 . S
C332 C64 1.392 . S
C334 C231 1.406 . S
C343 C19 1.320 . S
C345 C271 1.410 . S
C356 C204 1.334 . S
C354 C44 1.344 . S
C367 C244 1.326 . S
C365 C67 1.325 . S
C376 C43 1.250 . S
C378 C111 1.326 . S
C387 C66 1.254 . S
C389 C151 1.318 . S
C398 C21 1.340 . S
C400 C84 1.340 . S
C411 C124 1.362 . S
C409 C42 1.299 . S
C422 C164 1.377 . S
C420 C65 1.325 . S
C431 C18 1.358 . S
C433 C71 1.366 . S
C444 C170 1.449 . S
C442 C17 1.469 . S
C453 C39 1.464 . S
C455 C90 1.456 . S
C464 C62 1.481 . S
C466 C130 1.467 . S
C477 C250 1.447 . S
C475 C40 1.453 . S
C488 C290 1.467 . S
C486 C63 1.472 . S
C497 C16 1.465 . S
C499 C210 1.457 1_455 S
