# Generated by pormake.
# Topology iac, (4,6)-cn, num edge types: 1
# Building blocks:
#     Node 0, Type 0, BuildingBlock: QUQFOY_clean_sbu_3, # of connection points: 4
#     Node 1, Type 0, BuildingBlock: QUQFOY_clean_sbu_3, # of connection points: 4
#     Node 2, Type 0, BuildingBlock: QUQFOY_clean_sbu_3, # of connection points: 4
#     Node 3, Type 0, BuildingBlock: QUQFOY_clean_sbu_3, # of connection points: 4
#     Node 4, Type 0, BuildingBlock: QUQFOY_clean_sbu_3, # of connection points: 4
#     Node 5, Type 0, BuildingBlock: QUQFOY_clean_sbu_3, # of connection points: 4
#     Node 6, Type 0, BuildingBlock: QUQFOY_clean_sbu_3, # of connection points: 4
#     Node 7, Type 0, BuildingBlock: QUQFOY_clean_sbu_3, # of connection points: 4
#     Node 8, Type 0, BuildingBlock: QUQFOY_clean_sbu_3, # of connection points: 4
#     Node 9, Type 0, BuildingBlock: QUQFOY_clean_sbu_3, # of connection points: 4
#     Node 10, Type 0, BuildingBlock: QUQFOY_clean_sbu_3, # of connection points: 4
#     Node 11, Type 0, BuildingBlock: QUQFOY_clean_sbu_3, # of connection points: 4
#     Node 12, Type 0, BuildingBlock: QUQFOY_clean_sbu_3, # of connection points: 4
#     Node 13, Type 0, BuildingBlock: QUQFOY_clean_sbu_3, # of connection points: 4
#     Node 14, Type 0, BuildingBlock: QUQFOY_clean_sbu_3, # of connection points: 4
#     Node 15, Type 0, BuildingBlock: QUQFOY_clean_sbu_3, # of connection points: 4
#     Node 16, Type 0, BuildingBlock: QUQFOY_clean_sbu_3, # of connection points: 4
#     Node 17, Type 0, BuildingBlock: QUQFOY_clean_sbu_3, # of connection points: 4
#     Node 18, Type 0, BuildingBlock: QUQFOY_clean_sbu_3, # of connection points: 4
#     Node 19, Type 0, BuildingBlock: QUQFOY_clean_sbu_3, # of connection points: 4
#     Node 20, Type 0, BuildingBlock: QUQFOY_clean_sbu_3, # of connection points: 4
#     Node 21, Type 0, BuildingBlock: QUQFOY_clean_sbu_3, # of connection points: 4
#     Node 22, Type 0, BuildingBlock: QUQFOY_clean_sbu_3, # of connection points: 4
#     Node 23, Type 0, BuildingBlock: QUQFOY_clean_sbu_3, # of connection points: 4
#     Node 24, Type 1, BuildingBlock: VOLQOD_clean_sbu_1, # of connection points: 6
#     Node 25, Type 1, BuildingBlock: VOLQOD_clean_sbu_1, # of connection points: 6
#     Node 26, Type 1, BuildingBlock: VOLQOD_clean_sbu_1, # of connection points: 6
#     Node 27, Type 1, BuildingBlock: VOLQOD_clean_sbu_1, # of connection points: 6
#     Node 28, Type 1, BuildingBlock: VOLQOD_clean_sbu_1, # of connection points: 6
#     Node 29, Type 1, BuildingBlock: VOLQOD_clean_sbu_1, # of connection points: 6
#     Node 30, Type 1, BuildingBlock: VOLQOD_clean_sbu_1, # of connection points: 6
#     Node 31, Type 1, BuildingBlock: VOLQOD_clean_sbu_1, # of connection points: 6
#     Node 32, Type 1, BuildingBlock: VOLQOD_clean_sbu_1, # of connection points: 6
#     Node 33, Type 1, BuildingBlock: VOLQOD_clean_sbu_1, # of connection points: 6
#     Node 34, Type 1, BuildingBlock: VOLQOD_clean_sbu_1, # of connection points: 6
#     Node 35, Type 1, BuildingBlock: VOLQOD_clean_sbu_1, # of connection points: 6
#     Node 36, Type 1, BuildingBlock: VOLQOD_clean_sbu_1, # of connection points: 6
#     Node 37, Type 1, BuildingBlock: VOLQOD_clean_sbu_1, # of connection points: 6
#     Node 38, Type 1, BuildingBlock: VOLQOD_clean_sbu_1, # of connection points: 6
#     Node 39, Type 1, BuildingBlock: VOLQOD_clean_sbu_1, # of connection points: 6
#     Edge 40, Type (0, 1), BuildingBlock: XIVTED_clean_linker_0, # of connection points: 2
#     Edge 41, Type (0, 1), BuildingBlock: XIVTED_clean_linker_0, # of connection points: 2
#     Edge 42, Type (0, 1), BuildingBlock: XIVTED_clean_linker_0, # of connection points: 2
#     Edge 43, Type (0, 1), BuildingBlock: XIVTED_clean_linker_0, # of connection points: 2
#     Edge 44, Type (0, 1), BuildingBlock: XIVTED_clean_linker_0, # of connection points: 2
#     Edge 45, Type (0, 1), BuildingBlock: XIVTED_clean_linker_0, # of connection points: 2
#     Edge 46, Type (0, 1), BuildingBlock: XIVTED_clean_linker_0, # of connection points: 2
#     Edge 47, Type (0, 1), BuildingBlock: XIVTED_clean_linker_0, # of connection points: 2
#     Edge 48, Type (0, 1), BuildingBlock: XIVTED_clean_linker_0, # of connection points: 2
#     Edge 49, Type (0, 1), BuildingBlock: XIVTED_clean_linker_0, # of connection points: 2
#     Edge 50, Type (0, 1), BuildingBlock: XIVTED_clean_linker_0, # of connection points: 2
#     Edge 51, Type (0, 1), BuildingBlock: XIVTED_clean_linker_0, # of connection points: 2
#     Edge 52, Type (0, 1), BuildingBlock: XIVTED_clean_linker_0, # of connection points: 2
#     Edge 53, Type (0, 1), BuildingBlock: XIVTED_clean_linker_0, # of connection points: 2
#     Edge 54, Type (0, 1), BuildingBlock: XIVTED_clean_linker_0, # of connection points: 2
#     Edge 55, Type (0, 1), BuildingBlock: XIVTED_clean_linker_0, # of connection points: 2
#     Edge 56, Type (0, 1), BuildingBlock: XIVTED_clean_linker_0, # of connection points: 2
#     Edge 57, Type (0, 1), BuildingBlock: XIVTED_clean_linker_0, # of connection points: 2
#     Edge 58, Type (0, 1), BuildingBlock: XIVTED_clean_linker_0, # of connection points: 2
#     Edge 59, Type (0, 1), BuildingBlock: XIVTED_clean_linker_0, # of connection points: 2
#     Edge 60, Type (0, 1), BuildingBlock: XIVTED_clean_linker_0, # of connection points: 2
#     Edge 61, Type (0, 1), BuildingBlock: XIVTED_clean_linker_0, # of connection points: 2
#     Edge 62, Type (0, 1), BuildingBlock: XIVTED_clean_linker_0, # of connection points: 2
#     Edge 63, Type (0, 1), BuildingBlock: XIVTED_clean_linker_0, # of connection points: 2
#     Edge 64, Type (0, 1), BuildingBlock: XIVTED_clean_linker_0, # of connection points: 2
#     Edge 65, Type (0, 1), BuildingBlock: XIVTED_clean_linker_0, # of connection points: 2
#     Edge 66, Type (0, 1), BuildingBlock: XIVTED_clean_linker_0, # of connection points: 2
#     Edge 67, Type (0, 1), BuildingBlock: XIVTED_clean_linker_0, # of connection points: 2
#     Edge 68, Type (0, 1), BuildingBlock: XIVTED_clean_linker_0, # of connection points: 2
#     Edge 69, Type (0, 1), BuildingBlock: XIVTED_clean_linker_0, # of connection points: 2
#     Edge 70, Type (0, 1), BuildingBlock: XIVTED_clean_linker_0, # of connection points: 2
#     Edge 71, Type (0, 1), BuildingBlock: XIVTED_clean_linker_0, # of connection points: 2
#     Edge 72, Type (0, 1), BuildingBlock: XIVTED_clean_linker_0, # of connection points: 2
#     Edge 73, Type (0, 1), BuildingBlock: XIVTED_clean_linker_0, # of connection points: 2
#     Edge 74, Type (0, 1), BuildingBlock: XIVTED_clean_linker_0, # of connection points: 2
#     Edge 75, Type (0, 1), BuildingBlock: XIVTED_clean_linker_0, # of connection points: 2
#     Edge 76, Type (0, 1), BuildingBlock: XIVTED_clean_linker_0, # of connection points: 2
#     Edge 77, Type (0, 1), BuildingBlock: XIVTED_clean_linker_0, # of connection points: 2
#     Edge 78, Type (0, 1), BuildingBlock: XIVTED_clean_linker_0, # of connection points: 2
#     Edge 79, Type (0, 1), BuildingBlock: XIVTED_clean_linker_0, # of connection points: 2
#     Edge 80, Type (0, 1), BuildingBlock: XIVTED_clean_linker_0, # of connection points: 2
#     Edge 81, Type (0, 1), BuildingBlock: XIVTED_clean_linker_0, # of connection points: 2
#     Edge 82, Type (0, 1), BuildingBlock: XIVTED_clean_linker_0, # of connection points: 2
#     Edge 83, Type (0, 1), BuildingBlock: XIVTED_clean_linker_0, # of connection points: 2
#     Edge 84, Type (0, 1), BuildingBlock: XIVTED_clean_linker_0, # of connection points: 2
#     Edge 85, Type (0, 1), BuildingBlock: XIVTED_clean_linker_0, # of connection points: 2
#     Edge 86, Type (0, 1), BuildingBlock: XIVTED_clean_linker_0, # of connection points: 2
#     Edge 87, Type (0, 1), BuildingBlock: XIVTED_clean_linker_0, # of connection points: 2
#     Edge 88, Type (0, 1), BuildingBlock: XIVTED_clean_linker_0, # of connection points: 2
#     Edge 89, Type (0, 1), BuildingBlock: XIVTED_clean_linker_0, # of connection points: 2
#     Edge 90, Type (0, 1), BuildingBlock: XIVTED_clean_linker_0, # of connection points: 2
#     Edge 91, Type (0, 1), BuildingBlock: XIVTED_clean_linker_0, # of connection points: 2
#     Edge 92, Type (0, 1), BuildingBlock: XIVTED_clean_linker_0, # of connection points: 2
#     Edge 93, Type (0, 1), BuildingBlock: XIVTED_clean_linker_0, # of connection points: 2
#     Edge 94, Type (0, 1), BuildingBlock: XIVTED_clean_linker_0, # of connection points: 2
#     Edge 95, Type (0, 1), BuildingBlock: XIVTED_clean_linker_0, # of connection points: 2
#     Edge 96, Type (0, 1), BuildingBlock: XIVTED_clean_linker_0, # of connection points: 2
#     Edge 97, Type (0, 1), BuildingBlock: XIVTED_clean_linker_0, # of connection points: 2
#     Edge 98, Type (0, 1), BuildingBlock: XIVTED_clean_linker_0, # of connection points: 2
#     Edge 99, Type (0, 1), BuildingBlock: XIVTED_clean_linker_0, # of connection points: 2
#     Edge 100, Type (0, 1), BuildingBlock: XIVTED_clean_linker_0, # of connection points: 2
#     Edge 101, Type (0, 1), BuildingBlock: XIVTED_clean_linker_0, # of connection points: 2
#     Edge 102, Type (0, 1), BuildingBlock: XIVTED_clean_linker_0, # of connection points: 2
#     Edge 103, Type (0, 1), BuildingBlock: XIVTED_clean_linker_0, # of connection points: 2
#     Edge 104, Type (0, 1), BuildingBlock: XIVTED_clean_linker_0, # of connection points: 2
#     Edge 105, Type (0, 1), BuildingBlock: XIVTED_clean_linker_0, # of connection points: 2
#     Edge 106, Type (0, 1), BuildingBlock: XIVTED_clean_linker_0, # of connection points: 2
#     Edge 107, Type (0, 1), BuildingBlock: XIVTED_clean_linker_0, # of connection points: 2
#     Edge 108, Type (0, 1), BuildingBlock: XIVTED_clean_linker_0, # of connection points: 2
#     Edge 109, Type (0, 1), BuildingBlock: XIVTED_clean_linker_0, # of connection points: 2
#     Edge 110, Type (0, 1), BuildingBlock: XIVTED_clean_linker_0, # of connection points: 2
#     Edge 111, Type (0, 1), BuildingBlock: XIVTED_clean_linker_0, # of connection points: 2
#     Edge 112, Type (0, 1), BuildingBlock: XIVTED_clean_linker_0, # of connection points: 2
#     Edge 113, Type (0, 1), BuildingBlock: XIVTED_clean_linker_0, # of connection points: 2
#     Edge 114, Type (0, 1), BuildingBlock: XIVTED_clean_linker_0, # of connection points: 2
#     Edge 115, Type (0, 1), BuildingBlock: XIVTED_clean_linker_0, # of connection points: 2
#     Edge 116, Type (0, 1), BuildingBlock: XIVTED_clean_linker_0, # of connection points: 2
#     Edge 117, Type (0, 1), BuildingBlock: XIVTED_clean_linker_0, # of connection points: 2
#     Edge 118, Type (0, 1), BuildingBlock: XIVTED_clean_linker_0, # of connection points: 2
#     Edge 119, Type (0, 1), BuildingBlock: XIVTED_clean_linker_0, # of connection points: 2
#     Edge 120, Type (0, 1), BuildingBlock: XIVTED_clean_linker_0, # of connection points: 2
#     Edge 121, Type (0, 1), BuildingBlock: XIVTED_clean_linker_0, # of connection points: 2
#     Edge 122, Type (0, 1), BuildingBlock: XIVTED_clean_linker_0, # of connection points: 2
#     Edge 123, Type (0, 1), BuildingBlock: XIVTED_clean_linker_0, # of connection points: 2
#     Edge 124, Type (0, 1), BuildingBlock: XIVTED_clean_linker_0, # of connection points: 2
#     Edge 125, Type (0, 1), BuildingBlock: XIVTED_clean_linker_0, # of connection points: 2
#     Edge 126, Type (0, 1), BuildingBlock: XIVTED_clean_linker_0, # of connection points: 2
#     Edge 127, Type (0, 1), BuildingBlock: XIVTED_clean_linker_0, # of connection points: 2
#     Edge 128, Type (0, 1), BuildingBlock: XIVTED_clean_linker_0, # of connection points: 2
#     Edge 129, Type (0, 1), BuildingBlock: XIVTED_clean_linker_0, # of connection points: 2
#     Edge 130, Type (0, 1), BuildingBlock: XIVTED_clean_linker_0, # of connection points: 2
#     Edge 131, Type (0, 1), BuildingBlock: XIVTED_clean_linker_0, # of connection points: 2
#     Edge 132, Type (0, 1), BuildingBlock: XIVTED_clean_linker_0, # of connection points: 2
#     Edge 133, Type (0, 1), BuildingBlock: XIVTED_clean_linker_0, # of connection points: 2
#     Edge 134, Type (0, 1), BuildingBlock: XIVTED_clean_linker_0, # of connection points: 2
#     Edge 135, Type (0, 1), BuildingBlock: XIVTED_clean_linker_0, # of connection points: 2
# Relax obj value: 0.303
# Max RMSD: 0.292
# Mean RMSD: 0.139
data_MOF--net-iac--node1-QUQFOY_clean_sbu_3--node2-VOLQOD_clean_sbu_1--edge1-XIVTED_clean_linker_0
_symmetry_space_group_name_H-M    P1
_symmetry_Int_Tables_number       1
_symmetry_cell_setting            triclinic
loop_
_symmetry_equiv_pos_as_xyz
'x, y, z'
_cell_length_a     55.8052
_cell_length_b     56.712341
_cell_length_c     56.294618
_cell_angle_alpha  91.044864
_cell_angle_beta   89.981048
_cell_angle_gamma 90.754719
loop_
_atom_site_label
_atom_site_type_symbol
_atom_site_fract_x
_atom_site_fract_y
_atom_site_fract_z
_atom_type_partial_charge
C0 C 0.95879 0.24549 0.16086 0.0
O1 O 0.9749 0.2354 0.17271 0.0
Cd2 Cd 0.01339 0.2283 0.15707 0.0
O3 O 0.96332 0.25377 0.14039 0.0
Cd4 Cd -0.0015 0.25725 0.11324 0.0
C5 C -0.00688 0.19872 0.10672 0.0
O6 O 0.02734 0.26586 0.14371 0.0
O7 O 0.04257 0.25284 0.11082 0.0
O8 O -0.01217 0.29773 0.10673 0.0
C9 C 0.04562 0.26317 0.13078 0.0
O10 O 0.00306 0.19814 0.12705 0.0
C11 C -0.00854 0.2974 0.08448 0.0
O12 O -0.01126 0.21831 0.09707 0.0
O13 O -0.00302 0.27769 0.07501 0.0
C14 C 0.97669 0.75448 0.33984 0.0
O15 O -0.00515 0.76304 0.32929 0.0
Cd16 Cd 0.03452 0.75864 0.34301 0.0
O17 O 0.97902 0.74168 0.35812 0.0
Cd18 Cd 0.01151 0.72476 0.38282 0.0
C19 C 0.02396 0.78097 0.39969 0.0
O20 O 0.03481 0.71719 0.34833 0.0
O21 O 0.05448 0.71282 0.38063 0.0
O22 O -0.01366 0.68954 0.38357 0.0
C23 C 0.0537 0.71042 0.3582 0.0
O24 O 0.03318 0.78305 0.37912 0.0
C25 C -0.00793 0.68383 0.40449 0.0
O26 O 0.01433 0.76156 0.4059 0.0
O27 O 0.00573 0.69805 0.41597 0.0
C28 C 0.46744 0.75378 0.66977 0.0
O29 O 0.48224 0.74204 0.68175 0.0
Cd30 Cd 0.51682 0.72582 0.664 0.0
O31 O 0.47235 0.7601 0.64864 0.0
Cd32 Cd 0.50611 0.7601 0.6196 0.0
C33 C 0.48915 0.70352 0.61246 0.0
O34 O 0.53618 0.75984 0.64944 0.0
O35 O 0.54957 0.75243 0.61422 0.0
O36 O 0.50143 0.80228 0.61759 0.0
C37 C 0.55396 0.75633 0.63605 0.0
O38 O 0.49799 0.70101 0.63311 0.0
C39 C 0.50303 0.80342 0.59516 0.0
O40 O 0.48987 0.72343 0.60236 0.0
O41 O 0.50472 0.78401 0.58365 0.0
C42 C 0.47718 0.26295 0.84663 0.0
O43 O 0.49388 0.2717 0.83406 0.0
Cd44 Cd 0.53438 0.26015 0.83561 0.0
O45 O 0.48145 0.24696 0.86172 0.0
Cd46 Cd 0.51674 0.22468 0.87599 0.0
C47 C 0.54285 0.27646 0.89386 0.0
O48 O 0.52694 0.21861 0.83557 0.0
O49 O 0.55325 0.20504 0.85918 0.0
O50 O 0.48789 0.19338 0.88423 0.0
C51 C 0.54549 0.20657 0.8381 0.0
O52 O 0.5475 0.28014 0.8721 0.0
C53 C 0.49907 0.18584 0.90215 0.0
O54 O 0.53154 0.25792 0.89992 0.0
O55 O 0.51779 0.19719 0.90857 0.0
C56 C 0.11157 0.04975 0.28714 0.0
O57 O 0.10454 0.06741 0.27561 0.0
Cd58 Cd 0.11174 0.07107 0.23379 0.0
O59 O 0.12478 0.03426 0.2772 0.0
Cd60 Cd 0.1442 0.02944 0.23768 0.0
C61 C 0.17028 0.08394 0.23533 0.0
O62 O 0.10538 0.03194 0.21774 0.0
O63 O 0.13586 0.02808 0.19457 0.0
O64 O 0.14496 -0.01207 0.2481 0.0
C65 C 0.11329 0.02733 0.19716 0.0
O66 O 0.15012 0.09083 0.22787 0.0
C67 C 0.16516 0.98361 0.23875 0.0
O68 O 0.17275 0.06298 0.24256 0.0
O69 O 0.17642 0.00097 0.22992 0.0
C70 C 0.26405 0.93018 0.51023 0.0
O71 O 0.24678 0.94292 0.50372 0.0
Cd72 Cd 0.20546 0.93412 0.50355 0.0
O73 O 0.26033 0.90979 0.51897 0.0
Cd74 Cd 0.22351 0.88575 0.52803 0.0
C75 C 0.20974 0.88406 0.46909 0.0
O76 O 0.20123 0.9187 0.54234 0.0
O77 O 0.18019 0.88711 0.53738 0.0
O78 O 0.2366 0.86872 0.56521 0.0
C79 C 0.18133 0.90829 0.54491 0.0
O80 O 0.20353 0.90555 0.4705 0.0
C81 C 0.2329 0.84753 0.55826 0.0
O82 O 0.21757 0.87342 0.48712 0.0
O83 O 0.2267 0.84423 0.53677 0.0
C84 C 0.3569 0.92421 0.76378 0.0
O85 O 0.36461 0.90998 0.74795 0.0
Cd86 Cd 0.35451 0.91507 0.70691 0.0
O87 O 0.34397 0.94159 0.75818 0.0
Cd88 Cd 0.32664 0.95933 0.72278 0.0
C89 C 0.29405 0.90996 0.71161 0.0
O90 O 0.36382 0.95609 0.70102 0.0
O91 O 0.33378 0.96859 0.68086 0.0
O92 O 0.3323 -0.00258 0.74289 0.0
C93 C 0.35625 0.96592 0.68254 0.0
O94 O 0.313 0.90114 0.70285 0.0
C95 C 0.31174 0.00503 0.73755 0.0
O96 O 0.29444 0.93038 0.72119 0.0
O97 O 0.29783 -0.00903 0.7262 0.0
C98 C 0.25649 0.09275 0.044 0.0
O99 O 0.2462 0.09002 0.06391 0.0
Cd100 Cd 0.21322 0.11295 0.07683 0.0
O101 O 0.24958 0.10849 0.02968 0.0
Cd102 Cd 0.21836 0.13911 0.02764 0.0
C103 C 0.24004 0.16718 0.07666 0.0
O104 O 0.18943 0.11097 0.0413 0.0
O105 O 0.17494 0.14491 0.03309 0.0
O106 O 0.2206 0.13388 0.98446 0.0
C107 C 0.17119 0.12347 0.03804 0.0
O108 O 0.23241 0.14999 0.08884 0.0
C109 C 0.21985 0.15584 0.98045 0.0
O110 O 0.23707 0.16742 0.05436 0.0
O111 O 0.2189 0.16967 -0.00163 0.0
C112 C 0.76468 0.41724 0.96527 0.0
O113 O 0.74742 0.43061 0.96 0.0
Cd114 Cd 0.70703 0.43006 0.97414 0.0
O115 O 0.7616 0.39998 0.97926 0.0
Cd116 Cd 0.72602 0.38285 -0.00049 0.0
C117 C 0.69032 0.37812 0.94945 0.0
O118 O 0.71307 0.42066 0.01495 0.0
O119 O 0.69046 0.39118 0.02383 0.0
O120 O 0.74506 0.36389 0.03319 0.0
C121 C 0.69515 0.413 0.02626 0.0
O122 O 0.68672 0.40021 0.94943 0.0
C123 C 0.73812 0.34322 0.02699 0.0
O124 O 0.70406 0.36919 0.96477 0.0
O125 O 0.72734 0.34099 0.00724 0.0
C126 C 0.861 0.41102 0.26365 0.0
O127 O 0.8684 0.39869 0.24617 0.0
Cd128 Cd 0.85715 0.40969 0.20643 0.0
O129 O 0.84892 0.42952 0.2603 0.0
Cd130 Cd 0.83332 0.45294 0.22812 0.0
C131 C 0.79612 0.41014 0.20951 0.0
O132 O 0.86785 0.45067 0.20196 0.0
O133 O 0.83528 0.46405 0.18667 0.0
O134 O 0.84396 0.49026 0.24787 0.0
C135 C 0.85773 0.46123 0.18511 0.0
O136 O 0.81446 0.40056 0.2002 0.0
C137 C 0.82265 0.49779 0.24803 0.0
O138 O 0.79822 0.42866 0.22232 0.0
O139 O 0.80644 0.48402 0.23984 0.0
C140 C 0.7477 0.58438 0.53069 0.0
O141 O 0.73716 0.58139 0.55045 0.0
Cd142 Cd 0.7069 0.60549 0.56715 0.0
O143 O 0.74224 0.6014 0.51721 0.0
Cd144 Cd 0.71379 0.63498 0.51659 0.0
C145 C 0.73999 0.65708 0.56694 0.0
O146 O 0.68367 0.61029 0.53242 0.0
O147 O 0.67088 0.64487 0.52459 0.0
O148 O 0.71313 0.6314 0.47334 0.0
C149 C 0.66641 0.62437 0.53213 0.0
O150 O 0.7308 0.6401 0.57845 0.0
C151 C 0.71565 0.65344 0.47013 0.0
O152 O 0.73633 0.65911 0.54481 0.0
O153 O 0.71762 0.66659 0.48852 0.0
C154 C 0.60765 0.5534 0.80677 0.0
O155 O 0.60164 0.57287 0.79786 0.0
Cd156 Cd 0.60524 0.57964 0.756 0.0
O157 O 0.61838 0.53795 0.79412 0.0
Cd158 Cd 0.63353 0.5359 0.75287 0.0
C159 C 0.66412 0.58753 0.74991 0.0
O160 O 0.59308 0.54284 0.7377 0.0
O161 O 0.62063 0.53822 0.71126 0.0
O162 O 0.63239 0.49332 0.75827 0.0
C163 C 0.59849 0.53868 0.71624 0.0
O164 O 0.64395 0.59662 0.74563 0.0
C165 C 0.65167 0.48922 0.74706 0.0
O166 O 0.66547 0.56615 0.75604 0.0
O167 O 0.66331 0.507 0.73968 0.0
C168 C -0.00715 0.7771 0.83848 0.0
O169 O 0.01245 0.77846 0.82706 0.0
Cd170 Cd 0.04869 0.76267 0.84166 0.0
O171 O -0.00848 0.76624 0.8581 0.0
Cd172 Cd 0.01631 0.74262 0.88505 0.0
C173 C 0.0506 0.79123 0.89606 0.0
O174 O 0.03398 0.72413 0.85165 0.0
O175 O 0.04979 0.71362 0.8845 0.0
O176 O 0.97959 0.72008 0.89133 0.0
C177 C 0.04842 0.71096 0.86212 0.0
O178 O 0.05824 0.78995 0.87477 0.0
C179 C 0.98226 0.71868 0.91365 0.0
O180 O 0.03556 0.77623 0.90379 0.0
O181 O 0.00062 0.72884 0.92265 0.0
C182 C 0.94224 0.2408 0.70058 0.0
O183 O 0.95277 0.22402 0.71076 0.0
Cd184 Cd -0.01013 0.20872 0.69488 0.0
O185 O 0.95017 0.24871 0.68107 0.0
Cd186 Cd 0.98245 0.24352 0.65231 0.0
C187 C 0.97795 0.18454 0.6406 0.0
O188 O 0.0119 0.24402 0.68357 0.0
O189 O 0.02592 0.2404 0.64788 0.0
O190 O 0.9755 0.28394 0.63976 0.0
C191 C 0.02991 0.24226 0.67 0.0
O192 O -0.0161 0.17994 0.66183 0.0
C193 C 0.97057 0.27782 0.61846 0.0
O194 O 0.97507 0.20564 0.63429 0.0
O195 O 0.97257 0.25617 0.61296 0.0
C196 C 0.47435 0.30747 0.35078 0.0
O197 O 0.493 0.31663 0.34159 0.0
Cd198 Cd 0.53255 0.30307 0.34999 0.0
O199 O 0.47584 0.29027 0.36492 0.0
Cd200 Cd 0.50642 0.26495 0.38222 0.0
C201 C 0.53491 0.31131 0.40991 0.0
O202 O 0.52591 0.26124 0.34442 0.0
O203 O 0.5429 0.24231 0.37255 0.0
O204 O 0.47676 0.23292 0.38177 0.0
C205 C 0.54166 0.24677 0.35058 0.0
O206 O 0.54248 0.31837 0.3899 0.0
C207 C 0.47935 0.22825 0.40359 0.0
O208 O 0.52154 0.29311 0.41113 0.0
O209 O 0.4943 0.24082 0.41535 0.0
C210 C 0.46588 0.74454 0.18941 0.0
O211 O 0.47574 0.72768 0.20016 0.0
Cd212 Cd 0.50623 0.70331 0.18212 0.0
O213 O 0.47131 0.74907 0.16801 0.0
Cd214 Cd 0.49668 0.73776 0.13452 0.0
C215 C 0.47733 0.68029 0.13282 0.0
O216 O 0.52884 0.73218 0.16091 0.0
O217 O 0.53902 0.72991 0.12406 0.0
O218 O 0.48994 0.77822 0.12391 0.0
C219 C 0.54481 0.72756 0.14566 0.0
O220 O 0.48659 0.67647 0.15308 0.0
C221 C 0.48431 0.77328 0.1025 0.0
O222 O 0.47813 0.70067 0.12386 0.0
O223 O 0.48608 0.75192 0.09561 0.0
C224 C 0.92612 0.02609 0.7724 0.0
O225 O 0.93652 0.01454 0.75587 0.0
Cd226 Cd 0.92734 0.01774 0.71376 0.0
O227 O 0.90892 0.0398 0.76792 0.0
Cd228 Cd 0.88364 0.05397 0.73626 0.0
C229 C 0.86896 -0.00177 0.71543 0.0
O230 O 0.91514 0.05724 0.70829 0.0
O231 O 0.88093 0.06827 0.69543 0.0
O232 O 0.8765 0.09071 0.75807 0.0
C233 C 0.90233 0.06258 0.69065 0.0
O234 O 0.8903 -0.00484 0.70798 0.0
C235 C 0.8541 0.08668 0.76012 0.0
O236 O 0.86318 0.01675 0.72713 0.0
O237 O 0.84576 0.06788 0.75048 0.0
C238 C 0.78671 0.08392 0.48584 0.0
O239 O 0.77731 0.07442 0.50393 0.0
Cd240 Cd 0.74662 0.09338 0.52687 0.0
O241 O 0.78015 0.10418 0.47922 0.0
Cd242 Cd 0.75137 0.13603 0.48694 0.0
C243 C 0.77081 0.1485 0.54263 0.0
O244 O 0.72141 0.10721 0.49627 0.0
O245 O 0.70866 0.14287 0.49663 0.0
O246 O 0.75561 0.13446 0.44477 0.0
C247 C 0.70438 0.1212 0.50022 0.0
O248 O 0.76366 0.1278 0.54794 0.0
C249 C 0.75634 0.15651 0.44155 0.0
O250 O 0.76945 0.1558 0.52142 0.0
O251 O 0.75386 0.16983 0.45978 0.0
C252 C 0.56466 -0.00544 0.27241 0.0
O253 O 0.55286 0.00549 0.25686 0.0
Cd254 Cd 0.55905 0.00197 0.21467 0.0
O255 O 0.58111 0.98027 0.26645 0.0
Cd256 Cd 0.59957 0.96374 0.23029 0.0
C257 C 0.61892 0.01587 0.20833 0.0
O258 O 0.56257 0.96059 0.20873 0.0
O259 O 0.59389 0.95245 0.18813 0.0
O260 O 0.60363 0.92498 0.24753 0.0
C261 C 0.57132 0.9546 0.18885 0.0
O262 O 0.59724 0.02089 0.2037 0.0
C263 C 0.62636 0.92496 0.24629 0.0
O264 O 0.62404 -0.00273 0.21944 0.0
O265 O 0.6365 0.943 0.23757 0.0
C266 C 0.75066 0.90434 0.0175 0.0
O267 O 0.73523 0.91941 0.01152 0.0
Cd268 Cd 0.69517 0.90776 -0.00026 0.0
O269 O 0.7448 0.88272 0.0197 0.0
Cd270 Cd 0.71183 0.85349 0.01913 0.0
C271 C 0.70923 0.86204 0.95987 0.0
O272 O 0.6817 0.88106 0.02885 0.0
O273 O 0.66805 0.84638 0.01992 0.0
O274 O 0.72847 0.84256 0.05646 0.0
C275 C 0.66367 0.86796 0.02422 0.0
O276 O 0.70178 0.88285 0.96431 0.0
C277 C 0.73242 0.82119 0.05078 0.0
O278 O 0.71488 0.84814 0.97645 0.0
O279 O 0.72528 0.81403 0.03038 0.0
C280 C 0.28655 0.55932 0.00891 0.0
O281 O 0.27456 0.55104 0.02612 0.0
Cd282 Cd 0.2415 0.57125 0.04403 0.0
O283 O 0.28178 0.57951 0.00068 0.0
Cd284 Cd 0.2529 0.61218 0.00513 0.0
C285 C 0.26444 0.62552 0.06308 0.0
O286 O 0.22041 0.58429 0.01007 0.0
O287 O 0.20975 0.62061 0.01011 0.0
O288 O 0.26024 0.61183 0.96299 0.0
C289 C 0.20376 0.59908 0.01195 0.0
O290 O 0.25576 0.60518 0.06756 0.0
C291 C 0.26248 0.63394 0.96077 0.0
O292 O 0.26675 0.6323 0.04174 0.0
O293 O 0.25983 0.64658 0.97944 0.0
C294 C 0.07082 0.50543 0.76195 0.0
O295 O 0.06058 0.51644 0.74538 0.0
Cd296 Cd 0.06696 0.51073 0.70349 0.0
O297 O 0.08644 0.48974 0.75746 0.0
Cd298 Cd 0.1053 0.47087 0.72235 0.0
C299 C 0.1269 0.52203 0.69833 0.0
O300 O 0.0679 0.46867 0.70195 0.0
O301 O 0.09705 0.45448 0.68174 0.0
O302 O 0.1141 0.43534 0.74515 0.0
C303 C 0.07498 0.45941 0.68272 0.0
O304 O 0.10593 0.52852 0.69264 0.0
C305 C 0.1363 0.436 0.73995 0.0
O306 O 0.12997 0.50331 0.70989 0.0
O307 O 0.14335 0.45231 0.72641 0.0
C308 C 0.23667 0.40511 0.52885 0.0
O309 O 0.22006 0.41894 0.52294 0.0
Cd310 Cd 0.18061 0.40438 0.51252 0.0
O311 O 0.23261 0.38307 0.53069 0.0
Cd312 Cd 0.20285 0.35064 0.52918 0.0
C313 C 0.19493 0.36052 0.47049 0.0
O314 O 0.17185 0.37596 0.5416 0.0
O315 O 0.15975 0.34059 0.53389 0.0
O316 O 0.2259 0.34084 0.56336 0.0
C317 C 0.15434 0.36194 0.53802 0.0
O318 O 0.18616 0.38051 0.47623 0.0
C319 C 0.22832 0.31915 0.55811 0.0
O320 O 0.20333 0.34681 0.48608 0.0
O321 O 0.2176 0.3113 0.53957 0.0
C322 C 0.43655 0.50382 0.29511 0.0
O323 O 0.44795 0.49156 0.27985 0.0
Cd324 Cd 0.4431 0.49452 0.23739 0.0
O325 O 0.4227 0.52027 0.28893 0.0
Cd326 Cd 0.40756 0.5412 0.25455 0.0
C327 C 0.38106 0.48989 0.23458 0.0
O328 O 0.4418 0.53525 0.23016 0.0
O329 O 0.41188 0.55042 0.21235 0.0
O330 O 0.40955 0.58084 0.273 0.0
C331 C 0.43213 0.5406 0.21067 0.0
O332 O 0.40165 0.48158 0.22959 0.0
C333 C 0.38687 0.5829 0.27349 0.0
O334 O 0.37876 0.50998 0.2448 0.0
O335 O 0.37443 0.56599 0.26466 0.0
O336 O 0.96032 0.04409 0.00805 0.0
Zn337 Zn 0.97772 0.01911 -0.01019 0.0
O338 O 0.97725 -0.01117 0.00582 0.0
Zn339 Zn 0.00977 0.9783 0.01104 0.0
Zn340 Zn 0.96096 -0.00731 0.03642 0.0
Zn341 Zn 0.96114 0.96555 -0.01445 0.0
O342 O 0.01724 0.94776 -0.00546 0.0
O343 O 0.98243 0.93821 0.97763 0.0
O344 O 0.01114 0.03207 -0.01195 0.0
O345 O 0.0333 0.00271 0.00075 0.0
O346 O 0.01636 0.9751 0.04546 0.0
O347 O 0.98268 0.98449 0.06404 0.0
O348 O 0.92993 0.97379 0.0362 0.0
O349 O 0.96492 0.01645 0.95676 0.0
O350 O 0.93087 0.95443 0.00136 0.0
O351 O 0.95313 0.97899 0.95369 0.0
C352 C 0.95329 0.0451 0.02952 0.0
C353 C 0.0043 0.93386 0.98193 0.0
C354 C 0.00459 0.97839 0.06452 0.0
C355 C 0.03144 0.02345 -0.00716 0.0
C356 C 0.92061 0.95938 0.02104 0.0
C357 C 0.95593 -0.0007 0.94476 0.0
O358 O 0.95326 0.0269 0.04243 0.0
O359 O 0.25669 0.72477 0.2235 0.0
Zn360 Zn 0.2517 0.7342 0.25733 0.0
O361 O 0.25602 0.7679 0.26082 0.0
Zn362 Zn 0.28033 0.77473 0.28525 0.0
Zn363 Zn 0.265 0.78216 0.23054 0.0
Zn364 Zn 0.22554 0.78011 0.27064 0.0
O365 O 0.2663 0.79323 0.31287 0.0
O366 O 0.22736 0.79168 0.3043 0.0
O367 O 0.27524 0.71715 0.27668 0.0
O368 O 0.29523 0.74469 0.29737 0.0
O369 O 0.30823 0.79199 0.27125 0.0
O370 O 0.29949 0.79259 0.23274 0.0
O371 O 0.24519 0.81154 0.22431 0.0
O372 O 0.21923 0.72273 0.26754 0.0
O373 O 0.21684 0.80792 0.25173 0.0
O374 O 0.19907 0.75615 0.26914 0.0
C375 C 0.26061 0.73519 0.20402 0.0
C376 C 0.24451 0.79716 0.31829 0.0
C377 C 0.31403 0.79636 0.2499 0.0
C378 C 0.29115 0.72315 0.2918 0.0
C379 C 0.22623 0.81895 0.23454 0.0
C380 C 0.19971 0.7338 0.26988 0.0
O381 O 0.26305 0.75762 0.20332 0.0
O382 O 0.49675 0.96301 0.50045 0.0
Zn383 Zn 0.48244 -0.00984 0.48338 0.0
O384 O 0.48868 0.01958 0.50095 0.0
Zn385 Zn 0.45891 0.03553 0.50851 0.0
Zn386 Zn 0.50664 0.01371 0.53005 0.0
Zn387 Zn 0.50675 0.04018 0.48092 0.0
O388 O 0.45567 0.06733 0.49366 0.0
O389 O 0.48692 0.06663 0.46931 0.0
O390 O 0.44712 0.9831 0.48164 0.0
O391 O 0.43137 0.0156 0.49733 0.0
O392 O 0.4541 0.03811 0.54347 0.0
O393 O 0.48561 0.02018 0.55852 0.0
O394 O 0.53685 0.03413 0.53217 0.0
O395 O 0.49628 -0.00899 0.45024 0.0
O396 O 0.53417 0.05429 0.49875 0.0
O397 O 0.51907 0.02342 0.45212 0.0
C398 C 0.50886 0.96113 0.51946 0.0
C399 C 0.46777 0.07611 0.47678 0.0
C400 C 0.46543 0.03016 0.56113 0.0
C401 C 0.42904 -0.00478 0.48776 0.0
C402 C 0.54449 0.05013 0.51833 0.0
C403 C 0.51189 0.0048 0.44125 0.0
O404 O 0.51459 0.97918 0.53216 0.0
O405 O 0.24536 0.23977 0.81572 0.0
Zn406 Zn 0.2593 0.25694 0.78826 0.0
O407 O 0.25576 0.23834 0.75915 0.0
Zn408 Zn 0.28632 0.22726 0.74684 0.0
Zn409 Zn 0.23422 0.21171 0.76423 0.0
Zn410 Zn 0.24221 0.259 0.73653 0.0
O411 O 0.29052 0.23419 0.71171 0.0
O412 O 0.25832 0.25588 0.7054 0.0
O413 O 0.29424 0.26229 0.79487 0.0
O414 O 0.31291 0.24304 0.7655 0.0
O415 O 0.28821 0.19188 0.7499 0.0
O416 O 0.24994 0.18154 0.7546 0.0
O417 O 0.20287 0.21529 0.74684 0.0
O418 O 0.24335 0.28871 0.78627 0.0
O419 O 0.20792 0.25084 0.73141 0.0
O420 O 0.24307 0.29267 0.74716 0.0
C421 C 0.23315 0.22078 0.81742 0.0
C422 C 0.2771 0.24574 0.69798 0.0
C423 C 0.27178 0.17612 0.75133 0.0
C424 C 0.31333 0.25607 0.78421 0.0
C425 C 0.19495 0.23279 0.73551 0.0
C426 C 0.24051 0.30125 0.76799 0.0
O427 O 0.22736 0.20844 0.79914 0.0
O428 O 0.0021 0.0028 0.43134 0.0
Zn429 Zn 0.9757 -0.01097 0.4513 0.0
O430 O 0.97928 0.0009 0.48362 0.0
Zn431 Zn 0.98144 0.97498 0.50536 0.0
Zn432 Zn 0.00695 0.02241 0.48679 0.0
Zn433 Zn 0.95098 0.01767 0.49232 0.0
O434 O 0.95844 0.97905 0.53243 0.0
O435 O 0.93074 0.00112 0.51626 0.0
O436 O 0.97922 0.95377 0.45064 0.0
O437 O 0.97856 0.94337 0.48853 0.0
O438 O 0.01366 0.97537 0.52001 0.0
O439 O 0.03256 0.00688 0.50602 0.0
O440 O -0.00143 0.05222 0.50539 0.0
O441 O 0.94357 -0.00199 0.43687 0.0
O442 O 0.95927 0.04747 0.50944 0.0
O443 O 0.93116 0.02387 0.46429 0.0
C444 C 0.01809 0.01885 0.43437 0.0
C445 C 0.93841 -0.01057 0.53367 0.0
C446 C 0.03217 -0.01146 0.51875 0.0
C447 C 0.97955 0.93798 0.46647 0.0
C448 C 0.9785 0.05895 0.51372 0.0
C449 C 0.92913 0.01386 0.44401 0.0
O450 O 0.02114 0.02933 0.45443 0.0
O451 O 0.29285 0.72687 0.74015 0.0
Zn452 Zn 0.2605 0.72318 0.75556 0.0
O453 O 0.24081 0.70239 0.73566 0.0
Zn454 Zn 0.21029 0.71675 0.72839 0.0
Zn455 Zn 0.25617 0.6946 0.70588 0.0
Zn456 Zn 0.23618 0.67378 0.75279 0.0
O457 O 0.18317 0.69943 0.74424 0.0
O458 O 0.20243 0.6723 0.76468 0.0
O459 O 0.24598 0.75544 0.75751 0.0
O460 O 0.2107 0.75039 0.73973 0.0
O461 O 0.20524 0.72096 0.69326 0.0
O462 O 0.24164 0.7128 0.67986 0.0
O463 O 0.25151 0.66028 0.69707 0.0
O464 O 0.26534 0.71023 0.78855 0.0
O465 O 0.24054 0.64551 0.73174 0.0
O466 O 0.25701 0.67234 0.78153 0.0
C467 C 0.30219 0.71848 0.72118 0.0
C468 C 0.18324 0.68275 0.75913 0.0
C469 C 0.22087 0.72112 0.67677 0.0
C470 C 0.22613 0.76353 0.75028 0.0
C471 C 0.24562 0.64285 0.70984 0.0
C472 C 0.26513 0.68881 0.79504 0.0
O473 O 0.29051 0.70484 0.707 0.0
O474 O 0.48773 0.98454 0.02301 0.0
Zn475 Zn 0.4818 0.98067 -0.01183 0.0
O476 O 0.4518 0.96363 0.98237 0.0
Zn477 Zn 0.45816 0.93332 0.9665 0.0
Zn478 Zn 0.43488 0.95886 0.01239 0.0
Zn479 Zn 0.43211 0.98235 0.96218 0.0
O480 O 0.44226 0.93046 0.9342 0.0
O481 O 0.42247 0.96417 0.93328 0.0
O482 O 0.50972 0.96152 0.97738 0.0
O483 O 0.49374 0.92759 0.96452 0.0
O484 O 0.44554 0.90699 -0.01365 0.0
O485 O 0.428 0.92458 0.01716 0.0
O486 O 0.40424 0.97711 0.0146 0.0
O487 O 0.48263 0.01263 0.9732 0.0
O488 O 0.40235 -0.00767 0.97868 0.0
O489 O 0.44857 0.0123 0.9529 0.0
C490 C 0.47635 0.97823 0.04146 0.0
C491 C 0.42775 0.94426 0.9241 0.0
C492 C 0.43401 0.90597 0.00582 0.0
C493 C 0.51199 0.94046 0.96959 0.0
C494 C 0.39363 -0.01051 -0.00071 0.0
C495 C 0.46804 0.02248 0.95924 0.0
O496 O 0.45582 0.96832 0.03997 0.0
O497 O 0.20114 0.28417 0.23614 0.0
Zn498 Zn 0.22816 0.28228 0.2595 0.0
O499 O 0.25575 0.29957 0.24703 0.0
Zn500 Zn 0.28222 0.27784 0.24212 0.0
Zn501 Zn 0.24809 0.3147 0.21707 0.0
Zn502 Zn 0.26463 0.3241 0.26971 0.0
O503 O 0.31071 0.28778 0.26186 0.0
O504 O 0.29717 0.31828 0.28312 0.0
O505 O 0.23497 0.2478 0.26249 0.0
O506 O 0.27213 0.24411 0.2489 0.0
O507 O 0.29213 0.27657 0.20805 0.0
O508 O 0.26587 0.29928 0.19025 0.0
O509 O 0.25728 0.34917 0.21695 0.0
O510 O 0.21726 0.29508 0.29151 0.0
O511 O 0.26663 0.35569 0.2548 0.0
O512 O 0.24154 0.32614 0.29638 0.0
C513 C 0.1974 0.29622 0.21766 0.0
C514 C 0.31368 0.3039 0.27769 0.0
C515 C 0.28329 0.28506 0.18928 0.0
C516 C 0.25284 0.2351 0.25702 0.0
C517 C 0.26388 0.36302 0.2338 0.0
C518 C 0.22414 0.31333 0.30328 0.0
O519 O 0.21325 0.3101 0.20925 0.0
O520 O 0.5036 0.48957 0.94943 0.0
Zn521 Zn 0.48264 0.471 0.97157 0.0
O522 O 0.4882 0.48126 0.00444 0.0
Zn523 Zn 0.50111 0.45582 0.02339 0.0
Zn524 Zn 0.50982 0.50892 0.0051 0.0
Zn525 Zn 0.45791 0.48931 0.01848 0.0
O526 O 0.4828 0.45045 0.05385 0.0
O527 O 0.45081 0.47212 0.04787 0.0
O528 O 0.49341 0.43755 0.96777 0.0
O529 O 0.50512 0.42605 0.00352 0.0
O530 O 0.53336 0.46542 0.03497 0.0
O531 O 0.53965 0.50245 0.02408 0.0
O532 O 0.49374 0.53712 0.01986 0.0
O533 O 0.4476 0.47434 0.96135 0.0
O534 O 0.4577 0.52297 0.02914 0.0
O535 O 0.43132 0.48408 -0.00385 0.0
C536 C 0.51772 0.50725 0.95203 0.0
C537 C 0.4627 0.45838 0.06074 0.0
C538 C 0.54624 0.48406 0.0348 0.0
C539 C 0.50199 0.42202 0.98136 0.0
C540 C 0.47296 0.53977 0.0288 0.0
C541 C 0.42938 0.47888 0.97424 0.0
O542 O 0.52122 0.51701 0.97229 0.0
O543 O 0.77601 0.23441 0.21585 0.0
Zn544 Zn 0.74329 0.23267 0.23059 0.0
O545 O 0.72382 0.21029 0.21239 0.0
Zn546 Zn 0.69517 0.22515 0.20038 0.0
Zn547 Zn 0.74131 0.19712 0.18577 0.0
Zn548 Zn 0.71547 0.1851 0.23293 0.0
O549 O 0.66537 0.21202 0.21589 0.0
O550 O 0.68119 0.18812 0.24235 0.0
O551 O 0.72888 0.26472 0.23033 0.0
O552 O 0.69598 0.25968 0.20852 0.0
O553 O 0.69466 0.22561 0.1646 0.0
O554 O 0.73159 0.21379 0.15633 0.0
O555 O 0.73435 0.16216 0.18121 0.0
O556 O 0.74799 0.223 0.26466 0.0
O557 O 0.71938 0.15407 0.21678 0.0
O558 O 0.73467 0.18598 0.26268 0.0
C559 C 0.78705 0.22082 0.20141 0.0
C560 C 0.66322 0.19857 0.23372 0.0
C561 C 0.71211 0.22336 0.15014 0.0
C562 C 0.71018 0.2728 0.22064 0.0
C563 C 0.72632 0.14752 0.19623 0.0
C564 C 0.74516 0.20283 0.27387 0.0
O565 O 0.77648 0.2039 0.19025 0.0
O566 O -0.0136 0.48219 0.51828 0.0
Zn567 Zn 0.97951 0.47649 0.48389 0.0
O568 O 0.9492 0.45953 0.48008 0.0
Zn569 Zn 0.95516 0.42785 0.46742 0.0
Zn570 Zn 0.93265 0.45794 0.51073 0.0
Zn571 Zn 0.92965 0.47633 0.45797 0.0
O572 O 0.94031 0.42217 0.43506 0.0
O573 O 0.92054 0.45557 0.43045 0.0
O574 O 0.00726 0.45656 0.47389 0.0
O575 O -0.00955 0.42144 0.46698 0.0
O576 O 0.94155 0.40375 0.48933 0.0
O577 O 0.92537 0.42441 0.51893 0.0
O578 O 0.90191 0.47617 0.5109 0.0
O579 O 0.97975 0.5077 0.46744 0.0
O580 O 0.89945 0.48697 0.47331 0.0
O581 O 0.94583 0.506 0.44688 0.0
C582 C 0.97524 0.47814 0.53749 0.0
C583 C 0.92607 0.43492 0.42336 0.0
C584 C 0.93048 0.40475 0.50908 0.0
C585 C 0.009 0.43451 0.46965 0.0
C586 C 0.8909 0.48633 0.49421 0.0
C587 C 0.96511 0.51673 0.45295 0.0
O588 O 0.95412 0.46941 0.53732 0.0
O589 O 0.74769 0.73182 0.30323 0.0
Zn590 Zn 0.76064 0.74789 0.27427 0.0
O591 O 0.75754 0.72695 0.24651 0.0
Zn592 Zn 0.78851 0.71687 0.23423 0.0
Zn593 Zn 0.73729 0.70015 0.25417 0.0
Zn594 Zn 0.74249 0.74361 0.2217 0.0
O595 O 0.79276 0.72413 0.19908 0.0
O596 O 0.76518 0.75184 0.19612 0.0
O597 O 0.79533 0.75557 0.28019 0.0
O598 O 0.81429 0.73438 0.25243 0.0
O599 O 0.7928 0.68203 0.23953 0.0
O600 O 0.75647 0.67102 0.25157 0.0
O601 O 0.70862 0.69656 0.23255 0.0
O602 O 0.74148 0.77778 0.27074 0.0
O603 O 0.71642 0.72453 0.20656 0.0
O604 O 0.72704 0.7724 0.23427 0.0
C605 C 0.7337 0.71413 0.30585 0.0
C606 C 0.78305 0.74078 0.18782 0.0
C607 C 0.77806 0.66619 0.24637 0.0
C608 C 0.81454 0.74883 0.27005 0.0
C609 C 0.70387 0.70708 0.21338 0.0
C610 C 0.72826 0.78417 0.25364 0.0
O611 O 0.72688 0.70144 0.28817 0.0
O612 O 0.73756 0.2316 0.70149 0.0
Zn613 Zn 0.72229 0.23557 0.73303 0.0
O614 O 0.72472 0.26809 0.7435 0.0
Zn615 Zn 0.74296 0.26945 0.77318 0.0
Zn616 Zn 0.74061 0.28683 0.71909 0.0
Zn617 Zn 0.69274 0.28006 0.74853 0.0
O618 O 0.72386 0.28436 0.79929 0.0
O619 O 0.68807 0.28943 0.78289 0.0
O620 O 0.73873 0.21415 0.75509 0.0
O621 O 0.75217 0.23739 0.78432 0.0
O622 O 0.77474 0.28555 0.76852 0.0
O623 O 0.77381 0.29487 0.73038 0.0
O624 O 0.72293 0.31739 0.71368 0.0
O625 O 0.68855 0.22389 0.73158 0.0
O626 O 0.68792 0.30975 0.73089 0.0
O627 O 0.66743 0.25579 0.74021 0.0
C628 C 0.74538 0.24523 0.68548 0.0
C629 C 0.70208 0.29062 0.80072 0.0
C630 C 0.78491 0.29363 0.75008 0.0
C631 C 0.74942 0.21705 0.77485 0.0
C632 C 0.70162 0.32334 0.71914 0.0
C633 C 0.66857 0.23398 0.73457 0.0
O634 O 0.74571 0.2676 0.68845 0.0
O635 O 0.71733 0.77598 0.73235 0.0
Zn636 Zn 0.74608 0.77417 0.75336 0.0
O637 O 0.7736 0.78845 0.73756 0.0
Zn638 Zn 0.79814 0.76462 0.73228 0.0
Zn639 Zn 0.76453 0.80173 0.70699 0.0
Zn640 Zn 0.78563 0.81366 0.75802 0.0
O641 O 0.82847 0.77381 0.74942 0.0
O642 O 0.81935 0.80757 0.76785 0.0
O643 O 0.75118 0.7399 0.75876 0.0
O644 O 0.7865 0.73226 0.74232 0.0
O645 O 0.80571 0.7607 0.69771 0.0
O646 O 0.78174 0.78584 0.68013 0.0
O647 O 0.77151 0.83661 0.70525 0.0
O648 O 0.73834 0.78949 0.78491 0.0
O649 O 0.78506 0.8444 0.74169 0.0
O650 O 0.76608 0.81778 0.7873 0.0
C651 C 0.71336 0.78465 0.71204 0.0
C652 C 0.83412 0.79131 0.76288 0.0
C653 C 0.79755 0.76992 0.679 0.0
C654 C 0.76755 0.72551 0.75298 0.0
C655 C 0.77928 0.85107 0.72107 0.0
C656 C 0.748 0.80701 0.79578 0.0
O657 O 0.7297 0.79542 0.70058 0.0
O658 O 0.44516 0.54691 0.52541 0.0
Zn659 Zn 0.4661 0.52041 0.51447 0.0
O660 O 0.46271 0.49286 0.53428 0.0
Zn661 Zn 0.49423 0.48324 0.54393 0.0
Zn662 Zn 0.44299 0.50075 0.56181 0.0
Zn663 Zn 0.44884 0.46682 0.51624 0.0
O664 O 0.50506 0.45355 0.52768 0.0
O665 O 0.47011 0.43841 0.51578 0.0
O666 O 0.49894 0.53473 0.5173 0.0
O667 O 0.51844 0.50877 0.53863 0.0
O668 O 0.49479 0.47855 0.57864 0.0
O669 O 0.46137 0.4948 0.59235 0.0
O670 O 0.41141 0.48237 0.56052 0.0
O671 O 0.46035 0.51191 0.48041 0.0
O672 O 0.41694 0.45808 0.5295 0.0
O673 O 0.44497 0.47555 0.48191 0.0
C674 C 0.43683 0.55133 0.54605 0.0
C675 C 0.4926 0.4366 0.51894 0.0
C676 C 0.48159 0.48518 0.59584 0.0
C677 C 0.51775 0.5283 0.52795 0.0
C678 C 0.40414 0.46573 0.54662 0.0
C679 C 0.45139 0.49361 0.47026 0.0
O680 O 0.43606 0.53552 0.56187 0.0
O681 O -0.00691 0.45449 0.98208 0.0
Zn682 Zn 0.98008 0.48302 0.96558 0.0
O683 O 0.98058 0.51099 -0.01333 0.0
Zn684 Zn 0.94781 0.521 -0.00727 0.0
Zn685 Zn -0.00327 0.50382 0.01644 0.0
Zn686 Zn -0.00237 0.53677 0.97202 0.0
O687 O 0.94221 0.55494 -0.01465 0.0
O688 O 0.97748 0.56553 0.9703 0.0
O689 O 0.94634 0.47376 0.95649 0.0
O690 O 0.92435 0.50148 0.97391 0.0
O691 O 0.93993 0.51704 0.02694 0.0
O692 O 0.97464 0.50914 0.04418 0.0
O693 O 0.02767 0.52245 0.02134 0.0
O694 O -0.00195 0.48964 0.93525 0.0
O695 O 0.02645 0.54636 -0.00937 0.0
O696 O 0.00908 0.52738 0.93961 0.0
C697 C 0.00134 0.4519 0.00296 0.0
C698 C 0.95612 0.57026 0.9764 0.0
C699 C 0.95226 0.51313 0.04541 0.0
C700 C 0.92617 0.48309 0.96081 0.0
C701 C 0.03651 0.53933 0.0094 0.0
C702 C 0.00829 0.5082 0.92752 0.0
O703 O 0.00381 0.46939 0.01728 0.0
H704 H -0.00887 0.155 0.12619 0.0
H705 H 0.95058 0.08797 0.00795 0.0
H706 H 0.97515 0.19167 0.06164 0.0
H707 H 0.95012 0.05597 0.07699 0.0
H708 H 0.95689 0.12651 0.02715 0.0
H709 H 0.97533 0.1187 0.10818 0.0
C710 C -0.01557 0.15541 0.10815 0.0
C711 C -0.01532 0.17641 0.09534 0.0
C712 C 0.95497 0.1111 0.03811 0.0
C713 C 0.96628 0.13479 0.07464 0.0
C714 C 0.95123 0.08908 0.02717 0.0
C715 C 0.95024 0.06861 0.04084 0.0
C716 C 0.958 0.11259 0.06284 0.0
C717 C 0.95102 0.07119 0.06568 0.0
C718 C 0.97516 0.13469 0.09796 0.0
C719 C 0.97544 0.17587 0.07212 0.0
N720 N 0.95531 0.09272 0.07585 0.0
N721 N 0.96677 0.15533 0.06244 0.0
H722 H 0.09946 0.70078 0.3731 0.0
H723 H 0.15427 0.74099 0.25488 0.0
H724 H 0.05606 0.70722 0.31011 0.0
H725 H 0.19596 0.69903 0.30232 0.0
H726 H 0.1177 0.72685 0.27408 0.0
H727 H 0.13515 0.69794 0.34777 0.0
C728 C 0.09741 0.7012 0.35398 0.0
C729 C 0.07492 0.70484 0.34369 0.0
C730 C 0.13479 0.72023 0.27993 0.0
C731 C 0.11535 0.70171 0.31485 0.0
C732 C 0.15559 0.72831 0.26897 0.0
C733 C 0.17795 0.72117 0.27717 0.0
C734 C 0.13653 0.70564 0.29973 0.0
C735 C 0.1789 0.70481 0.29552 0.0
C736 C 0.11771 0.69945 0.33956 0.0
C737 C 0.07315 0.70496 0.31882 0.0
N738 N 0.15843 0.69803 0.30669 0.0
N739 N 0.09316 0.70392 0.30527 0.0
H740 H 0.50662 0.8469 0.61628 0.0
H741 H 0.50282 0.91852 0.49625 0.0
H742 H 0.50369 0.81239 0.54733 0.0
H743 H 0.52404 0.94931 0.56389 0.0
H744 H 0.50302 0.87952 0.51401 0.0
H745 H 0.51167 0.88474 0.59702 0.0
C746 C 0.50689 0.84729 0.59705 0.0
C747 C 0.50461 0.82645 0.58338 0.0
C748 C 0.50793 0.89479 0.52486 0.0
C749 C 0.51058 0.86982 0.56118 0.0
C750 C 0.50788 0.91707 0.51473 0.0
C751 C 0.51321 0.93729 0.52865 0.0
C752 C 0.51305 0.89274 0.54913 0.0
C753 C 0.51973 0.93428 0.55247 0.0
C754 C 0.50998 0.86892 0.58607 0.0
C755 C 0.50529 0.82805 0.55854 0.0
N756 N 0.51915 0.91247 0.56202 0.0
N757 N 0.50811 0.84941 0.5482 0.0
H758 H 0.43646 0.25174 0.87163 0.0
H759 H 0.35534 0.26319 0.76067 0.0
H760 H 0.46103 0.28819 0.80925 0.0
H761 H 0.32412 0.26495 0.83082 0.0
H762 H 0.39466 0.27147 0.77827 0.0
H763 H 0.39511 0.25604 0.85795 0.0
C764 C 0.43316 0.26099 0.85531 0.0
C765 C 0.45222 0.26923 0.84134 0.0
C766 C 0.37913 0.2704 0.78977 0.0
C767 C 0.40526 0.27383 0.82556 0.0
C768 C 0.35679 0.26551 0.77976 0.0
C769 C 0.33661 0.26322 0.79437 0.0
C770 C 0.38135 0.27236 0.81457 0.0
C771 C 0.33933 0.26658 0.81899 0.0
C772 C 0.4096 0.26349 0.84758 0.0
C773 C 0.44692 0.2813 0.82046 0.0
N774 N 0.36144 0.27055 0.82842 0.0
N775 N 0.42394 0.28279 0.81293 0.0
H776 H -0.00035 0.78588 0.44207 0.0
H777 H 0.97985 0.89837 0.49411 0.0
H778 H 0.04054 0.82544 0.39083 0.0
H779 H -0.00908 0.92136 0.42215 0.0
H780 H -0.00746 0.85875 0.48196 0.0
H781 H -0.01193 0.82301 0.46141 0.0
C782 C 0.00669 0.8023 0.43523 0.0
C783 C 0.02094 0.8025 0.41463 0.0
C784 C -0.00822 0.87238 0.46879 0.0
C785 C 0.00767 0.845 0.43659 0.0
C786 C -0.01544 0.89503 0.4757 0.0
C787 C -0.01582 0.91325 0.45911 0.0
C788 C -0.00117 0.86807 0.44517 0.0
C789 C -0.00926 0.90792 0.43556 0.0
C790 C 5e-05 0.82352 0.4463 0.0
C791 C 0.02939 0.82434 0.40651 0.0
N792 N -0.002 0.88593 0.4294 0.0
N793 N 0.0223 0.84466 0.41727 0.0
H794 H 0.45255 0.75102 0.71592 0.0
H795 H 0.32137 0.71848 0.67676 0.0
H796 H 0.42664 0.76226 0.64481 0.0
H797 H 0.33764 0.73733 0.74971 0.0
H798 H 0.36074 0.73324 0.66505 0.0
H799 H 0.41115 0.74634 0.72945 0.0
C800 C 0.43813 0.753 0.70326 0.0
C801 C 0.443 0.75667 0.67914 0.0
C802 C 0.35564 0.73429 0.6836 0.0
C803 C 0.39587 0.75085 0.69438 0.0
C804 C 0.33331 0.72558 0.69035 0.0
C805 C 0.32637 0.72646 0.71429 0.0
C806 C 0.37134 0.74354 0.70095 0.0
C807 C 0.34239 0.73623 0.73108 0.0
C808 C 0.41455 0.75032 0.711 0.0
C809 C 0.42369 0.75929 0.66353 0.0
N810 N 0.36433 0.74418 0.72412 0.0
N811 N 0.40094 0.75583 0.67133 0.0
H812 H 0.46 0.15783 0.89223 0.0
H813 H 0.50561 0.0519 0.9717 0.0
H814 H 0.52262 0.16271 0.93716 0.0
H815 H 0.4412 0.04869 0.92913 0.0
H816 H 0.51182 0.09279 0.95993 0.0
H817 H 0.45184 0.11837 0.90709 0.0
C818 C 0.47187 0.15071 0.90544 0.0
C819 C 0.49209 0.16349 0.91338 0.0
C820 C 0.49633 0.08311 0.95319 0.0
C821 C 0.48308 0.11823 0.9302 0.0
C822 C 0.49284 0.05972 0.95979 0.0
C823 C 0.47289 0.04679 0.95134 0.0
C824 C 0.47978 0.09362 0.938 0.0
C825 C 0.45687 0.05792 0.93607 0.0
C826 C 0.46727 0.12813 0.91385 0.0
C827 C 0.50686 0.15343 0.93052 0.0
N828 N 0.46068 0.08067 0.92989 0.0
N829 N 0.50217 0.13129 0.93822 0.0
H830 H 0.05802 0.30342 0.15418 0.0
H831 H 0.17271 0.25491 0.21249 0.0
H832 H 0.08651 0.23724 0.12895 0.0
H833 H 0.17219 0.32779 0.19174 0.0
H834 H 0.13707 0.24736 0.18794 0.0
H835 H 0.09648 0.3126 0.1736 0.0
C836 C 0.07253 0.29097 0.15259 0.0
C837 C 0.06935 0.26961 0.14004 0.0
C838 C 0.14485 0.26496 0.1888 0.0
C839 C 0.11265 0.2796 0.16258 0.0
C840 C 0.16491 0.26936 0.20296 0.0
C841 C 0.17516 0.29205 0.20421 0.0
C842 C 0.13469 0.28353 0.1764 0.0
C843 C 0.16468 0.31009 0.19124 0.0
C844 C 0.09434 0.29623 0.16355 0.0
C845 C 0.08849 0.25395 0.1384 0.0
N846 N 0.14471 0.30552 0.17805 0.0
N847 N 0.10932 0.25906 0.15001 0.0
H848 H 0.12515 0.00812 0.1538 0.0
H849 H -0.00981 -0.00421 0.10814 0.0
H850 H 0.06433 0.02711 0.19716 0.0
H851 H 0.05055 0.96439 0.07212 0.0
H852 H 0.01638 0.0061 0.14172 0.0
H853 H 0.09771 -0.0078 0.12352 0.0
C854 C 0.10603 0.00908 0.15688 0.0
C855 C 0.09702 0.01903 0.17797 0.0
C856 C 0.02378 -0.00336 0.12659 0.0
C857 C 0.06547 0.00065 0.14352 0.0
C858 C 0.00877 -0.00944 0.10749 0.0
C859 C 0.01821 0.97947 0.08711 0.0
C860 C 0.04837 -0.00827 0.12519 0.0
C861 C 0.0425 0.97321 0.0873 0.0
C862 C 0.09035 -0.0002 0.13968 0.0
C863 C 0.07205 0.01962 0.18111 0.0
N864 N 0.05678 0.97973 0.10584 0.0
N865 N 0.05715 0.01064 0.16404 0.0
H866 H 0.22132 0.90323 0.42659 0.0
H867 H 0.20668 0.78811 0.34729 0.0
H868 H 0.20155 0.83743 0.45903 0.0
H869 H 0.26874 0.83358 0.34008 0.0
H870 H 0.19584 0.80973 0.38388 0.0
H871 H 0.22936 0.88171 0.38924 0.0
C872 C 0.21816 0.88435 0.42566 0.0
C873 C 0.21078 0.872 0.44579 0.0
C874 C 0.21182 0.81486 0.37423 0.0
C875 C 0.21976 0.84759 0.40346 0.0
C876 C 0.21801 0.80262 0.35348 0.0
C877 C 0.2387 0.80907 0.3409 0.0
C878 C 0.22601 0.83409 0.38187 0.0
C879 C 0.2528 0.82798 0.34951 0.0
C880 C 0.22298 0.87214 0.40452 0.0
C881 C 0.20727 0.84751 0.44384 0.0
N882 N 0.24603 0.84008 0.3694 0.0
N883 N 0.21169 0.83604 0.42294 0.0
H884 H 0.40473 0.96109 0.68125 0.0
H885 H 0.42207 0.04891 0.57327 0.0
H886 H 0.34657 -0.00389 0.6464 0.0
H887 H 0.47848 0.00544 0.60041 0.0
H888 H 0.39595 0.03554 0.60513 0.0
H889 H 0.43313 0.98153 0.65563 0.0
C890 C 0.39792 0.973 0.6681 0.0
C891 C 0.37323 0.97678 0.6658 0.0
C892 C 0.41415 0.02919 0.6043 0.0
C893 C 0.4057 0.00051 0.63669 0.0
C894 C 0.42919 0.03697 0.58623 0.0
C895 C 0.45238 0.02788 0.58383 0.0
C896 C 0.42236 0.01222 0.62008 0.0
C897 C 0.46066 0.0127 0.60136 0.0
C898 C 0.41417 0.98476 0.65358 0.0
C899 C 0.36543 -0.00749 0.64859 0.0
N900 N 0.44551 0.00503 0.61853 0.0
N901 N 0.38164 0.00381 0.63467 0.0
H902 H 0.21788 0.13086 0.93834 0.0
H903 H 0.23534 0.24521 0.85961 0.0
H904 H 0.22154 0.20183 0.96733 0.0
H905 H 0.21802 0.17645 0.82962 0.0
H906 H 0.22996 0.22949 0.89926 0.0
H907 H 0.21805 0.14694 0.89827 0.0
C908 C 0.21872 0.1498 0.93627 0.0
C909 C 0.21984 0.16504 0.95615 0.0
C910 C 0.22712 0.21787 0.88402 0.0
C911 C 0.21998 0.1835 0.91053 0.0
C912 C 0.2302 0.22684 0.86136 0.0
C913 C 0.22728 0.21208 0.84128 0.0
C914 C 0.22134 0.1939 0.88667 0.0
C915 C 0.22047 0.18845 0.84462 0.0
C916 C 0.21869 0.15896 0.91342 0.0
C917 C 0.22074 0.18943 0.95249 0.0
N918 N 0.21797 0.18001 0.86693 0.0
N919 N 0.22091 0.19789 0.93012 0.0
H920 H 0.10989 0.00858 0.31158 0.0
H921 H 0.04235 0.06033 0.42567 0.0
H922 H 0.09177 0.08221 0.31779 0.0
H923 H 0.03056 -0.0102 0.39761 0.0
H924 H 0.06848 0.06865 0.39149 0.0
H925 H 0.08944 0.00152 0.34927 0.0
C926 C 0.10197 0.02334 0.32105 0.0
C927 C 0.10232 0.04598 0.31142 0.0
C928 C 0.06018 0.05137 0.39298 0.0
C929 C 0.079 0.03799 0.3545 0.0
C930 C 0.04535 0.04661 0.41241 0.0
C931 C 0.03412 0.02443 0.41431 0.0
C932 C 0.06422 0.03361 0.37579 0.0
C933 C 0.03862 0.00724 0.39668 0.0
C934 C 0.09019 0.01925 0.34246 0.0
C935 C 0.0917 0.06444 0.32448 0.0
N936 N 0.0534 0.01215 0.37823 0.0
N937 N 0.08039 0.06003 0.34537 0.0
H938 H 0.2282 0.85027 0.60637 0.0
H939 H 0.24049 0.71562 0.63258 0.0
H940 H 0.23551 0.80026 0.54817 0.0
H941 H 0.1942 0.76076 0.67402 0.0
H942 H 0.24276 0.7459 0.60204 0.0
H943 H 0.22155 0.81748 0.63333 0.0
C944 C 0.22881 0.83238 0.59934 0.0
C945 C 0.23248 0.82791 0.57505 0.0
C946 C 0.23173 0.74889 0.61761 0.0
C947 C 0.22467 0.7905 0.60567 0.0
C948 C 0.2303 0.73163 0.63492 0.0
C949 C 0.21712 0.73573 0.65579 0.0
C950 C 0.22047 0.77055 0.62163 0.0
C951 C 0.2044 0.75682 0.65811 0.0
C952 C 0.22467 0.81374 0.61465 0.0
C953 C 0.23277 0.8044 0.56682 0.0
N954 N 0.20682 0.7737 0.64145 0.0
N955 N 0.22903 0.78648 0.58216 0.0
H956 H 0.33615 0.94445 0.80262 0.0
H957 H 0.44032 0.9091 0.8921 0.0
H958 H 0.39397 0.89861 0.78186 0.0
H959 H 0.38774 0.963 0.90526 0.0
H960 H 0.42045 0.89952 0.85407 0.0
H961 H 0.35119 0.94513 0.8431 0.0
C962 C 0.35195 0.93436 0.80664 0.0
C963 C 0.36409 0.9218 0.78879 0.0
C964 C 0.41327 0.91332 0.86544 0.0
C965 C 0.38166 0.92274 0.83514 0.0
C966 C 0.42457 0.91879 0.88708 0.0
C967 C 0.41588 0.93711 0.90166 0.0
C968 C 0.39307 0.92613 0.85866 0.0
C969 C 0.39535 0.94902 0.89442 0.0
C970 C 0.36056 0.93477 0.82978 0.0
C971 C 0.38421 0.90869 0.79511 0.0
N972 N 0.38474 0.94337 0.87345 0.0
N973 N 0.39262 0.90977 0.81778 0.0
H974 H 0.24471 0.21284 0.06231 0.0
H975 H 0.31432 0.24889 0.18078 0.0
H976 H 0.26626 0.16543 0.11725 0.0
H977 H 0.26589 0.29534 0.1451 0.0
H978 H 0.31159 0.22149 0.14704 0.0
H979 H 0.26547 0.2453 0.08365 0.0
C980 C 0.25404 0.20924 0.0787 0.0
C981 C 0.25337 0.18662 0.0884 0.0
C982 C 0.30212 0.23802 0.14636 0.0
C983 C 0.27758 0.22321 0.11221 0.0
C984 C 0.30374 0.25376 0.16555 0.0
C985 C 0.28942 0.27393 0.16621 0.0
C986 C 0.2862 0.24261 0.1278 0.0
C987 C 0.27658 0.27958 0.14567 0.0
C988 C 0.26594 0.22768 0.09071 0.0
C989 C 0.26589 0.18275 0.1095 0.0
N990 N 0.27473 0.26362 0.12748 0.0
N991 N 0.2774 0.20092 0.12077 0.0
H992 H 0.1315 0.14068 0.0153 0.0
H993 H 0.07786 0.01076 -0.0008 0.0
H994 H 0.1585 0.07907 0.04987 0.0
H995 H 0.03354 0.07165 -0.01109 0.0
H996 H 0.11106 0.03687 0.01021 0.0
H997 H 0.09713 0.11693 0.00075 0.0
C998 C 0.12995 0.12235 0.02022 0.0
C999 C 0.14795 0.11171 0.03358 0.0
C1000 C 0.09411 0.04453 0.00538 0.0
C1001 C 0.1095 0.0846 0.0165 0.0
C1002 C 0.0752 0.02964 -0.00114 0.0
C1003 C 0.05277 0.03902 -0.00644 0.0
C1004 C 0.0906 0.06898 0.00658 0.0
C1005 C 0.05051 0.06368 -0.00692 0.0
C1006 C 0.11054 0.10881 0.01173 0.0
C1007 C 0.14518 0.0879 0.03937 0.0
N1008 N 0.06918 0.07789 -0.00016 0.0
N1009 N 0.12651 0.0751 0.03056 0.0
H1010 H 0.69266 0.46082 0.02172 0.0
H1011 H 0.56054 0.45699 0.07133 0.0
H1012 H 0.65894 0.40198 0.05671 0.0
H1013 H 0.58683 0.50805 0.02144 0.0
H1014 H 0.60167 0.44584 0.07969 0.0
H1015 H 0.65947 0.48585 0.03444 0.0
C1016 C 0.67853 0.45331 0.03254 0.0
C1017 C 0.67807 0.42917 0.03762 0.0
C1018 C 0.59851 0.45989 0.06735 0.0
C1019 C 0.64037 0.45763 0.05226 0.0
C1020 C 0.57506 0.46627 0.06258 0.0
C1021 C 0.57038 0.48286 0.04508 0.0
C1022 C 0.61727 0.46987 0.05415 0.0
C1023 C 0.58975 0.49482 0.03471 0.0
C1024 C 0.65966 0.4676 0.0398 0.0
C1025 C 0.6596 0.42038 0.05191 0.0
N1026 N 0.61245 0.4876 0.03891 0.0
N1027 N 0.64127 0.43454 0.05844 0.0
H1028 H 0.75977 0.41161 0.24177 0.0
H1029 H 0.69818 0.29854 0.1824 0.0
H1030 H 0.77946 0.38089 0.17395 0.0
H1031 H 0.71797 0.30506 0.2563 0.0
H1032 H 0.70856 0.34028 0.17731 0.0
H1033 H 0.72572 0.38401 0.24365 0.0
C1034 C 0.75646 0.3996 0.22691 0.0
C1035 C 0.77274 0.39797 0.20796 0.0
C1036 C 0.70957 0.33276 0.19484 0.0
C1037 C 0.73377 0.36704 0.20984 0.0
C1038 C 0.7036 0.30905 0.1978 0.0
C1039 C 0.70776 0.29845 0.2197 0.0
C1040 C 0.71928 0.34576 0.21403 0.0
C1041 C 0.71495 0.31266 0.23906 0.0
C1042 C 0.73704 0.38397 0.22801 0.0
C1043 C 0.7676 0.38224 0.18913 0.0
N1044 N 0.72088 0.33562 0.23569 0.0
N1045 N 0.74868 0.36708 0.19069 0.0
H1046 H 0.77336 0.58308 0.48909 0.0
H1047 H 0.86509 0.48749 0.53572 0.0
H1048 H 0.76649 0.54897 0.55681 0.0
H1049 H 0.86502 0.51315 0.46391 0.0
H1050 H 0.82872 0.50979 0.54377 0.0
H1051 H 0.80694 0.55743 0.47938 0.0
C1052 C 0.77882 0.57015 0.50186 0.0
C1053 C 0.76717 0.56827 0.52384 0.0
C1054 C 0.83661 0.5104 0.52622 0.0
C1055 C 0.80559 0.53897 0.51291 0.0
C1056 C 0.85738 0.4977 0.52163 0.0
C1057 C 0.8682 0.49855 0.49916 0.0
C1058 C 0.82671 0.52415 0.50827 0.0
C1059 C 0.85737 0.51202 0.48153 0.0
C1060 C 0.79797 0.55549 0.49631 0.0
C1061 C 0.77497 0.55112 0.53968 0.0
N1062 N 0.83731 0.52441 0.48651 0.0
N1063 N 0.79378 0.53724 0.53396 0.0
H1064 H 0.19836 0.09222 0.27424 0.0
H1065 H 0.26659 0.20412 0.22232 0.0
H1066 H 0.18568 0.11603 0.20312 0.0
H1067 H 0.22979 0.20783 0.28962 0.0
H1068 H 0.25206 0.16325 0.2169 0.0
H1069 H 0.22505 0.1266 0.28124 0.0
C1070 C 0.20181 0.10428 0.2599 0.0
C1071 C 0.18987 0.10144 0.23809 0.0
C1072 C 0.24781 0.17288 0.23312 0.0
C1073 C 0.22046 0.14015 0.24581 0.0
C1074 C 0.25619 0.19605 0.23633 0.0
C1075 C 0.24931 0.20927 0.25644 0.0
C1076 C 0.23306 0.16278 0.25046 0.0
C1077 C 0.23543 0.19816 0.27387 0.0
C1078 C 0.21686 0.12385 0.26395 0.0
C1079 C 0.19458 0.11771 0.22017 0.0
N1080 N 0.22768 0.17552 0.27046 0.0
N1081 N 0.20954 0.13643 0.22441 0.0
H1082 H 0.27725 0.97503 0.49975 0.0
H1083 H 0.41658 0.94831 0.48492 0.0
H1084 H 0.30666 0.90615 0.51167 0.0
H1085 H 0.38652 0.01806 0.48839 0.0
H1086 H 0.37616 0.93143 0.48934 0.0
H1087 H 0.31709 -0.01004 0.49105 0.0
C1088 C 0.29214 0.963 0.50062 0.0
C1089 C 0.28861 0.93927 0.5065 0.0
C1090 C 0.37848 0.9504 0.48892 0.0
C1091 C 0.3345 0.95638 0.49639 0.0
C1092 C 0.40145 0.96004 0.48617 0.0
C1093 C 0.40485 0.98462 0.48643 0.0
C1094 C 0.35891 0.96551 0.49172 0.0
C1095 C 0.38472 -0.00098 0.48829 0.0
C1096 C 0.31493 0.97158 0.49561 0.0
C1097 C 0.30863 0.9246 0.50737 0.0
N1098 N 0.36264 -0.01076 0.49096 0.0
N1099 N 0.33082 0.9334 0.50229 0.0
H1100 H 0.77902 0.516 0.2586 0.0
H1101 H 0.82343 0.64838 0.241 0.0
H1102 H 0.8537 0.53536 0.2516 0.0
H1103 H 0.75084 0.62827 0.25917 0.0
H1104 H 0.83561 0.60751 0.24661 0.0
H1105 H 0.76905 0.5576 0.26187 0.0
C1106 C 0.79336 0.52905 0.25813 0.0
C1107 C 0.81716 0.52232 0.25457 0.0
C1108 C 0.81706 0.61215 0.2495 0.0
C1109 C 0.80589 0.56997 0.25776 0.0
C1110 C 0.81007 0.63542 0.24614 0.0
C1111 C 0.78604 0.64172 0.24937 0.0
C1112 C 0.79984 0.59516 0.25601 0.0
C1113 C 0.76954 0.62425 0.25628 0.0
C1114 C 0.78767 0.55281 0.25993 0.0
C1115 C 0.83509 0.53988 0.25425 0.0
N1116 N 0.77673 0.60179 0.25923 0.0
N1117 N 0.82905 0.563 0.25542 0.0
H1118 H 0.62674 0.44846 0.75489 0.0
H1119 H 0.72891 0.36252 0.70831 0.0
H1120 H 0.69331 0.47457 0.72571 0.0
H1121 H 0.65628 0.34023 0.72335 0.0
H1122 H 0.71654 0.40368 0.71274 0.0
H1123 H 0.63799 0.40853 0.74334 0.0
C1124 C 0.64382 0.44577 0.74617 0.0
C1125 C 0.65916 0.46486 0.74138 0.0
C1126 C 0.70327 0.38974 0.71469 0.0
C1127 C 0.67213 0.41907 0.72786 0.0
C1128 C 0.71027 0.36624 0.71196 0.0
C1129 C 0.69368 0.34786 0.71579 0.0
C1130 C 0.6796 0.39478 0.72141 0.0
C1131 C 0.66978 0.35378 0.72057 0.0
C1132 C 0.65016 0.42296 0.73938 0.0
C1133 C 0.68099 0.46032 0.72984 0.0
N1134 N 0.66357 0.37667 0.72357 0.0
N1135 N 0.6869 0.43784 0.72356 0.0
H1136 H 0.0508 0.79599 0.94447 0.0
H1137 H -0.0044 0.91722 0.93738 0.0
H1138 H 0.05871 0.8356 0.88014 0.0
H1139 H 0.03866 0.9048 -0.00056 0.0
H1140 H 0.01514 0.88422 0.91699 0.0
H1141 H 0.04513 0.83308 0.96678 0.0
C1142 C 0.05212 0.81253 0.93519 0.0
C1143 C 0.05494 0.8128 0.91042 0.0
C1144 C 0.02041 0.88887 0.93501 0.0
C1145 C 0.04771 0.85476 0.93554 0.0
C1146 C 0.00908 0.90741 0.94673 0.0
C1147 C 0.01546 0.91348 0.97012 0.0
C1148 C 0.03771 0.87592 0.94702 0.0
C1149 C 0.03328 0.90049 0.98139 0.0
C1150 C 0.04886 0.8336 0.9479 0.0
C1151 C 0.05651 0.83464 0.89921 0.0
N1152 N 0.04355 0.88191 0.96985 0.0
N1153 N 0.05211 0.85477 0.91176 0.0
H1154 H 0.91986 0.2303 0.74278 0.0
H1155 H 0.8129 0.31696 0.71807 0.0
H1156 H 0.91749 0.27823 0.68408 0.0
H1157 H 0.81694 0.27419 0.78056 0.0
H1158 H 0.8548 0.30858 0.7097 0.0
H1159 H 0.88507 0.25003 0.76021 0.0
C1160 C 0.91208 0.24496 0.73359 0.0
C1161 C 0.92136 0.25234 0.71174 0.0
C1162 C 0.84671 0.30141 0.72554 0.0
C1163 C 0.88185 0.27516 0.73168 0.0
C1164 C 0.82281 0.30637 0.73042 0.0
C1165 C 0.81127 0.29583 0.74971 0.0
C1166 C 0.85897 0.28547 0.73983 0.0
C1167 C 0.82504 0.28247 0.76529 0.0
C1168 C 0.89235 0.25634 0.74363 0.0
C1169 C 0.91076 0.27166 0.70078 0.0
N1170 N 0.84804 0.27714 0.75967 0.0
N1171 N 0.8915 0.28223 0.71076 0.0
H1172 H 0.45846 0.19047 0.38069 0.0
H1173 H 0.44817 0.11484 0.49852 0.0
H1174 H 0.47379 0.21905 0.45072 0.0
H1175 H 0.47039 0.08713 0.43026 0.0
H1176 H 0.44204 0.15348 0.4804 0.0
H1177 H 0.44669 0.15302 0.39857 0.0
C1178 C 0.45878 0.18905 0.39985 0.0
C1179 C 0.46758 0.20763 0.41426 0.0
C1180 C 0.44775 0.13873 0.46938 0.0
C1181 C 0.45405 0.16514 0.43466 0.0
C1182 C 0.45119 0.11679 0.47964 0.0
C1183 C 0.46015 0.09807 0.46584 0.0
C1184 C 0.45283 0.14159 0.44517 0.0
C1185 C 0.46384 0.10133 0.44151 0.0
C1186 C 0.45213 0.16771 0.40999 0.0
C1187 C 0.46753 0.20494 0.43899 0.0
N1188 N 0.46028 0.12276 0.43193 0.0
N1189 N 0.46115 0.18392 0.44844 0.0
H1190 H 0.58554 0.72397 0.11877 0.0
H1191 H 0.66395 0.68352 0.22911 0.0
H1192 H 0.55733 0.71061 0.18872 0.0
H1193 H 0.69346 0.71769 0.16752 0.0
H1194 H 0.62473 0.68218 0.20969 0.0
H1195 H 0.62507 0.71142 0.13227 0.0
C1196 C 0.58764 0.71821 0.13688 0.0
C1197 C 0.56834 0.71872 0.15281 0.0
C1198 C 0.63992 0.68959 0.2003 0.0
C1199 C 0.61313 0.7041 0.16817 0.0
C1200 C 0.66231 0.69022 0.21129 0.0
C1201 C 0.6818 0.7012 0.20009 0.0
C1202 C 0.63716 0.69989 0.17797 0.0
C1203 C 0.67873 0.70951 0.17696 0.0
C1204 C 0.61012 0.71102 0.14454 0.0
C1205 C 0.57188 0.71088 0.17601 0.0
N1206 N 0.65671 0.70897 0.16677 0.0
N1207 N 0.59391 0.70402 0.18304 0.0
H1208 H -0.01119 0.18954 0.59409 0.0
H1209 H 0.94726 0.06315 0.55043 0.0
H1210 H 0.96631 0.13736 0.64464 0.0
H1211 H 0.00816 0.09791 0.51837 0.0
H1212 H 0.94727 0.0933 0.58201 0.0
H1213 H -0.01071 0.15902 0.56297 0.0
C1214 C -0.01625 0.17166 0.59861 0.0
C1215 C 0.97736 0.16593 0.62197 0.0
C1216 C 0.96055 0.09432 0.56801 0.0
C1217 C 0.97775 0.13113 0.58635 0.0
C1218 C 0.96044 0.07733 0.54984 0.0
C1219 C 0.97765 0.07821 0.53163 0.0
C1220 C 0.9776 0.11261 0.56766 0.0
C1221 C -0.00543 0.09669 0.53203 0.0
C1222 C -0.01575 0.1543 0.58087 0.0
C1223 C 0.97132 0.14245 0.62686 0.0
N1224 N -0.00603 0.11338 0.54969 0.0
N1225 N 0.97139 0.12586 0.60907 0.0
H1226 H 0.57659 0.21385 0.35715 0.0
H1227 H 0.62119 0.22072 0.22325 0.0
H1228 H 0.54135 0.25351 0.30289 0.0
H1229 H 0.65375 0.17646 0.27557 0.0
H1230 H 0.58824 0.22813 0.2507 0.0
H1231 H 0.60232 0.1962 0.32662 0.0
C1232 C 0.57425 0.21876 0.33889 0.0
C1233 C 0.55708 0.23538 0.33262 0.0
C1234 C 0.60241 0.2165 0.25605 0.0
C1235 C 0.5862 0.21524 0.2976 0.0
C1236 C 0.62119 0.21216 0.24031 0.0
C1237 C 0.64056 0.19838 0.2473 0.0
C1238 C 0.60314 0.2072 0.27901 0.0
C1239 C 0.63941 0.18754 0.26954 0.0
C1240 C 0.58882 0.20861 0.3214 0.0
C1241 C 0.55457 0.24095 0.30858 0.0
N1242 N 0.62126 0.19255 0.28479 0.0
N1243 N 0.56909 0.23106 0.29199 0.0
H1244 H 0.4762 0.77 0.05457 0.0
H1245 H 0.41781 0.89758 0.05081 0.0
H1246 H 0.4684 0.81685 0.11532 0.0
H1247 H 0.44663 0.86229 -0.01138 0.0
H1248 H 0.4261 0.86272 0.07393 0.0
H1249 H 0.45715 0.79946 0.02971 0.0
C1250 C 0.47055 0.7865 0.06264 0.0
C1251 C 0.47415 0.79118 0.08695 0.0
C1252 C 0.43025 0.8625 0.05513 0.0
C1253 C 0.4519 0.82446 0.05888 0.0
C1254 C 0.42533 0.88232 0.04184 0.0
C1255 C 0.43214 0.88311 0.01786 0.0
C1256 C 0.44193 0.84336 0.04434 0.0
C1257 C 0.44153 0.86264 0.00718 0.0
C1258 C 0.45958 0.80318 0.0485 0.0
C1259 C 0.46628 0.81268 0.09659 0.0
N1260 N 0.44655 0.84369 0.02061 0.0
N1261 N 0.45551 0.82853 0.08251 0.0
H1262 H 0.95081 0.78836 0.86057 0.0
H1263 H 0.875 0.77233 0.74477 0.0
H1264 H -0.01557 0.78448 0.79153 0.0
H1265 H 0.84825 0.81378 0.8039 0.0
H1266 H 0.91498 0.77401 0.76257 0.0
H1267 H 0.91246 0.79607 0.84125 0.0
C1268 C 0.95017 0.78948 0.84139 0.0
C1269 C 0.97071 0.78558 0.82758 0.0
C1270 C 0.90038 0.78293 0.77149 0.0
C1271 C 0.92708 0.79386 0.80554 0.0
C1272 C 0.87758 0.7818 0.76148 0.0
C1273 C 0.85837 0.7928 0.77301 0.0
C1274 C 0.90378 0.79465 0.79342 0.0
C1275 C 0.86266 0.80506 0.79449 0.0
C1276 C 0.92836 0.79393 0.83042 0.0
C1277 C 0.96899 0.78735 0.80282 0.0
N1278 N 0.88491 0.80537 0.80424 0.0
N1279 N 0.94741 0.79091 0.79252 0.0
H1280 H 0.91953 0.05695 0.80917 0.0
H1281 H 0.95064 0.96556 0.90964 0.0
H1282 H 0.94711 -0.01218 0.79264 0.0
H1283 H 0.94924 0.04087 0.92219 0.0
H1284 H 0.94481 0.97211 0.86714 0.0
H1285 H 0.92657 0.05027 0.85122 0.0
C1286 C 0.92724 0.0404 0.81441 0.0
C1287 C 0.93276 0.02289 0.79744 0.0
C1288 C 0.94577 0.98715 0.87926 0.0
C1289 C 0.9405 0.01501 0.84557 0.0
C1290 C 0.94886 0.98344 0.9035 0.0
C1291 C 0.9504 0.00272 0.91945 0.0
C1292 C 0.94388 0.01026 0.87104 0.0
C1293 C 0.94821 0.02551 0.91051 0.0
C1294 C 0.93126 0.03662 0.8384 0.0
C1295 C 0.94277 0.00181 0.80519 0.0
N1296 N 0.94498 0.02864 0.88691 0.0
N1297 N 0.94611 -0.00167 0.82879 0.0
H1298 H 0.78696 0.13816 0.58684 0.0
H1299 H 0.75099 0.26394 0.64072 0.0
H1300 H 0.7681 0.19675 0.54305 0.0
H1301 H 0.76313 0.20123 0.6811 0.0
H1302 H 0.76502 0.24279 0.60482 0.0
H1303 H 0.78752 0.16451 0.62146 0.0
C1304 C 0.78338 0.1567 0.58446 0.0
C1305 C 0.77704 0.1652 0.56214 0.0
C1306 C 0.76482 0.23383 0.62165 0.0
C1307 C 0.77696 0.19542 0.60182 0.0
C1308 C 0.7568 0.24587 0.64206 0.0
C1309 C 0.75538 0.23414 0.66376 0.0
C1310 C 0.77167 0.21011 0.62318 0.0
C1311 C 0.76334 0.21081 0.66464 0.0
C1312 C 0.78358 0.17176 0.60425 0.0
C1313 C 0.77289 0.18945 0.56001 0.0
N1314 N 0.77097 0.19958 0.64467 0.0
N1315 N 0.77241 0.20368 0.57973 0.0
H1316 H 0.59361 -0.00987 0.31109 0.0
H1317 H 0.48759 0.98425 0.40411 0.0
H1318 H 0.52049 0.00341 0.29087 0.0
H1319 H 0.55578 0.01598 0.42322 0.0
H1320 H 0.50097 0.98167 0.3626 0.0
H1321 H 0.58136 -0.00887 0.35299 0.0
C1322 C 0.57503 -0.00665 0.31551 0.0
C1323 C 0.55803 -0.00315 0.29762 0.0
C1324 C 0.51299 -0.01098 0.376 0.0
C1325 C 0.54394 -0.00274 0.34507 0.0
C1326 C 0.5055 -0.00972 0.39961 0.0
C1327 C 0.52063 0.00039 0.41697 0.0
C1328 C 0.53592 -0.00261 0.36995 0.0
C1329 C 0.54358 0.00818 0.41026 0.0
C1330 C 0.5681 -0.00611 0.3393 0.0
C1331 C 0.53417 0.00089 0.30419 0.0
N1332 N 0.55061 0.00643 0.38722 0.0
N1333 N 0.52774 0.00072 0.32745 0.0
H1334 H 0.74046 0.77335 0.04701 0.0
H1335 H 0.77402 0.71406 0.14845 0.0
H1336 H 0.75576 0.83478 0.09108 0.0
H1337 H 0.80433 0.78055 0.17218 0.0
H1338 H 0.76717 0.73051 0.10937 0.0
H1339 H 0.76246 0.74923 0.07511 0.0
C1340 C 0.74836 0.78171 0.06264 0.0
C1341 C 0.74577 0.80599 0.06703 0.0
C1342 C 0.77637 0.7413 0.12259 0.0
C1343 C 0.77091 0.77865 0.09926 0.0
C1344 C 0.78053 0.73174 0.14491 0.0
C1345 C 0.78978 0.74604 0.16337 0.0
C1346 C 0.78144 0.76536 0.11903 0.0
C1347 C 0.79726 0.769 0.15827 0.0
C1348 C 0.76092 0.76793 0.07873 0.0
C1349 C 0.7568 0.81605 0.08722 0.0
N1350 N 0.79247 0.77811 0.13671 0.0
N1351 N 0.76873 0.80233 0.10256 0.0
H1352 H 0.94301 0.04008 0.67624 0.0
H1353 H 0.89751 0.01377 0.54435 0.0
H1354 H 0.87484 0.06407 0.65043 0.0
H1355 H 0.95592 0.97709 0.57706 0.0
H1356 H 0.88821 0.03208 0.58276 0.0
H1357 H 0.94897 0.01872 0.63875 0.0
C1358 C 0.92942 0.0411 0.66259 0.0
C1359 C 0.90828 0.05368 0.66658 0.0
C1360 C 0.90281 0.01972 0.58158 0.0
C1361 C 0.91485 0.02902 0.62373 0.0
C1362 C 0.90799 0.00904 0.5597 0.0
C1363 C 0.9278 -0.00586 0.55733 0.0
C1364 C 0.91762 0.01556 0.60116 0.0
C1365 C 0.94064 -0.01137 0.57791 0.0
C1366 C 0.93271 0.02868 0.64128 0.0
C1367 C 0.89137 0.0545 0.64815 0.0
N1368 N 0.9356 -0.00031 0.59887 0.0
N1369 N 0.89497 0.04223 0.62754 0.0
H1370 H 0.77269 0.13233 0.40313 0.0
H1371 H 0.74947 0.23492 0.31088 0.0
H1372 H 0.74883 0.20142 0.42528 0.0
H1373 H 0.7584 0.16134 0.29256 0.0
H1374 H 0.75712 0.2258 0.35275 0.0
H1375 H 0.77582 0.14579 0.36259 0.0
C1376 C 0.76812 0.15042 0.39944 0.0
C1377 C 0.76001 0.16567 0.41749 0.0
C1378 C 0.75769 0.21178 0.33946 0.0
C1379 C 0.76343 0.18121 0.37089 0.0
C1380 C 0.75346 0.21696 0.31562 0.0
C1381 C 0.75302 0.19876 0.29839 0.0
C1382 C 0.76177 0.18833 0.34581 0.0
C1383 C 0.75823 0.17582 0.30536 0.0
C1384 C 0.76997 0.15811 0.37626 0.0
C1385 C 0.75489 0.18905 0.41177 0.0
N1386 N 0.76226 0.17126 0.32852 0.0
N1387 N 0.75638 0.19608 0.3888 0.0
H1388 H 0.58746 0.95653 0.14305 0.0
H1389 H 0.458 0.96848 0.08549 0.0
H1390 H 0.52277 0.95799 0.18513 0.0
H1391 H 0.52358 -0.01149 0.04988 0.0
H1392 H 0.4809 0.96259 0.12188 0.0
H1393 H 0.56373 0.96464 0.10774 0.0
C1394 C 0.56823 0.95829 0.14481 0.0
C1395 C 0.55704 0.95663 0.16702 0.0
C1396 C 0.49018 0.96853 0.10614 0.0
C1397 C 0.52988 0.96614 0.12682 0.0
C1398 C 0.47713 0.972 0.0854 0.0
C1399 C 0.4889 0.97886 0.06455 0.0
C1400 C 0.51517 0.97164 0.10589 0.0
C1401 C 0.51372 0.98318 0.06549 0.0
C1402 C 0.55473 0.96315 0.1247 0.0
C1403 C 0.53209 0.95919 0.16831 0.0
N1404 N 0.52607 0.9792 0.08574 0.0
N1405 N 0.51931 0.96381 0.14846 0.0
H1406 H 0.71099 0.88919 0.92033 0.0
H1407 H 0.72275 0.78133 0.82834 0.0
H1408 H 0.71291 0.81677 0.94266 0.0
H1409 H 0.75181 0.8509 0.8157 0.0
H1410 H 0.71009 0.79475 0.86808 0.0
H1411 H 0.71699 0.87578 0.8793 0.0
C1412 C 0.7125 0.87046 0.91659 0.0
C1413 C 0.71171 0.85407 0.93494 0.0
C1414 C 0.71911 0.80704 0.85646 0.0
C1415 C 0.71834 0.8387 0.88812 0.0
C1416 C 0.72621 0.79946 0.83383 0.0
C1417 C 0.73851 0.815 0.8189 0.0
C1418 C 0.72398 0.83038 0.86385 0.0
C1419 C 0.74262 0.83829 0.82681 0.0
C1420 C 0.71598 0.86286 0.89321 0.0
C1421 C 0.71372 0.83001 0.92906 0.0
N1422 N 0.73535 0.84529 0.84877 0.0
N1423 N 0.71696 0.82302 0.9061 0.0
H1424 H 0.78988 0.8762 0.0173 0.0
H1425 H 0.88446 0.97892 0.04731 0.0
H1426 H 0.76891 0.9488 0.02661 0.0
H1427 H 0.90157 0.91796 0.00386 0.0
H1428 H 0.84274 0.96481 0.04946 0.0
H1429 H 0.83181 0.8884 0.02182 0.0
C1430 C 0.79407 0.89469 0.0205 0.0
C1431 C 0.77589 0.91157 0.02139 0.0
C1432 C 0.85576 0.95447 0.0397 0.0
C1433 C 0.82377 0.92549 0.02685 0.0
C1434 C 0.87954 0.96237 0.03861 0.0
C1435 C 0.8964 0.94962 0.02527 0.0
C1436 C 0.84903 0.93348 0.02778 0.0
C1437 C 0.88906 0.92839 0.01417 0.0
C1438 C 0.81799 0.9016 0.02301 0.0
C1439 C 0.78239 0.93527 0.02557 0.0
N1440 N 0.8659 0.92097 0.01567 0.0
N1441 N 0.80586 0.94156 0.02818 0.0
H1442 H 0.3172 0.57166 0.9729 0.0
H1443 H 0.38958 0.45309 0.98341 0.0
H1444 H 0.29764 0.5134 0.01762 0.0
H1445 H 0.4151 0.51324 0.94483 0.0
H1446 H 0.34977 0.47031 -0.0148 0.0
H1447 H 0.34784 0.54714 0.9541 0.0
C1448 C 0.3193 0.55372 0.97875 0.0
C1449 C 0.30513 0.54474 -0.00277 0.0
C1450 C 0.36381 0.47945 0.97562 0.0
C1451 C 0.33987 0.51648 0.97546 0.0
C1452 C 0.38641 0.46936 0.97418 0.0
C1453 C 0.40553 0.48186 0.96405 0.0
C1454 C 0.36059 0.50239 0.96729 0.0
C1455 C 0.4007 0.50306 0.95272 0.0
C1456 C 0.33667 0.53968 0.96787 0.0
C1457 C 0.30841 0.52125 0.00378 0.0
N1458 N 0.37882 0.51307 0.95525 0.0
N1459 N 0.32554 0.50803 -0.00696 0.0
H1460 H 0.12908 0.56319 0.67311 0.0
H1461 H 0.25173 0.59875 0.72684 0.0
H1462 H 0.17355 0.51331 0.70912 0.0
H1463 H 0.2219 0.63624 0.66809 0.0
H1464 H 0.22663 0.56464 0.71628 0.0
H1465 H 0.1645 0.58835 0.66723 0.0
C1466 C 0.14629 0.5574 0.67954 0.0
C1467 C 0.14822 0.5364 0.69214 0.0
C1468 C 0.22607 0.58002 0.70518 0.0
C1469 C 0.18872 0.56498 0.68543 0.0
C1470 C 0.24055 0.59941 0.71114 0.0
C1471 C 0.23861 0.62031 0.69847 0.0
C1472 C 0.20902 0.58195 0.68698 0.0
C1473 C 0.22382 0.62039 0.67833 0.0
C1474 C 0.16654 0.57166 0.676 0.0
C1475 C 0.17106 0.52959 0.69974 0.0
N1476 N 0.20894 0.60173 0.67363 0.0
N1477 N 0.1903 0.54402 0.69663 0.0
H1478 H 0.11661 0.33759 0.51735 0.0
H1479 H 0.05207 0.45618 0.47953 0.0
H1480 H 0.13979 0.40763 0.53914 0.0
H1481 H 0.01921 0.38725 0.47 0.0
H1482 H 0.08718 0.43777 0.49639 0.0
H1483 H 0.08222 0.35471 0.49722 0.0
C1484 C 0.11428 0.35651 0.51824 0.0
C1485 C 0.1312 0.37122 0.52983 0.0
C1486 C 0.07238 0.42664 0.49041 0.0
C1487 C 0.09232 0.39089 0.50636 0.0
C1488 C 0.0524 0.43713 0.48048 0.0
C1489 C 0.03244 0.42331 0.47359 0.0
C1490 C 0.07252 0.40213 0.49343 0.0
C1491 C 0.03407 0.39866 0.47521 0.0
C1492 C 0.09478 0.36628 0.50655 0.0
C1493 C 0.1273 0.39562 0.53031 0.0
N1494 N 0.05365 0.38886 0.48523 0.0
N1495 N 0.10842 0.40468 0.51856 0.0
H1496 H 0.87097 0.96106 0.68382 0.0
H1497 H 0.77289 0.88936 0.7497 0.0
H1498 H 0.82528 -0.00679 0.73685 0.0
H1499 H 0.79686 0.86862 0.67965 0.0
H1500 H 0.7892 0.9289 0.74354 0.0
H1501 H 0.84235 0.92825 0.67998 0.0
C1502 C 0.85482 0.96132 0.69451 0.0
C1503 C 0.85073 0.97962 0.71105 0.0
C1504 C 0.79042 0.91591 0.72925 0.0
C1505 C 0.81802 0.94222 0.70674 0.0
C1506 C 0.78115 0.89338 0.73279 0.0
C1507 C 0.78386 0.87581 0.71524 0.0
C1508 C 0.80311 0.92062 0.7083 0.0
C1509 C 0.79453 0.88178 0.6936 0.0
C1510 C 0.8384 0.9427 0.69214 0.0
C1511 C 0.82931 0.97929 0.72411 0.0
N1512 N 0.80436 0.90362 0.69093 0.0
N1513 N 0.81395 0.96064 0.72199 0.0
H1514 H 0.69355 0.07766 0.51722 0.0
H1515 H 0.55441 0.09559 0.50762 0.0
H1516 H 0.66219 0.14514 0.50313 0.0
H1517 H 0.58484 0.03495 0.54084 0.0
H1518 H 0.59345 0.1153 0.50919 0.0
H1519 H 0.65414 0.06254 0.52871 0.0
C1520 C 0.67836 0.08934 0.51668 0.0
C1521 C 0.681 0.11257 0.50885 0.0
C1522 C 0.59158 0.09787 0.51655 0.0
C1523 C 0.63592 0.0954 0.52196 0.0
C1524 C 0.56931 0.08661 0.51564 0.0
C1525 C 0.56658 0.06354 0.52385 0.0
C1526 C 0.6114 0.08575 0.52524 0.0
C1527 C 0.5863 0.05273 0.53428 0.0
C1528 C 0.65591 0.08074 0.52341 0.0
C1529 C 0.66085 0.12705 0.50883 0.0
N1530 N 0.60809 0.06377 0.53423 0.0
N1531 N 0.63906 0.11811 0.51495 0.0
H1532 H 0.12807 0.39976 0.77089 0.0
H1533 H 0.25061 0.3389 0.74055 0.0
H1534 H 0.18372 0.43297 0.7294 0.0
H1535 H 0.20707 0.31706 0.7997 0.0
H1536 H 0.22737 0.37488 0.73809 0.0
H1537 H 0.15694 0.37009 0.78321 0.0
C1538 C 0.14636 0.40088 0.7645 0.0
C1539 C 0.15342 0.41862 0.74882 0.0
C1540 C 0.22314 0.36249 0.75195 0.0
C1541 C 0.1864 0.38496 0.76283 0.0
C1542 C 0.23647 0.34201 0.75337 0.0
C1543 C 0.23062 0.32506 0.77026 0.0
C1544 C 0.20342 0.36572 0.76711 0.0
C1545 C 0.21214 0.32983 0.78648 0.0
C1546 C 0.16284 0.38408 0.77166 0.0
C1547 C 0.17739 0.41944 0.74128 0.0
N1548 N 0.19878 0.34954 0.78418 0.0
N1549 N 0.19291 0.4027 0.74814 0.0
H1550 H 0.40647 0.6268 0.28345 0.0
H1551 H 0.27706 0.67997 0.30629 0.0
H1552 H 0.34041 0.5866 0.28699 0.0
H1553 H 0.33999 0.72351 0.29618 0.0
H1554 H 0.30243 0.64559 0.3097 0.0
H1555 H 0.38477 0.66207 0.29689 0.0
C1556 C 0.3875 0.62535 0.28733 0.0
C1557 C 0.37509 0.6039 0.28368 0.0
C1558 C 0.31085 0.66268 0.30719 0.0
C1559 C 0.35036 0.64385 0.29923 0.0
C1560 C 0.29635 0.68231 0.30542 0.0
C1561 C 0.30651 0.70443 0.30073 0.0
C1562 C 0.33567 0.66508 0.30359 0.0
C1563 C 0.33155 0.70665 0.29981 0.0
C1564 C 0.37516 0.64543 0.29502 0.0
C1565 C 0.3506 0.60288 0.28912 0.0
N1566 N 0.34534 0.68705 0.30064 0.0
N1567 N 0.33905 0.62257 0.29644 0.0
H1568 H 0.47674 0.69691 0.56539 0.0
H1569 H 0.42215 0.56857 0.58936 0.0
H1570 H 0.47184 0.66426 0.63394 0.0
H1571 H 0.44477 0.59112 0.51989 0.0
H1572 H 0.42928 0.60851 0.60468 0.0
H1573 H 0.45595 0.66239 0.54763 0.0
C1574 C 0.47122 0.68257 0.57669 0.0
C1575 C 0.47641 0.68326 0.6011 0.0
C1576 C 0.43228 0.6048 0.58598 0.0
C1577 C 0.45224 0.64421 0.5811 0.0
C1578 C 0.42802 0.58202 0.57715 0.0
C1579 C 0.4335 0.57627 0.55343 0.0
C1580 C 0.44213 0.62194 0.57101 0.0
C1581 C 0.44073 0.59461 0.53842 0.0
C1582 C 0.4593 0.66297 0.56658 0.0
C1583 C 0.46865 0.66432 0.61497 0.0
N1584 N 0.44532 0.61655 0.54757 0.0
N1585 N 0.45704 0.64559 0.60477 0.0
H1586 H 0.53308 0.21133 0.79178 0.0
H1587 H 0.66602 0.18871 0.74965 0.0
H1588 H 0.58937 0.18502 0.83633 0.0
H1589 H 0.622 0.24618 0.72717 0.0
H1590 H 0.63116 0.17112 0.76916 0.0
H1591 H 0.55935 0.2073 0.75737 0.0
C1592 C 0.5508 0.20422 0.79428 0.0
C1593 C 0.55944 0.1993 0.81707 0.0
C1594 C 0.629 0.18707 0.75912 0.0
C1595 C 0.5892 0.19429 0.77772 0.0
C1596 C 0.64879 0.19708 0.74785 0.0
C1597 C 0.64691 0.21929 0.73741 0.0
C1598 C 0.60731 0.19921 0.75946 0.0
C1599 C 0.62422 0.22931 0.73553 0.0
C1600 C 0.56565 0.2018 0.77458 0.0
C1601 C 0.58228 0.1896 0.81915 0.0
N1602 N 0.6053 0.2194 0.74692 0.0
N1603 N 0.59662 0.18782 0.7997 0.0
H1604 H -0.01268 0.34203 0.1022 0.0
H1605 H -0.0063 0.40899 0.98009 0.0
H1606 H -0.00309 0.3032 0.03626 0.0
H1607 H 0.01544 0.44 0.04751 0.0
H1608 H -0.00838 0.37025 -0.00117 0.0
H1609 H -0.00766 0.37872 0.08098 0.0
C1610 C -0.00976 0.3412 0.08317 0.0
C1611 C -0.00824 0.3195 0.07099 0.0
C1612 C -0.00286 0.38556 0.00932 0.0
C1613 C -0.00226 0.3616 0.04657 0.0
C1614 C -0.00155 0.40765 -0.00134 0.0
C1615 C 0.0045 0.42789 0.01229 0.0
C1616 C 0.00159 0.38388 0.03377 0.0
C1617 C 0.01046 0.42503 0.03629 0.0
C1618 C -0.00666 0.36219 0.07111 0.0
C1619 C -0.00436 0.31958 0.04632 0.0
N1620 N 0.00851 0.40354 0.04629 0.0
N1621 N -0.00153 0.34038 0.03484 0.0
H1622 H 0.96546 0.76992 0.29565 0.0
H1623 H 0.82416 0.76318 0.31568 0.0
H1624 H 0.93328 0.74883 0.36188 0.0
H1625 H 0.85783 0.75075 0.2476 0.0
H1626 H 0.86385 0.7694 0.33348 0.0
H1627 H 0.92547 0.77411 0.27875 0.0
C1628 C 0.94999 0.76641 0.30673 0.0
C1629 C 0.95266 0.75871 0.33012 0.0
C1630 C 0.86243 0.76562 0.31459 0.0
C1631 C 0.90704 0.76374 0.31094 0.0
C1632 C 0.83986 0.76222 0.3044 0.0
C1633 C 0.83781 0.75618 0.2802 0.0
C1634 C 0.88293 0.76334 0.30036 0.0
C1635 C 0.85869 0.75508 0.2664 0.0
C1636 C 0.92723 0.76878 0.29704 0.0
C1637 C 0.93199 0.75449 0.34367 0.0
N1638 N 0.88045 0.75853 0.27671 0.0
N1639 N 0.90998 0.757 0.33384 0.0
H1640 H 0.52984 0.27789 0.94101 0.0
H1641 H 0.51438 0.41456 0.93523 0.0
H1642 H 0.5619 0.32036 0.88625 0.0
H1643 H 0.51094 0.37963 0.00268 0.0
H1644 H 0.53096 0.37911 0.91721 0.0
H1645 H 0.52385 0.31369 0.9651 0.0
C1646 C 0.53621 0.29461 0.93428 0.0
C1647 C 0.54583 0.29616 0.91127 0.0
C1648 C 0.52673 0.37917 0.93599 0.0
C1649 C 0.53856 0.33706 0.93853 0.0
C1650 C 0.51694 0.39933 0.94625 0.0
C1651 C 0.51098 0.39996 0.97046 0.0
C1652 C 0.53023 0.35922 0.94986 0.0
C1653 C 0.51515 0.3798 0.98391 0.0
C1654 C 0.53269 0.31503 0.94804 0.0
C1655 C 0.55396 0.3183 0.90365 0.0
N1656 N 0.52426 0.36006 0.97335 0.0
N1657 N 0.54964 0.33792 0.91701 0.0
H1658 H 0.92181 0.27476 0.14972 0.0
H1659 H 0.82151 0.18829 0.19266 0.0
H1660 H 0.93929 0.21428 0.19156 0.0
H1661 H 0.81048 0.26323 0.20024 0.0
H1662 H 0.86415 0.19606 0.18503 0.0
H1663 H 0.87961 0.26999 0.16162 0.0
C1664 C 0.91681 0.26068 0.16157 0.0
C1665 C 0.93398 0.24489 0.1697 0.0
C1666 C 0.85233 0.21074 0.18847 0.0
C1667 C 0.88616 0.23906 0.18267 0.0
C1668 C 0.82811 0.20635 0.19267 0.0
C1669 C 0.81266 0.22517 0.19713 0.0
C1670 C 0.86087 0.2341 0.18805 0.0
C1671 C 0.82199 0.24827 0.19704 0.0
C1672 C 0.89286 0.25802 0.16834 0.0
C1673 C 0.92663 0.22691 0.185 0.0
N1674 N 0.84555 0.25216 0.19224 0.0
N1675 N 0.90317 0.22423 0.19067 0.0
H1676 H 0.00832 0.66324 0.44489 0.0
H1677 H 0.94055 0.54035 0.41883 0.0
H1678 H 0.96133 0.65098 0.38491 0.0
H1679 H -0.00117 0.54885 0.46885 0.0
H1680 H 0.94539 0.5817 0.40825 0.0
H1681 H 0.00157 0.62245 0.45681 0.0
C1682 C -0.00369 0.65207 0.43442 0.0
C1683 C -0.01456 0.66048 0.41383 0.0
C1684 C 0.95718 0.57447 0.42146 0.0
C1685 C 0.97787 0.61376 0.42719 0.0
C1686 C 0.95448 0.55084 0.42747 0.0
C1687 C 0.96934 0.54106 0.44474 0.0
C1688 C 0.97471 0.58853 0.43293 0.0
C1689 C -0.01295 0.55557 0.45536 0.0
C1690 C -0.00737 0.62874 0.44112 0.0
C1691 C 0.97013 0.6452 0.40088 0.0
N1692 N -0.01084 0.5786 0.44937 0.0
N1693 N 0.96687 0.62255 0.40772 0.0
H1694 H 0.59649 0.76269 0.61231 0.0
H1695 H 0.67289 0.76669 0.73253 0.0
H1696 H 0.56664 0.75263 0.68221 0.0
H1697 H 0.7003 0.79245 0.66592 0.0
H1698 H 0.63487 0.75734 0.71319 0.0
H1699 H 0.63618 0.76884 0.63047 0.0
C1700 C 0.59838 0.76148 0.6314 0.0
C1701 C 0.57835 0.75735 0.64584 0.0
C1702 C 0.64917 0.76511 0.7028 0.0
C1703 C 0.62325 0.76442 0.66658 0.0
C1704 C 0.67088 0.77051 0.71385 0.0
C1705 C 0.68977 0.78048 0.70085 0.0
C1706 C 0.64631 0.76957 0.67853 0.0
C1707 C 0.68614 0.78494 0.67666 0.0
C1708 C 0.62091 0.76515 0.64175 0.0
C1709 C 0.58162 0.75602 0.67046 0.0
N1710 N 0.66481 0.77939 0.66623 0.0
N1711 N 0.60362 0.75961 0.68005 0.0
H1712 H 0.60526 0.51559 0.67384 0.0
H1713 H 0.51675 0.45721 0.61261 0.0
H1714 H 0.54983 0.54233 0.72015 0.0
H1715 H 0.47339 0.51695 0.63216 0.0
H1716 H 0.54492 0.46823 0.64417 0.0
H1717 H 0.57442 0.49815 0.64804 0.0
C1718 C 0.58659 0.51788 0.67851 0.0
C1719 C 0.58007 0.53034 0.69918 0.0
C1720 C 0.52914 0.47882 0.64166 0.0
C1721 C 0.54471 0.5098 0.67019 0.0
C1722 C 0.51285 0.47232 0.62396 0.0
C1723 C 0.493 0.4865 0.61945 0.0
C1724 C 0.52563 0.49974 0.6548 0.0
C1725 C 0.4886 0.50566 0.63491 0.0
C1726 C 0.569 0.50754 0.66403 0.0
C1727 C 0.55558 0.53274 0.7044 0.0
N1728 N 0.50509 0.51202 0.65172 0.0
N1729 N 0.53872 0.52268 0.68988 0.0
H1730 H 0.66926 0.39131 0.90764 0.0
H1731 H 0.71581 0.27764 0.84474 0.0
H1732 H 0.69148 0.33014 0.9461 0.0
H1733 H 0.66814 0.32432 0.8086 0.0
H1734 H 0.70429 0.2957 0.88256 0.0
H1735 H 0.66465 0.36652 0.87185 0.0
C1736 C 0.67258 0.37259 0.90873 0.0
C1737 C 0.68145 0.3629 0.9297 0.0
C1738 C 0.69601 0.30181 0.86644 0.0
C1739 C 0.67653 0.33465 0.8889 0.0
C1740 C 0.70274 0.29161 0.84485 0.0
C1741 C 0.69314 0.29978 0.82361 0.0
C1742 C 0.68007 0.32076 0.86674 0.0
C1743 C 0.67602 0.31766 0.82468 0.0
C1744 C 0.66997 0.35846 0.88829 0.0
C1745 C 0.68522 0.3385 0.93016 0.0
N1746 N 0.67037 0.32797 0.84592 0.0
N1747 N 0.68324 0.32531 0.90993 0.0
H1748 H 0.84122 0.48587 0.14735 0.0
H1749 H 0.97059 0.49819 0.08765 0.0
H1750 H 0.90602 0.45884 0.178 0.0
H1751 H 0.90516 0.5217 0.05519 0.0
H1752 H 0.9479 0.48796 0.12314 0.0
H1753 H 0.86494 0.50247 0.11512 0.0
C1754 C 0.86043 0.48338 0.14725 0.0
C1755 C 0.87167 0.47081 0.16524 0.0
C1756 C 0.93856 0.49557 0.10833 0.0
C1757 C 0.89891 0.4899 0.1286 0.0
C1758 C 0.95153 0.50154 0.0881 0.0
C1759 C 0.9397 0.51052 0.06829 0.0
C1760 C 0.91363 0.49859 0.1087 0.0
C1761 C 0.91499 0.51455 0.06993 0.0
C1762 C 0.87398 0.49295 0.12892 0.0
C1763 C 0.89663 0.46828 0.16438 0.0
N1764 N 0.90273 0.50833 0.08969 0.0
N1765 N 0.90942 0.47769 0.1463 0.0
H1766 H 0.7252 0.69903 0.45809 0.0
H1767 H 0.70941 0.67413 0.31877 0.0
H1768 H 0.70706 0.63069 0.42764 0.0
H1769 H 0.74292 0.73729 0.34812 0.0
H1770 H 0.70261 0.66017 0.35895 0.0
H1771 H 0.72648 0.71524 0.4182 0.0
C1772 C 0.72144 0.68744 0.44301 0.0
C1773 C 0.71618 0.66344 0.44614 0.0
C1774 C 0.71131 0.67715 0.35658 0.0
C1775 C 0.71746 0.6819 0.40053 0.0
C1776 C 0.71511 0.68521 0.33364 0.0
C1777 C 0.72697 0.70684 0.33004 0.0
C1778 C 0.71932 0.69084 0.37608 0.0
C1779 C 0.73388 0.72042 0.35004 0.0
C1780 C 0.72217 0.69671 0.42026 0.0
C1781 C 0.71136 0.64926 0.426 0.0
N1782 N 0.73007 0.71213 0.37222 0.0
N1783 N 0.71214 0.65871 0.40402 0.0
H1784 H 0.60573 0.50986 0.82668 0.0
H1785 H 0.53971 0.5503 0.94587 0.0
H1786 H 0.58946 0.58295 0.8413 0.0
H1787 H 0.52836 0.48233 0.91163 0.0
H1788 H 0.56475 0.56222 0.91213 0.0
H1789 H 0.58523 0.4991 0.86331 0.0
C1790 C 0.59825 0.52371 0.83779 0.0
C1791 C 0.59911 0.54734 0.83078 0.0
C1792 C 0.5567 0.54473 0.9121 0.0
C1793 C 0.57556 0.53505 0.87264 0.0
C1794 C 0.54244 0.53793 0.93126 0.0
C1795 C 0.53181 0.51535 0.93145 0.0
C1796 C 0.56076 0.52863 0.89335 0.0
C1797 C 0.53598 0.49998 0.91211 0.0
C1798 C 0.58637 0.51751 0.85858 0.0
C1799 C 0.58903 0.5645 0.84593 0.0
N1800 N 0.55026 0.50686 0.89392 0.0
N1801 N 0.57756 0.55801 0.86615 0.0
H1802 H 0.73781 0.29586 0.01652 0.0
H1803 H 0.68708 0.26309 0.1415 0.0
H1804 H 0.73759 0.34591 0.07518 0.0
H1805 H 0.73842 0.21584 0.10952 0.0
H1806 H 0.69524 0.29129 0.11013 0.0
H1807 H 0.73022 0.26386 0.0447 0.0
C1808 C 0.73661 0.30002 0.03534 0.0
C1809 C 0.73847 0.32349 0.04363 0.0
C1810 C 0.70435 0.27453 0.10982 0.0
C1811 C 0.72875 0.28745 0.07536 0.0
C1812 C 0.69948 0.25828 0.12746 0.0
C1813 C 0.71214 0.23709 0.12813 0.0
C1814 C 0.72156 0.26935 0.09244 0.0
C1815 C 0.72832 0.23202 0.10963 0.0
C1816 C 0.73217 0.28185 0.05127 0.0
C1817 C 0.73653 0.32804 0.0681 0.0
N1818 N 0.73265 0.24812 0.09246 0.0
N1819 N 0.73131 0.31022 0.08308 0.0
H1820 H 0.90136 0.38884 0.27945 0.0
H1821 H 0.88212 0.44557 0.40705 0.0
H1822 H 0.83588 0.42105 0.30355 0.0
H1823 H 0.94339 0.40256 0.39078 0.0
H1824 H 0.86349 0.43247 0.37014 0.0
H1825 H 0.91554 0.38854 0.32077 0.0
C1826 C 0.88975 0.39526 0.2935 0.0
C1827 C 0.86768 0.40547 0.28816 0.0
C1828 C 0.88093 0.42565 0.37458 0.0
C1829 C 0.88371 0.40538 0.33503 0.0
C1830 C 0.89165 0.43329 0.39562 0.0
C1831 C 0.91448 0.42545 0.40169 0.0
C1832 C 0.89332 0.4104 0.35912 0.0
C1833 C 0.92581 0.40915 0.38653 0.0
C1834 C 0.89787 0.39518 0.31702 0.0
C1835 C 0.85326 0.41351 0.3069 0.0
N1836 N 0.91527 0.40244 0.36562 0.0
N1837 N 0.86166 0.41358 0.32943 0.0
H1838 H 0.76474 0.65051 0.60782 0.0
H1839 H 0.82705 0.7326 0.66952 0.0
H1840 H 0.75196 0.70206 0.55395 0.0
H1841 H 0.77819 0.77989 0.6356 0.0
H1842 H 0.82174 0.70474 0.63637 0.0
H1843 H 0.78949 0.67923 0.62936 0.0
C1844 C 0.76737 0.66785 0.60042 0.0
C1845 C 0.75601 0.67407 0.5793 0.0
C1846 C 0.81243 0.72136 0.63608 0.0
C1847 C 0.7849 0.70696 0.60354 0.0
C1848 C 0.81567 0.73743 0.65485 0.0
C1849 C 0.80208 0.75808 0.6559 0.0
C1850 C 0.79533 0.72599 0.61855 0.0
C1851 C 0.7883 0.76375 0.63597 0.0
C1852 C 0.78193 0.68414 0.61248 0.0
C1853 C 0.76028 0.69667 0.57031 0.0
N1854 N 0.78472 0.74743 0.61836 0.0
N1855 N 0.77399 0.71253 0.58279 0.0
H1856 H 0.65417 0.59027 0.56276 0.0
H1857 H 0.52363 0.57157 0.50738 0.0
H1858 H 0.62394 0.63802 0.51247 0.0
H1859 H 0.55885 0.52255 0.55326 0.0
H1860 H 0.55761 0.59894 0.51251 0.0
H1861 H 0.61603 0.56913 0.56445 0.0
C1862 C 0.63926 0.59654 0.5524 0.0
C1863 C 0.64215 0.61566 0.53724 0.0
C1864 C 0.5578 0.58221 0.52147 0.0
C1865 C 0.59866 0.59118 0.53849 0.0
C1866 C 0.53851 0.56651 0.51844 0.0
C1867 C 0.5385 0.54461 0.52972 0.0
C1868 C 0.57709 0.57595 0.53594 0.0
C1869 C 0.55814 0.5391 0.54401 0.0
C1870 C 0.61753 0.58439 0.55324 0.0
C1871 C 0.62232 0.62328 0.52434 0.0
N1872 N 0.57661 0.55464 0.54666 0.0
N1873 N 0.6014 0.6107 0.52491 0.0
H1874 H 0.17863 0.9552 0.55595 0.0
H1875 H 0.07661 0.00984 0.51861 0.0
H1876 H 0.13489 0.89236 0.54639 0.0
H1877 H 0.03769 0.95008 0.54655 0.0
H1878 H 0.11373 -0.00682 0.53309 0.0
H1879 H 0.14238 0.97874 0.55792 0.0
C1880 C 0.16137 0.94633 0.55446 0.0
C1881 C 0.1597 0.92188 0.55028 0.0
C1882 C 0.09701 0.98408 0.53678 0.0
C1883 C 0.11837 0.94871 0.55198 0.0
C1884 C 0.0758 -0.0065 0.52827 0.0
C1885 C 0.0541 0.98109 0.53092 0.0
C1886 C 0.0964 0.96208 0.5479 0.0
C1887 C 0.05408 0.96006 0.54371 0.0
C1888 C 0.14072 0.95982 0.55539 0.0
C1889 C 0.13695 0.91123 0.54909 0.0
N1890 N 0.07499 0.95097 0.55129 0.0
N1891 N 0.11712 0.92479 0.54963 0.0
H1892 H 0.27709 0.87489 0.68196 0.0
H1893 H 0.24381 0.79754 0.78088 0.0
H1894 H 0.26417 0.90922 0.74968 0.0
H1895 H 0.20411 0.78787 0.71558 0.0
H1896 H 0.2502 0.83911 0.77122 0.0
H1897 H 0.24921 0.8432 0.69306 0.0
C1898 C 0.26783 0.87606 0.69885 0.0
C1899 C 0.273 0.89449 0.71501 0.0
C1900 C 0.23937 0.82804 0.75945 0.0
C1901 C 0.24197 0.85818 0.72807 0.0
C1902 C 0.23576 0.80437 0.76495 0.0
C1903 C 0.22364 0.78928 0.74891 0.0
C1904 C 0.23158 0.83625 0.73742 0.0
C1905 C 0.21361 0.79894 0.72842 0.0
C1906 C 0.25192 0.85808 0.70515 0.0
C1907 C 0.26062 0.89525 0.73674 0.0
N1908 N 0.21852 0.82168 0.72282 0.0
N1909 N 0.24624 0.87688 0.74301 0.0
H1910 H 0.28005 0.09039 0.00143 0.0
H1911 H 0.37046 -0.00913 0.04237 0.0
H1912 H 0.27775 0.0591 0.07081 0.0
H1913 H 0.36681 0.01744 0.97102 0.0
H1914 H 0.33616 0.0152 0.05324 0.0
H1915 H 0.31211 0.06366 -0.00982 0.0
C1916 C 0.28631 0.07794 0.01432 0.0
C1917 C 0.27624 0.07702 0.03711 0.0
C1918 C 0.34281 0.01555 0.03517 0.0
C1919 C 0.31288 0.04629 0.02432 0.0
C1920 C 0.36235 0.00164 0.02895 0.0
C1921 C 0.37164 0.00223 0.0058 0.0
C1922 C 0.33261 0.03019 0.01814 0.0
C1923 C 0.36038 0.0165 -0.01087 0.0
C1924 C 0.30456 0.0626 0.00786 0.0
C1925 C 0.28501 0.06044 0.05305 0.0
N1926 N 0.34157 0.03 -0.00432 0.0
N1927 N 0.30289 0.04575 0.04636 0.0
H1928 H 0.67783 0.61669 0.71456 0.0
H1929 H 0.74845 0.703 0.79103 0.0
H1930 H 0.69885 0.59288 0.78368 0.0
H1931 H 0.77247 0.6913 0.71905 0.0
H1932 H 0.7293 0.66378 0.79017 0.0
H1933 H 0.71091 0.64565 0.71575 0.0
C1934 C 0.6897 0.61736 0.72979 0.0
C1935 C 0.68578 0.60252 0.74905 0.0
C1936 C 0.73941 0.66954 0.77485 0.0
C1937 C 0.72293 0.63579 0.75081 0.0
C1938 C 0.75032 0.69182 0.77535 0.0
C1939 C 0.76206 0.70021 0.75511 0.0
C1940 C 0.73948 0.65612 0.75368 0.0
C1941 C 0.76374 0.68529 0.73506 0.0
C1942 C 0.70857 0.63372 0.73041 0.0
C1943 C 0.7015 0.60403 0.76846 0.0
N1944 N 0.75191 0.66417 0.73457 0.0
N1945 N 0.7191 0.62086 0.76916 0.0
H1946 H 0.77764 0.4541 0.93728 0.0
H1947 H 0.91792 0.4358 0.9544 0.0
H1948 H 0.80701 0.39431 0.97321 0.0
H1949 H 0.88408 0.50348 0.94915 0.0
H1950 H 0.8787 0.41644 0.94831 0.0
H1951 H 0.81816 0.46772 0.92838 0.0
C1952 C 0.79257 0.44361 0.94303 0.0
C1953 C 0.78892 0.4233 0.95654 0.0
C1954 C 0.88005 0.43551 0.94801 0.0
C1955 C 0.83531 0.43885 0.94623 0.0
C1956 C 0.90234 0.44654 0.95134 0.0
C1957 C 0.90404 0.47124 0.95255 0.0
C1958 C 0.85959 0.44936 0.94548 0.0
C1959 C 0.8834 0.48439 0.94863 0.0
C1960 C 0.81569 0.45144 0.93791 0.0
C1961 C 0.80901 0.41028 0.96311 0.0
N1962 N 0.86196 0.47327 0.94541 0.0
N1963 N 0.83144 0.41846 0.95815 0.0
H1964 H 0.26775 0.02482 0.73239 0.0
H1965 H 0.31652 0.15659 0.75231 0.0
H1966 H 0.34051 0.04139 0.75346 0.0
H1967 H 0.24131 0.13815 0.74739 0.0
H1968 H 0.32608 0.11461 0.75101 0.0
H1969 H 0.25792 0.0665 0.73672 0.0
C1970 C 0.2816 0.03721 0.73814 0.0
C1971 C 0.30498 0.02967 0.74253 0.0
C1972 C 0.3075 0.1198 0.75028 0.0
C1973 C 0.29396 0.0774 0.7472 0.0
C1974 C 0.30203 0.14375 0.75088 0.0
C1975 C 0.27808 0.15091 0.74992 0.0
C1976 C 0.28889 0.10293 0.74849 0.0
C1977 C 0.26003 0.13347 0.7482 0.0
C1978 C 0.27599 0.061 0.74059 0.0
C1979 C 0.32223 0.04647 0.74994 0.0
N1980 N 0.26582 0.11031 0.74747 0.0
N1981 N 0.31642 0.06961 0.75185 0.0
H1982 H 0.1431 0.94331 0.25352 0.0
H1983 H 0.24861 0.85694 0.21365 0.0
H1984 H 0.20755 0.96827 0.21921 0.0
H1985 H 0.18113 0.83421 0.24356 0.0
H1986 H 0.23353 0.89743 0.21268 0.0
H1987 H 0.15685 0.90301 0.24851 0.0
C1988 C 0.16025 0.94033 0.24503 0.0
C1989 C 0.17424 0.95923 0.23689 0.0
C1990 C 0.22195 0.88348 0.21915 0.0
C1991 C 0.19012 0.91287 0.23087 0.0
C1992 C 0.23047 0.86035 0.21949 0.0
C1993 C 0.21618 0.84221 0.2289 0.0
C1994 C 0.19905 0.88838 0.22828 0.0
C1995 C 0.19289 0.84766 0.23641 0.0
C1996 C 0.16805 0.91724 0.24203 0.0
C1997 C 0.19624 0.95421 0.22587 0.0
N1998 N 0.18517 0.87022 0.23614 0.0
N1999 N 0.20356 0.93149 0.22322 0.0
H2000 H 0.55866 0.35399 0.41443 0.0
H2001 H 0.47441 0.39185 0.51635 0.0
H2002 H 0.51819 0.30294 0.45461 0.0
H2003 H 0.53786 0.43307 0.50089 0.0
H2004 H 0.49201 0.35813 0.49553 0.0
H2005 H 0.55442 0.38234 0.44739 0.0
C2006 C 0.5494 0.34853 0.43037 0.0
C2007 C 0.53817 0.32628 0.43147 0.0
C2008 C 0.50233 0.37439 0.49711 0.0
C2009 C 0.53299 0.35867 0.46894 0.0
C2010 C 0.49223 0.39364 0.50887 0.0
C2011 C 0.50462 0.41525 0.51005 0.0
C2012 C 0.52465 0.37702 0.48585 0.0
C2013 C 0.52772 0.41666 0.50026 0.0
C2014 C 0.54701 0.36472 0.44918 0.0
C2015 C 0.52666 0.32008 0.45271 0.0
N2016 N 0.5368 0.39793 0.48803 0.0
N2017 N 0.52385 0.33639 0.47036 0.0
H2018 H 0.45033 0.74238 0.23565 0.0
H2019 H 0.33357 0.81138 0.20809 0.0
H2020 H 0.4398 0.78 0.17051 0.0
H2021 H 0.35269 0.7905 0.27893 0.0
H2022 H 0.37503 0.80593 0.19578 0.0
H2023 H 0.41722 0.7642 0.25354 0.0
C2024 C 0.44121 0.75535 0.22518 0.0
C2025 C 0.44749 0.75897 0.2014 0.0
C2026 C 0.3703 0.80308 0.21417 0.0
C2027 C 0.40969 0.78401 0.22172 0.0
C2028 C 0.34662 0.80627 0.22122 0.0
C2029 C 0.33953 0.80075 0.24438 0.0
C2030 C 0.3868 0.79386 0.23029 0.0
C2031 C 0.35726 0.79455 0.26075 0.0
C2032 C 0.42243 0.76794 0.23545 0.0
C2033 C 0.43531 0.77629 0.18878 0.0
N2034 N 0.37998 0.79063 0.25322 0.0
N2035 N 0.41676 0.78788 0.19898 0.0
H2036 H 0.94439 0.69124 0.89843 0.0
H2037 H 0.96799 0.60753 0.00449 0.0
H2038 H -0.01507 0.71059 0.96126 0.0
H2039 H 0.92711 0.58757 0.9423 0.0
H2040 H 0.96318 0.64903 -0.00517 0.0
H2041 H 0.92679 0.6581 0.91963 0.0
C2042 C 0.94915 0.68886 0.91688 0.0
C2043 C 0.96679 0.70313 0.92787 0.0
C2044 C 0.95469 0.63569 0.98356 0.0
C2045 C 0.94701 0.66515 0.95207 0.0
C2046 C 0.95742 0.61207 -0.01087 0.0
C2047 C 0.94811 0.59446 0.97396 0.0
C2048 C 0.94324 0.64153 0.96226 0.0
C2049 C 0.9346 0.60089 0.95427 0.0
C2050 C 0.9391 0.66992 0.92898 0.0
C2051 C 0.9719 0.69958 0.95191 0.0
N2052 N 0.933 0.624 0.94864 0.0
N2053 N 0.96248 0.68059 0.96305 0.0
H2054 H 0.04653 0.26298 0.71067 0.0
H2055 H 0.16912 0.196 0.71594 0.0
H2056 H 0.06797 0.21815 0.65188 0.0
H2057 H 0.16474 0.26965 0.73583 0.0
H2058 H 0.12823 0.1978 0.69956 0.0
H2059 H 0.08683 0.25976 0.72758 0.0
C2060 C 0.05975 0.25245 0.70138 0.0
C2061 C 0.05416 0.24094 0.67983 0.0
C2062 C 0.13633 0.21345 0.70763 0.0
C2063 C 0.09962 0.2367 0.69928 0.0
C2064 C 0.15942 0.2124 0.71707 0.0
C2065 C 0.17011 0.23273 0.72711 0.0
C2066 C 0.12388 0.23476 0.70901 0.0
C2067 C 0.15704 0.25366 0.72807 0.0
C2068 C 0.08261 0.25065 0.71099 0.0
C2069 C 0.0718 0.22747 0.66843 0.0
N2070 N 0.13446 0.25411 0.71928 0.0
N2071 N 0.09381 0.2255 0.67844 0.0
H2072 H 0.46748 0.63463 0.14576 0.0
H2073 H 0.48944 0.58415 0.01933 0.0
H2074 H 0.46808 0.68054 0.08533 0.0
H2075 H 0.44447 0.54525 0.06764 0.0
H2076 H 0.48395 0.61965 0.0441 0.0
H2077 H 0.46038 0.60089 0.11865 0.0
C2078 C 0.46571 0.63767 0.1269 0.0
C2079 C 0.4687 0.66037 0.11777 0.0
C2080 C 0.47496 0.6034 0.049 0.0
C2081 C 0.46111 0.62206 0.0869 0.0
C2082 C 0.47818 0.58321 0.03497 0.0
C2083 C 0.46742 0.56186 0.04154 0.0
C2084 C 0.46155 0.60195 0.07004 0.0
C2085 C 0.45296 0.56147 0.06196 0.0
C2086 C 0.46161 0.61847 0.1115 0.0
C2087 C 0.4661 0.66334 0.09317 0.0
N2088 N 0.45083 0.58116 0.07582 0.0
N2089 N 0.46298 0.64432 0.07853 0.0
H2090 H 0.09097 0.69177 0.8765 0.0
H2091 H 0.13713 0.69038 0.74544 0.0
H2092 H 0.04448 0.69809 0.81575 0.0
H2093 H 0.17912 0.66308 0.80289 0.0
H2094 H 0.10156 0.68815 0.77046 0.0
H2095 H 0.12209 0.67583 0.85022 0.0
C2096 C 0.08715 0.68931 0.85775 0.0
C2097 C 0.06546 0.69684 0.84812 0.0
C2098 C 0.11845 0.68221 0.7775 0.0
C2099 C 0.10076 0.67892 0.8181 0.0
C2100 C 0.13876 0.68357 0.76321 0.0
C2101 C 0.1611 0.67731 0.77227 0.0
C2102 C 0.12065 0.67512 0.80119 0.0
C2103 C 0.16221 0.66828 0.7953 0.0
C2104 C 0.10487 0.68022 0.84275 0.0
C2105 C 0.06125 0.69308 0.82378 0.0
N2106 N 0.14233 0.66796 0.80921 0.0
N2107 N 0.0789 0.68478 0.80954 0.0
H2108 H 0.95638 0.26857 0.57286 0.0
H2109 H 0.93864 0.35937 0.49417 0.0
H2110 H 0.96319 0.32515 0.62487 0.0
H2111 H 0.91744 0.40064 0.55572 0.0
H2112 H 0.94507 0.3259 0.51953 0.0
H2113 H 0.93987 0.29615 0.54479 0.0
C2114 C 0.9547 0.2869 0.57826 0.0
C2115 C 0.96157 0.29469 0.6011 0.0
C2116 C 0.93823 0.34195 0.52749 0.0
C2117 C 0.94301 0.32651 0.56888 0.0
C2118 C 0.93462 0.36118 0.51294 0.0
C2119 C 0.92784 0.38297 0.52286 0.0
C2120 C 0.93504 0.34455 0.55216 0.0
C2121 C 0.92286 0.38425 0.5473 0.0
C2122 C 0.94533 0.30269 0.56216 0.0
C2123 C 0.95846 0.31849 0.60733 0.0
N2124 N 0.92705 0.36543 0.56118 0.0
N2125 N 0.94946 0.33358 0.59126 0.0
H2126 H 0.43183 0.30476 0.37462 0.0
H2127 H 0.35726 0.2942 0.25853 0.0
H2128 H 0.46271 0.32424 0.30735 0.0
H2129 H 0.32353 0.32106 0.32232 0.0
H2130 H 0.3965 0.30071 0.27713 0.0
H2131 H 0.39176 0.30771 0.35714 0.0
C2132 C 0.43012 0.31013 0.35633 0.0
C2133 C 0.45051 0.31413 0.34231 0.0
C2134 C 0.38047 0.30529 0.28695 0.0
C2135 C 0.40512 0.3168 0.32224 0.0
C2136 C 0.35815 0.30132 0.2765 0.0
C2137 C 0.33724 0.30696 0.28903 0.0
C2138 C 0.3818 0.31438 0.31025 0.0
C2139 C 0.33932 0.31647 0.31214 0.0
C2140 C 0.40734 0.3118 0.34642 0.0
C2141 C 0.44742 0.32105 0.31874 0.0
N2142 N 0.36128 0.31959 0.32221 0.0
N2143 N 0.4251 0.32164 0.30924 0.0
H2144 H 0.40095 0.5036 0.32777 0.0
H2145 H 0.48253 0.51303 0.43894 0.0
H2146 H 0.47694 0.49293 0.31981 0.0
H2147 H 0.41679 0.47236 0.44267 0.0
H2148 H 0.4797 0.51191 0.39548 0.0
H2149 H 0.40488 0.49782 0.37064 0.0
C2150 C 0.41843 0.49994 0.33511 0.0
C2151 C 0.43871 0.49881 0.32046 0.0
C2152 C 0.46603 0.50313 0.40588 0.0
C2153 C 0.4433 0.49272 0.3691 0.0
C2154 C 0.46747 0.50395 0.43056 0.0
C2155 C 0.44974 0.49291 0.44424 0.0
C2156 C 0.44637 0.49181 0.39496 0.0
C2157 C 0.43075 0.4811 0.43264 0.0
C2158 C 0.4206 0.49652 0.35942 0.0
C2159 C 0.46094 0.49388 0.33065 0.0
N2160 N 0.42932 0.48118 0.40855 0.0
N2161 N 0.46277 0.49144 0.35455 0.0
H2162 H 0.2699 0.6149 0.10974 0.0
H2163 H 0.26688 0.74889 0.15735 0.0
H2164 H 0.26962 0.6739 0.06237 0.0
H2165 H 0.261 0.68727 0.20107 0.0
H2166 H 0.2717 0.72279 0.1223 0.0
H2167 H 0.27164 0.64225 0.14343 0.0
C2168 C 0.27046 0.63365 0.1064 0.0
C2169 C 0.26937 0.64209 0.08318 0.0
C2170 C 0.26941 0.7151 0.13963 0.0
C2171 C 0.27096 0.67373 0.12191 0.0
C2172 C 0.26659 0.72997 0.15961 0.0
C2173 C 0.26333 0.72033 0.18223 0.0
C2174 C 0.26911 0.6905 0.1424 0.0
C2175 C 0.26325 0.69565 0.18408 0.0
C2176 C 0.27136 0.64932 0.1257 0.0
C2177 C 0.27039 0.66662 0.07999 0.0
N2178 N 0.26607 0.68171 0.16452 0.0
N2179 N 0.27084 0.68163 0.09918 0.0
H2180 H 0.02577 0.51579 0.77673 0.0
H2181 H 0.04971 0.52963 0.91333 0.0
H2182 H 0.09684 0.50214 0.80292 0.0
H2183 H -0.0094 0.48653 0.88761 0.0
H2184 H 0.06614 0.53032 0.87276 0.0
H2185 H 0.01098 0.51667 0.81775 0.0
C2186 C 0.03832 0.51342 0.79114 0.0
C2187 C 0.06254 0.50886 0.78656 0.0
C2188 C 0.04963 0.52071 0.87616 0.0
C2189 C 0.04581 0.51009 0.83312 0.0
C2190 C 0.04026 0.52032 0.89912 0.0
C2191 C 0.0189 0.50789 0.90365 0.0
C2192 C 0.03703 0.50929 0.85767 0.0
C2193 C 0.00724 0.49611 0.88477 0.0
C2194 C 0.02983 0.51372 0.8144 0.0
C2195 C 0.07802 0.50562 0.80582 0.0
N2196 N 0.01631 0.49736 0.86244 0.0
N2197 N 0.06941 0.50645 0.8284 0.0
H2198 H 0.26553 0.33325 0.58596 0.0
H2199 H 0.25839 0.21948 0.66188 0.0
H2200 H 0.22528 0.27117 0.56405 0.0
H2201 H 0.30574 0.27828 0.67731 0.0
H2202 H 0.25376 0.23335 0.62127 0.0
H2203 H 0.2872 0.30989 0.61447 0.0
C2204 C 0.26138 0.31458 0.58709 0.0
C2205 C 0.2432 0.30419 0.57311 0.0
C2206 C 0.26588 0.2428 0.6332 0.0
C2207 C 0.26779 0.27729 0.60595 0.0
C2208 C 0.26873 0.2347 0.65627 0.0
C2209 C 0.28252 0.24779 0.67271 0.0
C2210 C 0.27643 0.26443 0.62692 0.0
C2211 C 0.2951 0.26768 0.66496 0.0
C2212 C 0.2739 0.30119 0.60326 0.0
C2213 C 0.23895 0.27987 0.5748 0.0
N2214 N 0.29134 0.27572 0.64272 0.0
N2215 N 0.25081 0.26729 0.59137 0.0
H2216 H 0.47236 0.51476 0.20154 0.0
H2217 H 0.41823 0.46235 0.08014 0.0
H2218 H 0.40493 0.53463 0.17063 0.0
H2219 H 0.49276 0.45583 0.09891 0.0
H2220 H 0.41048 0.47994 0.11918 0.0
H2221 H 0.47849 0.48714 0.16813 0.0
C2222 C 0.45901 0.51355 0.18759 0.0
C2223 C 0.43815 0.52711 0.18883 0.0
C2224 C 0.42845 0.47419 0.11497 0.0
C2225 C 0.44468 0.49508 0.15113 0.0
C2226 C 0.43279 0.46378 0.09284 0.0
C2227 C 0.45625 0.45812 0.08611 0.0
C2228 C 0.44772 0.479 0.13041 0.0
C2229 C 0.47443 0.46016 0.10331 0.0
C2230 C 0.4624 0.4976 0.16872 0.0
C2231 C 0.42135 0.52469 0.17038 0.0
N2232 N 0.46991 0.47103 0.12453 0.0
N2233 N 0.42494 0.50889 0.1524 0.0
H2234 H 0.26189 0.68053 0.94772 0.0
H2235 H 0.27981 0.64633 0.81073 0.0
H2236 H 0.27524 0.6103 0.92045 0.0
H2237 H 0.2655 0.71737 0.83502 0.0
H2238 H 0.28412 0.63444 0.85176 0.0
H2239 H 0.26819 0.69583 0.90761 0.0
C2240 C 0.26632 0.66839 0.93336 0.0
C2241 C 0.26772 0.64408 0.93733 0.0
C2242 C 0.28029 0.65272 0.84822 0.0
C2243 C 0.27506 0.66138 0.89166 0.0
C2244 C 0.27787 0.65952 0.82474 0.0
C2245 C 0.27198 0.68279 0.81949 0.0
C2246 C 0.27643 0.66921 0.8667 0.0
C2247 C 0.26997 0.69921 0.83834 0.0
C2248 C 0.26994 0.67711 0.91052 0.0
C2249 C 0.27365 0.62913 0.91817 0.0
N2250 N 0.2718 0.69201 0.8612 0.0
N2251 N 0.27695 0.63799 0.89621 0.0
H2252 H 0.08904 0.45593 0.63619 0.0
H2253 H 0.95823 0.47227 0.58284 0.0
H2254 H 0.02677 0.46572 0.68062 0.0
H2255 H 0.02324 0.4862 0.5435 0.0
H2256 H 0.98232 0.46722 0.61867 0.0
H2257 H 0.06423 0.46265 0.60119 0.0
C2258 C 0.0701 0.45919 0.63854 0.0
C2259 C 0.05993 0.46033 0.66129 0.0
C2260 C -0.00878 0.47164 0.60221 0.0
C2261 C 0.03157 0.46825 0.62149 0.0
C2262 C 0.97749 0.47466 0.5818 0.0
C2263 C -0.01129 0.47956 0.56008 0.0
C2264 C 0.01631 0.47322 0.60078 0.0
C2265 C 0.01376 0.48241 0.5598 0.0
C2266 C 0.05601 0.46326 0.61862 0.0
C2267 C 0.03531 0.46476 0.66336 0.0
N2268 N 0.02672 0.4789 0.57977 0.0
N2269 N 0.02194 0.46857 0.6437 0.0
H2270 H 0.18661 0.38765 0.43184 0.0
H2271 H 0.20586 0.28341 0.33659 0.0
H2272 H 0.20303 0.31641 0.45159 0.0
H2273 H 0.21787 0.35708 0.32215 0.0
H2274 H 0.19426 0.29428 0.37746 0.0
H2275 H 0.18796 0.37541 0.39009 0.0
C2276 C 0.1904 0.36941 0.42742 0.0
C2277 C 0.19506 0.3531 0.44522 0.0
C2278 C 0.19911 0.30802 0.36516 0.0
C2279 C 0.19635 0.33898 0.39751 0.0
C2280 C 0.20551 0.30186 0.34188 0.0
C2281 C 0.21302 0.3194 0.3262 0.0
C2282 C 0.19989 0.33184 0.37245 0.0
C2283 C 0.21245 0.34304 0.33386 0.0
C2284 C 0.19113 0.36245 0.4036 0.0
C2285 C 0.19969 0.32964 0.43842 0.0
N2286 N 0.20611 0.34857 0.3565 0.0
N2287 N 0.20029 0.32328 0.41505 0.0
H2288 H 0.25124 0.45132 0.53523 0.0
H2289 H 0.38933 0.42115 0.53548 0.0
H2290 H 0.27752 0.38002 0.53476 0.0
H2291 H 0.36357 0.48782 0.56251 0.0
H2292 H 0.34821 0.40616 0.53391 0.0
H2293 H 0.29204 0.46583 0.54357 0.0
C2294 C 0.26555 0.43874 0.53688 0.0
C2295 C 0.26099 0.41443 0.53412 0.0
C2296 C 0.35152 0.42398 0.54048 0.0
C2297 C 0.3075 0.43088 0.54363 0.0
C2298 C 0.37498 0.43253 0.54136 0.0
C2299 C 0.37978 0.45575 0.54908 0.0
C2300 C 0.33263 0.4389 0.54688 0.0
C2301 C 0.36057 0.46976 0.55657 0.0
C2302 C 0.28875 0.44701 0.54181 0.0
C2303 C 0.28017 0.3989 0.53665 0.0
N2304 N 0.33771 0.46122 0.55494 0.0
N2305 N 0.30259 0.4074 0.54106 0.0
H2306 H 0.79789 0.03713 0.48782 0.0
H2307 H 0.9177 0.05406 0.42182 0.0
H2308 H 0.81535 0.10088 0.45037 0.0
H2309 H 0.88998 0.98565 0.4403 0.0
H2310 H 0.87717 0.06955 0.42322 0.0
H2311 H 0.82828 0.01638 0.46472 0.0
C2312 C 0.8081 0.04676 0.47471 0.0
C2313 C 0.80449 0.07091 0.47145 0.0
C2314 C 0.87969 0.05091 0.42603 0.0
C2315 C 0.83921 0.04721 0.44476 0.0
C2316 C 0.90282 0.04199 0.42479 0.0
C2317 C 0.90704 0.01867 0.43119 0.0
C2318 C 0.861 0.03646 0.43443 0.0
C2319 C 0.88733 0.00379 0.43531 0.0
C2320 C 0.82524 0.03482 0.46127 0.0
C2321 C 0.81783 0.08234 0.45379 0.0
N2322 N 0.86516 0.01313 0.43775 0.0
N2323 N 0.8349 0.07049 0.4414 0.0
H2324 H 0.61662 0.05258 0.17743 0.0
H2325 H 0.73722 0.10803 0.22001 0.0
H2326 H 0.66612 0.01477 0.22121 0.0
H2327 H 0.70098 0.13228 0.15765 0.0
H2328 H 0.7149 0.07082 0.21689 0.0
H2329 H 0.64904 0.07979 0.16685 0.0
C2330 C 0.63432 0.04993 0.18473 0.0
C2331 C 0.63855 0.03168 0.20061 0.0
C2332 C 0.71233 0.08391 0.20339 0.0
C2333 C 0.67572 0.06263 0.18848 0.0
C2334 C 0.72522 0.10505 0.20508 0.0
C2335 C 0.72075 0.12311 0.18912 0.0
C2336 C 0.69429 0.08129 0.18612 0.0
C2337 C 0.70491 0.11864 0.17023 0.0
C2338 C 0.65289 0.06531 0.17846 0.0
C2339 C 0.66195 0.0288 0.20916 0.0
N2340 N 0.69165 0.09837 0.16963 0.0
N2341 N 0.67956 0.04436 0.20329 0.0
H2342 H 0.65148 0.91439 0.02555 0.0
H2343 H 0.52331 0.89358 0.96488 0.0
H2344 H 0.624 0.84537 0.00542 0.0
H2345 H 0.55493 0.96223 0.97957 0.0
H2346 H 0.56053 0.8754 0.97762 0.0
H2347 H 0.61587 0.93196 0.00866 0.0
C2348 C 0.63783 0.90289 0.01779 0.0
C2349 C 0.64075 0.87836 0.01689 0.0
C2350 C 0.5594 0.89445 0.97775 0.0
C2351 C 0.59997 0.89843 -0.00284 0.0
C2352 C 0.53822 0.90487 0.97024 0.0
C2353 C 0.53584 0.9295 0.97138 0.0
C2354 C 0.57827 0.90875 -0.01349 0.0
C2355 C 0.5558 0.94318 0.97858 0.0
C2356 C 0.61756 0.91296 0.00795 0.0
C2357 C 0.62246 0.86437 0.00654 0.0
N2358 N 0.57603 0.93261 -0.01387 0.0
N2359 N 0.60286 0.87461 -0.00298 0.0
H2360 H 0.37648 0.45327 0.2026 0.0
H2361 H 0.26326 0.40169 0.26317 0.0
H2362 H 0.33644 0.49396 0.25418 0.0
H2363 H 0.28488 0.37848 0.19307 0.0
H2364 H 0.28732 0.43759 0.25856 0.0
H2365 H 0.34171 0.42712 0.19705 0.0
C2366 C 0.36029 0.45681 0.2126 0.0
C2367 C 0.35946 0.47553 0.22919 0.0
C2368 C 0.28632 0.42496 0.24392 0.0
C2369 C 0.31972 0.44569 0.22301 0.0
C2370 C 0.27258 0.40449 0.24655 0.0
C2371 C 0.27241 0.38703 0.2286 0.0
C2372 C 0.30045 0.42759 0.22348 0.0
C2373 C 0.28466 0.39151 0.20737 0.0
C2374 C 0.34039 0.44202 0.20927 0.0
C2375 C 0.33792 0.47958 0.24138 0.0
N2376 N 0.29875 0.41112 0.20562 0.0
N2377 N 0.31903 0.46448 0.23839 0.0
H2378 H 0.18774 0.55536 0.02434 0.0
H2379 H 0.05182 0.58387 0.00015 0.0
H2380 H 0.16312 0.62546 0.00976 0.0
H2381 H 0.07382 0.5198 0.03356 0.0
H2382 H 0.09216 0.60006 0.00546 0.0
H2383 H 0.14618 0.54231 0.02928 0.0
C2384 C 0.17357 0.56803 0.02228 0.0
C2385 C 0.17882 0.59146 0.01634 0.0
C2386 C 0.08814 0.58259 0.01196 0.0
C2387 C 0.13128 0.57664 0.02195 0.0
C2388 C 0.06512 0.57332 0.0089 0.0
C2389 C 0.05961 0.55037 0.01619 0.0
C2390 C 0.10593 0.56864 0.02198 0.0
C2391 C 0.07739 0.53755 0.02764 0.0
C2392 C 0.14987 0.5606 0.02526 0.0
C2393 C 0.15982 0.6072 0.01417 0.0
N2394 N 0.09995 0.54673 0.02982 0.0
N2395 N 0.13685 0.59943 0.0167 0.0
H2396 H 0.60942 0.88117 0.25736 0.0
H2397 H 0.68435 0.78876 0.2344 0.0
H2398 H 0.67498 0.92191 0.25123 0.0
H2399 H 0.73582 0.82537 0.27939 0.0
H2400 H 0.65798 0.8225 0.23756 0.0
H2401 H 0.63314 0.84593 0.26396 0.0
C2402 C 0.62878 0.88275 0.25764 0.0
C2403 C 0.6403 0.90434 0.25325 0.0
C2404 C 0.67483 0.82301 0.2471 0.0
C2405 C 0.66737 0.86424 0.26059 0.0
C2406 C 0.69003 0.80392 0.24507 0.0
C2407 C 0.71229 0.80441 0.2566 0.0
C2408 C 0.68208 0.84293 0.26046 0.0
C2409 C 0.71873 0.82439 0.27031 0.0
C2410 C 0.64226 0.86265 0.26128 0.0
C2411 C 0.66545 0.90546 0.25411 0.0
N2412 N 0.7038 0.84319 0.27153 0.0
N2413 N 0.67822 0.88558 0.25755 0.0
H2414 H 0.80645 0.08099 0.76926 0.0
H2415 H 0.79102 0.21698 0.80043 0.0
H2416 H 0.8653 0.13044 0.7788 0.0
H2417 H 0.73571 0.17096 0.77157 0.0
H2418 H 0.81616 0.18255 0.80675 0.0
H2419 H 0.77897 0.11092 0.784 0.0
C2420 C 0.81364 0.09808 0.77471 0.0
C2421 C 0.83808 0.10351 0.77217 0.0
C2422 C 0.79826 0.17997 0.79963 0.0
C2423 C 0.80673 0.13777 0.78904 0.0
C2424 C 0.78387 0.19955 0.79617 0.0
C2425 C 0.76155 0.19672 0.78496 0.0
C2426 C 0.79007 0.15759 0.79196 0.0
C2427 C 0.75307 0.17385 0.77979 0.0
C2428 C 0.79795 0.11511 0.78322 0.0
C2429 C 0.84649 0.12572 0.78002 0.0
N2430 N 0.7675 0.15516 0.78299 0.0
N2431 N 0.83074 0.14224 0.78774 0.0
loop_
_geom_bond_atom_site_label_1
_geom_bond_atom_site_label_2
_geom_bond_distance
_geom_bond_site_symmetry_2
_ccdc_geom_bond_type
C0 O1 1.306 . S
C0 O3 1.160 . S
O1 C0 1.306 . S
O1 Cd2 2.228 1_655 S
Cd2 O1 2.228 1_455 S
Cd2 O6 2.273 . S
Cd2 O10 2.277 . S
O3 C0 1.160 . S
O3 Cd4 2.203 1_655 S
Cd4 O3 2.203 1_455 S
Cd4 O6 2.411 . S
Cd4 O7 2.333 . S
Cd4 O8 2.352 . S
Cd4 O12 2.277 . S
Cd4 O13 2.356 . S
C5 O10 1.209 . S
C5 O12 1.226 . S
O6 Cd2 2.273 . S
O6 Cd4 2.411 . S
O6 C9 1.320 . S
O7 Cd4 2.333 . S
O7 C9 1.214 . S
O8 Cd4 2.352 . S
O8 C11 1.258 . S
C9 O6 1.320 . S
C9 O7 1.214 . S
O10 Cd2 2.277 . S
O10 C5 1.209 . S
C11 O8 1.258 . S
C11 O13 1.282 . S
O12 Cd4 2.277 . S
O12 C5 1.226 . S
O13 Cd4 2.356 . S
O13 C11 1.282 . S
C14 O15 1.306 . S
C14 O17 1.160 . S
O15 C14 1.306 . S
O15 Cd16 2.228 1_655 S
Cd16 O15 2.228 1_455 S
Cd16 O20 2.273 . S
Cd16 O24 2.277 . S
O17 C14 1.160 . S
O17 Cd18 2.203 1_655 S
Cd18 O17 2.203 1_455 S
Cd18 O20 2.411 . S
Cd18 O21 2.333 . S
Cd18 O22 2.352 . S
Cd18 O26 2.277 . S
Cd18 O27 2.356 . S
C19 O24 1.209 . S
C19 O26 1.226 . S
O20 Cd16 2.273 . S
O20 Cd18 2.411 . S
O20 C23 1.320 . S
O21 Cd18 2.333 . S
O21 C23 1.214 . S
O22 Cd18 2.352 . S
O22 C25 1.258 . S
C23 O20 1.320 . S
C23 O21 1.214 . S
O24 Cd16 2.277 . S
O24 C19 1.209 . S
C25 O22 1.258 . S
C25 O27 1.282 . S
O26 Cd18 2.277 . S
O26 C19 1.226 . S
O27 Cd18 2.356 . S
O27 C25 1.282 . S
C28 O29 1.306 . S
C28 O31 1.160 . S
O29 C28 1.306 . S
O29 Cd30 2.228 . S
Cd30 O29 2.228 . S
Cd30 O34 2.273 . S
Cd30 O38 2.277 . S
O31 C28 1.160 . S
O31 Cd32 2.203 . S
Cd32 O31 2.203 . S
Cd32 O34 2.411 . S
Cd32 O35 2.333 . S
Cd32 O36 2.352 . S
Cd32 O40 2.277 . S
Cd32 O41 2.356 . S
C33 O38 1.209 . S
C33 O40 1.226 . S
O34 Cd30 2.273 . S
O34 Cd32 2.411 . S
O34 C37 1.320 . S
O35 Cd32 2.333 . S
O35 C37 1.214 . S
O36 Cd32 2.352 . S
O36 C39 1.258 . S
C37 O34 1.320 . S
C37 O35 1.214 . S
O38 Cd30 2.277 . S
O38 C33 1.209 . S
C39 O36 1.258 . S
C39 O41 1.282 . S
O40 Cd32 2.277 . S
O40 C33 1.226 . S
O41 Cd32 2.356 . S
O41 C39 1.282 . S
C42 O43 1.306 . S
C42 O45 1.160 . S
O43 C42 1.306 . S
O43 Cd44 2.228 . S
Cd44 O43 2.228 . S
Cd44 O48 2.273 . S
Cd44 O52 2.277 . S
O45 C42 1.160 . S
O45 Cd46 2.203 . S
Cd46 O45 2.203 . S
Cd46 O48 2.411 . S
Cd46 O49 2.333 . S
Cd46 O50 2.352 . S
Cd46 O54 2.277 . S
Cd46 O55 2.356 . S
C47 O52 1.209 . S
C47 O54 1.226 . S
O48 Cd44 2.273 . S
O48 Cd46 2.411 . S
O48 C51 1.320 . S
O49 Cd46 2.333 . S
O49 C51 1.214 . S
O50 Cd46 2.352 . S
O50 C53 1.258 . S
C51 O48 1.320 . S
C51 O49 1.214 . S
O52 Cd44 2.277 . S
O52 C47 1.209 . S
C53 O50 1.258 . S
C53 O55 1.282 . S
O54 Cd46 2.277 . S
O54 C47 1.226 . S
O55 Cd46 2.356 . S
O55 C53 1.282 . S
C56 O57 1.306 . S
C56 O59 1.160 . S
O57 C56 1.306 . S
O57 Cd58 2.228 . S
Cd58 O57 2.228 . S
Cd58 O62 2.273 . S
Cd58 O66 2.277 . S
O59 C56 1.160 . S
O59 Cd60 2.203 . S
Cd60 O59 2.203 . S
Cd60 O62 2.411 . S
Cd60 O63 2.333 . S
Cd60 O64 2.352 1_545 S
Cd60 O68 2.277 . S
Cd60 O69 2.356 1_545 S
C61 O66 1.209 . S
C61 O68 1.226 . S
O62 Cd58 2.273 . S
O62 Cd60 2.411 . S
O62 C65 1.320 . S
O63 Cd60 2.333 . S
O63 C65 1.214 . S
O64 Cd60 2.352 1_565 S
O64 C67 1.258 . S
C65 O62 1.320 . S
C65 O63 1.214 . S
O66 Cd58 2.277 . S
O66 C61 1.209 . S
C67 O64 1.258 . S
C67 O69 1.282 . S
O68 Cd60 2.277 . S
O68 C61 1.226 . S
O69 Cd60 2.356 1_565 S
O69 C67 1.282 . S
C70 O71 1.306 . S
C70 O73 1.160 . S
O71 C70 1.306 . S
O71 Cd72 2.228 . S
Cd72 O71 2.228 . S
Cd72 O76 2.273 . S
Cd72 O80 2.277 . S
O73 C70 1.160 . S
O73 Cd74 2.203 . S
Cd74 O73 2.203 . S
Cd74 O76 2.411 . S
Cd74 O77 2.333 . S
Cd74 O78 2.352 . S
Cd74 O82 2.277 . S
Cd74 O83 2.356 . S
C75 O80 1.209 . S
C75 O82 1.226 . S
O76 Cd72 2.273 . S
O76 Cd74 2.411 . S
O76 C79 1.320 . S
O77 Cd74 2.333 . S
O77 C79 1.214 . S
O78 Cd74 2.352 . S
O78 C81 1.258 . S
C79 O76 1.320 . S
C79 O77 1.214 . S
O80 Cd72 2.277 . S
O80 C75 1.209 . S
C81 O78 1.258 . S
C81 O83 1.282 . S
O82 Cd74 2.277 . S
O82 C75 1.226 . S
O83 Cd74 2.356 . S
O83 C81 1.282 . S
C84 O85 1.306 . S
C84 O87 1.160 1_565 S
O85 C84 1.306 . S
O85 Cd86 2.228 . S
Cd86 O85 2.228 . S
Cd86 O90 2.307 . S
Cd86 O94 2.277 . S
O87 C84 1.160 1_545 S
O87 Cd88 2.203 . S
Cd88 O87 2.203 . S
Cd88 O90 2.407 1_545 S
Cd88 O91 2.333 . S
Cd88 O92 2.352 . S
Cd88 O96 2.277 1_545 S
Cd88 O97 2.356 . S
C89 O94 1.209 . S
C89 O96 1.226 . S
O90 Cd86 2.307 . S
O90 Cd88 2.407 1_565 S
O90 C93 1.317 1_565 S
O91 Cd88 2.333 . S
O91 C93 1.214 . S
O92 Cd88 2.352 . S
O92 C95 1.258 . S
C93 O90 1.317 1_545 S
C93 O91 1.214 . S
O94 Cd86 2.277 . S
O94 C89 1.209 . S
C95 O92 1.258 . S
C95 O97 1.282 . S
O96 Cd88 2.277 1_565 S
O96 C89 1.226 . S
O97 Cd88 2.356 . S
O97 C95 1.282 . S
C98 O99 1.306 . S
C98 O101 1.160 . S
O99 C98 1.306 . S
O99 Cd100 2.228 . S
Cd100 O99 2.228 . S
Cd100 O104 2.273 . S
Cd100 O108 2.277 . S
O101 C98 1.160 . S
O101 Cd102 2.203 . S
Cd102 O101 2.203 . S
Cd102 O104 2.411 . S
Cd102 O105 2.333 . S
Cd102 O106 2.352 1_554 S
Cd102 O110 2.277 . S
Cd102 O111 2.356 1_554 S
C103 O108 1.209 . S
C103 O110 1.226 . S
O104 Cd100 2.273 . S
O104 Cd102 2.411 . S
O104 C107 1.320 . S
O105 Cd102 2.333 . S
O105 C107 1.214 . S
O106 Cd102 2.352 1_556 S
O106 C109 1.258 . S
C107 O104 1.320 . S
C107 O105 1.214 . S
O108 Cd100 2.277 . S
O108 C103 1.209 . S
C109 O106 1.258 . S
C109 O111 1.282 . S
O110 Cd102 2.277 . S
O110 C103 1.226 . S
O111 Cd102 2.356 1_556 S
O111 C109 1.282 . S
C112 O113 1.306 1_554 S
C112 O115 1.160 . S
O113 C112 1.306 1_556 S
O113 Cd114 2.228 . S
Cd114 O113 2.228 . S
Cd114 O118 2.273 1_556 S
Cd114 O122 2.277 . S
O115 C112 1.160 . S
O115 Cd116 2.203 . S
Cd116 O115 2.203 . S
Cd116 O118 2.411 . S
Cd116 O119 2.333 . S
Cd116 O120 2.352 . S
Cd116 O124 2.277 1_554 S
Cd116 O125 2.356 . S
C117 O122 1.209 . S
C117 O124 1.226 . S
O118 Cd114 2.273 1_554 S
O118 Cd116 2.411 . S
O118 C121 1.320 . S
O119 Cd116 2.333 . S
O119 C121 1.214 . S
O120 Cd116 2.352 . S
O120 C123 1.258 . S
C121 O118 1.320 . S
C121 O119 1.214 . S
O122 Cd114 2.277 . S
O122 C117 1.209 . S
C123 O120 1.258 . S
C123 O125 1.282 . S
O124 Cd116 2.277 1_556 S
O124 C117 1.226 . S
O125 Cd116 2.356 . S
O125 C123 1.282 . S
C126 O127 1.306 . S
C126 O129 1.160 . S
O127 C126 1.306 . S
O127 Cd128 2.228 . S
Cd128 O127 2.228 . S
Cd128 O132 2.273 . S
Cd128 O136 2.277 . S
O129 C126 1.160 . S
O129 Cd130 2.203 . S
Cd130 O129 2.203 . S
Cd130 O132 2.411 . S
Cd130 O133 2.333 . S
Cd130 O134 2.352 . S
Cd130 O138 2.277 . S
Cd130 O139 2.356 . S
C131 O136 1.209 . S
C131 O138 1.226 . S
O132 Cd128 2.273 . S
O132 Cd130 2.411 . S
O132 C135 1.320 . S
O133 Cd130 2.333 . S
O133 C135 1.214 . S
O134 Cd130 2.352 . S
O134 C137 1.258 . S
C135 O132 1.320 . S
C135 O133 1.214 . S
O136 Cd128 2.277 . S
O136 C131 1.209 . S
C137 O134 1.258 . S
C137 O139 1.282 . S
O138 Cd130 2.277 . S
O138 C131 1.226 . S
O139 Cd130 2.356 . S
O139 C137 1.282 . S
C140 O141 1.306 . S
C140 O143 1.160 . S
O141 C140 1.306 . S
O141 Cd142 2.228 . S
Cd142 O141 2.228 . S
Cd142 O146 2.273 . S
Cd142 O150 2.277 . S
O143 C140 1.160 . S
O143 Cd144 2.203 . S
Cd144 O143 2.203 . S
Cd144 O146 2.411 . S
Cd144 O147 2.333 . S
Cd144 O148 2.352 . S
Cd144 O152 2.277 . S
Cd144 O153 2.356 . S
C145 O150 1.209 . S
C145 O152 1.226 . S
O146 Cd142 2.273 . S
O146 Cd144 2.411 . S
O146 C149 1.320 . S
O147 Cd144 2.333 . S
O147 C149 1.214 . S
O148 Cd144 2.352 . S
O148 C151 1.258 . S
C149 O146 1.320 . S
C149 O147 1.214 . S
O150 Cd142 2.277 . S
O150 C145 1.209 . S
C151 O148 1.258 . S
C151 O153 1.282 . S
O152 Cd144 2.277 . S
O152 C145 1.226 . S
O153 Cd144 2.356 . S
O153 C151 1.282 . S
C154 O155 1.306 . S
C154 O157 1.160 . S
O155 C154 1.306 . S
O155 Cd156 2.228 . S
Cd156 O155 2.228 . S
Cd156 O160 2.273 . S
Cd156 O164 2.277 . S
O157 C154 1.160 . S
O157 Cd158 2.203 . S
Cd158 O157 2.203 . S
Cd158 O160 2.411 . S
Cd158 O161 2.333 . S
Cd158 O162 2.352 . S
Cd158 O166 2.277 . S
Cd158 O167 2.356 . S
C159 O164 1.209 . S
C159 O166 1.226 . S
O160 Cd156 2.273 . S
O160 Cd158 2.411 . S
O160 C163 1.320 . S
O161 Cd158 2.333 . S
O161 C163 1.214 . S
O162 Cd158 2.352 . S
O162 C165 1.258 . S
C163 O160 1.320 . S
C163 O161 1.214 . S
O164 Cd156 2.277 . S
O164 C159 1.209 . S
C165 O162 1.258 . S
C165 O167 1.282 . S
O166 Cd158 2.277 . S
O166 C159 1.226 . S
O167 Cd158 2.356 . S
O167 C165 1.282 . S
C168 O169 1.306 . S
C168 O171 1.160 . S
O169 C168 1.306 . S
O169 Cd170 2.228 1_655 S
Cd170 O169 2.228 1_455 S
Cd170 O174 2.273 . S
Cd170 O178 2.277 . S
O171 C168 1.160 . S
O171 Cd172 2.203 1_655 S
Cd172 O171 2.203 1_455 S
Cd172 O174 2.411 . S
Cd172 O175 2.333 . S
Cd172 O176 2.352 . S
Cd172 O180 2.277 . S
Cd172 O181 2.356 . S
C173 O178 1.209 . S
C173 O180 1.226 . S
O174 Cd170 2.273 . S
O174 Cd172 2.411 . S
O174 C177 1.320 . S
O175 Cd172 2.333 . S
O175 C177 1.214 . S
O176 Cd172 2.352 . S
O176 C179 1.258 . S
C177 O174 1.320 . S
C177 O175 1.214 . S
O178 Cd170 2.277 . S
O178 C173 1.209 . S
C179 O176 1.258 . S
C179 O181 1.282 . S
O180 Cd172 2.277 . S
O180 C173 1.226 . S
O181 Cd172 2.356 . S
O181 C179 1.282 . S
C182 O183 1.306 . S
C182 O185 1.160 . S
O183 C182 1.306 . S
O183 Cd184 2.228 1_655 S
Cd184 O183 2.228 1_455 S
Cd184 O188 2.273 . S
Cd184 O192 2.277 . S
O185 C182 1.160 . S
O185 Cd186 2.203 1_655 S
Cd186 O185 2.203 1_455 S
Cd186 O188 2.411 . S
Cd186 O189 2.333 . S
Cd186 O190 2.352 . S
Cd186 O194 2.277 . S
Cd186 O195 2.356 . S
C187 O192 1.209 . S
C187 O194 1.226 . S
O188 Cd184 2.273 . S
O188 Cd186 2.411 . S
O188 C191 1.320 . S
O189 Cd186 2.333 . S
O189 C191 1.214 . S
O190 Cd186 2.352 . S
O190 C193 1.258 . S
C191 O188 1.320 . S
C191 O189 1.214 . S
O192 Cd184 2.277 . S
O192 C187 1.209 . S
C193 O190 1.258 . S
C193 O195 1.282 . S
O194 Cd186 2.277 . S
O194 C187 1.226 . S
O195 Cd186 2.356 . S
O195 C193 1.282 . S
C196 O197 1.306 . S
C196 O199 1.160 . S
O197 C196 1.306 . S
O197 Cd198 2.228 . S
Cd198 O197 2.228 . S
Cd198 O202 2.273 . S
Cd198 O206 2.277 . S
O199 C196 1.160 . S
O199 Cd200 2.203 . S
Cd200 O199 2.203 . S
Cd200 O202 2.411 . S
Cd200 O203 2.333 . S
Cd200 O204 2.352 . S
Cd200 O208 2.277 . S
Cd200 O209 2.356 . S
C201 O206 1.209 . S
C201 O208 1.226 . S
O202 Cd198 2.273 . S
O202 Cd200 2.411 . S
O202 C205 1.320 . S
O203 Cd200 2.333 . S
O203 C205 1.214 . S
O204 Cd200 2.352 . S
O204 C207 1.258 . S
C205 O202 1.320 . S
C205 O203 1.214 . S
O206 Cd198 2.277 . S
O206 C201 1.209 . S
C207 O204 1.258 . S
C207 O209 1.282 . S
O208 Cd200 2.277 . S
O208 C201 1.226 . S
O209 Cd200 2.356 . S
O209 C207 1.282 . S
C210 O211 1.306 . S
C210 O213 1.160 . S
O211 C210 1.306 . S
O211 Cd212 2.228 . S
Cd212 O211 2.228 . S
Cd212 O216 2.273 . S
Cd212 O220 2.277 . S
O213 C210 1.160 . S
O213 Cd214 2.203 . S
Cd214 O213 2.203 . S
Cd214 O216 2.411 . S
Cd214 O217 2.333 . S
Cd214 O218 2.352 . S
Cd214 O222 2.277 . S
Cd214 O223 2.356 . S
C215 O220 1.209 . S
C215 O222 1.226 . S
O216 Cd212 2.273 . S
O216 Cd214 2.411 . S
O216 C219 1.320 . S
O217 Cd214 2.333 . S
O217 C219 1.214 . S
O218 Cd214 2.352 . S
O218 C221 1.258 . S
C219 O216 1.320 . S
C219 O217 1.214 . S
O220 Cd212 2.277 . S
O220 C215 1.209 . S
C221 O218 1.258 . S
C221 O223 1.282 . S
O222 Cd214 2.277 . S
O222 C215 1.226 . S
O223 Cd214 2.356 . S
O223 C221 1.282 . S
C224 O225 1.306 . S
C224 O227 1.160 . S
O225 C224 1.306 . S
O225 Cd226 2.228 1_545 S
Cd226 O225 2.228 1_565 S
Cd226 O230 2.273 1_565 S
Cd226 O234 2.277 . S
O227 C224 1.160 . S
O227 Cd228 2.203 . S
Cd228 O227 2.203 . S
Cd228 O230 2.411 . S
Cd228 O231 2.333 . S
Cd228 O232 2.352 . S
Cd228 O236 2.277 1_545 S
Cd228 O237 2.356 . S
C229 O234 1.209 . S
C229 O236 1.226 . S
O230 Cd226 2.273 1_545 S
O230 Cd228 2.411 . S
O230 C233 1.320 . S
O231 Cd228 2.333 . S
O231 C233 1.214 . S
O232 Cd228 2.352 . S
O232 C235 1.258 . S
C233 O230 1.320 . S
C233 O231 1.214 . S
O234 Cd226 2.277 . S
O234 C229 1.209 . S
C235 O232 1.258 . S
C235 O237 1.282 . S
O236 Cd228 2.277 1_565 S
O236 C229 1.226 . S
O237 Cd228 2.356 . S
O237 C235 1.282 . S
C238 O239 1.306 . S
C238 O241 1.160 . S
O239 C238 1.306 . S
O239 Cd240 2.228 . S
Cd240 O239 2.228 . S
Cd240 O244 2.273 . S
Cd240 O248 2.277 . S
O241 C238 1.160 . S
O241 Cd242 2.203 . S
Cd242 O241 2.203 . S
Cd242 O244 2.411 . S
Cd242 O245 2.333 . S
Cd242 O246 2.352 . S
Cd242 O250 2.277 . S
Cd242 O251 2.356 . S
C243 O248 1.209 . S
C243 O250 1.226 . S
O244 Cd240 2.273 . S
O244 Cd242 2.411 . S
O244 C247 1.320 . S
O245 Cd242 2.333 . S
O245 C247 1.214 . S
O246 Cd242 2.352 . S
O246 C249 1.258 . S
C247 O244 1.320 . S
C247 O245 1.214 . S
O248 Cd240 2.277 . S
O248 C243 1.209 . S
C249 O246 1.258 . S
C249 O251 1.282 . S
O250 Cd242 2.277 . S
O250 C243 1.226 . S
O251 Cd242 2.356 . S
O251 C249 1.282 . S
C252 O253 1.306 . S
C252 O255 1.160 1_545 S
O253 C252 1.306 . S
O253 Cd254 2.228 . S
Cd254 O253 2.228 . S
Cd254 O258 2.273 . S
Cd254 O262 2.277 . S
O255 C252 1.160 1_565 S
O255 Cd256 2.203 . S
Cd256 O255 2.203 . S
Cd256 O258 2.411 1_565 S
Cd256 O259 2.333 . S
Cd256 O260 2.352 . S
Cd256 O264 2.277 1_565 S
Cd256 O265 2.356 . S
C257 O262 1.209 . S
C257 O264 1.226 . S
O258 Cd254 2.273 . S
O258 Cd256 2.411 1_545 S
O258 C261 1.317 1_545 S
O259 Cd256 2.333 . S
O259 C261 1.222 . S
O260 Cd256 2.352 . S
O260 C263 1.258 . S
C261 O258 1.317 1_565 S
C261 O259 1.222 . S
O262 Cd254 2.277 . S
O262 C257 1.209 . S
C263 O260 1.258 . S
C263 O265 1.282 . S
O264 Cd256 2.277 1_545 S
O264 C257 1.226 . S
O265 Cd256 2.356 . S
O265 C263 1.282 . S
C266 O267 1.287 1_554 S
C266 O269 1.174 . S
O267 C266 1.287 1_556 S
O267 Cd268 2.228 . S
Cd268 O267 2.228 . S
Cd268 O272 2.273 1_556 S
Cd268 O276 2.277 . S
O269 C266 1.174 . S
O269 Cd270 2.203 . S
Cd270 O269 2.203 . S
Cd270 O272 2.411 . S
Cd270 O273 2.333 . S
Cd270 O274 2.352 . S
Cd270 O278 2.277 1_554 S
Cd270 O279 2.356 . S
C271 O276 1.209 . S
C271 O278 1.226 . S
O272 Cd268 2.273 1_554 S
O272 Cd270 2.411 . S
O272 C275 1.320 . S
O273 Cd270 2.333 . S
O273 C275 1.214 . S
O274 Cd270 2.352 . S
O274 C277 1.258 . S
C275 O272 1.320 . S
C275 O273 1.214 . S
O276 Cd268 2.277 . S
O276 C271 1.209 . S
C277 O274 1.258 . S
C277 O279 1.282 . S
O278 Cd270 2.277 1_556 S
O278 C271 1.226 . S
O279 Cd270 2.356 . S
O279 C277 1.282 . S
C280 O281 1.306 . S
C280 O283 1.158 . S
O281 C280 1.306 . S
O281 Cd282 2.228 . S
Cd282 O281 2.228 . S
Cd282 O286 2.273 . S
Cd282 O290 2.277 . S
O283 C280 1.158 . S
O283 Cd284 2.203 1_554 S
Cd284 O283 2.203 1_556 S
Cd284 O286 2.411 1_556 S
Cd284 O287 2.333 . S
Cd284 O288 2.352 . S
Cd284 O292 2.277 1_556 S
Cd284 O293 2.356 . S
C285 O290 1.209 . S
C285 O292 1.226 . S
O286 Cd282 2.273 . S
O286 Cd284 2.411 1_554 S
O286 C289 1.320 . S
O287 Cd284 2.333 . S
O287 C289 1.209 1_556 S
O288 Cd284 2.352 . S
O288 C291 1.258 . S
C289 O286 1.320 . S
C289 O287 1.209 1_554 S
O290 Cd282 2.277 . S
O290 C285 1.209 . S
C291 O288 1.258 . S
C291 O293 1.282 . S
O292 Cd284 2.277 1_554 S
O292 C285 1.226 . S
O293 Cd284 2.356 . S
O293 C291 1.282 . S
C294 O295 1.306 . S
C294 O297 1.160 . S
O295 C294 1.306 . S
O295 Cd296 2.228 . S
Cd296 O295 2.228 . S
Cd296 O300 2.273 . S
Cd296 O304 2.277 . S
O297 C294 1.160 . S
O297 Cd298 2.203 . S
Cd298 O297 2.203 . S
Cd298 O300 2.411 . S
Cd298 O301 2.333 . S
Cd298 O302 2.352 . S
Cd298 O306 2.277 . S
Cd298 O307 2.356 . S
C299 O304 1.209 . S
C299 O306 1.226 . S
O300 Cd296 2.273 . S
O300 Cd298 2.411 . S
O300 C303 1.320 . S
O301 Cd298 2.333 . S
O301 C303 1.214 . S
O302 Cd298 2.352 . S
O302 C305 1.258 . S
C303 O300 1.320 . S
C303 O301 1.214 . S
O304 Cd296 2.277 . S
O304 C299 1.209 . S
C305 O302 1.258 . S
C305 O307 1.282 . S
O306 Cd298 2.277 . S
O306 C299 1.226 . S
O307 Cd298 2.356 . S
O307 C305 1.282 . S
C308 O309 1.306 . S
C308 O311 1.160 . S
O309 C308 1.306 . S
O309 Cd310 2.228 . S
Cd310 O309 2.228 . S
Cd310 O314 2.273 . S
Cd310 O318 2.277 . S
O311 C308 1.160 . S
O311 Cd312 2.203 . S
Cd312 O311 2.203 . S
Cd312 O314 2.411 . S
Cd312 O315 2.333 . S
Cd312 O316 2.352 . S
Cd312 O320 2.277 . S
Cd312 O321 2.356 . S
C313 O318 1.209 . S
C313 O320 1.226 . S
O314 Cd310 2.273 . S
O314 Cd312 2.411 . S
O314 C317 1.320 . S
O315 Cd312 2.333 . S
O315 C317 1.214 . S
O316 Cd312 2.352 . S
O316 C319 1.258 . S
C317 O314 1.320 . S
C317 O315 1.214 . S
O318 Cd310 2.277 . S
O318 C313 1.209 . S
C319 O316 1.258 . S
C319 O321 1.282 . S
O320 Cd312 2.277 . S
O320 C313 1.226 . S
O321 Cd312 2.356 . S
O321 C319 1.282 . S
C322 O323 1.306 . S
C322 O325 1.160 . S
O323 C322 1.306 . S
O323 Cd324 2.228 . S
Cd324 O323 2.228 . S
Cd324 O328 2.273 . S
Cd324 O332 2.277 . S
O325 C322 1.160 . S
O325 Cd326 2.203 . S
Cd326 O325 2.203 . S
Cd326 O328 2.411 . S
Cd326 O329 2.333 . S
Cd326 O330 2.352 . S
Cd326 O334 2.277 . S
Cd326 O335 2.356 . S
C327 O332 1.209 . S
C327 O334 1.226 . S
O328 Cd324 2.273 . S
O328 Cd326 2.411 . S
O328 C331 1.320 . S
O329 Cd326 2.333 . S
O329 C331 1.214 . S
O330 Cd326 2.352 . S
O330 C333 1.258 . S
C331 O328 1.320 . S
C331 O329 1.214 . S
O332 Cd324 2.277 . S
O332 C327 1.209 . S
C333 O330 1.258 . S
C333 O335 1.282 . S
O334 Cd326 2.277 . S
O334 C327 1.226 . S
O335 Cd326 2.356 . S
O335 C333 1.282 . S
O336 Zn337 1.953 . S
O336 C352 1.225 1_455 S
Zn337 O336 1.953 . S
Zn337 O338 1.964 . S
Zn337 O344 1.919 1_554 S
Zn337 O349 1.924 1_454 S
O338 Zn337 1.964 . S
O338 Zn339 1.957 1_545 S
O338 Zn340 1.924 1_455 S
O338 Zn341 1.924 1_444 S
Zn339 O338 1.957 1_565 S
Zn339 O342 1.933 . S
Zn339 O345 1.941 1_565 S
Zn339 O346 1.965 . S
Zn340 O338 1.924 1_655 S
Zn340 O347 1.938 . S
Zn340 O348 1.906 1_545 S
Zn340 O358 1.953 . S
Zn341 O338 1.924 1_666 S
Zn341 O343 1.932 . S
Zn341 O350 1.977 1_556 S
Zn341 O351 1.910 1_565 S
O342 Zn339 1.933 . S
O342 C353 1.226 1_554 S
O343 Zn341 1.932 . S
O343 C353 1.307 1_655 S
O344 Zn337 1.919 1_556 S
O344 C355 1.253 1_556 S
O345 Zn339 1.941 1_545 S
O345 C355 1.283 . S
O346 Zn339 1.965 . S
O346 C354 1.303 1_565 S
O347 Zn340 1.938 . S
O347 C354 1.247 1_655 S
O348 Zn340 1.906 1_565 S
O348 C356 1.304 . S
O349 Zn337 1.924 1_656 S
O349 C357 1.311 . S
O350 Zn341 1.977 1_554 S
O350 C356 1.272 . S
O351 Zn341 1.910 1_545 S
O351 C357 1.231 . S
C352 O336 1.225 1_655 S
C352 O358 1.298 . S
C353 O342 1.226 1_556 S
C353 O343 1.307 1_455 S
C354 O346 1.303 1_545 S
C354 O347 1.247 1_455 S
C355 O344 1.253 1_554 S
C355 O345 1.283 . S
C356 O348 1.304 . S
C356 O350 1.272 . S
C357 O349 1.311 . S
C357 O351 1.231 . S
O358 Zn340 1.953 . S
O358 C352 1.298 . S
O359 Zn360 1.953 . S
O359 C375 1.225 . S
Zn360 O359 1.953 . S
Zn360 O361 1.949 . S
Zn360 O367 1.919 . S
Zn360 O372 1.924 . S
O361 Zn360 1.949 . S
O361 Zn362 1.923 . S
O361 Zn363 1.950 . S
O361 Zn364 1.945 . S
Zn362 O361 1.923 . S
Zn362 O365 1.933 . S
Zn362 O368 1.941 . S
Zn362 O369 1.965 . S
Zn363 O361 1.950 . S
Zn363 O370 1.938 . S
Zn363 O371 1.906 . S
Zn363 O381 1.953 . S
Zn364 O361 1.945 . S
Zn364 O366 1.932 . S
Zn364 O373 1.977 . S
Zn364 O374 1.910 . S
O365 Zn362 1.933 . S
O365 C376 1.226 . S
O366 Zn364 1.932 . S
O366 C376 1.307 . S
O367 Zn360 1.919 . S
O367 C378 1.253 . S
O368 Zn362 1.941 . S
O368 C378 1.283 . S
O369 Zn362 1.965 . S
O369 C377 1.303 . S
O370 Zn363 1.938 . S
O370 C377 1.247 . S
O371 Zn363 1.906 . S
O371 C379 1.304 . S
O372 Zn360 1.924 . S
O372 C380 1.311 . S
O373 Zn364 1.977 . S
O373 C379 1.272 . S
O374 Zn364 1.910 . S
O374 C380 1.231 . S
C375 O359 1.225 . S
C375 O381 1.298 . S
C376 O365 1.226 . S
C376 O366 1.307 . S
C377 O369 1.303 . S
C377 O370 1.247 . S
C378 O367 1.253 . S
C378 O368 1.283 . S
C379 O371 1.304 . S
C379 O373 1.272 . S
C380 O372 1.311 . S
C380 O374 1.231 . S
O381 Zn363 1.953 . S
O381 C375 1.298 . S
O382 Zn383 1.953 . S
O382 C398 1.225 . S
Zn383 O382 1.953 . S
Zn383 O384 1.949 1_565 S
Zn383 O390 1.919 . S
Zn383 O395 1.924 . S
O384 Zn383 1.949 1_545 S
O384 Zn385 1.923 . S
O384 Zn386 1.950 . S
O384 Zn387 1.945 . S
Zn385 O384 1.923 . S
Zn385 O388 1.933 . S
Zn385 O391 1.941 . S
Zn385 O392 1.965 . S
Zn386 O384 1.950 . S
Zn386 O393 1.938 . S
Zn386 O394 1.906 . S
Zn386 O404 1.953 1_545 S
Zn387 O384 1.945 . S
Zn387 O389 1.932 . S
Zn387 O396 1.977 . S
Zn387 O397 1.910 . S
O388 Zn385 1.933 . S
O388 C399 1.226 . S
O389 Zn387 1.932 . S
O389 C399 1.307 . S
O390 Zn383 1.919 . S
O390 C401 1.253 . S
O391 Zn385 1.941 . S
O391 C401 1.283 1_545 S
O392 Zn385 1.965 . S
O392 C400 1.303 . S
O393 Zn386 1.938 . S
O393 C400 1.247 . S
O394 Zn386 1.906 . S
O394 C402 1.304 . S
O395 Zn383 1.924 . S
O395 C403 1.311 . S
O396 Zn387 1.977 . S
O396 C402 1.272 . S
O397 Zn387 1.910 . S
O397 C403 1.231 1_545 S
C398 O382 1.225 . S
C398 O404 1.298 . S
C399 O388 1.226 . S
C399 O389 1.307 . S
C400 O392 1.303 . S
C400 O393 1.247 . S
C401 O390 1.253 . S
C401 O391 1.283 1_565 S
C402 O394 1.304 . S
C402 O396 1.272 . S
C403 O395 1.311 . S
C403 O397 1.231 1_565 S
O404 Zn386 1.953 1_565 S
O404 C398 1.298 . S
O405 Zn406 1.953 . S
O405 C421 1.225 . S
Zn406 O405 1.953 . S
Zn406 O407 1.949 . S
Zn406 O413 1.919 . S
Zn406 O418 1.924 . S
O407 Zn406 1.949 . S
O407 Zn408 1.923 . S
O407 Zn409 1.950 . S
O407 Zn410 1.945 . S
Zn408 O407 1.923 . S
Zn408 O411 1.933 . S
Zn408 O414 1.941 . S
Zn408 O415 1.965 . S
Zn409 O407 1.950 . S
Zn409 O416 1.938 . S
Zn409 O417 1.906 . S
Zn409 O427 1.953 . S
Zn410 O407 1.945 . S
Zn410 O412 1.932 . S
Zn410 O419 1.977 . S
Zn410 O420 1.910 . S
O411 Zn408 1.933 . S
O411 C422 1.226 . S
O412 Zn410 1.932 . S
O412 C422 1.307 . S
O413 Zn406 1.919 . S
O413 C424 1.253 . S
O414 Zn408 1.941 . S
O414 C424 1.283 . S
O415 Zn408 1.965 . S
O415 C423 1.303 . S
O416 Zn409 1.938 . S
O416 C423 1.247 . S
O417 Zn409 1.906 . S
O417 C425 1.304 . S
O418 Zn406 1.924 . S
O418 C426 1.311 . S
O419 Zn410 1.977 . S
O419 C425 1.272 . S
O420 Zn410 1.910 . S
O420 C426 1.231 . S
C421 O405 1.225 . S
C421 O427 1.298 . S
C422 O411 1.226 . S
C422 O412 1.307 . S
C423 O415 1.303 . S
C423 O416 1.247 . S
C424 O413 1.253 . S
C424 O414 1.283 . S
C425 O417 1.304 . S
C425 O419 1.272 . S
C426 O418 1.311 . S
C426 O420 1.231 . S
O427 Zn409 1.953 . S
O427 C421 1.298 . S
O428 Zn429 1.964 1_455 S
O428 C444 1.225 . S
Zn429 O428 1.964 1_655 S
Zn429 O430 1.961 1_655 S
Zn429 O436 1.883 1_545 S
Zn429 O441 1.942 . S
O430 Zn429 1.961 1_455 S
O430 Zn431 1.923 1_545 S
O430 Zn432 1.950 . S
O430 Zn433 1.945 1_455 S
Zn431 O430 1.923 1_565 S
Zn431 O434 1.933 . S
Zn431 O437 1.941 . S
Zn431 O438 1.965 . S
Zn432 O430 1.950 . S
Zn432 O439 1.938 . S
Zn432 O440 1.906 . S
Zn432 O450 1.953 . S
Zn433 O430 1.945 1_655 S
Zn433 O435 1.932 . S
Zn433 O442 1.977 . S
Zn433 O443 1.910 . S
O434 Zn431 1.933 . S
O434 C445 1.226 1_455 S
O435 Zn433 1.932 . S
O435 C445 1.307 1_545 S
O436 Zn429 1.883 1_565 S
O436 C447 1.253 . S
O437 Zn431 1.941 . S
O437 C447 1.283 1_455 S
O438 Zn431 1.965 . S
O438 C446 1.303 . S
O439 Zn432 1.938 . S
O439 C446 1.247 1_545 S
O440 Zn432 1.906 . S
O440 C448 1.304 . S
O441 Zn429 1.942 . S
O441 C449 1.311 . S
O442 Zn433 1.977 . S
O442 C448 1.272 1_655 S
O443 Zn433 1.910 . S
O443 C449 1.231 . S
C444 O428 1.225 . S
C444 O450 1.298 . S
C445 O434 1.226 1_655 S
C445 O435 1.307 1_565 S
C446 O438 1.303 . S
C446 O439 1.247 1_565 S
C447 O436 1.253 . S
C447 O437 1.283 1_655 S
C448 O440 1.304 . S
C448 O442 1.272 1_455 S
C449 O441 1.311 . S
C449 O443 1.231 . S
O450 Zn432 1.953 . S
O450 C444 1.298 . S
O451 Zn452 1.953 . S
O451 C467 1.225 . S
Zn452 O451 1.953 . S
Zn452 O453 1.949 . S
Zn452 O459 1.919 . S
Zn452 O464 1.924 . S
O453 Zn452 1.949 . S
O453 Zn454 1.923 . S
O453 Zn455 1.950 . S
O453 Zn456 1.945 . S
Zn454 O453 1.923 . S
Zn454 O457 1.933 . S
Zn454 O460 1.941 . S
Zn454 O461 1.965 . S
Zn455 O453 1.950 . S
Zn455 O462 1.938 . S
Zn455 O463 1.906 . S
Zn455 O473 1.953 . S
Zn456 O453 1.945 . S
Zn456 O458 1.932 . S
Zn456 O465 1.977 . S
Zn456 O466 1.910 . S
O457 Zn454 1.933 . S
O457 C468 1.226 . S
O458 Zn456 1.932 . S
O458 C468 1.307 . S
O459 Zn452 1.919 . S
O459 C470 1.253 . S
O460 Zn454 1.941 . S
O460 C470 1.283 . S
O461 Zn454 1.965 . S
O461 C469 1.303 . S
O462 Zn455 1.938 . S
O462 C469 1.247 . S
O463 Zn455 1.906 . S
O463 C471 1.304 . S
O464 Zn452 1.924 . S
O464 C472 1.311 . S
O465 Zn456 1.977 . S
O465 C471 1.272 . S
O466 Zn456 1.910 . S
O466 C472 1.231 . S
C467 O451 1.225 . S
C467 O473 1.298 . S
C468 O457 1.226 . S
C468 O458 1.307 . S
C469 O461 1.303 . S
C469 O462 1.247 . S
C470 O459 1.253 . S
C470 O460 1.283 . S
C471 O463 1.304 . S
C471 O465 1.272 . S
C472 O464 1.311 . S
C472 O466 1.231 . S
O473 Zn455 1.953 . S
O473 C467 1.298 . S
O474 Zn475 1.953 . S
O474 C490 1.225 . S
Zn475 O474 1.953 . S
Zn475 O476 1.949 . S
Zn475 O482 1.919 1_545 S
Zn475 O487 1.924 . S
O476 Zn475 1.949 . S
O476 Zn477 1.933 1_545 S
O476 Zn478 1.950 . S
O476 Zn479 1.945 1_554 S
Zn477 O476 1.933 1_565 S
Zn477 O480 1.912 1_554 S
Zn477 O483 1.939 1_554 S
Zn477 O484 1.980 . S
Zn478 O476 1.950 . S
Zn478 O485 1.938 1_545 S
Zn478 O486 1.906 . S
Zn478 O496 1.953 . S
Zn479 O476 1.945 1_556 S
Zn479 O481 1.932 . S
Zn479 O488 1.977 1_556 S
Zn479 O489 1.910 . S
O480 Zn477 1.912 1_556 S
O480 C491 1.226 . S
O481 Zn479 1.932 . S
O481 C491 1.307 1_545 S
O482 Zn475 1.919 1_565 S
O482 C493 1.253 1_554 S
O483 Zn477 1.939 1_556 S
O483 C493 1.283 . S
O484 Zn477 1.980 . S
O484 C492 1.303 . S
O485 Zn478 1.938 1_565 S
O485 C492 1.247 . S
O486 Zn478 1.906 . S
O486 C494 1.304 . S
O487 Zn475 1.924 . S
O487 C495 1.311 . S
O488 Zn479 1.977 1_554 S
O488 C494 1.272 . S
O489 Zn479 1.910 . S
O489 C495 1.231 1_556 S
C490 O474 1.225 . S
C490 O496 1.298 . S
C491 O480 1.226 . S
C491 O481 1.307 1_565 S
C492 O484 1.303 . S
C492 O485 1.247 . S
C493 O482 1.253 1_556 S
C493 O483 1.283 . S
C494 O486 1.304 . S
C494 O488 1.272 . S
C495 O487 1.311 . S
C495 O489 1.231 1_554 S
O496 Zn478 1.953 . S
O496 C490 1.298 . S
O497 Zn498 1.953 . S
O497 C513 1.225 . S
Zn498 O497 1.953 . S
Zn498 O499 1.949 . S
Zn498 O505 1.919 . S
Zn498 O510 1.924 . S
O499 Zn498 1.949 . S
O499 Zn500 1.923 . S
O499 Zn501 1.950 . S
O499 Zn502 1.945 . S
Zn500 O499 1.923 . S
Zn500 O503 1.933 . S
Zn500 O506 1.941 . S
Zn500 O507 1.965 . S
Zn501 O499 1.950 . S
Zn501 O508 1.938 . S
Zn501 O509 1.906 . S
Zn501 O519 1.953 . S
Zn502 O499 1.945 . S
Zn502 O504 1.932 . S
Zn502 O511 1.977 . S
Zn502 O512 1.910 . S
O503 Zn500 1.933 . S
O503 C514 1.226 . S
O504 Zn502 1.932 . S
O504 C514 1.307 . S
O505 Zn498 1.919 . S
O505 C516 1.253 . S
O506 Zn500 1.941 . S
O506 C516 1.283 . S
O507 Zn500 1.965 . S
O507 C515 1.303 . S
O508 Zn501 1.938 . S
O508 C515 1.247 . S
O509 Zn501 1.906 . S
O509 C517 1.304 . S
O510 Zn498 1.924 . S
O510 C518 1.311 . S
O511 Zn502 1.977 . S
O511 C517 1.272 . S
O512 Zn502 1.910 . S
O512 C518 1.231 . S
C513 O497 1.225 . S
C513 O519 1.298 . S
C514 O503 1.226 . S
C514 O504 1.307 . S
C515 O507 1.303 . S
C515 O508 1.247 . S
C516 O505 1.253 . S
C516 O506 1.283 . S
C517 O509 1.304 . S
C517 O511 1.272 . S
C518 O510 1.311 . S
C518 O512 1.231 . S
O519 Zn501 1.953 . S
O519 C513 1.298 . S
O520 Zn521 1.953 . S
O520 C536 1.225 . S
Zn521 O520 1.953 . S
Zn521 O522 1.949 1_556 S
Zn521 O528 1.919 . S
Zn521 O533 1.924 . S
O522 Zn521 1.949 1_554 S
O522 Zn523 1.923 . S
O522 Zn524 1.950 . S
O522 Zn525 1.945 . S
Zn523 O522 1.923 . S
Zn523 O526 1.933 . S
Zn523 O529 1.941 . S
Zn523 O530 1.965 . S
Zn524 O522 1.950 . S
Zn524 O531 1.938 . S
Zn524 O532 1.906 . S
Zn524 O542 1.953 1_554 S
Zn525 O522 1.945 . S
Zn525 O527 1.932 . S
Zn525 O534 1.977 . S
Zn525 O535 1.910 . S
O526 Zn523 1.933 . S
O526 C537 1.226 . S
O527 Zn525 1.932 . S
O527 C537 1.307 . S
O528 Zn521 1.919 . S
O528 C539 1.253 1_556 S
O529 Zn523 1.941 . S
O529 C539 1.283 . S
O530 Zn523 1.965 . S
O530 C538 1.303 . S
O531 Zn524 1.938 . S
O531 C538 1.247 . S
O532 Zn524 1.906 . S
O532 C540 1.304 . S
O533 Zn521 1.924 . S
O533 C541 1.311 . S
O534 Zn525 1.977 . S
O534 C540 1.272 . S
O535 Zn525 1.910 . S
O535 C541 1.231 1_554 S
C536 O520 1.225 . S
C536 O542 1.298 . S
C537 O526 1.226 . S
C537 O527 1.307 . S
C538 O530 1.303 . S
C538 O531 1.247 . S
C539 O528 1.253 1_554 S
C539 O529 1.283 . S
C540 O532 1.304 . S
C540 O534 1.272 . S
C541 O533 1.311 . S
C541 O535 1.231 1_556 S
O542 Zn524 1.953 1_556 S
O542 C536 1.298 . S
O543 Zn544 1.953 . S
O543 C559 1.225 . S
Zn544 O543 1.953 . S
Zn544 O545 1.949 . S
Zn544 O551 1.919 . S
Zn544 O556 1.924 . S
O545 Zn544 1.949 . S
O545 Zn546 1.923 . S
O545 Zn547 1.950 . S
O545 Zn548 1.945 . S
Zn546 O545 1.923 . S
Zn546 O549 1.933 . S
Zn546 O552 1.941 . S
Zn546 O553 1.965 . S
Zn547 O545 1.950 . S
Zn547 O554 1.938 . S
Zn547 O555 1.906 . S
Zn547 O565 1.953 . S
Zn548 O545 1.945 . S
Zn548 O550 1.932 . S
Zn548 O557 1.977 . S
Zn548 O558 1.910 . S
O549 Zn546 1.933 . S
O549 C560 1.226 . S
O550 Zn548 1.932 . S
O550 C560 1.307 . S
O551 Zn544 1.919 . S
O551 C562 1.253 . S
O552 Zn546 1.941 . S
O552 C562 1.283 . S
O553 Zn546 1.965 . S
O553 C561 1.303 . S
O554 Zn547 1.938 . S
O554 C561 1.247 . S
O555 Zn547 1.906 . S
O555 C563 1.304 . S
O556 Zn544 1.924 . S
O556 C564 1.311 . S
O557 Zn548 1.977 . S
O557 C563 1.272 . S
O558 Zn548 1.910 . S
O558 C564 1.231 . S
C559 O543 1.225 . S
C559 O565 1.298 . S
C560 O549 1.226 . S
C560 O550 1.307 . S
C561 O553 1.303 . S
C561 O554 1.247 . S
C562 O551 1.253 . S
C562 O552 1.283 . S
C563 O555 1.304 . S
C563 O557 1.272 . S
C564 O556 1.311 . S
C564 O558 1.231 . S
O565 Zn547 1.953 . S
O565 C559 1.298 . S
O566 Zn567 1.953 . S
O566 C582 1.225 . S
Zn567 O566 1.953 . S
Zn567 O568 1.965 . S
Zn567 O574 1.919 . S
Zn567 O579 1.924 . S
O568 Zn567 1.965 . S
O568 Zn569 1.924 . S
O568 Zn570 1.941 1_455 S
O568 Zn571 1.937 1_455 S
Zn569 O568 1.924 . S
Zn569 O572 1.933 1_455 S
Zn569 O575 1.941 . S
Zn569 O576 1.965 1_455 S
Zn570 O568 1.941 1_655 S
Zn570 O577 1.938 . S
Zn570 O578 1.906 . S
Zn570 O588 1.941 1_655 S
Zn571 O568 1.937 1_655 S
Zn571 O573 1.932 . S
Zn571 O580 1.977 . S
Zn571 O581 1.910 1_655 S
O572 Zn569 1.933 1_655 S
O572 C583 1.226 . S
O573 Zn571 1.932 . S
O573 C583 1.307 . S
O574 Zn567 1.919 . S
O574 C585 1.253 . S
O575 Zn569 1.941 . S
O575 C585 1.283 . S
O576 Zn569 1.965 1_655 S
O576 C584 1.303 . S
O577 Zn570 1.938 . S
O577 C584 1.247 . S
O578 Zn570 1.906 . S
O578 C586 1.304 . S
O579 Zn567 1.924 . S
O579 C587 1.311 . S
O580 Zn571 1.977 . S
O580 C586 1.272 . S
O581 Zn571 1.910 1_455 S
O581 C587 1.231 . S
C582 O566 1.225 . S
C582 O588 1.321 . S
C583 O572 1.226 . S
C583 O573 1.307 . S
C584 O576 1.303 . S
C584 O577 1.247 . S
C585 O574 1.253 . S
C585 O575 1.283 . S
C586 O578 1.304 . S
C586 O580 1.272 . S
C587 O579 1.311 . S
C587 O581 1.231 . S
O588 Zn570 1.941 1_455 S
O588 C582 1.321 . S
O589 Zn590 1.953 . S
O589 C605 1.225 . S
Zn590 O589 1.953 . S
Zn590 O591 1.949 . S
Zn590 O597 1.919 . S
Zn590 O602 1.924 . S
O591 Zn590 1.949 . S
O591 Zn592 1.923 . S
O591 Zn593 1.950 . S
O591 Zn594 1.945 . S
Zn592 O591 1.923 . S
Zn592 O595 1.933 . S
Zn592 O598 1.941 . S
Zn592 O599 1.965 . S
Zn593 O591 1.950 . S
Zn593 O600 1.938 . S
Zn593 O601 1.906 . S
Zn593 O611 1.953 . S
Zn594 O591 1.945 . S
Zn594 O596 1.932 . S
Zn594 O603 1.977 . S
Zn594 O604 1.910 . S
O595 Zn592 1.933 . S
O595 C606 1.226 . S
O596 Zn594 1.932 . S
O596 C606 1.307 . S
O597 Zn590 1.919 . S
O597 C608 1.253 . S
O598 Zn592 1.941 . S
O598 C608 1.283 . S
O599 Zn592 1.965 . S
O599 C607 1.303 . S
O600 Zn593 1.938 . S
O600 C607 1.247 . S
O601 Zn593 1.906 . S
O601 C609 1.304 . S
O602 Zn590 1.924 . S
O602 C610 1.311 . S
O603 Zn594 1.977 . S
O603 C609 1.272 . S
O604 Zn594 1.910 . S
O604 C610 1.231 . S
C605 O589 1.225 . S
C605 O611 1.298 . S
C606 O595 1.226 . S
C606 O596 1.307 . S
C607 O599 1.303 . S
C607 O600 1.247 . S
C608 O597 1.253 . S
C608 O598 1.283 . S
C609 O601 1.304 . S
C609 O603 1.272 . S
C610 O602 1.311 . S
C610 O604 1.231 . S
O611 Zn593 1.953 . S
O611 C605 1.298 . S
O612 Zn613 1.953 . S
O612 C628 1.225 . S
Zn613 O612 1.953 . S
Zn613 O614 1.949 . S
Zn613 O620 1.919 . S
Zn613 O625 1.924 . S
O614 Zn613 1.949 . S
O614 Zn615 1.923 . S
O614 Zn616 1.950 . S
O614 Zn617 1.945 . S
Zn615 O614 1.923 . S
Zn615 O618 1.933 . S
Zn615 O621 1.941 . S
Zn615 O622 1.965 . S
Zn616 O614 1.950 . S
Zn616 O623 1.938 . S
Zn616 O624 1.906 . S
Zn616 O634 1.953 . S
Zn617 O614 1.945 . S
Zn617 O619 1.932 . S
Zn617 O626 1.977 . S
Zn617 O627 1.910 . S
O618 Zn615 1.933 . S
O618 C629 1.226 . S
O619 Zn617 1.932 . S
O619 C629 1.307 . S
O620 Zn613 1.919 . S
O620 C631 1.253 . S
O621 Zn615 1.941 . S
O621 C631 1.283 . S
O622 Zn615 1.965 . S
O622 C630 1.303 . S
O623 Zn616 1.938 . S
O623 C630 1.247 . S
O624 Zn616 1.906 . S
O624 C632 1.304 . S
O625 Zn613 1.924 . S
O625 C633 1.311 . S
O626 Zn617 1.977 . S
O626 C632 1.272 . S
O627 Zn617 1.910 . S
O627 C633 1.231 . S
C628 O612 1.225 . S
C628 O634 1.298 . S
C629 O618 1.226 . S
C629 O619 1.307 . S
C630 O622 1.303 . S
C630 O623 1.247 . S
C631 O620 1.253 . S
C631 O621 1.283 . S
C632 O624 1.304 . S
C632 O626 1.272 . S
C633 O625 1.311 . S
C633 O627 1.231 . S
O634 Zn616 1.953 . S
O634 C628 1.298 . S
O635 Zn636 1.953 . S
O635 C651 1.225 . S
Zn636 O635 1.953 . S
Zn636 O637 1.949 . S
Zn636 O643 1.919 . S
Zn636 O648 1.924 . S
O637 Zn636 1.949 . S
O637 Zn638 1.923 . S
O637 Zn639 1.950 . S
O637 Zn640 1.945 . S
Zn638 O637 1.923 . S
Zn638 O641 1.933 . S
Zn638 O644 1.941 . S
Zn638 O645 1.965 . S
Zn639 O637 1.950 . S
Zn639 O646 1.938 . S
Zn639 O647 1.906 . S
Zn639 O657 1.953 . S
Zn640 O637 1.945 . S
Zn640 O642 1.932 . S
Zn640 O649 1.977 . S
Zn640 O650 1.910 . S
O641 Zn638 1.933 . S
O641 C652 1.226 . S
O642 Zn640 1.932 . S
O642 C652 1.307 . S
O643 Zn636 1.919 . S
O643 C654 1.253 . S
O644 Zn638 1.941 . S
O644 C654 1.283 . S
O645 Zn638 1.965 . S
O645 C653 1.303 . S
O646 Zn639 1.938 . S
O646 C653 1.247 . S
O647 Zn639 1.906 . S
O647 C655 1.304 . S
O648 Zn636 1.924 . S
O648 C656 1.311 . S
O649 Zn640 1.977 . S
O649 C655 1.272 . S
O650 Zn640 1.910 . S
O650 C656 1.231 . S
C651 O635 1.225 . S
C651 O657 1.298 . S
C652 O641 1.226 . S
C652 O642 1.307 . S
C653 O645 1.303 . S
C653 O646 1.247 . S
C654 O643 1.253 . S
C654 O644 1.283 . S
C655 O647 1.304 . S
C655 O649 1.272 . S
C656 O648 1.311 . S
C656 O650 1.231 . S
O657 Zn639 1.953 . S
O657 C651 1.298 . S
O658 Zn659 1.953 . S
O658 C674 1.225 . S
Zn659 O658 1.953 . S
Zn659 O660 1.949 . S
Zn659 O666 1.919 . S
Zn659 O671 1.924 . S
O660 Zn659 1.949 . S
O660 Zn661 1.923 . S
O660 Zn662 1.950 . S
O660 Zn663 1.945 . S
Zn661 O660 1.923 . S
Zn661 O664 1.933 . S
Zn661 O667 1.941 . S
Zn661 O668 1.965 . S
Zn662 O660 1.950 . S
Zn662 O669 1.938 . S
Zn662 O670 1.906 . S
Zn662 O680 1.953 . S
Zn663 O660 1.945 . S
Zn663 O665 1.932 . S
Zn663 O672 1.977 . S
Zn663 O673 1.910 . S
O664 Zn661 1.933 . S
O664 C675 1.226 . S
O665 Zn663 1.932 . S
O665 C675 1.307 . S
O666 Zn659 1.919 . S
O666 C677 1.253 . S
O667 Zn661 1.941 . S
O667 C677 1.283 . S
O668 Zn661 1.965 . S
O668 C676 1.303 . S
O669 Zn662 1.938 . S
O669 C676 1.247 . S
O670 Zn662 1.906 . S
O670 C678 1.304 . S
O671 Zn659 1.924 . S
O671 C679 1.311 . S
O672 Zn663 1.977 . S
O672 C678 1.272 . S
O673 Zn663 1.910 . S
O673 C679 1.231 . S
C674 O658 1.225 . S
C674 O680 1.298 . S
C675 O664 1.226 . S
C675 O665 1.307 . S
C676 O668 1.303 . S
C676 O669 1.247 . S
C677 O666 1.253 . S
C677 O667 1.283 . S
C678 O670 1.304 . S
C678 O672 1.272 . S
C679 O671 1.311 . S
C679 O673 1.231 . S
O680 Zn662 1.953 . S
O680 C674 1.298 . S
O681 Zn682 1.953 1_455 S
O681 C697 1.225 . S
Zn682 O681 1.953 1_655 S
Zn682 O683 1.949 1_655 S
Zn682 O689 1.914 1_554 S
Zn682 O694 1.924 1_654 S
O683 Zn682 1.949 1_455 S
O683 Zn684 1.923 1_455 S
O683 Zn685 1.950 . S
O683 Zn686 1.945 1_554 S
Zn684 O683 1.923 1_655 S
Zn684 O687 1.933 . S
Zn684 O690 1.941 . S
Zn684 O691 1.965 . S
Zn685 O683 1.950 . S
Zn685 O692 1.938 . S
Zn685 O693 1.906 . S
Zn685 O703 1.953 . S
Zn686 O683 1.945 1_556 S
Zn686 O688 1.932 . S
Zn686 O695 1.977 1_556 S
Zn686 O696 1.910 . S
O687 Zn684 1.933 . S
O687 C698 1.226 1_554 S
O688 Zn686 1.932 . S
O688 C698 1.307 1_455 S
O689 Zn682 1.914 1_556 S
O689 C700 1.245 1_556 S
O690 Zn684 1.941 . S
O690 C700 1.283 . S
O691 Zn684 1.965 . S
O691 C699 1.303 . S
O692 Zn685 1.938 . S
O692 C699 1.247 1_455 S
O693 Zn685 1.906 . S
O693 C701 1.304 . S
O694 Zn682 1.924 1_456 S
O694 C702 1.311 . S
O695 Zn686 1.977 1_554 S
O695 C701 1.272 . S
O696 Zn686 1.910 . S
O696 C702 1.231 . S
C697 O681 1.225 . S
C697 O703 1.298 . S
C698 O687 1.226 1_556 S
C698 O688 1.307 1_655 S
C699 O691 1.303 . S
C699 O692 1.247 1_655 S
C700 O689 1.245 1_554 S
C700 O690 1.283 . S
C701 O693 1.304 . S
C701 O695 1.272 . S
C702 O694 1.311 . S
C702 O696 1.231 . S
O703 Zn685 1.953 . S
O703 C697 1.298 . S
H704 C710 0.930 . S
H705 C714 0.930 . S
H706 C719 0.929 . S
H707 C717 0.929 . S
H708 C712 0.929 . S
H709 C718 0.929 . S
C710 H704 0.930 . S
C710 C711 1.367 . S
C710 C718 1.378 . S
C711 C710 1.367 . S
C711 C719 1.433 1_455 S
C712 H708 0.929 . S
C712 C714 1.378 . S
C712 C716 1.350 . S
C713 C716 1.463 . S
C713 C718 1.350 1_655 S
C713 N721 1.427 . S
C714 H705 0.930 . S
C714 C712 1.378 . S
C714 C715 1.367 . S
C715 C714 1.367 . S
C715 C717 1.433 1_655 S
C716 C712 1.350 . S
C716 C713 1.463 . S
C716 N720 1.427 1_655 S
C717 H707 0.929 . S
C717 C715 1.433 1_455 S
C717 N720 1.384 . S
C718 H709 0.929 . S
C718 C710 1.378 . S
C718 C713 1.350 1_455 S
C719 H706 0.929 . S
C719 C711 1.433 1_655 S
C719 N721 1.384 . S
N720 C716 1.427 1_455 S
N720 C717 1.384 . S
N721 C713 1.427 . S
N721 C719 1.384 . S
H722 C728 0.930 . S
H723 C732 0.930 . S
H724 C737 0.929 . S
H725 C735 0.929 . S
H726 C730 0.929 . S
H727 C736 0.929 . S
C728 H722 0.930 . S
C728 C729 1.367 . S
C728 C736 1.378 . S
C729 C728 1.367 . S
C729 C737 1.433 . S
C730 H726 0.929 . S
C730 C732 1.378 . S
C730 C734 1.350 . S
C731 C734 1.463 . S
C731 C736 1.350 . S
C731 N739 1.427 . S
C732 H723 0.930 . S
C732 C730 1.378 . S
C732 C733 1.367 . S
C733 C732 1.367 . S
C733 C735 1.433 . S
C734 C730 1.350 . S
C734 C731 1.463 . S
C734 N738 1.427 . S
C735 H725 0.929 . S
C735 C733 1.433 . S
C735 N738 1.384 . S
C736 H727 0.929 . S
C736 C728 1.378 . S
C736 C731 1.350 . S
C737 H724 0.929 . S
C737 C729 1.433 . S
C737 N739 1.384 . S
N738 C734 1.427 . S
N738 C735 1.384 . S
N739 C731 1.427 . S
N739 C737 1.384 . S
H740 C746 0.930 . S
H741 C750 0.930 . S
H742 C755 0.929 . S
H743 C753 0.929 . S
H744 C748 0.929 . S
H745 C754 0.929 . S
C746 H740 0.930 . S
C746 C747 1.367 . S
C746 C754 1.378 . S
C747 C746 1.367 . S
C747 C755 1.433 . S
C748 H744 0.929 . S
C748 C750 1.378 . S
C748 C752 1.350 . S
C749 C752 1.463 . S
C749 C754 1.350 . S
C749 N757 1.427 . S
C750 H741 0.930 . S
C750 C748 1.378 . S
C750 C751 1.367 . S
C751 C750 1.367 . S
C751 C753 1.433 . S
C752 C748 1.350 . S
C752 C749 1.463 . S
C752 N756 1.427 . S
C753 H743 0.929 . S
C753 C751 1.433 . S
C753 N756 1.384 . S
C754 H745 0.929 . S
C754 C746 1.378 . S
C754 C749 1.350 . S
C755 H742 0.929 . S
C755 C747 1.433 . S
C755 N757 1.384 . S
N756 C752 1.427 . S
N756 C753 1.384 . S
N757 C749 1.427 . S
N757 C755 1.384 . S
H758 C764 0.930 . S
H759 C768 0.930 . S
H760 C773 0.929 . S
H761 C771 0.929 . S
H762 C766 0.929 . S
H763 C772 0.929 . S
C764 H758 0.930 . S
C764 C765 1.367 . S
C764 C772 1.378 . S
C765 C764 1.367 . S
C765 C773 1.433 . S
C766 H762 0.929 . S
C766 C768 1.378 . S
C766 C770 1.350 . S
C767 C770 1.463 . S
C767 C772 1.350 . S
C767 N775 1.427 . S
C768 H759 0.930 . S
C768 C766 1.378 . S
C768 C769 1.367 . S
C769 C768 1.367 . S
C769 C771 1.433 . S
C770 C766 1.350 . S
C770 C767 1.463 . S
C770 N774 1.427 . S
C771 H761 0.929 . S
C771 C769 1.433 . S
C771 N774 1.384 . S
C772 H763 0.929 . S
C772 C764 1.378 . S
C772 C767 1.350 . S
C773 H760 0.929 . S
C773 C765 1.433 . S
C773 N775 1.384 . S
N774 C770 1.427 . S
N774 C771 1.384 . S
N775 C767 1.427 . S
N775 C773 1.384 . S
H776 C782 0.930 . S
H777 C786 0.930 . S
H778 C791 0.929 . S
H779 C789 0.929 . S
H780 C784 0.929 . S
H781 C790 0.929 . S
C782 H776 0.930 . S
C782 C783 1.367 1_655 S
C782 C790 1.378 . S
C783 C782 1.367 1_455 S
C783 C791 1.433 . S
C784 H780 0.929 . S
C784 C786 1.378 . S
C784 C788 1.350 1_455 S
C785 C788 1.463 . S
C785 C790 1.350 . S
C785 N793 1.427 1_655 S
C786 H777 0.930 . S
C786 C784 1.378 . S
C786 C787 1.367 1_455 S
C787 C786 1.367 1_655 S
C787 C789 1.433 . S
C788 C784 1.350 1_655 S
C788 C785 1.463 . S
C788 N792 1.427 . S
C789 H779 0.929 . S
C789 C787 1.433 . S
C789 N792 1.384 . S
C790 H781 0.929 . S
C790 C782 1.378 . S
C790 C785 1.350 . S
C791 H778 0.929 . S
C791 C783 1.433 . S
C791 N793 1.384 . S
N792 C788 1.427 . S
N792 C789 1.384 . S
N793 C785 1.427 1_455 S
N793 C791 1.384 . S
H794 C800 0.930 . S
H795 C804 0.930 . S
H796 C809 0.929 . S
H797 C807 0.929 . S
H798 C802 0.929 . S
H799 C808 0.929 . S
C800 H794 0.930 . S
C800 C801 1.367 . S
C800 C808 1.378 . S
C801 C800 1.367 . S
C801 C809 1.433 . S
C802 H798 0.929 . S
C802 C804 1.378 . S
C802 C806 1.350 . S
C803 C806 1.463 . S
C803 C808 1.350 . S
C803 N811 1.427 . S
C804 H795 0.930 . S
C804 C802 1.378 . S
C804 C805 1.367 . S
C805 C804 1.367 . S
C805 C807 1.433 . S
C806 C802 1.350 . S
C806 C803 1.463 . S
C806 N810 1.427 . S
C807 H797 0.929 . S
C807 C805 1.433 . S
C807 N810 1.384 . S
C808 H799 0.929 . S
C808 C800 1.378 . S
C808 C803 1.350 . S
C809 H796 0.929 . S
C809 C801 1.433 . S
C809 N811 1.384 . S
N810 C806 1.427 . S
N810 C807 1.384 . S
N811 C803 1.427 . S
N811 C809 1.384 . S
H812 C818 0.930 . S
H813 C822 0.930 1_554 S
H814 C827 0.929 . S
H815 C825 0.929 . S
H816 C820 0.929 . S
H817 C826 0.929 . S
C818 H812 0.930 . S
C818 C819 1.367 . S
C818 C826 1.378 . S
C819 C818 1.367 . S
C819 C827 1.433 . S
C820 H816 0.929 . S
C820 C822 1.378 . S
C820 C824 1.350 . S
C821 C824 1.463 . S
C821 C826 1.350 . S
C821 N829 1.427 . S
C822 H813 0.930 1_556 S
C822 C820 1.378 . S
C822 C823 1.367 . S
C823 C822 1.367 . S
C823 C825 1.433 . S
C824 C820 1.350 . S
C824 C821 1.463 . S
C824 N828 1.427 . S
C825 H815 0.929 . S
C825 C823 1.433 . S
C825 N828 1.384 . S
C826 H817 0.929 . S
C826 C818 1.378 . S
C826 C821 1.350 . S
C827 H814 0.929 . S
C827 C819 1.433 . S
C827 N829 1.384 . S
N828 C824 1.427 . S
N828 C825 1.384 . S
N829 C821 1.427 . S
N829 C827 1.384 . S
H830 C836 0.930 . S
H831 C840 0.930 . S
H832 C845 0.929 . S
H833 C843 0.929 . S
H834 C838 0.929 . S
H835 C844 0.929 . S
C836 H830 0.930 . S
C836 C837 1.367 . S
C836 C844 1.378 . S
C837 C836 1.367 . S
C837 C845 1.433 . S
C838 H834 0.929 . S
C838 C840 1.378 . S
C838 C842 1.350 . S
C839 C842 1.463 . S
C839 C844 1.350 . S
C839 N847 1.427 . S
C840 H831 0.930 . S
C840 C838 1.378 . S
C840 C841 1.367 . S
C841 C840 1.367 . S
C841 C843 1.433 . S
C842 C838 1.350 . S
C842 C839 1.463 . S
C842 N846 1.427 . S
C843 H833 0.929 . S
C843 C841 1.433 . S
C843 N846 1.384 . S
C844 H835 0.929 . S
C844 C836 1.378 . S
C844 C839 1.350 . S
C845 H832 0.929 . S
C845 C837 1.433 . S
C845 N847 1.384 . S
N846 C842 1.427 . S
N846 C843 1.384 . S
N847 C839 1.427 . S
N847 C845 1.384 . S
H848 C854 0.930 . S
H849 C858 0.930 . S
H850 C863 0.929 . S
H851 C861 0.929 . S
H852 C856 0.929 . S
H853 C862 0.929 . S
C854 H848 0.930 . S
C854 C855 1.367 1_565 S
C854 C862 1.378 . S
C855 C854 1.367 1_545 S
C855 C863 1.433 . S
C856 H852 0.929 . S
C856 C858 1.378 . S
C856 C860 1.350 . S
C857 C860 1.463 . S
C857 C862 1.350 1_545 S
C857 N865 1.427 . S
C858 H849 0.930 . S
C858 C856 1.378 . S
C858 C859 1.367 . S
C859 C858 1.367 . S
C859 C861 1.433 1_545 S
C860 C856 1.350 . S
C860 C857 1.463 . S
C860 N864 1.427 1_545 S
C861 H851 0.929 . S
C861 C859 1.433 1_565 S
C861 N864 1.384 . S
C862 H853 0.929 . S
C862 C854 1.378 . S
C862 C857 1.350 1_565 S
C863 H850 0.929 . S
C863 C855 1.433 . S
C863 N865 1.384 . S
N864 C860 1.427 1_565 S
N864 C861 1.384 . S
N865 C857 1.427 . S
N865 C863 1.384 . S
H866 C872 0.930 . S
H867 C876 0.930 . S
H868 C881 0.929 . S
H869 C879 0.929 . S
H870 C874 0.929 . S
H871 C880 0.929 . S
C872 H866 0.930 . S
C872 C873 1.367 . S
C872 C880 1.378 . S
C873 C872 1.367 . S
C873 C881 1.433 . S
C874 H870 0.929 . S
C874 C876 1.378 . S
C874 C878 1.350 . S
C875 C878 1.463 . S
C875 C880 1.350 . S
C875 N883 1.427 . S
C876 H867 0.930 . S
C876 C874 1.378 . S
C876 C877 1.367 . S
C877 C876 1.367 . S
C877 C879 1.433 . S
C878 C874 1.350 . S
C878 C875 1.463 . S
C878 N882 1.427 . S
C879 H869 0.929 . S
C879 C877 1.433 . S
C879 N882 1.384 . S
C880 H871 0.929 . S
C880 C872 1.378 . S
C880 C875 1.350 . S
C881 H868 0.929 . S
C881 C873 1.433 . S
C881 N883 1.384 . S
N882 C878 1.427 . S
N882 C879 1.384 . S
N883 C875 1.427 . S
N883 C881 1.384 . S
H884 C890 0.930 . S
H885 C894 0.930 . S
H886 C899 0.929 . S
H887 C897 0.929 . S
H888 C892 0.929 . S
H889 C898 0.929 . S
C890 H884 0.930 . S
C890 C891 1.340 1_565 S
C890 C898 1.378 . S
C891 C890 1.340 1_545 S
C891 C899 1.465 . S
C892 H888 0.929 . S
C892 C894 1.378 . S
C892 C896 1.350 . S
C893 C896 1.463 . S
C893 C898 1.350 1_545 S
C893 N901 1.427 . S
C894 H885 0.930 . S
C894 C892 1.378 . S
C894 C895 1.367 . S
C895 C894 1.367 . S
C895 C897 1.433 1_545 S
C896 C892 1.350 . S
C896 C893 1.463 . S
C896 N900 1.427 1_545 S
C897 H887 0.929 . S
C897 C895 1.433 1_565 S
C897 N900 1.384 . S
C898 H889 0.929 . S
C898 C890 1.378 . S
C898 C893 1.350 1_565 S
C899 H886 0.929 . S
C899 C891 1.465 . S
C899 N901 1.384 . S
N900 C896 1.427 1_565 S
N900 C897 1.384 . S
N901 C893 1.427 . S
N901 C899 1.384 . S
H902 C908 0.930 . S
H903 C912 0.930 . S
H904 C917 0.929 . S
H905 C915 0.929 . S
H906 C910 0.929 . S
H907 C916 0.929 . S
C908 H902 0.930 . S
C908 C909 1.367 . S
C908 C916 1.378 . S
C909 C908 1.367 . S
C909 C917 1.433 . S
C910 H906 0.929 . S
C910 C912 1.378 . S
C910 C914 1.350 . S
C911 C914 1.463 . S
C911 C916 1.350 . S
C911 N919 1.427 . S
C912 H903 0.930 . S
C912 C910 1.378 . S
C912 C913 1.367 . S
C913 C912 1.367 . S
C913 C915 1.433 . S
C914 C910 1.350 . S
C914 C911 1.463 . S
C914 N918 1.427 . S
C915 H905 0.929 . S
C915 C913 1.433 . S
C915 N918 1.384 . S
C916 H907 0.929 . S
C916 C908 1.378 . S
C916 C911 1.350 . S
C917 H904 0.929 . S
C917 C909 1.433 . S
C917 N919 1.384 . S
N918 C914 1.427 . S
N918 C915 1.384 . S
N919 C911 1.427 . S
N919 C917 1.384 . S
H920 C926 0.930 1_565 S
H921 C930 0.930 . S
H922 C935 0.929 . S
H923 C933 0.929 1_565 S
H924 C928 0.929 . S
H925 C934 0.929 1_565 S
C926 H920 0.930 1_545 S
C926 C927 1.367 . S
C926 C934 1.378 . S
C927 C926 1.367 . S
C927 C935 1.433 . S
C928 H924 0.929 . S
C928 C930 1.378 . S
C928 C932 1.350 . S
C929 C932 1.463 . S
C929 C934 1.350 . S
C929 N937 1.427 . S
C930 H921 0.930 . S
C930 C928 1.378 . S
C930 C931 1.367 . S
C931 C930 1.367 . S
C931 C933 1.433 . S
C932 C928 1.350 . S
C932 C929 1.463 . S
C932 N936 1.427 . S
C933 H923 0.929 1_545 S
C933 C931 1.433 . S
C933 N936 1.384 . S
C934 H925 0.929 1_545 S
C934 C926 1.378 . S
C934 C929 1.350 . S
C935 H922 0.929 . S
C935 C927 1.433 . S
C935 N937 1.384 . S
N936 C932 1.427 . S
N936 C933 1.384 . S
N937 C929 1.427 . S
N937 C935 1.384 . S
H938 C944 0.930 . S
H939 C948 0.930 . S
H940 C953 0.929 . S
H941 C951 0.929 . S
H942 C946 0.929 . S
H943 C952 0.929 . S
C944 H938 0.930 . S
C944 C945 1.367 . S
C944 C952 1.378 . S
C945 C944 1.367 . S
C945 C953 1.433 . S
C946 H942 0.929 . S
C946 C948 1.378 . S
C946 C950 1.350 . S
C947 C950 1.463 . S
C947 C952 1.350 . S
C947 N955 1.427 . S
C948 H939 0.930 . S
C948 C946 1.378 . S
C948 C949 1.367 . S
C949 C948 1.367 . S
C949 C951 1.433 . S
C950 C946 1.350 . S
C950 C947 1.463 . S
C950 N954 1.427 . S
C951 H941 0.929 . S
C951 C949 1.433 . S
C951 N954 1.384 . S
C952 H943 0.929 . S
C952 C944 1.378 . S
C952 C947 1.350 . S
C953 H940 0.929 . S
C953 C945 1.433 . S
C953 N955 1.384 . S
N954 C950 1.427 . S
N954 C951 1.384 . S
N955 C947 1.427 . S
N955 C953 1.384 . S
H956 C962 0.930 . S
H957 C966 0.930 . S
H958 C971 0.929 . S
H959 C969 0.929 . S
H960 C964 0.929 . S
H961 C970 0.929 . S
C962 H956 0.930 . S
C962 C963 1.367 1_545 S
C962 C970 1.378 . S
C963 C962 1.367 1_565 S
C963 C971 1.433 . S
C964 H960 0.929 . S
C964 C966 1.378 . S
C964 C968 1.350 . S
C965 C968 1.463 . S
C965 C970 1.350 1_565 S
C965 N973 1.427 . S
C966 H957 0.930 . S
C966 C964 1.378 . S
C966 C967 1.367 . S
C967 C966 1.367 . S
C967 C969 1.433 1_565 S
C968 C964 1.350 . S
C968 C965 1.463 . S
C968 N972 1.427 1_565 S
C969 H959 0.929 . S
C969 C967 1.433 1_545 S
C969 N972 1.384 . S
C970 H961 0.929 . S
C970 C962 1.378 . S
C970 C965 1.350 1_545 S
C971 H958 0.929 . S
C971 C963 1.433 . S
C971 N973 1.384 . S
N972 C968 1.427 1_545 S
N972 C969 1.384 . S
N973 C965 1.427 . S
N973 C971 1.384 . S
H974 C980 0.930 . S
H975 C984 0.930 . S
H976 C989 0.929 . S
H977 C987 0.929 . S
H978 C982 0.929 . S
H979 C988 0.929 . S
C980 H974 0.930 . S
C980 C981 1.367 . S
C980 C988 1.378 . S
C981 C980 1.367 . S
C981 C989 1.433 . S
C982 H978 0.929 . S
C982 C984 1.378 . S
C982 C986 1.350 . S
C983 C986 1.463 . S
C983 C988 1.350 . S
C983 N991 1.427 . S
C984 H975 0.930 . S
C984 C982 1.378 . S
C984 C985 1.367 . S
C985 C984 1.367 . S
C985 C987 1.433 . S
C986 C982 1.350 . S
C986 C983 1.463 . S
C986 N990 1.427 . S
C987 H977 0.929 . S
C987 C985 1.433 . S
C987 N990 1.384 . S
C988 H979 0.929 . S
C988 C980 1.378 . S
C988 C983 1.350 . S
C989 H976 0.929 . S
C989 C981 1.433 . S
C989 N991 1.384 . S
N990 C986 1.427 . S
N990 C987 1.384 . S
N991 C983 1.427 . S
N991 C989 1.384 . S
H992 C998 0.930 . S
H993 C1002 0.930 1_565 S
H994 C1007 0.929 . S
H995 C1005 0.929 . S
H996 C1000 0.929 . S
H997 C1006 0.929 . S
C998 H992 0.930 . S
C998 C999 1.367 . S
C998 C1006 1.378 . S
C999 C998 1.367 . S
C999 C1007 1.433 . S
C1000 H996 0.929 . S
C1000 C1002 1.378 . S
C1000 C1004 1.350 1_556 S
C1001 C1004 1.463 . S
C1001 C1006 1.350 . S
C1001 N1009 1.427 . S
C1002 H993 0.930 1_545 S
C1002 C1000 1.378 . S
C1002 C1003 1.367 . S
C1003 C1002 1.367 . S
C1003 C1005 1.433 1_556 S
C1004 C1000 1.350 1_554 S
C1004 C1001 1.463 . S
C1004 N1008 1.427 . S
C1005 H995 0.929 . S
C1005 C1003 1.433 1_554 S
C1005 N1008 1.384 . S
C1006 H997 0.929 . S
C1006 C998 1.378 . S
C1006 C1001 1.350 . S
C1007 H994 0.929 . S
C1007 C999 1.433 . S
C1007 N1009 1.384 . S
N1008 C1004 1.427 . S
N1008 C1005 1.384 . S
N1009 C1001 1.427 . S
N1009 C1007 1.384 . S
H1010 C1016 0.930 . S
H1011 C1020 0.930 . S
H1012 C1025 0.929 . S
H1013 C1023 0.929 . S
H1014 C1018 0.929 . S
H1015 C1024 0.929 . S
C1016 H1010 0.930 . S
C1016 C1017 1.367 . S
C1016 C1024 1.378 . S
C1017 C1016 1.367 . S
C1017 C1025 1.433 1_554 S
C1018 H1014 0.929 . S
C1018 C1020 1.378 . S
C1018 C1022 1.350 1_556 S
C1019 C1022 1.463 . S
C1019 C1024 1.350 . S
C1019 N1027 1.427 1_554 S
C1020 H1011 0.930 . S
C1020 C1018 1.378 . S
C1020 C1021 1.367 1_556 S
C1021 C1020 1.367 1_554 S
C1021 C1023 1.433 . S
C1022 C1018 1.350 1_554 S
C1022 C1019 1.463 . S
C1022 N1026 1.427 . S
C1023 H1013 0.929 . S
C1023 C1021 1.433 . S
C1023 N1026 1.384 . S
C1024 H1015 0.929 . S
C1024 C1016 1.378 . S
C1024 C1019 1.350 . S
C1025 H1012 0.929 . S
C1025 C1017 1.433 1_556 S
C1025 N1027 1.384 . S
N1026 C1022 1.427 . S
N1026 C1023 1.384 . S
N1027 C1019 1.427 1_556 S
N1027 C1025 1.384 . S
H1028 C1034 0.930 . S
H1029 C1038 0.930 . S
H1030 C1043 0.929 . S
H1031 C1041 0.929 . S
H1032 C1036 0.929 . S
H1033 C1042 0.929 . S
C1034 H1028 0.930 . S
C1034 C1035 1.367 . S
C1034 C1042 1.378 . S
C1035 C1034 1.367 . S
C1035 C1043 1.433 . S
C1036 H1032 0.929 . S
C1036 C1038 1.378 . S
C1036 C1040 1.350 . S
C1037 C1040 1.463 . S
C1037 C1042 1.350 . S
C1037 N1045 1.427 . S
C1038 H1029 0.930 . S
C1038 C1036 1.378 . S
C1038 C1039 1.367 . S
C1039 C1038 1.367 . S
C1039 C1041 1.433 . S
C1040 C1036 1.350 . S
C1040 C1037 1.463 . S
C1040 N1044 1.427 . S
C1041 H1031 0.929 . S
C1041 C1039 1.433 . S
C1041 N1044 1.384 . S
C1042 H1033 0.929 . S
C1042 C1034 1.378 . S
C1042 C1037 1.350 . S
C1043 H1030 0.929 . S
C1043 C1035 1.433 . S
C1043 N1045 1.384 . S
N1044 C1040 1.427 . S
N1044 C1041 1.384 . S
N1045 C1037 1.427 . S
N1045 C1043 1.384 . S
H1046 C1052 0.930 . S
H1047 C1056 0.930 . S
H1048 C1061 0.929 . S
H1049 C1059 0.929 . S
H1050 C1054 0.929 . S
H1051 C1060 0.929 . S
C1052 H1046 0.930 . S
C1052 C1053 1.367 . S
C1052 C1060 1.378 . S
C1053 C1052 1.367 . S
C1053 C1061 1.433 . S
C1054 H1050 0.929 . S
C1054 C1056 1.378 . S
C1054 C1058 1.350 . S
C1055 C1058 1.463 . S
C1055 C1060 1.350 . S
C1055 N1063 1.427 . S
C1056 H1047 0.930 . S
C1056 C1054 1.378 . S
C1056 C1057 1.367 . S
C1057 C1056 1.367 . S
C1057 C1059 1.433 . S
C1058 C1054 1.350 . S
C1058 C1055 1.463 . S
C1058 N1062 1.427 . S
C1059 H1049 0.929 . S
C1059 C1057 1.433 . S
C1059 N1062 1.384 . S
C1060 H1051 0.929 . S
C1060 C1052 1.378 . S
C1060 C1055 1.350 . S
C1061 H1048 0.929 . S
C1061 C1053 1.433 . S
C1061 N1063 1.384 . S
N1062 C1058 1.427 . S
N1062 C1059 1.384 . S
N1063 C1055 1.427 . S
N1063 C1061 1.384 . S
H1064 C1070 0.930 . S
H1065 C1074 0.930 . S
H1066 C1079 0.929 . S
H1067 C1077 0.929 . S
H1068 C1072 0.929 . S
H1069 C1078 0.929 . S
C1070 H1064 0.930 . S
C1070 C1071 1.367 . S
C1070 C1078 1.378 . S
C1071 C1070 1.367 . S
C1071 C1079 1.433 . S
C1072 H1068 0.929 . S
C1072 C1074 1.378 . S
C1072 C1076 1.350 . S
C1073 C1076 1.463 . S
C1073 C1078 1.350 . S
C1073 N1081 1.427 . S
C1074 H1065 0.930 . S
C1074 C1072 1.378 . S
C1074 C1075 1.367 . S
C1075 C1074 1.367 . S
C1075 C1077 1.433 . S
C1076 C1072 1.350 . S
C1076 C1073 1.463 . S
C1076 N1080 1.427 . S
C1077 H1067 0.929 . S
C1077 C1075 1.433 . S
C1077 N1080 1.384 . S
C1078 H1069 0.929 . S
C1078 C1070 1.378 . S
C1078 C1073 1.350 . S
C1079 H1066 0.929 . S
C1079 C1071 1.433 . S
C1079 N1081 1.384 . S
N1080 C1076 1.427 . S
N1080 C1077 1.384 . S
N1081 C1073 1.427 . S
N1081 C1079 1.384 . S
H1082 C1088 0.930 . S
H1083 C1092 0.930 . S
H1084 C1097 0.929 . S
H1085 C1095 0.929 . S
H1086 C1090 0.929 . S
H1087 C1096 0.929 . S
C1088 H1082 0.930 . S
C1088 C1089 1.367 . S
C1088 C1096 1.378 . S
C1089 C1088 1.367 . S
C1089 C1097 1.433 . S
C1090 H1086 0.929 . S
C1090 C1092 1.378 . S
C1090 C1094 1.350 . S
C1091 C1094 1.463 . S
C1091 C1096 1.350 . S
C1091 N1099 1.427 . S
C1092 H1083 0.930 . S
C1092 C1090 1.378 . S
C1092 C1093 1.367 . S
C1093 C1092 1.367 . S
C1093 C1095 1.433 1_565 S
C1094 C1090 1.350 . S
C1094 C1091 1.463 . S
C1094 N1098 1.427 . S
C1095 H1085 0.929 . S
C1095 C1093 1.433 1_545 S
C1095 N1098 1.384 1_545 S
C1096 H1087 0.929 . S
C1096 C1088 1.378 . S
C1096 C1091 1.350 . S
C1097 H1084 0.929 . S
C1097 C1089 1.433 . S
C1097 N1099 1.384 . S
N1098 C1094 1.427 . S
N1098 C1095 1.384 1_565 S
N1099 C1091 1.427 . S
N1099 C1097 1.384 . S
H1100 C1106 0.930 . S
H1101 C1110 0.930 . S
H1102 C1115 0.929 . S
H1103 C1113 0.929 . S
H1104 C1108 0.929 . S
H1105 C1114 0.929 . S
C1106 H1100 0.930 . S
C1106 C1107 1.367 . S
C1106 C1114 1.378 . S
C1107 C1106 1.367 . S
C1107 C1115 1.433 . S
C1108 H1104 0.929 . S
C1108 C1110 1.378 . S
C1108 C1112 1.350 . S
C1109 C1112 1.463 . S
C1109 C1114 1.350 . S
C1109 N1117 1.427 . S
C1110 H1101 0.930 . S
C1110 C1108 1.378 . S
C1110 C1111 1.367 . S
C1111 C1110 1.367 . S
C1111 C1113 1.433 . S
C1112 C1108 1.350 . S
C1112 C1109 1.463 . S
C1112 N1116 1.427 . S
C1113 H1103 0.929 . S
C1113 C1111 1.433 . S
C1113 N1116 1.384 . S
C1114 H1105 0.929 . S
C1114 C1106 1.378 . S
C1114 C1109 1.350 . S
C1115 H1102 0.929 . S
C1115 C1107 1.433 . S
C1115 N1117 1.384 . S
N1116 C1112 1.427 . S
N1116 C1113 1.384 . S
N1117 C1109 1.427 . S
N1117 C1115 1.384 . S
H1118 C1124 0.930 . S
H1119 C1128 0.930 . S
H1120 C1133 0.929 . S
H1121 C1131 0.929 . S
H1122 C1126 0.929 . S
H1123 C1132 0.929 . S
C1124 H1118 0.930 . S
C1124 C1125 1.367 . S
C1124 C1132 1.378 . S
C1125 C1124 1.367 . S
C1125 C1133 1.433 . S
C1126 H1122 0.929 . S
C1126 C1128 1.378 . S
C1126 C1130 1.350 . S
C1127 C1130 1.463 . S
C1127 C1132 1.350 . S
C1127 N1135 1.427 . S
C1128 H1119 0.930 . S
C1128 C1126 1.378 . S
C1128 C1129 1.367 . S
C1129 C1128 1.367 . S
C1129 C1131 1.433 . S
C1130 C1126 1.350 . S
C1130 C1127 1.463 . S
C1130 N1134 1.427 . S
C1131 H1121 0.929 . S
C1131 C1129 1.433 . S
C1131 N1134 1.384 . S
C1132 H1123 0.929 . S
C1132 C1124 1.378 . S
C1132 C1127 1.350 . S
C1133 H1120 0.929 . S
C1133 C1125 1.433 . S
C1133 N1135 1.384 . S
N1134 C1130 1.427 . S
N1134 C1131 1.384 . S
N1135 C1127 1.427 . S
N1135 C1133 1.384 . S
H1136 C1142 0.930 . S
H1137 C1146 0.930 . S
H1138 C1151 0.929 1_655 S
H1139 C1149 0.929 1_554 S
H1140 C1144 0.929 . S
H1141 C1150 0.929 . S
C1142 H1136 0.930 . S
C1142 C1143 1.367 . S
C1142 C1150 1.378 . S
C1143 C1142 1.367 . S
C1143 C1151 1.433 . S
C1144 H1140 0.929 . S
C1144 C1146 1.378 . S
C1144 C1148 1.350 . S
C1145 C1148 1.463 . S
C1145 C1150 1.350 . S
C1145 N1153 1.427 . S
C1146 H1137 0.930 . S
C1146 C1144 1.378 . S
C1146 C1147 1.367 . S
C1147 C1146 1.367 . S
C1147 C1149 1.433 . S
C1148 C1144 1.350 . S
C1148 C1145 1.463 . S
C1148 N1152 1.427 . S
C1149 H1139 0.929 1_556 S
C1149 C1147 1.433 . S
C1149 N1152 1.384 . S
C1150 H1141 0.929 . S
C1150 C1142 1.378 . S
C1150 C1145 1.350 . S
C1151 H1138 0.929 1_455 S
C1151 C1143 1.433 . S
C1151 N1153 1.384 . S
N1152 C1148 1.427 . S
N1152 C1149 1.384 . S
N1153 C1145 1.427 . S
N1153 C1151 1.384 . S
H1154 C1160 0.930 . S
H1155 C1164 0.930 . S
H1156 C1169 0.929 . S
H1157 C1167 0.929 . S
H1158 C1162 0.929 . S
H1159 C1168 0.929 . S
C1160 H1154 0.930 . S
C1160 C1161 1.367 . S
C1160 C1168 1.378 . S
C1161 C1160 1.367 . S
C1161 C1169 1.433 . S
C1162 H1158 0.929 . S
C1162 C1164 1.378 . S
C1162 C1166 1.350 . S
C1163 C1166 1.463 . S
C1163 C1168 1.350 . S
C1163 N1171 1.427 . S
C1164 H1155 0.930 . S
C1164 C1162 1.378 . S
C1164 C1165 1.367 . S
C1165 C1164 1.367 . S
C1165 C1167 1.433 . S
C1166 C1162 1.350 . S
C1166 C1163 1.463 . S
C1166 N1170 1.427 . S
C1167 H1157 0.929 . S
C1167 C1165 1.433 . S
C1167 N1170 1.384 . S
C1168 H1159 0.929 . S
C1168 C1160 1.378 . S
C1168 C1163 1.350 . S
C1169 H1156 0.929 . S
C1169 C1161 1.433 . S
C1169 N1171 1.384 . S
N1170 C1166 1.427 . S
N1170 C1167 1.384 . S
N1171 C1163 1.427 . S
N1171 C1169 1.384 . S
H1172 C1178 0.930 . S
H1173 C1182 0.930 . S
H1174 C1187 0.929 . S
H1175 C1185 0.929 . S
H1176 C1180 0.929 . S
H1177 C1186 0.929 . S
C1178 H1172 0.930 . S
C1178 C1179 1.367 . S
C1178 C1186 1.378 . S
C1179 C1178 1.367 . S
C1179 C1187 1.433 . S
C1180 H1176 0.929 . S
C1180 C1182 1.378 . S
C1180 C1184 1.350 . S
C1181 C1184 1.463 . S
C1181 C1186 1.350 . S
C1181 N1189 1.427 . S
C1182 H1173 0.930 . S
C1182 C1180 1.378 . S
C1182 C1183 1.367 . S
C1183 C1182 1.367 . S
C1183 C1185 1.433 . S
C1184 C1180 1.350 . S
C1184 C1181 1.463 . S
C1184 N1188 1.427 . S
C1185 H1175 0.929 . S
C1185 C1183 1.433 . S
C1185 N1188 1.384 . S
C1186 H1177 0.929 . S
C1186 C1178 1.378 . S
C1186 C1181 1.350 . S
C1187 H1174 0.929 . S
C1187 C1179 1.433 . S
C1187 N1189 1.384 . S
N1188 C1184 1.427 . S
N1188 C1185 1.384 . S
N1189 C1181 1.427 . S
N1189 C1187 1.384 . S
H1190 C1196 0.930 . S
H1191 C1200 0.930 . S
H1192 C1205 0.929 . S
H1193 C1203 0.929 . S
H1194 C1198 0.929 . S
H1195 C1204 0.929 . S
C1196 H1190 0.930 . S
C1196 C1197 1.367 . S
C1196 C1204 1.378 . S
C1197 C1196 1.367 . S
C1197 C1205 1.433 . S
C1198 H1194 0.929 . S
C1198 C1200 1.378 . S
C1198 C1202 1.350 . S
C1199 C1202 1.463 . S
C1199 C1204 1.350 . S
C1199 N1207 1.427 . S
C1200 H1191 0.930 . S
C1200 C1198 1.378 . S
C1200 C1201 1.367 . S
C1201 C1200 1.367 . S
C1201 C1203 1.433 . S
C1202 C1198 1.350 . S
C1202 C1199 1.463 . S
C1202 N1206 1.427 . S
C1203 H1193 0.929 . S
C1203 C1201 1.433 . S
C1203 N1206 1.384 . S
C1204 H1195 0.929 . S
C1204 C1196 1.378 . S
C1204 C1199 1.350 . S
C1205 H1192 0.929 . S
C1205 C1197 1.433 . S
C1205 N1207 1.384 . S
N1206 C1202 1.427 . S
N1206 C1203 1.384 . S
N1207 C1199 1.427 . S
N1207 C1205 1.384 . S
H1208 C1214 0.930 . S
H1209 C1218 0.913 1_655 S
H1210 C1223 0.929 . S
H1211 C1221 0.929 . S
H1212 C1216 0.929 1_655 S
H1213 C1222 0.929 . S
C1214 H1208 0.930 . S
C1214 C1215 1.367 . S
C1214 C1222 1.378 . S
C1215 C1214 1.367 . S
C1215 C1223 1.433 1_455 S
C1216 H1212 0.929 1_455 S
C1216 C1218 1.378 . S
C1216 C1220 1.350 . S
C1217 C1220 1.463 . S
C1217 C1222 1.350 . S
C1217 N1225 1.427 1_455 S
C1218 H1209 0.913 1_455 S
C1218 C1216 1.378 . S
C1218 C1219 1.367 . S
C1219 C1218 1.367 . S
C1219 C1221 1.433 . S
C1220 C1216 1.350 . S
C1220 C1217 1.463 . S
C1220 N1224 1.427 . S
C1221 H1211 0.929 . S
C1221 C1219 1.433 . S
C1221 N1224 1.384 . S
C1222 H1213 0.929 . S
C1222 C1214 1.378 . S
C1222 C1217 1.350 . S
C1223 H1210 0.929 . S
C1223 C1215 1.433 1_655 S
C1223 N1225 1.384 . S
N1224 C1220 1.427 . S
N1224 C1221 1.384 . S
N1225 C1217 1.427 1_655 S
N1225 C1223 1.384 . S
H1226 C1232 0.930 . S
H1227 C1236 0.930 . S
H1228 C1241 0.929 . S
H1229 C1239 0.929 . S
H1230 C1234 0.929 . S
H1231 C1240 0.929 . S
C1232 H1226 0.930 . S
C1232 C1233 1.367 . S
C1232 C1240 1.378 . S
C1233 C1232 1.367 . S
C1233 C1241 1.433 . S
C1234 H1230 0.929 . S
C1234 C1236 1.378 . S
C1234 C1238 1.350 . S
C1235 C1238 1.463 . S
C1235 C1240 1.350 . S
C1235 N1243 1.427 . S
C1236 H1227 0.930 . S
C1236 C1234 1.378 . S
C1236 C1237 1.367 . S
C1237 C1236 1.367 . S
C1237 C1239 1.433 . S
C1238 C1234 1.350 . S
C1238 C1235 1.463 . S
C1238 N1242 1.427 . S
C1239 H1229 0.929 . S
C1239 C1237 1.433 . S
C1239 N1242 1.384 . S
C1240 H1231 0.929 . S
C1240 C1232 1.378 . S
C1240 C1235 1.350 . S
C1241 H1228 0.929 . S
C1241 C1233 1.433 . S
C1241 N1243 1.384 . S
N1242 C1238 1.427 . S
N1242 C1239 1.384 . S
N1243 C1235 1.427 . S
N1243 C1241 1.384 . S
H1244 C1250 0.930 . S
H1245 C1254 0.930 . S
H1246 C1259 0.929 . S
H1247 C1257 0.929 . S
H1248 C1252 0.929 . S
H1249 C1258 0.929 . S
C1250 H1244 0.930 . S
C1250 C1251 1.367 . S
C1250 C1258 1.378 . S
C1251 C1250 1.367 . S
C1251 C1259 1.433 . S
C1252 H1248 0.929 . S
C1252 C1254 1.378 . S
C1252 C1256 1.350 . S
C1253 C1256 1.463 . S
C1253 C1258 1.350 . S
C1253 N1261 1.427 . S
C1254 H1245 0.930 . S
C1254 C1252 1.378 . S
C1254 C1255 1.367 . S
C1255 C1254 1.367 . S
C1255 C1257 1.433 . S
C1256 C1252 1.350 . S
C1256 C1253 1.463 . S
C1256 N1260 1.427 . S
C1257 H1247 0.929 . S
C1257 C1255 1.433 . S
C1257 N1260 1.384 . S
C1258 H1249 0.929 . S
C1258 C1250 1.378 . S
C1258 C1253 1.350 . S
C1259 H1246 0.929 . S
C1259 C1251 1.433 . S
C1259 N1261 1.384 . S
N1260 C1256 1.427 . S
N1260 C1257 1.384 . S
N1261 C1253 1.427 . S
N1261 C1259 1.384 . S
H1262 C1268 0.930 . S
H1263 C1272 0.930 . S
H1264 C1277 0.929 . S
H1265 C1275 0.929 . S
H1266 C1270 0.929 . S
H1267 C1276 0.929 . S
C1268 H1262 0.930 . S
C1268 C1269 1.367 . S
C1268 C1276 1.378 . S
C1269 C1268 1.367 . S
C1269 C1277 1.433 . S
C1270 H1266 0.929 . S
C1270 C1272 1.378 . S
C1270 C1274 1.350 . S
C1271 C1274 1.463 . S
C1271 C1276 1.350 . S
C1271 N1279 1.427 . S
C1272 H1263 0.930 . S
C1272 C1270 1.378 . S
C1272 C1273 1.367 . S
C1273 C1272 1.367 . S
C1273 C1275 1.433 . S
C1274 C1270 1.350 . S
C1274 C1271 1.463 . S
C1274 N1278 1.427 . S
C1275 H1265 0.929 . S
C1275 C1273 1.433 . S
C1275 N1278 1.384 . S
C1276 H1267 0.929 . S
C1276 C1268 1.378 . S
C1276 C1271 1.350 . S
C1277 H1264 0.929 . S
C1277 C1269 1.433 . S
C1277 N1279 1.384 . S
N1278 C1274 1.427 . S
N1278 C1275 1.384 . S
N1279 C1271 1.427 . S
N1279 C1277 1.384 . S
H1280 C1286 0.930 . S
H1281 C1290 0.930 . S
H1282 C1295 0.929 . S
H1283 C1293 0.937 . S
H1284 C1288 0.929 . S
H1285 C1294 0.929 . S
C1286 H1280 0.930 . S
C1286 C1287 1.367 . S
C1286 C1294 1.378 . S
C1287 C1286 1.367 . S
C1287 C1295 1.433 . S
C1288 H1284 0.929 . S
C1288 C1290 1.378 . S
C1288 C1292 1.350 . S
C1289 C1292 1.463 . S
C1289 C1294 1.350 . S
C1289 N1297 1.427 . S
C1290 H1281 0.930 . S
C1290 C1288 1.378 . S
C1290 C1291 1.367 . S
C1291 C1290 1.367 . S
C1291 C1293 1.433 . S
C1292 C1288 1.350 . S
C1292 C1289 1.463 . S
C1292 N1296 1.427 . S
C1293 H1283 0.937 . S
C1293 C1291 1.433 . S
C1293 N1296 1.384 . S
C1294 H1285 0.929 . S
C1294 C1286 1.378 . S
C1294 C1289 1.350 . S
C1295 H1282 0.929 . S
C1295 C1287 1.433 . S
C1295 N1297 1.384 . S
N1296 C1292 1.427 . S
N1296 C1293 1.384 . S
N1297 C1289 1.427 . S
N1297 C1295 1.384 . S
H1298 C1304 0.930 . S
H1299 C1308 0.930 . S
H1300 C1313 0.929 . S
H1301 C1311 0.929 . S
H1302 C1306 0.929 . S
H1303 C1312 0.929 . S
C1304 H1298 0.930 . S
C1304 C1305 1.367 . S
C1304 C1312 1.378 . S
C1305 C1304 1.367 . S
C1305 C1313 1.433 . S
C1306 H1302 0.929 . S
C1306 C1308 1.378 . S
C1306 C1310 1.350 . S
C1307 C1310 1.463 . S
C1307 C1312 1.350 . S
C1307 N1315 1.427 . S
C1308 H1299 0.930 . S
C1308 C1306 1.378 . S
C1308 C1309 1.367 . S
C1309 C1308 1.367 . S
C1309 C1311 1.433 . S
C1310 C1306 1.350 . S
C1310 C1307 1.463 . S
C1310 N1314 1.427 . S
C1311 H1301 0.929 . S
C1311 C1309 1.433 . S
C1311 N1314 1.384 . S
C1312 H1303 0.929 . S
C1312 C1304 1.378 . S
C1312 C1307 1.350 . S
C1313 H1300 0.929 . S
C1313 C1305 1.433 . S
C1313 N1315 1.384 . S
N1314 C1310 1.427 . S
N1314 C1311 1.384 . S
N1315 C1307 1.427 . S
N1315 C1313 1.384 . S
H1316 C1322 0.930 . S
H1317 C1326 0.930 . S
H1318 C1331 0.929 . S
H1319 C1329 0.954 . S
H1320 C1324 0.929 . S
H1321 C1330 0.929 . S
C1322 H1316 0.930 . S
C1322 C1323 1.367 . S
C1322 C1330 1.378 . S
C1323 C1322 1.367 . S
C1323 C1331 1.433 1_545 S
C1324 H1320 0.929 . S
C1324 C1326 1.378 . S
C1324 C1328 1.350 . S
C1325 C1328 1.463 . S
C1325 C1330 1.350 1_565 S
C1325 N1333 1.427 . S
C1326 H1317 0.930 . S
C1326 C1324 1.378 . S
C1326 C1327 1.367 . S
C1327 C1326 1.367 . S
C1327 C1329 1.402 1_565 S
C1328 C1324 1.350 . S
C1328 C1325 1.463 . S
C1328 N1332 1.427 1_565 S
C1329 H1319 0.954 . S
C1329 C1327 1.402 1_545 S
C1329 N1332 1.391 . S
C1330 H1321 0.929 . S
C1330 C1322 1.378 . S
C1330 C1325 1.350 1_545 S
C1331 H1318 0.929 . S
C1331 C1323 1.433 1_565 S
C1331 N1333 1.384 . S
N1332 C1328 1.427 1_545 S
N1332 C1329 1.391 . S
N1333 C1325 1.427 . S
N1333 C1331 1.384 . S
H1334 C1340 0.930 . S
H1335 C1344 0.930 . S
H1336 C1349 0.929 . S
H1337 C1347 0.929 . S
H1338 C1342 0.929 . S
H1339 C1348 0.929 . S
C1340 H1334 0.930 . S
C1340 C1341 1.367 . S
C1340 C1348 1.378 . S
C1341 C1340 1.367 . S
C1341 C1349 1.433 . S
C1342 H1338 0.929 . S
C1342 C1344 1.378 . S
C1342 C1346 1.350 . S
C1343 C1346 1.463 . S
C1343 C1348 1.350 . S
C1343 N1351 1.427 . S
C1344 H1335 0.930 . S
C1344 C1342 1.378 . S
C1344 C1345 1.367 . S
C1345 C1344 1.367 . S
C1345 C1347 1.433 . S
C1346 C1342 1.350 . S
C1346 C1343 1.463 . S
C1346 N1350 1.427 . S
C1347 H1337 0.929 . S
C1347 C1345 1.433 . S
C1347 N1350 1.384 . S
C1348 H1339 0.929 . S
C1348 C1340 1.378 . S
C1348 C1343 1.350 . S
C1349 H1336 0.929 . S
C1349 C1341 1.433 . S
C1349 N1351 1.384 . S
N1350 C1346 1.427 . S
N1350 C1347 1.384 . S
N1351 C1343 1.427 . S
N1351 C1349 1.384 . S
H1352 C1358 0.930 . S
H1353 C1362 0.930 . S
H1354 C1367 0.929 . S
H1355 C1365 0.929 1_455 S
H1356 C1360 0.929 . S
H1357 C1366 0.929 . S
C1358 H1352 0.930 . S
C1358 C1359 1.367 . S
C1358 C1366 1.378 . S
C1359 C1358 1.367 . S
C1359 C1367 1.433 . S
C1360 H1356 0.929 . S
C1360 C1362 1.378 . S
C1360 C1364 1.350 . S
C1361 C1364 1.463 . S
C1361 C1366 1.350 . S
C1361 N1369 1.427 . S
C1362 H1353 0.930 . S
C1362 C1360 1.378 . S
C1362 C1363 1.367 1_545 S
C1363 C1362 1.367 1_565 S
C1363 C1365 1.433 . S
C1364 C1360 1.350 . S
C1364 C1361 1.463 . S
C1364 N1368 1.427 1_545 S
C1365 H1355 0.929 1_655 S
C1365 C1363 1.433 . S
C1365 N1368 1.384 . S
C1366 H1357 0.929 . S
C1366 C1358 1.378 . S
C1366 C1361 1.350 . S
C1367 H1354 0.929 . S
C1367 C1359 1.433 . S
C1367 N1369 1.384 . S
N1368 C1364 1.427 1_565 S
N1368 C1365 1.384 . S
N1369 C1361 1.427 . S
N1369 C1367 1.384 . S
H1370 C1376 0.930 . S
H1371 C1380 0.930 . S
H1372 C1385 0.929 . S
H1373 C1383 0.929 . S
H1374 C1378 0.929 . S
H1375 C1384 0.929 . S
C1376 H1370 0.930 . S
C1376 C1377 1.367 . S
C1376 C1384 1.378 . S
C1377 C1376 1.367 . S
C1377 C1385 1.433 . S
C1378 H1374 0.929 . S
C1378 C1380 1.378 . S
C1378 C1382 1.350 . S
C1379 C1382 1.463 . S
C1379 C1384 1.350 . S
C1379 N1387 1.427 . S
C1380 H1371 0.930 . S
C1380 C1378 1.378 . S
C1380 C1381 1.367 . S
C1381 C1380 1.367 . S
C1381 C1383 1.433 . S
C1382 C1378 1.350 . S
C1382 C1379 1.463 . S
C1382 N1386 1.427 . S
C1383 H1373 0.929 . S
C1383 C1381 1.433 . S
C1383 N1386 1.384 . S
C1384 H1375 0.929 . S
C1384 C1376 1.378 . S
C1384 C1379 1.350 . S
C1385 H1372 0.929 . S
C1385 C1377 1.433 . S
C1385 N1387 1.384 . S
N1386 C1382 1.427 . S
N1386 C1383 1.384 . S
N1387 C1379 1.427 . S
N1387 C1385 1.384 . S
H1388 C1394 0.930 . S
H1389 C1398 0.924 1_565 S
H1390 C1403 0.929 . S
H1391 C1401 0.929 . S
H1392 C1396 0.929 . S
H1393 C1402 0.929 . S
C1394 H1388 0.930 . S
C1394 C1395 1.367 . S
C1394 C1402 1.378 . S
C1395 C1394 1.367 . S
C1395 C1403 1.433 1_545 S
C1396 H1392 0.929 . S
C1396 C1398 1.376 1_565 S
C1396 C1400 1.350 1_565 S
C1397 C1400 1.463 . S
C1397 C1402 1.350 . S
C1397 N1405 1.427 1_545 S
C1398 H1389 0.924 1_545 S
C1398 C1396 1.376 1_545 S
C1398 C1399 1.375 . S
C1399 C1398 1.375 . S
C1399 C1401 1.433 . S
C1400 C1396 1.350 1_545 S
C1400 C1397 1.463 . S
C1400 N1404 1.427 . S
C1401 H1391 0.929 . S
C1401 C1399 1.433 . S
C1401 N1404 1.384 . S
C1402 H1393 0.929 . S
C1402 C1394 1.378 . S
C1402 C1397 1.350 . S
C1403 H1390 0.929 . S
C1403 C1395 1.433 1_565 S
C1403 N1405 1.384 . S
N1404 C1400 1.427 . S
N1404 C1401 1.384 . S
N1405 C1397 1.427 1_565 S
N1405 C1403 1.384 . S
H1406 C1412 0.930 . S
H1407 C1416 0.930 . S
H1408 C1421 0.929 . S
H1409 C1419 0.929 . S
H1410 C1414 0.929 . S
H1411 C1420 0.929 . S
C1412 H1406 0.930 . S
C1412 C1413 1.367 . S
C1412 C1420 1.378 . S
C1413 C1412 1.367 . S
C1413 C1421 1.433 . S
C1414 H1410 0.929 . S
C1414 C1416 1.378 . S
C1414 C1418 1.350 . S
C1415 C1418 1.463 . S
C1415 C1420 1.350 . S
C1415 N1423 1.427 . S
C1416 H1407 0.930 . S
C1416 C1414 1.378 . S
C1416 C1417 1.367 . S
C1417 C1416 1.367 . S
C1417 C1419 1.433 . S
C1418 C1414 1.350 . S
C1418 C1415 1.463 . S
C1418 N1422 1.427 . S
C1419 H1409 0.929 . S
C1419 C1417 1.433 . S
C1419 N1422 1.384 . S
C1420 H1411 0.929 . S
C1420 C1412 1.378 . S
C1420 C1415 1.350 . S
C1421 H1408 0.929 . S
C1421 C1413 1.433 . S
C1421 N1423 1.384 . S
N1422 C1418 1.427 . S
N1422 C1419 1.384 . S
N1423 C1415 1.427 . S
N1423 C1421 1.384 . S
H1424 C1430 0.930 . S
H1425 C1434 0.930 . S
H1426 C1439 0.929 . S
H1427 C1437 0.929 . S
H1428 C1432 0.929 . S
H1429 C1438 0.929 1_556 S
C1430 H1424 0.930 . S
C1430 C1431 1.367 1_556 S
C1430 C1438 1.378 1_556 S
C1431 C1430 1.367 1_554 S
C1431 C1439 1.433 . S
C1432 H1428 0.929 . S
C1432 C1434 1.378 . S
C1432 C1436 1.350 . S
C1433 C1436 1.463 . S
C1433 C1438 1.350 . S
C1433 N1441 1.427 . S
C1434 H1425 0.930 . S
C1434 C1432 1.378 . S
C1434 C1435 1.367 . S
C1435 C1434 1.367 . S
C1435 C1437 1.433 . S
C1436 C1432 1.350 . S
C1436 C1433 1.463 . S
C1436 N1440 1.427 . S
C1437 H1427 0.929 . S
C1437 C1435 1.433 . S
C1437 N1440 1.384 . S
C1438 H1429 0.929 1_554 S
C1438 C1430 1.378 1_554 S
C1438 C1433 1.350 . S
C1439 H1426 0.929 . S
C1439 C1431 1.433 . S
C1439 N1441 1.384 . S
N1440 C1436 1.427 . S
N1440 C1437 1.384 . S
N1441 C1433 1.427 . S
N1441 C1439 1.384 . S
H1442 C1448 0.930 . S
H1443 C1452 0.930 . S
H1444 C1457 0.929 . S
H1445 C1455 0.929 . S
H1446 C1450 0.929 . S
H1447 C1456 0.929 . S
C1448 H1442 0.930 . S
C1448 C1449 1.367 1_556 S
C1448 C1456 1.378 . S
C1449 C1448 1.367 1_554 S
C1449 C1457 1.433 . S
C1450 H1446 0.929 . S
C1450 C1452 1.378 . S
C1450 C1454 1.350 1_554 S
C1451 C1454 1.463 . S
C1451 C1456 1.350 . S
C1451 N1459 1.427 1_556 S
C1452 H1443 0.930 . S
C1452 C1450 1.378 . S
C1452 C1453 1.367 1_554 S
C1453 C1452 1.367 1_556 S
C1453 C1455 1.433 . S
C1454 C1450 1.350 1_556 S
C1454 C1451 1.463 . S
C1454 N1458 1.427 . S
C1455 H1445 0.929 . S
C1455 C1453 1.433 . S
C1455 N1458 1.384 . S
C1456 H1447 0.929 . S
C1456 C1448 1.378 . S
C1456 C1451 1.350 . S
C1457 H1444 0.929 . S
C1457 C1449 1.433 . S
C1457 N1459 1.384 . S
N1458 C1454 1.427 . S
N1458 C1455 1.384 . S
N1459 C1451 1.427 1_554 S
N1459 C1457 1.384 . S
H1460 C1466 0.930 . S
H1461 C1470 0.930 . S
H1462 C1475 0.929 . S
H1463 C1473 0.929 . S
H1464 C1468 0.929 . S
H1465 C1474 0.929 . S
C1466 H1460 0.930 . S
C1466 C1467 1.367 . S
C1466 C1474 1.378 . S
C1467 C1466 1.367 . S
C1467 C1475 1.433 . S
C1468 H1464 0.929 . S
C1468 C1470 1.378 . S
C1468 C1472 1.350 . S
C1469 C1472 1.463 . S
C1469 C1474 1.350 . S
C1469 N1477 1.427 . S
C1470 H1461 0.930 . S
C1470 C1468 1.378 . S
C1470 C1471 1.367 . S
C1471 C1470 1.367 . S
C1471 C1473 1.433 . S
C1472 C1468 1.350 . S
C1472 C1469 1.463 . S
C1472 N1476 1.427 . S
C1473 H1463 0.929 . S
C1473 C1471 1.433 . S
C1473 N1476 1.384 . S
C1474 H1465 0.929 . S
C1474 C1466 1.378 . S
C1474 C1469 1.350 . S
C1475 H1462 0.929 . S
C1475 C1467 1.433 . S
C1475 N1477 1.384 . S
N1476 C1472 1.427 . S
N1476 C1473 1.384 . S
N1477 C1469 1.427 . S
N1477 C1475 1.384 . S
H1478 C1484 0.930 . S
H1479 C1488 0.930 . S
H1480 C1493 0.929 . S
H1481 C1491 0.929 . S
H1482 C1486 0.929 . S
H1483 C1492 0.929 . S
C1484 H1478 0.930 . S
C1484 C1485 1.367 . S
C1484 C1492 1.378 . S
C1485 C1484 1.367 . S
C1485 C1493 1.433 . S
C1486 H1482 0.929 . S
C1486 C1488 1.378 . S
C1486 C1490 1.350 . S
C1487 C1490 1.463 . S
C1487 C1492 1.350 . S
C1487 N1495 1.427 . S
C1488 H1479 0.930 . S
C1488 C1486 1.378 . S
C1488 C1489 1.367 . S
C1489 C1488 1.367 . S
C1489 C1491 1.433 . S
C1490 C1486 1.350 . S
C1490 C1487 1.463 . S
C1490 N1494 1.427 . S
C1491 H1481 0.929 . S
C1491 C1489 1.433 . S
C1491 N1494 1.384 . S
C1492 H1483 0.929 . S
C1492 C1484 1.378 . S
C1492 C1487 1.350 . S
C1493 H1480 0.929 . S
C1493 C1485 1.433 . S
C1493 N1495 1.384 . S
N1494 C1490 1.427 . S
N1494 C1491 1.384 . S
N1495 C1487 1.427 . S
N1495 C1493 1.384 . S
H1496 C1502 0.930 . S
H1497 C1506 0.930 . S
H1498 C1511 0.929 . S
H1499 C1509 0.929 . S
H1500 C1504 0.929 . S
H1501 C1510 0.929 . S
C1502 H1496 0.930 . S
C1502 C1503 1.367 . S
C1502 C1510 1.378 . S
C1503 C1502 1.367 . S
C1503 C1511 1.433 . S
C1504 H1500 0.929 . S
C1504 C1506 1.378 . S
C1504 C1508 1.350 . S
C1505 C1508 1.463 . S
C1505 C1510 1.350 . S
C1505 N1513 1.427 . S
C1506 H1497 0.930 . S
C1506 C1504 1.378 . S
C1506 C1507 1.367 . S
C1507 C1506 1.367 . S
C1507 C1509 1.433 . S
C1508 C1504 1.350 . S
C1508 C1505 1.463 . S
C1508 N1512 1.427 . S
C1509 H1499 0.929 . S
C1509 C1507 1.433 . S
C1509 N1512 1.384 . S
C1510 H1501 0.929 . S
C1510 C1502 1.378 . S
C1510 C1505 1.350 . S
C1511 H1498 0.929 . S
C1511 C1503 1.433 . S
C1511 N1513 1.384 . S
N1512 C1508 1.427 . S
N1512 C1509 1.384 . S
N1513 C1505 1.427 . S
N1513 C1511 1.384 . S
H1514 C1520 0.930 . S
H1515 C1524 0.930 . S
H1516 C1529 0.929 . S
H1517 C1527 0.929 . S
H1518 C1522 0.929 . S
H1519 C1528 0.929 . S
C1520 H1514 0.930 . S
C1520 C1521 1.367 . S
C1520 C1528 1.378 . S
C1521 C1520 1.367 . S
C1521 C1529 1.433 . S
C1522 H1518 0.929 . S
C1522 C1524 1.378 . S
C1522 C1526 1.350 . S
C1523 C1526 1.463 . S
C1523 C1528 1.350 . S
C1523 N1531 1.427 . S
C1524 H1515 0.930 . S
C1524 C1522 1.378 . S
C1524 C1525 1.367 . S
C1525 C1524 1.367 . S
C1525 C1527 1.433 . S
C1526 C1522 1.350 . S
C1526 C1523 1.463 . S
C1526 N1530 1.427 . S
C1527 H1517 0.929 . S
C1527 C1525 1.433 . S
C1527 N1530 1.384 . S
C1528 H1519 0.929 . S
C1528 C1520 1.378 . S
C1528 C1523 1.350 . S
C1529 H1516 0.929 . S
C1529 C1521 1.433 . S
C1529 N1531 1.384 . S
N1530 C1526 1.427 . S
N1530 C1527 1.384 . S
N1531 C1523 1.427 . S
N1531 C1529 1.384 . S
H1532 C1538 0.930 . S
H1533 C1542 0.930 . S
H1534 C1547 0.929 . S
H1535 C1545 0.929 . S
H1536 C1540 0.929 . S
H1537 C1546 0.929 . S
C1538 H1532 0.930 . S
C1538 C1539 1.367 . S
C1538 C1546 1.378 . S
C1539 C1538 1.367 . S
C1539 C1547 1.433 . S
C1540 H1536 0.929 . S
C1540 C1542 1.378 . S
C1540 C1544 1.350 . S
C1541 C1544 1.463 . S
C1541 C1546 1.350 . S
C1541 N1549 1.427 . S
C1542 H1533 0.930 . S
C1542 C1540 1.378 . S
C1542 C1543 1.367 . S
C1543 C1542 1.367 . S
C1543 C1545 1.433 . S
C1544 C1540 1.350 . S
C1544 C1541 1.463 . S
C1544 N1548 1.427 . S
C1545 H1535 0.929 . S
C1545 C1543 1.433 . S
C1545 N1548 1.384 . S
C1546 H1537 0.929 . S
C1546 C1538 1.378 . S
C1546 C1541 1.350 . S
C1547 H1534 0.929 . S
C1547 C1539 1.433 . S
C1547 N1549 1.384 . S
N1548 C1544 1.427 . S
N1548 C1545 1.384 . S
N1549 C1541 1.427 . S
N1549 C1547 1.384 . S
H1550 C1556 0.930 . S
H1551 C1560 0.930 . S
H1552 C1565 0.929 . S
H1553 C1563 0.929 . S
H1554 C1558 0.929 . S
H1555 C1564 0.929 . S
C1556 H1550 0.930 . S
C1556 C1557 1.367 . S
C1556 C1564 1.378 . S
C1557 C1556 1.367 . S
C1557 C1565 1.433 . S
C1558 H1554 0.929 . S
C1558 C1560 1.378 . S
C1558 C1562 1.350 . S
C1559 C1562 1.463 . S
C1559 C1564 1.350 . S
C1559 N1567 1.427 . S
C1560 H1551 0.930 . S
C1560 C1558 1.378 . S
C1560 C1561 1.367 . S
C1561 C1560 1.367 . S
C1561 C1563 1.433 . S
C1562 C1558 1.350 . S
C1562 C1559 1.463 . S
C1562 N1566 1.427 . S
C1563 H1553 0.929 . S
C1563 C1561 1.433 . S
C1563 N1566 1.384 . S
C1564 H1555 0.929 . S
C1564 C1556 1.378 . S
C1564 C1559 1.350 . S
C1565 H1552 0.929 . S
C1565 C1557 1.433 . S
C1565 N1567 1.384 . S
N1566 C1562 1.427 . S
N1566 C1563 1.384 . S
N1567 C1559 1.427 . S
N1567 C1565 1.384 . S
H1568 C1574 0.930 . S
H1569 C1578 0.930 . S
H1570 C1583 0.929 . S
H1571 C1581 0.929 . S
H1572 C1576 0.929 . S
H1573 C1582 0.929 . S
C1574 H1568 0.930 . S
C1574 C1575 1.367 . S
C1574 C1582 1.378 . S
C1575 C1574 1.367 . S
C1575 C1583 1.433 . S
C1576 H1572 0.929 . S
C1576 C1578 1.378 . S
C1576 C1580 1.350 . S
C1577 C1580 1.463 . S
C1577 C1582 1.350 . S
C1577 N1585 1.427 . S
C1578 H1569 0.930 . S
C1578 C1576 1.378 . S
C1578 C1579 1.367 . S
C1579 C1578 1.367 . S
C1579 C1581 1.433 . S
C1580 C1576 1.350 . S
C1580 C1577 1.463 . S
C1580 N1584 1.427 . S
C1581 H1571 0.929 . S
C1581 C1579 1.433 . S
C1581 N1584 1.384 . S
C1582 H1573 0.929 . S
C1582 C1574 1.378 . S
C1582 C1577 1.350 . S
C1583 H1570 0.929 . S
C1583 C1575 1.433 . S
C1583 N1585 1.384 . S
N1584 C1580 1.427 . S
N1584 C1581 1.384 . S
N1585 C1577 1.427 . S
N1585 C1583 1.384 . S
H1586 C1592 0.930 . S
H1587 C1596 0.930 . S
H1588 C1601 0.929 . S
H1589 C1599 0.929 . S
H1590 C1594 0.929 . S
H1591 C1600 0.929 . S
C1592 H1586 0.930 . S
C1592 C1593 1.367 . S
C1592 C1600 1.378 . S
C1593 C1592 1.367 . S
C1593 C1601 1.433 . S
C1594 H1590 0.929 . S
C1594 C1596 1.378 . S
C1594 C1598 1.350 . S
C1595 C1598 1.463 . S
C1595 C1600 1.350 . S
C1595 N1603 1.427 . S
C1596 H1587 0.930 . S
C1596 C1594 1.378 . S
C1596 C1597 1.367 . S
C1597 C1596 1.367 . S
C1597 C1599 1.433 . S
C1598 C1594 1.350 . S
C1598 C1595 1.463 . S
C1598 N1602 1.427 . S
C1599 H1589 0.929 . S
C1599 C1597 1.433 . S
C1599 N1602 1.384 . S
C1600 H1591 0.929 . S
C1600 C1592 1.378 . S
C1600 C1595 1.350 . S
C1601 H1588 0.929 . S
C1601 C1593 1.433 . S
C1601 N1603 1.384 . S
N1602 C1598 1.427 . S
N1602 C1599 1.384 . S
N1603 C1595 1.427 . S
N1603 C1601 1.384 . S
H1604 C1610 0.930 . S
H1605 C1614 0.930 . S
H1606 C1619 0.929 1_655 S
H1607 C1617 0.929 . S
H1608 C1612 0.929 . S
H1609 C1618 0.929 . S
C1610 H1604 0.930 . S
C1610 C1611 1.367 . S
C1610 C1618 1.378 . S
C1611 C1610 1.367 . S
C1611 C1619 1.433 . S
C1612 H1608 0.929 . S
C1612 C1614 1.378 . S
C1612 C1616 1.350 . S
C1613 C1616 1.463 . S
C1613 C1618 1.350 . S
C1613 N1621 1.427 . S
C1614 H1605 0.930 . S
C1614 C1612 1.378 . S
C1614 C1615 1.367 . S
C1615 C1614 1.367 . S
C1615 C1617 1.433 . S
C1616 C1612 1.350 . S
C1616 C1613 1.463 . S
C1616 N1620 1.427 . S
C1617 H1607 0.929 . S
C1617 C1615 1.433 . S
C1617 N1620 1.384 . S
C1618 H1609 0.929 . S
C1618 C1610 1.378 . S
C1618 C1613 1.350 . S
C1619 H1606 0.929 1_455 S
C1619 C1611 1.433 . S
C1619 N1621 1.384 . S
N1620 C1616 1.427 . S
N1620 C1617 1.384 . S
N1621 C1613 1.427 . S
N1621 C1619 1.384 . S
H1622 C1628 0.930 . S
H1623 C1632 0.930 . S
H1624 C1637 0.929 . S
H1625 C1635 0.929 . S
H1626 C1630 0.929 . S
H1627 C1636 0.929 . S
C1628 H1622 0.930 . S
C1628 C1629 1.367 . S
C1628 C1636 1.378 . S
C1629 C1628 1.367 . S
C1629 C1637 1.433 . S
C1630 H1626 0.929 . S
C1630 C1632 1.378 . S
C1630 C1634 1.350 . S
C1631 C1634 1.463 . S
C1631 C1636 1.350 . S
C1631 N1639 1.427 . S
C1632 H1623 0.930 . S
C1632 C1630 1.378 . S
C1632 C1633 1.367 . S
C1633 C1632 1.367 . S
C1633 C1635 1.433 . S
C1634 C1630 1.350 . S
C1634 C1631 1.463 . S
C1634 N1638 1.427 . S
C1635 H1625 0.929 . S
C1635 C1633 1.433 . S
C1635 N1638 1.384 . S
C1636 H1627 0.929 . S
C1636 C1628 1.378 . S
C1636 C1631 1.350 . S
C1637 H1624 0.929 . S
C1637 C1629 1.433 . S
C1637 N1639 1.384 . S
N1638 C1634 1.427 . S
N1638 C1635 1.384 . S
N1639 C1631 1.427 . S
N1639 C1637 1.384 . S
H1640 C1646 0.930 . S
H1641 C1650 0.930 . S
H1642 C1655 0.929 . S
H1643 C1653 0.929 . S
H1644 C1648 0.929 . S
H1645 C1654 0.929 . S
C1646 H1640 0.930 . S
C1646 C1647 1.367 . S
C1646 C1654 1.378 . S
C1647 C1646 1.367 . S
C1647 C1655 1.433 . S
C1648 H1644 0.929 . S
C1648 C1650 1.378 . S
C1648 C1652 1.350 . S
C1649 C1652 1.463 . S
C1649 C1654 1.350 . S
C1649 N1657 1.427 . S
C1650 H1641 0.930 . S
C1650 C1648 1.378 . S
C1650 C1651 1.367 . S
C1651 C1650 1.367 . S
C1651 C1653 1.433 1_556 S
C1652 C1648 1.350 . S
C1652 C1649 1.463 . S
C1652 N1656 1.427 . S
C1653 H1643 0.929 . S
C1653 C1651 1.433 1_554 S
C1653 N1656 1.384 1_554 S
C1654 H1645 0.929 . S
C1654 C1646 1.378 . S
C1654 C1649 1.350 . S
C1655 H1642 0.929 . S
C1655 C1647 1.433 . S
C1655 N1657 1.384 . S
N1656 C1652 1.427 . S
N1656 C1653 1.384 1_556 S
N1657 C1649 1.427 . S
N1657 C1655 1.384 . S
H1658 C1664 0.930 . S
H1659 C1668 0.930 . S
H1660 C1673 0.929 . S
H1661 C1671 0.929 . S
H1662 C1666 0.929 . S
H1663 C1672 0.929 . S
C1664 H1658 0.930 . S
C1664 C1665 1.367 . S
C1664 C1672 1.378 . S
C1665 C1664 1.367 . S
C1665 C1673 1.433 . S
C1666 H1662 0.929 . S
C1666 C1668 1.378 . S
C1666 C1670 1.350 . S
C1667 C1670 1.463 . S
C1667 C1672 1.350 . S
C1667 N1675 1.427 . S
C1668 H1659 0.930 . S
C1668 C1666 1.378 . S
C1668 C1669 1.367 . S
C1669 C1668 1.367 . S
C1669 C1671 1.433 . S
C1670 C1666 1.350 . S
C1670 C1667 1.463 . S
C1670 N1674 1.427 . S
C1671 H1661 0.929 . S
C1671 C1669 1.433 . S
C1671 N1674 1.384 . S
C1672 H1663 0.929 . S
C1672 C1664 1.378 . S
C1672 C1667 1.350 . S
C1673 H1660 0.929 . S
C1673 C1665 1.433 . S
C1673 N1675 1.384 . S
N1674 C1670 1.427 . S
N1674 C1671 1.384 . S
N1675 C1667 1.427 . S
N1675 C1673 1.384 . S
H1676 C1682 0.930 . S
H1677 C1686 0.930 . S
H1678 C1691 0.929 . S
H1679 C1689 0.929 1_655 S
H1680 C1684 0.929 . S
H1681 C1690 0.929 . S
C1682 H1676 0.930 . S
C1682 C1683 1.367 1_655 S
C1682 C1690 1.378 . S
C1683 C1682 1.367 1_455 S
C1683 C1691 1.433 . S
C1684 H1680 0.929 . S
C1684 C1686 1.378 . S
C1684 C1688 1.350 . S
C1685 C1688 1.463 . S
C1685 C1690 1.350 1_455 S
C1685 N1693 1.427 . S
C1686 H1677 0.930 . S
C1686 C1684 1.378 . S
C1686 C1687 1.367 . S
C1687 C1686 1.367 . S
C1687 C1689 1.433 . S
C1688 C1684 1.350 . S
C1688 C1685 1.463 . S
C1688 N1692 1.427 . S
C1689 H1679 0.929 1_455 S
C1689 C1687 1.433 . S
C1689 N1692 1.384 . S
C1690 H1681 0.929 . S
C1690 C1682 1.378 . S
C1690 C1685 1.350 1_655 S
C1691 H1678 0.929 . S
C1691 C1683 1.433 . S
C1691 N1693 1.384 . S
N1692 C1688 1.427 . S
N1692 C1689 1.384 . S
N1693 C1685 1.427 . S
N1693 C1691 1.384 . S
H1694 C1700 0.930 . S
H1695 C1704 0.930 . S
H1696 C1709 0.929 . S
H1697 C1707 0.929 . S
H1698 C1702 0.929 . S
H1699 C1708 0.929 . S
C1700 H1694 0.930 . S
C1700 C1701 1.367 . S
C1700 C1708 1.378 . S
C1701 C1700 1.367 . S
C1701 C1709 1.433 . S
C1702 H1698 0.929 . S
C1702 C1704 1.378 . S
C1702 C1706 1.350 . S
C1703 C1706 1.463 . S
C1703 C1708 1.350 . S
C1703 N1711 1.427 . S
C1704 H1695 0.930 . S
C1704 C1702 1.378 . S
C1704 C1705 1.367 . S
C1705 C1704 1.367 . S
C1705 C1707 1.433 . S
C1706 C1702 1.350 . S
C1706 C1703 1.463 . S
C1706 N1710 1.427 . S
C1707 H1697 0.929 . S
C1707 C1705 1.433 . S
C1707 N1710 1.384 . S
C1708 H1699 0.929 . S
C1708 C1700 1.378 . S
C1708 C1703 1.350 . S
C1709 H1696 0.929 . S
C1709 C1701 1.433 . S
C1709 N1711 1.384 . S
N1710 C1706 1.427 . S
N1710 C1707 1.384 . S
N1711 C1703 1.427 . S
N1711 C1709 1.384 . S
H1712 C1718 0.930 . S
H1713 C1722 0.930 . S
H1714 C1727 0.929 . S
H1715 C1725 0.929 . S
H1716 C1720 0.929 . S
H1717 C1726 0.929 . S
C1718 H1712 0.930 . S
C1718 C1719 1.367 . S
C1718 C1726 1.378 . S
C1719 C1718 1.367 . S
C1719 C1727 1.433 . S
C1720 H1716 0.929 . S
C1720 C1722 1.378 . S
C1720 C1724 1.350 . S
C1721 C1724 1.463 . S
C1721 C1726 1.350 . S
C1721 N1729 1.427 . S
C1722 H1713 0.930 . S
C1722 C1720 1.378 . S
C1722 C1723 1.367 . S
C1723 C1722 1.367 . S
C1723 C1725 1.433 . S
C1724 C1720 1.350 . S
C1724 C1721 1.463 . S
C1724 N1728 1.427 . S
C1725 H1715 0.929 . S
C1725 C1723 1.433 . S
C1725 N1728 1.384 . S
C1726 H1717 0.929 . S
C1726 C1718 1.378 . S
C1726 C1721 1.350 . S
C1727 H1714 0.929 . S
C1727 C1719 1.433 . S
C1727 N1729 1.384 . S
N1728 C1724 1.427 . S
N1728 C1725 1.384 . S
N1729 C1721 1.427 . S
N1729 C1727 1.384 . S
H1730 C1736 0.930 . S
H1731 C1740 0.930 . S
H1732 C1745 0.929 . S
H1733 C1743 0.929 . S
H1734 C1738 0.929 . S
H1735 C1744 0.929 . S
C1736 H1730 0.930 . S
C1736 C1737 1.367 . S
C1736 C1744 1.378 . S
C1737 C1736 1.367 . S
C1737 C1745 1.433 . S
C1738 H1734 0.929 . S
C1738 C1740 1.378 . S
C1738 C1742 1.350 . S
C1739 C1742 1.463 . S
C1739 C1744 1.350 . S
C1739 N1747 1.427 . S
C1740 H1731 0.930 . S
C1740 C1738 1.378 . S
C1740 C1741 1.367 . S
C1741 C1740 1.367 . S
C1741 C1743 1.433 . S
C1742 C1738 1.350 . S
C1742 C1739 1.463 . S
C1742 N1746 1.427 . S
C1743 H1733 0.929 . S
C1743 C1741 1.433 . S
C1743 N1746 1.384 . S
C1744 H1735 0.929 . S
C1744 C1736 1.378 . S
C1744 C1739 1.350 . S
C1745 H1732 0.929 . S
C1745 C1737 1.433 . S
C1745 N1747 1.384 . S
N1746 C1742 1.427 . S
N1746 C1743 1.384 . S
N1747 C1739 1.427 . S
N1747 C1745 1.384 . S
H1748 C1754 0.930 . S
H1749 C1758 0.962 . S
H1750 C1763 0.929 . S
H1751 C1761 0.929 . S
H1752 C1756 0.929 . S
H1753 C1762 0.929 . S
C1754 H1748 0.930 . S
C1754 C1755 1.367 . S
C1754 C1762 1.378 . S
C1755 C1754 1.367 . S
C1755 C1763 1.433 . S
C1756 H1752 0.929 . S
C1756 C1758 1.378 . S
C1756 C1760 1.350 . S
C1757 C1760 1.463 . S
C1757 C1762 1.350 . S
C1757 N1765 1.427 . S
C1758 H1749 0.962 . S
C1758 C1756 1.378 . S
C1758 C1759 1.367 . S
C1759 C1758 1.367 . S
C1759 C1761 1.433 . S
C1760 C1756 1.350 . S
C1760 C1757 1.463 . S
C1760 N1764 1.427 . S
C1761 H1751 0.929 . S
C1761 C1759 1.433 . S
C1761 N1764 1.384 . S
C1762 H1753 0.929 . S
C1762 C1754 1.378 . S
C1762 C1757 1.350 . S
C1763 H1750 0.929 . S
C1763 C1755 1.433 . S
C1763 N1765 1.384 . S
N1764 C1760 1.427 . S
N1764 C1761 1.384 . S
N1765 C1757 1.427 . S
N1765 C1763 1.384 . S
H1766 C1772 0.930 . S
H1767 C1776 0.930 . S
H1768 C1781 0.929 . S
H1769 C1779 0.929 . S
H1770 C1774 0.929 . S
H1771 C1780 0.929 . S
C1772 H1766 0.930 . S
C1772 C1773 1.367 . S
C1772 C1780 1.378 . S
C1773 C1772 1.367 . S
C1773 C1781 1.433 . S
C1774 H1770 0.929 . S
C1774 C1776 1.378 . S
C1774 C1778 1.350 . S
C1775 C1778 1.463 . S
C1775 C1780 1.350 . S
C1775 N1783 1.427 . S
C1776 H1767 0.930 . S
C1776 C1774 1.378 . S
C1776 C1777 1.367 . S
C1777 C1776 1.367 . S
C1777 C1779 1.433 . S
C1778 C1774 1.350 . S
C1778 C1775 1.463 . S
C1778 N1782 1.427 . S
C1779 H1769 0.929 . S
C1779 C1777 1.433 . S
C1779 N1782 1.384 . S
C1780 H1771 0.929 . S
C1780 C1772 1.378 . S
C1780 C1775 1.350 . S
C1781 H1768 0.929 . S
C1781 C1773 1.433 . S
C1781 N1783 1.384 . S
N1782 C1778 1.427 . S
N1782 C1779 1.384 . S
N1783 C1775 1.427 . S
N1783 C1781 1.384 . S
H1784 C1790 0.930 . S
H1785 C1794 0.930 . S
H1786 C1799 0.929 . S
H1787 C1797 0.929 . S
H1788 C1792 0.929 . S
H1789 C1798 0.929 . S
C1790 H1784 0.930 . S
C1790 C1791 1.367 . S
C1790 C1798 1.378 . S
C1791 C1790 1.367 . S
C1791 C1799 1.433 . S
C1792 H1788 0.929 . S
C1792 C1794 1.378 . S
C1792 C1796 1.350 . S
C1793 C1796 1.463 . S
C1793 C1798 1.350 . S
C1793 N1801 1.427 . S
C1794 H1785 0.930 . S
C1794 C1792 1.378 . S
C1794 C1795 1.367 . S
C1795 C1794 1.367 . S
C1795 C1797 1.433 . S
C1796 C1792 1.350 . S
C1796 C1793 1.463 . S
C1796 N1800 1.427 . S
C1797 H1787 0.929 . S
C1797 C1795 1.433 . S
C1797 N1800 1.384 . S
C1798 H1789 0.929 . S
C1798 C1790 1.378 . S
C1798 C1793 1.350 . S
C1799 H1786 0.929 . S
C1799 C1791 1.433 . S
C1799 N1801 1.384 . S
N1800 C1796 1.427 . S
N1800 C1797 1.384 . S
N1801 C1793 1.427 . S
N1801 C1799 1.384 . S
H1802 C1808 0.930 . S
H1803 C1812 0.930 . S
H1804 C1817 0.929 . S
H1805 C1815 0.929 . S
H1806 C1810 0.929 . S
H1807 C1816 0.929 . S
C1808 H1802 0.930 . S
C1808 C1809 1.367 . S
C1808 C1816 1.378 . S
C1809 C1808 1.367 . S
C1809 C1817 1.433 . S
C1810 H1806 0.929 . S
C1810 C1812 1.378 . S
C1810 C1814 1.350 . S
C1811 C1814 1.463 . S
C1811 C1816 1.350 . S
C1811 N1819 1.427 . S
C1812 H1803 0.930 . S
C1812 C1810 1.378 . S
C1812 C1813 1.367 . S
C1813 C1812 1.367 . S
C1813 C1815 1.433 . S
C1814 C1810 1.350 . S
C1814 C1811 1.463 . S
C1814 N1818 1.427 . S
C1815 H1805 0.929 . S
C1815 C1813 1.433 . S
C1815 N1818 1.384 . S
C1816 H1807 0.929 . S
C1816 C1808 1.378 . S
C1816 C1811 1.350 . S
C1817 H1804 0.929 . S
C1817 C1809 1.433 . S
C1817 N1819 1.384 . S
N1818 C1814 1.427 . S
N1818 C1815 1.384 . S
N1819 C1811 1.427 . S
N1819 C1817 1.384 . S
H1820 C1826 0.930 . S
H1821 C1830 0.930 . S
H1822 C1835 0.929 . S
H1823 C1833 0.929 . S
H1824 C1828 0.929 . S
H1825 C1834 0.929 . S
C1826 H1820 0.930 . S
C1826 C1827 1.367 . S
C1826 C1834 1.378 . S
C1827 C1826 1.367 . S
C1827 C1835 1.433 . S
C1828 H1824 0.929 . S
C1828 C1830 1.378 . S
C1828 C1832 1.350 . S
C1829 C1832 1.463 . S
C1829 C1834 1.350 . S
C1829 N1837 1.427 . S
C1830 H1821 0.930 . S
C1830 C1828 1.378 . S
C1830 C1831 1.367 . S
C1831 C1830 1.367 . S
C1831 C1833 1.433 . S
C1832 C1828 1.350 . S
C1832 C1829 1.463 . S
C1832 N1836 1.427 . S
C1833 H1823 0.929 . S
C1833 C1831 1.433 . S
C1833 N1836 1.384 . S
C1834 H1825 0.929 . S
C1834 C1826 1.378 . S
C1834 C1829 1.350 . S
C1835 H1822 0.929 . S
C1835 C1827 1.433 . S
C1835 N1837 1.384 . S
N1836 C1832 1.427 . S
N1836 C1833 1.384 . S
N1837 C1829 1.427 . S
N1837 C1835 1.384 . S
H1838 C1844 0.930 . S
H1839 C1848 0.930 . S
H1840 C1853 0.929 . S
H1841 C1851 0.929 . S
H1842 C1846 0.929 . S
H1843 C1852 0.929 . S
C1844 H1838 0.930 . S
C1844 C1845 1.367 . S
C1844 C1852 1.378 . S
C1845 C1844 1.367 . S
C1845 C1853 1.433 . S
C1846 H1842 0.929 . S
C1846 C1848 1.378 . S
C1846 C1850 1.350 . S
C1847 C1850 1.463 . S
C1847 C1852 1.350 . S
C1847 N1855 1.427 . S
C1848 H1839 0.930 . S
C1848 C1846 1.378 . S
C1848 C1849 1.367 . S
C1849 C1848 1.367 . S
C1849 C1851 1.433 . S
C1850 C1846 1.350 . S
C1850 C1847 1.463 . S
C1850 N1854 1.427 . S
C1851 H1841 0.929 . S
C1851 C1849 1.433 . S
C1851 N1854 1.384 . S
C1852 H1843 0.929 . S
C1852 C1844 1.378 . S
C1852 C1847 1.350 . S
C1853 H1840 0.929 . S
C1853 C1845 1.433 . S
C1853 N1855 1.384 . S
N1854 C1850 1.427 . S
N1854 C1851 1.384 . S
N1855 C1847 1.427 . S
N1855 C1853 1.384 . S
H1856 C1862 0.930 . S
H1857 C1866 0.930 . S
H1858 C1871 0.929 . S
H1859 C1869 0.929 . S
H1860 C1864 0.929 . S
H1861 C1870 0.929 . S
C1862 H1856 0.930 . S
C1862 C1863 1.367 . S
C1862 C1870 1.378 . S
C1863 C1862 1.367 . S
C1863 C1871 1.433 . S
C1864 H1860 0.929 . S
C1864 C1866 1.378 . S
C1864 C1868 1.350 . S
C1865 C1868 1.463 . S
C1865 C1870 1.350 . S
C1865 N1873 1.427 . S
C1866 H1857 0.930 . S
C1866 C1864 1.378 . S
C1866 C1867 1.367 . S
C1867 C1866 1.367 . S
C1867 C1869 1.433 . S
C1868 C1864 1.350 . S
C1868 C1865 1.463 . S
C1868 N1872 1.427 . S
C1869 H1859 0.929 . S
C1869 C1867 1.433 . S
C1869 N1872 1.384 . S
C1870 H1861 0.929 . S
C1870 C1862 1.378 . S
C1870 C1865 1.350 . S
C1871 H1858 0.929 . S
C1871 C1863 1.433 . S
C1871 N1873 1.384 . S
N1872 C1868 1.427 . S
N1872 C1869 1.384 . S
N1873 C1865 1.427 . S
N1873 C1871 1.384 . S
H1874 C1880 0.930 . S
H1875 C1884 0.930 . S
H1876 C1889 0.929 . S
H1877 C1887 0.929 . S
H1878 C1882 0.929 . S
H1879 C1888 0.929 . S
C1880 H1874 0.930 . S
C1880 C1881 1.367 . S
C1880 C1888 1.378 . S
C1881 C1880 1.367 . S
C1881 C1889 1.433 . S
C1882 H1878 0.929 . S
C1882 C1884 1.378 . S
C1882 C1886 1.350 . S
C1883 C1886 1.463 . S
C1883 C1888 1.350 . S
C1883 N1891 1.427 . S
C1884 H1875 0.930 . S
C1884 C1882 1.378 . S
C1884 C1885 1.367 . S
C1885 C1884 1.367 . S
C1885 C1887 1.433 . S
C1886 C1882 1.350 . S
C1886 C1883 1.463 . S
C1886 N1890 1.427 . S
C1887 H1877 0.929 . S
C1887 C1885 1.433 . S
C1887 N1890 1.384 . S
C1888 H1879 0.929 . S
C1888 C1880 1.378 . S
C1888 C1883 1.350 . S
C1889 H1876 0.929 . S
C1889 C1881 1.433 . S
C1889 N1891 1.384 . S
N1890 C1886 1.427 . S
N1890 C1887 1.384 . S
N1891 C1883 1.427 . S
N1891 C1889 1.384 . S
H1892 C1898 0.930 . S
H1893 C1902 0.930 . S
H1894 C1907 0.929 . S
H1895 C1905 0.929 . S
H1896 C1900 0.929 . S
H1897 C1906 0.929 . S
C1898 H1892 0.930 . S
C1898 C1899 1.367 . S
C1898 C1906 1.378 . S
C1899 C1898 1.367 . S
C1899 C1907 1.433 . S
C1900 H1896 0.929 . S
C1900 C1902 1.378 . S
C1900 C1904 1.350 . S
C1901 C1904 1.463 . S
C1901 C1906 1.350 . S
C1901 N1909 1.427 . S
C1902 H1893 0.930 . S
C1902 C1900 1.378 . S
C1902 C1903 1.367 . S
C1903 C1902 1.367 . S
C1903 C1905 1.433 . S
C1904 C1900 1.350 . S
C1904 C1901 1.463 . S
C1904 N1908 1.427 . S
C1905 H1895 0.929 . S
C1905 C1903 1.433 . S
C1905 N1908 1.384 . S
C1906 H1897 0.929 . S
C1906 C1898 1.378 . S
C1906 C1901 1.350 . S
C1907 H1894 0.929 . S
C1907 C1899 1.433 . S
C1907 N1909 1.384 . S
N1908 C1904 1.427 . S
N1908 C1905 1.384 . S
N1909 C1901 1.427 . S
N1909 C1907 1.384 . S
H1910 C1916 0.930 . S
H1911 C1920 0.930 . S
H1912 C1925 0.929 . S
H1913 C1923 0.929 . S
H1914 C1918 0.929 . S
H1915 C1924 0.929 . S
C1916 H1910 0.930 . S
C1916 C1917 1.367 . S
C1916 C1924 1.378 . S
C1917 C1916 1.367 . S
C1917 C1925 1.433 . S
C1918 H1914 0.929 . S
C1918 C1920 1.378 . S
C1918 C1922 1.350 . S
C1919 C1922 1.463 . S
C1919 C1924 1.350 . S
C1919 N1927 1.427 . S
C1920 H1911 0.930 . S
C1920 C1918 1.378 . S
C1920 C1921 1.367 . S
C1921 C1920 1.367 . S
C1921 C1923 1.433 . S
C1922 C1918 1.350 . S
C1922 C1919 1.463 . S
C1922 N1926 1.427 . S
C1923 H1913 0.929 . S
C1923 C1921 1.433 . S
C1923 N1926 1.384 . S
C1924 H1915 0.929 . S
C1924 C1916 1.378 . S
C1924 C1919 1.350 . S
C1925 H1912 0.929 . S
C1925 C1917 1.433 . S
C1925 N1927 1.384 . S
N1926 C1922 1.427 . S
N1926 C1923 1.384 . S
N1927 C1919 1.427 . S
N1927 C1925 1.384 . S
H1928 C1934 0.930 . S
H1929 C1938 0.930 . S
H1930 C1943 0.929 . S
H1931 C1941 0.929 . S
H1932 C1936 0.929 . S
H1933 C1942 0.929 . S
C1934 H1928 0.930 . S
C1934 C1935 1.367 . S
C1934 C1942 1.378 . S
C1935 C1934 1.367 . S
C1935 C1943 1.433 . S
C1936 H1932 0.929 . S
C1936 C1938 1.378 . S
C1936 C1940 1.350 . S
C1937 C1940 1.463 . S
C1937 C1942 1.350 . S
C1937 N1945 1.427 . S
C1938 H1929 0.930 . S
C1938 C1936 1.378 . S
C1938 C1939 1.367 . S
C1939 C1938 1.367 . S
C1939 C1941 1.433 . S
C1940 C1936 1.350 . S
C1940 C1937 1.463 . S
C1940 N1944 1.427 . S
C1941 H1931 0.929 . S
C1941 C1939 1.433 . S
C1941 N1944 1.384 . S
C1942 H1933 0.929 . S
C1942 C1934 1.378 . S
C1942 C1937 1.350 . S
C1943 H1930 0.929 . S
C1943 C1935 1.433 . S
C1943 N1945 1.384 . S
N1944 C1940 1.427 . S
N1944 C1941 1.384 . S
N1945 C1937 1.427 . S
N1945 C1943 1.384 . S
H1946 C1952 0.926 1_556 S
H1947 C1956 0.930 . S
H1948 C1961 0.929 . S
H1949 C1959 0.929 . S
H1950 C1954 0.929 . S
H1951 C1960 0.929 . S
C1952 H1946 0.926 1_554 S
C1952 C1953 1.373 . S
C1952 C1960 1.376 1_554 S
C1953 C1952 1.373 . S
C1953 C1961 1.433 . S
C1954 H1950 0.929 . S
C1954 C1956 1.378 . S
C1954 C1958 1.350 . S
C1955 C1958 1.463 . S
C1955 C1960 1.350 1_554 S
C1955 N1963 1.427 . S
C1956 H1947 0.930 . S
C1956 C1954 1.378 . S
C1956 C1957 1.361 1_554 S
C1957 C1956 1.361 1_556 S
C1957 C1959 1.438 . S
C1958 C1954 1.350 . S
C1958 C1955 1.463 . S
C1958 N1962 1.427 1_554 S
C1959 H1949 0.929 . S
C1959 C1957 1.438 . S
C1959 N1962 1.384 . S
C1960 H1951 0.929 . S
C1960 C1952 1.376 1_556 S
C1960 C1955 1.350 1_556 S
C1961 H1948 0.929 . S
C1961 C1953 1.433 . S
C1961 N1963 1.384 . S
N1962 C1958 1.427 1_556 S
N1962 C1959 1.384 . S
N1963 C1955 1.427 . S
N1963 C1961 1.384 . S
H1964 C1970 0.930 . S
H1965 C1974 0.930 . S
H1966 C1979 0.929 . S
H1967 C1977 0.929 . S
H1968 C1972 0.929 . S
H1969 C1978 0.929 . S
C1970 H1964 0.930 . S
C1970 C1971 1.367 . S
C1970 C1978 1.378 . S
C1971 C1970 1.367 . S
C1971 C1979 1.433 . S
C1972 H1968 0.929 . S
C1972 C1974 1.378 . S
C1972 C1976 1.350 . S
C1973 C1976 1.463 . S
C1973 C1978 1.350 . S
C1973 N1981 1.427 . S
C1974 H1965 0.930 . S
C1974 C1972 1.378 . S
C1974 C1975 1.367 . S
C1975 C1974 1.367 . S
C1975 C1977 1.433 . S
C1976 C1972 1.350 . S
C1976 C1973 1.463 . S
C1976 N1980 1.427 . S
C1977 H1967 0.929 . S
C1977 C1975 1.433 . S
C1977 N1980 1.384 . S
C1978 H1969 0.929 . S
C1978 C1970 1.378 . S
C1978 C1973 1.350 . S
C1979 H1966 0.929 . S
C1979 C1971 1.433 . S
C1979 N1981 1.384 . S
N1980 C1976 1.427 . S
N1980 C1977 1.384 . S
N1981 C1973 1.427 . S
N1981 C1979 1.384 . S
H1982 C1988 0.930 . S
H1983 C1992 0.930 . S
H1984 C1997 0.929 . S
H1985 C1995 0.929 . S
H1986 C1990 0.929 . S
H1987 C1996 0.929 . S
C1988 H1982 0.930 . S
C1988 C1989 1.367 . S
C1988 C1996 1.378 . S
C1989 C1988 1.367 . S
C1989 C1997 1.433 . S
C1990 H1986 0.929 . S
C1990 C1992 1.378 . S
C1990 C1994 1.350 . S
C1991 C1994 1.463 . S
C1991 C1996 1.350 . S
C1991 N1999 1.427 . S
C1992 H1983 0.930 . S
C1992 C1990 1.378 . S
C1992 C1993 1.367 . S
C1993 C1992 1.367 . S
C1993 C1995 1.433 . S
C1994 C1990 1.350 . S
C1994 C1991 1.463 . S
C1994 N1998 1.427 . S
C1995 H1985 0.929 . S
C1995 C1993 1.433 . S
C1995 N1998 1.384 . S
C1996 H1987 0.929 . S
C1996 C1988 1.378 . S
C1996 C1991 1.350 . S
C1997 H1984 0.929 . S
C1997 C1989 1.433 . S
C1997 N1999 1.384 . S
N1998 C1994 1.427 . S
N1998 C1995 1.384 . S
N1999 C1991 1.427 . S
N1999 C1997 1.384 . S
H2000 C2006 0.930 . S
H2001 C2010 0.930 . S
H2002 C2015 0.929 . S
H2003 C2013 0.929 . S
H2004 C2008 0.929 . S
H2005 C2014 0.929 . S
C2006 H2000 0.930 . S
C2006 C2007 1.367 . S
C2006 C2014 1.378 . S
C2007 C2006 1.367 . S
C2007 C2015 1.433 . S
C2008 H2004 0.929 . S
C2008 C2010 1.378 . S
C2008 C2012 1.350 . S
C2009 C2012 1.463 . S
C2009 C2014 1.350 . S
C2009 N2017 1.427 . S
C2010 H2001 0.930 . S
C2010 C2008 1.378 . S
C2010 C2011 1.367 . S
C2011 C2010 1.367 . S
C2011 C2013 1.433 . S
C2012 C2008 1.350 . S
C2012 C2009 1.463 . S
C2012 N2016 1.427 . S
C2013 H2003 0.929 . S
C2013 C2011 1.433 . S
C2013 N2016 1.384 . S
C2014 H2005 0.929 . S
C2014 C2006 1.378 . S
C2014 C2009 1.350 . S
C2015 H2002 0.929 . S
C2015 C2007 1.433 . S
C2015 N2017 1.384 . S
N2016 C2012 1.427 . S
N2016 C2013 1.384 . S
N2017 C2009 1.427 . S
N2017 C2015 1.384 . S
H2018 C2024 0.930 . S
H2019 C2028 0.930 . S
H2020 C2033 0.929 . S
H2021 C2031 0.929 . S
H2022 C2026 0.929 . S
H2023 C2032 0.929 . S
C2024 H2018 0.930 . S
C2024 C2025 1.367 . S
C2024 C2032 1.378 . S
C2025 C2024 1.367 . S
C2025 C2033 1.433 . S
C2026 H2022 0.929 . S
C2026 C2028 1.378 . S
C2026 C2030 1.350 . S
C2027 C2030 1.463 . S
C2027 C2032 1.350 . S
C2027 N2035 1.427 . S
C2028 H2019 0.930 . S
C2028 C2026 1.378 . S
C2028 C2029 1.367 . S
C2029 C2028 1.367 . S
C2029 C2031 1.433 . S
C2030 C2026 1.350 . S
C2030 C2027 1.463 . S
C2030 N2034 1.427 . S
C2031 H2021 0.929 . S
C2031 C2029 1.433 . S
C2031 N2034 1.384 . S
C2032 H2023 0.929 . S
C2032 C2024 1.378 . S
C2032 C2027 1.350 . S
C2033 H2020 0.929 . S
C2033 C2025 1.433 . S
C2033 N2035 1.384 . S
N2034 C2030 1.427 . S
N2034 C2031 1.384 . S
N2035 C2027 1.427 . S
N2035 C2033 1.384 . S
H2036 C2042 0.930 . S
H2037 C2046 0.930 . S
H2038 C2051 0.929 . S
H2039 C2049 0.929 . S
H2040 C2044 0.929 . S
H2041 C2050 0.929 . S
C2042 H2036 0.930 . S
C2042 C2043 1.367 1_655 S
C2042 C2050 1.378 . S
C2043 C2042 1.367 1_455 S
C2043 C2051 1.433 . S
C2044 H2040 0.929 . S
C2044 C2046 1.378 . S
C2044 C2048 1.350 1_455 S
C2045 C2048 1.463 . S
C2045 C2050 1.350 . S
C2045 N2053 1.427 1_655 S
C2046 H2037 0.930 . S
C2046 C2044 1.378 . S
C2046 C2047 1.367 1_455 S
C2047 C2046 1.367 1_655 S
C2047 C2049 1.433 . S
C2048 C2044 1.350 1_655 S
C2048 C2045 1.463 . S
C2048 N2052 1.427 . S
C2049 H2039 0.929 . S
C2049 C2047 1.433 . S
C2049 N2052 1.384 . S
C2050 H2041 0.929 . S
C2050 C2042 1.378 . S
C2050 C2045 1.350 . S
C2051 H2038 0.929 . S
C2051 C2043 1.433 . S
C2051 N2053 1.384 . S
N2052 C2048 1.427 . S
N2052 C2049 1.384 . S
N2053 C2045 1.427 1_455 S
N2053 C2051 1.384 . S
H2054 C2060 0.930 . S
H2055 C2064 0.930 . S
H2056 C2069 0.929 . S
H2057 C2067 0.929 . S
H2058 C2062 0.929 . S
H2059 C2068 0.929 . S
C2060 H2054 0.930 . S
C2060 C2061 1.367 . S
C2060 C2068 1.378 . S
C2061 C2060 1.367 . S
C2061 C2069 1.433 . S
C2062 H2058 0.929 . S
C2062 C2064 1.378 . S
C2062 C2066 1.350 . S
C2063 C2066 1.463 . S
C2063 C2068 1.350 . S
C2063 N2071 1.427 . S
C2064 H2055 0.930 . S
C2064 C2062 1.378 . S
C2064 C2065 1.367 . S
C2065 C2064 1.367 . S
C2065 C2067 1.433 . S
C2066 C2062 1.350 . S
C2066 C2063 1.463 . S
C2066 N2070 1.427 . S
C2067 H2057 0.929 . S
C2067 C2065 1.433 . S
C2067 N2070 1.384 . S
C2068 H2059 0.929 . S
C2068 C2060 1.378 . S
C2068 C2063 1.350 . S
C2069 H2056 0.929 . S
C2069 C2061 1.433 . S
C2069 N2071 1.384 . S
N2070 C2066 1.427 . S
N2070 C2067 1.384 . S
N2071 C2063 1.427 . S
N2071 C2069 1.384 . S
H2072 C2078 0.930 . S
H2073 C2082 0.930 . S
H2074 C2087 0.929 . S
H2075 C2085 0.929 . S
H2076 C2080 0.929 . S
H2077 C2086 0.929 . S
C2078 H2072 0.930 . S
C2078 C2079 1.367 . S
C2078 C2086 1.378 . S
C2079 C2078 1.367 . S
C2079 C2087 1.433 . S
C2080 H2076 0.929 . S
C2080 C2082 1.378 . S
C2080 C2084 1.350 . S
C2081 C2084 1.463 . S
C2081 C2086 1.350 . S
C2081 N2089 1.427 . S
C2082 H2073 0.930 . S
C2082 C2080 1.378 . S
C2082 C2083 1.367 . S
C2083 C2082 1.367 . S
C2083 C2085 1.433 . S
C2084 C2080 1.350 . S
C2084 C2081 1.463 . S
C2084 N2088 1.427 . S
C2085 H2075 0.929 . S
C2085 C2083 1.433 . S
C2085 N2088 1.384 . S
C2086 H2077 0.929 . S
C2086 C2078 1.378 . S
C2086 C2081 1.350 . S
C2087 H2074 0.929 . S
C2087 C2079 1.433 . S
C2087 N2089 1.384 . S
N2088 C2084 1.427 . S
N2088 C2085 1.384 . S
N2089 C2081 1.427 . S
N2089 C2087 1.384 . S
H2090 C2096 0.930 . S
H2091 C2100 0.930 . S
H2092 C2105 0.929 . S
H2093 C2103 0.929 . S
H2094 C2098 0.929 . S
H2095 C2104 0.929 . S
C2096 H2090 0.930 . S
C2096 C2097 1.367 . S
C2096 C2104 1.378 . S
C2097 C2096 1.367 . S
C2097 C2105 1.433 . S
C2098 H2094 0.929 . S
C2098 C2100 1.378 . S
C2098 C2102 1.350 . S
C2099 C2102 1.463 . S
C2099 C2104 1.350 . S
C2099 N2107 1.427 . S
C2100 H2091 0.930 . S
C2100 C2098 1.378 . S
C2100 C2101 1.367 . S
C2101 C2100 1.367 . S
C2101 C2103 1.433 . S
C2102 C2098 1.350 . S
C2102 C2099 1.463 . S
C2102 N2106 1.427 . S
C2103 H2093 0.929 . S
C2103 C2101 1.433 . S
C2103 N2106 1.384 . S
C2104 H2095 0.929 . S
C2104 C2096 1.378 . S
C2104 C2099 1.350 . S
C2105 H2092 0.929 . S
C2105 C2097 1.433 . S
C2105 N2107 1.384 . S
N2106 C2102 1.427 . S
N2106 C2103 1.384 . S
N2107 C2099 1.427 . S
N2107 C2105 1.384 . S
H2108 C2114 0.930 . S
H2109 C2118 0.930 . S
H2110 C2123 0.929 . S
H2111 C2121 0.929 . S
H2112 C2116 0.929 . S
H2113 C2122 0.929 . S
C2114 H2108 0.930 . S
C2114 C2115 1.367 . S
C2114 C2122 1.378 . S
C2115 C2114 1.367 . S
C2115 C2123 1.433 1_455 S
C2116 H2112 0.929 . S
C2116 C2118 1.378 . S
C2116 C2120 1.350 . S
C2117 C2120 1.465 . S
C2117 C2122 1.340 1_655 S
C2117 N2125 1.436 . S
C2118 H2109 0.930 . S
C2118 C2116 1.378 . S
C2118 C2119 1.367 . S
C2119 C2118 1.367 . S
C2119 C2121 1.433 1_655 S
C2120 C2116 1.350 . S
C2120 C2117 1.465 . S
C2120 N2124 1.427 1_655 S
C2121 H2111 0.929 . S
C2121 C2119 1.433 1_455 S
C2121 N2124 1.384 . S
C2122 H2113 0.929 . S
C2122 C2114 1.378 . S
C2122 C2117 1.340 1_455 S
C2123 H2110 0.929 . S
C2123 C2115 1.433 1_655 S
C2123 N2125 1.384 . S
N2124 C2120 1.427 1_455 S
N2124 C2121 1.384 . S
N2125 C2117 1.436 . S
N2125 C2123 1.384 . S
H2126 C2132 0.930 . S
H2127 C2136 0.930 . S
H2128 C2141 0.929 . S
H2129 C2139 0.929 . S
H2130 C2134 0.929 . S
H2131 C2140 0.929 . S
C2132 H2126 0.930 . S
C2132 C2133 1.367 . S
C2132 C2140 1.378 . S
C2133 C2132 1.367 . S
C2133 C2141 1.433 . S
C2134 H2130 0.929 . S
C2134 C2136 1.378 . S
C2134 C2138 1.350 . S
C2135 C2138 1.463 . S
C2135 C2140 1.350 . S
C2135 N2143 1.427 . S
C2136 H2127 0.930 . S
C2136 C2134 1.378 . S
C2136 C2137 1.367 . S
C2137 C2136 1.367 . S
C2137 C2139 1.433 . S
C2138 C2134 1.350 . S
C2138 C2135 1.463 . S
C2138 N2142 1.427 . S
C2139 H2129 0.929 . S
C2139 C2137 1.433 . S
C2139 N2142 1.384 . S
C2140 H2131 0.929 . S
C2140 C2132 1.378 . S
C2140 C2135 1.350 . S
C2141 H2128 0.929 . S
C2141 C2133 1.433 . S
C2141 N2143 1.384 . S
N2142 C2138 1.427 . S
N2142 C2139 1.384 . S
N2143 C2135 1.427 . S
N2143 C2141 1.384 . S
H2144 C2150 0.930 . S
H2145 C2154 0.930 . S
H2146 C2159 0.929 . S
H2147 C2157 0.929 . S
H2148 C2152 0.929 . S
H2149 C2158 0.929 . S
C2150 H2144 0.930 . S
C2150 C2151 1.367 . S
C2150 C2158 1.378 . S
C2151 C2150 1.367 . S
C2151 C2159 1.433 . S
C2152 H2148 0.929 . S
C2152 C2154 1.378 . S
C2152 C2156 1.350 . S
C2153 C2156 1.463 . S
C2153 C2158 1.350 . S
C2153 N2161 1.427 . S
C2154 H2145 0.930 . S
C2154 C2152 1.378 . S
C2154 C2155 1.367 . S
C2155 C2154 1.367 . S
C2155 C2157 1.433 . S
C2156 C2152 1.350 . S
C2156 C2153 1.463 . S
C2156 N2160 1.427 . S
C2157 H2147 0.929 . S
C2157 C2155 1.433 . S
C2157 N2160 1.384 . S
C2158 H2149 0.929 . S
C2158 C2150 1.378 . S
C2158 C2153 1.350 . S
C2159 H2146 0.929 . S
C2159 C2151 1.433 . S
C2159 N2161 1.384 . S
N2160 C2156 1.427 . S
N2160 C2157 1.384 . S
N2161 C2153 1.427 . S
N2161 C2159 1.384 . S
H2162 C2168 0.930 . S
H2163 C2172 0.930 . S
H2164 C2177 0.929 . S
H2165 C2175 0.929 . S
H2166 C2170 0.929 . S
H2167 C2176 0.929 . S
C2168 H2162 0.930 . S
C2168 C2169 1.367 . S
C2168 C2176 1.378 . S
C2169 C2168 1.367 . S
C2169 C2177 1.433 . S
C2170 H2166 0.929 . S
C2170 C2172 1.378 . S
C2170 C2174 1.350 . S
C2171 C2174 1.463 . S
C2171 C2176 1.350 . S
C2171 N2179 1.427 . S
C2172 H2163 0.930 . S
C2172 C2170 1.378 . S
C2172 C2173 1.367 . S
C2173 C2172 1.367 . S
C2173 C2175 1.433 . S
C2174 C2170 1.350 . S
C2174 C2171 1.463 . S
C2174 N2178 1.427 . S
C2175 H2165 0.929 . S
C2175 C2173 1.433 . S
C2175 N2178 1.384 . S
C2176 H2167 0.929 . S
C2176 C2168 1.378 . S
C2176 C2171 1.350 . S
C2177 H2164 0.929 . S
C2177 C2169 1.433 . S
C2177 N2179 1.384 . S
N2178 C2174 1.427 . S
N2178 C2175 1.384 . S
N2179 C2171 1.427 . S
N2179 C2177 1.384 . S
H2180 C2186 0.930 . S
H2181 C2190 0.930 . S
H2182 C2195 0.929 . S
H2183 C2193 0.929 . S
H2184 C2188 0.929 . S
H2185 C2194 0.929 . S
C2186 H2180 0.930 . S
C2186 C2187 1.367 . S
C2186 C2194 1.378 . S
C2187 C2186 1.367 . S
C2187 C2195 1.433 . S
C2188 H2184 0.929 . S
C2188 C2190 1.378 . S
C2188 C2192 1.350 . S
C2189 C2192 1.463 . S
C2189 C2194 1.350 . S
C2189 N2197 1.427 . S
C2190 H2181 0.930 . S
C2190 C2188 1.378 . S
C2190 C2191 1.367 . S
C2191 C2190 1.367 . S
C2191 C2193 1.433 . S
C2192 C2188 1.350 . S
C2192 C2189 1.463 . S
C2192 N2196 1.427 . S
C2193 H2183 0.929 . S
C2193 C2191 1.433 . S
C2193 N2196 1.384 . S
C2194 H2185 0.929 . S
C2194 C2186 1.378 . S
C2194 C2189 1.350 . S
C2195 H2182 0.929 . S
C2195 C2187 1.433 . S
C2195 N2197 1.384 . S
N2196 C2192 1.427 . S
N2196 C2193 1.384 . S
N2197 C2189 1.427 . S
N2197 C2195 1.384 . S
H2198 C2204 0.930 . S
H2199 C2208 0.930 . S
H2200 C2213 0.929 . S
H2201 C2211 0.929 . S
H2202 C2206 0.929 . S
H2203 C2212 0.929 . S
C2204 H2198 0.930 . S
C2204 C2205 1.367 . S
C2204 C2212 1.378 . S
C2205 C2204 1.367 . S
C2205 C2213 1.433 . S
C2206 H2202 0.929 . S
C2206 C2208 1.378 . S
C2206 C2210 1.350 . S
C2207 C2210 1.463 . S
C2207 C2212 1.350 . S
C2207 N2215 1.427 . S
C2208 H2199 0.930 . S
C2208 C2206 1.378 . S
C2208 C2209 1.367 . S
C2209 C2208 1.367 . S
C2209 C2211 1.433 . S
C2210 C2206 1.350 . S
C2210 C2207 1.463 . S
C2210 N2214 1.427 . S
C2211 H2201 0.929 . S
C2211 C2209 1.433 . S
C2211 N2214 1.384 . S
C2212 H2203 0.929 . S
C2212 C2204 1.378 . S
C2212 C2207 1.350 . S
C2213 H2200 0.929 . S
C2213 C2205 1.433 . S
C2213 N2215 1.384 . S
N2214 C2210 1.427 . S
N2214 C2211 1.384 . S
N2215 C2207 1.427 . S
N2215 C2213 1.384 . S
H2216 C2222 0.930 . S
H2217 C2226 0.930 . S
H2218 C2231 0.929 . S
H2219 C2229 0.929 . S
H2220 C2224 0.929 . S
H2221 C2230 0.929 . S
C2222 H2216 0.930 . S
C2222 C2223 1.367 . S
C2222 C2230 1.378 . S
C2223 C2222 1.367 . S
C2223 C2231 1.433 . S
C2224 H2220 0.929 . S
C2224 C2226 1.378 . S
C2224 C2228 1.350 . S
C2225 C2228 1.463 . S
C2225 C2230 1.350 . S
C2225 N2233 1.427 . S
C2226 H2217 0.930 . S
C2226 C2224 1.378 . S
C2226 C2227 1.367 . S
C2227 C2226 1.367 . S
C2227 C2229 1.433 . S
C2228 C2224 1.350 . S
C2228 C2225 1.463 . S
C2228 N2232 1.427 . S
C2229 H2219 0.929 . S
C2229 C2227 1.433 . S
C2229 N2232 1.384 . S
C2230 H2221 0.929 . S
C2230 C2222 1.378 . S
C2230 C2225 1.350 . S
C2231 H2218 0.929 . S
C2231 C2223 1.433 . S
C2231 N2233 1.384 . S
N2232 C2228 1.427 . S
N2232 C2229 1.384 . S
N2233 C2225 1.427 . S
N2233 C2231 1.384 . S
H2234 C2240 0.930 . S
H2235 C2244 0.930 . S
H2236 C2249 0.929 . S
H2237 C2247 0.929 . S
H2238 C2242 0.929 . S
H2239 C2248 0.929 . S
C2240 H2234 0.930 . S
C2240 C2241 1.367 . S
C2240 C2248 1.378 . S
C2241 C2240 1.367 . S
C2241 C2249 1.433 . S
C2242 H2238 0.929 . S
C2242 C2244 1.378 . S
C2242 C2246 1.350 . S
C2243 C2246 1.463 . S
C2243 C2248 1.350 . S
C2243 N2251 1.427 . S
C2244 H2235 0.930 . S
C2244 C2242 1.378 . S
C2244 C2245 1.367 . S
C2245 C2244 1.367 . S
C2245 C2247 1.433 . S
C2246 C2242 1.350 . S
C2246 C2243 1.463 . S
C2246 N2250 1.427 . S
C2247 H2237 0.929 . S
C2247 C2245 1.433 . S
C2247 N2250 1.384 . S
C2248 H2239 0.929 . S
C2248 C2240 1.378 . S
C2248 C2243 1.350 . S
C2249 H2236 0.929 . S
C2249 C2241 1.433 . S
C2249 N2251 1.384 . S
N2250 C2246 1.427 . S
N2250 C2247 1.384 . S
N2251 C2243 1.427 . S
N2251 C2249 1.384 . S
H2252 C2258 0.930 . S
H2253 C2262 0.930 . S
H2254 C2267 0.929 . S
H2255 C2265 0.929 . S
H2256 C2260 0.929 . S
H2257 C2266 0.929 . S
C2258 H2252 0.930 . S
C2258 C2259 1.367 . S
C2258 C2266 1.378 . S
C2259 C2258 1.367 . S
C2259 C2267 1.433 . S
C2260 H2256 0.929 . S
C2260 C2262 1.378 . S
C2260 C2264 1.350 . S
C2261 C2264 1.463 . S
C2261 C2266 1.350 . S
C2261 N2269 1.427 . S
C2262 H2253 0.930 . S
C2262 C2260 1.378 . S
C2262 C2263 1.367 . S
C2263 C2262 1.367 . S
C2263 C2265 1.433 . S
C2264 C2260 1.350 . S
C2264 C2261 1.463 . S
C2264 N2268 1.427 . S
C2265 H2255 0.929 . S
C2265 C2263 1.433 . S
C2265 N2268 1.384 . S
C2266 H2257 0.929 . S
C2266 C2258 1.378 . S
C2266 C2261 1.350 . S
C2267 H2254 0.929 . S
C2267 C2259 1.433 . S
C2267 N2269 1.384 . S
N2268 C2264 1.427 . S
N2268 C2265 1.384 . S
N2269 C2261 1.427 . S
N2269 C2267 1.384 . S
H2270 C2276 0.930 . S
H2271 C2280 0.930 . S
H2272 C2285 0.929 . S
H2273 C2283 0.929 . S
H2274 C2278 0.929 . S
H2275 C2284 0.929 . S
C2276 H2270 0.930 . S
C2276 C2277 1.367 . S
C2276 C2284 1.378 . S
C2277 C2276 1.367 . S
C2277 C2285 1.433 . S
C2278 H2274 0.929 . S
C2278 C2280 1.378 . S
C2278 C2282 1.350 . S
C2279 C2282 1.463 . S
C2279 C2284 1.350 . S
C2279 N2287 1.427 . S
C2280 H2271 0.930 . S
C2280 C2278 1.378 . S
C2280 C2281 1.367 . S
C2281 C2280 1.367 . S
C2281 C2283 1.433 . S
C2282 C2278 1.350 . S
C2282 C2279 1.463 . S
C2282 N2286 1.427 . S
C2283 H2273 0.929 . S
C2283 C2281 1.433 . S
C2283 N2286 1.384 . S
C2284 H2275 0.929 . S
C2284 C2276 1.378 . S
C2284 C2279 1.350 . S
C2285 H2272 0.929 . S
C2285 C2277 1.433 . S
C2285 N2287 1.384 . S
N2286 C2282 1.427 . S
N2286 C2283 1.384 . S
N2287 C2279 1.427 . S
N2287 C2285 1.384 . S
H2288 C2294 0.930 . S
H2289 C2298 0.930 . S
H2290 C2303 0.929 . S
H2291 C2301 0.929 . S
H2292 C2296 0.929 . S
H2293 C2302 0.929 . S
C2294 H2288 0.930 . S
C2294 C2295 1.367 . S
C2294 C2302 1.378 . S
C2295 C2294 1.367 . S
C2295 C2303 1.433 . S
C2296 H2292 0.929 . S
C2296 C2298 1.378 . S
C2296 C2300 1.350 . S
C2297 C2300 1.463 . S
C2297 C2302 1.350 . S
C2297 N2305 1.427 . S
C2298 H2289 0.930 . S
C2298 C2296 1.378 . S
C2298 C2299 1.367 . S
C2299 C2298 1.367 . S
C2299 C2301 1.433 . S
C2300 C2296 1.350 . S
C2300 C2297 1.463 . S
C2300 N2304 1.427 . S
C2301 H2291 0.929 . S
C2301 C2299 1.433 . S
C2301 N2304 1.384 . S
C2302 H2293 0.929 . S
C2302 C2294 1.378 . S
C2302 C2297 1.350 . S
C2303 H2290 0.929 . S
C2303 C2295 1.433 . S
C2303 N2305 1.384 . S
N2304 C2300 1.427 . S
N2304 C2301 1.384 . S
N2305 C2297 1.427 . S
N2305 C2303 1.384 . S
H2306 C2312 0.930 . S
H2307 C2316 0.930 . S
H2308 C2321 0.929 . S
H2309 C2319 0.929 . S
H2310 C2314 0.929 . S
H2311 C2320 0.929 . S
C2312 H2306 0.930 . S
C2312 C2313 1.367 . S
C2312 C2320 1.378 . S
C2313 C2312 1.367 . S
C2313 C2321 1.433 . S
C2314 H2310 0.929 . S
C2314 C2316 1.378 . S
C2314 C2318 1.350 . S
C2315 C2318 1.463 . S
C2315 C2320 1.350 . S
C2315 N2323 1.427 . S
C2316 H2307 0.930 . S
C2316 C2314 1.378 . S
C2316 C2317 1.367 . S
C2317 C2316 1.367 . S
C2317 C2319 1.433 . S
C2318 C2314 1.350 . S
C2318 C2315 1.463 . S
C2318 N2322 1.427 . S
C2319 H2309 0.929 . S
C2319 C2317 1.433 . S
C2319 N2322 1.384 . S
C2320 H2311 0.929 . S
C2320 C2312 1.378 . S
C2320 C2315 1.350 . S
C2321 H2308 0.929 . S
C2321 C2313 1.433 . S
C2321 N2323 1.384 . S
N2322 C2318 1.427 . S
N2322 C2319 1.384 . S
N2323 C2315 1.427 . S
N2323 C2321 1.384 . S
H2324 C2330 0.930 . S
H2325 C2334 0.930 . S
H2326 C2339 0.929 . S
H2327 C2337 0.929 . S
H2328 C2332 0.929 . S
H2329 C2338 0.929 . S
C2330 H2324 0.930 . S
C2330 C2331 1.367 . S
C2330 C2338 1.378 . S
C2331 C2330 1.367 . S
C2331 C2339 1.433 . S
C2332 H2328 0.929 . S
C2332 C2334 1.378 . S
C2332 C2336 1.350 . S
C2333 C2336 1.463 . S
C2333 C2338 1.350 . S
C2333 N2341 1.427 . S
C2334 H2325 0.930 . S
C2334 C2332 1.378 . S
C2334 C2335 1.367 . S
C2335 C2334 1.367 . S
C2335 C2337 1.433 . S
C2336 C2332 1.350 . S
C2336 C2333 1.463 . S
C2336 N2340 1.427 . S
C2337 H2327 0.929 . S
C2337 C2335 1.433 . S
C2337 N2340 1.384 . S
C2338 H2329 0.929 . S
C2338 C2330 1.378 . S
C2338 C2333 1.350 . S
C2339 H2326 0.929 . S
C2339 C2331 1.433 . S
C2339 N2341 1.384 . S
N2340 C2336 1.427 . S
N2340 C2337 1.384 . S
N2341 C2333 1.427 . S
N2341 C2339 1.384 . S
H2342 C2348 0.930 . S
H2343 C2352 0.930 . S
H2344 C2357 0.929 . S
H2345 C2355 0.929 1_554 S
H2346 C2350 0.929 . S
H2347 C2356 0.929 . S
C2348 H2342 0.930 . S
C2348 C2349 1.367 . S
C2348 C2356 1.378 . S
C2349 C2348 1.367 . S
C2349 C2357 1.433 1_554 S
C2350 H2346 0.929 . S
C2350 C2352 1.378 . S
C2350 C2354 1.350 . S
C2351 C2354 1.463 . S
C2351 C2356 1.350 1_556 S
C2351 N2359 1.427 . S
C2352 H2343 0.930 . S
C2352 C2350 1.378 . S
C2352 C2353 1.367 . S
C2353 C2352 1.367 . S
C2353 C2355 1.433 . S
C2354 C2350 1.350 . S
C2354 C2351 1.463 . S
C2354 N2358 1.417 1_556 S
C2355 H2345 0.929 1_556 S
C2355 C2353 1.433 . S
C2355 N2358 1.380 1_556 S
C2356 H2347 0.929 . S
C2356 C2348 1.378 . S
C2356 C2351 1.350 1_554 S
C2357 H2344 0.929 . S
C2357 C2349 1.433 1_556 S
C2357 N2359 1.384 . S
N2358 C2354 1.417 1_554 S
N2358 C2355 1.380 1_554 S
N2359 C2351 1.427 . S
N2359 C2357 1.384 . S
H2360 C2366 0.930 . S
H2361 C2370 0.930 . S
H2362 C2375 0.929 . S
H2363 C2373 0.929 . S
H2364 C2368 0.929 . S
H2365 C2374 0.929 . S
C2366 H2360 0.930 . S
C2366 C2367 1.367 . S
C2366 C2374 1.378 . S
C2367 C2366 1.367 . S
C2367 C2375 1.433 . S
C2368 H2364 0.929 . S
C2368 C2370 1.378 . S
C2368 C2372 1.350 . S
C2369 C2372 1.463 . S
C2369 C2374 1.350 . S
C2369 N2377 1.427 . S
C2370 H2361 0.930 . S
C2370 C2368 1.378 . S
C2370 C2371 1.367 . S
C2371 C2370 1.367 . S
C2371 C2373 1.433 . S
C2372 C2368 1.350 . S
C2372 C2369 1.463 . S
C2372 N2376 1.427 . S
C2373 H2363 0.929 . S
C2373 C2371 1.433 . S
C2373 N2376 1.384 . S
C2374 H2365 0.929 . S
C2374 C2366 1.378 . S
C2374 C2369 1.350 . S
C2375 H2362 0.929 . S
C2375 C2367 1.433 . S
C2375 N2377 1.384 . S
N2376 C2372 1.427 . S
N2376 C2373 1.384 . S
N2377 C2369 1.427 . S
N2377 C2375 1.384 . S
H2378 C2384 0.930 . S
H2379 C2388 0.930 1_556 S
H2380 C2393 0.929 . S
H2381 C2391 0.929 . S
H2382 C2386 0.929 1_556 S
H2383 C2392 0.929 . S
C2384 H2378 0.930 . S
C2384 C2385 1.367 . S
C2384 C2392 1.378 . S
C2385 C2384 1.367 . S
C2385 C2393 1.433 1_554 S
C2386 H2382 0.929 1_554 S
C2386 C2388 1.378 . S
C2386 C2390 1.350 . S
C2387 C2390 1.463 . S
C2387 C2392 1.350 . S
C2387 N2395 1.427 1_554 S
C2388 H2379 0.930 1_554 S
C2388 C2386 1.378 . S
C2388 C2389 1.367 . S
C2389 C2388 1.367 . S
C2389 C2391 1.433 . S
C2390 C2386 1.350 . S
C2390 C2387 1.463 . S
C2390 N2394 1.427 . S
C2391 H2381 0.929 . S
C2391 C2389 1.433 . S
C2391 N2394 1.384 . S
C2392 H2383 0.929 . S
C2392 C2384 1.378 . S
C2392 C2387 1.350 . S
C2393 H2380 0.929 . S
C2393 C2385 1.433 1_556 S
C2393 N2395 1.384 . S
N2394 C2390 1.427 . S
N2394 C2391 1.384 . S
N2395 C2387 1.427 1_556 S
N2395 C2393 1.384 . S
H2396 C2402 0.930 . S
H2397 C2406 0.930 . S
H2398 C2411 0.929 . S
H2399 C2409 0.929 . S
H2400 C2404 0.929 . S
H2401 C2410 0.929 . S
C2402 H2396 0.930 . S
C2402 C2403 1.367 . S
C2402 C2410 1.378 . S
C2403 C2402 1.367 . S
C2403 C2411 1.433 . S
C2404 H2400 0.929 . S
C2404 C2406 1.378 . S
C2404 C2408 1.350 . S
C2405 C2408 1.463 . S
C2405 C2410 1.350 . S
C2405 N2413 1.427 . S
C2406 H2397 0.930 . S
C2406 C2404 1.378 . S
C2406 C2407 1.367 . S
C2407 C2406 1.367 . S
C2407 C2409 1.433 . S
C2408 C2404 1.350 . S
C2408 C2405 1.463 . S
C2408 N2412 1.427 . S
C2409 H2399 0.929 . S
C2409 C2407 1.433 . S
C2409 N2412 1.384 . S
C2410 H2401 0.929 . S
C2410 C2402 1.378 . S
C2410 C2405 1.350 . S
C2411 H2398 0.929 . S
C2411 C2403 1.433 . S
C2411 N2413 1.384 . S
N2412 C2408 1.427 . S
N2412 C2409 1.384 . S
N2413 C2405 1.427 . S
N2413 C2411 1.384 . S
H2414 C2420 0.930 . S
H2415 C2424 0.930 . S
H2416 C2429 0.929 . S
H2417 C2427 0.929 . S
H2418 C2422 0.929 . S
H2419 C2428 0.929 . S
C2420 H2414 0.930 . S
C2420 C2421 1.367 . S
C2420 C2428 1.378 . S
C2421 C2420 1.367 . S
C2421 C2429 1.433 . S
C2422 H2418 0.929 . S
C2422 C2424 1.378 . S
C2422 C2426 1.350 . S
C2423 C2426 1.463 . S
C2423 C2428 1.350 . S
C2423 N2431 1.427 . S
C2424 H2415 0.930 . S
C2424 C2422 1.378 . S
C2424 C2425 1.367 . S
C2425 C2424 1.367 . S
C2425 C2427 1.433 . S
C2426 C2422 1.350 . S
C2426 C2423 1.463 . S
C2426 N2430 1.427 . S
C2427 H2417 0.929 . S
C2427 C2425 1.433 . S
C2427 N2430 1.384 . S
C2428 H2419 0.929 . S
C2428 C2420 1.378 . S
C2428 C2423 1.350 . S
C2429 H2416 0.929 . S
C2429 C2421 1.433 . S
C2429 N2431 1.384 . S
N2430 C2426 1.427 . S
N2430 C2427 1.384 . S
N2431 C2423 1.427 . S
N2431 C2429 1.384 . S
C715 C352 1.150 . S
C711 C5 1.167 . S
C729 C23 1.434 . S
C733 C380 1.332 . S
C747 C39 1.114 . S
C751 C398 1.099 . S
C769 C424 1.330 . S
C765 C42 1.447 . S
C783 C19 1.485 . S
C787 C447 1.334 . S
C805 C467 1.128 . S
C801 C28 1.137 . S
C823 C495 1.310 1_556 S
C819 C53 1.403 . S
C837 C9 1.129 . S
C841 C513 1.109 . S
C855 C65 1.424 . S
C859 C354 1.430 . S
C873 C75 1.120 . S
C877 C376 1.102 . S
C895 C400 1.447 . S
C891 C93 1.448 . S
C913 C421 1.081 . S
C909 C109 1.096 . S
C927 C56 1.148 . S
C931 C444 1.144 . S
C949 C469 1.337 . S
C945 C81 1.326 . S
C967 C491 1.121 . S
C963 C84 1.128 . S
C985 C515 1.391 . S
C981 C103 1.392 . S
C1003 C355 0.967 1_556 S
C999 C107 1.027 . S
C1021 C538 1.212 . S
C1017 C121 1.203 . S
C1035 C131 1.128 . S
C1039 C562 1.025 . S
C1057 C586 1.161 . S
C1053 C140 1.186 . S
C1071 C61 1.073 . S
C1075 C516 0.981 . S
C1093 C401 0.967 . S
C1089 C70 1.043 . S
C1107 C137 1.143 . S
C1111 C607 1.149 . S
C1129 C632 1.088 . S
C1125 C165 1.110 . S
C1143 C173 1.161 . S
C1147 C353 1.143 . S
C1165 C630 1.032 . S
C1161 C182 1.033 . S
C1179 C207 1.120 . S
C1183 C399 1.110 . S
C1197 C219 0.999 . S
C1201 C609 0.980 . S
C1219 C448 1.001 . S
C1215 C187 1.026 . S
C1237 C560 1.128 . S
C1233 C205 1.153 . S
C1255 C492 1.030 . S
C1251 C221 1.026 . S
C1273 C652 1.116 . S
C1269 C168 1.128 . S
C1291 C357 0.978 . S
C1287 C224 1.021 . S
C1305 C243 1.329 . S
C1309 C628 1.304 . S
C1327 C403 0.982 . S
C1323 C252 1.037 . S
C1341 C277 1.263 . S
C1345 C606 1.242 . S
C1359 C233 1.361 . S
C1363 C445 1.331 . S
C1377 C249 0.946 . S
C1381 C564 0.899 . S
C1399 C490 1.350 . S
C1395 C261 1.374 1_545 S
C1413 C271 0.996 . S
C1417 C656 0.952 . S
C1431 C266 1.328 . S
C1435 C356 1.270 . S
C1449 C280 1.250 . S
C1453 C541 1.165 . S
C1467 C299 1.378 . S
C1471 C471 1.322 . S
C1485 C317 1.282 . S
C1489 C585 1.156 . S
C1507 C655 1.312 . S
C1503 C229 1.364 . S
C1525 C402 1.297 . S
C1521 C247 1.343 . S
C1543 C426 1.129 . S
C1539 C305 1.213 . S
C1561 C378 1.124 . S
C1557 C333 1.212 . S
C1575 C33 1.165 . S
C1579 C674 1.144 . S
C1597 C633 1.319 . S
C1593 C51 1.432 . S
C1615 C697 1.093 . S
C1611 C11 1.112 . S
C1629 C14 1.445 . S
C1633 C608 1.326 . S
C1647 C47 1.485 . S
C1651 C539 1.337 1_556 S
C1669 C559 1.130 . S
C1665 C0 1.140 . S
C1687 C587 1.298 . S
C1683 C25 1.398 . S
C1705 C651 1.123 . S
C1701 C37 1.134 . S
C1723 C676 1.426 . S
C1719 C163 1.429 . S
C1737 C117 1.122 . S
C1741 C629 1.108 . S
C1755 C135 1.446 . S
C1759 C699 1.449 . S
C1777 C605 1.089 . S
C1773 C151 1.094 . S
C1795 C536 1.145 . S
C1791 C154 1.149 . S
C1809 C123 1.320 . S
C1813 C561 1.332 . S
C1831 C583 1.108 . S
C1827 C126 1.118 . S
C1845 C145 1.393 . S
C1849 C653 1.391 . S
C1867 C677 0.959 . S
C1863 C149 1.029 . S
C1885 C446 1.212 . S
C1881 C79 1.203 . S
C1903 C470 1.050 . S
C1899 C89 1.133 . S
C1917 C98 1.185 . S
C1921 C494 1.169 . S
C1939 C654 1.013 . S
C1935 C159 1.079 . S
C1953 C112 1.042 . S
C1957 C700 0.957 1_556 S
C1975 C423 1.147 . S
C1971 C95 1.145 . S
C1993 C379 1.094 . S
C1989 C67 1.111 . S
C2007 C201 1.162 . S
C2011 C675 1.139 . S
C2029 C377 1.035 . S
C2025 C210 1.031 . S
C2047 C698 1.096 . S
C2043 C179 1.115 . S
C2061 C191 1.001 . S
C2065 C425 0.985 . S
C2079 C215 1.031 . S
C2083 C540 1.003 . S
C2097 C177 1.153 . S
C2101 C468 1.129 . S
C2115 C193 1.030 . S
C2119 C584 1.025 . S
C2133 C196 1.127 . S
C2137 C514 1.107 . S
C2155 C679 0.953 . S
C2151 C322 1.023 . S
C2169 C285 1.324 . S
C2173 C375 1.292 . S
C2191 C702 0.986 . S
C2187 C294 1.034 . S
C2205 C319 1.258 . S
C2209 C422 1.227 . S
C2223 C331 1.361 . S
C2227 C537 1.333 . S
C2245 C472 0.904 . S
C2241 C291 0.938 . S
C2259 C303 1.381 . S
C2263 C582 1.350 . S
C2281 C518 0.952 . S
C2277 C313 0.996 . S
C2299 C678 1.277 . S
C2295 C308 1.316 . S
C2317 C449 1.181 . S
C2313 C238 1.247 . S
C2331 C257 1.377 . S
C2335 C563 1.317 . S
C2353 C493 1.173 . S
C2349 C275 1.283 . S
C2371 C517 1.313 . S
C2367 C327 1.364 . S
C2385 C289 1.341 . S
C2389 C701 1.288 . S
C2407 C610 1.131 . S
C2403 C263 1.217 . S
C2425 C631 1.102 . S
C2421 C235 1.206 . S
