# Generated by pormake.
# Topology ibd, (4,6)-cn, num edge types: 1
# Building blocks:
#     Node 0, Type 0, BuildingBlock: NAHDIM_clean_sbu_0, # of connection points: 4
#     Node 1, Type 0, BuildingBlock: NAHDIM_clean_sbu_0, # of connection points: 4
#     Node 2, Type 0, BuildingBlock: NAHDIM_clean_sbu_0, # of connection points: 4
#     Node 3, Type 0, BuildingBlock: NAHDIM_clean_sbu_0, # of connection points: 4
#     Node 4, Type 0, BuildingBlock: NAHDIM_clean_sbu_0, # of connection points: 4
#     Node 5, Type 0, BuildingBlock: NAHDIM_clean_sbu_0, # of connection points: 4
#     Node 6, Type 0, BuildingBlock: NAHDIM_clean_sbu_0, # of connection points: 4
#     Node 7, Type 0, BuildingBlock: NAHDIM_clean_sbu_0, # of connection points: 4
#     Node 8, Type 0, BuildingBlock: NAHDIM_clean_sbu_0, # of connection points: 4
#     Node 9, Type 0, BuildingBlock: NAHDIM_clean_sbu_0, # of connection points: 4
#     Node 10, Type 0, BuildingBlock: NAHDIM_clean_sbu_0, # of connection points: 4
#     Node 11, Type 0, BuildingBlock: NAHDIM_clean_sbu_0, # of connection points: 4
#     Node 12, Type 0, BuildingBlock: NAHDIM_clean_sbu_0, # of connection points: 4
#     Node 13, Type 0, BuildingBlock: NAHDIM_clean_sbu_0, # of connection points: 4
#     Node 14, Type 0, BuildingBlock: NAHDIM_clean_sbu_0, # of connection points: 4
#     Node 15, Type 0, BuildingBlock: NAHDIM_clean_sbu_0, # of connection points: 4
#     Node 16, Type 0, BuildingBlock: NAHDIM_clean_sbu_0, # of connection points: 4
#     Node 17, Type 0, BuildingBlock: NAHDIM_clean_sbu_0, # of connection points: 4
#     Node 18, Type 0, BuildingBlock: NAHDIM_clean_sbu_0, # of connection points: 4
#     Node 19, Type 0, BuildingBlock: NAHDIM_clean_sbu_0, # of connection points: 4
#     Node 20, Type 0, BuildingBlock: NAHDIM_clean_sbu_0, # of connection points: 4
#     Node 21, Type 0, BuildingBlock: NAHDIM_clean_sbu_0, # of connection points: 4
#     Node 22, Type 0, BuildingBlock: NAHDIM_clean_sbu_0, # of connection points: 4
#     Node 23, Type 0, BuildingBlock: NAHDIM_clean_sbu_0, # of connection points: 4
#     Node 24, Type 1, BuildingBlock: IZENUY_clean_sbu_0, # of connection points: 6
#     Node 25, Type 1, BuildingBlock: IZENUY_clean_sbu_0, # of connection points: 6
#     Node 26, Type 1, BuildingBlock: IZENUY_clean_sbu_0, # of connection points: 6
#     Node 27, Type 1, BuildingBlock: IZENUY_clean_sbu_0, # of connection points: 6
#     Node 28, Type 1, BuildingBlock: IZENUY_clean_sbu_0, # of connection points: 6
#     Node 29, Type 1, BuildingBlock: IZENUY_clean_sbu_0, # of connection points: 6
#     Node 30, Type 1, BuildingBlock: IZENUY_clean_sbu_0, # of connection points: 6
#     Node 31, Type 1, BuildingBlock: IZENUY_clean_sbu_0, # of connection points: 6
#     Node 32, Type 1, BuildingBlock: IZENUY_clean_sbu_0, # of connection points: 6
#     Node 33, Type 1, BuildingBlock: IZENUY_clean_sbu_0, # of connection points: 6
#     Node 34, Type 1, BuildingBlock: IZENUY_clean_sbu_0, # of connection points: 6
#     Node 35, Type 1, BuildingBlock: IZENUY_clean_sbu_0, # of connection points: 6
#     Node 36, Type 1, BuildingBlock: IZENUY_clean_sbu_0, # of connection points: 6
#     Node 37, Type 1, BuildingBlock: IZENUY_clean_sbu_0, # of connection points: 6
#     Node 38, Type 1, BuildingBlock: IZENUY_clean_sbu_0, # of connection points: 6
#     Node 39, Type 1, BuildingBlock: IZENUY_clean_sbu_0, # of connection points: 6
#     Edge 40, Type (0, 1), BuildingBlock: KIFKEQ_clean_linker_1, # of connection points: 2
#     Edge 41, Type (0, 1), BuildingBlock: KIFKEQ_clean_linker_1, # of connection points: 2
#     Edge 42, Type (0, 1), BuildingBlock: KIFKEQ_clean_linker_1, # of connection points: 2
#     Edge 43, Type (0, 1), BuildingBlock: KIFKEQ_clean_linker_1, # of connection points: 2
#     Edge 44, Type (0, 1), BuildingBlock: KIFKEQ_clean_linker_1, # of connection points: 2
#     Edge 45, Type (0, 1), BuildingBlock: KIFKEQ_clean_linker_1, # of connection points: 2
#     Edge 46, Type (0, 1), BuildingBlock: KIFKEQ_clean_linker_1, # of connection points: 2
#     Edge 47, Type (0, 1), BuildingBlock: KIFKEQ_clean_linker_1, # of connection points: 2
#     Edge 48, Type (0, 1), BuildingBlock: KIFKEQ_clean_linker_1, # of connection points: 2
#     Edge 49, Type (0, 1), BuildingBlock: KIFKEQ_clean_linker_1, # of connection points: 2
#     Edge 50, Type (0, 1), BuildingBlock: KIFKEQ_clean_linker_1, # of connection points: 2
#     Edge 51, Type (0, 1), BuildingBlock: KIFKEQ_clean_linker_1, # of connection points: 2
#     Edge 52, Type (0, 1), BuildingBlock: KIFKEQ_clean_linker_1, # of connection points: 2
#     Edge 53, Type (0, 1), BuildingBlock: KIFKEQ_clean_linker_1, # of connection points: 2
#     Edge 54, Type (0, 1), BuildingBlock: KIFKEQ_clean_linker_1, # of connection points: 2
#     Edge 55, Type (0, 1), BuildingBlock: KIFKEQ_clean_linker_1, # of connection points: 2
#     Edge 56, Type (0, 1), BuildingBlock: KIFKEQ_clean_linker_1, # of connection points: 2
#     Edge 57, Type (0, 1), BuildingBlock: KIFKEQ_clean_linker_1, # of connection points: 2
#     Edge 58, Type (0, 1), BuildingBlock: KIFKEQ_clean_linker_1, # of connection points: 2
#     Edge 59, Type (0, 1), BuildingBlock: KIFKEQ_clean_linker_1, # of connection points: 2
#     Edge 60, Type (0, 1), BuildingBlock: KIFKEQ_clean_linker_1, # of connection points: 2
#     Edge 61, Type (0, 1), BuildingBlock: KIFKEQ_clean_linker_1, # of connection points: 2
#     Edge 62, Type (0, 1), BuildingBlock: KIFKEQ_clean_linker_1, # of connection points: 2
#     Edge 63, Type (0, 1), BuildingBlock: KIFKEQ_clean_linker_1, # of connection points: 2
#     Edge 64, Type (0, 1), BuildingBlock: KIFKEQ_clean_linker_1, # of connection points: 2
#     Edge 65, Type (0, 1), BuildingBlock: KIFKEQ_clean_linker_1, # of connection points: 2
#     Edge 66, Type (0, 1), BuildingBlock: KIFKEQ_clean_linker_1, # of connection points: 2
#     Edge 67, Type (0, 1), BuildingBlock: KIFKEQ_clean_linker_1, # of connection points: 2
#     Edge 68, Type (0, 1), BuildingBlock: KIFKEQ_clean_linker_1, # of connection points: 2
#     Edge 69, Type (0, 1), BuildingBlock: KIFKEQ_clean_linker_1, # of connection points: 2
#     Edge 70, Type (0, 1), BuildingBlock: KIFKEQ_clean_linker_1, # of connection points: 2
#     Edge 71, Type (0, 1), BuildingBlock: KIFKEQ_clean_linker_1, # of connection points: 2
#     Edge 72, Type (0, 1), BuildingBlock: KIFKEQ_clean_linker_1, # of connection points: 2
#     Edge 73, Type (0, 1), BuildingBlock: KIFKEQ_clean_linker_1, # of connection points: 2
#     Edge 74, Type (0, 1), BuildingBlock: KIFKEQ_clean_linker_1, # of connection points: 2
#     Edge 75, Type (0, 1), BuildingBlock: KIFKEQ_clean_linker_1, # of connection points: 2
#     Edge 76, Type (0, 1), BuildingBlock: KIFKEQ_clean_linker_1, # of connection points: 2
#     Edge 77, Type (0, 1), BuildingBlock: KIFKEQ_clean_linker_1, # of connection points: 2
#     Edge 78, Type (0, 1), BuildingBlock: KIFKEQ_clean_linker_1, # of connection points: 2
#     Edge 79, Type (0, 1), BuildingBlock: KIFKEQ_clean_linker_1, # of connection points: 2
#     Edge 80, Type (0, 1), BuildingBlock: KIFKEQ_clean_linker_1, # of connection points: 2
#     Edge 81, Type (0, 1), BuildingBlock: KIFKEQ_clean_linker_1, # of connection points: 2
#     Edge 82, Type (0, 1), BuildingBlock: KIFKEQ_clean_linker_1, # of connection points: 2
#     Edge 83, Type (0, 1), BuildingBlock: KIFKEQ_clean_linker_1, # of connection points: 2
#     Edge 84, Type (0, 1), BuildingBlock: KIFKEQ_clean_linker_1, # of connection points: 2
#     Edge 85, Type (0, 1), BuildingBlock: KIFKEQ_clean_linker_1, # of connection points: 2
#     Edge 86, Type (0, 1), BuildingBlock: KIFKEQ_clean_linker_1, # of connection points: 2
#     Edge 87, Type (0, 1), BuildingBlock: KIFKEQ_clean_linker_1, # of connection points: 2
#     Edge 88, Type (0, 1), BuildingBlock: KIFKEQ_clean_linker_1, # of connection points: 2
#     Edge 89, Type (0, 1), BuildingBlock: KIFKEQ_clean_linker_1, # of connection points: 2
#     Edge 90, Type (0, 1), BuildingBlock: KIFKEQ_clean_linker_1, # of connection points: 2
#     Edge 91, Type (0, 1), BuildingBlock: KIFKEQ_clean_linker_1, # of connection points: 2
#     Edge 92, Type (0, 1), BuildingBlock: KIFKEQ_clean_linker_1, # of connection points: 2
#     Edge 93, Type (0, 1), BuildingBlock: KIFKEQ_clean_linker_1, # of connection points: 2
#     Edge 94, Type (0, 1), BuildingBlock: KIFKEQ_clean_linker_1, # of connection points: 2
#     Edge 95, Type (0, 1), BuildingBlock: KIFKEQ_clean_linker_1, # of connection points: 2
#     Edge 96, Type (0, 1), BuildingBlock: KIFKEQ_clean_linker_1, # of connection points: 2
#     Edge 97, Type (0, 1), BuildingBlock: KIFKEQ_clean_linker_1, # of connection points: 2
#     Edge 98, Type (0, 1), BuildingBlock: KIFKEQ_clean_linker_1, # of connection points: 2
#     Edge 99, Type (0, 1), BuildingBlock: KIFKEQ_clean_linker_1, # of connection points: 2
#     Edge 100, Type (0, 1), BuildingBlock: KIFKEQ_clean_linker_1, # of connection points: 2
#     Edge 101, Type (0, 1), BuildingBlock: KIFKEQ_clean_linker_1, # of connection points: 2
#     Edge 102, Type (0, 1), BuildingBlock: KIFKEQ_clean_linker_1, # of connection points: 2
#     Edge 103, Type (0, 1), BuildingBlock: KIFKEQ_clean_linker_1, # of connection points: 2
#     Edge 104, Type (0, 1), BuildingBlock: KIFKEQ_clean_linker_1, # of connection points: 2
#     Edge 105, Type (0, 1), BuildingBlock: KIFKEQ_clean_linker_1, # of connection points: 2
#     Edge 106, Type (0, 1), BuildingBlock: KIFKEQ_clean_linker_1, # of connection points: 2
#     Edge 107, Type (0, 1), BuildingBlock: KIFKEQ_clean_linker_1, # of connection points: 2
#     Edge 108, Type (0, 1), BuildingBlock: KIFKEQ_clean_linker_1, # of connection points: 2
#     Edge 109, Type (0, 1), BuildingBlock: KIFKEQ_clean_linker_1, # of connection points: 2
#     Edge 110, Type (0, 1), BuildingBlock: KIFKEQ_clean_linker_1, # of connection points: 2
#     Edge 111, Type (0, 1), BuildingBlock: KIFKEQ_clean_linker_1, # of connection points: 2
#     Edge 112, Type (0, 1), BuildingBlock: KIFKEQ_clean_linker_1, # of connection points: 2
#     Edge 113, Type (0, 1), BuildingBlock: KIFKEQ_clean_linker_1, # of connection points: 2
#     Edge 114, Type (0, 1), BuildingBlock: KIFKEQ_clean_linker_1, # of connection points: 2
#     Edge 115, Type (0, 1), BuildingBlock: KIFKEQ_clean_linker_1, # of connection points: 2
#     Edge 116, Type (0, 1), BuildingBlock: KIFKEQ_clean_linker_1, # of connection points: 2
#     Edge 117, Type (0, 1), BuildingBlock: KIFKEQ_clean_linker_1, # of connection points: 2
#     Edge 118, Type (0, 1), BuildingBlock: KIFKEQ_clean_linker_1, # of connection points: 2
#     Edge 119, Type (0, 1), BuildingBlock: KIFKEQ_clean_linker_1, # of connection points: 2
#     Edge 120, Type (0, 1), BuildingBlock: KIFKEQ_clean_linker_1, # of connection points: 2
#     Edge 121, Type (0, 1), BuildingBlock: KIFKEQ_clean_linker_1, # of connection points: 2
#     Edge 122, Type (0, 1), BuildingBlock: KIFKEQ_clean_linker_1, # of connection points: 2
#     Edge 123, Type (0, 1), BuildingBlock: KIFKEQ_clean_linker_1, # of connection points: 2
#     Edge 124, Type (0, 1), BuildingBlock: KIFKEQ_clean_linker_1, # of connection points: 2
#     Edge 125, Type (0, 1), BuildingBlock: KIFKEQ_clean_linker_1, # of connection points: 2
#     Edge 126, Type (0, 1), BuildingBlock: KIFKEQ_clean_linker_1, # of connection points: 2
#     Edge 127, Type (0, 1), BuildingBlock: KIFKEQ_clean_linker_1, # of connection points: 2
#     Edge 128, Type (0, 1), BuildingBlock: KIFKEQ_clean_linker_1, # of connection points: 2
#     Edge 129, Type (0, 1), BuildingBlock: KIFKEQ_clean_linker_1, # of connection points: 2
#     Edge 130, Type (0, 1), BuildingBlock: KIFKEQ_clean_linker_1, # of connection points: 2
#     Edge 131, Type (0, 1), BuildingBlock: KIFKEQ_clean_linker_1, # of connection points: 2
#     Edge 132, Type (0, 1), BuildingBlock: KIFKEQ_clean_linker_1, # of connection points: 2
#     Edge 133, Type (0, 1), BuildingBlock: KIFKEQ_clean_linker_1, # of connection points: 2
#     Edge 134, Type (0, 1), BuildingBlock: KIFKEQ_clean_linker_1, # of connection points: 2
#     Edge 135, Type (0, 1), BuildingBlock: KIFKEQ_clean_linker_1, # of connection points: 2
# Relax obj value: 0.317
# Max RMSD: 0.299
# Mean RMSD: 0.268
data_MOF--net-ibd--node1-NAHDIM_clean_sbu_0--node2-IZENUY_clean_sbu_0--edge1-KIFKEQ_clean_linker_1
_symmetry_space_group_name_H-M    P1
_symmetry_Int_Tables_number       1
_symmetry_cell_setting            triclinic
loop_
_symmetry_equiv_pos_as_xyz
'x, y, z'
_cell_length_a     49.40441
_cell_length_b     49.444047
_cell_length_c     49.453138
_cell_angle_alpha  90.819458
_cell_angle_beta   90.821089
_cell_angle_gamma 91.485417
loop_
_atom_site_label
_atom_site_type_symbol
_atom_site_fract_x
_atom_site_fract_y
_atom_site_fract_z
_atom_type_partial_charge
C0 C 0.06964 0.21185 0.35389 0.0
O1 O 0.08033 0.2287 0.37208 0.0
O2 O 0.04084 0.26312 0.39108 0.0
Zn3 Zn 0.01921 0.23517 0.36997 0.0
O4 O 0.99365 0.25325 0.3445 0.0
C5 C 0.979 0.22224 0.40891 0.0
O6 O 0.97118 0.24678 0.40338 0.0
O7 O 0.0442 0.21135 0.3496 0.0
C8 C 0.97166 0.24207 0.33594 0.0
O9 O 0.9653 0.21737 0.3435 0.0
C10 C 0.03325 0.28706 0.39568 0.0
O11 O 0.01006 0.29489 0.38553 0.0
O12 O -0.00104 0.21264 0.39647 0.0
C13 C 0.0496 0.72326 0.65479 0.0
O14 O 0.03641 0.70569 0.63902 0.0
O15 O 0.99263 0.7293 0.61318 0.0
Zn16 Zn 0.00988 0.76027 0.63459 0.0
O17 O 0.98498 0.77379 0.66305 0.0
C18 C 0.0057 0.79418 0.58842 0.0
O19 O 0.98407 0.77873 0.58375 0.0
O20 O 0.0427 0.74784 0.65485 0.0
C21 C 0.96836 0.7928 0.66061 0.0
O22 O 0.96567 0.80479 0.63724 0.0
C23 C 0.96728 0.7243 0.61235 0.0
O24 O 0.95112 0.73952 0.62649 0.0
O25 O 0.02012 0.79028 0.60943 0.0
C26 C 0.54788 0.72005 0.8528 0.0
O27 O 0.54776 0.74624 0.85759 0.0
O28 O 0.50947 0.74722 0.90917 0.0
Zn29 Zn 0.49706 0.72114 0.8799 0.0
O30 O 0.47505 0.738 0.85055 0.0
C31 C 0.45109 0.68724 0.89635 0.0
O32 O 0.43664 0.70193 0.87992 0.0
O33 O 0.52881 0.70517 0.86179 0.0
C34 C 0.45644 0.75513 0.85249 0.0
O35 O 0.44949 0.76416 0.87645 0.0
C36 C 0.51474 0.77244 0.90797 0.0
O37 O 0.51208 0.78495 0.88486 0.0
O38 O 0.4765 0.69149 0.89821 0.0
C39 C 0.55846 0.23164 0.14701 0.0
O40 O 0.54613 0.21842 0.12697 0.0
O41 O 0.50373 0.25171 0.10631 0.0
Zn42 Zn 0.52282 0.2757 0.13369 0.0
O43 O 0.4977 0.28664 0.16294 0.0
C44 C 0.52326 0.32502 0.10386 0.0
O45 O 0.49699 0.32322 0.10745 0.0
O46 O 0.55254 0.25603 0.15201 0.0
C47 C 0.47224 0.28917 0.16096 0.0
O48 O 0.46001 0.28583 0.13734 0.0
C49 C 0.48724 0.23243 0.11158 0.0
O50 O 0.48148 0.22718 0.13686 0.0
O51 O 0.53834 0.30754 0.11447 0.0
C52 C 0.01303 0.71045 0.10866 0.0
O53 O 0.01035 0.69668 0.13103 0.0
O54 O 0.01507 0.76981 0.16517 0.0
Zn55 Zn 0.98804 0.75512 0.1378 0.0
O56 O 0.96847 0.78536 0.11982 0.0
C57 C 0.94385 0.73986 0.17183 0.0
O58 O 0.93945 0.76594 0.17113 0.0
O59 O 0.00572 0.73486 0.10802 0.0
C60 C 0.98174 0.80661 0.11332 0.0
O61 O 0.00722 0.80941 0.12094 0.0
C62 C 0.0396 0.77716 0.1617 0.0
O63 O 0.05019 0.77553 0.13754 0.0
O64 O 0.96282 0.73035 0.15779 0.0
C65 C 0.5271 0.69623 0.39403 0.0
O66 O 0.50091 0.69689 0.3893 0.0
O67 O 0.50058 0.74005 0.3399 0.0
Zn68 Zn 0.53008 0.74845 0.36718 0.0
O69 O 0.51764 0.77298 0.39701 0.0
C70 C 0.56831 0.78795 0.34407 0.0
O71 O 0.55346 0.80659 0.35525 0.0
O72 O 0.54243 0.71504 0.38525 0.0
C73 C 0.50031 0.79144 0.3953 0.0
O74 O 0.4899 0.79726 0.37156 0.0
C75 C 0.47549 0.7365 0.34439 0.0
O76 O 0.46659 0.73814 0.36925 0.0
O77 O 0.56205 0.76318 0.34728 0.0
C78 C 0.52837 0.2174 0.60711 0.0
O79 O 0.5458 0.22949 0.62387 0.0
O80 O 0.51849 0.26506 0.65912 0.0
Zn81 Zn 0.48994 0.2523 0.6326 0.0
O82 O 0.47791 0.28358 0.61057 0.0
C83 C 0.4514 0.2522 0.6735 0.0
O84 O 0.46175 0.27685 0.6764 0.0
O85 O 0.50361 0.22362 0.60775 0.0
C86 C 0.4531 0.28699 0.60489 0.0
O87 O 0.4348 0.26982 0.614 0.0
C88 C 0.53537 0.28431 0.65508 0.0
O89 O 0.53546 0.29637 0.63158 0.0
O90 O 0.45965 0.23722 0.65443 0.0
C91 C 0.01539 0.20991 0.92691 0.0
O92 O 0.98894 0.21007 0.92937 0.0
O93 O 0.97741 0.21357 0.86378 0.0
Zn94 Zn 0.00142 0.2413 0.88251 0.0
O95 O 0.97968 0.26689 0.90432 0.0
C96 C 0.01325 0.26381 0.83136 0.0
O97 O 0.98859 0.25447 0.82604 0.0
O98 O 0.02621 0.22231 0.90739 0.0
C99 C 0.99118 0.28715 0.91612 0.0
O100 O 0.01723 0.29169 0.91272 0.0
C101 C 0.95211 0.21621 0.8603 0.0
O102 O 0.9404 0.2375 0.87057 0.0
O103 O 0.02322 0.26116 0.85494 0.0
C104 C 0.4214 0.91936 0.23295 0.0
O105 O 0.41726 0.9098 0.25725 0.0
O106 O 0.35953 0.93063 0.26912 0.0
Zn107 Zn 0.38404 0.95772 0.25123 0.0
O108 O 0.40765 0.97796 0.27841 0.0
C109 C 0.33855 0.98985 0.24191 0.0
O110 O 0.33163 0.97871 0.26485 0.0
O111 O 0.4083 0.93966 0.22527 0.0
C112 C 0.40023 -0.00243 0.2932 0.0
O113 O 0.37516 0.00562 0.29159 0.0
C114 C 0.35978 0.92692 0.29448 0.0
O115 O 0.37866 0.93904 0.30958 0.0
O116 O 0.36095 0.98387 0.23139 0.0
C117 C 0.32677 0.08831 0.53021 0.0
O118 O 0.32553 0.09213 0.504 0.0
O119 O 0.29693 0.15306 0.50577 0.0
Zn120 Zn 0.28212 0.12423 0.52986 0.0
O121 O 0.25569 0.09971 0.50964 0.0
C122 C 0.23846 0.14152 0.56454 0.0
O123 O 0.22392 0.12268 0.55167 0.0
O124 O 0.31096 0.10116 0.54549 0.0
C125 C 0.23812 0.1071 0.49244 0.0
O126 O 0.2365 0.13283 0.48652 0.0
C127 C 0.30104 0.15181 0.4805 0.0
O128 O 0.2971 0.12879 0.46727 0.0
O129 O 0.2635 0.14431 0.55949 0.0
C130 C 0.1616 0.95123 0.70788 0.0
O131 O 0.14034 0.95378 0.69194 0.0
O132 O 0.11278 0.98859 0.76344 0.0
Zn133 Zn 0.14178 -0.00148 0.73724 0.0
O134 O 0.16692 0.02697 0.7535 0.0
C135 C 0.12101 0.03693 0.6992 0.0
O136 O 0.13479 0.0545 0.71448 0.0
O137 O 0.16494 0.96711 0.72813 0.0
C138 C 0.1612 0.04431 0.7716 0.0
O139 O 0.13635 0.04531 0.78058 0.0
C140 C 0.11589 0.98366 0.7884 0.0
O141 O 0.1404 0.98366 0.79908 0.0
O142 O 0.12249 0.01189 0.7042 0.0
C143 C 0.28224 0.86554 0.04783 0.0
O144 O 0.29773 0.87869 0.03081 0.0
O145 O 0.26493 0.91433 0.00108 0.0
Zn146 Zn 0.23902 0.88612 0.01508 0.0
O147 O 0.22933 0.85839 0.98645 0.0
C148 C 0.18168 0.90154 0.02243 0.0
O149 O 0.17463 0.88528 0.00221 0.0
O150 O 0.25669 0.86658 0.04529 0.0
C151 C 0.21707 0.86225 0.96416 0.0
O152 O 0.20912 0.88656 0.95792 0.0
C153 C 0.27752 0.91185 0.979 0.0
O154 O 0.27347 0.89009 0.9638 0.0
O155 O 0.20635 0.90412 0.02992 0.0
C156 C 0.18815 0.39712 0.96545 0.0
O157 O 0.20425 0.38565 0.94803 0.0
O158 O 0.24033 0.35029 0.97427 0.0
Zn159 Zn 0.22483 0.37376 0.00317 0.0
O160 O 0.25171 0.402 0.01625 0.0
C161 C 0.23806 0.3386 0.04428 0.0
O162 O 0.26195 0.34474 0.03437 0.0
O163 O 0.19194 0.39322 0.99052 0.0
C164 C 0.2458 0.41342 0.03846 0.0
O165 O 0.22339 0.40593 0.05059 0.0
C166 C 0.26241 0.35518 0.96221 0.0
O167 O 0.2757 0.37813 0.96712 0.0
O168 O 0.21721 0.34935 0.03412 0.0
C169 C 0.7196 0.17246 0.96404 0.0
O170 O 0.74426 0.17393 0.97435 0.0
O171 O 0.74729 0.10242 0.97469 0.0
Zn172 Zn 0.72018 0.12454 0.99384 0.0
O173 O 0.73955 0.14352 0.02489 0.0
C174 C 0.67209 0.09892 0.02125 0.0
O175 O 0.66613 0.12222 0.03245 0.0
O176 O 0.70454 0.15202 0.96915 0.0
C177 C 0.72885 0.16189 0.03902 0.0
O178 O 0.70336 0.16761 0.03462 0.0
C179 C 0.77262 0.10738 0.97423 0.0
O180 O 0.7826 0.13001 0.98502 0.0
O181 O 0.69234 0.09736 0.00585 0.0
C182 C 0.09399 0.50676 0.31928 0.0
O183 O 0.09723 0.48054 0.32073 0.0
O184 O 0.15102 0.47823 0.2783 0.0
Zn185 Zn 0.1223 0.50382 0.26757 0.0
O186 O 0.09421 0.48571 0.24342 0.0
C187 C 0.14106 0.5391 0.22424 0.0
O188 O 0.12746 0.52255 0.20771 0.0
O189 O 0.10362 0.5196 0.29941 0.0
C190 C 0.09813 0.46626 0.22698 0.0
O191 O 0.12261 0.45692 0.2243 0.0
C192 C 0.14816 0.45351 0.28459 0.0
O193 O 0.12384 0.44221 0.28538 0.0
O194 O 0.14095 0.53479 0.24946 0.0
C195 C 0.72629 0.9158 0.45915 0.0
O196 O 0.75273 0.91793 0.45706 0.0
O197 O 0.75779 0.84661 0.46575 0.0
Zn198 Zn 0.74256 0.87346 0.49158 0.0
O199 O 0.77101 0.8991 0.50709 0.0
C200 C 0.73371 0.8476 0.54342 0.0
O201 O 0.75851 0.85606 0.54938 0.0
O202 O 0.71606 0.89639 0.47242 0.0
C203 C 0.7951 0.89544 0.51526 0.0
O204 O 0.8048 0.87095 0.51537 0.0
C205 C 0.77981 0.84965 0.4531 0.0
O206 O 0.79429 0.87216 0.45615 0.0
O207 O 0.72328 0.85325 0.52063 0.0
C208 C 0.83042 0.04951 0.26716 0.0
O209 O 0.82948 0.02336 0.26209 0.0
O210 O 0.9083 0.03025 0.26476 0.0
Zn211 Zn 0.87949 0.0436 0.23964 0.0
O212 O 0.86131 0.01181 0.22018 0.0
C213 C 0.91035 0.05666 0.19395 0.0
O214 O 0.90986 0.03012 0.19213 0.0
O215 O 0.85103 0.06343 0.26005 0.0
C216 C 0.85016 0.01378 0.19701 0.0
O217 O 0.85134 0.03695 0.18436 0.0
C218 C 0.90402 0.01358 0.28364 0.0
O219 O 0.87922 0.00463 0.28794 0.0
O220 O 0.89794 0.06801 0.21316 0.0
C221 C 0.20869 0.66407 0.43824 0.0
O222 O 0.23454 0.66051 0.4339 0.0
O223 O 0.24524 0.60516 0.45915 0.0
Zn224 Zn 0.21896 0.62706 0.48051 0.0
O225 O 0.23848 0.65191 0.5071 0.0
C226 C 0.18722 0.6029 0.52382 0.0
O227 O 0.19467 0.62442 0.53822 0.0
O228 O 0.19706 0.65052 0.45655 0.0
C229 C 0.25338 0.64537 0.527 0.0
O230 O 0.25719 0.61968 0.53189 0.0
C231 C 0.27087 0.60737 0.46143 0.0
O232 O 0.28186 0.6263 0.47723 0.0
O233 O 0.19462 0.60072 0.49942 0.0
C234 C 0.3514 0.56155 0.79707 0.0
O235 O 0.36818 0.54731 0.81155 0.0
O236 O 0.39879 0.51352 0.7739 0.0
Zn237 Zn 0.369 0.5287 0.75141 0.0
O238 O 0.3413 0.50008 0.74061 0.0
C239 C 0.39334 0.53147 0.69857 0.0
O240 O 0.38716 0.50549 0.69726 0.0
O241 O 0.34956 0.55746 0.77169 0.0
C242 C 0.34544 0.47521 0.73585 0.0
O243 O 0.37015 0.4661 0.73741 0.0
C244 C 0.39599 0.49618 0.79242 0.0
O245 O 0.37166 0.48684 0.79826 0.0
O246 O 0.38634 0.54522 0.71909 0.0
C247 C 0.60294 0.03682 0.80403 0.0
O248 O 0.6272 0.04818 0.80652 0.0
O249 O 0.65406 0.97938 0.78217 0.0
Zn250 Zn 0.62597 0.00056 0.7626 0.0
O251 O 0.60527 0.9777 0.73507 0.0
C252 C 0.66532 0.01561 0.72813 0.0
O253 O 0.66382 0.98905 0.72668 0.0
O254 O 0.59901 0.01721 0.78743 0.0
C255 C 0.6043 0.95201 0.73408 0.0
O256 O 0.61787 0.93825 0.75202 0.0
C257 C 0.65384 0.9609 0.79971 0.0
O258 O 0.63076 0.95196 0.80948 0.0
O259 O 0.64827 0.02791 0.74251 0.0
C260 C 0.8372 0.59899 0.02855 0.0
O261 O 0.83363 0.62119 0.04283 0.0
O262 O 0.82469 0.64601 0.95963 0.0
Zn263 Zn 0.80431 0.62428 0.98679 0.0
O264 O 0.77331 0.60379 0.9688 0.0
C265 C 0.77013 0.66479 0.0048 0.0
O266 O 0.76107 0.66053 0.97997 0.0
O267 O 0.82748 0.59703 0.00467 0.0
C268 C 0.75258 0.59669 0.98212 0.0
O269 O 0.75164 0.60274 0.00804 0.0
C270 C 0.81335 0.65302 0.93767 0.0
O271 O 0.78915 0.64305 0.93132 0.0
O272 O 0.78962 0.65094 0.01354 0.0
C273 C 0.90024 0.45136 0.70022 0.0
O274 O 0.88663 0.43444 0.71548 0.0
O275 O 0.85104 0.46302 0.74983 0.0
Zn276 Zn 0.87474 0.49167 0.7331 0.0
O277 O 0.89941 0.50901 0.76107 0.0
C278 C 0.83245 0.52852 0.7342 0.0
O279 O 0.83108 0.51923 0.75891 0.0
O280 O 0.89754 0.47662 0.70368 0.0
C281 C 0.90742 0.53344 0.75868 0.0
O282 O 0.89933 0.54717 0.73763 0.0
C283 C 0.85185 0.4585 0.77504 0.0
O284 O 0.87 0.47146 0.79036 0.0
O285 O 0.85038 0.51969 0.71845 0.0
C286 C 0.79185 0.3434 0.56183 0.0
O287 O 0.8093 0.36072 0.55149 0.0
O288 O 0.78471 0.38864 0.50805 0.0
Zn289 Zn 0.75417 0.36648 0.52369 0.0
O290 O 0.73716 0.34164 0.49527 0.0
C291 C 0.72158 0.4127 0.52397 0.0
O292 O 0.7336 0.41617 0.5007 0.0
O293 O 0.7674 0.34308 0.55355 0.0
C294 C 0.71694 0.34675 0.48017 0.0
O295 O 0.7051 0.37009 0.48257 0.0
C296 C 0.79005 0.38834 0.483 0.0
O297 O 0.77638 0.37168 0.46666 0.0
O298 O 0.72707 0.39223 0.53807 0.0
C299 C 0.64867 0.45307 0.22687 0.0
O300 O 0.64277 0.44878 0.25229 0.0
O301 O 0.59672 0.48494 0.26417 0.0
Zn302 Zn 0.62133 0.50233 0.23726 0.0
O303 O 0.65021 0.52586 0.25511 0.0
C304 C 0.57772 0.53502 0.22551 0.0
O305 O 0.57721 0.53431 0.25203 0.0
O306 O 0.64034 0.4743 0.21562 0.0
C307 C 0.64771 0.54253 0.27465 0.0
O308 O 0.62377 0.54611 0.28511 0.0
C309 C 0.59989 0.48033 0.28919 0.0
O310 O 0.62349 0.48526 0.30107 0.0
O311 O 0.5969 0.52369 0.21324 0.0
Fe312 Fe 0.13584 0.09482 0.15235 0.0
Fe313 Fe 0.13127 0.15436 0.13718 0.0
O314 O 0.14548 0.1223 0.1318 0.0
Fe315 Fe 0.16923 0.11765 0.10577 0.0
O316 O 0.15889 0.08231 0.09854 0.0
O317 O 0.12297 0.07546 0.12344 0.0
O318 O 0.10131 0.10593 0.15726 0.0
C319 C 0.08694 0.12095 0.14278 0.0
C320 C 0.192 0.08861 0.1462 0.0
O321 O 0.09722 0.14095 0.13084 0.0
C322 C 0.18313 0.17001 0.1269 0.0
O323 O 0.14796 0.11231 0.18276 0.0
O324 O 0.12835 0.15064 0.17375 0.0
O325 O 0.19513 0.10788 0.12996 0.0
O326 O 0.16867 0.07881 0.15089 0.0
C327 C 0.13173 0.1486 0.08057 0.0
O328 O 0.16426 0.16989 0.14375 0.0
O329 O 0.18353 0.15228 0.10815 0.0
C330 C 0.14046 0.13542 0.19006 0.0
O331 O 0.13173 0.16362 0.1015 0.0
O332 O 0.14465 0.12694 0.08022 0.0
C333 C 0.13689 0.06957 0.10317 0.0
Fe334 Fe 0.08915 0.87578 0.38044 0.0
Fe335 Fe 0.12175 0.92281 0.35597 0.0
O336 O 0.11698 0.89892 0.38192 0.0
Fe337 Fe 0.1403 0.89793 0.40924 0.0
O338 O 0.14907 0.86369 0.4006 0.0
O339 O 0.10717 0.84808 0.39669 0.0
O340 O 0.10031 0.86192 0.34876 0.0
C341 C 0.10456 0.8752 0.32767 0.0
C342 C 0.08977 0.88773 0.4342 0.0
O343 O 0.10726 0.90076 0.32873 0.0
C344 C 0.13615 0.95228 0.40405 0.0
O345 O 0.06623 0.8992 0.36363 0.0
O346 O 0.0894 0.93772 0.36258 0.0
O347 O 0.11532 0.88645 0.43395 0.0
O348 O 0.07635 0.8881 0.41235 0.0
C349 C 0.17362 0.90691 0.36441 0.0
O350 O 0.1372 0.94908 0.37857 0.0
O351 O 0.13289 0.93221 0.41921 0.0
C352 C 0.06707 0.92477 0.36195 0.0
O353 O 0.15434 0.90925 0.34772 0.0
O354 O 0.16966 0.90892 0.38957 0.0
C355 C 0.13237 0.84407 0.39839 0.0
Fe356 Fe 0.38656 0.87991 0.64806 0.0
Fe357 Fe 0.36258 0.85756 0.59474 0.0
O358 O 0.38593 0.85512 0.62199 0.0
Fe359 Fe 0.40853 0.82795 0.62314 0.0
O360 O 0.39541 0.81665 0.65527 0.0
O361 O 0.3967 0.85681 0.67481 0.0
O362 O 0.35176 0.87193 0.6566 0.0
C363 C 0.33214 0.87317 0.64012 0.0
C364 C 0.44064 0.87314 0.64155 0.0
O365 O 0.33618 0.87348 0.61489 0.0
C366 C 0.41012 0.83988 0.56943 0.0
O367 O 0.37677 0.9077 0.62603 0.0
O368 O 0.37688 0.89003 0.58505 0.0
O369 O 0.43625 0.84779 0.63979 0.0
O370 O 0.4213 0.88926 0.64109 0.0
C371 C 0.35917 0.80345 0.60441 0.0
O372 O 0.38463 0.84204 0.56953 0.0
O373 O 0.42326 0.83754 0.59125 0.0
C374 C 0.37878 0.91037 0.6007 0.0
O375 O 0.3469 0.82541 0.60294 0.0
O376 O 0.38477 0.80329 0.60667 0.0
C377 C 0.39502 0.83129 0.67635 0.0
Fe378 Fe 0.40412 0.162 0.89227 0.0
Fe379 Fe 0.37986 0.11053 0.86578 0.0
O380 O 0.37909 0.13584 0.89124 0.0
Fe381 Fe 0.3532 0.13538 0.91551 0.0
O382 O 0.34171 0.168 0.90479 0.0
O383 O 0.38193 0.18778 0.90647 0.0
O384 O 0.39377 0.17338 0.85929 0.0
C385 C 0.39284 0.15862 0.83832 0.0
C386 C 0.40037 0.151 0.94571 0.0
O387 O 0.39392 0.1331 0.83993 0.0
C388 C 0.36404 0.0818 0.9126 0.0
O389 O 0.43108 0.14122 0.87811 0.0
O390 O 0.41307 0.10021 0.87678 0.0
O391 O 0.37478 0.15037 0.94282 0.0
O392 O 0.41547 0.15188 0.92538 0.0
C393 C 0.32564 0.11966 0.86707 0.0
O394 O 0.36576 0.08361 0.88712 0.0
O395 O 0.36299 0.10268 0.92742 0.0
C396 C 0.43367 0.11578 0.87749 0.0
O397 O 0.34678 0.11933 0.85315 0.0
O398 O 0.3271 0.12024 0.89266 0.0
C399 C 0.3564 0.18917 0.90484 0.0
Fe400 Fe 0.59445 0.37131 0.87806 0.0
Fe401 Fe 0.62182 0.42061 0.85217 0.0
O402 O 0.62095 0.39604 0.8778 0.0
Fe403 Fe 0.64648 0.39603 0.90308 0.0
O404 O 0.65608 0.36219 0.89365 0.0
O405 O 0.61482 0.3448 0.89333 0.0
O406 O 0.60429 0.35829 0.84537 0.0
C407 C 0.60569 0.37241 0.82437 0.0
C408 C 0.59834 0.38496 0.93154 0.0
O409 O 0.60643 0.39803 0.82604 0.0
C410 C 0.63915 0.45022 0.89914 0.0
O411 O 0.56906 0.39317 0.86292 0.0
O412 O 0.58926 0.43319 0.86211 0.0
O413 O 0.62386 0.38394 0.92969 0.0
O414 O 0.5833 0.38307 0.91075 0.0
C415 C 0.67522 0.40791 0.85545 0.0
O416 O 0.63759 0.44748 0.87365 0.0
O417 O 0.63861 0.42983 0.91408 0.0
C418 C 0.56788 0.41872 0.8625 0.0
O419 O 0.65435 0.40953 0.84066 0.0
O420 O 0.67355 0.40823 0.88098 0.0
C421 C 0.64019 0.34189 0.89362 0.0
Fe422 Fe 0.849 0.3693 0.10559 0.0
Fe423 Fe 0.87279 0.38852 0.16001 0.0
O424 O 0.87184 0.36488 0.13284 0.0
Fe425 Fe 0.89375 0.3372 0.13286 0.0
O426 O 0.90879 0.34747 0.10143 0.0
O427 O 0.87063 0.35435 0.07978 0.0
O428 O 0.86474 0.40162 0.09781 0.0
C429 C 0.86658 0.42123 0.11431 0.0
C430 C 0.84366 0.31488 0.11275 0.0
O431 O 0.86315 0.41755 0.13934 0.0
C432 C 0.88114 0.3385 0.18611 0.0
O433 O 0.82292 0.38481 0.12647 0.0
O434 O 0.83796 0.38045 0.16816 0.0
O435 O 0.8692 0.31367 0.11568 0.0
O436 O 0.83224 0.33733 0.11186 0.0
C437 C 0.92665 0.38142 0.15216 0.0
O438 O 0.88299 0.36409 0.18575 0.0
O439 O 0.88036 0.32501 0.16434 0.0
C440 C 0.81854 0.38271 0.15157 0.0
O441 O 0.90749 0.39773 0.15306 0.0
O442 O 0.92202 0.35608 0.15004 0.0
C443 C 0.89594 0.35111 0.0797 0.0
Fe444 Fe 0.84905 0.61661 0.41497 0.0
Fe445 Fe 0.90124 0.64215 0.39277 0.0
O446 O 0.87517 0.61699 0.39083 0.0
Fe447 Fe 0.8751 0.59215 0.36471 0.0
O448 O 0.84256 0.60272 0.35205 0.0
O449 O 0.82289 0.60261 0.39155 0.0
O450 O 0.83848 0.64984 0.40521 0.0
C451 C 0.85386 0.67059 0.40485 0.0
C452 C 0.85899 0.56283 0.41076 0.0
O453 O 0.87937 0.66864 0.4058 0.0
C454 C 0.92872 0.5945 0.37897 0.0
O455 O 0.87026 0.63063 0.44285 0.0
O456 O 0.91125 0.63203 0.42637 0.0
O457 O 0.85972 0.56536 0.38531 0.0
O458 O 0.85814 0.58334 0.42614 0.0
C459 C 0.892 0.63989 0.33816 0.0
O460 O 0.92768 0.62008 0.37997 0.0
O461 O 0.90749 0.58008 0.37584 0.0
C462 C 0.89571 0.63161 0.44633 0.0
O463 O 0.89295 0.65414 0.35945 0.0
O464 O 0.89062 0.61432 0.33933 0.0
C465 C 0.8214 0.60301 0.36597 0.0
Fe466 Fe 0.91934 0.87351 0.88895 0.0
Fe467 Fe 0.86645 0.89309 0.91265 0.0
O468 O 0.89216 0.89611 0.88824 0.0
Fe469 Fe 0.89051 0.9213 0.86319 0.0
O470 O 0.92323 0.93598 0.87333 0.0
O471 O 0.94436 0.89759 0.87585 0.0
O472 O 0.92961 0.88475 0.9228 0.0
C473 C 0.91408 0.88364 0.94282 0.0
C474 C 0.90818 0.87511 0.83462 0.0
O475 O 0.88876 0.8808 0.93932 0.0
C476 C 0.83692 0.90599 0.86544 0.0
O477 O 0.89926 0.8451 0.90184 0.0
O478 O 0.85746 0.85898 0.90094 0.0
O479 O 0.90557 0.90048 0.83658 0.0
O480 O 0.91067 0.86082 0.85538 0.0
C481 C 0.87368 0.94794 0.91118 0.0
O482 O 0.83931 0.90502 0.89084 0.0
O483 O 0.85757 0.90868 0.85091 0.0
C484 C 0.87411 0.8401 0.89953 0.0
O485 O 0.87384 0.92697 0.92547 0.0
O486 O 0.87522 0.94633 0.88563 0.0
C487 C 0.9449 0.92309 0.87454 0.0
Fe488 Fe 0.88964 0.08773 0.6502 0.0
Fe489 Fe 0.85965 0.11672 0.60464 0.0
O490 O 0.88671 0.11567 0.62843 0.0
Fe491 Fe 0.91086 0.14265 0.63056 0.0
O492 O 0.90225 0.14965 0.66531 0.0
O493 O 0.90434 0.1076 0.67866 0.0
O494 O 0.85687 0.09371 0.6646 0.0
C495 C 0.83506 0.09498 0.65121 0.0
C496 C 0.94256 0.09638 0.63712 0.0
O497 O 0.83523 0.09863 0.62591 0.0
C498 C 0.9045 0.13787 0.57591 0.0
O499 O 0.87533 0.06289 0.62578 0.0
O500 O 0.87007 0.0857 0.58837 0.0
O501 O 0.93916 0.12148 0.64038 0.0
O502 O 0.92268 0.07989 0.63721 0.0
C503 C 0.86157 0.16928 0.62224 0.0
O504 O 0.8792 0.13508 0.57915 0.0
O505 O 0.92069 0.13731 0.59583 0.0
C506 C 0.87292 0.06355 0.60028 0.0
O507 O 0.8474 0.14784 0.61927 0.0
O508 O 0.88711 0.16881 0.62116 0.0
C509 C 0.90279 0.13262 0.68401 0.0
Fe510 Fe 0.60909 0.1038 0.35286 0.0
Fe511 Fe 0.63746 0.13266 0.40085 0.0
O512 O 0.61038 0.13023 0.37723 0.0
Fe513 Fe 0.5845 0.15434 0.37775 0.0
O514 O 0.59273 0.16498 0.34395 0.0
O515 O 0.59272 0.12384 0.32666 0.0
O516 O 0.64098 0.11472 0.33879 0.0
C517 C 0.66284 0.11739 0.3521 0.0
C518 C 0.55616 0.10506 0.36678 0.0
O519 O 0.6628 0.11931 0.37768 0.0
C520 C 0.5914 0.14544 0.43158 0.0
O521 O 0.62543 0.07907 0.37444 0.0
O522 O 0.62963 0.0995 0.414 0.0
O523 O 0.55764 0.13062 0.36528 0.0
O524 O 0.57721 0.09131 0.36568 0.0
C525 C 0.63192 0.18589 0.38939 0.0
O526 O 0.6168 0.14632 0.42817 0.0
O527 O 0.57514 0.14507 0.41165 0.0
C528 C 0.62843 0.07813 0.39984 0.0
O529 O 0.6472 0.16593 0.3892 0.0
O530 O 0.60648 0.18243 0.39043 0.0
C531 C 0.59338 0.14923 0.32371 0.0
Fe532 Fe 0.62935 0.83262 0.1243 0.0
Fe533 Fe 0.66615 0.86835 0.08938 0.0
O534 O 0.64812 0.86308 0.11962 0.0
Fe535 Fe 0.64877 0.88851 0.14506 0.0
O536 O 0.61238 0.89187 0.14272 0.0
O537 O 0.60275 0.84827 0.14412 0.0
O538 O 0.60857 0.83853 0.0946 0.0
C539 C 0.61753 0.84236 0.07119 0.0
C540 C 0.65054 0.84015 0.17508 0.0
O541 O 0.64223 0.8486 0.06775 0.0
C542 C 0.70138 0.89068 0.1299 0.0
O543 O 0.65263 0.81166 0.10517 0.0
O544 O 0.68672 0.83912 0.09542 0.0
O545 O 0.64587 0.86507 0.17314 0.0
O546 O 0.64861 0.82466 0.1546 0.0
C547 C 0.64495 0.9182 0.09689 0.0
O548 O 0.69335 0.88923 0.10548 0.0
O549 O 0.68516 0.88649 0.1489 0.0
C550 C 0.67715 0.81551 0.09875 0.0
O551 O 0.64655 0.8978 0.08145 0.0
O552 O 0.65164 0.91679 0.12161 0.0
C553 C 0.59551 0.8726 0.14573 0.0
Fe554 Fe 0.38728 0.65794 0.12671 0.0
Fe555 Fe 0.33217 0.63697 0.10533 0.0
O556 O 0.35873 0.63588 0.12962 0.0
Fe557 Fe 0.35668 0.61285 0.1566 0.0
O558 O 0.38772 0.59693 0.14684 0.0
O559 O 0.41143 0.63454 0.14124 0.0
O560 O 0.39521 0.64378 0.09385 0.0
C561 C 0.37893 0.64284 0.07399 0.0
C562 C 0.37924 0.66072 0.1812 0.0
O563 O 0.354 0.6467 0.07733 0.0
C564 C 0.30418 0.62841 0.15409 0.0
O565 O 0.36825 0.68552 0.11189 0.0
O566 O 0.32572 0.67181 0.11416 0.0
O567 O 0.37455 0.63539 0.18118 0.0
O568 O 0.38117 0.67337 0.15933 0.0
C569 C 0.33632 0.58254 0.11124 0.0
O570 O 0.30535 0.62724 0.1286 0.0
O571 O 0.32539 0.627 0.16841 0.0
C572 C 0.34336 0.69067 0.11357 0.0
O573 O 0.33716 0.60221 0.09529 0.0
O574 O 0.33855 0.58631 0.13661 0.0
C575 C 0.41018 0.60919 0.14423 0.0
Fe576 Fe 0.12106 0.60547 0.8581 0.0
Fe577 Fe 0.14222 0.62862 0.91243 0.0
O578 O 0.11961 0.63007 0.88432 0.0
Fe579 Fe 0.09568 0.65606 0.88235 0.0
O580 O 0.10927 0.66811 0.85075 0.0
O581 O 0.11099 0.62818 0.83104 0.0
O582 O 0.1557 0.61518 0.85094 0.0
C583 C 0.17486 0.61551 0.86803 0.0
C584 C 0.06642 0.60957 0.86255 0.0
O585 O 0.17018 0.61465 0.8931 0.0
C586 C 0.09301 0.64417 0.93607 0.0
O587 O 0.13137 0.57812 0.88023 0.0
O588 O 0.12942 0.59526 0.92134 0.0
O589 O 0.06957 0.63501 0.86485 0.0
O590 O 0.08646 0.59435 0.86359 0.0
C591 C 0.14303 0.68292 0.90273 0.0
O592 O 0.11852 0.64252 0.93677 0.0
O593 O 0.08038 0.64597 0.91386 0.0
C594 C 0.12864 0.57511 0.90541 0.0
O595 O 0.15648 0.66179 0.90542 0.0
O596 O 0.11759 0.68173 0.89928 0.0
C597 C 0.11179 0.6537 0.82977 0.0
Fe598 Fe 0.15849 0.36985 0.60172 0.0
Fe599 Fe 0.10591 0.34227 0.62021 0.0
O600 O 0.13072 0.36848 0.62396 0.0
Fe601 Fe 0.12768 0.39332 0.64976 0.0
O602 O 0.15988 0.38471 0.66477 0.0
O603 O 0.18242 0.38475 0.62683 0.0
O604 O 0.16961 0.33699 0.6123 0.0
C605 C 0.15494 0.31574 0.61136 0.0
C606 C 0.14575 0.4232 0.60484 0.0
O607 O 0.12954 0.31695 0.60815 0.0
C608 C 0.07499 0.38799 0.63283 0.0
O609 O 0.13953 0.35533 0.57245 0.0
O610 O 0.0976 0.35279 0.58637 0.0
O611 O 0.14303 0.42084 0.63014 0.0
O612 O 0.14902 0.40273 0.58986 0.0
C613 C 0.11075 0.34463 0.67504 0.0
O614 O 0.07773 0.36264 0.63169 0.0
O615 O 0.09526 0.40367 0.63651 0.0
C616 C 0.1143 0.35467 0.56746 0.0
O617 O 0.11263 0.33032 0.65391 0.0
O618 O 0.11163 0.37024 0.67391 0.0
C619 C 0.18203 0.38525 0.65244 0.0
Fe620 Fe 0.64694 0.62918 0.59968 0.0
Fe621 Fe 0.61896 0.60205 0.64746 0.0
O622 O 0.62079 0.62833 0.62366 0.0
Fe623 Fe 0.59636 0.65389 0.62386 0.0
O624 O 0.58521 0.64468 0.58993 0.0
O625 O 0.62608 0.64394 0.57298 0.0
O626 O 0.63651 0.59654 0.58586 0.0
C627 C 0.63466 0.57519 0.59934 0.0
C628 C 0.64496 0.68272 0.61302 0.0
O629 O 0.63269 0.57617 0.62484 0.0
C630 C 0.60674 0.64874 0.67779 0.0
O631 O 0.6723 0.61423 0.62201 0.0
O632 O 0.65212 0.61118 0.66119 0.0
O633 O 0.61939 0.6806 0.61175 0.0
O634 O 0.65917 0.66195 0.612 0.0
C635 C 0.56556 0.60646 0.6341 0.0
O636 O 0.60514 0.6233 0.67435 0.0
O637 O 0.60624 0.66436 0.65787 0.0
C638 C 0.67341 0.61244 0.64751 0.0
O639 O 0.58563 0.59128 0.63522 0.0
O640 O 0.5688 0.6319 0.63592 0.0
C641 C 0.60057 0.64334 0.56985 0.0
Fe642 Fe 0.40273 0.36048 0.38637 0.0
Fe643 Fe 0.37535 0.40558 0.35511 0.0
O644 O 0.37601 0.38341 0.38287 0.0
Fe645 Fe 0.34992 0.38425 0.407 0.0
O646 O 0.34052 0.34908 0.4004 0.0
O647 O 0.38191 0.33385 0.4018 0.0
O648 O 0.39456 0.34448 0.35396 0.0
C649 C 0.39343 0.3569 0.33191 0.0
C650 C 0.39718 0.3766 0.43896 0.0
O651 O 0.39163 0.38236 0.33169 0.0
C652 C 0.35716 0.43826 0.39828 0.0
O653 O 0.42837 0.38303 0.37156 0.0
O654 O 0.40753 0.42122 0.36538 0.0
O655 O 0.37172 0.3755 0.43563 0.0
O656 O 0.41271 0.37477 0.41905 0.0
C657 C 0.32204 0.39021 0.3571 0.0
O658 O 0.35882 0.43296 0.37328 0.0
O659 O 0.35754 0.41954 0.41533 0.0
C660 C 0.42909 0.40844 0.36859 0.0
O661 O 0.3432 0.39124 0.34315 0.0
O662 O 0.32338 0.393 0.38259 0.0
C663 C 0.35653 0.32969 0.40195 0.0
H664 H 0.12316 0.22078 0.34317 0.0
H665 H 0.05534 0.16612 0.32549 0.0
H666 H 0.14949 0.19813 0.30836 0.0
H667 H 0.0817 0.14341 0.29112 0.0
H668 H 0.13485 0.10245 0.23356 0.0
H669 H 0.125 0.11697 0.27991 0.0
H670 H 0.1375 0.20035 0.25728 0.0
H671 H 0.14686 0.18594 0.21111 0.0
C672 C 0.11416 0.20349 0.33238 0.0
C673 C 0.08708 0.19546 0.33662 0.0
C674 C 0.12923 0.19056 0.31256 0.0
C675 C 0.11757 0.1691 0.29713 0.0
C676 C 0.09127 0.15971 0.30295 0.0
C677 C 0.07608 0.1729 0.32239 0.0
C678 C 0.13634 0.12379 0.2388 0.0
C679 C 0.14116 0.14317 0.21884 0.0
C680 C 0.13068 0.13206 0.26522 0.0
C681 C 0.13038 0.15974 0.27202 0.0
C682 C 0.13783 0.17889 0.25262 0.0
C683 C 0.14295 0.17067 0.22618 0.0
H684 H 0.04379 0.83493 0.59491 0.0
H685 H 0.98711 0.79899 0.53665 0.0
H686 H 0.0612 0.86512 0.56031 0.0
H687 H 0.00519 0.82818 0.50186 0.0
H688 H 0.03508 0.88776 0.44315 0.0
H689 H 0.01176 0.87173 0.48324 0.0
H690 H 0.08907 0.85907 0.52254 0.0
H691 H 0.11216 0.87603 0.4832 0.0
C692 C 0.03496 0.83359 0.57474 0.0
C693 C 0.01435 0.81436 0.56838 0.0
C694 C 0.04498 0.85082 0.55489 0.0
C695 C 0.03484 0.84891 0.52818 0.0
C696 C 0.01329 0.83053 0.52224 0.0
C697 C 0.00305 0.81357 0.54217 0.0
C698 C 0.04704 0.88209 0.4606 0.0
C699 C 0.07548 0.88271 0.45979 0.0
C700 C 0.03369 0.87274 0.48352 0.0
C701 C 0.0485 0.86365 0.50598 0.0
C702 C 0.07691 0.86609 0.50579 0.0
C703 C 0.09022 0.87565 0.48304 0.0
H704 H 0.41612 0.79208 0.8478 0.0
H705 H 0.4665 0.73961 0.80065 0.0
H706 H 0.39566 0.80865 0.80606 0.0
H707 H 0.44665 0.75648 0.75932 0.0
H708 H 0.396 0.77727 0.68812 0.0
H709 H 0.40594 0.75724 0.73181 0.0
H710 H 0.4101 0.83691 0.76893 0.0
H711 H 0.39949 0.85687 0.72558 0.0
C712 C 0.42275 0.78403 0.82859 0.0
C713 C 0.44304 0.76466 0.82756 0.0
C714 C 0.41109 0.79355 0.8047 0.0
C715 C 0.41947 0.78384 0.77935 0.0
C716 C 0.43934 0.76405 0.77846 0.0
C717 C 0.45094 0.75457 0.80223 0.0
C718 C 0.39861 0.79048 0.70568 0.0
C719 C 0.39737 0.8187 0.70324 0.0
C720 C 0.40444 0.77901 0.7307 0.0
C721 C 0.40918 0.79551 0.75379 0.0
C722 C 0.40638 0.82359 0.75162 0.0
C723 C 0.40049 0.83505 0.72666 0.0
H724 H 0.44599 0.19426 0.11372 0.0
H725 H 0.50089 0.23386 0.05864 0.0
H726 H 0.42507 0.16881 0.07562 0.0
H727 H 0.48 0.20887 0.021 0.0
H728 H 0.45365 0.14792 0.95992 0.0
H729 H 0.4751 0.16266 0.00241 0.0
H730 H 0.39674 0.18019 0.03507 0.0
H731 H 0.37511 0.16496 0.99266 0.0
C732 C 0.45368 0.1974 0.09357 0.0
C733 C 0.475 0.21612 0.08915 0.0
C734 C 0.44168 0.18291 0.07182 0.0
C735 C 0.45104 0.18673 0.04541 0.0
C736 C 0.47265 0.20511 0.04118 0.0
C737 C 0.48446 0.21964 0.06276 0.0
C738 C 0.44093 0.15453 0.97629 0.0
C739 C 0.41273 0.15581 0.97276 0.0
C740 C 0.45323 0.163 0.00059 0.0
C741 C 0.43762 0.17302 0.02184 0.0
C742 C 0.40927 0.17249 0.01905 0.0
C743 C 0.39691 0.1639 0.9947 0.0
H744 H 0.03065 0.76908 0.21482 0.0
H745 H 0.08285 0.81305 0.1605 0.0
H746 H 0.05235 0.79227 0.25327 0.0
H747 H 0.10472 0.83661 0.19943 0.0
H748 H 0.09777 0.89634 0.27698 0.0
H749 H 0.08771 0.871 0.23495 0.0
H750 H 0.09745 0.79595 0.27714 0.0
H751 H 0.10723 0.82098 0.31896 0.0
C752 C 0.04702 0.78351 0.21114 0.0
C753 C 0.05503 0.78933 0.18471 0.0
C754 C 0.05957 0.79667 0.23317 0.0
C755 C 0.08027 0.81617 0.2293 0.0
C756 C 0.08877 0.82167 0.2029 0.0
C757 C 0.0764 0.80812 0.18072 0.0
C758 C 0.09825 0.87445 0.27713 0.0
C759 C 0.10264 0.86064 0.30138 0.0
C760 C 0.09265 0.85998 0.25307 0.0
C761 C 0.09144 0.83154 0.25297 0.0
C762 C 0.09781 0.81786 0.2768 0.0
C763 C 0.10334 0.83223 0.30073 0.0
H764 H 0.51591 0.78128 0.44717 0.0
H765 H 0.46025 0.82855 0.40039 0.0
H766 H 0.495 0.7964 0.48856 0.0
H767 H 0.4397 0.84444 0.44217 0.0
H768 H 0.38766 0.8333 0.51877 0.0
H769 H 0.411 0.82554 0.47645 0.0
H770 H 0.48807 0.83358 0.51864 0.0
H771 H 0.46471 0.84049 0.56111 0.0
C772 C 0.49949 0.79531 0.44572 0.0
C773 C 0.48962 0.80353 0.42041 0.0
C774 C 0.48758 0.80414 0.46955 0.0
C775 C 0.46557 0.82158 0.46875 0.0
C776 C 0.45636 0.83068 0.44348 0.0
C777 C 0.46826 0.82174 0.41955 0.0
C778 C 0.40959 0.83358 0.519 0.0
C779 C 0.42431 0.83715 0.54339 0.0
C780 C 0.423 0.82934 0.49467 0.0
C781 C 0.45144 0.82878 0.49412 0.0
C782 C 0.46614 0.83338 0.51839 0.0
C783 C 0.45274 0.83742 0.54274 0.0
H784 H 0.42274 0.20418 0.67174 0.0
H785 H 0.44146 0.27374 0.7232 0.0
H786 H 0.401 0.18159 0.70952 0.0
H787 H 0.42092 0.2509 0.76106 0.0
H788 H 0.37692 0.20918 0.82576 0.0
H789 H 0.38287 0.23249 0.7831 0.0
H790 H 0.41839 0.16091 0.74883 0.0
H791 H 0.41125 0.13734 0.79105 0.0
C792 C 0.4219 0.21477 0.69103 0.0
C793 C 0.43415 0.24055 0.69466 0.0
C794 C 0.40961 0.20177 0.71271 0.0
C795 C 0.40961 0.21421 0.73845 0.0
C796 C 0.42027 0.24075 0.7415 0.0
C797 C 0.43225 0.25385 0.71978 0.0
C798 C 0.38569 0.19838 0.80894 0.0
C799 C 0.39405 0.17163 0.81178 0.0
C800 C 0.38914 0.21173 0.78454 0.0
C801 C 0.40144 0.19873 0.76262 0.0
C802 C 0.40854 0.17148 0.76513 0.0
C803 C 0.40468 0.158 0.78942 0.0
H804 H 0.06956 0.20042 0.9248 0.0
H805 H -0.00027 0.19112 0.97591 0.0
H806 H 0.09843 0.18347 0.96103 0.0
H807 H 0.02867 0.17432 0.01199 0.0
H808 H 0.09433 0.18775 0.0781 0.0
H809 H 0.06621 0.19973 0.03963 0.0
H810 H 0.1051 0.13997 0.99013 0.0
H811 H 0.13345 0.12761 0.02892 0.0
C812 C 0.06035 0.19452 0.94364 0.0
C813 C 0.03244 0.19735 0.94766 0.0
C814 C 0.07685 0.1847 0.96424 0.0
C815 C 0.06571 0.17786 0.98924 0.0
C816 C 0.0377 0.17977 0.99292 0.0
C817 C 0.02118 0.18928 0.97226 0.0
C818 C 0.09711 0.17723 0.05901 0.0
C819 C 0.11617 0.15676 0.05652 0.0
C820 C 0.08082 0.18395 0.03709 0.0
C821 C 0.08338 0.17056 0.01212 0.0
C822 C 0.10282 0.15054 0.00927 0.0
C823 C 0.11897 0.1435 0.03141 0.0
H824 H 0.29282 0.01094 0.26229 0.0
H825 H 0.34231 0.01046 0.19087 0.0
H826 H 0.25961 0.03775 0.23882 0.0
H827 H 0.30853 0.03707 0.16713 0.0
H828 H 0.24611 0.10326 0.14299 0.0
H829 H 0.28411 0.08221 0.16652 0.0
H830 H 0.22849 0.02398 0.20123 0.0
H831 H 0.191 0.04472 0.1784 0.0
C832 C 0.29668 0.01667 0.24161 0.0
C833 C 0.31993 0.00822 0.22826 0.0
C834 C 0.27765 0.03201 0.22817 0.0
C835 C 0.28135 0.03909 0.20105 0.0
C836 C 0.30526 0.03191 0.18807 0.0
C837 C 0.32446 0.01657 0.2016 0.0
C838 C 0.24212 0.08592 0.15561 0.0
C839 C 0.21553 0.0758 0.15895 0.0
C840 C 0.26381 0.0739 0.16899 0.0
C841 C 0.25911 0.05178 0.18599 0.0
C842 C 0.23263 0.04141 0.18876 0.0
C843 C 0.21115 0.05325 0.17548 0.0
H844 H 0.23238 0.05406 0.50549 0.0
H845 H 0.20172 0.11379 0.45073 0.0
H846 H 0.20297 0.01971 0.48421 0.0
H847 H 0.17185 0.07908 0.42943 0.0
H848 H 0.15678 -0.00266 0.37914 0.0
H849 H 0.17771 0.03736 0.401 0.0
H850 H 0.15467 0.00703 0.47906 0.0
H851 H 0.13412 0.96689 0.45739 0.0
C852 C 0.21922 0.05992 0.48899 0.0
C853 C 0.21946 0.08665 0.47974 0.0
C854 C 0.20215 0.04024 0.47696 0.0
C855 C 0.18493 0.04675 0.4553 0.0
C856 C 0.18497 0.07351 0.44607 0.0
C857 C 0.202 0.09334 0.45829 0.0
C858 C 0.15571 -0.00055 0.40093 0.0
C859 C 0.14427 0.97867 0.41657 0.0
C860 C 0.16762 0.02244 0.41343 0.0
C861 C 0.16823 0.02506 0.44176 0.0
C862 C 0.155 0.00525 0.45721 0.0
C863 C 0.14316 0.9823 0.44477 0.0
H864 H 0.16347 0.91627 0.66439 0.0
H865 H 0.2099 0.9453 0.73414 0.0
H866 H 0.2025 0.89132 0.64895 0.0
H867 H 0.24892 0.9214 0.71833 0.0
H868 H 0.31416 0.86762 0.69184 0.0
H869 H 0.27029 0.88 0.70948 0.0
H870 H 0.2448 0.90357 0.6294 0.0
H871 H 0.28815 0.89025 0.61167 0.0
C872 C 0.18187 0.9171 0.67657 0.0
C873 C 0.18365 0.93303 0.70031 0.0
C874 C 0.20431 0.90295 0.66764 0.0
C875 C 0.229 0.90456 0.68221 0.0
C876 C 0.23022 0.91937 0.7067 0.0
C877 C 0.20782 0.93331 0.71569 0.0
C878 C 0.29904 0.87516 0.67797 0.0
C879 C 0.30477 0.8783 0.65043 0.0
C880 C 0.27392 0.88233 0.68809 0.0
C881 C 0.25406 0.89308 0.67094 0.0
C882 C 0.25942 0.89507 0.64318 0.0
C883 C 0.28442 0.88763 0.63302 0.0
H884 H 0.3056 0.94833 0.0108 0.0
H885 H 0.29065 0.92476 0.92743 0.0
H886 H 0.33304 0.98694 -0.00365 0.0
H887 H 0.31662 0.96425 0.91275 0.0
H888 H 0.37297 0.03173 0.89083 0.0
H889 H 0.35778 0.98811 0.90834 0.0
H890 H 0.32473 0.02882 0.97802 0.0
H891 H 0.34114 0.07183 0.9613 0.0
C892 C 0.3082 0.9515 0.98935 0.0
C893 C 0.2958 0.93384 0.97019 0.0
C894 C 0.3238 0.97368 0.98103 0.0
C895 C 0.32677 0.97905 0.95335 0.0
C896 C 0.31515 0.96066 0.93422 0.0
C897 C 0.30005 0.93812 0.94259 0.0
C898 C 0.36287 0.03119 0.91013 0.0
C899 C 0.35805 0.05519 0.92458 0.0
C900 C 0.35399 0.00623 0.92009 0.0
C901 C 0.33972 0.00486 0.94448 0.0
C902 C 0.336 0.02887 0.95941 0.0
C903 C 0.34527 0.05369 0.94971 0.0
H904 H 0.32017 0.8954 0.27006 0.0
H905 H 0.34419 0.93175 0.34697 0.0
H906 H 0.27563 0.88429 0.28795 0.0
H907 H 0.29946 0.92162 0.36453 0.0
H908 H 0.19178 0.91399 0.31302 0.0
H909 H 0.23815 0.91212 0.29754 0.0
H910 H 0.26477 0.89039 0.37784 0.0
H911 H 0.21839 0.89321 0.39355 0.0
C912 C 0.31608 0.90059 0.29093 0.0
C913 C 0.33551 0.91481 0.30699 0.0
C914 C 0.2905 0.89443 0.30111 0.0
C915 C 0.28376 0.90262 0.32745 0.0
C916 C 0.30395 0.9149 0.34418 0.0
C917 C 0.32964 0.92079 0.33409 0.0
C918 C 0.2075 0.90866 0.32734 0.0
C919 C 0.20149 0.90416 0.35458 0.0
C920 C 0.23409 0.90729 0.31841 0.0
C921 C 0.25523 0.90109 0.33646 0.0
C922 C 0.24904 0.89562 0.36351 0.0
C923 C 0.22246 0.89723 0.3725 0.0
H924 H 0.3284 0.07097 0.5823 0.0
H925 H 0.36072 0.05484 0.50309 0.0
H926 H 0.34737 0.02947 0.59872 0.0
H927 H 0.38058 0.01352 0.51985 0.0
H928 H 0.39067 0.95805 0.62712 0.0
H929 H 0.38576 0.00364 0.60999 0.0
H930 H 0.36168 0.97027 0.53176 0.0
H931 H 0.36752 0.92481 0.54862 0.0
C932 C 0.34014 0.05889 0.56854 0.0
C933 C 0.34266 0.06598 0.54127 0.0
C934 C 0.35122 0.03511 0.57803 0.0
C935 C 0.36527 0.01795 0.56053 0.0
C936 C 0.3694 0.02601 0.53371 0.0
C937 C 0.35817 0.04978 0.52416 0.0
C938 C 0.38469 0.96049 0.60615 0.0
C939 C 0.37904 0.93784 0.58934 0.0
C940 C 0.38181 0.98661 0.59636 0.0
C941 C 0.37296 0.99065 0.56961 0.0
C942 C 0.36879 0.96798 0.55239 0.0
C943 C 0.37194 0.94185 0.56211 0.0
H944 H 0.15876 0.0786 0.8156 0.0
H945 H 0.21352 0.04842 0.75552 0.0
H946 H 0.19662 0.10289 0.83829 0.0
H947 H 0.25108 0.0719 0.77836 0.0
H948 H 0.31372 0.12707 0.81379 0.0
H949 H 0.27166 0.115 0.7898 0.0
H950 H 0.23587 0.08993 0.86495 0.0
H951 H 0.2777 0.10283 0.88909 0.0
C952 C 0.17877 0.07738 0.80708 0.0
C953 C 0.18318 0.06142 0.7839 0.0
C954 C 0.20045 0.09116 0.82015 0.0
C955 C 0.22688 0.08928 0.81019 0.0
C956 C 0.23097 0.07416 0.78639 0.0
C957 C 0.2094 0.06046 0.77339 0.0
C958 C 0.29675 0.1193 0.82524 0.0
C959 C 0.29915 0.11544 0.85325 0.0
C960 C 0.27267 0.11234 0.81149 0.0
C961 C 0.25056 0.10109 0.82539 0.0
C962 C 0.25245 0.09871 0.85365 0.0
C963 C 0.27649 0.10594 0.86747 0.0
H964 H 0.1431 0.9295 -0.00426 0.0
H965 H 0.17751 0.91613 0.07498 0.0
H966 H 0.12007 0.96931 0.01338 0.0
H967 H 0.15399 0.95515 0.09272 0.0
H968 H 0.10871 0.02503 0.1206 0.0
H969 H 0.10768 0.98002 0.0994 0.0
H970 H 0.14966 0.01217 0.03047 0.0
H971 H 0.15121 0.05698 0.05178 0.0
C972 C 0.14474 0.93441 0.01713 0.0
C973 C 0.16219 0.92013 0.03405 0.0
C974 C 0.13164 0.95711 0.02716 0.0
C975 C 0.13535 0.96521 0.05433 0.0
C976 C 0.15057 0.94915 0.07176 0.0
C977 C 0.16415 0.92696 0.06162 0.0
C978 C 0.11698 0.02263 0.10056 0.0
C979 C 0.13057 0.04429 0.08801 0.0
C980 C 0.11629 -0.00307 0.08846 0.0
C981 C 0.12864 0.99273 0.06342 0.0
C982 C 0.13976 0.01496 0.04969 0.0
C983 C 0.14092 0.04051 0.06199 0.0
H984 H 0.19287 0.32424 0.07224 0.0
H985 H 0.27698 0.30477 0.06233 0.0
H986 H 0.18653 0.28484 0.10059 0.0
H987 H 0.27058 0.26529 0.09087 0.0
H988 H 0.22497 0.17892 0.09238 0.0
H989 H 0.24394 0.22273 0.07981 0.0
H990 H 0.19905 0.26123 0.14331 0.0
H991 H 0.17984 0.21739 0.15591 0.0
C992 C 0.21013 0.31185 0.07656 0.0
C993 C 0.23528 0.31732 0.06471 0.0
C994 C 0.20658 0.28943 0.09304 0.0
C995 C 0.22808 0.27197 0.09785 0.0
C996 C 0.25366 0.27835 0.08733 0.0
C997 C 0.25728 0.30094 0.07102 0.0
C998 C 0.21973 0.19659 0.10421 0.0
C999 C 0.2003 0.19477 0.12461 0.0
C1000 C 0.23076 0.22171 0.0971 0.0
C1001 C 0.22252 0.24541 0.11027 0.0
C1002 C 0.20535 0.24327 0.13256 0.0
C1003 C 0.19444 0.21813 0.13978 0.0
H1004 H 0.74275 0.22261 0.95899 0.0
H1005 H 0.67223 0.17415 0.93482 0.0
H1006 H 0.72348 0.26175 0.93777 0.0
H1007 H 0.65329 0.21323 0.91248 0.0
H1008 H 0.61378 0.29705 0.91263 0.0
H1009 H 0.63351 0.25452 0.92559 0.0
H1010 H 0.7114 0.28289 0.89701 0.0
H1011 H 0.69182 0.32592 0.88514 0.0
C1012 C 0.72332 0.22019 0.94868 0.0
C1013 C 0.70889 0.19536 0.94877 0.0
C1014 C 0.71233 0.24264 0.93629 0.0
C1015 C 0.68677 0.24071 0.92342 0.0
C1016 C 0.67281 0.21554 0.92261 0.0
C1017 C 0.6837 0.19312 0.93528 0.0
C1018 C 0.63505 0.29407 0.90883 0.0
C1019 C 0.65136 0.31494 0.89825 0.0
C1020 C 0.64635 0.26959 0.9161 0.0
C1021 C 0.67414 0.26534 0.91261 0.0
C1022 C 0.69007 0.28571 0.90058 0.0
C1023 C 0.67885 0.31032 0.89366 0.0
H1024 H 0.04642 0.48368 0.22542 0.0
H1025 H 0.09698 0.42029 0.19508 0.0
H1026 H 0.00725 0.46214 0.20337 0.0
H1027 H 0.05739 0.39877 0.17244 0.0
H1028 H 0.97086 0.35465 0.17123 0.0
H1029 H 0.01452 0.37494 0.18573 0.0
H1030 H 0.98858 0.45285 0.15836 0.0
H1031 H 0.94502 0.43284 0.14454 0.0
C1032 C 0.04925 0.46525 0.2138 0.0
C1033 C 0.07483 0.45368 0.21204 0.0
C1034 C 0.02677 0.45299 0.20097 0.0
C1035 C 0.02926 0.42884 0.186 0.0
C1036 C 0.05488 0.41732 0.18395 0.0
C1037 C 0.07752 0.4297 0.19678 0.0
C1038 C 0.97472 0.37601 0.16796 0.0
C1039 C 0.95438 0.39227 0.15727 0.0
C1040 C -0.00028 0.3876 0.17615 0.0
C1041 C 0.00476 0.41558 0.1736 0.0
C1042 C 0.98504 0.43137 0.16118 0.0
C1043 C 0.96011 0.41988 0.15322 0.0
H1044 H 0.75112 0.80895 0.4277 0.0
H1045 H 0.8327 0.83762 0.44595 0.0
H1046 H 0.76847 0.76678 0.4098 0.0
H1047 H 0.85013 0.79491 0.42961 0.0
H1048 H 0.87708 0.71859 0.39005 0.0
H1049 H 0.85856 0.7636 0.39495 0.0
H1050 H 0.78601 0.72826 0.42934 0.0
H1051 H 0.80398 0.68344 0.42309 0.0
C1052 C 0.77281 0.80624 0.42764 0.0
C1053 C 0.7906 0.82633 0.4384 0.0
C1054 C 0.78277 0.78201 0.41762 0.0
C1055 C 0.81068 0.77712 0.41877 0.0
C1056 C 0.82855 0.79796 0.42813 0.0
C1057 C 0.81859 0.82246 0.43763 0.0
C1058 C 0.85706 0.72055 0.39842 0.0
C1059 C 0.84204 0.6976 0.4064 0.0
C1060 C 0.84648 0.74632 0.40132 0.0
C1061 C 0.82083 0.74969 0.41268 0.0
C1062 C 0.8056 0.72654 0.42002 0.0
C1063 C 0.81598 0.70078 0.41667 0.0
H1064 H 0.93106 0.04098 0.1458 0.0
H1065 H 0.93108 0.10784 0.20303 0.0
H1066 H 0.97002 0.06147 0.12353 0.0
H1067 H 0.9705 0.12796 0.18115 0.0
H1068 H 0.04561 0.15682 0.13784 0.0
H1069 H -0.00315 0.14605 0.14104 0.0
H1070 H 0.01461 0.06117 0.14708 0.0
H1071 H 0.06255 0.07186 0.14412 0.0
C1072 C 0.93897 0.06039 0.15319 0.0
C1073 C 0.92865 0.07244 0.1766 0.0
C1074 C 0.96119 0.07214 0.14039 0.0
C1075 C 0.97363 0.09592 0.15104 0.0
C1076 C 0.96131 0.10962 0.17249 0.0
C1077 C 0.93886 0.09798 0.18516 0.0
C1078 C 0.03884 0.13589 0.13935 0.0
C1079 C 0.05767 0.11516 0.14121 0.0
C1080 C 0.01109 0.12975 0.14116 0.0
C1081 C 0.00197 0.10279 0.14415 0.0
C1082 C 0.0209 0.08209 0.14432 0.0
C1083 C 0.04841 0.08823 0.14301 0.0
H1084 H 0.29397 0.64014 0.56496 0.0
H1085 H 0.24488 0.69935 0.52532 0.0
H1086 H 0.31916 0.67669 0.58899 0.0
H1087 H 0.27008 0.73546 0.54878 0.0
H1088 H 0.30458 0.79559 0.6071 0.0
H1089 H 0.27808 0.75541 0.59348 0.0
H1090 H 0.35171 0.71349 0.57646 0.0
H1091 H 0.37838 0.75362 0.59071 0.0
C1092 C 0.2884 0.66088 0.56157 0.0
C1093 C 0.26752 0.66688 0.54318 0.0
C1094 C 0.3029 0.68176 0.5752 0.0
C1095 C 0.29654 0.70892 0.57084 0.0
C1096 C 0.2752 0.71475 0.55295 0.0
C1097 C 0.26089 0.69401 0.53931 0.0
C1098 C 0.31516 0.77771 0.60076 0.0
C1099 C 0.34355 0.77793 0.59949 0.0
C1100 C 0.29997 0.75471 0.59293 0.0
C1101 C 0.3128 0.73146 0.58347 0.0
C1102 C 0.34125 0.73107 0.58376 0.0
C1103 C 0.35651 0.75411 0.59178 0.0
H1104 H 0.08347 0.5605 0.3212 0.0
H1105 H 0.06186 0.48447 0.35832 0.0
H1106 H 0.04589 0.58175 0.34314 0.0
H1107 H 0.0245 0.50613 0.3812 0.0
H1108 H 0.97892 0.61806 0.38757 0.0
H1109 H 0.02269 0.59707 0.38223 0.0
H1110 H 0.98202 0.52056 0.36312 0.0
H1111 H 0.93854 0.54119 0.3693 0.0
C1112 C 0.0711 0.54846 0.33464 0.0
C1113 C 0.07522 0.52063 0.33749 0.0
C1114 C 0.04963 0.56076 0.34748 0.0
C1115 C 0.03188 0.54554 0.3636 0.0
C1116 C 0.03749 0.51825 0.36841 0.0
C1117 C 0.05897 0.50588 0.35545 0.0
C1118 C 0.97937 0.59668 0.38256 0.0
C1119 C 0.95525 0.58142 0.37832 0.0
C1120 C 0.00444 0.58466 0.37952 0.0
C1121 C 0.00588 0.55719 0.37201 0.0
C1122 C 0.98174 0.54166 0.36925 0.0
C1123 C 0.95673 0.55361 0.37247 0.0
H1124 H 0.39839 0.45895 0.8329 0.0
H1125 H 0.44848 0.51164 0.78434 0.0
H1126 H 0.43902 0.44188 0.8549 0.0
H1127 H 0.48876 0.49424 0.80573 0.0
H1128 H 0.5572 0.47269 0.85997 0.0
H1129 H 0.51441 0.49298 0.84762 0.0
H1130 H 0.47617 0.41348 0.84172 0.0
H1131 H 0.51863 0.39323 0.85473 0.0
C1132 C 0.41801 0.46695 0.827 0.0
C1133 C 0.42022 0.48652 0.80678 0.0
C1134 C 0.44126 0.45713 0.83953 0.0
C1135 C 0.4671 0.46673 0.83208 0.0
C1136 C 0.46918 0.48674 0.81229 0.0
C1137 C 0.44603 0.49654 0.79983 0.0
C1138 C 0.53958 0.45956 0.85637 0.0
C1139 C 0.54143 0.43132 0.85794 0.0
C1140 C 0.5151 0.47119 0.8492 0.0
C1141 C 0.49199 0.45481 0.84338 0.0
C1142 C 0.49352 0.42668 0.84628 0.0
C1143 C 0.51796 0.41506 0.85355 0.0
H1144 H 0.93236 0.83398 0.66397 0.0
H1145 H 0.9726 0.77422 0.71199 0.0
H1146 H 0.91255 0.85273 0.70493 0.0
H1147 H 0.95368 0.79335 0.75266 0.0
H1148 H 0.90479 0.82134 0.82159 0.0
H1149 H 0.91382 0.80002 0.77807 0.0
H1150 H 0.92878 0.87878 0.7436 0.0
H1151 H 0.91881 0.90011 0.78686 0.0
C1152 C 0.93682 0.82474 0.6832 0.0
C1153 C 0.9542 0.80275 0.68475 0.0
C1154 C 0.9256 0.83556 0.70666 0.0
C1155 C 0.93162 0.82463 0.7321 0.0
C1156 C 0.94824 0.80205 0.73342 0.0
C1157 C 0.95931 0.79119 0.71005 0.0
C1158 C 0.90976 0.8341 0.80464 0.0
C1159 C 0.91146 0.86238 0.80773 0.0
C1160 C 0.915 0.82189 0.77972 0.0
C1161 C 0.92234 0.83767 0.75742 0.0
C1162 C 0.92291 0.86602 0.76026 0.0
C1163 C 0.91739 0.87825 0.78512 0.0
H1164 H 0.99485 0.17424 0.42979 0.0
H1165 H 0.93423 0.23529 0.43755 0.0
H1166 H 0.9758 0.15052 0.46831 0.0
H1167 H 0.91534 0.21158 0.47615 0.0
H1168 H 0.8749 0.15059 0.531 0.0
H1169 H 0.89171 0.16811 0.48842 0.0
H1170 H 0.97393 0.16138 0.5179 0.0
H1171 H 0.95725 0.14367 0.56048 0.0
C1172 C 0.97732 0.18248 0.43955 0.0
C1173 C 0.96613 0.20675 0.43076 0.0
C1174 C 0.96653 0.16894 0.46165 0.0
C1175 C 0.9442 0.17928 0.47523 0.0
C1176 C 0.93243 0.20303 0.46588 0.0
C1177 C 0.94334 0.21668 0.44389 0.0
C1178 C 0.89658 0.15255 0.52833 0.0
C1179 C 0.91475 0.14598 0.54923 0.0
C1180 C 0.90615 0.1627 0.50399 0.0
C1181 C 0.93407 0.16625 0.49997 0.0
C1182 C 0.95229 0.15866 0.5204 0.0
C1183 C 0.94272 0.14868 0.54483 0.0
H1184 H 0.55523 0.17773 0.15759 0.0
H1185 H 0.59489 0.25265 0.18385 0.0
H1186 H 0.56927 0.15657 0.1994 0.0
H1187 H 0.60993 0.2312 0.22528 0.0
H1188 H 0.58472 0.20134 0.30914 0.0
H1189 H 0.58369 0.21948 0.26381 0.0
H1190 H 0.60253 0.14085 0.23077 0.0
H1191 H 0.60271 0.12245 0.27625 0.0
C1192 C 0.56785 0.18937 0.17184 0.0
C1193 C 0.5735 0.21697 0.16781 0.0
C1194 C 0.57595 0.17722 0.19584 0.0
C1195 C 0.59011 0.19243 0.21599 0.0
C1196 C 0.59831 0.2192 0.21051 0.0
C1197 C 0.58991 0.23142 0.1867 0.0
C1198 C 0.58872 0.18793 0.29223 0.0
C1199 C 0.5934 0.1604 0.29623 0.0
C1200 C 0.58848 0.19839 0.26622 0.0
C1201 C 0.59319 0.18163 0.24363 0.0
C1202 C 0.59856 0.15422 0.24771 0.0
C1203 C 0.5986 0.14369 0.27375 0.0
H1204 H 0.51514 0.75423 0.95956 0.0
H1205 H 0.53948 0.82275 0.91146 0.0
H1206 H 0.53739 0.77495 -0.001 0.0
H1207 H 0.56161 0.84381 0.95138 0.0
H1208 H 0.6304 0.84646 0.0178 0.0
H1209 H 0.60236 0.83342 0.97863 0.0
H1210 H 0.53616 0.81283 0.03128 0.0
H1211 H 0.56431 0.82544 0.07058 0.0
C1212 C 0.52496 0.77392 0.95748 0.0
C1213 C 0.52578 0.78675 0.93231 0.0
C1214 C 0.53753 0.78591 0.98019 0.0
C1215 C 0.5513 0.81099 0.9783 0.0
C1216 C 0.55135 0.82432 0.95336 0.0
C1217 C 0.53858 0.81236 0.93056 0.0
C1218 C 0.6098 0.83935 0.02106 0.0
C1219 C 0.59975 0.83658 0.04736 0.0
C1220 C 0.59365 0.83212 -0.00144 0.0
C1221 C 0.56711 0.82197 0.00189 0.0
C1222 C 0.55668 0.82025 0.02812 0.0
C1223 C 0.5728 0.82751 0.05062 0.0
H1224 H 0.90325 0.22454 0.83548 0.0
H1225 H 0.96883 0.16845 0.83922 0.0
H1226 H 0.88511 0.20089 0.79522 0.0
H1227 H 0.95098 0.14519 0.79894 0.0
H1228 H 0.90925 0.10237 0.72944 0.0
H1229 H 0.91428 0.11873 0.77607 0.0
H1230 H 0.9043 0.20072 0.74932 0.0
H1231 H 0.89888 0.18448 0.70289 0.0
C1232 C 0.91341 0.20679 0.82813 0.0
C1233 C 0.93774 0.19864 0.84016 0.0
C1234 C 0.90311 0.19337 0.805 0.0
C1235 C 0.91688 0.1715 0.79372 0.0
C1236 C 0.93985 0.16192 0.8072 0.0
C1237 C 0.95019 0.17538 0.83019 0.0
C1238 C 0.90787 0.12386 0.73355 0.0
C1239 C 0.90413 0.14219 0.71242 0.0
C1240 C 0.91071 0.13319 0.76024 0.0
C1241 C 0.90971 0.16098 0.76632 0.0
C1242 C 0.90479 0.17914 0.74533 0.0
C1243 C 0.90203 0.16985 0.71866 0.0
H1244 H 0.49793 0.18304 0.57468 0.0
H1245 H 0.58013 0.21183 0.59 0.0
H1246 H 0.51262 0.1588 0.53446 0.0
H1247 H 0.59463 0.18866 0.54929 0.0
H1248 H 0.61799 0.1377 0.47941 0.0
H1249 H 0.60226 0.14819 0.52476 0.0
H1250 H 0.5257 0.17283 0.49091 0.0
H1251 H 0.54101 0.16129 0.4459 0.0
C1252 C 0.51918 0.18398 0.56956 0.0
C1253 C 0.53784 0.19961 0.58524 0.0
C1254 C 0.52757 0.17022 0.54646 0.0
C1255 C 0.55472 0.17212 0.53838 0.0
C1256 C 0.57362 0.18649 0.555 0.0
C1257 C 0.56528 0.19995 0.5783 0.0
C1258 C 0.59767 0.14501 0.48176 0.0
C1259 C 0.58086 0.14901 0.4591 0.0
C1260 C 0.58869 0.15111 0.50772 0.0
C1261 C 0.56283 0.16163 0.5115 0.0
C1262 C 0.5456 0.16442 0.48887 0.0
C1263 C 0.55445 0.158 0.46297 0.0
H1264 H 0.60387 0.75433 0.31966 0.0
H1265 H 0.58093 0.83801 0.32438 0.0
H1266 H 0.63365 0.76487 0.28218 0.0
H1267 H 0.61017 0.8484 0.28662 0.0
H1268 H 0.63546 0.789 0.19017 0.0
H1269 H 0.62347 0.77534 0.2356 0.0
H1270 H 0.65477 0.85193 0.26754 0.0
H1271 H 0.6661 0.86585 0.22191 0.0
C1272 C 0.60547 0.77507 0.31297 0.0
C1273 C 0.58968 0.79528 0.32468 0.0
C1274 C 0.62251 0.78106 0.29145 0.0
C1275 C 0.62408 0.80737 0.28119 0.0
C1276 C 0.6097 0.82794 0.29417 0.0
C1277 C 0.59273 0.82197 0.31574 0.0
C1278 C 0.64063 0.80254 0.20697 0.0
C1279 C 0.65116 0.8287 0.20246 0.0
C1280 C 0.63378 0.79471 0.2331 0.0
C1281 C 0.63759 0.81284 0.25513 0.0
C1282 C 0.65093 0.83781 0.25089 0.0
C1283 C 0.65757 0.8457 0.22479 0.0
H1284 H 0.93064 0.80559 0.09144 0.0
H1285 H 0.00743 0.84944 0.08942 0.0
H1286 H 0.91485 0.83072 0.05263 0.0
H1287 H 0.99142 0.87483 0.05067 0.0
H1288 H 0.88687 0.88702 0.99009 0.0
H1289 H 0.9029 0.87495 0.03496 0.0
H1290 H 0.98235 0.86095 0.00305 0.0
H1291 H 0.96643 0.87342 0.9581 0.0
C1292 C 0.94393 0.82101 0.0831 0.0
C1293 C 0.9704 0.82524 0.09327 0.0
C1294 C 0.93484 0.83554 0.06092 0.0
C1295 C 0.95202 0.85458 0.04845 0.0
C1296 C 0.9779 0.86 0.05965 0.0
C1297 C 0.98697 0.84554 0.08193 0.0
C1298 C 0.90789 0.88175 0.99269 0.0
C1299 C 0.92527 0.88066 0.97045 0.0
C1300 C 0.91702 0.87481 0.0184 0.0
C1301 C 0.94373 0.86663 0.02244 0.0
C1302 C 0.96167 0.86733 0.00059 0.0
C1303 C 0.95253 0.87434 0.9748 0.0
H1304 H 0.70426 0.97791 0.7851 0.0
H1305 H 0.66262 0.91757 0.83269 0.0
H1306 H 0.74743 0.96013 0.79879 0.0
H1307 H 0.70626 0.8991 0.84589 0.0
H1308 H 0.78892 0.90267 0.89175 0.0
H1309 H 0.74422 0.91231 0.87422 0.0
H1310 H 0.77723 0.92296 0.79449 0.0
H1311 H 0.82245 0.91417 0.81233 0.0
C1312 C 0.70428 0.96063 0.79833 0.0
C1313 C 0.67993 0.94928 0.80799 0.0
C1314 C 0.72914 0.95023 0.80594 0.0
C1315 C 0.73038 0.92807 0.82331 0.0
C1316 C 0.70602 0.91637 0.83266 0.0
C1317 C 0.68102 0.92691 0.82511 0.0
C1318 C 0.78671 0.90681 0.87039 0.0
C1319 C 0.8094 0.90813 0.85353 0.0
C1320 C 0.76093 0.9121 0.86028 0.0
C1321 C 0.75712 0.91869 0.83301 0.0
C1322 C 0.77956 0.91848 0.81575 0.0
C1323 C 0.80546 0.91329 0.82592 0.0
H1324 H 0.78414 0.94828 0.5077 0.0
H1325 H 0.84361 0.89629 0.5432 0.0
H1326 H 0.80896 0.98774 0.52522 0.0
H1327 H 0.86891 0.93631 0.56063 0.0
H1328 H 0.87328 0.01221 0.61994 0.0
H1329 H 0.85982 0.97052 0.59615 0.0
H1330 H 0.85089 0.01468 0.52195 0.0
H1331 H 0.86383 0.05662 0.54583 0.0
C1332 C 0.80271 0.94527 0.51905 0.0
C1333 C 0.81176 0.91914 0.52436 0.0
C1334 C 0.81714 0.96797 0.52883 0.0
C1335 C 0.84095 0.96515 0.54423 0.0
C1336 C 0.85052 0.93904 0.54891 0.0
C1337 C 0.8361 0.91619 0.53892 0.0
C1338 C 0.86885 0.01302 0.59846 0.0
C1339 C 0.86903 0.03785 0.58491 0.0
C1340 C 0.86136 0.98904 0.58478 0.0
C1341 C 0.85397 0.9894 0.55728 0.0
C1342 C 0.85604 0.01391 0.54329 0.0
C1343 C 0.86348 0.03791 0.55696 0.0
H1344 H 0.77956 0.02822 0.2709 0.0
H1345 H 0.82811 0.10003 0.29056 0.0
H1346 H 0.74008 0.0493 0.28994 0.0
H1347 H 0.7882 0.1211 0.31006 0.0
H1348 H 0.71428 0.12213 0.37333 0.0
H1349 H 0.75622 0.10925 0.35146 0.0
H1350 H 0.71165 0.09103 0.27746 0.0
H1351 H 0.66981 0.10395 0.29898 0.0
C1352 C 0.78183 0.0485 0.27936 0.0
C1353 C 0.80691 0.0625 0.27927 0.0
C1354 C 0.75916 0.06061 0.29005 0.0
C1355 C 0.76116 0.08685 0.30117 0.0
C1356 C 0.78626 0.10084 0.30149 0.0
C1357 C 0.80897 0.08883 0.29035 0.0
C1358 C 0.71349 0.11581 0.35226 0.0
C1359 C 0.68865 0.11359 0.33803 0.0
C1360 C 0.7375 0.10861 0.33977 0.0
C1361 C 0.73695 0.0989 0.31297 0.0
C1362 C 0.71244 0.09819 0.29828 0.0
C1363 C 0.68853 0.10562 0.31063 0.0
H1364 H 0.63761 0.0906 0.06361 0.0
H1365 H 0.67502 0.04975 -0.00347 0.0
H1366 H 0.62178 0.04688 0.08072 0.0
H1367 H 0.66008 0.00647 0.01385 0.0
H1368 H 0.62867 0.92964 0.04516 0.0
H1369 H 0.62544 0.97423 0.02503 0.0
H1370 H 0.64641 0.01164 0.10232 0.0
H1371 H 0.64872 0.96738 0.12253 0.0
C1372 C 0.64199 0.07238 0.05225 0.0
C1373 C 0.658 0.07356 0.02904 0.0
C1374 C 0.63307 0.04735 0.06211 0.0
C1375 C 0.63998 0.02313 0.04887 0.0
C1376 C 0.65416 0.02462 0.0245 0.0
C1377 C 0.66301 0.04952 0.01469 0.0
C1378 C 0.63214 0.94742 0.05792 0.0
C1379 C 0.63952 0.94496 0.0853 0.0
C1380 C 0.63031 0.97296 0.04639 0.0
C1381 C 0.636 -0.00348 0.06197 0.0
C1382 C 0.64161 0.994 0.08975 0.0
C1383 C 0.64324 0.96853 0.10129 0.0
H1384 H 0.71201 0.99361 0.71178 0.0
H1385 H 0.67175 0.07001 0.71825 0.0
H1386 H 0.75221 0.01675 0.69496 0.0
H1387 H 0.71238 0.09321 0.70062 0.0
H1388 H 0.78375 0.1036 0.63232 0.0
H1389 H 0.74112 0.08767 0.65209 0.0
H1390 H 0.78545 0.0549 0.71933 0.0
H1391 H 0.82796 0.07102 0.70004 0.0
C1392 C 0.71162 0.01534 0.70935 0.0
C1393 C 0.68871 0.03003 0.71632 0.0
C1394 C 0.73472 0.02855 0.6999 0.0
C1395 C 0.73531 0.05667 0.6968 0.0
C1396 C 0.71226 0.07146 0.70299 0.0
C1397 C 0.68915 0.05824 0.71302 0.0
C1398 C 0.78435 0.09334 0.65152 0.0
C1399 C 0.80921 0.08824 0.66446 0.0
C1400 C 0.75999 0.08445 0.66286 0.0
C1401 C 0.76023 0.07003 0.68705 0.0
C1402 C 0.78491 0.06594 0.70057 0.0
C1403 C 0.80918 0.07517 0.6895 0.0
H1404 H 0.74271 0.96679 0.44661 0.0
H1405 H 0.67131 0.91469 0.45128 0.0
H1406 H 0.71441 0.00469 0.43517 0.0
H1407 H 0.64296 0.95289 0.43921 0.0
H1408 H 0.62016 0.02719 0.37898 0.0
H1409 H 0.64089 0.98578 0.39484 0.0
H1410 H 0.6757 0.0298 0.4634 0.0
H1411 H 0.65482 0.07111 0.44795 0.0
C1412 C 0.721 0.96336 0.44489 0.0
C1413 C 0.70917 0.93782 0.44984 0.0
C1414 C 0.70485 0.98509 0.43862 0.0
C1415 C 0.67663 0.9816 0.43674 0.0
C1416 C 0.66473 0.95594 0.44076 0.0
C1417 C 0.6809 0.93421 0.44758 0.0
C1418 C 0.63174 0.02787 0.39777 0.0
C1419 C 0.63624 0.05243 0.41203 0.0
C1420 C 0.64344 0.00421 0.40683 0.0
C1421 C 0.66005 0.00491 0.43006 0.0
C1422 C 0.66309 0.02898 0.44528 0.0
C1423 C 0.65107 0.05253 0.43647 0.0
H1424 H 0.82081 0.97674 0.22482 0.0
H1425 H 0.84202 9e-05 0.14397 0.0
H1426 H 0.78848 0.94333 0.20665 0.0
H1427 H 0.81131 0.96499 0.12536 0.0
H1428 H 0.72651 0.93148 0.10336 0.0
H1429 H 0.76616 0.95776 0.11822 0.0
H1430 H 0.77679 0.90358 0.18542 0.0
H1431 H 0.7355 0.87878 0.17148 0.0
C1432 C 0.81905 0.9741 0.20307 0.0
C1433 C 0.83358 0.99112 0.18575 0.0
C1434 C 0.80064 0.95472 0.19254 0.0
C1435 C 0.79691 0.95138 0.16438 0.0
C1436 C 0.81291 0.96739 0.14711 0.0
C1437 C 0.8307 0.98738 0.1577 0.0
C1438 C 0.73762 0.92501 0.12107 0.0
C1439 C 0.72794 0.90333 0.13646 0.0
C1440 C 0.76057 0.93998 0.12959 0.0
C1441 C 0.77479 0.93313 0.15331 0.0
C1442 C 0.76601 0.9101 0.16756 0.0
C1443 C 0.74253 0.89565 0.15948 0.0
H1444 H 0.75956 0.0542 0.96651 0.0
H1445 H 0.82652 0.11197 0.96173 0.0
H1446 H 0.78938 0.01787 0.95429 0.0
H1447 H 0.85646 0.0751 0.94884 0.0
H1448 H 0.87657 -0.00184 0.88889 0.0
H1449 H 0.85589 0.03926 0.9061 0.0
H1450 H 0.83273 -0.00258 0.9785 0.0
H1451 H 0.85349 0.95641 0.96164 0.0
C1452 C 0.78062 0.0592 0.96265 0.0
C1453 C 0.79072 0.08597 0.96506 0.0
C1454 C 0.79771 0.03833 0.95592 0.0
C1455 C 0.82518 0.04377 0.95105 0.0
C1456 C 0.83532 0.07053 0.95273 0.0
C1457 C 0.81823 0.09151 0.96002 0.0
C1458 C 0.86761 -0.00209 0.90876 0.0
C1459 C 0.8662 0.97392 0.9237 0.0
C1460 C 0.85596 0.02145 0.91861 0.0
C1461 C 0.84254 0.02123 0.94339 0.0
C1462 C 0.84284 -0.00211 0.9592 0.0
C1463 C 0.85476 0.97447 0.94954 0.0
H1464 H 0.78768 0.68359 0.90001 0.0
H1465 H 0.86369 0.6763 0.94336 0.0
H1466 H 0.80248 0.72802 0.88411 0.0
H1467 H 0.87825 0.72063 0.92779 0.0
H1468 H 0.9041 0.7963 0.88793 0.0
H1469 H 0.89017 0.74883 0.8894 0.0
H1470 H 0.80889 0.77171 0.90911 0.0
H1471 H 0.82272 0.81943 0.90716 0.0
C1472 C 0.80778 0.69116 0.90562 0.0
C1473 C 0.8244 0.67664 0.92324 0.0
C1474 C 0.81613 0.71668 0.89669 0.0
C1475 C 0.84133 0.72793 0.905 0.0
C1476 C 0.85876 0.71246 0.9209 0.0
C1477 C 0.85037 0.68708 0.92994 0.0
C1478 C 0.88318 0.79124 0.89239 0.0
C1479 C 0.86461 0.81158 0.89803 0.0
C1480 C 0.87523 0.76405 0.89316 0.0
C1481 C 0.84855 0.75656 0.89964 0.0
C1482 C 0.82957 0.77688 0.90383 0.0
C1483 C 0.83752 0.80419 0.90295 0.0
H1484 H 0.25716 0.83936 0.08907 0.0
H1485 H 0.3336 0.84666 0.04805 0.0
H1486 H 0.27326 0.7999 0.11281 0.0
H1487 H 0.34932 0.80679 0.07098 0.0
H1488 H 0.37512 0.73646 0.11847 0.0
H1489 H 0.36188 0.78291 0.11088 0.0
H1490 H 0.27934 0.75488 0.09576 0.0
H1491 H 0.29237 0.70872 0.10416 0.0
C1492 C 0.27756 0.83279 0.08547 0.0
C1493 C 0.29393 0.8457 0.06629 0.0
C1494 C 0.28672 0.81014 0.09896 0.0
C1495 C 0.31231 0.79986 0.09333 0.0
C1496 C 0.32953 0.81422 0.0759 0.0
C1497 C 0.32047 0.83703 0.0626 0.0
C1498 C 0.35409 0.7403 0.1138 0.0
C1499 C 0.33486 0.71892 0.11141 0.0
C1500 C 0.34653 0.7669 0.10948 0.0
C1501 C 0.31963 0.77259 0.10252 0.0
C1502 C 0.30017 0.7513 0.10146 0.0
C1503 C 0.30769 0.72475 0.10599 0.0
H1504 H 0.92798 0.51055 0.80428 0.0
H1505 H 0.93107 0.58389 0.75772 0.0
H1506 H 0.96312 0.52932 0.83472 0.0
H1507 H 0.96651 0.60236 0.78779 0.0
H1508 H 0.01941 0.63644 0.85425 0.0
H1509 H 0.97749 0.61847 0.83365 0.0
H1510 H 0.01147 0.53888 0.82985 0.0
H1511 H 0.05313 0.55662 0.85091 0.0
C1512 C 0.93602 0.53074 0.80064 0.0
C1513 C 0.92697 0.54564 0.77842 0.0
C1514 C 0.95618 0.54144 0.81804 0.0
C1515 C 0.96767 0.56724 0.81357 0.0
C1516 C 0.95783 0.58255 0.79198 0.0
C1517 C 0.93767 0.57187 0.7746 0.0
C1518 C 0.01779 0.61502 0.84942 0.0
C1519 C 0.03977 0.59804 0.85382 0.0
C1520 C 0.99381 0.60477 0.83752 0.0
C1521 C 0.99132 0.57736 0.82983 0.0
C1522 C 0.01269 0.56007 0.83571 0.0
C1523 C 0.03666 0.57029 0.84763 0.0
H1524 H 0.26212 0.17909 0.59893 0.0
H1525 H 0.18476 0.15292 0.56455 0.0
H1526 H 0.24171 0.21981 0.61687 0.0
H1527 H 0.16462 0.19399 0.58139 0.0
H1528 H 0.13072 0.26675 0.62084 0.0
H1529 H 0.15056 0.2223 0.61709 0.0
H1530 H 0.22729 0.26003 0.59632 0.0
H1531 H 0.20771 0.3044 0.60119 0.0
C1532 C 0.24066 0.18186 0.59556 0.0
C1533 C 0.22511 0.16301 0.58002 0.0
C1534 C 0.22901 0.20529 0.60564 0.0
C1535 C 0.20165 0.2105 0.6001 0.0
C1536 C 0.1857 0.19064 0.58624 0.0
C1537 C 0.19728 0.16705 0.57646 0.0
C1538 C 0.1519 0.26551 0.61571 0.0
C1539 C 0.16758 0.28903 0.61095 0.0
C1540 C 0.16326 0.24003 0.61352 0.0
C1541 C 0.19047 0.2375 0.60619 0.0
C1542 C 0.20638 0.26115 0.60241 0.0
C1543 C 0.1951 0.28664 0.60495 0.0
H1544 H 0.11399 0.96745 0.84123 0.0
H1545 H 0.0631 0.98898 0.77344 0.0
H1546 H 0.07354 0.95769 0.86778 0.0
H1547 H 0.02306 0.97902 0.7997 0.0
H1548 H 0.95389 0.9743 0.85535 0.0
H1549 H -0.00333 0.99328 0.83902 0.0
H1550 H 0.03775 0.92193 0.86516 0.0
H1551 H -0.0047 0.90319 0.88182 0.0
C1552 C 0.09424 0.97025 0.83206 0.0
C1553 C 0.09176 0.97872 0.80516 0.0
C1554 C 0.07111 0.96467 0.84725 0.0
C1555 C 0.04513 0.96769 0.83586 0.0
C1556 C 0.04276 0.97692 0.80923 0.0
C1557 C 0.06577 0.98233 0.79406 0.0
C1558 C 0.97217 0.96297 0.85819 0.0
C1559 C 0.97113 0.93703 0.86943 0.0
C1560 C -0.00338 0.97377 0.8487 0.0
C1561 C 0.02047 0.95891 0.85045 0.0
C1562 C 0.01977 0.93394 0.8636 0.0
C1563 C -0.00464 0.92311 0.87296 0.0
H1564 H 0.67407 0.35051 0.44486 0.0
H1565 H 0.73546 0.29593 0.472 0.0
H1566 H 0.65433 0.3147 0.4157 0.0
H1567 H 0.71544 0.26018 0.44357 0.0
H1568 H 0.68456 0.20189 0.38238 0.0
H1569 H 0.70639 0.24409 0.3981 0.0
H1570 H 0.62894 0.2731 0.42381 0.0
H1571 H 0.60703 0.23131 0.40737 0.0
C1572 C 0.68345 0.33095 0.44448 0.0
C1573 C 0.70614 0.32594 0.46094 0.0
C1574 C 0.67211 0.31045 0.42783 0.0
C1575 C 0.68328 0.2846 0.42735 0.0
C1576 C 0.70658 0.27998 0.44309 0.0
C1577 C 0.71792 0.30043 0.45963 0.0
C1578 C 0.67214 0.21752 0.39089 0.0
C1579 C 0.64417 0.2131 0.39413 0.0
C1580 C 0.68465 0.24163 0.39999 0.0
C1581 C 0.66947 0.2617 0.41268 0.0
C1582 C 0.64121 0.25811 0.41401 0.0
C1583 C 0.62865 0.23407 0.40471 0.0
H1584 H 0.93098 0.48073 0.66508 0.0
H1585 H 0.91798 0.39977 0.69496 0.0
H1586 H 0.97096 0.46597 0.64125 0.0
H1587 H 0.95825 0.38524 0.67184 0.0
H1588 H 0.02706 0.36127 0.62152 0.0
H1589 H 0.98163 0.37687 0.63037 0.0
H1590 H 0.01534 0.45435 0.65729 0.0
H1591 H 0.06061 0.43907 0.64774 0.0
C1592 C 0.93644 0.4597 0.66628 0.0
C1593 C 0.92158 0.44149 0.68225 0.0
C1594 C 0.95941 0.45129 0.65272 0.0
C1595 C 0.96801 0.42455 0.65495 0.0
C1596 C 0.95209 0.40594 0.66948 0.0
C1597 C 0.92905 0.41431 0.68291 0.0
C1598 C 0.02473 0.38179 0.62892 0.0
C1599 C 0.04746 0.39878 0.63439 0.0
C1600 C -0.0013 0.39068 0.63405 0.0
C1601 C 0.99488 0.4167 0.64488 0.0
C1602 C 0.01751 0.43426 0.64873 0.0
C1603 C 0.04353 0.42543 0.64343 0.0
H1604 H 0.52845 0.54611 0.24562 0.0
H1605 H 0.57391 0.54708 0.17155 0.0
H1606 H 0.48862 0.56084 0.22118 0.0
H1607 H 0.53361 0.56237 0.14701 0.0
H1608 H 0.46193 0.62649 0.1341 0.0
H1609 H 0.50373 0.60641 0.15026 0.0
H1610 H 0.45741 0.53963 0.18298 0.0
H1611 H 0.41559 0.55946 0.16679 0.0
C1612 C 0.53001 0.54964 0.22413 0.0
C1613 C 0.55433 0.5455 0.21049 0.0
C1614 C 0.50709 0.55779 0.21011 0.0
C1615 C 0.50805 0.56234 0.18222 0.0
C1616 C 0.53245 0.55881 0.16853 0.0
C1617 C 0.55541 0.55015 0.18254 0.0
C1618 C 0.4607 0.60726 0.14428 0.0
C1619 C 0.43545 0.59478 0.14959 0.0
C1620 C 0.48462 0.59573 0.15335 0.0
C1621 C 0.48362 0.57172 0.16809 0.0
C1622 C 0.45857 0.55834 0.17186 0.0
C1623 C 0.43469 0.56966 0.16253 0.0
H1624 H 0.55115 0.66742 0.83643 0.0
H1625 H 0.58581 0.74719 0.82296 0.0
H1626 H 0.57274 0.65067 0.79611 0.0
H1627 H 0.60827 0.73011 0.7828 0.0
H1628 H 0.59548 0.70047 0.69327 0.0
H1629 H 0.58951 0.71758 0.73906 0.0
H1630 H 0.61191 0.64013 0.77081 0.0
H1631 H 0.61698 0.62273 0.72488 0.0
C1632 C 0.56402 0.68123 0.82527 0.0
C1633 C 0.56624 0.70878 0.83251 0.0
C1634 C 0.57662 0.67155 0.80219 0.0
C1635 C 0.59187 0.68918 0.78595 0.0
C1636 C 0.59614 0.71619 0.79459 0.0
C1637 C 0.58342 0.72592 0.81769 0.0
C1638 C 0.59942 0.6872 0.71003 0.0
C1639 C 0.60607 0.66009 0.70549 0.0
C1640 C 0.5963 0.69709 0.73633 0.0
C1641 C 0.60004 0.68014 0.75861 0.0
C1642 C 0.60839 0.65353 0.75406 0.0
C1643 C 0.61125 0.64357 0.72776 0.0
H1644 H 0.49616 0.36018 0.07157 0.0
H1645 H 0.57613 0.33134 0.08985 0.0
H1646 H 0.51384 0.38315 0.03194 0.0
H1647 H 0.59349 0.35336 0.05005 0.0
H1648 H 0.54609 0.37157 0.94425 0.0
H1649 H 0.52776 0.36529 0.98912 0.0
H1650 H 0.6042 0.39269 0.02486 0.0
H1651 H 0.62286 0.39802 0.97985 0.0
C1652 C 0.51758 0.35915 0.06744 0.0
C1653 C 0.53465 0.34349 0.08352 0.0
C1654 C 0.52767 0.37217 0.04465 0.0
C1655 C 0.55496 0.3697 0.03754 0.0
C1656 C 0.57241 0.35588 0.05495 0.0
C1657 C 0.56238 0.34302 0.07773 0.0
C1658 C 0.55887 0.3766 0.96168 0.0
C1659 C 0.58609 0.38468 0.95856 0.0
C1660 C 0.54828 0.37326 0.98745 0.0
C1661 C 0.56461 0.37823 0.01062 0.0
C1662 C 0.59127 0.38815 0.00743 0.0
C1663 C 0.60195 0.3912 0.98165 0.0
H1664 H 0.9789 0.29336 0.31739 0.0
H1665 H 0.92389 0.22399 0.31238 0.0
H1666 H 0.95124 0.31662 0.28458 0.0
H1667 H 0.89577 0.24764 0.2798 0.0
H1668 H 0.88303 0.28389 0.1936 0.0
H1669 H 0.90058 0.26094 0.23298 0.0
H1670 H 0.90804 0.33738 0.27623 0.0
H1671 H 0.89108 0.36056 0.2365 0.0
C1672 C 0.96072 0.28317 0.30952 0.0
C1673 C 0.95375 0.2567 0.31729 0.0
C1674 C 0.94468 0.29665 0.29089 0.0
C1675 C 0.92125 0.28401 0.27961 0.0
C1676 C 0.91383 0.25781 0.28796 0.0
C1677 C 0.92992 0.2443 0.30665 0.0
C1678 C 0.88792 0.2958 0.21165 0.0
C1679 C 0.88617 0.32415 0.21169 0.0
C1680 C 0.89785 0.28258 0.23433 0.0
C1681 C 0.90613 0.29739 0.25759 0.0
C1682 C 0.90237 0.32548 0.25838 0.0
C1683 C 0.89247 0.33874 0.23566 0.0
H1684 H 0.99432 0.68474 0.58578 0.0
H1685 H 0.91494 0.71819 0.59451 0.0
H1686 H 0.97713 0.65545 0.54903 0.0
H1687 H 0.898 0.68978 0.55717 0.0
H1688 H 0.94786 0.6464 0.45994 0.0
H1689 H 0.96474 0.66327 0.50341 0.0
H1690 H 0.88661 0.64626 0.53856 0.0
H1691 H 0.86935 0.63024 0.4946 0.0
C1692 C 0.97313 0.68566 0.57999 0.0
C1693 C 0.95605 0.70401 0.59277 0.0
C1694 C 0.96331 0.66897 0.55885 0.0
C1695 C 0.93627 0.6705 0.54984 0.0
C1696 C 0.91885 0.6878 0.5637 0.0
C1697 C 0.92861 0.70427 0.58504 0.0
C1698 C 0.93435 0.64584 0.477 0.0
C1699 C 0.90711 0.63741 0.47368 0.0
C1700 C 0.94411 0.65536 0.50207 0.0
C1701 C 0.92696 0.65641 0.5245 0.0
C1702 C 0.9002 0.64627 0.52158 0.0
C1703 C 0.89035 0.63695 0.49641 0.0
H1704 H 0.57181 0.32713 0.65546 0.0
H1705 H 0.53738 0.26511 0.70631 0.0
H1706 H 0.59553 0.3473 0.69479 0.0
H1707 H 0.56015 0.2856 0.74541 0.0
H1708 H 0.61156 0.31895 0.81198 0.0
H1709 H 0.60149 0.29608 0.7689 0.0
H1710 H 0.58142 0.37267 0.73365 0.0
H1711 H 0.59244 0.39558 0.77636 0.0
C1712 C 0.56954 0.31765 0.67493 0.0
C1713 C 0.55248 0.29473 0.67783 0.0
C1714 C 0.583 0.32927 0.69747 0.0
C1715 C 0.57958 0.3182 0.72329 0.0
C1716 C 0.56358 0.29449 0.72582 0.0
C1717 C 0.55028 0.28285 0.70337 0.0
C1718 C 0.60532 0.33091 0.79491 0.0
C1719 C 0.60234 0.35898 0.79766 0.0
C1720 C 0.59951 0.31782 0.77025 0.0
C1721 C 0.5903 0.33249 0.74792 0.0
C1722 C 0.58872 0.36077 0.75033 0.0
C1723 C 0.59482 0.3739 0.77491 0.0
H1724 H 0.93774 0.28179 0.92856 0.0
H1725 H 0.01066 0.32822 0.9492 0.0
H1726 H 0.91464 0.30286 0.9661 0.0
H1727 H 0.98725 0.34979 0.98656 0.0
H1728 H 0.94965 0.34228 0.07212 0.0
H1729 H 0.97203 0.33248 0.02982 0.0
H1730 H 0.89703 0.34405 0.98599 0.0
H1731 H 0.87435 0.35334 0.0285 0.0
C1732 C 0.9487 0.2969 0.94079 0.0
C1733 C 0.97616 0.30304 0.93616 0.0
C1734 C 0.93537 0.30915 0.9622 0.0
C1735 C 0.9492 0.32782 0.97944 0.0
C1736 C 0.97621 0.33515 0.97385 0.0
C1737 C 0.98956 0.32289 0.95239 0.0
C1738 C 0.93794 0.34301 0.05347 0.0
C1739 C 0.9101 0.34814 0.05374 0.0
C1740 C 0.95086 0.33764 0.02917 0.0
C1741 C 0.93626 0.33736 0.00457 0.0
C1742 C 0.90872 0.34377 0.00468 0.0
C1743 C 0.89576 0.34915 0.02903 0.0
H1744 H 0.90271 0.7535 0.20537 0.0
H1745 H 0.95442 0.68746 0.18432 0.0
H1746 H 0.88537 0.72774 0.24335 0.0
H1747 H 0.9377 0.66211 0.22268 0.0
H1748 H 0.89343 0.61631 0.28762 0.0
H1749 H 0.90059 0.6388 0.24455 0.0
H1750 H 0.90506 0.71624 0.28625 0.0
H1751 H 0.89727 0.69402 0.32893 0.0
C1752 C 0.91014 0.73337 0.20864 0.0
C1753 C 0.9302 0.72269 0.19204 0.0
C1754 C 0.90032 0.71867 0.23051 0.0
C1755 C 0.91046 0.69304 0.23633 0.0
C1756 C 0.9293 0.6817 0.21871 0.0
C1757 C 0.93901 0.69633 0.19677 0.0
C1758 C 0.89573 0.63815 0.28753 0.0
C1759 C 0.89504 0.65332 0.31177 0.0
C1760 C 0.8999 0.65103 0.26286 0.0
C1761 C 0.90342 0.67932 0.26193 0.0
C1762 C 0.902 0.69447 0.28611 0.0
C1763 C 0.89781 0.68165 0.31069 0.0
H1764 H 0.49916 0.66096 0.42631 0.0
H1765 H 0.57999 0.69024 0.40821 0.0
H1766 H 0.51655 0.63973 0.46703 0.0
H1767 H 0.59708 0.67007 0.44909 0.0
H1768 H 0.54919 0.65633 0.55477 0.0
H1769 H 0.53116 0.66026 0.50908 0.0
H1770 H 0.60684 0.63292 0.47694 0.0
H1771 H 0.62524 0.63003 0.52275 0.0
C1772 C 0.5207 0.66236 0.43067 0.0
C1773 C 0.5381 0.67782 0.41443 0.0
C1774 C 0.53062 0.65039 0.45411 0.0
C1775 C 0.55808 0.65374 0.46167 0.0
C1776 C 0.57584 0.66697 0.44394 0.0
C1777 C 0.56597 0.67877 0.42052 0.0
C1778 C 0.5619 0.65095 0.53796 0.0
C1779 C 0.58882 0.64349 0.54229 0.0
C1780 C 0.55145 0.65286 0.51172 0.0
C1781 C 0.56761 0.64703 0.48929 0.0
C1782 C 0.59403 0.63803 0.49375 0.0
C1783 C 0.60459 0.63644 0.51998 0.0
H1784 H 0.83574 0.5613 0.69043 0.0
H1785 H 0.78276 0.53727 0.75503 0.0
H1786 H 0.79993 0.58832 0.6711 0.0
H1787 H 0.74654 0.56297 0.73509 0.0
H1788 H 0.68647 0.61844 0.70112 0.0
H1789 H 0.72781 0.60448 0.72389 0.0
H1790 H 0.7597 0.57896 0.64686 0.0
H1791 H 0.71915 0.59414 0.62419 0.0
C1792 C 0.81643 0.56189 0.70052 0.0
C1793 C 0.81188 0.547 0.72404 0.0
C1794 C 0.79587 0.57726 0.6894 0.0
C1795 C 0.77018 0.5776 0.7013 0.0
C1796 C 0.76612 0.56356 0.72552 0.0
C1797 C 0.78683 0.54861 0.73689 0.0
C1798 C 0.70257 0.61024 0.68909 0.0
C1799 C 0.6995 0.6071 0.66094 0.0
C1800 C 0.72619 0.60211 0.70212 0.0
C1801 C 0.74701 0.59025 0.6873 0.0
C1802 C 0.74435 0.58833 0.65897 0.0
C1803 C 0.72095 0.59688 0.64592 0.0
H1804 H 0.70436 0.58026 0.00373 0.0
H1805 H 0.75075 0.57694 0.93037 0.0
H1806 H 0.66988 0.55012 0.98297 0.0
H1807 H 0.71686 0.54631 0.91 0.0
H1808 H 0.64982 0.49789 0.87328 0.0
H1809 H 0.67142 0.53869 0.89284 0.0
H1810 H 0.66918 0.50271 0.97195 0.0
H1811 H 0.64694 0.46251 0.95269 0.0
C1812 C 0.70711 0.57325 0.98313 0.0
C1813 C 0.73046 0.58062 0.96883 0.0
C1814 C 0.68737 0.55598 0.97125 0.0
C1815 C 0.69069 0.54566 0.9449 0.0
C1816 C 0.71344 0.55415 0.93018 0.0
C1817 C 0.73306 0.57151 0.94199 0.0
C1818 C 0.65336 0.49897 0.89494 0.0
C1819 C 0.64721 0.47672 0.91134 0.0
C1820 C 0.66587 0.52228 0.90612 0.0
C1821 C 0.67247 0.52376 0.93387 0.0
C1822 C 0.66429 0.50236 0.95053 0.0
C1823 C 0.65171 0.47915 0.93941 0.0
H1824 H 0.67342 0.40829 0.24621 0.0
H1825 H 0.66924 0.45974 0.17641 0.0
H1826 H 0.71172 0.38531 0.22655 0.0
H1827 H 0.70781 0.43733 0.15719 0.0
H1828 H 0.80293 0.38826 0.20415 0.0
H1829 H 0.75841 0.39963 0.22048 0.0
H1830 H 0.72686 0.39689 0.13849 0.0
H1831 H 0.77164 0.38618 0.12203 0.0
C1832 C 0.6804 0.41443 0.22651 0.0
C1833 C 0.66857 0.43611 0.21305 0.0
C1834 C 0.70244 0.40137 0.21533 0.0
C1835 C 0.71306 0.40975 0.19051 0.0
C1836 C 0.70004 0.43022 0.17625 0.0
C1837 C 0.67799 0.44321 0.18737 0.0
C1838 C 0.78646 0.38981 0.18961 0.0
C1839 C 0.79094 0.38679 0.16175 0.0
C1840 C 0.76084 0.39609 0.199 0.0
C1841 C 0.73911 0.39932 0.18075 0.0
C1842 C 0.7433 0.39496 0.15301 0.0
C1843 C 0.76895 0.38879 0.1436 0.0
H1844 H 0.82506 0.42257 0.51078 0.0
H1845 H 0.79466 0.40304 0.4303 0.0
H1846 H 0.84819 0.46278 0.49359 0.0
H1847 H 0.81681 0.44365 0.41332 0.0
H1848 H 0.8665 0.51408 0.38568 0.0
H1849 H 0.85674 0.46917 0.40338 0.0
H1850 H 0.83263 0.50533 0.47914 0.0
H1851 H 0.84333 0.54997 0.46184 0.0
C1852 C 0.82359 0.4267 0.48936 0.0
C1853 C 0.80775 0.40986 0.47194 0.0
C1854 C 0.83669 0.44983 0.47954 0.0
C1855 C 0.83399 0.45674 0.45217 0.0
C1856 C 0.81956 0.4389 0.43447 0.0
C1857 C 0.8067 0.41563 0.44424 0.0
C1858 C 0.85939 0.51237 0.40622 0.0
C1859 C 0.85535 0.53558 0.42224 0.0
C1860 C 0.85373 0.48664 0.41634 0.0
C1861 C 0.84368 0.48359 0.4426 0.0
C1862 C 0.84071 0.50681 0.45896 0.0
C1863 C 0.84662 0.5325 0.44895 0.0
H1864 H 0.83887 0.45691 0.82839 0.0
H1865 H 0.81392 0.42552 0.74967 0.0
H1866 H 0.79722 0.4391 0.84751 0.0
H1867 H 0.77257 0.40668 0.76903 0.0
H1868 H 0.68755 0.42078 0.80346 0.0
H1869 H 0.73224 0.42674 0.7843 0.0
H1870 H 0.76869 0.40198 0.85971 0.0
H1871 H 0.72385 0.397 0.87922 0.0
C1872 C 0.82482 0.44554 0.81531 0.0
C1873 C 0.82944 0.44302 0.78745 0.0
C1874 C 0.80094 0.43517 0.82631 0.0
C1875 C 0.78132 0.42178 0.80972 0.0
C1876 C 0.78696 0.41746 0.78223 0.0
C1877 C 0.81073 0.4281 0.77117 0.0
C1878 C 0.70507 0.41635 0.81588 0.0
C1879 C 0.70219 0.40885 0.84298 0.0
C1880 C 0.73075 0.41953 0.80482 0.0
C1881 C 0.75413 0.41496 0.82051 0.0
C1882 C 0.75114 0.40615 0.84723 0.0
C1883 C 0.72545 0.40324 0.85839 0.0
H1884 H 0.85778 0.59408 0.08007 0.0
H1885 H 0.84255 0.54915 0.00554 0.0
H1886 H 0.87133 0.5525 0.10205 0.0
H1887 H 0.85489 0.50784 0.02754 0.0
H1888 H 0.88857 0.43673 0.06674 0.0
H1889 H 0.88864 0.48156 0.04701 0.0
H1890 H 0.84885 0.51271 0.11785 0.0
H1891 H 0.85006 0.4681 0.13805 0.0
C1892 C 0.85759 0.57543 0.06832 0.0
C1893 C 0.84884 0.57489 0.04114 0.0
C1894 C 0.86517 0.55157 0.08095 0.0
C1895 C 0.86402 0.52673 0.06666 0.0
C1896 C 0.85646 0.52656 0.03915 0.0
C1897 C 0.84913 0.55033 0.02653 0.0
C1898 C 0.88015 0.45328 0.07819 0.0
C1899 C 0.86892 0.4489 0.10372 0.0
C1900 C 0.8801 0.47895 0.06687 0.0
C1901 C 0.86834 0.50071 0.08061 0.0
C1902 C 0.85832 0.49655 0.10676 0.0
C1903 C 0.8588 0.47092 0.11829 0.0
H1904 H 0.69981 0.53775 0.2584 0.0
H1905 H 0.65102 0.57783 0.31795 0.0
H1906 H 0.74055 0.55665 0.27995 0.0
H1907 H 0.69209 0.59746 0.33923 0.0
H1908 H 0.77251 0.59151 0.38892 0.0
H1909 H 0.72961 0.58106 0.36583 0.0
H1910 H 0.76674 0.5974 0.28896 0.0
H1911 H 0.8099 0.60708 0.31199 0.0
C1912 C 0.69774 0.55093 0.2759 0.0
C1913 C 0.67215 0.55612 0.28659 0.0
C1914 C 0.72115 0.56198 0.28814 0.0
C1915 C 0.7196 0.5786 0.31131 0.0
C1916 C 0.69396 0.58448 0.32157 0.0
C1917 C 0.67045 0.57334 0.30932 0.0
C1918 C 0.77147 0.59315 0.36711 0.0
C1919 C 0.79472 0.5997 0.35224 0.0
C1920 C 0.7468 0.58734 0.35389 0.0
C1921 C 0.74481 0.58814 0.32553 0.0
C1922 C 0.76775 0.59607 0.3108 0.0
C1923 C 0.79245 0.6017 0.324 0.0
H1924 H 0.69187 0.44706 0.494 0.0
H1925 H 0.70872 0.42378 0.57623 0.0
H1926 H 0.66366 0.48328 0.5104 0.0
H1927 H 0.68194 0.46093 0.59284 0.0
H1928 H 0.62562 0.52425 0.61864 0.0
H1929 H 0.6403 0.48178 0.59869 0.0
H1930 H 0.67201 0.52552 0.53039 0.0
H1931 H 0.65613 0.56735 0.54954 0.0
C1932 C 0.68949 0.44974 0.51561 0.0
C1933 C 0.70268 0.43292 0.53389 0.0
C1934 C 0.67343 0.47055 0.52504 0.0
C1935 C 0.6708 0.47537 0.55298 0.0
C1936 C 0.68314 0.45769 0.5712 0.0
C1937 C 0.69871 0.43651 0.56172 0.0
C1938 C 0.63528 0.52461 0.59911 0.0
C1939 C 0.64001 0.54915 0.58581 0.0
C1940 C 0.64386 0.50032 0.58776 0.0
C1941 C 0.65769 0.50018 0.56308 0.0
C1942 C 0.66111 0.52464 0.54921 0.0
C1943 C 0.65216 0.54878 0.56032 0.0
H1944 H 0.75356 0.82205 0.58799 0.0
H1945 H 0.6812 0.82992 0.53883 0.0
H1946 H 0.73157 0.78516 0.61249 0.0
H1947 H 0.65957 0.793 0.56286 0.0
H1948 H 0.69895 0.69481 0.60769 0.0
H1949 H 0.71964 0.73866 0.59784 0.0
H1950 H 0.64184 0.77585 0.60516 0.0
H1951 H 0.62095 0.73185 0.61447 0.0
C1952 C 0.73283 0.81625 0.58274 0.0
C1953 C 0.71924 0.82857 0.56121 0.0
C1954 C 0.72031 0.79508 0.59669 0.0
C1955 C 0.69396 0.78603 0.58944 0.0
C1956 C 0.6798 0.79963 0.56913 0.0
C1957 C 0.6923 0.82066 0.55517 0.0
C1958 C 0.6863 0.71238 0.60762 0.0
C1959 C 0.6582 0.70975 0.61124 0.0
C1960 C 0.69822 0.73758 0.60222 0.0
C1961 C 0.68229 0.76065 0.60044 0.0
C1962 C 0.65453 0.75832 0.60596 0.0
C1963 C 0.64259 0.73312 0.6113 0.0
H1964 H 0.22817 0.69881 0.4002 0.0
H1965 H 0.15758 0.6811 0.44815 0.0
H1966 H 0.20806 0.74077 0.38559 0.0
H1967 H 0.13789 0.72329 0.43416 0.0
H1968 H 0.1846 0.82855 0.40509 0.0
H1969 H 0.20102 0.78297 0.4094 0.0
H1970 H 0.11944 0.7506 0.39839 0.0
H1971 H 0.10279 0.79648 0.39471 0.0
C1972 C 0.20821 0.70366 0.40733 0.0
C1973 C 0.19466 0.68684 0.42566 0.0
C1974 C 0.19677 0.72778 0.39909 0.0
C1975 C 0.1716 0.73559 0.40908 0.0
C1976 C 0.15725 0.71784 0.42596 0.0
C1977 C 0.16863 0.69369 0.43411 0.0
C1978 C 0.17012 0.81176 0.4035 0.0
C1979 C 0.14232 0.81619 0.39991 0.0
C1980 C 0.1796 0.78556 0.40566 0.0
C1981 C 0.16155 0.76313 0.40417 0.0
C1982 C 0.13382 0.76749 0.3999 0.0
C1983 C 0.12429 0.79376 0.39778 0.0
H1984 H 0.58438 0.90003 0.73598 0.0
H1985 H 0.58186 0.97257 0.68843 0.0
H1986 H 0.54791 0.87978 0.7082 0.0
H1987 H 0.54612 0.95199 0.65998 0.0
H1988 H 0.45625 0.92582 0.65063 0.0
H1989 H 0.49945 0.94304 0.66809 0.0
H1990 H 0.53099 0.86231 0.66535 0.0
H1991 H 0.48716 0.8448 0.64855 0.0
C1992 C 0.57648 0.91138 0.71917 0.0
C1993 C 0.58557 0.93805 0.71468 0.0
C1994 C 0.55568 0.89972 0.70311 0.0
C1995 C 0.54381 0.91443 0.6821 0.0
C1996 C 0.55437 0.94037 0.67642 0.0
C1997 C 0.57491 0.95212 0.69265 0.0
C1998 C 0.47244 0.91171 0.65342 0.0
C1999 C 0.4681 0.88386 0.64858 0.0
C2000 C 0.49737 0.92165 0.66323 0.0
C2001 C 0.5187 0.90404 0.66825 0.0
C2002 C 0.51484 0.87635 0.66209 0.0
C2003 C 0.48977 0.86634 0.65234 0.0
H2004 H 0.311 0.35648 0.93603 0.0
H2005 H 0.24197 0.30422 0.95286 0.0
H2006 H 0.33391 0.31818 0.91571 0.0
H2007 H 0.26505 0.26608 0.93372 0.0
H2008 H 0.30526 0.2013 0.88889 0.0
H2009 H 0.2823 0.24381 0.89559 0.0
H2010 H 0.35509 0.27896 0.93263 0.0
H2011 H 0.37833 0.2368 0.92476 0.0
C2012 C 0.3006 0.33693 0.93511 0.0
C2013 C 0.27481 0.33333 0.94633 0.0
C2014 C 0.31379 0.31495 0.92365 0.0
C2015 C 0.30148 0.28895 0.92331 0.0
C2016 C 0.27509 0.28579 0.93326 0.0
C2017 C 0.26188 0.30772 0.94448 0.0
C2018 C 0.31641 0.21825 0.89818 0.0
C2019 C 0.34344 0.21565 0.90669 0.0
C2020 C 0.30325 0.24259 0.90208 0.0
C2021 C 0.31669 0.26473 0.91501 0.0
C2022 C 0.34416 0.26247 0.92234 0.0
C2023 C 0.35745 0.23822 0.91804 0.0
H2024 H 0.42081 0.50588 0.65832 0.0
H2025 H 0.41029 0.58422 0.69609 0.0
H2026 H 0.45985 0.52393 0.63411 0.0
H2027 H 0.44946 0.60194 0.67262 0.0
H2028 H 0.55044 0.5539 0.64368 0.0
H2029 H 0.50485 0.53606 0.65095 0.0
H2030 H 0.47233 0.61396 0.63191 0.0
H2031 H 0.51807 0.63206 0.62542 0.0
C2032 C 0.42645 0.52707 0.66103 0.0
C2033 C 0.41283 0.54349 0.67954 0.0
C2034 C 0.44891 0.53735 0.64729 0.0
C2035 C 0.45805 0.56422 0.65179 0.0
C2036 C 0.44293 0.58119 0.66852 0.0
C2037 C 0.42054 0.57095 0.68219 0.0
C2038 C 0.53355 0.56712 0.64065 0.0
C2039 C 0.53788 0.59455 0.63463 0.0
C2040 C 0.50735 0.55682 0.64455 0.0
C2041 C 0.48496 0.57368 0.64228 0.0
C2042 C 0.4892 0.6006 0.63431 0.0
C2043 C 0.5154 0.61096 0.63062 0.0
H2044 H 0.78401 0.16612 0.04017 0.0
H2045 H 0.71276 0.19811 0.07735 0.0
H2046 H 0.81196 0.20085 0.0629 0.0
H2047 H 0.74091 0.23219 0.10121 0.0
H2048 H 0.7901 0.31174 0.09915 0.0
H2049 H 0.76304 0.27201 0.08677 0.0
H2050 H 0.83152 0.22155 0.10254 0.0
H2051 H 0.85922 0.26189 0.11405 0.0
C2052 C 0.7744 0.18014 0.0538 0.0
C2053 C 0.74612 0.17969 0.05663 0.0
C2054 C 0.79049 0.2 0.06701 0.0
C2055 C 0.77868 0.21964 0.08359 0.0
C2056 C 0.7506 0.21783 0.08801 0.0
C2057 C 0.73446 0.19821 0.07449 0.0
C2058 C 0.79947 0.2922 0.10019 0.0
C2059 C 0.82698 0.29006 0.1073 0.0
C2060 C 0.78377 0.26928 0.09336 0.0
C2061 C 0.795 0.24347 0.09371 0.0
C2062 C 0.82231 0.24116 0.10172 0.0
C2063 C 0.83817 0.26425 0.10839 0.0
H2064 H 0.6025 0.07994 0.83972 0.0
H2065 H 0.55067 0.01789 0.80233 0.0
H2066 H 0.56327 0.09856 0.86239 0.0
H2067 H 0.51174 0.03675 0.82424 0.0
H2068 H 0.44762 0.06277 0.87999 0.0
H2069 H 0.49024 0.04314 0.86683 0.0
H2070 H 0.52302 0.12296 0.85019 0.0
H2071 H 0.48065 0.14268 0.86413 0.0
C2072 C 0.58281 0.07021 0.83643 0.0
C2073 C 0.57973 0.04749 0.81913 0.0
C2074 C 0.56032 0.08095 0.84931 0.0
C2075 C 0.53434 0.06914 0.84518 0.0
C2076 C 0.53147 0.0461 0.82831 0.0
C2077 C 0.55384 0.03539 0.81552 0.0
C2078 C 0.46404 0.07617 0.87386 0.0
C2079 C 0.4606 0.10426 0.87275 0.0
C2080 C 0.48844 0.06491 0.86619 0.0
C2081 C 0.50993 0.08142 0.85703 0.0
C2082 C 0.50698 0.10964 0.85729 0.0
C2083 C 0.4826 0.12094 0.86516 0.0
H2084 H 0.95767 0.02621 0.2777 0.0
H2085 H 0.90277 0.97687 0.3246 0.0
H2086 H -0.00399 0.00609 0.30031 0.0
H2087 H 0.94133 0.95714 0.34779 0.0
H2088 H 0.01657 0.90284 0.35145 0.0
H2089 H 0.97653 0.92607 0.33601 0.0
H2090 H 0.02042 0.00268 0.34265 0.0
H2091 H 0.06076 0.97938 0.35746 0.0
C2092 C 0.95375 0.01132 0.29312 0.0
C2093 C 0.92714 0.00298 0.29919 0.0
C2094 C 0.97578 -8e-05 0.30625 0.0
C2095 C 0.97175 0.97996 0.32584 0.0
C2096 C 0.94511 0.97221 0.33253 0.0
C2097 C 0.92303 0.98361 0.31934 0.0
C2098 C 0.01765 0.92467 0.34988 0.0
C2099 C 0.04199 0.9392 0.35536 0.0
C2100 C 0.9946 0.93802 0.34119 0.0
C2101 C -0.00467 0.96622 0.3379 0.0
C2102 C 0.01934 0.98088 0.34451 0.0
C2103 C 0.04242 0.96752 0.35311 0.0
H2104 H 0.4195 0.30472 0.16438 0.0
H2105 H 0.49001 0.28693 0.21309 0.0
H2106 H 0.39511 0.31666 0.20547 0.0
H2107 H 0.46584 0.29889 0.25374 0.0
H2108 H 0.41232 0.30569 0.32479 0.0
H2109 H 0.42694 0.28504 0.28246 0.0
H2110 H 0.40096 0.35508 0.23885 0.0
H2111 H 0.38612 0.3756 0.28092 0.0
C2112 C 0.42969 0.30315 0.18381 0.0
C2113 C 0.45674 0.29518 0.1855 0.0
C2114 C 0.41576 0.30997 0.20727 0.0
C2115 C 0.42857 0.30858 0.23276 0.0
C2116 C 0.4553 0.29976 0.23442 0.0
C2117 C 0.46925 0.29322 0.21107 0.0
C2118 C 0.40927 0.31645 0.30611 0.0
C2119 C 0.39855 0.34248 0.30623 0.0
C2120 C 0.4177 0.30466 0.28192 0.0
C2121 C 0.41533 0.31861 0.25746 0.0
C2122 C 0.4029 0.3438 0.25736 0.0
C2123 C 0.39464 0.35565 0.28152 0.0
H2124 H 0.39835 0.68802 0.91184 0.0
H2125 H 0.47407 0.64902 0.92781 0.0
H2126 H 0.38007 0.66968 0.95326 0.0
H2127 H 0.45546 0.6298 0.96887 0.0
H2128 H 0.34986 0.63179 0.02777 0.0
H2129 H 0.36581 0.63334 0.98142 0.0
H2130 H 0.44703 0.65166 0.01123 0.0
H2131 H 0.43124 0.64921 0.05746 0.0
C2132 C 0.41077 0.67474 0.92371 0.0
C2133 C 0.43782 0.67046 0.91695 0.0
C2134 C 0.40026 0.6641 0.94747 0.0
C2135 C 0.41654 0.64874 0.9647 0.0
C2136 C 0.44267 0.64218 0.9564 0.0
C2137 C 0.45326 0.65304 0.93281 0.0
C2138 C 0.37119 0.63582 0.02438 0.0
C2139 C 0.38924 0.64088 0.04621 0.0
C2140 C 0.3803 0.63671 -0.00217 0.0
C2141 C 0.40761 0.64288 0.99257 0.0
C2142 C 0.4259 0.6465 0.0145 0.0
C2143 C 0.41683 0.64536 0.04105 0.0
H2144 H 0.05923 0.67117 0.66866 0.0
H2145 H 0.08153 0.75401 0.68962 0.0
H2146 H 0.08141 0.65604 0.70956 0.0
H2147 H 0.10473 0.73874 0.73024 0.0
H2148 H 0.1269 0.6314 0.7818 0.0
H2149 H 0.12043 0.64964 0.73674 0.0
H2150 H 0.08837 0.7224 0.77209 0.0
H2151 H 0.09587 0.70458 0.81705 0.0
C2152 C 0.06956 0.68611 0.68161 0.0
C2153 C 0.06815 0.71383 0.67617 0.0
C2154 C 0.08248 0.6774 0.70507 0.0
C2155 C 0.09454 0.69621 0.72349 0.0
C2156 C 0.09508 0.72378 0.71684 0.0
C2157 C 0.08194 0.73251 0.69346 0.0
C2158 C 0.11888 0.65148 0.77991 0.0
C2159 C 0.11144 0.66638 0.80292 0.0
C2160 C 0.1151 0.6619 0.75408 0.0
C2161 C 0.10348 0.68731 0.7507 0.0
C2162 C 0.09762 0.70287 0.77385 0.0
C2163 C 0.10172 0.69258 0.7997 0.0
H2164 H 0.0181 0.33479 0.41902 0.0
H2165 H 0.08315 0.27801 0.41721 0.0
H2166 H 0.04018 0.35843 0.45739 0.0
H2167 H 0.10478 0.30118 0.45566 0.0
H2168 H 0.14397 0.35074 0.52124 0.0
H2169 H 0.12687 0.34166 0.47536 0.0
H2170 H 0.04481 0.34396 0.50423 0.0
H2171 H 0.06174 0.35353 0.54976 0.0
C2172 C 0.03733 0.32767 0.42646 0.0
C2173 C 0.04864 0.30425 0.41545 0.0
C2174 C 0.0499 0.34113 0.44848 0.0
C2175 C 0.07403 0.33146 0.45975 0.0
C2176 C 0.08632 0.30928 0.44737 0.0
C2177 C 0.07376 0.29583 0.42545 0.0
C2178 C 0.12228 0.34971 0.5177 0.0
C2179 C 0.10422 0.35232 0.53923 0.0
C2180 C 0.11251 0.3445 0.49144 0.0
C2181 C 0.08451 0.3419 0.48622 0.0
C2182 C 0.06649 0.34613 0.50749 0.0
C2183 C 0.07623 0.3513 0.53369 0.0
H2184 H 0.42427 0.714 0.34642 0.0
H2185 H 0.485 0.74266 0.29087 0.0
H2186 H 0.39563 0.69861 0.30804 0.0
H2187 H 0.45662 0.72733 0.25289 0.0
H2188 H 0.39422 0.71399 0.18841 0.0
H2189 H 0.41284 0.7357 0.22936 0.0
H2190 H 0.40028 0.66146 0.27293 0.0
H2191 H 0.3814 0.63967 0.23207 0.0
C2192 C 0.43133 0.71732 0.32607 0.0
C2193 C 0.45694 0.72933 0.32162 0.0
C2194 C 0.41501 0.70844 0.30416 0.0
C2195 C 0.4239 0.71182 0.27752 0.0
C2196 C 0.44906 0.72476 0.27317 0.0
C2197 C 0.46543 0.73333 0.29496 0.0
C2198 C 0.39503 0.70236 0.20679 0.0
C2199 C 0.38679 0.67493 0.20684 0.0
C2200 C 0.40573 0.71482 0.23022 0.0
C2201 C 0.40829 0.70016 0.2542 0.0
C2202 C 0.39842 0.67329 0.25475 0.0
C2203 C 0.38778 0.66077 0.23128 0.0
H2204 H 0.03614 0.66083 0.10289 0.0
H2205 H 0.01264 0.73109 0.058 0.0
H2206 H 0.05294 0.64031 0.06118 0.0
H2207 H 0.02937 0.71072 0.01677 0.0
H2208 H 0.04062 0.65944 0.94288 0.0
H2209 H 0.01911 0.67182 0.98524 0.0
H2210 H 0.09129 0.65075 0.02959 0.0
H2211 H 0.11278 0.63812 0.98738 0.0
C2212 C 0.03449 0.67183 0.08418 0.0
C2213 C 0.02318 0.69761 0.08377 0.0
C2214 C 0.0441 0.66011 0.06036 0.0
C2215 C 0.04225 0.67385 0.03574 0.0
C2216 C 0.03065 0.69945 0.03535 0.0
C2217 C 0.02131 0.71123 0.05908 0.0
C2218 C 0.05176 0.65704 0.96168 0.0
C2219 C 0.07856 0.6482 0.96173 0.0
C2220 C 0.03947 0.66422 0.9859 0.0
C2221 C 0.05367 0.66252 0.01063 0.0
C2222 C 0.07984 0.65215 0.01084 0.0
C2223 C 0.09219 0.64512 0.98662 0.0
H2224 H 0.00241 0.26188 0.7773 0.0
H2225 H 0.06129 0.29237 0.83647 0.0
H2226 H 0.02997 0.28028 0.74118 0.0
H2227 H 0.08887 0.31095 0.80004 0.0
H2228 H 0.10412 0.36833 0.72477 0.0
H2229 H 0.08296 0.34795 0.76417 0.0
H2230 H 0.07653 0.27112 0.7217 0.0
H2231 H 0.09763 0.29125 0.68233 0.0
C2232 C 0.0212 0.27256 0.7826 0.0
C2233 C 0.0297 0.2757 0.8097 0.0
C2234 C 0.03707 0.28288 0.7619 0.0
C2235 C 0.06161 0.29677 0.76789 0.0
C2236 C 0.07001 0.30028 0.79498 0.0
C2237 C 0.05426 0.28963 0.81573 0.0
C2238 C 0.09861 0.34699 0.72399 0.0
C2239 C 0.10216 0.33152 0.70027 0.0
C2240 C 0.08661 0.33534 0.74657 0.0
C2241 C 0.07782 0.30812 0.74572 0.0
C2242 C 0.08278 0.29228 0.72263 0.0
C2243 C 0.09497 0.30382 0.70017 0.0
H2244 H 0.48595 0.32535 0.58184 0.0
H2245 H 0.40272 0.29641 0.58452 0.0
H2246 H 0.47408 0.35593 0.54552 0.0
H2247 H 0.39106 0.32633 0.54793 0.0
H2248 H 0.37136 0.3853 0.48654 0.0
H2249 H 0.38617 0.3715 0.53135 0.0
H2250 H 0.46264 0.34744 0.49848 0.0
H2251 H 0.44817 0.36192 0.45395 0.0
C2252 C 0.46507 0.32575 0.57492 0.0
C2253 C 0.44534 0.30814 0.58572 0.0
C2254 C 0.45831 0.34322 0.55408 0.0
C2255 C 0.43171 0.3434 0.54366 0.0
C2256 C 0.41169 0.32698 0.55566 0.0
C2257 C 0.41842 0.30959 0.57652 0.0
C2258 C 0.39159 0.37766 0.48903 0.0
C2259 C 0.40837 0.37411 0.46662 0.0
C2260 C 0.40002 0.36968 0.51468 0.0
C2261 C 0.42533 0.35783 0.51836 0.0
C2262 C 0.44305 0.35658 0.4964 0.0
C2263 C 0.43469 0.36476 0.47078 0.0
H2264 H 0.20013 0.46669 0.2724 0.0
H2265 H 0.15107 0.40551 0.3115 0.0
H2266 H 0.24086 0.44415 0.28659 0.0
H2267 H 0.19228 0.38269 0.32572 0.0
H2268 H 0.27235 0.38759 0.38045 0.0
H2269 H 0.22886 0.39655 0.35918 0.0
H2270 H 0.26738 0.40252 0.28156 0.0
H2271 H 0.31109 0.3939 0.30284 0.0
C2272 C 0.19805 0.4482 0.28378 0.0
C2273 C 0.17243 0.43803 0.29115 0.0
C2274 C 0.22141 0.43511 0.29164 0.0
C2275 C 0.21974 0.41163 0.3072 0.0
C2276 C 0.19409 0.40083 0.31379 0.0
C2277 C 0.17058 0.41384 0.30564 0.0
C2278 C 0.27152 0.39034 0.35877 0.0
C2279 C 0.29527 0.39069 0.34344 0.0
C2280 C 0.24652 0.39521 0.34655 0.0
C2281 C 0.24483 0.40056 0.31879 0.0
C2282 C 0.26823 0.39884 0.3031 0.0
C2283 C 0.29323 0.39387 0.31529 0.0
H2284 H 0.23951 0.43995 0.08645 0.0
H2285 H 0.29102 0.43698 0.01656 0.0
H2286 H 0.26576 0.47864 0.1042 0.0
H2287 H 0.31763 0.47564 0.03467 0.0
H2288 H 0.32695 0.56744 0.05845 0.0
H2289 H 0.30881 0.52414 0.04145 0.0
H2290 H 0.31048 0.49266 0.12249 0.0
H2291 H 0.32817 0.53612 0.13968 0.0
C2292 C 0.25663 0.44737 0.07501 0.0
C2293 C 0.26307 0.43557 0.05 0.0
C2294 C 0.27182 0.46941 0.08532 0.0
C2295 C 0.29375 0.48014 0.07082 0.0
C2296 C 0.30067 0.4679 0.04614 0.0
C2297 C 0.2855 0.44575 0.03585 0.0
C2298 C 0.32374 0.55122 0.07263 0.0
C2299 C 0.32857 0.55537 0.10049 0.0
C2300 C 0.31354 0.52633 0.06284 0.0
C2301 C 0.30801 0.50512 0.0807 0.0
C2302 C 0.31415 0.50882 0.10834 0.0
C2303 C 0.32437 0.53369 0.11814 0.0
H2304 H 0.32125 0.6009 0.77453 0.0
H2305 H 0.335 0.5591 0.84941 0.0
H2306 H 0.28101 0.62098 0.79335 0.0
H2307 H 0.29422 0.57819 0.86785 0.0
H2308 H 0.19177 0.60726 0.81638 0.0
H2309 H 0.23765 0.60102 0.80125 0.0
H2310 H 0.26785 0.61516 0.88288 0.0
H2311 H 0.22157 0.62049 0.89825 0.0
C2312 C 0.31588 0.59636 0.79517 0.0
C2313 C 0.33093 0.57808 0.81035 0.0
C2314 C 0.29275 0.60771 0.80589 0.0
C2315 C 0.28401 0.60066 0.83185 0.0
C2316 C 0.30038 0.58415 0.84783 0.0
C2317 C 0.32375 0.5731 0.83722 0.0
C2318 C 0.20818 0.60926 0.8311 0.0
C2319 C 0.20299 0.61395 0.85858 0.0
C2320 C 0.23459 0.60598 0.82237 0.0
C2321 C 0.2565 0.6076 0.84086 0.0
C2322 C 0.2514 0.61342 0.86819 0.0
C2323 C 0.2249 0.61649 0.87698 0.0
H2324 H 0.15871 0.56156 0.49906 0.0
H2325 H 0.18666 0.59095 0.57753 0.0
H2326 H 0.14366 0.51916 0.51905 0.0
H2327 H 0.17267 0.54811 0.59742 0.0
H2328 H 0.16208 0.43653 0.55417 0.0
H2329 H 0.16718 0.48137 0.53538 0.0
H2330 H 0.13762 0.51651 0.60953 0.0
H2331 H 0.1334 0.47146 0.62875 0.0
C2332 C 0.16138 0.55902 0.52065 0.0
C2333 C 0.17413 0.57938 0.53671 0.0
C2334 C 0.15295 0.53466 0.53208 0.0
C2335 C 0.15747 0.52999 0.55973 0.0
C2336 C 0.16872 0.55106 0.57608 0.0
C2337 C 0.17683 0.57561 0.56469 0.0
C2338 C 0.15653 0.45378 0.56645 0.0
C2339 C 0.14757 0.45045 0.59304 0.0
C2340 C 0.15922 0.47954 0.55558 0.0
C2341 C 0.15271 0.5026 0.57091 0.0
C2342 C 0.14313 0.49922 0.5973 0.0
C2343 C 0.14066 0.4734 0.60829 0.0
H2344 H 0.15623 0.54669 0.17192 0.0
H2345 H 0.16773 0.57934 0.25293 0.0
H2346 H 0.19272 0.57619 0.15624 0.0
H2347 H 0.20381 0.60937 0.2371 0.0
H2348 H 0.29305 0.61447 0.20619 0.0
H2349 H 0.24938 0.59982 0.22352 0.0
H2350 H 0.21084 0.62119 0.14806 0.0
H2351 H 0.25471 0.63528 0.13045 0.0
C2352 C 0.16607 0.56065 0.18623 0.0
C2353 C 0.15947 0.56031 0.21373 0.0
C2354 C 0.1869 0.57773 0.17723 0.0
C2355 C 0.2014 0.59491 0.19553 0.0
C2356 C 0.19338 0.59599 0.22263 0.0
C2357 C 0.17266 0.57883 0.23166 0.0
C2358 C 0.2752 0.61667 0.19352 0.0
C2359 C 0.27741 0.62546 0.16676 0.0
C2360 C 0.25008 0.60838 0.2035 0.0
C2361 C 0.22668 0.60893 0.18697 0.0
C2362 C 0.22859 0.61997 0.16105 0.0
C2363 C 0.25371 0.62813 0.15102 0.0
H2364 H 0.18045 0.41521 0.91419 0.0
H2365 H 0.15517 0.42813 -0.00341 0.0
H2366 H 0.15892 0.45655 0.90096 0.0
H2367 H 0.13274 0.46929 0.98311 0.0
H2368 H 0.1432 0.55931 0.95629 0.0
H2369 H 0.14997 0.51324 0.97128 0.0
H2370 H 0.11966 0.48232 0.8941 0.0
H2371 H 0.11391 0.52844 0.87882 0.0
C2372 C 0.16964 0.42649 0.92936 0.0
C2373 C 0.16998 0.41865 0.95653 0.0
C2374 C 0.15709 0.45019 0.92173 0.0
C2375 C 0.14439 0.4665 0.94106 0.0
C2376 C 0.14285 0.45749 0.96784 0.0
C2377 C 0.15555 0.4338 0.97552 0.0
C2378 C 0.13757 0.54264 0.94272 0.0
C2379 C 0.12859 0.54744 0.91621 0.0
C2380 C 0.14126 0.51618 0.95135 0.0
C2381 C 0.1357 0.49403 0.93374 0.0
C2382 C 0.12475 0.49891 0.90794 0.0
C2383 C 0.1214 0.52533 0.89921 0.0
H2384 H 0.34696 0.42521 0.71131 0.0
H2385 H 0.2919 0.48467 0.74153 0.0
H2386 H 0.30833 0.39761 0.6942 0.0
H2387 H 0.25366 0.45731 0.72449 0.0
H2388 H 0.23355 0.38777 0.63303 0.0
H2389 H 0.27426 0.40472 0.6567 0.0
H2390 H 0.22893 0.41323 0.73022 0.0
H2391 H 0.18807 0.3965 0.70659 0.0
C2392 C 0.32665 0.4322 0.7146 0.0
C2393 C 0.32244 0.45719 0.72754 0.0
C2394 C 0.30461 0.41646 0.70475 0.0
C2395 C 0.27803 0.42531 0.70807 0.0
C2396 C 0.27387 0.44978 0.72195 0.0
C2397 C 0.29582 0.46559 0.73148 0.0
C2398 C 0.23232 0.39283 0.65436 0.0
C2399 C 0.20744 0.39128 0.66779 0.0
C2400 C 0.25571 0.40234 0.66795 0.0
C2401 C 0.25465 0.41056 0.6952 0.0
C2402 C 0.2302 0.40737 0.70909 0.0
C2403 C 0.20683 0.39773 0.69555 0.0
H2404 H 0.32187 0.59342 0.47691 0.0
H2405 H 0.25767 0.57345 0.4192 0.0
H2406 H 0.34713 0.55455 0.46079 0.0
H2407 H 0.28303 0.53493 0.40299 0.0
H2408 H 0.34468 0.48054 0.36598 0.0
H2409 H 0.32771 0.52434 0.37973 0.0
H2410 H 0.33653 0.50277 0.4636 0.0
H2411 H 0.35346 0.45864 0.44997 0.0
C2412 C 0.31341 0.58106 0.46045 0.0
C2413 C 0.28776 0.58635 0.44935 0.0
C2414 C 0.32778 0.55877 0.45139 0.0
C2415 C 0.31696 0.54179 0.43074 0.0
C2416 C 0.29191 0.54785 0.41881 0.0
C2417 C 0.27737 0.56981 0.42815 0.0
C2418 C 0.34337 0.48517 0.38739 0.0
C2419 C 0.3501 0.46593 0.40691 0.0
C2420 C 0.3336 0.51025 0.39519 0.0
C2421 C 0.33067 0.51678 0.42266 0.0
C2422 C 0.33876 0.49823 0.44226 0.0
C2423 C 0.34828 0.47294 0.43445 0.0
H2424 H 0.29678 0.20339 0.49926 0.0
H2425 H 0.32074 0.15707 0.42915 0.0
H2426 H 0.30774 0.24514 0.47603 0.0
H2427 H 0.33197 0.19933 0.40586 0.0
H2428 H 0.38319 0.28219 0.39846 0.0
H2429 H 0.36781 0.23787 0.41412 0.0
H2430 H 0.29067 0.27085 0.43498 0.0
H2431 H 0.30591 0.31523 0.4193 0.0
C2432 C 0.30442 0.2021 0.47886 0.0
C2433 C 0.30803 0.17692 0.46606 0.0
C2434 C 0.31042 0.22606 0.46548 0.0
C2435 C 0.32046 0.22541 0.43911 0.0
C2436 C 0.32421 0.20029 0.42622 0.0
C2437 C 0.3178 0.1762 0.43952 0.0
C2438 C 0.36281 0.27991 0.40604 0.0
C2439 C 0.34589 0.30228 0.408 0.0
C2440 C 0.35397 0.2545 0.4148 0.0
C2441 C 0.32818 0.25107 0.42594 0.0
C2442 C 0.31077 0.27309 0.42669 0.0
C2443 C 0.31947 0.29844 0.41764 0.0
H2444 H 0.84391 0.32959 0.57279 0.0
H2445 H 0.76086 0.30767 0.59045 0.0
H2446 H 0.85887 0.28877 0.59448 0.0
H2447 H 0.77591 0.26717 0.61314 0.0
H2448 H 0.81061 0.18078 0.60432 0.0
H2449 H 0.7926 0.22539 0.59681 0.0
H2450 H 0.86471 0.26226 0.63359 0.0
H2451 H 0.88314 0.21755 0.64009 0.0
C2452 C 0.8289 0.31642 0.58196 0.0
C2453 C 0.80119 0.32159 0.57948 0.0
C2454 C 0.83748 0.29303 0.5946 0.0
C2455 C 0.81855 0.27446 0.6053 0.0
C2456 C 0.79096 0.28073 0.60459 0.0
C2457 C 0.78236 0.30401 0.59171 0.0
C2458 C 0.82237 0.19839 0.61126 0.0
C2459 C 0.84848 0.19574 0.62229 0.0
C2460 C 0.81199 0.22403 0.60711 0.0
C2461 C 0.82739 0.24749 0.61425 0.0
C2462 C 0.85262 0.24465 0.62725 0.0
C2463 C 0.86312 0.21905 0.63107 0.0
H2464 H 0.39332 0.04385 0.32319 0.0
H2465 H 0.45262 0.98448 0.30251 0.0
H2466 H 0.42813 0.07016 0.34837 0.0
H2467 H 0.48722 0.01086 0.32695 0.0
H2468 H 0.54437 0.05343 0.38144 0.0
H2469 H 0.50332 0.02693 0.37058 0.0
H2470 H 0.46767 0.09742 0.33538 0.0
H2471 H 0.50844 0.12414 0.34708 0.0
C2472 C 0.41367 0.03628 0.32425 0.0
C2473 C 0.42031 0.01223 0.31065 0.0
C2474 C 0.43359 0.05139 0.33857 0.0
C2475 C 0.46041 0.04262 0.33963 0.0
C2476 C 0.46668 0.018 0.32693 0.0
C2477 C 0.44687 0.00297 0.31265 0.0
C2478 C 0.52753 0.06336 0.37186 0.0
C2479 C 0.52974 0.09067 0.36459 0.0
C2480 C 0.50408 0.04819 0.36558 0.0
C2481 C 0.4825 0.05994 0.35161 0.0
C2482 C 0.4839 0.0878 0.34624 0.0
C2483 C 0.5073 0.10309 0.35282 0.0
H2484 H 0.72019 0.6853 -0.00159 0.0
H2485 H 0.79167 0.69068 0.04983 0.0
H2486 H 0.6994 0.72042 0.02547 0.0
H2487 H 0.77076 0.7264 0.07684 0.0
H2488 H 0.65972 0.76285 0.09469 0.0
H2489 H 0.68367 0.72495 0.07544 0.0
H2490 H 0.75459 0.77632 0.0651 0.0
H2491 H 0.7306 0.81468 0.08426 0.0
C2492 C 0.73143 0.69396 0.01555 0.0
C2493 C 0.75753 0.68531 0.02204 0.0
C2494 C 0.71947 0.71393 0.03111 0.0
C2495 C 0.73349 0.72593 0.05324 0.0
C2496 C 0.75961 0.71737 0.05983 0.0
C2497 C 0.77146 0.69694 0.04449 0.0
C2498 C 0.68053 0.76612 0.0887 0.0
C2499 C 0.69311 0.79193 0.09061 0.0
C2500 C 0.69419 0.74438 0.07767 0.0
C2501 C 0.72079 0.74789 0.06862 0.0
C2502 C 0.73406 0.77318 0.07204 0.0
C2503 C 0.72028 0.79511 0.08284 0.0
H2504 H 0.59839 0.45965 0.34053 0.0
H2505 H 0.54728 0.48196 0.27316 0.0
H2506 H 0.55794 0.4453 0.36544 0.0
H2507 H 0.50748 0.4678 0.29779 0.0
H2508 H 0.43854 0.46075 0.35312 0.0
H2509 H 0.48141 0.48089 0.33865 0.0
H2510 H 0.52223 0.40758 0.359 0.0
H2511 H 0.47949 0.38743 0.37377 0.0
C2512 C 0.57861 0.46159 0.33113 0.0
C2513 C 0.57603 0.47172 0.30484 0.0
C2514 C 0.55554 0.45341 0.34535 0.0
C2515 C 0.52961 0.45572 0.33362 0.0
C2516 C 0.52715 0.46624 0.30754 0.0
C2517 C 0.55005 0.47405 0.2933 0.0
C2518 C 0.4567 0.44908 0.35499 0.0
C2519 C 0.45549 0.42228 0.36405 0.0
C2520 C 0.48123 0.4606 0.34666 0.0
C2521 C 0.50501 0.44562 0.34736 0.0
C2522 C 0.50421 0.4196 0.35832 0.0
C2523 C 0.47967 0.40802 0.36656 0.0
H2524 H 0.16834 0.85183 0.93965 0.0
H2525 H 0.24768 0.81936 0.95192 0.0
H2526 H 0.15221 0.80862 0.92054 0.0
H2527 H 0.23246 0.7767 0.93088 0.0
H2528 H 0.18717 0.69539 0.93438 0.0
H2529 H 0.20691 0.73997 0.94409 0.0
H2530 H 0.1502 0.77495 0.8878 0.0
H2531 H 0.12934 0.7303 0.87969 0.0
C2532 C 0.18254 0.83565 0.93728 0.0
C2533 C 0.20908 0.83862 0.94739 0.0
C2534 C 0.17339 0.81085 0.92624 0.0
C2535 C 0.19088 0.78881 0.92453 0.0
C2536 C 0.21813 0.7928 0.93267 0.0
C2537 C 0.22699 0.81731 0.94442 0.0
C2538 C 0.17911 0.71263 0.92398 0.0
C2539 C 0.15659 0.70955 0.90656 0.0
C2540 C 0.19057 0.73826 0.9293 0.0
C2541 C 0.1802 0.76131 0.91677 0.0
C2542 C 0.15838 0.75787 0.89833 0.0
C2543 C 0.14649 0.73229 0.89354 0.0
H2544 H 0.45465 0.87753 0.24397 0.0
H2545 H 0.4385 0.93848 0.18441 0.0
H2546 H 0.49499 0.86491 0.21951 0.0
H2547 H 0.47872 0.9256 0.15987 0.0
H2548 H 0.55569 0.83599 0.15878 0.0
H2549 H 0.51104 0.8452 0.17637 0.0
H2550 H 0.52793 0.93106 0.17052 0.0
H2551 H 0.57254 0.92196 0.15261 0.0
C2552 C 0.45945 0.88793 0.22544 0.0
C2553 C 0.44357 0.90918 0.21628 0.0
C2554 C 0.48248 0.88061 0.21137 0.0
C2555 C 0.49007 0.89446 0.18793 0.0
C2556 C 0.47352 0.91488 0.1781 0.0
C2557 C 0.45043 0.92212 0.19209 0.0
C2558 C 0.54984 0.85685 0.16102 0.0
C2559 C 0.56778 0.87827 0.15455 0.0
C2560 C 0.52429 0.86208 0.17117 0.0
C2561 C 0.5161 0.88881 0.17491 0.0
C2562 C 0.53364 0.91023 0.16759 0.0
C2563 C 0.55925 0.90502 0.15752 0.0
H2564 H 0.10361 0.08839 0.69309 0.0
H2565 H 0.08967 0.00642 0.66365 0.0
H2566 H 0.0622 0.10195 0.67088 0.0
H2567 H 0.04854 0.02025 0.64041 0.0
H2568 H 0.95892 0.04552 0.64927 0.0
H2569 H 0.00508 0.03114 0.65665 0.0
H2570 H 0.03541 0.10969 0.63197 0.0
H2571 H 0.98908 0.12438 0.62569 0.0
C2572 C 0.09213 0.07341 0.68118 0.0
C2573 C 0.09963 0.04622 0.68059 0.0
C2574 C 0.06837 0.08123 0.66825 0.0
C2575 C 0.05173 0.06209 0.65418 0.0
C2576 C 0.06053 0.03536 0.65163 0.0
C2577 C 0.0842 0.02748 0.66479 0.0
C2578 C 0.97546 0.05957 0.64502 0.0
C2579 C 0.9704 0.08624 0.63744 0.0
C2580 C 0.002 0.05127 0.64904 0.0
C2581 C 0.02404 0.06937 0.64521 0.0
C2582 C 0.01892 0.09544 0.63572 0.0
C2583 C 0.99238 0.10383 0.63204 0.0
loop_
_geom_bond_atom_site_label_1
_geom_bond_atom_site_label_2
_geom_bond_distance
_geom_bond_site_symmetry_2
_ccdc_geom_bond_type
C0 O1 1.160 . S
C0 O7 1.185 . S
O1 C0 1.160 . S
O2 Zn3 1.899 . S
O2 C10 1.284 . S
Zn3 O2 1.899 . S
Zn3 O4 2.032 1_455 S
Zn3 O7 2.086 . S
Zn3 O12 1.977 1_455 S
O4 Zn3 2.032 1_655 S
O4 C8 1.278 . S
C5 O6 1.203 . S
C5 O12 1.267 . S
O6 C5 1.203 . S
O7 C0 1.185 . S
O7 Zn3 2.086 . S
C8 O4 1.278 . S
C8 O9 1.211 . S
O9 C8 1.211 . S
C10 O2 1.284 . S
C10 O11 1.273 . S
O11 C10 1.273 . S
O12 Zn3 1.977 1_655 S
O12 C5 1.267 . S
C13 O14 1.160 . S
C13 O20 1.185 . S
O14 C13 1.160 . S
O15 Zn16 1.899 1_655 S
O15 C23 1.284 . S
Zn16 O15 1.899 1_455 S
Zn16 O17 2.032 1_455 S
Zn16 O20 2.086 . S
Zn16 O25 1.977 . S
O17 Zn16 2.032 1_655 S
O17 C21 1.278 . S
C18 O19 1.203 . S
C18 O25 1.267 . S
O19 C18 1.203 . S
O20 C13 1.185 . S
O20 Zn16 2.086 . S
C21 O17 1.278 . S
C21 O22 1.211 . S
O22 C21 1.211 . S
C23 O15 1.284 . S
C23 O24 1.273 . S
O24 C23 1.273 . S
O25 Zn16 1.977 . S
O25 C18 1.267 . S
C26 O27 1.160 . S
C26 O33 1.185 . S
O27 C26 1.160 . S
O28 Zn29 1.899 . S
O28 C36 1.284 . S
Zn29 O28 1.899 . S
Zn29 O30 2.032 . S
Zn29 O33 2.086 . S
Zn29 O38 1.977 . S
O30 Zn29 2.032 . S
O30 C34 1.278 . S
C31 O32 1.203 . S
C31 O38 1.267 . S
O32 C31 1.203 . S
O33 C26 1.185 . S
O33 Zn29 2.086 . S
C34 O30 1.278 . S
C34 O35 1.211 . S
O35 C34 1.211 . S
C36 O28 1.284 . S
C36 O37 1.273 . S
O37 C36 1.273 . S
O38 Zn29 1.977 . S
O38 C31 1.267 . S
C39 O40 1.160 . S
C39 O46 1.185 . S
O40 C39 1.160 . S
O41 Zn42 1.899 . S
O41 C49 1.284 . S
Zn42 O41 1.899 . S
Zn42 O43 2.032 . S
Zn42 O46 2.086 . S
Zn42 O51 1.977 . S
O43 Zn42 2.032 . S
O43 C47 1.278 . S
C44 O45 1.203 . S
C44 O51 1.267 . S
O45 C44 1.203 . S
O46 C39 1.185 . S
O46 Zn42 2.086 . S
C47 O43 1.278 . S
C47 O48 1.211 . S
O48 C47 1.211 . S
C49 O41 1.284 . S
C49 O50 1.273 . S
O50 C49 1.273 . S
O51 Zn42 1.977 . S
O51 C44 1.267 . S
C52 O53 1.160 . S
C52 O59 1.185 . S
O53 C52 1.160 . S
O54 Zn55 1.899 . S
O54 C62 1.284 . S
Zn55 O54 1.899 . S
Zn55 O56 2.032 1_455 S
Zn55 O59 2.086 . S
Zn55 O64 1.977 1_455 S
O56 Zn55 2.032 1_655 S
O56 C60 1.278 . S
C57 O58 1.203 . S
C57 O64 1.267 . S
O58 C57 1.203 . S
O59 C52 1.185 . S
O59 Zn55 2.086 . S
C60 O56 1.278 . S
C60 O61 1.211 . S
O61 C60 1.211 . S
C62 O54 1.284 . S
C62 O63 1.273 . S
O63 C62 1.273 . S
O64 Zn55 1.977 1_655 S
O64 C57 1.267 . S
C65 O66 1.160 . S
C65 O72 1.185 . S
O66 C65 1.160 . S
O67 Zn68 1.899 . S
O67 C75 1.284 . S
Zn68 O67 1.899 . S
Zn68 O69 2.032 . S
Zn68 O72 2.086 . S
Zn68 O77 1.977 . S
O69 Zn68 2.032 . S
O69 C73 1.278 . S
C70 O71 1.203 . S
C70 O77 1.267 . S
O71 C70 1.203 . S
O72 C65 1.185 . S
O72 Zn68 2.086 . S
C73 O69 1.278 . S
C73 O74 1.211 . S
O74 C73 1.211 . S
C75 O67 1.284 . S
C75 O76 1.273 . S
O76 C75 1.273 . S
O77 Zn68 1.977 . S
O77 C70 1.267 . S
C78 O79 1.160 . S
C78 O85 1.185 . S
O79 C78 1.160 . S
O80 Zn81 1.899 . S
O80 C88 1.284 . S
Zn81 O80 1.899 . S
Zn81 O82 2.032 . S
Zn81 O85 2.086 . S
Zn81 O90 1.977 . S
O82 Zn81 2.032 . S
O82 C86 1.278 . S
C83 O84 1.203 . S
C83 O90 1.267 . S
O84 C83 1.203 . S
O85 C78 1.185 . S
O85 Zn81 2.086 . S
C86 O82 1.278 . S
C86 O87 1.211 . S
O87 C86 1.211 . S
C88 O80 1.284 . S
C88 O89 1.273 . S
O89 C88 1.273 . S
O90 Zn81 1.977 . S
O90 C83 1.267 . S
C91 O92 1.160 . S
C91 O98 1.185 . S
O92 C91 1.160 . S
O93 Zn94 1.899 . S
O93 C101 1.284 1_455 S
Zn94 O93 1.899 . S
Zn94 O95 2.032 1_455 S
Zn94 O98 2.086 . S
Zn94 O103 1.977 . S
O95 Zn94 2.032 1_655 S
O95 C99 1.278 . S
C96 O97 1.203 . S
C96 O103 1.267 . S
O97 C96 1.203 . S
O98 C91 1.185 . S
O98 Zn94 2.086 . S
C99 O95 1.278 . S
C99 O100 1.211 . S
O100 C99 1.211 . S
C101 O93 1.284 1_655 S
C101 O102 1.273 . S
O102 C101 1.273 . S
O103 Zn94 1.977 . S
O103 C96 1.267 . S
C104 O105 1.160 . S
C104 O111 1.185 . S
O105 C104 1.160 . S
O106 Zn107 1.899 . S
O106 C114 1.284 . S
Zn107 O106 1.899 . S
Zn107 O108 2.032 1_565 S
Zn107 O111 2.086 . S
Zn107 O116 1.977 1_565 S
O108 Zn107 2.032 1_545 S
O108 C112 1.278 . S
C109 O110 1.203 . S
C109 O116 1.267 . S
O110 C109 1.203 . S
O111 C104 1.185 . S
O111 Zn107 2.086 . S
C112 O108 1.278 . S
C112 O113 1.211 . S
O113 C112 1.211 . S
C114 O106 1.284 . S
C114 O115 1.273 . S
O115 C114 1.273 . S
O116 Zn107 1.977 1_545 S
O116 C109 1.267 . S
C117 O118 1.160 . S
C117 O124 1.185 . S
O118 C117 1.160 . S
O119 Zn120 1.899 . S
O119 C127 1.284 . S
Zn120 O119 1.899 . S
Zn120 O121 2.032 . S
Zn120 O124 2.086 . S
Zn120 O129 1.977 . S
O121 Zn120 2.032 . S
O121 C125 1.278 . S
C122 O123 1.203 . S
C122 O129 1.267 . S
O123 C122 1.203 . S
O124 C117 1.185 . S
O124 Zn120 2.086 . S
C125 O121 1.278 . S
C125 O126 1.211 . S
O126 C125 1.211 . S
C127 O119 1.284 . S
C127 O128 1.273 . S
O128 C127 1.273 . S
O129 Zn120 1.977 . S
O129 C122 1.267 . S
C130 O131 1.160 . S
C130 O137 1.185 . S
O131 C130 1.160 . S
O132 Zn133 1.899 . S
O132 C140 1.284 . S
Zn133 O132 1.899 . S
Zn133 O134 2.032 1_565 S
Zn133 O137 2.086 . S
Zn133 O142 1.977 1_565 S
O134 Zn133 2.032 1_545 S
O134 C138 1.278 . S
C135 O136 1.203 . S
C135 O142 1.267 . S
O136 C135 1.203 . S
O137 C130 1.185 . S
O137 Zn133 2.086 . S
C138 O134 1.278 . S
C138 O139 1.211 . S
O139 C138 1.211 . S
C140 O132 1.284 . S
C140 O141 1.273 . S
O141 C140 1.273 . S
O142 Zn133 1.977 1_545 S
O142 C135 1.267 . S
C143 O144 1.160 . S
C143 O150 1.185 . S
O144 C143 1.160 . S
O145 Zn146 1.899 . S
O145 C153 1.284 1_554 S
Zn146 O145 1.899 . S
Zn146 O147 2.032 1_554 S
Zn146 O150 2.086 . S
Zn146 O155 1.977 . S
O147 Zn146 2.032 1_556 S
O147 C151 1.278 . S
C148 O149 1.203 . S
C148 O155 1.267 . S
O149 C148 1.203 . S
O150 C143 1.185 . S
O150 Zn146 2.086 . S
C151 O147 1.278 . S
C151 O152 1.211 . S
O152 C151 1.211 . S
C153 O145 1.284 1_556 S
C153 O154 1.273 . S
O154 C153 1.273 . S
O155 Zn146 1.977 . S
O155 C148 1.267 . S
C156 O157 1.160 . S
C156 O163 1.185 . S
O157 C156 1.160 . S
O158 Zn159 1.899 1_556 S
O158 C166 1.284 . S
Zn159 O158 1.899 1_554 S
Zn159 O160 2.032 . S
Zn159 O163 2.086 1_554 S
Zn159 O168 1.977 . S
O160 Zn159 2.032 . S
O160 C164 1.278 . S
C161 O162 1.203 . S
C161 O168 1.267 . S
O162 C161 1.203 . S
O163 C156 1.185 . S
O163 Zn159 2.086 1_556 S
C164 O160 1.278 . S
C164 O165 1.211 . S
O165 C164 1.211 . S
C166 O158 1.284 . S
C166 O167 1.277 . S
O167 C166 1.277 . S
O168 Zn159 1.977 . S
O168 C161 1.267 . S
C169 O170 1.160 . S
C169 O176 1.185 . S
O170 C169 1.160 . S
O171 Zn172 1.899 . S
O171 C179 1.284 . S
Zn172 O171 1.899 . S
Zn172 O173 2.032 1_556 S
Zn172 O176 2.086 . S
Zn172 O181 1.977 1_556 S
O173 Zn172 2.032 1_554 S
O173 C177 1.278 . S
C174 O175 1.203 . S
C174 O181 1.267 . S
O175 C174 1.203 . S
O176 C169 1.185 . S
O176 Zn172 2.086 . S
C177 O173 1.278 . S
C177 O178 1.211 . S
O178 C177 1.211 . S
C179 O171 1.284 . S
C179 O180 1.273 . S
O180 C179 1.273 . S
O181 Zn172 1.977 1_554 S
O181 C174 1.267 . S
C182 O183 1.160 . S
C182 O189 1.185 . S
O183 C182 1.160 . S
O184 Zn185 1.899 . S
O184 C192 1.284 . S
Zn185 O184 1.899 . S
Zn185 O186 2.032 . S
Zn185 O189 2.086 . S
Zn185 O194 1.977 . S
O186 Zn185 2.032 . S
O186 C190 1.278 . S
C187 O188 1.203 . S
C187 O194 1.267 . S
O188 C187 1.203 . S
O189 C182 1.185 . S
O189 Zn185 2.086 . S
C190 O186 1.278 . S
C190 O191 1.211 . S
O191 C190 1.211 . S
C192 O184 1.284 . S
C192 O193 1.273 . S
O193 C192 1.273 . S
O194 Zn185 1.977 . S
O194 C187 1.267 . S
C195 O196 1.160 . S
C195 O202 1.185 . S
O196 C195 1.160 . S
O197 Zn198 1.899 . S
O197 C205 1.284 . S
Zn198 O197 1.899 . S
Zn198 O199 2.032 . S
Zn198 O202 2.086 . S
Zn198 O207 1.977 . S
O199 Zn198 2.032 . S
O199 C203 1.278 . S
C200 O201 1.203 . S
C200 O207 1.267 . S
O201 C200 1.203 . S
O202 C195 1.185 . S
O202 Zn198 2.086 . S
C203 O199 1.278 . S
C203 O204 1.211 . S
O204 C203 1.211 . S
C205 O197 1.284 . S
C205 O206 1.273 . S
O206 C205 1.273 . S
O207 Zn198 1.977 . S
O207 C200 1.267 . S
C208 O209 1.160 . S
C208 O215 1.185 . S
O209 C208 1.160 . S
O210 Zn211 1.899 . S
O210 C218 1.284 1_545 S
Zn211 O210 1.899 . S
Zn211 O212 2.032 . S
Zn211 O215 2.086 . S
Zn211 O220 1.977 . S
O212 Zn211 2.032 . S
O212 C216 1.278 1_545 S
C213 O214 1.203 . S
C213 O220 1.267 . S
O214 C213 1.203 . S
O215 C208 1.185 . S
O215 Zn211 2.086 . S
C216 O212 1.278 1_565 S
C216 O217 1.211 . S
O217 C216 1.211 . S
C218 O210 1.284 1_565 S
C218 O219 1.273 . S
O219 C218 1.273 . S
O220 Zn211 1.977 . S
O220 C213 1.267 . S
C221 O222 1.160 . S
C221 O228 1.185 . S
O222 C221 1.160 . S
O223 Zn224 1.899 . S
O223 C231 1.284 . S
Zn224 O223 1.899 . S
Zn224 O225 2.032 . S
Zn224 O228 2.086 . S
Zn224 O233 1.977 . S
O225 Zn224 2.032 . S
O225 C229 1.278 . S
C226 O227 1.203 . S
C226 O233 1.267 . S
O227 C226 1.203 . S
O228 C221 1.185 . S
O228 Zn224 2.086 . S
C229 O225 1.278 . S
C229 O230 1.211 . S
O230 C229 1.211 . S
C231 O223 1.284 . S
C231 O232 1.273 . S
O232 C231 1.273 . S
O233 Zn224 1.977 . S
O233 C226 1.267 . S
C234 O235 1.160 . S
C234 O241 1.185 . S
O235 C234 1.160 . S
O236 Zn237 1.899 . S
O236 C244 1.284 . S
Zn237 O236 1.899 . S
Zn237 O238 2.032 . S
Zn237 O241 2.086 . S
Zn237 O246 1.977 . S
O238 Zn237 2.032 . S
O238 C242 1.278 . S
C239 O240 1.203 . S
C239 O246 1.267 . S
O240 C239 1.203 . S
O241 C234 1.185 . S
O241 Zn237 2.086 . S
C242 O238 1.278 . S
C242 O243 1.211 . S
O243 C242 1.211 . S
C244 O236 1.284 . S
C244 O245 1.273 . S
O245 C244 1.273 . S
O246 Zn237 1.977 . S
O246 C239 1.267 . S
C247 O248 1.160 . S
C247 O254 1.185 . S
O248 C247 1.160 . S
O249 Zn250 1.899 . S
O249 C257 1.284 1_545 S
Zn250 O249 1.899 . S
Zn250 O251 2.032 1_545 S
Zn250 O254 2.086 . S
Zn250 O259 1.977 . S
O251 Zn250 2.032 1_565 S
O251 C255 1.278 . S
C252 O253 1.203 . S
C252 O259 1.267 . S
O253 C252 1.203 . S
O254 C247 1.185 . S
O254 Zn250 2.086 . S
C255 O251 1.278 . S
C255 O256 1.211 . S
O256 C255 1.211 . S
C257 O249 1.284 1_565 S
C257 O258 1.273 . S
O258 C257 1.273 . S
O259 Zn250 1.977 . S
O259 C252 1.267 . S
C260 O261 1.160 . S
C260 O267 1.185 . S
O261 C260 1.160 . S
O262 Zn263 1.899 . S
O262 C270 1.284 1_554 S
Zn263 O262 1.899 . S
Zn263 O264 2.032 1_554 S
Zn263 O267 2.086 . S
Zn263 O272 1.977 . S
O264 Zn263 2.032 1_556 S
O264 C268 1.278 . S
C265 O266 1.203 . S
C265 O272 1.267 . S
O266 C265 1.203 . S
O267 C260 1.185 . S
O267 Zn263 2.086 . S
C268 O264 1.278 . S
C268 O269 1.211 . S
O269 C268 1.211 . S
C270 O262 1.284 1_556 S
C270 O271 1.273 . S
O271 C270 1.273 . S
O272 Zn263 1.977 . S
O272 C265 1.267 . S
C273 O274 1.160 . S
C273 O280 1.185 . S
O274 C273 1.160 . S
O275 Zn276 1.899 . S
O275 C283 1.284 . S
Zn276 O275 1.899 . S
Zn276 O277 2.032 . S
Zn276 O280 2.086 . S
Zn276 O285 1.977 . S
O277 Zn276 2.032 . S
O277 C281 1.278 . S
C278 O279 1.203 . S
C278 O285 1.267 . S
O279 C278 1.203 . S
O280 C273 1.185 . S
O280 Zn276 2.086 . S
C281 O277 1.278 . S
C281 O282 1.211 . S
O282 C281 1.211 . S
C283 O275 1.284 . S
C283 O284 1.273 . S
O284 C283 1.273 . S
O285 Zn276 1.977 . S
O285 C278 1.267 . S
C286 O287 1.160 . S
C286 O293 1.185 . S
O287 C286 1.160 . S
O288 Zn289 1.899 . S
O288 C296 1.284 . S
Zn289 O288 1.899 . S
Zn289 O290 2.032 . S
Zn289 O293 2.086 . S
Zn289 O298 1.977 . S
O290 Zn289 2.032 . S
O290 C294 1.278 . S
C291 O292 1.203 . S
C291 O298 1.267 . S
O292 C291 1.203 . S
O293 C286 1.185 . S
O293 Zn289 2.086 . S
C294 O290 1.278 . S
C294 O295 1.211 . S
O295 C294 1.211 . S
C296 O288 1.284 . S
C296 O297 1.273 . S
O297 C296 1.273 . S
O298 Zn289 1.977 . S
O298 C291 1.267 . S
C299 O300 1.160 . S
C299 O306 1.185 . S
O300 C299 1.160 . S
O301 Zn302 1.899 . S
O301 C309 1.284 . S
Zn302 O301 1.899 . S
Zn302 O303 2.032 . S
Zn302 O306 2.086 . S
Zn302 O311 1.977 . S
O303 Zn302 2.032 . S
O303 C307 1.278 . S
C304 O305 1.203 . S
C304 O311 1.267 . S
O305 C304 1.203 . S
O306 C299 1.185 . S
O306 Zn302 2.086 . S
C307 O303 1.278 . S
C307 O308 1.211 . S
O308 C307 1.211 . S
C309 O301 1.284 . S
C309 O310 1.273 . S
O310 C309 1.273 . S
O311 Zn302 1.977 . S
O311 C304 1.267 . S
Fe312 O314 1.918 . S
Fe312 O317 1.997 . S
Fe312 O318 2.002 . S
Fe312 O323 1.976 . S
Fe312 O326 1.996 . S
Fe313 O314 1.918 . S
Fe313 O321 1.997 . S
Fe313 O324 1.996 . S
Fe313 O328 1.976 . S
Fe313 O331 2.002 . S
O314 Fe312 1.918 . S
O314 Fe313 1.918 . S
O314 Fe315 1.918 . S
Fe315 O314 1.918 . S
Fe315 O316 2.002 . S
Fe315 O325 1.976 . S
Fe315 O329 1.996 . S
Fe315 O332 1.997 . S
O316 Fe315 2.002 . S
O316 C333 1.295 . S
O317 Fe312 1.997 . S
O317 C333 1.235 . S
O318 Fe312 2.002 . S
O318 C319 1.295 . S
C319 O318 1.295 . S
C319 O321 1.235 . S
C320 O325 1.287 . S
C320 O326 1.255 . S
O321 Fe313 1.997 . S
O321 C319 1.235 . S
C322 O328 1.287 . S
C322 O329 1.255 . S
O323 Fe312 1.976 . S
O323 C330 1.287 . S
O324 Fe313 1.996 . S
O324 C330 1.255 . S
O325 Fe315 1.976 . S
O325 C320 1.287 . S
O326 Fe312 1.996 . S
O326 C320 1.255 . S
C327 O331 1.295 . S
C327 O332 1.235 . S
O328 Fe313 1.976 . S
O328 C322 1.287 . S
O329 Fe315 1.996 . S
O329 C322 1.255 . S
C330 O323 1.287 . S
C330 O324 1.255 . S
O331 Fe313 2.002 . S
O331 C327 1.295 . S
O332 Fe315 1.997 . S
O332 C327 1.235 . S
C333 O316 1.295 . S
C333 O317 1.235 . S
Fe334 O336 1.918 . S
Fe334 O339 1.997 . S
Fe334 O340 2.002 . S
Fe334 O345 1.976 . S
Fe334 O348 1.996 . S
Fe335 O336 1.918 . S
Fe335 O343 1.997 . S
Fe335 O346 1.996 . S
Fe335 O350 1.976 . S
Fe335 O353 2.002 . S
O336 Fe334 1.918 . S
O336 Fe335 1.918 . S
O336 Fe337 1.918 . S
Fe337 O336 1.918 . S
Fe337 O338 2.002 . S
Fe337 O347 1.976 . S
Fe337 O351 1.996 . S
Fe337 O354 1.997 . S
O338 Fe337 2.002 . S
O338 C355 1.295 . S
O339 Fe334 1.997 . S
O339 C355 1.235 . S
O340 Fe334 2.002 . S
O340 C341 1.295 . S
C341 O340 1.295 . S
C341 O343 1.235 . S
C342 O347 1.287 . S
C342 O348 1.255 . S
O343 Fe335 1.997 . S
O343 C341 1.235 . S
C344 O350 1.287 . S
C344 O351 1.255 . S
O345 Fe334 1.976 . S
O345 C352 1.287 . S
O346 Fe335 1.996 . S
O346 C352 1.255 . S
O347 Fe337 1.976 . S
O347 C342 1.287 . S
O348 Fe334 1.996 . S
O348 C342 1.255 . S
C349 O353 1.295 . S
C349 O354 1.235 . S
O350 Fe335 1.976 . S
O350 C344 1.287 . S
O351 Fe337 1.996 . S
O351 C344 1.255 . S
C352 O345 1.287 . S
C352 O346 1.255 . S
O353 Fe335 2.002 . S
O353 C349 1.295 . S
O354 Fe337 1.997 . S
O354 C349 1.235 . S
C355 O338 1.295 . S
C355 O339 1.235 . S
Fe356 O358 1.918 . S
Fe356 O361 1.997 . S
Fe356 O362 2.002 . S
Fe356 O367 1.976 . S
Fe356 O370 1.996 . S
Fe357 O358 1.918 . S
Fe357 O365 1.997 . S
Fe357 O368 1.996 . S
Fe357 O372 1.976 . S
Fe357 O375 2.002 . S
O358 Fe356 1.918 . S
O358 Fe357 1.918 . S
O358 Fe359 1.918 . S
Fe359 O358 1.918 . S
Fe359 O360 2.002 . S
Fe359 O369 1.976 . S
Fe359 O373 1.996 . S
Fe359 O376 1.997 . S
O360 Fe359 2.002 . S
O360 C377 1.295 . S
O361 Fe356 1.997 . S
O361 C377 1.235 . S
O362 Fe356 2.002 . S
O362 C363 1.295 . S
C363 O362 1.295 . S
C363 O365 1.235 . S
C364 O369 1.287 . S
C364 O370 1.255 . S
O365 Fe357 1.997 . S
O365 C363 1.235 . S
C366 O372 1.287 . S
C366 O373 1.255 . S
O367 Fe356 1.976 . S
O367 C374 1.287 . S
O368 Fe357 1.996 . S
O368 C374 1.255 . S
O369 Fe359 1.976 . S
O369 C364 1.287 . S
O370 Fe356 1.996 . S
O370 C364 1.255 . S
C371 O375 1.295 . S
C371 O376 1.235 . S
O372 Fe357 1.976 . S
O372 C366 1.287 . S
O373 Fe359 1.996 . S
O373 C366 1.255 . S
C374 O367 1.287 . S
C374 O368 1.255 . S
O375 Fe357 2.002 . S
O375 C371 1.295 . S
O376 Fe359 1.997 . S
O376 C371 1.235 . S
C377 O360 1.295 . S
C377 O361 1.235 . S
Fe378 O380 1.918 . S
Fe378 O383 1.997 . S
Fe378 O384 2.002 . S
Fe378 O389 1.976 . S
Fe378 O392 1.996 . S
Fe379 O380 1.918 . S
Fe379 O387 1.997 . S
Fe379 O390 1.996 . S
Fe379 O394 1.976 . S
Fe379 O397 2.002 . S
O380 Fe378 1.918 . S
O380 Fe379 1.918 . S
O380 Fe381 1.918 . S
Fe381 O380 1.918 . S
Fe381 O382 2.002 . S
Fe381 O391 1.976 . S
Fe381 O395 1.996 . S
Fe381 O398 1.997 . S
O382 Fe381 2.002 . S
O382 C399 1.295 . S
O383 Fe378 1.997 . S
O383 C399 1.235 . S
O384 Fe378 2.002 . S
O384 C385 1.295 . S
C385 O384 1.295 . S
C385 O387 1.235 . S
C386 O391 1.287 . S
C386 O392 1.255 . S
O387 Fe379 1.997 . S
O387 C385 1.235 . S
C388 O394 1.287 . S
C388 O395 1.255 . S
O389 Fe378 1.976 . S
O389 C396 1.287 . S
O390 Fe379 1.996 . S
O390 C396 1.255 . S
O391 Fe381 1.976 . S
O391 C386 1.287 . S
O392 Fe378 1.996 . S
O392 C386 1.255 . S
C393 O397 1.295 . S
C393 O398 1.235 . S
O394 Fe379 1.976 . S
O394 C388 1.287 . S
O395 Fe381 1.996 . S
O395 C388 1.255 . S
C396 O389 1.287 . S
C396 O390 1.255 . S
O397 Fe379 2.002 . S
O397 C393 1.295 . S
O398 Fe381 1.997 . S
O398 C393 1.235 . S
C399 O382 1.295 . S
C399 O383 1.235 . S
Fe400 O402 1.918 . S
Fe400 O405 1.997 . S
Fe400 O406 2.002 . S
Fe400 O411 1.976 . S
Fe400 O414 1.996 . S
Fe401 O402 1.918 . S
Fe401 O409 1.997 . S
Fe401 O412 1.996 . S
Fe401 O416 1.976 . S
Fe401 O419 2.002 . S
O402 Fe400 1.918 . S
O402 Fe401 1.918 . S
O402 Fe403 1.918 . S
Fe403 O402 1.918 . S
Fe403 O404 2.002 . S
Fe403 O413 1.976 . S
Fe403 O417 1.996 . S
Fe403 O420 1.997 . S
O404 Fe403 2.002 . S
O404 C421 1.295 . S
O405 Fe400 1.997 . S
O405 C421 1.235 . S
O406 Fe400 2.002 . S
O406 C407 1.295 . S
C407 O406 1.295 . S
C407 O409 1.235 . S
C408 O413 1.287 . S
C408 O414 1.255 . S
O409 Fe401 1.997 . S
O409 C407 1.235 . S
C410 O416 1.287 . S
C410 O417 1.255 . S
O411 Fe400 1.976 . S
O411 C418 1.287 . S
O412 Fe401 1.996 . S
O412 C418 1.255 . S
O413 Fe403 1.976 . S
O413 C408 1.287 . S
O414 Fe400 1.996 . S
O414 C408 1.255 . S
C415 O419 1.295 . S
C415 O420 1.235 . S
O416 Fe401 1.976 . S
O416 C410 1.287 . S
O417 Fe403 1.996 . S
O417 C410 1.255 . S
C418 O411 1.287 . S
C418 O412 1.255 . S
O419 Fe401 2.002 . S
O419 C415 1.295 . S
O420 Fe403 1.997 . S
O420 C415 1.235 . S
C421 O404 1.295 . S
C421 O405 1.235 . S
Fe422 O424 1.918 . S
Fe422 O427 1.997 . S
Fe422 O428 2.002 . S
Fe422 O433 1.976 . S
Fe422 O436 1.996 . S
Fe423 O424 1.918 . S
Fe423 O431 1.997 . S
Fe423 O434 1.996 . S
Fe423 O438 1.976 . S
Fe423 O441 2.002 . S
O424 Fe422 1.918 . S
O424 Fe423 1.918 . S
O424 Fe425 1.918 . S
Fe425 O424 1.918 . S
Fe425 O426 2.002 . S
Fe425 O435 1.976 . S
Fe425 O439 1.996 . S
Fe425 O442 1.997 . S
O426 Fe425 2.002 . S
O426 C443 1.295 . S
O427 Fe422 1.997 . S
O427 C443 1.235 . S
O428 Fe422 2.002 . S
O428 C429 1.295 . S
C429 O428 1.295 . S
C429 O431 1.235 . S
C430 O435 1.287 . S
C430 O436 1.255 . S
O431 Fe423 1.997 . S
O431 C429 1.235 . S
C432 O438 1.287 . S
C432 O439 1.255 . S
O433 Fe422 1.976 . S
O433 C440 1.287 . S
O434 Fe423 1.996 . S
O434 C440 1.255 . S
O435 Fe425 1.976 . S
O435 C430 1.287 . S
O436 Fe422 1.996 . S
O436 C430 1.255 . S
C437 O441 1.295 . S
C437 O442 1.235 . S
O438 Fe423 1.976 . S
O438 C432 1.287 . S
O439 Fe425 1.996 . S
O439 C432 1.255 . S
C440 O433 1.287 . S
C440 O434 1.255 . S
O441 Fe423 2.002 . S
O441 C437 1.295 . S
O442 Fe425 1.997 . S
O442 C437 1.235 . S
C443 O426 1.295 . S
C443 O427 1.235 . S
Fe444 O446 1.918 . S
Fe444 O449 1.997 . S
Fe444 O450 2.002 . S
Fe444 O455 1.976 . S
Fe444 O458 1.996 . S
Fe445 O446 1.918 . S
Fe445 O453 1.997 . S
Fe445 O456 1.996 . S
Fe445 O460 1.976 . S
Fe445 O463 2.002 . S
O446 Fe444 1.918 . S
O446 Fe445 1.918 . S
O446 Fe447 1.918 . S
Fe447 O446 1.918 . S
Fe447 O448 2.002 . S
Fe447 O457 1.976 . S
Fe447 O461 1.996 . S
Fe447 O464 1.997 . S
O448 Fe447 2.002 . S
O448 C465 1.295 . S
O449 Fe444 1.997 . S
O449 C465 1.235 . S
O450 Fe444 2.002 . S
O450 C451 1.295 . S
C451 O450 1.295 . S
C451 O453 1.235 . S
C452 O457 1.287 . S
C452 O458 1.255 . S
O453 Fe445 1.997 . S
O453 C451 1.235 . S
C454 O460 1.287 . S
C454 O461 1.255 . S
O455 Fe444 1.976 . S
O455 C462 1.287 . S
O456 Fe445 1.996 . S
O456 C462 1.255 . S
O457 Fe447 1.976 . S
O457 C452 1.287 . S
O458 Fe444 1.996 . S
O458 C452 1.255 . S
C459 O463 1.295 . S
C459 O464 1.235 . S
O460 Fe445 1.976 . S
O460 C454 1.287 . S
O461 Fe447 1.996 . S
O461 C454 1.255 . S
C462 O455 1.287 . S
C462 O456 1.255 . S
O463 Fe445 2.002 . S
O463 C459 1.295 . S
O464 Fe447 1.997 . S
O464 C459 1.235 . S
C465 O448 1.295 . S
C465 O449 1.235 . S
Fe466 O468 1.918 . S
Fe466 O471 1.997 . S
Fe466 O472 2.002 . S
Fe466 O477 1.976 . S
Fe466 O480 1.996 . S
Fe467 O468 1.918 . S
Fe467 O475 1.997 . S
Fe467 O478 1.996 . S
Fe467 O482 1.976 . S
Fe467 O485 2.002 . S
O468 Fe466 1.918 . S
O468 Fe467 1.918 . S
O468 Fe469 1.918 . S
Fe469 O468 1.918 . S
Fe469 O470 2.002 . S
Fe469 O479 1.976 . S
Fe469 O483 1.996 . S
Fe469 O486 1.997 . S
O470 Fe469 2.002 . S
O470 C487 1.295 . S
O471 Fe466 1.997 . S
O471 C487 1.235 . S
O472 Fe466 2.002 . S
O472 C473 1.295 . S
C473 O472 1.295 . S
C473 O475 1.235 . S
C474 O479 1.287 . S
C474 O480 1.255 . S
O475 Fe467 1.997 . S
O475 C473 1.235 . S
C476 O482 1.287 . S
C476 O483 1.255 . S
O477 Fe466 1.976 . S
O477 C484 1.287 . S
O478 Fe467 1.996 . S
O478 C484 1.255 . S
O479 Fe469 1.976 . S
O479 C474 1.287 . S
O480 Fe466 1.996 . S
O480 C474 1.255 . S
C481 O485 1.295 . S
C481 O486 1.235 . S
O482 Fe467 1.976 . S
O482 C476 1.287 . S
O483 Fe469 1.996 . S
O483 C476 1.255 . S
C484 O477 1.287 . S
C484 O478 1.255 . S
O485 Fe467 2.002 . S
O485 C481 1.295 . S
O486 Fe469 1.997 . S
O486 C481 1.235 . S
C487 O470 1.295 . S
C487 O471 1.235 . S
Fe488 O490 1.918 . S
Fe488 O493 1.997 . S
Fe488 O494 2.002 . S
Fe488 O499 1.976 . S
Fe488 O502 1.996 . S
Fe489 O490 1.918 . S
Fe489 O497 1.997 . S
Fe489 O500 1.996 . S
Fe489 O504 1.976 . S
Fe489 O507 2.002 . S
O490 Fe488 1.918 . S
O490 Fe489 1.918 . S
O490 Fe491 1.918 . S
Fe491 O490 1.918 . S
Fe491 O492 2.002 . S
Fe491 O501 1.976 . S
Fe491 O505 1.996 . S
Fe491 O508 1.997 . S
O492 Fe491 2.002 . S
O492 C509 1.295 . S
O493 Fe488 1.997 . S
O493 C509 1.235 . S
O494 Fe488 2.002 . S
O494 C495 1.295 . S
C495 O494 1.295 . S
C495 O497 1.235 . S
C496 O501 1.287 . S
C496 O502 1.255 . S
O497 Fe489 1.997 . S
O497 C495 1.235 . S
C498 O504 1.287 . S
C498 O505 1.255 . S
O499 Fe488 1.976 . S
O499 C506 1.287 . S
O500 Fe489 1.996 . S
O500 C506 1.255 . S
O501 Fe491 1.976 . S
O501 C496 1.287 . S
O502 Fe488 1.996 . S
O502 C496 1.255 . S
C503 O507 1.295 . S
C503 O508 1.235 . S
O504 Fe489 1.976 . S
O504 C498 1.287 . S
O505 Fe491 1.996 . S
O505 C498 1.255 . S
C506 O499 1.287 . S
C506 O500 1.255 . S
O507 Fe489 2.002 . S
O507 C503 1.295 . S
O508 Fe491 1.997 . S
O508 C503 1.235 . S
C509 O492 1.295 . S
C509 O493 1.235 . S
Fe510 O512 1.918 . S
Fe510 O515 1.997 . S
Fe510 O516 2.002 . S
Fe510 O521 1.976 . S
Fe510 O524 1.996 . S
Fe511 O512 1.918 . S
Fe511 O519 1.997 . S
Fe511 O522 1.996 . S
Fe511 O526 1.976 . S
Fe511 O529 2.002 . S
O512 Fe510 1.918 . S
O512 Fe511 1.918 . S
O512 Fe513 1.918 . S
Fe513 O512 1.918 . S
Fe513 O514 2.002 . S
Fe513 O523 1.976 . S
Fe513 O527 1.996 . S
Fe513 O530 1.997 . S
O514 Fe513 2.002 . S
O514 C531 1.295 . S
O515 Fe510 1.997 . S
O515 C531 1.235 . S
O516 Fe510 2.002 . S
O516 C517 1.295 . S
C517 O516 1.295 . S
C517 O519 1.235 . S
C518 O523 1.287 . S
C518 O524 1.255 . S
O519 Fe511 1.997 . S
O519 C517 1.235 . S
C520 O526 1.287 . S
C520 O527 1.255 . S
O521 Fe510 1.976 . S
O521 C528 1.287 . S
O522 Fe511 1.996 . S
O522 C528 1.255 . S
O523 Fe513 1.976 . S
O523 C518 1.287 . S
O524 Fe510 1.996 . S
O524 C518 1.255 . S
C525 O529 1.295 . S
C525 O530 1.235 . S
O526 Fe511 1.976 . S
O526 C520 1.287 . S
O527 Fe513 1.996 . S
O527 C520 1.255 . S
C528 O521 1.287 . S
C528 O522 1.255 . S
O529 Fe511 2.002 . S
O529 C525 1.295 . S
O530 Fe513 1.997 . S
O530 C525 1.235 . S
C531 O514 1.295 . S
C531 O515 1.235 . S
Fe532 O534 1.918 . S
Fe532 O537 1.997 . S
Fe532 O538 2.002 . S
Fe532 O543 1.976 . S
Fe532 O546 1.996 . S
Fe533 O534 1.918 . S
Fe533 O541 1.997 . S
Fe533 O544 1.996 . S
Fe533 O548 1.976 . S
Fe533 O551 2.002 . S
O534 Fe532 1.918 . S
O534 Fe533 1.918 . S
O534 Fe535 1.918 . S
Fe535 O534 1.918 . S
Fe535 O536 2.002 . S
Fe535 O545 1.976 . S
Fe535 O549 1.996 . S
Fe535 O552 1.997 . S
O536 Fe535 2.002 . S
O536 C553 1.295 . S
O537 Fe532 1.997 . S
O537 C553 1.235 . S
O538 Fe532 2.002 . S
O538 C539 1.295 . S
C539 O538 1.295 . S
C539 O541 1.235 . S
C540 O545 1.287 . S
C540 O546 1.255 . S
O541 Fe533 1.997 . S
O541 C539 1.235 . S
C542 O548 1.287 . S
C542 O549 1.255 . S
O543 Fe532 1.976 . S
O543 C550 1.287 . S
O544 Fe533 1.996 . S
O544 C550 1.255 . S
O545 Fe535 1.976 . S
O545 C540 1.287 . S
O546 Fe532 1.996 . S
O546 C540 1.255 . S
C547 O551 1.295 . S
C547 O552 1.235 . S
O548 Fe533 1.976 . S
O548 C542 1.287 . S
O549 Fe535 1.996 . S
O549 C542 1.255 . S
C550 O543 1.287 . S
C550 O544 1.255 . S
O551 Fe533 2.002 . S
O551 C547 1.295 . S
O552 Fe535 1.997 . S
O552 C547 1.235 . S
C553 O536 1.295 . S
C553 O537 1.235 . S
Fe554 O556 1.918 . S
Fe554 O559 1.997 . S
Fe554 O560 2.002 . S
Fe554 O565 1.976 . S
Fe554 O568 1.996 . S
Fe555 O556 1.918 . S
Fe555 O563 1.997 . S
Fe555 O566 1.996 . S
Fe555 O570 1.976 . S
Fe555 O573 2.002 . S
O556 Fe554 1.918 . S
O556 Fe555 1.918 . S
O556 Fe557 1.918 . S
Fe557 O556 1.918 . S
Fe557 O558 2.002 . S
Fe557 O567 1.976 . S
Fe557 O571 1.996 . S
Fe557 O574 1.997 . S
O558 Fe557 2.002 . S
O558 C575 1.295 . S
O559 Fe554 1.997 . S
O559 C575 1.235 . S
O560 Fe554 2.002 . S
O560 C561 1.295 . S
C561 O560 1.295 . S
C561 O563 1.235 . S
C562 O567 1.287 . S
C562 O568 1.255 . S
O563 Fe555 1.997 . S
O563 C561 1.235 . S
C564 O570 1.287 . S
C564 O571 1.255 . S
O565 Fe554 1.976 . S
O565 C572 1.287 . S
O566 Fe555 1.996 . S
O566 C572 1.255 . S
O567 Fe557 1.976 . S
O567 C562 1.287 . S
O568 Fe554 1.996 . S
O568 C562 1.255 . S
C569 O573 1.295 . S
C569 O574 1.235 . S
O570 Fe555 1.976 . S
O570 C564 1.287 . S
O571 Fe557 1.996 . S
O571 C564 1.255 . S
C572 O565 1.287 . S
C572 O566 1.255 . S
O573 Fe555 2.002 . S
O573 C569 1.295 . S
O574 Fe557 1.997 . S
O574 C569 1.235 . S
C575 O558 1.295 . S
C575 O559 1.235 . S
Fe576 O578 1.918 . S
Fe576 O581 1.997 . S
Fe576 O582 2.002 . S
Fe576 O587 1.976 . S
Fe576 O590 1.996 . S
Fe577 O578 1.918 . S
Fe577 O585 1.997 . S
Fe577 O588 1.996 . S
Fe577 O592 1.976 . S
Fe577 O595 2.002 . S
O578 Fe576 1.918 . S
O578 Fe577 1.918 . S
O578 Fe579 1.918 . S
Fe579 O578 1.918 . S
Fe579 O580 2.002 . S
Fe579 O589 1.976 . S
Fe579 O593 1.996 . S
Fe579 O596 1.997 . S
O580 Fe579 2.002 . S
O580 C597 1.295 . S
O581 Fe576 1.997 . S
O581 C597 1.235 . S
O582 Fe576 2.002 . S
O582 C583 1.295 . S
C583 O582 1.295 . S
C583 O585 1.235 . S
C584 O589 1.287 . S
C584 O590 1.255 . S
O585 Fe577 1.997 . S
O585 C583 1.235 . S
C586 O592 1.287 . S
C586 O593 1.255 . S
O587 Fe576 1.976 . S
O587 C594 1.287 . S
O588 Fe577 1.996 . S
O588 C594 1.255 . S
O589 Fe579 1.976 . S
O589 C584 1.287 . S
O590 Fe576 1.996 . S
O590 C584 1.255 . S
C591 O595 1.295 . S
C591 O596 1.235 . S
O592 Fe577 1.976 . S
O592 C586 1.287 . S
O593 Fe579 1.996 . S
O593 C586 1.255 . S
C594 O587 1.287 . S
C594 O588 1.255 . S
O595 Fe577 2.002 . S
O595 C591 1.295 . S
O596 Fe579 1.997 . S
O596 C591 1.235 . S
C597 O580 1.295 . S
C597 O581 1.235 . S
Fe598 O600 1.918 . S
Fe598 O603 1.997 . S
Fe598 O604 2.002 . S
Fe598 O609 1.976 . S
Fe598 O612 1.996 . S
Fe599 O600 1.918 . S
Fe599 O607 1.997 . S
Fe599 O610 1.996 . S
Fe599 O614 1.976 . S
Fe599 O617 2.002 . S
O600 Fe598 1.918 . S
O600 Fe599 1.918 . S
O600 Fe601 1.918 . S
Fe601 O600 1.918 . S
Fe601 O602 2.002 . S
Fe601 O611 1.976 . S
Fe601 O615 1.996 . S
Fe601 O618 1.997 . S
O602 Fe601 2.002 . S
O602 C619 1.295 . S
O603 Fe598 1.997 . S
O603 C619 1.235 . S
O604 Fe598 2.002 . S
O604 C605 1.295 . S
C605 O604 1.295 . S
C605 O607 1.235 . S
C606 O611 1.287 . S
C606 O612 1.255 . S
O607 Fe599 1.997 . S
O607 C605 1.235 . S
C608 O614 1.287 . S
C608 O615 1.255 . S
O609 Fe598 1.976 . S
O609 C616 1.287 . S
O610 Fe599 1.996 . S
O610 C616 1.255 . S
O611 Fe601 1.976 . S
O611 C606 1.287 . S
O612 Fe598 1.996 . S
O612 C606 1.255 . S
C613 O617 1.295 . S
C613 O618 1.235 . S
O614 Fe599 1.976 . S
O614 C608 1.287 . S
O615 Fe601 1.996 . S
O615 C608 1.255 . S
C616 O609 1.287 . S
C616 O610 1.255 . S
O617 Fe599 2.002 . S
O617 C613 1.295 . S
O618 Fe601 1.997 . S
O618 C613 1.235 . S
C619 O602 1.295 . S
C619 O603 1.235 . S
Fe620 O622 1.918 . S
Fe620 O625 1.997 . S
Fe620 O626 2.002 . S
Fe620 O631 1.976 . S
Fe620 O634 1.996 . S
Fe621 O622 1.918 . S
Fe621 O629 1.997 . S
Fe621 O632 1.996 . S
Fe621 O636 1.976 . S
Fe621 O639 2.002 . S
O622 Fe620 1.918 . S
O622 Fe621 1.918 . S
O622 Fe623 1.918 . S
Fe623 O622 1.918 . S
Fe623 O624 2.002 . S
Fe623 O633 1.976 . S
Fe623 O637 1.996 . S
Fe623 O640 1.997 . S
O624 Fe623 2.002 . S
O624 C641 1.295 . S
O625 Fe620 1.997 . S
O625 C641 1.235 . S
O626 Fe620 2.002 . S
O626 C627 1.295 . S
C627 O626 1.295 . S
C627 O629 1.235 . S
C628 O633 1.287 . S
C628 O634 1.255 . S
O629 Fe621 1.997 . S
O629 C627 1.235 . S
C630 O636 1.287 . S
C630 O637 1.255 . S
O631 Fe620 1.976 . S
O631 C638 1.287 . S
O632 Fe621 1.996 . S
O632 C638 1.255 . S
O633 Fe623 1.976 . S
O633 C628 1.287 . S
O634 Fe620 1.996 . S
O634 C628 1.255 . S
C635 O639 1.295 . S
C635 O640 1.235 . S
O636 Fe621 1.976 . S
O636 C630 1.287 . S
O637 Fe623 1.996 . S
O637 C630 1.255 . S
C638 O631 1.287 . S
C638 O632 1.255 . S
O639 Fe621 2.002 . S
O639 C635 1.295 . S
O640 Fe623 1.997 . S
O640 C635 1.235 . S
C641 O624 1.295 . S
C641 O625 1.235 . S
Fe642 O644 1.918 . S
Fe642 O647 1.997 . S
Fe642 O648 2.002 . S
Fe642 O653 1.976 . S
Fe642 O656 1.996 . S
Fe643 O644 1.918 . S
Fe643 O651 1.997 . S
Fe643 O654 1.996 . S
Fe643 O658 1.976 . S
Fe643 O661 2.002 . S
O644 Fe642 1.918 . S
O644 Fe643 1.918 . S
O644 Fe645 1.918 . S
Fe645 O644 1.918 . S
Fe645 O646 2.002 . S
Fe645 O655 1.976 . S
Fe645 O659 1.996 . S
Fe645 O662 1.997 . S
O646 Fe645 2.002 . S
O646 C663 1.295 . S
O647 Fe642 1.997 . S
O647 C663 1.235 . S
O648 Fe642 2.002 . S
O648 C649 1.295 . S
C649 O648 1.295 . S
C649 O651 1.235 . S
C650 O655 1.287 . S
C650 O656 1.255 . S
O651 Fe643 1.997 . S
O651 C649 1.235 . S
C652 O658 1.287 . S
C652 O659 1.255 . S
O653 Fe642 1.976 . S
O653 C660 1.287 . S
O654 Fe643 1.996 . S
O654 C660 1.255 . S
O655 Fe645 1.976 . S
O655 C650 1.287 . S
O656 Fe642 1.996 . S
O656 C650 1.255 . S
C657 O661 1.295 . S
C657 O662 1.235 . S
O658 Fe643 1.976 . S
O658 C652 1.287 . S
O659 Fe645 1.996 . S
O659 C652 1.255 . S
C660 O653 1.287 . S
C660 O654 1.255 . S
O661 Fe643 2.002 . S
O661 C657 1.295 . S
O662 Fe645 1.997 . S
O662 C657 1.235 . S
C663 O646 1.295 . S
C663 O647 1.235 . S
H664 C672 0.950 . S
H665 C677 0.950 . S
H666 C674 0.950 . S
H667 C676 0.950 . S
H668 C678 0.950 . S
H669 C680 0.950 . S
H670 C682 0.950 . S
H671 C683 0.950 . S
C672 H664 0.950 . S
C672 C673 1.386 . S
C672 C674 1.391 . S
C673 C672 1.386 . S
C673 C677 1.393 . S
C674 H666 0.950 . S
C674 C672 1.391 . S
C674 C675 1.400 . S
C675 C674 1.400 . S
C675 C676 1.398 . S
C675 C681 1.491 . S
C676 H667 0.950 . S
C676 C675 1.398 . S
C676 C677 1.391 . S
C677 H665 0.950 . S
C677 C673 1.393 . S
C677 C676 1.391 . S
C678 H668 0.950 . S
C678 C679 1.386 . S
C678 C680 1.391 . S
C679 C678 1.386 . S
C679 C683 1.393 . S
C680 H669 0.950 . S
C680 C678 1.391 . S
C680 C681 1.400 . S
C681 C675 1.491 . S
C681 C680 1.400 . S
C681 C682 1.398 . S
C682 H670 0.950 . S
C682 C681 1.398 . S
C682 C683 1.391 . S
C683 H671 0.950 . S
C683 C679 1.393 . S
C683 C682 1.391 . S
H684 C692 0.950 . S
H685 C697 0.950 . S
H686 C694 0.950 . S
H687 C696 0.950 . S
H688 C698 0.950 . S
H689 C700 0.950 . S
H690 C702 0.950 . S
H691 C703 0.950 . S
C692 H684 0.950 . S
C692 C693 1.386 . S
C692 C694 1.391 . S
C693 C692 1.386 . S
C693 C697 1.393 . S
C694 H686 0.950 . S
C694 C692 1.391 . S
C694 C695 1.400 . S
C695 C694 1.400 . S
C695 C696 1.398 . S
C695 C701 1.491 . S
C696 H687 0.950 . S
C696 C695 1.398 . S
C696 C697 1.391 . S
C697 H685 0.950 . S
C697 C693 1.393 . S
C697 C696 1.391 . S
C698 H688 0.950 . S
C698 C699 1.386 . S
C698 C700 1.391 . S
C699 C698 1.386 . S
C699 C703 1.393 . S
C700 H689 0.950 . S
C700 C698 1.391 . S
C700 C701 1.400 . S
C701 C695 1.491 . S
C701 C700 1.400 . S
C701 C702 1.398 . S
C702 H690 0.950 . S
C702 C701 1.398 . S
C702 C703 1.391 . S
C703 H691 0.950 . S
C703 C699 1.393 . S
C703 C702 1.391 . S
H704 C712 0.950 . S
H705 C717 0.950 . S
H706 C714 0.950 . S
H707 C716 0.950 . S
H708 C718 0.950 . S
H709 C720 0.950 . S
H710 C722 0.950 . S
H711 C723 0.950 . S
C712 H704 0.950 . S
C712 C713 1.386 . S
C712 C714 1.391 . S
C713 C712 1.386 . S
C713 C717 1.393 . S
C714 H706 0.950 . S
C714 C712 1.391 . S
C714 C715 1.400 . S
C715 C714 1.400 . S
C715 C716 1.398 . S
C715 C721 1.491 . S
C716 H707 0.950 . S
C716 C715 1.398 . S
C716 C717 1.391 . S
C717 H705 0.950 . S
C717 C713 1.393 . S
C717 C716 1.391 . S
C718 H708 0.950 . S
C718 C719 1.386 . S
C718 C720 1.391 . S
C719 C718 1.386 . S
C719 C723 1.393 . S
C720 H709 0.950 . S
C720 C718 1.391 . S
C720 C721 1.400 . S
C721 C715 1.491 . S
C721 C720 1.400 . S
C721 C722 1.398 . S
C722 H710 0.950 . S
C722 C721 1.398 . S
C722 C723 1.391 . S
C723 H711 0.950 . S
C723 C719 1.393 . S
C723 C722 1.391 . S
H724 C732 0.950 . S
H725 C737 0.950 . S
H726 C734 0.950 . S
H727 C736 0.950 . S
H728 C738 0.950 . S
H729 C740 0.950 . S
H730 C742 0.950 . S
H731 C743 0.950 . S
C732 H724 0.950 . S
C732 C733 1.386 . S
C732 C734 1.391 . S
C733 C732 1.386 . S
C733 C737 1.393 . S
C734 H726 0.950 . S
C734 C732 1.391 . S
C734 C735 1.400 . S
C735 C734 1.400 . S
C735 C736 1.398 . S
C735 C741 1.491 . S
C736 H727 0.950 . S
C736 C735 1.398 . S
C736 C737 1.391 . S
C737 H725 0.950 . S
C737 C733 1.393 . S
C737 C736 1.391 . S
C738 H728 0.950 . S
C738 C739 1.386 . S
C738 C740 1.391 . S
C739 C738 1.386 . S
C739 C743 1.393 . S
C740 H729 0.950 . S
C740 C738 1.391 . S
C740 C741 1.400 1_556 S
C741 C735 1.491 . S
C741 C740 1.400 1_554 S
C741 C742 1.398 . S
C742 H730 0.950 . S
C742 C741 1.398 . S
C742 C743 1.391 1_554 S
C743 H731 0.950 . S
C743 C739 1.393 . S
C743 C742 1.391 1_556 S
H744 C752 0.950 . S
H745 C757 0.950 . S
H746 C754 0.950 . S
H747 C756 0.950 . S
H748 C758 0.950 . S
H749 C760 0.950 . S
H750 C762 0.950 . S
H751 C763 0.950 . S
C752 H744 0.950 . S
C752 C753 1.386 . S
C752 C754 1.391 . S
C753 C752 1.386 . S
C753 C757 1.393 . S
C754 H746 0.950 . S
C754 C752 1.391 . S
C754 C755 1.400 . S
C755 C754 1.400 . S
C755 C756 1.398 . S
C755 C761 1.491 . S
C756 H747 0.950 . S
C756 C755 1.398 . S
C756 C757 1.391 . S
C757 H745 0.950 . S
C757 C753 1.393 . S
C757 C756 1.391 . S
C758 H748 0.950 . S
C758 C759 1.386 . S
C758 C760 1.391 . S
C759 C758 1.386 . S
C759 C763 1.393 . S
C760 H749 0.950 . S
C760 C758 1.391 . S
C760 C761 1.400 . S
C761 C755 1.491 . S
C761 C760 1.400 . S
C761 C762 1.398 . S
C762 H750 0.950 . S
C762 C761 1.398 . S
C762 C763 1.391 . S
C763 H751 0.950 . S
C763 C759 1.393 . S
C763 C762 1.391 . S
H764 C772 0.950 . S
H765 C777 0.950 . S
H766 C774 0.950 . S
H767 C776 0.950 . S
H768 C778 0.950 . S
H769 C780 0.950 . S
H770 C782 0.950 . S
H771 C783 0.950 . S
C772 H764 0.950 . S
C772 C773 1.386 . S
C772 C774 1.391 . S
C773 C772 1.386 . S
C773 C777 1.393 . S
C774 H766 0.950 . S
C774 C772 1.391 . S
C774 C775 1.400 . S
C775 C774 1.400 . S
C775 C776 1.398 . S
C775 C781 1.491 . S
C776 H767 0.950 . S
C776 C775 1.398 . S
C776 C777 1.391 . S
C777 H765 0.950 . S
C777 C773 1.393 . S
C777 C776 1.391 . S
C778 H768 0.950 . S
C778 C779 1.386 . S
C778 C780 1.391 . S
C779 C778 1.386 . S
C779 C783 1.393 . S
C780 H769 0.950 . S
C780 C778 1.391 . S
C780 C781 1.400 . S
C781 C775 1.491 . S
C781 C780 1.400 . S
C781 C782 1.398 . S
C782 H770 0.950 . S
C782 C781 1.398 . S
C782 C783 1.391 . S
C783 H771 0.950 . S
C783 C779 1.393 . S
C783 C782 1.391 . S
H784 C792 0.950 . S
H785 C797 0.950 . S
H786 C794 0.950 . S
H787 C796 0.950 . S
H788 C798 0.950 . S
H789 C800 0.950 . S
H790 C802 0.950 . S
H791 C803 0.950 . S
C792 H784 0.950 . S
C792 C793 1.386 . S
C792 C794 1.391 . S
C793 C792 1.386 . S
C793 C797 1.393 . S
C794 H786 0.950 . S
C794 C792 1.391 . S
C794 C795 1.400 . S
C795 C794 1.400 . S
C795 C796 1.398 . S
C795 C801 1.491 . S
C796 H787 0.950 . S
C796 C795 1.398 . S
C796 C797 1.391 . S
C797 H785 0.950 . S
C797 C793 1.393 . S
C797 C796 1.391 . S
C798 H788 0.950 . S
C798 C799 1.386 . S
C798 C800 1.391 . S
C799 C798 1.386 . S
C799 C803 1.393 . S
C800 H789 0.950 . S
C800 C798 1.391 . S
C800 C801 1.400 . S
C801 C795 1.491 . S
C801 C800 1.400 . S
C801 C802 1.398 . S
C802 H790 0.950 . S
C802 C801 1.398 . S
C802 C803 1.391 . S
C803 H791 0.950 . S
C803 C799 1.393 . S
C803 C802 1.391 . S
H804 C812 0.950 . S
H805 C817 0.950 . S
H806 C814 0.950 . S
H807 C816 0.950 . S
H808 C818 0.950 . S
H809 C820 0.978 . S
H810 C822 0.950 . S
H811 C823 0.950 . S
C812 H804 0.950 . S
C812 C813 1.386 . S
C812 C814 1.391 . S
C813 C812 1.386 . S
C813 C817 1.393 . S
C814 H806 0.950 . S
C814 C812 1.391 . S
C814 C815 1.400 . S
C815 C814 1.400 . S
C815 C816 1.398 . S
C815 C821 1.491 1_556 S
C816 H807 0.950 . S
C816 C815 1.398 . S
C816 C817 1.391 . S
C817 H805 0.950 . S
C817 C813 1.393 . S
C817 C816 1.391 . S
C818 H808 0.950 . S
C818 C819 1.386 . S
C818 C820 1.391 . S
C819 C818 1.386 . S
C819 C823 1.393 . S
C820 H809 0.978 . S
C820 C818 1.391 . S
C820 C821 1.400 . S
C821 C815 1.491 1_554 S
C821 C820 1.400 . S
C821 C822 1.398 . S
C822 H810 0.950 . S
C822 C821 1.398 . S
C822 C823 1.391 . S
C823 H811 0.950 . S
C823 C819 1.393 . S
C823 C822 1.391 . S
H824 C832 0.950 . S
H825 C837 0.950 . S
H826 C834 0.950 . S
H827 C836 0.950 . S
H828 C838 0.950 . S
H829 C840 0.950 . S
H830 C842 0.950 . S
H831 C843 0.950 . S
C832 H824 0.950 . S
C832 C833 1.386 . S
C832 C834 1.391 . S
C833 C832 1.386 . S
C833 C837 1.393 . S
C834 H826 0.950 . S
C834 C832 1.391 . S
C834 C835 1.400 . S
C835 C834 1.400 . S
C835 C836 1.398 . S
C835 C841 1.491 . S
C836 H827 0.950 . S
C836 C835 1.398 . S
C836 C837 1.391 . S
C837 H825 0.950 . S
C837 C833 1.393 . S
C837 C836 1.391 . S
C838 H828 0.950 . S
C838 C839 1.386 . S
C838 C840 1.391 . S
C839 C838 1.386 . S
C839 C843 1.393 . S
C840 H829 0.950 . S
C840 C838 1.391 . S
C840 C841 1.400 . S
C841 C835 1.491 . S
C841 C840 1.400 . S
C841 C842 1.398 . S
C842 H830 0.950 . S
C842 C841 1.398 . S
C842 C843 1.391 . S
C843 H831 0.950 . S
C843 C839 1.393 . S
C843 C842 1.391 . S
H844 C852 0.950 . S
H845 C857 0.950 . S
H846 C854 0.950 . S
H847 C856 0.950 . S
H848 C858 0.945 1_545 S
H849 C860 0.950 . S
H850 C862 0.950 . S
H851 C863 0.950 . S
C852 H844 0.950 . S
C852 C853 1.386 . S
C852 C854 1.391 . S
C853 C852 1.386 . S
C853 C857 1.393 . S
C854 H846 0.950 . S
C854 C852 1.391 . S
C854 C855 1.400 . S
C855 C854 1.400 . S
C855 C856 1.398 . S
C855 C861 1.491 . S
C856 H847 0.950 . S
C856 C855 1.398 . S
C856 C857 1.391 . S
C857 H845 0.950 . S
C857 C853 1.393 . S
C857 C856 1.391 . S
C858 H848 0.945 1_565 S
C858 C859 1.424 . S
C858 C860 1.359 1_565 S
C859 C858 1.424 . S
C859 C863 1.393 . S
C860 H849 0.950 . S
C860 C858 1.359 1_545 S
C860 C861 1.400 . S
C861 C855 1.491 . S
C861 C860 1.400 . S
C861 C862 1.398 1_545 S
C862 H850 0.950 . S
C862 C861 1.398 1_565 S
C862 C863 1.391 . S
C863 H851 0.950 . S
C863 C859 1.393 . S
C863 C862 1.391 . S
H864 C872 0.950 . S
H865 C877 0.950 . S
H866 C874 0.950 . S
H867 C876 0.950 . S
H868 C878 0.950 . S
H869 C880 0.950 . S
H870 C882 0.950 . S
H871 C883 0.950 . S
C872 H864 0.950 . S
C872 C873 1.386 . S
C872 C874 1.391 . S
C873 C872 1.386 . S
C873 C877 1.393 . S
C874 H866 0.950 . S
C874 C872 1.391 . S
C874 C875 1.400 . S
C875 C874 1.400 . S
C875 C876 1.398 . S
C875 C881 1.491 . S
C876 H867 0.950 . S
C876 C875 1.398 . S
C876 C877 1.391 . S
C877 H865 0.950 . S
C877 C873 1.393 . S
C877 C876 1.391 . S
C878 H868 0.950 . S
C878 C879 1.386 . S
C878 C880 1.391 . S
C879 C878 1.386 . S
C879 C883 1.393 . S
C880 H869 0.950 . S
C880 C878 1.391 . S
C880 C881 1.400 . S
C881 C875 1.491 . S
C881 C880 1.400 . S
C881 C882 1.398 . S
C882 H870 0.950 . S
C882 C881 1.398 . S
C882 C883 1.391 . S
C883 H871 0.950 . S
C883 C879 1.393 . S
C883 C882 1.391 . S
H884 C892 0.950 . S
H885 C897 0.950 . S
H886 C894 0.950 . S
H887 C896 0.950 . S
H888 C898 0.950 . S
H889 C900 0.950 1_565 S
H890 C902 0.950 . S
H891 C903 0.950 . S
C892 H884 0.950 . S
C892 C893 1.386 . S
C892 C894 1.391 . S
C893 C892 1.386 . S
C893 C897 1.393 . S
C894 H886 0.950 . S
C894 C892 1.391 . S
C894 C895 1.400 . S
C895 C894 1.400 . S
C895 C896 1.398 . S
C895 C901 1.491 1_565 S
C896 H887 0.950 . S
C896 C895 1.398 . S
C896 C897 1.391 . S
C897 H885 0.950 . S
C897 C893 1.393 . S
C897 C896 1.391 . S
C898 H888 0.950 . S
C898 C899 1.386 . S
C898 C900 1.391 . S
C899 C898 1.386 . S
C899 C903 1.393 . S
C900 H889 0.950 1_545 S
C900 C898 1.391 . S
C900 C901 1.400 . S
C901 C895 1.491 1_545 S
C901 C900 1.400 . S
C901 C902 1.398 . S
C902 H890 0.950 . S
C902 C901 1.398 . S
C902 C903 1.391 . S
C903 H891 0.950 . S
C903 C899 1.393 . S
C903 C902 1.391 . S
H904 C912 0.950 . S
H905 C917 0.950 . S
H906 C914 0.950 . S
H907 C916 0.950 . S
H908 C918 0.950 . S
H909 C920 0.950 . S
H910 C922 0.950 . S
H911 C923 0.950 . S
C912 H904 0.950 . S
C912 C913 1.386 . S
C912 C914 1.391 . S
C913 C912 1.386 . S
C913 C917 1.393 . S
C914 H906 0.950 . S
C914 C912 1.391 . S
C914 C915 1.400 . S
C915 C914 1.400 . S
C915 C916 1.398 . S
C915 C921 1.491 . S
C916 H907 0.950 . S
C916 C915 1.398 . S
C916 C917 1.391 . S
C917 H905 0.950 . S
C917 C913 1.393 . S
C917 C916 1.391 . S
C918 H908 0.950 . S
C918 C919 1.386 . S
C918 C920 1.391 . S
C919 C918 1.386 . S
C919 C923 1.393 . S
C920 H909 0.950 . S
C920 C918 1.391 . S
C920 C921 1.400 . S
C921 C915 1.491 . S
C921 C920 1.400 . S
C921 C922 1.398 . S
C922 H910 0.950 . S
C922 C921 1.398 . S
C922 C923 1.391 . S
C923 H911 0.950 . S
C923 C919 1.393 . S
C923 C922 1.391 . S
H924 C932 0.950 . S
H925 C937 0.950 . S
H926 C934 0.950 . S
H927 C936 0.950 . S
H928 C938 0.950 . S
H929 C940 0.950 . S
H930 C942 0.950 . S
H931 C943 0.950 . S
C932 H924 0.950 . S
C932 C933 1.386 . S
C932 C934 1.391 . S
C933 C932 1.386 . S
C933 C937 1.393 . S
C934 H926 0.950 . S
C934 C932 1.391 . S
C934 C935 1.400 . S
C935 C934 1.400 . S
C935 C936 1.398 . S
C935 C941 1.491 . S
C936 H927 0.950 . S
C936 C935 1.398 . S
C936 C937 1.391 . S
C937 H925 0.950 . S
C937 C933 1.393 . S
C937 C936 1.391 . S
C938 H928 0.950 . S
C938 C939 1.386 . S
C938 C940 1.391 1_565 S
C939 C938 1.386 . S
C939 C943 1.393 . S
C940 H929 0.950 . S
C940 C938 1.391 1_545 S
C940 C941 1.400 . S
C941 C935 1.491 . S
C941 C940 1.400 . S
C941 C942 1.398 1_545 S
C942 H930 0.950 . S
C942 C941 1.398 1_565 S
C942 C943 1.391 . S
C943 H931 0.950 . S
C943 C939 1.393 . S
C943 C942 1.391 . S
H944 C952 0.950 . S
H945 C957 0.950 . S
H946 C954 0.950 . S
H947 C956 0.950 . S
H948 C958 0.950 . S
H949 C960 0.950 . S
H950 C962 0.950 . S
H951 C963 0.950 . S
C952 H944 0.950 . S
C952 C953 1.386 . S
C952 C954 1.391 . S
C953 C952 1.386 . S
C953 C957 1.393 . S
C954 H946 0.950 . S
C954 C952 1.391 . S
C954 C955 1.400 . S
C955 C954 1.400 . S
C955 C956 1.398 . S
C955 C961 1.491 . S
C956 H947 0.950 . S
C956 C955 1.398 . S
C956 C957 1.391 . S
C957 H945 0.950 . S
C957 C953 1.393 . S
C957 C956 1.391 . S
C958 H948 0.950 . S
C958 C959 1.386 . S
C958 C960 1.391 . S
C959 C958 1.386 . S
C959 C963 1.393 . S
C960 H949 0.950 . S
C960 C958 1.391 . S
C960 C961 1.400 . S
C961 C955 1.491 . S
C961 C960 1.400 . S
C961 C962 1.398 . S
C962 H950 0.950 . S
C962 C961 1.398 . S
C962 C963 1.391 . S
C963 H951 0.950 . S
C963 C959 1.393 . S
C963 C962 1.391 . S
H964 C972 0.950 . S
H965 C977 0.950 . S
H966 C974 0.950 . S
H967 C976 0.950 . S
H968 C978 0.950 . S
H969 C980 0.950 . S
H970 C982 0.950 . S
H971 C983 0.950 . S
C972 H964 0.950 . S
C972 C973 1.386 . S
C972 C974 1.391 . S
C973 C972 1.386 . S
C973 C977 1.393 . S
C974 H966 0.950 . S
C974 C972 1.391 . S
C974 C975 1.400 . S
C975 C974 1.400 . S
C975 C976 1.398 . S
C975 C981 1.491 1_565 S
C976 H967 0.950 . S
C976 C975 1.398 . S
C976 C977 1.391 . S
C977 H965 0.950 . S
C977 C973 1.393 . S
C977 C976 1.391 . S
C978 H968 0.950 . S
C978 C979 1.386 . S
C978 C980 1.391 . S
C979 C978 1.386 . S
C979 C983 1.393 . S
C980 H969 0.950 . S
C980 C978 1.391 . S
C980 C981 1.400 . S
C981 C975 1.491 1_545 S
C981 C980 1.400 . S
C981 C982 1.398 . S
C982 H970 0.950 . S
C982 C981 1.398 . S
C982 C983 1.391 . S
C983 H971 0.950 . S
C983 C979 1.393 . S
C983 C982 1.391 . S
H984 C992 0.950 . S
H985 C997 0.950 . S
H986 C994 0.950 . S
H987 C996 0.950 . S
H988 C998 0.950 . S
H989 C1000 0.950 . S
H990 C1002 0.950 . S
H991 C1003 0.950 . S
C992 H984 0.950 . S
C992 C993 1.386 . S
C992 C994 1.391 . S
C993 C992 1.386 . S
C993 C997 1.393 . S
C994 H986 0.950 . S
C994 C992 1.391 . S
C994 C995 1.400 . S
C995 C994 1.400 . S
C995 C996 1.398 . S
C995 C1001 1.491 . S
C996 H987 0.950 . S
C996 C995 1.398 . S
C996 C997 1.391 . S
C997 H985 0.950 . S
C997 C993 1.393 . S
C997 C996 1.391 . S
C998 H988 0.950 . S
C998 C999 1.386 . S
C998 C1000 1.391 . S
C999 C998 1.386 . S
C999 C1003 1.393 . S
C1000 H989 0.950 . S
C1000 C998 1.391 . S
C1000 C1001 1.400 . S
C1001 C995 1.491 . S
C1001 C1000 1.400 . S
C1001 C1002 1.398 . S
C1002 H990 0.950 . S
C1002 C1001 1.398 . S
C1002 C1003 1.391 . S
C1003 H991 0.950 . S
C1003 C999 1.393 . S
C1003 C1002 1.391 . S
H1004 C1012 0.950 . S
H1005 C1017 0.950 . S
H1006 C1014 0.950 . S
H1007 C1016 0.950 . S
H1008 C1018 0.950 . S
H1009 C1020 0.950 . S
H1010 C1022 0.950 . S
H1011 C1023 0.950 . S
C1012 H1004 0.950 . S
C1012 C1013 1.386 . S
C1012 C1014 1.391 . S
C1013 C1012 1.386 . S
C1013 C1017 1.393 . S
C1014 H1006 0.950 . S
C1014 C1012 1.391 . S
C1014 C1015 1.400 . S
C1015 C1014 1.400 . S
C1015 C1016 1.398 . S
C1015 C1021 1.491 . S
C1016 H1007 0.950 . S
C1016 C1015 1.398 . S
C1016 C1017 1.391 . S
C1017 H1005 0.950 . S
C1017 C1013 1.393 . S
C1017 C1016 1.391 . S
C1018 H1008 0.950 . S
C1018 C1019 1.386 . S
C1018 C1020 1.391 . S
C1019 C1018 1.386 . S
C1019 C1023 1.393 . S
C1020 H1009 0.950 . S
C1020 C1018 1.391 . S
C1020 C1021 1.400 . S
C1021 C1015 1.491 . S
C1021 C1020 1.400 . S
C1021 C1022 1.398 . S
C1022 H1010 0.950 . S
C1022 C1021 1.398 . S
C1022 C1023 1.391 . S
C1023 H1011 0.950 . S
C1023 C1019 1.393 . S
C1023 C1022 1.391 . S
H1024 C1032 0.950 . S
H1025 C1037 0.950 . S
H1026 C1034 0.950 . S
H1027 C1036 0.950 . S
H1028 C1038 0.950 . S
H1029 C1040 0.950 . S
H1030 C1042 0.950 . S
H1031 C1043 0.950 . S
C1032 H1024 0.950 . S
C1032 C1033 1.386 . S
C1032 C1034 1.391 . S
C1033 C1032 1.386 . S
C1033 C1037 1.393 . S
C1034 H1026 0.950 . S
C1034 C1032 1.391 . S
C1034 C1035 1.400 . S
C1035 C1034 1.400 . S
C1035 C1036 1.398 . S
C1035 C1041 1.491 . S
C1036 H1027 0.950 . S
C1036 C1035 1.398 . S
C1036 C1037 1.391 . S
C1037 H1025 0.950 . S
C1037 C1033 1.393 . S
C1037 C1036 1.391 . S
C1038 H1028 0.950 . S
C1038 C1039 1.386 . S
C1038 C1040 1.391 1_655 S
C1039 C1038 1.386 . S
C1039 C1043 1.393 . S
C1040 H1029 0.950 . S
C1040 C1038 1.391 1_455 S
C1040 C1041 1.400 . S
C1041 C1035 1.491 . S
C1041 C1040 1.400 . S
C1041 C1042 1.398 1_455 S
C1042 H1030 0.950 . S
C1042 C1041 1.398 1_655 S
C1042 C1043 1.391 . S
C1043 H1031 0.950 . S
C1043 C1039 1.393 . S
C1043 C1042 1.391 . S
H1044 C1052 0.950 . S
H1045 C1057 0.950 . S
H1046 C1054 0.950 . S
H1047 C1056 0.950 . S
H1048 C1058 0.950 . S
H1049 C1060 0.950 . S
H1050 C1062 0.950 . S
H1051 C1063 0.950 . S
C1052 H1044 0.950 . S
C1052 C1053 1.386 . S
C1052 C1054 1.391 . S
C1053 C1052 1.386 . S
C1053 C1057 1.393 . S
C1054 H1046 0.950 . S
C1054 C1052 1.391 . S
C1054 C1055 1.400 . S
C1055 C1054 1.400 . S
C1055 C1056 1.398 . S
C1055 C1061 1.491 . S
C1056 H1047 0.950 . S
C1056 C1055 1.398 . S
C1056 C1057 1.391 . S
C1057 H1045 0.950 . S
C1057 C1053 1.393 . S
C1057 C1056 1.391 . S
C1058 H1048 0.950 . S
C1058 C1059 1.386 . S
C1058 C1060 1.391 . S
C1059 C1058 1.386 . S
C1059 C1063 1.393 . S
C1060 H1049 0.950 . S
C1060 C1058 1.391 . S
C1060 C1061 1.400 . S
C1061 C1055 1.491 . S
C1061 C1060 1.400 . S
C1061 C1062 1.398 . S
C1062 H1050 0.950 . S
C1062 C1061 1.398 . S
C1062 C1063 1.391 . S
C1063 H1051 0.950 . S
C1063 C1059 1.393 . S
C1063 C1062 1.391 . S
H1064 C1072 0.950 . S
H1065 C1077 0.950 . S
H1066 C1074 0.950 . S
H1067 C1076 0.950 . S
H1068 C1078 0.950 . S
H1069 C1080 0.950 . S
H1070 C1082 0.950 . S
H1071 C1083 0.950 . S
C1072 H1064 0.950 . S
C1072 C1073 1.386 . S
C1072 C1074 1.391 . S
C1073 C1072 1.386 . S
C1073 C1077 1.393 . S
C1074 H1066 0.950 . S
C1074 C1072 1.391 . S
C1074 C1075 1.400 . S
C1075 C1074 1.400 . S
C1075 C1076 1.398 . S
C1075 C1081 1.491 1_655 S
C1076 H1067 0.950 . S
C1076 C1075 1.398 . S
C1076 C1077 1.391 . S
C1077 H1065 0.950 . S
C1077 C1073 1.393 . S
C1077 C1076 1.391 . S
C1078 H1068 0.950 . S
C1078 C1079 1.386 . S
C1078 C1080 1.391 . S
C1079 C1078 1.386 . S
C1079 C1083 1.393 . S
C1080 H1069 0.950 . S
C1080 C1078 1.391 . S
C1080 C1081 1.400 . S
C1081 C1075 1.491 1_455 S
C1081 C1080 1.400 . S
C1081 C1082 1.398 . S
C1082 H1070 0.950 . S
C1082 C1081 1.398 . S
C1082 C1083 1.391 . S
C1083 H1071 0.950 . S
C1083 C1079 1.393 . S
C1083 C1082 1.391 . S
H1084 C1092 0.950 . S
H1085 C1097 0.950 . S
H1086 C1094 0.950 . S
H1087 C1096 0.950 . S
H1088 C1098 0.950 . S
H1089 C1100 0.950 . S
H1090 C1102 0.950 . S
H1091 C1103 0.950 . S
C1092 H1084 0.950 . S
C1092 C1093 1.386 . S
C1092 C1094 1.391 . S
C1093 C1092 1.386 . S
C1093 C1097 1.393 . S
C1094 H1086 0.950 . S
C1094 C1092 1.391 . S
C1094 C1095 1.400 . S
C1095 C1094 1.400 . S
C1095 C1096 1.398 . S
C1095 C1101 1.491 . S
C1096 H1087 0.950 . S
C1096 C1095 1.398 . S
C1096 C1097 1.391 . S
C1097 H1085 0.950 . S
C1097 C1093 1.393 . S
C1097 C1096 1.391 . S
C1098 H1088 0.950 . S
C1098 C1099 1.386 . S
C1098 C1100 1.391 . S
C1099 C1098 1.386 . S
C1099 C1103 1.393 . S
C1100 H1089 0.950 . S
C1100 C1098 1.391 . S
C1100 C1101 1.400 . S
C1101 C1095 1.491 . S
C1101 C1100 1.400 . S
C1101 C1102 1.398 . S
C1102 H1090 0.950 . S
C1102 C1101 1.398 . S
C1102 C1103 1.391 . S
C1103 H1091 0.950 . S
C1103 C1099 1.393 . S
C1103 C1102 1.391 . S
H1104 C1112 0.950 . S
H1105 C1117 0.950 . S
H1106 C1114 0.950 . S
H1107 C1116 0.950 . S
H1108 C1118 0.950 . S
H1109 C1120 0.950 . S
H1110 C1122 0.950 . S
H1111 C1123 0.950 . S
C1112 H1104 0.950 . S
C1112 C1113 1.386 . S
C1112 C1114 1.391 . S
C1113 C1112 1.386 . S
C1113 C1117 1.393 . S
C1114 H1106 0.950 . S
C1114 C1112 1.391 . S
C1114 C1115 1.400 . S
C1115 C1114 1.400 . S
C1115 C1116 1.398 . S
C1115 C1121 1.491 . S
C1116 H1107 0.950 . S
C1116 C1115 1.398 . S
C1116 C1117 1.391 . S
C1117 H1105 0.950 . S
C1117 C1113 1.393 . S
C1117 C1116 1.391 . S
C1118 H1108 0.950 . S
C1118 C1119 1.386 . S
C1118 C1120 1.391 1_655 S
C1119 C1118 1.386 . S
C1119 C1123 1.393 . S
C1120 H1109 0.950 . S
C1120 C1118 1.391 1_455 S
C1120 C1121 1.400 . S
C1121 C1115 1.491 . S
C1121 C1120 1.400 . S
C1121 C1122 1.398 1_455 S
C1122 H1110 0.950 . S
C1122 C1121 1.398 1_655 S
C1122 C1123 1.391 . S
C1123 H1111 0.950 . S
C1123 C1119 1.393 . S
C1123 C1122 1.391 . S
H1124 C1132 0.950 . S
H1125 C1137 0.950 . S
H1126 C1134 0.950 . S
H1127 C1136 0.950 . S
H1128 C1138 0.950 . S
H1129 C1140 0.950 . S
H1130 C1142 0.950 . S
H1131 C1143 0.950 . S
C1132 H1124 0.950 . S
C1132 C1133 1.386 . S
C1132 C1134 1.391 . S
C1133 C1132 1.386 . S
C1133 C1137 1.393 . S
C1134 H1126 0.950 . S
C1134 C1132 1.391 . S
C1134 C1135 1.400 . S
C1135 C1134 1.400 . S
C1135 C1136 1.398 . S
C1135 C1141 1.491 . S
C1136 H1127 0.950 . S
C1136 C1135 1.398 . S
C1136 C1137 1.391 . S
C1137 H1125 0.950 . S
C1137 C1133 1.393 . S
C1137 C1136 1.391 . S
C1138 H1128 0.950 . S
C1138 C1139 1.386 . S
C1138 C1140 1.391 . S
C1139 C1138 1.386 . S
C1139 C1143 1.393 . S
C1140 H1129 0.950 . S
C1140 C1138 1.391 . S
C1140 C1141 1.400 . S
C1141 C1135 1.491 . S
C1141 C1140 1.400 . S
C1141 C1142 1.398 . S
C1142 H1130 0.950 . S
C1142 C1141 1.398 . S
C1142 C1143 1.391 . S
C1143 H1131 0.950 . S
C1143 C1139 1.393 . S
C1143 C1142 1.391 . S
H1144 C1152 0.950 . S
H1145 C1157 0.950 . S
H1146 C1154 0.950 . S
H1147 C1156 0.950 . S
H1148 C1158 0.950 . S
H1149 C1160 0.950 . S
H1150 C1162 0.950 . S
H1151 C1163 0.950 . S
C1152 H1144 0.950 . S
C1152 C1153 1.386 . S
C1152 C1154 1.391 . S
C1153 C1152 1.386 . S
C1153 C1157 1.393 . S
C1154 H1146 0.950 . S
C1154 C1152 1.391 . S
C1154 C1155 1.400 . S
C1155 C1154 1.400 . S
C1155 C1156 1.398 . S
C1155 C1161 1.491 . S
C1156 H1147 0.950 . S
C1156 C1155 1.398 . S
C1156 C1157 1.391 . S
C1157 H1145 0.950 . S
C1157 C1153 1.393 . S
C1157 C1156 1.391 . S
C1158 H1148 0.950 . S
C1158 C1159 1.386 . S
C1158 C1160 1.391 . S
C1159 C1158 1.386 . S
C1159 C1163 1.393 . S
C1160 H1149 0.950 . S
C1160 C1158 1.391 . S
C1160 C1161 1.400 . S
C1161 C1155 1.491 . S
C1161 C1160 1.400 . S
C1161 C1162 1.398 . S
C1162 H1150 0.950 . S
C1162 C1161 1.398 . S
C1162 C1163 1.391 . S
C1163 H1151 0.950 . S
C1163 C1159 1.393 . S
C1163 C1162 1.391 . S
H1164 C1172 0.950 . S
H1165 C1177 0.950 . S
H1166 C1174 0.950 . S
H1167 C1176 0.950 . S
H1168 C1178 0.950 . S
H1169 C1180 0.950 . S
H1170 C1182 0.950 . S
H1171 C1183 0.950 . S
C1172 H1164 0.950 . S
C1172 C1173 1.386 . S
C1172 C1174 1.391 . S
C1173 C1172 1.386 . S
C1173 C1177 1.393 . S
C1174 H1166 0.950 . S
C1174 C1172 1.391 . S
C1174 C1175 1.400 . S
C1175 C1174 1.400 . S
C1175 C1176 1.398 . S
C1175 C1181 1.491 . S
C1176 H1167 0.950 . S
C1176 C1175 1.398 . S
C1176 C1177 1.391 . S
C1177 H1165 0.950 . S
C1177 C1173 1.393 . S
C1177 C1176 1.391 . S
C1178 H1168 0.950 . S
C1178 C1179 1.386 . S
C1178 C1180 1.391 . S
C1179 C1178 1.386 . S
C1179 C1183 1.393 . S
C1180 H1169 0.950 . S
C1180 C1178 1.391 . S
C1180 C1181 1.400 . S
C1181 C1175 1.491 . S
C1181 C1180 1.400 . S
C1181 C1182 1.398 . S
C1182 H1170 0.950 . S
C1182 C1181 1.398 . S
C1182 C1183 1.391 . S
C1183 H1171 0.950 . S
C1183 C1179 1.393 . S
C1183 C1182 1.391 . S
H1184 C1192 0.950 . S
H1185 C1197 0.950 . S
H1186 C1194 0.950 . S
H1187 C1196 0.950 . S
H1188 C1198 0.950 . S
H1189 C1200 0.950 . S
H1190 C1202 0.950 . S
H1191 C1203 0.950 . S
C1192 H1184 0.950 . S
C1192 C1193 1.386 . S
C1192 C1194 1.391 . S
C1193 C1192 1.386 . S
C1193 C1197 1.393 . S
C1194 H1186 0.950 . S
C1194 C1192 1.391 . S
C1194 C1195 1.400 . S
C1195 C1194 1.400 . S
C1195 C1196 1.398 . S
C1195 C1201 1.491 . S
C1196 H1187 0.950 . S
C1196 C1195 1.398 . S
C1196 C1197 1.391 . S
C1197 H1185 0.950 . S
C1197 C1193 1.393 . S
C1197 C1196 1.391 . S
C1198 H1188 0.950 . S
C1198 C1199 1.386 . S
C1198 C1200 1.391 . S
C1199 C1198 1.386 . S
C1199 C1203 1.393 . S
C1200 H1189 0.950 . S
C1200 C1198 1.391 . S
C1200 C1201 1.400 . S
C1201 C1195 1.491 . S
C1201 C1200 1.400 . S
C1201 C1202 1.398 . S
C1202 H1190 0.950 . S
C1202 C1201 1.398 . S
C1202 C1203 1.391 . S
C1203 H1191 0.950 . S
C1203 C1199 1.393 . S
C1203 C1202 1.391 . S
H1204 C1212 0.950 . S
H1205 C1217 0.950 . S
H1206 C1214 0.950 . S
H1207 C1216 0.950 . S
H1208 C1218 0.950 . S
H1209 C1220 0.950 1_556 S
H1210 C1222 0.950 . S
H1211 C1223 0.950 . S
C1212 H1204 0.950 . S
C1212 C1213 1.386 . S
C1212 C1214 1.391 . S
C1213 C1212 1.386 . S
C1213 C1217 1.393 . S
C1214 H1206 0.950 . S
C1214 C1212 1.391 . S
C1214 C1215 1.400 . S
C1215 C1214 1.400 . S
C1215 C1216 1.398 . S
C1215 C1221 1.491 1_556 S
C1216 H1207 0.950 . S
C1216 C1215 1.398 . S
C1216 C1217 1.391 . S
C1217 H1205 0.950 . S
C1217 C1213 1.393 . S
C1217 C1216 1.391 . S
C1218 H1208 0.950 . S
C1218 C1219 1.386 . S
C1218 C1220 1.391 . S
C1219 C1218 1.386 . S
C1219 C1223 1.393 . S
C1220 H1209 0.950 1_554 S
C1220 C1218 1.391 . S
C1220 C1221 1.400 . S
C1221 C1215 1.491 1_554 S
C1221 C1220 1.400 . S
C1221 C1222 1.398 . S
C1222 H1210 0.950 . S
C1222 C1221 1.398 . S
C1222 C1223 1.391 . S
C1223 H1211 0.950 . S
C1223 C1219 1.393 . S
C1223 C1222 1.391 . S
H1224 C1232 0.950 . S
H1225 C1237 0.950 1_455 S
H1226 C1234 0.950 . S
H1227 C1236 0.950 . S
H1228 C1238 0.950 . S
H1229 C1240 0.950 . S
H1230 C1242 0.950 . S
H1231 C1243 0.950 . S
C1232 H1224 0.950 . S
C1232 C1233 1.386 . S
C1232 C1234 1.391 . S
C1233 C1232 1.386 . S
C1233 C1237 1.393 . S
C1234 H1226 0.950 . S
C1234 C1232 1.391 . S
C1234 C1235 1.400 . S
C1235 C1234 1.400 . S
C1235 C1236 1.398 . S
C1235 C1241 1.491 . S
C1236 H1227 0.950 . S
C1236 C1235 1.398 . S
C1236 C1237 1.391 . S
C1237 H1225 0.950 1_655 S
C1237 C1233 1.393 . S
C1237 C1236 1.391 . S
C1238 H1228 0.950 . S
C1238 C1239 1.386 . S
C1238 C1240 1.391 . S
C1239 C1238 1.386 . S
C1239 C1243 1.393 . S
C1240 H1229 0.950 . S
C1240 C1238 1.391 . S
C1240 C1241 1.400 . S
C1241 C1235 1.491 . S
C1241 C1240 1.400 . S
C1241 C1242 1.398 . S
C1242 H1230 0.950 . S
C1242 C1241 1.398 . S
C1242 C1243 1.391 . S
C1243 H1231 0.950 . S
C1243 C1239 1.393 . S
C1243 C1242 1.391 . S
H1244 C1252 0.950 . S
H1245 C1257 0.950 . S
H1246 C1254 0.950 . S
H1247 C1256 0.950 . S
H1248 C1258 0.950 . S
H1249 C1260 0.950 . S
H1250 C1262 0.950 . S
H1251 C1263 0.950 . S
C1252 H1244 0.950 . S
C1252 C1253 1.386 . S
C1252 C1254 1.391 . S
C1253 C1252 1.386 . S
C1253 C1257 1.393 . S
C1254 H1246 0.950 . S
C1254 C1252 1.391 . S
C1254 C1255 1.400 . S
C1255 C1254 1.400 . S
C1255 C1256 1.398 . S
C1255 C1261 1.491 . S
C1256 H1247 0.950 . S
C1256 C1255 1.398 . S
C1256 C1257 1.391 . S
C1257 H1245 0.950 . S
C1257 C1253 1.393 . S
C1257 C1256 1.391 . S
C1258 H1248 0.950 . S
C1258 C1259 1.386 . S
C1258 C1260 1.391 . S
C1259 C1258 1.386 . S
C1259 C1263 1.393 . S
C1260 H1249 0.950 . S
C1260 C1258 1.391 . S
C1260 C1261 1.400 . S
C1261 C1255 1.491 . S
C1261 C1260 1.400 . S
C1261 C1262 1.398 . S
C1262 H1250 0.950 . S
C1262 C1261 1.398 . S
C1262 C1263 1.391 . S
C1263 H1251 0.950 . S
C1263 C1259 1.393 . S
C1263 C1262 1.391 . S
H1264 C1272 0.950 . S
H1265 C1277 0.950 . S
H1266 C1274 0.950 . S
H1267 C1276 0.950 . S
H1268 C1278 0.950 . S
H1269 C1280 0.950 . S
H1270 C1282 0.950 . S
H1271 C1283 0.950 . S
C1272 H1264 0.950 . S
C1272 C1273 1.386 . S
C1272 C1274 1.391 . S
C1273 C1272 1.386 . S
C1273 C1277 1.393 . S
C1274 H1266 0.950 . S
C1274 C1272 1.391 . S
C1274 C1275 1.400 . S
C1275 C1274 1.400 . S
C1275 C1276 1.398 . S
C1275 C1281 1.491 . S
C1276 H1267 0.950 . S
C1276 C1275 1.398 . S
C1276 C1277 1.391 . S
C1277 H1265 0.950 . S
C1277 C1273 1.393 . S
C1277 C1276 1.391 . S
C1278 H1268 0.950 . S
C1278 C1279 1.386 . S
C1278 C1280 1.391 . S
C1279 C1278 1.386 . S
C1279 C1283 1.393 . S
C1280 H1269 0.950 . S
C1280 C1278 1.391 . S
C1280 C1281 1.400 . S
C1281 C1275 1.491 . S
C1281 C1280 1.400 . S
C1281 C1282 1.398 . S
C1282 H1270 0.950 . S
C1282 C1281 1.398 . S
C1282 C1283 1.391 . S
C1283 H1271 0.950 . S
C1283 C1279 1.393 . S
C1283 C1282 1.391 . S
H1284 C1292 0.950 . S
H1285 C1297 0.950 . S
H1286 C1294 0.950 . S
H1287 C1296 0.950 . S
H1288 C1298 0.950 . S
H1289 C1300 0.950 . S
H1290 C1302 0.950 . S
H1291 C1303 0.950 . S
C1292 H1284 0.950 . S
C1292 C1293 1.386 . S
C1292 C1294 1.391 . S
C1293 C1292 1.386 . S
C1293 C1297 1.393 . S
C1294 H1286 0.950 . S
C1294 C1292 1.391 . S
C1294 C1295 1.400 . S
C1295 C1294 1.400 . S
C1295 C1296 1.398 . S
C1295 C1301 1.491 . S
C1296 H1287 0.950 . S
C1296 C1295 1.398 . S
C1296 C1297 1.391 . S
C1297 H1285 0.950 . S
C1297 C1293 1.393 . S
C1297 C1296 1.391 . S
C1298 H1288 0.950 . S
C1298 C1299 1.386 . S
C1298 C1300 1.391 1_556 S
C1299 C1298 1.386 . S
C1299 C1303 1.393 . S
C1300 H1289 0.950 . S
C1300 C1298 1.391 1_554 S
C1300 C1301 1.400 . S
C1301 C1295 1.491 . S
C1301 C1300 1.400 . S
C1301 C1302 1.398 1_554 S
C1302 H1290 0.950 . S
C1302 C1301 1.398 1_556 S
C1302 C1303 1.391 . S
C1303 H1291 0.950 . S
C1303 C1299 1.393 . S
C1303 C1302 1.391 . S
H1304 C1312 0.950 . S
H1305 C1317 0.950 . S
H1306 C1314 0.950 . S
H1307 C1316 0.950 . S
H1308 C1318 0.950 . S
H1309 C1320 0.950 . S
H1310 C1322 0.950 . S
H1311 C1323 0.950 . S
C1312 H1304 0.950 . S
C1312 C1313 1.386 . S
C1312 C1314 1.391 . S
C1313 C1312 1.386 . S
C1313 C1317 1.393 . S
C1314 H1306 0.950 . S
C1314 C1312 1.391 . S
C1314 C1315 1.400 . S
C1315 C1314 1.400 . S
C1315 C1316 1.398 . S
C1315 C1321 1.491 . S
C1316 H1307 0.950 . S
C1316 C1315 1.398 . S
C1316 C1317 1.391 . S
C1317 H1305 0.950 . S
C1317 C1313 1.393 . S
C1317 C1316 1.391 . S
C1318 H1308 0.950 . S
C1318 C1319 1.386 . S
C1318 C1320 1.391 . S
C1319 C1318 1.386 . S
C1319 C1323 1.393 . S
C1320 H1309 0.950 . S
C1320 C1318 1.391 . S
C1320 C1321 1.400 . S
C1321 C1315 1.491 . S
C1321 C1320 1.400 . S
C1321 C1322 1.398 . S
C1322 H1310 0.950 . S
C1322 C1321 1.398 . S
C1322 C1323 1.391 . S
C1323 H1311 0.950 . S
C1323 C1319 1.393 . S
C1323 C1322 1.391 . S
H1324 C1332 0.950 . S
H1325 C1337 0.950 . S
H1326 C1334 0.950 . S
H1327 C1336 0.950 . S
H1328 C1338 0.950 . S
H1329 C1340 0.950 1_565 S
H1330 C1342 0.950 . S
H1331 C1343 0.950 . S
C1332 H1324 0.950 . S
C1332 C1333 1.386 . S
C1332 C1334 1.391 . S
C1333 C1332 1.386 . S
C1333 C1337 1.393 . S
C1334 H1326 0.950 . S
C1334 C1332 1.391 . S
C1334 C1335 1.400 . S
C1335 C1334 1.400 . S
C1335 C1336 1.398 . S
C1335 C1341 1.491 . S
C1336 H1327 0.950 . S
C1336 C1335 1.398 . S
C1336 C1337 1.391 . S
C1337 H1325 0.950 . S
C1337 C1333 1.393 . S
C1337 C1336 1.391 . S
C1338 H1328 0.950 . S
C1338 C1339 1.386 . S
C1338 C1340 1.391 . S
C1339 C1338 1.386 . S
C1339 C1343 1.393 . S
C1340 H1329 0.950 1_545 S
C1340 C1338 1.391 . S
C1340 C1341 1.400 1_545 S
C1341 C1335 1.491 . S
C1341 C1340 1.400 1_565 S
C1341 C1342 1.398 1_565 S
C1342 H1330 0.950 . S
C1342 C1341 1.398 1_545 S
C1342 C1343 1.391 . S
C1343 H1331 0.950 . S
C1343 C1339 1.393 . S
C1343 C1342 1.391 . S
H1344 C1352 0.950 . S
H1345 C1357 0.950 . S
H1346 C1354 0.950 . S
H1347 C1356 0.950 . S
H1348 C1358 0.950 . S
H1349 C1360 0.950 . S
H1350 C1362 0.950 . S
H1351 C1363 0.950 . S
C1352 H1344 0.950 . S
C1352 C1353 1.386 . S
C1352 C1354 1.391 . S
C1353 C1352 1.386 . S
C1353 C1357 1.393 . S
C1354 H1346 0.950 . S
C1354 C1352 1.391 . S
C1354 C1355 1.400 . S
C1355 C1354 1.400 . S
C1355 C1356 1.398 . S
C1355 C1361 1.491 . S
C1356 H1347 0.950 . S
C1356 C1355 1.398 . S
C1356 C1357 1.391 . S
C1357 H1345 0.950 . S
C1357 C1353 1.393 . S
C1357 C1356 1.391 . S
C1358 H1348 0.950 . S
C1358 C1359 1.386 . S
C1358 C1360 1.391 . S
C1359 C1358 1.386 . S
C1359 C1363 1.393 . S
C1360 H1349 0.950 . S
C1360 C1358 1.391 . S
C1360 C1361 1.400 . S
C1361 C1355 1.491 . S
C1361 C1360 1.400 . S
C1361 C1362 1.398 . S
C1362 H1350 0.950 . S
C1362 C1361 1.398 . S
C1362 C1363 1.391 . S
C1363 H1351 0.950 . S
C1363 C1359 1.393 . S
C1363 C1362 1.391 . S
H1364 C1372 0.950 . S
H1365 C1377 0.950 . S
H1366 C1374 0.950 . S
H1367 C1376 0.950 . S
H1368 C1378 0.950 . S
H1369 C1380 0.950 1_545 S
H1370 C1382 0.950 . S
H1371 C1383 0.950 . S
C1372 H1364 0.950 . S
C1372 C1373 1.386 . S
C1372 C1374 1.391 . S
C1373 C1372 1.386 . S
C1373 C1377 1.393 . S
C1374 H1366 0.950 . S
C1374 C1372 1.391 . S
C1374 C1375 1.400 . S
C1375 C1374 1.400 . S
C1375 C1376 1.398 . S
C1375 C1381 1.491 . S
C1376 H1367 0.950 . S
C1376 C1375 1.398 . S
C1376 C1377 1.391 . S
C1377 H1365 0.950 . S
C1377 C1373 1.393 . S
C1377 C1376 1.391 . S
C1378 H1368 0.950 . S
C1378 C1379 1.386 . S
C1378 C1380 1.391 . S
C1379 C1378 1.386 . S
C1379 C1383 1.393 . S
C1380 H1369 0.950 1_565 S
C1380 C1378 1.391 . S
C1380 C1381 1.400 1_565 S
C1381 C1375 1.491 . S
C1381 C1380 1.400 1_545 S
C1381 C1382 1.398 1_545 S
C1382 H1370 0.950 . S
C1382 C1381 1.398 1_565 S
C1382 C1383 1.391 . S
C1383 H1371 0.950 . S
C1383 C1379 1.393 . S
C1383 C1382 1.391 . S
H1384 C1392 0.950 . S
H1385 C1397 0.950 . S
H1386 C1394 0.950 . S
H1387 C1396 0.950 . S
H1388 C1398 0.950 . S
H1389 C1400 0.950 . S
H1390 C1402 0.950 . S
H1391 C1403 0.950 . S
C1392 H1384 0.950 . S
C1392 C1393 1.386 . S
C1392 C1394 1.391 . S
C1393 C1392 1.386 . S
C1393 C1397 1.393 . S
C1394 H1386 0.950 . S
C1394 C1392 1.391 . S
C1394 C1395 1.400 . S
C1395 C1394 1.400 . S
C1395 C1396 1.398 . S
C1395 C1401 1.491 . S
C1396 H1387 0.950 . S
C1396 C1395 1.398 . S
C1396 C1397 1.391 . S
C1397 H1385 0.950 . S
C1397 C1393 1.393 . S
C1397 C1396 1.391 . S
C1398 H1388 0.950 . S
C1398 C1399 1.386 . S
C1398 C1400 1.391 . S
C1399 C1398 1.386 . S
C1399 C1403 1.393 . S
C1400 H1389 0.950 . S
C1400 C1398 1.391 . S
C1400 C1401 1.400 . S
C1401 C1395 1.491 . S
C1401 C1400 1.400 . S
C1401 C1402 1.398 . S
C1402 H1390 0.950 . S
C1402 C1401 1.398 . S
C1402 C1403 1.391 . S
C1403 H1391 0.950 . S
C1403 C1399 1.393 . S
C1403 C1402 1.391 . S
H1404 C1412 0.950 . S
H1405 C1417 0.950 . S
H1406 C1414 0.945 1_545 S
H1407 C1416 0.950 . S
H1408 C1418 0.950 . S
H1409 C1420 0.950 1_565 S
H1410 C1422 0.950 . S
H1411 C1423 0.950 . S
C1412 H1404 0.950 . S
C1412 C1413 1.386 . S
C1412 C1414 1.391 . S
C1413 C1412 1.386 . S
C1413 C1417 1.393 . S
C1414 H1406 0.945 1_565 S
C1414 C1412 1.391 . S
C1414 C1415 1.400 . S
C1415 C1414 1.400 . S
C1415 C1416 1.398 . S
C1415 C1421 1.491 1_565 S
C1416 H1407 0.950 . S
C1416 C1415 1.398 . S
C1416 C1417 1.391 . S
C1417 H1405 0.950 . S
C1417 C1413 1.393 . S
C1417 C1416 1.391 . S
C1418 H1408 0.950 . S
C1418 C1419 1.386 . S
C1418 C1420 1.391 . S
C1419 C1418 1.386 . S
C1419 C1423 1.393 . S
C1420 H1409 0.950 1_545 S
C1420 C1418 1.391 . S
C1420 C1421 1.400 . S
C1421 C1415 1.491 1_545 S
C1421 C1420 1.400 . S
C1421 C1422 1.398 . S
C1422 H1410 0.950 . S
C1422 C1421 1.398 . S
C1422 C1423 1.391 . S
C1423 H1411 0.950 . S
C1423 C1419 1.393 . S
C1423 C1422 1.391 . S
H1424 C1432 0.950 . S
H1425 C1437 0.950 . S
H1426 C1434 0.950 . S
H1427 C1436 0.950 . S
H1428 C1438 0.950 . S
H1429 C1440 0.950 . S
H1430 C1442 0.950 . S
H1431 C1443 0.950 . S
C1432 H1424 0.950 . S
C1432 C1433 1.386 . S
C1432 C1434 1.391 . S
C1433 C1432 1.386 . S
C1433 C1437 1.393 . S
C1434 H1426 0.950 . S
C1434 C1432 1.391 . S
C1434 C1435 1.400 . S
C1435 C1434 1.400 . S
C1435 C1436 1.398 . S
C1435 C1441 1.491 . S
C1436 H1427 0.950 . S
C1436 C1435 1.398 . S
C1436 C1437 1.391 . S
C1437 H1425 0.950 . S
C1437 C1433 1.393 . S
C1437 C1436 1.391 . S
C1438 H1428 0.950 . S
C1438 C1439 1.386 . S
C1438 C1440 1.391 . S
C1439 C1438 1.386 . S
C1439 C1443 1.393 . S
C1440 H1429 0.950 . S
C1440 C1438 1.391 . S
C1440 C1441 1.400 . S
C1441 C1435 1.491 . S
C1441 C1440 1.400 . S
C1441 C1442 1.398 . S
C1442 H1430 0.950 . S
C1442 C1441 1.398 . S
C1442 C1443 1.391 . S
C1443 H1431 0.950 . S
C1443 C1439 1.393 . S
C1443 C1442 1.391 . S
H1444 C1452 0.950 . S
H1445 C1457 0.950 . S
H1446 C1454 0.950 . S
H1447 C1456 0.950 . S
H1448 C1458 0.950 . S
H1449 C1460 0.950 . S
H1450 C1462 0.950 . S
H1451 C1463 0.950 . S
C1452 H1444 0.950 . S
C1452 C1453 1.386 . S
C1452 C1454 1.391 . S
C1453 C1452 1.386 . S
C1453 C1457 1.393 . S
C1454 H1446 0.950 . S
C1454 C1452 1.391 . S
C1454 C1455 1.400 . S
C1455 C1454 1.400 . S
C1455 C1456 1.398 . S
C1455 C1461 1.491 . S
C1456 H1447 0.950 . S
C1456 C1455 1.398 . S
C1456 C1457 1.391 . S
C1457 H1445 0.950 . S
C1457 C1453 1.393 . S
C1457 C1456 1.391 . S
C1458 H1448 0.950 . S
C1458 C1459 1.386 . S
C1458 C1460 1.391 1_565 S
C1459 C1458 1.386 . S
C1459 C1463 1.393 . S
C1460 H1449 0.950 . S
C1460 C1458 1.391 1_545 S
C1460 C1461 1.400 . S
C1461 C1455 1.491 . S
C1461 C1460 1.400 . S
C1461 C1462 1.398 1_545 S
C1462 H1450 0.950 . S
C1462 C1461 1.398 1_565 S
C1462 C1463 1.391 . S
C1463 H1451 0.950 . S
C1463 C1459 1.393 . S
C1463 C1462 1.391 . S
H1464 C1472 0.950 . S
H1465 C1477 0.950 . S
H1466 C1474 0.950 . S
H1467 C1476 0.950 . S
H1468 C1478 0.950 . S
H1469 C1480 0.950 . S
H1470 C1482 0.950 . S
H1471 C1483 0.950 . S
C1472 H1464 0.950 . S
C1472 C1473 1.386 . S
C1472 C1474 1.391 . S
C1473 C1472 1.386 . S
C1473 C1477 1.393 . S
C1474 H1466 0.950 . S
C1474 C1472 1.391 . S
C1474 C1475 1.400 . S
C1475 C1474 1.400 . S
C1475 C1476 1.398 . S
C1475 C1481 1.491 . S
C1476 H1467 0.950 . S
C1476 C1475 1.398 . S
C1476 C1477 1.391 . S
C1477 H1465 0.950 . S
C1477 C1473 1.393 . S
C1477 C1476 1.391 . S
C1478 H1468 0.950 . S
C1478 C1479 1.386 . S
C1478 C1480 1.391 . S
C1479 C1478 1.386 . S
C1479 C1483 1.393 . S
C1480 H1469 0.950 . S
C1480 C1478 1.391 . S
C1480 C1481 1.400 . S
C1481 C1475 1.491 . S
C1481 C1480 1.400 . S
C1481 C1482 1.398 . S
C1482 H1470 0.950 . S
C1482 C1481 1.398 . S
C1482 C1483 1.391 . S
C1483 H1471 0.950 . S
C1483 C1479 1.393 . S
C1483 C1482 1.391 . S
H1484 C1492 0.950 . S
H1485 C1497 0.950 . S
H1486 C1494 0.950 . S
H1487 C1496 0.950 . S
H1488 C1498 0.950 . S
H1489 C1500 0.950 . S
H1490 C1502 0.950 . S
H1491 C1503 0.950 . S
C1492 H1484 0.950 . S
C1492 C1493 1.386 . S
C1492 C1494 1.391 . S
C1493 C1492 1.386 . S
C1493 C1497 1.393 . S
C1494 H1486 0.950 . S
C1494 C1492 1.391 . S
C1494 C1495 1.400 . S
C1495 C1494 1.400 . S
C1495 C1496 1.398 . S
C1495 C1501 1.491 . S
C1496 H1487 0.950 . S
C1496 C1495 1.398 . S
C1496 C1497 1.391 . S
C1497 H1485 0.950 . S
C1497 C1493 1.393 . S
C1497 C1496 1.391 . S
C1498 H1488 0.950 . S
C1498 C1499 1.386 . S
C1498 C1500 1.391 . S
C1499 C1498 1.386 . S
C1499 C1503 1.393 . S
C1500 H1489 0.950 . S
C1500 C1498 1.391 . S
C1500 C1501 1.400 . S
C1501 C1495 1.491 . S
C1501 C1500 1.400 . S
C1501 C1502 1.398 . S
C1502 H1490 0.950 . S
C1502 C1501 1.398 . S
C1502 C1503 1.391 . S
C1503 H1491 0.950 . S
C1503 C1499 1.393 . S
C1503 C1502 1.391 . S
H1504 C1512 0.950 . S
H1505 C1517 0.950 . S
H1506 C1514 0.950 . S
H1507 C1516 0.950 . S
H1508 C1518 0.950 . S
H1509 C1520 0.936 1_655 S
H1510 C1522 0.950 . S
H1511 C1523 0.950 . S
C1512 H1504 0.950 . S
C1512 C1513 1.386 . S
C1512 C1514 1.391 . S
C1513 C1512 1.386 . S
C1513 C1517 1.393 . S
C1514 H1506 0.950 . S
C1514 C1512 1.391 . S
C1514 C1515 1.400 . S
C1515 C1514 1.400 . S
C1515 C1516 1.398 . S
C1515 C1521 1.491 . S
C1516 H1507 0.950 . S
C1516 C1515 1.398 . S
C1516 C1517 1.391 . S
C1517 H1505 0.950 . S
C1517 C1513 1.393 . S
C1517 C1516 1.391 . S
C1518 H1508 0.950 . S
C1518 C1519 1.386 . S
C1518 C1520 1.391 . S
C1519 C1518 1.386 . S
C1519 C1523 1.393 . S
C1520 H1509 0.936 1_455 S
C1520 C1518 1.391 . S
C1520 C1521 1.400 1_455 S
C1521 C1515 1.491 . S
C1521 C1520 1.400 1_655 S
C1521 C1522 1.398 1_655 S
C1522 H1510 0.950 . S
C1522 C1521 1.398 1_455 S
C1522 C1523 1.391 . S
C1523 H1511 0.950 . S
C1523 C1519 1.393 . S
C1523 C1522 1.391 . S
H1524 C1532 0.950 . S
H1525 C1537 0.950 . S
H1526 C1534 0.950 . S
H1527 C1536 0.950 . S
H1528 C1538 0.950 . S
H1529 C1540 0.950 . S
H1530 C1542 0.950 . S
H1531 C1543 0.950 . S
C1532 H1524 0.950 . S
C1532 C1533 1.386 . S
C1532 C1534 1.391 . S
C1533 C1532 1.386 . S
C1533 C1537 1.393 . S
C1534 H1526 0.950 . S
C1534 C1532 1.391 . S
C1534 C1535 1.400 . S
C1535 C1534 1.400 . S
C1535 C1536 1.398 . S
C1535 C1541 1.491 . S
C1536 H1527 0.950 . S
C1536 C1535 1.398 . S
C1536 C1537 1.391 . S
C1537 H1525 0.950 . S
C1537 C1533 1.393 . S
C1537 C1536 1.391 . S
C1538 H1528 0.950 . S
C1538 C1539 1.386 . S
C1538 C1540 1.391 . S
C1539 C1538 1.386 . S
C1539 C1543 1.393 . S
C1540 H1529 0.950 . S
C1540 C1538 1.391 . S
C1540 C1541 1.400 . S
C1541 C1535 1.491 . S
C1541 C1540 1.400 . S
C1541 C1542 1.398 . S
C1542 H1530 0.950 . S
C1542 C1541 1.398 . S
C1542 C1543 1.391 . S
C1543 H1531 0.950 . S
C1543 C1539 1.393 . S
C1543 C1542 1.391 . S
H1544 C1552 0.950 . S
H1545 C1557 0.950 . S
H1546 C1554 0.950 . S
H1547 C1556 0.950 . S
H1548 C1558 0.950 . S
H1549 C1560 0.950 . S
H1550 C1562 0.950 . S
H1551 C1563 0.950 . S
C1552 H1544 0.950 . S
C1552 C1553 1.386 . S
C1552 C1554 1.391 . S
C1553 C1552 1.386 . S
C1553 C1557 1.393 . S
C1554 H1546 0.950 . S
C1554 C1552 1.391 . S
C1554 C1555 1.400 . S
C1555 C1554 1.400 . S
C1555 C1556 1.398 . S
C1555 C1561 1.491 . S
C1556 H1547 0.950 . S
C1556 C1555 1.398 . S
C1556 C1557 1.391 . S
C1557 H1545 0.950 . S
C1557 C1553 1.393 . S
C1557 C1556 1.391 . S
C1558 H1548 0.950 . S
C1558 C1559 1.386 . S
C1558 C1560 1.391 . S
C1559 C1558 1.386 . S
C1559 C1563 1.393 . S
C1560 H1549 0.950 . S
C1560 C1558 1.391 . S
C1560 C1561 1.400 1_655 S
C1561 C1555 1.491 . S
C1561 C1560 1.400 1_455 S
C1561 C1562 1.398 . S
C1562 H1550 0.950 . S
C1562 C1561 1.398 . S
C1562 C1563 1.391 1_455 S
C1563 H1551 0.950 . S
C1563 C1559 1.393 . S
C1563 C1562 1.391 1_655 S
H1564 C1572 0.950 . S
H1565 C1577 0.950 . S
H1566 C1574 0.950 . S
H1567 C1576 0.950 . S
H1568 C1578 0.950 . S
H1569 C1580 0.950 . S
H1570 C1582 0.950 . S
H1571 C1583 0.950 . S
C1572 H1564 0.950 . S
C1572 C1573 1.386 . S
C1572 C1574 1.391 . S
C1573 C1572 1.386 . S
C1573 C1577 1.393 . S
C1574 H1566 0.950 . S
C1574 C1572 1.391 . S
C1574 C1575 1.400 . S
C1575 C1574 1.400 . S
C1575 C1576 1.398 . S
C1575 C1581 1.491 . S
C1576 H1567 0.950 . S
C1576 C1575 1.398 . S
C1576 C1577 1.391 . S
C1577 H1565 0.950 . S
C1577 C1573 1.393 . S
C1577 C1576 1.391 . S
C1578 H1568 0.950 . S
C1578 C1579 1.386 . S
C1578 C1580 1.391 . S
C1579 C1578 1.386 . S
C1579 C1583 1.393 . S
C1580 H1569 0.950 . S
C1580 C1578 1.391 . S
C1580 C1581 1.400 . S
C1581 C1575 1.491 . S
C1581 C1580 1.400 . S
C1581 C1582 1.398 . S
C1582 H1570 0.950 . S
C1582 C1581 1.398 . S
C1582 C1583 1.391 . S
C1583 H1571 0.950 . S
C1583 C1579 1.393 . S
C1583 C1582 1.391 . S
H1584 C1592 0.950 . S
H1585 C1597 0.950 . S
H1586 C1594 0.950 . S
H1587 C1596 0.950 . S
H1588 C1598 0.950 . S
H1589 C1600 0.950 . S
H1590 C1602 0.950 1_655 S
H1591 C1603 0.950 . S
C1592 H1584 0.950 . S
C1592 C1593 1.386 . S
C1592 C1594 1.391 . S
C1593 C1592 1.386 . S
C1593 C1597 1.393 . S
C1594 H1586 0.950 . S
C1594 C1592 1.391 . S
C1594 C1595 1.400 . S
C1595 C1594 1.400 . S
C1595 C1596 1.398 . S
C1595 C1601 1.491 1_655 S
C1596 H1587 0.950 . S
C1596 C1595 1.398 . S
C1596 C1597 1.391 . S
C1597 H1585 0.950 . S
C1597 C1593 1.393 . S
C1597 C1596 1.391 . S
C1598 H1588 0.950 . S
C1598 C1599 1.386 . S
C1598 C1600 1.391 . S
C1599 C1598 1.386 . S
C1599 C1603 1.393 . S
C1600 H1589 0.950 . S
C1600 C1598 1.391 . S
C1600 C1601 1.400 . S
C1601 C1595 1.491 1_455 S
C1601 C1600 1.400 . S
C1601 C1602 1.398 . S
C1602 H1590 0.950 1_455 S
C1602 C1601 1.398 . S
C1602 C1603 1.391 . S
C1603 H1591 0.950 . S
C1603 C1599 1.393 . S
C1603 C1602 1.391 . S
H1604 C1612 0.950 . S
H1605 C1617 0.950 . S
H1606 C1614 0.950 . S
H1607 C1616 0.950 . S
H1608 C1618 0.950 . S
H1609 C1620 0.950 . S
H1610 C1622 0.950 . S
H1611 C1623 0.950 . S
C1612 H1604 0.950 . S
C1612 C1613 1.386 . S
C1612 C1614 1.391 . S
C1613 C1612 1.386 . S
C1613 C1617 1.393 . S
C1614 H1606 0.950 . S
C1614 C1612 1.391 . S
C1614 C1615 1.400 . S
C1615 C1614 1.400 . S
C1615 C1616 1.398 . S
C1615 C1621 1.491 . S
C1616 H1607 0.950 . S
C1616 C1615 1.398 . S
C1616 C1617 1.391 . S
C1617 H1605 0.950 . S
C1617 C1613 1.393 . S
C1617 C1616 1.391 . S
C1618 H1608 0.950 . S
C1618 C1619 1.386 . S
C1618 C1620 1.391 . S
C1619 C1618 1.386 . S
C1619 C1623 1.393 . S
C1620 H1609 0.950 . S
C1620 C1618 1.391 . S
C1620 C1621 1.400 . S
C1621 C1615 1.491 . S
C1621 C1620 1.400 . S
C1621 C1622 1.398 . S
C1622 H1610 0.950 . S
C1622 C1621 1.398 . S
C1622 C1623 1.391 . S
C1623 H1611 0.950 . S
C1623 C1619 1.393 . S
C1623 C1622 1.391 . S
H1624 C1632 0.950 . S
H1625 C1637 0.950 . S
H1626 C1634 0.950 . S
H1627 C1636 0.950 . S
H1628 C1638 0.950 . S
H1629 C1640 0.950 . S
H1630 C1642 0.950 . S
H1631 C1643 0.950 . S
C1632 H1624 0.950 . S
C1632 C1633 1.386 . S
C1632 C1634 1.391 . S
C1633 C1632 1.386 . S
C1633 C1637 1.393 . S
C1634 H1626 0.950 . S
C1634 C1632 1.391 . S
C1634 C1635 1.400 . S
C1635 C1634 1.400 . S
C1635 C1636 1.398 . S
C1635 C1641 1.491 . S
C1636 H1627 0.950 . S
C1636 C1635 1.398 . S
C1636 C1637 1.391 . S
C1637 H1625 0.950 . S
C1637 C1633 1.393 . S
C1637 C1636 1.391 . S
C1638 H1628 0.950 . S
C1638 C1639 1.386 . S
C1638 C1640 1.391 . S
C1639 C1638 1.386 . S
C1639 C1643 1.393 . S
C1640 H1629 0.950 . S
C1640 C1638 1.391 . S
C1640 C1641 1.400 . S
C1641 C1635 1.491 . S
C1641 C1640 1.400 . S
C1641 C1642 1.398 . S
C1642 H1630 0.950 . S
C1642 C1641 1.398 . S
C1642 C1643 1.391 . S
C1643 H1631 0.950 . S
C1643 C1639 1.393 . S
C1643 C1642 1.391 . S
H1644 C1652 0.950 . S
H1645 C1657 0.950 . S
H1646 C1654 0.950 . S
H1647 C1656 0.950 . S
H1648 C1658 0.950 . S
H1649 C1660 0.950 . S
H1650 C1662 0.950 . S
H1651 C1663 0.950 . S
C1652 H1644 0.950 . S
C1652 C1653 1.386 . S
C1652 C1654 1.391 . S
C1653 C1652 1.386 . S
C1653 C1657 1.393 . S
C1654 H1646 0.950 . S
C1654 C1652 1.391 . S
C1654 C1655 1.400 . S
C1655 C1654 1.400 . S
C1655 C1656 1.398 . S
C1655 C1661 1.491 . S
C1656 H1647 0.950 . S
C1656 C1655 1.398 . S
C1656 C1657 1.391 . S
C1657 H1645 0.950 . S
C1657 C1653 1.393 . S
C1657 C1656 1.391 . S
C1658 H1648 0.950 . S
C1658 C1659 1.386 . S
C1658 C1660 1.391 . S
C1659 C1658 1.386 . S
C1659 C1663 1.393 . S
C1660 H1649 0.950 . S
C1660 C1658 1.391 . S
C1660 C1661 1.400 1_556 S
C1661 C1655 1.491 . S
C1661 C1660 1.400 1_554 S
C1661 C1662 1.398 . S
C1662 H1650 0.950 . S
C1662 C1661 1.398 . S
C1662 C1663 1.391 1_554 S
C1663 H1651 0.950 . S
C1663 C1659 1.393 . S
C1663 C1662 1.391 1_556 S
H1664 C1672 0.950 1_455 S
H1665 C1677 0.950 . S
H1666 C1674 0.950 . S
H1667 C1676 0.950 . S
H1668 C1678 0.950 . S
H1669 C1680 0.950 . S
H1670 C1682 0.950 . S
H1671 C1683 0.950 . S
C1672 H1664 0.950 1_655 S
C1672 C1673 1.386 . S
C1672 C1674 1.391 . S
C1673 C1672 1.386 . S
C1673 C1677 1.393 . S
C1674 H1666 0.950 . S
C1674 C1672 1.391 . S
C1674 C1675 1.400 . S
C1675 C1674 1.400 . S
C1675 C1676 1.398 . S
C1675 C1681 1.491 . S
C1676 H1667 0.950 . S
C1676 C1675 1.398 . S
C1676 C1677 1.391 . S
C1677 H1665 0.950 . S
C1677 C1673 1.393 . S
C1677 C1676 1.391 . S
C1678 H1668 0.950 . S
C1678 C1679 1.386 . S
C1678 C1680 1.391 . S
C1679 C1678 1.386 . S
C1679 C1683 1.393 . S
C1680 H1669 0.950 . S
C1680 C1678 1.391 . S
C1680 C1681 1.400 . S
C1681 C1675 1.491 . S
C1681 C1680 1.400 . S
C1681 C1682 1.398 . S
C1682 H1670 0.950 . S
C1682 C1681 1.398 . S
C1682 C1683 1.391 . S
C1683 H1671 0.950 . S
C1683 C1679 1.393 . S
C1683 C1682 1.391 . S
H1684 C1692 0.950 . S
H1685 C1697 0.950 . S
H1686 C1694 0.950 . S
H1687 C1696 0.950 . S
H1688 C1698 0.950 . S
H1689 C1700 0.950 . S
H1690 C1702 0.950 . S
H1691 C1703 0.950 . S
C1692 H1684 0.950 . S
C1692 C1693 1.386 . S
C1692 C1694 1.391 . S
C1693 C1692 1.386 . S
C1693 C1697 1.393 . S
C1694 H1686 0.950 . S
C1694 C1692 1.391 . S
C1694 C1695 1.400 . S
C1695 C1694 1.400 . S
C1695 C1696 1.398 . S
C1695 C1701 1.491 . S
C1696 H1687 0.950 . S
C1696 C1695 1.398 . S
C1696 C1697 1.391 . S
C1697 H1685 0.950 . S
C1697 C1693 1.393 . S
C1697 C1696 1.391 . S
C1698 H1688 0.950 . S
C1698 C1699 1.386 . S
C1698 C1700 1.391 . S
C1699 C1698 1.386 . S
C1699 C1703 1.393 . S
C1700 H1689 0.950 . S
C1700 C1698 1.391 . S
C1700 C1701 1.400 . S
C1701 C1695 1.491 . S
C1701 C1700 1.400 . S
C1701 C1702 1.398 . S
C1702 H1690 0.950 . S
C1702 C1701 1.398 . S
C1702 C1703 1.391 . S
C1703 H1691 0.950 . S
C1703 C1699 1.393 . S
C1703 C1702 1.391 . S
H1704 C1712 0.950 . S
H1705 C1717 0.950 . S
H1706 C1714 0.950 . S
H1707 C1716 0.950 . S
H1708 C1718 0.950 . S
H1709 C1720 0.950 . S
H1710 C1722 0.950 . S
H1711 C1723 0.950 . S
C1712 H1704 0.950 . S
C1712 C1713 1.386 . S
C1712 C1714 1.391 . S
C1713 C1712 1.386 . S
C1713 C1717 1.393 . S
C1714 H1706 0.950 . S
C1714 C1712 1.391 . S
C1714 C1715 1.400 . S
C1715 C1714 1.400 . S
C1715 C1716 1.398 . S
C1715 C1721 1.491 . S
C1716 H1707 0.950 . S
C1716 C1715 1.398 . S
C1716 C1717 1.391 . S
C1717 H1705 0.950 . S
C1717 C1713 1.393 . S
C1717 C1716 1.391 . S
C1718 H1708 0.950 . S
C1718 C1719 1.386 . S
C1718 C1720 1.391 . S
C1719 C1718 1.386 . S
C1719 C1723 1.393 . S
C1720 H1709 0.950 . S
C1720 C1718 1.391 . S
C1720 C1721 1.400 . S
C1721 C1715 1.491 . S
C1721 C1720 1.400 . S
C1721 C1722 1.398 . S
C1722 H1710 0.950 . S
C1722 C1721 1.398 . S
C1722 C1723 1.391 . S
C1723 H1711 0.950 . S
C1723 C1719 1.393 . S
C1723 C1722 1.391 . S
H1724 C1732 0.950 . S
H1725 C1737 0.950 1_455 S
H1726 C1734 0.950 . S
H1727 C1736 0.950 . S
H1728 C1738 0.950 . S
H1729 C1740 0.950 . S
H1730 C1742 0.972 . S
H1731 C1743 0.950 . S
C1732 H1724 0.950 . S
C1732 C1733 1.386 . S
C1732 C1734 1.391 . S
C1733 C1732 1.386 . S
C1733 C1737 1.393 . S
C1734 H1726 0.950 . S
C1734 C1732 1.391 . S
C1734 C1735 1.400 . S
C1735 C1734 1.400 . S
C1735 C1736 1.398 . S
C1735 C1741 1.491 1_556 S
C1736 H1727 0.950 . S
C1736 C1735 1.398 . S
C1736 C1737 1.391 . S
C1737 H1725 0.950 1_655 S
C1737 C1733 1.393 . S
C1737 C1736 1.391 . S
C1738 H1728 0.950 . S
C1738 C1739 1.386 . S
C1738 C1740 1.391 . S
C1739 C1738 1.386 . S
C1739 C1743 1.393 . S
C1740 H1729 0.950 . S
C1740 C1738 1.391 . S
C1740 C1741 1.400 . S
C1741 C1735 1.491 1_554 S
C1741 C1740 1.400 . S
C1741 C1742 1.398 . S
C1742 H1730 0.972 . S
C1742 C1741 1.398 . S
C1742 C1743 1.391 . S
C1743 H1731 0.950 . S
C1743 C1739 1.393 . S
C1743 C1742 1.391 . S
H1744 C1752 0.950 . S
H1745 C1757 0.950 . S
H1746 C1754 0.950 . S
H1747 C1756 0.950 . S
H1748 C1758 0.950 . S
H1749 C1760 0.950 . S
H1750 C1762 0.950 . S
H1751 C1763 0.950 . S
C1752 H1744 0.950 . S
C1752 C1753 1.386 . S
C1752 C1754 1.391 . S
C1753 C1752 1.386 . S
C1753 C1757 1.393 . S
C1754 H1746 0.950 . S
C1754 C1752 1.391 . S
C1754 C1755 1.400 . S
C1755 C1754 1.400 . S
C1755 C1756 1.398 . S
C1755 C1761 1.491 . S
C1756 H1747 0.950 . S
C1756 C1755 1.398 . S
C1756 C1757 1.391 . S
C1757 H1745 0.950 . S
C1757 C1753 1.393 . S
C1757 C1756 1.391 . S
C1758 H1748 0.950 . S
C1758 C1759 1.386 . S
C1758 C1760 1.391 . S
C1759 C1758 1.386 . S
C1759 C1763 1.393 . S
C1760 H1749 0.950 . S
C1760 C1758 1.391 . S
C1760 C1761 1.400 . S
C1761 C1755 1.491 . S
C1761 C1760 1.400 . S
C1761 C1762 1.398 . S
C1762 H1750 0.950 . S
C1762 C1761 1.398 . S
C1762 C1763 1.391 . S
C1763 H1751 0.950 . S
C1763 C1759 1.393 . S
C1763 C1762 1.391 . S
H1764 C1772 0.950 . S
H1765 C1777 0.950 . S
H1766 C1774 0.950 . S
H1767 C1776 0.950 . S
H1768 C1778 0.950 . S
H1769 C1780 0.950 . S
H1770 C1782 0.950 . S
H1771 C1783 0.950 . S
C1772 H1764 0.950 . S
C1772 C1773 1.386 . S
C1772 C1774 1.391 . S
C1773 C1772 1.386 . S
C1773 C1777 1.393 . S
C1774 H1766 0.950 . S
C1774 C1772 1.391 . S
C1774 C1775 1.400 . S
C1775 C1774 1.400 . S
C1775 C1776 1.398 . S
C1775 C1781 1.491 . S
C1776 H1767 0.950 . S
C1776 C1775 1.398 . S
C1776 C1777 1.391 . S
C1777 H1765 0.950 . S
C1777 C1773 1.393 . S
C1777 C1776 1.391 . S
C1778 H1768 0.950 . S
C1778 C1779 1.386 . S
C1778 C1780 1.391 . S
C1779 C1778 1.386 . S
C1779 C1783 1.393 . S
C1780 H1769 0.950 . S
C1780 C1778 1.391 . S
C1780 C1781 1.400 . S
C1781 C1775 1.491 . S
C1781 C1780 1.400 . S
C1781 C1782 1.398 . S
C1782 H1770 0.950 . S
C1782 C1781 1.398 . S
C1782 C1783 1.391 . S
C1783 H1771 0.950 . S
C1783 C1779 1.393 . S
C1783 C1782 1.391 . S
H1784 C1792 0.950 . S
H1785 C1797 0.950 . S
H1786 C1794 0.950 . S
H1787 C1796 0.950 . S
H1788 C1798 0.950 . S
H1789 C1800 0.950 . S
H1790 C1802 0.950 . S
H1791 C1803 0.950 . S
C1792 H1784 0.950 . S
C1792 C1793 1.386 . S
C1792 C1794 1.391 . S
C1793 C1792 1.386 . S
C1793 C1797 1.393 . S
C1794 H1786 0.950 . S
C1794 C1792 1.391 . S
C1794 C1795 1.400 . S
C1795 C1794 1.400 . S
C1795 C1796 1.398 . S
C1795 C1801 1.491 . S
C1796 H1787 0.950 . S
C1796 C1795 1.398 . S
C1796 C1797 1.391 . S
C1797 H1785 0.950 . S
C1797 C1793 1.393 . S
C1797 C1796 1.391 . S
C1798 H1788 0.950 . S
C1798 C1799 1.386 . S
C1798 C1800 1.391 . S
C1799 C1798 1.386 . S
C1799 C1803 1.393 . S
C1800 H1789 0.950 . S
C1800 C1798 1.391 . S
C1800 C1801 1.400 . S
C1801 C1795 1.491 . S
C1801 C1800 1.400 . S
C1801 C1802 1.398 . S
C1802 H1790 0.950 . S
C1802 C1801 1.398 . S
C1802 C1803 1.391 . S
C1803 H1791 0.950 . S
C1803 C1799 1.393 . S
C1803 C1802 1.391 . S
H1804 C1812 0.950 . S
H1805 C1817 0.950 . S
H1806 C1814 0.950 . S
H1807 C1816 0.950 . S
H1808 C1818 0.950 . S
H1809 C1820 0.950 . S
H1810 C1822 0.950 . S
H1811 C1823 0.950 . S
C1812 H1804 0.950 . S
C1812 C1813 1.386 . S
C1812 C1814 1.391 . S
C1813 C1812 1.386 . S
C1813 C1817 1.393 . S
C1814 H1806 0.950 . S
C1814 C1812 1.391 . S
C1814 C1815 1.400 . S
C1815 C1814 1.400 . S
C1815 C1816 1.398 . S
C1815 C1821 1.491 . S
C1816 H1807 0.950 . S
C1816 C1815 1.398 . S
C1816 C1817 1.391 . S
C1817 H1805 0.950 . S
C1817 C1813 1.393 . S
C1817 C1816 1.391 . S
C1818 H1808 0.950 . S
C1818 C1819 1.386 . S
C1818 C1820 1.391 . S
C1819 C1818 1.386 . S
C1819 C1823 1.393 . S
C1820 H1809 0.950 . S
C1820 C1818 1.391 . S
C1820 C1821 1.400 . S
C1821 C1815 1.491 . S
C1821 C1820 1.400 . S
C1821 C1822 1.398 . S
C1822 H1810 0.950 . S
C1822 C1821 1.398 . S
C1822 C1823 1.391 . S
C1823 H1811 0.950 . S
C1823 C1819 1.393 . S
C1823 C1822 1.391 . S
H1824 C1832 0.950 . S
H1825 C1837 0.950 . S
H1826 C1834 0.950 . S
H1827 C1836 0.950 . S
H1828 C1838 0.950 . S
H1829 C1840 0.950 . S
H1830 C1842 0.950 . S
H1831 C1843 0.950 . S
C1832 H1824 0.950 . S
C1832 C1833 1.386 . S
C1832 C1834 1.391 . S
C1833 C1832 1.386 . S
C1833 C1837 1.393 . S
C1834 H1826 0.950 . S
C1834 C1832 1.391 . S
C1834 C1835 1.400 . S
C1835 C1834 1.400 . S
C1835 C1836 1.398 . S
C1835 C1841 1.491 . S
C1836 H1827 0.950 . S
C1836 C1835 1.398 . S
C1836 C1837 1.391 . S
C1837 H1825 0.950 . S
C1837 C1833 1.393 . S
C1837 C1836 1.391 . S
C1838 H1828 0.950 . S
C1838 C1839 1.386 . S
C1838 C1840 1.391 . S
C1839 C1838 1.386 . S
C1839 C1843 1.393 . S
C1840 H1829 0.950 . S
C1840 C1838 1.391 . S
C1840 C1841 1.400 . S
C1841 C1835 1.491 . S
C1841 C1840 1.400 . S
C1841 C1842 1.398 . S
C1842 H1830 0.950 . S
C1842 C1841 1.398 . S
C1842 C1843 1.391 . S
C1843 H1831 0.950 . S
C1843 C1839 1.393 . S
C1843 C1842 1.391 . S
H1844 C1852 0.950 . S
H1845 C1857 0.950 . S
H1846 C1854 0.950 . S
H1847 C1856 0.950 . S
H1848 C1858 0.950 . S
H1849 C1860 0.950 . S
H1850 C1862 0.950 . S
H1851 C1863 0.950 . S
C1852 H1844 0.950 . S
C1852 C1853 1.386 . S
C1852 C1854 1.391 . S
C1853 C1852 1.386 . S
C1853 C1857 1.393 . S
C1854 H1846 0.950 . S
C1854 C1852 1.391 . S
C1854 C1855 1.400 . S
C1855 C1854 1.400 . S
C1855 C1856 1.398 . S
C1855 C1861 1.491 . S
C1856 H1847 0.950 . S
C1856 C1855 1.398 . S
C1856 C1857 1.391 . S
C1857 H1845 0.950 . S
C1857 C1853 1.393 . S
C1857 C1856 1.391 . S
C1858 H1848 0.950 . S
C1858 C1859 1.386 . S
C1858 C1860 1.391 . S
C1859 C1858 1.386 . S
C1859 C1863 1.393 . S
C1860 H1849 0.950 . S
C1860 C1858 1.391 . S
C1860 C1861 1.400 . S
C1861 C1855 1.491 . S
C1861 C1860 1.400 . S
C1861 C1862 1.398 . S
C1862 H1850 0.950 . S
C1862 C1861 1.398 . S
C1862 C1863 1.391 . S
C1863 H1851 0.950 . S
C1863 C1859 1.393 . S
C1863 C1862 1.391 . S
H1864 C1872 0.950 . S
H1865 C1877 0.950 . S
H1866 C1874 0.950 . S
H1867 C1876 0.950 . S
H1868 C1878 0.950 . S
H1869 C1880 0.950 . S
H1870 C1882 0.950 . S
H1871 C1883 0.950 . S
C1872 H1864 0.950 . S
C1872 C1873 1.386 . S
C1872 C1874 1.391 . S
C1873 C1872 1.386 . S
C1873 C1877 1.393 . S
C1874 H1866 0.950 . S
C1874 C1872 1.391 . S
C1874 C1875 1.400 . S
C1875 C1874 1.400 . S
C1875 C1876 1.398 . S
C1875 C1881 1.491 . S
C1876 H1867 0.950 . S
C1876 C1875 1.398 . S
C1876 C1877 1.391 . S
C1877 H1865 0.950 . S
C1877 C1873 1.393 . S
C1877 C1876 1.391 . S
C1878 H1868 0.950 . S
C1878 C1879 1.386 . S
C1878 C1880 1.391 . S
C1879 C1878 1.386 . S
C1879 C1883 1.393 . S
C1880 H1869 0.950 . S
C1880 C1878 1.391 . S
C1880 C1881 1.400 . S
C1881 C1875 1.491 . S
C1881 C1880 1.400 . S
C1881 C1882 1.398 . S
C1882 H1870 0.950 . S
C1882 C1881 1.398 . S
C1882 C1883 1.391 . S
C1883 H1871 0.950 . S
C1883 C1879 1.393 . S
C1883 C1882 1.391 . S
H1884 C1892 0.950 . S
H1885 C1897 0.950 . S
H1886 C1894 0.950 . S
H1887 C1896 0.950 . S
H1888 C1898 0.950 . S
H1889 C1900 0.950 . S
H1890 C1902 0.950 . S
H1891 C1903 0.950 . S
C1892 H1884 0.950 . S
C1892 C1893 1.386 . S
C1892 C1894 1.391 . S
C1893 C1892 1.386 . S
C1893 C1897 1.393 . S
C1894 H1886 0.950 . S
C1894 C1892 1.391 . S
C1894 C1895 1.400 . S
C1895 C1894 1.400 . S
C1895 C1896 1.398 . S
C1895 C1901 1.491 . S
C1896 H1887 0.950 . S
C1896 C1895 1.398 . S
C1896 C1897 1.391 . S
C1897 H1885 0.950 . S
C1897 C1893 1.393 . S
C1897 C1896 1.391 . S
C1898 H1888 0.950 . S
C1898 C1899 1.386 . S
C1898 C1900 1.391 . S
C1899 C1898 1.386 . S
C1899 C1903 1.393 . S
C1900 H1889 0.950 . S
C1900 C1898 1.391 . S
C1900 C1901 1.400 . S
C1901 C1895 1.491 . S
C1901 C1900 1.400 . S
C1901 C1902 1.398 . S
C1902 H1890 0.950 . S
C1902 C1901 1.398 . S
C1902 C1903 1.391 . S
C1903 H1891 0.950 . S
C1903 C1899 1.393 . S
C1903 C1902 1.391 . S
H1904 C1912 0.950 . S
H1905 C1917 0.950 . S
H1906 C1914 0.950 . S
H1907 C1916 0.950 . S
H1908 C1918 0.950 . S
H1909 C1920 0.950 . S
H1910 C1922 0.950 . S
H1911 C1923 0.950 . S
C1912 H1904 0.950 . S
C1912 C1913 1.386 . S
C1912 C1914 1.391 . S
C1913 C1912 1.386 . S
C1913 C1917 1.393 . S
C1914 H1906 0.950 . S
C1914 C1912 1.391 . S
C1914 C1915 1.400 . S
C1915 C1914 1.400 . S
C1915 C1916 1.398 . S
C1915 C1921 1.491 . S
C1916 H1907 0.950 . S
C1916 C1915 1.398 . S
C1916 C1917 1.391 . S
C1917 H1905 0.950 . S
C1917 C1913 1.393 . S
C1917 C1916 1.391 . S
C1918 H1908 0.950 . S
C1918 C1919 1.386 . S
C1918 C1920 1.391 . S
C1919 C1918 1.386 . S
C1919 C1923 1.393 . S
C1920 H1909 0.950 . S
C1920 C1918 1.391 . S
C1920 C1921 1.400 . S
C1921 C1915 1.491 . S
C1921 C1920 1.400 . S
C1921 C1922 1.398 . S
C1922 H1910 0.950 . S
C1922 C1921 1.398 . S
C1922 C1923 1.391 . S
C1923 H1911 0.950 . S
C1923 C1919 1.393 . S
C1923 C1922 1.391 . S
H1924 C1932 0.950 . S
H1925 C1937 0.950 . S
H1926 C1934 0.950 . S
H1927 C1936 0.950 . S
H1928 C1938 0.950 . S
H1929 C1940 0.950 . S
H1930 C1942 0.950 . S
H1931 C1943 0.950 . S
C1932 H1924 0.950 . S
C1932 C1933 1.386 . S
C1932 C1934 1.391 . S
C1933 C1932 1.386 . S
C1933 C1937 1.393 . S
C1934 H1926 0.950 . S
C1934 C1932 1.391 . S
C1934 C1935 1.400 . S
C1935 C1934 1.400 . S
C1935 C1936 1.398 . S
C1935 C1941 1.491 . S
C1936 H1927 0.950 . S
C1936 C1935 1.398 . S
C1936 C1937 1.391 . S
C1937 H1925 0.950 . S
C1937 C1933 1.393 . S
C1937 C1936 1.391 . S
C1938 H1928 0.950 . S
C1938 C1939 1.386 . S
C1938 C1940 1.391 . S
C1939 C1938 1.386 . S
C1939 C1943 1.393 . S
C1940 H1929 0.950 . S
C1940 C1938 1.391 . S
C1940 C1941 1.400 . S
C1941 C1935 1.491 . S
C1941 C1940 1.400 . S
C1941 C1942 1.398 . S
C1942 H1930 0.950 . S
C1942 C1941 1.398 . S
C1942 C1943 1.391 . S
C1943 H1931 0.950 . S
C1943 C1939 1.393 . S
C1943 C1942 1.391 . S
H1944 C1952 0.950 . S
H1945 C1957 0.950 . S
H1946 C1954 0.950 . S
H1947 C1956 0.950 . S
H1948 C1958 0.950 . S
H1949 C1960 0.950 . S
H1950 C1962 0.950 . S
H1951 C1963 0.950 . S
C1952 H1944 0.950 . S
C1952 C1953 1.386 . S
C1952 C1954 1.391 . S
C1953 C1952 1.386 . S
C1953 C1957 1.393 . S
C1954 H1946 0.950 . S
C1954 C1952 1.391 . S
C1954 C1955 1.400 . S
C1955 C1954 1.400 . S
C1955 C1956 1.398 . S
C1955 C1961 1.491 . S
C1956 H1947 0.950 . S
C1956 C1955 1.398 . S
C1956 C1957 1.391 . S
C1957 H1945 0.950 . S
C1957 C1953 1.393 . S
C1957 C1956 1.391 . S
C1958 H1948 0.950 . S
C1958 C1959 1.386 . S
C1958 C1960 1.391 . S
C1959 C1958 1.386 . S
C1959 C1963 1.393 . S
C1960 H1949 0.950 . S
C1960 C1958 1.391 . S
C1960 C1961 1.400 . S
C1961 C1955 1.491 . S
C1961 C1960 1.400 . S
C1961 C1962 1.398 . S
C1962 H1950 0.950 . S
C1962 C1961 1.398 . S
C1962 C1963 1.391 . S
C1963 H1951 0.950 . S
C1963 C1959 1.393 . S
C1963 C1962 1.391 . S
H1964 C1972 0.950 . S
H1965 C1977 0.950 . S
H1966 C1974 0.950 . S
H1967 C1976 0.950 . S
H1968 C1978 0.950 . S
H1969 C1980 0.950 . S
H1970 C1982 0.950 . S
H1971 C1983 0.950 . S
C1972 H1964 0.950 . S
C1972 C1973 1.386 . S
C1972 C1974 1.391 . S
C1973 C1972 1.386 . S
C1973 C1977 1.393 . S
C1974 H1966 0.950 . S
C1974 C1972 1.391 . S
C1974 C1975 1.400 . S
C1975 C1974 1.400 . S
C1975 C1976 1.398 . S
C1975 C1981 1.491 . S
C1976 H1967 0.950 . S
C1976 C1975 1.398 . S
C1976 C1977 1.391 . S
C1977 H1965 0.950 . S
C1977 C1973 1.393 . S
C1977 C1976 1.391 . S
C1978 H1968 0.950 . S
C1978 C1979 1.386 . S
C1978 C1980 1.391 . S
C1979 C1978 1.386 . S
C1979 C1983 1.393 . S
C1980 H1969 0.950 . S
C1980 C1978 1.391 . S
C1980 C1981 1.400 . S
C1981 C1975 1.491 . S
C1981 C1980 1.400 . S
C1981 C1982 1.398 . S
C1982 H1970 0.950 . S
C1982 C1981 1.398 . S
C1982 C1983 1.391 . S
C1983 H1971 0.950 . S
C1983 C1979 1.393 . S
C1983 C1982 1.391 . S
H1984 C1992 0.950 . S
H1985 C1997 0.950 1_545 S
H1986 C1994 0.950 . S
H1987 C1996 0.950 . S
H1988 C1998 0.950 . S
H1989 C2000 0.950 . S
H1990 C2002 0.950 . S
H1991 C2003 0.950 . S
C1992 H1984 0.950 . S
C1992 C1993 1.386 . S
C1992 C1994 1.391 . S
C1993 C1992 1.386 . S
C1993 C1997 1.393 . S
C1994 H1986 0.950 . S
C1994 C1992 1.391 . S
C1994 C1995 1.400 . S
C1995 C1994 1.400 . S
C1995 C1996 1.398 . S
C1995 C2001 1.491 . S
C1996 H1987 0.950 . S
C1996 C1995 1.398 . S
C1996 C1997 1.391 . S
C1997 H1985 0.950 1_565 S
C1997 C1993 1.393 . S
C1997 C1996 1.391 . S
C1998 H1988 0.950 . S
C1998 C1999 1.386 . S
C1998 C2000 1.391 . S
C1999 C1998 1.386 . S
C1999 C2003 1.393 . S
C2000 H1989 0.950 . S
C2000 C1998 1.391 . S
C2000 C2001 1.400 . S
C2001 C1995 1.491 . S
C2001 C2000 1.400 . S
C2001 C2002 1.398 . S
C2002 H1990 0.950 . S
C2002 C2001 1.398 . S
C2002 C2003 1.391 . S
C2003 H1991 0.950 . S
C2003 C1999 1.393 . S
C2003 C2002 1.391 . S
H2004 C2012 0.950 . S
H2005 C2017 0.950 . S
H2006 C2014 0.950 . S
H2007 C2016 0.950 . S
H2008 C2018 0.950 . S
H2009 C2020 0.950 . S
H2010 C2022 0.950 . S
H2011 C2023 0.950 . S
C2012 H2004 0.950 . S
C2012 C2013 1.386 . S
C2012 C2014 1.391 . S
C2013 C2012 1.386 . S
C2013 C2017 1.393 . S
C2014 H2006 0.950 . S
C2014 C2012 1.391 . S
C2014 C2015 1.400 . S
C2015 C2014 1.400 . S
C2015 C2016 1.398 . S
C2015 C2021 1.491 . S
C2016 H2007 0.950 . S
C2016 C2015 1.398 . S
C2016 C2017 1.391 . S
C2017 H2005 0.950 . S
C2017 C2013 1.393 . S
C2017 C2016 1.391 . S
C2018 H2008 0.950 . S
C2018 C2019 1.386 . S
C2018 C2020 1.391 . S
C2019 C2018 1.386 . S
C2019 C2023 1.393 . S
C2020 H2009 0.950 . S
C2020 C2018 1.391 . S
C2020 C2021 1.400 . S
C2021 C2015 1.491 . S
C2021 C2020 1.400 . S
C2021 C2022 1.398 . S
C2022 H2010 0.950 . S
C2022 C2021 1.398 . S
C2022 C2023 1.391 . S
C2023 H2011 0.950 . S
C2023 C2019 1.393 . S
C2023 C2022 1.391 . S
H2024 C2032 0.950 . S
H2025 C2037 0.950 . S
H2026 C2034 0.950 . S
H2027 C2036 0.950 . S
H2028 C2038 0.950 . S
H2029 C2040 0.950 . S
H2030 C2042 0.950 . S
H2031 C2043 0.950 . S
C2032 H2024 0.950 . S
C2032 C2033 1.386 . S
C2032 C2034 1.391 . S
C2033 C2032 1.386 . S
C2033 C2037 1.393 . S
C2034 H2026 0.950 . S
C2034 C2032 1.391 . S
C2034 C2035 1.400 . S
C2035 C2034 1.400 . S
C2035 C2036 1.398 . S
C2035 C2041 1.491 . S
C2036 H2027 0.950 . S
C2036 C2035 1.398 . S
C2036 C2037 1.391 . S
C2037 H2025 0.950 . S
C2037 C2033 1.393 . S
C2037 C2036 1.391 . S
C2038 H2028 0.950 . S
C2038 C2039 1.386 . S
C2038 C2040 1.391 . S
C2039 C2038 1.386 . S
C2039 C2043 1.393 . S
C2040 H2029 0.950 . S
C2040 C2038 1.391 . S
C2040 C2041 1.400 . S
C2041 C2035 1.491 . S
C2041 C2040 1.400 . S
C2041 C2042 1.398 . S
C2042 H2030 0.950 . S
C2042 C2041 1.398 . S
C2042 C2043 1.391 . S
C2043 H2031 0.950 . S
C2043 C2039 1.393 . S
C2043 C2042 1.391 . S
H2044 C2052 0.950 . S
H2045 C2057 0.950 . S
H2046 C2054 0.950 . S
H2047 C2056 0.950 . S
H2048 C2058 0.950 . S
H2049 C2060 0.950 . S
H2050 C2062 0.950 . S
H2051 C2063 0.950 . S
C2052 H2044 0.950 . S
C2052 C2053 1.386 . S
C2052 C2054 1.391 . S
C2053 C2052 1.386 . S
C2053 C2057 1.393 . S
C2054 H2046 0.950 . S
C2054 C2052 1.391 . S
C2054 C2055 1.400 . S
C2055 C2054 1.400 . S
C2055 C2056 1.398 . S
C2055 C2061 1.491 . S
C2056 H2047 0.950 . S
C2056 C2055 1.398 . S
C2056 C2057 1.391 . S
C2057 H2045 0.950 . S
C2057 C2053 1.393 . S
C2057 C2056 1.391 . S
C2058 H2048 0.950 . S
C2058 C2059 1.386 . S
C2058 C2060 1.391 . S
C2059 C2058 1.386 . S
C2059 C2063 1.393 . S
C2060 H2049 0.950 . S
C2060 C2058 1.391 . S
C2060 C2061 1.400 . S
C2061 C2055 1.491 . S
C2061 C2060 1.400 . S
C2061 C2062 1.398 . S
C2062 H2050 0.950 . S
C2062 C2061 1.398 . S
C2062 C2063 1.391 . S
C2063 H2051 0.950 . S
C2063 C2059 1.393 . S
C2063 C2062 1.391 . S
H2064 C2072 0.950 . S
H2065 C2077 0.950 . S
H2066 C2074 0.950 . S
H2067 C2076 0.950 . S
H2068 C2078 0.950 . S
H2069 C2080 0.950 . S
H2070 C2082 0.950 . S
H2071 C2083 0.950 . S
C2072 H2064 0.950 . S
C2072 C2073 1.386 . S
C2072 C2074 1.391 . S
C2073 C2072 1.386 . S
C2073 C2077 1.393 . S
C2074 H2066 0.950 . S
C2074 C2072 1.391 . S
C2074 C2075 1.400 . S
C2075 C2074 1.400 . S
C2075 C2076 1.398 . S
C2075 C2081 1.491 . S
C2076 H2067 0.950 . S
C2076 C2075 1.398 . S
C2076 C2077 1.391 . S
C2077 H2065 0.950 . S
C2077 C2073 1.393 . S
C2077 C2076 1.391 . S
C2078 H2068 0.950 . S
C2078 C2079 1.386 . S
C2078 C2080 1.391 . S
C2079 C2078 1.386 . S
C2079 C2083 1.393 . S
C2080 H2069 0.950 . S
C2080 C2078 1.391 . S
C2080 C2081 1.400 . S
C2081 C2075 1.491 . S
C2081 C2080 1.400 . S
C2081 C2082 1.398 . S
C2082 H2070 0.950 . S
C2082 C2081 1.398 . S
C2082 C2083 1.391 . S
C2083 H2071 0.950 . S
C2083 C2079 1.393 . S
C2083 C2082 1.391 . S
H2084 C2092 0.950 . S
H2085 C2097 0.950 . S
H2086 C2094 0.950 . S
H2087 C2096 0.950 . S
H2088 C2098 0.950 . S
H2089 C2100 0.919 1_655 S
H2090 C2102 0.950 . S
H2091 C2103 0.950 . S
C2092 H2084 0.950 . S
C2092 C2093 1.386 . S
C2092 C2094 1.391 . S
C2093 C2092 1.386 . S
C2093 C2097 1.393 . S
C2094 H2086 0.950 . S
C2094 C2092 1.391 . S
C2094 C2095 1.400 . S
C2095 C2094 1.400 . S
C2095 C2096 1.398 . S
C2095 C2101 1.491 1_655 S
C2096 H2087 0.950 . S
C2096 C2095 1.398 . S
C2096 C2097 1.391 . S
C2097 H2085 0.950 . S
C2097 C2093 1.393 . S
C2097 C2096 1.391 . S
C2098 H2088 0.950 . S
C2098 C2099 1.386 . S
C2098 C2100 1.422 . S
C2099 C2098 1.386 . S
C2099 C2103 1.393 . S
C2100 H2089 0.919 1_455 S
C2100 C2098 1.422 . S
C2100 C2101 1.401 . S
C2101 C2095 1.491 1_455 S
C2101 C2100 1.401 . S
C2101 C2102 1.398 . S
C2102 H2090 0.950 . S
C2102 C2101 1.398 . S
C2102 C2103 1.391 . S
C2103 H2091 0.950 . S
C2103 C2099 1.393 . S
C2103 C2102 1.391 . S
H2104 C2112 0.950 . S
H2105 C2117 0.950 . S
H2106 C2114 0.950 . S
H2107 C2116 0.950 . S
H2108 C2118 0.950 . S
H2109 C2120 0.950 . S
H2110 C2122 0.950 . S
H2111 C2123 0.950 . S
C2112 H2104 0.950 . S
C2112 C2113 1.386 . S
C2112 C2114 1.391 . S
C2113 C2112 1.386 . S
C2113 C2117 1.393 . S
C2114 H2106 0.950 . S
C2114 C2112 1.391 . S
C2114 C2115 1.400 . S
C2115 C2114 1.400 . S
C2115 C2116 1.398 . S
C2115 C2121 1.491 . S
C2116 H2107 0.950 . S
C2116 C2115 1.398 . S
C2116 C2117 1.391 . S
C2117 H2105 0.950 . S
C2117 C2113 1.393 . S
C2117 C2116 1.391 . S
C2118 H2108 0.950 . S
C2118 C2119 1.386 . S
C2118 C2120 1.391 . S
C2119 C2118 1.386 . S
C2119 C2123 1.393 . S
C2120 H2109 0.950 . S
C2120 C2118 1.391 . S
C2120 C2121 1.400 . S
C2121 C2115 1.491 . S
C2121 C2120 1.400 . S
C2121 C2122 1.398 . S
C2122 H2110 0.950 . S
C2122 C2121 1.398 . S
C2122 C2123 1.391 . S
C2123 H2111 0.950 . S
C2123 C2119 1.393 . S
C2123 C2122 1.391 . S
H2124 C2132 0.950 . S
H2125 C2137 0.950 . S
H2126 C2134 0.950 1_554 S
H2127 C2136 0.950 . S
H2128 C2138 0.950 . S
H2129 C2140 0.950 1_556 S
H2130 C2142 0.950 . S
H2131 C2143 0.950 . S
C2132 H2124 0.950 . S
C2132 C2133 1.386 . S
C2132 C2134 1.391 . S
C2133 C2132 1.386 . S
C2133 C2137 1.393 . S
C2134 H2126 0.950 1_556 S
C2134 C2132 1.391 . S
C2134 C2135 1.400 . S
C2135 C2134 1.400 . S
C2135 C2136 1.398 . S
C2135 C2141 1.491 1_556 S
C2136 H2127 0.950 . S
C2136 C2135 1.398 . S
C2136 C2137 1.391 . S
C2137 H2125 0.950 . S
C2137 C2133 1.393 . S
C2137 C2136 1.391 . S
C2138 H2128 0.950 . S
C2138 C2139 1.386 . S
C2138 C2140 1.391 . S
C2139 C2138 1.386 . S
C2139 C2143 1.393 . S
C2140 H2129 0.950 1_554 S
C2140 C2138 1.391 . S
C2140 C2141 1.400 . S
C2141 C2135 1.491 1_554 S
C2141 C2140 1.400 . S
C2141 C2142 1.398 . S
C2142 H2130 0.950 . S
C2142 C2141 1.398 . S
C2142 C2143 1.391 . S
C2143 H2131 0.950 . S
C2143 C2139 1.393 . S
C2143 C2142 1.391 . S
H2144 C2152 0.950 . S
H2145 C2157 0.950 . S
H2146 C2154 0.950 . S
H2147 C2156 0.950 . S
H2148 C2158 0.950 . S
H2149 C2160 0.950 . S
H2150 C2162 0.950 . S
H2151 C2163 0.950 . S
C2152 H2144 0.950 . S
C2152 C2153 1.386 . S
C2152 C2154 1.391 . S
C2153 C2152 1.386 . S
C2153 C2157 1.393 . S
C2154 H2146 0.950 . S
C2154 C2152 1.391 . S
C2154 C2155 1.400 . S
C2155 C2154 1.400 . S
C2155 C2156 1.398 . S
C2155 C2161 1.491 . S
C2156 H2147 0.950 . S
C2156 C2155 1.398 . S
C2156 C2157 1.391 . S
C2157 H2145 0.950 . S
C2157 C2153 1.393 . S
C2157 C2156 1.391 . S
C2158 H2148 0.950 . S
C2158 C2159 1.386 . S
C2158 C2160 1.391 . S
C2159 C2158 1.386 . S
C2159 C2163 1.393 . S
C2160 H2149 0.950 . S
C2160 C2158 1.391 . S
C2160 C2161 1.400 . S
C2161 C2155 1.491 . S
C2161 C2160 1.400 . S
C2161 C2162 1.398 . S
C2162 H2150 0.950 . S
C2162 C2161 1.398 . S
C2162 C2163 1.391 . S
C2163 H2151 0.950 . S
C2163 C2159 1.393 . S
C2163 C2162 1.391 . S
H2164 C2172 0.950 . S
H2165 C2177 0.950 . S
H2166 C2174 0.950 . S
H2167 C2176 0.950 . S
H2168 C2178 0.950 . S
H2169 C2180 0.950 . S
H2170 C2182 0.950 . S
H2171 C2183 0.950 . S
C2172 H2164 0.950 . S
C2172 C2173 1.386 . S
C2172 C2174 1.391 . S
C2173 C2172 1.386 . S
C2173 C2177 1.393 . S
C2174 H2166 0.950 . S
C2174 C2172 1.391 . S
C2174 C2175 1.400 . S
C2175 C2174 1.400 . S
C2175 C2176 1.398 . S
C2175 C2181 1.491 . S
C2176 H2167 0.950 . S
C2176 C2175 1.398 . S
C2176 C2177 1.391 . S
C2177 H2165 0.950 . S
C2177 C2173 1.393 . S
C2177 C2176 1.391 . S
C2178 H2168 0.950 . S
C2178 C2179 1.386 . S
C2178 C2180 1.391 . S
C2179 C2178 1.386 . S
C2179 C2183 1.393 . S
C2180 H2169 0.950 . S
C2180 C2178 1.391 . S
C2180 C2181 1.400 . S
C2181 C2175 1.491 . S
C2181 C2180 1.400 . S
C2181 C2182 1.398 . S
C2182 H2170 0.950 . S
C2182 C2181 1.398 . S
C2182 C2183 1.391 . S
C2183 H2171 0.950 . S
C2183 C2179 1.393 . S
C2183 C2182 1.391 . S
H2184 C2192 0.950 . S
H2185 C2197 0.950 . S
H2186 C2194 0.950 . S
H2187 C2196 0.950 . S
H2188 C2198 0.950 . S
H2189 C2200 0.950 . S
H2190 C2202 0.950 . S
H2191 C2203 0.950 . S
C2192 H2184 0.950 . S
C2192 C2193 1.386 . S
C2192 C2194 1.391 . S
C2193 C2192 1.386 . S
C2193 C2197 1.393 . S
C2194 H2186 0.950 . S
C2194 C2192 1.391 . S
C2194 C2195 1.400 . S
C2195 C2194 1.400 . S
C2195 C2196 1.398 . S
C2195 C2201 1.491 . S
C2196 H2187 0.950 . S
C2196 C2195 1.398 . S
C2196 C2197 1.391 . S
C2197 H2185 0.950 . S
C2197 C2193 1.393 . S
C2197 C2196 1.391 . S
C2198 H2188 0.950 . S
C2198 C2199 1.386 . S
C2198 C2200 1.391 . S
C2199 C2198 1.386 . S
C2199 C2203 1.393 . S
C2200 H2189 0.950 . S
C2200 C2198 1.391 . S
C2200 C2201 1.400 . S
C2201 C2195 1.491 . S
C2201 C2200 1.400 . S
C2201 C2202 1.398 . S
C2202 H2190 0.950 . S
C2202 C2201 1.398 . S
C2202 C2203 1.391 . S
C2203 H2191 0.950 . S
C2203 C2199 1.393 . S
C2203 C2202 1.391 . S
H2204 C2212 0.950 . S
H2205 C2217 0.950 . S
H2206 C2214 0.950 . S
H2207 C2216 0.950 . S
H2208 C2218 0.950 . S
H2209 C2220 0.950 . S
H2210 C2222 0.950 . S
H2211 C2223 0.950 . S
C2212 H2204 0.950 . S
C2212 C2213 1.386 . S
C2212 C2214 1.391 . S
C2213 C2212 1.386 . S
C2213 C2217 1.393 . S
C2214 H2206 0.950 . S
C2214 C2212 1.391 . S
C2214 C2215 1.400 . S
C2215 C2214 1.400 . S
C2215 C2216 1.398 . S
C2215 C2221 1.491 . S
C2216 H2207 0.950 . S
C2216 C2215 1.398 . S
C2216 C2217 1.391 . S
C2217 H2205 0.950 . S
C2217 C2213 1.393 . S
C2217 C2216 1.391 . S
C2218 H2208 0.950 . S
C2218 C2219 1.386 . S
C2218 C2220 1.391 . S
C2219 C2218 1.386 . S
C2219 C2223 1.393 . S
C2220 H2209 0.950 . S
C2220 C2218 1.391 . S
C2220 C2221 1.400 1_556 S
C2221 C2215 1.491 . S
C2221 C2220 1.400 1_554 S
C2221 C2222 1.398 . S
C2222 H2210 0.950 . S
C2222 C2221 1.398 . S
C2222 C2223 1.391 1_554 S
C2223 H2211 0.950 . S
C2223 C2219 1.393 . S
C2223 C2222 1.391 1_556 S
H2224 C2232 0.950 . S
H2225 C2237 0.950 . S
H2226 C2234 0.950 . S
H2227 C2236 0.950 . S
H2228 C2238 0.950 . S
H2229 C2240 0.950 . S
H2230 C2242 0.950 . S
H2231 C2243 0.950 . S
C2232 H2224 0.950 . S
C2232 C2233 1.386 . S
C2232 C2234 1.391 . S
C2233 C2232 1.386 . S
C2233 C2237 1.393 . S
C2234 H2226 0.950 . S
C2234 C2232 1.391 . S
C2234 C2235 1.400 . S
C2235 C2234 1.400 . S
C2235 C2236 1.398 . S
C2235 C2241 1.491 . S
C2236 H2227 0.950 . S
C2236 C2235 1.398 . S
C2236 C2237 1.391 . S
C2237 H2225 0.950 . S
C2237 C2233 1.393 . S
C2237 C2236 1.391 . S
C2238 H2228 0.950 . S
C2238 C2239 1.386 . S
C2238 C2240 1.391 . S
C2239 C2238 1.386 . S
C2239 C2243 1.393 . S
C2240 H2229 0.950 . S
C2240 C2238 1.391 . S
C2240 C2241 1.400 . S
C2241 C2235 1.491 . S
C2241 C2240 1.400 . S
C2241 C2242 1.398 . S
C2242 H2230 0.950 . S
C2242 C2241 1.398 . S
C2242 C2243 1.391 . S
C2243 H2231 0.950 . S
C2243 C2239 1.393 . S
C2243 C2242 1.391 . S
H2244 C2252 0.950 . S
H2245 C2257 0.950 . S
H2246 C2254 0.950 . S
H2247 C2256 0.950 . S
H2248 C2258 0.950 . S
H2249 C2260 0.950 . S
H2250 C2262 0.950 . S
H2251 C2263 0.950 . S
C2252 H2244 0.950 . S
C2252 C2253 1.386 . S
C2252 C2254 1.391 . S
C2253 C2252 1.386 . S
C2253 C2257 1.393 . S
C2254 H2246 0.950 . S
C2254 C2252 1.391 . S
C2254 C2255 1.400 . S
C2255 C2254 1.400 . S
C2255 C2256 1.398 . S
C2255 C2261 1.491 . S
C2256 H2247 0.950 . S
C2256 C2255 1.398 . S
C2256 C2257 1.391 . S
C2257 H2245 0.950 . S
C2257 C2253 1.393 . S
C2257 C2256 1.391 . S
C2258 H2248 0.950 . S
C2258 C2259 1.386 . S
C2258 C2260 1.391 . S
C2259 C2258 1.386 . S
C2259 C2263 1.393 . S
C2260 H2249 0.950 . S
C2260 C2258 1.391 . S
C2260 C2261 1.400 . S
C2261 C2255 1.491 . S
C2261 C2260 1.400 . S
C2261 C2262 1.398 . S
C2262 H2250 0.950 . S
C2262 C2261 1.398 . S
C2262 C2263 1.391 . S
C2263 H2251 0.950 . S
C2263 C2259 1.393 . S
C2263 C2262 1.391 . S
H2264 C2272 0.950 . S
H2265 C2277 0.950 . S
H2266 C2274 0.950 . S
H2267 C2276 0.950 . S
H2268 C2278 0.950 . S
H2269 C2280 0.950 . S
H2270 C2282 0.950 . S
H2271 C2283 0.950 . S
C2272 H2264 0.950 . S
C2272 C2273 1.386 . S
C2272 C2274 1.391 . S
C2273 C2272 1.386 . S
C2273 C2277 1.393 . S
C2274 H2266 0.950 . S
C2274 C2272 1.391 . S
C2274 C2275 1.400 . S
C2275 C2274 1.400 . S
C2275 C2276 1.398 . S
C2275 C2281 1.491 . S
C2276 H2267 0.950 . S
C2276 C2275 1.398 . S
C2276 C2277 1.391 . S
C2277 H2265 0.950 . S
C2277 C2273 1.393 . S
C2277 C2276 1.391 . S
C2278 H2268 0.950 . S
C2278 C2279 1.386 . S
C2278 C2280 1.391 . S
C2279 C2278 1.386 . S
C2279 C2283 1.393 . S
C2280 H2269 0.950 . S
C2280 C2278 1.391 . S
C2280 C2281 1.400 . S
C2281 C2275 1.491 . S
C2281 C2280 1.400 . S
C2281 C2282 1.398 . S
C2282 H2270 0.950 . S
C2282 C2281 1.398 . S
C2282 C2283 1.391 . S
C2283 H2271 0.950 . S
C2283 C2279 1.393 . S
C2283 C2282 1.391 . S
H2284 C2292 0.950 . S
H2285 C2297 0.950 . S
H2286 C2294 0.950 . S
H2287 C2296 0.950 . S
H2288 C2298 0.950 . S
H2289 C2300 0.950 . S
H2290 C2302 0.950 . S
H2291 C2303 0.950 . S
C2292 H2284 0.950 . S
C2292 C2293 1.386 . S
C2292 C2294 1.391 . S
C2293 C2292 1.386 . S
C2293 C2297 1.393 . S
C2294 H2286 0.950 . S
C2294 C2292 1.391 . S
C2294 C2295 1.400 . S
C2295 C2294 1.400 . S
C2295 C2296 1.398 . S
C2295 C2301 1.491 . S
C2296 H2287 0.950 . S
C2296 C2295 1.398 . S
C2296 C2297 1.391 . S
C2297 H2285 0.950 . S
C2297 C2293 1.393 . S
C2297 C2296 1.391 . S
C2298 H2288 0.950 . S
C2298 C2299 1.386 . S
C2298 C2300 1.391 . S
C2299 C2298 1.386 . S
C2299 C2303 1.393 . S
C2300 H2289 0.950 . S
C2300 C2298 1.391 . S
C2300 C2301 1.400 . S
C2301 C2295 1.491 . S
C2301 C2300 1.400 . S
C2301 C2302 1.398 . S
C2302 H2290 0.950 . S
C2302 C2301 1.398 . S
C2302 C2303 1.391 . S
C2303 H2291 0.950 . S
C2303 C2299 1.393 . S
C2303 C2302 1.391 . S
H2304 C2312 0.950 . S
H2305 C2317 0.950 . S
H2306 C2314 0.950 . S
H2307 C2316 0.950 . S
H2308 C2318 0.950 . S
H2309 C2320 0.950 . S
H2310 C2322 0.950 . S
H2311 C2323 0.950 . S
C2312 H2304 0.950 . S
C2312 C2313 1.386 . S
C2312 C2314 1.391 . S
C2313 C2312 1.386 . S
C2313 C2317 1.393 . S
C2314 H2306 0.950 . S
C2314 C2312 1.391 . S
C2314 C2315 1.400 . S
C2315 C2314 1.400 . S
C2315 C2316 1.398 . S
C2315 C2321 1.491 . S
C2316 H2307 0.950 . S
C2316 C2315 1.398 . S
C2316 C2317 1.391 . S
C2317 H2305 0.950 . S
C2317 C2313 1.393 . S
C2317 C2316 1.391 . S
C2318 H2308 0.950 . S
C2318 C2319 1.386 . S
C2318 C2320 1.391 . S
C2319 C2318 1.386 . S
C2319 C2323 1.393 . S
C2320 H2309 0.950 . S
C2320 C2318 1.391 . S
C2320 C2321 1.400 . S
C2321 C2315 1.491 . S
C2321 C2320 1.400 . S
C2321 C2322 1.398 . S
C2322 H2310 0.950 . S
C2322 C2321 1.398 . S
C2322 C2323 1.391 . S
C2323 H2311 0.950 . S
C2323 C2319 1.393 . S
C2323 C2322 1.391 . S
H2324 C2332 0.950 . S
H2325 C2337 0.950 . S
H2326 C2334 0.950 . S
H2327 C2336 0.950 . S
H2328 C2338 0.950 . S
H2329 C2340 0.950 . S
H2330 C2342 0.950 . S
H2331 C2343 0.950 . S
C2332 H2324 0.950 . S
C2332 C2333 1.386 . S
C2332 C2334 1.391 . S
C2333 C2332 1.386 . S
C2333 C2337 1.393 . S
C2334 H2326 0.950 . S
C2334 C2332 1.391 . S
C2334 C2335 1.400 . S
C2335 C2334 1.400 . S
C2335 C2336 1.398 . S
C2335 C2341 1.491 . S
C2336 H2327 0.950 . S
C2336 C2335 1.398 . S
C2336 C2337 1.391 . S
C2337 H2325 0.950 . S
C2337 C2333 1.393 . S
C2337 C2336 1.391 . S
C2338 H2328 0.950 . S
C2338 C2339 1.386 . S
C2338 C2340 1.391 . S
C2339 C2338 1.386 . S
C2339 C2343 1.393 . S
C2340 H2329 0.950 . S
C2340 C2338 1.391 . S
C2340 C2341 1.400 . S
C2341 C2335 1.491 . S
C2341 C2340 1.400 . S
C2341 C2342 1.398 . S
C2342 H2330 0.950 . S
C2342 C2341 1.398 . S
C2342 C2343 1.391 . S
C2343 H2331 0.950 . S
C2343 C2339 1.393 . S
C2343 C2342 1.391 . S
H2344 C2352 0.950 . S
H2345 C2357 0.950 . S
H2346 C2354 0.950 . S
H2347 C2356 0.950 . S
H2348 C2358 0.950 . S
H2349 C2360 0.950 . S
H2350 C2362 0.950 . S
H2351 C2363 0.950 . S
C2352 H2344 0.950 . S
C2352 C2353 1.386 . S
C2352 C2354 1.391 . S
C2353 C2352 1.386 . S
C2353 C2357 1.393 . S
C2354 H2346 0.950 . S
C2354 C2352 1.391 . S
C2354 C2355 1.400 . S
C2355 C2354 1.400 . S
C2355 C2356 1.398 . S
C2355 C2361 1.491 . S
C2356 H2347 0.950 . S
C2356 C2355 1.398 . S
C2356 C2357 1.391 . S
C2357 H2345 0.950 . S
C2357 C2353 1.393 . S
C2357 C2356 1.391 . S
C2358 H2348 0.950 . S
C2358 C2359 1.386 . S
C2358 C2360 1.391 . S
C2359 C2358 1.386 . S
C2359 C2363 1.393 . S
C2360 H2349 0.950 . S
C2360 C2358 1.391 . S
C2360 C2361 1.400 . S
C2361 C2355 1.491 . S
C2361 C2360 1.400 . S
C2361 C2362 1.398 . S
C2362 H2350 0.950 . S
C2362 C2361 1.398 . S
C2362 C2363 1.391 . S
C2363 H2351 0.950 . S
C2363 C2359 1.393 . S
C2363 C2362 1.391 . S
H2364 C2372 0.950 . S
H2365 C2377 0.950 . S
H2366 C2374 0.950 . S
H2367 C2376 0.950 . S
H2368 C2378 0.950 . S
H2369 C2380 0.950 . S
H2370 C2382 0.950 . S
H2371 C2383 0.950 . S
C2372 H2364 0.950 . S
C2372 C2373 1.386 . S
C2372 C2374 1.391 . S
C2373 C2372 1.386 . S
C2373 C2377 1.393 . S
C2374 H2366 0.950 . S
C2374 C2372 1.391 . S
C2374 C2375 1.400 . S
C2375 C2374 1.400 . S
C2375 C2376 1.398 . S
C2375 C2381 1.491 . S
C2376 H2367 0.950 . S
C2376 C2375 1.398 . S
C2376 C2377 1.391 . S
C2377 H2365 0.950 . S
C2377 C2373 1.393 . S
C2377 C2376 1.391 . S
C2378 H2368 0.950 . S
C2378 C2379 1.386 . S
C2378 C2380 1.391 . S
C2379 C2378 1.386 . S
C2379 C2383 1.393 . S
C2380 H2369 0.950 . S
C2380 C2378 1.391 . S
C2380 C2381 1.400 . S
C2381 C2375 1.491 . S
C2381 C2380 1.400 . S
C2381 C2382 1.398 . S
C2382 H2370 0.950 . S
C2382 C2381 1.398 . S
C2382 C2383 1.391 . S
C2383 H2371 0.950 . S
C2383 C2379 1.393 . S
C2383 C2382 1.391 . S
H2384 C2392 0.950 . S
H2385 C2397 0.950 . S
H2386 C2394 0.950 . S
H2387 C2396 0.950 . S
H2388 C2398 0.950 . S
H2389 C2400 0.950 . S
H2390 C2402 0.950 . S
H2391 C2403 0.950 . S
C2392 H2384 0.950 . S
C2392 C2393 1.386 . S
C2392 C2394 1.391 . S
C2393 C2392 1.386 . S
C2393 C2397 1.393 . S
C2394 H2386 0.950 . S
C2394 C2392 1.391 . S
C2394 C2395 1.400 . S
C2395 C2394 1.400 . S
C2395 C2396 1.398 . S
C2395 C2401 1.491 . S
C2396 H2387 0.950 . S
C2396 C2395 1.398 . S
C2396 C2397 1.391 . S
C2397 H2385 0.950 . S
C2397 C2393 1.393 . S
C2397 C2396 1.391 . S
C2398 H2388 0.950 . S
C2398 C2399 1.386 . S
C2398 C2400 1.391 . S
C2399 C2398 1.386 . S
C2399 C2403 1.393 . S
C2400 H2389 0.950 . S
C2400 C2398 1.391 . S
C2400 C2401 1.400 . S
C2401 C2395 1.491 . S
C2401 C2400 1.400 . S
C2401 C2402 1.398 . S
C2402 H2390 0.950 . S
C2402 C2401 1.398 . S
C2402 C2403 1.391 . S
C2403 H2391 0.950 . S
C2403 C2399 1.393 . S
C2403 C2402 1.391 . S
H2404 C2412 0.950 . S
H2405 C2417 0.950 . S
H2406 C2414 0.950 . S
H2407 C2416 0.950 . S
H2408 C2418 0.950 . S
H2409 C2420 0.950 . S
H2410 C2422 0.950 . S
H2411 C2423 0.950 . S
C2412 H2404 0.950 . S
C2412 C2413 1.386 . S
C2412 C2414 1.391 . S
C2413 C2412 1.386 . S
C2413 C2417 1.393 . S
C2414 H2406 0.950 . S
C2414 C2412 1.391 . S
C2414 C2415 1.400 . S
C2415 C2414 1.400 . S
C2415 C2416 1.398 . S
C2415 C2421 1.491 . S
C2416 H2407 0.950 . S
C2416 C2415 1.398 . S
C2416 C2417 1.391 . S
C2417 H2405 0.950 . S
C2417 C2413 1.393 . S
C2417 C2416 1.391 . S
C2418 H2408 0.950 . S
C2418 C2419 1.386 . S
C2418 C2420 1.391 . S
C2419 C2418 1.386 . S
C2419 C2423 1.393 . S
C2420 H2409 0.950 . S
C2420 C2418 1.391 . S
C2420 C2421 1.400 . S
C2421 C2415 1.491 . S
C2421 C2420 1.400 . S
C2421 C2422 1.398 . S
C2422 H2410 0.950 . S
C2422 C2421 1.398 . S
C2422 C2423 1.391 . S
C2423 H2411 0.950 . S
C2423 C2419 1.393 . S
C2423 C2422 1.391 . S
H2424 C2432 0.950 . S
H2425 C2437 0.950 . S
H2426 C2434 0.950 . S
H2427 C2436 0.950 . S
H2428 C2438 0.950 . S
H2429 C2440 0.950 . S
H2430 C2442 0.950 . S
H2431 C2443 0.950 . S
C2432 H2424 0.950 . S
C2432 C2433 1.386 . S
C2432 C2434 1.391 . S
C2433 C2432 1.386 . S
C2433 C2437 1.393 . S
C2434 H2426 0.950 . S
C2434 C2432 1.391 . S
C2434 C2435 1.400 . S
C2435 C2434 1.400 . S
C2435 C2436 1.398 . S
C2435 C2441 1.491 . S
C2436 H2427 0.950 . S
C2436 C2435 1.398 . S
C2436 C2437 1.391 . S
C2437 H2425 0.950 . S
C2437 C2433 1.393 . S
C2437 C2436 1.391 . S
C2438 H2428 0.950 . S
C2438 C2439 1.386 . S
C2438 C2440 1.391 . S
C2439 C2438 1.386 . S
C2439 C2443 1.393 . S
C2440 H2429 0.950 . S
C2440 C2438 1.391 . S
C2440 C2441 1.400 . S
C2441 C2435 1.491 . S
C2441 C2440 1.400 . S
C2441 C2442 1.398 . S
C2442 H2430 0.950 . S
C2442 C2441 1.398 . S
C2442 C2443 1.391 . S
C2443 H2431 0.950 . S
C2443 C2439 1.393 . S
C2443 C2442 1.391 . S
H2444 C2452 0.950 . S
H2445 C2457 0.950 . S
H2446 C2454 0.950 . S
H2447 C2456 0.950 . S
H2448 C2458 0.950 . S
H2449 C2460 0.950 . S
H2450 C2462 0.950 . S
H2451 C2463 0.950 . S
C2452 H2444 0.950 . S
C2452 C2453 1.386 . S
C2452 C2454 1.391 . S
C2453 C2452 1.386 . S
C2453 C2457 1.393 . S
C2454 H2446 0.950 . S
C2454 C2452 1.391 . S
C2454 C2455 1.400 . S
C2455 C2454 1.400 . S
C2455 C2456 1.398 . S
C2455 C2461 1.491 . S
C2456 H2447 0.950 . S
C2456 C2455 1.398 . S
C2456 C2457 1.391 . S
C2457 H2445 0.950 . S
C2457 C2453 1.393 . S
C2457 C2456 1.391 . S
C2458 H2448 0.950 . S
C2458 C2459 1.386 . S
C2458 C2460 1.391 . S
C2459 C2458 1.386 . S
C2459 C2463 1.393 . S
C2460 H2449 0.950 . S
C2460 C2458 1.391 . S
C2460 C2461 1.400 . S
C2461 C2455 1.491 . S
C2461 C2460 1.400 . S
C2461 C2462 1.398 . S
C2462 H2450 0.950 . S
C2462 C2461 1.398 . S
C2462 C2463 1.391 . S
C2463 H2451 0.950 . S
C2463 C2459 1.393 . S
C2463 C2462 1.391 . S
H2464 C2472 0.950 . S
H2465 C2477 0.950 . S
H2466 C2474 0.950 . S
H2467 C2476 0.950 . S
H2468 C2478 0.950 . S
H2469 C2480 0.950 . S
H2470 C2482 0.950 . S
H2471 C2483 0.950 . S
C2472 H2464 0.950 . S
C2472 C2473 1.386 . S
C2472 C2474 1.391 . S
C2473 C2472 1.386 . S
C2473 C2477 1.393 . S
C2474 H2466 0.950 . S
C2474 C2472 1.391 . S
C2474 C2475 1.400 . S
C2475 C2474 1.400 . S
C2475 C2476 1.398 . S
C2475 C2481 1.491 . S
C2476 H2467 0.950 . S
C2476 C2475 1.398 . S
C2476 C2477 1.391 . S
C2477 H2465 0.950 . S
C2477 C2473 1.393 . S
C2477 C2476 1.391 . S
C2478 H2468 0.950 . S
C2478 C2479 1.386 . S
C2478 C2480 1.391 . S
C2479 C2478 1.386 . S
C2479 C2483 1.393 . S
C2480 H2469 0.950 . S
C2480 C2478 1.391 . S
C2480 C2481 1.400 . S
C2481 C2475 1.491 . S
C2481 C2480 1.400 . S
C2481 C2482 1.398 . S
C2482 H2470 0.950 . S
C2482 C2481 1.398 . S
C2482 C2483 1.391 . S
C2483 H2471 0.950 . S
C2483 C2479 1.393 . S
C2483 C2482 1.391 . S
H2484 C2492 0.950 . S
H2485 C2497 0.950 . S
H2486 C2494 0.950 . S
H2487 C2496 0.950 . S
H2488 C2498 0.950 . S
H2489 C2500 0.950 . S
H2490 C2502 0.950 . S
H2491 C2503 0.950 . S
C2492 H2484 0.950 . S
C2492 C2493 1.386 . S
C2492 C2494 1.391 . S
C2493 C2492 1.386 . S
C2493 C2497 1.393 . S
C2494 H2486 0.950 . S
C2494 C2492 1.391 . S
C2494 C2495 1.400 . S
C2495 C2494 1.400 . S
C2495 C2496 1.398 . S
C2495 C2501 1.491 . S
C2496 H2487 0.950 . S
C2496 C2495 1.398 . S
C2496 C2497 1.391 . S
C2497 H2485 0.950 . S
C2497 C2493 1.393 . S
C2497 C2496 1.391 . S
C2498 H2488 0.950 . S
C2498 C2499 1.386 . S
C2498 C2500 1.391 . S
C2499 C2498 1.386 . S
C2499 C2503 1.393 . S
C2500 H2489 0.950 . S
C2500 C2498 1.391 . S
C2500 C2501 1.400 . S
C2501 C2495 1.491 . S
C2501 C2500 1.400 . S
C2501 C2502 1.398 . S
C2502 H2490 0.950 . S
C2502 C2501 1.398 . S
C2502 C2503 1.391 . S
C2503 H2491 0.950 . S
C2503 C2499 1.393 . S
C2503 C2502 1.391 . S
H2504 C2512 0.950 . S
H2505 C2517 0.950 . S
H2506 C2514 0.950 . S
H2507 C2516 0.950 . S
H2508 C2518 0.950 . S
H2509 C2520 0.950 . S
H2510 C2522 0.950 . S
H2511 C2523 0.950 . S
C2512 H2504 0.950 . S
C2512 C2513 1.386 . S
C2512 C2514 1.391 . S
C2513 C2512 1.386 . S
C2513 C2517 1.393 . S
C2514 H2506 0.950 . S
C2514 C2512 1.391 . S
C2514 C2515 1.400 . S
C2515 C2514 1.400 . S
C2515 C2516 1.398 . S
C2515 C2521 1.491 . S
C2516 H2507 0.950 . S
C2516 C2515 1.398 . S
C2516 C2517 1.391 . S
C2517 H2505 0.950 . S
C2517 C2513 1.393 . S
C2517 C2516 1.391 . S
C2518 H2508 0.950 . S
C2518 C2519 1.386 . S
C2518 C2520 1.391 . S
C2519 C2518 1.386 . S
C2519 C2523 1.393 . S
C2520 H2509 0.950 . S
C2520 C2518 1.391 . S
C2520 C2521 1.400 . S
C2521 C2515 1.491 . S
C2521 C2520 1.400 . S
C2521 C2522 1.398 . S
C2522 H2510 0.950 . S
C2522 C2521 1.398 . S
C2522 C2523 1.391 . S
C2523 H2511 0.950 . S
C2523 C2519 1.393 . S
C2523 C2522 1.391 . S
H2524 C2532 0.950 . S
H2525 C2537 0.950 1_554 S
H2526 C2534 0.950 . S
H2527 C2536 0.950 . S
H2528 C2538 0.950 . S
H2529 C2540 0.950 . S
H2530 C2542 0.950 . S
H2531 C2543 0.950 . S
C2532 H2524 0.950 . S
C2532 C2533 1.386 . S
C2532 C2534 1.391 . S
C2533 C2532 1.386 . S
C2533 C2537 1.393 . S
C2534 H2526 0.950 . S
C2534 C2532 1.391 . S
C2534 C2535 1.400 . S
C2535 C2534 1.400 . S
C2535 C2536 1.398 . S
C2535 C2541 1.491 . S
C2536 H2527 0.950 . S
C2536 C2535 1.398 . S
C2536 C2537 1.391 . S
C2537 H2525 0.950 1_556 S
C2537 C2533 1.393 . S
C2537 C2536 1.391 . S
C2538 H2528 0.950 . S
C2538 C2539 1.386 . S
C2538 C2540 1.391 . S
C2539 C2538 1.386 . S
C2539 C2543 1.393 . S
C2540 H2529 0.950 . S
C2540 C2538 1.391 . S
C2540 C2541 1.400 . S
C2541 C2535 1.491 . S
C2541 C2540 1.400 . S
C2541 C2542 1.398 . S
C2542 H2530 0.950 . S
C2542 C2541 1.398 . S
C2542 C2543 1.391 . S
C2543 H2531 0.950 . S
C2543 C2539 1.393 . S
C2543 C2542 1.391 . S
H2544 C2552 0.950 . S
H2545 C2557 0.950 . S
H2546 C2554 0.950 . S
H2547 C2556 0.950 . S
H2548 C2558 0.950 . S
H2549 C2560 0.950 . S
H2550 C2562 0.950 . S
H2551 C2563 0.950 . S
C2552 H2544 0.950 . S
C2552 C2553 1.386 . S
C2552 C2554 1.391 . S
C2553 C2552 1.386 . S
C2553 C2557 1.393 . S
C2554 H2546 0.950 . S
C2554 C2552 1.391 . S
C2554 C2555 1.400 . S
C2555 C2554 1.400 . S
C2555 C2556 1.398 . S
C2555 C2561 1.491 . S
C2556 H2547 0.950 . S
C2556 C2555 1.398 . S
C2556 C2557 1.391 . S
C2557 H2545 0.950 . S
C2557 C2553 1.393 . S
C2557 C2556 1.391 . S
C2558 H2548 0.950 . S
C2558 C2559 1.386 . S
C2558 C2560 1.391 . S
C2559 C2558 1.386 . S
C2559 C2563 1.393 . S
C2560 H2549 0.950 . S
C2560 C2558 1.391 . S
C2560 C2561 1.400 . S
C2561 C2555 1.491 . S
C2561 C2560 1.400 . S
C2561 C2562 1.398 . S
C2562 H2550 0.950 . S
C2562 C2561 1.398 . S
C2562 C2563 1.391 . S
C2563 H2551 0.950 . S
C2563 C2559 1.393 . S
C2563 C2562 1.391 . S
H2564 C2572 0.950 . S
H2565 C2577 0.950 . S
H2566 C2574 0.950 . S
H2567 C2576 0.950 . S
H2568 C2578 0.950 . S
H2569 C2580 0.950 . S
H2570 C2582 0.950 . S
H2571 C2583 0.950 . S
C2572 H2564 0.950 . S
C2572 C2573 1.386 . S
C2572 C2574 1.391 . S
C2573 C2572 1.386 . S
C2573 C2577 1.393 . S
C2574 H2566 0.950 . S
C2574 C2572 1.391 . S
C2574 C2575 1.400 . S
C2575 C2574 1.400 . S
C2575 C2576 1.398 . S
C2575 C2581 1.491 . S
C2576 H2567 0.950 . S
C2576 C2575 1.398 . S
C2576 C2577 1.391 . S
C2577 H2565 0.950 . S
C2577 C2573 1.393 . S
C2577 C2576 1.391 . S
C2578 H2568 0.950 . S
C2578 C2579 1.386 . S
C2578 C2580 1.391 . S
C2579 C2578 1.386 . S
C2579 C2583 1.393 . S
C2580 H2569 0.950 . S
C2580 C2578 1.391 . S
C2580 C2581 1.400 1_655 S
C2581 C2575 1.491 . S
C2581 C2580 1.400 1_455 S
C2581 C2582 1.398 . S
C2582 H2570 0.950 . S
C2582 C2581 1.398 . S
C2582 C2583 1.391 1_455 S
C2583 H2571 0.950 . S
C2583 C2579 1.393 . S
C2583 C2582 1.391 1_655 S
C679 C330 0.921 . S
C673 C0 0.933 . S
C693 C18 1.082 . S
C699 C342 1.136 . S
C719 C377 1.197 . S
C713 C34 1.203 . S
C739 C386 1.073 . S
C733 C49 1.075 . S
C759 C341 1.082 . S
C753 C62 1.120 . S
C773 C73 1.157 . S
C779 C366 1.152 . S
C799 C385 1.154 . S
C793 C83 1.112 . S
C813 C91 0.967 . S
C819 C327 0.969 . S
C833 C109 0.980 . S
C839 C320 0.978 . S
C859 C344 1.071 . S
C853 C125 1.071 . S
C879 C363 1.176 . S
C873 C130 1.186 . S
C899 C388 1.114 . S
C893 C153 1.128 . S
C919 C349 1.136 . S
C913 C114 1.129 . S
C939 C374 1.136 . S
C933 C117 1.126 . S
C953 C138 1.092 . S
C959 C393 1.084 . S
C979 C333 0.974 . S
C973 C148 0.986 . S
C993 C161 0.951 . S
C999 C322 1.011 . S
C1013 C169 1.166 . S
C1019 C421 1.154 . S
C1039 C437 1.065 . S
C1033 C190 1.076 . S
C1059 C451 1.076 . S
C1053 C205 1.105 . S
C1073 C213 1.012 . S
C1079 C319 1.006 . S
C1093 C229 1.121 . S
C1099 C371 1.113 . S
C1119 C454 1.157 . S
C1113 C182 1.149 . S
C1139 C418 1.125 . S
C1133 C244 1.121 . S
C1159 C474 1.144 . S
C1153 C21 1.168 . S
C1179 C498 1.082 . S
C1173 C5 1.023 . S
C1193 C39 1.001 . S
C1199 C531 0.961 . S
C1213 C36 1.135 . S
C1219 C539 1.123 . S
C1233 C101 1.118 . S
C1239 C509 1.117 . S
C1253 C78 0.975 . S
C1259 C520 0.990 . S
C1279 C540 1.093 . S
C1273 C70 1.046 . S
C1293 C60 1.216 . S
C1299 C473 1.192 . S
C1313 C257 1.104 . S
C1319 C476 1.109 . S
C1339 C506 1.073 . S
C1333 C203 1.081 . S
C1359 C517 1.103 . S
C1353 C208 1.095 . S
C1379 C547 1.045 . S
C1373 C174 1.057 . S
C1399 C495 1.069 . S
C1393 C252 1.027 . S
C1419 C528 1.083 . S
C1413 C195 1.077 . S
C1439 C542 1.104 . S
C1433 C216 1.098 . S
C1453 C179 1.169 . S
C1459 C481 1.141 . S
C1479 C484 1.105 . S
C1473 C270 1.088 . S
C1493 C143 1.095 . S
C1499 C572 1.101 . S
C1519 C584 1.104 . S
C1513 C281 1.097 . S
C1533 C122 1.027 . S
C1539 C605 1.077 . S
C1559 C487 1.131 . S
C1553 C140 1.149 . S
C1579 C525 1.068 . S
C1573 C294 1.110 . S
C1599 C608 1.060 . S
C1593 C273 1.061 . S
C1613 C304 1.016 . S
C1619 C575 1.061 . S
C1633 C26 0.937 . S
C1639 C630 0.950 . S
C1653 C44 1.104 . S
C1659 C408 1.132 . S
C1679 C432 1.144 . S
C1673 C8 1.137 . S
C1693 C23 1.086 . S
C1699 C462 1.079 . S
C1713 C88 1.090 . S
C1719 C407 1.095 . S
C1733 C99 1.195 . S
C1739 C443 1.190 . S
C1759 C459 1.147 . S
C1753 C57 1.148 . S
C1779 C641 0.961 . S
C1773 C65 0.971 . S
C1799 C638 0.983 . S
C1793 C278 0.936 . S
C1819 C410 1.064 . S
C1813 C268 1.078 . S
C1839 C440 1.152 . S
C1833 C299 1.160 . S
C1853 C296 1.155 . S
C1859 C452 1.140 . S
C1879 C415 1.124 . S
C1873 C283 1.122 . S
C1893 C260 1.149 . S
C1899 C429 1.139 . S
C1919 C465 1.056 . S
C1913 C307 1.082 . S
C1933 C291 0.992 . S
C1939 C627 0.983 . S
C1959 C628 1.016 . S
C1953 C200 0.992 . S
C1973 C221 1.169 . S
C1979 C355 1.154 . S
C1999 C364 1.062 . S
C1993 C255 1.055 . S
C2013 C166 1.083 . S
C2019 C399 1.093 . S
C2039 C635 1.007 . S
C2033 C239 1.004 . S
C2059 C430 1.093 . S
C2053 C177 1.086 . S
C2079 C396 1.157 . S
C2073 C247 1.155 . S
C2099 C352 1.100 . S
C2093 C218 1.113 . S
C2113 C47 1.207 . S
C2119 C649 1.163 . S
C2133 C31 1.085 . S
C2139 C561 1.107 . S
C2153 C13 0.983 . S
C2159 C597 0.992 . S
C2179 C616 1.088 . S
C2173 C10 1.077 . S
C2199 C562 1.077 . S
C2193 C75 1.075 . S
C2213 C52 1.000 . S
C2219 C586 0.970 . S
C2239 C613 1.118 . S
C2233 C96 1.108 . S
C2253 C86 1.193 . S
C2259 C650 1.191 . S
C2279 C657 1.129 . S
C2273 C192 1.146 . S
C2293 C164 1.102 . S
C2299 C569 1.061 . S
C2313 C234 1.110 . S
C2319 C583 1.083 . S
C2339 C606 1.044 . S
C2333 C226 0.991 . S
C2359 C564 1.035 . S
C2353 C187 1.039 . S
C2373 C156 1.093 . S
C2379 C594 1.068 . S
C2399 C619 1.097 . S
C2393 C242 1.125 . S
C2419 C652 1.143 . S
C2413 C231 1.125 . S
C2439 C663 1.120 . S
C2433 C127 1.126 . S
C2459 C503 1.107 . S
C2453 C286 1.150 . S
C2473 C112 1.107 . S
C2479 C518 1.083 . S
C2493 C265 1.031 . S
C2499 C550 1.053 . S
C2519 C660 1.121 . S
C2513 C309 1.123 . S
C2539 C591 1.069 . S
C2533 C151 1.101 . S
C2559 C553 1.103 . S
C2553 C104 1.101 . S
C2579 C496 1.032 . S
C2573 C135 1.012 . S
