# Generated by pormake.
# Topology pts, (4,4)-cn, num edge types: 1
# Building blocks:
#     Node 0, Type 0, BuildingBlock: NAWXER_clean_sbu_0, # of connection points: 4
#     Node 1, Type 0, BuildingBlock: NAWXER_clean_sbu_0, # of connection points: 4
#     Node 2, Type 1, BuildingBlock: AZAVOO_clean_sbu_0, # of connection points: 4
#     Node 3, Type 1, BuildingBlock: AZAVOO_clean_sbu_0, # of connection points: 4
#     Edge 4, Type (0, 1), BuildingBlock: FUNLAD_clean_linker_1, # of connection points: 2
#     Edge 5, Type (0, 1), BuildingBlock: FUNLAD_clean_linker_1, # of connection points: 2
#     Edge 6, Type (0, 1), BuildingBlock: FUNLAD_clean_linker_1, # of connection points: 2
#     Edge 7, Type (0, 1), BuildingBlock: FUNLAD_clean_linker_1, # of connection points: 2
#     Edge 8, Type (0, 1), BuildingBlock: FUNLAD_clean_linker_1, # of connection points: 2
#     Edge 9, Type (0, 1), BuildingBlock: FUNLAD_clean_linker_1, # of connection points: 2
#     Edge 10, Type (0, 1), BuildingBlock: FUNLAD_clean_linker_1, # of connection points: 2
#     Edge 11, Type (0, 1), BuildingBlock: FUNLAD_clean_linker_1, # of connection points: 2
# Relax obj value: 0.010
# Max RMSD: 0.058
# Mean RMSD: 0.046
data_MOF--net-pts--node1-NAWXER_clean_sbu_0--node2-AZAVOO_clean_sbu_0--edge1-FUNLAD_clean_linker_1
_symmetry_space_group_name_H-M    P1
_symmetry_Int_Tables_number       1
_symmetry_cell_setting            triclinic
loop_
_symmetry_equiv_pos_as_xyz
'x, y, z'
_cell_length_a     23.771261
_cell_length_b     24.714258
_cell_length_c     39.310714
_cell_angle_alpha  89.871993
_cell_angle_beta   96.341581
_cell_angle_gamma 90.328927
loop_
_atom_site_label
_atom_site_type_symbol
_atom_site_fract_x
_atom_site_fract_y
_atom_site_fract_z
_atom_type_partial_charge
C0 C 0.48037 0.06599 0.96486 0.0
C1 C 0.63844 0.06916 0.0555 0.0
O2 O 0.49457 0.01872 0.97612 0.0
Zn3 Zn 0.55589 0.9832 0.01351 0.0
O4 O 0.50701 0.10733 0.97741 0.0
Zn5 Zn 0.55863 0.06913 0.01065 0.0
O6 O 0.6116 0.0275 0.97846 0.0
O7 O 0.60012 0.93962 0.98557 0.0
O8 O 0.61419 0.10961 0.04035 0.0
O9 O 0.62044 0.0212 0.04791 0.0
O10 O 0.50917 0.94774 0.04403 0.0
O11 O 0.50305 0.03683 0.04549 0.0
C12 C 0.62364 0.97859 0.97133 0.0
C13 C 0.48816 0.99005 0.0557 0.0
C14 C 0.10516 0.59219 0.46797 0.0
C15 C 0.09627 0.45616 0.55677 0.0
O16 O 0.05404 0.57983 0.47252 0.0
Zn17 Zn 0.01169 0.52671 0.50489 0.0
O18 O 0.14604 0.57014 0.4863 0.0
Zn19 Zn 0.1013 0.52486 0.51293 0.0
O20 O 0.06265 0.46876 0.4755 0.0
O21 O 0.96997 0.47932 0.47232 0.0
O22 O 0.14017 0.4773 0.54648 0.0
O23 O 0.047 0.47089 0.54347 0.0
O24 O 0.96968 0.57524 0.5306 0.0
O25 O 0.06215 0.5814 0.54427 0.0
C26 C 0.01256 0.45562 0.46249 0.0
C27 C 0.0118 0.59628 0.54854 0.0
Mg28 Mg 0.0975 0.0081 0.27764 0.0
O29 O 0.01024 0.00641 0.2453 0.0
O30 O 0.94517 0.99275 0.28161 0.0
Mg31 Mg 0.98888 0.98634 0.33615 0.0
C32 C 0.95882 0.00065 0.2515 0.0
C33 C 0.18915 0.01471 0.23042 0.0
O34 O 0.20759 0.97988 0.25435 0.0
O35 O 0.07885 0.09361 0.29552 0.0
O36 O 0.01638 0.07518 0.33276 0.0
O37 O 0.10662 0.91749 0.27625 0.0
O38 O 0.06613 0.96207 0.31547 0.0
C39 C 0.04678 0.10859 0.31777 0.0
C40 C 0.08065 0.91667 0.30349 0.0
O41 O 0.1416 0.03727 0.2321 0.0
Mg42 Mg 1.00656 0.0068 0.74115 0.0
O43 O 0.08895 0.00698 0.77795 0.0
O44 O 0.16105 0.00508 0.74584 0.0
Mg45 Mg 0.1261 0.99656 0.68953 0.0
C46 C 0.14187 0.00779 0.77488 0.0
C47 C 0.91946 0.99634 0.79311 0.0
O48 O 0.91451 0.94989 0.77685 0.0
O49 O 0.02323 0.09468 0.72569 0.0
O50 O 0.09152 0.08256 0.69149 0.0
O51 O 1.00229 0.91589 0.7404 0.0
O52 O 0.04638 0.96532 0.70472 0.0
C53 C 0.05695 0.11297 0.70514 0.0
C54 C 0.03233 0.91835 0.71494 0.0
O55 O 0.95494 0.03118 0.78457 0.0
H56 H 0.43727 0.94516 0.09033 0.0
C57 C 0.4466 0.9852 0.08084 0.0
H58 H 0.4301 0.06895 0.08336 0.0
H59 H 0.21165 0.95326 0.14945 0.0
H60 H 0.18472 0.91828 0.09238 0.0
H61 H 0.24577 0.93295 0.04633 0.0
H62 H 0.3346 0.9819 0.05725 0.0
C63 C 0.42017 0.0286 0.09207 0.0
C64 C 0.38043 0.02377 0.1187 0.0
C65 C 0.32758 0.9968 0.11152 0.0
C66 C 0.29133 0.99013 0.13776 0.0
C67 C 0.24011 0.96081 0.13031 0.0
C68 C 0.22418 0.94034 0.09765 0.0
C69 C 0.25862 0.94847 0.07175 0.0
C70 C 0.30971 0.97638 0.07843 0.0
H71 H 0.20601 0.05446 0.1819 0.0
C72 C 0.22253 0.02608 0.20163 0.0
H73 H 0.28975 0.97407 0.21938 0.0
H74 H 0.47737 0.07999 0.14057 0.0
H75 H 0.5022 0.1186 0.1969 0.0
H76 H 0.438 0.10942 0.24181 0.0
H77 H 0.34858 0.06136 0.23065 0.0
C78 C 0.27222 0.00133 0.19927 0.0
C79 C 0.30716 0.01203 0.17079 0.0
C80 C 0.35893 0.0408 0.17753 0.0
C81 C 0.3956 0.04666 0.1515 0.0
C82 C 0.44754 0.07481 0.15922 0.0
C83 C 0.46241 0.09712 0.1915 0.0
C84 C 0.4263 0.09189 0.21679 0.0
C85 C 0.37517 0.06407 0.21007 0.0
H86 H 0.14399 0.39795 0.59149 0.0
C87 C 0.10191 0.4128 0.5827 0.0
H88 H 0.01391 0.40249 0.58442 0.0
H89 H 0.04049 0.15233 0.61549 0.0
H90 H 1.0042 0.15056 0.55537 0.0
H91 H 0.99346 0.23495 0.52172 0.0
H92 H 0.01932 0.32156 0.54791 0.0
C93 C 0.05629 0.3892 0.59386 0.0
C94 C 0.06153 0.3391 0.61479 0.0
C95 C 0.046 0.28888 0.59904 0.0
C96 C 0.05257 0.24029 0.61836 0.0
C97 C 0.03696 0.19055 0.60195 0.0
C98 C 0.01589 0.18892 0.56746 0.0
C99 C 0.0098 0.23642 0.54853 0.0
C100 C 0.02472 0.28591 0.56394 0.0
H101 H 0.0185 0.19468 0.70201 0.0
C102 C 0.05265 0.1702 0.69418 0.0
H103 H 0.11974 0.16552 0.66324 0.0
H104 H 0.09043 0.4292 0.65322 0.0
H105 H 0.12702 0.4311 0.71341 0.0
H106 H 0.14061 0.34645 0.74666 0.0
H107 H 0.11723 0.2594 0.72002 0.0
C108 C 0.08663 0.19037 0.67198 0.0
C109 C 0.07449 0.24205 0.6534 0.0
C110 C 0.08869 0.29237 0.66937 0.0
C111 C 0.08189 0.34109 0.65004 0.0
C112 C 0.09571 0.39096 0.66661 0.0
C113 C 0.11658 0.39261 0.70114 0.0
C114 C 0.12416 0.34494 0.71988 0.0
C115 C 0.11052 0.29526 0.7043 0.0
H116 H 0.70573 0.11745 0.08518 0.0
C117 C 0.68866 0.07687 0.08076 0.0
H118 H 0.69824 0.99374 0.09218 0.0
H119 H 0.95347 0.97979 0.14311 0.0
H120 H 0.95032 0.93616 0.08773 0.0
H121 H 0.86442 0.94039 0.04643 0.0
H122 H 0.78097 0.9878 0.06036 0.0
C123 C 0.71425 0.0345 0.09743 0.0
C124 C 0.76808 0.03957 0.12053 0.0
C125 C 0.81709 0.01283 0.11167 0.0
C126 C 0.86703 0.01128 0.13521 0.0
C127 C 0.91465 0.9828 0.12606 0.0
C128 C 0.91343 0.95754 0.09434 0.0
C129 C 0.86505 0.95985 0.07111 0.0
C130 C 0.81734 0.98705 0.07951 0.0
H131 H 0.87059 0.99118 0.22871 0.0
C132 C 0.91228 0.00519 0.22357 0.0
H133 H 0.9592 0.04434 0.18795 0.0
H134 H 0.68133 0.09316 0.14654 0.0
H135 H 0.68739 0.14343 0.1996 0.0
H136 H 0.77708 0.14865 0.23758 0.0
H137 H 0.8608 0.1022 0.22307 0.0
C138 C 0.918 0.02989 0.19363 0.0
C139 C 0.86815 0.03708 0.16743 0.0
C140 C 0.82064 0.0675 0.17515 0.0
C141 C 0.76993 0.06728 0.15221 0.0
C142 C 0.72175 0.09404 0.16208 0.0
C143 C 0.72452 0.12283 0.19264 0.0
C144 C 0.77492 0.12557 0.2141 0.0
C145 C 0.82253 0.09832 0.20559 0.0
H146 H 0.95951 0.64953 0.57717 0.0
C147 C 1.00266 0.63753 0.57431 0.0
H148 H 0.08927 0.64772 0.59212 0.0
H149 H 0.9654 0.87088 0.6429 0.0
H150 H 0.94166 0.89044 0.58265 0.0
H151 H 0.96414 0.82549 0.53861 0.0
H152 H 0.00895 0.74008 0.55466 0.0
C153 C 0.04609 0.66067 0.59395 0.0
C154 C 0.03684 0.7021 0.6201 0.0
C155 C 0.01341 0.75312 0.61006 0.0
C156 C 1.00383 0.79199 0.63533 0.0
C157 C 0.97648 0.84101 0.62476 0.0
C158 C 0.96215 0.85261 0.59022 0.0
C159 C 0.97454 0.81595 0.56545 0.0
C160 C 0.9999 0.76678 0.57508 0.0
H161 H 0.07666 0.87489 0.67727 0.0
C162 C 0.04649 0.87009 0.69595 0.0
H163 H 0.98533 0.81858 0.71452 0.0
H164 H 0.08123 0.60784 0.64806 0.0
H165 H 0.10833 0.58988 0.70832 0.0
H166 H 0.09644 0.65939 0.75187 0.0
H167 H 0.05688 0.74723 0.73542 0.0
C168 C 0.01643 0.82402 0.69649 0.0
C169 C 0.02143 0.7813 0.67041 0.0
C170 C 0.0448 0.73041 0.68043 0.0
C171 C 0.05235 0.69065 0.65525 0.0
C172 C 0.07523 0.63983 0.66603 0.0
C173 C 0.09086 0.62893 0.70056 0.0
C174 C 0.08412 0.66805 0.72509 0.0
C175 C 0.06139 0.71828 0.7153 0.0
H176 H 0.42913 0.11045 0.92344 0.0
C177 C 0.43439 0.0718 0.93662 0.0
H178 H 0.40628 0.99096 0.93942 0.0
H179 H 0.19681 0.10747 0.83818 0.0
H180 H 0.1836 0.16565 0.88615 0.0
H181 H 0.24866 0.1613 0.93949 0.0
H182 H 0.32815 0.09977 0.9448 0.0
C183 C 0.40038 0.02977 0.92648 0.0
C184 C 0.35895 0.03158 0.89518 0.0
C185 C 0.31108 0.06595 0.8932 0.0
C186 C 0.2716 0.06616 0.86318 0.0
C187 C 0.22644 0.10358 0.86096 0.0
C188 C 0.21861 0.13757 0.88823 0.0
C189 C 0.25537 0.13529 0.9182 0.0
C190 C 0.30111 0.09998 0.92082 0.0
H191 H 0.16691 0.00438 0.83074 0.0
C192 C 0.18216 0.01249 0.80615 0.0
H193 H 0.25179 0.03573 0.78038 0.0
H194 H 0.44751 0.96257 0.88985 0.0
H195 H 0.4584 0.90156 0.84294 0.0
H196 H 0.38665 0.89746 0.79265 0.0
H197 H 0.30392 0.95477 0.78881 0.0
C198 C 0.23635 0.02772 0.80492 0.0
C199 C 0.27824 0.02965 0.83606 0.0
C200 C 0.32596 0.99513 0.83817 0.0
C201 C 0.36659 0.99649 0.86756 0.0
C202 C 0.41457 0.96245 0.86852 0.0
C203 C 0.42153 0.92731 0.84169 0.0
C204 C 0.38121 0.92509 0.81336 0.0
C205 C 0.33394 0.95843 0.81147 0.0
H206 H 0.9615 0.39754 0.42916 0.0
C207 C 1.00437 0.41114 0.43753 0.0
H208 H 0.09168 0.39725 0.43586 0.0
H209 H 0.05828 0.14719 0.40974 0.0
H210 H 0.09462 0.14764 0.46982 0.0
H211 H 0.10674 0.23329 0.50194 0.0
H212 H 0.08232 0.31895 0.47422 0.0
C213 C 0.04861 0.38513 0.42679 0.0
C214 C 0.04078 0.33412 0.40699 0.0
C215 C 0.05503 0.28441 0.42368 0.0
C216 C 0.04747 0.23508 0.40526 0.0
C217 C 0.06241 0.18593 0.42255 0.0
C218 C 0.08352 0.18557 0.45705 0.0
C219 C 0.09039 0.23377 0.47513 0.0
C220 C 0.0763 0.28271 0.45883 0.0
H221 H 0.08005 0.1926 0.31998 0.0
C222 C 0.04837 0.1657 0.32885 0.0
H223 H 0.98448 0.1561 0.36175 0.0
H224 H 0.01326 0.42287 0.36698 0.0
H225 H 0.97542 0.42257 0.30701 0.0
H226 H 0.95898 0.33666 0.27549 0.0
H227 H 0.98086 0.25059 0.30362 0.0
C228 C 0.01514 0.18328 0.35207 0.0
C229 C 0.02562 0.2356 0.37018 0.0
C230 C 0.01172 0.28537 0.35342 0.0
C231 C 0.01982 0.33482 0.37181 0.0
C232 C 1.00683 0.38412 0.35437 0.0
C233 C 0.98525 0.3845 0.31994 0.0
C234 C 0.9761 0.33614 0.30218 0.0
C235 C 0.98901 0.28701 0.31859 0.0
H236 H 0.67168 0.92624 0.93929 0.0
C237 C 0.66499 0.96781 0.9468 0.0
H238 H 0.68714 0.04992 0.94075 0.0
H239 H 0.90361 0.92474 0.88207 0.0
H240 H 0.92627 0.89121 0.94002 0.0
H241 H 0.86233 0.9079 0.98415 0.0
H242 H 0.77519 0.95775 0.97062 0.0
C243 C 0.69446 0.00817 0.93388 0.0
C244 C 0.7342 -0.00142 0.90781 0.0
C245 C 0.78555 0.97019 0.91645 0.0
C246 C 0.82304 0.96152 0.89118 0.0
C247 C 0.8737 0.93252 0.9003 0.0
C248 C 0.8873 0.9132 0.93349 0.0
C249 C 0.85127 0.92256 0.95833 0.0
C250 C 0.80109 0.95091 0.95012 0.0
H251 H 0.885 0.04847 0.83157 0.0
C252 C 0.8832 0.00829 0.82031 0.0
H253 H 0.84681 0.92999 0.82061 0.0
H254 H 0.63993 0.05563 0.88295 0.0
H255 H 0.6185 0.09058 0.82534 0.0
H256 H 0.68395 0.07607 0.78175 0.0
H257 H 0.77129 0.02661 0.79553 0.0
C258 C 0.8478 0.97076 0.83094 0.0
C259 C 0.8099 0.9824 0.85766 0.0
C260 C 0.75913 0.01164 0.84919 0.0
C261 C 0.72133 0.01985 0.87432 0.0
C262 C 0.6705 0.04858 0.86501 0.0
C263 C 0.65753 0.06873 0.83198 0.0
C264 C 0.69437 0.06056 0.80743 0.0
C265 C 0.74451 0.03222 0.81574 0.0
H266 H 0.16027 0.64292 0.43904 0.0
C267 C 0.11656 0.63218 0.44169 0.0
H268 H 0.03064 0.64439 0.42326 0.0
H269 H 0.15626 0.8675 0.37305 0.0
H270 H 0.18107 0.88624 0.43335 0.0
H271 H 0.15961 0.82009 0.47727 0.0
H272 H 0.11478 0.7344 0.4611 0.0
C273 C 0.07438 0.65615 0.42163 0.0
C274 C 0.08544 0.6974 0.39555 0.0
C275 C 0.10926 0.74841 0.40572 0.0
C276 C 0.11833 0.78792 0.38055 0.0
C277 C 0.14567 0.83713 0.39118 0.0
C278 C 0.16058 0.84826 0.42572 0.0
C279 C 0.14875 0.81093 0.45042 0.0
C280 C 0.12335 0.76159 0.44071 0.0
H281 H 0.04166 0.86876 0.34171 0.0
C282 C 0.07035 0.86657 0.32204 0.0
H283 H 0.13165 0.81917 0.30091 0.0
H284 H 0.04182 0.60283 0.36729 0.0
H285 H 0.0146 0.58545 0.30696 0.0
H286 H 0.02582 0.65597 0.26365 0.0
H287 H 0.06478 0.74426 0.2804 0.0
C288 C 0.10187 0.82209 0.31989 0.0
C289 C 0.09993 0.77786 0.34551 0.0
C290 C 0.07718 0.72664 0.33531 0.0
C291 C 0.07007 0.68626 0.36035 0.0
C292 C 0.04748 0.63524 0.34941 0.0
C293 C 0.0318 0.62468 0.31485 0.0
C294 C 0.03816 0.66437 0.29046 0.0
C295 C 0.06052 0.71486 0.30041 0.0
loop_
_geom_bond_atom_site_label_1
_geom_bond_atom_site_label_2
_geom_bond_distance
_geom_bond_site_symmetry_2
_ccdc_geom_bond_type
C0 O2 1.247 1_545 S
C0 O4 1.258 . S
C1 O8 1.247 . S
C1 O9 1.258 1_545 S
O2 C0 1.247 1_565 S
O2 Zn3 2.028 1_556 S
Zn3 O2 2.028 1_554 S
Zn3 O7 2.035 1_554 S
Zn3 O9 2.035 . S
Zn3 O10 2.028 . S
O4 C0 1.258 . S
O4 Zn5 2.035 1_556 S
Zn5 O4 2.035 1_554 S
Zn5 O6 2.028 1_554 S
Zn5 O8 2.028 . S
Zn5 O11 2.035 . S
O6 Zn5 2.028 1_556 S
O6 C12 1.247 . S
O7 Zn3 2.035 1_556 S
O7 C12 1.258 1_565 S
O8 C1 1.247 . S
O8 Zn5 2.028 . S
O9 C1 1.258 1_565 S
O9 Zn3 2.035 . S
O10 Zn3 2.028 . S
O10 C13 1.247 1_565 S
O11 Zn5 2.035 . S
O11 C13 1.258 . S
C12 O6 1.247 . S
C12 O7 1.258 1_545 S
C13 O10 1.247 1_545 S
C13 O11 1.258 . S
C14 O16 1.247 . S
C14 O18 1.258 . S
C15 O22 1.247 . S
C15 O23 1.259 1_455 S
O16 C14 1.247 . S
O16 Zn17 2.028 1_455 S
Zn17 O16 2.028 1_655 S
Zn17 O21 2.035 1_655 S
Zn17 O23 2.035 . S
Zn17 O24 2.028 . S
O18 C14 1.258 . S
O18 Zn19 2.035 . S
Zn19 O18 2.035 . S
Zn19 O20 2.028 . S
Zn19 O22 2.028 . S
Zn19 O25 2.035 . S
O20 Zn19 2.028 . S
O20 C26 1.247 . S
O21 Zn17 2.035 1_455 S
O21 C26 1.258 . S
O22 C15 1.247 . S
O22 Zn19 2.028 . S
O23 C15 1.259 1_655 S
O23 Zn17 2.035 . S
O24 Zn17 2.028 . S
O24 C27 1.247 1_655 S
O25 Zn19 2.035 . S
O25 C27 1.258 . S
C26 O20 1.247 . S
C26 O21 1.258 . S
C27 O24 1.247 1_455 S
C27 O25 1.258 . S
Mg28 O29 2.028 . S
Mg28 O35 1.986 . S
Mg28 O37 2.114 1_545 S
Mg28 O38 2.251 1_545 S
Mg28 O41 2.010 . S
O29 Mg28 2.028 . S
O29 C32 1.250 1_455 S
O30 Mg31 2.028 . S
O30 C32 1.248 . S
Mg31 O30 2.028 . S
Mg31 O36 2.032 1_655 S
Mg31 O38 2.079 1_645 S
C32 O29 1.250 1_655 S
C32 O30 1.248 . S
C33 O34 1.264 . S
C33 O41 1.249 . S
O34 C33 1.264 . S
O35 Mg28 1.986 . S
O35 C39 1.246 . S
O36 Mg31 2.032 1_455 S
O36 C39 1.259 . S
O37 Mg28 2.114 1_565 S
O37 C40 1.252 . S
O38 Mg28 2.251 1_565 S
O38 Mg31 2.079 1_465 S
O38 C40 1.273 . S
C39 O35 1.246 . S
C39 O36 1.259 . S
C40 O37 1.252 . S
C40 O38 1.273 . S
O41 Mg28 2.010 . S
O41 C33 1.249 . S
Mg42 O43 2.028 1_655 S
Mg42 O49 1.986 1_655 S
Mg42 O51 2.114 1_545 S
Mg42 O52 2.251 1_645 S
Mg42 O55 2.010 . S
O43 Mg42 2.028 1_455 S
O43 C46 1.250 . S
O44 Mg45 2.028 . S
O44 C46 1.248 . S
Mg45 O44 2.028 . S
Mg45 O50 2.032 . S
Mg45 O52 2.079 1_545 S
C46 O43 1.250 . S
C46 O44 1.248 . S
C47 O48 1.264 . S
C47 O55 1.249 . S
O48 C47 1.264 . S
O49 Mg42 1.986 1_455 S
O49 C53 1.246 . S
O50 Mg45 2.032 . S
O50 C53 1.259 . S
O51 Mg42 2.114 1_565 S
O51 C54 1.252 1_655 S
O52 Mg42 2.251 1_465 S
O52 Mg45 2.079 1_565 S
O52 C54 1.273 . S
C53 O49 1.246 . S
C53 O50 1.259 . S
C54 O51 1.252 1_455 S
C54 O52 1.273 . S
O55 Mg42 2.010 . S
O55 C47 1.249 . S
H56 C57 0.951 . S
C57 H56 0.951 . S
C57 C63 1.265 . S
H58 C63 0.950 . S
H59 C67 0.949 . S
H60 C68 0.950 . S
H61 C69 0.951 . S
H62 C70 0.951 . S
C63 C57 1.265 . S
C63 H58 0.950 . S
C63 C64 1.478 . S
C64 C63 1.478 . S
C64 C65 1.397 1_545 S
C64 C81 1.394 . S
C65 C64 1.397 1_565 S
C65 C66 1.438 . S
C65 C70 1.429 . S
C66 C65 1.438 . S
C66 C67 1.428 . S
C66 C79 1.394 1_565 S
C67 H59 0.949 . S
C67 C66 1.428 . S
C67 C68 1.345 . S
C68 H60 0.950 . S
C68 C67 1.345 . S
C68 C69 1.424 . S
C69 H61 0.951 . S
C69 C68 1.424 . S
C69 C70 1.347 . S
C70 H62 0.951 . S
C70 C65 1.429 . S
C70 C69 1.347 . S
H71 C72 0.951 . S
C72 H71 0.951 . S
C72 C78 1.265 . S
H73 C78 0.950 . S
H74 C82 0.949 . S
H75 C83 0.950 . S
H76 C84 0.951 . S
H77 C85 0.951 . S
C78 C72 1.265 . S
C78 H73 0.950 . S
C78 C79 1.478 . S
C79 C66 1.394 1_545 S
C79 C78 1.478 . S
C79 C80 1.397 . S
C80 C79 1.397 . S
C80 C81 1.438 . S
C80 C85 1.429 . S
C81 C64 1.394 . S
C81 C80 1.438 . S
C81 C82 1.428 . S
C82 H74 0.949 . S
C82 C81 1.428 . S
C82 C83 1.345 . S
C83 H75 0.950 . S
C83 C82 1.345 . S
C83 C84 1.424 . S
C84 H76 0.951 . S
C84 C83 1.424 . S
C84 C85 1.347 . S
C85 H77 0.951 . S
C85 C80 1.429 . S
C85 C84 1.347 . S
H86 C87 0.951 . S
C87 H86 0.951 . S
C87 C93 1.265 . S
H88 C93 0.950 1_655 S
H89 C97 0.951 . S
H90 C98 0.950 . S
H91 C99 0.951 . S
H92 C100 0.951 . S
C93 C87 1.265 . S
C93 H88 0.950 1_455 S
C93 C94 1.478 . S
C94 C93 1.478 . S
C94 C95 1.397 . S
C94 C111 1.394 . S
C95 C94 1.397 . S
C95 C96 1.438 . S
C95 C100 1.429 1_455 S
C96 C95 1.438 . S
C96 C97 1.431 . S
C96 C109 1.394 . S
C97 H89 0.951 . S
C97 C96 1.431 . S
C97 C98 1.340 1_455 S
C98 H90 0.950 . S
C98 C97 1.340 1_655 S
C98 C99 1.424 . S
C99 H91 0.951 . S
C99 C98 1.424 . S
C99 C100 1.347 . S
C100 H92 0.951 . S
C100 C95 1.429 1_655 S
C100 C99 1.347 . S
H101 C102 0.951 1_655 S
C102 H101 0.951 1_455 S
C102 C108 1.265 . S
H103 C108 0.950 . S
H104 C112 0.949 . S
H105 C113 0.950 . S
H106 C114 0.951 . S
H107 C115 0.951 . S
C108 C102 1.265 . S
C108 H103 0.950 . S
C108 C109 1.478 . S
C109 C96 1.394 . S
C109 C108 1.478 . S
C109 C110 1.397 . S
C110 C109 1.397 . S
C110 C111 1.438 . S
C110 C115 1.429 . S
C111 C94 1.394 . S
C111 C110 1.438 . S
C111 C112 1.428 . S
C112 H104 0.949 . S
C112 C111 1.428 . S
C112 C113 1.345 . S
C113 H105 0.950 . S
C113 C112 1.345 . S
C113 C114 1.424 . S
C114 H106 0.951 . S
C114 C113 1.424 . S
C114 C115 1.347 . S
C115 H107 0.951 . S
C115 C110 1.429 . S
C115 C114 1.347 . S
H116 C117 0.951 . S
C117 H116 0.951 . S
C117 C123 1.265 . S
H118 C123 0.950 . S
H119 C127 0.949 . S
H120 C128 0.950 . S
H121 C129 0.951 . S
H122 C130 0.951 . S
C123 C117 1.265 . S
C123 H118 0.950 . S
C123 C124 1.478 . S
C124 C123 1.478 . S
C124 C125 1.397 1_545 S
C124 C141 1.394 . S
C125 C124 1.397 1_565 S
C125 C126 1.438 . S
C125 C130 1.429 . S
C126 C125 1.438 . S
C126 C127 1.428 . S
C126 C139 1.394 1_565 S
C127 H119 0.949 . S
C127 C126 1.428 . S
C127 C128 1.345 . S
C128 H120 0.950 . S
C128 C127 1.345 . S
C128 C129 1.424 . S
C129 H121 0.951 . S
C129 C128 1.424 . S
C129 C130 1.347 . S
C130 H122 0.951 . S
C130 C125 1.429 . S
C130 C129 1.347 . S
H131 C132 0.951 . S
C132 H131 0.951 . S
C132 C138 1.265 . S
H133 C138 0.950 . S
H134 C142 0.949 . S
H135 C143 0.950 . S
H136 C144 0.951 . S
H137 C145 0.951 . S
C138 C132 1.265 . S
C138 H133 0.950 . S
C138 C139 1.478 . S
C139 C126 1.394 1_545 S
C139 C138 1.478 . S
C139 C140 1.397 . S
C140 C139 1.397 . S
C140 C141 1.438 . S
C140 C145 1.429 . S
C141 C124 1.394 . S
C141 C140 1.438 . S
C141 C142 1.428 . S
C142 H134 0.949 . S
C142 C141 1.428 . S
C142 C143 1.345 . S
C143 H135 0.950 . S
C143 C142 1.345 . S
C143 C144 1.424 . S
C144 H136 0.951 . S
C144 C143 1.424 . S
C144 C145 1.347 . S
C145 H137 0.951 . S
C145 C140 1.429 . S
C145 C144 1.347 . S
H146 C147 0.951 . S
C147 H146 0.951 . S
C147 C153 1.265 . S
H148 C153 0.950 . S
H149 C157 0.949 . S
H150 C158 0.950 . S
H151 C159 0.951 . S
H152 C160 0.951 . S
C153 C147 1.265 . S
C153 H148 0.950 . S
C153 C154 1.478 . S
C154 C153 1.478 . S
C154 C155 1.397 1_455 S
C154 C171 1.394 . S
C155 C154 1.397 1_655 S
C155 C156 1.438 . S
C155 C160 1.429 . S
C156 C155 1.438 . S
C156 C157 1.428 . S
C156 C169 1.394 1_655 S
C157 H149 0.949 . S
C157 C156 1.428 . S
C157 C158 1.345 . S
C158 H150 0.950 . S
C158 C157 1.345 . S
C158 C159 1.424 . S
C159 H151 0.951 . S
C159 C158 1.424 . S
C159 C160 1.347 . S
C160 H152 0.951 . S
C160 C155 1.429 . S
C160 C159 1.347 . S
H161 C162 0.951 . S
C162 H161 0.951 . S
C162 C168 1.265 . S
H163 C168 0.950 . S
H164 C172 0.949 . S
H165 C173 0.950 . S
H166 C174 0.951 . S
H167 C175 0.951 . S
C168 C162 1.265 . S
C168 H163 0.950 . S
C168 C169 1.478 . S
C169 C156 1.394 1_455 S
C169 C168 1.478 . S
C169 C170 1.397 . S
C170 C169 1.397 . S
C170 C171 1.438 . S
C170 C175 1.429 . S
C171 C154 1.394 . S
C171 C170 1.438 . S
C171 C172 1.428 . S
C172 H164 0.949 . S
C172 C171 1.428 . S
C172 C173 1.345 . S
C173 H165 0.950 . S
C173 C172 1.345 . S
C173 C174 1.424 . S
C174 H166 0.951 . S
C174 C173 1.424 . S
C174 C175 1.347 . S
C175 H167 0.951 . S
C175 C170 1.429 . S
C175 C174 1.347 . S
H176 C177 0.951 . S
C177 H176 0.951 . S
C177 C183 1.265 . S
H178 C183 0.950 . S
H179 C187 0.949 . S
H180 C188 0.950 . S
H181 C189 0.951 . S
H182 C190 0.951 . S
C183 C177 1.265 . S
C183 H178 0.950 . S
C183 C184 1.478 . S
C184 C183 1.478 . S
C184 C185 1.397 . S
C184 C201 1.394 1_545 S
C185 C184 1.397 . S
C185 C186 1.438 . S
C185 C190 1.429 . S
C186 C185 1.438 . S
C186 C187 1.428 . S
C186 C199 1.394 . S
C187 H179 0.949 . S
C187 C186 1.428 . S
C187 C188 1.345 . S
C188 H180 0.950 . S
C188 C187 1.345 . S
C188 C189 1.424 . S
C189 H181 0.951 . S
C189 C188 1.424 . S
C189 C190 1.347 . S
C190 H182 0.951 . S
C190 C185 1.429 . S
C190 C189 1.347 . S
H191 C192 0.951 . S
C192 H191 0.951 . S
C192 C198 1.265 . S
H193 C198 0.950 . S
H194 C202 0.949 . S
H195 C203 0.950 . S
H196 C204 0.951 . S
H197 C205 0.951 . S
C198 C192 1.265 . S
C198 H193 0.950 . S
C198 C199 1.478 . S
C199 C186 1.394 . S
C199 C198 1.478 . S
C199 C200 1.397 1_545 S
C200 C199 1.397 1_565 S
C200 C201 1.438 . S
C200 C205 1.429 . S
C201 C184 1.394 1_565 S
C201 C200 1.438 . S
C201 C202 1.428 . S
C202 H194 0.949 . S
C202 C201 1.428 . S
C202 C203 1.345 . S
C203 H195 0.950 . S
C203 C202 1.345 . S
C203 C204 1.424 . S
C204 H196 0.951 . S
C204 C203 1.424 . S
C204 C205 1.347 . S
C205 H197 0.951 . S
C205 C200 1.429 . S
C205 C204 1.347 . S
H206 C207 0.951 . S
C207 H206 0.951 . S
C207 C213 1.265 . S
H208 C213 0.950 . S
H209 C217 0.949 . S
H210 C218 0.950 . S
H211 C219 0.951 . S
H212 C220 0.951 . S
C213 C207 1.265 . S
C213 H208 0.950 . S
C213 C214 1.478 . S
C214 C213 1.478 . S
C214 C215 1.397 . S
C214 C231 1.394 . S
C215 C214 1.397 . S
C215 C216 1.438 . S
C215 C220 1.429 . S
C216 C215 1.438 . S
C216 C217 1.428 . S
C216 C229 1.394 . S
C217 H209 0.949 . S
C217 C216 1.428 . S
C217 C218 1.345 . S
C218 H210 0.950 . S
C218 C217 1.345 . S
C218 C219 1.424 . S
C219 H211 0.951 . S
C219 C218 1.424 . S
C219 C220 1.347 . S
C220 H212 0.951 . S
C220 C215 1.429 . S
C220 C219 1.347 . S
H221 C222 0.951 . S
C222 H221 0.951 . S
C222 C228 1.265 . S
H223 C228 0.950 . S
H224 C232 0.949 . S
H225 C233 0.950 . S
H226 C234 0.951 . S
H227 C235 0.951 . S
C228 C222 1.265 . S
C228 H223 0.950 . S
C228 C229 1.478 . S
C229 C216 1.394 . S
C229 C228 1.478 . S
C229 C230 1.397 . S
C230 C229 1.397 . S
C230 C231 1.438 . S
C230 C235 1.429 . S
C231 C214 1.394 . S
C231 C230 1.438 . S
C231 C232 1.428 . S
C232 H224 0.949 . S
C232 C231 1.428 . S
C232 C233 1.345 . S
C233 H225 0.950 . S
C233 C232 1.345 . S
C233 C234 1.424 . S
C234 H226 0.951 . S
C234 C233 1.424 . S
C234 C235 1.347 . S
C235 H227 0.951 . S
C235 C230 1.429 . S
C235 C234 1.347 . S
H236 C237 0.951 . S
C237 H236 0.951 . S
C237 C243 1.265 . S
H238 C243 0.950 . S
H239 C247 0.949 . S
H240 C248 0.950 . S
H241 C249 0.951 . S
H242 C250 0.951 . S
C243 C237 1.265 . S
C243 H238 0.950 . S
C243 C244 1.478 . S
C244 C243 1.478 . S
C244 C245 1.397 1_545 S
C244 C261 1.394 . S
C245 C244 1.397 1_565 S
C245 C246 1.438 . S
C245 C250 1.429 . S
C246 C245 1.438 . S
C246 C247 1.428 . S
C246 C259 1.394 1_565 S
C247 H239 0.949 . S
C247 C246 1.428 . S
C247 C248 1.345 . S
C248 H240 0.950 . S
C248 C247 1.345 . S
C248 C249 1.424 . S
C249 H241 0.951 . S
C249 C248 1.424 . S
C249 C250 1.347 . S
C250 H242 0.951 . S
C250 C245 1.429 . S
C250 C249 1.347 . S
H251 C252 0.951 . S
C252 H251 0.951 . S
C252 C258 1.265 . S
H253 C258 0.950 . S
H254 C262 0.949 . S
H255 C263 0.950 . S
H256 C264 0.951 . S
H257 C265 0.951 . S
C258 C252 1.265 . S
C258 H253 0.950 . S
C258 C259 1.478 . S
C259 C246 1.394 1_545 S
C259 C258 1.478 . S
C259 C260 1.397 . S
C260 C259 1.397 . S
C260 C261 1.438 . S
C260 C265 1.429 . S
C261 C244 1.394 . S
C261 C260 1.438 . S
C261 C262 1.428 . S
C262 H254 0.949 . S
C262 C261 1.428 . S
C262 C263 1.345 . S
C263 H255 0.950 . S
C263 C262 1.345 . S
C263 C264 1.424 . S
C264 H256 0.951 . S
C264 C263 1.424 . S
C264 C265 1.347 . S
C265 H257 0.951 . S
C265 C260 1.429 . S
C265 C264 1.347 . S
H266 C267 0.951 . S
C267 H266 0.951 . S
C267 C273 1.265 . S
H268 C273 0.950 1_655 S
H269 C277 0.949 . S
H270 C278 0.950 1_655 S
H271 C279 0.951 . S
H272 C280 0.951 1_655 S
C273 C267 1.265 . S
C273 H268 0.950 1_455 S
C273 C274 1.478 . S
C274 C273 1.478 . S
C274 C275 1.397 . S
C274 C291 1.394 . S
C275 C274 1.397 . S
C275 C276 1.438 . S
C275 C280 1.429 . S
C276 C275 1.438 . S
C276 C277 1.428 . S
C276 C289 1.394 . S
C277 H269 0.949 . S
C277 C276 1.428 . S
C277 C278 1.345 . S
C278 H270 0.950 1_455 S
C278 C277 1.345 . S
C278 C279 1.424 1_455 S
C279 H271 0.951 . S
C279 C278 1.424 1_655 S
C279 C280 1.347 1_655 S
C280 H272 0.951 1_455 S
C280 C275 1.429 . S
C280 C279 1.347 1_455 S
H281 C282 0.951 . S
C282 H281 0.951 . S
C282 C288 1.265 . S
H283 C288 0.950 . S
H284 C292 0.949 . S
H285 C293 0.950 . S
H286 C294 0.951 . S
H287 C295 0.951 . S
C288 C282 1.265 . S
C288 H283 0.950 . S
C288 C289 1.478 . S
C289 C276 1.394 . S
C289 C288 1.478 . S
C289 C290 1.397 . S
C290 C289 1.397 . S
C290 C291 1.438 . S
C290 C295 1.429 . S
C291 C274 1.394 . S
C291 C290 1.438 . S
C291 C292 1.428 . S
C292 H284 0.949 . S
C292 C291 1.428 . S
C292 C293 1.345 . S
C293 H285 0.950 . S
C293 C292 1.345 . S
C293 C294 1.424 . S
C294 H286 0.951 . S
C294 C293 1.424 . S
C294 C295 1.347 . S
C295 H287 0.951 . S
C295 C290 1.429 . S
C295 C294 1.347 . S
C72 C33 1.337 . S
C57 C13 1.448 . S
C102 C53 1.452 . S
C87 C15 1.452 . S
C132 C32 1.395 . S
C117 C1 1.471 . S
C162 C54 1.463 . S
C147 C27 1.463 . S
C192 C46 1.471 . S
C177 C0 1.460 . S
C222 C39 1.445 . S
C207 C26 1.452 . S
C252 C47 1.337 . S
C237 C12 1.448 . S
C267 C14 1.469 . S
C282 C40 1.471 . S
