# Generated by pormake.
# Topology eea, (3,6)-cn, num edge types: 1
# Building blocks:
#     Node 0, Type 0, BuildingBlock: WUSLED_clean_sbu_0, # of connection points: 3
#     Node 1, Type 0, BuildingBlock: WUSLED_clean_sbu_0, # of connection points: 3
#     Node 2, Type 0, BuildingBlock: WUSLED_clean_sbu_0, # of connection points: 3
#     Node 3, Type 0, BuildingBlock: WUSLED_clean_sbu_0, # of connection points: 3
#     Node 4, Type 0, BuildingBlock: WUSLED_clean_sbu_0, # of connection points: 3
#     Node 5, Type 0, BuildingBlock: WUSLED_clean_sbu_0, # of connection points: 3
#     Node 6, Type 0, BuildingBlock: WUSLED_clean_sbu_0, # of connection points: 3
#     Node 7, Type 0, BuildingBlock: WUSLED_clean_sbu_0, # of connection points: 3
#     Node 8, Type 0, BuildingBlock: WUSLED_clean_sbu_0, # of connection points: 3
#     Node 9, Type 0, BuildingBlock: WUSLED_clean_sbu_0, # of connection points: 3
#     Node 10, Type 0, BuildingBlock: WUSLED_clean_sbu_0, # of connection points: 3
#     Node 11, Type 0, BuildingBlock: WUSLED_clean_sbu_0, # of connection points: 3
#     Node 12, Type 0, BuildingBlock: WUSLED_clean_sbu_0, # of connection points: 3
#     Node 13, Type 0, BuildingBlock: WUSLED_clean_sbu_0, # of connection points: 3
#     Node 14, Type 0, BuildingBlock: WUSLED_clean_sbu_0, # of connection points: 3
#     Node 15, Type 0, BuildingBlock: WUSLED_clean_sbu_0, # of connection points: 3
#     Node 16, Type 0, BuildingBlock: WUSLED_clean_sbu_0, # of connection points: 3
#     Node 17, Type 0, BuildingBlock: WUSLED_clean_sbu_0, # of connection points: 3
#     Node 18, Type 1, BuildingBlock: KUMJIN_clean_sbu_0, # of connection points: 6
#     Node 19, Type 1, BuildingBlock: KUMJIN_clean_sbu_0, # of connection points: 6
#     Node 20, Type 1, BuildingBlock: KUMJIN_clean_sbu_0, # of connection points: 6
#     Node 21, Type 1, BuildingBlock: KUMJIN_clean_sbu_0, # of connection points: 6
#     Node 22, Type 1, BuildingBlock: KUMJIN_clean_sbu_0, # of connection points: 6
#     Node 23, Type 1, BuildingBlock: KUMJIN_clean_sbu_0, # of connection points: 6
#     Node 24, Type 1, BuildingBlock: KUMJIN_clean_sbu_0, # of connection points: 6
#     Node 25, Type 1, BuildingBlock: KUMJIN_clean_sbu_0, # of connection points: 6
#     Node 26, Type 1, BuildingBlock: KUMJIN_clean_sbu_0, # of connection points: 6
#     Edge 27, Type (0, 1), BuildingBlock: MIFKUJ_clean_linker_0, # of connection points: 2
#     Edge 28, Type (0, 1), BuildingBlock: MIFKUJ_clean_linker_0, # of connection points: 2
#     Edge 29, Type (0, 1), BuildingBlock: MIFKUJ_clean_linker_0, # of connection points: 2
#     Edge 30, Type (0, 1), BuildingBlock: MIFKUJ_clean_linker_0, # of connection points: 2
#     Edge 31, Type (0, 1), BuildingBlock: MIFKUJ_clean_linker_0, # of connection points: 2
#     Edge 32, Type (0, 1), BuildingBlock: MIFKUJ_clean_linker_0, # of connection points: 2
#     Edge 33, Type (0, 1), BuildingBlock: MIFKUJ_clean_linker_0, # of connection points: 2
#     Edge 34, Type (0, 1), BuildingBlock: MIFKUJ_clean_linker_0, # of connection points: 2
#     Edge 35, Type (0, 1), BuildingBlock: MIFKUJ_clean_linker_0, # of connection points: 2
#     Edge 36, Type (0, 1), BuildingBlock: MIFKUJ_clean_linker_0, # of connection points: 2
#     Edge 37, Type (0, 1), BuildingBlock: MIFKUJ_clean_linker_0, # of connection points: 2
#     Edge 38, Type (0, 1), BuildingBlock: MIFKUJ_clean_linker_0, # of connection points: 2
#     Edge 39, Type (0, 1), BuildingBlock: MIFKUJ_clean_linker_0, # of connection points: 2
#     Edge 40, Type (0, 1), BuildingBlock: MIFKUJ_clean_linker_0, # of connection points: 2
#     Edge 41, Type (0, 1), BuildingBlock: MIFKUJ_clean_linker_0, # of connection points: 2
#     Edge 42, Type (0, 1), BuildingBlock: MIFKUJ_clean_linker_0, # of connection points: 2
#     Edge 43, Type (0, 1), BuildingBlock: MIFKUJ_clean_linker_0, # of connection points: 2
#     Edge 44, Type (0, 1), BuildingBlock: MIFKUJ_clean_linker_0, # of connection points: 2
#     Edge 45, Type (0, 1), BuildingBlock: MIFKUJ_clean_linker_0, # of connection points: 2
#     Edge 46, Type (0, 1), BuildingBlock: MIFKUJ_clean_linker_0, # of connection points: 2
#     Edge 47, Type (0, 1), BuildingBlock: MIFKUJ_clean_linker_0, # of connection points: 2
#     Edge 48, Type (0, 1), BuildingBlock: MIFKUJ_clean_linker_0, # of connection points: 2
#     Edge 49, Type (0, 1), BuildingBlock: MIFKUJ_clean_linker_0, # of connection points: 2
#     Edge 50, Type (0, 1), BuildingBlock: MIFKUJ_clean_linker_0, # of connection points: 2
#     Edge 51, Type (0, 1), BuildingBlock: MIFKUJ_clean_linker_0, # of connection points: 2
#     Edge 52, Type (0, 1), BuildingBlock: MIFKUJ_clean_linker_0, # of connection points: 2
#     Edge 53, Type (0, 1), BuildingBlock: MIFKUJ_clean_linker_0, # of connection points: 2
#     Edge 54, Type (0, 1), BuildingBlock: MIFKUJ_clean_linker_0, # of connection points: 2
#     Edge 55, Type (0, 1), BuildingBlock: MIFKUJ_clean_linker_0, # of connection points: 2
#     Edge 56, Type (0, 1), BuildingBlock: MIFKUJ_clean_linker_0, # of connection points: 2
#     Edge 57, Type (0, 1), BuildingBlock: MIFKUJ_clean_linker_0, # of connection points: 2
#     Edge 58, Type (0, 1), BuildingBlock: MIFKUJ_clean_linker_0, # of connection points: 2
#     Edge 59, Type (0, 1), BuildingBlock: MIFKUJ_clean_linker_0, # of connection points: 2
#     Edge 60, Type (0, 1), BuildingBlock: MIFKUJ_clean_linker_0, # of connection points: 2
#     Edge 61, Type (0, 1), BuildingBlock: MIFKUJ_clean_linker_0, # of connection points: 2
#     Edge 62, Type (0, 1), BuildingBlock: MIFKUJ_clean_linker_0, # of connection points: 2
#     Edge 63, Type (0, 1), BuildingBlock: MIFKUJ_clean_linker_0, # of connection points: 2
#     Edge 64, Type (0, 1), BuildingBlock: MIFKUJ_clean_linker_0, # of connection points: 2
#     Edge 65, Type (0, 1), BuildingBlock: MIFKUJ_clean_linker_0, # of connection points: 2
#     Edge 66, Type (0, 1), BuildingBlock: MIFKUJ_clean_linker_0, # of connection points: 2
#     Edge 67, Type (0, 1), BuildingBlock: MIFKUJ_clean_linker_0, # of connection points: 2
#     Edge 68, Type (0, 1), BuildingBlock: MIFKUJ_clean_linker_0, # of connection points: 2
#     Edge 69, Type (0, 1), BuildingBlock: MIFKUJ_clean_linker_0, # of connection points: 2
#     Edge 70, Type (0, 1), BuildingBlock: MIFKUJ_clean_linker_0, # of connection points: 2
#     Edge 71, Type (0, 1), BuildingBlock: MIFKUJ_clean_linker_0, # of connection points: 2
#     Edge 72, Type (0, 1), BuildingBlock: MIFKUJ_clean_linker_0, # of connection points: 2
#     Edge 73, Type (0, 1), BuildingBlock: MIFKUJ_clean_linker_0, # of connection points: 2
#     Edge 74, Type (0, 1), BuildingBlock: MIFKUJ_clean_linker_0, # of connection points: 2
#     Edge 75, Type (0, 1), BuildingBlock: MIFKUJ_clean_linker_0, # of connection points: 2
#     Edge 76, Type (0, 1), BuildingBlock: MIFKUJ_clean_linker_0, # of connection points: 2
#     Edge 77, Type (0, 1), BuildingBlock: MIFKUJ_clean_linker_0, # of connection points: 2
#     Edge 78, Type (0, 1), BuildingBlock: MIFKUJ_clean_linker_0, # of connection points: 2
#     Edge 79, Type (0, 1), BuildingBlock: MIFKUJ_clean_linker_0, # of connection points: 2
#     Edge 80, Type (0, 1), BuildingBlock: MIFKUJ_clean_linker_0, # of connection points: 2
# Relax obj value: 0.010
# Max RMSD: 0.097
# Mean RMSD: 0.055
data_MOF--net-eea--node1-WUSLED_clean_sbu_0--node2-KUMJIN_clean_sbu_0--edge1-MIFKUJ_clean_linker_0
_symmetry_space_group_name_H-M    P1
_symmetry_Int_Tables_number       1
_symmetry_cell_setting            triclinic
loop_
_symmetry_equiv_pos_as_xyz
'x, y, z'
_cell_length_a     82.880008
_cell_length_b     84.465812
_cell_length_c     109.89996
_cell_angle_alpha  89.907057
_cell_angle_beta   90.243674
_cell_angle_gamma 119.93993
loop_
_atom_site_label
_atom_site_type_symbol
_atom_site_fract_x
_atom_site_fract_y
_atom_site_fract_z
_atom_type_partial_charge
C0 C 0.21598 0.14105 0.41348 0.0
C1 C 0.21816 0.15497 0.42144 0.0
C2 C 0.21086 0.16991 0.40498 0.0
C3 C 0.21563 0.16928 0.41723 0.0
C4 C 0.20885 0.15594 0.39706 0.0
C5 C 0.21138 0.14169 0.40128 0.0
U6 U 0.23026 0.11683 0.43731 0.0
O7 O 0.21698 0.08764 0.44194 0.0
O8 O 0.24542 0.10181 0.43469 0.0
C9 C 0.23105 0.08609 0.43789 0.0
C10 C 0.21843 0.12578 0.41764 0.0
C11 C 0.22659 0.07027 0.4299 0.0
C12 C 0.20482 0.04404 0.41772 0.0
C13 C 0.20896 0.05973 0.42447 0.0
C14 C 0.23595 0.04943 0.42147 0.0
C15 C 0.21819 0.03854 0.41625 0.0
C16 C 0.24004 0.06502 0.42823 0.0
C17 C 0.24935 0.14022 0.46846 0.0
C18 C 0.25502 0.12649 0.48628 0.0
C19 C 0.26602 0.15897 0.48593 0.0
C20 C 0.25858 0.15726 0.47425 0.0
C21 C 0.26438 0.14363 0.49211 0.0
C22 C 0.24761 0.1248 0.47453 0.0
C23 C 0.24164 0.13902 0.45615 0.0
O24 O 0.23573 0.12958 0.41917 0.0
O25 O 0.20732 0.11563 0.4264 0.0
O26 O 0.2242 0.12627 0.45444 0.0
O27 O 0.25253 0.14048 0.44706 0.0
H28 H 0.22174 0.15472 0.43091 0.0
H29 H 0.21712 0.17968 0.42361 0.0
H30 H 0.20553 0.15611 0.38754 0.0
H31 H 0.20974 0.13112 0.39498 0.0
H32 H 0.19096 0.03597 0.41394 0.0
H33 H 0.19826 0.0634 0.42559 0.0
H34 H 0.24674 0.0459 0.42035 0.0
H35 H 0.25373 0.07289 0.43232 0.0
H36 H 0.25367 0.11443 0.49071 0.0
H37 H 0.27288 0.17232 0.49019 0.0
H38 H 0.26 0.16931 0.46973 0.0
H39 H 0.24058 0.11152 0.47018 0.0
C40 C 0.9413 0.14514 0.41246 0.0
C41 C 0.9511 0.16174 0.4188 0.0
C42 C 0.97473 0.17418 0.40281 0.0
C43 C 0.96769 0.17612 0.41403 0.0
C44 C 0.96491 0.15737 0.39664 0.0
C45 C 0.94842 0.14307 0.4014 0.0
U46 U 0.90269 0.11984 0.43662 0.0
O47 O 0.87228 0.1043 0.43394 0.0
O48 O 0.88688 0.09036 0.44066 0.0
C49 C 0.87093 0.08869 0.43714 0.0
C50 C 0.9235 0.12987 0.41693 0.0
C51 C 0.85886 0.07266 0.4295 0.0
C52 C 0.85096 0.0558 0.41037 0.0
C53 C 0.86303 0.07125 0.41732 0.0
C54 C 0.8306 0.04311 0.42775 0.0
C55 C 0.83449 0.04156 0.41549 0.0
C56 C 0.84262 0.05846 0.43464 0.0
C57 C 0.90643 0.14066 0.46847 0.0
C58 C 0.88188 0.12824 0.48371 0.0
C59 C 0.91195 0.15424 0.48866 0.0
C60 C 0.91823 0.1538 0.47692 0.0
C61 C 0.89367 0.14151 0.49223 0.0
C62 C 0.88821 0.1278 0.47195 0.0
C63 C 0.91338 0.14085 0.45608 0.0
O64 O 0.92466 0.11961 0.4255 0.0
O65 O 0.91 0.13348 0.41877 0.0
O66 O 0.90388 0.1426 0.44709 0.0
O67 O 0.91842 0.12865 0.45386 0.0
H68 H 0.94584 0.16363 0.42736 0.0
H69 H 0.97477 0.18889 0.419 0.0
H70 H 0.97002 0.15519 0.38811 0.0
H71 H 0.94113 0.13035 0.39639 0.0
H72 H 0.85437 0.05515 0.40095 0.0
H73 H 0.87552 0.08209 0.41318 0.0
H74 H 0.8183 0.03232 0.4321 0.0
H75 H 0.83919 0.05924 0.44404 0.0
H76 H 0.86779 0.1181 0.48615 0.0
H77 H 0.92135 0.16483 0.49486 0.0
H78 H 0.93232 0.16388 0.47441 0.0
H79 H 0.87889 0.11749 0.46556 0.0
C80 C 0.8725 0.80057 0.4121 0.0
C81 C 0.86099 0.80289 0.42039 0.0
C82 C 0.84235 0.80471 0.40364 0.0
C83 C 0.84608 0.80496 0.41621 0.0
C84 C 0.85389 0.8022 0.39543 0.0
C85 C 0.86874 0.80016 0.39961 0.0
U86 U 0.90172 0.78968 0.43501 0.0
O87 O 0.91888 0.77704 0.43131 0.0
O88 O 0.93211 0.80516 0.43815 0.0
C89 C 0.93461 0.792 0.4339 0.0
C90 C 0.88894 0.79927 0.41604 0.0
C91 C 0.95058 0.79741 0.42548 0.0
C92 C 0.96427 0.79257 0.4072 0.0
C93 C 0.9486 0.78847 0.41431 0.0
C94 C 0.98415 0.81489 0.42211 0.0
C95 C 0.98233 0.80567 0.41108 0.0
C96 C 0.96852 0.81077 0.42921 0.0
C97 C 0.88151 0.77128 0.46738 0.0
C98 C 0.89305 0.75861 0.48284 0.0
C99 C 0.86736 0.7635 0.48747 0.0
C100 C 0.8683 0.7703 0.47572 0.0
C101 C 0.87967 0.75749 0.49124 0.0
C102 C 0.89397 0.76545 0.47102 0.0
C103 C 0.88142 0.77795 0.45492 0.0
O104 O 0.89959 0.81079 0.42449 0.0
O105 O 0.8864 0.78274 0.41755 0.0
O106 O 0.8801 0.7672 0.44587 0.0
O107 O 0.8932 0.79528 0.45275 0.0
H108 H 0.86359 0.80322 0.43008 0.0
H109 H 0.83741 0.80665 0.42282 0.0
H110 H 0.85173 0.80222 0.38571 0.0
H111 H 0.87749 0.79851 0.39304 0.0
H112 H 0.96224 0.78501 0.39885 0.0
H113 H 0.93502 0.778 0.41117 0.0
H114 H 0.99772 0.82527 0.42534 0.0
H115 H 0.97052 0.81782 0.4378 0.0
H116 H 0.90289 0.75429 0.48541 0.0
H117 H 0.85665 0.76258 0.49353 0.0
H118 H 0.85847 0.77462 0.47308 0.0
H119 H 0.90431 0.7661 0.46473 0.0
C120 C 0.07719 0.21096 0.61696 0.0
C121 C 0.0768 0.22539 0.62308 0.0
C122 C 0.04314 0.20687 0.62602 0.0
C123 C 0.06003 0.2234 0.6275 0.0
C124 C 0.04351 0.19248 0.6198 0.0
C125 C 0.06028 0.19448 0.61537 0.0
U126 U 0.11717 0.22193 0.59409 0.0
O127 O 0.1475 0.23599 0.59721 0.0
O128 O 0.13281 0.2075 0.59101 0.0
C129 C 0.14878 0.22154 0.5944 0.0
C130 C 0.09528 0.21258 0.61326 0.0
C131 C 0.16104 0.21766 0.60215 0.0
C132 C 0.16907 0.20845 0.62125 0.0
C133 C 0.15675 0.21172 0.61427 0.0
C134 C 0.18993 0.21692 0.60407 0.0
C135 C 0.18593 0.21115 0.61626 0.0
C136 C 0.17767 0.22014 0.59714 0.0
C137 C 0.11375 0.23827 0.56154 0.0
C138 C 0.13838 0.2522 0.54641 0.0
C139 C 0.10678 0.2438 0.54095 0.0
C140 C 0.10097 0.23731 0.55277 0.0
C141 C 0.12559 0.25144 0.53758 0.0
C142 C 0.13252 0.24566 0.55827 0.0
C143 C 0.10712 0.23202 0.57407 0.0
O144 O 0.09465 0.20075 0.60522 0.0
O145 O 0.10937 0.22916 0.61151 0.0
O146 O 0.11665 0.24334 0.58292 0.0
O147 O 0.102 0.21494 0.57659 0.0
H148 H 0.08955 0.23816 0.6247 0.0
H149 H 0.06043 0.2347 0.6324 0.0
H150 H 0.0308 0.17961 0.61836 0.0
H151 H 0.06001 0.18296 0.61085 0.0
H152 H 0.16556 0.20412 0.63062 0.0
H153 H 0.14397 0.20973 0.61832 0.0
H154 H 0.20252 0.21881 0.5998 0.0
H155 H 0.18121 0.22461 0.5878 0.0
H156 H 0.15293 0.25779 0.54414 0.0
H157 H 0.09655 0.24322 0.53453 0.0
H158 H 0.08644 0.23175 0.55512 0.0
H159 H 0.14263 0.2465 0.56489 0.0
C160 C 0.80265 0.87196 0.61768 0.0
C161 C 0.79992 0.85772 0.60984 0.0
C162 C 0.80735 0.84293 0.62632 0.0
C163 C 0.80224 0.84333 0.61412 0.0
C164 C 0.8099 0.85722 0.63412 0.0
C165 C 0.80758 0.87157 0.62984 0.0
U166 U 0.78975 0.89599 0.5931 0.0
O167 O 0.77491 0.91142 0.59468 0.0
O168 O 0.80366 0.92509 0.58801 0.0
C169 C 0.78944 0.9269 0.59129 0.0
C170 C 0.80055 0.88736 0.61334 0.0
C171 C 0.79385 0.94303 0.59879 0.0
C172 C 0.80168 0.95919 0.61816 0.0
C173 C 0.79788 0.94372 0.61127 0.0
C174 C 0.79763 0.97341 0.60015 0.0
C175 C 0.80147 0.9742 0.61269 0.0
C176 C 0.79385 0.958 0.5933 0.0
C177 C 0.77236 0.87231 0.56197 0.0
C178 C 0.76219 0.88424 0.54528 0.0
C179 C 0.76216 0.85573 0.54285 0.0
C180 C 0.76896 0.85733 0.55472 0.0
C181 C 0.75858 0.8691 0.53798 0.0
C182 C 0.76901 0.88582 0.55718 0.0
C183 C 0.77923 0.87338 0.5745 0.0
O184 O 0.81211 0.89742 0.60473 0.0
O185 O 0.78337 0.88368 0.61138 0.0
O186 O 0.7679 0.87228 0.58321 0.0
O187 O 0.79663 0.88598 0.57653 0.0
H188 H 0.79612 0.8578 0.6004 0.0
H189 H 0.80035 0.83269 0.60782 0.0
H190 H 0.81352 0.85724 0.6436 0.0
H191 H 0.80966 0.8824 0.63603 0.0
H192 H 0.80445 0.95927 0.62781 0.0
H193 H 0.79795 0.93227 0.61567 0.0
H194 H 0.79769 0.9848 0.59556 0.0
H195 H 0.79088 0.95776 0.58367 0.0
H196 H 0.75943 0.8947 0.54186 0.0
H197 H 0.75985 0.84406 0.53746 0.0
H198 H 0.77155 0.84681 0.55825 0.0
H199 H 0.77154 0.89749 0.56268 0.0
C200 C 0.07727 0.86381 0.6162 0.0
C201 C 0.06011 0.86235 0.613 0.0
C202 C 0.04322 0.83475 0.62533 0.0
C203 C 0.04332 0.848 0.61749 0.0
C204 C 0.06038 0.83613 0.62842 0.0
C205 C 0.07715 0.85049 0.62396 0.0
U206 U 0.11746 0.89168 0.59339 0.0
O207 O 0.13316 0.92138 0.59014 0.0
O208 O 0.14772 0.90732 0.59674 0.0
C209 C 0.14905 0.92301 0.59379 0.0
C210 C 0.09532 0.87986 0.61243 0.0
C211 C 0.16092 0.93878 0.60167 0.0
C212 C 0.16699 0.95662 0.62025 0.0
C213 C 0.15517 0.94126 0.61316 0.0
C214 C 0.19031 0.96706 0.60443 0.0
C215 C 0.18477 0.96971 0.61598 0.0
C216 C 0.17854 0.95179 0.59739 0.0
C217 C 0.11611 0.87267 0.561 0.0
C218 C 0.11739 0.87959 0.53931 0.0
C219 C 0.1329 0.86376 0.54693 0.0
C220 C 0.12693 0.86442 0.55873 0.0
C221 C 0.1281 0.8712 0.53703 0.0
C222 C 0.11143 0.88027 0.55113 0.0
C223 C 0.10841 0.87191 0.57337 0.0
O224 O 0.10943 0.87705 0.6109 0.0
O225 O 0.09471 0.89087 0.60419 0.0
O226 O 0.10276 0.88362 0.57575 0.0
O227 O 0.11717 0.86959 0.5826 0.0
H228 H 0.05961 0.87243 0.60715 0.0
H229 H 0.03039 0.8473 0.61481 0.0
H230 H 0.06092 0.82637 0.63457 0.0
H231 H 0.0901 0.85136 0.62681 0.0
H232 H 0.16229 0.95813 0.62913 0.0
H233 H 0.1416 0.93135 0.61663 0.0
H234 H 0.20368 0.97694 0.6007 0.0
H235 H 0.18321 0.95018 0.58852 0.0
H236 H 0.11356 0.88563 0.53196 0.0
H237 H 0.14085 0.85692 0.54552 0.0
H238 H 0.13051 0.8581 0.56604 0.0
H239 H 0.10292 0.88652 0.55247 0.0
C240 C 0.88004 0.47219 0.74713 0.0
C241 C 0.882 0.48601 0.75511 0.0
C242 C 0.87441 0.50076 0.73868 0.0
C243 C 0.87922 0.50017 0.75093 0.0
C244 C 0.87263 0.4869 0.73074 0.0
C245 C 0.87541 0.47279 0.73493 0.0
U246 U 0.89417 0.4483 0.77121 0.0
O247 O 0.88098 0.41914 0.77592 0.0
O248 O 0.90963 0.43351 0.76908 0.0
C249 C 0.8954 0.4178 0.77243 0.0
C250 C 0.88267 0.45703 0.7513 0.0
C251 C 0.89133 0.40188 0.76479 0.0
C252 C 0.87744 0.38273 0.74693 0.0
C253 C 0.88127 0.39818 0.75385 0.0
C254 C 0.89378 0.37465 0.76178 0.0
C255 C 0.88369 0.37077 0.7508 0.0
C256 C 0.89755 0.39003 0.76867 0.0
C257 C 0.91183 0.4708 0.80251 0.0
C258 C 0.92549 0.46005 0.81777 0.0
C259 C 0.91947 0.48458 0.82264 0.0
C260 C 0.91239 0.48353 0.8109 0.0
C261 C 0.92618 0.47291 0.82622 0.0
C262 C 0.91834 0.45898 0.80602 0.0
C263 C 0.90465 0.47028 0.79014 0.0
O264 O 0.90001 0.46106 0.75307 0.0
O265 O 0.87139 0.44668 0.75993 0.0
O266 O 0.8873 0.45757 0.78813 0.0
O267 O 0.91587 0.47199 0.78118 0.0
H268 H 0.88559 0.48578 0.76458 0.0
H269 H 0.88055 0.51049 0.75733 0.0
H270 H 0.86929 0.48705 0.72122 0.0
H271 H 0.87393 0.4623 0.72861 0.0
H272 H 0.86979 0.38027 0.73847 0.0
H273 H 0.87638 0.40722 0.75068 0.0
H274 H 0.89856 0.36565 0.76516 0.0
H275 H 0.90527 0.39261 0.77712 0.0
H276 H 0.93034 0.45072 0.82026 0.0
H277 H 0.92001 0.4948 0.82883 0.0
H278 H 0.90747 0.4928 0.80834 0.0
H279 H 0.91794 0.44899 0.79967 0.0
C280 C 0.61268 0.47924 0.74586 0.0
C281 C 0.61972 0.49693 0.7506 0.0
C282 C 0.6466 0.50863 0.73702 0.0
C283 C 0.63648 0.51148 0.7462 0.0
C284 C 0.63955 0.4908 0.73245 0.0
C285 C 0.6228 0.47631 0.73682 0.0
U286 U 0.57303 0.45379 0.76918 0.0
O287 O 0.54272 0.4381 0.76611 0.0
O288 O 0.55718 0.42438 0.77349 0.0
C289 C 0.54132 0.42258 0.76964 0.0
C290 C 0.59466 0.46373 0.74989 0.0
C291 C 0.52942 0.40632 0.76213 0.0
C292 C 0.52085 0.38963 0.74292 0.0
C293 C 0.53291 0.40522 0.74975 0.0
C294 C 0.50188 0.37614 0.76079 0.0
C295 C 0.50506 0.37494 0.74835 0.0
C296 C 0.5139 0.39163 0.76757 0.0
C297 C 0.57642 0.47595 0.80066 0.0
C298 C 0.5549 0.46187 0.81754 0.0
C299 C 0.57996 0.49319 0.81916 0.0
C300 C 0.58589 0.4921 0.80745 0.0
C301 C 0.56436 0.47813 0.82439 0.0
C302 C 0.56086 0.4608 0.80577 0.0
C303 C 0.58325 0.47536 0.78837 0.0
O304 O 0.59545 0.45347 0.75861 0.0
O305 O 0.58088 0.46706 0.75124 0.0
O306 O 0.57382 0.47676 0.77919 0.0
O307 O 0.58823 0.46302 0.78657 0.0
H308 H 0.6122 0.49952 0.75763 0.0
H309 H 0.64157 0.52496 0.75005 0.0
H310 H 0.64675 0.48807 0.72528 0.0
H311 H 0.61761 0.4628 0.733 0.0
H312 H 0.52369 0.38924 0.73335 0.0
H313 H 0.54482 0.41644 0.74537 0.0
H314 H 0.49013 0.36501 0.76536 0.0
H315 H 0.511 0.39216 0.77712 0.0
H316 H 0.54275 0.45005 0.82121 0.0
H317 H 0.58781 0.50583 0.82419 0.0
H318 H 0.59798 0.50391 0.8037 0.0
H319 H 0.55333 0.4482 0.80066 0.0
C320 C 0.54057 0.13661 0.74551 0.0
C321 C 0.52393 0.12898 0.75216 0.0
C322 C 0.51019 0.14044 0.73723 0.0
C323 C 0.50887 0.13084 0.74805 0.0
C324 C 0.52698 0.14808 0.73067 0.0
C325 C 0.54195 0.14618 0.73477 0.0
U326 U 0.56817 0.12406 0.76847 0.0
O327 O 0.5847 0.11068 0.76497 0.0
O328 O 0.59844 0.13867 0.7721 0.0
C329 C 0.60058 0.12531 0.76781 0.0
C330 C 0.55663 0.1347 0.74939 0.0
C331 C 0.61667 0.13053 0.75955 0.0
C332 C 0.6304 0.12595 0.74121 0.0
C333 C 0.61469 0.12199 0.74822 0.0
C334 C 0.65034 0.14733 0.75655 0.0
C335 C 0.64849 0.13851 0.74534 0.0
C336 C 0.63466 0.14335 0.76356 0.0
C337 C 0.54626 0.10541 0.80045 0.0
C338 C 0.55769 0.09376 0.81666 0.0
C339 C 0.5298 0.09565 0.81972 0.0
C340 C 0.53156 0.10281 0.80801 0.0
C341 C 0.54272 0.09085 0.82421 0.0
C342 C 0.55942 0.10094 0.80486 0.0
C343 C 0.54706 0.11249 0.78802 0.0
O344 O 0.5673 0.1459 0.75797 0.0
O345 O 0.5535 0.11794 0.75084 0.0
O346 O 0.5457 0.10175 0.77895 0.0
O347 O 0.55943 0.12973 0.78609 0.0
H348 H 0.52257 0.12157 0.7605 0.0
H349 H 0.49626 0.12493 0.75342 0.0
H350 H 0.52849 0.15528 0.72222 0.0
H351 H 0.55463 0.15212 0.72946 0.0
H352 H 0.62835 0.11871 0.73271 0.0
H353 H 0.60106 0.11195 0.74487 0.0
H354 H 0.66395 0.1573 0.75998 0.0
H355 H 0.63665 0.15009 0.77227 0.0
H356 H 0.56785 0.09015 0.81978 0.0
H357 H 0.51831 0.09397 0.8253 0.0
H358 H 0.5213 0.10625 0.80481 0.0
H359 H 0.57089 0.10284 0.79916 0.0
C360 C 0.74455 0.54284 0.94869 0.0
C361 C 0.73403 0.54801 0.94135 0.0
C362 C 0.71056 0.53908 0.95736 0.0
C363 C 0.71717 0.54611 0.94564 0.0
C364 C 0.72114 0.53373 0.96455 0.0
C365 C 0.73789 0.53561 0.96027 0.0
U366 U 0.78449 0.55509 0.9255 0.0
O367 O 0.81479 0.56956 0.92887 0.0
O368 O 0.80064 0.54117 0.92252 0.0
C369 C 0.81641 0.55528 0.92612 0.0
C370 C 0.76258 0.54498 0.9447 0.0
C371 C 0.82856 0.55154 0.93411 0.0
C372 C 0.83463 0.53886 0.95239 0.0
C373 C 0.82253 0.54228 0.94526 0.0
C374 C 0.85879 0.55391 0.93731 0.0
C375 C 0.85299 0.54471 0.94853 0.0
C376 C 0.84675 0.55728 0.93023 0.0
C377 C 0.78157 0.57208 0.89308 0.0
C378 C 0.80407 0.57962 0.87674 0.0
C379 C 0.77759 0.58397 0.87379 0.0
C380 C 0.77151 0.57754 0.88558 0.0
C381 C 0.79395 0.5851 0.86915 0.0
C382 C 0.79793 0.57316 0.88859 0.0
C383 C 0.77461 0.56539 0.90549 0.0
O384 O 0.76187 0.53349 0.93637 0.0
O385 O 0.77617 0.56179 0.9429 0.0
O386 O 0.78377 0.57657 0.91448 0.0
O387 O 0.76979 0.54834 0.90785 0.0
H388 H 0.73892 0.55364 0.93237 0.0
H389 H 0.7095 0.55049 0.93987 0.0
H390 H 0.71642 0.52795 0.97351 0.0
H391 H 0.74572 0.53144 0.96606 0.0
H392 H 0.82968 0.53187 0.961 0.0
H393 H 0.80853 0.53771 0.94843 0.0
H394 H 0.87261 0.55831 0.93386 0.0
H395 H 0.85167 0.56434 0.92163 0.0
H396 H 0.81664 0.58013 0.87349 0.0
H397 H 0.7696 0.58836 0.86837 0.0
H398 H 0.75889 0.5769 0.88888 0.0
H399 H 0.80591 0.56899 0.89423 0.0
C400 C 0.47227 0.20497 0.94888 0.0
C401 C 0.46646 0.18925 0.94175 0.0
C402 C 0.47816 0.17646 0.95709 0.0
C403 C 0.46935 0.17511 0.94583 0.0
C404 C 0.48399 0.19232 0.96414 0.0
C405 C 0.48108 0.2064 0.96007 0.0
U406 U 0.45603 0.22848 0.92574 0.0
O407 O 0.44029 0.24278 0.92897 0.0
O408 O 0.46842 0.25764 0.92126 0.0
C409 C 0.45421 0.25868 0.92561 0.0
C410 C 0.46911 0.21991 0.94497 0.0
C411 C 0.45852 0.27438 0.93364 0.0
C412 C 0.4797 0.29971 0.94666 0.0
C413 C 0.4756 0.28409 0.93985 0.0
C414 C 0.44954 0.29583 0.94143 0.0
C415 C 0.4668 0.30593 0.94741 0.0
C416 C 0.4455 0.2803 0.93461 0.0
C417 C 0.43626 0.20588 0.89461 0.0
C418 C 0.4326 0.22052 0.87651 0.0
C419 C 0.4169 0.18751 0.87775 0.0
C420 C 0.42454 0.18879 0.88932 0.0
C421 C 0.42086 0.20335 0.87116 0.0
C422 C 0.44017 0.22178 0.88815 0.0
C423 C 0.44441 0.20667 0.90672 0.0
O424 O 0.47972 0.23026 0.93609 0.0
O425 O 0.45161 0.21563 0.94378 0.0
O426 O 0.43375 0.20468 0.91608 0.0
O427 O 0.46184 0.21951 0.90834 0.0
H428 H 0.45965 0.18792 0.93307 0.0
H429 H 0.46484 0.16319 0.9401 0.0
H430 H 0.49053 0.19375 0.97293 0.0
H431 H 0.48559 0.2184 0.96572 0.0
H432 H 0.49318 0.30718 0.95106 0.0
H433 H 0.48592 0.27983 0.93929 0.0
H434 H 0.4391 0.29994 0.94198 0.0
H435 H 0.43222 0.27302 0.92993 0.0
H436 H 0.43578 0.23297 0.87175 0.0
H437 H 0.40814 0.17408 0.87386 0.0
H438 H 0.42139 0.17636 0.89413 0.0
H439 H 0.44912 0.23514 0.89209 0.0
C440 C 0.742 0.20102 0.94942 0.0
C441 C 0.73177 0.18522 0.94235 0.0
C442 C 0.70806 0.17166 0.95824 0.0
C443 C 0.71497 0.17066 0.94673 0.0
C444 C 0.71846 0.18759 0.96524 0.0
C445 C 0.73519 0.20206 0.96087 0.0
U446 U 0.78105 0.22665 0.92567 0.0
O447 O 0.79644 0.25607 0.92135 0.0
O448 O 0.81137 0.24273 0.92857 0.0
C449 C 0.81247 0.25813 0.92509 0.0
C450 C 0.75979 0.21657 0.94517 0.0
C451 C 0.82429 0.27446 0.93256 0.0
C452 C 0.83334 0.2909 0.95186 0.0
C453 C 0.82127 0.27529 0.94506 0.0
C454 C 0.85138 0.30497 0.93374 0.0
C455 C 0.8487 0.30589 0.9463 0.0
C456 C 0.83934 0.28946 0.92698 0.0
C457 C 0.77798 0.20485 0.89412 0.0
C458 C 0.79543 0.22009 0.87583 0.0
C459 C 0.77782 0.18707 0.87666 0.0
C460 C 0.77219 0.18795 0.88851 0.0
C461 C 0.78938 0.20311 0.87008 0.0
C462 C 0.78978 0.22095 0.88773 0.0
C463 C 0.77106 0.20515 0.90646 0.0
O464 O 0.7736 0.21333 0.94364 0.0
O465 O 0.75861 0.22658 0.93642 0.0
O466 O 0.76566 0.21716 0.90838 0.0
O467 O 0.78061 0.20386 0.9156 0.0
H468 H 0.73676 0.18415 0.93347 0.0
H469 H 0.7073 0.15873 0.94102 0.0
H470 H 0.71382 0.18879 0.97421 0.0
H471 H 0.7429 0.2141 0.96649 0.0
H472 H 0.8309 0.29107 0.96152 0.0
H473 H 0.80972 0.26384 0.94955 0.0
H474 H 0.86279 0.31632 0.92908 0.0
H475 H 0.84189 0.28914 0.91735 0.0
H476 H 0.80422 0.23274 0.87105 0.0
H477 H 0.77318 0.17375 0.87269 0.0
H478 H 0.76316 0.17535 0.89328 0.0
H479 H 0.79445 0.23417 0.89189 0.0
C480 C 0.55039 0.80687 0.08008 0.0
C481 C 0.5486 0.81871 0.0882 0.0
C482 C 0.54481 0.83529 0.07119 0.0
C483 C 0.54582 0.83279 0.0838 0.0
C484 C 0.54693 0.8235 0.06313 0.0
C485 C 0.54966 0.80946 0.06754 0.0
U486 U 0.56387 0.78231 0.10425 0.0
O487 O 0.55017 0.75304 0.10876 0.0
O488 O 0.57886 0.7671 0.10198 0.0
C489 C 0.56443 0.75145 0.10521 0.0
C490 C 0.55275 0.79158 0.08439 0.0
C491 C 0.56012 0.73562 0.0974 0.0
C492 C 0.546 0.71686 0.0794 0.0
C493 C 0.54997 0.7322 0.08652 0.0
C494 C 0.56232 0.70833 0.09396 0.0
C495 C 0.55218 0.70475 0.08303 0.0
C496 C 0.56624 0.72358 0.10105 0.0
C497 C 0.58187 0.80473 0.13566 0.0
C498 C 0.59134 0.79155 0.15198 0.0
C499 C 0.59322 0.82084 0.15487 0.0
C500 C 0.58632 0.81984 0.14309 0.0
C501 C 0.59581 0.80671 0.1595 0.0
C502 C 0.58441 0.79056 0.14016 0.0
C503 C 0.57473 0.80419 0.12326 0.0
O504 O 0.57 0.79531 0.08616 0.0
O505 O 0.54135 0.7813 0.09301 0.0
O506 O 0.55731 0.79166 0.12125 0.0
O507 O 0.58589 0.80569 0.11432 0.0
H508 H 0.54917 0.81697 0.09793 0.0
H509 H 0.54412 0.84148 0.09028 0.0
H510 H 0.54661 0.82519 0.05338 0.0
H511 H 0.55112 0.80054 0.06112 0.0
H512 H 0.53831 0.71464 0.07098 0.0
H513 H 0.54516 0.74137 0.08353 0.0
H514 H 0.56705 0.6992 0.09716 0.0
H515 H 0.57402 0.72595 0.10944 0.0
H516 H 0.59299 0.78034 0.15526 0.0
H517 H 0.5968 0.83286 0.16028 0.0
H518 H 0.58454 0.83095 0.13975 0.0
H519 H 0.58103 0.77877 0.13454 0.0
C520 C 0.27757 0.81453 0.07842 0.0
C521 C 0.29229 0.82493 0.08652 0.0
C522 C 0.3117 0.84381 0.06972 0.0
C523 C 0.30919 0.83938 0.0822 0.0
C524 C 0.29679 0.83342 0.0617 0.0
C525 C 0.27997 0.81897 0.06601 0.0
U526 U 0.23851 0.78762 0.10197 0.0
O527 O 0.20816 0.77166 0.09907 0.0
O528 O 0.22313 0.75803 0.10569 0.0
C529 C 0.20708 0.75612 0.10217 0.0
C530 C 0.25981 0.79869 0.08251 0.0
C531 C 0.19514 0.7401 0.09448 0.0
C532 C 0.18802 0.72271 0.0756 0.0
C533 C 0.19998 0.73819 0.08256 0.0
C534 C 0.16642 0.71098 0.09243 0.0
C535 C 0.171 0.70893 0.08043 0.0
C536 C 0.17833 0.72635 0.09933 0.0
C537 C 0.24145 0.80807 0.13394 0.0
C538 C 0.21786 0.79403 0.1497 0.0
C539 C 0.24588 0.82287 0.15363 0.0
C540 C 0.25219 0.82258 0.14188 0.0
C541 C 0.22863 0.80861 0.15773 0.0
C542 C 0.22423 0.79376 0.13792 0.0
C543 C 0.2485 0.80836 0.12156 0.0
O544 O 0.26095 0.78824 0.09096 0.0
O545 O 0.24587 0.80169 0.08421 0.0
O546 O 0.23893 0.80994 0.11255 0.0
O547 O 0.25384 0.79638 0.11935 0.0
H548 H 0.29076 0.82181 0.09615 0.0
H549 H 0.32026 0.84719 0.08867 0.0
H550 H 0.29823 0.83619 0.05202 0.0
H551 H 0.26885 0.8111 0.05958 0.0
H552 H 0.19197 0.72167 0.06638 0.0
H553 H 0.21291 0.74867 0.07864 0.0
H554 H 0.15368 0.70056 0.09657 0.0
H555 H 0.17437 0.72751 0.10854 0.0
H556 H 0.20461 0.78273 0.15256 0.0
H557 H 0.25442 0.83447 0.15942 0.0
H558 H 0.26548 0.8338 0.13896 0.0
H559 H 0.21573 0.78241 0.13192 0.0
C560 C 0.20611 0.46773 0.07903 0.0
C561 C 0.19059 0.4531 0.07333 0.0
C562 C 0.17584 0.47171 0.07039 0.0
C563 C 0.17566 0.45503 0.06912 0.0
C564 C 0.19128 0.48629 0.0762 0.0
C565 C 0.20621 0.48435 0.08042 0.0
U566 U 0.23599 0.45693 0.10134 0.0
O567 O 0.25212 0.44307 0.09782 0.0
O568 O 0.26641 0.47155 0.10402 0.0
C569 C 0.26816 0.45767 0.10037 0.0
C570 C 0.22274 0.46619 0.08246 0.0
C571 C 0.28395 0.4618 0.09218 0.0
C572 C 0.30398 0.47746 0.07485 0.0
C573 C 0.28827 0.47327 0.08198 0.0
C574 C 0.31106 0.45866 0.08795 0.0
C575 C 0.31572 0.47036 0.07782 0.0
C576 C 0.29541 0.45447 0.09501 0.0
C577 C 0.21625 0.44044 0.13412 0.0
C578 C 0.22405 0.42421 0.14931 0.0
C579 C 0.20399 0.43627 0.1547 0.0
C580 C 0.20563 0.44313 0.1429 0.0
C581 C 0.21296 0.42649 0.15806 0.0
C582 C 0.22564 0.43107 0.13743 0.0
C583 C 0.21627 0.44673 0.12152 0.0
O584 O 0.23441 0.47804 0.09041 0.0
O585 O 0.22014 0.44964 0.08412 0.0
O586 O 0.21422 0.43541 0.11267 0.0
O587 O 0.22847 0.46383 0.11902 0.0
H588 H 0.19013 0.4402 0.07187 0.0
H589 H 0.16421 0.44357 0.06454 0.0
H590 H 0.19188 0.49928 0.07748 0.0
H591 H 0.21798 0.49601 0.08461 0.0
H592 H 0.30715 0.48658 0.06717 0.0
H593 H 0.27964 0.47912 0.07962 0.0
H594 H 0.31947 0.45262 0.09041 0.0
H595 H 0.29233 0.44555 0.10281 0.0
H596 H 0.23108 0.41667 0.15154 0.0
H597 H 0.19563 0.43861 0.16121 0.0
H598 H 0.19829 0.45034 0.14056 0.0
H599 H 0.23391 0.42879 0.13081 0.0
C600 C 0.41057 0.87891 0.28219 0.0
C601 C 0.40963 0.89381 0.2871 0.0
C602 C 0.37653 0.8743 0.29167 0.0
C603 C 0.39285 0.89155 0.29173 0.0
C604 C 0.37744 0.85947 0.28659 0.0
C605 C 0.39421 0.86173 0.28197 0.0
U606 U 0.45168 0.89138 0.2598 0.0
O607 O 0.48174 0.90474 0.26367 0.0
O608 O 0.46715 0.87679 0.25645 0.0
C609 C 0.48285 0.89019 0.26082 0.0
C610 C 0.42874 0.88072 0.27848 0.0
C611 C 0.49384 0.88507 0.26903 0.0
C612 C 0.51347 0.89047 0.28695 0.0
C613 C 0.50138 0.89417 0.28011 0.0
C614 C 0.51042 0.86822 0.27196 0.0
C615 C 0.51835 0.87759 0.2829 0.0
C616 C 0.49839 0.87195 0.26512 0.0
C617 C 0.45005 0.91051 0.22776 0.0
C618 C 0.47141 0.91697 0.21084 0.0
C619 C 0.44698 0.92463 0.20923 0.0
C620 C 0.44096 0.91781 0.22095 0.0
C621 C 0.46232 0.92438 0.20398 0.0
C622 C 0.46535 0.91013 0.22264 0.0
C623 C 0.44297 0.90327 0.24004 0.0
O624 O 0.42828 0.86951 0.27002 0.0
O625 O 0.44302 0.89735 0.27733 0.0
O626 O 0.45216 0.91386 0.24928 0.0
O627 O 0.43766 0.88599 0.24197 0.0
H628 H 0.42196 0.9072 0.28765 0.0
H629 H 0.39286 0.90326 0.29572 0.0
H630 H 0.36517 0.84602 0.28622 0.0
H631 H 0.39444 0.84988 0.27842 0.0
H632 H 0.51908 0.89779 0.29541 0.0
H633 H 0.49825 0.90442 0.2834 0.0
H634 H 0.51399 0.8584 0.26843 0.0
H635 H 0.49303 0.86491 0.25654 0.0
H636 H 0.48336 0.91668 0.20717 0.0
H637 H 0.43937 0.92987 0.2042 0.0
H638 H 0.42906 0.91814 0.2247 0.0
H639 H 0.47259 0.90456 0.22775 0.0
C640 C 0.13469 0.5377 0.28229 0.0
C641 C 0.12986 0.52242 0.27491 0.0
C642 C 0.13994 0.50893 0.29079 0.0
C643 C 0.13248 0.50816 0.27911 0.0
C644 C 0.14484 0.52438 0.29808 0.0
C645 C 0.14223 0.53859 0.29387 0.0
U646 U 0.11975 0.56133 0.25848 0.0
O647 O 0.1041 0.57589 0.26098 0.0
O648 O 0.13256 0.59044 0.25378 0.0
C649 C 0.11821 0.59167 0.25761 0.0
C650 C 0.13186 0.55277 0.27818 0.0
C651 C 0.12232 0.60758 0.26532 0.0
C652 C 0.14179 0.63131 0.27987 0.0
C653 C 0.13763 0.61546 0.27332 0.0
C654 C 0.11513 0.63128 0.27075 0.0
C655 C 0.13072 0.63957 0.27855 0.0
C656 C 0.11103 0.61552 0.26421 0.0
C657 C 0.1015 0.53888 0.22725 0.0
C658 C 0.09093 0.55186 0.21146 0.0
C659 C 0.09054 0.5234 0.2078 0.0
C660 C 0.09768 0.52426 0.21949 0.0
C661 C 0.08706 0.53718 0.20361 0.0
C662 C 0.09811 0.55271 0.22317 0.0
C663 C 0.10894 0.53937 0.23953 0.0
O664 O 0.1429 0.56308 0.26944 0.0
O665 O 0.11445 0.54862 0.2766 0.0
O666 O 0.09789 0.53758 0.24861 0.0
O667 O 0.12631 0.55215 0.24141 0.0
H668 H 0.12397 0.52148 0.26593 0.0
H669 H 0.12836 0.49641 0.27329 0.0
H670 H 0.15089 0.52561 0.30703 0.0
H671 H 0.14611 0.55031 0.29969 0.0
H672 H 0.15396 0.63735 0.28572 0.0
H673 H 0.14654 0.60956 0.27435 0.0
H674 H 0.10606 0.63699 0.26968 0.0
H675 H 0.09912 0.60963 0.25813 0.0
H676 H 0.08861 0.5628 0.2085 0.0
H677 H 0.08746 0.51175 0.20212 0.0
H678 H 0.10016 0.51343 0.2225 0.0
H679 H 0.10102 0.56414 0.22903 0.0
C680 C 0.40728 0.52993 0.28268 0.0
C681 C 0.39071 0.52332 0.27589 0.0
C682 C 0.37337 0.50047 0.29151 0.0
C683 C 0.37395 0.50879 0.28028 0.0
C684 C 0.39005 0.50692 0.29815 0.0
C685 C 0.40675 0.52149 0.29381 0.0
U686 U 0.44682 0.55772 0.25962 0.0
O687 O 0.4614 0.58729 0.25567 0.0
O688 O 0.477 0.57455 0.2628 0.0
C689 C 0.47748 0.58984 0.25973 0.0
C690 C 0.42497 0.54615 0.27878 0.0
C691 C 0.48843 0.60603 0.26761 0.0
C692 C 0.50567 0.62029 0.28626 0.0
C693 C 0.49372 0.60455 0.27955 0.0
C694 C 0.50683 0.63918 0.26934 0.0
C695 C 0.51264 0.63782 0.28116 0.0
C696 C 0.49493 0.6235 0.26267 0.0
C697 C 0.44469 0.53683 0.22782 0.0
C698 C 0.46432 0.55249 0.21039 0.0
C699 C 0.44298 0.51988 0.20952 0.0
C700 C 0.43713 0.52034 0.22137 0.0
C701 C 0.45656 0.53595 0.20381 0.0
C702 C 0.45842 0.55292 0.22229 0.0
C703 C 0.43769 0.53676 0.24017 0.0
O704 O 0.43935 0.54373 0.27741 0.0
O705 O 0.42386 0.55657 0.2703 0.0
O706 O 0.43182 0.54839 0.24218 0.0
O707 O 0.44746 0.5357 0.24926 0.0
H708 H 0.39062 0.52948 0.26726 0.0
H709 H 0.36144 0.50404 0.27485 0.0
H710 H 0.39013 0.50103 0.3069 0.0
H711 H 0.41927 0.5264 0.29927 0.0
H712 H 0.50993 0.61867 0.29529 0.0
H713 H 0.48898 0.59127 0.28362 0.0
H714 H 0.51158 0.65241 0.26518 0.0
H715 H 0.4911 0.62503 0.25348 0.0
H716 H 0.4747 0.56515 0.20627 0.0
H717 H 0.43694 0.50685 0.20488 0.0
H718 H 0.42658 0.50775 0.2255 0.0
H719 H 0.46445 0.56581 0.22712 0.0
Eu720 Eu 0.50284 0.99457 0.99882 0.0
C721 C 0.54437 0.05958 0.03513 0.0
C722 C 0.57676 0.068 0.03309 0.0
C723 C 0.56864 0.09113 0.03825 0.0
C724 C 0.55767 0.05476 0.03264 0.0
C725 C 0.54969 0.07774 0.03823 0.0
C726 C 0.58216 0.08627 0.03566 0.0
C727 C 0.51725 0.0678 0.04185 0.0
N728 N 0.52621 0.04633 0.03503 0.0
C729 C 0.51268 0.04998 0.03874 0.0
C730 C 0.53582 0.08179 0.04145 0.0
Eu731 Eu 0.5194 0.01679 0.0289 0.0
N732 N 0.55197 0.03699 0.03019 0.0
C733 C 0.56469 0.0313 0.02896 0.0
C734 C 0.58985 0.06242 0.03116 0.0
C735 C 0.58378 0.04394 0.02925 0.0
H736 H 0.4983 0.03921 0.03896 0.0
H737 H 0.59378 0.03942 0.02795 0.0
H738 H 0.59675 0.09667 0.03592 0.0
H739 H 0.50646 0.07073 0.04452 0.0
H740 H 0.56022 0.0171 0.02739 0.0
H741 H 0.42828 0.97116 1.00001 0.0
H742 H 0.60464 0.07218 0.03136 0.0
H743 H 0.52427 0.97279 0.98825 0.0
H744 H 0.46175 0.9937 1.00065 0.0
H745 H 0.51643 0.9416 0.98207 0.0
H746 H 0.57301 0.1052 0.04049 0.0
H747 H 0.41773 0.93856 0.99619 0.0
H748 H 0.42596 0.91444 0.99112 0.0
H749 H 0.53934 0.09558 0.04388 0.0
H750 H 0.44992 0.9064 0.98616 0.0
N751 N 0.4703 0.9741 0.99754 0.0
C752 C 0.45744 0.97958 0.99892 0.0
C753 C 0.4325 0.94842 0.99645 0.0
C754 C 0.44572 0.94307 0.99434 0.0
C755 C 0.43839 0.96681 0.99858 0.0
C756 C 0.46477 0.95643 0.99488 0.0
H757 H 0.48367 0.91648 0.98256 0.0
N758 N 0.4963 0.96525 0.99236 0.0
C759 C 0.50555 0.94428 0.98495 0.0
C760 C 0.4782 0.95186 0.99219 0.0
C761 C 0.50994 0.96191 0.98842 0.0
C762 C 0.48704 0.93013 0.98527 0.0
C763 C 0.47306 0.93387 0.98876 0.0
O764 O 0.51688 1.0015 0.98118 0.0
O765 O 0.5258 0.01735 1.0092 0.0
O766 O 0.51578 0.03649 0.01675 0.0
O767 O 0.49446 0.01619 1.00258 0.0
O768 O 0.5337 1.0046 0.99658 0.0
O769 O 0.49288 1.00469 0.9839 0.0
O770 O 0.50492 0.00971 0.04637 0.0
O771 O 0.49643 0.99393 0.01857 0.0
O772 O 0.5066 0.97476 1.01084 0.0
O773 O 0.52739 0.99487 0.02533 0.0
O774 O 0.48861 0.00697 0.03105 0.0
O775 O 0.52951 0.00736 0.04414 0.0
C776 C 0.53978 0.01787 1.00428 0.0
C777 C 0.49856 0.99843 0.96387 0.0
C778 C 0.49848 1.00301 0.94182 0.0
C779 C 0.50503 0.01 0.95361 0.0
C780 C 0.48561 0.98423 0.94054 0.0
C781 C 0.48567 0.97983 0.96231 0.0
C782 C 0.4793 0.97279 0.9507 0.0
C783 C 0.50344 0.03248 1.0079 0.0
C784 C 0.5053 0.00579 0.97617 0.0
C785 C 0.45415 0.92034 0.98865 0.0
C786 C 0.44051 0.92493 0.99146 0.0
C787 C 0.48249 0.99354 0.02347 0.0
C788 C 0.52277 0.01334 0.06398 0.0
C789 C 0.5152 1.00193 0.07423 0.0
C790 C 0.52024 0.00919 0.0861 0.0
C791 C 0.53314 0.02792 0.08749 0.0
C792 C 0.53565 0.03193 0.06563 0.0
C793 C 0.54082 0.03914 0.07733 0.0
C794 C 0.51855 0.97862 0.01995 0.0
C795 C 0.51667 0.00589 0.05164 0.0
H796 H 0.51488 0.02442 0.95484 0.0
H797 H 0.48053 0.97828 0.93164 0.0
H798 H 0.48054 0.97075 0.97006 0.0
H799 H 0.46941 0.95839 0.94956 0.0
H800 H 0.50512 0.98758 0.07298 0.0
H801 H 0.53744 0.03387 0.09647 0.0
H802 H 0.54162 0.04087 0.05787 0.0
H803 H 0.55077 0.05351 0.07853 0.0
Eu804 Eu 0.02271 0.5112 0.99982 0.0
C805 C 0.95313 0.48184 0.03311 0.0
C806 C 0.94394 0.50483 0.03129 0.0
C807 C 0.92051 0.47315 0.03495 0.0
C808 C 0.95781 0.49979 0.03117 0.0
C809 C 0.93449 0.46837 0.03531 0.0
C810 C 0.92523 0.49134 0.03292 0.0
C811 C 0.94511 0.44682 0.039 0.0
N812 N 0.96698 0.47773 0.03345 0.0
C813 C 0.96338 0.46067 0.03677 0.0
C814 C 0.93056 0.45062 0.03812 0.0
Eu815 Eu 0.99739 0.50155 0.02886 0.0
N816 N 0.97603 0.51247 0.02969 0.0
C817 C 0.98149 0.53062 0.02921 0.0
C818 C 0.94937 0.52331 0.03007 0.0
C819 C 0.96825 0.53629 0.02921 0.0
H820 H 0.97459 0.45766 0.03736 0.0
H821 H 0.97263 0.55066 0.02849 0.0
H822 H 0.91436 0.49492 0.03291 0.0
H823 H 0.94225 0.43322 0.04137 0.0
H824 H 0.99601 0.54079 0.02845 0.0
H825 H 0.04859 0.46338 0.99662 0.0
H826 H 0.93914 0.52774 0.03006 0.0
H827 H 0.04454 0.55596 0.99307 0.0
H828 H 0.02508 0.47268 0.99921 0.0
H829 H 0.07638 0.581 0.98878 0.0
H830 H 0.90608 0.46296 0.03649 0.0
H831 H 0.08169 0.48679 0.99348 0.0
H832 H 0.10589 0.51986 0.99123 0.0
H833 H 0.91642 0.43988 0.03987 0.0
H834 H 0.11348 0.55188 0.98926 0.0
N835 N 0.04454 0.50113 0.99787 0.0
C836 C 0.03943 0.48306 0.99793 0.0
C837 C 0.07141 0.49096 0.99478 0.0
C838 C 0.07648 0.50942 0.99438 0.0
C839 C 0.05277 0.47772 0.99649 0.0
C840 C 0.0625 0.51412 0.99582 0.0
H841 H 0.10257 0.5748 0.98826 0.0
N842 N 0.05271 0.53591 0.9953 0.0
C843 C 0.07389 0.56733 0.99046 0.0
C844 C 0.06674 0.53209 0.99459 0.0
C845 C 0.05586 0.55311 0.99285 0.0
C846 C 0.08863 0.56378 0.99019 0.0
C847 C 0.08512 0.54593 0.99205 0.0
O848 O 0.01664 0.51976 0.98246 0.0
O849 O 0.99803 0.50908 1.00937 0.0
O850 O 0.97881 0.47926 0.0156 0.0
O851 O 1.0009 0.48078 1.00184 0.0
O852 O 0.01213 0.53125 0.9981 0.0
O853 O 0.01497 0.49343 0.98383 0.0
O854 O 1.00195 0.49286 0.04667 0.0
O855 O 0.02172 0.50308 0.0192 0.0
O856 O 0.04177 0.53254 0.01345 0.0
O857 O 0.01965 0.53182 0.02678 0.0
O858 O 1.00804 0.48152 0.03099 0.0
O859 O 1.0059 0.52002 0.04448 0.0
C860 C 0.99771 0.52273 1.00496 0.0
C861 C 0.02249 0.50805 0.96462 0.0
C862 C 0.01935 0.50552 0.94243 0.0
C863 C 0.01126 0.50213 0.95411 0.0
C864 C 0.03893 0.51495 0.94156 0.0
C865 C 0.0419 0.5172 0.9635 0.0
C866 C 0.05005 0.52061 0.95202 0.0
C867 C 0.9839 0.47232 1.00659 0.0
C868 C 0.01376 0.50512 0.97666 0.0
C869 C 0.09926 0.54143 0.99113 0.0
C870 C 0.09493 0.5232 0.99225 0.0
C871 C 0.02202 0.48946 0.02371 0.0
C872 C 0.99646 0.50625 0.06383 0.0
C873 C 1.0069 0.51084 0.07469 0.0
C874 C 0.99825 0.50912 0.08604 0.0
C875 C 0.97895 0.50262 0.08626 0.0
C876 C 0.97731 0.49994 0.0643 0.0
C877 C 0.96862 0.49812 0.07547 0.0
C878 C 0.0368 0.53982 0.0223 0.0
C879 C 1.00569 0.50804 0.05209 0.0
H880 H 0.99625 0.49482 0.9551 0.0
H881 H 0.04575 0.51828 0.9328 0.0
H882 H 0.05074 0.52185 0.97147 0.0
H883 H 0.06506 0.52785 0.9512 0.0
H884 H 0.02175 0.51593 0.07426 0.0
H885 H 0.97173 0.50076 0.09479 0.0
H886 H 0.96908 0.4964 0.05606 0.0
H887 H 0.9538 0.49313 0.07577 0.0
Eu888 Eu 0.51743 0.50206 0.02941 0.0
C889 C 0.48259 0.53252 0.99242 0.0
C890 C 0.44969 0.51016 0.99197 0.0
C891 C 0.45997 0.54213 0.98803 0.0
C892 C 0.46836 0.51468 0.99378 0.0
C893 C 0.47859 0.54642 0.98934 0.0
C894 C 0.44555 0.52402 0.98932 0.0
C895 C 0.5117 0.56746 0.98814 0.0
N896 N 0.50041 0.53616 0.99358 0.0
C897 C 0.51496 0.55319 0.9911 0.0
C898 C 0.49343 0.56411 0.98737 0.0
Eu899 Eu 0.50478 0.51148 0.99919 0.0
N900 N 0.47283 0.50159 0.9963 0.0
C901 C 0.4594 0.48358 0.99643 0.0
C902 C 0.43579 0.49179 0.99255 0.0
C903 C 0.44069 0.47843 0.9947 0.0
H904 H 0.52911 0.55586 0.99172 0.0
H905 H 0.43009 0.46414 0.99498 0.0
H906 H 0.43127 0.52083 0.98801 0.0
H907 H 0.52327 0.58103 0.98644 0.0
H908 H 0.46298 0.47312 0.99806 0.0
H909 H 0.59212 0.54936 0.03352 0.0
H910 H 0.42133 0.48779 0.99106 0.0
H911 H 0.49273 0.45788 0.0371 0.0
H912 H 0.55946 0.54011 0.02915 0.0
H913 H 0.49812 0.43328 0.04446 0.0
H914 H 0.4566 0.55263 0.98574 0.0
H915 H 0.6004 0.52639 0.04024 0.0
H916 H 0.58973 0.49404 0.04655 0.0
H917 H 0.49094 0.57517 0.98501 0.0
H918 H 0.56445 0.46235 0.04886 0.0
N919 N 0.54936 0.51184 0.03238 0.0
C920 C 0.56287 0.5298 0.03173 0.0
C921 C 0.58607 0.52211 0.03799 0.0
C922 C 0.57206 0.50385 0.03916 0.0
C923 C 0.58144 0.53514 0.03426 0.0
C924 C 0.5536 0.49904 0.03614 0.0
H925 H 0.53026 0.43953 0.04805 0.0
N926 N 0.52155 0.47758 0.03589 0.0
C927 C 0.50982 0.44672 0.04264 0.0
C928 C 0.53925 0.48134 0.03792 0.0
C929 C 0.50682 0.46069 0.03846 0.0
C930 C 0.52798 0.45029 0.04461 0.0
C931 C 0.54295 0.46784 0.04246 0.0
O932 O 0.50285 0.49437 0.04689 0.0
O933 O 0.4957 0.50384 0.0184 0.0
O934 O 0.5069 0.53324 0.01216 0.0
O935 O 0.52729 0.53243 0.02643 0.0
O936 O 0.48626 0.48233 0.03031 0.0
O937 O 0.5261 0.52163 0.04439 0.0
O938 O 0.52019 0.51968 0.98206 0.0
O939 O 0.52633 0.50922 1.0101 0.0
O940 O 0.5147 0.47969 0.01671 0.0
O941 O 0.49525 0.48117 1.00191 0.0
O942 O 0.53601 0.53115 0.99851 0.0
O943 O 0.49545 0.49314 0.98347 0.0
C944 C 0.4811 0.49037 0.02254 0.0
C945 C 0.5206 0.50971 0.06437 0.0
C946 C 0.52016 0.5143 0.08636 0.0
C947 C 0.51317 0.51396 0.07456 0.0
C948 C 0.53448 0.51008 0.08777 0.0
C949 C 0.53486 0.50556 0.06606 0.0
C950 C 0.54171 0.50571 0.07769 0.0
C951 C 0.51873 0.54052 0.02134 0.0
C952 C 0.5138 0.5101 0.05201 0.0
C953 C 0.56134 0.47246 0.04522 0.0
C954 C 0.57579 0.49049 0.04376 0.0
C955 C 0.54101 0.5227 1.00607 0.0
C956 C 0.50293 0.50703 0.96402 0.0
C957 C 0.51032 0.50308 0.95369 0.0
C958 C 0.50552 0.50596 0.94188 0.0
C959 C 0.49302 0.51257 0.94062 0.0
C960 C 0.49046 0.51355 0.9625 0.0
C961 C 0.48553 0.51626 0.95086 0.0
C962 C 0.50323 0.47271 1.00729 0.0
C963 C 0.5086 0.50474 0.97633 0.0
H964 H 0.50224 0.51731 0.07327 0.0
H965 H 0.53997 0.50994 0.0967 0.0
H966 H 0.54077 0.50232 0.0584 0.0
H967 H 0.5527 0.50246 0.07891 0.0
H968 H 0.52006 0.49814 0.95484 0.0
H969 H 0.4889 0.51474 0.93169 0.0
H970 H 0.4846 0.51659 0.9703 0.0
H971 H 0.47588 0.52129 0.94977 0.0
Eu972 Eu 0.16973 0.32803 0.33244 0.0
C973 C 0.19683 0.39099 0.37083 0.0
C974 C 0.2301 0.40313 0.37227 0.0
C975 C 0.21707 0.4226 0.37688 0.0
C976 C 0.21209 0.38866 0.36954 0.0
C977 C 0.19911 0.40791 0.37469 0.0
C978 C 0.23249 0.42013 0.37585 0.0
C979 C 0.16565 0.39371 0.37589 0.0
N980 N 0.17964 0.37624 0.36933 0.0
C981 C 0.16412 0.37713 0.3723 0.0
C982 C 0.18322 0.40926 0.3769 0.0
Eu983 Eu 0.17797 0.34864 0.36306 0.0
N984 N 0.20914 0.37179 0.36668 0.0
C985 C 0.22346 0.36819 0.3671 0.0
C986 C 0.24502 0.39979 0.37193 0.0
C987 C 0.24165 0.38219 0.36945 0.0
H988 H 0.15049 0.36516 0.37159 0.0
H989 H 0.25302 0.37936 0.36946 0.0
H990 H 0.24608 0.43125 0.37834 0.0
H991 H 0.15328 0.39446 0.37791 0.0
H992 H 0.22096 0.35457 0.36538 0.0
H993 H 0.09549 0.30004 0.324 0.0
H994 H 0.25908 0.41053 0.37396 0.0
H995 H 0.19647 0.30932 0.32733 0.0
H996 H 0.12739 0.32367 0.32958 0.0
H997 H 0.19284 0.27964 0.32119 0.0
H998 H 0.21911 0.43568 0.37992 0.0
H999 H 0.08887 0.26902 0.31846 0.0
H1000 H 0.10109 0.24764 0.3143 0.0
H1001 H 0.18439 0.42204 0.37983 0.0
H1002 H 0.12723 0.24173 0.3142 0.0
N1003 N 0.13853 0.30588 0.32805 0.0
C1004 C 0.12464 0.31007 0.32745 0.0
C1005 C 0.10284 0.2792 0.32118 0.0
C1006 C 0.11732 0.27521 0.32129 0.0
C1007 C 0.10653 0.29673 0.32425 0.0
C1008 C 0.13525 0.289 0.32488 0.0
H1009 H 0.1615 0.25352 0.31682 0.0
N1010 N 0.1674 0.29992 0.32692 0.0
C1011 C 0.1807 0.28116 0.3221 0.0
C1012 C 0.15013 0.28589 0.32436 0.0
C1013 C 0.18271 0.29797 0.32555 0.0
C1014 C 0.16298 0.26646 0.31966 0.0
C1015 C 0.14746 0.2688 0.32055 0.0
O1016 O 0.18619 0.33468 0.31571 0.0
O1017 O 0.18936 0.35129 0.34427 0.0
O1018 O 0.17404 0.36769 0.3504 0.0
O1019 O 0.15932 0.34847 0.33372 0.0
O1020 O 0.20098 0.33979 0.33349 0.0
O1021 O 0.16231 0.33851 0.31647 0.0
O1022 O 0.16112 0.3393 0.37963 0.0
O1023 O 0.1583 0.32569 0.35109 0.0
O1024 O 0.17074 0.30824 0.34587 0.0
O1025 O 0.18906 0.3287 0.36098 0.0
O1026 O 0.14659 0.33653 0.36232 0.0
O1027 O 0.1874 0.33991 0.37904 0.0
C1028 C 0.20467 0.35274 0.3411 0.0
C1029 C 0.17025 0.33221 0.29717 0.0
C1030 C 0.17078 0.33755 0.2752 0.0
C1031 C 0.17689 0.34419 0.28711 0.0
C1032 C 0.15824 0.31881 0.27353 0.0
C1033 C 0.15786 0.31358 0.29521 0.0
C1034 C 0.15195 0.30693 0.28346 0.0
C1035 C 0.16478 0.36379 0.33994 0.0
C1036 C 0.17559 0.33933 0.30969 0.0
C1037 C 0.12955 0.25489 0.31727 0.0
C1038 C 0.11459 0.25819 0.31746 0.0
C1039 C 0.14295 0.32407 0.35431 0.0
C1040 C 0.17761 0.34463 0.3982 0.0
C1041 C 0.17279 0.33308 0.40848 0.0
C1042 C 0.17715 0.34054 0.42036 0.0
C1043 C 0.1861 0.35966 0.4217 0.0
C1044 C 0.18672 0.36359 0.39988 0.0
C1045 C 0.19086 0.37103 0.41155 0.0
C1046 C 0.18157 0.31246 0.35561 0.0
C1047 C 0.17325 0.33696 0.38577 0.0
H1048 H 0.18636 0.35864 0.28856 0.0
H1049 H 0.15341 0.31331 0.2645 0.0
H1050 H 0.15262 0.30419 0.30276 0.0
H1051 H 0.14234 0.29252 0.28205 0.0
H1052 H 0.16594 0.31842 0.40719 0.0
H1053 H 0.18927 0.3659 0.43064 0.0
H1054 H 0.19064 0.37268 0.39219 0.0
H1055 H 0.19777 0.3857 0.41273 0.0
Eu1056 Eu 0.68772 0.84416 0.33424 0.0
C1057 C 0.62008 0.81098 0.37082 0.0
C1058 C 0.60868 0.83238 0.37093 0.0
C1059 C 0.58802 0.80067 0.37652 0.0
C1060 C 0.62305 0.8284 0.36878 0.0
C1061 C 0.6026 0.79698 0.37488 0.0
C1062 C 0.59113 0.81838 0.3747 0.0
C1063 C 0.616 0.77749 0.37719 0.0
N1064 N 0.63472 0.80813 0.3698 0.0
C1065 C 0.63313 0.79188 0.37332 0.0
C1066 C 0.60059 0.77996 0.37782 0.0
Eu1067 Eu 0.66347 0.83324 0.36366 0.0
N1068 N 0.64043 0.84178 0.36575 0.0
C1069 C 0.6446 0.85958 0.3653 0.0
C1070 C 0.61267 0.85049 0.36984 0.0
C1071 C 0.63073 0.86416 0.36707 0.0
H1072 H 0.64498 0.78986 0.37296 0.0
H1073 H 0.63406 0.87826 0.36646 0.0
H1074 H 0.58005 0.82121 0.3767 0.0
H1075 H 0.61473 0.76453 0.37973 0.0
H1076 H 0.65861 0.87034 0.36343 0.0
H1077 H 0.71397 0.79634 0.33244 0.0
H1078 H 0.6021 0.85418 0.37151 0.0
H1079 H 0.70956 0.88862 0.32697 0.0
H1080 H 0.69005 0.80549 0.33348 0.0
H1081 H 0.74162 0.91377 0.32315 0.0
H1082 H 0.57451 0.79011 0.37968 0.0
H1083 H 0.74722 0.81986 0.33058 0.0
H1084 H 0.7714 0.85298 0.32813 0.0
H1085 H 0.58739 0.76886 0.38096 0.0
H1086 H 0.77893 0.88492 0.32558 0.0
N1087 N 0.70954 0.83396 0.33251 0.0
C1088 C 0.70447 0.8159 0.33261 0.0
C1089 C 0.73676 0.82396 0.33101 0.0
C1090 C 0.74175 0.84239 0.33022 0.0
C1091 C 0.71801 0.81065 0.33203 0.0
C1092 C 0.72761 0.847 0.33091 0.0
H1093 H 0.7679 0.9077 0.32358 0.0
N1094 N 0.71777 0.86872 0.32974 0.0
C1095 C 0.73908 0.90012 0.32496 0.0
C1096 C 0.73186 0.86495 0.3295 0.0
C1097 C 0.72096 0.88586 0.32708 0.0
C1098 C 0.75388 0.89664 0.32524 0.0
C1099 C 0.75035 0.87883 0.32734 0.0
O1100 O 0.68298 0.85363 0.31675 0.0
O1101 O 0.663 0.84117 0.34431 0.0
O1102 O 0.64444 0.81039 0.35084 0.0
O1103 O 0.66568 0.81374 0.33568 0.0
O1104 O 0.67638 0.86367 0.33317 0.0
O1105 O 0.6794 0.82652 0.31822 0.0
O1106 O 0.6724 0.82651 0.3807 0.0
O1107 O 0.68797 0.83608 0.35347 0.0
O1108 O 0.70646 0.86584 0.34778 0.0
O1109 O 0.68427 0.8639 0.36152 0.0
O1110 O 0.67474 0.81371 0.36464 0.0
O1111 O 0.67086 0.85124 0.3795 0.0
C1112 C 0.66231 0.85483 0.34027 0.0
C1113 C 0.68824 0.84098 0.29905 0.0
C1114 C 0.68569 0.8379 0.27687 0.0
C1115 C 0.6774 0.83613 0.28836 0.0
C1116 C 0.70503 0.84474 0.27632 0.0
C1117 C 0.70745 0.84769 0.29826 0.0
C1118 C 0.71577 0.84959 0.28694 0.0
C1119 C 0.64919 0.80443 0.34108 0.0
C1120 C 0.6793 0.83872 0.31097 0.0
C1121 C 0.7646 0.87442 0.32711 0.0
C1122 C 0.76031 0.85624 0.32856 0.0
C1123 C 0.68877 0.82249 0.35752 0.0
C1124 C 0.66587 0.8371 0.39878 0.0
C1125 C 0.67745 0.84126 0.40907 0.0
C1126 C 0.66973 0.83715 0.42084 0.0
C1127 C 0.65032 0.82894 0.42214 0.0
C1128 C 0.64658 0.8291 0.4003 0.0
C1129 C 0.63887 0.82504 0.41193 0.0
C1130 C 0.70131 0.87255 0.35687 0.0
C1131 C 0.67403 0.84064 0.38653 0.0
H1132 H 0.66251 0.83072 0.28901 0.0
H1133 H 0.71192 0.84657 0.26766 0.0
H1134 H 0.71598 0.85144 0.30637 0.0
H1135 H 0.73063 0.85485 0.28639 0.0
H1136 H 0.69237 0.84739 0.40792 0.0
H1137 H 0.64402 0.82577 0.43108 0.0
H1138 H 0.63749 0.82596 0.39253 0.0
H1139 H 0.62395 0.81883 0.41303 0.0
Eu1140 Eu 0.18351 0.83443 0.36205 0.0
C1141 C 0.14708 0.86538 0.3257 0.0
C1142 C 0.11428 0.84278 0.32548 0.0
C1143 C 0.12415 0.87463 0.32147 0.0
C1144 C 0.13304 0.84751 0.32715 0.0
C1145 C 0.14284 0.87912 0.32264 0.0
C1146 C 0.10989 0.85648 0.32287 0.0
C1147 C 0.17587 0.9004 0.3212 0.0
N1148 N 0.16496 0.86918 0.32673 0.0
C1149 C 0.17935 0.88627 0.32417 0.0
C1150 C 0.15753 0.89686 0.32056 0.0
Eu1151 Eu 0.16988 0.8448 0.33227 0.0
N1152 N 0.13778 0.83461 0.32961 0.0
C1153 C 0.12449 0.81655 0.32982 0.0
C1154 C 0.10055 0.82436 0.32615 0.0
C1155 C 0.1057 0.81117 0.32823 0.0
H1156 H 0.19357 0.88912 0.3247 0.0
H1157 H 0.09524 0.79684 0.32857 0.0
H1158 H 0.09554 0.85312 0.32166 0.0
H1159 H 0.18732 0.914 0.31942 0.0
H1160 H 0.12822 0.80619 0.3314 0.0
H1161 H 0.25775 0.88388 0.3666 0.0
H1162 H 0.08601 0.82017 0.32477 0.0
H1163 H 0.16077 0.78958 0.36805 0.0
H1164 H 0.2245 0.8738 0.36388 0.0
H1165 H 0.16793 0.76499 0.3724 0.0
H1166 H 0.1206 0.88502 0.31921 0.0
H1167 H 0.26783 0.86107 0.36956 0.0
H1168 H 0.25914 0.82817 0.37202 0.0
H1169 H 0.15485 0.9078 0.3182 0.0
H1170 H 0.23475 0.79585 0.37352 0.0
N1171 N 0.21571 0.84547 0.36503 0.0
C1172 C 0.22862 0.86366 0.36521 0.0
C1173 C 0.25317 0.85655 0.3684 0.0
C1174 C 0.23979 0.83796 0.36875 0.0
C1175 C 0.24753 0.86946 0.36674 0.0
C1176 C 0.2209 0.83279 0.36711 0.0
H1177 H 0.20071 0.77218 0.37377 0.0
N1178 N 0.18919 0.81027 0.36667 0.0
C1179 C 0.17912 0.77888 0.3711 0.0
C1180 C 0.20723 0.81462 0.36788 0.0
C1181 C 0.17511 0.79281 0.36867 0.0
C1182 C 0.19764 0.78299 0.37184 0.0
C1183 C 0.21198 0.80108 0.37041 0.0
O1184 O 0.16812 0.82468 0.37909 0.0
O1185 O 0.16154 0.83655 0.35156 0.0
O1186 O 0.17256 0.86652 0.34554 0.0
O1187 O 0.19209 0.86467 0.36015 0.0
O1188 O 0.1524 0.81436 0.36293 0.0
O1189 O 0.19206 0.85187 0.37824 0.0
O1190 O 0.18476 0.85301 0.31493 0.0
O1191 O 0.192 0.84328 0.34292 0.0
O1192 O 0.1816 0.81353 0.34826 0.0
O1193 O 0.16033 0.81449 0.33484 0.0
O1194 O 0.20093 0.86502 0.33122 0.0
O1195 O 0.16114 0.82586 0.31687 0.0
C1196 C 0.14707 0.82287 0.35565 0.0
C1197 C 0.18499 0.83688 0.39733 0.0
C1198 C 0.18453 0.83963 0.41954 0.0
C1199 C 0.17929 0.84237 0.40781 0.0
C1200 C 0.19547 0.83119 0.42051 0.0
C1201 C 0.19601 0.82869 0.3986 0.0
C1202 C 0.20118 0.82585 0.41012 0.0
C1203 C 0.18388 0.87313 0.35506 0.0
C1204 C 0.17915 0.83949 0.38516 0.0
C1205 C 0.2308 0.80607 0.37168 0.0
C1206 C 0.24469 0.82448 0.37084 0.0
C1207 C 0.20639 0.85704 0.33883 0.0
C1208 C 0.16736 0.83877 0.29718 0.0
C1209 C 0.1732 0.83281 0.28698 0.0
C1210 C 0.16694 0.83376 0.27516 0.0
C1211 C 0.15497 0.84102 0.27381 0.0
C1212 C 0.15533 0.84576 0.29553 0.0
C1213 C 0.14923 0.84691 0.28391 0.0
C1214 C 0.16941 0.8065 0.33923 0.0
C1215 C 0.17375 0.83758 0.3095 0.0
H1216 H 0.17095 0.8489 0.40678 0.0
H1217 H 0.19943 0.82844 0.42932 0.0
H1218 H 0.20051 0.82438 0.39069 0.0
H1219 H 0.20957 0.81937 0.41102 0.0
H1220 H 0.1824 0.82728 0.2883 0.0
H1221 H 0.15021 0.84242 0.26489 0.0
H1222 H 0.1507 0.85037 0.30323 0.0
H1223 H 0.14004 0.85245 0.2827 0.0
Eu1224 Eu 0.83635 0.66133 0.66572 0.0
C1225 C 0.87591 0.72697 0.70182 0.0
C1226 C 0.90841 0.73548 0.70058 0.0
C1227 C 0.89994 0.75861 0.70492 0.0
C1228 C 0.88936 0.72219 0.69982 0.0
C1229 C 0.88102 0.74515 0.70465 0.0
C1230 C 0.91362 0.75379 0.70287 0.0
C1231 C 0.84841 0.7351 0.7076 0.0
N1232 N 0.85779 0.71363 0.70153 0.0
C1233 C 0.84406 0.71726 0.70476 0.0
C1234 C 0.86696 0.74916 0.7074 0.0
Eu1235 Eu 0.85134 0.68403 0.69581 0.0
N1236 N 0.88383 0.70438 0.69769 0.0
C1237 C 0.89662 0.6987 0.69714 0.0
C1238 C 0.92162 0.7299 0.69929 0.0
C1239 C 0.91568 0.71139 0.69776 0.0
H1240 H 0.82969 0.70644 0.70481 0.0
H1241 H 0.92577 0.70687 0.69699 0.0
H1242 H 0.92818 0.76423 0.70335 0.0
H1243 H 0.83746 0.738 0.70989 0.0
H1244 H 0.89226 0.68447 0.69586 0.0
H1245 H 0.76168 0.63711 0.66449 0.0
H1246 H 0.93639 0.7397 0.69976 0.0
H1247 H 0.85888 0.63941 0.65723 0.0
H1248 H 0.79509 0.66003 0.66556 0.0
H1249 H 0.85173 0.60791 0.65264 0.0
H1250 H 0.90416 0.7727 0.70697 0.0
H1251 H 0.75172 0.60439 0.66195 0.0
H1252 H 0.76058 0.58026 0.65864 0.0
H1253 H 0.8703 0.76297 0.70962 0.0
H1254 H 0.78506 0.57232 0.65534 0.0
N1255 N 0.80403 0.6405 0.66389 0.0
C1256 C 0.79097 0.64583 0.66437 0.0
C1257 C 0.76642 0.6144 0.66238 0.0
C1258 C 0.77991 0.60916 0.66121 0.0
C1259 C 0.77199 0.63286 0.66379 0.0
C1260 C 0.79886 0.62273 0.66191 0.0
H1261 H 0.81909 0.58255 0.65296 0.0
N1262 N 0.83061 0.63183 0.66033 0.0
C1263 C 0.84059 0.61062 0.65474 0.0
C1264 C 0.81258 0.61825 0.66005 0.0
C1265 C 0.84459 0.62844 0.65731 0.0
C1266 C 0.82215 0.59634 0.65496 0.0
C1267 C 0.80783 0.60009 0.65746 0.0
O1268 O 0.85158 0.66822 0.64852 0.0
O1269 O 0.85877 0.68433 0.67631 0.0
O1270 O 0.84818 0.70347 0.68311 0.0
O1271 O 0.82792 0.68315 0.66848 0.0
O1272 O 0.86728 0.67123 0.66438 0.0
O1273 O 0.82655 0.66999 0.64989 0.0
O1274 O 0.83699 0.67818 0.71332 0.0
O1275 O 0.82886 0.66136 0.68515 0.0
O1276 O 0.83876 0.6417 0.67862 0.0
O1277 O 0.85959 0.66212 0.69291 0.0
O1278 O 0.82036 0.67407 0.69734 0.0
O1279 O 0.8601 0.67342 0.71108 0.0
C1280 C 0.87296 0.68464 0.67194 0.0
C1281 C 0.83423 0.66349 0.63047 0.0
C1282 C 0.83689 0.66684 0.60826 0.0
C1283 C 0.84162 0.67457 0.62004 0.0
C1284 C 0.82452 0.64793 0.60717 0.0
C1285 C 0.82194 0.64472 0.62908 0.0
C1286 C 0.81711 0.63702 0.61749 0.0
C1287 C 0.83639 0.69939 0.67389 0.0
C1288 C 0.83978 0.67148 0.64275 0.0
C1289 C 0.789 0.58638 0.65721 0.0
C1290 C 0.77507 0.59091 0.65909 0.0
C1291 C 0.81463 0.66088 0.68961 0.0
C1292 C 0.85465 0.6806 0.73087 0.0
C1293 C 0.84841 0.66899 0.74111 0.0
C1294 C 0.85506 0.67597 0.75289 0.0
C1295 C 0.86785 0.69478 0.75416 0.0
C1296 C 0.86745 0.69922 0.73242 0.0
C1297 C 0.87396 0.70624 0.74401 0.0
C1298 C 0.85051 0.64568 0.68784 0.0
C1299 C 0.84785 0.67319 0.7186 0.0
H1300 H 0.85126 0.68907 0.62111 0.0
H1301 H 0.82036 0.64157 0.59829 0.0
H1302 H 0.81611 0.63601 0.63695 0.0
H1303 H 0.80758 0.6225 0.61649 0.0
H1304 H 0.83864 0.65455 0.73988 0.0
H1305 H 0.873 0.70072 0.76305 0.0
H1306 H 0.87241 0.70831 0.72467 0.0
H1307 H 0.88378 0.72067 0.74515 0.0
Eu1308 Eu 0.35603 0.17809 0.667 0.0
C1309 C 0.2867 0.14951 0.70069 0.0
C1310 C 0.2779 0.17279 0.69911 0.0
C1311 C 0.25423 0.14121 0.70281 0.0
C1312 C 0.29158 0.16752 0.6988 0.0
C1313 C 0.26803 0.13618 0.70295 0.0
C1314 C 0.25915 0.15948 0.70088 0.0
C1315 C 0.27823 0.1142 0.70612 0.0
N1316 N 0.30037 0.14514 0.7008 0.0
C1317 C 0.29655 0.12792 0.70387 0.0
C1318 C 0.26386 0.1183 0.70553 0.0
Eu1319 Eu 0.33085 0.16872 0.69609 0.0
N1320 N 0.30982 0.18002 0.69714 0.0
C1321 C 0.31548 0.19821 0.69661 0.0
C1322 C 0.28351 0.19132 0.69786 0.0
C1323 C 0.30242 0.20411 0.69678 0.0
H1324 H 0.30761 0.12468 0.70423 0.0
H1325 H 0.30696 0.21851 0.69603 0.0
H1326 H 0.24842 0.16324 0.70101 0.0
H1327 H 0.27519 0.10048 0.70827 0.0
H1328 H 0.33002 0.20826 0.69569 0.0
H1329 H 0.38101 0.12951 0.66393 0.0
H1330 H 0.27343 0.19592 0.69799 0.0
H1331 H 0.37833 0.22277 0.66009 0.0
H1332 H 0.35782 0.13924 0.66647 0.0
H1333 H 0.41032 0.24753 0.65576 0.0
H1334 H 0.23977 0.13114 0.70442 0.0
H1335 H 0.4142 0.1526 0.66075 0.0
H1336 H 0.4387 0.18554 0.6584 0.0
H1337 H 0.24968 0.10765 0.70729 0.0
H1338 H 0.4467 0.21766 0.65629 0.0
N1339 N 0.37755 0.16761 0.66508 0.0
C1340 C 0.37221 0.14948 0.66517 0.0
C1341 C 0.40406 0.15695 0.66204 0.0
C1342 C 0.40937 0.17547 0.66159 0.0
C1343 C 0.38537 0.1439 0.66376 0.0
C1344 C 0.39557 0.18042 0.66302 0.0
H1345 H 0.4362 0.24089 0.6552 0.0
N1346 N 0.38616 0.20248 0.66236 0.0
C1347 C 0.40763 0.2338 0.65743 0.0
C1348 C 0.40003 0.19844 0.66168 0.0
C1349 C 0.38953 0.21974 0.65987 0.0
C1350 C 0.42221 0.23 0.65716 0.0
C1351 C 0.41847 0.21209 0.65909 0.0
O1352 O 0.35067 0.18706 0.64952 0.0
O1353 O 0.33153 0.17627 0.67661 0.0
O1354 O 0.31206 0.14662 0.6828 0.0
O1355 O 0.33403 0.14774 0.66909 0.0
O1356 O 0.34567 0.19832 0.66528 0.0
O1357 O 0.34731 0.16005 0.65115 0.0
O1358 O 0.3349 0.15974 0.71396 0.0
O1359 O 0.35503 0.16999 0.68639 0.0
O1360 O 0.3752 0.19949 0.68058 0.0
O1361 O 0.35317 0.1989 0.69393 0.0
O1362 O 0.34119 0.14843 0.69814 0.0
O1363 O 0.34049 0.18745 0.71156 0.0
C1364 C 0.33131 0.18994 0.67218 0.0
C1365 C 0.35575 0.17433 0.63189 0.0
C1366 C 0.35354 0.17397 0.60966 0.0
C1367 C 0.34526 0.17163 0.6212 0.0
C1368 C 0.37248 0.17899 0.60905 0.0
C1369 C 0.37458 0.17935 0.63103 0.0
C1370 C 0.38287 0.18165 0.61966 0.0
C1371 C 0.31705 0.13946 0.67387 0.0
C1372 C 0.34698 0.17208 0.64385 0.0
C1373 C 0.43243 0.20736 0.6582 0.0
C1374 C 0.42788 0.18907 0.65941 0.0
C1375 C 0.35518 0.15629 0.69087 0.0
C1376 C 0.33094 0.17435 0.73106 0.0
C1377 C 0.34118 0.17718 0.74188 0.0
C1378 C 0.3331 0.17647 0.75329 0.0
C1379 C 0.31461 0.17296 0.75362 0.0
C1380 C 0.31254 0.17079 0.73164 0.0
C1381 C 0.30445 0.17012 0.74287 0.0
C1382 C 0.37031 0.20681 0.68946 0.0
C1383 C 0.33965 0.17527 0.71925 0.0
H1384 H 0.33075 0.16793 0.6219 0.0
H1385 H 0.37923 0.1806 0.60036 0.0
H1386 H 0.38284 0.18146 0.63913 0.0
H1387 H 0.39739 0.18546 0.61906 0.0
H1388 H 0.35534 0.17972 0.74138 0.0
H1389 H 0.30804 0.17263 0.76218 0.0
H1390 H 0.30447 0.16862 0.72342 0.0
H1391 H 0.29026 0.16747 0.74326 0.0
Eu1392 Eu 0.84967 0.168 0.69602 0.0
C1393 C 0.81316 0.19896 0.6606 0.0
C1394 C 0.78042 0.17614 0.66007 0.0
C1395 C 0.79004 0.20813 0.65687 0.0
C1396 C 0.79921 0.18095 0.66167 0.0
C1397 C 0.80877 0.21273 0.65799 0.0
C1398 C 0.77589 0.18986 0.65789 0.0
C1399 C 0.84176 0.23432 0.65682 0.0
N1400 N 0.83111 0.2029 0.66155 0.0
C1401 C 0.84541 0.22016 0.65929 0.0
C1402 C 0.82336 0.23063 0.65628 0.0
Eu1403 Eu 0.83616 0.17835 0.66628 0.0
N1404 N 0.80405 0.16802 0.66375 0.0
C1405 C 0.79087 0.14992 0.66366 0.0
C1406 C 0.76679 0.15765 0.66039 0.0
C1407 C 0.77206 0.14447 0.66211 0.0
H1408 H 0.85966 0.22309 0.65973 0.0
H1409 H 0.76167 0.13011 0.66221 0.0
H1410 H 0.76151 0.18643 0.65674 0.0
H1411 H 0.85313 0.24806 0.65531 0.0
H1412 H 0.79474 0.13959 0.66497 0.0
H1413 H 0.92397 0.21643 0.70092 0.0
H1414 H 0.75224 0.15343 0.65903 0.0
H1415 H 0.82614 0.12325 0.70254 0.0
H1416 H 0.89104 0.20683 0.69756 0.0
H1417 H 0.83261 0.09836 0.70731 0.0
H1418 H 0.78638 0.21853 0.65495 0.0
H1419 H 0.93343 0.19324 0.70461 0.0
H1420 H 0.9242 0.16027 0.70714 0.0
H1421 H 0.82057 0.24161 0.65429 0.0
H1422 H 0.89936 0.12815 0.70882 0.0
N1423 N 0.88174 0.17842 0.69895 0.0
C1424 C 0.89488 0.19653 0.69908 0.0
C1425 C 0.91892 0.18895 0.70298 0.0
C1426 C 0.90533 0.17045 0.70327 0.0
C1427 C 0.91364 0.20206 0.70097 0.0
C1428 C 0.88658 0.16556 0.70134 0.0
H1429 H 0.86517 0.10495 0.709 0.0
N1430 N 0.85473 0.14359 0.70121 0.0
C1431 C 0.844 0.11214 0.70596 0.0
C1432 C 0.87264 0.14757 0.70245 0.0
C1433 C 0.84039 0.12627 0.70329 0.0
C1434 C 0.8624 0.1159 0.70686 0.0
C1435 C 0.877 0.13384 0.70529 0.0
O1436 O 0.83566 0.15876 0.71361 0.0
O1437 O 0.82755 0.1697 0.68545 0.0
O1438 O 0.83822 0.19942 0.67988 0.0
O1439 O 0.85904 0.19837 0.69369 0.0
O1440 O 0.81859 0.14779 0.69696 0.0
O1441 O 0.85718 0.18692 0.71128 0.0
O1442 O 0.85119 0.18739 0.64906 0.0
O1443 O 0.8582 0.17639 0.6768 0.0
O1444 O 0.84756 0.14682 0.68248 0.0
O1445 O 0.82721 0.14807 0.66834 0.0
O1446 O 0.86728 0.19841 0.66532 0.0
O1447 O 0.82686 0.16052 0.65028 0.0
C1448 C 0.81313 0.15597 0.68951 0.0
C1449 C 0.85293 0.17474 0.7311 0.0
C1450 C 0.8526 0.17946 0.75305 0.0
C1451 C 0.84497 0.17818 0.74135 0.0
C1452 C 0.86812 0.17703 0.75432 0.0
C1453 C 0.8683 0.17223 0.73261 0.0
C1454 C 0.87582 0.17335 0.74418 0.0
C1455 C 0.85017 0.20644 0.68902 0.0
C1456 C 0.84561 0.17462 0.71884 0.0
C1457 C 0.89571 0.13851 0.70671 0.0
C1458 C 0.90985 0.15679 0.70574 0.0
C1459 C 0.87265 0.19012 0.67275 0.0
C1460 C 0.83369 0.17508 0.63105 0.0
C1461 C 0.83918 0.1695 0.62052 0.0
C1462 C 0.8337 0.17215 0.60883 0.0
C1463 C 0.82275 0.18059 0.60799 0.0
C1464 C 0.82265 0.18326 0.6299 0.0
C1465 C 0.81724 0.18601 0.61843 0.0
C1466 C 0.83581 0.13987 0.67321 0.0
C1467 C 0.83974 0.17255 0.64318 0.0
H1468 H 0.83317 0.18026 0.74019 0.0
H1469 H 0.87419 0.17779 0.7632 0.0
H1470 H 0.87459 0.16958 0.72486 0.0
H1471 H 0.88772 0.17143 0.74528 0.0
H1472 H 0.84754 0.16298 0.62145 0.0
H1473 H 0.81861 0.1833 0.59922 0.0
H1474 H 0.81829 0.18761 0.63786 0.0
H1475 H 0.80884 0.19248 0.61762 0.0
H1476 H 0.31713 0.86907 0.05208 0.0
H1477 H 0.34654 0.89292 0.04367 0.0
H1478 H 0.37677 0.87699 0.0681 0.0
H1479 H 0.34734 0.85303 0.07657 0.0
H1480 H 0.39363 0.91306 0.067 0.0
H1481 H 0.37102 0.86492 0.03773 0.0
H1482 H 0.34829 0.84177 0.02364 0.0
H1483 H 0.3467 0.88391 1.00266 0.0
H1484 H 0.36922 0.9073 0.01674 0.0
H1485 H 0.47333 0.95747 0.021 0.0
H1486 H 0.44461 0.9304 0.02779 0.0
H1487 H 0.42303 0.96487 0.03953 0.0
H1488 H 0.45129 0.99184 0.03227 0.0
H1489 H 0.40407 0.91735 0.02236 0.0
H1490 H 0.40892 0.94957 0.06959 0.0
H1491 H 0.43321 0.97162 0.0835 0.0
H1492 H 0.47278 0.95842 0.06846 0.0
H1493 H 0.44869 0.93612 0.05462 0.0
C1494 C 0.33001 0.87052 0.05563 0.0
C1495 C 0.32977 0.85896 0.06497 0.0
C1496 C 0.34687 0.88422 0.0508 0.0
C1497 C 0.36397 0.88664 0.05508 0.0
C1498 C 0.36381 0.87543 0.0646 0.0
C1499 C 0.34693 0.86174 0.06948 0.0
C1500 C 0.38193 0.90084 0.04961 0.0
C1501 C 0.39585 0.91391 0.05724 0.0
C1502 C 0.38517 0.90187 0.03688 0.0
C1503 C 0.37169 0.88785 0.02836 0.0
C1504 C 0.36572 0.86924 0.03017 0.0
C1505 C 0.35289 0.85607 0.02217 0.0
C1506 C 0.34602 0.86136 0.01228 0.0
C1507 C 0.35201 0.87983 1.01034 0.0
C1508 C 0.36483 0.89305 0.01832 0.0
C1509 C 0.46223 0.95922 0.02464 0.0
C1510 C 0.46443 0.97678 0.02588 0.0
C1511 C 0.44587 0.94375 0.0286 0.0
C1512 C 0.43174 0.94565 0.03423 0.0
C1513 C 0.43377 0.96311 0.03524 0.0
C1514 C 0.4499 0.97849 0.03107 0.0
C1515 C 0.41531 0.92967 0.03973 0.0
C1516 C 0.40174 0.91635 0.03211 0.0
C1517 C 0.41255 0.92819 0.05248 0.0
C1518 C 0.42703 0.94131 0.06097 0.0
C1519 C 0.42278 0.95132 0.06929 0.0
C1520 C 0.43653 0.96389 0.07715 0.0
C1521 C 0.45455 0.96647 0.07683 0.0
C1522 C 0.45885 0.95646 0.06867 0.0
C1523 C 0.44516 0.94389 0.0608 0.0
H1524 H 0.46516 0.97617 0.08294 0.0
H1525 H 0.33609 0.85114 1.0061 0.0
H1526 H 0.17798 0.50163 0.05879 0.0
H1527 H 0.15265 0.50502 0.05017 0.0
H1528 H 0.11296 0.45042 0.06176 0.0
H1529 H 0.13822 0.44695 0.07048 0.0
H1530 H 0.10569 0.45554 0.0391 0.0
H1531 H 0.11765 0.48906 0.07636 0.0
H1532 H 0.13665 0.51237 0.09167 0.0
H1533 H 0.15087 0.55477 0.06524 0.0
H1534 H 0.13215 0.53169 0.04971 0.0
H1535 H 0.0226 0.45892 0.03034 0.0
H1536 H 0.04915 0.45613 0.037 0.0
H1537 H 0.08607 0.5129 0.02834 0.0
H1538 H 0.05921 0.51595 0.02246 0.0
H1539 H 0.09555 0.50715 0.04902 0.0
H1540 H 0.08755 0.47376 0.01131 0.0
H1541 H 0.07031 0.45051 0.99547 0.0
H1542 H 0.04928 0.40839 0.02264 0.0
H1543 H 0.06666 0.43139 0.03855 0.0
C1544 C 0.16385 0.49041 0.05969 0.0
C1545 C 0.16024 0.47401 0.0654 0.0
C1546 C 0.14933 0.49237 0.05471 0.0
C1547 C 0.13077 0.47805 0.05538 0.0
C1548 C 0.12712 0.46168 0.06108 0.0
C1549 C 0.14163 0.45969 0.06604 0.0
C1550 C 0.11524 0.4799 0.04985 0.0
C1551 C 0.10337 0.46673 0.0414 0.0
C1552 C 0.11237 0.49474 0.05253 0.0
C1553 C 0.12366 0.50863 0.06184 0.0
C1554 C 0.12496 0.50335 0.07378 0.0
C1555 C 0.13565 0.51652 0.08251 0.0
C1556 C 0.14501 0.53503 0.07942 0.0
C1557 C 0.14365 0.54042 0.06761 0.0
C1558 C 0.13298 0.5273 0.05885 0.0
C1559 C 0.03643 0.47073 0.02963 0.0
C1560 C 0.03877 0.48755 0.02561 0.0
C1561 C 0.05172 0.46908 0.03335 0.0
C1562 C 0.0699 0.48418 0.033 0.0
C1563 C 0.0723 0.50095 0.02869 0.0
C1564 C 0.05692 0.50266 0.02515 0.0
C1565 C 0.08601 0.48283 0.03816 0.0
C1566 C 0.09794 0.49604 0.04662 0.0
C1567 C 0.089 0.46806 0.03549 0.0
C1568 C 0.0781 0.45429 0.02608 0.0
C1569 C 0.07905 0.45956 0.01387 0.0
C1570 C 0.06937 0.44643 1.00489 0.0
C1571 C 0.05856 0.42802 1.00806 0.0
C1572 C 0.05759 0.42267 0.0202 0.0
C1573 C 0.06743 0.43572 0.02919 0.0
H1574 H 0.05102 0.41789 1.00111 0.0
H1575 H 0.15328 0.54521 0.08619 0.0
H1576 H 0.57545 0.69126 0.07817 0.0
H1577 H 0.56867 0.66394 0.06668 0.0
H1578 H 0.51331 0.65404 0.05901 0.0
H1579 H 0.51982 0.68114 0.07091 0.0
H1580 H 0.51205 0.62281 0.06515 0.0
H1581 H 0.54683 0.67057 0.03701 0.0
H1582 H 0.57273 0.69972 0.02955 0.0
H1583 H 0.61089 0.68002 0.03556 0.0
H1584 H 0.58525 0.65083 0.04323 0.0
H1585 H 0.49714 0.55647 0.01883 0.0
H1586 H 0.50197 0.58478 0.0283 0.0
H1587 H 0.55305 0.59308 0.04454 0.0
H1588 H 0.54816 0.56461 0.03535 0.0
H1589 H 0.55473 0.62515 0.03276 0.0
H1590 H 0.51896 0.57763 0.06196 0.0
H1591 H 0.49225 0.54823 0.06832 0.0
H1592 H 0.45477 0.56763 0.059 0.0
H1593 H 0.48128 0.5971 0.05237 0.0
C1594 C 0.56177 0.68324 0.07412 0.0
C1595 C 0.54818 0.68844 0.07551 0.0
C1596 C 0.55797 0.66768 0.06743 0.0
C1597 C 0.54053 0.65698 0.06183 0.0
C1598 C 0.52689 0.66208 0.0632 0.0
C1599 C 0.53069 0.67769 0.06991 0.0
C1600 C 0.5366 0.64037 0.05474 0.0
C1601 C 0.52122 0.62341 0.05793 0.0
C1602 C 0.54863 0.641 0.04537 0.0
C1603 C 0.56413 0.65856 0.0408 0.0
C1604 C 0.56077 0.6725 0.03684 0.0
C1605 C 0.5754 0.68903 0.03255 0.0
C1606 C 0.59345 0.69174 0.03211 0.0
C1607 C 0.5969 0.67791 0.03592 0.0
C1608 C 0.58232 0.66136 0.04023 0.0
C1609 C 0.50947 0.56437 0.02435 0.0
C1610 C 0.52226 0.55826 0.02636 0.0
C1611 C 0.51217 0.58051 0.02978 0.0
C1612 C 0.52782 0.59097 0.03716 0.0
C1613 C 0.54088 0.58519 0.03888 0.0
C1614 C 0.53803 0.5689 0.03365 0.0
C1615 C 0.53043 0.60773 0.04332 0.0
C1616 C 0.54553 0.62466 0.03992 0.0
C1617 C 0.51804 0.60709 0.05238 0.0
C1618 C 0.5021 0.58949 0.05652 0.0
C1619 C 0.50502 0.57558 0.06115 0.0
C1620 C 0.48992 0.55891 0.06483 0.0
C1621 C 0.47182 0.55605 0.06402 0.0
C1622 C 0.4688 0.56987 0.05959 0.0
C1623 C 0.48386 0.58656 0.05588 0.0
H1624 H 0.46015 0.54313 0.06686 0.0
H1625 H 0.60476 0.70454 0.02878 0.0
H1626 H 0.88672 0.3255 0.94437 0.0
H1627 H 0.90865 0.35299 0.95542 0.0
H1628 H 0.86337 0.35111 0.97578 0.0
H1629 H 0.84116 0.32373 0.96446 0.0
H1630 H 0.8875 0.38572 0.9683 0.0
H1631 H 0.89248 0.33835 0.98887 0.0
H1632 H 0.89679 0.31158 0.99064 0.0
H1633 H 0.95133 0.34232 0.97507 0.0
H1634 H 0.94724 0.36921 0.97305 0.0
H1635 H 0.94642 0.45279 0.01126 0.0
H1636 H 0.92315 0.42392 1.00218 0.0
H1637 H 0.9658 0.42254 0.98064 0.0
H1638 H 0.98929 0.45122 0.98992 0.0
H1639 H 0.94204 0.38913 0.98964 0.0
H1640 H 0.93676 0.43611 0.96841 0.0
H1641 H 0.93307 0.46329 0.96717 0.0
H1642 H 0.87944 0.43352 0.9841 0.0
H1643 H 0.88295 0.40624 0.98563 0.0
C1644 C 0.88134 0.33095 0.95113 0.0
C1645 C 0.8621 0.32235 0.95347 0.0
C1646 C 0.89397 0.34663 0.95754 0.0
C1647 C 0.88775 0.3541 0.96655 0.0
C1648 C 0.86855 0.34561 0.96891 0.0
C1649 C 0.85587 0.32985 0.9625 0.0
C1650 C 0.90134 0.37082 0.97337 0.0
C1651 C 0.89925 0.38635 0.97313 0.0
C1652 C 0.91695 0.37188 0.97948 0.0
C1653 C 0.91948 0.35574 0.98071 0.0
C1654 C 0.90533 0.33936 0.98574 0.0
C1655 C 0.90775 0.32417 0.9868 0.0
C1656 C 0.9243 0.32524 0.98294 0.0
C1657 C 0.9385 0.34151 0.97804 0.0
C1658 C 0.93615 0.35673 0.97694 0.0
C1659 C 0.95095 0.44627 1.00472 0.0
C1660 C 0.96982 0.45437 1.00139 0.0
C1661 C 0.93755 0.42979 0.99944 0.0
C1662 C 0.94263 0.4211 0.9906 0.0
C1663 C 0.9615 0.42896 0.98743 0.0
C1664 C 0.97493 0.44543 0.99272 0.0
C1665 C 0.92828 0.40403 0.98448 0.0
C1666 C 0.93024 0.38846 0.98485 0.0
C1667 C 0.91259 0.40296 0.97848 0.0
C1668 C 0.91019 0.41917 0.97723 0.0
C1669 C 0.92422 0.43538 0.97193 0.0
C1670 C 0.92216 0.45081 0.97117 0.0
C1671 C 0.90605 0.45015 0.97558 0.0
C1672 C 0.89192 0.43402 0.9807 0.0
C1673 C 0.89393 0.41857 0.9815 0.0
H1674 H 0.9045 0.46212 0.97502 0.0
H1675 H 0.92615 0.31347 0.98377 0.0
H1676 H 0.67725 0.5281 0.94538 0.0
H1677 H 0.64818 0.52432 0.95383 0.0
H1678 H 0.67477 0.54247 0.98884 0.0
H1679 H 0.70373 0.54632 0.9805 0.0
H1680 H 0.64183 0.51308 0.99161 0.0
H1681 H 0.66523 0.57 0.96944 0.0
H1682 H 0.67601 0.5895 0.95115 0.0
H1683 H 0.6238 0.55465 0.93338 0.0
H1684 H 0.61277 0.53484 0.95152 0.0
H1685 H 0.5745 0.55273 1.00226 0.0
H1686 H 0.60308 0.55418 0.99511 0.0
H1687 H 0.57642 0.49541 0.99713 0.0
H1688 H 0.54812 0.4941 1.00487 0.0
H1689 H 0.60823 0.54308 0.97488 0.0
H1690 H 0.60029 0.48039 0.99582 0.0
H1691 H 0.59434 0.46237 0.01468 0.0
H1692 H 0.62023 0.51184 0.03571 0.0
H1693 H 0.6255 0.53002 0.01702 0.0
C1694 C 0.67698 0.53149 0.95484 0.0
C1695 C 0.6929 0.53743 0.96225 0.0
C1696 C 0.6603 0.52929 0.95968 0.0
C1697 C 0.65919 0.53314 0.97201 0.0
C1698 C 0.67513 0.53925 0.97935 0.0
C1699 C 0.69173 0.5414 0.97454 0.0
C1700 C 0.64147 0.53054 0.97745 0.0
C1701 C 0.6345 0.51966 0.98791 0.0
C1702 C 0.63167 0.53892 0.97267 0.0
C1703 C 0.63826 0.55084 0.96178 0.0
C1704 C 0.6561 0.56643 0.96159 0.0
C1705 C 0.66224 0.57755 0.95126 0.0
C1706 C 0.65061 0.57329 0.9411 0.0
C1707 C 0.63279 0.55793 0.94125 0.0
C1708 C 0.62659 0.54676 0.95156 0.0
C1709 C 0.57496 0.54017 1.00154 0.0
C1710 C 0.55911 0.52335 1.00424 0.0
C1711 C 0.59128 0.54097 0.99735 0.0
C1712 C 0.59216 0.52493 0.99551 0.0
C1713 C 0.5765 0.50809 0.99869 0.0
C1714 C 0.5602 0.50732 1.0031 0.0
C1715 C 0.60883 0.52602 0.98931 0.0
C1716 C 0.61551 0.53647 0.97859 0.0
C1717 C 0.61844 0.5173 0.99384 0.0
C1718 C 0.61297 0.50646 1.00512 0.0
C1719 C 0.60431 0.48734 1.00452 0.0
C1720 C 0.60105 0.47711 0.01516 0.0
C1721 C 0.60684 0.48595 0.02639 0.0
C1722 C 0.61558 0.505 0.02702 0.0
C1723 C 0.61847 0.51526 0.01644 0.0
H1724 H 0.60459 0.47804 0.03461 0.0
H1725 H 0.65539 0.58192 0.93311 0.0
H1726 H 0.45422 0.13943 0.95545 0.0
H1727 H 0.45847 0.11483 0.96367 0.0
H1728 H 0.51246 0.15454 0.97762 0.0
H1729 H 0.50861 0.17918 0.96904 0.0
H1730 H 0.51389 0.12619 0.96826 0.0
H1731 H 0.47417 0.13405 0.99618 0.0
H1732 H 0.44687 0.13628 1.00251 0.0
H1733 H 0.41044 0.08156 0.98996 0.0
H1734 H 0.43754 0.07909 0.98339 0.0
H1735 H 0.52455 0.06937 0.01169 0.0
H1736 H 0.51987 0.09345 1.00293 0.0
H1737 H 0.46981 0.05276 0.98509 0.0
H1738 H 0.47442 0.02857 0.99372 0.0
H1739 H 0.46628 0.08119 0.99633 0.0
H1740 H 0.50678 0.07349 0.96885 0.0
H1741 H 0.53451 0.07131 0.9636 0.0
H1742 H 0.57 0.12616 0.97627 0.0
H1743 H 0.54246 0.12855 0.9818 0.0
C1744 C 0.46712 0.14295 0.96011 0.0
C1745 C 0.48101 0.16134 0.96164 0.0
C1746 C 0.46946 0.12885 0.96492 0.0
C1747 C 0.48568 0.13281 0.97145 0.0
C1748 C 0.49978 0.15111 0.97269 0.0
C1749 C 0.49747 0.16521 0.96786 0.0
C1750 C 0.48778 0.11793 0.97721 0.0
C1751 C 0.50357 0.11649 0.9745 0.0
C1752 C 0.4742 0.10504 0.98523 0.0
C1753 C 0.45788 0.10647 0.98917 0.0
C1754 C 0.46033 0.12255 0.99467 0.0
C1755 C 0.4449 0.12385 0.99832 0.0
C1756 C 0.42693 0.10909 0.99661 0.0
C1757 C 0.42436 0.09299 0.99127 0.0
C1758 C 0.43976 0.09163 0.98758 0.0
C1759 C 0.51243 0.0655 1.00601 0.0
C1760 C 0.49987 0.04702 1.00339 0.0
C1761 C 0.50983 0.0793 1.00096 0.0
C1762 C 0.49457 0.07489 0.99328 0.0
C1763 C 0.48168 0.05646 0.99098 0.0
C1764 C 0.48438 0.04266 0.9959 0.0
C1765 C 0.49233 0.08953 0.98737 0.0
C1766 C 0.47655 0.09089 0.99007 0.0
C1767 C 0.50596 0.1024 0.9794 0.0
C1768 C 0.52255 0.10114 0.97585 0.0
C1769 C 0.52049 0.08504 0.9706 0.0
C1770 C 0.53618 0.08377 0.96757 0.0
C1771 C 0.554 0.09858 0.96963 0.0
C1772 C 0.55618 0.1147 0.97469 0.0
C1773 C 0.54054 0.11602 0.97777 0.0
H1774 H 0.56613 0.09759 0.96727 0.0
H1775 H 0.41499 0.11012 0.99944 0.0
H1776 H 0.68073 0.17347 0.97123 0.0
H1777 H 0.65228 0.14834 0.9798 0.0
H1778 H 0.66619 0.10959 0.96473 0.0
H1779 H 0.69477 0.13468 0.95618 0.0
H1780 H 0.62993 0.09801 0.96142 0.0
H1781 H 0.67263 0.12128 0.99518 0.0
H1782 H 0.69452 0.14481 1.00943 0.0
H1783 H 0.65134 0.15518 0.02125 0.0
H1784 H 0.62924 0.13189 1.00694 0.0
H1785 H 0.5715 0.01992 0.99615 0.0
H1786 H 0.59985 0.04705 0.98917 0.0
H1787 H 0.57707 0.08101 0.99977 0.0
H1788 H 0.54842 0.05381 1.00641 0.0
H1789 H 0.61677 0.09567 1.00561 0.0
H1790 H 0.57392 0.07212 0.97227 0.0
H1791 H 0.55171 0.04813 0.95841 0.0
H1792 H 0.59492 0.03817 0.94604 0.0
H1793 H 0.61735 0.06194 0.95997 0.0
C1794 C 0.67786 0.15962 0.9698 0.0
C1795 C 0.69022 0.1562 0.96306 0.0
C1796 C 0.66152 0.14523 0.97471 0.0
C1797 C 0.65713 0.127 0.97309 0.0
C1798 C 0.66921 0.1235 0.96614 0.0
C1799 C 0.68556 0.1379 0.9612 0.0
C1800 C 0.64002 0.11162 0.97865 0.0
C1801 C 0.62721 0.09745 0.9711 0.0
C1802 C 0.63609 0.11101 0.99126 0.0
C1803 C 0.64934 0.12499 0.99989 0.0
C1804 C 0.66784 0.12869 1.00074 0.0
C1805 C 0.68028 0.14196 1.00885 0.0
C1806 C 0.67434 0.15152 0.01621 0.0
C1807 C 0.65593 0.14779 0.01552 0.0
C1808 C 0.64344 0.13455 1.00742 0.0
C1809 C 0.57266 0.0332 0.99718 0.0
C1810 C 0.55783 0.03472 1.00201 0.0
C1811 C 0.58884 0.04869 0.99316 0.0
C1812 C 0.59056 0.06605 0.99389 0.0
C1813 C 0.57609 0.06775 0.99917 0.0
C1814 C 0.55974 0.05219 1.00303 0.0
C1815 C 0.60694 0.08212 0.98838 0.0
C1816 C 0.61953 0.09636 0.99593 0.0
C1817 C 0.61067 0.08285 0.97577 0.0
C1818 C 0.59729 0.06871 0.96725 0.0
C1819 C 0.57866 0.06473 0.96666 0.0
C1820 C 0.56603 0.05118 0.95878 0.0
C1821 C 0.57189 0.04159 0.95138 0.0
C1822 C 0.59041 0.04559 0.9518 0.0
C1823 C 0.60309 0.05912 0.95968 0.0
H1824 H 0.5621 0.03108 0.9453 0.0
H1825 H 0.684 0.16179 0.02248 0.0
H1826 H 0.84561 0.5141 0.96192 0.0
H1827 H 0.86781 0.50819 0.97301 0.0
H1828 H 0.91248 0.56152 0.963 0.0
H1829 H 0.89046 0.56761 0.95209 0.0
H1830 H 0.92201 0.53603 0.95879 0.0
H1831 H 0.89439 0.55143 0.99208 0.0
H1832 H 0.86857 0.54809 1.00495 0.0
H1833 H 0.85444 0.49309 0.0137 0.0
H1834 H 0.88003 0.49602 1.00074 0.0
H1835 H 0.9959 0.55236 0.99768 0.0
H1836 H 0.96897 0.55348 0.98954 0.0
H1837 H 0.93394 0.49603 0.99691 0.0
H1838 H 0.96107 0.49471 1.00473 0.0
H1839 H 0.9175 0.51963 1.00251 0.0
H1840 H 0.94567 0.50431 0.97049 0.0
H1841 H 0.97151 0.50713 0.95794 0.0
H1842 H 0.9838 0.5606 0.94642 0.0
H1843 H 0.95834 0.55834 0.95923 0.0
C1844 C 0.86011 0.52469 0.96223 0.0
C1845 C 0.86618 0.5413 0.95599 0.0
C1846 C 0.87283 0.52126 0.96856 0.0
C1847 C 0.8919 0.5344 0.96887 0.0
C1848 C 0.8979 0.55108 0.96284 0.0
C1849 C 0.88525 0.55452 0.95654 0.0
C1850 C 0.90583 0.53077 0.97512 0.0
C1851 C 0.92106 0.53262 0.96838 0.0
C1852 C 0.90436 0.52563 0.98755 0.0
C1853 C 0.88898 0.52387 0.99532 0.0
C1854 C 0.88567 0.53856 0.99666 0.0
C1855 C 0.8711 0.53676 1.00399 0.0
C1856 C 0.85983 0.52037 1.01011 0.0
C1857 C 0.86315 0.50577 1.00893 0.0
C1858 C 0.87769 0.50749 1.0016 0.0
C1859 C 0.98241 0.54002 0.99776 0.0
C1860 C 0.98061 0.52352 1.002 0.0
C1861 C 0.96702 0.54068 0.99309 0.0
C1862 C 0.94944 0.52484 0.99257 0.0
C1863 C 0.94736 0.50844 0.99728 0.0
C1864 C 0.96287 0.50773 1.00181 0.0
C1865 C 0.93378 0.52538 0.98622 0.0
C1866 C 0.9183 0.52291 0.99291 0.0
C1867 C 0.93489 0.5298 0.9737 0.0
C1868 C 0.95021 0.53124 0.96595 0.0
C1869 C 0.95401 0.51678 0.96541 0.0
C1870 C 0.96859 0.51826 0.95822 0.0
C1871 C 0.97932 0.53406 0.9514 0.0
C1872 C 0.97549 0.5484 0.95174 0.0
C1873 C 0.961 0.54703 0.95897 0.0
H1874 H 0.99059 0.53519 0.94582 0.0
H1875 H 0.84857 0.519 0.01578 0.0
H1876 H 0.48592 0.31865 0.96905 0.0
H1877 H 0.49345 0.34686 0.97981 0.0
H1878 H 0.46521 0.36001 0.95196 0.0
H1879 H 0.45835 0.33232 0.94091 0.0
H1880 H 0.49656 0.3895 0.95778 0.0
H1881 H 0.44531 0.34248 0.98024 0.0
H1882 H 0.42848 0.31382 0.9919 0.0
H1883 H 0.47188 0.33484 0.01888 0.0
H1884 H 0.48911 0.36354 1.00729 0.0
H1885 H 0.48083 0.45417 0.98795 0.0
H1886 H 0.47608 0.42595 0.9787 0.0
H1887 H 0.51212 0.42234 1.00559 0.0
H1888 H 0.51727 0.45086 0.01486 0.0
H1889 H 0.47903 0.38859 1.001 0.0
H1890 H 0.52906 0.43674 0.97887 0.0
H1891 H 0.54476 0.46558 0.96733 0.0
H1892 H 0.5026 0.44238 0.9396 0.0
H1893 H 0.4864 0.41351 0.95111 0.0
C1894 C 0.48145 0.32762 0.96514 0.0
C1895 C 0.4714 0.32307 0.95412 0.0
C1896 C 0.48561 0.34368 0.97139 0.0
C1897 C 0.4797 0.35551 0.9668 0.0
C1898 C 0.46988 0.35112 0.95573 0.0
C1899 C 0.46578 0.33513 0.94948 0.0
C1900 C 0.48371 0.37249 0.97346 0.0
C1901 C 0.49254 0.38923 0.9672 0.0
C1902 C 0.47892 0.37232 0.98585 0.0
C1903 C 0.4686 0.35507 0.99282 0.0
C1904 C 0.45134 0.34093 0.9886 0.0
C1905 C 0.44172 0.32469 0.99521 0.0
C1906 C 0.44913 0.32249 1.0061 0.0
C1907 C 0.46618 0.33655 1.01043 0.0
C1908 C 0.47587 0.35281 1.00385 0.0
C1909 C 0.48773 0.44741 0.99198 0.0
C1910 C 0.49945 0.45487 1.00219 0.0
C1911 C 0.485 0.43125 0.98664 0.0
C1912 C 0.49386 0.42211 0.99139 0.0
C1913 C 0.50514 0.42917 1.00178 0.0
C1914 C 0.50804 0.44548 1.00708 0.0
C1915 C 0.4916 0.40543 0.98526 0.0
C1916 C 0.48314 0.38881 0.99162 0.0
C1917 C 0.49662 0.40568 0.97294 0.0
C1918 C 0.50641 0.42299 0.96592 0.0
C1919 C 0.52303 0.43783 0.97037 0.0
C1920 C 0.53203 0.45419 0.96383 0.0
C1921 C 0.52466 0.45583 0.95275 0.0
C1922 C 0.50827 0.4411 0.94819 0.0
C1923 C 0.49918 0.42473 0.95472 0.0
H1924 H 0.53168 0.4685 0.9477 0.0
H1925 H 0.44165 0.30991 0.01121 0.0
H1926 H 0.1329 0.69191 0.07945 0.0
H1927 H 0.11134 0.66374 0.06888 0.0
H1928 H 0.1576 0.66026 0.05415 0.0
H1929 H 0.17938 0.68851 0.06483 0.0
H1930 H 0.13013 0.65089 0.03711 0.0
H1931 H 0.13385 0.63406 0.07814 0.0
H1932 H 0.13296 0.63565 0.10051 0.0
H1933 H 0.07593 0.62285 0.09877 0.0
H1934 H 0.07656 0.62145 0.07637 0.0
H1935 H 0.07467 0.55745 0.01916 0.0
H1936 H 0.09815 0.58621 0.02828 0.0
H1937 H 0.05493 0.59149 0.04632 0.0
H1938 H 0.0314 0.56249 0.03748 0.0
H1939 H 0.08223 0.59969 0.06159 0.0
H1940 H 0.07895 0.61727 0.02029 0.0
H1941 H 0.0798 0.61457 0.99799 0.0
H1942 H 0.13605 0.62513 1.00026 0.0
H1943 H 0.13546 0.62767 0.0226 0.0
C1944 C 0.13856 0.68515 0.07402 0.0
C1945 C 0.15795 0.69243 0.07316 0.0
C1946 C 0.12617 0.66903 0.06794 0.0
C1947 C 0.13278 0.65964 0.06086 0.0
C1948 C 0.15212 0.6672 0.05957 0.0
C1949 C 0.16458 0.6834 0.06567 0.0
C1950 C 0.11944 0.64173 0.05514 0.0
C1951 C 0.11981 0.63961 0.04248 0.0
C1952 C 0.10575 0.62703 0.06209 0.0
C1953 C 0.10531 0.62783 0.07557 0.0
C1954 C 0.12116 0.63173 0.08252 0.0
C1955 C 0.1207 0.63257 0.09521 0.0
C1956 C 0.10441 0.62939 0.10106 0.0
C1957 C 0.08854 0.62533 0.09423 0.0
C1958 C 0.08894 0.6245 0.08154 0.0
C1959 C 0.07011 0.56478 0.02499 0.0
C1960 C 0.05108 0.55766 0.02751 0.0
C1961 C 0.0836 0.58131 0.0302 0.0
C1962 C 0.07838 0.59127 0.03789 0.0
C1963 C 0.05938 0.58414 0.04042 0.0
C1964 C 0.0459 0.56754 0.03532 0.0
C1965 C 0.09266 0.6089 0.04352 0.0
C1966 C 0.09251 0.61095 0.05619 0.0
C1967 C 0.10654 0.62349 0.03658 0.0
C1968 C 0.10711 0.62253 0.02312 0.0
C1969 C 0.09148 0.61896 0.01603 0.0
C1970 C 0.09192 0.61747 1.00339 0.0
C1971 C 0.10796 0.61965 0.99771 0.0
C1972 C 0.12363 0.62343 1.00467 0.0
C1973 C 0.12327 0.62493 0.01732 0.0
H1974 H 0.10824 0.61841 0.98792 0.0
H1975 H 0.10407 0.63004 0.11088 0.0
H1976 H 0.35007 0.4776 0.08612 0.0
H1977 H 0.37729 0.48331 0.07427 0.0
H1978 H 0.34777 0.47994 0.0411 0.0
H1979 H 0.3202 0.47364 0.05292 0.0
H1980 H 0.3647 0.46096 0.03867 0.0
H1981 H 0.3835 0.52113 0.05223 0.0
H1982 H 0.39017 0.54608 0.06659 0.0
H1983 H 0.43106 0.53729 0.08466 0.0
H1984 H 0.42439 0.51205 0.07057 0.0
H1985 H 0.47237 0.51789 0.02072 0.0
H1986 H 0.44312 0.51629 0.02662 0.0
H1987 H 0.41999 0.4592 0.0354 0.0
H1988 H 0.4487 0.46059 0.02882 0.0
H1989 H 0.42865 0.51136 0.0474 0.0
H1990 H 0.37556 0.43593 0.03666 0.0
H1991 H 0.36847 0.41296 0.0206 0.0
H1992 H 0.39511 0.45562 0.9941 0.0
H1993 H 0.40252 0.47889 1.01007 0.0
C1994 C 0.34929 0.47801 0.0763 0.0
C1995 C 0.33279 0.47503 0.07051 0.0
C1996 C 0.36501 0.48151 0.06952 0.0
C1997 C 0.36477 0.48226 0.05674 0.0
C1998 C 0.3484 0.4795 0.05093 0.0
C1999 C 0.33265 0.47602 0.05772 0.0
C2000 C 0.38125 0.485 0.04949 0.0
C2001 C 0.37866 0.47205 0.04056 0.0
C2002 C 0.39954 0.49963 0.05172 0.0
C2003 C 0.40329 0.51455 0.0604 0.0
C2004 C 0.39376 0.52436 0.05936 0.0
C2005 C 0.39757 0.53859 0.06744 0.0
C2006 C 0.41099 0.54323 0.07656 0.0
C2007 C 0.42063 0.53365 0.07762 0.0
C2008 C 0.41684 0.51938 0.06958 0.0
C2009 C 0.46078 0.50485 0.02344 0.0
C2010 C 0.46274 0.48926 0.02405 0.0
C2011 C 0.44408 0.50397 0.02698 0.0
C2012 C 0.42904 0.48755 0.03138 0.0
C2013 C 0.43097 0.47193 0.03173 0.0
C2014 C 0.44751 0.47276 0.02804 0.0
C2015 C 0.41216 0.48708 0.03674 0.0
C2016 C 0.41467 0.50038 0.0454 0.0
C2017 C 0.39376 0.47296 0.03412 0.0
C2018 C 0.38974 0.45912 0.02455 0.0
C2019 C 0.37994 0.44041 0.02741 0.0
C2020 C 0.37592 0.42735 0.01834 0.0
C2021 C 0.38146 0.43285 1.00635 0.0
C2022 C 0.39102 0.45142 1.00342 0.0
C2023 C 0.39522 0.46454 0.01248 0.0
H2024 H 0.37827 0.42273 0.99933 0.0
H2025 H 0.41396 0.55428 0.08278 0.0
H2026 H 0.52296 0.83346 0.05181 0.0
H2027 H 0.51852 0.85775 0.04335 0.0
H2028 H 0.55415 0.89467 0.07122 0.0
H2029 H 0.55889 0.87044 0.07969 0.0
H2030 H 0.52331 0.8981 0.06741 0.0
H2031 H 0.57064 0.89731 0.04289 0.0
H2032 H 0.58455 0.88343 0.03001 0.0
H2033 H 0.5404 0.86751 1.0039 0.0
H2034 H 0.52607 0.88108 0.01673 0.0
H2035 H 0.54145 0.98085 0.03873 0.0
H2036 H 0.5453 0.95635 0.04747 0.0
H2037 H 0.50696 0.91859 0.02097 0.0
H2038 H 0.50267 0.94293 0.01229 0.0
H2039 H 0.53908 0.91572 0.02413 0.0
H2040 H 0.4919 0.9167 0.0484 0.0
H2041 H 0.47805 0.93089 0.06102 0.0
H2042 H 0.52178 0.94664 0.08743 0.0
H2043 H 0.53609 0.93278 0.07484 0.0
C2044 C 0.53001 0.84677 0.05611 0.0
C2045 C 0.54147 0.84999 0.06638 0.0
C2046 C 0.52738 0.86065 0.05127 0.0
C2047 C 0.53618 0.87814 0.05654 0.0
C2048 C 0.54721 0.8813 0.06699 0.0
C2049 C 0.54987 0.8674 0.07184 0.0
C2050 C 0.53416 0.89316 0.05096 0.0
C2051 C 0.527 0.90211 0.058 0.0
C2052 C 0.53857 0.89818 0.03858 0.0
C2053 C 0.54718 0.89005 0.03083 0.0
C2054 C 0.56381 0.89072 0.03445 0.0
C2055 C 0.57179 0.88293 0.02715 0.0
C2056 C 0.56334 0.87455 0.01616 0.0
C2057 C 0.54692 0.87398 0.01243 0.0
C2058 C 0.53887 0.88173 0.01971 0.0
C2059 C 0.53386 0.96738 0.03469 0.0
C2060 C 0.52181 0.96396 0.02472 0.0
C2061 C 0.53606 0.95336 0.03974 0.0
C2062 C 0.52633 0.93561 0.03493 0.0
C2063 C 0.51463 0.9322 0.02482 0.0
C2064 C 0.51225 0.94618 0.01983 0.0
C2065 C 0.52825 0.92061 0.04057 0.0
C2066 C 0.53539 0.91168 0.03354 0.0
C2067 C 0.52381 0.91564 0.05294 0.0
C2068 C 0.51518 0.92385 0.06061 0.0
C2069 C 0.49867 0.92333 0.05684 0.0
C2070 C 0.49072 0.9313 0.064 0.0
C2071 C 0.49906 0.93971 0.075 0.0
C2072 C 0.51535 0.94014 0.07889 0.0
C2073 C 0.52338 0.93222 0.07175 0.0
H2074 H 0.49285 0.94584 0.08054 0.0
H2075 H 0.56954 0.86853 1.01051 0.0
H2076 H 1.00736 0.19865 0.4144 0.0
H2077 H 0.03583 0.2232 0.40526 0.0
H2078 H 0.00984 0.20906 0.36984 0.0
H2079 H 0.98144 0.18464 0.37888 0.0
H2080 H 0.04395 0.21449 0.36834 0.0
H2081 H 0.01578 0.24703 0.38596 0.0
H2082 H 1.00255 0.25669 0.40248 0.0
H2083 H 0.05422 0.27913 0.42215 0.0
H2084 H 0.06769 0.26938 0.40581 0.0
H2085 H 0.10867 0.32023 0.35497 0.0
H2086 H 0.07971 0.29337 0.36129 0.0
H2087 H 0.10806 0.26227 0.36338 0.0
H2088 H 0.13682 0.28898 0.35645 0.0
H2089 H 0.07316 0.2789 0.38198 0.0
H2090 H 0.08352 0.22193 0.36517 0.0
H2091 H 0.09184 0.21003 0.34717 0.0
H2092 H 0.07003 0.23562 0.32368 0.0
H2093 H 0.06248 0.24839 0.34152 0.0
C2094 C 1.00763 0.20088 0.40468 0.0
C2095 C 0.99205 0.18955 0.3974 0.0
C2096 C 0.02397 0.21493 0.39945 0.0
C2097 C 0.02505 0.2181 0.38683 0.0
C2098 C 1.00948 0.20686 0.37957 0.0
C2099 C 0.99321 0.19283 0.38477 0.0
C2100 C 0.04233 0.23298 0.38108 0.0
C2101 C 0.05033 0.22858 0.37136 0.0
C2102 C 0.05074 0.25143 0.38489 0.0
C2103 C 0.04267 0.2573 0.39472 0.0
C2104 C 0.02427 0.25389 0.39385 0.0
C2105 C 0.01674 0.25941 0.40318 0.0
C2106 C 0.02752 0.26847 0.41338 0.0
C2107 C 0.04588 0.27208 0.41426 0.0
C2108 C 0.05347 0.26657 0.40496 0.0
C2109 C 0.10852 0.30744 0.35635 0.0
C2110 C 0.12496 0.30668 0.3551 0.0
C2111 C 0.09198 0.2921 0.36008 0.0
C2112 C 0.09149 0.27562 0.36293 0.0
C2113 C 0.10775 0.27456 0.36105 0.0
C2114 C 0.12429 0.28991 0.35708 0.0
C2115 C 0.07464 0.2605 0.36902 0.0
C2116 C 0.06682 0.26483 0.37894 0.0
C2117 C 0.06621 0.24202 0.36529 0.0
C2118 C 0.07268 0.23625 0.35461 0.0
C2119 C 0.08085 0.22527 0.35613 0.0
C2120 C 0.08548 0.21844 0.34598 0.0
C2121 C 0.08158 0.22216 0.33429 0.0
C2122 C 0.07329 0.23295 0.33273 0.0
C2123 C 0.06906 0.24019 0.34285 0.0
H2124 H 0.08491 0.21663 0.32643 0.0
H2125 H 0.02167 0.27273 0.42059 0.0
H2126 H 0.81853 0.78736 0.38448 0.0
H2127 H 0.79418 0.79263 0.3763 0.0
H2128 H 0.8061 0.83304 0.40408 0.0
H2129 H 0.83065 0.82794 0.41228 0.0
H2130 H 0.76954 0.81241 0.40125 0.0
H2131 H 0.82092 0.84551 0.37464 0.0
H2132 H 0.84642 0.85037 0.36089 0.0
H2133 H 0.807 0.81001 0.33629 0.0
H2134 H 0.78127 0.80472 0.34999 0.0
H2135 H 0.72523 0.8509 0.35718 0.0
H2136 H 0.75294 0.85005 0.36426 0.0
H2137 H 0.71893 0.79265 0.37216 0.0
H2138 H 0.69141 0.79323 0.36457 0.0
H2139 H 0.76867 0.82623 0.3574 0.0
H2140 H 0.73316 0.78963 0.4025 0.0
H2141 H 0.70919 0.78781 0.4166 0.0
H2142 H 0.7197 0.84059 0.40481 0.0
H2143 H 0.74396 0.8429 0.39084 0.0
C2144 C 0.81612 0.79749 0.38882 0.0
C2145 C 0.82677 0.80731 0.39902 0.0
C2146 C 0.80212 0.80048 0.38412 0.0
C2147 C 0.79841 0.81346 0.38942 0.0
C2148 C 0.80866 0.82297 0.39978 0.0
C2149 C 0.82269 0.81997 0.40451 0.0
C2150 C 0.78383 0.81702 0.38415 0.0
C2151 C 0.76941 0.81544 0.39167 0.0
C2152 C 0.78375 0.82143 0.37168 0.0
C2153 C 0.79918 0.8246 0.3634 0.0
C2154 C 0.8177 0.83757 0.36634 0.0
C2155 C 0.83219 0.84042 0.35855 0.0
C2156 C 0.82834 0.83047 0.34774 0.0
C2157 C 0.80997 0.81769 0.34468 0.0
C2158 C 0.79542 0.81477 0.35245 0.0
C2159 C 0.72376 0.83798 0.36003 0.0
C2160 C 0.70616 0.82203 0.36007 0.0
C2161 C 0.73959 0.83755 0.36418 0.0
C2162 C 0.73797 0.82131 0.36883 0.0
C2163 C 0.72049 0.80534 0.36865 0.0
C2164 C 0.7048 0.80568 0.36429 0.0
C2165 C 0.75422 0.82102 0.37444 0.0
C2166 C 0.76889 0.82322 0.36698 0.0
C2167 C 0.75472 0.81753 0.38701 0.0
C2168 C 0.74021 0.8163 0.39548 0.0
C2169 C 0.73038 0.80086 0.40293 0.0
C2170 C 0.71673 0.79975 0.41091 0.0
C2171 C 0.71282 0.81402 0.41154 0.0
C2172 C 0.72263 0.82948 0.40425 0.0
C2173 C 0.73631 0.83069 0.39629 0.0
H2174 H 0.70228 0.81315 0.41773 0.0
H2175 H 0.83958 0.8327 0.34172 0.0
H2176 H 0.229 0.01353 0.42187 0.0
H2177 H 0.22243 0.98599 0.41071 0.0
H2178 H 0.18999 0.99646 0.38455 0.0
H2179 H 0.19682 0.02437 0.39554 0.0
H2180 H 0.17282 0.95968 0.39165 0.0
H2181 H 0.23277 0.00606 0.37713 0.0
H2182 H 0.26535 0.03081 0.37933 0.0
H2183 H 0.27911 0.99414 0.39765 0.0
H2184 H 0.24654 0.96922 0.39571 0.0
H2185 H 0.16798 0.89389 0.34887 0.0
H2186 H 0.17309 0.92214 0.35845 0.0
H2187 H 0.2119 0.9198 0.38366 0.0
H2188 H 0.20736 0.89198 0.37391 0.0
H2189 H 0.22536 0.95327 0.37604 0.0
H2190 H 0.16653 0.90743 0.39177 0.0
H2191 H 0.13403 0.88213 0.39081 0.0
H2192 H 0.11806 0.91655 0.37166 0.0
H2193 H 0.15053 0.942 0.37237 0.0
C2194 C 0.22064 0.01016 0.41367 0.0
C2195 C 0.21364 0.02138 0.40956 0.0
C2196 C 0.2168 0.99431 0.40733 0.0
C2197 C 0.20587 0.98924 0.39671 0.0
C2198 C 0.19845 1.00009 0.39272 0.0
C2199 C 0.20234 0.01604 0.39905 0.0
C2200 C 0.20259 0.97279 0.3897 0.0
C2201 C 0.18427 0.95837 0.38805 0.0
C2202 C 0.21755 0.97088 0.38528 0.0
C2203 C 0.23718 0.98581 0.38636 0.0
C2204 C 0.24271 1.0033 0.3817 0.0
C2205 C 0.26118 0.01736 0.38289 0.0
C2206 C 0.27428 0.01406 0.38865 0.0
C2207 C 0.26895 0.99668 0.3932 0.0
C2208 C 0.25049 0.98258 0.39205 0.0
C2209 C 0.17777 0.89948 0.35636 0.0
C2210 C 0.18732 0.89064 0.36055 0.0
C2211 C 0.18053 0.91556 0.36193 0.0
C2212 C 0.19272 0.92304 0.3719 0.0
C2213 C 0.20242 0.91435 0.37599 0.0
C2214 C 0.19976 0.89836 0.3704 0.0
C2215 C 0.19557 0.93998 0.37807 0.0
C2216 C 0.21384 0.95455 0.37955 0.0
C2217 C 0.18056 0.94188 0.38247 0.0
C2218 C 0.16102 0.92658 0.38201 0.0
C2219 C 0.15612 0.90956 0.38726 0.0
C2220 C 0.1377 0.8952 0.38678 0.0
C2221 C 0.124 0.89771 0.38116 0.0
C2222 C 0.12869 0.91461 0.37601 0.0
C2223 C 0.1471 0.92902 0.37645 0.0
H2224 H 0.10974 0.88658 0.38081 0.0
H2225 H 0.28857 0.02496 0.38956 0.0
H2226 H 0.54326 0.66814 0.27206 0.0
H2227 H 0.56575 0.69559 0.28292 0.0
H2228 H 0.53636 0.67306 0.31648 0.0
H2229 H 0.51334 0.64568 0.30557 0.0
H2230 H 0.54658 0.70879 0.31447 0.0
H2231 H 0.57703 0.67349 0.31038 0.0
H2232 H 0.58869 0.65579 0.29941 0.0
H2233 H 0.62366 0.70266 0.27752 0.0
H2234 H 0.61203 0.72059 0.28825 0.0
H2235 H 0.61752 0.77666 0.35147 0.0
H2236 H 0.59492 0.74758 0.34247 0.0
H2237 H 0.6255 0.76336 0.30875 0.0
H2238 H 0.64901 0.79178 0.31811 0.0
H2239 H 0.61405 0.72987 0.31172 0.0
H2240 H 0.58251 0.76502 0.31548 0.0
H2241 H 0.57167 0.78282 0.32724 0.0
H2242 H 0.53891 0.73626 0.34996 0.0
H2243 H 0.54973 0.71828 0.33845 0.0
C2244 C 0.54139 0.66904 0.28173 0.0
C2245 C 0.52639 0.65461 0.28791 0.0
C2246 C 0.55443 0.68472 0.28796 0.0
C2247 C 0.55294 0.68637 0.30057 0.0
C2248 C 0.53787 0.67212 0.30677 0.0
C2249 C 0.5248 0.65639 0.30053 0.0
C2250 C 0.56715 0.70295 0.30723 0.0
C2251 C 0.56132 0.71329 0.31398 0.0
C2252 C 0.58644 0.70906 0.30647 0.0
C2253 C 0.59353 0.69833 0.30005 0.0
C2254 C 0.58711 0.67999 0.30317 0.0
C2255 C 0.59373 0.66992 0.297 0.0
C2256 C 0.60688 0.67808 0.28776 0.0
C2257 C 0.61347 0.69635 0.28468 0.0
C2258 C 0.60688 0.70648 0.2908 0.0
C2259 C 0.61964 0.77388 0.34222 0.0
C2260 C 0.63527 0.78661 0.33562 0.0
C2261 C 0.60647 0.75726 0.33697 0.0
C2262 C 0.6081 0.75328 0.32476 0.0
C2263 C 0.62378 0.76596 0.31817 0.0
C2264 C 0.63726 0.78232 0.32355 0.0
C2265 C 0.59358 0.73601 0.31881 0.0
C2266 C 0.59933 0.72547 0.3122 0.0
C2267 C 0.57423 0.72978 0.31966 0.0
C2268 C 0.56703 0.74035 0.32617 0.0
C2269 C 0.57299 0.75859 0.32299 0.0
C2270 C 0.56688 0.76872 0.32962 0.0
C2271 C 0.55467 0.76068 0.33936 0.0
C2272 C 0.54839 0.74247 0.34242 0.0
C2273 C 0.55448 0.7323 0.33584 0.0
H2274 H 0.55007 0.76853 0.34457 0.0
H2275 H 0.61198 0.67026 0.283 0.0
H2276 H 0.3622 0.89752 0.29079 0.0
H2277 H 0.33404 0.89382 0.30047 0.0
H2278 H 0.32229 0.84154 0.31469 0.0
H2279 H 0.35056 0.84521 0.30514 0.0
H2280 H 0.29072 0.83985 0.30619 0.0
H2281 H 0.34065 0.87926 0.33295 0.0
H2282 H 0.37083 0.9061 0.33837 0.0
H2283 H 0.35094 0.94181 0.32653 0.0
H2284 H 0.32072 0.91517 0.32087 0.0
H2285 H 0.2166 0.83077 0.34179 0.0
H2286 H 0.2468 0.83367 0.33745 0.0
H2287 H 0.26744 0.88929 0.32572 0.0
H2288 H 0.2381 0.88715 0.33178 0.0
H2289 H 0.29501 0.88778 0.33428 0.0
H2290 H 0.24647 0.84841 0.30529 0.0
H2291 H 0.21454 0.82232 0.30308 0.0
H2292 H 0.23133 0.78693 0.31997 0.0
H2293 H 0.26333 0.81287 0.32242 0.0
C2294 C 0.35374 0.88527 0.29604 0.0
C2295 C 0.35884 0.87173 0.29719 0.0
C2296 C 0.33756 0.88315 0.30157 0.0
C2297 C 0.32607 0.86749 0.30847 0.0
C2298 C 0.33086 0.85375 0.30942 0.0
C2299 C 0.34706 0.85586 0.30389 0.0
C2300 C 0.30926 0.8656 0.31482 0.0
C2301 C 0.29173 0.85027 0.31241 0.0
C2302 C 0.31037 0.87918 0.32291 0.0
C2303 C 0.32848 0.89522 0.32639 0.0
C2304 C 0.34276 0.89284 0.33142 0.0
C2305 C 0.35986 0.90802 0.33455 0.0
C2306 C 0.36281 0.92565 0.33277 0.0
C2307 C 0.34864 0.92814 0.32789 0.0
C2308 C 0.33152 0.91301 0.32473 0.0
C2309 C 0.22784 0.84386 0.33885 0.0
C2310 C 0.22507 0.85887 0.33746 0.0
C2311 C 0.24505 0.84541 0.33603 0.0
C2312 C 0.25937 0.86151 0.33076 0.0
C2313 C 0.25674 0.87666 0.32969 0.0
C2314 C 0.23987 0.87539 0.33309 0.0
C2315 C 0.27641 0.86227 0.32545 0.0
C2316 C 0.294 0.87738 0.32804 0.0
C2317 C 0.27535 0.84858 0.31746 0.0
C2318 C 0.25721 0.83257 0.3141 0.0
C2319 C 0.2434 0.83499 0.30834 0.0
C2320 C 0.22528 0.82029 0.30715 0.0
C2321 C 0.2209 0.80307 0.31154 0.0
C2322 C 0.23476 0.80034 0.31668 0.0
C2323 C 0.25291 0.81501 0.31793 0.0
H2324 H 0.20675 0.79187 0.31098 0.0
H2325 H 0.37607 0.93738 0.33519 0.0
H2326 H 0.15242 0.48891 0.27834 0.0
H2327 H 0.15681 0.46413 0.28609 0.0
H2328 H 0.1379 0.46974 0.32147 0.0
H2329 H 0.13338 0.49441 0.31379 0.0
H2330 H 0.16852 0.46632 0.32342 0.0
H2331 H 0.10966 0.43493 0.30185 0.0
H2332 H 0.08899 0.42771 0.28401 0.0
H2333 H 0.12281 0.41162 0.26393 0.0
H2334 H 0.14385 0.419 0.2816 0.0
H2335 H 0.15283 0.38485 0.35128 0.0
H2336 H 0.14852 0.40898 0.34237 0.0
H2337 H 0.1641 0.39828 0.30722 0.0
H2338 H 0.16803 0.37382 0.31615 0.0
H2339 H 0.13662 0.40477 0.30448 0.0
H2340 H 0.19483 0.4346 0.32545 0.0
H2341 H 0.21539 0.44028 0.34315 0.0
H2342 H 0.18456 0.45946 0.36367 0.0
H2343 H 0.1635 0.45346 0.34618 0.0
C2344 C 0.14902 0.48477 0.28774 0.0
C2345 C 0.14252 0.49369 0.29542 0.0
C2346 C 0.15159 0.47061 0.29218 0.0
C2347 C 0.14756 0.46494 0.30436 0.0
C2348 C 0.14119 0.47389 0.31206 0.0
C2349 C 0.13865 0.48805 0.30764 0.0
C2350 C 0.1499 0.44967 0.30913 0.0
C2351 C 0.16139 0.45282 0.31935 0.0
C2352 C 0.14109 0.43216 0.30362 0.0
C2353 C 0.12844 0.42771 0.293 0.0
C2354 C 0.11278 0.43 0.29359 0.0
C2355 C 0.10098 0.42585 0.28352 0.0
C2356 C 0.10462 0.41927 0.27283 0.0
C2357 C 0.12004 0.41677 0.2722 0.0
C2358 C 0.13189 0.42091 0.28225 0.0
C2359 C 0.1555 0.38775 0.34171 0.0
C2360 C 0.16108 0.37768 0.33448 0.0
C2361 C 0.15297 0.40152 0.33658 0.0
C2362 C 0.1564 0.40579 0.32414 0.0
C2363 C 0.16143 0.39533 0.31683 0.0
C2364 C 0.16367 0.38135 0.32195 0.0
C2365 C 0.15505 0.42135 0.31885 0.0
C2366 C 0.14382 0.41829 0.30852 0.0
C2367 C 0.16432 0.43901 0.32416 0.0
C2368 C 0.1775 0.44347 0.33451 0.0
C2369 C 0.1924 0.44 0.33374 0.0
C2370 C 0.20414 0.44325 0.34374 0.0
C2371 C 0.2013 0.45025 0.35452 0.0
C2372 C 0.18675 0.45405 0.3553 0.0
C2373 C 0.1749 0.45073 0.34535 0.0
H2374 H 0.21038 0.45273 0.36226 0.0
H2375 H 0.09547 0.41606 0.26504 0.0
H2376 H 0.36713 0.46908 0.3031 0.0
H2377 H 0.33811 0.44516 0.31197 0.0
H2378 H 0.30984 0.47362 0.29997 0.0
H2379 H 0.33895 0.49782 0.29128 0.0
H2380 H 0.30119 0.4623 0.32336 0.0
H2381 H 0.3026 0.43502 0.28551 0.0
H2382 H 0.3162 0.42476 0.26959 0.0
H2383 H 0.32128 0.38897 0.29515 0.0
H2384 H 0.30794 0.3992 0.31127 0.0
H2385 H 0.20984 0.38713 0.33723 0.0
H2386 H 0.23818 0.4136 0.3296 0.0
H2387 H 0.26794 0.38411 0.33408 0.0
H2388 H 0.23928 0.35732 0.34086 0.0
H2389 H 0.27481 0.39679 0.31324 0.0
H2390 H 0.28399 0.43159 0.35161 0.0
H2391 H 0.27532 0.44525 0.36835 0.0
H2392 H 0.25113 0.46596 0.34271 0.0
H2393 H 0.26065 0.45324 0.32576 0.0
C2394 C 0.35477 0.4703 0.30236 0.0
C2395 C 0.35544 0.48542 0.29645 0.0
C2396 C 0.33811 0.45651 0.30735 0.0
C2397 C 0.32168 0.45745 0.30656 0.0
C2398 C 0.32228 0.47252 0.30067 0.0
C2399 C 0.33893 0.48629 0.29562 0.0
C2400 C 0.30404 0.44297 0.31215 0.0
C2401 C 0.29528 0.44798 0.32102 0.0
C2402 C 0.29644 0.42423 0.30932 0.0
C2403 C 0.30441 0.418 0.29963 0.0
C2404 C 0.30675 0.42507 0.28776 0.0
C2405 C 0.31439 0.41924 0.27869 0.0
C2406 C 0.31964 0.40625 0.28136 0.0
C2407 C 0.31722 0.39904 0.2931 0.0
C2408 C 0.3096 0.40484 0.3022 0.0
C2409 C 0.2226 0.38654 0.33691 0.0
C2410 C 0.22241 0.3702 0.33969 0.0
C2411 C 0.23891 0.40177 0.33258 0.0
C2412 C 0.25548 0.40109 0.33122 0.0
C2413 C 0.25545 0.38509 0.33486 0.0
C2414 C 0.23908 0.36978 0.33885 0.0
C2415 C 0.27219 0.41598 0.32484 0.0
C2416 C 0.28069 0.41107 0.31566 0.0
C2417 C 0.27966 0.43479 0.32744 0.0
C2418 C 0.2727 0.44123 0.3375 0.0
C2419 C 0.27666 0.43891 0.34958 0.0
C2420 C 0.27175 0.44662 0.35908 0.0
C2421 C 0.26239 0.45622 0.35662 0.0
C2422 C 0.25825 0.45841 0.34461 0.0
C2423 C 0.26358 0.45114 0.33505 0.0
H2424 H 0.25847 0.46205 0.36401 0.0
H2425 H 0.32555 0.40176 0.27433 0.0
H2426 H 0.55052 0.90284 0.29442 0.0
H2427 H 0.57337 0.89766 0.30516 0.0
H2428 H 0.54071 0.84002 0.29744 0.0
H2429 H 0.51749 0.84501 0.28699 0.0
H2430 H 0.553 0.84527 0.32035 0.0
H2431 H 0.58075 0.86791 0.28152 0.0
H2432 H 0.59204 0.8893 0.2642 0.0
H2433 H 0.6308 0.93214 0.2877 0.0
H2434 H 0.61955 0.91106 0.3052 0.0
H2435 H 0.62631 0.82655 0.33715 0.0
H2436 H 0.60008 0.82886 0.32882 0.0
H2437 H 0.63336 0.88771 0.3301 0.0
H2438 H 0.65977 0.88528 0.33766 0.0
H2439 H 0.61982 0.8801 0.30944 0.0
H2440 H 0.58495 0.85968 0.3486 0.0
H2441 H 0.56896 0.83936 0.36598 0.0
H2442 H 0.54365 0.79313 0.34197 0.0
H2443 H 0.55889 0.81331 0.3244 0.0
C2444 C 0.54805 0.88901 0.29511 0.0
C2445 C 0.5321 0.87436 0.28978 0.0
C2446 C 0.56128 0.88609 0.30115 0.0
C2447 C 0.55898 0.86847 0.30198 0.0
C2448 C 0.54291 0.85377 0.29688 0.0
C2449 C 0.52968 0.85667 0.29082 0.0
C2450 C 0.57322 0.86537 0.30827 0.0
C2451 C 0.5676 0.85275 0.31786 0.0
C2452 C 0.59235 0.87525 0.30521 0.0
C2453 C 0.59919 0.88794 0.29469 0.0
C2454 C 0.59158 0.88193 0.28301 0.0
C2455 C 0.59799 0.89399 0.27316 0.0
C2456 C 0.6121 0.91208 0.27485 0.0
C2457 C 0.61986 0.91813 0.2864 0.0
C2458 C 0.61348 0.90613 0.29629 0.0
C2459 C 0.62781 0.83995 0.33593 0.0
C2460 C 0.64509 0.85576 0.33807 0.0
C2461 C 0.61272 0.8413 0.33121 0.0
C2462 C 0.6145 0.85851 0.32876 0.0
C2463 C 0.63149 0.87424 0.33171 0.0
C2464 C 0.64661 0.87288 0.33613 0.0
C2465 C 0.59977 0.86041 0.32192 0.0
C2466 C 0.60527 0.87268 0.31205 0.0
C2467 C 0.58054 0.85024 0.32473 0.0
C2468 C 0.57334 0.83789 0.33529 0.0
C2469 C 0.57625 0.84513 0.34709 0.0
C2470 C 0.56719 0.83366 0.35694 0.0
C2471 C 0.55562 0.81489 0.35513 0.0
C2472 C 0.55286 0.80759 0.34341 0.0
C2473 C 0.56155 0.81905 0.33349 0.0
H2474 H 0.54866 0.80604 0.36278 0.0
H2475 H 0.61705 0.9214 0.26721 0.0
H2476 H 0.14394 0.64981 0.30193 0.0
H2477 H 0.15146 0.67824 0.31242 0.0
H2478 H 0.13536 0.69684 0.28048 0.0
H2479 H 0.12857 0.66888 0.2698 0.0
H2480 H 0.16564 0.72404 0.28959 0.0
H2481 H 0.10653 0.67928 0.30553 0.0
H2482 H 0.08392 0.65035 0.31534 0.0
H2483 H 0.11784 0.6655 0.34758 0.0
H2484 H 0.14079 0.69443 0.3379 0.0
H2485 H 0.13765 0.78131 0.32779 0.0
H2486 H 0.13177 0.75309 0.3177 0.0
H2487 H 0.18685 0.76416 0.32749 0.0
H2488 H 0.19268 0.79224 0.33798 0.0
H2489 H 0.13704 0.72253 0.32946 0.0
H2490 H 0.19871 0.7536 0.29569 0.0
H2491 H 0.21757 0.78193 0.28402 0.0
H2492 H 0.17278 0.79361 0.28499 0.0
H2493 H 0.15363 0.76534 0.2966 0.0
C2494 C 0.14219 0.66003 0.29709 0.0
C2495 C 0.1355 0.65693 0.28503 0.0
C2496 C 0.14633 0.67623 0.30314 0.0
C2497 C 0.14377 0.68965 0.29731 0.0
C2498 C 0.13742 0.68672 0.28521 0.0
C2499 C 0.13333 0.67058 0.27915 0.0
C2500 C 0.14753 0.70669 0.30377 0.0
C2501 C 0.15946 0.72367 0.29835 0.0
C2502 C 0.13922 0.7063 0.3151 0.0
C2503 C 0.12547 0.68892 0.32094 0.0
C2504 C 0.10924 0.67637 0.31467 0.0
C2505 C 0.09636 0.65999 0.32022 0.0
C2506 C 0.09947 0.65606 0.33206 0.0
C2507 C 0.11546 0.66854 0.3384 0.0
C2508 C 0.12841 0.68493 0.33289 0.0
C2509 C 0.14848 0.7777 0.32787 0.0
C2510 C 0.16562 0.78898 0.3337 0.0
C2511 C 0.14509 0.76157 0.32211 0.0
C2512 C 0.15893 0.75666 0.32175 0.0
C2513 C 0.17603 0.7678 0.32761 0.0
C2514 C 0.1793 0.78375 0.33365 0.0
C2515 C 0.15531 0.73974 0.31535 0.0
C2516 C 0.14341 0.72283 0.3208 0.0
C2517 C 0.16325 0.74018 0.3039 0.0
C2518 C 0.17488 0.75752 0.29725 0.0
C2519 C 0.1929 0.76223 0.29344 0.0
C2520 C 0.20361 0.77824 0.28678 0.0
C2521 C 0.19639 0.78958 0.28377 0.0
C2522 C 0.17843 0.78492 0.28742 0.0
C2523 C 0.16768 0.76895 0.2941 0.0
H2524 H 0.20469 0.80195 0.2786 0.0
H2525 H 0.08947 0.64338 0.33634 0.0
H2526 H 0.79633 0.02357 0.41562 0.0
H2527 H 0.77471 0.9955 0.40498 0.0
H2528 H 0.82083 0.99407 0.3881 0.0
H2529 H 0.84268 0.02223 0.39883 0.0
H2530 H 0.79239 0.9845 0.37195 0.0
H2531 H 0.79895 0.96683 0.41217 0.0
H2532 H 0.79924 0.96758 0.4346 0.0
H2533 H 0.74165 0.95305 0.43473 0.0
H2534 H 0.7411 0.95248 0.41228 0.0
H2535 H 0.73906 0.89131 0.35329 0.0
H2536 H 0.76211 0.92016 0.3625 0.0
H2537 H 0.71849 0.92325 0.38173 0.0
H2538 H 0.69534 0.89416 0.37273 0.0
H2539 H 0.74678 0.93183 0.3965 0.0
H2540 H 0.74067 0.94988 0.3559 0.0
H2541 H 0.74053 0.94778 0.33351 0.0
H2542 H 0.79762 0.96064 0.33414 0.0
H2543 H 0.79801 0.96256 0.35655 0.0
C2544 C 0.80195 0.01728 0.4097 0.0
C2545 C 0.82133 0.0251 0.40824 0.0
C2546 C 0.78952 1.00121 0.40358 0.0
C2547 C 0.7961 0.99243 0.39587 0.0
C2548 C 0.81539 1.00053 0.39401 0.0
C2549 C 0.82788 0.01668 0.40014 0.0
C2550 C 0.78279 0.97459 0.39007 0.0
C2551 C 0.78258 0.97292 0.37734 0.0
C2552 C 0.76976 0.95947 0.39703 0.0
C2553 C 0.77004 0.95979 0.41054 0.0
C2554 C 0.78639 0.96394 0.41697 0.0
C2555 C 0.7866 0.96431 0.42969 0.0
C2556 C 0.77049 0.96041 0.43608 0.0
C2557 C 0.75413 0.95609 0.42977 0.0
C2558 C 0.75386 0.95574 0.41705 0.0
C2559 C 0.7343 0.89819 0.35938 0.0
C2560 C 0.71527 0.89045 0.36217 0.0
C2561 C 0.74755 0.91475 0.36465 0.0
C2562 C 0.74209 0.92411 0.37271 0.0
C2563 C 0.7231 0.91636 0.37553 0.0
C2564 C 0.70985 0.89972 0.37034 0.0
C2565 C 0.75614 0.94179 0.37837 0.0
C2566 C 0.75655 0.94342 0.3911 0.0
C2567 C 0.76936 0.9568 0.3714 0.0
C2568 C 0.76933 0.95623 0.35791 0.0
C2569 C 0.75317 0.9522 0.35126 0.0
C2570 C 0.75305 0.95104 0.33857 0.0
C2571 C 0.76905 0.95405 0.33241 0.0
C2572 C 0.78523 0.95831 0.33892 0.0
C2573 C 0.78542 0.95946 0.35162 0.0
H2574 H 0.7689 0.95309 0.32259 0.0
H2575 H 0.77067 0.96069 0.44593 0.0
H2576 H 0.01646 0.8124 0.41963 0.0
H2577 H 0.04367 0.81758 0.40798 0.0
H2578 H 0.01389 0.81199 0.37454 0.0
H2579 H 0.98661 0.80697 0.38614 0.0
H2580 H 0.03092 0.79317 0.3729 0.0
H2581 H 0.04933 0.85385 0.38473 0.0
H2582 H 0.05605 0.87974 0.39821 0.0
H2583 H 0.09769 0.8728 0.41691 0.0
H2584 H 0.09098 0.84664 0.4037 0.0
H2585 H 0.13812 0.85023 0.35394 0.0
H2586 H 0.10896 0.84861 0.36005 0.0
H2587 H 0.08639 0.7918 0.36947 0.0
H2588 H 0.11497 0.79316 0.36261 0.0
H2589 H 0.09478 0.84442 0.38064 0.0
H2590 H 0.04217 0.76827 0.37123 0.0
H2591 H 0.03492 0.74487 0.35545 0.0
H2592 H 0.06042 0.78678 0.32834 0.0
H2593 H 0.06799 0.81045 0.34402 0.0
C2594 C 0.01572 0.81257 0.4098 0.0
C2595 C 0.99921 0.8093 0.40388 0.0
C2596 C 0.03137 0.81552 0.40312 0.0
C2597 C 0.03102 0.81539 0.39033 0.0
C2598 C 0.01459 0.81216 0.38438 0.0
C2599 C 0.99892 0.8092 0.39106 0.0
C2600 C 0.04748 0.81779 0.3832 0.0
C2601 C 0.04487 0.80443 0.37459 0.0
C2602 C 0.06573 0.83267 0.38511 0.0
C2603 C 0.06948 0.84811 0.3933 0.0
C2604 C 0.05975 0.85769 0.39181 0.0
C2605 C 0.0636 0.87245 0.39939 0.0
C2606 C 0.07725 0.87788 0.40843 0.0
C2607 C 0.08709 0.86855 0.40992 0.0
C2608 C 0.08326 0.85375 0.40239 0.0
C2609 C 0.12667 0.83723 0.35686 0.0
C2610 C 0.12874 0.82171 0.35753 0.0
C2611 C 0.11002 0.83635 0.36052 0.0
C2612 C 0.09516 0.82 0.36514 0.0
C2613 C 0.09722 0.80446 0.36562 0.0
C2614 C 0.1137 0.80528 0.36178 0.0
C2615 C 0.0783 0.81956 0.37053 0.0
C2616 C 0.08083 0.83323 0.37887 0.0
C2617 C 0.05991 0.8052 0.36817 0.0
C2618 C 0.05581 0.7911 0.35879 0.0
C2619 C 0.04628 0.77248 0.3619 0.0
C2620 C 0.04217 0.75918 0.35299 0.0
C2621 C 0.04734 0.76435 0.34091 0.0
C2622 C 0.05662 0.78283 0.33772 0.0
C2623 C 0.06092 0.79619 0.34662 0.0
H2624 H 0.04407 0.75404 0.33402 0.0
H2625 H 0.08023 0.88934 0.41427 0.0
H2626 H 0.23083 0.20652 0.4106 0.0
H2627 H 0.22635 0.23114 0.40264 0.0
H2628 H 0.17999 0.19215 0.38097 0.0
H2629 H 0.18426 0.16748 0.38895 0.0
H2630 H 0.20248 0.2215 0.36771 0.0
H2631 H 0.17348 0.21072 0.40693 0.0
H2632 H 0.17164 0.20759 0.42927 0.0
H2633 H 0.21635 0.26288 0.43309 0.0
H2634 H 0.21863 0.26626 0.41076 0.0
H2635 H 0.16366 0.27597 0.35028 0.0
H2636 H 0.16923 0.25255 0.35896 0.0
H2637 H 0.21356 0.29328 0.38116 0.0
H2638 H 0.2077 0.3168 0.37272 0.0
H2639 H 0.19332 0.26382 0.39421 0.0
H2640 H 0.22205 0.27475 0.35492 0.0
H2641 H 0.22334 0.27798 0.33259 0.0
H2642 H 0.17895 0.22252 0.32889 0.0
H2643 H 0.17727 0.21901 0.35122 0.0
C2644 C 0.21953 0.20314 0.40426 0.0
C2645 C 0.20793 0.18497 0.40042 0.0
C2646 C 0.21701 0.21726 0.39969 0.0
C2647 C 0.20275 0.21352 0.39124 0.0
C2648 C 0.19114 0.19541 0.38743 0.0
C2649 C 0.19365 0.18131 0.39198 0.0
C2650 C 0.20008 0.22846 0.38619 0.0
C2651 C 0.20028 0.23062 0.37351 0.0
C2652 C 0.19766 0.2407 0.39374 0.0
C2653 C 0.19636 0.23867 0.40717 0.0
C2654 C 0.18303 0.22216 0.41253 0.0
C2655 C 0.18189 0.22035 0.42519 0.0
C2656 C 0.19391 0.23501 0.43259 0.0
C2657 C 0.20707 0.25152 0.42735 0.0
C2658 C 0.20829 0.2534 0.41469 0.0
C2659 C 0.17469 0.28002 0.35695 0.0
C2660 C 0.18534 0.29833 0.36072 0.0
C2661 C 0.1779 0.26657 0.3619 0.0
C2662 C 0.19205 0.27113 0.37059 0.0
C2663 C 0.2026 0.28939 0.37445 0.0
C2664 C 0.19927 0.30285 0.36958 0.0
C2665 C 0.19565 0.25681 0.37572 0.0
C2666 C 0.19564 0.25477 0.38841 0.0
C2667 C 0.19826 0.24468 0.36818 0.0
C2668 C 0.19946 0.24666 0.35475 0.0
C2669 C 0.21252 0.26326 0.34935 0.0
C2670 C 0.21334 0.26514 0.33669 0.0
C2671 C 0.20123 0.25046 0.32933 0.0
C2672 C 0.18832 0.23387 0.33461 0.0
C2673 C 0.18746 0.23192 0.34726 0.0
H2674 H 0.20185 0.25196 0.31953 0.0
H2675 H 0.19299 0.23359 0.44239 0.0
H2676 H 0.65442 0.54363 0.7319 0.0
H2677 H 0.68278 0.56858 0.72305 0.0
H2678 H 0.70695 0.53373 0.72159 0.0
H2679 H 0.67883 0.50887 0.73076 0.0
H2680 H 0.73235 0.56748 0.72921 0.0
H2681 H 0.68894 0.54251 0.69604 0.0
H2682 H 0.65911 0.5323 0.68537 0.0
H2683 H 0.66709 0.5865 0.68765 0.0
H2684 H 0.69685 0.59698 0.69849 0.0
H2685 H 0.80703 0.62525 0.69007 0.0
H2686 H 0.77825 0.59847 0.69692 0.0
H2687 H 0.75283 0.63189 0.70137 0.0
H2688 H 0.78163 0.65871 0.6945 0.0
H2689 H 0.72833 0.598 0.69162 0.0
H2690 H 0.77105 0.62293 0.72513 0.0
H2691 H 0.80064 0.63347 0.73616 0.0
H2692 H 0.79392 0.57978 0.73364 0.0
H2693 H 0.76443 0.56899 0.72236 0.0
C2694 C 0.66583 0.5413 0.72985 0.0
C2695 C 0.66422 0.52414 0.73202 0.0
C2696 C 0.68201 0.55556 0.72466 0.0
C2697 C 0.69698 0.55301 0.72146 0.0
C2698 C 0.69561 0.53605 0.7239 0.0
C2699 C 0.67941 0.52178 0.72906 0.0
C2700 C 0.71396 0.56796 0.71549 0.0
C2701 C 0.73148 0.57394 0.72088 0.0
C2702 C 0.71289 0.57672 0.70474 0.0
C2703 C 0.69504 0.57048 0.69818 0.0
C2704 C 0.68426 0.55222 0.69435 0.0
C2705 C 0.66738 0.54639 0.68826 0.0
C2706 C 0.66118 0.55874 0.68586 0.0
C2707 C 0.67189 0.57695 0.68952 0.0
C2708 C 0.68878 0.58284 0.69563 0.0
C2709 C 0.79518 0.62681 0.6922 0.0
C2710 C 0.7965 0.64405 0.69161 0.0
C2711 C 0.77877 0.61151 0.69624 0.0
C2712 C 0.76342 0.61319 0.69981 0.0
C2713 C 0.76446 0.63024 0.69868 0.0
C2714 C 0.78091 0.64555 0.69475 0.0
C2715 C 0.74665 0.59752 0.70536 0.0
C2716 C 0.72919 0.59143 0.6999 0.0
C2717 C 0.74779 0.58871 0.71606 0.0
C2718 C 0.76562 0.59521 0.72275 0.0
C2719 C 0.77597 0.61342 0.72679 0.0
C2720 C 0.79272 0.61943 0.73312 0.0
C2721 C 0.79918 0.60732 0.73557 0.0
C2722 C 0.78891 0.58916 0.7317 0.0
C2723 C 0.77218 0.58309 0.72534 0.0
H2724 H 0.81212 0.61199 0.7405 0.0
H2725 H 0.64811 0.5542 0.68114 0.0
H2726 H 0.51116 0.17031 0.72644 0.0
H2727 H 0.48529 0.17286 0.71793 0.0
H2728 H 0.44687 0.11775 0.72932 0.0
H2729 H 0.4728 0.11487 0.73749 0.0
H2730 H 0.43904 0.12277 0.70682 0.0
H2731 H 0.45025 0.15572 0.74413 0.0
H2732 H 0.46872 0.17889 0.75965 0.0
H2733 H 0.48232 0.22162 0.73358 0.0
H2734 H 0.46414 0.19869 0.71785 0.0
H2735 H 0.35559 0.12569 0.69759 0.0
H2736 H 0.38207 0.12288 0.70445 0.0
H2737 H 0.41912 0.17963 0.69578 0.0
H2738 H 0.39236 0.18269 0.68967 0.0
H2739 H 0.42796 0.17379 0.71675 0.0
H2740 H 0.42061 0.14062 0.67897 0.0
H2741 H 0.40345 0.1173 0.66313 0.0
H2742 H 0.38272 0.07522 0.69033 0.0
H2743 H 0.4 0.09828 0.70623 0.0
C2744 C 0.49723 0.15867 0.72711 0.0
C2745 C 0.49417 0.14234 0.73266 0.0
C2746 C 0.48237 0.16023 0.72233 0.0
C2747 C 0.464 0.14558 0.72306 0.0
C2748 C 0.46087 0.1293 0.72865 0.0
C2749 C 0.47573 0.12772 0.73343 0.0
C2750 C 0.44818 0.14702 0.71763 0.0
C2751 C 0.4365 0.13382 0.70913 0.0
C2752 C 0.44501 0.16165 0.72035 0.0
C2753 C 0.45599 0.17547 0.72978 0.0
C2754 C 0.45732 0.17005 0.74168 0.0
C2755 C 0.46771 0.18314 0.75052 0.0
C2756 C 0.47673 0.20171 0.7476 0.0
C2757 C 0.47535 0.20723 0.73583 0.0
C2758 C 0.46499 0.19419 0.72695 0.0
C2759 C 0.36944 0.13748 0.69692 0.0
C2760 C 0.37186 0.15431 0.69284 0.0
C2761 C 0.38468 0.13583 0.70076 0.0
C2762 C 0.40285 0.15093 0.70048 0.0
C2763 C 0.40534 0.16769 0.69608 0.0
C2764 C 0.39002 0.16941 0.69242 0.0
C2765 C 0.41889 0.14963 0.70579 0.0
C2766 C 0.43056 0.16281 0.71436 0.0
C2767 C 0.42207 0.13498 0.70316 0.0
C2768 C 0.4113 0.12116 0.69374 0.0
C2769 C 0.4122 0.1264 0.68153 0.0
C2770 C 0.40257 0.11324 0.67256 0.0
C2771 C 0.39186 0.09482 0.67574 0.0
C2772 C 0.39095 0.0895 0.68788 0.0
C2773 C 0.40074 0.10259 0.69686 0.0
H2774 H 0.38436 0.08467 0.66879 0.0
H2775 H 0.48476 0.21183 0.75446 0.0
H2776 H 0.90712 0.35734 0.74633 0.0
H2777 H 0.90045 0.32976 0.73519 0.0
H2778 H 0.84497 0.31937 0.72734 0.0
H2779 H 0.85137 0.34675 0.73885 0.0
H2780 H 0.84428 0.28836 0.73421 0.0
H2781 H 0.87844 0.3358 0.70539 0.0
H2782 H 0.90436 0.36488 0.69783 0.0
H2783 H 0.94247 0.34517 0.70404 0.0
H2784 H 0.91681 0.31606 0.7118 0.0
H2785 H 0.8281 0.22199 0.68757 0.0
H2786 H 0.83298 0.24998 0.69758 0.0
H2787 H 0.88479 0.25843 0.71267 0.0
H2788 H 0.87986 0.23029 0.70294 0.0
H2789 H 0.88601 0.29032 0.70126 0.0
H2790 H 0.85216 0.2438 0.73122 0.0
H2791 H 0.82627 0.21463 0.73868 0.0
H2792 H 0.78741 0.23255 0.72987 0.0
H2793 H 0.8131 0.26181 0.72223 0.0
C2794 C 0.89344 0.34916 0.74231 0.0
C2795 C 0.87978 0.3543 0.74352 0.0
C2796 C 0.8897 0.33345 0.73583 0.0
C2797 C 0.87226 0.32253 0.73029 0.0
C2798 C 0.85855 0.32758 0.73149 0.0
C2799 C 0.86229 0.34334 0.73798 0.0
C2800 C 0.86839 0.30579 0.7234 0.0
C2801 C 0.85323 0.28886 0.72687 0.0
C2802 C 0.88023 0.30631 0.71395 0.0
C2803 C 0.89571 0.3238 0.70928 0.0
C2804 C 0.89237 0.33772 0.70523 0.0
C2805 C 0.90702 0.3542 0.7009 0.0
C2806 C 0.92506 0.35688 0.70048 0.0
C2807 C 0.92849 0.34308 0.70438 0.0
C2808 C 0.91389 0.32658 0.70874 0.0
C2809 C 0.84058 0.22985 0.69297 0.0
C2810 C 0.85359 0.2239 0.69447 0.0
C2811 C 0.84329 0.24579 0.69872 0.0
C2812 C 0.8592 0.25621 0.70591 0.0
C2813 C 0.87242 0.25056 0.70718 0.0
C2814 C 0.86955 0.23446 0.70163 0.0
C2815 C 0.86207 0.27302 0.71215 0.0
C2816 C 0.87701 0.28991 0.70855 0.0
C2817 C 0.85001 0.27246 0.72143 0.0
C2818 C 0.83453 0.2549 0.726 0.0
C2819 C 0.83808 0.24146 0.73076 0.0
C2820 C 0.82345 0.22493 0.73505 0.0
C2821 C 0.8052 0.22171 0.7347 0.0
C2822 C 0.80156 0.23506 0.73011 0.0
C2823 C 0.81615 0.25162 0.72581 0.0
H2824 H 0.7939 0.2089 0.73802 0.0
H2825 H 0.93638 0.36965 0.69712 0.0
H2826 H 0.176 0.99123 0.63017 0.0
H2827 H 0.19736 0.01908 0.64128 0.0
H2828 H 0.24392 0.0138 0.62927 0.0
H2829 H 0.22266 0.98562 0.61859 0.0
H2830 H 0.24916 0.02436 0.65206 0.0
H2831 H 0.23202 0.04387 0.61564 0.0
H2832 H 0.21061 0.04539 0.60065 0.0
H2833 H 0.1892 0.06598 0.62812 0.0
H2834 H 0.21032 0.06435 0.64333 0.0
H2835 H 0.32276 0.11629 0.6594 0.0
H2836 H 0.29934 0.08688 0.6509 0.0
H2837 H 0.25588 0.09235 0.66834 0.0
H2838 H 0.27919 0.12175 0.67692 0.0
H2839 H 0.2481 0.08161 0.64385 0.0
H2840 H 0.26739 0.06364 0.67997 0.0
H2841 H 0.2902 0.0632 0.69423 0.0
H2842 H 0.3089 0.04051 0.66643 0.0
H2843 H 0.28639 0.04108 0.65192 0.0
C2844 C 0.19076 0.99583 0.63003 0.0
C2845 C 0.19756 0.98619 0.62335 0.0
C2846 C 0.203 0.0119 0.6363 0.0
C2847 C 0.22235 0.0188 0.63597 0.0
C2848 C 0.2291 0.00889 0.62963 0.0
C2849 C 0.2169 0.99282 0.62341 0.0
C2850 C 0.23565 0.03646 0.64202 0.0
C2851 C 0.249 0.03688 0.65016 0.0
C2852 C 0.23534 0.05284 0.63977 0.0
C2853 C 0.22259 0.05378 0.63066 0.0
C2854 C 0.22263 0.04857 0.61851 0.0
C2855 C 0.21057 0.04948 0.60997 0.0
C2856 C 0.19851 0.05572 0.61344 0.0
C2857 C 0.19852 0.06111 0.62546 0.0
C2858 C 0.21054 0.06021 0.63404 0.0
C2859 C 0.30824 0.11124 0.66147 0.0
C2860 C 0.30291 0.12138 0.66891 0.0
C2861 C 0.29485 0.09438 0.65663 0.0
C2862 C 0.27584 0.08733 0.65903 0.0
C2863 C 0.27045 0.09748 0.66637 0.0
C2864 C 0.28384 0.11426 0.67133 0.0
C2865 C 0.26161 0.06946 0.65378 0.0
C2866 C 0.24812 0.06902 0.6458 0.0
C2867 C 0.26191 0.05312 0.65609 0.0
C2868 C 0.27531 0.05255 0.66483 0.0
C2869 C 0.27646 0.05868 0.67686 0.0
C2870 C 0.28932 0.05839 0.685 0.0
C2871 C 0.30102 0.05187 0.68123 0.0
C2872 C 0.29984 0.04557 0.66933 0.0
C2873 C 0.28702 0.04586 0.66115 0.0
H2874 H 0.31097 0.05166 0.68754 0.0
H2875 H 0.1892 0.05642 0.60681 0.0
H2876 H 0.01487 0.17661 0.63726 0.0
H2877 H 0.98634 0.17315 0.64622 0.0
H2878 H 1.00252 0.22831 0.63574 0.0
H2879 H 0.03104 0.23185 0.6267 0.0
H2880 H 0.99044 0.22244 0.65842 0.0
H2881 H 0.96754 0.19038 0.62067 0.0
H2882 H 0.96221 0.16755 0.60488 0.0
H2883 H 0.93314 0.12428 0.63068 0.0
H2884 H 0.93853 0.14687 0.64668 0.0
H2885 H 0.90468 0.22049 0.66662 0.0
H2886 H 0.93394 0.22284 0.66029 0.0
H2887 H 0.91217 0.16587 0.66882 0.0
H2888 H 0.88236 0.16328 0.67445 0.0
H2889 H 0.92738 0.17179 0.64798 0.0
H2890 H 0.95227 0.20398 0.686 0.0
H2891 H 0.95873 0.22701 0.70198 0.0
H2892 H 0.98388 0.26988 0.67547 0.0
H2893 H 0.9778 0.24713 0.65942 0.0
C2894 C 0.01227 0.18795 0.63669 0.0
C2895 C 0.02536 0.20452 0.6312 0.0
C2896 C 0.9959 0.18595 0.64185 0.0
C2897 C 0.99209 0.2004 0.6416 0.0
C2898 C 1.0051 0.21694 0.63611 0.0
C2899 C 0.02148 0.21897 0.63097 0.0
C2900 C 0.97484 0.19852 0.64731 0.0
C2901 C 0.97664 0.21146 0.65602 0.0
C2902 C 0.95678 0.18394 0.6445 0.0
C2903 C 0.95363 0.17033 0.63491 0.0
C2904 C 0.96017 0.17601 0.62301 0.0
C2905 C 0.9571 0.16311 0.61401 0.0
C2906 C 0.94739 0.14448 0.61678 0.0
C2907 C 0.94069 0.13871 0.62855 0.0
C2908 C 0.94374 0.15156 0.63759 0.0
C2909 C 0.90627 0.20854 0.66738 0.0
C2910 C 0.89127 0.19179 0.67125 0.0
C2911 C 0.92313 0.20993 0.66384 0.0
C2912 C 0.92562 0.19463 0.66422 0.0
C2913 C 0.91078 0.17795 0.66845 0.0
C2914 C 0.89375 0.1765 0.67183 0.0
C2915 C 0.94294 0.19572 0.65915 0.0
C2916 C 0.94117 0.18267 0.65049 0.0
C2917 C 0.96106 0.2102 0.662 0.0
C2918 C 0.96436 0.22386 0.67153 0.0
C2919 C 0.95901 0.21831 0.6836 0.0
C2920 C 0.96268 0.23131 0.69266 0.0
C2921 C 0.97155 0.24986 0.68972 0.0
C2922 C 0.97695 0.25549 0.67773 0.0
C2923 C 0.97349 0.24257 0.66867 0.0
H2924 H 0.97432 0.25989 0.69674 0.0
H2925 H 0.94501 0.13451 0.6098 0.0
H2926 H 0.83438 0.84532 0.64194 0.0
H2927 H 0.83863 0.82059 0.64978 0.0
H2928 H 0.79142 0.78159 0.62873 0.0
H2929 H 0.78665 0.80623 0.62116 0.0
H2930 H 0.79028 0.76882 0.65116 0.0
H2931 H 0.8361 0.79511 0.61987 0.0
H2932 H 0.86248 0.81969 0.60871 0.0
H2933 H 0.89733 0.83177 0.64032 0.0
H2934 H 0.87107 0.80742 0.65173 0.0
H2935 H 0.80949 0.69568 0.65765 0.0
H2936 H 0.8042 0.71967 0.64951 0.0
H2937 H 0.8496 0.75976 0.67132 0.0
H2938 H 0.85519 0.73593 0.67936 0.0
H2939 H 0.85128 0.77144 0.64805 0.0
H2940 H 0.8049 0.74495 0.67931 0.0
H2941 H 0.77847 0.71982 0.69009 0.0
H2942 H 0.74456 0.70757 0.65799 0.0
H2943 H 0.77089 0.73247 0.64695 0.0
C2944 C 0.82477 0.83147 0.63904 0.0
C2945 C 0.81015 0.82781 0.6309 0.0
C2946 C 0.82735 0.81734 0.64344 0.0
C2947 C 0.81549 0.79921 0.63974 0.0
C2948 C 0.8008 0.79546 0.63169 0.0
C2949 C 0.79819 0.80961 0.62728 0.0
C2950 C 0.81833 0.78418 0.6444 0.0
C2951 C 0.80355 0.76927 0.65032 0.0
C2952 C 0.83573 0.78488 0.64353 0.0
C2953 C 0.85156 0.79955 0.63669 0.0
C2954 C 0.84934 0.80311 0.62448 0.0
C2955 C 0.86428 0.81698 0.61809 0.0
C2956 C 0.88155 0.82731 0.62381 0.0
C2957 C 0.88393 0.82377 0.63591 0.0
C2958 C 0.86903 0.80992 0.64234 0.0
C2959 C 0.81832 0.70958 0.66076 0.0
C2960 C 0.83268 0.71381 0.66925 0.0
C2961 C 0.81522 0.72328 0.65613 0.0
C2962 C 0.82639 0.74151 0.65988 0.0
C2963 C 0.84077 0.74579 0.66831 0.0
C2964 C 0.84386 0.7321 0.67297 0.0
C2965 C 0.82328 0.75617 0.65487 0.0
C2966 C 0.83802 0.77099 0.64888 0.0
C2967 C 0.80582 0.75534 0.65563 0.0
C2968 C 0.78992 0.74046 0.66227 0.0
C2969 C 0.79185 0.73681 0.67452 0.0
C2970 C 0.77688 0.72262 0.68068 0.0
C2971 C 0.75986 0.71207 0.67472 0.0
C2972 C 0.75776 0.71573 0.66259 0.0
C2973 C 0.7727 0.72989 0.65638 0.0
H2974 H 0.74829 0.70109 0.67951 0.0
H2975 H 0.8931 0.83804 0.61885 0.0
H2976 H 0.01317 0.83687 0.63379 0.0
H2977 H 0.98428 0.81246 0.64252 0.0
H2978 H 1.00406 0.7744 0.63759 0.0
H2979 H 0.03278 0.79863 0.62858 0.0
H2980 H 0.968 0.75965 0.63054 0.0
H2981 H 1.00477 0.79287 0.6656 0.0
H2982 H 0.02286 0.82034 0.67824 0.0
H2983 H 0.97517 0.82738 0.68117 0.0
H2984 H 0.95686 0.80009 0.6684 0.0
H2985 H 0.90537 0.68616 0.66624 0.0
H2986 H 0.93435 0.71278 0.65952 0.0
H2987 H 0.91055 0.74727 0.66574 0.0
H2988 H 0.8815 0.72061 0.67249 0.0
H2989 H 0.94759 0.76471 0.67203 0.0
H2990 H 0.91064 0.73284 0.63761 0.0
H2991 H 0.89143 0.70607 0.62463 0.0
H2992 H 0.93795 0.69758 0.61977 0.0
H2993 H 0.95737 0.72417 0.63287 0.0
C2994 C 0.01132 0.82328 0.63445 0.0
C2995 C 0.0254 0.81978 0.63048 0.0
C2996 C 0.99484 0.80934 0.63956 0.0
C2997 C 0.99203 0.79158 0.64087 0.0
C2998 C 1.0059 0.78799 0.63674 0.0
C2999 C 0.02241 0.80191 0.63167 0.0
C3000 C 0.97461 0.77668 0.64644 0.0
C3001 C 0.9637 0.7607 0.63967 0.0
C3002 C 0.96854 0.77823 0.6582 0.0
C3003 C 0.97951 0.79455 0.66594 0.0
C3004 C 0.99818 0.80036 0.66886 0.0
C3005 C 1.00847 0.81588 0.67607 0.0
C3006 C 1.00018 0.82563 0.68048 0.0
C3007 C 0.98157 0.81984 0.67773 0.0
C3008 C 0.97123 0.80434 0.67052 0.0
C3009 C 0.90646 0.69949 0.66639 0.0
C3010 C 0.89123 0.70131 0.66998 0.0
C3011 C 0.92298 0.71468 0.66249 0.0
C3012 C 0.92456 0.73201 0.66191 0.0
C3013 C 0.90968 0.73405 0.66607 0.0
C3014 C 0.89309 0.7188 0.66998 0.0
C3015 C 0.94124 0.74761 0.65621 0.0
C3016 C 0.95193 0.7637 0.6629 0.0
C3017 C 0.94699 0.74632 0.6443 0.0
C3018 C 0.93542 0.73041 0.63631 0.0
C3019 C 0.91674 0.72519 0.63384 0.0
C3020 C 0.90582 0.71006 0.62645 0.0
C3021 C 0.91346 0.70011 0.6214 0.0
C3022 C 0.93205 0.7053 0.6237 0.0
C3023 C 0.94303 0.72041 0.6311 0.0
H3024 H 0.90498 0.6884 0.61568 0.0
H3025 H 1.00817 0.83765 0.68605 0.0
H3026 H 0.17864 0.18366 0.63272 0.0
H3027 H 0.20113 0.17808 0.64372 0.0
H3028 H 0.24632 0.22608 0.62731 0.0
H3029 H 0.22404 0.23176 0.61639 0.0
H3030 H 0.25299 0.19859 0.62593 0.0
H3031 H 0.2333 0.22474 0.65751 0.0
H3032 H 0.21073 0.22701 0.67088 0.0
H3033 H 0.1937 0.17371 0.68534 0.0
H3034 H 0.216 0.17102 0.67192 0.0
H3035 H 0.32973 0.21945 0.66428 0.0
H3036 H 0.30269 0.22053 0.65625 0.0
H3037 H 0.26735 0.16367 0.66514 0.0
H3038 H 0.29455 0.16228 0.67269 0.0
H3039 H 0.25383 0.19203 0.67078 0.0
H3040 H 0.2735 0.1659 0.63925 0.0
H3041 H 0.29672 0.16405 0.62629 0.0
H3042 H 0.314 0.21755 0.61212 0.0
H3043 H 0.29098 0.21979 0.62511 0.0
C3044 C 0.19336 0.19316 0.63157 0.0
C3045 C 0.19945 0.20811 0.62358 0.0
C3046 C 0.20624 0.18993 0.63787 0.0
C3047 C 0.22552 0.20166 0.6364 0.0
C3048 C 0.23158 0.21671 0.62856 0.0
C3049 C 0.21876 0.21992 0.62227 0.0
C3050 C 0.23949 0.19822 0.64275 0.0
C3051 C 0.25316 0.19728 0.63575 0.0
C3052 C 0.23959 0.19599 0.65556 0.0
C3053 C 0.22615 0.19758 0.6636 0.0
C3054 C 0.22462 0.21343 0.66345 0.0
C3055 C 0.2119 0.21481 0.67106 0.0
C3056 C 0.20074 0.20049 0.67893 0.0
C3057 C 0.20232 0.18478 0.67923 0.0
C3058 C 0.215 0.18332 0.67163 0.0
C3059 C 0.31615 0.20724 0.6647 0.0
C3060 C 0.31426 0.19087 0.66931 0.0
C3061 C 0.30072 0.20788 0.66011 0.0
C3062 C 0.28302 0.1922 0.66009 0.0
C3063 C 0.28087 0.17596 0.66513 0.0
C3064 C 0.29642 0.17522 0.66952 0.0
C3065 C 0.26724 0.19267 0.65394 0.0
C3066 C 0.25338 0.19312 0.66096 0.0
C3067 C 0.26689 0.1944 0.64115 0.0
C3068 C 0.28066 0.19309 0.63326 0.0
C3069 C 0.28238 0.17734 0.63346 0.0
C3070 C 0.29547 0.1762 0.62608 0.0
C3071 C 0.30689 0.1907 0.61843 0.0
C3072 C 0.30518 0.20635 0.6181 0.0
C3073 C 0.29208 0.20754 0.62544 0.0
H3074 H 0.31699 0.18978 0.6127 0.0
H3075 H 0.1909 0.20159 0.68481 0.0
H3076 H 0.78353 0.99395 0.61106 0.0
H3077 H 0.79039 0.02171 0.62202 0.0
H3078 H 0.8342 0.01948 0.64187 0.0
H3079 H 0.82748 0.99162 0.63082 0.0
H3080 H 0.8141 0.02878 0.65675 0.0
H3081 H 0.84565 0.0501 0.61872 0.0
H3082 H 0.84901 0.05144 0.59639 0.0
H3083 H 0.80621 0.06572 0.59301 0.0
H3084 H 0.8026 0.06447 0.61533 0.0
H3085 H 0.85418 0.12103 0.67799 0.0
H3086 H 0.84915 0.09277 0.66848 0.0
H3087 H 0.80476 0.09075 0.64668 0.0
H3088 H 0.8098 0.11906 0.65603 0.0
H3089 H 0.82728 0.08401 0.63306 0.0
H3090 H 0.79626 0.06279 0.67167 0.0
H3091 H 0.79485 0.06308 0.69407 0.0
H3092 H 0.83809 0.04928 0.69651 0.0
H3093 H 0.83996 0.04918 0.6741 0.0
C3094 C 0.79473 0.99939 0.61768 0.0
C3095 C 0.8051 0.99062 0.61993 0.0
C3096 C 0.79862 0.01528 0.62398 0.0
C3097 C 0.81304 0.0229 0.63264 0.0
C3098 C 0.82305 0.0139 0.6352 0.0
C3099 C 0.81915 0.99794 0.6289 0.0
C3100 C 0.8177 0.04038 0.63881 0.0
C3101 C 0.81724 0.04093 0.65158 0.0
C3102 C 0.82161 0.05623 0.6321 0.0
C3103 C 0.82375 0.05704 0.61868 0.0
C3104 C 0.83689 0.05343 0.61321 0.0
C3105 C 0.83887 0.05422 0.60056 0.0
C3106 C 0.8278 0.05862 0.59329 0.0
C3107 C 0.81475 0.06228 0.59865 0.0
C3108 C 0.81279 0.06162 0.6113 0.0
C3109 C 0.84321 0.11449 0.67127 0.0
C3110 C 0.83231 0.1223 0.66785 0.0
C3111 C 0.84035 0.0983 0.66583 0.0
C3112 C 0.82645 0.0895 0.65693 0.0
C3113 C 0.81557 0.09727 0.65351 0.0
C3114 C 0.81845 0.11346 0.65891 0.0
C3115 C 0.82335 0.07234 0.65099 0.0
C3116 C 0.82417 0.07188 0.63825 0.0
C3117 C 0.81989 0.05666 0.65775 0.0
C3118 C 0.81836 0.05613 0.67121 0.0
C3119 C 0.80552 0.05989 0.67698 0.0
C3120 C 0.80464 0.06003 0.68968 0.0
C3121 C 0.8164 0.05625 0.69671 0.0
C3122 C 0.829 0.05223 0.69105 0.0
C3123 C 0.82997 0.05211 0.67835 0.0
H3124 H 0.81573 0.0564 0.70654 0.0
H3125 H 0.82936 0.05925 0.5835 0.0
H3126 H 0.46696 0.35596 0.74952 0.0
H3127 H 0.44525 0.32792 0.73888 0.0
H3128 H 0.49103 0.32825 0.72017 0.0
H3129 H 0.51296 0.35643 0.73085 0.0
H3130 H 0.46203 0.31839 0.70485 0.0
H3131 H 0.47031 0.29994 0.74439 0.0
H3132 H 0.47136 0.29992 0.76681 0.0
H3133 H 0.41353 0.28435 0.76818 0.0
H3134 H 0.4122 0.28454 0.74576 0.0
H3135 H 0.40806 0.22525 0.68547 0.0
H3136 H 0.43159 0.25389 0.69472 0.0
H3137 H 0.38878 0.2572 0.71482 0.0
H3138 H 0.36519 0.22848 0.70572 0.0
H3139 H 0.41762 0.26483 0.72924 0.0
H3140 H 0.40988 0.28401 0.68936 0.0
H3141 H 0.4089 0.28249 0.66695 0.0
H3142 H 0.46605 0.29557 0.66625 0.0
H3143 H 0.46729 0.29689 0.68869 0.0
C3144 C 0.47248 0.35006 0.7432 0.0
C3145 C 0.49179 0.3584 0.74119 0.0
C3146 C 0.46 0.33399 0.73709 0.0
C3147 C 0.46646 0.32571 0.72886 0.0
C3148 C 0.48567 0.33431 0.7265 0.0
C3149 C 0.4982 0.35046 0.7326 0.0
C3150 C 0.45314 0.30793 0.72297 0.0
C3151 C 0.45249 0.30661 0.7102 0.0
C3152 C 0.44047 0.29254 0.72988 0.0
C3153 C 0.44121 0.29244 0.74338 0.0
C3154 C 0.45786 0.29667 0.74947 0.0
C3155 C 0.45849 0.2966 0.76218 0.0
C3156 C 0.44253 0.29218 0.76892 0.0
C3157 C 0.42589 0.28778 0.76295 0.0
C3158 C 0.42518 0.28786 0.75024 0.0
C3159 C 0.40359 0.23214 0.69176 0.0
C3160 C 0.38464 0.22456 0.69475 0.0
C3161 C 0.4171 0.24856 0.69706 0.0
C3162 C 0.412 0.25789 0.7054 0.0
C3163 C 0.39311 0.25031 0.70842 0.0
C3164 C 0.3796 0.23388 0.70316 0.0
C3165 C 0.42629 0.27537 0.71114 0.0
C3166 C 0.42715 0.27661 0.72389 0.0
C3167 C 0.43917 0.29061 0.70421 0.0
C3168 C 0.43863 0.2904 0.69071 0.0
C3169 C 0.42222 0.28649 0.68443 0.0
C3170 C 0.42162 0.28566 0.67172 0.0
C3171 C 0.43739 0.28889 0.66518 0.0
C3172 C 0.45383 0.29306 0.67133 0.0
C3173 C 0.4545 0.29387 0.68405 0.0
H3174 H 0.43688 0.2882 0.65534 0.0
H3175 H 0.44307 0.29215 0.77876 0.0
H3176 H 0.68205 0.14384 0.754 0.0
H3177 H 0.70929 0.14886 0.74244 0.0
H3178 H 0.6806 0.14575 0.70893 0.0
H3179 H 0.65331 0.1409 0.72045 0.0
H3180 H 0.69696 0.12616 0.70696 0.0
H3181 H 0.71626 0.18669 0.72011 0.0
H3182 H 0.72311 0.21187 0.73431 0.0
H3183 H 0.76358 0.20277 0.7527 0.0
H3184 H 0.75675 0.17732 0.73875 0.0
H3185 H 0.80415 0.18333 0.68831 0.0
H3186 H 0.77501 0.18151 0.69464 0.0
H3187 H 0.75241 0.12441 0.70319 0.0
H3188 H 0.78101 0.126 0.69609 0.0
H3189 H 0.76103 0.1765 0.71548 0.0
H3190 H 0.70798 0.10104 0.705 0.0
H3191 H 0.70073 0.07799 0.68897 0.0
H3192 H 0.7267 0.1205 0.6623 0.0
H3193 H 0.73425 0.14384 0.67824 0.0
C3194 C 0.68157 0.14451 0.74418 0.0
C3195 C 0.66537 0.142 0.73821 0.0
C3196 C 0.69723 0.14737 0.73755 0.0
C3197 C 0.69718 0.14789 0.72477 0.0
C3198 C 0.68105 0.1454 0.71878 0.0
C3199 C 0.66538 0.14254 0.7254 0.0
C3200 C 0.71364 0.1503 0.71768 0.0
C3201 C 0.71096 0.13722 0.70882 0.0
C3202 C 0.73196 0.16489 0.71986 0.0
C3203 C 0.73582 0.17994 0.72846 0.0
C3204 C 0.72646 0.1899 0.72727 0.0
C3205 C 0.73037 0.20426 0.73526 0.0
C3206 C 0.74373 0.20888 0.74442 0.0
C3207 C 0.75319 0.19915 0.74562 0.0
C3208 C 0.74931 0.18475 0.73767 0.0
C3209 C 0.7927 0.17024 0.69106 0.0
C3210 C 0.79476 0.1547 0.69141 0.0
C3211 C 0.77606 0.16923 0.69486 0.0
C3212 C 0.76121 0.15275 0.69932 0.0
C3213 C 0.76324 0.13719 0.69947 0.0
C3214 C 0.77972 0.13813 0.69549 0.0
C3215 C 0.74441 0.15218 0.70488 0.0
C3216 C 0.74703 0.16553 0.71353 0.0
C3217 C 0.72598 0.13804 0.70235 0.0
C3218 C 0.72184 0.12416 0.6928 0.0
C3219 C 0.71218 0.10546 0.69571 0.0
C3220 C 0.70807 0.09236 0.68666 0.0
C3221 C 0.71337 0.0978 0.67464 0.0
C3222 C 0.72279 0.11635 0.67165 0.0
C3223 C 0.72708 0.12951 0.68068 0.0
H3224 H 0.71012 0.08764 0.66763 0.0
H3225 H 0.74677 0.22003 0.75058 0.0
H3226 H 0.89394 0.53736 0.74438 0.0
H3227 H 0.88926 0.5618 0.73633 0.0
H3228 H 0.84323 0.52254 0.71455 0.0
H3229 H 0.84769 0.49804 0.72263 0.0
H3230 H 0.86531 0.55122 0.70118 0.0
H3231 H 0.83646 0.54193 0.74003 0.0
H3232 H 0.83315 0.53942 0.76234 0.0
H3233 H 0.87781 0.59471 0.76625 0.0
H3234 H 0.8816 0.59747 0.74396 0.0
H3235 H 0.82998 0.60897 0.68323 0.0
H3236 H 0.83373 0.58457 0.69221 0.0
H3237 H 0.88073 0.62428 0.71312 0.0
H3238 H 0.8769 0.64881 0.70431 0.0
H3239 H 0.85805 0.59544 0.72691 0.0
H3240 H 0.88628 0.60402 0.68736 0.0
H3241 H 0.88642 0.60656 0.66499 0.0
H3242 H 0.8402 0.55184 0.66249 0.0
H3243 H 0.83961 0.54906 0.68486 0.0
C3244 C 0.88265 0.53387 0.73801 0.0
C3245 C 0.87124 0.51568 0.73414 0.0
C3246 C 0.88 0.54789 0.73339 0.0
C3247 C 0.86582 0.54404 0.72486 0.0
C3248 C 0.85433 0.5259 0.72107 0.0
C3249 C 0.85695 0.51189 0.72568 0.0
C3250 C 0.86333 0.55896 0.71956 0.0
C3251 C 0.86352 0.56075 0.70683 0.0
C3252 C 0.86129 0.57164 0.72689 0.0
C3253 C 0.85948 0.56982 0.74032 0.0
C3254 C 0.84575 0.55348 0.74565 0.0
C3255 C 0.84375 0.55203 0.7583 0.0
C3256 C 0.8553 0.56688 0.76571 0.0
C3257 C 0.8689 0.5832 0.7605 0.0
C3258 C 0.87099 0.58471 0.74786 0.0
C3259 C 0.84126 0.61258 0.68964 0.0
C3260 C 0.85328 0.63092 0.69293 0.0
C3261 C 0.84337 0.59857 0.69479 0.0
C3262 C 0.85768 0.60258 0.70324 0.0
C3263 C 0.86961 0.62085 0.70661 0.0
C3264 C 0.86745 0.63487 0.70151 0.0
C3265 C 0.86015 0.58772 0.70859 0.0
C3266 C 0.85996 0.58594 0.7213 0.0
C3267 C 0.86204 0.57497 0.70126 0.0
C3268 C 0.86283 0.57638 0.68779 0.0
C3269 C 0.87612 0.59254 0.68204 0.0
C3270 C 0.87627 0.59403 0.66936 0.0
C3271 C 0.86331 0.57938 0.66233 0.0
C3272 C 0.85023 0.56318 0.66795 0.0
C3273 C 0.84999 0.56163 0.68063 0.0
H3274 H 0.86341 0.58058 0.65252 0.0
H3275 H 0.85368 0.56575 0.7755 0.0
H3276 H 0.47468 0.91077 0.18568 0.0
H3277 H 0.48359 0.92241 0.16491 0.0
H3278 H 0.47287 0.96625 0.17296 0.0
H3279 H 0.46415 0.95486 0.19369 0.0
H3280 H 0.45765 0.95087 0.15148 0.0
H3281 H 0.51753 0.97305 0.17104 0.0
H3282 H 0.5415 0.96997 0.18246 0.0
H3283 H 0.54247 0.93488 0.1546 0.0
H3284 H 0.51832 0.93757 0.14308 0.0
H3285 H 0.50544 0.0165 0.10596 0.0
H3286 H 0.49434 0.99892 0.12477 0.0
H3287 H 0.50557 0.95806 0.11014 0.0
H3288 H 0.51691 0.97583 0.09122 0.0
H3289 H 0.51916 0.96814 0.13365 0.0
H3290 H 0.46126 0.94702 0.11344 0.0
H3291 H 0.43713 0.94932 0.10168 0.0
H3292 H 0.43222 0.98139 0.13016 0.0
H3293 H 0.45634 0.97926 0.14212 0.0
C3294 C 0.47444 0.92303 0.18309 0.0
C3295 C 0.46859 0.9318 0.19142 0.0
C3296 C 0.4795 0.92965 0.17117 0.0
C3297 C 0.47896 0.94527 0.16732 0.0
C3298 C 0.47328 0.95411 0.17564 0.0
C3299 C 0.46824 0.94752 0.18752 0.0
C3300 C 0.48407 0.95241 0.15462 0.0
C3301 C 0.47118 0.95479 0.14765 0.0
C3302 C 0.50145 0.95694 0.14936 0.0
C3303 C 0.51597 0.95534 0.15627 0.0
C3304 C 0.52275 0.96456 0.1674 0.0
C3305 C 0.53638 0.96291 0.17388 0.0
C3306 C 0.54346 0.95219 0.16928 0.0
C3307 C 0.53695 0.94315 0.15816 0.0
C3308 C 0.5233 0.94474 0.15165 0.0
C3309 C 0.50547 1.00372 0.10672 0.0
C3310 C 0.51207 0.99756 0.0971 0.0
C3311 C 0.49901 0.99362 0.11746 0.0
C3312 C 0.49901 0.97709 0.1189 0.0
C3313 C 0.5054 0.97075 0.10926 0.0
C3314 C 0.51173 0.98082 0.09842 0.0
C3315 C 0.49289 0.96695 0.13067 0.0
C3316 C 0.50557 0.96402 0.13745 0.0
C3317 C 0.47526 0.96179 0.13574 0.0
C3318 C 0.46071 0.9631 0.12863 0.0
C3319 C 0.45513 0.95467 0.11716 0.0
C3320 C 0.44143 0.95592 0.11047 0.0
C3321 C 0.43323 0.96559 0.11513 0.0
C3322 C 0.43861 0.97393 0.12655 0.0
C3323 C 0.45225 0.97264 0.13331 0.0
H3324 H 0.42265 0.96658 0.10992 0.0
H3325 H 0.55402 0.95093 0.17431 0.0
H3326 H 0.09594 0.52614 0.18243 0.0
H3327 H 0.08203 0.52284 0.16229 0.0
H3328 H 0.04689 0.54273 0.17628 0.0
H3329 H 0.06029 0.54547 0.19658 0.0
H3330 H 0.02715 0.51332 0.16259 0.0
H3331 H 0.08472 0.56939 0.15803 0.0
H3332 H 0.11876 0.58979 0.1588 0.0
H3333 H 0.12603 0.55551 0.13321 0.0
H3334 H 0.09204 0.53476 0.13241 0.0
H3335 H 0.99464 0.52651 0.10601 0.0
H3336 H 0.01082 0.53241 0.12552 0.0
H3337 H 0.04294 0.50887 0.11198 0.0
H3338 H 0.02656 0.50259 0.09243 0.0
H3339 H 0.06445 0.54039 0.12527 0.0
H3340 H 1.00681 0.48417 0.13016 0.0
H3341 H 0.97274 0.46406 0.12928 0.0
H3342 H 0.96569 0.49911 0.1543 0.0
H3343 H 0.99974 0.51959 0.1552 0.0
C3344 C 0.08519 0.52975 0.18126 0.0
C3345 C 0.07923 0.53605 0.19117 0.0
C3346 C 0.07738 0.52803 0.16968 0.0
C3347 C 0.06352 0.53271 0.1677 0.0
C3348 C 0.0576 0.53909 0.17756 0.0
C3349 C 0.0654 0.5408 0.18915 0.0
C3350 C 0.05475 0.53034 0.15547 0.0
C3351 C 0.03531 0.51949 0.15447 0.0
C3352 C 0.06539 0.53798 0.14479 0.0
C3353 C 0.08584 0.55042 0.14526 0.0
C3354 C 0.09359 0.56612 0.15264 0.0
C3355 C 0.11287 0.57776 0.15307 0.0
C3356 C 0.12455 0.57392 0.14609 0.0
C3357 C 0.11697 0.55845 0.13863 0.0
C3358 C 0.09769 0.54675 0.13818 0.0
C3359 C 1.00506 0.52246 0.10717 0.0
C3360 C 1.00911 0.51386 0.09765 0.0
C3361 C 0.01436 0.52593 0.11834 0.0
C3362 C 0.02793 0.52086 0.12029 0.0
C3363 C 0.03251 0.51288 0.11069 0.0
C3364 C 0.02316 0.50935 0.0995 0.0
C3365 C 0.0369 0.52346 0.13245 0.0
C3366 C 0.05634 0.53429 0.13342 0.0
C3367 C 0.02628 0.51584 0.14312 0.0
C3368 C 1.00581 0.5035 0.14265 0.0
C3369 C 0.99799 0.48766 0.1354 0.0
C3370 C 0.97868 0.47619 0.13491 0.0
C3371 C 0.96705 0.48033 0.1417 0.0
C3372 C 0.97472 0.49593 0.14903 0.0
C3373 C 0.99402 0.50747 0.14954 0.0
H3374 H 0.95211 0.47142 0.14131 0.0
H3375 H 0.13948 0.58295 0.14643 0.0
H3376 H 0.49181 0.55433 0.19411 0.0
H3377 H 0.50141 0.55225 0.17342 0.0
H3378 H 0.44438 0.51394 0.16394 0.0
H3379 H 0.43468 0.51603 0.18455 0.0
H3380 H 0.46637 0.50195 0.15592 0.0
H3381 H 0.46642 0.55844 0.15363 0.0
H3382 H 0.47442 0.58958 0.15979 0.0
H3383 H 0.53244 0.60809 0.15441 0.0
H3384 H 0.52482 0.57699 0.14837 0.0
H3385 H 0.48362 0.50162 0.09247 0.0
H3386 H 0.47163 0.50685 0.11153 0.0
H3387 H 0.52783 0.54226 0.12407 0.0
H3388 H 0.53984 0.53724 0.10506 0.0
H3389 H 0.50487 0.55587 0.12993 0.0
H3390 H 0.50456 0.49882 0.13336 0.0
H3391 H 0.49637 0.46767 0.12708 0.0
H3392 H 0.43824 0.45032 0.13018 0.0
H3393 H 0.4461 0.48147 0.13633 0.0
C3394 C 0.48126 0.54566 0.18758 0.0
C3395 C 0.46246 0.53532 0.19106 0.0
C3396 C 0.48678 0.54446 0.17573 0.0
C3397 C 0.47361 0.53302 0.16704 0.0
C3398 C 0.45483 0.52281 0.17046 0.0
C3399 C 0.44932 0.52398 0.18229 0.0
C3400 C 0.47946 0.53124 0.15451 0.0
C3401 C 0.47452 0.51375 0.15017 0.0
C3402 C 0.4904 0.54661 0.14703 0.0
C3403 C 0.49505 0.56533 0.15066 0.0
C3404 C 0.4809 0.56912 0.15385 0.0
C3405 C 0.48537 0.58677 0.15731 0.0
C3406 C 0.50393 0.6008 0.15752 0.0
C3407 C 0.51807 0.59721 0.15425 0.0
C3408 C 0.51368 0.57957 0.15081 0.0
C3409 C 0.49339 0.51075 0.09921 0.0
C3410 C 0.51268 0.51887 0.0973 0.0
C3411 C 0.48653 0.51363 0.11014 0.0
C3412 C 0.49883 0.52477 0.11932 0.0
C3413 C 0.51806 0.53356 0.11717 0.0
C3414 C 0.52491 0.53058 0.10632 0.0
C3415 C 0.49181 0.52662 0.13141 0.0
C3416 C 0.49658 0.5441 0.13566 0.0
C3417 C 0.48066 0.51125 0.13881 0.0
C3418 C 0.47591 0.49252 0.13517 0.0
C3419 C 0.49003 0.4884 0.13261 0.0
C3420 C 0.48545 0.47074 0.12909 0.0
C3421 C 0.46679 0.45704 0.12819 0.0
C3422 C 0.45268 0.46096 0.13085 0.0
C3423 C 0.45719 0.47861 0.13436 0.0
H3424 H 0.46327 0.44337 0.12547 0.0
H3425 H 0.50736 0.61446 0.16019 0.0
H3426 H 0.95728 0.47124 0.83276 0.0
H3427 H 0.97082 0.47472 0.85306 0.0
H3428 H 0.92678 0.48162 0.86818 0.0
H3429 H 0.91316 0.47816 0.84789 0.0
H3430 H 0.95939 0.50654 0.87726 0.0
H3431 H 0.92795 0.44169 0.87213 0.0
H3432 H 0.91942 0.41264 0.8618 0.0
H3433 H 0.97635 0.4251 0.86337 0.0
H3434 H 0.98527 0.45436 0.87356 0.0
H3435 H 0.98586 0.50424 0.93831 0.0
H3436 H 0.96761 0.49608 0.91958 0.0
H3437 H 1.00829 0.4864 0.90194 0.0
H3438 H 0.02592 0.49326 0.92086 0.0
H3439 H 0.97521 0.46178 0.89476 0.0
H3440 H 1.00677 0.5277 0.89864 0.0
H3441 H 0.01497 0.5563 0.90951 0.0
H3442 H 0.95729 0.54135 0.91058 0.0
H3443 H 0.94874 0.51256 0.89982 0.0
C3444 C 0.95032 0.47325 0.84042 0.0
C3445 C 0.9341 0.47439 0.83867 0.0
C3446 C 0.9581 0.47526 0.85204 0.0
C3447 C 0.94973 0.47826 0.86221 0.0
C3448 C 0.93352 0.47936 0.86049 0.0
C3449 C 0.92577 0.47741 0.84887 0.0
C3450 C 0.95816 0.48069 0.87456 0.0
C3451 C 0.96259 0.4966 0.88115 0.0
C3452 C 0.96263 0.46791 0.87961 0.0
C3453 C 0.9573 0.4503 0.87351 0.0
C3454 C 0.93867 0.4383 0.87019 0.0
C3455 C 0.93376 0.42178 0.86437 0.0
C3456 C 0.94734 0.41705 0.8619 0.0
C3457 C 0.96585 0.4288 0.86527 0.0
C3458 C 0.97084 0.44534 0.87108 0.0
C3459 C 0.9908 0.50006 0.93055 0.0
C3460 C 1.0076 0.49969 0.93115 0.0
C3461 C 0.98043 0.49561 0.91974 0.0
C3462 C 0.98676 0.49104 0.9092 0.0
C3463 C 1.00315 0.49004 0.90989 0.0
C3464 C 0.01338 0.49422 0.92072 0.0
C3465 C 0.97669 0.48774 0.89737 0.0
C3466 C 0.97194 0.47167 0.89088 0.0
C3467 C 0.97191 0.50037 0.89241 0.0
C3468 C 0.97711 0.51793 0.89852 0.0
C3469 C 0.99584 0.5305 0.90122 0.0
C3470 C 1.00055 0.54674 0.90736 0.0
C3471 C 0.98665 0.55061 0.91076 0.0
C3472 C 0.96803 0.53832 0.90795 0.0
C3473 C 0.96325 0.52206 0.90182 0.0
H3474 H 0.99032 0.56316 0.91555 0.0
H3475 H 0.94351 0.40425 0.8574 0.0
H3476 H 0.55161 0.45242 0.8427 0.0
H3477 H 0.54254 0.45542 0.86339 0.0
H3478 H 0.5541 0.51003 0.85517 0.0
H3479 H 0.56306 0.50712 0.83453 0.0
H3480 H 0.56863 0.50939 0.87673 0.0
H3481 H 0.50913 0.47328 0.85682 0.0
H3482 H 0.4852 0.44691 0.84528 0.0
H3483 H 0.48339 0.41051 0.87325 0.0
H3484 H 0.50751 0.43666 0.88489 0.0
H3485 H 0.52041 0.52798 0.92206 0.0
H3486 H 0.5316 0.52147 0.90325 0.0
H3487 H 0.5199 0.46928 0.91766 0.0
H3488 H 0.50838 0.47571 0.93654 0.0
H3489 H 0.50683 0.46642 0.89422 0.0
H3490 H 0.56421 0.50269 0.91504 0.0
H3491 H 0.58787 0.52901 0.92674 0.0
H3492 H 0.59375 0.56498 0.8973 0.0
H3493 H 0.56992 0.5389 0.88548 0.0
C3494 C 0.55201 0.465 0.84525 0.0
C3495 C 0.55814 0.47954 0.83691 0.0
C3496 C 0.54686 0.46671 0.85711 0.0
C3497 C 0.54755 0.48295 0.86088 0.0
C3498 C 0.55355 0.49741 0.85255 0.0
C3499 C 0.55872 0.49573 0.84073 0.0
C3500 C 0.54224 0.48508 0.8735 0.0
C3501 C 0.55504 0.50007 0.8805 0.0
C3502 C 0.52476 0.47261 0.87864 0.0
C3503 C 0.51028 0.4569 0.87165 0.0
C3504 C 0.50375 0.45963 0.86046 0.0
C3505 C 0.49013 0.44473 0.85391 0.0
C3506 C 0.48283 0.42704 0.85851 0.0
C3507 C 0.48909 0.42422 0.86969 0.0
C3508 C 0.50272 0.43907 0.87627 0.0
C3509 C 0.52027 0.51513 0.92125 0.0
C3510 C 0.51353 0.50236 0.9308 0.0
C3511 C 0.52679 0.51147 0.91051 0.0
C3512 C 0.52675 0.49494 0.90903 0.0
C3513 C 0.52013 0.48216 0.91858 0.0
C3514 C 0.51371 0.48589 0.92941 0.0
C3515 C 0.53307 0.49095 0.89732 0.0
C3516 C 0.52048 0.47562 0.8905 0.0
C3517 C 0.55077 0.50309 0.89234 0.0
C3518 C 0.56516 0.51883 0.89941 0.0
C3519 C 0.57044 0.51623 0.91109 0.0
C3520 C 0.5839 0.5311 0.91774 0.0
C3521 C 0.59228 0.54866 0.91277 0.0
C3522 C 0.58724 0.55137 0.90114 0.0
C3523 C 0.57377 0.53654 0.89445 0.0
H3524 H 0.60269 0.56017 0.91793 0.0
H3525 H 0.47228 0.41552 0.85342 0.0
H3526 H 0.51029 0.06536 0.83496 0.0
H3527 H 0.50566 0.05331 0.85561 0.0
H3528 H 0.5647 0.0854 0.86245 0.0
H3529 H 0.56946 0.09763 0.84167 0.0
H3530 H 0.55062 0.05166 0.87224 0.0
H3531 H 0.53531 0.09891 0.87382 0.0
H3532 H 0.52007 0.11627 0.86742 0.0
H3533 H 0.4664 0.0694 0.87407 0.0
H3534 H 0.4813 0.05165 0.88034 0.0
H3535 H 0.53387 0.03049 0.93601 0.0
H3536 H 0.54413 0.0482 0.91707 0.0
H3537 H 0.48761 0.02003 0.90367 0.0
H3538 H 0.47729 1.00269 0.92257 0.0
H3539 H 0.50405 0.05564 0.89833 0.0
H3540 H 0.52004 0.00787 0.89487 0.0
H3541 H 0.5357 0.99097 0.90146 0.0
H3542 H 0.58888 0.03997 0.89881 0.0
H3543 H 0.57349 0.05722 0.89234 0.0
C3544 C 0.52233 0.07 0.84085 0.0
C3545 C 0.54024 0.08271 0.83665 0.0
C3546 C 0.51965 0.06305 0.85269 0.0
C3547 C 0.53477 0.06869 0.86073 0.0
C3548 C 0.55278 0.08089 0.85647 0.0
C3549 C 0.55549 0.08784 0.84456 0.0
C3550 C 0.53154 0.06191 0.87358 0.0
C3551 C 0.54068 0.05283 0.87802 0.0
C3552 C 0.51848 0.06326 0.88116 0.0
C3553 C 0.50943 0.07391 0.87746 0.0
C3554 C 0.52025 0.09226 0.87383 0.0
C3555 C 0.51167 0.10217 0.87024 0.0
C3556 C 0.49228 0.09393 0.87031 0.0
C3557 C 0.48142 0.07576 0.87401 0.0
C3558 C 0.48993 0.06577 0.8776 0.0
C3559 C 0.52361 0.02824 0.92909 0.0
C3560 C 0.50478 0.01497 0.93078 0.0
C3561 C 0.52952 0.03828 0.91821 0.0
C3562 C 0.5167 0.03529 0.90881 0.0
C3563 C 0.49782 0.02255 0.91071 0.0
C3564 C 0.49195 0.01252 0.92152 0.0
C3565 C 0.52274 0.04498 0.89687 0.0
C3566 C 0.51414 0.05465 0.8926 0.0
C3567 C 0.53636 0.04425 0.8895 0.0
C3568 C 0.54561 0.03386 0.89325 0.0
C3569 C 0.53506 0.01506 0.89577 0.0
C3570 C 0.54389 0.00542 0.89947 0.0
C3571 C 0.56327 0.01441 0.90059 0.0
C3572 C 0.57387 0.03304 0.89796 0.0
C3573 C 0.56511 0.04275 0.89427 0.0
H3574 H 0.57007 0.00692 0.90346 0.0
H3575 H 0.48566 0.10163 0.86753 0.0
H3576 H 0.10741 0.23752 0.51583 0.0
H3577 H 0.1164 0.25095 0.49557 0.0
H3578 H 0.1669 0.29557 0.5104 0.0
H3579 H 0.15765 0.28257 0.53079 0.0
H3580 H 0.15125 0.3084 0.49556 0.0
H3581 H 0.16651 0.26087 0.49293 0.0
H3582 H 0.16113 0.22946 0.49426 0.0
H3583 H 0.11793 0.2118 0.46726 0.0
H3584 H 0.12288 0.24308 0.46589 0.0
H3585 H 0.19845 0.34663 0.44082 0.0
H3586 H 0.18959 0.32976 0.45994 0.0
H3587 H 0.13662 0.29066 0.44442 0.0
H3588 H 0.14526 0.30777 0.42519 0.0
H3589 H 0.15277 0.27447 0.45918 0.0
H3590 H 0.13799 0.32251 0.46199 0.0
H3591 H 0.14439 0.35425 0.46048 0.0
H3592 H 0.18779 0.37111 0.48726 0.0
H3593 H 0.18183 0.33949 0.4888 0.0
C3594 C 0.12041 0.25023 0.51482 0.0
C3595 C 0.13175 0.25895 0.52503 0.0
C3596 C 0.12565 0.2578 0.50316 0.0
C3597 C 0.14244 0.27423 0.50136 0.0
C3598 C 0.1539 0.28287 0.5115 0.0
C3599 C 0.14866 0.27531 0.52317 0.0
C3600 C 0.14769 0.28282 0.48902 0.0
C3601 C 0.15182 0.30101 0.48767 0.0
C3602 C 0.148 0.27312 0.47857 0.0
C3603 C 0.14493 0.25428 0.47941 0.0
C3604 C 0.15575 0.25026 0.48735 0.0
C3605 C 0.1528 0.23248 0.4881 0.0
C3606 C 0.13916 0.21863 0.48087 0.0
C3607 C 0.12847 0.22254 0.47287 0.0
C3608 C 0.13135 0.24029 0.4721 0.0
C3609 C 0.18488 0.33446 0.44142 0.0
C3610 C 0.17245 0.32878 0.43147 0.0
C3611 C 0.17987 0.32478 0.45238 0.0
C3612 C 0.16232 0.3091 0.45371 0.0
C3613 C 0.15022 0.30276 0.44363 0.0
C3614 C 0.15521 0.31253 0.43262 0.0
C3615 C 0.15644 0.3 0.46582 0.0
C3616 C 0.15216 0.28177 0.46711 0.0
C3617 C 0.15607 0.30966 0.47625 0.0
C3618 C 0.15958 0.32866 0.47543 0.0
C3619 C 0.14899 0.33301 0.46749 0.0
C3620 C 0.15253 0.35097 0.46664 0.0
C3621 C 0.16652 0.3647 0.47375 0.0
C3622 C 0.17697 0.36047 0.48175 0.0
C3623 C 0.17351 0.34252 0.48262 0.0
H3624 H 0.16923 0.3786 0.47308 0.0
H3625 H 0.1369 0.20488 0.48146 0.0
H3626 H 0.76811 0.89561 0.52049 0.0
H3627 H 0.75574 0.89193 0.49977 0.0
H3628 H 0.71958 0.83433 0.50621 0.0
H3629 H 0.73177 0.83791 0.52689 0.0
H3630 H 0.73577 0.83977 0.48439 0.0
H3631 H 0.7033 0.86467 0.50651 0.0
H3632 H 0.70069 0.88716 0.51939 0.0
H3633 H 0.73086 0.92907 0.49292 0.0
H3634 H 0.73386 0.90686 0.47994 0.0
H3635 H 0.66517 0.81452 0.43983 0.0
H3636 H 0.68352 0.82191 0.4586 0.0
H3637 H 0.71953 0.87668 0.44556 0.0
H3638 H 0.70119 0.86929 0.42665 0.0
H3639 H 0.70664 0.87521 0.46952 0.0
H3640 H 0.73699 0.84992 0.44664 0.0
H3641 H 0.73887 0.82732 0.43345 0.0
H3642 H 0.71233 0.78624 0.46098 0.0
H3643 H 0.71017 0.80858 0.47432 0.0
C3644 C 0.7574 0.88219 0.51754 0.0
C3645 C 0.75096 0.86706 0.52539 0.0
C3646 C 0.75037 0.88009 0.50566 0.0
C3647 C 0.73664 0.86286 0.50142 0.0
C3648 C 0.73024 0.84775 0.50922 0.0
C3649 C 0.73727 0.84982 0.52106 0.0
C3650 C 0.72879 0.86046 0.48889 0.0
C3651 C 0.72928 0.84743 0.48119 0.0
C3652 C 0.72078 0.8708 0.48453 0.0
C3653 C 0.719 0.88416 0.49233 0.0
C3654 C 0.70952 0.87872 0.50349 0.0
C3655 C 0.70794 0.89141 0.5108 0.0
C3656 C 0.71565 0.90954 0.507 0.0
C3657 C 0.72492 0.91502 0.49586 0.0
C3658 C 0.72656 0.90239 0.48853 0.0
C3659 C 0.67706 0.82811 0.44094 0.0
C3660 C 0.68173 0.84135 0.4318 0.0
C3661 C 0.68758 0.83229 0.45163 0.0
C3662 C 0.70292 0.84983 0.45346 0.0
C3663 C 0.70775 0.86306 0.44432 0.0
C3664 C 0.69736 0.8588 0.43351 0.0
C3665 C 0.71338 0.85436 0.46515 0.0
C3666 C 0.71335 0.86774 0.47268 0.0
C3667 C 0.72182 0.84436 0.46935 0.0
C3668 C 0.72329 0.8309 0.46144 0.0
C3669 C 0.73144 0.83604 0.44985 0.0
C3670 C 0.73258 0.82328 0.44236 0.0
C3671 C 0.72565 0.80533 0.44635 0.0
C3672 C 0.71767 0.80014 0.45789 0.0
C3673 C 0.71653 0.81286 0.46544 0.0
H3674 H 0.7265 0.79547 0.44052 0.0
H3675 H 0.71441 0.91934 0.51267 0.0
H3676 H 0.10766 0.86382 0.51591 0.0
H3677 H 0.11671 0.86056 0.49532 0.0
H3678 H 0.17021 0.87141 0.50881 0.0
H3679 H 0.16148 0.87526 0.52937 0.0
H3680 H 0.17384 0.88918 0.48765 0.0
H3681 H 0.13506 0.82767 0.50257 0.0
H3682 H 0.10643 0.80215 0.51121 0.0
H3683 H 0.07486 0.80392 0.48068 0.0
H3684 H 0.10327 0.82961 0.47194 0.0
H3685 H 0.20466 0.8544 0.44048 0.0
H3686 H 0.19432 0.86122 0.45944 0.0
H3687 H 0.14091 0.84539 0.44319 0.0
H3688 H 0.15086 0.83755 0.42429 0.0
H3689 H 0.13582 0.83135 0.46497 0.0
H3690 H 0.17429 0.89125 0.4492 0.0
H3691 H 0.20251 0.91699 0.44035 0.0
H3692 H 0.23407 0.91898 0.47198 0.0
H3693 H 0.20609 0.89308 0.48095 0.0
C3694 C 0.12145 0.86576 0.5145 0.0
C3695 C 0.1338 0.86975 0.52436 0.0
C3696 C 0.12654 0.86371 0.50271 0.0
C3697 C 0.14407 0.8655 0.5005 0.0
C3698 C 0.15658 0.86989 0.51027 0.0
C3699 C 0.1515 0.87193 0.52206 0.0
C3700 C 0.14931 0.86254 0.48808 0.0
C3701 C 0.16562 0.87646 0.48274 0.0
C3702 C 0.13831 0.84619 0.48146 0.0
C3703 C 0.12125 0.83068 0.48667 0.0
C3704 C 0.12199 0.8227 0.49775 0.0
C3705 C 0.1058 0.80819 0.50265 0.0
C3706 C 0.08883 0.80145 0.49651 0.0
C3707 C 0.08801 0.80917 0.48543 0.0
C3708 C 0.10415 0.82369 0.4805 0.0
C3709 C 0.19066 0.85224 0.4409 0.0
C3710 C 0.17859 0.84527 0.4308 0.0
C3711 C 0.18483 0.85641 0.45175 0.0
C3712 C 0.16688 0.85408 0.45278 0.0
C3713 C 0.15485 0.84739 0.44266 0.0
C3714 C 0.16064 0.84307 0.4318 0.0
C3715 C 0.16052 0.85791 0.46456 0.0
C3716 C 0.14398 0.84415 0.4698 0.0
C3717 C 0.17126 0.87447 0.47104 0.0
C3718 C 0.18811 0.89012 0.46571 0.0
C3719 C 0.18728 0.89709 0.45423 0.0
C3720 C 0.20323 0.91172 0.4492 0.0
C3721 C 0.22008 0.91959 0.45559 0.0
C3722 C 0.22101 0.91287 0.46704 0.0
C3723 C 0.2051 0.89822 0.47211 0.0
H3724 H 0.23242 0.93091 0.45167 0.0
H3725 H 0.07631 0.79022 0.50032 0.0
H3726 H 0.58741 0.81934 0.18014 0.0
H3727 H 0.60096 0.82311 0.20044 0.0
H3728 H 0.63457 0.80065 0.18784 0.0
H3729 H 0.62117 0.79696 0.16743 0.0
H3730 H 0.62005 0.78741 0.21021 0.0
H3731 H 0.65328 0.84646 0.19122 0.0
H3732 H 0.65641 0.8735 0.18047 0.0
H3733 H 0.62956 0.88419 0.21008 0.0
H3734 H 0.62603 0.85705 0.22094 0.0
H3735 H 0.68842 0.81973 0.25705 0.0
H3736 H 0.67132 0.81297 0.23785 0.0
H3737 H 0.63994 0.83724 0.25155 0.0
H3738 H 0.65743 0.84454 0.27072 0.0
H3739 H 0.6521 0.84905 0.22901 0.0
H3740 H 0.62 0.79082 0.24847 0.0
H3741 H 0.61679 0.7638 0.25928 0.0
H3742 H 0.64127 0.75147 0.22903 0.0
H3743 H 0.64487 0.77858 0.2181 0.0
C3744 C 0.59776 0.81528 0.18164 0.0
C3745 C 0.60331 0.808 0.17207 0.0
C3746 C 0.60547 0.8174 0.19329 0.0
C3747 C 0.61899 0.8124 0.19566 0.0
C3748 C 0.62416 0.80462 0.18624 0.0
C3749 C 0.61644 0.80247 0.17457 0.0
C3750 C 0.62804 0.8157 0.20786 0.0
C3751 C 0.62725 0.80093 0.21426 0.0
C3752 C 0.63704 0.83325 0.21332 0.0
C3753 C 0.63922 0.84962 0.20683 0.0
C3754 C 0.64791 0.8545 0.19539 0.0
C3755 C 0.64978 0.86985 0.18929 0.0
C3756 C 0.64314 0.88053 0.19457 0.0
C3757 C 0.63466 0.87589 0.20599 0.0
C3758 C 0.63274 0.86053 0.21213 0.0
C3759 C 0.67792 0.82369 0.25599 0.0
C3760 C 0.67437 0.83276 0.26544 0.0
C3761 C 0.668 0.81963 0.24503 0.0
C3762 C 0.65419 0.82443 0.24326 0.0
C3763 C 0.65048 0.83334 0.2527 0.0
C3764 C 0.6604 0.83739 0.2637 0.0
C3765 C 0.64418 0.82078 0.23137 0.0
C3766 C 0.64482 0.83551 0.22501 0.0
C3767 C 0.63504 0.80318 0.22598 0.0
C3768 C 0.63286 0.78684 0.23251 0.0
C3769 C 0.62484 0.78244 0.24416 0.0
C3770 C 0.62292 0.76709 0.2503 0.0
C3771 C 0.62886 0.75595 0.24486 0.0
C3772 C 0.63669 0.76012 0.23324 0.0
C3773 C 0.63866 0.77547 0.22706 0.0
H3774 H 0.62736 0.74407 0.24963 0.0
H3775 H 0.6446 0.89241 0.18983 0.0
H3776 H 0.19306 0.79857 0.16504 0.0
H3777 H 0.18248 0.80064 0.18541 0.0
H3778 H 0.2384 0.82253 0.19919 0.0
H3779 H 0.24897 0.81991 0.17895 0.0
H3780 H 0.21386 0.79839 0.21494 0.0
H3781 H 0.21999 0.85034 0.19299 0.0
H3782 H 0.2144 0.8662 0.17604 0.0
H3783 H 0.15571 0.83652 0.1833 0.0
H3784 H 0.16092 0.8203 0.20019 0.0
H3785 H 0.20148 0.83804 0.26992 0.0
H3786 H 0.21165 0.83106 0.25074 0.0
H3787 H 0.1561 0.80877 0.23619 0.0
H3788 H 0.1458 0.81536 0.2553 0.0
H3789 H 0.18083 0.83314 0.22089 0.0
H3790 H 0.17436 0.78147 0.24293 0.0
H3791 H 0.17917 0.76355 0.2588 0.0
H3792 H 0.23777 0.79171 0.25124 0.0
H3793 H 0.23336 0.80999 0.23544 0.0
C3794 C 0.20309 0.8036 0.17242 0.0
C3795 C 0.22192 0.80919 0.17027 0.0
C3796 C 0.19704 0.80496 0.18407 0.0
C3797 C 0.20968 0.81202 0.19385 0.0
C3798 C 0.22838 0.81714 0.19181 0.0
C3799 C 0.23443 0.81578 0.18018 0.0
C3800 C 0.2035 0.81434 0.20615 0.0
C3801 C 0.20688 0.80621 0.21628 0.0
C3802 C 0.19399 0.82419 0.2079 0.0
C3803 C 0.19083 0.83398 0.19778 0.0
C3804 C 0.20588 0.8471 0.19091 0.0
C3805 C 0.20278 0.85617 0.18133 0.0
C3806 C 0.18471 0.85234 0.17857 0.0
C3807 C 0.1697 0.83946 0.18543 0.0
C3808 C 0.17272 0.83033 0.19502 0.0
C3809 C 0.19133 0.83131 0.26273 0.0
C3810 C 0.17286 0.82758 0.26413 0.0
C3811 C 0.19718 0.82735 0.25174 0.0
C3812 C 0.18469 0.8195 0.24193 0.0
C3813 C 0.16609 0.81502 0.24353 0.0
C3814 C 0.16024 0.8189 0.25448 0.0
C3815 C 0.1911 0.8171 0.22974 0.0
C3816 C 0.18784 0.82532 0.2196 0.0
C3817 C 0.20069 0.80732 0.22801 0.0
C3818 C 0.20354 0.79722 0.23806 0.0
C3819 C 0.18831 0.78405 0.24477 0.0
C3820 C 0.19095 0.77375 0.25371 0.0
C3821 C 0.20875 0.77643 0.25597 0.0
C3822 C 0.22399 0.78961 0.24944 0.0
C3823 C 0.22143 0.79994 0.2405 0.0
H3824 H 0.21073 0.76823 0.26274 0.0
H3825 H 0.18233 0.85937 0.17115 0.0
H3826 H 0.239 0.42538 0.17321 0.0
H3827 H 0.23434 0.41267 0.1938 0.0
H3828 H 0.17613 0.39646 0.19171 0.0
H3829 H 0.18071 0.4092 0.17125 0.0
H3830 H 0.18893 0.41086 0.21308 0.0
H3831 H 0.1926 0.36558 0.18864 0.0
H3832 H 0.20676 0.35392 0.17409 0.0
H3833 H 0.25394 0.3712 0.1978 0.0
H3834 H 0.24016 0.38319 0.21243 0.0
H3835 H 0.14911 0.34088 0.25785 0.0
H3836 H 0.15903 0.35878 0.23905 0.0
H3837 H 0.21649 0.37941 0.249 0.0
H3838 H 0.20654 0.36162 0.26801 0.0
H3839 H 0.20725 0.36524 0.22474 0.0
H3840 H 0.20139 0.40787 0.25009 0.0
H3841 H 0.18603 0.41821 0.26466 0.0
H3842 H 0.14166 0.40461 0.2391 0.0
H3843 H 0.15661 0.3939 0.22444 0.0
C3844 C 0.22518 0.41898 0.1771 0.0
C3845 C 0.21026 0.4184 0.17054 0.0
C3846 C 0.22252 0.41171 0.1889 0.0
C3847 C 0.20483 0.40345 0.19437 0.0
C3848 C 0.18994 0.40283 0.1878 0.0
C3849 C 0.19261 0.41018 0.17606 0.0
C3850 C 0.20167 0.39546 0.2069 0.0
C3851 C 0.19281 0.40076 0.21556 0.0
C3852 C 0.20712 0.38261 0.21036 0.0
C3853 C 0.21546 0.37548 0.20156 0.0
C3854 C 0.20607 0.36704 0.1907 0.0
C3855 C 0.21401 0.36034 0.18245 0.0
C3856 C 0.23127 0.36187 0.185 0.0
C3857 C 0.2406 0.37006 0.19582 0.0
C3858 C 0.23272 0.3768 0.2041 0.0
C3859 C 0.16386 0.34939 0.2561 0.0
C3860 C 0.17705 0.34987 0.26441 0.0
C3861 C 0.16952 0.35964 0.24536 0.0
C3862 C 0.18851 0.37047 0.2426 0.0
C3863 C 0.20176 0.37116 0.25094 0.0
C3864 C 0.19609 0.36111 0.26183 0.0
C3865 C 0.1943 0.38045 0.23077 0.0
C3866 C 0.20359 0.37549 0.22227 0.0
C3867 C 0.18911 0.39349 0.22742 0.0
C3868 C 0.18006 0.39993 0.2362 0.0
C3869 C 0.18827 0.40692 0.24761 0.0
C3870 C 0.17966 0.41288 0.25588 0.0
C3871 C 0.16287 0.41203 0.25281 0.0
C3872 C 0.15467 0.40524 0.24147 0.0
C3873 C 0.16322 0.39924 0.23317 0.0
H3874 H 0.15624 0.41668 0.25922 0.0
H3875 H 0.23739 0.35667 0.1786 0.0
H3876 H 0.82983 0.60747 0.86118 0.0
H3877 H 0.84013 0.62043 0.84089 0.0
H3878 H 0.7832 0.59255 0.82829 0.0
H3879 H 0.77284 0.57898 0.84844 0.0
H3880 H 0.80572 0.59168 0.81097 0.0
H3881 H 0.80521 0.63788 0.83622 0.0
H3882 H 0.81321 0.65789 0.8542 0.0
H3883 H 0.87133 0.68227 0.84572 0.0
H3884 H 0.86368 0.66222 0.82777 0.0
H3885 H 0.81974 0.64831 0.75859 0.0
H3886 H 0.80939 0.6308 0.77756 0.0
H3887 H 0.86582 0.65903 0.79112 0.0
H3888 H 0.87621 0.6765 0.77226 0.0
H3889 H 0.84315 0.65919 0.80778 0.0
H3890 H 0.84392 0.61323 0.78247 0.0
H3891 H 0.83604 0.59388 0.76415 0.0
H3892 H 0.77784 0.56965 0.77232 0.0
H3893 H 0.78538 0.58897 0.79065 0.0
C3894 C 0.81949 0.60382 0.85407 0.0
C3895 C 0.80045 0.59226 0.85656 0.0
C3896 C 0.8254 0.61141 0.84246 0.0
C3897 C 0.81244 0.60774 0.83304 0.0
C3898 C 0.7935 0.5957 0.83537 0.0
C3899 C 0.78758 0.58809 0.84697 0.0
C3900 C 0.81853 0.61703 0.82096 0.0
C3901 C 0.81375 0.60645 0.81027 0.0
C3902 C 0.82926 0.63631 0.81997 0.0
C3903 C 0.83388 0.64842 0.83073 0.0
C3904 C 0.8197 0.64741 0.83824 0.0
C3905 C 0.82418 0.65878 0.84842 0.0
C3906 C 0.84277 0.67131 0.85112 0.0
C3907 C 0.85693 0.67254 0.84363 0.0
C3908 C 0.85254 0.66119 0.83345 0.0
C3909 C 0.82999 0.65058 0.76553 0.0
C3910 C 0.8488 0.66398 0.76391 0.0
C3911 C 0.82405 0.64055 0.7764 0.0
C3912 C 0.83681 0.64354 0.78584 0.0
C3913 C 0.85565 0.65653 0.78407 0.0
C3914 C 0.86157 0.66657 0.77326 0.0
C3915 C 0.83055 0.63387 0.79778 0.0
C3916 C 0.83522 0.64441 0.80846 0.0
C3917 C 0.81977 0.6146 0.79873 0.0
C3918 C 0.81521 0.60265 0.78788 0.0
C3919 C 0.82944 0.60383 0.78033 0.0
C3920 C 0.82504 0.59286 0.76995 0.0
C3921 C 0.80645 0.58059 0.76705 0.0
C3922 C 0.79223 0.57918 0.77457 0.0
C3923 C 0.79656 0.5901 0.78497 0.0
H3924 H 0.80307 0.57215 0.75899 0.0
H3925 H 0.8462 0.6801 0.859 0.0
H3926 H 0.38538 0.17962 0.86338 0.0
H3927 H 0.3726 0.17602 0.84286 0.0
H3928 H 0.42526 0.2199 0.83022 0.0
H3929 H 0.43815 0.22364 0.85081 0.0
H3930 H 0.39735 0.22268 0.82035 0.0
H3931 H 0.41212 0.17517 0.82436 0.0
H3932 H 0.41234 0.14889 0.83398 0.0
H3933 H 0.35279 0.11728 0.83093 0.0
H3934 H 0.35218 0.14348 0.82145 0.0
H3935 H 0.36997 0.20127 0.75795 0.0
H3936 H 0.38693 0.20649 0.77718 0.0
H3937 H 0.33725 0.16398 0.79413 0.0
H3938 H 0.32047 0.15819 0.77488 0.0
H3939 H 0.36657 0.16145 0.80096 0.0
H3940 H 0.35247 0.21053 0.79775 0.0
H3941 H 0.35321 0.2371 0.78783 0.0
H3942 H 0.41297 0.26604 0.78892 0.0
H3943 H 0.4126 0.23952 0.79866 0.0
C3944 C 0.3943 0.18846 0.85624 0.0
C3945 C 0.41286 0.20181 0.85874 0.0
C3946 C 0.38696 0.18638 0.84449 0.0
C3947 C 0.39805 0.19746 0.83491 0.0
C3948 C 0.41643 0.21115 0.83743 0.0
C3949 C 0.42377 0.2133 0.84923 0.0
C3950 C 0.3904 0.1946 0.82228 0.0
C3951 C 0.39088 0.20935 0.81604 0.0
C3952 C 0.38179 0.17718 0.81665 0.0
C3953 C 0.38209 0.16135 0.82229 0.0
C3954 C 0.39905 0.16266 0.82582 0.0
C3955 C 0.39925 0.14777 0.83124 0.0
C3956 C 0.38258 0.13144 0.83309 0.0
C3957 C 0.36568 0.12995 0.8295 0.0
C3958 C 0.36541 0.14481 0.82409 0.0
C3959 C 0.36271 0.19287 0.76572 0.0
C3960 C 0.34378 0.17939 0.76485 0.0
C3961 C 0.37239 0.19601 0.77677 0.0
C3962 C 0.36331 0.18583 0.78719 0.0
C3963 C 0.34456 0.17209 0.78626 0.0
C3964 C 0.33492 0.16891 0.77524 0.0
C3965 C 0.37314 0.18943 0.79914 0.0
C3966 C 0.37313 0.17481 0.80525 0.0
C3967 C 0.3823 0.20699 0.80459 0.0
C3968 C 0.3825 0.22297 0.79881 0.0
C3969 C 0.36577 0.22251 0.79579 0.0
C3970 C 0.36613 0.23757 0.7902 0.0
C3971 C 0.38313 0.25323 0.7877 0.0
C3972 C 0.39982 0.25388 0.79082 0.0
C3973 C 0.39954 0.23885 0.79638 0.0
H3974 H 0.38338 0.26487 0.78338 0.0
H3975 H 0.38276 0.11992 0.83728 0.0
H3976 H 0.76803 0.17923 0.85207 0.0
H3977 H 0.77742 0.17625 0.83157 0.0
H3978 H 0.83252 0.22154 0.83833 0.0
H3979 H 0.82329 0.2245 0.85898 0.0
H3980 H 0.82027 0.22334 0.81542 0.0
H3981 H 0.82431 0.17816 0.83985 0.0
H3982 H 0.81283 0.15211 0.85401 0.0
H3983 H 0.76967 0.11846 0.82864 0.0
H3984 H 0.78075 0.14441 0.81439 0.0
H3985 H 0.87111 0.20507 0.77065 0.0
H3986 H 0.8585 0.21006 0.78945 0.0
H3987 H 0.80353 0.16739 0.77919 0.0
H3988 H 0.81611 0.16249 0.76024 0.0
H3989 H 0.81419 0.16405 0.80321 0.0
H3990 H 0.81127 0.20857 0.77818 0.0
H3991 H 0.82315 0.23434 0.76378 0.0
H3992 H 0.86425 0.26902 0.78996 0.0
H3993 H 0.85282 0.24335 0.80445 0.0
C3994 C 0.7822 0.18851 0.84927 0.0
C3995 C 0.79494 0.20198 0.8573 0.0
C3996 C 0.78753 0.18683 0.83749 0.0
C3997 C 0.80576 0.19852 0.83341 0.0
C3998 C 0.81837 0.21236 0.84124 0.0
C3999 C 0.81304 0.21405 0.85306 0.0
C4000 C 0.81178 0.19588 0.82115 0.0
C4001 C 0.81913 0.21044 0.81281 0.0
C4002 C 0.80989 0.17891 0.81757 0.0
C4003 C 0.80323 0.16328 0.82611 0.0
C4004 C 0.81228 0.16525 0.83733 0.0
C4005 C 0.80586 0.1505 0.84536 0.0
C4006 C 0.7905 0.13366 0.84224 0.0
C4007 C 0.78155 0.13153 0.83105 0.0
C4008 C 0.7879 0.14625 0.82299 0.0
C4009 C 0.85631 0.19684 0.77236 0.0
C4010 C 0.8446 0.18336 0.76399 0.0
C4011 C 0.84911 0.19976 0.78308 0.0
C4012 C 0.83006 0.18912 0.78573 0.0
C4013 C 0.81827 0.17577 0.77733 0.0
C4014 C 0.82544 0.17305 0.76648 0.0
C4015 C 0.82273 0.1915 0.79753 0.0
C4016 C 0.8152 0.17691 0.8058 0.0
C4017 C 0.82446 0.20842 0.80101 0.0
C4018 C 0.8313 0.22397 0.79237 0.0
C4019 C 0.82295 0.22165 0.78084 0.0
C4020 C 0.82959 0.23625 0.77266 0.0
C4021 C 0.84448 0.2533 0.77594 0.0
C4022 C 0.85273 0.25579 0.78742 0.0
C4023 C 0.84616 0.24122 0.79563 0.0
H4024 H 0.8496 0.26459 0.7696 0.0
H4025 H 0.78556 0.12225 0.84847 0.0
H4026 H 0.29806 0.17087 0.50042 0.0
H4027 H 0.3113 0.1748 0.52081 0.0
H4028 H 0.26291 0.12495 0.53237 0.0
H4029 H 0.2493 0.12114 0.51196 0.0
H4030 H 0.27357 0.15226 0.54942 0.0
H4031 H 0.30281 0.12518 0.52678 0.0
H4032 H 0.32001 0.12185 0.50965 0.0
H4033 H 0.36676 0.17488 0.51726 0.0
H4034 H 0.34974 0.17864 0.53434 0.0
H4035 H 0.31778 0.14683 0.60454 0.0
H4036 H 0.30103 0.14085 0.58515 0.0
H4037 H 0.34784 0.1884 0.56955 0.0
H4038 H 0.3646 0.19446 0.58885 0.0
H4039 H 0.33651 0.15986 0.55483 0.0
H4040 H 0.30683 0.18802 0.57636 0.0
H4041 H 0.29002 0.19182 0.59353 0.0
H4042 H 0.24478 0.13712 0.58832 0.0
H4043 H 0.26133 0.13301 0.57106 0.0
C4044 C 0.29013 0.16079 0.5073 0.0
C4045 C 0.27259 0.14568 0.50452 0.0
C4046 C 0.2978 0.16299 0.51895 0.0
C4047 C 0.28819 0.15009 0.52812 0.0
C4048 C 0.2706 0.13506 0.52544 0.0
C4049 C 0.26292 0.13282 0.51374 0.0
C4050 C 0.29668 0.15237 0.54043 0.0
C4051 C 0.28721 0.15363 0.55063 0.0
C4052 C 0.31462 0.15449 0.54203 0.0
C4053 C 0.32493 0.15225 0.53178 0.0
C4054 C 0.3167 0.13619 0.52474 0.0
C4055 C 0.32643 0.13422 0.51505 0.0
C4056 C 0.34444 0.14816 0.51235 0.0
C4057 C 0.35279 0.1641 0.51936 0.0
C4058 C 0.34312 0.16615 0.52905 0.0
C4059 C 0.32439 0.15618 0.59703 0.0
C4060 C 0.34262 0.17105 0.59823 0.0
C4061 C 0.3148 0.15273 0.58594 0.0
C4062 C 0.32315 0.16417 0.57586 0.0
C4063 C 0.34114 0.17927 0.57714 0.0
C4064 C 0.35074 0.1827 0.58819 0.0
C4065 C 0.31358 0.1601 0.5638 0.0
C4066 C 0.32284 0.15842 0.55364 0.0
C4067 C 0.2955 0.15765 0.56227 0.0
C4068 C 0.28539 0.16015 0.5725 0.0
C4069 C 0.29334 0.17677 0.57892 0.0
C4070 C 0.28386 0.17899 0.58866 0.0
C4071 C 0.26641 0.16468 0.59208 0.0
C4072 C 0.25832 0.14818 0.58568 0.0
C4073 C 0.26772 0.14592 0.57589 0.0
H4074 H 0.25913 0.16641 0.59966 0.0
H4075 H 0.35195 0.14661 0.50484 0.0
H4076 H 0.8594 0.13637 0.49877 0.0
H4077 H 0.84899 0.13943 0.51896 0.0
H4078 H 0.90228 0.15238 0.53409 0.0
H4079 H 0.9126 0.14876 0.51398 0.0
H4080 H 0.87455 0.13032 0.5493 0.0
H4081 H 0.89221 0.18602 0.52779 0.0
H4082 H 0.89205 0.20502 0.51078 0.0
H4083 H 0.83355 0.18435 0.51587 0.0
H4084 H 0.8333 0.16502 0.53281 0.0
H4085 H 0.86721 0.17401 0.60378 0.0
H4086 H 0.87695 0.16659 0.58461 0.0
H4087 H 0.82319 0.15051 0.5689 0.0
H4088 H 0.81316 0.15732 0.58804 0.0
H4089 H 0.85168 0.17415 0.55421 0.0
H4090 H 0.83449 0.11943 0.5765 0.0
H4091 H 0.83506 0.10119 0.59381 0.0
H4092 H 0.89294 0.12005 0.58747 0.0
H4093 H 0.89289 0.13895 0.57034 0.0
C4094 C 0.86884 0.13959 0.50641 0.0
C4095 C 0.88692 0.14244 0.50468 0.0
C4096 C 0.86291 0.1415 0.51796 0.0
C4097 C 0.87493 0.14642 0.52806 0.0
C4098 C 0.89276 0.14868 0.52645 0.0
C4099 C 0.89871 0.14677 0.5149 0.0
C4100 C 0.86913 0.14979 0.54019 0.0
C4101 C 0.86978 0.14007 0.55041 0.0
C4102 C 0.86259 0.1623 0.54165 0.0
C4103 C 0.8627 0.17394 0.53148 0.0
C4104 C 0.87928 0.18542 0.52522 0.0
C4105 C 0.87927 0.19626 0.5156 0.0
C4106 C 0.86279 0.19586 0.51222 0.0
C4107 C 0.8463 0.18463 0.51848 0.0
C4108 C 0.84623 0.17374 0.52809 0.0
C4109 C 0.85732 0.16857 0.59633 0.0
C4110 C 0.83942 0.16645 0.59749 0.0
C4111 C 0.86296 0.16441 0.58534 0.0
C4112 C 0.85083 0.15804 0.57527 0.0
C4113 C 0.83286 0.15555 0.57649 0.0
C4114 C 0.82718 0.15956 0.58746 0.0
C4115 C 0.85698 0.1546 0.56331 0.0
C4116 C 0.85645 0.16438 0.55312 0.0
C4117 C 0.86366 0.1422 0.56193 0.0
C4118 C 0.86374 0.1308 0.57221 0.0
C4119 C 0.8474 0.11987 0.57887 0.0
C4120 C 0.84762 0.10937 0.58864 0.0
C4121 C 0.86401 0.10941 0.59173 0.0
C4122 C 0.88025 0.12003 0.58507 0.0
C4123 C 0.88014 0.13068 0.57534 0.0
H4124 H 0.86411 0.10121 0.59928 0.0
H4125 H 0.86281 0.20427 0.50477 0.0
H4126 H 0.88385 0.72839 0.49826 0.0
H4127 H 0.87942 0.71475 0.51849 0.0
H4128 H 0.86686 0.75484 0.53283 0.0
H4129 H 0.872 0.76901 0.51276 0.0
H4130 H 0.8874 0.74881 0.54887 0.0
H4131 H 0.83211 0.71091 0.52546 0.0
H4132 H 0.8142 0.69193 0.50797 0.0
H4133 H 0.83469 0.65507 0.51504 0.0
H4134 H 0.85293 0.67398 0.53249 0.0
H4135 H 0.84015 0.70018 0.60298 0.0
H4136 H 0.84978 0.717 0.5837 0.0
H4137 H 0.86057 0.67592 0.5689 0.0
H4138 H 0.85073 0.65902 0.58802 0.0
H4139 H 0.84146 0.68284 0.55315 0.0
H4140 H 0.89599 0.72015 0.57711 0.0
H4141 H 0.91342 0.73888 0.59482 0.0
H4142 H 0.89437 0.77667 0.58695 0.0
H4143 H 0.87657 0.758 0.5693 0.0
C4144 C 0.88045 0.73453 0.50574 0.0
C4145 C 0.87813 0.74976 0.50376 0.0
C4146 C 0.87772 0.72657 0.51731 0.0
C4147 C 0.87245 0.73352 0.52721 0.0
C4148 C 0.87079 0.7491 0.52537 0.0
C4149 C 0.87356 0.7571 0.51382 0.0
C4150 C 0.86808 0.72424 0.53936 0.0
C4151 C 0.87722 0.73442 0.54982 0.0
C4152 C 0.85503 0.70538 0.54066 0.0
C4153 C 0.84403 0.69396 0.5302 0.0
C4154 C 0.8329 0.69883 0.52323 0.0
C4155 C 0.82267 0.68807 0.51333 0.0
C4156 C 0.82334 0.67233 0.51037 0.0
C4157 C 0.8342 0.66728 0.51733 0.0
C4158 C 0.84448 0.67801 0.52723 0.0
C4159 C 0.84486 0.6949 0.59567 0.0
C4160 C 0.84455 0.67818 0.59704 0.0
C4161 C 0.85038 0.70453 0.58463 0.0
C4162 C 0.85601 0.69782 0.57476 0.0
C4163 C 0.85619 0.68139 0.57628 0.0
C4164 C 0.85054 0.67171 0.58724 0.0
C4165 C 0.86088 0.70734 0.56269 0.0
C4166 C 0.85175 0.69721 0.55223 0.0
C4167 C 0.87393 0.72622 0.56142 0.0
C4168 C 0.8848 0.73758 0.57195 0.0
C4169 C 0.89541 0.73239 0.5792 0.0
C4170 C 0.90537 0.743 0.58923 0.0
C4171 C 0.90497 0.75893 0.59202 0.0
C4172 C 0.89465 0.76431 0.58478 0.0
C4173 C 0.88463 0.75373 0.57476 0.0
H4174 H 0.91269 0.76713 0.59978 0.0
H4175 H 0.81541 0.66402 0.5027 0.0
loop_
_geom_bond_atom_site_label_1
_geom_bond_atom_site_label_2
_geom_bond_distance
_geom_bond_site_symmetry_2
_ccdc_geom_bond_type
C0 C1 1.264 . S
C0 C5 1.479 . S
C0 C10 1.465 . S
C1 C0 1.264 . S
C1 C3 1.339 . S
C1 H28 0.931 . S
C2 C3 1.395 . S
C2 C4 1.320 . S
C3 C1 1.339 . S
C3 C2 1.395 . S
C3 H29 0.929 . S
C4 C2 1.320 . S
C4 C5 1.405 . S
C4 H30 0.930 . S
C5 C0 1.479 . S
C5 C4 1.405 . S
C5 H31 0.931 . S
U6 O7 2.454 . S
U6 O8 2.458 . S
U6 C9 2.984 . S
U6 C10 2.847 . S
U6 C23 2.882 . S
U6 O24 2.441 . S
U6 O25 2.420 . S
U6 O26 2.455 . S
U6 O27 2.449 . S
O7 U6 2.454 . S
O7 C9 1.353 . S
O8 U6 2.458 . S
O8 C9 1.286 . S
C9 U6 2.984 . S
C9 O7 1.353 . S
C9 O8 1.286 . S
C9 C11 1.363 . S
C10 C0 1.465 . S
C10 U6 2.847 . S
C10 O24 1.249 . S
C10 O25 1.202 . S
C11 C9 1.363 . S
C11 C13 1.408 . S
C11 C16 1.342 . S
C12 C13 1.310 . S
C12 C15 1.461 . S
C12 H32 0.932 . S
C13 C11 1.408 . S
C13 C12 1.310 . S
C13 H33 0.930 . S
C14 C15 1.474 . S
C14 C16 1.285 . S
C14 H34 0.929 . S
C15 C12 1.461 . S
C15 C14 1.474 . S
C16 C11 1.342 . S
C16 C14 1.285 . S
C16 H35 0.930 . S
C17 C20 1.424 . S
C17 C22 1.245 . S
C17 C23 1.428 . S
C18 C21 1.260 . S
C18 C22 1.477 . S
C18 H36 0.932 . S
C19 C20 1.384 . S
C19 C21 1.479 . S
C19 H37 0.929 . S
C20 C17 1.424 . S
C20 C19 1.384 . S
C20 H38 0.928 . S
C21 C18 1.260 . S
C21 C19 1.479 . S
C22 C17 1.245 . S
C22 C18 1.477 . S
C22 H39 0.932 . S
C23 U6 2.882 . S
C23 C17 1.428 . S
C23 O26 1.301 . S
C23 O27 1.282 . S
O24 U6 2.441 . S
O24 C10 1.249 . S
O25 U6 2.420 . S
O25 C10 1.202 . S
O26 U6 2.455 . S
O26 C23 1.301 . S
O27 U6 2.449 . S
O27 C23 1.282 . S
H28 C1 0.931 . S
H29 C3 0.929 . S
H30 C4 0.930 . S
H31 C5 0.931 . S
H32 C12 0.932 . S
H33 C13 0.930 . S
H34 C14 0.929 . S
H35 C16 0.930 . S
H36 C18 0.932 . S
H37 C19 0.929 . S
H38 C20 0.928 . S
H39 C22 0.932 . S
C40 C41 1.264 . S
C40 C45 1.479 . S
C40 C50 1.465 . S
C41 C40 1.264 . S
C41 C43 1.339 . S
C41 H68 0.931 . S
C42 C43 1.395 . S
C42 C44 1.320 . S
C43 C41 1.339 . S
C43 C42 1.395 . S
C43 H69 0.929 . S
C44 C42 1.320 . S
C44 C45 1.405 . S
C44 H70 0.930 . S
C45 C40 1.479 . S
C45 C44 1.405 . S
C45 H71 0.931 . S
U46 O47 2.454 . S
U46 O48 2.458 . S
U46 C49 2.984 . S
U46 C50 2.847 . S
U46 C63 2.882 . S
U46 O64 2.441 . S
U46 O65 2.420 . S
U46 O66 2.455 . S
U46 O67 2.449 . S
O47 U46 2.454 . S
O47 C49 1.353 . S
O48 U46 2.458 . S
O48 C49 1.286 . S
C49 U46 2.984 . S
C49 O47 1.353 . S
C49 O48 1.286 . S
C49 C51 1.363 . S
C50 C40 1.465 . S
C50 U46 2.847 . S
C50 O64 1.249 . S
C50 O65 1.202 . S
C51 C49 1.363 . S
C51 C53 1.408 . S
C51 C56 1.342 . S
C52 C53 1.310 . S
C52 C55 1.461 . S
C52 H72 0.932 . S
C53 C51 1.408 . S
C53 C52 1.310 . S
C53 H73 0.930 . S
C54 C55 1.474 . S
C54 C56 1.285 . S
C54 H74 0.929 . S
C55 C52 1.461 . S
C55 C54 1.474 . S
C56 C51 1.342 . S
C56 C54 1.285 . S
C56 H75 0.930 . S
C57 C60 1.424 . S
C57 C62 1.245 . S
C57 C63 1.428 . S
C58 C61 1.260 . S
C58 C62 1.477 . S
C58 H76 0.932 . S
C59 C60 1.384 . S
C59 C61 1.479 . S
C59 H77 0.929 . S
C60 C57 1.424 . S
C60 C59 1.384 . S
C60 H78 0.928 . S
C61 C58 1.260 . S
C61 C59 1.479 . S
C62 C57 1.245 . S
C62 C58 1.477 . S
C62 H79 0.932 . S
C63 U46 2.882 . S
C63 C57 1.428 . S
C63 O66 1.301 . S
C63 O67 1.282 . S
O64 U46 2.441 . S
O64 C50 1.249 . S
O65 U46 2.420 . S
O65 C50 1.202 . S
O66 U46 2.455 . S
O66 C63 1.301 . S
O67 U46 2.449 . S
O67 C63 1.282 . S
H68 C41 0.931 . S
H69 C43 0.929 . S
H70 C44 0.930 . S
H71 C45 0.931 . S
H72 C52 0.932 . S
H73 C53 0.930 . S
H74 C54 0.929 . S
H75 C56 0.930 . S
H76 C58 0.932 . S
H77 C59 0.929 . S
H78 C60 0.928 . S
H79 C62 0.932 . S
C80 C81 1.264 . S
C80 C85 1.479 . S
C80 C90 1.465 . S
C81 C80 1.264 . S
C81 C83 1.339 . S
C81 H108 0.931 . S
C82 C83 1.395 . S
C82 C84 1.320 . S
C83 C81 1.339 . S
C83 C82 1.395 . S
C83 H109 0.929 . S
C84 C82 1.320 . S
C84 C85 1.405 . S
C84 H110 0.930 . S
C85 C80 1.479 . S
C85 C84 1.405 . S
C85 H111 0.931 . S
U86 O87 2.454 . S
U86 O88 2.458 . S
U86 C89 2.984 . S
U86 C90 2.847 . S
U86 C103 2.882 . S
U86 O104 2.441 . S
U86 O105 2.420 . S
U86 O106 2.455 . S
U86 O107 2.449 . S
O87 U86 2.454 . S
O87 C89 1.353 . S
O88 U86 2.458 . S
O88 C89 1.286 . S
C89 U86 2.984 . S
C89 O87 1.353 . S
C89 O88 1.286 . S
C89 C91 1.363 . S
C90 C80 1.465 . S
C90 U86 2.847 . S
C90 O104 1.249 . S
C90 O105 1.202 . S
C91 C89 1.363 . S
C91 C93 1.408 . S
C91 C96 1.342 . S
C92 C93 1.310 . S
C92 C95 1.461 . S
C92 H112 0.932 . S
C93 C91 1.408 . S
C93 C92 1.310 . S
C93 H113 0.930 . S
C94 C95 1.474 . S
C94 C96 1.285 . S
C94 H114 0.929 . S
C95 C92 1.461 . S
C95 C94 1.474 . S
C96 C91 1.342 . S
C96 C94 1.285 . S
C96 H115 0.930 . S
C97 C100 1.424 . S
C97 C102 1.245 . S
C97 C103 1.428 . S
C98 C101 1.260 . S
C98 C102 1.477 . S
C98 H116 0.932 . S
C99 C100 1.384 . S
C99 C101 1.479 . S
C99 H117 0.929 . S
C100 C97 1.424 . S
C100 C99 1.384 . S
C100 H118 0.928 . S
C101 C98 1.260 . S
C101 C99 1.479 . S
C102 C97 1.245 . S
C102 C98 1.477 . S
C102 H119 0.932 . S
C103 U86 2.882 . S
C103 C97 1.428 . S
C103 O106 1.301 . S
C103 O107 1.282 . S
O104 U86 2.441 . S
O104 C90 1.249 . S
O105 U86 2.420 . S
O105 C90 1.202 . S
O106 U86 2.455 . S
O106 C103 1.301 . S
O107 U86 2.449 . S
O107 C103 1.282 . S
H108 C81 0.931 . S
H109 C83 0.929 . S
H110 C84 0.930 . S
H111 C85 0.931 . S
H112 C92 0.932 . S
H113 C93 0.930 . S
H114 C94 0.929 . S
H115 C96 0.930 . S
H116 C98 0.932 . S
H117 C99 0.929 . S
H118 C100 0.928 . S
H119 C102 0.932 . S
C120 C121 1.264 . S
C120 C125 1.479 . S
C120 C130 1.465 . S
C121 C120 1.264 . S
C121 C123 1.339 . S
C121 H148 0.931 . S
C122 C123 1.395 . S
C122 C124 1.320 . S
C123 C121 1.339 . S
C123 C122 1.395 . S
C123 H149 0.929 . S
C124 C122 1.320 . S
C124 C125 1.405 . S
C124 H150 0.930 . S
C125 C120 1.479 . S
C125 C124 1.405 . S
C125 H151 0.931 . S
U126 O127 2.454 . S
U126 O128 2.458 . S
U126 C129 2.984 . S
U126 C130 2.847 . S
U126 C143 2.882 . S
U126 O144 2.441 . S
U126 O145 2.420 . S
U126 O146 2.455 . S
U126 O147 2.449 . S
O127 U126 2.454 . S
O127 C129 1.353 . S
O128 U126 2.458 . S
O128 C129 1.286 . S
C129 U126 2.984 . S
C129 O127 1.353 . S
C129 O128 1.286 . S
C129 C131 1.363 . S
C130 C120 1.465 . S
C130 U126 2.847 . S
C130 O144 1.249 . S
C130 O145 1.202 . S
C131 C129 1.363 . S
C131 C133 1.408 . S
C131 C136 1.342 . S
C132 C133 1.310 . S
C132 C135 1.461 . S
C132 H152 0.932 . S
C133 C131 1.408 . S
C133 C132 1.310 . S
C133 H153 0.930 . S
C134 C135 1.474 . S
C134 C136 1.285 . S
C134 H154 0.929 . S
C135 C132 1.461 . S
C135 C134 1.474 . S
C136 C131 1.342 . S
C136 C134 1.285 . S
C136 H155 0.930 . S
C137 C140 1.424 . S
C137 C142 1.245 . S
C137 C143 1.428 . S
C138 C141 1.260 . S
C138 C142 1.477 . S
C138 H156 0.932 . S
C139 C140 1.384 . S
C139 C141 1.479 . S
C139 H157 0.929 . S
C140 C137 1.424 . S
C140 C139 1.384 . S
C140 H158 0.928 . S
C141 C138 1.260 . S
C141 C139 1.479 . S
C142 C137 1.245 . S
C142 C138 1.477 . S
C142 H159 0.932 . S
C143 U126 2.882 . S
C143 C137 1.428 . S
C143 O146 1.301 . S
C143 O147 1.282 . S
O144 U126 2.441 . S
O144 C130 1.249 . S
O145 U126 2.420 . S
O145 C130 1.202 . S
O146 U126 2.455 . S
O146 C143 1.301 . S
O147 U126 2.449 . S
O147 C143 1.282 . S
H148 C121 0.931 . S
H149 C123 0.929 . S
H150 C124 0.930 . S
H151 C125 0.931 . S
H152 C132 0.932 . S
H153 C133 0.930 . S
H154 C134 0.929 . S
H155 C136 0.930 . S
H156 C138 0.932 . S
H157 C139 0.929 . S
H158 C140 0.928 . S
H159 C142 0.932 . S
C160 C161 1.264 . S
C160 C165 1.479 . S
C160 C170 1.465 . S
C161 C160 1.264 . S
C161 C163 1.339 . S
C161 H188 0.931 . S
C162 C163 1.395 . S
C162 C164 1.320 . S
C163 C161 1.339 . S
C163 C162 1.395 . S
C163 H189 0.929 . S
C164 C162 1.320 . S
C164 C165 1.405 . S
C164 H190 0.930 . S
C165 C160 1.479 . S
C165 C164 1.405 . S
C165 H191 0.931 . S
U166 O167 2.454 . S
U166 O168 2.458 . S
U166 C169 2.984 . S
U166 C170 2.847 . S
U166 C183 2.882 . S
U166 O184 2.441 . S
U166 O185 2.420 . S
U166 O186 2.455 . S
U166 O187 2.449 . S
O167 U166 2.454 . S
O167 C169 1.353 . S
O168 U166 2.458 . S
O168 C169 1.286 . S
C169 U166 2.984 . S
C169 O167 1.353 . S
C169 O168 1.286 . S
C169 C171 1.363 . S
C170 C160 1.465 . S
C170 U166 2.847 . S
C170 O184 1.249 . S
C170 O185 1.202 . S
C171 C169 1.363 . S
C171 C173 1.408 . S
C171 C176 1.342 . S
C172 C173 1.310 . S
C172 C175 1.461 . S
C172 H192 0.932 . S
C173 C171 1.408 . S
C173 C172 1.310 . S
C173 H193 0.930 . S
C174 C175 1.474 . S
C174 C176 1.285 . S
C174 H194 0.929 . S
C175 C172 1.461 . S
C175 C174 1.474 . S
C176 C171 1.342 . S
C176 C174 1.285 . S
C176 H195 0.930 . S
C177 C180 1.424 . S
C177 C182 1.245 . S
C177 C183 1.428 . S
C178 C181 1.260 . S
C178 C182 1.477 . S
C178 H196 0.932 . S
C179 C180 1.384 . S
C179 C181 1.479 . S
C179 H197 0.929 . S
C180 C177 1.424 . S
C180 C179 1.384 . S
C180 H198 0.928 . S
C181 C178 1.260 . S
C181 C179 1.479 . S
C182 C177 1.245 . S
C182 C178 1.477 . S
C182 H199 0.932 . S
C183 U166 2.882 . S
C183 C177 1.428 . S
C183 O186 1.301 . S
C183 O187 1.282 . S
O184 U166 2.441 . S
O184 C170 1.249 . S
O185 U166 2.420 . S
O185 C170 1.202 . S
O186 U166 2.455 . S
O186 C183 1.301 . S
O187 U166 2.449 . S
O187 C183 1.282 . S
H188 C161 0.931 . S
H189 C163 0.929 . S
H190 C164 0.930 . S
H191 C165 0.931 . S
H192 C172 0.932 . S
H193 C173 0.930 . S
H194 C174 0.929 . S
H195 C176 0.930 . S
H196 C178 0.932 . S
H197 C179 0.929 . S
H198 C180 0.928 . S
H199 C182 0.932 . S
C200 C201 1.264 . S
C200 C205 1.479 . S
C200 C210 1.465 . S
C201 C200 1.264 . S
C201 C203 1.339 . S
C201 H228 0.931 . S
C202 C203 1.395 . S
C202 C204 1.320 . S
C203 C201 1.339 . S
C203 C202 1.395 . S
C203 H229 0.929 . S
C204 C202 1.320 . S
C204 C205 1.405 . S
C204 H230 0.930 . S
C205 C200 1.479 . S
C205 C204 1.405 . S
C205 H231 0.931 . S
U206 O207 2.454 . S
U206 O208 2.458 . S
U206 C209 2.984 . S
U206 C210 2.847 . S
U206 C223 2.882 . S
U206 O224 2.441 . S
U206 O225 2.420 . S
U206 O226 2.455 . S
U206 O227 2.449 . S
O207 U206 2.454 . S
O207 C209 1.353 . S
O208 U206 2.458 . S
O208 C209 1.286 . S
C209 U206 2.984 . S
C209 O207 1.353 . S
C209 O208 1.286 . S
C209 C211 1.363 . S
C210 C200 1.465 . S
C210 U206 2.847 . S
C210 O224 1.249 . S
C210 O225 1.202 . S
C211 C209 1.363 . S
C211 C213 1.408 . S
C211 C216 1.342 . S
C212 C213 1.310 . S
C212 C215 1.461 . S
C212 H232 0.932 . S
C213 C211 1.408 . S
C213 C212 1.310 . S
C213 H233 0.930 . S
C214 C215 1.474 . S
C214 C216 1.285 . S
C214 H234 0.929 . S
C215 C212 1.461 . S
C215 C214 1.474 . S
C216 C211 1.342 . S
C216 C214 1.285 . S
C216 H235 0.930 . S
C217 C220 1.424 . S
C217 C222 1.245 . S
C217 C223 1.428 . S
C218 C221 1.260 . S
C218 C222 1.477 . S
C218 H236 0.932 . S
C219 C220 1.384 . S
C219 C221 1.479 . S
C219 H237 0.929 . S
C220 C217 1.424 . S
C220 C219 1.384 . S
C220 H238 0.928 . S
C221 C218 1.260 . S
C221 C219 1.479 . S
C222 C217 1.245 . S
C222 C218 1.477 . S
C222 H239 0.932 . S
C223 U206 2.882 . S
C223 C217 1.428 . S
C223 O226 1.301 . S
C223 O227 1.282 . S
O224 U206 2.441 . S
O224 C210 1.249 . S
O225 U206 2.420 . S
O225 C210 1.202 . S
O226 U206 2.455 . S
O226 C223 1.301 . S
O227 U206 2.449 . S
O227 C223 1.282 . S
H228 C201 0.931 . S
H229 C203 0.929 . S
H230 C204 0.930 . S
H231 C205 0.931 . S
H232 C212 0.932 . S
H233 C213 0.930 . S
H234 C214 0.929 . S
H235 C216 0.930 . S
H236 C218 0.932 . S
H237 C219 0.929 . S
H238 C220 0.928 . S
H239 C222 0.932 . S
C240 C241 1.264 . S
C240 C245 1.479 . S
C240 C250 1.465 . S
C241 C240 1.264 . S
C241 C243 1.339 . S
C241 H268 0.931 . S
C242 C243 1.395 . S
C242 C244 1.320 . S
C243 C241 1.339 . S
C243 C242 1.395 . S
C243 H269 0.929 . S
C244 C242 1.320 . S
C244 C245 1.405 . S
C244 H270 0.930 . S
C245 C240 1.479 . S
C245 C244 1.405 . S
C245 H271 0.931 . S
U246 O247 2.454 . S
U246 O248 2.458 . S
U246 C249 2.984 . S
U246 C250 2.847 . S
U246 C263 2.882 . S
U246 O264 2.441 . S
U246 O265 2.420 . S
U246 O266 2.455 . S
U246 O267 2.449 . S
O247 U246 2.454 . S
O247 C249 1.353 . S
O248 U246 2.458 . S
O248 C249 1.286 . S
C249 U246 2.984 . S
C249 O247 1.353 . S
C249 O248 1.286 . S
C249 C251 1.363 . S
C250 C240 1.465 . S
C250 U246 2.847 . S
C250 O264 1.249 . S
C250 O265 1.202 . S
C251 C249 1.363 . S
C251 C253 1.408 . S
C251 C256 1.342 . S
C252 C253 1.310 . S
C252 C255 1.461 . S
C252 H272 0.932 . S
C253 C251 1.408 . S
C253 C252 1.310 . S
C253 H273 0.930 . S
C254 C255 1.474 . S
C254 C256 1.285 . S
C254 H274 0.929 . S
C255 C252 1.461 . S
C255 C254 1.474 . S
C256 C251 1.342 . S
C256 C254 1.285 . S
C256 H275 0.930 . S
C257 C260 1.424 . S
C257 C262 1.245 . S
C257 C263 1.428 . S
C258 C261 1.260 . S
C258 C262 1.477 . S
C258 H276 0.932 . S
C259 C260 1.384 . S
C259 C261 1.479 . S
C259 H277 0.929 . S
C260 C257 1.424 . S
C260 C259 1.384 . S
C260 H278 0.928 . S
C261 C258 1.260 . S
C261 C259 1.479 . S
C262 C257 1.245 . S
C262 C258 1.477 . S
C262 H279 0.932 . S
C263 U246 2.882 . S
C263 C257 1.428 . S
C263 O266 1.301 . S
C263 O267 1.282 . S
O264 U246 2.441 . S
O264 C250 1.249 . S
O265 U246 2.420 . S
O265 C250 1.202 . S
O266 U246 2.455 . S
O266 C263 1.301 . S
O267 U246 2.449 . S
O267 C263 1.282 . S
H268 C241 0.931 . S
H269 C243 0.929 . S
H270 C244 0.930 . S
H271 C245 0.931 . S
H272 C252 0.932 . S
H273 C253 0.930 . S
H274 C254 0.929 . S
H275 C256 0.930 . S
H276 C258 0.932 . S
H277 C259 0.929 . S
H278 C260 0.928 . S
H279 C262 0.932 . S
C280 C281 1.264 . S
C280 C285 1.479 . S
C280 C290 1.465 . S
C281 C280 1.264 . S
C281 C283 1.339 . S
C281 H308 0.931 . S
C282 C283 1.395 . S
C282 C284 1.320 . S
C283 C281 1.339 . S
C283 C282 1.395 . S
C283 H309 0.929 . S
C284 C282 1.320 . S
C284 C285 1.405 . S
C284 H310 0.930 . S
C285 C280 1.479 . S
C285 C284 1.405 . S
C285 H311 0.931 . S
U286 O287 2.454 . S
U286 O288 2.458 . S
U286 C289 2.984 . S
U286 C290 2.847 . S
U286 C303 2.882 . S
U286 O304 2.441 . S
U286 O305 2.420 . S
U286 O306 2.455 . S
U286 O307 2.449 . S
O287 U286 2.454 . S
O287 C289 1.353 . S
O288 U286 2.458 . S
O288 C289 1.286 . S
C289 U286 2.984 . S
C289 O287 1.353 . S
C289 O288 1.286 . S
C289 C291 1.363 . S
C290 C280 1.465 . S
C290 U286 2.847 . S
C290 O304 1.249 . S
C290 O305 1.202 . S
C291 C289 1.363 . S
C291 C293 1.408 . S
C291 C296 1.342 . S
C292 C293 1.310 . S
C292 C295 1.461 . S
C292 H312 0.932 . S
C293 C291 1.408 . S
C293 C292 1.310 . S
C293 H313 0.930 . S
C294 C295 1.474 . S
C294 C296 1.285 . S
C294 H314 0.929 . S
C295 C292 1.461 . S
C295 C294 1.474 . S
C296 C291 1.342 . S
C296 C294 1.285 . S
C296 H315 0.930 . S
C297 C300 1.424 . S
C297 C302 1.245 . S
C297 C303 1.428 . S
C298 C301 1.260 . S
C298 C302 1.477 . S
C298 H316 0.932 . S
C299 C300 1.384 . S
C299 C301 1.479 . S
C299 H317 0.929 . S
C300 C297 1.424 . S
C300 C299 1.384 . S
C300 H318 0.928 . S
C301 C298 1.260 . S
C301 C299 1.479 . S
C302 C297 1.245 . S
C302 C298 1.477 . S
C302 H319 0.932 . S
C303 U286 2.882 . S
C303 C297 1.428 . S
C303 O306 1.301 . S
C303 O307 1.282 . S
O304 U286 2.441 . S
O304 C290 1.249 . S
O305 U286 2.420 . S
O305 C290 1.202 . S
O306 U286 2.455 . S
O306 C303 1.301 . S
O307 U286 2.449 . S
O307 C303 1.282 . S
H308 C281 0.931 . S
H309 C283 0.929 . S
H310 C284 0.930 . S
H311 C285 0.931 . S
H312 C292 0.932 . S
H313 C293 0.930 . S
H314 C294 0.929 . S
H315 C296 0.930 . S
H316 C298 0.932 . S
H317 C299 0.929 . S
H318 C300 0.928 . S
H319 C302 0.932 . S
C320 C321 1.264 . S
C320 C325 1.479 . S
C320 C330 1.465 . S
C321 C320 1.264 . S
C321 C323 1.339 . S
C321 H348 0.931 . S
C322 C323 1.395 . S
C322 C324 1.320 . S
C323 C321 1.339 . S
C323 C322 1.395 . S
C323 H349 0.929 . S
C324 C322 1.320 . S
C324 C325 1.405 . S
C324 H350 0.930 . S
C325 C320 1.479 . S
C325 C324 1.405 . S
C325 H351 0.931 . S
U326 O327 2.454 . S
U326 O328 2.458 . S
U326 C329 2.984 . S
U326 C330 2.847 . S
U326 C343 2.882 . S
U326 O344 2.441 . S
U326 O345 2.420 . S
U326 O346 2.455 . S
U326 O347 2.449 . S
O327 U326 2.454 . S
O327 C329 1.353 . S
O328 U326 2.458 . S
O328 C329 1.286 . S
C329 U326 2.984 . S
C329 O327 1.353 . S
C329 O328 1.286 . S
C329 C331 1.363 . S
C330 C320 1.465 . S
C330 U326 2.847 . S
C330 O344 1.249 . S
C330 O345 1.202 . S
C331 C329 1.363 . S
C331 C333 1.408 . S
C331 C336 1.342 . S
C332 C333 1.310 . S
C332 C335 1.461 . S
C332 H352 0.932 . S
C333 C331 1.408 . S
C333 C332 1.310 . S
C333 H353 0.930 . S
C334 C335 1.474 . S
C334 C336 1.285 . S
C334 H354 0.929 . S
C335 C332 1.461 . S
C335 C334 1.474 . S
C336 C331 1.342 . S
C336 C334 1.285 . S
C336 H355 0.930 . S
C337 C340 1.424 . S
C337 C342 1.245 . S
C337 C343 1.428 . S
C338 C341 1.260 . S
C338 C342 1.477 . S
C338 H356 0.932 . S
C339 C340 1.384 . S
C339 C341 1.479 . S
C339 H357 0.929 . S
C340 C337 1.424 . S
C340 C339 1.384 . S
C340 H358 0.928 . S
C341 C338 1.260 . S
C341 C339 1.479 . S
C342 C337 1.245 . S
C342 C338 1.477 . S
C342 H359 0.932 . S
C343 U326 2.882 . S
C343 C337 1.428 . S
C343 O346 1.301 . S
C343 O347 1.282 . S
O344 U326 2.441 . S
O344 C330 1.249 . S
O345 U326 2.420 . S
O345 C330 1.202 . S
O346 U326 2.455 . S
O346 C343 1.301 . S
O347 U326 2.449 . S
O347 C343 1.282 . S
H348 C321 0.931 . S
H349 C323 0.929 . S
H350 C324 0.930 . S
H351 C325 0.931 . S
H352 C332 0.932 . S
H353 C333 0.930 . S
H354 C334 0.929 . S
H355 C336 0.930 . S
H356 C338 0.932 . S
H357 C339 0.929 . S
H358 C340 0.928 . S
H359 C342 0.932 . S
C360 C361 1.264 . S
C360 C365 1.479 . S
C360 C370 1.465 . S
C361 C360 1.264 . S
C361 C363 1.339 . S
C361 H388 0.931 . S
C362 C363 1.395 . S
C362 C364 1.320 . S
C363 C361 1.339 . S
C363 C362 1.395 . S
C363 H389 0.929 . S
C364 C362 1.320 . S
C364 C365 1.405 . S
C364 H390 0.930 . S
C365 C360 1.479 . S
C365 C364 1.405 . S
C365 H391 0.931 . S
U366 O367 2.454 . S
U366 O368 2.458 . S
U366 C369 2.984 . S
U366 C370 2.847 . S
U366 C383 2.882 . S
U366 O384 2.441 . S
U366 O385 2.420 . S
U366 O386 2.455 . S
U366 O387 2.449 . S
O367 U366 2.454 . S
O367 C369 1.353 . S
O368 U366 2.458 . S
O368 C369 1.286 . S
C369 U366 2.984 . S
C369 O367 1.353 . S
C369 O368 1.286 . S
C369 C371 1.363 . S
C370 C360 1.465 . S
C370 U366 2.847 . S
C370 O384 1.249 . S
C370 O385 1.202 . S
C371 C369 1.363 . S
C371 C373 1.408 . S
C371 C376 1.342 . S
C372 C373 1.310 . S
C372 C375 1.461 . S
C372 H392 0.932 . S
C373 C371 1.408 . S
C373 C372 1.310 . S
C373 H393 0.930 . S
C374 C375 1.474 . S
C374 C376 1.285 . S
C374 H394 0.929 . S
C375 C372 1.461 . S
C375 C374 1.474 . S
C376 C371 1.342 . S
C376 C374 1.285 . S
C376 H395 0.930 . S
C377 C380 1.424 . S
C377 C382 1.245 . S
C377 C383 1.428 . S
C378 C381 1.260 . S
C378 C382 1.477 . S
C378 H396 0.932 . S
C379 C380 1.384 . S
C379 C381 1.479 . S
C379 H397 0.929 . S
C380 C377 1.424 . S
C380 C379 1.384 . S
C380 H398 0.928 . S
C381 C378 1.260 . S
C381 C379 1.479 . S
C382 C377 1.245 . S
C382 C378 1.477 . S
C382 H399 0.932 . S
C383 U366 2.882 . S
C383 C377 1.428 . S
C383 O386 1.301 . S
C383 O387 1.282 . S
O384 U366 2.441 . S
O384 C370 1.249 . S
O385 U366 2.420 . S
O385 C370 1.202 . S
O386 U366 2.455 . S
O386 C383 1.301 . S
O387 U366 2.449 . S
O387 C383 1.282 . S
H388 C361 0.931 . S
H389 C363 0.929 . S
H390 C364 0.930 . S
H391 C365 0.931 . S
H392 C372 0.932 . S
H393 C373 0.930 . S
H394 C374 0.929 . S
H395 C376 0.930 . S
H396 C378 0.932 . S
H397 C379 0.929 . S
H398 C380 0.928 . S
H399 C382 0.932 . S
C400 C401 1.264 . S
C400 C405 1.479 . S
C400 C410 1.465 . S
C401 C400 1.264 . S
C401 C403 1.339 . S
C401 H428 0.931 . S
C402 C403 1.395 . S
C402 C404 1.320 . S
C403 C401 1.339 . S
C403 C402 1.395 . S
C403 H429 0.929 . S
C404 C402 1.320 . S
C404 C405 1.405 . S
C404 H430 0.930 . S
C405 C400 1.479 . S
C405 C404 1.405 . S
C405 H431 0.931 . S
U406 O407 2.454 . S
U406 O408 2.458 . S
U406 C409 2.984 . S
U406 C410 2.847 . S
U406 C423 2.882 . S
U406 O424 2.441 . S
U406 O425 2.420 . S
U406 O426 2.455 . S
U406 O427 2.449 . S
O407 U406 2.454 . S
O407 C409 1.353 . S
O408 U406 2.458 . S
O408 C409 1.286 . S
C409 U406 2.984 . S
C409 O407 1.353 . S
C409 O408 1.286 . S
C409 C411 1.363 . S
C410 C400 1.465 . S
C410 U406 2.847 . S
C410 O424 1.249 . S
C410 O425 1.202 . S
C411 C409 1.363 . S
C411 C413 1.408 . S
C411 C416 1.342 . S
C412 C413 1.310 . S
C412 C415 1.461 . S
C412 H432 0.932 . S
C413 C411 1.408 . S
C413 C412 1.310 . S
C413 H433 0.930 . S
C414 C415 1.474 . S
C414 C416 1.285 . S
C414 H434 0.929 . S
C415 C412 1.461 . S
C415 C414 1.474 . S
C416 C411 1.342 . S
C416 C414 1.285 . S
C416 H435 0.930 . S
C417 C420 1.424 . S
C417 C422 1.245 . S
C417 C423 1.428 . S
C418 C421 1.260 . S
C418 C422 1.477 . S
C418 H436 0.932 . S
C419 C420 1.384 . S
C419 C421 1.479 . S
C419 H437 0.929 . S
C420 C417 1.424 . S
C420 C419 1.384 . S
C420 H438 0.928 . S
C421 C418 1.260 . S
C421 C419 1.479 . S
C422 C417 1.245 . S
C422 C418 1.477 . S
C422 H439 0.932 . S
C423 U406 2.882 . S
C423 C417 1.428 . S
C423 O426 1.301 . S
C423 O427 1.282 . S
O424 U406 2.441 . S
O424 C410 1.249 . S
O425 U406 2.420 . S
O425 C410 1.202 . S
O426 U406 2.455 . S
O426 C423 1.301 . S
O427 U406 2.449 . S
O427 C423 1.282 . S
H428 C401 0.931 . S
H429 C403 0.929 . S
H430 C404 0.930 . S
H431 C405 0.931 . S
H432 C412 0.932 . S
H433 C413 0.930 . S
H434 C414 0.929 . S
H435 C416 0.930 . S
H436 C418 0.932 . S
H437 C419 0.929 . S
H438 C420 0.928 . S
H439 C422 0.932 . S
C440 C441 1.264 . S
C440 C445 1.479 . S
C440 C450 1.465 . S
C441 C440 1.264 . S
C441 C443 1.339 . S
C441 H468 0.931 . S
C442 C443 1.395 . S
C442 C444 1.320 . S
C443 C441 1.339 . S
C443 C442 1.395 . S
C443 H469 0.929 . S
C444 C442 1.320 . S
C444 C445 1.405 . S
C444 H470 0.930 . S
C445 C440 1.479 . S
C445 C444 1.405 . S
C445 H471 0.931 . S
U446 O447 2.454 . S
U446 O448 2.458 . S
U446 C449 2.984 . S
U446 C450 2.847 . S
U446 C463 2.882 . S
U446 O464 2.441 . S
U446 O465 2.420 . S
U446 O466 2.455 . S
U446 O467 2.449 . S
O447 U446 2.454 . S
O447 C449 1.353 . S
O448 U446 2.458 . S
O448 C449 1.286 . S
C449 U446 2.984 . S
C449 O447 1.353 . S
C449 O448 1.286 . S
C449 C451 1.363 . S
C450 C440 1.465 . S
C450 U446 2.847 . S
C450 O464 1.249 . S
C450 O465 1.202 . S
C451 C449 1.363 . S
C451 C453 1.408 . S
C451 C456 1.342 . S
C452 C453 1.310 . S
C452 C455 1.461 . S
C452 H472 0.932 . S
C453 C451 1.408 . S
C453 C452 1.310 . S
C453 H473 0.930 . S
C454 C455 1.474 . S
C454 C456 1.285 . S
C454 H474 0.929 . S
C455 C452 1.461 . S
C455 C454 1.474 . S
C456 C451 1.342 . S
C456 C454 1.285 . S
C456 H475 0.930 . S
C457 C460 1.424 . S
C457 C462 1.245 . S
C457 C463 1.428 . S
C458 C461 1.260 . S
C458 C462 1.477 . S
C458 H476 0.932 . S
C459 C460 1.384 . S
C459 C461 1.479 . S
C459 H477 0.929 . S
C460 C457 1.424 . S
C460 C459 1.384 . S
C460 H478 0.928 . S
C461 C458 1.260 . S
C461 C459 1.479 . S
C462 C457 1.245 . S
C462 C458 1.477 . S
C462 H479 0.932 . S
C463 U446 2.882 . S
C463 C457 1.428 . S
C463 O466 1.301 . S
C463 O467 1.282 . S
O464 U446 2.441 . S
O464 C450 1.249 . S
O465 U446 2.420 . S
O465 C450 1.202 . S
O466 U446 2.455 . S
O466 C463 1.301 . S
O467 U446 2.449 . S
O467 C463 1.282 . S
H468 C441 0.931 . S
H469 C443 0.929 . S
H470 C444 0.930 . S
H471 C445 0.931 . S
H472 C452 0.932 . S
H473 C453 0.930 . S
H474 C454 0.929 . S
H475 C456 0.930 . S
H476 C458 0.932 . S
H477 C459 0.929 . S
H478 C460 0.928 . S
H479 C462 0.932 . S
C480 C481 1.264 . S
C480 C485 1.479 . S
C480 C490 1.465 . S
C481 C480 1.264 . S
C481 C483 1.339 . S
C481 H508 0.931 . S
C482 C483 1.395 . S
C482 C484 1.320 . S
C483 C481 1.339 . S
C483 C482 1.395 . S
C483 H509 0.929 . S
C484 C482 1.320 . S
C484 C485 1.405 . S
C484 H510 0.930 . S
C485 C480 1.479 . S
C485 C484 1.405 . S
C485 H511 0.931 . S
U486 O487 2.454 . S
U486 O488 2.458 . S
U486 C489 2.984 . S
U486 C490 2.847 . S
U486 C503 2.882 . S
U486 O504 2.441 . S
U486 O505 2.420 . S
U486 O506 2.455 . S
U486 O507 2.449 . S
O487 U486 2.454 . S
O487 C489 1.353 . S
O488 U486 2.458 . S
O488 C489 1.286 . S
C489 U486 2.984 . S
C489 O487 1.353 . S
C489 O488 1.286 . S
C489 C491 1.363 . S
C490 C480 1.465 . S
C490 U486 2.847 . S
C490 O504 1.249 . S
C490 O505 1.202 . S
C491 C489 1.363 . S
C491 C493 1.408 . S
C491 C496 1.342 . S
C492 C493 1.310 . S
C492 C495 1.461 . S
C492 H512 0.932 . S
C493 C491 1.408 . S
C493 C492 1.310 . S
C493 H513 0.930 . S
C494 C495 1.474 . S
C494 C496 1.285 . S
C494 H514 0.929 . S
C495 C492 1.461 . S
C495 C494 1.474 . S
C496 C491 1.342 . S
C496 C494 1.285 . S
C496 H515 0.930 . S
C497 C500 1.424 . S
C497 C502 1.245 . S
C497 C503 1.428 . S
C498 C501 1.260 . S
C498 C502 1.477 . S
C498 H516 0.932 . S
C499 C500 1.384 . S
C499 C501 1.479 . S
C499 H517 0.929 . S
C500 C497 1.424 . S
C500 C499 1.384 . S
C500 H518 0.928 . S
C501 C498 1.260 . S
C501 C499 1.479 . S
C502 C497 1.245 . S
C502 C498 1.477 . S
C502 H519 0.932 . S
C503 U486 2.882 . S
C503 C497 1.428 . S
C503 O506 1.301 . S
C503 O507 1.282 . S
O504 U486 2.441 . S
O504 C490 1.249 . S
O505 U486 2.420 . S
O505 C490 1.202 . S
O506 U486 2.455 . S
O506 C503 1.301 . S
O507 U486 2.449 . S
O507 C503 1.282 . S
H508 C481 0.931 . S
H509 C483 0.929 . S
H510 C484 0.930 . S
H511 C485 0.931 . S
H512 C492 0.932 . S
H513 C493 0.930 . S
H514 C494 0.929 . S
H515 C496 0.930 . S
H516 C498 0.932 . S
H517 C499 0.929 . S
H518 C500 0.928 . S
H519 C502 0.932 . S
C520 C521 1.264 . S
C520 C525 1.479 . S
C520 C530 1.465 . S
C521 C520 1.264 . S
C521 C523 1.339 . S
C521 H548 0.931 . S
C522 C523 1.395 . S
C522 C524 1.320 . S
C523 C521 1.339 . S
C523 C522 1.395 . S
C523 H549 0.929 . S
C524 C522 1.320 . S
C524 C525 1.405 . S
C524 H550 0.930 . S
C525 C520 1.479 . S
C525 C524 1.405 . S
C525 H551 0.931 . S
U526 O527 2.454 . S
U526 O528 2.458 . S
U526 C529 2.984 . S
U526 C530 2.847 . S
U526 C543 2.882 . S
U526 O544 2.441 . S
U526 O545 2.420 . S
U526 O546 2.455 . S
U526 O547 2.449 . S
O527 U526 2.454 . S
O527 C529 1.353 . S
O528 U526 2.458 . S
O528 C529 1.286 . S
C529 U526 2.984 . S
C529 O527 1.353 . S
C529 O528 1.286 . S
C529 C531 1.363 . S
C530 C520 1.465 . S
C530 U526 2.847 . S
C530 O544 1.249 . S
C530 O545 1.202 . S
C531 C529 1.363 . S
C531 C533 1.408 . S
C531 C536 1.342 . S
C532 C533 1.310 . S
C532 C535 1.461 . S
C532 H552 0.932 . S
C533 C531 1.408 . S
C533 C532 1.310 . S
C533 H553 0.930 . S
C534 C535 1.474 . S
C534 C536 1.285 . S
C534 H554 0.929 . S
C535 C532 1.461 . S
C535 C534 1.474 . S
C536 C531 1.342 . S
C536 C534 1.285 . S
C536 H555 0.930 . S
C537 C540 1.424 . S
C537 C542 1.245 . S
C537 C543 1.428 . S
C538 C541 1.260 . S
C538 C542 1.477 . S
C538 H556 0.932 . S
C539 C540 1.384 . S
C539 C541 1.479 . S
C539 H557 0.929 . S
C540 C537 1.424 . S
C540 C539 1.384 . S
C540 H558 0.928 . S
C541 C538 1.260 . S
C541 C539 1.479 . S
C542 C537 1.245 . S
C542 C538 1.477 . S
C542 H559 0.932 . S
C543 U526 2.882 . S
C543 C537 1.428 . S
C543 O546 1.301 . S
C543 O547 1.282 . S
O544 U526 2.441 . S
O544 C530 1.249 . S
O545 U526 2.420 . S
O545 C530 1.202 . S
O546 U526 2.455 . S
O546 C543 1.301 . S
O547 U526 2.449 . S
O547 C543 1.282 . S
H548 C521 0.931 . S
H549 C523 0.929 . S
H550 C524 0.930 . S
H551 C525 0.931 . S
H552 C532 0.932 . S
H553 C533 0.930 . S
H554 C534 0.929 . S
H555 C536 0.930 . S
H556 C538 0.932 . S
H557 C539 0.929 . S
H558 C540 0.928 . S
H559 C542 0.932 . S
C560 C561 1.264 . S
C560 C565 1.479 . S
C560 C570 1.465 . S
C561 C560 1.264 . S
C561 C563 1.339 . S
C561 H588 0.931 . S
C562 C563 1.395 . S
C562 C564 1.320 . S
C563 C561 1.339 . S
C563 C562 1.395 . S
C563 H589 0.929 . S
C564 C562 1.320 . S
C564 C565 1.405 . S
C564 H590 0.930 . S
C565 C560 1.479 . S
C565 C564 1.405 . S
C565 H591 0.931 . S
U566 O567 2.454 . S
U566 O568 2.458 . S
U566 C569 2.984 . S
U566 C570 2.847 . S
U566 C583 2.882 . S
U566 O584 2.441 . S
U566 O585 2.420 . S
U566 O586 2.455 . S
U566 O587 2.449 . S
O567 U566 2.454 . S
O567 C569 1.353 . S
O568 U566 2.458 . S
O568 C569 1.286 . S
C569 U566 2.984 . S
C569 O567 1.353 . S
C569 O568 1.286 . S
C569 C571 1.363 . S
C570 C560 1.465 . S
C570 U566 2.847 . S
C570 O584 1.249 . S
C570 O585 1.202 . S
C571 C569 1.363 . S
C571 C573 1.408 . S
C571 C576 1.342 . S
C572 C573 1.310 . S
C572 C575 1.461 . S
C572 H592 0.932 . S
C573 C571 1.408 . S
C573 C572 1.310 . S
C573 H593 0.930 . S
C574 C575 1.474 . S
C574 C576 1.285 . S
C574 H594 0.929 . S
C575 C572 1.461 . S
C575 C574 1.474 . S
C576 C571 1.342 . S
C576 C574 1.285 . S
C576 H595 0.930 . S
C577 C580 1.424 . S
C577 C582 1.245 . S
C577 C583 1.428 . S
C578 C581 1.260 . S
C578 C582 1.477 . S
C578 H596 0.932 . S
C579 C580 1.384 . S
C579 C581 1.479 . S
C579 H597 0.929 . S
C580 C577 1.424 . S
C580 C579 1.384 . S
C580 H598 0.928 . S
C581 C578 1.260 . S
C581 C579 1.479 . S
C582 C577 1.245 . S
C582 C578 1.477 . S
C582 H599 0.932 . S
C583 U566 2.882 . S
C583 C577 1.428 . S
C583 O586 1.301 . S
C583 O587 1.282 . S
O584 U566 2.441 . S
O584 C570 1.249 . S
O585 U566 2.420 . S
O585 C570 1.202 . S
O586 U566 2.455 . S
O586 C583 1.301 . S
O587 U566 2.449 . S
O587 C583 1.282 . S
H588 C561 0.931 . S
H589 C563 0.929 . S
H590 C564 0.930 . S
H591 C565 0.931 . S
H592 C572 0.932 . S
H593 C573 0.930 . S
H594 C574 0.929 . S
H595 C576 0.930 . S
H596 C578 0.932 . S
H597 C579 0.929 . S
H598 C580 0.928 . S
H599 C582 0.932 . S
C600 C601 1.264 . S
C600 C605 1.479 . S
C600 C610 1.465 . S
C601 C600 1.264 . S
C601 C603 1.339 . S
C601 H628 0.931 . S
C602 C603 1.395 . S
C602 C604 1.320 . S
C603 C601 1.339 . S
C603 C602 1.395 . S
C603 H629 0.929 . S
C604 C602 1.320 . S
C604 C605 1.405 . S
C604 H630 0.930 . S
C605 C600 1.479 . S
C605 C604 1.405 . S
C605 H631 0.931 . S
U606 O607 2.454 . S
U606 O608 2.458 . S
U606 C609 2.984 . S
U606 C610 2.847 . S
U606 C623 2.882 . S
U606 O624 2.441 . S
U606 O625 2.420 . S
U606 O626 2.455 . S
U606 O627 2.449 . S
O607 U606 2.454 . S
O607 C609 1.353 . S
O608 U606 2.458 . S
O608 C609 1.286 . S
C609 U606 2.984 . S
C609 O607 1.353 . S
C609 O608 1.286 . S
C609 C611 1.363 . S
C610 C600 1.465 . S
C610 U606 2.847 . S
C610 O624 1.249 . S
C610 O625 1.202 . S
C611 C609 1.363 . S
C611 C613 1.408 . S
C611 C616 1.342 . S
C612 C613 1.310 . S
C612 C615 1.461 . S
C612 H632 0.932 . S
C613 C611 1.408 . S
C613 C612 1.310 . S
C613 H633 0.930 . S
C614 C615 1.474 . S
C614 C616 1.285 . S
C614 H634 0.929 . S
C615 C612 1.461 . S
C615 C614 1.474 . S
C616 C611 1.342 . S
C616 C614 1.285 . S
C616 H635 0.930 . S
C617 C620 1.424 . S
C617 C622 1.245 . S
C617 C623 1.428 . S
C618 C621 1.260 . S
C618 C622 1.477 . S
C618 H636 0.932 . S
C619 C620 1.384 . S
C619 C621 1.479 . S
C619 H637 0.929 . S
C620 C617 1.424 . S
C620 C619 1.384 . S
C620 H638 0.928 . S
C621 C618 1.260 . S
C621 C619 1.479 . S
C622 C617 1.245 . S
C622 C618 1.477 . S
C622 H639 0.932 . S
C623 U606 2.882 . S
C623 C617 1.428 . S
C623 O626 1.301 . S
C623 O627 1.282 . S
O624 U606 2.441 . S
O624 C610 1.249 . S
O625 U606 2.420 . S
O625 C610 1.202 . S
O626 U606 2.455 . S
O626 C623 1.301 . S
O627 U606 2.449 . S
O627 C623 1.282 . S
H628 C601 0.931 . S
H629 C603 0.929 . S
H630 C604 0.930 . S
H631 C605 0.931 . S
H632 C612 0.932 . S
H633 C613 0.930 . S
H634 C614 0.929 . S
H635 C616 0.930 . S
H636 C618 0.932 . S
H637 C619 0.929 . S
H638 C620 0.928 . S
H639 C622 0.932 . S
C640 C641 1.264 . S
C640 C645 1.479 . S
C640 C650 1.465 . S
C641 C640 1.264 . S
C641 C643 1.339 . S
C641 H668 0.931 . S
C642 C643 1.395 . S
C642 C644 1.320 . S
C643 C641 1.339 . S
C643 C642 1.395 . S
C643 H669 0.929 . S
C644 C642 1.320 . S
C644 C645 1.405 . S
C644 H670 0.930 . S
C645 C640 1.479 . S
C645 C644 1.405 . S
C645 H671 0.931 . S
U646 O647 2.454 . S
U646 O648 2.458 . S
U646 C649 2.984 . S
U646 C650 2.847 . S
U646 C663 2.882 . S
U646 O664 2.441 . S
U646 O665 2.420 . S
U646 O666 2.455 . S
U646 O667 2.449 . S
O647 U646 2.454 . S
O647 C649 1.353 . S
O648 U646 2.458 . S
O648 C649 1.286 . S
C649 U646 2.984 . S
C649 O647 1.353 . S
C649 O648 1.286 . S
C649 C651 1.363 . S
C650 C640 1.465 . S
C650 U646 2.847 . S
C650 O664 1.249 . S
C650 O665 1.202 . S
C651 C649 1.363 . S
C651 C653 1.408 . S
C651 C656 1.342 . S
C652 C653 1.310 . S
C652 C655 1.461 . S
C652 H672 0.932 . S
C653 C651 1.408 . S
C653 C652 1.310 . S
C653 H673 0.930 . S
C654 C655 1.474 . S
C654 C656 1.285 . S
C654 H674 0.929 . S
C655 C652 1.461 . S
C655 C654 1.474 . S
C656 C651 1.342 . S
C656 C654 1.285 . S
C656 H675 0.930 . S
C657 C660 1.424 . S
C657 C662 1.245 . S
C657 C663 1.428 . S
C658 C661 1.260 . S
C658 C662 1.477 . S
C658 H676 0.932 . S
C659 C660 1.384 . S
C659 C661 1.479 . S
C659 H677 0.929 . S
C660 C657 1.424 . S
C660 C659 1.384 . S
C660 H678 0.928 . S
C661 C658 1.260 . S
C661 C659 1.479 . S
C662 C657 1.245 . S
C662 C658 1.477 . S
C662 H679 0.932 . S
C663 U646 2.882 . S
C663 C657 1.428 . S
C663 O666 1.301 . S
C663 O667 1.282 . S
O664 U646 2.441 . S
O664 C650 1.249 . S
O665 U646 2.420 . S
O665 C650 1.202 . S
O666 U646 2.455 . S
O666 C663 1.301 . S
O667 U646 2.449 . S
O667 C663 1.282 . S
H668 C641 0.931 . S
H669 C643 0.929 . S
H670 C644 0.930 . S
H671 C645 0.931 . S
H672 C652 0.932 . S
H673 C653 0.930 . S
H674 C654 0.929 . S
H675 C656 0.930 . S
H676 C658 0.932 . S
H677 C659 0.929 . S
H678 C660 0.928 . S
H679 C662 0.932 . S
C680 C681 1.264 . S
C680 C685 1.479 . S
C680 C690 1.465 . S
C681 C680 1.264 . S
C681 C683 1.339 . S
C681 H708 0.931 . S
C682 C683 1.395 . S
C682 C684 1.320 . S
C683 C681 1.339 . S
C683 C682 1.395 . S
C683 H709 0.929 . S
C684 C682 1.320 . S
C684 C685 1.405 . S
C684 H710 0.930 . S
C685 C680 1.479 . S
C685 C684 1.405 . S
C685 H711 0.931 . S
U686 O687 2.454 . S
U686 O688 2.458 . S
U686 C689 2.984 . S
U686 C690 2.847 . S
U686 C703 2.882 . S
U686 O704 2.441 . S
U686 O705 2.420 . S
U686 O706 2.455 . S
U686 O707 2.449 . S
O687 U686 2.454 . S
O687 C689 1.353 . S
O688 U686 2.458 . S
O688 C689 1.286 . S
C689 U686 2.984 . S
C689 O687 1.353 . S
C689 O688 1.286 . S
C689 C691 1.363 . S
C690 C680 1.465 . S
C690 U686 2.847 . S
C690 O704 1.249 . S
C690 O705 1.202 . S
C691 C689 1.363 . S
C691 C693 1.408 . S
C691 C696 1.342 . S
C692 C693 1.310 . S
C692 C695 1.461 . S
C692 H712 0.932 . S
C693 C691 1.408 . S
C693 C692 1.310 . S
C693 H713 0.930 . S
C694 C695 1.474 . S
C694 C696 1.285 . S
C694 H714 0.929 . S
C695 C692 1.461 . S
C695 C694 1.474 . S
C696 C691 1.342 . S
C696 C694 1.285 . S
C696 H715 0.930 . S
C697 C700 1.424 . S
C697 C702 1.245 . S
C697 C703 1.428 . S
C698 C701 1.260 . S
C698 C702 1.477 . S
C698 H716 0.932 . S
C699 C700 1.384 . S
C699 C701 1.479 . S
C699 H717 0.929 . S
C700 C697 1.424 . S
C700 C699 1.384 . S
C700 H718 0.928 . S
C701 C698 1.260 . S
C701 C699 1.479 . S
C702 C697 1.245 . S
C702 C698 1.477 . S
C702 H719 0.932 . S
C703 U686 2.882 . S
C703 C697 1.428 . S
C703 O706 1.301 . S
C703 O707 1.282 . S
O704 U686 2.441 . S
O704 C690 1.249 . S
O705 U686 2.420 . S
O705 C690 1.202 . S
O706 U686 2.455 . S
O706 C703 1.301 . S
O707 U686 2.449 . S
O707 C703 1.282 . S
H708 C681 0.931 . S
H709 C683 0.929 . S
H710 C684 0.930 . S
H711 C685 0.931 . S
H712 C692 0.932 . S
H713 C693 0.930 . S
H714 C694 0.929 . S
H715 C696 0.930 . S
H716 C698 0.932 . S
H717 C699 0.929 . S
H718 C700 0.928 . S
H719 C702 0.932 . S
Eu720 N751 2.657 . S
Eu720 N758 2.609 . S
Eu720 O764 2.558 . S
Eu720 O765 2.603 1_566 S
Eu720 O767 2.339 1_565 S
Eu720 O768 2.563 1_565 S
Eu720 O769 2.419 . S
Eu720 O771 2.380 1_556 S
Eu720 O772 2.487 . S
Eu720 C784 2.848 . S
C721 C724 1.429 . S
C721 C725 1.411 . S
C721 N728 1.377 . S
C722 C724 1.420 . S
C722 C726 1.423 . S
C722 C734 1.392 . S
C723 C725 1.420 . S
C723 C726 1.351 . S
C723 H746 0.931 . S
C724 C721 1.429 . S
C724 C722 1.420 . S
C724 N732 1.362 . S
C725 C721 1.411 . S
C725 C723 1.420 . S
C725 C730 1.395 . S
C726 C722 1.423 . S
C726 C723 1.351 . S
C726 H738 0.930 . S
C727 C729 1.400 . S
C727 C730 1.386 . S
C727 H739 0.930 . S
N728 C721 1.377 . S
N728 C729 1.321 . S
N728 Eu731 2.609 . S
C729 C727 1.400 . S
C729 N728 1.321 . S
C729 H736 0.930 . S
C730 C725 1.395 . S
C730 C727 1.386 . S
C730 H749 0.930 . S
Eu731 N728 2.609 . S
Eu731 N732 2.657 . S
Eu731 O765 2.395 . S
Eu731 O766 2.432 . S
Eu731 O770 2.558 . S
Eu731 O771 2.612 1_545 S
Eu731 O773 2.339 1_545 S
Eu731 O774 2.563 1_545 S
Eu731 O775 2.419 . S
Eu731 C795 2.848 . S
N732 C724 1.362 . S
N732 Eu731 2.657 . S
N732 C733 1.334 . S
C733 N732 1.334 . S
C733 C735 1.413 . S
C733 H740 0.929 . S
C734 C722 1.392 . S
C734 C735 1.367 . S
C734 H742 0.930 . S
C735 C733 1.413 . S
C735 C734 1.367 . S
C735 H737 0.930 . S
H736 C729 0.930 . S
H737 C735 0.930 . S
H738 C726 0.930 . S
H739 C727 0.930 . S
H740 C733 0.929 . S
H741 C755 0.930 . S
H742 C734 0.930 . S
H743 C761 0.930 . S
H744 C752 0.929 . S
H745 C759 0.930 . S
H746 C723 0.931 . S
H747 C753 0.930 . S
H748 C786 0.930 . S
H749 C730 0.930 . S
H750 C785 0.931 . S
N751 Eu720 2.657 . S
N751 C752 1.334 . S
N751 C756 1.362 . S
C752 H744 0.929 . S
C752 N751 1.334 . S
C752 C755 1.413 . S
C753 H747 0.930 . S
C753 C754 1.392 . S
C753 C755 1.367 . S
C754 C753 1.392 . S
C754 C756 1.420 . S
C754 C786 1.423 . S
C755 H741 0.930 . S
C755 C752 1.413 . S
C755 C753 1.367 . S
C756 N751 1.362 . S
C756 C754 1.420 . S
C756 C760 1.429 . S
H757 C762 0.930 . S
N758 Eu720 2.609 . S
N758 C760 1.377 . S
N758 C761 1.321 . S
C759 H745 0.930 . S
C759 C761 1.400 . S
C759 C762 1.386 . S
C760 C756 1.429 . S
C760 N758 1.377 . S
C760 C763 1.411 . S
C761 H743 0.930 . S
C761 N758 1.321 . S
C761 C759 1.400 . S
C762 H757 0.930 . S
C762 C759 1.386 . S
C762 C763 1.395 . S
C763 C760 1.411 . S
C763 C762 1.395 . S
C763 C785 1.420 . S
O764 Eu720 2.558 . S
O764 C784 1.257 . S
O765 Eu720 2.603 1_544 S
O765 Eu731 2.395 . S
O765 C776 1.264 1_554 S
O766 Eu731 2.432 . S
O766 C783 1.264 1_554 S
O767 Eu720 2.339 1_545 S
O767 C783 1.254 . S
O768 Eu720 2.563 1_545 S
O768 C776 1.235 . S
O769 Eu720 2.419 . S
O769 C784 1.249 . S
O770 Eu731 2.558 . S
O770 C795 1.257 . S
O771 Eu720 2.380 1_554 S
O771 Eu731 2.612 1_565 S
O771 C787 1.276 . S
O772 Eu720 2.487 . S
O772 C794 1.167 1_556 S
O773 Eu731 2.339 1_565 S
O773 C794 1.254 . S
O774 Eu731 2.563 1_565 S
O774 C787 1.235 . S
O775 Eu731 2.419 . S
O775 C795 1.249 . S
C776 O765 1.264 1_556 S
C776 O768 1.235 . S
C777 C779 1.393 1_565 S
C777 C781 1.395 . S
C777 C784 1.492 . S
C778 C779 1.392 . S
C778 C780 1.386 1_545 S
C779 C777 1.393 1_545 S
C779 C778 1.392 . S
C779 H796 0.930 . S
C780 C778 1.386 1_565 S
C780 C782 1.395 . S
C780 H797 0.930 . S
C781 C777 1.395 . S
C781 C782 1.379 . S
C781 H798 0.930 . S
C782 C780 1.395 . S
C782 C781 1.379 . S
C782 H799 0.930 . S
C783 O766 1.264 1_556 S
C783 O767 1.254 . S
C784 Eu720 2.848 . S
C784 O764 1.257 . S
C784 O769 1.249 . S
C784 C777 1.492 . S
C785 H750 0.931 . S
C785 C763 1.420 . S
C785 C786 1.351 . S
C786 H748 0.930 . S
C786 C754 1.423 . S
C786 C785 1.351 . S
C787 O771 1.276 . S
C787 O774 1.235 . S
C788 C789 1.393 1_545 S
C788 C792 1.395 . S
C788 C795 1.492 . S
C789 C788 1.393 1_565 S
C789 C790 1.392 . S
C789 H800 0.930 . S
C790 C789 1.392 . S
C790 C791 1.386 1_565 S
C791 C790 1.386 1_545 S
C791 C793 1.395 . S
C791 H801 0.930 . S
C792 C788 1.395 . S
C792 C793 1.379 . S
C792 H802 0.930 . S
C793 C791 1.395 . S
C793 C792 1.379 . S
C793 H803 0.930 . S
C794 O772 1.167 1_554 S
C794 O773 1.254 . S
C795 Eu731 2.848 . S
C795 O770 1.257 . S
C795 O775 1.249 . S
C795 C788 1.492 . S
H796 C779 0.930 . S
H797 C780 0.930 . S
H798 C781 0.930 . S
H799 C782 0.930 . S
H800 C789 0.930 . S
H801 C791 0.930 . S
H802 C792 0.930 . S
H803 C793 0.930 . S
Eu804 N835 2.657 . S
Eu804 N842 2.609 . S
Eu804 O848 2.558 . S
Eu804 O849 2.609 1_456 S
Eu804 O851 2.339 1_455 S
Eu804 O852 2.563 1_455 S
Eu804 O853 2.419 . S
Eu804 O855 2.380 1_556 S
Eu804 O856 2.436 . S
Eu804 C868 2.848 . S
C805 C808 1.429 . S
C805 C809 1.411 . S
C805 N812 1.377 . S
C806 C808 1.420 . S
C806 C810 1.423 . S
C806 C818 1.392 . S
C807 C809 1.420 . S
C807 C810 1.351 . S
C807 H830 0.931 . S
C808 C805 1.429 . S
C808 C806 1.420 . S
C808 N816 1.362 . S
C809 C805 1.411 . S
C809 C807 1.420 . S
C809 C814 1.395 . S
C810 C806 1.423 . S
C810 C807 1.351 . S
C810 H822 0.930 . S
C811 C813 1.400 . S
C811 C814 1.386 . S
C811 H823 0.930 . S
N812 C805 1.377 . S
N812 C813 1.321 . S
N812 Eu815 2.609 . S
C813 C811 1.400 . S
C813 N812 1.321 . S
C813 H820 0.930 . S
C814 C809 1.395 . S
C814 C811 1.386 . S
C814 H833 0.930 . S
Eu815 N812 2.609 . S
Eu815 N816 2.657 . S
Eu815 O849 2.386 . S
Eu815 O850 2.432 . S
Eu815 O854 2.558 . S
Eu815 O855 2.612 1_655 S
Eu815 O857 2.339 1_655 S
Eu815 O858 2.563 1_655 S
Eu815 O859 2.419 . S
Eu815 C879 2.848 . S
N816 C808 1.362 . S
N816 Eu815 2.657 . S
N816 C817 1.334 . S
C817 N816 1.334 . S
C817 C819 1.413 . S
C817 H824 0.929 . S
C818 C806 1.392 . S
C818 C819 1.367 . S
C818 H826 0.930 . S
C819 C817 1.413 . S
C819 C818 1.367 . S
C819 H821 0.930 . S
H820 C813 0.930 . S
H821 C819 0.930 . S
H822 C810 0.930 . S
H823 C811 0.930 . S
H824 C817 0.929 . S
H825 C839 0.930 . S
H826 C818 0.930 . S
H827 C845 0.930 . S
H828 C836 0.929 . S
H829 C843 0.930 . S
H830 C807 0.931 . S
H831 C837 0.930 . S
H832 C870 0.930 . S
H833 C814 0.930 . S
H834 C869 0.931 . S
N835 Eu804 2.657 . S
N835 C836 1.334 . S
N835 C840 1.362 . S
C836 H828 0.929 . S
C836 N835 1.334 . S
C836 C839 1.413 . S
C837 H831 0.930 . S
C837 C838 1.392 . S
C837 C839 1.367 . S
C838 C837 1.392 . S
C838 C840 1.420 . S
C838 C870 1.423 . S
C839 H825 0.930 . S
C839 C836 1.413 . S
C839 C837 1.367 . S
C840 N835 1.362 . S
C840 C838 1.420 . S
C840 C844 1.429 . S
H841 C846 0.930 . S
N842 Eu804 2.609 . S
N842 C844 1.377 . S
N842 C845 1.321 . S
C843 H829 0.930 . S
C843 C845 1.400 . S
C843 C846 1.386 . S
C844 C840 1.429 . S
C844 N842 1.377 . S
C844 C847 1.411 . S
C845 H827 0.930 . S
C845 N842 1.321 . S
C845 C843 1.400 . S
C846 H841 0.930 . S
C846 C843 1.386 . S
C846 C847 1.395 . S
C847 C844 1.411 . S
C847 C846 1.395 . S
C847 C869 1.420 . S
O848 Eu804 2.558 . S
O848 C868 1.257 . S
O849 Eu804 2.609 1_654 S
O849 Eu815 2.386 . S
O849 C860 1.271 1_554 S
O850 Eu815 2.432 . S
O850 C867 1.264 1_554 S
O851 Eu804 2.339 1_655 S
O851 C867 1.254 . S
O852 Eu804 2.563 1_655 S
O852 C860 1.235 . S
O853 Eu804 2.419 . S
O853 C868 1.249 . S
O854 Eu815 2.558 . S
O854 C879 1.257 . S
O855 Eu804 2.380 1_554 S
O855 Eu815 2.612 1_455 S
O855 C871 1.276 . S
O856 Eu804 2.436 . S
O856 C878 1.258 1_556 S
O857 Eu815 2.339 1_455 S
O857 C878 1.254 . S
O858 Eu815 2.563 1_455 S
O858 C871 1.235 . S
O859 Eu815 2.419 . S
O859 C879 1.249 . S
C860 O849 1.271 1_556 S
C860 O852 1.235 . S
C861 C863 1.393 1_455 S
C861 C865 1.395 . S
C861 C868 1.492 . S
C862 C863 1.392 . S
C862 C864 1.386 1_655 S
C863 C861 1.393 1_655 S
C863 C862 1.392 . S
C863 H880 0.930 . S
C864 C862 1.386 1_455 S
C864 C866 1.395 . S
C864 H881 0.930 . S
C865 C861 1.395 . S
C865 C866 1.379 . S
C865 H882 0.930 . S
C866 C864 1.395 . S
C866 C865 1.379 . S
C866 H883 0.930 . S
C867 O850 1.264 1_556 S
C867 O851 1.254 . S
C868 Eu804 2.848 . S
C868 O848 1.257 . S
C868 O853 1.249 . S
C868 C861 1.492 . S
C869 H834 0.931 . S
C869 C847 1.420 . S
C869 C870 1.351 . S
C870 H832 0.930 . S
C870 C838 1.423 . S
C870 C869 1.351 . S
C871 O855 1.276 . S
C871 O858 1.235 . S
C872 C873 1.393 1_655 S
C872 C876 1.395 . S
C872 C879 1.492 . S
C873 C872 1.393 1_455 S
C873 C874 1.392 . S
C873 H884 0.930 . S
C874 C873 1.392 . S
C874 C875 1.386 1_455 S
C875 C874 1.386 1_655 S
C875 C877 1.395 . S
C875 H885 0.930 . S
C876 C872 1.395 . S
C876 C877 1.379 . S
C876 H886 0.930 . S
C877 C875 1.395 . S
C877 C876 1.379 . S
C877 H887 0.930 . S
C878 O856 1.258 1_554 S
C878 O857 1.254 . S
C879 Eu815 2.848 . S
C879 O854 1.257 . S
C879 O859 1.249 . S
C879 C872 1.492 . S
H880 C863 0.930 . S
H881 C864 0.930 . S
H882 C865 0.930 . S
H883 C866 0.930 . S
H884 C873 0.930 . S
H885 C875 0.930 . S
H886 C876 0.930 . S
H887 C877 0.930 . S
Eu888 N919 2.657 . S
Eu888 N926 2.609 . S
Eu888 O932 2.558 . S
Eu888 O933 2.612 . S
Eu888 O935 2.339 . S
Eu888 O936 2.563 . S
Eu888 O937 2.419 . S
Eu888 O939 2.360 1_554 S
Eu888 O940 2.432 . S
Eu888 C952 2.848 . S
C889 C892 1.429 . S
C889 C893 1.411 . S
C889 N896 1.377 . S
C890 C892 1.420 . S
C890 C894 1.423 . S
C890 C902 1.392 . S
C891 C893 1.420 . S
C891 C894 1.351 . S
C891 H914 0.931 . S
C892 C889 1.429 . S
C892 C890 1.420 . S
C892 N900 1.362 . S
C893 C889 1.411 . S
C893 C891 1.420 . S
C893 C898 1.395 . S
C894 C890 1.423 . S
C894 C891 1.351 . S
C894 H906 0.930 . S
C895 C897 1.400 . S
C895 C898 1.386 . S
C895 H907 0.930 . S
N896 C889 1.377 . S
N896 C897 1.321 . S
N896 Eu899 2.609 . S
C897 C895 1.400 . S
C897 N896 1.321 . S
C897 H904 0.930 . S
C898 C893 1.395 . S
C898 C895 1.386 . S
C898 H917 0.930 . S
Eu899 N896 2.609 . S
Eu899 N900 2.657 . S
Eu899 O933 2.380 1_556 S
Eu899 O934 2.432 . S
Eu899 O938 2.558 . S
Eu899 O939 2.625 . S
Eu899 O941 2.339 . S
Eu899 O942 2.563 . S
Eu899 O943 2.419 . S
Eu899 C963 2.848 . S
N900 C892 1.362 . S
N900 Eu899 2.657 . S
N900 C901 1.334 . S
C901 N900 1.334 . S
C901 C903 1.413 . S
C901 H908 0.929 . S
C902 C890 1.392 . S
C902 C903 1.367 . S
C902 H910 0.930 . S
C903 C901 1.413 . S
C903 C902 1.367 . S
C903 H905 0.930 . S
H904 C897 0.930 . S
H905 C903 0.930 . S
H906 C894 0.930 . S
H907 C895 0.930 . S
H908 C901 0.929 . S
H909 C923 0.930 . S
H910 C902 0.930 . S
H911 C929 0.930 . S
H912 C920 0.929 . S
H913 C927 0.930 . S
H914 C891 0.931 . S
H915 C921 0.930 . S
H916 C954 0.930 . S
H917 C898 0.930 . S
H918 C953 0.931 . S
N919 Eu888 2.657 . S
N919 C920 1.334 . S
N919 C924 1.362 . S
C920 H912 0.929 . S
C920 N919 1.334 . S
C920 C923 1.413 . S
C921 H915 0.930 . S
C921 C922 1.392 . S
C921 C923 1.367 . S
C922 C921 1.392 . S
C922 C924 1.420 . S
C922 C954 1.423 . S
C923 H909 0.930 . S
C923 C920 1.413 . S
C923 C921 1.367 . S
C924 N919 1.362 . S
C924 C922 1.420 . S
C924 C928 1.429 . S
H925 C930 0.930 . S
N926 Eu888 2.609 . S
N926 C928 1.377 . S
N926 C929 1.321 . S
C927 H913 0.930 . S
C927 C929 1.400 . S
C927 C930 1.386 . S
C928 C924 1.429 . S
C928 N926 1.377 . S
C928 C931 1.411 . S
C929 H911 0.930 . S
C929 N926 1.321 . S
C929 C927 1.400 . S
C930 H925 0.930 . S
C930 C927 1.386 . S
C930 C931 1.395 . S
C931 C928 1.411 . S
C931 C930 1.395 . S
C931 C953 1.420 . S
O932 Eu888 2.558 . S
O932 C952 1.257 . S
O933 Eu888 2.612 . S
O933 Eu899 2.380 1_554 S
O933 C944 1.276 . S
O934 Eu899 2.432 . S
O934 C951 1.264 1_556 S
O935 Eu888 2.339 . S
O935 C951 1.254 . S
O936 Eu888 2.563 . S
O936 C944 1.235 . S
O937 Eu888 2.419 . S
O937 C952 1.249 . S
O938 Eu899 2.558 . S
O938 C963 1.257 . S
O939 Eu888 2.360 1_556 S
O939 Eu899 2.625 . S
O939 C955 1.293 . S
O940 Eu888 2.432 . S
O940 C962 1.264 1_554 S
O941 Eu899 2.339 . S
O941 C962 1.254 . S
O942 Eu899 2.563 . S
O942 C955 1.235 . S
O943 Eu899 2.419 . S
O943 C963 1.249 . S
C944 O933 1.276 . S
C944 O936 1.235 . S
C945 C947 1.393 . S
C945 C949 1.395 . S
C945 C952 1.492 . S
C946 C947 1.392 . S
C946 C948 1.386 . S
C947 C945 1.393 . S
C947 C946 1.392 . S
C947 H964 0.930 . S
C948 C946 1.386 . S
C948 C950 1.395 . S
C948 H965 0.930 . S
C949 C945 1.395 . S
C949 C950 1.379 . S
C949 H966 0.930 . S
C950 C948 1.395 . S
C950 C949 1.379 . S
C950 H967 0.930 . S
C951 O934 1.264 1_554 S
C951 O935 1.254 . S
C952 Eu888 2.848 . S
C952 O932 1.257 . S
C952 O937 1.249 . S
C952 C945 1.492 . S
C953 H918 0.931 . S
C953 C931 1.420 . S
C953 C954 1.351 . S
C954 H916 0.930 . S
C954 C922 1.423 . S
C954 C953 1.351 . S
C955 O939 1.293 . S
C955 O942 1.235 . S
C956 C957 1.393 . S
C956 C960 1.395 . S
C956 C963 1.492 . S
C957 C956 1.393 . S
C957 C958 1.392 . S
C957 H968 0.930 . S
C958 C957 1.392 . S
C958 C959 1.386 . S
C959 C958 1.386 . S
C959 C961 1.395 . S
C959 H969 0.930 . S
C960 C956 1.395 . S
C960 C961 1.379 . S
C960 H970 0.930 . S
C961 C959 1.395 . S
C961 C960 1.379 . S
C961 H971 0.930 . S
C962 O940 1.264 1_556 S
C962 O941 1.254 . S
C963 Eu899 2.848 . S
C963 O938 1.257 . S
C963 O943 1.249 . S
C963 C956 1.492 . S
H964 C947 0.930 . S
H965 C948 0.930 . S
H966 C949 0.930 . S
H967 C950 0.930 . S
H968 C957 0.930 . S
H969 C959 0.930 . S
H970 C960 0.930 . S
H971 C961 0.930 . S
Eu972 N1003 2.657 . S
Eu972 N1010 2.609 . S
Eu972 O1016 2.558 . S
Eu972 O1017 2.612 . S
Eu972 O1019 2.339 . S
Eu972 O1020 2.563 . S
Eu972 O1021 2.419 . S
Eu972 O1023 2.380 . S
Eu972 O1024 2.432 . S
Eu972 C1036 2.848 . S
C973 C976 1.429 . S
C973 C977 1.411 . S
C973 N980 1.377 . S
C974 C976 1.420 . S
C974 C978 1.423 . S
C974 C986 1.392 . S
C975 C977 1.420 . S
C975 C978 1.351 . S
C975 H998 0.931 . S
C976 C973 1.429 . S
C976 C974 1.420 . S
C976 N984 1.362 . S
C977 C973 1.411 . S
C977 C975 1.420 . S
C977 C982 1.395 . S
C978 C974 1.423 . S
C978 C975 1.351 . S
C978 H990 0.930 . S
C979 C981 1.400 . S
C979 C982 1.386 . S
C979 H991 0.930 . S
N980 C973 1.377 . S
N980 C981 1.321 . S
N980 Eu983 2.609 . S
C981 C979 1.400 . S
C981 N980 1.321 . S
C981 H988 0.930 . S
C982 C977 1.395 . S
C982 C979 1.386 . S
C982 H1001 0.930 . S
Eu983 N980 2.609 . S
Eu983 N984 2.657 . S
Eu983 O1017 2.380 . S
Eu983 O1018 2.432 . S
Eu983 O1022 2.558 . S
Eu983 O1023 2.612 . S
Eu983 O1025 2.339 . S
Eu983 O1026 2.563 . S
Eu983 O1027 2.419 . S
Eu983 C1047 2.848 . S
N984 C976 1.362 . S
N984 Eu983 2.657 . S
N984 C985 1.334 . S
C985 N984 1.334 . S
C985 C987 1.413 . S
C985 H992 0.929 . S
C986 C974 1.392 . S
C986 C987 1.367 . S
C986 H994 0.930 . S
C987 C985 1.413 . S
C987 C986 1.367 . S
C987 H989 0.930 . S
H988 C981 0.930 . S
H989 C987 0.930 . S
H990 C978 0.930 . S
H991 C979 0.930 . S
H992 C985 0.929 . S
H993 C1007 0.930 . S
H994 C986 0.930 . S
H995 C1013 0.930 . S
H996 C1004 0.929 . S
H997 C1011 0.930 . S
H998 C975 0.931 . S
H999 C1005 0.930 . S
H1000 C1038 0.930 . S
H1001 C982 0.930 . S
H1002 C1037 0.931 . S
N1003 Eu972 2.657 . S
N1003 C1004 1.334 . S
N1003 C1008 1.362 . S
C1004 H996 0.929 . S
C1004 N1003 1.334 . S
C1004 C1007 1.413 . S
C1005 H999 0.930 . S
C1005 C1006 1.392 . S
C1005 C1007 1.367 . S
C1006 C1005 1.392 . S
C1006 C1008 1.420 . S
C1006 C1038 1.423 . S
C1007 H993 0.930 . S
C1007 C1004 1.413 . S
C1007 C1005 1.367 . S
C1008 N1003 1.362 . S
C1008 C1006 1.420 . S
C1008 C1012 1.429 . S
H1009 C1014 0.930 . S
N1010 Eu972 2.609 . S
N1010 C1012 1.377 . S
N1010 C1013 1.321 . S
C1011 H997 0.930 . S
C1011 C1013 1.400 . S
C1011 C1014 1.386 . S
C1012 C1008 1.429 . S
C1012 N1010 1.377 . S
C1012 C1015 1.411 . S
C1013 H995 0.930 . S
C1013 N1010 1.321 . S
C1013 C1011 1.400 . S
C1014 H1009 0.930 . S
C1014 C1011 1.386 . S
C1014 C1015 1.395 . S
C1015 C1012 1.411 . S
C1015 C1014 1.395 . S
C1015 C1037 1.420 . S
O1016 Eu972 2.558 . S
O1016 C1036 1.257 . S
O1017 Eu972 2.612 . S
O1017 Eu983 2.380 . S
O1017 C1028 1.276 . S
O1018 Eu983 2.432 . S
O1018 C1035 1.264 . S
O1019 Eu972 2.339 . S
O1019 C1035 1.254 . S
O1020 Eu972 2.563 . S
O1020 C1028 1.235 . S
O1021 Eu972 2.419 . S
O1021 C1036 1.249 . S
O1022 Eu983 2.558 . S
O1022 C1047 1.257 . S
O1023 Eu972 2.380 . S
O1023 Eu983 2.612 . S
O1023 C1039 1.276 . S
O1024 Eu972 2.432 . S
O1024 C1046 1.264 . S
O1025 Eu983 2.339 . S
O1025 C1046 1.254 . S
O1026 Eu983 2.563 . S
O1026 C1039 1.235 . S
O1027 Eu983 2.419 . S
O1027 C1047 1.249 . S
C1028 O1017 1.276 . S
C1028 O1020 1.235 . S
C1029 C1031 1.393 . S
C1029 C1033 1.395 . S
C1029 C1036 1.492 . S
C1030 C1031 1.392 . S
C1030 C1032 1.386 . S
C1031 C1029 1.393 . S
C1031 C1030 1.392 . S
C1031 H1048 0.930 . S
C1032 C1030 1.386 . S
C1032 C1034 1.395 . S
C1032 H1049 0.930 . S
C1033 C1029 1.395 . S
C1033 C1034 1.379 . S
C1033 H1050 0.930 . S
C1034 C1032 1.395 . S
C1034 C1033 1.379 . S
C1034 H1051 0.930 . S
C1035 O1018 1.264 . S
C1035 O1019 1.254 . S
C1036 Eu972 2.848 . S
C1036 O1016 1.257 . S
C1036 O1021 1.249 . S
C1036 C1029 1.492 . S
C1037 H1002 0.931 . S
C1037 C1015 1.420 . S
C1037 C1038 1.351 . S
C1038 H1000 0.930 . S
C1038 C1006 1.423 . S
C1038 C1037 1.351 . S
C1039 O1023 1.276 . S
C1039 O1026 1.235 . S
C1040 C1041 1.393 . S
C1040 C1044 1.395 . S
C1040 C1047 1.492 . S
C1041 C1040 1.393 . S
C1041 C1042 1.392 . S
C1041 H1052 0.930 . S
C1042 C1041 1.392 . S
C1042 C1043 1.386 . S
C1043 C1042 1.386 . S
C1043 C1045 1.395 . S
C1043 H1053 0.930 . S
C1044 C1040 1.395 . S
C1044 C1045 1.379 . S
C1044 H1054 0.930 . S
C1045 C1043 1.395 . S
C1045 C1044 1.379 . S
C1045 H1055 0.930 . S
C1046 O1024 1.264 . S
C1046 O1025 1.254 . S
C1047 Eu983 2.848 . S
C1047 O1022 1.257 . S
C1047 O1027 1.249 . S
C1047 C1040 1.492 . S
H1048 C1031 0.930 . S
H1049 C1032 0.930 . S
H1050 C1033 0.930 . S
H1051 C1034 0.930 . S
H1052 C1041 0.930 . S
H1053 C1043 0.930 . S
H1054 C1044 0.930 . S
H1055 C1045 0.930 . S
Eu1056 N1087 2.657 . S
Eu1056 N1094 2.609 . S
Eu1056 O1100 2.558 . S
Eu1056 O1101 2.612 . S
Eu1056 O1103 2.339 . S
Eu1056 O1104 2.563 . S
Eu1056 O1105 2.419 . S
Eu1056 O1107 2.380 . S
Eu1056 O1108 2.432 . S
Eu1056 C1120 2.848 . S
C1057 C1060 1.429 . S
C1057 C1061 1.411 . S
C1057 N1064 1.377 . S
C1058 C1060 1.420 . S
C1058 C1062 1.423 . S
C1058 C1070 1.392 . S
C1059 C1061 1.420 . S
C1059 C1062 1.351 . S
C1059 H1082 0.931 . S
C1060 C1057 1.429 . S
C1060 C1058 1.420 . S
C1060 N1068 1.362 . S
C1061 C1057 1.411 . S
C1061 C1059 1.420 . S
C1061 C1066 1.395 . S
C1062 C1058 1.423 . S
C1062 C1059 1.351 . S
C1062 H1074 0.930 . S
C1063 C1065 1.400 . S
C1063 C1066 1.386 . S
C1063 H1075 0.930 . S
N1064 C1057 1.377 . S
N1064 C1065 1.321 . S
N1064 Eu1067 2.609 . S
C1065 C1063 1.400 . S
C1065 N1064 1.321 . S
C1065 H1072 0.930 . S
C1066 C1061 1.395 . S
C1066 C1063 1.386 . S
C1066 H1085 0.930 . S
Eu1067 N1064 2.609 . S
Eu1067 N1068 2.657 . S
Eu1067 O1101 2.380 . S
Eu1067 O1102 2.432 . S
Eu1067 O1106 2.558 . S
Eu1067 O1107 2.612 . S
Eu1067 O1109 2.339 . S
Eu1067 O1110 2.563 . S
Eu1067 O1111 2.419 . S
Eu1067 C1131 2.848 . S
N1068 C1060 1.362 . S
N1068 Eu1067 2.657 . S
N1068 C1069 1.334 . S
C1069 N1068 1.334 . S
C1069 C1071 1.413 . S
C1069 H1076 0.929 . S
C1070 C1058 1.392 . S
C1070 C1071 1.367 . S
C1070 H1078 0.930 . S
C1071 C1069 1.413 . S
C1071 C1070 1.367 . S
C1071 H1073 0.930 . S
H1072 C1065 0.930 . S
H1073 C1071 0.930 . S
H1074 C1062 0.930 . S
H1075 C1063 0.930 . S
H1076 C1069 0.929 . S
H1077 C1091 0.930 . S
H1078 C1070 0.930 . S
H1079 C1097 0.930 . S
H1080 C1088 0.929 . S
H1081 C1095 0.930 . S
H1082 C1059 0.931 . S
H1083 C1089 0.930 . S
H1084 C1122 0.930 . S
H1085 C1066 0.930 . S
H1086 C1121 0.931 . S
N1087 Eu1056 2.657 . S
N1087 C1088 1.334 . S
N1087 C1092 1.362 . S
C1088 H1080 0.929 . S
C1088 N1087 1.334 . S
C1088 C1091 1.413 . S
C1089 H1083 0.930 . S
C1089 C1090 1.392 . S
C1089 C1091 1.367 . S
C1090 C1089 1.392 . S
C1090 C1092 1.420 . S
C1090 C1122 1.423 . S
C1091 H1077 0.930 . S
C1091 C1088 1.413 . S
C1091 C1089 1.367 . S
C1092 N1087 1.362 . S
C1092 C1090 1.420 . S
C1092 C1096 1.429 . S
H1093 C1098 0.930 . S
N1094 Eu1056 2.609 . S
N1094 C1096 1.377 . S
N1094 C1097 1.321 . S
C1095 H1081 0.930 . S
C1095 C1097 1.400 . S
C1095 C1098 1.386 . S
C1096 C1092 1.429 . S
C1096 N1094 1.377 . S
C1096 C1099 1.411 . S
C1097 H1079 0.930 . S
C1097 N1094 1.321 . S
C1097 C1095 1.400 . S
C1098 H1093 0.930 . S
C1098 C1095 1.386 . S
C1098 C1099 1.395 . S
C1099 C1096 1.411 . S
C1099 C1098 1.395 . S
C1099 C1121 1.420 . S
O1100 Eu1056 2.558 . S
O1100 C1120 1.257 . S
O1101 Eu1056 2.612 . S
O1101 Eu1067 2.380 . S
O1101 C1112 1.276 . S
O1102 Eu1067 2.432 . S
O1102 C1119 1.264 . S
O1103 Eu1056 2.339 . S
O1103 C1119 1.254 . S
O1104 Eu1056 2.563 . S
O1104 C1112 1.235 . S
O1105 Eu1056 2.419 . S
O1105 C1120 1.249 . S
O1106 Eu1067 2.558 . S
O1106 C1131 1.257 . S
O1107 Eu1056 2.380 . S
O1107 Eu1067 2.612 . S
O1107 C1123 1.276 . S
O1108 Eu1056 2.432 . S
O1108 C1130 1.264 . S
O1109 Eu1067 2.339 . S
O1109 C1130 1.254 . S
O1110 Eu1067 2.563 . S
O1110 C1123 1.235 . S
O1111 Eu1067 2.419 . S
O1111 C1131 1.249 . S
C1112 O1101 1.276 . S
C1112 O1104 1.235 . S
C1113 C1115 1.393 . S
C1113 C1117 1.395 . S
C1113 C1120 1.492 . S
C1114 C1115 1.392 . S
C1114 C1116 1.386 . S
C1115 C1113 1.393 . S
C1115 C1114 1.392 . S
C1115 H1132 0.930 . S
C1116 C1114 1.386 . S
C1116 C1118 1.395 . S
C1116 H1133 0.930 . S
C1117 C1113 1.395 . S
C1117 C1118 1.379 . S
C1117 H1134 0.930 . S
C1118 C1116 1.395 . S
C1118 C1117 1.379 . S
C1118 H1135 0.930 . S
C1119 O1102 1.264 . S
C1119 O1103 1.254 . S
C1120 Eu1056 2.848 . S
C1120 O1100 1.257 . S
C1120 O1105 1.249 . S
C1120 C1113 1.492 . S
C1121 H1086 0.931 . S
C1121 C1099 1.420 . S
C1121 C1122 1.351 . S
C1122 H1084 0.930 . S
C1122 C1090 1.423 . S
C1122 C1121 1.351 . S
C1123 O1107 1.276 . S
C1123 O1110 1.235 . S
C1124 C1125 1.393 . S
C1124 C1128 1.395 . S
C1124 C1131 1.492 . S
C1125 C1124 1.393 . S
C1125 C1126 1.392 . S
C1125 H1136 0.930 . S
C1126 C1125 1.392 . S
C1126 C1127 1.386 . S
C1127 C1126 1.386 . S
C1127 C1129 1.395 . S
C1127 H1137 0.930 . S
C1128 C1124 1.395 . S
C1128 C1129 1.379 . S
C1128 H1138 0.930 . S
C1129 C1127 1.395 . S
C1129 C1128 1.379 . S
C1129 H1139 0.930 . S
C1130 O1108 1.264 . S
C1130 O1109 1.254 . S
C1131 Eu1067 2.848 . S
C1131 O1106 1.257 . S
C1131 O1111 1.249 . S
C1131 C1124 1.492 . S
H1132 C1115 0.930 . S
H1133 C1116 0.930 . S
H1134 C1117 0.930 . S
H1135 C1118 0.930 . S
H1136 C1125 0.930 . S
H1137 C1127 0.930 . S
H1138 C1128 0.930 . S
H1139 C1129 0.930 . S
Eu1140 N1171 2.657 . S
Eu1140 N1178 2.609 . S
Eu1140 O1184 2.558 . S
Eu1140 O1185 2.612 . S
Eu1140 O1187 2.339 . S
Eu1140 O1188 2.563 . S
Eu1140 O1189 2.419 . S
Eu1140 O1191 2.380 . S
Eu1140 O1192 2.432 . S
Eu1140 C1204 2.848 . S
C1141 C1144 1.429 . S
C1141 C1145 1.411 . S
C1141 N1148 1.377 . S
C1142 C1144 1.420 . S
C1142 C1146 1.423 . S
C1142 C1154 1.392 . S
C1143 C1145 1.420 . S
C1143 C1146 1.351 . S
C1143 H1166 0.931 . S
C1144 C1141 1.429 . S
C1144 C1142 1.420 . S
C1144 N1152 1.362 . S
C1145 C1141 1.411 . S
C1145 C1143 1.420 . S
C1145 C1150 1.395 . S
C1146 C1142 1.423 . S
C1146 C1143 1.351 . S
C1146 H1158 0.930 . S
C1147 C1149 1.400 . S
C1147 C1150 1.386 . S
C1147 H1159 0.930 . S
N1148 C1141 1.377 . S
N1148 C1149 1.321 . S
N1148 Eu1151 2.609 . S
C1149 C1147 1.400 . S
C1149 N1148 1.321 . S
C1149 H1156 0.930 . S
C1150 C1145 1.395 . S
C1150 C1147 1.386 . S
C1150 H1169 0.930 . S
Eu1151 N1148 2.609 . S
Eu1151 N1152 2.657 . S
Eu1151 O1185 2.380 . S
Eu1151 O1186 2.432 . S
Eu1151 O1190 2.558 . S
Eu1151 O1191 2.612 . S
Eu1151 O1193 2.339 . S
Eu1151 O1194 2.563 . S
Eu1151 O1195 2.419 . S
Eu1151 C1215 2.848 . S
N1152 C1144 1.362 . S
N1152 Eu1151 2.657 . S
N1152 C1153 1.334 . S
C1153 N1152 1.334 . S
C1153 C1155 1.413 . S
C1153 H1160 0.929 . S
C1154 C1142 1.392 . S
C1154 C1155 1.367 . S
C1154 H1162 0.930 . S
C1155 C1153 1.413 . S
C1155 C1154 1.367 . S
C1155 H1157 0.930 . S
H1156 C1149 0.930 . S
H1157 C1155 0.930 . S
H1158 C1146 0.930 . S
H1159 C1147 0.930 . S
H1160 C1153 0.929 . S
H1161 C1175 0.930 . S
H1162 C1154 0.930 . S
H1163 C1181 0.930 . S
H1164 C1172 0.929 . S
H1165 C1179 0.930 . S
H1166 C1143 0.931 . S
H1167 C1173 0.930 . S
H1168 C1206 0.930 . S
H1169 C1150 0.930 . S
H1170 C1205 0.931 . S
N1171 Eu1140 2.657 . S
N1171 C1172 1.334 . S
N1171 C1176 1.362 . S
C1172 H1164 0.929 . S
C1172 N1171 1.334 . S
C1172 C1175 1.413 . S
C1173 H1167 0.930 . S
C1173 C1174 1.392 . S
C1173 C1175 1.367 . S
C1174 C1173 1.392 . S
C1174 C1176 1.420 . S
C1174 C1206 1.423 . S
C1175 H1161 0.930 . S
C1175 C1172 1.413 . S
C1175 C1173 1.367 . S
C1176 N1171 1.362 . S
C1176 C1174 1.420 . S
C1176 C1180 1.429 . S
H1177 C1182 0.930 . S
N1178 Eu1140 2.609 . S
N1178 C1180 1.377 . S
N1178 C1181 1.321 . S
C1179 H1165 0.930 . S
C1179 C1181 1.400 . S
C1179 C1182 1.386 . S
C1180 C1176 1.429 . S
C1180 N1178 1.377 . S
C1180 C1183 1.411 . S
C1181 H1163 0.930 . S
C1181 N1178 1.321 . S
C1181 C1179 1.400 . S
C1182 H1177 0.930 . S
C1182 C1179 1.386 . S
C1182 C1183 1.395 . S
C1183 C1180 1.411 . S
C1183 C1182 1.395 . S
C1183 C1205 1.420 . S
O1184 Eu1140 2.558 . S
O1184 C1204 1.257 . S
O1185 Eu1140 2.612 . S
O1185 Eu1151 2.380 . S
O1185 C1196 1.276 . S
O1186 Eu1151 2.432 . S
O1186 C1203 1.264 . S
O1187 Eu1140 2.339 . S
O1187 C1203 1.254 . S
O1188 Eu1140 2.563 . S
O1188 C1196 1.235 . S
O1189 Eu1140 2.419 . S
O1189 C1204 1.249 . S
O1190 Eu1151 2.558 . S
O1190 C1215 1.257 . S
O1191 Eu1140 2.380 . S
O1191 Eu1151 2.612 . S
O1191 C1207 1.276 . S
O1192 Eu1140 2.432 . S
O1192 C1214 1.264 . S
O1193 Eu1151 2.339 . S
O1193 C1214 1.254 . S
O1194 Eu1151 2.563 . S
O1194 C1207 1.235 . S
O1195 Eu1151 2.419 . S
O1195 C1215 1.249 . S
C1196 O1185 1.276 . S
C1196 O1188 1.235 . S
C1197 C1199 1.393 . S
C1197 C1201 1.395 . S
C1197 C1204 1.492 . S
C1198 C1199 1.392 . S
C1198 C1200 1.386 . S
C1199 C1197 1.393 . S
C1199 C1198 1.392 . S
C1199 H1216 0.930 . S
C1200 C1198 1.386 . S
C1200 C1202 1.395 . S
C1200 H1217 0.930 . S
C1201 C1197 1.395 . S
C1201 C1202 1.379 . S
C1201 H1218 0.930 . S
C1202 C1200 1.395 . S
C1202 C1201 1.379 . S
C1202 H1219 0.930 . S
C1203 O1186 1.264 . S
C1203 O1187 1.254 . S
C1204 Eu1140 2.848 . S
C1204 O1184 1.257 . S
C1204 O1189 1.249 . S
C1204 C1197 1.492 . S
C1205 H1170 0.931 . S
C1205 C1183 1.420 . S
C1205 C1206 1.351 . S
C1206 H1168 0.930 . S
C1206 C1174 1.423 . S
C1206 C1205 1.351 . S
C1207 O1191 1.276 . S
C1207 O1194 1.235 . S
C1208 C1209 1.393 . S
C1208 C1212 1.395 . S
C1208 C1215 1.492 . S
C1209 C1208 1.393 . S
C1209 C1210 1.392 . S
C1209 H1220 0.930 . S
C1210 C1209 1.392 . S
C1210 C1211 1.386 . S
C1211 C1210 1.386 . S
C1211 C1213 1.395 . S
C1211 H1221 0.930 . S
C1212 C1208 1.395 . S
C1212 C1213 1.379 . S
C1212 H1222 0.930 . S
C1213 C1211 1.395 . S
C1213 C1212 1.379 . S
C1213 H1223 0.930 . S
C1214 O1192 1.264 . S
C1214 O1193 1.254 . S
C1215 Eu1151 2.848 . S
C1215 O1190 1.257 . S
C1215 O1195 1.249 . S
C1215 C1208 1.492 . S
H1216 C1199 0.930 . S
H1217 C1200 0.930 . S
H1218 C1201 0.930 . S
H1219 C1202 0.930 . S
H1220 C1209 0.930 . S
H1221 C1211 0.930 . S
H1222 C1212 0.930 . S
H1223 C1213 0.930 . S
Eu1224 N1255 2.657 . S
Eu1224 N1262 2.609 . S
Eu1224 O1268 2.558 . S
Eu1224 O1269 2.612 . S
Eu1224 O1271 2.339 . S
Eu1224 O1272 2.563 . S
Eu1224 O1273 2.419 . S
Eu1224 O1275 2.380 . S
Eu1224 O1276 2.432 . S
Eu1224 C1288 2.848 . S
C1225 C1228 1.429 . S
C1225 C1229 1.411 . S
C1225 N1232 1.377 . S
C1226 C1228 1.420 . S
C1226 C1230 1.423 . S
C1226 C1238 1.392 . S
C1227 C1229 1.420 . S
C1227 C1230 1.351 . S
C1227 H1250 0.931 . S
C1228 C1225 1.429 . S
C1228 C1226 1.420 . S
C1228 N1236 1.362 . S
C1229 C1225 1.411 . S
C1229 C1227 1.420 . S
C1229 C1234 1.395 . S
C1230 C1226 1.423 . S
C1230 C1227 1.351 . S
C1230 H1242 0.930 . S
C1231 C1233 1.400 . S
C1231 C1234 1.386 . S
C1231 H1243 0.930 . S
N1232 C1225 1.377 . S
N1232 C1233 1.321 . S
N1232 Eu1235 2.609 . S
C1233 C1231 1.400 . S
C1233 N1232 1.321 . S
C1233 H1240 0.930 . S
C1234 C1229 1.395 . S
C1234 C1231 1.386 . S
C1234 H1253 0.930 . S
Eu1235 N1232 2.609 . S
Eu1235 N1236 2.657 . S
Eu1235 O1269 2.380 . S
Eu1235 O1270 2.432 . S
Eu1235 O1274 2.558 . S
Eu1235 O1275 2.612 . S
Eu1235 O1277 2.339 . S
Eu1235 O1278 2.563 . S
Eu1235 O1279 2.419 . S
Eu1235 C1299 2.848 . S
N1236 C1228 1.362 . S
N1236 Eu1235 2.657 . S
N1236 C1237 1.334 . S
C1237 N1236 1.334 . S
C1237 C1239 1.413 . S
C1237 H1244 0.929 . S
C1238 C1226 1.392 . S
C1238 C1239 1.367 . S
C1238 H1246 0.930 . S
C1239 C1237 1.413 . S
C1239 C1238 1.367 . S
C1239 H1241 0.930 . S
H1240 C1233 0.930 . S
H1241 C1239 0.930 . S
H1242 C1230 0.930 . S
H1243 C1231 0.930 . S
H1244 C1237 0.929 . S
H1245 C1259 0.930 . S
H1246 C1238 0.930 . S
H1247 C1265 0.930 . S
H1248 C1256 0.929 . S
H1249 C1263 0.930 . S
H1250 C1227 0.931 . S
H1251 C1257 0.930 . S
H1252 C1290 0.930 . S
H1253 C1234 0.930 . S
H1254 C1289 0.931 . S
N1255 Eu1224 2.657 . S
N1255 C1256 1.334 . S
N1255 C1260 1.362 . S
C1256 H1248 0.929 . S
C1256 N1255 1.334 . S
C1256 C1259 1.413 . S
C1257 H1251 0.930 . S
C1257 C1258 1.392 . S
C1257 C1259 1.367 . S
C1258 C1257 1.392 . S
C1258 C1260 1.420 . S
C1258 C1290 1.423 . S
C1259 H1245 0.930 . S
C1259 C1256 1.413 . S
C1259 C1257 1.367 . S
C1260 N1255 1.362 . S
C1260 C1258 1.420 . S
C1260 C1264 1.429 . S
H1261 C1266 0.930 . S
N1262 Eu1224 2.609 . S
N1262 C1264 1.377 . S
N1262 C1265 1.321 . S
C1263 H1249 0.930 . S
C1263 C1265 1.400 . S
C1263 C1266 1.386 . S
C1264 C1260 1.429 . S
C1264 N1262 1.377 . S
C1264 C1267 1.411 . S
C1265 H1247 0.930 . S
C1265 N1262 1.321 . S
C1265 C1263 1.400 . S
C1266 H1261 0.930 . S
C1266 C1263 1.386 . S
C1266 C1267 1.395 . S
C1267 C1264 1.411 . S
C1267 C1266 1.395 . S
C1267 C1289 1.420 . S
O1268 Eu1224 2.558 . S
O1268 C1288 1.257 . S
O1269 Eu1224 2.612 . S
O1269 Eu1235 2.380 . S
O1269 C1280 1.276 . S
O1270 Eu1235 2.432 . S
O1270 C1287 1.264 . S
O1271 Eu1224 2.339 . S
O1271 C1287 1.254 . S
O1272 Eu1224 2.563 . S
O1272 C1280 1.235 . S
O1273 Eu1224 2.419 . S
O1273 C1288 1.249 . S
O1274 Eu1235 2.558 . S
O1274 C1299 1.257 . S
O1275 Eu1224 2.380 . S
O1275 Eu1235 2.612 . S
O1275 C1291 1.276 . S
O1276 Eu1224 2.432 . S
O1276 C1298 1.264 . S
O1277 Eu1235 2.339 . S
O1277 C1298 1.254 . S
O1278 Eu1235 2.563 . S
O1278 C1291 1.235 . S
O1279 Eu1235 2.419 . S
O1279 C1299 1.249 . S
C1280 O1269 1.276 . S
C1280 O1272 1.235 . S
C1281 C1283 1.393 . S
C1281 C1285 1.395 . S
C1281 C1288 1.492 . S
C1282 C1283 1.392 . S
C1282 C1284 1.386 . S
C1283 C1281 1.393 . S
C1283 C1282 1.392 . S
C1283 H1300 0.930 . S
C1284 C1282 1.386 . S
C1284 C1286 1.395 . S
C1284 H1301 0.930 . S
C1285 C1281 1.395 . S
C1285 C1286 1.379 . S
C1285 H1302 0.930 . S
C1286 C1284 1.395 . S
C1286 C1285 1.379 . S
C1286 H1303 0.930 . S
C1287 O1270 1.264 . S
C1287 O1271 1.254 . S
C1288 Eu1224 2.848 . S
C1288 O1268 1.257 . S
C1288 O1273 1.249 . S
C1288 C1281 1.492 . S
C1289 H1254 0.931 . S
C1289 C1267 1.420 . S
C1289 C1290 1.351 . S
C1290 H1252 0.930 . S
C1290 C1258 1.423 . S
C1290 C1289 1.351 . S
C1291 O1275 1.276 . S
C1291 O1278 1.235 . S
C1292 C1293 1.393 . S
C1292 C1296 1.395 . S
C1292 C1299 1.492 . S
C1293 C1292 1.393 . S
C1293 C1294 1.392 . S
C1293 H1304 0.930 . S
C1294 C1293 1.392 . S
C1294 C1295 1.386 . S
C1295 C1294 1.386 . S
C1295 C1297 1.395 . S
C1295 H1305 0.930 . S
C1296 C1292 1.395 . S
C1296 C1297 1.379 . S
C1296 H1306 0.930 . S
C1297 C1295 1.395 . S
C1297 C1296 1.379 . S
C1297 H1307 0.930 . S
C1298 O1276 1.264 . S
C1298 O1277 1.254 . S
C1299 Eu1235 2.848 . S
C1299 O1274 1.257 . S
C1299 O1279 1.249 . S
C1299 C1292 1.492 . S
H1300 C1283 0.930 . S
H1301 C1284 0.930 . S
H1302 C1285 0.930 . S
H1303 C1286 0.930 . S
H1304 C1293 0.930 . S
H1305 C1295 0.930 . S
H1306 C1296 0.930 . S
H1307 C1297 0.930 . S
Eu1308 N1339 2.657 . S
Eu1308 N1346 2.609 . S
Eu1308 O1352 2.558 . S
Eu1308 O1353 2.612 . S
Eu1308 O1355 2.339 . S
Eu1308 O1356 2.563 . S
Eu1308 O1357 2.419 . S
Eu1308 O1359 2.380 . S
Eu1308 O1360 2.432 . S
Eu1308 C1372 2.848 . S
C1309 C1312 1.429 . S
C1309 C1313 1.411 . S
C1309 N1316 1.377 . S
C1310 C1312 1.420 . S
C1310 C1314 1.423 . S
C1310 C1322 1.392 . S
C1311 C1313 1.420 . S
C1311 C1314 1.351 . S
C1311 H1334 0.931 . S
C1312 C1309 1.429 . S
C1312 C1310 1.420 . S
C1312 N1320 1.362 . S
C1313 C1309 1.411 . S
C1313 C1311 1.420 . S
C1313 C1318 1.395 . S
C1314 C1310 1.423 . S
C1314 C1311 1.351 . S
C1314 H1326 0.930 . S
C1315 C1317 1.400 . S
C1315 C1318 1.386 . S
C1315 H1327 0.930 . S
N1316 C1309 1.377 . S
N1316 C1317 1.321 . S
N1316 Eu1319 2.609 . S
C1317 C1315 1.400 . S
C1317 N1316 1.321 . S
C1317 H1324 0.930 . S
C1318 C1313 1.395 . S
C1318 C1315 1.386 . S
C1318 H1337 0.930 . S
Eu1319 N1316 2.609 . S
Eu1319 N1320 2.657 . S
Eu1319 O1353 2.380 . S
Eu1319 O1354 2.432 . S
Eu1319 O1358 2.558 . S
Eu1319 O1359 2.612 . S
Eu1319 O1361 2.339 . S
Eu1319 O1362 2.563 . S
Eu1319 O1363 2.419 . S
Eu1319 C1383 2.848 . S
N1320 C1312 1.362 . S
N1320 Eu1319 2.657 . S
N1320 C1321 1.334 . S
C1321 N1320 1.334 . S
C1321 C1323 1.413 . S
C1321 H1328 0.929 . S
C1322 C1310 1.392 . S
C1322 C1323 1.367 . S
C1322 H1330 0.930 . S
C1323 C1321 1.413 . S
C1323 C1322 1.367 . S
C1323 H1325 0.930 . S
H1324 C1317 0.930 . S
H1325 C1323 0.930 . S
H1326 C1314 0.930 . S
H1327 C1315 0.930 . S
H1328 C1321 0.929 . S
H1329 C1343 0.930 . S
H1330 C1322 0.930 . S
H1331 C1349 0.930 . S
H1332 C1340 0.929 . S
H1333 C1347 0.930 . S
H1334 C1311 0.931 . S
H1335 C1341 0.930 . S
H1336 C1374 0.930 . S
H1337 C1318 0.930 . S
H1338 C1373 0.931 . S
N1339 Eu1308 2.657 . S
N1339 C1340 1.334 . S
N1339 C1344 1.362 . S
C1340 H1332 0.929 . S
C1340 N1339 1.334 . S
C1340 C1343 1.413 . S
C1341 H1335 0.930 . S
C1341 C1342 1.392 . S
C1341 C1343 1.367 . S
C1342 C1341 1.392 . S
C1342 C1344 1.420 . S
C1342 C1374 1.423 . S
C1343 H1329 0.930 . S
C1343 C1340 1.413 . S
C1343 C1341 1.367 . S
C1344 N1339 1.362 . S
C1344 C1342 1.420 . S
C1344 C1348 1.429 . S
H1345 C1350 0.930 . S
N1346 Eu1308 2.609 . S
N1346 C1348 1.377 . S
N1346 C1349 1.321 . S
C1347 H1333 0.930 . S
C1347 C1349 1.400 . S
C1347 C1350 1.386 . S
C1348 C1344 1.429 . S
C1348 N1346 1.377 . S
C1348 C1351 1.411 . S
C1349 H1331 0.930 . S
C1349 N1346 1.321 . S
C1349 C1347 1.400 . S
C1350 H1345 0.930 . S
C1350 C1347 1.386 . S
C1350 C1351 1.395 . S
C1351 C1348 1.411 . S
C1351 C1350 1.395 . S
C1351 C1373 1.420 . S
O1352 Eu1308 2.558 . S
O1352 C1372 1.257 . S
O1353 Eu1308 2.612 . S
O1353 Eu1319 2.380 . S
O1353 C1364 1.276 . S
O1354 Eu1319 2.432 . S
O1354 C1371 1.264 . S
O1355 Eu1308 2.339 . S
O1355 C1371 1.254 . S
O1356 Eu1308 2.563 . S
O1356 C1364 1.235 . S
O1357 Eu1308 2.419 . S
O1357 C1372 1.249 . S
O1358 Eu1319 2.558 . S
O1358 C1383 1.257 . S
O1359 Eu1308 2.380 . S
O1359 Eu1319 2.612 . S
O1359 C1375 1.276 . S
O1360 Eu1308 2.432 . S
O1360 C1382 1.264 . S
O1361 Eu1319 2.339 . S
O1361 C1382 1.254 . S
O1362 Eu1319 2.563 . S
O1362 C1375 1.235 . S
O1363 Eu1319 2.419 . S
O1363 C1383 1.249 . S
C1364 O1353 1.276 . S
C1364 O1356 1.235 . S
C1365 C1367 1.393 . S
C1365 C1369 1.395 . S
C1365 C1372 1.492 . S
C1366 C1367 1.392 . S
C1366 C1368 1.386 . S
C1367 C1365 1.393 . S
C1367 C1366 1.392 . S
C1367 H1384 0.930 . S
C1368 C1366 1.386 . S
C1368 C1370 1.395 . S
C1368 H1385 0.930 . S
C1369 C1365 1.395 . S
C1369 C1370 1.379 . S
C1369 H1386 0.930 . S
C1370 C1368 1.395 . S
C1370 C1369 1.379 . S
C1370 H1387 0.930 . S
C1371 O1354 1.264 . S
C1371 O1355 1.254 . S
C1372 Eu1308 2.848 . S
C1372 O1352 1.257 . S
C1372 O1357 1.249 . S
C1372 C1365 1.492 . S
C1373 H1338 0.931 . S
C1373 C1351 1.420 . S
C1373 C1374 1.351 . S
C1374 H1336 0.930 . S
C1374 C1342 1.423 . S
C1374 C1373 1.351 . S
C1375 O1359 1.276 . S
C1375 O1362 1.235 . S
C1376 C1377 1.393 . S
C1376 C1380 1.395 . S
C1376 C1383 1.492 . S
C1377 C1376 1.393 . S
C1377 C1378 1.392 . S
C1377 H1388 0.930 . S
C1378 C1377 1.392 . S
C1378 C1379 1.386 . S
C1379 C1378 1.386 . S
C1379 C1381 1.395 . S
C1379 H1389 0.930 . S
C1380 C1376 1.395 . S
C1380 C1381 1.379 . S
C1380 H1390 0.930 . S
C1381 C1379 1.395 . S
C1381 C1380 1.379 . S
C1381 H1391 0.930 . S
C1382 O1360 1.264 . S
C1382 O1361 1.254 . S
C1383 Eu1319 2.848 . S
C1383 O1358 1.257 . S
C1383 O1363 1.249 . S
C1383 C1376 1.492 . S
H1384 C1367 0.930 . S
H1385 C1368 0.930 . S
H1386 C1369 0.930 . S
H1387 C1370 0.930 . S
H1388 C1377 0.930 . S
H1389 C1379 0.930 . S
H1390 C1380 0.930 . S
H1391 C1381 0.930 . S
Eu1392 N1423 2.657 . S
Eu1392 N1430 2.609 . S
Eu1392 O1436 2.558 . S
Eu1392 O1437 2.612 . S
Eu1392 O1439 2.339 . S
Eu1392 O1440 2.563 . S
Eu1392 O1441 2.419 . S
Eu1392 O1443 2.380 . S
Eu1392 O1444 2.432 . S
Eu1392 C1456 2.848 . S
C1393 C1396 1.429 . S
C1393 C1397 1.411 . S
C1393 N1400 1.377 . S
C1394 C1396 1.420 . S
C1394 C1398 1.423 . S
C1394 C1406 1.392 . S
C1395 C1397 1.420 . S
C1395 C1398 1.351 . S
C1395 H1418 0.931 . S
C1396 C1393 1.429 . S
C1396 C1394 1.420 . S
C1396 N1404 1.362 . S
C1397 C1393 1.411 . S
C1397 C1395 1.420 . S
C1397 C1402 1.395 . S
C1398 C1394 1.423 . S
C1398 C1395 1.351 . S
C1398 H1410 0.930 . S
C1399 C1401 1.400 . S
C1399 C1402 1.386 . S
C1399 H1411 0.930 . S
N1400 C1393 1.377 . S
N1400 C1401 1.321 . S
N1400 Eu1403 2.609 . S
C1401 C1399 1.400 . S
C1401 N1400 1.321 . S
C1401 H1408 0.930 . S
C1402 C1397 1.395 . S
C1402 C1399 1.386 . S
C1402 H1421 0.930 . S
Eu1403 N1400 2.609 . S
Eu1403 N1404 2.657 . S
Eu1403 O1437 2.380 . S
Eu1403 O1438 2.432 . S
Eu1403 O1442 2.558 . S
Eu1403 O1443 2.612 . S
Eu1403 O1445 2.339 . S
Eu1403 O1446 2.563 . S
Eu1403 O1447 2.419 . S
Eu1403 C1467 2.848 . S
N1404 C1396 1.362 . S
N1404 Eu1403 2.657 . S
N1404 C1405 1.334 . S
C1405 N1404 1.334 . S
C1405 C1407 1.413 . S
C1405 H1412 0.929 . S
C1406 C1394 1.392 . S
C1406 C1407 1.367 . S
C1406 H1414 0.930 . S
C1407 C1405 1.413 . S
C1407 C1406 1.367 . S
C1407 H1409 0.930 . S
H1408 C1401 0.930 . S
H1409 C1407 0.930 . S
H1410 C1398 0.930 . S
H1411 C1399 0.930 . S
H1412 C1405 0.929 . S
H1413 C1427 0.930 . S
H1414 C1406 0.930 . S
H1415 C1433 0.930 . S
H1416 C1424 0.929 . S
H1417 C1431 0.930 . S
H1418 C1395 0.931 . S
H1419 C1425 0.930 . S
H1420 C1458 0.930 . S
H1421 C1402 0.930 . S
H1422 C1457 0.931 . S
N1423 Eu1392 2.657 . S
N1423 C1424 1.334 . S
N1423 C1428 1.362 . S
C1424 H1416 0.929 . S
C1424 N1423 1.334 . S
C1424 C1427 1.413 . S
C1425 H1419 0.930 . S
C1425 C1426 1.392 . S
C1425 C1427 1.367 . S
C1426 C1425 1.392 . S
C1426 C1428 1.420 . S
C1426 C1458 1.423 . S
C1427 H1413 0.930 . S
C1427 C1424 1.413 . S
C1427 C1425 1.367 . S
C1428 N1423 1.362 . S
C1428 C1426 1.420 . S
C1428 C1432 1.429 . S
H1429 C1434 0.930 . S
N1430 Eu1392 2.609 . S
N1430 C1432 1.377 . S
N1430 C1433 1.321 . S
C1431 H1417 0.930 . S
C1431 C1433 1.400 . S
C1431 C1434 1.386 . S
C1432 C1428 1.429 . S
C1432 N1430 1.377 . S
C1432 C1435 1.411 . S
C1433 H1415 0.930 . S
C1433 N1430 1.321 . S
C1433 C1431 1.400 . S
C1434 H1429 0.930 . S
C1434 C1431 1.386 . S
C1434 C1435 1.395 . S
C1435 C1432 1.411 . S
C1435 C1434 1.395 . S
C1435 C1457 1.420 . S
O1436 Eu1392 2.558 . S
O1436 C1456 1.257 . S
O1437 Eu1392 2.612 . S
O1437 Eu1403 2.380 . S
O1437 C1448 1.276 . S
O1438 Eu1403 2.432 . S
O1438 C1455 1.264 . S
O1439 Eu1392 2.339 . S
O1439 C1455 1.254 . S
O1440 Eu1392 2.563 . S
O1440 C1448 1.235 . S
O1441 Eu1392 2.419 . S
O1441 C1456 1.249 . S
O1442 Eu1403 2.558 . S
O1442 C1467 1.257 . S
O1443 Eu1392 2.380 . S
O1443 Eu1403 2.612 . S
O1443 C1459 1.276 . S
O1444 Eu1392 2.432 . S
O1444 C1466 1.264 . S
O1445 Eu1403 2.339 . S
O1445 C1466 1.254 . S
O1446 Eu1403 2.563 . S
O1446 C1459 1.235 . S
O1447 Eu1403 2.419 . S
O1447 C1467 1.249 . S
C1448 O1437 1.276 . S
C1448 O1440 1.235 . S
C1449 C1451 1.393 . S
C1449 C1453 1.395 . S
C1449 C1456 1.492 . S
C1450 C1451 1.392 . S
C1450 C1452 1.386 . S
C1451 C1449 1.393 . S
C1451 C1450 1.392 . S
C1451 H1468 0.930 . S
C1452 C1450 1.386 . S
C1452 C1454 1.395 . S
C1452 H1469 0.930 . S
C1453 C1449 1.395 . S
C1453 C1454 1.379 . S
C1453 H1470 0.930 . S
C1454 C1452 1.395 . S
C1454 C1453 1.379 . S
C1454 H1471 0.930 . S
C1455 O1438 1.264 . S
C1455 O1439 1.254 . S
C1456 Eu1392 2.848 . S
C1456 O1436 1.257 . S
C1456 O1441 1.249 . S
C1456 C1449 1.492 . S
C1457 H1422 0.931 . S
C1457 C1435 1.420 . S
C1457 C1458 1.351 . S
C1458 H1420 0.930 . S
C1458 C1426 1.423 . S
C1458 C1457 1.351 . S
C1459 O1443 1.276 . S
C1459 O1446 1.235 . S
C1460 C1461 1.393 . S
C1460 C1464 1.395 . S
C1460 C1467 1.492 . S
C1461 C1460 1.393 . S
C1461 C1462 1.392 . S
C1461 H1472 0.930 . S
C1462 C1461 1.392 . S
C1462 C1463 1.386 . S
C1463 C1462 1.386 . S
C1463 C1465 1.395 . S
C1463 H1473 0.930 . S
C1464 C1460 1.395 . S
C1464 C1465 1.379 . S
C1464 H1474 0.930 . S
C1465 C1463 1.395 . S
C1465 C1464 1.379 . S
C1465 H1475 0.930 . S
C1466 O1444 1.264 . S
C1466 O1445 1.254 . S
C1467 Eu1403 2.848 . S
C1467 O1442 1.257 . S
C1467 O1447 1.249 . S
C1467 C1460 1.492 . S
H1468 C1451 0.930 . S
H1469 C1452 0.930 . S
H1470 C1453 0.930 . S
H1471 C1454 0.930 . S
H1472 C1461 0.930 . S
H1473 C1463 0.930 . S
H1474 C1464 0.930 . S
H1475 C1465 0.930 . S
H1476 C1494 0.951 . S
H1477 C1496 0.951 . S
H1478 C1498 0.950 . S
H1479 C1499 0.950 . S
H1480 C1501 0.950 . S
H1481 C1504 0.950 . S
H1482 C1505 0.950 . S
H1483 C1507 0.977 . S
H1484 C1508 0.950 . S
H1485 C1509 0.951 . S
H1486 C1511 0.951 . S
H1487 C1513 0.950 . S
H1488 C1514 0.950 . S
H1489 C1516 0.950 . S
H1490 C1519 0.950 . S
H1491 C1520 0.950 . S
H1492 C1522 0.950 . S
H1493 C1523 0.950 . S
C1494 H1476 0.951 . S
C1494 C1495 1.366 . S
C1494 C1496 1.388 . S
C1495 C1494 1.366 . S
C1495 C1499 1.385 . S
C1496 H1477 0.951 . S
C1496 C1494 1.388 . S
C1496 C1497 1.366 . S
C1497 C1496 1.366 . S
C1497 C1498 1.414 . S
C1497 C1500 1.499 . S
C1498 H1478 0.950 . S
C1498 C1497 1.414 . S
C1498 C1499 1.374 . S
C1499 H1479 0.950 . S
C1499 C1495 1.385 . S
C1499 C1498 1.374 . S
C1500 C1497 1.499 . S
C1500 C1501 1.373 . S
C1500 C1502 1.389 . S
C1501 H1480 0.950 . S
C1501 C1500 1.373 . S
C1501 C1517 1.377 . S
C1502 C1500 1.389 . S
C1502 C1503 1.524 . S
C1502 C1516 1.377 . S
C1503 C1502 1.524 . S
C1503 C1504 1.397 . S
C1503 C1508 1.363 . S
C1504 H1481 0.950 . S
C1504 C1503 1.397 . S
C1504 C1505 1.334 . S
C1505 H1482 0.950 . S
C1505 C1504 1.334 . S
C1505 C1506 1.287 . S
C1506 C1505 1.287 . S
C1506 C1507 1.512 1_554 S
C1506 H1525 0.927 . S
C1507 H1483 0.977 . S
C1507 C1506 1.512 1_556 S
C1507 C1508 1.396 1_556 S
C1508 H1484 0.950 . S
C1508 C1503 1.363 . S
C1508 C1507 1.396 1_554 S
C1509 H1485 0.951 . S
C1509 C1510 1.366 . S
C1509 C1511 1.388 . S
C1510 C1509 1.366 . S
C1510 C1514 1.385 . S
C1511 H1486 0.951 . S
C1511 C1509 1.388 . S
C1511 C1512 1.366 . S
C1512 C1511 1.366 . S
C1512 C1513 1.414 . S
C1512 C1515 1.499 . S
C1513 H1487 0.950 . S
C1513 C1512 1.414 . S
C1513 C1514 1.374 . S
C1514 H1488 0.950 . S
C1514 C1510 1.385 . S
C1514 C1513 1.374 . S
C1515 C1512 1.499 . S
C1515 C1516 1.373 . S
C1515 C1517 1.389 . S
C1516 H1489 0.950 . S
C1516 C1502 1.377 . S
C1516 C1515 1.373 . S
C1517 C1501 1.377 . S
C1517 C1515 1.389 . S
C1517 C1518 1.524 . S
C1518 C1517 1.524 . S
C1518 C1519 1.397 . S
C1518 C1523 1.363 . S
C1519 H1490 0.950 . S
C1519 C1518 1.397 . S
C1519 C1520 1.334 . S
C1520 H1491 0.950 . S
C1520 C1519 1.334 . S
C1520 C1521 1.287 . S
C1521 C1520 1.287 . S
C1521 C1522 1.524 . S
C1521 H1524 0.999 . S
C1522 H1492 0.950 . S
C1522 C1521 1.524 . S
C1522 C1523 1.415 . S
C1523 H1493 0.950 . S
C1523 C1518 1.363 . S
C1523 C1522 1.415 . S
H1524 C1521 0.999 . S
H1525 C1506 0.927 . S
H1526 C1544 0.951 . S
H1527 C1546 0.951 . S
H1528 C1548 0.950 . S
H1529 C1549 0.950 . S
H1530 C1551 0.950 . S
H1531 C1554 0.950 . S
H1532 C1555 0.950 . S
H1533 C1557 0.950 . S
H1534 C1558 0.950 . S
H1535 C1559 0.951 . S
H1536 C1561 0.951 . S
H1537 C1563 0.950 . S
H1538 C1564 0.950 . S
H1539 C1566 0.950 . S
H1540 C1569 0.950 . S
H1541 C1570 0.950 . S
H1542 C1572 0.950 . S
H1543 C1573 0.950 . S
C1544 H1526 0.951 . S
C1544 C1545 1.366 . S
C1544 C1546 1.388 . S
C1545 C1544 1.366 . S
C1545 C1549 1.385 . S
C1546 H1527 0.951 . S
C1546 C1544 1.388 . S
C1546 C1547 1.366 . S
C1547 C1546 1.366 . S
C1547 C1548 1.414 . S
C1547 C1550 1.499 . S
C1548 H1528 0.950 . S
C1548 C1547 1.414 . S
C1548 C1549 1.374 . S
C1549 H1529 0.950 . S
C1549 C1545 1.385 . S
C1549 C1548 1.374 . S
C1550 C1547 1.499 . S
C1550 C1551 1.373 . S
C1550 C1552 1.389 . S
C1551 H1530 0.950 . S
C1551 C1550 1.373 . S
C1551 C1567 1.377 . S
C1552 C1550 1.389 . S
C1552 C1553 1.524 . S
C1552 C1566 1.377 . S
C1553 C1552 1.524 . S
C1553 C1554 1.397 . S
C1553 C1558 1.363 . S
C1554 H1531 0.950 . S
C1554 C1553 1.397 . S
C1554 C1555 1.334 . S
C1555 H1532 0.950 . S
C1555 C1554 1.334 . S
C1555 C1556 1.287 . S
C1556 C1555 1.287 . S
C1556 C1557 1.524 . S
C1556 H1575 0.913 . S
C1557 H1533 0.950 . S
C1557 C1556 1.524 . S
C1557 C1558 1.415 . S
C1558 H1534 0.950 . S
C1558 C1553 1.363 . S
C1558 C1557 1.415 . S
C1559 H1535 0.951 . S
C1559 C1560 1.366 . S
C1559 C1561 1.388 . S
C1560 C1559 1.366 . S
C1560 C1564 1.385 . S
C1561 H1536 0.951 . S
C1561 C1559 1.388 . S
C1561 C1562 1.366 . S
C1562 C1561 1.366 . S
C1562 C1563 1.414 . S
C1562 C1565 1.499 . S
C1563 H1537 0.950 . S
C1563 C1562 1.414 . S
C1563 C1564 1.374 . S
C1564 H1538 0.950 . S
C1564 C1560 1.385 . S
C1564 C1563 1.374 . S
C1565 C1562 1.499 . S
C1565 C1566 1.373 . S
C1565 C1567 1.389 . S
C1566 H1539 0.950 . S
C1566 C1552 1.377 . S
C1566 C1565 1.373 . S
C1567 C1551 1.377 . S
C1567 C1565 1.389 . S
C1567 C1568 1.524 . S
C1568 C1567 1.524 . S
C1568 C1569 1.397 . S
C1568 C1573 1.363 . S
C1569 H1540 0.950 . S
C1569 C1568 1.397 . S
C1569 C1570 1.334 . S
C1570 H1541 0.950 . S
C1570 C1569 1.334 . S
C1570 C1571 1.287 . S
C1571 C1570 1.287 . S
C1571 C1572 1.524 . S
C1571 H1574 0.999 . S
C1572 H1542 0.950 . S
C1572 C1571 1.524 . S
C1572 C1573 1.415 . S
C1573 H1543 0.950 . S
C1573 C1568 1.363 . S
C1573 C1572 1.415 . S
H1574 C1571 0.999 . S
H1575 C1556 0.913 . S
H1576 C1594 0.951 . S
H1577 C1596 0.951 . S
H1578 C1598 0.950 . S
H1579 C1599 0.950 . S
H1580 C1601 0.950 . S
H1581 C1604 0.950 . S
H1582 C1605 0.950 . S
H1583 C1607 0.950 1_556 S
H1584 C1608 0.950 . S
H1585 C1609 0.951 . S
H1586 C1611 0.951 . S
H1587 C1613 0.950 . S
H1588 C1614 0.950 . S
H1589 C1616 0.950 . S
H1590 C1619 0.950 . S
H1591 C1620 0.950 . S
H1592 C1622 0.950 . S
H1593 C1623 0.950 . S
C1594 H1576 0.951 . S
C1594 C1595 1.366 . S
C1594 C1596 1.388 . S
C1595 C1594 1.366 . S
C1595 C1599 1.385 . S
C1596 H1577 0.951 . S
C1596 C1594 1.388 . S
C1596 C1597 1.366 . S
C1597 C1596 1.366 . S
C1597 C1598 1.414 . S
C1597 C1600 1.499 . S
C1598 H1578 0.950 . S
C1598 C1597 1.414 . S
C1598 C1599 1.374 . S
C1599 H1579 0.950 . S
C1599 C1595 1.385 . S
C1599 C1598 1.374 . S
C1600 C1597 1.499 . S
C1600 C1601 1.373 . S
C1600 C1602 1.389 . S
C1601 H1580 0.950 . S
C1601 C1600 1.373 . S
C1601 C1617 1.377 . S
C1602 C1600 1.389 . S
C1602 C1603 1.524 . S
C1602 C1616 1.377 . S
C1603 C1602 1.524 . S
C1603 C1604 1.397 . S
C1603 C1608 1.363 . S
C1604 H1581 0.950 . S
C1604 C1603 1.397 . S
C1604 C1605 1.334 . S
C1605 H1582 0.950 . S
C1605 C1604 1.334 . S
C1605 C1606 1.240 1_554 S
C1606 C1605 1.240 1_556 S
C1606 C1607 1.512 1_556 S
C1606 H1625 0.981 . S
C1607 H1583 0.950 1_554 S
C1607 C1606 1.512 1_554 S
C1607 C1608 1.415 . S
C1608 H1584 0.950 . S
C1608 C1603 1.363 . S
C1608 C1607 1.415 . S
C1609 H1585 0.951 . S
C1609 C1610 1.366 . S
C1609 C1611 1.388 . S
C1610 C1609 1.366 . S
C1610 C1614 1.385 . S
C1611 H1586 0.951 . S
C1611 C1609 1.388 . S
C1611 C1612 1.366 . S
C1612 C1611 1.366 . S
C1612 C1613 1.414 . S
C1612 C1615 1.499 . S
C1613 H1587 0.950 . S
C1613 C1612 1.414 . S
C1613 C1614 1.374 . S
C1614 H1588 0.950 . S
C1614 C1610 1.385 . S
C1614 C1613 1.374 . S
C1615 C1612 1.499 . S
C1615 C1616 1.373 . S
C1615 C1617 1.389 . S
C1616 H1589 0.950 . S
C1616 C1602 1.377 . S
C1616 C1615 1.373 . S
C1617 C1601 1.377 . S
C1617 C1615 1.389 . S
C1617 C1618 1.524 . S
C1618 C1617 1.524 . S
C1618 C1619 1.397 . S
C1618 C1623 1.363 . S
C1619 H1590 0.950 . S
C1619 C1618 1.397 . S
C1619 C1620 1.334 . S
C1620 H1591 0.950 . S
C1620 C1619 1.334 . S
C1620 C1621 1.287 . S
C1621 C1620 1.287 . S
C1621 C1622 1.524 . S
C1621 H1624 0.999 . S
C1622 H1592 0.950 . S
C1622 C1621 1.524 . S
C1622 C1623 1.415 . S
C1623 H1593 0.950 . S
C1623 C1618 1.363 . S
C1623 C1622 1.415 . S
H1624 C1621 0.999 . S
H1625 C1606 0.981 . S
H1626 C1644 0.951 . S
H1627 C1646 0.951 . S
H1628 C1648 0.950 . S
H1629 C1649 0.950 . S
H1630 C1651 0.950 . S
H1631 C1654 0.950 . S
H1632 C1655 0.950 . S
H1633 C1657 0.950 . S
H1634 C1658 0.950 . S
H1635 C1659 0.951 . S
H1636 C1661 0.951 . S
H1637 C1663 0.950 . S
H1638 C1664 0.950 . S
H1639 C1666 0.950 . S
H1640 C1669 0.950 . S
H1641 C1670 0.950 . S
H1642 C1672 0.950 . S
H1643 C1673 0.950 . S
C1644 H1626 0.951 . S
C1644 C1645 1.366 . S
C1644 C1646 1.388 . S
C1645 C1644 1.366 . S
C1645 C1649 1.385 . S
C1646 H1627 0.951 . S
C1646 C1644 1.388 . S
C1646 C1647 1.366 . S
C1647 C1646 1.366 . S
C1647 C1648 1.414 . S
C1647 C1650 1.499 . S
C1648 H1628 0.950 . S
C1648 C1647 1.414 . S
C1648 C1649 1.374 . S
C1649 H1629 0.950 . S
C1649 C1645 1.385 . S
C1649 C1648 1.374 . S
C1650 C1647 1.499 . S
C1650 C1651 1.373 . S
C1650 C1652 1.389 . S
C1651 H1630 0.950 . S
C1651 C1650 1.373 . S
C1651 C1667 1.377 . S
C1652 C1650 1.389 . S
C1652 C1653 1.524 . S
C1652 C1666 1.377 . S
C1653 C1652 1.524 . S
C1653 C1654 1.397 . S
C1653 C1658 1.363 . S
C1654 H1631 0.950 . S
C1654 C1653 1.397 . S
C1654 C1655 1.334 . S
C1655 H1632 0.950 . S
C1655 C1654 1.334 . S
C1655 C1656 1.287 . S
C1656 C1655 1.287 . S
C1656 C1657 1.524 . S
C1656 H1675 0.913 . S
C1657 H1633 0.950 . S
C1657 C1656 1.524 . S
C1657 C1658 1.415 . S
C1658 H1634 0.950 . S
C1658 C1653 1.363 . S
C1658 C1657 1.415 . S
C1659 H1635 0.951 . S
C1659 C1660 1.366 . S
C1659 C1661 1.388 . S
C1660 C1659 1.366 . S
C1660 C1664 1.385 . S
C1661 H1636 0.951 . S
C1661 C1659 1.388 . S
C1661 C1662 1.366 . S
C1662 C1661 1.366 . S
C1662 C1663 1.414 . S
C1662 C1665 1.499 . S
C1663 H1637 0.950 . S
C1663 C1662 1.414 . S
C1663 C1664 1.374 . S
C1664 H1638 0.950 . S
C1664 C1660 1.385 . S
C1664 C1663 1.374 . S
C1665 C1662 1.499 . S
C1665 C1666 1.373 . S
C1665 C1667 1.389 . S
C1666 H1639 0.950 . S
C1666 C1652 1.377 . S
C1666 C1665 1.373 . S
C1667 C1651 1.377 . S
C1667 C1665 1.389 . S
C1667 C1668 1.524 . S
C1668 C1667 1.524 . S
C1668 C1669 1.397 . S
C1668 C1673 1.363 . S
C1669 H1640 0.950 . S
C1669 C1668 1.397 . S
C1669 C1670 1.334 . S
C1670 H1641 0.950 . S
C1670 C1669 1.334 . S
C1670 C1671 1.287 . S
C1671 C1670 1.287 . S
C1671 C1672 1.524 . S
C1671 H1674 0.999 . S
C1672 H1642 0.950 . S
C1672 C1671 1.524 . S
C1672 C1673 1.415 . S
C1673 H1643 0.950 . S
C1673 C1668 1.363 . S
C1673 C1672 1.415 . S
H1674 C1671 0.999 . S
H1675 C1656 0.913 . S
H1676 C1694 0.951 . S
H1677 C1696 0.951 . S
H1678 C1698 0.950 . S
H1679 C1699 0.950 . S
H1680 C1701 0.950 . S
H1681 C1704 0.950 . S
H1682 C1705 0.950 . S
H1683 C1707 0.950 . S
H1684 C1708 0.950 . S
H1685 C1709 0.951 1_554 S
H1686 C1711 0.951 . S
H1687 C1713 0.950 . S
H1688 C1714 0.950 . S
H1689 C1716 0.950 . S
H1690 C1719 0.950 . S
H1691 C1720 0.950 . S
H1692 C1722 0.950 . S
H1693 C1723 0.957 . S
C1694 H1676 0.951 . S
C1694 C1695 1.366 . S
C1694 C1696 1.388 . S
C1695 C1694 1.366 . S
C1695 C1699 1.385 . S
C1696 H1677 0.951 . S
C1696 C1694 1.388 . S
C1696 C1697 1.366 . S
C1697 C1696 1.366 . S
C1697 C1698 1.414 . S
C1697 C1700 1.499 . S
C1698 H1678 0.950 . S
C1698 C1697 1.414 . S
C1698 C1699 1.374 . S
C1699 H1679 0.950 . S
C1699 C1695 1.385 . S
C1699 C1698 1.374 . S
C1700 C1697 1.499 . S
C1700 C1701 1.373 . S
C1700 C1702 1.389 . S
C1701 H1680 0.950 . S
C1701 C1700 1.373 . S
C1701 C1717 1.377 . S
C1702 C1700 1.389 . S
C1702 C1703 1.524 . S
C1702 C1716 1.377 . S
C1703 C1702 1.524 . S
C1703 C1704 1.397 . S
C1703 C1708 1.363 . S
C1704 H1681 0.950 . S
C1704 C1703 1.397 . S
C1704 C1705 1.334 . S
C1705 H1682 0.950 . S
C1705 C1704 1.334 . S
C1705 C1706 1.287 . S
C1706 C1705 1.287 . S
C1706 C1707 1.524 . S
C1706 H1725 0.913 . S
C1707 H1683 0.950 . S
C1707 C1706 1.524 . S
C1707 C1708 1.415 . S
C1708 H1684 0.950 . S
C1708 C1703 1.363 . S
C1708 C1707 1.415 . S
C1709 H1685 0.951 1_556 S
C1709 C1710 1.366 . S
C1709 C1711 1.388 . S
C1710 C1709 1.366 . S
C1710 C1714 1.385 . S
C1711 H1686 0.951 . S
C1711 C1709 1.388 . S
C1711 C1712 1.366 . S
C1712 C1711 1.366 . S
C1712 C1713 1.414 . S
C1712 C1715 1.499 . S
C1713 H1687 0.950 . S
C1713 C1712 1.414 . S
C1713 C1714 1.374 . S
C1714 H1688 0.950 . S
C1714 C1710 1.385 . S
C1714 C1713 1.374 . S
C1715 C1712 1.499 . S
C1715 C1716 1.373 . S
C1715 C1717 1.389 . S
C1716 H1689 0.950 . S
C1716 C1702 1.377 . S
C1716 C1715 1.373 . S
C1717 C1701 1.377 . S
C1717 C1715 1.389 . S
C1717 C1718 1.524 . S
C1718 C1717 1.524 . S
C1718 C1719 1.397 . S
C1718 C1723 1.363 . S
C1719 H1690 0.950 . S
C1719 C1718 1.397 . S
C1719 C1720 1.334 . S
C1720 H1691 0.950 . S
C1720 C1719 1.334 . S
C1720 C1721 1.287 1_556 S
C1721 C1720 1.287 1_554 S
C1721 C1722 1.524 . S
C1721 H1724 0.999 . S
C1722 H1692 0.950 . S
C1722 C1721 1.524 . S
C1722 C1723 1.415 1_554 S
C1723 H1693 0.957 . S
C1723 C1718 1.363 . S
C1723 C1722 1.415 1_556 S
H1724 C1721 0.999 . S
H1725 C1706 0.913 . S
H1726 C1744 0.951 . S
H1727 C1746 0.951 . S
H1728 C1748 0.950 . S
H1729 C1749 0.950 . S
H1730 C1751 0.950 . S
H1731 C1754 0.950 . S
H1732 C1755 0.971 . S
H1733 C1757 0.950 . S
H1734 C1758 0.950 . S
H1735 C1759 0.951 . S
H1736 C1761 0.951 . S
H1737 C1763 0.950 . S
H1738 C1764 0.950 . S
H1739 C1766 0.950 . S
H1740 C1769 0.950 . S
H1741 C1770 0.950 . S
H1742 C1772 0.950 . S
H1743 C1773 0.950 . S
C1744 H1726 0.951 . S
C1744 C1745 1.366 . S
C1744 C1746 1.388 . S
C1745 C1744 1.366 . S
C1745 C1749 1.385 . S
C1746 H1727 0.951 . S
C1746 C1744 1.388 . S
C1746 C1747 1.366 . S
C1747 C1746 1.366 . S
C1747 C1748 1.414 . S
C1747 C1750 1.499 . S
C1748 H1728 0.950 . S
C1748 C1747 1.414 . S
C1748 C1749 1.374 . S
C1749 H1729 0.950 . S
C1749 C1745 1.385 . S
C1749 C1748 1.374 . S
C1750 C1747 1.499 . S
C1750 C1751 1.373 . S
C1750 C1752 1.389 . S
C1751 H1730 0.950 . S
C1751 C1750 1.373 . S
C1751 C1767 1.377 . S
C1752 C1750 1.389 . S
C1752 C1753 1.524 . S
C1752 C1766 1.377 . S
C1753 C1752 1.524 . S
C1753 C1754 1.397 . S
C1753 C1758 1.363 . S
C1754 H1731 0.950 . S
C1754 C1753 1.397 . S
C1754 C1755 1.282 1_556 S
C1755 H1732 0.971 . S
C1755 C1754 1.282 1_554 S
C1755 C1756 1.324 . S
C1756 C1755 1.324 . S
C1756 C1757 1.524 . S
C1756 H1775 0.913 . S
C1757 H1733 0.950 . S
C1757 C1756 1.524 . S
C1757 C1758 1.415 1_554 S
C1758 H1734 0.950 . S
C1758 C1753 1.363 . S
C1758 C1757 1.415 1_556 S
C1759 H1735 0.951 . S
C1759 C1760 1.366 . S
C1759 C1761 1.388 . S
C1760 C1759 1.366 . S
C1760 C1764 1.385 . S
C1761 H1736 0.951 . S
C1761 C1759 1.388 . S
C1761 C1762 1.366 . S
C1762 C1761 1.366 . S
C1762 C1763 1.414 . S
C1762 C1765 1.499 . S
C1763 H1737 0.950 . S
C1763 C1762 1.414 . S
C1763 C1764 1.374 . S
C1764 H1738 0.950 . S
C1764 C1760 1.385 . S
C1764 C1763 1.374 . S
C1765 C1762 1.499 . S
C1765 C1766 1.373 . S
C1765 C1767 1.389 . S
C1766 H1739 0.950 . S
C1766 C1752 1.377 . S
C1766 C1765 1.373 . S
C1767 C1751 1.377 . S
C1767 C1765 1.389 . S
C1767 C1768 1.524 . S
C1768 C1767 1.524 . S
C1768 C1769 1.397 . S
C1768 C1773 1.363 . S
C1769 H1740 0.950 . S
C1769 C1768 1.397 . S
C1769 C1770 1.334 . S
C1770 H1741 0.950 . S
C1770 C1769 1.334 . S
C1770 C1771 1.287 . S
C1771 C1770 1.287 . S
C1771 C1772 1.524 . S
C1771 H1774 0.999 . S
C1772 H1742 0.950 . S
C1772 C1771 1.524 . S
C1772 C1773 1.415 . S
C1773 H1743 0.950 . S
C1773 C1768 1.363 . S
C1773 C1772 1.415 . S
H1774 C1771 0.999 . S
H1775 C1756 0.913 . S
H1776 C1794 0.951 . S
H1777 C1796 0.951 . S
H1778 C1798 0.950 . S
H1779 C1799 0.950 . S
H1780 C1801 0.950 . S
H1781 C1804 0.950 . S
H1782 C1805 0.952 . S
H1783 C1807 0.985 . S
H1784 C1808 0.950 . S
H1785 C1809 0.951 . S
H1786 C1811 0.951 . S
H1787 C1813 0.950 . S
H1788 C1814 0.950 . S
H1789 C1816 0.950 . S
H1790 C1819 0.950 . S
H1791 C1820 0.950 . S
H1792 C1822 0.950 . S
H1793 C1823 0.950 . S
C1794 H1776 0.951 . S
C1794 C1795 1.366 . S
C1794 C1796 1.388 . S
C1795 C1794 1.366 . S
C1795 C1799 1.385 . S
C1796 H1777 0.951 . S
C1796 C1794 1.388 . S
C1796 C1797 1.366 . S
C1797 C1796 1.366 . S
C1797 C1798 1.414 . S
C1797 C1800 1.499 . S
C1798 H1778 0.950 . S
C1798 C1797 1.414 . S
C1798 C1799 1.374 . S
C1799 H1779 0.950 . S
C1799 C1795 1.385 . S
C1799 C1798 1.374 . S
C1800 C1797 1.499 . S
C1800 C1801 1.373 . S
C1800 C1802 1.389 . S
C1801 H1780 0.950 . S
C1801 C1800 1.373 . S
C1801 C1817 1.377 . S
C1802 C1800 1.389 . S
C1802 C1803 1.524 . S
C1802 C1816 1.377 . S
C1803 C1802 1.524 . S
C1803 C1804 1.397 . S
C1803 C1808 1.363 . S
C1804 H1781 0.950 . S
C1804 C1803 1.397 . S
C1804 C1805 1.334 . S
C1805 H1782 0.952 . S
C1805 C1804 1.334 . S
C1805 C1806 1.287 1_556 S
C1806 C1805 1.287 1_554 S
C1806 C1807 1.539 . S
C1806 H1825 0.913 . S
C1807 H1783 0.985 . S
C1807 C1806 1.539 . S
C1807 C1808 1.364 1_554 S
C1808 H1784 0.950 . S
C1808 C1803 1.363 . S
C1808 C1807 1.364 1_556 S
C1809 H1785 0.951 . S
C1809 C1810 1.366 . S
C1809 C1811 1.388 . S
C1810 C1809 1.366 . S
C1810 C1814 1.385 . S
C1811 H1786 0.951 . S
C1811 C1809 1.388 . S
C1811 C1812 1.366 . S
C1812 C1811 1.366 . S
C1812 C1813 1.414 . S
C1812 C1815 1.499 . S
C1813 H1787 0.950 . S
C1813 C1812 1.414 . S
C1813 C1814 1.374 . S
C1814 H1788 0.950 . S
C1814 C1810 1.385 . S
C1814 C1813 1.374 . S
C1815 C1812 1.499 . S
C1815 C1816 1.373 . S
C1815 C1817 1.389 . S
C1816 H1789 0.950 . S
C1816 C1802 1.377 . S
C1816 C1815 1.373 . S
C1817 C1801 1.377 . S
C1817 C1815 1.389 . S
C1817 C1818 1.524 . S
C1818 C1817 1.524 . S
C1818 C1819 1.397 . S
C1818 C1823 1.363 . S
C1819 H1790 0.950 . S
C1819 C1818 1.397 . S
C1819 C1820 1.334 . S
C1820 H1791 0.950 . S
C1820 C1819 1.334 . S
C1820 C1821 1.287 . S
C1821 C1820 1.287 . S
C1821 C1822 1.524 . S
C1821 H1824 0.999 . S
C1822 H1792 0.950 . S
C1822 C1821 1.524 . S
C1822 C1823 1.415 . S
C1823 H1793 0.950 . S
C1823 C1818 1.363 . S
C1823 C1822 1.415 . S
H1824 C1821 0.999 . S
H1825 C1806 0.913 . S
H1826 C1844 0.951 . S
H1827 C1846 0.951 . S
H1828 C1848 0.950 . S
H1829 C1849 0.950 . S
H1830 C1851 0.950 . S
H1831 C1854 0.950 . S
H1832 C1855 0.950 . S
H1833 C1857 0.950 . S
H1834 C1858 0.950 . S
H1835 C1859 0.951 . S
H1836 C1861 0.951 . S
H1837 C1863 0.950 . S
H1838 C1864 0.950 . S
H1839 C1866 0.950 . S
H1840 C1869 0.950 . S
H1841 C1870 0.950 . S
H1842 C1872 0.950 . S
H1843 C1873 0.950 . S
C1844 H1826 0.951 . S
C1844 C1845 1.366 . S
C1844 C1846 1.388 . S
C1845 C1844 1.366 . S
C1845 C1849 1.385 . S
C1846 H1827 0.951 . S
C1846 C1844 1.388 . S
C1846 C1847 1.366 . S
C1847 C1846 1.366 . S
C1847 C1848 1.414 . S
C1847 C1850 1.499 . S
C1848 H1828 0.950 . S
C1848 C1847 1.414 . S
C1848 C1849 1.374 . S
C1849 H1829 0.950 . S
C1849 C1845 1.385 . S
C1849 C1848 1.374 . S
C1850 C1847 1.499 . S
C1850 C1851 1.373 . S
C1850 C1852 1.389 . S
C1851 H1830 0.950 . S
C1851 C1850 1.373 . S
C1851 C1867 1.377 . S
C1852 C1850 1.389 . S
C1852 C1853 1.524 . S
C1852 C1866 1.377 . S
C1853 C1852 1.524 . S
C1853 C1854 1.397 . S
C1853 C1858 1.363 . S
C1854 H1831 0.950 . S
C1854 C1853 1.397 . S
C1854 C1855 1.334 . S
C1855 H1832 0.950 . S
C1855 C1854 1.334 . S
C1855 C1856 1.287 . S
C1856 C1855 1.287 . S
C1856 C1857 1.524 . S
C1856 H1875 0.913 . S
C1857 H1833 0.950 . S
C1857 C1856 1.524 . S
C1857 C1858 1.415 . S
C1858 H1834 0.950 . S
C1858 C1853 1.363 . S
C1858 C1857 1.415 . S
C1859 H1835 0.951 . S
C1859 C1860 1.366 . S
C1859 C1861 1.388 . S
C1860 C1859 1.366 . S
C1860 C1864 1.385 . S
C1861 H1836 0.951 . S
C1861 C1859 1.388 . S
C1861 C1862 1.366 . S
C1862 C1861 1.366 . S
C1862 C1863 1.414 . S
C1862 C1865 1.499 . S
C1863 H1837 0.950 . S
C1863 C1862 1.414 . S
C1863 C1864 1.374 . S
C1864 H1838 0.950 . S
C1864 C1860 1.385 . S
C1864 C1863 1.374 . S
C1865 C1862 1.499 . S
C1865 C1866 1.373 . S
C1865 C1867 1.389 . S
C1866 H1839 0.950 . S
C1866 C1852 1.377 . S
C1866 C1865 1.373 . S
C1867 C1851 1.377 . S
C1867 C1865 1.389 . S
C1867 C1868 1.524 . S
C1868 C1867 1.524 . S
C1868 C1869 1.397 . S
C1868 C1873 1.363 . S
C1869 H1840 0.950 . S
C1869 C1868 1.397 . S
C1869 C1870 1.334 . S
C1870 H1841 0.950 . S
C1870 C1869 1.334 . S
C1870 C1871 1.287 . S
C1871 C1870 1.287 . S
C1871 C1872 1.524 . S
C1871 H1874 0.999 . S
C1872 H1842 0.950 . S
C1872 C1871 1.524 . S
C1872 C1873 1.415 . S
C1873 H1843 0.950 . S
C1873 C1868 1.363 . S
C1873 C1872 1.415 . S
H1874 C1871 0.999 . S
H1875 C1856 0.913 . S
H1876 C1894 0.951 . S
H1877 C1896 0.951 . S
H1878 C1898 0.950 . S
H1879 C1899 0.950 . S
H1880 C1901 0.950 . S
H1881 C1904 0.950 . S
H1882 C1905 0.950 . S
H1883 C1907 0.985 . S
H1884 C1908 0.900 1_554 S
H1885 C1909 0.951 . S
H1886 C1911 0.951 . S
H1887 C1913 0.936 1_554 S
H1888 C1914 0.950 1_554 S
H1889 C1916 0.950 . S
H1890 C1919 0.950 . S
H1891 C1920 0.950 . S
H1892 C1922 0.950 . S
H1893 C1923 0.950 . S
C1894 H1876 0.951 . S
C1894 C1895 1.366 . S
C1894 C1896 1.388 . S
C1895 C1894 1.366 . S
C1895 C1899 1.385 . S
C1896 H1877 0.951 . S
C1896 C1894 1.388 . S
C1896 C1897 1.366 . S
C1897 C1896 1.366 . S
C1897 C1898 1.414 . S
C1897 C1900 1.499 . S
C1898 H1878 0.950 . S
C1898 C1897 1.414 . S
C1898 C1899 1.374 . S
C1899 H1879 0.950 . S
C1899 C1895 1.385 . S
C1899 C1898 1.374 . S
C1900 C1897 1.499 . S
C1900 C1901 1.373 . S
C1900 C1902 1.389 . S
C1901 H1880 0.950 . S
C1901 C1900 1.373 . S
C1901 C1917 1.377 . S
C1902 C1900 1.389 . S
C1902 C1903 1.524 . S
C1902 C1916 1.377 . S
C1903 C1902 1.524 . S
C1903 C1904 1.397 . S
C1903 C1908 1.363 . S
C1904 H1881 0.950 . S
C1904 C1903 1.397 . S
C1904 C1905 1.334 . S
C1905 H1882 0.950 . S
C1905 C1904 1.334 . S
C1905 C1906 1.287 . S
C1906 C1905 1.287 . S
C1906 C1907 1.498 1_556 S
C1906 H1925 0.913 . S
C1907 H1883 0.985 . S
C1907 C1906 1.498 1_554 S
C1907 C1908 1.401 1_554 S
C1908 H1884 0.900 1_556 S
C1908 C1903 1.363 . S
C1908 C1907 1.401 1_556 S
C1909 H1885 0.951 . S
C1909 C1910 1.366 . S
C1909 C1911 1.388 . S
C1910 C1909 1.366 . S
C1910 C1914 1.385 . S
C1911 H1886 0.951 . S
C1911 C1909 1.388 . S
C1911 C1912 1.366 . S
C1912 C1911 1.366 . S
C1912 C1913 1.414 . S
C1912 C1915 1.499 . S
C1913 H1887 0.936 1_556 S
C1913 C1912 1.414 . S
C1913 C1914 1.374 . S
C1914 H1888 0.950 1_556 S
C1914 C1910 1.385 . S
C1914 C1913 1.374 . S
C1915 C1912 1.499 . S
C1915 C1916 1.373 . S
C1915 C1917 1.389 . S
C1916 H1889 0.950 . S
C1916 C1902 1.377 . S
C1916 C1915 1.373 . S
C1917 C1901 1.377 . S
C1917 C1915 1.389 . S
C1917 C1918 1.524 . S
C1918 C1917 1.524 . S
C1918 C1919 1.397 . S
C1918 C1923 1.363 . S
C1919 H1890 0.950 . S
C1919 C1918 1.397 . S
C1919 C1920 1.334 . S
C1920 H1891 0.950 . S
C1920 C1919 1.334 . S
C1920 C1921 1.287 . S
C1921 C1920 1.287 . S
C1921 C1922 1.524 . S
C1921 H1924 0.999 . S
C1922 H1892 0.950 . S
C1922 C1921 1.524 . S
C1922 C1923 1.415 . S
C1923 H1893 0.950 . S
C1923 C1918 1.363 . S
C1923 C1922 1.415 . S
H1924 C1921 0.999 . S
H1925 C1906 0.913 . S
H1926 C1944 0.951 . S
H1927 C1946 0.951 . S
H1928 C1948 0.950 . S
H1929 C1949 0.950 . S
H1930 C1951 0.950 . S
H1931 C1954 0.950 . S
H1932 C1955 0.950 . S
H1933 C1957 0.950 . S
H1934 C1958 0.950 . S
H1935 C1959 0.951 . S
H1936 C1961 0.951 . S
H1937 C1963 0.950 . S
H1938 C1964 0.950 . S
H1939 C1966 0.950 . S
H1940 C1969 0.950 . S
H1941 C1970 0.950 . S
H1942 C1972 0.950 . S
H1943 C1973 0.950 . S
C1944 H1926 0.951 . S
C1944 C1945 1.366 . S
C1944 C1946 1.388 . S
C1945 C1944 1.366 . S
C1945 C1949 1.385 . S
C1946 H1927 0.951 . S
C1946 C1944 1.388 . S
C1946 C1947 1.366 . S
C1947 C1946 1.366 . S
C1947 C1948 1.414 . S
C1947 C1950 1.499 . S
C1948 H1928 0.950 . S
C1948 C1947 1.414 . S
C1948 C1949 1.374 . S
C1949 H1929 0.950 . S
C1949 C1945 1.385 . S
C1949 C1948 1.374 . S
C1950 C1947 1.499 . S
C1950 C1951 1.373 . S
C1950 C1952 1.389 . S
C1951 H1930 0.950 . S
C1951 C1950 1.373 . S
C1951 C1967 1.377 . S
C1952 C1950 1.389 . S
C1952 C1953 1.524 . S
C1952 C1966 1.377 . S
C1953 C1952 1.524 . S
C1953 C1954 1.397 . S
C1953 C1958 1.363 . S
C1954 H1931 0.950 . S
C1954 C1953 1.397 . S
C1954 C1955 1.334 . S
C1955 H1932 0.950 . S
C1955 C1954 1.334 . S
C1955 C1956 1.287 . S
C1956 C1955 1.287 . S
C1956 C1957 1.524 . S
C1956 H1975 0.913 . S
C1957 H1933 0.950 . S
C1957 C1956 1.524 . S
C1957 C1958 1.415 . S
C1958 H1934 0.950 . S
C1958 C1953 1.363 . S
C1958 C1957 1.415 . S
C1959 H1935 0.951 . S
C1959 C1960 1.366 . S
C1959 C1961 1.388 . S
C1960 C1959 1.366 . S
C1960 C1964 1.385 . S
C1961 H1936 0.951 . S
C1961 C1959 1.388 . S
C1961 C1962 1.366 . S
C1962 C1961 1.366 . S
C1962 C1963 1.414 . S
C1962 C1965 1.499 . S
C1963 H1937 0.950 . S
C1963 C1962 1.414 . S
C1963 C1964 1.374 . S
C1964 H1938 0.950 . S
C1964 C1960 1.385 . S
C1964 C1963 1.374 . S
C1965 C1962 1.499 . S
C1965 C1966 1.373 . S
C1965 C1967 1.389 . S
C1966 H1939 0.950 . S
C1966 C1952 1.377 . S
C1966 C1965 1.373 . S
C1967 C1951 1.377 . S
C1967 C1965 1.389 . S
C1967 C1968 1.524 . S
C1968 C1967 1.524 . S
C1968 C1969 1.397 . S
C1968 C1973 1.363 . S
C1969 H1940 0.950 . S
C1969 C1968 1.397 . S
C1969 C1970 1.334 1_554 S
C1970 H1941 0.950 . S
C1970 C1969 1.334 1_556 S
C1970 C1971 1.287 . S
C1971 C1970 1.287 . S
C1971 C1972 1.524 . S
C1971 H1974 0.999 . S
C1972 H1942 0.950 . S
C1972 C1971 1.524 . S
C1972 C1973 1.415 1_556 S
C1973 H1943 0.950 . S
C1973 C1968 1.363 . S
C1973 C1972 1.415 1_554 S
H1974 C1971 0.999 . S
H1975 C1956 0.913 . S
H1976 C1994 0.951 . S
H1977 C1996 0.951 . S
H1978 C1998 0.950 . S
H1979 C1999 0.950 . S
H1980 C2001 0.950 . S
H1981 C2004 0.950 . S
H1982 C2005 0.950 . S
H1983 C2007 0.950 . S
H1984 C2008 0.950 . S
H1985 C2009 0.951 . S
H1986 C2011 0.951 . S
H1987 C2013 0.950 . S
H1988 C2014 0.950 . S
H1989 C2016 0.950 . S
H1990 C2019 0.950 . S
H1991 C2020 0.950 . S
H1992 C2022 0.950 . S
H1993 C2023 0.950 . S
C1994 H1976 0.951 . S
C1994 C1995 1.366 . S
C1994 C1996 1.388 . S
C1995 C1994 1.366 . S
C1995 C1999 1.385 . S
C1996 H1977 0.951 . S
C1996 C1994 1.388 . S
C1996 C1997 1.366 . S
C1997 C1996 1.366 . S
C1997 C1998 1.414 . S
C1997 C2000 1.499 . S
C1998 H1978 0.950 . S
C1998 C1997 1.414 . S
C1998 C1999 1.374 . S
C1999 H1979 0.950 . S
C1999 C1995 1.385 . S
C1999 C1998 1.374 . S
C2000 C1997 1.499 . S
C2000 C2001 1.373 . S
C2000 C2002 1.389 . S
C2001 H1980 0.950 . S
C2001 C2000 1.373 . S
C2001 C2017 1.377 . S
C2002 C2000 1.389 . S
C2002 C2003 1.524 . S
C2002 C2016 1.377 . S
C2003 C2002 1.524 . S
C2003 C2004 1.397 . S
C2003 C2008 1.363 . S
C2004 H1981 0.950 . S
C2004 C2003 1.397 . S
C2004 C2005 1.334 . S
C2005 H1982 0.950 . S
C2005 C2004 1.334 . S
C2005 C2006 1.287 . S
C2006 C2005 1.287 . S
C2006 C2007 1.524 . S
C2006 H2025 0.913 . S
C2007 H1983 0.950 . S
C2007 C2006 1.524 . S
C2007 C2008 1.415 . S
C2008 H1984 0.950 . S
C2008 C2003 1.363 . S
C2008 C2007 1.415 . S
C2009 H1985 0.951 . S
C2009 C2010 1.366 . S
C2009 C2011 1.388 . S
C2010 C2009 1.366 . S
C2010 C2014 1.385 . S
C2011 H1986 0.951 . S
C2011 C2009 1.388 . S
C2011 C2012 1.366 . S
C2012 C2011 1.366 . S
C2012 C2013 1.414 . S
C2012 C2015 1.499 . S
C2013 H1987 0.950 . S
C2013 C2012 1.414 . S
C2013 C2014 1.374 . S
C2014 H1988 0.950 . S
C2014 C2010 1.385 . S
C2014 C2013 1.374 . S
C2015 C2012 1.499 . S
C2015 C2016 1.373 . S
C2015 C2017 1.389 . S
C2016 H1989 0.950 . S
C2016 C2002 1.377 . S
C2016 C2015 1.373 . S
C2017 C2001 1.377 . S
C2017 C2015 1.389 . S
C2017 C2018 1.524 . S
C2018 C2017 1.524 . S
C2018 C2019 1.397 . S
C2018 C2023 1.363 . S
C2019 H1990 0.950 . S
C2019 C2018 1.397 . S
C2019 C2020 1.334 . S
C2020 H1991 0.950 . S
C2020 C2019 1.334 . S
C2020 C2021 1.287 1_554 S
C2021 C2020 1.287 1_556 S
C2021 C2022 1.524 . S
C2021 H2024 0.999 . S
C2022 H1992 0.950 . S
C2022 C2021 1.524 . S
C2022 C2023 1.415 1_556 S
C2023 H1993 0.950 . S
C2023 C2018 1.363 . S
C2023 C2022 1.415 1_554 S
H2024 C2021 0.999 . S
H2025 C2006 0.913 . S
H2026 C2044 0.951 . S
H2027 C2046 0.951 . S
H2028 C2048 0.950 . S
H2029 C2049 0.950 . S
H2030 C2051 0.950 . S
H2031 C2054 0.950 . S
H2032 C2055 0.950 . S
H2033 C2057 0.950 . S
H2034 C2058 0.950 . S
H2035 C2059 0.951 . S
H2036 C2061 0.951 . S
H2037 C2063 0.950 . S
H2038 C2064 0.950 . S
H2039 C2066 0.950 . S
H2040 C2069 0.950 . S
H2041 C2070 0.950 . S
H2042 C2072 0.950 . S
H2043 C2073 0.950 . S
C2044 H2026 0.951 . S
C2044 C2045 1.366 . S
C2044 C2046 1.388 . S
C2045 C2044 1.366 . S
C2045 C2049 1.385 . S
C2046 H2027 0.951 . S
C2046 C2044 1.388 . S
C2046 C2047 1.366 . S
C2047 C2046 1.366 . S
C2047 C2048 1.414 . S
C2047 C2050 1.499 . S
C2048 H2028 0.950 . S
C2048 C2047 1.414 . S
C2048 C2049 1.374 . S
C2049 H2029 0.950 . S
C2049 C2045 1.385 . S
C2049 C2048 1.374 . S
C2050 C2047 1.499 . S
C2050 C2051 1.373 . S
C2050 C2052 1.389 . S
C2051 H2030 0.950 . S
C2051 C2050 1.373 . S
C2051 C2067 1.377 . S
C2052 C2050 1.389 . S
C2052 C2053 1.524 . S
C2052 C2066 1.377 . S
C2053 C2052 1.524 . S
C2053 C2054 1.397 . S
C2053 C2058 1.363 . S
C2054 H2031 0.950 . S
C2054 C2053 1.397 . S
C2054 C2055 1.334 . S
C2055 H2032 0.950 . S
C2055 C2054 1.334 . S
C2055 C2056 1.321 . S
C2056 C2055 1.321 . S
C2056 C2057 1.514 1_554 S
C2056 H2075 0.888 1_554 S
C2057 H2033 0.950 . S
C2057 C2056 1.514 1_556 S
C2057 C2058 1.415 1_556 S
C2058 H2034 0.950 . S
C2058 C2053 1.363 . S
C2058 C2057 1.415 1_554 S
C2059 H2035 0.951 . S
C2059 C2060 1.366 . S
C2059 C2061 1.388 . S
C2060 C2059 1.366 . S
C2060 C2064 1.385 . S
C2061 H2036 0.951 . S
C2061 C2059 1.388 . S
C2061 C2062 1.366 . S
C2062 C2061 1.366 . S
C2062 C2063 1.414 . S
C2062 C2065 1.499 . S
C2063 H2037 0.950 . S
C2063 C2062 1.414 . S
C2063 C2064 1.374 . S
C2064 H2038 0.950 . S
C2064 C2060 1.385 . S
C2064 C2063 1.374 . S
C2065 C2062 1.499 . S
C2065 C2066 1.373 . S
C2065 C2067 1.389 . S
C2066 H2039 0.950 . S
C2066 C2052 1.377 . S
C2066 C2065 1.373 . S
C2067 C2051 1.377 . S
C2067 C2065 1.389 . S
C2067 C2068 1.524 . S
C2068 C2067 1.524 . S
C2068 C2069 1.397 . S
C2068 C2073 1.363 . S
C2069 H2040 0.950 . S
C2069 C2068 1.397 . S
C2069 C2070 1.334 . S
C2070 H2041 0.950 . S
C2070 C2069 1.334 . S
C2070 C2071 1.287 . S
C2071 C2070 1.287 . S
C2071 C2072 1.524 . S
C2071 H2074 0.999 . S
C2072 H2042 0.950 . S
C2072 C2071 1.524 . S
C2072 C2073 1.415 . S
C2073 H2043 0.950 . S
C2073 C2068 1.363 . S
C2073 C2072 1.415 . S
H2074 C2071 0.999 . S
H2075 C2056 0.888 1_556 S
H2076 C2094 0.951 . S
H2077 C2096 0.951 . S
H2078 C2098 0.947 1_455 S
H2079 C2099 0.950 . S
H2080 C2101 0.950 . S
H2081 C2104 0.950 . S
H2082 C2105 0.987 . S
H2083 C2107 0.950 . S
H2084 C2108 0.950 . S
H2085 C2109 0.951 . S
H2086 C2111 0.951 . S
H2087 C2113 0.950 . S
H2088 C2114 0.950 . S
H2089 C2116 0.950 . S
H2090 C2119 0.950 . S
H2091 C2120 0.950 . S
H2092 C2122 0.950 . S
H2093 C2123 0.950 . S
C2094 H2076 0.951 . S
C2094 C2095 1.366 . S
C2094 C2096 1.388 1_655 S
C2095 C2094 1.366 . S
C2095 C2099 1.385 . S
C2096 H2077 0.951 . S
C2096 C2094 1.388 1_455 S
C2096 C2097 1.366 . S
C2097 C2096 1.366 . S
C2097 C2098 1.414 1_455 S
C2097 C2100 1.499 . S
C2098 H2078 0.947 1_655 S
C2098 C2097 1.414 1_655 S
C2098 C2099 1.374 . S
C2099 H2079 0.950 . S
C2099 C2095 1.385 . S
C2099 C2098 1.374 . S
C2100 C2097 1.499 . S
C2100 C2101 1.373 . S
C2100 C2102 1.389 . S
C2101 H2080 0.950 . S
C2101 C2100 1.373 . S
C2101 C2117 1.377 . S
C2102 C2100 1.389 . S
C2102 C2103 1.524 . S
C2102 C2116 1.377 . S
C2103 C2102 1.524 . S
C2103 C2104 1.397 . S
C2103 C2108 1.363 . S
C2104 H2081 0.950 . S
C2104 C2103 1.397 . S
C2104 C2105 1.334 . S
C2105 H2082 0.987 . S
C2105 C2104 1.334 . S
C2105 C2106 1.287 . S
C2106 C2105 1.287 . S
C2106 C2107 1.524 . S
C2106 H2125 0.913 . S
C2107 H2083 0.950 . S
C2107 C2106 1.524 . S
C2107 C2108 1.415 . S
C2108 H2084 0.950 . S
C2108 C2103 1.363 . S
C2108 C2107 1.415 . S
C2109 H2085 0.951 . S
C2109 C2110 1.366 . S
C2109 C2111 1.388 . S
C2110 C2109 1.366 . S
C2110 C2114 1.385 . S
C2111 H2086 0.951 . S
C2111 C2109 1.388 . S
C2111 C2112 1.366 . S
C2112 C2111 1.366 . S
C2112 C2113 1.414 . S
C2112 C2115 1.499 . S
C2113 H2087 0.950 . S
C2113 C2112 1.414 . S
C2113 C2114 1.374 . S
C2114 H2088 0.950 . S
C2114 C2110 1.385 . S
C2114 C2113 1.374 . S
C2115 C2112 1.499 . S
C2115 C2116 1.373 . S
C2115 C2117 1.389 . S
C2116 H2089 0.950 . S
C2116 C2102 1.377 . S
C2116 C2115 1.373 . S
C2117 C2101 1.377 . S
C2117 C2115 1.389 . S
C2117 C2118 1.524 . S
C2118 C2117 1.524 . S
C2118 C2119 1.397 . S
C2118 C2123 1.363 . S
C2119 H2090 0.950 . S
C2119 C2118 1.397 . S
C2119 C2120 1.334 . S
C2120 H2091 0.950 . S
C2120 C2119 1.334 . S
C2120 C2121 1.287 . S
C2121 C2120 1.287 . S
C2121 C2122 1.524 . S
C2121 H2124 0.999 . S
C2122 H2092 0.950 . S
C2122 C2121 1.524 . S
C2122 C2123 1.415 . S
C2123 H2093 0.950 . S
C2123 C2118 1.363 . S
C2123 C2122 1.415 . S
H2124 C2121 0.999 . S
H2125 C2106 0.913 . S
H2126 C2144 0.951 . S
H2127 C2146 0.951 . S
H2128 C2148 0.950 . S
H2129 C2149 0.950 . S
H2130 C2151 0.950 . S
H2131 C2154 0.950 . S
H2132 C2155 0.950 . S
H2133 C2157 0.950 . S
H2134 C2158 0.950 . S
H2135 C2159 0.951 . S
H2136 C2161 0.951 . S
H2137 C2163 0.950 . S
H2138 C2164 0.950 . S
H2139 C2166 0.950 . S
H2140 C2169 0.950 . S
H2141 C2170 0.950 . S
H2142 C2172 0.950 . S
H2143 C2173 0.950 . S
C2144 H2126 0.951 . S
C2144 C2145 1.366 . S
C2144 C2146 1.388 . S
C2145 C2144 1.366 . S
C2145 C2149 1.385 . S
C2146 H2127 0.951 . S
C2146 C2144 1.388 . S
C2146 C2147 1.366 . S
C2147 C2146 1.366 . S
C2147 C2148 1.414 . S
C2147 C2150 1.499 . S
C2148 H2128 0.950 . S
C2148 C2147 1.414 . S
C2148 C2149 1.374 . S
C2149 H2129 0.950 . S
C2149 C2145 1.385 . S
C2149 C2148 1.374 . S
C2150 C2147 1.499 . S
C2150 C2151 1.373 . S
C2150 C2152 1.389 . S
C2151 H2130 0.950 . S
C2151 C2150 1.373 . S
C2151 C2167 1.377 . S
C2152 C2150 1.389 . S
C2152 C2153 1.524 . S
C2152 C2166 1.377 . S
C2153 C2152 1.524 . S
C2153 C2154 1.397 . S
C2153 C2158 1.363 . S
C2154 H2131 0.950 . S
C2154 C2153 1.397 . S
C2154 C2155 1.334 . S
C2155 H2132 0.950 . S
C2155 C2154 1.334 . S
C2155 C2156 1.287 . S
C2156 C2155 1.287 . S
C2156 C2157 1.524 . S
C2156 H2175 0.913 . S
C2157 H2133 0.950 . S
C2157 C2156 1.524 . S
C2157 C2158 1.415 . S
C2158 H2134 0.950 . S
C2158 C2153 1.363 . S
C2158 C2157 1.415 . S
C2159 H2135 0.951 . S
C2159 C2160 1.366 . S
C2159 C2161 1.388 . S
C2160 C2159 1.366 . S
C2160 C2164 1.385 . S
C2161 H2136 0.951 . S
C2161 C2159 1.388 . S
C2161 C2162 1.366 . S
C2162 C2161 1.366 . S
C2162 C2163 1.414 . S
C2162 C2165 1.499 . S
C2163 H2137 0.950 . S
C2163 C2162 1.414 . S
C2163 C2164 1.374 . S
C2164 H2138 0.950 . S
C2164 C2160 1.385 . S
C2164 C2163 1.374 . S
C2165 C2162 1.499 . S
C2165 C2166 1.373 . S
C2165 C2167 1.389 . S
C2166 H2139 0.950 . S
C2166 C2152 1.377 . S
C2166 C2165 1.373 . S
C2167 C2151 1.377 . S
C2167 C2165 1.389 . S
C2167 C2168 1.524 . S
C2168 C2167 1.524 . S
C2168 C2169 1.397 . S
C2168 C2173 1.363 . S
C2169 H2140 0.950 . S
C2169 C2168 1.397 . S
C2169 C2170 1.334 . S
C2170 H2141 0.950 . S
C2170 C2169 1.334 . S
C2170 C2171 1.287 . S
C2171 C2170 1.287 . S
C2171 C2172 1.524 . S
C2171 H2174 0.999 . S
C2172 H2142 0.950 . S
C2172 C2171 1.524 . S
C2172 C2173 1.415 . S
C2173 H2143 0.950 . S
C2173 C2168 1.363 . S
C2173 C2172 1.415 . S
H2174 C2171 0.999 . S
H2175 C2156 0.913 . S
H2176 C2194 0.951 . S
H2177 C2196 0.951 . S
H2178 C2198 0.950 . S
H2179 C2199 0.950 . S
H2180 C2201 0.950 . S
H2181 C2204 0.950 . S
H2182 C2205 0.950 1_545 S
H2183 C2207 0.950 . S
H2184 C2208 0.950 . S
H2185 C2209 0.951 . S
H2186 C2211 0.951 . S
H2187 C2213 0.950 . S
H2188 C2214 0.950 . S
H2189 C2216 0.950 . S
H2190 C2219 0.950 . S
H2191 C2220 0.950 . S
H2192 C2222 0.950 . S
H2193 C2223 0.950 . S
C2194 H2176 0.951 . S
C2194 C2195 1.366 . S
C2194 C2196 1.388 1_545 S
C2195 C2194 1.366 . S
C2195 C2199 1.385 . S
C2196 H2177 0.951 . S
C2196 C2194 1.388 1_565 S
C2196 C2197 1.366 . S
C2197 C2196 1.366 . S
C2197 C2198 1.414 1_565 S
C2197 C2200 1.499 . S
C2198 H2178 0.950 . S
C2198 C2197 1.414 1_545 S
C2198 C2199 1.374 . S
C2199 H2179 0.950 . S
C2199 C2195 1.385 . S
C2199 C2198 1.374 . S
C2200 C2197 1.499 . S
C2200 C2201 1.373 . S
C2200 C2202 1.389 . S
C2201 H2180 0.950 . S
C2201 C2200 1.373 . S
C2201 C2217 1.377 . S
C2202 C2200 1.389 . S
C2202 C2203 1.524 . S
C2202 C2216 1.377 . S
C2203 C2202 1.524 . S
C2203 C2204 1.397 . S
C2203 C2208 1.363 . S
C2204 H2181 0.950 . S
C2204 C2203 1.397 . S
C2204 C2205 1.334 . S
C2205 H2182 0.950 1_565 S
C2205 C2204 1.334 . S
C2205 C2206 1.287 . S
C2206 C2205 1.287 . S
C2206 C2207 1.524 . S
C2206 H2225 0.913 . S
C2207 H2183 0.950 . S
C2207 C2206 1.524 . S
C2207 C2208 1.415 . S
C2208 H2184 0.950 . S
C2208 C2203 1.363 . S
C2208 C2207 1.415 . S
C2209 H2185 0.951 . S
C2209 C2210 1.366 . S
C2209 C2211 1.388 . S
C2210 C2209 1.366 . S
C2210 C2214 1.385 . S
C2211 H2186 0.951 . S
C2211 C2209 1.388 . S
C2211 C2212 1.366 . S
C2212 C2211 1.366 . S
C2212 C2213 1.414 . S
C2212 C2215 1.499 . S
C2213 H2187 0.950 . S
C2213 C2212 1.414 . S
C2213 C2214 1.374 . S
C2214 H2188 0.950 . S
C2214 C2210 1.385 . S
C2214 C2213 1.374 . S
C2215 C2212 1.499 . S
C2215 C2216 1.373 . S
C2215 C2217 1.389 . S
C2216 H2189 0.950 . S
C2216 C2202 1.377 . S
C2216 C2215 1.373 . S
C2217 C2201 1.377 . S
C2217 C2215 1.389 . S
C2217 C2218 1.524 . S
C2218 C2217 1.524 . S
C2218 C2219 1.397 . S
C2218 C2223 1.363 . S
C2219 H2190 0.950 . S
C2219 C2218 1.397 . S
C2219 C2220 1.334 . S
C2220 H2191 0.950 . S
C2220 C2219 1.334 . S
C2220 C2221 1.287 . S
C2221 C2220 1.287 . S
C2221 C2222 1.524 . S
C2221 H2224 0.999 . S
C2222 H2192 0.950 . S
C2222 C2221 1.524 . S
C2222 C2223 1.415 . S
C2223 H2193 0.950 . S
C2223 C2218 1.363 . S
C2223 C2222 1.415 . S
H2224 C2221 0.999 . S
H2225 C2206 0.913 . S
H2226 C2244 0.951 . S
H2227 C2246 0.951 . S
H2228 C2248 0.950 . S
H2229 C2249 0.950 . S
H2230 C2251 0.950 . S
H2231 C2254 0.950 . S
H2232 C2255 0.950 . S
H2233 C2257 0.950 . S
H2234 C2258 0.950 . S
H2235 C2259 0.951 . S
H2236 C2261 0.951 . S
H2237 C2263 0.950 . S
H2238 C2264 0.950 . S
H2239 C2266 0.950 . S
H2240 C2269 0.950 . S
H2241 C2270 0.950 . S
H2242 C2272 0.950 . S
H2243 C2273 0.950 . S
C2244 H2226 0.951 . S
C2244 C2245 1.366 . S
C2244 C2246 1.388 . S
C2245 C2244 1.366 . S
C2245 C2249 1.385 . S
C2246 H2227 0.951 . S
C2246 C2244 1.388 . S
C2246 C2247 1.366 . S
C2247 C2246 1.366 . S
C2247 C2248 1.414 . S
C2247 C2250 1.499 . S
C2248 H2228 0.950 . S
C2248 C2247 1.414 . S
C2248 C2249 1.374 . S
C2249 H2229 0.950 . S
C2249 C2245 1.385 . S
C2249 C2248 1.374 . S
C2250 C2247 1.499 . S
C2250 C2251 1.373 . S
C2250 C2252 1.389 . S
C2251 H2230 0.950 . S
C2251 C2250 1.373 . S
C2251 C2267 1.377 . S
C2252 C2250 1.389 . S
C2252 C2253 1.524 . S
C2252 C2266 1.377 . S
C2253 C2252 1.524 . S
C2253 C2254 1.397 . S
C2253 C2258 1.363 . S
C2254 H2231 0.950 . S
C2254 C2253 1.397 . S
C2254 C2255 1.334 . S
C2255 H2232 0.950 . S
C2255 C2254 1.334 . S
C2255 C2256 1.287 . S
C2256 C2255 1.287 . S
C2256 C2257 1.524 . S
C2256 H2275 0.913 . S
C2257 H2233 0.950 . S
C2257 C2256 1.524 . S
C2257 C2258 1.415 . S
C2258 H2234 0.950 . S
C2258 C2253 1.363 . S
C2258 C2257 1.415 . S
C2259 H2235 0.951 . S
C2259 C2260 1.366 . S
C2259 C2261 1.388 . S
C2260 C2259 1.366 . S
C2260 C2264 1.385 . S
C2261 H2236 0.951 . S
C2261 C2259 1.388 . S
C2261 C2262 1.366 . S
C2262 C2261 1.366 . S
C2262 C2263 1.414 . S
C2262 C2265 1.499 . S
C2263 H2237 0.950 . S
C2263 C2262 1.414 . S
C2263 C2264 1.374 . S
C2264 H2238 0.950 . S
C2264 C2260 1.385 . S
C2264 C2263 1.374 . S
C2265 C2262 1.499 . S
C2265 C2266 1.373 . S
C2265 C2267 1.389 . S
C2266 H2239 0.950 . S
C2266 C2252 1.377 . S
C2266 C2265 1.373 . S
C2267 C2251 1.377 . S
C2267 C2265 1.389 . S
C2267 C2268 1.524 . S
C2268 C2267 1.524 . S
C2268 C2269 1.397 . S
C2268 C2273 1.363 . S
C2269 H2240 0.950 . S
C2269 C2268 1.397 . S
C2269 C2270 1.334 . S
C2270 H2241 0.950 . S
C2270 C2269 1.334 . S
C2270 C2271 1.287 . S
C2271 C2270 1.287 . S
C2271 C2272 1.524 . S
C2271 H2274 0.999 . S
C2272 H2242 0.950 . S
C2272 C2271 1.524 . S
C2272 C2273 1.415 . S
C2273 H2243 0.950 . S
C2273 C2268 1.363 . S
C2273 C2272 1.415 . S
H2274 C2271 0.999 . S
H2275 C2256 0.913 . S
H2276 C2294 0.951 . S
H2277 C2296 0.951 . S
H2278 C2298 0.950 . S
H2279 C2299 0.950 . S
H2280 C2301 0.950 . S
H2281 C2304 0.950 . S
H2282 C2305 0.950 . S
H2283 C2307 0.950 . S
H2284 C2308 0.950 . S
H2285 C2309 0.951 . S
H2286 C2311 0.951 . S
H2287 C2313 0.950 . S
H2288 C2314 0.950 . S
H2289 C2316 0.950 . S
H2290 C2319 0.950 . S
H2291 C2320 0.950 . S
H2292 C2322 0.950 . S
H2293 C2323 0.950 . S
C2294 H2276 0.951 . S
C2294 C2295 1.366 . S
C2294 C2296 1.388 . S
C2295 C2294 1.366 . S
C2295 C2299 1.385 . S
C2296 H2277 0.951 . S
C2296 C2294 1.388 . S
C2296 C2297 1.366 . S
C2297 C2296 1.366 . S
C2297 C2298 1.414 . S
C2297 C2300 1.499 . S
C2298 H2278 0.950 . S
C2298 C2297 1.414 . S
C2298 C2299 1.374 . S
C2299 H2279 0.950 . S
C2299 C2295 1.385 . S
C2299 C2298 1.374 . S
C2300 C2297 1.499 . S
C2300 C2301 1.373 . S
C2300 C2302 1.389 . S
C2301 H2280 0.950 . S
C2301 C2300 1.373 . S
C2301 C2317 1.377 . S
C2302 C2300 1.389 . S
C2302 C2303 1.524 . S
C2302 C2316 1.377 . S
C2303 C2302 1.524 . S
C2303 C2304 1.397 . S
C2303 C2308 1.363 . S
C2304 H2281 0.950 . S
C2304 C2303 1.397 . S
C2304 C2305 1.334 . S
C2305 H2282 0.950 . S
C2305 C2304 1.334 . S
C2305 C2306 1.287 . S
C2306 C2305 1.287 . S
C2306 C2307 1.524 . S
C2306 H2325 0.913 . S
C2307 H2283 0.950 . S
C2307 C2306 1.524 . S
C2307 C2308 1.415 . S
C2308 H2284 0.950 . S
C2308 C2303 1.363 . S
C2308 C2307 1.415 . S
C2309 H2285 0.951 . S
C2309 C2310 1.366 . S
C2309 C2311 1.388 . S
C2310 C2309 1.366 . S
C2310 C2314 1.385 . S
C2311 H2286 0.951 . S
C2311 C2309 1.388 . S
C2311 C2312 1.366 . S
C2312 C2311 1.366 . S
C2312 C2313 1.414 . S
C2312 C2315 1.499 . S
C2313 H2287 0.950 . S
C2313 C2312 1.414 . S
C2313 C2314 1.374 . S
C2314 H2288 0.950 . S
C2314 C2310 1.385 . S
C2314 C2313 1.374 . S
C2315 C2312 1.499 . S
C2315 C2316 1.373 . S
C2315 C2317 1.389 . S
C2316 H2289 0.950 . S
C2316 C2302 1.377 . S
C2316 C2315 1.373 . S
C2317 C2301 1.377 . S
C2317 C2315 1.389 . S
C2317 C2318 1.524 . S
C2318 C2317 1.524 . S
C2318 C2319 1.397 . S
C2318 C2323 1.363 . S
C2319 H2290 0.950 . S
C2319 C2318 1.397 . S
C2319 C2320 1.334 . S
C2320 H2291 0.950 . S
C2320 C2319 1.334 . S
C2320 C2321 1.287 . S
C2321 C2320 1.287 . S
C2321 C2322 1.524 . S
C2321 H2324 0.999 . S
C2322 H2292 0.950 . S
C2322 C2321 1.524 . S
C2322 C2323 1.415 . S
C2323 H2293 0.950 . S
C2323 C2318 1.363 . S
C2323 C2322 1.415 . S
H2324 C2321 0.999 . S
H2325 C2306 0.913 . S
H2326 C2344 0.951 . S
H2327 C2346 0.951 . S
H2328 C2348 0.950 . S
H2329 C2349 0.950 . S
H2330 C2351 0.950 . S
H2331 C2354 0.950 . S
H2332 C2355 0.950 . S
H2333 C2357 0.950 . S
H2334 C2358 0.950 . S
H2335 C2359 0.951 . S
H2336 C2361 0.951 . S
H2337 C2363 0.950 . S
H2338 C2364 0.950 . S
H2339 C2366 0.950 . S
H2340 C2369 0.950 . S
H2341 C2370 0.950 . S
H2342 C2372 0.950 . S
H2343 C2373 0.950 . S
C2344 H2326 0.951 . S
C2344 C2345 1.366 . S
C2344 C2346 1.388 . S
C2345 C2344 1.366 . S
C2345 C2349 1.385 . S
C2346 H2327 0.951 . S
C2346 C2344 1.388 . S
C2346 C2347 1.366 . S
C2347 C2346 1.366 . S
C2347 C2348 1.414 . S
C2347 C2350 1.499 . S
C2348 H2328 0.950 . S
C2348 C2347 1.414 . S
C2348 C2349 1.374 . S
C2349 H2329 0.950 . S
C2349 C2345 1.385 . S
C2349 C2348 1.374 . S
C2350 C2347 1.499 . S
C2350 C2351 1.373 . S
C2350 C2352 1.389 . S
C2351 H2330 0.950 . S
C2351 C2350 1.373 . S
C2351 C2367 1.377 . S
C2352 C2350 1.389 . S
C2352 C2353 1.524 . S
C2352 C2366 1.377 . S
C2353 C2352 1.524 . S
C2353 C2354 1.397 . S
C2353 C2358 1.363 . S
C2354 H2331 0.950 . S
C2354 C2353 1.397 . S
C2354 C2355 1.334 . S
C2355 H2332 0.950 . S
C2355 C2354 1.334 . S
C2355 C2356 1.287 . S
C2356 C2355 1.287 . S
C2356 C2357 1.524 . S
C2356 H2375 0.913 . S
C2357 H2333 0.950 . S
C2357 C2356 1.524 . S
C2357 C2358 1.415 . S
C2358 H2334 0.950 . S
C2358 C2353 1.363 . S
C2358 C2357 1.415 . S
C2359 H2335 0.951 . S
C2359 C2360 1.366 . S
C2359 C2361 1.388 . S
C2360 C2359 1.366 . S
C2360 C2364 1.385 . S
C2361 H2336 0.951 . S
C2361 C2359 1.388 . S
C2361 C2362 1.366 . S
C2362 C2361 1.366 . S
C2362 C2363 1.414 . S
C2362 C2365 1.499 . S
C2363 H2337 0.950 . S
C2363 C2362 1.414 . S
C2363 C2364 1.374 . S
C2364 H2338 0.950 . S
C2364 C2360 1.385 . S
C2364 C2363 1.374 . S
C2365 C2362 1.499 . S
C2365 C2366 1.373 . S
C2365 C2367 1.389 . S
C2366 H2339 0.950 . S
C2366 C2352 1.377 . S
C2366 C2365 1.373 . S
C2367 C2351 1.377 . S
C2367 C2365 1.389 . S
C2367 C2368 1.524 . S
C2368 C2367 1.524 . S
C2368 C2369 1.397 . S
C2368 C2373 1.363 . S
C2369 H2340 0.950 . S
C2369 C2368 1.397 . S
C2369 C2370 1.334 . S
C2370 H2341 0.950 . S
C2370 C2369 1.334 . S
C2370 C2371 1.287 . S
C2371 C2370 1.287 . S
C2371 C2372 1.524 . S
C2371 H2374 0.999 . S
C2372 H2342 0.950 . S
C2372 C2371 1.524 . S
C2372 C2373 1.415 . S
C2373 H2343 0.950 . S
C2373 C2368 1.363 . S
C2373 C2372 1.415 . S
H2374 C2371 0.999 . S
H2375 C2356 0.913 . S
H2376 C2394 0.951 . S
H2377 C2396 0.951 . S
H2378 C2398 0.950 . S
H2379 C2399 0.950 . S
H2380 C2401 0.950 . S
H2381 C2404 0.950 . S
H2382 C2405 0.950 . S
H2383 C2407 0.950 . S
H2384 C2408 0.950 . S
H2385 C2409 0.951 . S
H2386 C2411 0.951 . S
H2387 C2413 0.950 . S
H2388 C2414 0.950 . S
H2389 C2416 0.950 . S
H2390 C2419 0.950 . S
H2391 C2420 0.950 . S
H2392 C2422 0.950 . S
H2393 C2423 0.950 . S
C2394 H2376 0.951 . S
C2394 C2395 1.366 . S
C2394 C2396 1.388 . S
C2395 C2394 1.366 . S
C2395 C2399 1.385 . S
C2396 H2377 0.951 . S
C2396 C2394 1.388 . S
C2396 C2397 1.366 . S
C2397 C2396 1.366 . S
C2397 C2398 1.414 . S
C2397 C2400 1.499 . S
C2398 H2378 0.950 . S
C2398 C2397 1.414 . S
C2398 C2399 1.374 . S
C2399 H2379 0.950 . S
C2399 C2395 1.385 . S
C2399 C2398 1.374 . S
C2400 C2397 1.499 . S
C2400 C2401 1.373 . S
C2400 C2402 1.389 . S
C2401 H2380 0.950 . S
C2401 C2400 1.373 . S
C2401 C2417 1.377 . S
C2402 C2400 1.389 . S
C2402 C2403 1.524 . S
C2402 C2416 1.377 . S
C2403 C2402 1.524 . S
C2403 C2404 1.397 . S
C2403 C2408 1.363 . S
C2404 H2381 0.950 . S
C2404 C2403 1.397 . S
C2404 C2405 1.334 . S
C2405 H2382 0.950 . S
C2405 C2404 1.334 . S
C2405 C2406 1.287 . S
C2406 C2405 1.287 . S
C2406 C2407 1.524 . S
C2406 H2425 0.913 . S
C2407 H2383 0.950 . S
C2407 C2406 1.524 . S
C2407 C2408 1.415 . S
C2408 H2384 0.950 . S
C2408 C2403 1.363 . S
C2408 C2407 1.415 . S
C2409 H2385 0.951 . S
C2409 C2410 1.366 . S
C2409 C2411 1.388 . S
C2410 C2409 1.366 . S
C2410 C2414 1.385 . S
C2411 H2386 0.951 . S
C2411 C2409 1.388 . S
C2411 C2412 1.366 . S
C2412 C2411 1.366 . S
C2412 C2413 1.414 . S
C2412 C2415 1.499 . S
C2413 H2387 0.950 . S
C2413 C2412 1.414 . S
C2413 C2414 1.374 . S
C2414 H2388 0.950 . S
C2414 C2410 1.385 . S
C2414 C2413 1.374 . S
C2415 C2412 1.499 . S
C2415 C2416 1.373 . S
C2415 C2417 1.389 . S
C2416 H2389 0.950 . S
C2416 C2402 1.377 . S
C2416 C2415 1.373 . S
C2417 C2401 1.377 . S
C2417 C2415 1.389 . S
C2417 C2418 1.524 . S
C2418 C2417 1.524 . S
C2418 C2419 1.397 . S
C2418 C2423 1.363 . S
C2419 H2390 0.950 . S
C2419 C2418 1.397 . S
C2419 C2420 1.334 . S
C2420 H2391 0.950 . S
C2420 C2419 1.334 . S
C2420 C2421 1.287 . S
C2421 C2420 1.287 . S
C2421 C2422 1.524 . S
C2421 H2424 0.999 . S
C2422 H2392 0.950 . S
C2422 C2421 1.524 . S
C2422 C2423 1.415 . S
C2423 H2393 0.950 . S
C2423 C2418 1.363 . S
C2423 C2422 1.415 . S
H2424 C2421 0.999 . S
H2425 C2406 0.913 . S
H2426 C2444 0.951 . S
H2427 C2446 0.951 . S
H2428 C2448 0.950 . S
H2429 C2449 0.950 . S
H2430 C2451 0.950 . S
H2431 C2454 0.950 . S
H2432 C2455 0.950 . S
H2433 C2457 0.950 . S
H2434 C2458 0.950 . S
H2435 C2459 0.951 . S
H2436 C2461 0.951 . S
H2437 C2463 0.950 . S
H2438 C2464 0.950 . S
H2439 C2466 0.950 . S
H2440 C2469 0.950 . S
H2441 C2470 0.950 . S
H2442 C2472 0.950 . S
H2443 C2473 0.950 . S
C2444 H2426 0.951 . S
C2444 C2445 1.366 . S
C2444 C2446 1.388 . S
C2445 C2444 1.366 . S
C2445 C2449 1.385 . S
C2446 H2427 0.951 . S
C2446 C2444 1.388 . S
C2446 C2447 1.366 . S
C2447 C2446 1.366 . S
C2447 C2448 1.414 . S
C2447 C2450 1.499 . S
C2448 H2428 0.950 . S
C2448 C2447 1.414 . S
C2448 C2449 1.374 . S
C2449 H2429 0.950 . S
C2449 C2445 1.385 . S
C2449 C2448 1.374 . S
C2450 C2447 1.499 . S
C2450 C2451 1.373 . S
C2450 C2452 1.389 . S
C2451 H2430 0.950 . S
C2451 C2450 1.373 . S
C2451 C2467 1.377 . S
C2452 C2450 1.389 . S
C2452 C2453 1.524 . S
C2452 C2466 1.377 . S
C2453 C2452 1.524 . S
C2453 C2454 1.397 . S
C2453 C2458 1.363 . S
C2454 H2431 0.950 . S
C2454 C2453 1.397 . S
C2454 C2455 1.334 . S
C2455 H2432 0.950 . S
C2455 C2454 1.334 . S
C2455 C2456 1.287 . S
C2456 C2455 1.287 . S
C2456 C2457 1.524 . S
C2456 H2475 0.913 . S
C2457 H2433 0.950 . S
C2457 C2456 1.524 . S
C2457 C2458 1.415 . S
C2458 H2434 0.950 . S
C2458 C2453 1.363 . S
C2458 C2457 1.415 . S
C2459 H2435 0.951 . S
C2459 C2460 1.366 . S
C2459 C2461 1.388 . S
C2460 C2459 1.366 . S
C2460 C2464 1.385 . S
C2461 H2436 0.951 . S
C2461 C2459 1.388 . S
C2461 C2462 1.366 . S
C2462 C2461 1.366 . S
C2462 C2463 1.414 . S
C2462 C2465 1.499 . S
C2463 H2437 0.950 . S
C2463 C2462 1.414 . S
C2463 C2464 1.374 . S
C2464 H2438 0.950 . S
C2464 C2460 1.385 . S
C2464 C2463 1.374 . S
C2465 C2462 1.499 . S
C2465 C2466 1.373 . S
C2465 C2467 1.389 . S
C2466 H2439 0.950 . S
C2466 C2452 1.377 . S
C2466 C2465 1.373 . S
C2467 C2451 1.377 . S
C2467 C2465 1.389 . S
C2467 C2468 1.524 . S
C2468 C2467 1.524 . S
C2468 C2469 1.397 . S
C2468 C2473 1.363 . S
C2469 H2440 0.950 . S
C2469 C2468 1.397 . S
C2469 C2470 1.334 . S
C2470 H2441 0.950 . S
C2470 C2469 1.334 . S
C2470 C2471 1.287 . S
C2471 C2470 1.287 . S
C2471 C2472 1.524 . S
C2471 H2474 0.999 . S
C2472 H2442 0.950 . S
C2472 C2471 1.524 . S
C2472 C2473 1.415 . S
C2473 H2443 0.950 . S
C2473 C2468 1.363 . S
C2473 C2472 1.415 . S
H2474 C2471 0.999 . S
H2475 C2456 0.913 . S
H2476 C2494 0.951 . S
H2477 C2496 0.951 . S
H2478 C2498 0.950 . S
H2479 C2499 0.950 . S
H2480 C2501 0.950 . S
H2481 C2504 0.950 . S
H2482 C2505 0.950 . S
H2483 C2507 0.950 . S
H2484 C2508 0.950 . S
H2485 C2509 0.951 . S
H2486 C2511 0.951 . S
H2487 C2513 0.950 . S
H2488 C2514 0.950 . S
H2489 C2516 0.950 . S
H2490 C2519 0.950 . S
H2491 C2520 0.950 . S
H2492 C2522 0.950 . S
H2493 C2523 0.950 . S
C2494 H2476 0.951 . S
C2494 C2495 1.366 . S
C2494 C2496 1.388 . S
C2495 C2494 1.366 . S
C2495 C2499 1.385 . S
C2496 H2477 0.951 . S
C2496 C2494 1.388 . S
C2496 C2497 1.366 . S
C2497 C2496 1.366 . S
C2497 C2498 1.414 . S
C2497 C2500 1.499 . S
C2498 H2478 0.950 . S
C2498 C2497 1.414 . S
C2498 C2499 1.374 . S
C2499 H2479 0.950 . S
C2499 C2495 1.385 . S
C2499 C2498 1.374 . S
C2500 C2497 1.499 . S
C2500 C2501 1.373 . S
C2500 C2502 1.389 . S
C2501 H2480 0.950 . S
C2501 C2500 1.373 . S
C2501 C2517 1.377 . S
C2502 C2500 1.389 . S
C2502 C2503 1.524 . S
C2502 C2516 1.377 . S
C2503 C2502 1.524 . S
C2503 C2504 1.397 . S
C2503 C2508 1.363 . S
C2504 H2481 0.950 . S
C2504 C2503 1.397 . S
C2504 C2505 1.334 . S
C2505 H2482 0.950 . S
C2505 C2504 1.334 . S
C2505 C2506 1.287 . S
C2506 C2505 1.287 . S
C2506 C2507 1.524 . S
C2506 H2525 0.913 . S
C2507 H2483 0.950 . S
C2507 C2506 1.524 . S
C2507 C2508 1.415 . S
C2508 H2484 0.950 . S
C2508 C2503 1.363 . S
C2508 C2507 1.415 . S
C2509 H2485 0.951 . S
C2509 C2510 1.366 . S
C2509 C2511 1.388 . S
C2510 C2509 1.366 . S
C2510 C2514 1.385 . S
C2511 H2486 0.951 . S
C2511 C2509 1.388 . S
C2511 C2512 1.366 . S
C2512 C2511 1.366 . S
C2512 C2513 1.414 . S
C2512 C2515 1.499 . S
C2513 H2487 0.950 . S
C2513 C2512 1.414 . S
C2513 C2514 1.374 . S
C2514 H2488 0.950 . S
C2514 C2510 1.385 . S
C2514 C2513 1.374 . S
C2515 C2512 1.499 . S
C2515 C2516 1.373 . S
C2515 C2517 1.389 . S
C2516 H2489 0.950 . S
C2516 C2502 1.377 . S
C2516 C2515 1.373 . S
C2517 C2501 1.377 . S
C2517 C2515 1.389 . S
C2517 C2518 1.524 . S
C2518 C2517 1.524 . S
C2518 C2519 1.397 . S
C2518 C2523 1.363 . S
C2519 H2490 0.950 . S
C2519 C2518 1.397 . S
C2519 C2520 1.334 . S
C2520 H2491 0.950 . S
C2520 C2519 1.334 . S
C2520 C2521 1.287 . S
C2521 C2520 1.287 . S
C2521 C2522 1.524 . S
C2521 H2524 0.999 . S
C2522 H2492 0.950 . S
C2522 C2521 1.524 . S
C2522 C2523 1.415 . S
C2523 H2493 0.950 . S
C2523 C2518 1.363 . S
C2523 C2522 1.415 . S
H2524 C2521 0.999 . S
H2525 C2506 0.913 . S
H2526 C2544 0.951 . S
H2527 C2546 0.951 . S
H2528 C2548 0.957 . S
H2529 C2549 0.950 . S
H2530 C2551 0.950 . S
H2531 C2554 0.950 . S
H2532 C2555 0.950 . S
H2533 C2557 0.950 . S
H2534 C2558 0.950 . S
H2535 C2559 0.951 . S
H2536 C2561 0.951 . S
H2537 C2563 0.950 . S
H2538 C2564 0.950 . S
H2539 C2566 0.950 . S
H2540 C2569 0.950 . S
H2541 C2570 0.950 . S
H2542 C2572 0.950 . S
H2543 C2573 0.950 . S
C2544 H2526 0.951 . S
C2544 C2545 1.366 . S
C2544 C2546 1.388 1_545 S
C2545 C2544 1.366 . S
C2545 C2549 1.385 . S
C2546 H2527 0.951 . S
C2546 C2544 1.388 1_565 S
C2546 C2547 1.366 . S
C2547 C2546 1.366 . S
C2547 C2548 1.416 . S
C2547 C2550 1.499 . S
C2548 H2528 0.957 . S
C2548 C2547 1.416 . S
C2548 C2549 1.365 1_565 S
C2549 H2529 0.950 . S
C2549 C2545 1.385 . S
C2549 C2548 1.365 1_545 S
C2550 C2547 1.499 . S
C2550 C2551 1.373 . S
C2550 C2552 1.389 . S
C2551 H2530 0.950 . S
C2551 C2550 1.373 . S
C2551 C2567 1.377 . S
C2552 C2550 1.389 . S
C2552 C2553 1.524 . S
C2552 C2566 1.377 . S
C2553 C2552 1.524 . S
C2553 C2554 1.397 . S
C2553 C2558 1.363 . S
C2554 H2531 0.950 . S
C2554 C2553 1.397 . S
C2554 C2555 1.334 . S
C2555 H2532 0.950 . S
C2555 C2554 1.334 . S
C2555 C2556 1.287 . S
C2556 C2555 1.287 . S
C2556 C2557 1.524 . S
C2556 H2575 0.913 . S
C2557 H2533 0.950 . S
C2557 C2556 1.524 . S
C2557 C2558 1.415 . S
C2558 H2534 0.950 . S
C2558 C2553 1.363 . S
C2558 C2557 1.415 . S
C2559 H2535 0.951 . S
C2559 C2560 1.366 . S
C2559 C2561 1.388 . S
C2560 C2559 1.366 . S
C2560 C2564 1.385 . S
C2561 H2536 0.951 . S
C2561 C2559 1.388 . S
C2561 C2562 1.366 . S
C2562 C2561 1.366 . S
C2562 C2563 1.414 . S
C2562 C2565 1.499 . S
C2563 H2537 0.950 . S
C2563 C2562 1.414 . S
C2563 C2564 1.374 . S
C2564 H2538 0.950 . S
C2564 C2560 1.385 . S
C2564 C2563 1.374 . S
C2565 C2562 1.499 . S
C2565 C2566 1.373 . S
C2565 C2567 1.389 . S
C2566 H2539 0.950 . S
C2566 C2552 1.377 . S
C2566 C2565 1.373 . S
C2567 C2551 1.377 . S
C2567 C2565 1.389 . S
C2567 C2568 1.524 . S
C2568 C2567 1.524 . S
C2568 C2569 1.397 . S
C2568 C2573 1.363 . S
C2569 H2540 0.950 . S
C2569 C2568 1.397 . S
C2569 C2570 1.334 . S
C2570 H2541 0.950 . S
C2570 C2569 1.334 . S
C2570 C2571 1.287 . S
C2571 C2570 1.287 . S
C2571 C2572 1.524 . S
C2571 H2574 0.999 . S
C2572 H2542 0.950 . S
C2572 C2571 1.524 . S
C2572 C2573 1.415 . S
C2573 H2543 0.950 . S
C2573 C2568 1.363 . S
C2573 C2572 1.415 . S
H2574 C2571 0.999 . S
H2575 C2556 0.913 . S
H2576 C2594 0.951 . S
H2577 C2596 0.951 . S
H2578 C2598 0.950 . S
H2579 C2599 0.950 . S
H2580 C2601 0.950 . S
H2581 C2604 0.950 . S
H2582 C2605 0.950 . S
H2583 C2607 0.950 . S
H2584 C2608 0.950 . S
H2585 C2609 0.951 . S
H2586 C2611 0.951 . S
H2587 C2613 0.950 . S
H2588 C2614 0.950 . S
H2589 C2616 0.950 . S
H2590 C2619 0.950 . S
H2591 C2620 0.950 . S
H2592 C2622 0.950 . S
H2593 C2623 0.950 . S
C2594 H2576 0.951 . S
C2594 C2595 1.366 . S
C2594 C2596 1.388 1_655 S
C2595 C2594 1.366 . S
C2595 C2599 1.385 . S
C2596 H2577 0.951 . S
C2596 C2594 1.388 1_455 S
C2596 C2597 1.366 . S
C2597 C2596 1.366 . S
C2597 C2598 1.414 . S
C2597 C2600 1.499 . S
C2598 H2578 0.950 . S
C2598 C2597 1.414 . S
C2598 C2599 1.374 1_455 S
C2599 H2579 0.950 . S
C2599 C2595 1.385 . S
C2599 C2598 1.374 1_655 S
C2600 C2597 1.499 . S
C2600 C2601 1.373 . S
C2600 C2602 1.389 . S
C2601 H2580 0.950 . S
C2601 C2600 1.373 . S
C2601 C2617 1.377 . S
C2602 C2600 1.389 . S
C2602 C2603 1.524 . S
C2602 C2616 1.377 . S
C2603 C2602 1.524 . S
C2603 C2604 1.397 . S
C2603 C2608 1.363 . S
C2604 H2581 0.950 . S
C2604 C2603 1.397 . S
C2604 C2605 1.334 . S
C2605 H2582 0.950 . S
C2605 C2604 1.334 . S
C2605 C2606 1.287 . S
C2606 C2605 1.287 . S
C2606 C2607 1.524 . S
C2606 H2625 0.913 . S
C2607 H2583 0.950 . S
C2607 C2606 1.524 . S
C2607 C2608 1.415 . S
C2608 H2584 0.950 . S
C2608 C2603 1.363 . S
C2608 C2607 1.415 . S
C2609 H2585 0.951 . S
C2609 C2610 1.366 . S
C2609 C2611 1.388 . S
C2610 C2609 1.366 . S
C2610 C2614 1.385 . S
C2611 H2586 0.951 . S
C2611 C2609 1.388 . S
C2611 C2612 1.366 . S
C2612 C2611 1.366 . S
C2612 C2613 1.414 . S
C2612 C2615 1.499 . S
C2613 H2587 0.950 . S
C2613 C2612 1.414 . S
C2613 C2614 1.374 . S
C2614 H2588 0.950 . S
C2614 C2610 1.385 . S
C2614 C2613 1.374 . S
C2615 C2612 1.499 . S
C2615 C2616 1.373 . S
C2615 C2617 1.389 . S
C2616 H2589 0.950 . S
C2616 C2602 1.377 . S
C2616 C2615 1.373 . S
C2617 C2601 1.377 . S
C2617 C2615 1.389 . S
C2617 C2618 1.524 . S
C2618 C2617 1.524 . S
C2618 C2619 1.397 . S
C2618 C2623 1.363 . S
C2619 H2590 0.950 . S
C2619 C2618 1.397 . S
C2619 C2620 1.334 . S
C2620 H2591 0.950 . S
C2620 C2619 1.334 . S
C2620 C2621 1.287 . S
C2621 C2620 1.287 . S
C2621 C2622 1.524 . S
C2621 H2624 0.999 . S
C2622 H2592 0.950 . S
C2622 C2621 1.524 . S
C2622 C2623 1.415 . S
C2623 H2593 0.950 . S
C2623 C2618 1.363 . S
C2623 C2622 1.415 . S
H2624 C2621 0.999 . S
H2625 C2606 0.913 . S
H2626 C2644 0.951 . S
H2627 C2646 0.951 . S
H2628 C2648 0.950 . S
H2629 C2649 0.950 . S
H2630 C2651 0.950 . S
H2631 C2654 0.950 . S
H2632 C2655 0.950 . S
H2633 C2657 0.950 . S
H2634 C2658 0.950 . S
H2635 C2659 0.951 . S
H2636 C2661 0.951 . S
H2637 C2663 0.950 . S
H2638 C2664 0.950 . S
H2639 C2666 0.950 . S
H2640 C2669 0.950 . S
H2641 C2670 0.950 . S
H2642 C2672 0.950 . S
H2643 C2673 0.950 . S
C2644 H2626 0.951 . S
C2644 C2645 1.366 . S
C2644 C2646 1.388 . S
C2645 C2644 1.366 . S
C2645 C2649 1.385 . S
C2646 H2627 0.951 . S
C2646 C2644 1.388 . S
C2646 C2647 1.366 . S
C2647 C2646 1.366 . S
C2647 C2648 1.414 . S
C2647 C2650 1.499 . S
C2648 H2628 0.950 . S
C2648 C2647 1.414 . S
C2648 C2649 1.374 . S
C2649 H2629 0.950 . S
C2649 C2645 1.385 . S
C2649 C2648 1.374 . S
C2650 C2647 1.499 . S
C2650 C2651 1.373 . S
C2650 C2652 1.389 . S
C2651 H2630 0.950 . S
C2651 C2650 1.373 . S
C2651 C2667 1.377 . S
C2652 C2650 1.389 . S
C2652 C2653 1.524 . S
C2652 C2666 1.377 . S
C2653 C2652 1.524 . S
C2653 C2654 1.397 . S
C2653 C2658 1.363 . S
C2654 H2631 0.950 . S
C2654 C2653 1.397 . S
C2654 C2655 1.334 . S
C2655 H2632 0.950 . S
C2655 C2654 1.334 . S
C2655 C2656 1.287 . S
C2656 C2655 1.287 . S
C2656 C2657 1.524 . S
C2656 H2675 0.913 . S
C2657 H2633 0.950 . S
C2657 C2656 1.524 . S
C2657 C2658 1.415 . S
C2658 H2634 0.950 . S
C2658 C2653 1.363 . S
C2658 C2657 1.415 . S
C2659 H2635 0.951 . S
C2659 C2660 1.366 . S
C2659 C2661 1.388 . S
C2660 C2659 1.366 . S
C2660 C2664 1.385 . S
C2661 H2636 0.951 . S
C2661 C2659 1.388 . S
C2661 C2662 1.366 . S
C2662 C2661 1.366 . S
C2662 C2663 1.414 . S
C2662 C2665 1.499 . S
C2663 H2637 0.950 . S
C2663 C2662 1.414 . S
C2663 C2664 1.374 . S
C2664 H2638 0.950 . S
C2664 C2660 1.385 . S
C2664 C2663 1.374 . S
C2665 C2662 1.499 . S
C2665 C2666 1.373 . S
C2665 C2667 1.389 . S
C2666 H2639 0.950 . S
C2666 C2652 1.377 . S
C2666 C2665 1.373 . S
C2667 C2651 1.377 . S
C2667 C2665 1.389 . S
C2667 C2668 1.524 . S
C2668 C2667 1.524 . S
C2668 C2669 1.397 . S
C2668 C2673 1.363 . S
C2669 H2640 0.950 . S
C2669 C2668 1.397 . S
C2669 C2670 1.334 . S
C2670 H2641 0.950 . S
C2670 C2669 1.334 . S
C2670 C2671 1.287 . S
C2671 C2670 1.287 . S
C2671 C2672 1.524 . S
C2671 H2674 0.999 . S
C2672 H2642 0.950 . S
C2672 C2671 1.524 . S
C2672 C2673 1.415 . S
C2673 H2643 0.950 . S
C2673 C2668 1.363 . S
C2673 C2672 1.415 . S
H2674 C2671 0.999 . S
H2675 C2656 0.913 . S
H2676 C2694 0.951 . S
H2677 C2696 0.951 . S
H2678 C2698 0.950 . S
H2679 C2699 0.950 . S
H2680 C2701 0.950 . S
H2681 C2704 0.950 . S
H2682 C2705 0.950 . S
H2683 C2707 0.950 . S
H2684 C2708 0.950 . S
H2685 C2709 0.951 . S
H2686 C2711 0.951 . S
H2687 C2713 0.950 . S
H2688 C2714 0.950 . S
H2689 C2716 0.950 . S
H2690 C2719 0.950 . S
H2691 C2720 0.950 . S
H2692 C2722 0.950 . S
H2693 C2723 0.950 . S
C2694 H2676 0.951 . S
C2694 C2695 1.366 . S
C2694 C2696 1.388 . S
C2695 C2694 1.366 . S
C2695 C2699 1.385 . S
C2696 H2677 0.951 . S
C2696 C2694 1.388 . S
C2696 C2697 1.366 . S
C2697 C2696 1.366 . S
C2697 C2698 1.414 . S
C2697 C2700 1.499 . S
C2698 H2678 0.950 . S
C2698 C2697 1.414 . S
C2698 C2699 1.374 . S
C2699 H2679 0.950 . S
C2699 C2695 1.385 . S
C2699 C2698 1.374 . S
C2700 C2697 1.499 . S
C2700 C2701 1.373 . S
C2700 C2702 1.389 . S
C2701 H2680 0.950 . S
C2701 C2700 1.373 . S
C2701 C2717 1.377 . S
C2702 C2700 1.389 . S
C2702 C2703 1.524 . S
C2702 C2716 1.377 . S
C2703 C2702 1.524 . S
C2703 C2704 1.397 . S
C2703 C2708 1.363 . S
C2704 H2681 0.950 . S
C2704 C2703 1.397 . S
C2704 C2705 1.334 . S
C2705 H2682 0.950 . S
C2705 C2704 1.334 . S
C2705 C2706 1.287 . S
C2706 C2705 1.287 . S
C2706 C2707 1.524 . S
C2706 H2725 0.913 . S
C2707 H2683 0.950 . S
C2707 C2706 1.524 . S
C2707 C2708 1.415 . S
C2708 H2684 0.950 . S
C2708 C2703 1.363 . S
C2708 C2707 1.415 . S
C2709 H2685 0.951 . S
C2709 C2710 1.366 . S
C2709 C2711 1.388 . S
C2710 C2709 1.366 . S
C2710 C2714 1.385 . S
C2711 H2686 0.951 . S
C2711 C2709 1.388 . S
C2711 C2712 1.366 . S
C2712 C2711 1.366 . S
C2712 C2713 1.414 . S
C2712 C2715 1.499 . S
C2713 H2687 0.950 . S
C2713 C2712 1.414 . S
C2713 C2714 1.374 . S
C2714 H2688 0.950 . S
C2714 C2710 1.385 . S
C2714 C2713 1.374 . S
C2715 C2712 1.499 . S
C2715 C2716 1.373 . S
C2715 C2717 1.389 . S
C2716 H2689 0.950 . S
C2716 C2702 1.377 . S
C2716 C2715 1.373 . S
C2717 C2701 1.377 . S
C2717 C2715 1.389 . S
C2717 C2718 1.524 . S
C2718 C2717 1.524 . S
C2718 C2719 1.397 . S
C2718 C2723 1.363 . S
C2719 H2690 0.950 . S
C2719 C2718 1.397 . S
C2719 C2720 1.334 . S
C2720 H2691 0.950 . S
C2720 C2719 1.334 . S
C2720 C2721 1.287 . S
C2721 C2720 1.287 . S
C2721 C2722 1.524 . S
C2721 H2724 0.999 . S
C2722 H2692 0.950 . S
C2722 C2721 1.524 . S
C2722 C2723 1.415 . S
C2723 H2693 0.950 . S
C2723 C2718 1.363 . S
C2723 C2722 1.415 . S
H2724 C2721 0.999 . S
H2725 C2706 0.913 . S
H2726 C2744 0.951 . S
H2727 C2746 0.951 . S
H2728 C2748 0.950 . S
H2729 C2749 0.950 . S
H2730 C2751 0.950 . S
H2731 C2754 0.950 . S
H2732 C2755 0.950 . S
H2733 C2757 0.950 . S
H2734 C2758 0.950 . S
H2735 C2759 0.951 . S
H2736 C2761 0.951 . S
H2737 C2763 0.950 . S
H2738 C2764 0.950 . S
H2739 C2766 0.950 . S
H2740 C2769 0.950 . S
H2741 C2770 0.950 . S
H2742 C2772 0.950 . S
H2743 C2773 0.950 . S
C2744 H2726 0.951 . S
C2744 C2745 1.366 . S
C2744 C2746 1.388 . S
C2745 C2744 1.366 . S
C2745 C2749 1.385 . S
C2746 H2727 0.951 . S
C2746 C2744 1.388 . S
C2746 C2747 1.366 . S
C2747 C2746 1.366 . S
C2747 C2748 1.414 . S
C2747 C2750 1.499 . S
C2748 H2728 0.950 . S
C2748 C2747 1.414 . S
C2748 C2749 1.374 . S
C2749 H2729 0.950 . S
C2749 C2745 1.385 . S
C2749 C2748 1.374 . S
C2750 C2747 1.499 . S
C2750 C2751 1.373 . S
C2750 C2752 1.389 . S
C2751 H2730 0.950 . S
C2751 C2750 1.373 . S
C2751 C2767 1.377 . S
C2752 C2750 1.389 . S
C2752 C2753 1.524 . S
C2752 C2766 1.377 . S
C2753 C2752 1.524 . S
C2753 C2754 1.397 . S
C2753 C2758 1.363 . S
C2754 H2731 0.950 . S
C2754 C2753 1.397 . S
C2754 C2755 1.334 . S
C2755 H2732 0.950 . S
C2755 C2754 1.334 . S
C2755 C2756 1.287 . S
C2756 C2755 1.287 . S
C2756 C2757 1.524 . S
C2756 H2775 0.913 . S
C2757 H2733 0.950 . S
C2757 C2756 1.524 . S
C2757 C2758 1.415 . S
C2758 H2734 0.950 . S
C2758 C2753 1.363 . S
C2758 C2757 1.415 . S
C2759 H2735 0.951 . S
C2759 C2760 1.366 . S
C2759 C2761 1.388 . S
C2760 C2759 1.366 . S
C2760 C2764 1.385 . S
C2761 H2736 0.951 . S
C2761 C2759 1.388 . S
C2761 C2762 1.366 . S
C2762 C2761 1.366 . S
C2762 C2763 1.414 . S
C2762 C2765 1.499 . S
C2763 H2737 0.950 . S
C2763 C2762 1.414 . S
C2763 C2764 1.374 . S
C2764 H2738 0.950 . S
C2764 C2760 1.385 . S
C2764 C2763 1.374 . S
C2765 C2762 1.499 . S
C2765 C2766 1.373 . S
C2765 C2767 1.389 . S
C2766 H2739 0.950 . S
C2766 C2752 1.377 . S
C2766 C2765 1.373 . S
C2767 C2751 1.377 . S
C2767 C2765 1.389 . S
C2767 C2768 1.524 . S
C2768 C2767 1.524 . S
C2768 C2769 1.397 . S
C2768 C2773 1.363 . S
C2769 H2740 0.950 . S
C2769 C2768 1.397 . S
C2769 C2770 1.334 . S
C2770 H2741 0.950 . S
C2770 C2769 1.334 . S
C2770 C2771 1.287 . S
C2771 C2770 1.287 . S
C2771 C2772 1.524 . S
C2771 H2774 0.999 . S
C2772 H2742 0.950 . S
C2772 C2771 1.524 . S
C2772 C2773 1.415 . S
C2773 H2743 0.950 . S
C2773 C2768 1.363 . S
C2773 C2772 1.415 . S
H2774 C2771 0.999 . S
H2775 C2756 0.913 . S
H2776 C2794 0.951 . S
H2777 C2796 0.951 . S
H2778 C2798 0.950 . S
H2779 C2799 0.950 . S
H2780 C2801 0.950 . S
H2781 C2804 0.950 . S
H2782 C2805 0.950 . S
H2783 C2807 0.950 . S
H2784 C2808 0.950 . S
H2785 C2809 0.951 . S
H2786 C2811 0.951 . S
H2787 C2813 0.950 . S
H2788 C2814 0.950 . S
H2789 C2816 0.950 . S
H2790 C2819 0.950 . S
H2791 C2820 0.950 . S
H2792 C2822 0.950 . S
H2793 C2823 0.950 . S
C2794 H2776 0.951 . S
C2794 C2795 1.366 . S
C2794 C2796 1.388 . S
C2795 C2794 1.366 . S
C2795 C2799 1.385 . S
C2796 H2777 0.951 . S
C2796 C2794 1.388 . S
C2796 C2797 1.366 . S
C2797 C2796 1.366 . S
C2797 C2798 1.414 . S
C2797 C2800 1.499 . S
C2798 H2778 0.950 . S
C2798 C2797 1.414 . S
C2798 C2799 1.374 . S
C2799 H2779 0.950 . S
C2799 C2795 1.385 . S
C2799 C2798 1.374 . S
C2800 C2797 1.499 . S
C2800 C2801 1.373 . S
C2800 C2802 1.389 . S
C2801 H2780 0.950 . S
C2801 C2800 1.373 . S
C2801 C2817 1.377 . S
C2802 C2800 1.389 . S
C2802 C2803 1.524 . S
C2802 C2816 1.377 . S
C2803 C2802 1.524 . S
C2803 C2804 1.397 . S
C2803 C2808 1.363 . S
C2804 H2781 0.950 . S
C2804 C2803 1.397 . S
C2804 C2805 1.334 . S
C2805 H2782 0.950 . S
C2805 C2804 1.334 . S
C2805 C2806 1.287 . S
C2806 C2805 1.287 . S
C2806 C2807 1.524 . S
C2806 H2825 0.913 . S
C2807 H2783 0.950 . S
C2807 C2806 1.524 . S
C2807 C2808 1.415 . S
C2808 H2784 0.950 . S
C2808 C2803 1.363 . S
C2808 C2807 1.415 . S
C2809 H2785 0.951 . S
C2809 C2810 1.366 . S
C2809 C2811 1.388 . S
C2810 C2809 1.366 . S
C2810 C2814 1.385 . S
C2811 H2786 0.951 . S
C2811 C2809 1.388 . S
C2811 C2812 1.366 . S
C2812 C2811 1.366 . S
C2812 C2813 1.414 . S
C2812 C2815 1.499 . S
C2813 H2787 0.950 . S
C2813 C2812 1.414 . S
C2813 C2814 1.374 . S
C2814 H2788 0.950 . S
C2814 C2810 1.385 . S
C2814 C2813 1.374 . S
C2815 C2812 1.499 . S
C2815 C2816 1.373 . S
C2815 C2817 1.389 . S
C2816 H2789 0.950 . S
C2816 C2802 1.377 . S
C2816 C2815 1.373 . S
C2817 C2801 1.377 . S
C2817 C2815 1.389 . S
C2817 C2818 1.524 . S
C2818 C2817 1.524 . S
C2818 C2819 1.397 . S
C2818 C2823 1.363 . S
C2819 H2790 0.950 . S
C2819 C2818 1.397 . S
C2819 C2820 1.334 . S
C2820 H2791 0.950 . S
C2820 C2819 1.334 . S
C2820 C2821 1.287 . S
C2821 C2820 1.287 . S
C2821 C2822 1.524 . S
C2821 H2824 0.999 . S
C2822 H2792 0.950 . S
C2822 C2821 1.524 . S
C2822 C2823 1.415 . S
C2823 H2793 0.950 . S
C2823 C2818 1.363 . S
C2823 C2822 1.415 . S
H2824 C2821 0.999 . S
H2825 C2806 0.913 . S
H2826 C2844 0.951 . S
H2827 C2846 0.951 . S
H2828 C2848 0.944 . S
H2829 C2849 0.950 . S
H2830 C2851 0.950 . S
H2831 C2854 0.950 . S
H2832 C2855 0.950 . S
H2833 C2857 0.950 . S
H2834 C2858 0.950 . S
H2835 C2859 0.951 . S
H2836 C2861 0.951 . S
H2837 C2863 0.950 . S
H2838 C2864 0.950 . S
H2839 C2866 0.950 . S
H2840 C2869 0.950 . S
H2841 C2870 0.950 . S
H2842 C2872 0.950 . S
H2843 C2873 0.950 . S
C2844 H2826 0.951 . S
C2844 C2845 1.366 . S
C2844 C2846 1.388 1_565 S
C2845 C2844 1.366 . S
C2845 C2849 1.385 . S
C2846 H2827 0.951 . S
C2846 C2844 1.388 1_545 S
C2846 C2847 1.366 . S
C2847 C2846 1.366 . S
C2847 C2848 1.439 . S
C2847 C2850 1.499 . S
C2848 H2828 0.944 . S
C2848 C2847 1.439 . S
C2848 C2849 1.355 1_545 S
C2849 H2829 0.950 . S
C2849 C2845 1.385 . S
C2849 C2848 1.355 1_565 S
C2850 C2847 1.499 . S
C2850 C2851 1.373 . S
C2850 C2852 1.389 . S
C2851 H2830 0.950 . S
C2851 C2850 1.373 . S
C2851 C2867 1.377 . S
C2852 C2850 1.389 . S
C2852 C2853 1.524 . S
C2852 C2866 1.377 . S
C2853 C2852 1.524 . S
C2853 C2854 1.397 . S
C2853 C2858 1.363 . S
C2854 H2831 0.950 . S
C2854 C2853 1.397 . S
C2854 C2855 1.334 . S
C2855 H2832 0.950 . S
C2855 C2854 1.334 . S
C2855 C2856 1.287 . S
C2856 C2855 1.287 . S
C2856 C2857 1.524 . S
C2856 H2875 0.913 . S
C2857 H2833 0.950 . S
C2857 C2856 1.524 . S
C2857 C2858 1.415 . S
C2858 H2834 0.950 . S
C2858 C2853 1.363 . S
C2858 C2857 1.415 . S
C2859 H2835 0.951 . S
C2859 C2860 1.366 . S
C2859 C2861 1.388 . S
C2860 C2859 1.366 . S
C2860 C2864 1.385 . S
C2861 H2836 0.951 . S
C2861 C2859 1.388 . S
C2861 C2862 1.366 . S
C2862 C2861 1.366 . S
C2862 C2863 1.414 . S
C2862 C2865 1.499 . S
C2863 H2837 0.950 . S
C2863 C2862 1.414 . S
C2863 C2864 1.374 . S
C2864 H2838 0.950 . S
C2864 C2860 1.385 . S
C2864 C2863 1.374 . S
C2865 C2862 1.499 . S
C2865 C2866 1.373 . S
C2865 C2867 1.389 . S
C2866 H2839 0.950 . S
C2866 C2852 1.377 . S
C2866 C2865 1.373 . S
C2867 C2851 1.377 . S
C2867 C2865 1.389 . S
C2867 C2868 1.524 . S
C2868 C2867 1.524 . S
C2868 C2869 1.397 . S
C2868 C2873 1.363 . S
C2869 H2840 0.950 . S
C2869 C2868 1.397 . S
C2869 C2870 1.334 . S
C2870 H2841 0.950 . S
C2870 C2869 1.334 . S
C2870 C2871 1.287 . S
C2871 C2870 1.287 . S
C2871 C2872 1.524 . S
C2871 H2874 0.999 . S
C2872 H2842 0.950 . S
C2872 C2871 1.524 . S
C2872 C2873 1.415 . S
C2873 H2843 0.950 . S
C2873 C2868 1.363 . S
C2873 C2872 1.415 . S
H2874 C2871 0.999 . S
H2875 C2856 0.913 . S
H2876 C2894 0.951 . S
H2877 C2896 0.951 . S
H2878 C2898 0.950 . S
H2879 C2899 0.950 . S
H2880 C2901 0.950 . S
H2881 C2904 0.950 . S
H2882 C2905 0.950 . S
H2883 C2907 0.950 . S
H2884 C2908 0.950 . S
H2885 C2909 0.951 . S
H2886 C2911 0.951 . S
H2887 C2913 0.950 . S
H2888 C2914 0.950 . S
H2889 C2916 0.950 . S
H2890 C2919 0.950 . S
H2891 C2920 0.950 . S
H2892 C2922 0.950 . S
H2893 C2923 0.950 . S
C2894 H2876 0.951 . S
C2894 C2895 1.366 . S
C2894 C2896 1.388 1_455 S
C2895 C2894 1.366 . S
C2895 C2899 1.385 . S
C2896 H2877 0.951 . S
C2896 C2894 1.388 1_655 S
C2896 C2897 1.366 . S
C2897 C2896 1.366 . S
C2897 C2898 1.414 . S
C2897 C2900 1.499 . S
C2898 H2878 0.950 . S
C2898 C2897 1.414 . S
C2898 C2899 1.374 1_655 S
C2899 H2879 0.950 . S
C2899 C2895 1.385 . S
C2899 C2898 1.374 1_455 S
C2900 C2897 1.499 . S
C2900 C2901 1.373 . S
C2900 C2902 1.389 . S
C2901 H2880 0.950 . S
C2901 C2900 1.373 . S
C2901 C2917 1.377 . S
C2902 C2900 1.389 . S
C2902 C2903 1.524 . S
C2902 C2916 1.377 . S
C2903 C2902 1.524 . S
C2903 C2904 1.397 . S
C2903 C2908 1.363 . S
C2904 H2881 0.950 . S
C2904 C2903 1.397 . S
C2904 C2905 1.334 . S
C2905 H2882 0.950 . S
C2905 C2904 1.334 . S
C2905 C2906 1.287 . S
C2906 C2905 1.287 . S
C2906 C2907 1.524 . S
C2906 H2925 0.913 . S
C2907 H2883 0.950 . S
C2907 C2906 1.524 . S
C2907 C2908 1.415 . S
C2908 H2884 0.950 . S
C2908 C2903 1.363 . S
C2908 C2907 1.415 . S
C2909 H2885 0.951 . S
C2909 C2910 1.366 . S
C2909 C2911 1.388 . S
C2910 C2909 1.366 . S
C2910 C2914 1.385 . S
C2911 H2886 0.951 . S
C2911 C2909 1.388 . S
C2911 C2912 1.366 . S
C2912 C2911 1.366 . S
C2912 C2913 1.414 . S
C2912 C2915 1.499 . S
C2913 H2887 0.950 . S
C2913 C2912 1.414 . S
C2913 C2914 1.374 . S
C2914 H2888 0.950 . S
C2914 C2910 1.385 . S
C2914 C2913 1.374 . S
C2915 C2912 1.499 . S
C2915 C2916 1.373 . S
C2915 C2917 1.389 . S
C2916 H2889 0.950 . S
C2916 C2902 1.377 . S
C2916 C2915 1.373 . S
C2917 C2901 1.377 . S
C2917 C2915 1.389 . S
C2917 C2918 1.524 . S
C2918 C2917 1.524 . S
C2918 C2919 1.397 . S
C2918 C2923 1.363 . S
C2919 H2890 0.950 . S
C2919 C2918 1.397 . S
C2919 C2920 1.334 . S
C2920 H2891 0.950 . S
C2920 C2919 1.334 . S
C2920 C2921 1.287 . S
C2921 C2920 1.287 . S
C2921 C2922 1.524 . S
C2921 H2924 0.999 . S
C2922 H2892 0.950 . S
C2922 C2921 1.524 . S
C2922 C2923 1.415 . S
C2923 H2893 0.950 . S
C2923 C2918 1.363 . S
C2923 C2922 1.415 . S
H2924 C2921 0.999 . S
H2925 C2906 0.913 . S
H2926 C2944 0.951 . S
H2927 C2946 0.951 . S
H2928 C2948 0.950 . S
H2929 C2949 0.950 . S
H2930 C2951 0.950 . S
H2931 C2954 0.950 . S
H2932 C2955 0.950 . S
H2933 C2957 0.950 . S
H2934 C2958 0.950 . S
H2935 C2959 0.951 . S
H2936 C2961 0.951 . S
H2937 C2963 0.950 . S
H2938 C2964 0.950 . S
H2939 C2966 0.950 . S
H2940 C2969 0.950 . S
H2941 C2970 0.950 . S
H2942 C2972 0.950 . S
H2943 C2973 0.950 . S
C2944 H2926 0.951 . S
C2944 C2945 1.366 . S
C2944 C2946 1.388 . S
C2945 C2944 1.366 . S
C2945 C2949 1.385 . S
C2946 H2927 0.951 . S
C2946 C2944 1.388 . S
C2946 C2947 1.366 . S
C2947 C2946 1.366 . S
C2947 C2948 1.414 . S
C2947 C2950 1.499 . S
C2948 H2928 0.950 . S
C2948 C2947 1.414 . S
C2948 C2949 1.374 . S
C2949 H2929 0.950 . S
C2949 C2945 1.385 . S
C2949 C2948 1.374 . S
C2950 C2947 1.499 . S
C2950 C2951 1.373 . S
C2950 C2952 1.389 . S
C2951 H2930 0.950 . S
C2951 C2950 1.373 . S
C2951 C2967 1.377 . S
C2952 C2950 1.389 . S
C2952 C2953 1.524 . S
C2952 C2966 1.377 . S
C2953 C2952 1.524 . S
C2953 C2954 1.397 . S
C2953 C2958 1.363 . S
C2954 H2931 0.950 . S
C2954 C2953 1.397 . S
C2954 C2955 1.334 . S
C2955 H2932 0.950 . S
C2955 C2954 1.334 . S
C2955 C2956 1.287 . S
C2956 C2955 1.287 . S
C2956 C2957 1.524 . S
C2956 H2975 0.913 . S
C2957 H2933 0.950 . S
C2957 C2956 1.524 . S
C2957 C2958 1.415 . S
C2958 H2934 0.950 . S
C2958 C2953 1.363 . S
C2958 C2957 1.415 . S
C2959 H2935 0.951 . S
C2959 C2960 1.366 . S
C2959 C2961 1.388 . S
C2960 C2959 1.366 . S
C2960 C2964 1.385 . S
C2961 H2936 0.951 . S
C2961 C2959 1.388 . S
C2961 C2962 1.366 . S
C2962 C2961 1.366 . S
C2962 C2963 1.414 . S
C2962 C2965 1.499 . S
C2963 H2937 0.950 . S
C2963 C2962 1.414 . S
C2963 C2964 1.374 . S
C2964 H2938 0.950 . S
C2964 C2960 1.385 . S
C2964 C2963 1.374 . S
C2965 C2962 1.499 . S
C2965 C2966 1.373 . S
C2965 C2967 1.389 . S
C2966 H2939 0.950 . S
C2966 C2952 1.377 . S
C2966 C2965 1.373 . S
C2967 C2951 1.377 . S
C2967 C2965 1.389 . S
C2967 C2968 1.524 . S
C2968 C2967 1.524 . S
C2968 C2969 1.397 . S
C2968 C2973 1.363 . S
C2969 H2940 0.950 . S
C2969 C2968 1.397 . S
C2969 C2970 1.334 . S
C2970 H2941 0.950 . S
C2970 C2969 1.334 . S
C2970 C2971 1.287 . S
C2971 C2970 1.287 . S
C2971 C2972 1.524 . S
C2971 H2974 0.999 . S
C2972 H2942 0.950 . S
C2972 C2971 1.524 . S
C2972 C2973 1.415 . S
C2973 H2943 0.950 . S
C2973 C2968 1.363 . S
C2973 C2972 1.415 . S
H2974 C2971 0.999 . S
H2975 C2956 0.913 . S
H2976 C2994 0.951 . S
H2977 C2996 0.951 . S
H2978 C2998 0.950 . S
H2979 C2999 0.950 . S
H2980 C3001 0.950 . S
H2981 C3004 0.950 . S
H2982 C3005 0.950 . S
H2983 C3007 0.950 . S
H2984 C3008 0.950 . S
H2985 C3009 0.951 . S
H2986 C3011 0.951 . S
H2987 C3013 0.950 . S
H2988 C3014 0.950 . S
H2989 C3016 0.950 . S
H2990 C3019 0.950 . S
H2991 C3020 0.950 . S
H2992 C3022 0.950 . S
H2993 C3023 0.950 . S
C2994 H2976 0.951 . S
C2994 C2995 1.366 . S
C2994 C2996 1.388 1_455 S
C2995 C2994 1.366 . S
C2995 C2999 1.385 . S
C2996 H2977 0.951 . S
C2996 C2994 1.388 1_655 S
C2996 C2997 1.366 . S
C2997 C2996 1.366 . S
C2997 C2998 1.414 1_655 S
C2997 C3000 1.499 . S
C2998 H2978 0.950 . S
C2998 C2997 1.414 1_455 S
C2998 C2999 1.374 . S
C2999 H2979 0.950 . S
C2999 C2995 1.385 . S
C2999 C2998 1.374 . S
C3000 C2997 1.499 . S
C3000 C3001 1.373 . S
C3000 C3002 1.389 . S
C3001 H2980 0.950 . S
C3001 C3000 1.373 . S
C3001 C3017 1.377 . S
C3002 C3000 1.389 . S
C3002 C3003 1.524 . S
C3002 C3016 1.377 . S
C3003 C3002 1.524 . S
C3003 C3004 1.397 . S
C3003 C3008 1.363 . S
C3004 H2981 0.950 . S
C3004 C3003 1.397 . S
C3004 C3005 1.334 . S
C3005 H2982 0.950 . S
C3005 C3004 1.334 . S
C3005 C3006 1.287 . S
C3006 C3005 1.287 . S
C3006 C3007 1.524 . S
C3006 H3025 0.913 . S
C3007 H2983 0.950 . S
C3007 C3006 1.524 . S
C3007 C3008 1.415 . S
C3008 H2984 0.950 . S
C3008 C3003 1.363 . S
C3008 C3007 1.415 . S
C3009 H2985 0.951 . S
C3009 C3010 1.366 . S
C3009 C3011 1.388 . S
C3010 C3009 1.366 . S
C3010 C3014 1.385 . S
C3011 H2986 0.951 . S
C3011 C3009 1.388 . S
C3011 C3012 1.366 . S
C3012 C3011 1.366 . S
C3012 C3013 1.414 . S
C3012 C3015 1.499 . S
C3013 H2987 0.950 . S
C3013 C3012 1.414 . S
C3013 C3014 1.374 . S
C3014 H2988 0.950 . S
C3014 C3010 1.385 . S
C3014 C3013 1.374 . S
C3015 C3012 1.499 . S
C3015 C3016 1.373 . S
C3015 C3017 1.389 . S
C3016 H2989 0.950 . S
C3016 C3002 1.377 . S
C3016 C3015 1.373 . S
C3017 C3001 1.377 . S
C3017 C3015 1.389 . S
C3017 C3018 1.524 . S
C3018 C3017 1.524 . S
C3018 C3019 1.397 . S
C3018 C3023 1.363 . S
C3019 H2990 0.950 . S
C3019 C3018 1.397 . S
C3019 C3020 1.334 . S
C3020 H2991 0.950 . S
C3020 C3019 1.334 . S
C3020 C3021 1.287 . S
C3021 C3020 1.287 . S
C3021 C3022 1.524 . S
C3021 H3024 0.999 . S
C3022 H2992 0.950 . S
C3022 C3021 1.524 . S
C3022 C3023 1.415 . S
C3023 H2993 0.950 . S
C3023 C3018 1.363 . S
C3023 C3022 1.415 . S
H3024 C3021 0.999 . S
H3025 C3006 0.913 . S
H3026 C3044 0.951 . S
H3027 C3046 0.951 . S
H3028 C3048 0.950 . S
H3029 C3049 0.950 . S
H3030 C3051 0.950 . S
H3031 C3054 0.950 . S
H3032 C3055 0.950 . S
H3033 C3057 0.950 . S
H3034 C3058 0.950 . S
H3035 C3059 0.951 . S
H3036 C3061 0.951 . S
H3037 C3063 0.950 . S
H3038 C3064 0.950 . S
H3039 C3066 0.950 . S
H3040 C3069 0.950 . S
H3041 C3070 0.950 . S
H3042 C3072 0.950 . S
H3043 C3073 0.950 . S
C3044 H3026 0.951 . S
C3044 C3045 1.366 . S
C3044 C3046 1.388 . S
C3045 C3044 1.366 . S
C3045 C3049 1.385 . S
C3046 H3027 0.951 . S
C3046 C3044 1.388 . S
C3046 C3047 1.366 . S
C3047 C3046 1.366 . S
C3047 C3048 1.414 . S
C3047 C3050 1.499 . S
C3048 H3028 0.950 . S
C3048 C3047 1.414 . S
C3048 C3049 1.374 . S
C3049 H3029 0.950 . S
C3049 C3045 1.385 . S
C3049 C3048 1.374 . S
C3050 C3047 1.499 . S
C3050 C3051 1.373 . S
C3050 C3052 1.389 . S
C3051 H3030 0.950 . S
C3051 C3050 1.373 . S
C3051 C3067 1.377 . S
C3052 C3050 1.389 . S
C3052 C3053 1.524 . S
C3052 C3066 1.377 . S
C3053 C3052 1.524 . S
C3053 C3054 1.397 . S
C3053 C3058 1.363 . S
C3054 H3031 0.950 . S
C3054 C3053 1.397 . S
C3054 C3055 1.334 . S
C3055 H3032 0.950 . S
C3055 C3054 1.334 . S
C3055 C3056 1.287 . S
C3056 C3055 1.287 . S
C3056 C3057 1.524 . S
C3056 H3075 0.913 . S
C3057 H3033 0.950 . S
C3057 C3056 1.524 . S
C3057 C3058 1.415 . S
C3058 H3034 0.950 . S
C3058 C3053 1.363 . S
C3058 C3057 1.415 . S
C3059 H3035 0.951 . S
C3059 C3060 1.366 . S
C3059 C3061 1.388 . S
C3060 C3059 1.366 . S
C3060 C3064 1.385 . S
C3061 H3036 0.951 . S
C3061 C3059 1.388 . S
C3061 C3062 1.366 . S
C3062 C3061 1.366 . S
C3062 C3063 1.414 . S
C3062 C3065 1.499 . S
C3063 H3037 0.950 . S
C3063 C3062 1.414 . S
C3063 C3064 1.374 . S
C3064 H3038 0.950 . S
C3064 C3060 1.385 . S
C3064 C3063 1.374 . S
C3065 C3062 1.499 . S
C3065 C3066 1.373 . S
C3065 C3067 1.389 . S
C3066 H3039 0.950 . S
C3066 C3052 1.377 . S
C3066 C3065 1.373 . S
C3067 C3051 1.377 . S
C3067 C3065 1.389 . S
C3067 C3068 1.524 . S
C3068 C3067 1.524 . S
C3068 C3069 1.397 . S
C3068 C3073 1.363 . S
C3069 H3040 0.950 . S
C3069 C3068 1.397 . S
C3069 C3070 1.334 . S
C3070 H3041 0.950 . S
C3070 C3069 1.334 . S
C3070 C3071 1.287 . S
C3071 C3070 1.287 . S
C3071 C3072 1.524 . S
C3071 H3074 0.999 . S
C3072 H3042 0.950 . S
C3072 C3071 1.524 . S
C3072 C3073 1.415 . S
C3073 H3043 0.950 . S
C3073 C3068 1.363 . S
C3073 C3072 1.415 . S
H3074 C3071 0.999 . S
H3075 C3056 0.913 . S
H3076 C3094 0.951 . S
H3077 C3096 0.951 . S
H3078 C3098 0.950 1_545 S
H3079 C3099 0.950 . S
H3080 C3101 0.950 . S
H3081 C3104 0.950 . S
H3082 C3105 0.950 . S
H3083 C3107 0.950 . S
H3084 C3108 0.950 . S
H3085 C3109 0.951 . S
H3086 C3111 0.951 . S
H3087 C3113 0.950 . S
H3088 C3114 0.950 . S
H3089 C3116 0.950 . S
H3090 C3119 0.950 . S
H3091 C3120 0.950 . S
H3092 C3122 0.950 . S
H3093 C3123 0.950 . S
C3094 H3076 0.951 . S
C3094 C3095 1.366 . S
C3094 C3096 1.388 1_565 S
C3095 C3094 1.366 . S
C3095 C3099 1.385 . S
C3096 H3077 0.951 . S
C3096 C3094 1.388 1_545 S
C3096 C3097 1.366 . S
C3097 C3096 1.366 . S
C3097 C3098 1.414 1_545 S
C3097 C3100 1.499 . S
C3098 H3078 0.950 1_565 S
C3098 C3097 1.414 1_565 S
C3098 C3099 1.374 . S
C3099 H3079 0.950 . S
C3099 C3095 1.385 . S
C3099 C3098 1.374 . S
C3100 C3097 1.499 . S
C3100 C3101 1.373 . S
C3100 C3102 1.389 . S
C3101 H3080 0.950 . S
C3101 C3100 1.373 . S
C3101 C3117 1.377 . S
C3102 C3100 1.389 . S
C3102 C3103 1.524 . S
C3102 C3116 1.377 . S
C3103 C3102 1.524 . S
C3103 C3104 1.397 . S
C3103 C3108 1.363 . S
C3104 H3081 0.950 . S
C3104 C3103 1.397 . S
C3104 C3105 1.334 . S
C3105 H3082 0.950 . S
C3105 C3104 1.334 . S
C3105 C3106 1.287 . S
C3106 C3105 1.287 . S
C3106 C3107 1.524 . S
C3106 H3125 0.913 . S
C3107 H3083 0.950 . S
C3107 C3106 1.524 . S
C3107 C3108 1.415 . S
C3108 H3084 0.950 . S
C3108 C3103 1.363 . S
C3108 C3107 1.415 . S
C3109 H3085 0.951 . S
C3109 C3110 1.366 . S
C3109 C3111 1.388 . S
C3110 C3109 1.366 . S
C3110 C3114 1.385 . S
C3111 H3086 0.951 . S
C3111 C3109 1.388 . S
C3111 C3112 1.366 . S
C3112 C3111 1.366 . S
C3112 C3113 1.414 . S
C3112 C3115 1.499 . S
C3113 H3087 0.950 . S
C3113 C3112 1.414 . S
C3113 C3114 1.374 . S
C3114 H3088 0.950 . S
C3114 C3110 1.385 . S
C3114 C3113 1.374 . S
C3115 C3112 1.499 . S
C3115 C3116 1.373 . S
C3115 C3117 1.389 . S
C3116 H3089 0.950 . S
C3116 C3102 1.377 . S
C3116 C3115 1.373 . S
C3117 C3101 1.377 . S
C3117 C3115 1.389 . S
C3117 C3118 1.524 . S
C3118 C3117 1.524 . S
C3118 C3119 1.397 . S
C3118 C3123 1.363 . S
C3119 H3090 0.950 . S
C3119 C3118 1.397 . S
C3119 C3120 1.334 . S
C3120 H3091 0.950 . S
C3120 C3119 1.334 . S
C3120 C3121 1.287 . S
C3121 C3120 1.287 . S
C3121 C3122 1.524 . S
C3121 H3124 0.999 . S
C3122 H3092 0.950 . S
C3122 C3121 1.524 . S
C3122 C3123 1.415 . S
C3123 H3093 0.950 . S
C3123 C3118 1.363 . S
C3123 C3122 1.415 . S
H3124 C3121 0.999 . S
H3125 C3106 0.913 . S
H3126 C3144 0.951 . S
H3127 C3146 0.951 . S
H3128 C3148 0.950 . S
H3129 C3149 0.950 . S
H3130 C3151 0.950 . S
H3131 C3154 0.950 . S
H3132 C3155 0.950 . S
H3133 C3157 0.950 . S
H3134 C3158 0.950 . S
H3135 C3159 0.951 . S
H3136 C3161 0.951 . S
H3137 C3163 0.950 . S
H3138 C3164 0.950 . S
H3139 C3166 0.950 . S
H3140 C3169 0.950 . S
H3141 C3170 0.950 . S
H3142 C3172 0.950 . S
H3143 C3173 0.950 . S
C3144 H3126 0.951 . S
C3144 C3145 1.366 . S
C3144 C3146 1.388 . S
C3145 C3144 1.366 . S
C3145 C3149 1.385 . S
C3146 H3127 0.951 . S
C3146 C3144 1.388 . S
C3146 C3147 1.366 . S
C3147 C3146 1.366 . S
C3147 C3148 1.414 . S
C3147 C3150 1.499 . S
C3148 H3128 0.950 . S
C3148 C3147 1.414 . S
C3148 C3149 1.374 . S
C3149 H3129 0.950 . S
C3149 C3145 1.385 . S
C3149 C3148 1.374 . S
C3150 C3147 1.499 . S
C3150 C3151 1.373 . S
C3150 C3152 1.389 . S
C3151 H3130 0.950 . S
C3151 C3150 1.373 . S
C3151 C3167 1.377 . S
C3152 C3150 1.389 . S
C3152 C3153 1.524 . S
C3152 C3166 1.377 . S
C3153 C3152 1.524 . S
C3153 C3154 1.397 . S
C3153 C3158 1.363 . S
C3154 H3131 0.950 . S
C3154 C3153 1.397 . S
C3154 C3155 1.334 . S
C3155 H3132 0.950 . S
C3155 C3154 1.334 . S
C3155 C3156 1.287 . S
C3156 C3155 1.287 . S
C3156 C3157 1.524 . S
C3156 H3175 0.913 . S
C3157 H3133 0.950 . S
C3157 C3156 1.524 . S
C3157 C3158 1.415 . S
C3158 H3134 0.950 . S
C3158 C3153 1.363 . S
C3158 C3157 1.415 . S
C3159 H3135 0.951 . S
C3159 C3160 1.366 . S
C3159 C3161 1.388 . S
C3160 C3159 1.366 . S
C3160 C3164 1.385 . S
C3161 H3136 0.951 . S
C3161 C3159 1.388 . S
C3161 C3162 1.366 . S
C3162 C3161 1.366 . S
C3162 C3163 1.414 . S
C3162 C3165 1.499 . S
C3163 H3137 0.950 . S
C3163 C3162 1.414 . S
C3163 C3164 1.374 . S
C3164 H3138 0.950 . S
C3164 C3160 1.385 . S
C3164 C3163 1.374 . S
C3165 C3162 1.499 . S
C3165 C3166 1.373 . S
C3165 C3167 1.389 . S
C3166 H3139 0.950 . S
C3166 C3152 1.377 . S
C3166 C3165 1.373 . S
C3167 C3151 1.377 . S
C3167 C3165 1.389 . S
C3167 C3168 1.524 . S
C3168 C3167 1.524 . S
C3168 C3169 1.397 . S
C3168 C3173 1.363 . S
C3169 H3140 0.950 . S
C3169 C3168 1.397 . S
C3169 C3170 1.334 . S
C3170 H3141 0.950 . S
C3170 C3169 1.334 . S
C3170 C3171 1.287 . S
C3171 C3170 1.287 . S
C3171 C3172 1.524 . S
C3171 H3174 0.999 . S
C3172 H3142 0.950 . S
C3172 C3171 1.524 . S
C3172 C3173 1.415 . S
C3173 H3143 0.950 . S
C3173 C3168 1.363 . S
C3173 C3172 1.415 . S
H3174 C3171 0.999 . S
H3175 C3156 0.913 . S
H3176 C3194 0.951 . S
H3177 C3196 0.951 . S
H3178 C3198 0.950 . S
H3179 C3199 0.950 . S
H3180 C3201 0.950 . S
H3181 C3204 0.950 . S
H3182 C3205 0.950 . S
H3183 C3207 0.950 . S
H3184 C3208 0.950 . S
H3185 C3209 0.951 . S
H3186 C3211 0.951 . S
H3187 C3213 0.950 . S
H3188 C3214 0.950 . S
H3189 C3216 0.950 . S
H3190 C3219 0.950 . S
H3191 C3220 0.950 . S
H3192 C3222 0.950 . S
H3193 C3223 0.950 . S
C3194 H3176 0.951 . S
C3194 C3195 1.366 . S
C3194 C3196 1.388 . S
C3195 C3194 1.366 . S
C3195 C3199 1.385 . S
C3196 H3177 0.951 . S
C3196 C3194 1.388 . S
C3196 C3197 1.366 . S
C3197 C3196 1.366 . S
C3197 C3198 1.414 . S
C3197 C3200 1.499 . S
C3198 H3178 0.950 . S
C3198 C3197 1.414 . S
C3198 C3199 1.374 . S
C3199 H3179 0.950 . S
C3199 C3195 1.385 . S
C3199 C3198 1.374 . S
C3200 C3197 1.499 . S
C3200 C3201 1.373 . S
C3200 C3202 1.389 . S
C3201 H3180 0.950 . S
C3201 C3200 1.373 . S
C3201 C3217 1.377 . S
C3202 C3200 1.389 . S
C3202 C3203 1.524 . S
C3202 C3216 1.377 . S
C3203 C3202 1.524 . S
C3203 C3204 1.397 . S
C3203 C3208 1.363 . S
C3204 H3181 0.950 . S
C3204 C3203 1.397 . S
C3204 C3205 1.334 . S
C3205 H3182 0.950 . S
C3205 C3204 1.334 . S
C3205 C3206 1.287 . S
C3206 C3205 1.287 . S
C3206 C3207 1.524 . S
C3206 H3225 0.913 . S
C3207 H3183 0.950 . S
C3207 C3206 1.524 . S
C3207 C3208 1.415 . S
C3208 H3184 0.950 . S
C3208 C3203 1.363 . S
C3208 C3207 1.415 . S
C3209 H3185 0.951 . S
C3209 C3210 1.366 . S
C3209 C3211 1.388 . S
C3210 C3209 1.366 . S
C3210 C3214 1.385 . S
C3211 H3186 0.951 . S
C3211 C3209 1.388 . S
C3211 C3212 1.366 . S
C3212 C3211 1.366 . S
C3212 C3213 1.414 . S
C3212 C3215 1.499 . S
C3213 H3187 0.950 . S
C3213 C3212 1.414 . S
C3213 C3214 1.374 . S
C3214 H3188 0.950 . S
C3214 C3210 1.385 . S
C3214 C3213 1.374 . S
C3215 C3212 1.499 . S
C3215 C3216 1.373 . S
C3215 C3217 1.389 . S
C3216 H3189 0.950 . S
C3216 C3202 1.377 . S
C3216 C3215 1.373 . S
C3217 C3201 1.377 . S
C3217 C3215 1.389 . S
C3217 C3218 1.524 . S
C3218 C3217 1.524 . S
C3218 C3219 1.397 . S
C3218 C3223 1.363 . S
C3219 H3190 0.950 . S
C3219 C3218 1.397 . S
C3219 C3220 1.334 . S
C3220 H3191 0.950 . S
C3220 C3219 1.334 . S
C3220 C3221 1.287 . S
C3221 C3220 1.287 . S
C3221 C3222 1.524 . S
C3221 H3224 0.999 . S
C3222 H3192 0.950 . S
C3222 C3221 1.524 . S
C3222 C3223 1.415 . S
C3223 H3193 0.950 . S
C3223 C3218 1.363 . S
C3223 C3222 1.415 . S
H3224 C3221 0.999 . S
H3225 C3206 0.913 . S
H3226 C3244 0.951 . S
H3227 C3246 0.951 . S
H3228 C3248 0.950 . S
H3229 C3249 0.950 . S
H3230 C3251 0.950 . S
H3231 C3254 0.950 . S
H3232 C3255 0.950 . S
H3233 C3257 0.950 . S
H3234 C3258 0.950 . S
H3235 C3259 0.951 . S
H3236 C3261 0.951 . S
H3237 C3263 0.950 . S
H3238 C3264 0.950 . S
H3239 C3266 0.950 . S
H3240 C3269 0.950 . S
H3241 C3270 0.950 . S
H3242 C3272 0.950 . S
H3243 C3273 0.950 . S
C3244 H3226 0.951 . S
C3244 C3245 1.366 . S
C3244 C3246 1.388 . S
C3245 C3244 1.366 . S
C3245 C3249 1.385 . S
C3246 H3227 0.951 . S
C3246 C3244 1.388 . S
C3246 C3247 1.366 . S
C3247 C3246 1.366 . S
C3247 C3248 1.414 . S
C3247 C3250 1.499 . S
C3248 H3228 0.950 . S
C3248 C3247 1.414 . S
C3248 C3249 1.374 . S
C3249 H3229 0.950 . S
C3249 C3245 1.385 . S
C3249 C3248 1.374 . S
C3250 C3247 1.499 . S
C3250 C3251 1.373 . S
C3250 C3252 1.389 . S
C3251 H3230 0.950 . S
C3251 C3250 1.373 . S
C3251 C3267 1.377 . S
C3252 C3250 1.389 . S
C3252 C3253 1.524 . S
C3252 C3266 1.377 . S
C3253 C3252 1.524 . S
C3253 C3254 1.397 . S
C3253 C3258 1.363 . S
C3254 H3231 0.950 . S
C3254 C3253 1.397 . S
C3254 C3255 1.334 . S
C3255 H3232 0.950 . S
C3255 C3254 1.334 . S
C3255 C3256 1.287 . S
C3256 C3255 1.287 . S
C3256 C3257 1.524 . S
C3256 H3275 0.913 . S
C3257 H3233 0.950 . S
C3257 C3256 1.524 . S
C3257 C3258 1.415 . S
C3258 H3234 0.950 . S
C3258 C3253 1.363 . S
C3258 C3257 1.415 . S
C3259 H3235 0.951 . S
C3259 C3260 1.366 . S
C3259 C3261 1.388 . S
C3260 C3259 1.366 . S
C3260 C3264 1.385 . S
C3261 H3236 0.951 . S
C3261 C3259 1.388 . S
C3261 C3262 1.366 . S
C3262 C3261 1.366 . S
C3262 C3263 1.414 . S
C3262 C3265 1.499 . S
C3263 H3237 0.950 . S
C3263 C3262 1.414 . S
C3263 C3264 1.374 . S
C3264 H3238 0.950 . S
C3264 C3260 1.385 . S
C3264 C3263 1.374 . S
C3265 C3262 1.499 . S
C3265 C3266 1.373 . S
C3265 C3267 1.389 . S
C3266 H3239 0.950 . S
C3266 C3252 1.377 . S
C3266 C3265 1.373 . S
C3267 C3251 1.377 . S
C3267 C3265 1.389 . S
C3267 C3268 1.524 . S
C3268 C3267 1.524 . S
C3268 C3269 1.397 . S
C3268 C3273 1.363 . S
C3269 H3240 0.950 . S
C3269 C3268 1.397 . S
C3269 C3270 1.334 . S
C3270 H3241 0.950 . S
C3270 C3269 1.334 . S
C3270 C3271 1.287 . S
C3271 C3270 1.287 . S
C3271 C3272 1.524 . S
C3271 H3274 0.999 . S
C3272 H3242 0.950 . S
C3272 C3271 1.524 . S
C3272 C3273 1.415 . S
C3273 H3243 0.950 . S
C3273 C3268 1.363 . S
C3273 C3272 1.415 . S
H3274 C3271 0.999 . S
H3275 C3256 0.913 . S
H3276 C3294 0.951 . S
H3277 C3296 0.951 . S
H3278 C3298 0.950 . S
H3279 C3299 0.950 . S
H3280 C3301 0.950 . S
H3281 C3304 0.950 . S
H3282 C3305 0.950 . S
H3283 C3307 0.950 . S
H3284 C3308 0.950 . S
H3285 C3309 0.951 1_545 S
H3286 C3311 0.951 . S
H3287 C3313 0.950 . S
H3288 C3314 0.950 . S
H3289 C3316 0.950 . S
H3290 C3319 0.950 . S
H3291 C3320 0.950 . S
H3292 C3322 0.950 . S
H3293 C3323 0.950 . S
C3294 H3276 0.951 . S
C3294 C3295 1.366 . S
C3294 C3296 1.388 . S
C3295 C3294 1.366 . S
C3295 C3299 1.385 . S
C3296 H3277 0.951 . S
C3296 C3294 1.388 . S
C3296 C3297 1.366 . S
C3297 C3296 1.366 . S
C3297 C3298 1.414 . S
C3297 C3300 1.499 . S
C3298 H3278 0.950 . S
C3298 C3297 1.414 . S
C3298 C3299 1.374 . S
C3299 H3279 0.950 . S
C3299 C3295 1.385 . S
C3299 C3298 1.374 . S
C3300 C3297 1.499 . S
C3300 C3301 1.373 . S
C3300 C3302 1.389 . S
C3301 H3280 0.950 . S
C3301 C3300 1.373 . S
C3301 C3317 1.377 . S
C3302 C3300 1.389 . S
C3302 C3303 1.524 . S
C3302 C3316 1.377 . S
C3303 C3302 1.524 . S
C3303 C3304 1.397 . S
C3303 C3308 1.363 . S
C3304 H3281 0.950 . S
C3304 C3303 1.397 . S
C3304 C3305 1.334 . S
C3305 H3282 0.950 . S
C3305 C3304 1.334 . S
C3305 C3306 1.287 . S
C3306 C3305 1.287 . S
C3306 C3307 1.524 . S
C3306 H3325 0.913 . S
C3307 H3283 0.950 . S
C3307 C3306 1.524 . S
C3307 C3308 1.415 . S
C3308 H3284 0.950 . S
C3308 C3303 1.363 . S
C3308 C3307 1.415 . S
C3309 H3285 0.951 1_565 S
C3309 C3310 1.366 . S
C3309 C3311 1.388 . S
C3310 C3309 1.366 . S
C3310 C3314 1.385 . S
C3311 H3286 0.951 . S
C3311 C3309 1.388 . S
C3311 C3312 1.366 . S
C3312 C3311 1.366 . S
C3312 C3313 1.414 . S
C3312 C3315 1.499 . S
C3313 H3287 0.950 . S
C3313 C3312 1.414 . S
C3313 C3314 1.374 . S
C3314 H3288 0.950 . S
C3314 C3310 1.385 . S
C3314 C3313 1.374 . S
C3315 C3312 1.499 . S
C3315 C3316 1.373 . S
C3315 C3317 1.389 . S
C3316 H3289 0.950 . S
C3316 C3302 1.377 . S
C3316 C3315 1.373 . S
C3317 C3301 1.377 . S
C3317 C3315 1.389 . S
C3317 C3318 1.524 . S
C3318 C3317 1.524 . S
C3318 C3319 1.397 . S
C3318 C3323 1.363 . S
C3319 H3290 0.950 . S
C3319 C3318 1.397 . S
C3319 C3320 1.334 . S
C3320 H3291 0.950 . S
C3320 C3319 1.334 . S
C3320 C3321 1.287 . S
C3321 C3320 1.287 . S
C3321 C3322 1.524 . S
C3321 H3324 0.999 . S
C3322 H3292 0.950 . S
C3322 C3321 1.524 . S
C3322 C3323 1.415 . S
C3323 H3293 0.950 . S
C3323 C3318 1.363 . S
C3323 C3322 1.415 . S
H3324 C3321 0.999 . S
H3325 C3306 0.913 . S
H3326 C3344 0.951 . S
H3327 C3346 0.951 . S
H3328 C3348 0.950 . S
H3329 C3349 0.950 . S
H3330 C3351 0.950 . S
H3331 C3354 0.950 . S
H3332 C3355 0.950 . S
H3333 C3357 0.950 . S
H3334 C3358 0.950 . S
H3335 C3359 0.938 1_655 S
H3336 C3361 0.951 . S
H3337 C3363 0.950 . S
H3338 C3364 0.950 . S
H3339 C3366 0.950 . S
H3340 C3369 0.950 1_455 S
H3341 C3370 0.950 . S
H3342 C3372 0.950 . S
H3343 C3373 0.950 . S
C3344 H3326 0.951 . S
C3344 C3345 1.366 . S
C3344 C3346 1.388 . S
C3345 C3344 1.366 . S
C3345 C3349 1.385 . S
C3346 H3327 0.951 . S
C3346 C3344 1.388 . S
C3346 C3347 1.366 . S
C3347 C3346 1.366 . S
C3347 C3348 1.414 . S
C3347 C3350 1.499 . S
C3348 H3328 0.950 . S
C3348 C3347 1.414 . S
C3348 C3349 1.374 . S
C3349 H3329 0.950 . S
C3349 C3345 1.385 . S
C3349 C3348 1.374 . S
C3350 C3347 1.499 . S
C3350 C3351 1.373 . S
C3350 C3352 1.389 . S
C3351 H3330 0.950 . S
C3351 C3350 1.373 . S
C3351 C3367 1.377 . S
C3352 C3350 1.389 . S
C3352 C3353 1.524 . S
C3352 C3366 1.377 . S
C3353 C3352 1.524 . S
C3353 C3354 1.397 . S
C3353 C3358 1.363 . S
C3354 H3331 0.950 . S
C3354 C3353 1.397 . S
C3354 C3355 1.334 . S
C3355 H3332 0.950 . S
C3355 C3354 1.334 . S
C3355 C3356 1.287 . S
C3356 C3355 1.287 . S
C3356 C3357 1.524 . S
C3356 H3375 0.913 . S
C3357 H3333 0.950 . S
C3357 C3356 1.524 . S
C3357 C3358 1.415 . S
C3358 H3334 0.950 . S
C3358 C3353 1.363 . S
C3358 C3357 1.415 . S
C3359 H3335 0.938 1_455 S
C3359 C3360 1.366 . S
C3359 C3361 1.388 . S
C3360 C3359 1.366 . S
C3360 C3364 1.385 . S
C3361 H3336 0.951 . S
C3361 C3359 1.388 . S
C3361 C3362 1.366 . S
C3362 C3361 1.366 . S
C3362 C3363 1.414 . S
C3362 C3365 1.499 . S
C3363 H3337 0.950 . S
C3363 C3362 1.414 . S
C3363 C3364 1.374 . S
C3364 H3338 0.950 . S
C3364 C3360 1.385 . S
C3364 C3363 1.374 . S
C3365 C3362 1.499 . S
C3365 C3366 1.373 . S
C3365 C3367 1.389 . S
C3366 H3339 0.950 . S
C3366 C3352 1.377 . S
C3366 C3365 1.373 . S
C3367 C3351 1.377 . S
C3367 C3365 1.389 . S
C3367 C3368 1.504 1_455 S
C3368 C3367 1.504 1_655 S
C3368 C3369 1.388 . S
C3368 C3373 1.389 . S
C3369 H3340 0.950 1_655 S
C3369 C3368 1.388 . S
C3369 C3370 1.334 . S
C3370 H3341 0.950 . S
C3370 C3369 1.334 . S
C3370 C3371 1.287 . S
C3371 C3370 1.287 . S
C3371 C3372 1.524 . S
C3371 H3374 0.999 . S
C3372 H3342 0.950 . S
C3372 C3371 1.524 . S
C3372 C3373 1.415 . S
C3373 H3343 0.950 . S
C3373 C3368 1.389 . S
C3373 C3372 1.415 . S
H3374 C3371 0.999 . S
H3375 C3356 0.913 . S
H3376 C3394 0.951 . S
H3377 C3396 0.951 . S
H3378 C3398 0.950 . S
H3379 C3399 0.950 . S
H3380 C3401 0.950 . S
H3381 C3404 0.950 . S
H3382 C3405 0.950 . S
H3383 C3407 0.950 . S
H3384 C3408 0.950 . S
H3385 C3409 0.951 . S
H3386 C3411 0.951 . S
H3387 C3413 0.950 . S
H3388 C3414 0.950 . S
H3389 C3416 0.950 . S
H3390 C3419 0.950 . S
H3391 C3420 0.950 . S
H3392 C3422 0.950 . S
H3393 C3423 0.950 . S
C3394 H3376 0.951 . S
C3394 C3395 1.366 . S
C3394 C3396 1.388 . S
C3395 C3394 1.366 . S
C3395 C3399 1.385 . S
C3396 H3377 0.951 . S
C3396 C3394 1.388 . S
C3396 C3397 1.366 . S
C3397 C3396 1.366 . S
C3397 C3398 1.414 . S
C3397 C3400 1.499 . S
C3398 H3378 0.950 . S
C3398 C3397 1.414 . S
C3398 C3399 1.374 . S
C3399 H3379 0.950 . S
C3399 C3395 1.385 . S
C3399 C3398 1.374 . S
C3400 C3397 1.499 . S
C3400 C3401 1.373 . S
C3400 C3402 1.389 . S
C3401 H3380 0.950 . S
C3401 C3400 1.373 . S
C3401 C3417 1.377 . S
C3402 C3400 1.389 . S
C3402 C3403 1.524 . S
C3402 C3416 1.377 . S
C3403 C3402 1.524 . S
C3403 C3404 1.397 . S
C3403 C3408 1.363 . S
C3404 H3381 0.950 . S
C3404 C3403 1.397 . S
C3404 C3405 1.334 . S
C3405 H3382 0.950 . S
C3405 C3404 1.334 . S
C3405 C3406 1.287 . S
C3406 C3405 1.287 . S
C3406 C3407 1.524 . S
C3406 H3425 0.913 . S
C3407 H3383 0.950 . S
C3407 C3406 1.524 . S
C3407 C3408 1.415 . S
C3408 H3384 0.950 . S
C3408 C3403 1.363 . S
C3408 C3407 1.415 . S
C3409 H3385 0.951 . S
C3409 C3410 1.366 . S
C3409 C3411 1.388 . S
C3410 C3409 1.366 . S
C3410 C3414 1.385 . S
C3411 H3386 0.951 . S
C3411 C3409 1.388 . S
C3411 C3412 1.366 . S
C3412 C3411 1.366 . S
C3412 C3413 1.414 . S
C3412 C3415 1.499 . S
C3413 H3387 0.950 . S
C3413 C3412 1.414 . S
C3413 C3414 1.374 . S
C3414 H3388 0.950 . S
C3414 C3410 1.385 . S
C3414 C3413 1.374 . S
C3415 C3412 1.499 . S
C3415 C3416 1.373 . S
C3415 C3417 1.389 . S
C3416 H3389 0.950 . S
C3416 C3402 1.377 . S
C3416 C3415 1.373 . S
C3417 C3401 1.377 . S
C3417 C3415 1.389 . S
C3417 C3418 1.524 . S
C3418 C3417 1.524 . S
C3418 C3419 1.397 . S
C3418 C3423 1.363 . S
C3419 H3390 0.950 . S
C3419 C3418 1.397 . S
C3419 C3420 1.334 . S
C3420 H3391 0.950 . S
C3420 C3419 1.334 . S
C3420 C3421 1.287 . S
C3421 C3420 1.287 . S
C3421 C3422 1.524 . S
C3421 H3424 0.999 . S
C3422 H3392 0.950 . S
C3422 C3421 1.524 . S
C3422 C3423 1.415 . S
C3423 H3393 0.950 . S
C3423 C3418 1.363 . S
C3423 C3422 1.415 . S
H3424 C3421 0.999 . S
H3425 C3406 0.913 . S
H3426 C3444 0.951 . S
H3427 C3446 0.951 . S
H3428 C3448 0.950 . S
H3429 C3449 0.950 . S
H3430 C3451 0.950 . S
H3431 C3454 0.950 . S
H3432 C3455 0.950 . S
H3433 C3457 0.950 . S
H3434 C3458 0.950 . S
H3435 C3459 0.951 . S
H3436 C3461 0.951 . S
H3437 C3463 0.950 . S
H3438 C3464 0.950 1_455 S
H3439 C3466 0.950 . S
H3440 C3469 0.950 . S
H3441 C3470 0.950 . S
H3442 C3472 0.950 . S
H3443 C3473 0.950 . S
C3444 H3426 0.951 . S
C3444 C3445 1.366 . S
C3444 C3446 1.388 . S
C3445 C3444 1.366 . S
C3445 C3449 1.385 . S
C3446 H3427 0.951 . S
C3446 C3444 1.388 . S
C3446 C3447 1.366 . S
C3447 C3446 1.366 . S
C3447 C3448 1.414 . S
C3447 C3450 1.499 . S
C3448 H3428 0.950 . S
C3448 C3447 1.414 . S
C3448 C3449 1.374 . S
C3449 H3429 0.950 . S
C3449 C3445 1.385 . S
C3449 C3448 1.374 . S
C3450 C3447 1.499 . S
C3450 C3451 1.373 . S
C3450 C3452 1.389 . S
C3451 H3430 0.950 . S
C3451 C3450 1.373 . S
C3451 C3467 1.377 . S
C3452 C3450 1.389 . S
C3452 C3453 1.524 . S
C3452 C3466 1.377 . S
C3453 C3452 1.524 . S
C3453 C3454 1.397 . S
C3453 C3458 1.363 . S
C3454 H3431 0.950 . S
C3454 C3453 1.397 . S
C3454 C3455 1.334 . S
C3455 H3432 0.950 . S
C3455 C3454 1.334 . S
C3455 C3456 1.287 . S
C3456 C3455 1.287 . S
C3456 C3457 1.524 . S
C3456 H3475 0.913 . S
C3457 H3433 0.950 . S
C3457 C3456 1.524 . S
C3457 C3458 1.415 . S
C3458 H3434 0.950 . S
C3458 C3453 1.363 . S
C3458 C3457 1.415 . S
C3459 H3435 0.951 . S
C3459 C3460 1.366 . S
C3459 C3461 1.388 . S
C3460 C3459 1.366 . S
C3460 C3464 1.385 . S
C3461 H3436 0.951 . S
C3461 C3459 1.388 . S
C3461 C3462 1.366 . S
C3462 C3461 1.366 . S
C3462 C3463 1.414 . S
C3462 C3465 1.499 . S
C3463 H3437 0.950 . S
C3463 C3462 1.414 . S
C3463 C3464 1.374 . S
C3464 H3438 0.950 1_655 S
C3464 C3460 1.385 . S
C3464 C3463 1.374 . S
C3465 C3462 1.499 . S
C3465 C3466 1.373 . S
C3465 C3467 1.389 . S
C3466 H3439 0.950 . S
C3466 C3452 1.377 . S
C3466 C3465 1.373 . S
C3467 C3451 1.377 . S
C3467 C3465 1.389 . S
C3467 C3468 1.524 . S
C3468 C3467 1.524 . S
C3468 C3469 1.397 . S
C3468 C3473 1.363 . S
C3469 H3440 0.950 . S
C3469 C3468 1.397 . S
C3469 C3470 1.334 . S
C3470 H3441 0.950 . S
C3470 C3469 1.334 . S
C3470 C3471 1.287 . S
C3471 C3470 1.287 . S
C3471 C3472 1.524 . S
C3471 H3474 0.999 . S
C3472 H3442 0.950 . S
C3472 C3471 1.524 . S
C3472 C3473 1.415 . S
C3473 H3443 0.950 . S
C3473 C3468 1.363 . S
C3473 C3472 1.415 . S
H3474 C3471 0.999 . S
H3475 C3456 0.913 . S
H3476 C3494 0.951 . S
H3477 C3496 0.951 . S
H3478 C3498 0.950 . S
H3479 C3499 0.950 . S
H3480 C3501 0.950 . S
H3481 C3504 0.950 . S
H3482 C3505 0.950 . S
H3483 C3507 0.950 . S
H3484 C3508 0.950 . S
H3485 C3509 0.951 . S
H3486 C3511 0.951 . S
H3487 C3513 0.950 . S
H3488 C3514 0.950 . S
H3489 C3516 0.950 . S
H3490 C3519 0.950 . S
H3491 C3520 0.950 . S
H3492 C3522 0.950 . S
H3493 C3523 0.950 . S
C3494 H3476 0.951 . S
C3494 C3495 1.366 . S
C3494 C3496 1.388 . S
C3495 C3494 1.366 . S
C3495 C3499 1.385 . S
C3496 H3477 0.951 . S
C3496 C3494 1.388 . S
C3496 C3497 1.366 . S
C3497 C3496 1.366 . S
C3497 C3498 1.414 . S
C3497 C3500 1.499 . S
C3498 H3478 0.950 . S
C3498 C3497 1.414 . S
C3498 C3499 1.374 . S
C3499 H3479 0.950 . S
C3499 C3495 1.385 . S
C3499 C3498 1.374 . S
C3500 C3497 1.499 . S
C3500 C3501 1.373 . S
C3500 C3502 1.389 . S
C3501 H3480 0.950 . S
C3501 C3500 1.373 . S
C3501 C3517 1.377 . S
C3502 C3500 1.389 . S
C3502 C3503 1.524 . S
C3502 C3516 1.377 . S
C3503 C3502 1.524 . S
C3503 C3504 1.397 . S
C3503 C3508 1.363 . S
C3504 H3481 0.950 . S
C3504 C3503 1.397 . S
C3504 C3505 1.334 . S
C3505 H3482 0.950 . S
C3505 C3504 1.334 . S
C3505 C3506 1.287 . S
C3506 C3505 1.287 . S
C3506 C3507 1.524 . S
C3506 H3525 0.913 . S
C3507 H3483 0.950 . S
C3507 C3506 1.524 . S
C3507 C3508 1.415 . S
C3508 H3484 0.950 . S
C3508 C3503 1.363 . S
C3508 C3507 1.415 . S
C3509 H3485 0.951 . S
C3509 C3510 1.366 . S
C3509 C3511 1.388 . S
C3510 C3509 1.366 . S
C3510 C3514 1.385 . S
C3511 H3486 0.951 . S
C3511 C3509 1.388 . S
C3511 C3512 1.366 . S
C3512 C3511 1.366 . S
C3512 C3513 1.414 . S
C3512 C3515 1.499 . S
C3513 H3487 0.950 . S
C3513 C3512 1.414 . S
C3513 C3514 1.374 . S
C3514 H3488 0.950 . S
C3514 C3510 1.385 . S
C3514 C3513 1.374 . S
C3515 C3512 1.499 . S
C3515 C3516 1.373 . S
C3515 C3517 1.389 . S
C3516 H3489 0.950 . S
C3516 C3502 1.377 . S
C3516 C3515 1.373 . S
C3517 C3501 1.377 . S
C3517 C3515 1.389 . S
C3517 C3518 1.524 . S
C3518 C3517 1.524 . S
C3518 C3519 1.397 . S
C3518 C3523 1.363 . S
C3519 H3490 0.950 . S
C3519 C3518 1.397 . S
C3519 C3520 1.334 . S
C3520 H3491 0.950 . S
C3520 C3519 1.334 . S
C3520 C3521 1.287 . S
C3521 C3520 1.287 . S
C3521 C3522 1.524 . S
C3521 H3524 0.999 . S
C3522 H3492 0.950 . S
C3522 C3521 1.524 . S
C3522 C3523 1.415 . S
C3523 H3493 0.950 . S
C3523 C3518 1.363 . S
C3523 C3522 1.415 . S
H3524 C3521 0.999 . S
H3525 C3506 0.913 . S
H3526 C3544 0.951 . S
H3527 C3546 0.951 . S
H3528 C3548 0.950 . S
H3529 C3549 0.950 . S
H3530 C3551 0.950 . S
H3531 C3554 0.950 . S
H3532 C3555 0.950 . S
H3533 C3557 0.950 . S
H3534 C3558 0.950 . S
H3535 C3559 0.951 . S
H3536 C3561 0.951 . S
H3537 C3563 0.950 . S
H3538 C3564 0.950 . S
H3539 C3566 0.950 . S
H3540 C3569 0.950 . S
H3541 C3570 0.950 . S
H3542 C3572 0.950 . S
H3543 C3573 0.950 . S
C3544 H3526 0.951 . S
C3544 C3545 1.366 . S
C3544 C3546 1.388 . S
C3545 C3544 1.366 . S
C3545 C3549 1.385 . S
C3546 H3527 0.951 . S
C3546 C3544 1.388 . S
C3546 C3547 1.366 . S
C3547 C3546 1.366 . S
C3547 C3548 1.414 . S
C3547 C3550 1.499 . S
C3548 H3528 0.950 . S
C3548 C3547 1.414 . S
C3548 C3549 1.374 . S
C3549 H3529 0.950 . S
C3549 C3545 1.385 . S
C3549 C3548 1.374 . S
C3550 C3547 1.499 . S
C3550 C3551 1.373 . S
C3550 C3552 1.389 . S
C3551 H3530 0.950 . S
C3551 C3550 1.373 . S
C3551 C3567 1.377 . S
C3552 C3550 1.389 . S
C3552 C3553 1.524 . S
C3552 C3566 1.377 . S
C3553 C3552 1.524 . S
C3553 C3554 1.397 . S
C3553 C3558 1.363 . S
C3554 H3531 0.950 . S
C3554 C3553 1.397 . S
C3554 C3555 1.334 . S
C3555 H3532 0.950 . S
C3555 C3554 1.334 . S
C3555 C3556 1.287 . S
C3556 C3555 1.287 . S
C3556 C3557 1.524 . S
C3556 H3575 0.913 . S
C3557 H3533 0.950 . S
C3557 C3556 1.524 . S
C3557 C3558 1.415 . S
C3558 H3534 0.950 . S
C3558 C3553 1.363 . S
C3558 C3557 1.415 . S
C3559 H3535 0.951 . S
C3559 C3560 1.366 . S
C3559 C3561 1.388 . S
C3560 C3559 1.366 . S
C3560 C3564 1.385 . S
C3561 H3536 0.951 . S
C3561 C3559 1.388 . S
C3561 C3562 1.366 . S
C3562 C3561 1.366 . S
C3562 C3563 1.414 . S
C3562 C3565 1.499 . S
C3563 H3537 0.950 . S
C3563 C3562 1.414 . S
C3563 C3564 1.374 . S
C3564 H3538 0.950 . S
C3564 C3560 1.385 . S
C3564 C3563 1.374 . S
C3565 C3562 1.499 . S
C3565 C3566 1.373 . S
C3565 C3567 1.389 . S
C3566 H3539 0.950 . S
C3566 C3552 1.377 . S
C3566 C3565 1.373 . S
C3567 C3551 1.377 . S
C3567 C3565 1.389 . S
C3567 C3568 1.524 . S
C3568 C3567 1.524 . S
C3568 C3569 1.397 . S
C3568 C3573 1.363 . S
C3569 H3540 0.950 . S
C3569 C3568 1.397 . S
C3569 C3570 1.334 1_545 S
C3570 H3541 0.950 . S
C3570 C3569 1.334 1_565 S
C3570 C3571 1.298 1_565 S
C3571 C3570 1.298 1_545 S
C3571 C3572 1.552 . S
C3571 H3574 0.958 1_545 S
C3572 H3542 0.950 . S
C3572 C3571 1.552 . S
C3572 C3573 1.415 . S
C3573 H3543 0.950 . S
C3573 C3568 1.363 . S
C3573 C3572 1.415 . S
H3574 C3571 0.958 1_565 S
H3575 C3556 0.913 . S
H3576 C3594 0.951 . S
H3577 C3596 0.951 . S
H3578 C3598 0.950 . S
H3579 C3599 0.950 . S
H3580 C3601 0.950 . S
H3581 C3604 0.950 . S
H3582 C3605 0.950 . S
H3583 C3607 0.950 . S
H3584 C3608 0.950 . S
H3585 C3609 0.951 . S
H3586 C3611 0.951 . S
H3587 C3613 0.950 . S
H3588 C3614 0.950 . S
H3589 C3616 0.950 . S
H3590 C3619 0.950 . S
H3591 C3620 0.950 . S
H3592 C3622 0.950 . S
H3593 C3623 0.950 . S
C3594 H3576 0.951 . S
C3594 C3595 1.366 . S
C3594 C3596 1.388 . S
C3595 C3594 1.366 . S
C3595 C3599 1.385 . S
C3596 H3577 0.951 . S
C3596 C3594 1.388 . S
C3596 C3597 1.366 . S
C3597 C3596 1.366 . S
C3597 C3598 1.414 . S
C3597 C3600 1.499 . S
C3598 H3578 0.950 . S
C3598 C3597 1.414 . S
C3598 C3599 1.374 . S
C3599 H3579 0.950 . S
C3599 C3595 1.385 . S
C3599 C3598 1.374 . S
C3600 C3597 1.499 . S
C3600 C3601 1.373 . S
C3600 C3602 1.389 . S
C3601 H3580 0.950 . S
C3601 C3600 1.373 . S
C3601 C3617 1.377 . S
C3602 C3600 1.389 . S
C3602 C3603 1.524 . S
C3602 C3616 1.377 . S
C3603 C3602 1.524 . S
C3603 C3604 1.397 . S
C3603 C3608 1.363 . S
C3604 H3581 0.950 . S
C3604 C3603 1.397 . S
C3604 C3605 1.334 . S
C3605 H3582 0.950 . S
C3605 C3604 1.334 . S
C3605 C3606 1.287 . S
C3606 C3605 1.287 . S
C3606 C3607 1.524 . S
C3606 H3625 0.913 . S
C3607 H3583 0.950 . S
C3607 C3606 1.524 . S
C3607 C3608 1.415 . S
C3608 H3584 0.950 . S
C3608 C3603 1.363 . S
C3608 C3607 1.415 . S
C3609 H3585 0.951 . S
C3609 C3610 1.366 . S
C3609 C3611 1.388 . S
C3610 C3609 1.366 . S
C3610 C3614 1.385 . S
C3611 H3586 0.951 . S
C3611 C3609 1.388 . S
C3611 C3612 1.366 . S
C3612 C3611 1.366 . S
C3612 C3613 1.414 . S
C3612 C3615 1.499 . S
C3613 H3587 0.950 . S
C3613 C3612 1.414 . S
C3613 C3614 1.374 . S
C3614 H3588 0.950 . S
C3614 C3610 1.385 . S
C3614 C3613 1.374 . S
C3615 C3612 1.499 . S
C3615 C3616 1.373 . S
C3615 C3617 1.389 . S
C3616 H3589 0.950 . S
C3616 C3602 1.377 . S
C3616 C3615 1.373 . S
C3617 C3601 1.377 . S
C3617 C3615 1.389 . S
C3617 C3618 1.524 . S
C3618 C3617 1.524 . S
C3618 C3619 1.397 . S
C3618 C3623 1.363 . S
C3619 H3590 0.950 . S
C3619 C3618 1.397 . S
C3619 C3620 1.334 . S
C3620 H3591 0.950 . S
C3620 C3619 1.334 . S
C3620 C3621 1.287 . S
C3621 C3620 1.287 . S
C3621 C3622 1.524 . S
C3621 H3624 0.999 . S
C3622 H3592 0.950 . S
C3622 C3621 1.524 . S
C3622 C3623 1.415 . S
C3623 H3593 0.950 . S
C3623 C3618 1.363 . S
C3623 C3622 1.415 . S
H3624 C3621 0.999 . S
H3625 C3606 0.913 . S
H3626 C3644 0.951 . S
H3627 C3646 0.951 . S
H3628 C3648 0.950 . S
H3629 C3649 0.950 . S
H3630 C3651 0.950 . S
H3631 C3654 0.950 . S
H3632 C3655 0.950 . S
H3633 C3657 0.950 . S
H3634 C3658 0.950 . S
H3635 C3659 0.951 . S
H3636 C3661 0.951 . S
H3637 C3663 0.950 . S
H3638 C3664 0.950 . S
H3639 C3666 0.950 . S
H3640 C3669 0.950 . S
H3641 C3670 0.950 . S
H3642 C3672 0.950 . S
H3643 C3673 0.950 . S
C3644 H3626 0.951 . S
C3644 C3645 1.366 . S
C3644 C3646 1.388 . S
C3645 C3644 1.366 . S
C3645 C3649 1.385 . S
C3646 H3627 0.951 . S
C3646 C3644 1.388 . S
C3646 C3647 1.366 . S
C3647 C3646 1.366 . S
C3647 C3648 1.414 . S
C3647 C3650 1.499 . S
C3648 H3628 0.950 . S
C3648 C3647 1.414 . S
C3648 C3649 1.374 . S
C3649 H3629 0.950 . S
C3649 C3645 1.385 . S
C3649 C3648 1.374 . S
C3650 C3647 1.499 . S
C3650 C3651 1.373 . S
C3650 C3652 1.389 . S
C3651 H3630 0.950 . S
C3651 C3650 1.373 . S
C3651 C3667 1.377 . S
C3652 C3650 1.389 . S
C3652 C3653 1.524 . S
C3652 C3666 1.377 . S
C3653 C3652 1.524 . S
C3653 C3654 1.397 . S
C3653 C3658 1.363 . S
C3654 H3631 0.950 . S
C3654 C3653 1.397 . S
C3654 C3655 1.334 . S
C3655 H3632 0.950 . S
C3655 C3654 1.334 . S
C3655 C3656 1.287 . S
C3656 C3655 1.287 . S
C3656 C3657 1.524 . S
C3656 H3675 0.913 . S
C3657 H3633 0.950 . S
C3657 C3656 1.524 . S
C3657 C3658 1.415 . S
C3658 H3634 0.950 . S
C3658 C3653 1.363 . S
C3658 C3657 1.415 . S
C3659 H3635 0.951 . S
C3659 C3660 1.366 . S
C3659 C3661 1.388 . S
C3660 C3659 1.366 . S
C3660 C3664 1.385 . S
C3661 H3636 0.951 . S
C3661 C3659 1.388 . S
C3661 C3662 1.366 . S
C3662 C3661 1.366 . S
C3662 C3663 1.414 . S
C3662 C3665 1.499 . S
C3663 H3637 0.950 . S
C3663 C3662 1.414 . S
C3663 C3664 1.374 . S
C3664 H3638 0.950 . S
C3664 C3660 1.385 . S
C3664 C3663 1.374 . S
C3665 C3662 1.499 . S
C3665 C3666 1.373 . S
C3665 C3667 1.389 . S
C3666 H3639 0.950 . S
C3666 C3652 1.377 . S
C3666 C3665 1.373 . S
C3667 C3651 1.377 . S
C3667 C3665 1.389 . S
C3667 C3668 1.524 . S
C3668 C3667 1.524 . S
C3668 C3669 1.397 . S
C3668 C3673 1.363 . S
C3669 H3640 0.950 . S
C3669 C3668 1.397 . S
C3669 C3670 1.334 . S
C3670 H3641 0.950 . S
C3670 C3669 1.334 . S
C3670 C3671 1.287 . S
C3671 C3670 1.287 . S
C3671 C3672 1.524 . S
C3671 H3674 0.999 . S
C3672 H3642 0.950 . S
C3672 C3671 1.524 . S
C3672 C3673 1.415 . S
C3673 H3643 0.950 . S
C3673 C3668 1.363 . S
C3673 C3672 1.415 . S
H3674 C3671 0.999 . S
H3675 C3656 0.913 . S
H3676 C3694 0.951 . S
H3677 C3696 0.951 . S
H3678 C3698 0.950 . S
H3679 C3699 0.950 . S
H3680 C3701 0.950 . S
H3681 C3704 0.950 . S
H3682 C3705 0.950 . S
H3683 C3707 0.950 . S
H3684 C3708 0.950 . S
H3685 C3709 0.951 . S
H3686 C3711 0.951 . S
H3687 C3713 0.950 . S
H3688 C3714 0.950 . S
H3689 C3716 0.950 . S
H3690 C3719 0.950 . S
H3691 C3720 0.950 . S
H3692 C3722 0.950 . S
H3693 C3723 0.950 . S
C3694 H3676 0.951 . S
C3694 C3695 1.366 . S
C3694 C3696 1.388 . S
C3695 C3694 1.366 . S
C3695 C3699 1.385 . S
C3696 H3677 0.951 . S
C3696 C3694 1.388 . S
C3696 C3697 1.366 . S
C3697 C3696 1.366 . S
C3697 C3698 1.414 . S
C3697 C3700 1.499 . S
C3698 H3678 0.950 . S
C3698 C3697 1.414 . S
C3698 C3699 1.374 . S
C3699 H3679 0.950 . S
C3699 C3695 1.385 . S
C3699 C3698 1.374 . S
C3700 C3697 1.499 . S
C3700 C3701 1.373 . S
C3700 C3702 1.389 . S
C3701 H3680 0.950 . S
C3701 C3700 1.373 . S
C3701 C3717 1.377 . S
C3702 C3700 1.389 . S
C3702 C3703 1.524 . S
C3702 C3716 1.377 . S
C3703 C3702 1.524 . S
C3703 C3704 1.397 . S
C3703 C3708 1.363 . S
C3704 H3681 0.950 . S
C3704 C3703 1.397 . S
C3704 C3705 1.334 . S
C3705 H3682 0.950 . S
C3705 C3704 1.334 . S
C3705 C3706 1.287 . S
C3706 C3705 1.287 . S
C3706 C3707 1.524 . S
C3706 H3725 0.913 . S
C3707 H3683 0.950 . S
C3707 C3706 1.524 . S
C3707 C3708 1.415 . S
C3708 H3684 0.950 . S
C3708 C3703 1.363 . S
C3708 C3707 1.415 . S
C3709 H3685 0.951 . S
C3709 C3710 1.366 . S
C3709 C3711 1.388 . S
C3710 C3709 1.366 . S
C3710 C3714 1.385 . S
C3711 H3686 0.951 . S
C3711 C3709 1.388 . S
C3711 C3712 1.366 . S
C3712 C3711 1.366 . S
C3712 C3713 1.414 . S
C3712 C3715 1.499 . S
C3713 H3687 0.950 . S
C3713 C3712 1.414 . S
C3713 C3714 1.374 . S
C3714 H3688 0.950 . S
C3714 C3710 1.385 . S
C3714 C3713 1.374 . S
C3715 C3712 1.499 . S
C3715 C3716 1.373 . S
C3715 C3717 1.389 . S
C3716 H3689 0.950 . S
C3716 C3702 1.377 . S
C3716 C3715 1.373 . S
C3717 C3701 1.377 . S
C3717 C3715 1.389 . S
C3717 C3718 1.524 . S
C3718 C3717 1.524 . S
C3718 C3719 1.397 . S
C3718 C3723 1.363 . S
C3719 H3690 0.950 . S
C3719 C3718 1.397 . S
C3719 C3720 1.334 . S
C3720 H3691 0.950 . S
C3720 C3719 1.334 . S
C3720 C3721 1.287 . S
C3721 C3720 1.287 . S
C3721 C3722 1.524 . S
C3721 H3724 0.999 . S
C3722 H3692 0.950 . S
C3722 C3721 1.524 . S
C3722 C3723 1.415 . S
C3723 H3693 0.950 . S
C3723 C3718 1.363 . S
C3723 C3722 1.415 . S
H3724 C3721 0.999 . S
H3725 C3706 0.913 . S
H3726 C3744 0.951 . S
H3727 C3746 0.951 . S
H3728 C3748 0.950 . S
H3729 C3749 0.950 . S
H3730 C3751 0.950 . S
H3731 C3754 0.950 . S
H3732 C3755 0.950 . S
H3733 C3757 0.950 . S
H3734 C3758 0.950 . S
H3735 C3759 0.951 . S
H3736 C3761 0.951 . S
H3737 C3763 0.950 . S
H3738 C3764 0.950 . S
H3739 C3766 0.950 . S
H3740 C3769 0.950 . S
H3741 C3770 0.950 . S
H3742 C3772 0.950 . S
H3743 C3773 0.950 . S
C3744 H3726 0.951 . S
C3744 C3745 1.366 . S
C3744 C3746 1.388 . S
C3745 C3744 1.366 . S
C3745 C3749 1.385 . S
C3746 H3727 0.951 . S
C3746 C3744 1.388 . S
C3746 C3747 1.366 . S
C3747 C3746 1.366 . S
C3747 C3748 1.414 . S
C3747 C3750 1.499 . S
C3748 H3728 0.950 . S
C3748 C3747 1.414 . S
C3748 C3749 1.374 . S
C3749 H3729 0.950 . S
C3749 C3745 1.385 . S
C3749 C3748 1.374 . S
C3750 C3747 1.499 . S
C3750 C3751 1.373 . S
C3750 C3752 1.389 . S
C3751 H3730 0.950 . S
C3751 C3750 1.373 . S
C3751 C3767 1.377 . S
C3752 C3750 1.389 . S
C3752 C3753 1.524 . S
C3752 C3766 1.377 . S
C3753 C3752 1.524 . S
C3753 C3754 1.397 . S
C3753 C3758 1.363 . S
C3754 H3731 0.950 . S
C3754 C3753 1.397 . S
C3754 C3755 1.334 . S
C3755 H3732 0.950 . S
C3755 C3754 1.334 . S
C3755 C3756 1.287 . S
C3756 C3755 1.287 . S
C3756 C3757 1.524 . S
C3756 H3775 0.913 . S
C3757 H3733 0.950 . S
C3757 C3756 1.524 . S
C3757 C3758 1.415 . S
C3758 H3734 0.950 . S
C3758 C3753 1.363 . S
C3758 C3757 1.415 . S
C3759 H3735 0.951 . S
C3759 C3760 1.366 . S
C3759 C3761 1.388 . S
C3760 C3759 1.366 . S
C3760 C3764 1.385 . S
C3761 H3736 0.951 . S
C3761 C3759 1.388 . S
C3761 C3762 1.366 . S
C3762 C3761 1.366 . S
C3762 C3763 1.414 . S
C3762 C3765 1.499 . S
C3763 H3737 0.950 . S
C3763 C3762 1.414 . S
C3763 C3764 1.374 . S
C3764 H3738 0.950 . S
C3764 C3760 1.385 . S
C3764 C3763 1.374 . S
C3765 C3762 1.499 . S
C3765 C3766 1.373 . S
C3765 C3767 1.389 . S
C3766 H3739 0.950 . S
C3766 C3752 1.377 . S
C3766 C3765 1.373 . S
C3767 C3751 1.377 . S
C3767 C3765 1.389 . S
C3767 C3768 1.524 . S
C3768 C3767 1.524 . S
C3768 C3769 1.397 . S
C3768 C3773 1.363 . S
C3769 H3740 0.950 . S
C3769 C3768 1.397 . S
C3769 C3770 1.334 . S
C3770 H3741 0.950 . S
C3770 C3769 1.334 . S
C3770 C3771 1.287 . S
C3771 C3770 1.287 . S
C3771 C3772 1.524 . S
C3771 H3774 0.999 . S
C3772 H3742 0.950 . S
C3772 C3771 1.524 . S
C3772 C3773 1.415 . S
C3773 H3743 0.950 . S
C3773 C3768 1.363 . S
C3773 C3772 1.415 . S
H3774 C3771 0.999 . S
H3775 C3756 0.913 . S
H3776 C3794 0.951 . S
H3777 C3796 0.951 . S
H3778 C3798 0.950 . S
H3779 C3799 0.950 . S
H3780 C3801 0.950 . S
H3781 C3804 0.950 . S
H3782 C3805 0.950 . S
H3783 C3807 0.950 . S
H3784 C3808 0.950 . S
H3785 C3809 0.951 . S
H3786 C3811 0.951 . S
H3787 C3813 0.950 . S
H3788 C3814 0.950 . S
H3789 C3816 0.950 . S
H3790 C3819 0.950 . S
H3791 C3820 0.950 . S
H3792 C3822 0.950 . S
H3793 C3823 0.950 . S
C3794 H3776 0.951 . S
C3794 C3795 1.366 . S
C3794 C3796 1.388 . S
C3795 C3794 1.366 . S
C3795 C3799 1.385 . S
C3796 H3777 0.951 . S
C3796 C3794 1.388 . S
C3796 C3797 1.366 . S
C3797 C3796 1.366 . S
C3797 C3798 1.414 . S
C3797 C3800 1.499 . S
C3798 H3778 0.950 . S
C3798 C3797 1.414 . S
C3798 C3799 1.374 . S
C3799 H3779 0.950 . S
C3799 C3795 1.385 . S
C3799 C3798 1.374 . S
C3800 C3797 1.499 . S
C3800 C3801 1.373 . S
C3800 C3802 1.389 . S
C3801 H3780 0.950 . S
C3801 C3800 1.373 . S
C3801 C3817 1.377 . S
C3802 C3800 1.389 . S
C3802 C3803 1.524 . S
C3802 C3816 1.377 . S
C3803 C3802 1.524 . S
C3803 C3804 1.397 . S
C3803 C3808 1.363 . S
C3804 H3781 0.950 . S
C3804 C3803 1.397 . S
C3804 C3805 1.334 . S
C3805 H3782 0.950 . S
C3805 C3804 1.334 . S
C3805 C3806 1.287 . S
C3806 C3805 1.287 . S
C3806 C3807 1.524 . S
C3806 H3825 0.913 . S
C3807 H3783 0.950 . S
C3807 C3806 1.524 . S
C3807 C3808 1.415 . S
C3808 H3784 0.950 . S
C3808 C3803 1.363 . S
C3808 C3807 1.415 . S
C3809 H3785 0.951 . S
C3809 C3810 1.366 . S
C3809 C3811 1.388 . S
C3810 C3809 1.366 . S
C3810 C3814 1.385 . S
C3811 H3786 0.951 . S
C3811 C3809 1.388 . S
C3811 C3812 1.366 . S
C3812 C3811 1.366 . S
C3812 C3813 1.414 . S
C3812 C3815 1.499 . S
C3813 H3787 0.950 . S
C3813 C3812 1.414 . S
C3813 C3814 1.374 . S
C3814 H3788 0.950 . S
C3814 C3810 1.385 . S
C3814 C3813 1.374 . S
C3815 C3812 1.499 . S
C3815 C3816 1.373 . S
C3815 C3817 1.389 . S
C3816 H3789 0.950 . S
C3816 C3802 1.377 . S
C3816 C3815 1.373 . S
C3817 C3801 1.377 . S
C3817 C3815 1.389 . S
C3817 C3818 1.524 . S
C3818 C3817 1.524 . S
C3818 C3819 1.397 . S
C3818 C3823 1.363 . S
C3819 H3790 0.950 . S
C3819 C3818 1.397 . S
C3819 C3820 1.334 . S
C3820 H3791 0.950 . S
C3820 C3819 1.334 . S
C3820 C3821 1.287 . S
C3821 C3820 1.287 . S
C3821 C3822 1.524 . S
C3821 H3824 0.999 . S
C3822 H3792 0.950 . S
C3822 C3821 1.524 . S
C3822 C3823 1.415 . S
C3823 H3793 0.950 . S
C3823 C3818 1.363 . S
C3823 C3822 1.415 . S
H3824 C3821 0.999 . S
H3825 C3806 0.913 . S
H3826 C3844 0.951 . S
H3827 C3846 0.951 . S
H3828 C3848 0.950 . S
H3829 C3849 0.950 . S
H3830 C3851 0.950 . S
H3831 C3854 0.950 . S
H3832 C3855 0.950 . S
H3833 C3857 0.950 . S
H3834 C3858 0.950 . S
H3835 C3859 0.951 . S
H3836 C3861 0.951 . S
H3837 C3863 0.950 . S
H3838 C3864 0.950 . S
H3839 C3866 0.950 . S
H3840 C3869 0.950 . S
H3841 C3870 0.950 . S
H3842 C3872 0.950 . S
H3843 C3873 0.950 . S
C3844 H3826 0.951 . S
C3844 C3845 1.366 . S
C3844 C3846 1.388 . S
C3845 C3844 1.366 . S
C3845 C3849 1.385 . S
C3846 H3827 0.951 . S
C3846 C3844 1.388 . S
C3846 C3847 1.366 . S
C3847 C3846 1.366 . S
C3847 C3848 1.414 . S
C3847 C3850 1.499 . S
C3848 H3828 0.950 . S
C3848 C3847 1.414 . S
C3848 C3849 1.374 . S
C3849 H3829 0.950 . S
C3849 C3845 1.385 . S
C3849 C3848 1.374 . S
C3850 C3847 1.499 . S
C3850 C3851 1.373 . S
C3850 C3852 1.389 . S
C3851 H3830 0.950 . S
C3851 C3850 1.373 . S
C3851 C3867 1.377 . S
C3852 C3850 1.389 . S
C3852 C3853 1.524 . S
C3852 C3866 1.377 . S
C3853 C3852 1.524 . S
C3853 C3854 1.397 . S
C3853 C3858 1.363 . S
C3854 H3831 0.950 . S
C3854 C3853 1.397 . S
C3854 C3855 1.334 . S
C3855 H3832 0.950 . S
C3855 C3854 1.334 . S
C3855 C3856 1.287 . S
C3856 C3855 1.287 . S
C3856 C3857 1.524 . S
C3856 H3875 0.913 . S
C3857 H3833 0.950 . S
C3857 C3856 1.524 . S
C3857 C3858 1.415 . S
C3858 H3834 0.950 . S
C3858 C3853 1.363 . S
C3858 C3857 1.415 . S
C3859 H3835 0.951 . S
C3859 C3860 1.366 . S
C3859 C3861 1.388 . S
C3860 C3859 1.366 . S
C3860 C3864 1.385 . S
C3861 H3836 0.951 . S
C3861 C3859 1.388 . S
C3861 C3862 1.366 . S
C3862 C3861 1.366 . S
C3862 C3863 1.414 . S
C3862 C3865 1.499 . S
C3863 H3837 0.950 . S
C3863 C3862 1.414 . S
C3863 C3864 1.374 . S
C3864 H3838 0.950 . S
C3864 C3860 1.385 . S
C3864 C3863 1.374 . S
C3865 C3862 1.499 . S
C3865 C3866 1.373 . S
C3865 C3867 1.389 . S
C3866 H3839 0.950 . S
C3866 C3852 1.377 . S
C3866 C3865 1.373 . S
C3867 C3851 1.377 . S
C3867 C3865 1.389 . S
C3867 C3868 1.524 . S
C3868 C3867 1.524 . S
C3868 C3869 1.397 . S
C3868 C3873 1.363 . S
C3869 H3840 0.950 . S
C3869 C3868 1.397 . S
C3869 C3870 1.334 . S
C3870 H3841 0.950 . S
C3870 C3869 1.334 . S
C3870 C3871 1.287 . S
C3871 C3870 1.287 . S
C3871 C3872 1.524 . S
C3871 H3874 0.999 . S
C3872 H3842 0.950 . S
C3872 C3871 1.524 . S
C3872 C3873 1.415 . S
C3873 H3843 0.950 . S
C3873 C3868 1.363 . S
C3873 C3872 1.415 . S
H3874 C3871 0.999 . S
H3875 C3856 0.913 . S
H3876 C3894 0.951 . S
H3877 C3896 0.951 . S
H3878 C3898 0.950 . S
H3879 C3899 0.950 . S
H3880 C3901 0.950 . S
H3881 C3904 0.950 . S
H3882 C3905 0.950 . S
H3883 C3907 0.950 . S
H3884 C3908 0.950 . S
H3885 C3909 0.951 . S
H3886 C3911 0.951 . S
H3887 C3913 0.950 . S
H3888 C3914 0.950 . S
H3889 C3916 0.950 . S
H3890 C3919 0.950 . S
H3891 C3920 0.950 . S
H3892 C3922 0.950 . S
H3893 C3923 0.950 . S
C3894 H3876 0.951 . S
C3894 C3895 1.366 . S
C3894 C3896 1.388 . S
C3895 C3894 1.366 . S
C3895 C3899 1.385 . S
C3896 H3877 0.951 . S
C3896 C3894 1.388 . S
C3896 C3897 1.366 . S
C3897 C3896 1.366 . S
C3897 C3898 1.414 . S
C3897 C3900 1.499 . S
C3898 H3878 0.950 . S
C3898 C3897 1.414 . S
C3898 C3899 1.374 . S
C3899 H3879 0.950 . S
C3899 C3895 1.385 . S
C3899 C3898 1.374 . S
C3900 C3897 1.499 . S
C3900 C3901 1.373 . S
C3900 C3902 1.389 . S
C3901 H3880 0.950 . S
C3901 C3900 1.373 . S
C3901 C3917 1.377 . S
C3902 C3900 1.389 . S
C3902 C3903 1.524 . S
C3902 C3916 1.377 . S
C3903 C3902 1.524 . S
C3903 C3904 1.397 . S
C3903 C3908 1.363 . S
C3904 H3881 0.950 . S
C3904 C3903 1.397 . S
C3904 C3905 1.334 . S
C3905 H3882 0.950 . S
C3905 C3904 1.334 . S
C3905 C3906 1.287 . S
C3906 C3905 1.287 . S
C3906 C3907 1.524 . S
C3906 H3925 0.913 . S
C3907 H3883 0.950 . S
C3907 C3906 1.524 . S
C3907 C3908 1.415 . S
C3908 H3884 0.950 . S
C3908 C3903 1.363 . S
C3908 C3907 1.415 . S
C3909 H3885 0.951 . S
C3909 C3910 1.366 . S
C3909 C3911 1.388 . S
C3910 C3909 1.366 . S
C3910 C3914 1.385 . S
C3911 H3886 0.951 . S
C3911 C3909 1.388 . S
C3911 C3912 1.366 . S
C3912 C3911 1.366 . S
C3912 C3913 1.414 . S
C3912 C3915 1.499 . S
C3913 H3887 0.950 . S
C3913 C3912 1.414 . S
C3913 C3914 1.374 . S
C3914 H3888 0.950 . S
C3914 C3910 1.385 . S
C3914 C3913 1.374 . S
C3915 C3912 1.499 . S
C3915 C3916 1.373 . S
C3915 C3917 1.389 . S
C3916 H3889 0.950 . S
C3916 C3902 1.377 . S
C3916 C3915 1.373 . S
C3917 C3901 1.377 . S
C3917 C3915 1.389 . S
C3917 C3918 1.524 . S
C3918 C3917 1.524 . S
C3918 C3919 1.397 . S
C3918 C3923 1.363 . S
C3919 H3890 0.950 . S
C3919 C3918 1.397 . S
C3919 C3920 1.334 . S
C3920 H3891 0.950 . S
C3920 C3919 1.334 . S
C3920 C3921 1.287 . S
C3921 C3920 1.287 . S
C3921 C3922 1.524 . S
C3921 H3924 0.999 . S
C3922 H3892 0.950 . S
C3922 C3921 1.524 . S
C3922 C3923 1.415 . S
C3923 H3893 0.950 . S
C3923 C3918 1.363 . S
C3923 C3922 1.415 . S
H3924 C3921 0.999 . S
H3925 C3906 0.913 . S
H3926 C3944 0.951 . S
H3927 C3946 0.951 . S
H3928 C3948 0.950 . S
H3929 C3949 0.950 . S
H3930 C3951 0.950 . S
H3931 C3954 0.950 . S
H3932 C3955 0.950 . S
H3933 C3957 0.950 . S
H3934 C3958 0.950 . S
H3935 C3959 0.951 . S
H3936 C3961 0.951 . S
H3937 C3963 0.950 . S
H3938 C3964 0.950 . S
H3939 C3966 0.950 . S
H3940 C3969 0.950 . S
H3941 C3970 0.950 . S
H3942 C3972 0.950 . S
H3943 C3973 0.950 . S
C3944 H3926 0.951 . S
C3944 C3945 1.366 . S
C3944 C3946 1.388 . S
C3945 C3944 1.366 . S
C3945 C3949 1.385 . S
C3946 H3927 0.951 . S
C3946 C3944 1.388 . S
C3946 C3947 1.366 . S
C3947 C3946 1.366 . S
C3947 C3948 1.414 . S
C3947 C3950 1.499 . S
C3948 H3928 0.950 . S
C3948 C3947 1.414 . S
C3948 C3949 1.374 . S
C3949 H3929 0.950 . S
C3949 C3945 1.385 . S
C3949 C3948 1.374 . S
C3950 C3947 1.499 . S
C3950 C3951 1.373 . S
C3950 C3952 1.389 . S
C3951 H3930 0.950 . S
C3951 C3950 1.373 . S
C3951 C3967 1.377 . S
C3952 C3950 1.389 . S
C3952 C3953 1.524 . S
C3952 C3966 1.377 . S
C3953 C3952 1.524 . S
C3953 C3954 1.397 . S
C3953 C3958 1.363 . S
C3954 H3931 0.950 . S
C3954 C3953 1.397 . S
C3954 C3955 1.334 . S
C3955 H3932 0.950 . S
C3955 C3954 1.334 . S
C3955 C3956 1.287 . S
C3956 C3955 1.287 . S
C3956 C3957 1.524 . S
C3956 H3975 0.913 . S
C3957 H3933 0.950 . S
C3957 C3956 1.524 . S
C3957 C3958 1.415 . S
C3958 H3934 0.950 . S
C3958 C3953 1.363 . S
C3958 C3957 1.415 . S
C3959 H3935 0.951 . S
C3959 C3960 1.366 . S
C3959 C3961 1.388 . S
C3960 C3959 1.366 . S
C3960 C3964 1.385 . S
C3961 H3936 0.951 . S
C3961 C3959 1.388 . S
C3961 C3962 1.366 . S
C3962 C3961 1.366 . S
C3962 C3963 1.414 . S
C3962 C3965 1.499 . S
C3963 H3937 0.950 . S
C3963 C3962 1.414 . S
C3963 C3964 1.374 . S
C3964 H3938 0.950 . S
C3964 C3960 1.385 . S
C3964 C3963 1.374 . S
C3965 C3962 1.499 . S
C3965 C3966 1.373 . S
C3965 C3967 1.389 . S
C3966 H3939 0.950 . S
C3966 C3952 1.377 . S
C3966 C3965 1.373 . S
C3967 C3951 1.377 . S
C3967 C3965 1.389 . S
C3967 C3968 1.524 . S
C3968 C3967 1.524 . S
C3968 C3969 1.397 . S
C3968 C3973 1.363 . S
C3969 H3940 0.950 . S
C3969 C3968 1.397 . S
C3969 C3970 1.334 . S
C3970 H3941 0.950 . S
C3970 C3969 1.334 . S
C3970 C3971 1.287 . S
C3971 C3970 1.287 . S
C3971 C3972 1.524 . S
C3971 H3974 0.999 . S
C3972 H3942 0.950 . S
C3972 C3971 1.524 . S
C3972 C3973 1.415 . S
C3973 H3943 0.950 . S
C3973 C3968 1.363 . S
C3973 C3972 1.415 . S
H3974 C3971 0.999 . S
H3975 C3956 0.913 . S
H3976 C3994 0.951 . S
H3977 C3996 0.951 . S
H3978 C3998 0.950 . S
H3979 C3999 0.950 . S
H3980 C4001 0.950 . S
H3981 C4004 0.950 . S
H3982 C4005 0.950 . S
H3983 C4007 0.950 . S
H3984 C4008 0.950 . S
H3985 C4009 0.951 . S
H3986 C4011 0.951 . S
H3987 C4013 0.950 . S
H3988 C4014 0.950 . S
H3989 C4016 0.950 . S
H3990 C4019 0.950 . S
H3991 C4020 0.950 . S
H3992 C4022 0.950 . S
H3993 C4023 0.950 . S
C3994 H3976 0.951 . S
C3994 C3995 1.366 . S
C3994 C3996 1.388 . S
C3995 C3994 1.366 . S
C3995 C3999 1.385 . S
C3996 H3977 0.951 . S
C3996 C3994 1.388 . S
C3996 C3997 1.366 . S
C3997 C3996 1.366 . S
C3997 C3998 1.414 . S
C3997 C4000 1.499 . S
C3998 H3978 0.950 . S
C3998 C3997 1.414 . S
C3998 C3999 1.374 . S
C3999 H3979 0.950 . S
C3999 C3995 1.385 . S
C3999 C3998 1.374 . S
C4000 C3997 1.499 . S
C4000 C4001 1.373 . S
C4000 C4002 1.389 . S
C4001 H3980 0.950 . S
C4001 C4000 1.373 . S
C4001 C4017 1.377 . S
C4002 C4000 1.389 . S
C4002 C4003 1.524 . S
C4002 C4016 1.377 . S
C4003 C4002 1.524 . S
C4003 C4004 1.397 . S
C4003 C4008 1.363 . S
C4004 H3981 0.950 . S
C4004 C4003 1.397 . S
C4004 C4005 1.334 . S
C4005 H3982 0.950 . S
C4005 C4004 1.334 . S
C4005 C4006 1.287 . S
C4006 C4005 1.287 . S
C4006 C4007 1.524 . S
C4006 H4025 0.913 . S
C4007 H3983 0.950 . S
C4007 C4006 1.524 . S
C4007 C4008 1.415 . S
C4008 H3984 0.950 . S
C4008 C4003 1.363 . S
C4008 C4007 1.415 . S
C4009 H3985 0.951 . S
C4009 C4010 1.366 . S
C4009 C4011 1.388 . S
C4010 C4009 1.366 . S
C4010 C4014 1.385 . S
C4011 H3986 0.951 . S
C4011 C4009 1.388 . S
C4011 C4012 1.366 . S
C4012 C4011 1.366 . S
C4012 C4013 1.414 . S
C4012 C4015 1.499 . S
C4013 H3987 0.950 . S
C4013 C4012 1.414 . S
C4013 C4014 1.374 . S
C4014 H3988 0.950 . S
C4014 C4010 1.385 . S
C4014 C4013 1.374 . S
C4015 C4012 1.499 . S
C4015 C4016 1.373 . S
C4015 C4017 1.389 . S
C4016 H3989 0.950 . S
C4016 C4002 1.377 . S
C4016 C4015 1.373 . S
C4017 C4001 1.377 . S
C4017 C4015 1.389 . S
C4017 C4018 1.524 . S
C4018 C4017 1.524 . S
C4018 C4019 1.397 . S
C4018 C4023 1.363 . S
C4019 H3990 0.950 . S
C4019 C4018 1.397 . S
C4019 C4020 1.334 . S
C4020 H3991 0.950 . S
C4020 C4019 1.334 . S
C4020 C4021 1.287 . S
C4021 C4020 1.287 . S
C4021 C4022 1.524 . S
C4021 H4024 0.999 . S
C4022 H3992 0.950 . S
C4022 C4021 1.524 . S
C4022 C4023 1.415 . S
C4023 H3993 0.950 . S
C4023 C4018 1.363 . S
C4023 C4022 1.415 . S
H4024 C4021 0.999 . S
H4025 C4006 0.913 . S
H4026 C4044 0.951 . S
H4027 C4046 0.951 . S
H4028 C4048 0.950 . S
H4029 C4049 0.950 . S
H4030 C4051 0.950 . S
H4031 C4054 0.950 . S
H4032 C4055 0.950 . S
H4033 C4057 0.950 . S
H4034 C4058 0.950 . S
H4035 C4059 0.951 . S
H4036 C4061 0.951 . S
H4037 C4063 0.950 . S
H4038 C4064 0.950 . S
H4039 C4066 0.950 . S
H4040 C4069 0.950 . S
H4041 C4070 0.950 . S
H4042 C4072 0.950 . S
H4043 C4073 0.950 . S
C4044 H4026 0.951 . S
C4044 C4045 1.366 . S
C4044 C4046 1.388 . S
C4045 C4044 1.366 . S
C4045 C4049 1.385 . S
C4046 H4027 0.951 . S
C4046 C4044 1.388 . S
C4046 C4047 1.366 . S
C4047 C4046 1.366 . S
C4047 C4048 1.414 . S
C4047 C4050 1.499 . S
C4048 H4028 0.950 . S
C4048 C4047 1.414 . S
C4048 C4049 1.374 . S
C4049 H4029 0.950 . S
C4049 C4045 1.385 . S
C4049 C4048 1.374 . S
C4050 C4047 1.499 . S
C4050 C4051 1.373 . S
C4050 C4052 1.389 . S
C4051 H4030 0.950 . S
C4051 C4050 1.373 . S
C4051 C4067 1.377 . S
C4052 C4050 1.389 . S
C4052 C4053 1.524 . S
C4052 C4066 1.377 . S
C4053 C4052 1.524 . S
C4053 C4054 1.397 . S
C4053 C4058 1.363 . S
C4054 H4031 0.950 . S
C4054 C4053 1.397 . S
C4054 C4055 1.334 . S
C4055 H4032 0.950 . S
C4055 C4054 1.334 . S
C4055 C4056 1.287 . S
C4056 C4055 1.287 . S
C4056 C4057 1.524 . S
C4056 H4075 0.913 . S
C4057 H4033 0.950 . S
C4057 C4056 1.524 . S
C4057 C4058 1.415 . S
C4058 H4034 0.950 . S
C4058 C4053 1.363 . S
C4058 C4057 1.415 . S
C4059 H4035 0.951 . S
C4059 C4060 1.366 . S
C4059 C4061 1.388 . S
C4060 C4059 1.366 . S
C4060 C4064 1.385 . S
C4061 H4036 0.951 . S
C4061 C4059 1.388 . S
C4061 C4062 1.366 . S
C4062 C4061 1.366 . S
C4062 C4063 1.414 . S
C4062 C4065 1.499 . S
C4063 H4037 0.950 . S
C4063 C4062 1.414 . S
C4063 C4064 1.374 . S
C4064 H4038 0.950 . S
C4064 C4060 1.385 . S
C4064 C4063 1.374 . S
C4065 C4062 1.499 . S
C4065 C4066 1.373 . S
C4065 C4067 1.389 . S
C4066 H4039 0.950 . S
C4066 C4052 1.377 . S
C4066 C4065 1.373 . S
C4067 C4051 1.377 . S
C4067 C4065 1.389 . S
C4067 C4068 1.524 . S
C4068 C4067 1.524 . S
C4068 C4069 1.397 . S
C4068 C4073 1.363 . S
C4069 H4040 0.950 . S
C4069 C4068 1.397 . S
C4069 C4070 1.334 . S
C4070 H4041 0.950 . S
C4070 C4069 1.334 . S
C4070 C4071 1.287 . S
C4071 C4070 1.287 . S
C4071 C4072 1.524 . S
C4071 H4074 0.999 . S
C4072 H4042 0.950 . S
C4072 C4071 1.524 . S
C4072 C4073 1.415 . S
C4073 H4043 0.950 . S
C4073 C4068 1.363 . S
C4073 C4072 1.415 . S
H4074 C4071 0.999 . S
H4075 C4056 0.913 . S
H4076 C4094 0.951 . S
H4077 C4096 0.951 . S
H4078 C4098 0.950 . S
H4079 C4099 0.950 . S
H4080 C4101 0.950 . S
H4081 C4104 0.950 . S
H4082 C4105 0.950 . S
H4083 C4107 0.950 . S
H4084 C4108 0.950 . S
H4085 C4109 0.951 . S
H4086 C4111 0.951 . S
H4087 C4113 0.950 . S
H4088 C4114 0.950 . S
H4089 C4116 0.950 . S
H4090 C4119 0.950 . S
H4091 C4120 0.950 . S
H4092 C4122 0.950 . S
H4093 C4123 0.950 . S
C4094 H4076 0.951 . S
C4094 C4095 1.366 . S
C4094 C4096 1.388 . S
C4095 C4094 1.366 . S
C4095 C4099 1.385 . S
C4096 H4077 0.951 . S
C4096 C4094 1.388 . S
C4096 C4097 1.366 . S
C4097 C4096 1.366 . S
C4097 C4098 1.414 . S
C4097 C4100 1.499 . S
C4098 H4078 0.950 . S
C4098 C4097 1.414 . S
C4098 C4099 1.374 . S
C4099 H4079 0.950 . S
C4099 C4095 1.385 . S
C4099 C4098 1.374 . S
C4100 C4097 1.499 . S
C4100 C4101 1.373 . S
C4100 C4102 1.389 . S
C4101 H4080 0.950 . S
C4101 C4100 1.373 . S
C4101 C4117 1.377 . S
C4102 C4100 1.389 . S
C4102 C4103 1.524 . S
C4102 C4116 1.377 . S
C4103 C4102 1.524 . S
C4103 C4104 1.397 . S
C4103 C4108 1.363 . S
C4104 H4081 0.950 . S
C4104 C4103 1.397 . S
C4104 C4105 1.334 . S
C4105 H4082 0.950 . S
C4105 C4104 1.334 . S
C4105 C4106 1.287 . S
C4106 C4105 1.287 . S
C4106 C4107 1.524 . S
C4106 H4125 0.913 . S
C4107 H4083 0.950 . S
C4107 C4106 1.524 . S
C4107 C4108 1.415 . S
C4108 H4084 0.950 . S
C4108 C4103 1.363 . S
C4108 C4107 1.415 . S
C4109 H4085 0.951 . S
C4109 C4110 1.366 . S
C4109 C4111 1.388 . S
C4110 C4109 1.366 . S
C4110 C4114 1.385 . S
C4111 H4086 0.951 . S
C4111 C4109 1.388 . S
C4111 C4112 1.366 . S
C4112 C4111 1.366 . S
C4112 C4113 1.414 . S
C4112 C4115 1.499 . S
C4113 H4087 0.950 . S
C4113 C4112 1.414 . S
C4113 C4114 1.374 . S
C4114 H4088 0.950 . S
C4114 C4110 1.385 . S
C4114 C4113 1.374 . S
C4115 C4112 1.499 . S
C4115 C4116 1.373 . S
C4115 C4117 1.389 . S
C4116 H4089 0.950 . S
C4116 C4102 1.377 . S
C4116 C4115 1.373 . S
C4117 C4101 1.377 . S
C4117 C4115 1.389 . S
C4117 C4118 1.524 . S
C4118 C4117 1.524 . S
C4118 C4119 1.397 . S
C4118 C4123 1.363 . S
C4119 H4090 0.950 . S
C4119 C4118 1.397 . S
C4119 C4120 1.334 . S
C4120 H4091 0.950 . S
C4120 C4119 1.334 . S
C4120 C4121 1.287 . S
C4121 C4120 1.287 . S
C4121 C4122 1.524 . S
C4121 H4124 0.999 . S
C4122 H4092 0.950 . S
C4122 C4121 1.524 . S
C4122 C4123 1.415 . S
C4123 H4093 0.950 . S
C4123 C4118 1.363 . S
C4123 C4122 1.415 . S
H4124 C4121 0.999 . S
H4125 C4106 0.913 . S
H4126 C4144 0.951 . S
H4127 C4146 0.951 . S
H4128 C4148 0.950 . S
H4129 C4149 0.950 . S
H4130 C4151 0.950 . S
H4131 C4154 0.950 . S
H4132 C4155 0.950 . S
H4133 C4157 0.950 . S
H4134 C4158 0.950 . S
H4135 C4159 0.951 . S
H4136 C4161 0.951 . S
H4137 C4163 0.950 . S
H4138 C4164 0.950 . S
H4139 C4166 0.950 . S
H4140 C4169 0.950 . S
H4141 C4170 0.950 . S
H4142 C4172 0.950 . S
H4143 C4173 0.950 . S
C4144 H4126 0.951 . S
C4144 C4145 1.366 . S
C4144 C4146 1.388 . S
C4145 C4144 1.366 . S
C4145 C4149 1.385 . S
C4146 H4127 0.951 . S
C4146 C4144 1.388 . S
C4146 C4147 1.366 . S
C4147 C4146 1.366 . S
C4147 C4148 1.414 . S
C4147 C4150 1.499 . S
C4148 H4128 0.950 . S
C4148 C4147 1.414 . S
C4148 C4149 1.374 . S
C4149 H4129 0.950 . S
C4149 C4145 1.385 . S
C4149 C4148 1.374 . S
C4150 C4147 1.499 . S
C4150 C4151 1.373 . S
C4150 C4152 1.389 . S
C4151 H4130 0.950 . S
C4151 C4150 1.373 . S
C4151 C4167 1.377 . S
C4152 C4150 1.389 . S
C4152 C4153 1.524 . S
C4152 C4166 1.377 . S
C4153 C4152 1.524 . S
C4153 C4154 1.397 . S
C4153 C4158 1.363 . S
C4154 H4131 0.950 . S
C4154 C4153 1.397 . S
C4154 C4155 1.334 . S
C4155 H4132 0.950 . S
C4155 C4154 1.334 . S
C4155 C4156 1.287 . S
C4156 C4155 1.287 . S
C4156 C4157 1.524 . S
C4156 H4175 0.913 . S
C4157 H4133 0.950 . S
C4157 C4156 1.524 . S
C4157 C4158 1.415 . S
C4158 H4134 0.950 . S
C4158 C4153 1.363 . S
C4158 C4157 1.415 . S
C4159 H4135 0.951 . S
C4159 C4160 1.366 . S
C4159 C4161 1.388 . S
C4160 C4159 1.366 . S
C4160 C4164 1.385 . S
C4161 H4136 0.951 . S
C4161 C4159 1.388 . S
C4161 C4162 1.366 . S
C4162 C4161 1.366 . S
C4162 C4163 1.414 . S
C4162 C4165 1.499 . S
C4163 H4137 0.950 . S
C4163 C4162 1.414 . S
C4163 C4164 1.374 . S
C4164 H4138 0.950 . S
C4164 C4160 1.385 . S
C4164 C4163 1.374 . S
C4165 C4162 1.499 . S
C4165 C4166 1.373 . S
C4165 C4167 1.389 . S
C4166 H4139 0.950 . S
C4166 C4152 1.377 . S
C4166 C4165 1.373 . S
C4167 C4151 1.377 . S
C4167 C4165 1.389 . S
C4167 C4168 1.524 . S
C4168 C4167 1.524 . S
C4168 C4169 1.397 . S
C4168 C4173 1.363 . S
C4169 H4140 0.950 . S
C4169 C4168 1.397 . S
C4169 C4170 1.334 . S
C4170 H4141 0.950 . S
C4170 C4169 1.334 . S
C4170 C4171 1.287 . S
C4171 C4170 1.287 . S
C4171 C4172 1.524 . S
C4171 H4174 0.999 . S
C4172 H4142 0.950 . S
C4172 C4171 1.524 . S
C4172 C4173 1.415 . S
C4173 H4143 0.950 . S
C4173 C4168 1.363 . S
C4173 C4172 1.415 . S
H4174 C4171 0.999 . S
H4175 C4156 0.913 . S
C1495 C522 1.421 . S
C1510 C787 1.348 . S
C1545 C562 1.429 . S
C1560 C871 1.364 . S
C1595 C495 1.454 . S
C1610 C951 1.417 . S
C1645 C455 1.403 . S
C1660 C867 1.369 . S
C1710 C955 1.287 . S
C1695 C362 1.353 . S
C1745 C402 1.388 . S
C1760 C783 1.345 . S
C1810 C776 1.378 . S
C1795 C442 1.428 . S
C1860 C860 1.340 . S
C1845 C375 1.405 . S
C1895 C415 1.457 . S
C1910 C962 1.416 . S
C1945 C535 1.405 . S
C1960 C878 1.369 . S
C1995 C575 1.329 . S
C2010 C944 1.262 . S
C2060 C794 1.375 . S
C2045 C482 1.389 . S
C2110 C1039 1.347 . S
C2095 C42 1.421 . S
C2145 C82 1.429 . S
C2160 C1123 1.365 . S
C2195 C15 1.454 . S
C2210 C1203 1.417 . S
C2245 C695 1.403 . S
C2260 C1119 1.369 . S
C2295 C602 1.353 . S
C2310 C1207 1.287 . S
C2345 C642 1.388 . S
C2360 C1035 1.345 . S
C2395 C682 1.427 . S
C2410 C1028 1.376 . S
C2445 C615 1.405 . S
C2460 C1112 1.338 . S
C2510 C1214 1.416 . S
C2495 C655 1.457 . S
C2545 C55 1.405 . S
C2560 C1130 1.369 . S
C2610 C1196 1.262 . S
C2595 C95 1.329 . S
C2645 C2 1.390 . S
C2660 C1046 1.376 . S
C2710 C1291 1.347 . S
C2695 C282 1.421 . S
C2745 C322 1.429 . S
C2760 C1375 1.364 . S
C2810 C1455 1.417 . S
C2795 C255 1.454 . S
C2860 C1371 1.370 . S
C2845 C215 1.403 . S
C2910 C1459 1.288 . S
C2895 C122 1.353 . S
C2945 C162 1.388 . S
C2960 C1287 1.346 . S
C2995 C202 1.428 . S
C3010 C1280 1.378 . S
C3045 C135 1.405 . S
C3060 C1364 1.340 . S
C3110 C1466 1.417 . S
C3095 C175 1.457 . S
C3145 C295 1.405 . S
C3160 C1382 1.369 . S
C3195 C335 1.329 . S
C3210 C1448 1.262 . S
C3245 C242 1.389 . S
C3260 C1298 1.375 . S
C3295 C621 1.382 . S
C3310 C790 1.276 . S
C3360 C874 1.351 . S
C3345 C661 1.492 . S
C3395 C701 1.459 . S
C3410 C946 1.338 . S
C3445 C261 1.500 . S
C3460 C862 1.372 . S
C3495 C301 1.443 . S
C3510 C958 1.316 . S
C3560 C778 1.277 . S
C3545 C341 1.381 . S
C3595 C141 1.381 . S
C3610 C1042 1.277 . S
C3645 C181 1.493 . S
C3660 C1126 1.350 . S
C3695 C221 1.459 . S
C3710 C1198 1.337 . S
C3745 C501 1.500 . S
C3760 C1114 1.370 . S
C3810 C1210 1.315 . S
C3795 C541 1.443 . S
C3845 C581 1.381 . S
C3860 C1030 1.275 . S
C3895 C381 1.382 . S
C3910 C1294 1.275 . S
C3945 C421 1.493 . S
C3960 C1378 1.350 . S
C4010 C1450 1.336 . S
C3995 C461 1.458 . S
C4045 C21 1.500 . S
C4060 C1366 1.370 . S
C4095 C61 1.443 . S
C4110 C1462 1.315 . S
C4145 C101 1.381 . S
C4160 C1282 1.275 . S
