# Generated by pormake.
# Topology pts, (4,4)-cn, num edge types: 1
# Building blocks:
#     Node 0, Type 0, BuildingBlock: NAWXER_clean_sbu_0, # of connection points: 4
#     Node 1, Type 0, BuildingBlock: NAWXER_clean_sbu_0, # of connection points: 4
#     Node 2, Type 1, BuildingBlock: UXUYUI_clean_sbu_0, # of connection points: 4
#     Node 3, Type 1, BuildingBlock: UXUYUI_clean_sbu_0, # of connection points: 4
#     Edge 4, Type (0, 1), BuildingBlock: UVAHIK_clean_linker_0, # of connection points: 2
#     Edge 5, Type (0, 1), BuildingBlock: UVAHIK_clean_linker_0, # of connection points: 2
#     Edge 6, Type (0, 1), BuildingBlock: UVAHIK_clean_linker_0, # of connection points: 2
#     Edge 7, Type (0, 1), BuildingBlock: UVAHIK_clean_linker_0, # of connection points: 2
#     Edge 8, Type (0, 1), BuildingBlock: UVAHIK_clean_linker_0, # of connection points: 2
#     Edge 9, Type (0, 1), BuildingBlock: UVAHIK_clean_linker_0, # of connection points: 2
#     Edge 10, Type (0, 1), BuildingBlock: UVAHIK_clean_linker_0, # of connection points: 2
#     Edge 11, Type (0, 1), BuildingBlock: UVAHIK_clean_linker_0, # of connection points: 2
# Relax obj value: 0.015
# Max RMSD: 0.059
# Mean RMSD: 0.051
data_MOF--net-pts--node1-NAWXER_clean_sbu_0--node2-UXUYUI_clean_sbu_0--edge1-UVAHIK_clean_linker_0
_symmetry_space_group_name_H-M    P1
_symmetry_Int_Tables_number       1
_symmetry_cell_setting            triclinic
loop_
_symmetry_equiv_pos_as_xyz
'x, y, z'
_cell_length_a     35.81306
_cell_length_b     35.818669
_cell_length_c     57.322581
_cell_angle_alpha  90.011956
_cell_angle_beta   89.996008
_cell_angle_gamma 89.965934
loop_
_atom_site_label
_atom_site_type_symbol
_atom_site_fract_x
_atom_site_fract_y
_atom_site_fract_z
_atom_type_partial_charge
C0 C 0.45582 0.97666 0.97373 0.0
C1 C 0.55227 0.97495 0.03406 0.0
O2 O 0.47051 0.94826 0.98336 0.0
Zn3 Zn 0.5041 0.97508 0.00384 0.0
O4 O 0.46617 0.00947 0.97996 0.0
Zn5 Zn 0.50424 0.03437 0.00445 0.0
O6 O 0.53798 0.06214 0.98459 0.0
O7 O 0.54203 1.00114 0.97977 0.0
O8 O 0.542 0.0081 0.02852 0.0
O9 O 0.53767 0.94712 0.02376 0.0
O10 O 0.46609 1.00023 0.02833 0.0
O11 O 0.47072 0.06141 0.02482 0.0
C12 C 0.55246 0.03425 0.97428 0.0
C13 C 0.4559 0.03313 0.03449 0.0
C14 C 0.03122 0.55378 0.47469 0.0
C15 C 0.03129 0.45319 0.53252 0.0
O16 O 0.99839 0.54348 0.48088 0.0
Zn17 Zn 0.9728 0.50401 0.50398 0.0
O18 O 0.05958 0.53794 0.48368 0.0
Zn19 Zn 0.03251 0.50396 0.50395 0.0
O20 O 0.00665 0.46667 0.47948 0.0
O21 O 0.94546 0.4722 0.48252 0.0
O22 O 0.05964 0.46979 0.5241 0.0
O23 O 0.99844 0.46353 0.52638 0.0
O24 O 0.946 0.5361 0.52569 0.0
O25 O 0.00719 0.54122 0.52843 0.0
C26 C 0.97375 0.45703 0.47298 0.0
C27 C 0.97446 0.55105 0.5351 0.0
Li28 Li 0.99746 0.03871 0.26923 0.0
Li29 Li 0.0091 0.97082 0.26943 0.0
Li30 Li 0.03698 0.01234 0.23808 0.0
Li31 Li 0.96993 0.99647 0.23811 0.0
C32 C 0.06905 0.03051 0.28743 0.0
N33 N 0.11534 0.06817 0.31796 0.0
C34 C 0.07497 0.01669 0.30992 0.0
C35 C 0.08715 0.06313 0.28033 0.0
C36 C 0.09834 0.03623 0.32514 0.0
C37 C 0.11031 0.08186 0.29605 0.0
C38 C 0.93863 0.97927 0.28815 0.0
C39 C 0.89924 0.92728 0.29852 0.0
N40 N 0.89484 0.94194 0.32024 0.0
C41 C 0.93339 0.99405 0.31048 0.0
C42 C 0.92114 0.94582 0.28203 0.0
C43 C 0.91128 0.97467 0.32649 0.0
C44 C 0.97174 0.1119 0.27857 0.0
N45 N 0.9885 0.0816 0.2883 0.0
C46 C 0.99227 0.11268 0.32515 0.0
C47 C 0.99827 0.08126 0.31121 0.0
C48 C 0.97553 0.1447 0.31554 0.0
C49 C 0.96501 0.14388 0.2919 0.0
H50 H 0.96343 0.11119 0.26045 0.0
H51 H 0.01057 0.05653 0.31874 0.0
C52 C 0.0331 0.89721 0.27914 0.0
N53 N 0.01796 0.92835 0.28886 0.0
C54 C 0.03964 0.86547 0.29272 0.0
C55 C 0.01545 0.89861 0.32617 0.0
C56 C 0.00964 0.92976 0.31198 0.0
C57 C 0.03054 0.86575 0.31659 0.0
H58 H 0.04028 0.89704 0.26082 0.0
H59 H 0.99856 0.95511 0.31946 0.0
C60 C 1.00108 0.0746 0.21952 0.0
N61 N 0.01707 0.13106 0.18825 0.0
C62 C 0.98519 0.0743 0.19725 0.0
C63 C 0.02461 0.10391 0.22601 0.0
C64 C 0.99375 0.10302 0.18165 0.0
C65 C 0.03249 0.13211 0.20992 0.0
C66 C 0.00547 0.935 0.2193 0.0
C67 C 0.02158 0.93601 0.1971 0.0
C68 C 0.98127 0.9059 0.22517 0.0
C69 C 0.01261 0.9082 0.18096 0.0
C70 C 0.97298 0.87862 0.20854 0.0
N71 N 0.98865 0.88035 0.18696 0.0
C72 C 0.1142 0.01472 0.22858 0.0
C73 C 0.07623 0.03031 0.19617 0.0
C74 C 0.14649 0.01945 0.21522 0.0
N75 N 0.07997 0.02039 0.21895 0.0
C76 C 0.10777 0.03574 0.18223 0.0
C77 C 0.14348 0.03017 0.19172 0.0
H78 H 0.11644 0.0062 0.24661 0.0
H79 H 0.04878 0.03333 0.18864 0.0
C80 C 0.89275 0.99165 0.22868 0.0
N81 N 0.92714 0.98801 0.21888 0.0
C82 C 0.86062 0.98647 0.21524 0.0
C83 C 0.8998 0.97384 0.18184 0.0
C84 C 0.93116 0.97968 0.19586 0.0
C85 C 0.86394 0.97736 0.1915 0.0
H86 H 0.89026 0.99894 0.24691 0.0
H87 H 0.95869 0.9782 0.18825 0.0
O88 O 0.04613 0.0118 0.27234 0.0
O89 O 0.96034 0.99778 0.2723 0.0
O90 O 0.99316 0.04658 0.23496 0.0
O91 O 0.01379 0.96212 0.23528 0.0
H92 H 0.06147 0.99129 0.31563 0.0
H93 H 0.08357 0.07372 0.26283 0.0
H94 H 0.10296 0.026 0.34266 0.0
H95 H 0.12439 0.10723 0.29081 0.0
H96 H 0.88566 0.90128 0.29404 0.0
H97 H 0.94645 0.02007 0.31545 0.0
H98 H 0.92426 0.93441 0.26469 0.0
H99 H 0.90719 0.98566 0.34389 0.0
H100 H 1.00117 0.11198 0.3432 0.0
H101 H 0.95134 0.16753 0.28381 0.0
H102 H 0.05202 0.84113 0.28462 0.0
H103 H 0.00766 0.90017 0.3444 0.0
H104 H 0.96667 0.052 0.192 0.0
H105 H 0.03647 0.10501 0.24333 0.0
H106 H 0.98187 0.10301 0.16431 0.0
H107 H 0.05079 0.15489 0.21469 0.0
H108 H 0.04061 0.95816 0.19234 0.0
H109 H 0.96916 0.90429 0.2424 0.0
H110 H 0.02468 0.90876 0.16366 0.0
H111 H 0.95416 0.85602 0.21282 0.0
H112 H 0.17352 0.01494 0.22321 0.0
H113 H 0.10421 0.04327 0.16407 0.0
H114 H 0.83347 0.9894 0.22336 0.0
H115 H 0.90356 0.96757 0.1635 0.0
Li116 Li 0.96944 0.01151 0.76963 0.0
Li117 Li 0.03658 0.9968 0.77009 0.0
Li118 Li 0.0079 0.03729 0.73874 0.0
Li119 Li 0.9974 0.96928 0.73872 0.0
C120 C 1.00248 0.07078 0.79018 0.0
N121 N 0.98153 0.11872 0.8256 0.0
C122 C 0.01908 0.06793 0.81217 0.0
C123 C 0.97559 0.09831 0.78611 0.0
C124 C 0.00803 0.09237 0.82988 0.0
C125 C 0.96526 0.12218 0.80427 0.0
C126 C 0.9998 0.93081 0.78639 0.0
C127 C 0.02699 0.86973 0.7915 0.0
N128 N 0.0121 0.86798 0.81329 0.0
C129 C 0.98435 0.9282 0.80872 0.0
C130 C 0.02095 0.90118 0.77759 0.0
C131 C 0.99106 0.8963 0.8221 0.0
C132 C 0.89237 0.02058 0.77879 0.0
N133 N 0.92665 0.01938 0.78896 0.0
C134 C 0.89959 0.02886 0.82665 0.0
C135 C 0.93073 0.02297 0.81245 0.0
C136 C 0.86385 0.0302 0.81664 0.0
C137 C 0.8604 0.02584 0.79239 0.0
H138 H 0.88981 0.01717 0.76013 0.0
H139 H 0.95814 0.02094 0.8202 0.0
C140 C 0.11321 1.00119 0.78082 0.0
N141 N 0.07971 0.9895 0.78923 0.0
C142 C 0.14561 0.99694 0.79413 0.0
C143 C 0.10845 0.96905 0.82467 0.0
C144 C 0.07675 0.97402 0.81082 0.0
C145 C 0.14349 0.98061 0.81638 0.0
H146 H 0.11474 0.01395 0.76375 0.0
H147 H 0.04974 0.96612 0.8175 0.0
C148 C 0.94128 0.02769 0.71788 0.0
N149 N 0.90531 0.06456 0.68201 0.0
C150 C 0.93897 0.01135 0.69579 0.0
C151 C 0.92486 0.06252 0.72183 0.0
C152 C 0.92076 0.0305 0.67786 0.0
C153 C 0.90694 0.0808 0.70344 0.0
C154 C 0.07317 0.97886 0.72382 0.0
C155 C 0.08448 0.99194 0.70196 0.0
C156 C 0.09082 0.94773 0.73353 0.0
C157 C 0.11278 0.97315 0.68996 0.0
C158 C 0.11904 0.92973 0.72101 0.0
N159 N 0.12931 0.94267 0.69965 0.0
C160 C 0.02392 0.11315 0.7279 0.0
C161 C 0.01362 0.07392 0.69524 0.0
C162 C 0.02915 0.14398 0.7133 0.0
N163 N 0.01598 0.07908 0.71868 0.0
C164 C 0.01814 0.104 0.68003 0.0
C165 C 0.02586 0.13964 0.68903 0.0
H166 H 0.0261 0.11642 0.7466 0.0
H167 H 0.00812 0.0464 0.68832 0.0
C168 C 0.96713 0.8984 0.72749 0.0
N169 N 0.98954 0.92631 0.71958 0.0
C170 C 0.96153 0.8663 0.71404 0.0
C171 C 1.00157 0.89262 0.68436 0.0
C172 C 0.0061 0.92428 0.69828 0.0
C173 C 0.97927 0.86298 0.69228 0.0
H174 H 0.95384 0.90095 0.74436 0.0
H175 H 0.02266 0.94731 0.69198 0.0
O176 O 0.01272 0.04689 0.7727 0.0
O177 O 0.99348 0.96189 0.77307 0.0
O178 O 0.9594 0.00957 0.73557 0.0
O179 O 0.04541 0.99692 0.73574 0.0
H180 H 0.0401 0.04694 0.81558 0.0
H181 H 0.96275 0.10111 0.76914 0.0
H182 H 0.02048 0.09035 0.84702 0.0
H183 H 0.94431 0.14346 0.80141 0.0
H184 H 0.04339 0.84665 0.78492 0.0
H185 H 0.96759 0.95068 0.81572 0.0
H186 H 0.03222 0.9022 0.76013 0.0
H187 H 0.97951 0.89403 0.83948 0.0
H188 H 0.90334 0.03149 0.84533 0.0
H189 H 0.8333 0.02675 0.78402 0.0
H190 H 0.17207 0.00612 0.78701 0.0
H191 H 0.10543 0.95706 0.84191 0.0
H192 H 0.95134 0.98432 0.69247 0.0
H193 H 0.92605 0.07534 0.73888 0.0
H194 H 0.91895 0.01831 0.66063 0.0
H195 H 0.89431 0.10788 0.70621 0.0
H196 H 0.07141 0.01621 0.69427 0.0
H197 H 0.08319 0.93784 0.75067 0.0
H198 H 0.12163 0.98282 0.67296 0.0
H199 H 0.13289 0.90557 0.72832 0.0
H200 H 0.03497 0.17104 0.72091 0.0
H201 H 0.01593 0.09938 0.66141 0.0
H202 H 0.94419 0.84403 0.72079 0.0
H203 H 0.01513 0.89149 0.66749 0.0
C204 C 0.40653 0.07111 0.05476 0.0
C205 C 0.42655 0.03753 0.05247 0.0
C206 C 0.37735 0.07407 0.07094 0.0
C207 C 0.34027 0.03285 0.12493 0.0
H208 H 0.24388 0.06756 0.10308 0.0
C209 C 0.20578 0.00751 0.17765 0.0
C210 C 0.17733 0.03448 0.177 0.0
C211 C 0.23719 0.01089 0.16334 0.0
C212 C 0.27071 0.05843 0.10966 0.0
H213 H 0.43239 0.98114 0.06582 0.0
H214 H 0.38204 0.98657 0.0942 0.0
H215 H 0.29755 0.06919 0.07691 0.0
H216 H 0.15984 0.08661 0.16126 0.0
H217 H 0.21507 0.09308 0.13664 0.0
H218 H 0.31381 0.02229 0.1577 0.0
C219 C 0.38874 0.01052 0.08345 0.0
C220 C 0.30144 0.05931 0.0946 0.0
C221 C 0.41744 0.00737 0.06709 0.0
C222 C 0.18116 0.06517 0.16193 0.0
C223 C 0.21278 0.06878 0.14777 0.0
C224 C 0.30969 0.03236 0.14008 0.0
C225 C 0.36814 0.04373 0.0854 0.0
C226 C 0.33638 0.04596 0.10197 0.0
C227 C 0.24115 0.04156 0.14818 0.0
C228 C 0.27431 0.04454 0.13253 0.0
H229 H 0.41284 0.09481 0.04371 0.0
H230 H 0.362 0.10006 0.07218 0.0
H231 H 0.36702 0.02282 0.13117 0.0
H232 H 0.20335 0.98326 0.18884 0.0
H233 H 0.25797 0.98893 0.16382 0.0
C234 C 0.06885 0.41435 0.56074 0.0
C235 C 0.03537 0.42112 0.54862 0.0
C236 C 0.0718 0.38381 0.57595 0.0
C237 C 0.03258 0.29118 0.58676 0.0
H238 H 0.06212 0.30456 0.65128 0.0
C239 C 0.00401 0.17775 0.65509 0.0
C240 C 0.02992 0.17206 0.67312 0.0
C241 C 0.00775 0.20797 0.63988 0.0
C242 C 0.05444 0.30012 0.63323 0.0
H243 H 0.97898 0.40094 0.54277 0.0
H244 H 0.98447 0.34765 0.56882 0.0
H245 H 0.06461 0.35749 0.62438 0.0
H246 H 0.08019 0.19342 0.68933 0.0
H247 H 0.08736 0.24583 0.66239 0.0
H248 H 0.02272 0.23399 0.59523 0.0
C249 C 0.00831 0.36595 0.56669 0.0
C250 C 0.05583 0.3305 0.61786 0.0
C251 C 0.00514 0.39665 0.55188 0.0
C252 C 0.05963 0.19733 0.67568 0.0
C253 C 0.06365 0.2274 0.66027 0.0
C254 C 0.03165 0.26077 0.60198 0.0
C255 C 0.04159 0.35919 0.57889 0.0
C256 C 0.04415 0.32644 0.59462 0.0
C257 C 0.0378 0.23306 0.64211 0.0
C258 C 0.04174 0.26497 0.62556 0.0
H259 H 0.09257 0.43278 0.55861 0.0
H260 H 0.09779 0.37912 0.58516 0.0
H261 H 0.02392 0.28719 0.56882 0.0
H262 H 0.98048 0.15908 0.65294 0.0
H263 H 0.98671 0.21186 0.62654 0.0
C264 C 0.60205 0.93651 0.05359 0.0
C265 C 0.58143 0.96983 0.05208 0.0
C266 C 0.63117 0.93308 0.06979 0.0
C267 C 0.66715 0.97163 0.12485 0.0
H268 H 0.76454 0.94126 0.10219 0.0
C269 C 0.8008 0.99849 0.17801 0.0
C270 C 0.83022 0.97264 0.17672 0.0
C271 C 0.76947 0.99478 0.16366 0.0
C272 C 0.73744 0.94913 0.10899 0.0
H273 H 0.57438 0.02519 0.06682 0.0
H274 H 0.62458 0.01891 0.09523 0.0
H275 H 0.7109 0.93956 0.07599 0.0
H276 H 0.84954 0.92211 0.1598 0.0
H277 H 0.79444 0.915 0.13512 0.0
H278 H 0.6933 0.98103 0.15784 0.0
C279 C 0.61842 0.99554 0.08386 0.0
C280 C 0.70673 0.94821 0.09392 0.0
C281 C 0.58982 0.99919 0.06748 0.0
C282 C 0.82744 0.9427 0.16098 0.0
C283 C 0.7959 0.93873 0.14679 0.0
C284 C 0.69772 0.97214 0.13999 0.0
C285 C 0.63968 0.96264 0.08503 0.0
C286 C 0.67142 0.96008 0.10158 0.0
C287 C 0.76656 0.96485 0.14784 0.0
C288 C 0.73345 0.96158 0.13217 0.0
H289 H 0.5963 0.91345 0.04191 0.0
H290 H 0.64704 0.90735 0.0704 0.0
H291 H 0.64012 0.98049 0.1313 0.0
H292 H 0.8024 0.02217 0.18973 0.0
H293 H 0.74792 0.01593 0.16466 0.0
C294 C 0.9356 0.59219 0.5614 0.0
C295 C 0.97072 0.58023 0.55332 0.0
C296 C 0.93293 0.62039 0.57832 0.0
C297 C 0.98962 0.66956 0.62325 0.0
H298 H 0.91716 0.74918 0.61596 0.0
C299 C 0.0067 0.81228 0.66754 0.0
C300 C 0.9752 0.8286 0.67801 0.0
C301 C 1.00321 0.78004 0.65403 0.0
C302 C 0.93722 0.72688 0.61839 0.0
H303 H 0.03052 0.58872 0.55672 0.0
H304 H 0.02585 0.63774 0.58562 0.0
H305 H 0.916 0.69588 0.58928 0.0
H306 H 0.91527 0.82405 0.68241 0.0
H307 H 0.90911 0.76756 0.65855 0.0
H308 H 0.01157 0.70106 0.65185 0.0
C309 C 1.00032 0.62501 0.57936 0.0
C310 C 0.93652 0.69629 0.60315 0.0
C311 C 1.00297 0.59697 0.56259 0.0
C312 C 0.94006 0.81193 0.67466 0.0
C313 C 0.93649 0.77982 0.66089 0.0
C314 C 0.99048 0.70016 0.63832 0.0
C315 C 0.96534 0.6371 0.58751 0.0
C316 C 0.96324 0.66765 0.6051 0.0
C317 C 0.96809 0.76347 0.65051 0.0
C318 C 0.96478 0.7295 0.63579 0.0
H319 H 0.91021 0.57986 0.55462 0.0
H320 H 0.90555 0.62889 0.58432 0.0
H321 H 0.01005 0.64758 0.62564 0.0
H322 H 0.03419 0.82429 0.66997 0.0
H323 H 0.02801 0.76833 0.64606 0.0
C324 C 0.41608 0.0035 0.94207 0.0
C325 C 0.4265 0.97256 0.95569 0.0
C326 C 0.38751 1.00056 0.92562 0.0
C327 C 0.30282 0.94802 0.91225 0.0
H328 H 0.31262 0.99442 0.85143 0.0
C329 C 0.18377 0.94364 0.84391 0.0
C330 C 0.17745 0.97648 0.83107 0.0
C331 C 0.21548 0.94008 0.858 0.0
C332 C 0.30925 0.98163 0.86842 0.0
H333 H 0.41523 0.9141 0.96253 0.0
H334 H 0.36477 0.9091 0.93382 0.0
H335 H 0.36586 0.99343 0.87792 0.0
H336 H 0.1992 0.03152 0.82322 0.0
H337 H 0.25408 0.02563 0.84798 0.0
H338 H 0.24592 0.9372 0.9031 0.0
C339 C 0.37891 0.93561 0.93596 0.0
C340 C 0.33983 0.98094 0.88355 0.0
C341 C 0.40789 0.93843 0.95229 0.0
C342 C 0.20356 0.00563 0.8326 0.0
C343 C 0.23511 1.00218 0.84678 0.0
C344 C 0.2721 0.94895 0.89717 0.0
C345 C 0.36838 0.96671 0.9225 0.0
C346 C 0.33682 0.96458 0.90574 0.0
C347 C 0.2415 0.96938 0.85969 0.0
C348 C 0.27478 0.96623 0.87518 0.0
H349 H 0.42988 0.03019 0.94419 0.0
H350 H 0.37977 0.02514 0.91572 0.0
H351 H 0.29955 0.93556 0.92934 0.0
H352 H 0.16439 0.9205 0.84286 0.0
H353 H 0.21974 0.91422 0.86741 0.0
C354 C 1.00156 0.41068 0.44544 0.0
C355 C 0.96957 0.4277 0.4549 0.0
C356 C 0.99841 0.38234 0.42889 0.0
C357 C 0.93358 0.31098 0.40638 0.0
H358 H 0.00705 0.30478 0.35683 0.0
C359 C 0.95936 0.17584 0.35364 0.0
C360 C 0.96953 0.17877 0.33 0.0
C361 C 0.95546 0.20776 0.36749 0.0
C362 C 0.98593 0.30624 0.37031 0.0
H363 H 0.90904 0.42833 0.45415 0.0
H364 H 0.90351 0.37884 0.42487 0.0
H365 H 0.00688 0.35844 0.38273 0.0
H366 H 0.98293 0.21797 0.30238 0.0
H367 H 0.97498 0.27354 0.32628 0.0
H368 H 0.91236 0.25889 0.39371 0.0
C369 C 0.93108 0.38731 0.43054 0.0
C370 C 0.98616 0.33686 0.3854 0.0
C371 C 0.93423 0.41579 0.44723 0.0
C372 C 0.97477 0.21456 0.32044 0.0
C373 C 0.97067 0.24648 0.33425 0.0
C374 C 0.93325 0.28036 0.39119 0.0
C375 C 0.96319 0.37023 0.42119 0.0
C376 C 0.96046 0.33931 0.40389 0.0
C377 C 0.96144 0.2435 0.35804 0.0
C378 C 0.9598 0.27731 0.37318 0.0
H379 H 0.02926 0.41893 0.45099 0.0
H380 H 0.02374 0.36938 0.42246 0.0
H381 H 0.91351 0.31184 0.4205 0.0
H382 H 0.95449 0.14882 0.36154 0.0
H383 H 0.94871 0.20428 0.38577 0.0
C384 C 0.58898 0.01049 0.94026 0.0
C385 C 0.58167 0.03928 0.9563 0.0
C386 C 0.61767 0.014 0.92393 0.0
C387 C 0.70786 0.05746 0.91517 0.0
H388 H 0.69288 0.03204 0.85008 0.0
C389 C 0.82929 0.06303 0.84874 0.0
C390 C 0.83031 0.03518 0.8315 0.0
C391 C 0.79789 0.0672 0.86302 0.0
C392 C 0.69774 0.03879 0.86824 0.0
H393 H 0.59854 0.09447 0.96768 0.0
H394 H 0.64955 0.10021 0.93933 0.0
H395 H 0.63974 0.03267 0.87668 0.0
H396 H 0.79954 0.98959 0.81584 0.0
H397 H 0.74533 0.99588 0.84116 0.0
H398 H 0.76597 0.06193 0.90718 0.0
C399 C 0.6327 0.07511 0.93938 0.0
C400 C 0.66719 0.03939 0.88342 0.0
C401 C 0.60346 0.07189 0.95549 0.0
C402 C 0.79931 0.01162 0.82879 0.0
C403 C 0.76813 0.01541 0.84327 0.0
C404 C 0.73854 0.05632 0.90008 0.0
C405 C 0.64012 0.04611 0.9235 0.0
C406 C 0.67201 0.04839 0.90706 0.0
C407 C 0.76695 0.04325 0.86062 0.0
C408 C 0.73398 0.04656 0.87644 0.0
H409 H 0.5726 0.98507 0.9404 0.0
H410 H 0.62298 0.99111 0.91203 0.0
H411 H 0.71239 0.06408 0.93339 0.0
H412 H 0.85269 0.08184 0.85102 0.0
H413 H 0.79784 0.08939 0.87585 0.0
C414 C 1.00327 0.60244 0.44883 0.0
C415 C 0.03527 0.58416 0.45729 0.0
C416 C 0.00628 0.63111 0.43249 0.0
C417 C 0.0718 0.7005 0.4083 0.0
H418 H 0.9959 0.70813 0.36029 0.0
C419 C 0.04774 0.83518 0.3547 0.0
C420 C 0.03622 0.83192 0.33132 0.0
C421 C 0.0513 0.80354 0.36882 0.0
C422 C 0.01768 0.70626 0.37334 0.0
H423 H 0.09567 0.58184 0.45516 0.0
H424 H 0.10094 0.6319 0.42625 0.0
H425 H 0.99577 0.655 0.38658 0.0
H426 H 0.02005 0.79241 0.30445 0.0
H427 H 0.02744 0.73731 0.32879 0.0
H428 H 0.09399 0.75163 0.39476 0.0
C429 C 0.07349 0.62416 0.43253 0.0
C430 C 0.01729 0.67597 0.38866 0.0
C431 C 0.07048 0.59537 0.449 0.0
C432 C 0.02929 0.79607 0.32229 0.0
C433 C 0.03307 0.76442 0.33637 0.0
C434 C 0.07229 0.73082 0.39287 0.0
C435 C 0.04136 0.64227 0.42402 0.0
C436 C 0.04393 0.67301 0.40659 0.0
C437 C 0.04363 0.76777 0.35991 0.0
C438 C 0.0449 0.73434 0.37539 0.0
H439 H 0.97568 0.5948 0.45491 0.0
H440 H 0.98099 0.64491 0.42674 0.0
H441 H 0.09263 0.69922 0.42197 0.0
H442 H 0.05392 0.86224 0.36218 0.0
H443 H 0.05913 0.8073 0.38692 0.0
loop_
_geom_bond_atom_site_label_1
_geom_bond_atom_site_label_2
_geom_bond_distance
_geom_bond_site_symmetry_2
_ccdc_geom_bond_type
C0 O2 1.244 . S
C0 O4 1.261 1_565 S
C1 O8 1.251 . S
C1 O9 1.253 1_545 S
O2 C0 1.244 . S
O2 Zn3 2.028 1_556 S
Zn3 O2 2.028 1_554 S
Zn3 O7 2.035 1_554 S
Zn3 O9 2.035 . S
Zn3 O10 2.028 . S
O4 C0 1.261 1_545 S
O4 Zn5 2.035 1_556 S
Zn5 O4 2.035 1_554 S
Zn5 O6 2.028 1_554 S
Zn5 O8 2.028 . S
Zn5 O11 2.035 . S
O6 Zn5 2.028 1_556 S
O6 C12 1.251 . S
O7 Zn3 2.035 1_556 S
O7 C12 1.253 1_565 S
O8 C1 1.251 . S
O8 Zn5 2.028 . S
O9 C1 1.253 1_565 S
O9 Zn3 2.035 . S
O10 Zn3 2.028 . S
O10 C13 1.244 . S
O11 Zn5 2.035 . S
O11 C13 1.261 1_545 S
C12 O6 1.251 . S
C12 O7 1.253 1_545 S
C13 O10 1.244 . S
C13 O11 1.261 1_565 S
C14 O16 1.245 . S
C14 O18 1.260 1_655 S
C15 O22 1.251 . S
C15 O23 1.254 1_455 S
O16 C14 1.245 . S
O16 Zn17 2.028 . S
Zn17 O16 2.028 . S
Zn17 O21 2.035 . S
Zn17 O23 2.035 . S
Zn17 O24 2.028 . S
O18 C14 1.260 1_455 S
O18 Zn19 2.035 . S
Zn19 O18 2.035 . S
Zn19 O20 2.028 . S
Zn19 O22 2.028 . S
Zn19 O25 2.035 . S
O20 Zn19 2.028 . S
O20 C26 1.251 . S
O21 Zn17 2.035 . S
O21 C26 1.254 1_655 S
O22 C15 1.251 . S
O22 Zn19 2.028 . S
O23 C15 1.254 1_655 S
O23 Zn17 2.035 . S
O24 Zn17 2.028 . S
O24 C27 1.245 . S
O25 Zn19 2.035 . S
O25 C27 1.260 1_455 S
C26 O20 1.251 . S
C26 O21 1.254 1_455 S
C27 O24 1.245 . S
C27 O25 1.260 1_655 S
Li28 N45 1.990 . S
Li28 O88 1.956 1_545 S
Li28 O89 1.970 1_455 S
Li28 O90 1.961 1_455 S
Li29 N53 1.990 . S
Li29 O88 1.970 1_655 S
Li29 O89 1.956 1_565 S
Li29 O91 1.961 1_655 S
Li30 N75 1.990 . S
Li30 O88 1.961 1_545 S
Li30 O90 1.956 1_455 S
Li30 O91 1.970 1_545 S
Li31 N81 1.990 . S
Li31 O89 1.961 1_565 S
Li31 O90 1.970 1_565 S
Li31 O91 1.956 1_655 S
C32 C34 1.348 1_545 S
C32 C35 1.356 . S
C32 O88 1.325 1_545 S
N33 C36 1.314 1_545 S
N33 C37 1.279 . S
C34 C32 1.348 1_565 S
C34 C36 1.353 . S
C34 H92 0.929 . S
C35 C32 1.356 . S
C35 C37 1.358 . S
C35 H93 0.930 . S
C36 N33 1.314 1_565 S
C36 C34 1.353 . S
C36 H94 0.930 . S
C37 N33 1.279 . S
C37 C35 1.358 . S
C37 H95 0.930 . S
C38 C41 1.348 . S
C38 C42 1.355 1_545 S
C38 O89 1.325 . S
C39 N40 1.279 . S
C39 C42 1.358 . S
C39 H96 0.930 . S
N40 C39 1.279 . S
N40 C43 1.314 1_565 S
C41 C38 1.348 . S
C41 C43 1.353 . S
C41 H97 0.929 . S
C42 C38 1.355 1_565 S
C42 C39 1.358 . S
C42 H98 0.930 . S
C43 N40 1.314 1_545 S
C43 C41 1.353 . S
C43 H99 0.930 . S
C44 N45 1.314 1_655 S
C44 C49 1.353 . S
C44 H50 0.930 . S
N45 Li28 1.990 . S
N45 C44 1.314 1_455 S
N45 C47 1.279 . S
C46 C47 1.358 . S
C46 C48 1.356 . S
C46 H100 0.930 . S
C47 N45 1.279 . S
C47 C46 1.358 . S
C47 H51 0.930 . S
C48 C46 1.356 . S
C48 C49 1.348 1_455 S
C49 C44 1.353 . S
C49 C48 1.348 1_655 S
C49 H101 0.929 . S
H50 C44 0.930 . S
H51 C47 0.930 . S
C52 N53 1.314 1_455 S
C52 C54 1.353 . S
C52 H58 0.930 . S
N53 Li29 1.990 . S
N53 C52 1.314 1_655 S
N53 C56 1.279 . S
C54 C52 1.353 . S
C54 C57 1.348 . S
C54 H102 0.929 . S
C55 C56 1.358 . S
C55 C57 1.356 1_655 S
C55 H103 0.930 . S
C56 N53 1.279 . S
C56 C55 1.358 . S
C56 H59 0.930 . S
C57 C54 1.348 . S
C57 C55 1.356 1_455 S
H58 C52 0.930 . S
H59 C56 0.930 . S
C60 C62 1.348 1_455 S
C60 C63 1.356 . S
C60 O90 1.325 1_455 S
N61 C64 1.314 1_455 S
N61 C65 1.279 . S
C62 C60 1.348 1_655 S
C62 C64 1.353 . S
C62 H104 0.929 . S
C63 C60 1.356 . S
C63 C65 1.358 . S
C63 H105 0.930 . S
C64 N61 1.314 1_655 S
C64 C62 1.353 . S
C64 H106 0.930 . S
C65 N61 1.279 . S
C65 C63 1.358 . S
C65 H107 0.930 . S
C66 C67 1.348 . S
C66 C68 1.356 1_455 S
C66 O91 1.325 . S
C67 C66 1.348 . S
C67 C69 1.353 . S
C67 H108 0.929 . S
C68 C66 1.356 1_655 S
C68 C70 1.358 . S
C68 H109 0.930 . S
C69 C67 1.353 . S
C69 N71 1.314 1_455 S
C69 H110 0.930 . S
C70 C68 1.358 . S
C70 N71 1.279 . S
C70 H111 0.930 . S
N71 C69 1.314 1_655 S
N71 C70 1.279 . S
C72 C74 1.353 . S
C72 N75 1.314 1_565 S
C72 H78 0.930 . S
C73 N75 1.279 . S
C73 C76 1.358 . S
C73 H79 0.930 . S
C74 C72 1.353 . S
C74 C77 1.348 1_565 S
C74 H112 0.929 . S
N75 Li30 1.990 . S
N75 C72 1.314 1_545 S
N75 C73 1.279 . S
C76 C73 1.358 . S
C76 C77 1.356 . S
C76 H113 0.930 . S
C77 C74 1.348 1_545 S
C77 C76 1.356 . S
H78 C72 0.930 . S
H79 C73 0.930 . S
C80 N81 1.314 1_545 S
C80 C82 1.353 . S
C80 H86 0.930 . S
N81 Li31 1.990 . S
N81 C80 1.314 1_565 S
N81 C84 1.279 . S
C82 C80 1.353 . S
C82 C85 1.348 . S
C82 H114 0.929 . S
C83 C84 1.358 . S
C83 C85 1.355 1_565 S
C83 H115 0.930 . S
C84 N81 1.279 . S
C84 C83 1.358 . S
C84 H87 0.930 . S
C85 C82 1.348 . S
C85 C83 1.355 1_545 S
H86 C80 0.930 . S
H87 C84 0.930 . S
O88 Li28 1.956 1_565 S
O88 Li29 1.970 1_455 S
O88 Li30 1.961 1_565 S
O88 C32 1.325 1_565 S
O89 Li28 1.970 1_655 S
O89 Li29 1.956 1_545 S
O89 Li31 1.961 1_545 S
O89 C38 1.325 . S
O90 Li28 1.961 1_655 S
O90 Li30 1.956 1_655 S
O90 Li31 1.970 1_545 S
O90 C60 1.325 1_655 S
O91 Li29 1.961 1_455 S
O91 Li30 1.970 1_565 S
O91 Li31 1.956 1_455 S
O91 C66 1.325 . S
H92 C34 0.929 . S
H93 C35 0.930 . S
H94 C36 0.930 . S
H95 C37 0.930 . S
H96 C39 0.930 . S
H97 C41 0.929 . S
H98 C42 0.930 . S
H99 C43 0.930 . S
H100 C46 0.930 . S
H101 C49 0.929 . S
H102 C54 0.929 . S
H103 C55 0.930 . S
H104 C62 0.929 . S
H105 C63 0.930 . S
H106 C64 0.930 . S
H107 C65 0.930 . S
H108 C67 0.929 . S
H109 C68 0.930 . S
H110 C69 0.930 . S
H111 C70 0.930 . S
H112 C74 0.929 . S
H113 C76 0.930 . S
H114 C82 0.929 . S
H115 C83 0.930 . S
Li116 N133 1.990 . S
Li116 O176 1.956 1_655 S
Li116 O177 1.970 1_545 S
Li116 O178 1.961 1_545 S
Li117 N141 1.990 . S
Li117 O176 1.970 1_565 S
Li117 O177 1.956 1_455 S
Li117 O179 1.961 1_565 S
Li118 N163 1.990 . S
Li118 O176 1.961 1_655 S
Li118 O178 1.956 1_545 S
Li118 O179 1.970 1_655 S
Li119 N169 1.990 . S
Li119 O177 1.961 1_455 S
Li119 O178 1.970 1_455 S
Li119 O179 1.956 1_565 S
C120 C122 1.348 . S
C120 C123 1.356 1_455 S
C120 O176 1.325 . S
N121 C124 1.314 1_655 S
N121 C125 1.279 . S
C122 C120 1.348 . S
C122 C124 1.353 . S
C122 H180 0.929 . S
C123 C120 1.356 1_655 S
C123 C125 1.358 . S
C123 H181 0.930 . S
C124 N121 1.314 1_455 S
C124 C122 1.353 . S
C124 H182 0.930 . S
C125 N121 1.279 . S
C125 C123 1.358 . S
C125 H183 0.930 . S
C126 C129 1.348 1_455 S
C126 C130 1.356 . S
C126 O177 1.325 1_455 S
C127 N128 1.279 . S
C127 C130 1.358 . S
C127 H184 0.930 . S
N128 C127 1.279 . S
N128 C131 1.314 1_455 S
C129 C126 1.348 1_655 S
C129 C131 1.353 . S
C129 H185 0.929 . S
C130 C126 1.356 . S
C130 C127 1.358 . S
C130 H186 0.930 . S
C131 N128 1.314 1_655 S
C131 C129 1.353 . S
C131 H187 0.930 . S
C132 N133 1.314 1_565 S
C132 C137 1.353 . S
C132 H138 0.930 . S
N133 Li116 1.990 . S
N133 C132 1.314 1_545 S
N133 C135 1.279 . S
C134 C135 1.358 . S
C134 C136 1.356 . S
C134 H188 0.930 . S
C135 N133 1.279 . S
C135 C134 1.358 . S
C135 H139 0.930 . S
C136 C134 1.356 . S
C136 C137 1.348 1_545 S
C137 C132 1.353 . S
C137 C136 1.348 1_565 S
C137 H189 0.929 . S
H138 C132 0.930 . S
H139 C135 0.930 . S
C140 N141 1.314 1_545 S
C140 C142 1.353 . S
C140 H146 0.930 . S
N141 Li117 1.990 . S
N141 C140 1.314 1_565 S
N141 C144 1.279 . S
C142 C140 1.353 . S
C142 C145 1.348 . S
C142 H190 0.929 . S
C143 C144 1.358 . S
C143 C145 1.355 1_565 S
C143 H191 0.930 . S
C144 N141 1.279 . S
C144 C143 1.358 . S
C144 H147 0.930 . S
C145 C142 1.348 . S
C145 C143 1.355 1_545 S
H146 C140 0.930 . S
H147 C144 0.930 . S
C148 C150 1.348 1_545 S
C148 C151 1.356 . S
C148 O178 1.325 1_545 S
N149 C152 1.314 1_545 S
N149 C153 1.279 . S
C150 C148 1.348 1_565 S
C150 C152 1.353 . S
C150 H192 0.929 . S
C151 C148 1.356 . S
C151 C153 1.358 . S
C151 H193 0.930 . S
C152 N149 1.314 1_565 S
C152 C150 1.353 . S
C152 H194 0.930 . S
C153 N149 1.279 . S
C153 C151 1.358 . S
C153 H195 0.930 . S
C154 C155 1.348 . S
C154 C156 1.355 1_545 S
C154 O179 1.325 . S
C155 C154 1.348 . S
C155 C157 1.353 . S
C155 H196 0.929 . S
C156 C154 1.355 1_565 S
C156 C158 1.358 . S
C156 H197 0.930 . S
C157 C155 1.353 . S
C157 N159 1.314 1_545 S
C157 H198 0.930 . S
C158 C156 1.358 . S
C158 N159 1.279 . S
C158 H199 0.930 . S
N159 C157 1.314 1_565 S
N159 C158 1.279 . S
C160 C162 1.353 . S
C160 N163 1.314 1_455 S
C160 H166 0.930 . S
C161 N163 1.279 . S
C161 C164 1.358 . S
C161 H167 0.930 . S
C162 C160 1.353 . S
C162 C165 1.348 . S
C162 H200 0.929 . S
N163 Li118 1.990 . S
N163 C160 1.314 1_655 S
N163 C161 1.279 . S
C164 C161 1.358 . S
C164 C165 1.356 1_655 S
C164 H201 0.930 . S
C165 C162 1.348 . S
C165 C164 1.356 1_455 S
H166 C160 0.930 . S
H167 C161 0.930 . S
C168 N169 1.314 1_655 S
C168 C170 1.353 . S
C168 H174 0.930 . S
N169 Li119 1.990 . S
N169 C168 1.314 1_455 S
N169 C172 1.279 . S
C170 C168 1.353 . S
C170 C173 1.348 1_655 S
C170 H202 0.929 . S
C171 C172 1.358 . S
C171 C173 1.356 . S
C171 H203 0.930 . S
C172 N169 1.279 . S
C172 C171 1.358 . S
C172 H175 0.930 . S
C173 C170 1.348 1_455 S
C173 C171 1.356 . S
H174 C168 0.930 . S
H175 C172 0.930 . S
O176 Li116 1.956 1_455 S
O176 Li117 1.970 1_545 S
O176 Li118 1.961 1_455 S
O176 C120 1.325 . S
O177 Li116 1.970 1_565 S
O177 Li117 1.956 1_655 S
O177 Li119 1.961 1_655 S
O177 C126 1.325 1_655 S
O178 Li116 1.961 1_565 S
O178 Li118 1.956 1_565 S
O178 Li119 1.970 1_655 S
O178 C148 1.325 1_565 S
O179 Li117 1.961 1_545 S
O179 Li118 1.970 1_455 S
O179 Li119 1.956 1_545 S
O179 C154 1.325 . S
H180 C122 0.929 . S
H181 C123 0.930 . S
H182 C124 0.930 . S
H183 C125 0.930 . S
H184 C127 0.930 . S
H185 C129 0.929 . S
H186 C130 0.930 . S
H187 C131 0.930 . S
H188 C134 0.930 . S
H189 C137 0.929 . S
H190 C142 0.929 . S
H191 C143 0.930 . S
H192 C150 0.929 . S
H193 C151 0.930 . S
H194 C152 0.930 . S
H195 C153 0.930 . S
H196 C155 0.929 . S
H197 C156 0.930 . S
H198 C157 0.930 . S
H199 C158 0.930 . S
H200 C162 0.929 . S
H201 C164 0.930 . S
H202 C170 0.929 . S
H203 C171 0.930 . S
C204 C205 1.348 . S
C204 C206 1.327 . S
C204 H229 0.950 . S
C205 C204 1.348 . S
C205 C221 1.350 1_545 S
C206 C204 1.327 . S
C206 C225 1.428 1_545 S
C206 H230 0.950 . S
C207 C224 1.574 . S
C207 C226 1.372 . S
C207 H231 0.949 . S
H208 C212 0.949 . S
C209 C210 1.364 . S
C209 C211 1.327 . S
C209 H232 0.950 . S
C210 C209 1.364 . S
C210 C222 1.333 1_565 S
C211 C209 1.327 . S
C211 C227 1.439 . S
C211 H233 0.950 . S
C212 H208 0.949 . S
C212 C220 1.574 . S
C212 C228 1.360 1_545 S
H213 C221 0.950 . S
H214 C219 0.950 . S
H215 C220 0.949 . S
H216 C222 0.950 . S
H217 C223 0.950 . S
H218 C224 0.949 . S
C219 H214 0.950 . S
C219 C221 1.327 . S
C219 C225 1.429 . S
C220 C212 1.574 . S
C220 H215 0.949 . S
C220 C226 1.365 1_545 S
C221 C205 1.350 1_565 S
C221 H213 0.950 . S
C221 C219 1.327 . S
C222 C210 1.333 1_545 S
C222 H216 0.950 . S
C222 C223 1.327 . S
C223 H217 0.950 . S
C223 C222 1.327 . S
C223 C227 1.418 1_545 S
C224 C207 1.574 . S
C224 H218 0.949 . S
C224 C228 1.377 . S
C225 C206 1.428 1_565 S
C225 C219 1.429 . S
C225 C226 1.523 . S
C226 C207 1.372 . S
C226 C220 1.365 1_565 S
C226 C225 1.523 . S
C227 C211 1.439 . S
C227 C223 1.418 1_565 S
C227 C228 1.523 . S
C228 C212 1.360 1_565 S
C228 C224 1.377 . S
C228 C227 1.523 . S
H229 C204 0.950 . S
H230 C206 0.950 . S
H231 C207 0.949 . S
H232 C209 0.950 . S
H233 C211 0.950 . S
C234 C235 1.350 . S
C234 C236 1.327 . S
C234 H259 0.950 . S
C235 C234 1.350 . S
C235 C251 1.348 1_455 S
C236 C234 1.327 . S
C236 C255 1.435 . S
C236 H260 0.950 . S
C237 C254 1.574 . S
C237 C256 1.359 1_655 S
C237 H261 0.949 . S
H238 C242 0.949 . S
C239 C240 1.328 1_655 S
C239 C241 1.327 . S
C239 H262 0.950 . S
C240 C239 1.328 1_455 S
C240 C252 1.370 . S
C241 C239 1.327 . S
C241 C257 1.413 1_655 S
C241 H263 0.950 . S
C242 H238 0.949 . S
C242 C250 1.574 . S
C242 C258 1.383 . S
H243 C251 0.950 . S
H244 C249 0.950 . S
H245 C250 0.949 . S
H246 C252 0.950 . S
H247 C253 0.950 . S
H248 C254 0.949 . S
C249 H244 0.950 . S
C249 C251 1.327 . S
C249 C255 1.422 1_655 S
C250 C242 1.574 . S
C250 H245 0.949 . S
C250 C256 1.378 . S
C251 C235 1.348 1_655 S
C251 H243 0.950 . S
C251 C249 1.327 . S
C252 C240 1.370 . S
C252 H246 0.950 . S
C252 C253 1.327 . S
C253 H247 0.950 . S
C253 C252 1.327 . S
C253 C257 1.445 . S
C254 C237 1.574 . S
C254 H248 0.949 . S
C254 C258 1.354 1_655 S
C255 C236 1.435 . S
C255 C249 1.422 1_455 S
C255 C256 1.523 . S
C256 C237 1.359 1_455 S
C256 C250 1.378 . S
C256 C255 1.523 . S
C257 C241 1.413 1_455 S
C257 C253 1.445 . S
C257 C258 1.523 . S
C258 C242 1.383 . S
C258 C254 1.354 1_455 S
C258 C257 1.523 . S
H259 C234 0.950 . S
H260 C236 0.950 . S
H261 C237 0.949 . S
H262 C239 0.950 . S
H263 C241 0.950 . S
C264 C265 1.347 1_565 S
C264 C266 1.327 . S
C264 H289 0.950 . S
C265 C264 1.347 1_545 S
C265 C281 1.350 . S
C266 C264 1.327 . S
C266 C285 1.422 1_565 S
C266 H290 0.950 . S
C267 C284 1.574 . S
C267 C286 1.378 . S
C267 H291 0.949 . S
H268 C272 0.949 . S
C269 C270 1.370 . S
C269 C271 1.327 . S
C269 H292 0.950 . S
C270 C269 1.370 . S
C270 C282 1.328 1_545 S
C271 C269 1.327 . S
C271 C287 1.444 . S
C271 H293 0.950 . S
C272 H268 0.949 . S
C272 C280 1.574 . S
C272 C288 1.354 1_565 S
H273 C281 0.950 . S
H274 C279 0.950 . S
H275 C280 0.949 . S
H276 C282 0.950 . S
H277 C283 0.950 . S
H278 C284 0.949 . S
C279 H274 0.950 . S
C279 C281 1.327 . S
C279 C285 1.435 . S
C280 C272 1.574 . S
C280 H275 0.949 . S
C280 C286 1.359 1_565 S
C281 C265 1.350 . S
C281 H273 0.950 . S
C281 C279 1.327 . S
C282 C270 1.328 1_565 S
C282 H276 0.950 . S
C282 C283 1.327 . S
C283 H277 0.950 . S
C283 C282 1.327 . S
C283 C287 1.413 1_565 S
C284 C267 1.574 . S
C284 H278 0.949 . S
C284 C288 1.383 . S
C285 C266 1.422 1_545 S
C285 C279 1.435 . S
C285 C286 1.523 . S
C286 C267 1.378 . S
C286 C280 1.359 1_545 S
C286 C285 1.523 . S
C287 C271 1.444 . S
C287 C283 1.413 1_545 S
C287 C288 1.523 . S
C288 C272 1.354 1_545 S
C288 C284 1.383 . S
C288 C287 1.523 . S
H289 C264 0.950 . S
H290 C266 0.950 . S
H291 C267 0.949 . S
H292 C269 0.950 . S
H293 C271 0.950 . S
C294 C295 1.350 1_655 S
C294 C296 1.327 . S
C294 H319 0.950 . S
C295 C294 1.350 1_455 S
C295 C311 1.348 . S
C296 C294 1.327 . S
C296 C315 1.429 . S
C296 H320 0.950 . S
C297 C314 1.574 . S
C297 C316 1.365 1_455 S
C297 H321 0.949 . S
H298 C302 0.949 . S
C299 C300 1.336 1_455 S
C299 C301 1.327 . S
C299 H322 0.950 . S
C300 C299 1.336 1_655 S
C300 C312 1.362 . S
C301 C299 1.327 . S
C301 C317 1.420 1_455 S
C301 H323 0.950 . S
C302 H298 0.949 . S
C302 C310 1.574 . S
C302 C318 1.376 . S
H303 C311 0.950 . S
H304 C309 0.950 . S
H305 C310 0.949 . S
H306 C312 0.950 . S
H307 C313 0.950 . S
H308 C314 0.949 . S
C309 H304 0.950 . S
C309 C311 1.327 . S
C309 C315 1.428 1_455 S
C310 C302 1.574 . S
C310 H305 0.949 . S
C310 C316 1.371 . S
C311 C295 1.348 . S
C311 H303 0.950 . S
C311 C309 1.327 . S
C312 C300 1.362 . S
C312 H306 0.950 . S
C312 C313 1.327 . S
C313 H307 0.950 . S
C313 C312 1.327 . S
C313 C317 1.437 . S
C314 C297 1.574 . S
C314 H308 0.949 . S
C314 C318 1.361 1_455 S
C315 C296 1.429 . S
C315 C309 1.428 1_655 S
C315 C316 1.523 . S
C316 C297 1.365 1_655 S
C316 C310 1.371 . S
C316 C315 1.523 . S
C317 C301 1.420 1_655 S
C317 C313 1.437 . S
C317 C318 1.523 . S
C318 C302 1.376 . S
C318 C314 1.361 1_655 S
C318 C317 1.523 . S
H319 C294 0.950 . S
H320 C296 0.950 . S
H321 C297 0.949 . S
H322 C299 0.950 . S
H323 C301 0.950 . S
C324 C325 1.350 . S
C324 C326 1.327 . S
C324 H349 0.950 . S
C325 C324 1.350 . S
C325 C341 1.347 1_545 S
C326 C324 1.327 . S
C326 C345 1.435 . S
C326 H350 0.950 . S
C327 C344 1.574 . S
C327 C346 1.359 1_565 S
C327 H351 0.949 . S
H328 C332 0.949 . S
C329 C330 1.329 1_565 S
C329 C331 1.327 . S
C329 H352 0.950 . S
C330 C329 1.329 1_545 S
C330 C342 1.369 . S
C331 C329 1.327 . S
C331 C347 1.414 1_565 S
C331 H353 0.950 . S
C332 H328 0.949 . S
C332 C340 1.574 . S
C332 C348 1.382 . S
H333 C341 0.950 . S
H334 C339 0.950 . S
H335 C340 0.949 . S
H336 C342 0.950 . S
H337 C343 0.950 . S
H338 C344 0.949 . S
C339 H334 0.950 . S
C339 C341 1.327 . S
C339 C345 1.423 1_565 S
C340 C332 1.574 . S
C340 H335 0.949 . S
C340 C346 1.378 . S
C341 C325 1.347 1_565 S
C341 H333 0.950 . S
C341 C339 1.327 . S
C342 C330 1.369 . S
C342 H336 0.950 . S
C342 C343 1.327 . S
C343 H337 0.950 . S
C343 C342 1.327 . S
C343 C347 1.444 . S
C344 C327 1.574 . S
C344 H338 0.949 . S
C344 C348 1.354 1_565 S
C345 C326 1.435 . S
C345 C339 1.423 1_545 S
C345 C346 1.523 . S
C346 C327 1.359 1_545 S
C346 C340 1.378 . S
C346 C345 1.523 . S
C347 C331 1.414 1_545 S
C347 C343 1.444 . S
C347 C348 1.523 . S
C348 C332 1.382 . S
C348 C344 1.354 1_545 S
C348 C347 1.523 . S
H349 C324 0.950 . S
H350 C326 0.950 . S
H351 C327 0.949 . S
H352 C329 0.950 . S
H353 C331 0.950 . S
C354 C355 1.348 . S
C354 C356 1.327 . S
C354 H379 0.950 . S
C355 C354 1.348 . S
C355 C371 1.349 1_455 S
C356 C354 1.327 . S
C356 C375 1.428 1_455 S
C356 H380 0.950 . S
C357 C374 1.574 . S
C357 C376 1.370 . S
C357 H381 0.949 . S
H358 C362 0.949 . S
C359 C360 1.355 . S
C359 C361 1.327 . S
C359 H382 0.950 . S
C360 C359 1.355 . S
C360 C372 1.343 1_655 S
C361 C359 1.327 . S
C361 C377 1.433 . S
C361 H383 0.950 . S
C362 H358 0.949 . S
C362 C370 1.574 . S
C362 C378 1.365 1_455 S
H363 C371 0.950 . S
H364 C369 0.950 . S
H365 C370 0.949 . S
H366 C372 0.950 . S
H367 C373 0.950 . S
H368 C374 0.949 . S
C369 H364 0.950 . S
C369 C371 1.327 . S
C369 C375 1.429 . S
C370 C362 1.574 . S
C370 H365 0.949 . S
C370 C376 1.367 1_455 S
C371 C355 1.349 1_655 S
C371 H363 0.950 . S
C371 C369 1.327 . S
C372 C360 1.343 1_455 S
C372 H366 0.950 . S
C372 C373 1.327 . S
C373 H367 0.950 . S
C373 C372 1.327 . S
C373 C377 1.424 1_455 S
C374 C357 1.574 . S
C374 H368 0.949 . S
C374 C378 1.372 . S
C375 C356 1.428 1_655 S
C375 C369 1.429 . S
C375 C376 1.523 . S
C376 C357 1.370 . S
C376 C370 1.367 1_655 S
C376 C375 1.523 . S
C377 C361 1.433 . S
C377 C373 1.424 1_655 S
C377 C378 1.523 . S
C378 C362 1.365 1_655 S
C378 C374 1.372 . S
C378 C377 1.523 . S
H379 C354 0.950 . S
H380 C356 0.950 . S
H381 C357 0.949 . S
H382 C359 0.950 . S
H383 C361 0.950 . S
C384 C385 1.350 1_565 S
C384 C386 1.327 . S
C384 H409 0.950 . S
C385 C384 1.350 1_545 S
C385 C401 1.348 . S
C386 C384 1.327 . S
C386 C405 1.429 . S
C386 H410 0.950 . S
C387 C404 1.574 . S
C387 C406 1.365 1_545 S
C387 H411 0.949 . S
H388 C392 0.949 . S
C389 C390 1.334 1_545 S
C389 C391 1.327 . S
C389 H412 0.950 . S
C390 C389 1.334 1_565 S
C390 C402 1.364 . S
C391 C389 1.327 . S
C391 C407 1.419 1_545 S
C391 H413 0.950 . S
C392 H388 0.949 . S
C392 C400 1.574 . S
C392 C408 1.377 . S
H393 C401 0.950 . S
H394 C399 0.950 . S
H395 C400 0.949 . S
H396 C402 0.950 . S
H397 C403 0.950 . S
H398 C404 0.949 . S
C399 H394 0.950 . S
C399 C401 1.327 . S
C399 C405 1.428 1_545 S
C400 C392 1.574 . S
C400 H395 0.949 . S
C400 C406 1.372 . S
C401 C385 1.348 . S
C401 H393 0.950 . S
C401 C399 1.327 . S
C402 C390 1.364 . S
C402 H396 0.950 . S
C402 C403 1.327 . S
C403 H397 0.950 . S
C403 C402 1.327 . S
C403 C407 1.439 . S
C404 C387 1.574 . S
C404 H398 0.949 . S
C404 C408 1.360 1_545 S
C405 C386 1.429 . S
C405 C399 1.428 1_565 S
C405 C406 1.523 . S
C406 C387 1.365 1_565 S
C406 C400 1.372 . S
C406 C405 1.523 . S
C407 C391 1.419 1_565 S
C407 C403 1.439 . S
C407 C408 1.523 . S
C408 C392 1.377 . S
C408 C404 1.360 1_565 S
C408 C407 1.523 . S
H409 C384 0.950 . S
H410 C386 0.950 . S
H411 C387 0.949 . S
H412 C389 0.950 . S
H413 C391 0.950 . S
C414 C415 1.348 1_655 S
C414 C416 1.327 . S
C414 H439 0.950 . S
C415 C414 1.348 1_455 S
C415 C431 1.349 . S
C416 C414 1.327 . S
C416 C435 1.426 1_655 S
C416 H440 0.950 . S
C417 C434 1.574 . S
C417 C436 1.373 . S
C417 H441 0.949 . S
H418 C422 0.949 . S
C419 C420 1.359 . S
C419 C421 1.327 . S
C419 H442 0.950 . S
C420 C419 1.359 . S
C420 C432 1.340 1_455 S
C421 C419 1.327 . S
C421 C437 1.436 . S
C421 H443 0.950 . S
C422 H418 0.949 . S
C422 C430 1.574 . S
C422 C438 1.362 1_655 S
H423 C431 0.950 . S
H424 C429 0.950 . S
H425 C430 0.949 . S
H426 C432 0.950 . S
H427 C433 0.950 . S
H428 C434 0.949 . S
C429 H424 0.950 . S
C429 C431 1.327 . S
C429 C435 1.431 . S
C430 C422 1.574 . S
C430 H425 0.949 . S
C430 C436 1.364 1_655 S
C431 C415 1.349 . S
C431 H423 0.950 . S
C431 C429 1.327 . S
C432 C420 1.340 1_655 S
C432 H426 0.950 . S
C432 C433 1.327 . S
C433 H427 0.950 . S
C433 C432 1.327 . S
C433 C437 1.422 1_655 S
C434 C417 1.574 . S
C434 H428 0.949 . S
C434 C438 1.375 . S
C435 C416 1.426 1_455 S
C435 C429 1.431 . S
C435 C436 1.523 . S
C436 C417 1.373 . S
C436 C430 1.364 1_455 S
C436 C435 1.523 . S
C437 C421 1.436 . S
C437 C433 1.422 1_455 S
C437 C438 1.523 . S
C438 C422 1.362 1_455 S
C438 C434 1.375 . S
C438 C437 1.523 . S
H439 C414 0.950 . S
H440 C416 0.950 . S
H441 C417 0.949 . S
H442 C419 0.950 . S
H443 C421 0.950 . S
C210 C77 1.447 1_565 S
C205 C13 1.441 1_545 S
C240 C165 1.447 . S
C235 C15 1.448 . S
C270 C85 1.447 . S
C265 C1 1.447 . S
C300 C173 1.447 1_655 S
C295 C27 1.448 1_455 S
C330 C145 1.447 . S
C325 C0 1.449 1_545 S
C360 C48 1.447 1_655 S
C355 C26 1.448 . S
C390 C136 1.447 1_565 S
C385 C12 1.454 . S
C415 C14 1.448 1_455 S
C420 C57 1.447 . S
