# Generated by pormake.
# Topology rtl, (3,6)-cn, num edge types: 1
# Building blocks:
#     Node 0, Type 0, BuildingBlock: WUSLED_clean_sbu_0, # of connection points: 3
#     Node 1, Type 0, BuildingBlock: WUSLED_clean_sbu_0, # of connection points: 3
#     Node 2, Type 0, BuildingBlock: WUSLED_clean_sbu_0, # of connection points: 3
#     Node 3, Type 0, BuildingBlock: WUSLED_clean_sbu_0, # of connection points: 3
#     Node 4, Type 1, BuildingBlock: KUMJIN_clean_sbu_1, # of connection points: 6
#     Node 5, Type 1, BuildingBlock: KUMJIN_clean_sbu_1, # of connection points: 6
#     Edge 6, Type (0, 1), BuildingBlock: ZUJKAS_clean_linker_0, # of connection points: 2
#     Edge 7, Type (0, 1), BuildingBlock: ZUJKAS_clean_linker_0, # of connection points: 2
#     Edge 8, Type (0, 1), BuildingBlock: ZUJKAS_clean_linker_0, # of connection points: 2
#     Edge 9, Type (0, 1), BuildingBlock: ZUJKAS_clean_linker_0, # of connection points: 2
#     Edge 10, Type (0, 1), BuildingBlock: ZUJKAS_clean_linker_0, # of connection points: 2
#     Edge 11, Type (0, 1), BuildingBlock: ZUJKAS_clean_linker_0, # of connection points: 2
#     Edge 12, Type (0, 1), BuildingBlock: ZUJKAS_clean_linker_0, # of connection points: 2
#     Edge 13, Type (0, 1), BuildingBlock: ZUJKAS_clean_linker_0, # of connection points: 2
#     Edge 14, Type (0, 1), BuildingBlock: ZUJKAS_clean_linker_0, # of connection points: 2
#     Edge 15, Type (0, 1), BuildingBlock: ZUJKAS_clean_linker_0, # of connection points: 2
#     Edge 16, Type (0, 1), BuildingBlock: ZUJKAS_clean_linker_0, # of connection points: 2
#     Edge 17, Type (0, 1), BuildingBlock: ZUJKAS_clean_linker_0, # of connection points: 2
# Relax obj value: 0.016
# Max RMSD: 0.092
# Mean RMSD: 0.053
data_MOF--net-rtl--node1-WUSLED_clean_sbu_0--node2-KUMJIN_clean_sbu_1--edge1-ZUJKAS_clean_linker_0
_symmetry_space_group_name_H-M    P1
_symmetry_Int_Tables_number       1
_symmetry_cell_setting            triclinic
loop_
_symmetry_equiv_pos_as_xyz
'x, y, z'
_cell_length_a     51.519097
_cell_length_b     51.851196
_cell_length_c     43.905139
_cell_angle_alpha  82.985537
_cell_angle_beta   99.616629
_cell_angle_gamma 90.257809
loop_
_atom_site_label
_atom_site_type_symbol
_atom_site_fract_x
_atom_site_fract_y
_atom_site_fract_z
_atom_type_partial_charge
C0 C 0.23109 0.87001 0.11236 0.0
C1 C 0.20923 0.88693 0.10362 0.0
C2 C 0.20743 0.89018 0.15817 0.0
C3 C 0.19749 0.89691 0.12631 0.0
C4 C 0.22962 0.87348 0.16671 0.0
C5 C 0.24131 0.86348 0.14398 0.0
U6 U 0.23548 0.8655 0.02764 0.0
O7 O 0.26978 0.86051 1.0048 0.0
O8 O 0.23856 0.8315 1.00308 0.0
C9 C 0.26192 0.83784 0.99655 0.0
C10 C 0.24292 0.85865 0.08872 0.0
C11 C 0.28188 0.81685 1.00328 0.0
C12 C 0.30415 0.78008 0.03698 0.0
C13 C 0.28602 0.80082 0.03187 0.0
C14 C 0.31461 0.79164 0.98529 0.0
C15 C 0.31852 0.77515 1.01363 0.0
C16 C 0.29643 0.81227 0.98018 0.0
C17 C 0.19131 0.90775 0.96316 0.0
C18 C 0.18644 0.89902 0.90939 0.0
C19 C 0.16757 0.9384 0.92176 0.0
C20 C 0.17715 0.93112 0.95338 0.0
C21 C 0.1719 0.9223 0.89945 0.0
C22 C 0.19615 0.89186 0.94096 0.0
C23 C 0.20068 0.8999 0.99649 0.0
O24 O 0.22706 0.84434 0.07131 0.0
O25 O 0.25704 0.87455 0.07267 0.0
O26 O 0.2252 0.90571 1.00666 0.0
O27 O 0.19457 0.8762 1.00694 0.0
H28 H 0.20106 0.89213 0.07926 0.0
H29 H 0.18025 0.90942 0.11889 0.0
H30 H 0.23802 0.86819 0.19097 0.0
H31 H 0.25824 0.8505 0.1511 0.0
H32 H 0.30695 0.76791 0.05919 0.0
H33 H 0.27501 0.80417 0.05004 0.0
H34 H 0.32508 0.78821 0.96669 0.0
H35 H 0.29342 0.82443 0.95795 0.0
H36 H 0.19039 0.88639 0.89272 0.0
H37 H 0.15624 0.95632 0.91486 0.0
H38 H 0.17328 0.94362 0.97022 0.0
H39 H 0.20727 0.87382 0.9481 0.0
C40 C 0.67044 0.69832 0.68354 0.0
C41 C 0.64698 0.68493 0.67583 0.0
C42 C 0.64561 0.67198 0.73094 0.0
C43 C 0.63465 0.67192 0.69931 0.0
C44 C 0.66918 0.68544 0.73839 0.0
C45 C 0.68143 0.69846 0.71493 0.0
U46 U 0.68096 0.71194 0.59886 0.0
O47 O 0.68946 0.74831 0.57114 0.0
O48 O 0.71781 0.71566 0.57952 0.0
C49 C 0.71281 0.74004 0.56783 0.0
C50 C 0.68401 0.71175 0.65925 0.0
C51 C 0.73501 0.75825 0.57217 0.0
C52 C 0.75288 0.80032 0.5835 0.0
C53 C 0.73247 0.7823 0.58326 0.0
C54 C 0.77889 0.77029 0.56247 0.0
C55 C 0.77615 0.79471 0.57255 0.0
C56 C 0.75855 0.75235 0.5622 0.0
C57 C 0.63924 0.67696 0.5365 0.0
C58 C 0.64966 0.67656 0.48453 0.0
C59 C 0.6097 0.65662 0.49763 0.0
C60 C 0.61598 0.66369 0.52769 0.0
C61 C 0.62664 0.66262 0.47578 0.0
C62 C 0.6559 0.68367 0.51464 0.0
C63 C 0.64623 0.6828 0.5688 0.0
O64 O 0.69879 0.69681 0.64681 0.0
O65 O 0.66974 0.72877 0.63857 0.0
O66 O 0.64097 0.70661 0.57359 0.0
O67 O 0.66951 0.67417 0.58339 0.0
H68 H 0.63823 0.68453 0.65167 0.0
H69 H 0.6164 0.66203 0.69266 0.0
H70 H 0.67847 0.68558 0.76239 0.0
H71 H 0.69963 0.70853 0.72133 0.0
H72 H 0.75001 0.819 0.59121 0.0
H73 H 0.71451 0.78751 0.59096 0.0
H74 H 0.79669 0.7651 0.55441 0.0
H75 H 0.76098 0.73402 0.55341 0.0
H76 H 0.66327 0.6813 0.46844 0.0
H77 H 0.5916 0.64633 0.49156 0.0
H78 H 0.60282 0.65848 0.54422 0.0
H79 H 0.67395 0.69396 0.52105 0.0
C80 C 0.81745 0.15258 0.12264 0.0
C81 C 0.83128 0.12924 0.12311 0.0
C82 C 0.84722 0.12873 0.17868 0.0
C83 C 0.84598 0.11733 0.15098 0.0
C84 C 0.83319 0.15207 0.17796 0.0
C85 C 0.81845 0.16385 0.15019 0.0
U86 U 0.79937 0.16469 0.03361 0.0
O87 O 0.76055 0.17367 1.00461 0.0
O88 O 0.79234 0.20186 1.00339 0.0
C89 C 0.76714 0.19748 0.99523 0.0
C90 C 0.80232 0.16586 0.0937 0.0
C91 C 0.74937 0.21807 1.00022 0.0
C92 C 0.73434 0.24615 0.0344 0.0
C93 C 0.75071 0.22604 0.02986 0.0
C94 C 0.71466 0.25016 0.97987 0.0
C95 C 0.71622 0.25855 1.00942 0.0
C96 C 0.73115 0.23011 0.97531 0.0
C97 C 0.83397 0.12631 0.9822 0.0
C98 C 0.83729 0.13999 0.92802 0.0
C99 C 0.85048 0.09625 0.95137 0.0
C100 C 0.84371 0.10167 0.97949 0.0
C101 C 0.84774 0.11547 0.92543 0.0
C102 C 0.83037 0.14535 0.95614 0.0
C103 C 0.82896 0.13211 1.01272 0.0
O104 O 0.81599 0.18111 0.07641 0.0
O105 O 0.78536 0.15161 0.07752 0.0
O106 O 0.80554 0.12614 0.01936 0.0
O107 O 0.83708 0.15483 0.02059 0.0
H108 H 0.83084 0.12036 0.10193 0.0
H109 H 0.85675 0.09948 0.15076 0.0
H110 H 0.83343 0.16115 0.19895 0.0
H111 H 0.80788 0.18187 0.15022 0.0
H112 H 0.73578 0.25192 0.05751 0.0
H113 H 0.76456 0.2168 0.04943 0.0
H114 H 0.70108 0.25948 0.96011 0.0
H115 H 0.72987 0.22417 0.9523 0.0
H116 H 0.83466 0.1551 0.90837 0.0
H117 H 0.85875 0.07728 0.95029 0.0
H118 H 0.84665 0.08676 0.99936 0.0
H119 H 0.8227 0.16447 0.95772 0.0
C120 C 0.36559 0.32468 0.37626 0.0
C121 C 0.38208 0.34567 0.38259 0.0
C122 C 0.38997 0.35162 0.32891 0.0
C123 C 0.39412 0.35904 0.35914 0.0
C124 C 0.37352 0.33043 0.32282 0.0
C125 C 0.36144 0.31713 0.34628 0.0
U126 U 0.35457 0.31369 0.46031 0.0
O127 O 0.31833 0.30711 0.48018 0.0
O128 O 0.35009 0.27765 0.49116 0.0
C129 C 0.32608 0.28393 0.4943 0.0
C130 C 0.35255 0.31072 0.40066 0.0
C131 C 0.30641 0.26326 0.49193 0.0
C132 C 0.27126 0.24032 0.46266 0.0
C133 C 0.29089 0.25921 0.4635 0.0
C134 C 0.28289 0.22917 0.51848 0.0
C135 C 0.26691 0.22517 0.49022 0.0
C136 C 0.3024 0.24797 0.51927 0.0
C137 C 0.39205 0.35532 0.51856 0.0
C138 C 0.38971 0.34842 0.57382 0.0
C139 C 0.41184 0.38611 0.55268 0.0
C140 C 0.40609 0.3781 0.52306 0.0
C141 C 0.40363 0.37144 0.57842 0.0
C142 C 0.38389 0.34047 0.5441 0.0
C143 C 0.38572 0.34761 0.48706 0.0
O144 O 0.36806 0.29583 0.42258 0.0
O145 O 0.33588 0.32474 0.41165 0.0
O146 O 0.36165 0.35333 0.47252 0.0
O147 O 0.39357 0.32413 0.48397 0.0
H148 H 0.38559 0.35172 0.40568 0.0
H149 H 0.40691 0.37502 0.36477 0.0
H150 H 0.3696 0.32439 0.29976 0.0
H151 H 0.34873 0.301 0.34096 0.0
H152 H 0.25952 0.23758 0.44045 0.0
H153 H 0.29373 0.27082 0.4421 0.0
H154 H 0.27988 0.21825 0.54022 0.0
H155 H 0.3141 0.25092 0.54146 0.0
H156 H 0.38289 0.33682 0.59307 0.0
H157 H 0.42291 0.40372 0.55547 0.0
H158 H 0.41257 0.38977 0.5036 0.0
H159 H 0.37288 0.32286 0.54099 0.0
Eu160 Eu 0.03804 0.98531 0.51343 0.0
C161 C 0.97623 0.09123 0.5048 0.0
N162 N 0.99879 0.08358 0.52465 0.0
C163 C 0.01691 0.12585 0.51505 0.0
C164 C 0.97337 0.11662 0.48881 0.0
C165 C 0.0189 0.10046 0.53029 0.0
C166 C 0.9941 0.13394 0.49412 0.0
C167 C 0.9327 0.0807 0.47905 0.0
C168 C 0.95615 0.0734 0.49989 0.0
C169 C 0.92981 0.10598 0.46312 0.0
C170 C 0.95009 0.12386 0.46794 0.0
Eu171 Eu 1.00075 0.04018 0.54839 0.0
N172 N 0.95978 0.04878 0.51497 0.0
C173 C 0.91282 0.06238 0.47483 0.0
C174 C 0.9399 0.03133 0.51215 0.0
C175 C 0.91633 0.03769 0.49172 0.0
H176 H 0.03633 0.09447 0.54692 0.0
H177 H 0.90078 0.02361 0.48926 0.0
H178 H 1.004 0.93021 0.51814 0.0
H179 H 0.13797 1.00562 0.56978 0.0
H180 H 0.94175 0.01269 0.52597 0.0
H181 H 0.89453 0.06723 0.45901 0.0
H182 H 0.09685 0.01435 0.53268 0.0
H183 H 0.03294 0.13917 0.51951 0.0
H184 H 0.91193 0.11191 0.44704 0.0
H185 H 0.94757 0.14327 0.45541 0.0
H186 H 1.00859 0.88634 0.54779 0.0
H187 H 0.99265 0.15361 0.48228 0.0
H188 H 0.14506 0.96334 0.60299 0.0
N189 N 0.04124 0.94261 0.5394 0.0
C190 C 0.06402 0.93605 0.55937 0.0
C191 C 0.02426 0.90018 0.55139 0.0
C192 C 0.06752 0.91122 0.57675 0.0
C193 C 0.0216 0.92509 0.53485 0.0
C194 C 0.04726 0.89324 0.57255 0.0
N195 N 0.07939 0.97859 0.54661 0.0
C196 C 0.09898 0.9964 0.54792 0.0
C197 C 0.10721 0.94841 0.58418 0.0
C198 C 0.08361 0.95453 0.56312 0.0
C199 C 0.12668 0.96727 0.58705 0.0
C200 C 0.12268 0.99123 0.56851 0.0
H201 H 0.04922 0.87395 0.58544 0.0
H202 H 0.0939 0.88625 0.61155 0.0
H203 H 0.12863 0.91877 0.61803 0.0
O204 O 0.06349 0.98966 0.47804 0.0
O205 O 0.03661 0.98091 0.56544 0.0
O206 O 0.03864 0.0228 0.57692 0.0
O207 O 0.03867 0.95622 0.48144 0.0
O208 O 0.05114 0.02747 0.50544 0.0
O209 O 0.04433 0.04622 0.54865 0.0
O210 O 0.97631 0.03388 0.58475 0.0
O211 O 1.00097 0.04462 0.49621 0.0
O212 O 1.00052 1.00284 0.48393 0.0
O213 O 0.9991 0.06874 0.58078 0.0
O214 O 0.98654 0.99829 0.55495 0.0
O215 O 0.99447 0.97876 0.5126 0.0
C216 C 0.04367 0.99792 0.5849 0.0
C217 C 0.04699 0.97267 0.43153 0.0
C218 C 0.0579 0.97115 0.3797 0.0
C219 C 0.03271 0.98144 0.36658 0.0
C220 C 0.02194 0.98269 0.41792 0.0
C221 C 0.01489 0.98711 0.38562 0.0
C222 C 0.0649 0.96683 0.41238 0.0
C223 C 0.05615 0.04546 0.52437 0.0
C224 C 0.05479 0.96907 0.46559 0.0
C225 C 0.09091 0.9052 0.59791 0.0
C226 C 0.11068 0.92374 0.60163 0.0
C227 C 0.99468 0.02765 0.47649 0.0
C228 C 0.99267 0.05132 0.63107 0.0
C229 C 0.98295 0.05212 0.68356 0.0
C230 C 1.00886 0.04332 0.69576 0.0
C231 C 0.01842 0.04284 0.64377 0.0
C232 C 0.97498 0.05602 0.65098 0.0
C233 C 0.02642 0.03873 0.67595 0.0
C234 C 0.98172 0.98028 0.536 0.0
C235 C 0.98406 0.05479 0.59713 0.0
H236 H 0.02662 0.98469 0.34157 0.0
H237 H 1.0079 0.98706 0.43231 0.0
H238 H 0.9955 0.99489 0.37532 0.0
H239 H 0.08435 0.95929 0.42292 0.0
H240 H 0.01574 0.04045 0.72064 0.0
H241 H 0.03232 0.03952 0.62876 0.0
H242 H 0.95501 0.06243 0.64112 0.0
H243 H 0.04634 0.03213 0.68557 0.0
Eu244 Eu 0.49265 0.49751 1.0025 0.0
C245 C 0.58853 0.56932 0.04128 0.0
N246 N 0.58506 0.5433 0.04664 0.0
C247 C 0.62692 0.53515 0.03243 0.0
C248 C 0.61102 0.57932 0.02988 0.0
C249 C 0.60427 0.52616 0.0437 0.0
C250 C 0.63017 0.56184 0.02511 0.0
C251 C 0.57283 0.61309 0.04273 0.0
C252 C 0.56963 0.58595 0.0476 0.0
C253 C 0.59477 0.62318 0.03039 0.0
C254 C 0.61383 0.60634 0.02401 0.0
Eu255 Eu 0.54616 0.52974 0.06509 0.0
N256 N 0.54869 0.5756 0.05964 0.0
C257 C 0.55419 0.62927 0.05108 0.0
C258 C 0.53156 0.59121 0.06985 0.0
C259 C 0.53368 0.61825 0.06513 0.0
H260 H 0.60182 0.50554 0.04953 0.0
H261 H 0.51972 0.63054 0.07273 0.0
H262 H 0.44005 0.53894 0.99491 0.0
H263 H 0.49745 0.39312 0.03779 0.0
H264 H 0.51653 0.58287 0.08221 0.0
H265 H 0.55593 0.65022 0.04768 0.0
H266 H 0.51243 0.43561 0.01499 0.0
H267 H 0.64187 0.52151 0.02944 0.0
H268 H 0.59743 0.64398 0.02625 0.0
H269 H 0.63086 0.6144 0.01498 0.0
H270 H 0.39803 0.54022 1.01414 0.0
H271 H 0.64773 0.56875 0.01636 0.0
H272 H 0.45589 0.39075 0.05926 0.0
N273 N 0.45059 0.50071 0.01721 0.0
C274 C 0.44169 0.47844 0.03156 0.0
C275 C 0.41032 0.52285 0.01971 0.0
C276 C 0.41709 0.47792 0.04173 0.0
C277 C 0.43459 0.52228 1.00954 0.0
C278 C 0.40172 0.50072 0.03636 0.0
N279 N 0.48005 0.45666 0.02444 0.0
C280 C 0.49434 0.43456 0.02446 0.0
C281 C 0.44726 0.43199 0.04784 0.0
C282 C 0.45655 0.45568 0.03465 0.0
C283 C 0.46236 0.40933 0.04928 0.0
C284 C 0.48587 0.41059 0.03723 0.0
H285 H 0.38274 0.50112 0.04385 0.0
H286 H 0.38945 0.45384 0.06407 0.0
H287 H 0.41578 0.41362 0.06918 0.0
O288 O 0.50038 0.4789 0.96273 0.0
O289 O 0.50412 0.47939 0.05309 0.0
O290 O 0.5077 0.5152 0.07834 0.0
O291 O 0.46172 0.49459 0.96253 0.0
O292 O 0.53498 0.48424 1.00628 0.0
O293 O 0.55465 0.4883 0.05697 0.0
O294 O 0.56196 0.54477 0.1092 0.0
O295 O 0.55282 0.53331 0.0145 0.0
O296 O 0.51134 0.53464 0.98461 0.0
O297 O 0.56705 0.5037 0.10424 0.0
O298 O 0.50357 0.54417 0.05725 0.0
O299 O 0.48699 0.54065 1.00572 0.0
C300 C 0.50087 0.49099 0.07714 0.0
C301 C 0.4759 0.49542 0.91415 0.0
C302 C 0.47 0.49014 0.85886 0.0
C303 C 0.47414 0.51695 0.8521 0.0
C304 C 0.47978 0.52209 0.90687 0.0
C305 C 0.47904 0.53273 0.87598 0.0
C306 C 0.47102 0.47952 0.89017 0.0
C307 C 0.55266 0.47721 0.03121 0.0
C308 C 0.477 0.48396 0.94665 0.0
C309 C 0.4082 0.45454 0.05593 0.0
C310 C 0.42318 0.43162 0.05882 0.0
C311 C 0.53654 0.53994 0.98826 0.0
C312 C 0.5858 0.51717 0.15438 0.0
C313 C 0.59819 0.52988 0.20669 0.0
C314 C 0.61243 0.50633 0.21583 0.0
C315 C 0.60008 0.49378 0.16421 0.0
C316 C 0.58511 0.53533 0.17567 0.0
C317 C 0.61339 0.48851 0.1947 0.0
C318 C 0.48851 0.55274 0.03069 0.0
C319 C 0.57133 0.52206 0.12215 0.0
H320 H 0.47315 0.52585 0.8283 0.0
H321 H 0.48345 0.53463 0.92507 0.0
H322 H 0.48211 0.55333 0.87049 0.0
H323 H 0.46827 0.45887 0.89599 0.0
H324 H 0.62302 0.50177 0.23935 0.0
H325 H 0.60102 0.47952 0.1483 0.0
H326 H 0.57387 0.55329 0.16841 0.0
H327 H 0.62443 0.47047 0.20202 0.0
H328 H 0.21691 0.22957 0.45616 0.0
H329 H 0.1808 0.19898 0.45875 0.0
H330 H 0.23149 0.14698 0.52722 0.0
H331 H 0.26797 0.17686 0.52381 0.0
H332 H 0.20133 0.12089 0.48453 0.0
H333 H 0.13904 0.1893 0.52981 0.0
H334 H 0.14842 0.20162 0.49326 0.0
H335 H 0.1732 0.19533 0.52746 0.0
C336 C 0.22052 0.21145 0.47142 0.0
C337 C 0.24534 0.20584 0.49001 0.0
C338 C 0.19972 0.19413 0.47318 0.0
C339 C 0.20324 0.17095 0.49373 0.0
C340 C 0.22821 0.16486 0.51144 0.0
H341 H 0.08359 0.07501 0.56607 0.0
H342 H 0.11907 0.10522 0.55768 0.0
C343 C 0.24901 0.18209 0.50962 0.0
C344 C 0.18093 0.15308 0.49715 0.0
H345 H 0.11976 0.14946 0.51771 0.0
C346 C 0.18348 0.12714 0.49174 0.0
C347 C 0.1578 0.16112 0.50707 0.0
C348 C 0.15446 0.18828 0.51505 0.0
C349 C 0.16353 0.10909 0.49581 0.0
C350 C 0.14009 0.11732 0.50489 0.0
C351 C 0.1376 0.14322 0.51046 0.0
C352 C 0.11822 0.09921 0.5096 0.0
C353 C 0.16809 0.0812 0.49118 0.0
C354 C 0.10562 0.08606 0.48525 0.0
C355 C 0.0854 0.06869 0.49002 0.0
C356 C 0.07708 0.06443 0.51913 0.0
C357 C 0.08938 0.078 0.5433 0.0
C358 C 0.10971 0.09524 0.53856 0.0
H359 H 0.18937 0.07664 0.4928 0.0
H360 H 0.16005 0.06756 0.50869 0.0
H361 H 0.158 0.07777 0.46768 0.0
H362 H 0.11138 0.08926 0.46248 0.0
H363 H 0.07619 0.05871 0.47083 0.0
H364 H 0.31104 0.72564 0.04003 0.0
H365 H 0.34045 0.68782 0.04531 0.0
H366 H 0.3964 0.73515 1.0019 0.0
H367 H 0.36744 0.77319 0.99725 0.0
H368 H 0.35823 0.66621 0.99676 0.0
H369 H 0.44169 0.6976 0.08065 0.0
H370 H 0.40943 0.71279 0.0741 0.0
H371 H 0.43162 0.72087 0.04696 0.0
C372 C 0.32981 0.72811 0.03212 0.0
C373 C 0.33693 0.75246 0.01829 0.0
C374 C 0.3465 0.70644 0.03495 0.0
C375 C 0.37071 0.70874 0.02428 0.0
C376 C 0.37799 0.73303 1.01072 0.0
H377 H 0.46748 0.58633 0.97985 0.0
H378 H 0.43834 0.62389 0.97828 0.0
C379 C 0.3613 0.75469 1.00781 0.0
C380 C 0.38784 0.68551 0.02615 0.0
H381 H 0.4491 0.66024 0.05658 0.0
C382 C 0.37806 0.66484 1.00993 0.0
C383 C 0.4136 0.68369 0.04359 0.0
C384 C 0.42469 0.70479 0.06257 0.0
C385 C 0.39354 0.64256 1.01024 0.0
C386 C 0.41958 0.6411 0.0269 0.0
C387 C 0.4292 0.66155 0.04358 0.0
C388 C 0.43705 0.61834 0.02767 0.0
C389 C 0.38182 0.62062 0.99309 0.0
C390 C 0.44626 0.60303 0.056 0.0
C391 C 0.46286 0.58162 0.05694 0.0
C392 C 0.4708 0.57531 0.02961 0.0
C393 C 0.46158 0.59069 1.00125 0.0
C394 C 0.44491 0.61208 1.00031 0.0
H395 H 0.35997 0.62203 0.98791 0.0
H396 H 0.3892 0.62138 0.97066 0.0
H397 H 0.38768 0.60149 1.0068 0.0
H398 H 0.4404 0.60754 0.07735 0.0
H399 H 0.46934 0.56991 0.07907 0.0
H400 H 0.80441 0.80614 0.52525 0.0
H401 H 0.8389 0.83826 0.52142 0.0
H402 H 0.82912 0.86125 0.60997 0.0
H403 H 0.795 0.82854 0.61446 0.0
H404 H 0.83516 0.89232 0.52129 0.0
H405 H 0.90889 0.84745 0.62056 0.0
H406 H 0.88086 0.82998 0.60349 0.0
H407 H 0.87679 0.85331 0.62947 0.0
C408 C 0.80982 0.81773 0.54418 0.0
C409 C 0.79708 0.81452 0.57035 0.0
C410 C 0.82942 0.83624 0.54181 0.0
C411 C 0.83685 0.85193 0.56558 0.0
C412 C 0.82402 0.84905 0.59159 0.0
H413 H 0.9565 0.97136 0.5864 0.0
H414 H 0.92073 0.94124 0.59359 0.0
C415 C 0.80433 0.83052 0.59397 0.0
C416 C 0.85771 0.87154 0.56262 0.0
H417 H 0.91966 0.88788 0.59504 0.0
C418 C 0.85364 0.89136 0.53741 0.0
C419 C 0.88176 0.87033 0.58376 0.0
C420 C 0.88756 0.84904 0.61073 0.0
C421 C 0.8729 0.91004 0.5328 0.0
C422 C 0.89717 0.90855 0.55358 0.0
C423 C 0.90109 0.88896 0.57907 0.0
C424 C 0.91886 0.9269 0.54904 0.0
C425 C 0.8669 0.93145 0.50596 0.0
C426 C 0.92997 0.92867 0.52175 0.0
C427 C 0.95034 0.94597 0.51748 0.0
C428 C 0.96029 0.96166 0.5406 0.0
C429 C 0.94931 0.95963 0.56807 0.0
C430 C 0.92888 0.94237 0.57227 0.0
H431 H 0.84536 0.93426 0.49801 0.0
H432 H 0.87536 0.95015 0.51243 0.0
H433 H 0.87567 0.92622 0.48607 0.0
H434 H 0.92294 0.91657 0.50375 0.0
H435 H 0.95818 0.94711 0.49596 0.0
H436 H 0.73083 0.29931 0.04223 0.0
H437 H 0.70348 0.336 0.04897 0.0
H438 H 0.63665 0.30463 0.99328 0.0
H439 H 0.66377 0.26763 0.9868 0.0
H440 H 0.67539 0.37203 0.99974 0.0
H441 H 0.60931 0.31976 0.07352 0.0
H442 H 0.6405 0.30627 0.06892 0.0
H443 H 0.61237 0.30583 0.03872 0.0
C444 C 0.71022 0.30003 0.03177 0.0
C445 C 0.69944 0.28052 1.01405 0.0
C446 C 0.69468 0.32106 0.03551 0.0
C447 C 0.66801 0.32286 0.0219 0.0
C448 C 0.65712 0.3034 1.00432 0.0
H449 H 0.55974 0.45355 0.98074 0.0
H450 H 0.58865 0.41657 0.97966 0.0
C451 C 0.67269 0.28242 1.0004 0.0
C452 C 0.65187 0.34566 0.02503 0.0
H453 H 0.59797 0.36373 0.0538 0.0
C454 C 0.65853 0.37026 1.01167 0.0
C455 C 0.63005 0.34326 0.04086 0.0
C456 C 0.62266 0.31742 0.05659 0.0
C457 C 0.64354 0.39249 1.01308 0.0
C458 C 0.6213 0.38998 0.02812 0.0
C459 C 0.61497 0.3655 0.04213 0.0
C460 C 0.60406 0.41254 0.02895 0.0
C461 C 0.65157 0.41854 0.99855 0.0
C462 C 0.60305 0.42235 0.05712 0.0
C463 C 0.58663 0.44361 0.05785 0.0
C464 C 0.57069 0.45519 0.03044 0.0
C465 C 0.57173 0.44516 1.00229 0.0
C466 C 0.58829 0.42406 1.00157 0.0
H467 H 0.67193 0.418 0.99339 0.0
H468 H 0.63796 0.42437 0.97639 0.0
H469 H 0.65025 0.43365 1.01414 0.0
H470 H 0.61505 0.41361 0.07851 0.0
H471 H 0.58624 0.45074 0.07995 0.0
H472 H 0.19829 0.86376 0.21329 0.0
H473 H 0.17537 0.87954 0.25206 0.0
H474 H 0.16361 0.9544 0.19663 0.0
H475 H 0.18684 0.93896 0.15789 0.0
H476 H 0.1863 0.92342 0.28638 0.0
H477 H 0.08862 0.93161 0.20941 0.0
H478 H 0.11583 0.91337 0.20111 0.0
H479 H 0.11494 0.94821 0.19346 0.0
C480 C 0.19114 0.88369 0.20948 0.0
C481 C 0.19431 0.90004 0.18234 0.0
C482 C 0.17794 0.89263 0.23162 0.0
C483 C 0.1675 0.918 0.227 0.0
C484 C 0.1711 0.93458 0.20034 0.0
H485 H 0.06867 1.00005 0.32699 0.0
H486 H 0.09698 0.9881 0.29126 0.0
C487 C 0.18433 0.92569 0.1782 0.0
C488 C 0.1525 0.92696 0.24988 0.0
H489 H 0.09126 0.94662 0.25844 0.0
C490 C 0.16552 0.92849 0.28034 0.0
C491 C 0.12542 0.93358 0.24187 0.0
C492 C 0.11024 0.93145 0.20978 0.0
C493 C 0.15221 0.9368 0.30296 0.0
C494 C 0.12504 0.9432 0.29502 0.0
C495 C 0.1121 0.94176 0.26449 0.0
C496 C 0.10943 0.95108 0.318 0.0
C497 C 0.16749 0.93912 0.33493 0.0
C498 C 0.10704 0.93428 0.34498 0.0
C499 C 0.09088 0.94109 0.36548 0.0
C500 C 0.07653 0.96469 0.35918 0.0
C501 C 0.07923 0.98161 0.33233 0.0
C502 C 0.09548 0.97485 0.31195 0.0
H503 H 0.18894 0.94091 0.33459 0.0
H504 H 0.16062 0.9562 0.34458 0.0
H505 H 0.16456 0.9214 0.35083 0.0
H506 H 0.11709 0.91556 0.34976 0.0
H507 H 0.08892 0.92748 0.38571 0.0
H508 H 0.64074 0.68751 0.78734 0.0
H509 H 0.62131 0.66382 0.82938 0.0
H510 H 0.60073 0.60165 0.77344 0.0
H511 H 0.62106 0.62472 0.73168 0.0
H512 H 0.57048 0.64732 0.8304 0.0
H513 H 0.63978 0.56276 0.854 0.0
H514 H 0.64596 0.59237 0.83031 0.0
H515 H 0.62332 0.56906 0.81438 0.0
C516 C 0.6324 0.66865 0.78405 0.0
C517 C 0.63275 0.65797 0.75612 0.0
C518 C 0.6211 0.65521 0.80807 0.0
C519 C 0.60994 0.63074 0.80483 0.0
C520 C 0.6097 0.62024 0.77677 0.0
H521 H 0.53575 0.5224 0.93236 0.0
H522 H 0.55222 0.54439 0.88665 0.0
C523 C 0.62105 0.63365 0.75272 0.0
C524 C 0.59838 0.61645 0.83078 0.0
H525 H 0.60393 0.56045 0.88157 0.0
C526 C 0.57782 0.62834 0.8416 0.0
C527 C 0.60789 0.59162 0.84536 0.0
C528 C 0.6306 0.57824 0.83567 0.0
C529 C 0.56646 0.61608 0.86644 0.0
C530 C 0.5762 0.59143 0.88126 0.0
C531 C 0.59649 0.57935 0.87019 0.0
C532 C 0.56603 0.57815 0.90878 0.0
C533 C 0.54388 0.6295 0.87634 0.0
C534 C 0.56849 0.58968 0.93644 0.0
C535 C 0.55891 0.57723 0.96232 0.0
C536 C 0.54702 0.55292 0.96118 0.0
C537 C 0.5447 0.54126 0.93365 0.0
C538 C 0.55423 0.55372 0.90767 0.0
H539 H 0.53416 0.64445 0.85768 0.0
H540 H 0.5289 0.6153 0.88276 0.0
H541 H 0.55145 0.63936 0.89702 0.0
H542 H 0.57782 0.60834 0.93803 0.0
H543 H 0.56024 0.58693 0.98291 0.0
H544 H 0.87988 0.15281 0.22171 0.0
H545 H 0.9046 0.13332 0.27155 0.0
H546 H 0.8752 0.05786 0.25276 0.0
H547 H 0.85042 0.07726 0.2027 0.0
H548 H 0.88455 0.10686 0.32063 0.0
H549 H 0.95416 0.04374 0.27816 0.0
H550 H 0.93493 0.06938 0.25297 0.0
H551 H 0.92001 0.03894 0.26361 0.0
C552 C 0.87867 0.13206 0.22817 0.0
C553 C 0.86315 0.11658 0.20829 0.0
C554 C 0.89289 0.12094 0.2566 0.0
C555 C 0.89197 0.09411 0.26573 0.0
C556 C 0.87664 0.07852 0.24589 0.0
H557 H 0.96227 0.99925 0.43782 0.0
H558 H 0.93654 0.0147 0.38673 0.0
C559 C 0.86246 0.08964 0.21732 0.0
C560 C 0.90624 0.08281 0.29663 0.0
H561 H 0.95497 0.03963 0.33264 0.0
C562 C 0.89996 0.09217 0.32325 0.0
C563 C 0.92625 0.06356 0.29999 0.0
C564 C 0.93446 0.05342 0.27219 0.0
C565 C 0.91316 0.08285 0.35313 0.0
C566 C 0.93341 0.06391 0.35645 0.0
C567 C 0.93941 0.05418 0.32994 0.0
C568 C 0.9491 0.05453 0.38721 0.0
C569 C 0.9052 0.09318 0.38096 0.0
C570 C 0.9649 0.07177 0.40414 0.0
C571 C 0.97981 0.06297 0.43308 0.0
C572 C 0.97921 0.03674 0.4456 0.0
C573 C 0.9634 0.01949 0.42857 0.0
C574 C 0.94861 0.02829 0.39949 0.0
H575 H 0.88519 0.10223 0.37531 0.0
H576 H 0.90559 0.07748 0.40064 0.0
H577 H 0.9193 0.10826 0.38869 0.0
H578 H 0.96586 0.09202 0.39484 0.0
H579 H 0.99195 0.07668 0.44555 0.0
H580 H 0.4204 0.34229 0.6348 0.0
H581 H 0.4304 0.35753 0.68616 0.0
H582 H 0.41056 0.43602 0.64408 0.0
H583 H 0.39993 0.42093 0.59297 0.0
H584 H 0.46785 0.39361 0.70606 0.0
H585 H 0.36769 0.42669 0.71501 0.0
H586 H 0.37374 0.4056 0.68703 0.0
H587 H 0.37806 0.44011 0.67942 0.0
C588 C 0.41783 0.36274 0.63657 0.0
C589 C 0.40934 0.38039 0.60977 0.0
C590 C 0.42369 0.37143 0.66589 0.0
C591 C 0.42088 0.39785 0.669 0.0
C592 C 0.41242 0.41548 0.64232 0.0
H593 H 0.49248 0.4919 0.8063 0.0
H594 H 0.48088 0.46675 0.76261 0.0
C595 C 0.40665 0.40685 0.61305 0.0
C596 C 0.42771 0.40735 0.69986 0.0
H597 H 0.4033 0.44265 0.74978 0.0
C598 C 0.45368 0.40408 0.71583 0.0
C599 C 0.4091 0.42058 0.71289 0.0
C600 C 0.38052 0.42324 0.69788 0.0
C601 C 0.46184 0.41475 0.74374 0.0
C602 C 0.44363 0.42947 0.75567 0.0
C603 C 0.41736 0.43167 0.74045 0.0
C604 C 0.45159 0.44371 0.78306 0.0
C605 C 0.48989 0.41019 0.76011 0.0
C606 C 0.43865 0.43953 0.80892 0.0
C607 C 0.44496 0.4542 0.83379 0.0
C608 C 0.46424 0.47351 0.83322 0.0
C609 C 0.47736 0.4774 0.80741 0.0
C610 C 0.47101 0.46277 0.78256 0.0
H611 H 0.49847 0.39226 0.75403 0.0
H612 H 0.50202 0.42679 0.75274 0.0
H613 H 0.49121 0.40853 0.78578 0.0
H614 H 0.42344 0.42508 0.80969 0.0
H615 H 0.43421 0.45091 0.85307 0.0
H616 H 0.63331 0.68853 0.41907 0.0
H617 H 0.62473 0.67241 0.36815 0.0
H618 H 0.59857 0.59981 0.41093 0.0
H619 H 0.60724 0.61557 0.46168 0.0
H620 H 0.64676 0.62953 0.34982 0.0
H621 H 0.53887 0.6188 0.33845 0.0
H622 H 0.55742 0.63756 0.36644 0.0
H623 H 0.55587 0.60277 0.37477 0.0
C624 C 0.62571 0.66913 0.41762 0.0
C625 C 0.62078 0.65343 0.4445 0.0
C626 C 0.62069 0.66001 0.38847 0.0
C627 C 0.61048 0.6351 0.38561 0.0
C628 C 0.6057 0.61938 0.41239 0.0
H629 H 0.58911 0.51842 0.26619 0.0
H630 H 0.59077 0.54763 0.3061 0.0
C631 C 0.61069 0.62844 0.44145 0.0
C632 C 0.60616 0.62474 0.35509 0.0
H633 H 0.56057 0.59444 0.30636 0.0
C634 C 0.62781 0.6223 0.33994 0.0
C635 C 0.58138 0.61547 0.34212 0.0
C636 C 0.557 0.61902 0.35612 0.0
C637 C 0.62572 0.60937 0.31331 0.0
C638 C 0.60126 0.59887 0.30137 0.0
C639 C 0.57933 0.60239 0.31565 0.0
C640 C 0.59869 0.58199 0.27609 0.0
C641 C 0.64999 0.60579 0.29912 0.0
C642 C 0.60202 0.59175 0.24572 0.0
C643 C 0.60109 0.57502 0.22276 0.0
C644 C 0.59696 0.54828 0.22991 0.0
C645 C 0.59277 0.53884 0.26009 0.0
C646 C 0.59355 0.55552 0.28287 0.0
H647 H 0.66817 0.61174 0.31386 0.0
H648 H 0.65231 0.58517 0.29546 0.0
H649 H 0.64791 0.61775 0.27607 0.0
H650 H 0.60567 0.6122 0.2399 0.0
H651 H 0.60442 0.58285 0.19973 0.0
H652 H 0.8409 0.07165 0.89595 0.0
H653 H 0.86042 0.06161 0.85144 0.0
H654 H 0.89522 0.13741 0.8449 0.0
H655 H 0.87619 0.14747 0.88965 0.0
H656 H 0.85734 0.08959 0.78782 0.0
H657 H 0.95785 0.08347 0.85847 0.0
H658 H 0.9284 0.08218 0.87584 0.0
H659 H 0.93929 0.11271 0.85879 0.0
C660 C 0.85264 0.08621 0.88496 0.0
C661 C 0.85716 0.11028 0.89649 0.0
C662 C 0.86361 0.08051 0.85943 0.0
C663 C 0.87945 0.09867 0.84515 0.0
C664 C 0.8832 0.12307 0.8558 0.0
H665 H 0.94871 0.09349 0.67776 0.0
H666 H 0.92155 0.1042 0.7154 0.0
C667 C 0.87215 0.12884 0.88122 0.0
C668 C 0.89331 0.09157 0.82031 0.0
H669 H 0.95458 0.07919 0.8051 0.0
C670 C 0.87859 0.08733 0.79149 0.0
C671 C 0.921 0.08833 0.82541 0.0
C672 C 0.93765 0.09168 0.85635 0.0
C673 C 0.89094 0.0802 0.76743 0.0
C674 C 0.91869 0.07742 0.77238 0.0
C675 C 0.93332 0.08145 0.80132 0.0
C676 C 0.93313 0.06993 0.74817 0.0
C677 C 0.87422 0.07524 0.73715 0.0
C678 C 0.94866 0.04714 0.7541 0.0
C679 C 0.96419 0.04099 0.7327 0.0
C680 C 0.96466 0.0576 0.70496 0.0
C681 C 0.94855 0.08012 0.6987 0.0
C682 C 0.933 0.08627 0.72018 0.0
H683 H 0.85325 0.0723 0.73958 0.0
H684 H 0.87519 0.09224 0.71941 0.0
H685 H 0.88159 0.0579 0.72846 0.0
H686 H 0.94904 0.03426 0.77556 0.0
H687 H 0.97605 0.02331 0.73804 0.0
H688 H 0.41234 0.33163 0.28413 0.0
H689 H 0.43213 0.3554 0.24233 0.0
H690 H 0.41572 0.42787 0.2747 0.0
H691 H 0.39582 0.40428 0.31649 0.0
H692 H 0.40923 0.39235 0.19483 0.0
H693 H 0.49336 0.43446 0.26772 0.0
H694 H 0.47404 0.4084 0.28304 0.0
H695 H 0.4619 0.44139 0.2776 0.0
C696 C 0.41287 0.35263 0.28233 0.0
C697 C 0.40253 0.36602 0.30378 0.0
C698 C 0.42431 0.36619 0.25849 0.0
C699 C 0.4258 0.3934 0.25563 0.0
C700 C 0.4154 0.40684 0.27688 0.0
H701 H 0.47779 0.51107 0.12093 0.0
H702 H 0.45948 0.48719 0.16399 0.0
C703 C 0.404 0.39331 0.30077 0.0
C704 C 0.43738 0.40773 0.22976 0.0
H705 H 0.48563 0.45027 0.21378 0.0
C706 C 0.42604 0.40487 0.19898 0.0
C707 C 0.45927 0.42416 0.23518 0.0
C708 C 0.47304 0.42715 0.26766 0.0
C709 C 0.43571 0.41832 0.17352 0.0
C710 C 0.45752 0.43478 0.17895 0.0
C711 C 0.46888 0.43766 0.20968 0.0
C712 C 0.46885 0.44915 0.15297 0.0
C713 C 0.42208 0.41537 0.14098 0.0
C714 C 0.4806 0.43569 0.1328 0.0
C715 C 0.49124 0.44928 0.10836 0.0
C716 C 0.49018 0.47658 0.10347 0.0
C717 C 0.47883 0.49003 0.12403 0.0
C718 C 0.46831 0.47643 0.14859 0.0
H719 H 0.40245 0.40638 0.14081 0.0
H720 H 0.41956 0.43457 0.12646 0.0
H721 H 0.43432 0.40278 0.13014 0.0
H722 H 0.48175 0.41466 0.13614 0.0
H723 H 0.50051 0.43841 0.09346 0.0
H724 H 0.14658 0.89087 0.85875 0.0
H725 H 0.1271 0.90288 0.80404 0.0
H726 H 0.15193 0.98186 0.81007 0.0
H727 H 0.17175 0.96996 0.86474 0.0
H728 H 0.08681 0.94366 0.78176 0.0
H729 H 0.17829 0.96068 0.73101 0.0
H730 H 0.17802 0.94149 0.76819 0.0
H731 H 0.17606 0.97629 0.76492 0.0
C732 C 0.14821 0.91071 0.84831 0.0
C733 C 0.16076 0.92946 0.86603 0.0
C734 C 0.13696 0.91755 0.81714 0.0
C735 C 0.13833 0.94317 0.803 0.0
C736 C 0.15097 0.96191 0.82049 0.0
H737 H 0.07765 0.02596 0.62202 0.0
H738 H 0.10092 0.01188 0.6747 0.0
C739 C 0.16207 0.95514 0.85176 0.0
C740 C 0.12548 0.9505 0.77034 0.0
H741 H 0.13788 0.97172 0.6975 0.0
C742 C 0.09794 0.94965 0.76326 0.0
C743 C 0.14011 0.95848 0.74642 0.0
C744 C 0.16978 0.95917 0.75279 0.0
C745 C 0.08455 0.95703 0.7329 0.0
C746 C 0.09918 0.96479 0.70887 0.0
C747 C 0.12675 0.96562 0.71596 0.0
C748 C 0.08609 0.97272 0.67639 0.0
C749 C 0.05482 0.95721 0.72698 0.0
C750 C 0.07054 0.95517 0.65963 0.0
C751 C 0.05696 0.96327 0.6297 0.0
C752 C 0.05887 0.98899 0.61597 0.0
C753 C 0.07534 1.00618 0.6323 0.0
C754 C 0.08881 0.99812 0.66227 0.0
H755 H 0.04665 0.95692 0.74889 0.0
H756 H 0.04686 0.97463 0.7109 0.0
H757 H 0.04783 0.9397 0.71603 0.0
H758 H 0.06867 0.9353 0.66985 0.0
H759 H 0.04459 0.94952 0.61755 0.0
loop_
_geom_bond_atom_site_label_1
_geom_bond_atom_site_label_2
_geom_bond_distance
_geom_bond_site_symmetry_2
_ccdc_geom_bond_type
C0 C1 1.264 . S
C0 C5 1.479 . S
C0 C10 1.465 . S
C1 C0 1.264 . S
C1 C3 1.339 . S
C1 H28 0.931 . S
C2 C3 1.395 . S
C2 C4 1.320 . S
C3 C1 1.339 . S
C3 C2 1.395 . S
C3 H29 0.929 . S
C4 C2 1.320 . S
C4 C5 1.405 . S
C4 H30 0.930 . S
C5 C0 1.479 . S
C5 C4 1.405 . S
C5 H31 0.931 . S
U6 O7 2.454 . S
U6 O8 2.458 . S
U6 C9 2.984 . S
U6 C10 2.847 . S
U6 C23 2.882 1_554 S
U6 O24 2.441 . S
U6 O25 2.420 . S
U6 O26 2.455 1_554 S
U6 O27 2.449 1_554 S
O7 U6 2.454 . S
O7 C9 1.353 . S
O8 U6 2.458 . S
O8 C9 1.286 . S
C9 U6 2.984 . S
C9 O7 1.353 . S
C9 O8 1.286 . S
C9 C11 1.363 . S
C10 C0 1.465 . S
C10 U6 2.847 . S
C10 O24 1.249 . S
C10 O25 1.202 . S
C11 C9 1.363 . S
C11 C13 1.408 . S
C11 C16 1.342 . S
C12 C13 1.310 . S
C12 C15 1.461 . S
C12 H32 0.932 . S
C13 C11 1.408 . S
C13 C12 1.310 . S
C13 H33 0.930 . S
C14 C15 1.474 . S
C14 C16 1.285 . S
C14 H34 0.929 1_554 S
C15 C12 1.461 . S
C15 C14 1.474 . S
C16 C11 1.342 . S
C16 C14 1.285 . S
C16 H35 0.930 1_554 S
C17 C20 1.424 . S
C17 C22 1.245 . S
C17 C23 1.428 . S
C18 C21 1.260 . S
C18 C22 1.477 . S
C18 H36 0.932 . S
C19 C20 1.384 . S
C19 C21 1.479 . S
C19 H37 0.929 . S
C20 C17 1.424 . S
C20 C19 1.384 . S
C20 H38 0.928 . S
C21 C18 1.260 . S
C21 C19 1.479 . S
C22 C17 1.245 . S
C22 C18 1.477 . S
C22 H39 0.932 . S
C23 U6 2.882 1_556 S
C23 C17 1.428 . S
C23 O26 1.301 . S
C23 O27 1.282 . S
O24 U6 2.441 . S
O24 C10 1.249 . S
O25 U6 2.420 . S
O25 C10 1.202 . S
O26 U6 2.455 1_556 S
O26 C23 1.301 . S
O27 U6 2.449 1_556 S
O27 C23 1.282 . S
H28 C1 0.931 . S
H29 C3 0.929 . S
H30 C4 0.930 . S
H31 C5 0.931 . S
H32 C12 0.932 . S
H33 C13 0.930 . S
H34 C14 0.929 1_556 S
H35 C16 0.930 1_556 S
H36 C18 0.932 . S
H37 C19 0.929 . S
H38 C20 0.928 . S
H39 C22 0.932 . S
C40 C41 1.264 . S
C40 C45 1.479 . S
C40 C50 1.465 . S
C41 C40 1.264 . S
C41 C43 1.339 . S
C41 H68 0.931 . S
C42 C43 1.395 . S
C42 C44 1.320 . S
C43 C41 1.339 . S
C43 C42 1.395 . S
C43 H69 0.929 . S
C44 C42 1.320 . S
C44 C45 1.405 . S
C44 H70 0.930 . S
C45 C40 1.479 . S
C45 C44 1.405 . S
C45 H71 0.931 . S
U46 O47 2.454 . S
U46 O48 2.458 . S
U46 C49 2.984 . S
U46 C50 2.847 . S
U46 C63 2.882 . S
U46 O64 2.441 . S
U46 O65 2.420 . S
U46 O66 2.455 . S
U46 O67 2.449 . S
O47 U46 2.454 . S
O47 C49 1.353 . S
O48 U46 2.458 . S
O48 C49 1.286 . S
C49 U46 2.984 . S
C49 O47 1.353 . S
C49 O48 1.286 . S
C49 C51 1.363 . S
C50 C40 1.465 . S
C50 U46 2.847 . S
C50 O64 1.249 . S
C50 O65 1.202 . S
C51 C49 1.363 . S
C51 C53 1.408 . S
C51 C56 1.342 . S
C52 C53 1.310 . S
C52 C55 1.461 . S
C52 H72 0.932 . S
C53 C51 1.408 . S
C53 C52 1.310 . S
C53 H73 0.930 . S
C54 C55 1.474 . S
C54 C56 1.285 . S
C54 H74 0.929 . S
C55 C52 1.461 . S
C55 C54 1.474 . S
C56 C51 1.342 . S
C56 C54 1.285 . S
C56 H75 0.930 . S
C57 C60 1.424 . S
C57 C62 1.245 . S
C57 C63 1.428 . S
C58 C61 1.260 . S
C58 C62 1.477 . S
C58 H76 0.932 . S
C59 C60 1.384 . S
C59 C61 1.479 . S
C59 H77 0.929 . S
C60 C57 1.424 . S
C60 C59 1.384 . S
C60 H78 0.928 . S
C61 C58 1.260 . S
C61 C59 1.479 . S
C62 C57 1.245 . S
C62 C58 1.477 . S
C62 H79 0.932 . S
C63 U46 2.882 . S
C63 C57 1.428 . S
C63 O66 1.301 . S
C63 O67 1.282 . S
O64 U46 2.441 . S
O64 C50 1.249 . S
O65 U46 2.420 . S
O65 C50 1.202 . S
O66 U46 2.455 . S
O66 C63 1.301 . S
O67 U46 2.449 . S
O67 C63 1.282 . S
H68 C41 0.931 . S
H69 C43 0.929 . S
H70 C44 0.930 . S
H71 C45 0.931 . S
H72 C52 0.932 . S
H73 C53 0.930 . S
H74 C54 0.929 . S
H75 C56 0.930 . S
H76 C58 0.932 . S
H77 C59 0.929 . S
H78 C60 0.928 . S
H79 C62 0.932 . S
C80 C81 1.264 . S
C80 C85 1.479 . S
C80 C90 1.465 . S
C81 C80 1.264 . S
C81 C83 1.339 . S
C81 H108 0.931 . S
C82 C83 1.395 . S
C82 C84 1.320 . S
C83 C81 1.339 . S
C83 C82 1.395 . S
C83 H109 0.929 . S
C84 C82 1.320 . S
C84 C85 1.405 . S
C84 H110 0.930 . S
C85 C80 1.479 . S
C85 C84 1.405 . S
C85 H111 0.931 . S
U86 O87 2.454 . S
U86 O88 2.458 1_554 S
U86 C89 2.984 . S
U86 C90 2.847 . S
U86 C103 2.882 1_554 S
U86 O104 2.441 . S
U86 O105 2.420 . S
U86 O106 2.455 1_554 S
U86 O107 2.449 1_554 S
O87 U86 2.454 . S
O87 C89 1.353 . S
O88 U86 2.458 1_556 S
O88 C89 1.286 1_556 S
C89 U86 2.984 . S
C89 O87 1.353 . S
C89 O88 1.286 1_554 S
C89 C91 1.363 . S
C90 C80 1.465 . S
C90 U86 2.847 . S
C90 O104 1.249 . S
C90 O105 1.202 . S
C91 C89 1.363 . S
C91 C93 1.408 . S
C91 C96 1.342 1_554 S
C92 C93 1.310 . S
C92 C95 1.461 1_554 S
C92 H112 0.932 . S
C93 C91 1.408 . S
C93 C92 1.310 . S
C93 H113 0.930 . S
C94 C95 1.474 . S
C94 C96 1.285 . S
C94 H114 0.929 . S
C95 C92 1.461 1_556 S
C95 C94 1.474 . S
C96 C91 1.342 1_556 S
C96 C94 1.285 . S
C96 H115 0.930 . S
C97 C100 1.424 . S
C97 C102 1.245 . S
C97 C103 1.428 . S
C98 C101 1.260 . S
C98 C102 1.477 . S
C98 H116 0.932 . S
C99 C100 1.384 . S
C99 C101 1.479 . S
C99 H117 0.929 . S
C100 C97 1.424 . S
C100 C99 1.384 . S
C100 H118 0.928 . S
C101 C98 1.260 . S
C101 C99 1.479 . S
C102 C97 1.245 . S
C102 C98 1.477 . S
C102 H119 0.932 . S
C103 U86 2.882 1_556 S
C103 C97 1.428 . S
C103 O106 1.301 . S
C103 O107 1.282 . S
O104 U86 2.441 . S
O104 C90 1.249 . S
O105 U86 2.420 . S
O105 C90 1.202 . S
O106 U86 2.455 1_556 S
O106 C103 1.301 . S
O107 U86 2.449 1_556 S
O107 C103 1.282 . S
H108 C81 0.931 . S
H109 C83 0.929 . S
H110 C84 0.930 . S
H111 C85 0.931 . S
H112 C92 0.932 . S
H113 C93 0.930 . S
H114 C94 0.929 . S
H115 C96 0.930 . S
H116 C98 0.932 . S
H117 C99 0.929 . S
H118 C100 0.928 . S
H119 C102 0.932 . S
C120 C121 1.264 . S
C120 C125 1.479 . S
C120 C130 1.465 . S
C121 C120 1.264 . S
C121 C123 1.339 . S
C121 H148 0.931 . S
C122 C123 1.395 . S
C122 C124 1.320 . S
C123 C121 1.339 . S
C123 C122 1.395 . S
C123 H149 0.929 . S
C124 C122 1.320 . S
C124 C125 1.405 . S
C124 H150 0.930 . S
C125 C120 1.479 . S
C125 C124 1.405 . S
C125 H151 0.931 . S
U126 O127 2.454 . S
U126 O128 2.458 . S
U126 C129 2.984 . S
U126 C130 2.847 . S
U126 C143 2.882 . S
U126 O144 2.441 . S
U126 O145 2.420 . S
U126 O146 2.455 . S
U126 O147 2.449 . S
O127 U126 2.454 . S
O127 C129 1.353 . S
O128 U126 2.458 . S
O128 C129 1.286 . S
C129 U126 2.984 . S
C129 O127 1.353 . S
C129 O128 1.286 . S
C129 C131 1.363 . S
C130 C120 1.465 . S
C130 U126 2.847 . S
C130 O144 1.249 . S
C130 O145 1.202 . S
C131 C129 1.363 . S
C131 C133 1.408 . S
C131 C136 1.342 . S
C132 C133 1.310 . S
C132 C135 1.461 . S
C132 H152 0.932 . S
C133 C131 1.408 . S
C133 C132 1.310 . S
C133 H153 0.930 . S
C134 C135 1.474 . S
C134 C136 1.285 . S
C134 H154 0.929 . S
C135 C132 1.461 . S
C135 C134 1.474 . S
C136 C131 1.342 . S
C136 C134 1.285 . S
C136 H155 0.930 . S
C137 C140 1.424 . S
C137 C142 1.245 . S
C137 C143 1.428 . S
C138 C141 1.260 . S
C138 C142 1.477 . S
C138 H156 0.932 . S
C139 C140 1.384 . S
C139 C141 1.479 . S
C139 H157 0.929 . S
C140 C137 1.424 . S
C140 C139 1.384 . S
C140 H158 0.928 . S
C141 C138 1.260 . S
C141 C139 1.479 . S
C142 C137 1.245 . S
C142 C138 1.477 . S
C142 H159 0.932 . S
C143 U126 2.882 . S
C143 C137 1.428 . S
C143 O146 1.301 . S
C143 O147 1.282 . S
O144 U126 2.441 . S
O144 C130 1.249 . S
O145 U126 2.420 . S
O145 C130 1.202 . S
O146 U126 2.455 . S
O146 C143 1.301 . S
O147 U126 2.449 . S
O147 C143 1.282 . S
H148 C121 0.931 . S
H149 C123 0.929 . S
H150 C124 0.930 . S
H151 C125 0.931 . S
H152 C132 0.932 . S
H153 C133 0.930 . S
H154 C134 0.929 . S
H155 C136 0.930 . S
H156 C138 0.932 . S
H157 C139 0.929 . S
H158 C140 0.928 . S
H159 C142 0.932 . S
Eu160 N189 2.600 . S
Eu160 N195 2.562 . S
Eu160 O204 2.462 . S
Eu160 O205 2.373 . S
Eu160 O207 2.432 . S
Eu160 O208 2.291 1_565 S
Eu160 O212 2.336 1_455 S
Eu160 O215 2.372 1_455 S
Eu160 C224 2.787 . S
C161 N162 1.365 . S
C161 C164 1.405 . S
C161 C168 1.448 . S
N162 C161 1.365 . S
N162 C165 1.319 1_655 S
N162 Eu171 2.600 . S
C163 C165 1.397 . S
C163 C166 1.367 1_455 S
C163 H183 0.931 . S
C164 C161 1.405 . S
C164 C166 1.403 . S
C164 C170 1.439 . S
C165 N162 1.319 1_455 S
C165 C163 1.397 . S
C165 H176 0.930 . S
C166 C163 1.367 1_655 S
C166 C164 1.403 . S
C166 H187 0.929 . S
C167 C168 1.430 . S
C167 C169 1.387 . S
C167 C173 1.404 . S
C168 C161 1.448 . S
C168 C167 1.430 . S
C168 N172 1.351 . S
C169 C167 1.387 . S
C169 C170 1.374 . S
C169 H184 0.931 . S
C170 C164 1.439 . S
C170 C169 1.374 . S
C170 H185 0.931 . S
Eu171 N162 2.600 . S
Eu171 N172 2.562 . S
Eu171 O206 2.335 1_655 S
Eu171 O209 2.372 1_655 S
Eu171 O210 2.462 . S
Eu171 O211 2.373 . S
Eu171 O213 2.432 . S
Eu171 O214 2.291 1_545 S
Eu171 C235 2.787 . S
N172 C168 1.351 . S
N172 Eu171 2.562 . S
N172 C174 1.325 . S
C173 C167 1.404 . S
C173 C175 1.366 . S
C173 H181 0.930 . S
C174 N172 1.325 . S
C174 C175 1.416 . S
C174 H180 0.929 . S
C175 C173 1.366 . S
C175 C174 1.416 . S
C175 H177 0.930 . S
H176 C165 0.930 . S
H177 C175 0.930 . S
H178 C193 0.930 1_655 S
H179 C200 0.930 . S
H180 C174 0.929 . S
H181 C173 0.930 . S
H182 C196 0.929 . S
H183 C163 0.931 . S
H184 C169 0.931 . S
H185 C170 0.931 . S
H186 C191 0.931 1_655 S
H187 C166 0.929 . S
H188 C199 0.930 . S
N189 Eu160 2.600 . S
N189 C190 1.365 . S
N189 C193 1.319 . S
C190 N189 1.365 . S
C190 C192 1.405 . S
C190 C198 1.448 . S
C191 H186 0.931 1_455 S
C191 C193 1.397 . S
C191 C194 1.367 . S
C192 C190 1.405 . S
C192 C194 1.403 . S
C192 C225 1.439 . S
C193 H178 0.930 1_455 S
C193 N189 1.319 . S
C193 C191 1.397 . S
C194 C191 1.367 . S
C194 C192 1.403 . S
C194 H201 0.929 . S
N195 Eu160 2.562 . S
N195 C196 1.325 . S
N195 C198 1.351 . S
C196 H182 0.929 . S
C196 N195 1.325 . S
C196 C200 1.416 . S
C197 C198 1.430 . S
C197 C199 1.404 . S
C197 C226 1.387 . S
C198 C190 1.448 . S
C198 N195 1.351 . S
C198 C197 1.430 . S
C199 H188 0.930 . S
C199 C197 1.404 . S
C199 C200 1.366 . S
C200 H179 0.930 . S
C200 C196 1.416 . S
C200 C199 1.366 . S
H201 C194 0.929 . S
H202 C225 0.931 . S
H203 C226 0.931 . S
O204 Eu160 2.462 . S
O204 C224 1.252 . S
O205 Eu160 2.373 . S
O205 C216 1.249 . S
O206 Eu171 2.335 1_455 S
O206 C216 1.264 1_545 S
O207 Eu160 2.432 . S
O207 C224 1.268 . S
O208 Eu160 2.291 1_545 S
O208 C223 1.255 . S
O209 Eu171 2.372 1_455 S
O209 C223 1.257 . S
O210 Eu171 2.462 . S
O210 C235 1.252 . S
O211 Eu171 2.373 . S
O211 C227 1.249 . S
O212 Eu160 2.336 1_655 S
O212 C227 1.262 1_565 S
O213 Eu171 2.432 . S
O213 C235 1.268 . S
O214 Eu171 2.291 1_565 S
O214 C234 1.255 . S
O215 Eu160 2.372 1_655 S
O215 C234 1.257 . S
C216 O205 1.249 . S
C216 O206 1.264 1_565 S
C217 C220 1.382 . S
C217 C222 1.390 . S
C217 C224 1.506 . S
C218 C219 1.398 . S
C218 C222 1.392 . S
C219 C218 1.398 . S
C219 C221 1.372 . S
C219 H236 0.931 . S
C220 C217 1.382 . S
C220 C221 1.390 . S
C220 H237 0.931 . S
C221 C219 1.372 . S
C221 C220 1.390 . S
C221 H238 0.929 . S
C222 C217 1.390 . S
C222 C218 1.392 . S
C222 H239 0.930 . S
C223 O208 1.255 . S
C223 O209 1.257 . S
C224 Eu160 2.787 . S
C224 O204 1.252 . S
C224 O207 1.268 . S
C224 C217 1.506 . S
C225 C192 1.439 . S
C225 H202 0.931 . S
C225 C226 1.374 . S
C226 C197 1.387 . S
C226 H203 0.931 . S
C226 C225 1.374 . S
C227 O211 1.249 . S
C227 O212 1.262 1_545 S
C228 C231 1.382 . S
C228 C232 1.390 . S
C228 C235 1.506 . S
C229 C230 1.398 . S
C229 C232 1.392 . S
C230 C229 1.398 . S
C230 C233 1.372 . S
C230 H240 0.931 . S
C231 C228 1.382 . S
C231 C233 1.390 . S
C231 H241 0.931 . S
C232 C228 1.390 . S
C232 C229 1.392 . S
C232 H242 0.930 . S
C233 C230 1.372 . S
C233 C231 1.390 . S
C233 H243 0.929 . S
C234 O214 1.255 . S
C234 O215 1.257 . S
C235 Eu171 2.787 . S
C235 O210 1.252 . S
C235 O213 1.268 . S
C235 C228 1.506 . S
H236 C219 0.931 . S
H237 C220 0.931 . S
H238 C221 0.929 . S
H239 C222 0.930 . S
H240 C230 0.931 . S
H241 C231 0.931 . S
H242 C232 0.930 . S
H243 C233 0.929 . S
Eu244 N273 2.600 . S
Eu244 N279 2.559 1_556 S
Eu244 O288 2.462 . S
Eu244 O289 2.373 1_556 S
Eu244 O291 2.432 . S
Eu244 O292 2.291 1_556 S
Eu244 O296 2.335 . S
Eu244 O299 2.372 . S
Eu244 C308 2.787 . S
C245 N246 1.365 . S
C245 C248 1.405 . S
C245 C252 1.448 . S
N246 C245 1.365 . S
N246 C249 1.319 . S
N246 Eu255 2.600 . S
C247 C249 1.397 . S
C247 C250 1.367 . S
C247 H267 0.931 . S
C248 C245 1.405 . S
C248 C250 1.403 . S
C248 C254 1.439 . S
C249 N246 1.319 . S
C249 C247 1.397 . S
C249 H260 0.930 . S
C250 C247 1.367 . S
C250 C248 1.403 . S
C250 H271 0.929 . S
C251 C252 1.430 . S
C251 C253 1.387 . S
C251 C257 1.404 . S
C252 C245 1.448 . S
C252 C251 1.430 . S
C252 N256 1.351 . S
C253 C251 1.387 . S
C253 C254 1.374 . S
C253 H268 0.931 . S
C254 C248 1.439 . S
C254 C253 1.374 . S
C254 H269 0.931 . S
Eu255 N246 2.600 . S
Eu255 N256 2.562 . S
Eu255 O290 2.335 . S
Eu255 O293 2.372 . S
Eu255 O294 2.462 . S
Eu255 O295 2.373 1_554 S
Eu255 O297 2.432 . S
Eu255 O298 2.291 . S
Eu255 C319 2.787 . S
N256 C252 1.351 . S
N256 Eu255 2.562 . S
N256 C258 1.325 . S
C257 C251 1.404 . S
C257 C259 1.366 . S
C257 H265 0.938 . S
C258 N256 1.325 . S
C258 C259 1.416 . S
C258 H264 0.929 . S
C259 C257 1.366 . S
C259 C258 1.416 . S
C259 H261 0.930 . S
H260 C249 0.930 . S
H261 C259 0.930 . S
H262 C277 0.930 . S
H263 C284 0.930 . S
H264 C258 0.929 . S
H265 C257 0.938 . S
H266 C280 0.929 . S
H267 C247 0.931 . S
H268 C253 0.931 . S
H269 C254 0.931 . S
H270 C275 0.931 . S
H271 C250 0.929 . S
H272 C283 0.930 . S
N273 Eu244 2.600 . S
N273 C274 1.365 1_556 S
N273 C277 1.319 . S
C274 N273 1.365 1_554 S
C274 C276 1.405 . S
C274 C282 1.448 . S
C275 H270 0.931 . S
C275 C277 1.397 . S
C275 C278 1.367 1_556 S
C276 C274 1.405 . S
C276 C278 1.403 . S
C276 C309 1.439 . S
C277 H262 0.930 . S
C277 N273 1.319 . S
C277 C275 1.397 . S
C278 C275 1.367 1_554 S
C278 C276 1.403 . S
C278 H285 0.929 . S
N279 Eu244 2.559 1_554 S
N279 C280 1.324 . S
N279 C282 1.357 . S
C280 H266 0.929 . S
C280 N279 1.324 . S
C280 C284 1.416 . S
C281 C282 1.430 . S
C281 C283 1.404 . S
C281 C310 1.387 . S
C282 C274 1.448 . S
C282 N279 1.357 . S
C282 C281 1.430 . S
C283 H272 0.930 . S
C283 C281 1.404 . S
C283 C284 1.366 . S
C284 H263 0.930 . S
C284 C280 1.416 . S
C284 C283 1.366 . S
H285 C278 0.929 . S
H286 C309 0.931 . S
H287 C310 0.931 . S
O288 Eu244 2.462 . S
O288 C308 1.252 . S
O289 Eu244 2.373 1_554 S
O289 C300 1.249 . S
O290 Eu255 2.335 . S
O290 C300 1.264 . S
O291 Eu244 2.432 . S
O291 C308 1.268 . S
O292 Eu244 2.291 1_554 S
O292 C307 1.255 . S
O293 Eu255 2.372 . S
O293 C307 1.257 . S
O294 Eu255 2.462 . S
O294 C319 1.252 . S
O295 Eu255 2.373 1_556 S
O295 C311 1.249 . S
O296 Eu244 2.335 . S
O296 C311 1.264 . S
O297 Eu255 2.432 . S
O297 C319 1.268 . S
O298 Eu255 2.291 . S
O298 C318 1.255 . S
O299 Eu244 2.372 . S
O299 C318 1.257 1_556 S
C300 O289 1.249 . S
C300 O290 1.264 . S
C301 C304 1.382 . S
C301 C306 1.390 . S
C301 C308 1.506 . S
C302 C303 1.398 . S
C302 C306 1.392 . S
C303 C302 1.398 . S
C303 C305 1.372 . S
C303 H320 0.931 . S
C304 C301 1.382 . S
C304 C305 1.390 . S
C304 H321 0.931 . S
C305 C303 1.372 . S
C305 C304 1.390 . S
C305 H322 0.929 . S
C306 C301 1.390 . S
C306 C302 1.392 . S
C306 H323 0.930 . S
C307 O292 1.255 . S
C307 O293 1.257 . S
C308 Eu244 2.787 . S
C308 O288 1.252 . S
C308 O291 1.268 . S
C308 C301 1.506 . S
C309 C276 1.439 . S
C309 H286 0.931 . S
C309 C310 1.374 . S
C310 C281 1.387 . S
C310 H287 0.931 . S
C310 C309 1.374 . S
C311 O295 1.249 . S
C311 O296 1.264 . S
C312 C315 1.382 . S
C312 C316 1.390 . S
C312 C319 1.506 . S
C313 C314 1.398 . S
C313 C316 1.392 . S
C314 C313 1.398 . S
C314 C317 1.372 . S
C314 H324 0.931 . S
C315 C312 1.382 . S
C315 C317 1.390 . S
C315 H325 0.931 . S
C316 C312 1.390 . S
C316 C313 1.392 . S
C316 H326 0.930 . S
C317 C314 1.372 . S
C317 C315 1.390 . S
C317 H327 0.929 . S
C318 O298 1.255 . S
C318 O299 1.257 1_554 S
C319 Eu255 2.787 . S
C319 O294 1.252 . S
C319 O297 1.268 . S
C319 C312 1.506 . S
H320 C303 0.931 . S
H321 C304 0.931 . S
H322 C305 0.929 . S
H323 C306 0.930 . S
H324 C314 0.931 . S
H325 C315 0.931 . S
H326 C316 0.930 . S
H327 C317 0.929 . S
H328 C336 0.929 . S
H329 C338 0.930 . S
H330 C340 0.930 . S
H331 C343 0.929 . S
H332 C346 0.930 . S
H333 C348 0.960 . S
H334 C348 0.960 . S
H335 C348 0.960 . S
C336 H328 0.929 . S
C336 C337 1.377 . S
C336 C338 1.384 . S
C337 C336 1.377 . S
C337 C343 1.390 . S
C338 H329 0.930 . S
C338 C336 1.384 . S
C338 C339 1.372 . S
C339 C338 1.372 . S
C339 C340 1.400 . S
C339 C344 1.490 . S
C340 H330 0.930 . S
C340 C339 1.400 . S
C340 C343 1.386 . S
H341 C357 0.930 . S
H342 C358 0.931 . S
C343 H331 0.929 . S
C343 C337 1.390 . S
C343 C340 1.386 . S
C344 C339 1.490 . S
C344 C346 1.395 . S
C344 C347 1.403 . S
H345 C351 0.930 . S
C346 H332 0.930 . S
C346 C344 1.395 . S
C346 C349 1.403 . S
C347 C344 1.403 . S
C347 C348 1.524 . S
C347 C351 1.400 . S
C348 H333 0.960 . S
C348 H334 0.960 . S
C348 H335 0.960 . S
C348 C347 1.524 . S
C349 C346 1.403 . S
C349 C350 1.392 . S
C349 C353 1.495 . S
C350 C349 1.392 . S
C350 C351 1.385 . S
C350 C352 1.478 . S
C351 H345 0.930 . S
C351 C347 1.400 . S
C351 C350 1.385 . S
C352 C350 1.478 . S
C352 C354 1.381 . S
C352 C358 1.383 . S
C353 C349 1.495 . S
C353 H359 0.959 . S
C353 H360 0.961 . S
C353 H361 0.960 . S
C354 C352 1.381 . S
C354 C355 1.394 . S
C354 H362 0.930 . S
C355 C354 1.394 . S
C355 C356 1.383 . S
C355 H363 0.929 . S
C356 C355 1.383 . S
C356 C357 1.377 . S
C357 H341 0.930 . S
C357 C356 1.377 . S
C357 C358 1.379 . S
C358 H342 0.931 . S
C358 C352 1.383 . S
C358 C357 1.379 . S
H359 C353 0.959 . S
H360 C353 0.961 . S
H361 C353 0.960 . S
H362 C354 0.930 . S
H363 C355 0.929 . S
H364 C372 0.929 . S
H365 C374 0.930 . S
H366 C376 0.930 1_556 S
H367 C379 0.929 1_556 S
H368 C382 0.930 . S
H369 C384 0.960 . S
H370 C384 0.960 . S
H371 C384 0.960 . S
C372 H364 0.929 . S
C372 C373 1.377 . S
C372 C374 1.384 . S
C373 C372 1.377 . S
C373 C379 1.390 . S
C374 H365 0.930 . S
C374 C372 1.384 . S
C374 C375 1.372 . S
C375 C374 1.372 . S
C375 C376 1.400 . S
C375 C380 1.490 . S
C376 H366 0.930 1_554 S
C376 C375 1.400 . S
C376 C379 1.386 . S
H377 C393 0.930 . S
H378 C394 0.952 . S
C379 H367 0.929 1_554 S
C379 C373 1.390 . S
C379 C376 1.386 . S
C380 C375 1.490 . S
C380 C382 1.395 . S
C380 C383 1.403 . S
H381 C387 0.930 . S
C382 H368 0.930 . S
C382 C380 1.395 . S
C382 C385 1.403 . S
C383 C380 1.403 . S
C383 C384 1.524 . S
C383 C387 1.400 . S
C384 H369 0.960 . S
C384 H370 0.960 . S
C384 H371 0.960 . S
C384 C383 1.524 . S
C385 C382 1.403 . S
C385 C386 1.392 . S
C385 C389 1.495 . S
C386 C385 1.392 . S
C386 C387 1.385 . S
C386 C388 1.478 . S
C387 H381 0.930 . S
C387 C383 1.400 . S
C387 C386 1.385 . S
C388 C386 1.478 . S
C388 C390 1.381 . S
C388 C394 1.354 1_554 S
C389 C385 1.495 . S
C389 H395 0.959 . S
C389 H396 0.987 . S
C389 H397 0.960 . S
C390 C388 1.381 . S
C390 C391 1.394 . S
C390 H398 0.930 . S
C391 C390 1.394 . S
C391 C392 1.383 . S
C391 H399 0.929 . S
C392 C391 1.383 . S
C392 C393 1.377 1_554 S
C393 H377 0.930 . S
C393 C392 1.377 1_556 S
C393 C394 1.388 . S
C394 H378 0.952 . S
C394 C388 1.354 1_556 S
C394 C393 1.388 . S
H395 C389 0.959 . S
H396 C389 0.987 . S
H397 C389 0.960 . S
H398 C390 0.930 . S
H399 C391 0.929 . S
H400 C408 0.929 . S
H401 C410 0.930 . S
H402 C412 0.930 . S
H403 C415 0.929 . S
H404 C418 0.930 . S
H405 C420 0.960 . S
H406 C420 0.960 . S
H407 C420 0.960 . S
C408 H400 0.929 . S
C408 C409 1.377 . S
C408 C410 1.384 . S
C409 C408 1.377 . S
C409 C415 1.390 . S
C410 H401 0.930 . S
C410 C408 1.384 . S
C410 C411 1.372 . S
C411 C410 1.372 . S
C411 C412 1.400 . S
C411 C416 1.490 . S
C412 H402 0.930 . S
C412 C411 1.400 . S
C412 C415 1.386 . S
H413 C429 0.930 . S
H414 C430 0.931 . S
C415 H403 0.929 . S
C415 C409 1.390 . S
C415 C412 1.386 . S
C416 C411 1.490 . S
C416 C418 1.395 . S
C416 C419 1.403 . S
H417 C423 0.930 . S
C418 H404 0.930 . S
C418 C416 1.395 . S
C418 C421 1.403 . S
C419 C416 1.403 . S
C419 C420 1.524 . S
C419 C423 1.400 . S
C420 H405 0.960 . S
C420 H406 0.960 . S
C420 H407 0.960 . S
C420 C419 1.524 . S
C421 C418 1.403 . S
C421 C422 1.392 . S
C421 C425 1.495 . S
C422 C421 1.392 . S
C422 C423 1.385 . S
C422 C424 1.478 . S
C423 H417 0.930 . S
C423 C419 1.400 . S
C423 C422 1.385 . S
C424 C422 1.478 . S
C424 C426 1.381 . S
C424 C430 1.383 . S
C425 C421 1.495 . S
C425 H431 0.959 . S
C425 H432 0.961 . S
C425 H433 0.960 . S
C426 C424 1.381 . S
C426 C427 1.394 . S
C426 H434 0.930 . S
C427 C426 1.394 . S
C427 C428 1.383 . S
C427 H435 0.929 . S
C428 C427 1.383 . S
C428 C429 1.377 . S
C429 H413 0.930 . S
C429 C428 1.377 . S
C429 C430 1.379 . S
C430 H414 0.931 . S
C430 C424 1.383 . S
C430 C429 1.379 . S
H431 C425 0.959 . S
H432 C425 0.961 . S
H433 C425 0.960 . S
H434 C426 0.930 . S
H435 C427 0.929 . S
H436 C444 0.929 . S
H437 C446 0.930 . S
H438 C448 0.930 . S
H439 C451 0.929 . S
H440 C454 0.930 . S
H441 C456 0.960 . S
H442 C456 0.960 . S
H443 C456 0.960 1_556 S
C444 H436 0.929 . S
C444 C445 1.377 1_554 S
C444 C446 1.384 . S
C445 C444 1.377 1_556 S
C445 C451 1.390 . S
C446 H437 0.930 . S
C446 C444 1.384 . S
C446 C447 1.386 . S
C447 C446 1.386 . S
C447 C448 1.377 1_554 S
C447 C452 1.498 . S
C448 H438 0.930 . S
C448 C447 1.377 1_556 S
C448 C451 1.386 . S
H449 C465 0.930 . S
H450 C466 0.931 . S
C451 H439 0.929 . S
C451 C445 1.390 . S
C451 C448 1.386 . S
C452 C447 1.498 . S
C452 C454 1.395 1_554 S
C452 C455 1.403 . S
H453 C459 0.930 . S
C454 H440 0.930 . S
C454 C452 1.395 1_556 S
C454 C457 1.409 . S
C455 C452 1.403 . S
C455 C456 1.524 . S
C455 C459 1.400 . S
C456 H441 0.960 . S
C456 H442 0.960 . S
C456 H443 0.960 1_554 S
C456 C455 1.524 . S
C457 C454 1.409 . S
C457 C458 1.384 1_556 S
C457 C461 1.499 . S
C458 C457 1.384 1_554 S
C458 C459 1.385 . S
C458 C460 1.478 . S
C459 H453 0.930 . S
C459 C455 1.400 . S
C459 C458 1.385 . S
C460 C458 1.478 . S
C460 C462 1.381 . S
C460 C466 1.383 1_554 S
C461 C457 1.499 . S
C461 H467 0.959 . S
C461 H468 0.961 . S
C461 H469 0.960 1_556 S
C462 C460 1.381 . S
C462 C463 1.394 . S
C462 H470 0.930 . S
C463 C462 1.394 . S
C463 C464 1.383 . S
C463 H471 0.929 . S
C464 C463 1.383 . S
C464 C465 1.377 1_554 S
C465 H449 0.930 . S
C465 C464 1.377 1_556 S
C465 C466 1.379 . S
C466 H450 0.931 . S
C466 C460 1.383 1_556 S
C466 C465 1.379 . S
H467 C461 0.959 . S
H468 C461 0.961 . S
H469 C461 0.960 1_554 S
H470 C462 0.930 . S
H471 C463 0.929 . S
H472 C480 0.929 . S
H473 C482 0.930 . S
H474 C484 0.930 . S
H475 C487 0.929 . S
H476 C490 0.930 . S
H477 C492 0.960 . S
H478 C492 0.960 . S
H479 C492 0.960 . S
C480 H472 0.929 . S
C480 C481 1.377 . S
C480 C482 1.384 . S
C481 C480 1.377 . S
C481 C487 1.390 . S
C482 H473 0.930 . S
C482 C480 1.384 . S
C482 C483 1.372 . S
C483 C482 1.372 . S
C483 C484 1.400 . S
C483 C488 1.490 . S
C484 H474 0.930 . S
C484 C483 1.400 . S
C484 C487 1.386 . S
H485 C501 0.930 1_545 S
H486 C502 0.931 . S
C487 H475 0.929 . S
C487 C481 1.390 . S
C487 C484 1.386 . S
C488 C483 1.490 . S
C488 C490 1.395 . S
C488 C491 1.403 . S
H489 C495 0.930 . S
C490 H476 0.930 . S
C490 C488 1.395 . S
C490 C493 1.403 . S
C491 C488 1.403 . S
C491 C492 1.524 . S
C491 C495 1.400 . S
C492 H477 0.960 . S
C492 H478 0.960 . S
C492 H479 0.960 . S
C492 C491 1.524 . S
C493 C490 1.403 . S
C493 C494 1.392 . S
C493 C497 1.495 . S
C494 C493 1.392 . S
C494 C495 1.385 . S
C494 C496 1.478 . S
C495 H489 0.930 . S
C495 C491 1.400 . S
C495 C494 1.385 . S
C496 C494 1.478 . S
C496 C498 1.381 . S
C496 C502 1.383 . S
C497 C493 1.495 . S
C497 H503 0.959 . S
C497 H504 0.961 . S
C497 H505 0.960 . S
C498 C496 1.381 . S
C498 C499 1.394 . S
C498 H506 0.930 . S
C499 C498 1.394 . S
C499 C500 1.383 . S
C499 H507 0.929 . S
C500 C499 1.383 . S
C500 C501 1.377 . S
C501 H485 0.930 1_565 S
C501 C500 1.377 . S
C501 C502 1.379 . S
C502 H486 0.931 . S
C502 C496 1.383 . S
C502 C501 1.379 . S
H503 C497 0.959 . S
H504 C497 0.961 . S
H505 C497 0.960 . S
H506 C498 0.930 . S
H507 C499 0.929 . S
H508 C516 0.929 . S
H509 C518 0.930 . S
H510 C520 0.930 . S
H511 C523 0.929 . S
H512 C526 0.930 . S
H513 C528 0.960 . S
H514 C528 0.960 . S
H515 C528 0.960 . S
C516 H508 0.929 . S
C516 C517 1.377 . S
C516 C518 1.384 . S
C517 C516 1.377 . S
C517 C523 1.390 . S
C518 H509 0.930 . S
C518 C516 1.384 . S
C518 C519 1.372 . S
C519 C518 1.372 . S
C519 C520 1.400 . S
C519 C524 1.490 . S
C520 H510 0.930 . S
C520 C519 1.400 . S
C520 C523 1.386 . S
H521 C537 0.930 . S
H522 C538 0.931 . S
C523 H511 0.929 . S
C523 C517 1.390 . S
C523 C520 1.386 . S
C524 C519 1.490 . S
C524 C526 1.395 . S
C524 C527 1.403 . S
H525 C531 0.930 . S
C526 H512 0.930 . S
C526 C524 1.395 . S
C526 C529 1.403 . S
C527 C524 1.403 . S
C527 C528 1.524 . S
C527 C531 1.400 . S
C528 H513 0.960 . S
C528 H514 0.960 . S
C528 H515 0.960 . S
C528 C527 1.524 . S
C529 C526 1.403 . S
C529 C530 1.392 . S
C529 C533 1.495 . S
C530 C529 1.392 . S
C530 C531 1.385 . S
C530 C532 1.478 . S
C531 H525 0.930 . S
C531 C527 1.400 . S
C531 C530 1.385 . S
C532 C530 1.478 . S
C532 C534 1.381 . S
C532 C538 1.383 . S
C533 C529 1.495 . S
C533 H539 0.959 . S
C533 H540 0.961 . S
C533 H541 0.960 . S
C534 C532 1.381 . S
C534 C535 1.394 . S
C534 H542 0.930 . S
C535 C534 1.394 . S
C535 C536 1.383 . S
C535 H543 0.929 . S
C536 C535 1.383 . S
C536 C537 1.377 . S
C537 H521 0.930 . S
C537 C536 1.377 . S
C537 C538 1.379 . S
C538 H522 0.931 . S
C538 C532 1.383 . S
C538 C537 1.379 . S
H539 C533 0.959 . S
H540 C533 0.961 . S
H541 C533 0.960 . S
H542 C534 0.930 . S
H543 C535 0.929 . S
H544 C552 0.929 . S
H545 C554 0.930 . S
H546 C556 0.930 . S
H547 C559 0.929 . S
H548 C562 0.930 . S
H549 C564 0.960 . S
H550 C564 0.960 . S
H551 C564 0.960 . S
C552 H544 0.929 . S
C552 C553 1.377 . S
C552 C554 1.384 . S
C553 C552 1.377 . S
C553 C559 1.390 . S
C554 H545 0.930 . S
C554 C552 1.384 . S
C554 C555 1.372 . S
C555 C554 1.372 . S
C555 C556 1.400 . S
C555 C560 1.490 . S
C556 H546 0.930 . S
C556 C555 1.400 . S
C556 C559 1.386 . S
H557 C573 0.930 1_565 S
H558 C574 0.931 . S
C559 H547 0.929 . S
C559 C553 1.390 . S
C559 C556 1.386 . S
C560 C555 1.490 . S
C560 C562 1.395 . S
C560 C563 1.403 . S
H561 C567 0.930 . S
C562 H548 0.930 . S
C562 C560 1.395 . S
C562 C565 1.403 . S
C563 C560 1.403 . S
C563 C564 1.524 . S
C563 C567 1.400 . S
C564 H549 0.960 . S
C564 H550 0.960 . S
C564 H551 0.960 . S
C564 C563 1.524 . S
C565 C562 1.403 . S
C565 C566 1.392 . S
C565 C569 1.495 . S
C566 C565 1.392 . S
C566 C567 1.385 . S
C566 C568 1.478 . S
C567 H561 0.930 . S
C567 C563 1.400 . S
C567 C566 1.385 . S
C568 C566 1.478 . S
C568 C570 1.381 . S
C568 C574 1.383 . S
C569 C565 1.495 . S
C569 H575 0.959 . S
C569 H576 0.961 . S
C569 H577 0.960 . S
C570 C568 1.381 . S
C570 C571 1.394 . S
C570 H578 0.930 . S
C571 C570 1.394 . S
C571 C572 1.383 . S
C571 H579 0.929 . S
C572 C571 1.383 . S
C572 C573 1.377 . S
C573 H557 0.930 1_545 S
C573 C572 1.377 . S
C573 C574 1.379 . S
C574 H558 0.931 . S
C574 C568 1.383 . S
C574 C573 1.379 . S
H575 C569 0.959 . S
H576 C569 0.961 . S
H577 C569 0.960 . S
H578 C570 0.930 . S
H579 C571 0.929 . S
H580 C588 0.929 . S
H581 C590 0.930 . S
H582 C592 0.930 . S
H583 C595 0.929 . S
H584 C598 0.930 . S
H585 C600 0.960 . S
H586 C600 0.960 . S
H587 C600 0.960 . S
C588 H580 0.929 . S
C588 C589 1.377 . S
C588 C590 1.384 . S
C589 C588 1.377 . S
C589 C595 1.390 . S
C590 H581 0.930 . S
C590 C588 1.384 . S
C590 C591 1.372 . S
C591 C590 1.372 . S
C591 C592 1.400 . S
C591 C596 1.490 . S
C592 H582 0.930 . S
C592 C591 1.400 . S
C592 C595 1.386 . S
H593 C609 0.930 . S
H594 C610 0.931 . S
C595 H583 0.929 . S
C595 C589 1.390 . S
C595 C592 1.386 . S
C596 C591 1.490 . S
C596 C598 1.395 . S
C596 C599 1.403 . S
H597 C603 0.930 . S
C598 H584 0.930 . S
C598 C596 1.395 . S
C598 C601 1.403 . S
C599 C596 1.403 . S
C599 C600 1.524 . S
C599 C603 1.400 . S
C600 H585 0.960 . S
C600 H586 0.960 . S
C600 H587 0.960 . S
C600 C599 1.524 . S
C601 C598 1.403 . S
C601 C602 1.392 . S
C601 C605 1.495 . S
C602 C601 1.392 . S
C602 C603 1.385 . S
C602 C604 1.478 . S
C603 H597 0.930 . S
C603 C599 1.400 . S
C603 C602 1.385 . S
C604 C602 1.478 . S
C604 C606 1.381 . S
C604 C610 1.383 . S
C605 C601 1.495 . S
C605 H611 0.959 . S
C605 H612 0.961 . S
C605 H613 0.960 . S
C606 C604 1.381 . S
C606 C607 1.394 . S
C606 H614 0.930 . S
C607 C606 1.394 . S
C607 C608 1.383 . S
C607 H615 0.929 . S
C608 C607 1.383 . S
C608 C609 1.377 . S
C609 H593 0.930 . S
C609 C608 1.377 . S
C609 C610 1.379 . S
C610 H594 0.931 . S
C610 C604 1.383 . S
C610 C609 1.379 . S
H611 C605 0.959 . S
H612 C605 0.961 . S
H613 C605 0.960 . S
H614 C606 0.930 . S
H615 C607 0.929 . S
H616 C624 0.929 . S
H617 C626 0.930 . S
H618 C628 0.930 . S
H619 C631 0.929 . S
H620 C634 0.930 . S
H621 C636 0.960 . S
H622 C636 0.960 . S
H623 C636 0.960 . S
C624 H616 0.929 . S
C624 C625 1.377 . S
C624 C626 1.384 . S
C625 C624 1.377 . S
C625 C631 1.390 . S
C626 H617 0.930 . S
C626 C624 1.384 . S
C626 C627 1.372 . S
C627 C626 1.372 . S
C627 C628 1.400 . S
C627 C632 1.490 . S
C628 H618 0.930 . S
C628 C627 1.400 . S
C628 C631 1.386 . S
H629 C645 0.930 . S
H630 C646 0.931 . S
C631 H619 0.929 . S
C631 C625 1.390 . S
C631 C628 1.386 . S
C632 C627 1.490 . S
C632 C634 1.395 . S
C632 C635 1.403 . S
H633 C639 0.930 . S
C634 H620 0.930 . S
C634 C632 1.395 . S
C634 C637 1.403 . S
C635 C632 1.403 . S
C635 C636 1.524 . S
C635 C639 1.400 . S
C636 H621 0.960 . S
C636 H622 0.960 . S
C636 H623 0.960 . S
C636 C635 1.524 . S
C637 C634 1.403 . S
C637 C638 1.392 . S
C637 C641 1.495 . S
C638 C637 1.392 . S
C638 C639 1.385 . S
C638 C640 1.478 . S
C639 H633 0.930 . S
C639 C635 1.400 . S
C639 C638 1.385 . S
C640 C638 1.478 . S
C640 C642 1.381 . S
C640 C646 1.383 . S
C641 C637 1.495 . S
C641 H647 0.959 . S
C641 H648 0.961 . S
C641 H649 0.960 . S
C642 C640 1.381 . S
C642 C643 1.394 . S
C642 H650 0.930 . S
C643 C642 1.394 . S
C643 C644 1.383 . S
C643 H651 0.929 . S
C644 C643 1.383 . S
C644 C645 1.377 . S
C645 H629 0.930 . S
C645 C644 1.377 . S
C645 C646 1.379 . S
C646 H630 0.931 . S
C646 C640 1.383 . S
C646 C645 1.379 . S
H647 C641 0.959 . S
H648 C641 0.961 . S
H649 C641 0.960 . S
H650 C642 0.930 . S
H651 C643 0.929 . S
H652 C660 0.929 . S
H653 C662 0.930 . S
H654 C664 0.930 . S
H655 C667 0.929 . S
H656 C670 0.930 . S
H657 C672 0.960 . S
H658 C672 0.960 . S
H659 C672 0.960 . S
C660 H652 0.929 . S
C660 C661 1.377 . S
C660 C662 1.384 . S
C661 C660 1.377 . S
C661 C667 1.390 . S
C662 H653 0.930 . S
C662 C660 1.384 . S
C662 C663 1.372 . S
C663 C662 1.372 . S
C663 C664 1.400 . S
C663 C668 1.490 . S
C664 H654 0.930 . S
C664 C663 1.400 . S
C664 C667 1.386 . S
H665 C681 0.930 . S
H666 C682 0.931 . S
C667 H655 0.929 . S
C667 C661 1.390 . S
C667 C664 1.386 . S
C668 C663 1.490 . S
C668 C670 1.395 . S
C668 C671 1.403 . S
H669 C675 0.930 . S
C670 H656 0.930 . S
C670 C668 1.395 . S
C670 C673 1.403 . S
C671 C668 1.403 . S
C671 C672 1.524 . S
C671 C675 1.400 . S
C672 H657 0.960 . S
C672 H658 0.960 . S
C672 H659 0.960 . S
C672 C671 1.524 . S
C673 C670 1.403 . S
C673 C674 1.392 . S
C673 C677 1.495 . S
C674 C673 1.392 . S
C674 C675 1.385 . S
C674 C676 1.478 . S
C675 H669 0.930 . S
C675 C671 1.400 . S
C675 C674 1.385 . S
C676 C674 1.478 . S
C676 C678 1.381 . S
C676 C682 1.383 . S
C677 C673 1.495 . S
C677 H683 0.959 . S
C677 H684 0.961 . S
C677 H685 0.960 . S
C678 C676 1.381 . S
C678 C679 1.394 . S
C678 H686 0.930 . S
C679 C678 1.394 . S
C679 C680 1.383 . S
C679 H687 0.929 . S
C680 C679 1.383 . S
C680 C681 1.377 . S
C681 H665 0.930 . S
C681 C680 1.377 . S
C681 C682 1.379 . S
C682 H666 0.931 . S
C682 C676 1.383 . S
C682 C681 1.379 . S
H683 C677 0.959 . S
H684 C677 0.961 . S
H685 C677 0.960 . S
H686 C678 0.930 . S
H687 C679 0.929 . S
H688 C696 0.929 . S
H689 C698 0.930 . S
H690 C700 0.930 . S
H691 C703 0.929 . S
H692 C706 0.930 . S
H693 C708 0.960 . S
H694 C708 0.960 . S
H695 C708 0.960 . S
C696 H688 0.929 . S
C696 C697 1.377 . S
C696 C698 1.384 . S
C697 C696 1.377 . S
C697 C703 1.390 . S
C698 H689 0.930 . S
C698 C696 1.384 . S
C698 C699 1.372 . S
C699 C698 1.372 . S
C699 C700 1.400 . S
C699 C704 1.490 . S
C700 H690 0.930 . S
C700 C699 1.400 . S
C700 C703 1.386 . S
H701 C717 0.930 . S
H702 C718 0.931 . S
C703 H691 0.929 . S
C703 C697 1.390 . S
C703 C700 1.386 . S
C704 C699 1.490 . S
C704 C706 1.395 . S
C704 C707 1.403 . S
H705 C711 0.930 . S
C706 H692 0.930 . S
C706 C704 1.395 . S
C706 C709 1.403 . S
C707 C704 1.403 . S
C707 C708 1.524 . S
C707 C711 1.400 . S
C708 H693 0.960 . S
C708 H694 0.960 . S
C708 H695 0.960 . S
C708 C707 1.524 . S
C709 C706 1.403 . S
C709 C710 1.392 . S
C709 C713 1.495 . S
C710 C709 1.392 . S
C710 C711 1.385 . S
C710 C712 1.478 . S
C711 H705 0.930 . S
C711 C707 1.400 . S
C711 C710 1.385 . S
C712 C710 1.478 . S
C712 C714 1.381 . S
C712 C718 1.383 . S
C713 C709 1.495 . S
C713 H719 0.959 . S
C713 H720 0.961 . S
C713 H721 0.960 . S
C714 C712 1.381 . S
C714 C715 1.394 . S
C714 H722 0.930 . S
C715 C714 1.394 . S
C715 C716 1.383 . S
C715 H723 0.929 . S
C716 C715 1.383 . S
C716 C717 1.377 . S
C717 H701 0.930 . S
C717 C716 1.377 . S
C717 C718 1.379 . S
C718 H702 0.931 . S
C718 C712 1.383 . S
C718 C717 1.379 . S
H719 C713 0.959 . S
H720 C713 0.961 . S
H721 C713 0.960 . S
H722 C714 0.930 . S
H723 C715 0.929 . S
H724 C732 0.929 . S
H725 C734 0.930 . S
H726 C736 0.930 . S
H727 C739 0.929 . S
H728 C742 0.930 . S
H729 C744 0.960 . S
H730 C744 0.960 . S
H731 C744 0.960 . S
C732 H724 0.929 . S
C732 C733 1.377 . S
C732 C734 1.384 . S
C733 C732 1.377 . S
C733 C739 1.390 . S
C734 H725 0.930 . S
C734 C732 1.384 . S
C734 C735 1.372 . S
C735 C734 1.372 . S
C735 C736 1.400 . S
C735 C740 1.490 . S
C736 H726 0.930 . S
C736 C735 1.400 . S
C736 C739 1.386 . S
H737 C753 0.930 1_545 S
H738 C754 0.931 1_545 S
C739 H727 0.929 . S
C739 C733 1.390 . S
C739 C736 1.386 . S
C740 C735 1.490 . S
C740 C742 1.395 . S
C740 C743 1.403 . S
H741 C747 0.930 . S
C742 H728 0.930 . S
C742 C740 1.395 . S
C742 C745 1.403 . S
C743 C740 1.403 . S
C743 C744 1.524 . S
C743 C747 1.400 . S
C744 H729 0.960 . S
C744 H730 0.960 . S
C744 H731 0.960 . S
C744 C743 1.524 . S
C745 C742 1.403 . S
C745 C746 1.392 . S
C745 C749 1.495 . S
C746 C745 1.392 . S
C746 C747 1.385 . S
C746 C748 1.478 . S
C747 H741 0.930 . S
C747 C743 1.400 . S
C747 C746 1.385 . S
C748 C746 1.478 . S
C748 C750 1.381 . S
C748 C754 1.383 . S
C749 C745 1.495 . S
C749 H755 0.959 . S
C749 H756 0.961 . S
C749 H757 0.960 . S
C750 C748 1.381 . S
C750 C751 1.394 . S
C750 H758 0.930 . S
C751 C750 1.394 . S
C751 C752 1.383 . S
C751 H759 0.929 . S
C752 C751 1.383 . S
C752 C753 1.377 . S
C753 H737 0.930 1_565 S
C753 C752 1.377 . S
C753 C754 1.379 . S
C754 H738 0.931 1_565 S
C754 C748 1.383 . S
C754 C753 1.379 . S
H755 C749 0.959 . S
H756 C749 0.961 . S
H757 C749 0.960 . S
H758 C750 0.930 . S
H759 C751 0.929 . S
C356 C223 1.655 . S
C337 C135 1.651 . S
C373 C15 1.642 . S
C392 C318 1.631 . S
C409 C55 1.647 . S
C428 C234 1.633 . S
C445 C95 1.649 . S
C464 C307 1.651 . S
C500 C218 1.424 . S
C481 C2 1.564 . S
C536 C311 1.613 . S
C517 C42 1.614 . S
C553 C82 1.601 . S
C572 C227 1.608 . S
C589 C141 1.522 . S
C608 C302 1.436 . S
C644 C313 1.413 . S
C625 C61 1.567 . S
C680 C229 1.461 . S
C661 C101 1.593 . S
C716 C300 1.638 . S
C697 C122 1.613 . S
C733 C21 1.641 . S
C752 C216 1.635 . S
