# Generated by pormake.
# Topology zzz, (3,6)-cn, num edge types: 1
# Building blocks:
#     Node 0, Type 0, BuildingBlock: OLANEW_clean_sbu_2, # of connection points: 3
#     Node 1, Type 0, BuildingBlock: OLANEW_clean_sbu_2, # of connection points: 3
#     Node 2, Type 0, BuildingBlock: OLANEW_clean_sbu_2, # of connection points: 3
#     Node 3, Type 0, BuildingBlock: OLANEW_clean_sbu_2, # of connection points: 3
#     Node 4, Type 0, BuildingBlock: OLANEW_clean_sbu_2, # of connection points: 3
#     Node 5, Type 0, BuildingBlock: OLANEW_clean_sbu_2, # of connection points: 3
#     Node 6, Type 0, BuildingBlock: OLANEW_clean_sbu_2, # of connection points: 3
#     Node 7, Type 0, BuildingBlock: OLANEW_clean_sbu_2, # of connection points: 3
#     Node 8, Type 1, BuildingBlock: INOVEN_clean_sbu_0, # of connection points: 6
#     Node 9, Type 1, BuildingBlock: INOVEN_clean_sbu_0, # of connection points: 6
#     Node 10, Type 1, BuildingBlock: INOVEN_clean_sbu_0, # of connection points: 6
#     Node 11, Type 1, BuildingBlock: INOVEN_clean_sbu_0, # of connection points: 6
#     Edge 12, Type (0, 1), BuildingBlock: EZIPEK_clean_linker_0, # of connection points: 2
#     Edge 13, Type (0, 1), BuildingBlock: EZIPEK_clean_linker_0, # of connection points: 2
#     Edge 14, Type (0, 1), BuildingBlock: EZIPEK_clean_linker_0, # of connection points: 2
#     Edge 15, Type (0, 1), BuildingBlock: EZIPEK_clean_linker_0, # of connection points: 2
#     Edge 16, Type (0, 1), BuildingBlock: EZIPEK_clean_linker_0, # of connection points: 2
#     Edge 17, Type (0, 1), BuildingBlock: EZIPEK_clean_linker_0, # of connection points: 2
#     Edge 18, Type (0, 1), BuildingBlock: EZIPEK_clean_linker_0, # of connection points: 2
#     Edge 19, Type (0, 1), BuildingBlock: EZIPEK_clean_linker_0, # of connection points: 2
#     Edge 20, Type (0, 1), BuildingBlock: EZIPEK_clean_linker_0, # of connection points: 2
#     Edge 21, Type (0, 1), BuildingBlock: EZIPEK_clean_linker_0, # of connection points: 2
#     Edge 22, Type (0, 1), BuildingBlock: EZIPEK_clean_linker_0, # of connection points: 2
#     Edge 23, Type (0, 1), BuildingBlock: EZIPEK_clean_linker_0, # of connection points: 2
#     Edge 24, Type (0, 1), BuildingBlock: EZIPEK_clean_linker_0, # of connection points: 2
#     Edge 25, Type (0, 1), BuildingBlock: EZIPEK_clean_linker_0, # of connection points: 2
#     Edge 26, Type (0, 1), BuildingBlock: EZIPEK_clean_linker_0, # of connection points: 2
#     Edge 27, Type (0, 1), BuildingBlock: EZIPEK_clean_linker_0, # of connection points: 2
#     Edge 28, Type (0, 1), BuildingBlock: EZIPEK_clean_linker_0, # of connection points: 2
#     Edge 29, Type (0, 1), BuildingBlock: EZIPEK_clean_linker_0, # of connection points: 2
#     Edge 30, Type (0, 1), BuildingBlock: EZIPEK_clean_linker_0, # of connection points: 2
#     Edge 31, Type (0, 1), BuildingBlock: EZIPEK_clean_linker_0, # of connection points: 2
#     Edge 32, Type (0, 1), BuildingBlock: EZIPEK_clean_linker_0, # of connection points: 2
#     Edge 33, Type (0, 1), BuildingBlock: EZIPEK_clean_linker_0, # of connection points: 2
#     Edge 34, Type (0, 1), BuildingBlock: EZIPEK_clean_linker_0, # of connection points: 2
#     Edge 35, Type (0, 1), BuildingBlock: EZIPEK_clean_linker_0, # of connection points: 2
# Relax obj value: 0.293
# Max RMSD: 0.204
# Mean RMSD: 0.172
data_MOF--net-zzz--node1-OLANEW_clean_sbu_2--node2-INOVEN_clean_sbu_0--edge1-EZIPEK_clean_linker_0
_symmetry_space_group_name_H-M    P1
_symmetry_Int_Tables_number       1
_symmetry_cell_setting            triclinic
loop_
_symmetry_equiv_pos_as_xyz
'x, y, z'
_cell_length_a     42.553147
_cell_length_b     42.484764
_cell_length_c     11.57726
_cell_angle_alpha  90.109831
_cell_angle_beta   90.004143
_cell_angle_gamma 89.978795
loop_
_atom_site_label
_atom_site_type_symbol
_atom_site_fract_x
_atom_site_fract_y
_atom_site_fract_z
_atom_type_partial_charge
O0 O 0.74746 0.60791 0.18801 0.0
Cd1 Cd 0.69533 0.6268 0.23911 0.0
O2 O 0.73459 0.57151 0.31312 0.0
Cd3 Cd 0.74641 0.52949 0.41069 0.0
O4 O 0.78214 0.50433 0.50713 0.0
C5 C 0.80414 0.52222 0.54139 0.0
O6 O 0.80123 0.55273 0.52738 0.0
C7 C 0.75397 0.58247 0.23995 0.0
C8 C 0.65486 0.59391 0.095 0.0
O9 O 0.66521 0.5814 0.18811 0.0
O10 O 0.66253 0.62245 0.07299 0.0
O11 O 0.9887 0.7117 0.23174 0.0
Cd12 Cd 0.97868 0.66298 0.3372 0.0
O13 O 0.99058 0.74285 0.38484 0.0
Cd14 Cd 0.97889 0.71686 0.54087 0.0
O15 O 0.97837 0.7649 0.61194 0.0
C16 C 0.9578 0.78344 0.57028 0.0
O17 O 0.93519 0.77162 0.50642 0.0
C18 C 0.993 0.73865 0.27666 0.0
C19 C 0.98172 0.61405 0.17741 0.0
O20 O 0.95539 0.62708 0.20206 0.0
O21 O 0.00636 0.62325 0.2314 0.0
O22 O 0.78117 0.97917 0.33361 0.0
Cd23 Cd 0.8339 0.962 0.38461 0.0
O24 O 0.77771 0.00621 0.49479 0.0
Cd25 Cd 0.74718 0.0334 0.60661 0.0
O26 O 0.69853 0.04103 0.6532 0.0
C27 C 0.68339 0.01715 0.68829 0.0
O28 O 0.69813 0.99022 0.70187 0.0
C29 C 0.76553 0.99688 0.40056 0.0
C30 C 0.87123 0.96928 0.19037 0.0
O31 O 0.85384 0.94495 0.20361 0.0
O32 O 0.87186 0.98984 0.27145 0.0
O33 O 0.62697 0.8018 0.28535 0.0
Cd34 Cd 0.62747 0.85316 0.38167 0.0
O35 O 0.57708 0.8031 0.33244 0.0
Cd36 Cd 0.53387 0.77616 0.3392 0.0
O37 O 0.52566 0.72716 0.38008 0.0
C38 C 0.52898 0.71943 0.48518 0.0
O39 O 0.53395 0.74147 0.56283 0.0
C40 C 0.60011 0.78881 0.28628 0.0
C41 C 0.58955 0.89381 0.25537 0.0
O42 O 0.57761 0.87589 0.33264 0.0
O43 O 0.61942 0.89336 0.24121 0.0
O44 O 0.26734 0.52411 0.24423 0.0
Cd45 Cd 0.32074 0.53761 0.18852 0.0
O46 O 0.26786 0.48189 0.13417 0.0
Cd47 Cd 0.24205 0.44405 0.04939 0.0
O48 O 0.20009 0.43157 0.95274 0.0
C49 C 0.17473 0.43235 0.01026 0.0
O50 O 0.17603 0.4355 0.12284 0.0
C51 C 0.25336 0.50032 0.20244 0.0
C52 C 0.36272 0.5352 0.37214 0.0
O53 O 0.34392 0.55851 0.35958 0.0
O54 O 0.36129 0.5126 0.29882 0.0
O55 O 0.95785 0.25368 0.09708 0.0
Cd56 Cd 0.97358 0.30835 0.06883 0.0
O57 O 0.99431 0.23728 0.97686 0.0
Cd58 Cd 0.02414 0.20132 0.89609 0.0
O59 O 0.06768 0.18293 0.82068 0.0
C60 C 0.07174 0.15677 0.76925 0.0
O61 O 0.09964 0.14997 0.72764 0.0
C62 C 0.97252 0.23121 0.04846 0.0
C63 C 0.97714 0.33916 0.2819 0.0
O64 O -0.00019 0.32199 0.24523 0.0
O65 O 0.95277 0.34198 0.21764 0.0
O66 O 0.22913 0.88354 0.39103 0.0
Cd67 Cd 0.17952 0.86547 0.31052 0.0
O68 O 0.2252 0.92428 0.27553 0.0
Cd69 Cd 0.24624 0.96601 0.19867 0.0
O70 O 0.28743 0.9881 0.12329 0.0
C71 C 0.30886 0.99595 0.19388 0.0
O72 O 0.30326 0.99418 0.30508 0.0
C73 C 0.24028 0.90909 0.35211 0.0
C74 C 0.13295 0.91014 0.34504 0.0
O75 O 0.13799 0.88849 0.41963 0.0
O76 O 0.14966 0.91069 0.25302 0.0
O77 O 0.4337 0.24713 0.35483 0.0
Cd78 Cd 0.41503 0.19362 0.32213 0.0
O79 O 0.45447 0.24866 0.18083 0.0
Cd80 Cd 0.47905 0.27896 0.05966 0.0
O81 O 0.49306 0.32613 0.00864 0.0
C82 C 0.4723 0.34432 0.96672 0.0
O83 O 0.44369 0.33365 0.94984 0.0
C84 C 0.44903 0.26169 0.27758 0.0
C85 C 0.43454 0.15536 0.50274 0.0
O86 O 0.45133 0.15816 0.41143 0.0
O87 O 0.40837 0.17022 0.50806 0.0
Gd88 Gd 0.00787 0.97471 0.73839 0.0
Gd89 Gd 0.96314 0.99105 0.54656 0.0
C90 C 0.97102 0.91894 0.59784 0.0
C91 C 0.03374 0.94922 0.91681 0.0
C92 C 0.02919 0.91768 0.96587 0.0
C93 C 0.05374 0.90208 0.02281 0.0
C94 C 0.00045 0.90218 0.94941 0.0
C95 C 0.02008 0.85641 0.05043 0.0
C96 C 0.99598 0.87176 0.9902 0.0
C97 C 0.04919 0.87152 0.06487 0.0
C98 C 0.03609 0.98325 0.53028 0.0
C99 C 7e-05 0.04681 0.68855 0.0
C100 C 0.93645 0.01517 0.36628 0.0
C101 C 0.94042 0.04466 0.30128 0.0
C102 C 0.91389 0.06189 0.26674 0.0
C103 C 0.97054 0.05692 0.28012 0.0
C104 C 0.94747 0.104 0.19749 0.0
C105 C 0.974 0.08642 0.22895 0.0
C106 C 0.91738 0.09141 0.21489 0.0
C107 C 0.93561 0.97954 0.75196 0.0
O108 O 0.98506 0.92818 0.6938 0.0
O109 O 0.96243 0.93901 0.51714 0.0
O110 O 0.04713 0.94977 0.81529 0.0
O111 O 0.00944 0.96806 0.92357 0.0
O112 O 0.0471 0.99331 0.62844 0.0
O113 O 0.0103 0.96952 0.54901 0.0
O114 O 0.98789 0.03722 0.58922 0.0
O115 O 0.00813 0.02624 0.76823 0.0
O116 O 0.9251 0.01811 0.47066 0.0
O117 O 0.95966 0.99506 0.3607 0.0
O118 O 0.92307 0.97186 0.65377 0.0
O119 O 0.96057 0.99477 0.73605 0.0
H120 H 0.07626 0.91349 0.03484 0.0
H121 H 0.98133 0.91371 0.90553 0.0
H122 H 0.9734 0.86048 0.97763 0.0
H123 H 0.06818 0.85972 0.10944 0.0
H124 H 0.89048 0.05298 0.28319 0.0
H125 H 0.99141 0.04429 0.30706 0.0
H126 H 0.99737 0.09603 0.21741 0.0
H127 H 0.89668 0.10487 0.19206 0.0
Gd128 Gd 0.50667 0.03641 0.02167 0.0
Gd129 Gd 0.48089 0.00581 0.79602 0.0
C130 C 0.55189 0.02331 0.80012 0.0
C131 C 0.54145 0.05 0.19808 0.0
C132 C 0.57472 0.04478 0.22742 0.0
C133 C 0.59698 0.03887 0.14042 0.0
C134 C 0.58432 0.04475 0.34328 0.0
C135 C 0.63766 0.03175 0.28451 0.0
C136 C 0.61568 0.03849 0.37158 0.0
C137 C 0.62821 0.03244 0.16864 0.0
C138 C 0.47797 0.07551 0.87263 0.0
C139 C 0.4349 0.01522 0.02183 0.0
C140 C 0.44917 0.99438 0.61071 0.0
C141 C 0.41895 0.9804 0.57748 0.0
C142 C 0.40635 0.95437 0.63626 0.0
C143 C 0.40213 0.99387 0.48605 0.0
C144 C 0.36059 0.95538 0.51087 0.0
C145 C 0.37312 0.98151 0.45332 0.0
C146 C 0.37736 0.94179 0.60252 0.0
C147 C 0.50946 0.96581 0.9451 0.0
O148 O 0.5489 0.02279 0.9138 0.0
O149 O 0.52715 0.02336 0.73177 0.0
O150 O 0.53597 0.06971 0.11357 0.0
O151 O 0.524 0.02466 0.19241 0.0
O152 O 0.47722 0.07955 0.98386 0.0
O153 O 0.49603 0.05318 0.84636 0.0
O154 O 0.43792 0.00851 0.91041 0.0
O155 O 0.45866 0.02439 0.08762 0.0
O156 O 0.47073 0.9753 0.65106 0.0
O157 O 0.44752 0.02111 0.66687 0.0
O158 O 0.50785 0.96095 0.83432 0.0
O159 O 0.49264 0.98919 0.96996 0.0
H160 H 0.59026 0.03893 0.05077 0.0
H161 H 0.56757 0.04937 0.41173 0.0
H162 H 0.62282 0.03889 0.46112 0.0
H163 H 0.64489 0.02743 0.10032 0.0
H164 H 0.41885 0.94385 0.70799 0.0
H165 H 0.4114 0.01405 0.44016 0.0
H166 H 0.36052 0.99231 0.38297 0.0
H167 H 0.36792 0.92165 0.64801 0.0
Gd168 Gd 0.50817 0.54668 0.86055 0.0
Gd169 Gd 0.52643 0.51515 0.6243 0.0
C170 C 0.52887 0.58973 0.63657 0.0
C171 C 0.51167 0.58076 0.04488 0.0
C172 C 0.52771 0.61052 0.07347 0.0
C173 C 0.51349 0.63189 0.14955 0.0
C174 C 0.55694 0.61809 0.02397 0.0
C175 C 0.55775 0.66759 0.12892 0.0
C176 C 0.57202 0.64632 0.05235 0.0
C177 C 0.52836 0.66029 0.17674 0.0
C178 C 0.46002 0.53293 0.71925 0.0
C179 C 0.50226 0.4727 0.84487 0.0
C180 C 0.52588 0.48117 0.43894 0.0
C181 C 0.51646 0.44867 0.4123 0.0
C182 C 0.51266 0.42653 0.50119 0.0
C183 C 0.51065 0.43971 0.29767 0.0
C184 C 0.49604 0.38731 0.3619 0.0
C185 C 0.50072 0.40907 0.27257 0.0
C186 C 0.50237 0.39609 0.47623 0.0
C187 C 0.57483 0.53019 0.7642 0.0
O188 O 0.52473 0.58721 0.7497 0.0
O189 O 0.52898 0.56514 0.56634 0.0
O190 O 0.48822 0.58272 0.97199 0.0
O191 O 0.52992 0.55654 0.02512 0.0
O192 O 0.45757 0.5329 0.8314 0.0
O193 O 0.48664 0.54297 0.68907 0.0
O194 O 0.50673 0.47562 0.73228 0.0
O195 O 0.5044 0.4966 0.91766 0.0
O196 O 0.5506 0.48421 0.50537 0.0
O197 O 0.50301 0.50039 0.46695 0.0
O198 O 0.57728 0.52826 0.65267 0.0
O199 O 0.54813 0.52026 0.7938 0.0
H200 H 0.49077 0.62672 0.18705 0.0
H201 H 0.56804 0.60226 0.96309 0.0
H202 H 0.59458 0.65173 0.01389 0.0
H203 H 0.51688 0.67669 0.23454 0.0
H204 H 0.51753 0.43273 0.58985 0.0
H205 H 0.5137 0.45638 0.22783 0.0
H206 H 0.49666 0.40231 0.18388 0.0
H207 H 0.49913 0.37945 0.54604 0.0
Gd208 Gd 0.97645 0.4537 0.87478 0.0
Gd209 Gd 0.00037 0.47895 0.63686 0.0
C210 C 0.92786 0.48592 0.69349 0.0
C211 C 0.94729 0.45307 0.06863 0.0
C212 C 0.92016 0.47255 0.10429 0.0
C213 C 0.89204 0.45808 0.13851 0.0
C214 C 0.9209 0.50552 0.09171 0.0
C215 C 0.86597 0.50905 0.14696 0.0
C216 C 0.89407 0.52357 0.11288 0.0
C217 C 0.86512 0.47616 0.15869 0.0
C218 C 0.98191 0.41082 0.70509 0.0
C219 C 0.04983 0.44982 0.82884 0.0
C220 C 0.02647 0.48226 0.4358 0.0
C221 C 0.05904 0.48566 0.39555 0.0
C222 C 0.08147 0.50099 0.46458 0.0
C223 C 0.06827 0.47216 0.29015 0.0
C224 C 0.12201 0.4893 0.32329 0.0
C225 C 0.09962 0.47387 0.25428 0.0
C226 C 0.1127 0.50296 0.42831 0.0
C227 C 0.99576 0.52286 0.80513 0.0
O228 O 0.93518 0.48019 0.80212 0.0
O229 O 0.94844 0.48263 0.6086 0.0
O230 O 0.94157 0.43245 0.98691 0.0
O231 O 0.97396 0.46799 0.05397 0.0
O232 O 0.98583 0.40387 0.81369 0.0
O233 O 0.97234 0.43869 0.69389 0.0
O234 O 0.04435 0.45941 0.72155 0.0
O235 O 0.02757 0.4471 0.90785 0.0
O236 O 0.01427 0.50666 0.48874 0.0
O237 O 0.02006 0.4556 0.48701 0.0
O238 O 0.99483 0.52945 0.69562 0.0
O239 O 0.00339 0.49442 0.81649 0.0
H240 H 0.89068 0.43271 0.14644 0.0
H241 H 0.94195 0.51741 0.06276 0.0
H242 H 0.89513 0.54886 0.10159 0.0
H243 H 0.8434 0.46447 0.18162 0.0
H244 H 0.07491 0.51116 0.54703 0.0
H245 H 0.0513 0.46002 0.23636 0.0
H246 H 0.10648 0.46311 0.17317 0.0
H247 H 0.12972 0.51479 0.48279 0.0
C248 C 0.07581 0.92313 0.35076 0.0
C249 C 0.1074 0.93312 0.36331 0.0
C250 C 0.08939 0.98422 0.43714 0.0
C251 C 0.05838 0.97214 0.43935 0.0
N252 N 0.02146 0.9392 0.33861 0.0
N253 N 0.14505 0.97412 0.40328 0.0
C254 C 0.05131 0.94446 0.37663 0.0
C255 C 0.11445 0.96435 0.39934 0.0
N256 N 0.06914 0.89283 0.31963 0.0
N257 N 0.0943 0.0147 0.47022 0.0
H258 H 0.1637 0.96004 0.37582 0.0
H259 H 0.15235 0.99584 0.4348 0.0
H260 H 0.07559 0.02966 0.49054 0.0
H261 H 0.11601 0.0259 0.4702 0.0
H262 H 0.04656 0.88338 0.32293 0.0
H263 H 0.08645 0.87652 0.29743 0.0
H264 H 0.01536 0.92044 0.28502 0.0
H265 H 0.00397 0.95615 0.34766 0.0
C266 C 0.42582 0.11138 0.64343 0.0
C267 C 0.44534 0.13582 0.60084 0.0
C268 C 0.48622 0.12148 0.74073 0.0
C269 C 0.46585 0.09837 0.78733 0.0
N270 N 0.41365 0.07698 0.80351 0.0
N271 N 0.49125 0.16863 0.62471 0.0
C272 C 0.43479 0.09513 0.74515 0.0
C273 C 0.47484 0.14212 0.65363 0.0
N274 N 0.39955 0.10256 0.58362 0.0
N275 N 0.51646 0.12367 0.77958 0.0
H276 H 0.48331 0.18485 0.56384 0.0
H277 H 0.51127 0.17616 0.66847 0.0
H278 H 0.52476 0.11075 0.84972 0.0
H279 H 0.53367 0.1371 0.73895 0.0
H280 H 0.38642 0.08263 0.604 0.0
H281 H 0.3926 0.11321 0.50666 0.0
H282 H 0.38986 0.07595 0.78276 0.0
H283 H 0.41933 0.0657 0.88038 0.0
C284 C 0.40449 0.56219 0.48974 0.0
C285 C 0.38617 0.53489 0.46713 0.0
C286 C 0.41585 0.50596 0.61457 0.0
C287 C 0.4326 0.53384 0.64121 0.0
N288 N 0.43589 0.5904 0.62996 0.0
N289 N 0.36902 0.48338 0.52941 0.0
C290 C 0.42467 0.5626 0.58703 0.0
C291 C 0.39029 0.50742 0.5356 0.0
N292 N 0.40421 0.58704 0.4149 0.0
N293 N 0.42476 0.47798 0.66238 0.0
H294 H 0.34908 0.48419 0.47715 0.0
H295 H 0.3693 0.46414 0.58506 0.0
H296 H 0.44259 0.47628 0.72371 0.0
H297 H 0.41591 0.45631 0.6355 0.0
H298 H 0.41893 0.60647 0.42367 0.0
H299 H 0.3919 0.58694 0.33712 0.0
H300 H 0.42831 0.6123 0.60057 0.0
H301 H 0.45035 0.59164 0.70263 0.0
C302 C 0.00654 0.37225 0.42689 0.0
C303 C 0.97903 0.35525 0.39595 0.0
C304 C 0.95379 0.37242 0.57629 0.0
C305 C 0.98195 0.38782 0.60886 0.0
N306 N 0.03777 0.39315 0.5837 0.0
N307 N 0.92976 0.33225 0.45673 0.0
C308 C 0.00922 0.38467 0.54018 0.0
C309 C 0.9535 0.35333 0.47511 0.0
N310 N 0.02928 0.37839 0.34667 0.0
N311 N 0.92725 0.37628 0.6412 0.0
H312 H 0.92946 0.31668 0.38704 0.0
H313 H 0.91211 0.32784 0.51689 0.0
H314 H 0.92707 0.38877 0.7189 0.0
H315 H 0.90511 0.36881 0.61426 0.0
H316 H 0.04817 0.39339 0.36281 0.0
H317 H 0.02754 0.37155 0.26041 0.0
H318 H 0.05887 0.38908 0.54041 0.0
H319 H 0.04043 0.40082 0.66859 0.0
C320 C 0.90568 0.94704 0.03583 0.0
C321 C 0.88966 0.97336 0.08263 0.0
C322 C 0.907 0.00514 0.91752 0.0
C323 C 0.91913 0.97756 0.86434 0.0
N324 N 0.92211 0.92082 0.86168 0.0
N325 N 0.86948 0.02613 0.05448 0.0
C326 C 0.91603 0.94806 0.91991 0.0
C327 C 0.88899 0.00226 0.02059 0.0
N328 N 0.91219 0.92146 0.10316 0.0
N329 N 0.91182 0.03396 0.86835 0.0
H330 H 0.85432 0.02453 0.1248 0.0
H331 H 0.86582 0.0464 0.00583 0.0
H332 H 0.92282 0.037 0.7887 0.0
H333 H 0.90649 0.05502 0.91011 0.0
H334 H 0.92636 0.90292 0.07521 0.0
H335 H 0.90667 0.92053 0.19088 0.0
H336 H 0.91728 0.89861 0.89549 0.0
H337 H 0.92926 0.92057 0.77602 0.0
C338 C 0.54471 0.93179 0.22377 0.0
C339 C 0.56919 0.9128 0.17826 0.0
C340 C 0.55808 0.93334 0.98608 0.0
C341 C 0.53022 0.94818 0.02726 0.0
N342 N 0.4937 0.95436 0.18704 0.0
N343 N 0.59278 0.88902 0.00911 0.0
C344 C 0.52255 0.94553 0.14681 0.0
C345 C 0.57398 0.91158 0.05739 0.0
N346 N 0.54299 0.93752 0.33972 0.0
N347 N 0.57077 0.94114 0.88193 0.0
H348 H 0.6035 0.87123 0.0569 0.0
H349 H 0.59456 0.88583 0.91999 0.0
H350 H 0.56219 0.95946 0.83228 0.0
H351 H 0.59243 0.93261 0.85364 0.0
H352 H 0.52736 0.95374 0.37542 0.0
H353 H 0.55937 0.92872 0.39842 0.0
H354 H 0.48645 0.95028 0.27171 0.0
H355 H 0.47564 0.96212 0.13384 0.0
C356 C 0.61186 0.55508 0.04691 0.0
C357 C 0.63642 0.57523 0.01043 0.0
C358 C 0.62245 0.56513 0.80868 0.0
C359 C 0.59886 0.54335 0.84525 0.0
N360 N 0.58249 0.50837 0.99905 0.0
N361 N 0.67241 0.58875 0.85693 0.0
C362 C 0.59709 0.53536 0.96435 0.0
C363 C 0.64404 0.57695 0.89142 0.0
N364 N 0.60141 0.55561 0.15843 0.0
N365 N 0.62391 0.57609 0.69785 0.0
H366 H 0.68976 0.59588 0.91495 0.0
H367 H 0.6802 0.58762 0.77163 0.0
H368 H 0.60815 0.57045 0.63278 0.0
H369 H 0.63886 0.59435 0.67358 0.0
H370 H 0.58164 0.54309 0.18526 0.0
H371 H 0.61012 0.5711 0.22054 0.0
H372 H 0.58252 0.50084 0.08474 0.0
H373 H 0.57427 0.4915 0.94095 0.0
C374 C 0.97277 0.59739 0.97171 0.0
C375 C 0.98408 0.59029 0.08384 0.0
C376 C 0.00743 0.54178 0.00925 0.0
C377 C 0.99198 0.54628 0.90108 0.0
N378 N 0.95382 0.57671 0.79108 0.0
N379 N 0.00598 0.552 0.21467 0.0
C380 C 0.97287 0.57358 0.88547 0.0
C381 C -0.00059 0.56128 0.10437 0.0
N382 N 0.96322 0.62725 0.94521 0.0
N383 N 0.03144 0.52067 0.02039 0.0
H384 H -0.0001 0.56538 0.28696 0.0
H385 H 0.01437 0.52958 0.2343 0.0
H386 H 0.04111 0.50859 0.95098 0.0
H387 H 0.04484 0.51862 0.09539 0.0
H388 H 0.95813 0.63438 0.86117 0.0
H389 H 0.96367 0.64582 0.00417 0.0
H390 H 0.93736 0.59475 0.78327 0.0
H391 H 0.95112 0.55958 0.72767 0.0
C392 C 0.9701 0.19005 0.20163 0.0
C393 C 0.96602 0.19843 0.08401 0.0
C394 C 0.94933 0.1445 0.03871 0.0
C395 C 0.95152 0.13692 0.15777 0.0
N396 N 0.95638 0.15417 0.35547 0.0
N397 N 0.94785 0.18541 0.89247 0.0
C398 C 0.95963 0.16023 0.24013 0.0
C399 C 0.95464 0.1761 0.00268 0.0
N400 N 0.98534 0.21001 0.27567 0.0
N401 N 0.94258 0.12141 0.96031 0.0
H402 H 0.95145 0.20833 0.86325 0.0
H403 H 0.93655 0.17119 0.83212 0.0
H404 H 0.93726 0.09841 0.98469 0.0
H405 H 0.94418 0.12436 0.87128 0.0
H406 H 0.992 0.20364 0.35901 0.0
H407 H 0.99422 0.23182 0.25046 0.0
H408 H 0.95891 0.1713 0.41927 0.0
H409 H 0.94808 0.13274 0.387 0.0
C410 C 0.29913 0.90851 0.34374 0.0
C411 C 0.27112 0.92059 0.3935 0.0
C412 C 0.3019 0.95267 0.52882 0.0
C413 C 0.32986 0.94227 0.47384 0.0
N414 N 0.35586 0.91256 0.32422 0.0
N415 N 0.24496 0.95645 0.52318 0.0
C416 C 0.32869 0.92074 0.37998 0.0
C417 C 0.27226 0.94328 0.48345 0.0
N418 N 0.29737 0.88506 0.26284 0.0
N419 N 0.30379 0.97128 0.62515 0.0
H420 H 0.2228 0.94954 0.49416 0.0
H421 H 0.24415 0.97565 0.57907 0.0
H422 H 0.32504 0.9795 0.65844 0.0
H423 H 0.28462 0.97691 0.67701 0.0
H424 H 0.31673 0.87278 0.23155 0.0
H425 H 0.2761 0.87644 0.23108 0.0
H426 H 0.35661 0.89967 0.24782 0.0
H427 H 0.37801 0.92015 0.35099 0.0
C428 C 0.49374 0.29895 0.31015 0.0
C429 C 0.46089 0.29389 0.2998 0.0
C430 C 0.45103 0.35 0.33381 0.0
C431 C 0.48394 0.35533 0.33652 0.0
N432 N 0.53681 0.33637 0.30986 0.0
N433 N 0.40845 0.31478 0.28181 0.0
C434 C 0.50537 0.33021 0.31939 0.0
C435 C 0.43953 0.31947 0.30635 0.0
N436 N 0.51372 0.27376 0.31529 0.0
N437 N 0.43079 0.37402 0.35965 0.0
H438 H 0.39915 0.2927 0.26199 0.0
H439 H 0.39232 0.33301 0.27194 0.0
H440 H 0.43827 0.39698 0.37609 0.0
H441 H 0.40678 0.37085 0.37226 0.0
H442 H 0.5375 0.27566 0.3353 0.0
H443 H 0.50608 0.2505 0.30886 0.0
H444 H 0.55332 0.31965 0.2844 0.0
H445 H 0.54621 0.35892 0.31868 0.0
C446 C 0.21069 0.47719 0.32466 0.0
C447 C 0.21965 0.49552 0.22796 0.0
C448 C 0.16467 0.51031 0.1941 0.0
C449 C 0.15552 0.49069 0.28744 0.0
N450 N 0.16864 0.45078 0.42736 0.0
N451 N 0.20569 0.52574 0.05975 0.0
C452 C 0.17823 0.47284 0.34902 0.0
C453 C 0.19673 0.51087 0.15912 0.0
N454 N 0.23326 0.46453 0.3947 0.0
N455 N 0.14293 0.52932 0.14212 0.0
H456 H 0.22902 0.52693 0.03249 0.0
H457 H 0.18996 0.53485 0.99964 0.0
H458 H 0.11927 0.52965 0.16552 0.0
H459 H 0.14854 0.54653 0.08173 0.0
H460 H 0.22841 0.45415 0.4741 0.0
H461 H 0.25724 0.46625 0.37708 0.0
H462 H 0.18376 0.4347 0.4662 0.0
H463 H 0.14505 0.44657 0.44627 0.0
C464 C 0.02501 0.76928 0.13067 0.0
C465 C 0.99842 0.7668 0.20408 0.0
C466 C 0.98908 0.82322 0.18714 0.0
C467 C 0.01362 0.82546 0.1048 0.0
N468 N 0.05058 0.79912 0.97908 0.0
N469 N 0.94939 0.78931 0.26741 0.0
C470 C 0.03037 0.79802 0.07064 0.0
C471 C 0.97868 0.79318 0.22168 0.0
N472 N 0.04578 0.74489 0.12168 0.0
N473 N 0.97638 0.84968 0.23567 0.0
H474 H 0.94016 0.76708 0.28504 0.0
H475 H 0.93316 0.80762 0.27418 0.0
H476 H 0.98431 0.87232 0.21682 0.0
H477 H 0.96037 0.84885 0.30381 0.0
H478 H 0.06728 0.7468 0.07918 0.0
H479 H 0.04268 0.72351 0.16419 0.0
H480 H 0.06103 0.77912 0.9437 0.0
H481 H 0.05463 0.81957 0.93172 0.0
C482 C 0.72474 0.03814 0.35843 0.0
C483 C 0.73282 0.00587 0.37045 0.0
C484 C 0.67921 0.99069 0.31558 0.0
C485 C 0.67044 0.02293 0.31442 0.0
N486 N 0.68345 0.07741 0.34767 0.0
N487 N 0.71648 0.95158 0.38177 0.0
C488 C 0.69279 0.04668 0.34014 0.0
C489 C 0.70977 0.98213 0.35407 0.0
N490 N 0.74781 0.06054 0.35913 0.0
N491 N 0.65828 0.96818 0.2806 0.0
H492 H 0.7383 0.94439 0.41311 0.0
H493 H 0.69964 0.93382 0.38432 0.0
H494 H 0.63501 0.97314 0.25898 0.0
H495 H 0.66453 0.94481 0.26603 0.0
H496 H 0.7439 0.08406 0.33849 0.0
H497 H 0.77154 0.05521 0.37042 0.0
H498 H 0.69773 0.09531 0.37978 0.0
H499 H 0.66062 0.08479 0.32927 0.0
C500 C 0.5757 0.7552 0.13289 0.0
C501 C 0.59479 0.75739 0.23328 0.0
C502 C 0.59312 0.69992 0.25638 0.0
C503 C 0.57314 0.69797 0.15839 0.0
N504 N 0.55069 0.72185 0.98897 0.0
N505 N 0.62634 0.7324 0.37951 0.0
C506 C 0.56615 0.72508 0.09196 0.0
C507 C 0.60522 0.72982 0.29097 0.0
N508 N 0.56601 0.78211 0.07881 0.0
N509 N 0.59958 0.67325 0.31811 0.0
H510 H 0.6348 0.75398 0.40912 0.0
H511 H 0.63706 0.71335 0.41971 0.0
H512 H 0.59168 0.65099 0.29338 0.0
H513 H 0.61179 0.6729 0.39582 0.0
H514 H 0.54888 0.7827 0.01472 0.0
H515 H 0.5743 0.80441 0.10133 0.0
H516 H 0.54753 0.74007 0.9302 0.0
H517 H 0.54292 0.70019 0.95752 0.0
C518 C 0.81123 0.57164 0.27187 0.0
C519 C 0.78302 0.56487 0.21209 0.0
C520 C 0.81018 0.52425 0.09916 0.0
C521 C 0.83733 0.52835 0.16907 0.0
N522 N 0.86149 0.5518 0.33733 0.0
N523 N 0.7541 0.53255 0.07757 0.0
C524 C 0.83734 0.55103 0.25948 0.0
C525 C 0.78202 0.54045 0.12841 0.0
N526 N 0.81317 0.59787 0.33998 0.0
N527 N 0.81167 0.50595 0.00201 0.0
H528 H 0.73322 0.54473 0.09304 0.0
H529 H 0.75116 0.51261 0.02625 0.0
H530 H 0.83218 0.49469 0.975 0.0
H531 H 0.79357 0.50445 0.94175 0.0
H532 H 0.83416 0.60578 0.37614 0.0
H533 H 0.79424 0.61308 0.35304 0.0
H534 H 0.8612 0.56569 0.41156 0.0
H535 H 0.88042 0.53622 0.3344 0.0
C536 C 0.03553 0.12738 0.63737 0.0
C537 C 0.04558 0.13426 0.75162 0.0
C538 C 0.01308 0.09114 0.82533 0.0
C539 C 0.00794 0.08086 0.71 0.0
N540 N 0.99901 0.09897 0.51537 0.0
N541 N 0.04243 0.12477 0.95662 0.0
C542 C 0.01455 0.10185 0.61794 0.0
C543 C 0.03329 0.11721 0.84674 0.0
N544 N 0.04651 0.14503 0.54734 0.0
N545 N 0.99736 0.07666 0.91335 0.0
H546 H 0.05657 0.14412 0.97563 0.0
H547 H 0.03735 0.11122 0.02896 0.0
H548 H 0.97981 0.06 0.89807 0.0
H549 H 0.9987 0.08351 0.99936 0.0
H550 H 0.04372 0.13881 0.46093 0.0
H551 H 0.05977 0.16543 0.5593 0.0
H552 H 0.00229 0.114 0.44564 0.0
H553 H 0.97915 0.08492 0.50616 0.0
C554 C 0.35647 0.03037 0.17219 0.0
C555 C 0.34138 0.00105 0.15257 0.0
C556 C 0.3897 0.97987 0.06677 0.0
C557 C 0.40361 0.01015 0.07467 0.0
N558 N 0.39972 0.06518 0.12495 0.0
N559 N 0.3428 0.94786 0.07789 0.0
C560 C 0.38702 0.03562 0.12592 0.0
C561 C 0.35773 0.97583 0.09857 0.0
N562 N 0.34164 0.05318 0.2354 0.0
N563 N 0.40758 0.95457 0.03418 0.0
H564 H 0.32067 0.94231 0.11052 0.0
H565 H 0.35176 0.93041 0.02391 0.0
H566 H 0.43115 0.95638 0.01083 0.0
H567 H 0.40006 0.93132 0.03995 0.0
H568 H 0.3528 0.07339 0.26559 0.0
H569 H 0.31853 0.05107 0.26433 0.0
H570 H 0.38734 0.08538 0.1478 0.0
H571 H 0.4221 0.07003 0.09334 0.0
C572 C 0.46159 0.40237 0.98493 0.0
C573 C 0.48019 0.37746 0.93941 0.0
C574 C 0.51653 0.41592 0.85688 0.0
C575 C 0.49575 0.4406 0.88839 0.0
N576 N 0.44601 0.45696 0.96939 0.0
N577 N 0.5218 0.36068 0.81129 0.0
C578 C 0.46763 0.43381 0.94937 0.0
C579 C 0.50678 0.38424 0.86998 0.0
N580 N 0.4392 0.3963 0.06662 0.0
N581 N 0.546 0.42274 0.81706 0.0
H582 H 0.51465 0.33722 0.81435 0.0
H583 H 0.53918 0.36489 0.74984 0.0
H584 H 0.55439 0.44571 0.80932 0.0
H585 H 0.56315 0.40563 0.80331 0.0
H586 H 0.42751 0.41394 0.11222 0.0
H587 H 0.43465 0.37381 0.0982 0.0
H588 H 0.42351 0.45249 0.0008 0.0
H589 H 0.44949 0.48033 0.946 0.0
C590 C 0.12081 0.41153 0.96972 0.0
C591 C 0.14403 0.43491 0.95138 0.0
C592 C 0.10556 0.46813 0.85159 0.0
C593 C 0.08272 0.44399 0.8645 0.0
N594 N 0.0701 0.39036 0.91455 0.0
N595 N 0.16023 0.48336 0.85917 0.0
C596 C 0.09076 0.415 0.91768 0.0
C597 C 0.13702 0.46237 0.88638 0.0
N598 N 0.12737 0.38613 0.038 0.0
N599 N 0.09689 0.4974 0.81391 0.0
H600 H 0.18315 0.48179 0.88995 0.0
H601 H 0.15735 0.50132 0.79898 0.0
H602 H 0.07418 0.50322 0.78822 0.0
H603 H 0.11153 0.517 0.81777 0.0
H604 H 0.11032 0.37048 0.06721 0.0
H605 H 0.14972 0.38161 0.07107 0.0
H606 H 0.07576 0.36766 0.94103 0.0
H607 H 0.04808 0.3918 0.87552 0.0
C608 C 0.93498 0.83737 0.60304 0.0
C609 C 0.96153 0.81824 0.57789 0.0
C610 C 0.99425 0.86567 0.56381 0.0
C611 C 0.96718 0.88467 0.5796 0.0
N612 N 0.91068 0.88871 0.58575 0.0
N613 N 0.01449 0.81548 0.50106 0.0
C614 C 0.93715 0.87056 0.58963 0.0
C615 C 0.99072 0.83267 0.54938 0.0
N616 N 0.90813 0.82405 0.64533 0.0
N617 N 0.02346 0.87905 0.56222 0.0
H618 H 0.0129 0.79152 0.48381 0.0
H619 H 0.03462 0.82567 0.46611 0.0
H620 H 0.02716 0.90329 0.56468 0.0
H621 H 0.04413 0.86591 0.56555 0.0
H622 H 0.88919 0.8372 0.67588 0.0
H623 H 0.90603 0.8 0.6616 0.0
H624 H 0.8881 0.8793 0.5814 0.0
H625 H 0.91138 0.91307 0.57593 0.0
C626 C 0.63791 0.04246 0.78855 0.0
C627 C 0.64924 0.01947 0.71019 0.0
C628 C 0.59529 0.00118 0.67445 0.0
C629 C 0.58414 0.02465 0.7521 0.0
N630 N 0.59357 0.07353 0.85192 0.0
N631 N 0.63889 0.98049 0.56293 0.0
C632 C 0.60512 0.04714 0.79925 0.0
C633 C 0.62798 0.99976 0.64878 0.0
N634 N 0.65836 0.05862 0.85787 0.0
N635 N 0.57504 0.9795 0.62861 0.0
H636 H 0.66261 0.97826 0.5428 0.0
H637 H 0.62443 0.96861 0.50493 0.0
H638 H 0.55083 0.98019 0.6406 0.0
H639 H 0.58227 0.95936 0.58477 0.0
H640 H 0.65106 0.07306 0.92559 0.0
H641 H 0.68262 0.05519 0.8558 0.0
H642 H 0.60765 0.0923 0.87803 0.0
H643 H 0.56955 0.07802 0.85878 0.0
C644 C 0.50532 0.66528 0.48413 0.0
C645 C 0.52985 0.6858 0.51851 0.0
C646 C 0.55396 0.64331 0.63044 0.0
C647 C 0.53094 0.62197 0.58793 0.0
N648 N 0.48776 0.61186 0.45589 0.0
N649 N 0.58172 0.69221 0.60004 0.0
C650 C 0.50783 0.63259 0.50796 0.0
C651 C 0.55537 0.67424 0.58489 0.0
N652 N 0.47853 0.6772 0.43565 0.0
N653 N 0.57441 0.63431 0.71517 0.0
H654 H 0.58446 0.71446 0.56374 0.0
H655 H 0.60231 0.68365 0.63725 0.0
H656 H 0.57557 0.61149 0.74707 0.0
H657 H 0.58876 0.65009 0.75961 0.0
H658 H 0.4584 0.6638 0.42112 0.0
H659 H 0.4751 0.70113 0.42051 0.0
H660 H 0.4737 0.61804 0.3859 0.0
H661 H 0.48631 0.5881 0.47618 0.0
C662 C 0.84609 0.52327 0.69236 0.0
C663 C 0.83361 0.50941 0.59069 0.0
C664 C 0.87936 0.47459 0.57916 0.0
C665 C 0.89454 0.4928 0.66539 0.0
N666 N 0.8921 0.53471 0.80739 0.0
N667 N 0.84001 0.47354 0.42953 0.0
C668 C 0.87775 0.51702 0.72398 0.0
C669 C 0.85045 0.48523 0.53259 0.0
N670 N 0.82726 0.5416 0.76073 0.0
N671 N 0.89208 0.44656 0.54434 0.0
H672 H 0.82032 0.482 0.38622 0.0
H673 H 0.85262 0.45718 0.38133 0.0
H674 H 0.91274 0.43746 0.57918 0.0
H675 H 0.88036 0.43056 0.49137 0.0
H676 H 0.83407 0.55036 0.84092 0.0
H677 H 0.80351 0.54533 0.74314 0.0
H678 H 0.88245 0.55521 0.84174 0.0
H679 H 0.91459 0.53023 0.83812 0.0
loop_
_geom_bond_atom_site_label_1
_geom_bond_atom_site_label_2
_geom_bond_distance
_geom_bond_site_symmetry_2
_ccdc_geom_bond_type
O0 Cd1 2.300 . S
O0 C7 1.275 . S
Cd1 O0 2.300 . S
Cd1 O9 2.381 . S
Cd1 O10 2.378 . S
O2 Cd3 2.385 . S
O2 C7 1.255 . S
Cd3 O2 2.385 . S
Cd3 O4 2.317 . S
O4 Cd3 2.317 . S
O4 C5 1.232 . S
C5 O4 1.232 . S
C5 O6 1.218 . S
O6 C5 1.218 . S
C7 O0 1.275 . S
C7 O2 1.255 . S
C8 O9 1.258 . S
C8 O10 1.256 . S
O9 Cd1 2.381 . S
O9 C8 1.258 . S
O10 Cd1 2.378 . S
O10 C8 1.256 . S
O11 Cd12 2.300 1_655 S
O11 C18 1.275 1_655 S
Cd12 O11 2.300 1_455 S
Cd12 O20 2.381 1_455 S
Cd12 O21 2.378 . S
O13 Cd14 2.385 . S
O13 C18 1.255 . S
Cd14 O13 2.385 . S
Cd14 O15 2.317 . S
O15 Cd14 2.317 . S
O15 C16 1.232 . S
C16 O15 1.232 . S
C16 O17 1.218 . S
O17 C16 1.218 . S
C18 O11 1.275 1_455 S
C18 O13 1.255 . S
C19 O20 1.258 1_455 S
C19 O21 1.256 . S
O20 Cd12 2.381 1_655 S
O20 C19 1.258 1_655 S
O21 Cd12 2.378 . S
O21 C19 1.256 . S
O22 Cd23 2.300 1_565 S
O22 C29 1.275 1_565 S
Cd23 O22 2.300 1_545 S
Cd23 O31 2.381 1_545 S
Cd23 O32 2.378 . S
O24 Cd25 2.385 . S
O24 C29 1.255 . S
Cd25 O24 2.385 . S
Cd25 O26 2.317 . S
O26 Cd25 2.317 . S
O26 C27 1.232 . S
C27 O26 1.232 . S
C27 O28 1.218 . S
O28 C27 1.218 . S
C29 O22 1.275 1_545 S
C29 O24 1.255 . S
C30 O31 1.258 1_545 S
C30 O32 1.256 . S
O31 Cd23 2.381 1_565 S
O31 C30 1.258 1_565 S
O32 Cd23 2.378 . S
O32 C30 1.256 . S
O33 Cd34 2.300 . S
O33 C40 1.275 . S
Cd34 O33 2.300 . S
Cd34 O42 2.381 . S
Cd34 O43 2.378 . S
O35 Cd36 2.385 . S
O35 C40 1.255 . S
Cd36 O35 2.385 . S
Cd36 O37 2.317 . S
O37 Cd36 2.317 . S
O37 C38 1.232 . S
C38 O37 1.232 . S
C38 O39 1.218 . S
O39 C38 1.218 . S
C40 O33 1.275 . S
C40 O35 1.255 . S
C41 O42 1.258 . S
C41 O43 1.256 . S
O42 Cd34 2.381 . S
O42 C41 1.258 . S
O43 Cd34 2.378 . S
O43 C41 1.256 . S
O44 Cd45 2.300 . S
O44 C51 1.275 . S
Cd45 O44 2.300 . S
Cd45 O53 2.381 . S
Cd45 O54 2.378 . S
O46 Cd47 2.385 1_554 S
O46 C51 1.255 . S
Cd47 O46 2.385 1_556 S
Cd47 O48 2.317 . S
O48 Cd47 2.317 . S
O48 C49 1.232 . S
C49 O48 1.232 . S
C49 O50 1.218 . S
O50 C49 1.218 . S
C51 O44 1.275 . S
C51 O46 1.255 . S
C52 O53 1.258 . S
C52 O54 1.256 . S
O53 Cd45 2.381 . S
O53 C52 1.258 . S
O54 Cd45 2.378 . S
O54 C52 1.256 . S
O55 Cd56 2.300 1_655 S
O55 C62 1.275 1_655 S
Cd56 O55 2.300 1_455 S
Cd56 O64 2.381 1_455 S
Cd56 O65 2.378 . S
O57 Cd58 2.385 1_554 S
O57 C62 1.255 . S
Cd58 O57 2.385 1_556 S
Cd58 O59 2.317 . S
O59 Cd58 2.317 . S
O59 C60 1.232 . S
C60 O59 1.232 . S
C60 O61 1.218 . S
O61 C60 1.218 . S
C62 O55 1.275 1_455 S
C62 O57 1.255 . S
C63 O64 1.258 1_455 S
C63 O65 1.256 . S
O64 Cd56 2.381 1_655 S
O64 C63 1.258 1_655 S
O65 Cd56 2.378 . S
O65 C63 1.256 . S
O66 Cd67 2.300 1_565 S
O66 C73 1.275 1_565 S
Cd67 O66 2.300 1_545 S
Cd67 O75 2.381 1_545 S
Cd67 O76 2.378 . S
O68 Cd69 2.385 1_554 S
O68 C73 1.255 . S
Cd69 O68 2.385 1_556 S
Cd69 O70 2.317 . S
O70 Cd69 2.317 . S
O70 C71 1.232 . S
C71 O70 1.232 . S
C71 O72 1.218 . S
O72 C71 1.218 . S
C73 O66 1.275 1_545 S
C73 O68 1.255 . S
C74 O75 1.258 1_545 S
C74 O76 1.256 . S
O75 Cd67 2.381 1_565 S
O75 C74 1.258 1_565 S
O76 Cd67 2.378 . S
O76 C74 1.256 . S
O77 Cd78 2.300 . S
O77 C84 1.275 . S
Cd78 O77 2.300 . S
Cd78 O86 2.381 . S
Cd78 O87 2.378 . S
O79 Cd80 2.385 1_554 S
O79 C84 1.255 . S
Cd80 O79 2.385 1_556 S
Cd80 O81 2.317 . S
O81 Cd80 2.317 . S
O81 C82 1.232 . S
C82 O81 1.232 . S
C82 O83 1.218 . S
O83 C82 1.218 . S
C84 O77 1.275 . S
C84 O79 1.255 . S
C85 O86 1.258 . S
C85 O87 1.256 . S
O86 Cd78 2.381 . S
O86 C85 1.258 . S
O87 Cd78 2.378 . S
O87 C85 1.256 . S
Gd88 C91 2.818 1_556 S
Gd88 O108 2.377 . S
Gd88 O110 2.448 . S
Gd88 O111 2.506 1_556 S
Gd88 O112 2.435 . S
Gd88 O113 2.717 1_565 S
Gd88 O115 2.395 1_565 S
Gd88 O119 2.327 1_455 S
Gd89 C100 2.818 . S
Gd89 O109 2.395 1_545 S
Gd89 O113 2.327 1_655 S
Gd89 O114 2.377 . S
Gd89 O116 2.448 . S
Gd89 O117 2.506 . S
Gd89 O118 2.435 . S
Gd89 O119 2.717 1_545 S
C90 O108 1.240 1_655 S
C90 O109 1.240 . S
C91 Gd88 2.818 1_554 S
C91 C92 1.510 . S
C91 O110 1.249 1_554 S
C91 O111 1.252 . S
C92 C91 1.510 . S
C92 C93 1.404 . S
C92 C94 1.352 . S
C93 C92 1.404 . S
C93 C97 1.389 . S
C93 H120 0.930 . S
C94 C92 1.352 . S
C94 C96 1.374 . S
C94 H121 0.931 1_455 S
C95 C96 1.359 . S
C95 C97 1.364 . S
C96 C94 1.374 . S
C96 C95 1.359 . S
C96 H122 0.931 1_455 S
C97 C93 1.389 . S
C97 C95 1.364 . S
C97 H123 0.931 . S
C98 O112 1.256 . S
C98 O113 1.257 1_565 S
C99 O114 1.240 1_455 S
C99 O115 1.240 . S
C100 Gd89 2.818 . S
C100 C101 1.510 . S
C100 O116 1.249 . S
C100 O117 1.252 . S
C101 C100 1.510 . S
C101 C102 1.404 . S
C101 C103 1.352 . S
C102 C101 1.404 . S
C102 C106 1.389 . S
C102 H124 0.930 . S
C103 C101 1.352 . S
C103 C105 1.374 . S
C103 H125 0.931 1_655 S
C104 C105 1.359 . S
C104 C106 1.364 . S
C105 C103 1.374 . S
C105 C104 1.359 . S
C105 H126 0.931 1_655 S
C106 C102 1.389 . S
C106 C104 1.364 . S
C106 H127 0.931 . S
C107 O118 1.256 . S
C107 O119 1.257 1_545 S
O108 Gd88 2.377 . S
O108 C90 1.240 1_455 S
O109 Gd89 2.395 1_565 S
O109 C90 1.240 . S
O110 Gd88 2.448 . S
O110 C91 1.249 1_556 S
O111 Gd88 2.506 1_554 S
O111 C91 1.252 . S
O112 Gd88 2.435 . S
O112 C98 1.256 . S
O113 Gd88 2.717 1_545 S
O113 Gd89 2.327 1_455 S
O113 C98 1.257 1_545 S
O114 Gd89 2.377 . S
O114 C99 1.240 1_655 S
O115 Gd88 2.395 1_545 S
O115 C99 1.240 . S
O116 Gd89 2.448 . S
O116 C100 1.249 . S
O117 Gd89 2.506 . S
O117 C100 1.252 . S
O118 Gd89 2.435 . S
O118 C107 1.256 . S
O119 Gd88 2.327 1_655 S
O119 Gd89 2.717 1_565 S
O119 C107 1.257 1_565 S
H120 C93 0.930 . S
H121 C94 0.931 1_655 S
H122 C96 0.931 1_655 S
H123 C97 0.931 . S
H124 C102 0.930 . S
H125 C103 0.931 1_455 S
H126 C105 0.931 1_455 S
H127 C106 0.931 . S
Gd128 C131 2.818 1_556 S
Gd128 O148 2.377 . S
Gd128 O150 2.448 . S
Gd128 O151 2.506 1_556 S
Gd128 O152 2.435 . S
Gd128 O153 2.717 . S
Gd128 O155 2.395 . S
Gd128 O159 2.327 1_545 S
Gd129 C140 2.818 . S
Gd129 O149 2.395 . S
Gd129 O153 2.327 1_565 S
Gd129 O154 2.377 . S
Gd129 O156 2.448 . S
Gd129 O157 2.506 . S
Gd129 O158 2.435 . S
Gd129 O159 2.717 . S
C130 O148 1.240 1_565 S
C130 O149 1.240 . S
C131 Gd128 2.818 1_554 S
C131 C132 1.510 . S
C131 O150 1.249 1_554 S
C131 O151 1.252 . S
C132 C131 1.510 . S
C132 C133 1.404 . S
C132 C134 1.352 . S
C133 C132 1.404 . S
C133 C137 1.389 . S
C133 H160 0.930 . S
C134 C132 1.352 . S
C134 C136 1.374 . S
C134 H161 0.931 1_545 S
C135 C136 1.359 . S
C135 C137 1.364 . S
C136 C134 1.374 . S
C136 C135 1.359 . S
C136 H162 0.931 1_545 S
C137 C133 1.389 . S
C137 C135 1.364 . S
C137 H163 0.931 . S
C138 O152 1.256 . S
C138 O153 1.257 . S
C139 O154 1.240 1_545 S
C139 O155 1.240 . S
C140 Gd129 2.818 . S
C140 C141 1.510 . S
C140 O156 1.249 . S
C140 O157 1.252 . S
C141 C140 1.510 . S
C141 C142 1.404 . S
C141 C143 1.352 . S
C142 C141 1.404 . S
C142 C146 1.389 . S
C142 H164 0.930 . S
C143 C141 1.352 . S
C143 C145 1.374 . S
C143 H165 0.931 1_565 S
C144 C145 1.359 . S
C144 C146 1.364 . S
C145 C143 1.374 . S
C145 C144 1.359 . S
C145 H166 0.931 1_565 S
C146 C142 1.389 . S
C146 C144 1.364 . S
C146 H167 0.931 . S
C147 O158 1.256 . S
C147 O159 1.257 . S
O148 Gd128 2.377 . S
O148 C130 1.240 1_545 S
O149 Gd129 2.395 . S
O149 C130 1.240 . S
O150 Gd128 2.448 . S
O150 C131 1.249 1_556 S
O151 Gd128 2.506 1_554 S
O151 C131 1.252 . S
O152 Gd128 2.435 . S
O152 C138 1.256 . S
O153 Gd128 2.717 . S
O153 Gd129 2.327 1_545 S
O153 C138 1.257 . S
O154 Gd129 2.377 . S
O154 C139 1.240 1_565 S
O155 Gd128 2.395 . S
O155 C139 1.240 . S
O156 Gd129 2.448 . S
O156 C140 1.249 . S
O157 Gd129 2.506 . S
O157 C140 1.252 . S
O158 Gd129 2.435 . S
O158 C147 1.256 . S
O159 Gd128 2.327 1_565 S
O159 Gd129 2.717 . S
O159 C147 1.257 . S
H160 C133 0.930 . S
H161 C134 0.931 1_565 S
H162 C136 0.931 1_565 S
H163 C137 0.931 . S
H164 C142 0.930 . S
H165 C143 0.931 1_545 S
H166 C145 0.931 1_545 S
H167 C146 0.931 . S
Gd168 C171 2.818 1_556 S
Gd168 O188 2.377 . S
Gd168 O190 2.448 . S
Gd168 O191 2.506 1_556 S
Gd168 O192 2.435 . S
Gd168 O193 2.717 . S
Gd168 O195 2.395 . S
Gd168 O199 2.327 . S
Gd169 C180 2.818 . S
Gd169 O189 2.395 . S
Gd169 O193 2.327 . S
Gd169 O194 2.377 . S
Gd169 O196 2.448 . S
Gd169 O197 2.506 . S
Gd169 O198 2.435 . S
Gd169 O199 2.717 . S
C170 O188 1.240 . S
C170 O189 1.240 . S
C171 Gd168 2.818 1_554 S
C171 C172 1.510 . S
C171 O190 1.249 1_554 S
C171 O191 1.252 . S
C172 C171 1.510 . S
C172 C173 1.404 . S
C172 C174 1.352 . S
C173 C172 1.404 . S
C173 C177 1.389 . S
C173 H200 0.930 . S
C174 C172 1.352 . S
C174 C176 1.374 . S
C174 H201 0.931 . S
C175 C176 1.359 . S
C175 C177 1.364 . S
C176 C174 1.374 . S
C176 C175 1.359 . S
C176 H202 0.931 . S
C177 C173 1.389 . S
C177 C175 1.364 . S
C177 H203 0.931 . S
C178 O192 1.256 . S
C178 O193 1.257 . S
C179 O194 1.240 . S
C179 O195 1.240 . S
C180 Gd169 2.818 . S
C180 C181 1.510 . S
C180 O196 1.249 . S
C180 O197 1.252 . S
C181 C180 1.510 . S
C181 C182 1.404 . S
C181 C183 1.352 . S
C182 C181 1.404 . S
C182 C186 1.389 . S
C182 H204 0.930 . S
C183 C181 1.352 . S
C183 C185 1.374 . S
C183 H205 0.931 . S
C184 C185 1.359 . S
C184 C186 1.364 . S
C185 C183 1.374 . S
C185 C184 1.359 . S
C185 H206 0.931 . S
C186 C182 1.389 . S
C186 C184 1.364 . S
C186 H207 0.931 . S
C187 O198 1.256 . S
C187 O199 1.257 . S
O188 Gd168 2.377 . S
O188 C170 1.240 . S
O189 Gd169 2.395 . S
O189 C170 1.240 . S
O190 Gd168 2.448 . S
O190 C171 1.249 1_556 S
O191 Gd168 2.506 1_554 S
O191 C171 1.252 . S
O192 Gd168 2.435 . S
O192 C178 1.256 . S
O193 Gd168 2.717 . S
O193 Gd169 2.327 . S
O193 C178 1.257 . S
O194 Gd169 2.377 . S
O194 C179 1.240 . S
O195 Gd168 2.395 . S
O195 C179 1.240 . S
O196 Gd169 2.448 . S
O196 C180 1.249 . S
O197 Gd169 2.506 . S
O197 C180 1.252 . S
O198 Gd169 2.435 . S
O198 C187 1.256 . S
O199 Gd168 2.327 . S
O199 Gd169 2.717 . S
O199 C187 1.257 . S
H200 C173 0.930 . S
H201 C174 0.931 . S
H202 C176 0.931 . S
H203 C177 0.931 . S
H204 C182 0.930 . S
H205 C183 0.931 . S
H206 C185 0.931 . S
H207 C186 0.931 . S
Gd208 C211 2.818 1_556 S
Gd208 O228 2.377 . S
Gd208 O230 2.448 . S
Gd208 O231 2.506 1_556 S
Gd208 O232 2.435 . S
Gd208 O233 2.717 1_655 S
Gd208 O235 2.395 1_655 S
Gd208 O239 2.327 . S
Gd209 C220 2.818 . S
Gd209 O229 2.395 1_455 S
Gd209 O233 2.327 . S
Gd209 O234 2.377 . S
Gd209 O236 2.448 . S
Gd209 O237 2.506 . S
Gd209 O238 2.435 . S
Gd209 O239 2.717 1_455 S
C210 O228 1.240 . S
C210 O229 1.240 . S
C211 Gd208 2.818 1_554 S
C211 C212 1.510 . S
C211 O230 1.249 1_554 S
C211 O231 1.252 . S
C212 C211 1.510 . S
C212 C213 1.404 . S
C212 C214 1.352 . S
C213 C212 1.404 . S
C213 C217 1.389 . S
C213 H240 0.930 . S
C214 C212 1.352 . S
C214 C216 1.374 . S
C214 H241 0.931 . S
C215 C216 1.359 . S
C215 C217 1.364 . S
C216 C214 1.374 . S
C216 C215 1.359 . S
C216 H242 0.931 . S
C217 C213 1.389 . S
C217 C215 1.364 . S
C217 H243 0.931 . S
C218 O232 1.256 . S
C218 O233 1.257 1_655 S
C219 O234 1.240 . S
C219 O235 1.240 . S
C220 Gd209 2.818 . S
C220 C221 1.510 . S
C220 O236 1.249 . S
C220 O237 1.252 . S
C221 C220 1.510 . S
C221 C222 1.404 . S
C221 C223 1.352 . S
C222 C221 1.404 . S
C222 C226 1.389 . S
C222 H244 0.930 . S
C223 C221 1.352 . S
C223 C225 1.374 . S
C223 H245 0.931 . S
C224 C225 1.359 . S
C224 C226 1.364 . S
C225 C223 1.374 . S
C225 C224 1.359 . S
C225 H246 0.931 . S
C226 C222 1.389 . S
C226 C224 1.364 . S
C226 H247 0.931 . S
C227 O238 1.256 . S
C227 O239 1.257 1_455 S
O228 Gd208 2.377 . S
O228 C210 1.240 . S
O229 Gd209 2.395 1_655 S
O229 C210 1.240 . S
O230 Gd208 2.448 . S
O230 C211 1.249 1_556 S
O231 Gd208 2.506 1_554 S
O231 C211 1.252 . S
O232 Gd208 2.435 . S
O232 C218 1.256 . S
O233 Gd208 2.717 1_455 S
O233 Gd209 2.327 . S
O233 C218 1.257 1_455 S
O234 Gd209 2.377 . S
O234 C219 1.240 . S
O235 Gd208 2.395 1_455 S
O235 C219 1.240 . S
O236 Gd209 2.448 . S
O236 C220 1.249 . S
O237 Gd209 2.506 . S
O237 C220 1.252 . S
O238 Gd209 2.435 . S
O238 C227 1.256 . S
O239 Gd208 2.327 . S
O239 Gd209 2.717 1_655 S
O239 C227 1.257 1_655 S
H240 C213 0.930 . S
H241 C214 0.931 . S
H242 C216 0.931 . S
H243 C217 0.931 . S
H244 C222 0.930 . S
H245 C223 0.931 . S
H246 C225 0.931 . S
H247 C226 0.931 . S
C248 C249 1.345 1_565 S
C248 C254 1.379 . S
C248 N256 1.356 . S
C249 C248 1.345 1_545 S
C249 C255 1.382 . S
C250 C251 1.363 . S
C250 C255 1.379 . S
C250 N257 1.356 . S
C251 C250 1.363 . S
C251 C254 1.363 1_545 S
N252 C254 1.356 . S
N252 H264 0.984 . S
N252 H265 0.985 . S
N253 C255 1.356 . S
N253 H258 0.984 . S
N253 H259 0.985 . S
C254 C248 1.379 . S
C254 C251 1.363 1_565 S
C254 N252 1.356 . S
C255 C249 1.382 . S
C255 C250 1.379 . S
C255 N253 1.356 . S
N256 C248 1.356 . S
N256 H262 0.984 . S
N256 H263 0.984 . S
N257 C250 1.356 . S
N257 H260 0.984 . S
N257 H261 0.985 . S
H258 N253 0.984 . S
H259 N253 0.985 . S
H260 N257 0.984 . S
H261 N257 0.985 . S
H262 N256 0.984 . S
H263 N256 0.984 . S
H264 N252 0.984 . S
H265 N252 0.985 . S
C266 C267 1.363 . S
C266 C272 1.379 . S
C266 N274 1.356 . S
C267 C266 1.363 . S
C267 C273 1.363 . S
C268 C269 1.363 . S
C268 C273 1.379 . S
C268 N275 1.356 . S
C269 C268 1.363 . S
C269 C272 1.363 . S
N270 C272 1.356 . S
N270 H282 0.984 . S
N270 H283 0.985 . S
N271 C273 1.356 . S
N271 H276 0.984 . S
N271 H277 0.985 . S
C272 C266 1.379 . S
C272 C269 1.363 . S
C272 N270 1.356 . S
C273 C267 1.363 . S
C273 C268 1.379 . S
C273 N271 1.356 . S
N274 C266 1.356 . S
N274 H280 0.984 . S
N274 H281 0.984 . S
N275 C268 1.356 . S
N275 H278 0.984 . S
N275 H279 0.985 . S
H276 N271 0.984 . S
H277 N271 0.985 . S
H278 N275 0.984 . S
H279 N275 0.985 . S
H280 N274 0.984 . S
H281 N274 0.984 . S
H282 N270 0.984 . S
H283 N270 0.985 . S
C284 C285 1.363 . S
C284 C290 1.379 . S
C284 N292 1.356 . S
C285 C284 1.363 . S
C285 C291 1.363 . S
C286 C287 1.363 . S
C286 C291 1.379 . S
C286 N293 1.356 . S
C287 C286 1.363 . S
C287 C290 1.363 . S
N288 C290 1.356 . S
N288 H300 0.984 . S
N288 H301 0.985 . S
N289 C291 1.356 . S
N289 H294 0.984 . S
N289 H295 0.985 . S
C290 C284 1.379 . S
C290 C287 1.363 . S
C290 N288 1.356 . S
C291 C285 1.363 . S
C291 C286 1.379 . S
C291 N289 1.356 . S
N292 C284 1.356 . S
N292 H298 0.984 . S
N292 H299 0.984 . S
N293 C286 1.356 . S
N293 H296 0.984 . S
N293 H297 0.985 . S
H294 N289 0.984 . S
H295 N289 0.985 . S
H296 N293 0.984 . S
H297 N293 0.985 . S
H298 N292 0.984 . S
H299 N292 0.984 . S
H300 N288 0.984 . S
H301 N288 0.985 . S
C302 C303 1.382 . S
C302 C308 1.379 . S
C302 N310 1.356 . S
C303 C302 1.382 . S
C303 C309 1.345 1_455 S
C304 C305 1.363 1_655 S
C304 C309 1.379 . S
C304 N311 1.356 . S
C305 C304 1.363 1_455 S
C305 C308 1.363 . S
N306 C308 1.356 . S
N306 H318 0.984 . S
N306 H319 0.985 . S
N307 C309 1.356 . S
N307 H312 0.984 . S
N307 H313 0.985 . S
C308 C302 1.379 . S
C308 C305 1.363 . S
C308 N306 1.356 . S
C309 C303 1.345 1_655 S
C309 C304 1.379 . S
C309 N307 1.356 . S
N310 C302 1.356 . S
N310 H316 0.984 . S
N310 H317 0.984 . S
N311 C304 1.356 . S
N311 H314 0.984 . S
N311 H315 0.985 . S
H312 N307 0.984 . S
H313 N307 0.985 . S
H314 N311 0.984 . S
H315 N311 0.985 . S
H316 N310 0.984 . S
H317 N310 0.984 . S
H318 N306 0.984 . S
H319 N306 0.985 . S
C320 C321 1.376 . S
C320 C326 1.379 . S
C320 N328 1.356 . S
C321 C320 1.376 . S
C321 C327 1.350 1_565 S
C322 C323 1.363 1_545 S
C322 C327 1.379 . S
C322 N329 1.356 1_554 S
C323 C322 1.363 1_565 S
C323 C326 1.363 . S
N324 C326 1.356 . S
N324 H336 0.984 . S
N324 H337 0.985 1_554 S
N325 C327 1.356 . S
N325 H330 0.984 . S
N325 H331 0.985 . S
C326 C320 1.379 . S
C326 C323 1.363 . S
C326 N324 1.356 . S
C327 C321 1.350 1_545 S
C327 C322 1.379 . S
C327 N325 1.356 . S
N328 C320 1.356 . S
N328 H334 0.984 . S
N328 H335 0.984 . S
N329 C322 1.356 1_556 S
N329 H332 0.984 . S
N329 H333 0.985 . S
H330 N325 0.984 . S
H331 N325 0.985 . S
H332 N329 0.984 . S
H333 N329 0.985 . S
H334 N328 0.984 . S
H335 N328 0.984 . S
H336 N324 0.984 . S
H337 N324 0.985 1_556 S
C338 C339 1.363 . S
C338 C344 1.379 . S
C338 N346 1.356 . S
C339 C338 1.363 . S
C339 C345 1.363 . S
C340 C341 1.363 . S
C340 C345 1.379 . S
C340 N347 1.356 1_554 S
C341 C340 1.363 . S
C341 C344 1.363 . S
N342 C344 1.356 . S
N342 H354 0.984 . S
N342 H355 0.985 1_554 S
N343 C345 1.356 . S
N343 H348 0.984 . S
N343 H349 0.985 . S
C344 C338 1.379 . S
C344 C341 1.363 . S
C344 N342 1.356 . S
C345 C339 1.363 . S
C345 C340 1.379 . S
C345 N343 1.356 . S
N346 C338 1.356 . S
N346 H352 0.984 . S
N346 H353 0.984 . S
N347 C340 1.356 1_556 S
N347 H350 0.984 . S
N347 H351 0.985 . S
H348 N343 0.984 . S
H349 N343 0.985 . S
H350 N347 0.984 . S
H351 N347 0.985 . S
H352 N346 0.984 . S
H353 N346 0.984 . S
H354 N342 0.984 . S
H355 N342 0.985 1_556 S
C356 C357 1.363 . S
C356 C362 1.379 . S
C356 N364 1.356 . S
C357 C356 1.363 . S
C357 C363 1.363 . S
C358 C359 1.363 . S
C358 C363 1.379 . S
C358 N365 1.356 1_554 S
C359 C358 1.363 . S
C359 C362 1.363 . S
N360 C362 1.356 . S
N360 H372 0.984 . S
N360 H373 0.985 1_554 S
N361 C363 1.356 . S
N361 H366 0.984 . S
N361 H367 0.985 . S
C362 C356 1.379 . S
C362 C359 1.363 . S
C362 N360 1.356 . S
C363 C357 1.363 . S
C363 C358 1.379 . S
C363 N361 1.356 . S
N364 C356 1.356 . S
N364 H370 0.984 . S
N364 H371 0.984 . S
N365 C358 1.356 1_556 S
N365 H368 0.984 . S
N365 H369 0.985 . S
H366 N361 0.984 . S
H367 N361 0.985 . S
H368 N365 0.984 . S
H369 N365 0.985 . S
H370 N364 0.984 . S
H371 N364 0.984 . S
H372 N360 0.984 . S
H373 N360 0.985 1_556 S
C374 C375 1.376 . S
C374 C380 1.379 . S
C374 N382 1.356 . S
C375 C374 1.376 . S
C375 C381 1.351 1_655 S
C376 C377 1.363 1_455 S
C376 C381 1.379 . S
C376 N383 1.356 . S
C377 C376 1.363 1_655 S
C377 C380 1.363 . S
N378 C380 1.356 1_556 S
N378 H390 0.984 . S
N378 H391 0.985 . S
N379 C381 1.356 . S
N379 H384 0.984 . S
N379 H385 0.985 . S
C380 C374 1.379 . S
C380 C377 1.363 . S
C380 N378 1.356 1_554 S
C381 C375 1.351 1_455 S
C381 C376 1.379 . S
C381 N379 1.356 . S
N382 C374 1.356 . S
N382 H388 0.984 . S
N382 H389 0.984 . S
N383 C376 1.356 . S
N383 H386 0.984 1_554 S
N383 H387 0.985 . S
H384 N379 0.984 . S
H385 N379 0.985 . S
H386 N383 0.984 1_556 S
H387 N383 0.985 . S
H388 N382 0.984 . S
H389 N382 0.984 . S
H390 N378 0.984 . S
H391 N378 0.985 . S
C392 C393 1.363 . S
C392 C398 1.379 . S
C392 N400 1.356 1_655 S
C393 C392 1.363 . S
C393 C399 1.363 . S
C394 C395 1.363 . S
C394 C399 1.379 . S
C394 N401 1.356 . S
C395 C394 1.363 . S
C395 C398 1.363 . S
N396 C398 1.356 . S
N396 H408 0.984 . S
N396 H409 0.985 . S
N397 C399 1.356 . S
N397 H402 0.984 1_655 S
N397 H403 0.985 1_554 S
C398 C392 1.379 . S
C398 C395 1.363 . S
C398 N396 1.356 . S
C399 C393 1.363 . S
C399 C394 1.379 . S
C399 N397 1.356 . S
N400 C392 1.356 1_455 S
N400 H406 0.984 . S
N400 H407 0.984 . S
N401 C394 1.356 . S
N401 H404 0.984 . S
N401 H405 0.985 . S
H402 N397 0.984 1_455 S
H403 N397 0.985 1_556 S
H404 N401 0.984 . S
H405 N401 0.985 . S
H406 N400 0.984 . S
H407 N400 0.984 . S
H408 N396 0.984 . S
H409 N396 0.985 . S
C410 C411 1.363 . S
C410 C416 1.379 . S
C410 N418 1.356 . S
C411 C410 1.363 . S
C411 C417 1.363 1_565 S
C412 C413 1.363 . S
C412 C417 1.379 1_565 S
C412 N419 1.356 . S
C413 C412 1.363 . S
C413 C416 1.363 . S
N414 C416 1.356 . S
N414 H426 0.984 . S
N414 H427 0.985 . S
N415 C417 1.356 . S
N415 H420 0.984 . S
N415 H421 0.985 . S
C416 C410 1.379 . S
C416 C413 1.363 . S
C416 N414 1.356 . S
C417 C411 1.363 1_545 S
C417 C412 1.379 1_545 S
C417 N415 1.356 . S
N418 C410 1.356 . S
N418 H424 0.984 . S
N418 H425 0.984 . S
N419 C412 1.356 . S
N419 H422 0.984 . S
N419 H423 0.985 1_565 S
H420 N415 0.984 . S
H421 N415 0.985 . S
H422 N419 0.984 . S
H423 N419 0.985 1_545 S
H424 N418 0.984 . S
H425 N418 0.984 . S
H426 N414 0.984 . S
H427 N414 0.985 . S
C428 C429 1.363 . S
C428 C434 1.379 . S
C428 N436 1.356 . S
C429 C428 1.363 . S
C429 C435 1.363 . S
C430 C431 1.363 . S
C430 C435 1.379 . S
C430 N437 1.356 . S
C431 C430 1.363 . S
C431 C434 1.363 . S
N432 C434 1.356 . S
N432 H444 0.984 . S
N432 H445 0.985 . S
N433 C435 1.356 . S
N433 H438 0.984 . S
N433 H439 0.985 . S
C434 C428 1.379 . S
C434 C431 1.363 . S
C434 N432 1.356 . S
C435 C429 1.363 . S
C435 C430 1.379 . S
C435 N433 1.356 . S
N436 C428 1.356 . S
N436 H442 0.984 . S
N436 H443 0.984 . S
N437 C430 1.356 . S
N437 H440 0.984 . S
N437 H441 0.985 . S
H438 N433 0.984 . S
H439 N433 0.985 . S
H440 N437 0.984 . S
H441 N437 0.985 . S
H442 N436 0.984 . S
H443 N436 0.984 . S
H444 N432 0.984 . S
H445 N432 0.985 . S
C446 C447 1.363 . S
C446 C452 1.379 . S
C446 N454 1.356 . S
C447 C446 1.363 . S
C447 C453 1.363 . S
C448 C449 1.363 . S
C448 C453 1.379 . S
C448 N455 1.356 . S
C449 C448 1.363 . S
C449 C452 1.363 . S
N450 C452 1.356 . S
N450 H462 0.984 . S
N450 H463 0.985 . S
N451 C453 1.356 . S
N451 H456 0.984 . S
N451 H457 0.985 . S
C452 C446 1.379 . S
C452 C449 1.363 . S
C452 N450 1.356 . S
C453 C447 1.363 . S
C453 C448 1.379 . S
C453 N451 1.356 . S
N454 C446 1.356 . S
N454 H460 0.984 . S
N454 H461 0.984 . S
N455 C448 1.356 . S
N455 H458 0.984 . S
N455 H459 0.985 . S
H456 N451 0.984 . S
H457 N451 0.985 . S
H458 N455 0.984 . S
H459 N455 0.985 . S
H460 N454 0.984 . S
H461 N454 0.984 . S
H462 N450 0.984 . S
H463 N450 0.985 . S
C464 C465 1.363 . S
C464 C470 1.379 . S
C464 N472 1.356 . S
C465 C464 1.363 . S
C465 C471 1.363 . S
C466 C467 1.363 . S
C466 C471 1.379 . S
C466 N473 1.356 . S
C467 C466 1.363 . S
C467 C470 1.363 . S
N468 C470 1.356 . S
N468 H480 0.984 . S
N468 H481 0.985 . S
N469 C471 1.356 1_655 S
N469 H474 0.984 . S
N469 H475 0.985 . S
C470 C464 1.379 . S
C470 C467 1.363 . S
C470 N468 1.356 . S
C471 C465 1.363 . S
C471 C466 1.379 . S
C471 N469 1.356 1_455 S
N472 C464 1.356 . S
N472 H478 0.984 . S
N472 H479 0.984 1_455 S
N473 C466 1.356 . S
N473 H476 0.984 . S
N473 H477 0.985 . S
H474 N469 0.984 . S
H475 N469 0.985 . S
H476 N473 0.984 . S
H477 N473 0.985 . S
H478 N472 0.984 . S
H479 N472 0.984 1_655 S
H480 N468 0.984 . S
H481 N468 0.985 . S
C482 C483 1.363 . S
C482 C488 1.379 . S
C482 N490 1.356 . S
C483 C482 1.363 . S
C483 C489 1.363 1_545 S
C484 C485 1.363 . S
C484 C489 1.379 1_545 S
C484 N491 1.356 . S
C485 C484 1.363 . S
C485 C488 1.363 . S
N486 C488 1.356 . S
N486 H498 0.984 . S
N486 H499 0.985 . S
N487 C489 1.356 . S
N487 H492 0.984 . S
N487 H493 0.985 . S
C488 C482 1.379 . S
C488 C485 1.363 . S
C488 N486 1.356 . S
C489 C483 1.363 1_565 S
C489 C484 1.379 1_565 S
C489 N487 1.356 . S
N490 C482 1.356 . S
N490 H496 0.984 . S
N490 H497 0.984 . S
N491 C484 1.356 . S
N491 H494 0.984 . S
N491 H495 0.985 1_545 S
H492 N487 0.984 . S
H493 N487 0.985 . S
H494 N491 0.984 . S
H495 N491 0.985 1_565 S
H496 N490 0.984 . S
H497 N490 0.984 . S
H498 N486 0.984 . S
H499 N486 0.985 . S
C500 C501 1.363 . S
C500 C506 1.379 . S
C500 N508 1.356 . S
C501 C500 1.363 . S
C501 C507 1.363 . S
C502 C503 1.363 . S
C502 C507 1.379 . S
C502 N509 1.356 . S
C503 C502 1.363 . S
C503 C506 1.363 . S
N504 C506 1.356 . S
N504 H516 0.984 . S
N504 H517 0.985 . S
N505 C507 1.356 . S
N505 H510 0.984 . S
N505 H511 0.985 . S
C506 C500 1.379 . S
C506 C503 1.363 . S
C506 N504 1.356 . S
C507 C501 1.363 . S
C507 C502 1.379 . S
C507 N505 1.356 . S
N508 C500 1.356 . S
N508 H514 0.984 . S
N508 H515 0.984 . S
N509 C502 1.356 . S
N509 H512 0.984 . S
N509 H513 0.985 . S
H510 N505 0.984 . S
H511 N505 0.985 . S
H512 N509 0.984 . S
H513 N509 0.985 . S
H514 N508 0.984 . S
H515 N508 0.984 . S
H516 N504 0.984 . S
H517 N504 0.985 . S
C518 C519 1.363 . S
C518 C524 1.379 . S
C518 N526 1.356 . S
C519 C518 1.363 . S
C519 C525 1.363 . S
C520 C521 1.363 . S
C520 C525 1.379 . S
C520 N527 1.356 . S
C521 C520 1.363 . S
C521 C524 1.363 . S
N522 C524 1.356 . S
N522 H534 0.984 . S
N522 H535 0.985 . S
N523 C525 1.356 . S
N523 H528 0.984 . S
N523 H529 0.985 . S
C524 C518 1.379 . S
C524 C521 1.363 . S
C524 N522 1.356 . S
C525 C519 1.363 . S
C525 C520 1.379 . S
C525 N523 1.356 . S
N526 C518 1.356 . S
N526 H532 0.984 . S
N526 H533 0.984 . S
N527 C520 1.356 . S
N527 H530 0.984 . S
N527 H531 0.985 . S
H528 N523 0.984 . S
H529 N523 0.985 . S
H530 N527 0.984 . S
H531 N527 0.985 . S
H532 N526 0.984 . S
H533 N526 0.984 . S
H534 N522 0.984 . S
H535 N522 0.985 . S
C536 C537 1.363 1_655 S
C536 C542 1.379 . S
C536 N544 1.356 . S
C537 C536 1.363 1_455 S
C537 C543 1.363 . S
C538 C539 1.363 . S
C538 C543 1.379 . S
C538 N545 1.356 . S
C539 C538 1.363 . S
C539 C542 1.363 1_455 S
N540 C542 1.356 . S
N540 H552 0.984 . S
N540 H553 0.985 . S
N541 C543 1.356 . S
N541 H546 0.984 . S
N541 H547 0.985 . S
C542 C536 1.379 . S
C542 C539 1.363 1_655 S
C542 N540 1.356 . S
C543 C537 1.363 . S
C543 C538 1.379 . S
C543 N541 1.356 . S
N544 C536 1.356 . S
N544 H550 0.984 . S
N544 H551 0.984 . S
N545 C538 1.356 . S
N545 H548 0.984 . S
N545 H549 0.985 1_556 S
H546 N541 0.984 . S
H547 N541 0.985 . S
H548 N545 0.984 . S
H549 N545 0.985 1_554 S
H550 N544 0.984 . S
H551 N544 0.984 . S
H552 N540 0.984 . S
H553 N540 0.985 . S
C554 C555 1.363 . S
C554 C560 1.379 . S
C554 N562 1.356 . S
C555 C554 1.363 . S
C555 C561 1.363 1_545 S
C556 C557 1.363 1_565 S
C556 C561 1.379 . S
C556 N563 1.356 . S
C557 C556 1.363 1_545 S
C557 C560 1.363 . S
N558 C560 1.356 . S
N558 H570 0.984 . S
N558 H571 0.985 . S
N559 C561 1.356 . S
N559 H564 0.984 . S
N559 H565 0.985 . S
C560 C554 1.379 . S
C560 C557 1.363 . S
C560 N558 1.356 . S
C561 C555 1.363 1_565 S
C561 C556 1.379 . S
C561 N559 1.356 . S
N562 C554 1.356 . S
N562 H568 0.984 . S
N562 H569 0.984 . S
N563 C556 1.356 . S
N563 H566 0.984 . S
N563 H567 0.985 1_556 S
H564 N559 0.984 . S
H565 N559 0.985 . S
H566 N563 0.984 . S
H567 N563 0.985 1_554 S
H568 N562 0.984 . S
H569 N562 0.984 . S
H570 N558 0.984 . S
H571 N558 0.985 . S
C572 C573 1.363 . S
C572 C578 1.379 . S
C572 N580 1.356 . S
C573 C572 1.363 . S
C573 C579 1.363 . S
C574 C575 1.363 . S
C574 C579 1.379 . S
C574 N581 1.356 . S
C575 C574 1.363 . S
C575 C578 1.363 . S
N576 C578 1.356 . S
N576 H588 0.984 1_556 S
N576 H589 0.985 . S
N577 C579 1.356 . S
N577 H582 0.984 . S
N577 H583 0.985 . S
C578 C572 1.379 . S
C578 C575 1.363 . S
C578 N576 1.356 . S
C579 C573 1.363 . S
C579 C574 1.379 . S
C579 N577 1.356 . S
N580 C572 1.356 . S
N580 H586 0.984 . S
N580 H587 0.984 . S
N581 C574 1.356 . S
N581 H584 0.984 . S
N581 H585 0.985 . S
H582 N577 0.984 . S
H583 N577 0.985 . S
H584 N581 0.984 . S
H585 N581 0.985 . S
H586 N580 0.984 . S
H587 N580 0.984 . S
H588 N576 0.984 1_554 S
H589 N576 0.985 . S
C590 C591 1.363 . S
C590 C596 1.379 . S
C590 N598 1.356 . S
C591 C590 1.363 . S
C591 C597 1.363 . S
C592 C593 1.363 . S
C592 C597 1.379 . S
C592 N599 1.356 . S
C593 C592 1.363 . S
C593 C596 1.363 . S
N594 C596 1.356 . S
N594 H606 0.984 . S
N594 H607 0.985 . S
N595 C597 1.356 . S
N595 H600 0.984 . S
N595 H601 0.985 1_556 S
C596 C590 1.379 . S
C596 C593 1.363 . S
C596 N594 1.356 . S
C597 C591 1.363 . S
C597 C592 1.379 . S
C597 N595 1.356 . S
N598 C590 1.356 . S
N598 H604 0.984 . S
N598 H605 0.984 . S
N599 C592 1.356 . S
N599 H602 0.984 . S
N599 H603 0.985 1_556 S
H600 N595 0.984 . S
H601 N595 0.985 1_554 S
H602 N599 0.984 . S
H603 N599 0.985 1_554 S
H604 N598 0.984 . S
H605 N598 0.984 . S
H606 N594 0.984 . S
H607 N594 0.985 . S
C608 C609 1.363 . S
C608 C614 1.379 . S
C608 N616 1.356 . S
C609 C608 1.363 . S
C609 C615 1.363 1_655 S
C610 C611 1.363 1_455 S
C610 C615 1.379 . S
C610 N617 1.356 . S
C611 C610 1.363 1_655 S
C611 C614 1.363 . S
N612 C614 1.356 . S
N612 H624 0.984 . S
N612 H625 0.985 . S
N613 C615 1.356 . S
N613 H618 0.984 . S
N613 H619 0.985 . S
C614 C608 1.379 . S
C614 C611 1.363 . S
C614 N612 1.356 . S
C615 C609 1.363 1_455 S
C615 C610 1.379 . S
C615 N613 1.356 . S
N616 C608 1.356 . S
N616 H622 0.984 . S
N616 H623 0.984 . S
N617 C610 1.356 . S
N617 H620 0.984 . S
N617 H621 0.985 . S
H618 N613 0.984 . S
H619 N613 0.985 . S
H620 N617 0.984 . S
H621 N617 0.985 . S
H622 N616 0.984 . S
H623 N616 0.984 . S
H624 N612 0.984 . S
H625 N612 0.985 . S
C626 C627 1.363 1_545 S
C626 C632 1.379 . S
C626 N634 1.356 . S
C627 C626 1.363 1_565 S
C627 C633 1.363 . S
C628 C629 1.363 . S
C628 C633 1.379 . S
C628 N635 1.356 . S
C629 C628 1.363 . S
C629 C632 1.363 1_565 S
N630 C632 1.356 . S
N630 H642 0.984 . S
N630 H643 0.985 . S
N631 C633 1.356 . S
N631 H636 0.984 . S
N631 H637 0.985 . S
C632 C626 1.379 . S
C632 C629 1.363 1_545 S
C632 N630 1.356 . S
C633 C627 1.363 . S
C633 C628 1.379 . S
C633 N631 1.356 . S
N634 C626 1.356 . S
N634 H640 0.984 . S
N634 H641 0.984 . S
N635 C628 1.356 . S
N635 H638 0.984 . S
N635 H639 0.985 . S
H636 N631 0.984 . S
H637 N631 0.985 . S
H638 N635 0.984 . S
H639 N635 0.985 . S
H640 N634 0.984 . S
H641 N634 0.984 . S
H642 N630 0.984 . S
H643 N630 0.985 . S
C644 C645 1.363 . S
C644 C650 1.379 . S
C644 N652 1.356 . S
C645 C644 1.363 . S
C645 C651 1.363 . S
C646 C647 1.363 . S
C646 C651 1.379 . S
C646 N653 1.356 . S
C647 C646 1.363 . S
C647 C650 1.363 . S
N648 C650 1.356 . S
N648 H660 0.984 . S
N648 H661 0.985 . S
N649 C651 1.356 . S
N649 H654 0.984 . S
N649 H655 0.985 . S
C650 C644 1.379 . S
C650 C647 1.363 . S
C650 N648 1.356 . S
C651 C645 1.363 . S
C651 C646 1.379 . S
C651 N649 1.356 . S
N652 C644 1.356 . S
N652 H658 0.984 . S
N652 H659 0.984 . S
N653 C646 1.356 . S
N653 H656 0.984 . S
N653 H657 0.985 . S
H654 N649 0.984 . S
H655 N649 0.985 . S
H656 N653 0.984 . S
H657 N653 0.985 . S
H658 N652 0.984 . S
H659 N652 0.984 . S
H660 N648 0.984 . S
H661 N648 0.985 . S
C662 C663 1.363 . S
C662 C668 1.379 . S
C662 N670 1.356 . S
C663 C662 1.363 . S
C663 C669 1.363 . S
C664 C665 1.363 . S
C664 C669 1.379 . S
C664 N671 1.356 . S
C665 C664 1.363 . S
C665 C668 1.363 . S
N666 C668 1.356 . S
N666 H678 0.984 . S
N666 H679 0.985 . S
N667 C669 1.356 . S
N667 H672 0.984 . S
N667 H673 0.985 . S
C668 C662 1.379 . S
C668 C665 1.363 . S
C668 N666 1.356 . S
C669 C663 1.363 . S
C669 C664 1.379 . S
C669 N667 1.356 . S
N670 C662 1.356 . S
N670 H676 0.984 . S
N670 H677 0.984 . S
N671 C664 1.356 . S
N671 H674 0.984 . S
N671 H675 0.985 . S
H672 N667 0.984 . S
H673 N667 0.985 . S
H674 N671 0.984 . S
H675 N671 0.985 . S
H676 N670 0.984 . S
H677 N670 0.984 . S
H678 N666 0.984 . S
H679 N666 0.985 . S
C249 C74 1.943 . S
C251 C98 2.135 1_545 S
C269 C138 2.140 . S
C267 C85 1.940 . S
C287 C178 2.141 . S
C285 C52 1.944 . S
C305 C218 2.139 1_455 S
C303 C63 1.945 . S
C323 C107 2.138 1_564 S
C321 C30 1.946 1_565 S
C339 C41 1.950 . S
C341 C147 2.142 1_554 S
C357 C8 1.951 . S
C359 C187 2.140 1_554 S
C375 C19 1.944 1_655 S
C377 C227 2.139 1_654 S
C395 C104 0.878 . S
C393 C62 0.923 1_655 S
C413 C144 0.879 . S
C411 C73 0.926 1_565 S
C431 C184 0.877 . S
C429 C84 0.923 . S
C447 C51 0.923 . S
C449 C224 0.873 . S
C465 C18 0.862 . S
C467 C95 0.881 . S
C485 C135 0.878 . S
C483 C29 0.861 . S
C503 C175 0.877 . S
C501 C40 0.862 . S
C519 C7 0.862 . S
C521 C215 0.879 . S
C537 C60 1.898 . S
C539 C99 2.546 . S
C555 C71 1.892 . S
C557 C139 2.544 . S
C575 C179 2.543 . S
C573 C82 1.885 . S
C593 C219 2.548 . S
C591 C49 1.888 . S
C609 C16 2.026 1_655 S
C611 C90 2.554 . S
C629 C130 2.545 . S
C627 C27 2.018 1_565 S
C647 C170 2.542 . S
C645 C38 2.026 . S
C663 C5 2.030 . S
C665 C210 2.551 . S
