# Generated by pormake.
# Topology iac, (4,6)-cn, num edge types: 1
# Building blocks:
#     Node 0, Type 0, BuildingBlock: NAHDIM_clean_sbu_0, # of connection points: 4
#     Node 1, Type 0, BuildingBlock: NAHDIM_clean_sbu_0, # of connection points: 4
#     Node 2, Type 0, BuildingBlock: NAHDIM_clean_sbu_0, # of connection points: 4
#     Node 3, Type 0, BuildingBlock: NAHDIM_clean_sbu_0, # of connection points: 4
#     Node 4, Type 0, BuildingBlock: NAHDIM_clean_sbu_0, # of connection points: 4
#     Node 5, Type 0, BuildingBlock: NAHDIM_clean_sbu_0, # of connection points: 4
#     Node 6, Type 0, BuildingBlock: NAHDIM_clean_sbu_0, # of connection points: 4
#     Node 7, Type 0, BuildingBlock: NAHDIM_clean_sbu_0, # of connection points: 4
#     Node 8, Type 0, BuildingBlock: NAHDIM_clean_sbu_0, # of connection points: 4
#     Node 9, Type 0, BuildingBlock: NAHDIM_clean_sbu_0, # of connection points: 4
#     Node 10, Type 0, BuildingBlock: NAHDIM_clean_sbu_0, # of connection points: 4
#     Node 11, Type 0, BuildingBlock: NAHDIM_clean_sbu_0, # of connection points: 4
#     Node 12, Type 0, BuildingBlock: NAHDIM_clean_sbu_0, # of connection points: 4
#     Node 13, Type 0, BuildingBlock: NAHDIM_clean_sbu_0, # of connection points: 4
#     Node 14, Type 0, BuildingBlock: NAHDIM_clean_sbu_0, # of connection points: 4
#     Node 15, Type 0, BuildingBlock: NAHDIM_clean_sbu_0, # of connection points: 4
#     Node 16, Type 0, BuildingBlock: NAHDIM_clean_sbu_0, # of connection points: 4
#     Node 17, Type 0, BuildingBlock: NAHDIM_clean_sbu_0, # of connection points: 4
#     Node 18, Type 0, BuildingBlock: NAHDIM_clean_sbu_0, # of connection points: 4
#     Node 19, Type 0, BuildingBlock: NAHDIM_clean_sbu_0, # of connection points: 4
#     Node 20, Type 0, BuildingBlock: NAHDIM_clean_sbu_0, # of connection points: 4
#     Node 21, Type 0, BuildingBlock: NAHDIM_clean_sbu_0, # of connection points: 4
#     Node 22, Type 0, BuildingBlock: NAHDIM_clean_sbu_0, # of connection points: 4
#     Node 23, Type 0, BuildingBlock: NAHDIM_clean_sbu_0, # of connection points: 4
#     Node 24, Type 1, BuildingBlock: JUFBIX_clean_sbu_0, # of connection points: 6
#     Node 25, Type 1, BuildingBlock: JUFBIX_clean_sbu_0, # of connection points: 6
#     Node 26, Type 1, BuildingBlock: JUFBIX_clean_sbu_0, # of connection points: 6
#     Node 27, Type 1, BuildingBlock: JUFBIX_clean_sbu_0, # of connection points: 6
#     Node 28, Type 1, BuildingBlock: JUFBIX_clean_sbu_0, # of connection points: 6
#     Node 29, Type 1, BuildingBlock: JUFBIX_clean_sbu_0, # of connection points: 6
#     Node 30, Type 1, BuildingBlock: JUFBIX_clean_sbu_0, # of connection points: 6
#     Node 31, Type 1, BuildingBlock: JUFBIX_clean_sbu_0, # of connection points: 6
#     Node 32, Type 1, BuildingBlock: JUFBIX_clean_sbu_0, # of connection points: 6
#     Node 33, Type 1, BuildingBlock: JUFBIX_clean_sbu_0, # of connection points: 6
#     Node 34, Type 1, BuildingBlock: JUFBIX_clean_sbu_0, # of connection points: 6
#     Node 35, Type 1, BuildingBlock: JUFBIX_clean_sbu_0, # of connection points: 6
#     Node 36, Type 1, BuildingBlock: JUFBIX_clean_sbu_0, # of connection points: 6
#     Node 37, Type 1, BuildingBlock: JUFBIX_clean_sbu_0, # of connection points: 6
#     Node 38, Type 1, BuildingBlock: JUFBIX_clean_sbu_0, # of connection points: 6
#     Node 39, Type 1, BuildingBlock: JUFBIX_clean_sbu_0, # of connection points: 6
#     Edge 40, Type (0, 1), BuildingBlock: CIFDUS_clean_linker_0, # of connection points: 2
#     Edge 41, Type (0, 1), BuildingBlock: CIFDUS_clean_linker_0, # of connection points: 2
#     Edge 42, Type (0, 1), BuildingBlock: CIFDUS_clean_linker_0, # of connection points: 2
#     Edge 43, Type (0, 1), BuildingBlock: CIFDUS_clean_linker_0, # of connection points: 2
#     Edge 44, Type (0, 1), BuildingBlock: CIFDUS_clean_linker_0, # of connection points: 2
#     Edge 45, Type (0, 1), BuildingBlock: CIFDUS_clean_linker_0, # of connection points: 2
#     Edge 46, Type (0, 1), BuildingBlock: CIFDUS_clean_linker_0, # of connection points: 2
#     Edge 47, Type (0, 1), BuildingBlock: CIFDUS_clean_linker_0, # of connection points: 2
#     Edge 48, Type (0, 1), BuildingBlock: CIFDUS_clean_linker_0, # of connection points: 2
#     Edge 49, Type (0, 1), BuildingBlock: CIFDUS_clean_linker_0, # of connection points: 2
#     Edge 50, Type (0, 1), BuildingBlock: CIFDUS_clean_linker_0, # of connection points: 2
#     Edge 51, Type (0, 1), BuildingBlock: CIFDUS_clean_linker_0, # of connection points: 2
#     Edge 52, Type (0, 1), BuildingBlock: CIFDUS_clean_linker_0, # of connection points: 2
#     Edge 53, Type (0, 1), BuildingBlock: CIFDUS_clean_linker_0, # of connection points: 2
#     Edge 54, Type (0, 1), BuildingBlock: CIFDUS_clean_linker_0, # of connection points: 2
#     Edge 55, Type (0, 1), BuildingBlock: CIFDUS_clean_linker_0, # of connection points: 2
#     Edge 56, Type (0, 1), BuildingBlock: CIFDUS_clean_linker_0, # of connection points: 2
#     Edge 57, Type (0, 1), BuildingBlock: CIFDUS_clean_linker_0, # of connection points: 2
#     Edge 58, Type (0, 1), BuildingBlock: CIFDUS_clean_linker_0, # of connection points: 2
#     Edge 59, Type (0, 1), BuildingBlock: CIFDUS_clean_linker_0, # of connection points: 2
#     Edge 60, Type (0, 1), BuildingBlock: CIFDUS_clean_linker_0, # of connection points: 2
#     Edge 61, Type (0, 1), BuildingBlock: CIFDUS_clean_linker_0, # of connection points: 2
#     Edge 62, Type (0, 1), BuildingBlock: CIFDUS_clean_linker_0, # of connection points: 2
#     Edge 63, Type (0, 1), BuildingBlock: CIFDUS_clean_linker_0, # of connection points: 2
#     Edge 64, Type (0, 1), BuildingBlock: CIFDUS_clean_linker_0, # of connection points: 2
#     Edge 65, Type (0, 1), BuildingBlock: CIFDUS_clean_linker_0, # of connection points: 2
#     Edge 66, Type (0, 1), BuildingBlock: CIFDUS_clean_linker_0, # of connection points: 2
#     Edge 67, Type (0, 1), BuildingBlock: CIFDUS_clean_linker_0, # of connection points: 2
#     Edge 68, Type (0, 1), BuildingBlock: CIFDUS_clean_linker_0, # of connection points: 2
#     Edge 69, Type (0, 1), BuildingBlock: CIFDUS_clean_linker_0, # of connection points: 2
#     Edge 70, Type (0, 1), BuildingBlock: CIFDUS_clean_linker_0, # of connection points: 2
#     Edge 71, Type (0, 1), BuildingBlock: CIFDUS_clean_linker_0, # of connection points: 2
#     Edge 72, Type (0, 1), BuildingBlock: CIFDUS_clean_linker_0, # of connection points: 2
#     Edge 73, Type (0, 1), BuildingBlock: CIFDUS_clean_linker_0, # of connection points: 2
#     Edge 74, Type (0, 1), BuildingBlock: CIFDUS_clean_linker_0, # of connection points: 2
#     Edge 75, Type (0, 1), BuildingBlock: CIFDUS_clean_linker_0, # of connection points: 2
#     Edge 76, Type (0, 1), BuildingBlock: CIFDUS_clean_linker_0, # of connection points: 2
#     Edge 77, Type (0, 1), BuildingBlock: CIFDUS_clean_linker_0, # of connection points: 2
#     Edge 78, Type (0, 1), BuildingBlock: CIFDUS_clean_linker_0, # of connection points: 2
#     Edge 79, Type (0, 1), BuildingBlock: CIFDUS_clean_linker_0, # of connection points: 2
#     Edge 80, Type (0, 1), BuildingBlock: CIFDUS_clean_linker_0, # of connection points: 2
#     Edge 81, Type (0, 1), BuildingBlock: CIFDUS_clean_linker_0, # of connection points: 2
#     Edge 82, Type (0, 1), BuildingBlock: CIFDUS_clean_linker_0, # of connection points: 2
#     Edge 83, Type (0, 1), BuildingBlock: CIFDUS_clean_linker_0, # of connection points: 2
#     Edge 84, Type (0, 1), BuildingBlock: CIFDUS_clean_linker_0, # of connection points: 2
#     Edge 85, Type (0, 1), BuildingBlock: CIFDUS_clean_linker_0, # of connection points: 2
#     Edge 86, Type (0, 1), BuildingBlock: CIFDUS_clean_linker_0, # of connection points: 2
#     Edge 87, Type (0, 1), BuildingBlock: CIFDUS_clean_linker_0, # of connection points: 2
#     Edge 88, Type (0, 1), BuildingBlock: CIFDUS_clean_linker_0, # of connection points: 2
#     Edge 89, Type (0, 1), BuildingBlock: CIFDUS_clean_linker_0, # of connection points: 2
#     Edge 90, Type (0, 1), BuildingBlock: CIFDUS_clean_linker_0, # of connection points: 2
#     Edge 91, Type (0, 1), BuildingBlock: CIFDUS_clean_linker_0, # of connection points: 2
#     Edge 92, Type (0, 1), BuildingBlock: CIFDUS_clean_linker_0, # of connection points: 2
#     Edge 93, Type (0, 1), BuildingBlock: CIFDUS_clean_linker_0, # of connection points: 2
#     Edge 94, Type (0, 1), BuildingBlock: CIFDUS_clean_linker_0, # of connection points: 2
#     Edge 95, Type (0, 1), BuildingBlock: CIFDUS_clean_linker_0, # of connection points: 2
#     Edge 96, Type (0, 1), BuildingBlock: CIFDUS_clean_linker_0, # of connection points: 2
#     Edge 97, Type (0, 1), BuildingBlock: CIFDUS_clean_linker_0, # of connection points: 2
#     Edge 98, Type (0, 1), BuildingBlock: CIFDUS_clean_linker_0, # of connection points: 2
#     Edge 99, Type (0, 1), BuildingBlock: CIFDUS_clean_linker_0, # of connection points: 2
#     Edge 100, Type (0, 1), BuildingBlock: CIFDUS_clean_linker_0, # of connection points: 2
#     Edge 101, Type (0, 1), BuildingBlock: CIFDUS_clean_linker_0, # of connection points: 2
#     Edge 102, Type (0, 1), BuildingBlock: CIFDUS_clean_linker_0, # of connection points: 2
#     Edge 103, Type (0, 1), BuildingBlock: CIFDUS_clean_linker_0, # of connection points: 2
#     Edge 104, Type (0, 1), BuildingBlock: CIFDUS_clean_linker_0, # of connection points: 2
#     Edge 105, Type (0, 1), BuildingBlock: CIFDUS_clean_linker_0, # of connection points: 2
#     Edge 106, Type (0, 1), BuildingBlock: CIFDUS_clean_linker_0, # of connection points: 2
#     Edge 107, Type (0, 1), BuildingBlock: CIFDUS_clean_linker_0, # of connection points: 2
#     Edge 108, Type (0, 1), BuildingBlock: CIFDUS_clean_linker_0, # of connection points: 2
#     Edge 109, Type (0, 1), BuildingBlock: CIFDUS_clean_linker_0, # of connection points: 2
#     Edge 110, Type (0, 1), BuildingBlock: CIFDUS_clean_linker_0, # of connection points: 2
#     Edge 111, Type (0, 1), BuildingBlock: CIFDUS_clean_linker_0, # of connection points: 2
#     Edge 112, Type (0, 1), BuildingBlock: CIFDUS_clean_linker_0, # of connection points: 2
#     Edge 113, Type (0, 1), BuildingBlock: CIFDUS_clean_linker_0, # of connection points: 2
#     Edge 114, Type (0, 1), BuildingBlock: CIFDUS_clean_linker_0, # of connection points: 2
#     Edge 115, Type (0, 1), BuildingBlock: CIFDUS_clean_linker_0, # of connection points: 2
#     Edge 116, Type (0, 1), BuildingBlock: CIFDUS_clean_linker_0, # of connection points: 2
#     Edge 117, Type (0, 1), BuildingBlock: CIFDUS_clean_linker_0, # of connection points: 2
#     Edge 118, Type (0, 1), BuildingBlock: CIFDUS_clean_linker_0, # of connection points: 2
#     Edge 119, Type (0, 1), BuildingBlock: CIFDUS_clean_linker_0, # of connection points: 2
#     Edge 120, Type (0, 1), BuildingBlock: CIFDUS_clean_linker_0, # of connection points: 2
#     Edge 121, Type (0, 1), BuildingBlock: CIFDUS_clean_linker_0, # of connection points: 2
#     Edge 122, Type (0, 1), BuildingBlock: CIFDUS_clean_linker_0, # of connection points: 2
#     Edge 123, Type (0, 1), BuildingBlock: CIFDUS_clean_linker_0, # of connection points: 2
#     Edge 124, Type (0, 1), BuildingBlock: CIFDUS_clean_linker_0, # of connection points: 2
#     Edge 125, Type (0, 1), BuildingBlock: CIFDUS_clean_linker_0, # of connection points: 2
#     Edge 126, Type (0, 1), BuildingBlock: CIFDUS_clean_linker_0, # of connection points: 2
#     Edge 127, Type (0, 1), BuildingBlock: CIFDUS_clean_linker_0, # of connection points: 2
#     Edge 128, Type (0, 1), BuildingBlock: CIFDUS_clean_linker_0, # of connection points: 2
#     Edge 129, Type (0, 1), BuildingBlock: CIFDUS_clean_linker_0, # of connection points: 2
#     Edge 130, Type (0, 1), BuildingBlock: CIFDUS_clean_linker_0, # of connection points: 2
#     Edge 131, Type (0, 1), BuildingBlock: CIFDUS_clean_linker_0, # of connection points: 2
#     Edge 132, Type (0, 1), BuildingBlock: CIFDUS_clean_linker_0, # of connection points: 2
#     Edge 133, Type (0, 1), BuildingBlock: CIFDUS_clean_linker_0, # of connection points: 2
#     Edge 134, Type (0, 1), BuildingBlock: CIFDUS_clean_linker_0, # of connection points: 2
#     Edge 135, Type (0, 1), BuildingBlock: CIFDUS_clean_linker_0, # of connection points: 2
# Relax obj value: 0.256
# Max RMSD: 0.242
# Mean RMSD: 0.154
data_MOF--net-iac--node1-NAHDIM_clean_sbu_0--node2-JUFBIX_clean_sbu_0--edge1-CIFDUS_clean_linker_0
_symmetry_space_group_name_H-M    P1
_symmetry_Int_Tables_number       1
_symmetry_cell_setting            triclinic
loop_
_symmetry_equiv_pos_as_xyz
'x, y, z'
_cell_length_a     48.859911
_cell_length_b     49.042033
_cell_length_c     47.4262
_cell_angle_alpha  88.89116
_cell_angle_beta   87.930498
_cell_angle_gamma 88.832382
loop_
_atom_site_label
_atom_site_type_symbol
_atom_site_fract_x
_atom_site_fract_y
_atom_site_fract_z
_atom_type_partial_charge
C0 C 0.97714 0.26806 0.17212 0.0
O1 O 0.9806 0.25551 0.14802 0.0
O2 O 0.03824 0.24191 0.13717 0.0
Zn3 Zn 0.03508 0.28025 0.15773 0.0
O4 O 0.0375 0.31602 0.13182 0.0
C5 C 0.08998 0.29555 0.18012 0.0
O6 O 0.09007 0.31265 0.15846 0.0
O7 O 0.99745 0.28089 0.18135 0.0
C8 C 0.01798 0.33312 0.12665 0.0
O9 O 0.9931 0.32744 0.13607 0.0
C10 C 0.03061 0.23355 0.11326 0.0
O11 O 0.01922 0.25119 0.09585 0.0
O12 O 0.06899 0.28052 0.18452 0.0
C13 C 0.11457 0.78217 0.41697 0.0
O14 O 0.11472 0.7741 0.44353 0.0
O15 O 0.05393 0.74774 0.44074 0.0
Zn16 Zn 0.05615 0.78602 0.42665 0.0
O17 O 0.04909 0.8117 0.45843 0.0
C18 C 0.01829 0.7763 0.38251 0.0
O19 O 0.02938 0.75168 0.38188 0.0
O20 O 0.09221 0.78996 0.40631 0.0
C21 C 0.02457 0.81195 0.46843 0.0
O22 O 0.00688 0.79529 0.45816 0.0
C23 C 0.06115 0.74158 0.46551 0.0
O24 O 0.06891 0.76091 0.4821 0.0
O25 O 0.02699 0.79358 0.39941 0.0
C26 C 0.47377 0.76931 0.6735 0.0
O27 O 0.47552 0.75893 0.64816 0.0
O28 O 0.53189 0.74791 0.6311 0.0
Zn29 Zn 0.53074 0.78318 0.65656 0.0
O30 O 0.5273 0.81914 0.63091 0.0
C31 C 0.58886 0.7951 0.67134 0.0
O32 O 0.58895 0.80581 0.64572 0.0
O33 O 0.49476 0.78118 0.68255 0.0
C34 C 0.53314 0.84312 0.63891 0.0
O35 O 0.54227 0.84575 0.66442 0.0
C36 C 0.53012 0.72338 0.64087 0.0
O37 O 0.52845 0.71964 0.66838 0.0
O38 O 0.56673 0.78407 0.68089 0.0
C39 C 0.60039 0.30489 0.91785 0.0
O40 O 0.60294 0.30678 0.94522 0.0
O41 O 0.54777 0.24933 0.94207 0.0
Zn42 Zn 0.5448 0.2889 0.93228 0.0
O43 O 0.54028 0.31225 0.96617 0.0
C44 C 0.50952 0.31899 0.89714 0.0
O45 O 0.5289 0.33701 0.89882 0.0
O46 O 0.57751 0.29857 0.9083 0.0
C47 C 0.51679 0.31306 0.9786 0.0
O48 O 0.49794 0.29636 0.9707 0.0
C49 C 0.5653 0.24092 0.95947 0.0
O50 O 0.58004 0.25871 0.97226 0.0
O51 O 0.51214 0.29596 0.90954 0.0
C52 C 0.19991 0.98382 0.34314 0.0
O53 O 0.20979 0.00585 0.35396 0.0
O54 O 0.1447 0.01879 0.28149 0.0
Zn55 Zn 0.15519 0.01808 0.32169 0.0
O56 O 0.12186 0.01689 0.34621 0.0
C57 C 0.19664 0.05735 0.31652 0.0
O58 O 0.20496 0.0421 0.29527 0.0
O59 O 0.17804 0.98525 0.32942 0.0
C60 C 0.10577 0.03749 0.34702 0.0
O61 O 0.1107 0.05843 0.33004 0.0
C62 C 0.14119 0.04038 0.26672 0.0
O63 O 0.1452 0.06426 0.27778 0.0
O64 O 0.17537 0.05094 0.33096 0.0
C65 C 0.20079 0.90927 0.5481 0.0
O66 O 0.20099 0.88264 0.55156 0.0
O67 O 0.26164 0.88342 0.57779 0.0
Zn68 Zn 0.25783 0.90006 0.53979 0.0
O69 O 0.25867 0.87111 0.51099 0.0
C70 C 0.29647 0.9403 0.55171 0.0
O71 O 0.28341 0.93961 0.57641 0.0
O72 O 0.22287 0.9212 0.54109 0.0
C73 C 0.28091 0.85752 0.50768 0.0
O74 O 0.30187 0.86328 0.52297 0.0
C75 C 0.25451 0.85925 0.58395 0.0
O76 O 0.24543 0.84368 0.56424 0.0
O77 O 0.28875 0.92516 0.53222 0.0
C78 C 0.37539 0.10731 0.77951 0.0
O79 O 0.39298 0.09553 0.79638 0.0
O80 O 0.38034 0.0431 0.72899 0.0
Zn81 Zn 0.36186 0.05263 0.76578 0.0
O82 O 0.38416 0.04031 0.79796 0.0
C83 C 0.3144 0.02273 0.75162 0.0
O84 O 0.3249 0.02454 0.72577 0.0
O85 O 0.35912 0.09296 0.76598 0.0
C86 C 0.40331 0.02249 0.79719 0.0
O87 O 0.40955 0.00994 0.77353 0.0
C88 C 0.40312 0.0545 0.72392 0.0
O89 O 0.41344 0.06941 0.74349 0.0
O90 O 0.32566 0.03526 0.77112 0.0
C91 C 0.34588 0.14052 0.03608 0.0
O92 O 0.34357 0.16363 0.04956 0.0
O93 O 0.28781 0.17566 0.06607 0.0
Zn94 Zn 0.2876 0.15417 0.02788 0.0
O95 O 0.28597 0.18113 0.99266 0.0
C96 C 0.23344 0.12721 0.01435 0.0
O97 O 0.23331 0.14379 0.99229 0.0
O98 O 0.32467 0.1316 0.02449 0.0
C99 C 0.2855 0.17365 0.96694 0.0
O100 O 0.28556 0.14743 0.96174 0.0
C101 C 0.29468 0.20058 0.06769 0.0
O102 O 0.30126 0.21382 0.04414 0.0
O103 O 0.25352 0.12804 0.03096 0.0
C104 C 0.69122 0.41873 0.05248 0.0
O105 O 0.68887 0.39363 0.06231 0.0
O106 O 0.74495 0.38279 0.08538 0.0
Zn107 Zn 0.74857 0.40568 0.05045 0.0
O108 O 0.75658 0.38065 0.01856 0.0
C109 C 0.80388 0.42379 0.05203 0.0
O110 O 0.8098 0.39759 0.05054 0.0
O111 O 0.71467 0.42756 0.04522 0.0
C112 C 0.77349 0.38536 0.99824 0.0
O113 O 0.78465 0.40944 0.99541 0.0
C114 C 0.73945 0.3576 0.08434 0.0
O115 O 0.73569 0.34645 0.05987 0.0
O116 O 0.77901 0.43173 0.05337 0.0
C117 C 0.88626 0.61407 0.28489 0.0
O118 O 0.90838 0.60399 0.29648 0.0
O119 O 0.89445 0.5612 0.22392 0.0
Zn120 Zn 0.88009 0.56052 0.26346 0.0
O121 O 0.90862 0.54662 0.28903 0.0
C122 C 0.85496 0.51228 0.25943 0.0
O123 O 0.87827 0.50911 0.24505 0.0
O124 O 0.87044 0.59856 0.27223 0.0
C125 C 0.92957 0.53177 0.2831 0.0
O126 O 0.93506 0.52458 0.25694 0.0
C127 C 0.916 0.57463 0.21862 0.0
O128 O 0.92808 0.58654 0.23925 0.0
O129 O 0.84863 0.53568 0.26881 0.0
C130 C 0.83376 0.63625 0.53695 0.0
O131 O 0.83091 0.6597 0.5497 0.0
O132 O 0.77304 0.66719 0.56718 0.0
Zn133 Zn 0.77618 0.64998 0.52676 0.0
O134 O 0.77683 0.67852 0.49274 0.0
C135 C 0.71887 0.63583 0.51663 0.0
O136 O 0.71798 0.66221 0.51123 0.0
O137 O 0.81307 0.62703 0.52468 0.0
C138 C 0.7709 0.67017 0.46832 0.0
O139 O 0.76474 0.64438 0.46595 0.0
C140 C 0.78171 0.69003 0.5755 0.0
O141 O 0.7933 0.70668 0.55683 0.0
O142 O 0.74173 0.62502 0.52372 0.0
C143 C 0.71896 0.4613 0.82674 0.0
O144 O 0.71858 0.48026 0.84594 0.0
O145 O 0.65524 0.48404 0.76587 0.0
Zn146 Zn 0.67347 0.4906 0.80155 0.0
O147 O 0.64465 0.49499 0.83192 0.0
C148 C 0.70086 0.5378 0.77643 0.0
O149 O 0.69715 0.52691 0.7518 0.0
O150 O 0.70095 0.46142 0.80811 0.0
C151 C 0.62998 0.51634 0.82802 0.0
O152 O 0.63465 0.5316 0.80535 0.0
C153 C 0.63573 0.46738 0.76551 0.0
O154 O 0.62846 0.45401 0.78877 0.0
O155 O 0.69293 0.52543 0.79887 0.0
C156 C 0.08313 0.79206 0.88378 0.0
O157 O 0.08129 0.80758 0.90604 0.0
O158 O 0.01936 0.74936 0.92779 0.0
Zn159 Zn 0.02482 0.78455 0.90124 0.0
O160 O 0.02599 0.82326 0.92151 0.0
C161 C 0.97278 0.76965 0.87081 0.0
O162 O 0.9761 0.74569 0.88324 0.0
O163 O 0.06175 0.77945 0.87693 0.0
C164 C 0.03576 0.83137 0.94464 0.0
O165 O 0.04704 0.8132 0.96156 0.0
C166 C 0.03818 0.73239 0.93544 0.0
O167 O 0.06376 0.73779 0.92831 0.0
O168 O 0.99057 0.78798 0.87471 0.0
C169 C 0.9589 0.28626 0.67291 0.0
O170 O 0.95713 0.27683 0.64735 0.0
O171 O 0.01439 0.27566 0.62399 0.0
Zn172 Zn 0.01041 0.30647 0.65092 0.0
O173 O 0.0051 0.34141 0.62944 0.0
C174 C 0.06704 0.29816 0.65907 0.0
O175 O 0.06607 0.29086 0.63267 0.0
O176 O 0.97962 0.29991 0.67896 0.0
C177 C 0.01701 0.34418 0.60533 0.0
O178 O 0.03274 0.3243 0.5954 0.0
C179 C 1.00249 0.27173 0.6011 0.0
O180 O 0.98264 0.28824 0.59305 0.0
O181 O 0.04544 0.30717 0.67171 0.0
C182 C 0.57923 0.2699 0.37327 0.0
O183 O 0.56976 0.24505 0.37574 0.0
O184 O 0.52575 0.24957 0.429 0.0
Zn185 Zn 0.52711 0.28756 0.40629 0.0
O186 O 0.52714 0.32117 0.43368 0.0
C187 C 0.48015 0.27495 0.36691 0.0
O188 O 0.48853 0.24939 0.36901 0.0
O189 O 0.5647 0.28965 0.38341 0.0
C190 C 0.5301 0.34563 0.42408 0.0
O191 O 0.53253 0.34939 0.39661 0.0
C192 C 0.50381 0.2371 0.43658 0.0
O193 O 0.48018 0.24883 0.43091 0.0
O194 O 0.4932 0.29312 0.37979 0.0
C195 C 0.4631 0.82498 0.17346 0.0
O196 O 0.46189 0.83238 0.14675 0.0
O197 O 0.51641 0.78513 0.13015 0.0
Zn198 Zn 0.51806 0.81626 0.15615 0.0
O199 O 0.51769 0.85093 0.13393 0.0
C200 C 0.57441 0.82321 0.16851 0.0
O201 O 0.5738 0.84027 0.14683 0.0
O202 O 0.48576 0.81646 0.18288 0.0
C203 C 0.515 0.87342 0.14657 0.0
O204 O 0.51332 0.87344 0.17429 0.0
C205 C 0.53302 0.78392 0.10896 0.0
O206 O 0.54993 0.80404 0.10382 0.0
O207 O 0.5526 0.81149 0.17692 0.0
C208 C 0.82253 0.08072 0.76173 0.0
O209 O 0.82149 0.06551 0.73931 0.0
O210 O 0.89297 0.07316 0.72564 0.0
Zn211 Zn 0.87894 0.06252 0.76404 0.0
O212 O 0.90681 0.06858 0.79225 0.0
C213 C 0.88203 0.00653 0.74815 0.0
O214 O 0.89734 0.01542 0.7267 0.0
O215 O 0.84479 0.08239 0.77452 0.0
C216 C 0.9316 0.06115 0.78782 0.0
O217 O 0.93942 0.05069 0.76348 0.0
C218 C 0.91112 0.09099 0.72093 0.0
O219 O 0.91935 0.10559 0.74184 0.0
O220 O 0.8718 0.02318 0.7659 0.0
C221 C 0.85474 0.15016 0.52628 0.0
O222 O 0.85803 0.17233 0.51067 0.0
O223 O 0.79161 0.19733 0.5556 0.0
Zn224 Zn 0.7996 0.16895 0.52691 0.0
O225 O 0.80542 0.18531 0.4885 0.0
C226 C 0.74449 0.15717 0.51911 0.0
O227 O 0.74471 0.18183 0.50778 0.0
O228 O 0.83116 0.14482 0.5367 0.0
C229 C 0.81399 0.20936 0.48434 0.0
O230 O 0.81908 0.2245 0.506 0.0
C231 C 0.80898 0.20989 0.5694 0.0
O232 O 0.83526 0.205 0.56459 0.0
O233 O 0.76662 0.14652 0.52767 0.0
C234 C 0.64537 0.94953 0.30724 0.0
O235 O 0.6185 0.94905 0.3073 0.0
O236 O 0.6132 0.00324 0.26398 0.0
Zn237 Zn 0.6379 0.00659 0.29621 0.0
O238 O 0.61866 0.01509 0.33242 0.0
C239 C 0.66217 0.05429 0.26961 0.0
O240 O 0.63824 0.05763 0.25814 0.0
O241 O 0.65759 0.97176 0.30229 0.0
C242 C 0.61059 0.0386 0.3401 0.0
O243 O 0.61337 0.05972 0.32286 0.0
C244 C 0.59099 0.01676 0.26138 0.0
O245 O 0.58193 0.03242 0.28197 0.0
O246 O 0.66609 0.03443 0.28664 0.0
C247 C 0.73881 0.94738 0.00746 0.0
O248 O 0.74286 0.93447 0.98362 0.0
O249 O 0.78783 0.89183 0.05871 0.0
Zn250 Zn 0.79064 0.91785 0.02268 0.0
O251 O 0.78907 0.89747 0.98379 0.0
C252 C 0.83839 0.95472 0.03876 0.0
O253 O 0.82507 0.95904 0.06286 0.0
O254 O 0.75661 0.94435 0.02645 0.0
C255 C 0.77522 0.87693 0.97669 0.0
O256 O 0.75947 0.86482 0.99594 0.0
C257 C 0.80559 0.88921 0.07786 0.0
O258 O 0.82903 0.90161 0.07408 0.0
O259 O 0.82772 0.93942 0.02067 0.0
C260 C 0.34866 0.66372 0.02335 0.0
O261 O 0.34645 0.68386 0.00485 0.0
O262 O 0.28474 0.70681 0.06065 0.0
Zn263 Zn 0.29208 0.67615 0.03459 0.0
O264 O 0.29061 0.69115 0.99552 0.0
C265 C 0.24479 0.64881 0.05894 0.0
O266 O 0.24201 0.67034 0.07492 0.0
O267 O 0.32834 0.65802 0.03966 0.0
C268 C 0.27523 0.71146 0.98963 0.0
O269 O 0.25843 0.72154 0.0092 0.0
C270 C 0.29716 0.72926 0.05824 0.0
O271 O 0.31779 0.73185 0.03991 0.0
O272 O 0.26412 0.64758 0.0404 0.0
C273 C 0.14926 0.44656 0.78698 0.0
O274 O 0.12262 0.44922 0.78479 0.0
O275 O 0.12327 0.51538 0.76819 0.0
Zn276 Zn 0.14661 0.50303 0.79908 0.0
O277 O 0.12519 0.49841 0.83462 0.0
C278 C 0.17084 0.55114 0.81836 0.0
O279 O 0.14757 0.55309 0.83302 0.0
O280 O 0.16356 0.46733 0.79105 0.0
C281 C 0.13718 0.48679 0.855 0.0
O282 O 0.16304 0.47921 0.85179 0.0
C283 C 0.10353 0.5324 0.77123 0.0
O284 O 0.09649 0.5413 0.79646 0.0
O285 O 0.17542 0.53058 0.80294 0.0
C286 C 0.22403 0.43777 0.50698 0.0
O287 O 0.2253 0.41326 0.49625 0.0
O288 O 0.27828 0.39869 0.55702 0.0
Zn289 Zn 0.28079 0.42168 0.51914 0.0
O290 O 0.2806 0.39564 0.48439 0.0
C291 C 0.32818 0.45735 0.5356 0.0
O292 O 0.3158 0.45812 0.56063 0.0
O293 O 0.2454 0.44675 0.51821 0.0
C294 C 0.28078 0.40441 0.45876 0.0
O295 O 0.28159 0.43087 0.454 0.0
C296 C 0.29756 0.39235 0.57368 0.0
O297 O 0.32261 0.39985 0.56681 0.0
O298 O 0.31705 0.4443 0.51602 0.0
C299 C 0.34189 0.60443 0.23651 0.0
O300 O 0.33119 0.58115 0.24486 0.0
O301 O 0.42417 0.57306 0.22215 0.0
Zn302 Zn 0.39371 0.57878 0.25033 0.0
O303 O 0.40964 0.59011 0.28601 0.0
C304 C 0.37216 0.52982 0.23381 0.0
O305 O 0.37952 0.54082 0.20929 0.0
O306 O 0.36766 0.60726 0.23677 0.0
C307 C 0.42823 0.57419 0.29505 0.0
O308 O 0.43475 0.55207 0.28089 0.0
C309 C 0.44153 0.59053 0.21367 0.0
O310 O 0.43986 0.61549 0.22325 0.0
O311 O 0.37545 0.5431 0.25609 0.0
Co312 Co 0.03518 0.03944 0.0065 0.0
C313 C 0.0321 0.08127 0.04805 0.0
Co314 Co 0.04518 0.02591 0.04906 0.0
C315 C 0.01036 0.04635 0.95296 0.0
C316 C 0.04193 0.07518 0.95863 0.0
N317 N 0.02893 0.05397 0.97136 0.0
N318 N 0.01136 0.0619 0.92928 0.0
C319 C 0.03124 0.07999 0.93257 0.0
H320 H 0.99633 0.02977 0.95683 0.0
H321 H 0.05785 0.08672 0.96787 0.0
C322 C 0.04764 0.98395 0.00739 0.0
N323 N 0.05182 0.01126 0.0841 0.0
C324 C 0.06853 0.02014 0.10378 0.0
C325 C 0.0415 0.98782 0.09488 0.0
N326 N 0.06919 0.00302 0.12637 0.0
C327 C 0.05214 0.9827 0.12087 0.0
C328 C 0.98904 0.02055 0.03565 0.0
O329 O 0.04107 0.0034 0.99064 0.0
O330 O 0.05157 0.98975 0.03304 0.0
O331 O 0.00654 0.01747 0.05481 0.0
O332 O 0.99693 0.03103 0.0121 0.0
O333 O 0.03881 0.06194 0.06493 0.0
H334 H 0.02738 0.9751 0.08433 0.0
H335 H 0.08049 0.03842 0.10124 0.0
O336 O 0.02887 0.07547 0.02228 0.0
O337 O 0.0734 0.04768 0.00085 0.0
O338 O 0.0838 0.03482 0.04344 0.0
C339 C 0.09118 0.04539 0.01971 0.0
H340 H 0.03696 0.09602 0.91761 0.0
H341 H 0.04755 0.96545 0.1347 0.0
Co342 Co 0.28697 0.79371 0.29138 0.0
C343 C 0.28749 0.75306 0.25202 0.0
Co344 Co 0.26162 0.803 0.25484 0.0
C345 C 0.29885 0.78974 0.3492 0.0
C346 C 0.33244 0.77372 0.32413 0.0
N347 N 0.30706 0.78485 0.32242 0.0
N348 N 0.318 0.78239 0.36776 0.0
C349 C 0.33933 0.77237 0.3521 0.0
H350 H 0.27958 0.79985 0.35482 0.0
H351 H 0.34531 0.7677 0.30619 0.0
C352 C 0.26005 0.84322 0.29435 0.0
N353 N 0.24161 0.8119 0.22375 0.0
C354 C 0.25149 0.80954 0.19713 0.0
C355 C 0.21497 0.81907 0.22138 0.0
N356 N 0.23225 0.81447 0.17802 0.0
C357 C 0.20903 0.82028 0.19311 0.0
C358 C 0.23258 0.77851 0.29828 0.0
O359 O 0.27712 0.82807 0.3071 0.0
O360 O 0.25144 0.83623 0.27072 0.0
O361 O 0.23052 0.78736 0.27309 0.0
O362 O 0.25571 0.77864 0.30958 0.0
O363 O 0.27157 0.76906 0.23887 0.0
H364 H 0.20054 0.82175 0.239 0.0
H365 H 0.27198 0.80195 0.19188 0.0
O366 O 0.29646 0.75973 0.27563 0.0
O367 O 0.31796 0.80882 0.27333 0.0
O368 O 0.29313 0.8189 0.23693 0.0
C369 C 0.3161 0.8188 0.24861 0.0
H370 H 0.35869 0.76522 0.36016 0.0
H371 H 0.18902 0.82362 0.18443 0.0
Co372 Co 0.50669 0.03688 0.53077 0.0
C373 C 0.52311 0.0915 0.51953 0.0
Co374 Co 0.54435 0.04749 0.55119 0.0
C375 C 0.45336 0.01544 0.52323 0.0
C376 C 0.46942 0.03534 0.4858 0.0
N377 N 0.47535 0.02878 0.51268 0.0
N378 N 0.43389 0.01338 0.50398 0.0
C379 C 0.44393 0.02579 0.48035 0.0
H380 H 0.45183 0.00714 0.54453 0.0
H381 H 0.48275 0.04644 0.47115 0.0
C382 C 0.52898 0.99312 0.56281 0.0
N383 N 0.57567 0.05586 0.56886 0.0
C384 C 0.59668 0.06962 0.55693 0.0
C385 C 0.58325 0.04968 0.59534 0.0
N386 N 0.61717 0.0724 0.57476 0.0
C387 C 0.60897 0.05979 0.59901 0.0
C388 C 0.49754 0.05637 0.58421 0.0
O389 O 0.50955 0.99901 0.54623 0.0
O390 O 0.54617 0.01154 0.56729 0.0
O391 O 0.52331 0.05915 0.58303 0.0
O392 O 0.48577 0.04696 0.56317 0.0
O393 O 0.54267 0.0838 0.53497 0.0
H394 H 0.57094 0.03848 0.61085 0.0
H395 H 0.59714 0.07696 0.53524 0.0
O396 O 0.50421 0.07454 0.51557 0.0
O397 O 0.52742 0.02705 0.49852 0.0
O398 O 0.56554 0.03584 0.51919 0.0
C399 C 0.55326 0.02836 0.49767 0.0
H400 H 0.43345 0.02812 0.4607 0.0
H401 H 0.62059 0.05819 0.61799 0.0
Co402 Co 0.30393 0.29918 0.78242 0.0
C403 C 0.29306 0.31616 0.7265 0.0
Co404 Co 0.27128 0.27664 0.76349 0.0
C405 C 0.35098 0.30881 0.81381 0.0
C406 C 0.33521 0.34597 0.79574 0.0
N407 N 0.33101 0.31889 0.79762 0.0
N408 N 0.36753 0.32845 0.82228 0.0
C409 C 0.3578 0.35192 0.81087 0.0
H410 H 0.35349 0.28733 0.81894 0.0
H411 H 0.32258 0.3604 0.78426 0.0
C412 C 0.28246 0.25908 0.81923 0.0
N413 N 0.24402 0.25712 0.74815 0.0
C414 C 0.22174 0.26794 0.73603 0.0
C415 C 0.2418 0.22989 0.74572 0.0
N416 N 0.20563 0.24869 0.72611 0.0
C417 C 0.21816 0.22463 0.73193 0.0
C418 C 0.32257 0.25382 0.75432 0.0
O419 O 0.29912 0.27872 0.81768 0.0
O420 O 0.26839 0.25448 0.79774 0.0
O421 O 0.29755 0.25217 0.74851 0.0
O422 O 0.33013 0.27294 0.76969 0.0
O423 O 0.27434 0.29857 0.72927 0.0
H424 H 0.25648 0.21491 0.75331 0.0
H425 H 0.2177 0.28967 0.73393 0.0
O426 O 0.30866 0.3194 0.7471 0.0
O427 O 0.27792 0.32515 0.79524 0.0
O428 O 0.24494 0.30146 0.77845 0.0
C429 C 0.25264 0.3221 0.79147 0.0
H430 H 0.36614 0.37194 0.81358 0.0
H431 H 0.21066 0.20477 0.7268 0.0
Co432 Co 0.025 0.02321 0.55522 0.0
C433 C 0.02236 0.05359 0.6033 0.0
Co434 Co 0.04917 0.0606 0.55177 0.0
C435 C 0.01974 0.96657 0.55093 0.0
C436 C 0.98258 0.9834 0.56904 0.0
N437 N 0.00772 0.99023 0.5589 0.0
N438 N 1.00346 0.94512 0.55576 0.0
C439 C 0.9798 0.9555 0.56689 0.0
H440 H 0.03995 0.96521 0.54086 0.0
H441 H 0.96729 0.99773 0.57722 0.0
C442 C 0.04943 0.03163 0.50281 0.0
N443 N 0.06701 0.09309 0.54756 0.0
C444 C 0.05535 0.11765 0.55242 0.0
C445 C 0.09282 0.09835 0.53815 0.0
N446 N 0.07253 0.1381 0.5462 0.0
C447 C 0.09638 0.12622 0.53758 0.0
C448 C 0.08042 0.01778 0.56871 0.0
O449 O 0.03464 0.01526 0.51727 0.0
O450 O 0.05862 0.05259 0.51419 0.0
O451 O 0.08154 0.04319 0.56356 0.0
O452 O 0.05773 0.00595 0.567 0.0
O453 O 0.0388 0.0691 0.58963 0.0
H454 H 0.10794 0.08298 0.53197 0.0
H455 H 0.03462 0.12053 0.56086 0.0
O456 O 0.01495 0.03158 0.59246 0.0
O457 O 0.99242 0.04073 0.54348 0.0
O458 O 0.01681 0.07774 0.53954 0.0
C459 C 0.99416 0.06598 0.53742 0.0
H460 H 0.96187 0.94384 0.5729 0.0
H461 H 0.11482 0.1369 0.53118 0.0
Co462 Co 0.27984 0.79238 0.78812 0.0
C463 C 0.2288 0.76837 0.80043 0.0
Co464 Co 0.2785 0.74989 0.77487 0.0
C465 C 0.28451 0.84988 0.7804 0.0
C466 C 0.26716 0.83943 0.82113 0.0
N467 N 0.2789 0.82851 0.79771 0.0
N468 N 0.27603 0.87382 0.79164 0.0
C469 C 0.26535 0.86727 0.81748 0.0
H470 H 0.29374 0.84761 0.7595 0.0
H471 H 0.2589 0.82779 0.83897 0.0
C472 C 0.32944 0.77465 0.76253 0.0
N473 N 0.27853 0.71384 0.76534 0.0
C474 C 0.26769 0.69357 0.78132 0.0
C475 C 0.28761 0.70198 0.74129 0.0
N476 N 0.2691 0.66945 0.76816 0.0
C477 C 0.28179 0.67462 0.74293 0.0
C478 C 0.26329 0.785 0.73322 0.0
O479 O 0.31764 0.79487 0.77477 0.0
O480 O 0.31603 0.75278 0.76039 0.0
O481 O 0.26593 0.75979 0.73897 0.0
O482 O 0.2683 0.80222 0.75185 0.0
O483 O 0.24048 0.74742 0.78947 0.0
H484 H 0.29707 0.71269 0.72344 0.0
H485 H 0.25854 0.69673 0.80214 0.0
O486 O 0.24245 0.79005 0.80129 0.0
O487 O 0.29109 0.78233 0.82434 0.0
O488 O 0.29115 0.73982 0.81085 0.0
C489 C 0.29477 0.75715 0.8298 0.0
H490 H 0.25569 0.88127 0.83229 0.0
H491 H 0.28549 0.66003 0.72633 0.0
Co492 Co 0.53479 0.02966 0.98951 0.0
C493 C 0.58903 0.02025 0.00722 0.0
Co494 Co 0.54373 0.04847 0.02955 0.0
C495 C 0.51269 0.0199 0.93539 0.0
C496 C 0.54073 0.98827 0.94795 0.0
N497 N 0.5295 0.01237 0.95611 0.0
N498 N 0.51281 0.00137 0.91472 0.0
C499 C 0.53057 0.9815 0.92241 0.0
H500 H 0.50033 0.03847 0.93566 0.0
H501 H 0.55482 0.976 0.96017 0.0
C502 C 0.48937 0.05778 0.01141 0.0
N503 N 0.54908 0.06534 0.06328 0.0
C504 C 0.55422 0.05291 0.08812 0.0
C505 C 0.54533 0.09191 0.06938 0.0
N506 N 0.55343 0.07046 0.10971 0.0
C507 C 0.54806 0.09515 0.0979 0.0
C508 C 0.55405 0.08201 0.98347 0.0
O509 O 0.49716 0.04203 0.99153 0.0
O510 O 0.50661 0.06355 0.02984 0.0
O511 O 0.55626 0.07918 0.0099 0.0
O512 O 0.54447 0.06265 0.96956 0.0
O513 O 0.58102 0.0332 0.02917 0.0
H514 H 0.53993 0.10776 0.05429 0.0
H515 H 0.5572 0.0311 0.09038 0.0
O516 O 0.57216 0.01757 0.98772 0.0
O517 O 0.52501 0.99695 0.00946 0.0
O518 O 0.53108 0.01757 0.04908 0.0
C519 C 0.52441 0.99651 0.03623 0.0
H520 H 0.53501 0.96294 0.911 0.0
H521 H 0.54577 0.11417 0.10898 0.0
Co522 Co 0.28043 0.27573 0.28092 0.0
C523 C 0.33755 0.28529 0.28478 0.0
Co524 Co 0.29531 0.31034 0.2556 0.0
C525 C 0.26026 0.22293 0.29447 0.0
C526 C 0.27588 0.24184 0.33069 0.0
N527 N 0.27062 0.24635 0.30322 0.0
N528 N 0.25938 0.20378 0.31512 0.0
C529 C 0.26882 0.2156 0.33813 0.0
H530 H 0.25423 0.21964 0.27309 0.0
H531 H 0.28555 0.25618 0.34402 0.0
C532 C 0.238 0.30017 0.25189 0.0
N533 N 0.30524 0.33934 0.23263 0.0
C534 C 0.31904 0.36182 0.23878 0.0
C535 C 0.29873 0.34273 0.20536 0.0
N536 N 0.32136 0.37911 0.21636 0.0
C537 C 0.30867 0.36711 0.19529 0.0
C538 C 0.29586 0.26173 0.22514 0.0
O539 O 0.24272 0.28135 0.27006 0.0
O540 O 0.25787 0.31514 0.24361 0.0
O541 O 0.30262 0.28658 0.2242 0.0
O542 O 0.28633 0.25211 0.24851 0.0
O543 O 0.33288 0.30541 0.26807 0.0
H544 H 0.28692 0.32863 0.19371 0.0
H545 H 0.327 0.36549 0.25934 0.0
O546 O 0.31781 0.26968 0.29163 0.0
O547 O 0.27463 0.29959 0.31305 0.0
O548 O 0.288 0.33427 0.2868 0.0
C549 C 0.27983 0.3249 0.31081 0.0
H550 H 0.27176 0.20555 0.35835 0.0
H551 H 0.30588 0.37579 0.1744 0.0
Co552 Co 0.52181 0.54004 0.02267 0.0
C553 C 0.52352 0.57121 0.06974 0.0
Co554 Co 0.54587 0.57719 0.01526 0.0
C555 C 0.51563 0.48292 0.02259 0.0
C556 C 0.48056 0.50172 0.04295 0.0
N557 N 0.50436 0.50738 0.02896 0.0
N558 N 0.50029 0.46211 0.03245 0.0
C559 C 0.4779 0.47375 0.04499 0.0
H560 H 0.53508 0.48043 0.01118 0.0
H561 H 0.46655 0.51689 0.05187 0.0
C562 C 0.54447 0.54559 0.96847 0.0
N563 N 0.56354 0.60983 0.00987 0.0
C564 C 0.55244 0.63363 0.01859 0.0
C565 C 0.58954 0.61563 0.00175 0.0
N566 N 0.57044 0.65406 0.01733 0.0
C567 C 0.59387 0.64294 0.00635 0.0
C568 C 0.57756 0.53459 0.03303 0.0
O569 O 0.52961 0.53064 0.98466 0.0
O570 O 0.55366 0.56769 0.97757 0.0
O571 O 0.57908 0.55963 0.02598 0.0
O572 O 0.55461 0.52312 0.03303 0.0
O573 O 0.53782 0.58663 0.05357 0.0
H574 H 0.60476 0.60072 0.99466 0.0
H575 H 0.53169 0.63546 0.02713 0.0
O576 O 0.51446 0.54929 0.06027 0.0
O577 O 0.48883 0.55732 0.01263 0.0
O578 O 0.5126 0.59429 0.00444 0.0
C579 C 0.4898 0.58233 0.00534 0.0
H580 H 0.46133 0.46287 0.05561 0.0
H581 H 0.61319 0.65324 0.00364 0.0
Co582 Co 0.78272 0.29105 0.28959 0.0
C583 C 0.73198 0.26729 0.30086 0.0
Co584 Co 0.78012 0.25132 0.26951 0.0
C585 C 0.79911 0.34536 0.29125 0.0
C586 C 0.77611 0.33556 0.32916 0.0
N587 N 0.78562 0.32501 0.30453 0.0
N588 N 0.79889 0.36808 0.30652 0.0
C589 C 0.78422 0.36235 0.3304 0.0
H590 H 0.8089 0.34362 0.27049 0.0
H591 H 0.76435 0.32447 0.34521 0.0
C592 C 0.83091 0.27509 0.25811 0.0
N593 N 0.77778 0.21722 0.25406 0.0
C594 C 0.75499 0.20384 0.24792 0.0
C595 C 0.79854 0.19908 0.24952 0.0
N596 N 0.76062 0.17793 0.24032 0.0
C597 C 0.78804 0.1749 0.24111 0.0
C598 C 0.76266 0.2935 0.23577 0.0
O599 O 0.82023 0.29341 0.27391 0.0
O600 O 0.8166 0.25453 0.25308 0.0
O601 O 0.76572 0.26771 0.23647 0.0
O602 O 0.76921 0.30715 0.2568 0.0
O603 O 0.74341 0.24848 0.28615 0.0
H604 H 0.8198 0.20263 0.25356 0.0
H605 H 0.73447 0.21224 0.25093 0.0
O606 O 0.74558 0.28859 0.30514 0.0
O607 O 0.79604 0.2751 0.32233 0.0
O608 O 0.79447 0.23503 0.30279 0.0
C609 C 0.79987 0.24949 0.32378 0.0
H610 H 0.78031 0.37622 0.34763 0.0
H611 H 0.79953 0.15614 0.23736 0.0
Co612 Co 0.02823 0.5305 0.50076 0.0
C613 C 0.08058 0.5219 0.52153 0.0
Co614 Co 0.03222 0.54839 0.54228 0.0
C615 C 0.00761 0.52425 0.4463 0.0
C616 C 0.03526 0.49139 0.45623 0.0
N617 N 0.02432 0.51492 0.46631 0.0
N618 N 0.00719 0.50736 0.42436 0.0
C619 C 0.02477 0.48672 0.43019 0.0
H620 H 0.99545 0.54288 0.44801 0.0
H621 H 0.04919 0.47805 0.46749 0.0
C622 C 0.97983 0.55677 0.52151 0.0
N623 N 0.03612 0.56396 0.57665 0.0
C624 C 0.05097 0.55341 0.59762 0.0
C625 C 0.02574 0.58782 0.58647 0.0
N626 N 0.05053 0.5697 0.62009 0.0
C627 C 0.03449 0.59134 0.61345 0.0
C628 C 0.04491 0.58364 0.4981 0.0
O629 O 0.99014 0.54281 0.50128 0.0
O630 O 0.9949 0.56176 0.54201 0.0
O631 O 0.04382 0.58055 0.52468 0.0
O632 O 0.03872 0.56393 0.48271 0.0
O633 O 0.07 0.53484 0.54239 0.0
H634 H 0.01288 0.60181 0.57471 0.0
H635 H 0.06177 0.53394 0.59653 0.0
O636 O 0.06586 0.5182 0.50043 0.0
O637 O 0.01782 0.49742 0.51878 0.0
O638 O 0.02044 0.51601 0.56022 0.0
C639 C 0.01544 0.49553 0.54548 0.0
H640 H 0.0287 0.46903 0.41723 0.0
H641 H 0.02994 0.60859 0.62686 0.0
Co642 Co 0.80939 0.80862 0.29165 0.0
C643 C 0.79672 0.82208 0.23536 0.0
Co644 Co 0.77432 0.78656 0.27681 0.0
C645 C 0.86164 0.81549 0.31466 0.0
C646 C 0.8452 0.8535 0.29934 0.0
N647 N 0.83945 0.82685 0.30284 0.0
N648 N 0.88125 0.83384 0.3184 0.0
C649 C 0.87095 0.8579 0.30902 0.0
H650 H 0.86339 0.79404 0.32024 0.0
H651 H 0.83182 0.86858 0.28973 0.0
C652 C 0.7879 0.7727 0.33299 0.0
N653 N 0.74418 0.76866 0.26532 0.0
C654 C 0.72318 0.78066 0.25202 0.0
C655 C 0.73731 0.74228 0.26871 0.0
N656 N 0.70332 0.76299 0.24691 0.0
C657 C 0.71201 0.73873 0.25744 0.0
C658 C 0.82257 0.75959 0.26628 0.0
O659 O 0.80576 0.79096 0.32828 0.0
O660 O 0.77189 0.76733 0.31324 0.0
O661 O 0.79708 0.75888 0.26251 0.0
O662 O 0.83238 0.77947 0.279 0.0
O663 O 0.77716 0.80567 0.24028 0.0
H664 H 0.74972 0.72678 0.27897 0.0
H665 H 0.72217 0.80226 0.24697 0.0
O666 O 0.81313 0.82605 0.25505 0.0
O667 O 0.78635 0.83753 0.30438 0.0
O668 O 0.75131 0.81445 0.29123 0.0
C669 C 0.76068 0.83543 0.30233 0.0
H670 H 0.88156 0.87708 0.30839 0.0
H671 H 0.70096 0.71985 0.25701 0.0
Co672 Co 0.79583 0.27186 0.81703 0.0
C673 C 0.77486 0.22186 0.80477 0.0
Co674 Co 0.76805 0.27317 0.78151 0.0
C675 C 0.81777 0.29068 0.86668 0.0
C676 C 0.8362 0.25202 0.85671 0.0
N677 N 0.81812 0.27106 0.84737 0.0
N678 N 0.83473 0.28491 0.88763 0.0
C679 C 0.84624 0.26041 0.88197 0.0
H680 H 0.80406 0.30832 0.86635 0.0
H681 H 0.84087 0.23287 0.84647 0.0
C682 C 0.7883 0.32332 0.79387 0.0
N683 N 0.74604 0.27431 0.75074 0.0
C684 C 0.75106 0.2595 0.72753 0.0
C685 C 0.72679 0.29298 0.74331 0.0
N686 N 0.73678 0.26876 0.70553 0.0
C687 C 0.72113 0.28966 0.71525 0.0
C688 C 0.74108 0.28156 0.83228 0.0
O689 O 0.80043 0.31005 0.81306 0.0
O690 O 0.7733 0.31084 0.77733 0.0
O691 O 0.73742 0.27996 0.80597 0.0
O692 O 0.765 0.27808 0.84147 0.0
O693 O 0.76276 0.23538 0.78567 0.0
H694 H 0.71934 0.30946 0.75654 0.0
H695 H 0.76697 0.24385 0.72589 0.0
O696 O 0.79074 0.23395 0.82085 0.0
O697 O 0.82661 0.26595 0.79279 0.0
O698 O 0.79922 0.26668 0.75729 0.0
C699 C 0.8232 0.26439 0.76651 0.0
H700 H 0.85976 0.24901 0.89564 0.0
H701 H 0.7087 0.30314 0.70239 0.0
Co702 Co 0.77126 0.75829 0.78784 0.0
C703 C 0.82707 0.77265 0.79338 0.0
Co704 Co 0.78147 0.79794 0.7694 0.0
C705 C 0.75227 0.70386 0.79734 0.0
C706 C 0.7728 0.71913 0.83273 0.0
N707 N 0.76466 0.72603 0.80663 0.0
N708 N 0.75246 0.68329 0.81661 0.0
C709 C 0.76527 0.69284 0.83896 0.0
H710 H 0.74342 0.70284 0.77681 0.0
H711 H 0.78407 0.73217 0.84611 0.0
C712 C 0.72548 0.78239 0.76404 0.0
N713 N 0.78862 0.82972 0.74986 0.0
C714 C 0.80742 0.84851 0.75479 0.0
C715 C 0.77837 0.83701 0.72469 0.0
N716 N 0.8095 0.86708 0.73353 0.0
C717 C 0.79117 0.86002 0.7146 0.0
C718 C 0.78641 0.75377 0.7313 0.0
O719 O 0.73328 0.76176 0.77853 0.0
O720 O 0.7429 0.80096 0.75842 0.0
O721 O 0.79001 0.77897 0.73514 0.0
O722 O 0.77834 0.7392 0.75239 0.0
O723 O 0.81985 0.79455 0.78051 0.0
H724 H 0.76327 0.82573 0.71384 0.0
H725 H 0.82008 0.84796 0.77306 0.0
O726 O 0.80923 0.7543 0.79725 0.0
O727 O 0.76401 0.77753 0.82285 0.0
O728 O 0.77338 0.81743 0.80399 0.0
C729 C 0.76678 0.8031 0.82578 0.0
H730 H 0.76966 0.68138 0.85806 0.0
H731 H 0.78735 0.87069 0.69489 0.0
Co732 Co 0.52518 0.54709 0.51384 0.0
C733 C 0.52363 0.57748 0.56343 0.0
Co734 Co 0.53462 0.52201 0.55085 0.0
C735 C 0.50625 0.55856 0.45899 0.0
C736 C 0.52368 0.59399 0.47621 0.0
N737 N 0.51784 0.56767 0.48219 0.0
N738 N 0.50484 0.57792 0.43864 0.0
C739 C 0.51549 0.60043 0.44933 0.0
H740 H 0.49896 0.53801 0.45698 0.0
H741 H 0.53371 0.60743 0.49023 0.0
C742 C 0.53635 0.49148 0.50145 0.0
N743 N 0.54188 0.50084 0.58203 0.0
C744 C 0.56001 0.50545 0.60198 0.0
C745 C 0.53122 0.47634 0.58889 0.0
N746 N 0.56128 0.48469 0.62097 0.0
C747 C 0.54309 0.46636 0.61289 0.0
C748 C 0.47875 0.52225 0.5386 0.0
O749 O 0.5317 0.51503 0.49065 0.0
O750 O 0.53899 0.48972 0.52796 0.0
O751 O 0.49635 0.51435 0.55626 0.0
O752 O 0.48668 0.53738 0.51788 0.0
O753 O 0.53016 0.5542 0.57395 0.0
H754 H 0.51622 0.46614 0.57684 0.0
H755 H 0.57206 0.5237 0.60244 0.0
O756 O 0.51899 0.57901 0.53718 0.0
O757 O 0.56324 0.55673 0.50971 0.0
O758 O 0.57328 0.5301 0.54548 0.0
C759 C 0.58103 0.54723 0.52642 0.0
H760 H 0.51788 0.61978 0.43824 0.0
H761 H 0.53919 0.44683 0.6231 0.0
Co762 Co 0.00458 0.53419 0.02562 0.0
C763 C 0.03174 0.58267 0.01195 0.0
Co764 Co 0.04552 0.53408 0.04319 0.0
C765 C 0.95464 0.51117 0.0087 0.0
C766 C 0.95133 0.55463 0.01102 0.0
N767 N 0.96938 0.53355 0.01287 0.0
N768 N 0.92794 0.51724 0.00536 0.0
C769 C 0.92578 0.54464 0.0065 0.0
H770 H 0.96277 0.49057 0.01072 0.0
H771 H 0.95596 0.57567 0.01492 0.0
C772 C 0.01876 0.48554 0.05666 0.0
N773 N 0.08043 0.53439 0.05626 0.0
C774 C 0.09409 0.556 0.06511 0.0
C775 C 0.09851 0.51327 0.05725 0.0
N776 N 0.12013 0.54935 0.07117 0.0
C777 C 0.12301 0.52245 0.06633 0.0
C778 C 0.00629 0.55514 0.07929 0.0
O779 O 1.00014 0.4978 0.04282 0.0
O780 O 0.04094 0.49798 0.05987 0.0
O781 O 0.03179 0.54988 0.07698 0.0
O782 O 0.99108 0.54983 0.05908 0.0
O783 O 0.0502 0.57041 0.02609 0.0
H784 H 0.09447 0.49277 0.05073 0.0
H785 H 0.08558 0.57655 0.06549 0.0
O786 O 0.00937 0.5704 0.00879 0.0
O787 O 0.01807 0.51845 0.99207 0.0
O788 O 0.05901 0.51828 0.00958 0.0
C789 C 0.04348 0.51284 0.98964 0.0
H790 H 0.90683 0.55645 0.00608 0.0
H791 H 0.14176 0.5105 0.06819 0.0
H792 H 0.0154 0.20938 0.06455 0.0
H793 H 0.05107 0.19007 0.14453 0.0
H794 H 0.05397 0.14174 0.13231 0.0
H795 H 0.0466 0.10435 0.09846 0.0
H796 H 0.01136 0.12474 0.01842 0.0
H797 H 0.00804 0.17261 0.03119 0.0
C798 C 0.02388 0.1947 0.0794 0.0
C799 C 0.03304 0.20379 0.10554 0.0
C800 C 0.02549 0.16676 0.07221 0.0
C801 C 0.04388 0.18405 0.12428 0.0
C802 C 0.04551 0.15624 0.11728 0.0
C803 C 0.03801 0.11921 0.08387 0.0
C804 C 0.02914 0.11049 0.05741 0.0
C805 C 0.03635 0.14723 0.09128 0.0
C806 C 0.01835 0.13043 0.03888 0.0
C807 C 0.01646 0.15802 0.04616 0.0
H808 H 0.11722 0.78163 0.35996 0.0
H809 H 0.16748 0.77546 0.43294 0.0
H810 H 0.20846 0.77018 0.40222 0.0
H811 H 0.2299 0.76985 0.35485 0.0
H812 H 0.1796 0.77706 0.28189 0.0
H813 H 0.13843 0.77851 0.31262 0.0
C814 C 0.13714 0.77921 0.36918 0.0
C815 C 0.13941 0.77932 0.39865 0.0
C816 C 0.16046 0.77595 0.35147 0.0
C817 C 0.16527 0.77565 0.41029 0.0
C818 C 0.18866 0.77252 0.39276 0.0
C819 C 0.20992 0.7712 0.34558 0.0
C820 C 0.2078 0.77344 0.3161 0.0
C821 C 0.18646 0.77285 0.36334 0.0
C822 C 0.18177 0.77527 0.3045 0.0
C823 C 0.15826 0.77636 0.32206 0.0
H824 H 0.55412 0.89342 0.64622 0.0
H825 H 0.50447 0.84991 0.58957 0.0
H826 H 0.4979 0.8919 0.56118 0.0
H827 H 0.5061 0.9421 0.55265 0.0
H828 H 0.55775 0.98325 0.60966 0.0
H829 H 0.56339 0.94157 0.63725 0.0
C830 C 0.54183 0.89294 0.62765 0.0
C831 C 0.52976 0.86824 0.62032 0.0
C832 C 0.53838 0.9171 0.61128 0.0
C833 C 0.51413 0.86839 0.5959 0.0
C834 C 0.51029 0.89255 0.57964 0.0
C835 C 0.51857 0.94192 0.5711 0.0
C836 C 0.53145 0.96625 0.57877 0.0
C837 C 0.52225 0.91722 0.58713 0.0
C838 C 0.54763 0.96521 0.60282 0.0
C839 C 0.5509 0.94121 0.61883 0.0
H840 H 0.46237 0.29131 0.89981 0.0
H841 H 0.50063 0.36152 0.86023 0.0
H842 H 0.45921 0.37143 0.8341 0.0
H843 H 0.41279 0.35891 0.82132 0.0
H844 H 0.37476 0.28921 0.86213 0.0
H845 H 0.41564 0.28023 0.88893 0.0
C846 C 0.46171 0.30877 0.88543 0.0
C847 C 0.48455 0.32551 0.88172 0.0
C848 C 0.43794 0.31437 0.87068 0.0
C849 C 0.48327 0.34828 0.86335 0.0
C850 C 0.45963 0.35394 0.84841 0.0
C851 C 0.41335 0.34201 0.83635 0.0
C852 C 0.39093 0.32458 0.83948 0.0
C853 C 0.43691 0.33701 0.8518 0.0
C854 C 0.39198 0.30259 0.85889 0.0
C855 C 0.41528 0.29751 0.87433 0.0
H856 H 0.05605 0.84127 0.50202 0.0
H857 H 0.97213 0.82905 0.4807 0.0
H858 H 0.95728 0.86772 0.50951 0.0
H859 H 0.96909 0.90853 0.53572 0.0
H860 H 0.05299 0.92026 0.55702 0.0
H861 H 0.06689 0.87814 0.53359 0.0
C862 C 0.03448 0.84689 0.50396 0.0
C863 C 0.0153 0.8327 0.4889 0.0
C864 C 0.0261 0.86915 0.52044 0.0
C865 C 0.98735 0.83983 0.49198 0.0
C866 C 0.97882 0.86198 0.50838 0.0
C867 C 0.99023 0.90141 0.53586 0.0
C868 C 0.01008 0.91768 0.5475 0.0
C869 C 0.99813 0.87729 0.52204 0.0
C870 C 0.03748 0.90831 0.54757 0.0
C871 C 0.04544 0.88426 0.53419 0.0
H872 H 0.44986 0.80294 0.71455 0.0
H873 H 0.43824 0.72799 0.6708 0.0
H874 H 0.39384 0.72235 0.69496 0.0
H875 H 0.35696 0.73927 0.72701 0.0
H876 H 0.36651 0.81533 0.76931 0.0
H877 H 0.41244 0.81986 0.7475 0.0
C878 C 0.43774 0.78525 0.71058 0.0
C879 C 0.44766 0.7659 0.69078 0.0
C880 C 0.41151 0.78235 0.72423 0.0
C881 C 0.4313 0.7433 0.68574 0.0
C882 C 0.40577 0.74001 0.6996 0.0
C883 C 0.3691 0.75678 0.73167 0.0
C884 C 0.35804 0.77686 0.74998 0.0
C885 C 0.39545 0.75952 0.71863 0.0
C886 C 0.37426 0.79949 0.75539 0.0
C887 C 0.40066 0.80211 0.74287 0.0
H888 H 0.54555 0.19923 0.9298 0.0
H889 H 0.59397 0.21654 0.00152 0.0
H890 H 0.59807 0.1679 0.01264 0.0
H891 H 0.58442 0.12129 0.00464 0.0
H892 H 0.53494 0.10346 0.93398 0.0
H893 H 0.53548 0.1516 0.91918 0.0
C894 C 0.55709 0.19234 0.9478 0.0
C895 C 0.56906 0.21146 0.96511 0.0
C896 C 0.55936 0.16435 0.95408 0.0
C897 C 0.58437 0.20224 0.98803 0.0
C898 C 0.58676 0.17446 0.99438 0.0
C899 C 0.5741 0.12784 0.98571 0.0
C900 C 0.55938 0.10901 0.97058 0.0
C901 C 0.57388 0.15545 0.97789 0.0
C902 C 0.54644 0.11763 0.94592 0.0
C903 C 0.5465 0.14517 0.93766 0.0
H904 H 0.13453 0.32844 0.17835 0.0
H905 H 0.1021 0.25772 0.22229 0.0
H906 H 0.14408 0.25327 0.2491 0.0
H907 H 0.19133 0.26863 0.25891 0.0
H908 H 0.22247 0.3397 0.21425 0.0
H909 H 0.17998 0.34471 0.1893 0.0
C910 C 0.13644 0.31204 0.19386 0.0
C911 C 0.11488 0.29339 0.19803 0.0
C912 C 0.16069 0.3096 0.20922 0.0
C913 C 0.11809 0.27244 0.21847 0.0
C914 C 0.14225 0.26985 0.23382 0.0
C915 C 0.18874 0.28538 0.24393 0.0
C916 C 0.21048 0.30375 0.23868 0.0
C917 C 0.16388 0.2882 0.22926 0.0
C918 C 0.20645 0.32519 0.21896 0.0
C919 C 0.18202 0.32808 0.20452 0.0
H920 H 0.13146 0.99426 0.23885 0.0
H921 H 0.12653 0.08205 0.23067 0.0
H922 H 0.10482 0.07818 0.18529 0.0
H923 H 0.08454 0.04968 0.14965 0.0
H924 H 0.08932 0.96202 0.15872 0.0
H925 H 0.11363 0.96605 0.20237 0.0
C926 C 0.12582 0.0126 0.22711 0.0
C927 C 0.13038 0.0384 0.23822 0.0
C928 C 0.11309 0.01024 0.20138 0.0
C929 C 0.12313 0.06193 0.22261 0.0
C930 C 0.11066 0.05974 0.19672 0.0
C931 C 0.09125 0.0315 0.16099 0.0
C932 C 0.08491 0.00561 0.15115 0.0
C933 C 0.10516 0.03398 0.18614 0.0
C934 C 0.09349 0.98218 0.16618 0.0
C935 C 0.10752 0.98446 0.19103 0.0
H936 H 0.32809 0.83739 0.48363 0.0
H937 H 0.24008 0.8323 0.48149 0.0
H938 H 0.24447 0.80354 0.44009 0.0
H939 H 0.27287 0.78512 0.40138 0.0
H940 H 0.36048 0.79431 0.40043 0.0
H941 H 0.35687 0.81513 0.44685 0.0
C942 C 0.30991 0.82959 0.47437 0.0
C943 C 0.2838 0.83724 0.48525 0.0
C944 C 0.31256 0.81379 0.45007 0.0
C945 C 0.26039 0.82699 0.47316 0.0
C946 C 0.26288 0.81053 0.44955 0.0
C947 C 0.29119 0.79152 0.41143 0.0
C948 C 0.3168 0.78881 0.39722 0.0
C949 C 0.2888 0.80466 0.4373 0.0
C950 C 0.3405 0.79626 0.41088 0.0
C951 C 0.33841 0.80844 0.43728 0.0
H952 H 0.45128 0.0769 0.70726 0.0
H953 H 0.38593 0.02808 0.67772 0.0
H954 H 0.40853 0.02626 0.631 0.0
H955 H 0.44733 0.03758 0.59908 0.0
H956 H 0.51335 0.0851 0.62921 0.0
H957 H 0.48965 0.08876 0.67524 0.0
C958 C 0.44196 0.06582 0.69064 0.0
C959 C 0.41704 0.05257 0.69596 0.0
C960 C 0.45503 0.06483 0.66394 0.0
C961 C 0.4052 0.03835 0.67418 0.0
C962 C 0.41804 0.03738 0.64745 0.0
C963 C 0.45635 0.04906 0.6156 0.0
C964 C 0.48196 0.06115 0.6108 0.0
C965 C 0.44297 0.05052 0.64214 0.0
C966 C 0.4936 0.07565 0.63246 0.0
C967 C 0.48014 0.07766 0.65878 0.0
H968 H 0.26881 0.16575 0.91342 0.0
H969 H 0.30202 0.22714 0.96552 0.0
H970 H 0.30441 0.25885 0.92485 0.0
H971 H 0.29802 0.26888 0.87365 0.0
H972 H 0.26215 0.20776 0.82301 0.0
H973 H 0.25992 0.17652 0.86364 0.0
C974 C 0.27652 0.1861 0.91599 0.0
C975 C 0.28538 0.19384 0.94268 0.0
C976 C 0.27743 0.2044 0.89256 0.0
C977 C 0.29499 0.2205 0.94542 0.0
C978 C 0.29645 0.23866 0.92205 0.0
C979 C 0.28963 0.24876 0.87153 0.0
C980 C 0.28034 0.24082 0.84501 0.0
C981 C 0.28789 0.23081 0.89539 0.0
C982 C 0.26937 0.21464 0.84295 0.0
C983 C 0.26814 0.19664 0.86626 0.0
H984 H 0.08639 0.997 0.38106 0.0
H985 H 0.083 0.08439 0.36808 0.0
H986 H 0.06276 0.08996 0.41543 0.0
H987 H 0.05317 0.0705 0.46258 0.0
H988 H 0.05662 0.9833 0.476 0.0
H989 H 0.06999 0.97703 0.42619 0.0
C990 C 0.08066 0.01722 0.3884 0.0
C991 C 0.08676 0.04029 0.3715 0.0
C992 C 0.06971 0.02029 0.4158 0.0
C993 C 0.07872 0.06633 0.38087 0.0
C994 C 0.06741 0.06956 0.40801 0.0
C995 C 0.05672 0.05014 0.45446 0.0
C996 C 0.05478 0.0274 0.47272 0.0
C997 C 0.0641 0.04678 0.42602 0.0
C998 C 0.05847 0.00104 0.46213 0.0
C999 C 0.06604 0.99749 0.43378 0.0
H1000 H 0.2464 0.80767 0.60402 0.0
H1001 H 0.26427 0.88922 0.62995 0.0
H1002 H 0.26608 0.87355 0.6788 0.0
H1003 H 0.26456 0.8368 0.71363 0.0
H1004 H 0.24898 0.75457 0.68841 0.0
H1005 H 0.24382 0.77058 0.63966 0.0
C1006 C 0.2506 0.82199 0.62039 0.0
C1007 C 0.25535 0.84948 0.61338 0.0
C1008 C 0.25189 0.81281 0.64847 0.0
C1009 C 0.26076 0.86787 0.63477 0.0
C1010 C 0.26171 0.85899 0.66273 0.0
C1011 C 0.25976 0.82234 0.69758 0.0
C1012 C 0.2572 0.79456 0.70454 0.0
C1013 C 0.25755 0.83151 0.66973 0.0
C1014 C 0.25105 0.7761 0.68349 0.0
C1015 C 0.24822 0.78521 0.65565 0.0
H1016 H 0.45269 0.9961 0.80052 0.0
H1017 H 0.39066 0.03926 0.85035 0.0
H1018 H 0.4191 0.03596 0.89136 0.0
H1019 H 0.46202 0.02246 0.91261 0.0
H1020 H 0.52486 0.98023 0.8634 0.0
H1021 H 0.49553 0.98123 0.82257 0.0
C1022 C 0.44532 0.00451 0.82044 0.0
C1023 C 0.41971 0.01802 0.82235 0.0
C1024 C 0.46193 0.00285 0.84394 0.0
C1025 C 0.41041 0.0289 0.84826 0.0
C1026 C 0.42664 0.02707 0.87174 0.0
C1027 C 0.4694 0.01373 0.89287 0.0
C1028 C 0.49562 0.00162 0.89082 0.0
C1029 C 0.45257 0.01449 0.86967 0.0
C1030 C 0.50467 0.98964 0.86539 0.0
C1031 C 0.48796 0.99028 0.84209 0.0
H1032 H 0.28458 0.18051 0.12242 0.0
H1033 H 0.3091 0.25305 0.07584 0.0
H1034 H 0.31291 0.27735 0.11963 0.0
H1035 H 0.30868 0.27902 0.17121 0.0
H1036 H 0.28343 0.20756 0.21892 0.0
H1037 H 0.28082 0.18216 0.1751 0.0
C1038 C 0.29075 0.20163 0.12183 0.0
C1039 C 0.29646 0.21474 0.09545 0.0
C1040 C 0.29294 0.21584 0.1475 0.0
C1041 C 0.30448 0.24219 0.09548 0.0
C1042 C 0.30673 0.25624 0.12067 0.0
C1043 C 0.30285 0.2578 0.17218 0.0
C1044 C 0.29645 0.24533 0.19864 0.0
C1045 C 0.301 0.24338 0.14681 0.0
C1046 C 0.28867 0.21781 0.19908 0.0
C1047 C 0.28705 0.20324 0.1739 0.0
H1048 H 0.19497 0.11257 0.97752 0.0
H1049 H 0.21791 0.09976 0.06374 0.0
H1050 H 0.17707 0.07216 0.07303 0.0
H1051 H 0.13298 0.05344 0.05704 0.0
H1052 H 0.11191 0.06622 0.97006 0.0
H1053 H 0.15358 0.09159 0.96091 0.0
C1054 C 0.19122 0.10368 0.99838 0.0
C1055 C 0.20964 0.10857 0.01991 0.0
C1056 C 0.16776 0.08766 0.00351 0.0
C1057 C 0.20428 0.09647 0.04667 0.0
C1058 C 0.18078 0.08068 0.05203 0.0
C1059 C 0.1377 0.06141 0.03599 0.0
C1060 C 0.11891 0.05776 0.01435 0.0
C1061 C 0.16211 0.07632 0.03067 0.0
C1062 C 0.12561 0.06854 0.98726 0.0
C1063 C 0.14956 0.08323 0.98194 0.0
H1064 H 0.69105 0.47296 0.04055 0.0
H1065 H 0.63753 0.40601 0.06192 0.0
H1066 H 0.59779 0.43686 0.05984 0.0
H1067 H 0.57846 0.48206 0.05057 0.0
H1068 H 0.63147 0.54911 0.02815 0.0
H1069 H 0.6716 0.51882 0.0327 0.0
C1070 C 0.67069 0.46507 0.04473 0.0
C1071 C 0.66718 0.4372 0.05118 0.0
C1072 C 0.64802 0.48289 0.04357 0.0
C1073 C 0.64073 0.42736 0.0568 0.0
C1074 C 0.61804 0.44497 0.05568 0.0
C1075 C 0.59878 0.4902 0.04682 0.0
C1076 C 0.60204 0.51776 0.03887 0.0
C1077 C 0.6215 0.47268 0.04893 0.0
C1078 C 0.62849 0.52797 0.03434 0.0
C1079 C 0.65136 0.51065 0.03676 0.0
H1080 H 0.87132 0.46002 0.25437 0.0
H1081 H 0.80439 0.51057 0.28658 0.0
H1082 H 0.78128 0.46997 0.30572 0.0
H1083 H 0.78054 0.41972 0.31321 0.0
H1084 H 0.84869 0.3707 0.28153 0.0
H1085 H 0.87125 0.41126 0.26261 0.0
C1086 C 0.85156 0.46225 0.26535 0.0
C1087 C 0.83948 0.48817 0.2689 0.0
C1088 C 0.83884 0.43913 0.2767 0.0
C1089 C 0.81401 0.49071 0.28347 0.0
C1090 C 0.80089 0.46757 0.29454 0.0
C1091 C 0.80047 0.41819 0.3025 0.0
C1092 C 0.81296 0.39247 0.29853 0.0
C1093 C 0.81324 0.44166 0.29144 0.0
C1094 C 0.83867 0.39039 0.28445 0.0
C1095 C 0.85152 0.4135 0.27363 0.0
H1096 H 0.85679 0.59719 0.50087 0.0
H1097 H 0.87206 0.64192 0.57601 0.0
H1098 H 0.91744 0.62101 0.57837 0.0
H1099 H 0.95388 0.59131 0.55871 0.0
H1100 H 0.94062 0.54734 0.48271 0.0
H1101 H 0.89395 0.56645 0.48115 0.0
C1102 C 0.86997 0.60213 0.51786 0.0
C1103 C 0.86076 0.62126 0.5382 0.0
C1104 C 0.8967 0.59023 0.51893 0.0
C1105 C 0.87841 0.6275 0.55991 0.0
C1106 C 0.90452 0.6155 0.56135 0.0
C1107 C 0.9408 0.58573 0.54184 0.0
C1108 C 0.95097 0.56777 0.52091 0.0
C1109 C 0.91404 0.59706 0.54087 0.0
C1110 C 0.93352 0.56105 0.49917 0.0
C1111 C 0.90672 0.57202 0.49826 0.0
H1112 H 0.22977 0.08613 0.28076 0.0
H1113 H 0.19304 0.08616 0.36491 0.0
H1114 H 0.21108 0.13133 0.37269 0.0
H1115 H 0.23419 0.1722 0.35414 0.0
H1116 H 0.26906 0.17284 0.26936 0.0
H1117 H 0.25475 0.12603 0.26311 0.0
C1118 C 0.22607 0.09588 0.30092 0.0
C1119 C 0.21006 0.08304 0.32216 0.0
C1120 C 0.23586 0.12206 0.30498 0.0
C1121 C 0.2052 0.09587 0.34815 0.0
C1122 C 0.21545 0.12166 0.35262 0.0
C1123 C 0.23889 0.16187 0.3345 0.0
C1124 C 0.25229 0.17585 0.31217 0.0
C1125 C 0.23031 0.13516 0.33097 0.0
C1126 C 0.25821 0.16252 0.28663 0.0
C1127 C 0.25021 0.13576 0.28311 0.0
H1128 H 0.32541 0.94817 0.50258 0.0
H1129 H 0.32253 0.97008 0.59041 0.0
H1130 H 0.36482 0.9954 0.58311 0.0
H1131 H 0.40331 0.00996 0.55207 0.0
H1132 H 0.4062 0.98759 0.46449 0.0
H1133 H 0.36289 0.96397 0.47134 0.0
C1134 C 0.33394 0.95856 0.52013 0.0
C1135 C 0.32096 0.9571 0.54703 0.0
C1136 C 0.35822 0.97295 0.51583 0.0
C1137 C 0.33216 0.97085 0.56949 0.0
C1138 C 0.35636 0.98528 0.56536 0.0
C1139 C 0.3945 0.99977 0.53456 0.0
C1140 C 0.40796 1.00032 0.50788 0.0
C1141 C 0.3697 0.98618 0.53869 0.0
C1142 C 0.39608 0.98758 0.48517 0.0
C1143 C 0.37142 0.97398 0.48911 0.0
H1144 H 0.85883 0.64049 0.24462 0.0
H1145 H 0.90407 0.65365 0.31946 0.0
H1146 H 0.89261 0.70257 0.31671 0.0
H1147 H 0.86436 0.73975 0.29653 0.0
H1148 H 0.81701 0.72478 0.22353 0.0
H1149 H 0.83546 0.67823 0.22142 0.0
C1150 C 0.86622 0.65405 0.26035 0.0
C1151 C 0.8815 0.6436 0.28271 0.0
C1152 C 0.85944 0.68171 0.2587 0.0
C1153 C 0.89182 0.66138 0.30237 0.0
C1154 C 0.88534 0.68924 0.30074 0.0
C1155 C 0.85884 0.7265 0.27966 0.0
C1156 C 0.83932 0.73529 0.26031 0.0
C1157 C 0.86848 0.69944 0.27945 0.0
C1158 C 0.83197 0.71812 0.23866 0.0
C1159 C 0.84229 0.69155 0.23761 0.0
H1160 H 0.74111 0.43952 0.77993 0.0
H1161 H 0.74516 0.43614 0.87058 0.0
H1162 H 0.77407 0.39468 0.86757 0.0
H1163 H 0.78981 0.35524 0.83947 0.0
H1164 H 0.78168 0.35764 0.74915 0.0
H1165 H 0.76349 0.40427 0.75148 0.0
C1166 C 0.74873 0.42991 0.799 0.0
C1167 C 0.74057 0.44015 0.82546 0.0
C1168 C 0.7646 0.40603 0.79705 0.0
C1169 C 0.75104 0.42822 0.85002 0.0
C1170 C 0.76743 0.40455 0.84827 0.0
C1171 C 0.78503 0.36641 0.82024 0.0
C1172 C 0.78667 0.35315 0.7942 0.0
C1173 C 0.77323 0.39263 0.82195 0.0
C1174 C 0.78032 0.36757 0.76939 0.0
C1175 C 0.76972 0.39406 0.77076 0.0
H1176 H 0.05592 0.85499 0.99165 0.0
H1177 H 0.01625 0.87585 0.91416 0.0
H1178 H 0.01734 0.92431 0.92571 0.0
H1179 H 0.02915 0.96138 0.95833 0.0
H1180 H 0.06816 0.93962 0.03602 0.0
H1181 H 0.06785 0.89155 0.02377 0.0
C1182 C 0.04744 0.87003 0.97718 0.0
C1183 C 0.03593 0.8613 0.95195 0.0
C1184 C 0.04814 0.89808 0.98399 0.0
C1185 C 0.02518 0.88155 0.93372 0.0
C1186 C 0.02585 0.90945 0.94032 0.0
C1187 C 0.03785 0.94618 0.97248 0.0
C1188 C 0.04887 0.95458 0.99813 0.0
C1189 C 0.0373 0.91807 0.96543 0.0
C1190 C 0.05964 0.93419 0.01616 0.0
C1191 C 0.0594 0.90649 0.00918 0.0
H1192 H 0.90927 0.26441 0.66499 0.0
H1193 H 0.95936 0.2969 0.7291 0.0
H1194 H 0.92243 0.29029 0.76439 0.0
H1195 H 0.87516 0.27795 0.77639 0.0
H1196 H 0.82412 0.24781 0.71193 0.0
H1197 H 0.86252 0.25027 0.67748 0.0
C1198 C 0.91218 0.26989 0.68672 0.0
C1199 C 0.93693 0.28129 0.69438 0.0
C1200 C 0.89076 0.2664 0.70681 0.0
C1201 C 0.9404 0.28829 0.72261 0.0
C1202 C 0.91934 0.28446 0.74282 0.0
C1203 C 0.87255 0.27157 0.75489 0.0
C1204 C 0.84693 0.26278 0.74663 0.0
C1205 C 0.89433 0.27388 0.73507 0.0
C1206 C 0.84368 0.25481 0.71867 0.0
C1207 C 0.86554 0.25631 0.69898 0.0
H1208 H 0.54573 0.20962 0.46454 0.0
H1209 H 0.46204 0.20116 0.44057 0.0
H1210 H 0.46036 0.15623 0.46326 0.0
H1211 H 0.48225 0.11863 0.49044 0.0
H1212 H 0.56523 0.12756 0.51639 0.0
H1213 H 0.56738 0.17221 0.49283 0.0
C1214 C 0.52715 0.19794 0.4642 0.0
C1215 C 0.50407 0.20917 0.45062 0.0
C1216 C 0.52606 0.17186 0.4779 0.0
C1217 C 0.48018 0.19346 0.45079 0.0
C1218 C 0.47915 0.16755 0.46382 0.0
C1219 C 0.5008 0.13032 0.49104 0.0
C1220 C 0.52348 0.11937 0.50542 0.0
C1221 C 0.50189 0.15645 0.47757 0.0
C1222 C 0.54728 0.13519 0.50576 0.0
C1223 C 0.54861 0.16088 0.49214 0.0
H1224 H 0.58383 0.78227 0.20644 0.0
H1225 H 0.62388 0.84707 0.15893 0.0
H1226 H 0.6677 0.83328 0.17843 0.0
H1227 H 0.6945 0.80267 0.20839 0.0
H1228 H 0.65471 0.73823 0.25641 0.0
H1229 H 0.61081 0.7516 0.23656 0.0
C1230 C 0.6021 0.79351 0.20047 0.0
C1231 C 0.6006 0.81573 0.18135 0.0
C1232 C 0.62723 0.78532 0.21152 0.0
C1233 C 0.62449 0.82991 0.17364 0.0
C1234 C 0.64955 0.82201 0.18471 0.0
C1235 C 0.6762 0.79169 0.21473 0.0
C1236 C 0.6778 0.76963 0.23401 0.0
C1237 C 0.65112 0.79972 0.20358 0.0
C1238 C 0.65403 0.75513 0.24143 0.0
C1239 C 0.62892 0.76292 0.23028 0.0
H1240 H 0.05424 0.25267 0.59631 0.0
H1241 H 0.97329 0.24091 0.56588 0.0
H1242 H 0.98951 0.1994 0.54193 0.0
H1243 H 0.02529 0.16382 0.53534 0.0
H1244 H 0.10569 0.1754 0.56703 0.0
H1245 H 0.09139 0.22039 0.58434 0.0
C1246 C 0.04021 0.24115 0.58422 0.0
C1247 C 0.01252 0.24926 0.58331 0.0
C1248 C 0.04964 0.21751 0.57079 0.0
C1249 C 0.99464 0.23475 0.56699 0.0
C1250 C 0.00389 0.21107 0.55343 0.0
C1251 C 0.03971 0.17649 0.54565 0.0
C1252 C 0.06629 0.16638 0.55047 0.0
C1253 C 0.03112 0.20186 0.55601 0.0
C1254 C 0.08516 0.18294 0.5632 0.0
C1255 C 0.07689 0.20844 0.57329 0.0
H1256 H 0.61298 0.23299 0.34568 0.0
H1257 H 0.60912 0.317 0.37109 0.0
H1258 H 0.65559 0.3237 0.35142 0.0
H1259 H 0.69806 0.30549 0.32743 0.0
H1260 H 0.70083 0.22164 0.30125 0.0
H1261 H 0.65448 0.21528 0.32071 0.0
C1262 C 0.62218 0.25285 0.34691 0.0
C1263 C 0.60727 0.27442 0.36004 0.0
C1264 C 0.649 0.25662 0.3354 0.0
C1265 C 0.61982 0.29997 0.36116 0.0
C1266 C 0.64655 0.30381 0.34993 0.0
C1267 C 0.68855 0.28581 0.32597 0.0
C1268 C 0.70329 0.26407 0.31285 0.0
C1269 C 0.66147 0.28226 0.33709 0.0
C1270 C 0.69029 0.23881 0.31113 0.0
C1271 C 0.66364 0.2351 0.32231 0.0
H1272 H 0.51162 0.87928 0.08993 0.0
H1273 H 0.51634 0.92524 0.16634 0.0
H1274 H 0.51738 0.96772 0.13865 0.0
H1275 H 0.51956 0.99128 0.09293 0.0
H1276 H 0.51587 0.94549 0.0163 0.0
H1277 H 0.51129 0.90322 0.04414 0.0
C1278 C 0.51278 0.89859 0.10056 0.0
C1279 C 0.51419 0.89914 0.1301 0.0
C1280 C 0.51344 0.92284 0.08455 0.0
C1281 C 0.51536 0.9243 0.1436 0.0
C1282 C 0.51595 0.94856 0.1278 0.0
C1283 C 0.51754 0.9721 0.08225 0.0
C1284 C 0.51829 0.97144 0.0526 0.0
C1285 C 0.51537 0.94799 0.09828 0.0
C1286 C 0.51539 0.94648 0.03911 0.0
C1287 C 0.51291 0.92234 0.055 0.0
H1288 H 0.93394 0.73343 0.8566 0.0
H1289 H 0.95458 0.81814 0.84602 0.0
H1290 H 0.91254 0.82669 0.8201 0.0
H1291 H 0.86831 0.81022 0.8017 0.0
H1292 H 0.84904 0.72512 0.81341 0.0
H1293 H 0.89173 0.71689 0.83715 0.0
C1294 C 0.92945 0.75383 0.84859 0.0
C1295 C 0.94774 0.77507 0.85356 0.0
C1296 C 0.90515 0.75862 0.8337 0.0
C1297 C 0.94118 0.80127 0.84269 0.0
C1298 C 0.91698 0.8062 0.82782 0.0
C1299 C 0.8736 0.78981 0.80914 0.0
C1300 C 0.85504 0.76836 0.80552 0.0
C1301 C 0.89858 0.78506 0.82331 0.0
C1302 C 0.8625 0.74215 0.8157 0.0
C1303 C 0.88708 0.73735 0.82944 0.0
H1304 H 0.91854 0.05706 0.84303 0.0
H1305 H 0.98709 0.0667 0.78404 0.0
H1306 H 0.01834 0.06825 0.8233 0.0
H1307 H 0.02572 0.06688 0.87455 0.0
H1308 H 0.95715 0.05429 0.93268 0.0
H1309 H 0.92604 0.05369 0.89348 0.0
C1310 C 0.94032 0.05966 0.83879 0.0
C1311 C 0.95062 0.0621 0.81092 0.0
C1312 C 0.95799 0.05986 0.86123 0.0
C1313 C 0.97885 0.06486 0.8055 0.0
C1314 C 0.99663 0.06577 0.82785 0.0
C1315 C 0.00394 0.06407 0.87842 0.0
C1316 C 0.99351 0.06074 0.90617 0.0
C1317 C 0.98638 0.0633 0.85579 0.0
C1318 C 0.96543 0.05669 0.91131 0.0
C1319 C 0.94772 0.05649 0.88901 0.0
H1320 H 0.75624 0.22054 0.58626 0.0
H1321 H 0.83979 0.23862 0.60501 0.0
H1322 H 0.8237 0.26228 0.64749 0.0
H1323 H 0.7867 0.27239 0.68213 0.0
H1324 H 0.70363 0.25254 0.66512 0.0
H1325 H 0.71862 0.2351 0.61863 0.0
C1326 C 0.77097 0.22989 0.59945 0.0
C1327 C 0.79924 0.2274 0.59278 0.0
C1328 C 0.76166 0.24285 0.62414 0.0
C1329 C 0.81798 0.23995 0.60988 0.0
C1330 C 0.80882 0.25339 0.63419 0.0
C1331 C 0.77195 0.26452 0.66795 0.0
C1332 C 0.74428 0.26319 0.67678 0.0
C1333 C 0.78086 0.25411 0.64194 0.0
C1334 C 0.72502 0.25355 0.65845 0.0
C1335 C 0.73365 0.24349 0.63213 0.0
H1336 H 0.62462 0.01055 0.38674 0.0
H1337 H 0.56928 0.07339 0.35668 0.0
H1338 H 0.54618 0.07508 0.40338 0.0
H1339 H 0.54091 0.05733 0.45191 0.0
H1340 H 0.59847 0.99739 0.4833 0.0
H1341 H 0.62184 0.99565 0.43654 0.0
C1342 C 0.60755 0.02467 0.39053 0.0
C1343 C 0.59829 0.04161 0.36849 0.0
C1344 C 0.59484 0.0258 0.41737 0.0
C1345 C 0.5766 0.06021 0.37351 0.0
C1346 C 0.56338 0.06106 0.40006 0.0
C1347 C 0.55853 0.04383 0.44833 0.0
C1348 C 0.56782 0.02701 0.47037 0.0
C1349 C 0.57214 0.04369 0.42195 0.0
C1350 C 0.59101 0.01016 0.46622 0.0
C1351 C 0.60427 0.00925 0.43965 0.0
H1352 H 0.8363 0.88734 0.12478 0.0
H1353 H 0.76123 0.85715 0.09321 0.0
H1354 H 0.75163 0.8337 0.1386 0.0
H1355 H 0.76462 0.82186 0.18801 0.0
H1356 H 0.8395 0.85388 0.21857 0.0
H1357 H 0.84882 0.87631 0.1732 0.0
C1358 C 0.81783 0.87555 0.12762 0.0
C1359 C 0.79963 0.87404 0.10523 0.0
C1360 C 0.81228 0.86238 0.15391 0.0
C1361 C 0.77573 0.85874 0.10981 0.0
C1362 C 0.7702 0.8453 0.13589 0.0
C1363 C 0.78297 0.83376 0.18475 0.0
C1364 C 0.80129 0.83598 0.20706 0.0
C1365 C 0.78831 0.84699 0.15823 0.0
C1366 C 0.8249 0.85165 0.20216 0.0
C1367 C 0.83035 0.86455 0.17604 0.0
H1368 H 0.96485 0.10312 0.71216 0.0
H1369 H 0.89412 0.07391 0.67075 0.0
H1370 H 0.92305 0.05991 0.63046 0.0
H1371 H 0.96841 0.0516 0.60953 0.0
H1372 H 0.03978 0.08113 0.64912 0.0
H1373 H 0.01059 0.0992 0.68815 0.0
C1374 C 0.95573 0.09437 0.69397 0.0
C1375 C 0.92748 0.0893 0.69442 0.0
C1376 C 0.97261 0.08573 0.67115 0.0
C1377 C 0.91587 0.07782 0.67085 0.0
C1378 C 0.93238 0.06961 0.64797 0.0
C1379 C 0.9776 0.06177 0.62689 0.0
C1380 C 0.0061 0.06424 0.62729 0.0
C1381 C 0.96079 0.07254 0.64845 0.0
C1382 C 0.01783 0.07849 0.649 0.0
C1383 C 1.00116 0.08892 0.67107 0.0
H1384 H 0.81071 0.18151 0.43592 0.0
H1385 H 0.82425 0.26186 0.4678 0.0
H1386 H 0.82446 0.28083 0.41983 0.0
H1387 H 0.81614 0.27525 0.36988 0.0
H1388 H 0.80108 0.19521 0.33805 0.0
H1389 H 0.80667 0.17529 0.38517 0.0
C1390 C 0.81391 0.20315 0.43237 0.0
C1391 C 0.81698 0.22036 0.45536 0.0
C1392 C 0.81373 0.21392 0.40486 0.0
C1393 C 0.82158 0.24825 0.45044 0.0
C1394 C 0.82168 0.2591 0.42305 0.0
C1395 C 0.81441 0.25338 0.37314 0.0
C1396 C 0.80779 0.23675 0.35068 0.0
C1397 C 0.81707 0.24222 0.40025 0.0
C1398 C 0.80601 0.20844 0.3551 0.0
C1399 C 0.80906 0.19708 0.38203 0.0
H1400 H 0.5605 0.05916 0.24123 0.0
H1401 H 0.59792 0.98201 0.21771 0.0
H1402 H 0.58868 0.99168 0.16829 0.0
H1403 H 0.57499 0.02398 0.13186 0.0
H1404 H 0.53719 0.10125 0.15476 0.0
H1405 H 0.54245 0.08984 0.20448 0.0
C1406 C 0.56603 0.0442 0.22536 0.0
C1407 C 0.58003 0.02001 0.23301 0.0
C1408 C 0.56137 0.05021 0.1969 0.0
C1409 C 0.58726 0.00086 0.21225 0.0
C1410 C 0.58216 0.00645 0.184 0.0
C1411 C 0.56735 0.03825 0.14751 0.0
C1412 C 0.55589 0.06359 0.13924 0.0
C1413 C 0.57004 0.03143 0.17605 0.0
C1414 C 0.54663 0.08183 0.16024 0.0
C1415 C 0.54937 0.07522 0.18879 0.0
H1416 H 0.75136 0.83165 0.95582 0.0
H1417 H 0.80055 0.90022 0.92945 0.0
H1418 H 0.80102 0.88474 0.88062 0.0
H1419 H 0.78809 0.85099 0.84498 0.0
H1420 H 0.74035 0.78173 0.87247 0.0
H1421 H 0.73856 0.79828 0.92069 0.0
C1422 C 0.76222 0.84331 0.93947 0.0
C1423 C 0.77593 0.86719 0.94668 0.0
C1424 C 0.76256 0.83416 0.9113 0.0
C1425 C 0.78987 0.88177 0.92486 0.0
C1426 C 0.79008 0.87293 0.89678 0.0
C1427 C 0.777 0.83969 0.86145 0.0
C1428 C 0.76414 0.81513 0.85474 0.0
C1429 C 0.77652 0.8491 0.88965 0.0
C1430 C 0.75034 0.80066 0.8767 0.0
C1431 C 0.74936 0.81011 0.90445 0.0
H1432 H 0.87292 0.97524 0.07703 0.0
H1433 H 0.8665 0.962 0.98791 0.0
H1434 H 0.91135 0.98252 0.97885 0.0
H1435 H 0.95317 0.00374 0.99632 0.0
H1436 H 0.9606 0.01376 0.08584 0.0
H1437 H 0.91488 0.9953 0.09453 0.0
C1438 C 0.88123 0.97689 0.05557 0.0
C1439 C 0.86602 0.96709 0.03319 0.0
C1440 C 0.9074 0.98829 0.05055 0.0
C1441 C 0.87753 0.96924 0.00561 0.0
C1442 C 0.90326 0.98107 0.00039 0.0
C1443 C 0.94468 0.00213 0.01772 0.0
C1444 C 0.9604 0.0105 0.04038 0.0
C1445 C 0.91847 0.99066 0.02268 0.0
C1446 C 0.9491 0.00767 0.06797 0.0
C1447 C 0.92289 0.99703 0.07297 0.0
H1448 H 0.3962 0.67076 0.9929 0.0
H1449 H 0.35574 0.6158 0.05244 0.0
H1450 H 0.3949 0.58433 0.04953 0.0
H1451 H 0.44092 0.57287 0.03105 0.0
H1452 H 0.48285 0.62886 0.97401 0.0
H1453 H 0.4425 0.65929 0.97445 0.0
C1454 C 0.39598 0.65194 0.00529 0.0
C1455 C 0.37314 0.64567 0.02287 0.0
C1456 C 0.41862 0.63397 0.00366 0.0
C1457 C 0.37316 0.62121 0.03884 0.0
C1458 C 0.39546 0.6031 0.03708 0.0
C1459 C 0.44098 0.59147 0.01828 0.0
C1460 C 0.46451 0.59854 0.00222 0.0
C1461 C 0.41824 0.60926 0.01954 0.0
C1462 C 0.46473 0.62299 0.98633 0.0
C1463 C 0.4418 0.64043 0.98674 0.0
H1464 H 0.21896 0.55408 0.78813 0.0
H1465 H 0.16442 0.60056 0.84348 0.0
H1466 H 0.19154 0.64115 0.83413 0.0
H1467 H 0.22737 0.66417 0.80658 0.0
H1468 H 0.28216 0.61816 0.75111 0.0
H1469 H 0.25781 0.57649 0.76394 0.0
C1470 C 0.21318 0.573 0.79845 0.0
C1471 C 0.1895 0.5744 0.81618 0.0
C1472 C 0.22858 0.59634 0.79265 0.0
C1473 C 0.18245 0.59897 0.82959 0.0
C1474 C 0.19787 0.62222 0.82417 0.0
C1475 C 0.23454 0.64505 0.7977 0.0
C1476 C 0.25651 0.64445 0.77768 0.0
C1477 C 0.22052 0.62126 0.80518 0.0
C1478 C 0.26502 0.61934 0.76615 0.0
C1479 C 0.2512 0.59548 0.7736 0.0
H1480 H 0.20226 0.47759 0.54272 0.0
H1481 H 0.18627 0.43407 0.46705 0.0
H1482 H 0.14167 0.45677 0.46421 0.0
H1483 H 0.10597 0.48741 0.48388 0.0
H1484 H 0.11981 0.52973 0.56077 0.0
H1485 H 0.16595 0.50928 0.56241 0.0
C1486 C 0.18912 0.47335 0.52547 0.0
C1487 C 0.19785 0.45406 0.50509 0.0
C1488 C 0.16282 0.48617 0.52424 0.0
C1489 C 0.18025 0.44865 0.4831 0.0
C1490 C 0.15461 0.46165 0.48143 0.0
C1491 C 0.11908 0.49237 0.50095 0.0
C1492 C 0.10922 0.51026 0.52211 0.0
C1493 C 0.14548 0.48019 0.50201 0.0
C1494 C 0.12667 0.51612 0.54412 0.0
C1495 C 0.15316 0.50438 0.54509 0.0
H1496 H 0.87655 0.97167 0.7054 0.0
H1497 H 0.86895 0.97807 0.79596 0.0
H1498 H 0.84806 0.93331 0.7996 0.0
H1499 H 0.82698 0.89544 0.77664 0.0
H1500 H 0.83194 0.88988 0.68599 0.0
H1501 H 0.85871 0.93146 0.68262 0.0
C1502 C 0.87082 0.96293 0.72591 0.0
C1503 C 0.87396 0.97799 0.75034 0.0
C1504 C 0.85795 0.93769 0.72775 0.0
C1505 C 0.86637 0.96675 0.77686 0.0
C1506 C 0.85441 0.94127 0.77895 0.0
C1507 C 0.8344 0.90303 0.75622 0.0
C1508 C 0.82732 0.88992 0.73162 0.0
C1509 C 0.8493 0.92702 0.75447 0.0
C1510 C 0.83674 0.90006 0.70519 0.0
C1511 C 0.85215 0.92369 0.70327 0.0
H1512 H 0.7363 0.11396 0.55437 0.0
H1513 H 0.69433 0.17001 0.49852 0.0
H1514 H 0.65072 0.1488 0.51159 0.0
H1515 H 0.62476 0.11508 0.53953 0.0
H1516 H 0.66658 0.05935 0.59559 0.0
H1517 H 0.7103 0.08032 0.58231 0.0
C1518 C 0.71766 0.12141 0.54484 0.0
C1519 C 0.71848 0.1434 0.5254 0.0
C1520 C 0.69276 0.10949 0.5528 0.0
C1521 C 0.69416 0.15305 0.5135 0.0
C1522 C 0.66927 0.14101 0.52102 0.0
C1523 C 0.64348 0.10739 0.54865 0.0
C1524 C 0.64259 0.08562 0.56833 0.0
C1525 C 0.66837 0.11935 0.54075 0.0
C1526 C 0.66683 0.07625 0.58057 0.0
C1527 C 0.69178 0.08806 0.57281 0.0
H1528 H 0.19376 0.4332 0.81563 0.0
H1529 H 0.13397 0.39954 0.76208 0.0
H1530 H 0.15926 0.35574 0.76196 0.0
H1531 H 0.20097 0.32927 0.77319 0.0
H1532 H 0.2608 0.36442 0.82595 0.0
H1533 H 0.23238 0.40553 0.8308 0.0
C1534 C 0.18623 0.41626 0.80394 0.0
C1535 C 0.16256 0.41956 0.78828 0.0
C1536 C 0.20074 0.39154 0.804 0.0
C1537 C 0.15243 0.39736 0.77397 0.0
C1538 C 0.16684 0.37243 0.77392 0.0
C1539 C 0.20749 0.34571 0.78621 0.0
C1540 C 0.23307 0.34408 0.79888 0.0
C1541 C 0.19139 0.36956 0.78834 0.0
C1542 C 0.2413 0.36541 0.81576 0.0
C1543 C 0.22515 0.38893 0.81845 0.0
H1544 H 0.35741 0.65282 0.21404 0.0
H1545 H 0.28717 0.61083 0.24984 0.0
H1546 H 0.26181 0.65416 0.25366 0.0
H1547 H 0.26297 0.70447 0.25478 0.0
H1548 H 0.33457 0.74593 0.22211 0.0
H1549 H 0.3562 0.70232 0.20896 0.0
C1550 C 0.33637 0.65307 0.2222 0.0
C1551 C 0.32439 0.62885 0.23233 0.0
C1552 C 0.32236 0.67801 0.2252 0.0
C1553 C 0.29694 0.62932 0.24223 0.0
C1554 C 0.2825 0.65409 0.2446 0.0
C1555 C 0.28298 0.70376 0.24409 0.0
C1556 C 0.29741 0.72786 0.23931 0.0
C1557 C 0.29548 0.67863 0.23739 0.0
C1558 C 0.32334 0.72727 0.22577 0.0
C1559 C 0.33566 0.70245 0.21841 0.0
H1560 H 0.52826 0.66927 0.65628 0.0
H1561 H 0.52882 0.7222 0.5826 0.0
H1562 H 0.52575 0.68242 0.55237 0.0
H1563 H 0.52328 0.63201 0.54666 0.0
H1564 H 0.52387 0.57977 0.62093 0.0
H1565 H 0.5259 0.61961 0.65075 0.0
C1566 C 0.52773 0.67227 0.6336 0.0
C1567 C 0.52882 0.69906 0.62195 0.0
C1568 C 0.52603 0.64919 0.61627 0.0
C1569 C 0.52811 0.70208 0.59238 0.0
C1570 C 0.52628 0.67922 0.57501 0.0
C1571 C 0.52361 0.62932 0.56939 0.0
C1572 C 0.52322 0.60258 0.58135 0.0
C1573 C 0.52521 0.65259 0.58668 0.0
C1574 C 0.52404 0.59981 0.61092 0.0
C1575 C 0.52527 0.62271 0.62809 0.0
H1576 H 0.6539 0.30098 0.93126 0.0
H1577 H 0.60089 0.31006 0.86066 0.0
H1578 H 0.64009 0.3046 0.82785 0.0
H1579 H 0.68868 0.29388 0.81926 0.0
H1580 H 0.74178 0.28381 0.88973 0.0
H1581 H 0.70322 0.29299 0.92253 0.0
C1582 C 0.65101 0.30221 0.9087 0.0
C1583 C 0.62456 0.30572 0.8984 0.0
C1584 C 0.67355 0.29849 0.88993 0.0
C1585 C 0.62107 0.30717 0.86911 0.0
C1586 C 0.64344 0.30396 0.85032 0.0
C1587 C 0.69184 0.29372 0.84179 0.0
C1588 C 0.71793 0.28781 0.85204 0.0
C1589 C 0.66964 0.29896 0.86052 0.0
C1590 C 0.72179 0.28803 0.88128 0.0
C1591 C 0.69978 0.29335 0.90008 0.0
H1592 H 0.9804 0.36984 0.10557 0.0
H1593 H 0.06728 0.3584 0.11557 0.0
H1594 H 0.07523 0.40412 0.09553 0.0
H1595 H 0.0574 0.44827 0.07595 0.0
H1596 H 0.97059 0.45841 0.06429 0.0
H1597 H 0.9629 0.41274 0.08409 0.0
C1598 C 1.00115 0.3772 0.10327 0.0
C1599 C 0.02318 0.36036 0.11228 0.0
C1600 C 0.00562 0.4036 0.09148 0.0
C1601 C 0.04986 0.37055 0.10884 0.0
C1602 C 0.05442 0.39688 0.09744 0.0
C1603 C 0.03677 0.44053 0.07777 0.0
C1604 C 0.01459 0.45719 0.06871 0.0
C1605 C 0.03245 0.41375 0.08886 0.0
C1606 C 0.9881 0.44639 0.07103 0.0
C1607 C 0.98365 0.42012 0.08241 0.0
H1608 H 0.99223 0.82538 0.37949 0.0
H1609 H 0.9903 0.74336 0.3481 0.0
H1610 H 0.94799 0.75462 0.32406 0.0
H1611 H 0.91056 0.78704 0.31419 0.0
H1612 H 0.91188 0.86842 0.34701 0.0
H1613 H 0.95593 0.8582 0.36803 0.0
C1614 C 0.9827 0.80995 0.36725 0.0
C1615 C 0.99425 0.78349 0.36578 0.0
C1616 C 0.95834 0.81645 0.35384 0.0
C1617 C 0.98176 0.76385 0.34964 0.0
C1618 C 0.95755 0.77025 0.33596 0.0
C1619 C 0.92039 0.80248 0.3261 0.0
C1620 C 0.90784 0.82834 0.32939 0.0
C1621 C 0.94546 0.79634 0.33836 0.0
C1622 C 0.9212 0.84841 0.34415 0.0
C1623 C 0.94627 0.84253 0.35627 0.0
H1624 H 0.55085 0.34896 0.00108 0.0
H1625 H 0.46533 0.32998 0.9959 0.0
H1626 H 0.45234 0.3741 0.01583 0.0
H1627 H 0.46544 0.42073 0.02764 0.0
H1628 H 0.55103 0.43943 0.0319 0.0
H1629 H 0.56382 0.39285 0.01945 0.0
C1630 C 0.52937 0.35425 0.0048 0.0
C1631 C 0.50911 0.33648 0.9965 0.0
C1632 C 0.52204 0.37983 0.01566 0.0
C1633 C 0.48137 0.34341 0.00189 0.0
C1634 C 0.47389 0.36873 0.01312 0.0
C1635 C 0.48682 0.41437 0.02644 0.0
C1636 C 0.50725 0.43363 0.02989 0.0
C1637 C 0.49406 0.38753 0.019 0.0
C1638 C 0.53494 0.42516 0.02844 0.0
C1639 C 0.54228 0.3985 0.02147 0.0
H1640 H 0.95287 0.30186 0.21315 0.0
H1641 H 0.93967 0.22893 0.16636 0.0
H1642 H 0.89446 0.22446 0.18873 0.0
H1643 H 0.85766 0.24124 0.22065 0.0
H1644 H 0.86874 0.31482 0.26684 0.0
H1645 H 0.91512 0.31893 0.24585 0.0
C1646 C 0.94017 0.2849 0.20803 0.0
C1647 C 0.95 0.26578 0.18791 0.0
C1648 C 0.91347 0.28255 0.22083 0.0
C1649 C 0.93291 0.24411 0.18151 0.0
C1650 C 0.90687 0.24145 0.19436 0.0
C1651 C 0.87016 0.25819 0.22626 0.0
C1652 C 0.85945 0.27763 0.24547 0.0
C1653 C 0.89679 0.2606 0.21388 0.0
C1654 C 0.87622 0.29947 0.2522 0.0
C1655 C 0.90287 0.30184 0.24015 0.0
H1656 H 0.05107 0.69705 0.43471 0.0
H1657 H 0.07228 0.72179 0.51799 0.0
H1658 H 0.07165 0.6744 0.53445 0.0
H1659 H 0.06269 0.62677 0.52597 0.0
H1660 H 0.04026 0.60155 0.44331 0.0
H1661 H 0.04437 0.64856 0.42558 0.0
C1662 C 0.0556 0.69208 0.45646 0.0
C1663 C 0.06144 0.7129 0.4752 0.0
C1664 C 0.05515 0.66483 0.4658 0.0
C1665 C 0.06756 0.70614 0.5032 0.0
C1666 C 0.06725 0.67907 0.51262 0.0
C1667 C 0.05891 0.63144 0.50397 0.0
C1668 C 0.05095 0.6108 0.48601 0.0
C1669 C 0.06075 0.65837 0.49418 0.0
C1670 C 0.04641 0.61713 0.45754 0.0
C1671 C 0.04858 0.64399 0.44746 0.0
H1672 H 0.60505 0.76492 0.71888 0.0
H1673 H 0.63112 0.82957 0.66167 0.0
H1674 H 0.67404 0.83261 0.6857 0.0
H1675 H 0.70583 0.81603 0.72177 0.0
H1676 H 0.68147 0.75016 0.77807 0.0
H1677 H 0.63701 0.74873 0.75602 0.0
C1678 C 0.62 0.77981 0.71181 0.0
C1679 C 0.61444 0.79694 0.68821 0.0
C1680 C 0.64537 0.78129 0.72566 0.0
C1681 C 0.63449 0.81592 0.67949 0.0
C1682 C 0.65926 0.81776 0.69332 0.0
C1683 C 0.69072 0.80155 0.72952 0.0
C1684 C 0.6973 0.78337 0.75187 0.0
C1685 C 0.66515 0.80043 0.71627 0.0
C1686 C 0.67726 0.76455 0.76109 0.0
C1687 C 0.65169 0.76365 0.74836 0.0
H1688 H 0.64732 0.49083 0.71464 0.0
H1689 H 0.58872 0.43921 0.75882 0.0
H1690 H 0.5607 0.43928 0.71715 0.0
H1691 H 0.55167 0.45638 0.66933 0.0
H1692 H 0.61065 0.50778 0.62554 0.0
H1693 H 0.6396 0.50575 0.66628 0.0
C1694 C 0.62851 0.47943 0.71516 0.0
C1695 C 0.61999 0.46521 0.73981 0.0
C1696 C 0.61245 0.47979 0.69137 0.0
C1697 C 0.59568 0.45038 0.74007 0.0
C1698 C 0.57962 0.45048 0.71631 0.0
C1699 C 0.57102 0.46682 0.66857 0.0
C1700 C 0.57884 0.48243 0.64457 0.0
C1701 C 0.58763 0.46545 0.69201 0.0
C1702 C 0.60386 0.49611 0.64399 0.0
C1703 C 0.62053 0.49479 0.66718 0.0
H1704 H 0.82101 0.38173 0.96704 0.0
H1705 H 0.74808 0.3374 0.99112 0.0
H1706 H 0.76443 0.29876 0.9632 0.0
H1707 H 0.79712 0.27964 0.92826 0.0
H1708 H 0.86832 0.32448 0.9016 0.0
H1709 H 0.85586 0.36055 0.9352 0.0
C1710 C 0.8087 0.36363 0.96609 0.0
C1711 C 0.78319 0.36255 0.98064 0.0
C1712 C 0.81831 0.34141 0.95017 0.0
C1713 C 0.76767 0.33879 0.97979 0.0
C1714 C 0.77707 0.31663 0.96403 0.0
C1715 C 0.81041 0.29678 0.93097 0.0
C1716 C 0.83378 0.29945 0.9133 0.0
C1717 C 0.80216 0.31788 0.9489 0.0
C1718 C 0.85064 0.32196 0.91578 0.0
C1719 C 0.84316 0.34272 0.93445 0.0
H1720 H 0.96915 0.58295 0.20364 0.0
H1721 H 0.8904 0.56671 0.16978 0.0
H1722 H 0.91148 0.56272 0.1226 0.0
H1723 H 0.95237 0.55958 0.09225 0.0
H1724 H 0.03193 0.57199 0.12617 0.0
H1725 H 0.01032 0.58221 0.17223 0.0
C1726 C 0.95662 0.57892 0.18583 0.0
C1727 C 0.92838 0.57493 0.19003 0.0
C1728 C 0.96898 0.57587 0.15896 0.0
C1729 C 0.91227 0.56957 0.16695 0.0
C1730 C 0.92426 0.56733 0.14004 0.0
C1731 C 0.96505 0.56486 0.10958 0.0
C1732 C 0.99369 0.56481 0.10596 0.0
C1733 C 0.95264 0.56978 0.13598 0.0
C1734 C 0.0098 0.57173 0.12858 0.0
C1735 C 0.99749 0.5775 0.15488 0.0
H1736 H 0.79772 0.71891 0.45638 0.0
H1737 H 0.74213 0.6624 0.42145 0.0
H1738 H 0.74159 0.689 0.37762 0.0
H1739 H 0.75786 0.72749 0.34788 0.0
H1740 H 0.81491 0.78338 0.38126 0.0
H1741 H 0.81387 0.75817 0.42629 0.0
C1742 C 0.78531 0.71258 0.43928 0.0
C1743 C 0.76998 0.68849 0.44252 0.0
C1744 C 0.78543 0.72789 0.41346 0.0
C1745 C 0.75427 0.68064 0.41979 0.0
C1746 C 0.75391 0.6959 0.39454 0.0
C1747 C 0.76997 0.73432 0.36501 0.0
C1748 C 0.78638 0.75752 0.36089 0.0
C1749 C 0.76958 0.71943 0.39094 0.0
C1750 C 0.80204 0.7657 0.38355 0.0
C1751 C 0.80146 0.75122 0.40946 0.0
H1752 H 0.60244 0.48536 0.86702 0.0
H1753 H 0.61355 0.56848 0.83807 0.0
H1754 H 0.58536 0.58502 0.87792 0.0
H1755 H 0.56169 0.576 0.92347 0.0
H1756 H 0.54916 0.49292 0.95182 0.0
H1757 H 0.57332 0.47614 0.90942 0.0
C1758 C 0.5984 0.50705 0.86936 0.0
C1759 C 0.61031 0.52572 0.85005 0.0
C1760 C 0.58197 0.51639 0.89214 0.0
C1761 C 0.60462 0.55375 0.85284 0.0
C1762 C 0.5886 0.56323 0.87563 0.0
C1763 C 0.56386 0.55424 0.92007 0.0
C1764 C 0.55404 0.53572 0.94073 0.0
C1765 C 0.57776 0.54477 0.89576 0.0
C1766 C 0.55659 0.50756 0.93608 0.0
C1767 C 0.57057 0.49795 0.91199 0.0
H1768 H 0.73619 0.37562 0.13759 0.0
H1769 H 0.74219 0.30195 0.08926 0.0
H1770 H 0.74739 0.27481 0.13265 0.0
H1771 H 0.75469 0.27281 0.18383 0.0
H1772 H 0.74934 0.34728 0.23116 0.0
H1773 H 0.73924 0.37326 0.18856 0.0
C1774 C 0.73844 0.3536 0.13654 0.0
C1775 C 0.73926 0.34082 0.11035 0.0
C1776 C 0.74167 0.33829 0.16135 0.0
C1777 C 0.74167 0.31225 0.10928 0.0
C1778 C 0.74473 0.29675 0.13403 0.0
C1779 C 0.75094 0.29465 0.18483 0.0
C1780 C 0.75316 0.30813 0.21048 0.0
C1781 C 0.74543 0.30965 0.16012 0.0
C1782 C 0.7481 0.33643 0.21157 0.0
C1783 C 0.74232 0.35136 0.18724 0.0
H1784 H 0.91748 0.53521 0.3385 0.0
H1785 H 0.98094 0.50782 0.27937 0.0
H1786 H 0.01047 0.49568 0.31864 0.0
H1787 H 0.01893 0.49584 0.36999 0.0
H1788 H 0.95482 0.52442 0.42759 0.0
H1789 H 0.92467 0.53314 0.38856 0.0
C1790 C 0.93777 0.52656 0.33407 0.0
C1791 C 0.94719 0.52274 0.30612 0.0
C1792 C 0.95447 0.51994 0.35648 0.0
C1793 C 0.97332 0.51108 0.30079 0.0
C1794 C 0.99019 0.50419 0.32319 0.0
C1795 C 0.99823 0.50364 0.3738 0.0
C1796 C 0.9891 0.50989 0.40137 0.0
C1797 C 0.98108 0.50892 0.35113 0.0
C1798 C 0.96234 0.52002 0.40637 0.0
C1799 C 0.9451 0.52491 0.38414 0.0
H1800 H 0.80432 0.73371 0.60018 0.0
H1801 H 0.75656 0.66256 0.62048 0.0
H1802 H 0.75497 0.6746 0.67048 0.0
H1803 H 0.76625 0.70646 0.70883 0.0
H1804 H 0.81408 0.77735 0.68697 0.0
H1805 H 0.81667 0.76414 0.63781 0.0
C1806 C 0.79349 0.72076 0.61544 0.0
C1807 C 0.78044 0.69728 0.60622 0.0
C1808 C 0.79278 0.72773 0.64424 0.0
C1809 C 0.76674 0.6808 0.62668 0.0
C1810 C 0.76586 0.68768 0.65541 0.0
C1811 C 0.77756 0.71878 0.69337 0.0
C1812 C 0.79 0.74294 0.70195 0.0
C1813 C 0.77875 0.71119 0.66454 0.0
C1814 C 0.80426 0.75872 0.68131 0.0
C1815 C 0.80571 0.75121 0.65299 0.0
H1816 H 0.70325 0.58696 0.54295 0.0
H1817 H 0.67631 0.64879 0.48362 0.0
H1818 H 0.63276 0.62618 0.47998 0.0
H1819 H 0.60085 0.5904 0.49513 0.0
H1820 H 0.62566 0.52938 0.5562 0.0
H1821 H 0.67097 0.54981 0.55748 0.0
C1822 C 0.68796 0.59528 0.529 0.0
C1823 C 0.69332 0.61972 0.51361 0.0
C1824 C 0.66228 0.58232 0.52736 0.0
C1825 C 0.67295 0.63022 0.49589 0.0
C1826 C 0.64789 0.61725 0.49373 0.0
C1827 C 0.61621 0.58128 0.50851 0.0
C1828 C 0.60962 0.55815 0.52541 0.0
C1829 C 0.64211 0.59351 0.5096 0.0
C1830 C 0.62996 0.54703 0.54282 0.0
C1831 C 0.65597 0.55881 0.54363 0.0
H1832 H 0.19705 0.96372 0.55577 0.0
H1833 H 0.14859 0.89106 0.5556 0.0
H1834 H 0.10713 0.91826 0.56601 0.0
H1835 H 0.08464 0.96277 0.57196 0.0
H1836 H 0.13294 0.03564 0.57059 0.0
H1837 H 0.17481 0.00796 0.56489 0.0
C1838 C 0.17742 0.95382 0.55797 0.0
C1839 C 0.17577 0.92551 0.55451 0.0
C1840 C 0.15379 0.96951 0.56404 0.0
C1841 C 0.1503 0.91288 0.55794 0.0
C1842 C 0.12664 0.92838 0.56398 0.0
C1843 C 0.10433 0.97263 0.5709 0.0
C1844 C 0.10569 0.00123 0.57144 0.0
C1845 C 0.12815 0.95673 0.56673 0.0
C1846 C 0.13137 0.01365 0.57017 0.0
C1847 C 0.15528 0.99787 0.56667 0.0
H1848 H 0.30242 0.9789 0.72057 0.0
H1849 H 0.28649 0.01529 0.80184 0.0
H1850 H 0.27013 0.9719 0.82103 0.0
H1851 H 0.26897 0.92253 0.81693 0.0
H1852 H 0.28495 0.88589 0.73564 0.0
H1853 H 0.29313 0.93052 0.7145 0.0
C1854 C 0.29459 0.97758 0.74224 0.0
C1855 C 0.29634 1.00004 0.75996 0.0
C1856 C 0.28612 0.95235 0.75343 0.0
C1857 C 0.28579 0.9981 0.7879 0.0
C1858 C 0.27666 0.97324 0.79896 0.0
C1859 C 0.27368 0.92413 0.79451 0.0
C1860 C 0.27729 0.90051 0.77833 0.0
C1861 C 0.27818 0.94995 0.78231 0.0
C1862 C 0.28314 0.9034 0.74911 0.0
C1863 C 0.28754 0.92906 0.7368 0.0
H1864 H 0.36538 0.09962 0.00026 0.0
H1865 H 0.38816 0.14817 0.07033 0.0
H1866 H 0.43349 0.12684 0.06939 0.0
H1867 H 0.46766 0.09531 0.04834 0.0
H1868 H 0.4465 0.04726 0.9774 0.0
H1869 H 0.40017 0.06729 0.97908 0.0
C1870 C 0.3802 0.10537 0.01542 0.0
C1871 C 0.37306 0.12564 0.03532 0.0
C1872 C 0.40684 0.09314 0.01459 0.0
C1873 C 0.39283 0.13285 0.05463 0.0
C1874 C 0.41893 0.1206 0.05417 0.0
C1875 C 0.45294 0.08907 0.03326 0.0
C1876 C 0.46081 0.06966 0.01281 0.0
C1877 C 0.4263 0.10089 0.03416 0.0
C1878 C 0.44124 0.0621 0.99344 0.0
C1879 C 0.41461 0.07358 0.99437 0.0
H1880 H 0.70642 0.56577 0.82408 0.0
H1881 H 0.72087 0.57129 0.73377 0.0
H1882 H 0.73828 0.61743 0.73833 0.0
H1883 H 0.74905 0.65596 0.76822 0.0
H1884 H 0.73315 0.64999 0.85822 0.0
H1885 H 0.71671 0.60379 0.8535 0.0
C1886 C 0.71344 0.57693 0.80531 0.0
C1887 C 0.71238 0.56515 0.77861 0.0
C1888 C 0.7231 0.60327 0.80806 0.0
C1889 C 0.72151 0.57996 0.75457 0.0
C1890 C 0.7314 0.6063 0.75716 0.0
C1891 C 0.74169 0.64465 0.78673 0.0
C1892 C 0.74228 0.65634 0.81354 0.0
C1893 C 0.73213 0.61817 0.78382 0.0
C1894 C 0.73319 0.64129 0.83743 0.0
C1895 C 0.72368 0.61496 0.83473 0.0
H1896 H 0.85183 0.41692 0.02251 0.0
H1897 H 0.80286 0.47649 0.06857 0.0
H1898 H 0.83629 0.51156 0.05628 0.0
H1899 H 0.8796 0.52495 0.03309 0.0
H1900 H 0.92813 0.46591 0.98598 0.0
H1901 H 0.89444 0.43086 0.99772 0.0
C1902 C 0.84871 0.4375 0.03014 0.0
C1903 C 0.82521 0.44412 0.04671 0.0
C1904 C 0.86764 0.45765 0.02245 0.0
C1905 C 0.82098 0.47097 0.05594 0.0
C1906 C 0.83996 0.49101 0.0488 0.0
C1907 C 0.88249 0.5046 0.02485 0.0
C1908 C 0.90623 0.498 0.00862 0.0
C1909 C 0.86327 0.4846 0.03195 0.0
C1910 C 0.91 0.47136 0.9986 0.0
C1911 C 0.89085 0.45135 0.0054 0.0
H1912 H 0.35721 0.13493 0.7343 0.0
H1913 H 0.3933 0.14592 0.81489 0.0
H1914 H 0.38622 0.19535 0.81024 0.0
H1915 H 0.3619 0.23358 0.78741 0.0
H1916 H 0.32239 0.22121 0.70892 0.0
H1917 H 0.33969 0.17418 0.7079 0.0
C1918 C 0.36377 0.14819 0.75072 0.0
C1919 C 0.3749 0.13699 0.7753 0.0
C1920 C 0.35924 0.17627 0.74808 0.0
C1921 C 0.38419 0.15425 0.79601 0.0
C1922 C 0.38018 0.18243 0.79334 0.0
C1923 C 0.35806 0.22087 0.76955 0.0
C1924 C 0.34072 0.23044 0.74843 0.0
C1925 C 0.36667 0.19349 0.77001 0.0
C1926 C 0.33561 0.21396 0.72544 0.0
C1927 C 0.34521 0.18707 0.72504 0.0
H1928 H 0.17952 0.9345 0.33578 0.0
H1929 H 0.25494 0.9751 0.35076 0.0
H1930 H 0.281 0.93294 0.34043 0.0
H1931 H 0.28221 0.88654 0.31992 0.0
H1932 H 0.20601 0.84907 0.3012 0.0
H1933 H 0.18024 0.88796 0.32023 0.0
C1934 C 0.20166 0.93406 0.33715 0.0
C1935 C 0.21541 0.95785 0.34335 0.0
C1936 C 0.21632 0.91038 0.33012 0.0
C1937 C 0.24398 0.95694 0.34578 0.0
C1938 C 0.25886 0.93295 0.33966 0.0
C1939 C 0.25999 0.88697 0.32048 0.0
C1940 C 0.24583 0.86558 0.30883 0.0
C1941 C 0.24528 0.90987 0.33064 0.0
C1942 C 0.21712 0.86583 0.30962 0.0
C1943 C 0.20242 0.88791 0.32056 0.0
H1944 H 0.53344 0.39959 0.4086 0.0
H1945 H 0.52957 0.34691 0.48246 0.0
H1946 H 0.5322 0.38676 0.51269 0.0
H1947 H 0.5352 0.43709 0.51831 0.0
H1948 H 0.53788 0.48912 0.44385 0.0
H1949 H 0.53629 0.44921 0.41404 0.0
C1950 C 0.53317 0.39665 0.43132 0.0
C1951 C 0.53129 0.36993 0.44304 0.0
C1952 C 0.53459 0.41975 0.44863 0.0
C1953 C 0.53094 0.36698 0.47264 0.0
C1954 C 0.5325 0.38987 0.49 0.0
C1955 C 0.53567 0.43973 0.49555 0.0
C1956 C 0.53688 0.46641 0.48352 0.0
C1957 C 0.53434 0.41644 0.47828 0.0
C1958 C 0.5371 0.46911 0.45391 0.0
C1959 C 0.53611 0.44618 0.43675 0.0
H1960 H 0.41147 0.83956 0.15918 0.0
H1961 H 0.45929 0.81281 0.22978 0.0
H1962 H 0.41799 0.81178 0.26014 0.0
H1963 H 0.36824 0.81492 0.26568 0.0
H1964 H 0.31994 0.83969 0.19476 0.0
H1965 H 0.36169 0.84555 0.16558 0.0
C1966 C 0.41289 0.83368 0.18125 0.0
C1967 C 0.43834 0.82597 0.19213 0.0
C1968 C 0.38904 0.83284 0.19853 0.0
C1969 C 0.43989 0.81858 0.22081 0.0
C1970 C 0.4163 0.81803 0.23822 0.0
C1971 C 0.36681 0.82202 0.24396 0.0
C1972 C 0.34105 0.82671 0.23236 0.0
C1973 C 0.39076 0.82464 0.22716 0.0
C1974 C 0.33955 0.8359 0.20419 0.0
C1975 C 0.3634 0.83911 0.18744 0.0
H1976 H 0.07374 0.69627 0.96072 0.0
H1977 H 0.98808 0.70771 0.94398 0.0
H1978 H 0.97841 0.66292 0.96559 0.0
H1979 H 0.99452 0.61947 0.98856 0.0
H1980 H 0.08017 0.60952 0.00638 0.0
H1981 H 0.08938 0.65427 0.98517 0.0
C1982 C 0.05286 0.68913 0.96185 0.0
C1983 C 0.03171 0.70571 0.9505 0.0
C1984 C 0.04741 0.66327 0.97451 0.0
C1985 C 0.00484 0.69576 0.95249 0.0
C1986 C 0.99931 0.66995 0.96482 0.0
C1987 C 0.01521 0.62706 0.98783 0.0
C1988 C 0.03662 0.61067 0.9991 0.0
C1989 C 0.02045 0.65335 0.97576 0.0
C1990 C 0.06321 0.6213 0.99801 0.0
C1991 C 0.06855 0.64705 0.9858 0.0
H1992 H 0.10554 0.25944 0.64804 0.0
H1993 H 0.08408 0.3244 0.70531 0.0
H1994 H 0.12553 0.31448 0.73153 0.0
H1995 H 0.16766 0.28719 0.73795 0.0
H1996 H 0.18779 0.22091 0.68209 0.0
H1997 H 0.14659 0.23111 0.6556 0.0
C1998 C 0.11006 0.27154 0.66615 0.0
C1999 C 0.0921 0.29281 0.67463 0.0
C2000 C 0.1334 0.26527 0.68143 0.0
C2001 C 0.09777 0.30799 0.69843 0.0
C2002 C 0.12137 0.30231 0.71339 0.0
C2003 C 0.16296 0.27508 0.71993 0.0
C2004 C 0.18064 0.25348 0.71174 0.0
C2005 C 0.13928 0.28098 0.70506 0.0
C2006 C 0.17426 0.2375 0.68876 0.0
C2007 C 0.15089 0.24346 0.67357 0.0
H2008 H 0.56827 0.773 0.06448 0.0
H2009 H 0.50266 0.73836 0.11626 0.0
H2010 H 0.50853 0.69533 0.09202 0.0
H2011 H 0.53361 0.66708 0.05874 0.0
H2012 H 0.5984 0.70051 0.00515 0.0
H2013 H 0.59191 0.74462 0.02819 0.0
C2014 C 0.5551 0.75611 0.07025 0.0
C2015 C 0.53516 0.75886 0.09227 0.0
C2016 C 0.55862 0.73125 0.05625 0.0
C2017 C 0.51822 0.73681 0.09948 0.0
C2018 C 0.52158 0.71215 0.08569 0.0
C2019 C 0.54597 0.684 0.05136 0.0
C2020 C 0.56631 0.68042 0.02991 0.0
C2021 C 0.5419 0.7091 0.06434 0.0
C2022 C 0.5827 0.70262 0.02168 0.0
C2023 C 0.57889 0.72785 0.03476 0.0
H2024 H 0.10686 0.7503 0.85112 0.0
H2025 H 0.11984 0.83224 0.87873 0.0
H2026 H 0.16478 0.83228 0.85514 0.0
H2027 H 0.20144 0.8092 0.82819 0.0
H2028 H 0.19118 0.7267 0.80124 0.0
H2029 H 0.14468 0.72675 0.82285 0.0
C2030 C 0.11943 0.76822 0.85167 0.0
C2031 C 0.10968 0.79128 0.86682 0.0
C2032 C 0.14603 0.76799 0.83829 0.0
C2033 C 0.1266 0.81415 0.86749 0.0
C2034 C 0.15246 0.81423 0.85394 0.0
C2035 C 0.1891 0.79116 0.82683 0.0
C2036 C 0.20006 0.76799 0.81291 0.0
C2037 C 0.16255 0.79125 0.83956 0.0
C2038 C 0.18349 0.74489 0.8117 0.0
C2039 C 0.15679 0.74492 0.82412 0.0
H2040 H 0.9994 0.39313 0.62502 0.0
H2041 H 0.02885 0.35271 0.54944 0.0
H2042 H 0.02781 0.39605 0.52326 0.0
H2043 H 0.0222 0.44569 0.52293 0.0
H2044 H 0.99613 0.48658 0.59936 0.0
H2045 H 0.99182 0.44265 0.62415 0.0
C2046 C 0.00529 0.39378 0.60275 0.0
C2047 C 0.01436 0.3699 0.58918 0.0
C2048 C 0.0053 0.4188 0.58805 0.0
C2049 C 0.02205 0.37096 0.56037 0.0
C2050 C 0.02142 0.39568 0.54539 0.0
C2051 C 0.01513 0.44494 0.54488 0.0
C2052 C 0.00953 0.4692 0.55937 0.0
C2053 C 0.0136 0.41977 0.55917 0.0
C2054 C 1.00067 0.46806 0.58786 0.0
C2055 C 0.99826 0.44301 0.60203 0.0
H2056 H 0.44321 0.24006 0.34599 0.0
H2057 H 0.4601 0.32578 0.35043 0.0
H2058 H 0.41904 0.33673 0.32376 0.0
H2059 H 0.37695 0.32187 0.30001 0.0
H2060 H 0.35971 0.23601 0.29877 0.0
H2061 H 0.402 0.2254 0.32284 0.0
C2062 C 0.43809 0.2612 0.34108 0.0
C2063 C 0.45508 0.28201 0.35034 0.0
C2064 C 0.41415 0.26739 0.32605 0.0
C2065 C 0.44763 0.30924 0.34377 0.0
C2066 C 0.42406 0.31553 0.3284 0.0
C2067 C 0.38268 0.30083 0.30466 0.0
C2068 C 0.36507 0.27975 0.29717 0.0
C2069 C 0.407 0.29479 0.31946 0.0
C2070 C 0.37272 0.25267 0.30404 0.0
C2071 C 0.39697 0.24655 0.31794 0.0
H2072 H 0.46319 0.541 0.32297 0.0
H2073 H 0.42405 0.62068 0.32592 0.0
H2074 H 0.44603 0.62971 0.37017 0.0
H2075 H 0.47489 0.61399 0.40911 0.0
H2076 H 0.51226 0.5337 0.40655 0.0
H2077 H 0.49255 0.52584 0.36091 0.0
C2078 C 0.45955 0.56041 0.3332 0.0
C2079 C 0.44199 0.58008 0.32129 0.0
C2080 C 0.47191 0.56531 0.35869 0.0
C2081 C 0.43742 0.60512 0.3348 0.0
C2082 C 0.44999 0.61033 0.36006 0.0
C2083 C 0.4789 0.59499 0.39826 0.0
C2084 C 0.49479 0.5744 0.41099 0.0
C2085 C 0.46709 0.59046 0.37231 0.0
C2086 C 0.49975 0.54966 0.39712 0.0
C2087 C 0.48857 0.54519 0.37108 0.0
H2088 H 0.24551 0.73808 0.07803 0.0
H2089 H 0.326 0.77283 0.07496 0.0
H2090 H 0.3101 0.808 0.10804 0.0
H2091 H 0.27563 0.82326 0.14361 0.0
H2092 H 0.19628 0.78643 0.14848 0.0
H2093 H 0.20884 0.75848 0.10776 0.0
C2094 C 0.25948 0.75354 0.08441 0.0
C2095 C 0.28705 0.75253 0.07491 0.0
C2096 C 0.25026 0.77342 0.10341 0.0
C2097 C 0.30479 0.77307 0.08247 0.0
C2098 C 0.2957 0.79313 0.1013 0.0
C2099 C 0.26087 0.80971 0.13506 0.0
C2100 C 0.23536 0.80638 0.1492 0.0
C2101 C 0.2688 0.79278 0.11271 0.0
C2102 C 0.21606 0.78925 0.13791 0.0
C2103 C 0.22342 0.77295 0.11496 0.0
H2104 H 0.08275 0.49096 0.86543 0.0
H2105 H 0.15953 0.47717 0.90621 0.0
H2106 H 0.13609 0.48057 0.95243 0.0
H2107 H 0.09504 0.49335 0.9805 0.0
H2108 H 0.01857 0.50854 0.93945 0.0
H2109 H 0.04069 0.49824 0.89385 0.0
C2110 C 0.0943 0.48841 0.88445 0.0
C2111 C 0.12282 0.48444 0.88257 0.0
C2112 C 0.08083 0.49077 0.91076 0.0
C2113 C 0.13754 0.48052 0.90724 0.0
C2114 C 0.12419 0.48255 0.93362 0.0
C2115 C 0.08313 0.49408 0.96161 0.0
C2116 C 0.05542 0.50224 0.96314 0.0
C2117 C 0.09603 0.48861 0.93553 0.0
C2118 C 0.04005 0.50257 0.93869 0.0
C2119 C 0.05267 0.49679 0.91263 0.0
H2120 H 0.33078 0.38675 0.61867 0.0
H2121 H 0.25178 0.36354 0.59048 0.0
H2122 H 0.24337 0.33794 0.63474 0.0
H2123 H 0.25872 0.32162 0.68169 0.0
H2124 H 0.33703 0.3469 0.71012 0.0
H2125 H 0.34528 0.37204 0.66584 0.0
C2126 C 0.3117 0.37608 0.6221 0.0
C2127 C 0.29204 0.37704 0.60095 0.0
C2128 C 0.30683 0.36167 0.64785 0.0
C2129 C 0.26733 0.36324 0.60619 0.0
C2130 C 0.26252 0.34853 0.63157 0.0
C2131 C 0.27759 0.33264 0.67823 0.0
C2132 C 0.29726 0.33213 0.69943 0.0
C2133 C 0.28214 0.34751 0.6526 0.0
C2134 C 0.32147 0.34681 0.69443 0.0
C2135 C 0.32626 0.36122 0.66898 0.0
H2136 H 0.47188 0.62421 0.17897 0.0
H2137 H 0.45641 0.53933 0.19824 0.0
H2138 H 0.4838 0.52582 0.15688 0.0
H2139 H 0.50694 0.53811 0.11241 0.0
H2140 H 0.52177 0.62261 0.09136 0.0
H2141 H 0.50028 0.63629 0.13651 0.0
C2142 C 0.47494 0.60278 0.17435 0.0
C2143 C 0.46172 0.58285 0.19128 0.0
C2144 C 0.4904 0.59508 0.15015 0.0
C2145 C 0.46598 0.55511 0.18521 0.0
C2146 C 0.48165 0.54732 0.16158 0.0
C2147 C 0.50581 0.55951 0.11788 0.0
C2148 C 0.51543 0.57936 0.09855 0.0
C2149 C 0.4931 0.56715 0.14344 0.0
C2150 C 0.51435 0.60697 0.10599 0.0
C2151 C 0.50192 0.61479 0.13168 0.0
H2152 H 0.30326 0.69219 0.94382 0.0
H2153 H 0.25329 0.76047 0.97273 0.0
H2154 H 0.25834 0.7825 0.92624 0.0
H2155 H 0.27477 0.78104 0.87688 0.0
H2156 H 0.32163 0.71116 0.84718 0.0
H2157 H 0.32061 0.69125 0.89491 0.0
C2158 C 0.29351 0.71193 0.94 0.0
C2159 C 0.27779 0.72463 0.96156 0.0
C2160 C 0.29624 0.72427 0.91326 0.0
C2161 C 0.26528 0.75017 0.95633 0.0
C2162 C 0.26829 0.76284 0.92985 0.0
C2163 C 0.2853 0.76176 0.88106 0.0
C2164 C 0.2985 0.74761 0.85886 0.0
C2165 C 0.28354 0.74996 0.90813 0.0
C2166 C 0.31152 0.72238 0.86418 0.0
C2167 C 0.31076 0.71095 0.89133 0.0
H2168 H 0.12247 0.52797 0.71773 0.0
H2169 H 0.05512 0.56161 0.76815 0.0
H2170 H 0.03326 0.57829 0.72517 0.0
H2171 H 0.03254 0.58086 0.67294 0.0
H2172 H 0.10048 0.54672 0.62392 0.0
H2173 H 0.12312 0.53271 0.66691 0.0
C2174 C 0.10296 0.5389 0.71943 0.0
C2175 C 0.0902 0.54325 0.74596 0.0
C2176 C 0.09073 0.54834 0.69493 0.0
C2177 C 0.06521 0.55789 0.74784 0.0
C2178 C 0.05276 0.56741 0.72333 0.0
C2179 C 0.05248 0.57075 0.67187 0.0
C2180 C 0.06478 0.56448 0.64551 0.0
C2181 C 0.06524 0.56249 0.69673 0.0
C2182 C 0.09052 0.55125 0.6441 0.0
C2183 C 0.10345 0.54331 0.6686 0.0
H2184 H 0.2824 0.4176 0.40243 0.0
H2185 H 0.27635 0.34832 0.45958 0.0
H2186 H 0.27424 0.31783 0.41937 0.0
H2187 H 0.27492 0.31062 0.36747 0.0
H2188 H 0.28204 0.38045 0.31106 0.0
H2189 H 0.28272 0.41062 0.35127 0.0
C2190 C 0.2806 0.39583 0.40625 0.0
C2191 C 0.27959 0.38545 0.43428 0.0
C2192 C 0.27948 0.37836 0.38296 0.0
C2193 C 0.27725 0.35707 0.43843 0.0
C2194 C 0.276 0.33956 0.41535 0.0
C2195 C 0.27635 0.33246 0.36396 0.0
C2196 C 0.27826 0.34309 0.33598 0.0
C2197 C 0.27714 0.34993 0.38744 0.0
C2198 C 0.28045 0.37151 0.33211 0.0
C2199 C 0.28091 0.38888 0.3552 0.0
H2200 H 0.36295 0.4741 0.57538 0.0
H2201 H 0.3553 0.4704 0.48526 0.0
H2202 H 0.39997 0.49189 0.47801 0.0
H2203 H 0.44227 0.51086 0.49745 0.0
H2204 H 0.4505 0.51104 0.58766 0.0
H2205 H 0.40482 0.49221 0.59459 0.0
C2206 C 0.37091 0.47809 0.55409 0.0
C2207 C 0.35547 0.47065 0.53091 0.0
C2208 C 0.39692 0.48999 0.55007 0.0
C2209 C 0.36654 0.47579 0.50354 0.0
C2210 C 0.39216 0.48818 0.49938 0.0
C2211 C 0.43389 0.50709 0.51861 0.0
C2212 C 0.44985 0.51272 0.54203 0.0
C2213 C 0.40766 0.49532 0.52249 0.0
C2214 C 0.43878 0.50709 0.56926 0.0
C2215 C 0.41259 0.49622 0.57326 0.0
H2216 H 0.9068 0.1555 0.50619 0.0
H2217 H 0.85428 0.10146 0.55533 0.0
H2218 H 0.89252 0.06923 0.56112 0.0
H2219 H 0.94128 0.05714 0.55335 0.0
H2220 H 0.99371 0.11235 0.50572 0.0
H2221 H 0.95491 0.14325 0.49782 0.0
C2222 C 0.90367 0.13668 0.51816 0.0
C2223 C 0.87782 0.13091 0.53036 0.0
C2224 C 0.92565 0.11835 0.52144 0.0
C2225 C 0.87408 0.10642 0.5458 0.0
C2226 C 0.89588 0.08793 0.54904 0.0
C2227 C 0.944 0.0757 0.54082 0.0
C2228 C 0.97009 0.08247 0.52994 0.0
C2229 C 0.92176 0.09372 0.53699 0.0
C2230 C 0.97366 0.10678 0.51422 0.0
C2231 C 0.95157 0.12448 0.50979 0.0
H2232 H 0.65875 0.10292 0.24128 0.0
H2233 H 0.71551 0.04886 0.28368 0.0
H2234 H 0.75194 0.08153 0.27552 0.0
H2235 H 0.76673 0.12662 0.25967 0.0
H2236 H 0.71013 0.18186 0.2191 0.0
H2237 H 0.67447 0.14744 0.22303 0.0
C2238 C 0.67914 0.09822 0.24854 0.0
C2239 C 0.68436 0.07362 0.26326 0.0
C2240 C 0.69995 0.11727 0.24413 0.0
C2241 C 0.71088 0.06778 0.27252 0.0
C2242 C 0.73176 0.08641 0.26782 0.0
C2243 C 0.74681 0.13088 0.25107 0.0
C2244 C 0.74101 0.15663 0.23904 0.0
C2245 C 0.72641 0.11135 0.25404 0.0
C2246 C 0.71491 0.16214 0.22855 0.0
C2247 C 0.69458 0.14253 0.23085 0.0
H2248 H 0.69889 0.95798 0.97011 0.0
H2249 H 0.71988 0.97375 0.05571 0.0
H2250 H 0.67607 0.99842 0.06343 0.0
H2251 H 0.63053 0.0144 0.04594 0.0
H2252 H 0.6112 0.99731 0.95994 0.0
H2253 H 0.65527 0.97454 0.95257 0.0
C2254 C 0.69408 0.96687 0.9905 0.0
C2255 C 0.71287 0.96383 0.01227 0.0
C2256 C 0.66884 0.98087 0.99482 0.0
C2257 C 0.70598 0.97568 0.03848 0.0
C2258 C 0.68082 0.98979 0.04292 0.0
C2259 C 0.63606 0.00585 0.02556 0.0
C2260 C 0.61718 0.00769 0.00361 0.0
C2261 C 0.66188 0.99238 0.02128 0.0
C2262 C 0.62493 0.9963 0.97738 0.0
C2263 C 0.6503 0.98318 0.97304 0.0
H2264 H 0.37057 0.49401 0.19137 0.0
H2265 H 0.35006 0.50313 0.28006 0.0
H2266 H 0.33315 0.45657 0.28268 0.0
H2267 H 0.32357 0.41369 0.25948 0.0
H2268 H 0.3449 0.40457 0.17106 0.0
H2269 H 0.3621 0.45094 0.16859 0.0
C2270 C 0.36233 0.48587 0.21127 0.0
C2271 C 0.36145 0.50198 0.23544 0.0
C2272 C 0.35285 0.45914 0.21266 0.0
C2273 C 0.35091 0.49109 0.26112 0.0
C2274 C 0.34128 0.46449 0.26265 0.0
C2275 C 0.33235 0.42172 0.2398 0.0
C2276 C 0.33293 0.40579 0.21548 0.0
C2277 C 0.34217 0.44836 0.23855 0.0
C2278 C 0.34393 0.41661 0.18997 0.0
C2279 C 0.35383 0.44305 0.18856 0.0
H2280 H 0.19564 0.64861 0.08769 0.0
H2281 H 0.25064 0.59832 0.03664 0.0
H2282 H 0.21765 0.56174 0.03858 0.0
H2283 H 0.17199 0.54552 0.0514 0.0
H2284 H 0.11581 0.59595 0.10053 0.0
H2285 H 0.15054 0.63107 0.1029 0.0
C2286 C 0.20047 0.62955 0.07723 0.0
C2287 C 0.22539 0.62626 0.06185 0.0
C2288 C 0.18122 0.60871 0.07802 0.0
C2289 C 0.23143 0.60147 0.04837 0.0
C2290 C 0.21264 0.5805 0.04951 0.0
C2291 C 0.16758 0.5639 0.06318 0.0
C2292 C 0.14149 0.56822 0.07579 0.0
C2293 C 0.18732 0.58409 0.06384 0.0
C2294 C 0.13579 0.59238 0.09051 0.0
C2295 C 0.15559 0.6124 0.09183 0.0
H2296 H 0.69804 0.94615 0.32169 0.0
H2297 H 0.62945 0.89683 0.30165 0.0
H2298 H 0.65912 0.85601 0.30167 0.0
H2299 H 0.70532 0.83573 0.30202 0.0
H2300 H 0.77401 0.88569 0.32063 0.0
H2301 H 0.74324 0.92507 0.32691 0.0
C2302 C 0.68952 0.92642 0.31756 0.0
C2303 C 0.66181 0.92445 0.31112 0.0
C2304 C 0.70666 0.90331 0.31725 0.0
C2305 C 0.65082 0.89878 0.30645 0.0
C2306 C 0.66777 0.87552 0.30635 0.0
C2307 C 0.71354 0.85515 0.30781 0.0
C2308 C 0.74192 0.85797 0.3104 0.0
C2309 C 0.69586 0.87774 0.3109 0.0
C2310 C 0.75224 0.8831 0.31828 0.0
C2311 C 0.7347 0.90563 0.32178 0.0
H2312 H 0.81119 0.10132 0.81278 0.0
H2313 H 0.78489 0.10418 0.72696 0.0
H2314 H 0.7607 0.14753 0.73572 0.0
H2315 H 0.75804 0.18907 0.7638 0.0
H2316 H 0.78947 0.18771 0.84776 0.0
H2317 H 0.80025 0.13914 0.844 0.0
C2318 C 0.79943 0.11108 0.79628 0.0
C2319 C 0.80043 0.10027 0.76909 0.0
C2320 C 0.78698 0.13651 0.80104 0.0
C2321 C 0.78464 0.11245 0.74798 0.0
C2322 C 0.77108 0.13736 0.75291 0.0
C2323 C 0.76645 0.17794 0.78159 0.0
C2324 C 0.77375 0.19196 0.80569 0.0
C2325 C 0.77378 0.15037 0.77875 0.0
C2326 C 0.7843 0.17735 0.82875 0.0
C2327 C 0.7905 0.14963 0.82659 0.0
loop_
_geom_bond_atom_site_label_1
_geom_bond_atom_site_label_2
_geom_bond_distance
_geom_bond_site_symmetry_2
_ccdc_geom_bond_type
C0 O1 1.160 . S
C0 O7 1.185 . S
O1 C0 1.160 . S
O2 Zn3 1.899 . S
O2 C10 1.284 . S
Zn3 O2 1.899 . S
Zn3 O4 2.032 . S
Zn3 O7 2.086 1_455 S
Zn3 O12 1.977 . S
O4 Zn3 2.032 . S
O4 C8 1.278 . S
C5 O6 1.203 . S
C5 O12 1.267 . S
O6 C5 1.203 . S
O7 C0 1.185 . S
O7 Zn3 2.086 1_655 S
C8 O4 1.278 . S
C8 O9 1.211 . S
O9 C8 1.211 . S
C10 O2 1.284 . S
C10 O11 1.273 . S
O11 C10 1.273 . S
O12 Zn3 1.977 . S
O12 C5 1.267 . S
C13 O14 1.160 . S
C13 O20 1.185 . S
O14 C13 1.160 . S
O15 Zn16 1.899 . S
O15 C23 1.284 . S
Zn16 O15 1.899 . S
Zn16 O17 2.032 . S
Zn16 O20 2.086 . S
Zn16 O25 1.977 . S
O17 Zn16 2.032 . S
O17 C21 1.278 . S
C18 O19 1.195 1_455 S
C18 O25 1.295 . S
O19 C18 1.195 1_655 S
O20 C13 1.185 . S
O20 Zn16 2.086 . S
C21 O17 1.278 . S
C21 O22 1.211 . S
O22 C21 1.211 . S
C23 O15 1.284 . S
C23 O24 1.273 . S
O24 C23 1.273 . S
O25 Zn16 1.977 . S
O25 C18 1.295 . S
C26 O27 1.160 . S
C26 O33 1.185 . S
O27 C26 1.160 . S
O28 Zn29 1.899 . S
O28 C36 1.284 . S
Zn29 O28 1.899 . S
Zn29 O30 2.032 . S
Zn29 O33 2.086 . S
Zn29 O38 1.977 . S
O30 Zn29 2.032 . S
O30 C34 1.278 . S
C31 O32 1.203 . S
C31 O38 1.267 . S
O32 C31 1.203 . S
O33 C26 1.185 . S
O33 Zn29 2.086 . S
C34 O30 1.278 . S
C34 O35 1.211 . S
O35 C34 1.211 . S
C36 O28 1.284 . S
C36 O37 1.273 . S
O37 C36 1.273 . S
O38 Zn29 1.977 . S
O38 C31 1.267 . S
C39 O40 1.160 . S
C39 O46 1.185 . S
O40 C39 1.160 . S
O41 Zn42 1.899 . S
O41 C49 1.284 . S
Zn42 O41 1.899 . S
Zn42 O43 2.032 . S
Zn42 O46 2.086 . S
Zn42 O51 1.977 . S
O43 Zn42 2.032 . S
O43 C47 1.278 . S
C44 O45 1.203 . S
C44 O51 1.267 . S
O45 C44 1.203 . S
O46 C39 1.185 . S
O46 Zn42 2.086 . S
C47 O43 1.278 . S
C47 O48 1.211 . S
O48 C47 1.211 . S
C49 O41 1.284 . S
C49 O50 1.273 . S
O50 C49 1.273 . S
O51 Zn42 1.977 . S
O51 C44 1.267 . S
C52 O53 1.160 . S
C52 O59 1.185 . S
O53 C52 1.160 . S
O54 Zn55 1.899 . S
O54 C62 1.284 . S
Zn55 O54 1.899 . S
Zn55 O56 2.032 1_545 S
Zn55 O59 2.086 1_545 S
Zn55 O64 1.977 . S
O56 Zn55 2.032 1_565 S
O56 C60 1.278 1_565 S
C57 O58 1.203 . S
C57 O64 1.267 . S
O58 C57 1.203 . S
O59 C52 1.185 . S
O59 Zn55 2.086 1_565 S
C60 O56 1.278 1_545 S
C60 O61 1.211 . S
O61 C60 1.211 . S
C62 O54 1.284 . S
C62 O63 1.273 . S
O63 C62 1.273 . S
O64 Zn55 1.977 . S
O64 C57 1.267 . S
C65 O66 1.160 . S
C65 O72 1.185 . S
O66 C65 1.160 . S
O67 Zn68 1.899 . S
O67 C75 1.284 . S
Zn68 O67 1.899 . S
Zn68 O69 2.032 . S
Zn68 O72 2.086 . S
Zn68 O77 1.977 . S
O69 Zn68 2.032 . S
O69 C73 1.278 . S
C70 O71 1.203 . S
C70 O77 1.267 . S
O71 C70 1.203 . S
O72 C65 1.185 . S
O72 Zn68 2.086 . S
C73 O69 1.278 . S
C73 O74 1.211 . S
O74 C73 1.211 . S
C75 O67 1.284 . S
C75 O76 1.273 . S
O76 C75 1.273 . S
O77 Zn68 1.977 . S
O77 C70 1.267 . S
C78 O79 1.160 . S
C78 O85 1.185 . S
O79 C78 1.160 . S
O80 Zn81 1.899 . S
O80 C88 1.284 . S
Zn81 O80 1.899 . S
Zn81 O82 2.032 . S
Zn81 O85 2.086 . S
Zn81 O90 1.977 . S
O82 Zn81 2.032 . S
O82 C86 1.278 . S
C83 O84 1.203 . S
C83 O90 1.267 . S
O84 C83 1.203 . S
O85 C78 1.185 . S
O85 Zn81 2.086 . S
C86 O82 1.278 . S
C86 O87 1.211 . S
O87 C86 1.211 . S
C88 O80 1.284 . S
C88 O89 1.273 . S
O89 C88 1.273 . S
O90 Zn81 1.977 . S
O90 C83 1.267 . S
C91 O92 1.160 . S
C91 O98 1.185 . S
O92 C91 1.160 . S
O93 Zn94 1.899 . S
O93 C101 1.284 . S
Zn94 O93 1.899 . S
Zn94 O95 2.032 . S
Zn94 O98 2.086 . S
Zn94 O103 1.977 . S
O95 Zn94 2.032 . S
O95 C99 1.278 1_554 S
C96 O97 1.203 . S
C96 O103 1.267 . S
O97 C96 1.203 . S
O98 C91 1.185 . S
O98 Zn94 2.086 . S
C99 O95 1.278 1_556 S
C99 O100 1.211 . S
O100 C99 1.211 . S
C101 O93 1.284 . S
C101 O102 1.273 . S
O102 C101 1.273 . S
O103 Zn94 1.977 . S
O103 C96 1.267 . S
C104 O105 1.160 . S
C104 O111 1.185 . S
O105 C104 1.160 . S
O106 Zn107 1.899 . S
O106 C114 1.284 . S
Zn107 O106 1.899 . S
Zn107 O108 2.032 . S
Zn107 O111 2.086 . S
Zn107 O116 1.977 . S
O108 Zn107 2.032 . S
O108 C112 1.278 . S
C109 O110 1.203 . S
C109 O116 1.267 . S
O110 C109 1.203 . S
O111 C104 1.185 . S
O111 Zn107 2.086 . S
C112 O108 1.278 . S
C112 O113 1.211 . S
O113 C112 1.211 . S
C114 O106 1.284 . S
C114 O115 1.273 . S
O115 C114 1.273 . S
O116 Zn107 1.977 . S
O116 C109 1.267 . S
C117 O118 1.160 . S
C117 O124 1.185 . S
O118 C117 1.160 . S
O119 Zn120 1.899 . S
O119 C127 1.284 . S
Zn120 O119 1.899 . S
Zn120 O121 2.032 . S
Zn120 O124 2.086 . S
Zn120 O129 1.977 . S
O121 Zn120 2.032 . S
O121 C125 1.278 . S
C122 O123 1.203 . S
C122 O129 1.267 . S
O123 C122 1.203 . S
O124 C117 1.185 . S
O124 Zn120 2.086 . S
C125 O121 1.278 . S
C125 O126 1.211 . S
O126 C125 1.211 . S
C127 O119 1.284 . S
C127 O128 1.273 . S
O128 C127 1.273 . S
O129 Zn120 1.977 . S
O129 C122 1.267 . S
C130 O131 1.160 . S
C130 O137 1.185 . S
O131 C130 1.160 . S
O132 Zn133 1.899 . S
O132 C140 1.284 . S
Zn133 O132 1.899 . S
Zn133 O134 2.032 . S
Zn133 O137 2.086 . S
Zn133 O142 1.977 . S
O134 Zn133 2.032 . S
O134 C138 1.278 . S
C135 O136 1.203 . S
C135 O142 1.267 . S
O136 C135 1.203 . S
O137 C130 1.185 . S
O137 Zn133 2.086 . S
C138 O134 1.278 . S
C138 O139 1.211 . S
O139 C138 1.211 . S
C140 O132 1.284 . S
C140 O141 1.273 . S
O141 C140 1.273 . S
O142 Zn133 1.977 . S
O142 C135 1.267 . S
C143 O144 1.160 . S
C143 O150 1.185 . S
O144 C143 1.160 . S
O145 Zn146 1.899 . S
O145 C153 1.284 . S
Zn146 O145 1.899 . S
Zn146 O147 2.032 . S
Zn146 O150 2.086 . S
Zn146 O155 1.977 . S
O147 Zn146 2.032 . S
O147 C151 1.278 . S
C148 O149 1.203 . S
C148 O155 1.267 . S
O149 C148 1.203 . S
O150 C143 1.185 . S
O150 Zn146 2.086 . S
C151 O147 1.278 . S
C151 O152 1.211 . S
O152 C151 1.211 . S
C153 O145 1.284 . S
C153 O154 1.273 . S
O154 C153 1.273 . S
O155 Zn146 1.977 . S
O155 C148 1.267 . S
C156 O157 1.160 . S
C156 O163 1.185 . S
O157 C156 1.160 . S
O158 Zn159 1.899 . S
O158 C166 1.284 . S
Zn159 O158 1.899 . S
Zn159 O160 2.032 . S
Zn159 O163 2.086 . S
Zn159 O168 1.977 1_455 S
O160 Zn159 2.032 . S
O160 C164 1.278 . S
C161 O162 1.203 . S
C161 O168 1.267 . S
O162 C161 1.203 . S
O163 C156 1.185 . S
O163 Zn159 2.086 . S
C164 O160 1.278 . S
C164 O165 1.211 1_455 S
O165 C164 1.211 1_655 S
C166 O158 1.284 . S
C166 O167 1.273 . S
O167 C166 1.273 . S
O168 Zn159 1.977 1_655 S
O168 C161 1.267 . S
C169 O170 1.160 . S
C169 O176 1.185 . S
O170 C169 1.160 . S
O171 Zn172 1.899 . S
O171 C179 1.284 1_655 S
Zn172 O171 1.899 . S
Zn172 O173 2.032 . S
Zn172 O176 2.086 . S
Zn172 O181 1.977 1_655 S
O173 Zn172 2.032 . S
O173 C177 1.278 1_655 S
C174 O175 1.203 . S
C174 O181 1.267 . S
O175 C174 1.203 . S
O176 C169 1.185 . S
O176 Zn172 2.086 . S
C177 O173 1.278 1_455 S
C177 O178 1.211 . S
O178 C177 1.211 . S
C179 O171 1.284 1_455 S
C179 O180 1.273 . S
O180 C179 1.273 . S
O181 Zn172 1.977 1_455 S
O181 C174 1.267 . S
C182 O183 1.160 . S
C182 O189 1.185 . S
O183 C182 1.160 . S
O184 Zn185 1.899 . S
O184 C192 1.284 . S
Zn185 O184 1.899 . S
Zn185 O186 2.032 . S
Zn185 O189 2.086 . S
Zn185 O194 1.977 . S
O186 Zn185 2.032 . S
O186 C190 1.278 . S
C187 O188 1.203 . S
C187 O194 1.267 . S
O188 C187 1.203 . S
O189 C182 1.185 . S
O189 Zn185 2.086 . S
C190 O186 1.278 . S
C190 O191 1.211 . S
O191 C190 1.211 . S
C192 O184 1.284 . S
C192 O193 1.273 . S
O193 C192 1.273 . S
O194 Zn185 1.977 . S
O194 C187 1.267 . S
C195 O196 1.160 . S
C195 O202 1.185 . S
O196 C195 1.160 . S
O197 Zn198 1.899 . S
O197 C205 1.284 . S
Zn198 O197 1.899 . S
Zn198 O199 2.032 . S
Zn198 O202 2.086 . S
Zn198 O207 1.977 . S
O199 Zn198 2.032 . S
O199 C203 1.278 . S
C200 O201 1.203 . S
C200 O207 1.267 . S
O201 C200 1.203 . S
O202 C195 1.185 . S
O202 Zn198 2.086 . S
C203 O199 1.278 . S
C203 O204 1.211 . S
O204 C203 1.211 . S
C205 O197 1.284 . S
C205 O206 1.273 . S
O206 C205 1.273 . S
O207 Zn198 1.977 . S
O207 C200 1.267 . S
C208 O209 1.160 . S
C208 O215 1.185 . S
O209 C208 1.160 . S
O210 Zn211 1.899 . S
O210 C218 1.284 . S
Zn211 O210 1.899 . S
Zn211 O212 2.032 . S
Zn211 O215 2.086 . S
Zn211 O220 1.977 . S
O212 Zn211 2.032 . S
O212 C216 1.278 . S
C213 O214 1.203 . S
C213 O220 1.267 . S
O214 C213 1.203 . S
O215 C208 1.185 . S
O215 Zn211 2.086 . S
C216 O212 1.278 . S
C216 O217 1.211 . S
O217 C216 1.211 . S
C218 O210 1.284 . S
C218 O219 1.273 . S
O219 C218 1.273 . S
O220 Zn211 1.977 . S
O220 C213 1.267 . S
C221 O222 1.160 . S
C221 O228 1.185 . S
O222 C221 1.160 . S
O223 Zn224 1.899 . S
O223 C231 1.284 . S
Zn224 O223 1.899 . S
Zn224 O225 2.032 . S
Zn224 O228 2.086 . S
Zn224 O233 1.977 . S
O225 Zn224 2.032 . S
O225 C229 1.278 . S
C226 O227 1.203 . S
C226 O233 1.267 . S
O227 C226 1.203 . S
O228 C221 1.185 . S
O228 Zn224 2.086 . S
C229 O225 1.278 . S
C229 O230 1.211 . S
O230 C229 1.211 . S
C231 O223 1.284 . S
C231 O232 1.273 . S
O232 C231 1.273 . S
O233 Zn224 1.977 . S
O233 C226 1.267 . S
C234 O235 1.160 . S
C234 O241 1.185 . S
O235 C234 1.160 . S
O236 Zn237 1.899 . S
O236 C244 1.284 . S
Zn237 O236 1.899 . S
Zn237 O238 2.032 1_545 S
Zn237 O241 2.086 1_545 S
Zn237 O246 1.977 . S
O238 Zn237 2.032 1_565 S
O238 C242 1.278 1_565 S
C239 O240 1.203 . S
C239 O246 1.267 . S
O240 C239 1.203 . S
O241 C234 1.185 . S
O241 Zn237 2.086 1_565 S
C242 O238 1.278 1_545 S
C242 O243 1.211 . S
O243 C242 1.211 . S
C244 O236 1.284 . S
C244 O245 1.273 . S
O245 C244 1.273 . S
O246 Zn237 1.977 . S
O246 C239 1.267 . S
C247 O248 1.160 . S
C247 O254 1.185 . S
O248 C247 1.160 . S
O249 Zn250 1.899 . S
O249 C257 1.284 . S
Zn250 O249 1.899 . S
Zn250 O251 2.032 1_554 S
Zn250 O254 2.086 . S
Zn250 O259 1.977 . S
O251 Zn250 2.032 1_556 S
O251 C255 1.278 . S
C252 O253 1.203 . S
C252 O259 1.267 . S
O253 C252 1.203 . S
O254 C247 1.185 . S
O254 Zn250 2.086 . S
C255 O251 1.278 . S
C255 O256 1.211 . S
O256 C255 1.211 . S
C257 O249 1.284 . S
C257 O258 1.273 . S
O258 C257 1.273 . S
O259 Zn250 1.977 . S
O259 C252 1.267 . S
C260 O261 1.160 . S
C260 O267 1.185 1_554 S
O261 C260 1.160 . S
O262 Zn263 1.899 . S
O262 C270 1.284 . S
Zn263 O262 1.899 . S
Zn263 O264 2.032 1_554 S
Zn263 O267 2.086 1_554 S
Zn263 O272 1.977 1_554 S
O264 Zn263 2.032 1_556 S
O264 C268 1.278 . S
C265 O266 1.203 . S
C265 O272 1.267 1_554 S
O266 C265 1.203 . S
O267 C260 1.185 1_556 S
O267 Zn263 2.086 1_556 S
C268 O264 1.278 . S
C268 O269 1.211 . S
O269 C268 1.211 . S
C270 O262 1.284 . S
C270 O271 1.273 . S
O271 C270 1.273 . S
O272 Zn263 1.977 1_556 S
O272 C265 1.267 1_556 S
C273 O274 1.160 . S
C273 O280 1.185 . S
O274 C273 1.160 . S
O275 Zn276 1.899 . S
O275 C283 1.284 . S
Zn276 O275 1.899 . S
Zn276 O277 2.032 . S
Zn276 O280 2.086 . S
Zn276 O285 1.977 . S
O277 Zn276 2.032 . S
O277 C281 1.278 . S
C278 O279 1.203 . S
C278 O285 1.267 . S
O279 C278 1.203 . S
O280 C273 1.185 . S
O280 Zn276 2.086 . S
C281 O277 1.278 . S
C281 O282 1.211 . S
O282 C281 1.211 . S
C283 O275 1.284 . S
C283 O284 1.273 . S
O284 C283 1.273 . S
O285 Zn276 1.977 . S
O285 C278 1.267 . S
C286 O287 1.160 . S
C286 O293 1.185 . S
O287 C286 1.160 . S
O288 Zn289 1.899 . S
O288 C296 1.284 . S
Zn289 O288 1.899 . S
Zn289 O290 2.032 . S
Zn289 O293 2.086 . S
Zn289 O298 1.977 . S
O290 Zn289 2.032 . S
O290 C294 1.278 . S
C291 O292 1.203 . S
C291 O298 1.267 . S
O292 C291 1.203 . S
O293 C286 1.185 . S
O293 Zn289 2.086 . S
C294 O290 1.278 . S
C294 O295 1.211 . S
O295 C294 1.211 . S
C296 O288 1.284 . S
C296 O297 1.273 . S
O297 C296 1.273 . S
O298 Zn289 1.977 . S
O298 C291 1.267 . S
C299 O300 1.160 . S
C299 O306 1.185 . S
O300 C299 1.160 . S
O301 Zn302 1.899 . S
O301 C309 1.284 . S
Zn302 O301 1.899 . S
Zn302 O303 2.032 . S
Zn302 O306 2.086 . S
Zn302 O311 1.977 . S
O303 Zn302 2.032 . S
O303 C307 1.278 . S
C304 O305 1.203 . S
C304 O311 1.267 . S
O305 C304 1.203 . S
O306 C299 1.185 . S
O306 Zn302 2.086 . S
C307 O303 1.278 . S
C307 O308 1.211 . S
O308 C307 1.211 . S
C309 O301 1.284 . S
C309 O310 1.273 . S
O310 C309 1.273 . S
O311 Zn302 1.977 . S
O311 C304 1.267 . S
Co312 N317 2.057 1_554 S
Co312 O329 2.021 1_554 S
Co312 O332 2.062 1_455 S
Co312 O336 2.117 . S
Co312 O337 2.019 . S
C313 O333 1.259 . S
C313 O336 1.258 . S
Co314 N323 2.057 . S
Co314 O330 2.117 1_545 S
Co314 O331 2.020 1_455 S
Co314 O333 2.021 . S
Co314 O338 2.062 . S
C315 N317 1.316 1_655 S
C315 N318 1.348 . S
C315 H320 0.930 1_655 S
C316 N317 1.375 1_655 S
C316 C319 1.350 . S
C316 H321 0.931 . S
N317 Co312 2.057 1_556 S
N317 C315 1.316 1_455 S
N317 C316 1.375 1_455 S
N318 C315 1.348 . S
N318 C319 1.373 . S
C319 C316 1.350 . S
C319 N318 1.373 . S
C319 H340 0.931 . S
H320 C315 0.930 1_455 S
H321 C316 0.931 . S
C322 O329 1.259 1_564 S
C322 O330 1.258 . S
N323 Co314 2.057 . S
N323 C324 1.316 . S
N323 C325 1.375 1_545 S
C324 N323 1.316 . S
C324 N326 1.347 . S
C324 H335 0.931 . S
C325 N323 1.375 1_565 S
C325 C327 1.350 . S
C325 H334 0.930 . S
N326 C324 1.347 . S
N326 C327 1.373 1_545 S
C327 C325 1.350 . S
C327 N326 1.373 1_565 S
C327 H341 0.931 . S
C328 O331 1.256 . S
C328 O332 1.255 . S
O329 Co312 2.021 1_556 S
O329 C322 1.259 1_546 S
O330 Co314 2.117 1_565 S
O330 C322 1.258 . S
O331 Co314 2.020 1_655 S
O331 C328 1.256 . S
O332 Co312 2.062 1_655 S
O332 C328 1.255 . S
O333 C313 1.259 . S
O333 Co314 2.021 . S
H334 C325 0.930 . S
H335 C324 0.931 . S
O336 Co312 2.117 . S
O336 C313 1.258 . S
O337 Co312 2.019 . S
O337 C339 1.278 . S
O338 Co314 2.062 . S
O338 C339 1.255 . S
C339 O337 1.278 . S
C339 O338 1.255 . S
H340 C319 0.931 . S
H341 C327 0.931 . S
Co342 N347 2.057 . S
Co342 O359 2.021 . S
Co342 O362 2.062 . S
Co342 O366 2.117 . S
Co342 O367 2.020 . S
C343 O363 1.259 . S
C343 O366 1.258 . S
Co344 N353 2.057 . S
Co344 O360 2.117 . S
Co344 O361 2.020 . S
Co344 O363 2.021 . S
Co344 O368 2.062 . S
C345 N347 1.316 . S
C345 N348 1.347 . S
C345 H350 0.931 . S
C346 N347 1.375 . S
C346 C349 1.350 . S
C346 H351 0.930 . S
N347 Co342 2.057 . S
N347 C345 1.316 . S
N347 C346 1.375 . S
N348 C345 1.347 . S
N348 C349 1.373 . S
C349 C346 1.350 . S
C349 N348 1.373 . S
C349 H370 0.931 . S
H350 C345 0.931 . S
H351 C346 0.930 . S
C352 O359 1.259 . S
C352 O360 1.258 . S
N353 Co344 2.057 . S
N353 C354 1.316 . S
N353 C355 1.375 . S
C354 N353 1.316 . S
C354 N356 1.347 . S
C354 H365 0.931 . S
C355 N353 1.375 . S
C355 C357 1.350 . S
C355 H364 0.930 . S
N356 C354 1.347 . S
N356 C357 1.373 . S
C357 C355 1.350 . S
C357 N356 1.373 . S
C357 H371 0.931 . S
C358 O361 1.256 . S
C358 O362 1.255 . S
O359 Co342 2.021 . S
O359 C352 1.259 . S
O360 Co344 2.117 . S
O360 C352 1.258 . S
O361 Co344 2.020 . S
O361 C358 1.256 . S
O362 Co342 2.062 . S
O362 C358 1.255 . S
O363 C343 1.259 . S
O363 Co344 2.021 . S
H364 C355 0.930 . S
H365 C354 0.931 . S
O366 Co342 2.117 . S
O366 C343 1.258 . S
O367 Co342 2.020 . S
O367 C369 1.256 . S
O368 Co344 2.062 . S
O368 C369 1.255 . S
C369 O367 1.256 . S
C369 O368 1.255 . S
H370 C349 0.931 . S
H371 C357 0.931 . S
Co372 N377 2.057 . S
Co372 O389 2.021 1_545 S
Co372 O392 2.062 . S
Co372 O396 2.117 . S
Co372 O397 2.020 . S
C373 O393 1.259 . S
C373 O396 1.258 . S
Co374 N383 2.057 . S
Co374 O390 2.117 . S
Co374 O391 2.020 . S
Co374 O393 2.021 . S
Co374 O398 2.062 . S
C375 N377 1.316 1_565 S
C375 N378 1.347 1_565 S
C375 H380 0.930 . S
C376 N377 1.375 . S
C376 C379 1.350 . S
C376 H381 0.930 . S
N377 Co372 2.057 . S
N377 C375 1.316 1_545 S
N377 C376 1.375 . S
N378 C375 1.347 1_545 S
N378 C379 1.373 . S
C379 C376 1.350 . S
C379 N378 1.373 . S
C379 H400 0.931 . S
H380 C375 0.930 . S
H381 C376 0.930 . S
C382 O389 1.259 . S
C382 O390 1.258 1_565 S
N383 Co374 2.057 . S
N383 C384 1.316 . S
N383 C385 1.375 . S
C384 N383 1.316 . S
C384 N386 1.347 . S
C384 H395 0.931 . S
C385 N383 1.375 . S
C385 C387 1.350 . S
C385 H394 0.930 . S
N386 C384 1.347 . S
N386 C387 1.373 . S
C387 C385 1.350 . S
C387 N386 1.373 . S
C387 H401 0.931 . S
C388 O391 1.256 . S
C388 O392 1.255 . S
O389 Co372 2.021 1_565 S
O389 C382 1.259 . S
O390 Co374 2.117 . S
O390 C382 1.258 1_545 S
O391 Co374 2.020 . S
O391 C388 1.256 . S
O392 Co372 2.062 . S
O392 C388 1.255 . S
O393 C373 1.259 . S
O393 Co374 2.021 . S
H394 C385 0.930 . S
H395 C384 0.931 . S
O396 Co372 2.117 . S
O396 C373 1.258 . S
O397 Co372 2.020 . S
O397 C399 1.256 . S
O398 Co374 2.062 . S
O398 C399 1.255 . S
C399 O397 1.256 . S
C399 O398 1.255 . S
H400 C379 0.931 . S
H401 C387 0.931 . S
Co402 N407 2.057 . S
Co402 O419 2.021 . S
Co402 O422 2.062 . S
Co402 O426 2.117 . S
Co402 O427 2.020 . S
C403 O423 1.259 . S
C403 O426 1.258 . S
Co404 N413 2.057 . S
Co404 O420 2.117 . S
Co404 O421 2.020 . S
Co404 O423 2.021 . S
Co404 O428 2.062 . S
C405 N407 1.316 . S
C405 N408 1.347 . S
C405 H410 0.931 . S
C406 N407 1.375 . S
C406 C409 1.350 . S
C406 H411 0.930 . S
N407 Co402 2.057 . S
N407 C405 1.316 . S
N407 C406 1.375 . S
N408 C405 1.347 . S
N408 C409 1.373 . S
C409 C406 1.350 . S
C409 N408 1.373 . S
C409 H430 0.931 . S
H410 C405 0.931 . S
H411 C406 0.930 . S
C412 O419 1.259 . S
C412 O420 1.258 . S
N413 Co404 2.057 . S
N413 C414 1.316 . S
N413 C415 1.375 . S
C414 N413 1.316 . S
C414 N416 1.347 . S
C414 H425 0.931 . S
C415 N413 1.375 . S
C415 C417 1.350 . S
C415 H424 0.930 . S
N416 C414 1.347 . S
N416 C417 1.373 . S
C417 C415 1.350 . S
C417 N416 1.373 . S
C417 H431 0.931 . S
C418 O421 1.256 . S
C418 O422 1.255 . S
O419 Co402 2.021 . S
O419 C412 1.259 . S
O420 Co404 2.117 . S
O420 C412 1.258 . S
O421 Co404 2.020 . S
O421 C418 1.256 . S
O422 Co402 2.062 . S
O422 C418 1.255 . S
O423 C403 1.259 . S
O423 Co404 2.021 . S
H424 C415 0.930 . S
H425 C414 0.931 . S
O426 Co402 2.117 . S
O426 C403 1.258 . S
O427 Co402 2.020 . S
O427 C429 1.256 . S
O428 Co404 2.062 . S
O428 C429 1.255 . S
C429 O427 1.256 . S
C429 O428 1.255 . S
H430 C409 0.931 . S
H431 C417 0.931 . S
Co432 N437 2.057 1_545 S
Co432 O449 2.021 . S
Co432 O452 2.062 . S
Co432 O456 2.117 . S
Co432 O457 2.020 1_455 S
C433 O453 1.259 . S
C433 O456 1.258 . S
Co434 N443 2.057 . S
Co434 O450 2.117 . S
Co434 O451 2.020 . S
Co434 O453 2.021 . S
Co434 O458 2.062 1_455 S
C435 N437 1.316 . S
C435 N438 1.347 . S
C435 H440 0.931 . S
C436 N437 1.375 1_655 S
C436 C439 1.350 . S
C436 H441 0.930 . S
N437 Co432 2.057 1_565 S
N437 C435 1.316 . S
N437 C436 1.375 1_455 S
N438 C435 1.347 . S
N438 C439 1.373 1_455 S
C439 C436 1.350 . S
C439 N438 1.373 1_655 S
C439 H460 0.931 . S
H440 C435 0.931 . S
H441 C436 0.930 . S
C442 O449 1.259 . S
C442 O450 1.258 . S
N443 Co434 2.057 . S
N443 C444 1.316 . S
N443 C445 1.375 . S
C444 N443 1.316 . S
C444 N446 1.347 . S
C444 H455 0.931 . S
C445 N443 1.375 . S
C445 C447 1.350 . S
C445 H454 0.930 . S
N446 C444 1.347 . S
N446 C447 1.373 . S
C447 C445 1.350 . S
C447 N446 1.373 . S
C447 H461 0.931 . S
C448 O451 1.256 . S
C448 O452 1.255 . S
O449 Co432 2.021 . S
O449 C442 1.259 . S
O450 Co434 2.117 . S
O450 C442 1.258 . S
O451 Co434 2.020 . S
O451 C448 1.256 . S
O452 Co432 2.062 . S
O452 C448 1.255 . S
O453 C433 1.259 . S
O453 Co434 2.021 . S
H454 C445 0.930 . S
H455 C444 0.931 . S
O456 Co432 2.117 . S
O456 C433 1.258 . S
O457 Co432 2.020 1_655 S
O457 C459 1.256 . S
O458 Co434 2.062 1_655 S
O458 C459 1.255 . S
C459 O457 1.256 . S
C459 O458 1.255 . S
H460 C439 0.931 . S
H461 C447 0.931 . S
Co462 N467 2.057 . S
Co462 O479 2.021 . S
Co462 O482 2.062 . S
Co462 O486 2.117 . S
Co462 O487 2.020 . S
C463 O483 1.259 . S
C463 O486 1.258 . S
Co464 N473 2.057 . S
Co464 O480 2.117 . S
Co464 O481 2.020 . S
Co464 O483 2.021 . S
Co464 O488 2.062 . S
C465 N467 1.316 . S
C465 N468 1.347 . S
C465 H470 0.931 . S
C466 N467 1.375 . S
C466 C469 1.350 . S
C466 H471 0.930 . S
N467 Co462 2.057 . S
N467 C465 1.316 . S
N467 C466 1.375 . S
N468 C465 1.347 . S
N468 C469 1.373 . S
C469 C466 1.350 . S
C469 N468 1.373 . S
C469 H490 0.931 . S
H470 C465 0.931 . S
H471 C466 0.930 . S
C472 O479 1.259 . S
C472 O480 1.258 . S
N473 Co464 2.057 . S
N473 C474 1.316 . S
N473 C475 1.375 . S
C474 N473 1.316 . S
C474 N476 1.347 . S
C474 H485 0.931 . S
C475 N473 1.375 . S
C475 C477 1.350 . S
C475 H484 0.930 . S
N476 C474 1.347 . S
N476 C477 1.373 . S
C477 C475 1.350 . S
C477 N476 1.373 . S
C477 H491 0.931 . S
C478 O481 1.256 . S
C478 O482 1.255 . S
O479 Co462 2.021 . S
O479 C472 1.259 . S
O480 Co464 2.117 . S
O480 C472 1.258 . S
O481 Co464 2.020 . S
O481 C478 1.256 . S
O482 Co462 2.062 . S
O482 C478 1.255 . S
O483 C463 1.259 . S
O483 Co464 2.021 . S
H484 C475 0.930 . S
H485 C474 0.931 . S
O486 Co462 2.117 . S
O486 C463 1.258 . S
O487 Co462 2.020 . S
O487 C489 1.256 . S
O488 Co464 2.062 . S
O488 C489 1.255 . S
C489 O487 1.256 . S
C489 O488 1.255 . S
H490 C469 0.931 . S
H491 C477 0.931 . S
Co492 N497 2.057 1_554 S
Co492 O509 2.021 . S
Co492 O512 2.062 1_554 S
Co492 O516 2.117 . S
Co492 O517 2.020 1_545 S
C493 O513 1.259 . S
C493 O516 1.258 . S
Co494 N503 2.057 . S
Co494 O510 2.117 . S
Co494 O511 2.020 . S
Co494 O513 2.021 . S
Co494 O518 2.062 . S
C495 N497 1.316 . S
C495 N498 1.347 . S
C495 H500 0.931 . S
C496 N497 1.375 . S
C496 C499 1.350 . S
C496 H501 0.945 . S
N497 Co492 2.057 1_556 S
N497 C495 1.316 . S
N497 C496 1.375 . S
N498 C495 1.347 . S
N498 C499 1.373 . S
C499 C496 1.350 . S
C499 N498 1.373 . S
C499 H520 0.941 . S
H500 C495 0.931 . S
H501 C496 0.945 . S
C502 O509 1.259 . S
C502 O510 1.258 . S
N503 Co494 2.057 . S
N503 C504 1.316 . S
N503 C505 1.375 . S
C504 N503 1.316 . S
C504 N506 1.347 . S
C504 H515 0.931 . S
C505 N503 1.375 . S
C505 C507 1.350 . S
C505 H514 0.930 . S
N506 C504 1.347 . S
N506 C507 1.373 . S
C507 C505 1.350 . S
C507 N506 1.373 . S
C507 H521 0.931 . S
C508 O511 1.256 . S
C508 O512 1.255 1_554 S
O509 Co492 2.021 . S
O509 C502 1.259 . S
O510 Co494 2.117 . S
O510 C502 1.258 . S
O511 Co494 2.020 . S
O511 C508 1.256 . S
O512 Co492 2.062 1_556 S
O512 C508 1.255 1_556 S
O513 C493 1.259 . S
O513 Co494 2.021 . S
H514 C505 0.930 . S
H515 C504 0.931 . S
O516 Co492 2.117 . S
O516 C493 1.258 . S
O517 Co492 2.020 1_565 S
O517 C519 1.256 . S
O518 Co494 2.062 . S
O518 C519 1.255 1_545 S
C519 O517 1.256 . S
C519 O518 1.255 1_565 S
H520 C499 0.941 . S
H521 C507 0.931 . S
Co522 N527 2.057 . S
Co522 O539 2.021 . S
Co522 O542 2.062 . S
Co522 O546 2.117 . S
Co522 O547 2.020 . S
C523 O543 1.259 . S
C523 O546 1.258 . S
Co524 N533 2.057 . S
Co524 O540 2.117 . S
Co524 O541 2.020 . S
Co524 O543 2.021 . S
Co524 O548 2.062 . S
C525 N527 1.316 . S
C525 N528 1.347 . S
C525 H530 0.931 . S
C526 N527 1.375 . S
C526 C529 1.350 . S
C526 H531 0.930 . S
N527 Co522 2.057 . S
N527 C525 1.316 . S
N527 C526 1.375 . S
N528 C525 1.347 . S
N528 C529 1.373 . S
C529 C526 1.350 . S
C529 N528 1.373 . S
C529 H550 0.931 . S
H530 C525 0.931 . S
H531 C526 0.930 . S
C532 O539 1.259 . S
C532 O540 1.258 . S
N533 Co524 2.057 . S
N533 C534 1.316 . S
N533 C535 1.375 . S
C534 N533 1.316 . S
C534 N536 1.347 . S
C534 H545 0.931 . S
C535 N533 1.375 . S
C535 C537 1.350 . S
C535 H544 0.930 . S
N536 C534 1.347 . S
N536 C537 1.373 . S
C537 C535 1.350 . S
C537 N536 1.373 . S
C537 H551 0.931 . S
C538 O541 1.256 . S
C538 O542 1.255 . S
O539 Co522 2.021 . S
O539 C532 1.259 . S
O540 Co524 2.117 . S
O540 C532 1.258 . S
O541 Co524 2.020 . S
O541 C538 1.256 . S
O542 Co522 2.062 . S
O542 C538 1.255 . S
O543 C523 1.259 . S
O543 Co524 2.021 . S
H544 C535 0.930 . S
H545 C534 0.931 . S
O546 Co522 2.117 . S
O546 C523 1.258 . S
O547 Co522 2.020 . S
O547 C549 1.256 . S
O548 Co524 2.062 . S
O548 C549 1.255 . S
C549 O547 1.256 . S
C549 O548 1.255 . S
H550 C529 0.931 . S
H551 C537 0.931 . S
Co552 N557 2.057 . S
Co552 O569 2.021 1_554 S
Co552 O572 2.062 . S
Co552 O576 2.117 . S
Co552 O577 2.020 . S
C553 O573 1.259 . S
C553 O576 1.258 . S
Co554 N563 2.057 . S
Co554 O570 2.117 1_554 S
Co554 O571 2.020 . S
Co554 O573 2.021 . S
Co554 O578 2.062 . S
C555 N557 1.316 1_556 S
C555 N558 1.342 1_556 S
C555 H560 0.931 . S
C556 N557 1.375 . S
C556 C559 1.350 . S
C556 H561 0.930 . S
N557 Co552 2.057 . S
N557 C555 1.316 1_554 S
N557 C556 1.375 . S
N558 C555 1.342 1_554 S
N558 C559 1.393 . S
C559 C556 1.350 . S
C559 N558 1.393 . S
C559 H580 0.931 . S
H560 C555 0.931 . S
H561 C556 0.930 . S
C562 O569 1.259 . S
C562 O570 1.258 . S
N563 Co554 2.057 . S
N563 C564 1.316 . S
N563 C565 1.375 . S
C564 N563 1.316 . S
C564 N566 1.347 . S
C564 H575 0.931 . S
C565 N563 1.375 . S
C565 C567 1.350 . S
C565 H574 0.930 . S
N566 C564 1.347 . S
N566 C567 1.373 . S
C567 C565 1.350 . S
C567 N566 1.373 . S
C567 H581 0.931 . S
C568 O571 1.256 . S
C568 O572 1.255 . S
O569 Co552 2.021 1_556 S
O569 C562 1.259 . S
O570 Co554 2.117 1_556 S
O570 C562 1.258 . S
O571 Co554 2.020 . S
O571 C568 1.256 . S
O572 Co552 2.062 . S
O572 C568 1.255 . S
O573 C553 1.259 . S
O573 Co554 2.021 . S
H574 C565 0.930 . S
H575 C564 0.931 . S
O576 Co552 2.117 . S
O576 C553 1.258 . S
O577 Co552 2.020 . S
O577 C579 1.256 . S
O578 Co554 2.062 . S
O578 C579 1.255 . S
C579 O577 1.256 . S
C579 O578 1.255 . S
H580 C559 0.931 . S
H581 C567 0.931 . S
Co582 N587 2.057 . S
Co582 O599 2.021 . S
Co582 O602 2.062 . S
Co582 O606 2.117 . S
Co582 O607 2.020 . S
C583 O603 1.259 . S
C583 O606 1.258 . S
Co584 N593 2.057 . S
Co584 O600 2.117 . S
Co584 O601 2.020 . S
Co584 O603 2.021 . S
Co584 O608 2.062 . S
C585 N587 1.316 . S
C585 N588 1.347 . S
C585 H590 0.931 . S
C586 N587 1.375 . S
C586 C589 1.350 . S
C586 H591 0.930 . S
N587 Co582 2.057 . S
N587 C585 1.316 . S
N587 C586 1.375 . S
N588 C585 1.347 . S
N588 C589 1.373 . S
C589 C586 1.350 . S
C589 N588 1.373 . S
C589 H610 0.931 . S
H590 C585 0.931 . S
H591 C586 0.930 . S
C592 O599 1.259 . S
C592 O600 1.258 . S
N593 Co584 2.057 . S
N593 C594 1.316 . S
N593 C595 1.375 . S
C594 N593 1.316 . S
C594 N596 1.347 . S
C594 H605 0.931 . S
C595 N593 1.375 . S
C595 C597 1.350 . S
C595 H604 0.930 . S
N596 C594 1.347 . S
N596 C597 1.373 . S
C597 C595 1.350 . S
C597 N596 1.373 . S
C597 H611 0.931 . S
C598 O601 1.256 . S
C598 O602 1.255 . S
O599 Co582 2.021 . S
O599 C592 1.259 . S
O600 Co584 2.117 . S
O600 C592 1.258 . S
O601 Co584 2.020 . S
O601 C598 1.256 . S
O602 Co582 2.062 . S
O602 C598 1.255 . S
O603 C583 1.259 . S
O603 Co584 2.021 . S
H604 C595 0.930 . S
H605 C594 0.931 . S
O606 Co582 2.117 . S
O606 C583 1.258 . S
O607 Co582 2.020 . S
O607 C609 1.256 . S
O608 Co584 2.062 . S
O608 C609 1.255 . S
C609 O607 1.256 . S
C609 O608 1.255 . S
H610 C589 0.931 . S
H611 C597 0.931 . S
Co612 N617 2.057 . S
Co612 O629 2.021 1_455 S
Co612 O632 2.062 . S
Co612 O636 2.117 . S
Co612 O637 2.020 . S
C613 O633 1.259 . S
C613 O636 1.258 . S
Co614 N623 2.057 . S
Co614 O630 2.117 1_455 S
Co614 O631 2.020 . S
Co614 O633 2.021 . S
Co614 O638 2.062 . S
C615 N617 1.316 1_655 S
C615 N618 1.347 . S
C615 H620 0.931 . S
C616 N617 1.375 . S
C616 C619 1.350 . S
C616 H621 0.930 . S
N617 Co612 2.057 . S
N617 C615 1.316 1_455 S
N617 C616 1.375 . S
N618 C615 1.347 . S
N618 C619 1.373 1_655 S
C619 C616 1.350 . S
C619 N618 1.373 1_455 S
C619 H640 0.931 . S
H620 C615 0.931 . S
H621 C616 0.930 . S
C622 O629 1.259 . S
C622 O630 1.258 . S
N623 Co614 2.057 . S
N623 C624 1.316 . S
N623 C625 1.375 . S
C624 N623 1.316 . S
C624 N626 1.347 . S
C624 H635 0.931 . S
C625 N623 1.375 . S
C625 C627 1.350 . S
C625 H634 0.930 . S
N626 C624 1.347 . S
N626 C627 1.373 . S
C627 C625 1.350 . S
C627 N626 1.373 . S
C627 H641 0.931 . S
C628 O631 1.256 . S
C628 O632 1.255 . S
O629 Co612 2.021 1_655 S
O629 C622 1.259 . S
O630 Co614 2.117 1_655 S
O630 C622 1.258 . S
O631 Co614 2.020 . S
O631 C628 1.256 . S
O632 Co612 2.062 . S
O632 C628 1.255 . S
O633 C613 1.259 . S
O633 Co614 2.021 . S
H634 C625 0.930 . S
H635 C624 0.931 . S
O636 Co612 2.117 . S
O636 C613 1.258 . S
O637 Co612 2.020 . S
O637 C639 1.256 . S
O638 Co614 2.062 . S
O638 C639 1.255 . S
C639 O637 1.256 . S
C639 O638 1.255 . S
H640 C619 0.931 . S
H641 C627 0.931 . S
Co642 N647 2.057 . S
Co642 O659 2.021 . S
Co642 O662 2.062 . S
Co642 O666 2.117 . S
Co642 O667 2.020 . S
C643 O663 1.259 . S
C643 O666 1.258 . S
Co644 N653 2.057 . S
Co644 O660 2.117 . S
Co644 O661 2.020 . S
Co644 O663 2.021 . S
Co644 O668 2.062 . S
C645 N647 1.316 . S
C645 N648 1.347 . S
C645 H650 0.931 . S
C646 N647 1.375 . S
C646 C649 1.350 . S
C646 H651 0.930 . S
N647 Co642 2.057 . S
N647 C645 1.316 . S
N647 C646 1.375 . S
N648 C645 1.347 . S
N648 C649 1.373 . S
C649 C646 1.350 . S
C649 N648 1.373 . S
C649 H670 0.931 . S
H650 C645 0.931 . S
H651 C646 0.930 . S
C652 O659 1.259 . S
C652 O660 1.258 . S
N653 Co644 2.057 . S
N653 C654 1.316 . S
N653 C655 1.375 . S
C654 N653 1.316 . S
C654 N656 1.347 . S
C654 H665 0.931 . S
C655 N653 1.375 . S
C655 C657 1.350 . S
C655 H664 0.930 . S
N656 C654 1.347 . S
N656 C657 1.373 . S
C657 C655 1.350 . S
C657 N656 1.373 . S
C657 H671 0.931 . S
C658 O661 1.256 . S
C658 O662 1.255 . S
O659 Co642 2.021 . S
O659 C652 1.259 . S
O660 Co644 2.117 . S
O660 C652 1.258 . S
O661 Co644 2.020 . S
O661 C658 1.256 . S
O662 Co642 2.062 . S
O662 C658 1.255 . S
O663 C643 1.259 . S
O663 Co644 2.021 . S
H664 C655 0.930 . S
H665 C654 0.931 . S
O666 Co642 2.117 . S
O666 C643 1.258 . S
O667 Co642 2.020 . S
O667 C669 1.256 . S
O668 Co644 2.062 . S
O668 C669 1.255 . S
C669 O667 1.256 . S
C669 O668 1.255 . S
H670 C649 0.931 . S
H671 C657 0.931 . S
Co672 N677 2.057 . S
Co672 O689 2.021 . S
Co672 O692 2.062 . S
Co672 O696 2.117 . S
Co672 O697 2.020 . S
C673 O693 1.259 . S
C673 O696 1.258 . S
Co674 N683 2.057 . S
Co674 O690 2.117 . S
Co674 O691 2.020 . S
Co674 O693 2.021 . S
Co674 O698 2.062 . S
C675 N677 1.316 . S
C675 N678 1.347 . S
C675 H680 0.931 . S
C676 N677 1.375 . S
C676 C679 1.350 . S
C676 H681 0.930 . S
N677 Co672 2.057 . S
N677 C675 1.316 . S
N677 C676 1.375 . S
N678 C675 1.347 . S
N678 C679 1.373 . S
C679 C676 1.350 . S
C679 N678 1.373 . S
C679 H700 0.931 . S
H680 C675 0.931 . S
H681 C676 0.930 . S
C682 O689 1.259 . S
C682 O690 1.258 . S
N683 Co674 2.057 . S
N683 C684 1.316 . S
N683 C685 1.375 . S
C684 N683 1.316 . S
C684 N686 1.347 . S
C684 H695 0.931 . S
C685 N683 1.375 . S
C685 C687 1.350 . S
C685 H694 0.930 . S
N686 C684 1.347 . S
N686 C687 1.373 . S
C687 C685 1.350 . S
C687 N686 1.373 . S
C687 H701 0.931 . S
C688 O691 1.256 . S
C688 O692 1.255 . S
O689 Co672 2.021 . S
O689 C682 1.259 . S
O690 Co674 2.117 . S
O690 C682 1.258 . S
O691 Co674 2.020 . S
O691 C688 1.256 . S
O692 Co672 2.062 . S
O692 C688 1.255 . S
O693 C673 1.259 . S
O693 Co674 2.021 . S
H694 C685 0.930 . S
H695 C684 0.931 . S
O696 Co672 2.117 . S
O696 C673 1.258 . S
O697 Co672 2.020 . S
O697 C699 1.256 . S
O698 Co674 2.062 . S
O698 C699 1.255 . S
C699 O697 1.256 . S
C699 O698 1.255 . S
H700 C679 0.931 . S
H701 C687 0.931 . S
Co702 N707 2.057 . S
Co702 O719 2.021 . S
Co702 O722 2.062 . S
Co702 O726 2.117 . S
Co702 O727 2.020 . S
C703 O723 1.259 . S
C703 O726 1.258 . S
Co704 N713 2.057 . S
Co704 O720 2.117 . S
Co704 O721 2.020 . S
Co704 O723 2.021 . S
Co704 O728 2.062 . S
C705 N707 1.316 . S
C705 N708 1.347 . S
C705 H710 0.931 . S
C706 N707 1.375 . S
C706 C709 1.350 . S
C706 H711 0.930 . S
N707 Co702 2.057 . S
N707 C705 1.316 . S
N707 C706 1.375 . S
N708 C705 1.347 . S
N708 C709 1.373 . S
C709 C706 1.350 . S
C709 N708 1.373 . S
C709 H730 0.931 . S
H710 C705 0.931 . S
H711 C706 0.930 . S
C712 O719 1.259 . S
C712 O720 1.258 . S
N713 Co704 2.057 . S
N713 C714 1.316 . S
N713 C715 1.375 . S
C714 N713 1.316 . S
C714 N716 1.347 . S
C714 H725 0.931 . S
C715 N713 1.375 . S
C715 C717 1.350 . S
C715 H724 0.930 . S
N716 C714 1.347 . S
N716 C717 1.373 . S
C717 C715 1.350 . S
C717 N716 1.373 . S
C717 H731 0.931 . S
C718 O721 1.256 . S
C718 O722 1.255 . S
O719 Co702 2.021 . S
O719 C712 1.259 . S
O720 Co704 2.117 . S
O720 C712 1.258 . S
O721 Co704 2.020 . S
O721 C718 1.256 . S
O722 Co702 2.062 . S
O722 C718 1.255 . S
O723 C703 1.259 . S
O723 Co704 2.021 . S
H724 C715 0.930 . S
H725 C714 0.931 . S
O726 Co702 2.117 . S
O726 C703 1.258 . S
O727 Co702 2.020 . S
O727 C729 1.256 . S
O728 Co704 2.062 . S
O728 C729 1.255 . S
C729 O727 1.256 . S
C729 O728 1.255 . S
H730 C709 0.931 . S
H731 C717 0.931 . S
Co732 N737 2.057 . S
Co732 O749 2.021 . S
Co732 O752 2.062 . S
Co732 O756 2.117 . S
Co732 O757 2.020 . S
C733 O753 1.259 . S
C733 O756 1.258 . S
Co734 N743 2.057 . S
Co734 O750 2.117 . S
Co734 O751 2.020 . S
Co734 O753 2.021 . S
Co734 O758 2.062 . S
C735 N737 1.316 . S
C735 N738 1.347 . S
C735 H740 0.931 . S
C736 N737 1.375 . S
C736 C739 1.350 . S
C736 H741 0.930 . S
N737 Co732 2.057 . S
N737 C735 1.316 . S
N737 C736 1.375 . S
N738 C735 1.347 . S
N738 C739 1.373 . S
C739 C736 1.350 . S
C739 N738 1.373 . S
C739 H760 0.931 . S
H740 C735 0.931 . S
H741 C736 0.930 . S
C742 O749 1.259 . S
C742 O750 1.258 . S
N743 Co734 2.057 . S
N743 C744 1.316 . S
N743 C745 1.375 . S
C744 N743 1.316 . S
C744 N746 1.347 . S
C744 H755 0.931 . S
C745 N743 1.375 . S
C745 C747 1.350 . S
C745 H754 0.930 . S
N746 C744 1.347 . S
N746 C747 1.373 . S
C747 C745 1.350 . S
C747 N746 1.373 . S
C747 H761 0.931 . S
C748 O751 1.256 . S
C748 O752 1.255 . S
O749 Co732 2.021 . S
O749 C742 1.259 . S
O750 Co734 2.117 . S
O750 C742 1.258 . S
O751 Co734 2.020 . S
O751 C748 1.256 . S
O752 Co732 2.062 . S
O752 C748 1.255 . S
O753 C733 1.259 . S
O753 Co734 2.021 . S
H754 C745 0.930 . S
H755 C744 0.931 . S
O756 Co732 2.117 . S
O756 C733 1.258 . S
O757 Co732 2.020 . S
O757 C759 1.256 . S
O758 Co734 2.062 . S
O758 C759 1.255 . S
C759 O757 1.256 . S
C759 O758 1.255 . S
H760 C739 0.931 . S
H761 C747 0.931 . S
Co762 N767 2.057 1_455 S
Co762 O779 2.021 . S
Co762 O782 2.062 1_455 S
Co762 O786 2.117 . S
Co762 O787 2.020 1_554 S
C763 O783 1.259 . S
C763 O786 1.258 . S
Co764 N773 2.057 . S
Co764 O780 2.117 . S
Co764 O781 2.020 . S
Co764 O783 2.021 . S
Co764 O788 2.048 1_554 S
C765 N767 1.316 . S
C765 N768 1.347 . S
C765 H770 0.931 . S
C766 N767 1.374 . S
C766 C769 1.350 1_554 S
C766 H771 0.930 1_554 S
N767 Co762 2.057 1_655 S
N767 C765 1.316 . S
N767 C766 1.374 . S
N768 C765 1.347 . S
N768 C769 1.368 1_554 S
C769 C766 1.350 1_556 S
C769 N768 1.368 1_556 S
C769 H790 0.936 . S
H770 C765 0.931 . S
H771 C766 0.930 1_556 S
C772 O779 1.259 . S
C772 O780 1.258 . S
N773 Co764 2.057 . S
N773 C774 1.316 . S
N773 C775 1.375 . S
C774 N773 1.316 . S
C774 N776 1.347 . S
C774 H785 0.931 . S
C775 N773 1.375 . S
C775 C777 1.350 . S
C775 H784 0.930 . S
N776 C774 1.347 . S
N776 C777 1.373 . S
C777 C775 1.350 . S
C777 N776 1.373 . S
C777 H791 0.931 . S
C778 O781 1.256 . S
C778 O782 1.255 1_455 S
O779 Co762 2.021 . S
O779 C772 1.259 . S
O780 Co764 2.117 . S
O780 C772 1.258 . S
O781 Co764 2.020 . S
O781 C778 1.256 . S
O782 Co762 2.062 1_655 S
O782 C778 1.255 1_655 S
O783 C763 1.259 . S
O783 Co764 2.021 . S
H784 C775 0.930 . S
H785 C774 0.931 . S
O786 Co762 2.117 . S
O786 C763 1.258 . S
O787 Co762 2.020 1_556 S
O787 C789 1.256 . S
O788 Co764 2.048 1_556 S
O788 C789 1.265 . S
C789 O787 1.256 . S
C789 O788 1.265 . S
H790 C769 0.936 . S
H791 C777 0.931 . S
H792 C798 0.903 1_655 S
H793 C801 0.930 . S
H794 C802 0.930 . S
H795 C803 0.930 . S
H796 C806 0.930 . S
H797 C807 0.930 . S
C798 H792 0.903 1_455 S
C798 C799 1.355 . S
C798 C800 1.415 . S
C799 C798 1.355 . S
C799 C801 1.419 . S
C800 C798 1.415 . S
C800 C805 1.425 . S
C800 C807 1.409 1_455 S
C801 H793 0.930 . S
C801 C799 1.419 . S
C801 C802 1.362 . S
C802 H794 0.930 . S
C802 C801 1.362 . S
C802 C805 1.409 . S
C803 H795 0.930 . S
C803 C804 1.355 . S
C803 C805 1.415 . S
C804 C803 1.355 . S
C804 C806 1.419 1_455 S
C805 C800 1.425 . S
C805 C802 1.409 . S
C805 C803 1.415 . S
C806 H796 0.930 . S
C806 C804 1.419 1_655 S
C806 C807 1.362 . S
C807 H797 0.930 . S
C807 C800 1.409 1_655 S
C807 C806 1.362 . S
H808 C814 0.930 . S
H809 C817 0.930 . S
H810 C818 0.930 . S
H811 C819 0.930 . S
H812 C822 0.930 . S
H813 C823 0.930 . S
C814 H808 0.930 . S
C814 C815 1.355 . S
C814 C816 1.415 . S
C815 C814 1.355 . S
C815 C817 1.419 . S
C816 C814 1.415 . S
C816 C821 1.425 . S
C816 C823 1.409 . S
C817 H809 0.930 . S
C817 C815 1.419 . S
C817 C818 1.362 . S
C818 H810 0.930 . S
C818 C817 1.362 . S
C818 C821 1.409 . S
C819 H811 0.930 . S
C819 C820 1.355 . S
C819 C821 1.415 . S
C820 C819 1.355 . S
C820 C822 1.419 . S
C821 C816 1.425 . S
C821 C818 1.409 . S
C821 C819 1.415 . S
C822 H812 0.930 . S
C822 C820 1.419 . S
C822 C823 1.362 . S
C823 H813 0.930 . S
C823 C816 1.409 . S
C823 C822 1.362 . S
H824 C830 0.930 . S
H825 C833 0.930 . S
H826 C834 0.930 . S
H827 C835 0.930 . S
H828 C838 0.930 . S
H829 C839 0.930 . S
C830 H824 0.930 . S
C830 C831 1.355 . S
C830 C832 1.415 . S
C831 C830 1.355 . S
C831 C833 1.419 . S
C832 C830 1.415 . S
C832 C837 1.425 . S
C832 C839 1.409 . S
C833 H825 0.930 . S
C833 C831 1.419 . S
C833 C834 1.362 . S
C834 H826 0.930 . S
C834 C833 1.362 . S
C834 C837 1.409 . S
C835 H827 0.930 . S
C835 C836 1.355 . S
C835 C837 1.415 . S
C836 C835 1.355 . S
C836 C838 1.419 . S
C837 C832 1.425 . S
C837 C834 1.409 . S
C837 C835 1.415 . S
C838 H828 0.930 . S
C838 C836 1.419 . S
C838 C839 1.362 . S
C839 H829 0.930 . S
C839 C832 1.409 . S
C839 C838 1.362 . S
H840 C846 0.930 . S
H841 C849 0.930 . S
H842 C850 0.930 . S
H843 C851 0.930 . S
H844 C854 0.930 . S
H845 C855 0.930 . S
C846 H840 0.930 . S
C846 C847 1.355 . S
C846 C848 1.415 . S
C847 C846 1.355 . S
C847 C849 1.419 . S
C848 C846 1.415 . S
C848 C853 1.425 . S
C848 C855 1.409 . S
C849 H841 0.930 . S
C849 C847 1.419 . S
C849 C850 1.362 . S
C850 H842 0.930 . S
C850 C849 1.362 . S
C850 C853 1.409 . S
C851 H843 0.930 . S
C851 C852 1.355 . S
C851 C853 1.415 . S
C852 C851 1.355 . S
C852 C854 1.419 . S
C853 C848 1.425 . S
C853 C850 1.409 . S
C853 C851 1.415 . S
C854 H844 0.930 . S
C854 C852 1.419 . S
C854 C855 1.362 . S
C855 H845 0.930 . S
C855 C848 1.409 . S
C855 C854 1.362 . S
H856 C862 0.930 . S
H857 C865 0.930 . S
H858 C866 0.930 1_655 S
H859 C867 0.930 1_655 S
H860 C870 0.930 . S
H861 C871 0.930 . S
C862 H856 0.930 . S
C862 C863 1.355 . S
C862 C864 1.415 . S
C863 C862 1.355 . S
C863 C865 1.419 . S
C864 C862 1.415 . S
C864 C869 1.425 . S
C864 C871 1.409 . S
C865 H857 0.930 . S
C865 C863 1.419 . S
C865 C866 1.362 . S
C866 H858 0.930 1_455 S
C866 C865 1.362 . S
C866 C869 1.409 . S
C867 H859 0.930 1_455 S
C867 C868 1.355 . S
C867 C869 1.415 . S
C868 C867 1.355 . S
C868 C870 1.419 . S
C869 C864 1.425 . S
C869 C866 1.409 . S
C869 C867 1.415 . S
C870 H860 0.930 . S
C870 C868 1.419 . S
C870 C871 1.362 . S
C871 H861 0.930 . S
C871 C864 1.409 . S
C871 C870 1.362 . S
H872 C878 0.930 . S
H873 C881 0.930 . S
H874 C882 0.930 . S
H875 C883 0.930 . S
H876 C886 0.930 . S
H877 C887 0.930 . S
C878 H872 0.930 . S
C878 C879 1.355 . S
C878 C880 1.415 . S
C879 C878 1.355 . S
C879 C881 1.419 . S
C880 C878 1.415 . S
C880 C885 1.425 . S
C880 C887 1.409 . S
C881 H873 0.930 . S
C881 C879 1.419 . S
C881 C882 1.362 . S
C882 H874 0.930 . S
C882 C881 1.362 . S
C882 C885 1.409 . S
C883 H875 0.930 . S
C883 C884 1.355 . S
C883 C885 1.415 . S
C884 C883 1.355 . S
C884 C886 1.419 . S
C885 C880 1.425 . S
C885 C882 1.409 . S
C885 C883 1.415 . S
C886 H876 0.930 . S
C886 C884 1.419 . S
C886 C887 1.362 . S
C887 H877 0.930 . S
C887 C880 1.409 . S
C887 C886 1.362 . S
H888 C894 0.930 . S
H889 C897 0.930 . S
H890 C898 0.930 1_554 S
H891 C899 0.930 . S
H892 C902 0.930 . S
H893 C903 0.930 . S
C894 H888 0.930 . S
C894 C895 1.355 . S
C894 C896 1.415 . S
C895 C894 1.355 . S
C895 C897 1.419 . S
C896 C894 1.415 . S
C896 C901 1.425 . S
C896 C903 1.409 . S
C897 H889 0.930 . S
C897 C895 1.419 . S
C897 C898 1.362 . S
C898 H890 0.930 1_556 S
C898 C897 1.362 . S
C898 C901 1.409 . S
C899 H891 0.930 . S
C899 C900 1.355 1_554 S
C899 C901 1.415 1_554 S
C900 C899 1.355 1_556 S
C900 C902 1.419 . S
C901 C896 1.425 . S
C901 C898 1.409 . S
C901 C899 1.415 1_556 S
C902 H892 0.930 . S
C902 C900 1.419 . S
C902 C903 1.362 . S
C903 H893 0.930 . S
C903 C896 1.409 . S
C903 C902 1.362 . S
H904 C910 0.930 . S
H905 C913 0.930 . S
H906 C914 0.930 . S
H907 C915 0.930 . S
H908 C918 0.930 . S
H909 C919 0.930 . S
C910 H904 0.930 . S
C910 C911 1.355 . S
C910 C912 1.415 . S
C911 C910 1.355 . S
C911 C913 1.419 . S
C912 C910 1.415 . S
C912 C917 1.425 . S
C912 C919 1.409 . S
C913 H905 0.930 . S
C913 C911 1.419 . S
C913 C914 1.362 . S
C914 H906 0.930 . S
C914 C913 1.362 . S
C914 C917 1.409 . S
C915 H907 0.930 . S
C915 C916 1.355 . S
C915 C917 1.415 . S
C916 C915 1.355 . S
C916 C918 1.419 . S
C917 C912 1.425 . S
C917 C914 1.409 . S
C917 C915 1.415 . S
C918 H908 0.930 . S
C918 C916 1.419 . S
C918 C919 1.362 . S
C919 H909 0.930 . S
C919 C912 1.409 . S
C919 C918 1.362 . S
H920 C926 0.930 . S
H921 C929 0.930 . S
H922 C930 0.930 . S
H923 C931 0.930 . S
H924 C934 0.930 . S
H925 C935 0.930 . S
C926 H920 0.930 . S
C926 C927 1.355 1_565 S
C926 C928 1.415 . S
C927 C926 1.355 1_545 S
C927 C929 1.419 . S
C928 C926 1.415 . S
C928 C933 1.425 1_565 S
C928 C935 1.409 . S
C929 H921 0.930 . S
C929 C927 1.419 . S
C929 C930 1.362 . S
C930 H922 0.930 . S
C930 C929 1.362 . S
C930 C933 1.409 . S
C931 H923 0.930 . S
C931 C932 1.355 . S
C931 C933 1.415 . S
C932 C931 1.355 . S
C932 C934 1.419 1_545 S
C933 C928 1.425 1_545 S
C933 C930 1.409 . S
C933 C931 1.415 . S
C934 H924 0.930 . S
C934 C932 1.419 1_565 S
C934 C935 1.362 . S
C935 H925 0.930 . S
C935 C928 1.409 . S
C935 C934 1.362 . S
H936 C942 0.930 . S
H937 C945 0.930 . S
H938 C946 0.930 . S
H939 C947 0.930 . S
H940 C950 0.930 . S
H941 C951 0.930 . S
C942 H936 0.930 . S
C942 C943 1.355 . S
C942 C944 1.415 . S
C943 C942 1.355 . S
C943 C945 1.419 . S
C944 C942 1.415 . S
C944 C949 1.425 . S
C944 C951 1.409 . S
C945 H937 0.930 . S
C945 C943 1.419 . S
C945 C946 1.362 . S
C946 H938 0.930 . S
C946 C945 1.362 . S
C946 C949 1.409 . S
C947 H939 0.930 . S
C947 C948 1.355 . S
C947 C949 1.415 . S
C948 C947 1.355 . S
C948 C950 1.419 . S
C949 C944 1.425 . S
C949 C946 1.409 . S
C949 C947 1.415 . S
C950 H940 0.930 . S
C950 C948 1.419 . S
C950 C951 1.362 . S
C951 H941 0.930 . S
C951 C944 1.409 . S
C951 C950 1.362 . S
H952 C958 0.930 . S
H953 C961 0.930 . S
H954 C962 0.930 . S
H955 C963 0.930 . S
H956 C966 0.930 . S
H957 C967 0.930 . S
C958 H952 0.930 . S
C958 C959 1.355 . S
C958 C960 1.415 . S
C959 C958 1.355 . S
C959 C961 1.419 . S
C960 C958 1.415 . S
C960 C965 1.425 . S
C960 C967 1.409 . S
C961 H953 0.930 . S
C961 C959 1.419 . S
C961 C962 1.362 . S
C962 H954 0.930 . S
C962 C961 1.362 . S
C962 C965 1.409 . S
C963 H955 0.930 . S
C963 C964 1.355 . S
C963 C965 1.415 . S
C964 C963 1.355 . S
C964 C966 1.419 . S
C965 C960 1.425 . S
C965 C962 1.409 . S
C965 C963 1.415 . S
C966 H956 0.930 . S
C966 C964 1.419 . S
C966 C967 1.362 . S
C967 H957 0.930 . S
C967 C960 1.409 . S
C967 C966 1.362 . S
H968 C974 0.930 . S
H969 C977 0.930 . S
H970 C978 0.930 . S
H971 C979 0.930 . S
H972 C982 0.930 . S
H973 C983 0.930 . S
C974 H968 0.930 . S
C974 C975 1.355 . S
C974 C976 1.415 . S
C975 C974 1.355 . S
C975 C977 1.419 . S
C976 C974 1.415 . S
C976 C981 1.425 . S
C976 C983 1.409 . S
C977 H969 0.930 . S
C977 C975 1.419 . S
C977 C978 1.362 . S
C978 H970 0.930 . S
C978 C977 1.362 . S
C978 C981 1.409 . S
C979 H971 0.930 . S
C979 C980 1.355 . S
C979 C981 1.415 . S
C980 C979 1.355 . S
C980 C982 1.419 . S
C981 C976 1.425 . S
C981 C978 1.409 . S
C981 C979 1.415 . S
C982 H972 0.930 . S
C982 C980 1.419 . S
C982 C983 1.362 . S
C983 H973 0.930 . S
C983 C976 1.409 . S
C983 C982 1.362 . S
H984 C990 0.930 1_565 S
H985 C993 0.930 . S
H986 C994 0.930 . S
H987 C995 0.930 . S
H988 C998 0.930 . S
H989 C999 0.930 1_565 S
C990 H984 0.930 1_545 S
C990 C991 1.355 . S
C990 C992 1.415 . S
C991 C990 1.355 . S
C991 C993 1.419 . S
C992 C990 1.415 . S
C992 C997 1.425 . S
C992 C999 1.409 . S
C993 H985 0.930 . S
C993 C991 1.419 . S
C993 C994 1.362 . S
C994 H986 0.930 . S
C994 C993 1.362 . S
C994 C997 1.409 . S
C995 H987 0.930 . S
C995 C996 1.355 . S
C995 C997 1.415 . S
C996 C995 1.355 . S
C996 C998 1.419 . S
C997 C992 1.425 . S
C997 C994 1.409 . S
C997 C995 1.415 . S
C998 H988 0.930 . S
C998 C996 1.419 . S
C998 C999 1.362 . S
C999 H989 0.930 1_545 S
C999 C992 1.409 . S
C999 C998 1.362 . S
H1000 C1006 0.930 . S
H1001 C1009 0.930 . S
H1002 C1010 0.930 . S
H1003 C1011 0.930 . S
H1004 C1014 0.930 . S
H1005 C1015 0.930 . S
C1006 H1000 0.930 . S
C1006 C1007 1.355 . S
C1006 C1008 1.415 . S
C1007 C1006 1.355 . S
C1007 C1009 1.419 . S
C1008 C1006 1.415 . S
C1008 C1013 1.425 . S
C1008 C1015 1.409 . S
C1009 H1001 0.930 . S
C1009 C1007 1.419 . S
C1009 C1010 1.362 . S
C1010 H1002 0.930 . S
C1010 C1009 1.362 . S
C1010 C1013 1.409 . S
C1011 H1003 0.930 . S
C1011 C1012 1.355 . S
C1011 C1013 1.415 . S
C1012 C1011 1.355 . S
C1012 C1014 1.419 . S
C1013 C1008 1.425 . S
C1013 C1010 1.409 . S
C1013 C1011 1.415 . S
C1014 H1004 0.930 . S
C1014 C1012 1.419 . S
C1014 C1015 1.362 . S
C1015 H1005 0.930 . S
C1015 C1008 1.409 . S
C1015 C1014 1.362 . S
H1016 C1022 0.930 . S
H1017 C1025 0.930 . S
H1018 C1026 0.930 . S
H1019 C1027 0.930 . S
H1020 C1030 0.930 . S
H1021 C1031 0.930 . S
C1022 H1016 0.930 . S
C1022 C1023 1.355 . S
C1022 C1024 1.415 . S
C1023 C1022 1.355 . S
C1023 C1025 1.419 . S
C1024 C1022 1.415 . S
C1024 C1029 1.425 . S
C1024 C1031 1.409 . S
C1025 H1017 0.930 . S
C1025 C1023 1.419 . S
C1025 C1026 1.362 . S
C1026 H1018 0.930 . S
C1026 C1025 1.362 . S
C1026 C1029 1.409 . S
C1027 H1019 0.930 . S
C1027 C1028 1.355 . S
C1027 C1029 1.415 . S
C1028 C1027 1.355 . S
C1028 C1030 1.419 . S
C1029 C1024 1.425 . S
C1029 C1026 1.409 . S
C1029 C1027 1.415 . S
C1030 H1020 0.930 . S
C1030 C1028 1.419 . S
C1030 C1031 1.362 . S
C1031 H1021 0.930 . S
C1031 C1024 1.409 . S
C1031 C1030 1.362 . S
H1032 C1038 0.930 . S
H1033 C1041 0.930 . S
H1034 C1042 0.930 . S
H1035 C1043 0.930 . S
H1036 C1046 0.930 . S
H1037 C1047 0.930 . S
C1038 H1032 0.930 . S
C1038 C1039 1.355 . S
C1038 C1040 1.415 . S
C1039 C1038 1.355 . S
C1039 C1041 1.419 . S
C1040 C1038 1.415 . S
C1040 C1045 1.425 . S
C1040 C1047 1.409 . S
C1041 H1033 0.930 . S
C1041 C1039 1.419 . S
C1041 C1042 1.362 . S
C1042 H1034 0.930 . S
C1042 C1041 1.362 . S
C1042 C1045 1.409 . S
C1043 H1035 0.930 . S
C1043 C1044 1.355 . S
C1043 C1045 1.415 . S
C1044 C1043 1.355 . S
C1044 C1046 1.419 . S
C1045 C1040 1.425 . S
C1045 C1042 1.409 . S
C1045 C1043 1.415 . S
C1046 H1036 0.930 . S
C1046 C1044 1.419 . S
C1046 C1047 1.362 . S
C1047 H1037 0.930 . S
C1047 C1040 1.409 . S
C1047 C1046 1.362 . S
H1048 C1054 0.930 . S
H1049 C1057 0.930 . S
H1050 C1058 0.930 . S
H1051 C1059 0.930 . S
H1052 C1062 0.930 . S
H1053 C1063 0.930 . S
C1054 H1048 0.930 . S
C1054 C1055 1.355 . S
C1054 C1056 1.415 . S
C1055 C1054 1.355 . S
C1055 C1057 1.419 . S
C1056 C1054 1.415 . S
C1056 C1061 1.425 . S
C1056 C1063 1.409 . S
C1057 H1049 0.930 . S
C1057 C1055 1.419 . S
C1057 C1058 1.362 . S
C1058 H1050 0.930 . S
C1058 C1057 1.362 . S
C1058 C1061 1.409 . S
C1059 H1051 0.930 . S
C1059 C1060 1.355 . S
C1059 C1061 1.415 . S
C1060 C1059 1.355 . S
C1060 C1062 1.419 . S
C1061 C1056 1.425 . S
C1061 C1058 1.409 . S
C1061 C1059 1.415 . S
C1062 H1052 0.930 . S
C1062 C1060 1.419 . S
C1062 C1063 1.362 . S
C1063 H1053 0.930 . S
C1063 C1056 1.409 . S
C1063 C1062 1.362 . S
H1064 C1070 0.930 . S
H1065 C1073 0.930 . S
H1066 C1074 0.930 . S
H1067 C1075 0.930 . S
H1068 C1078 0.930 . S
H1069 C1079 0.930 . S
C1070 H1064 0.930 . S
C1070 C1071 1.355 . S
C1070 C1072 1.415 . S
C1071 C1070 1.355 . S
C1071 C1073 1.419 . S
C1072 C1070 1.415 . S
C1072 C1077 1.425 . S
C1072 C1079 1.409 . S
C1073 H1065 0.930 . S
C1073 C1071 1.419 . S
C1073 C1074 1.362 . S
C1074 H1066 0.930 . S
C1074 C1073 1.362 . S
C1074 C1077 1.409 . S
C1075 H1067 0.930 . S
C1075 C1076 1.355 . S
C1075 C1077 1.415 . S
C1076 C1075 1.355 . S
C1076 C1078 1.419 . S
C1077 C1072 1.425 . S
C1077 C1074 1.409 . S
C1077 C1075 1.415 . S
C1078 H1068 0.930 . S
C1078 C1076 1.419 . S
C1078 C1079 1.362 . S
C1079 H1069 0.930 . S
C1079 C1072 1.409 . S
C1079 C1078 1.362 . S
H1080 C1086 0.930 . S
H1081 C1089 0.930 . S
H1082 C1090 0.930 . S
H1083 C1091 0.930 . S
H1084 C1094 0.930 . S
H1085 C1095 0.930 . S
C1086 H1080 0.930 . S
C1086 C1087 1.355 . S
C1086 C1088 1.415 . S
C1087 C1086 1.355 . S
C1087 C1089 1.419 . S
C1088 C1086 1.415 . S
C1088 C1093 1.425 . S
C1088 C1095 1.409 . S
C1089 H1081 0.930 . S
C1089 C1087 1.419 . S
C1089 C1090 1.362 . S
C1090 H1082 0.930 . S
C1090 C1089 1.362 . S
C1090 C1093 1.409 . S
C1091 H1083 0.930 . S
C1091 C1092 1.355 . S
C1091 C1093 1.415 . S
C1092 C1091 1.355 . S
C1092 C1094 1.419 . S
C1093 C1088 1.425 . S
C1093 C1090 1.409 . S
C1093 C1091 1.415 . S
C1094 H1084 0.930 . S
C1094 C1092 1.419 . S
C1094 C1095 1.362 . S
C1095 H1085 0.930 . S
C1095 C1088 1.409 . S
C1095 C1094 1.362 . S
H1096 C1102 0.930 . S
H1097 C1105 0.930 . S
H1098 C1106 0.930 . S
H1099 C1107 0.930 . S
H1100 C1110 0.930 . S
H1101 C1111 0.930 . S
C1102 H1096 0.930 . S
C1102 C1103 1.355 . S
C1102 C1104 1.415 . S
C1103 C1102 1.355 . S
C1103 C1105 1.419 . S
C1104 C1102 1.415 . S
C1104 C1109 1.425 . S
C1104 C1111 1.409 . S
C1105 H1097 0.930 . S
C1105 C1103 1.419 . S
C1105 C1106 1.362 . S
C1106 H1098 0.930 . S
C1106 C1105 1.362 . S
C1106 C1109 1.409 . S
C1107 H1099 0.930 . S
C1107 C1108 1.355 . S
C1107 C1109 1.415 . S
C1108 C1107 1.355 . S
C1108 C1110 1.419 . S
C1109 C1104 1.425 . S
C1109 C1106 1.409 . S
C1109 C1107 1.415 . S
C1110 H1100 0.930 . S
C1110 C1108 1.419 . S
C1110 C1111 1.362 . S
C1111 H1101 0.930 . S
C1111 C1104 1.409 . S
C1111 C1110 1.362 . S
H1112 C1118 0.930 . S
H1113 C1121 0.930 . S
H1114 C1122 0.930 . S
H1115 C1123 0.930 . S
H1116 C1126 0.930 . S
H1117 C1127 0.930 . S
C1118 H1112 0.930 . S
C1118 C1119 1.355 . S
C1118 C1120 1.415 . S
C1119 C1118 1.355 . S
C1119 C1121 1.419 . S
C1120 C1118 1.415 . S
C1120 C1125 1.425 . S
C1120 C1127 1.409 . S
C1121 H1113 0.930 . S
C1121 C1119 1.419 . S
C1121 C1122 1.362 . S
C1122 H1114 0.930 . S
C1122 C1121 1.362 . S
C1122 C1125 1.409 . S
C1123 H1115 0.930 . S
C1123 C1124 1.355 . S
C1123 C1125 1.415 . S
C1124 C1123 1.355 . S
C1124 C1126 1.419 . S
C1125 C1120 1.425 . S
C1125 C1122 1.409 . S
C1125 C1123 1.415 . S
C1126 H1116 0.930 . S
C1126 C1124 1.419 . S
C1126 C1127 1.362 . S
C1127 H1117 0.930 . S
C1127 C1120 1.409 . S
C1127 C1126 1.362 . S
H1128 C1134 0.930 . S
H1129 C1137 0.930 . S
H1130 C1138 0.930 1_545 S
H1131 C1139 0.926 . S
H1132 C1142 0.930 . S
H1133 C1143 0.930 . S
C1134 H1128 0.930 . S
C1134 C1135 1.355 . S
C1134 C1136 1.415 . S
C1135 C1134 1.355 . S
C1135 C1137 1.419 . S
C1136 C1134 1.415 . S
C1136 C1141 1.425 . S
C1136 C1143 1.409 . S
C1137 H1129 0.930 . S
C1137 C1135 1.419 . S
C1137 C1138 1.362 . S
C1138 H1130 0.930 1_565 S
C1138 C1137 1.362 . S
C1138 C1141 1.409 . S
C1139 H1131 0.926 . S
C1139 C1140 1.356 1_545 S
C1139 C1141 1.417 1_545 S
C1140 C1139 1.356 1_565 S
C1140 C1142 1.419 . S
C1141 C1136 1.425 . S
C1141 C1138 1.409 . S
C1141 C1139 1.417 1_565 S
C1142 H1132 0.930 . S
C1142 C1140 1.419 . S
C1142 C1143 1.362 . S
C1143 H1133 0.930 . S
C1143 C1136 1.409 . S
C1143 C1142 1.362 . S
H1144 C1150 0.930 . S
H1145 C1153 0.930 . S
H1146 C1154 0.930 . S
H1147 C1155 0.930 . S
H1148 C1158 0.930 . S
H1149 C1159 0.930 . S
C1150 H1144 0.930 . S
C1150 C1151 1.355 . S
C1150 C1152 1.415 . S
C1151 C1150 1.355 . S
C1151 C1153 1.419 . S
C1152 C1150 1.415 . S
C1152 C1157 1.425 . S
C1152 C1159 1.409 . S
C1153 H1145 0.930 . S
C1153 C1151 1.419 . S
C1153 C1154 1.362 . S
C1154 H1146 0.930 . S
C1154 C1153 1.362 . S
C1154 C1157 1.409 . S
C1155 H1147 0.930 . S
C1155 C1156 1.355 . S
C1155 C1157 1.415 . S
C1156 C1155 1.355 . S
C1156 C1158 1.419 . S
C1157 C1152 1.425 . S
C1157 C1154 1.409 . S
C1157 C1155 1.415 . S
C1158 H1148 0.930 . S
C1158 C1156 1.419 . S
C1158 C1159 1.362 . S
C1159 H1149 0.930 . S
C1159 C1152 1.409 . S
C1159 C1158 1.362 . S
H1160 C1166 0.930 . S
H1161 C1169 0.930 . S
H1162 C1170 0.930 . S
H1163 C1171 0.930 . S
H1164 C1174 0.930 . S
H1165 C1175 0.930 . S
C1166 H1160 0.930 . S
C1166 C1167 1.355 . S
C1166 C1168 1.415 . S
C1167 C1166 1.355 . S
C1167 C1169 1.419 . S
C1168 C1166 1.415 . S
C1168 C1173 1.425 . S
C1168 C1175 1.409 . S
C1169 H1161 0.930 . S
C1169 C1167 1.419 . S
C1169 C1170 1.362 . S
C1170 H1162 0.930 . S
C1170 C1169 1.362 . S
C1170 C1173 1.409 . S
C1171 H1163 0.930 . S
C1171 C1172 1.355 . S
C1171 C1173 1.415 . S
C1172 C1171 1.355 . S
C1172 C1174 1.419 . S
C1173 C1168 1.425 . S
C1173 C1170 1.409 . S
C1173 C1171 1.415 . S
C1174 H1164 0.930 . S
C1174 C1172 1.419 . S
C1174 C1175 1.362 . S
C1175 H1165 0.930 . S
C1175 C1168 1.409 . S
C1175 C1174 1.362 . S
H1176 C1182 0.930 . S
H1177 C1185 0.930 . S
H1178 C1186 0.930 . S
H1179 C1187 0.930 . S
H1180 C1190 0.930 . S
H1181 C1191 0.930 . S
C1182 H1176 0.930 . S
C1182 C1183 1.355 . S
C1182 C1184 1.415 . S
C1183 C1182 1.355 . S
C1183 C1185 1.419 . S
C1184 C1182 1.415 . S
C1184 C1189 1.425 . S
C1184 C1191 1.409 1_556 S
C1185 H1177 0.930 . S
C1185 C1183 1.419 . S
C1185 C1186 1.362 . S
C1186 H1178 0.930 . S
C1186 C1185 1.362 . S
C1186 C1189 1.409 . S
C1187 H1179 0.930 . S
C1187 C1188 1.355 . S
C1187 C1189 1.415 . S
C1188 C1187 1.355 . S
C1188 C1190 1.419 1_556 S
C1189 C1184 1.425 . S
C1189 C1186 1.409 . S
C1189 C1187 1.415 . S
C1190 H1180 0.930 . S
C1190 C1188 1.419 1_554 S
C1190 C1191 1.362 . S
C1191 H1181 0.930 . S
C1191 C1184 1.409 1_554 S
C1191 C1190 1.362 . S
H1192 C1198 0.930 . S
H1193 C1201 0.930 . S
H1194 C1202 0.930 . S
H1195 C1203 0.930 . S
H1196 C1206 0.930 . S
H1197 C1207 0.930 . S
C1198 H1192 0.930 . S
C1198 C1199 1.355 . S
C1198 C1200 1.415 . S
C1199 C1198 1.355 . S
C1199 C1201 1.419 . S
C1200 C1198 1.415 . S
C1200 C1205 1.425 . S
C1200 C1207 1.409 . S
C1201 H1193 0.930 . S
C1201 C1199 1.419 . S
C1201 C1202 1.362 . S
C1202 H1194 0.930 . S
C1202 C1201 1.362 . S
C1202 C1205 1.409 . S
C1203 H1195 0.930 . S
C1203 C1204 1.355 . S
C1203 C1205 1.415 . S
C1204 C1203 1.355 . S
C1204 C1206 1.419 . S
C1205 C1200 1.425 . S
C1205 C1202 1.409 . S
C1205 C1203 1.415 . S
C1206 H1196 0.930 . S
C1206 C1204 1.419 . S
C1206 C1207 1.362 . S
C1207 H1197 0.930 . S
C1207 C1200 1.409 . S
C1207 C1206 1.362 . S
H1208 C1214 0.930 . S
H1209 C1217 0.930 . S
H1210 C1218 0.930 . S
H1211 C1219 0.930 . S
H1212 C1222 0.930 . S
H1213 C1223 0.930 . S
C1214 H1208 0.930 . S
C1214 C1215 1.355 . S
C1214 C1216 1.415 . S
C1215 C1214 1.355 . S
C1215 C1217 1.419 . S
C1216 C1214 1.415 . S
C1216 C1221 1.425 . S
C1216 C1223 1.409 . S
C1217 H1209 0.930 . S
C1217 C1215 1.419 . S
C1217 C1218 1.362 . S
C1218 H1210 0.930 . S
C1218 C1217 1.362 . S
C1218 C1221 1.409 . S
C1219 H1211 0.930 . S
C1219 C1220 1.355 . S
C1219 C1221 1.415 . S
C1220 C1219 1.355 . S
C1220 C1222 1.419 . S
C1221 C1216 1.425 . S
C1221 C1218 1.409 . S
C1221 C1219 1.415 . S
C1222 H1212 0.930 . S
C1222 C1220 1.419 . S
C1222 C1223 1.362 . S
C1223 H1213 0.930 . S
C1223 C1216 1.409 . S
C1223 C1222 1.362 . S
H1224 C1230 0.930 . S
H1225 C1233 0.930 . S
H1226 C1234 0.930 . S
H1227 C1235 0.930 . S
H1228 C1238 0.930 . S
H1229 C1239 0.930 . S
C1230 H1224 0.930 . S
C1230 C1231 1.355 . S
C1230 C1232 1.415 . S
C1231 C1230 1.355 . S
C1231 C1233 1.419 . S
C1232 C1230 1.415 . S
C1232 C1237 1.425 . S
C1232 C1239 1.409 . S
C1233 H1225 0.930 . S
C1233 C1231 1.419 . S
C1233 C1234 1.362 . S
C1234 H1226 0.930 . S
C1234 C1233 1.362 . S
C1234 C1237 1.409 . S
C1235 H1227 0.930 . S
C1235 C1236 1.355 . S
C1235 C1237 1.415 . S
C1236 C1235 1.355 . S
C1236 C1238 1.419 . S
C1237 C1232 1.425 . S
C1237 C1234 1.409 . S
C1237 C1235 1.415 . S
C1238 H1228 0.930 . S
C1238 C1236 1.419 . S
C1238 C1239 1.362 . S
C1239 H1229 0.930 . S
C1239 C1232 1.409 . S
C1239 C1238 1.362 . S
H1240 C1246 0.930 . S
H1241 C1249 0.930 . S
H1242 C1250 0.930 . S
H1243 C1251 0.930 . S
H1244 C1254 0.930 . S
H1245 C1255 0.930 . S
C1246 H1240 0.930 . S
C1246 C1247 1.355 . S
C1246 C1248 1.415 . S
C1247 C1246 1.355 . S
C1247 C1249 1.419 1_455 S
C1248 C1246 1.415 . S
C1248 C1253 1.425 . S
C1248 C1255 1.409 . S
C1249 H1241 0.930 . S
C1249 C1247 1.419 1_655 S
C1249 C1250 1.362 . S
C1250 H1242 0.930 . S
C1250 C1249 1.362 . S
C1250 C1253 1.409 1_655 S
C1251 H1243 0.930 . S
C1251 C1252 1.355 . S
C1251 C1253 1.415 . S
C1252 C1251 1.355 . S
C1252 C1254 1.419 . S
C1253 C1248 1.425 . S
C1253 C1250 1.409 1_455 S
C1253 C1251 1.415 . S
C1254 H1244 0.930 . S
C1254 C1252 1.419 . S
C1254 C1255 1.362 . S
C1255 H1245 0.930 . S
C1255 C1248 1.409 . S
C1255 C1254 1.362 . S
H1256 C1262 0.930 . S
H1257 C1265 0.930 . S
H1258 C1266 0.930 . S
H1259 C1267 0.930 . S
H1260 C1270 0.930 . S
H1261 C1271 0.930 . S
C1262 H1256 0.930 . S
C1262 C1263 1.355 . S
C1262 C1264 1.415 . S
C1263 C1262 1.355 . S
C1263 C1265 1.419 . S
C1264 C1262 1.415 . S
C1264 C1269 1.425 . S
C1264 C1271 1.409 . S
C1265 H1257 0.930 . S
C1265 C1263 1.419 . S
C1265 C1266 1.362 . S
C1266 H1258 0.930 . S
C1266 C1265 1.362 . S
C1266 C1269 1.409 . S
C1267 H1259 0.930 . S
C1267 C1268 1.355 . S
C1267 C1269 1.415 . S
C1268 C1267 1.355 . S
C1268 C1270 1.419 . S
C1269 C1264 1.425 . S
C1269 C1266 1.409 . S
C1269 C1267 1.415 . S
C1270 H1260 0.930 . S
C1270 C1268 1.419 . S
C1270 C1271 1.362 . S
C1271 H1261 0.930 . S
C1271 C1264 1.409 . S
C1271 C1270 1.362 . S
H1272 C1278 0.930 . S
H1273 C1281 0.930 . S
H1274 C1282 0.930 . S
H1275 C1283 0.930 . S
H1276 C1286 0.930 . S
H1277 C1287 0.930 . S
C1278 H1272 0.930 . S
C1278 C1279 1.355 . S
C1278 C1280 1.415 . S
C1279 C1278 1.355 . S
C1279 C1281 1.419 . S
C1280 C1278 1.415 . S
C1280 C1285 1.425 . S
C1280 C1287 1.409 . S
C1281 H1273 0.930 . S
C1281 C1279 1.419 . S
C1281 C1282 1.362 . S
C1282 H1274 0.930 . S
C1282 C1281 1.362 . S
C1282 C1285 1.409 . S
C1283 H1275 0.930 . S
C1283 C1284 1.355 . S
C1283 C1285 1.415 . S
C1284 C1283 1.355 . S
C1284 C1286 1.419 . S
C1285 C1280 1.425 . S
C1285 C1282 1.409 . S
C1285 C1283 1.415 . S
C1286 H1276 0.930 . S
C1286 C1284 1.419 . S
C1286 C1287 1.362 . S
C1287 H1277 0.930 . S
C1287 C1280 1.409 . S
C1287 C1286 1.362 . S
H1288 C1294 0.930 . S
H1289 C1297 0.930 . S
H1290 C1298 0.930 . S
H1291 C1299 0.930 . S
H1292 C1302 0.930 . S
H1293 C1303 0.930 . S
C1294 H1288 0.930 . S
C1294 C1295 1.355 . S
C1294 C1296 1.415 . S
C1295 C1294 1.355 . S
C1295 C1297 1.419 . S
C1296 C1294 1.415 . S
C1296 C1301 1.425 . S
C1296 C1303 1.409 . S
C1297 H1289 0.930 . S
C1297 C1295 1.419 . S
C1297 C1298 1.362 . S
C1298 H1290 0.930 . S
C1298 C1297 1.362 . S
C1298 C1301 1.409 . S
C1299 H1291 0.930 . S
C1299 C1300 1.355 . S
C1299 C1301 1.415 . S
C1300 C1299 1.355 . S
C1300 C1302 1.419 . S
C1301 C1296 1.425 . S
C1301 C1298 1.409 . S
C1301 C1299 1.415 . S
C1302 H1292 0.930 . S
C1302 C1300 1.419 . S
C1302 C1303 1.362 . S
C1303 H1293 0.930 . S
C1303 C1296 1.409 . S
C1303 C1302 1.362 . S
H1304 C1310 0.930 . S
H1305 C1313 0.930 . S
H1306 C1314 0.930 . S
H1307 C1315 0.930 1_455 S
H1308 C1318 0.930 . S
H1309 C1319 0.930 . S
C1310 H1304 0.930 . S
C1310 C1311 1.355 . S
C1310 C1312 1.415 . S
C1311 C1310 1.355 . S
C1311 C1313 1.419 . S
C1312 C1310 1.415 . S
C1312 C1317 1.425 . S
C1312 C1319 1.409 . S
C1313 H1305 0.930 . S
C1313 C1311 1.419 . S
C1313 C1314 1.362 . S
C1314 H1306 0.930 . S
C1314 C1313 1.362 . S
C1314 C1317 1.409 . S
C1315 H1307 0.930 1_655 S
C1315 C1316 1.355 . S
C1315 C1317 1.415 . S
C1316 C1315 1.355 . S
C1316 C1318 1.419 . S
C1317 C1312 1.425 . S
C1317 C1314 1.409 . S
C1317 C1315 1.415 . S
C1318 H1308 0.930 . S
C1318 C1316 1.419 . S
C1318 C1319 1.362 . S
C1319 H1309 0.930 . S
C1319 C1312 1.409 . S
C1319 C1318 1.362 . S
H1320 C1326 0.930 . S
H1321 C1329 0.930 . S
H1322 C1330 0.930 . S
H1323 C1331 0.930 . S
H1324 C1334 0.930 . S
H1325 C1335 0.930 . S
C1326 H1320 0.930 . S
C1326 C1327 1.355 . S
C1326 C1328 1.415 . S
C1327 C1326 1.355 . S
C1327 C1329 1.419 . S
C1328 C1326 1.415 . S
C1328 C1333 1.425 . S
C1328 C1335 1.409 . S
C1329 H1321 0.930 . S
C1329 C1327 1.419 . S
C1329 C1330 1.362 . S
C1330 H1322 0.930 . S
C1330 C1329 1.362 . S
C1330 C1333 1.409 . S
C1331 H1323 0.930 . S
C1331 C1332 1.355 . S
C1331 C1333 1.415 . S
C1332 C1331 1.355 . S
C1332 C1334 1.419 . S
C1333 C1328 1.425 . S
C1333 C1330 1.409 . S
C1333 C1331 1.415 . S
C1334 H1324 0.930 . S
C1334 C1332 1.419 . S
C1334 C1335 1.362 . S
C1335 H1325 0.930 . S
C1335 C1328 1.409 . S
C1335 C1334 1.362 . S
H1336 C1342 0.930 . S
H1337 C1345 0.930 . S
H1338 C1346 0.930 . S
H1339 C1347 0.930 1_565 S
H1340 C1350 0.930 . S
H1341 C1351 0.930 . S
C1342 H1336 0.930 . S
C1342 C1343 1.355 . S
C1342 C1344 1.415 . S
C1343 C1342 1.355 . S
C1343 C1345 1.419 1_545 S
C1344 C1342 1.415 . S
C1344 C1349 1.425 . S
C1344 C1351 1.409 . S
C1345 H1337 0.930 . S
C1345 C1343 1.419 1_565 S
C1345 C1346 1.362 . S
C1346 H1338 0.930 . S
C1346 C1345 1.362 . S
C1346 C1349 1.409 1_565 S
C1347 H1339 0.930 1_545 S
C1347 C1348 1.355 . S
C1347 C1349 1.415 . S
C1348 C1347 1.355 . S
C1348 C1350 1.419 . S
C1349 C1344 1.425 . S
C1349 C1346 1.409 1_545 S
C1349 C1347 1.415 . S
C1350 H1340 0.930 . S
C1350 C1348 1.419 . S
C1350 C1351 1.362 . S
C1351 H1341 0.930 . S
C1351 C1344 1.409 . S
C1351 C1350 1.362 . S
H1352 C1358 0.930 . S
H1353 C1361 0.930 . S
H1354 C1362 0.930 . S
H1355 C1363 0.930 . S
H1356 C1366 0.930 . S
H1357 C1367 0.930 . S
C1358 H1352 0.930 . S
C1358 C1359 1.355 . S
C1358 C1360 1.415 . S
C1359 C1358 1.355 . S
C1359 C1361 1.419 . S
C1360 C1358 1.415 . S
C1360 C1365 1.425 . S
C1360 C1367 1.409 . S
C1361 H1353 0.930 . S
C1361 C1359 1.419 . S
C1361 C1362 1.362 . S
C1362 H1354 0.930 . S
C1362 C1361 1.362 . S
C1362 C1365 1.409 . S
C1363 H1355 0.930 . S
C1363 C1364 1.355 . S
C1363 C1365 1.415 . S
C1364 C1363 1.355 . S
C1364 C1366 1.419 . S
C1365 C1360 1.425 . S
C1365 C1362 1.409 . S
C1365 C1363 1.415 . S
C1366 H1356 0.930 . S
C1366 C1364 1.419 . S
C1366 C1367 1.362 . S
C1367 H1357 0.930 . S
C1367 C1360 1.409 . S
C1367 C1366 1.362 . S
H1368 C1374 0.930 . S
H1369 C1377 0.930 . S
H1370 C1378 0.930 . S
H1371 C1379 0.930 . S
H1372 C1382 0.930 . S
H1373 C1383 0.930 . S
C1374 H1368 0.930 . S
C1374 C1375 1.355 . S
C1374 C1376 1.415 . S
C1375 C1374 1.355 . S
C1375 C1377 1.419 . S
C1376 C1374 1.415 . S
C1376 C1381 1.425 . S
C1376 C1383 1.409 1_655 S
C1377 H1369 0.930 . S
C1377 C1375 1.419 . S
C1377 C1378 1.362 . S
C1378 H1370 0.930 . S
C1378 C1377 1.362 . S
C1378 C1381 1.409 . S
C1379 H1371 0.930 . S
C1379 C1380 1.355 . S
C1379 C1381 1.415 . S
C1380 C1379 1.355 . S
C1380 C1382 1.419 1_655 S
C1381 C1376 1.425 . S
C1381 C1378 1.409 . S
C1381 C1379 1.415 . S
C1382 H1372 0.930 . S
C1382 C1380 1.419 1_455 S
C1382 C1383 1.362 . S
C1383 H1373 0.930 . S
C1383 C1376 1.409 1_455 S
C1383 C1382 1.362 . S
H1384 C1390 0.930 . S
H1385 C1393 0.930 . S
H1386 C1394 0.930 . S
H1387 C1395 0.930 . S
H1388 C1398 0.930 . S
H1389 C1399 0.930 . S
C1390 H1384 0.930 . S
C1390 C1391 1.355 . S
C1390 C1392 1.415 . S
C1391 C1390 1.355 . S
C1391 C1393 1.419 . S
C1392 C1390 1.415 . S
C1392 C1397 1.425 . S
C1392 C1399 1.409 . S
C1393 H1385 0.930 . S
C1393 C1391 1.419 . S
C1393 C1394 1.362 . S
C1394 H1386 0.930 . S
C1394 C1393 1.362 . S
C1394 C1397 1.409 . S
C1395 H1387 0.930 . S
C1395 C1396 1.355 . S
C1395 C1397 1.415 . S
C1396 C1395 1.355 . S
C1396 C1398 1.419 . S
C1397 C1392 1.425 . S
C1397 C1394 1.409 . S
C1397 C1395 1.415 . S
C1398 H1388 0.930 . S
C1398 C1396 1.419 . S
C1398 C1399 1.362 . S
C1399 H1389 0.930 . S
C1399 C1392 1.409 . S
C1399 C1398 1.362 . S
H1400 C1406 0.930 . S
H1401 C1409 0.930 . S
H1402 C1410 0.930 . S
H1403 C1411 0.930 . S
H1404 C1414 0.930 . S
H1405 C1415 0.930 . S
C1406 H1400 0.930 . S
C1406 C1407 1.355 . S
C1406 C1408 1.415 . S
C1407 C1406 1.355 . S
C1407 C1409 1.419 . S
C1408 C1406 1.415 . S
C1408 C1413 1.425 . S
C1408 C1415 1.409 . S
C1409 H1401 0.930 . S
C1409 C1407 1.419 . S
C1409 C1410 1.362 . S
C1410 H1402 0.930 . S
C1410 C1409 1.362 . S
C1410 C1413 1.409 . S
C1411 H1403 0.930 . S
C1411 C1412 1.355 . S
C1411 C1413 1.415 . S
C1412 C1411 1.355 . S
C1412 C1414 1.419 . S
C1413 C1408 1.425 . S
C1413 C1410 1.409 . S
C1413 C1411 1.415 . S
C1414 H1404 0.930 . S
C1414 C1412 1.419 . S
C1414 C1415 1.362 . S
C1415 H1405 0.930 . S
C1415 C1408 1.409 . S
C1415 C1414 1.362 . S
H1416 C1422 0.930 . S
H1417 C1425 0.930 . S
H1418 C1426 0.930 . S
H1419 C1427 0.930 . S
H1420 C1430 0.930 . S
H1421 C1431 0.930 . S
C1422 H1416 0.930 . S
C1422 C1423 1.355 . S
C1422 C1424 1.415 . S
C1423 C1422 1.355 . S
C1423 C1425 1.419 . S
C1424 C1422 1.415 . S
C1424 C1429 1.425 . S
C1424 C1431 1.409 . S
C1425 H1417 0.930 . S
C1425 C1423 1.419 . S
C1425 C1426 1.362 . S
C1426 H1418 0.930 . S
C1426 C1425 1.362 . S
C1426 C1429 1.409 . S
C1427 H1419 0.930 . S
C1427 C1428 1.355 . S
C1427 C1429 1.415 . S
C1428 C1427 1.355 . S
C1428 C1430 1.419 . S
C1429 C1424 1.425 . S
C1429 C1426 1.409 . S
C1429 C1427 1.415 . S
C1430 H1420 0.930 . S
C1430 C1428 1.419 . S
C1430 C1431 1.362 . S
C1431 H1421 0.930 . S
C1431 C1424 1.409 . S
C1431 C1430 1.362 . S
H1432 C1438 0.930 . S
H1433 C1441 0.930 1_556 S
H1434 C1442 0.930 1_556 S
H1435 C1443 0.930 . S
H1436 C1446 0.930 . S
H1437 C1447 0.930 . S
C1438 H1432 0.930 . S
C1438 C1439 1.355 . S
C1438 C1440 1.415 . S
C1439 C1438 1.355 . S
C1439 C1441 1.419 . S
C1440 C1438 1.415 . S
C1440 C1445 1.425 . S
C1440 C1447 1.409 . S
C1441 H1433 0.930 1_554 S
C1441 C1439 1.419 . S
C1441 C1442 1.362 1_565 S
C1442 H1434 0.930 1_554 S
C1442 C1441 1.362 1_545 S
C1442 C1445 1.409 1_545 S
C1443 H1435 0.930 . S
C1443 C1444 1.355 . S
C1443 C1445 1.415 1_545 S
C1444 C1443 1.355 . S
C1444 C1446 1.419 1_545 S
C1445 C1440 1.425 . S
C1445 C1442 1.409 1_565 S
C1445 C1443 1.415 1_565 S
C1446 H1436 0.930 . S
C1446 C1444 1.419 1_565 S
C1446 C1447 1.362 . S
C1447 H1437 0.930 . S
C1447 C1440 1.409 . S
C1447 C1446 1.362 . S
H1448 C1454 0.930 . S
H1449 C1457 0.930 . S
H1450 C1458 0.930 . S
H1451 C1459 0.930 . S
H1452 C1462 0.930 . S
H1453 C1463 0.930 . S
C1454 H1448 0.930 . S
C1454 C1455 1.355 . S
C1454 C1456 1.415 . S
C1455 C1454 1.355 . S
C1455 C1457 1.419 1_556 S
C1456 C1454 1.415 . S
C1456 C1461 1.425 1_556 S
C1456 C1463 1.409 . S
C1457 H1449 0.930 . S
C1457 C1455 1.419 1_554 S
C1457 C1458 1.362 . S
C1458 H1450 0.930 . S
C1458 C1457 1.362 . S
C1458 C1461 1.409 . S
C1459 H1451 0.930 . S
C1459 C1460 1.355 . S
C1459 C1461 1.415 . S
C1460 C1459 1.355 . S
C1460 C1462 1.419 1_554 S
C1461 C1456 1.425 1_554 S
C1461 C1458 1.409 . S
C1461 C1459 1.415 . S
C1462 H1452 0.930 . S
C1462 C1460 1.419 1_556 S
C1462 C1463 1.362 . S
C1463 H1453 0.930 . S
C1463 C1456 1.409 . S
C1463 C1462 1.362 . S
H1464 C1470 0.930 . S
H1465 C1473 0.930 . S
H1466 C1474 0.930 . S
H1467 C1475 0.930 . S
H1468 C1478 0.930 . S
H1469 C1479 0.930 . S
C1470 H1464 0.930 . S
C1470 C1471 1.355 . S
C1470 C1472 1.415 . S
C1471 C1470 1.355 . S
C1471 C1473 1.419 . S
C1472 C1470 1.415 . S
C1472 C1477 1.425 . S
C1472 C1479 1.409 . S
C1473 H1465 0.930 . S
C1473 C1471 1.419 . S
C1473 C1474 1.362 . S
C1474 H1466 0.930 . S
C1474 C1473 1.362 . S
C1474 C1477 1.409 . S
C1475 H1467 0.930 . S
C1475 C1476 1.355 . S
C1475 C1477 1.415 . S
C1476 C1475 1.355 . S
C1476 C1478 1.419 . S
C1477 C1472 1.425 . S
C1477 C1474 1.409 . S
C1477 C1475 1.415 . S
C1478 H1468 0.930 . S
C1478 C1476 1.419 . S
C1478 C1479 1.362 . S
C1479 H1469 0.930 . S
C1479 C1472 1.409 . S
C1479 C1478 1.362 . S
H1480 C1486 0.930 . S
H1481 C1489 0.930 . S
H1482 C1490 0.930 . S
H1483 C1491 0.930 . S
H1484 C1494 0.930 . S
H1485 C1495 0.930 . S
C1486 H1480 0.930 . S
C1486 C1487 1.355 . S
C1486 C1488 1.415 . S
C1487 C1486 1.355 . S
C1487 C1489 1.419 . S
C1488 C1486 1.415 . S
C1488 C1493 1.425 . S
C1488 C1495 1.409 . S
C1489 H1481 0.930 . S
C1489 C1487 1.419 . S
C1489 C1490 1.362 . S
C1490 H1482 0.930 . S
C1490 C1489 1.362 . S
C1490 C1493 1.409 . S
C1491 H1483 0.930 . S
C1491 C1492 1.355 . S
C1491 C1493 1.415 . S
C1492 C1491 1.355 . S
C1492 C1494 1.419 . S
C1493 C1488 1.425 . S
C1493 C1490 1.409 . S
C1493 C1491 1.415 . S
C1494 H1484 0.930 . S
C1494 C1492 1.419 . S
C1494 C1495 1.362 . S
C1495 H1485 0.930 . S
C1495 C1488 1.409 . S
C1495 C1494 1.362 . S
H1496 C1502 0.930 . S
H1497 C1505 0.914 1_545 S
H1498 C1506 0.930 . S
H1499 C1507 0.930 . S
H1500 C1510 0.930 . S
H1501 C1511 0.930 . S
C1502 H1496 0.930 . S
C1502 C1503 1.345 1_565 S
C1502 C1504 1.415 . S
C1503 C1502 1.345 1_545 S
C1503 C1505 1.413 1_545 S
C1504 C1502 1.415 . S
C1504 C1509 1.425 . S
C1504 C1511 1.409 . S
C1505 H1497 0.914 1_565 S
C1505 C1503 1.413 1_565 S
C1505 C1506 1.362 . S
C1506 H1498 0.930 . S
C1506 C1505 1.362 . S
C1506 C1509 1.409 . S
C1507 H1499 0.930 . S
C1507 C1508 1.355 . S
C1507 C1509 1.415 . S
C1508 C1507 1.355 . S
C1508 C1510 1.419 . S
C1509 C1504 1.425 . S
C1509 C1506 1.409 . S
C1509 C1507 1.415 . S
C1510 H1500 0.930 . S
C1510 C1508 1.419 . S
C1510 C1511 1.362 . S
C1511 H1501 0.930 . S
C1511 C1504 1.409 . S
C1511 C1510 1.362 . S
H1512 C1518 0.930 . S
H1513 C1521 0.930 . S
H1514 C1522 0.930 . S
H1515 C1523 0.930 . S
H1516 C1526 0.930 . S
H1517 C1527 0.930 . S
C1518 H1512 0.930 . S
C1518 C1519 1.355 . S
C1518 C1520 1.415 . S
C1519 C1518 1.355 . S
C1519 C1521 1.419 . S
C1520 C1518 1.415 . S
C1520 C1525 1.425 . S
C1520 C1527 1.409 . S
C1521 H1513 0.930 . S
C1521 C1519 1.419 . S
C1521 C1522 1.362 . S
C1522 H1514 0.930 . S
C1522 C1521 1.362 . S
C1522 C1525 1.409 . S
C1523 H1515 0.930 . S
C1523 C1524 1.355 . S
C1523 C1525 1.415 . S
C1524 C1523 1.355 . S
C1524 C1526 1.419 . S
C1525 C1520 1.425 . S
C1525 C1522 1.409 . S
C1525 C1523 1.415 . S
C1526 H1516 0.930 . S
C1526 C1524 1.419 . S
C1526 C1527 1.362 . S
C1527 H1517 0.930 . S
C1527 C1520 1.409 . S
C1527 C1526 1.362 . S
H1528 C1534 0.930 . S
H1529 C1537 0.930 . S
H1530 C1538 0.930 . S
H1531 C1539 0.930 . S
H1532 C1542 0.930 . S
H1533 C1543 0.930 . S
C1534 H1528 0.930 . S
C1534 C1535 1.355 . S
C1534 C1536 1.415 . S
C1535 C1534 1.355 . S
C1535 C1537 1.419 . S
C1536 C1534 1.415 . S
C1536 C1541 1.425 . S
C1536 C1543 1.409 . S
C1537 H1529 0.930 . S
C1537 C1535 1.419 . S
C1537 C1538 1.362 . S
C1538 H1530 0.930 . S
C1538 C1537 1.362 . S
C1538 C1541 1.409 . S
C1539 H1531 0.930 . S
C1539 C1540 1.355 . S
C1539 C1541 1.415 . S
C1540 C1539 1.355 . S
C1540 C1542 1.419 . S
C1541 C1536 1.425 . S
C1541 C1538 1.409 . S
C1541 C1539 1.415 . S
C1542 H1532 0.930 . S
C1542 C1540 1.419 . S
C1542 C1543 1.362 . S
C1543 H1533 0.930 . S
C1543 C1536 1.409 . S
C1543 C1542 1.362 . S
H1544 C1550 0.930 . S
H1545 C1553 0.930 . S
H1546 C1554 0.930 . S
H1547 C1555 0.930 . S
H1548 C1558 0.930 . S
H1549 C1559 0.930 . S
C1550 H1544 0.930 . S
C1550 C1551 1.355 . S
C1550 C1552 1.415 . S
C1551 C1550 1.355 . S
C1551 C1553 1.419 . S
C1552 C1550 1.415 . S
C1552 C1557 1.425 . S
C1552 C1559 1.409 . S
C1553 H1545 0.930 . S
C1553 C1551 1.419 . S
C1553 C1554 1.362 . S
C1554 H1546 0.930 . S
C1554 C1553 1.362 . S
C1554 C1557 1.409 . S
C1555 H1547 0.930 . S
C1555 C1556 1.355 . S
C1555 C1557 1.415 . S
C1556 C1555 1.355 . S
C1556 C1558 1.419 . S
C1557 C1552 1.425 . S
C1557 C1554 1.409 . S
C1557 C1555 1.415 . S
C1558 H1548 0.930 . S
C1558 C1556 1.419 . S
C1558 C1559 1.362 . S
C1559 H1549 0.930 . S
C1559 C1552 1.409 . S
C1559 C1558 1.362 . S
H1560 C1566 0.930 . S
H1561 C1569 0.930 . S
H1562 C1570 0.930 . S
H1563 C1571 0.930 . S
H1564 C1574 0.930 . S
H1565 C1575 0.930 . S
C1566 H1560 0.930 . S
C1566 C1567 1.355 . S
C1566 C1568 1.415 . S
C1567 C1566 1.355 . S
C1567 C1569 1.419 . S
C1568 C1566 1.415 . S
C1568 C1573 1.425 . S
C1568 C1575 1.409 . S
C1569 H1561 0.930 . S
C1569 C1567 1.419 . S
C1569 C1570 1.362 . S
C1570 H1562 0.930 . S
C1570 C1569 1.362 . S
C1570 C1573 1.409 . S
C1571 H1563 0.930 . S
C1571 C1572 1.355 . S
C1571 C1573 1.415 . S
C1572 C1571 1.355 . S
C1572 C1574 1.419 . S
C1573 C1568 1.425 . S
C1573 C1570 1.409 . S
C1573 C1571 1.415 . S
C1574 H1564 0.930 . S
C1574 C1572 1.419 . S
C1574 C1575 1.362 . S
C1575 H1565 0.930 . S
C1575 C1568 1.409 . S
C1575 C1574 1.362 . S
H1576 C1582 0.930 . S
H1577 C1585 0.930 . S
H1578 C1586 0.930 . S
H1579 C1587 0.930 . S
H1580 C1590 0.930 . S
H1581 C1591 0.930 . S
C1582 H1576 0.930 . S
C1582 C1583 1.355 . S
C1582 C1584 1.415 . S
C1583 C1582 1.355 . S
C1583 C1585 1.419 . S
C1584 C1582 1.415 . S
C1584 C1589 1.425 . S
C1584 C1591 1.409 . S
C1585 H1577 0.930 . S
C1585 C1583 1.419 . S
C1585 C1586 1.362 . S
C1586 H1578 0.930 . S
C1586 C1585 1.362 . S
C1586 C1589 1.409 . S
C1587 H1579 0.930 . S
C1587 C1588 1.355 . S
C1587 C1589 1.415 . S
C1588 C1587 1.355 . S
C1588 C1590 1.419 . S
C1589 C1584 1.425 . S
C1589 C1586 1.409 . S
C1589 C1587 1.415 . S
C1590 H1580 0.930 . S
C1590 C1588 1.419 . S
C1590 C1591 1.362 . S
C1591 H1581 0.930 . S
C1591 C1584 1.409 . S
C1591 C1590 1.362 . S
H1592 C1598 0.906 1_655 S
H1593 C1601 0.930 . S
H1594 C1602 0.930 . S
H1595 C1603 0.930 . S
H1596 C1606 0.930 1_655 S
H1597 C1607 0.930 1_655 S
C1598 H1592 0.906 1_455 S
C1598 C1599 1.355 . S
C1598 C1600 1.415 . S
C1599 C1598 1.355 . S
C1599 C1601 1.419 . S
C1600 C1598 1.415 . S
C1600 C1605 1.425 . S
C1600 C1607 1.409 . S
C1601 H1593 0.930 . S
C1601 C1599 1.419 . S
C1601 C1602 1.362 . S
C1602 H1594 0.930 . S
C1602 C1601 1.362 . S
C1602 C1605 1.409 . S
C1603 H1595 0.930 . S
C1603 C1604 1.355 . S
C1603 C1605 1.415 . S
C1604 C1603 1.355 . S
C1604 C1606 1.419 . S
C1605 C1600 1.425 . S
C1605 C1602 1.409 . S
C1605 C1603 1.415 . S
C1606 H1596 0.930 1_455 S
C1606 C1604 1.419 . S
C1606 C1607 1.362 . S
C1607 H1597 0.930 1_455 S
C1607 C1600 1.409 . S
C1607 C1606 1.362 . S
H1608 C1614 0.930 . S
H1609 C1617 0.930 . S
H1610 C1618 0.930 . S
H1611 C1619 0.930 . S
H1612 C1622 0.930 . S
H1613 C1623 0.930 . S
C1614 H1608 0.930 . S
C1614 C1615 1.355 . S
C1614 C1616 1.415 . S
C1615 C1614 1.355 . S
C1615 C1617 1.419 . S
C1616 C1614 1.415 . S
C1616 C1621 1.425 . S
C1616 C1623 1.409 . S
C1617 H1609 0.930 . S
C1617 C1615 1.419 . S
C1617 C1618 1.362 . S
C1618 H1610 0.930 . S
C1618 C1617 1.362 . S
C1618 C1621 1.409 . S
C1619 H1611 0.930 . S
C1619 C1620 1.355 . S
C1619 C1621 1.415 . S
C1620 C1619 1.355 . S
C1620 C1622 1.419 . S
C1621 C1616 1.425 . S
C1621 C1618 1.409 . S
C1621 C1619 1.415 . S
C1622 H1612 0.930 . S
C1622 C1620 1.419 . S
C1622 C1623 1.362 . S
C1623 H1613 0.930 . S
C1623 C1616 1.409 . S
C1623 C1622 1.362 . S
H1624 C1630 0.930 . S
H1625 C1633 0.930 . S
H1626 C1634 0.930 . S
H1627 C1635 0.930 . S
H1628 C1638 0.936 . S
H1629 C1639 0.930 . S
C1630 H1624 0.930 . S
C1630 C1631 1.355 . S
C1630 C1632 1.415 . S
C1631 C1630 1.355 . S
C1631 C1633 1.419 . S
C1632 C1630 1.415 . S
C1632 C1637 1.425 . S
C1632 C1639 1.409 . S
C1633 H1625 0.930 . S
C1633 C1631 1.419 . S
C1633 C1634 1.362 . S
C1634 H1626 0.930 . S
C1634 C1633 1.362 . S
C1634 C1637 1.409 . S
C1635 H1627 0.930 . S
C1635 C1636 1.355 . S
C1635 C1637 1.415 . S
C1636 C1635 1.355 . S
C1636 C1638 1.416 1_556 S
C1637 C1632 1.425 . S
C1637 C1634 1.409 . S
C1637 C1635 1.415 . S
C1638 H1628 0.936 . S
C1638 C1636 1.416 1_554 S
C1638 C1639 1.360 1_554 S
C1639 H1629 0.930 . S
C1639 C1632 1.409 . S
C1639 C1638 1.360 1_556 S
H1640 C1646 0.930 . S
H1641 C1649 0.930 . S
H1642 C1650 0.930 . S
H1643 C1651 0.930 . S
H1644 C1654 0.930 . S
H1645 C1655 0.930 . S
C1646 H1640 0.930 . S
C1646 C1647 1.355 . S
C1646 C1648 1.415 . S
C1647 C1646 1.355 . S
C1647 C1649 1.419 . S
C1648 C1646 1.415 . S
C1648 C1653 1.425 . S
C1648 C1655 1.409 . S
C1649 H1641 0.930 . S
C1649 C1647 1.419 . S
C1649 C1650 1.362 . S
C1650 H1642 0.930 . S
C1650 C1649 1.362 . S
C1650 C1653 1.409 . S
C1651 H1643 0.930 . S
C1651 C1652 1.355 . S
C1651 C1653 1.415 . S
C1652 C1651 1.355 . S
C1652 C1654 1.419 . S
C1653 C1648 1.425 . S
C1653 C1650 1.409 . S
C1653 C1651 1.415 . S
C1654 H1644 0.930 . S
C1654 C1652 1.419 . S
C1654 C1655 1.362 . S
C1655 H1645 0.930 . S
C1655 C1648 1.409 . S
C1655 C1654 1.362 . S
H1656 C1662 0.930 . S
H1657 C1665 0.930 . S
H1658 C1666 0.930 . S
H1659 C1667 0.930 . S
H1660 C1670 0.930 1_655 S
H1661 C1671 0.930 1_655 S
C1662 H1656 0.930 . S
C1662 C1663 1.355 . S
C1662 C1664 1.415 . S
C1663 C1662 1.355 . S
C1663 C1665 1.419 . S
C1664 C1662 1.415 . S
C1664 C1669 1.425 . S
C1664 C1671 1.409 . S
C1665 H1657 0.930 . S
C1665 C1663 1.419 . S
C1665 C1666 1.362 . S
C1666 H1658 0.930 . S
C1666 C1665 1.362 . S
C1666 C1669 1.409 . S
C1667 H1659 0.930 . S
C1667 C1668 1.355 . S
C1667 C1669 1.415 . S
C1668 C1667 1.355 . S
C1668 C1670 1.419 . S
C1669 C1664 1.425 . S
C1669 C1666 1.409 . S
C1669 C1667 1.415 . S
C1670 H1660 0.930 1_455 S
C1670 C1668 1.419 . S
C1670 C1671 1.362 . S
C1671 H1661 0.930 1_455 S
C1671 C1664 1.409 . S
C1671 C1670 1.362 . S
H1672 C1678 0.930 . S
H1673 C1681 0.930 . S
H1674 C1682 0.930 . S
H1675 C1683 0.930 . S
H1676 C1686 0.930 . S
H1677 C1687 0.930 . S
C1678 H1672 0.930 . S
C1678 C1679 1.355 . S
C1678 C1680 1.415 . S
C1679 C1678 1.355 . S
C1679 C1681 1.419 . S
C1680 C1678 1.415 . S
C1680 C1685 1.425 . S
C1680 C1687 1.409 . S
C1681 H1673 0.930 . S
C1681 C1679 1.419 . S
C1681 C1682 1.362 . S
C1682 H1674 0.930 . S
C1682 C1681 1.362 . S
C1682 C1685 1.409 . S
C1683 H1675 0.930 . S
C1683 C1684 1.355 . S
C1683 C1685 1.415 . S
C1684 C1683 1.355 . S
C1684 C1686 1.419 . S
C1685 C1680 1.425 . S
C1685 C1682 1.409 . S
C1685 C1683 1.415 . S
C1686 H1676 0.930 . S
C1686 C1684 1.419 . S
C1686 C1687 1.362 . S
C1687 H1677 0.930 . S
C1687 C1680 1.409 . S
C1687 C1686 1.362 . S
H1688 C1694 0.930 . S
H1689 C1697 0.930 . S
H1690 C1698 0.930 . S
H1691 C1699 0.930 . S
H1692 C1702 0.930 . S
H1693 C1703 0.930 . S
C1694 H1688 0.930 . S
C1694 C1695 1.355 . S
C1694 C1696 1.415 . S
C1695 C1694 1.355 . S
C1695 C1697 1.419 . S
C1696 C1694 1.415 . S
C1696 C1701 1.425 . S
C1696 C1703 1.409 . S
C1697 H1689 0.930 . S
C1697 C1695 1.419 . S
C1697 C1698 1.362 . S
C1698 H1690 0.930 . S
C1698 C1697 1.362 . S
C1698 C1701 1.409 . S
C1699 H1691 0.930 . S
C1699 C1700 1.355 . S
C1699 C1701 1.415 . S
C1700 C1699 1.355 . S
C1700 C1702 1.419 . S
C1701 C1696 1.425 . S
C1701 C1698 1.409 . S
C1701 C1699 1.415 . S
C1702 H1692 0.930 . S
C1702 C1700 1.419 . S
C1702 C1703 1.362 . S
C1703 H1693 0.930 . S
C1703 C1696 1.409 . S
C1703 C1702 1.362 . S
H1704 C1710 0.930 . S
H1705 C1713 0.930 . S
H1706 C1714 0.930 . S
H1707 C1715 0.930 . S
H1708 C1718 0.930 . S
H1709 C1719 0.930 . S
C1710 H1704 0.930 . S
C1710 C1711 1.356 . S
C1710 C1712 1.415 . S
C1711 C1710 1.356 . S
C1711 C1713 1.419 1_556 S
C1712 C1710 1.415 . S
C1712 C1717 1.425 . S
C1712 C1719 1.409 . S
C1713 H1705 0.930 . S
C1713 C1711 1.419 1_554 S
C1713 C1714 1.362 1_554 S
C1714 H1706 0.930 . S
C1714 C1713 1.362 1_556 S
C1714 C1717 1.409 . S
C1715 H1707 0.930 . S
C1715 C1716 1.355 . S
C1715 C1717 1.415 . S
C1716 C1715 1.355 . S
C1716 C1718 1.419 . S
C1717 C1712 1.425 . S
C1717 C1714 1.409 . S
C1717 C1715 1.415 . S
C1718 H1708 0.930 . S
C1718 C1716 1.419 . S
C1718 C1719 1.362 . S
C1719 H1709 0.930 . S
C1719 C1712 1.409 . S
C1719 C1718 1.362 . S
H1720 C1726 0.930 . S
H1721 C1729 0.930 . S
H1722 C1730 0.930 . S
H1723 C1731 0.930 . S
H1724 C1734 0.930 . S
H1725 C1735 0.930 . S
C1726 H1720 0.930 . S
C1726 C1727 1.355 . S
C1726 C1728 1.415 . S
C1727 C1726 1.355 . S
C1727 C1729 1.419 . S
C1728 C1726 1.415 . S
C1728 C1733 1.425 . S
C1728 C1735 1.409 1_655 S
C1729 H1721 0.930 . S
C1729 C1727 1.419 . S
C1729 C1730 1.362 . S
C1730 H1722 0.930 . S
C1730 C1729 1.362 . S
C1730 C1733 1.409 . S
C1731 H1723 0.930 . S
C1731 C1732 1.385 . S
C1731 C1733 1.415 . S
C1732 C1731 1.385 . S
C1732 C1734 1.399 1_655 S
C1733 C1728 1.425 . S
C1733 C1730 1.409 . S
C1733 C1731 1.415 . S
C1734 H1724 0.930 . S
C1734 C1732 1.399 1_455 S
C1734 C1735 1.362 . S
C1735 H1725 0.930 . S
C1735 C1728 1.409 1_455 S
C1735 C1734 1.362 . S
H1736 C1742 0.930 . S
H1737 C1745 0.930 . S
H1738 C1746 0.930 . S
H1739 C1747 0.930 . S
H1740 C1750 0.930 . S
H1741 C1751 0.930 . S
C1742 H1736 0.930 . S
C1742 C1743 1.355 . S
C1742 C1744 1.415 . S
C1743 C1742 1.355 . S
C1743 C1745 1.419 . S
C1744 C1742 1.415 . S
C1744 C1749 1.425 . S
C1744 C1751 1.409 . S
C1745 H1737 0.930 . S
C1745 C1743 1.419 . S
C1745 C1746 1.362 . S
C1746 H1738 0.930 . S
C1746 C1745 1.362 . S
C1746 C1749 1.409 . S
C1747 H1739 0.930 . S
C1747 C1748 1.355 . S
C1747 C1749 1.415 . S
C1748 C1747 1.355 . S
C1748 C1750 1.419 . S
C1749 C1744 1.425 . S
C1749 C1746 1.409 . S
C1749 C1747 1.415 . S
C1750 H1740 0.930 . S
C1750 C1748 1.419 . S
C1750 C1751 1.362 . S
C1751 H1741 0.930 . S
C1751 C1744 1.409 . S
C1751 C1750 1.362 . S
H1752 C1758 0.930 . S
H1753 C1761 0.930 . S
H1754 C1762 0.930 . S
H1755 C1763 0.930 . S
H1756 C1766 0.930 . S
H1757 C1767 0.930 . S
C1758 H1752 0.930 . S
C1758 C1759 1.355 . S
C1758 C1760 1.415 . S
C1759 C1758 1.355 . S
C1759 C1761 1.419 . S
C1760 C1758 1.415 . S
C1760 C1765 1.425 . S
C1760 C1767 1.409 . S
C1761 H1753 0.930 . S
C1761 C1759 1.419 . S
C1761 C1762 1.362 . S
C1762 H1754 0.930 . S
C1762 C1761 1.362 . S
C1762 C1765 1.409 . S
C1763 H1755 0.930 . S
C1763 C1764 1.355 . S
C1763 C1765 1.415 . S
C1764 C1763 1.355 . S
C1764 C1766 1.419 . S
C1765 C1760 1.425 . S
C1765 C1762 1.409 . S
C1765 C1763 1.415 . S
C1766 H1756 0.930 . S
C1766 C1764 1.419 . S
C1766 C1767 1.362 . S
C1767 H1757 0.930 . S
C1767 C1760 1.409 . S
C1767 C1766 1.362 . S
H1768 C1774 0.930 . S
H1769 C1777 0.930 . S
H1770 C1778 0.930 . S
H1771 C1779 0.930 . S
H1772 C1782 0.930 . S
H1773 C1783 0.930 . S
C1774 H1768 0.930 . S
C1774 C1775 1.355 . S
C1774 C1776 1.415 . S
C1775 C1774 1.355 . S
C1775 C1777 1.419 . S
C1776 C1774 1.415 . S
C1776 C1781 1.425 . S
C1776 C1783 1.409 . S
C1777 H1769 0.930 . S
C1777 C1775 1.419 . S
C1777 C1778 1.362 . S
C1778 H1770 0.930 . S
C1778 C1777 1.362 . S
C1778 C1781 1.409 . S
C1779 H1771 0.930 . S
C1779 C1780 1.355 . S
C1779 C1781 1.415 . S
C1780 C1779 1.355 . S
C1780 C1782 1.419 . S
C1781 C1776 1.425 . S
C1781 C1778 1.409 . S
C1781 C1779 1.415 . S
C1782 H1772 0.930 . S
C1782 C1780 1.419 . S
C1782 C1783 1.362 . S
C1783 H1773 0.930 . S
C1783 C1776 1.409 . S
C1783 C1782 1.362 . S
H1784 C1790 0.930 . S
H1785 C1793 0.930 . S
H1786 C1794 0.930 . S
H1787 C1795 0.930 1_455 S
H1788 C1798 0.930 . S
H1789 C1799 0.930 . S
C1790 H1784 0.930 . S
C1790 C1791 1.355 . S
C1790 C1792 1.415 . S
C1791 C1790 1.355 . S
C1791 C1793 1.419 . S
C1792 C1790 1.415 . S
C1792 C1797 1.425 . S
C1792 C1799 1.409 . S
C1793 H1785 0.930 . S
C1793 C1791 1.419 . S
C1793 C1794 1.362 . S
C1794 H1786 0.930 . S
C1794 C1793 1.362 . S
C1794 C1797 1.409 . S
C1795 H1787 0.930 1_655 S
C1795 C1796 1.355 . S
C1795 C1797 1.415 . S
C1796 C1795 1.355 . S
C1796 C1798 1.419 . S
C1797 C1792 1.425 . S
C1797 C1794 1.409 . S
C1797 C1795 1.415 . S
C1798 H1788 0.930 . S
C1798 C1796 1.419 . S
C1798 C1799 1.362 . S
C1799 H1789 0.930 . S
C1799 C1792 1.409 . S
C1799 C1798 1.362 . S
H1800 C1806 0.930 . S
H1801 C1809 0.930 . S
H1802 C1810 0.930 . S
H1803 C1811 0.930 . S
H1804 C1814 0.930 . S
H1805 C1815 0.930 . S
C1806 H1800 0.930 . S
C1806 C1807 1.355 . S
C1806 C1808 1.415 . S
C1807 C1806 1.355 . S
C1807 C1809 1.419 . S
C1808 C1806 1.415 . S
C1808 C1813 1.425 . S
C1808 C1815 1.409 . S
C1809 H1801 0.930 . S
C1809 C1807 1.419 . S
C1809 C1810 1.362 . S
C1810 H1802 0.930 . S
C1810 C1809 1.362 . S
C1810 C1813 1.409 . S
C1811 H1803 0.930 . S
C1811 C1812 1.355 . S
C1811 C1813 1.415 . S
C1812 C1811 1.355 . S
C1812 C1814 1.419 . S
C1813 C1808 1.425 . S
C1813 C1810 1.409 . S
C1813 C1811 1.415 . S
C1814 H1804 0.930 . S
C1814 C1812 1.419 . S
C1814 C1815 1.362 . S
C1815 H1805 0.930 . S
C1815 C1808 1.409 . S
C1815 C1814 1.362 . S
H1816 C1822 0.930 . S
H1817 C1825 0.930 . S
H1818 C1826 0.930 . S
H1819 C1827 0.930 . S
H1820 C1830 0.930 . S
H1821 C1831 0.930 . S
C1822 H1816 0.930 . S
C1822 C1823 1.355 . S
C1822 C1824 1.415 . S
C1823 C1822 1.355 . S
C1823 C1825 1.419 . S
C1824 C1822 1.415 . S
C1824 C1829 1.425 . S
C1824 C1831 1.409 . S
C1825 H1817 0.930 . S
C1825 C1823 1.419 . S
C1825 C1826 1.362 . S
C1826 H1818 0.930 . S
C1826 C1825 1.362 . S
C1826 C1829 1.409 . S
C1827 H1819 0.930 . S
C1827 C1828 1.355 . S
C1827 C1829 1.415 . S
C1828 C1827 1.355 . S
C1828 C1830 1.419 . S
C1829 C1824 1.425 . S
C1829 C1826 1.409 . S
C1829 C1827 1.415 . S
C1830 H1820 0.930 . S
C1830 C1828 1.419 . S
C1830 C1831 1.362 . S
C1831 H1821 0.930 . S
C1831 C1824 1.409 . S
C1831 C1830 1.362 . S
H1832 C1838 0.930 . S
H1833 C1841 0.930 . S
H1834 C1842 0.930 . S
H1835 C1843 0.930 . S
H1836 C1846 0.930 . S
H1837 C1847 0.930 . S
C1838 H1832 0.930 . S
C1838 C1839 1.355 . S
C1838 C1840 1.415 . S
C1839 C1838 1.355 . S
C1839 C1841 1.419 . S
C1840 C1838 1.415 . S
C1840 C1845 1.425 . S
C1840 C1847 1.409 1_565 S
C1841 H1833 0.930 . S
C1841 C1839 1.419 . S
C1841 C1842 1.362 . S
C1842 H1834 0.930 . S
C1842 C1841 1.362 . S
C1842 C1845 1.409 . S
C1843 H1835 0.930 . S
C1843 C1844 1.355 1_565 S
C1843 C1845 1.415 . S
C1844 C1843 1.355 1_545 S
C1844 C1846 1.419 . S
C1845 C1840 1.425 . S
C1845 C1842 1.409 . S
C1845 C1843 1.415 . S
C1846 H1836 0.930 . S
C1846 C1844 1.419 . S
C1846 C1847 1.362 . S
C1847 H1837 0.930 . S
C1847 C1840 1.409 1_545 S
C1847 C1846 1.362 . S
H1848 C1854 0.930 . S
H1849 C1857 0.930 1_545 S
H1850 C1858 0.930 . S
H1851 C1859 0.930 . S
H1852 C1862 0.930 . S
H1853 C1863 0.930 . S
C1854 H1848 0.930 . S
C1854 C1855 1.355 . S
C1854 C1856 1.415 . S
C1855 C1854 1.355 . S
C1855 C1857 1.419 . S
C1856 C1854 1.415 . S
C1856 C1861 1.425 . S
C1856 C1863 1.409 . S
C1857 H1849 0.930 1_565 S
C1857 C1855 1.419 . S
C1857 C1858 1.362 . S
C1858 H1850 0.930 . S
C1858 C1857 1.362 . S
C1858 C1861 1.409 . S
C1859 H1851 0.930 . S
C1859 C1860 1.355 . S
C1859 C1861 1.415 . S
C1860 C1859 1.355 . S
C1860 C1862 1.419 . S
C1861 C1856 1.425 . S
C1861 C1858 1.409 . S
C1861 C1859 1.415 . S
C1862 H1852 0.930 . S
C1862 C1860 1.419 . S
C1862 C1863 1.362 . S
C1863 H1853 0.930 . S
C1863 C1856 1.409 . S
C1863 C1862 1.362 . S
H1864 C1870 0.930 . S
H1865 C1873 0.930 . S
H1866 C1874 0.930 . S
H1867 C1875 0.930 . S
H1868 C1878 0.930 . S
H1869 C1879 0.930 . S
C1870 H1864 0.930 . S
C1870 C1871 1.355 . S
C1870 C1872 1.415 . S
C1871 C1870 1.355 . S
C1871 C1873 1.419 . S
C1872 C1870 1.415 . S
C1872 C1877 1.425 . S
C1872 C1879 1.409 . S
C1873 H1865 0.930 . S
C1873 C1871 1.419 . S
C1873 C1874 1.362 . S
C1874 H1866 0.930 . S
C1874 C1873 1.362 . S
C1874 C1877 1.409 . S
C1875 H1867 0.930 . S
C1875 C1876 1.355 . S
C1875 C1877 1.415 . S
C1876 C1875 1.355 . S
C1876 C1878 1.419 . S
C1877 C1872 1.425 . S
C1877 C1874 1.409 . S
C1877 C1875 1.415 . S
C1878 H1868 0.930 . S
C1878 C1876 1.419 . S
C1878 C1879 1.362 . S
C1879 H1869 0.930 . S
C1879 C1872 1.409 . S
C1879 C1878 1.362 . S
H1880 C1886 0.930 . S
H1881 C1889 0.930 . S
H1882 C1890 0.930 . S
H1883 C1891 0.930 . S
H1884 C1894 0.930 . S
H1885 C1895 0.930 . S
C1886 H1880 0.930 . S
C1886 C1887 1.355 . S
C1886 C1888 1.415 . S
C1887 C1886 1.355 . S
C1887 C1889 1.419 . S
C1888 C1886 1.415 . S
C1888 C1893 1.425 . S
C1888 C1895 1.409 . S
C1889 H1881 0.930 . S
C1889 C1887 1.419 . S
C1889 C1890 1.362 . S
C1890 H1882 0.930 . S
C1890 C1889 1.362 . S
C1890 C1893 1.409 . S
C1891 H1883 0.930 . S
C1891 C1892 1.355 . S
C1891 C1893 1.415 . S
C1892 C1891 1.355 . S
C1892 C1894 1.419 . S
C1893 C1888 1.425 . S
C1893 C1890 1.409 . S
C1893 C1891 1.415 . S
C1894 H1884 0.930 . S
C1894 C1892 1.419 . S
C1894 C1895 1.362 . S
C1895 H1885 0.930 . S
C1895 C1888 1.409 . S
C1895 C1894 1.362 . S
H1896 C1902 0.930 . S
H1897 C1905 0.930 . S
H1898 C1906 0.930 . S
H1899 C1907 0.930 1_556 S
H1900 C1910 0.930 . S
H1901 C1911 0.930 . S
C1902 H1896 0.930 . S
C1902 C1903 1.355 . S
C1902 C1904 1.415 . S
C1903 C1902 1.355 . S
C1903 C1905 1.419 . S
C1904 C1902 1.415 . S
C1904 C1909 1.425 . S
C1904 C1911 1.409 . S
C1905 H1897 0.930 . S
C1905 C1903 1.419 . S
C1905 C1906 1.362 . S
C1906 H1898 0.930 . S
C1906 C1905 1.362 . S
C1906 C1909 1.409 . S
C1907 H1899 0.930 1_554 S
C1907 C1908 1.355 . S
C1907 C1909 1.415 . S
C1908 C1907 1.355 . S
C1908 C1910 1.419 . S
C1909 C1904 1.425 . S
C1909 C1906 1.409 . S
C1909 C1907 1.415 . S
C1910 H1900 0.930 . S
C1910 C1908 1.419 . S
C1910 C1911 1.362 . S
C1911 H1901 0.930 . S
C1911 C1904 1.409 . S
C1911 C1910 1.362 . S
H1912 C1918 0.930 . S
H1913 C1921 0.930 . S
H1914 C1922 0.930 . S
H1915 C1923 0.930 . S
H1916 C1926 0.930 . S
H1917 C1927 0.930 . S
C1918 H1912 0.930 . S
C1918 C1919 1.355 . S
C1918 C1920 1.415 . S
C1919 C1918 1.355 . S
C1919 C1921 1.419 . S
C1920 C1918 1.415 . S
C1920 C1925 1.425 . S
C1920 C1927 1.409 . S
C1921 H1913 0.930 . S
C1921 C1919 1.419 . S
C1921 C1922 1.362 . S
C1922 H1914 0.930 . S
C1922 C1921 1.362 . S
C1922 C1925 1.409 . S
C1923 H1915 0.930 . S
C1923 C1924 1.355 . S
C1923 C1925 1.415 . S
C1924 C1923 1.355 . S
C1924 C1926 1.419 . S
C1925 C1920 1.425 . S
C1925 C1922 1.409 . S
C1925 C1923 1.415 . S
C1926 H1916 0.930 . S
C1926 C1924 1.419 . S
C1926 C1927 1.362 . S
C1927 H1917 0.930 . S
C1927 C1920 1.409 . S
C1927 C1926 1.362 . S
H1928 C1934 0.930 . S
H1929 C1937 0.930 . S
H1930 C1938 0.930 . S
H1931 C1939 0.930 . S
H1932 C1942 0.930 . S
H1933 C1943 0.930 . S
C1934 H1928 0.930 . S
C1934 C1935 1.355 . S
C1934 C1936 1.415 . S
C1935 C1934 1.355 . S
C1935 C1937 1.419 . S
C1936 C1934 1.415 . S
C1936 C1941 1.425 . S
C1936 C1943 1.409 . S
C1937 H1929 0.930 . S
C1937 C1935 1.419 . S
C1937 C1938 1.362 . S
C1938 H1930 0.930 . S
C1938 C1937 1.362 . S
C1938 C1941 1.409 . S
C1939 H1931 0.930 . S
C1939 C1940 1.355 . S
C1939 C1941 1.415 . S
C1940 C1939 1.355 . S
C1940 C1942 1.419 . S
C1941 C1936 1.425 . S
C1941 C1938 1.409 . S
C1941 C1939 1.415 . S
C1942 H1932 0.930 . S
C1942 C1940 1.419 . S
C1942 C1943 1.362 . S
C1943 H1933 0.930 . S
C1943 C1936 1.409 . S
C1943 C1942 1.362 . S
H1944 C1950 0.930 . S
H1945 C1953 0.930 . S
H1946 C1954 0.930 . S
H1947 C1955 0.930 . S
H1948 C1958 0.930 . S
H1949 C1959 0.930 . S
C1950 H1944 0.930 . S
C1950 C1951 1.355 . S
C1950 C1952 1.415 . S
C1951 C1950 1.355 . S
C1951 C1953 1.419 . S
C1952 C1950 1.415 . S
C1952 C1957 1.425 . S
C1952 C1959 1.409 . S
C1953 H1945 0.930 . S
C1953 C1951 1.419 . S
C1953 C1954 1.362 . S
C1954 H1946 0.930 . S
C1954 C1953 1.362 . S
C1954 C1957 1.409 . S
C1955 H1947 0.930 . S
C1955 C1956 1.355 . S
C1955 C1957 1.415 . S
C1956 C1955 1.355 . S
C1956 C1958 1.419 . S
C1957 C1952 1.425 . S
C1957 C1954 1.409 . S
C1957 C1955 1.415 . S
C1958 H1948 0.930 . S
C1958 C1956 1.419 . S
C1958 C1959 1.362 . S
C1959 H1949 0.930 . S
C1959 C1952 1.409 . S
C1959 C1958 1.362 . S
H1960 C1966 0.930 . S
H1961 C1969 0.930 . S
H1962 C1970 0.930 . S
H1963 C1971 0.930 . S
H1964 C1974 0.930 . S
H1965 C1975 0.930 . S
C1966 H1960 0.930 . S
C1966 C1967 1.355 . S
C1966 C1968 1.415 . S
C1967 C1966 1.355 . S
C1967 C1969 1.419 . S
C1968 C1966 1.415 . S
C1968 C1973 1.425 . S
C1968 C1975 1.409 . S
C1969 H1961 0.930 . S
C1969 C1967 1.419 . S
C1969 C1970 1.362 . S
C1970 H1962 0.930 . S
C1970 C1969 1.362 . S
C1970 C1973 1.409 . S
C1971 H1963 0.930 . S
C1971 C1972 1.355 . S
C1971 C1973 1.415 . S
C1972 C1971 1.355 . S
C1972 C1974 1.419 . S
C1973 C1968 1.425 . S
C1973 C1970 1.409 . S
C1973 C1971 1.415 . S
C1974 H1964 0.930 . S
C1974 C1972 1.419 . S
C1974 C1975 1.362 . S
C1975 H1965 0.930 . S
C1975 C1968 1.409 . S
C1975 C1974 1.362 . S
H1976 C1982 0.930 . S
H1977 C1985 0.930 . S
H1978 C1986 0.930 . S
H1979 C1987 0.930 . S
H1980 C1990 0.930 . S
H1981 C1991 0.930 . S
C1982 H1976 0.930 . S
C1982 C1983 1.355 . S
C1982 C1984 1.415 . S
C1983 C1982 1.355 . S
C1983 C1985 1.419 1_455 S
C1984 C1982 1.415 . S
C1984 C1989 1.425 . S
C1984 C1991 1.409 . S
C1985 H1977 0.930 . S
C1985 C1983 1.419 1_655 S
C1985 C1986 1.362 . S
C1986 H1978 0.930 . S
C1986 C1985 1.362 . S
C1986 C1989 1.409 1_655 S
C1987 H1979 0.930 . S
C1987 C1988 1.355 1_655 S
C1987 C1989 1.415 1_655 S
C1988 C1987 1.355 1_455 S
C1988 C1990 1.419 1_556 S
C1989 C1984 1.425 . S
C1989 C1986 1.409 1_455 S
C1989 C1987 1.415 1_455 S
C1990 H1980 0.930 . S
C1990 C1988 1.419 1_554 S
C1990 C1991 1.362 1_554 S
C1991 H1981 0.930 . S
C1991 C1984 1.409 . S
C1991 C1990 1.362 1_556 S
H1992 C1998 0.930 . S
H1993 C2001 0.930 . S
H1994 C2002 0.930 . S
H1995 C2003 0.930 . S
H1996 C2006 0.930 . S
H1997 C2007 0.930 . S
C1998 H1992 0.930 . S
C1998 C1999 1.355 . S
C1998 C2000 1.415 . S
C1999 C1998 1.355 . S
C1999 C2001 1.419 . S
C2000 C1998 1.415 . S
C2000 C2005 1.425 . S
C2000 C2007 1.409 . S
C2001 H1993 0.930 . S
C2001 C1999 1.419 . S
C2001 C2002 1.362 . S
C2002 H1994 0.930 . S
C2002 C2001 1.362 . S
C2002 C2005 1.409 . S
C2003 H1995 0.930 . S
C2003 C2004 1.355 . S
C2003 C2005 1.415 . S
C2004 C2003 1.355 . S
C2004 C2006 1.419 . S
C2005 C2000 1.425 . S
C2005 C2002 1.409 . S
C2005 C2003 1.415 . S
C2006 H1996 0.930 . S
C2006 C2004 1.419 . S
C2006 C2007 1.362 . S
C2007 H1997 0.930 . S
C2007 C2000 1.409 . S
C2007 C2006 1.362 . S
H2008 C2014 0.930 . S
H2009 C2017 0.930 . S
H2010 C2018 0.930 . S
H2011 C2019 0.930 . S
H2012 C2022 0.930 . S
H2013 C2023 0.930 . S
C2014 H2008 0.930 . S
C2014 C2015 1.355 . S
C2014 C2016 1.415 . S
C2015 C2014 1.355 . S
C2015 C2017 1.419 . S
C2016 C2014 1.415 . S
C2016 C2021 1.425 . S
C2016 C2023 1.409 . S
C2017 H2009 0.930 . S
C2017 C2015 1.419 . S
C2017 C2018 1.362 . S
C2018 H2010 0.930 . S
C2018 C2017 1.362 . S
C2018 C2021 1.409 . S
C2019 H2011 0.930 . S
C2019 C2020 1.355 . S
C2019 C2021 1.415 . S
C2020 C2019 1.355 . S
C2020 C2022 1.419 . S
C2021 C2016 1.425 . S
C2021 C2018 1.409 . S
C2021 C2019 1.415 . S
C2022 H2012 0.930 . S
C2022 C2020 1.419 . S
C2022 C2023 1.362 . S
C2023 H2013 0.930 . S
C2023 C2016 1.409 . S
C2023 C2022 1.362 . S
H2024 C2030 0.930 . S
H2025 C2033 0.930 . S
H2026 C2034 0.930 . S
H2027 C2035 0.930 . S
H2028 C2038 0.930 . S
H2029 C2039 0.930 . S
C2030 H2024 0.930 . S
C2030 C2031 1.355 . S
C2030 C2032 1.415 . S
C2031 C2030 1.355 . S
C2031 C2033 1.419 . S
C2032 C2030 1.415 . S
C2032 C2037 1.425 . S
C2032 C2039 1.409 . S
C2033 H2025 0.930 . S
C2033 C2031 1.419 . S
C2033 C2034 1.362 . S
C2034 H2026 0.930 . S
C2034 C2033 1.362 . S
C2034 C2037 1.409 . S
C2035 H2027 0.930 . S
C2035 C2036 1.355 . S
C2035 C2037 1.415 . S
C2036 C2035 1.355 . S
C2036 C2038 1.419 . S
C2037 C2032 1.425 . S
C2037 C2034 1.409 . S
C2037 C2035 1.415 . S
C2038 H2028 0.930 . S
C2038 C2036 1.419 . S
C2038 C2039 1.362 . S
C2039 H2029 0.930 . S
C2039 C2032 1.409 . S
C2039 C2038 1.362 . S
H2040 C2046 0.930 . S
H2041 C2049 0.930 . S
H2042 C2050 0.930 . S
H2043 C2051 0.930 . S
H2044 C2054 0.930 . S
H2045 C2055 0.930 . S
C2046 H2040 0.930 . S
C2046 C2047 1.355 1_455 S
C2046 C2048 1.415 . S
C2047 C2046 1.355 1_655 S
C2047 C2049 1.419 . S
C2048 C2046 1.415 . S
C2048 C2053 1.425 1_455 S
C2048 C2055 1.409 . S
C2049 H2041 0.930 . S
C2049 C2047 1.419 . S
C2049 C2050 1.362 . S
C2050 H2042 0.930 . S
C2050 C2049 1.362 . S
C2050 C2053 1.409 . S
C2051 H2043 0.930 . S
C2051 C2052 1.355 1_655 S
C2051 C2053 1.415 . S
C2052 C2051 1.355 1_455 S
C2052 C2054 1.419 . S
C2053 C2048 1.425 1_655 S
C2053 C2050 1.409 . S
C2053 C2051 1.415 . S
C2054 H2044 0.930 . S
C2054 C2052 1.419 . S
C2054 C2055 1.362 . S
C2055 H2045 0.930 . S
C2055 C2048 1.409 . S
C2055 C2054 1.362 . S
H2056 C2062 0.930 . S
H2057 C2065 0.930 . S
H2058 C2066 0.930 . S
H2059 C2067 0.930 . S
H2060 C2070 0.930 . S
H2061 C2071 0.930 . S
C2062 H2056 0.930 . S
C2062 C2063 1.355 . S
C2062 C2064 1.415 . S
C2063 C2062 1.355 . S
C2063 C2065 1.419 . S
C2064 C2062 1.415 . S
C2064 C2069 1.425 . S
C2064 C2071 1.409 . S
C2065 H2057 0.930 . S
C2065 C2063 1.419 . S
C2065 C2066 1.362 . S
C2066 H2058 0.930 . S
C2066 C2065 1.362 . S
C2066 C2069 1.409 . S
C2067 H2059 0.930 . S
C2067 C2068 1.355 . S
C2067 C2069 1.415 . S
C2068 C2067 1.355 . S
C2068 C2070 1.419 . S
C2069 C2064 1.425 . S
C2069 C2066 1.409 . S
C2069 C2067 1.415 . S
C2070 H2060 0.930 . S
C2070 C2068 1.419 . S
C2070 C2071 1.362 . S
C2071 H2061 0.930 . S
C2071 C2064 1.409 . S
C2071 C2070 1.362 . S
H2072 C2078 0.930 . S
H2073 C2081 0.930 . S
H2074 C2082 0.930 . S
H2075 C2083 0.930 . S
H2076 C2086 0.930 . S
H2077 C2087 0.930 . S
C2078 H2072 0.930 . S
C2078 C2079 1.355 . S
C2078 C2080 1.415 . S
C2079 C2078 1.355 . S
C2079 C2081 1.419 . S
C2080 C2078 1.415 . S
C2080 C2085 1.425 . S
C2080 C2087 1.409 . S
C2081 H2073 0.930 . S
C2081 C2079 1.419 . S
C2081 C2082 1.362 . S
C2082 H2074 0.930 . S
C2082 C2081 1.362 . S
C2082 C2085 1.409 . S
C2083 H2075 0.930 . S
C2083 C2084 1.355 . S
C2083 C2085 1.415 . S
C2084 C2083 1.355 . S
C2084 C2086 1.419 . S
C2085 C2080 1.425 . S
C2085 C2082 1.409 . S
C2085 C2083 1.415 . S
C2086 H2076 0.930 . S
C2086 C2084 1.419 . S
C2086 C2087 1.362 . S
C2087 H2077 0.930 . S
C2087 C2080 1.409 . S
C2087 C2086 1.362 . S
H2088 C2094 0.930 . S
H2089 C2097 0.930 . S
H2090 C2098 0.930 . S
H2091 C2099 0.930 . S
H2092 C2102 0.930 . S
H2093 C2103 0.930 . S
C2094 H2088 0.930 . S
C2094 C2095 1.355 . S
C2094 C2096 1.415 . S
C2095 C2094 1.355 . S
C2095 C2097 1.419 . S
C2096 C2094 1.415 . S
C2096 C2101 1.425 . S
C2096 C2103 1.409 . S
C2097 H2089 0.930 . S
C2097 C2095 1.419 . S
C2097 C2098 1.362 . S
C2098 H2090 0.930 . S
C2098 C2097 1.362 . S
C2098 C2101 1.409 . S
C2099 H2091 0.930 . S
C2099 C2100 1.355 . S
C2099 C2101 1.415 . S
C2100 C2099 1.355 . S
C2100 C2102 1.419 . S
C2101 C2096 1.425 . S
C2101 C2098 1.409 . S
C2101 C2099 1.415 . S
C2102 H2092 0.930 . S
C2102 C2100 1.419 . S
C2102 C2103 1.362 . S
C2103 H2093 0.930 . S
C2103 C2096 1.409 . S
C2103 C2102 1.362 . S
H2104 C2110 0.930 . S
H2105 C2113 0.930 . S
H2106 C2114 0.930 . S
H2107 C2115 0.930 . S
H2108 C2118 0.930 . S
H2109 C2119 0.930 . S
C2110 H2104 0.930 . S
C2110 C2111 1.355 . S
C2110 C2112 1.415 . S
C2111 C2110 1.355 . S
C2111 C2113 1.419 . S
C2112 C2110 1.415 . S
C2112 C2117 1.425 . S
C2112 C2119 1.409 . S
C2113 H2105 0.930 . S
C2113 C2111 1.419 . S
C2113 C2114 1.362 . S
C2114 H2106 0.930 . S
C2114 C2113 1.362 . S
C2114 C2117 1.409 . S
C2115 H2107 0.930 . S
C2115 C2116 1.355 . S
C2115 C2117 1.415 . S
C2116 C2115 1.355 . S
C2116 C2118 1.419 . S
C2117 C2112 1.425 . S
C2117 C2114 1.409 . S
C2117 C2115 1.415 . S
C2118 H2108 0.930 . S
C2118 C2116 1.419 . S
C2118 C2119 1.362 . S
C2119 H2109 0.930 . S
C2119 C2112 1.409 . S
C2119 C2118 1.362 . S
H2120 C2126 0.930 . S
H2121 C2129 0.930 . S
H2122 C2130 0.930 . S
H2123 C2131 0.930 . S
H2124 C2134 0.930 . S
H2125 C2135 0.930 . S
C2126 H2120 0.930 . S
C2126 C2127 1.355 . S
C2126 C2128 1.415 . S
C2127 C2126 1.355 . S
C2127 C2129 1.419 . S
C2128 C2126 1.415 . S
C2128 C2133 1.425 . S
C2128 C2135 1.409 . S
C2129 H2121 0.930 . S
C2129 C2127 1.419 . S
C2129 C2130 1.362 . S
C2130 H2122 0.930 . S
C2130 C2129 1.362 . S
C2130 C2133 1.409 . S
C2131 H2123 0.930 . S
C2131 C2132 1.355 . S
C2131 C2133 1.415 . S
C2132 C2131 1.355 . S
C2132 C2134 1.419 . S
C2133 C2128 1.425 . S
C2133 C2130 1.409 . S
C2133 C2131 1.415 . S
C2134 H2124 0.930 . S
C2134 C2132 1.419 . S
C2134 C2135 1.362 . S
C2135 H2125 0.930 . S
C2135 C2128 1.409 . S
C2135 C2134 1.362 . S
H2136 C2142 0.930 . S
H2137 C2145 0.930 . S
H2138 C2146 0.930 . S
H2139 C2147 0.930 . S
H2140 C2150 0.930 . S
H2141 C2151 0.930 . S
C2142 H2136 0.930 . S
C2142 C2143 1.355 . S
C2142 C2144 1.415 . S
C2143 C2142 1.355 . S
C2143 C2145 1.419 . S
C2144 C2142 1.415 . S
C2144 C2149 1.425 . S
C2144 C2151 1.409 . S
C2145 H2137 0.930 . S
C2145 C2143 1.419 . S
C2145 C2146 1.362 . S
C2146 H2138 0.930 . S
C2146 C2145 1.362 . S
C2146 C2149 1.409 . S
C2147 H2139 0.930 . S
C2147 C2148 1.355 . S
C2147 C2149 1.415 . S
C2148 C2147 1.355 . S
C2148 C2150 1.419 . S
C2149 C2144 1.425 . S
C2149 C2146 1.409 . S
C2149 C2147 1.415 . S
C2150 H2140 0.930 . S
C2150 C2148 1.419 . S
C2150 C2151 1.362 . S
C2151 H2141 0.930 . S
C2151 C2144 1.409 . S
C2151 C2150 1.362 . S
H2152 C2158 0.930 . S
H2153 C2161 0.930 . S
H2154 C2162 0.930 . S
H2155 C2163 0.930 . S
H2156 C2166 0.930 . S
H2157 C2167 0.930 . S
C2158 H2152 0.930 . S
C2158 C2159 1.355 . S
C2158 C2160 1.415 . S
C2159 C2158 1.355 . S
C2159 C2161 1.419 . S
C2160 C2158 1.415 . S
C2160 C2165 1.425 . S
C2160 C2167 1.409 . S
C2161 H2153 0.930 . S
C2161 C2159 1.419 . S
C2161 C2162 1.362 . S
C2162 H2154 0.930 . S
C2162 C2161 1.362 . S
C2162 C2165 1.409 . S
C2163 H2155 0.930 . S
C2163 C2164 1.355 . S
C2163 C2165 1.415 . S
C2164 C2163 1.355 . S
C2164 C2166 1.419 . S
C2165 C2160 1.425 . S
C2165 C2162 1.409 . S
C2165 C2163 1.415 . S
C2166 H2156 0.930 . S
C2166 C2164 1.419 . S
C2166 C2167 1.362 . S
C2167 H2157 0.930 . S
C2167 C2160 1.409 . S
C2167 C2166 1.362 . S
H2168 C2174 0.930 . S
H2169 C2177 0.930 . S
H2170 C2178 0.930 . S
H2171 C2179 0.930 . S
H2172 C2182 0.930 . S
H2173 C2183 0.930 . S
C2174 H2168 0.930 . S
C2174 C2175 1.355 . S
C2174 C2176 1.415 . S
C2175 C2174 1.355 . S
C2175 C2177 1.419 . S
C2176 C2174 1.415 . S
C2176 C2181 1.425 . S
C2176 C2183 1.409 . S
C2177 H2169 0.930 . S
C2177 C2175 1.419 . S
C2177 C2178 1.362 . S
C2178 H2170 0.930 . S
C2178 C2177 1.362 . S
C2178 C2181 1.409 . S
C2179 H2171 0.930 . S
C2179 C2180 1.355 . S
C2179 C2181 1.415 . S
C2180 C2179 1.355 . S
C2180 C2182 1.419 . S
C2181 C2176 1.425 . S
C2181 C2178 1.409 . S
C2181 C2179 1.415 . S
C2182 H2172 0.930 . S
C2182 C2180 1.419 . S
C2182 C2183 1.362 . S
C2183 H2173 0.930 . S
C2183 C2176 1.409 . S
C2183 C2182 1.362 . S
H2184 C2190 0.930 . S
H2185 C2193 0.930 . S
H2186 C2194 0.930 . S
H2187 C2195 0.930 . S
H2188 C2198 0.930 . S
H2189 C2199 0.930 . S
C2190 H2184 0.930 . S
C2190 C2191 1.355 . S
C2190 C2192 1.415 . S
C2191 C2190 1.355 . S
C2191 C2193 1.419 . S
C2192 C2190 1.415 . S
C2192 C2197 1.425 . S
C2192 C2199 1.409 . S
C2193 H2185 0.930 . S
C2193 C2191 1.419 . S
C2193 C2194 1.362 . S
C2194 H2186 0.930 . S
C2194 C2193 1.362 . S
C2194 C2197 1.409 . S
C2195 H2187 0.930 . S
C2195 C2196 1.355 . S
C2195 C2197 1.415 . S
C2196 C2195 1.355 . S
C2196 C2198 1.419 . S
C2197 C2192 1.425 . S
C2197 C2194 1.409 . S
C2197 C2195 1.415 . S
C2198 H2188 0.930 . S
C2198 C2196 1.419 . S
C2198 C2199 1.362 . S
C2199 H2189 0.930 . S
C2199 C2192 1.409 . S
C2199 C2198 1.362 . S
H2200 C2206 0.930 . S
H2201 C2209 0.930 . S
H2202 C2210 0.930 . S
H2203 C2211 0.930 . S
H2204 C2214 0.930 . S
H2205 C2215 0.930 . S
C2206 H2200 0.930 . S
C2206 C2207 1.355 . S
C2206 C2208 1.415 . S
C2207 C2206 1.355 . S
C2207 C2209 1.419 . S
C2208 C2206 1.415 . S
C2208 C2213 1.425 . S
C2208 C2215 1.409 . S
C2209 H2201 0.930 . S
C2209 C2207 1.419 . S
C2209 C2210 1.362 . S
C2210 H2202 0.930 . S
C2210 C2209 1.362 . S
C2210 C2213 1.409 . S
C2211 H2203 0.930 . S
C2211 C2212 1.355 . S
C2211 C2213 1.415 . S
C2212 C2211 1.355 . S
C2212 C2214 1.419 . S
C2213 C2208 1.425 . S
C2213 C2210 1.409 . S
C2213 C2211 1.415 . S
C2214 H2204 0.930 . S
C2214 C2212 1.419 . S
C2214 C2215 1.362 . S
C2215 H2205 0.930 . S
C2215 C2208 1.409 . S
C2215 C2214 1.362 . S
H2216 C2222 0.930 . S
H2217 C2225 0.930 . S
H2218 C2226 0.930 . S
H2219 C2227 0.930 . S
H2220 C2230 0.930 . S
H2221 C2231 0.930 . S
C2222 H2216 0.930 . S
C2222 C2223 1.355 . S
C2222 C2224 1.415 . S
C2223 C2222 1.355 . S
C2223 C2225 1.419 . S
C2224 C2222 1.415 . S
C2224 C2229 1.425 . S
C2224 C2231 1.409 . S
C2225 H2217 0.930 . S
C2225 C2223 1.419 . S
C2225 C2226 1.362 . S
C2226 H2218 0.930 . S
C2226 C2225 1.362 . S
C2226 C2229 1.409 . S
C2227 H2219 0.930 . S
C2227 C2228 1.355 . S
C2227 C2229 1.415 . S
C2228 C2227 1.355 . S
C2228 C2230 1.419 . S
C2229 C2224 1.425 . S
C2229 C2226 1.409 . S
C2229 C2227 1.415 . S
C2230 H2220 0.930 . S
C2230 C2228 1.419 . S
C2230 C2231 1.362 . S
C2231 H2221 0.930 . S
C2231 C2224 1.409 . S
C2231 C2230 1.362 . S
H2232 C2238 0.930 . S
H2233 C2241 0.930 . S
H2234 C2242 0.930 . S
H2235 C2243 0.930 . S
H2236 C2246 0.930 . S
H2237 C2247 0.930 . S
C2238 H2232 0.930 . S
C2238 C2239 1.355 . S
C2238 C2240 1.415 . S
C2239 C2238 1.355 . S
C2239 C2241 1.419 . S
C2240 C2238 1.415 . S
C2240 C2245 1.425 . S
C2240 C2247 1.409 . S
C2241 H2233 0.930 . S
C2241 C2239 1.419 . S
C2241 C2242 1.362 . S
C2242 H2234 0.930 . S
C2242 C2241 1.362 . S
C2242 C2245 1.409 . S
C2243 H2235 0.930 . S
C2243 C2244 1.355 . S
C2243 C2245 1.415 . S
C2244 C2243 1.355 . S
C2244 C2246 1.419 . S
C2245 C2240 1.425 . S
C2245 C2242 1.409 . S
C2245 C2243 1.415 . S
C2246 H2236 0.930 . S
C2246 C2244 1.419 . S
C2246 C2247 1.362 . S
C2247 H2237 0.930 . S
C2247 C2240 1.409 . S
C2247 C2246 1.362 . S
H2248 C2254 0.930 . S
H2249 C2257 0.933 . S
H2250 C2258 0.930 1_556 S
H2251 C2259 0.930 . S
H2252 C2262 0.930 . S
H2253 C2263 0.930 . S
C2254 H2248 0.930 . S
C2254 C2255 1.355 . S
C2254 C2256 1.415 . S
C2255 C2254 1.355 . S
C2255 C2257 1.419 . S
C2256 C2254 1.415 . S
C2256 C2261 1.425 . S
C2256 C2263 1.409 . S
C2257 H2249 0.933 . S
C2257 C2255 1.419 . S
C2257 C2258 1.362 1_565 S
C2258 H2250 0.930 1_554 S
C2258 C2257 1.362 1_545 S
C2258 C2261 1.409 1_545 S
C2259 H2251 0.930 . S
C2259 C2260 1.355 . S
C2259 C2261 1.415 1_545 S
C2260 C2259 1.355 . S
C2260 C2262 1.419 1_545 S
C2261 C2256 1.425 . S
C2261 C2258 1.409 1_565 S
C2261 C2259 1.415 1_565 S
C2262 H2252 0.930 . S
C2262 C2260 1.419 1_565 S
C2262 C2263 1.362 . S
C2263 H2253 0.930 . S
C2263 C2256 1.409 . S
C2263 C2262 1.362 . S
H2264 C2270 0.930 . S
H2265 C2273 0.930 . S
H2266 C2274 0.930 . S
H2267 C2275 0.930 . S
H2268 C2278 0.930 . S
H2269 C2279 0.930 . S
C2270 H2264 0.930 . S
C2270 C2271 1.355 . S
C2270 C2272 1.415 . S
C2271 C2270 1.355 . S
C2271 C2273 1.419 . S
C2272 C2270 1.415 . S
C2272 C2277 1.425 . S
C2272 C2279 1.409 . S
C2273 H2265 0.930 . S
C2273 C2271 1.419 . S
C2273 C2274 1.362 . S
C2274 H2266 0.930 . S
C2274 C2273 1.362 . S
C2274 C2277 1.409 . S
C2275 H2267 0.930 . S
C2275 C2276 1.355 . S
C2275 C2277 1.415 . S
C2276 C2275 1.355 . S
C2276 C2278 1.419 . S
C2277 C2272 1.425 . S
C2277 C2274 1.409 . S
C2277 C2275 1.415 . S
C2278 H2268 0.930 . S
C2278 C2276 1.419 . S
C2278 C2279 1.362 . S
C2279 H2269 0.930 . S
C2279 C2272 1.409 . S
C2279 C2278 1.362 . S
H2280 C2286 0.930 . S
H2281 C2289 0.930 1_556 S
H2282 C2290 0.930 . S
H2283 C2291 0.930 . S
H2284 C2294 0.930 . S
H2285 C2295 0.930 . S
C2286 H2280 0.930 . S
C2286 C2287 1.355 . S
C2286 C2288 1.415 . S
C2287 C2286 1.355 . S
C2287 C2289 1.419 . S
C2288 C2286 1.415 . S
C2288 C2293 1.425 . S
C2288 C2295 1.409 . S
C2289 H2281 0.930 1_554 S
C2289 C2287 1.419 . S
C2289 C2290 1.362 . S
C2290 H2282 0.930 . S
C2290 C2289 1.362 . S
C2290 C2293 1.409 . S
C2291 H2283 0.930 . S
C2291 C2292 1.355 . S
C2291 C2293 1.415 . S
C2292 C2291 1.355 . S
C2292 C2294 1.419 . S
C2293 C2288 1.425 . S
C2293 C2290 1.409 . S
C2293 C2291 1.415 . S
C2294 H2284 0.930 . S
C2294 C2292 1.419 . S
C2294 C2295 1.362 . S
C2295 H2285 0.930 . S
C2295 C2288 1.409 . S
C2295 C2294 1.362 . S
H2296 C2302 0.930 . S
H2297 C2305 0.930 . S
H2298 C2306 0.930 . S
H2299 C2307 0.930 . S
H2300 C2310 0.930 . S
H2301 C2311 0.930 . S
C2302 H2296 0.930 . S
C2302 C2303 1.355 . S
C2302 C2304 1.415 . S
C2303 C2302 1.355 . S
C2303 C2305 1.419 . S
C2304 C2302 1.415 . S
C2304 C2309 1.425 . S
C2304 C2311 1.409 . S
C2305 H2297 0.930 . S
C2305 C2303 1.419 . S
C2305 C2306 1.362 . S
C2306 H2298 0.930 . S
C2306 C2305 1.362 . S
C2306 C2309 1.409 . S
C2307 H2299 0.930 . S
C2307 C2308 1.355 . S
C2307 C2309 1.415 . S
C2308 C2307 1.355 . S
C2308 C2310 1.419 . S
C2309 C2304 1.425 . S
C2309 C2306 1.409 . S
C2309 C2307 1.415 . S
C2310 H2300 0.930 . S
C2310 C2308 1.419 . S
C2310 C2311 1.362 . S
C2311 H2301 0.930 . S
C2311 C2304 1.409 . S
C2311 C2310 1.362 . S
H2312 C2318 0.930 . S
H2313 C2321 0.930 . S
H2314 C2322 0.930 . S
H2315 C2323 0.930 . S
H2316 C2326 0.930 . S
H2317 C2327 0.930 . S
C2318 H2312 0.930 . S
C2318 C2319 1.355 . S
C2318 C2320 1.415 . S
C2319 C2318 1.355 . S
C2319 C2321 1.419 . S
C2320 C2318 1.415 . S
C2320 C2325 1.425 . S
C2320 C2327 1.409 . S
C2321 H2313 0.930 . S
C2321 C2319 1.419 . S
C2321 C2322 1.362 . S
C2322 H2314 0.930 . S
C2322 C2321 1.362 . S
C2322 C2325 1.409 . S
C2323 H2315 0.930 . S
C2323 C2324 1.355 . S
C2323 C2325 1.415 . S
C2324 C2323 1.355 . S
C2324 C2326 1.419 . S
C2325 C2320 1.425 . S
C2325 C2322 1.409 . S
C2325 C2323 1.415 . S
C2326 H2316 0.930 . S
C2326 C2324 1.419 . S
C2326 C2327 1.362 . S
C2327 H2317 0.930 . S
C2327 C2320 1.409 . S
C2327 C2326 1.362 . S
C804 C313 1.811 . S
C799 C10 1.825 . S
C815 C13 0.867 . S
C820 C358 0.904 . S
C831 C34 1.684 . S
C836 C382 1.707 . S
C852 N408 1.059 . S
C847 C44 1.061 . S
C863 C21 0.993 . S
C868 N438 1.111 . S
C884 C472 1.470 . S
C879 C26 1.436 . S
C900 C508 1.143 1_556 S
C895 C49 1.126 . S
C911 C5 1.738 . S
C916 C532 1.708 . S
C927 C62 0.970 . S
C932 N326 0.944 . S
C943 C73 1.094 . S
C948 N348 1.102 . S
C964 C388 0.949 . S
C959 C88 0.975 . S
C980 C412 1.705 . S
C975 C99 1.691 . S
C991 C60 1.092 . S
C996 C442 1.109 . S
C1012 C478 1.022 . S
C1007 C75 1.031 . S
C1028 N498 1.065 . S
C1023 C86 0.994 . S
C1044 C538 1.682 . S
C1039 C101 1.686 . S
C1060 C339 1.645 . S
C1055 C96 1.657 . S
C1076 C568 0.926 . S
C1071 C104 0.891 . S
C1087 C122 1.082 . S
C1092 N588 1.076 . S
C1108 C622 1.498 . S
C1103 C130 1.456 . S
C1119 C57 0.895 . S
C1124 N528 0.897 . S
C1140 N378 1.097 1_565 S
C1135 C70 1.090 . S
C1151 C117 0.949 . S
C1156 C658 0.965 . S
C1172 C682 0.970 . S
C1167 C143 0.945 . S
C1183 C164 1.845 . S
C1188 C322 1.883 1_556 S
C1204 C699 0.976 . S
C1199 C169 1.004 . S
C1215 C192 1.775 . S
C1220 C373 1.723 . S
C1231 C200 1.057 . S
C1236 N656 1.094 . S
C1252 N446 1.177 . S
C1247 C179 1.180 . S
C1268 C583 1.533 . S
C1263 C182 1.575 . S
C1284 C519 1.245 . S
C1279 C203 1.158 . S
C1300 C703 1.764 . S
C1295 C161 1.778 . S
C1316 N318 1.006 . S
C1311 C216 1.022 . S
C1327 C231 1.096 . S
C1332 N686 1.134 . S
C1348 C399 1.021 . S
C1343 C242 1.067 . S
C1359 C257 1.779 . S
C1364 C643 1.769 . S
C1375 C218 1.242 . S
C1380 C433 1.193 1_655 S
C1391 C229 1.116 . S
C1396 C609 1.082 . S
C1412 N506 1.098 . S
C1407 C244 1.107 . S
C1423 C255 1.735 . S
C1428 C729 1.723 . S
C1439 C252 1.710 . S
C1444 C328 1.704 . S
C1455 C260 1.007 1_556 S
C1460 C579 0.993 . S
C1471 C278 1.032 . S
C1476 N476 1.108 . S
C1487 C286 1.545 . S
C1492 C613 1.580 . S
C1508 N716 0.927 . S
C1503 C213 0.963 . S
C1524 N386 1.107 . S
C1519 C226 1.022 . S
C1540 C429 1.026 . S
C1535 C273 0.962 . S
C1556 C343 0.962 . S
C1551 C299 1.050 . S
C1567 C36 1.805 . S
C1572 C733 1.771 . S
C1588 C688 0.919 . S
C1583 C39 0.945 . S
C1604 C772 1.660 . S
C1599 C8 1.624 . S
C1615 C18 0.960 1_655 S
C1620 N648 1.028 . S
C1631 C47 0.991 . S
C1636 N558 1.100 1_556 S
C1652 C592 1.477 . S
C1647 C0 1.435 . S
C1668 C628 1.117 . S
C1663 C23 1.140 . S
C1684 C712 1.699 . S
C1679 C31 1.699 . S
C1700 N746 0.964 . S
C1695 C153 0.943 . S
C1711 C112 1.082 1_556 S
C1716 N678 1.099 . S
C1727 C127 0.979 . S
C1732 C778 0.952 1_655 S
C1748 C652 1.679 . S
C1743 C138 1.661 . S
C1764 C562 1.080 . S
C1759 C151 1.050 . S
C1775 C114 1.004 . S
C1780 C598 0.988 . S
C1796 N618 1.084 . S
C1791 C125 1.032 . S
C1807 C140 1.678 . S
C1812 C718 1.648 . S
C1828 C759 1.652 . S
C1823 C135 1.616 . S
C1844 C448 0.932 . S
C1839 C65 0.896 . S
C1860 N468 1.061 . S
C1855 C83 1.050 1_565 S
C1871 C91 1.444 . S
C1876 C502 1.485 . S
C1892 N708 0.877 . S
C1887 C148 0.853 . S
C1903 C109 1.086 . S
C1908 N768 1.083 . S
C1924 C418 0.922 . S
C1919 C78 0.899 . S
C1940 C352 0.948 . S
C1935 C52 0.956 . S
C1951 C190 1.875 . S
C1956 C742 1.850 . S
C1972 C369 0.995 . S
C1967 C195 0.962 . S
C1988 C763 1.724 1_556 S
C1983 C166 1.776 . S
C1999 C174 1.106 . S
C2004 N416 1.108 . S
C2015 C205 1.180 . S
C2020 N566 1.169 . S
C2031 C156 1.526 . S
C2036 C463 1.569 . S
C2047 C177 1.231 1_655 S
C2052 C639 1.216 . S
C2063 C187 1.783 . S
C2068 C523 1.770 . S
C2084 N738 1.002 . S
C2079 C307 0.975 . S
C2095 C270 1.138 . S
C2100 N356 1.143 . S
C2116 C789 1.037 . S
C2111 C281 1.046 . S
C2127 C296 1.789 . S
C2132 C403 1.767 . S
C2143 C309 1.244 . S
C2148 C553 1.196 . S
C2164 C489 1.116 . S
C2159 C268 1.035 . S
C2175 C283 1.068 . S
C2180 N626 1.101 . S
C2196 C549 1.714 . S
C2191 C294 1.752 . S
C2212 C748 1.686 . S
C2207 C291 1.687 . S
C2228 C459 0.980 . S
C2223 C221 1.032 . S
C2239 C239 1.102 . S
C2244 N596 1.126 . S
C2260 C493 1.560 . S
C2255 C247 1.598 . S
C2276 N536 0.944 . S
C2271 C304 0.957 . S
C2287 C265 1.108 . S
C2292 N776 1.131 . S
C2308 C669 1.032 . S
C2303 C234 0.948 . S
C2324 C673 0.975 . S
C2319 C208 1.053 . S
