# Generated by pormake.
# Topology wbl, (4,4)-cn, num edge types: 1
# Building blocks:
#     Node 0, Type 0, BuildingBlock: MUDLON_clean_sbu_0, # of connection points: 4
#     Node 1, Type 0, BuildingBlock: MUDLON_clean_sbu_0, # of connection points: 4
#     Node 2, Type 0, BuildingBlock: MUDLON_clean_sbu_0, # of connection points: 4
#     Node 3, Type 0, BuildingBlock: MUDLON_clean_sbu_0, # of connection points: 4
#     Node 4, Type 0, BuildingBlock: MUDLON_clean_sbu_0, # of connection points: 4
#     Node 5, Type 0, BuildingBlock: MUDLON_clean_sbu_0, # of connection points: 4
#     Node 6, Type 0, BuildingBlock: MUDLON_clean_sbu_0, # of connection points: 4
#     Node 7, Type 0, BuildingBlock: MUDLON_clean_sbu_0, # of connection points: 4
#     Node 8, Type 1, BuildingBlock: GALJAG_clean_sbu_0, # of connection points: 4
#     Node 9, Type 1, BuildingBlock: GALJAG_clean_sbu_0, # of connection points: 4
#     Node 10, Type 1, BuildingBlock: GALJAG_clean_sbu_0, # of connection points: 4
#     Node 11, Type 1, BuildingBlock: GALJAG_clean_sbu_0, # of connection points: 4
#     Node 12, Type 1, BuildingBlock: GALJAG_clean_sbu_0, # of connection points: 4
#     Node 13, Type 1, BuildingBlock: GALJAG_clean_sbu_0, # of connection points: 4
#     Node 14, Type 1, BuildingBlock: GALJAG_clean_sbu_0, # of connection points: 4
#     Node 15, Type 1, BuildingBlock: GALJAG_clean_sbu_0, # of connection points: 4
#     Edge 16, Type (0, 1), BuildingBlock: ZUJKAS_clean_linker_0, # of connection points: 2
#     Edge 17, Type (0, 1), BuildingBlock: ZUJKAS_clean_linker_0, # of connection points: 2
#     Edge 18, Type (0, 1), BuildingBlock: ZUJKAS_clean_linker_0, # of connection points: 2
#     Edge 19, Type (0, 1), BuildingBlock: ZUJKAS_clean_linker_0, # of connection points: 2
#     Edge 20, Type (0, 1), BuildingBlock: ZUJKAS_clean_linker_0, # of connection points: 2
#     Edge 21, Type (0, 1), BuildingBlock: ZUJKAS_clean_linker_0, # of connection points: 2
#     Edge 22, Type (0, 1), BuildingBlock: ZUJKAS_clean_linker_0, # of connection points: 2
#     Edge 23, Type (0, 1), BuildingBlock: ZUJKAS_clean_linker_0, # of connection points: 2
#     Edge 24, Type (0, 1), BuildingBlock: ZUJKAS_clean_linker_0, # of connection points: 2
#     Edge 25, Type (0, 1), BuildingBlock: ZUJKAS_clean_linker_0, # of connection points: 2
#     Edge 26, Type (0, 1), BuildingBlock: ZUJKAS_clean_linker_0, # of connection points: 2
#     Edge 27, Type (0, 1), BuildingBlock: ZUJKAS_clean_linker_0, # of connection points: 2
#     Edge 28, Type (0, 1), BuildingBlock: ZUJKAS_clean_linker_0, # of connection points: 2
#     Edge 29, Type (0, 1), BuildingBlock: ZUJKAS_clean_linker_0, # of connection points: 2
#     Edge 30, Type (0, 1), BuildingBlock: ZUJKAS_clean_linker_0, # of connection points: 2
#     Edge 31, Type (0, 1), BuildingBlock: ZUJKAS_clean_linker_0, # of connection points: 2
#     Edge 32, Type (0, 1), BuildingBlock: ZUJKAS_clean_linker_0, # of connection points: 2
#     Edge 33, Type (0, 1), BuildingBlock: ZUJKAS_clean_linker_0, # of connection points: 2
#     Edge 34, Type (0, 1), BuildingBlock: ZUJKAS_clean_linker_0, # of connection points: 2
#     Edge 35, Type (0, 1), BuildingBlock: ZUJKAS_clean_linker_0, # of connection points: 2
#     Edge 36, Type (0, 1), BuildingBlock: ZUJKAS_clean_linker_0, # of connection points: 2
#     Edge 37, Type (0, 1), BuildingBlock: ZUJKAS_clean_linker_0, # of connection points: 2
#     Edge 38, Type (0, 1), BuildingBlock: ZUJKAS_clean_linker_0, # of connection points: 2
#     Edge 39, Type (0, 1), BuildingBlock: ZUJKAS_clean_linker_0, # of connection points: 2
#     Edge 40, Type (0, 1), BuildingBlock: ZUJKAS_clean_linker_0, # of connection points: 2
#     Edge 41, Type (0, 1), BuildingBlock: ZUJKAS_clean_linker_0, # of connection points: 2
#     Edge 42, Type (0, 1), BuildingBlock: ZUJKAS_clean_linker_0, # of connection points: 2
#     Edge 43, Type (0, 1), BuildingBlock: ZUJKAS_clean_linker_0, # of connection points: 2
#     Edge 44, Type (0, 1), BuildingBlock: ZUJKAS_clean_linker_0, # of connection points: 2
#     Edge 45, Type (0, 1), BuildingBlock: ZUJKAS_clean_linker_0, # of connection points: 2
#     Edge 46, Type (0, 1), BuildingBlock: ZUJKAS_clean_linker_0, # of connection points: 2
#     Edge 47, Type (0, 1), BuildingBlock: ZUJKAS_clean_linker_0, # of connection points: 2
# Relax obj value: 0.157
# Max RMSD: 0.184
# Mean RMSD: 0.147
data_MOF--net-wbl--node1-MUDLON_clean_sbu_0--node2-GALJAG_clean_sbu_0--edge1-ZUJKAS_clean_linker_0
_symmetry_space_group_name_H-M    P1
_symmetry_Int_Tables_number       1
_symmetry_cell_setting            triclinic
loop_
_symmetry_equiv_pos_as_xyz
'x, y, z'
_cell_length_a     44.169226
_cell_length_b     44.310758
_cell_length_c     105.32141
_cell_angle_alpha  90.045068
_cell_angle_beta   90.033805
_cell_angle_gamma 90.019428
loop_
_atom_site_label
_atom_site_type_symbol
_atom_site_fract_x
_atom_site_fract_y
_atom_site_fract_z
_atom_type_partial_charge
Mg0 Mg 0.00616 0.01879 0.35223 0.0
C1 C 0.9827 0.98523 0.37516 0.0
O2 O 0.96473 0.0088 0.37573 0.0
C3 C 0.94339 0.01236 0.34019 0.0
O4 O 0.93768 0.99639 0.35042 0.0
C5 C 0.04931 0.98329 0.33738 0.0
O6 O 0.0262 0.96493 0.33883 0.0
O7 O 0.04779 0.0096 0.34216 0.0
O8 O 0.00042 0.98238 0.36572 0.0
O9 O 0.00755 0.05856 0.36426 0.0
C10 C 0.98337 0.07393 0.36524 0.0
O11 O 0.96085 0.06802 0.35747 0.0
O12 O 0.96977 0.02308 0.33855 0.0
Mg13 Mg 0.99819 0.5054 0.6056 0.0
C14 C 0.05761 0.50979 0.62019 0.0
O15 O 0.06566 0.52641 0.61044 0.0
C16 C 0.9752 0.443 0.59953 0.0
O17 O 0.96986 0.44336 0.61181 0.0
C18 C 0.02885 0.53625 0.58377 0.0
O19 O 0.03557 0.50804 0.58116 0.0
O20 O 0.0128 0.54203 0.59349 0.0
O21 O 0.03201 0.49671 0.62003 0.0
O22 O 0.95907 0.51753 0.61686 0.0
C23 C 0.93212 0.50899 0.61462 0.0
O24 O 0.92611 0.49485 0.60394 0.0
O25 O 0.98779 0.46573 0.59442 0.0
Mg26 Mg 0.49773 0.48687 0.85353 0.0
C27 C 0.50227 0.55057 0.86446 0.0
O28 O 0.48647 0.55764 0.85433 0.0
C29 C 0.56129 0.47206 0.84489 0.0
O30 O 0.56784 0.48245 0.85625 0.0
C31 C 0.46427 0.51551 0.832 0.0
O32 O 0.49232 0.52004 0.82831 0.0
O33 O 0.45947 0.50133 0.84229 0.0
O34 O 0.51158 0.52362 0.86581 0.0
O35 O 0.48533 0.45202 0.86697 0.0
C36 C 0.50075 0.42798 0.86811 0.0
O37 O 0.52224 0.42232 0.85982 0.0
O38 O 0.53387 0.47162 0.84127 0.0
Mg39 Mg 0.49067 0.00781 0.10317 0.0
C40 C 0.55339 0.00265 0.11487 0.0
O41 O 0.56096 0.01936 0.10508 0.0
C42 C 0.49307 0.95138 0.08708 0.0
O43 O 0.52191 0.95325 0.09004 0.0
C44 C 0.51312 0.04277 0.08044 0.0
O45 O 0.50663 0.0172 0.07474 0.0
O46 O 0.50758 0.04559 0.09222 0.0
O47 O 0.52641 0.99291 0.11572 0.0
O48 O 0.45563 0.02034 0.11652 0.0
C49 C 0.42989 0.00753 0.11655 0.0
O50 O 0.42265 0.98966 0.10706 0.0
O51 O 0.47493 0.97135 0.0912 0.0
Mg52 Mg 0.01075 0.49674 0.91378 0.0
C53 C 0.01481 0.56123 0.90391 0.0
O54 O 0.03533 0.56377 0.91287 0.0
C55 C 0.95202 0.498 0.929 0.0
O56 O 0.9489 0.52457 0.92363 0.0
C57 C 0.05043 0.51709 0.9348 0.0
O58 O 0.02342 0.5239 0.93916 0.0
O59 O 0.05255 0.50415 0.92406 0.0
O60 O -0.0005 0.53702 0.90312 0.0
O61 O 0.01331 0.46317 0.89886 0.0
C62 C 0.98817 0.46154 0.89302 0.0
O63 O 0.96543 0.47786 0.89721 0.0
O64 O 0.97551 0.48244 0.92668 0.0
Mg65 Mg 0.49903 0.49922 0.16328 0.0
C66 C 0.46914 0.47181 0.1406 0.0
O67 O 0.49474 0.45675 0.14072 0.0
C68 C 0.50087 0.43603 0.17501 0.0
O69 O 0.48307 0.42917 0.16544 0.0
C70 C 0.46109 0.54014 0.17903 0.0
O71 O 0.44308 0.51669 0.17787 0.0
O72 O 0.48697 0.5394 0.17377 0.0
O73 O 0.46314 0.48928 0.14985 0.0
O74 O 0.53722 0.50665 0.15076 0.0
C75 C 0.55604 0.48532 0.14911 0.0
O76 O 0.55468 0.4617 0.15661 0.0
O77 O 0.50965 0.46313 0.17642 0.0
Mg78 Mg 0.50249 0.99653 0.41164 0.0
C79 C 0.49771 0.05656 0.39761 0.0
O80 O 0.51447 0.06626 0.40707 0.0
C81 C 0.4394 0.97528 0.41811 0.0
O82 O 0.43497 0.9821 0.40611 0.0
C83 C 0.52981 0.03396 0.4324 0.0
O84 O 0.50096 0.03993 0.43414 0.0
O85 O 0.53738 0.01571 0.42363 0.0
O86 O 0.48768 0.02968 0.39786 0.0
O87 O 0.51967 0.96134 0.39929 0.0
C88 C 0.50644 0.93597 0.39829 0.0
O89 O 0.48522 0.92896 0.40651 0.0
O90 O 0.46538 0.97959 0.42297 0.0
Mg91 Mg -0.00013 0.99813 0.66049 0.0
C92 C 0.06181 0.99432 0.64829 0.0
O93 O 0.06726 0.97718 0.65821 0.0
C94 C 0.98014 0.06034 0.66761 0.0
O95 O 0.97827 0.06207 0.65517 0.0
C96 C 0.00858 0.95799 0.68343 0.0
O97 O 0.99631 0.98118 0.68925 0.0
O98 O 0.01171 0.95867 0.67145 0.0
O99 O 0.0365 0.0078 0.6475 0.0
O100 O 0.96157 0.99054 0.64811 0.0
C101 C 0.96632 0.97657 0.63776 0.0
O102 O 0.99298 0.96419 0.63588 0.0
O103 O 0.98951 0.03603 0.67263 0.0
In104 In 0.37479 0.64123 0.00523 0.0
O105 O 0.36354 0.6873 0.01387 0.0
O106 O 0.40958 0.67331 0.01351 0.0
C107 C 0.32071 0.62343 0.99594 0.0
C108 C 0.3819 0.60274 0.02482 0.0
C109 C 0.40715 0.64384 0.98355 0.0
O110 O 0.32537 0.65013 -0.00031 0.0
O111 O 0.34314 0.60603 0.99697 0.0
O112 O 0.41317 0.62545 0.99235 0.0
O113 O 0.38495 0.66098 0.98573 0.0
C114 C 0.39073 0.69337 0.0166 0.0
O115 O 0.39723 0.60072 0.01474 0.0
O116 O 0.36305 0.62412 0.02499 0.0
In117 In 0.36304 0.86123 0.25812 0.0
O118 O 0.35108 0.81291 0.25227 0.0
O119 O 0.39494 0.82955 0.24777 0.0
C120 C 0.31242 0.87936 0.27017 0.0
C121 C 0.36065 0.89635 0.23724 0.0
C122 C 0.40232 0.86218 0.27774 0.0
O123 O 0.3156 0.85276 0.26604 0.0
O124 O 0.33466 0.89657 0.26818 0.0
O125 O 0.4048 0.87972 0.26834 0.0
O126 O 0.38027 0.84414 0.27714 0.0
C127 C 0.37649 0.80787 0.24719 0.0
O128 O 0.38082 0.89957 0.24565 0.0
O129 O 0.3418 0.87562 0.23944 0.0
In130 In 0.14681 0.85135 0.50724 0.0
O131 O 0.12691 0.88741 0.52033 0.0
O132 O 0.16486 0.86253 0.52693 0.0
C133 C 0.10865 0.87097 0.48895 0.0
C134 C 0.13189 0.79601 0.51585 0.0
C135 C 0.20029 0.8574 0.49511 0.0
O136 O 0.12822 0.88778 0.49406 0.0
O137 O 0.10798 0.84438 0.49318 0.0
O138 O 0.18096 0.83788 0.49183 0.0
O139 O 0.19296 0.87291 0.50465 0.0
C140 C 0.14565 0.88287 0.52918 0.0
O141 O 0.15806 0.80196 0.51171 0.0
O142 O 0.11352 0.81776 0.51549 0.0
In143 In 0.14606 0.65226 0.7623 0.0
O144 O 0.1102 0.6319 0.77537 0.0
O145 O 0.13512 0.66994 0.78198 0.0
C146 C 0.14178 0.61819 0.74116 0.0
C147 C 0.20046 0.6351 0.77123 0.0
C148 C 0.12686 0.70489 0.75246 0.0
O149 O 0.12421 0.6146 0.75052 0.0
O150 O 0.1613 0.6387 0.74257 0.0
O151 O 0.15453 0.69988 0.7547 0.0
O152 O 0.10921 0.68356 0.7553 0.0
C153 C 0.11489 0.65058 0.78425 0.0
O154 O 0.19502 0.66211 0.76812 0.0
O155 O 0.17858 0.61712 0.76979 0.0
In156 In 0.84068 0.1533 0.50914 0.0
O157 O 0.83203 0.19812 0.51936 0.0
O158 O 0.87758 0.18353 0.517 0.0
C159 C 0.7837 0.1457 0.50037 0.0
C160 C 0.84953 0.11485 0.52861 0.0
C161 C 0.87182 0.14737 0.48722 0.0
O162 O 0.79631 0.17128 0.50055 0.0
O163 O 0.79965 0.12455 0.50471 0.0
O164 O 0.86344 0.12505 0.49375 0.0
O165 O 0.86462 0.17271 0.49174 0.0
C166 C 0.85979 0.20327 0.52134 0.0
O167 O 0.86675 0.11556 0.51904 0.0
O168 O 0.82792 0.13344 0.52831 0.0
In169 In 0.85789 0.36433 0.75238 0.0
O170 O 0.87374 0.40193 0.73918 0.0
O171 O 0.83277 0.37915 0.73457 0.0
C172 C 0.89818 0.369 0.77153 0.0
C173 C 0.87551 0.31342 0.74061 0.0
C174 C 0.80709 0.3765 0.76558 0.0
O175 O 0.89337 0.39023 0.7638 0.0
O176 O 0.88312 0.34533 0.76945 0.0
O177 O 0.81231 0.35055 0.7611 0.0
O178 O 0.82721 0.39589 0.76326 0.0
C179 C 0.85174 0.39923 0.73159 0.0
O180 O 0.85063 0.31515 0.7465 0.0
O181 O 0.89128 0.33717 0.74079 0.0
In182 In 0.64973 0.34868 0.00699 0.0
O183 O 0.66026 0.31384 0.02248 0.0
O184 O 0.63989 0.29827 0.00551 0.0
C185 C 0.70175 0.37035 0.99715 0.0
C186 C 0.63416 0.38409 0.02678 0.0
C187 C 0.61096 0.35182 0.98722 0.0
O188 O 0.70029 0.34443 0.00212 0.0
O189 O 0.67727 0.38493 0.99727 0.0
O190 O 0.60521 0.36397 0.9978 0.0
O191 O 0.636 0.33826 0.9867 0.0
C192 C 0.64929 0.29183 0.01645 0.0
O193 O 0.616 0.36535 0.0219 0.0
O194 O 0.65981 0.38521 0.02157 0.0
In195 In 0.63954 0.13553 0.25599 0.0
O196 O 0.60173 0.11473 0.26794 0.0
O197 O 0.62477 0.1533 0.27518 0.0
C198 C 0.6391 0.10178 0.23473 0.0
C199 C 0.69198 0.11786 0.26667 0.0
C200 C 0.62157 0.18823 0.24578 0.0
O201 O 0.61963 0.09844 0.24341 0.0
O202 O 0.65864 0.12194 0.23685 0.0
O203 O 0.64875 0.18369 0.24906 0.0
O204 O 0.6039 0.16635 0.24771 0.0
C205 C 0.60447 0.13366 0.27686 0.0
O206 O 0.68735 0.14495 0.26343 0.0
O207 O 0.67032 0.10006 0.26445 0.0
H208 H 0.05931 0.928 0.32682 0.0
H209 H 0.10434 0.91065 0.31555 0.0
H210 H 0.14578 0.99795 0.32068 0.0
H211 H 0.10089 0.01547 0.33217 0.0
H212 H 0.13007 0.93366 0.29347 0.0
H213 H 0.21048 0.93971 0.33396 0.0
H214 H 0.16995 0.94131 0.33605 0.0
H215 H 0.19036 0.97415 0.33086 0.0
C216 C 0.07801 0.94354 0.3256 0.0
C217 C 0.07657 0.97309 0.33044 0.0
C218 C 0.10371 0.93356 0.31914 0.0
C219 C 0.12852 0.95287 0.31744 0.0
C220 C 0.12709 0.98251 0.32212 0.0
H221 H 0.3017 0.93521 0.27995 0.0
H222 H 0.2565 0.95265 0.29115 0.0
C223 C 0.10136 0.99253 0.32862 0.0
C224 C 0.1556 0.94203 0.31054 0.0
H225 H 0.2314 0.9291 0.31372 0.0
C226 C 0.15222 0.93255 0.29789 0.0
C227 C 0.18441 0.94057 0.31637 0.0
C228 C 0.1891 0.94921 0.33009 0.0
C229 C 0.17704 0.92211 0.29084 0.0
C230 C 0.20585 0.92075 0.29666 0.0
C231 C 0.20924 0.93021 0.3093 0.0
C232 C 0.23293 0.90997 0.28974 0.0
C233 C 0.17237 0.91325 0.27714 0.0
C234 C 0.2347 0.8801 0.28535 0.0
C235 C 0.26052 0.87007 0.27894 0.0
C236 C 0.28499 0.88973 0.27688 0.0
C237 C 0.28318 0.91956 0.28137 0.0
C238 C 0.25741 0.92955 0.28778 0.0
H239 H 0.15075 0.92225 0.27329 0.0
H240 H 0.1913 0.92149 0.27113 0.0
H241 H 0.17167 0.88828 0.27641 0.0
H242 H 0.21623 0.86451 0.28698 0.0
H243 H 0.26136 0.84691 0.27564 0.0
H244 H 0.02269 0.59696 0.58758 0.0
H245 H 0.0432 0.63784 0.5746 0.0
H246 H 0.08284 0.57276 0.5491 0.0
H247 H 0.06229 0.53161 0.56199 0.0
H248 H 0.10601 0.64792 0.56827 0.0
H249 H 0.03289 0.63028 0.52583 0.0
H250 H 0.02371 0.61478 0.5412 0.0
H251 H 0.05278 0.59774 0.53171 0.0
C252 C 0.03564 0.59129 0.57918 0.0
C253 C 0.04075 0.56102 0.57579 0.0
C254 C 0.0474 0.61468 0.5718 0.0
C255 C 0.06429 0.60826 0.56086 0.0
C256 C 0.06952 0.57813 0.55743 0.0
H257 H 0.16851 0.74719 0.52024 0.0
H258 H 0.15429 0.69936 0.5304 0.0
C259 C 0.05783 0.55468 0.56483 0.0
C260 C 0.07664 0.63329 0.55316 0.0
H261 H 0.06916 0.66923 0.52467 0.0
C262 C 0.09818 0.6525 0.55869 0.0
C263 C 0.06619 0.63915 0.54071 0.0
C264 C 0.04246 0.6196 0.53448 0.0
C265 C 0.10925 0.6778 0.55217 0.0
C266 C 0.09862 0.6838 0.53976 0.0
C267 C 0.07741 0.66433 0.53415 0.0
C268 C 0.10726 0.71162 0.53292 0.0
C269 C 0.13135 0.69855 0.55876 0.0
C270 C 0.08535 0.73389 0.53072 0.0
C271 C 0.09336 0.76107 0.52496 0.0
C272 C 0.12342 0.7664 0.52121 0.0
C273 C 0.1452 0.74371 0.52307 0.0
C274 C 0.13716 0.71648 0.5289 0.0
H275 H 0.13346 0.69341 0.56904 0.0
H276 H 0.15402 0.69606 0.55434 0.0
H277 H 0.12425 0.72245 0.55766 0.0
H278 H 0.06215 0.73049 0.53374 0.0
H279 H 0.07605 0.77808 0.52361 0.0
H280 H 0.40396 0.51221 0.83759 0.0
H281 H 0.36196 0.53518 0.82598 0.0
H282 H 0.42463 0.57168 0.79862 0.0
H283 H 0.46685 0.54855 0.81009 0.0
H284 H 0.35371 0.59742 0.82056 0.0
H285 H 0.36073 0.52752 0.77675 0.0
H286 H 0.37906 0.51683 0.7914 0.0
H287 H 0.39522 0.54577 0.78159 0.0
C288 C 0.40884 0.52494 0.82905 0.0
C289 C 0.43874 0.52846 0.82473 0.0
C290 C 0.38482 0.53811 0.82246 0.0
C291 C 0.39022 0.55488 0.81141 0.0
C292 C 0.41999 0.55844 0.80704 0.0
H293 H 0.25068 0.66937 0.77635 0.0
H294 H 0.29878 0.65208 0.78551 0.0
C295 C 0.44407 0.54528 0.81363 0.0
C296 C 0.36457 0.569 0.80462 0.0
H297 H 0.32406 0.56623 0.77704 0.0
C298 C 0.34728 0.59079 0.81101 0.0
C299 C 0.35629 0.56011 0.7922 0.0
C300 C 0.37359 0.53612 0.78507 0.0
C301 C 0.32155 0.60364 0.80538 0.0
C302 C 0.3132 0.59465 0.79298 0.0
C303 C 0.33075 0.5732 0.78651 0.0
C304 C 0.28491 0.60536 0.78698 0.0
C305 C 0.30288 0.62587 0.8129 0.0
C306 C 0.26159 0.58469 0.78455 0.0
C307 C 0.23429 0.59444 0.77932 0.0
C308 C 0.22985 0.62504 0.77638 0.0
C309 C 0.25345 0.64568 0.77859 0.0
C310 C 0.28084 0.63588 0.78385 0.0
H311 H 0.30929 0.62618 0.8231 0.0
H312 H 0.30635 0.64887 0.80901 0.0
H313 H 0.27841 0.62041 0.81213 0.0
H314 H 0.26435 0.56105 0.78689 0.0
H315 H 0.21656 0.57798 0.77769 0.0
H316 H 0.52566 0.90535 0.07649 0.0
H317 H 0.50645 0.86308 0.06389 0.0
H318 H 0.4156 0.8976 0.06752 0.0
H319 H 0.43457 0.94014 0.07999 0.0
H320 H 0.46381 0.81998 0.07165 0.0
H321 H 0.42371 0.88282 0.02921 0.0
H322 H 0.44918 0.89917 0.04073 0.0
H323 H 0.4094 0.89645 0.04411 0.0
C324 C 0.50162 0.90409 0.07454 0.0
C325 C 0.48166 0.92615 0.07921 0.0
C326 C 0.4907 0.87992 0.06734 0.0
C327 C 0.45968 0.87747 0.06463 0.0
C328 C 0.43969 0.89942 0.06928 0.0
H329 H 0.3545 0.73904 0.02533 0.0
H330 H 0.37033 0.78413 0.03716 0.0
C331 C 0.45058 0.92362 0.07647 0.0
C332 C 0.44817 0.85118 0.05743 0.0
H333 H 0.41169 0.83072 0.03014 0.0
C334 C 0.45249 0.8223 0.06256 0.0
C335 C 0.4332 0.85437 0.04563 0.0
C336 C 0.42876 0.88483 0.03951 0.0
C337 C 0.44215 0.79644 0.05622 0.0
C338 C 0.4276 0.79957 0.04433 0.0
C339 C 0.42288 0.82847 0.03926 0.0
C340 C 0.41801 0.77296 0.03684 0.0
C341 C 0.44657 0.76601 0.06238 0.0
C342 C 0.43966 0.7522 0.03255 0.0
C343 C 0.43073 0.72654 0.02584 0.0
C344 C 0.39997 0.72127 0.02322 0.0
C345 C 0.37835 0.74249 0.02725 0.0
C346 C 0.38733 0.76821 0.03399 0.0
H347 H 0.45047 0.76809 0.07276 0.0
H348 H 0.42663 0.75122 0.06077 0.0
H349 H 0.46669 0.75487 0.05815 0.0
H350 H 0.4635 0.7558 0.03444 0.0
H351 H 0.44793 0.71072 0.02278 0.0
H352 H 0.10966 0.51095 0.92758 0.0
H353 H 0.15463 0.52912 0.93884 0.0
H354 H 0.09817 0.56354 0.96893 0.0
H355 H 0.05314 0.54527 0.95784 0.0
H356 H 0.1671 0.58966 0.94598 0.0
H357 H 0.16259 0.51307 0.9877 0.0
H358 H 0.1417 0.50581 0.97327 0.0
H359 H 0.12819 0.53329 0.98446 0.0
C360 C 0.10682 0.52212 0.93665 0.0
C361 C 0.07783 0.52657 0.94183 0.0
C362 C 0.13251 0.53256 0.94304 0.0
C363 C 0.12969 0.54739 0.95476 0.0
C364 C 0.10084 0.55171 0.95999 0.0
H365 H 0.26977 0.65698 0.99134 0.0
H366 H 0.22232 0.6396 0.98163 0.0
C367 C 0.07514 0.54134 0.95361 0.0
C368 C 0.15689 0.55919 0.9613 0.0
H369 H 0.1991 0.55222 0.98829 0.0
C370 C 0.17414 0.58152 0.95523 0.0
C371 C 0.16599 0.54836 0.97333 0.0
C372 C 0.14885 0.52363 0.98006 0.0
C373 C 0.20033 0.59338 0.9609 0.0
C374 C 0.20922 0.58282 0.973 0.0
C375 C 0.192 0.56045 0.97906 0.0
C376 C 0.23731 0.59345 0.97922 0.0
C377 C 0.21869 0.61656 0.95377 0.0
C378 C 0.26106 0.5731 0.98133 0.0
C379 C 0.28802 0.58288 0.98687 0.0
C380 C 0.29166 0.61321 0.99049 0.0
C381 C 0.26762 0.63349 0.9886 0.0
C382 C 0.2406 0.62366 0.98301 0.0
H383 H 0.21224 0.61769 0.94358 0.0
H384 H 0.21485 0.63913 0.95805 0.0
H385 H 0.24324 0.61143 0.95445 0.0
H386 H 0.25889 0.54967 0.9785 0.0
H387 H 0.3061 0.56671 0.98823 0.0
H388 H 0.493 0.59201 0.18352 0.0
H389 H 0.47655 0.63627 0.19557 0.0
H390 H 0.39055 0.5936 0.20285 0.0
H391 H 0.40688 0.54907 0.19096 0.0
H392 H 0.42627 0.67332 0.19076 0.0
H393 H 0.41864 0.61968 0.23835 0.0
H394 H 0.43842 0.60237 0.22523 0.0
H395 H 0.39781 0.60091 0.22599 0.0
C396 C 0.47063 0.59196 0.18773 0.0
C397 C 0.4513 0.56696 0.18633 0.0
C398 C 0.46128 0.61727 0.1946 0.0
C399 C 0.43252 0.618 0.20024 0.0
C400 C 0.41307 0.59322 0.19878 0.0
H401 H 0.34047 0.75808 0.24411 0.0
H402 H 0.35282 0.71158 0.23253 0.0
C403 C 0.4224 0.56787 0.19192 0.0
C404 C 0.42264 0.64512 0.20733 0.0
H405 H 0.4014 0.67011 0.23669 0.0
C406 C 0.42086 0.67265 0.20081 0.0
C407 C 0.41543 0.64406 0.22041 0.0
C408 C 0.41787 0.61525 0.22797 0.0
C409 C 0.41202 0.69923 0.20701 0.0
C410 C 0.4053 0.69829 0.22013 0.0
C411 C 0.40659 0.67069 0.22662 0.0
C412 C 0.39796 0.72598 0.22735 0.0
C413 C 0.40968 0.72805 0.19945 0.0
C414 C 0.41948 0.7491 0.22846 0.0
C415 C 0.41254 0.77554 0.23504 0.0
C416 C 0.38397 0.77929 0.2407 0.0
C417 C 0.36264 0.75583 0.23981 0.0
C418 C 0.36964 0.72931 0.23322 0.0
H419 H 0.40757 0.72349 0.18911 0.0
H420 H 0.38992 0.74168 0.20255 0.0
H421 H 0.43044 0.74169 0.20096 0.0
H422 H 0.44169 0.74669 0.22421 0.0
H423 H 0.42951 0.79314 0.23562 0.0
H424 H 0.3812 0.96315 0.41075 0.0
H425 H 0.34115 0.93956 0.42338 0.0
H426 H 0.40223 0.93213 0.45517 0.0
H427 H 0.44246 0.95552 0.44264 0.0
H428 H 0.3675 0.87829 0.44949 0.0
H429 H 0.29694 0.9819 0.45338 0.0
H430 H 0.30791 0.97117 0.43757 0.0
H431 H 0.33627 0.98299 0.44874 0.0
C432 C 0.38612 0.95656 0.42044 0.0
C433 C 0.41497 0.96138 0.42572 0.0
C434 C 0.3632 0.94313 0.42763 0.0
C435 C 0.36874 0.93435 0.44021 0.0
C436 C 0.39756 0.93879 0.44547 0.0
H437 H 0.24413 0.89833 0.50071 0.0
H438 H 0.28622 0.9142 0.48726 0.0
C439 C 0.42046 0.95227 0.43831 0.0
C440 C 0.3444 0.92093 0.44801 0.0
H441 H 0.27699 0.93724 0.46222 0.0
C442 C 0.34763 0.89107 0.45226 0.0
C443 C 0.31872 0.93785 0.45166 0.0
C444 C 0.3147 0.97034 0.44771 0.0
C445 C 0.32571 0.87765 0.46009 0.0
C446 C 0.29997 0.89455 0.46367 0.0
C447 C 0.29675 0.92436 0.45939 0.0
C448 C 0.2765 0.88231 0.47225 0.0
C449 C 0.33051 0.84581 0.46473 0.0
C450 C 0.25743 0.85873 0.46833 0.0
C451 C 0.23329 0.84955 0.47601 0.0
C452 C 0.22787 0.86396 0.48769 0.0
C453 C 0.24771 0.88681 0.49176 0.0
C454 C 0.27173 0.89595 0.48409 0.0
H455 H 0.35404 0.83792 0.46305 0.0
H456 H 0.32544 0.84415 0.47503 0.0
H457 H 0.31483 0.83043 0.45963 0.0
H458 H 0.26054 0.8482 0.45913 0.0
H459 H 0.21826 0.83199 0.47262 0.0
H460 H 0.00185 0.9467 0.70882 0.0
H461 H 0.02314 0.9047 0.72096 0.0
H462 H 0.06435 0.86958 0.68689 0.0
H463 H 0.04259 0.91098 0.67464 0.0
H464 H 0.03682 0.82596 0.70036 0.0
H465 H 0.11035 0.89398 0.73206 0.0
H466 H 0.0713 0.90509 0.73258 0.0
H467 H 0.09247 0.90954 0.71811 0.0
C468 C 0.01543 0.93003 0.70391 0.0
C469 C 0.02058 0.93221 0.69077 0.0
C470 C 0.0278 0.90619 0.71088 0.0
C471 C 0.04584 0.88438 0.70487 0.0
C472 C 0.05065 0.88629 0.69173 0.0
H473 H 0.16029 0.75012 0.74167 0.0
H474 H 0.1411 0.79424 0.73013 0.0
C475 C 0.03814 0.90995 0.68474 0.0
C476 C 0.05898 0.85899 0.71216 0.0
H477 H 0.10468 0.84197 0.73732 0.0
C478 C 0.05175 0.82946 0.70841 0.0
C479 C 0.07887 0.86361 0.72252 0.0
C480 C 0.08898 0.89476 0.72649 0.0
C481 C 0.0634 0.8044 0.71489 0.0
C482 C 0.08218 0.80904 0.7256 0.0
C483 C 0.08996 0.83853 0.7292 0.0
C484 C 0.09386 0.78345 0.73318 0.0
C485 C 0.05586 0.77321 0.71005 0.0
C486 C 0.07366 0.76334 0.739 0.0
C487 C 0.08451 0.73812 0.74548 0.0
C488 C 0.11579 0.73281 0.74642 0.0
C489 C 0.13607 0.75365 0.74106 0.0
C490 C 0.12515 0.77881 0.73448 0.0
H491 H 0.0489 0.77365 0.69991 0.0
H492 H 0.07547 0.75772 0.71106 0.0
H493 H 0.03671 0.76392 0.71563 0.0
H494 H 0.04945 0.76694 0.73839 0.0
H495 H 0.06836 0.72261 0.74963 0.0
H496 H 0.62235 0.47123 0.84927 0.0
H497 H 0.66204 0.45219 0.83519 0.0
H498 H 0.59449 0.42661 0.80763 0.0
H499 H 0.55469 0.44598 0.82152 0.0
H500 H 0.6705 0.39413 0.82514 0.0
H501 H 0.6529 0.47921 0.78711 0.0
H502 H 0.63696 0.48328 0.80279 0.0
H503 H 0.61962 0.45834 0.79145 0.0
C504 C 0.61592 0.46163 0.8402 0.0
C505 C 0.58538 0.46035 0.83647 0.0
C506 C 0.63862 0.45069 0.83219 0.0
C507 C 0.6312 0.43836 0.82031 0.0
C508 C 0.60072 0.43655 0.81666 0.0
H509 H 0.76007 0.33926 0.77224 0.0
H510 H 0.71583 0.35232 0.78526 0.0
C511 C 0.57802 0.44756 0.82464 0.0
C512 C 0.65542 0.42757 0.81174 0.0
H513 H 0.68827 0.44046 0.78293 0.0
C514 C 0.67438 0.40415 0.81589 0.0
C515 C 0.66047 0.4409 0.79973 0.0
C516 C 0.64162 0.467 0.79501 0.0
C517 C 0.69848 0.39381 0.80837 0.0
C518 C 0.70336 0.40699 0.79632 0.0
C519 C 0.68423 0.43023 0.79213 0.0
C520 C 0.72956 0.39868 0.78829 0.0
C521 C 0.71908 0.3696 0.81354 0.0
C522 C 0.75145 0.42057 0.78547 0.0
C523 C 0.77645 0.41327 0.77801 0.0
C524 C 0.78004 0.38391 0.77319 0.0
C525 C 0.75792 0.36203 0.77588 0.0
C526 C 0.73278 0.3694 0.78336 0.0
H527 H 0.716 0.36631 0.82391 0.0
H528 H 0.714 0.3479 0.80872 0.0
H529 H 0.74318 0.37525 0.81168 0.0
H530 H 0.74934 0.44331 0.78916 0.0
H531 H 0.79309 0.43065 0.7761 0.0
H532 H 0.52305 0.04666 0.05487 0.0
H533 H 0.55062 0.08617 0.04346 0.0
H534 H 0.56638 0.1332 0.07869 0.0
H535 H 0.5388 0.09393 0.09021 0.0
H536 H 0.53646 0.15111 0.04404 0.0
H537 H 0.65204 0.12392 0.06158 0.0
H538 H 0.62128 0.09703 0.06197 0.0
H539 H 0.62294 0.12692 0.07346 0.0
C540 C 0.53236 0.06541 0.0602 0.0
C541 C 0.52875 0.06716 0.07345 0.0
C542 C 0.54813 0.08789 0.05366 0.0
C543 C 0.56087 0.11227 0.06028 0.0
C544 C 0.5571 0.11427 0.07347 0.0
H545 H 0.65471 0.2765 0.04145 0.0
H546 H 0.63548 0.23067 0.05162 0.0
C547 C 0.54113 0.09193 0.08 0.0
C548 C 0.57716 0.13624 0.05333 0.0
H549 H 0.64658 0.16905 0.04969 0.0
C550 C 0.56057 0.15494 0.04517 0.0
C551 C 0.60855 0.14114 0.05494 0.0
C552 C 0.62742 0.12111 0.06338 0.0
C553 C 0.5744 0.17904 0.0388 0.0
C554 C 0.60587 0.18399 0.04036 0.0
C555 C 0.62252 0.16508 0.04846 0.0
C556 C 0.62146 0.2095 0.03405 0.0
C557 C 0.55492 0.19962 0.0308 0.0
C558 C 0.62126 0.2121 0.02077 0.0
C559 C 0.632 0.23831 0.01496 0.0
C560 C 0.64353 0.26215 0.02233 0.0
C561 C 0.6459 0.25851 0.03554 0.0
C562 C 0.63488 0.23237 0.04136 0.0
H563 H 0.53052 0.19739 0.0332 0.0
H564 H 0.56166 0.22358 0.03206 0.0
H565 H 0.55772 0.19363 0.02064 0.0
H566 H 0.6117 0.19435 0.01494 0.0
H567 H 0.63015 0.24039 0.00474 0.0
H568 H 0.94808 0.04367 0.31794 0.0
H569 H 0.90688 0.06183 0.30445 0.0
H570 H 0.84178 0.01875 0.32897 0.0
H571 H 0.88282 0.00056 0.34259 0.0
H572 H 0.85971 0.02924 0.29156 0.0
H573 H 0.81595 0.10907 0.32789 0.0
H574 H 0.85312 0.09227 0.32888 0.0
H575 H 0.82022 0.07076 0.3332 0.0
C576 C 0.92502 0.03786 0.32043 0.0
C577 C 0.91871 0.02086 0.3314 0.0
C578 C 0.90154 0.04825 0.31271 0.0
C579 C 0.87136 0.04202 0.31585 0.0
C580 C 0.86497 0.02419 0.32652 0.0
H581 H 0.70727 0.06027 0.27281 0.0
H582 H 0.75255 0.043 0.28394 0.0
C583 C 0.88845 0.01368 0.33424 0.0
C584 C 0.84653 0.05467 0.30808 0.0
H585 H 0.78623 0.10272 0.30931 0.0
C586 C 0.84368 0.04538 0.2954 0.0
C587 C 0.82606 0.07611 0.31309 0.0
C588 C 0.82902 0.08792 0.32648 0.0
C589 C 0.82023 0.05635 0.28768 0.0
C590 C 0.79906 0.0769 0.29285 0.0
C591 C 0.80244 0.08683 0.30542 0.0
C592 C 0.77249 0.08744 0.28554 0.0
C593 C 0.81834 0.04597 0.27406 0.0
C594 C 0.76855 0.11824 0.2829 0.0
C595 C 0.74261 0.12823 0.27654 0.0
C596 C 0.72012 0.10756 0.27286 0.0
C597 C 0.72425 0.07673 0.27549 0.0
C598 C 0.75018 0.06678 0.28178 0.0
H599 H 0.84032 0.03682 0.27066 0.0
H600 H 0.80116 0.02778 0.27328 0.0
H601 H 0.81136 0.06475 0.26773 0.0
H602 H 0.78548 0.13453 0.28583 0.0
H603 H 0.73996 0.15212 0.27468 0.0
H604 H 0.94134 0.3944 0.60691 0.0
H605 H 0.92138 0.35397 0.59349 0.0
H606 H 0.96476 0.39357 0.56083 0.0
H607 H 0.98439 0.4344 0.57412 0.0
H608 H 0.90514 0.3782 0.55636 0.0
H609 H 0.96732 0.28279 0.57838 0.0
H610 H 0.9458 0.30492 0.58944 0.0
H611 H 0.97728 0.3217 0.58125 0.0
C612 C 0.94687 0.39438 0.5969 0.0
C613 C 0.96455 0.41756 0.59159 0.0
C614 C 0.93552 0.37119 0.58925 0.0
C615 C 0.9419 0.37058 0.5762 0.0
C616 C 0.95964 0.3936 0.57089 0.0
H617 H 0.91832 0.22012 0.52507 0.0
H618 H 0.9372 0.26188 0.53798 0.0
C619 C 0.9709 0.41686 0.57851 0.0
C620 C 0.92944 0.34642 0.568 0.0
H621 H 0.92907 0.27017 0.56346 0.0
C622 C 0.9104 0.35457 0.55788 0.0
C623 C 0.93659 0.31567 0.56994 0.0
C624 C 0.95809 0.30568 0.58026 0.0
C625 C 0.89814 0.33273 0.54969 0.0
C626 C 0.90471 0.30192 0.55183 0.0
C627 C 0.92388 0.29381 0.56191 0.0
C628 C 0.89278 0.27768 0.54352 0.0
C629 C 0.87885 0.34291 0.53867 0.0
C630 C 0.86149 0.27277 0.54232 0.0
C631 C 0.85059 0.24898 0.53485 0.0
C632 C 0.87086 0.22957 0.5286 0.0
C633 C 0.90214 0.2347 0.52977 0.0
C634 C 0.91297 0.25851 0.53716 0.0
H635 H 0.88239 0.36717 0.53647 0.0
H636 H 0.88383 0.32945 0.53002 0.0
H637 H 0.85462 0.33968 0.54109 0.0
H638 H 0.84552 0.28694 0.54735 0.0
H639 H 0.82639 0.24541 0.5342 0.0
H640 H 0.52142 0.07752 0.45048 0.0
H641 H 0.56032 0.10442 0.46258 0.0
H642 H 0.62972 0.05252 0.44381 0.0
H643 H 0.59112 0.02592 0.43153 0.0
H644 H 0.60219 0.08249 0.47919 0.0
H645 H 0.65984 0.13836 0.43897 0.0
H646 H 0.62302 0.121 0.43744 0.0
H647 H 0.65682 0.09836 0.43667 0.0
C648 C 0.54497 0.07188 0.4489 0.0
C649 C 0.55319 0.04966 0.44 0.0
C650 C 0.56715 0.08732 0.45581 0.0
C651 C 0.59791 0.08091 0.4539 0.0
C652 C 0.60614 0.0584 0.44518 0.0
H653 H 0.75285 0.09276 0.50012 0.0
H654 H 0.70474 0.08184 0.48979 0.0
C655 C 0.58403 0.04302 0.43824 0.0
C656 C 0.62148 0.09672 0.46139 0.0
H657 H 0.68824 0.13486 0.45845 0.0
C658 C 0.62077 0.09435 0.47467 0.0
C659 C 0.64534 0.11281 0.45552 0.0
C660 C 0.64617 0.1181 0.44137 0.0
C661 C 0.64428 0.10599 0.48218 0.0
C662 C 0.66938 0.11984 0.47622 0.0
C663 C 0.66916 0.12391 0.46301 0.0
C664 C 0.69728 0.12759 0.48332 0.0
C665 C 0.64224 0.10291 0.49642 0.0
C666 C 0.70937 0.15691 0.48295 0.0
C667 C 0.73715 0.16322 0.4888 0.0
C668 C 0.75332 0.14019 0.49499 0.0
C669 C 0.74089 0.11102 0.49548 0.0
C670 C 0.71324 0.10478 0.48966 0.0
H671 H 0.61829 0.10175 0.49961 0.0
H672 H 0.65352 0.08166 0.49937 0.0
H673 H 0.65353 0.12205 0.50132 0.0
H674 H 0.69752 0.17476 0.47799 0.0
H675 H 0.74627 0.18587 0.48824 0.0
H676 H 0.96288 0.11666 0.65996 0.0
H677 H 0.9449 0.15822 0.67323 0.0
H678 H 0.95535 0.10281 0.7066 0.0
H679 H 0.97399 0.06134 0.69344 0.0
H680 H 0.89529 0.16035 0.68885 0.0
H681 H 0.00072 0.17901 0.71649 0.0
H682 H -0.00026 0.15622 0.70229 0.0
H683 H 0.98671 0.14101 0.71715 0.0
C684 C 0.96157 0.11337 0.67013 0.0
C685 C 0.97004 0.08577 0.67565 0.0
C686 C 0.95122 0.13712 0.6777 0.0
C687 C 0.94916 0.13371 0.69091 0.0
C688 C 0.95738 0.10612 0.69645 0.0
H689 H 0.84789 0.25807 0.73986 0.0
H690 H 0.86485 0.21309 0.72829 0.0
C691 C 0.96792 0.08241 0.6889 0.0
C692 C 0.93782 0.15892 0.69883 0.0
H693 H 0.95736 0.20635 0.72303 0.0
C694 C 0.90882 0.17044 0.69633 0.0
C695 C 0.95567 0.17213 0.70851 0.0
C696 C 0.98754 0.16169 0.71122 0.0
C697 C 0.89719 0.19495 0.70322 0.0
C698 C 0.91484 0.20783 0.71304 0.0
C699 C 0.94378 0.19621 0.71557 0.0
C700 C 0.90454 0.23456 0.72029 0.0
C701 C 0.86654 0.20739 0.69966 0.0
C702 C 0.92164 0.26121 0.7199 0.0
C703 C 0.91222 0.2867 0.72659 0.0
C704 C 0.88548 0.28605 0.7338 0.0
C705 C 0.86848 0.25925 0.73431 0.0
C706 C 0.87805 0.23363 0.72765 0.0
H707 H 0.8593 0.19975 0.69007 0.0
H708 H 0.84947 0.19943 0.70662 0.0
H709 H 0.86666 0.23245 0.69983 0.0
H710 H 0.94218 0.26237 0.71431 0.0
H711 H 0.92581 0.30701 0.72601 0.0
H712 H 0.95103 0.44302 0.94073 0.0
H713 H 0.9098 0.42084 0.95305 0.0
H714 H 0.85718 0.50194 0.94811 0.0
H715 H 0.89816 0.52426 0.93561 0.0
H716 H 0.88111 0.44077 0.9754 0.0
H717 H 0.80122 0.435 0.93474 0.0
H718 H 0.84123 0.44174 0.93272 0.0
H719 H 0.81663 0.4719 0.9376 0.0
C720 C 0.93073 0.45623 0.94228 0.0
C721 C 0.92776 0.48534 0.93709 0.0
C722 C 0.90723 0.4435 0.94934 0.0
C723 C 0.88031 0.45956 0.9513 0.0
C724 C 0.87759 0.48896 0.94648 0.0
H725 H 0.70924 0.42637 0.98724 0.0
H726 H 0.75396 0.44692 0.97678 0.0
C727 C 0.90108 0.50172 0.93939 0.0
C728 C 0.85493 0.44536 0.95826 0.0
H729 H 0.78127 0.42344 0.95506 0.0
C730 C 0.8593 0.43682 0.97096 0.0
C731 C 0.82663 0.44007 0.95238 0.0
C732 C 0.82112 0.44737 0.93858 0.0
C733 C 0.83573 0.42394 0.97808 0.0
C734 C 0.80729 0.41913 0.97226 0.0
C735 C 0.8031 0.42727 0.9595 0.0
C736 C 0.78108 0.40672 0.97928 0.0
C737 C 0.84116 0.41637 0.99186 0.0
C738 C 0.78155 0.37725 0.98419 0.0
C739 C 0.75594 0.3654 0.99023 0.0
C740 C 0.72948 0.38281 0.99135 0.0
C741 C 0.72927 0.41237 0.98652 0.0
C742 C 0.75479 0.42416 0.98053 0.0
H743 H 0.86188 0.4275 0.99561 0.0
H744 H 0.82154 0.42326 0.99778 0.0
H745 H 0.84405 0.39161 0.99285 0.0
H746 H 0.80146 0.36323 0.98311 0.0
H747 H 0.75667 0.34251 0.99381 0.0
H748 H 0.53599 0.44306 0.19619 0.0
H749 H 0.55883 0.40344 0.20921 0.0
H750 H 0.51616 0.33554 0.18594 0.0
H751 H 0.49325 0.37497 0.17282 0.0
H752 H 0.52999 0.35534 0.22295 0.0
H753 H 0.60795 0.31407 0.1854 0.0
H754 H 0.58938 0.35033 0.18457 0.0
H755 H 0.56891 0.31651 0.18069 0.0
C756 C 0.53134 0.4197 0.19386 0.0
C757 C 0.51292 0.41215 0.18342 0.0
C758 C 0.54442 0.39713 0.20131 0.0
C759 C 0.53954 0.36665 0.19839 0.0
C760 C 0.52058 0.35899 0.18819 0.0
H761 H 0.56356 0.20365 0.24022 0.0
H762 H 0.54564 0.24925 0.22963 0.0
C763 C 0.50736 0.38155 0.18076 0.0
C764 C 0.55425 0.34281 0.20602 0.0
H765 H 0.60375 0.28387 0.20399 0.0
C766 C 0.54628 0.33983 0.21885 0.0
C767 C 0.57587 0.323 0.20068 0.0
C768 C 0.58632 0.3262 0.18711 0.0
C769 C 0.55852 0.31671 0.22636 0.0
C770 C 0.57902 0.29601 0.22085 0.0
C771 C 0.58788 0.29971 0.20816 0.0
C772 C 0.5901 0.26929 0.22785 0.0
C773 C 0.54931 0.31451 0.24012 0.0
C774 C 0.62113 0.26532 0.2302 0.0
C775 C 0.6315 0.23919 0.23627 0.0
C776 C 0.61097 0.21655 0.2399 0.0
C777 C 0.57993 0.22073 0.23755 0.0
C778 C 0.56961 0.24684 0.23157 0.0
H779 H 0.54029 0.33629 0.24373 0.0
H780 H 0.53126 0.29725 0.2411 0.0
H781 H 0.56874 0.30757 0.24615 0.0
H782 H 0.63729 0.28236 0.22729 0.0
H783 H 0.65555 0.2365 0.23793 0.0
H784 H 0.9461 0.9809 0.39605 0.0
H785 H 0.95807 0.95609 0.41621 0.0
H786 H 0.04189 0.92337 0.40031 0.0
H787 H 0.02945 0.94674 0.38006 0.0
H788 H 0.01876 0.88272 0.41568 0.0
H789 H 0.0175 0.99421 0.43989 0.0
H790 H 0.98185 0.98345 0.43311 0.0
H791 H 0.01379 0.99054 0.42294 0.0
C792 C 0.96679 0.9679 0.39679 0.0
C793 C 0.98701 0.96611 0.38652 0.0
C794 C 0.97373 0.95398 0.40835 0.0
C795 C 0.00134 0.9387 0.4099 0.0
C796 C 0.02056 0.93524 0.39939 0.0
H797 H 0.11626 0.92078 0.47424 0.0
H798 H 0.08672 0.9356 0.45566 0.0
C799 C 0.0134 0.94865 0.38779 0.0
C800 C 0.01148 0.92789 0.42255 0.0
H801 H 0.03024 0.95213 0.45232 0.0
C802 C 0.02108 0.89782 0.42374 0.0
C803 C 0.01483 0.94776 0.43301 0.0
C804 C 0.00673 0.98084 0.43219 0.0
C805 C 0.03493 0.88731 0.43489 0.0
C806 C 0.03821 0.90716 0.44535 0.0
C807 C 0.02757 0.93691 0.44433 0.0
C808 C 0.05496 0.89847 0.45702 0.0
C809 C 0.04735 0.85556 0.43506 0.0
C810 C 0.04665 0.87298 0.46413 0.0
C811 C 0.06391 0.86415 0.47463 0.0
C812 C 0.08929 0.88111 0.47837 0.0
C813 C 0.0968 0.9073 0.47158 0.0
C814 C 0.0799 0.91579 0.46096 0.0
H815 H 0.04999 0.84627 0.42532 0.0
H816 H 0.06969 0.85472 0.43988 0.0
H817 H 0.03145 0.84069 0.44028 0.0
H818 H 0.027 0.85976 0.46151 0.0
H819 H 0.05746 0.84402 0.4798 0.0
H820 H 0.04133 0.48728 0.64338 0.0
H821 H 0.0638 0.49978 0.66388 0.0
H822 H 0.13527 0.54855 0.64502 0.0
H823 H 0.11248 0.53687 0.62441 0.0
H824 H 0.11949 0.49342 0.676 0.0
H825 H 0.09334 0.61379 0.66588 0.0
H826 H 0.07938 0.5834 0.65611 0.0
H827 H 0.11787 0.59607 0.65452 0.0
C828 C 0.06215 0.50021 0.64354 0.0
C829 C 0.07477 0.51163 0.63225 0.0
C830 C 0.07498 0.50728 0.65529 0.0
C831 C 0.10072 0.52574 0.65597 0.0
C832 C 0.11494 0.5349 0.6447 0.0
H833 H 0.17687 0.62334 0.72006 0.0
H834 H 0.17019 0.59789 0.69966 0.0
C835 C 0.10197 0.52806 0.63292 0.0
C836 C 0.11071 0.53771 0.66844 0.0
H837 H 0.11682 0.60313 0.68538 0.0
C838 C 0.1191 0.51741 0.67805 0.0
C839 C 0.10985 0.56902 0.67111 0.0
C840 C 0.09938 0.59187 0.66142 0.0
C841 C 0.12678 0.52765 0.69027 0.0
C842 C 0.1257 0.5589 0.69292 0.0
C843 C 0.11775 0.57918 0.68327 0.0
C844 C 0.13176 0.57132 0.70573 0.0
C845 C 0.13609 0.50504 0.70023 0.0
C846 C 0.11243 0.56466 0.71592 0.0
C847 C 0.11611 0.57926 0.72761 0.0
C848 C 0.13911 0.60085 0.72923 0.0
C849 C 0.15891 0.60684 0.7191 0.0
C850 C 0.15518 0.5923 0.70744 0.0
H851 H 0.14302 0.48321 0.69593 0.0
H852 H 0.15508 0.51388 0.70606 0.0
H853 H 0.11665 0.50069 0.70664 0.0
H854 H 0.09383 0.54897 0.71471 0.0
H855 H 0.10049 0.57425 0.73525 0.0
H856 H 0.52631 0.53988 0.88795 0.0
H857 H 0.51699 0.56875 0.90726 0.0
H858 H 0.47133 0.6373 0.88543 0.0
H859 H 0.47989 0.60815 0.86601 0.0
H860 H 0.52684 0.62754 0.91659 0.0
H861 H 0.40457 0.60357 0.9083 0.0
H862 H 0.43404 0.58575 0.89915 0.0
H863 H 0.42356 0.6242 0.89599 0.0
C864 C 0.51484 0.5614 0.88717 0.0
C865 C 0.50319 0.57137 0.87547 0.0
C866 C 0.50961 0.57793 0.89824 0.0
C867 C 0.49282 0.60475 0.8978 0.0
C868 C 0.48376 0.61628 0.88599 0.0
H869 H 0.39708 0.68039 0.96314 0.0
H870 H 0.42103 0.6774 0.94222 0.0
C871 C 0.48879 0.59964 0.87489 0.0
C872 C 0.48178 0.61825 0.9098 0.0
H873 H 0.41753 0.62706 0.9274 0.0
C874 C 0.50292 0.62786 0.91891 0.0
C875 C 0.45054 0.61851 0.91281 0.0
C876 C 0.4268 0.60727 0.90362 0.0
C877 C 0.49366 0.63706 0.93108 0.0
C878 C 0.46255 0.63616 0.93422 0.0
C879 C 0.44137 0.6278 0.92494 0.0
C880 C 0.45142 0.64108 0.94732 0.0
C881 C 0.51726 0.64728 0.9405 0.0
C882 C 0.46073 0.6218 0.95714 0.0
C883 C 0.44706 0.6234 0.96908 0.0
C884 C 0.42366 0.64417 0.97137 0.0
C885 C 0.41504 0.66412 0.96165 0.0
C886 C 0.42873 0.66251 0.94971 0.0
H887 H 0.5378 0.65594 0.93562 0.0
H888 H 0.50828 0.66518 0.94684 0.0
H889 H 0.52417 0.62779 0.94644 0.0
H890 H 0.47766 0.60458 0.95542 0.0
H891 H 0.45412 0.6077 0.97638 0.0
H892 H 0.44539 0.03108 0.13966 0.0
H893 H 0.42276 0.01862 0.16009 0.0
H894 H 0.35135 0.96995 0.14107 0.0
H895 H 0.37442 0.98148 0.12051 0.0
H896 H 0.36792 0.02391 0.17257 0.0
H897 H 0.39386 0.90407 0.1611 0.0
H898 H 0.40722 0.93492 0.15148 0.0
H899 H 0.36862 0.92236 0.15019 0.0
C900 C 0.4245 0.01826 0.13976 0.0
C901 C 0.4121 0.00664 0.12846 0.0
C902 C 0.41156 0.0112 0.15148 0.0
C903 C 0.38589 0.99263 0.15211 0.0
C904 C 0.37166 0.98363 0.1408 0.0
H905 H 0.32098 0.89094 0.21755 0.0
H906 H 0.32242 0.91734 0.19718 0.0
C907 C 0.38478 0.99039 0.12905 0.0
C908 C 0.37642 0.98003 0.16452 0.0
H909 H 0.37286 0.91392 0.18108 0.0
C910 C 0.36869 -0.00015 0.17441 0.0
C911 C 0.37775 0.9486 0.16693 0.0
C912 C 0.38756 0.92622 0.15692 0.0
C913 C 0.36253 0.98908 0.18669 0.0
C914 C 0.36441 0.95776 0.18911 0.0
C915 C 0.3713 0.93792 0.17915 0.0
C916 C 0.36115 0.94494 0.20201 0.0
C917 C 0.35422 0.01122 0.19699 0.0
C918 C 0.38239 0.95185 0.2115 0.0
C919 C 0.38175 0.93669 0.22313 0.0
C920 C 0.35991 0.91429 0.22543 0.0
C921 C 0.33811 0.90808 0.21605 0.0
C922 C 0.33883 0.92317 0.20442 0.0
H923 H 0.34589 0.03287 0.19298 0.0
H924 H 0.33656 0.00172 0.20334 0.0
H925 H 0.37458 0.01614 0.20282 0.0
H926 H 0.4002 0.96813 0.20972 0.0
H927 H 0.39884 0.9419 0.23017 0.0
H928 H 0.0466 0.61398 0.90155 0.0
H929 H 0.05628 0.64167 0.8819 0.0
H930 H 0.99473 0.58286 0.86186 0.0
H931 H 0.98426 0.55578 0.88145 0.0
H932 H 0.08352 0.6141 0.86285 0.0
H933 H 0.97626 0.66112 0.84463 0.0
H934 H 0.98055 0.64882 0.86087 0.0
H935 H 0.97211 0.62197 0.84851 0.0
C936 C 0.03434 0.6076 0.89305 0.0
C937 C 0.01496 0.58242 0.89304 0.0
C938 C 0.03991 0.62345 0.88182 0.0
C939 C 0.0262 0.61443 0.87039 0.0
C940 C 0.00512 0.59073 0.87058 0.0
H941 H 0.07144 0.61037 0.79174 0.0
H942 H 0.04835 0.60601 0.81283 0.0
C943 C -0.00067 0.57505 0.88181 0.0
C944 C 0.03761 0.62604 0.85807 0.0
H945 H 0.01525 0.65132 0.82889 0.0
C946 C 0.06866 0.62288 0.85553 0.0
C947 C 0.0182 0.63725 0.84847 0.0
C948 C 0.98499 0.64277 0.85081 0.0
C949 C 0.0806 0.62926 0.84351 0.0
C950 C 0.06102 0.63933 0.83379 0.0
C951 C 0.03014 0.64343 0.83638 0.0
C952 C 0.07227 0.64427 0.82074 0.0
C953 C 0.11388 0.6239 0.84113 0.0
C954 C 0.09281 0.66761 0.81819 0.0
C955 C 0.10607 0.67009 0.8062 0.0
C956 C 0.09896 0.64928 0.79656 0.0
C957 C 0.07745 0.62664 0.799 0.0
C958 C 0.06416 0.6242 0.811 0.0
H959 H 0.12479 0.6112 0.84899 0.0
H960 H 0.11723 0.61119 0.83214 0.0
H961 H 0.1256 0.64594 0.84018 0.0
H962 H 0.09914 0.68343 0.82557 0.0
H963 H 0.12242 0.6879 0.80458 0.0
H964 H 0.47788 0.44015 0.11863 0.0
H965 H 0.45745 0.45234 0.09768 0.0
H966 H 0.4017 0.52174 0.1143 0.0
H967 H 0.4216 0.50946 0.13532 0.0
H968 H 0.37375 0.48952 0.09366 0.0
H969 H 0.48934 0.53138 0.08196 0.0
H970 H 0.48682 0.49257 0.08674 0.0
H971 H 0.47826 0.52192 0.09795 0.0
C972 C 0.46072 0.45752 0.11789 0.0
C973 C 0.45177 0.47422 0.12862 0.0
C974 C 0.44918 0.46452 0.10589 0.0
C975 C 0.42867 0.48842 0.10443 0.0
C976 C 0.41771 0.50335 0.11524 0.0
H977 H 0.35585 0.60674 0.04821 0.0
H978 H 0.3655 0.57493 0.0667 0.0
C979 C 0.42913 0.4963 0.12725 0.0
C980 C 0.42107 0.50008 0.09166 0.0
H981 H 0.45171 0.53779 0.06652 0.0
C982 C 0.39078 0.49984 0.08765 0.0
C983 C 0.44342 0.51347 0.08385 0.0
C984 C 0.47626 0.51514 0.08783 0.0
C985 C 0.38214 0.51299 0.07607 0.0
C986 C 0.40433 0.52737 0.06849 0.0
C987 C 0.43474 0.52675 0.07234 0.0
C988 C 0.39647 0.54493 0.05697 0.0
C989 C 0.34938 0.51132 0.07208 0.0
C990 C 0.41114 0.53907 0.0454 0.0
C991 C 0.40605 0.55755 0.03486 0.0
C992 C 0.3862 0.58224 0.03572 0.0
C993 C 0.37114 0.58776 0.04724 0.0
C994 C 0.3764 0.56941 0.05779 0.0
H995 H 0.33788 0.49152 0.0764 0.0
H996 H 0.33745 0.53191 0.07539 0.0
H997 H 0.34713 0.50987 0.0616 0.0
H998 H 0.42692 0.52045 0.04458 0.0
H999 H 0.41794 0.55275 0.0261 0.0
H1000 H 0.54498 0.94663 0.37842 0.0
H1001 H 0.53971 0.92738 0.35678 0.0
H1002 H 0.46772 0.86848 0.36898 0.0
H1003 H 0.473 0.88723 0.39068 0.0
H1004 H 0.50696 0.84412 0.34901 0.0
H1005 H 0.462 0.95908 0.33887 0.0
H1006 H 0.49951 0.95726 0.34544 0.0
H1007 H 0.4677 0.94551 0.35483 0.0
C1008 C 0.5286 0.92895 0.3766 0.0
C1009 C 0.50895 0.91893 0.38623 0.0
C1010 C 0.52559 0.91805 0.36421 0.0
C1011 C 0.50287 0.89706 0.36126 0.0
C1012 C 0.48527 0.88483 0.37107 0.0
H1013 H 0.3975 0.83039 0.29977 0.0
H1014 H 0.42726 0.83678 0.31911 0.0
C1015 C 0.48832 0.89563 0.38348 0.0
C1016 C 0.4945 0.89099 0.3479 0.0
H1017 H 0.46033 0.92386 0.32236 0.0
C1018 C 0.49709 0.86157 0.3431 0.0
C1019 C 0.48157 0.91385 0.34025 0.0
C1020 C 0.47725 0.94567 0.34508 0.0
C1021 C 0.48669 0.8543 0.33085 0.0
C1022 C 0.47277 0.87695 0.32338 0.0
C1023 C 0.47111 0.90655 0.32806 0.0
C1024 C 0.45748 0.87028 0.31115 0.0
C1025 C 0.49063 0.82246 0.32607 0.0
C1026 C 0.46428 0.88724 0.30025 0.0
C1027 C 0.44695 0.88398 0.28922 0.0
C1028 C 0.42247 0.86373 0.28892 0.0
C1029 C 0.41632 0.84609 0.29969 0.0
C1030 C 0.43352 0.84949 0.31073 0.0
H1031 H 0.51023 0.81124 0.3307 0.0
H1032 H 0.47006 0.80917 0.32839 0.0
H1033 H 0.49396 0.82193 0.31562 0.0
H1034 H 0.48251 0.90361 0.3004 0.0
H1035 H 0.45223 0.89784 0.28106 0.0
H1036 H 0.11563 0.96426 0.64583 0.0
H1037 H 0.14182 0.95221 0.62601 0.0
H1038 H 0.07768 0.00647 0.60523 0.0
H1039 H 0.0519 0.01917 0.62492 0.0
H1040 H 0.11353 0.92051 0.60795 0.0
H1041 H 0.15464 0.02685 0.58673 0.0
H1042 H 0.14405 0.02402 0.60325 0.0
H1043 H 0.1156 0.02961 0.59122 0.0
C1044 C 0.10767 0.97439 0.63709 0.0
C1045 C 0.08149 0.99243 0.63695 0.0
C1046 C 0.12267 0.96747 0.62577 0.0
C1047 C 0.11184 0.97856 0.61414 0.0
C1048 C 0.0869 0.99817 0.61409 0.0
H1049 H 0.10553 0.92643 0.53646 0.0
H1050 H 0.10187 0.95086 0.55728 0.0
C1051 C 0.07201 0.00523 0.62539 0.0
C1052 C 0.12327 0.966 0.602 0.0
H1053 H 0.14599 0.98544 0.57211 0.0
C1054 C 0.12127 0.93466 0.60021 0.0
C1055 C 0.13314 0.98449 0.59187 0.0
C1056 C 0.13728 0.01808 0.59341 0.0
C1057 C 0.1274 0.92145 0.58839 0.0
C1058 C 0.13614 0.94007 0.57814 0.0
C1059 C 0.13916 0.97128 0.58 0.0
C1060 C 0.14046 0.92752 0.56525 0.0
C1061 C 0.12305 0.88785 0.58681 0.0
C1062 C 0.16375 0.90683 0.56281 0.0
C1063 C 0.16581 0.89277 0.55097 0.0
C1064 C 0.14466 0.89928 0.54137 0.0
C1065 C 0.12204 0.92087 0.5437 0.0
C1066 C 0.12 0.93492 0.55555 0.0
H1067 H 0.11081 0.87768 0.59497 0.0
H1068 H 0.11025 0.88285 0.57798 0.0
H1069 H 0.14551 0.87678 0.58607 0.0
H1070 H 0.17995 0.90112 0.57015 0.0
H1071 H 0.18363 0.87638 0.54942 0.0
H1072 H 0.53625 0.38049 0.87536 0.0
H1073 H 0.54187 0.36045 0.89678 0.0
H1074 H 0.46815 0.41647 0.90962 0.0
H1075 H 0.46259 0.43701 0.88823 0.0
H1076 H 0.52071 0.42686 0.92238 0.0
H1077 H 0.4985 0.3041 0.92114 0.0
H1078 H 0.5238 0.31578 0.90876 0.0
H1079 H 0.4854 0.32941 0.90886 0.0
C1080 C 0.5206 0.38792 0.88263 0.0
C1081 C 0.49926 0.41068 0.88011 0.0
C1082 C 0.52371 0.37624 0.89488 0.0
C1083 C 0.50533 0.38686 0.90479 0.0
C1084 C 0.4825 0.40791 0.9021 0.0
H1085 H 0.55515 0.37861 0.98583 0.0
H1086 H 0.52371 0.38517 0.96682 0.0
C1087 C 0.47938 0.41963 0.88985 0.0
C1088 C 0.51336 0.37988 0.91813 0.0
H1089 H 0.53051 0.32195 0.93822 0.0
C1090 C 0.52219 0.40396 0.92597 0.0
C1091 C 0.51543 0.35001 0.92274 0.0
C1092 C 0.50498 0.32337 0.91497 0.0
C1093 C 0.53483 0.39892 0.93799 0.0
C1094 C 0.53811 0.36895 0.9424 0.0
C1095 C 0.52797 0.3449 0.93481 0.0
C1096 C 0.55484 0.36212 0.95424 0.0
C1097 C 0.5463 0.42562 0.94551 0.0
C1098 C 0.58209 0.346 0.95355 0.0
C1099 C 0.59989 0.34204 0.96436 0.0
C1100 C 0.59077 0.35416 0.97609 0.0
C1101 C 0.56287 0.36928 0.97689 0.0
C1102 C 0.54495 0.37311 0.96605 0.0
H1103 H 0.54746 0.44647 0.93967 0.0
H1104 H 0.53078 0.42998 0.95358 0.0
H1105 H 0.56918 0.421 0.94943 0.0
H1106 H 0.59012 0.33733 0.94454 0.0
H1107 H 0.62119 0.33013 0.96346 0.0
H1108 H 0.60995 0.02708 0.11777 0.0
H1109 H 0.63691 0.03492 0.13778 0.0
H1110 H 0.56808 0.98445 0.15759 0.0
H1111 H 0.54151 0.97587 0.13769 0.0
H1112 H 0.61062 0.06756 0.15593 0.0
H1113 H 0.64224 0.9574 0.17649 0.0
H1114 H 0.63248 0.96178 0.15993 0.0
H1115 H 0.60326 0.95781 0.17174 0.0
C1116 C 0.60109 0.01678 0.12632 0.0
C1117 C 0.57335 0.00122 0.12615 0.0
C1118 C 0.61654 0.02129 0.13775 0.0
C1119 C 0.6046 0.0102 0.1492 0.0
C1120 C 0.57812 0.99271 0.14889 0.0
H1121 H 0.597 0.06037 0.22703 0.0
H1122 H 0.59338 0.03602 0.20618 0.0
C1123 C 0.56277 0.98805 0.13747 0.0
C1124 C 0.61647 0.02118 0.16154 0.0
H1125 H 0.6357 0.99858 0.19148 0.0
C1126 C 0.61679 0.05248 0.16361 0.0
C1127 C 0.62423 0.00148 0.17159 0.0
C1128 C 0.62583 0.96776 0.16978 0.0
C1129 C 0.62313 0.06458 0.17561 0.0
C1130 C 0.62975 0.04485 0.18578 0.0
C1131 C 0.63049 0.0136 0.18365 0.0
C1132 C 0.63422 0.05648 0.19881 0.0
C1133 C 0.62122 0.09834 0.17746 0.0
C1134 C 0.6588 0.07535 0.20162 0.0
C1135 C 0.66082 0.0894 0.21347 0.0
C1136 C 0.63836 0.08464 0.22271 0.0
C1137 C 0.61454 0.06456 0.22008 0.0
C1138 C 0.61251 0.05056 0.2082 0.0
H1139 H 0.61023 0.10977 0.16928 0.0
H1140 H 0.60833 0.10386 0.18621 0.0
H1141 H 0.64439 0.10768 0.17852 0.0
H1142 H 0.67595 0.07989 0.19453 0.0
H1143 H 0.67959 0.10456 0.21526 0.0
H1144 H 0.02421 0.09153 0.38348 0.0
H1145 H 0.0124 0.11271 0.4044 0.0
H1146 H 0.91779 0.11637 0.3943 0.0
H1147 H 0.9295 0.09673 0.37332 0.0
H1148 H 0.93193 0.16295 0.40855 0.0
H1149 H 0.97709 0.05873 0.43099 0.0
H1150 H 0.00461 0.07991 0.4222 0.0
H1151 H 0.97328 0.0626 0.41404 0.0
C1152 C 0.001 0.0975 0.38564 0.0
C1153 C 0.97773 0.09203 0.3768 0.0
C1154 C 0.99424 0.10931 0.39764 0.0
C1155 C 0.96408 0.11518 0.40107 0.0
C1156 C 0.94121 0.11177 0.39193 0.0
H1157 H 0.87482 0.09744 0.47227 0.0
H1158 H 0.89965 0.09244 0.45166 0.0
C1159 C 0.94797 0.10049 0.3799 0.0
C1160 C 0.9556 0.1228 0.41433 0.0
H1161 H 0.95594 0.09503 0.44456 0.0
C1162 C 0.93734 0.14824 0.41646 0.0
C1163 C 0.96235 0.1033 0.42461 0.0
C1164 C 0.98015 0.07447 0.42288 0.0
C1165 C 0.92471 0.15416 0.42843 0.0
C1166 C 0.93157 0.13474 0.43872 0.0
C1167 C 0.95079 0.10996 0.43669 0.0
C1168 C 0.91718 0.13812 0.45139 0.0
C1169 C 0.90282 0.18016 0.42971 0.0
C1170 C 0.91902 0.16533 0.4582 0.0
C1171 C 0.9042 0.16842 0.46987 0.0
C1172 C 0.88806 0.14407 0.47507 0.0
C1173 C 0.88713 0.11656 0.46848 0.0
C1174 C 0.90137 0.11369 0.45671 0.0
H1175 H 0.89381 0.18741 0.42034 0.0
H1176 H 0.88342 0.17408 0.4359 0.0
H1177 H 0.91471 0.19973 0.43399 0.0
H1178 H 0.93184 0.1842 0.45451 0.0
H1179 H 0.90557 0.18977 0.47485 0.0
H1180 H 0.87663 0.48123 0.61546 0.0
H1181 H 0.84685 0.47056 0.63451 0.0
H1182 H 0.90911 0.52357 0.65688 0.0
H1183 H 0.93833 0.53497 0.63796 0.0
H1184 H 0.871 0.43822 0.65294 0.0
H1185 H 0.8315 0.54483 0.67413 0.0
H1186 H 0.84393 0.54244 0.65782 0.0
H1187 H 0.87101 0.54744 0.67047 0.0
C1188 C 0.88334 0.49152 0.62435 0.0
C1189 C 0.9101 0.50862 0.62521 0.0
C1190 C 0.8663 0.48536 0.63525 0.0
C1191 C 0.87561 0.49637 0.64714 0.0
C1192 C 0.901 0.51535 0.64781 0.0
H1193 H 0.89001 0.4431 0.72306 0.0
H1194 H 0.88896 0.46824 0.70238 0.0
C1195 C 0.91793 0.52161 0.63695 0.0
C1196 C 0.8626 0.4839 0.65902 0.0
H1197 H 0.84147 0.50367 0.68909 0.0
C1198 C 0.86368 0.45248 0.66073 0.0
C1199 C 0.85316 0.50249 0.66921 0.0
C1200 C 0.84954 0.53614 0.66775 0.0
C1201 C 0.85776 0.43936 0.67257 0.0
C1202 C 0.85025 0.45815 0.68295 0.0
C1203 C 0.84746 0.48938 0.68111 0.0
C1204 C 0.84817 0.44588 0.69597 0.0
C1205 C 0.86148 0.40568 0.6741 0.0
C1206 C 0.82514 0.42559 0.69929 0.0
C1207 C 0.82572 0.41113 0.71108 0.0
C1208 C 0.84936 0.41679 0.71972 0.0
C1209 C 0.8716 0.43818 0.71658 0.0
C1210 C 0.87097 0.45264 0.7048 0.0
H1211 H 0.87164 0.39498 0.66556 0.0
H1212 H 0.87598 0.40056 0.68244 0.0
H1213 H 0.83899 0.39524 0.67575 0.0
H1214 H 0.80723 0.42029 0.69262 0.0
H1215 H 0.80817 0.39488 0.71327 0.0
H1216 H 0.47609 0.03752 0.37461 0.0
H1217 H 0.48657 0.06013 0.35398 0.0
H1218 H 0.52777 0.13678 0.3724 0.0
H1219 H 0.51813 0.11393 0.39315 0.0
H1220 H 0.47625 0.1146 0.34107 0.0
H1221 H 0.59793 0.09829 0.35296 0.0
H1222 H 0.56791 0.08265 0.36249 0.0
H1223 H 0.57735 0.12201 0.36375 0.0
C1224 C 0.48677 0.05952 0.37433 0.0
C1225 C 0.49694 0.07361 0.38553 0.0
C1226 C 0.49269 0.07244 0.3625 0.0
C1227 C 0.50866 0.09971 0.36168 0.0
C1228 C 0.51605 0.11533 0.37286 0.0
H1229 H 0.60702 0.1722 0.29697 0.0
H1230 H 0.58028 0.16797 0.3172 0.0
C1231 C 0.5104 0.1023 0.3847 0.0
C1232 C 0.52068 0.10964 0.34924 0.0
H1233 H 0.5868 0.11814 0.33288 0.0
C1234 C 0.50041 0.11566 0.33928 0.0
C1235 C 0.55224 0.11067 0.34692 0.0
C1236 C 0.57518 0.10282 0.35704 0.0
C1237 C 0.51092 0.12263 0.32703 0.0
C1238 C 0.54244 0.1232 0.32472 0.0
C1239 C 0.56264 0.11782 0.33473 0.0
C1240 C 0.5553 0.12789 0.3119 0.0
C1241 C 0.48829 0.12928 0.31668 0.0
C1242 C 0.54994 0.10683 0.30218 0.0
C1243 C 0.56527 0.10913 0.29061 0.0
C1244 C 0.58633 0.13243 0.28862 0.0
C1245 C 0.59098 0.15395 0.29823 0.0
C1246 C 0.57567 0.15164 0.30978 0.0
H1247 H 0.46598 0.13598 0.32065 0.0
H1248 H 0.49658 0.14754 0.31036 0.0
H1249 H 0.48492 0.10869 0.31085 0.0
H1250 H 0.5348 0.08796 0.30373 0.0
H1251 H 0.56129 0.0922 0.28337 0.0
H1252 H 0.90992 0.00216 0.63808 0.0
H1253 H 0.87987 0.0174 0.61967 0.0
H1254 H 0.94524 0.97587 0.59477 0.0
H1255 H 0.97492 0.95993 0.61306 0.0
H1256 H 0.90242 0.05661 0.60294 0.0
H1257 H 0.8677 0.95378 0.577 0.0
H1258 H 0.88067 0.95276 0.59326 0.0
H1259 H 0.90748 0.95379 0.58039 0.0
C1260 C 0.91742 0.99547 0.6287 0.0
C1261 C 0.94497 0.98009 0.62703 0.0
C1262 C 0.90021 0.0042 0.61819 0.0
C1263 C 0.91019 0.99766 0.60584 0.0
C1264 C 0.93669 0.98063 0.60419 0.0
H1265 H 0.89534 0.07416 0.53176 0.0
H1266 H 0.90617 0.04382 0.55067 0.0
C1267 C 0.95379 0.9717 0.6147 0.0
C1268 C 0.89581 0.01251 0.59476 0.0
H1269 H 0.86917 -5e-05 0.56476 0.0
C1270 C 0.89457 0.04418 0.5947 0.0
C1271 C 0.88583 0.99628 0.58397 0.0
C1272 C 0.8852 0.96226 0.5837 0.0
C1273 C 0.88488 0.0601 0.58396 0.0
C1274 C 0.87581 0.04391 0.57303 0.0
C1275 C 0.87623 0.01225 0.57317 0.0
C1276 C 0.8673 0.05974 0.56121 0.0
C1277 C 0.88568 0.09417 0.58418 0.0
C1278 C 0.8415 0.07815 0.56083 0.0
C1279 C 0.83534 0.09557 0.55009 0.0
C1280 C 0.85484 0.09474 0.53955 0.0
C1281 C 0.88 0.07535 0.53977 0.0
C1282 C 0.88615 0.05794 0.55053 0.0
H1283 H 0.89866 0.10303 0.59242 0.0
H1284 H 0.89593 0.10311 0.57533 0.0
H1285 H 0.86221 0.10296 0.58483 0.0
H1286 H 0.82653 0.07955 0.56895 0.0
H1287 H 0.81565 0.11013 0.55015 0.0
H1288 H 0.03008 0.42542 0.88093 0.0
H1289 H 0.02409 0.39991 0.86035 0.0
H1290 H 0.93298 0.43432 0.85751 0.0
H1291 H 0.93837 0.45882 0.87799 0.0
H1292 H 0.93613 0.37584 0.85065 0.0
H1293 H 0.02571 0.4423 0.82614 0.0
H1294 H 0.03735 0.421 0.83981 0.0
H1295 H 0.01189 0.45228 0.8417 0.0
C1296 C 0.00873 0.42729 0.87593 0.0
C1297 C 0.98476 0.44427 0.88107 0.0
C1298 C 0.00542 0.4129 0.86414 0.0
C1299 C 0.97824 0.4156 0.8573 0.0
C1300 C 0.95417 0.43192 0.8626 0.0
H1301 H 0.91948 0.4213 0.78177 0.0
H1302 H 0.94428 0.42767 0.80234 0.0
C1303 C 0.95734 0.446 0.87434 0.0
C1304 C 0.97427 0.40222 0.84449 0.0
H1305 H 0.99605 0.41012 0.81357 0.0
C1306 C 0.94949 0.38293 0.84254 0.0
C1307 C 0.9917 0.41168 0.83395 0.0
C1308 C 0.01804 0.43311 0.83541 0.0
C1309 C 0.94042 0.37437 0.8303 0.0
C1310 C 0.95735 0.38449 0.8197 0.0
C1311 C 0.98321 0.40234 0.8217 0.0
C1312 C 0.94646 0.37986 0.80651 0.0
C1313 C 0.91156 0.35638 0.82884 0.0
C1314 C 0.94048 0.35083 0.80178 0.0
C1315 C 0.92575 0.34718 0.79013 0.0
C1316 C 0.91746 0.37249 0.78288 0.0
C1317 C 0.92554 0.4014 0.78718 0.0
C1318 C 0.93977 0.40505 0.79892 0.0
H1319 H 0.89787 0.35634 0.83769 0.0
H1320 H 0.89737 0.36555 0.82104 0.0
H1321 H 0.91726 0.33262 0.82654 0.0
H1322 H 0.94623 0.33104 0.8073 0.0
H1323 H 0.92012 0.32461 0.78695 0.0
H1324 H 0.58984 0.43808 0.14049 0.0
H1325 H 0.60843 0.43038 0.11901 0.0
H1326 H 0.57965 0.52016 0.10877 0.0
H1327 H 0.56003 0.52776 0.13024 0.0
H1328 H 0.55777 0.48005 0.09267 0.0
H1329 H 0.67967 0.45711 0.09862 0.0
H1330 H 0.65788 0.43315 0.10881 0.0
H1331 H 0.65706 0.47346 0.11113 0.0
C1332 C 0.58813 0.45654 0.13379 0.0
C1333 C 0.57326 0.48348 0.13708 0.0
C1334 C 0.59899 0.45214 0.12149 0.0
C1335 C 0.59573 0.47479 0.11228 0.0
C1336 C 0.58248 0.5024 0.11573 0.0
H1337 H 0.66632 0.4309 0.0368 0.0
H1338 H 0.65634 0.45805 0.05659 0.0
C1339 C 0.57138 0.50674 0.12803 0.0
C1340 C 0.60281 0.46813 0.0988 0.0
H1341 H 0.65631 0.43624 0.0797 0.0
C1342 C 0.57953 0.47101 0.08978 0.0
C1343 C 0.63128 0.45676 0.09495 0.0
C1344 C 0.65795 0.45527 0.10388 0.0
C1345 C 0.58345 0.46136 0.0772 0.0
C1346 C 0.6111 0.44765 0.07363 0.0
C1347 C 0.63492 0.4463 0.08246 0.0
C1348 C 0.61545 0.43326 0.06103 0.0
C1349 C 0.5578 0.46582 0.06792 0.0
C1350 C 0.59571 0.41039 0.05689 0.0
C1351 C 0.60116 0.39512 0.04551 0.0
C1352 C 0.6268 0.40203 0.03818 0.0
C1353 C 0.64637 0.42511 0.04226 0.0
C1354 C 0.64071 0.44062 0.05356 0.0
H1355 H 0.54348 0.48539 0.07066 0.0
H1356 H 0.56631 0.46947 0.05812 0.0
H1357 H 0.54314 0.44548 0.06795 0.0
H1358 H 0.57658 0.40367 0.06266 0.0
H1359 H 0.58588 0.37722 0.04267 0.0
loop_
_geom_bond_atom_site_label_1
_geom_bond_atom_site_label_2
_geom_bond_distance
_geom_bond_site_symmetry_2
_ccdc_geom_bond_type
Mg0 O7 2.141 1_545 S
Mg0 O8 2.048 1_545 S
Mg0 O9 2.048 1_455 S
Mg0 O12 2.141 1_455 S
C1 O2 1.313 . S
C1 O8 1.195 . S
O2 C1 1.313 . S
C3 O4 1.245 . S
C3 O12 1.289 . S
O4 C3 1.245 . S
C5 O6 1.245 . S
C5 O7 1.289 . S
O6 C5 1.245 . S
O7 Mg0 2.141 1_565 S
O7 C5 1.289 . S
O8 Mg0 2.048 1_565 S
O8 C1 1.195 . S
O9 Mg0 2.048 1_655 S
O9 C10 1.195 . S
C10 O9 1.195 . S
C10 O11 1.313 1_545 S
O11 C10 1.313 1_565 S
O12 Mg0 2.141 1_655 S
O12 C3 1.289 . S
Mg13 O20 2.141 1_655 S
Mg13 O21 2.048 1_655 S
Mg13 O22 2.048 . S
Mg13 O25 2.141 . S
C14 O15 1.313 . S
C14 O21 1.195 . S
O15 C14 1.313 . S
C16 O17 1.245 . S
C16 O25 1.289 . S
O17 C16 1.245 . S
C18 O19 1.245 . S
C18 O20 1.289 . S
O19 C18 1.245 . S
O20 Mg13 2.141 1_455 S
O20 C18 1.289 . S
O21 Mg13 2.048 1_455 S
O21 C14 1.195 . S
O22 Mg13 2.048 . S
O22 C23 1.195 . S
C23 O22 1.195 . S
C23 O24 1.313 1_655 S
O24 C23 1.313 1_455 S
O25 Mg13 2.141 . S
O25 C16 1.289 . S
Mg26 O33 2.141 . S
Mg26 O34 2.048 . S
Mg26 O35 2.048 . S
Mg26 O38 2.141 . S
C27 O28 1.313 . S
C27 O34 1.195 . S
O28 C27 1.313 . S
C29 O30 1.245 . S
C29 O38 1.289 . S
O30 C29 1.245 . S
C31 O32 1.245 . S
C31 O33 1.289 . S
O32 C31 1.245 . S
O33 Mg26 2.141 . S
O33 C31 1.289 . S
O34 Mg26 2.048 . S
O34 C27 1.195 . S
O35 Mg26 2.048 . S
O35 C36 1.195 . S
C36 O35 1.195 . S
C36 O37 1.313 . S
O37 C36 1.313 . S
O38 Mg26 2.141 . S
O38 C29 1.289 . S
Mg39 O46 2.141 . S
Mg39 O47 2.048 . S
Mg39 O48 2.048 1_545 S
Mg39 O51 2.141 1_545 S
C40 O41 1.313 . S
C40 O47 1.195 . S
O41 C40 1.313 . S
C42 O43 1.245 . S
C42 O51 1.289 . S
O43 C42 1.245 . S
C44 O45 1.245 . S
C44 O46 1.289 . S
O45 C44 1.245 . S
O46 Mg39 2.141 . S
O46 C44 1.289 . S
O47 Mg39 2.048 . S
O47 C40 1.195 . S
O48 Mg39 2.048 1_565 S
O48 C49 1.195 . S
C49 O48 1.195 . S
C49 O50 1.313 . S
O50 C49 1.313 . S
O51 Mg39 2.141 1_565 S
O51 C42 1.289 . S
Mg52 O59 2.141 . S
Mg52 O60 2.048 . S
Mg52 O61 2.048 1_455 S
Mg52 O64 2.141 1_455 S
C53 O54 1.313 . S
C53 O60 1.195 . S
O54 C53 1.313 . S
C55 O56 1.245 . S
C55 O64 1.289 . S
O56 C55 1.245 . S
C57 O58 1.245 . S
C57 O59 1.289 . S
O58 C57 1.245 . S
O59 Mg52 2.141 . S
O59 C57 1.289 . S
O60 Mg52 2.048 . S
O60 C53 1.195 . S
O61 Mg52 2.048 1_655 S
O61 C62 1.195 . S
C62 O61 1.195 . S
C62 O63 1.313 . S
O63 C62 1.313 . S
O64 Mg52 2.141 1_655 S
O64 C55 1.289 . S
Mg65 O72 2.141 . S
Mg65 O73 2.048 . S
Mg65 O74 2.048 . S
Mg65 O77 2.141 . S
C66 O67 1.313 . S
C66 O73 1.195 . S
O67 C66 1.313 . S
C68 O69 1.245 . S
C68 O77 1.289 . S
O69 C68 1.245 . S
C70 O71 1.245 . S
C70 O72 1.289 . S
O71 C70 1.245 . S
O72 Mg65 2.141 . S
O72 C70 1.289 . S
O73 Mg65 2.048 . S
O73 C66 1.195 . S
O74 Mg65 2.048 . S
O74 C75 1.195 . S
C75 O74 1.195 . S
C75 O76 1.313 . S
O76 C75 1.313 . S
O77 Mg65 2.141 . S
O77 C68 1.289 . S
Mg78 O85 2.141 1_565 S
Mg78 O86 2.048 1_565 S
Mg78 O87 2.048 . S
Mg78 O90 2.141 . S
C79 O80 1.313 . S
C79 O86 1.195 . S
O80 C79 1.313 . S
C81 O82 1.260 . S
C81 O90 1.289 . S
O82 C81 1.260 . S
C83 O84 1.245 . S
C83 O85 1.289 . S
O84 C83 1.245 . S
O85 Mg78 2.141 1_545 S
O85 C83 1.289 . S
O86 Mg78 2.048 1_545 S
O86 C79 1.195 . S
O87 Mg78 2.048 . S
O87 C88 1.195 . S
C88 O87 1.195 . S
C88 O89 1.313 1_565 S
O89 C88 1.313 1_545 S
O90 Mg78 2.141 . S
O90 C81 1.289 . S
Mg91 O98 2.141 1_655 S
Mg91 O99 2.048 1_655 S
Mg91 O100 2.048 1_565 S
Mg91 O103 2.141 1_565 S
C92 O93 1.313 . S
C92 O99 1.195 . S
O93 C92 1.313 . S
C94 O95 1.245 . S
C94 O103 1.289 . S
O95 C94 1.245 . S
C96 O97 1.245 . S
C96 O98 1.289 . S
O97 C96 1.245 . S
O98 Mg91 2.141 1_455 S
O98 C96 1.289 . S
O99 Mg91 2.048 1_455 S
O99 C92 1.195 . S
O100 Mg91 2.048 1_545 S
O100 C101 1.195 . S
C101 O100 1.195 . S
C101 O102 1.313 1_655 S
O102 C101 1.313 1_455 S
O103 Mg91 2.141 1_545 S
O103 C94 1.289 . S
In104 O105 2.294 . S
In104 O106 2.326 . S
In104 O110 2.266 . S
In104 O111 2.338 . S
In104 O112 2.266 1_554 S
In104 O113 2.326 1_554 S
In104 O115 2.294 . S
In104 O116 2.326 . S
O105 In104 2.294 . S
O105 C114 1.240 . S
O106 In104 2.326 . S
O106 C114 1.252 . S
C107 O110 1.252 1_556 S
C107 O111 1.256 1_556 S
C108 O115 1.240 . S
C108 O116 1.252 . S
C109 O112 1.252 . S
C109 O113 1.260 . S
O110 In104 2.266 . S
O110 C107 1.252 1_554 S
O111 In104 2.338 . S
O111 C107 1.256 1_554 S
O112 In104 2.266 1_556 S
O112 C109 1.252 . S
O113 In104 2.326 1_556 S
O113 C109 1.260 . S
C114 O105 1.240 . S
C114 O106 1.252 . S
O115 In104 2.294 . S
O115 C108 1.240 . S
O116 In104 2.326 . S
O116 C108 1.252 . S
In117 O118 2.294 . S
In117 O119 2.326 . S
In117 O123 2.266 . S
In117 O124 2.326 . S
In117 O125 2.266 . S
In117 O126 2.326 . S
In117 O128 2.294 . S
In117 O129 2.326 . S
O118 In117 2.294 . S
O118 C127 1.240 . S
O119 In117 2.326 . S
O119 C127 1.252 . S
C120 O123 1.252 . S
C120 O124 1.260 . S
C121 O128 1.240 . S
C121 O129 1.252 . S
C122 O125 1.252 . S
C122 O126 1.260 . S
O123 In117 2.266 . S
O123 C120 1.252 . S
O124 In117 2.326 . S
O124 C120 1.260 . S
O125 In117 2.266 . S
O125 C122 1.252 . S
O126 In117 2.326 . S
O126 C122 1.260 . S
C127 O118 1.240 . S
C127 O119 1.252 . S
O128 In117 2.294 . S
O128 C121 1.240 . S
O129 In117 2.326 . S
O129 C121 1.252 . S
In130 O131 2.294 . S
In130 O132 2.326 . S
In130 O136 2.266 . S
In130 O137 2.326 . S
In130 O138 2.266 . S
In130 O139 2.326 . S
In130 O141 2.294 . S
In130 O142 2.326 . S
O131 In130 2.294 . S
O131 C140 1.240 . S
O132 In130 2.326 . S
O132 C140 1.252 . S
C133 O136 1.252 . S
C133 O137 1.260 . S
C134 O141 1.240 . S
C134 O142 1.252 . S
C135 O138 1.252 . S
C135 O139 1.260 . S
O136 In130 2.266 . S
O136 C133 1.252 . S
O137 In130 2.326 . S
O137 C133 1.260 . S
O138 In130 2.266 . S
O138 C135 1.252 . S
O139 In130 2.326 . S
O139 C135 1.260 . S
C140 O131 1.240 . S
C140 O132 1.252 . S
O141 In130 2.294 . S
O141 C134 1.240 . S
O142 In130 2.326 . S
O142 C134 1.252 . S
In143 O144 2.294 . S
In143 O145 2.326 . S
In143 O149 2.266 . S
In143 O150 2.326 . S
In143 O151 2.266 . S
In143 O152 2.326 . S
In143 O154 2.294 . S
In143 O155 2.326 . S
O144 In143 2.294 . S
O144 C153 1.240 . S
O145 In143 2.326 . S
O145 C153 1.252 . S
C146 O149 1.252 . S
C146 O150 1.260 . S
C147 O154 1.240 . S
C147 O155 1.252 . S
C148 O151 1.252 . S
C148 O152 1.260 . S
O149 In143 2.266 . S
O149 C146 1.252 . S
O150 In143 2.326 . S
O150 C146 1.260 . S
O151 In143 2.266 . S
O151 C148 1.252 . S
O152 In143 2.326 . S
O152 C148 1.260 . S
C153 O144 1.240 . S
C153 O145 1.252 . S
O154 In143 2.294 . S
O154 C147 1.240 . S
O155 In143 2.326 . S
O155 C147 1.252 . S
In156 O157 2.294 . S
In156 O158 2.326 . S
In156 O162 2.266 . S
In156 O163 2.326 . S
In156 O164 2.266 . S
In156 O165 2.326 . S
In156 O167 2.294 . S
In156 O168 2.326 . S
O157 In156 2.294 . S
O157 C166 1.240 . S
O158 In156 2.326 . S
O158 C166 1.252 . S
C159 O162 1.252 . S
C159 O163 1.260 . S
C160 O167 1.240 . S
C160 O168 1.252 . S
C161 O164 1.252 . S
C161 O165 1.260 . S
O162 In156 2.266 . S
O162 C159 1.252 . S
O163 In156 2.326 . S
O163 C159 1.260 . S
O164 In156 2.266 . S
O164 C161 1.252 . S
O165 In156 2.326 . S
O165 C161 1.260 . S
C166 O157 1.240 . S
C166 O158 1.252 . S
O167 In156 2.294 . S
O167 C160 1.240 . S
O168 In156 2.326 . S
O168 C160 1.252 . S
In169 O170 2.294 . S
In169 O171 2.326 . S
In169 O175 2.266 . S
In169 O176 2.326 . S
In169 O177 2.266 . S
In169 O178 2.326 . S
In169 O180 2.294 . S
In169 O181 2.326 . S
O170 In169 2.294 . S
O170 C179 1.240 . S
O171 In169 2.326 . S
O171 C179 1.252 . S
C172 O175 1.252 . S
C172 O176 1.260 . S
C173 O180 1.240 . S
C173 O181 1.252 . S
C174 O177 1.252 . S
C174 O178 1.260 . S
O175 In169 2.266 . S
O175 C172 1.252 . S
O176 In169 2.326 . S
O176 C172 1.260 . S
O177 In169 2.266 . S
O177 C174 1.252 . S
O178 In169 2.326 . S
O178 C174 1.260 . S
C179 O170 1.240 . S
C179 O171 1.252 . S
O180 In169 2.294 . S
O180 C173 1.240 . S
O181 In169 2.326 . S
O181 C173 1.252 . S
In182 O183 2.294 . S
In182 O184 2.326 . S
In182 O188 2.266 . S
In182 O189 2.339 . S
In182 O190 2.266 1_554 S
In182 O191 2.326 1_554 S
In182 O193 2.294 . S
In182 O194 2.326 . S
O183 In182 2.294 . S
O183 C192 1.240 . S
O184 In182 2.326 . S
O184 C192 1.252 . S
C185 O188 1.252 1_556 S
C185 O189 1.255 1_556 S
C186 O193 1.240 . S
C186 O194 1.252 . S
C187 O190 1.252 . S
C187 O191 1.260 . S
O188 In182 2.266 . S
O188 C185 1.252 1_554 S
O189 In182 2.339 . S
O189 C185 1.255 1_554 S
O190 In182 2.266 1_556 S
O190 C187 1.252 . S
O191 In182 2.326 1_556 S
O191 C187 1.260 . S
C192 O183 1.240 . S
C192 O184 1.252 . S
O193 In182 2.294 . S
O193 C186 1.240 . S
O194 In182 2.326 . S
O194 C186 1.252 . S
In195 O196 2.294 . S
In195 O197 2.326 . S
In195 O201 2.266 . S
In195 O202 2.326 . S
In195 O203 2.266 . S
In195 O204 2.326 . S
In195 O206 2.294 . S
In195 O207 2.326 . S
O196 In195 2.294 . S
O196 C205 1.240 . S
O197 In195 2.326 . S
O197 C205 1.252 . S
C198 O201 1.252 . S
C198 O202 1.260 . S
C199 O206 1.240 . S
C199 O207 1.252 . S
C200 O203 1.252 . S
C200 O204 1.260 . S
O201 In195 2.266 . S
O201 C198 1.252 . S
O202 In195 2.326 . S
O202 C198 1.260 . S
O203 In195 2.266 . S
O203 C200 1.252 . S
O204 In195 2.326 . S
O204 C200 1.260 . S
C205 O196 1.240 . S
C205 O197 1.252 . S
O206 In195 2.294 . S
O206 C199 1.240 . S
O207 In195 2.326 . S
O207 C199 1.252 . S
H208 C216 0.929 . S
H209 C218 0.930 . S
H210 C220 0.930 . S
H211 C223 0.929 . S
H212 C226 0.930 . S
H213 C228 0.960 . S
H214 C228 0.960 . S
H215 C228 0.960 . S
C216 H208 0.929 . S
C216 C217 1.377 . S
C216 C218 1.384 . S
C217 C216 1.377 . S
C217 C223 1.390 . S
C218 H209 0.930 . S
C218 C216 1.384 . S
C218 C219 1.372 . S
C219 C218 1.372 . S
C219 C220 1.400 . S
C219 C224 1.490 . S
C220 H210 0.930 . S
C220 C219 1.400 . S
C220 C223 1.386 . S
H221 C237 0.930 . S
H222 C238 0.931 . S
C223 H211 0.929 . S
C223 C217 1.390 . S
C223 C220 1.386 . S
C224 C219 1.490 . S
C224 C226 1.395 . S
C224 C227 1.403 . S
H225 C231 0.930 . S
C226 H212 0.930 . S
C226 C224 1.395 . S
C226 C229 1.403 . S
C227 C224 1.403 . S
C227 C228 1.524 . S
C227 C231 1.400 . S
C228 H213 0.960 . S
C228 H214 0.960 . S
C228 H215 0.960 . S
C228 C227 1.524 . S
C229 C226 1.403 . S
C229 C230 1.392 . S
C229 C233 1.495 . S
C230 C229 1.392 . S
C230 C231 1.385 . S
C230 C232 1.478 . S
C231 H225 0.930 . S
C231 C227 1.400 . S
C231 C230 1.385 . S
C232 C230 1.478 . S
C232 C234 1.381 . S
C232 C238 1.383 . S
C233 C229 1.495 . S
C233 H239 0.959 . S
C233 H240 0.961 . S
C233 H241 0.960 . S
C234 C232 1.381 . S
C234 C235 1.394 . S
C234 H242 0.930 . S
C235 C234 1.394 . S
C235 C236 1.383 . S
C235 H243 0.929 . S
C236 C235 1.383 . S
C236 C237 1.377 . S
C237 H221 0.930 . S
C237 C236 1.377 . S
C237 C238 1.379 . S
C238 H222 0.931 . S
C238 C232 1.383 . S
C238 C237 1.379 . S
H239 C233 0.959 . S
H240 C233 0.961 . S
H241 C233 0.960 . S
H242 C234 0.930 . S
H243 C235 0.929 . S
H244 C252 0.929 . S
H245 C254 0.930 . S
H246 C256 0.930 . S
H247 C259 0.929 . S
H248 C262 0.930 . S
H249 C264 0.960 . S
H250 C264 0.960 . S
H251 C264 0.960 . S
C252 H244 0.929 . S
C252 C253 1.377 . S
C252 C254 1.384 . S
C253 C252 1.377 . S
C253 C259 1.390 . S
C254 H245 0.930 . S
C254 C252 1.384 . S
C254 C255 1.372 . S
C255 C254 1.372 . S
C255 C256 1.400 . S
C255 C260 1.490 . S
C256 H246 0.930 . S
C256 C255 1.400 . S
C256 C259 1.386 . S
H257 C273 0.930 . S
H258 C274 0.931 . S
C259 H247 0.929 . S
C259 C253 1.390 . S
C259 C256 1.386 . S
C260 C255 1.490 . S
C260 C262 1.395 . S
C260 C263 1.403 . S
H261 C267 0.930 . S
C262 H248 0.930 . S
C262 C260 1.395 . S
C262 C265 1.403 . S
C263 C260 1.403 . S
C263 C264 1.524 . S
C263 C267 1.400 . S
C264 H249 0.960 . S
C264 H250 0.960 . S
C264 H251 0.960 . S
C264 C263 1.524 . S
C265 C262 1.403 . S
C265 C266 1.392 . S
C265 C269 1.495 . S
C266 C265 1.392 . S
C266 C267 1.385 . S
C266 C268 1.478 . S
C267 H261 0.930 . S
C267 C263 1.400 . S
C267 C266 1.385 . S
C268 C266 1.478 . S
C268 C270 1.381 . S
C268 C274 1.383 . S
C269 C265 1.495 . S
C269 H275 0.959 . S
C269 H276 0.961 . S
C269 H277 0.960 . S
C270 C268 1.381 . S
C270 C271 1.394 . S
C270 H278 0.930 . S
C271 C270 1.394 . S
C271 C272 1.383 . S
C271 H279 0.929 . S
C272 C271 1.383 . S
C272 C273 1.377 . S
C273 H257 0.930 . S
C273 C272 1.377 . S
C273 C274 1.379 . S
C274 H258 0.931 . S
C274 C268 1.383 . S
C274 C273 1.379 . S
H275 C269 0.959 . S
H276 C269 0.961 . S
H277 C269 0.960 . S
H278 C270 0.930 . S
H279 C271 0.929 . S
H280 C288 0.929 . S
H281 C290 0.930 . S
H282 C292 0.930 . S
H283 C295 0.929 . S
H284 C298 0.930 . S
H285 C300 0.960 . S
H286 C300 0.960 . S
H287 C300 0.960 . S
C288 H280 0.929 . S
C288 C289 1.377 . S
C288 C290 1.384 . S
C289 C288 1.377 . S
C289 C295 1.390 . S
C290 H281 0.930 . S
C290 C288 1.384 . S
C290 C291 1.372 . S
C291 C290 1.372 . S
C291 C292 1.400 . S
C291 C296 1.490 . S
C292 H282 0.930 . S
C292 C291 1.400 . S
C292 C295 1.386 . S
H293 C309 0.930 . S
H294 C310 0.931 . S
C295 H283 0.929 . S
C295 C289 1.390 . S
C295 C292 1.386 . S
C296 C291 1.490 . S
C296 C298 1.395 . S
C296 C299 1.403 . S
H297 C303 0.930 . S
C298 H284 0.930 . S
C298 C296 1.395 . S
C298 C301 1.403 . S
C299 C296 1.403 . S
C299 C300 1.524 . S
C299 C303 1.400 . S
C300 H285 0.960 . S
C300 H286 0.960 . S
C300 H287 0.960 . S
C300 C299 1.524 . S
C301 C298 1.403 . S
C301 C302 1.392 . S
C301 C305 1.495 . S
C302 C301 1.392 . S
C302 C303 1.385 . S
C302 C304 1.478 . S
C303 H297 0.930 . S
C303 C299 1.400 . S
C303 C302 1.385 . S
C304 C302 1.478 . S
C304 C306 1.381 . S
C304 C310 1.383 . S
C305 C301 1.495 . S
C305 H311 0.959 . S
C305 H312 0.961 . S
C305 H313 0.960 . S
C306 C304 1.381 . S
C306 C307 1.394 . S
C306 H314 0.930 . S
C307 C306 1.394 . S
C307 C308 1.383 . S
C307 H315 0.929 . S
C308 C307 1.383 . S
C308 C309 1.377 . S
C309 H293 0.930 . S
C309 C308 1.377 . S
C309 C310 1.379 . S
C310 H294 0.931 . S
C310 C304 1.383 . S
C310 C309 1.379 . S
H311 C305 0.959 . S
H312 C305 0.961 . S
H313 C305 0.960 . S
H314 C306 0.930 . S
H315 C307 0.929 . S
H316 C324 0.929 . S
H317 C326 0.930 . S
H318 C328 0.930 . S
H319 C331 0.929 . S
H320 C334 0.930 . S
H321 C336 0.960 . S
H322 C336 0.960 . S
H323 C336 0.960 . S
C324 H316 0.929 . S
C324 C325 1.377 . S
C324 C326 1.384 . S
C325 C324 1.377 . S
C325 C331 1.390 . S
C326 H317 0.930 . S
C326 C324 1.384 . S
C326 C327 1.372 . S
C327 C326 1.372 . S
C327 C328 1.400 . S
C327 C332 1.490 . S
C328 H318 0.930 . S
C328 C327 1.400 . S
C328 C331 1.386 . S
H329 C345 0.930 . S
H330 C346 0.931 . S
C331 H319 0.929 . S
C331 C325 1.390 . S
C331 C328 1.386 . S
C332 C327 1.490 . S
C332 C334 1.395 . S
C332 C335 1.403 . S
H333 C339 0.930 . S
C334 H320 0.930 . S
C334 C332 1.395 . S
C334 C337 1.403 . S
C335 C332 1.403 . S
C335 C336 1.524 . S
C335 C339 1.400 . S
C336 H321 0.960 . S
C336 H322 0.960 . S
C336 H323 0.960 . S
C336 C335 1.524 . S
C337 C334 1.403 . S
C337 C338 1.392 . S
C337 C341 1.495 . S
C338 C337 1.392 . S
C338 C339 1.385 . S
C338 C340 1.478 . S
C339 H333 0.930 . S
C339 C335 1.400 . S
C339 C338 1.385 . S
C340 C338 1.478 . S
C340 C342 1.381 . S
C340 C346 1.383 . S
C341 C337 1.495 . S
C341 H347 0.959 . S
C341 H348 0.961 . S
C341 H349 0.960 . S
C342 C340 1.381 . S
C342 C343 1.394 . S
C342 H350 0.930 . S
C343 C342 1.394 . S
C343 C344 1.383 . S
C343 H351 0.929 . S
C344 C343 1.383 . S
C344 C345 1.377 . S
C345 H329 0.930 . S
C345 C344 1.377 . S
C345 C346 1.379 . S
C346 H330 0.931 . S
C346 C340 1.383 . S
C346 C345 1.379 . S
H347 C341 0.959 . S
H348 C341 0.961 . S
H349 C341 0.960 . S
H350 C342 0.930 . S
H351 C343 0.929 . S
H352 C360 0.929 . S
H353 C362 0.930 . S
H354 C364 0.930 . S
H355 C367 0.929 . S
H356 C370 0.930 . S
H357 C372 0.960 . S
H358 C372 0.960 . S
H359 C372 0.960 . S
C360 H352 0.929 . S
C360 C361 1.377 . S
C360 C362 1.384 . S
C361 C360 1.377 . S
C361 C367 1.390 . S
C362 H353 0.930 . S
C362 C360 1.384 . S
C362 C363 1.372 . S
C363 C362 1.372 . S
C363 C364 1.400 . S
C363 C368 1.490 . S
C364 H354 0.930 . S
C364 C363 1.400 . S
C364 C367 1.386 . S
H365 C381 0.930 1_554 S
H366 C382 0.931 . S
C367 H355 0.929 . S
C367 C361 1.390 . S
C367 C364 1.386 . S
C368 C363 1.490 . S
C368 C370 1.395 . S
C368 C371 1.403 . S
H369 C375 0.930 . S
C370 H356 0.930 . S
C370 C368 1.395 . S
C370 C373 1.403 . S
C371 C368 1.403 . S
C371 C372 1.524 . S
C371 C375 1.400 . S
C372 H357 0.960 . S
C372 H358 0.960 . S
C372 H359 0.960 . S
C372 C371 1.524 . S
C373 C370 1.403 . S
C373 C374 1.392 . S
C373 C377 1.495 . S
C374 C373 1.392 . S
C374 C375 1.385 . S
C374 C376 1.478 . S
C375 H369 0.930 . S
C375 C371 1.400 . S
C375 C374 1.385 . S
C376 C374 1.478 . S
C376 C378 1.381 . S
C376 C382 1.383 . S
C377 C373 1.495 . S
C377 H383 0.959 . S
C377 H384 0.961 . S
C377 H385 0.960 . S
C378 C376 1.381 . S
C378 C379 1.394 . S
C378 H386 0.930 . S
C379 C378 1.394 . S
C379 C380 1.383 . S
C379 H387 0.929 . S
C380 C379 1.383 . S
C380 C381 1.377 . S
C381 H365 0.930 1_556 S
C381 C380 1.377 . S
C381 C382 1.379 . S
C382 H366 0.931 . S
C382 C376 1.383 . S
C382 C381 1.379 . S
H383 C377 0.959 . S
H384 C377 0.961 . S
H385 C377 0.960 . S
H386 C378 0.930 . S
H387 C379 0.929 . S
H388 C396 0.929 . S
H389 C398 0.930 . S
H390 C400 0.930 . S
H391 C403 0.929 . S
H392 C406 0.930 . S
H393 C408 0.960 . S
H394 C408 0.960 . S
H395 C408 0.960 . S
C396 H388 0.929 . S
C396 C397 1.377 . S
C396 C398 1.384 . S
C397 C396 1.377 . S
C397 C403 1.390 . S
C398 H389 0.930 . S
C398 C396 1.384 . S
C398 C399 1.372 . S
C399 C398 1.372 . S
C399 C400 1.400 . S
C399 C404 1.490 . S
C400 H390 0.930 . S
C400 C399 1.400 . S
C400 C403 1.386 . S
H401 C417 0.930 . S
H402 C418 0.931 . S
C403 H391 0.929 . S
C403 C397 1.390 . S
C403 C400 1.386 . S
C404 C399 1.490 . S
C404 C406 1.395 . S
C404 C407 1.403 . S
H405 C411 0.930 . S
C406 H392 0.930 . S
C406 C404 1.395 . S
C406 C409 1.403 . S
C407 C404 1.403 . S
C407 C408 1.524 . S
C407 C411 1.400 . S
C408 H393 0.960 . S
C408 H394 0.960 . S
C408 H395 0.960 . S
C408 C407 1.524 . S
C409 C406 1.403 . S
C409 C410 1.392 . S
C409 C413 1.495 . S
C410 C409 1.392 . S
C410 C411 1.385 . S
C410 C412 1.478 . S
C411 H405 0.930 . S
C411 C407 1.400 . S
C411 C410 1.385 . S
C412 C410 1.478 . S
C412 C414 1.381 . S
C412 C418 1.383 . S
C413 C409 1.495 . S
C413 H419 0.959 . S
C413 H420 0.961 . S
C413 H421 0.960 . S
C414 C412 1.381 . S
C414 C415 1.394 . S
C414 H422 0.930 . S
C415 C414 1.394 . S
C415 C416 1.383 . S
C415 H423 0.929 . S
C416 C415 1.383 . S
C416 C417 1.377 . S
C417 H401 0.930 . S
C417 C416 1.377 . S
C417 C418 1.379 . S
C418 H402 0.931 . S
C418 C412 1.383 . S
C418 C417 1.379 . S
H419 C413 0.959 . S
H420 C413 0.961 . S
H421 C413 0.960 . S
H422 C414 0.930 . S
H423 C415 0.929 . S
H424 C432 0.929 . S
H425 C434 0.930 . S
H426 C436 0.930 . S
H427 C439 0.929 . S
H428 C442 0.930 . S
H429 C444 0.960 . S
H430 C444 0.960 . S
H431 C444 0.960 . S
C432 H424 0.929 . S
C432 C433 1.377 . S
C432 C434 1.384 . S
C433 C432 1.377 . S
C433 C439 1.390 . S
C434 H425 0.930 . S
C434 C432 1.384 . S
C434 C435 1.372 . S
C435 C434 1.372 . S
C435 C436 1.400 . S
C435 C440 1.490 . S
C436 H426 0.930 . S
C436 C435 1.400 . S
C436 C439 1.386 . S
H437 C453 0.930 . S
H438 C454 0.931 . S
C439 H427 0.929 . S
C439 C433 1.390 . S
C439 C436 1.386 . S
C440 C435 1.490 . S
C440 C442 1.395 . S
C440 C443 1.403 . S
H441 C447 0.930 . S
C442 H428 0.930 . S
C442 C440 1.395 . S
C442 C445 1.403 . S
C443 C440 1.403 . S
C443 C444 1.524 . S
C443 C447 1.400 . S
C444 H429 0.960 . S
C444 H430 0.960 . S
C444 H431 0.960 . S
C444 C443 1.524 . S
C445 C442 1.403 . S
C445 C446 1.392 . S
C445 C449 1.495 . S
C446 C445 1.392 . S
C446 C447 1.385 . S
C446 C448 1.478 . S
C447 H441 0.930 . S
C447 C443 1.400 . S
C447 C446 1.385 . S
C448 C446 1.478 . S
C448 C450 1.381 . S
C448 C454 1.383 . S
C449 C445 1.495 . S
C449 H455 0.959 . S
C449 H456 0.961 . S
C449 H457 0.960 . S
C450 C448 1.381 . S
C450 C451 1.394 . S
C450 H458 0.930 . S
C451 C450 1.394 . S
C451 C452 1.383 . S
C451 H459 0.929 . S
C452 C451 1.383 . S
C452 C453 1.377 . S
C453 H437 0.930 . S
C453 C452 1.377 . S
C453 C454 1.379 . S
C454 H438 0.931 . S
C454 C448 1.383 . S
C454 C453 1.379 . S
H455 C449 0.959 . S
H456 C449 0.961 . S
H457 C449 0.960 . S
H458 C450 0.930 . S
H459 C451 0.929 . S
H460 C468 0.929 . S
H461 C470 0.930 . S
H462 C472 0.930 . S
H463 C475 0.929 . S
H464 C478 0.930 . S
H465 C480 0.960 . S
H466 C480 0.960 . S
H467 C480 0.960 . S
C468 H460 0.929 . S
C468 C469 1.377 . S
C468 C470 1.384 . S
C469 C468 1.377 . S
C469 C475 1.390 . S
C470 H461 0.930 . S
C470 C468 1.384 . S
C470 C471 1.372 . S
C471 C470 1.372 . S
C471 C472 1.400 . S
C471 C476 1.490 . S
C472 H462 0.930 . S
C472 C471 1.400 . S
C472 C475 1.386 . S
H473 C489 0.930 . S
H474 C490 0.931 . S
C475 H463 0.929 . S
C475 C469 1.390 . S
C475 C472 1.386 . S
C476 C471 1.490 . S
C476 C478 1.395 . S
C476 C479 1.403 . S
H477 C483 0.930 . S
C478 H464 0.930 . S
C478 C476 1.395 . S
C478 C481 1.403 . S
C479 C476 1.403 . S
C479 C480 1.524 . S
C479 C483 1.400 . S
C480 H465 0.960 . S
C480 H466 0.960 . S
C480 H467 0.960 . S
C480 C479 1.524 . S
C481 C478 1.403 . S
C481 C482 1.392 . S
C481 C485 1.495 . S
C482 C481 1.392 . S
C482 C483 1.385 . S
C482 C484 1.478 . S
C483 H477 0.930 . S
C483 C479 1.400 . S
C483 C482 1.385 . S
C484 C482 1.478 . S
C484 C486 1.381 . S
C484 C490 1.383 . S
C485 C481 1.495 . S
C485 H491 0.959 . S
C485 H492 0.961 . S
C485 H493 0.960 . S
C486 C484 1.381 . S
C486 C487 1.394 . S
C486 H494 0.930 . S
C487 C486 1.394 . S
C487 C488 1.383 . S
C487 H495 0.929 . S
C488 C487 1.383 . S
C488 C489 1.377 . S
C489 H473 0.930 . S
C489 C488 1.377 . S
C489 C490 1.379 . S
C490 H474 0.931 . S
C490 C484 1.383 . S
C490 C489 1.379 . S
H491 C485 0.959 . S
H492 C485 0.961 . S
H493 C485 0.960 . S
H494 C486 0.930 . S
H495 C487 0.929 . S
H496 C504 0.929 . S
H497 C506 0.930 . S
H498 C508 0.930 . S
H499 C511 0.929 . S
H500 C514 0.930 . S
H501 C516 0.960 . S
H502 C516 0.960 . S
H503 C516 0.960 . S
C504 H496 0.929 . S
C504 C505 1.377 . S
C504 C506 1.384 . S
C505 C504 1.377 . S
C505 C511 1.390 . S
C506 H497 0.930 . S
C506 C504 1.384 . S
C506 C507 1.372 . S
C507 C506 1.372 . S
C507 C508 1.400 . S
C507 C512 1.490 . S
C508 H498 0.930 . S
C508 C507 1.400 . S
C508 C511 1.386 . S
H509 C525 0.930 . S
H510 C526 0.931 . S
C511 H499 0.929 . S
C511 C505 1.390 . S
C511 C508 1.386 . S
C512 C507 1.490 . S
C512 C514 1.395 . S
C512 C515 1.403 . S
H513 C519 0.930 . S
C514 H500 0.930 . S
C514 C512 1.395 . S
C514 C517 1.403 . S
C515 C512 1.403 . S
C515 C516 1.524 . S
C515 C519 1.400 . S
C516 H501 0.960 . S
C516 H502 0.960 . S
C516 H503 0.960 . S
C516 C515 1.524 . S
C517 C514 1.403 . S
C517 C518 1.392 . S
C517 C521 1.495 . S
C518 C517 1.392 . S
C518 C519 1.385 . S
C518 C520 1.478 . S
C519 H513 0.930 . S
C519 C515 1.400 . S
C519 C518 1.385 . S
C520 C518 1.478 . S
C520 C522 1.381 . S
C520 C526 1.383 . S
C521 C517 1.495 . S
C521 H527 0.959 . S
C521 H528 0.961 . S
C521 H529 0.960 . S
C522 C520 1.381 . S
C522 C523 1.394 . S
C522 H530 0.930 . S
C523 C522 1.394 . S
C523 C524 1.383 . S
C523 H531 0.929 . S
C524 C523 1.383 . S
C524 C525 1.377 . S
C525 H509 0.930 . S
C525 C524 1.377 . S
C525 C526 1.379 . S
C526 H510 0.931 . S
C526 C520 1.383 . S
C526 C525 1.379 . S
H527 C521 0.959 . S
H528 C521 0.961 . S
H529 C521 0.960 . S
H530 C522 0.930 . S
H531 C523 0.929 . S
H532 C540 0.929 . S
H533 C542 0.930 . S
H534 C544 0.930 . S
H535 C547 0.929 . S
H536 C550 0.930 . S
H537 C552 0.960 . S
H538 C552 0.960 . S
H539 C552 0.960 . S
C540 H532 0.929 . S
C540 C541 1.377 . S
C540 C542 1.384 . S
C541 C540 1.377 . S
C541 C547 1.390 . S
C542 H533 0.930 . S
C542 C540 1.384 . S
C542 C543 1.372 . S
C543 C542 1.372 . S
C543 C544 1.400 . S
C543 C548 1.490 . S
C544 H534 0.930 . S
C544 C543 1.400 . S
C544 C547 1.386 . S
H545 C561 0.930 . S
H546 C562 0.931 . S
C547 H535 0.929 . S
C547 C541 1.390 . S
C547 C544 1.386 . S
C548 C543 1.490 . S
C548 C550 1.395 . S
C548 C551 1.403 . S
H549 C555 0.930 . S
C550 H536 0.930 . S
C550 C548 1.395 . S
C550 C553 1.403 . S
C551 C548 1.403 . S
C551 C552 1.524 . S
C551 C555 1.400 . S
C552 H537 0.960 . S
C552 H538 0.960 . S
C552 H539 0.960 . S
C552 C551 1.524 . S
C553 C550 1.403 . S
C553 C554 1.392 . S
C553 C557 1.495 . S
C554 C553 1.392 . S
C554 C555 1.385 . S
C554 C556 1.478 . S
C555 H549 0.930 . S
C555 C551 1.400 . S
C555 C554 1.385 . S
C556 C554 1.478 . S
C556 C558 1.381 . S
C556 C562 1.383 . S
C557 C553 1.495 . S
C557 H563 0.959 . S
C557 H564 0.961 . S
C557 H565 0.960 . S
C558 C556 1.381 . S
C558 C559 1.394 . S
C558 H566 0.930 . S
C559 C558 1.394 . S
C559 C560 1.383 . S
C559 H567 0.929 . S
C560 C559 1.383 . S
C560 C561 1.377 . S
C561 H545 0.930 . S
C561 C560 1.377 . S
C561 C562 1.379 . S
C562 H546 0.931 . S
C562 C556 1.383 . S
C562 C561 1.379 . S
H563 C557 0.959 . S
H564 C557 0.961 . S
H565 C557 0.960 . S
H566 C558 0.930 . S
H567 C559 0.929 . S
H568 C576 0.929 . S
H569 C578 0.930 . S
H570 C580 0.930 . S
H571 C583 0.929 . S
H572 C586 0.930 . S
H573 C588 0.960 . S
H574 C588 0.960 . S
H575 C588 0.960 . S
C576 H568 0.929 . S
C576 C577 1.377 . S
C576 C578 1.384 . S
C577 C576 1.377 . S
C577 C583 1.390 . S
C578 H569 0.930 . S
C578 C576 1.384 . S
C578 C579 1.372 . S
C579 C578 1.372 . S
C579 C580 1.400 . S
C579 C584 1.490 . S
C580 H570 0.930 . S
C580 C579 1.400 . S
C580 C583 1.386 . S
H581 C597 0.930 . S
H582 C598 0.931 . S
C583 H571 0.929 . S
C583 C577 1.390 . S
C583 C580 1.386 . S
C584 C579 1.490 . S
C584 C586 1.395 . S
C584 C587 1.403 . S
H585 C591 0.930 . S
C586 H572 0.930 . S
C586 C584 1.395 . S
C586 C589 1.403 . S
C587 C584 1.403 . S
C587 C588 1.524 . S
C587 C591 1.400 . S
C588 H573 0.960 . S
C588 H574 0.960 . S
C588 H575 0.960 . S
C588 C587 1.524 . S
C589 C586 1.403 . S
C589 C590 1.392 . S
C589 C593 1.495 . S
C590 C589 1.392 . S
C590 C591 1.385 . S
C590 C592 1.478 . S
C591 H585 0.930 . S
C591 C587 1.400 . S
C591 C590 1.385 . S
C592 C590 1.478 . S
C592 C594 1.381 . S
C592 C598 1.383 . S
C593 C589 1.495 . S
C593 H599 0.959 . S
C593 H600 0.961 . S
C593 H601 0.960 . S
C594 C592 1.381 . S
C594 C595 1.394 . S
C594 H602 0.930 . S
C595 C594 1.394 . S
C595 C596 1.383 . S
C595 H603 0.929 . S
C596 C595 1.383 . S
C596 C597 1.377 . S
C597 H581 0.930 . S
C597 C596 1.377 . S
C597 C598 1.379 . S
C598 H582 0.931 . S
C598 C592 1.383 . S
C598 C597 1.379 . S
H599 C593 0.959 . S
H600 C593 0.961 . S
H601 C593 0.960 . S
H602 C594 0.930 . S
H603 C595 0.929 . S
H604 C612 0.929 . S
H605 C614 0.930 . S
H606 C616 0.930 . S
H607 C619 0.929 . S
H608 C622 0.930 . S
H609 C624 0.960 . S
H610 C624 0.960 . S
H611 C624 0.960 . S
C612 H604 0.929 . S
C612 C613 1.377 . S
C612 C614 1.384 . S
C613 C612 1.377 . S
C613 C619 1.390 . S
C614 H605 0.930 . S
C614 C612 1.384 . S
C614 C615 1.372 . S
C615 C614 1.372 . S
C615 C616 1.400 . S
C615 C620 1.490 . S
C616 H606 0.930 . S
C616 C615 1.400 . S
C616 C619 1.386 . S
H617 C633 0.930 . S
H618 C634 0.931 . S
C619 H607 0.929 . S
C619 C613 1.390 . S
C619 C616 1.386 . S
C620 C615 1.490 . S
C620 C622 1.395 . S
C620 C623 1.403 . S
H621 C627 0.930 . S
C622 H608 0.930 . S
C622 C620 1.395 . S
C622 C625 1.403 . S
C623 C620 1.403 . S
C623 C624 1.524 . S
C623 C627 1.400 . S
C624 H609 0.960 . S
C624 H610 0.960 . S
C624 H611 0.960 . S
C624 C623 1.524 . S
C625 C622 1.403 . S
C625 C626 1.392 . S
C625 C629 1.495 . S
C626 C625 1.392 . S
C626 C627 1.385 . S
C626 C628 1.478 . S
C627 H621 0.930 . S
C627 C623 1.400 . S
C627 C626 1.385 . S
C628 C626 1.478 . S
C628 C630 1.381 . S
C628 C634 1.383 . S
C629 C625 1.495 . S
C629 H635 0.959 . S
C629 H636 0.961 . S
C629 H637 0.960 . S
C630 C628 1.381 . S
C630 C631 1.394 . S
C630 H638 0.930 . S
C631 C630 1.394 . S
C631 C632 1.383 . S
C631 H639 0.929 . S
C632 C631 1.383 . S
C632 C633 1.377 . S
C633 H617 0.930 . S
C633 C632 1.377 . S
C633 C634 1.379 . S
C634 H618 0.931 . S
C634 C628 1.383 . S
C634 C633 1.379 . S
H635 C629 0.959 . S
H636 C629 0.961 . S
H637 C629 0.960 . S
H638 C630 0.930 . S
H639 C631 0.929 . S
H640 C648 0.929 . S
H641 C650 0.930 . S
H642 C652 0.930 . S
H643 C655 0.929 . S
H644 C658 0.930 . S
H645 C660 0.960 . S
H646 C660 0.960 . S
H647 C660 0.960 . S
C648 H640 0.929 . S
C648 C649 1.377 . S
C648 C650 1.384 . S
C649 C648 1.377 . S
C649 C655 1.390 . S
C650 H641 0.930 . S
C650 C648 1.384 . S
C650 C651 1.372 . S
C651 C650 1.372 . S
C651 C652 1.400 . S
C651 C656 1.490 . S
C652 H642 0.930 . S
C652 C651 1.400 . S
C652 C655 1.386 . S
H653 C669 0.930 . S
H654 C670 0.931 . S
C655 H643 0.929 . S
C655 C649 1.390 . S
C655 C652 1.386 . S
C656 C651 1.490 . S
C656 C658 1.395 . S
C656 C659 1.403 . S
H657 C663 0.930 . S
C658 H644 0.930 . S
C658 C656 1.395 . S
C658 C661 1.403 . S
C659 C656 1.403 . S
C659 C660 1.524 . S
C659 C663 1.400 . S
C660 H645 0.960 . S
C660 H646 0.960 . S
C660 H647 0.960 . S
C660 C659 1.524 . S
C661 C658 1.403 . S
C661 C662 1.392 . S
C661 C665 1.495 . S
C662 C661 1.392 . S
C662 C663 1.385 . S
C662 C664 1.478 . S
C663 H657 0.930 . S
C663 C659 1.400 . S
C663 C662 1.385 . S
C664 C662 1.478 . S
C664 C666 1.381 . S
C664 C670 1.383 . S
C665 C661 1.495 . S
C665 H671 0.959 . S
C665 H672 0.961 . S
C665 H673 0.960 . S
C666 C664 1.381 . S
C666 C667 1.394 . S
C666 H674 0.930 . S
C667 C666 1.394 . S
C667 C668 1.383 . S
C667 H675 0.929 . S
C668 C667 1.383 . S
C668 C669 1.377 . S
C669 H653 0.930 . S
C669 C668 1.377 . S
C669 C670 1.379 . S
C670 H654 0.931 . S
C670 C664 1.383 . S
C670 C669 1.379 . S
H671 C665 0.959 . S
H672 C665 0.961 . S
H673 C665 0.960 . S
H674 C666 0.930 . S
H675 C667 0.929 . S
H676 C684 0.929 . S
H677 C686 0.930 . S
H678 C688 0.930 . S
H679 C691 0.929 . S
H680 C694 0.930 . S
H681 C696 0.960 . S
H682 C696 0.960 . S
H683 C696 0.960 . S
C684 H676 0.929 . S
C684 C685 1.377 . S
C684 C686 1.384 . S
C685 C684 1.377 . S
C685 C691 1.390 . S
C686 H677 0.930 . S
C686 C684 1.384 . S
C686 C687 1.372 . S
C687 C686 1.372 . S
C687 C688 1.400 . S
C687 C692 1.490 . S
C688 H678 0.930 . S
C688 C687 1.400 . S
C688 C691 1.386 . S
H689 C705 0.930 . S
H690 C706 0.931 . S
C691 H679 0.929 . S
C691 C685 1.390 . S
C691 C688 1.386 . S
C692 C687 1.490 . S
C692 C694 1.395 . S
C692 C695 1.403 . S
H693 C699 0.930 . S
C694 H680 0.930 . S
C694 C692 1.395 . S
C694 C697 1.403 . S
C695 C692 1.403 . S
C695 C696 1.524 . S
C695 C699 1.400 . S
C696 H681 0.960 . S
C696 H682 0.960 . S
C696 H683 0.960 . S
C696 C695 1.524 . S
C697 C694 1.403 . S
C697 C698 1.392 . S
C697 C701 1.495 . S
C698 C697 1.392 . S
C698 C699 1.385 . S
C698 C700 1.478 . S
C699 H693 0.930 . S
C699 C695 1.400 . S
C699 C698 1.385 . S
C700 C698 1.478 . S
C700 C702 1.381 . S
C700 C706 1.383 . S
C701 C697 1.495 . S
C701 H707 0.959 . S
C701 H708 0.961 . S
C701 H709 0.960 . S
C702 C700 1.381 . S
C702 C703 1.394 . S
C702 H710 0.930 . S
C703 C702 1.394 . S
C703 C704 1.383 . S
C703 H711 0.929 . S
C704 C703 1.383 . S
C704 C705 1.377 . S
C705 H689 0.930 . S
C705 C704 1.377 . S
C705 C706 1.379 . S
C706 H690 0.931 . S
C706 C700 1.383 . S
C706 C705 1.379 . S
H707 C701 0.959 . S
H708 C701 0.961 . S
H709 C701 0.960 . S
H710 C702 0.930 . S
H711 C703 0.929 . S
H712 C720 0.929 . S
H713 C722 0.930 . S
H714 C724 0.930 . S
H715 C727 0.929 . S
H716 C730 0.930 . S
H717 C732 0.960 . S
H718 C732 0.960 . S
H719 C732 0.960 . S
C720 H712 0.929 . S
C720 C721 1.377 . S
C720 C722 1.384 . S
C721 C720 1.377 . S
C721 C727 1.390 . S
C722 H713 0.930 . S
C722 C720 1.384 . S
C722 C723 1.372 . S
C723 C722 1.372 . S
C723 C724 1.400 . S
C723 C728 1.490 . S
C724 H714 0.930 . S
C724 C723 1.400 . S
C724 C727 1.386 . S
H725 C741 0.930 1_554 S
H726 C742 0.931 . S
C727 H715 0.929 . S
C727 C721 1.390 . S
C727 C724 1.386 . S
C728 C723 1.490 . S
C728 C730 1.395 . S
C728 C731 1.403 . S
H729 C735 0.930 . S
C730 H716 0.930 . S
C730 C728 1.395 . S
C730 C733 1.403 . S
C731 C728 1.403 . S
C731 C732 1.524 . S
C731 C735 1.400 . S
C732 H717 0.960 . S
C732 H718 0.960 . S
C732 H719 0.960 . S
C732 C731 1.524 . S
C733 C730 1.403 . S
C733 C734 1.392 . S
C733 C737 1.495 . S
C734 C733 1.392 . S
C734 C735 1.385 . S
C734 C736 1.478 . S
C735 H729 0.930 . S
C735 C731 1.400 . S
C735 C734 1.385 . S
C736 C734 1.478 . S
C736 C738 1.381 . S
C736 C742 1.383 . S
C737 C733 1.495 . S
C737 H743 0.959 . S
C737 H744 0.961 . S
C737 H745 0.960 . S
C738 C736 1.381 . S
C738 C739 1.394 . S
C738 H746 0.930 . S
C739 C738 1.394 . S
C739 C740 1.383 . S
C739 H747 0.929 . S
C740 C739 1.383 . S
C740 C741 1.377 . S
C741 H725 0.930 1_556 S
C741 C740 1.377 . S
C741 C742 1.379 . S
C742 H726 0.931 . S
C742 C736 1.383 . S
C742 C741 1.379 . S
H743 C737 0.959 . S
H744 C737 0.961 . S
H745 C737 0.960 . S
H746 C738 0.930 . S
H747 C739 0.929 . S
H748 C756 0.929 . S
H749 C758 0.930 . S
H750 C760 0.930 . S
H751 C763 0.929 . S
H752 C766 0.930 . S
H753 C768 0.960 . S
H754 C768 0.960 . S
H755 C768 0.960 . S
C756 H748 0.929 . S
C756 C757 1.377 . S
C756 C758 1.384 . S
C757 C756 1.377 . S
C757 C763 1.390 . S
C758 H749 0.930 . S
C758 C756 1.384 . S
C758 C759 1.372 . S
C759 C758 1.372 . S
C759 C760 1.400 . S
C759 C764 1.490 . S
C760 H750 0.930 . S
C760 C759 1.400 . S
C760 C763 1.386 . S
H761 C777 0.930 . S
H762 C778 0.931 . S
C763 H751 0.929 . S
C763 C757 1.390 . S
C763 C760 1.386 . S
C764 C759 1.490 . S
C764 C766 1.395 . S
C764 C767 1.403 . S
H765 C771 0.930 . S
C766 H752 0.930 . S
C766 C764 1.395 . S
C766 C769 1.403 . S
C767 C764 1.403 . S
C767 C768 1.524 . S
C767 C771 1.400 . S
C768 H753 0.960 . S
C768 H754 0.960 . S
C768 H755 0.960 . S
C768 C767 1.524 . S
C769 C766 1.403 . S
C769 C770 1.392 . S
C769 C773 1.495 . S
C770 C769 1.392 . S
C770 C771 1.385 . S
C770 C772 1.478 . S
C771 H765 0.930 . S
C771 C767 1.400 . S
C771 C770 1.385 . S
C772 C770 1.478 . S
C772 C774 1.381 . S
C772 C778 1.383 . S
C773 C769 1.495 . S
C773 H779 0.959 . S
C773 H780 0.961 . S
C773 H781 0.960 . S
C774 C772 1.381 . S
C774 C775 1.394 . S
C774 H782 0.930 . S
C775 C774 1.394 . S
C775 C776 1.383 . S
C775 H783 0.929 . S
C776 C775 1.383 . S
C776 C777 1.377 . S
C777 H761 0.930 . S
C777 C776 1.377 . S
C777 C778 1.379 . S
C778 H762 0.931 . S
C778 C772 1.383 . S
C778 C777 1.379 . S
H779 C773 0.959 . S
H780 C773 0.961 . S
H781 C773 0.960 . S
H782 C774 0.930 . S
H783 C775 0.929 . S
H784 C792 0.929 . S
H785 C794 0.930 . S
H786 C796 0.930 . S
H787 C799 0.929 . S
H788 C802 0.930 . S
H789 C804 0.960 . S
H790 C804 0.960 . S
H791 C804 0.960 . S
C792 H784 0.929 . S
C792 C793 1.377 . S
C792 C794 1.384 . S
C793 C792 1.377 . S
C793 C799 1.390 . S
C794 H785 0.930 . S
C794 C792 1.384 . S
C794 C795 1.372 . S
C795 C794 1.372 . S
C795 C796 1.400 . S
C795 C800 1.490 . S
C796 H786 0.930 . S
C796 C795 1.400 . S
C796 C799 1.386 . S
H797 C813 0.930 . S
H798 C814 0.931 . S
C799 H787 0.929 . S
C799 C793 1.390 . S
C799 C796 1.386 . S
C800 C795 1.490 . S
C800 C802 1.395 . S
C800 C803 1.403 . S
H801 C807 0.930 . S
C802 H788 0.930 . S
C802 C800 1.395 . S
C802 C805 1.403 . S
C803 C800 1.403 . S
C803 C804 1.524 . S
C803 C807 1.400 . S
C804 H789 0.960 . S
C804 H790 0.960 . S
C804 H791 0.960 . S
C804 C803 1.524 . S
C805 C802 1.403 . S
C805 C806 1.392 . S
C805 C809 1.495 . S
C806 C805 1.392 . S
C806 C807 1.385 . S
C806 C808 1.478 . S
C807 H801 0.930 . S
C807 C803 1.400 . S
C807 C806 1.385 . S
C808 C806 1.478 . S
C808 C810 1.381 . S
C808 C814 1.383 . S
C809 C805 1.495 . S
C809 H815 0.959 . S
C809 H816 0.961 . S
C809 H817 0.960 . S
C810 C808 1.381 . S
C810 C811 1.394 . S
C810 H818 0.930 . S
C811 C810 1.394 . S
C811 C812 1.383 . S
C811 H819 0.929 . S
C812 C811 1.383 . S
C812 C813 1.377 . S
C813 H797 0.930 . S
C813 C812 1.377 . S
C813 C814 1.379 . S
C814 H798 0.931 . S
C814 C808 1.383 . S
C814 C813 1.379 . S
H815 C809 0.959 . S
H816 C809 0.961 . S
H817 C809 0.960 . S
H818 C810 0.930 . S
H819 C811 0.929 . S
H820 C828 0.929 . S
H821 C830 0.930 . S
H822 C832 0.930 . S
H823 C835 0.929 . S
H824 C838 0.930 . S
H825 C840 0.960 . S
H826 C840 0.960 . S
H827 C840 0.960 . S
C828 H820 0.929 . S
C828 C829 1.377 . S
C828 C830 1.384 . S
C829 C828 1.377 . S
C829 C835 1.390 . S
C830 H821 0.930 . S
C830 C828 1.384 . S
C830 C831 1.372 . S
C831 C830 1.372 . S
C831 C832 1.400 . S
C831 C836 1.490 . S
C832 H822 0.930 . S
C832 C831 1.400 . S
C832 C835 1.386 . S
H833 C849 0.930 . S
H834 C850 0.931 . S
C835 H823 0.929 . S
C835 C829 1.390 . S
C835 C832 1.386 . S
C836 C831 1.490 . S
C836 C838 1.395 . S
C836 C839 1.403 . S
H837 C843 0.930 . S
C838 H824 0.930 . S
C838 C836 1.395 . S
C838 C841 1.403 . S
C839 C836 1.403 . S
C839 C840 1.524 . S
C839 C843 1.400 . S
C840 H825 0.960 . S
C840 H826 0.960 . S
C840 H827 0.960 . S
C840 C839 1.524 . S
C841 C838 1.403 . S
C841 C842 1.392 . S
C841 C845 1.495 . S
C842 C841 1.392 . S
C842 C843 1.385 . S
C842 C844 1.478 . S
C843 H837 0.930 . S
C843 C839 1.400 . S
C843 C842 1.385 . S
C844 C842 1.478 . S
C844 C846 1.381 . S
C844 C850 1.383 . S
C845 C841 1.495 . S
C845 H851 0.959 . S
C845 H852 0.961 . S
C845 H853 0.960 . S
C846 C844 1.381 . S
C846 C847 1.394 . S
C846 H854 0.930 . S
C847 C846 1.394 . S
C847 C848 1.383 . S
C847 H855 0.929 . S
C848 C847 1.383 . S
C848 C849 1.377 . S
C849 H833 0.930 . S
C849 C848 1.377 . S
C849 C850 1.379 . S
C850 H834 0.931 . S
C850 C844 1.383 . S
C850 C849 1.379 . S
H851 C845 0.959 . S
H852 C845 0.961 . S
H853 C845 0.960 . S
H854 C846 0.930 . S
H855 C847 0.929 . S
H856 C864 0.929 . S
H857 C866 0.930 . S
H858 C868 0.930 . S
H859 C871 0.929 . S
H860 C874 0.930 . S
H861 C876 0.960 . S
H862 C876 0.960 . S
H863 C876 0.960 . S
C864 H856 0.929 . S
C864 C865 1.377 . S
C864 C866 1.384 . S
C865 C864 1.377 . S
C865 C871 1.390 . S
C866 H857 0.930 . S
C866 C864 1.384 . S
C866 C867 1.372 . S
C867 C866 1.372 . S
C867 C868 1.400 . S
C867 C872 1.490 . S
C868 H858 0.930 . S
C868 C867 1.400 . S
C868 C871 1.386 . S
H869 C885 0.930 . S
H870 C886 0.931 . S
C871 H859 0.929 . S
C871 C865 1.390 . S
C871 C868 1.386 . S
C872 C867 1.490 . S
C872 C874 1.395 . S
C872 C875 1.403 . S
H873 C879 0.930 . S
C874 H860 0.930 . S
C874 C872 1.395 . S
C874 C877 1.403 . S
C875 C872 1.403 . S
C875 C876 1.524 . S
C875 C879 1.400 . S
C876 H861 0.960 . S
C876 H862 0.960 . S
C876 H863 0.960 . S
C876 C875 1.524 . S
C877 C874 1.403 . S
C877 C878 1.392 . S
C877 C881 1.495 . S
C878 C877 1.392 . S
C878 C879 1.385 . S
C878 C880 1.478 . S
C879 H873 0.930 . S
C879 C875 1.400 . S
C879 C878 1.385 . S
C880 C878 1.478 . S
C880 C882 1.381 . S
C880 C886 1.383 . S
C881 C877 1.495 . S
C881 H887 0.959 . S
C881 H888 0.961 . S
C881 H889 0.960 . S
C882 C880 1.381 . S
C882 C883 1.394 . S
C882 H890 0.930 . S
C883 C882 1.394 . S
C883 C884 1.383 . S
C883 H891 0.929 . S
C884 C883 1.383 . S
C884 C885 1.377 . S
C885 H869 0.930 . S
C885 C884 1.377 . S
C885 C886 1.379 . S
C886 H870 0.931 . S
C886 C880 1.383 . S
C886 C885 1.379 . S
H887 C881 0.959 . S
H888 C881 0.961 . S
H889 C881 0.960 . S
H890 C882 0.930 . S
H891 C883 0.929 . S
H892 C900 0.929 . S
H893 C902 0.930 . S
H894 C904 0.930 . S
H895 C907 0.929 . S
H896 C910 0.930 . S
H897 C912 0.960 . S
H898 C912 0.960 . S
H899 C912 0.960 . S
C900 H892 0.929 . S
C900 C901 1.377 . S
C900 C902 1.384 . S
C901 C900 1.377 . S
C901 C907 1.390 . S
C902 H893 0.930 . S
C902 C900 1.384 . S
C902 C903 1.372 . S
C903 C902 1.372 . S
C903 C904 1.400 . S
C903 C908 1.490 . S
C904 H894 0.930 . S
C904 C903 1.400 . S
C904 C907 1.386 . S
H905 C921 0.930 . S
H906 C922 0.931 . S
C907 H895 0.929 . S
C907 C901 1.390 . S
C907 C904 1.386 . S
C908 C903 1.490 . S
C908 C910 1.395 . S
C908 C911 1.403 . S
H909 C915 0.930 . S
C910 H896 0.930 . S
C910 C908 1.395 . S
C910 C913 1.403 . S
C911 C908 1.403 . S
C911 C912 1.524 . S
C911 C915 1.400 . S
C912 H897 0.960 . S
C912 H898 0.960 . S
C912 H899 0.960 . S
C912 C911 1.524 . S
C913 C910 1.403 . S
C913 C914 1.392 . S
C913 C917 1.495 . S
C914 C913 1.392 . S
C914 C915 1.385 . S
C914 C916 1.478 . S
C915 H909 0.930 . S
C915 C911 1.400 . S
C915 C914 1.385 . S
C916 C914 1.478 . S
C916 C918 1.381 . S
C916 C922 1.383 . S
C917 C913 1.495 . S
C917 H923 0.959 . S
C917 H924 0.961 . S
C917 H925 0.960 . S
C918 C916 1.381 . S
C918 C919 1.394 . S
C918 H926 0.930 . S
C919 C918 1.394 . S
C919 C920 1.383 . S
C919 H927 0.929 . S
C920 C919 1.383 . S
C920 C921 1.377 . S
C921 H905 0.930 . S
C921 C920 1.377 . S
C921 C922 1.379 . S
C922 H906 0.931 . S
C922 C916 1.383 . S
C922 C921 1.379 . S
H923 C917 0.959 . S
H924 C917 0.961 . S
H925 C917 0.960 . S
H926 C918 0.930 . S
H927 C919 0.929 . S
H928 C936 0.929 . S
H929 C938 0.930 . S
H930 C940 0.930 . S
H931 C943 0.929 . S
H932 C946 0.930 . S
H933 C948 0.960 . S
H934 C948 0.960 . S
H935 C948 0.960 . S
C936 H928 0.929 . S
C936 C937 1.377 . S
C936 C938 1.384 . S
C937 C936 1.377 . S
C937 C943 1.390 . S
C938 H929 0.930 . S
C938 C936 1.384 . S
C938 C939 1.372 . S
C939 C938 1.372 . S
C939 C940 1.400 . S
C939 C944 1.490 . S
C940 H930 0.930 . S
C940 C939 1.400 . S
C940 C943 1.386 . S
H941 C957 0.930 . S
H942 C958 0.931 . S
C943 H931 0.929 . S
C943 C937 1.390 . S
C943 C940 1.386 . S
C944 C939 1.490 . S
C944 C946 1.395 . S
C944 C947 1.403 . S
H945 C951 0.930 . S
C946 H932 0.930 . S
C946 C944 1.395 . S
C946 C949 1.403 . S
C947 C944 1.403 . S
C947 C948 1.524 . S
C947 C951 1.400 . S
C948 H933 0.960 . S
C948 H934 0.960 . S
C948 H935 0.960 . S
C948 C947 1.524 . S
C949 C946 1.403 . S
C949 C950 1.392 . S
C949 C953 1.495 . S
C950 C949 1.392 . S
C950 C951 1.385 . S
C950 C952 1.478 . S
C951 H945 0.930 . S
C951 C947 1.400 . S
C951 C950 1.385 . S
C952 C950 1.478 . S
C952 C954 1.381 . S
C952 C958 1.383 . S
C953 C949 1.495 . S
C953 H959 0.959 . S
C953 H960 0.961 . S
C953 H961 0.960 . S
C954 C952 1.381 . S
C954 C955 1.394 . S
C954 H962 0.930 . S
C955 C954 1.394 . S
C955 C956 1.383 . S
C955 H963 0.929 . S
C956 C955 1.383 . S
C956 C957 1.377 . S
C957 H941 0.930 . S
C957 C956 1.377 . S
C957 C958 1.379 . S
C958 H942 0.931 . S
C958 C952 1.383 . S
C958 C957 1.379 . S
H959 C953 0.959 . S
H960 C953 0.961 . S
H961 C953 0.960 . S
H962 C954 0.930 . S
H963 C955 0.929 . S
H964 C972 0.929 . S
H965 C974 0.930 . S
H966 C976 0.930 . S
H967 C979 0.929 . S
H968 C982 0.930 . S
H969 C984 0.960 . S
H970 C984 0.960 . S
H971 C984 0.960 . S
C972 H964 0.929 . S
C972 C973 1.377 . S
C972 C974 1.384 . S
C973 C972 1.377 . S
C973 C979 1.390 . S
C974 H965 0.930 . S
C974 C972 1.384 . S
C974 C975 1.372 . S
C975 C974 1.372 . S
C975 C976 1.400 . S
C975 C980 1.490 . S
C976 H966 0.930 . S
C976 C975 1.400 . S
C976 C979 1.386 . S
H977 C993 0.930 . S
H978 C994 0.931 . S
C979 H967 0.929 . S
C979 C973 1.390 . S
C979 C976 1.386 . S
C980 C975 1.490 . S
C980 C982 1.395 . S
C980 C983 1.403 . S
H981 C987 0.930 . S
C982 H968 0.930 . S
C982 C980 1.395 . S
C982 C985 1.403 . S
C983 C980 1.403 . S
C983 C984 1.524 . S
C983 C987 1.400 . S
C984 H969 0.960 . S
C984 H970 0.960 . S
C984 H971 0.960 . S
C984 C983 1.524 . S
C985 C982 1.403 . S
C985 C986 1.392 . S
C985 C989 1.495 . S
C986 C985 1.392 . S
C986 C987 1.385 . S
C986 C988 1.478 . S
C987 H981 0.930 . S
C987 C983 1.400 . S
C987 C986 1.385 . S
C988 C986 1.478 . S
C988 C990 1.381 . S
C988 C994 1.383 . S
C989 C985 1.495 . S
C989 H995 0.959 . S
C989 H996 0.961 . S
C989 H997 0.960 . S
C990 C988 1.381 . S
C990 C991 1.394 . S
C990 H998 0.930 . S
C991 C990 1.394 . S
C991 C992 1.383 . S
C991 H999 0.929 . S
C992 C991 1.383 . S
C992 C993 1.377 . S
C993 H977 0.930 . S
C993 C992 1.377 . S
C993 C994 1.379 . S
C994 H978 0.931 . S
C994 C988 1.383 . S
C994 C993 1.379 . S
H995 C989 0.959 . S
H996 C989 0.961 . S
H997 C989 0.960 . S
H998 C990 0.930 . S
H999 C991 0.929 . S
H1000 C1008 0.929 . S
H1001 C1010 0.930 . S
H1002 C1012 0.930 . S
H1003 C1015 0.929 . S
H1004 C1018 0.930 . S
H1005 C1020 0.960 . S
H1006 C1020 0.960 . S
H1007 C1020 0.960 . S
C1008 H1000 0.929 . S
C1008 C1009 1.377 . S
C1008 C1010 1.384 . S
C1009 C1008 1.377 . S
C1009 C1015 1.390 . S
C1010 H1001 0.930 . S
C1010 C1008 1.384 . S
C1010 C1011 1.372 . S
C1011 C1010 1.372 . S
C1011 C1012 1.400 . S
C1011 C1016 1.490 . S
C1012 H1002 0.930 . S
C1012 C1011 1.400 . S
C1012 C1015 1.386 . S
H1013 C1029 0.930 . S
H1014 C1030 0.931 . S
C1015 H1003 0.929 . S
C1015 C1009 1.390 . S
C1015 C1012 1.386 . S
C1016 C1011 1.490 . S
C1016 C1018 1.395 . S
C1016 C1019 1.403 . S
H1017 C1023 0.930 . S
C1018 H1004 0.930 . S
C1018 C1016 1.395 . S
C1018 C1021 1.403 . S
C1019 C1016 1.403 . S
C1019 C1020 1.524 . S
C1019 C1023 1.400 . S
C1020 H1005 0.960 . S
C1020 H1006 0.960 . S
C1020 H1007 0.960 . S
C1020 C1019 1.524 . S
C1021 C1018 1.403 . S
C1021 C1022 1.392 . S
C1021 C1025 1.495 . S
C1022 C1021 1.392 . S
C1022 C1023 1.385 . S
C1022 C1024 1.478 . S
C1023 H1017 0.930 . S
C1023 C1019 1.400 . S
C1023 C1022 1.385 . S
C1024 C1022 1.478 . S
C1024 C1026 1.381 . S
C1024 C1030 1.383 . S
C1025 C1021 1.495 . S
C1025 H1031 0.959 . S
C1025 H1032 0.961 . S
C1025 H1033 0.960 . S
C1026 C1024 1.381 . S
C1026 C1027 1.394 . S
C1026 H1034 0.930 . S
C1027 C1026 1.394 . S
C1027 C1028 1.383 . S
C1027 H1035 0.929 . S
C1028 C1027 1.383 . S
C1028 C1029 1.377 . S
C1029 H1013 0.930 . S
C1029 C1028 1.377 . S
C1029 C1030 1.379 . S
C1030 H1014 0.931 . S
C1030 C1024 1.383 . S
C1030 C1029 1.379 . S
H1031 C1025 0.959 . S
H1032 C1025 0.961 . S
H1033 C1025 0.960 . S
H1034 C1026 0.930 . S
H1035 C1027 0.929 . S
H1036 C1044 0.929 . S
H1037 C1046 0.930 . S
H1038 C1048 0.930 . S
H1039 C1051 0.929 . S
H1040 C1054 0.930 . S
H1041 C1056 0.960 . S
H1042 C1056 0.960 . S
H1043 C1056 0.960 . S
C1044 H1036 0.929 . S
C1044 C1045 1.377 . S
C1044 C1046 1.384 . S
C1045 C1044 1.377 . S
C1045 C1051 1.390 . S
C1046 H1037 0.930 . S
C1046 C1044 1.384 . S
C1046 C1047 1.372 . S
C1047 C1046 1.372 . S
C1047 C1048 1.400 . S
C1047 C1052 1.490 . S
C1048 H1038 0.930 . S
C1048 C1047 1.400 . S
C1048 C1051 1.386 . S
H1049 C1065 0.930 . S
H1050 C1066 0.931 . S
C1051 H1039 0.929 . S
C1051 C1045 1.390 . S
C1051 C1048 1.386 . S
C1052 C1047 1.490 . S
C1052 C1054 1.395 . S
C1052 C1055 1.403 . S
H1053 C1059 0.930 . S
C1054 H1040 0.930 . S
C1054 C1052 1.395 . S
C1054 C1057 1.403 . S
C1055 C1052 1.403 . S
C1055 C1056 1.524 . S
C1055 C1059 1.400 . S
C1056 H1041 0.960 . S
C1056 H1042 0.960 . S
C1056 H1043 0.960 . S
C1056 C1055 1.524 . S
C1057 C1054 1.403 . S
C1057 C1058 1.392 . S
C1057 C1061 1.495 . S
C1058 C1057 1.392 . S
C1058 C1059 1.385 . S
C1058 C1060 1.478 . S
C1059 H1053 0.930 . S
C1059 C1055 1.400 . S
C1059 C1058 1.385 . S
C1060 C1058 1.478 . S
C1060 C1062 1.381 . S
C1060 C1066 1.383 . S
C1061 C1057 1.495 . S
C1061 H1067 0.959 . S
C1061 H1068 0.961 . S
C1061 H1069 0.960 . S
C1062 C1060 1.381 . S
C1062 C1063 1.394 . S
C1062 H1070 0.930 . S
C1063 C1062 1.394 . S
C1063 C1064 1.383 . S
C1063 H1071 0.929 . S
C1064 C1063 1.383 . S
C1064 C1065 1.377 . S
C1065 H1049 0.930 . S
C1065 C1064 1.377 . S
C1065 C1066 1.379 . S
C1066 H1050 0.931 . S
C1066 C1060 1.383 . S
C1066 C1065 1.379 . S
H1067 C1061 0.959 . S
H1068 C1061 0.961 . S
H1069 C1061 0.960 . S
H1070 C1062 0.930 . S
H1071 C1063 0.929 . S
H1072 C1080 0.929 . S
H1073 C1082 0.930 . S
H1074 C1084 0.930 . S
H1075 C1087 0.929 . S
H1076 C1090 0.930 . S
H1077 C1092 0.960 . S
H1078 C1092 0.960 . S
H1079 C1092 0.960 . S
C1080 H1072 0.929 . S
C1080 C1081 1.377 . S
C1080 C1082 1.384 . S
C1081 C1080 1.377 . S
C1081 C1087 1.390 . S
C1082 H1073 0.930 . S
C1082 C1080 1.384 . S
C1082 C1083 1.372 . S
C1083 C1082 1.372 . S
C1083 C1084 1.400 . S
C1083 C1088 1.490 . S
C1084 H1074 0.930 . S
C1084 C1083 1.400 . S
C1084 C1087 1.386 . S
H1085 C1101 0.930 . S
H1086 C1102 0.931 . S
C1087 H1075 0.929 . S
C1087 C1081 1.390 . S
C1087 C1084 1.386 . S
C1088 C1083 1.490 . S
C1088 C1090 1.395 . S
C1088 C1091 1.403 . S
H1089 C1095 0.930 . S
C1090 H1076 0.930 . S
C1090 C1088 1.395 . S
C1090 C1093 1.403 . S
C1091 C1088 1.403 . S
C1091 C1092 1.524 . S
C1091 C1095 1.400 . S
C1092 H1077 0.960 . S
C1092 H1078 0.960 . S
C1092 H1079 0.960 . S
C1092 C1091 1.524 . S
C1093 C1090 1.403 . S
C1093 C1094 1.392 . S
C1093 C1097 1.495 . S
C1094 C1093 1.392 . S
C1094 C1095 1.385 . S
C1094 C1096 1.478 . S
C1095 H1089 0.930 . S
C1095 C1091 1.400 . S
C1095 C1094 1.385 . S
C1096 C1094 1.478 . S
C1096 C1098 1.381 . S
C1096 C1102 1.383 . S
C1097 C1093 1.495 . S
C1097 H1103 0.959 . S
C1097 H1104 0.961 . S
C1097 H1105 0.960 . S
C1098 C1096 1.381 . S
C1098 C1099 1.394 . S
C1098 H1106 0.930 . S
C1099 C1098 1.394 . S
C1099 C1100 1.383 . S
C1099 H1107 0.929 . S
C1100 C1099 1.383 . S
C1100 C1101 1.377 . S
C1101 H1085 0.930 . S
C1101 C1100 1.377 . S
C1101 C1102 1.379 . S
C1102 H1086 0.931 . S
C1102 C1096 1.383 . S
C1102 C1101 1.379 . S
H1103 C1097 0.959 . S
H1104 C1097 0.961 . S
H1105 C1097 0.960 . S
H1106 C1098 0.930 . S
H1107 C1099 0.929 . S
H1108 C1116 0.929 . S
H1109 C1118 0.930 . S
H1110 C1120 0.930 . S
H1111 C1123 0.929 . S
H1112 C1126 0.930 . S
H1113 C1128 0.960 . S
H1114 C1128 0.960 . S
H1115 C1128 0.960 . S
C1116 H1108 0.929 . S
C1116 C1117 1.377 . S
C1116 C1118 1.384 . S
C1117 C1116 1.377 . S
C1117 C1123 1.390 . S
C1118 H1109 0.930 . S
C1118 C1116 1.384 . S
C1118 C1119 1.372 . S
C1119 C1118 1.372 . S
C1119 C1120 1.400 . S
C1119 C1124 1.490 . S
C1120 H1110 0.930 . S
C1120 C1119 1.400 . S
C1120 C1123 1.386 . S
H1121 C1137 0.930 . S
H1122 C1138 0.931 . S
C1123 H1111 0.929 . S
C1123 C1117 1.390 . S
C1123 C1120 1.386 . S
C1124 C1119 1.490 . S
C1124 C1126 1.395 . S
C1124 C1127 1.403 . S
H1125 C1131 0.930 . S
C1126 H1112 0.930 . S
C1126 C1124 1.395 . S
C1126 C1129 1.403 . S
C1127 C1124 1.403 . S
C1127 C1128 1.524 . S
C1127 C1131 1.400 . S
C1128 H1113 0.960 . S
C1128 H1114 0.960 . S
C1128 H1115 0.960 . S
C1128 C1127 1.524 . S
C1129 C1126 1.403 . S
C1129 C1130 1.392 . S
C1129 C1133 1.495 . S
C1130 C1129 1.392 . S
C1130 C1131 1.385 . S
C1130 C1132 1.478 . S
C1131 H1125 0.930 . S
C1131 C1127 1.400 . S
C1131 C1130 1.385 . S
C1132 C1130 1.478 . S
C1132 C1134 1.381 . S
C1132 C1138 1.383 . S
C1133 C1129 1.495 . S
C1133 H1139 0.959 . S
C1133 H1140 0.961 . S
C1133 H1141 0.960 . S
C1134 C1132 1.381 . S
C1134 C1135 1.394 . S
C1134 H1142 0.930 . S
C1135 C1134 1.394 . S
C1135 C1136 1.383 . S
C1135 H1143 0.929 . S
C1136 C1135 1.383 . S
C1136 C1137 1.377 . S
C1137 H1121 0.930 . S
C1137 C1136 1.377 . S
C1137 C1138 1.379 . S
C1138 H1122 0.931 . S
C1138 C1132 1.383 . S
C1138 C1137 1.379 . S
H1139 C1133 0.959 . S
H1140 C1133 0.961 . S
H1141 C1133 0.960 . S
H1142 C1134 0.930 . S
H1143 C1135 0.929 . S
H1144 C1152 0.929 . S
H1145 C1154 0.930 . S
H1146 C1156 0.930 . S
H1147 C1159 0.929 . S
H1148 C1162 0.930 . S
H1149 C1164 0.960 . S
H1150 C1164 0.960 . S
H1151 C1164 0.960 . S
C1152 H1144 0.929 . S
C1152 C1153 1.377 . S
C1152 C1154 1.384 . S
C1153 C1152 1.377 . S
C1153 C1159 1.390 . S
C1154 H1145 0.930 . S
C1154 C1152 1.384 . S
C1154 C1155 1.372 . S
C1155 C1154 1.372 . S
C1155 C1156 1.400 . S
C1155 C1160 1.490 . S
C1156 H1146 0.930 . S
C1156 C1155 1.400 . S
C1156 C1159 1.386 . S
H1157 C1173 0.930 . S
H1158 C1174 0.931 . S
C1159 H1147 0.929 . S
C1159 C1153 1.390 . S
C1159 C1156 1.386 . S
C1160 C1155 1.490 . S
C1160 C1162 1.395 . S
C1160 C1163 1.403 . S
H1161 C1167 0.930 . S
C1162 H1148 0.930 . S
C1162 C1160 1.395 . S
C1162 C1165 1.403 . S
C1163 C1160 1.403 . S
C1163 C1164 1.524 . S
C1163 C1167 1.400 . S
C1164 H1149 0.960 . S
C1164 H1150 0.960 . S
C1164 H1151 0.960 . S
C1164 C1163 1.524 . S
C1165 C1162 1.403 . S
C1165 C1166 1.392 . S
C1165 C1169 1.495 . S
C1166 C1165 1.392 . S
C1166 C1167 1.385 . S
C1166 C1168 1.478 . S
C1167 H1161 0.930 . S
C1167 C1163 1.400 . S
C1167 C1166 1.385 . S
C1168 C1166 1.478 . S
C1168 C1170 1.381 . S
C1168 C1174 1.383 . S
C1169 C1165 1.495 . S
C1169 H1175 0.959 . S
C1169 H1176 0.961 . S
C1169 H1177 0.960 . S
C1170 C1168 1.381 . S
C1170 C1171 1.394 . S
C1170 H1178 0.930 . S
C1171 C1170 1.394 . S
C1171 C1172 1.383 . S
C1171 H1179 0.929 . S
C1172 C1171 1.383 . S
C1172 C1173 1.377 . S
C1173 H1157 0.930 . S
C1173 C1172 1.377 . S
C1173 C1174 1.379 . S
C1174 H1158 0.931 . S
C1174 C1168 1.383 . S
C1174 C1173 1.379 . S
H1175 C1169 0.959 . S
H1176 C1169 0.961 . S
H1177 C1169 0.960 . S
H1178 C1170 0.930 . S
H1179 C1171 0.929 . S
H1180 C1188 0.929 . S
H1181 C1190 0.930 . S
H1182 C1192 0.930 . S
H1183 C1195 0.929 . S
H1184 C1198 0.930 . S
H1185 C1200 0.960 . S
H1186 C1200 0.960 . S
H1187 C1200 0.960 . S
C1188 H1180 0.929 . S
C1188 C1189 1.377 . S
C1188 C1190 1.384 . S
C1189 C1188 1.377 . S
C1189 C1195 1.390 . S
C1190 H1181 0.930 . S
C1190 C1188 1.384 . S
C1190 C1191 1.372 . S
C1191 C1190 1.372 . S
C1191 C1192 1.400 . S
C1191 C1196 1.490 . S
C1192 H1182 0.930 . S
C1192 C1191 1.400 . S
C1192 C1195 1.386 . S
H1193 C1209 0.930 . S
H1194 C1210 0.931 . S
C1195 H1183 0.929 . S
C1195 C1189 1.390 . S
C1195 C1192 1.386 . S
C1196 C1191 1.490 . S
C1196 C1198 1.395 . S
C1196 C1199 1.403 . S
H1197 C1203 0.930 . S
C1198 H1184 0.930 . S
C1198 C1196 1.395 . S
C1198 C1201 1.403 . S
C1199 C1196 1.403 . S
C1199 C1200 1.524 . S
C1199 C1203 1.400 . S
C1200 H1185 0.960 . S
C1200 H1186 0.960 . S
C1200 H1187 0.960 . S
C1200 C1199 1.524 . S
C1201 C1198 1.403 . S
C1201 C1202 1.392 . S
C1201 C1205 1.495 . S
C1202 C1201 1.392 . S
C1202 C1203 1.385 . S
C1202 C1204 1.478 . S
C1203 H1197 0.930 . S
C1203 C1199 1.400 . S
C1203 C1202 1.385 . S
C1204 C1202 1.478 . S
C1204 C1206 1.381 . S
C1204 C1210 1.383 . S
C1205 C1201 1.495 . S
C1205 H1211 0.959 . S
C1205 H1212 0.961 . S
C1205 H1213 0.960 . S
C1206 C1204 1.381 . S
C1206 C1207 1.394 . S
C1206 H1214 0.930 . S
C1207 C1206 1.394 . S
C1207 C1208 1.383 . S
C1207 H1215 0.929 . S
C1208 C1207 1.383 . S
C1208 C1209 1.377 . S
C1209 H1193 0.930 . S
C1209 C1208 1.377 . S
C1209 C1210 1.379 . S
C1210 H1194 0.931 . S
C1210 C1204 1.383 . S
C1210 C1209 1.379 . S
H1211 C1205 0.959 . S
H1212 C1205 0.961 . S
H1213 C1205 0.960 . S
H1214 C1206 0.930 . S
H1215 C1207 0.929 . S
H1216 C1224 0.929 . S
H1217 C1226 0.930 . S
H1218 C1228 0.930 . S
H1219 C1231 0.929 . S
H1220 C1234 0.930 . S
H1221 C1236 0.960 . S
H1222 C1236 0.960 . S
H1223 C1236 0.960 . S
C1224 H1216 0.929 . S
C1224 C1225 1.377 . S
C1224 C1226 1.384 . S
C1225 C1224 1.377 . S
C1225 C1231 1.390 . S
C1226 H1217 0.930 . S
C1226 C1224 1.384 . S
C1226 C1227 1.372 . S
C1227 C1226 1.372 . S
C1227 C1228 1.400 . S
C1227 C1232 1.490 . S
C1228 H1218 0.930 . S
C1228 C1227 1.400 . S
C1228 C1231 1.386 . S
H1229 C1245 0.930 . S
H1230 C1246 0.931 . S
C1231 H1219 0.929 . S
C1231 C1225 1.390 . S
C1231 C1228 1.386 . S
C1232 C1227 1.490 . S
C1232 C1234 1.395 . S
C1232 C1235 1.403 . S
H1233 C1239 0.930 . S
C1234 H1220 0.930 . S
C1234 C1232 1.395 . S
C1234 C1237 1.403 . S
C1235 C1232 1.403 . S
C1235 C1236 1.524 . S
C1235 C1239 1.400 . S
C1236 H1221 0.960 . S
C1236 H1222 0.960 . S
C1236 H1223 0.960 . S
C1236 C1235 1.524 . S
C1237 C1234 1.403 . S
C1237 C1238 1.392 . S
C1237 C1241 1.495 . S
C1238 C1237 1.392 . S
C1238 C1239 1.385 . S
C1238 C1240 1.478 . S
C1239 H1233 0.930 . S
C1239 C1235 1.400 . S
C1239 C1238 1.385 . S
C1240 C1238 1.478 . S
C1240 C1242 1.381 . S
C1240 C1246 1.383 . S
C1241 C1237 1.495 . S
C1241 H1247 0.959 . S
C1241 H1248 0.961 . S
C1241 H1249 0.960 . S
C1242 C1240 1.381 . S
C1242 C1243 1.394 . S
C1242 H1250 0.930 . S
C1243 C1242 1.394 . S
C1243 C1244 1.383 . S
C1243 H1251 0.929 . S
C1244 C1243 1.383 . S
C1244 C1245 1.377 . S
C1245 H1229 0.930 . S
C1245 C1244 1.377 . S
C1245 C1246 1.379 . S
C1246 H1230 0.931 . S
C1246 C1240 1.383 . S
C1246 C1245 1.379 . S
H1247 C1241 0.959 . S
H1248 C1241 0.961 . S
H1249 C1241 0.960 . S
H1250 C1242 0.930 . S
H1251 C1243 0.929 . S
H1252 C1260 0.929 . S
H1253 C1262 0.930 . S
H1254 C1264 0.930 . S
H1255 C1267 0.929 . S
H1256 C1270 0.930 . S
H1257 C1272 0.960 . S
H1258 C1272 0.960 . S
H1259 C1272 0.960 . S
C1260 H1252 0.929 . S
C1260 C1261 1.377 . S
C1260 C1262 1.384 . S
C1261 C1260 1.377 . S
C1261 C1267 1.390 . S
C1262 H1253 0.930 . S
C1262 C1260 1.384 . S
C1262 C1263 1.372 . S
C1263 C1262 1.372 . S
C1263 C1264 1.400 . S
C1263 C1268 1.490 . S
C1264 H1254 0.930 . S
C1264 C1263 1.400 . S
C1264 C1267 1.386 . S
H1265 C1281 0.930 . S
H1266 C1282 0.931 . S
C1267 H1255 0.929 . S
C1267 C1261 1.390 . S
C1267 C1264 1.386 . S
C1268 C1263 1.490 . S
C1268 C1270 1.395 . S
C1268 C1271 1.403 . S
H1269 C1275 0.930 . S
C1270 H1256 0.930 . S
C1270 C1268 1.395 . S
C1270 C1273 1.403 . S
C1271 C1268 1.403 . S
C1271 C1272 1.524 . S
C1271 C1275 1.400 . S
C1272 H1257 0.960 . S
C1272 H1258 0.960 . S
C1272 H1259 0.960 . S
C1272 C1271 1.524 . S
C1273 C1270 1.403 . S
C1273 C1274 1.392 . S
C1273 C1277 1.495 . S
C1274 C1273 1.392 . S
C1274 C1275 1.385 . S
C1274 C1276 1.478 . S
C1275 H1269 0.930 . S
C1275 C1271 1.400 . S
C1275 C1274 1.385 . S
C1276 C1274 1.478 . S
C1276 C1278 1.381 . S
C1276 C1282 1.383 . S
C1277 C1273 1.495 . S
C1277 H1283 0.959 . S
C1277 H1284 0.961 . S
C1277 H1285 0.960 . S
C1278 C1276 1.381 . S
C1278 C1279 1.394 . S
C1278 H1286 0.930 . S
C1279 C1278 1.394 . S
C1279 C1280 1.383 . S
C1279 H1287 0.929 . S
C1280 C1279 1.383 . S
C1280 C1281 1.377 . S
C1281 H1265 0.930 . S
C1281 C1280 1.377 . S
C1281 C1282 1.379 . S
C1282 H1266 0.931 . S
C1282 C1276 1.383 . S
C1282 C1281 1.379 . S
H1283 C1277 0.959 . S
H1284 C1277 0.961 . S
H1285 C1277 0.960 . S
H1286 C1278 0.930 . S
H1287 C1279 0.929 . S
H1288 C1296 0.929 . S
H1289 C1298 0.930 . S
H1290 C1300 0.930 . S
H1291 C1303 0.929 . S
H1292 C1306 0.930 . S
H1293 C1308 0.960 . S
H1294 C1308 0.960 . S
H1295 C1308 0.960 . S
C1296 H1288 0.929 . S
C1296 C1297 1.377 . S
C1296 C1298 1.384 . S
C1297 C1296 1.377 . S
C1297 C1303 1.390 . S
C1298 H1289 0.930 . S
C1298 C1296 1.384 . S
C1298 C1299 1.372 . S
C1299 C1298 1.372 . S
C1299 C1300 1.400 . S
C1299 C1304 1.490 . S
C1300 H1290 0.930 . S
C1300 C1299 1.400 . S
C1300 C1303 1.386 . S
H1301 C1317 0.930 . S
H1302 C1318 0.931 . S
C1303 H1291 0.929 . S
C1303 C1297 1.390 . S
C1303 C1300 1.386 . S
C1304 C1299 1.490 . S
C1304 C1306 1.395 . S
C1304 C1307 1.403 . S
H1305 C1311 0.930 . S
C1306 H1292 0.930 . S
C1306 C1304 1.395 . S
C1306 C1309 1.403 . S
C1307 C1304 1.403 . S
C1307 C1308 1.524 . S
C1307 C1311 1.400 . S
C1308 H1293 0.960 . S
C1308 H1294 0.960 . S
C1308 H1295 0.960 . S
C1308 C1307 1.524 . S
C1309 C1306 1.403 . S
C1309 C1310 1.392 . S
C1309 C1313 1.495 . S
C1310 C1309 1.392 . S
C1310 C1311 1.385 . S
C1310 C1312 1.478 . S
C1311 H1305 0.930 . S
C1311 C1307 1.400 . S
C1311 C1310 1.385 . S
C1312 C1310 1.478 . S
C1312 C1314 1.381 . S
C1312 C1318 1.383 . S
C1313 C1309 1.495 . S
C1313 H1319 0.959 . S
C1313 H1320 0.961 . S
C1313 H1321 0.960 . S
C1314 C1312 1.381 . S
C1314 C1315 1.394 . S
C1314 H1322 0.930 . S
C1315 C1314 1.394 . S
C1315 C1316 1.383 . S
C1315 H1323 0.929 . S
C1316 C1315 1.383 . S
C1316 C1317 1.377 . S
C1317 H1301 0.930 . S
C1317 C1316 1.377 . S
C1317 C1318 1.379 . S
C1318 H1302 0.931 . S
C1318 C1312 1.383 . S
C1318 C1317 1.379 . S
H1319 C1313 0.959 . S
H1320 C1313 0.961 . S
H1321 C1313 0.960 . S
H1322 C1314 0.930 . S
H1323 C1315 0.929 . S
H1324 C1332 0.929 . S
H1325 C1334 0.930 . S
H1326 C1336 0.930 . S
H1327 C1339 0.929 . S
H1328 C1342 0.930 . S
H1329 C1344 0.960 . S
H1330 C1344 0.960 . S
H1331 C1344 0.960 . S
C1332 H1324 0.929 . S
C1332 C1333 1.377 . S
C1332 C1334 1.384 . S
C1333 C1332 1.377 . S
C1333 C1339 1.390 . S
C1334 H1325 0.930 . S
C1334 C1332 1.384 . S
C1334 C1335 1.372 . S
C1335 C1334 1.372 . S
C1335 C1336 1.400 . S
C1335 C1340 1.490 . S
C1336 H1326 0.930 . S
C1336 C1335 1.400 . S
C1336 C1339 1.386 . S
H1337 C1353 0.930 . S
H1338 C1354 0.931 . S
C1339 H1327 0.929 . S
C1339 C1333 1.390 . S
C1339 C1336 1.386 . S
C1340 C1335 1.490 . S
C1340 C1342 1.395 . S
C1340 C1343 1.403 . S
H1341 C1347 0.930 . S
C1342 H1328 0.930 . S
C1342 C1340 1.395 . S
C1342 C1345 1.403 . S
C1343 C1340 1.403 . S
C1343 C1344 1.524 . S
C1343 C1347 1.400 . S
C1344 H1329 0.960 . S
C1344 H1330 0.960 . S
C1344 H1331 0.960 . S
C1344 C1343 1.524 . S
C1345 C1342 1.403 . S
C1345 C1346 1.392 . S
C1345 C1349 1.495 . S
C1346 C1345 1.392 . S
C1346 C1347 1.385 . S
C1346 C1348 1.478 . S
C1347 H1341 0.930 . S
C1347 C1343 1.400 . S
C1347 C1346 1.385 . S
C1348 C1346 1.478 . S
C1348 C1350 1.381 . S
C1348 C1354 1.383 . S
C1349 C1345 1.495 . S
C1349 H1355 0.959 . S
C1349 H1356 0.961 . S
C1349 H1357 0.960 . S
C1350 C1348 1.381 . S
C1350 C1351 1.394 . S
C1350 H1358 0.930 . S
C1351 C1350 1.394 . S
C1351 C1352 1.383 . S
C1351 H1359 0.929 . S
C1352 C1351 1.383 . S
C1352 C1353 1.377 . S
C1353 H1337 0.930 . S
C1353 C1352 1.377 . S
C1353 C1354 1.379 . S
C1354 H1338 0.931 . S
C1354 C1348 1.383 . S
C1354 C1353 1.379 . S
H1355 C1349 0.959 . S
H1356 C1349 0.961 . S
H1357 C1349 0.960 . S
H1358 C1350 0.930 . S
H1359 C1351 0.929 . S
C236 C120 1.200 . S
C217 C5 1.189 . S
C272 C134 1.156 . S
C253 C18 1.188 . S
C308 C147 1.165 . S
C289 C31 1.195 . S
C325 C42 1.184 . S
C344 C114 1.165 . S
C361 C57 1.203 . S
C380 C107 1.186 . S
C397 C70 1.197 . S
C416 C127 1.171 . S
C452 C135 1.185 . S
C433 C81 1.178 . S
C488 C148 1.177 . S
C469 C96 1.194 . S
C505 C29 1.176 . S
C524 C174 1.179 . S
C560 C192 1.174 . S
C541 C44 1.185 . S
C577 C3 1.184 . S
C596 C199 1.200 . S
C632 C166 1.187 . S
C613 C16 1.179 . S
C649 C83 1.199 . S
C668 C159 1.212 . S
C685 C94 1.181 . S
C704 C173 1.180 . S
C740 C185 1.202 . S
C721 C55 1.180 . S
C757 C68 1.186 . S
C776 C200 1.203 . S
C812 C133 1.523 . S
C793 C1 1.501 . S
C848 C146 1.509 . S
C829 C14 1.510 . S
C865 C27 1.504 . S
C884 C109 1.492 . S
C901 C49 1.518 . S
C920 C121 1.505 . S
C937 C53 1.489 . S
C956 C153 1.489 . S
C992 C108 1.509 . S
C973 C66 1.491 . S
C1028 C122 1.520 . S
C1009 C88 1.520 . S
C1064 C140 1.497 . S
C1045 C92 1.494 . S
C1100 C187 1.490 . S
C1081 C36 1.528 . S
C1136 C198 1.505 . S
C1117 C40 1.503 . S
C1153 C10 1.519 . S
C1172 C161 1.517 . S
C1208 C179 1.481 . S
C1189 C23 1.520 . S
C1244 C205 1.495 . S
C1225 C79 1.494 . S
C1261 C101 1.516 . S
C1280 C160 1.482 . S
C1316 C172 1.503 . S
C1297 C62 1.522 . S
C1352 C186 1.481 . S
C1333 C75 1.521 . S
