# Generated by pormake.
# Topology nia, (6,6)-cn, num edge types: 1
# Building blocks:
#     Node 0, Type 0, BuildingBlock: VOLQOD_clean_sbu_1, # of connection points: 6
#     Node 1, Type 0, BuildingBlock: VOLQOD_clean_sbu_1, # of connection points: 6
#     Node 2, Type 1, BuildingBlock: MIDCAF_clean_sbu_0, # of connection points: 6
#     Node 3, Type 1, BuildingBlock: MIDCAF_clean_sbu_0, # of connection points: 6
#     Edge 4, Type (0, 1), BuildingBlock: XIVTED_clean_linker_0, # of connection points: 2
#     Edge 5, Type (0, 1), BuildingBlock: XIVTED_clean_linker_0, # of connection points: 2
#     Edge 6, Type (0, 1), BuildingBlock: XIVTED_clean_linker_0, # of connection points: 2
#     Edge 7, Type (0, 1), BuildingBlock: XIVTED_clean_linker_0, # of connection points: 2
#     Edge 8, Type (0, 1), BuildingBlock: XIVTED_clean_linker_0, # of connection points: 2
#     Edge 9, Type (0, 1), BuildingBlock: XIVTED_clean_linker_0, # of connection points: 2
#     Edge 10, Type (0, 1), BuildingBlock: XIVTED_clean_linker_0, # of connection points: 2
#     Edge 11, Type (0, 1), BuildingBlock: XIVTED_clean_linker_0, # of connection points: 2
#     Edge 12, Type (0, 1), BuildingBlock: XIVTED_clean_linker_0, # of connection points: 2
#     Edge 13, Type (0, 1), BuildingBlock: XIVTED_clean_linker_0, # of connection points: 2
#     Edge 14, Type (0, 1), BuildingBlock: XIVTED_clean_linker_0, # of connection points: 2
#     Edge 15, Type (0, 1), BuildingBlock: XIVTED_clean_linker_0, # of connection points: 2
# Relax obj value: 0.144
# Max RMSD: 0.235
# Mean RMSD: 0.189
data_MOF--net-nia--node1-VOLQOD_clean_sbu_1--node2-MIDCAF_clean_sbu_0--edge1-XIVTED_clean_linker_0
_symmetry_space_group_name_H-M    P1
_symmetry_Int_Tables_number       1
_symmetry_cell_setting            triclinic
loop_
_symmetry_equiv_pos_as_xyz
'x, y, z'
_cell_length_a     23.665587
_cell_length_b     23.501551
_cell_length_c     35.737879
_cell_angle_alpha  90.603494
_cell_angle_beta   90.392456
_cell_angle_gamma 120.64671
loop_
_atom_site_label
_atom_site_type_symbol
_atom_site_fract_x
_atom_site_fract_y
_atom_site_fract_z
_atom_type_partial_charge
O0 O 0.06944 0.06502 0.94035 0.0
Zn1 Zn -0.0171 -0.00236 0.96021 0.0
O2 O -0.0171 -0.00124 0.0144 0.0
Zn3 Zn 0.94809 0.90862 0.03133 0.0
Zn4 Zn 0.07266 0.05549 0.03302 0.0
Zn5 Zn 0.92781 0.03298 0.03193 0.0
O6 O 0.86623 0.87752 0.06152 0.0
O7 O 0.86005 0.96846 0.067 0.0
O8 O 0.96171 0.91028 0.93901 0.0
O9 O 0.93173 0.84505 0.98829 0.0
O10 O 0.01334 0.90523 0.06526 0.0
O11 O 0.1049 0.00332 0.06141 0.0
O12 O 0.07725 0.12486 0.06823 0.0
O13 O 0.91636 0.01635 0.93958 0.0
O14 O -0.01894 0.11905 0.06097 0.0
O15 O 0.87869 0.0445 0.9888 0.0
C16 C 0.1251 0.10343 0.95555 0.0
C17 C 0.83965 0.90846 0.07509 0.0
C18 C 0.0735 0.94452 0.07361 0.0
C19 C 0.94111 0.85388 0.95324 0.0
C20 C 0.03881 0.14655 0.07513 0.0
C21 C 0.8789 0.03457 0.95367 0.0
O22 O 0.13405 0.10429 0.99079 0.0
O23 O 0.00587 0.13887 0.49419 0.0
Zn24 Zn -0.00678 0.07221 0.53262 0.0
O25 O 0.97077 -0.01203 0.50958 0.0
Zn26 Zn 0.87983 0.92161 0.52117 0.0
Zn27 Zn -0.01894 -0.0014 0.45567 0.0
Zn28 Zn 0.03064 0.96137 0.52903 0.0
O29 O 0.87916 0.85163 0.55323 0.0
O30 O -0.01735 0.87486 0.55532 0.0
O31 O 0.92126 0.06022 0.56566 0.0
O32 O 0.83591 0.9603 0.55289 0.0
O33 O 0.82741 0.87809 0.47346 0.0
O34 O 0.89931 0.93228 0.42871 0.0
O35 O 0.05453 0.98685 0.43738 0.0
O36 O 0.07349 0.10979 0.56584 0.0
O37 O 0.08665 0.95729 0.48841 0.0
O38 O 0.09164 0.02617 0.56753 0.0
C39 C 0.00684 0.1381 0.4586 0.0
C40 C 0.9227 0.83876 0.56418 0.0
C41 C 0.84249 0.88786 0.43894 0.0
C42 C 0.8618 0.01554 0.57055 0.0
C43 C 0.09159 0.9699 0.45362 0.0
C44 C 0.10471 0.08323 0.57862 0.0
O45 O -0.00106 0.0878 0.4403 0.0
Zn46 Zn 0.28141 0.64221 0.15835 0.0
Zn47 Zn 0.34421 0.68717 0.33818 0.0
Zn48 Zn 0.31332 0.67032 0.27365 0.0
C49 C 0.44554 0.68749 0.29983 0.0
C50 C 0.23073 0.56761 0.33686 0.0
O51 O 0.27864 0.73644 0.25843 0.0
O52 O 0.27756 0.68935 0.20619 0.0
C53 C 0.41196 0.68439 0.19747 0.0
O54 O 0.41543 0.69557 0.2723 0.0
O55 O 0.4201 0.67474 0.33181 0.0
O56 O 0.26413 0.61348 0.36029 0.0
O57 O 0.24523 0.57667 0.30192 0.0
O58 O 0.37627 0.66664 0.16755 0.0
O59 O 0.39074 0.68607 0.2308 0.0
O60 O 0.23671 0.568 0.26392 0.0
O61 O 0.25365 0.6161 0.21118 0.0
C62 C 0.22584 0.56263 0.22879 0.0
O63 O 0.30076 0.75205 0.29531 0.0
O64 O 0.36035 0.77791 0.34713 0.0
C65 C 0.2688 0.73174 0.22318 0.0
C66 C 0.3272 0.7901 0.32423 0.0
Zn67 Zn 0.64715 0.32156 0.83007 0.0
Zn68 Zn 0.6364 0.31589 0.69567 0.0
Zn69 Zn 0.64265 0.31949 0.76456 0.0
C70 C 0.7406 0.43712 0.71215 0.0
C71 C 0.51944 0.29916 0.71587 0.0
O72 O 0.66767 0.24587 0.78414 0.0
O73 O 0.62486 0.2301 0.84027 0.0
C74 C 0.75426 0.43491 0.81469 0.0
O75 O 0.71348 0.41908 0.74432 0.0
O76 O 0.72146 0.39618 0.6852 0.0
O77 O 0.5562 0.32082 0.68787 0.0
O78 O 0.54164 0.29046 0.74696 0.0
O79 O 0.73937 0.39157 0.83924 0.0
O80 O 0.71915 0.41985 0.78447 0.0
O81 O 0.54633 0.29648 0.78694 0.0
O82 O 0.57991 0.34446 0.84238 0.0
C83 C 0.53484 0.31681 0.81802 0.0
O84 O 0.66733 0.24562 0.7437 0.0
O85 O 0.62912 0.2295 0.68564 0.0
C86 C 0.65059 0.21349 0.8149 0.0
C87 C 0.65376 0.21397 0.71215 0.0
H88 H 0.01799 0.85465 0.12858 0.0
H89 H 0.31321 0.79454 0.15712 0.0
H90 H 0.20325 0.97958 0.07495 0.0
H91 H 0.17208 0.7549 0.2434 0.0
H92 H 0.27069 0.85521 0.12259 0.0
H93 H 0.07049 0.80967 0.1676 0.0
C94 C 0.06986 0.87269 0.12513 0.0
C95 C 0.10644 0.92059 0.09847 0.0
C96 C 0.24994 0.83419 0.14941 0.0
C97 C 0.16642 0.86888 0.14265 0.0
C98 C 0.27383 0.79949 0.16891 0.0
C99 C 0.24667 0.77119 0.20334 0.0
C100 C 0.19743 0.83858 0.16411 0.0
C101 C 0.19549 0.77802 0.21751 0.0
C102 C 0.09979 0.84732 0.14752 0.0
C103 C 0.17354 0.94275 0.0953 0.0
N104 N 0.17191 0.81048 0.19761 0.0
N105 N 0.20139 0.91594 0.11684 0.0
H106 H 0.1712 0.21575 0.59676 0.0
H107 H 0.41855 0.1779 0.73228 0.0
H108 H 0.15607 0.03066 0.62589 0.0
H109 H 0.46333 0.36243 0.68285 0.0
H110 H 0.30599 0.12756 0.7084 0.0
H111 H 0.26334 0.27315 0.6413 0.0
C112 C 0.18682 0.18717 0.61277 0.0
C113 C 0.15691 0.11856 0.60712 0.0
C114 C 0.33983 0.17956 0.7036 0.0
C115 C 0.26109 0.18348 0.65821 0.0
C116 C 0.40364 0.20853 0.71785 0.0
C117 C 0.44936 0.27455 0.71016 0.0
C118 C 0.32236 0.21665 0.68079 0.0
C119 C 0.42889 0.31139 0.68956 0.0
C120 C 0.23921 0.21988 0.63817 0.0
C121 C 0.17861 0.08379 0.62879 0.0
N122 N 0.36688 0.28169 0.67514 0.0
N123 N 0.22963 0.1167 0.65319 0.0
H124 H 0.13754 0.19288 0.1275 0.0
H125 H 0.15089 0.53164 0.16577 0.0
H126 H -0.00642 0.23306 0.07983 0.0
H127 H 0.22605 0.44949 0.24562 0.0
H128 H 0.09996 0.42705 0.1301 0.0
H129 H 0.1782 0.29144 0.16754 0.0
C130 C 0.11446 0.22244 0.12546 0.0
C131 C 0.06224 0.20493 0.10019 0.0
C132 C 0.12688 0.43165 0.15569 0.0
C133 C 0.10893 0.31789 0.14569 0.0
C134 C 0.15602 0.49119 0.17591 0.0
C135 C 0.19179 0.49851 0.20883 0.0
C136 C 0.1351 0.3798 0.16802 0.0
C137 C 0.19759 0.4451 0.22078 0.0
C138 C 0.13745 0.2784 0.14847 0.0
C139 C 0.03387 0.24475 0.09895 0.0
N140 N 0.17006 0.38805 0.20013 0.0
N141 N 0.05807 0.29987 0.12112 0.0
H142 H 0.72733 0.95805 0.57647 0.0
H143 H 0.77174 0.22788 0.7288 0.0
H144 H 0.91101 0.10289 0.62871 0.0
H145 H 0.58716 0.09736 0.67316 0.0
H146 H 0.81641 0.16277 0.70332 0.0
H147 H 0.66919 -0.00915 0.62054 0.0
C148 C 0.75525 -0.00388 0.59741 0.0
C149 C 0.82409 0.02888 0.59841 0.0
C150 C 0.76552 0.14702 0.69739 0.0
C151 C 0.7584 0.0659 0.64886 0.0
C152 C 0.73961 0.18336 0.7128 0.0
C153 C 0.67524 0.16658 0.70407 0.0
C154 C 0.72735 0.09482 0.67203 0.0
C155 C 0.637 0.11128 0.68077 0.0
C156 C 0.72216 0.01475 0.62253 0.0
C157 C 0.85797 0.07739 0.6263 0.0
N158 N 0.66392 0.07777 0.66508 0.0
N159 N 0.82487 0.09469 0.65014 0.0
H160 H 0.78757 0.96371 0.1206 0.0
H161 H 0.46918 0.62207 0.16461 0.0
H162 H 0.76497 0.77548 0.08844 0.0
H163 H 0.51189 0.80716 0.21518 0.0
H164 H 0.5821 0.67504 0.14204 0.0
H165 H 0.69143 0.90637 0.16002 0.0
C166 C 0.76249 0.91027 0.12191 0.0
C167 C 0.78376 0.87426 0.10072 0.0
C168 C 0.56745 0.70378 0.15891 0.0
C169 C 0.67346 0.8082 0.14588 0.0
C170 C 0.50325 0.67347 0.17189 0.0
C171 C 0.48218 0.7104 0.19214 0.0
C172 C 0.60996 0.77187 0.16541 0.0
C173 C 0.52716 0.77698 0.2003 0.0
C174 C 0.70781 0.87756 0.14466 0.0
C175 C 0.74994 0.80518 0.10403 0.0
N176 N 0.58884 0.80596 0.18644 0.0
N177 N 0.6959 0.77431 0.12579 0.0
H178 H -0.00883 0.77715 0.582 0.0
H179 H 0.72257 0.53934 0.72805 0.0
H180 H 0.81316 0.77772 0.60699 0.0
H181 H 0.85474 0.49046 0.6738 0.0
H182 H 0.77778 0.64696 0.69783 0.0
H183 H 0.96005 0.68869 0.62734 0.0
C184 C 0.94562 0.7587 0.59699 0.0
C185 C 0.90418 0.78409 0.59034 0.0
C186 C 0.79589 0.61342 0.69335 0.0
C187 C 0.86947 0.68467 0.64267 0.0
C188 C 0.76529 0.55268 0.71118 0.0
C189 C 0.7851 0.5069 0.70379 0.0
C190 C 0.84608 0.62783 0.66778 0.0
C191 C 0.83863 0.52504 0.68029 0.0
C192 C 0.92815 0.70859 0.62291 0.0
C193 C 0.84604 0.75884 0.61076 0.0
N194 N 0.86701 0.58405 0.66272 0.0
N195 N 0.83044 0.71054 0.63601 0.0
H196 H 0.19748 0.96462 0.4796 0.0
H197 H 0.39328 0.89456 0.3729 0.0
H198 H 0.09603 0.95867 0.37744 0.0
H199 H 0.22291 0.79996 0.30003 0.0
H200 H 0.35049 0.9597 0.40133 0.0
H201 H 0.27075 0.942 0.4435 0.0
C202 C 0.19129 0.95955 0.44945 0.0
C203 C 0.14019 0.96287 0.43154 0.0
C204 C 0.32263 0.92497 0.37895 0.0
C205 C 0.22493 0.93827 0.38975 0.0
C206 C 0.34737 0.88835 0.3624 0.0
C207 C 0.31089 0.84095 0.33444 0.0
C208 C 0.26052 0.9132 0.36779 0.0
C209 C 0.25246 0.83584 0.32143 0.0
C210 C 0.23386 0.94758 0.42872 0.0
C211 C 0.13469 0.95627 0.39238 0.0
N212 N 0.22842 0.87071 0.33866 0.0
N213 N 0.1758 0.94299 0.37283 0.0
H214 H 0.24225 0.21264 0.97609 0.0
H215 H 0.41896 0.21159 0.79386 0.0
H216 H 0.1339 0.09221 0.88 0.0
H217 H 0.50026 0.3813 0.86818 0.0
H218 H 0.31162 0.17086 0.82177 0.0
H219 H 0.3363 0.27796 0.93598 0.0
C220 C 0.23815 0.20022 0.94653 0.0
C221 C 0.18063 0.1464 0.93144 0.0
C222 C 0.35245 0.21805 0.83123 0.0
C223 C 0.28775 0.22059 0.88552 0.0
C224 C 0.41347 0.24181 0.81476 0.0
C225 C 0.46814 0.30015 0.82829 0.0
C226 C 0.34688 0.25208 0.86218 0.0
C227 C 0.4592 0.33576 0.85707 0.0
C228 C 0.29156 0.23783 0.9236 0.0
C229 C 0.17755 0.13302 0.89285 0.0
N230 N 0.39993 0.31048 0.87362 0.0
N231 N 0.23083 0.16921 0.87129 0.0
H232 H 0.01975 0.25246 0.4874 0.0
H233 H 0.16361 0.44877 0.29861 0.0
H234 H 0.02501 0.16019 0.38331 0.0
H235 H 0.17817 0.54004 0.40643 0.0
H236 H 0.09079 0.34049 0.32555 0.0
H237 H 0.05551 0.35529 0.4545 0.0
C238 C 0.0279 0.25362 0.45756 0.0
C239 C 0.02078 0.19804 0.43823 0.0
C240 C 0.10933 0.38438 0.34314 0.0
C241 C 0.06199 0.31574 0.40043 0.0
C242 C 0.15091 0.44617 0.32775 0.0
C243 C 0.17847 0.50326 0.35052 0.0
C244 C 0.09521 0.38006 0.38147 0.0
C245 C 0.1593 0.49714 0.38801 0.0
C246 C 0.04821 0.31236 0.43876 0.0
C247 C 0.03089 0.20216 0.39945 0.0
N248 N 0.11951 0.43657 0.40242 0.0
N249 N 0.05192 0.26038 0.38188 0.0
H250 H 0.87911 0.03404 0.87722 0.0
H251 H 0.75801 0.21172 0.79074 0.0
H252 H 0.78 0.05809 0.97183 0.0
H253 H 0.5924 0.11161 0.86356 0.0
H254 H 0.8053 0.15055 0.81778 0.0
H255 H 0.81258 0.05834 0.83537 0.0
C256 C 0.84329 0.04431 0.88925 0.0
C257 C 0.83605 0.04542 0.92821 0.0
C258 C 0.75723 0.13962 0.82677 0.0
C259 C 0.76028 0.0736 0.88038 0.0
C260 C 0.72975 0.17392 0.81078 0.0
C261 C 0.67051 0.16536 0.82409 0.0
C262 C 0.7258 0.09779 0.85697 0.0
C263 C 0.63817 0.11931 0.85239 0.0
C264 C 0.80557 0.05839 0.86528 0.0
C265 C 0.78808 0.05796 0.94206 0.0
N266 N 0.66701 0.08828 0.86854 0.0
N267 N 0.75213 0.07189 0.91811 0.0
H268 H 0.73279 0.76524 0.44513 0.0
H269 H 0.55167 0.80238 0.27814 0.0
H270 H 0.8394 0.92128 0.36631 0.0
H271 H 0.49334 0.61068 0.32227 0.0
H272 H 0.66244 0.84418 0.30313 0.0
H273 H 0.64725 0.70521 0.39749 0.0
C274 C 0.73836 0.78659 0.41772 0.0
C275 C 0.7927 0.84862 0.4098 0.0
C276 C 0.62628 0.7922 0.30595 0.0
C277 C 0.69514 0.78056 0.35525 0.0
C278 C 0.56333 0.76799 0.2909 0.0
C279 C 0.51374 0.70292 0.29785 0.0
C280 C 0.63839 0.75135 0.32899 0.0
C281 C 0.53058 0.66124 0.31637 0.0
C282 C 0.68996 0.75206 0.39039 0.0
C283 C 0.79798 0.8737 0.37364 0.0
N284 N 0.59104 0.68663 0.33235 0.0
N285 N 0.7491 0.8402 0.3479 0.0
H286 H 0.91887 0.84359 0.87767 0.0
H287 H 0.85596 0.47684 0.86428 0.0
H288 H 0.9323 0.73687 0.97164 0.0
H289 H 0.76261 0.54863 0.79006 0.0
H290 H 0.91642 0.58621 0.89418 0.0
H291 H 0.89094 0.74815 0.83694 0.0
C292 C 0.91653 0.80033 0.88968 0.0
C293 C 0.92711 0.79773 0.9282 0.0
C294 C 0.88393 0.5784 0.8707 0.0
C295 C 0.89646 0.68938 0.88167 0.0
C296 C 0.84976 0.51624 0.85345 0.0
C297 C 0.80404 0.50373 0.82466 0.0
C298 C 0.87236 0.62832 0.85899 0.0
C299 C 0.79809 0.5565 0.81165 0.0
C300 C 0.90068 0.74608 0.86641 0.0
C301 C 0.92361 0.74056 0.94222 0.0
N302 N 0.83116 0.61648 0.8293 0.0
N303 N 0.90846 0.68853 0.91894 0.0
loop_
_geom_bond_atom_site_label_1
_geom_bond_atom_site_label_2
_geom_bond_distance
_geom_bond_site_symmetry_2
_ccdc_geom_bond_type
O0 Zn1 1.953 1_545 S
O0 C16 1.225 . S
Zn1 O0 1.953 1_565 S
Zn1 O2 1.949 1_566 S
Zn1 O8 1.919 1_455 S
Zn1 O13 1.924 1_465 S
O2 Zn1 1.949 1_544 S
O2 Zn3 1.923 1_445 S
O2 Zn4 1.950 . S
O2 Zn5 1.945 1_455 S
Zn3 O2 1.923 1_665 S
Zn3 O6 1.933 . S
Zn3 O9 1.941 1_554 S
Zn3 O10 1.965 1_655 S
Zn4 O2 1.950 . S
Zn4 O11 1.938 . S
Zn4 O12 1.906 . S
Zn4 O22 1.953 1_554 S
Zn5 O2 1.945 1_655 S
Zn5 O7 1.932 1_545 S
Zn5 O14 1.977 1_655 S
Zn5 O15 1.910 1_554 S
O6 Zn3 1.933 . S
O6 C17 1.226 . S
O7 Zn5 1.932 1_565 S
O7 C17 1.307 . S
O8 Zn1 1.919 1_655 S
O8 C19 1.253 . S
O9 Zn3 1.941 1_556 S
O9 C19 1.283 . S
O10 Zn3 1.965 1_455 S
O10 C18 1.303 . S
O11 Zn4 1.938 . S
O11 C18 1.247 1_545 S
O12 Zn4 1.906 . S
O12 C20 1.304 . S
O13 Zn1 1.924 1_645 S
O13 C21 1.311 . S
O14 Zn5 1.977 1_455 S
O14 C20 1.272 . S
O15 Zn5 1.910 1_556 S
O15 C21 1.231 . S
C16 O0 1.225 . S
C16 O22 1.298 . S
C17 O6 1.226 . S
C17 O7 1.307 . S
C18 O10 1.303 . S
C18 O11 1.247 1_565 S
C19 O8 1.253 . S
C19 O9 1.283 . S
C20 O12 1.304 . S
C20 O14 1.272 . S
C21 O13 1.311 . S
C21 O15 1.231 . S
O22 Zn4 1.953 1_556 S
O22 C16 1.298 . S
O23 Zn24 1.953 . S
O23 C39 1.225 . S
Zn24 O23 1.953 . S
Zn24 O25 1.949 . S
Zn24 O31 1.919 1_455 S
Zn24 O36 1.924 . S
O25 Zn24 1.949 . S
O25 Zn26 1.923 1_445 S
O25 Zn27 1.950 . S
O25 Zn28 1.945 1_545 S
Zn26 O25 1.923 1_665 S
Zn26 O29 1.933 . S
Zn26 O32 1.941 1_565 S
Zn26 O33 1.965 . S
Zn27 O25 1.950 . S
Zn27 O34 1.938 1_445 S
Zn27 O35 1.906 1_545 S
Zn27 O45 1.953 . S
Zn28 O25 1.945 1_565 S
Zn28 O30 1.932 1_455 S
Zn28 O37 1.977 . S
Zn28 O38 1.910 1_565 S
O29 Zn26 1.933 . S
O29 C40 1.226 . S
O30 Zn28 1.932 1_655 S
O30 C40 1.307 . S
O31 Zn24 1.919 1_655 S
O31 C42 1.253 . S
O32 Zn26 1.941 1_545 S
O32 C42 1.283 . S
O33 Zn26 1.965 . S
O33 C41 1.303 . S
O34 Zn27 1.938 1_665 S
O34 C41 1.247 . S
O35 Zn27 1.906 1_565 S
O35 C43 1.304 . S
O36 Zn24 1.924 . S
O36 C44 1.311 . S
O37 Zn28 1.977 . S
O37 C43 1.272 . S
O38 Zn28 1.910 1_545 S
O38 C44 1.231 . S
C39 O23 1.225 . S
C39 O45 1.298 . S
C40 O29 1.226 . S
C40 O30 1.307 . S
C41 O33 1.303 . S
C41 O34 1.247 . S
C42 O31 1.253 . S
C42 O32 1.283 . S
C43 O35 1.304 . S
C43 O37 1.272 . S
C44 O36 1.311 . S
C44 O38 1.231 . S
O45 Zn27 1.953 . S
O45 C39 1.298 . S
Zn46 O52 1.920 . S
Zn46 O58 1.898 . S
Zn46 O61 1.905 . S
Zn47 O55 1.905 . S
Zn47 O56 1.898 . S
Zn47 O64 1.920 . S
Zn48 O51 2.080 . S
Zn48 O54 2.114 . S
Zn48 O57 2.120 . S
Zn48 O59 2.120 . S
Zn48 O60 2.114 . S
Zn48 O63 2.080 . S
C49 O54 1.166 . S
C49 O55 1.182 . S
C50 O56 1.167 . S
C50 O57 1.299 . S
O51 Zn48 2.080 . S
O51 C65 1.305 . S
O52 Zn46 1.920 . S
O52 C65 1.234 . S
C53 O58 1.167 . S
C53 O59 1.299 . S
O54 Zn48 2.114 . S
O54 C49 1.166 . S
O55 Zn47 1.905 . S
O55 C49 1.182 . S
O56 Zn47 1.898 . S
O56 C50 1.167 . S
O57 Zn48 2.120 . S
O57 C50 1.299 . S
O58 Zn46 1.898 . S
O58 C53 1.167 . S
O59 Zn48 2.120 . S
O59 C53 1.299 . S
O60 Zn48 2.114 . S
O60 C62 1.166 . S
O61 Zn46 1.905 . S
O61 C62 1.182 . S
C62 O60 1.166 . S
C62 O61 1.182 . S
O63 Zn48 2.080 . S
O63 C66 1.305 . S
O64 Zn47 1.920 . S
O64 C66 1.234 . S
C65 O51 1.305 . S
C65 O52 1.234 . S
C66 O63 1.305 . S
C66 O64 1.234 . S
Zn67 O73 1.920 . S
Zn67 O79 1.898 . S
Zn67 O82 1.905 . S
Zn68 O76 1.905 . S
Zn68 O77 1.898 . S
Zn68 O85 1.920 . S
Zn69 O72 2.080 . S
Zn69 O75 2.114 . S
Zn69 O78 2.120 . S
Zn69 O80 2.120 . S
Zn69 O81 2.114 . S
Zn69 O84 2.080 . S
C70 O75 1.166 . S
C70 O76 1.182 . S
C71 O77 1.167 . S
C71 O78 1.299 . S
O72 Zn69 2.080 . S
O72 C86 1.305 . S
O73 Zn67 1.920 . S
O73 C86 1.234 . S
C74 O79 1.167 . S
C74 O80 1.299 . S
O75 Zn69 2.114 . S
O75 C70 1.166 . S
O76 Zn68 1.905 . S
O76 C70 1.182 . S
O77 Zn68 1.898 . S
O77 C71 1.167 . S
O78 Zn69 2.120 . S
O78 C71 1.299 . S
O79 Zn67 1.898 . S
O79 C74 1.167 . S
O80 Zn69 2.120 . S
O80 C74 1.299 . S
O81 Zn69 2.114 . S
O81 C83 1.166 . S
O82 Zn67 1.905 . S
O82 C83 1.182 . S
C83 O81 1.166 . S
C83 O82 1.182 . S
O84 Zn69 2.080 . S
O84 C87 1.305 . S
O85 Zn68 1.920 . S
O85 C87 1.234 . S
C86 O72 1.305 . S
C86 O73 1.234 . S
C87 O84 1.305 . S
C87 O85 1.234 . S
H88 C94 0.930 . S
H89 C98 0.930 . S
H90 C103 0.929 . S
H91 C101 0.929 . S
H92 C96 0.929 . S
H93 C102 0.929 . S
C94 H88 0.930 . S
C94 C95 1.367 . S
C94 C102 1.378 . S
C95 C94 1.367 . S
C95 C103 1.433 . S
C96 H92 0.929 . S
C96 C98 1.378 . S
C96 C100 1.350 . S
C97 C100 1.463 . S
C97 C102 1.350 . S
C97 N105 1.427 . S
C98 H89 0.930 . S
C98 C96 1.378 . S
C98 C99 1.367 . S
C99 C98 1.367 . S
C99 C101 1.433 . S
C100 C96 1.350 . S
C100 C97 1.463 . S
C100 N104 1.427 . S
C101 H91 0.929 . S
C101 C99 1.433 . S
C101 N104 1.384 . S
C102 H93 0.929 . S
C102 C94 1.378 . S
C102 C97 1.350 . S
C103 H90 0.929 . S
C103 C95 1.433 . S
C103 N105 1.384 . S
N104 C100 1.427 . S
N104 C101 1.384 . S
N105 C97 1.427 . S
N105 C103 1.384 . S
H106 C112 0.930 . S
H107 C116 0.930 . S
H108 C121 0.929 . S
H109 C119 0.929 . S
H110 C114 0.929 . S
H111 C120 0.929 . S
C112 H106 0.930 . S
C112 C113 1.367 . S
C112 C120 1.378 . S
C113 C112 1.367 . S
C113 C121 1.433 . S
C114 H110 0.929 . S
C114 C116 1.378 . S
C114 C118 1.350 . S
C115 C118 1.463 . S
C115 C120 1.350 . S
C115 N123 1.427 . S
C116 H107 0.930 . S
C116 C114 1.378 . S
C116 C117 1.367 . S
C117 C116 1.367 . S
C117 C119 1.433 . S
C118 C114 1.350 . S
C118 C115 1.463 . S
C118 N122 1.427 . S
C119 H109 0.929 . S
C119 C117 1.433 . S
C119 N122 1.384 . S
C120 H111 0.929 . S
C120 C112 1.378 . S
C120 C115 1.350 . S
C121 H108 0.929 . S
C121 C113 1.433 . S
C121 N123 1.384 . S
N122 C118 1.427 . S
N122 C119 1.384 . S
N123 C115 1.427 . S
N123 C121 1.384 . S
H124 C130 0.930 . S
H125 C134 0.930 . S
H126 C139 0.929 . S
H127 C137 0.929 . S
H128 C132 0.929 . S
H129 C138 0.929 . S
C130 H124 0.930 . S
C130 C131 1.367 . S
C130 C138 1.378 . S
C131 C130 1.367 . S
C131 C139 1.433 . S
C132 H128 0.929 . S
C132 C134 1.378 . S
C132 C136 1.350 . S
C133 C136 1.463 . S
C133 C138 1.350 . S
C133 N141 1.427 . S
C134 H125 0.930 . S
C134 C132 1.378 . S
C134 C135 1.367 . S
C135 C134 1.367 . S
C135 C137 1.433 . S
C136 C132 1.350 . S
C136 C133 1.463 . S
C136 N140 1.427 . S
C137 H127 0.929 . S
C137 C135 1.433 . S
C137 N140 1.384 . S
C138 H129 0.929 . S
C138 C130 1.378 . S
C138 C133 1.350 . S
C139 H126 0.929 . S
C139 C131 1.433 . S
C139 N141 1.384 . S
N140 C136 1.427 . S
N140 C137 1.384 . S
N141 C133 1.427 . S
N141 C139 1.384 . S
H142 C148 0.930 . S
H143 C152 0.930 . S
H144 C157 0.929 . S
H145 C155 0.929 . S
H146 C150 0.929 . S
H147 C156 0.929 . S
C148 H142 0.930 . S
C148 C149 1.367 . S
C148 C156 1.378 . S
C149 C148 1.367 . S
C149 C157 1.433 . S
C150 H146 0.929 . S
C150 C152 1.378 . S
C150 C154 1.350 . S
C151 C154 1.463 . S
C151 C156 1.350 . S
C151 N159 1.427 . S
C152 H143 0.930 . S
C152 C150 1.378 . S
C152 C153 1.367 . S
C153 C152 1.367 . S
C153 C155 1.433 . S
C154 C150 1.350 . S
C154 C151 1.463 . S
C154 N158 1.427 . S
C155 H145 0.929 . S
C155 C153 1.433 . S
C155 N158 1.384 . S
C156 H147 0.929 . S
C156 C148 1.378 . S
C156 C151 1.350 . S
C157 H144 0.929 . S
C157 C149 1.433 . S
C157 N159 1.384 . S
N158 C154 1.427 . S
N158 C155 1.384 . S
N159 C151 1.427 . S
N159 C157 1.384 . S
H160 C166 0.930 . S
H161 C170 0.930 . S
H162 C175 0.929 . S
H163 C173 0.929 . S
H164 C168 0.929 . S
H165 C174 0.929 . S
C166 H160 0.930 . S
C166 C167 1.367 . S
C166 C174 1.378 . S
C167 C166 1.367 . S
C167 C175 1.433 . S
C168 H164 0.929 . S
C168 C170 1.378 . S
C168 C172 1.350 . S
C169 C172 1.463 . S
C169 C174 1.350 . S
C169 N177 1.427 . S
C170 H161 0.930 . S
C170 C168 1.378 . S
C170 C171 1.367 . S
C171 C170 1.367 . S
C171 C173 1.433 . S
C172 C168 1.350 . S
C172 C169 1.463 . S
C172 N176 1.427 . S
C173 H163 0.929 . S
C173 C171 1.433 . S
C173 N176 1.384 . S
C174 H165 0.929 . S
C174 C166 1.378 . S
C174 C169 1.350 . S
C175 H162 0.929 . S
C175 C167 1.433 . S
C175 N177 1.384 . S
N176 C172 1.427 . S
N176 C173 1.384 . S
N177 C169 1.427 . S
N177 C175 1.384 . S
H178 C184 0.930 . S
H179 C188 0.930 . S
H180 C193 0.929 . S
H181 C191 0.929 . S
H182 C186 0.929 . S
H183 C192 0.929 . S
C184 H178 0.930 . S
C184 C185 1.367 . S
C184 C192 1.378 . S
C185 C184 1.367 . S
C185 C193 1.433 . S
C186 H182 0.929 . S
C186 C188 1.378 . S
C186 C190 1.350 . S
C187 C190 1.463 . S
C187 C192 1.350 . S
C187 N195 1.427 . S
C188 H179 0.930 . S
C188 C186 1.378 . S
C188 C189 1.367 . S
C189 C188 1.367 . S
C189 C191 1.433 . S
C190 C186 1.350 . S
C190 C187 1.463 . S
C190 N194 1.427 . S
C191 H181 0.929 . S
C191 C189 1.433 . S
C191 N194 1.384 . S
C192 H183 0.929 . S
C192 C184 1.378 . S
C192 C187 1.350 . S
C193 H180 0.929 . S
C193 C185 1.433 . S
C193 N195 1.384 . S
N194 C190 1.427 . S
N194 C191 1.384 . S
N195 C187 1.427 . S
N195 C193 1.384 . S
H196 C202 0.930 . S
H197 C206 0.930 . S
H198 C211 0.929 . S
H199 C209 0.929 . S
H200 C204 0.929 . S
H201 C210 0.929 . S
C202 H196 0.930 . S
C202 C203 1.367 . S
C202 C210 1.378 . S
C203 C202 1.367 . S
C203 C211 1.433 . S
C204 H200 0.929 . S
C204 C206 1.378 . S
C204 C208 1.350 . S
C205 C208 1.463 . S
C205 C210 1.350 . S
C205 N213 1.427 . S
C206 H197 0.930 . S
C206 C204 1.378 . S
C206 C207 1.367 . S
C207 C206 1.367 . S
C207 C209 1.433 . S
C208 C204 1.350 . S
C208 C205 1.463 . S
C208 N212 1.427 . S
C209 H199 0.929 . S
C209 C207 1.433 . S
C209 N212 1.384 . S
C210 H201 0.929 . S
C210 C202 1.378 . S
C210 C205 1.350 . S
C211 H198 0.929 . S
C211 C203 1.433 . S
C211 N213 1.384 . S
N212 C208 1.427 . S
N212 C209 1.384 . S
N213 C205 1.427 . S
N213 C211 1.384 . S
H214 C220 0.930 . S
H215 C224 0.930 . S
H216 C229 0.929 . S
H217 C227 0.929 . S
H218 C222 0.929 . S
H219 C228 0.929 . S
C220 H214 0.930 . S
C220 C221 1.367 . S
C220 C228 1.378 . S
C221 C220 1.367 . S
C221 C229 1.433 . S
C222 H218 0.929 . S
C222 C224 1.378 . S
C222 C226 1.350 . S
C223 C226 1.463 . S
C223 C228 1.350 . S
C223 N231 1.427 . S
C224 H215 0.930 . S
C224 C222 1.378 . S
C224 C225 1.367 . S
C225 C224 1.367 . S
C225 C227 1.433 . S
C226 C222 1.350 . S
C226 C223 1.463 . S
C226 N230 1.427 . S
C227 H217 0.929 . S
C227 C225 1.433 . S
C227 N230 1.384 . S
C228 H219 0.929 . S
C228 C220 1.378 . S
C228 C223 1.350 . S
C229 H216 0.929 . S
C229 C221 1.433 . S
C229 N231 1.384 . S
N230 C226 1.427 . S
N230 C227 1.384 . S
N231 C223 1.427 . S
N231 C229 1.384 . S
H232 C238 0.930 . S
H233 C242 0.930 . S
H234 C247 0.929 . S
H235 C245 0.929 . S
H236 C240 0.929 . S
H237 C246 0.929 . S
C238 H232 0.930 . S
C238 C239 1.367 . S
C238 C246 1.378 . S
C239 C238 1.367 . S
C239 C247 1.433 . S
C240 H236 0.929 . S
C240 C242 1.378 . S
C240 C244 1.350 . S
C241 C244 1.463 . S
C241 C246 1.350 . S
C241 N249 1.427 . S
C242 H233 0.930 . S
C242 C240 1.378 . S
C242 C243 1.367 . S
C243 C242 1.367 . S
C243 C245 1.433 . S
C244 C240 1.350 . S
C244 C241 1.463 . S
C244 N248 1.427 . S
C245 H235 0.929 . S
C245 C243 1.433 . S
C245 N248 1.384 . S
C246 H237 0.929 . S
C246 C238 1.378 . S
C246 C241 1.350 . S
C247 H234 0.929 . S
C247 C239 1.433 . S
C247 N249 1.384 . S
N248 C244 1.427 . S
N248 C245 1.384 . S
N249 C241 1.427 . S
N249 C247 1.384 . S
H250 C256 0.930 . S
H251 C260 0.930 . S
H252 C265 0.929 . S
H253 C263 0.929 . S
H254 C258 0.929 . S
H255 C264 0.929 . S
C256 H250 0.930 . S
C256 C257 1.367 . S
C256 C264 1.378 . S
C257 C256 1.367 . S
C257 C265 1.433 . S
C258 H254 0.929 . S
C258 C260 1.378 . S
C258 C262 1.350 . S
C259 C262 1.463 . S
C259 C264 1.350 . S
C259 N267 1.427 . S
C260 H251 0.930 . S
C260 C258 1.378 . S
C260 C261 1.367 . S
C261 C260 1.367 . S
C261 C263 1.433 . S
C262 C258 1.350 . S
C262 C259 1.463 . S
C262 N266 1.427 . S
C263 H253 0.929 . S
C263 C261 1.433 . S
C263 N266 1.384 . S
C264 H255 0.929 . S
C264 C256 1.378 . S
C264 C259 1.350 . S
C265 H252 0.929 . S
C265 C257 1.433 . S
C265 N267 1.384 . S
N266 C262 1.427 . S
N266 C263 1.384 . S
N267 C259 1.427 . S
N267 C265 1.384 . S
H268 C274 0.930 . S
H269 C278 0.930 . S
H270 C283 0.929 . S
H271 C281 0.929 . S
H272 C276 0.929 . S
H273 C282 0.929 . S
C274 H268 0.930 . S
C274 C275 1.367 . S
C274 C282 1.378 . S
C275 C274 1.367 . S
C275 C283 1.433 . S
C276 H272 0.929 . S
C276 C278 1.378 . S
C276 C280 1.350 . S
C277 C280 1.463 . S
C277 C282 1.350 . S
C277 N285 1.427 . S
C278 H269 0.930 . S
C278 C276 1.378 . S
C278 C279 1.367 . S
C279 C278 1.367 . S
C279 C281 1.433 . S
C280 C276 1.350 . S
C280 C277 1.463 . S
C280 N284 1.427 . S
C281 H271 0.929 . S
C281 C279 1.433 . S
C281 N284 1.384 . S
C282 H273 0.929 . S
C282 C274 1.378 . S
C282 C277 1.350 . S
C283 H270 0.929 . S
C283 C275 1.433 . S
C283 N285 1.384 . S
N284 C280 1.427 . S
N284 C281 1.384 . S
N285 C277 1.427 . S
N285 C283 1.384 . S
H286 C292 0.930 . S
H287 C296 0.930 . S
H288 C301 0.929 . S
H289 C299 0.929 . S
H290 C294 0.929 . S
H291 C300 0.929 . S
C292 H286 0.930 . S
C292 C293 1.367 . S
C292 C300 1.378 . S
C293 C292 1.367 . S
C293 C301 1.433 . S
C294 H290 0.929 . S
C294 C296 1.378 . S
C294 C298 1.350 . S
C295 C298 1.463 . S
C295 C300 1.350 . S
C295 N303 1.427 . S
C296 H287 0.930 . S
C296 C294 1.378 . S
C296 C297 1.367 . S
C297 C296 1.367 . S
C297 C299 1.433 . S
C298 C294 1.350 . S
C298 C295 1.463 . S
C298 N302 1.427 . S
C299 H289 0.929 . S
C299 C297 1.433 . S
C299 N302 1.384 . S
C300 H291 0.929 . S
C300 C292 1.378 . S
C300 C295 1.350 . S
C301 H288 0.929 . S
C301 C293 1.433 . S
C301 N303 1.384 . S
N302 C298 1.427 . S
N302 C299 1.384 . S
N303 C295 1.427 . S
N303 C301 1.384 . S
C95 C18 1.474 . S
C99 C65 1.343 . S
C113 C44 1.457 . S
C117 C71 1.338 . S
C131 C20 1.445 . S
C135 C62 1.349 . S
C149 C42 1.493 . S
C153 C87 1.420 . S
C167 C17 1.460 . S
C171 C53 1.306 . S
C189 C70 1.366 . S
C185 C40 1.497 . S
C203 C43 1.460 . S
C207 C66 1.337 . S
C225 C83 1.371 . S
C221 C16 1.507 . S
C243 C50 1.354 . S
C239 C39 1.500 . S
C261 C86 1.364 . S
C257 C21 1.442 . S
C279 C49 1.422 . S
C275 C41 1.469 . S
C297 C74 1.334 . S
C293 C19 1.453 . S
