# Generated by pormake.
# Topology ocu, (6,8)-cn, num edge types: 1
# Building blocks:
#     Node 0, Type 0, BuildingBlock: KUMJIN_clean_sbu_0, # of connection points: 6
#     Node 1, Type 0, BuildingBlock: KUMJIN_clean_sbu_0, # of connection points: 6
#     Node 2, Type 0, BuildingBlock: KUMJIN_clean_sbu_0, # of connection points: 6
#     Node 3, Type 0, BuildingBlock: KUMJIN_clean_sbu_0, # of connection points: 6
#     Node 4, Type 0, BuildingBlock: KUMJIN_clean_sbu_0, # of connection points: 6
#     Node 5, Type 0, BuildingBlock: KUMJIN_clean_sbu_0, # of connection points: 6
#     Node 6, Type 0, BuildingBlock: KUMJIN_clean_sbu_0, # of connection points: 6
#     Node 7, Type 0, BuildingBlock: KUMJIN_clean_sbu_0, # of connection points: 6
#     Node 8, Type 1, BuildingBlock: VETTIZ_charged_sbu_0, # of connection points: 8
#     Node 9, Type 1, BuildingBlock: VETTIZ_charged_sbu_0, # of connection points: 8
#     Node 10, Type 1, BuildingBlock: VETTIZ_charged_sbu_0, # of connection points: 8
#     Node 11, Type 1, BuildingBlock: VETTIZ_charged_sbu_0, # of connection points: 8
#     Node 12, Type 1, BuildingBlock: VETTIZ_charged_sbu_0, # of connection points: 8
#     Node 13, Type 1, BuildingBlock: VETTIZ_charged_sbu_0, # of connection points: 8
#     Edge 14, Type (0, 1), BuildingBlock: KIFKEQ_clean_linker_1, # of connection points: 2
#     Edge 15, Type (0, 1), BuildingBlock: KIFKEQ_clean_linker_1, # of connection points: 2
#     Edge 16, Type (0, 1), BuildingBlock: KIFKEQ_clean_linker_1, # of connection points: 2
#     Edge 17, Type (0, 1), BuildingBlock: KIFKEQ_clean_linker_1, # of connection points: 2
#     Edge 18, Type (0, 1), BuildingBlock: KIFKEQ_clean_linker_1, # of connection points: 2
#     Edge 19, Type (0, 1), BuildingBlock: KIFKEQ_clean_linker_1, # of connection points: 2
#     Edge 20, Type (0, 1), BuildingBlock: KIFKEQ_clean_linker_1, # of connection points: 2
#     Edge 21, Type (0, 1), BuildingBlock: KIFKEQ_clean_linker_1, # of connection points: 2
#     Edge 22, Type (0, 1), BuildingBlock: KIFKEQ_clean_linker_1, # of connection points: 2
#     Edge 23, Type (0, 1), BuildingBlock: KIFKEQ_clean_linker_1, # of connection points: 2
#     Edge 24, Type (0, 1), BuildingBlock: KIFKEQ_clean_linker_1, # of connection points: 2
#     Edge 25, Type (0, 1), BuildingBlock: KIFKEQ_clean_linker_1, # of connection points: 2
#     Edge 26, Type (0, 1), BuildingBlock: KIFKEQ_clean_linker_1, # of connection points: 2
#     Edge 27, Type (0, 1), BuildingBlock: KIFKEQ_clean_linker_1, # of connection points: 2
#     Edge 28, Type (0, 1), BuildingBlock: KIFKEQ_clean_linker_1, # of connection points: 2
#     Edge 29, Type (0, 1), BuildingBlock: KIFKEQ_clean_linker_1, # of connection points: 2
#     Edge 30, Type (0, 1), BuildingBlock: KIFKEQ_clean_linker_1, # of connection points: 2
#     Edge 31, Type (0, 1), BuildingBlock: KIFKEQ_clean_linker_1, # of connection points: 2
#     Edge 32, Type (0, 1), BuildingBlock: KIFKEQ_clean_linker_1, # of connection points: 2
#     Edge 33, Type (0, 1), BuildingBlock: KIFKEQ_clean_linker_1, # of connection points: 2
#     Edge 34, Type (0, 1), BuildingBlock: KIFKEQ_clean_linker_1, # of connection points: 2
#     Edge 35, Type (0, 1), BuildingBlock: KIFKEQ_clean_linker_1, # of connection points: 2
#     Edge 36, Type (0, 1), BuildingBlock: KIFKEQ_clean_linker_1, # of connection points: 2
#     Edge 37, Type (0, 1), BuildingBlock: KIFKEQ_clean_linker_1, # of connection points: 2
#     Edge 38, Type (0, 1), BuildingBlock: KIFKEQ_clean_linker_1, # of connection points: 2
#     Edge 39, Type (0, 1), BuildingBlock: KIFKEQ_clean_linker_1, # of connection points: 2
#     Edge 40, Type (0, 1), BuildingBlock: KIFKEQ_clean_linker_1, # of connection points: 2
#     Edge 41, Type (0, 1), BuildingBlock: KIFKEQ_clean_linker_1, # of connection points: 2
#     Edge 42, Type (0, 1), BuildingBlock: KIFKEQ_clean_linker_1, # of connection points: 2
#     Edge 43, Type (0, 1), BuildingBlock: KIFKEQ_clean_linker_1, # of connection points: 2
#     Edge 44, Type (0, 1), BuildingBlock: KIFKEQ_clean_linker_1, # of connection points: 2
#     Edge 45, Type (0, 1), BuildingBlock: KIFKEQ_clean_linker_1, # of connection points: 2
#     Edge 46, Type (0, 1), BuildingBlock: KIFKEQ_clean_linker_1, # of connection points: 2
#     Edge 47, Type (0, 1), BuildingBlock: KIFKEQ_clean_linker_1, # of connection points: 2
#     Edge 48, Type (0, 1), BuildingBlock: KIFKEQ_clean_linker_1, # of connection points: 2
#     Edge 49, Type (0, 1), BuildingBlock: KIFKEQ_clean_linker_1, # of connection points: 2
#     Edge 50, Type (0, 1), BuildingBlock: KIFKEQ_clean_linker_1, # of connection points: 2
#     Edge 51, Type (0, 1), BuildingBlock: KIFKEQ_clean_linker_1, # of connection points: 2
#     Edge 52, Type (0, 1), BuildingBlock: KIFKEQ_clean_linker_1, # of connection points: 2
#     Edge 53, Type (0, 1), BuildingBlock: KIFKEQ_clean_linker_1, # of connection points: 2
#     Edge 54, Type (0, 1), BuildingBlock: KIFKEQ_clean_linker_1, # of connection points: 2
#     Edge 55, Type (0, 1), BuildingBlock: KIFKEQ_clean_linker_1, # of connection points: 2
#     Edge 56, Type (0, 1), BuildingBlock: KIFKEQ_clean_linker_1, # of connection points: 2
#     Edge 57, Type (0, 1), BuildingBlock: KIFKEQ_clean_linker_1, # of connection points: 2
#     Edge 58, Type (0, 1), BuildingBlock: KIFKEQ_clean_linker_1, # of connection points: 2
#     Edge 59, Type (0, 1), BuildingBlock: KIFKEQ_clean_linker_1, # of connection points: 2
#     Edge 60, Type (0, 1), BuildingBlock: KIFKEQ_clean_linker_1, # of connection points: 2
#     Edge 61, Type (0, 1), BuildingBlock: KIFKEQ_clean_linker_1, # of connection points: 2
# Relax obj value: 0.112
# Max RMSD: 0.247
# Mean RMSD: 0.163
data_MOF--net-ocu--node1-KUMJIN_clean_sbu_0--node2-VETTIZ_charged_sbu_0--edge1-KIFKEQ_clean_linker_1
_symmetry_space_group_name_H-M    P1
_symmetry_Int_Tables_number       1
_symmetry_cell_setting            triclinic
loop_
_symmetry_equiv_pos_as_xyz
'x, y, z'
_cell_length_a     38.317478
_cell_length_b     39.595204
_cell_length_c     42.237748
_cell_angle_alpha  77.841013
_cell_angle_beta   99.674601
_cell_angle_gamma 103.83521
loop_
_atom_site_label
_atom_site_type_symbol
_atom_site_fract_x
_atom_site_fract_y
_atom_site_fract_z
_atom_type_partial_charge
Eu0 Eu 0.28953 0.23711 0.24567 0.0
C1 C 0.40019 0.33813 0.32839 0.0
C2 C 0.41322 0.29952 0.37952 0.0
C3 C 0.4588 0.35104 0.36102 0.0
C4 C 0.3897 0.30806 0.35095 0.0
C5 C 0.43438 0.36062 0.33371 0.0
C6 C 0.44825 0.32048 0.38387 0.0
C7 C 0.41593 0.40249 0.28711 0.0
N8 N 0.37579 0.34682 0.3025 0.0
C9 C 0.3824 0.37924 0.28281 0.0
C10 C 0.44234 0.39282 0.31225 0.0
Eu11 Eu 0.31995 0.30589 0.29639 0.0
N12 N 0.35538 0.28892 0.34636 0.0
C13 C 0.34166 0.26335 0.37094 0.0
C14 C 0.40021 0.27125 0.40357 0.0
C15 C 0.36401 0.2536 0.39956 0.0
H16 H 0.36211 0.38682 0.2633 0.0
H17 H 0.35331 0.23243 0.41846 0.0
H18 H 0.46686 0.31408 0.40546 0.0
H19 H 0.42141 0.42777 0.27096 0.0
H20 H 0.31372 0.24952 0.3682 0.0
H21 H 0.31676 0.33174 0.13219 0.0
H22 H 0.41742 0.26377 0.42582 0.0
H23 H 0.21571 0.17307 0.25907 0.0
H24 H 0.33215 0.29968 0.18663 0.0
H25 H 0.15264 0.15569 0.23381 0.0
H26 H 0.48539 0.36774 0.36532 0.0
H27 H 0.25399 0.32016 0.10478 0.0
H28 H 0.19015 0.28595 0.10581 0.0
H29 H 0.46826 0.4109 0.31557 0.0
H30 H 0.14535 0.2387 0.1336 0.0
N31 N 0.2786 0.2689 0.1914 0.0
C32 C 0.30466 0.2934 0.1755 0.0
C33 C 0.2606 0.30549 0.1289 0.0
C34 C 0.23419 0.2798 0.14467 0.0
C35 C 0.29604 0.31205 0.14428 0.0
C36 C 0.24415 0.26148 0.17619 0.0
H37 H 0.13116 0.18992 0.18109 0.0
N38 N 0.22915 0.21787 0.22203 0.0
C39 C 0.17077 0.17841 0.22194 0.0
C40 C 0.21871 0.23534 0.19203 0.0
C41 C 0.20642 0.18846 0.23624 0.0
C42 C 0.15878 0.19777 0.1922 0.0
C43 C 0.18298 0.2262 0.17654 0.0
O44 O 0.28275 0.18047 0.25073 0.0
O45 O 0.32703 0.25305 0.28946 0.0
O46 O 0.36732 0.31132 0.26929 0.0
O47 O 0.34749 0.26699 0.23726 0.0
O48 O 0.29726 0.20157 0.29471 0.0
O49 O 0.31753 0.21471 0.2154 0.0
O50 O 0.29554 0.35166 0.29078 0.0
O51 O 0.28068 0.28825 0.254 0.0
O52 O 0.24329 0.23488 0.27456 0.0
O53 O 0.27446 0.26341 0.31715 0.0
O54 O 0.30817 0.34036 0.24739 0.0
O55 O 0.29866 0.31681 0.33736 0.0
C56 C 0.32229 0.22356 0.3089 0.0
C57 C 0.30997 0.14972 0.22076 0.0
C58 C 0.34269 0.118 0.19565 0.0
C59 C 0.33626 0.15017 0.20065 0.0
C60 C 0.3221 0.08586 0.21023 0.0
C61 C 0.28977 0.11696 0.23471 0.0
C62 C 0.29577 0.08541 0.2294 0.0
C63 C 0.37194 0.29385 0.2474 0.0
C64 C 0.30375 0.18243 0.22889 0.0
C65 C 0.17277 0.24506 0.14567 0.0
C66 C 0.1983 0.27187 0.12981 0.0
C67 C 0.28328 0.31744 0.23421 0.0
C68 C 0.2979 0.37657 0.33715 0.0
C69 C 0.26946 0.389 0.34462 0.0
C70 C 0.2763 0.42026 0.35773 0.0
C71 C 0.31248 0.43871 0.3632 0.0
C72 C 0.33369 0.39477 0.34375 0.0
C73 C 0.34087 0.42579 0.35657 0.0
C74 C 0.24509 0.2442 0.30329 0.0
C75 C 0.28926 0.34565 0.32096 0.0
H76 H 0.35214 0.17511 0.1897 0.0
H77 H 0.32616 0.06089 0.20647 0.0
H78 H 0.26929 0.11556 0.25006 0.0
H79 H 0.28002 0.06043 0.24035 0.0
H80 H 0.24204 0.37395 0.34037 0.0
H81 H 0.31901 0.46326 0.37245 0.0
H82 H 0.35601 0.38527 0.33881 0.0
H83 H 0.36855 0.44004 0.36117 0.0
Eu84 Eu 0.83107 0.24808 0.26629 0.0
C85 C 0.68567 0.26214 0.30309 0.0
C86 C 0.63681 0.26021 0.25843 0.0
C87 C 0.62347 0.23685 0.31405 0.0
C88 C 0.67401 0.26871 0.27006 0.0
C89 C 0.66033 0.24701 0.32555 0.0
C90 C 0.61172 0.24346 0.28053 0.0
C91 C 0.70913 0.25606 0.36913 0.0
N92 N 0.72152 0.27228 0.31337 0.0
C93 C 0.7332 0.27087 0.34594 0.0
C94 C 0.67264 0.24347 0.35893 0.0
Eu95 Eu 0.76055 0.29543 0.27207 0.0
N96 N 0.69885 0.28519 0.24942 0.0
C97 C 0.68815 0.29618 0.21706 0.0
C98 C 0.62586 0.26971 0.22503 0.0
C99 C 0.65162 0.28821 0.20433 0.0
H100 H 0.76106 0.28069 0.35451 0.0
H101 H 0.64338 0.29623 0.17857 0.0
H102 H 0.58309 0.23636 0.27204 0.0
H103 H 0.71881 0.25427 0.3949 0.0
H104 H 0.708 0.31019 0.20088 0.0
H105 H 0.93889 0.24735 0.36904 0.0
H106 H 0.59755 0.26363 0.21514 0.0
H107 H 0.83839 0.26733 0.18615 0.0
H108 H 0.87637 0.23299 0.34145 0.0
H109 H 0.88551 0.29394 0.14963 0.0
H110 H 0.60373 0.22475 0.33094 0.0
H111 H 0.98854 0.28107 0.337 0.0
H112 H 1.00893 0.3095 0.28221 0.0
H113 H 0.65409 0.2319 0.37696 0.0
H114 H 0.99438 0.3223 0.22246 0.0
N115 N 0.89045 0.25911 0.29448 0.0
C116 C 0.89792 0.24756 0.32726 0.0
C117 C 0.96116 0.27493 0.3248 0.0
C118 C 0.95361 0.28502 0.29098 0.0
C119 C 0.93323 0.25579 0.34296 0.0
C120 C 0.9175 0.2765 0.27631 0.0
H121 H 0.94865 0.31577 0.17279 0.0
N122 N 0.8743 0.27462 0.22955 0.0
C123 C 0.89252 0.29164 0.17579 0.0
C124 C 0.90919 0.28432 0.2428 0.0
C125 C 0.86589 0.2766 0.19658 0.0
C126 C 0.9281 0.30402 0.18895 0.0
C127 C 0.93696 0.29997 0.22286 0.0
O128 O 0.82441 0.21275 0.2315 0.0
O129 O 0.77887 0.24447 0.28462 0.0
O130 O 0.80273 0.2921 0.31691 0.0
O131 O 0.85459 0.29274 0.29517 0.0
O132 O 0.81255 0.21417 0.31411 0.0
O133 O 0.84423 0.19609 0.28243 0.0
O134 O 0.78411 0.33975 0.29808 0.0
O135 O 0.81163 0.29821 0.2518 0.0
O136 O 0.78669 0.24586 0.22219 0.0
O137 O 0.73592 0.25299 0.24165 0.0
O138 O 0.77508 0.32395 0.22115 0.0
O139 O 0.74256 0.34522 0.25737 0.0
C140 C 0.78159 0.22269 0.31089 0.0
C141 C 0.81071 0.15148 0.25348 0.0
C142 C 0.80455 0.08831 0.27313 0.0
C143 C 0.82569 0.12271 0.26957 0.0
C144 C 0.76816 0.08256 0.25934 0.0
C145 C 0.77439 0.14561 0.23928 0.0
C146 C 0.75336 0.11117 0.24193 0.0
C147 C 0.83836 0.30025 0.31735 0.0
C148 C 0.8335 0.18702 0.25377 0.0
C149 C 0.97277 0.30982 0.23737 0.0
C150 C 0.98107 0.30247 0.27138 0.0
C151 C 0.80683 0.31717 0.22423 0.0
C152 C 0.79402 0.39201 0.25853 0.0
C153 C 0.78468 0.40389 0.22525 0.0
C154 C 0.81056 0.42522 0.2057 0.0
C155 C 0.84548 0.43822 0.22032 0.0
C156 C 0.82918 0.40499 0.27303 0.0
C157 C 0.85454 0.42844 0.25403 0.0
C158 C 0.75106 0.24237 0.22061 0.0
C159 C 0.76908 0.36181 0.2758 0.0
H160 H 0.85347 0.12742 0.28127 0.0
H161 H 0.75118 0.05625 0.26266 0.0
H162 H 0.76212 0.16748 0.22676 0.0
H163 H 0.72525 0.10677 0.23133 0.0
H164 H 0.75744 0.39475 0.21384 0.0
H165 H 0.86582 0.45502 0.20568 0.0
H166 H 0.8374 0.39616 0.29868 0.0
H167 H 0.88167 0.43801 0.26528 0.0
Eu168 Eu 0.77537 0.74847 0.305 0.0
C169 C 0.86373 0.86454 0.20521 0.0
C170 C 0.82082 0.87738 0.15769 0.0
C171 C 0.87293 0.92298 0.17129 0.0
C172 C 0.83209 0.85397 0.18555 0.0
C173 C 0.88502 0.89891 0.19793 0.0
C174 C 0.84087 0.91222 0.15118 0.0
C175 C 0.93026 0.88197 0.24177 0.0
N176 N 0.87489 0.84042 0.23029 0.0
C177 C 0.90828 0.84816 0.24784 0.0
C178 C 0.91836 0.90764 0.21697 0.0
Eu179 Eu 0.83564 0.78419 0.24054 0.0
N180 N 0.81369 0.82003 0.19237 0.0
C181 C 0.78565 0.80694 0.17065 0.0
C182 C 0.79056 0.86468 0.13655 0.0
C183 C 0.77329 0.82912 0.14279 0.0
H184 H 0.9175 0.82848 0.2672 0.0
H185 H 0.75036 0.81877 0.12622 0.0
H186 H 0.83242 0.93069 0.13011 0.0
H187 H 0.9563 0.88822 0.25624 0.0
H188 H 0.7719 0.7796 0.17505 0.0
H189 H 0.86345 0.70353 0.41398 0.0
H190 H 0.78098 0.8818 0.11493 0.0
H191 H 0.68982 0.71015 0.27993 0.0
H192 H 0.84295 0.74607 0.3675 0.0
H193 H 0.6471 0.65305 0.29113 0.0
H194 H 0.88871 0.94962 0.16547 0.0
H195 H 0.82753 0.64242 0.42514 0.0
H196 H 0.77107 0.59793 0.41132 0.0
H197 H 0.9355 0.93376 0.21218 0.0
H198 H 0.712 0.58425 0.37802 0.0
N199 N 0.79621 0.70943 0.35136 0.0
C200 C 0.82681 0.71963 0.37188 0.0
C201 C 0.81835 0.66104 0.40457 0.0
C202 C 0.78587 0.65137 0.38471 0.0
C203 C 0.83862 0.69552 0.3984 0.0
C204 C 0.77526 0.67659 0.35812 0.0
H205 H 0.66528 0.60483 0.33357 0.0
N206 N 0.73231 0.69454 0.31527 0.0
C207 C 0.67383 0.65708 0.30484 0.0
C208 C 0.7422 0.6689 0.33948 0.0
C209 C 0.6982 0.6895 0.29859 0.0
C210 C 0.68422 0.6299 0.32874 0.0
C211 C 0.71859 0.63576 0.34674 0.0
O212 O 0.73063 0.77009 0.31281 0.0
O213 O 0.78584 0.78882 0.25918 0.0
O214 O 0.84386 0.82547 0.27338 0.0
O215 O 0.82603 0.78728 0.32026 0.0
O216 O 0.73247 0.76475 0.26446 0.0
O217 O 0.77924 0.77371 0.34717 0.0
O218 O 0.88465 0.77172 0.22963 0.0
O219 O 0.82445 0.74313 0.28525 0.0
O220 O 0.76589 0.7064 0.27384 0.0
O221 O 0.78621 0.74265 0.22645 0.0
O222 O 0.87798 0.76705 0.28115 0.0
O223 O 0.83293 0.75267 0.20315 0.0
C224 C 0.75329 0.78783 0.24576 0.0
C225 C 0.72495 0.77375 0.36673 0.0
C226 C 0.69394 0.79678 0.40115 0.0
C227 C 0.71576 0.80236 0.37594 0.0
C228 C 0.68177 0.76183 0.41702 0.0
C229 C 0.71266 0.7393 0.38298 0.0
C230 C 0.6912 0.73345 0.40804 0.0
C231 C 0.84219 0.81842 0.30529 0.0
C232 C 0.74693 0.78043 0.33981 0.0
C233 C 0.72962 0.60997 0.37226 0.0
C234 C 0.76324 0.61775 0.3912 0.0
C235 C 0.85672 0.74284 0.29863 0.0
C236 C 0.88444 0.76041 0.17654 0.0
C237 C 0.89363 0.73214 0.16654 0.0
C238 C 0.90813 0.73733 0.13684 0.0
C239 C 0.91368 0.77143 0.11769 0.0
C240 C 0.8902 0.79405 0.15698 0.0
C241 C 0.90487 0.79947 0.12776 0.0
C242 C 0.76827 0.71253 0.24214 0.0
C243 C 0.86762 0.75413 0.20675 0.0
H244 H 0.72585 0.82895 0.3635 0.0
H245 H 0.66436 0.75622 0.436 0.0
H246 H 0.7195 0.71701 0.37617 0.0
H247 H 0.68154 0.70676 0.42039 0.0
H248 H 0.8887 0.70602 0.18148 0.0
H249 H 0.92515 0.77652 0.09497 0.0
H250 H 0.88319 0.816 0.16422 0.0
H251 H 0.90931 0.82553 0.11276 0.0
Eu252 Eu 0.32658 0.7154 0.28558 0.0
C253 C 0.26531 0.84049 0.1969 0.0
C254 C 0.31799 0.88786 0.18874 0.0
C255 C 0.26622 0.88382 0.14664 0.0
C256 C 0.2999 0.85706 0.2079 0.0
C257 C 0.24767 0.8542 0.16652 0.0
C258 C 0.30134 0.9006 0.15772 0.0
C259 C 0.19357 0.81049 0.17915 0.0
N260 N 0.24804 0.81224 0.21686 0.0
C261 C 0.21217 0.79801 0.20911 0.0
C262 C 0.21155 0.8384 0.15754 0.0
Eu263 Eu 0.28166 0.79134 0.26646 0.0
N264 N 0.31509 0.84416 0.23807 0.0
C265 C 0.34719 0.86234 0.25151 0.0
C266 C 0.35183 0.90546 0.2017 0.0
C267 C 0.36621 0.89294 0.23342 0.0
H268 H 0.19828 0.77625 0.22568 0.0
H269 H 0.39207 0.90671 0.24391 0.0
H270 H 0.31501 0.92396 0.14249 0.0
H271 H 0.16544 0.79855 0.17273 0.0
H272 H 0.35886 0.85294 0.27588 0.0
H273 H 0.21767 0.60171 0.31818 0.0
H274 H 0.36667 0.92911 0.18772 0.0
H275 H 0.41256 0.73122 0.32095 0.0
H276 H 0.24909 0.65362 0.28254 0.0
H277 H 0.4488 0.71132 0.37277 0.0
H278 H 0.25328 0.89451 0.12305 0.0
H279 H 0.24665 0.58211 0.37378 0.0
H280 H 0.30142 0.58907 0.41588 0.0
H281 H 0.19705 0.84813 0.13439 0.0
H282 H 0.36446 0.61888 0.43076 0.0
N283 N 0.29503 0.66429 0.3178 0.0
C284 C 0.26215 0.64542 0.30665 0.0
C285 C 0.26058 0.60502 0.35823 0.0
C286 C 0.29528 0.6231 0.36874 0.0
C287 C 0.24419 0.61593 0.32683 0.0
C288 C 0.31213 0.65286 0.34757 0.0
H289 H 0.41984 0.66411 0.41462 0.0
N290 N 0.36346 0.69653 0.33395 0.0
C291 C 0.42028 0.69946 0.36843 0.0
C292 C 0.3475 0.66954 0.35594 0.0
C293 C 0.39975 0.71061 0.33911 0.0
C294 C 0.40381 0.67289 0.39203 0.0
C295 C 0.36714 0.65709 0.3857 0.0
O296 O 0.37026 0.70445 0.26447 0.0
O297 O 0.32409 0.76807 0.25416 0.0
O298 O 0.26868 0.76448 0.22239 0.0
O299 O 0.27628 0.70806 0.24778 0.0
O300 O 0.3751 0.75839 0.26991 0.0
O301 O 0.31645 0.67237 0.25787 0.0
O302 O 0.23468 0.79927 0.28474 0.0
O303 O 0.28374 0.73855 0.29846 0.0
O304 O 0.3428 0.74287 0.32925 0.0
O305 O 0.3294 0.7983 0.30672 0.0
O306 O 0.23304 0.74792 0.27887 0.0
O307 O 0.28738 0.83215 0.29583 0.0
C308 C 0.35738 0.78111 0.2524 0.0
C309 C 0.36561 0.645 0.26013 0.0
C310 C 0.39575 0.60539 0.24242 0.0
C311 C 0.37965 0.63514 0.23544 0.0
C312 C 0.39711 0.58556 0.27425 0.0
C313 C 0.36711 0.62457 0.29157 0.0
C314 C 0.38274 0.59503 0.29854 0.0
C315 C 0.26279 0.73005 0.22314 0.0
C316 C 0.35018 0.67695 0.25325 0.0
C317 C 0.34994 0.62861 0.40762 0.0
C318 C 0.31405 0.61165 0.39916 0.0
C319 C 0.25001 0.72572 0.29835 0.0
C320 C 0.23613 0.85691 0.29194 0.0
C321 C 0.21927 0.86373 0.31638 0.0
C322 C 0.20296 0.89319 0.31054 0.0
C323 C 0.20338 0.91526 0.27966 0.0
C324 C 0.23647 0.87946 0.26154 0.0
C325 C 0.22004 0.90841 0.25544 0.0
C326 C 0.34489 0.77648 0.33001 0.0
C327 C 0.25282 0.82598 0.29823 0.0
H328 H 0.37867 0.65091 0.21111 0.0
H329 H 0.40898 0.56241 0.28028 0.0
H330 H 0.35627 0.63146 0.31075 0.0
H331 H 0.38378 0.57944 0.3229 0.0
H332 H 0.21938 0.84646 0.34 0.0
H333 H 0.19055 0.93776 0.2741 0.0
H334 H 0.24936 0.87469 0.24254 0.0
H335 H 0.22022 0.9256 0.23184 0.0
Eu336 Eu 0.3427 0.71395 0.77619 0.0
C337 C 0.25216 0.81165 0.80702 0.0
C338 C 0.20141 0.76999 0.82976 0.0
C339 C 0.22257 0.82695 0.84706 0.0
C340 C 0.22917 0.77887 0.80944 0.0
C341 C 0.24844 0.83653 0.82505 0.0
C342 C 0.19904 0.79371 0.8494 0.0
C343 C 0.29259 0.8798 0.79502 0.0
N344 N 0.27627 0.82018 0.78503 0.0
C345 C 0.29508 0.85423 0.77762 0.0
C346 C 0.26973 0.87072 0.81934 0.0
Eu347 Eu 0.28196 0.77441 0.75903 0.0
N348 N 0.23196 0.75691 0.78976 0.0
C349 C 0.20553 0.72729 0.78674 0.0
C350 C 0.17588 0.73832 0.82856 0.0
C351 C 0.17746 0.71731 0.80637 0.0
H352 H 0.31247 0.86183 0.75858 0.0
H353 H 0.15723 0.69327 0.80452 0.0
H354 H 0.17825 0.78714 0.86551 0.0
H355 H 0.30826 0.90651 0.78961 0.0
H356 H 0.20627 0.7106 0.76987 0.0
H357 H 0.44984 0.70905 0.87916 0.0
H358 H 0.15414 0.73051 0.84375 0.0
H359 H 0.35259 0.72313 0.69454 0.0
H360 H 0.38734 0.69816 0.85143 0.0
H361 H 0.40024 0.7456 0.65948 0.0
H362 H 0.21961 0.84554 0.86144 0.0
H363 H 0.5007 0.73823 0.84708 0.0
H364 H 0.52225 0.76278 0.79232 0.0
H365 H 0.26768 0.89062 0.83265 0.0
H366 H 0.50858 0.77291 0.73252 0.0
N367 N 0.40236 0.72112 0.80412 0.0
C368 C 0.40929 0.71039 0.83709 0.0
C369 C 0.47327 0.73335 0.83477 0.0
C370 C 0.46623 0.7423 0.80081 0.0
C371 C 0.44469 0.71676 0.85294 0.0
C372 C 0.43 0.73534 0.78594 0.0
H373 H 0.46342 0.76605 0.68294 0.0
N374 N 0.38724 0.73144 0.73893 0.0
C375 C 0.40681 0.74458 0.68556 0.0
C376 C 0.42224 0.74072 0.75233 0.0
C377 C 0.37957 0.73184 0.70597 0.0
C378 C 0.4424 0.75617 0.69886 0.0
C379 C 0.45067 0.75362 0.73265 0.0
O380 O 0.30668 0.66333 0.76987 0.0
O381 O 0.28953 0.72146 0.78592 0.0
O382 O 0.31968 0.78913 0.80417 0.0
O383 O 0.36395 0.75525 0.80992 0.0
O384 O 0.32371 0.70411 0.82611 0.0
O385 O 0.36213 0.66425 0.78818 0.0
O386 O 0.28371 0.80472 0.70942 0.0
O387 O 0.3303 0.76217 0.74315 0.0
O388 O 0.30826 0.7117 0.72725 0.0
O389 O 0.25759 0.72221 0.74163 0.0
O390 O 0.3346 0.81326 0.74996 0.0
O391 O 0.23239 0.784 0.72753 0.0
C392 C 0.29242 0.71184 0.81661 0.0
C393 C 0.3176 0.6167 0.81035 0.0
C394 C 0.3121 0.59942 0.86857 0.0
C395 C 0.3256 0.62389 0.84202 0.0
C396 C 0.28883 0.56742 0.86252 0.0
C397 C 0.29435 0.58488 0.80461 0.0
C398 C 0.27993 0.56037 0.83067 0.0
C399 C 0.35074 0.78004 0.81811 0.0
C400 C 0.33008 0.64444 0.78324 0.0
C401 C 0.48654 0.76257 0.7473 0.0
C402 C 0.49433 0.75684 0.78133 0.0
C403 C 0.35131 0.79242 0.74176 0.0
C404 C 0.2346 0.78218 0.67251 0.0
C405 C 0.19962 0.78441 0.65795 0.0
C406 C 0.18456 0.77011 0.62962 0.0
C407 C 0.20477 0.75202 0.6168 0.0
C408 C 0.25498 0.76514 0.6587 0.0
C409 C 0.23983 0.74961 0.63134 0.0
C410 C 0.27286 0.70832 0.72325 0.0
C411 C 0.24893 0.79793 0.70196 0.0
H412 H 0.34271 0.64881 0.84588 0.0
H413 H 0.27841 0.54732 0.8823 0.0
H414 H 0.287 0.57927 0.78005 0.0
H415 H 0.26208 0.5357 0.82624 0.0
H416 H 0.18507 0.79934 0.66786 0.0
H417 H 0.19401 0.74098 0.5949 0.0
H418 H 0.28228 0.7632 0.6693 0.0
H419 H 0.25549 0.73607 0.62114 0.0
Eu420 Eu 0.25837 0.24223 0.80221 0.0
C421 C 0.33452 0.34955 0.69221 0.0
C422 C 0.2844 0.35354 0.64925 0.0
C423 C 0.33389 0.4044 0.65325 0.0
C424 C 0.30138 0.33411 0.67713 0.0
C425 C 0.35158 0.38455 0.67987 0.0
C426 C 0.30034 0.38892 0.63799 0.0
C427 C 0.40408 0.37676 0.71889 0.0
N428 N 0.35119 0.32974 0.71768 0.0
C429 C 0.3862 0.34224 0.73011 0.0
C430 C 0.38647 0.39825 0.69399 0.0
Eu431 Eu 0.31852 0.27228 0.73757 0.0
N432 N 0.28653 0.29977 0.68869 0.0
C433 C 0.25619 0.2828 0.67136 0.0
C434 C 0.25231 0.33668 0.63295 0.0
C435 C 0.23854 0.30101 0.64373 0.0
H436 H 0.39998 0.32555 0.74931 0.0
H437 H 0.21408 0.28748 0.63089 0.0
H438 H 0.28738 0.40426 0.61693 0.0
H439 H 0.43143 0.38674 0.72942 0.0
H440 H 0.24412 0.25545 0.67868 0.0
H441 H 0.35472 0.2322 0.9146 0.0
H442 H 0.23844 0.35071 0.61159 0.0
H443 H 0.17888 0.18498 0.78913 0.0
H444 H 0.32385 0.26262 0.86585 0.0
H445 H 0.15143 0.12202 0.8066 0.0
H446 H 0.34638 0.43142 0.64371 0.0
H447 H 0.33695 0.16741 0.93076 0.0
H448 H 0.29421 0.11079 0.92151 0.0
H449 H 0.40043 0.42497 0.68519 0.0
H450 H 0.23878 0.08052 0.89181 0.0
N451 N 0.2893 0.21558 0.85181 0.0
C452 C 0.31561 0.23436 0.8715 0.0
C453 C 0.32318 0.18063 0.90883 0.0
C454 C 0.2943 0.16184 0.89031 0.0
C455 C 0.33326 0.21717 0.89979 0.0
C456 C 0.2773 0.18035 0.86185 0.0
H457 H 0.18494 0.08463 0.84945 0.0
N458 N 0.22854 0.1827 0.82014 0.0
C459 C 0.17826 0.13314 0.81745 0.0
C460 C 0.24613 0.16332 0.84527 0.0
C461 C 0.19396 0.16873 0.80759 0.0
C462 C 0.1973 0.11213 0.84155 0.0
C463 C 0.23118 0.12736 0.85647 0.0
O464 O 0.2107 0.23876 0.82604 0.0
O465 O 0.26934 0.28047 0.75552 0.0
O466 O 0.33515 0.31377 0.77027 0.0
O467 O 0.30299 0.28796 0.81469 0.0
O468 O 0.21595 0.25512 0.76017 0.0
O469 O 0.25064 0.28703 0.8213 0.0
O470 O 0.36502 0.27467 0.71261 0.0
O471 O 0.30902 0.23529 0.78563 0.0
O472 O 0.23826 0.20485 0.76529 0.0
O473 O 0.27453 0.22737 0.72326 0.0
O474 O 0.36169 0.26297 0.78021 0.0
O475 O 0.32693 0.22557 0.72212 0.0
C476 C 0.23688 0.27889 0.74186 0.0
C477 C 0.21957 0.27297 0.86768 0.0
C478 C 0.20708 0.30472 0.90729 0.0
C479 C 0.20808 0.30173 0.87464 0.0
C480 C 0.21745 0.27819 0.93257 0.0
C481 C 0.22993 0.24721 0.8935 0.0
C482 C 0.2288 0.24984 0.92568 0.0
C483 C 0.32709 0.31321 0.79964 0.0
C484 C 0.2212 0.2701 0.83362 0.0
C485 C 0.24956 0.10825 0.88319 0.0
C486 C 0.28108 0.12549 0.90011 0.0
C487 C 0.34164 0.23956 0.79953 0.0
C488 C 0.35551 0.23639 0.67459 0.0
C489 C 0.37382 0.21153 0.66921 0.0
C490 C 0.37352 0.20561 0.63729 0.0
C491 C 0.35482 0.2252 0.61102 0.0
C492 C 0.33718 0.25552 0.64791 0.0
C493 C 0.33688 0.24993 0.61635 0.0
C494 C 0.24774 0.20441 0.73671 0.0
C495 C 0.35533 0.24219 0.70795 0.0
H496 H 0.20046 0.32188 0.85474 0.0
H497 H 0.21634 0.27903 0.95783 0.0
H498 H 0.23873 0.22491 0.88881 0.0
H499 H 0.23664 0.22971 0.94542 0.0
H500 H 0.38785 0.19658 0.68982 0.0
H501 H 0.35453 0.22183 0.58618 0.0
H502 H 0.32323 0.27491 0.65144 0.0
H503 H 0.3228 0.26494 0.59589 0.0
Eu504 Eu 0.81437 0.23361 0.78259 0.0
C505 C 0.7453 0.34886 0.68618 0.0
C506 C 0.79652 0.3957 0.67147 0.0
C507 C 0.742 0.38657 0.63276 0.0
C508 C 0.78032 0.36685 0.69389 0.0
C509 C 0.72538 0.35904 0.65585 0.0
C510 C 0.77754 0.40485 0.64055 0.0
C511 C 0.67317 0.3163 0.67462 0.0
N512 N 0.72995 0.32274 0.70921 0.0
C513 C 0.69403 0.3072 0.70436 0.0
C514 C 0.68903 0.342 0.65007 0.0
Eu515 Eu 0.76731 0.30769 0.75841 0.0
N516 N 0.79758 0.35772 0.72417 0.0
C517 C 0.82982 0.37818 0.73456 0.0
C518 C 0.83074 0.4153 0.68125 0.0
C519 C 0.84716 0.40687 0.71315 0.0
H520 H 0.6817 0.28714 0.72316 0.0
H521 H 0.87324 0.42235 0.72123 0.0
H522 H 0.78967 0.4267 0.62287 0.0
H523 H 0.64492 0.30341 0.67061 0.0
H524 H 0.84288 0.37183 0.75908 0.0
H525 H 0.71033 0.11512 0.81456 0.0
H526 H 0.84418 0.43758 0.66474 0.0
H527 H 0.89875 0.25574 0.8203 0.0
H528 H 0.73983 0.16814 0.77892 0.0
H529 H 0.93456 0.23863 0.87312 0.0
H530 H 0.72727 0.39455 0.60918 0.0
H531 H 0.73899 0.09774 0.8708 0.0
H532 H 0.79221 0.10826 0.91387 0.0
H533 H 0.67279 0.34907 0.62709 0.0
H534 H 0.8533 0.14183 0.92982 0.0
N535 N 0.78454 0.18146 0.81473 0.0
C536 C 0.75282 0.16092 0.80331 0.0
C537 C 0.75215 0.12108 0.85521 0.0
C538 C 0.78567 0.14107 0.86613 0.0
C539 C 0.73594 0.13076 0.82347 0.0
C540 C 0.80155 0.17133 0.84492 0.0
H541 H 0.90682 0.19009 0.91459 0.0
N542 N 0.85096 0.21792 0.83213 0.0
C543 C 0.90677 0.22488 0.8681 0.0
C544 C 0.83582 0.19019 0.85392 0.0
C545 C 0.88643 0.23446 0.83819 0.0
C546 C 0.89097 0.19754 0.89148 0.0
C547 C 0.85528 0.17941 0.88434 0.0
O548 O 0.85989 0.2273 0.76127 0.0
O549 O 0.81111 0.28451 0.74792 0.0
O550 O 0.75447 0.27759 0.71633 0.0
O551 O 0.76501 0.22294 0.74443 0.0
O552 O 0.86229 0.27743 0.76819 0.0
O553 O 0.80937 0.18863 0.75849 0.0
O554 O 0.72283 0.31923 0.77775 0.0
O555 O 0.77051 0.25669 0.7923 0.0
O556 O 0.82552 0.26274 0.82489 0.0
O557 O 0.81726 0.31798 0.79643 0.0
O558 O 0.71915 0.26476 0.77508 0.0
O559 O 0.77627 0.35252 0.78361 0.0
C560 C 0.84457 0.29823 0.74766 0.0
C561 C 0.86366 0.16962 0.75963 0.0
C562 C 0.90264 0.13913 0.74119 0.0
C563 C 0.88067 0.16418 0.73482 0.0
C564 C 0.90718 0.11948 0.77298 0.0
C565 C 0.86828 0.14975 0.79109 0.0
C566 C 0.88998 0.12475 0.79768 0.0
C567 C 0.75152 0.24323 0.71832 0.0
C568 C 0.84293 0.19752 0.75238 0.0
C569 C 0.83893 0.15031 0.90619 0.0
C570 C 0.80416 0.13119 0.89711 0.0
C571 C 0.73729 0.24322 0.79399 0.0
C572 C 0.72621 0.37896 0.77991 0.0
C573 C 0.71308 0.38989 0.80443 0.0
C574 C 0.6963 0.41915 0.79686 0.0
C575 C 0.69322 0.43742 0.76447 0.0
C576 C 0.72302 0.39771 0.74785 0.0
C577 C 0.70663 0.4268 0.74022 0.0
C578 C 0.83078 0.29737 0.82233 0.0
C579 C 0.74239 0.34756 0.78793 0.0
H580 H 0.87648 0.17939 0.71048 0.0
H581 H 0.92429 0.1003 0.77887 0.0
H582 H 0.85541 0.15372 0.81051 0.0
H583 H 0.89369 0.10957 0.82205 0.0
H584 H 0.71531 0.37524 0.82919 0.0
H585 H 0.68079 0.46021 0.75795 0.0
H586 H 0.73307 0.38981 0.72873 0.0
H587 H 0.70426 0.44116 0.7154 0.0
Eu588 Eu 0.77586 0.72386 0.74119 0.0
C589 C 0.88485 0.81084 0.83622 0.0
C590 C 0.88799 0.76758 0.88591 0.0
C591 C 0.94003 0.81519 0.87456 0.0
C592 C 0.86889 0.78073 0.85605 0.0
C593 C 0.92019 0.82911 0.84571 0.0
C594 C 0.92397 0.7844 0.8946 0.0
C595 C 0.91202 0.87558 0.79961 0.0
N596 N 0.86474 0.82382 0.80885 0.0
C597 C 0.87704 0.85654 0.79138 0.0
C598 C 0.93395 0.86152 0.8266 0.0
Eu599 Eu 0.80621 0.78995 0.79533 0.0
N600 N 0.83402 0.76535 0.84698 0.0
C601 C 0.81572 0.73841 0.868 0.0
C602 C 0.87002 0.73855 0.90653 0.0
C603 C 0.83354 0.72429 0.89776 0.0
H604 H 0.86006 0.86744 0.77049 0.0
H605 H 0.81914 0.70229 0.91385 0.0
H606 H 0.9392 0.77443 0.91724 0.0
H607 H 0.922 0.90106 0.78516 0.0
H608 H 0.78763 0.72681 0.86165 0.0
H609 H 0.74982 0.80165 0.61947 0.0
H610 H 0.88376 0.72756 0.9296 0.0
H611 H 0.7296 0.64365 0.77079 0.0
H612 H 0.78673 0.78185 0.67045 0.0
H613 H 0.66864 0.6058 0.76134 0.0
H614 H 0.96739 0.82859 0.88207 0.0
H615 H 0.68496 0.77342 0.6098 0.0
H616 H 0.63281 0.7251 0.62803 0.0
H617 H 0.96096 0.8764 0.83307 0.0
H618 H 0.61058 0.67141 0.66677 0.0
N619 N 0.74301 0.74356 0.69045 0.0
C620 C 0.75851 0.76917 0.66674 0.0
C621 C 0.70103 0.76464 0.63237 0.0
C622 C 0.68604 0.73647 0.65557 0.0
C623 C 0.73765 0.78053 0.63767 0.0
C624 C 0.70814 0.72618 0.68459 0.0
H625 H 0.62403 0.62619 0.71618 0.0
N626 N 0.71872 0.68554 0.73251 0.0
C627 C 0.67572 0.6313 0.74586 0.0
C628 C 0.69559 0.69612 0.70633 0.0
C629 C 0.71015 0.65274 0.75117 0.0
C630 C 0.65059 0.64296 0.72041 0.0
C631 C 0.66067 0.67534 0.69975 0.0
O632 O 0.79569 0.67566 0.74512 0.0
O633 O 0.81478 0.73982 0.78442 0.0
O634 O 0.85216 0.79685 0.76474 0.0
O635 O 0.82208 0.767 0.7224 0.0
O636 O 0.78829 0.68747 0.78897 0.0
O637 O 0.80101 0.71533 0.70149 0.0
O638 O 0.79537 0.84161 0.79595 0.0
O639 O 0.76906 0.77543 0.75096 0.0
O640 O 0.72852 0.71807 0.76845 0.0
O641 O 0.75592 0.74892 0.81083 0.0
O642 O 0.79574 0.82789 0.74841 0.0
O643 O 0.77307 0.79623 0.83032 0.0
C644 C 0.81276 0.70997 0.80309 0.0
C645 C 0.79608 0.65591 0.69653 0.0
C646 C 0.81515 0.61332 0.67246 0.0
C647 C 0.82358 0.64173 0.68961 0.0
C648 C 0.77848 0.59938 0.66245 0.0
C649 C 0.75984 0.64211 0.68578 0.0
C650 C 0.75113 0.61387 0.66891 0.0
C651 C 0.85036 0.7881 0.73572 0.0
C652 C 0.80582 0.68408 0.7161 0.0
C653 C 0.63768 0.68675 0.67202 0.0
C654 C 0.65034 0.71732 0.64997 0.0
C655 C 0.7726 0.80577 0.73282 0.0
C656 C 0.78649 0.85164 0.84708 0.0
C657 C 0.75904 0.86156 0.8593 0.0
C658 C 0.76784 0.88148 0.88472 0.0
C659 C 0.80453 0.89166 0.89717 0.0
C660 C 0.82269 0.86185 0.86027 0.0
C661 C 0.83161 0.88184 0.88506 0.0
C662 C 0.72859 0.72735 0.79669 0.0
C663 C 0.7772 0.8303 0.82095 0.0
H664 H 0.85156 0.65321 0.69738 0.0
H665 H 0.77081 0.5771 0.64979 0.0
H666 H 0.73832 0.65291 0.69056 0.0
H667 H 0.72307 0.60305 0.66096 0.0
H668 H 0.73099 0.8533 0.84943 0.0
H669 H 0.81243 0.90758 0.91616 0.0
H670 H 0.84413 0.85448 0.85141 0.0
H671 H 0.85967 0.8898 0.89494 0.0
Fe672 Fe 1.03611 0.06342 0.51125 0.0
O673 O 1.0119 0.01569 0.5334 0.0
Fe674 Fe 0.11724 0.04619 0.49701 0.0
Fe675 Fe 0.95884 1.00126 0.53189 0.0
O676 O 0.06415 0.03611 0.49405 0.0
O677 O 0.06365 0.03268 0.4934 0.0
O678 O 1.01159 0.0123 0.53307 0.0
Fe679 Fe 1.03858 0.98511 0.5149 0.0
C680 C 0.98504 0.06984 0.55794 0.0
O681 O 0.99841 0.05875 0.47026 0.0
O682 O 0.95003 0.0431 0.49623 0.0
O683 O 0.07049 0.96307 0.49125 0.0
O684 O 0.10751 0.01218 0.46437 0.0
O685 O 0.10833 0.09076 0.46464 0.0
O686 O 0.06511 0.11001 0.48452 0.0
O687 O 0.94949 0.96934 0.49662 0.0
O688 O 1.00086 0.98083 0.47452 0.0
C689 C 0.08958 0.11381 0.4652 0.0
O690 O 0.07638 0.98931 0.55472 0.0
O691 O 0.12561 1.00217 0.53114 0.0
O692 O 1.00388 0.08554 0.53387 0.0
O693 O 0.96925 0.03662 0.56321 0.0
C694 C 0.96418 0.05128 0.46989 0.0
C695 C 0.96691 0.96889 0.47349 0.0
C696 C 0.98739 0.93489 0.56336 0.0
O697 O 0.9694 0.9581 0.56526 0.0
O698 O 1.00967 0.93839 0.54202 0.0
C699 C 0.09159 0.9789 0.46872 0.0
O700 O 0.12594 0.07615 0.53342 0.0
O701 O 0.07319 0.06865 0.55237 0.0
C702 C 0.10699 0.98354 0.55333 0.0
C703 C 0.10751 0.07845 0.55505 0.0
Fe704 Fe 0.5475 0.97098 0.02825 0.0
O705 O 0.57501 0.0151 0.04467 0.0
Fe706 Fe 0.46392 0.99477 0.99648 0.0
Fe707 Fe 0.62823 0.02971 0.04831 0.0
O708 O 0.51724 1.00438 1.00081 0.0
O709 O 0.51716 1.00859 0.99972 0.0
O710 O 0.57505 0.01938 0.04341 0.0
Fe711 Fe 0.54519 0.05275 1.01559 0.0
C712 C 0.61123 0.9531 0.0834 0.0
O713 O 0.57998 0.9801 0.99132 0.0
O714 O 0.6339 0.99586 1.01963 0.0
O715 O 0.50829 0.08133 0.98289 0.0
O716 O 0.46759 0.0381 0.95876 0.0
O717 O 0.47007 0.95766 0.97132 0.0
O718 O 0.51353 0.93004 1.00467 0.0
O719 O 0.63214 0.07003 1.00782 0.0
O720 O 0.57779 0.06457 0.9782 0.0
C721 C 0.48793 0.93241 0.97995 0.0
O722 O 0.51329 0.04428 0.05261 0.0
O723 O 0.45883 0.0295 0.02504 0.0
O724 O 0.58494 0.94268 0.06087 0.0
O725 O 0.62462 0.98608 0.08566 0.0
C726 C 0.61432 0.9836 0.99545 0.0
C727 C 0.61214 0.07594 0.98075 0.0
C728 C 0.60438 0.09215 0.06325 0.0
O729 O 0.62148 0.0665 0.07341 0.0
O730 O 0.57926 0.09403 0.03817 0.0
C731 C 0.48178 0.07105 0.96056 0.0
O732 O 0.45999 0.95469 0.03716 0.0
O733 O 0.51488 0.95826 0.06576 0.0
C734 C 0.47923 0.04234 0.04862 0.0
C735 C 0.48045 0.94772 0.06374 0.0
Fe736 Fe 0.05173 0.55797 1.01096 0.0
O737 O 1.02072 0.51399 0.9969 0.0
Fe738 Fe 0.1306 0.52856 0.04805 0.0
Fe739 Fe 0.96733 0.50476 0.99256 0.0
O740 O 0.07782 0.523 0.04154 0.0
O741 O 0.07726 0.51872 0.0435 0.0
O742 O 1.02008 0.50968 0.999 0.0
Fe743 Fe 1.04613 0.47464 0.02965 0.0
C744 C 0.9863 0.5569 0.04092 0.0
O745 O 1.01783 0.58831 0.97588 0.0
O746 O 0.97537 0.54532 0.95306 0.0
O747 O 0.0782 0.47735 0.9941 0.0
O748 O 0.13325 0.49107 0.02122 0.0
O749 O 0.13813 0.56709 1.00725 0.0
O750 O 0.08563 0.56498 0.97492 0.0
O751 O 0.97019 0.46339 0.9712 0.0
O752 O 1.0095 0.43394 1.00859 0.0
C753 C 0.12021 0.57446 0.97942 0.0
O754 O 0.08004 0.44416 0.06432 0.0
O755 O 0.12307 0.4869 0.08687 0.0
O756 O 1.01944 0.55475 0.04647 0.0
O757 O 0.96516 0.54376 1.01784 0.0
C758 C 0.99105 0.57817 0.95368 0.0
C759 C 0.985 0.43636 0.98313 0.0
C760 C 0.97802 0.46112 0.06222 0.0
O761 O 0.95966 0.46779 0.03445 0.0
O762 O 1.01272 0.46824 0.0659 0.0
C763 C 0.11188 0.47722 0.99858 0.0
O764 O 0.12683 0.56888 0.07041 0.0
O765 O 0.08798 0.59854 0.03256 0.0
C766 C 0.10737 0.45408 0.08608 0.0
C767 C 0.11197 0.59591 0.05841 0.0
Fe768 Fe 0.53247 0.51709 0.98817 0.0
O769 O 0.57007 0.54076 1.01966 0.0
Fe770 Fe 0.47945 0.45132 0.03887 0.0
Fe771 Fe 0.61825 0.56617 1.00942 0.0
O772 O 0.52677 0.47659 0.0256 0.0
O773 O 0.52834 0.47559 0.02864 0.0
O774 O 0.57137 0.53998 0.0226 0.0
Fe775 Fe 0.56525 0.49996 0.06031 0.0
C776 C 0.59914 0.51313 0.9618 0.0
O777 O 0.54457 0.56304 0.95236 0.0
O778 O 0.58905 0.60062 0.97963 0.0
O779 O 0.5275 0.52117 0.07421 0.0
O780 O 0.48209 0.47416 0.07958 0.0
O781 O 0.45299 0.48911 1.01215 0.0
O782 O 0.49502 0.53826 1.00308 0.0
O783 O 0.62163 0.58381 0.05273 0.0
O784 O 0.6045 0.53171 0.08865 0.0
C785 C 0.46344 0.52236 1.00991 0.0
O786 O 0.55288 0.45393 0.09604 0.0
O787 O 0.50804 0.41648 0.06871 0.0
O788 O 0.56962 0.49641 0.97277 0.0
O789 O 0.61587 0.54312 0.96893 0.0
C790 C 0.56601 0.5938 0.95437 0.0
C791 C 0.61925 0.56526 0.08197 0.0
C792 C 0.63672 0.49561 0.04329 0.0
O793 O 0.64555 0.5291 0.03612 0.0
O794 O 0.60451 0.47922 0.0479 0.0
C795 C 0.49819 0.50472 0.08557 0.0
O796 O 0.47508 0.43359 0.99558 0.0
O797 O 0.49201 0.48581 0.95995 0.0
C798 C 0.53197 0.42297 0.09355 0.0
C799 C 0.47634 0.45242 0.96638 0.0
Fe800 Fe 0.05681 0.43328 0.527 0.0
O801 O 0.06473 0.48479 0.52462 0.0
Fe802 Fe 1.0408 0.51535 0.48212 0.0
Fe803 Fe 0.05148 0.50548 0.55904 0.0
O804 O 0.06361 0.48514 0.52091 0.0
O805 O 1.0262 0.53498 0.51652 0.0
O806 O 1.02745 0.53468 0.52033 0.0
Fe807 Fe 1.03337 0.58632 0.51436 0.0
C808 C 1.0007 0.43559 0.57136 0.0
O809 O 0.09912 0.43869 0.56408 0.0
O810 O 0.08 0.471 0.59491 0.0
O811 O 0.06758 0.60041 0.47777 0.0
O812 O 0.08906 0.55245 0.48091 0.0
O813 O 0.06141 0.49072 0.45203 0.0
O814 O 0.08666 0.4472 0.48786 0.0
O815 O 0.0996 0.54294 0.55933 0.0
O816 O 0.07767 0.59201 0.54899 0.0
C817 C 0.08204 0.46756 0.45961 0.0
O818 O 0.99137 0.58061 0.47714 0.0
O819 O 1.01288 0.55038 0.44608 0.0
O820 O 1.02241 0.41952 0.56368 0.0
O821 O 1.00358 0.46869 0.56212 0.0
C822 C 0.10039 0.4502 0.5909 0.0
C823 C 0.10279 0.57536 0.56101 0.0
C824 C 1.00932 0.55216 0.58163 0.0
O825 O 1.03174 0.53068 0.58939 0.0
O826 O 1.00338 0.57168 0.55322 0.0
C827 C 0.09096 0.58543 0.47135 0.0
O828 O 0.99261 0.4783 0.47975 0.0
O829 O 1.0125 0.42788 0.4925 0.0
C830 C 0.99138 0.57016 0.45004 0.0
C831 C 0.98866 0.44557 0.47901 0.0
Fe832 Fe 0.54952 0.9744 0.52412 0.0
O833 O 0.57689 0.01682 0.54312 0.0
Fe834 Fe 0.51816 0.01415 0.44547 0.0
Fe835 Fe 0.58469 0.01823 0.58988 0.0
O836 O 0.52484 1.01045 0.49345 0.0
O837 O 0.5254 0.01474 0.49241 0.0
O838 O 0.57724 0.02092 0.54222 0.0
Fe839 Fe 0.5533 0.05707 0.51118 0.0
C840 C 0.51566 0.95872 0.58648 0.0
O841 O 0.58117 0.9429 0.55955 0.0
O842 O 0.61709 0.98285 0.59057 0.0
O843 O 0.59317 0.06637 0.48077 0.0
O844 O 0.55807 0.05896 0.43409 0.0
O845 O 0.55424 0.98256 0.44588 0.0
O846 O 0.58873 0.98205 0.49381 0.0
O847 O 0.62116 0.06474 0.5771 0.0
O848 O 0.58712 0.09641 0.53635 0.0
C849 C 0.58234 0.97589 0.46477 0.0
O850 O 0.52209 0.08903 0.47537 0.0
O851 O 0.48545 0.04898 0.44498 0.0
O852 O 0.51014 0.96291 0.55536 0.0
O853 O 0.54474 0.97415 0.60156 0.0
C854 C 0.60876 0.9523 0.5812 0.0
C855 C 0.61459 0.09402 0.55913 0.0
C856 C 0.52005 0.056 0.57047 0.0
O857 O 0.54841 0.04991 0.58937 0.0
O858 O 0.51414 0.05058 0.54119 0.0
C859 C 0.588 0.07198 0.44968 0.0
O860 O 0.48202 0.96722 0.45771 0.0
O861 O 0.51587 0.93527 0.49852 0.0
C862 C 0.49395 0.07954 0.45423 0.0
C863 C 0.48846 0.9378 0.47563 0.0
H864 H 0.19069 0.18453 0.3021 0.0
H865 H 0.22824 0.27712 0.34714 0.0
H866 H 0.14425 0.16203 0.3387 0.0
H867 H 0.18133 0.25526 0.38312 0.0
H868 H 0.14246 0.17097 0.47325 0.0
H869 H 0.17428 0.2094 0.42942 0.0
H870 H 0.09008 0.16565 0.35832 0.0
H871 H 0.05884 0.12658 0.40269 0.0
C872 C 0.18849 0.20049 0.31921 0.0
C873 C 0.21358 0.23227 0.32202 0.0
C874 C 0.16167 0.18772 0.34018 0.0
C875 C 0.15915 0.20667 0.3642 0.0
C876 C 0.18286 0.23959 0.36545 0.0
C877 C 0.2098 0.25211 0.34477 0.0
C878 C 0.12979 0.1711 0.44828 0.0
C879 C 0.09798 0.14637 0.44128 0.0
C880 C 0.14817 0.1929 0.423 0.0
C881 C 0.13513 0.1902 0.39019 0.0
C882 C 0.10125 0.16794 0.38327 0.0
C883 C 0.08292 0.14611 0.40864 0.0
H884 H 0.78101 0.05458 0.33029 0.0
H885 H 0.86388 0.06325 0.26977 0.0
H886 H 0.82025 0.03468 0.37812 0.0
H887 H 0.90313 0.04131 0.31759 0.0
H888 H 0.978 0.08031 0.40718 0.0
H889 H 0.93658 0.07366 0.35727 0.0
H890 H 0.85647 1.0013 0.41392 0.0
H891 H 0.89662 1.01031 0.46355 0.0
C892 C 0.80685 0.04997 0.32704 0.0
C893 C 0.81974 0.06084 0.29663 0.0
C894 C 0.82966 0.0387 0.35457 0.0
C895 C 0.86555 0.03762 0.35193 0.0
C896 C 0.87618 0.04315 0.32063 0.0
C897 C 0.85351 0.05501 0.29315 0.0
C898 C 0.95146 0.06316 0.40881 0.0
C899 C 0.94016 0.04676 0.43924 0.0
C900 C 0.92786 0.05873 0.38019 0.0
C901 C 0.89285 0.03707 0.38147 0.0
C902 C 0.88269 0.01894 0.41194 0.0
C903 C 0.90575 0.02424 0.44046 0.0
H904 H 0.8442 0.80945 0.37112 0.0
H905 H 0.88158 0.8872 0.28864 0.0
H906 H 0.87249 0.85023 0.40731 0.0
H907 H 0.91095 0.9287 0.32605 0.0
H908 H 0.99392 0.96459 0.4184 0.0
H909 H 0.96278 0.93314 0.37419 0.0
H910 H 0.86416 0.90637 0.41897 0.0
H911 H 0.89513 0.93716 0.46331 0.0
C912 C 0.85837 0.83533 0.36044 0.0
C913 C 0.86049 0.84477 0.32662 0.0
C914 C 0.87451 0.85894 0.38146 0.0
C915 C 0.89361 0.89289 0.36962 0.0
C916 C 0.89634 0.90263 0.33589 0.0
C917 C 0.87962 0.87886 0.3145 0.0
C918 C 0.96549 0.95226 0.41871 0.0
C919 C 0.94725 0.95286 0.44488 0.0
C920 C 0.9476 0.93453 0.39315 0.0
C921 C 0.91114 0.91692 0.39326 0.0
C922 C 0.89245 0.9192 0.41845 0.0
C923 C 0.91025 0.93686 0.44393 0.0
H924 H 0.15919 0.84766 0.35398 0.0
H925 H 0.20862 0.95786 0.32591 0.0
H926 H 0.12793 0.86325 0.39336 0.0
H927 H 0.17753 0.97324 0.36467 0.0
H928 H 0.08871 0.99793 0.40365 0.0
H929 H 0.11353 0.97308 0.36665 0.0
H930 H 0.13879 0.89019 0.44563 0.0
H931 H 0.11293 0.9151 0.48291 0.0
C932 C 0.16367 0.8751 0.35642 0.0
C933 C 0.18592 0.9016 0.33636 0.0
C934 C 0.14573 0.88399 0.37892 0.0
C935 C 0.14965 0.91953 0.38164 0.0
C936 C 0.17309 0.9457 0.36253 0.0
C937 C 0.19094 0.93688 0.34027 0.0
C938 C 0.09883 0.97394 0.41297 0.0
C939 C 0.09917 0.95855 0.4461 0.0
C940 C 0.11332 0.95986 0.39186 0.0
C941 C 0.12899 0.93022 0.40339 0.0
C942 C 0.127 0.91314 0.43608 0.0
C943 C 0.11211 0.92724 0.45736 0.0
H944 H 0.17214 0.79182 0.56361 0.0
H945 H 0.12283 0.77467 0.65196 0.0
H946 H 0.14065 0.83918 0.54002 0.0
H947 H 0.09451 0.82451 0.62986 0.0
H948 H 0.06374 0.92918 0.58941 0.0
H949 H 0.06485 0.86679 0.59806 0.0
H950 H 0.16577 0.89395 0.55621 0.0
H951 H 0.16286 0.95566 0.54531 0.0
C952 C 0.15339 0.79705 0.57758 0.0
C953 C 0.1519 0.78133 0.61052 0.0
C954 C 0.13591 0.82482 0.56428 0.0
C955 C 0.11767 0.83746 0.58408 0.0
C956 C 0.1095 0.81644 0.61423 0.0
C957 C 0.12588 0.78779 0.62703 0.0
C958 C 0.08599 0.92169 0.58192 0.0
C959 C 0.1127 0.94733 0.566 0.0
C960 C 0.08661 0.88588 0.58682 0.0
C961 C 0.11469 0.87504 0.5768 0.0
C962 C 0.14268 0.901 0.56282 0.0
C963 C 0.1416 0.93664 0.55733 0.0
H964 H 0.17375 0.18474 0.7252 0.0
H965 H 0.2724 0.16773 0.70109 0.0
H966 H 0.13873 0.1523 0.68279 0.0
H967 H 0.23784 0.13369 0.66028 0.0
H968 H 0.17648 0.11767 0.56217 0.0
H969 H 0.20839 0.14436 0.60831 0.0
H970 H 0.11536 0.10047 0.66075 0.0
H971 H 0.08265 0.07507 0.61346 0.0
C972 C 0.18779 0.173 0.71156 0.0
C973 C 0.22576 0.17875 0.7164 0.0
C974 C 0.16776 0.15442 0.68713 0.0
C975 C 0.18532 0.14078 0.66736 0.0
C976 C 0.22322 0.1447 0.674 0.0
C977 C 0.24313 0.16382 0.6978 0.0
C978 C 0.16277 0.11353 0.58355 0.0
C979 C 0.12697 0.09402 0.58402 0.0
C980 C 0.18128 0.12867 0.61034 0.0
C981 C 0.16489 0.12433 0.63883 0.0
C982 C 0.12896 0.10477 0.63931 0.0
C983 C 0.11019 0.08999 0.61219 0.0
H984 H 0.91052 0.07616 0.72975 0.0
H985 H 0.93393 0.18842 0.69201 0.0
H986 H 0.93716 0.06572 0.68537 0.0
H987 H 0.96005 0.1777 0.64697 0.0
H988 H 0.95338 0.12642 0.55198 0.0
H989 H 0.93799 0.14777 0.59744 0.0
H990 H 0.99702 0.07743 0.666 0.0
H991 H 1.01146 0.05587 0.62085 0.0
C992 C 0.92181 0.09869 0.71228 0.0
C993 C 0.92012 0.13312 0.71456 0.0
C994 C 0.93706 0.0927 0.68677 0.0
C995 C 0.95092 0.12095 0.66281 0.0
C996 C 0.94938 0.15543 0.665 0.0
C997 C 0.93431 0.16149 0.69073 0.0
C998 C 0.9639 0.11653 0.57677 0.0
C999 C 0.9834 0.08955 0.58319 0.0
C1000 C 0.95509 0.12859 0.60275 0.0
C1001 C 0.96574 0.11371 0.63526 0.0
C1002 C 0.98779 0.08882 0.64126 0.0
C1003 C 0.99632 0.07671 0.61548 0.0
H1004 H 0.86979 0.75905 0.69025 0.0
H1005 H 0.89804 0.85246 0.73424 0.0
H1006 H 0.91215 0.78708 0.65074 0.0
H1007 H 0.93983 0.88093 0.69439 0.0
H1008 H 1.01924 0.92697 0.62562 0.0
H1009 H 0.99379 0.88522 0.67148 0.0
H1010 H 0.91202 0.8326 0.60387 0.0
H1011 H 0.93868 0.87367 0.55824 0.0
C1012 C 0.88534 0.78551 0.69173 0.0
C1013 C 0.88026 0.80365 0.71535 0.0
C1014 C 0.90959 0.80162 0.66896 0.0
C1015 C 0.92926 0.83645 0.669 0.0
C1016 C 0.92561 0.85389 0.69377 0.0
C1017 C 0.90149 0.8376 0.71674 0.0
C1018 C 0.99714 0.90516 0.62064 0.0
C1019 C 0.98147 0.90287 0.58843 0.0
C1020 C 0.982 0.8817 0.64692 0.0
C1021 C 0.95037 0.85588 0.64154 0.0
C1022 C 0.93656 0.85186 0.6091 0.0
C1023 C 0.95194 0.87521 0.58282 0.0
H1024 H 0.34764 0.14718 0.13127 0.0
H1025 H 0.39838 0.08362 0.21359 0.0
H1026 H 0.38428 0.13317 0.09532 0.0
H1027 H 0.43479 0.06947 0.17796 0.0
H1028 H 0.51063 0.06624 0.10583 0.0
H1029 H 0.48265 0.09111 0.14113 0.0
H1030 H 0.38251 0.07768 0.07618 0.0
H1031 H 0.41017 0.05301 0.04107 0.0
C1032 C 0.36737 0.13107 0.14178 0.0
C1033 C 0.37018 0.11651 0.17519 0.0
C1034 C 0.38805 0.12266 0.1212 0.0
C1035 C 0.41223 0.09983 0.13368 0.0
C1036 C 0.41667 0.08726 0.16749 0.0
C1037 C 0.39577 0.09533 0.18793 0.0
C1038 C 0.48265 0.06861 0.09907 0.0
C1039 C 0.46267 0.0573 0.07064 0.0
C1040 C 0.46661 0.08288 0.11932 0.0
C1041 C 0.43036 0.08665 0.11141 0.0
C1042 C 0.41063 0.07575 0.08279 0.0
C1043 C 0.42646 0.06119 0.0628 0.0
H1044 H 0.80038 0.32753 0.15827 0.0
H1045 H 0.87606 0.35267 0.24199 0.0
H1046 H 0.84376 0.36393 0.12207 0.0
H1047 H 0.92016 0.38916 0.20565 0.0
H1048 H 0.99917 0.42084 0.12197 0.0
H1049 H 0.95985 0.38638 0.16336 0.0
H1050 H 0.86933 0.42693 0.10649 0.0
H1051 H 0.90782 0.4607 0.06577 0.0
C1052 C 0.82644 0.34087 0.16889 0.0
C1053 C 0.83484 0.33715 0.20288 0.0
C1054 C 0.85133 0.36189 0.14817 0.0
C1055 C 0.88554 0.37982 0.16082 0.0
C1056 C 0.89424 0.37565 0.19501 0.0
C1057 C 0.86904 0.35471 0.21582 0.0
C1058 C 0.971 0.42268 0.11859 0.0
C1059 C 0.95672 0.44322 0.09012 0.0
C1060 C 0.94842 0.40291 0.14229 0.0
C1061 C 0.91112 0.4032 0.13795 0.0
C1062 C 0.89757 0.42517 0.11032 0.0
C1063 C 0.91987 0.44474 0.08691 0.0
H1064 H 0.69367 0.77018 0.20377 0.0
H1065 H 0.77496 0.86066 0.22621 0.0
H1066 H 0.65947 0.80844 0.16462 0.0
H1067 H 0.74136 0.89955 0.18585 0.0
H1068 H 0.65339 0.96223 0.14147 0.0
H1069 H 0.68958 0.92363 0.17729 0.0
H1070 H 0.65087 0.84582 0.11457 0.0
H1071 H 0.61363 0.88452 0.0789 0.0
C1072 C 0.70474 0.7984 0.19968 0.0
C1073 C 0.73751 0.81217 0.2178 0.0
C1074 C 0.68504 0.82052 0.17698 0.0
C1075 C 0.69707 0.85754 0.17167 0.0
C1076 C 0.73051 0.87135 0.18935 0.0
C1077 C 0.75031 0.84903 0.21222 0.0
C1078 C 0.65222 0.93677 0.13525 0.0
C1079 C 0.6301 0.92673 0.10702 0.0
C1080 C 0.67358 0.9146 0.15582 0.0
C1081 C 0.67402 0.88135 0.14909 0.0
C1082 C 0.65136 0.87094 0.12111 0.0
C1083 C 0.62973 0.89318 0.10051 0.0
H1084 H 0.23993 0.76424 0.1622 0.0
H1085 H 0.22869 0.66123 0.22396 0.0
H1086 H 0.19685 0.73836 0.11936 0.0
H1087 H 0.18642 0.6357 0.18146 0.0
H1088 H 0.09124 0.59901 0.11523 0.0
H1089 H 0.12413 0.63713 0.15386 0.0
H1090 H 0.19543 0.69458 0.08238 0.0
H1091 H 0.16177 0.65656 0.04352 0.0
C1092 C 0.22815 0.7362 0.16673 0.0
C1093 C 0.23759 0.71484 0.19661 0.0
C1094 C 0.20362 0.72142 0.14218 0.0
C1095 C 0.18782 0.68512 0.14724 0.0
C1096 C 0.19746 0.6639 0.17706 0.0
C1097 C 0.22207 0.67852 0.20135 0.0
C1098 C 0.11293 0.62081 0.10739 0.0
C1099 C 0.12384 0.62531 0.07647 0.0
C1100 C 0.13204 0.64233 0.12956 0.0
C1101 C 0.16276 0.6684 0.12133 0.0
C1102 C 0.17178 0.67482 0.08934 0.0
C1103 C 0.15249 0.65324 0.06707 0.0
H1104 H 0.35589 0.84875 0.82236 0.0
H1105 H 0.3952 0.7558 0.87214 0.0
H1106 H 0.39308 0.88213 0.86265 0.0
H1107 H 0.43379 0.78959 0.91219 0.0
H1108 H 0.46264 0.86045 0.99611 0.0
H1109 H 0.43094 0.82084 0.95768 0.0
H1110 H 0.45741 0.90558 0.87687 0.0
H1111 H 0.48815 0.94473 0.915 0.0
C1112 C 0.37235 0.83534 0.84199 0.0
C1113 C 0.3727 0.79964 0.84373 0.0
C1114 C 0.39417 0.85462 0.86494 0.0
C1115 C 0.417 0.83876 0.89048 0.0
C1116 C 0.41671 0.80272 0.89281 0.0
C1117 C 0.39491 0.78344 0.8696 0.0
C1118 C 0.46262 0.87006 0.97012 0.0
C1119 C 0.4779 0.90558 0.95848 0.0
C1120 C 0.44428 0.84752 0.94809 0.0
C1121 C 0.44088 0.86027 0.91414 0.0
C1122 C 0.45862 0.89509 0.90278 0.0
C1123 C 0.47667 0.91743 0.92463 0.0
H1124 H 0.15072 0.33686 0.87661 0.0
H1125 H 0.23642 0.34102 0.95727 0.0
H1126 H 0.12871 0.38247 0.89387 0.0
H1127 H 0.21363 0.38488 0.97536 0.0
H1128 H 0.18271 0.48043 0.99248 0.0
H1129 H 0.20666 0.44342 0.96598 0.0
H1130 H 0.09763 0.39032 0.93537 0.0
H1131 H 0.0737 0.42834 0.96093 0.0
C1132 C 0.16508 0.34767 0.89783 0.0
C1133 C 0.1952 0.33488 0.91566 0.0
C1134 C 0.15217 0.37357 0.90801 0.0
C1135 C 0.16913 0.38748 0.93623 0.0
C1136 C 0.19993 0.37538 0.95334 0.0
C1137 C 0.2128 0.34969 0.94316 0.0
C1138 C 0.16379 0.46116 0.97976 0.0
C1139 C 0.12623 0.45731 0.97913 0.0
C1140 C 0.17755 0.43964 0.9647 0.0
C1141 C 0.15423 0.41325 0.94884 0.0
C1142 C 0.11659 0.41041 0.94704 0.0
C1143 C 0.10279 0.43222 0.96186 0.0
H1144 H 0.67103 0.1995 0.79014 0.0
H1145 H 0.76525 0.22725 0.85865 0.0
H1146 H 0.64102 0.15775 0.83364 0.0
H1147 H 0.73503 0.18641 0.90274 0.0
H1148 H 0.68395 0.0902 0.9724 0.0
H1149 H 0.71432 0.12804 0.92743 0.0
H1150 H 0.61194 0.15164 0.87927 0.0
H1151 H 0.58138 0.11244 0.92384 0.0
C1152 C 0.68538 0.19653 0.81462 0.0
C1153 C 0.72084 0.21612 0.82074 0.0
C1154 C 0.66801 0.17277 0.83978 0.0
C1155 C 0.68521 0.16835 0.87218 0.0
C1156 C 0.72081 0.1883 0.87824 0.0
C1157 C 0.73831 0.21186 0.85292 0.0
C1158 C 0.66779 0.10334 0.95216 0.0
C1159 C 0.63004 0.09817 0.95202 0.0
C1160 C 0.68539 0.12543 0.92631 0.0
C1161 C 0.66599 0.14358 0.89941 0.0
C1162 C 0.62808 0.13799 0.89909 0.0
C1163 C 0.61038 0.1155 0.92485 0.0
H1164 H 0.8064 0.64959 0.84767 0.0
H1165 H 0.88673 0.7401 0.81212 0.0
H1166 H 0.85385 0.62316 0.88288 0.0
H1167 H 0.93459 0.71391 0.84869 0.0
H1168 H 0.99119 0.64866 0.95502 0.0
H1169 H 0.95138 0.68565 0.91924 0.0
H1170 H 0.90923 0.60337 0.86203 0.0
H1171 H 0.94891 0.56727 0.89645 0.0
C1172 C 0.8342 0.66422 0.8478 0.0
C1173 C 0.8425 0.69726 0.82728 0.0
C1174 C 0.86145 0.64903 0.86806 0.0
C1175 C 0.89811 0.66635 0.86877 0.0
C1176 C 0.90662 0.69997 0.84901 0.0
C1177 C 0.87917 0.71503 0.82813 0.0
C1178 C 0.97426 0.63893 0.93423 0.0
C1179 C 0.9734 0.60463 0.92902 0.0
C1180 C 0.95128 0.66009 0.91381 0.0
C1181 C 0.92672 0.64728 0.88796 0.0
C1182 C 0.92742 0.61395 0.88186 0.0
C1183 C 0.95041 0.59321 0.90176 0.0
H1184 H 0.29103 0.37515 0.18663 0.0
H1185 H 0.2087 0.28965 0.2269 0.0
H1186 H 0.24437 0.40287 0.15161 0.0
H1187 H 0.16152 0.31713 0.19063 0.0
H1188 H 0.10279 0.38235 0.08582 0.0
H1189 H 0.14191 0.34387 0.12036 0.0
H1190 H 0.19354 0.42763 0.1739 0.0
H1191 H 0.15465 0.46525 0.1408 0.0
C1192 C 0.26292 0.36179 0.1875 0.0
C1193 C 0.25385 0.32988 0.20942 0.0
C1194 C 0.23611 0.37775 0.16737 0.0
C1195 C 0.19909 0.36235 0.16821 0.0
C1196 C 0.18975 0.3296 0.18912 0.0
C1197 C 0.21681 0.31377 0.20983 0.0
C1198 C 0.12179 0.39222 0.10552 0.0
C1199 C 0.12539 0.42731 0.11006 0.0
C1200 C 0.14435 0.37017 0.12524 0.0
C1201 C 0.17126 0.38282 0.14969 0.0
C1202 C 0.1735 0.4171 0.15513 0.0
C1203 C 0.15093 0.43874 0.13596 0.0
H1204 H 0.23972 0.65308 0.80895 0.0
H1205 H 0.27901 0.73197 0.87013 0.0
H1206 H 0.19472 0.62137 0.84602 0.0
H1207 H 0.23393 0.70091 0.90695 0.0
H1208 H 0.18977 0.61134 0.98658 0.0
H1209 H 0.22725 0.64546 0.94551 0.0
H1210 H 0.13854 0.62306 0.87 0.0
H1211 H 0.10018 0.58784 0.9119 0.0
C1212 C 0.23805 0.66403 0.82996 0.0
C1213 C 0.26218 0.69541 0.83635 0.0
C1214 C 0.21228 0.64593 0.85117 0.0
C1215 C 0.21052 0.6585 0.87956 0.0
C1216 C 0.23457 0.69022 0.88553 0.0
C1217 C 0.26028 0.70821 0.86438 0.0
C1218 C 0.17782 0.61347 0.9613 0.0
C1219 C 0.14165 0.59647 0.95279 0.0
C1220 C 0.19949 0.63351 0.93761 0.0
C1221 C 0.18604 0.63742 0.90432 0.0
C1222 C 0.14986 0.62054 0.89546 0.0
C1223 C 0.12779 0.6005 0.91945 0.0
H1224 H 0.40265 0.25637 0.84066 0.0
H1225 H 0.32175 0.16645 0.81636 0.0
H1226 H 0.43706 0.21743 0.87889 0.0
H1227 H 0.35527 0.12697 0.85582 0.0
H1228 H 0.44068 0.06256 0.90192 0.0
H1229 H 0.40614 0.10218 0.8653 0.0
H1230 H 0.44486 0.17951 0.92856 0.0
H1231 H 0.48059 0.13988 0.96485 0.0
C1232 C 0.39179 0.22812 0.84405 0.0
C1233 C 0.35889 0.21469 0.82595 0.0
C1234 C 0.41155 0.20561 0.86624 0.0
C1235 C 0.39942 0.16858 0.87096 0.0
C1236 C 0.36619 0.15514 0.85284 0.0
C1237 C 0.34643 0.17781 0.83049 0.0
C1238 C 0.4422 0.08814 0.90804 0.0
C1239 C 0.46385 0.09779 0.93658 0.0
C1240 C 0.42182 0.11092 0.88702 0.0
C1241 C 0.42187 0.14434 0.89369 0.0
C1242 C 0.44407 0.15433 0.92201 0.0
C1243 C 0.4648 0.13152 0.94299 0.0
H1244 H 0.86405 0.36689 0.8191 0.0
H1245 H 0.85379 0.26589 0.88416 0.0
H1246 H 0.90673 0.39433 0.86049 0.0
H1247 H 0.89726 0.29349 0.9256 0.0
H1248 H 0.93549 0.37593 0.99942 0.0
H1249 H 0.90021 0.33775 0.96135 0.0
H1250 H 0.96904 0.39437 0.88764 0.0
H1251 H 1.00367 0.43262 0.92561 0.0
C1252 C 0.87091 0.35048 0.84221 0.0
C1253 C 0.85562 0.31414 0.8482 0.0
C1254 C 0.89576 0.36616 0.86584 0.0
C1255 C 0.90583 0.34597 0.89616 0.0
C1256 C 0.89013 0.3097 0.90244 0.0
C1257 C 0.86535 0.29392 0.87865 0.0
C1258 C 0.94388 0.37904 0.97553 0.0
C1259 C 0.97238 0.40675 0.96538 0.0
C1260 C 0.92362 0.35741 0.95367 0.0
C1261 C 0.93146 0.36351 0.92131 0.0
C1262 C 0.96195 0.38945 0.91222 0.0
C1263 C 0.98208 0.411 0.93401 0.0
H1264 H 0.76387 0.88006 0.94884 0.0
H1265 H 0.70747 0.90643 0.85249 0.0
H1266 H 0.72341 0.90461 0.9718 0.0
H1267 H 0.66614 0.93059 0.87594 0.0
H1268 H 0.58453 0.94017 0.9497 0.0
H1269 H 0.61771 0.91304 0.92017 0.0
H1270 H 0.71895 0.9701 0.96307 0.0
H1271 H 0.68657 0.99719 0.9919 0.0
C1272 C 0.7427 0.89095 0.93252 0.0
C1273 C 0.7395 0.89195 0.89869 0.0
C1274 C 0.71942 0.90492 0.94573 0.0
C1275 C 0.69199 0.92005 0.9256 0.0
C1276 C 0.68708 0.91911 0.89202 0.0
C1277 C 0.71071 0.90524 0.87864 0.0
C1278 C 0.61384 0.94732 0.95234 0.0
C1279 C 0.63282 0.97047 0.97363 0.0
C1280 C 0.63278 0.93176 0.93548 0.0
C1281 C 0.67092 0.93895 0.93987 0.0
C1282 C 0.6896 0.96346 0.95975 0.0
C1283 C 0.6709 0.97905 0.97625 0.0
H1284 H 0.89287 0.72133 0.07543 0.0
H1285 H 0.94392 0.68597 0.17192 0.0
H1286 H 0.91049 0.67537 0.05521 0.0
H1287 H 0.96124 0.63934 0.1517 0.0
H1288 H 1.02368 0.59296 0.08969 0.0
H1289 H 1.00317 0.63373 0.11495 0.0
H1290 H 0.89796 0.61132 0.05876 0.0
H1291 H 0.91838 0.5709 0.03336 0.0
C1292 C 0.9078 0.70364 0.09239 0.0
C1293 C 0.91713 0.70754 0.1253 0.0
C1294 C 0.91763 0.67701 0.08084 0.0
C1295 C 0.93731 0.65352 0.10178 0.0
C1296 C 0.94633 0.6571 0.13482 0.0
C1297 C 0.93614 0.68363 0.14649 0.0
C1298 C 0.99602 0.59635 0.083 0.0
C1299 C 0.97283 0.57865 0.05925 0.0
C1300 C 0.98421 0.6197 0.0976 0.0
C1301 C 0.94897 0.62615 0.08871 0.0
C1302 C 0.92545 0.6075 0.06583 0.0
C1303 C 0.93715 0.58408 0.05138 0.0
H1304 H 0.32799 0.79888 0.18841 0.0
H1305 H 0.42474 0.8231 0.25518 0.0
H1306 H 0.35766 0.8395 0.14396 0.0
H1307 H 0.45429 0.8647 0.21132 0.0
H1308 H 0.51151 0.90993 0.1197 0.0
H1309 H 0.48156 0.87103 0.16475 0.0
H1310 H 0.37944 0.89733 0.1192 0.0
H1311 H 0.40915 0.9348 0.07371 0.0
C1312 C 0.3554 0.81347 0.19372 0.0
C1313 C 0.37371 0.80826 0.22554 0.0
C1314 C 0.37261 0.83693 0.16816 0.0
C1315 C 0.40877 0.85585 0.17358 0.0
C1316 C 0.42683 0.85049 0.20563 0.0
C1317 C 0.40973 0.82682 0.23102 0.0
C1318 C 0.48269 0.90751 0.11935 0.0
C1319 C 0.46291 0.92552 0.09273 0.0
C1320 C 0.46535 0.8852 0.14541 0.0
C1321 C 0.42766 0.88045 0.146 0.0
C1322 C 0.40817 0.89926 0.11965 0.0
C1323 C 0.4254 0.92115 0.09347 0.0
H1324 H 0.76865 0.22764 0.1652 0.0
H1325 H 0.67786 0.21775 0.21739 0.0
H1326 H 0.7281 0.19673 0.12423 0.0
H1327 H 0.6375 0.18795 0.17618 0.0
H1328 H 0.59521 0.08904 0.12564 0.0
H1329 H 0.62852 0.12974 0.16173 0.0
H1330 H 0.67635 0.19999 0.07995 0.0
H1331 H 0.64269 0.15874 0.04382 0.0
C1332 C 0.74005 0.21929 0.16775 0.0
C1333 C 0.72659 0.22525 0.19462 0.0
C1334 C 0.71673 0.20188 0.1441 0.0
C1335 C 0.67949 0.18991 0.14687 0.0
C1336 C 0.66603 0.19658 0.17338 0.0
C1337 C 0.68924 0.21395 0.19693 0.0
C1338 C 0.6118 0.11385 0.11524 0.0
C1339 C 0.61594 0.12118 0.08196 0.0
C1340 C 0.63104 0.13713 0.13589 0.0
C1341 C 0.65535 0.16806 0.12379 0.0
C1342 C 0.6581 0.17624 0.09006 0.0
C1343 C 0.63844 0.15301 0.06929 0.0
H1344 H 0.69592 0.65811 0.80979 0.0
H1345 H 0.69037 0.76105 0.82428 0.0
H1346 H 0.64516 0.63111 0.84036 0.0
H1347 H 0.63848 0.73431 0.85468 0.0
H1348 H 0.59522 0.66431 0.94957 0.0
H1349 H 0.62784 0.70051 0.90574 0.0
H1350 H 0.58337 0.62031 0.84601 0.0
H1351 H 0.55217 0.58309 0.89092 0.0
C1352 C 0.68291 0.67508 0.81856 0.0
C1353 C 0.69667 0.71163 0.81421 0.0
C1354 C 0.65362 0.65964 0.83618 0.0
C1355 C 0.63714 0.68042 0.84989 0.0
C1356 C 0.65053 0.71732 0.8448 0.0
C1357 C 0.68023 0.7327 0.8274 0.0
C1358 C 0.59142 0.65481 0.92671 0.0
C1359 C 0.5719 0.62033 0.92415 0.0
C1360 C 0.61017 0.67574 0.90136 0.0
C1361 C 0.60943 0.66291 0.87258 0.0
C1362 C 0.58568 0.63052 0.8683 0.0
C1363 C 0.56717 0.60937 0.89388 0.0
H1364 H 0.27764 0.57716 0.92447 0.0
H1365 H 0.3786 0.63732 0.89015 0.0
H1366 H 0.30792 0.57289 0.98039 0.0
H1367 H 0.40707 0.63498 0.94419 0.0
H1368 H 0.47445 0.59306 1.01226 0.0
H1369 H 0.42794 0.6282 0.99898 0.0
H1370 H 0.34534 0.53238 0.99745 0.0
H1371 H 0.39109 0.49782 1.0126 0.0
C1372 C 0.30582 0.59022 0.92866 0.0
C1373 C 0.32593 0.60587 0.90238 0.0
C1374 C 0.32303 0.58832 0.96078 0.0
C1375 C 0.36061 0.60164 0.96687 0.0
C1376 C 0.37841 0.62337 0.94098 0.0
C1377 C 0.36165 0.62469 0.90917 0.0
C1378 C 0.44622 0.57962 1.0099 0.0
C1379 C 0.43638 0.54299 1.01076 0.0
C1380 C 0.41951 0.59967 1.0027 0.0
C1381 C 0.38309 0.58339 0.9943 0.0
C1382 C 0.37311 0.54631 1.00216 0.0
C1383 C 0.39962 0.52627 1.01019 0.0
H1384 H 0.30623 0.33278 0.85022 0.0
H1385 H 0.39511 0.35505 0.79292 0.0
H1386 H 0.343 0.37005 0.88753 0.0
H1387 H 0.43204 0.39269 0.83053 0.0
H1388 H 0.47383 0.47797 0.9001 0.0
H1389 H 0.43725 0.44886 0.85593 0.0
H1390 H 0.39754 0.35792 0.92688 0.0
H1391 H 0.43336 0.38636 0.97058 0.0
C1392 C 0.33346 0.34599 0.84524 0.0
C1393 C 0.34783 0.34056 0.81866 0.0
C1394 C 0.35453 0.36733 0.8667 0.0
C1395 C 0.39053 0.38377 0.86218 0.0
C1396 C 0.4043 0.38035 0.83449 0.0
C1397 C 0.3831 0.35883 0.81291 0.0
C1398 C 0.45736 0.45172 0.90622 0.0
C1399 C 0.45639 0.43471 0.939 0.0
C1400 C 0.43655 0.4351 0.88093 0.0
C1401 C 0.41416 0.40143 0.88809 0.0
C1402 C 0.41397 0.3842 0.9207 0.0
C1403 C 0.4348 0.40052 0.94577 0.0
H1404 H 0.63055 0.43608 0.79325 0.0
H1405 H 0.72931 0.4285 0.85814 0.0
H1406 H 0.6075 0.45759 0.83405 0.0
H1407 H 0.70612 0.44989 0.89917 0.0
H1408 H 0.66751 0.53135 0.94357 0.0
H1409 H 0.69101 0.50693 0.90498 0.0
H1410 H 0.58754 0.43579 0.8897 0.0
H1411 H 0.56395 0.46009 0.9282 0.0
C1412 C 0.64731 0.43898 0.81628 0.0
C1413 C 0.68179 0.43069 0.82244 0.0
C1414 C 0.634 0.45104 0.83974 0.0
C1415 C 0.655 0.45548 0.86983 0.0
C1416 C 0.68942 0.44699 0.87612 0.0
C1417 C 0.70256 0.43448 0.85276 0.0
C1418 C 0.64977 0.51047 0.93202 0.0
C1419 C 0.6138 0.4978 0.93894 0.0
C1420 C 0.66333 0.49632 0.91008 0.0
C1421 C 0.64112 0.46946 0.89425 0.0
C1422 C 0.60523 0.45667 0.90129 0.0
C1423 C 0.5918 0.47049 0.9235 0.0
H1424 H 0.81841 0.4888 0.16383 0.0
H1425 H 0.77647 0.377 0.16793 0.0
H1426 H 0.78256 0.50018 0.11071 0.0
H1427 H 0.74369 0.38779 0.11404 0.0
H1428 H 0.63631 0.43067 0.08148 0.0
H1429 H 0.68935 0.40912 0.10955 0.0
H1430 H 0.75824 0.49611 0.0538 0.0
H1431 H 0.70482 0.51792 0.02573 0.0
C1432 C 0.80333 0.46662 0.15254 0.0
C1433 C 0.80003 0.43202 0.17004 0.0
C1434 C 0.78293 0.47303 0.122 0.0
C1435 C 0.75954 0.44477 0.10861 0.0
C1436 C 0.76083 0.41007 0.12402 0.0
C1437 C 0.78017 0.40383 0.15476 0.0
C1438 C 0.66259 0.44445 0.0743 0.0
C1439 C 0.66656 0.47657 0.05231 0.0
C1440 C 0.69317 0.43203 0.09028 0.0
C1441 C 0.72815 0.45145 0.08436 0.0
C1442 C 0.73171 0.48108 0.05931 0.0
C1443 C 0.70111 0.49351 0.04333 0.0
H1444 H 0.76788 0.71635 0.17707 0.0
H1445 H 0.72157 0.649 0.26106 0.0
H1446 H 0.72927 0.6782 0.14203 0.0
H1447 H 0.68147 0.6109 0.22509 0.0
H1448 H 0.64667 0.53713 0.14362 0.0
H1449 H 0.68192 0.57 0.18579 0.0
H1450 H 0.66368 0.6677 0.12424 0.0
H1451 H 0.62947 0.63532 0.08219 0.0
C1452 C 0.7493 0.69354 0.18821 0.0
C1453 C 0.74701 0.68653 0.22191 0.0
C1454 C 0.72696 0.67169 0.16794 0.0
C1455 C 0.70158 0.64223 0.18069 0.0
C1456 C 0.70053 0.63377 0.2146 0.0
C1457 C 0.72322 0.65575 0.23511 0.0
C1458 C 0.64983 0.56559 0.1394 0.0
C1459 C 0.63604 0.58379 0.10937 0.0
C1460 C 0.66988 0.58432 0.16353 0.0
C1461 C 0.67615 0.6214 0.15793 0.0
C1462 C 0.66011 0.63918 0.12884 0.0
C1463 C 0.64047 0.62063 0.10477 0.0
H1464 H 0.46217 0.58975 0.24727 0.0
H1465 H 0.36453 0.59619 0.18053 0.0
H1466 H 0.48639 0.56728 0.20787 0.0
H1467 H 0.38883 0.57355 0.14087 0.0
H1468 H 0.42901 0.48807 0.10206 0.0
H1469 H 0.40424 0.51529 0.13776 0.0
H1470 H 0.50751 0.58686 0.15253 0.0
H1471 H 0.53229 0.55983 0.1169 0.0
C1472 C 0.44598 0.58655 0.22404 0.0
C1473 C 0.41141 0.59466 0.21703 0.0
C1474 C 0.45994 0.57386 0.20139 0.0
C1475 C 0.43951 0.56852 0.17125 0.0
C1476 C 0.40511 0.57712 0.16398 0.0
C1477 C 0.39133 0.59036 0.18653 0.0
C1478 C 0.44644 0.50961 0.11292 0.0
C1479 C 0.48274 0.52153 0.10679 0.0
C1480 C 0.43214 0.52541 0.13314 0.0
C1481 C 0.45393 0.55319 0.14805 0.0
C1482 C 0.4901 0.56531 0.14166 0.0
C1483 C 0.50425 0.54987 0.12112 0.0
H1484 H 0.40622 0.25642 0.21885 0.0
H1485 H 0.41458 0.35958 0.24117 0.0
H1486 H 0.4599 0.2795 0.19026 0.0
H1487 H 0.46653 0.38283 0.21249 0.0
H1488 H 0.50176 0.35287 0.09598 0.0
H1489 H 0.4724 0.31488 0.14076 0.0
H1490 H 0.52601 0.3898 0.20389 0.0
H1491 H 0.5534 0.42929 0.15795 0.0
C1492 C 0.41972 0.2839 0.21801 0.0
C1493 C 0.40615 0.30617 0.23247 0.0
C1494 C 0.45051 0.2972 0.20163 0.0
C1495 C 0.46794 0.3332 0.19891 0.0
C1496 C 0.45493 0.35482 0.21462 0.0
C1497 C 0.42465 0.34146 0.23114 0.0
C1498 C 0.50815 0.36091 0.11964 0.0
C1499 C 0.52858 0.39489 0.12298 0.0
C1500 C 0.49138 0.33881 0.14561 0.0
C1501 C 0.49532 0.3499 0.17575 0.0
C1502 C 0.52094 0.38113 0.18056 0.0
C1503 C 0.5372 0.40363 0.15431 0.0
H1504 H 0.88 0.60503 0.70962 0.0
H1505 H 0.81717 0.58908 0.61678 0.0
H1506 H 0.92932 0.58481 0.69438 0.0
H1507 H 0.86571 0.56767 0.60244 0.0
H1508 H 0.94567 0.50779 0.592 0.0
H1509 H 0.89885 0.51724 0.62001 0.0
H1510 H 0.97196 0.60962 0.64976 0.0
H1511 H 1.01891 0.59969 0.62189 0.0
C1512 C 0.87656 0.59718 0.68605 0.0
C1513 C 0.84448 0.59887 0.6644 0.0
C1514 C 0.90475 0.58536 0.67749 0.0
C1515 C 0.90121 0.57442 0.64738 0.0
C1516 C 0.86892 0.57528 0.62611 0.0
C1517 C 0.84102 0.58753 0.63441 0.0
C1518 C 0.95216 0.52911 0.60582 0.0
C1519 C 0.98593 0.55258 0.60556 0.0
C1520 C 0.92528 0.53483 0.62142 0.0
C1521 C 0.9317 0.56433 0.6368 0.0
C1522 C 0.9664 0.5865 0.63836 0.0
C1523 C 0.99326 0.58083 0.62254 0.0
H1524 H 0.33984 0.79929 0.67559 0.0
H1525 H 0.42183 0.82395 0.75527 0.0
H1526 H 0.37868 0.83819 0.6367 0.0
H1527 H 0.46192 0.86155 0.71658 0.0
H1528 H 0.50479 0.96096 0.64787 0.0
H1529 H 0.46697 0.91725 0.68418 0.0
H1530 H 0.43001 0.85358 0.6087 0.0
H1531 H 0.46717 0.8986 0.5717 0.0
C1532 C 0.3668 0.81205 0.68466 0.0
C1533 C 0.37811 0.80805 0.71839 0.0
C1534 C 0.38919 0.83452 0.66234 0.0
C1535 C 0.4235 0.85375 0.67324 0.0
C1536 C 0.4354 0.84812 0.70707 0.0
C1537 C 0.41273 0.82607 0.72935 0.0
C1538 C 0.48837 0.93777 0.63885 0.0
C1539 C 0.48907 0.93338 0.6068 0.0
C1540 C 0.46692 0.9123 0.65993 0.0
C1541 C 0.44575 0.88117 0.64991 0.0
C1542 C 0.44571 0.87714 0.61745 0.0
C1543 C 0.46696 0.90303 0.59611 0.0
H1544 H 0.17029 0.27266 0.70776 0.0
H1545 H 0.26716 0.35093 0.72699 0.0
H1546 H 0.14005 0.31886 0.67599 0.0
H1547 H 0.23714 0.39752 0.69352 0.0
H1548 H 0.17207 0.45164 0.59282 0.0
H1549 H 0.2082 0.41359 0.63106 0.0
H1550 H 0.11903 0.37265 0.68816 0.0
H1551 H 0.08322 0.41144 0.65023 0.0
C1552 C 0.18534 0.2998 0.70484 0.0
C1553 C 0.22144 0.3079 0.71947 0.0
C1554 C 0.16785 0.32635 0.68679 0.0
C1555 C 0.18592 0.36202 0.68242 0.0
C1556 C 0.22237 0.37031 0.69645 0.0
C1557 C 0.23972 0.34361 0.71531 0.0
C1558 C 0.16073 0.43555 0.61429 0.0
C1559 C 0.12495 0.4351 0.61878 0.0
C1560 C 0.1814 0.4136 0.63612 0.0
C1561 C 0.1665 0.38982 0.66259 0.0
C1562 C 0.13132 0.39056 0.66795 0.0
C1563 C 0.11092 0.41313 0.64649 0.0
H1564 H 0.71978 0.2739 0.65902 0.0
H1565 H 0.74002 0.17366 0.71368 0.0
H1566 H 0.68844 0.24472 0.61323 0.0
H1567 H 0.7098 0.14518 0.66801 0.0
H1568 H 0.68715 0.10644 0.57576 0.0
H1569 H 0.72234 0.14822 0.61003 0.0
H1570 H 0.62978 0.195 0.60252 0.0
H1571 H 0.59438 0.15298 0.56782 0.0
C1572 C 0.71738 0.24573 0.66145 0.0
C1573 C 0.73216 0.22615 0.6903 0.0
C1574 C 0.6996 0.22911 0.63513 0.0
C1575 C 0.69705 0.19279 0.63692 0.0
C1576 C 0.71188 0.17335 0.66568 0.0
C1577 C 0.72905 0.18973 0.69201 0.0
C1578 C 0.6747 0.12651 0.58039 0.0
C1579 C 0.638 0.12636 0.56932 0.0
C1580 C 0.69475 0.15022 0.60023 0.0
C1581 C 0.67852 0.17426 0.60956 0.0
C1582 C 0.64294 0.17668 0.59573 0.0
C1583 C 0.62275 0.15282 0.57569 0.0
H1584 H 0.90283 0.3483 0.31293 0.0
H1585 H 0.82155 0.29948 0.37753 0.0
H1586 H 0.93449 0.38638 0.35241 0.0
H1587 H 0.85287 0.33734 0.41663 0.0
H1588 H 0.95032 0.37838 0.49209 0.0
H1589 H 0.91244 0.34368 0.45274 0.0
H1590 H 0.92342 0.43671 0.37741 0.0
H1591 H 0.96121 0.47166 0.41716 0.0
C1592 C 0.89192 0.34551 0.33563 0.0
C1593 C 0.85968 0.32096 0.34213 0.0
C1594 C 0.90972 0.3676 0.35799 0.0
C1595 C 0.89591 0.36508 0.38746 0.0
C1596 C 0.86413 0.33996 0.39415 0.0
C1597 C 0.84615 0.31832 0.37169 0.0
C1598 C 0.94365 0.39164 0.46737 0.0
C1599 C 0.95836 0.42774 0.45772 0.0
C1600 C 0.92214 0.37175 0.44479 0.0
C1601 C 0.91537 0.38738 0.4119 0.0
C1602 C 0.92859 0.42391 0.40254 0.0
C1603 C 0.94965 0.44402 0.42536 0.0
H1604 H 0.68566 0.80547 0.46225 0.0
H1605 H 0.67743 0.85687 0.36114 0.0
H1606 H 0.66288 0.8518 0.4766 0.0
H1607 H 0.65696 0.90444 0.37585 0.0
H1608 H 0.57386 0.95412 0.40616 0.0
H1609 H 0.6044 0.91401 0.39103 0.0
H1610 H 0.67334 0.91151 0.48329 0.0
H1611 H 0.64163 0.95088 0.49904 0.0
C1612 C 0.67924 0.82674 0.44304 0.0
C1613 C 0.68306 0.82697 0.4104 0.0
C1614 C 0.66668 0.85375 0.4514 0.0
C1615 C 0.65782 0.88201 0.42743 0.0
C1616 C 0.66288 0.8829 0.39497 0.0
C1617 C 0.67516 0.85573 0.38656 0.0
C1618 C 0.59583 0.94546 0.42316 0.0
C1619 C 0.60504 0.95572 0.45396 0.0
C1620 C 0.6136 0.92247 0.41434 0.0
C1621 C 0.64136 0.90916 0.43592 0.0
C1622 C 0.65168 0.92063 0.46621 0.0
C1623 C 0.63371 0.94355 0.47514 0.0
H1624 H 0.1802 0.69141 0.29374 0.0
H1625 H 0.2763 0.70488 0.36348 0.0
H1626 H 0.14472 0.65752 0.33722 0.0
H1627 H 0.24065 0.66934 0.40726 0.0
H1628 H 0.15485 0.56974 0.46248 0.0
H1629 H 0.19659 0.60166 0.42243 0.0
H1630 H 0.12984 0.67879 0.38862 0.0
H1631 H 0.08869 0.64762 0.42871 0.0
C1632 C 0.19394 0.68652 0.31834 0.0
C1633 C 0.23122 0.70054 0.32497 0.0
C1634 C 0.17352 0.66717 0.34329 0.0
C1635 C 0.18972 0.66087 0.37576 0.0
C1636 C 0.22737 0.67365 0.38246 0.0
C1637 C 0.24784 0.69378 0.35738 0.0
C1638 C 0.1493 0.59375 0.44676 0.0
C1639 C 0.11826 0.60602 0.44898 0.0
C1640 C 0.17333 0.61208 0.42391 0.0
C1641 C 0.16651 0.64272 0.40226 0.0
C1642 C 0.13583 0.65521 0.40484 0.0
C1643 C 0.1123 0.63737 0.428 0.0
H1644 H 0.39763 0.24406 0.31726 0.0
H1645 H 0.308 0.17019 0.35931 0.0
H1646 H 0.44022 0.2128 0.35592 0.0
H1647 H 0.34982 0.13988 0.3982 0.0
H1648 H 0.42442 0.06277 0.42586 0.0
H1649 H 0.38595 0.10102 0.39408 0.0
H1650 H 0.46834 0.19266 0.41265 0.0
H1651 H 0.50803 0.15348 0.44453 0.0
C1652 C 0.38707 0.22168 0.33522 0.0
C1653 C 0.34935 0.20954 0.33514 0.0
C1654 C 0.41147 0.20372 0.35747 0.0
C1655 C 0.3987 0.17315 0.38002 0.0
C1656 C 0.36097 0.16256 0.38081 0.0
C1657 C 0.33683 0.18015 0.35859 0.0
C1658 C 0.43461 0.09105 0.42357 0.0
C1659 C 0.46967 0.10473 0.43802 0.0
C1660 C 0.41216 0.11323 0.40535 0.0
C1661 C 0.42356 0.15028 0.4007 0.0
C1662 C 0.45851 0.16431 0.41546 0.0
C1663 C 0.48119 0.14183 0.43407 0.0
H1664 H 0.78994 0.8583 0.68278 0.0
H1665 H 0.69747 0.78536 0.72098 0.0
H1666 H 0.75016 0.88923 0.64206 0.0
H1667 H 0.65687 0.81732 0.68045 0.0
H1668 H 0.59389 0.87857 0.58969 0.0
H1669 H 0.63188 0.83839 0.62272 0.0
H1670 H 0.71407 0.92867 0.64518 0.0
H1671 H 0.67728 0.96796 0.61228 0.0
C1672 C 0.76092 0.84861 0.68216 0.0
C1673 C 0.74696 0.81927 0.70503 0.0
C1674 C 0.73796 0.86658 0.65892 0.0
C1675 C 0.70004 0.85652 0.65817 0.0
C1676 C 0.68585 0.82596 0.6801 0.0
C1677 C 0.70909 0.80757 0.70337 0.0
C1678 C 0.62037 0.88972 0.60125 0.0
C1679 C 0.63233 0.92673 0.59807 0.0
C1680 C 0.64202 0.86666 0.62051 0.0
C1681 C 0.67637 0.88003 0.6367 0.0
C1682 C 0.68829 0.917 0.63281 0.0
C1683 C 0.66682 0.93977 0.61393 0.0
H1684 H 0.78799 0.20493 0.37691 0.0
H1685 H 0.71073 0.19534 0.29091 0.0
H1686 H 0.74184 0.1707 0.41115 0.0
H1687 H 0.66488 0.15895 0.32448 0.0
H1688 H 0.57879 0.11666 0.39176 0.0
H1689 H 0.62465 0.15493 0.35949 0.0
H1690 H 0.70823 0.11719 0.43091 0.0
H1691 H 0.66197 0.08099 0.46424 0.0
C1692 C 0.76096 0.19533 0.36539 0.0
C1693 C 0.75264 0.20359 0.33139 0.0
C1694 C 0.73444 0.17521 0.38498 0.0
C1695 C 0.69905 0.1616 0.37101 0.0
C1696 C 0.69122 0.1694 0.33665 0.0
C1697 C 0.71757 0.19028 0.31718 0.0
C1698 C 0.60703 0.1167 0.40061 0.0
C1699 C 0.61668 0.09566 0.43057 0.0
C1700 C 0.63353 0.13851 0.38187 0.0
C1701 C 0.67068 0.13928 0.39198 0.0
C1702 C 0.68022 0.11817 0.42219 0.0
C1703 C 0.65363 0.09705 0.44138 0.0
H1704 H 0.92244 0.74852 0.33394 0.0
H1705 H 0.82569 0.67074 0.31309 0.0
H1706 H 0.95224 0.70208 0.36568 0.0
H1707 H 0.85536 0.62378 0.34646 0.0
H1708 H 0.9193 0.56778 0.44676 0.0
H1709 H 0.88343 0.60604 0.40851 0.0
H1710 H 0.97415 0.64943 0.35359 0.0
H1711 H 1.00975 0.6105 0.39157 0.0
C1712 C 0.90728 0.72143 0.33653 0.0
C1713 C 0.87138 0.71357 0.32137 0.0
C1714 C 0.92456 0.69472 0.35454 0.0
C1715 C 0.9065 0.65905 0.35838 0.0
C1716 C 0.87016 0.65097 0.34393 0.0
C1717 C 0.85299 0.67788 0.32511 0.0
C1718 C 0.93109 0.58448 0.42575 0.0
C1719 C 0.96724 0.58556 0.42193 0.0
C1720 C 0.91054 0.60655 0.4039 0.0
C1721 C 0.92588 0.63108 0.37806 0.0
C1722 C 0.96148 0.63096 0.3733 0.0
C1723 C 0.98179 0.6083 0.39479 0.0
H1724 H 0.31633 0.79899 0.3738 0.0
H1725 H 0.41732 0.78648 0.35074 0.0
H1726 H 0.34857 0.82874 0.41856 0.0
H1727 H 0.45034 0.8184 0.39413 0.0
H1728 H 0.50459 0.87313 0.47755 0.0
H1729 H 0.46803 0.82597 0.44914 0.0
H1730 H 0.38247 0.8846 0.42115 0.0
H1731 H 0.41791 0.93 0.45044 0.0
C1732 C 0.34555 0.80254 0.37859 0.0
C1733 C 0.3645 0.79075 0.35897 0.0
C1734 C 0.36415 0.8198 0.40406 0.0
C1735 C 0.4023 0.82676 0.40978 0.0
C1736 C 0.42104 0.81332 0.39088 0.0
C1737 C 0.40223 0.79523 0.36583 0.0
C1738 C 0.47742 0.8751 0.4663 0.0
C1739 C 0.46424 0.90538 0.46603 0.0
C1740 C 0.45663 0.84837 0.44956 0.0
C1741 C 0.42231 0.85146 0.43233 0.0
C1742 C 0.4084 0.88069 0.43429 0.0
C1743 C 0.42895 0.90708 0.45098 0.0
H1744 H 0.20591 0.41428 0.32735 0.0
H1745 H 0.27734 0.45525 0.40786 0.0
H1746 H 0.15519 0.42927 0.3455 0.0
H1747 H 0.22699 0.4724 0.42405 0.0
H1748 H 0.12807 0.52083 0.42581 0.0
H1749 H 0.17445 0.5142 0.39508 0.0
H1750 H 0.1316 0.40168 0.40818 0.0
H1751 H 0.08642 0.40812 0.43996 0.0
C1752 C 0.21106 0.42664 0.34869 0.0
C1753 C 0.24597 0.43299 0.36633 0.0
C1754 C 0.18201 0.43565 0.35871 0.0
C1755 C 0.18743 0.45216 0.38593 0.0
C1756 C 0.22237 0.46015 0.40264 0.0
C1757 C 0.25124 0.45037 0.39319 0.0
C1758 C 0.12807 0.4949 0.42128 0.0
C1759 C 0.10384 0.46496 0.43507 0.0
C1760 C 0.15458 0.49111 0.40392 0.0
C1761 C 0.15635 0.45745 0.39935 0.0
C1762 C 0.13047 0.4279 0.41119 0.0
C1763 C 0.10473 0.43156 0.42931 0.0
H1764 H 0.34928 0.15754 0.59628 0.0
H1765 H 0.44161 0.19502 0.66329 0.0
H1766 H 0.38224 0.11858 0.5819 0.0
H1767 H 0.47504 0.15649 0.6485 0.0
H1768 H 0.51827 0.06482 0.63286 0.0
H1769 H 0.48134 0.09763 0.651 0.0
H1770 H 0.43007 0.12119 0.55204 0.0
H1771 H 0.46617 0.08752 0.53415 0.0
C1772 C 0.37671 0.1575 0.60793 0.0
C1773 C 0.39286 0.17964 0.63079 0.0
C1774 C 0.39573 0.13521 0.59957 0.0
C1775 C 0.43158 0.13447 0.61371 0.0
C1776 C 0.44738 0.15591 0.63731 0.0
C1777 C 0.42822 0.1781 0.64583 0.0
C1778 C 0.49885 0.07669 0.615 0.0
C1779 C 0.49527 0.07341 0.582 0.0
C1780 C 0.47781 0.09581 0.62539 0.0
C1781 C 0.45271 0.11238 0.60306 0.0
C1782 C 0.44863 0.10844 0.57015 0.0
C1783 C 0.4695 0.08914 0.55981 0.0
H1784 H 0.91005 0.34259 0.75152 0.0
H1785 H 0.82067 0.3066 0.68135 0.0
H1786 H 0.94447 0.37677 0.7072 0.0
H1787 H 0.85583 0.34013 0.6366 0.0
H1788 H 0.96256 0.36613 0.57841 0.0
H1789 H 0.92065 0.33522 0.6187 0.0
H1790 H 0.93782 0.4306 0.65824 0.0
H1791 H 0.97905 0.46139 0.61802 0.0
C1792 C 0.8976 0.34236 0.72653 0.0
C1793 C 0.86243 0.32232 0.72 0.0
C1794 C 0.91735 0.3619 0.70112 0.0
C1795 C 0.90305 0.3611 0.66831 0.0
C1796 C 0.86771 0.34118 0.66161 0.0
C1797 C 0.84744 0.32226 0.68719 0.0
C1798 C 0.95706 0.38055 0.59549 0.0
C1799 C 0.97393 0.41642 0.59465 0.0
C1800 C 0.93286 0.36292 0.61843 0.0
C1801 C 0.92571 0.38047 0.64165 0.0
C1802 C 0.94256 0.4163 0.6407 0.0
C1803 C 0.96603 0.43404 0.61743 0.0
H1804 H 0.29429 0.6675 0.68817 0.0
H1805 H 0.19978 0.699 0.70581 0.0
H1806 H 0.2567 0.63356 0.64775 0.0
H1807 H 0.16267 0.66567 0.66517 0.0
H1808 H 0.15475 0.54752 0.60589 0.0
H1809 H 0.1987 0.57828 0.64554 0.0
H1810 H 0.16433 0.67559 0.60189 0.0
H1811 H 0.12158 0.64576 0.56219 0.0
C1812 C 0.26553 0.66706 0.68359 0.0
C1813 C 0.25005 0.68614 0.70009 0.0
C1814 C 0.24408 0.64752 0.66056 0.0
C1815 C 0.20691 0.64719 0.65327 0.0
C1816 C 0.19135 0.66566 0.67022 0.0
C1817 C 0.21259 0.68464 0.69358 0.0
C1818 C 0.15727 0.57565 0.60427 0.0
C1819 C 0.13424 0.594 0.58108 0.0
C1820 C 0.18228 0.59317 0.62703 0.0
C1821 C 0.18429 0.62912 0.62709 0.0
C1822 C 0.16286 0.64776 0.60275 0.0
C1823 C 0.13841 0.63054 0.57993 0.0
loop_
_geom_bond_atom_site_label_1
_geom_bond_atom_site_label_2
_geom_bond_distance
_geom_bond_site_symmetry_2
_ccdc_geom_bond_type
Eu0 N31 2.657 . S
Eu0 N38 2.609 . S
Eu0 O44 2.558 . S
Eu0 O45 2.612 . S
Eu0 O47 2.339 . S
Eu0 O48 2.563 . S
Eu0 O49 2.419 . S
Eu0 O51 2.380 . S
Eu0 O52 2.432 . S
Eu0 C64 2.848 . S
C1 C4 1.429 . S
C1 C5 1.411 . S
C1 N8 1.377 . S
C2 C4 1.420 . S
C2 C6 1.423 . S
C2 C14 1.392 . S
C3 C5 1.420 . S
C3 C6 1.351 . S
C3 H26 0.931 . S
C4 C1 1.429 . S
C4 C2 1.420 . S
C4 N12 1.362 . S
C5 C1 1.411 . S
C5 C3 1.420 . S
C5 C10 1.395 . S
C6 C2 1.423 . S
C6 C3 1.351 . S
C6 H18 0.930 . S
C7 C9 1.400 . S
C7 C10 1.386 . S
C7 H19 0.930 . S
N8 C1 1.377 . S
N8 C9 1.321 . S
N8 Eu11 2.609 . S
C9 C7 1.400 . S
C9 N8 1.321 . S
C9 H16 0.930 . S
C10 C5 1.395 . S
C10 C7 1.386 . S
C10 H29 0.930 . S
Eu11 N8 2.609 . S
Eu11 N12 2.657 . S
Eu11 O45 2.380 . S
Eu11 O46 2.432 . S
Eu11 O50 2.558 . S
Eu11 O51 2.612 . S
Eu11 O53 2.339 . S
Eu11 O54 2.563 . S
Eu11 O55 2.419 . S
Eu11 C75 2.848 . S
N12 C4 1.362 . S
N12 Eu11 2.657 . S
N12 C13 1.334 . S
C13 N12 1.334 . S
C13 C15 1.413 . S
C13 H20 0.929 . S
C14 C2 1.392 . S
C14 C15 1.367 . S
C14 H22 0.930 . S
C15 C13 1.413 . S
C15 C14 1.367 . S
C15 H17 0.930 . S
H16 C9 0.930 . S
H17 C15 0.930 . S
H18 C6 0.930 . S
H19 C7 0.930 . S
H20 C13 0.929 . S
H21 C35 0.930 . S
H22 C14 0.930 . S
H23 C41 0.930 . S
H24 C32 0.929 . S
H25 C39 0.930 . S
H26 C3 0.931 . S
H27 C33 0.930 . S
H28 C66 0.930 . S
H29 C10 0.930 . S
H30 C65 0.931 . S
N31 Eu0 2.657 . S
N31 C32 1.334 . S
N31 C36 1.362 . S
C32 H24 0.929 . S
C32 N31 1.334 . S
C32 C35 1.413 . S
C33 H27 0.930 . S
C33 C34 1.392 . S
C33 C35 1.367 . S
C34 C33 1.392 . S
C34 C36 1.420 . S
C34 C66 1.423 . S
C35 H21 0.930 . S
C35 C32 1.413 . S
C35 C33 1.367 . S
C36 N31 1.362 . S
C36 C34 1.420 . S
C36 C40 1.429 . S
H37 C42 0.930 . S
N38 Eu0 2.609 . S
N38 C40 1.377 . S
N38 C41 1.321 . S
C39 H25 0.930 . S
C39 C41 1.400 . S
C39 C42 1.386 . S
C40 C36 1.429 . S
C40 N38 1.377 . S
C40 C43 1.411 . S
C41 H23 0.930 . S
C41 N38 1.321 . S
C41 C39 1.400 . S
C42 H37 0.930 . S
C42 C39 1.386 . S
C42 C43 1.395 . S
C43 C40 1.411 . S
C43 C42 1.395 . S
C43 C65 1.420 . S
O44 Eu0 2.558 . S
O44 C64 1.257 . S
O45 Eu0 2.612 . S
O45 Eu11 2.380 . S
O45 C56 1.276 . S
O46 Eu11 2.432 . S
O46 C63 1.264 . S
O47 Eu0 2.339 . S
O47 C63 1.254 . S
O48 Eu0 2.563 . S
O48 C56 1.235 . S
O49 Eu0 2.419 . S
O49 C64 1.249 . S
O50 Eu11 2.558 . S
O50 C75 1.257 . S
O51 Eu0 2.380 . S
O51 Eu11 2.612 . S
O51 C67 1.276 . S
O52 Eu0 2.432 . S
O52 C74 1.264 . S
O53 Eu11 2.339 . S
O53 C74 1.254 . S
O54 Eu11 2.563 . S
O54 C67 1.235 . S
O55 Eu11 2.419 . S
O55 C75 1.249 . S
C56 O45 1.276 . S
C56 O48 1.235 . S
C57 C59 1.393 . S
C57 C61 1.395 . S
C57 C64 1.492 . S
C58 C59 1.392 . S
C58 C60 1.386 . S
C59 C57 1.393 . S
C59 C58 1.392 . S
C59 H76 0.930 . S
C60 C58 1.386 . S
C60 C62 1.395 . S
C60 H77 0.930 . S
C61 C57 1.395 . S
C61 C62 1.379 . S
C61 H78 0.930 . S
C62 C60 1.395 . S
C62 C61 1.379 . S
C62 H79 0.930 . S
C63 O46 1.264 . S
C63 O47 1.254 . S
C64 Eu0 2.848 . S
C64 O44 1.257 . S
C64 O49 1.249 . S
C64 C57 1.492 . S
C65 H30 0.931 . S
C65 C43 1.420 . S
C65 C66 1.351 . S
C66 H28 0.930 . S
C66 C34 1.423 . S
C66 C65 1.351 . S
C67 O51 1.276 . S
C67 O54 1.235 . S
C68 C69 1.393 . S
C68 C72 1.395 . S
C68 C75 1.492 . S
C69 C68 1.393 . S
C69 C70 1.392 . S
C69 H80 0.930 . S
C70 C69 1.392 . S
C70 C71 1.386 . S
C71 C70 1.386 . S
C71 C73 1.395 . S
C71 H81 0.930 . S
C72 C68 1.395 . S
C72 C73 1.379 . S
C72 H82 0.930 . S
C73 C71 1.395 . S
C73 C72 1.379 . S
C73 H83 0.930 . S
C74 O52 1.264 . S
C74 O53 1.254 . S
C75 Eu11 2.848 . S
C75 O50 1.257 . S
C75 O55 1.249 . S
C75 C68 1.492 . S
H76 C59 0.930 . S
H77 C60 0.930 . S
H78 C61 0.930 . S
H79 C62 0.930 . S
H80 C69 0.930 . S
H81 C71 0.930 . S
H82 C72 0.930 . S
H83 C73 0.930 . S
Eu84 N115 2.657 . S
Eu84 N122 2.609 . S
Eu84 O128 2.558 . S
Eu84 O129 2.612 . S
Eu84 O131 2.339 . S
Eu84 O132 2.563 . S
Eu84 O133 2.419 . S
Eu84 O135 2.380 . S
Eu84 O136 2.432 . S
Eu84 C148 2.848 . S
C85 C88 1.429 . S
C85 C89 1.411 . S
C85 N92 1.377 . S
C86 C88 1.420 . S
C86 C90 1.423 . S
C86 C98 1.392 . S
C87 C89 1.420 . S
C87 C90 1.351 . S
C87 H110 0.931 . S
C88 C85 1.429 . S
C88 C86 1.420 . S
C88 N96 1.362 . S
C89 C85 1.411 . S
C89 C87 1.420 . S
C89 C94 1.395 . S
C90 C86 1.423 . S
C90 C87 1.351 . S
C90 H102 0.930 . S
C91 C93 1.400 . S
C91 C94 1.386 . S
C91 H103 0.930 . S
N92 C85 1.377 . S
N92 C93 1.321 . S
N92 Eu95 2.609 . S
C93 C91 1.400 . S
C93 N92 1.321 . S
C93 H100 0.930 . S
C94 C89 1.395 . S
C94 C91 1.386 . S
C94 H113 0.930 . S
Eu95 N92 2.609 . S
Eu95 N96 2.657 . S
Eu95 O129 2.380 . S
Eu95 O130 2.432 . S
Eu95 O134 2.558 . S
Eu95 O135 2.612 . S
Eu95 O137 2.339 . S
Eu95 O138 2.563 . S
Eu95 O139 2.419 . S
Eu95 C159 2.848 . S
N96 C88 1.362 . S
N96 Eu95 2.657 . S
N96 C97 1.334 . S
C97 N96 1.334 . S
C97 C99 1.413 . S
C97 H104 0.929 . S
C98 C86 1.392 . S
C98 C99 1.367 . S
C98 H106 0.930 . S
C99 C97 1.413 . S
C99 C98 1.367 . S
C99 H101 0.930 . S
H100 C93 0.930 . S
H101 C99 0.930 . S
H102 C90 0.930 . S
H103 C91 0.930 . S
H104 C97 0.929 . S
H105 C119 0.930 . S
H106 C98 0.930 . S
H107 C125 0.930 . S
H108 C116 0.929 . S
H109 C123 0.930 . S
H110 C87 0.931 . S
H111 C117 0.930 . S
H112 C150 0.930 . S
H113 C94 0.930 . S
H114 C149 0.931 . S
N115 Eu84 2.657 . S
N115 C116 1.334 . S
N115 C120 1.362 . S
C116 H108 0.929 . S
C116 N115 1.334 . S
C116 C119 1.413 . S
C117 H111 0.930 . S
C117 C118 1.392 . S
C117 C119 1.367 . S
C118 C117 1.392 . S
C118 C120 1.420 . S
C118 C150 1.423 . S
C119 H105 0.930 . S
C119 C116 1.413 . S
C119 C117 1.367 . S
C120 N115 1.362 . S
C120 C118 1.420 . S
C120 C124 1.429 . S
H121 C126 0.930 . S
N122 Eu84 2.609 . S
N122 C124 1.377 . S
N122 C125 1.321 . S
C123 H109 0.930 . S
C123 C125 1.400 . S
C123 C126 1.386 . S
C124 C120 1.429 . S
C124 N122 1.377 . S
C124 C127 1.411 . S
C125 H107 0.930 . S
C125 N122 1.321 . S
C125 C123 1.400 . S
C126 H121 0.930 . S
C126 C123 1.386 . S
C126 C127 1.395 . S
C127 C124 1.411 . S
C127 C126 1.395 . S
C127 C149 1.420 . S
O128 Eu84 2.558 . S
O128 C148 1.257 . S
O129 Eu84 2.612 . S
O129 Eu95 2.380 . S
O129 C140 1.276 . S
O130 Eu95 2.432 . S
O130 C147 1.264 . S
O131 Eu84 2.339 . S
O131 C147 1.254 . S
O132 Eu84 2.563 . S
O132 C140 1.235 . S
O133 Eu84 2.419 . S
O133 C148 1.249 . S
O134 Eu95 2.558 . S
O134 C159 1.257 . S
O135 Eu84 2.380 . S
O135 Eu95 2.612 . S
O135 C151 1.276 . S
O136 Eu84 2.432 . S
O136 C158 1.264 . S
O137 Eu95 2.339 . S
O137 C158 1.254 . S
O138 Eu95 2.563 . S
O138 C151 1.235 . S
O139 Eu95 2.419 . S
O139 C159 1.249 . S
C140 O129 1.276 . S
C140 O132 1.235 . S
C141 C143 1.393 . S
C141 C145 1.395 . S
C141 C148 1.492 . S
C142 C143 1.392 . S
C142 C144 1.386 . S
C143 C141 1.393 . S
C143 C142 1.392 . S
C143 H160 0.930 . S
C144 C142 1.386 . S
C144 C146 1.395 . S
C144 H161 0.930 . S
C145 C141 1.395 . S
C145 C146 1.379 . S
C145 H162 0.930 . S
C146 C144 1.395 . S
C146 C145 1.379 . S
C146 H163 0.930 . S
C147 O130 1.264 . S
C147 O131 1.254 . S
C148 Eu84 2.848 . S
C148 O128 1.257 . S
C148 O133 1.249 . S
C148 C141 1.492 . S
C149 H114 0.931 . S
C149 C127 1.420 . S
C149 C150 1.351 . S
C150 H112 0.930 . S
C150 C118 1.423 . S
C150 C149 1.351 . S
C151 O135 1.276 . S
C151 O138 1.235 . S
C152 C153 1.393 . S
C152 C156 1.395 . S
C152 C159 1.492 . S
C153 C152 1.393 . S
C153 C154 1.392 . S
C153 H164 0.930 . S
C154 C153 1.392 . S
C154 C155 1.386 . S
C155 C154 1.386 . S
C155 C157 1.395 . S
C155 H165 0.930 . S
C156 C152 1.395 . S
C156 C157 1.379 . S
C156 H166 0.930 . S
C157 C155 1.395 . S
C157 C156 1.379 . S
C157 H167 0.930 . S
C158 O136 1.264 . S
C158 O137 1.254 . S
C159 Eu95 2.848 . S
C159 O134 1.257 . S
C159 O139 1.249 . S
C159 C152 1.492 . S
H160 C143 0.930 . S
H161 C144 0.930 . S
H162 C145 0.930 . S
H163 C146 0.930 . S
H164 C153 0.930 . S
H165 C155 0.930 . S
H166 C156 0.930 . S
H167 C157 0.930 . S
Eu168 N199 2.657 . S
Eu168 N206 2.609 . S
Eu168 O212 2.558 . S
Eu168 O213 2.612 . S
Eu168 O215 2.339 . S
Eu168 O216 2.563 . S
Eu168 O217 2.419 . S
Eu168 O219 2.380 . S
Eu168 O220 2.432 . S
Eu168 C232 2.848 . S
C169 C172 1.429 . S
C169 C173 1.411 . S
C169 N176 1.377 . S
C170 C172 1.420 . S
C170 C174 1.423 . S
C170 C182 1.392 . S
C171 C173 1.420 . S
C171 C174 1.351 . S
C171 H194 0.931 . S
C172 C169 1.429 . S
C172 C170 1.420 . S
C172 N180 1.362 . S
C173 C169 1.411 . S
C173 C171 1.420 . S
C173 C178 1.395 . S
C174 C170 1.423 . S
C174 C171 1.351 . S
C174 H186 0.930 . S
C175 C177 1.400 . S
C175 C178 1.386 . S
C175 H187 0.930 . S
N176 C169 1.377 . S
N176 C177 1.321 . S
N176 Eu179 2.609 . S
C177 C175 1.400 . S
C177 N176 1.321 . S
C177 H184 0.930 . S
C178 C173 1.395 . S
C178 C175 1.386 . S
C178 H197 0.930 . S
Eu179 N176 2.609 . S
Eu179 N180 2.657 . S
Eu179 O213 2.380 . S
Eu179 O214 2.432 . S
Eu179 O218 2.558 . S
Eu179 O219 2.612 . S
Eu179 O221 2.339 . S
Eu179 O222 2.563 . S
Eu179 O223 2.419 . S
Eu179 C243 2.848 . S
N180 C172 1.362 . S
N180 Eu179 2.657 . S
N180 C181 1.334 . S
C181 N180 1.334 . S
C181 C183 1.413 . S
C181 H188 0.929 . S
C182 C170 1.392 . S
C182 C183 1.367 . S
C182 H190 0.930 . S
C183 C181 1.413 . S
C183 C182 1.367 . S
C183 H185 0.930 . S
H184 C177 0.930 . S
H185 C183 0.930 . S
H186 C174 0.930 . S
H187 C175 0.930 . S
H188 C181 0.929 . S
H189 C203 0.930 . S
H190 C182 0.930 . S
H191 C209 0.930 . S
H192 C200 0.929 . S
H193 C207 0.930 . S
H194 C171 0.931 . S
H195 C201 0.930 . S
H196 C234 0.930 . S
H197 C178 0.930 . S
H198 C233 0.931 . S
N199 Eu168 2.657 . S
N199 C200 1.334 . S
N199 C204 1.362 . S
C200 H192 0.929 . S
C200 N199 1.334 . S
C200 C203 1.413 . S
C201 H195 0.930 . S
C201 C202 1.392 . S
C201 C203 1.367 . S
C202 C201 1.392 . S
C202 C204 1.420 . S
C202 C234 1.423 . S
C203 H189 0.930 . S
C203 C200 1.413 . S
C203 C201 1.367 . S
C204 N199 1.362 . S
C204 C202 1.420 . S
C204 C208 1.429 . S
H205 C210 0.930 . S
N206 Eu168 2.609 . S
N206 C208 1.377 . S
N206 C209 1.321 . S
C207 H193 0.930 . S
C207 C209 1.400 . S
C207 C210 1.386 . S
C208 C204 1.429 . S
C208 N206 1.377 . S
C208 C211 1.411 . S
C209 H191 0.930 . S
C209 N206 1.321 . S
C209 C207 1.400 . S
C210 H205 0.930 . S
C210 C207 1.386 . S
C210 C211 1.395 . S
C211 C208 1.411 . S
C211 C210 1.395 . S
C211 C233 1.420 . S
O212 Eu168 2.558 . S
O212 C232 1.257 . S
O213 Eu168 2.612 . S
O213 Eu179 2.380 . S
O213 C224 1.276 . S
O214 Eu179 2.432 . S
O214 C231 1.264 . S
O215 Eu168 2.339 . S
O215 C231 1.254 . S
O216 Eu168 2.563 . S
O216 C224 1.235 . S
O217 Eu168 2.419 . S
O217 C232 1.249 . S
O218 Eu179 2.558 . S
O218 C243 1.257 . S
O219 Eu168 2.380 . S
O219 Eu179 2.612 . S
O219 C235 1.276 . S
O220 Eu168 2.432 . S
O220 C242 1.264 . S
O221 Eu179 2.339 . S
O221 C242 1.254 . S
O222 Eu179 2.563 . S
O222 C235 1.235 . S
O223 Eu179 2.419 . S
O223 C243 1.249 . S
C224 O213 1.276 . S
C224 O216 1.235 . S
C225 C227 1.393 . S
C225 C229 1.395 . S
C225 C232 1.492 . S
C226 C227 1.392 . S
C226 C228 1.386 . S
C227 C225 1.393 . S
C227 C226 1.392 . S
C227 H244 0.930 . S
C228 C226 1.386 . S
C228 C230 1.395 . S
C228 H245 0.930 . S
C229 C225 1.395 . S
C229 C230 1.379 . S
C229 H246 0.930 . S
C230 C228 1.395 . S
C230 C229 1.379 . S
C230 H247 0.930 . S
C231 O214 1.264 . S
C231 O215 1.254 . S
C232 Eu168 2.848 . S
C232 O212 1.257 . S
C232 O217 1.249 . S
C232 C225 1.492 . S
C233 H198 0.931 . S
C233 C211 1.420 . S
C233 C234 1.351 . S
C234 H196 0.930 . S
C234 C202 1.423 . S
C234 C233 1.351 . S
C235 O219 1.276 . S
C235 O222 1.235 . S
C236 C237 1.393 . S
C236 C240 1.395 . S
C236 C243 1.492 . S
C237 C236 1.393 . S
C237 C238 1.392 . S
C237 H248 0.930 . S
C238 C237 1.392 . S
C238 C239 1.386 . S
C239 C238 1.386 . S
C239 C241 1.395 . S
C239 H249 0.930 . S
C240 C236 1.395 . S
C240 C241 1.379 . S
C240 H250 0.930 . S
C241 C239 1.395 . S
C241 C240 1.379 . S
C241 H251 0.930 . S
C242 O220 1.264 . S
C242 O221 1.254 . S
C243 Eu179 2.848 . S
C243 O218 1.257 . S
C243 O223 1.249 . S
C243 C236 1.492 . S
H244 C227 0.930 . S
H245 C228 0.930 . S
H246 C229 0.930 . S
H247 C230 0.930 . S
H248 C237 0.930 . S
H249 C239 0.930 . S
H250 C240 0.930 . S
H251 C241 0.930 . S
Eu252 N283 2.657 . S
Eu252 N290 2.609 . S
Eu252 O296 2.558 . S
Eu252 O297 2.612 . S
Eu252 O299 2.339 . S
Eu252 O300 2.563 . S
Eu252 O301 2.419 . S
Eu252 O303 2.380 . S
Eu252 O304 2.432 . S
Eu252 C316 2.848 . S
C253 C256 1.429 . S
C253 C257 1.411 . S
C253 N260 1.377 . S
C254 C256 1.420 . S
C254 C258 1.423 . S
C254 C266 1.392 . S
C255 C257 1.420 . S
C255 C258 1.351 . S
C255 H278 0.931 . S
C256 C253 1.429 . S
C256 C254 1.420 . S
C256 N264 1.362 . S
C257 C253 1.411 . S
C257 C255 1.420 . S
C257 C262 1.395 . S
C258 C254 1.423 . S
C258 C255 1.351 . S
C258 H270 0.930 . S
C259 C261 1.400 . S
C259 C262 1.386 . S
C259 H271 0.930 . S
N260 C253 1.377 . S
N260 C261 1.321 . S
N260 Eu263 2.609 . S
C261 C259 1.400 . S
C261 N260 1.321 . S
C261 H268 0.930 . S
C262 C257 1.395 . S
C262 C259 1.386 . S
C262 H281 0.930 . S
Eu263 N260 2.609 . S
Eu263 N264 2.657 . S
Eu263 O297 2.380 . S
Eu263 O298 2.432 . S
Eu263 O302 2.558 . S
Eu263 O303 2.612 . S
Eu263 O305 2.339 . S
Eu263 O306 2.563 . S
Eu263 O307 2.419 . S
Eu263 C327 2.848 . S
N264 C256 1.362 . S
N264 Eu263 2.657 . S
N264 C265 1.334 . S
C265 N264 1.334 . S
C265 C267 1.413 . S
C265 H272 0.929 . S
C266 C254 1.392 . S
C266 C267 1.367 . S
C266 H274 0.930 . S
C267 C265 1.413 . S
C267 C266 1.367 . S
C267 H269 0.930 . S
H268 C261 0.930 . S
H269 C267 0.930 . S
H270 C258 0.930 . S
H271 C259 0.930 . S
H272 C265 0.929 . S
H273 C287 0.930 . S
H274 C266 0.930 . S
H275 C293 0.930 . S
H276 C284 0.929 . S
H277 C291 0.930 . S
H278 C255 0.931 . S
H279 C285 0.930 . S
H280 C318 0.930 . S
H281 C262 0.930 . S
H282 C317 0.931 . S
N283 Eu252 2.657 . S
N283 C284 1.334 . S
N283 C288 1.362 . S
C284 H276 0.929 . S
C284 N283 1.334 . S
C284 C287 1.413 . S
C285 H279 0.930 . S
C285 C286 1.392 . S
C285 C287 1.367 . S
C286 C285 1.392 . S
C286 C288 1.420 . S
C286 C318 1.423 . S
C287 H273 0.930 . S
C287 C284 1.413 . S
C287 C285 1.367 . S
C288 N283 1.362 . S
C288 C286 1.420 . S
C288 C292 1.429 . S
H289 C294 0.930 . S
N290 Eu252 2.609 . S
N290 C292 1.377 . S
N290 C293 1.321 . S
C291 H277 0.930 . S
C291 C293 1.400 . S
C291 C294 1.386 . S
C292 C288 1.429 . S
C292 N290 1.377 . S
C292 C295 1.411 . S
C293 H275 0.930 . S
C293 N290 1.321 . S
C293 C291 1.400 . S
C294 H289 0.930 . S
C294 C291 1.386 . S
C294 C295 1.395 . S
C295 C292 1.411 . S
C295 C294 1.395 . S
C295 C317 1.420 . S
O296 Eu252 2.558 . S
O296 C316 1.257 . S
O297 Eu252 2.612 . S
O297 Eu263 2.380 . S
O297 C308 1.276 . S
O298 Eu263 2.432 . S
O298 C315 1.264 . S
O299 Eu252 2.339 . S
O299 C315 1.254 . S
O300 Eu252 2.563 . S
O300 C308 1.235 . S
O301 Eu252 2.419 . S
O301 C316 1.249 . S
O302 Eu263 2.558 . S
O302 C327 1.257 . S
O303 Eu252 2.380 . S
O303 Eu263 2.612 . S
O303 C319 1.276 . S
O304 Eu252 2.432 . S
O304 C326 1.264 . S
O305 Eu263 2.339 . S
O305 C326 1.254 . S
O306 Eu263 2.563 . S
O306 C319 1.235 . S
O307 Eu263 2.419 . S
O307 C327 1.249 . S
C308 O297 1.276 . S
C308 O300 1.235 . S
C309 C311 1.393 . S
C309 C313 1.395 . S
C309 C316 1.492 . S
C310 C311 1.392 . S
C310 C312 1.386 . S
C311 C309 1.393 . S
C311 C310 1.392 . S
C311 H328 0.930 . S
C312 C310 1.386 . S
C312 C314 1.395 . S
C312 H329 0.930 . S
C313 C309 1.395 . S
C313 C314 1.379 . S
C313 H330 0.930 . S
C314 C312 1.395 . S
C314 C313 1.379 . S
C314 H331 0.930 . S
C315 O298 1.264 . S
C315 O299 1.254 . S
C316 Eu252 2.848 . S
C316 O296 1.257 . S
C316 O301 1.249 . S
C316 C309 1.492 . S
C317 H282 0.931 . S
C317 C295 1.420 . S
C317 C318 1.351 . S
C318 H280 0.930 . S
C318 C286 1.423 . S
C318 C317 1.351 . S
C319 O303 1.276 . S
C319 O306 1.235 . S
C320 C321 1.393 . S
C320 C324 1.395 . S
C320 C327 1.492 . S
C321 C320 1.393 . S
C321 C322 1.392 . S
C321 H332 0.930 . S
C322 C321 1.392 . S
C322 C323 1.386 . S
C323 C322 1.386 . S
C323 C325 1.395 . S
C323 H333 0.930 . S
C324 C320 1.395 . S
C324 C325 1.379 . S
C324 H334 0.930 . S
C325 C323 1.395 . S
C325 C324 1.379 . S
C325 H335 0.930 . S
C326 O304 1.264 . S
C326 O305 1.254 . S
C327 Eu263 2.848 . S
C327 O302 1.257 . S
C327 O307 1.249 . S
C327 C320 1.492 . S
H328 C311 0.930 . S
H329 C312 0.930 . S
H330 C313 0.930 . S
H331 C314 0.930 . S
H332 C321 0.930 . S
H333 C323 0.930 . S
H334 C324 0.930 . S
H335 C325 0.930 . S
Eu336 N367 2.657 . S
Eu336 N374 2.609 . S
Eu336 O380 2.558 . S
Eu336 O381 2.612 . S
Eu336 O383 2.339 . S
Eu336 O384 2.563 . S
Eu336 O385 2.419 . S
Eu336 O387 2.380 . S
Eu336 O388 2.432 . S
Eu336 C400 2.848 . S
C337 C340 1.429 . S
C337 C341 1.411 . S
C337 N344 1.377 . S
C338 C340 1.420 . S
C338 C342 1.423 . S
C338 C350 1.392 . S
C339 C341 1.420 . S
C339 C342 1.351 . S
C339 H362 0.931 . S
C340 C337 1.429 . S
C340 C338 1.420 . S
C340 N348 1.362 . S
C341 C337 1.411 . S
C341 C339 1.420 . S
C341 C346 1.395 . S
C342 C338 1.423 . S
C342 C339 1.351 . S
C342 H354 0.930 . S
C343 C345 1.400 . S
C343 C346 1.386 . S
C343 H355 0.930 . S
N344 C337 1.377 . S
N344 C345 1.321 . S
N344 Eu347 2.609 . S
C345 C343 1.400 . S
C345 N344 1.321 . S
C345 H352 0.930 . S
C346 C341 1.395 . S
C346 C343 1.386 . S
C346 H365 0.930 . S
Eu347 N344 2.609 . S
Eu347 N348 2.657 . S
Eu347 O381 2.380 . S
Eu347 O382 2.432 . S
Eu347 O386 2.558 . S
Eu347 O387 2.612 . S
Eu347 O389 2.339 . S
Eu347 O390 2.563 . S
Eu347 O391 2.419 . S
Eu347 C411 2.848 . S
N348 C340 1.362 . S
N348 Eu347 2.657 . S
N348 C349 1.334 . S
C349 N348 1.334 . S
C349 C351 1.413 . S
C349 H356 0.929 . S
C350 C338 1.392 . S
C350 C351 1.367 . S
C350 H358 0.930 . S
C351 C349 1.413 . S
C351 C350 1.367 . S
C351 H353 0.930 . S
H352 C345 0.930 . S
H353 C351 0.930 . S
H354 C342 0.930 . S
H355 C343 0.930 . S
H356 C349 0.929 . S
H357 C371 0.930 . S
H358 C350 0.930 . S
H359 C377 0.930 . S
H360 C368 0.929 . S
H361 C375 0.930 . S
H362 C339 0.931 . S
H363 C369 0.930 . S
H364 C402 0.930 . S
H365 C346 0.930 . S
H366 C401 0.931 . S
N367 Eu336 2.657 . S
N367 C368 1.334 . S
N367 C372 1.362 . S
C368 H360 0.929 . S
C368 N367 1.334 . S
C368 C371 1.413 . S
C369 H363 0.930 . S
C369 C370 1.392 . S
C369 C371 1.367 . S
C370 C369 1.392 . S
C370 C372 1.420 . S
C370 C402 1.423 . S
C371 H357 0.930 . S
C371 C368 1.413 . S
C371 C369 1.367 . S
C372 N367 1.362 . S
C372 C370 1.420 . S
C372 C376 1.429 . S
H373 C378 0.930 . S
N374 Eu336 2.609 . S
N374 C376 1.377 . S
N374 C377 1.321 . S
C375 H361 0.930 . S
C375 C377 1.400 . S
C375 C378 1.386 . S
C376 C372 1.429 . S
C376 N374 1.377 . S
C376 C379 1.411 . S
C377 H359 0.930 . S
C377 N374 1.321 . S
C377 C375 1.400 . S
C378 H373 0.930 . S
C378 C375 1.386 . S
C378 C379 1.395 . S
C379 C376 1.411 . S
C379 C378 1.395 . S
C379 C401 1.420 . S
O380 Eu336 2.558 . S
O380 C400 1.257 . S
O381 Eu336 2.612 . S
O381 Eu347 2.380 . S
O381 C392 1.276 . S
O382 Eu347 2.432 . S
O382 C399 1.264 . S
O383 Eu336 2.339 . S
O383 C399 1.254 . S
O384 Eu336 2.563 . S
O384 C392 1.235 . S
O385 Eu336 2.419 . S
O385 C400 1.249 . S
O386 Eu347 2.558 . S
O386 C411 1.257 . S
O387 Eu336 2.380 . S
O387 Eu347 2.612 . S
O387 C403 1.276 . S
O388 Eu336 2.432 . S
O388 C410 1.264 . S
O389 Eu347 2.339 . S
O389 C410 1.254 . S
O390 Eu347 2.563 . S
O390 C403 1.235 . S
O391 Eu347 2.419 . S
O391 C411 1.249 . S
C392 O381 1.276 . S
C392 O384 1.235 . S
C393 C395 1.393 . S
C393 C397 1.395 . S
C393 C400 1.492 . S
C394 C395 1.392 . S
C394 C396 1.386 . S
C395 C393 1.393 . S
C395 C394 1.392 . S
C395 H412 0.930 . S
C396 C394 1.386 . S
C396 C398 1.395 . S
C396 H413 0.930 . S
C397 C393 1.395 . S
C397 C398 1.379 . S
C397 H414 0.930 . S
C398 C396 1.395 . S
C398 C397 1.379 . S
C398 H415 0.930 . S
C399 O382 1.264 . S
C399 O383 1.254 . S
C400 Eu336 2.848 . S
C400 O380 1.257 . S
C400 O385 1.249 . S
C400 C393 1.492 . S
C401 H366 0.931 . S
C401 C379 1.420 . S
C401 C402 1.351 . S
C402 H364 0.930 . S
C402 C370 1.423 . S
C402 C401 1.351 . S
C403 O387 1.276 . S
C403 O390 1.235 . S
C404 C405 1.393 . S
C404 C408 1.395 . S
C404 C411 1.492 . S
C405 C404 1.393 . S
C405 C406 1.392 . S
C405 H416 0.930 . S
C406 C405 1.392 . S
C406 C407 1.386 . S
C407 C406 1.386 . S
C407 C409 1.395 . S
C407 H417 0.930 . S
C408 C404 1.395 . S
C408 C409 1.379 . S
C408 H418 0.930 . S
C409 C407 1.395 . S
C409 C408 1.379 . S
C409 H419 0.930 . S
C410 O388 1.264 . S
C410 O389 1.254 . S
C411 Eu347 2.848 . S
C411 O386 1.257 . S
C411 O391 1.249 . S
C411 C404 1.492 . S
H412 C395 0.930 . S
H413 C396 0.930 . S
H414 C397 0.930 . S
H415 C398 0.930 . S
H416 C405 0.930 . S
H417 C407 0.930 . S
H418 C408 0.930 . S
H419 C409 0.930 . S
Eu420 N451 2.657 . S
Eu420 N458 2.609 . S
Eu420 O464 2.558 . S
Eu420 O465 2.612 . S
Eu420 O467 2.339 . S
Eu420 O468 2.563 . S
Eu420 O469 2.419 . S
Eu420 O471 2.380 . S
Eu420 O472 2.432 . S
Eu420 C484 2.848 . S
C421 C424 1.429 . S
C421 C425 1.411 . S
C421 N428 1.377 . S
C422 C424 1.420 . S
C422 C426 1.423 . S
C422 C434 1.392 . S
C423 C425 1.420 . S
C423 C426 1.351 . S
C423 H446 0.931 . S
C424 C421 1.429 . S
C424 C422 1.420 . S
C424 N432 1.362 . S
C425 C421 1.411 . S
C425 C423 1.420 . S
C425 C430 1.395 . S
C426 C422 1.423 . S
C426 C423 1.351 . S
C426 H438 0.930 . S
C427 C429 1.400 . S
C427 C430 1.386 . S
C427 H439 0.930 . S
N428 C421 1.377 . S
N428 C429 1.321 . S
N428 Eu431 2.609 . S
C429 C427 1.400 . S
C429 N428 1.321 . S
C429 H436 0.930 . S
C430 C425 1.395 . S
C430 C427 1.386 . S
C430 H449 0.930 . S
Eu431 N428 2.609 . S
Eu431 N432 2.657 . S
Eu431 O465 2.380 . S
Eu431 O466 2.432 . S
Eu431 O470 2.558 . S
Eu431 O471 2.612 . S
Eu431 O473 2.339 . S
Eu431 O474 2.563 . S
Eu431 O475 2.419 . S
Eu431 C495 2.848 . S
N432 C424 1.362 . S
N432 Eu431 2.657 . S
N432 C433 1.334 . S
C433 N432 1.334 . S
C433 C435 1.413 . S
C433 H440 0.929 . S
C434 C422 1.392 . S
C434 C435 1.367 . S
C434 H442 0.930 . S
C435 C433 1.413 . S
C435 C434 1.367 . S
C435 H437 0.930 . S
H436 C429 0.930 . S
H437 C435 0.930 . S
H438 C426 0.930 . S
H439 C427 0.930 . S
H440 C433 0.929 . S
H441 C455 0.930 . S
H442 C434 0.930 . S
H443 C461 0.930 . S
H444 C452 0.929 . S
H445 C459 0.930 . S
H446 C423 0.931 . S
H447 C453 0.930 . S
H448 C486 0.930 . S
H449 C430 0.930 . S
H450 C485 0.931 . S
N451 Eu420 2.657 . S
N451 C452 1.334 . S
N451 C456 1.362 . S
C452 H444 0.929 . S
C452 N451 1.334 . S
C452 C455 1.413 . S
C453 H447 0.930 . S
C453 C454 1.392 . S
C453 C455 1.367 . S
C454 C453 1.392 . S
C454 C456 1.420 . S
C454 C486 1.423 . S
C455 H441 0.930 . S
C455 C452 1.413 . S
C455 C453 1.367 . S
C456 N451 1.362 . S
C456 C454 1.420 . S
C456 C460 1.429 . S
H457 C462 0.930 . S
N458 Eu420 2.609 . S
N458 C460 1.377 . S
N458 C461 1.321 . S
C459 H445 0.930 . S
C459 C461 1.400 . S
C459 C462 1.386 . S
C460 C456 1.429 . S
C460 N458 1.377 . S
C460 C463 1.411 . S
C461 H443 0.930 . S
C461 N458 1.321 . S
C461 C459 1.400 . S
C462 H457 0.930 . S
C462 C459 1.386 . S
C462 C463 1.395 . S
C463 C460 1.411 . S
C463 C462 1.395 . S
C463 C485 1.420 . S
O464 Eu420 2.558 . S
O464 C484 1.257 . S
O465 Eu420 2.612 . S
O465 Eu431 2.380 . S
O465 C476 1.276 . S
O466 Eu431 2.432 . S
O466 C483 1.264 . S
O467 Eu420 2.339 . S
O467 C483 1.254 . S
O468 Eu420 2.563 . S
O468 C476 1.235 . S
O469 Eu420 2.419 . S
O469 C484 1.249 . S
O470 Eu431 2.558 . S
O470 C495 1.257 . S
O471 Eu420 2.380 . S
O471 Eu431 2.612 . S
O471 C487 1.276 . S
O472 Eu420 2.432 . S
O472 C494 1.264 . S
O473 Eu431 2.339 . S
O473 C494 1.254 . S
O474 Eu431 2.563 . S
O474 C487 1.235 . S
O475 Eu431 2.419 . S
O475 C495 1.249 . S
C476 O465 1.276 . S
C476 O468 1.235 . S
C477 C479 1.393 . S
C477 C481 1.395 . S
C477 C484 1.492 . S
C478 C479 1.392 . S
C478 C480 1.386 . S
C479 C477 1.393 . S
C479 C478 1.392 . S
C479 H496 0.930 . S
C480 C478 1.386 . S
C480 C482 1.395 . S
C480 H497 0.930 . S
C481 C477 1.395 . S
C481 C482 1.379 . S
C481 H498 0.930 . S
C482 C480 1.395 . S
C482 C481 1.379 . S
C482 H499 0.930 . S
C483 O466 1.264 . S
C483 O467 1.254 . S
C484 Eu420 2.848 . S
C484 O464 1.257 . S
C484 O469 1.249 . S
C484 C477 1.492 . S
C485 H450 0.931 . S
C485 C463 1.420 . S
C485 C486 1.351 . S
C486 H448 0.930 . S
C486 C454 1.423 . S
C486 C485 1.351 . S
C487 O471 1.276 . S
C487 O474 1.235 . S
C488 C489 1.393 . S
C488 C492 1.395 . S
C488 C495 1.492 . S
C489 C488 1.393 . S
C489 C490 1.392 . S
C489 H500 0.930 . S
C490 C489 1.392 . S
C490 C491 1.386 . S
C491 C490 1.386 . S
C491 C493 1.395 . S
C491 H501 0.930 . S
C492 C488 1.395 . S
C492 C493 1.379 . S
C492 H502 0.930 . S
C493 C491 1.395 . S
C493 C492 1.379 . S
C493 H503 0.930 . S
C494 O472 1.264 . S
C494 O473 1.254 . S
C495 Eu431 2.848 . S
C495 O470 1.257 . S
C495 O475 1.249 . S
C495 C488 1.492 . S
H496 C479 0.930 . S
H497 C480 0.930 . S
H498 C481 0.930 . S
H499 C482 0.930 . S
H500 C489 0.930 . S
H501 C491 0.930 . S
H502 C492 0.930 . S
H503 C493 0.930 . S
Eu504 N535 2.657 . S
Eu504 N542 2.609 . S
Eu504 O548 2.558 . S
Eu504 O549 2.612 . S
Eu504 O551 2.339 . S
Eu504 O552 2.563 . S
Eu504 O553 2.419 . S
Eu504 O555 2.380 . S
Eu504 O556 2.432 . S
Eu504 C568 2.848 . S
C505 C508 1.429 . S
C505 C509 1.411 . S
C505 N512 1.377 . S
C506 C508 1.420 . S
C506 C510 1.423 . S
C506 C518 1.392 . S
C507 C509 1.420 . S
C507 C510 1.351 . S
C507 H530 0.931 . S
C508 C505 1.429 . S
C508 C506 1.420 . S
C508 N516 1.362 . S
C509 C505 1.411 . S
C509 C507 1.420 . S
C509 C514 1.395 . S
C510 C506 1.423 . S
C510 C507 1.351 . S
C510 H522 0.930 . S
C511 C513 1.400 . S
C511 C514 1.386 . S
C511 H523 0.930 . S
N512 C505 1.377 . S
N512 C513 1.321 . S
N512 Eu515 2.609 . S
C513 C511 1.400 . S
C513 N512 1.321 . S
C513 H520 0.930 . S
C514 C509 1.395 . S
C514 C511 1.386 . S
C514 H533 0.930 . S
Eu515 N512 2.609 . S
Eu515 N516 2.657 . S
Eu515 O549 2.380 . S
Eu515 O550 2.432 . S
Eu515 O554 2.558 . S
Eu515 O555 2.612 . S
Eu515 O557 2.339 . S
Eu515 O558 2.563 . S
Eu515 O559 2.419 . S
Eu515 C579 2.848 . S
N516 C508 1.362 . S
N516 Eu515 2.657 . S
N516 C517 1.334 . S
C517 N516 1.334 . S
C517 C519 1.413 . S
C517 H524 0.929 . S
C518 C506 1.392 . S
C518 C519 1.367 . S
C518 H526 0.930 . S
C519 C517 1.413 . S
C519 C518 1.367 . S
C519 H521 0.930 . S
H520 C513 0.930 . S
H521 C519 0.930 . S
H522 C510 0.930 . S
H523 C511 0.930 . S
H524 C517 0.929 . S
H525 C539 0.930 . S
H526 C518 0.930 . S
H527 C545 0.930 . S
H528 C536 0.929 . S
H529 C543 0.930 . S
H530 C507 0.931 . S
H531 C537 0.930 . S
H532 C570 0.930 . S
H533 C514 0.930 . S
H534 C569 0.931 . S
N535 Eu504 2.657 . S
N535 C536 1.334 . S
N535 C540 1.362 . S
C536 H528 0.929 . S
C536 N535 1.334 . S
C536 C539 1.413 . S
C537 H531 0.930 . S
C537 C538 1.392 . S
C537 C539 1.367 . S
C538 C537 1.392 . S
C538 C540 1.420 . S
C538 C570 1.423 . S
C539 H525 0.930 . S
C539 C536 1.413 . S
C539 C537 1.367 . S
C540 N535 1.362 . S
C540 C538 1.420 . S
C540 C544 1.429 . S
H541 C546 0.930 . S
N542 Eu504 2.609 . S
N542 C544 1.377 . S
N542 C545 1.321 . S
C543 H529 0.930 . S
C543 C545 1.400 . S
C543 C546 1.386 . S
C544 C540 1.429 . S
C544 N542 1.377 . S
C544 C547 1.411 . S
C545 H527 0.930 . S
C545 N542 1.321 . S
C545 C543 1.400 . S
C546 H541 0.930 . S
C546 C543 1.386 . S
C546 C547 1.395 . S
C547 C544 1.411 . S
C547 C546 1.395 . S
C547 C569 1.420 . S
O548 Eu504 2.558 . S
O548 C568 1.257 . S
O549 Eu504 2.612 . S
O549 Eu515 2.380 . S
O549 C560 1.276 . S
O550 Eu515 2.432 . S
O550 C567 1.264 . S
O551 Eu504 2.339 . S
O551 C567 1.254 . S
O552 Eu504 2.563 . S
O552 C560 1.235 . S
O553 Eu504 2.419 . S
O553 C568 1.249 . S
O554 Eu515 2.558 . S
O554 C579 1.257 . S
O555 Eu504 2.380 . S
O555 Eu515 2.612 . S
O555 C571 1.276 . S
O556 Eu504 2.432 . S
O556 C578 1.264 . S
O557 Eu515 2.339 . S
O557 C578 1.254 . S
O558 Eu515 2.563 . S
O558 C571 1.235 . S
O559 Eu515 2.419 . S
O559 C579 1.249 . S
C560 O549 1.276 . S
C560 O552 1.235 . S
C561 C563 1.393 . S
C561 C565 1.395 . S
C561 C568 1.492 . S
C562 C563 1.392 . S
C562 C564 1.386 . S
C563 C561 1.393 . S
C563 C562 1.392 . S
C563 H580 0.930 . S
C564 C562 1.386 . S
C564 C566 1.395 . S
C564 H581 0.930 . S
C565 C561 1.395 . S
C565 C566 1.379 . S
C565 H582 0.930 . S
C566 C564 1.395 . S
C566 C565 1.379 . S
C566 H583 0.930 . S
C567 O550 1.264 . S
C567 O551 1.254 . S
C568 Eu504 2.848 . S
C568 O548 1.257 . S
C568 O553 1.249 . S
C568 C561 1.492 . S
C569 H534 0.931 . S
C569 C547 1.420 . S
C569 C570 1.351 . S
C570 H532 0.930 . S
C570 C538 1.423 . S
C570 C569 1.351 . S
C571 O555 1.276 . S
C571 O558 1.235 . S
C572 C573 1.393 . S
C572 C576 1.395 . S
C572 C579 1.492 . S
C573 C572 1.393 . S
C573 C574 1.392 . S
C573 H584 0.930 . S
C574 C573 1.392 . S
C574 C575 1.386 . S
C575 C574 1.386 . S
C575 C577 1.395 . S
C575 H585 0.930 . S
C576 C572 1.395 . S
C576 C577 1.379 . S
C576 H586 0.930 . S
C577 C575 1.395 . S
C577 C576 1.379 . S
C577 H587 0.930 . S
C578 O556 1.264 . S
C578 O557 1.254 . S
C579 Eu515 2.848 . S
C579 O554 1.257 . S
C579 O559 1.249 . S
C579 C572 1.492 . S
H580 C563 0.930 . S
H581 C564 0.930 . S
H582 C565 0.930 . S
H583 C566 0.930 . S
H584 C573 0.930 . S
H585 C575 0.930 . S
H586 C576 0.930 . S
H587 C577 0.930 . S
Eu588 N619 2.657 . S
Eu588 N626 2.609 . S
Eu588 O632 2.558 . S
Eu588 O633 2.612 . S
Eu588 O635 2.339 . S
Eu588 O636 2.563 . S
Eu588 O637 2.419 . S
Eu588 O639 2.380 . S
Eu588 O640 2.432 . S
Eu588 C652 2.848 . S
C589 C592 1.429 . S
C589 C593 1.411 . S
C589 N596 1.377 . S
C590 C592 1.420 . S
C590 C594 1.423 . S
C590 C602 1.392 . S
C591 C593 1.420 . S
C591 C594 1.351 . S
C591 H614 0.931 . S
C592 C589 1.429 . S
C592 C590 1.420 . S
C592 N600 1.362 . S
C593 C589 1.411 . S
C593 C591 1.420 . S
C593 C598 1.395 . S
C594 C590 1.423 . S
C594 C591 1.351 . S
C594 H606 0.930 . S
C595 C597 1.400 . S
C595 C598 1.386 . S
C595 H607 0.930 . S
N596 C589 1.377 . S
N596 C597 1.321 . S
N596 Eu599 2.609 . S
C597 C595 1.400 . S
C597 N596 1.321 . S
C597 H604 0.930 . S
C598 C593 1.395 . S
C598 C595 1.386 . S
C598 H617 0.930 . S
Eu599 N596 2.609 . S
Eu599 N600 2.657 . S
Eu599 O633 2.380 . S
Eu599 O634 2.432 . S
Eu599 O638 2.558 . S
Eu599 O639 2.612 . S
Eu599 O641 2.339 . S
Eu599 O642 2.563 . S
Eu599 O643 2.419 . S
Eu599 C663 2.848 . S
N600 C592 1.362 . S
N600 Eu599 2.657 . S
N600 C601 1.334 . S
C601 N600 1.334 . S
C601 C603 1.413 . S
C601 H608 0.929 . S
C602 C590 1.392 . S
C602 C603 1.367 . S
C602 H610 0.930 . S
C603 C601 1.413 . S
C603 C602 1.367 . S
C603 H605 0.930 . S
H604 C597 0.930 . S
H605 C603 0.930 . S
H606 C594 0.930 . S
H607 C595 0.930 . S
H608 C601 0.929 . S
H609 C623 0.930 . S
H610 C602 0.930 . S
H611 C629 0.930 . S
H612 C620 0.929 . S
H613 C627 0.930 . S
H614 C591 0.931 . S
H615 C621 0.930 . S
H616 C654 0.930 . S
H617 C598 0.930 . S
H618 C653 0.931 . S
N619 Eu588 2.657 . S
N619 C620 1.334 . S
N619 C624 1.362 . S
C620 H612 0.929 . S
C620 N619 1.334 . S
C620 C623 1.413 . S
C621 H615 0.930 . S
C621 C622 1.392 . S
C621 C623 1.367 . S
C622 C621 1.392 . S
C622 C624 1.420 . S
C622 C654 1.423 . S
C623 H609 0.930 . S
C623 C620 1.413 . S
C623 C621 1.367 . S
C624 N619 1.362 . S
C624 C622 1.420 . S
C624 C628 1.429 . S
H625 C630 0.930 . S
N626 Eu588 2.609 . S
N626 C628 1.377 . S
N626 C629 1.321 . S
C627 H613 0.930 . S
C627 C629 1.400 . S
C627 C630 1.386 . S
C628 C624 1.429 . S
C628 N626 1.377 . S
C628 C631 1.411 . S
C629 H611 0.930 . S
C629 N626 1.321 . S
C629 C627 1.400 . S
C630 H625 0.930 . S
C630 C627 1.386 . S
C630 C631 1.395 . S
C631 C628 1.411 . S
C631 C630 1.395 . S
C631 C653 1.420 . S
O632 Eu588 2.558 . S
O632 C652 1.257 . S
O633 Eu588 2.612 . S
O633 Eu599 2.380 . S
O633 C644 1.276 . S
O634 Eu599 2.432 . S
O634 C651 1.264 . S
O635 Eu588 2.339 . S
O635 C651 1.254 . S
O636 Eu588 2.563 . S
O636 C644 1.235 . S
O637 Eu588 2.419 . S
O637 C652 1.249 . S
O638 Eu599 2.558 . S
O638 C663 1.257 . S
O639 Eu588 2.380 . S
O639 Eu599 2.612 . S
O639 C655 1.276 . S
O640 Eu588 2.432 . S
O640 C662 1.264 . S
O641 Eu599 2.339 . S
O641 C662 1.254 . S
O642 Eu599 2.563 . S
O642 C655 1.235 . S
O643 Eu599 2.419 . S
O643 C663 1.249 . S
C644 O633 1.276 . S
C644 O636 1.235 . S
C645 C647 1.393 . S
C645 C649 1.395 . S
C645 C652 1.492 . S
C646 C647 1.392 . S
C646 C648 1.386 . S
C647 C645 1.393 . S
C647 C646 1.392 . S
C647 H664 0.930 . S
C648 C646 1.386 . S
C648 C650 1.395 . S
C648 H665 0.930 . S
C649 C645 1.395 . S
C649 C650 1.379 . S
C649 H666 0.930 . S
C650 C648 1.395 . S
C650 C649 1.379 . S
C650 H667 0.930 . S
C651 O634 1.264 . S
C651 O635 1.254 . S
C652 Eu588 2.848 . S
C652 O632 1.257 . S
C652 O637 1.249 . S
C652 C645 1.492 . S
C653 H618 0.931 . S
C653 C631 1.420 . S
C653 C654 1.351 . S
C654 H616 0.930 . S
C654 C622 1.423 . S
C654 C653 1.351 . S
C655 O639 1.276 . S
C655 O642 1.235 . S
C656 C657 1.393 . S
C656 C660 1.395 . S
C656 C663 1.492 . S
C657 C656 1.393 . S
C657 C658 1.392 . S
C657 H668 0.930 . S
C658 C657 1.392 . S
C658 C659 1.386 . S
C659 C658 1.386 . S
C659 C661 1.395 . S
C659 H669 0.930 . S
C660 C656 1.395 . S
C660 C661 1.379 . S
C660 H670 0.930 . S
C661 C659 1.395 . S
C661 C660 1.379 . S
C661 H671 0.930 . S
C662 O640 1.264 . S
C662 O641 1.254 . S
C663 Eu599 2.848 . S
C663 O638 1.257 . S
C663 O643 1.249 . S
C663 C656 1.492 . S
H664 C647 0.930 . S
H665 C648 0.930 . S
H666 C649 0.930 . S
H667 C650 0.930 . S
H668 C657 0.930 . S
H669 C659 0.930 . S
H670 C660 0.930 . S
H671 C661 0.930 . S
Fe672 O673 1.886 1_455 S
Fe672 O676 1.715 . S
Fe672 O681 2.077 1_455 S
Fe672 O686 1.935 . S
Fe672 O692 2.077 1_455 S
Fe672 O701 1.935 . S
O673 Fe672 1.886 1_655 S
O673 Fe675 1.715 1_545 S
Fe674 O676 1.886 . S
Fe674 O677 1.715 1_545 S
Fe674 O684 1.935 1_545 S
Fe674 O685 2.077 . S
Fe674 O691 1.935 1_545 S
Fe674 O700 2.077 . S
Fe675 O673 1.715 1_565 S
Fe675 O678 1.886 . S
Fe675 O682 1.935 1_565 S
Fe675 O687 2.077 . S
Fe675 O693 1.935 1_565 S
Fe675 O697 2.077 . S
O676 Fe672 1.715 . S
O676 Fe674 1.886 . S
O677 Fe674 1.715 1_565 S
O677 Fe679 1.886 1_455 S
O678 Fe675 1.886 . S
O678 Fe679 1.715 . S
Fe679 O677 1.886 1_655 S
Fe679 O678 1.715 . S
Fe679 O683 2.077 1_655 S
Fe679 O688 1.935 . S
Fe679 O690 2.077 1_655 S
Fe679 O698 1.935 . S
C680 O692 1.381 . S
C680 O693 1.421 . S
O681 Fe672 2.077 1_655 S
O681 C694 1.381 . S
O682 Fe675 1.935 1_545 S
O682 C694 1.421 . S
O683 Fe679 2.077 1_455 S
O683 C699 1.381 . S
O684 Fe674 1.935 1_565 S
O684 C699 1.421 . S
O685 Fe674 2.077 . S
O685 C689 1.381 . S
O686 Fe672 1.935 . S
O686 C689 1.421 . S
O687 Fe675 2.077 . S
O687 C695 1.381 . S
O688 Fe679 1.935 . S
O688 C695 1.421 . S
C689 O685 1.381 . S
C689 O686 1.421 . S
O690 Fe679 2.077 1_455 S
O690 C702 1.381 . S
O691 Fe674 1.935 1_565 S
O691 C702 1.421 . S
O692 Fe672 2.077 1_655 S
O692 C680 1.381 . S
O693 Fe675 1.935 1_545 S
O693 C680 1.421 . S
C694 O681 1.381 . S
C694 O682 1.421 . S
C695 O687 1.381 . S
C695 O688 1.421 . S
C696 O697 1.381 . S
C696 O698 1.421 . S
O697 Fe675 2.077 . S
O697 C696 1.381 . S
O698 Fe679 1.935 . S
O698 C696 1.421 . S
C699 O683 1.381 . S
C699 O684 1.421 . S
O700 Fe674 2.077 . S
O700 C703 1.381 . S
O701 Fe672 1.935 . S
O701 C703 1.421 . S
C702 O690 1.381 . S
C702 O691 1.421 . S
C703 O700 1.381 . S
C703 O701 1.421 . S
Fe704 O705 1.886 . S
Fe704 O708 1.714 . S
Fe704 O713 2.077 1_554 S
Fe704 O718 1.935 1_554 S
Fe704 O724 2.077 . S
Fe704 O733 1.935 . S
O705 Fe704 1.886 . S
O705 Fe707 1.715 1_565 S
Fe706 O708 1.886 1_556 S
Fe706 O709 1.715 1_565 S
Fe706 O716 1.935 1_565 S
Fe706 O717 2.077 . S
Fe706 O723 1.935 1_566 S
Fe706 O732 2.077 1_556 S
Fe707 O705 1.715 1_545 S
Fe707 O710 1.886 1_554 S
Fe707 O714 1.935 1_544 S
Fe707 O719 2.077 1_554 S
Fe707 O725 1.935 1_545 S
Fe707 O729 2.077 . S
O708 Fe704 1.714 . S
O708 Fe706 1.886 1_554 S
O709 Fe706 1.715 1_545 S
O709 Fe711 1.886 . S
O710 Fe707 1.886 1_556 S
O710 Fe711 1.715 . S
Fe711 O709 1.886 . S
Fe711 O710 1.715 . S
Fe711 O715 2.077 . S
Fe711 O720 1.935 . S
Fe711 O722 2.077 1_556 S
Fe711 O730 1.935 1_556 S
C712 O724 1.381 . S
C712 O725 1.421 . S
O713 Fe704 2.077 1_556 S
O713 C726 1.381 . S
O714 Fe707 1.935 1_566 S
O714 C726 1.421 . S
O715 Fe711 2.077 . S
O715 C731 1.381 . S
O716 Fe706 1.935 1_545 S
O716 C731 1.421 . S
O717 Fe706 2.077 . S
O717 C721 1.381 . S
O718 Fe704 1.935 1_556 S
O718 C721 1.421 . S
O719 Fe707 2.077 1_556 S
O719 C727 1.381 . S
O720 Fe711 1.935 . S
O720 C727 1.421 . S
C721 O717 1.381 . S
C721 O718 1.421 . S
O722 Fe711 2.077 1_554 S
O722 C734 1.381 . S
O723 Fe706 1.935 1_544 S
O723 C734 1.421 . S
O724 Fe704 2.077 . S
O724 C712 1.381 . S
O725 Fe707 1.935 1_565 S
O725 C712 1.421 . S
C726 O713 1.381 . S
C726 O714 1.421 . S
C727 O719 1.381 . S
C727 O720 1.421 . S
C728 O729 1.381 . S
C728 O730 1.421 . S
O729 Fe707 2.077 . S
O729 C728 1.381 . S
O730 Fe711 1.935 1_554 S
O730 C728 1.421 . S
C731 O715 1.381 . S
C731 O716 1.421 . S
O732 Fe706 2.077 1_554 S
O732 C735 1.381 . S
O733 Fe704 1.935 . S
O733 C735 1.421 . S
C734 O722 1.381 . S
C734 O723 1.421 . S
C735 O732 1.381 . S
C735 O733 1.421 . S
Fe736 O737 1.886 1_455 S
Fe736 O740 1.715 . S
Fe736 O745 2.077 1_455 S
Fe736 O750 1.935 . S
Fe736 O756 2.077 1_456 S
Fe736 O765 1.935 1_556 S
O737 Fe736 1.886 1_655 S
O737 Fe739 1.715 . S
Fe738 O740 1.886 1_554 S
Fe738 O741 1.715 . S
Fe738 O748 1.935 1_554 S
Fe738 O749 2.077 1_554 S
Fe738 O755 1.935 . S
Fe738 O764 2.077 . S
Fe739 O737 1.715 . S
Fe739 O742 1.886 1_556 S
Fe739 O746 1.935 . S
Fe739 O751 2.077 . S
Fe739 O757 1.935 1_556 S
Fe739 O761 2.077 1_556 S
O740 Fe736 1.715 . S
O740 Fe738 1.886 1_556 S
O741 Fe738 1.715 . S
O741 Fe743 1.886 1_455 S
O742 Fe739 1.886 1_554 S
O742 Fe743 1.714 . S
Fe743 O741 1.886 1_655 S
Fe743 O742 1.714 . S
Fe743 O747 2.077 1_654 S
Fe743 O752 1.935 1_554 S
Fe743 O754 2.077 1_655 S
Fe743 O762 1.935 . S
C744 O756 1.381 . S
C744 O757 1.421 . S
O745 Fe736 2.077 1_655 S
O745 C758 1.381 . S
O746 Fe739 1.935 . S
O746 C758 1.421 . S
O747 Fe743 2.077 1_456 S
O747 C763 1.381 . S
O748 Fe738 1.935 1_556 S
O748 C763 1.421 . S
O749 Fe738 2.077 1_556 S
O749 C753 1.381 . S
O750 Fe736 1.935 . S
O750 C753 1.421 . S
O751 Fe739 2.077 . S
O751 C759 1.381 . S
O752 Fe743 1.935 1_556 S
O752 C759 1.421 . S
C753 O749 1.381 . S
C753 O750 1.421 . S
O754 Fe743 2.077 1_455 S
O754 C766 1.381 . S
O755 Fe738 1.935 . S
O755 C766 1.421 . S
O756 Fe736 2.077 1_654 S
O756 C744 1.381 . S
O757 Fe739 1.935 1_554 S
O757 C744 1.421 . S
C758 O745 1.381 . S
C758 O746 1.421 . S
C759 O751 1.381 . S
C759 O752 1.421 . S
C760 O761 1.381 . S
C760 O762 1.421 . S
O761 Fe739 2.077 1_554 S
O761 C760 1.381 . S
O762 Fe743 1.935 . S
O762 C760 1.421 . S
C763 O747 1.381 . S
C763 O748 1.421 . S
O764 Fe738 2.077 . S
O764 C767 1.381 . S
O765 Fe736 1.935 1_554 S
O765 C767 1.421 . S
C766 O754 1.381 . S
C766 O755 1.421 . S
C767 O764 1.381 . S
C767 O765 1.421 . S
Fe768 O769 1.886 . S
Fe768 O772 1.715 . S
Fe768 O777 2.077 . S
Fe768 O782 1.935 . S
Fe768 O788 2.077 . S
Fe768 O797 1.935 . S
O769 Fe768 1.886 . S
O769 Fe771 1.715 1_556 S
Fe770 O772 1.886 . S
Fe770 O773 1.715 1_556 S
Fe770 O780 1.935 1_556 S
Fe770 O781 2.077 . S
Fe770 O787 1.935 1_556 S
Fe770 O796 2.077 . S
Fe771 O769 1.715 1_554 S
Fe771 O774 1.886 . S
Fe771 O778 1.935 1_554 S
Fe771 O783 2.077 . S
Fe771 O789 1.935 1_554 S
Fe771 O793 2.077 . S
O772 Fe768 1.715 . S
O772 Fe770 1.886 . S
O773 Fe770 1.715 1_554 S
O773 Fe775 1.886 . S
O774 Fe771 1.886 . S
O774 Fe775 1.715 . S
Fe775 O773 1.886 . S
Fe775 O774 1.715 . S
Fe775 O779 2.077 . S
Fe775 O784 1.935 . S
Fe775 O786 2.077 . S
Fe775 O794 1.935 . S
C776 O788 1.381 . S
C776 O789 1.421 . S
O777 Fe768 2.077 . S
O777 C790 1.381 . S
O778 Fe771 1.935 1_556 S
O778 C790 1.421 . S
O779 Fe775 2.077 . S
O779 C795 1.381 . S
O780 Fe770 1.935 1_554 S
O780 C795 1.421 . S
O781 Fe770 2.077 . S
O781 C785 1.381 . S
O782 Fe768 1.935 . S
O782 C785 1.421 . S
O783 Fe771 2.077 . S
O783 C791 1.381 . S
O784 Fe775 1.935 . S
O784 C791 1.421 . S
C785 O781 1.381 . S
C785 O782 1.421 . S
O786 Fe775 2.077 . S
O786 C798 1.381 . S
O787 Fe770 1.935 1_554 S
O787 C798 1.421 . S
O788 Fe768 2.077 . S
O788 C776 1.381 . S
O789 Fe771 1.935 1_556 S
O789 C776 1.421 . S
C790 O777 1.381 . S
C790 O778 1.421 . S
C791 O783 1.381 . S
C791 O784 1.421 . S
C792 O793 1.381 . S
C792 O794 1.421 . S
O793 Fe771 2.077 . S
O793 C792 1.381 . S
O794 Fe775 1.935 . S
O794 C792 1.421 . S
C795 O779 1.381 . S
C795 O780 1.421 . S
O796 Fe770 2.077 . S
O796 C799 1.381 . S
O797 Fe768 1.935 . S
O797 C799 1.421 . S
C798 O786 1.381 . S
C798 O787 1.421 . S
C799 O796 1.381 . S
C799 O797 1.421 . S
Fe800 O801 1.886 . S
Fe800 O804 1.715 . S
Fe800 O809 2.077 1_655 S
Fe800 O814 1.935 1_655 S
Fe800 O820 2.077 . S
Fe800 O829 1.935 . S
O801 Fe800 1.886 . S
O801 Fe803 1.715 1_655 S
Fe802 O804 1.886 . S
Fe802 O805 1.715 1_655 S
Fe802 O812 1.935 1_655 S
Fe802 O813 2.077 1_655 S
Fe802 O819 1.935 . S
Fe802 O828 2.077 . S
Fe803 O801 1.715 1_455 S
Fe803 O806 1.886 . S
Fe803 O810 1.935 . S
Fe803 O815 2.077 . S
Fe803 O821 1.935 1_455 S
Fe803 O825 2.077 1_455 S
O804 Fe800 1.715 . S
O804 Fe802 1.886 . S
O805 Fe802 1.715 1_455 S
O805 Fe807 1.886 . S
O806 Fe803 1.886 . S
O806 Fe807 1.715 . S
Fe807 O805 1.886 . S
Fe807 O806 1.715 . S
Fe807 O811 2.077 . S
Fe807 O816 1.935 . S
Fe807 O818 2.077 1_455 S
Fe807 O826 1.935 1_455 S
C808 O820 1.381 . S
C808 O821 1.421 . S
O809 Fe800 2.077 1_455 S
O809 C822 1.381 . S
O810 Fe803 1.935 . S
O810 C822 1.421 . S
O811 Fe807 2.077 . S
O811 C827 1.381 . S
O812 Fe802 1.935 1_455 S
O812 C827 1.421 . S
O813 Fe802 2.077 1_455 S
O813 C817 1.381 . S
O814 Fe800 1.935 1_455 S
O814 C817 1.421 . S
O815 Fe803 2.077 . S
O815 C823 1.381 . S
O816 Fe807 1.935 . S
O816 C823 1.421 . S
C817 O813 1.381 . S
C817 O814 1.421 . S
O818 Fe807 2.077 1_655 S
O818 C830 1.381 . S
O819 Fe802 1.935 . S
O819 C830 1.421 . S
O820 Fe800 2.077 . S
O820 C808 1.381 . S
O821 Fe803 1.935 1_655 S
O821 C808 1.421 . S
C822 O809 1.381 . S
C822 O810 1.421 . S
C823 O815 1.381 . S
C823 O816 1.421 . S
C824 O825 1.381 . S
C824 O826 1.421 . S
O825 Fe803 2.077 1_655 S
O825 C824 1.381 . S
O826 Fe807 1.935 1_655 S
O826 C824 1.421 . S
C827 O811 1.381 . S
C827 O812 1.421 . S
O828 Fe802 2.077 . S
O828 C831 1.381 . S
O829 Fe800 1.935 . S
O829 C831 1.421 . S
C830 O818 1.381 . S
C830 O819 1.421 . S
C831 O828 1.381 . S
C831 O829 1.421 . S
Fe832 O833 1.886 . S
Fe832 O836 1.715 . S
Fe832 O841 2.077 . S
Fe832 O846 1.935 . S
Fe832 O852 2.077 . S
Fe832 O861 1.935 . S
O833 Fe832 1.886 . S
O833 Fe835 1.715 . S
Fe834 O836 1.886 1_545 S
Fe834 O837 1.715 . S
Fe834 O844 1.935 . S
Fe834 O845 2.077 1_545 S
Fe834 O851 1.935 . S
Fe834 O860 2.077 1_545 S
Fe835 O833 1.715 . S
Fe835 O838 1.886 1_565 S
Fe835 O842 1.935 . S
Fe835 O847 2.077 1_565 S
Fe835 O853 1.935 . S
Fe835 O857 2.077 1_565 S
O836 Fe832 1.715 . S
O836 Fe834 1.886 1_565 S
O837 Fe834 1.715 . S
O837 Fe839 1.886 . S
O838 Fe835 1.886 1_545 S
O838 Fe839 1.715 . S
Fe839 O837 1.886 . S
Fe839 O838 1.715 . S
Fe839 O843 2.077 . S
Fe839 O848 1.935 . S
Fe839 O850 2.077 . S
Fe839 O858 1.935 . S
C840 O852 1.381 . S
C840 O853 1.421 . S
O841 Fe832 2.077 . S
O841 C854 1.381 . S
O842 Fe835 1.935 . S
O842 C854 1.421 . S
O843 Fe839 2.077 . S
O843 C859 1.381 . S
O844 Fe834 1.935 . S
O844 C859 1.421 . S
O845 Fe834 2.077 1_565 S
O845 C849 1.381 . S
O846 Fe832 1.935 . S
O846 C849 1.421 . S
O847 Fe835 2.077 1_545 S
O847 C855 1.381 . S
O848 Fe839 1.935 . S
O848 C855 1.421 . S
C849 O845 1.381 . S
C849 O846 1.421 . S
O850 Fe839 2.077 . S
O850 C862 1.381 . S
O851 Fe834 1.935 . S
O851 C862 1.421 . S
O852 Fe832 2.077 . S
O852 C840 1.381 . S
O853 Fe835 1.935 . S
O853 C840 1.421 . S
C854 O841 1.381 . S
C854 O842 1.421 . S
C855 O847 1.381 . S
C855 O848 1.421 . S
C856 O857 1.381 . S
C856 O858 1.421 . S
O857 Fe835 2.077 1_545 S
O857 C856 1.381 . S
O858 Fe839 1.935 . S
O858 C856 1.421 . S
C859 O843 1.381 . S
C859 O844 1.421 . S
O860 Fe834 2.077 1_565 S
O860 C863 1.381 . S
O861 Fe832 1.935 . S
O861 C863 1.421 . S
C862 O850 1.381 . S
C862 O851 1.421 . S
C863 O860 1.381 . S
C863 O861 1.421 . S
H864 C872 0.950 . S
H865 C877 0.950 . S
H866 C874 0.950 . S
H867 C876 0.950 . S
H868 C878 0.950 . S
H869 C880 0.950 . S
H870 C882 0.950 . S
H871 C883 0.950 . S
C872 H864 0.950 . S
C872 C873 1.386 . S
C872 C874 1.391 . S
C873 C872 1.386 . S
C873 C877 1.393 . S
C874 H866 0.950 . S
C874 C872 1.391 . S
C874 C875 1.400 . S
C875 C874 1.400 . S
C875 C876 1.398 . S
C875 C881 1.491 . S
C876 H867 0.950 . S
C876 C875 1.398 . S
C876 C877 1.391 . S
C877 H865 0.950 . S
C877 C873 1.393 . S
C877 C876 1.391 . S
C878 H868 0.950 . S
C878 C879 1.386 . S
C878 C880 1.391 . S
C879 C878 1.386 . S
C879 C883 1.393 . S
C880 H869 0.950 . S
C880 C878 1.391 . S
C880 C881 1.400 . S
C881 C875 1.491 . S
C881 C880 1.400 . S
C881 C882 1.398 . S
C882 H870 0.950 . S
C882 C881 1.398 . S
C882 C883 1.391 . S
C883 H871 0.950 . S
C883 C879 1.393 . S
C883 C882 1.391 . S
H884 C892 0.950 . S
H885 C897 0.950 . S
H886 C894 0.950 . S
H887 C896 0.950 . S
H888 C898 0.950 . S
H889 C900 0.950 . S
H890 C902 0.950 . S
H891 C903 0.950 . S
C892 H884 0.950 . S
C892 C893 1.386 . S
C892 C894 1.391 . S
C893 C892 1.386 . S
C893 C897 1.393 . S
C894 H886 0.950 . S
C894 C892 1.391 . S
C894 C895 1.400 . S
C895 C894 1.400 . S
C895 C896 1.398 . S
C895 C901 1.491 . S
C896 H887 0.950 . S
C896 C895 1.398 . S
C896 C897 1.391 . S
C897 H885 0.950 . S
C897 C893 1.393 . S
C897 C896 1.391 . S
C898 H888 0.950 . S
C898 C899 1.386 . S
C898 C900 1.391 . S
C899 C898 1.386 . S
C899 C903 1.393 . S
C900 H889 0.950 . S
C900 C898 1.391 . S
C900 C901 1.400 . S
C901 C895 1.491 . S
C901 C900 1.400 . S
C901 C902 1.398 . S
C902 H890 0.950 . S
C902 C901 1.398 . S
C902 C903 1.391 . S
C903 H891 0.950 . S
C903 C899 1.393 . S
C903 C902 1.391 . S
H904 C912 0.950 . S
H905 C917 0.950 . S
H906 C914 0.950 . S
H907 C916 0.950 . S
H908 C918 0.950 . S
H909 C920 0.950 . S
H910 C922 0.950 . S
H911 C923 0.950 . S
C912 H904 0.950 . S
C912 C913 1.386 . S
C912 C914 1.391 . S
C913 C912 1.386 . S
C913 C917 1.393 . S
C914 H906 0.950 . S
C914 C912 1.391 . S
C914 C915 1.400 . S
C915 C914 1.400 . S
C915 C916 1.398 . S
C915 C921 1.491 . S
C916 H907 0.950 . S
C916 C915 1.398 . S
C916 C917 1.391 . S
C917 H905 0.950 . S
C917 C913 1.393 . S
C917 C916 1.391 . S
C918 H908 0.950 . S
C918 C919 1.386 . S
C918 C920 1.391 . S
C919 C918 1.386 . S
C919 C923 1.393 . S
C920 H909 0.950 . S
C920 C918 1.391 . S
C920 C921 1.400 . S
C921 C915 1.491 . S
C921 C920 1.400 . S
C921 C922 1.398 . S
C922 H910 0.950 . S
C922 C921 1.398 . S
C922 C923 1.391 . S
C923 H911 0.950 . S
C923 C919 1.393 . S
C923 C922 1.391 . S
H924 C932 0.950 . S
H925 C937 0.950 . S
H926 C934 0.950 . S
H927 C936 0.950 . S
H928 C938 0.950 . S
H929 C940 0.950 . S
H930 C942 0.950 . S
H931 C943 0.950 . S
C932 H924 0.950 . S
C932 C933 1.386 . S
C932 C934 1.391 . S
C933 C932 1.386 . S
C933 C937 1.393 . S
C934 H926 0.950 . S
C934 C932 1.391 . S
C934 C935 1.400 . S
C935 C934 1.400 . S
C935 C936 1.398 . S
C935 C941 1.491 . S
C936 H927 0.950 . S
C936 C935 1.398 . S
C936 C937 1.391 . S
C937 H925 0.950 . S
C937 C933 1.393 . S
C937 C936 1.391 . S
C938 H928 0.950 . S
C938 C939 1.386 . S
C938 C940 1.391 . S
C939 C938 1.386 . S
C939 C943 1.393 . S
C940 H929 0.950 . S
C940 C938 1.391 . S
C940 C941 1.400 . S
C941 C935 1.491 . S
C941 C940 1.400 . S
C941 C942 1.398 . S
C942 H930 0.950 . S
C942 C941 1.398 . S
C942 C943 1.391 . S
C943 H931 0.950 . S
C943 C939 1.393 . S
C943 C942 1.391 . S
H944 C952 0.950 . S
H945 C957 0.950 . S
H946 C954 0.950 . S
H947 C956 0.950 . S
H948 C958 0.950 . S
H949 C960 0.950 . S
H950 C962 0.950 . S
H951 C963 0.950 . S
C952 H944 0.950 . S
C952 C953 1.386 . S
C952 C954 1.391 . S
C953 C952 1.386 . S
C953 C957 1.393 . S
C954 H946 0.950 . S
C954 C952 1.391 . S
C954 C955 1.400 . S
C955 C954 1.400 . S
C955 C956 1.398 . S
C955 C961 1.491 . S
C956 H947 0.950 . S
C956 C955 1.398 . S
C956 C957 1.391 . S
C957 H945 0.950 . S
C957 C953 1.393 . S
C957 C956 1.391 . S
C958 H948 0.950 . S
C958 C959 1.386 . S
C958 C960 1.391 . S
C959 C958 1.386 . S
C959 C963 1.393 . S
C960 H949 0.950 . S
C960 C958 1.391 . S
C960 C961 1.400 . S
C961 C955 1.491 . S
C961 C960 1.400 . S
C961 C962 1.398 . S
C962 H950 0.950 . S
C962 C961 1.398 . S
C962 C963 1.391 . S
C963 H951 0.950 . S
C963 C959 1.393 . S
C963 C962 1.391 . S
H964 C972 0.950 . S
H965 C977 0.950 . S
H966 C974 0.950 . S
H967 C976 0.950 . S
H968 C978 0.950 . S
H969 C980 0.950 . S
H970 C982 0.950 . S
H971 C983 0.950 . S
C972 H964 0.950 . S
C972 C973 1.386 . S
C972 C974 1.391 . S
C973 C972 1.386 . S
C973 C977 1.393 . S
C974 H966 0.950 . S
C974 C972 1.391 . S
C974 C975 1.400 . S
C975 C974 1.400 . S
C975 C976 1.398 . S
C975 C981 1.491 . S
C976 H967 0.950 . S
C976 C975 1.398 . S
C976 C977 1.391 . S
C977 H965 0.950 . S
C977 C973 1.393 . S
C977 C976 1.391 . S
C978 H968 0.950 . S
C978 C979 1.386 . S
C978 C980 1.391 . S
C979 C978 1.386 . S
C979 C983 1.393 . S
C980 H969 0.950 . S
C980 C978 1.391 . S
C980 C981 1.400 . S
C981 C975 1.491 . S
C981 C980 1.400 . S
C981 C982 1.398 . S
C982 H970 0.950 . S
C982 C981 1.398 . S
C982 C983 1.391 . S
C983 H971 0.950 . S
C983 C979 1.393 . S
C983 C982 1.391 . S
H984 C992 0.950 . S
H985 C997 0.950 . S
H986 C994 0.950 . S
H987 C996 0.950 . S
H988 C998 0.950 . S
H989 C1000 0.950 . S
H990 C1002 0.950 . S
H991 C1003 0.950 . S
C992 H984 0.950 . S
C992 C993 1.386 . S
C992 C994 1.391 . S
C993 C992 1.386 . S
C993 C997 1.393 . S
C994 H986 0.950 . S
C994 C992 1.391 . S
C994 C995 1.400 . S
C995 C994 1.400 . S
C995 C996 1.398 . S
C995 C1001 1.491 . S
C996 H987 0.950 . S
C996 C995 1.398 . S
C996 C997 1.391 . S
C997 H985 0.950 . S
C997 C993 1.393 . S
C997 C996 1.391 . S
C998 H988 0.950 . S
C998 C999 1.386 . S
C998 C1000 1.391 . S
C999 C998 1.386 . S
C999 C1003 1.393 . S
C1000 H989 0.950 . S
C1000 C998 1.391 . S
C1000 C1001 1.400 . S
C1001 C995 1.491 . S
C1001 C1000 1.400 . S
C1001 C1002 1.398 . S
C1002 H990 0.950 . S
C1002 C1001 1.398 . S
C1002 C1003 1.391 . S
C1003 H991 0.950 . S
C1003 C999 1.393 . S
C1003 C1002 1.391 . S
H1004 C1012 0.950 . S
H1005 C1017 0.950 . S
H1006 C1014 0.950 . S
H1007 C1016 0.950 . S
H1008 C1018 0.950 . S
H1009 C1020 0.950 . S
H1010 C1022 0.950 . S
H1011 C1023 0.950 . S
C1012 H1004 0.950 . S
C1012 C1013 1.386 . S
C1012 C1014 1.391 . S
C1013 C1012 1.386 . S
C1013 C1017 1.393 . S
C1014 H1006 0.950 . S
C1014 C1012 1.391 . S
C1014 C1015 1.400 . S
C1015 C1014 1.400 . S
C1015 C1016 1.398 . S
C1015 C1021 1.491 . S
C1016 H1007 0.950 . S
C1016 C1015 1.398 . S
C1016 C1017 1.391 . S
C1017 H1005 0.950 . S
C1017 C1013 1.393 . S
C1017 C1016 1.391 . S
C1018 H1008 0.950 . S
C1018 C1019 1.386 . S
C1018 C1020 1.391 . S
C1019 C1018 1.386 . S
C1019 C1023 1.393 . S
C1020 H1009 0.950 . S
C1020 C1018 1.391 . S
C1020 C1021 1.400 . S
C1021 C1015 1.491 . S
C1021 C1020 1.400 . S
C1021 C1022 1.398 . S
C1022 H1010 0.950 . S
C1022 C1021 1.398 . S
C1022 C1023 1.391 . S
C1023 H1011 0.950 . S
C1023 C1019 1.393 . S
C1023 C1022 1.391 . S
H1024 C1032 0.950 . S
H1025 C1037 0.950 . S
H1026 C1034 0.950 . S
H1027 C1036 0.950 . S
H1028 C1038 0.950 . S
H1029 C1040 0.950 . S
H1030 C1042 0.950 . S
H1031 C1043 0.950 . S
C1032 H1024 0.950 . S
C1032 C1033 1.386 . S
C1032 C1034 1.391 . S
C1033 C1032 1.386 . S
C1033 C1037 1.393 . S
C1034 H1026 0.950 . S
C1034 C1032 1.391 . S
C1034 C1035 1.400 . S
C1035 C1034 1.400 . S
C1035 C1036 1.398 . S
C1035 C1041 1.491 . S
C1036 H1027 0.950 . S
C1036 C1035 1.398 . S
C1036 C1037 1.391 . S
C1037 H1025 0.950 . S
C1037 C1033 1.393 . S
C1037 C1036 1.391 . S
C1038 H1028 0.950 . S
C1038 C1039 1.386 . S
C1038 C1040 1.391 . S
C1039 C1038 1.386 . S
C1039 C1043 1.393 . S
C1040 H1029 0.950 . S
C1040 C1038 1.391 . S
C1040 C1041 1.400 . S
C1041 C1035 1.491 . S
C1041 C1040 1.400 . S
C1041 C1042 1.398 . S
C1042 H1030 0.950 . S
C1042 C1041 1.398 . S
C1042 C1043 1.391 . S
C1043 H1031 0.950 . S
C1043 C1039 1.393 . S
C1043 C1042 1.391 . S
H1044 C1052 0.950 . S
H1045 C1057 0.950 . S
H1046 C1054 0.950 . S
H1047 C1056 0.950 . S
H1048 C1058 0.950 . S
H1049 C1060 0.950 . S
H1050 C1062 0.950 . S
H1051 C1063 0.950 . S
C1052 H1044 0.950 . S
C1052 C1053 1.386 . S
C1052 C1054 1.391 . S
C1053 C1052 1.386 . S
C1053 C1057 1.393 . S
C1054 H1046 0.950 . S
C1054 C1052 1.391 . S
C1054 C1055 1.400 . S
C1055 C1054 1.400 . S
C1055 C1056 1.398 . S
C1055 C1061 1.491 . S
C1056 H1047 0.950 . S
C1056 C1055 1.398 . S
C1056 C1057 1.391 . S
C1057 H1045 0.950 . S
C1057 C1053 1.393 . S
C1057 C1056 1.391 . S
C1058 H1048 0.950 . S
C1058 C1059 1.386 . S
C1058 C1060 1.391 . S
C1059 C1058 1.386 . S
C1059 C1063 1.393 . S
C1060 H1049 0.950 . S
C1060 C1058 1.391 . S
C1060 C1061 1.400 . S
C1061 C1055 1.491 . S
C1061 C1060 1.400 . S
C1061 C1062 1.398 . S
C1062 H1050 0.950 . S
C1062 C1061 1.398 . S
C1062 C1063 1.391 . S
C1063 H1051 0.950 . S
C1063 C1059 1.393 . S
C1063 C1062 1.391 . S
H1064 C1072 0.950 . S
H1065 C1077 0.950 . S
H1066 C1074 0.950 . S
H1067 C1076 0.950 . S
H1068 C1078 0.950 . S
H1069 C1080 0.950 . S
H1070 C1082 0.950 . S
H1071 C1083 0.950 . S
C1072 H1064 0.950 . S
C1072 C1073 1.386 . S
C1072 C1074 1.391 . S
C1073 C1072 1.386 . S
C1073 C1077 1.393 . S
C1074 H1066 0.950 . S
C1074 C1072 1.391 . S
C1074 C1075 1.400 . S
C1075 C1074 1.400 . S
C1075 C1076 1.398 . S
C1075 C1081 1.491 . S
C1076 H1067 0.950 . S
C1076 C1075 1.398 . S
C1076 C1077 1.391 . S
C1077 H1065 0.950 . S
C1077 C1073 1.393 . S
C1077 C1076 1.391 . S
C1078 H1068 0.950 . S
C1078 C1079 1.386 . S
C1078 C1080 1.391 . S
C1079 C1078 1.386 . S
C1079 C1083 1.393 . S
C1080 H1069 0.950 . S
C1080 C1078 1.391 . S
C1080 C1081 1.400 . S
C1081 C1075 1.491 . S
C1081 C1080 1.400 . S
C1081 C1082 1.398 . S
C1082 H1070 0.950 . S
C1082 C1081 1.398 . S
C1082 C1083 1.391 . S
C1083 H1071 0.950 . S
C1083 C1079 1.393 . S
C1083 C1082 1.391 . S
H1084 C1092 0.950 . S
H1085 C1097 0.950 . S
H1086 C1094 0.950 . S
H1087 C1096 0.950 . S
H1088 C1098 0.950 . S
H1089 C1100 0.950 . S
H1090 C1102 0.950 . S
H1091 C1103 0.950 . S
C1092 H1084 0.950 . S
C1092 C1093 1.386 . S
C1092 C1094 1.391 . S
C1093 C1092 1.386 . S
C1093 C1097 1.393 . S
C1094 H1086 0.950 . S
C1094 C1092 1.391 . S
C1094 C1095 1.400 . S
C1095 C1094 1.400 . S
C1095 C1096 1.398 . S
C1095 C1101 1.491 . S
C1096 H1087 0.950 . S
C1096 C1095 1.398 . S
C1096 C1097 1.391 . S
C1097 H1085 0.950 . S
C1097 C1093 1.393 . S
C1097 C1096 1.391 . S
C1098 H1088 0.950 . S
C1098 C1099 1.386 . S
C1098 C1100 1.391 . S
C1099 C1098 1.386 . S
C1099 C1103 1.393 . S
C1100 H1089 0.950 . S
C1100 C1098 1.391 . S
C1100 C1101 1.400 . S
C1101 C1095 1.491 . S
C1101 C1100 1.400 . S
C1101 C1102 1.398 . S
C1102 H1090 0.950 . S
C1102 C1101 1.398 . S
C1102 C1103 1.391 . S
C1103 H1091 0.950 . S
C1103 C1099 1.393 . S
C1103 C1102 1.391 . S
H1104 C1112 0.950 . S
H1105 C1117 0.950 . S
H1106 C1114 0.950 . S
H1107 C1116 0.950 . S
H1108 C1118 0.950 . S
H1109 C1120 0.950 . S
H1110 C1122 0.950 . S
H1111 C1123 0.950 . S
C1112 H1104 0.950 . S
C1112 C1113 1.386 . S
C1112 C1114 1.391 . S
C1113 C1112 1.386 . S
C1113 C1117 1.393 . S
C1114 H1106 0.950 . S
C1114 C1112 1.391 . S
C1114 C1115 1.400 . S
C1115 C1114 1.400 . S
C1115 C1116 1.398 . S
C1115 C1121 1.491 . S
C1116 H1107 0.950 . S
C1116 C1115 1.398 . S
C1116 C1117 1.391 . S
C1117 H1105 0.950 . S
C1117 C1113 1.393 . S
C1117 C1116 1.391 . S
C1118 H1108 0.950 . S
C1118 C1119 1.386 . S
C1118 C1120 1.391 . S
C1119 C1118 1.386 . S
C1119 C1123 1.393 . S
C1120 H1109 0.950 . S
C1120 C1118 1.391 . S
C1120 C1121 1.400 . S
C1121 C1115 1.491 . S
C1121 C1120 1.400 . S
C1121 C1122 1.398 . S
C1122 H1110 0.950 . S
C1122 C1121 1.398 . S
C1122 C1123 1.391 . S
C1123 H1111 0.950 . S
C1123 C1119 1.393 . S
C1123 C1122 1.391 . S
H1124 C1132 0.950 . S
H1125 C1137 0.950 . S
H1126 C1134 0.950 . S
H1127 C1136 0.950 . S
H1128 C1138 0.950 . S
H1129 C1140 0.950 . S
H1130 C1142 0.950 . S
H1131 C1143 0.950 . S
C1132 H1124 0.950 . S
C1132 C1133 1.386 . S
C1132 C1134 1.391 . S
C1133 C1132 1.386 . S
C1133 C1137 1.393 . S
C1134 H1126 0.950 . S
C1134 C1132 1.391 . S
C1134 C1135 1.400 . S
C1135 C1134 1.400 . S
C1135 C1136 1.398 . S
C1135 C1141 1.491 . S
C1136 H1127 0.950 . S
C1136 C1135 1.398 . S
C1136 C1137 1.391 . S
C1137 H1125 0.950 . S
C1137 C1133 1.393 . S
C1137 C1136 1.391 . S
C1138 H1128 0.950 . S
C1138 C1139 1.386 . S
C1138 C1140 1.391 . S
C1139 C1138 1.386 . S
C1139 C1143 1.393 . S
C1140 H1129 0.950 . S
C1140 C1138 1.391 . S
C1140 C1141 1.400 . S
C1141 C1135 1.491 . S
C1141 C1140 1.400 . S
C1141 C1142 1.398 . S
C1142 H1130 0.950 . S
C1142 C1141 1.398 . S
C1142 C1143 1.391 . S
C1143 H1131 0.950 . S
C1143 C1139 1.393 . S
C1143 C1142 1.391 . S
H1144 C1152 0.950 . S
H1145 C1157 0.950 . S
H1146 C1154 0.950 . S
H1147 C1156 0.950 . S
H1148 C1158 0.950 . S
H1149 C1160 0.950 . S
H1150 C1162 0.950 . S
H1151 C1163 0.950 . S
C1152 H1144 0.950 . S
C1152 C1153 1.386 . S
C1152 C1154 1.391 . S
C1153 C1152 1.386 . S
C1153 C1157 1.393 . S
C1154 H1146 0.950 . S
C1154 C1152 1.391 . S
C1154 C1155 1.400 . S
C1155 C1154 1.400 . S
C1155 C1156 1.398 . S
C1155 C1161 1.491 . S
C1156 H1147 0.950 . S
C1156 C1155 1.398 . S
C1156 C1157 1.391 . S
C1157 H1145 0.950 . S
C1157 C1153 1.393 . S
C1157 C1156 1.391 . S
C1158 H1148 0.950 . S
C1158 C1159 1.386 . S
C1158 C1160 1.391 . S
C1159 C1158 1.386 . S
C1159 C1163 1.393 . S
C1160 H1149 0.950 . S
C1160 C1158 1.391 . S
C1160 C1161 1.400 . S
C1161 C1155 1.491 . S
C1161 C1160 1.400 . S
C1161 C1162 1.398 . S
C1162 H1150 0.950 . S
C1162 C1161 1.398 . S
C1162 C1163 1.391 . S
C1163 H1151 0.950 . S
C1163 C1159 1.393 . S
C1163 C1162 1.391 . S
H1164 C1172 0.950 . S
H1165 C1177 0.950 . S
H1166 C1174 0.950 . S
H1167 C1176 0.950 . S
H1168 C1178 0.950 . S
H1169 C1180 0.950 . S
H1170 C1182 0.950 . S
H1171 C1183 0.950 . S
C1172 H1164 0.950 . S
C1172 C1173 1.386 . S
C1172 C1174 1.391 . S
C1173 C1172 1.386 . S
C1173 C1177 1.393 . S
C1174 H1166 0.950 . S
C1174 C1172 1.391 . S
C1174 C1175 1.400 . S
C1175 C1174 1.400 . S
C1175 C1176 1.398 . S
C1175 C1181 1.491 . S
C1176 H1167 0.950 . S
C1176 C1175 1.398 . S
C1176 C1177 1.391 . S
C1177 H1165 0.950 . S
C1177 C1173 1.393 . S
C1177 C1176 1.391 . S
C1178 H1168 0.950 . S
C1178 C1179 1.386 . S
C1178 C1180 1.391 . S
C1179 C1178 1.386 . S
C1179 C1183 1.393 . S
C1180 H1169 0.950 . S
C1180 C1178 1.391 . S
C1180 C1181 1.400 . S
C1181 C1175 1.491 . S
C1181 C1180 1.400 . S
C1181 C1182 1.398 . S
C1182 H1170 0.950 . S
C1182 C1181 1.398 . S
C1182 C1183 1.391 . S
C1183 H1171 0.950 . S
C1183 C1179 1.393 . S
C1183 C1182 1.391 . S
H1184 C1192 0.950 . S
H1185 C1197 0.950 . S
H1186 C1194 0.950 . S
H1187 C1196 0.950 . S
H1188 C1198 0.950 . S
H1189 C1200 0.950 . S
H1190 C1202 0.950 . S
H1191 C1203 0.950 . S
C1192 H1184 0.950 . S
C1192 C1193 1.386 . S
C1192 C1194 1.391 . S
C1193 C1192 1.386 . S
C1193 C1197 1.393 . S
C1194 H1186 0.950 . S
C1194 C1192 1.391 . S
C1194 C1195 1.400 . S
C1195 C1194 1.400 . S
C1195 C1196 1.398 . S
C1195 C1201 1.491 . S
C1196 H1187 0.950 . S
C1196 C1195 1.398 . S
C1196 C1197 1.391 . S
C1197 H1185 0.950 . S
C1197 C1193 1.393 . S
C1197 C1196 1.391 . S
C1198 H1188 0.950 . S
C1198 C1199 1.386 . S
C1198 C1200 1.391 . S
C1199 C1198 1.386 . S
C1199 C1203 1.393 . S
C1200 H1189 0.950 . S
C1200 C1198 1.391 . S
C1200 C1201 1.400 . S
C1201 C1195 1.491 . S
C1201 C1200 1.400 . S
C1201 C1202 1.398 . S
C1202 H1190 0.950 . S
C1202 C1201 1.398 . S
C1202 C1203 1.391 . S
C1203 H1191 0.950 . S
C1203 C1199 1.393 . S
C1203 C1202 1.391 . S
H1204 C1212 0.950 . S
H1205 C1217 0.950 . S
H1206 C1214 0.950 . S
H1207 C1216 0.950 . S
H1208 C1218 0.950 . S
H1209 C1220 0.950 . S
H1210 C1222 0.950 . S
H1211 C1223 0.950 . S
C1212 H1204 0.950 . S
C1212 C1213 1.386 . S
C1212 C1214 1.391 . S
C1213 C1212 1.386 . S
C1213 C1217 1.393 . S
C1214 H1206 0.950 . S
C1214 C1212 1.391 . S
C1214 C1215 1.400 . S
C1215 C1214 1.400 . S
C1215 C1216 1.398 . S
C1215 C1221 1.491 . S
C1216 H1207 0.950 . S
C1216 C1215 1.398 . S
C1216 C1217 1.391 . S
C1217 H1205 0.950 . S
C1217 C1213 1.393 . S
C1217 C1216 1.391 . S
C1218 H1208 0.950 . S
C1218 C1219 1.386 . S
C1218 C1220 1.391 . S
C1219 C1218 1.386 . S
C1219 C1223 1.393 . S
C1220 H1209 0.950 . S
C1220 C1218 1.391 . S
C1220 C1221 1.400 . S
C1221 C1215 1.491 . S
C1221 C1220 1.400 . S
C1221 C1222 1.398 . S
C1222 H1210 0.950 . S
C1222 C1221 1.398 . S
C1222 C1223 1.391 . S
C1223 H1211 0.950 . S
C1223 C1219 1.393 . S
C1223 C1222 1.391 . S
H1224 C1232 0.950 . S
H1225 C1237 0.950 . S
H1226 C1234 0.950 . S
H1227 C1236 0.950 . S
H1228 C1238 0.950 . S
H1229 C1240 0.950 . S
H1230 C1242 0.950 . S
H1231 C1243 0.950 . S
C1232 H1224 0.950 . S
C1232 C1233 1.386 . S
C1232 C1234 1.391 . S
C1233 C1232 1.386 . S
C1233 C1237 1.393 . S
C1234 H1226 0.950 . S
C1234 C1232 1.391 . S
C1234 C1235 1.400 . S
C1235 C1234 1.400 . S
C1235 C1236 1.398 . S
C1235 C1241 1.491 . S
C1236 H1227 0.950 . S
C1236 C1235 1.398 . S
C1236 C1237 1.391 . S
C1237 H1225 0.950 . S
C1237 C1233 1.393 . S
C1237 C1236 1.391 . S
C1238 H1228 0.950 . S
C1238 C1239 1.386 . S
C1238 C1240 1.391 . S
C1239 C1238 1.386 . S
C1239 C1243 1.393 . S
C1240 H1229 0.950 . S
C1240 C1238 1.391 . S
C1240 C1241 1.400 . S
C1241 C1235 1.491 . S
C1241 C1240 1.400 . S
C1241 C1242 1.398 . S
C1242 H1230 0.950 . S
C1242 C1241 1.398 . S
C1242 C1243 1.391 . S
C1243 H1231 0.950 . S
C1243 C1239 1.393 . S
C1243 C1242 1.391 . S
H1244 C1252 0.950 . S
H1245 C1257 0.950 . S
H1246 C1254 0.950 . S
H1247 C1256 0.950 . S
H1248 C1258 0.950 . S
H1249 C1260 0.950 . S
H1250 C1262 0.950 . S
H1251 C1263 0.950 . S
C1252 H1244 0.950 . S
C1252 C1253 1.386 . S
C1252 C1254 1.391 . S
C1253 C1252 1.386 . S
C1253 C1257 1.393 . S
C1254 H1246 0.950 . S
C1254 C1252 1.391 . S
C1254 C1255 1.400 . S
C1255 C1254 1.400 . S
C1255 C1256 1.398 . S
C1255 C1261 1.491 . S
C1256 H1247 0.950 . S
C1256 C1255 1.398 . S
C1256 C1257 1.391 . S
C1257 H1245 0.950 . S
C1257 C1253 1.393 . S
C1257 C1256 1.391 . S
C1258 H1248 0.950 . S
C1258 C1259 1.386 . S
C1258 C1260 1.391 . S
C1259 C1258 1.386 . S
C1259 C1263 1.393 . S
C1260 H1249 0.950 . S
C1260 C1258 1.391 . S
C1260 C1261 1.400 . S
C1261 C1255 1.491 . S
C1261 C1260 1.400 . S
C1261 C1262 1.398 . S
C1262 H1250 0.950 . S
C1262 C1261 1.398 . S
C1262 C1263 1.391 . S
C1263 H1251 0.950 . S
C1263 C1259 1.393 . S
C1263 C1262 1.391 . S
H1264 C1272 0.950 . S
H1265 C1277 0.950 . S
H1266 C1274 0.950 . S
H1267 C1276 0.950 . S
H1268 C1278 0.950 . S
H1269 C1280 0.950 . S
H1270 C1282 0.950 . S
H1271 C1283 0.950 . S
C1272 H1264 0.950 . S
C1272 C1273 1.386 . S
C1272 C1274 1.391 . S
C1273 C1272 1.386 . S
C1273 C1277 1.393 . S
C1274 H1266 0.950 . S
C1274 C1272 1.391 . S
C1274 C1275 1.400 . S
C1275 C1274 1.400 . S
C1275 C1276 1.398 . S
C1275 C1281 1.491 . S
C1276 H1267 0.950 . S
C1276 C1275 1.398 . S
C1276 C1277 1.391 . S
C1277 H1265 0.950 . S
C1277 C1273 1.393 . S
C1277 C1276 1.391 . S
C1278 H1268 0.950 . S
C1278 C1279 1.386 . S
C1278 C1280 1.391 . S
C1279 C1278 1.386 . S
C1279 C1283 1.393 . S
C1280 H1269 0.950 . S
C1280 C1278 1.391 . S
C1280 C1281 1.400 . S
C1281 C1275 1.491 . S
C1281 C1280 1.400 . S
C1281 C1282 1.398 . S
C1282 H1270 0.950 . S
C1282 C1281 1.398 . S
C1282 C1283 1.391 . S
C1283 H1271 0.950 . S
C1283 C1279 1.393 . S
C1283 C1282 1.391 . S
H1284 C1292 0.950 . S
H1285 C1297 0.950 . S
H1286 C1294 0.950 . S
H1287 C1296 0.950 . S
H1288 C1298 0.950 . S
H1289 C1300 0.950 . S
H1290 C1302 0.950 . S
H1291 C1303 0.950 . S
C1292 H1284 0.950 . S
C1292 C1293 1.386 . S
C1292 C1294 1.391 . S
C1293 C1292 1.386 . S
C1293 C1297 1.393 . S
C1294 H1286 0.950 . S
C1294 C1292 1.391 . S
C1294 C1295 1.400 . S
C1295 C1294 1.400 . S
C1295 C1296 1.398 . S
C1295 C1301 1.491 . S
C1296 H1287 0.950 . S
C1296 C1295 1.398 . S
C1296 C1297 1.391 . S
C1297 H1285 0.950 . S
C1297 C1293 1.393 . S
C1297 C1296 1.391 . S
C1298 H1288 0.950 . S
C1298 C1299 1.386 . S
C1298 C1300 1.391 . S
C1299 C1298 1.386 . S
C1299 C1303 1.393 . S
C1300 H1289 0.950 . S
C1300 C1298 1.391 . S
C1300 C1301 1.400 . S
C1301 C1295 1.491 . S
C1301 C1300 1.400 . S
C1301 C1302 1.398 . S
C1302 H1290 0.950 . S
C1302 C1301 1.398 . S
C1302 C1303 1.391 . S
C1303 H1291 0.950 . S
C1303 C1299 1.393 . S
C1303 C1302 1.391 . S
H1304 C1312 0.950 . S
H1305 C1317 0.950 . S
H1306 C1314 0.950 . S
H1307 C1316 0.950 . S
H1308 C1318 0.950 . S
H1309 C1320 0.950 . S
H1310 C1322 0.950 . S
H1311 C1323 0.950 . S
C1312 H1304 0.950 . S
C1312 C1313 1.386 . S
C1312 C1314 1.391 . S
C1313 C1312 1.386 . S
C1313 C1317 1.393 . S
C1314 H1306 0.950 . S
C1314 C1312 1.391 . S
C1314 C1315 1.400 . S
C1315 C1314 1.400 . S
C1315 C1316 1.398 . S
C1315 C1321 1.491 . S
C1316 H1307 0.950 . S
C1316 C1315 1.398 . S
C1316 C1317 1.391 . S
C1317 H1305 0.950 . S
C1317 C1313 1.393 . S
C1317 C1316 1.391 . S
C1318 H1308 0.950 . S
C1318 C1319 1.386 . S
C1318 C1320 1.391 . S
C1319 C1318 1.386 . S
C1319 C1323 1.393 . S
C1320 H1309 0.950 . S
C1320 C1318 1.391 . S
C1320 C1321 1.400 . S
C1321 C1315 1.491 . S
C1321 C1320 1.400 . S
C1321 C1322 1.398 . S
C1322 H1310 0.950 . S
C1322 C1321 1.398 . S
C1322 C1323 1.391 . S
C1323 H1311 0.950 . S
C1323 C1319 1.393 . S
C1323 C1322 1.391 . S
H1324 C1332 0.950 . S
H1325 C1337 0.950 . S
H1326 C1334 0.950 . S
H1327 C1336 0.950 . S
H1328 C1338 0.950 . S
H1329 C1340 0.950 . S
H1330 C1342 0.950 . S
H1331 C1343 0.950 . S
C1332 H1324 0.950 . S
C1332 C1333 1.386 . S
C1332 C1334 1.391 . S
C1333 C1332 1.386 . S
C1333 C1337 1.393 . S
C1334 H1326 0.950 . S
C1334 C1332 1.391 . S
C1334 C1335 1.400 . S
C1335 C1334 1.400 . S
C1335 C1336 1.398 . S
C1335 C1341 1.491 . S
C1336 H1327 0.950 . S
C1336 C1335 1.398 . S
C1336 C1337 1.391 . S
C1337 H1325 0.950 . S
C1337 C1333 1.393 . S
C1337 C1336 1.391 . S
C1338 H1328 0.950 . S
C1338 C1339 1.386 . S
C1338 C1340 1.391 . S
C1339 C1338 1.386 . S
C1339 C1343 1.393 . S
C1340 H1329 0.950 . S
C1340 C1338 1.391 . S
C1340 C1341 1.400 . S
C1341 C1335 1.491 . S
C1341 C1340 1.400 . S
C1341 C1342 1.398 . S
C1342 H1330 0.950 . S
C1342 C1341 1.398 . S
C1342 C1343 1.391 . S
C1343 H1331 0.950 . S
C1343 C1339 1.393 . S
C1343 C1342 1.391 . S
H1344 C1352 0.950 . S
H1345 C1357 0.950 . S
H1346 C1354 0.950 . S
H1347 C1356 0.950 . S
H1348 C1358 0.950 . S
H1349 C1360 0.950 . S
H1350 C1362 0.950 . S
H1351 C1363 0.950 . S
C1352 H1344 0.950 . S
C1352 C1353 1.386 . S
C1352 C1354 1.391 . S
C1353 C1352 1.386 . S
C1353 C1357 1.393 . S
C1354 H1346 0.950 . S
C1354 C1352 1.391 . S
C1354 C1355 1.400 . S
C1355 C1354 1.400 . S
C1355 C1356 1.398 . S
C1355 C1361 1.491 . S
C1356 H1347 0.950 . S
C1356 C1355 1.398 . S
C1356 C1357 1.391 . S
C1357 H1345 0.950 . S
C1357 C1353 1.393 . S
C1357 C1356 1.391 . S
C1358 H1348 0.950 . S
C1358 C1359 1.386 . S
C1358 C1360 1.391 . S
C1359 C1358 1.386 . S
C1359 C1363 1.393 . S
C1360 H1349 0.950 . S
C1360 C1358 1.391 . S
C1360 C1361 1.400 . S
C1361 C1355 1.491 . S
C1361 C1360 1.400 . S
C1361 C1362 1.398 . S
C1362 H1350 0.950 . S
C1362 C1361 1.398 . S
C1362 C1363 1.391 . S
C1363 H1351 0.950 . S
C1363 C1359 1.393 . S
C1363 C1362 1.391 . S
H1364 C1372 0.950 . S
H1365 C1377 0.950 . S
H1366 C1374 0.950 . S
H1367 C1376 0.950 . S
H1368 C1378 0.950 . S
H1369 C1380 0.950 . S
H1370 C1382 0.950 . S
H1371 C1383 0.950 . S
C1372 H1364 0.950 . S
C1372 C1373 1.386 . S
C1372 C1374 1.391 . S
C1373 C1372 1.386 . S
C1373 C1377 1.393 . S
C1374 H1366 0.950 . S
C1374 C1372 1.391 . S
C1374 C1375 1.400 . S
C1375 C1374 1.400 . S
C1375 C1376 1.398 . S
C1375 C1381 1.491 . S
C1376 H1367 0.950 . S
C1376 C1375 1.398 . S
C1376 C1377 1.391 . S
C1377 H1365 0.950 . S
C1377 C1373 1.393 . S
C1377 C1376 1.391 . S
C1378 H1368 0.950 . S
C1378 C1379 1.386 . S
C1378 C1380 1.391 . S
C1379 C1378 1.386 . S
C1379 C1383 1.393 . S
C1380 H1369 0.950 . S
C1380 C1378 1.391 . S
C1380 C1381 1.400 . S
C1381 C1375 1.491 . S
C1381 C1380 1.400 . S
C1381 C1382 1.398 . S
C1382 H1370 0.950 . S
C1382 C1381 1.398 . S
C1382 C1383 1.391 . S
C1383 H1371 0.950 . S
C1383 C1379 1.393 . S
C1383 C1382 1.391 . S
H1384 C1392 0.950 . S
H1385 C1397 0.950 . S
H1386 C1394 0.950 . S
H1387 C1396 0.950 . S
H1388 C1398 0.950 . S
H1389 C1400 0.950 . S
H1390 C1402 0.950 . S
H1391 C1403 0.950 . S
C1392 H1384 0.950 . S
C1392 C1393 1.386 . S
C1392 C1394 1.391 . S
C1393 C1392 1.386 . S
C1393 C1397 1.393 . S
C1394 H1386 0.950 . S
C1394 C1392 1.391 . S
C1394 C1395 1.400 . S
C1395 C1394 1.400 . S
C1395 C1396 1.398 . S
C1395 C1401 1.491 . S
C1396 H1387 0.950 . S
C1396 C1395 1.398 . S
C1396 C1397 1.391 . S
C1397 H1385 0.950 . S
C1397 C1393 1.393 . S
C1397 C1396 1.391 . S
C1398 H1388 0.950 . S
C1398 C1399 1.386 . S
C1398 C1400 1.391 . S
C1399 C1398 1.386 . S
C1399 C1403 1.393 . S
C1400 H1389 0.950 . S
C1400 C1398 1.391 . S
C1400 C1401 1.400 . S
C1401 C1395 1.491 . S
C1401 C1400 1.400 . S
C1401 C1402 1.398 . S
C1402 H1390 0.950 . S
C1402 C1401 1.398 . S
C1402 C1403 1.391 . S
C1403 H1391 0.950 . S
C1403 C1399 1.393 . S
C1403 C1402 1.391 . S
H1404 C1412 0.950 . S
H1405 C1417 0.950 . S
H1406 C1414 0.950 . S
H1407 C1416 0.950 . S
H1408 C1418 0.950 . S
H1409 C1420 0.950 . S
H1410 C1422 0.950 . S
H1411 C1423 0.950 . S
C1412 H1404 0.950 . S
C1412 C1413 1.386 . S
C1412 C1414 1.391 . S
C1413 C1412 1.386 . S
C1413 C1417 1.393 . S
C1414 H1406 0.950 . S
C1414 C1412 1.391 . S
C1414 C1415 1.400 . S
C1415 C1414 1.400 . S
C1415 C1416 1.398 . S
C1415 C1421 1.491 . S
C1416 H1407 0.950 . S
C1416 C1415 1.398 . S
C1416 C1417 1.391 . S
C1417 H1405 0.950 . S
C1417 C1413 1.393 . S
C1417 C1416 1.391 . S
C1418 H1408 0.950 . S
C1418 C1419 1.386 . S
C1418 C1420 1.391 . S
C1419 C1418 1.386 . S
C1419 C1423 1.393 . S
C1420 H1409 0.950 . S
C1420 C1418 1.391 . S
C1420 C1421 1.400 . S
C1421 C1415 1.491 . S
C1421 C1420 1.400 . S
C1421 C1422 1.398 . S
C1422 H1410 0.950 . S
C1422 C1421 1.398 . S
C1422 C1423 1.391 . S
C1423 H1411 0.950 . S
C1423 C1419 1.393 . S
C1423 C1422 1.391 . S
H1424 C1432 0.950 . S
H1425 C1437 0.950 . S
H1426 C1434 0.950 . S
H1427 C1436 0.950 . S
H1428 C1438 0.950 . S
H1429 C1440 0.950 . S
H1430 C1442 0.950 . S
H1431 C1443 0.950 . S
C1432 H1424 0.950 . S
C1432 C1433 1.386 . S
C1432 C1434 1.391 . S
C1433 C1432 1.386 . S
C1433 C1437 1.393 . S
C1434 H1426 0.950 . S
C1434 C1432 1.391 . S
C1434 C1435 1.400 . S
C1435 C1434 1.400 . S
C1435 C1436 1.398 . S
C1435 C1441 1.491 . S
C1436 H1427 0.950 . S
C1436 C1435 1.398 . S
C1436 C1437 1.391 . S
C1437 H1425 0.950 . S
C1437 C1433 1.393 . S
C1437 C1436 1.391 . S
C1438 H1428 0.950 . S
C1438 C1439 1.386 . S
C1438 C1440 1.391 . S
C1439 C1438 1.386 . S
C1439 C1443 1.393 . S
C1440 H1429 0.950 . S
C1440 C1438 1.391 . S
C1440 C1441 1.400 . S
C1441 C1435 1.491 . S
C1441 C1440 1.400 . S
C1441 C1442 1.398 . S
C1442 H1430 0.950 . S
C1442 C1441 1.398 . S
C1442 C1443 1.391 . S
C1443 H1431 0.950 . S
C1443 C1439 1.393 . S
C1443 C1442 1.391 . S
H1444 C1452 0.950 . S
H1445 C1457 0.950 . S
H1446 C1454 0.950 . S
H1447 C1456 0.950 . S
H1448 C1458 0.950 . S
H1449 C1460 0.950 . S
H1450 C1462 0.950 . S
H1451 C1463 0.950 . S
C1452 H1444 0.950 . S
C1452 C1453 1.386 . S
C1452 C1454 1.391 . S
C1453 C1452 1.386 . S
C1453 C1457 1.393 . S
C1454 H1446 0.950 . S
C1454 C1452 1.391 . S
C1454 C1455 1.400 . S
C1455 C1454 1.400 . S
C1455 C1456 1.398 . S
C1455 C1461 1.491 . S
C1456 H1447 0.950 . S
C1456 C1455 1.398 . S
C1456 C1457 1.391 . S
C1457 H1445 0.950 . S
C1457 C1453 1.393 . S
C1457 C1456 1.391 . S
C1458 H1448 0.950 . S
C1458 C1459 1.386 . S
C1458 C1460 1.391 . S
C1459 C1458 1.386 . S
C1459 C1463 1.393 . S
C1460 H1449 0.950 . S
C1460 C1458 1.391 . S
C1460 C1461 1.400 . S
C1461 C1455 1.491 . S
C1461 C1460 1.400 . S
C1461 C1462 1.398 . S
C1462 H1450 0.950 . S
C1462 C1461 1.398 . S
C1462 C1463 1.391 . S
C1463 H1451 0.950 . S
C1463 C1459 1.393 . S
C1463 C1462 1.391 . S
H1464 C1472 0.950 . S
H1465 C1477 0.950 . S
H1466 C1474 0.950 . S
H1467 C1476 0.950 . S
H1468 C1478 0.950 . S
H1469 C1480 0.950 . S
H1470 C1482 0.950 . S
H1471 C1483 0.950 . S
C1472 H1464 0.950 . S
C1472 C1473 1.386 . S
C1472 C1474 1.391 . S
C1473 C1472 1.386 . S
C1473 C1477 1.393 . S
C1474 H1466 0.950 . S
C1474 C1472 1.391 . S
C1474 C1475 1.400 . S
C1475 C1474 1.400 . S
C1475 C1476 1.398 . S
C1475 C1481 1.491 . S
C1476 H1467 0.950 . S
C1476 C1475 1.398 . S
C1476 C1477 1.391 . S
C1477 H1465 0.950 . S
C1477 C1473 1.393 . S
C1477 C1476 1.391 . S
C1478 H1468 0.950 . S
C1478 C1479 1.386 . S
C1478 C1480 1.391 . S
C1479 C1478 1.386 . S
C1479 C1483 1.393 . S
C1480 H1469 0.950 . S
C1480 C1478 1.391 . S
C1480 C1481 1.400 . S
C1481 C1475 1.491 . S
C1481 C1480 1.400 . S
C1481 C1482 1.398 . S
C1482 H1470 0.950 . S
C1482 C1481 1.398 . S
C1482 C1483 1.391 . S
C1483 H1471 0.950 . S
C1483 C1479 1.393 . S
C1483 C1482 1.391 . S
H1484 C1492 0.950 . S
H1485 C1497 0.950 . S
H1486 C1494 0.950 . S
H1487 C1496 0.950 . S
H1488 C1498 0.950 . S
H1489 C1500 0.950 . S
H1490 C1502 0.950 . S
H1491 C1503 0.950 . S
C1492 H1484 0.950 . S
C1492 C1493 1.386 . S
C1492 C1494 1.391 . S
C1493 C1492 1.386 . S
C1493 C1497 1.393 . S
C1494 H1486 0.950 . S
C1494 C1492 1.391 . S
C1494 C1495 1.400 . S
C1495 C1494 1.400 . S
C1495 C1496 1.398 . S
C1495 C1501 1.491 . S
C1496 H1487 0.950 . S
C1496 C1495 1.398 . S
C1496 C1497 1.391 . S
C1497 H1485 0.950 . S
C1497 C1493 1.393 . S
C1497 C1496 1.391 . S
C1498 H1488 0.950 . S
C1498 C1499 1.386 . S
C1498 C1500 1.391 . S
C1499 C1498 1.386 . S
C1499 C1503 1.393 . S
C1500 H1489 0.950 . S
C1500 C1498 1.391 . S
C1500 C1501 1.400 . S
C1501 C1495 1.491 . S
C1501 C1500 1.400 . S
C1501 C1502 1.398 . S
C1502 H1490 0.950 . S
C1502 C1501 1.398 . S
C1502 C1503 1.391 . S
C1503 H1491 0.950 . S
C1503 C1499 1.393 . S
C1503 C1502 1.391 . S
H1504 C1512 0.950 . S
H1505 C1517 0.950 . S
H1506 C1514 0.950 . S
H1507 C1516 0.950 . S
H1508 C1518 0.950 . S
H1509 C1520 0.950 . S
H1510 C1522 0.950 . S
H1511 C1523 0.950 . S
C1512 H1504 0.950 . S
C1512 C1513 1.386 . S
C1512 C1514 1.391 . S
C1513 C1512 1.386 . S
C1513 C1517 1.393 . S
C1514 H1506 0.950 . S
C1514 C1512 1.391 . S
C1514 C1515 1.400 . S
C1515 C1514 1.400 . S
C1515 C1516 1.398 . S
C1515 C1521 1.491 . S
C1516 H1507 0.950 . S
C1516 C1515 1.398 . S
C1516 C1517 1.391 . S
C1517 H1505 0.950 . S
C1517 C1513 1.393 . S
C1517 C1516 1.391 . S
C1518 H1508 0.950 . S
C1518 C1519 1.386 . S
C1518 C1520 1.391 . S
C1519 C1518 1.386 . S
C1519 C1523 1.393 . S
C1520 H1509 0.950 . S
C1520 C1518 1.391 . S
C1520 C1521 1.400 . S
C1521 C1515 1.491 . S
C1521 C1520 1.400 . S
C1521 C1522 1.398 . S
C1522 H1510 0.950 . S
C1522 C1521 1.398 . S
C1522 C1523 1.391 . S
C1523 H1511 0.950 . S
C1523 C1519 1.393 . S
C1523 C1522 1.391 . S
H1524 C1532 0.950 . S
H1525 C1537 0.950 . S
H1526 C1534 0.950 . S
H1527 C1536 0.950 . S
H1528 C1538 0.950 . S
H1529 C1540 0.950 . S
H1530 C1542 0.950 . S
H1531 C1543 0.950 . S
C1532 H1524 0.950 . S
C1532 C1533 1.386 . S
C1532 C1534 1.391 . S
C1533 C1532 1.386 . S
C1533 C1537 1.393 . S
C1534 H1526 0.950 . S
C1534 C1532 1.391 . S
C1534 C1535 1.400 . S
C1535 C1534 1.400 . S
C1535 C1536 1.398 . S
C1535 C1541 1.491 . S
C1536 H1527 0.950 . S
C1536 C1535 1.398 . S
C1536 C1537 1.391 . S
C1537 H1525 0.950 . S
C1537 C1533 1.393 . S
C1537 C1536 1.391 . S
C1538 H1528 0.950 . S
C1538 C1539 1.386 . S
C1538 C1540 1.391 . S
C1539 C1538 1.386 . S
C1539 C1543 1.393 . S
C1540 H1529 0.950 . S
C1540 C1538 1.391 . S
C1540 C1541 1.400 . S
C1541 C1535 1.491 . S
C1541 C1540 1.400 . S
C1541 C1542 1.398 . S
C1542 H1530 0.950 . S
C1542 C1541 1.398 . S
C1542 C1543 1.391 . S
C1543 H1531 0.950 . S
C1543 C1539 1.393 . S
C1543 C1542 1.391 . S
H1544 C1552 0.950 . S
H1545 C1557 0.950 . S
H1546 C1554 0.950 . S
H1547 C1556 0.950 . S
H1548 C1558 0.950 . S
H1549 C1560 0.950 . S
H1550 C1562 0.950 . S
H1551 C1563 0.950 . S
C1552 H1544 0.950 . S
C1552 C1553 1.386 . S
C1552 C1554 1.391 . S
C1553 C1552 1.386 . S
C1553 C1557 1.393 . S
C1554 H1546 0.950 . S
C1554 C1552 1.391 . S
C1554 C1555 1.400 . S
C1555 C1554 1.400 . S
C1555 C1556 1.398 . S
C1555 C1561 1.491 . S
C1556 H1547 0.950 . S
C1556 C1555 1.398 . S
C1556 C1557 1.391 . S
C1557 H1545 0.950 . S
C1557 C1553 1.393 . S
C1557 C1556 1.391 . S
C1558 H1548 0.950 . S
C1558 C1559 1.386 . S
C1558 C1560 1.391 . S
C1559 C1558 1.386 . S
C1559 C1563 1.393 . S
C1560 H1549 0.950 . S
C1560 C1558 1.391 . S
C1560 C1561 1.400 . S
C1561 C1555 1.491 . S
C1561 C1560 1.400 . S
C1561 C1562 1.398 . S
C1562 H1550 0.950 . S
C1562 C1561 1.398 . S
C1562 C1563 1.391 . S
C1563 H1551 0.950 . S
C1563 C1559 1.393 . S
C1563 C1562 1.391 . S
H1564 C1572 0.950 . S
H1565 C1577 0.950 . S
H1566 C1574 0.950 . S
H1567 C1576 0.950 . S
H1568 C1578 0.950 . S
H1569 C1580 0.950 . S
H1570 C1582 0.950 . S
H1571 C1583 0.950 . S
C1572 H1564 0.950 . S
C1572 C1573 1.386 . S
C1572 C1574 1.391 . S
C1573 C1572 1.386 . S
C1573 C1577 1.393 . S
C1574 H1566 0.950 . S
C1574 C1572 1.391 . S
C1574 C1575 1.400 . S
C1575 C1574 1.400 . S
C1575 C1576 1.398 . S
C1575 C1581 1.491 . S
C1576 H1567 0.950 . S
C1576 C1575 1.398 . S
C1576 C1577 1.391 . S
C1577 H1565 0.950 . S
C1577 C1573 1.393 . S
C1577 C1576 1.391 . S
C1578 H1568 0.950 . S
C1578 C1579 1.386 . S
C1578 C1580 1.391 . S
C1579 C1578 1.386 . S
C1579 C1583 1.393 . S
C1580 H1569 0.950 . S
C1580 C1578 1.391 . S
C1580 C1581 1.400 . S
C1581 C1575 1.491 . S
C1581 C1580 1.400 . S
C1581 C1582 1.398 . S
C1582 H1570 0.950 . S
C1582 C1581 1.398 . S
C1582 C1583 1.391 . S
C1583 H1571 0.950 . S
C1583 C1579 1.393 . S
C1583 C1582 1.391 . S
H1584 C1592 0.950 . S
H1585 C1597 0.950 . S
H1586 C1594 0.950 . S
H1587 C1596 0.950 . S
H1588 C1598 0.950 . S
H1589 C1600 0.950 . S
H1590 C1602 0.950 . S
H1591 C1603 0.950 . S
C1592 H1584 0.950 . S
C1592 C1593 1.386 . S
C1592 C1594 1.391 . S
C1593 C1592 1.386 . S
C1593 C1597 1.393 . S
C1594 H1586 0.950 . S
C1594 C1592 1.391 . S
C1594 C1595 1.400 . S
C1595 C1594 1.400 . S
C1595 C1596 1.398 . S
C1595 C1601 1.491 . S
C1596 H1587 0.950 . S
C1596 C1595 1.398 . S
C1596 C1597 1.391 . S
C1597 H1585 0.950 . S
C1597 C1593 1.393 . S
C1597 C1596 1.391 . S
C1598 H1588 0.950 . S
C1598 C1599 1.386 . S
C1598 C1600 1.391 . S
C1599 C1598 1.386 . S
C1599 C1603 1.393 . S
C1600 H1589 0.950 . S
C1600 C1598 1.391 . S
C1600 C1601 1.400 . S
C1601 C1595 1.491 . S
C1601 C1600 1.400 . S
C1601 C1602 1.398 . S
C1602 H1590 0.950 . S
C1602 C1601 1.398 . S
C1602 C1603 1.391 . S
C1603 H1591 0.950 . S
C1603 C1599 1.393 . S
C1603 C1602 1.391 . S
H1604 C1612 0.950 . S
H1605 C1617 0.950 . S
H1606 C1614 0.950 . S
H1607 C1616 0.950 . S
H1608 C1618 0.950 . S
H1609 C1620 0.950 . S
H1610 C1622 0.950 . S
H1611 C1623 0.950 . S
C1612 H1604 0.950 . S
C1612 C1613 1.386 . S
C1612 C1614 1.391 . S
C1613 C1612 1.386 . S
C1613 C1617 1.393 . S
C1614 H1606 0.950 . S
C1614 C1612 1.391 . S
C1614 C1615 1.400 . S
C1615 C1614 1.400 . S
C1615 C1616 1.398 . S
C1615 C1621 1.491 . S
C1616 H1607 0.950 . S
C1616 C1615 1.398 . S
C1616 C1617 1.391 . S
C1617 H1605 0.950 . S
C1617 C1613 1.393 . S
C1617 C1616 1.391 . S
C1618 H1608 0.950 . S
C1618 C1619 1.386 . S
C1618 C1620 1.391 . S
C1619 C1618 1.386 . S
C1619 C1623 1.393 . S
C1620 H1609 0.950 . S
C1620 C1618 1.391 . S
C1620 C1621 1.400 . S
C1621 C1615 1.491 . S
C1621 C1620 1.400 . S
C1621 C1622 1.398 . S
C1622 H1610 0.950 . S
C1622 C1621 1.398 . S
C1622 C1623 1.391 . S
C1623 H1611 0.950 . S
C1623 C1619 1.393 . S
C1623 C1622 1.391 . S
H1624 C1632 0.950 . S
H1625 C1637 0.950 . S
H1626 C1634 0.950 . S
H1627 C1636 0.950 . S
H1628 C1638 0.950 . S
H1629 C1640 0.950 . S
H1630 C1642 0.950 . S
H1631 C1643 0.950 . S
C1632 H1624 0.950 . S
C1632 C1633 1.386 . S
C1632 C1634 1.391 . S
C1633 C1632 1.386 . S
C1633 C1637 1.393 . S
C1634 H1626 0.950 . S
C1634 C1632 1.391 . S
C1634 C1635 1.400 . S
C1635 C1634 1.400 . S
C1635 C1636 1.398 . S
C1635 C1641 1.491 . S
C1636 H1627 0.950 . S
C1636 C1635 1.398 . S
C1636 C1637 1.391 . S
C1637 H1625 0.950 . S
C1637 C1633 1.393 . S
C1637 C1636 1.391 . S
C1638 H1628 0.950 . S
C1638 C1639 1.386 . S
C1638 C1640 1.391 . S
C1639 C1638 1.386 . S
C1639 C1643 1.393 . S
C1640 H1629 0.950 . S
C1640 C1638 1.391 . S
C1640 C1641 1.400 . S
C1641 C1635 1.491 . S
C1641 C1640 1.400 . S
C1641 C1642 1.398 . S
C1642 H1630 0.950 . S
C1642 C1641 1.398 . S
C1642 C1643 1.391 . S
C1643 H1631 0.950 . S
C1643 C1639 1.393 . S
C1643 C1642 1.391 . S
H1644 C1652 0.950 . S
H1645 C1657 0.950 . S
H1646 C1654 0.950 . S
H1647 C1656 0.950 . S
H1648 C1658 0.950 . S
H1649 C1660 0.950 . S
H1650 C1662 0.950 . S
H1651 C1663 0.950 . S
C1652 H1644 0.950 . S
C1652 C1653 1.386 . S
C1652 C1654 1.391 . S
C1653 C1652 1.386 . S
C1653 C1657 1.393 . S
C1654 H1646 0.950 . S
C1654 C1652 1.391 . S
C1654 C1655 1.400 . S
C1655 C1654 1.400 . S
C1655 C1656 1.398 . S
C1655 C1661 1.491 . S
C1656 H1647 0.950 . S
C1656 C1655 1.398 . S
C1656 C1657 1.391 . S
C1657 H1645 0.950 . S
C1657 C1653 1.393 . S
C1657 C1656 1.391 . S
C1658 H1648 0.950 . S
C1658 C1659 1.386 . S
C1658 C1660 1.391 . S
C1659 C1658 1.386 . S
C1659 C1663 1.393 . S
C1660 H1649 0.950 . S
C1660 C1658 1.391 . S
C1660 C1661 1.400 . S
C1661 C1655 1.491 . S
C1661 C1660 1.400 . S
C1661 C1662 1.398 . S
C1662 H1650 0.950 . S
C1662 C1661 1.398 . S
C1662 C1663 1.391 . S
C1663 H1651 0.950 . S
C1663 C1659 1.393 . S
C1663 C1662 1.391 . S
H1664 C1672 0.950 . S
H1665 C1677 0.950 . S
H1666 C1674 0.950 . S
H1667 C1676 0.950 . S
H1668 C1678 0.950 . S
H1669 C1680 0.950 . S
H1670 C1682 0.950 . S
H1671 C1683 0.950 . S
C1672 H1664 0.950 . S
C1672 C1673 1.386 . S
C1672 C1674 1.391 . S
C1673 C1672 1.386 . S
C1673 C1677 1.393 . S
C1674 H1666 0.950 . S
C1674 C1672 1.391 . S
C1674 C1675 1.400 . S
C1675 C1674 1.400 . S
C1675 C1676 1.398 . S
C1675 C1681 1.491 . S
C1676 H1667 0.950 . S
C1676 C1675 1.398 . S
C1676 C1677 1.391 . S
C1677 H1665 0.950 . S
C1677 C1673 1.393 . S
C1677 C1676 1.391 . S
C1678 H1668 0.950 . S
C1678 C1679 1.386 . S
C1678 C1680 1.391 . S
C1679 C1678 1.386 . S
C1679 C1683 1.393 . S
C1680 H1669 0.950 . S
C1680 C1678 1.391 . S
C1680 C1681 1.400 . S
C1681 C1675 1.491 . S
C1681 C1680 1.400 . S
C1681 C1682 1.398 . S
C1682 H1670 0.950 . S
C1682 C1681 1.398 . S
C1682 C1683 1.391 . S
C1683 H1671 0.950 . S
C1683 C1679 1.393 . S
C1683 C1682 1.391 . S
H1684 C1692 0.950 . S
H1685 C1697 0.950 . S
H1686 C1694 0.950 . S
H1687 C1696 0.950 . S
H1688 C1698 0.950 . S
H1689 C1700 0.950 . S
H1690 C1702 0.950 . S
H1691 C1703 0.950 . S
C1692 H1684 0.950 . S
C1692 C1693 1.386 . S
C1692 C1694 1.391 . S
C1693 C1692 1.386 . S
C1693 C1697 1.393 . S
C1694 H1686 0.950 . S
C1694 C1692 1.391 . S
C1694 C1695 1.400 . S
C1695 C1694 1.400 . S
C1695 C1696 1.398 . S
C1695 C1701 1.491 . S
C1696 H1687 0.950 . S
C1696 C1695 1.398 . S
C1696 C1697 1.391 . S
C1697 H1685 0.950 . S
C1697 C1693 1.393 . S
C1697 C1696 1.391 . S
C1698 H1688 0.950 . S
C1698 C1699 1.386 . S
C1698 C1700 1.391 . S
C1699 C1698 1.386 . S
C1699 C1703 1.393 . S
C1700 H1689 0.950 . S
C1700 C1698 1.391 . S
C1700 C1701 1.400 . S
C1701 C1695 1.491 . S
C1701 C1700 1.400 . S
C1701 C1702 1.398 . S
C1702 H1690 0.950 . S
C1702 C1701 1.398 . S
C1702 C1703 1.391 . S
C1703 H1691 0.950 . S
C1703 C1699 1.393 . S
C1703 C1702 1.391 . S
H1704 C1712 0.950 . S
H1705 C1717 0.950 . S
H1706 C1714 0.950 . S
H1707 C1716 0.950 . S
H1708 C1718 0.950 . S
H1709 C1720 0.950 . S
H1710 C1722 0.950 . S
H1711 C1723 0.950 . S
C1712 H1704 0.950 . S
C1712 C1713 1.386 . S
C1712 C1714 1.391 . S
C1713 C1712 1.386 . S
C1713 C1717 1.393 . S
C1714 H1706 0.950 . S
C1714 C1712 1.391 . S
C1714 C1715 1.400 . S
C1715 C1714 1.400 . S
C1715 C1716 1.398 . S
C1715 C1721 1.491 . S
C1716 H1707 0.950 . S
C1716 C1715 1.398 . S
C1716 C1717 1.391 . S
C1717 H1705 0.950 . S
C1717 C1713 1.393 . S
C1717 C1716 1.391 . S
C1718 H1708 0.950 . S
C1718 C1719 1.386 . S
C1718 C1720 1.391 . S
C1719 C1718 1.386 . S
C1719 C1723 1.393 . S
C1720 H1709 0.950 . S
C1720 C1718 1.391 . S
C1720 C1721 1.400 . S
C1721 C1715 1.491 . S
C1721 C1720 1.400 . S
C1721 C1722 1.398 . S
C1722 H1710 0.950 . S
C1722 C1721 1.398 . S
C1722 C1723 1.391 . S
C1723 H1711 0.950 . S
C1723 C1719 1.393 . S
C1723 C1722 1.391 . S
H1724 C1732 0.950 . S
H1725 C1737 0.950 . S
H1726 C1734 0.950 . S
H1727 C1736 0.950 . S
H1728 C1738 0.950 . S
H1729 C1740 0.950 . S
H1730 C1742 0.950 . S
H1731 C1743 0.950 . S
C1732 H1724 0.950 . S
C1732 C1733 1.386 . S
C1732 C1734 1.391 . S
C1733 C1732 1.386 . S
C1733 C1737 1.393 . S
C1734 H1726 0.950 . S
C1734 C1732 1.391 . S
C1734 C1735 1.400 . S
C1735 C1734 1.400 . S
C1735 C1736 1.398 . S
C1735 C1741 1.491 . S
C1736 H1727 0.950 . S
C1736 C1735 1.398 . S
C1736 C1737 1.391 . S
C1737 H1725 0.950 . S
C1737 C1733 1.393 . S
C1737 C1736 1.391 . S
C1738 H1728 0.950 . S
C1738 C1739 1.386 . S
C1738 C1740 1.391 . S
C1739 C1738 1.386 . S
C1739 C1743 1.393 . S
C1740 H1729 0.950 . S
C1740 C1738 1.391 . S
C1740 C1741 1.400 . S
C1741 C1735 1.491 . S
C1741 C1740 1.400 . S
C1741 C1742 1.398 . S
C1742 H1730 0.950 . S
C1742 C1741 1.398 . S
C1742 C1743 1.391 . S
C1743 H1731 0.950 . S
C1743 C1739 1.393 . S
C1743 C1742 1.391 . S
H1744 C1752 0.950 . S
H1745 C1757 0.950 . S
H1746 C1754 0.950 . S
H1747 C1756 0.950 . S
H1748 C1758 0.950 . S
H1749 C1760 0.950 . S
H1750 C1762 0.950 . S
H1751 C1763 0.950 . S
C1752 H1744 0.950 . S
C1752 C1753 1.386 . S
C1752 C1754 1.391 . S
C1753 C1752 1.386 . S
C1753 C1757 1.393 . S
C1754 H1746 0.950 . S
C1754 C1752 1.391 . S
C1754 C1755 1.400 . S
C1755 C1754 1.400 . S
C1755 C1756 1.398 . S
C1755 C1761 1.491 . S
C1756 H1747 0.950 . S
C1756 C1755 1.398 . S
C1756 C1757 1.391 . S
C1757 H1745 0.950 . S
C1757 C1753 1.393 . S
C1757 C1756 1.391 . S
C1758 H1748 0.950 . S
C1758 C1759 1.386 . S
C1758 C1760 1.391 . S
C1759 C1758 1.386 . S
C1759 C1763 1.393 . S
C1760 H1749 0.950 . S
C1760 C1758 1.391 . S
C1760 C1761 1.400 . S
C1761 C1755 1.491 . S
C1761 C1760 1.400 . S
C1761 C1762 1.398 . S
C1762 H1750 0.950 . S
C1762 C1761 1.398 . S
C1762 C1763 1.391 . S
C1763 H1751 0.950 . S
C1763 C1759 1.393 . S
C1763 C1762 1.391 . S
H1764 C1772 0.950 . S
H1765 C1777 0.950 . S
H1766 C1774 0.950 . S
H1767 C1776 0.950 . S
H1768 C1778 0.950 . S
H1769 C1780 0.950 . S
H1770 C1782 0.950 . S
H1771 C1783 0.950 . S
C1772 H1764 0.950 . S
C1772 C1773 1.386 . S
C1772 C1774 1.391 . S
C1773 C1772 1.386 . S
C1773 C1777 1.393 . S
C1774 H1766 0.950 . S
C1774 C1772 1.391 . S
C1774 C1775 1.400 . S
C1775 C1774 1.400 . S
C1775 C1776 1.398 . S
C1775 C1781 1.491 . S
C1776 H1767 0.950 . S
C1776 C1775 1.398 . S
C1776 C1777 1.391 . S
C1777 H1765 0.950 . S
C1777 C1773 1.393 . S
C1777 C1776 1.391 . S
C1778 H1768 0.950 . S
C1778 C1779 1.386 . S
C1778 C1780 1.391 . S
C1779 C1778 1.386 . S
C1779 C1783 1.393 . S
C1780 H1769 0.950 . S
C1780 C1778 1.391 . S
C1780 C1781 1.400 . S
C1781 C1775 1.491 . S
C1781 C1780 1.400 . S
C1781 C1782 1.398 . S
C1782 H1770 0.950 . S
C1782 C1781 1.398 . S
C1782 C1783 1.391 . S
C1783 H1771 0.950 . S
C1783 C1779 1.393 . S
C1783 C1782 1.391 . S
H1784 C1792 0.950 . S
H1785 C1797 0.950 . S
H1786 C1794 0.950 . S
H1787 C1796 0.950 . S
H1788 C1798 0.950 . S
H1789 C1800 0.950 . S
H1790 C1802 0.950 . S
H1791 C1803 0.950 . S
C1792 H1784 0.950 . S
C1792 C1793 1.386 . S
C1792 C1794 1.391 . S
C1793 C1792 1.386 . S
C1793 C1797 1.393 . S
C1794 H1786 0.950 . S
C1794 C1792 1.391 . S
C1794 C1795 1.400 . S
C1795 C1794 1.400 . S
C1795 C1796 1.398 . S
C1795 C1801 1.491 . S
C1796 H1787 0.950 . S
C1796 C1795 1.398 . S
C1796 C1797 1.391 . S
C1797 H1785 0.950 . S
C1797 C1793 1.393 . S
C1797 C1796 1.391 . S
C1798 H1788 0.950 . S
C1798 C1799 1.386 . S
C1798 C1800 1.391 . S
C1799 C1798 1.386 . S
C1799 C1803 1.393 . S
C1800 H1789 0.950 . S
C1800 C1798 1.391 . S
C1800 C1801 1.400 . S
C1801 C1795 1.491 . S
C1801 C1800 1.400 . S
C1801 C1802 1.398 . S
C1802 H1790 0.950 . S
C1802 C1801 1.398 . S
C1802 C1803 1.391 . S
C1803 H1791 0.950 . S
C1803 C1799 1.393 . S
C1803 C1802 1.391 . S
H1804 C1812 0.950 . S
H1805 C1817 0.950 . S
H1806 C1814 0.950 . S
H1807 C1816 0.950 . S
H1808 C1818 0.950 . S
H1809 C1820 0.950 . S
H1810 C1822 0.950 . S
H1811 C1823 0.950 . S
C1812 H1804 0.950 . S
C1812 C1813 1.386 . S
C1812 C1814 1.391 . S
C1813 C1812 1.386 . S
C1813 C1817 1.393 . S
C1814 H1806 0.950 . S
C1814 C1812 1.391 . S
C1814 C1815 1.400 . S
C1815 C1814 1.400 . S
C1815 C1816 1.398 . S
C1815 C1821 1.491 . S
C1816 H1807 0.950 . S
C1816 C1815 1.398 . S
C1816 C1817 1.391 . S
C1817 H1805 0.950 . S
C1817 C1813 1.393 . S
C1817 C1816 1.391 . S
C1818 H1808 0.950 . S
C1818 C1819 1.386 . S
C1818 C1820 1.391 . S
C1819 C1818 1.386 . S
C1819 C1823 1.393 . S
C1820 H1809 0.950 . S
C1820 C1818 1.391 . S
C1820 C1821 1.400 . S
C1821 C1815 1.491 . S
C1821 C1820 1.400 . S
C1821 C1822 1.398 . S
C1822 H1810 0.950 . S
C1822 C1821 1.398 . S
C1822 C1823 1.391 . S
C1823 H1811 0.950 . S
C1823 C1819 1.393 . S
C1823 C1822 1.391 . S
C879 C689 1.523 . S
C873 C74 1.407 . S
C899 C694 0.610 . S
C893 C142 0.934 . S
C919 C695 1.529 . S
C913 C231 1.410 . S
C933 C322 1.268 . S
C939 C699 1.364 . S
C953 C406 0.977 . S
C959 C702 0.679 . S
C979 C703 1.527 . S
C973 C494 1.406 . S
C993 C562 1.280 . S
C999 C680 1.369 . S
C1013 C651 1.399 . S
C1019 C696 1.519 . S
C1039 C734 1.363 . S
C1033 C58 1.312 . S
C1053 C151 1.475 . S
C1059 C760 1.500 . S
C1079 C712 2.423 . S
C1073 C224 2.356 . S
C1099 C767 1.408 . S
C1093 C315 1.388 . S
C1113 C399 1.395 . S
C1119 C721 1.425 . S
C1139 C763 1.366 . S
C1133 C478 1.277 . S
C1153 C571 1.476 . S
C1159 C727 1.527 . S
C1173 C644 2.359 . S
C1179 C758 2.429 . S
C1193 C67 2.359 . S
C1199 C766 2.425 . S
C1213 C392 1.479 . S
C1219 C753 1.517 . S
C1239 C731 2.440 . S
C1233 C487 2.366 . S
C1259 C759 1.411 . S
C1253 C578 1.394 . S
C1273 C658 1.287 . S
C1279 C726 1.354 . S
C1293 C238 1.270 . S
C1299 C744 1.355 . S
C1319 C735 1.517 . S
C1313 C308 1.471 . S
C1333 C158 1.399 . S
C1339 C728 1.423 . S
C1353 C662 1.377 . S
C1359 C790 1.443 . S
C1373 C394 0.956 . S
C1379 C785 0.371 . S
C1399 C799 1.404 . S
C1393 C483 1.378 . S
C1419 C776 1.348 . S
C1413 C574 1.263 . S
C1433 C154 1.009 . S
C1439 C792 0.346 . S
C1459 C791 1.426 . S
C1453 C242 1.408 . S
C1473 C310 1.225 . S
C1479 C795 1.338 . S
C1493 C63 1.391 . S
C1499 C798 1.420 . S
C1513 C646 1.286 . S
C1519 C824 1.378 . S
C1539 C840 1.505 . S
C1533 C403 1.501 . S
C1553 C476 2.378 . S
C1559 C822 2.485 . S
C1573 C567 1.393 . S
C1579 C855 1.390 . S
C1599 C831 1.353 . S
C1593 C147 1.373 . S
C1613 C226 1.312 . S
C1619 C849 1.371 . S
C1639 C827 1.496 . S
C1633 C319 1.434 . S
C1659 C862 2.465 . S
C1653 C56 2.385 . S
C1679 C854 2.461 . S
C1673 C655 2.373 . S
C1693 C140 1.511 . S
C1699 C859 1.524 . S
C1713 C235 2.358 . S
C1719 C830 2.492 . S
C1739 C863 1.379 . S
C1733 C326 1.401 . S
C1753 C70 1.308 . S
C1759 C817 1.386 . S
C1773 C490 1.303 . S
C1779 C856 1.376 . S
C1799 C808 1.499 . S
C1793 C560 1.424 . S
C1819 C823 1.367 . S
C1813 C410 1.354 . S
