# Generated by pormake.
# Topology ssa, (4,4)-cn, num edge types: 1
# Building blocks:
#     Node 0, Type 0, BuildingBlock: NAWXER_clean_sbu_0, # of connection points: 4
#     Node 1, Type 0, BuildingBlock: NAWXER_clean_sbu_0, # of connection points: 4
#     Node 2, Type 0, BuildingBlock: NAWXER_clean_sbu_0, # of connection points: 4
#     Node 3, Type 0, BuildingBlock: NAWXER_clean_sbu_0, # of connection points: 4
#     Node 4, Type 0, BuildingBlock: NAWXER_clean_sbu_0, # of connection points: 4
#     Node 5, Type 0, BuildingBlock: NAWXER_clean_sbu_0, # of connection points: 4
#     Node 6, Type 1, BuildingBlock: MUDLON_clean_sbu_0, # of connection points: 4
#     Node 7, Type 1, BuildingBlock: MUDLON_clean_sbu_0, # of connection points: 4
#     Node 8, Type 1, BuildingBlock: MUDLON_clean_sbu_0, # of connection points: 4
#     Node 9, Type 1, BuildingBlock: MUDLON_clean_sbu_0, # of connection points: 4
#     Node 10, Type 1, BuildingBlock: MUDLON_clean_sbu_0, # of connection points: 4
#     Node 11, Type 1, BuildingBlock: MUDLON_clean_sbu_0, # of connection points: 4
#     Edge 12, Type (0, 1), BuildingBlock: CIFDUS_clean_linker_0, # of connection points: 2
#     Edge 13, Type (0, 1), BuildingBlock: CIFDUS_clean_linker_0, # of connection points: 2
#     Edge 14, Type (0, 1), BuildingBlock: CIFDUS_clean_linker_0, # of connection points: 2
#     Edge 15, Type (0, 1), BuildingBlock: CIFDUS_clean_linker_0, # of connection points: 2
#     Edge 16, Type (0, 1), BuildingBlock: CIFDUS_clean_linker_0, # of connection points: 2
#     Edge 17, Type (0, 1), BuildingBlock: CIFDUS_clean_linker_0, # of connection points: 2
#     Edge 18, Type (0, 1), BuildingBlock: CIFDUS_clean_linker_0, # of connection points: 2
#     Edge 19, Type (0, 1), BuildingBlock: CIFDUS_clean_linker_0, # of connection points: 2
#     Edge 20, Type (0, 1), BuildingBlock: CIFDUS_clean_linker_0, # of connection points: 2
#     Edge 21, Type (0, 1), BuildingBlock: CIFDUS_clean_linker_0, # of connection points: 2
#     Edge 22, Type (0, 1), BuildingBlock: CIFDUS_clean_linker_0, # of connection points: 2
#     Edge 23, Type (0, 1), BuildingBlock: CIFDUS_clean_linker_0, # of connection points: 2
#     Edge 24, Type (0, 1), BuildingBlock: CIFDUS_clean_linker_0, # of connection points: 2
#     Edge 25, Type (0, 1), BuildingBlock: CIFDUS_clean_linker_0, # of connection points: 2
#     Edge 26, Type (0, 1), BuildingBlock: CIFDUS_clean_linker_0, # of connection points: 2
#     Edge 27, Type (0, 1), BuildingBlock: CIFDUS_clean_linker_0, # of connection points: 2
#     Edge 28, Type (0, 1), BuildingBlock: CIFDUS_clean_linker_0, # of connection points: 2
#     Edge 29, Type (0, 1), BuildingBlock: CIFDUS_clean_linker_0, # of connection points: 2
#     Edge 30, Type (0, 1), BuildingBlock: CIFDUS_clean_linker_0, # of connection points: 2
#     Edge 31, Type (0, 1), BuildingBlock: CIFDUS_clean_linker_0, # of connection points: 2
#     Edge 32, Type (0, 1), BuildingBlock: CIFDUS_clean_linker_0, # of connection points: 2
#     Edge 33, Type (0, 1), BuildingBlock: CIFDUS_clean_linker_0, # of connection points: 2
#     Edge 34, Type (0, 1), BuildingBlock: CIFDUS_clean_linker_0, # of connection points: 2
#     Edge 35, Type (0, 1), BuildingBlock: CIFDUS_clean_linker_0, # of connection points: 2
# Relax obj value: 0.034
# Max RMSD: 0.048
# Mean RMSD: 0.037
data_MOF--net-ssa--node1-NAWXER_clean_sbu_0--node2-MUDLON_clean_sbu_0--edge1-CIFDUS_clean_linker_0
_symmetry_space_group_name_H-M    P1
_symmetry_Int_Tables_number       1
_symmetry_cell_setting            triclinic
loop_
_symmetry_equiv_pos_as_xyz
'x, y, z'
_cell_length_a     37.588854
_cell_length_b     37.386437
_cell_length_c     33.93782
_cell_angle_alpha  89.696172
_cell_angle_beta   90.666306
_cell_angle_gamma 120.44105
loop_
_atom_site_label
_atom_site_type_symbol
_atom_site_fract_x
_atom_site_fract_y
_atom_site_fract_z
_atom_type_partial_charge
C0 C 0.03117 0.60522 0.07584 0.0
C1 C 0.93837 0.4731 1.01114 0.0
O2 O 0.99382 0.58043 0.08536 0.0
Zn3 Zn 0.98473 0.53628 0.04903 0.0
O4 O 0.0485 0.59407 0.05028 0.0
Zn5 Zn 0.03386 0.54297 1.01226 0.0
O6 O 0.04487 0.57143 0.96165 0.0
O7 O 0.99254 0.56832 0.99379 0.0
O8 O 0.97538 0.49088 0.99857 0.0
O9 O 0.92982 0.48723 0.04133 0.0
O10 O 0.0213 0.5135 0.07572 0.0
O11 O 0.06731 0.52006 0.03237 0.0
C12 C 0.01594 0.57977 0.96353 0.0
C13 C 0.05166 0.50886 0.0664 0.0
C14 C 0.41785 0.99759 0.60098 0.0
C15 C 0.48119 0.95709 0.49786 0.0
O16 O 0.41803 0.96371 0.5988 0.0
Zn17 Zn 0.45085 0.97729 0.5513 0.0
O18 O 0.43738 0.02609 0.57532 0.0
Zn19 Zn 0.47465 0.03642 0.52414 0.0
O20 O 0.44338 0.04587 0.48387 0.0
O21 O 0.41098 0.98255 0.50882 0.0
O22 O 0.48919 0.99467 0.49435 0.0
O23 O 0.46006 0.93555 0.52694 0.0
O24 O 0.51048 0.0244 0.57288 0.0
O25 O 0.52734 0.08254 0.54134 0.0
C26 C 0.41154 0.00983 0.48537 0.0
C27 C 0.53572 0.06321 0.56728 0.0
C28 C 0.49397 0.43107 1.00653 0.0
C29 C 0.55252 0.55864 0.08397 0.0
O30 O 0.48904 0.4591 0.9895 0.0
Zn31 Zn 0.50783 0.52383 1.0001 0.0
O32 O 0.51558 0.44004 0.03797 0.0
Zn33 Zn 0.52936 0.49693 0.04169 0.0
O34 O 0.46885 0.48851 0.05115 0.0
O35 O 0.45477 0.52021 1.00333 0.0
O36 O 0.55886 0.52855 0.08847 0.0
O37 O 0.53512 0.56101 0.05218 0.0
O38 O 0.54334 0.55384 0.9565 0.0
O39 O 0.57005 0.52427 0.99289 0.0
C40 C 0.44454 0.49918 0.03509 0.0
C41 C 0.57151 0.54512 0.96226 0.0
C42 C 0.06798 0.57525 0.48023 0.0
C43 C 0.00888 0.44706 0.5592 0.0
O44 O 0.08793 0.57859 0.5122 0.0
Zn45 Zn 0.08611 0.54066 0.56076 0.0
O46 O 0.03557 0.5409 0.4719 0.0
Zn47 Zn 0.0378 0.50999 0.51758 0.0
O48 O 0.02387 0.53713 0.56587 0.0
O49 O 0.0789 0.56921 0.60481 0.0
O50 O 0.99699 0.45149 0.52518 0.0
O51 O 0.04156 0.4774 0.5745 0.0
O52 O 0.13818 0.54168 0.5536 0.0
O53 O 0.0938 0.512 0.50443 0.0
C54 C 0.04154 0.55826 0.59698 0.0
C55 C 0.12977 0.52547 0.51942 0.0
C56 C 0.56335 0.96163 0.05968 0.0
C57 C 0.50973 0.0362 0.98376 0.0
O58 O 0.57238 0.99655 0.07496 0.0
Zn59 Zn 0.56179 0.04657 0.06295 0.0
O60 O 0.54223 0.94988 0.0279 0.0
Zn61 Zn 0.5341 0.99678 0.0218 0.0
O62 O 0.59479 0.04643 1.0066 0.0
O63 O 0.61679 0.09315 0.05408 0.0
O64 O 0.50241 0.99958 0.97718 0.0
O65 O 0.53028 0.05553 1.01462 0.0
O66 O 0.53051 0.04574 0.10839 0.0
O67 O 0.49611 0.98977 0.07166 0.0
C68 C 0.62252 0.08145 0.02078 0.0
C69 C 0.49837 0.01053 0.10251 0.0
C70 C 0.59594 0.51295 0.5332 0.0
C71 C 0.46914 0.4555 0.45268 0.0
O72 O 0.5667 0.515 0.55012 0.0
Zn73 Zn 0.50315 0.49637 0.53844 0.0
O74 O 0.58946 0.49579 0.49953 0.0
Zn75 Zn 0.53257 0.48229 0.49327 0.0
O76 O 0.53949 0.54288 0.49025 0.0
O77 O 0.50599 0.5495 0.54004 0.0
O78 O 0.50298 0.45724 0.44484 0.0
O79 O 0.46504 0.46841 0.48638 0.0
O80 O 0.47578 0.4568 0.58057 0.0
O81 O 0.50233 0.43432 0.53618 0.0
C82 C 0.52817 0.56473 0.5096 0.0
C83 C 0.48259 0.4288 0.56828 0.0
Mg84 Mg 0.24059 0.46366 0.26636 0.0
C85 C 0.1757 0.42903 0.19898 0.0
O86 O 0.20026 0.41678 0.18533 0.0
C87 C 0.29609 0.44161 0.3088 0.0
O88 O 0.32032 0.47357 0.2867 0.0
C89 C 0.25676 0.51597 0.34031 0.0
O90 O 0.27697 0.49747 0.35139 0.0
O91 O 0.24397 0.51203 0.30474 0.0
O92 O 0.18146 0.44299 0.23417 0.0
O93 O 0.28398 0.48076 0.21816 0.0
C94 C 0.28601 0.4495 0.20657 0.0
O95 O 0.26383 0.41386 0.22473 0.0
O96 O 0.25712 0.42714 0.30674 0.0
Mg97 Mg 0.78877 0.26045 0.7677 0.0
C98 C 0.72265 0.20462 0.71424 0.0
O99 O 0.74208 0.18497 0.72445 0.0
C100 C 0.82281 0.31403 0.83895 0.0
O101 O 0.82847 0.28291 0.84723 0.0
C102 C 0.74587 0.20914 0.83511 0.0
O103 O 0.7349 0.23732 0.83261 0.0
O104 O 0.77011 0.20895 0.80924 0.0
O105 O 0.73509 0.24037 0.72898 0.0
O106 O 0.83976 0.27752 0.72693 0.0
C107 C 0.87692 0.30366 0.73639 0.0
O108 O 0.88552 0.31614 0.77318 0.0
O109 O 0.80665 0.31448 0.8058 0.0
Mg110 Mg 0.55595 0.77756 0.29707 0.0
C111 C 0.59027 0.82349 0.22061 0.0
O112 O 0.57251 0.78517 0.20771 0.0
C113 C 0.57512 0.75796 0.37783 0.0
O114 O 0.54822 0.76904 0.3869 0.0
C115 C 0.53436 0.83259 0.33983 0.0
O116 O 0.5724 0.85719 0.3281 0.0
O117 O 0.51595 0.79465 0.32904 0.0
O118 O 0.59212 0.82987 0.25762 0.0
O119 O 0.52909 0.72231 0.25881 0.0
C120 C 0.5526 0.70742 0.25304 0.0
O121 O 0.5875 0.72319 0.27297 0.0
O122 O 0.58839 0.76347 0.34267 0.0
Mg123 Mg 0.81862 0.59042 0.76658 0.0
C124 C 0.77474 0.5801 0.69186 0.0
O125 O 0.77723 0.54646 0.6957 0.0
C126 C 0.90519 0.64438 0.8028 0.0
O127 O 0.91811 0.64222 0.76768 0.0
C128 C 0.74944 0.57871 0.81342 0.0
O129 O 0.76354 0.61458 0.79552 0.0
O130 O 0.7666 0.5575 0.80636 0.0
O131 O 0.79209 0.6085 0.7179 0.0
O132 O 0.84546 0.5568 0.73952 0.0
C133 C 0.86934 0.57713 0.71129 0.0
O134 O 0.87228 0.6123 0.70037 0.0
O135 O 0.86739 0.63356 0.80713 0.0
Mg136 Mg 0.21809 0.82671 0.27779 0.0
C137 C 0.16598 0.80498 0.20507 0.0
O138 O 0.20289 0.82348 0.18943 0.0
C139 C 0.22008 0.87106 0.35235 0.0
O140 O 0.19082 0.83346 0.36186 0.0
C141 C 0.17276 0.73648 0.30322 0.0
O142 O 0.16025 0.73186 0.26632 0.0
O143 O 0.20012 0.7724 0.31525 0.0
O144 O 0.16317 0.8072 0.24209 0.0
O145 O 0.27236 0.84611 0.24029 0.0
C146 C 0.29946 0.88464 0.23881 0.0
O147 O 0.29462 0.91063 0.2608 0.0
O148 O 0.23355 0.87782 0.31736 0.0
Mg149 Mg 0.41149 0.19783 0.79661 0.0
C150 C 0.3643 0.11143 0.76351 0.0
O151 O 0.37569 0.10322 0.79749 0.0
C152 C 0.39839 0.22603 0.87588 0.0
O153 O 0.41234 0.20214 0.88859 0.0
C154 C 0.47827 0.19335 0.84796 0.0
O155 O 0.49579 0.23386 0.8509 0.0
O156 O 0.44599 0.17346 0.82684 0.0
O157 O 0.36884 0.14727 0.75829 0.0
O158 O 0.44727 0.25117 0.75852 0.0
C159 C 0.43921 0.249 0.72178 0.0
O160 O 0.41358 0.21271 0.70609 0.0
O161 O 0.38875 0.2245 0.8396 0.0
H162 H 0.09416 0.46845 0.05367 0.0
H163 H 0.04855 0.51253 0.14634 0.0
H164 H 0.08024 0.48952 0.19596 0.0
H165 H 0.12444 0.46019 0.21316 0.0
H166 H 0.1668 0.41296 0.12013 0.0
H167 H 0.13252 0.43313 0.07116 0.0
C168 C 0.09105 0.47287 0.08473 0.0
C169 C 0.06933 0.49258 0.09615 0.0
C170 C 0.10873 0.45881 0.1133 0.0
C171 C 0.0651 0.49748 0.13662 0.0
C172 C 0.08329 0.48437 0.16511 0.0
C173 C 0.12564 0.4537 0.18225 0.0
C174 C 0.14864 0.43532 0.17063 0.0
C175 C 0.10559 0.46534 0.15384 0.0
C176 C 0.14958 0.42713 0.13027 0.0
C177 C 0.13009 0.43888 0.102 0.0
H178 H 0.5769 0.14497 0.58882 0.0
H179 H 0.5771 0.03042 0.6041 0.0
H180 H 0.63498 0.06431 0.65037 0.0
H181 H 0.68408 0.12545 0.68784 0.0
H182 H 0.68288 0.23979 0.67594 0.0
H183 H 0.62662 0.20696 0.62729 0.0
C184 C 0.59 0.12764 0.60196 0.0
C185 C 0.5729 0.08527 0.59281 0.0
C186 C 0.62275 0.14714 0.62946 0.0
C187 C 0.5897 0.06302 0.6106 0.0
C188 C 0.62274 0.08236 0.63713 0.0
C189 C 0.67164 0.14335 0.67463 0.0
C190 C 0.68779 0.1851 0.68554 0.0
C191 C 0.63922 0.12423 0.64705 0.0
C192 C 0.67098 0.20759 0.66821 0.0
C193 C 0.63889 0.18885 0.64028 0.0
H194 H 0.51087 0.5989 0.09827 0.0
H195 H 0.60759 0.58061 0.14537 0.0
H196 H 0.61483 0.6237 0.20248 0.0
H197 H 0.59365 0.66639 0.23892 0.0
H198 H 0.49503 0.6825 0.19321 0.0
H199 H 0.488 0.6397 0.13599 0.0
C200 C 0.53394 0.6048 0.12078 0.0
C201 C 0.55924 0.58716 0.1172 0.0
C202 C 0.53711 0.62864 0.15404 0.0
C203 C 0.5881 0.59415 0.1472 0.0
C204 C 0.59209 0.61862 0.17993 0.0
C205 C 0.5704 0.66039 0.21659 0.0
C206 C 0.54492 0.67779 0.22044 0.0
C207 C 0.56665 0.63588 0.18372 0.0
C208 C 0.51488 0.66939 0.19122 0.0
C209 C 0.51107 0.64516 0.15831 0.0
H210 H 0.96451 0.50512 0.62098 0.0
H211 H 0.06365 0.63176 0.63309 0.0
H212 H 0.01871 0.6484 0.67108 0.0
H213 H 0.94973 0.62772 0.69619 0.0
H214 H 0.85201 0.50001 0.6884 0.0
H215 H 0.89801 0.48252 0.65335 0.0
C216 C 0.97626 0.53625 0.63234 0.0
C217 C 0.01694 0.56745 0.62401 0.0
C218 C 0.95053 0.54522 0.65456 0.0
C219 C 0.03236 0.60745 0.63926 0.0
C220 C 0.00665 0.61691 0.66072 0.0
C221 C 0.9387 0.596 0.68705 0.0
C222 C 0.89755 0.56518 0.69413 0.0
C223 C 0.96548 0.58622 0.66781 0.0
C224 C 0.8836 0.52409 0.683 0.0
C225 C 0.9098 0.51421 0.66292 0.0
H226 H 0.43356 0.93101 0.10649 0.0
H227 H 0.48615 0.05029 0.16372 0.0
H228 H 0.42991 0.02155 0.21109 0.0
H229 H 0.36548 0.96301 0.23584 0.0
H230 H 0.31321 0.84321 0.17979 0.0
H231 H 0.36984 0.87167 0.1326 0.0
C232 C 0.4327 0.95079 0.12925 0.0
C233 C 0.46404 0.99292 0.13129 0.0
C234 C 0.4004 0.93392 0.15673 0.0
C235 C 0.46254 0.01786 0.16132 0.0
C236 C 0.43034 1.00142 0.18847 0.0
C237 C 0.36643 0.94299 0.21339 0.0
C238 C 0.33493 0.90097 0.21137 0.0
C239 C 0.39908 0.95955 0.1864 0.0
C240 C 0.33698 0.87558 0.18216 0.0
C241 C 0.36932 0.8919 0.15505 0.0
H242 H 0.48625 0.42289 0.64776 0.0
H243 H 0.45446 0.3509 0.54086 0.0
H244 H 0.4395 0.28904 0.57876 0.0
H245 H 0.43565 0.25553 0.64225 0.0
H246 H 0.4717 0.32843 0.74895 0.0
H247 H 0.48564 0.38994 0.71119 0.0
C248 C 0.47555 0.39348 0.63295 0.0
C249 C 0.47072 0.39112 0.59174 0.0
C250 C 0.46845 0.35842 0.65481 0.0
C251 C 0.45798 0.35323 0.57264 0.0
C252 C 0.44963 0.31796 0.59426 0.0
C253 C 0.44687 0.28494 0.65723 0.0
C254 C 0.45251 0.28727 0.69839 0.0
C255 C 0.45495 0.32023 0.63533 0.0
C256 C 0.4673 0.32573 0.71728 0.0
C257 C 0.47497 0.3609 0.69574 0.0
H258 H 0.44986 0.87506 0.47872 0.0
H259 H 0.5445 0.99915 0.44722 0.0
H260 H 0.56769 0.97161 0.39491 0.0
H261 H 0.56194 0.91281 0.35835 0.0
H262 H 0.46683 0.78827 0.38742 0.0
H263 H 0.44259 0.81543 0.43985 0.0
C264 C 0.47572 0.896 0.46055 0.0
C265 C 0.49562 0.93918 0.4672 0.0
C266 C 0.48856 0.87991 0.42977 0.0
C267 C 0.52865 0.96587 0.44291 0.0
C268 C 0.54193 0.95014 0.41288 0.0
C269 C 0.53572 0.89149 0.37595 0.0
C270 C 0.51631 0.8485 0.36891 0.0
C271 C 0.52213 0.90729 0.40601 0.0
C272 C 0.48222 0.8215 0.39197 0.0
C273 C 0.46854 0.83703 0.42217 0.0
H274 H 0.6195 0.51059 0.95155 0.0
H275 H 0.59662 0.60518 0.90596 0.0
H276 H 0.64895 0.62302 0.85568 0.0
H277 H 0.70099 0.61193 0.82469 0.0
H278 H 0.72296 0.51607 0.86818 0.0
H279 H 0.67077 0.49817 0.91901 0.0
C280 C 0.6262 0.53532 0.93078 0.0
C281 C 0.6044 0.5568 0.93275 0.0
C282 C 0.65585 0.54491 0.90139 0.0
C283 C 0.61297 0.58826 0.90519 0.0
C284 C 0.64286 0.59843 0.87638 0.0
C285 C 0.69439 0.58702 0.84521 0.0
C286 C 0.71602 0.56547 0.84269 0.0
C287 C 0.66439 0.57692 0.87417 0.0
C288 C 0.70672 0.53308 0.86935 0.0
C289 C 0.67701 0.52298 0.89854 0.0
H290 H 0.06047 0.57212 0.39993 0.0
H291 H 0.11845 0.65685 0.49709 0.0
H292 H 0.1571 0.71382 0.45122 0.0
H293 H 0.17623 0.73945 0.38357 0.0
H294 H 0.11909 0.65494 0.28603 0.0
H295 H 0.07899 0.59819 0.33182 0.0
C296 C 0.08097 0.60321 0.41099 0.0
C297 C 0.08624 0.61025 0.45189 0.0
C298 C 0.10394 0.63582 0.38436 0.0
C299 C 0.11364 0.65059 0.46575 0.0
C300 C 0.13599 0.68319 0.43953 0.0
C301 C 0.15528 0.70856 0.37229 0.0
C302 C 0.15099 0.70153 0.33135 0.0
C303 C 0.13187 0.67609 0.39879 0.0
C304 C 0.12323 0.66131 0.31737 0.0
C305 C 0.10007 0.6288 0.34355 0.0
H306 H 0.54273 0.11913 0.97858 0.0
H307 H 0.45327 1.00433 0.92279 0.0
H308 H 0.43714 0.04322 0.87445 0.0
H309 H 0.44763 0.10981 0.84927 0.0
H310 H 0.53833 0.22423 0.90505 0.0
H311 H 0.55525 0.18527 0.95198 0.0
C312 C 0.51943 0.10245 0.95605 0.0
C313 C 0.49874 0.05878 0.95465 0.0
C314 C 0.51087 0.12496 0.9282 0.0
C315 C 0.46937 0.03786 0.92469 0.0
C316 C 0.46025 0.06011 0.89703 0.0
C317 C 0.47133 0.12631 0.87151 0.0
C318 C 0.49156 0.16999 0.8737 0.0
C319 C 0.48075 0.10367 0.89861 0.0
C320 C 0.5223 0.19074 0.90261 0.0
C321 C 0.53185 0.16846 0.92961 0.0
H322 H 0.38864 0.43594 0.46142 0.0
H323 H 0.4763 0.4473 0.37393 0.0
H324 H 0.42736 0.4377 0.32158 0.0
H325 H 0.3636 0.43524 0.30032 0.0
H326 H 0.27475 0.42274 0.38644 0.0
H327 H 0.31961 0.42258 0.43955 0.0
C328 C 0.39678 0.43565 0.43092 0.0
C329 C 0.4365 0.443 0.42174 0.0
C330 C 0.36822 0.42991 0.40067 0.0
C331 C 0.4462 0.44198 0.38202 0.0
C332 C 0.41821 0.43659 0.35194 0.0
C333 C 0.35354 0.43127 0.33069 0.0
C334 C 0.31602 0.42912 0.3395 0.0
C335 C 0.37969 0.43176 0.36088 0.0
C336 C 0.30328 0.424 0.37889 0.0
C337 C 0.32922 0.42447 0.40927 0.0
H338 H 0.91853 0.47908 0.93648 0.0
H339 H 0.88803 0.39197 0.03167 0.0
H340 H 0.84582 0.33425 0.98643 0.0
H341 H 0.82489 0.30884 0.91828 0.0
H342 H 0.85408 0.39636 0.82346 0.0
H343 H 0.88914 0.45405 0.87015 0.0
C344 C 0.90173 0.44744 0.94737 0.0
C345 C 0.90613 0.43941 0.98711 0.0
C346 C 0.87779 0.41475 0.92122 0.0
C347 C 0.88459 0.39861 1.00121 0.0
C348 C 0.86084 0.36574 0.97529 0.0
C349 C 0.83843 0.34058 0.90799 0.0
C350 C 0.83752 0.34851 0.86747 0.0
C351 C 0.85831 0.37342 0.93502 0.0
C352 C 0.85449 0.3896 0.85449 0.0
C353 C 0.8747 0.42252 0.88114 0.0
H354 H 0.96445 0.61061 0.96463 0.0
H355 H 0.04667 0.59499 0.88831 0.0
H356 H 0.02387 0.6203 0.83238 0.0
H357 H 0.97464 0.63862 0.80411 0.0
H358 H 0.89001 0.65049 0.88041 0.0
H359 H 0.92045 0.63569 0.93762 0.0
C360 C 0.97779 0.6131 0.93586 0.0
C361 C 0.00684 0.6003 0.93059 0.0
C362 C 0.96406 0.627 0.90384 0.0
C363 C 0.02414 0.60438 0.89319 0.0
C364 C 0.01101 0.61876 0.86118 0.0
C365 C 0.9634 0.63894 0.83331 0.0
C366 C 0.9297 0.64529 0.83783 0.0
C367 C 0.98015 0.62905 0.86598 0.0
C368 C 0.91568 0.64552 0.87599 0.0
C369 C 0.93291 0.63678 0.90871 0.0
H370 H 0.33225 0.95265 0.49955 0.0
H371 H 0.41128 0.03904 0.41138 0.0
H372 H 0.35494 0.0075 0.3628 0.0
H373 H 0.28753 0.94819 0.34338 0.0
H374 H 0.20953 0.86103 0.43191 0.0
H375 H 0.2608 0.90082 0.48263 0.0
C376 C 0.33686 0.96505 0.46986 0.0
C377 C 0.37594 0.99748 0.4587 0.0
C378 C 0.30461 0.9465 0.44217 0.0
C379 C 0.38144 0.01391 0.4205 0.0
C380 C 0.34933 0.99573 0.39271 0.0
C381 C 0.28127 0.93841 0.3739 0.0
C382 C 0.24517 0.90105 0.38365 0.0
C383 C 0.31135 0.96092 0.40286 0.0
C384 C 0.23726 0.88929 0.42344 0.0
C385 C 0.26671 0.9119 0.45248 0.0
H386 H 0.44129 0.4001 0.94349 0.0
H387 H 0.50341 0.36659 0.03122 0.0
H388 H 0.47495 0.29818 1.00119 0.0
H389 H 0.43688 0.24987 0.94734 0.0
H390 H 0.37623 0.28383 0.85843 0.0
H391 H 0.39894 0.34962 0.89218 0.0
C392 C 0.44848 0.3778 0.95619 0.0
C393 C 0.47487 0.38877 0.98936 0.0
C394 C 0.43211 0.33845 0.93868 0.0
C395 C 0.48343 0.35921 1.00557 0.0
C396 C 0.46713 0.31999 0.98844 0.0
C397 C 0.42792 0.27126 0.93564 0.0
C398 C 0.40503 0.26188 0.90019 0.0
C399 C 0.44195 0.3095 0.95464 0.0
C400 C 0.39387 0.29017 0.88559 0.0
C401 C 0.40709 0.32797 0.90474 0.0
H402 H 0.14011 0.549 0.44421 0.0
H403 H 0.19233 0.50958 0.53649 0.0
H404 H 0.24107 0.50863 0.48924 0.0
H405 H 0.26308 0.51208 0.42027 0.0
H406 H 0.20961 0.55169 0.32886 0.0
H407 H 0.16766 0.56062 0.37765 0.0
C408 C 0.16232 0.54034 0.45401 0.0
C409 C 0.16219 0.52836 0.49337 0.0
C410 C 0.19001 0.54016 0.42695 0.0
C411 C 0.19174 0.51843 0.50615 0.0
C412 C 0.21945 0.51789 0.47915 0.0
C413 C 0.24289 0.52348 0.41107 0.0
C414 C 0.23905 0.53056 0.37074 0.0
C415 C 0.21815 0.52776 0.43925 0.0
C416 C 0.21295 0.54564 0.35953 0.0
C417 C 0.18873 0.5505 0.38739 0.0
H418 H 0.64989 0.06291 0.95424 0.0
H419 H 0.67134 0.16543 0.02864 0.0
H420 H 0.71532 0.21439 0.97842 0.0
H421 H 0.73935 0.22771 0.91002 0.0
H422 H 0.71931 0.12608 0.83547 0.0
H423 H 0.68329 0.07697 0.88922 0.0
C424 C 0.66491 0.09598 0.95984 0.0
C425 C 0.6568 0.11044 0.995 0.0
C426 C 0.6899 0.12403 0.93059 0.0
C427 C 0.67691 0.15339 1.00193 0.0
C428 C 0.70183 0.18145 0.97304 0.0
C429 C 0.72764 0.19482 0.90582 0.0
C430 C 0.73127 0.18026 0.86883 0.0
C431 C 0.7072 0.16706 0.93676 0.0
C432 C 0.71673 0.13783 0.86375 0.0
C433 C 0.69598 0.10983 0.89439 0.0
H434 H 0.58266 0.60835 0.45201 0.0
H435 H 0.49939 0.61512 0.53413 0.0
H436 H 0.51209 0.68002 0.50391 0.0
H437 H 0.54022 0.72978 0.44943 0.0
H438 H 0.621 0.72095 0.36557 0.0
H439 H 0.61663 0.66236 0.40194 0.0
C440 C 0.56754 0.62417 0.46361 0.0
C441 C 0.53954 0.60651 0.49488 0.0
C442 C 0.57456 0.6611 0.44579 0.0
C443 C 0.5208 0.62783 0.5099 0.0
C444 C 0.52801 0.66491 0.49259 0.0
C445 C 0.55756 0.71562 0.43946 0.0
C446 C 0.58042 0.72941 0.40443 0.0
C447 C 0.5539 0.68116 0.45982 0.0
C448 C 0.60295 0.71085 0.39224 0.0
C449 C 0.60023 0.67713 0.41288 0.0
H450 H 0.38807 0.04994 0.6005 0.0
H451 H 0.40251 0.96439 0.67524 0.0
H452 H 0.38033 0.98788 0.73221 0.0
H453 H 0.36652 0.03962 0.7618 0.0
H454 H 0.35282 0.12544 0.68644 0.0
H455 H 0.364 0.09417 0.6286 0.0
C456 C 0.38577 0.036 0.62918 0.0
C457 C 0.39761 1.00603 0.63385 0.0
C458 C 0.37324 0.04979 0.66169 0.0
C459 C 0.39374 0.98765 0.67095 0.0
C460 C 0.38124 1.00122 0.70354 0.0
C461 C 0.365 0.05091 0.73269 0.0
C462 C 0.35971 0.0855 0.72866 0.0
C463 C 0.37227 0.03327 0.69946 0.0
C464 C 0.35733 0.09926 0.69059 0.0
C465 C 0.36399 0.08154 0.65742 0.0
H466 H 0.40063 0.43493 0.083 0.0
H467 H 0.40759 0.54624 0.03786 0.0
H468 H 0.35776 0.54062 0.08718 0.0
H469 H 0.31768 0.50734 0.14763 0.0
H470 H 0.31286 0.39638 0.19171 0.0
H471 H 0.35686 0.39892 0.13863 0.0
C472 C 0.39062 0.45754 0.08349 0.0
C473 C 0.40773 0.491 0.05715 0.0
C474 C 0.36305 0.45464 0.11228 0.0
C475 C 0.39442 0.51997 0.05774 0.0
C476 C 0.36642 0.51706 0.08625 0.0
C477 C 0.32635 0.48383 0.14548 0.0
C478 C 0.31248 0.45204 0.17377 0.0
C479 C 0.35155 0.48521 0.11449 0.0
C480 C 0.32327 0.42128 0.17038 0.0
C481 C 0.34837 0.4226 0.14 0.0
H482 H 0.02578 0.43032 0.63283 0.0
H483 H 0.93135 0.38156 0.54223 0.0
H484 H 0.88315 0.32918 0.58817 0.0
H485 H 0.86542 0.30294 0.65638 0.0
H486 H 0.95972 0.35455 0.74708 0.0
H487 H 0.01024 0.39972 0.69873 0.0
C488 C 0.99489 0.40782 0.62277 0.0
C489 C 0.98224 0.41026 0.58407 0.0
C490 C 0.96705 0.37846 0.64961 0.0
C491 C 0.94206 0.38057 0.57176 0.0
C492 C 0.91433 0.35072 0.59815 0.0
C493 C 0.89721 0.32348 0.66545 0.0
C494 C 0.90857 0.32552 0.70552 0.0
C495 C 0.9261 0.35019 0.63752 0.0
C496 C 0.94993 0.35247 0.71661 0.0
C497 C 0.9789 0.37844 0.68895 0.0
H498 H 0.60262 0.97616 0.13052 0.0
H499 H 0.5484 0.88468 0.03782 0.0
H500 H 0.55792 0.83567 0.07799 0.0
H501 H 0.57395 0.8163 0.14199 0.0
H502 H 0.62398 0.90639 0.23616 0.0
H503 H 0.62451 0.95878 0.19242 0.0
C504 C 0.59337 0.94571 0.11878 0.0
C505 C 0.57433 0.93397 0.08133 0.0
C506 C 0.59805 0.9174 0.14237 0.0
C507 C 0.56282 0.89445 0.06661 0.0
C508 C 0.5682 0.86638 0.08962 0.0
C509 C 0.5857 0.84758 0.15285 0.0
C510 C 0.59848 0.85724 0.1925 0.0
C511 C 0.58465 0.87713 0.12795 0.0
C512 C 0.61374 0.89802 0.20589 0.0
C513 C 0.61384 0.92794 0.18094 0.0
H514 H 0.62727 0.56918 0.59297 0.0
H515 H 0.65414 0.49111 0.52099 0.0
H516 H 0.71507 0.5091 0.56163 0.0
H517 H 0.75609 0.54088 0.62163 0.0
H518 H 0.73028 0.61977 0.69333 0.0
H519 H 0.67395 0.60826 0.64832 0.0
C520 C 0.64674 0.55647 0.58591 0.0
C521 C 0.63582 0.52832 0.55433 0.0
C522 C 0.68183 0.56707 0.60936 0.0
C523 C 0.66172 0.51268 0.54517 0.0
C524 C 0.6965 0.52285 0.5685 0.0
C525 C 0.73859 0.55616 0.62701 0.0
C526 C 0.74702 0.58082 0.66094 0.0
C527 C 0.70619 0.54913 0.60123 0.0
C528 C 0.72447 0.6008 0.66735 0.0
C529 C 0.69203 0.59389 0.64181 0.0
H530 H 0.01834 0.63534 0.14459 0.0
H531 H 0.09815 0.67047 0.0437 0.0
H532 H 0.14319 0.73849 0.07214 0.0
H533 H 0.16457 0.78494 0.12842 0.0
H534 H 0.0881 0.74992 0.23165 0.0
H535 H 0.03677 0.68583 0.19916 0.0
C536 C 0.0453 0.65814 0.12873 0.0
C537 C 0.05525 0.64752 0.09247 0.0
C538 C 0.07178 0.69735 0.14563 0.0
C539 C 0.09019 0.67746 0.07207 0.0
C540 C 0.11596 0.71654 0.08819 0.0
C541 C 0.13632 0.76376 0.14362 0.0
C542 C 0.13058 0.77202 0.18259 0.0
C543 C 0.10773 0.72638 0.1254 0.0
C544 C 0.09351 0.7443 0.20164 0.0
C545 C 0.06424 0.70739 0.1832 0.0
loop_
_geom_bond_atom_site_label_1
_geom_bond_atom_site_label_2
_geom_bond_distance
_geom_bond_site_symmetry_2
_ccdc_geom_bond_type
C0 O2 1.247 . S
C0 O4 1.258 . S
C1 O8 1.247 1_655 S
C1 O9 1.258 . S
O2 C0 1.247 . S
O2 Zn3 2.028 1_455 S
Zn3 O2 2.028 1_655 S
Zn3 O7 2.035 1_554 S
Zn3 O9 2.035 1_554 S
Zn3 O10 2.028 1_655 S
O4 C0 1.258 . S
O4 Zn5 2.035 1_554 S
Zn5 O4 2.035 1_556 S
Zn5 O6 2.028 . S
Zn5 O8 2.028 . S
Zn5 O11 2.035 1_556 S
O6 Zn5 2.028 . S
O6 C12 1.247 1_455 S
O7 Zn3 2.035 1_556 S
O7 C12 1.258 . S
O8 C1 1.247 1_455 S
O8 Zn5 2.028 . S
O9 C1 1.258 . S
O9 Zn3 2.035 1_556 S
O10 Zn3 2.028 1_455 S
O10 C13 1.247 . S
O11 Zn5 2.035 1_554 S
O11 C13 1.258 . S
C12 O6 1.247 1_655 S
C12 O7 1.258 . S
C13 O10 1.247 . S
C13 O11 1.258 . S
C14 O16 1.247 . S
C14 O18 1.258 . S
C15 O22 1.247 1_565 S
C15 O23 1.258 . S
O16 C14 1.247 . S
O16 Zn17 2.028 1_545 S
Zn17 O16 2.028 1_565 S
Zn17 O21 2.035 . S
Zn17 O23 2.035 . S
Zn17 O24 2.028 1_565 S
O18 C14 1.258 . S
O18 Zn19 2.035 . S
Zn19 O18 2.035 . S
Zn19 O20 2.028 . S
Zn19 O22 2.028 . S
Zn19 O25 2.035 . S
O20 Zn19 2.028 . S
O20 C26 1.247 1_545 S
O21 Zn17 2.035 . S
O21 C26 1.258 . S
O22 C15 1.247 1_545 S
O22 Zn19 2.028 . S
O23 C15 1.258 . S
O23 Zn17 2.035 . S
O24 Zn17 2.028 1_545 S
O24 C27 1.247 . S
O25 Zn19 2.035 . S
O25 C27 1.258 . S
C26 O20 1.247 1_565 S
C26 O21 1.258 . S
C27 O24 1.247 . S
C27 O25 1.258 . S
C28 O30 1.247 . S
C28 O32 1.258 . S
C29 O36 1.247 . S
C29 O37 1.258 . S
O30 C28 1.247 . S
O30 Zn31 2.028 . S
Zn31 O30 2.028 . S
Zn31 O35 2.035 1_556 S
Zn31 O37 2.035 1_556 S
Zn31 O38 2.028 . S
O32 C28 1.258 . S
O32 Zn33 2.035 1_556 S
Zn33 O32 2.035 1_554 S
Zn33 O34 2.028 . S
Zn33 O36 2.028 . S
Zn33 O39 2.035 1_554 S
O34 Zn33 2.028 . S
O34 C40 1.247 . S
O35 Zn31 2.035 1_554 S
O35 C40 1.258 . S
O36 C29 1.247 . S
O36 Zn33 2.028 . S
O37 C29 1.258 . S
O37 Zn31 2.035 1_554 S
O38 Zn31 2.028 . S
O38 C41 1.247 . S
O39 Zn33 2.035 1_556 S
O39 C41 1.258 . S
C40 O34 1.247 . S
C40 O35 1.258 . S
C41 O38 1.247 . S
C41 O39 1.258 . S
C42 O44 1.247 . S
C42 O46 1.247 1_455 S
C43 O50 1.247 . S
C43 O51 1.258 1_655 S
O44 C42 1.247 . S
O44 Zn45 2.028 . S
Zn45 O44 2.028 . S
Zn45 O49 2.035 . S
Zn45 O51 2.035 . S
Zn45 O52 2.028 . S
O46 C42 1.247 1_655 S
O46 Zn47 2.037 . S
Zn47 O46 2.037 . S
Zn47 O48 2.028 . S
Zn47 O50 2.028 . S
Zn47 O53 2.048 . S
O48 Zn47 2.028 . S
O48 C54 1.247 . S
O49 Zn45 2.035 . S
O49 C54 1.258 1_455 S
O50 C43 1.247 . S
O50 Zn47 2.028 . S
O51 C43 1.258 1_455 S
O51 Zn45 2.035 . S
O52 Zn45 2.028 . S
O52 C55 1.247 . S
O53 Zn47 2.048 . S
O53 C55 1.243 1_655 S
C54 O48 1.247 . S
C54 O49 1.258 1_655 S
C55 O52 1.247 . S
C55 O53 1.243 1_455 S
C56 O58 1.247 1_565 S
C56 O60 1.258 . S
C57 O64 1.267 . S
C57 O65 1.258 . S
O58 C56 1.247 1_545 S
O58 Zn59 2.028 . S
Zn59 O58 2.028 . S
Zn59 O63 2.035 1_554 S
Zn59 O65 2.035 1_554 S
Zn59 O66 2.028 . S
O60 C56 1.258 . S
O60 Zn61 2.035 1_554 S
Zn61 O60 2.035 1_556 S
Zn61 O62 2.025 1_565 S
Zn61 O64 2.011 1_565 S
Zn61 O67 2.035 1_556 S
O62 Zn61 2.025 1_545 S
O62 C68 1.261 . S
O63 Zn59 2.035 1_556 S
O63 C68 1.258 . S
O64 C57 1.267 . S
O64 Zn61 2.011 1_545 S
O65 C57 1.258 . S
O65 Zn59 2.035 1_556 S
O66 Zn59 2.028 . S
O66 C69 1.247 1_545 S
O67 Zn61 2.035 1_554 S
O67 C69 1.258 . S
C68 O62 1.261 . S
C68 O63 1.258 . S
C69 O66 1.247 1_565 S
C69 O67 1.258 . S
C70 O72 1.247 . S
C70 O74 1.258 . S
C71 O78 1.247 . S
C71 O79 1.258 . S
O72 C70 1.247 . S
O72 Zn73 2.028 . S
Zn73 O72 2.028 . S
Zn73 O77 2.035 . S
Zn73 O79 2.035 . S
Zn73 O80 2.028 . S
O74 C70 1.258 . S
O74 Zn75 2.035 . S
Zn75 O74 2.035 . S
Zn75 O76 2.028 . S
Zn75 O78 2.028 . S
Zn75 O81 2.035 . S
O76 Zn75 2.028 . S
O76 C82 1.247 . S
O77 Zn73 2.035 . S
O77 C82 1.258 . S
O78 C71 1.247 . S
O78 Zn75 2.028 . S
O79 C71 1.258 . S
O79 Zn73 2.035 . S
O80 Zn73 2.028 . S
O80 C83 1.247 . S
O81 Zn75 2.035 . S
O81 C83 1.258 . S
C82 O76 1.247 . S
C82 O77 1.258 . S
C83 O80 1.247 . S
C83 O81 1.258 . S
Mg84 O91 2.141 . S
Mg84 O92 2.048 . S
Mg84 O93 2.048 . S
Mg84 O96 2.141 . S
C85 O86 1.313 . S
C85 O92 1.195 . S
O86 C85 1.313 . S
C87 O88 1.245 . S
C87 O96 1.289 . S
O88 C87 1.245 . S
C89 O90 1.245 . S
C89 O91 1.289 . S
O90 C89 1.245 . S
O91 Mg84 2.141 . S
O91 C89 1.289 . S
O92 Mg84 2.048 . S
O92 C85 1.195 . S
O93 Mg84 2.048 . S
O93 C94 1.195 . S
C94 O93 1.195 . S
C94 O95 1.313 . S
O95 C94 1.313 . S
O96 Mg84 2.141 . S
O96 C87 1.289 . S
Mg97 O104 2.141 . S
Mg97 O105 2.048 . S
Mg97 O106 2.048 . S
Mg97 O109 2.141 . S
C98 O99 1.313 . S
C98 O105 1.195 . S
O99 C98 1.313 . S
C100 O101 1.245 . S
C100 O109 1.289 . S
O101 C100 1.245 . S
C102 O103 1.245 . S
C102 O104 1.289 . S
O103 C102 1.245 . S
O104 Mg97 2.141 . S
O104 C102 1.289 . S
O105 Mg97 2.048 . S
O105 C98 1.195 . S
O106 Mg97 2.048 . S
O106 C107 1.195 . S
C107 O106 1.195 . S
C107 O108 1.313 . S
O108 C107 1.313 . S
O109 Mg97 2.141 . S
O109 C100 1.289 . S
Mg110 O117 2.141 . S
Mg110 O118 2.048 . S
Mg110 O119 2.048 . S
Mg110 O122 2.141 . S
C111 O112 1.313 . S
C111 O118 1.195 . S
O112 C111 1.313 . S
C113 O114 1.245 . S
C113 O122 1.289 . S
O114 C113 1.245 . S
C115 O116 1.245 . S
C115 O117 1.289 . S
O116 C115 1.245 . S
O117 Mg110 2.141 . S
O117 C115 1.289 . S
O118 Mg110 2.048 . S
O118 C111 1.195 . S
O119 Mg110 2.048 . S
O119 C120 1.195 . S
C120 O119 1.195 . S
C120 O121 1.313 . S
O121 C120 1.313 . S
O122 Mg110 2.141 . S
O122 C113 1.289 . S
Mg123 O130 2.141 . S
Mg123 O131 2.048 . S
Mg123 O132 2.048 . S
Mg123 O135 2.141 . S
C124 O125 1.313 . S
C124 O131 1.195 . S
O125 C124 1.313 . S
C126 O127 1.245 . S
C126 O135 1.289 . S
O127 C126 1.245 . S
C128 O129 1.245 . S
C128 O130 1.289 . S
O129 C128 1.245 . S
O130 Mg123 2.141 . S
O130 C128 1.289 . S
O131 Mg123 2.048 . S
O131 C124 1.195 . S
O132 Mg123 2.048 . S
O132 C133 1.195 . S
C133 O132 1.195 . S
C133 O134 1.313 . S
O134 C133 1.313 . S
O135 Mg123 2.141 . S
O135 C126 1.289 . S
Mg136 O143 2.141 . S
Mg136 O144 2.048 . S
Mg136 O145 2.048 . S
Mg136 O148 2.141 . S
C137 O138 1.313 . S
C137 O144 1.195 . S
O138 C137 1.313 . S
C139 O140 1.245 . S
C139 O148 1.289 . S
O140 C139 1.245 . S
C141 O142 1.245 . S
C141 O143 1.289 . S
O142 C141 1.245 . S
O143 Mg136 2.141 . S
O143 C141 1.289 . S
O144 Mg136 2.048 . S
O144 C137 1.195 . S
O145 Mg136 2.048 . S
O145 C146 1.195 . S
C146 O145 1.195 . S
C146 O147 1.313 . S
O147 C146 1.313 . S
O148 Mg136 2.141 . S
O148 C139 1.289 . S
Mg149 O156 2.141 . S
Mg149 O157 2.048 . S
Mg149 O158 2.048 . S
Mg149 O161 2.141 . S
C150 O151 1.313 . S
C150 O157 1.195 . S
O151 C150 1.313 . S
C152 O153 1.245 . S
C152 O161 1.289 . S
O153 C152 1.245 . S
C154 O155 1.245 . S
C154 O156 1.289 . S
O155 C154 1.245 . S
O156 Mg149 2.141 . S
O156 C154 1.289 . S
O157 Mg149 2.048 . S
O157 C150 1.195 . S
O158 Mg149 2.048 . S
O158 C159 1.195 . S
C159 O158 1.195 . S
C159 O160 1.313 . S
O160 C159 1.313 . S
O161 Mg149 2.141 . S
O161 C152 1.289 . S
H162 C168 0.930 . S
H163 C171 0.930 . S
H164 C172 0.930 . S
H165 C173 0.930 . S
H166 C176 0.930 . S
H167 C177 0.930 . S
C168 H162 0.930 . S
C168 C169 1.355 . S
C168 C170 1.415 . S
C169 C168 1.355 . S
C169 C171 1.419 . S
C170 C168 1.415 . S
C170 C175 1.425 . S
C170 C177 1.409 . S
C171 H163 0.930 . S
C171 C169 1.419 . S
C171 C172 1.362 . S
C172 H164 0.930 . S
C172 C171 1.362 . S
C172 C175 1.409 . S
C173 H165 0.930 . S
C173 C174 1.355 . S
C173 C175 1.415 . S
C174 C173 1.355 . S
C174 C176 1.419 . S
C175 C170 1.425 . S
C175 C172 1.409 . S
C175 C173 1.415 . S
C176 H166 0.930 . S
C176 C174 1.419 . S
C176 C177 1.362 . S
C177 H167 0.930 . S
C177 C170 1.409 . S
C177 C176 1.362 . S
H178 C184 0.930 . S
H179 C187 0.930 . S
H180 C188 0.930 . S
H181 C189 0.930 . S
H182 C192 0.930 . S
H183 C193 0.930 . S
C184 H178 0.930 . S
C184 C185 1.355 . S
C184 C186 1.415 . S
C185 C184 1.355 . S
C185 C187 1.419 . S
C186 C184 1.415 . S
C186 C191 1.425 . S
C186 C193 1.409 . S
C187 H179 0.930 . S
C187 C185 1.419 . S
C187 C188 1.362 . S
C188 H180 0.930 . S
C188 C187 1.362 . S
C188 C191 1.409 . S
C189 H181 0.930 . S
C189 C190 1.355 . S
C189 C191 1.415 . S
C190 C189 1.355 . S
C190 C192 1.419 . S
C191 C186 1.425 . S
C191 C188 1.409 . S
C191 C189 1.415 . S
C192 H182 0.930 . S
C192 C190 1.419 . S
C192 C193 1.362 . S
C193 H183 0.930 . S
C193 C186 1.409 . S
C193 C192 1.362 . S
H194 C200 0.930 . S
H195 C203 0.930 . S
H196 C204 0.930 . S
H197 C205 0.930 . S
H198 C208 0.930 . S
H199 C209 0.930 . S
C200 H194 0.930 . S
C200 C201 1.355 . S
C200 C202 1.415 . S
C201 C200 1.355 . S
C201 C203 1.419 . S
C202 C200 1.415 . S
C202 C207 1.425 . S
C202 C209 1.409 . S
C203 H195 0.930 . S
C203 C201 1.419 . S
C203 C204 1.362 . S
C204 H196 0.930 . S
C204 C203 1.362 . S
C204 C207 1.409 . S
C205 H197 0.930 . S
C205 C206 1.355 . S
C205 C207 1.415 . S
C206 C205 1.355 . S
C206 C208 1.419 . S
C207 C202 1.425 . S
C207 C204 1.409 . S
C207 C205 1.415 . S
C208 H198 0.930 . S
C208 C206 1.419 . S
C208 C209 1.362 . S
C209 H199 0.930 . S
C209 C202 1.409 . S
C209 C208 1.362 . S
H210 C216 0.930 . S
H211 C219 0.930 . S
H212 C220 0.930 . S
H213 C221 0.930 . S
H214 C224 0.930 . S
H215 C225 0.930 . S
C216 H210 0.930 . S
C216 C217 1.355 . S
C216 C218 1.415 . S
C217 C216 1.355 . S
C217 C219 1.419 . S
C218 C216 1.415 . S
C218 C223 1.425 . S
C218 C225 1.409 . S
C219 H211 0.930 . S
C219 C217 1.419 . S
C219 C220 1.362 . S
C220 H212 0.930 . S
C220 C219 1.362 . S
C220 C223 1.409 . S
C221 H213 0.930 . S
C221 C222 1.355 . S
C221 C223 1.415 . S
C222 C221 1.355 . S
C222 C224 1.419 . S
C223 C218 1.425 . S
C223 C220 1.409 . S
C223 C221 1.415 . S
C224 H214 0.930 . S
C224 C222 1.419 . S
C224 C225 1.362 . S
C225 H215 0.930 . S
C225 C218 1.409 . S
C225 C224 1.362 . S
H226 C232 0.930 . S
H227 C235 0.930 . S
H228 C236 0.930 . S
H229 C237 0.930 . S
H230 C240 0.930 . S
H231 C241 0.930 . S
C232 H226 0.930 . S
C232 C233 1.355 . S
C232 C234 1.415 . S
C233 C232 1.355 . S
C233 C235 1.419 . S
C234 C232 1.415 . S
C234 C239 1.425 . S
C234 C241 1.409 . S
C235 H227 0.930 . S
C235 C233 1.419 . S
C235 C236 1.362 . S
C236 H228 0.930 . S
C236 C235 1.362 . S
C236 C239 1.409 . S
C237 H229 0.930 . S
C237 C238 1.355 . S
C237 C239 1.415 . S
C238 C237 1.355 . S
C238 C240 1.419 . S
C239 C234 1.425 . S
C239 C236 1.409 . S
C239 C237 1.415 . S
C240 H230 0.930 . S
C240 C238 1.419 . S
C240 C241 1.362 . S
C241 H231 0.930 . S
C241 C234 1.409 . S
C241 C240 1.362 . S
H242 C248 0.930 . S
H243 C251 0.930 . S
H244 C252 0.930 . S
H245 C253 0.930 . S
H246 C256 0.930 . S
H247 C257 0.930 . S
C248 H242 0.930 . S
C248 C249 1.355 . S
C248 C250 1.415 . S
C249 C248 1.355 . S
C249 C251 1.419 . S
C250 C248 1.415 . S
C250 C255 1.425 . S
C250 C257 1.409 . S
C251 H243 0.930 . S
C251 C249 1.419 . S
C251 C252 1.362 . S
C252 H244 0.930 . S
C252 C251 1.362 . S
C252 C255 1.409 . S
C253 H245 0.930 . S
C253 C254 1.355 . S
C253 C255 1.415 . S
C254 C253 1.355 . S
C254 C256 1.419 . S
C255 C250 1.425 . S
C255 C252 1.409 . S
C255 C253 1.415 . S
C256 H246 0.930 . S
C256 C254 1.419 . S
C256 C257 1.362 . S
C257 H247 0.930 . S
C257 C250 1.409 . S
C257 C256 1.362 . S
H258 C264 0.930 . S
H259 C267 0.930 . S
H260 C268 0.930 . S
H261 C269 0.930 . S
H262 C272 0.930 . S
H263 C273 0.930 . S
C264 H258 0.930 . S
C264 C265 1.355 . S
C264 C266 1.415 . S
C265 C264 1.355 . S
C265 C267 1.419 . S
C266 C264 1.415 . S
C266 C271 1.425 . S
C266 C273 1.409 . S
C267 H259 0.930 . S
C267 C265 1.419 . S
C267 C268 1.362 . S
C268 H260 0.930 . S
C268 C267 1.362 . S
C268 C271 1.409 . S
C269 H261 0.930 . S
C269 C270 1.355 . S
C269 C271 1.415 . S
C270 C269 1.355 . S
C270 C272 1.419 . S
C271 C266 1.425 . S
C271 C268 1.409 . S
C271 C269 1.415 . S
C272 H262 0.930 . S
C272 C270 1.419 . S
C272 C273 1.362 . S
C273 H263 0.930 . S
C273 C266 1.409 . S
C273 C272 1.362 . S
H274 C280 0.930 . S
H275 C283 0.930 . S
H276 C284 0.930 . S
H277 C285 0.930 . S
H278 C288 0.930 . S
H279 C289 0.930 . S
C280 H274 0.930 . S
C280 C281 1.355 . S
C280 C282 1.415 . S
C281 C280 1.355 . S
C281 C283 1.419 . S
C282 C280 1.415 . S
C282 C287 1.425 . S
C282 C289 1.409 . S
C283 H275 0.930 . S
C283 C281 1.419 . S
C283 C284 1.362 . S
C284 H276 0.930 . S
C284 C283 1.362 . S
C284 C287 1.409 . S
C285 H277 0.930 . S
C285 C286 1.355 . S
C285 C287 1.415 . S
C286 C285 1.355 . S
C286 C288 1.419 . S
C287 C282 1.425 . S
C287 C284 1.409 . S
C287 C285 1.415 . S
C288 H278 0.930 . S
C288 C286 1.419 . S
C288 C289 1.362 . S
C289 H279 0.930 . S
C289 C282 1.409 . S
C289 C288 1.362 . S
H290 C296 0.930 . S
H291 C299 0.930 . S
H292 C300 0.930 . S
H293 C301 0.930 . S
H294 C304 0.930 . S
H295 C305 0.930 . S
C296 H290 0.930 . S
C296 C297 1.355 . S
C296 C298 1.415 . S
C297 C296 1.355 . S
C297 C299 1.419 . S
C298 C296 1.415 . S
C298 C303 1.425 . S
C298 C305 1.409 . S
C299 H291 0.930 . S
C299 C297 1.419 . S
C299 C300 1.362 . S
C300 H292 0.930 . S
C300 C299 1.362 . S
C300 C303 1.409 . S
C301 H293 0.930 . S
C301 C302 1.355 . S
C301 C303 1.415 . S
C302 C301 1.355 . S
C302 C304 1.419 . S
C303 C298 1.425 . S
C303 C300 1.409 . S
C303 C301 1.415 . S
C304 H294 0.930 . S
C304 C302 1.419 . S
C304 C305 1.362 . S
C305 H295 0.930 . S
C305 C298 1.409 . S
C305 C304 1.362 . S
H306 C312 0.930 . S
H307 C315 0.930 . S
H308 C316 0.930 . S
H309 C317 0.930 . S
H310 C320 0.930 . S
H311 C321 0.930 . S
C312 H306 0.930 . S
C312 C313 1.355 . S
C312 C314 1.415 . S
C313 C312 1.355 . S
C313 C315 1.419 . S
C314 C312 1.415 . S
C314 C319 1.425 . S
C314 C321 1.409 . S
C315 H307 0.930 . S
C315 C313 1.419 . S
C315 C316 1.362 . S
C316 H308 0.930 . S
C316 C315 1.362 . S
C316 C319 1.409 . S
C317 H309 0.930 . S
C317 C318 1.355 . S
C317 C319 1.415 . S
C318 C317 1.355 . S
C318 C320 1.419 . S
C319 C314 1.425 . S
C319 C316 1.409 . S
C319 C317 1.415 . S
C320 H310 0.930 . S
C320 C318 1.419 . S
C320 C321 1.362 . S
C321 H311 0.930 . S
C321 C314 1.409 . S
C321 C320 1.362 . S
H322 C328 0.930 . S
H323 C331 0.930 . S
H324 C332 0.930 . S
H325 C333 0.930 . S
H326 C336 0.930 . S
H327 C337 0.930 . S
C328 H322 0.930 . S
C328 C329 1.355 . S
C328 C330 1.415 . S
C329 C328 1.355 . S
C329 C331 1.419 . S
C330 C328 1.415 . S
C330 C335 1.425 . S
C330 C337 1.409 . S
C331 H323 0.930 . S
C331 C329 1.419 . S
C331 C332 1.362 . S
C332 H324 0.930 . S
C332 C331 1.362 . S
C332 C335 1.409 . S
C333 H325 0.930 . S
C333 C334 1.355 . S
C333 C335 1.415 . S
C334 C333 1.355 . S
C334 C336 1.419 . S
C335 C330 1.425 . S
C335 C332 1.409 . S
C335 C333 1.415 . S
C336 H326 0.930 . S
C336 C334 1.419 . S
C336 C337 1.362 . S
C337 H327 0.930 . S
C337 C330 1.409 . S
C337 C336 1.362 . S
H338 C344 0.930 1_455 S
H339 C347 0.930 . S
H340 C348 0.930 . S
H341 C349 0.930 . S
H342 C352 0.930 . S
H343 C353 0.930 1_455 S
C344 H338 0.930 1_655 S
C344 C345 1.355 . S
C344 C346 1.415 . S
C345 C344 1.355 . S
C345 C347 1.419 . S
C346 C344 1.415 . S
C346 C351 1.425 . S
C346 C353 1.409 . S
C347 H339 0.930 . S
C347 C345 1.419 . S
C347 C348 1.362 . S
C348 H340 0.930 . S
C348 C347 1.362 . S
C348 C351 1.409 . S
C349 H341 0.930 . S
C349 C350 1.355 . S
C349 C351 1.415 . S
C350 C349 1.355 . S
C350 C352 1.419 . S
C351 C346 1.425 . S
C351 C348 1.409 . S
C351 C349 1.415 . S
C352 H342 0.930 . S
C352 C350 1.419 . S
C352 C353 1.362 . S
C353 H343 0.930 1_655 S
C353 C346 1.409 . S
C353 C352 1.362 . S
H354 C360 0.930 . S
H355 C363 0.944 . S
H356 C364 0.930 1_455 S
H357 C365 0.930 . S
H358 C368 0.930 . S
H359 C369 0.930 . S
C360 H354 0.930 . S
C360 C361 1.355 . S
C360 C362 1.415 . S
C361 C360 1.355 . S
C361 C363 1.414 1_655 S
C362 C360 1.415 . S
C362 C367 1.425 . S
C362 C369 1.409 . S
C363 H355 0.944 . S
C363 C361 1.414 1_455 S
C363 C364 1.354 1_455 S
C364 H356 0.930 1_655 S
C364 C363 1.354 1_655 S
C364 C367 1.409 . S
C365 H357 0.930 . S
C365 C366 1.355 . S
C365 C367 1.415 . S
C366 C365 1.355 . S
C366 C368 1.419 . S
C367 C362 1.425 . S
C367 C364 1.409 . S
C367 C365 1.415 . S
C368 H358 0.930 . S
C368 C366 1.419 . S
C368 C369 1.362 . S
C369 H359 0.930 . S
C369 C362 1.409 . S
C369 C368 1.362 . S
H370 C376 0.930 . S
H371 C379 0.930 1_545 S
H372 C380 0.930 . S
H373 C381 0.930 . S
H374 C384 0.930 . S
H375 C385 0.930 . S
C376 H370 0.930 . S
C376 C377 1.355 . S
C376 C378 1.415 . S
C377 C376 1.355 . S
C377 C379 1.419 . S
C378 C376 1.415 . S
C378 C383 1.425 . S
C378 C385 1.409 . S
C379 H371 0.930 1_565 S
C379 C377 1.419 . S
C379 C380 1.362 . S
C380 H372 0.930 . S
C380 C379 1.362 . S
C380 C383 1.409 . S
C381 H373 0.930 . S
C381 C382 1.355 . S
C381 C383 1.415 . S
C382 C381 1.355 . S
C382 C384 1.419 . S
C383 C378 1.425 . S
C383 C380 1.409 . S
C383 C381 1.415 . S
C384 H374 0.930 . S
C384 C382 1.419 . S
C384 C385 1.362 . S
C385 H375 0.930 . S
C385 C378 1.409 . S
C385 C384 1.362 . S
H386 C392 0.930 . S
H387 C395 0.930 . S
H388 C396 0.930 . S
H389 C397 0.930 . S
H390 C400 0.930 . S
H391 C401 0.930 . S
C392 H386 0.930 . S
C392 C393 1.355 . S
C392 C394 1.415 . S
C393 C392 1.355 . S
C393 C395 1.419 . S
C394 C392 1.415 . S
C394 C399 1.425 . S
C394 C401 1.409 . S
C395 H387 0.930 . S
C395 C393 1.419 . S
C395 C396 1.362 . S
C396 H388 0.930 . S
C396 C395 1.362 . S
C396 C399 1.409 . S
C397 H389 0.930 . S
C397 C398 1.355 . S
C397 C399 1.415 . S
C398 C397 1.355 . S
C398 C400 1.419 . S
C399 C394 1.425 . S
C399 C396 1.409 . S
C399 C397 1.415 . S
C400 H390 0.930 . S
C400 C398 1.419 . S
C400 C401 1.362 . S
C401 H391 0.930 . S
C401 C394 1.409 . S
C401 C400 1.362 . S
H402 C408 0.930 . S
H403 C411 0.930 . S
H404 C412 0.930 . S
H405 C413 0.930 . S
H406 C416 0.930 . S
H407 C417 0.930 . S
C408 H402 0.930 . S
C408 C409 1.355 . S
C408 C410 1.415 . S
C409 C408 1.355 . S
C409 C411 1.419 . S
C410 C408 1.415 . S
C410 C415 1.425 . S
C410 C417 1.409 . S
C411 H403 0.930 . S
C411 C409 1.419 . S
C411 C412 1.362 . S
C412 H404 0.930 . S
C412 C411 1.362 . S
C412 C415 1.409 . S
C413 H405 0.930 . S
C413 C414 1.355 . S
C413 C415 1.415 . S
C414 C413 1.355 . S
C414 C416 1.419 . S
C415 C410 1.425 . S
C415 C412 1.409 . S
C415 C413 1.415 . S
C416 H406 0.930 . S
C416 C414 1.419 . S
C416 C417 1.362 . S
C417 H407 0.930 . S
C417 C410 1.409 . S
C417 C416 1.362 . S
H418 C424 0.930 . S
H419 C427 0.930 . S
H420 C428 0.930 . S
H421 C429 0.930 . S
H422 C432 0.930 . S
H423 C433 0.930 . S
C424 H418 0.930 . S
C424 C425 1.355 . S
C424 C426 1.415 . S
C425 C424 1.355 . S
C425 C427 1.419 . S
C426 C424 1.415 . S
C426 C431 1.425 . S
C426 C433 1.409 . S
C427 H419 0.930 . S
C427 C425 1.419 . S
C427 C428 1.362 . S
C428 H420 0.930 . S
C428 C427 1.362 . S
C428 C431 1.409 . S
C429 H421 0.930 . S
C429 C430 1.355 . S
C429 C431 1.415 . S
C430 C429 1.355 . S
C430 C432 1.419 . S
C431 C426 1.425 . S
C431 C428 1.409 . S
C431 C429 1.415 . S
C432 H422 0.930 . S
C432 C430 1.419 . S
C432 C433 1.362 . S
C433 H423 0.930 . S
C433 C426 1.409 . S
C433 C432 1.362 . S
H434 C440 0.930 . S
H435 C443 0.930 . S
H436 C444 0.930 . S
H437 C445 0.930 . S
H438 C448 0.930 . S
H439 C449 0.930 . S
C440 H434 0.930 . S
C440 C441 1.355 . S
C440 C442 1.415 . S
C441 C440 1.355 . S
C441 C443 1.419 . S
C442 C440 1.415 . S
C442 C447 1.425 . S
C442 C449 1.409 . S
C443 H435 0.930 . S
C443 C441 1.419 . S
C443 C444 1.362 . S
C444 H436 0.930 . S
C444 C443 1.362 . S
C444 C447 1.409 . S
C445 H437 0.930 . S
C445 C446 1.355 . S
C445 C447 1.415 . S
C446 C445 1.355 . S
C446 C448 1.419 . S
C447 C442 1.425 . S
C447 C444 1.409 . S
C447 C445 1.415 . S
C448 H438 0.930 . S
C448 C446 1.419 . S
C448 C449 1.362 . S
C449 H439 0.930 . S
C449 C442 1.409 . S
C449 C448 1.362 . S
H450 C456 0.930 . S
H451 C459 0.930 . S
H452 C460 0.930 . S
H453 C461 0.930 . S
H454 C464 0.930 . S
H455 C465 0.930 . S
C456 H450 0.930 . S
C456 C457 1.355 . S
C456 C458 1.415 . S
C457 C456 1.355 . S
C457 C459 1.419 . S
C458 C456 1.415 . S
C458 C463 1.425 . S
C458 C465 1.409 . S
C459 H451 0.930 . S
C459 C457 1.419 . S
C459 C460 1.362 . S
C460 H452 0.930 . S
C460 C459 1.362 . S
C460 C463 1.409 . S
C461 H453 0.930 . S
C461 C462 1.355 . S
C461 C463 1.415 . S
C462 C461 1.355 . S
C462 C464 1.419 . S
C463 C458 1.425 . S
C463 C460 1.409 . S
C463 C461 1.415 . S
C464 H454 0.930 . S
C464 C462 1.419 . S
C464 C465 1.362 . S
C465 H455 0.930 . S
C465 C458 1.409 . S
C465 C464 1.362 . S
H466 C472 0.930 . S
H467 C475 0.930 . S
H468 C476 0.930 . S
H469 C477 0.930 . S
H470 C480 0.930 . S
H471 C481 0.930 . S
C472 H466 0.930 . S
C472 C473 1.355 . S
C472 C474 1.415 . S
C473 C472 1.355 . S
C473 C475 1.419 . S
C474 C472 1.415 . S
C474 C479 1.425 . S
C474 C481 1.409 . S
C475 H467 0.930 . S
C475 C473 1.419 . S
C475 C476 1.362 . S
C476 H468 0.930 . S
C476 C475 1.362 . S
C476 C479 1.409 . S
C477 H469 0.930 . S
C477 C478 1.355 . S
C477 C479 1.415 . S
C478 C477 1.355 . S
C478 C480 1.419 . S
C479 C474 1.425 . S
C479 C476 1.409 . S
C479 C477 1.415 . S
C480 H470 0.930 . S
C480 C478 1.419 . S
C480 C481 1.362 . S
C481 H471 0.930 . S
C481 C474 1.409 . S
C481 C480 1.362 . S
H482 C488 0.930 . S
H483 C491 0.930 . S
H484 C492 0.930 . S
H485 C493 0.930 . S
H486 C496 0.930 . S
H487 C497 0.930 . S
C488 H482 0.930 . S
C488 C489 1.355 . S
C488 C490 1.415 . S
C489 C488 1.355 . S
C489 C491 1.419 . S
C490 C488 1.415 . S
C490 C495 1.425 . S
C490 C497 1.409 . S
C491 H483 0.930 . S
C491 C489 1.419 . S
C491 C492 1.362 . S
C492 H484 0.930 . S
C492 C491 1.362 . S
C492 C495 1.409 . S
C493 H485 0.930 . S
C493 C494 1.355 . S
C493 C495 1.415 . S
C494 C493 1.355 . S
C494 C496 1.419 . S
C495 C490 1.425 . S
C495 C492 1.409 . S
C495 C493 1.415 . S
C496 H486 0.930 . S
C496 C494 1.419 . S
C496 C497 1.362 . S
C497 H487 0.930 . S
C497 C490 1.409 . S
C497 C496 1.362 . S
H498 C504 0.930 . S
H499 C507 0.930 . S
H500 C508 0.930 . S
H501 C509 0.930 . S
H502 C512 0.930 . S
H503 C513 0.930 . S
C504 H498 0.930 . S
C504 C505 1.355 . S
C504 C506 1.415 . S
C505 C504 1.355 . S
C505 C507 1.419 . S
C506 C504 1.415 . S
C506 C511 1.425 . S
C506 C513 1.409 . S
C507 H499 0.930 . S
C507 C505 1.419 . S
C507 C508 1.362 . S
C508 H500 0.930 . S
C508 C507 1.362 . S
C508 C511 1.409 . S
C509 H501 0.930 . S
C509 C510 1.355 . S
C509 C511 1.415 . S
C510 C509 1.355 . S
C510 C512 1.419 . S
C511 C506 1.425 . S
C511 C508 1.409 . S
C511 C509 1.415 . S
C512 H502 0.930 . S
C512 C510 1.419 . S
C512 C513 1.362 . S
C513 H503 0.930 . S
C513 C506 1.409 . S
C513 C512 1.362 . S
H514 C520 0.930 . S
H515 C523 0.930 . S
H516 C524 0.930 . S
H517 C525 0.930 . S
H518 C528 0.930 . S
H519 C529 0.930 . S
C520 H514 0.930 . S
C520 C521 1.355 . S
C520 C522 1.415 . S
C521 C520 1.355 . S
C521 C523 1.419 . S
C522 C520 1.415 . S
C522 C527 1.425 . S
C522 C529 1.409 . S
C523 H515 0.930 . S
C523 C521 1.419 . S
C523 C524 1.362 . S
C524 H516 0.930 . S
C524 C523 1.362 . S
C524 C527 1.409 . S
C525 H517 0.930 . S
C525 C526 1.355 . S
C525 C527 1.415 . S
C526 C525 1.355 . S
C526 C528 1.419 . S
C527 C522 1.425 . S
C527 C524 1.409 . S
C527 C525 1.415 . S
C528 H518 0.930 . S
C528 C526 1.419 . S
C528 C529 1.362 . S
C529 H519 0.930 . S
C529 C522 1.409 . S
C529 C528 1.362 . S
H530 C536 0.930 . S
H531 C539 0.930 . S
H532 C540 0.930 . S
H533 C541 0.930 . S
H534 C544 0.930 . S
H535 C545 0.930 . S
C536 H530 0.930 . S
C536 C537 1.355 . S
C536 C538 1.415 . S
C537 C536 1.355 . S
C537 C539 1.419 . S
C538 C536 1.415 . S
C538 C543 1.425 . S
C538 C545 1.409 . S
C539 H531 0.930 . S
C539 C537 1.419 . S
C539 C540 1.362 . S
C540 H532 0.930 . S
C540 C539 1.362 . S
C540 C543 1.409 . S
C541 H533 0.930 . S
C541 C542 1.355 . S
C541 C543 1.415 . S
C542 C541 1.355 . S
C542 C544 1.419 . S
C543 C538 1.425 . S
C543 C540 1.409 . S
C543 C541 1.415 . S
C544 H534 0.930 . S
C544 C542 1.419 . S
C544 C545 1.362 . S
C545 H535 0.930 . S
C545 C538 1.409 . S
C545 C544 1.362 . S
C169 C13 1.673 . S
C174 C85 1.658 . S
C185 C27 1.666 . S
C190 C98 1.651 . S
C206 C120 1.567 . S
C201 C29 1.667 . S
C222 C133 1.583 . S
C217 C54 1.674 . S
C238 C146 1.589 . S
C233 C69 1.675 . S
C254 C159 1.633 . S
C249 C83 1.688 . S
C265 C15 1.676 . S
C270 C115 1.590 . S
C281 C41 1.663 . S
C286 C128 1.541 . S
C302 C141 1.571 . S
C297 C42 1.667 . S
C318 C154 1.541 . S
C313 C57 1.661 . S
C329 C71 1.679 . S
C334 C87 1.675 . S
C350 C100 1.680 . S
C345 C1 1.681 . S
C366 C126 1.549 . S
C361 C12 1.666 . S
C377 C26 1.661 . S
C382 C139 1.535 . S
C398 C152 1.569 . S
C393 C28 1.667 . S
C409 C55 1.676 . S
C414 C89 1.670 . S
C425 C68 1.661 . S
C430 C102 1.654 . S
C441 C82 1.667 . S
C446 C113 1.569 . S
C457 C14 1.689 . S
C462 C150 1.635 . S
C478 C94 1.676 . S
C473 C40 1.682 . S
C489 C43 1.688 . S
C494 C107 1.684 . S
C505 C56 1.684 . S
C510 C111 1.618 . S
C521 C70 1.685 . S
C526 C124 1.621 . S
C537 C0 1.687 . S
C542 C137 1.632 . S
