# Generated by pormake.
# Topology gar, (4,6)-cn, num edge types: 1
# Building blocks:
#     Node 0, Type 0, BuildingBlock: QUQFOY_clean_sbu_3, # of connection points: 4
#     Node 1, Type 0, BuildingBlock: QUQFOY_clean_sbu_3, # of connection points: 4
#     Node 2, Type 0, BuildingBlock: QUQFOY_clean_sbu_3, # of connection points: 4
#     Node 3, Type 0, BuildingBlock: QUQFOY_clean_sbu_3, # of connection points: 4
#     Node 4, Type 0, BuildingBlock: QUQFOY_clean_sbu_3, # of connection points: 4
#     Node 5, Type 0, BuildingBlock: QUQFOY_clean_sbu_3, # of connection points: 4
#     Node 6, Type 0, BuildingBlock: QUQFOY_clean_sbu_3, # of connection points: 4
#     Node 7, Type 0, BuildingBlock: QUQFOY_clean_sbu_3, # of connection points: 4
#     Node 8, Type 0, BuildingBlock: QUQFOY_clean_sbu_3, # of connection points: 4
#     Node 9, Type 0, BuildingBlock: QUQFOY_clean_sbu_3, # of connection points: 4
#     Node 10, Type 0, BuildingBlock: QUQFOY_clean_sbu_3, # of connection points: 4
#     Node 11, Type 0, BuildingBlock: QUQFOY_clean_sbu_3, # of connection points: 4
#     Node 12, Type 0, BuildingBlock: QUQFOY_clean_sbu_3, # of connection points: 4
#     Node 13, Type 0, BuildingBlock: QUQFOY_clean_sbu_3, # of connection points: 4
#     Node 14, Type 0, BuildingBlock: QUQFOY_clean_sbu_3, # of connection points: 4
#     Node 15, Type 0, BuildingBlock: QUQFOY_clean_sbu_3, # of connection points: 4
#     Node 16, Type 0, BuildingBlock: QUQFOY_clean_sbu_3, # of connection points: 4
#     Node 17, Type 0, BuildingBlock: QUQFOY_clean_sbu_3, # of connection points: 4
#     Node 18, Type 0, BuildingBlock: QUQFOY_clean_sbu_3, # of connection points: 4
#     Node 19, Type 0, BuildingBlock: QUQFOY_clean_sbu_3, # of connection points: 4
#     Node 20, Type 0, BuildingBlock: QUQFOY_clean_sbu_3, # of connection points: 4
#     Node 21, Type 0, BuildingBlock: QUQFOY_clean_sbu_3, # of connection points: 4
#     Node 22, Type 0, BuildingBlock: QUQFOY_clean_sbu_3, # of connection points: 4
#     Node 23, Type 0, BuildingBlock: QUQFOY_clean_sbu_3, # of connection points: 4
#     Node 24, Type 1, BuildingBlock: BETDEL_clean_sbu_0, # of connection points: 6
#     Node 25, Type 1, BuildingBlock: BETDEL_clean_sbu_0, # of connection points: 6
#     Node 26, Type 1, BuildingBlock: BETDEL_clean_sbu_0, # of connection points: 6
#     Node 27, Type 1, BuildingBlock: BETDEL_clean_sbu_0, # of connection points: 6
#     Node 28, Type 1, BuildingBlock: BETDEL_clean_sbu_0, # of connection points: 6
#     Node 29, Type 1, BuildingBlock: BETDEL_clean_sbu_0, # of connection points: 6
#     Node 30, Type 1, BuildingBlock: BETDEL_clean_sbu_0, # of connection points: 6
#     Node 31, Type 1, BuildingBlock: BETDEL_clean_sbu_0, # of connection points: 6
#     Node 32, Type 1, BuildingBlock: BETDEL_clean_sbu_0, # of connection points: 6
#     Node 33, Type 1, BuildingBlock: BETDEL_clean_sbu_0, # of connection points: 6
#     Node 34, Type 1, BuildingBlock: BETDEL_clean_sbu_0, # of connection points: 6
#     Node 35, Type 1, BuildingBlock: BETDEL_clean_sbu_0, # of connection points: 6
#     Node 36, Type 1, BuildingBlock: BETDEL_clean_sbu_0, # of connection points: 6
#     Node 37, Type 1, BuildingBlock: BETDEL_clean_sbu_0, # of connection points: 6
#     Node 38, Type 1, BuildingBlock: BETDEL_clean_sbu_0, # of connection points: 6
#     Node 39, Type 1, BuildingBlock: BETDEL_clean_sbu_0, # of connection points: 6
#     Edge 40, Type (0, 1), BuildingBlock: AJUNOK_clean_linker_0, # of connection points: 2
#     Edge 41, Type (0, 1), BuildingBlock: AJUNOK_clean_linker_0, # of connection points: 2
#     Edge 42, Type (0, 1), BuildingBlock: AJUNOK_clean_linker_0, # of connection points: 2
#     Edge 43, Type (0, 1), BuildingBlock: AJUNOK_clean_linker_0, # of connection points: 2
#     Edge 44, Type (0, 1), BuildingBlock: AJUNOK_clean_linker_0, # of connection points: 2
#     Edge 45, Type (0, 1), BuildingBlock: AJUNOK_clean_linker_0, # of connection points: 2
#     Edge 46, Type (0, 1), BuildingBlock: AJUNOK_clean_linker_0, # of connection points: 2
#     Edge 47, Type (0, 1), BuildingBlock: AJUNOK_clean_linker_0, # of connection points: 2
#     Edge 48, Type (0, 1), BuildingBlock: AJUNOK_clean_linker_0, # of connection points: 2
#     Edge 49, Type (0, 1), BuildingBlock: AJUNOK_clean_linker_0, # of connection points: 2
#     Edge 50, Type (0, 1), BuildingBlock: AJUNOK_clean_linker_0, # of connection points: 2
#     Edge 51, Type (0, 1), BuildingBlock: AJUNOK_clean_linker_0, # of connection points: 2
#     Edge 52, Type (0, 1), BuildingBlock: AJUNOK_clean_linker_0, # of connection points: 2
#     Edge 53, Type (0, 1), BuildingBlock: AJUNOK_clean_linker_0, # of connection points: 2
#     Edge 54, Type (0, 1), BuildingBlock: AJUNOK_clean_linker_0, # of connection points: 2
#     Edge 55, Type (0, 1), BuildingBlock: AJUNOK_clean_linker_0, # of connection points: 2
#     Edge 56, Type (0, 1), BuildingBlock: AJUNOK_clean_linker_0, # of connection points: 2
#     Edge 57, Type (0, 1), BuildingBlock: AJUNOK_clean_linker_0, # of connection points: 2
#     Edge 58, Type (0, 1), BuildingBlock: AJUNOK_clean_linker_0, # of connection points: 2
#     Edge 59, Type (0, 1), BuildingBlock: AJUNOK_clean_linker_0, # of connection points: 2
#     Edge 60, Type (0, 1), BuildingBlock: AJUNOK_clean_linker_0, # of connection points: 2
#     Edge 61, Type (0, 1), BuildingBlock: AJUNOK_clean_linker_0, # of connection points: 2
#     Edge 62, Type (0, 1), BuildingBlock: AJUNOK_clean_linker_0, # of connection points: 2
#     Edge 63, Type (0, 1), BuildingBlock: AJUNOK_clean_linker_0, # of connection points: 2
#     Edge 64, Type (0, 1), BuildingBlock: AJUNOK_clean_linker_0, # of connection points: 2
#     Edge 65, Type (0, 1), BuildingBlock: AJUNOK_clean_linker_0, # of connection points: 2
#     Edge 66, Type (0, 1), BuildingBlock: AJUNOK_clean_linker_0, # of connection points: 2
#     Edge 67, Type (0, 1), BuildingBlock: AJUNOK_clean_linker_0, # of connection points: 2
#     Edge 68, Type (0, 1), BuildingBlock: AJUNOK_clean_linker_0, # of connection points: 2
#     Edge 69, Type (0, 1), BuildingBlock: AJUNOK_clean_linker_0, # of connection points: 2
#     Edge 70, Type (0, 1), BuildingBlock: AJUNOK_clean_linker_0, # of connection points: 2
#     Edge 71, Type (0, 1), BuildingBlock: AJUNOK_clean_linker_0, # of connection points: 2
#     Edge 72, Type (0, 1), BuildingBlock: AJUNOK_clean_linker_0, # of connection points: 2
#     Edge 73, Type (0, 1), BuildingBlock: AJUNOK_clean_linker_0, # of connection points: 2
#     Edge 74, Type (0, 1), BuildingBlock: AJUNOK_clean_linker_0, # of connection points: 2
#     Edge 75, Type (0, 1), BuildingBlock: AJUNOK_clean_linker_0, # of connection points: 2
#     Edge 76, Type (0, 1), BuildingBlock: AJUNOK_clean_linker_0, # of connection points: 2
#     Edge 77, Type (0, 1), BuildingBlock: AJUNOK_clean_linker_0, # of connection points: 2
#     Edge 78, Type (0, 1), BuildingBlock: AJUNOK_clean_linker_0, # of connection points: 2
#     Edge 79, Type (0, 1), BuildingBlock: AJUNOK_clean_linker_0, # of connection points: 2
#     Edge 80, Type (0, 1), BuildingBlock: AJUNOK_clean_linker_0, # of connection points: 2
#     Edge 81, Type (0, 1), BuildingBlock: AJUNOK_clean_linker_0, # of connection points: 2
#     Edge 82, Type (0, 1), BuildingBlock: AJUNOK_clean_linker_0, # of connection points: 2
#     Edge 83, Type (0, 1), BuildingBlock: AJUNOK_clean_linker_0, # of connection points: 2
#     Edge 84, Type (0, 1), BuildingBlock: AJUNOK_clean_linker_0, # of connection points: 2
#     Edge 85, Type (0, 1), BuildingBlock: AJUNOK_clean_linker_0, # of connection points: 2
#     Edge 86, Type (0, 1), BuildingBlock: AJUNOK_clean_linker_0, # of connection points: 2
#     Edge 87, Type (0, 1), BuildingBlock: AJUNOK_clean_linker_0, # of connection points: 2
#     Edge 88, Type (0, 1), BuildingBlock: AJUNOK_clean_linker_0, # of connection points: 2
#     Edge 89, Type (0, 1), BuildingBlock: AJUNOK_clean_linker_0, # of connection points: 2
#     Edge 90, Type (0, 1), BuildingBlock: AJUNOK_clean_linker_0, # of connection points: 2
#     Edge 91, Type (0, 1), BuildingBlock: AJUNOK_clean_linker_0, # of connection points: 2
#     Edge 92, Type (0, 1), BuildingBlock: AJUNOK_clean_linker_0, # of connection points: 2
#     Edge 93, Type (0, 1), BuildingBlock: AJUNOK_clean_linker_0, # of connection points: 2
#     Edge 94, Type (0, 1), BuildingBlock: AJUNOK_clean_linker_0, # of connection points: 2
#     Edge 95, Type (0, 1), BuildingBlock: AJUNOK_clean_linker_0, # of connection points: 2
#     Edge 96, Type (0, 1), BuildingBlock: AJUNOK_clean_linker_0, # of connection points: 2
#     Edge 97, Type (0, 1), BuildingBlock: AJUNOK_clean_linker_0, # of connection points: 2
#     Edge 98, Type (0, 1), BuildingBlock: AJUNOK_clean_linker_0, # of connection points: 2
#     Edge 99, Type (0, 1), BuildingBlock: AJUNOK_clean_linker_0, # of connection points: 2
#     Edge 100, Type (0, 1), BuildingBlock: AJUNOK_clean_linker_0, # of connection points: 2
#     Edge 101, Type (0, 1), BuildingBlock: AJUNOK_clean_linker_0, # of connection points: 2
#     Edge 102, Type (0, 1), BuildingBlock: AJUNOK_clean_linker_0, # of connection points: 2
#     Edge 103, Type (0, 1), BuildingBlock: AJUNOK_clean_linker_0, # of connection points: 2
#     Edge 104, Type (0, 1), BuildingBlock: AJUNOK_clean_linker_0, # of connection points: 2
#     Edge 105, Type (0, 1), BuildingBlock: AJUNOK_clean_linker_0, # of connection points: 2
#     Edge 106, Type (0, 1), BuildingBlock: AJUNOK_clean_linker_0, # of connection points: 2
#     Edge 107, Type (0, 1), BuildingBlock: AJUNOK_clean_linker_0, # of connection points: 2
#     Edge 108, Type (0, 1), BuildingBlock: AJUNOK_clean_linker_0, # of connection points: 2
#     Edge 109, Type (0, 1), BuildingBlock: AJUNOK_clean_linker_0, # of connection points: 2
#     Edge 110, Type (0, 1), BuildingBlock: AJUNOK_clean_linker_0, # of connection points: 2
#     Edge 111, Type (0, 1), BuildingBlock: AJUNOK_clean_linker_0, # of connection points: 2
#     Edge 112, Type (0, 1), BuildingBlock: AJUNOK_clean_linker_0, # of connection points: 2
#     Edge 113, Type (0, 1), BuildingBlock: AJUNOK_clean_linker_0, # of connection points: 2
#     Edge 114, Type (0, 1), BuildingBlock: AJUNOK_clean_linker_0, # of connection points: 2
#     Edge 115, Type (0, 1), BuildingBlock: AJUNOK_clean_linker_0, # of connection points: 2
#     Edge 116, Type (0, 1), BuildingBlock: AJUNOK_clean_linker_0, # of connection points: 2
#     Edge 117, Type (0, 1), BuildingBlock: AJUNOK_clean_linker_0, # of connection points: 2
#     Edge 118, Type (0, 1), BuildingBlock: AJUNOK_clean_linker_0, # of connection points: 2
#     Edge 119, Type (0, 1), BuildingBlock: AJUNOK_clean_linker_0, # of connection points: 2
#     Edge 120, Type (0, 1), BuildingBlock: AJUNOK_clean_linker_0, # of connection points: 2
#     Edge 121, Type (0, 1), BuildingBlock: AJUNOK_clean_linker_0, # of connection points: 2
#     Edge 122, Type (0, 1), BuildingBlock: AJUNOK_clean_linker_0, # of connection points: 2
#     Edge 123, Type (0, 1), BuildingBlock: AJUNOK_clean_linker_0, # of connection points: 2
#     Edge 124, Type (0, 1), BuildingBlock: AJUNOK_clean_linker_0, # of connection points: 2
#     Edge 125, Type (0, 1), BuildingBlock: AJUNOK_clean_linker_0, # of connection points: 2
#     Edge 126, Type (0, 1), BuildingBlock: AJUNOK_clean_linker_0, # of connection points: 2
#     Edge 127, Type (0, 1), BuildingBlock: AJUNOK_clean_linker_0, # of connection points: 2
#     Edge 128, Type (0, 1), BuildingBlock: AJUNOK_clean_linker_0, # of connection points: 2
#     Edge 129, Type (0, 1), BuildingBlock: AJUNOK_clean_linker_0, # of connection points: 2
#     Edge 130, Type (0, 1), BuildingBlock: AJUNOK_clean_linker_0, # of connection points: 2
#     Edge 131, Type (0, 1), BuildingBlock: AJUNOK_clean_linker_0, # of connection points: 2
#     Edge 132, Type (0, 1), BuildingBlock: AJUNOK_clean_linker_0, # of connection points: 2
#     Edge 133, Type (0, 1), BuildingBlock: AJUNOK_clean_linker_0, # of connection points: 2
#     Edge 134, Type (0, 1), BuildingBlock: AJUNOK_clean_linker_0, # of connection points: 2
#     Edge 135, Type (0, 1), BuildingBlock: AJUNOK_clean_linker_0, # of connection points: 2
# Relax obj value: 0.147
# Max RMSD: 0.286
# Mean RMSD: 0.144
data_MOF--net-gar--node1-QUQFOY_clean_sbu_3--node2-BETDEL_clean_sbu_0--edge1-AJUNOK_clean_linker_0
_symmetry_space_group_name_H-M    P1
_symmetry_Int_Tables_number       1
_symmetry_cell_setting            triclinic
loop_
_symmetry_equiv_pos_as_xyz
'x, y, z'
_cell_length_a     42.306856
_cell_length_b     40.397584
_cell_length_c     41.497374
_cell_angle_alpha  96.646425
_cell_angle_beta   92.204084
_cell_angle_gamma 101.40411
loop_
_atom_site_label
_atom_site_type_symbol
_atom_site_fract_x
_atom_site_fract_y
_atom_site_fract_z
_atom_type_partial_charge
C0 C 0.98673 0.30219 0.35167 0.0
O1 O 0.00843 0.3191 0.33634 0.0
Cd2 Cd 0.06464 0.32449 0.34775 0.0
O3 O 0.99443 0.28474 0.37341 0.0
Cd4 Cd 0.04553 0.27301 0.39831 0.0
C5 C 0.06078 0.35734 0.42672 0.0
O6 O 0.07207 0.2668 0.34749 0.0
O7 O 0.10404 0.27619 0.3905 0.0
O8 O 0.01702 0.21509 0.40458 0.0
C9 C 0.09994 0.2676 0.36001 0.0
O10 O 0.07074 0.36306 0.39892 0.0
C11 C 0.02813 0.21535 0.43354 0.0
O12 O 0.0499 0.32701 0.43223 0.0
O13 O 0.04741 0.2424 0.44606 0.0
C14 C 0.95094 0.76097 0.67764 0.0
O15 O 0.96408 0.73741 0.68625 0.0
Cd16 Cd 0.00974 0.71739 0.6661 0.0
O17 O 0.96134 0.77687 0.65397 0.0
Cd18 Cd 0.00588 0.77544 0.61495 0.0
C19 C 0.98768 0.69055 0.58521 0.0
O20 O 0.04427 0.76817 0.6562 0.0
O21 O 0.06203 0.76706 0.60844 0.0
O22 O 0.01914 0.8368 0.61194 0.0
C23 C 0.06706 0.76442 0.63822 0.0
O24 O 0.99479 0.68348 0.61337 0.0
C25 C 0.0112 0.83483 0.58183 0.0
O26 O 0.98788 0.72109 0.58001 0.0
O27 O 2e-05 0.80519 0.56718 0.0
C28 C 0.48432 0.79485 0.84543 0.0
O29 O 0.50455 0.80562 0.82529 0.0
Cd30 Cd 0.5609 0.81298 0.83517 0.0
O31 O 0.4934 0.78272 0.8705 0.0
Cd32 Cd 0.54469 0.77114 0.89531 0.0
C33 C 0.55849 0.85645 0.91158 0.0
O34 O 0.57023 0.75846 0.84514 0.0
O35 O 0.60303 0.77469 0.88733 0.0
O36 O 0.51544 0.71485 0.90483 0.0
C37 C 0.59871 0.76264 0.8575 0.0
O38 O 0.56453 0.85686 0.88179 0.0
C39 C 0.52679 0.71631 0.93387 0.0
O40 O 0.55092 0.82853 0.92351 0.0
O41 O 0.54654 0.74352 0.94526 0.0
C42 C 0.45427 0.26482 0.18242 0.0
O43 O 0.46846 0.24168 0.19008 0.0
Cd44 Cd 0.51345 0.22201 0.16864 0.0
O45 O 0.46289 0.28075 0.15818 0.0
Cd46 Cd 0.50607 0.27908 0.11703 0.0
C47 C 0.48793 0.19375 0.08841 0.0
O48 O 0.54537 0.27355 0.15793 0.0
O49 O 0.56297 0.27198 0.1102 0.0
O50 O 0.51798 0.34027 0.11326 0.0
C51 C 0.56832 0.27025 0.14013 0.0
O52 O 0.49697 0.1878 0.11642 0.0
C53 C 0.51065 0.33783 0.08297 0.0
O54 O 0.48691 0.22395 0.08287 0.0
O55 O 0.50001 0.30798 0.06856 0.0
C56 C 0.99228 0.77919 0.19649 0.0
O57 O 0.01154 0.7668 0.21356 0.0
Cd58 Cd 0.06601 0.7649 0.20261 0.0
O59 O 0.00119 0.79174 0.17063 0.0
Cd60 Cd 0.04928 0.80298 0.13725 0.0
C61 C 0.05256 0.71826 0.12572 0.0
O62 O 0.08417 0.81909 0.18586 0.0
O63 O 0.10969 0.8172 0.14258 0.0
O64 O 0.02619 0.85127 0.12351 0.0
C65 C 0.1111 0.82147 0.17339 0.0
O66 O 0.06192 0.72115 0.15567 0.0
C67 C 0.03323 0.84893 0.09396 0.0
O68 O 0.04463 0.74329 0.11352 0.0
O69 O 0.04813 0.82553 0.08451 0.0
C70 C 0.42742 0.74942 0.3057 0.0
O71 O 0.44701 0.77217 0.29381 0.0
Cd72 Cd 0.49937 0.79963 0.31474 0.0
O73 O 0.43505 0.73823 0.33192 0.0
Cd74 Cd 0.4857 0.74936 0.36942 0.0
C75 C 0.48592 0.83348 0.39159 0.0
O76 O 0.52178 0.75231 0.32522 0.0
O77 O 0.5453 0.76644 0.37309 0.0
O78 O 0.48828 0.69091 0.37753 0.0
C79 C 0.54783 0.75991 0.34278 0.0
O80 O 0.49301 0.83802 0.3627 0.0
C81 C 0.48384 0.69408 0.40769 0.0
O82 O 0.48161 0.80391 0.4006 0.0
O83 O 0.47821 0.7224 0.42006 0.0
C84 C 0.49411 0.27733 0.69623 0.0
O85 O 0.51299 0.26171 0.71011 0.0
Cd86 Cd 0.56725 0.25964 0.6981 0.0
O87 O 0.50244 0.29231 0.67146 0.0
Cd88 Cd 0.54941 0.30379 0.6369 0.0
C89 C 0.55877 0.22064 0.61871 0.0
O90 O 0.58266 0.31556 0.68524 0.0
O91 O 0.61009 0.32138 0.6433 0.0
O92 O 0.54133 0.36024 0.62869 0.0
C93 C 0.61007 0.32225 0.67399 0.0
O94 O 0.56683 0.22039 0.64857 0.0
C95 C 0.53461 0.35394 0.59827 0.0
O96 O 0.54969 0.24634 0.60896 0.0
O97 O 0.53438 0.32385 0.58526 0.0
C98 C 0.93094 0.2392 0.81064 0.0
O99 O 0.9506 0.25791 0.79477 0.0
Cd100 Cd 0.00263 0.28757 0.81456 0.0
O101 O 0.93888 0.23336 0.83918 0.0
Cd102 Cd 0.99029 0.24618 0.87543 0.0
C103 C 0.99002 0.33072 0.88846 0.0
O104 O 0.02602 0.24343 0.83186 0.0
O105 O 0.04928 0.26887 0.87747 0.0
O106 O 0.99487 0.19 0.88878 0.0
C107 C 0.05202 0.25668 0.84838 0.0
O108 O -0.00338 0.33169 0.85884 0.0
C109 C 0.99014 0.19548 0.91873 0.0
O110 O 0.98593 0.30279 0.90069 0.0
O111 O 0.98368 0.22414 0.92879 0.0
C112 C 0.45999 0.02449 0.32947 0.0
O113 O 0.47317 0.00551 0.31004 0.0
Cd114 Cd 0.44948 0.97715 0.2594 0.0
O115 O 0.43199 0.03005 0.32266 0.0
Cd116 Cd 0.39249 0.01637 0.27459 0.0
C117 C 0.37639 0.93269 0.27974 0.0
O118 O 0.43398 0.02339 0.23655 0.0
O119 O 0.38641 0.00052 0.21532 0.0
O120 O 0.38183 0.07309 0.28669 0.0
C121 C 0.41561 0.01305 0.21122 0.0
O122 O 0.40396 0.93172 0.26882 0.0
C123 C 0.35166 0.06459 0.27936 0.0
O124 O 0.36739 0.96078 0.28616 0.0
O125 O 0.34011 0.03319 0.27107 0.0
C126 C 0.3069 0.09958 0.50643 0.0
O127 O 0.28321 0.08172 0.51852 0.0
Cd128 Cd 0.22973 0.09088 0.5218 0.0
O129 O 0.30377 0.12655 0.49428 0.0
Cd130 Cd 0.26008 0.15936 0.48552 0.0
C131 C 0.24656 0.17073 0.56705 0.0
O132 O 0.21994 0.10831 0.4709 0.0
O133 O 0.20028 0.15321 0.47967 0.0
O134 O 0.27302 0.1691 0.42988 0.0
C135 C 0.19517 0.12126 0.47141 0.0
O136 O 0.23352 0.13918 0.56377 0.0
C137 C 0.27915 0.20138 0.43459 0.0
O138 O 0.26018 0.18444 0.54348 0.0
O139 O 0.27755 0.2149 0.46357 0.0
C140 C 0.08815 0.01921 0.83435 0.0
O141 O 0.0786 0.0386 0.81582 0.0
Cd142 Cd 0.09459 0.055 0.76537 0.0
O143 O 0.11142 0.00428 0.82665 0.0
Cd144 Cd 0.14787 0.00451 0.77823 0.0
C145 C 0.17511 0.09147 0.78498 0.0
O146 O 0.10456 0.00411 0.73902 0.0
O147 O 0.15095 0.01283 0.71936 0.0
O148 O 0.151 0.94369 0.77043 0.0
C149 C 0.12073 0.01017 0.71472 0.0
O150 O 0.14657 0.09357 0.77581 0.0
C151 C 0.18131 0.94818 0.77655 0.0
O152 O 0.18184 0.06285 0.78974 0.0
O153 O 0.19609 0.97877 0.7847 0.0
C154 C 0.29724 0.9365 0.95598 0.0
O155 O 0.28 0.94614 0.93456 0.0
Cd156 Cd 0.22221 0.93471 0.93228 0.0
O157 O 0.28437 0.91822 0.97696 0.0
Cd158 Cd 0.23052 0.8907 0.99058 0.0
C159 C 0.21226 0.84973 0.91353 0.0
O160 O 0.21591 0.94491 0.98962 0.0
O161 O 0.17905 0.90688 0.00599 0.0
O162 O 0.25543 0.88606 0.0433 0.0
C163 C 0.18869 0.93759 0.00122 0.0
O164 O 0.20745 0.87706 0.90365 0.0
C165 C 0.2401 0.85578 0.04427 0.0
O166 O 0.22141 0.84935 0.94287 0.0
O167 O 0.22037 0.84227 0.02038 0.0
C168 C 0.332 0.45343 0.03039 0.0
O169 O 0.31455 0.4691 0.01475 0.0
Cd170 Cd 0.26089 0.44843 0.99527 0.0
O171 O 0.32037 0.42444 0.03959 0.0
Cd172 Cd 0.26547 0.38419 0.03922 0.0
C173 C 0.27164 0.37018 0.95666 0.0
O174 O 0.24062 0.43264 0.04457 0.0
O175 O 0.20618 0.38586 0.03504 0.0
O176 O 0.27986 0.37458 0.09551 0.0
C177 C 0.21136 0.41803 0.04108 0.0
O178 O 0.26785 0.40061 0.95604 0.0
C179 C 0.26534 0.34358 0.09285 0.0
O180 O 0.27124 0.35705 0.98325 0.0
O181 O 0.25208 0.33096 0.06496 0.0
C182 C 0.80676 0.08001 0.02238 0.0
O183 O 0.79096 0.07001 0.04605 0.0
Cd184 Cd 0.7485 0.09424 0.06729 0.0
O185 O 0.80139 0.10579 0.00954 0.0
Cd186 Cd 0.76337 0.14633 0.01604 0.0
C187 C 0.7844 0.17762 0.09384 0.0
O188 O 0.71937 0.09891 0.01826 0.0
O189 O 0.70635 0.14787 0.02642 0.0
O190 O 0.7695 0.14877 0.95823 0.0
C191 C 0.6974 0.1158 0.02169 0.0
O192 O 0.77109 0.14824 0.10033 0.0
C193 C 0.76821 0.17995 0.95903 0.0
O194 O 0.78681 0.18381 0.06464 0.0
O195 O 0.76516 0.19578 0.98657 0.0
C196 C 0.05145 0.48504 0.25716 0.0
O197 O 0.03619 0.4959 0.23495 0.0
Cd198 Cd 0.04753 0.4939 0.17874 0.0
O199 O 0.07655 0.47284 0.25137 0.0
Cd200 Cd 0.11079 0.46295 0.20615 0.0
C201 C 0.12107 0.54668 0.19225 0.0
O202 O 0.06386 0.44047 0.1715 0.0
O203 O 0.10729 0.44063 0.14724 0.0
O204 O 0.13421 0.42504 0.23735 0.0
C205 C 0.07671 0.43585 0.14496 0.0
O206 O 0.09312 0.54252 0.17796 0.0
C207 C 0.16305 0.43733 0.23089 0.0
O208 O 0.13015 0.52284 0.20513 0.0
O209 O 0.1669 0.45996 0.21178 0.0
C210 C 0.83025 0.95344 0.52945 0.0
O211 O 0.81346 0.96938 0.51339 0.0
Cd212 Cd 0.76076 0.94747 0.49152 0.0
O213 O 0.81808 0.92421 0.53775 0.0
Cd214 Cd 0.76263 0.8848 0.53449 0.0
C215 C 0.77174 0.86959 0.45297 0.0
O216 O 0.73535 0.9314 0.53876 0.0
O217 O 0.70405 0.88414 0.52 0.0
O218 O 0.76256 0.87796 0.59292 0.0
C219 C 0.70702 0.9155 0.53032 0.0
O220 O 0.76845 0.90013 0.45195 0.0
C221 C 0.7581 0.84572 0.5895 0.0
O222 O 0.77025 0.85664 0.47965 0.0
O223 O 0.75691 0.83119 0.5605 0.0
C224 C 0.93163 0.00805 0.2838 0.0
O225 O 0.94825 0.99786 0.26134 0.0
Cd226 Cd 0.93401 0.99437 0.20544 0.0
O227 O 0.90765 0.0216 0.27723 0.0
Cd228 Cd 0.87994 0.03572 0.22704 0.0
C229 C 0.85672 0.95024 0.2131 0.0
O230 O 0.92768 0.05038 0.19689 0.0
O231 O 0.88332 0.03633 0.16731 0.0
O232 O 0.87323 0.09123 0.2543 0.0
C233 C 0.91353 0.04806 0.16913 0.0
O234 O 0.88525 0.94986 0.20459 0.0
C235 C 0.84352 0.0873 0.2452 0.0
O236 O 0.84812 0.97807 0.22231 0.0
O237 O 0.83088 0.05928 0.22819 0.0
C238 C 0.3075 0.57468 0.53064 0.0
O239 O 0.2944 0.56633 0.55629 0.0
Cd240 Cd 0.25466 0.59417 0.57954 0.0
O241 O 0.3002 0.59925 0.51722 0.0
Cd242 Cd 0.26201 0.63886 0.52468 0.0
C243 C 0.29048 0.67841 0.59829 0.0
O244 O 0.2174 0.59426 0.53443 0.0
O245 O 0.20806 0.64514 0.54078 0.0
O246 O 0.25565 0.63154 0.46576 0.0
C247 C 0.1971 0.61336 0.53798 0.0
O248 O 0.27931 0.64999 0.60813 0.0
C249 C 0.2586 0.66286 0.46286 0.0
O250 O 0.28887 0.68177 0.56828 0.0
O251 O 0.26423 0.6834 0.48892 0.0
C252 C 0.43287 0.50617 0.78095 0.0
O253 O 0.44622 0.49179 0.75796 0.0
Cd254 Cd 0.43278 0.48956 0.70167 0.0
O255 O 0.41119 0.52299 0.77471 0.0
Cd256 Cd 0.38358 0.53575 0.72348 0.0
C257 C 0.3549 0.44982 0.70816 0.0
O258 O 0.43268 0.54765 0.69424 0.0
O259 O 0.38897 0.53904 0.6639 0.0
O260 O 0.37779 0.59147 0.75103 0.0
C261 C 0.41947 0.54869 0.66665 0.0
O262 O 0.38185 0.44733 0.69652 0.0
C263 C 0.34861 0.58919 0.74085 0.0
O264 O 0.35001 0.47864 0.72031 0.0
O265 O 0.33557 0.56192 0.72286 0.0
C266 C 0.56708 0.00376 0.76228 0.0
O267 O 0.55064 0.01288 0.73986 0.0
Cd268 Cd 0.56409 0.01449 0.68525 0.0
O269 O 0.59367 0.99437 0.7568 0.0
Cd270 Cd 0.62922 0.98593 0.71188 0.0
C271 C 0.63707 0.07019 0.70176 0.0
O272 O 0.58244 0.96213 0.67792 0.0
O273 O 0.62542 0.96547 0.65235 0.0
O274 O 0.65011 0.9457 0.74199 0.0
C275 C 0.59479 0.95808 0.65106 0.0
O276 O 0.608 0.06542 0.69007 0.0
C277 C 0.67946 0.9567 0.73643 0.0
O278 O 0.64847 0.04589 0.71125 0.0
O279 O 0.68503 0.98046 0.71865 0.0
C280 C 0.80894 0.59961 0.00104 0.0
O281 O 0.78576 0.58311 0.01494 0.0
Cd282 Cd 0.73219 0.59273 0.01764 0.0
O283 O 0.80579 0.6258 0.9876 0.0
Cd284 Cd 0.76271 0.65951 0.97968 0.0
C285 C 0.74848 0.67338 0.06094 0.0
O286 O 0.72106 0.60896 0.96637 0.0
O287 O 0.70336 0.65516 0.97491 0.0
O288 O 0.77762 0.6685 0.92417 0.0
C289 C 0.697 0.62307 0.96773 0.0
O290 O 0.735 0.64198 0.05815 0.0
C291 C 0.78279 0.70079 0.92834 0.0
O292 O 0.76321 0.68618 0.03747 0.0
O293 O 0.77935 0.71444 0.95683 0.0
C294 C 0.97779 0.54602 0.83361 0.0
O295 O 0.98777 0.52821 0.81047 0.0
Cd296 Cd 0.96419 0.50942 0.75739 0.0
O297 O 0.95089 0.55547 0.83037 0.0
Cd298 Cd 0.90904 0.54502 0.78431 0.0
C299 C 0.89269 0.46029 0.7752 0.0
O300 O 0.94542 0.55653 0.74126 0.0
O301 O 0.89794 0.52753 0.726 0.0
O302 O 0.89441 0.59992 0.78611 0.0
C303 C 0.92465 0.54392 0.71817 0.0
O304 O 0.91833 0.46279 0.75978 0.0
C305 C 0.86436 0.58888 0.78786 0.0
O306 O 0.88516 0.48635 0.79074 0.0
O307 O 0.85541 0.55793 0.7922 0.0
C308 C 0.79684 0.44363 0.45689 0.0
O309 O 0.77996 0.45415 0.43564 0.0
Cd310 Cd 0.7213 0.44352 0.42695 0.0
O311 O 0.78369 0.42521 0.47758 0.0
Cd312 Cd 0.73176 0.39748 0.49337 0.0
C313 C 0.71232 0.35761 0.41343 0.0
O314 O 0.70613 0.4414 0.48082 0.0
O315 O 0.69897 0.43042 0.52931 0.0
O316 O 0.76357 0.38379 0.53767 0.0
C317 C 0.69449 0.44885 0.50753 0.0
O318 O 0.71022 0.38481 0.40149 0.0
C319 C 0.74402 0.3561 0.54064 0.0
O320 O 0.71918 0.35772 0.44356 0.0
O321 O 0.71829 0.34849 0.52204 0.0
C322 C 0.58507 0.50362 0.33222 0.0
O323 O 0.57079 0.52029 0.31437 0.0
Cd324 Cd 0.58797 0.5435 0.26646 0.0
O325 O 0.61215 0.49605 0.32501 0.0
Cd326 Cd 0.64853 0.50269 0.27738 0.0
C327 C 0.66721 0.58866 0.28714 0.0
O328 O 0.60631 0.50008 0.23522 0.0
O329 O 0.65434 0.51905 0.22179 0.0
O330 O 0.65392 0.44365 0.26382 0.0
C331 C 0.62431 0.51203 0.21387 0.0
O332 O 0.63753 0.58616 0.27843 0.0
C333 C 0.68385 0.44806 0.27182 0.0
O334 O 0.6782 0.56225 0.29202 0.0
O335 O 0.69774 0.47797 0.28401 0.0
Dy336 Dy 0.97184 0.00825 0.99294 0.0
C337 C 0.10575 0.03235 0.02845 0.0
C338 C 0.90783 0.00934 0.9831 0.0
Dy339 Dy 0.04194 0.03348 0.01951 0.0
O340 O 0.93062 0.02224 0.96551 0.0
O341 O 0.91991 0.99344 0.00443 0.0
O342 O 0.98754 0.97868 0.94894 0.0
O343 O 0.01743 0.02312 0.97147 0.0
C344 C 0.0162 0.99816 0.94995 0.0
C345 C -0.0021 0.0441 0.06216 0.0
O346 O 0.03576 0.07993 -0.00183 0.0
O347 O 0.97998 0.06576 -0.00189 0.0
O348 O 0.0848 0.0284 0.05047 0.0
O349 O 0.0921 0.04002 0.00254 0.0
O350 O 0.02623 0.06419 0.06271 0.0
O351 O -0.00367 0.01869 0.04104 0.0
O352 O 0.97827 0.9618 0.01491 0.0
O353 O 0.03407 0.97637 0.01607 0.0
C354 C 0.00698 0.08766 0.99421 0.0
C355 C 0.00711 0.95432 0.01938 0.0
Dy356 Dy 0.25385 0.74713 0.20577 0.0
C357 C 0.2416 0.712 0.33861 0.0
C358 C 0.25083 0.77989 0.1528 0.0
Dy359 Dy 0.24258 0.73736 0.28059 0.0
O360 O 0.25012 0.74728 0.15141 0.0
O361 O 0.25241 0.79378 0.18271 0.0
O362 O 0.30268 0.7319 0.20382 0.0
O363 O 0.27806 0.73127 0.24573 0.0
C364 C 0.30411 0.72677 0.23425 0.0
C365 C 0.20292 0.7702 0.25049 0.0
O366 O 0.28522 0.78029 0.28496 0.0
O367 O 0.27277 0.79765 0.23541 0.0
O368 O 0.24117 0.74349 0.33512 0.0
O369 O 0.24227 0.69458 0.31045 0.0
O370 O 0.20851 0.7746 0.28194 0.0
O371 O 0.21537 0.74628 0.23862 0.0
O372 O 0.21767 0.69782 0.19874 0.0
O373 O 0.21569 0.68782 0.25328 0.0
C374 C 0.28807 0.80337 0.26457 0.0
C375 C 0.20781 0.6783 0.22165 0.0
Dy376 Dy 0.55549 0.02119 0.50236 0.0
C377 C 0.42681 0.04974 0.50801 0.0
C378 C 0.61001 0.99471 0.50615 0.0
Dy379 Dy 0.4832 0.0272 0.51181 0.0
O380 O 0.58691 0.98524 0.48355 0.0
O381 O 0.60416 0.02 0.52565 0.0
O382 O 0.55803 0.05152 0.45993 0.0
O383 O 0.51397 0.02323 0.47149 0.0
C384 C 0.52671 0.045 0.4541 0.0
C385 C 0.51337 0.00286 0.55895 0.0
O386 O 0.47657 0.979 0.47801 0.0
O387 O 0.52558 0.96741 0.49505 0.0
O388 O 0.43087 0.02358 0.52213 0.0
O389 O 0.45345 0.06324 0.49595 0.0
O390 O 0.48216 0.99442 0.55311 0.0
O391 O 0.52481 0.02545 0.54209 0.0
O392 O 0.56422 0.07335 0.53072 0.0
O393 O 0.51073 0.0805 0.52787 0.0
C394 C 0.49655 0.95767 0.47953 0.0
C395 C 0.54202 0.0923 0.53555 0.0
Dy396 Dy 0.23184 0.27718 0.76271 0.0
C397 C 0.3696 0.28537 0.74721 0.0
C398 C 0.17147 0.27587 0.78293 0.0
Dy399 Dy 0.30665 0.27354 0.76159 0.0
O400 O 0.17959 0.25174 0.76341 0.0
O401 O 0.19591 0.30106 0.78999 0.0
O402 O 0.23932 0.31757 0.72922 0.0
O403 O 0.27772 0.31276 0.76068 0.0
C404 C 0.27016 0.3269 0.73679 0.0
C405 C 0.26972 0.21494 0.77601 0.0
O406 O 0.3052 0.30302 0.81071 0.0
O407 O 0.24986 0.28518 0.81525 0.0
O408 O 0.35888 0.27401 0.77369 0.0
O409 O 0.34599 0.29129 0.72928 0.0
O410 O 0.3008 0.21887 0.7739 0.0
O411 O 0.26216 0.24215 0.77029 0.0
O412 O 0.2314 0.2434 0.71598 0.0
O413 O 0.28698 0.2569 0.70975 0.0
C414 C 0.27918 0.29998 0.82803 0.0
C415 C 0.25691 0.24294 0.69831 0.0
Dy416 Dy 0.00538 0.01051 0.4749 0.0
C417 C 0.0651 0.05372 0.60066 0.0
C418 C 0.97104 0.99504 0.41626 0.0
Dy419 Dy 0.02911 0.0416 0.54291 0.0
O420 O -0.00232 0.98527 0.42328 0.0
O421 O 0.96253 0.01211 0.44176 0.0
O422 O 0.05642 0.00913 0.46189 0.0
O423 O 0.04763 0.04791 0.49561 0.0
C424 C 0.06951 0.03554 0.4823 0.0
C425 C 0.96509 0.0186 0.53527 0.0
O426 O 0.02806 0.09038 0.52223 0.0
O427 O 0.99512 0.0635 0.47717 0.0
O428 O 0.03533 0.05717 0.59685 0.0
O429 O 0.07578 0.04601 0.57244 0.0
O430 O 0.97857 0.04555 0.55492 0.0
O431 O 0.98632 0.00462 0.52234 0.0
O432 O 0.00483 0.96191 0.4961 0.0
O433 O 0.03873 0.98828 0.54039 0.0
C434 C 0.00958 0.09171 0.49594 0.0
C435 C 0.02349 0.96018 0.522 0.0
Dy436 Dy 0.29724 0.78708 0.7739 0.0
C437 C 0.1805 0.73137 0.69715 0.0
C438 C 0.35286 0.8052 0.81274 0.0
Dy439 Dy 0.23221 0.74817 0.7412 0.0
O440 O 0.3467 0.81899 0.78703 0.0
O441 O 0.32773 0.78278 0.81818 0.0
O442 O 0.31428 0.80063 0.7251 0.0
O443 O 0.28157 0.75606 0.72803 0.0
C444 C 0.29529 0.7746 0.70845 0.0
C445 C 0.23359 0.75802 0.80631 0.0
O446 O 0.25776 0.70418 0.74059 0.0
O447 O 0.29872 0.73228 0.77855 0.0
O448 O 0.18112 0.72186 0.72603 0.0
O449 O 0.20871 0.74874 0.69197 0.0
O450 O 0.21504 0.73224 0.78862 0.0
O451 O 0.24764 0.77796 0.7878 0.0
O452 O 0.2712 0.83058 0.77808 0.0
O453 O 0.22924 0.80379 0.74067 0.0
C454 C 0.28319 0.70404 0.76048 0.0
C455 C 0.24521 0.83152 0.75944 0.0
Dy456 Dy 0.49529 0.01391 0.02749 0.0
C457 C 0.52214 0.01665 0.89191 0.0
C458 C 0.47304 0.00971 0.08735 0.0
Dy459 Dy 0.50321 0.02628 0.95294 0.0
O460 O 0.49448 0.03492 0.07975 0.0
O461 O 0.4646 0.98646 0.06257 0.0
O462 O 0.5265 0.97475 0.02131 0.0
O463 O 0.49872 0.98356 0.98148 0.0
C464 C 0.52015 0.96813 0.99003 0.0
C465 C 0.48937 0.08071 0.98976 0.0
O466 O 0.45326 0.99545 0.94987 0.0
O467 O 0.44477 0.00449 0.00519 0.0
O468 O 0.53813 0.0121 0.91779 0.0
O469 O 0.49567 0.02685 0.89931 0.0
O470 O 0.49465 0.08091 0.95903 0.0
O471 O 0.49217 0.05222 0.99697 0.0
O472 O 0.54292 0.04991 0.03145 0.0
O473 O 0.55308 0.04098 0.97644 0.0
C474 C 0.43418 0.99375 0.97446 0.0
C475 C 0.56242 0.05243 0.00723 0.0
Dy476 Dy 0.28081 0.31386 0.27446 0.0
C477 C 0.28652 0.17571 0.26705 0.0
C478 C 0.26678 0.37642 0.27132 0.0
Dy479 Dy 0.26959 0.23517 0.25676 0.0
O480 O 0.27027 0.36315 0.29798 0.0
O481 O 0.27352 0.35644 0.24696 0.0
O482 O 0.30676 0.31023 0.32242 0.0
O483 O 0.27034 0.27018 0.30039 0.0
C484 C 0.29147 0.27894 0.32364 0.0
C485 C 0.25914 0.26927 0.20668 0.0
O486 O 0.22248 0.23805 0.27862 0.0
O487 O 0.22667 0.29566 0.27479 0.0
O488 O 0.26327 0.17786 0.24617 0.0
O489 O 0.29971 0.20559 0.28164 0.0
O490 O 0.24541 0.2374 0.20749 0.0
O491 O 0.27955 0.27863 0.23051 0.0
O492 O 0.33 0.31279 0.25668 0.0
O493 O 0.32273 0.2535 0.25091 0.0
C494 C 0.20998 0.26582 0.28097 0.0
C495 C 0.341 0.28425 0.2504 0.0
Dy496 Dy 0.50775 0.51298 0.97434 0.0
C497 C 0.56614 0.55534 0.10115 0.0
C498 C 0.47495 0.49813 0.91464 0.0
Dy499 Dy 0.53036 0.54329 0.04315 0.0
O500 O 0.50134 0.48824 0.92243 0.0
O501 O 0.46579 0.51493 0.93995 0.0
O502 O 0.55916 0.51247 0.9622 0.0
O503 O 0.54954 0.55052 0.9962 0.0
C504 C 0.57182 0.5386 0.98313 0.0
C505 C 0.46648 0.51995 0.03428 0.0
O506 O 0.52791 0.59232 0.02363 0.0
O507 O 0.49662 0.56561 0.97737 0.0
O508 O 0.53544 0.55516 0.09765 0.0
O509 O 0.57752 0.55097 0.07272 0.0
O510 O 0.47959 0.54666 0.05446 0.0
O511 O 0.48799 0.50631 0.02143 0.0
O512 O 0.50683 0.46413 0.99539 0.0
O513 O 0.54073 0.49029 0.03975 0.0
C514 C 0.50996 0.59364 0.997 0.0
C515 C 0.5254 0.46226 0.02134 0.0
Dy516 Dy 0.79791 0.28645 0.27462 0.0
C517 C 0.68004 0.23423 0.19986 0.0
C518 C 0.85431 0.30477 0.31228 0.0
Dy519 Dy 0.73158 0.24891 0.24404 0.0
O520 O 0.84811 0.31747 0.28592 0.0
O521 O 0.82897 0.28329 0.31885 0.0
O522 O 0.81417 0.29655 0.22451 0.0
O523 O 0.78055 0.25342 0.23039 0.0
C524 C 0.79428 0.27013 0.20957 0.0
C525 C 0.73389 0.26239 0.30899 0.0
O526 O 0.75448 0.20362 0.24496 0.0
O527 O 0.79734 0.23129 0.2811 0.0
O528 O 0.67979 0.2252 0.22899 0.0
O529 O 0.70895 0.24961 0.19454 0.0
O530 O 0.71405 0.23678 0.29242 0.0
O531 O 0.7486 0.28075 0.28952 0.0
O532 O 0.77347 0.33139 0.27645 0.0
O533 O 0.73188 0.30402 0.23911 0.0
C534 C 0.77996 0.20293 0.26444 0.0
C535 C 0.74815 0.33216 0.25673 0.0
Dy536 Dy 0.99314 0.51966 0.52946 0.0
C537 C 0.01622 0.50692 0.38999 0.0
C538 C 0.971 0.52873 0.58938 0.0
Dy539 Dy 0.0055 0.52282 0.45334 0.0
O540 O 0.96112 0.50221 0.56803 0.0
O541 O 0.99385 0.55033 0.57835 0.0
O542 O 0.01354 0.47192 0.53394 0.0
O543 O 0.01202 0.49198 0.49074 0.0
C544 C 0.02062 0.46846 0.50369 0.0
C545 C 0.99143 0.57823 0.48678 0.0
O546 O 0.95517 0.49185 0.45019 0.0
O547 O 0.94409 0.50081 0.50494 0.0
O548 O 0.00188 0.53123 0.40091 0.0
O549 O 0.02465 0.49155 0.41368 0.0
O550 O 0.00884 0.57953 0.46151 0.0
O551 O 0.98068 0.54769 0.49071 0.0
O552 O 0.04067 0.55582 0.53102 0.0
O553 O 0.05475 0.54022 0.47803 0.0
C554 C 0.93528 0.48892 0.4741 0.0
C555 C 0.06188 0.55564 0.50826 0.0
Dy556 Dy 0.72961 0.77456 0.25893 0.0
C557 C 0.86311 0.77547 0.24073 0.0
C558 C 0.66973 0.76627 0.28227 0.0
Dy559 Dy 0.80087 0.76826 0.25797 0.0
O560 O 0.67752 0.78032 0.25616 0.0
O561 O 0.69415 0.75599 0.29446 0.0
O562 O 0.7389 0.82182 0.23405 0.0
O563 O 0.77569 0.81038 0.26351 0.0
C564 C 0.7695 0.82952 0.24326 0.0
C565 C 0.75941 0.71318 0.27265 0.0
O566 O 0.80256 0.79772 0.30767 0.0
O567 O 0.7471 0.78595 0.31183 0.0
O568 O 0.8512 0.75829 0.26367 0.0
O569 O 0.84108 0.7887 0.22756 0.0
O570 O 0.78961 0.72068 0.28326 0.0
O571 O 0.75474 0.73291 0.25257 0.0
O572 O 0.72821 0.74609 0.20885 0.0
O573 O 0.78382 0.75667 0.20477 0.0
C574 C 0.77683 0.79721 0.32507 0.0
C575 C 0.75394 0.746 0.19143 0.0
Dy576 Dy 0.76925 0.26681 0.70876 0.0
C577 C 0.76016 0.24076 0.83985 0.0
C578 C 0.76741 0.28102 0.64623 0.0
Dy579 Dy 0.75661 0.26664 0.78252 0.0
O580 O 0.74337 0.26477 0.66036 0.0
O581 O 0.79293 0.28913 0.66625 0.0
O582 O 0.80469 0.23189 0.71324 0.0
O583 O 0.79725 0.26523 0.75296 0.0
C584 C 0.81073 0.24094 0.74443 0.0
C585 C 0.71774 0.2969 0.74992 0.0
O586 O 0.79484 0.31421 0.78386 0.0
O587 O 0.78512 0.32139 0.72988 0.0
O588 O 0.7653 0.22601 0.81167 0.0
O589 O 0.75251 0.27009 0.83692 0.0
O590 O 0.72229 0.30234 0.78158 0.0
O591 O 0.72918 0.27153 0.73911 0.0
O592 O 0.7354 0.2169 0.70455 0.0
O593 O 0.72715 0.21585 0.7598 0.0
C594 C 0.79891 0.33281 0.75935 0.0
C595 C 0.72239 0.20204 0.72893 0.0
Dy596 Dy 0.77876 0.81265 0.77041 0.0
C597 C 0.77735 0.67076 0.74518 0.0
C598 C 0.7701 0.87817 0.77425 0.0
Dy599 Dy 0.76621 0.73534 0.74872 0.0
O600 O 0.7654 0.8589 0.79726 0.0
O601 O 0.78129 0.86204 0.7498 0.0
O602 O 0.80916 0.80796 0.81501 0.0
O603 O 0.77199 0.76761 0.79522 0.0
C604 C 0.79536 0.77627 0.81634 0.0
C605 C 0.74982 0.77194 0.70278 0.0
O606 O 0.71989 0.73714 0.77198 0.0
O607 O 0.72487 0.79546 0.77211 0.0
O608 O 0.78771 0.69283 0.72568 0.0
O609 O 0.7582 0.68312 0.76478 0.0
O610 O 0.73696 0.73987 0.70325 0.0
O611 O 0.77305 0.78034 0.72396 0.0
O612 O 0.8254 0.81013 0.74785 0.0
O613 O 0.82027 0.75274 0.75223 0.0
C614 C 0.70824 0.76525 0.77723 0.0
C615 C 0.83728 0.78205 0.7454 0.0
Dy616 Dy 0.47221 0.50825 0.49105 0.0
C617 C 0.60775 0.54126 0.52341 0.0
C618 C 0.40723 0.50558 0.48435 0.0
Dy619 Dy 0.54283 0.53787 0.51341 0.0
O620 O 0.4286 0.52005 0.46611 0.0
O621 O 0.42132 0.48999 0.50455 0.0
O622 O 0.48529 0.47367 0.44953 0.0
O623 O 0.51675 0.51978 0.4662 0.0
C624 C 0.51395 0.49219 0.44757 0.0
C625 C 0.50019 0.5533 0.55627 0.0
O626 O 0.53373 0.57978 0.48625 0.0
O627 O 0.47829 0.5648 0.48923 0.0
O628 O 0.58643 0.53513 0.54473 0.0
O629 O 0.59363 0.5485 0.49759 0.0
O630 O 0.52832 0.57287 0.55416 0.0
O631 O 0.49832 0.52579 0.53789 0.0
O632 O 0.4816 0.46629 0.5185 0.0
O633 O 0.53708 0.4819 0.51627 0.0
C634 C 0.50443 0.58618 0.48225 0.0
C635 C 0.51106 0.46055 0.52334 0.0
Dy636 Dy 0.05763 0.52151 0.00918 0.0
C637 C 0.92641 0.54566 0.00042 0.0
C638 C 0.10869 0.49188 0.02154 0.0
Dy639 Dy 0.9842 0.52592 0.0065 0.0
O640 O 0.11126 0.52383 0.01748 0.0
O641 O 0.0786 0.47671 0.01877 0.0
O642 O 0.06873 0.55561 0.97014 0.0
O643 O 0.02226 0.52741 0.97269 0.0
C644 C 0.03849 0.55143 0.95996 0.0
C645 C 0.00647 0.49521 0.054 0.0
O646 O 0.98012 0.47889 0.97128 0.0
O647 O 0.03127 0.46955 0.98547 0.0
O648 O 0.936 0.53157 0.02459 0.0
O649 O 0.94822 0.54838 0.97912 0.0
O650 O 0.97718 0.48537 0.04082 0.0
O651 O 0.0203 0.52121 0.04267 0.0
O652 O 0.05881 0.56771 0.04531 0.0
O653 O 0.01014 0.57918 0.02612 0.0
C654 C 0.00208 0.4595 0.97032 0.0
C655 C 0.03813 0.58843 0.0436 0.0
C656 C 0.02263 0.15641 0.93895 0.0
C657 C 0.99494 0.17066 0.94097 0.0
C658 C 0.02748 0.13143 0.95829 0.0
C659 C 0.00427 0.11888 0.97962 0.0
H660 H 0.04056 0.16437 0.92193 0.0
H661 H 0.04874 0.12052 0.95504 0.0
S662 S 0.92852 0.14957 0.99544 0.0
N663 N 0.94513 0.17246 0.96764 0.0
N664 N 0.95332 0.12414 0.00299 0.0
C665 C 0.97689 0.13373 0.98263 0.0
C666 C 0.97245 0.15997 0.96355 0.0
C667 C 0.15716 0.79189 0.17822 0.0
C668 C 0.13877 0.81442 0.19247 0.0
C669 C 0.17826 0.77837 0.19728 0.0
C670 C 0.18253 0.78753 0.23118 0.0
H671 H 0.15373 0.78283 0.15246 0.0
H672 H 0.19042 0.75958 0.18538 0.0
S673 S 0.14273 0.84859 0.27976 0.0
N674 N 0.12765 0.84708 0.24217 0.0
N675 N 0.1685 0.82267 0.27785 0.0
C676 C 0.16579 0.81161 0.24549 0.0
C677 C 0.14369 0.82486 0.22614 0.0
C678 C 0.49768 0.86621 0.44717 0.0
C679 C 0.48434 0.86342 0.41515 0.0
C680 C 0.50051 0.89646 0.46847 0.0
C681 C 0.48918 0.92449 0.45877 0.0
H682 H 0.50747 0.84554 0.45529 0.0
H683 H 0.5123 0.89822 0.49243 0.0
S684 S 0.45011 0.92905 0.37819 0.0
N685 N 0.45837 0.89057 0.37525 0.0
N686 N 0.46276 0.94693 0.41547 0.0
C687 C 0.47429 0.92133 0.42735 0.0
C688 C 0.47212 0.89091 0.40548 0.0
C689 C 0.43947 0.2922 0.69257 0.0
C690 C 0.46278 0.27981 0.71019 0.0
C691 C 0.4098 0.29501 0.70529 0.0
C692 C 0.40236 0.28575 0.73616 0.0
H693 H 0.44394 0.29939 0.66855 0.0
H694 H 0.39235 0.30392 0.69049 0.0
S695 S 0.45556 0.25406 0.79325 0.0
N696 N 0.47675 0.25972 0.76105 0.0
N697 N 0.42097 0.26515 0.78473 0.0
C698 C 0.42563 0.27422 0.75446 0.0
C699 C 0.45581 0.27116 0.74151 0.0
C700 C 0.03257 0.89697 0.58096 0.0
C701 C 0.01532 0.86573 0.56482 0.0
C702 C 0.03633 0.92686 0.56621 0.0
C703 C 0.02278 0.92702 0.53467 0.0
H704 H 0.04309 0.89856 0.60545 0.0
H705 H 0.04925 0.95022 0.58026 0.0
S706 S 0.97682 0.85149 0.48104 0.0
N707 N 0.98573 0.83638 0.51481 0.0
N708 N 0.99264 0.89265 0.48711 0.0
C709 C 0.00625 0.89575 0.51779 0.0
C710 C 0.00253 0.86514 0.53284 0.0
C711 C 0.44359 0.82116 0.81849 0.0
C712 C 0.45049 0.79894 0.84034 0.0
C713 C 0.41202 0.82495 0.81168 0.0
C714 C 0.38592 0.80651 0.82624 0.0
H715 H 0.46269 0.83548 0.80599 0.0
H716 H 0.40798 0.84135 0.79371 0.0
S717 S 0.39092 0.74801 0.88805 0.0
N718 N 0.42869 0.76054 0.87882 0.0
N719 N 0.36903 0.76746 0.86566 0.0
C720 C 0.39244 0.78563 0.8495 0.0
C721 C 0.42479 0.78186 0.85662 0.0
C722 C 0.47613 0.13158 0.06859 0.0
C723 C 0.48259 0.16539 0.06138 0.0
C724 C 0.47688 0.10429 0.04476 0.0
C725 C 0.48453 0.10966 0.01292 0.0
H726 H 0.47143 0.12617 0.09313 0.0
H727 H 0.47221 0.07883 0.05157 0.0
S728 S 0.50021 0.19268 0.98038 0.0
N729 N 0.49425 0.20238 0.01914 0.0
N730 N 0.49597 0.15086 0.97448 0.0
C731 C 0.48914 0.143 0.00475 0.0
C732 C 0.48811 0.17092 0.02898 0.0
C733 C 0.15524 0.29225 0.34474 0.0
C734 C 0.12741 0.26635 0.33932 0.0
C735 C 0.18116 0.29238 0.32468 0.0
C736 C 0.18057 0.26615 0.29901 0.0
H737 H 0.15684 0.31281 0.36435 0.0
H738 H 0.20228 0.31271 0.32998 0.0
S739 S 0.11344 0.19224 0.2751 0.0
N740 N 0.1004 0.2141 0.3062 0.0
N741 N 0.15003 0.21343 0.26952 0.0
C742 C 0.15303 0.23992 0.29353 0.0
C743 C 0.12617 0.24032 0.31338 0.0
C744 C 0.95932 0.07492 0.13829 0.0
C745 C 0.93248 0.04849 0.13998 0.0
C746 C 0.97981 0.07386 0.11247 0.0
C747 C 0.97465 0.04589 0.08793 0.0
H748 H 0.9647 0.09637 0.15728 0.0
H749 H 0.00025 0.09473 0.11219 0.0
S750 S 0.90904 0.96888 0.08299 0.0
N751 N 0.90214 0.99336 0.11555 0.0
N752 N 0.94143 0.99031 0.06819 0.0
C753 C 0.94793 0.0192 0.08962 0.0
C754 C 0.92665 0.02076 0.11536 0.0
C755 C 0.25436 0.70931 0.42897 0.0
C756 C 0.25442 0.67474 0.43082 0.0
C757 C 0.24952 0.72108 0.39907 0.0
C758 C 0.24469 0.69873 0.36995 0.0
H759 H 0.25796 0.72749 0.45079 0.0
H760 H 0.24993 0.74794 0.39878 0.0
S761 S 0.24252 0.60584 0.36127 0.0
N762 N 0.24905 0.61826 0.40069 0.0
N763 N 0.24006 0.64048 0.34461 0.0
C764 C 0.2446 0.66413 0.37136 0.0
C765 C 0.24946 0.65211 0.40177 0.0
C766 C 0.58731 0.99154 0.60649 0.0
C767 C 0.57589 0.96309 0.62229 0.0
C768 C 0.5665 0.00405 0.5864 0.0
C769 C 0.53384 0.98789 0.58023 0.0
H770 H 0.61178 0.006 0.61179 0.0
H771 H 0.57584 0.02759 0.57682 0.0
S772 S 0.49267 0.91108 0.61415 0.0
N773 N 0.53016 0.91848 0.63017 0.0
N774 N 0.49135 0.94091 0.59031 0.0
C775 C 0.52239 0.95847 0.59465 0.0
C776 C 0.54344 0.94622 0.61602 0.0
C777 C 0.25872 0.31767 0.91596 0.0
C778 C 0.27714 0.3505 0.9257 0.0
C779 C 0.26057 0.30082 0.88468 0.0
C780 C 0.2816 0.31578 0.8624 0.0
H781 H 0.2416 0.30566 0.93196 0.0
H782 H 0.2448 0.27623 0.87757 0.0
S783 S 0.33703 0.40019 0.87743 0.0
N784 N 0.31828 0.39663 0.91143 0.0
N785 N 0.32253 0.36455 0.85319 0.0
C786 C 0.30144 0.34779 0.87261 0.0
C787 C 0.29896 0.36527 0.9041 0.0
C788 C 0.92873 0.02117 0.34417 0.0
C789 C 0.93958 0.00244 0.31763 0.0
C790 C 0.93753 0.01723 0.37626 0.0
C791 C 0.95741 0.99439 0.38288 0.0
H792 H 0.91417 0.03975 0.34019 0.0
H793 H 0.92977 0.03319 0.39595 0.0
S794 S 0.98825 0.93568 0.32238 0.0
N795 N 0.96838 0.95738 0.30042 0.0
N796 N 0.98501 0.95046 0.36062 0.0
C797 C 0.96696 0.97424 0.35671 0.0
C798 C 0.95804 0.97816 0.32411 0.0
C799 C 0.28549 0.73662 0.62123 0.0
C800 C 0.30045 0.70857 0.62262 0.0
C801 C 0.28674 0.76094 0.64856 0.0
C802 C 0.30374 0.75826 0.67751 0.0
H803 H 0.27021 0.73799 0.60006 0.0
H804 H 0.27221 0.78017 0.64788 0.0
S805 S 0.35129 0.69287 0.69158 0.0
N806 N 0.33552 0.68164 0.65392 0.0
N807 N 0.33905 0.72813 0.70477 0.0
C808 C 0.32147 0.73235 0.67798 0.0
C809 C 0.31953 0.70722 0.6506 0.0
C810 C 0.52914 0.02099 0.80233 0.0
C811 C 0.55529 0.00506 0.79533 0.0
C812 C 0.51813 0.02403 0.8336 0.0
C813 C 0.53294 0.01139 0.85896 0.0
H814 H 0.51731 0.03178 0.78369 0.0
H815 H 0.49831 0.037 0.83802 0.0
S816 S 0.60003 0.96457 0.85317 0.0
N817 N 0.59419 0.97432 0.81615 0.0
N818 N 0.57346 0.98033 0.87508 0.0
C819 C 0.55841 0.9945 0.85231 0.0
C820 C 0.56961 0.99127 0.82042 0.0
C821 C 0.28407 0.33578 0.14924 0.0
C822 C 0.26335 0.32364 0.1212 0.0
C823 C 0.28242 0.31805 0.17655 0.0
C824 C 0.25957 0.28764 0.1774 0.0
H825 H 0.30204 0.3591 0.15007 0.0
H826 H 0.29954 0.32819 0.19706 0.0
S827 S 0.1992 0.24506 0.11069 0.0
N828 N 0.21905 0.27902 0.09613 0.0
N829 N 0.2156 0.24622 0.14767 0.0
C830 C 0.2386 0.27521 0.14963 0.0
C831 C 0.24054 0.29305 0.12156 0.0
C832 C 0.14974 0.96139 0.03591 0.0
C833 C 0.17023 0.96421 0.01013 0.0
C834 C 0.13131 0.98596 0.04412 0.0
C835 C 0.13232 0.01379 0.02638 0.0
H836 H 0.1475 0.93977 0.04947 0.0
H837 H 0.11458 0.98179 0.06306 0.0
S838 S 0.18377 0.03393 0.95817 0.0
N839 N 0.19227 0.9982 0.96838 0.0
N840 N 0.15678 0.04387 0.98329 0.0
C841 C 0.15383 0.01773 0.00158 0.0
C842 C 0.17298 0.99301 0.99353 0.0
C843 C 0.65469 0.57034 0.95309 0.0
C844 C 0.66468 0.60255 0.9714 0.0
C845 C 0.62494 0.54935 0.95753 0.0
C846 C 0.60439 0.55962 0.98085 0.0
H847 H 0.66991 0.5614 0.93501 0.0
H848 H 0.61788 0.5251 0.94234 0.0
S849 S 0.62146 0.63989 0.03791 0.0
N850 N 0.65293 0.64269 0.01534 0.0
N851 N 0.59751 0.60308 0.0243 0.0
C852 C 0.61473 0.5913 0.00014 0.0
C853 C 0.64473 0.61285 0.99522 0.0
C854 C 0.7297 0.41942 0.28545 0.0
C855 C 0.70153 0.41966 0.26632 0.0
C856 C 0.7455 0.39171 0.28146 0.0
C857 C 0.73401 0.36338 0.25784 0.0
H858 H 0.73906 0.4403 0.30434 0.0
H859 H 0.76631 0.39215 0.29765 0.0
S860 S 0.66332 0.35374 0.19871 0.0
N861 N 0.6643 0.39042 0.22121 0.0
N862 N 0.69406 0.33913 0.21305 0.0
C863 C 0.70673 0.36428 0.23747 0.0
C864 C 0.69047 0.39215 0.2419 0.0
C865 C 0.84967 0.44861 0.487 0.0
C866 C 0.83244 0.45329 0.45877 0.0
C867 C 0.88311 0.4589 0.49089 0.0
C868 C 0.90083 0.47405 0.46663 0.0
H869 H 0.83724 0.43773 0.50685 0.0
H870 H 0.89512 0.45558 0.51349 0.0
S871 S 0.86792 0.48956 0.38689 0.0
N872 N 0.83587 0.47221 0.40513 0.0
N873 N 0.89926 0.49164 0.41258 0.0
C874 C 0.88431 0.47759 0.43761 0.0
C875 C 0.84996 0.4673 0.43369 0.0
C876 C 0.34297 0.1228 0.29644 0.0
C877 C 0.33169 0.09062 0.27865 0.0
C878 C 0.32709 0.14951 0.29337 0.0
C879 C 0.29951 0.1453 0.27205 0.0
H880 H 0.36474 0.12768 0.31236 0.0
H881 H 0.33731 0.17403 0.30711 0.0
S882 S 0.25889 0.06548 0.22148 0.0
N883 N 0.29006 0.05529 0.24033 0.0
N884 N 0.2604 0.10609 0.23421 0.0
C885 C 0.2871 0.11296 0.25504 0.0
C886 C 0.30314 0.08545 0.25845 0.0
C887 C 0.34137 0.05982 0.52243 0.0
C888 C 0.33814 0.08804 0.5064 0.0
C889 C 0.37005 0.04755 0.52262 0.0
C890 C 0.39673 0.06297 0.50683 0.0
H891 H 0.32157 0.04691 0.53508 0.0
H892 H 0.37129 0.02587 0.53537 0.0
S893 S 0.40122 0.13717 0.46088 0.0
N894 N 0.36441 0.13085 0.47398 0.0
N895 N 0.41841 0.10772 0.47443 0.0
C896 C 0.39405 0.09113 0.49063 0.0
C897 C 0.36476 0.1037 0.49042 0.0
C898 C 0.7215 0.62828 0.30055 0.0
C899 C 0.68968 0.62197 0.2865 0.0
C900 C 0.74382 0.65827 0.2968 0.0
C901 C 0.73528 0.68269 0.27839 0.0
H902 H 0.7294 0.60971 0.31411 0.0
H903 H 0.76812 0.66192 0.30774 0.0
S904 S 0.65515 0.67849 0.23638 0.0
N905 N 0.65083 0.6434 0.25386 0.0
N906 N 0.69277 0.69848 0.24606 0.0
C907 C 0.70349 0.67683 0.26457 0.0
C908 C 0.6807 0.64684 0.26884 0.0
C909 C 0.85198 0.41639 0.79775 0.0
C910 C 0.86949 0.4275 0.77152 0.0
C911 C 0.8292 0.38553 0.79387 0.0
C912 C 0.82255 0.36548 0.76339 0.0
H913 H 0.85617 0.43146 0.82144 0.0
H914 H 0.81644 0.37757 0.81469 0.0
S915 S 0.86141 0.38431 0.68686 0.0
N916 N 0.87849 0.41651 0.71415 0.0
N917 N 0.83549 0.35916 0.70654 0.0
C918 C 0.83977 0.37667 0.73694 0.0
C919 C 0.8633 0.40754 0.74109 0.0
C920 C -0.00207 0.88798 0.07754 0.0
C921 C 0.02476 0.87274 0.07191 0.0
C922 C 0.9907 0.91244 0.05851 0.0
C923 C 0.01047 0.92312 0.03363 0.0
H924 H 0.98272 0.88141 0.0972 0.0
H925 H 0.97062 0.92448 0.06462 0.0
S926 S 0.08252 0.88995 0.00787 0.0
N927 N 0.07001 0.86874 0.03828 0.0
N928 N 0.05706 0.91546 0.00332 0.0
C929 C 0.0367 0.90729 0.02704 0.0
C930 C 0.04367 0.88189 0.04595 0.0
C931 C 0.88947 0.21475 0.76557 0.0
C932 C 0.89713 0.2304 0.79776 0.0
C933 C 0.86012 0.21586 0.74912 0.0
C934 C 0.83815 0.23383 0.76397 0.0
H935 H 0.90707 0.2033 0.75245 0.0
H936 H 0.85571 0.20464 0.72395 0.0
S937 S 0.84732 0.27853 0.84843 0.0
N938 N 0.87999 0.26226 0.84458 0.0
N939 N 0.82621 0.26688 0.81328 0.0
C940 C 0.84518 0.24831 0.79671 0.0
C941 C 0.87437 0.24594 0.81372 0.0
C942 C 0.53669 0.18241 0.56772 0.0
C943 C 0.55834 0.18977 0.59538 0.0
C944 C 0.53287 0.15144 0.54746 0.0
C945 C 0.55104 0.12692 0.55364 0.0
H946 H 0.52141 0.19996 0.5625 0.0
H947 H 0.51478 0.1462 0.52733 0.0
S948 S 0.6136 0.13528 0.62083 0.0
N949 N 0.6001 0.17106 0.62645 0.0
N950 N 0.59314 0.11306 0.58803 0.0
C951 C 0.5742 0.13478 0.58003 0.0
C952 C 0.57775 0.16612 0.60101 0.0
C953 C 0.5817 0.76677 0.29508 0.0
C954 C 0.57933 0.76229 0.32815 0.0
C955 C 0.6111 0.76829 0.28029 0.0
C956 C 0.63891 0.76468 0.29792 0.0
H957 H 0.56071 0.76933 0.28052 0.0
H958 H 0.61197 0.77193 0.25486 0.0
S959 S 0.64559 0.75244 0.38508 0.0
N960 N 0.60742 0.75458 0.37807 0.0
N961 N 0.66251 0.75674 0.35022 0.0
C962 C 0.63688 0.76011 0.33096 0.0
C963 C 0.60712 0.75914 0.34612 0.0
C964 C 0.03882 0.18319 0.47975 0.0
C965 C 0.02021 0.18514 0.45139 0.0
C966 C 0.03392 0.15363 0.4953 0.0
C967 C 0.01008 0.12484 0.48322 0.0
H968 H 0.05822 0.20417 0.48938 0.0
H969 H 0.04998 0.1529 0.51605 0.0
S970 S 0.95175 0.11864 0.41232 0.0
N971 N 0.97488 0.15687 0.41375 0.0
N972 N 0.96533 0.10168 0.44301 0.0
C973 C 0.98996 0.12729 0.45604 0.0
C974 C 0.99512 0.15728 0.4401 0.0
C975 C 0.59471 0.24346 0.18193 0.0
C976 C 0.59656 0.2581 0.1527 0.0
C977 C 0.62126 0.23311 0.19563 0.0
C978 C 0.65088 0.23753 0.18094 0.0
H979 H 0.57273 0.24048 0.19479 0.0
H980 H 0.61896 0.22324 0.21881 0.0
S981 S 0.6679 0.27228 0.10305 0.0
N982 N 0.6298 0.27437 0.10834 0.0
N983 N 0.68016 0.25556 0.13458 0.0
C984 C 0.65278 0.25075 0.151 0.0
C985 C 0.62551 0.26093 0.13678 0.0
C986 C 0.5641 0.89738 0.96263 0.0
C987 C 0.5524 0.8877 0.93009 0.0
C988 C 0.55446 0.92438 0.98153 0.0
C989 C 0.53201 0.94177 0.96879 0.0
H990 H 0.58036 0.88367 0.97363 0.0
H991 H 0.56393 0.93098 0.00658 0.0
S992 S 0.49254 0.92406 0.88539 0.0
N993 N 0.51707 0.89702 0.88596 0.0
N994 N 0.49743 0.94614 0.9219 0.0
C995 C 0.52012 0.93211 0.93625 0.0
C996 C 0.5307 0.90544 0.9168 0.0
C997 C 0.91184 0.74984 0.72071 0.0
C998 C 0.92337 0.76946 0.69602 0.0
C999 C 0.88517 0.75553 0.73776 0.0
C1000 C 0.86881 0.78131 0.73121 0.0
H1001 H 0.92299 0.72917 0.7266 0.0
H1002 H 0.87676 0.73887 0.75569 0.0
S1003 S 0.8898 0.84126 0.6703 0.0
N1004 N 0.91692 0.81693 0.66691 0.0
N1005 N 0.8666 0.82762 0.69913 0.0
C1006 C 0.88065 0.80211 0.70755 0.0
C1007 C 0.90788 0.79615 0.68988 0.0
C1008 C 0.07321 0.98675 0.88233 0.0
C1009 C 0.07082 0.0141 0.86469 0.0
C1010 C 0.05504 0.98097 0.90974 0.0
C1011 C 0.03414 0.00249 0.9204 0.0
H1012 H 0.08882 0.96944 0.87469 0.0
H1013 H 0.05756 0.95982 0.92279 0.0
S1014 S 0.0191 0.07769 0.88371 0.0
N1015 N 0.04578 0.06322 0.86101 0.0
N1016 N 0.01198 0.05186 0.91176 0.0
C1017 C 0.0317 0.02988 0.90331 0.0
C1018 C 0.04995 0.03583 0.87568 0.0
C1019 C 0.78044 0.3424 0.58388 0.0
C1020 C 0.75091 0.33398 0.565 0.0
C1021 C 0.78671 0.32347 0.60874 0.0
C1022 C 0.76362 0.29554 0.61569 0.0
H1023 H 0.79856 0.36438 0.5801 0.0
H1024 H 0.80909 0.33188 0.62366 0.0
S1025 S 0.68383 0.2608 0.57169 0.0
N1026 N 0.69935 0.29406 0.55356 0.0
N1027 N 0.71123 0.25861 0.60032 0.0
C1028 C 0.73479 0.28564 0.59593 0.0
C1029 C 0.72837 0.30488 0.57061 0.0
C1030 C 0.45971 0.0345 0.3894 0.0
C1031 C 0.47672 0.0379 0.36128 0.0
C1032 C 0.47626 0.03949 0.41991 0.0
C1033 C 0.51021 0.04883 0.42332 0.0
H1034 H 0.43377 0.02528 0.38765 0.0
H1035 H 0.46243 0.03366 0.44063 0.0
S1036 S 0.5651 0.06668 0.35718 0.0
N1037 N 0.52869 0.05489 0.33858 0.0
N1038 N 0.55984 0.06551 0.3963 0.0
C1039 C 0.52718 0.05548 0.39561 0.0
C1040 C 0.51038 0.04963 0.36442 0.0
C1041 C 0.77349 0.72138 0.10412 0.0
C1042 C 0.74761 0.69445 0.09265 0.0
C1043 C 0.7748 0.73862 0.13575 0.0
C1044 C 0.74999 0.7301 0.15692 0.0
H1045 H 0.79355 0.72823 0.0891 0.0
H1046 H 0.79579 0.75839 0.14388 0.0
S1047 S 0.67544 0.66346 0.13749 0.0
N1048 N 0.69556 0.66148 0.10425 0.0
N1049 N 0.69783 0.69412 0.16325 0.0
C1050 C 0.7232 0.70435 0.14513 0.0
C1051 C 0.72209 0.68647 0.11315 0.0
C1052 C 0.12517 0.03046 0.65976 0.0
C1053 C 0.10651 0.02262 0.68628 0.0
C1054 C 0.11215 0.04238 0.63277 0.0
C1055 C 0.08019 0.04745 0.63151 0.0
H1056 H 0.14984 0.02678 0.65955 0.0
H1057 H 0.12699 0.04684 0.61238 0.0
S1058 S 0.02152 0.03229 0.69508 0.0
N1059 N 0.05437 0.02154 0.70964 0.0
N1060 N 0.03054 0.04494 0.65955 0.0
C1061 C 0.06165 0.0409 0.65829 0.0
C1062 C 0.07461 0.02814 0.68546 0.0
C1063 C 0.69113 0.31582 0.3648 0.0
C1064 C 0.71416 0.32726 0.39098 0.0
C1065 C 0.69625 0.29161 0.33958 0.0
C1066 C 0.7249 0.2789 0.33952 0.0
H1067 H 0.66983 0.32679 0.36307 0.0
H1068 H 0.67888 0.28479 0.31881 0.0
S1069 S 0.79244 0.30056 0.40248 0.0
N1070 N 0.76603 0.32317 0.41598 0.0
N1071 N 0.77602 0.27865 0.36774 0.0
C1072 C 0.74748 0.28915 0.36605 0.0
C1073 C 0.74198 0.31312 0.39209 0.0
C1074 C 0.45882 0.03319 0.17523 0.0
C1075 C 0.42906 0.01174 0.17909 0.0
C1076 C 0.47298 0.03216 0.14541 0.0
C1077 C 0.45812 0.00926 0.11862 0.0
H1078 H 0.47122 0.05111 0.19536 0.0
H1079 H 0.49581 0.04936 0.14339 0.0
S1080 S 0.38001 0.94771 0.11589 0.0
N1081 N 0.385 0.96711 0.15356 0.0
N1082 N 0.41199 0.96479 0.09742 0.0
C1083 C 0.42842 0.98755 0.12205 0.0
C1084 C 0.41372 0.98893 0.15234 0.0
C1085 C 0.7854 0.70415 0.86853 0.0
C1086 C 0.79014 0.72093 0.90056 0.0
C1087 C 0.78872 0.72236 0.84162 0.0
C1088 C 0.79724 0.75805 0.84533 0.0
H1089 H 0.778 0.67669 0.86404 0.0
H1090 H 0.78409 0.70831 0.81766 0.0
S1091 S 0.81592 0.8143 0.92377 0.0
N1092 N 0.80633 0.77557 0.93438 0.0
N1093 N 0.81286 0.80958 0.88362 0.0
C1094 C 0.80388 0.77518 0.87711 0.0
C1095 C 0.80016 0.75667 0.90472 0.0
C1096 C 0.83672 0.03285 0.02488 0.0
C1097 C 0.8307 0.06041 0.00932 0.0
C1098 C 0.85993 0.01447 0.01435 0.0
C1099 C 0.87818 0.02287 0.98785 0.0
H1100 H 0.82405 0.02582 0.04605 0.0
H1101 H 0.86467 0.99462 0.02817 0.0
S1102 S 0.86926 0.08976 0.9359 0.0
N1103 N 0.84293 0.09298 0.96387 0.0
N1104 N 0.88683 0.05844 0.94423 0.0
C1105 C 0.87122 0.04897 0.97076 0.0
C1106 C 0.8475 0.06781 0.98152 0.0
C1107 C 0.37608 0.50487 0.04039 0.0
C1108 C 0.36665 0.4691 0.03585 0.0
C1109 C 0.40857 0.52104 0.04056 0.0
C1110 C 0.43269 0.50204 0.03541 0.0
H1111 H 0.35809 0.52054 0.04317 0.0
H1112 H 0.41472 0.54861 0.04371 0.0
S1113 S 0.42104 0.40777 0.0247 0.0
N1114 N 0.38423 0.41519 0.02807 0.0
N1115 N 0.44538 0.44554 0.02785 0.0
C1116 C 0.42379 0.46625 0.03186 0.0
C1117 C 0.39071 0.44978 0.03231 0.0
C1118 C 0.3012 0.61683 0.73165 0.0
C1119 C 0.33093 0.61737 0.74848 0.0
C1120 C 0.28519 0.64422 0.73667 0.0
C1121 C 0.29808 0.67329 0.75891 0.0
H1122 H 0.29058 0.59549 0.7137 0.0
H1123 H 0.26302 0.64292 0.72222 0.0
S1124 S 0.37419 0.68618 0.81112 0.0
N1125 N 0.37173 0.64868 0.78961 0.0
N1126 N 0.34179 0.69975 0.79945 0.0
C1127 C 0.32721 0.67348 0.7769 0.0
C1128 C 0.34358 0.64571 0.77156 0.0
C1129 C 0.15215 0.56666 0.5149 0.0
C1130 C 0.16227 0.59895 0.53301 0.0
C1131 C 0.1195 0.55307 0.50697 0.0
C1132 C 0.09578 0.57092 0.51749 0.0
H1133 H 0.1696 0.55207 0.50591 0.0
H1134 H 0.11275 0.52828 0.4926 0.0
S1135 S 0.10923 0.65572 0.56655 0.0
N1136 N 0.14591 0.64828 0.56174 0.0
N1137 N 0.08403 0.62194 0.54753 0.0
C1138 C 0.10528 0.60278 0.53637 0.0
C1139 C 0.13872 0.61704 0.54392 0.0
C1140 C 0.70032 0.92256 0.77559 0.0
C1141 C 0.7058 0.94194 0.74957 0.0
C1142 C 0.72326 0.90483 0.78603 0.0
C1143 C 0.75221 0.90535 0.77037 0.0
H1144 H 0.67762 0.92 0.78723 0.0
H1145 H 0.71706 0.88852 0.80478 0.0
S1146 S 0.78005 0.95545 0.70383 0.0
N1147 N 0.74405 0.9637 0.71086 0.0
N1148 N 0.78671 0.92933 0.72996 0.0
C1149 C 0.7591 0.92658 0.74603 0.0
C1150 C 0.73596 0.94514 0.73571 0.0
C1151 C 0.65777 0.9242 0.49957 0.0
C1152 C 0.68123 0.9347 0.52557 0.0
C1153 C 0.63534 0.94429 0.49292 0.0
C1154 C 0.6354 0.97537 0.51225 0.0
H1155 H 0.65722 0.90076 0.48377 0.0
H1156 H 0.61769 0.93526 0.47262 0.0
S1157 S 0.69054 0.01293 0.58457 0.0
N1158 N 0.70239 0.97743 0.57152 0.0
N1159 N 0.66005 0.01487 0.5593 0.0
C1160 C 0.65833 0.98576 0.5387 0.0
C1161 C 0.68127 0.96549 0.54529 0.0
C1162 C 0.30888 0.41949 0.73665 0.0
C1163 C 0.33094 0.41849 0.71208 0.0
C1164 C 0.28896 0.38967 0.74421 0.0
C1165 C 0.29009 0.35788 0.72724 0.0
H1166 H 0.30783 0.44331 0.75111 0.0
H1167 H 0.273 0.39142 0.76387 0.0
S1168 S 0.34056 0.34118 0.6587 0.0
N1169 N 0.35091 0.38274 0.66945 0.0
N1170 N 0.31268 0.32694 0.68335 0.0
C1171 C 0.31076 0.35645 0.70178 0.0
C1172 C 0.33139 0.38671 0.69425 0.0
C1173 C 0.15428 0.59316 0.22999 0.0
C1174 C 0.14222 0.58056 0.19807 0.0
C1175 C 0.17535 0.62464 0.23708 0.0
C1176 C 0.18555 0.64485 0.21244 0.0
H1177 H 0.14722 0.57854 0.24981 0.0
H1178 H 0.18367 0.63297 0.26227 0.0
S1179 S 0.16215 0.62168 0.12417 0.0
N1180 N 0.1427 0.58922 0.14122 0.0
N1181 N 0.18235 0.64901 0.15423 0.0
C1182 C 0.17381 0.63224 0.18012 0.0
C1183 C 0.15211 0.59996 0.173 0.0
C1184 C 0.51439 0.65066 0.42216 0.0
C1185 C 0.48855 0.66733 0.42781 0.0
C1186 C 0.52027 0.62567 0.44108 0.0
C1187 C 0.5 0.61574 0.46582 0.0
H1188 H 0.53041 0.65719 0.40308 0.0
H1189 H 0.5402 0.61321 0.43548 0.0
S1190 S 0.4289 0.6515 0.49022 0.0
N1191 N 0.44292 0.67279 0.46033 0.0
N1192 N 0.45299 0.62462 0.49502 0.0
C1193 C 0.47403 0.63222 0.47174 0.0
C1194 C 0.46858 0.65837 0.453 0.0
C1195 C 0.63502 0.30944 0.72521 0.0
C1196 C 0.63905 0.3207 0.6944 0.0
C1197 C 0.66103 0.30318 0.74363 0.0
C1198 C 0.69202 0.30808 0.73203 0.0
H1199 H 0.61135 0.30414 0.73482 0.0
H1200 H 0.65658 0.2931 0.7665 0.0
S1201 S 0.71704 0.34484 0.65703 0.0
N1202 N 0.67745 0.34146 0.65563 0.0
N1203 N 0.72663 0.32989 0.69071 0.0
C1204 C 0.69701 0.32158 0.70253 0.0
C1205 C 0.67044 0.32795 0.68362 0.0
C1206 C 0.0012 0.36681 0.94232 0.0
C1207 C 0.98961 0.36283 0.90957 0.0
C1208 C 0.00439 0.39804 0.96206 0.0
C1209 C 0.99517 0.4261 0.95007 0.0
H1210 H 0.00915 0.34606 0.95245 0.0
H1211 H 0.01455 0.40039 0.9868 0.0
S1212 S 0.96172 0.4286 0.86674 0.0
N1213 N 0.96796 0.38945 0.86634 0.0
N1214 N 0.97299 0.44782 0.90391 0.0
C1215 C 0.98233 0.42217 0.91784 0.0
C1216 C 0.97983 0.39061 0.89744 0.0
C1217 C 0.94757 0.75934 0.23179 0.0
C1218 C 0.95926 0.77917 0.20733 0.0
C1219 C 0.91662 0.75871 0.24278 0.0
C1220 C 0.89615 0.77791 0.2298 0.0
H1221 H 0.9623 0.74383 0.24244 0.0
H1222 H 0.90859 0.74274 0.26135 0.0
S1223 S 0.91545 0.83569 0.16679 0.0
N1224 N 0.94808 0.81964 0.1714 0.0
N1225 N 0.88989 0.8184 0.19216 0.0
C1226 C 0.90755 0.79831 0.20575 0.0
C1227 C 0.93909 0.79893 0.19446 0.0
C1228 C 0.53253 0.39972 0.08148 0.0
C1229 C 0.51524 0.36843 0.06549 0.0
C1230 C 0.53702 0.42932 0.06627 0.0
C1231 C 0.52416 0.42919 0.03438 0.0
H1232 H 0.54256 0.40157 0.10619 0.0
H1233 H 0.54992 0.45273 0.08025 0.0
S1234 S 0.47855 0.35334 0.98095 0.0
N1235 N 0.48649 0.33863 0.01523 0.0
N1236 N 0.4947 0.39443 0.98667 0.0
C1237 C 0.50762 0.39784 0.01766 0.0
C1238 C 0.50319 0.36749 0.03318 0.0
C1239 C 0.94526 0.32609 0.32258 0.0
C1240 C 0.95246 0.30396 0.34443 0.0
C1241 C 0.91338 0.32766 0.31391 0.0
C1242 C 0.88728 0.3072 0.3267 0.0
H1243 H 0.96438 0.34202 0.31145 0.0
H1244 H 0.90919 0.34421 0.29613 0.0
S1245 S 0.89252 0.24702 0.38688 0.0
N1246 N 0.93049 0.26267 0.38032 0.0
N1247 N 0.87045 0.26566 0.36387 0.0
C1248 C 0.89392 0.28608 0.34968 0.0
C1249 C 0.92652 0.28441 0.35855 0.0
C1250 C 0.96847 0.6301 0.56091 0.0
C1251 C 0.98431 0.66342 0.55754 0.0
C1252 C 0.96956 0.60292 0.537 0.0
C1253 C 0.98753 0.60791 0.50951 0.0
H1254 H 0.95572 0.62492 0.58251 0.0
H1255 H 0.95701 0.57766 0.54057 0.0
S1256 S 0.03262 0.69047 0.48894 0.0
N1257 N 0.01727 0.70022 0.52392 0.0
N1258 N 0.02033 0.64892 0.47958 0.0
C1259 C 0.00263 0.64125 0.50535 0.0
C1260 C 0.00083 0.66906 0.52929 0.0
C1261 C 0.65299 0.78946 0.84137 0.0
C1262 C 0.62608 0.7624 0.83652 0.0
C1263 C 0.67869 0.79071 0.82095 0.0
C1264 C 0.67884 0.7645 0.79547 0.0
H1265 H 0.65403 0.81004 0.86079 0.0
H1266 H 0.6991 0.81195 0.82586 0.0
S1267 S 0.61409 0.68798 0.77279 0.0
N1268 N 0.60061 0.70918 0.80403 0.0
N1269 N 0.64985 0.71068 0.76658 0.0
C1270 C 0.65217 0.7372 0.79048 0.0
C1271 C 0.6255 0.73641 0.81073 0.0
C1272 C 0.42699 0.53795 0.60692 0.0
C1273 C 0.4392 0.55388 0.63808 0.0
C1274 C 0.44668 0.53901 0.58042 0.0
C1275 C 0.47908 0.55658 0.58376 0.0
H1276 H 0.40246 0.52332 0.60319 0.0
H1277 H 0.4366 0.52543 0.55726 0.0
S1278 S 0.52167 0.60572 0.65943 0.0
N1279 N 0.48516 0.58986 0.6703 0.0
N1280 N 0.52176 0.59247 0.62026 0.0
C1281 C 0.49104 0.57427 0.61434 0.0
C1282 C 0.47121 0.5727 0.64153 0.0
C1283 C 0.75599 0.22628 0.92842 0.0
C1284 C 0.76855 0.19654 0.92907 0.0
C1285 C 0.75372 0.2409 0.89955 0.0
C1286 C 0.764 0.22629 0.87047 0.0
H1287 H 0.74706 0.23788 0.95014 0.0
H1288 H 0.74329 0.26336 0.89991 0.0
S1289 S 0.80229 0.15085 0.86012 0.0
N1290 N 0.79379 0.15469 0.89868 0.0
N1291 N 0.78973 0.18214 0.84462 0.0
C1292 C 0.77778 0.19737 0.8711 0.0
C1293 C 0.78 0.18247 0.90037 0.0
C1294 C 0.07474 0.47455 0.1038 0.0
C1295 C 0.06041 0.44481 0.11635 0.0
C1296 C 0.05668 0.49052 0.08406 0.0
C1297 C 0.02396 0.47662 0.07477 0.0
H1298 H 0.09945 0.48712 0.11125 0.0
H1299 H 0.06856 0.51436 0.07643 0.0
S1300 S 0.97563 0.39802 0.09991 0.0
N1301 N 0.01177 0.40171 0.11825 0.0
N1302 N 0.97821 0.43056 0.07871 0.0
C1303 C 0.00962 0.44603 0.08595 0.0
C1304 C 0.02783 0.43032 0.10718 0.0
C1305 C 0.75751 0.81674 0.41293 0.0
C1306 C 0.77687 0.8492 0.42229 0.0
C1307 C 0.75873 0.79932 0.38179 0.0
C1308 C 0.78008 0.81326 0.35932 0.0
H1309 H 0.74008 0.80555 0.42909 0.0
H1310 H 0.74218 0.77516 0.3749 0.0
S1311 S 0.8378 0.89625 0.37318 0.0
N1312 N 0.81913 0.89388 0.40735 0.0
N1313 N 0.82227 0.86058 0.34938 0.0
C1314 C 0.80086 0.84481 0.36912 0.0
C1315 C 0.799 0.86294 0.40046 0.0
C1316 C 0.4311 0.52111 0.84147 0.0
C1317 C 0.44225 0.50229 0.81512 0.0
C1318 C 0.44059 0.51846 0.87375 0.0
C1319 C 0.46161 0.49692 0.88093 0.0
H1320 H 0.41543 0.53856 0.83718 0.0
H1321 H 0.43222 0.53425 0.89316 0.0
S1322 S 0.4953 0.43961 0.82143 0.0
N1323 N 0.47378 0.4593 0.79897 0.0
N1324 N 0.49156 0.45479 0.85943 0.0
C1325 C 0.47199 0.47706 0.85504 0.0
C1326 C 0.46236 0.47964 0.82222 0.0
C1327 C 0.80665 0.19762 0.15037 0.0
C1328 C 0.79424 0.20524 0.12089 0.0
C1329 C 0.80971 0.22076 0.17858 0.0
C1330 C 0.80012 0.25214 0.17835 0.0
H1331 H 0.81247 0.1729 0.15203 0.0
H1332 H 0.8176 0.21307 0.20122 0.0
S1333 S 0.76799 0.28513 0.10718 0.0
N1334 N 0.77436 0.24733 0.09259 0.0
N1335 N 0.77952 0.29061 0.14627 0.0
C1336 C 0.78962 0.26107 0.14878 0.0
C1337 C 0.78683 0.23761 0.1198 0.0
C1338 C 0.02237 0.51267 0.30026 0.0
C1339 C 0.04087 0.48828 0.29062 0.0
C1340 C 0.01398 0.51809 0.33242 0.0
C1341 C 0.02354 0.49913 0.35595 0.0
H1342 H 0.01507 0.52841 0.28309 0.0
H1343 H 0.00037 0.53768 0.33895 0.0
S1344 S 0.06949 0.42992 0.34261 0.0
N1345 N 0.06667 0.44343 0.30677 0.0
N1346 N 0.05062 0.45349 0.36721 0.0
C1347 C 0.04098 0.47379 0.34646 0.0
C1348 C 0.04975 0.46841 0.31377 0.0
C1349 C 0.76381 0.79466 0.61725 0.0
C1350 C 0.75421 0.8262 0.618 0.0
C1351 C 0.76143 0.77665 0.64448 0.0
C1352 C 0.74903 0.78934 0.67331 0.0
H1353 H 0.774 0.78422 0.59576 0.0
H1354 H 0.77006 0.75304 0.64326 0.0
S1355 S 0.71573 0.86756 0.68616 0.0
N1356 N 0.7288 0.86742 0.64916 0.0
N1357 N 0.72419 0.83336 0.69995 0.0
C1358 C 0.73819 0.82001 0.67398 0.0
C1359 C 0.74077 0.83846 0.64642 0.0
C1360 C 0.66262 0.48274 0.54275 0.0
C1361 C 0.67703 0.47718 0.51315 0.0
C1362 C 0.64282 0.50666 0.54733 0.0
C1363 C 0.63658 0.52578 0.52241 0.0
H1364 H 0.66539 0.46743 0.56205 0.0
H1365 H 0.63056 0.50841 0.56971 0.0
S1366 S 0.67308 0.52531 0.44256 0.0
N1367 N 0.68725 0.49619 0.46023 0.0
N1368 N 0.64986 0.54098 0.46885 0.0
C1369 C 0.65312 0.52269 0.49385 0.0
C1370 C 0.67329 0.49831 0.48915 0.0
C1371 C 0.13838 0.11226 0.48826 0.0
C1372 C 0.1628 0.09937 0.4721 0.0
C1373 C 0.10862 0.09114 0.49203 0.0
C1374 C 0.1019 0.05642 0.47934 0.0
H1375 H 0.14248 0.13868 0.49879 0.0
H1376 H 0.09069 0.10232 0.50482 0.0
S1377 S 0.15733 0.01034 0.4342 0.0
N1378 N 0.17819 0.04972 0.44292 0.0
N1379 N 0.12188 0.0102 0.44959 0.0
C1380 C 0.12589 0.04327 0.46277 0.0
C1381 C 0.15639 0.0647 0.45922 0.0
C1382 C 0.18314 0.88798 0.75494 0.0
C1383 C 0.19854 0.91918 0.77274 0.0
C1384 C 0.19878 0.86037 0.75006 0.0
C1385 C 0.23051 0.86244 0.76306 0.0
H1386 H 0.15874 0.88481 0.7444 0.0
H1387 H 0.18549 0.83698 0.73636 0.0
S1388 S 0.28161 0.93844 0.81201 0.0
N1389 N 0.24753 0.95059 0.80347 0.0
N1390 N 0.27677 0.89868 0.79476 0.0
C1391 C 0.24626 0.89356 0.78097 0.0
C1392 C 0.23037 0.92186 0.78567 0.0
C1393 C 0.34937 0.95056 0.9889 0.0
C1394 C 0.3325 0.9491 0.95876 0.0
C1395 C 0.38222 0.96497 0.99351 0.0
C1396 C 0.39965 0.97814 0.96807 0.0
H1397 H 0.33699 0.94134 0.00949 0.0
H1398 H 0.39398 0.96577 0.01734 0.0
S1399 S 0.36721 0.97845 0.88374 0.0
N1400 N 0.33579 0.96064 0.90257 0.0
N1401 N 0.39799 0.98758 0.91118 0.0
C1402 C 0.38338 0.97593 0.93745 0.0
C1403 C 0.34967 0.9615 0.93283 0.0
C1404 C 0.84826 0.62843 0.75233 0.0
C1405 C 0.84088 0.60878 0.77787 0.0
C1406 C 0.82618 0.64606 0.74015 0.0
C1407 C 0.79609 0.64547 0.75355 0.0
H1408 H 0.87125 0.62996 0.74135 0.0
H1409 H 0.83348 0.66149 0.72097 0.0
S1410 S 0.76475 0.59705 0.82027 0.0
N1411 N 0.8009 0.58824 0.81524 0.0
N1412 N 0.75966 0.62298 0.79336 0.0
C1413 C 0.78806 0.62538 0.77873 0.0
C1414 C 0.8104 0.60666 0.79066 0.0
C1415 C 0.84881 0.57092 0.0262 0.0
C1416 C 0.83962 0.58734 0.00033 0.0
C1417 C 0.87677 0.55733 0.02576 0.0
C1418 C 0.89644 0.55921 -0.00077 0.0
H1419 H 0.83434 0.56868 0.04713 0.0
H1420 H 0.88301 0.54532 0.04647 0.0
S1421 S 0.88174 0.5973 0.92426 0.0
N1422 N 0.85171 0.60368 0.9469 0.0
N1423 N 0.90396 0.57729 0.94567 0.0
C1424 C 0.88729 0.57505 0.97291 0.0
C1425 C 0.85899 0.58939 0.97358 0.0
C1426 C 0.1919 0.15473 0.78887 0.0
C1427 C 0.20081 0.12277 0.78729 0.0
C1428 C 0.21462 0.18446 0.78631 0.0
C1429 C 0.24714 0.18356 0.78184 0.0
H1430 H 0.16694 0.1568 0.79136 0.0
H1431 H 0.20651 0.20827 0.78731 0.0
S1432 S 0.28382 0.10716 0.77855 0.0
N1433 N 0.24514 0.09252 0.78298 0.0
N1434 N 0.2878 0.1486 0.77804 0.0
C1435 C 0.25684 0.15219 0.78173 0.0
C1436 C 0.23368 0.12176 0.78449 0.0
C1437 C 0.36319 0.87106 0.28759 0.0
C1438 C 0.35283 0.90069 0.28075 0.0
C1439 C 0.34146 0.83957 0.28455 0.0
C1440 C 0.30907 0.83684 0.27378 0.0
H1441 H 0.38835 0.8721 0.29454 0.0
H1442 H 0.35042 0.81701 0.28885 0.0
S1443 S 0.26957 0.90662 0.25394 0.0
N1444 N 0.30754 0.9253 0.26426 0.0
N1445 N 0.26719 0.86599 0.25772 0.0
C1446 C 0.2982 0.8663 0.26792 0.0
C1447 C 0.31999 0.89833 0.27165 0.0
C1448 C 0.50624 0.37338 0.55168 0.0
C1449 C 0.52847 0.38093 0.57901 0.0
C1450 C 0.49989 0.39923 0.53382 0.0
C1451 C 0.51638 0.43312 0.54222 0.0
H1452 H 0.49334 0.34747 0.54438 0.0
H1453 H 0.48251 0.39263 0.51308 0.0
S1454 S 0.57698 0.46603 0.61134 0.0
N1455 N 0.56668 0.42479 0.61353 0.0
N1456 N 0.5555 0.47288 0.57965 0.0
C1457 C 0.53874 0.44081 0.56931 0.0
C1458 C 0.54461 0.41484 0.58779 0.0
C1459 C 0.39315 0.73547 0.2542 0.0
C1460 C 0.39544 0.7368 0.28824 0.0
C1461 C 0.3632 0.72972 0.23687 0.0
C1462 C 0.3343 0.72558 0.25291 0.0
H1463 H 0.41478 0.74018 0.24087 0.0
H1464 H 0.36288 0.73037 0.21084 0.0
S1465 S 0.32703 0.72306 0.34147 0.0
N1466 N 0.36634 0.73036 0.33716 0.0
N1467 N 0.30976 0.71992 0.30454 0.0
C1468 C 0.33612 0.72465 0.28673 0.0
C1469 C 0.36679 0.73015 0.30443 0.0
C1470 C 0.03877 0.68115 0.07212 0.0
C1471 C 0.05058 0.68519 0.10487 0.0
C1472 C 0.03549 0.64994 0.05228 0.0
C1473 C 0.04447 0.62172 0.06416 0.0
H1474 H 0.03144 0.70207 0.06175 0.0
H1475 H 0.02569 0.64785 0.02744 0.0
S1476 S 0.0752 0.61781 0.14816 0.0
N1477 N 0.07043 0.65738 0.14835 0.0
N1478 N 0.06467 0.59912 0.11072 0.0
C1479 C 0.05664 0.62529 0.09659 0.0
C1480 C 0.05958 0.6569 0.11701 0.0
C1481 C 0.08579 0.24204 0.80321 0.0
C1482 C 0.0829 0.26227 0.83252 0.0
C1483 C 0.1144 0.24696 0.78698 0.0
C1484 C 0.1409 0.27269 0.79917 0.0
H1485 H 0.06587 0.22196 0.79285 0.0
H1486 H 0.11578 0.23044 0.76479 0.0
S1487 S 0.14575 0.3328 0.87485 0.0
N1488 N 0.10904 0.309 0.87309 0.0
N1489 N 0.16271 0.31869 0.84227 0.0
C1490 C 0.13831 0.29336 0.82827 0.0
C1491 C 0.10934 0.28799 0.84509 0.0
C1492 C 0.53841 0.68503 0.98051 0.0
C1493 C 0.51889 0.68689 0.95275 0.0
C1494 C 0.53394 0.65561 0.99627 0.0
C1495 C 0.5097 0.62691 0.98495 0.0
H1496 H 0.5583 0.70585 0.9893 0.0
H1497 H 0.55075 0.65479 0.01637 0.0
S1498 S 0.44865 0.6209 0.91652 0.0
N1499 N 0.47197 0.65892 0.91701 0.0
N1500 N 0.46334 0.60397 0.94665 0.0
C1501 C 0.48853 0.62944 0.95867 0.0
C1502 C 0.4932 0.65928 0.94255 0.0
C1503 C 0.09473 0.73995 0.68098 0.0
C1504 C 0.09542 0.75226 0.65059 0.0
C1505 C 0.12171 0.7303 0.69462 0.0
C1506 C 0.1506 0.73311 0.67863 0.0
H1507 H 0.0734 0.73846 0.69482 0.0
H1508 H 0.12044 0.72251 0.71874 0.0
S1509 S 0.16392 0.7597 0.59684 0.0
N1510 N 0.12641 0.76332 0.60338 0.0
N1511 N 0.17756 0.74591 0.62956 0.0
C1512 C 0.15115 0.74346 0.64745 0.0
C1513 C 0.12344 0.75289 0.63329 0.0
C1514 C 0.06414 0.41983 0.44248 0.0
C1515 C 0.05632 0.38633 0.45052 0.0
C1516 C 0.05372 0.44667 0.4607 0.0
C1517 C 0.03503 0.44105 0.48748 0.0
H1518 H 0.0773 0.42522 0.42119 0.0
H1519 H 0.06009 0.47192 0.45357 0.0
S1520 S 0.01273 0.35988 0.52244 0.0
N1521 N 0.03235 0.35031 0.49016 0.0
N1522 N 0.01268 0.40088 0.52395 0.0
C1523 C 0.02939 0.40854 0.49755 0.0
C1524 C 0.04002 0.38113 0.47913 0.0
C1525 C 0.40991 0.29743 0.19457 0.0
C1526 C 0.42754 0.27293 0.20247 0.0
C1527 C 0.38323 0.30335 0.21204 0.0
C1528 C 0.37328 0.28492 0.2379 0.0
H1529 H 0.41604 0.31133 0.17412 0.0
H1530 H 0.36919 0.32092 0.204 0.0
S1531 S 0.41272 0.2209 0.27101 0.0
N1532 N 0.43425 0.2324 0.24036 0.0
N1533 N 0.38422 0.24349 0.27233 0.0
C1534 C 0.39157 0.26183 0.24714 0.0
C1535 C 0.41865 0.25584 0.22967 0.0
C1536 C 0.58415 0.50661 0.39272 0.0
C1537 C 0.56925 0.49368 0.36178 0.0
C1538 C 0.56639 0.5045 0.42065 0.0
C1539 C 0.53337 0.489 0.41869 0.0
H1540 H 0.60902 0.52036 0.39513 0.0
H1541 H 0.57836 0.51604 0.44377 0.0
S1542 S 0.48432 0.44799 0.34334 0.0
N1543 N 0.52039 0.46278 0.33082 0.0
N1544 N 0.48736 0.45791 0.38324 0.0
C1545 C 0.5189 0.47388 0.38804 0.0
C1546 C 0.53677 0.47657 0.35961 0.0
C1547 C 0.23399 0.80121 0.06836 0.0
C1548 C 0.24457 0.83686 0.07191 0.0
C1549 C 0.23689 0.78262 0.09441 0.0
C1550 C 0.24994 0.79917 0.12498 0.0
H1551 H 0.22328 0.78751 0.04528 0.0
H1552 H 0.22813 0.7553 0.0908 0.0
S1553 S 0.28232 0.89177 0.1469 0.0
N1554 N 0.26971 0.88775 0.10823 0.0
N1555 N 0.2746 0.85291 0.15732 0.0
C1556 C 0.26104 0.83468 0.12881 0.0
C1557 C 0.25853 0.85353 0.10221 0.0
C1558 C 0.02042 0.53351 0.87047 0.0
C1559 C -0.00326 0.5528 0.86521 0.0
C1560 C 0.03605 0.53556 0.90103 0.0
C1561 C 0.02877 0.5571 0.92734 0.0
H1562 H 0.02585 0.51527 0.8513 0.0
H1563 H 0.05245 0.51861 0.90457 0.0
S1564 S 0.97368 0.61749 0.92576 0.0
N1565 N 0.97015 0.59758 0.88829 0.0
N1566 N -0.0003 0.60091 0.94617 0.0
C1567 C 0.00699 0.57821 0.92228 0.0
C1568 C 0.99095 0.57624 0.89103 0.0
C1569 C 0.27248 0.21868 0.60975 0.0
C1570 C 0.24703 0.19088 0.59949 0.0
C1571 C 0.27518 0.23562 0.64158 0.0
C1572 C 0.2522 0.22588 0.66425 0.0
H1573 H 0.29113 0.22667 0.59347 0.0
H1574 H 0.29566 0.25635 0.64853 0.0
S1575 S 0.17968 0.15613 0.64885 0.0
N1576 N 0.1975 0.15539 0.61415 0.0
N1577 N 0.20239 0.18746 0.67364 0.0
C1578 C 0.22596 0.19896 0.65391 0.0
C1579 C 0.22345 0.18141 0.62167 0.0
C1580 C 0.57742 0.52515 0.1828 0.0
C1581 C 0.61069 0.525 0.18545 0.0
C1582 C 0.56363 0.53727 0.15647 0.0
C1583 C 0.58243 0.54935 0.13146 0.0
H1584 H 0.56171 0.51554 0.20109 0.0
H1585 H 0.53775 0.53578 0.15507 0.0
S1586 S 0.67096 0.55698 0.12767 0.0
N1587 N 0.66245 0.54019 0.16155 0.0
N1588 N 0.63623 0.56234 0.11171 0.0
C1589 C 0.61584 0.55043 0.13418 0.0
C1590 C 0.63002 0.53839 0.16122 0.0
C1591 C 0.19276 0.81412 0.86082 0.0
C1592 C 0.21273 0.81992 0.88958 0.0
C1593 C 0.1976 0.79076 0.8348 0.0
C1594 C 0.22281 0.77289 0.83662 0.0
H1595 H 0.17443 0.82902 0.85777 0.0
H1596 H 0.18317 0.78863 0.81221 0.0
S1597 S 0.28071 0.77735 0.90669 0.0
N1598 N 0.25737 0.80404 0.919 0.0
N1599 N 0.26687 0.76099 0.8693 0.0
C1600 C 0.24179 0.77695 0.86562 0.0
C1601 C 0.23657 0.80025 0.89242 0.0
C1602 C 0.96191 0.56348 0.67616 0.0
C1603 C 0.93417 0.54131 0.68438 0.0
C1604 C 0.97333 0.55977 0.64504 0.0
C1605 C 0.95762 0.53348 0.6213 0.0
H1606 H 0.97516 0.5836 0.69405 0.0
H1607 H 0.99499 0.57709 0.63981 0.0
S1608 S 0.88313 0.4697 0.62992 0.0
N1609 N 0.89047 0.49308 0.66576 0.0
N1610 N 0.91215 0.48587 0.60736 0.0
C1611 C 0.92939 0.51168 0.62886 0.0
C1612 C 0.91756 0.51568 0.66041 0.0
C1613 C 0.27053 0.20738 0.37592 0.0
C1614 C 0.28488 0.22167 0.40683 0.0
C1615 C 0.27322 0.22612 0.34943 0.0
C1616 C 0.29134 0.25967 0.3522 0.0
H1617 H 0.25604 0.18178 0.37233 0.0
H1618 H 0.26036 0.21424 0.32666 0.0
S1619 S 0.33497 0.30855 0.42755 0.0
N1620 N 0.31826 0.27143 0.43875 0.0
N1621 N 0.32457 0.30622 0.38843 0.0
C1622 C 0.30661 0.27408 0.38277 0.0
C1623 C 0.30309 0.25521 0.41016 0.0
C1624 C 0.3387 0.5282 0.53149 0.0
C1625 C 0.33058 0.55489 0.51595 0.0
C1626 C 0.36159 0.51012 0.51934 0.0
C1627 C 0.37732 0.51798 0.49117 0.0
H1628 H 0.32805 0.52178 0.55385 0.0
H1629 H 0.36824 0.49111 0.53319 0.0
S1630 S 0.36231 0.58268 0.43903 0.0
N1631 N 0.33819 0.58612 0.46904 0.0
N1632 N 0.38127 0.55207 0.44632 0.0
C1633 C 0.3681 0.54311 0.47422 0.0
C1634 C 0.34481 0.56165 0.48662 0.0
C1635 C 0.87465 0.00452 0.54081 0.0
C1636 C 0.86489 0.96878 0.53597 0.0
C1637 C 0.90728 0.02038 0.54148 0.0
C1638 C 0.93121 0.0011 0.53656 0.0
H1639 H 0.85681 0.0204 0.54329 0.0
H1640 H 0.91368 0.04794 0.5447 0.0
S1641 S 0.91869 0.90676 0.5255 0.0
N1642 N 0.88197 0.91457 0.52837 0.0
N1643 N 0.94336 0.94436 0.52911 0.0
C1644 C 0.92197 0.96533 0.53289 0.0
C1645 C 0.88876 0.94916 0.53282 0.0
C1646 C 0.83957 0.14479 0.27286 0.0
C1647 C 0.82506 0.11474 0.25272 0.0
C1648 C 0.82398 0.17237 0.27799 0.0
C1649 C 0.79322 0.17125 0.26304 0.0
H1650 H 0.8636 0.14747 0.28417 0.0
H1651 H 0.83685 0.19523 0.29287 0.0
S1652 S 0.74339 0.09722 0.21034 0.0
N1653 N 0.77703 0.08458 0.21956 0.0
N1654 N 0.74782 0.13633 0.22905 0.0
C1655 C 0.77776 0.14072 0.24406 0.0
C1656 C 0.79363 0.11255 0.23892 0.0
C1657 C 0.63989 0.11547 0.0339 0.0
C1658 C 0.66318 0.09859 0.02009 0.0
C1659 C 0.60707 0.0997 0.03129 0.0
C1660 C 0.59677 0.06698 0.01426 0.0
H1661 H 0.64701 0.14106 0.04651 0.0
H1662 H 0.5896 0.11363 0.04144 0.0
S1663 S 0.64784 0.01145 0.97488 0.0
N1664 N 0.67348 0.04669 0.98997 0.0
N1665 N 0.61183 0.01763 0.98464 0.0
C1666 C 0.61974 0.04959 0.00105 0.0
C1667 C 0.65302 0.06526 0.00408 0.0
C1668 C 0.21958 0.42872 0.22759 0.0
C1669 C 0.19115 0.4258 0.24448 0.0
C1670 C 0.24564 0.41533 0.23826 0.0
C1671 C 0.24451 0.3994 0.26664 0.0
H1672 H 0.22111 0.43983 0.20501 0.0
H1673 H 0.26609 0.41579 0.22325 0.0
S1674 S 0.17726 0.3892 0.32189 0.0
N1675 N 0.16447 0.40849 0.29247 0.0
N1676 N 0.21385 0.38407 0.31305 0.0
C1677 C 0.21723 0.39863 0.28511 0.0
C1678 C 0.19037 0.41156 0.27383 0.0
C1679 C 0.15308 0.42077 0.03239 0.0
C1680 C 0.18553 0.43775 0.03778 0.0
C1681 C 0.12848 0.43871 0.02763 0.0
C1682 C 0.13537 0.4743 0.0278 0.0
H1683 H 0.14658 0.39335 0.03156 0.0
H1684 H 0.10386 0.42442 0.02333 0.0
S1685 S 0.21602 0.53124 0.0425 0.0
N1686 N 0.22304 0.49271 0.04438 0.0
N1687 N 0.17663 0.5261 0.035 0.0
C1688 C 0.16752 0.49175 0.03375 0.0
C1689 C 0.19264 0.47356 0.03886 0.0
C1690 C 0.80294 0.91026 0.20663 0.0
C1691 C 0.83545 0.91805 0.21837 0.0
C1692 C 0.78191 0.88113 0.21431 0.0
C1693 C 0.79247 0.85951 0.23484 0.0
H1694 H 0.79373 0.92682 0.19152 0.0
H1695 H 0.75706 0.87588 0.20455 0.0
S1696 S 0.87494 0.87099 0.27414 0.0
N1697 N 0.87717 0.90276 0.25209 0.0
N1698 N 0.83735 0.84934 0.26817 0.0
C1699 C 0.82488 0.86756 0.24719 0.0
C1700 C 0.84645 0.89653 0.23853 0.0
C1701 C 0.69188 0.10758 0.70931 0.0
C1702 C 0.65808 0.10453 0.70613 0.0
C1703 C 0.71263 0.13939 0.71651 0.0
C1704 C 0.70025 0.16913 0.72107 0.0
H1705 H 0.70247 0.08517 0.70652 0.0
H1706 H 0.73846 0.14072 0.71892 0.0
S1707 S 0.61432 0.17589 0.7146 0.0
N1708 N 0.61348 0.13461 0.70737 0.0
N1709 N 0.65286 0.19449 0.72106 0.0
C1710 C 0.6668 0.16684 0.7174 0.0
C1711 C 0.64557 0.13446 0.70982 0.0
loop_
_geom_bond_atom_site_label_1
_geom_bond_atom_site_label_2
_geom_bond_distance
_geom_bond_site_symmetry_2
_ccdc_geom_bond_type
C0 O1 1.306 . S
C0 O3 1.160 . S
O1 C0 1.306 . S
O1 Cd2 2.228 1_655 S
Cd2 O1 2.228 1_455 S
Cd2 O6 2.273 . S
Cd2 O10 2.277 . S
O3 C0 1.160 . S
O3 Cd4 2.203 1_655 S
Cd4 O3 2.203 1_455 S
Cd4 O6 2.411 . S
Cd4 O7 2.333 . S
Cd4 O8 2.352 . S
Cd4 O12 2.277 . S
Cd4 O13 2.356 . S
C5 O10 1.209 . S
C5 O12 1.226 . S
O6 Cd2 2.273 . S
O6 Cd4 2.411 . S
O6 C9 1.320 . S
O7 Cd4 2.333 . S
O7 C9 1.214 . S
O8 Cd4 2.352 . S
O8 C11 1.258 . S
C9 O6 1.320 . S
C9 O7 1.214 . S
O10 Cd2 2.277 . S
O10 C5 1.209 . S
C11 O8 1.258 . S
C11 O13 1.282 . S
O12 Cd4 2.277 . S
O12 C5 1.226 . S
O13 Cd4 2.356 . S
O13 C11 1.282 . S
C14 O15 1.306 . S
C14 O17 1.160 . S
O15 C14 1.306 . S
O15 Cd16 2.228 1_655 S
Cd16 O15 2.228 1_455 S
Cd16 O20 2.273 . S
Cd16 O24 2.277 . S
O17 C14 1.160 . S
O17 Cd18 2.203 1_655 S
Cd18 O17 2.203 1_455 S
Cd18 O20 2.411 . S
Cd18 O21 2.333 . S
Cd18 O22 2.352 . S
Cd18 O26 2.278 1_455 S
Cd18 O27 2.356 . S
C19 O24 1.207 1_655 S
C19 O26 1.226 . S
O20 Cd16 2.273 . S
O20 Cd18 2.411 . S
O20 C23 1.320 . S
O21 Cd18 2.333 . S
O21 C23 1.214 . S
O22 Cd18 2.352 . S
O22 C25 1.258 . S
C23 O20 1.320 . S
C23 O21 1.214 . S
O24 Cd16 2.277 . S
O24 C19 1.207 1_455 S
C25 O22 1.258 . S
C25 O27 1.282 . S
O26 Cd18 2.278 1_655 S
O26 C19 1.226 . S
O27 Cd18 2.356 . S
O27 C25 1.282 . S
C28 O29 1.306 . S
C28 O31 1.160 . S
O29 C28 1.306 . S
O29 Cd30 2.228 . S
Cd30 O29 2.228 . S
Cd30 O34 2.273 . S
Cd30 O38 2.277 . S
O31 C28 1.160 . S
O31 Cd32 2.203 . S
Cd32 O31 2.203 . S
Cd32 O34 2.411 . S
Cd32 O35 2.333 . S
Cd32 O36 2.352 . S
Cd32 O40 2.277 . S
Cd32 O41 2.356 . S
C33 O38 1.209 . S
C33 O40 1.226 . S
O34 Cd30 2.273 . S
O34 Cd32 2.411 . S
O34 C37 1.320 . S
O35 Cd32 2.333 . S
O35 C37 1.214 . S
O36 Cd32 2.352 . S
O36 C39 1.258 . S
C37 O34 1.320 . S
C37 O35 1.214 . S
O38 Cd30 2.277 . S
O38 C33 1.209 . S
C39 O36 1.258 . S
C39 O41 1.282 . S
O40 Cd32 2.277 . S
O40 C33 1.226 . S
O41 Cd32 2.356 . S
O41 C39 1.282 . S
C42 O43 1.306 . S
C42 O45 1.160 . S
O43 C42 1.306 . S
O43 Cd44 2.228 . S
Cd44 O43 2.228 . S
Cd44 O48 2.273 . S
Cd44 O52 2.277 . S
O45 C42 1.160 . S
O45 Cd46 2.203 . S
Cd46 O45 2.203 . S
Cd46 O48 2.411 . S
Cd46 O49 2.333 . S
Cd46 O50 2.352 . S
Cd46 O54 2.277 . S
Cd46 O55 2.356 . S
C47 O52 1.209 . S
C47 O54 1.226 . S
O48 Cd44 2.273 . S
O48 Cd46 2.411 . S
O48 C51 1.320 . S
O49 Cd46 2.333 . S
O49 C51 1.214 . S
O50 Cd46 2.352 . S
O50 C53 1.258 . S
C51 O48 1.320 . S
C51 O49 1.214 . S
O52 Cd44 2.277 . S
O52 C47 1.209 . S
C53 O50 1.258 . S
C53 O55 1.282 . S
O54 Cd46 2.277 . S
O54 C47 1.226 . S
O55 Cd46 2.356 . S
O55 C53 1.282 . S
C56 O57 1.306 . S
C56 O59 1.160 . S
O57 C56 1.306 . S
O57 Cd58 2.228 1_655 S
Cd58 O57 2.228 1_455 S
Cd58 O62 2.273 . S
Cd58 O66 2.277 . S
O59 C56 1.160 . S
O59 Cd60 2.203 1_655 S
Cd60 O59 2.203 1_455 S
Cd60 O62 2.411 . S
Cd60 O63 2.333 . S
Cd60 O64 2.352 . S
Cd60 O68 2.277 . S
Cd60 O69 2.356 . S
C61 O66 1.209 . S
C61 O68 1.226 . S
O62 Cd58 2.273 . S
O62 Cd60 2.411 . S
O62 C65 1.320 . S
O63 Cd60 2.333 . S
O63 C65 1.214 . S
O64 Cd60 2.352 . S
O64 C67 1.258 . S
C65 O62 1.320 . S
C65 O63 1.214 . S
O66 Cd58 2.277 . S
O66 C61 1.209 . S
C67 O64 1.258 . S
C67 O69 1.282 . S
O68 Cd60 2.277 . S
O68 C61 1.226 . S
O69 Cd60 2.356 . S
O69 C67 1.282 . S
C70 O71 1.306 . S
C70 O73 1.160 . S
O71 C70 1.306 . S
O71 Cd72 2.228 . S
Cd72 O71 2.228 . S
Cd72 O76 2.273 . S
Cd72 O80 2.277 . S
O73 C70 1.160 . S
O73 Cd74 2.203 . S
Cd74 O73 2.203 . S
Cd74 O76 2.411 . S
Cd74 O77 2.333 . S
Cd74 O78 2.352 . S
Cd74 O82 2.277 . S
Cd74 O83 2.356 . S
C75 O80 1.209 . S
C75 O82 1.226 . S
O76 Cd72 2.273 . S
O76 Cd74 2.411 . S
O76 C79 1.320 . S
O77 Cd74 2.333 . S
O77 C79 1.214 . S
O78 Cd74 2.352 . S
O78 C81 1.258 . S
C79 O76 1.320 . S
C79 O77 1.214 . S
O80 Cd72 2.277 . S
O80 C75 1.209 . S
C81 O78 1.258 . S
C81 O83 1.282 . S
O82 Cd74 2.277 . S
O82 C75 1.226 . S
O83 Cd74 2.356 . S
O83 C81 1.282 . S
C84 O85 1.306 . S
C84 O87 1.160 . S
O85 C84 1.306 . S
O85 Cd86 2.228 . S
Cd86 O85 2.228 . S
Cd86 O90 2.273 . S
Cd86 O94 2.277 . S
O87 C84 1.160 . S
O87 Cd88 2.203 . S
Cd88 O87 2.203 . S
Cd88 O90 2.411 . S
Cd88 O91 2.333 . S
Cd88 O92 2.352 . S
Cd88 O96 2.277 . S
Cd88 O97 2.356 . S
C89 O94 1.209 . S
C89 O96 1.226 . S
O90 Cd86 2.273 . S
O90 Cd88 2.411 . S
O90 C93 1.320 . S
O91 Cd88 2.333 . S
O91 C93 1.214 . S
O92 Cd88 2.352 . S
O92 C95 1.258 . S
C93 O90 1.320 . S
C93 O91 1.214 . S
O94 Cd86 2.277 . S
O94 C89 1.209 . S
C95 O92 1.258 . S
C95 O97 1.282 . S
O96 Cd88 2.277 . S
O96 C89 1.226 . S
O97 Cd88 2.356 . S
O97 C95 1.282 . S
C98 O99 1.306 . S
C98 O101 1.160 . S
O99 C98 1.306 . S
O99 Cd100 2.228 1_655 S
Cd100 O99 2.228 1_455 S
Cd100 O104 2.273 . S
Cd100 O108 2.277 . S
O101 C98 1.160 . S
O101 Cd102 2.203 1_655 S
Cd102 O101 2.203 1_455 S
Cd102 O104 2.411 . S
Cd102 O105 2.333 . S
Cd102 O106 2.352 1_455 S
Cd102 O110 2.277 . S
Cd102 O111 2.356 . S
C103 O108 1.209 . S
C103 O110 1.226 . S
O104 Cd100 2.273 . S
O104 Cd102 2.411 . S
O104 C107 1.320 . S
O105 Cd102 2.333 . S
O105 C107 1.214 . S
O106 Cd102 2.352 1_655 S
O106 C109 1.258 . S
C107 O104 1.320 . S
C107 O105 1.214 . S
O108 Cd100 2.277 . S
O108 C103 1.209 . S
C109 O106 1.258 . S
C109 O111 1.282 1_655 S
O110 Cd102 2.277 . S
O110 C103 1.226 . S
O111 Cd102 2.356 . S
O111 C109 1.282 1_455 S
C112 O113 1.306 . S
C112 O115 1.160 . S
O113 C112 1.306 . S
O113 Cd114 2.228 1_545 S
Cd114 O113 2.228 1_565 S
Cd114 O118 2.273 1_565 S
Cd114 O122 2.277 . S
O115 C112 1.160 . S
O115 Cd116 2.203 . S
Cd116 O115 2.203 . S
Cd116 O118 2.411 . S
Cd116 O119 2.333 . S
Cd116 O120 2.352 . S
Cd116 O124 2.277 1_545 S
Cd116 O125 2.356 . S
C117 O122 1.209 . S
C117 O124 1.226 . S
O118 Cd114 2.273 1_545 S
O118 Cd116 2.411 . S
O118 C121 1.320 . S
O119 Cd116 2.333 . S
O119 C121 1.214 . S
O120 Cd116 2.352 . S
O120 C123 1.258 . S
C121 O118 1.320 . S
C121 O119 1.214 . S
O122 Cd114 2.277 . S
O122 C117 1.209 . S
C123 O120 1.258 . S
C123 O125 1.282 . S
O124 Cd116 2.277 1_565 S
O124 C117 1.226 . S
O125 Cd116 2.356 . S
O125 C123 1.282 . S
C126 O127 1.306 . S
C126 O129 1.160 . S
O127 C126 1.306 . S
O127 Cd128 2.228 . S
Cd128 O127 2.228 . S
Cd128 O132 2.273 . S
Cd128 O136 2.277 . S
O129 C126 1.160 . S
O129 Cd130 2.203 . S
Cd130 O129 2.203 . S
Cd130 O132 2.411 . S
Cd130 O133 2.333 . S
Cd130 O134 2.352 . S
Cd130 O138 2.277 . S
Cd130 O139 2.356 . S
C131 O136 1.209 . S
C131 O138 1.226 . S
O132 Cd128 2.273 . S
O132 Cd130 2.411 . S
O132 C135 1.320 . S
O133 Cd130 2.333 . S
O133 C135 1.214 . S
O134 Cd130 2.352 . S
O134 C137 1.258 . S
C135 O132 1.320 . S
C135 O133 1.214 . S
O136 Cd128 2.277 . S
O136 C131 1.209 . S
C137 O134 1.258 . S
C137 O139 1.282 . S
O138 Cd130 2.277 . S
O138 C131 1.226 . S
O139 Cd130 2.356 . S
O139 C137 1.282 . S
C140 O141 1.306 . S
C140 O143 1.153 1_545 S
O141 C140 1.306 . S
O141 Cd142 2.228 . S
Cd142 O141 2.228 . S
Cd142 O146 2.273 1_545 S
Cd142 O150 2.277 . S
O143 C140 1.153 1_565 S
O143 Cd144 2.203 . S
Cd144 O143 2.203 . S
Cd144 O146 2.411 . S
Cd144 O147 2.333 . S
Cd144 O148 2.352 . S
Cd144 O152 2.277 1_565 S
Cd144 O153 2.356 . S
C145 O150 1.209 . S
C145 O152 1.226 . S
O146 Cd142 2.273 1_565 S
O146 Cd144 2.411 . S
O146 C149 1.320 . S
O147 Cd144 2.333 . S
O147 C149 1.214 . S
O148 Cd144 2.352 . S
O148 C151 1.258 . S
C149 O146 1.320 . S
C149 O147 1.214 . S
O150 Cd142 2.277 . S
O150 C145 1.209 . S
C151 O148 1.258 . S
C151 O153 1.282 . S
O152 Cd144 2.277 1_545 S
O152 C145 1.226 . S
O153 Cd144 2.356 . S
O153 C151 1.282 . S
C154 O155 1.306 1_554 S
C154 O157 1.160 . S
O155 C154 1.306 1_556 S
O155 Cd156 2.228 . S
Cd156 O155 2.228 . S
Cd156 O160 2.273 1_556 S
Cd156 O164 2.277 . S
O157 C154 1.160 . S
O157 Cd158 2.203 . S
Cd158 O157 2.203 . S
Cd158 O160 2.411 . S
Cd158 O161 2.333 . S
Cd158 O162 2.352 . S
Cd158 O166 2.277 1_554 S
Cd158 O167 2.356 . S
C159 O164 1.209 . S
C159 O166 1.226 . S
O160 Cd156 2.273 1_554 S
O160 Cd158 2.411 . S
O160 C163 1.320 . S
O161 Cd158 2.333 . S
O161 C163 1.214 . S
O162 Cd158 2.352 . S
O162 C165 1.258 . S
C163 O160 1.320 . S
C163 O161 1.214 . S
O164 Cd156 2.277 . S
O164 C159 1.209 . S
C165 O162 1.258 . S
C165 O167 1.282 . S
O166 Cd158 2.277 1_556 S
O166 C159 1.226 . S
O167 Cd158 2.356 . S
O167 C165 1.282 . S
C168 O169 1.306 1_554 S
C168 O171 1.160 . S
O169 C168 1.306 1_556 S
O169 Cd170 2.228 . S
Cd170 O169 2.228 . S
Cd170 O174 2.273 1_556 S
Cd170 O178 2.277 . S
O171 C168 1.160 . S
O171 Cd172 2.203 . S
Cd172 O171 2.203 . S
Cd172 O174 2.411 . S
Cd172 O175 2.333 . S
Cd172 O176 2.352 . S
Cd172 O180 2.277 1_554 S
Cd172 O181 2.356 . S
C173 O178 1.209 . S
C173 O180 1.226 . S
O174 Cd170 2.273 1_554 S
O174 Cd172 2.411 . S
O174 C177 1.320 . S
O175 Cd172 2.333 . S
O175 C177 1.214 . S
O176 Cd172 2.352 . S
O176 C179 1.258 . S
C177 O174 1.320 . S
C177 O175 1.214 . S
O178 Cd170 2.277 . S
O178 C173 1.209 . S
C179 O176 1.258 . S
C179 O181 1.282 . S
O180 Cd172 2.277 1_556 S
O180 C173 1.226 . S
O181 Cd172 2.356 . S
O181 C179 1.282 . S
C182 O183 1.306 . S
C182 O185 1.160 1_554 S
O183 C182 1.306 . S
O183 Cd184 2.228 . S
Cd184 O183 2.228 . S
Cd184 O188 2.277 . S
Cd184 O192 2.277 . S
O185 C182 1.160 1_556 S
O185 Cd186 2.203 . S
Cd186 O185 2.203 . S
Cd186 O188 2.410 1_556 S
Cd186 O189 2.333 . S
Cd186 O190 2.352 . S
Cd186 O194 2.277 1_556 S
Cd186 O195 2.356 . S
C187 O192 1.209 . S
C187 O194 1.226 . S
O188 Cd184 2.277 . S
O188 Cd186 2.410 1_554 S
O188 C191 1.320 1_554 S
O189 Cd186 2.333 . S
O189 C191 1.214 . S
O190 Cd186 2.352 . S
O190 C193 1.258 . S
C191 O188 1.320 1_556 S
C191 O189 1.214 . S
O192 Cd184 2.277 . S
O192 C187 1.209 . S
C193 O190 1.258 . S
C193 O195 1.282 . S
O194 Cd186 2.277 1_554 S
O194 C187 1.226 . S
O195 Cd186 2.356 . S
O195 C193 1.282 . S
C196 O197 1.306 . S
C196 O199 1.160 . S
O197 C196 1.306 . S
O197 Cd198 2.228 . S
Cd198 O197 2.228 . S
Cd198 O202 2.273 . S
Cd198 O206 2.277 . S
O199 C196 1.160 . S
O199 Cd200 2.203 . S
Cd200 O199 2.203 . S
Cd200 O202 2.411 . S
Cd200 O203 2.333 . S
Cd200 O204 2.352 . S
Cd200 O208 2.277 . S
Cd200 O209 2.356 . S
C201 O206 1.209 . S
C201 O208 1.226 . S
O202 Cd198 2.273 . S
O202 Cd200 2.411 . S
O202 C205 1.320 . S
O203 Cd200 2.333 . S
O203 C205 1.214 . S
O204 Cd200 2.352 . S
O204 C207 1.258 . S
C205 O202 1.320 . S
C205 O203 1.214 . S
O206 Cd198 2.277 . S
O206 C201 1.209 . S
C207 O204 1.258 . S
C207 O209 1.282 . S
O208 Cd200 2.277 . S
O208 C201 1.226 . S
O209 Cd200 2.356 . S
O209 C207 1.282 . S
C210 O211 1.306 . S
C210 O213 1.160 . S
O211 C210 1.306 . S
O211 Cd212 2.228 . S
Cd212 O211 2.228 . S
Cd212 O216 2.273 . S
Cd212 O220 2.277 . S
O213 C210 1.160 . S
O213 Cd214 2.203 . S
Cd214 O213 2.203 . S
Cd214 O216 2.411 . S
Cd214 O217 2.333 . S
Cd214 O218 2.352 . S
Cd214 O222 2.277 . S
Cd214 O223 2.356 . S
C215 O220 1.209 . S
C215 O222 1.226 . S
O216 Cd212 2.273 . S
O216 Cd214 2.411 . S
O216 C219 1.320 . S
O217 Cd214 2.333 . S
O217 C219 1.214 . S
O218 Cd214 2.352 . S
O218 C221 1.258 . S
C219 O216 1.320 . S
C219 O217 1.214 . S
O220 Cd212 2.277 . S
O220 C215 1.209 . S
C221 O218 1.258 . S
C221 O223 1.282 . S
O222 Cd214 2.277 . S
O222 C215 1.226 . S
O223 Cd214 2.356 . S
O223 C221 1.282 . S
C224 O225 1.306 . S
C224 O227 1.160 . S
O225 C224 1.306 . S
O225 Cd226 2.228 1_545 S
Cd226 O225 2.228 1_565 S
Cd226 O230 2.273 1_565 S
Cd226 O234 2.277 . S
O227 C224 1.160 . S
O227 Cd228 2.203 . S
Cd228 O227 2.203 . S
Cd228 O230 2.411 . S
Cd228 O231 2.333 . S
Cd228 O232 2.352 . S
Cd228 O236 2.277 1_545 S
Cd228 O237 2.356 . S
C229 O234 1.209 . S
C229 O236 1.226 . S
O230 Cd226 2.273 1_545 S
O230 Cd228 2.411 . S
O230 C233 1.320 . S
O231 Cd228 2.333 . S
O231 C233 1.214 . S
O232 Cd228 2.352 . S
O232 C235 1.258 . S
C233 O230 1.320 . S
C233 O231 1.214 . S
O234 Cd226 2.277 . S
O234 C229 1.209 . S
C235 O232 1.258 . S
C235 O237 1.282 . S
O236 Cd228 2.277 1_565 S
O236 C229 1.226 . S
O237 Cd228 2.356 . S
O237 C235 1.282 . S
C238 O239 1.306 . S
C238 O241 1.160 . S
O239 C238 1.306 . S
O239 Cd240 2.228 . S
Cd240 O239 2.228 . S
Cd240 O244 2.273 . S
Cd240 O248 2.277 . S
O241 C238 1.160 . S
O241 Cd242 2.203 . S
Cd242 O241 2.203 . S
Cd242 O244 2.411 . S
Cd242 O245 2.333 . S
Cd242 O246 2.352 . S
Cd242 O250 2.277 . S
Cd242 O251 2.356 . S
C243 O248 1.209 . S
C243 O250 1.226 . S
O244 Cd240 2.273 . S
O244 Cd242 2.411 . S
O244 C247 1.320 . S
O245 Cd242 2.333 . S
O245 C247 1.214 . S
O246 Cd242 2.352 . S
O246 C249 1.258 . S
C247 O244 1.320 . S
C247 O245 1.214 . S
O248 Cd240 2.277 . S
O248 C243 1.209 . S
C249 O246 1.258 . S
C249 O251 1.282 . S
O250 Cd242 2.277 . S
O250 C243 1.226 . S
O251 Cd242 2.356 . S
O251 C249 1.282 . S
C252 O253 1.306 . S
C252 O255 1.160 . S
O253 C252 1.306 . S
O253 Cd254 2.228 . S
Cd254 O253 2.228 . S
Cd254 O258 2.273 . S
Cd254 O262 2.277 . S
O255 C252 1.160 . S
O255 Cd256 2.203 . S
Cd256 O255 2.203 . S
Cd256 O258 2.411 . S
Cd256 O259 2.333 . S
Cd256 O260 2.352 . S
Cd256 O264 2.277 . S
Cd256 O265 2.356 . S
C257 O262 1.209 . S
C257 O264 1.226 . S
O258 Cd254 2.273 . S
O258 Cd256 2.411 . S
O258 C261 1.320 . S
O259 Cd256 2.333 . S
O259 C261 1.214 . S
O260 Cd256 2.352 . S
O260 C263 1.258 . S
C261 O258 1.320 . S
C261 O259 1.214 . S
O262 Cd254 2.277 . S
O262 C257 1.209 . S
C263 O260 1.258 . S
C263 O265 1.282 . S
O264 Cd256 2.277 . S
O264 C257 1.226 . S
O265 Cd256 2.356 . S
O265 C263 1.282 . S
C266 O267 1.306 . S
C266 O269 1.160 . S
O267 C266 1.306 . S
O267 Cd268 2.228 . S
Cd268 O267 2.228 . S
Cd268 O272 2.273 . S
Cd268 O276 2.277 . S
O269 C266 1.160 . S
O269 Cd270 2.203 . S
Cd270 O269 2.203 . S
Cd270 O272 2.411 . S
Cd270 O273 2.333 . S
Cd270 O274 2.352 1_545 S
Cd270 O278 2.277 . S
Cd270 O279 2.356 1_545 S
C271 O276 1.209 . S
C271 O278 1.226 . S
O272 Cd268 2.273 . S
O272 Cd270 2.411 . S
O272 C275 1.320 . S
O273 Cd270 2.333 . S
O273 C275 1.214 . S
O274 Cd270 2.352 1_565 S
O274 C277 1.258 . S
C275 O272 1.320 . S
C275 O273 1.214 . S
O276 Cd268 2.277 . S
O276 C271 1.209 . S
C277 O274 1.258 . S
C277 O279 1.282 . S
O278 Cd270 2.277 . S
O278 C271 1.226 . S
O279 Cd270 2.356 1_565 S
O279 C277 1.282 . S
C280 O281 1.306 . S
C280 O283 1.160 . S
O281 C280 1.306 . S
O281 Cd282 2.228 . S
Cd282 O281 2.228 . S
Cd282 O286 2.273 . S
Cd282 O290 2.277 . S
O283 C280 1.160 . S
O283 Cd284 2.203 1_554 S
Cd284 O283 2.203 1_556 S
Cd284 O286 2.411 1_556 S
Cd284 O287 2.333 . S
Cd284 O288 2.353 . S
Cd284 O292 2.276 1_556 S
Cd284 O293 2.357 . S
C285 O290 1.209 . S
C285 O292 1.226 . S
O286 Cd282 2.273 . S
O286 Cd284 2.411 1_554 S
O286 C289 1.320 1_554 S
O287 Cd284 2.333 . S
O287 C289 1.214 . S
O288 Cd284 2.353 . S
O288 C291 1.258 . S
C289 O286 1.320 1_556 S
C289 O287 1.214 . S
O290 Cd282 2.277 . S
O290 C285 1.209 . S
C291 O288 1.258 . S
C291 O293 1.282 . S
O292 Cd284 2.276 1_554 S
O292 C285 1.226 . S
O293 Cd284 2.357 . S
O293 C291 1.282 . S
C294 O295 1.306 . S
C294 O297 1.160 . S
O295 C294 1.306 . S
O295 Cd296 2.228 . S
Cd296 O295 2.228 . S
Cd296 O300 2.273 . S
Cd296 O304 2.277 . S
O297 C294 1.160 . S
O297 Cd298 2.203 . S
Cd298 O297 2.203 . S
Cd298 O300 2.411 . S
Cd298 O301 2.333 . S
Cd298 O302 2.352 . S
Cd298 O306 2.277 . S
Cd298 O307 2.356 . S
C299 O304 1.209 . S
C299 O306 1.226 . S
O300 Cd296 2.273 . S
O300 Cd298 2.411 . S
O300 C303 1.320 . S
O301 Cd298 2.333 . S
O301 C303 1.214 . S
O302 Cd298 2.352 . S
O302 C305 1.258 . S
C303 O300 1.320 . S
C303 O301 1.214 . S
O304 Cd296 2.277 . S
O304 C299 1.209 . S
C305 O302 1.258 . S
C305 O307 1.282 . S
O306 Cd298 2.277 . S
O306 C299 1.226 . S
O307 Cd298 2.356 . S
O307 C305 1.282 . S
C308 O309 1.306 . S
C308 O311 1.160 . S
O309 C308 1.306 . S
O309 Cd310 2.228 . S
Cd310 O309 2.228 . S
Cd310 O314 2.273 . S
Cd310 O318 2.277 . S
O311 C308 1.160 . S
O311 Cd312 2.203 . S
Cd312 O311 2.203 . S
Cd312 O314 2.411 . S
Cd312 O315 2.333 . S
Cd312 O316 2.352 . S
Cd312 O320 2.277 . S
Cd312 O321 2.356 . S
C313 O318 1.209 . S
C313 O320 1.226 . S
O314 Cd310 2.273 . S
O314 Cd312 2.411 . S
O314 C317 1.320 . S
O315 Cd312 2.333 . S
O315 C317 1.214 . S
O316 Cd312 2.352 . S
O316 C319 1.258 . S
C317 O314 1.320 . S
C317 O315 1.214 . S
O318 Cd310 2.277 . S
O318 C313 1.209 . S
C319 O316 1.258 . S
C319 O321 1.282 . S
O320 Cd312 2.277 . S
O320 C313 1.226 . S
O321 Cd312 2.356 . S
O321 C319 1.282 . S
C322 O323 1.306 . S
C322 O325 1.160 . S
O323 C322 1.306 . S
O323 Cd324 2.228 . S
Cd324 O323 2.228 . S
Cd324 O328 2.273 . S
Cd324 O332 2.277 . S
O325 C322 1.160 . S
O325 Cd326 2.203 . S
Cd326 O325 2.203 . S
Cd326 O328 2.411 . S
Cd326 O329 2.333 . S
Cd326 O330 2.352 . S
Cd326 O334 2.277 . S
Cd326 O335 2.356 . S
C327 O332 1.209 . S
C327 O334 1.226 . S
O328 Cd324 2.273 . S
O328 Cd326 2.411 . S
O328 C331 1.320 . S
O329 Cd326 2.333 . S
O329 C331 1.214 . S
O330 Cd326 2.352 . S
O330 C333 1.258 . S
C331 O328 1.320 . S
C331 O329 1.214 . S
O332 Cd324 2.277 . S
O332 C327 1.209 . S
C333 O330 1.258 . S
C333 O335 1.282 . S
O334 Cd326 2.277 . S
O334 C327 1.226 . S
O335 Cd326 2.356 . S
O335 C333 1.282 . S
Dy336 O340 2.398 . S
Dy336 O341 2.491 1_556 S
Dy336 O342 2.401 1_545 S
Dy336 O343 2.664 1_655 S
Dy336 O347 2.326 . S
Dy336 O351 2.310 1_656 S
Dy336 O352 2.351 1_546 S
C337 O348 1.185 . S
C337 O349 1.355 1_545 S
C338 O340 1.185 . S
C338 O341 1.355 1_556 S
Dy339 O343 2.310 1_554 S
Dy339 O346 2.351 . S
Dy339 O348 2.398 . S
Dy339 O349 2.491 1_545 S
Dy339 O350 2.403 . S
Dy339 O351 2.664 . S
Dy339 O353 2.326 1_545 S
O340 Dy336 2.398 . S
O340 C338 1.185 . S
O341 Dy336 2.491 1_554 S
O341 C338 1.355 1_554 S
O342 Dy336 2.401 1_565 S
O342 C344 1.258 1_665 S
O343 Dy336 2.664 1_455 S
O343 Dy339 2.310 1_556 S
O343 C344 1.268 . S
C344 O342 1.258 1_445 S
C344 O343 1.268 . S
C345 O350 1.254 . S
C345 O351 1.268 . S
O346 Dy339 2.351 . S
O346 C354 1.249 1_554 S
O347 Dy336 2.326 . S
O347 C354 1.267 1_655 S
O348 C337 1.185 . S
O348 Dy339 2.398 . S
O349 C337 1.355 1_565 S
O349 Dy339 2.491 1_565 S
O350 Dy339 2.403 . S
O350 C345 1.254 . S
O351 Dy336 2.310 1_454 S
O351 Dy339 2.664 . S
O351 C345 1.268 . S
O352 Dy336 2.351 1_564 S
O352 C355 1.249 1_655 S
O353 Dy339 2.326 1_565 S
O353 C355 1.267 . S
C354 O346 1.249 1_556 S
C354 O347 1.267 1_455 S
C355 O352 1.249 1_455 S
C355 O353 1.267 . S
Dy356 O360 2.398 . S
Dy356 O361 2.491 . S
Dy356 O362 2.403 . S
Dy356 O363 2.664 . S
Dy356 O367 2.326 . S
Dy356 O371 2.310 . S
Dy356 O372 2.351 . S
C357 O368 1.185 . S
C357 O369 1.355 . S
C358 O360 1.185 . S
C358 O361 1.355 . S
Dy359 O363 2.310 . S
Dy359 O366 2.351 . S
Dy359 O368 2.398 . S
Dy359 O369 2.491 . S
Dy359 O370 2.403 . S
Dy359 O371 2.664 . S
Dy359 O373 2.326 . S
O360 Dy356 2.398 . S
O360 C358 1.185 . S
O361 Dy356 2.491 . S
O361 C358 1.355 . S
O362 Dy356 2.403 . S
O362 C364 1.254 . S
O363 Dy356 2.664 . S
O363 Dy359 2.310 . S
O363 C364 1.268 . S
C364 O362 1.254 . S
C364 O363 1.268 . S
C365 O370 1.254 . S
C365 O371 1.268 . S
O366 Dy359 2.351 . S
O366 C374 1.249 . S
O367 Dy356 2.326 . S
O367 C374 1.267 . S
O368 C357 1.185 . S
O368 Dy359 2.398 . S
O369 C357 1.355 . S
O369 Dy359 2.491 . S
O370 Dy359 2.403 . S
O370 C365 1.254 . S
O371 Dy356 2.310 . S
O371 Dy359 2.664 . S
O371 C365 1.268 . S
O372 Dy356 2.351 . S
O372 C375 1.249 . S
O373 Dy359 2.326 . S
O373 C375 1.267 . S
C374 O366 1.249 . S
C374 O367 1.267 . S
C375 O372 1.249 . S
C375 O373 1.267 . S
Dy376 O380 2.398 1_545 S
Dy376 O381 2.491 1_545 S
Dy376 O382 2.403 . S
Dy376 O383 2.664 . S
Dy376 O387 2.326 1_545 S
Dy376 O391 2.310 . S
Dy376 O392 2.351 . S
C377 O388 1.185 . S
C377 O389 1.355 . S
C378 O380 1.185 . S
C378 O381 1.355 . S
Dy379 O383 2.310 . S
Dy379 O386 2.351 1_545 S
Dy379 O388 2.398 . S
Dy379 O389 2.491 . S
Dy379 O390 2.403 . S
Dy379 O391 2.664 . S
Dy379 O393 2.326 . S
O380 Dy376 2.398 1_565 S
O380 C378 1.185 . S
O381 Dy376 2.491 1_565 S
O381 C378 1.355 . S
O382 Dy376 2.403 . S
O382 C384 1.254 . S
O383 Dy376 2.664 . S
O383 Dy379 2.310 . S
O383 C384 1.268 . S
C384 O382 1.254 . S
C384 O383 1.268 . S
C385 O390 1.254 . S
C385 O391 1.268 . S
O386 Dy379 2.351 1_565 S
O386 C394 1.249 . S
O387 Dy376 2.326 1_565 S
O387 C394 1.267 . S
O388 C377 1.185 . S
O388 Dy379 2.398 . S
O389 C377 1.355 . S
O389 Dy379 2.491 . S
O390 Dy379 2.403 . S
O390 C385 1.254 . S
O391 Dy376 2.310 . S
O391 Dy379 2.664 . S
O391 C385 1.268 . S
O392 Dy376 2.351 . S
O392 C395 1.249 . S
O393 Dy379 2.326 . S
O393 C395 1.267 . S
C394 O386 1.249 . S
C394 O387 1.267 . S
C395 O392 1.249 . S
C395 O393 1.267 . S
Dy396 O400 2.398 . S
Dy396 O401 2.491 . S
Dy396 O402 2.403 . S
Dy396 O403 2.664 . S
Dy396 O407 2.326 . S
Dy396 O411 2.310 . S
Dy396 O412 2.351 . S
C397 O408 1.185 . S
C397 O409 1.355 . S
C398 O400 1.185 . S
C398 O401 1.355 . S
Dy399 O403 2.310 . S
Dy399 O406 2.351 . S
Dy399 O408 2.398 . S
Dy399 O409 2.491 . S
Dy399 O410 2.403 . S
Dy399 O411 2.664 . S
Dy399 O413 2.326 . S
O400 Dy396 2.398 . S
O400 C398 1.185 . S
O401 Dy396 2.491 . S
O401 C398 1.355 . S
O402 Dy396 2.403 . S
O402 C404 1.254 . S
O403 Dy396 2.664 . S
O403 Dy399 2.310 . S
O403 C404 1.268 . S
C404 O402 1.254 . S
C404 O403 1.268 . S
C405 O410 1.254 . S
C405 O411 1.268 . S
O406 Dy399 2.351 . S
O406 C414 1.249 . S
O407 Dy396 2.326 . S
O407 C414 1.267 . S
O408 C397 1.185 . S
O408 Dy399 2.398 . S
O409 C397 1.355 . S
O409 Dy399 2.491 . S
O410 Dy399 2.403 . S
O410 C405 1.254 . S
O411 Dy396 2.310 . S
O411 Dy399 2.664 . S
O411 C405 1.268 . S
O412 Dy396 2.351 . S
O412 C415 1.249 . S
O413 Dy399 2.326 . S
O413 C415 1.267 . S
C414 O406 1.249 . S
C414 O407 1.267 . S
C415 O412 1.249 . S
C415 O413 1.267 . S
Dy416 O420 2.398 1_565 S
Dy416 O421 2.491 1_465 S
Dy416 O422 2.403 1_565 S
Dy416 O423 2.664 1_565 S
Dy416 O427 2.326 1_565 S
Dy416 O431 2.310 1_465 S
Dy416 O432 2.351 . S
C417 O428 1.185 . S
C417 O429 1.355 . S
C418 O420 1.185 1_655 S
C418 O421 1.355 . S
Dy419 O423 2.310 . S
Dy419 O426 2.351 . S
Dy419 O428 2.398 . S
Dy419 O429 2.491 . S
Dy419 O430 2.403 1_455 S
Dy419 O431 2.664 1_455 S
Dy419 O433 2.326 1_545 S
O420 Dy416 2.398 1_545 S
O420 C418 1.185 1_455 S
O421 Dy416 2.491 1_645 S
O421 C418 1.355 . S
O422 Dy416 2.403 1_545 S
O422 C424 1.254 . S
O423 Dy416 2.664 1_545 S
O423 Dy419 2.310 . S
O423 C424 1.268 . S
C424 O422 1.254 . S
C424 O423 1.268 . S
C425 O430 1.254 . S
C425 O431 1.268 . S
O426 Dy419 2.351 . S
O426 C434 1.249 . S
O427 Dy416 2.326 1_545 S
O427 C434 1.267 . S
O428 C417 1.185 . S
O428 Dy419 2.398 . S
O429 C417 1.355 . S
O429 Dy419 2.491 . S
O430 Dy419 2.403 1_655 S
O430 C425 1.254 . S
O431 Dy416 2.310 1_645 S
O431 Dy419 2.664 1_655 S
O431 C425 1.268 . S
O432 Dy416 2.351 . S
O432 C435 1.249 . S
O433 Dy419 2.326 1_565 S
O433 C435 1.267 . S
C434 O426 1.249 . S
C434 O427 1.267 . S
C435 O432 1.249 . S
C435 O433 1.267 . S
Dy436 O440 2.398 . S
Dy436 O441 2.491 . S
Dy436 O442 2.403 . S
Dy436 O443 2.664 . S
Dy436 O447 2.326 . S
Dy436 O451 2.310 . S
Dy436 O452 2.351 . S
C437 O448 1.185 . S
C437 O449 1.355 . S
C438 O440 1.185 . S
C438 O441 1.355 . S
Dy439 O443 2.310 . S
Dy439 O446 2.351 . S
Dy439 O448 2.398 . S
Dy439 O449 2.491 . S
Dy439 O450 2.403 . S
Dy439 O451 2.664 . S
Dy439 O453 2.326 . S
O440 Dy436 2.398 . S
O440 C438 1.185 . S
O441 Dy436 2.491 . S
O441 C438 1.355 . S
O442 Dy436 2.403 . S
O442 C444 1.254 . S
O443 Dy436 2.664 . S
O443 Dy439 2.310 . S
O443 C444 1.268 . S
C444 O442 1.254 . S
C444 O443 1.268 . S
C445 O450 1.254 . S
C445 O451 1.268 . S
O446 Dy439 2.351 . S
O446 C454 1.249 . S
O447 Dy436 2.326 . S
O447 C454 1.267 . S
O448 C437 1.185 . S
O448 Dy439 2.398 . S
O449 C437 1.355 . S
O449 Dy439 2.491 . S
O450 Dy439 2.403 . S
O450 C445 1.254 . S
O451 Dy436 2.310 . S
O451 Dy439 2.664 . S
O451 C445 1.268 . S
O452 Dy436 2.351 . S
O452 C455 1.249 . S
O453 Dy439 2.326 . S
O453 C455 1.267 . S
C454 O446 1.249 . S
C454 O447 1.267 . S
C455 O452 1.249 . S
C455 O453 1.267 . S
Dy456 O460 2.398 1_545 S
Dy456 O461 2.491 . S
Dy456 O462 2.403 1_545 S
Dy456 O463 2.664 1_544 S
Dy456 O467 2.326 1_545 S
Dy456 O471 2.310 . S
Dy456 O472 2.351 . S
C457 O468 1.185 . S
C457 O469 1.355 . S
C458 O460 1.185 . S
C458 O461 1.355 1_565 S
Dy459 O463 2.310 1_545 S
Dy459 O466 2.351 . S
Dy459 O468 2.398 . S
Dy459 O469 2.491 . S
Dy459 O470 2.403 . S
Dy459 O471 2.664 1_556 S
Dy459 O473 2.326 . S
O460 Dy456 2.398 1_565 S
O460 C458 1.185 . S
O461 Dy456 2.491 . S
O461 C458 1.355 1_545 S
O462 Dy456 2.403 1_565 S
O462 C464 1.254 1_554 S
O463 Dy456 2.664 1_566 S
O463 Dy459 2.310 1_565 S
O463 C464 1.268 . S
C464 O462 1.254 1_556 S
C464 O463 1.268 . S
C465 O470 1.254 1_554 S
C465 O471 1.268 . S
O466 Dy459 2.351 . S
O466 C474 1.249 1_546 S
O467 Dy456 2.326 1_565 S
O467 C474 1.267 . S
O468 C457 1.185 . S
O468 Dy459 2.398 . S
O469 C457 1.355 . S
O469 Dy459 2.491 . S
O470 Dy459 2.403 . S
O470 C465 1.254 1_556 S
O471 Dy456 2.310 . S
O471 Dy459 2.664 1_554 S
O471 C465 1.268 . S
O472 Dy456 2.351 . S
O472 C475 1.249 . S
O473 Dy459 2.326 . S
O473 C475 1.267 1_556 S
C474 O466 1.249 1_564 S
C474 O467 1.267 . S
C475 O472 1.249 . S
C475 O473 1.267 1_554 S
Dy476 O480 2.398 . S
Dy476 O481 2.491 . S
Dy476 O482 2.403 . S
Dy476 O483 2.664 . S
Dy476 O487 2.326 . S
Dy476 O491 2.310 . S
Dy476 O492 2.351 . S
C477 O488 1.185 . S
C477 O489 1.355 . S
C478 O480 1.185 . S
C478 O481 1.355 . S
Dy479 O483 2.310 . S
Dy479 O486 2.351 . S
Dy479 O488 2.398 . S
Dy479 O489 2.491 . S
Dy479 O490 2.403 . S
Dy479 O491 2.664 . S
Dy479 O493 2.326 . S
O480 Dy476 2.398 . S
O480 C478 1.185 . S
O481 Dy476 2.491 . S
O481 C478 1.355 . S
O482 Dy476 2.403 . S
O482 C484 1.254 . S
O483 Dy476 2.664 . S
O483 Dy479 2.310 . S
O483 C484 1.268 . S
C484 O482 1.254 . S
C484 O483 1.268 . S
C485 O490 1.254 . S
C485 O491 1.268 . S
O486 Dy479 2.351 . S
O486 C494 1.249 . S
O487 Dy476 2.326 . S
O487 C494 1.267 . S
O488 C477 1.185 . S
O488 Dy479 2.398 . S
O489 C477 1.355 . S
O489 Dy479 2.491 . S
O490 Dy479 2.403 . S
O490 C485 1.254 . S
O491 Dy476 2.310 . S
O491 Dy479 2.664 . S
O491 C485 1.268 . S
O492 Dy476 2.351 . S
O492 C495 1.249 . S
O493 Dy479 2.326 . S
O493 C495 1.267 . S
C494 O486 1.249 . S
C494 O487 1.267 . S
C495 O492 1.249 . S
C495 O493 1.267 . S
Dy496 O500 2.398 . S
Dy496 O501 2.491 . S
Dy496 O502 2.403 . S
Dy496 O503 2.664 1_556 S
Dy496 O507 2.326 . S
Dy496 O511 2.295 1_556 S
Dy496 O512 2.351 . S
C497 O508 1.185 . S
C497 O509 1.355 . S
C498 O500 1.185 . S
C498 O501 1.355 . S
Dy499 O503 2.310 . S
Dy499 O506 2.351 . S
Dy499 O508 2.398 . S
Dy499 O509 2.491 . S
Dy499 O510 2.403 . S
Dy499 O511 2.679 . S
Dy499 O513 2.326 . S
O500 Dy496 2.398 . S
O500 C498 1.185 . S
O501 Dy496 2.491 . S
O501 C498 1.355 . S
O502 Dy496 2.403 . S
O502 C504 1.254 . S
O503 Dy496 2.664 1_554 S
O503 Dy499 2.310 . S
O503 C504 1.268 1_554 S
C504 O502 1.254 . S
C504 O503 1.268 1_556 S
C505 O510 1.254 . S
C505 O511 1.282 . S
O506 Dy499 2.351 . S
O506 C514 1.249 1_554 S
O507 Dy496 2.326 . S
O507 C514 1.267 . S
O508 C497 1.185 . S
O508 Dy499 2.398 . S
O509 C497 1.355 . S
O509 Dy499 2.491 . S
O510 Dy499 2.403 . S
O510 C505 1.254 . S
O511 Dy496 2.295 1_554 S
O511 Dy499 2.679 . S
O511 C505 1.282 . S
O512 Dy496 2.351 . S
O512 C515 1.249 1_556 S
O513 Dy499 2.326 . S
O513 C515 1.267 . S
C514 O506 1.249 1_556 S
C514 O507 1.267 . S
C515 O512 1.249 1_554 S
C515 O513 1.267 . S
Dy516 O520 2.398 . S
Dy516 O521 2.491 . S
Dy516 O522 2.403 . S
Dy516 O523 2.664 . S
Dy516 O527 2.326 . S
Dy516 O531 2.310 . S
Dy516 O532 2.351 . S
C517 O528 1.185 . S
C517 O529 1.355 . S
C518 O520 1.185 . S
C518 O521 1.355 . S
Dy519 O523 2.310 . S
Dy519 O526 2.351 . S
Dy519 O528 2.398 . S
Dy519 O529 2.491 . S
Dy519 O530 2.403 . S
Dy519 O531 2.664 . S
Dy519 O533 2.326 . S
O520 Dy516 2.398 . S
O520 C518 1.185 . S
O521 Dy516 2.491 . S
O521 C518 1.355 . S
O522 Dy516 2.403 . S
O522 C524 1.254 . S
O523 Dy516 2.664 . S
O523 Dy519 2.310 . S
O523 C524 1.268 . S
C524 O522 1.254 . S
C524 O523 1.268 . S
C525 O530 1.254 . S
C525 O531 1.268 . S
O526 Dy519 2.351 . S
O526 C534 1.249 . S
O527 Dy516 2.326 . S
O527 C534 1.267 . S
O528 C517 1.185 . S
O528 Dy519 2.398 . S
O529 C517 1.355 . S
O529 Dy519 2.491 . S
O530 Dy519 2.403 . S
O530 C525 1.254 . S
O531 Dy516 2.310 . S
O531 Dy519 2.664 . S
O531 C525 1.268 . S
O532 Dy516 2.351 . S
O532 C535 1.249 . S
O533 Dy519 2.326 . S
O533 C535 1.267 . S
C534 O526 1.249 . S
C534 O527 1.267 . S
C535 O532 1.249 . S
C535 O533 1.267 . S
Dy536 O540 2.398 1_455 S
Dy536 O541 2.491 1_455 S
Dy536 O542 2.403 . S
Dy536 O543 2.664 . S
Dy536 O547 2.326 1_455 S
Dy536 O551 2.310 . S
Dy536 O552 2.351 . S
C537 O548 1.185 . S
C537 O549 1.355 . S
C538 O540 1.185 . S
C538 O541 1.355 . S
Dy539 O543 2.310 . S
Dy539 O546 2.351 1_455 S
Dy539 O548 2.398 . S
Dy539 O549 2.491 . S
Dy539 O550 2.403 . S
Dy539 O551 2.664 . S
Dy539 O553 2.326 . S
O540 Dy536 2.398 1_655 S
O540 C538 1.185 . S
O541 Dy536 2.491 1_655 S
O541 C538 1.355 . S
O542 Dy536 2.403 . S
O542 C544 1.254 . S
O543 Dy536 2.664 . S
O543 Dy539 2.310 . S
O543 C544 1.268 . S
C544 O542 1.254 . S
C544 O543 1.268 . S
C545 O550 1.254 . S
C545 O551 1.268 . S
O546 Dy539 2.351 1_655 S
O546 C554 1.249 . S
O547 Dy536 2.326 1_655 S
O547 C554 1.267 . S
O548 C537 1.185 . S
O548 Dy539 2.398 . S
O549 C537 1.355 . S
O549 Dy539 2.491 . S
O550 Dy539 2.403 . S
O550 C545 1.254 . S
O551 Dy536 2.310 . S
O551 Dy539 2.664 . S
O551 C545 1.268 . S
O552 Dy536 2.351 . S
O552 C555 1.249 . S
O553 Dy539 2.326 . S
O553 C555 1.267 . S
C554 O546 1.249 . S
C554 O547 1.267 . S
C555 O552 1.249 . S
C555 O553 1.267 . S
Dy556 O560 2.398 . S
Dy556 O561 2.491 . S
Dy556 O562 2.403 . S
Dy556 O563 2.664 . S
Dy556 O567 2.326 . S
Dy556 O571 2.310 . S
Dy556 O572 2.351 . S
C557 O568 1.185 . S
C557 O569 1.355 . S
C558 O560 1.185 . S
C558 O561 1.355 . S
Dy559 O563 2.310 . S
Dy559 O566 2.351 . S
Dy559 O568 2.398 . S
Dy559 O569 2.491 . S
Dy559 O570 2.403 . S
Dy559 O571 2.664 . S
Dy559 O573 2.326 . S
O560 Dy556 2.398 . S
O560 C558 1.185 . S
O561 Dy556 2.491 . S
O561 C558 1.355 . S
O562 Dy556 2.403 . S
O562 C564 1.254 . S
O563 Dy556 2.664 . S
O563 Dy559 2.310 . S
O563 C564 1.268 . S
C564 O562 1.254 . S
C564 O563 1.268 . S
C565 O570 1.254 . S
C565 O571 1.268 . S
O566 Dy559 2.351 . S
O566 C574 1.249 . S
O567 Dy556 2.326 . S
O567 C574 1.267 . S
O568 C557 1.185 . S
O568 Dy559 2.398 . S
O569 C557 1.355 . S
O569 Dy559 2.491 . S
O570 Dy559 2.403 . S
O570 C565 1.254 . S
O571 Dy556 2.310 . S
O571 Dy559 2.664 . S
O571 C565 1.268 . S
O572 Dy556 2.351 . S
O572 C575 1.249 . S
O573 Dy559 2.326 . S
O573 C575 1.267 . S
C574 O566 1.249 . S
C574 O567 1.267 . S
C575 O572 1.249 . S
C575 O573 1.267 . S
Dy576 O580 2.398 . S
Dy576 O581 2.491 . S
Dy576 O582 2.403 . S
Dy576 O583 2.664 . S
Dy576 O587 2.326 . S
Dy576 O591 2.310 . S
Dy576 O592 2.351 . S
C577 O588 1.185 . S
C577 O589 1.355 . S
C578 O580 1.185 . S
C578 O581 1.355 . S
Dy579 O583 2.310 . S
Dy579 O586 2.351 . S
Dy579 O588 2.398 . S
Dy579 O589 2.491 . S
Dy579 O590 2.403 . S
Dy579 O591 2.664 . S
Dy579 O593 2.326 . S
O580 Dy576 2.398 . S
O580 C578 1.185 . S
O581 Dy576 2.491 . S
O581 C578 1.355 . S
O582 Dy576 2.403 . S
O582 C584 1.254 . S
O583 Dy576 2.664 . S
O583 Dy579 2.310 . S
O583 C584 1.268 . S
C584 O582 1.254 . S
C584 O583 1.268 . S
C585 O590 1.254 . S
C585 O591 1.268 . S
O586 Dy579 2.351 . S
O586 C594 1.249 . S
O587 Dy576 2.326 . S
O587 C594 1.267 . S
O588 C577 1.185 . S
O588 Dy579 2.398 . S
O589 C577 1.355 . S
O589 Dy579 2.491 . S
O590 Dy579 2.403 . S
O590 C585 1.254 . S
O591 Dy576 2.310 . S
O591 Dy579 2.664 . S
O591 C585 1.268 . S
O592 Dy576 2.351 . S
O592 C595 1.249 . S
O593 Dy579 2.326 . S
O593 C595 1.267 . S
C594 O586 1.249 . S
C594 O587 1.267 . S
C595 O592 1.249 . S
C595 O593 1.267 . S
Dy596 O600 2.398 . S
Dy596 O601 2.491 . S
Dy596 O602 2.403 . S
Dy596 O603 2.664 . S
Dy596 O607 2.326 . S
Dy596 O611 2.310 . S
Dy596 O612 2.351 . S
C597 O608 1.185 . S
C597 O609 1.355 . S
C598 O600 1.185 . S
C598 O601 1.355 . S
Dy599 O603 2.310 . S
Dy599 O606 2.351 . S
Dy599 O608 2.398 . S
Dy599 O609 2.491 . S
Dy599 O610 2.403 . S
Dy599 O611 2.664 . S
Dy599 O613 2.326 . S
O600 Dy596 2.398 . S
O600 C598 1.185 . S
O601 Dy596 2.491 . S
O601 C598 1.355 . S
O602 Dy596 2.403 . S
O602 C604 1.254 . S
O603 Dy596 2.664 . S
O603 Dy599 2.310 . S
O603 C604 1.268 . S
C604 O602 1.254 . S
C604 O603 1.268 . S
C605 O610 1.254 . S
C605 O611 1.268 . S
O606 Dy599 2.351 . S
O606 C614 1.249 . S
O607 Dy596 2.326 . S
O607 C614 1.267 . S
O608 C597 1.185 . S
O608 Dy599 2.398 . S
O609 C597 1.355 . S
O609 Dy599 2.491 . S
O610 Dy599 2.403 . S
O610 C605 1.254 . S
O611 Dy596 2.310 . S
O611 Dy599 2.664 . S
O611 C605 1.268 . S
O612 Dy596 2.351 . S
O612 C615 1.249 . S
O613 Dy599 2.326 . S
O613 C615 1.267 . S
C614 O606 1.249 . S
C614 O607 1.267 . S
C615 O612 1.249 . S
C615 O613 1.267 . S
Dy616 O620 2.398 . S
Dy616 O621 2.491 . S
Dy616 O622 2.403 . S
Dy616 O623 2.664 . S
Dy616 O627 2.326 . S
Dy616 O631 2.310 . S
Dy616 O632 2.351 . S
C617 O628 1.185 . S
C617 O629 1.355 . S
C618 O620 1.185 . S
C618 O621 1.355 . S
Dy619 O623 2.310 . S
Dy619 O626 2.351 . S
Dy619 O628 2.398 . S
Dy619 O629 2.491 . S
Dy619 O630 2.403 . S
Dy619 O631 2.664 . S
Dy619 O633 2.326 . S
O620 Dy616 2.398 . S
O620 C618 1.185 . S
O621 Dy616 2.491 . S
O621 C618 1.355 . S
O622 Dy616 2.403 . S
O622 C624 1.254 . S
O623 Dy616 2.664 . S
O623 Dy619 2.310 . S
O623 C624 1.268 . S
C624 O622 1.254 . S
C624 O623 1.268 . S
C625 O630 1.254 . S
C625 O631 1.268 . S
O626 Dy619 2.351 . S
O626 C634 1.249 . S
O627 Dy616 2.326 . S
O627 C634 1.267 . S
O628 C617 1.185 . S
O628 Dy619 2.398 . S
O629 C617 1.355 . S
O629 Dy619 2.491 . S
O630 Dy619 2.403 . S
O630 C625 1.254 . S
O631 Dy616 2.310 . S
O631 Dy619 2.664 . S
O631 C625 1.268 . S
O632 Dy616 2.351 . S
O632 C635 1.249 . S
O633 Dy619 2.326 . S
O633 C635 1.267 . S
C634 O626 1.249 . S
C634 O627 1.267 . S
C635 O632 1.249 . S
C635 O633 1.267 . S
Dy636 O640 2.398 . S
Dy636 O641 2.491 1_556 S
Dy636 O642 2.403 . S
Dy636 O643 2.664 . S
Dy636 O647 2.326 . S
Dy636 O651 2.310 1_556 S
Dy636 O652 2.351 1_556 S
C637 O648 1.185 . S
C637 O649 1.355 . S
C638 O640 1.185 . S
C638 O641 1.355 1_556 S
Dy639 O643 2.310 1_654 S
Dy639 O646 2.351 . S
Dy639 O648 2.398 . S
Dy639 O649 2.491 . S
Dy639 O650 2.403 . S
Dy639 O651 2.664 1_655 S
Dy639 O653 2.326 1_655 S
O640 Dy636 2.398 . S
O640 C638 1.185 . S
O641 Dy636 2.491 1_554 S
O641 C638 1.355 1_554 S
O642 Dy636 2.403 . S
O642 C644 1.254 . S
O643 Dy636 2.664 . S
O643 Dy639 2.310 1_456 S
O643 C644 1.268 . S
C644 O642 1.254 . S
C644 O643 1.268 . S
C645 O650 1.254 1_455 S
C645 O651 1.268 . S
O646 Dy639 2.351 . S
O646 C654 1.249 1_654 S
O647 Dy636 2.326 . S
O647 C654 1.267 . S
O648 C637 1.185 . S
O648 Dy639 2.398 . S
O649 C637 1.355 . S
O649 Dy639 2.491 . S
O650 Dy639 2.403 . S
O650 C645 1.254 1_655 S
O651 Dy636 2.310 1_554 S
O651 Dy639 2.664 1_455 S
O651 C645 1.268 . S
O652 Dy636 2.351 1_554 S
O652 C655 1.249 . S
O653 Dy639 2.326 1_455 S
O653 C655 1.267 . S
C654 O646 1.249 1_456 S
C654 O647 1.267 . S
C655 O652 1.249 . S
C655 O653 1.267 . S
C656 C657 1.355 1_455 S
C656 C658 1.419 . S
C656 H660 0.930 . S
C657 C656 1.355 1_655 S
C657 C666 1.433 . S
C658 C656 1.419 . S
C658 C659 1.363 . S
C658 H661 0.929 . S
C659 C658 1.363 . S
C659 C665 1.428 . S
H660 C656 0.930 . S
H661 C658 0.929 . S
S662 N663 1.613 1_554 S
S662 N664 1.610 1_655 S
N663 S662 1.613 1_556 S
N663 C666 1.350 . S
N664 S662 1.610 1_455 S
N664 C665 1.351 1_554 S
C665 C659 1.428 . S
C665 N664 1.351 1_556 S
C665 C666 1.434 1_455 S
C666 C657 1.433 . S
C666 N663 1.350 . S
C666 C665 1.434 1_655 S
C667 C668 1.369 . S
C667 C669 1.419 . S
C667 H671 0.930 . S
C668 C667 1.369 . S
C668 C677 1.429 . S
C669 C667 1.419 . S
C669 C670 1.363 . S
C669 H672 0.929 . S
C670 C669 1.363 . S
C670 C676 1.428 . S
H671 C667 0.930 . S
H672 C669 0.929 . S
S673 N674 1.613 . S
S673 N675 1.610 . S
N674 S673 1.613 . S
N674 C677 1.350 . S
N675 S673 1.610 . S
N675 C676 1.351 . S
C676 C670 1.428 . S
C676 N675 1.351 . S
C676 C677 1.434 . S
C677 C668 1.429 . S
C677 N674 1.350 . S
C677 C676 1.434 . S
C678 C679 1.369 . S
C678 C680 1.419 . S
C678 H682 0.930 . S
C679 C678 1.369 . S
C679 C688 1.429 . S
C680 C678 1.419 . S
C680 C681 1.363 . S
C680 H683 0.929 . S
C681 C680 1.363 . S
C681 C687 1.428 . S
H682 C678 0.930 . S
H683 C680 0.929 . S
S684 N685 1.613 . S
S684 N686 1.610 . S
N685 S684 1.613 . S
N685 C688 1.350 . S
N686 S684 1.610 . S
N686 C687 1.351 . S
C687 C681 1.428 . S
C687 N686 1.351 . S
C687 C688 1.434 . S
C688 C679 1.429 . S
C688 N685 1.350 . S
C688 C687 1.434 . S
C689 C690 1.369 . S
C689 C691 1.419 . S
C689 H693 0.930 . S
C690 C689 1.369 . S
C690 C699 1.429 . S
C691 C689 1.419 . S
C691 C692 1.363 . S
C691 H694 0.929 . S
C692 C691 1.363 . S
C692 C698 1.428 . S
H693 C689 0.930 . S
H694 C691 0.929 . S
S695 N696 1.613 . S
S695 N697 1.610 . S
N696 S695 1.613 . S
N696 C699 1.350 . S
N697 S695 1.610 . S
N697 C698 1.351 . S
C698 C692 1.428 . S
C698 N697 1.351 . S
C698 C699 1.434 . S
C699 C690 1.429 . S
C699 N696 1.350 . S
C699 C698 1.434 . S
C700 C701 1.369 . S
C700 C702 1.419 . S
C700 H704 0.930 1_455 S
C701 C700 1.369 . S
C701 C710 1.429 . S
C702 C700 1.419 . S
C702 C703 1.363 . S
C702 H705 0.929 1_455 S
C703 C702 1.363 . S
C703 C709 1.428 . S
H704 C700 0.930 1_655 S
H705 C702 0.929 1_655 S
S706 N707 1.613 . S
S706 N708 1.610 . S
N707 S706 1.613 . S
N707 C710 1.350 . S
N708 S706 1.610 . S
N708 C709 1.351 . S
C709 C703 1.428 . S
C709 N708 1.351 . S
C709 C710 1.434 . S
C710 C701 1.429 . S
C710 N707 1.350 . S
C710 C709 1.434 . S
C711 C712 1.369 . S
C711 C713 1.419 . S
C711 H715 0.930 . S
C712 C711 1.369 . S
C712 C721 1.429 . S
C713 C711 1.419 . S
C713 C714 1.363 . S
C713 H716 0.929 . S
C714 C713 1.363 . S
C714 C720 1.428 . S
H715 C711 0.930 . S
H716 C713 0.929 . S
S717 N718 1.613 . S
S717 N719 1.610 . S
N718 S717 1.613 . S
N718 C721 1.350 . S
N719 S717 1.610 . S
N719 C720 1.351 . S
C720 C714 1.428 . S
C720 N719 1.351 . S
C720 C721 1.434 . S
C721 C712 1.429 . S
C721 N718 1.350 . S
C721 C720 1.434 . S
C722 C723 1.369 . S
C722 C724 1.419 . S
C722 H726 0.930 . S
C723 C722 1.369 . S
C723 C732 1.429 . S
C724 C722 1.419 . S
C724 C725 1.363 . S
C724 H727 0.929 . S
C725 C724 1.363 . S
C725 C731 1.428 . S
H726 C722 0.930 . S
H727 C724 0.929 . S
S728 N729 1.613 1_556 S
S728 N730 1.610 . S
N729 S728 1.613 1_554 S
N729 C732 1.350 . S
N730 S728 1.610 . S
N730 C731 1.351 1_556 S
C731 C725 1.428 . S
C731 N730 1.351 1_554 S
C731 C732 1.434 . S
C732 C723 1.429 . S
C732 N729 1.350 . S
C732 C731 1.434 . S
C733 C734 1.369 . S
C733 C735 1.419 . S
C733 H737 0.930 . S
C734 C733 1.369 . S
C734 C743 1.429 . S
C735 C733 1.419 . S
C735 C736 1.363 . S
C735 H738 0.929 . S
C736 C735 1.363 . S
C736 C742 1.428 . S
H737 C733 0.930 . S
H738 C735 0.929 . S
S739 N740 1.613 . S
S739 N741 1.610 . S
N740 S739 1.613 . S
N740 C743 1.350 . S
N741 S739 1.610 . S
N741 C742 1.351 . S
C742 C736 1.428 . S
C742 N741 1.351 . S
C742 C743 1.434 . S
C743 C734 1.429 . S
C743 N740 1.350 . S
C743 C742 1.434 . S
C744 C745 1.369 . S
C744 C746 1.419 . S
C744 H748 0.930 . S
C745 C744 1.369 . S
C745 C754 1.429 . S
C746 C744 1.419 . S
C746 C747 1.363 . S
C746 H749 0.929 . S
C747 C746 1.363 . S
C747 C753 1.428 . S
H748 C744 0.930 . S
H749 C746 0.929 . S
S750 N751 1.613 . S
S750 N752 1.610 . S
N751 S750 1.613 . S
N751 C754 1.350 1_565 S
N752 S750 1.610 . S
N752 C753 1.351 1_565 S
C753 C747 1.428 . S
C753 N752 1.351 1_545 S
C753 C754 1.434 . S
C754 C745 1.429 . S
C754 N751 1.350 1_545 S
C754 C753 1.434 . S
C755 C756 1.369 . S
C755 C757 1.419 . S
C755 H759 0.930 . S
C756 C755 1.369 . S
C756 C765 1.429 . S
C757 C755 1.419 . S
C757 C758 1.363 . S
C757 H760 0.929 . S
C758 C757 1.363 . S
C758 C764 1.428 . S
H759 C755 0.930 . S
H760 C757 0.929 . S
S761 N762 1.613 . S
S761 N763 1.610 . S
N762 S761 1.613 . S
N762 C765 1.350 . S
N763 S761 1.610 . S
N763 C764 1.351 . S
C764 C758 1.428 . S
C764 N763 1.351 . S
C764 C765 1.434 . S
C765 C756 1.429 . S
C765 N762 1.350 . S
C765 C764 1.434 . S
C766 C767 1.369 . S
C766 C768 1.419 . S
C766 H770 0.930 . S
C767 C766 1.369 . S
C767 C776 1.429 1_545 S
C768 C766 1.419 . S
C768 C769 1.363 . S
C768 H771 0.929 . S
C769 C768 1.363 . S
C769 C775 1.428 1_545 S
H770 C766 0.930 . S
H771 C768 0.929 . S
S772 N773 1.613 . S
S772 N774 1.610 . S
N773 S772 1.613 . S
N773 C776 1.350 . S
N774 S772 1.610 . S
N774 C775 1.351 . S
C775 C769 1.428 1_565 S
C775 N774 1.351 . S
C775 C776 1.434 . S
C776 C767 1.429 1_565 S
C776 N773 1.350 . S
C776 C775 1.434 . S
C777 C778 1.369 . S
C777 C779 1.419 . S
C777 H781 0.930 . S
C778 C777 1.369 . S
C778 C787 1.429 . S
C779 C777 1.419 . S
C779 C780 1.363 . S
C779 H782 0.929 . S
C780 C779 1.363 . S
C780 C786 1.428 . S
H781 C777 0.930 . S
H782 C779 0.929 . S
S783 N784 1.613 . S
S783 N785 1.610 . S
N784 S783 1.613 . S
N784 C787 1.350 . S
N785 S783 1.610 . S
N785 C786 1.351 . S
C786 C780 1.428 . S
C786 N785 1.351 . S
C786 C787 1.434 . S
C787 C778 1.429 . S
C787 N784 1.350 . S
C787 C786 1.434 . S
C788 C789 1.369 . S
C788 C790 1.419 . S
C788 H792 0.930 . S
C789 C788 1.369 . S
C789 C798 1.429 . S
C790 C788 1.419 . S
C790 C791 1.363 . S
C790 H793 0.929 1_545 S
C791 C790 1.363 . S
C791 C797 1.428 . S
H792 C788 0.930 . S
H793 C790 0.929 1_565 S
S794 N795 1.613 1_455 S
S794 N796 1.610 . S
N795 S794 1.613 1_655 S
N795 C798 1.350 . S
N796 S794 1.610 . S
N796 C797 1.351 1_455 S
C797 C791 1.428 . S
C797 N796 1.351 1_655 S
C797 C798 1.434 . S
C798 C789 1.429 . S
C798 N795 1.350 . S
C798 C797 1.434 . S
C799 C800 1.369 . S
C799 C801 1.419 . S
C799 H803 0.930 . S
C800 C799 1.369 . S
C800 C809 1.429 . S
C801 C799 1.419 . S
C801 C802 1.363 . S
C801 H804 0.929 . S
C802 C801 1.363 . S
C802 C808 1.428 . S
H803 C799 0.930 . S
H804 C801 0.929 . S
S805 N806 1.613 . S
S805 N807 1.610 . S
N806 S805 1.613 . S
N806 C809 1.350 . S
N807 S805 1.610 . S
N807 C808 1.351 . S
C808 C802 1.428 . S
C808 N807 1.351 . S
C808 C809 1.434 . S
C809 C800 1.429 . S
C809 N806 1.350 . S
C809 C808 1.434 . S
C810 C811 1.369 . S
C810 C812 1.419 . S
C810 H814 0.930 . S
C811 C810 1.369 . S
C811 C820 1.429 . S
C812 C810 1.419 . S
C812 C813 1.363 . S
C812 H815 0.929 . S
C813 C812 1.363 . S
C813 C819 1.428 . S
H814 C810 0.930 . S
H815 C812 0.929 . S
S816 N817 1.613 . S
S816 N818 1.610 . S
N817 S816 1.613 . S
N817 C820 1.350 1_565 S
N818 S816 1.610 . S
N818 C819 1.351 1_565 S
C819 C813 1.428 . S
C819 N818 1.351 1_545 S
C819 C820 1.434 . S
C820 C811 1.429 . S
C820 N817 1.350 1_545 S
C820 C819 1.434 . S
C821 C822 1.369 . S
C821 C823 1.419 . S
C821 H825 0.930 . S
C822 C821 1.369 . S
C822 C831 1.429 . S
C823 C821 1.419 . S
C823 C824 1.363 . S
C823 H826 0.929 . S
C824 C823 1.363 . S
C824 C830 1.428 . S
H825 C821 0.930 . S
H826 C823 0.929 . S
S827 N828 1.613 . S
S827 N829 1.610 . S
N828 S827 1.613 . S
N828 C831 1.350 . S
N829 S827 1.610 . S
N829 C830 1.351 . S
C830 C824 1.428 . S
C830 N829 1.351 . S
C830 C831 1.434 . S
C831 C822 1.429 . S
C831 N828 1.350 . S
C831 C830 1.434 . S
C832 C833 1.369 . S
C832 C834 1.419 . S
C832 H836 0.930 . S
C833 C832 1.369 . S
C833 C842 1.429 . S
C834 C832 1.419 . S
C834 C835 1.363 . S
C834 H837 0.929 1_565 S
C835 C834 1.363 . S
C835 C841 1.428 . S
H836 C832 0.930 . S
H837 C834 0.929 1_545 S
S838 N839 1.613 . S
S838 N840 1.610 1_556 S
N839 S838 1.613 . S
N839 C842 1.350 1_556 S
N840 S838 1.610 1_554 S
N840 C841 1.351 . S
C841 C835 1.428 . S
C841 N840 1.351 . S
C841 C842 1.434 . S
C842 C833 1.429 . S
C842 N839 1.350 1_554 S
C842 C841 1.434 . S
C843 C844 1.363 1_556 S
C843 C845 1.419 . S
C843 H847 0.930 . S
C844 C843 1.363 1_554 S
C844 C853 1.438 . S
C845 C843 1.419 . S
C845 C846 1.362 . S
C845 H848 0.929 . S
C846 C845 1.362 . S
C846 C852 1.429 1_556 S
H847 C843 0.930 . S
H848 C845 0.929 . S
S849 N850 1.613 . S
S849 N851 1.610 . S
N850 S849 1.613 . S
N850 C853 1.350 . S
N851 S849 1.610 . S
N851 C852 1.351 . S
C852 C846 1.429 1_554 S
C852 N851 1.351 . S
C852 C853 1.434 . S
C853 C844 1.438 . S
C853 N850 1.350 . S
C853 C852 1.434 . S
C854 C855 1.369 . S
C854 C856 1.419 . S
C854 H858 0.930 . S
C855 C854 1.369 . S
C855 C864 1.429 . S
C856 C854 1.419 . S
C856 C857 1.363 . S
C856 H859 0.929 . S
C857 C856 1.363 . S
C857 C863 1.428 . S
H858 C854 0.930 . S
H859 C856 0.929 . S
S860 N861 1.613 . S
S860 N862 1.610 . S
N861 S860 1.613 . S
N861 C864 1.350 . S
N862 S860 1.610 . S
N862 C863 1.351 . S
C863 C857 1.428 . S
C863 N862 1.351 . S
C863 C864 1.434 . S
C864 C855 1.429 . S
C864 N861 1.350 . S
C864 C863 1.434 . S
C865 C866 1.369 . S
C865 C867 1.419 . S
C865 H869 0.930 . S
C866 C865 1.369 . S
C866 C875 1.429 . S
C867 C865 1.419 . S
C867 C868 1.363 . S
C867 H870 0.929 . S
C868 C867 1.363 . S
C868 C874 1.428 . S
H869 C865 0.930 . S
H870 C867 0.929 . S
S871 N872 1.613 . S
S871 N873 1.610 . S
N872 S871 1.613 . S
N872 C875 1.350 . S
N873 S871 1.610 . S
N873 C874 1.351 . S
C874 C868 1.428 . S
C874 N873 1.351 . S
C874 C875 1.434 . S
C875 C866 1.429 . S
C875 N872 1.350 . S
C875 C874 1.434 . S
C876 C877 1.369 . S
C876 C878 1.419 . S
C876 H880 0.930 . S
C877 C876 1.369 . S
C877 C886 1.429 . S
C878 C876 1.419 . S
C878 C879 1.363 . S
C878 H881 0.929 . S
C879 C878 1.363 . S
C879 C885 1.428 . S
H880 C876 0.930 . S
H881 C878 0.929 . S
S882 N883 1.613 . S
S882 N884 1.610 . S
N883 S882 1.613 . S
N883 C886 1.350 . S
N884 S882 1.610 . S
N884 C885 1.351 . S
C885 C879 1.428 . S
C885 N884 1.351 . S
C885 C886 1.434 . S
C886 C877 1.429 . S
C886 N883 1.350 . S
C886 C885 1.434 . S
C887 C888 1.369 . S
C887 C889 1.419 . S
C887 H891 0.930 . S
C888 C887 1.369 . S
C888 C897 1.429 . S
C889 C887 1.419 . S
C889 C890 1.363 . S
C889 H892 0.929 . S
C890 C889 1.363 . S
C890 C896 1.428 . S
H891 C887 0.930 . S
H892 C889 0.929 . S
S893 N894 1.613 . S
S893 N895 1.610 . S
N894 S893 1.613 . S
N894 C897 1.350 . S
N895 S893 1.610 . S
N895 C896 1.351 . S
C896 C890 1.428 . S
C896 N895 1.351 . S
C896 C897 1.434 . S
C897 C888 1.429 . S
C897 N894 1.350 . S
C897 C896 1.434 . S
C898 C899 1.369 . S
C898 C900 1.419 . S
C898 H902 0.930 . S
C899 C898 1.369 . S
C899 C908 1.429 . S
C900 C898 1.419 . S
C900 C901 1.363 . S
C900 H903 0.929 . S
C901 C900 1.363 . S
C901 C907 1.428 . S
H902 C898 0.930 . S
H903 C900 0.929 . S
S904 N905 1.613 . S
S904 N906 1.610 . S
N905 S904 1.613 . S
N905 C908 1.350 . S
N906 S904 1.610 . S
N906 C907 1.351 . S
C907 C901 1.428 . S
C907 N906 1.351 . S
C907 C908 1.434 . S
C908 C899 1.429 . S
C908 N905 1.350 . S
C908 C907 1.434 . S
C909 C910 1.369 . S
C909 C911 1.419 . S
C909 H913 0.930 . S
C910 C909 1.369 . S
C910 C919 1.429 . S
C911 C909 1.419 . S
C911 C912 1.363 . S
C911 H914 0.929 . S
C912 C911 1.363 . S
C912 C918 1.428 . S
H913 C909 0.930 . S
H914 C911 0.929 . S
S915 N916 1.613 . S
S915 N917 1.610 . S
N916 S915 1.613 . S
N916 C919 1.350 . S
N917 S915 1.610 . S
N917 C918 1.351 . S
C918 C912 1.428 . S
C918 N917 1.351 . S
C918 C919 1.434 . S
C919 C910 1.429 . S
C919 N916 1.350 . S
C919 C918 1.434 . S
C920 C921 1.369 . S
C920 C922 1.419 . S
C920 H924 0.930 . S
C921 C920 1.369 . S
C921 C930 1.429 . S
C922 C920 1.419 . S
C922 C923 1.363 . S
C922 H925 0.929 1_455 S
C923 C922 1.363 . S
C923 C929 1.428 . S
H924 C920 0.930 . S
H925 C922 0.929 1_655 S
S926 N927 1.613 . S
S926 N928 1.614 . S
N927 S926 1.613 . S
N927 C930 1.350 . S
N928 S926 1.614 . S
N928 C929 1.376 . S
C929 C923 1.428 . S
C929 N928 1.376 . S
C929 C930 1.434 . S
C930 C921 1.429 . S
C930 N927 1.350 . S
C930 C929 1.434 . S
C931 C932 1.369 . S
C931 C933 1.419 . S
C931 H935 0.930 . S
C932 C931 1.369 . S
C932 C941 1.429 . S
C933 C931 1.419 . S
C933 C934 1.363 . S
C933 H936 0.929 . S
C934 C933 1.363 . S
C934 C940 1.428 . S
H935 C931 0.930 . S
H936 C933 0.929 . S
S937 N938 1.613 . S
S937 N939 1.610 . S
N938 S937 1.613 . S
N938 C941 1.350 . S
N939 S937 1.610 . S
N939 C940 1.351 . S
C940 C934 1.428 . S
C940 N939 1.351 . S
C940 C941 1.434 . S
C941 C932 1.429 . S
C941 N938 1.350 . S
C941 C940 1.434 . S
C942 C943 1.369 . S
C942 C944 1.419 . S
C942 H946 0.930 . S
C943 C942 1.369 . S
C943 C952 1.429 . S
C944 C942 1.419 . S
C944 C945 1.363 . S
C944 H947 0.929 . S
C945 C944 1.363 . S
C945 C951 1.428 . S
H946 C942 0.930 . S
H947 C944 0.929 . S
S948 N949 1.613 . S
S948 N950 1.610 . S
N949 S948 1.613 . S
N949 C952 1.350 . S
N950 S948 1.610 . S
N950 C951 1.351 . S
C951 C945 1.428 . S
C951 N950 1.351 . S
C951 C952 1.434 . S
C952 C943 1.429 . S
C952 N949 1.350 . S
C952 C951 1.434 . S
C953 C954 1.369 . S
C953 C955 1.419 . S
C953 H957 0.930 . S
C954 C953 1.369 . S
C954 C963 1.429 . S
C955 C953 1.419 . S
C955 C956 1.363 . S
C955 H958 0.929 . S
C956 C955 1.363 . S
C956 C962 1.428 . S
H957 C953 0.930 . S
H958 C955 0.929 . S
S959 N960 1.613 . S
S959 N961 1.610 . S
N960 S959 1.613 . S
N960 C963 1.350 . S
N961 S959 1.610 . S
N961 C962 1.351 . S
C962 C956 1.428 . S
C962 N961 1.351 . S
C962 C963 1.434 . S
C963 C954 1.429 . S
C963 N960 1.350 . S
C963 C962 1.434 . S
C964 C965 1.369 . S
C964 C966 1.419 . S
C964 H968 0.930 . S
C965 C964 1.369 . S
C965 C974 1.429 . S
C966 C964 1.419 . S
C966 C967 1.363 . S
C966 H969 0.929 . S
C967 C966 1.363 . S
C967 C973 1.428 . S
H968 C964 0.930 . S
H969 C966 0.929 . S
S970 N971 1.613 . S
S970 N972 1.610 . S
N971 S970 1.613 . S
N971 C974 1.350 . S
N972 S970 1.610 . S
N972 C973 1.351 . S
C973 C967 1.428 . S
C973 N972 1.351 . S
C973 C974 1.434 . S
C974 C965 1.429 . S
C974 N971 1.350 . S
C974 C973 1.434 . S
C975 C976 1.369 . S
C975 C977 1.419 . S
C975 H979 0.930 . S
C976 C975 1.369 . S
C976 C985 1.429 . S
C977 C975 1.419 . S
C977 C978 1.363 . S
C977 H980 0.929 . S
C978 C977 1.363 . S
C978 C984 1.428 . S
H979 C975 0.930 . S
H980 C977 0.929 . S
S981 N982 1.613 . S
S981 N983 1.610 . S
N982 S981 1.613 . S
N982 C985 1.350 . S
N983 S981 1.610 . S
N983 C984 1.351 . S
C984 C978 1.428 . S
C984 N983 1.351 . S
C984 C985 1.434 . S
C985 C976 1.429 . S
C985 N982 1.350 . S
C985 C984 1.434 . S
C986 C987 1.369 . S
C986 C988 1.419 . S
C986 H990 0.930 . S
C987 C986 1.369 . S
C987 C996 1.429 . S
C988 C986 1.419 . S
C988 C989 1.363 . S
C988 H991 0.929 1_556 S
C989 C988 1.363 . S
C989 C995 1.428 . S
H990 C986 0.930 . S
H991 C988 0.929 1_554 S
S992 N993 1.613 . S
S992 N994 1.610 . S
N993 S992 1.613 . S
N993 C996 1.350 . S
N994 S992 1.610 . S
N994 C995 1.351 . S
C995 C989 1.428 . S
C995 N994 1.351 . S
C995 C996 1.434 . S
C996 C987 1.429 . S
C996 N993 1.350 . S
C996 C995 1.434 . S
C997 C998 1.369 . S
C997 C999 1.419 . S
C997 H1001 0.930 . S
C998 C997 1.369 . S
C998 C1007 1.429 . S
C999 C997 1.419 . S
C999 C1000 1.363 . S
C999 H1002 0.929 . S
C1000 C999 1.363 . S
C1000 C1006 1.428 . S
H1001 C997 0.930 . S
H1002 C999 0.929 . S
S1003 N1004 1.613 . S
S1003 N1005 1.610 . S
N1004 S1003 1.613 . S
N1004 C1007 1.350 . S
N1005 S1003 1.610 . S
N1005 C1006 1.351 . S
C1006 C1000 1.428 . S
C1006 N1005 1.351 . S
C1006 C1007 1.434 . S
C1007 C998 1.429 . S
C1007 N1004 1.350 . S
C1007 C1006 1.434 . S
C1008 C1009 1.369 1_565 S
C1008 C1010 1.419 . S
C1008 H1012 0.930 . S
C1009 C1008 1.369 1_545 S
C1009 C1018 1.429 . S
C1010 C1008 1.419 . S
C1010 C1011 1.363 1_565 S
C1010 H1013 0.929 . S
C1011 C1010 1.363 1_545 S
C1011 C1017 1.428 . S
H1012 C1008 0.930 . S
H1013 C1010 0.929 . S
S1014 N1015 1.613 . S
S1014 N1016 1.610 . S
N1015 S1014 1.613 . S
N1015 C1018 1.350 . S
N1016 S1014 1.610 . S
N1016 C1017 1.351 . S
C1017 C1011 1.428 . S
C1017 N1016 1.351 . S
C1017 C1018 1.434 . S
C1018 C1009 1.429 . S
C1018 N1015 1.350 . S
C1018 C1017 1.434 . S
C1019 C1020 1.369 . S
C1019 C1021 1.419 . S
C1019 H1023 0.930 . S
C1020 C1019 1.369 . S
C1020 C1029 1.429 . S
C1021 C1019 1.419 . S
C1021 C1022 1.363 . S
C1021 H1024 0.929 . S
C1022 C1021 1.363 . S
C1022 C1028 1.428 . S
H1023 C1019 0.930 . S
H1024 C1021 0.929 . S
S1025 N1026 1.613 . S
S1025 N1027 1.610 . S
N1026 S1025 1.613 . S
N1026 C1029 1.350 . S
N1027 S1025 1.610 . S
N1027 C1028 1.351 . S
C1028 C1022 1.428 . S
C1028 N1027 1.351 . S
C1028 C1029 1.434 . S
C1029 C1020 1.429 . S
C1029 N1026 1.350 . S
C1029 C1028 1.434 . S
C1030 C1031 1.369 1_565 S
C1030 C1032 1.419 . S
C1030 H1034 0.930 . S
C1031 C1030 1.369 1_545 S
C1031 C1040 1.429 . S
C1032 C1030 1.419 . S
C1032 C1033 1.363 1_565 S
C1032 H1035 0.929 . S
C1033 C1032 1.363 1_545 S
C1033 C1039 1.428 . S
H1034 C1030 0.930 . S
H1035 C1032 0.929 . S
S1036 N1037 1.613 . S
S1036 N1038 1.610 . S
N1037 S1036 1.613 . S
N1037 C1040 1.350 . S
N1038 S1036 1.610 . S
N1038 C1039 1.351 . S
C1039 C1033 1.428 . S
C1039 N1038 1.351 . S
C1039 C1040 1.434 . S
C1040 C1031 1.429 . S
C1040 N1037 1.350 . S
C1040 C1039 1.434 . S
C1041 C1042 1.369 . S
C1041 C1043 1.419 . S
C1041 H1045 0.930 . S
C1042 C1041 1.369 . S
C1042 C1051 1.429 . S
C1043 C1041 1.419 . S
C1043 C1044 1.363 . S
C1043 H1046 0.929 . S
C1044 C1043 1.363 . S
C1044 C1050 1.428 . S
H1045 C1041 0.930 . S
H1046 C1043 0.929 . S
S1047 N1048 1.613 . S
S1047 N1049 1.610 . S
N1048 S1047 1.613 . S
N1048 C1051 1.350 . S
N1049 S1047 1.610 . S
N1049 C1050 1.351 . S
C1050 C1044 1.428 . S
C1050 N1049 1.351 . S
C1050 C1051 1.434 . S
C1051 C1042 1.429 . S
C1051 N1048 1.350 . S
C1051 C1050 1.434 . S
C1052 C1053 1.369 1_545 S
C1052 C1054 1.419 . S
C1052 H1056 0.930 . S
C1053 C1052 1.369 1_565 S
C1053 C1062 1.429 . S
C1054 C1052 1.419 . S
C1054 C1055 1.363 . S
C1054 H1057 0.929 . S
C1055 C1054 1.363 . S
C1055 C1061 1.420 1_545 S
H1056 C1052 0.930 . S
H1057 C1054 0.929 . S
S1058 N1059 1.613 . S
S1058 N1060 1.610 . S
N1059 S1058 1.613 . S
N1059 C1062 1.350 . S
N1060 S1058 1.610 . S
N1060 C1061 1.352 . S
C1061 C1055 1.420 1_565 S
C1061 N1060 1.352 . S
C1061 C1062 1.443 . S
C1062 C1053 1.429 . S
C1062 N1059 1.350 . S
C1062 C1061 1.443 . S
C1063 C1064 1.369 . S
C1063 C1065 1.419 . S
C1063 H1067 0.930 . S
C1064 C1063 1.369 . S
C1064 C1073 1.429 . S
C1065 C1063 1.419 . S
C1065 C1066 1.363 . S
C1065 H1068 0.929 . S
C1066 C1065 1.363 . S
C1066 C1072 1.428 . S
H1067 C1063 0.930 . S
H1068 C1065 0.929 . S
S1069 N1070 1.613 . S
S1069 N1071 1.610 . S
N1070 S1069 1.613 . S
N1070 C1073 1.350 . S
N1071 S1069 1.610 . S
N1071 C1072 1.351 . S
C1072 C1066 1.428 . S
C1072 N1071 1.351 . S
C1072 C1073 1.434 . S
C1073 C1064 1.429 . S
C1073 N1070 1.350 . S
C1073 C1072 1.434 . S
C1074 C1075 1.369 . S
C1074 C1076 1.419 . S
C1074 H1078 0.930 . S
C1075 C1074 1.369 . S
C1075 C1084 1.429 1_545 S
C1076 C1074 1.419 . S
C1076 C1077 1.363 1_545 S
C1076 H1079 0.929 . S
C1077 C1076 1.363 1_565 S
C1077 C1083 1.428 . S
H1078 C1074 0.930 . S
H1079 C1076 0.929 . S
S1080 N1081 1.613 . S
S1080 N1082 1.610 . S
N1081 S1080 1.613 . S
N1081 C1084 1.350 . S
N1082 S1080 1.610 . S
N1082 C1083 1.351 . S
C1083 C1077 1.428 . S
C1083 N1082 1.351 . S
C1083 C1084 1.434 . S
C1084 C1075 1.429 1_565 S
C1084 N1081 1.350 . S
C1084 C1083 1.434 . S
C1085 C1086 1.369 . S
C1085 C1087 1.419 . S
C1085 H1089 0.930 . S
C1086 C1085 1.369 . S
C1086 C1095 1.429 . S
C1087 C1085 1.419 . S
C1087 C1088 1.363 . S
C1087 H1090 0.929 . S
C1088 C1087 1.363 . S
C1088 C1094 1.428 . S
H1089 C1085 0.930 . S
H1090 C1087 0.929 . S
S1091 N1092 1.613 . S
S1091 N1093 1.610 . S
N1092 S1091 1.613 . S
N1092 C1095 1.350 . S
N1093 S1091 1.610 . S
N1093 C1094 1.351 . S
C1094 C1088 1.428 . S
C1094 N1093 1.351 . S
C1094 C1095 1.434 . S
C1095 C1086 1.429 . S
C1095 N1092 1.350 . S
C1095 C1094 1.434 . S
C1096 C1097 1.369 1_554 S
C1096 C1098 1.419 . S
C1096 H1100 0.930 . S
C1097 C1096 1.369 1_556 S
C1097 C1106 1.429 . S
C1098 C1096 1.419 . S
C1098 C1099 1.363 1_554 S
C1098 H1101 0.929 . S
C1099 C1098 1.363 1_556 S
C1099 C1105 1.428 . S
H1100 C1096 0.930 . S
H1101 C1098 0.929 . S
S1102 N1103 1.613 . S
S1102 N1104 1.610 . S
N1103 S1102 1.613 . S
N1103 C1106 1.350 . S
N1104 S1102 1.610 . S
N1104 C1105 1.351 . S
C1105 C1099 1.428 . S
C1105 N1104 1.351 . S
C1105 C1106 1.434 . S
C1106 C1097 1.429 . S
C1106 N1103 1.350 . S
C1106 C1105 1.434 . S
C1107 C1108 1.369 . S
C1107 C1109 1.419 . S
C1107 H1111 0.930 . S
C1108 C1107 1.369 . S
C1108 C1117 1.429 1_554 S
C1109 C1107 1.419 . S
C1109 C1110 1.363 . S
C1109 H1112 0.929 . S
C1110 C1109 1.363 . S
C1110 C1116 1.428 1_554 S
H1111 C1107 0.930 . S
H1112 C1109 0.929 . S
S1113 N1114 1.613 . S
S1113 N1115 1.610 . S
N1114 S1113 1.613 . S
N1114 C1117 1.350 . S
N1115 S1113 1.610 . S
N1115 C1116 1.351 . S
C1116 C1110 1.428 1_556 S
C1116 N1115 1.351 . S
C1116 C1117 1.434 . S
C1117 C1108 1.429 1_556 S
C1117 N1114 1.350 . S
C1117 C1116 1.434 . S
C1118 C1119 1.369 . S
C1118 C1120 1.419 . S
C1118 H1122 0.930 . S
C1119 C1118 1.369 . S
C1119 C1128 1.429 . S
C1120 C1118 1.419 . S
C1120 C1121 1.363 . S
C1120 H1123 0.929 . S
C1121 C1120 1.363 . S
C1121 C1127 1.428 . S
H1122 C1118 0.930 . S
H1123 C1120 0.929 . S
S1124 N1125 1.613 . S
S1124 N1126 1.610 . S
N1125 S1124 1.613 . S
N1125 C1128 1.350 . S
N1126 S1124 1.610 . S
N1126 C1127 1.351 . S
C1127 C1121 1.428 . S
C1127 N1126 1.351 . S
C1127 C1128 1.434 . S
C1128 C1119 1.429 . S
C1128 N1125 1.350 . S
C1128 C1127 1.434 . S
C1129 C1130 1.369 . S
C1129 C1131 1.419 . S
C1129 H1133 0.930 . S
C1130 C1129 1.369 . S
C1130 C1139 1.429 . S
C1131 C1129 1.419 . S
C1131 C1132 1.363 . S
C1131 H1134 0.929 . S
C1132 C1131 1.363 . S
C1132 C1138 1.428 . S
H1133 C1129 0.930 . S
H1134 C1131 0.929 . S
S1135 N1136 1.613 . S
S1135 N1137 1.610 . S
N1136 S1135 1.613 . S
N1136 C1139 1.350 . S
N1137 S1135 1.610 . S
N1137 C1138 1.351 . S
C1138 C1132 1.428 . S
C1138 N1137 1.351 . S
C1138 C1139 1.434 . S
C1139 C1130 1.429 . S
C1139 N1136 1.350 . S
C1139 C1138 1.434 . S
C1140 C1141 1.369 . S
C1140 C1142 1.419 . S
C1140 H1144 0.930 . S
C1141 C1140 1.369 . S
C1141 C1150 1.429 . S
C1142 C1140 1.419 . S
C1142 C1143 1.363 . S
C1142 H1145 0.929 . S
C1143 C1142 1.363 . S
C1143 C1149 1.428 . S
H1144 C1140 0.930 . S
H1145 C1142 0.929 . S
S1146 N1147 1.613 . S
S1146 N1148 1.610 . S
N1147 S1146 1.613 . S
N1147 C1150 1.350 . S
N1148 S1146 1.610 . S
N1148 C1149 1.351 . S
C1149 C1143 1.428 . S
C1149 N1148 1.351 . S
C1149 C1150 1.434 . S
C1150 C1141 1.429 . S
C1150 N1147 1.350 . S
C1150 C1149 1.434 . S
C1151 C1152 1.369 . S
C1151 C1153 1.419 . S
C1151 H1155 0.930 . S
C1152 C1151 1.369 . S
C1152 C1161 1.429 . S
C1153 C1151 1.419 . S
C1153 C1154 1.363 . S
C1153 H1156 0.929 . S
C1154 C1153 1.363 . S
C1154 C1160 1.428 . S
H1155 C1151 0.930 . S
H1156 C1153 0.929 . S
S1157 N1158 1.613 . S
S1157 N1159 1.610 . S
N1158 S1157 1.613 . S
N1158 C1161 1.350 . S
N1159 S1157 1.610 . S
N1159 C1160 1.351 . S
C1160 C1154 1.428 . S
C1160 N1159 1.351 . S
C1160 C1161 1.434 . S
C1161 C1152 1.429 . S
C1161 N1158 1.350 . S
C1161 C1160 1.434 . S
C1162 C1163 1.369 . S
C1162 C1164 1.419 . S
C1162 H1166 0.930 . S
C1163 C1162 1.369 . S
C1163 C1172 1.429 . S
C1164 C1162 1.419 . S
C1164 C1165 1.363 . S
C1164 H1167 0.929 . S
C1165 C1164 1.363 . S
C1165 C1171 1.428 . S
H1166 C1162 0.930 . S
H1167 C1164 0.929 . S
S1168 N1169 1.613 . S
S1168 N1170 1.610 . S
N1169 S1168 1.613 . S
N1169 C1172 1.350 . S
N1170 S1168 1.610 . S
N1170 C1171 1.351 . S
C1171 C1165 1.428 . S
C1171 N1170 1.351 . S
C1171 C1172 1.434 . S
C1172 C1163 1.429 . S
C1172 N1169 1.350 . S
C1172 C1171 1.434 . S
C1173 C1174 1.369 . S
C1173 C1175 1.419 . S
C1173 H1177 0.930 . S
C1174 C1173 1.369 . S
C1174 C1183 1.429 . S
C1175 C1173 1.419 . S
C1175 C1176 1.363 . S
C1175 H1178 0.929 . S
C1176 C1175 1.363 . S
C1176 C1182 1.428 . S
H1177 C1173 0.930 . S
H1178 C1175 0.929 . S
S1179 N1180 1.613 . S
S1179 N1181 1.610 . S
N1180 S1179 1.613 . S
N1180 C1183 1.350 . S
N1181 S1179 1.610 . S
N1181 C1182 1.351 . S
C1182 C1176 1.428 . S
C1182 N1181 1.351 . S
C1182 C1183 1.434 . S
C1183 C1174 1.429 . S
C1183 N1180 1.350 . S
C1183 C1182 1.434 . S
C1184 C1185 1.369 . S
C1184 C1186 1.419 . S
C1184 H1188 0.930 . S
C1185 C1184 1.369 . S
C1185 C1194 1.429 . S
C1186 C1184 1.419 . S
C1186 C1187 1.363 . S
C1186 H1189 0.929 . S
C1187 C1186 1.363 . S
C1187 C1193 1.428 . S
H1188 C1184 0.930 . S
H1189 C1186 0.929 . S
S1190 N1191 1.613 . S
S1190 N1192 1.610 . S
N1191 S1190 1.613 . S
N1191 C1194 1.350 . S
N1192 S1190 1.610 . S
N1192 C1193 1.351 . S
C1193 C1187 1.428 . S
C1193 N1192 1.351 . S
C1193 C1194 1.434 . S
C1194 C1185 1.429 . S
C1194 N1191 1.350 . S
C1194 C1193 1.434 . S
C1195 C1196 1.369 . S
C1195 C1197 1.419 . S
C1195 H1199 0.930 . S
C1196 C1195 1.369 . S
C1196 C1205 1.429 . S
C1197 C1195 1.419 . S
C1197 C1198 1.363 . S
C1197 H1200 0.929 . S
C1198 C1197 1.363 . S
C1198 C1204 1.428 . S
H1199 C1195 0.930 . S
H1200 C1197 0.929 . S
S1201 N1202 1.613 . S
S1201 N1203 1.610 . S
N1202 S1201 1.613 . S
N1202 C1205 1.350 . S
N1203 S1201 1.610 . S
N1203 C1204 1.351 . S
C1204 C1198 1.428 . S
C1204 N1203 1.351 . S
C1204 C1205 1.434 . S
C1205 C1196 1.429 . S
C1205 N1202 1.350 . S
C1205 C1204 1.434 . S
C1206 C1207 1.369 . S
C1206 C1208 1.419 . S
C1206 H1210 0.930 . S
C1207 C1206 1.369 . S
C1207 C1216 1.429 1_455 S
C1208 C1206 1.419 . S
C1208 C1209 1.363 . S
C1208 H1211 0.929 1_556 S
C1209 C1208 1.363 . S
C1209 C1215 1.428 1_455 S
H1210 C1206 0.930 . S
H1211 C1208 0.929 1_554 S
S1212 N1213 1.613 . S
S1212 N1214 1.610 . S
N1213 S1212 1.613 . S
N1213 C1216 1.350 . S
N1214 S1212 1.610 . S
N1214 C1215 1.351 . S
C1215 C1209 1.428 1_655 S
C1215 N1214 1.351 . S
C1215 C1216 1.434 . S
C1216 C1207 1.429 1_655 S
C1216 N1213 1.350 . S
C1216 C1215 1.434 . S
C1217 C1218 1.369 . S
C1217 C1219 1.419 . S
C1217 H1221 0.930 . S
C1218 C1217 1.369 . S
C1218 C1227 1.429 . S
C1219 C1217 1.419 . S
C1219 C1220 1.363 . S
C1219 H1222 0.929 . S
C1220 C1219 1.363 . S
C1220 C1226 1.428 . S
H1221 C1217 0.930 . S
H1222 C1219 0.929 . S
S1223 N1224 1.613 . S
S1223 N1225 1.610 . S
N1224 S1223 1.613 . S
N1224 C1227 1.350 . S
N1225 S1223 1.610 . S
N1225 C1226 1.351 . S
C1226 C1220 1.428 . S
C1226 N1225 1.351 . S
C1226 C1227 1.434 . S
C1227 C1218 1.429 . S
C1227 N1224 1.350 . S
C1227 C1226 1.434 . S
C1228 C1229 1.369 . S
C1228 C1230 1.419 . S
C1228 H1232 0.930 . S
C1229 C1228 1.369 . S
C1229 C1238 1.429 . S
C1230 C1228 1.419 . S
C1230 C1231 1.363 . S
C1230 H1233 0.929 . S
C1231 C1230 1.363 . S
C1231 C1237 1.428 . S
H1232 C1228 0.930 . S
H1233 C1230 0.929 . S
S1234 N1235 1.613 1_556 S
S1234 N1236 1.610 . S
N1235 S1234 1.613 1_554 S
N1235 C1238 1.350 . S
N1236 S1234 1.610 . S
N1236 C1237 1.351 1_556 S
C1237 C1231 1.428 . S
C1237 N1236 1.351 1_554 S
C1237 C1238 1.434 . S
C1238 C1229 1.429 . S
C1238 N1235 1.350 . S
C1238 C1237 1.434 . S
C1239 C1240 1.369 . S
C1239 C1241 1.419 . S
C1239 H1243 0.930 . S
C1240 C1239 1.369 . S
C1240 C1249 1.429 . S
C1241 C1239 1.419 . S
C1241 C1242 1.363 . S
C1241 H1244 0.929 . S
C1242 C1241 1.363 . S
C1242 C1248 1.428 . S
H1243 C1239 0.930 . S
H1244 C1241 0.929 . S
S1245 N1246 1.613 . S
S1245 N1247 1.610 . S
N1246 S1245 1.613 . S
N1246 C1249 1.350 . S
N1247 S1245 1.610 . S
N1247 C1248 1.351 . S
C1248 C1242 1.428 . S
C1248 N1247 1.351 . S
C1248 C1249 1.434 . S
C1249 C1240 1.429 . S
C1249 N1246 1.350 . S
C1249 C1248 1.434 . S
C1250 C1251 1.377 . S
C1250 C1252 1.419 . S
C1250 H1254 0.930 . S
C1251 C1250 1.377 . S
C1251 C1260 1.412 1_655 S
C1252 C1250 1.419 . S
C1252 C1253 1.363 1_655 S
C1252 H1255 0.929 . S
C1253 C1252 1.363 1_455 S
C1253 C1259 1.428 . S
H1254 C1250 0.930 . S
H1255 C1252 0.929 . S
S1256 N1257 1.613 . S
S1256 N1258 1.610 . S
N1257 S1256 1.613 . S
N1257 C1260 1.350 . S
N1258 S1256 1.610 . S
N1258 C1259 1.351 . S
C1259 C1253 1.428 . S
C1259 N1258 1.351 . S
C1259 C1260 1.434 . S
C1260 C1251 1.412 1_455 S
C1260 N1257 1.350 . S
C1260 C1259 1.434 . S
C1261 C1262 1.369 . S
C1261 C1263 1.419 . S
C1261 H1265 0.930 . S
C1262 C1261 1.369 . S
C1262 C1271 1.429 . S
C1263 C1261 1.419 . S
C1263 C1264 1.363 . S
C1263 H1266 0.929 . S
C1264 C1263 1.363 . S
C1264 C1270 1.428 . S
H1265 C1261 0.930 . S
H1266 C1263 0.929 . S
S1267 N1268 1.613 . S
S1267 N1269 1.610 . S
N1268 S1267 1.613 . S
N1268 C1271 1.350 . S
N1269 S1267 1.610 . S
N1269 C1270 1.351 . S
C1270 C1264 1.428 . S
C1270 N1269 1.351 . S
C1270 C1271 1.434 . S
C1271 C1262 1.429 . S
C1271 N1268 1.350 . S
C1271 C1270 1.434 . S
C1272 C1273 1.369 . S
C1272 C1274 1.419 . S
C1272 H1276 0.930 . S
C1273 C1272 1.369 . S
C1273 C1282 1.429 . S
C1274 C1272 1.419 . S
C1274 C1275 1.363 . S
C1274 H1277 0.929 . S
C1275 C1274 1.363 . S
C1275 C1281 1.428 . S
H1276 C1272 0.930 . S
H1277 C1274 0.929 . S
S1278 N1279 1.613 . S
S1278 N1280 1.610 . S
N1279 S1278 1.613 . S
N1279 C1282 1.350 . S
N1280 S1278 1.610 . S
N1280 C1281 1.351 . S
C1281 C1275 1.428 . S
C1281 N1280 1.351 . S
C1281 C1282 1.434 . S
C1282 C1273 1.429 . S
C1282 N1279 1.350 . S
C1282 C1281 1.434 . S
C1283 C1284 1.369 . S
C1283 C1285 1.419 . S
C1283 H1287 0.930 . S
C1284 C1283 1.369 . S
C1284 C1293 1.429 . S
C1285 C1283 1.419 . S
C1285 C1286 1.363 . S
C1285 H1288 0.929 . S
C1286 C1285 1.363 . S
C1286 C1292 1.428 . S
H1287 C1283 0.930 . S
H1288 C1285 0.929 . S
S1289 N1290 1.613 . S
S1289 N1291 1.610 . S
N1290 S1289 1.613 . S
N1290 C1293 1.350 . S
N1291 S1289 1.610 . S
N1291 C1292 1.351 . S
C1292 C1286 1.428 . S
C1292 N1291 1.351 . S
C1292 C1293 1.434 . S
C1293 C1284 1.429 . S
C1293 N1290 1.350 . S
C1293 C1292 1.434 . S
C1294 C1295 1.369 . S
C1294 C1296 1.419 . S
C1294 H1298 0.930 . S
C1295 C1294 1.369 . S
C1295 C1304 1.429 . S
C1296 C1294 1.419 . S
C1296 C1297 1.363 . S
C1296 H1299 0.929 . S
C1297 C1296 1.363 . S
C1297 C1303 1.428 . S
H1298 C1294 0.930 . S
H1299 C1296 0.929 . S
S1300 N1301 1.613 . S
S1300 N1302 1.610 . S
N1301 S1300 1.613 . S
N1301 C1304 1.350 . S
N1302 S1300 1.610 . S
N1302 C1303 1.351 . S
C1303 C1297 1.428 . S
C1303 N1302 1.351 . S
C1303 C1304 1.434 . S
C1304 C1295 1.429 . S
C1304 N1301 1.350 . S
C1304 C1303 1.434 . S
C1305 C1306 1.369 . S
C1305 C1307 1.419 . S
C1305 H1309 0.930 . S
C1306 C1305 1.369 . S
C1306 C1315 1.429 . S
C1307 C1305 1.419 . S
C1307 C1308 1.363 . S
C1307 H1310 0.929 . S
C1308 C1307 1.363 . S
C1308 C1314 1.428 . S
H1309 C1305 0.930 . S
H1310 C1307 0.929 . S
S1311 N1312 1.613 . S
S1311 N1313 1.610 . S
N1312 S1311 1.613 . S
N1312 C1315 1.350 . S
N1313 S1311 1.610 . S
N1313 C1314 1.351 . S
C1314 C1308 1.428 . S
C1314 N1313 1.351 . S
C1314 C1315 1.434 . S
C1315 C1306 1.429 . S
C1315 N1312 1.350 . S
C1315 C1314 1.434 . S
C1316 C1317 1.369 . S
C1316 C1318 1.419 . S
C1316 H1320 0.930 . S
C1317 C1316 1.369 . S
C1317 C1326 1.429 . S
C1318 C1316 1.419 . S
C1318 C1319 1.363 . S
C1318 H1321 0.929 . S
C1319 C1318 1.363 . S
C1319 C1325 1.428 . S
H1320 C1316 0.930 . S
H1321 C1318 0.929 . S
S1322 N1323 1.613 . S
S1322 N1324 1.610 . S
N1323 S1322 1.613 . S
N1323 C1326 1.350 . S
N1324 S1322 1.610 . S
N1324 C1325 1.351 . S
C1325 C1319 1.428 . S
C1325 N1324 1.351 . S
C1325 C1326 1.434 . S
C1326 C1317 1.429 . S
C1326 N1323 1.350 . S
C1326 C1325 1.434 . S
C1327 C1328 1.369 . S
C1327 C1329 1.419 . S
C1327 H1331 0.930 . S
C1328 C1327 1.369 . S
C1328 C1337 1.429 . S
C1329 C1327 1.419 . S
C1329 C1330 1.363 . S
C1329 H1332 0.929 . S
C1330 C1329 1.363 . S
C1330 C1336 1.428 . S
H1331 C1327 0.930 . S
H1332 C1329 0.929 . S
S1333 N1334 1.613 . S
S1333 N1335 1.610 . S
N1334 S1333 1.613 . S
N1334 C1337 1.350 . S
N1335 S1333 1.610 . S
N1335 C1336 1.351 . S
C1336 C1330 1.428 . S
C1336 N1335 1.351 . S
C1336 C1337 1.434 . S
C1337 C1328 1.429 . S
C1337 N1334 1.350 . S
C1337 C1336 1.434 . S
C1338 C1339 1.369 . S
C1338 C1340 1.419 . S
C1338 H1342 0.930 . S
C1339 C1338 1.369 . S
C1339 C1348 1.429 . S
C1340 C1338 1.419 . S
C1340 C1341 1.363 . S
C1340 H1343 0.929 . S
C1341 C1340 1.363 . S
C1341 C1347 1.428 . S
H1342 C1338 0.930 . S
H1343 C1340 0.929 . S
S1344 N1345 1.613 . S
S1344 N1346 1.610 . S
N1345 S1344 1.613 . S
N1345 C1348 1.350 . S
N1346 S1344 1.610 . S
N1346 C1347 1.351 . S
C1347 C1341 1.428 . S
C1347 N1346 1.351 . S
C1347 C1348 1.434 . S
C1348 C1339 1.429 . S
C1348 N1345 1.350 . S
C1348 C1347 1.434 . S
C1349 C1350 1.369 . S
C1349 C1351 1.419 . S
C1349 H1353 0.930 . S
C1350 C1349 1.369 . S
C1350 C1359 1.429 . S
C1351 C1349 1.419 . S
C1351 C1352 1.363 . S
C1351 H1354 0.929 . S
C1352 C1351 1.363 . S
C1352 C1358 1.428 . S
H1353 C1349 0.930 . S
H1354 C1351 0.929 . S
S1355 N1356 1.613 . S
S1355 N1357 1.610 . S
N1356 S1355 1.613 . S
N1356 C1359 1.350 . S
N1357 S1355 1.610 . S
N1357 C1358 1.351 . S
C1358 C1352 1.428 . S
C1358 N1357 1.351 . S
C1358 C1359 1.434 . S
C1359 C1350 1.429 . S
C1359 N1356 1.350 . S
C1359 C1358 1.434 . S
C1360 C1361 1.369 . S
C1360 C1362 1.419 . S
C1360 H1364 0.930 . S
C1361 C1360 1.369 . S
C1361 C1370 1.429 . S
C1362 C1360 1.419 . S
C1362 C1363 1.363 . S
C1362 H1365 0.929 . S
C1363 C1362 1.363 . S
C1363 C1369 1.428 . S
H1364 C1360 0.930 . S
H1365 C1362 0.929 . S
S1366 N1367 1.613 . S
S1366 N1368 1.610 . S
N1367 S1366 1.613 . S
N1367 C1370 1.350 . S
N1368 S1366 1.610 . S
N1368 C1369 1.351 . S
C1369 C1363 1.428 . S
C1369 N1368 1.351 . S
C1369 C1370 1.434 . S
C1370 C1361 1.429 . S
C1370 N1367 1.350 . S
C1370 C1369 1.434 . S
C1371 C1372 1.369 . S
C1371 C1373 1.419 . S
C1371 H1375 0.930 . S
C1372 C1371 1.369 . S
C1372 C1381 1.429 . S
C1373 C1371 1.419 . S
C1373 C1374 1.363 . S
C1373 H1376 0.929 . S
C1374 C1373 1.363 . S
C1374 C1380 1.428 . S
H1375 C1371 0.930 . S
H1376 C1373 0.929 . S
S1377 N1378 1.613 . S
S1377 N1379 1.610 . S
N1378 S1377 1.613 . S
N1378 C1381 1.350 . S
N1379 S1377 1.610 . S
N1379 C1380 1.351 . S
C1380 C1374 1.428 . S
C1380 N1379 1.351 . S
C1380 C1381 1.434 . S
C1381 C1372 1.429 . S
C1381 N1378 1.350 . S
C1381 C1380 1.434 . S
C1382 C1383 1.369 . S
C1382 C1384 1.419 . S
C1382 H1386 0.930 . S
C1383 C1382 1.369 . S
C1383 C1392 1.429 . S
C1384 C1382 1.419 . S
C1384 C1385 1.363 . S
C1384 H1387 0.929 . S
C1385 C1384 1.363 . S
C1385 C1391 1.428 . S
H1386 C1382 0.930 . S
H1387 C1384 0.929 . S
S1388 N1389 1.613 . S
S1388 N1390 1.610 . S
N1389 S1388 1.613 . S
N1389 C1392 1.350 . S
N1390 S1388 1.610 . S
N1390 C1391 1.351 . S
C1391 C1385 1.428 . S
C1391 N1390 1.351 . S
C1391 C1392 1.434 . S
C1392 C1383 1.429 . S
C1392 N1389 1.350 . S
C1392 C1391 1.434 . S
C1393 C1394 1.369 . S
C1393 C1395 1.432 . S
C1393 H1397 0.930 . S
C1394 C1393 1.369 . S
C1394 C1403 1.429 1_554 S
C1395 C1393 1.432 . S
C1395 C1396 1.373 . S
C1395 H1398 0.905 1_565 S
C1396 C1395 1.373 . S
C1396 C1402 1.428 1_554 S
H1397 C1393 0.930 . S
H1398 C1395 0.905 1_545 S
S1399 N1400 1.613 . S
S1399 N1401 1.610 . S
N1400 S1399 1.613 . S
N1400 C1403 1.350 . S
N1401 S1399 1.610 . S
N1401 C1402 1.351 . S
C1402 C1396 1.428 1_556 S
C1402 N1401 1.351 . S
C1402 C1403 1.434 . S
C1403 C1394 1.429 1_556 S
C1403 N1400 1.350 . S
C1403 C1402 1.434 . S
C1404 C1405 1.369 . S
C1404 C1406 1.419 . S
C1404 H1408 0.930 . S
C1405 C1404 1.369 . S
C1405 C1414 1.429 . S
C1406 C1404 1.419 . S
C1406 C1407 1.363 . S
C1406 H1409 0.929 . S
C1407 C1406 1.363 . S
C1407 C1413 1.428 . S
H1408 C1404 0.930 . S
H1409 C1406 0.929 . S
S1410 N1411 1.613 . S
S1410 N1412 1.610 . S
N1411 S1410 1.613 . S
N1411 C1414 1.350 . S
N1412 S1410 1.610 . S
N1412 C1413 1.351 . S
C1413 C1407 1.428 . S
C1413 N1412 1.351 . S
C1413 C1414 1.434 . S
C1414 C1405 1.429 . S
C1414 N1411 1.350 . S
C1414 C1413 1.434 . S
C1415 C1416 1.369 . S
C1415 C1417 1.419 . S
C1415 H1419 0.930 . S
C1416 C1415 1.369 . S
C1416 C1425 1.429 1_554 S
C1417 C1415 1.419 . S
C1417 C1418 1.363 . S
C1417 H1420 0.929 . S
C1418 C1417 1.363 . S
C1418 C1424 1.428 . S
H1419 C1415 0.930 . S
H1420 C1417 0.929 . S
S1421 N1422 1.613 . S
S1421 N1423 1.610 . S
N1422 S1421 1.613 . S
N1422 C1425 1.350 . S
N1423 S1421 1.610 . S
N1423 C1424 1.351 1_556 S
C1424 C1418 1.428 . S
C1424 N1423 1.351 1_554 S
C1424 C1425 1.434 1_554 S
C1425 C1416 1.429 1_556 S
C1425 N1422 1.350 . S
C1425 C1424 1.434 1_556 S
C1426 C1427 1.369 . S
C1426 C1428 1.419 . S
C1426 H1430 0.930 . S
C1427 C1426 1.369 . S
C1427 C1436 1.429 . S
C1428 C1426 1.419 . S
C1428 C1429 1.363 . S
C1428 H1431 0.929 . S
C1429 C1428 1.363 . S
C1429 C1435 1.428 . S
H1430 C1426 0.930 . S
H1431 C1428 0.929 . S
S1432 N1433 1.613 . S
S1432 N1434 1.610 . S
N1433 S1432 1.613 . S
N1433 C1436 1.350 . S
N1434 S1432 1.610 . S
N1434 C1435 1.351 . S
C1435 C1429 1.428 . S
C1435 N1434 1.351 . S
C1435 C1436 1.434 . S
C1436 C1427 1.429 . S
C1436 N1433 1.350 . S
C1436 C1435 1.434 . S
C1437 C1438 1.369 . S
C1437 C1439 1.419 . S
C1437 H1441 0.930 . S
C1438 C1437 1.369 . S
C1438 C1447 1.429 . S
C1439 C1437 1.419 . S
C1439 C1440 1.363 . S
C1439 H1442 0.929 . S
C1440 C1439 1.363 . S
C1440 C1446 1.428 . S
H1441 C1437 0.930 . S
H1442 C1439 0.929 . S
S1443 N1444 1.613 . S
S1443 N1445 1.610 . S
N1444 S1443 1.613 . S
N1444 C1447 1.350 . S
N1445 S1443 1.610 . S
N1445 C1446 1.351 . S
C1446 C1440 1.428 . S
C1446 N1445 1.351 . S
C1446 C1447 1.434 . S
C1447 C1438 1.429 . S
C1447 N1444 1.350 . S
C1447 C1446 1.434 . S
C1448 C1449 1.369 . S
C1448 C1450 1.419 . S
C1448 H1452 0.930 . S
C1449 C1448 1.369 . S
C1449 C1458 1.429 . S
C1450 C1448 1.419 . S
C1450 C1451 1.363 . S
C1450 H1453 0.929 . S
C1451 C1450 1.363 . S
C1451 C1457 1.428 . S
H1452 C1448 0.930 . S
H1453 C1450 0.929 . S
S1454 N1455 1.613 . S
S1454 N1456 1.610 . S
N1455 S1454 1.613 . S
N1455 C1458 1.350 . S
N1456 S1454 1.610 . S
N1456 C1457 1.351 . S
C1457 C1451 1.428 . S
C1457 N1456 1.351 . S
C1457 C1458 1.434 . S
C1458 C1449 1.429 . S
C1458 N1455 1.350 . S
C1458 C1457 1.434 . S
C1459 C1460 1.369 . S
C1459 C1461 1.419 . S
C1459 H1463 0.930 . S
C1460 C1459 1.369 . S
C1460 C1469 1.429 . S
C1461 C1459 1.419 . S
C1461 C1462 1.363 . S
C1461 H1464 0.929 . S
C1462 C1461 1.363 . S
C1462 C1468 1.428 . S
H1463 C1459 0.930 . S
H1464 C1461 0.929 . S
S1465 N1466 1.613 . S
S1465 N1467 1.610 . S
N1466 S1465 1.613 . S
N1466 C1469 1.350 . S
N1467 S1465 1.610 . S
N1467 C1468 1.351 . S
C1468 C1462 1.428 . S
C1468 N1467 1.351 . S
C1468 C1469 1.434 . S
C1469 C1460 1.429 . S
C1469 N1466 1.350 . S
C1469 C1468 1.434 . S
C1470 C1471 1.369 1_655 S
C1470 C1472 1.419 . S
C1470 H1474 0.930 . S
C1471 C1470 1.369 1_455 S
C1471 C1480 1.429 . S
C1472 C1470 1.419 . S
C1472 C1473 1.363 1_655 S
C1472 H1475 0.929 . S
C1473 C1472 1.363 1_455 S
C1473 C1479 1.428 . S
H1474 C1470 0.930 . S
H1475 C1472 0.929 . S
S1476 N1477 1.613 . S
S1476 N1478 1.610 . S
N1477 S1476 1.613 . S
N1477 C1480 1.350 . S
N1478 S1476 1.610 . S
N1478 C1479 1.351 . S
C1479 C1473 1.428 . S
C1479 N1478 1.351 . S
C1479 C1480 1.434 . S
C1480 C1471 1.429 . S
C1480 N1477 1.350 . S
C1480 C1479 1.434 . S
C1481 C1482 1.369 . S
C1481 C1483 1.419 . S
C1481 H1485 0.930 . S
C1482 C1481 1.369 . S
C1482 C1491 1.429 . S
C1483 C1481 1.419 . S
C1483 C1484 1.363 . S
C1483 H1486 0.929 . S
C1484 C1483 1.363 . S
C1484 C1490 1.428 . S
H1485 C1481 0.930 . S
H1486 C1483 0.929 . S
S1487 N1488 1.613 . S
S1487 N1489 1.610 . S
N1488 S1487 1.613 . S
N1488 C1491 1.350 . S
N1489 S1487 1.610 . S
N1489 C1490 1.351 . S
C1490 C1484 1.428 . S
C1490 N1489 1.351 . S
C1490 C1491 1.434 . S
C1491 C1482 1.429 . S
C1491 N1488 1.350 . S
C1491 C1490 1.434 . S
C1492 C1493 1.369 . S
C1492 C1494 1.419 . S
C1492 H1496 0.930 . S
C1493 C1492 1.369 . S
C1493 C1502 1.429 . S
C1494 C1492 1.419 . S
C1494 C1495 1.363 . S
C1494 H1497 0.929 . S
C1495 C1494 1.363 . S
C1495 C1501 1.428 . S
H1496 C1492 0.930 . S
H1497 C1494 0.929 . S
S1498 N1499 1.613 . S
S1498 N1500 1.610 . S
N1499 S1498 1.613 . S
N1499 C1502 1.350 . S
N1500 S1498 1.610 . S
N1500 C1501 1.351 . S
C1501 C1495 1.428 . S
C1501 N1500 1.351 . S
C1501 C1502 1.434 . S
C1502 C1493 1.429 . S
C1502 N1499 1.350 . S
C1502 C1501 1.434 . S
C1503 C1504 1.369 . S
C1503 C1505 1.419 . S
C1503 H1507 0.930 . S
C1504 C1503 1.369 . S
C1504 C1513 1.429 . S
C1505 C1503 1.419 . S
C1505 C1506 1.363 . S
C1505 H1508 0.929 . S
C1506 C1505 1.363 . S
C1506 C1512 1.428 . S
H1507 C1503 0.930 . S
H1508 C1505 0.929 . S
S1509 N1510 1.613 . S
S1509 N1511 1.610 . S
N1510 S1509 1.613 . S
N1510 C1513 1.350 . S
N1511 S1509 1.610 . S
N1511 C1512 1.351 . S
C1512 C1506 1.428 . S
C1512 N1511 1.351 . S
C1512 C1513 1.434 . S
C1513 C1504 1.429 . S
C1513 N1510 1.350 . S
C1513 C1512 1.434 . S
C1514 C1515 1.369 . S
C1514 C1516 1.419 . S
C1514 H1518 0.930 . S
C1515 C1514 1.369 . S
C1515 C1524 1.429 . S
C1516 C1514 1.419 . S
C1516 C1517 1.363 . S
C1516 H1519 0.929 . S
C1517 C1516 1.363 . S
C1517 C1523 1.428 . S
H1518 C1514 0.930 . S
H1519 C1516 0.929 . S
S1520 N1521 1.613 1_655 S
S1520 N1522 1.610 1_655 S
N1521 S1520 1.613 1_455 S
N1521 C1524 1.350 . S
N1522 S1520 1.610 1_455 S
N1522 C1523 1.351 . S
C1523 C1517 1.428 . S
C1523 N1522 1.351 . S
C1523 C1524 1.434 . S
C1524 C1515 1.429 . S
C1524 N1521 1.350 . S
C1524 C1523 1.434 . S
C1525 C1526 1.369 . S
C1525 C1527 1.419 . S
C1525 H1529 0.930 . S
C1526 C1525 1.369 . S
C1526 C1535 1.429 . S
C1527 C1525 1.419 . S
C1527 C1528 1.363 . S
C1527 H1530 0.929 . S
C1528 C1527 1.363 . S
C1528 C1534 1.428 . S
H1529 C1525 0.930 . S
H1530 C1527 0.929 . S
S1531 N1532 1.613 . S
S1531 N1533 1.610 . S
N1532 S1531 1.613 . S
N1532 C1535 1.350 . S
N1533 S1531 1.610 . S
N1533 C1534 1.351 . S
C1534 C1528 1.428 . S
C1534 N1533 1.351 . S
C1534 C1535 1.434 . S
C1535 C1526 1.429 . S
C1535 N1532 1.350 . S
C1535 C1534 1.434 . S
C1536 C1537 1.369 . S
C1536 C1538 1.419 . S
C1536 H1540 0.930 . S
C1537 C1536 1.369 . S
C1537 C1546 1.429 . S
C1538 C1536 1.419 . S
C1538 C1539 1.363 . S
C1538 H1541 0.929 . S
C1539 C1538 1.363 . S
C1539 C1545 1.428 . S
H1540 C1536 0.930 . S
H1541 C1538 0.929 . S
S1542 N1543 1.613 . S
S1542 N1544 1.610 . S
N1543 S1542 1.613 . S
N1543 C1546 1.350 . S
N1544 S1542 1.610 . S
N1544 C1545 1.351 . S
C1545 C1539 1.428 . S
C1545 N1544 1.351 . S
C1545 C1546 1.434 . S
C1546 C1537 1.429 . S
C1546 N1543 1.350 . S
C1546 C1545 1.434 . S
C1547 C1548 1.369 . S
C1547 C1549 1.419 . S
C1547 H1551 0.930 . S
C1548 C1547 1.369 . S
C1548 C1557 1.429 . S
C1549 C1547 1.419 . S
C1549 C1550 1.363 . S
C1549 H1552 0.929 . S
C1550 C1549 1.363 . S
C1550 C1556 1.428 . S
H1551 C1547 0.930 . S
H1552 C1549 0.929 . S
S1553 N1554 1.613 . S
S1553 N1555 1.610 . S
N1554 S1553 1.613 . S
N1554 C1557 1.350 . S
N1555 S1553 1.610 . S
N1555 C1556 1.351 . S
C1556 C1550 1.428 . S
C1556 N1555 1.351 . S
C1556 C1557 1.434 . S
C1557 C1548 1.429 . S
C1557 N1554 1.350 . S
C1557 C1556 1.434 . S
C1558 C1559 1.369 . S
C1558 C1560 1.419 . S
C1558 H1562 0.930 . S
C1559 C1558 1.369 . S
C1559 C1568 1.429 . S
C1560 C1558 1.419 . S
C1560 C1561 1.363 . S
C1560 H1563 0.929 . S
C1561 C1560 1.363 . S
C1561 C1567 1.428 . S
H1562 C1558 0.930 . S
H1563 C1560 0.929 . S
S1564 N1565 1.613 . S
S1564 N1566 1.610 . S
N1565 S1564 1.613 . S
N1565 C1568 1.350 . S
N1566 S1564 1.610 . S
N1566 C1567 1.351 . S
C1567 C1561 1.428 . S
C1567 N1566 1.351 . S
C1567 C1568 1.434 . S
C1568 C1559 1.429 . S
C1568 N1565 1.350 . S
C1568 C1567 1.434 . S
C1569 C1570 1.369 . S
C1569 C1571 1.419 . S
C1569 H1573 0.930 . S
C1570 C1569 1.369 . S
C1570 C1579 1.429 . S
C1571 C1569 1.419 . S
C1571 C1572 1.363 . S
C1571 H1574 0.929 . S
C1572 C1571 1.363 . S
C1572 C1578 1.428 . S
H1573 C1569 0.930 . S
H1574 C1571 0.929 . S
S1575 N1576 1.613 . S
S1575 N1577 1.610 . S
N1576 S1575 1.613 . S
N1576 C1579 1.350 . S
N1577 S1575 1.610 . S
N1577 C1578 1.351 . S
C1578 C1572 1.428 . S
C1578 N1577 1.351 . S
C1578 C1579 1.434 . S
C1579 C1570 1.429 . S
C1579 N1576 1.350 . S
C1579 C1578 1.434 . S
C1580 C1581 1.369 . S
C1580 C1582 1.419 . S
C1580 H1584 0.930 . S
C1581 C1580 1.369 . S
C1581 C1590 1.429 . S
C1582 C1580 1.419 . S
C1582 C1583 1.363 . S
C1582 H1585 0.929 . S
C1583 C1582 1.363 . S
C1583 C1589 1.428 . S
H1584 C1580 0.930 . S
H1585 C1582 0.929 . S
S1586 N1587 1.613 . S
S1586 N1588 1.610 . S
N1587 S1586 1.613 . S
N1587 C1590 1.350 . S
N1588 S1586 1.610 . S
N1588 C1589 1.351 . S
C1589 C1583 1.428 . S
C1589 N1588 1.351 . S
C1589 C1590 1.434 . S
C1590 C1581 1.429 . S
C1590 N1587 1.350 . S
C1590 C1589 1.434 . S
C1591 C1592 1.369 . S
C1591 C1593 1.419 . S
C1591 H1595 0.930 . S
C1592 C1591 1.369 . S
C1592 C1601 1.429 . S
C1593 C1591 1.419 . S
C1593 C1594 1.363 . S
C1593 H1596 0.929 . S
C1594 C1593 1.363 . S
C1594 C1600 1.428 . S
H1595 C1591 0.930 . S
H1596 C1593 0.929 . S
S1597 N1598 1.613 . S
S1597 N1599 1.610 . S
N1598 S1597 1.613 . S
N1598 C1601 1.350 . S
N1599 S1597 1.610 . S
N1599 C1600 1.351 . S
C1600 C1594 1.428 . S
C1600 N1599 1.351 . S
C1600 C1601 1.434 . S
C1601 C1592 1.429 . S
C1601 N1598 1.350 . S
C1601 C1600 1.434 . S
C1602 C1603 1.369 . S
C1602 C1604 1.419 . S
C1602 H1606 0.930 . S
C1603 C1602 1.369 . S
C1603 C1612 1.429 . S
C1604 C1602 1.419 . S
C1604 C1605 1.363 . S
C1604 H1607 0.929 . S
C1605 C1604 1.363 . S
C1605 C1611 1.428 . S
H1606 C1602 0.930 . S
H1607 C1604 0.929 . S
S1608 N1609 1.613 . S
S1608 N1610 1.610 . S
N1609 S1608 1.613 . S
N1609 C1612 1.350 . S
N1610 S1608 1.610 . S
N1610 C1611 1.351 . S
C1611 C1605 1.428 . S
C1611 N1610 1.351 . S
C1611 C1612 1.434 . S
C1612 C1603 1.429 . S
C1612 N1609 1.350 . S
C1612 C1611 1.434 . S
C1613 C1614 1.369 . S
C1613 C1615 1.419 . S
C1613 H1617 0.930 . S
C1614 C1613 1.369 . S
C1614 C1623 1.429 . S
C1615 C1613 1.419 . S
C1615 C1616 1.363 . S
C1615 H1618 0.929 . S
C1616 C1615 1.363 . S
C1616 C1622 1.428 . S
H1617 C1613 0.930 . S
H1618 C1615 0.929 . S
S1619 N1620 1.613 . S
S1619 N1621 1.610 . S
N1620 S1619 1.613 . S
N1620 C1623 1.350 . S
N1621 S1619 1.610 . S
N1621 C1622 1.351 . S
C1622 C1616 1.428 . S
C1622 N1621 1.351 . S
C1622 C1623 1.434 . S
C1623 C1614 1.429 . S
C1623 N1620 1.350 . S
C1623 C1622 1.434 . S
C1624 C1625 1.369 . S
C1624 C1626 1.419 . S
C1624 H1628 0.930 . S
C1625 C1624 1.369 . S
C1625 C1634 1.429 . S
C1626 C1624 1.419 . S
C1626 C1627 1.363 . S
C1626 H1629 0.929 . S
C1627 C1626 1.363 . S
C1627 C1633 1.428 . S
H1628 C1624 0.930 . S
H1629 C1626 0.929 . S
S1630 N1631 1.613 . S
S1630 N1632 1.610 . S
N1631 S1630 1.613 . S
N1631 C1634 1.350 . S
N1632 S1630 1.610 . S
N1632 C1633 1.351 . S
C1633 C1627 1.428 . S
C1633 N1632 1.351 . S
C1633 C1634 1.434 . S
C1634 C1625 1.429 . S
C1634 N1631 1.350 . S
C1634 C1633 1.434 . S
C1635 C1636 1.369 . S
C1635 C1637 1.419 . S
C1635 H1639 0.930 . S
C1636 C1635 1.369 . S
C1636 C1645 1.429 . S
C1637 C1635 1.419 . S
C1637 C1638 1.363 . S
C1637 H1640 0.929 1_565 S
C1638 C1637 1.363 . S
C1638 C1644 1.428 . S
H1639 C1635 0.930 . S
H1640 C1637 0.929 1_545 S
S1641 N1642 1.613 . S
S1641 N1643 1.610 . S
N1642 S1641 1.613 . S
N1642 C1645 1.350 . S
N1643 S1641 1.610 . S
N1643 C1644 1.351 . S
C1644 C1638 1.428 . S
C1644 N1643 1.351 . S
C1644 C1645 1.434 . S
C1645 C1636 1.429 . S
C1645 N1642 1.350 . S
C1645 C1644 1.434 . S
C1646 C1647 1.369 . S
C1646 C1648 1.419 . S
C1646 H1650 0.930 . S
C1647 C1646 1.369 . S
C1647 C1656 1.429 . S
C1648 C1646 1.419 . S
C1648 C1649 1.363 . S
C1648 H1651 0.929 . S
C1649 C1648 1.363 . S
C1649 C1655 1.428 . S
H1650 C1646 0.930 . S
H1651 C1648 0.929 . S
S1652 N1653 1.613 . S
S1652 N1654 1.610 . S
N1653 S1652 1.613 . S
N1653 C1656 1.350 . S
N1654 S1652 1.610 . S
N1654 C1655 1.351 . S
C1655 C1649 1.428 . S
C1655 N1654 1.351 . S
C1655 C1656 1.434 . S
C1656 C1647 1.429 . S
C1656 N1653 1.350 . S
C1656 C1655 1.434 . S
C1657 C1658 1.369 . S
C1657 C1659 1.419 . S
C1657 H1661 0.930 . S
C1658 C1657 1.369 . S
C1658 C1667 1.429 1_556 S
C1659 C1657 1.419 . S
C1659 C1660 1.363 1_556 S
C1659 H1662 0.929 . S
C1660 C1659 1.363 1_554 S
C1660 C1666 1.428 . S
H1661 C1657 0.930 . S
H1662 C1659 0.929 . S
S1663 N1664 1.584 1_565 S
S1663 N1665 1.601 1_565 S
N1664 S1663 1.584 1_545 S
N1664 C1667 1.350 . S
N1665 S1663 1.601 1_545 S
N1665 C1666 1.351 . S
C1666 C1660 1.428 . S
C1666 N1665 1.351 . S
C1666 C1667 1.434 . S
C1667 C1658 1.429 1_554 S
C1667 N1664 1.350 . S
C1667 C1666 1.434 . S
C1668 C1669 1.369 . S
C1668 C1670 1.419 . S
C1668 H1672 0.930 . S
C1669 C1668 1.369 . S
C1669 C1678 1.429 . S
C1670 C1668 1.419 . S
C1670 C1671 1.363 . S
C1670 H1673 0.929 . S
C1671 C1670 1.363 . S
C1671 C1677 1.428 . S
H1672 C1668 0.930 . S
H1673 C1670 0.929 . S
S1674 N1675 1.613 . S
S1674 N1676 1.610 . S
N1675 S1674 1.613 . S
N1675 C1678 1.350 . S
N1676 S1674 1.610 . S
N1676 C1677 1.351 . S
C1677 C1671 1.428 . S
C1677 N1676 1.351 . S
C1677 C1678 1.434 . S
C1678 C1669 1.429 . S
C1678 N1675 1.350 . S
C1678 C1677 1.434 . S
C1679 C1680 1.369 . S
C1679 C1681 1.419 . S
C1679 H1683 0.930 . S
C1680 C1679 1.369 . S
C1680 C1689 1.429 1_554 S
C1681 C1679 1.419 . S
C1681 C1682 1.363 1_554 S
C1681 H1684 0.929 . S
C1682 C1681 1.363 1_556 S
C1682 C1688 1.428 . S
H1683 C1679 0.930 . S
H1684 C1681 0.929 . S
S1685 N1686 1.613 . S
S1685 N1687 1.610 . S
N1686 S1685 1.613 . S
N1686 C1689 1.350 . S
N1687 S1685 1.610 . S
N1687 C1688 1.351 . S
C1688 C1682 1.428 . S
C1688 N1687 1.351 . S
C1688 C1689 1.434 . S
C1689 C1680 1.429 1_556 S
C1689 N1686 1.350 . S
C1689 C1688 1.434 . S
C1690 C1691 1.369 . S
C1690 C1692 1.419 . S
C1690 H1694 0.930 . S
C1691 C1690 1.369 . S
C1691 C1700 1.429 . S
C1692 C1690 1.419 . S
C1692 C1693 1.363 . S
C1692 H1695 0.929 . S
C1693 C1692 1.363 . S
C1693 C1699 1.428 . S
H1694 C1690 0.930 . S
H1695 C1692 0.929 . S
S1696 N1697 1.613 . S
S1696 N1698 1.610 . S
N1697 S1696 1.613 . S
N1697 C1700 1.350 . S
N1698 S1696 1.610 . S
N1698 C1699 1.351 . S
C1699 C1693 1.428 . S
C1699 N1698 1.351 . S
C1699 C1700 1.434 . S
C1700 C1691 1.429 . S
C1700 N1697 1.350 . S
C1700 C1699 1.434 . S
C1701 C1702 1.369 . S
C1701 C1703 1.419 . S
C1701 H1705 0.930 . S
C1702 C1701 1.369 . S
C1702 C1711 1.429 . S
C1703 C1701 1.419 . S
C1703 C1704 1.363 . S
C1703 H1706 0.929 . S
C1704 C1703 1.363 . S
C1704 C1710 1.428 . S
H1705 C1701 0.930 . S
H1706 C1703 0.929 . S
S1707 N1708 1.613 . S
S1707 N1709 1.610 . S
N1708 S1707 1.613 . S
N1708 C1711 1.350 . S
N1709 S1707 1.610 . S
N1709 C1710 1.351 . S
C1710 C1704 1.428 . S
C1710 N1709 1.351 . S
C1710 C1711 1.434 . S
C1711 C1702 1.429 . S
C1711 N1708 1.350 . S
C1711 C1710 1.434 . S
C657 C109 1.622 . S
C659 C354 1.578 . S
C668 C65 1.680 . S
C670 C365 1.687 . S
C679 C75 1.225 . S
C681 C394 1.166 . S
C692 C397 1.467 . S
C690 C84 1.460 . S
C701 C25 1.641 . S
C703 C435 1.579 . S
C714 C438 1.188 . S
C712 C28 1.162 . S
C725 C465 1.564 . S
C723 C47 1.556 . S
C734 C9 1.756 . S
C736 C494 1.655 . S
C747 C345 1.697 1_655 S
C745 C233 1.696 . S
C756 C249 1.083 . S
C758 C357 1.078 . S
C769 C385 1.592 . S
C767 C275 1.598 . S
C780 C414 1.262 . S
C778 C173 1.283 . S
C789 C224 1.200 . S
C791 C418 1.250 . S
C802 C444 1.600 . S
C800 C243 1.625 . S
C813 C457 0.912 . S
C811 C266 0.928 . S
C824 C485 1.612 . S
C822 C179 1.612 . S
C835 C337 1.575 1_565 S
C833 C163 1.600 . S
C844 C289 1.734 1_554 S
C846 C504 1.703 . S
C857 C535 1.566 . S
C855 C333 1.636 . S
C868 C554 1.022 . S
C866 C308 1.036 . S
C877 C123 1.446 . S
C879 C477 1.464 . S
C888 C126 1.561 . S
C890 C377 1.586 . S
C899 C327 1.616 . S
C901 C565 1.616 . S
C912 C594 1.115 . S
C910 C299 1.165 . S
C923 C355 1.588 . S
C921 C67 1.636 . S
C934 C584 1.692 . S
C932 C98 1.657 . S
C943 C89 1.233 . S
C945 C395 1.187 . S
C954 C79 1.511 . S
C956 C558 1.494 . S
C967 C434 1.590 . S
C965 C11 1.664 . S
C976 C51 1.197 . S
C978 C517 1.192 . S
C989 C464 1.596 . S
C987 C33 1.589 . S
C1000 C615 1.645 . S
C998 C14 1.724 . S
C1011 C344 1.667 . S
C1009 C140 1.647 . S
C1022 C578 1.070 . S
C1020 C319 1.094 . S
C1031 C112 1.594 . S
C1033 C384 1.598 . S
C1042 C285 1.298 . S
C1044 C575 1.281 . S
C1053 C149 1.252 . S
C1055 C417 1.256 . S
C1066 C525 1.620 . S
C1064 C313 1.643 . S
C1075 C121 0.969 . S
C1077 C458 0.960 . S
C1086 C291 1.632 . S
C1088 C604 1.627 . S
C1097 C182 1.598 1_556 S
C1099 C338 1.565 . S
C1108 C168 1.714 . S
C1110 C505 1.703 . S
C1119 C263 1.673 . S
C1121 C454 1.590 . S
C1130 C247 1.085 . S
C1132 C555 1.061 . S
C1143 C598 1.450 . S
C1141 C277 1.458 . S
C1152 C219 1.623 . S
C1154 C378 1.595 . S
C1165 C404 1.643 . S
C1163 C257 1.648 . S
C1176 C375 1.104 . S
C1174 C201 1.147 . S
C1185 C81 1.616 . S
C1187 C634 1.580 . S
C1198 C585 1.687 . S
C1196 C93 1.682 . S
C1207 C103 1.225 . S
C1209 C654 1.166 . S
C1218 C56 1.466 . S
C1220 C557 1.465 . S
C1229 C53 1.640 . S
C1231 C515 1.577 . S
C1242 C518 1.189 . S
C1240 C0 1.162 . S
C1253 C545 1.565 . S
C1251 C19 1.556 . S
C1264 C614 1.656 . S
C1262 C37 1.756 . S
C1275 C625 1.698 . S
C1273 C261 1.695 . S
C1284 C193 1.083 . S
C1286 C577 1.070 . S
C1297 C645 1.593 . S
C1295 C205 1.597 . S
C1308 C574 1.262 . S
C1306 C215 1.286 . S
C1319 C498 1.249 . S
C1317 C252 1.195 . S
C1328 C187 1.622 . S
C1330 C524 1.604 . S
C1341 C537 0.911 . S
C1339 C196 0.926 . S
C1350 C221 1.615 . S
C1352 C605 1.613 . S
C1363 C617 1.573 . S
C1361 C317 1.601 . S
C1372 C135 1.735 . S
C1374 C424 1.703 . S
C1385 C455 1.569 . S
C1383 C151 1.634 . S
C1396 C474 1.018 . S
C1394 C154 1.039 . S
C1407 C597 1.461 . S
C1405 C305 1.447 . S
C1416 C280 1.561 . S
C1418 C637 1.586 . S
C1429 C405 1.613 . S
C1427 C145 1.613 . S
C1440 C374 1.117 . S
C1438 C117 1.162 . S
C1449 C95 1.638 . S
C1451 C635 1.585 . S
C1462 C364 1.693 . S
C1460 C70 1.654 . S
C1471 C61 1.233 . S
C1473 C655 1.187 . S
C1482 C107 1.511 . S
C1484 C398 1.494 . S
C1493 C39 1.660 . S
C1495 C514 1.594 . S
C1506 C437 1.192 . S
C1504 C23 1.198 . S
C1515 C5 1.586 . S
C1517 C544 1.594 . S
C1526 C42 1.722 . S
C1528 C495 1.648 . S
C1539 C624 1.667 . S
C1537 C322 1.646 . S
C1548 C165 1.088 . S
C1550 C358 1.080 . S
C1561 C644 1.599 1_655 S
C1559 C294 1.595 . S
C1570 C131 1.298 . S
C1572 C415 1.282 . S
C1581 C331 1.254 . S
C1583 C497 1.255 . S
C1594 C445 1.622 . S
C1592 C159 1.641 . S
C1603 C303 0.972 . S
C1605 C538 0.953 . S
C1616 C484 1.627 . S
C1614 C137 1.632 . S
C1627 C618 1.564 . S
C1625 C238 1.597 . S
C1638 C425 1.703 1_565 S
C1636 C210 1.714 . S
C1647 C235 1.670 . S
C1649 C534 1.590 . S
C1660 C475 1.065 . S
C1658 C191 1.085 . S
C1669 C207 1.456 . S
C1671 C478 1.454 . S
C1680 C177 1.620 . S
C1682 C638 1.598 . S
C1693 C564 1.644 . S
C1691 C229 1.648 . S
C1704 C595 1.097 . S
C1702 C271 1.153 . S
