# Generated by pormake.
# Topology alb, (6,12)-cn, num edge types: 1
# Building blocks:
#     Node 0, Type 0, BuildingBlock: IZENUY_clean_sbu_0, # of connection points: 6
#     Node 1, Type 0, BuildingBlock: IZENUY_clean_sbu_0, # of connection points: 6
#     Node 2, Type 1, BuildingBlock: QEWDON_clean_sbu_0, # of connection points: 12
#     Edge 3, Type (0, 1), BuildingBlock: UVAHIK_clean_linker_0, # of connection points: 2
#     Edge 4, Type (0, 1), BuildingBlock: UVAHIK_clean_linker_0, # of connection points: 2
#     Edge 5, Type (0, 1), BuildingBlock: UVAHIK_clean_linker_0, # of connection points: 2
#     Edge 6, Type (0, 1), BuildingBlock: UVAHIK_clean_linker_0, # of connection points: 2
#     Edge 7, Type (0, 1), BuildingBlock: UVAHIK_clean_linker_0, # of connection points: 2
#     Edge 8, Type (0, 1), BuildingBlock: UVAHIK_clean_linker_0, # of connection points: 2
#     Edge 9, Type (0, 1), BuildingBlock: UVAHIK_clean_linker_0, # of connection points: 2
#     Edge 10, Type (0, 1), BuildingBlock: UVAHIK_clean_linker_0, # of connection points: 2
#     Edge 11, Type (0, 1), BuildingBlock: UVAHIK_clean_linker_0, # of connection points: 2
#     Edge 12, Type (0, 1), BuildingBlock: UVAHIK_clean_linker_0, # of connection points: 2
#     Edge 13, Type (0, 1), BuildingBlock: UVAHIK_clean_linker_0, # of connection points: 2
#     Edge 14, Type (0, 1), BuildingBlock: UVAHIK_clean_linker_0, # of connection points: 2
# Relax obj value: 0.105
# Max RMSD: 0.213
# Mean RMSD: 0.115
data_MOF--net-alb--node1-IZENUY_clean_sbu_0--node2-QEWDON_clean_sbu_0--edge1-UVAHIK_clean_linker_0
_symmetry_space_group_name_H-M    P1
_symmetry_Int_Tables_number       1
_symmetry_cell_setting            triclinic
loop_
_symmetry_equiv_pos_as_xyz
'x, y, z'
_cell_length_a     30.532676
_cell_length_b     32.081708
_cell_length_c     24.529176
_cell_angle_alpha  89.962084
_cell_angle_beta   91.91446
_cell_angle_gamma 121.5352
loop_
_atom_site_label
_atom_site_type_symbol
_atom_site_fract_x
_atom_site_fract_y
_atom_site_fract_z
_atom_type_partial_charge
Fe0 Fe 0.30373 0.70787 0.12866 0.0
Fe1 Fe 0.29643 0.60896 0.12428 0.0
O2 O 0.26645 0.64322 0.13186 0.0
Fe3 Fe 0.19947 0.61308 0.14293 0.0
O4 O 0.1901 0.65754 0.1044 0.0
O5 O 0.2657 0.70785 0.07063 0.0
O6 O 0.34904 0.70957 0.0801 0.0
C7 C 0.34625 0.67772 0.04733 0.0
C8 C 0.23485 0.69159 0.21232 0.0
O9 O 0.31809 0.6328 0.05694 0.0
C10 C 0.23214 0.55958 0.20733 0.0
O11 O 0.34446 0.71221 0.1866 0.0
O12 O 0.35798 0.6554 0.15697 0.0
O13 O 0.21042 0.6457 0.20704 0.0
O14 O 0.26544 0.71843 0.17646 0.0
C15 C 0.20085 0.55206 0.06627 0.0
O16 O 0.27744 0.58282 0.19096 0.0
O17 O 0.19685 0.56317 0.1832 0.0
C18 C 0.36982 0.69131 0.18853 0.0
O19 O 0.2404 0.55639 0.09028 0.0
O20 O 0.18332 0.57821 0.07987 0.0
C21 C 0.21766 0.6892 0.06975 0.0
Fe22 Fe 0.71964 0.41073 0.06621 0.0
Fe23 Fe 0.71847 0.3148 0.05663 0.0
O24 O 0.75308 0.3796 0.05996 0.0
Fe25 Fe 0.82128 0.4136 0.05701 0.0
O26 O 0.83065 0.46423 0.10157 0.0
O27 O 0.75348 0.43921 0.13028 0.0
O28 O 0.66773 0.3635 0.10612 0.0
C29 C 0.66419 0.32861 0.13368 0.0
C30 C 0.79764 0.46912 0.99277 0.0
O31 O 0.68986 0.30952 0.12199 0.0
C32 C 0.79107 0.33474 0.98164 0.0
O33 O 0.6833 0.38434 0.00265 0.0
O34 O 0.66247 0.30876 0.01885 0.0
O35 O 0.81906 0.44451 0.99579 0.0
O36 O 0.76524 0.46379 0.02728 0.0
C37 C 0.80635 0.3397 0.12439 0.0
O38 O 0.744 0.31469 0.99102 0.0
O39 O 0.82477 0.36913 0.0124 0.0
C40 C 0.6563 0.33911 0.99182 0.0
O41 O 0.76842 0.30955 0.09394 0.0
O42 O 0.82812 0.3852 0.11778 0.0
C43 C 0.80167 0.46643 0.1359 0.0
Zn44 Zn 0.11732 0.10667 0.47472 0.0
Zn45 Zn 0.11365 0.00661 0.48406 0.0
O46 O 0.06843 0.03354 0.47293 0.0
H47 H 0.03407 0.01668 0.45655 0.0
C48 C 0.13278 0.17393 0.57263 0.0
O49 O 0.08559 0.13848 0.58175 0.0
Zn50 Zn 0.9054 0.91053 0.70707 0.0
Zn51 Zn 0.91574 0.99387 0.77501 0.0
O52 O 0.9433 0.98351 0.70635 0.0
H53 H 0.97629 0.00543 0.6911 0.0
Zn54 Zn 0.15688 0.09643 0.59487 0.0
O55 O 0.09076 0.04294 0.6375 0.0
Zn56 Zn 0.08476 0.98582 0.68283 0.0
H57 H 0.06298 0.04907 0.63907 0.0
Zn58 Zn 0.94085 0.00734 0.5462 0.0
O59 O 0.97403 0.97008 0.57341 0.0
H60 H 0.99306 0.97522 0.60748 0.0
Zn61 Zn 0.95011 0.91208 0.52346 0.0
C62 C 0.90031 0.04116 0.63127 0.0
O63 O 0.86883 0.99365 0.63472 0.0
O64 O 0.19064 0.12653 0.45457 0.0
O65 O 0.18636 0.05517 0.45869 0.0
O66 O 0.84033 0.94209 0.78416 0.0
O67 O 0.83129 0.88103 0.73235 0.0
O68 O 0.15312 0.06496 0.66942 0.0
O69 O 0.14007 0.02176 0.7416 0.0
C70 C 0.03414 0.91355 0.45043 0.0
O71 O 0.88126 0.9656 0.49097 0.0
O72 O 0.88912 0.90135 0.47499 0.0
O73 O 0.93987 0.06367 0.80148 0.0
C74 C 0.21121 0.101 0.44918 0.0
O75 O 0.08693 0.14591 0.44188 0.0
C76 C 0.99326 0.91169 0.7482 0.0
O77 O 0.16926 0.16587 0.57874 0.0
C78 C 0.8125 0.89921 0.76357 0.0
O79 O 0.9356 0.05724 0.59684 0.0
C80 C 0.11274 0.95575 0.58537 0.0
O81 O 0.08116 0.94315 0.44089 0.0
O82 O 0.01317 0.92835 0.48278 0.0
C83 C 0.16884 0.06125 0.71685 0.0
O84 O 0.94577 0.89231 0.75709 0.0
O85 O 0.01286 0.94381 0.71136 0.0
C86 C 0.91472 0.85411 0.61732 0.0
O87 O 0.10295 0.94604 0.63535 0.0
O88 O 0.11154 0.99155 0.56472 0.0
C89 C 0.86604 0.92471 0.46699 0.0
O90 O 0.92965 0.8533 0.56984 0.0
O91 O 0.90946 0.88945 0.63093 0.0
C92 C 0.97774 0.10098 0.7811 0.0
O93 O 0.0031 0.09511 0.74265 0.0
C94 C 0.03973 0.13017 0.44863 0.0
O95 O 0.01275 0.09086 0.47762 0.0
C96 C 0.25022 0.76585 0.2631 0.0
C97 C 0.22336 0.71464 0.25741 0.0
C98 C 0.23801 0.78814 0.30362 0.0
C99 C 0.13328 0.76758 0.39099 0.0
H100 H 0.24225 0.88433 0.46591 0.0
C101 C 0.0959 0.87385 0.55646 0.0
C102 C 0.12403 0.92492 0.55166 0.0
C103 C 0.10701 0.84485 0.52416 0.0
C104 C 0.21136 0.85194 0.44509 0.0
H105 H 0.16308 0.64661 0.2907 0.0
H106 H 0.142 0.6858 0.36197 0.0
H107 H 0.26404 0.83921 0.40402 0.0
H108 H 0.18681 0.98599 0.51168 0.0
H109 H 0.20583 0.93571 0.45452 0.0
H110 H 0.08066 0.78057 0.43229 0.0
C111 C 0.17216 0.70858 0.3345 0.0
C112 C 0.22385 0.82608 0.40965 0.0
C113 C 0.18448 0.68618 0.29389 0.0
C114 C 0.16393 0.94664 0.51505 0.0
C115 C 0.1752 0.91783 0.483 0.0
C116 C 0.12078 0.7934 0.42678 0.0
C117 C 0.19869 0.75984 0.33961 0.0
C118 C 0.18501 0.78423 0.38127 0.0
C119 C 0.14701 0.86663 0.48728 0.0
C120 C 0.15974 0.83651 0.45318 0.0
H121 H 0.28035 0.78894 0.23574 0.0
H122 H 0.25867 0.82772 0.30589 0.0
H123 H 0.10246 0.73564 0.36947 0.0
H124 H 0.06506 0.85641 0.58477 0.0
H125 H 0.08486 0.80553 0.52861 0.0
C126 C 0.60179 0.33185 0.19419 0.0
C127 C 0.62453 0.30643 0.17536 0.0
C128 C 0.56086 0.30974 0.22921 0.0
C129 C 0.48915 0.20502 0.3214 0.0
H130 H 0.37933 0.22918 0.28833 0.0
C131 C 0.28555 0.09712 0.4136 0.0
C132 C 0.2636 0.12469 0.42743 0.0
C133 C 0.33246 0.11905 0.38741 0.0
C134 C 0.40987 0.22247 0.29858 0.0
H135 H 0.62332 0.23834 0.18045 0.0
H136 H 0.55095 0.19924 0.24104 0.0
H137 H 0.45556 0.26758 0.23437 0.0
H138 H 0.27543 0.1976 0.42722 0.0
H139 H 0.35681 0.23549 0.38208 0.0
H140 H 0.44236 0.15903 0.38529 0.0
C141 C 0.56525 0.23657 0.22907 0.0
C142 C 0.45372 0.24459 0.26766 0.0
C143 C 0.60664 0.25893 0.19421 0.0
C144 C 0.29077 0.17503 0.41669 0.0
C145 C 0.33739 0.19679 0.39052 0.0
C146 C 0.44492 0.18259 0.35231 0.0
C147 C 0.54115 0.26139 0.24603 0.0
C148 C 0.49423 0.23665 0.27895 0.0
C149 C 0.35821 0.1689 0.37441 0.0
C150 C 0.40504 0.19152 0.34154 0.0
H151 H 0.61509 0.36875 0.18116 0.0
H152 H 0.54421 0.33045 0.24258 0.0
H153 H 0.5197 0.19829 0.3314 0.0
H154 H 0.26574 0.05829 0.42137 0.0
H155 H 0.3475 0.09657 0.3754 0.0
C156 C 0.25752 0.51612 0.27435 0.0
C157 C 0.21977 0.52468 0.2526 0.0
C158 C 0.24618 0.48246 0.31581 0.0
C159 C 0.13689 0.37513 0.37968 0.0
H160 H 0.24304 0.39651 0.48719 0.0
C161 C 0.10217 0.22907 0.53971 0.0
C162 C 0.14241 0.22022 0.54804 0.0
C163 C 0.11001 0.27008 0.51101 0.0
C164 C 0.213 0.38977 0.45732 0.0
H165 H 0.14049 0.50496 0.25855 0.0
H166 H 0.12087 0.44674 0.3318 0.0
H167 H 0.25901 0.46067 0.4234 0.0
H168 H 0.22287 0.24846 0.53392 0.0
H169 H 0.23636 0.31925 0.48364 0.0
H170 H 0.09081 0.30461 0.41425 0.0
C171 C 0.15913 0.46551 0.31597 0.0
C172 C 0.2222 0.42661 0.42054 0.0
C173 C 0.17044 0.49911 0.27409 0.0
C174 C 0.19106 0.25422 0.52861 0.0
C175 C 0.19887 0.29509 0.49988 0.0
C176 C 0.12755 0.33851 0.4169 0.0
C177 C 0.19683 0.45656 0.33724 0.0
C178 C 0.18482 0.41933 0.38019 0.0
C179 C 0.15831 0.30328 0.48996 0.0
C180 C 0.16599 0.34468 0.45512 0.0
H181 H 0.29592 0.53491 0.25881 0.0
H182 H 0.276 0.47599 0.33014 0.0
H183 H 0.10714 0.36788 0.34919 0.0
H184 H 0.06418 0.20366 0.55413 0.0
H185 H 0.07799 0.27538 0.50479 0.0
C186 C 0.79734 0.27448 0.18679 0.0
C187 C 0.82847 0.32085 0.16454 0.0
C188 C 0.8185 0.2554 0.22283 0.0
C189 C 0.93713 0.28934 0.30748 0.0
H190 H 0.88289 0.1499 0.29653 0.0
C191 C 0.04353 0.19582 0.39013 0.0
C192 C 0.01484 0.15417 0.42178 0.0
C193 C 0.01946 0.21691 0.36235 0.0
C194 C 0.89804 0.18881 0.30032 0.0
H195 H 0.906 0.3839 0.1627 0.0
H196 H 0.94354 0.34984 0.22346 0.0
H197 H 0.84371 0.18551 0.24084 0.0
H198 H 0.93857 0.10249 0.44989 0.0
H199 H 0.89671 0.13978 0.40136 0.0
H200 H 0.99321 0.29243 0.36514 0.0
C201 C 0.90246 0.32865 0.21473 0.0
C202 C 0.87547 0.20931 0.26869 0.0
C203 C 0.88104 0.34814 0.17957 0.0
C204 C 0.96175 0.13456 0.42582 0.0
C205 C 0.93772 0.1557 0.39796 0.0
C206 C 0.9603 0.2689 0.33835 0.0
C207 C 0.87154 0.28181 0.23653 0.0
C208 C 0.89473 0.25989 0.27172 0.0
C209 C 0.96642 0.197 0.36597 0.0
C210 C 0.94094 0.21849 0.33493 0.0
H211 H 0.75652 0.25295 0.17641 0.0
H212 H 0.79314 0.21981 0.23978 0.0
H213 H 0.95249 0.32821 0.31182 0.0
H214 H 0.0845 0.21183 0.3862 0.0
H215 H 0.04214 0.24828 0.33713 0.0
C216 C 0.43942 0.75934 0.24728 0.0
C217 C 0.4183 0.7131 0.22197 0.0
C218 C 0.4876 0.78158 0.27446 0.0
C219 C 0.60722 0.779 0.27944 0.0
H220 H 0.6365 0.85486 0.41319 0.0
C221 C 0.7964 0.85492 0.40998 0.0
C222 C 0.81797 0.90223 0.43265 0.0
C223 C 0.74828 0.83202 0.38255 0.0
C224 C 0.62904 0.83421 0.37552 0.0
H225 H 0.43018 0.65299 0.20762 0.0
H226 H 0.51355 0.69138 0.25579 0.0
H227 H 0.55 0.81341 0.37136 0.0
H228 H 0.80673 0.96332 0.44209 0.0
H229 H 0.7233 0.92351 0.39403 0.0
H230 H 0.68629 0.79965 0.28388 0.0
C231 C 0.49354 0.71101 0.25348 0.0
C232 C 0.57948 0.81046 0.35158 0.0
C233 C 0.44555 0.68887 0.22617 0.0
C234 C 0.79119 0.92673 0.42553 0.0
C235 C 0.74316 0.90382 0.3983 0.0
C236 C 0.65675 0.80262 0.30351 0.0
C237 C 0.51555 0.75796 0.27714 0.0
C238 C 0.56801 0.78264 0.3032 0.0
C239 C 0.72076 0.85592 0.37736 0.0
C240 C 0.66822 0.83063 0.35169 0.0
H241 H 0.41949 0.77903 0.24475 0.0
H242 H 0.50362 0.81794 0.2919 0.0
H243 H 0.59991 0.75855 0.24166 0.0
H244 H 0.81595 0.83498 0.41472 0.0
H245 H 0.73188 0.79498 0.36701 0.0
C246 C 0.79176 0.51211 0.213 0.0
C247 C 0.82389 0.50616 0.17814 0.0
C248 C 0.81218 0.55198 0.24954 0.0
C249 C 0.93412 0.64968 0.31679 0.0
H250 H 0.86285 0.72018 0.32318 0.0
C251 C 0.03437 0.84838 0.3953 0.0
C252 C 0.00688 0.86351 0.42605 0.0
C253 C 0.00977 0.80182 0.37118 0.0
C254 C 0.88282 0.70051 0.32267 0.0
H255 H 0.90306 0.53682 0.15593 0.0
H256 H 0.93852 0.60636 0.21933 0.0
H257 H 0.82452 0.64388 0.27036 0.0
H258 H 0.93186 0.84109 0.45606 0.0
H259 H 0.88867 0.75904 0.4142 0.0
H260 H 0.99286 0.70674 0.36828 0.0
C261 C 0.89754 0.58 0.21871 0.0
C262 C 0.86086 0.65673 0.29233 0.0
C263 C 0.87714 0.54019 0.18209 0.0
C264 C 0.95411 0.83059 0.43263 0.0
C265 C 0.92936 0.7837 0.40841 0.0
C266 C 0.95604 0.69339 0.34715 0.0
C267 C 0.86523 0.58681 0.25232 0.0
C268 C 0.88664 0.63119 0.28825 0.0
C269 C 0.95698 0.76881 0.37733 0.0
C270 C 0.93113 0.71985 0.34965 0.0
H271 H 0.7506 0.48649 0.21139 0.0
H272 H 0.7863 0.55569 0.2754 0.0
H273 H 0.95458 0.6305 0.31538 0.0
H274 H 0.07513 0.87266 0.38945 0.0
H275 H 0.0321 0.79205 0.34675 0.0
C276 C 0.22559 0.75423 0.00697 0.0
C277 C 0.19441 0.70893 0.0317 0.0
C278 C 0.20391 0.77427 0.97306 0.0
C279 C 0.07932 0.76517 0.93943 0.0
H280 H 0.15641 0.84991 0.82163 0.0
C281 C 0.01654 0.88696 0.83509 0.0
C282 C 0.02294 0.89451 0.7789 0.0
C283 C 0.03826 0.86402 0.86361 0.0
C284 C 0.13398 0.82591 0.85389 0.0
H285 H 0.11603 0.64839 0.03867 0.0
H286 H 0.07819 0.68237 0.97779 0.0
H287 H 0.19055 0.80737 0.87248 0.0
H288 H 0.05515 0.88242 0.70789 0.0
H289 H 0.09293 0.84183 0.75722 0.0
H290 H 0.02171 0.78198 0.91928 0.0
C291 C 0.11937 0.7033 0.98594 0.0
C292 C 0.15397 0.80198 0.88375 0.0
C293 C 0.14105 0.68357 0.02064 0.0
C294 C 0.05165 0.87893 0.7516 0.0
C295 C 0.07281 0.85522 0.77994 0.0
C296 C 0.05901 0.78853 0.90909 0.0
C297 C 0.15045 0.74925 0.96212 0.0
C298 C 0.12737 0.7719 0.9276 0.0
C299 C 0.06589 0.84694 0.8363 0.0
C300 C 0.08647 0.81998 0.86655 0.0
H301 H 0.26684 0.77497 0.01488 0.0
H302 H 0.22918 0.8101 0.95662 0.0
H303 H 0.05771 0.74276 0.97305 0.0
H304 H 0.994 0.89822 0.85688 0.0
H305 H 0.03297 0.85937 0.90709 0.0
C306 C 0.58914 0.34758 0.94025 0.0
C307 C 0.61224 0.32035 0.95217 0.0
C308 C 0.54384 0.32717 0.90775 0.0
C309 C 0.46279 0.23023 0.80666 0.0
H310 H 0.34786 0.22606 0.87515 0.0
C311 C 0.25722 0.13439 0.70681 0.0
C312 C 0.21958 0.09912 0.74029 0.0
C313 C 0.30648 0.16797 0.72845 0.0
C314 C 0.37973 0.22734 0.85538 0.0
H315 H 0.60779 0.25163 0.93695 0.0
H316 H 0.52931 0.21646 0.87932 0.0
H317 H 0.43417 0.27392 0.91801 0.0
H318 H 0.20326 0.07242 0.82283 0.0
H319 H 0.28896 0.13179 0.86079 0.0
H320 H 0.40809 0.18281 0.74459 0.0
C321 C 0.54596 0.25334 0.89549 0.0
C322 C 0.42907 0.25493 0.87963 0.0
C323 C 0.59066 0.27336 0.92873 0.0
C324 C 0.23155 0.09911 0.79606 0.0
C325 C 0.28045 0.1332 0.81783 0.0
C326 C 0.41357 0.20329 0.78192 0.0
C327 C 0.52149 0.2796 0.88571 0.0
C328 C 0.47082 0.25571 0.85614 0.0
C329 C 0.31858 0.16746 0.7841 0.0
C330 C 0.37143 0.2007 0.80675 0.0
H331 H 0.60485 0.38386 0.95782 0.0
H332 H 0.52576 0.34819 0.90057 0.0
H333 H 0.49442 0.23039 0.7877 0.0
H334 H 0.24906 0.13521 0.66364 0.0
H335 H 0.33523 0.19416 0.70168 0.0
C336 C 0.11816 0.48914 0.01942 0.0
C337 C 0.17187 0.51215 0.02581 0.0
C338 C 0.0904 0.44818 0.98487 0.0
C339 C 0.0976 0.38135 0.86939 0.0
H340 H 0.00692 0.26343 0.94733 0.0
C341 C 0.03978 0.19134 0.78636 0.0
C342 C 0.99316 0.15029 0.80121 0.0
C343 C 0.05542 0.23758 0.80783 0.0
C344 C 0.03087 0.29586 0.92419 0.0
H345 H 0.239 0.5125 0.99902 0.0
H346 H 0.19044 0.4416 0.93746 0.0
H347 H 0.0443 0.34254 0.99311 0.0
H348 H 0.92508 0.12566 0.84811 0.0
H349 H 0.95129 0.20617 0.88394 0.0
H350 H 0.08401 0.33518 0.80018 0.0
C351 C 0.16995 0.45496 0.95962 0.0
C352 C 0.05244 0.34121 0.9507 0.0
C353 C 0.19758 0.49515 0.99506 0.0
C354 C 0.96168 0.15654 0.83653 0.0
C355 C 0.97696 0.20278 0.85744 0.0
C356 C 0.07508 0.33605 0.84235 0.0
C357 C 0.11612 0.43056 0.95522 0.0
C358 C 0.08709 0.38408 0.92401 0.0
C359 C 0.02437 0.2439 0.844 0.0
C360 C 0.04276 0.29254 0.86998 0.0
H361 H 0.09745 0.50152 0.04279 0.0
H362 H 0.04883 0.42967 0.98207 0.0
H363 H 0.12406 0.41419 0.84804 0.0
H364 H 0.0649 0.18764 0.75927 0.0
H365 H 0.09269 0.26798 0.79731 0.0
C366 C 0.77069 0.28102 0.89878 0.0
C367 C 0.80676 0.31279 0.93891 0.0
C368 C 0.78342 0.25619 0.86184 0.0
C369 C 0.89279 0.24999 0.80706 0.0
H370 H 0.78495 0.11577 0.77465 0.0
C371 C 0.91963 0.12557 0.65598 0.0
C372 C 0.89342 0.07511 0.66595 0.0
C373 C 0.91084 0.15683 0.6874 0.0
C374 C 0.81592 0.15295 0.7836 0.0
H375 H 0.88527 0.34454 0.9704 0.0
H376 H 0.90716 0.30025 0.90681 0.0
H377 H 0.76766 0.16622 0.83226 0.0
H378 H 0.83913 0.01838 0.71839 0.0
H379 H 0.82562 0.0726 0.77438 0.0
H380 H 0.94154 0.236 0.75967 0.0
C381 C 0.86919 0.29512 0.90323 0.0
C382 C 0.80563 0.18235 0.81607 0.0
C383 C 0.85658 0.32045 0.93989 0.0
C384 C 0.85939 0.05691 0.70897 0.0
C385 C 0.85126 0.08816 0.74087 0.0
C386 C 0.90315 0.22042 0.77449 0.0
C387 C 0.8324 0.26185 0.86436 0.0
C388 C 0.84385 0.23128 0.82846 0.0
C389 C 0.87606 0.1385 0.73004 0.0
C390 C 0.86502 0.17117 0.76287 0.0
H391 H 0.73217 0.2747 0.89639 0.0
H392 H 0.75445 0.232 0.83165 0.0
H393 H 0.92318 0.28757 0.81527 0.0
H394 H 0.94614 0.14081 0.62312 0.0
H395 H 0.9305 0.19516 0.67731 0.0
C396 C 0.39645 0.66204 0.97959 0.0
C397 C 0.3837 0.69403 0.00346 0.0
C398 C 0.43805 0.67999 0.94513 0.0
C399 C 0.55991 0.79444 0.92502 0.0
H400 H 0.56834 0.73303 0.79288 0.0
C401 C 0.73429 0.89589 0.79504 0.0
C402 C 0.75783 0.87074 0.77785 0.0
C403 C 0.68526 0.87064 0.81568 0.0
C404 C 0.56656 0.75027 0.82999 0.0
H405 H 0.40169 0.76899 0.00608 0.0
H406 H 0.47331 0.79992 0.94567 0.0
H407 H 0.48721 0.69531 0.84087 0.0
H408 H 0.7472 0.79906 0.76575 0.0
H409 H 0.66086 0.75448 0.80302 0.0
H410 H 0.63872 0.84895 0.91508 0.0
C411 C 0.45223 0.76129 0.95468 0.0
C412 C 0.5202 0.72877 0.85736 0.0
C413 C 0.411 0.7435 0.98912 0.0
C414 C 0.72997 0.81934 0.77884 0.0
C415 C 0.68061 0.79389 0.80007 0.0
C416 C 0.60588 0.8157 0.89794 0.0
C417 C 0.46744 0.73016 0.9339 0.0
C418 C 0.51626 0.75118 0.90471 0.0
C419 C 0.65852 0.81956 0.82027 0.0
C420 C 0.60962 0.79445 0.84963 0.0
H421 H 0.37608 0.62367 0.98973 0.0
H422 H 0.44884 0.65511 0.9297 0.0
H423 H 0.55869 0.81184 0.96229 0.0
H424 H 0.75433 0.93544 0.79379 0.0
H425 H 0.66875 0.8914 0.82943 0.0
C426 C 0.85605 0.52272 0.9195 0.0
C427 C 0.81346 0.50814 0.95208 0.0
C428 C 0.87079 0.56057 0.88224 0.0
C429 C 0.81792 0.62372 0.80461 0.0
H430 H 0.95949 0.73032 0.79435 0.0
C431 C 0.86776 0.79883 0.69332 0.0
C432 C 0.90781 0.81682 0.65688 0.0
C433 C 0.85987 0.76226 0.72963 0.0
C434 C 0.91989 0.70048 0.79644 0.0
H435 H 0.75304 0.52191 0.97082 0.0
H436 H 0.77862 0.58727 0.90642 0.0
H437 H 0.93877 0.66258 0.85591 0.0
H438 H 0.97169 0.81161 0.62999 0.0
H439 H 0.95786 0.74726 0.6937 0.0
H440 H 0.79871 0.66132 0.74582 0.0
C441 C 0.80047 0.56942 0.90923 0.0
C442 C 0.90807 0.66174 0.83151 0.0
C443 C 0.78598 0.53204 0.94643 0.0
C444 C 0.94036 0.79808 0.65769 0.0
C445 C 0.93275 0.76166 0.69439 0.0
C446 C 0.82965 0.66223 0.76981 0.0
C447 C 0.84285 0.58405 0.87656 0.0
C448 C 0.85679 0.62336 0.8365 0.0
C449 C 0.89185 0.74283 0.7301 0.0
C450 C 0.88058 0.70136 0.76588 0.0
H451 H 0.87812 0.50514 0.923 0.0
H452 H 0.90349 0.57098 0.85734 0.0
H453 H 0.77819 0.59419 0.80675 0.0
H454 H 0.84175 0.81218 0.69279 0.0
H455 H 0.82836 0.74882 0.75707 0.0
loop_
_geom_bond_atom_site_label_1
_geom_bond_atom_site_label_2
_geom_bond_distance
_geom_bond_site_symmetry_2
_ccdc_geom_bond_type
Fe0 O2 1.918 . S
Fe0 O5 1.997 . S
Fe0 O6 2.002 . S
Fe0 O11 1.976 . S
Fe0 O14 1.996 . S
Fe1 O2 1.918 . S
Fe1 O9 1.997 . S
Fe1 O12 1.996 . S
Fe1 O16 1.976 . S
Fe1 O19 2.002 . S
O2 Fe0 1.918 . S
O2 Fe1 1.918 . S
O2 Fe3 1.918 . S
Fe3 O2 1.918 . S
Fe3 O4 2.002 . S
Fe3 O13 1.976 . S
Fe3 O17 1.996 . S
Fe3 O20 1.997 . S
O4 Fe3 2.002 . S
O4 C21 1.295 . S
O5 Fe0 1.997 . S
O5 C21 1.235 . S
O6 Fe0 2.002 . S
O6 C7 1.295 . S
C7 O6 1.295 . S
C7 O9 1.235 . S
C8 O13 1.287 . S
C8 O14 1.255 . S
O9 Fe1 1.997 . S
O9 C7 1.235 . S
C10 O16 1.287 . S
C10 O17 1.255 . S
O11 Fe0 1.976 . S
O11 C18 1.287 . S
O12 Fe1 1.996 . S
O12 C18 1.255 . S
O13 Fe3 1.976 . S
O13 C8 1.287 . S
O14 Fe0 1.996 . S
O14 C8 1.255 . S
C15 O19 1.295 . S
C15 O20 1.235 . S
O16 Fe1 1.976 . S
O16 C10 1.287 . S
O17 Fe3 1.996 . S
O17 C10 1.255 . S
C18 O11 1.287 . S
C18 O12 1.255 . S
O19 Fe1 2.002 . S
O19 C15 1.295 . S
O20 Fe3 1.997 . S
O20 C15 1.235 . S
C21 O4 1.295 . S
C21 O5 1.235 . S
Fe22 O24 1.918 . S
Fe22 O27 1.997 . S
Fe22 O28 2.002 . S
Fe22 O33 1.976 1_554 S
Fe22 O36 1.996 1_554 S
Fe23 O24 1.918 . S
Fe23 O31 1.997 . S
Fe23 O34 1.996 1_554 S
Fe23 O38 1.976 1_554 S
Fe23 O41 2.002 . S
O24 Fe22 1.918 . S
O24 Fe23 1.918 . S
O24 Fe25 1.918 . S
Fe25 O24 1.918 . S
Fe25 O26 2.002 . S
Fe25 O35 1.976 1_554 S
Fe25 O39 1.996 1_554 S
Fe25 O42 1.997 . S
O26 Fe25 2.002 . S
O26 C43 1.295 . S
O27 Fe22 1.997 . S
O27 C43 1.235 . S
O28 Fe22 2.002 . S
O28 C29 1.295 . S
C29 O28 1.295 . S
C29 O31 1.235 . S
C30 O35 1.287 . S
C30 O36 1.255 . S
O31 Fe23 1.997 . S
O31 C29 1.235 . S
C32 O38 1.287 . S
C32 O39 1.255 . S
O33 Fe22 1.976 1_556 S
O33 C40 1.287 . S
O34 Fe23 1.996 1_556 S
O34 C40 1.255 . S
O35 Fe25 1.976 1_556 S
O35 C30 1.287 . S
O36 Fe22 1.996 1_556 S
O36 C30 1.255 . S
C37 O41 1.295 . S
C37 O42 1.235 . S
O38 Fe23 1.976 1_556 S
O38 C32 1.287 . S
O39 Fe25 1.996 1_556 S
O39 C32 1.255 . S
C40 O33 1.287 . S
C40 O34 1.255 . S
O41 Fe23 2.002 . S
O41 C37 1.295 . S
O42 Fe25 1.997 . S
O42 C37 1.235 . S
C43 O26 1.295 . S
C43 O27 1.235 . S
Zn44 O46 1.933 . S
Zn44 O64 1.985 . S
Zn44 O75 1.955 . S
Zn45 O46 1.911 1_565 S
Zn45 O65 1.970 1_565 S
Zn45 O81 1.945 . S
Zn45 O88 1.981 . S
O46 Zn44 1.933 . S
O46 Zn45 1.911 1_545 S
O46 H47 0.841 1_455 S
H47 O46 0.841 1_655 S
C48 O49 1.246 . S
C48 O77 1.276 . S
O49 C48 1.246 . S
Zn50 O52 1.911 . S
Zn50 O67 1.970 . S
Zn50 O84 1.945 1_655 S
Zn50 O91 1.981 . S
Zn51 O52 1.933 1_545 S
Zn51 O66 1.985 . S
Zn51 O73 1.955 1_655 S
O52 Zn50 1.911 . S
O52 Zn51 1.933 1_565 S
O52 H53 0.841 1_665 S
H53 O52 0.841 1_445 S
Zn54 O55 1.933 . S
Zn54 O68 1.985 . S
Zn54 O77 1.955 . S
O55 Zn54 1.933 . S
O55 Zn56 1.911 . S
O55 H57 0.841 . S
Zn56 O55 1.911 . S
Zn56 O69 1.970 . S
Zn56 O85 1.981 1_545 S
Zn56 O87 1.945 1_545 S
H57 O55 0.841 . S
Zn58 O59 1.933 . S
Zn58 O71 1.985 . S
Zn58 O79 1.955 1_565 S
O59 Zn58 1.933 . S
O59 H60 0.841 . S
O59 Zn61 1.911 . S
H60 O59 0.841 . S
Zn61 O59 1.911 . S
Zn61 O72 1.970 . S
Zn61 O82 1.981 . S
Zn61 O90 1.945 . S
C62 O63 1.246 . S
C62 O79 1.276 . S
O63 C62 1.246 . S
O64 Zn44 1.985 . S
O64 C74 1.245 . S
O65 Zn45 1.970 1_545 S
O65 C74 1.263 . S
O66 Zn51 1.985 . S
O66 C78 1.245 1_545 S
O67 Zn50 1.970 . S
O67 C78 1.263 . S
O68 Zn54 1.985 . S
O68 C83 1.245 . S
O69 Zn56 1.970 . S
O69 C83 1.263 . S
C70 O81 1.262 1_655 S
C70 O82 1.245 . S
O71 Zn58 1.985 . S
O71 C89 1.245 . S
O72 Zn61 1.970 . S
O72 C89 1.263 . S
O73 Zn51 1.955 1_455 S
O73 C92 1.276 . S
C74 O64 1.245 . S
C74 O65 1.263 . S
O75 Zn44 1.955 . S
O75 C94 1.276 1_455 S
C76 O84 1.262 . S
C76 O85 1.245 . S
O77 C48 1.276 . S
O77 Zn54 1.955 . S
C78 O66 1.245 1_565 S
C78 O67 1.263 . S
O79 Zn58 1.955 1_545 S
O79 C62 1.276 . S
C80 O87 1.262 . S
C80 O88 1.245 . S
O81 Zn45 1.945 . S
O81 C70 1.262 1_455 S
O82 Zn61 1.981 . S
O82 C70 1.245 . S
C83 O68 1.245 . S
C83 O69 1.263 . S
O84 Zn50 1.945 1_455 S
O84 C76 1.262 . S
O85 Zn56 1.981 1_565 S
O85 C76 1.245 . S
C86 O90 1.262 . S
C86 O91 1.245 . S
O87 Zn56 1.945 1_565 S
O87 C80 1.262 . S
O88 Zn45 1.981 . S
O88 C80 1.245 . S
C89 O71 1.245 . S
C89 O72 1.263 . S
O90 Zn61 1.945 . S
O90 C86 1.262 . S
O91 Zn50 1.981 . S
O91 C86 1.245 . S
C92 O73 1.276 . S
C92 O93 1.246 . S
O93 C92 1.246 . S
C94 O75 1.276 1_655 S
C94 O95 1.246 . S
O95 C94 1.246 . S
C96 C97 1.349 . S
C96 C98 1.327 . S
C96 H121 0.950 . S
C97 C96 1.349 . S
C97 C113 1.349 . S
C98 C96 1.327 . S
C98 C117 1.429 . S
C98 H122 0.950 . S
C99 C116 1.574 . S
C99 C118 1.368 . S
C99 H123 0.949 . S
H100 C104 0.949 . S
C101 C102 1.349 . S
C101 C103 1.327 . S
C101 H124 0.950 . S
C102 C101 1.349 . S
C102 C114 1.349 . S
C103 C101 1.327 . S
C103 C119 1.429 . S
C103 H125 0.950 . S
C104 H100 0.949 . S
C104 C112 1.574 . S
C104 C120 1.368 . S
H105 C113 0.950 . S
H106 C111 0.950 . S
H107 C112 0.949 . S
H108 C114 0.950 . S
H109 C115 0.950 . S
H110 C116 0.949 . S
C111 H106 0.950 . S
C111 C113 1.327 . S
C111 C117 1.429 . S
C112 C104 1.574 . S
C112 H107 0.949 . S
C112 C118 1.368 . S
C113 C97 1.349 . S
C113 H105 0.950 . S
C113 C111 1.327 . S
C114 C102 1.349 . S
C114 H108 0.950 . S
C114 C115 1.327 . S
C115 H109 0.950 . S
C115 C114 1.327 . S
C115 C119 1.429 . S
C116 C99 1.574 . S
C116 H110 0.949 . S
C116 C120 1.368 . S
C117 C98 1.429 . S
C117 C111 1.429 . S
C117 C118 1.523 . S
C118 C99 1.368 . S
C118 C112 1.368 . S
C118 C117 1.523 . S
C119 C103 1.429 . S
C119 C115 1.429 . S
C119 C120 1.523 . S
C120 C104 1.368 . S
C120 C116 1.368 . S
C120 C119 1.523 . S
H121 C96 0.950 . S
H122 C98 0.950 . S
H123 C99 0.949 . S
H124 C101 0.950 . S
H125 C103 0.950 . S
C126 C127 1.349 . S
C126 C128 1.327 . S
C126 H151 0.950 . S
C127 C126 1.349 . S
C127 C143 1.349 . S
C128 C126 1.327 . S
C128 C147 1.429 . S
C128 H152 0.950 . S
C129 C146 1.574 . S
C129 C148 1.368 . S
C129 H153 0.949 . S
H130 C134 0.949 . S
C131 C132 1.349 . S
C131 C133 1.327 . S
C131 H154 0.950 . S
C132 C131 1.349 . S
C132 C144 1.349 . S
C133 C131 1.327 . S
C133 C149 1.429 . S
C133 H155 0.950 . S
C134 H130 0.949 . S
C134 C142 1.574 . S
C134 C150 1.368 . S
H135 C143 0.950 . S
H136 C141 0.950 . S
H137 C142 0.949 . S
H138 C144 0.950 . S
H139 C145 0.950 . S
H140 C146 0.949 . S
C141 H136 0.950 . S
C141 C143 1.327 . S
C141 C147 1.429 . S
C142 C134 1.574 . S
C142 H137 0.949 . S
C142 C148 1.368 . S
C143 C127 1.349 . S
C143 H135 0.950 . S
C143 C141 1.327 . S
C144 C132 1.349 . S
C144 H138 0.950 . S
C144 C145 1.327 . S
C145 H139 0.950 . S
C145 C144 1.327 . S
C145 C149 1.429 . S
C146 C129 1.574 . S
C146 H140 0.949 . S
C146 C150 1.368 . S
C147 C128 1.429 . S
C147 C141 1.429 . S
C147 C148 1.523 . S
C148 C129 1.368 . S
C148 C142 1.368 . S
C148 C147 1.523 . S
C149 C133 1.429 . S
C149 C145 1.429 . S
C149 C150 1.523 . S
C150 C134 1.368 . S
C150 C146 1.368 . S
C150 C149 1.523 . S
H151 C126 0.950 . S
H152 C128 0.950 . S
H153 C129 0.949 . S
H154 C131 0.950 . S
H155 C133 0.950 . S
C156 C157 1.349 . S
C156 C158 1.327 . S
C156 H181 0.950 . S
C157 C156 1.349 . S
C157 C173 1.349 . S
C158 C156 1.327 . S
C158 C177 1.429 . S
C158 H182 0.950 . S
C159 C176 1.574 . S
C159 C178 1.368 . S
C159 H183 0.949 . S
H160 C164 0.949 . S
C161 C162 1.349 . S
C161 C163 1.327 . S
C161 H184 0.950 . S
C162 C161 1.349 . S
C162 C174 1.349 . S
C163 C161 1.327 . S
C163 C179 1.429 . S
C163 H185 0.950 . S
C164 H160 0.949 . S
C164 C172 1.574 . S
C164 C180 1.368 . S
H165 C173 0.950 . S
H166 C171 0.950 . S
H167 C172 0.949 . S
H168 C174 0.950 . S
H169 C175 0.950 . S
H170 C176 0.949 . S
C171 H166 0.950 . S
C171 C173 1.327 . S
C171 C177 1.429 . S
C172 C164 1.574 . S
C172 H167 0.949 . S
C172 C178 1.368 . S
C173 C157 1.349 . S
C173 H165 0.950 . S
C173 C171 1.327 . S
C174 C162 1.349 . S
C174 H168 0.950 . S
C174 C175 1.327 . S
C175 H169 0.950 . S
C175 C174 1.327 . S
C175 C179 1.429 . S
C176 C159 1.574 . S
C176 H170 0.949 . S
C176 C180 1.368 . S
C177 C158 1.429 . S
C177 C171 1.429 . S
C177 C178 1.523 . S
C178 C159 1.368 . S
C178 C172 1.368 . S
C178 C177 1.523 . S
C179 C163 1.429 . S
C179 C175 1.429 . S
C179 C180 1.523 . S
C180 C164 1.368 . S
C180 C176 1.368 . S
C180 C179 1.523 . S
H181 C156 0.950 . S
H182 C158 0.950 . S
H183 C159 0.949 . S
H184 C161 0.950 . S
H185 C163 0.950 . S
C186 C187 1.349 . S
C186 C188 1.327 . S
C186 H211 0.950 . S
C187 C186 1.349 . S
C187 C203 1.349 . S
C188 C186 1.327 . S
C188 C207 1.429 . S
C188 H212 0.950 . S
C189 C206 1.574 . S
C189 C208 1.368 . S
C189 H213 0.949 . S
H190 C194 0.949 . S
C191 C192 1.349 . S
C191 C193 1.327 . S
C191 H214 0.950 . S
C192 C191 1.349 . S
C192 C204 1.349 . S
C193 C191 1.327 . S
C193 C209 1.429 . S
C193 H215 0.950 . S
C194 H190 0.949 . S
C194 C202 1.574 . S
C194 C210 1.368 . S
H195 C203 0.950 . S
H196 C201 0.950 . S
H197 C202 0.949 . S
H198 C204 0.950 . S
H199 C205 0.950 . S
H200 C206 0.949 . S
C201 H196 0.950 . S
C201 C203 1.327 . S
C201 C207 1.429 . S
C202 C194 1.574 . S
C202 H197 0.949 . S
C202 C208 1.368 . S
C203 C187 1.349 . S
C203 H195 0.950 . S
C203 C201 1.327 . S
C204 C192 1.349 . S
C204 H198 0.950 . S
C204 C205 1.327 . S
C205 H199 0.950 . S
C205 C204 1.327 . S
C205 C209 1.429 . S
C206 C189 1.574 . S
C206 H200 0.949 . S
C206 C210 1.368 . S
C207 C188 1.429 . S
C207 C201 1.429 . S
C207 C208 1.523 . S
C208 C189 1.368 . S
C208 C202 1.368 . S
C208 C207 1.523 . S
C209 C193 1.429 . S
C209 C205 1.429 . S
C209 C210 1.523 . S
C210 C194 1.368 . S
C210 C206 1.368 . S
C210 C209 1.523 . S
H211 C186 0.950 . S
H212 C188 0.950 . S
H213 C189 0.949 . S
H214 C191 0.950 . S
H215 C193 0.950 . S
C216 C217 1.349 . S
C216 C218 1.327 . S
C216 H241 0.950 . S
C217 C216 1.349 . S
C217 C233 1.349 . S
C218 C216 1.327 . S
C218 C237 1.429 . S
C218 H242 0.950 . S
C219 C236 1.574 . S
C219 C238 1.368 . S
C219 H243 0.949 . S
H220 C224 0.949 . S
C221 C222 1.349 . S
C221 C223 1.327 . S
C221 H244 0.950 . S
C222 C221 1.349 . S
C222 C234 1.349 . S
C223 C221 1.327 . S
C223 C239 1.429 . S
C223 H245 0.950 . S
C224 H220 0.949 . S
C224 C232 1.574 . S
C224 C240 1.368 . S
H225 C233 0.950 . S
H226 C231 0.950 . S
H227 C232 0.949 . S
H228 C234 0.950 . S
H229 C235 0.950 . S
H230 C236 0.949 . S
C231 H226 0.950 . S
C231 C233 1.327 . S
C231 C237 1.429 . S
C232 C224 1.574 . S
C232 H227 0.949 . S
C232 C238 1.368 . S
C233 C217 1.349 . S
C233 H225 0.950 . S
C233 C231 1.327 . S
C234 C222 1.349 . S
C234 H228 0.950 . S
C234 C235 1.327 . S
C235 H229 0.950 . S
C235 C234 1.327 . S
C235 C239 1.429 . S
C236 C219 1.574 . S
C236 H230 0.949 . S
C236 C240 1.368 . S
C237 C218 1.429 . S
C237 C231 1.429 . S
C237 C238 1.523 . S
C238 C219 1.368 . S
C238 C232 1.368 . S
C238 C237 1.523 . S
C239 C223 1.429 . S
C239 C235 1.429 . S
C239 C240 1.523 . S
C240 C224 1.368 . S
C240 C236 1.368 . S
C240 C239 1.523 . S
H241 C216 0.950 . S
H242 C218 0.950 . S
H243 C219 0.949 . S
H244 C221 0.950 . S
H245 C223 0.950 . S
C246 C247 1.349 . S
C246 C248 1.327 . S
C246 H271 0.950 . S
C247 C246 1.349 . S
C247 C263 1.349 . S
C248 C246 1.327 . S
C248 C267 1.429 . S
C248 H272 0.950 . S
C249 C266 1.574 . S
C249 C268 1.368 . S
C249 H273 0.949 . S
H250 C254 0.949 . S
C251 C252 1.349 . S
C251 C253 1.327 . S
C251 H274 0.950 . S
C252 C251 1.349 . S
C252 C264 1.349 . S
C253 C251 1.327 . S
C253 C269 1.429 . S
C253 H275 0.950 . S
C254 H250 0.949 . S
C254 C262 1.574 . S
C254 C270 1.368 . S
H255 C263 0.950 . S
H256 C261 0.950 . S
H257 C262 0.949 . S
H258 C264 0.950 . S
H259 C265 0.950 . S
H260 C266 0.949 . S
C261 H256 0.950 . S
C261 C263 1.327 . S
C261 C267 1.429 . S
C262 C254 1.574 . S
C262 H257 0.949 . S
C262 C268 1.368 . S
C263 C247 1.349 . S
C263 H255 0.950 . S
C263 C261 1.327 . S
C264 C252 1.349 . S
C264 H258 0.950 . S
C264 C265 1.327 . S
C265 H259 0.950 . S
C265 C264 1.327 . S
C265 C269 1.429 . S
C266 C249 1.574 . S
C266 H260 0.949 . S
C266 C270 1.368 . S
C267 C248 1.429 . S
C267 C261 1.429 . S
C267 C268 1.523 . S
C268 C249 1.368 . S
C268 C262 1.368 . S
C268 C267 1.523 . S
C269 C253 1.429 . S
C269 C265 1.429 . S
C269 C270 1.523 . S
C270 C254 1.368 . S
C270 C266 1.368 . S
C270 C269 1.523 . S
H271 C246 0.950 . S
H272 C248 0.950 . S
H273 C249 0.949 . S
H274 C251 0.950 . S
H275 C253 0.950 . S
C276 C277 1.349 1_556 S
C276 C278 1.327 . S
C276 H301 0.950 . S
C277 C276 1.349 1_554 S
C277 C293 1.349 . S
C278 C276 1.327 . S
C278 C297 1.429 . S
C278 H302 0.950 . S
C279 C296 1.574 . S
C279 C298 1.368 . S
C279 H303 0.949 . S
H280 C284 0.949 . S
C281 C282 1.349 . S
C281 C283 1.327 . S
C281 H304 0.950 . S
C282 C281 1.349 . S
C282 C294 1.349 . S
C283 C281 1.327 . S
C283 C299 1.429 . S
C283 H305 0.950 . S
C284 H280 0.949 . S
C284 C292 1.574 . S
C284 C300 1.368 . S
H285 C293 0.950 . S
H286 C291 0.950 . S
H287 C292 0.949 . S
H288 C294 0.950 . S
H289 C295 0.950 . S
H290 C296 0.949 . S
C291 H286 0.950 . S
C291 C293 1.327 . S
C291 C297 1.429 1_554 S
C292 C284 1.574 . S
C292 H287 0.949 . S
C292 C298 1.368 . S
C293 C277 1.349 . S
C293 H285 0.950 . S
C293 C291 1.327 . S
C294 C282 1.349 . S
C294 H288 0.950 . S
C294 C295 1.327 . S
C295 H289 0.950 . S
C295 C294 1.327 . S
C295 C299 1.429 . S
C296 C279 1.574 . S
C296 H290 0.949 . S
C296 C300 1.368 . S
C297 C278 1.429 . S
C297 C291 1.429 1_556 S
C297 C298 1.523 . S
C298 C279 1.368 . S
C298 C292 1.368 . S
C298 C297 1.523 . S
C299 C283 1.429 . S
C299 C295 1.429 . S
C299 C300 1.523 . S
C300 C284 1.368 . S
C300 C296 1.368 . S
C300 C299 1.523 . S
H301 C276 0.950 . S
H302 C278 0.950 . S
H303 C279 0.949 . S
H304 C281 0.950 . S
H305 C283 0.950 . S
C306 C307 1.349 . S
C306 C308 1.327 . S
C306 H331 0.950 1_556 S
C307 C306 1.349 . S
C307 C323 1.349 . S
C308 C306 1.327 . S
C308 C327 1.429 . S
C308 H332 0.950 . S
C309 C326 1.574 . S
C309 C328 1.368 . S
C309 H333 0.949 . S
H310 C314 0.949 . S
C311 C312 1.349 . S
C311 C313 1.327 . S
C311 H334 0.950 . S
C312 C311 1.349 . S
C312 C324 1.349 . S
C313 C311 1.327 . S
C313 C329 1.429 . S
C313 H335 0.950 . S
C314 H310 0.949 . S
C314 C322 1.574 . S
C314 C330 1.368 . S
H315 C323 0.950 . S
H316 C321 0.950 . S
H317 C322 0.949 . S
H318 C324 0.950 . S
H319 C325 0.950 . S
H320 C326 0.949 . S
C321 H316 0.950 . S
C321 C323 1.327 . S
C321 C327 1.429 . S
C322 C314 1.574 . S
C322 H317 0.949 . S
C322 C328 1.368 . S
C323 C307 1.349 . S
C323 H315 0.950 . S
C323 C321 1.327 . S
C324 C312 1.349 . S
C324 H318 0.950 . S
C324 C325 1.327 . S
C325 H319 0.950 . S
C325 C324 1.327 . S
C325 C329 1.429 . S
C326 C309 1.574 . S
C326 H320 0.949 . S
C326 C330 1.368 . S
C327 C308 1.429 . S
C327 C321 1.429 . S
C327 C328 1.523 . S
C328 C309 1.368 . S
C328 C322 1.368 . S
C328 C327 1.523 . S
C329 C313 1.429 . S
C329 C325 1.429 . S
C329 C330 1.523 . S
C330 C314 1.368 . S
C330 C326 1.368 . S
C330 C329 1.523 . S
H331 C306 0.950 1_554 S
H332 C308 0.950 . S
H333 C309 0.949 . S
H334 C311 0.950 . S
H335 C313 0.950 . S
C336 C337 1.349 . S
C336 C338 1.327 . S
C336 H361 0.950 . S
C337 C336 1.349 . S
C337 C353 1.349 1_554 S
C338 C336 1.327 . S
C338 C357 1.429 1_554 S
C338 H362 0.950 . S
C339 C356 1.574 . S
C339 C358 1.368 . S
C339 H363 0.949 . S
H340 C344 0.949 . S
C341 C342 1.349 . S
C341 C343 1.327 . S
C341 H364 0.950 . S
C342 C341 1.349 . S
C342 C354 1.349 . S
C343 C341 1.327 . S
C343 C359 1.429 . S
C343 H365 0.950 . S
C344 H340 0.949 . S
C344 C352 1.574 . S
C344 C360 1.368 . S
H345 C353 0.950 . S
H346 C351 0.950 . S
H347 C352 0.949 . S
H348 C354 0.950 . S
H349 C355 0.950 . S
H350 C356 0.949 . S
C351 H346 0.950 . S
C351 C353 1.327 . S
C351 C357 1.429 . S
C352 C344 1.574 . S
C352 H347 0.949 . S
C352 C358 1.368 . S
C353 C337 1.349 1_556 S
C353 H345 0.950 . S
C353 C351 1.327 . S
C354 C342 1.349 . S
C354 H348 0.950 . S
C354 C355 1.327 . S
C355 H349 0.950 . S
C355 C354 1.327 . S
C355 C359 1.429 . S
C356 C339 1.574 . S
C356 H350 0.949 . S
C356 C360 1.368 . S
C357 C338 1.429 1_556 S
C357 C351 1.429 . S
C357 C358 1.523 . S
C358 C339 1.368 . S
C358 C352 1.368 . S
C358 C357 1.523 . S
C359 C343 1.429 . S
C359 C355 1.429 . S
C359 C360 1.523 . S
C360 C344 1.368 . S
C360 C356 1.368 . S
C360 C359 1.523 . S
H361 C336 0.950 . S
H362 C338 0.950 . S
H363 C339 0.949 . S
H364 C341 0.950 . S
H365 C343 0.950 . S
C366 C367 1.349 . S
C366 C368 1.327 . S
C366 H391 0.950 . S
C367 C366 1.349 . S
C367 C383 1.349 . S
C368 C366 1.327 . S
C368 C387 1.429 . S
C368 H392 0.950 . S
C369 C386 1.574 . S
C369 C388 1.368 . S
C369 H393 0.949 . S
H370 C374 0.949 . S
C371 C372 1.349 . S
C371 C373 1.327 . S
C371 H394 0.950 . S
C372 C371 1.349 . S
C372 C384 1.349 . S
C373 C371 1.327 . S
C373 C389 1.429 . S
C373 H395 0.950 . S
C374 H370 0.949 . S
C374 C382 1.574 . S
C374 C390 1.368 . S
H375 C383 0.950 . S
H376 C381 0.950 . S
H377 C382 0.949 . S
H378 C384 0.950 . S
H379 C385 0.950 . S
H380 C386 0.949 . S
C381 H376 0.950 . S
C381 C383 1.327 . S
C381 C387 1.429 . S
C382 C374 1.574 . S
C382 H377 0.949 . S
C382 C388 1.368 . S
C383 C367 1.349 . S
C383 H375 0.950 . S
C383 C381 1.327 . S
C384 C372 1.349 . S
C384 H378 0.950 . S
C384 C385 1.327 . S
C385 H379 0.950 . S
C385 C384 1.327 . S
C385 C389 1.429 . S
C386 C369 1.574 . S
C386 H380 0.949 . S
C386 C390 1.368 . S
C387 C368 1.429 . S
C387 C381 1.429 . S
C387 C388 1.523 . S
C388 C369 1.368 . S
C388 C382 1.368 . S
C388 C387 1.523 . S
C389 C373 1.429 . S
C389 C385 1.429 . S
C389 C390 1.523 . S
C390 C374 1.368 . S
C390 C386 1.368 . S
C390 C389 1.523 . S
H391 C366 0.950 . S
H392 C368 0.950 . S
H393 C369 0.949 . S
H394 C371 0.950 . S
H395 C373 0.950 . S
C396 C397 1.349 . S
C396 C398 1.327 1_554 S
C396 H421 0.950 1_554 S
C397 C396 1.349 . S
C397 C413 1.349 . S
C398 C396 1.327 1_556 S
C398 C417 1.429 1_556 S
C398 H422 0.950 . S
C399 C416 1.574 1_554 S
C399 C418 1.368 1_554 S
C399 H423 0.949 . S
H400 C404 0.949 . S
C401 C402 1.349 . S
C401 C403 1.327 . S
C401 H424 0.950 . S
C402 C401 1.349 . S
C402 C414 1.349 . S
C403 C401 1.327 . S
C403 C419 1.429 . S
C403 H425 0.950 . S
C404 H400 0.949 . S
C404 C412 1.574 . S
C404 C420 1.368 . S
H405 C413 0.950 . S
H406 C411 0.950 . S
H407 C412 0.949 . S
H408 C414 0.950 . S
H409 C415 0.950 . S
H410 C416 0.949 . S
C411 H406 0.950 . S
C411 C413 1.327 . S
C411 C417 1.429 . S
C412 C404 1.574 . S
C412 H407 0.949 . S
C412 C418 1.368 . S
C413 C397 1.349 . S
C413 H405 0.950 . S
C413 C411 1.327 . S
C414 C402 1.349 . S
C414 H408 0.950 . S
C414 C415 1.327 . S
C415 H409 0.950 . S
C415 C414 1.327 . S
C415 C419 1.429 . S
C416 C399 1.574 1_556 S
C416 H410 0.949 . S
C416 C420 1.368 . S
C417 C398 1.429 1_554 S
C417 C411 1.429 . S
C417 C418 1.523 1_554 S
C418 C399 1.368 1_556 S
C418 C412 1.368 . S
C418 C417 1.523 1_556 S
C419 C403 1.429 . S
C419 C415 1.429 . S
C419 C420 1.523 . S
C420 C404 1.368 . S
C420 C416 1.368 . S
C420 C419 1.523 . S
H421 C396 0.950 1_556 S
H422 C398 0.950 . S
H423 C399 0.949 . S
H424 C401 0.950 . S
H425 C403 0.950 . S
C426 C427 1.349 . S
C426 C428 1.327 . S
C426 H451 0.950 . S
C427 C426 1.349 . S
C427 C443 1.349 . S
C428 C426 1.327 . S
C428 C447 1.429 . S
C428 H452 0.950 . S
C429 C446 1.574 . S
C429 C448 1.368 . S
C429 H453 0.949 . S
H430 C434 0.949 . S
C431 C432 1.349 . S
C431 C433 1.327 . S
C431 H454 0.950 . S
C432 C431 1.349 . S
C432 C444 1.349 . S
C433 C431 1.327 . S
C433 C449 1.429 . S
C433 H455 0.950 . S
C434 H430 0.949 . S
C434 C442 1.574 . S
C434 C450 1.368 . S
H435 C443 0.950 . S
H436 C441 0.950 . S
H437 C442 0.949 . S
H438 C444 0.950 . S
H439 C445 0.950 . S
H440 C446 0.949 . S
C441 H436 0.950 . S
C441 C443 1.327 . S
C441 C447 1.429 . S
C442 C434 1.574 . S
C442 H437 0.949 . S
C442 C448 1.368 . S
C443 C427 1.349 . S
C443 H435 0.950 . S
C443 C441 1.327 . S
C444 C432 1.349 . S
C444 H438 0.950 . S
C444 C445 1.327 . S
C445 H439 0.950 . S
C445 C444 1.327 . S
C445 C449 1.429 . S
C446 C429 1.574 . S
C446 H440 0.949 . S
C446 C450 1.368 . S
C447 C428 1.429 . S
C447 C441 1.429 . S
C447 C448 1.523 . S
C448 C429 1.368 . S
C448 C442 1.368 . S
C448 C447 1.523 . S
C449 C433 1.429 . S
C449 C445 1.429 . S
C449 C450 1.523 . S
C450 C434 1.368 . S
C450 C446 1.368 . S
C450 C449 1.523 . S
H451 C426 0.950 . S
H452 C428 0.950 . S
H453 C429 0.949 . S
H454 C431 0.950 . S
H455 C433 0.950 . S
C97 C8 1.331 . S
C102 C80 1.324 . S
C132 C74 1.718 . S
C127 C29 1.700 . S
C162 C48 1.374 . S
C157 C10 1.388 . S
C192 C94 2.036 . S
C187 C37 2.109 . S
C222 C89 0.257 . S
C217 C18 0.226 . S
C247 C43 2.018 . S
C252 C70 1.963 . S
C277 C21 2.018 . S
C282 C76 1.963 . S
C307 C40 0.226 . S
C312 C83 0.256 . S
C337 C15 2.109 . S
C342 C92 2.036 . S
C367 C32 1.388 . S
C372 C62 1.374 . S
C402 C78 1.718 . S
C397 C7 1.700 . S
C427 C30 1.331 . S
C432 C86 1.323 . S
