# Generated by pormake.
# Topology pts, (4,4)-cn, num edge types: 1
# Building blocks:
#     Node 0, Type 0, BuildingBlock: NAWXER_clean_sbu_0, # of connection points: 4
#     Node 1, Type 0, BuildingBlock: NAWXER_clean_sbu_0, # of connection points: 4
#     Node 2, Type 1, BuildingBlock: UXUYUI_clean_sbu_0, # of connection points: 4
#     Node 3, Type 1, BuildingBlock: UXUYUI_clean_sbu_0, # of connection points: 4
#     Edge 4, Type (0, 1), BuildingBlock: KIFKEQ_clean_linker_1, # of connection points: 2
#     Edge 5, Type (0, 1), BuildingBlock: KIFKEQ_clean_linker_1, # of connection points: 2
#     Edge 6, Type (0, 1), BuildingBlock: KIFKEQ_clean_linker_1, # of connection points: 2
#     Edge 7, Type (0, 1), BuildingBlock: KIFKEQ_clean_linker_1, # of connection points: 2
#     Edge 8, Type (0, 1), BuildingBlock: KIFKEQ_clean_linker_1, # of connection points: 2
#     Edge 9, Type (0, 1), BuildingBlock: KIFKEQ_clean_linker_1, # of connection points: 2
#     Edge 10, Type (0, 1), BuildingBlock: KIFKEQ_clean_linker_1, # of connection points: 2
#     Edge 11, Type (0, 1), BuildingBlock: KIFKEQ_clean_linker_1, # of connection points: 2
# Relax obj value: 0.015
# Max RMSD: 0.059
# Mean RMSD: 0.051
data_MOF--net-pts--node1-NAWXER_clean_sbu_0--node2-UXUYUI_clean_sbu_0--edge1-KIFKEQ_clean_linker_1
_symmetry_space_group_name_H-M    P1
_symmetry_Int_Tables_number       1
_symmetry_cell_setting            triclinic
loop_
_symmetry_equiv_pos_as_xyz
'x, y, z'
_cell_length_a     29.177085
_cell_length_b     29.194661
_cell_length_c     46.672132
_cell_angle_alpha  89.976905
_cell_angle_beta   89.996922
_cell_angle_gamma 90.119166
loop_
_atom_site_label
_atom_site_type_symbol
_atom_site_fract_x
_atom_site_fract_y
_atom_site_fract_z
_atom_type_partial_charge
C0 C 0.44683 0.04723 0.9731 0.0
C1 C 0.56619 0.04403 0.04738 0.0
O2 O 0.45963 1.00702 0.98056 0.0
Zn3 Zn 0.50516 0.97459 0.0098 0.0
O4 O 0.46445 0.08215 0.98523 0.0
Zn5 Zn 0.50643 0.04881 0.01036 0.0
O6 O 0.55183 0.01742 0.98059 0.0
O7 O 0.54679 0.94215 0.98397 0.0
O8 O 0.54961 0.07996 0.03592 0.0
O9 O 0.55197 1.00456 0.0393 0.0
O10 O 0.4626 0.94258 0.03534 0.0
O11 O 0.46008 0.01779 0.03974 0.0
C12 C 0.56457 0.97753 0.97243 0.0
C13 C 0.44607 0.97802 0.0474 0.0
C14 C 0.04134 0.56842 0.47272 0.0
C15 C 0.04095 0.4504 0.54801 0.0
O16 O 1.00146 0.55525 0.48077 0.0
Zn17 Zn 0.97005 0.5097 0.51052 0.0
O18 O 0.07678 0.55116 0.48442 0.0
Zn19 Zn 0.0445 0.50936 0.51033 0.0
O20 O 0.01279 0.4631 0.48129 0.0
O21 O 0.93749 0.46691 0.48529 0.0
O22 O 0.07652 0.46732 0.53618 0.0
O23 O 1.0012 0.46393 0.54007 0.0
O24 O 0.93838 0.55262 0.53604 0.0
O25 O 0.01377 0.55595 0.53946 0.0
C26 C 0.97288 0.44957 0.47358 0.0
C27 C 0.97417 0.56977 0.54748 0.0
Li28 Li 1.0076 0.0511 0.27982 0.0
Li29 Li 1.00707 0.96469 0.27764 0.0
Li30 Li 0.04787 1.00814 0.24204 0.0
Li31 Li 0.96637 1.00738 0.24059 0.0
C32 C 0.10497 0.01106 0.28573 0.0
N33 N 0.19935 0.01788 0.28597 0.0
C34 C 0.1318 0.97174 0.28293 0.0
C35 C 0.126 0.05379 0.28889 0.0
C36 C 0.17952 0.97593 0.28301 0.0
C37 C 0.17381 0.05653 0.28893 0.0
C38 C 0.92842 0.98718 0.30315 0.0
C39 C 0.88144 0.92414 0.31918 0.0
N40 N 0.87818 0.94398 0.34546 0.0
C41 C 0.92452 1.00704 0.33028 0.0
C42 C 0.90659 0.94551 0.29748 0.0
C43 C 0.89897 0.98464 0.3514 0.0
C44 C 0.97628 0.13837 0.29599 0.0
N45 N 1.00267 0.10256 0.30452 0.0
C46 C 0.01717 0.13868 0.34955 0.0
C47 C 0.02293 0.10192 0.33072 0.0
C48 C 0.99031 0.17648 0.34132 0.0
C49 C 0.96978 0.17594 0.31406 0.0
H50 H 0.96023 0.13765 0.27509 0.0
H51 H 0.04304 0.07255 0.3371 0.0
C52 C 0.02178 0.87064 0.28874 0.0
N53 N 0.01192 0.91146 0.30128 0.0
C54 C 0.02909 0.83167 0.3055 0.0
C55 C 0.01697 0.87761 0.34786 0.0
C56 C 0.00996 0.91572 0.33027 0.0
C57 C 0.02679 0.8348 0.33553 0.0
H58 H 0.02508 0.86854 0.26571 0.0
H59 H 1.0036 0.94887 0.33975 0.0
C60 C 0.03141 0.09228 0.22124 0.0
N61 N 0.0805 0.15316 0.18778 0.0
C62 C 0.03322 0.08653 0.19153 0.0
C63 C 0.05424 0.12923 0.23391 0.0
C64 C 0.05836 0.11758 0.17499 0.0
C65 C 0.07892 0.1596 0.21662 0.0
C66 C 0.98776 0.93217 0.21368 0.0
C67 C 0.99448 0.94787 0.1857 0.0
C68 C 0.95964 0.89414 0.21857 0.0
C69 C 0.97261 0.92548 0.16305 0.0
C70 C 0.9384 0.87265 0.19534 0.0
N71 N 0.94524 0.88866 0.1683 0.0
C72 C 0.11082 0.96218 0.20702 0.0
C73 C 0.13339 0.03879 0.21585 0.0
C74 C 0.14967 0.9548 0.19022 0.0
N75 N 0.1029 1.00384 0.21909 0.0
C76 C 0.17276 0.03294 0.19917 0.0
C77 C 0.1812 0.99052 0.18591 0.0
H78 H 0.08714 0.9343 0.21065 0.0
H79 H 0.12753 0.07113 0.22635 0.0
C80 C 0.90921 0.05075 0.20044 0.0
N81 N 0.91315 0.01219 0.21661 0.0
C82 C 0.87132 0.05708 0.1826 0.0
C83 C 0.84175 0.98404 0.1985 0.0
C84 C 0.88006 0.97932 0.21624 0.0
C85 C 0.83705 0.02335 0.18134 0.0
H86 H 0.9354 0.07686 0.20146 0.0
H87 H 0.88325 0.94946 0.22974 0.0
O88 O 0.05829 1.00781 0.28495 0.0
O89 O 0.95377 1.00828 0.28233 0.0
O90 O 1.00672 0.06243 0.23778 0.0
O91 O 1.00852 0.95404 0.23615 0.0
H92 H 0.1159 0.93844 0.28039 0.0
H93 H 0.10563 0.08454 0.29098 0.0
H94 H 0.20078 0.94586 0.28065 0.0
H95 H 0.19061 0.0894 0.29119 0.0
H96 H 0.86463 0.89172 0.31515 0.0
H97 H 0.94116 0.03932 0.335 0.0
H98 H 0.90968 0.92949 0.27669 0.0
H99 H 0.89574 0.99953 0.37252 0.0
H100 H 0.03306 0.13715 0.37049 0.0
H101 H 0.94934 0.20446 0.3066 0.0
H102 H 0.0375 0.79967 0.29505 0.0
H103 H 0.01455 0.88166 0.37088 0.0
H104 H 0.01539 0.05843 0.18133 0.0
H105 H 0.05334 0.13419 0.25685 0.0
H106 H 0.06021 0.11342 0.15199 0.0
H107 H 0.09694 0.18821 0.22615 0.0
H108 H 0.01635 0.97705 0.18154 0.0
H109 H 0.95373 0.8817 0.24009 0.0
H110 H 0.9774 0.93737 0.1413 0.0
H111 H 0.91634 0.84335 0.19883 0.0
H112 H 0.15523 0.92123 0.18102 0.0
H113 H 0.19604 0.06155 0.19644 0.0
H114 H 0.86921 0.08778 0.16964 0.0
H115 H 0.81576 0.9575 0.19853 0.0
Li116 Li 0.96417 0.01099 0.7798 0.0
Li117 Li 0.04834 0.01012 0.78047 0.0
Li118 Li 1.00539 0.05338 0.74249 0.0
Li119 Li 1.0074 0.96918 0.74122 0.0
C120 C 0.98715 0.09066 0.80508 0.0
N121 N 0.94632 0.14418 0.84666 0.0
C122 C 1.00316 0.08943 0.83329 0.0
C123 C 0.95085 0.11963 0.79793 0.0
C124 C 0.98194 0.1166 0.85403 0.0
C125 C 0.93053 0.14627 0.81927 0.0
C126 C 0.02362 0.92219 0.79916 0.0
C127 C 0.0724 0.85589 0.80323 0.0
N128 N 0.05994 0.85134 0.83117 0.0
C129 C 0.01079 0.91645 0.82779 0.0
C130 C 0.05424 0.89134 0.78667 0.0
C131 C 0.02974 0.88059 0.84366 0.0
C132 C 0.86976 0.99761 0.79029 0.0
N133 N 0.91057 1.00635 0.80325 0.0
C134 C 0.87553 1.00107 0.84949 0.0
C135 C 0.91413 1.00799 0.83228 0.0
C136 C 0.83283 0.99193 0.83672 0.0
C137 C 0.83028 0.99044 0.80665 0.0
H138 H 0.868 0.99519 0.76721 0.0
H139 H 0.9471 0.01384 0.84214 0.0
C140 C 0.13927 0.03496 0.79269 0.0
N141 N 0.10174 0.01426 0.8042 0.0
C142 C 0.17833 0.04258 0.80933 0.0
C143 C 0.13923 1.00835 0.84965 0.0
C144 C 0.10101 1.00106 0.83214 0.0
C145 C 0.17856 0.02949 0.83829 0.0
H146 H 0.13854 0.04646 0.77067 0.0
H147 H 0.07034 0.98611 0.84112 0.0
C148 C 0.92595 0.02958 0.7173 0.0
N149 N 0.87178 0.07 0.67586 0.0
C150 C 0.92781 0.01425 0.68896 0.0
C151 C 0.89601 0.06497 0.72464 0.0
C152 C 0.9003 0.03526 0.6683 0.0
C153 C 0.86905 0.08511 0.70337 0.0
C154 C 0.0954 0.99505 0.7231 0.0
C155 C 0.10416 0.01017 0.69521 0.0
C156 C 0.12403 0.96227 0.73553 0.0
C157 C 0.1408 0.99141 0.67996 0.0
C158 C 0.16036 0.94438 0.71961 0.0
N159 N 0.16788 0.95914 0.69237 0.0
C160 C 0.01682 0.14811 0.73187 0.0
C161 C 1.00892 0.10285 0.69006 0.0
C162 C 0.02406 0.18738 0.71532 0.0
N163 N 0.00933 0.10696 0.71907 0.0
C164 C 0.0159 0.14121 0.67268 0.0
C165 C 0.02391 0.18425 0.68525 0.0
H166 H 0.01836 0.1503 0.75497 0.0
H167 H 1.00418 0.06959 0.68037 0.0
C168 C 0.98308 0.87854 0.72684 0.0
N169 N 1.00424 0.9168 0.71671 0.0
C170 C 0.97703 0.84034 0.70917 0.0
C171 C 0.01404 0.88185 0.67079 0.0
C172 C 0.01939 0.91919 0.68921 0.0
C173 C 0.99257 0.84167 0.68068 0.0
H174 H 0.97044 0.87786 0.74862 0.0
H175 H 0.03443 0.95051 0.68127 0.0
O176 O 1.00725 0.064 0.78453 0.0
O177 O 1.0052 0.95702 0.78328 0.0
O178 O 0.95291 0.00968 0.73778 0.0
O179 O 0.05963 0.01309 0.73832 0.0
H180 H 0.0314 0.06747 0.83918 0.0
H181 H 0.93868 0.12172 0.77611 0.0
H182 H 0.99377 0.11573 0.87599 0.0
H183 H 0.90228 0.16871 0.81405 0.0
H184 H 0.09625 0.83188 0.79383 0.0
H185 H 0.98675 0.93963 0.83774 0.0
H186 H 0.06355 0.89439 0.76434 0.0
H187 H 0.02039 0.876 0.86591 0.0
H188 H 0.87911 1.00301 0.87255 0.0
H189 H 0.79832 0.98279 0.79586 0.0
H190 H 0.20762 0.05961 0.79981 0.0
H191 H 0.13799 0.99753 0.87183 0.0
H192 H 0.95052 0.9867 0.68292 0.0
H193 H 0.89341 0.07659 0.74656 0.0
H194 H 0.90166 0.02396 0.64624 0.0
H195 H 0.84586 0.11266 0.70875 0.0
H196 H 0.0827 0.03587 0.68534 0.0
H197 H 0.11866 0.95119 0.75736 0.0
H198 H 0.14774 1.00255 0.65828 0.0
H199 H 0.1827 0.91891 0.72896 0.0
H200 H 0.03083 0.2196 0.726 0.0
H201 H 0.01499 0.13715 0.64962 0.0
H202 H 0.96064 0.81003 0.71781 0.0
H203 H 0.02571 0.88485 0.64884 0.0
H204 H 0.41735 0.0463 0.08243 0.0
H205 H 0.39371 0.90334 0.06338 0.0
H206 H 0.3558 0.04491 0.11721 0.0
H207 H 0.33168 0.90185 0.09893 0.0
H208 H 0.18715 0.94339 0.13523 0.0
H209 H 0.2537 0.93525 0.10402 0.0
H210 H 0.33505 0.01376 0.16379 0.0
H211 H 0.26862 0.02174 0.19507 0.0
C212 C 0.39924 0.01433 0.08583 0.0
C213 C 0.41038 0.97493 0.06996 0.0
C214 C 0.36408 0.01349 0.10602 0.0
C215 C 0.33886 0.97326 0.11095 0.0
C216 C 0.35033 0.93348 0.09546 0.0
C217 C 0.38597 0.93424 0.07525 0.0
C218 C 0.2194 0.95832 0.14195 0.0
C219 C 0.22238 0.98362 0.16756 0.0
C220 C 0.25759 0.95354 0.12406 0.0
C221 C 0.29963 0.97405 0.13132 0.0
C222 C 0.30295 0.99817 0.15734 0.0
C223 C 0.26482 1.0029 0.17522 0.0
H224 H 0.9724 0.42183 0.58293 0.0
H225 H 0.1153 0.3977 0.56394 0.0
H226 H 0.97301 0.35986 0.61733 0.0
H227 H 0.11605 0.33524 0.59923 0.0
H228 H 0.07372 0.1908 0.63545 0.0
H229 H 0.08248 0.25745 0.6043 0.0
H230 H 1.00296 0.33833 0.66362 0.0
H231 H 0.99254 0.27145 0.69409 0.0
C232 C 1.00422 0.40354 0.58629 0.0
C233 C 0.0438 0.41466 0.57053 0.0
C234 C 1.00461 0.36812 0.60628 0.0
C235 C 0.04459 0.34262 0.61116 0.0
C236 C 0.08459 0.35409 0.5958 0.0
C237 C 0.08427 0.38999 0.57576 0.0
C238 C 0.05792 0.22276 0.64178 0.0
C239 C 0.03194 0.22555 0.66714 0.0
C240 C 0.06354 0.26114 0.62412 0.0
C241 C 0.04324 0.30318 0.63138 0.0
C242 C 0.01858 0.30631 0.65721 0.0
C243 C 0.01294 0.26801 0.67483 0.0
H244 H 0.62765 0.11373 0.05852 0.0
H245 H 0.58713 0.97834 0.08609 0.0
H246 H 0.69327 0.11091 0.09137 0.0
H247 H 0.65113 0.97601 0.11913 0.0
H248 H 0.79818 0.95907 0.14657 0.0
H249 H 0.7321 0.96747 0.11526 0.0
H250 H 0.71842 0.10884 0.14126 0.0
H251 H 0.78532 0.10047 0.17239 0.0
C252 C 0.6323 0.08379 0.07191 0.0
C253 C 0.6026 0.04606 0.06945 0.0
C254 C 0.66982 0.08213 0.09074 0.0
C255 C 0.67801 0.04282 0.10752 0.0
C256 C 0.64677 1.00624 0.10596 0.0
C257 C 0.6098 1.00774 0.08711 0.0
C258 C 0.78089 0.99185 0.14578 0.0
C259 C 0.7968 0.02896 0.16212 0.0
C260 C 0.74292 0.99672 0.12784 0.0
C261 C 0.71952 0.03875 0.12594 0.0
C262 C 0.7358 0.07613 0.14201 0.0
C263 C 0.77408 0.07129 0.15988 0.0
H264 H 0.90185 0.62689 0.56095 0.0
H265 H 0.04187 0.59557 0.58371 0.0
H266 H 0.90362 0.69272 0.59374 0.0
H267 H 0.04331 0.65998 0.61637 0.0
H268 H 0.05383 0.80819 0.64175 0.0
H269 H 0.0453 0.74234 0.61038 0.0
H270 H 0.91041 0.71662 0.64502 0.0
H271 H 0.91826 0.78398 0.67587 0.0
C272 C 0.93266 0.63362 0.5732 0.0
C273 C 0.97188 0.6064 0.56941 0.0
C274 C 0.9337 0.67124 0.59198 0.0
C275 C 0.97394 0.6821 0.60725 0.0
C276 C 0.0122 0.6534 0.60437 0.0
C277 C 0.01123 0.61623 0.5857 0.0
C278 C 0.02209 0.78893 0.6425 0.0
C279 C 0.98681 0.8014 0.66141 0.0
C280 C 0.01738 0.75079 0.62472 0.0
C281 C 0.97732 0.72389 0.6254 0.0
C282 C 0.94161 0.73669 0.64393 0.0
C283 C 0.94636 0.77497 0.66182 0.0
H284 H 0.42647 0.98515 0.93199 0.0
H285 H 0.38611 0.11793 0.96389 0.0
H286 H 0.36336 0.98625 0.89809 0.0
H287 H 0.32217 0.119 0.92957 0.0
H288 H 0.18122 0.06234 0.89328 0.0
H289 H 0.24851 0.07277 0.92388 0.0
H290 H 0.33573 0.02734 0.85482 0.0
H291 H 0.26856 0.01613 0.82443 0.0
C292 C 0.40431 0.01488 0.93155 0.0
C293 C 0.41114 0.0514 0.95071 0.0
C294 C 0.36827 0.0156 0.91196 0.0
C295 C 0.33776 0.05267 0.91116 0.0
C296 C 0.34505 0.08984 0.92985 0.0
C297 C 0.38175 0.0894 0.94931 0.0
C298 C 0.21479 0.05457 0.88466 0.0
C299 C 0.21953 0.038 0.85651 0.0
C300 C 0.25333 0.06113 0.90205 0.0
C301 C 0.29739 0.05084 0.89176 0.0
C302 C 0.30218 0.03529 0.86341 0.0
C303 C 0.26374 0.0291 0.84596 0.0
H304 H 0.03741 0.42725 0.43446 0.0
H305 H 0.90198 0.38895 0.46329 0.0
H306 H 0.03851 0.3624 0.40209 0.0
H307 H 0.90351 0.32254 0.43099 0.0
H308 H 0.91307 0.22861 0.35033 0.0
H309 H 0.90529 0.29632 0.38074 0.0
H310 H 0.04606 0.28119 0.40773 0.0
H311 H 0.05449 0.21529 0.37651 0.0
C312 C 1.0077 0.40493 0.43384 0.0
C313 C 0.96979 0.41294 0.45171 0.0
C314 C 1.0085 0.36748 0.41537 0.0
C315 C 0.97157 0.3366 0.41438 0.0
C316 C 0.93256 0.34568 0.43125 0.0
C317 C 0.93163 0.38365 0.44974 0.0
C318 C 0.94248 0.24002 0.36257 0.0
C319 C 0.98453 0.21654 0.36079 0.0
C320 C 0.93781 0.27853 0.38025 0.0
C321 C 0.97513 0.29449 0.39649 0.0
C322 C 0.0168 0.2704 0.39513 0.0
C323 C 0.02148 0.23212 0.37748 0.0
H324 H 0.59341 0.04536 0.93707 0.0
H325 H 0.61731 0.90293 0.95725 0.0
H326 H 0.65592 0.0441 0.90298 0.0
H327 H 0.68035 0.90154 0.92236 0.0
H328 H 0.82567 0.94382 0.88713 0.0
H329 H 0.7584 0.93562 0.91786 0.0
H330 H 0.67817 0.01275 0.85695 0.0
H331 H 0.74561 0.02248 0.82682 0.0
C332 C 0.61178 0.01352 0.93404 0.0
C333 C 0.60045 0.97426 0.95003 0.0
C334 C 0.6475 0.01274 0.91424 0.0
C335 C 0.67312 0.97272 0.90985 0.0
C336 C 0.66141 0.93302 0.92542 0.0
C337 C 0.62517 0.9337 0.94523 0.0
C338 C 0.79371 0.95918 0.88035 0.0
C339 C 0.79123 0.98426 0.85462 0.0
C340 C 0.75499 0.95389 0.89778 0.0
C341 C 0.71296 0.97369 0.88993 0.0
C342 C 0.71017 0.99751 0.86378 0.0
C343 C 0.74879 1.00276 0.84637 0.0
H344 H 0.97359 0.5962 0.43703 0.0
H345 H 0.11567 0.62205 0.45771 0.0
H346 H 0.97471 0.65844 0.40274 0.0
H347 H 0.11691 0.68483 0.42264 0.0
H348 H 0.07386 0.82912 0.3864 0.0
H349 H 0.08204 0.76245 0.41763 0.0
H350 H 1.00668 0.68037 0.35669 0.0
H351 H 0.99703 0.74716 0.32605 0.0
C352 C 1.00533 0.61495 0.43407 0.0
C353 C 0.04454 0.60422 0.45025 0.0
C354 C 1.00602 0.65052 0.41417 0.0
C355 C 0.0459 0.67659 0.40985 0.0
C356 C 0.08554 0.66552 0.42563 0.0
C357 C 0.08495 0.62944 0.44555 0.0
C358 C 0.05889 0.79687 0.37972 0.0
C359 C 0.03436 0.79366 0.35382 0.0
C360 C 0.06416 0.75852 0.39744 0.0
C361 C 0.04487 0.71613 0.38972 0.0
C362 C 0.02154 0.71265 0.36343 0.0
C363 C 0.01633 0.75089 0.34573 0.0
loop_
_geom_bond_atom_site_label_1
_geom_bond_atom_site_label_2
_geom_bond_distance
_geom_bond_site_symmetry_2
_ccdc_geom_bond_type
C0 O2 1.246 . S
C0 O4 1.259 1_565 S
C1 O8 1.251 . S
C1 O9 1.254 1_545 S
O2 C0 1.246 . S
O2 Zn3 2.028 1_556 S
Zn3 O2 2.028 1_554 S
Zn3 O7 2.035 1_554 S
Zn3 O9 2.035 . S
Zn3 O10 2.028 . S
O4 C0 1.259 1_545 S
O4 Zn5 2.035 1_556 S
Zn5 O4 2.035 1_554 S
Zn5 O6 2.028 1_554 S
Zn5 O8 2.028 . S
Zn5 O11 2.035 . S
O6 Zn5 2.028 1_556 S
O6 C12 1.251 . S
O7 Zn3 2.035 1_556 S
O7 C12 1.254 1_565 S
O8 C1 1.251 . S
O8 Zn5 2.028 . S
O9 C1 1.254 1_565 S
O9 Zn3 2.035 . S
O10 Zn3 2.028 . S
O10 C13 1.246 . S
O11 Zn5 2.035 . S
O11 C13 1.259 1_545 S
C12 O6 1.251 . S
C12 O7 1.254 1_545 S
C13 O10 1.246 . S
C13 O11 1.259 1_565 S
C14 O16 1.246 . S
C14 O18 1.259 1_655 S
C15 O22 1.251 . S
C15 O23 1.254 1_455 S
O16 C14 1.246 . S
O16 Zn17 2.028 . S
Zn17 O16 2.028 . S
Zn17 O21 2.035 . S
Zn17 O23 2.035 . S
Zn17 O24 2.028 . S
O18 C14 1.259 1_455 S
O18 Zn19 2.035 . S
Zn19 O18 2.035 . S
Zn19 O20 2.028 . S
Zn19 O22 2.028 . S
Zn19 O25 2.035 . S
O20 Zn19 2.028 . S
O20 C26 1.251 . S
O21 Zn17 2.035 . S
O21 C26 1.254 1_655 S
O22 C15 1.251 . S
O22 Zn19 2.028 . S
O23 C15 1.254 1_655 S
O23 Zn17 2.035 . S
O24 Zn17 2.028 . S
O24 C27 1.246 . S
O25 Zn19 2.035 . S
O25 C27 1.259 1_455 S
C26 O20 1.251 . S
C26 O21 1.254 1_455 S
C27 O24 1.246 . S
C27 O25 1.259 1_655 S
Li28 N45 1.990 . S
Li28 O88 1.956 1_545 S
Li28 O89 1.970 1_455 S
Li28 O90 1.961 1_455 S
Li29 N53 1.990 . S
Li29 O88 1.970 1_655 S
Li29 O89 1.956 1_565 S
Li29 O91 1.961 1_655 S
Li30 N75 1.990 . S
Li30 O88 1.961 1_545 S
Li30 O90 1.956 1_455 S
Li30 O91 1.970 1_545 S
Li31 N81 1.990 . S
Li31 O89 1.961 1_565 S
Li31 O90 1.970 1_565 S
Li31 O91 1.956 1_655 S
C32 C34 1.348 1_545 S
C32 C35 1.356 . S
C32 O88 1.325 1_545 S
N33 C36 1.314 1_545 S
N33 C37 1.279 . S
C34 C32 1.348 1_565 S
C34 C36 1.353 . S
C34 H92 0.929 . S
C35 C32 1.356 . S
C35 C37 1.358 . S
C35 H93 0.930 . S
C36 N33 1.314 1_565 S
C36 C34 1.353 . S
C36 H94 0.930 . S
C37 N33 1.279 . S
C37 C35 1.358 . S
C37 H95 0.930 . S
C38 C41 1.348 . S
C38 C42 1.356 1_545 S
C38 O89 1.325 . S
C39 N40 1.279 . S
C39 C42 1.358 . S
C39 H96 0.930 . S
N40 C39 1.279 . S
N40 C43 1.314 1_565 S
C41 C38 1.348 . S
C41 C43 1.353 . S
C41 H97 0.929 . S
C42 C38 1.356 1_565 S
C42 C39 1.358 . S
C42 H98 0.930 . S
C43 N40 1.314 1_545 S
C43 C41 1.353 . S
C43 H99 0.930 . S
C44 N45 1.314 1_655 S
C44 C49 1.353 . S
C44 H50 0.930 . S
N45 Li28 1.990 . S
N45 C44 1.314 1_455 S
N45 C47 1.279 . S
C46 C47 1.358 . S
C46 C48 1.356 . S
C46 H100 0.930 . S
C47 N45 1.279 . S
C47 C46 1.358 . S
C47 H51 0.930 . S
C48 C46 1.356 . S
C48 C49 1.348 1_455 S
C49 C44 1.353 . S
C49 C48 1.348 1_655 S
C49 H101 0.929 . S
H50 C44 0.930 . S
H51 C47 0.930 . S
C52 N53 1.314 1_455 S
C52 C54 1.353 . S
C52 H58 0.930 . S
N53 Li29 1.990 . S
N53 C52 1.314 1_655 S
N53 C56 1.279 . S
C54 C52 1.353 . S
C54 C57 1.348 . S
C54 H102 0.929 . S
C55 C56 1.358 . S
C55 C57 1.356 1_655 S
C55 H103 0.930 . S
C56 N53 1.279 . S
C56 C55 1.358 . S
C56 H59 0.930 . S
C57 C54 1.348 . S
C57 C55 1.356 1_455 S
H58 C52 0.930 . S
H59 C56 0.930 . S
C60 C62 1.348 1_455 S
C60 C63 1.356 . S
C60 O90 1.325 1_455 S
N61 C64 1.314 1_455 S
N61 C65 1.279 . S
C62 C60 1.348 1_655 S
C62 C64 1.353 . S
C62 H104 0.929 . S
C63 C60 1.356 . S
C63 C65 1.358 . S
C63 H105 0.930 . S
C64 N61 1.314 1_655 S
C64 C62 1.353 . S
C64 H106 0.930 . S
C65 N61 1.279 . S
C65 C63 1.358 . S
C65 H107 0.930 . S
C66 C67 1.348 . S
C66 C68 1.356 1_455 S
C66 O91 1.325 . S
C67 C66 1.348 . S
C67 C69 1.353 . S
C67 H108 0.929 . S
C68 C66 1.356 1_655 S
C68 C70 1.358 . S
C68 H109 0.930 . S
C69 C67 1.353 . S
C69 N71 1.314 1_455 S
C69 H110 0.930 . S
C70 C68 1.358 . S
C70 N71 1.279 . S
C70 H111 0.930 . S
N71 C69 1.314 1_655 S
N71 C70 1.279 . S
C72 C74 1.353 . S
C72 N75 1.314 1_565 S
C72 H78 0.930 . S
C73 N75 1.279 . S
C73 C76 1.358 . S
C73 H79 0.930 . S
C74 C72 1.353 . S
C74 C77 1.348 1_565 S
C74 H112 0.929 . S
N75 Li30 1.990 . S
N75 C72 1.314 1_545 S
N75 C73 1.279 . S
C76 C73 1.358 . S
C76 C77 1.356 . S
C76 H113 0.930 . S
C77 C74 1.348 1_545 S
C77 C76 1.356 . S
H78 C72 0.930 . S
H79 C73 0.930 . S
C80 N81 1.314 1_545 S
C80 C82 1.353 . S
C80 H86 0.930 . S
N81 Li31 1.990 . S
N81 C80 1.314 1_565 S
N81 C84 1.279 . S
C82 C80 1.353 . S
C82 C85 1.348 . S
C82 H114 0.929 . S
C83 C84 1.358 . S
C83 C85 1.356 1_565 S
C83 H115 0.930 . S
C84 N81 1.279 . S
C84 C83 1.358 . S
C84 H87 0.930 . S
C85 C82 1.348 . S
C85 C83 1.356 1_545 S
H86 C80 0.930 . S
H87 C84 0.930 . S
O88 Li28 1.956 1_565 S
O88 Li29 1.970 1_455 S
O88 Li30 1.961 1_565 S
O88 C32 1.325 1_565 S
O89 Li28 1.970 1_655 S
O89 Li29 1.956 1_545 S
O89 Li31 1.961 1_545 S
O89 C38 1.325 . S
O90 Li28 1.961 1_655 S
O90 Li30 1.956 1_655 S
O90 Li31 1.970 1_545 S
O90 C60 1.325 1_655 S
O91 Li29 1.961 1_455 S
O91 Li30 1.970 1_565 S
O91 Li31 1.956 1_455 S
O91 C66 1.325 . S
H92 C34 0.929 . S
H93 C35 0.930 . S
H94 C36 0.930 . S
H95 C37 0.930 . S
H96 C39 0.930 . S
H97 C41 0.929 . S
H98 C42 0.930 . S
H99 C43 0.930 . S
H100 C46 0.930 . S
H101 C49 0.929 . S
H102 C54 0.929 . S
H103 C55 0.930 . S
H104 C62 0.929 . S
H105 C63 0.930 . S
H106 C64 0.930 . S
H107 C65 0.930 . S
H108 C67 0.929 . S
H109 C68 0.930 . S
H110 C69 0.930 . S
H111 C70 0.930 . S
H112 C74 0.929 . S
H113 C76 0.930 . S
H114 C82 0.929 . S
H115 C83 0.930 . S
Li116 N133 1.990 . S
Li116 O176 1.956 1_655 S
Li116 O177 1.970 1_545 S
Li116 O178 1.961 1_545 S
Li117 N141 1.990 . S
Li117 O176 1.970 1_565 S
Li117 O177 1.956 1_455 S
Li117 O179 1.961 1_565 S
Li118 N163 1.990 . S
Li118 O176 1.961 1_655 S
Li118 O178 1.956 1_545 S
Li118 O179 1.970 1_655 S
Li119 N169 1.990 . S
Li119 O177 1.961 1_455 S
Li119 O178 1.970 1_455 S
Li119 O179 1.956 1_565 S
C120 C122 1.348 . S
C120 C123 1.356 1_455 S
C120 O176 1.325 . S
N121 C124 1.314 1_655 S
N121 C125 1.279 . S
C122 C120 1.348 . S
C122 C124 1.353 . S
C122 H180 0.929 . S
C123 C120 1.356 1_655 S
C123 C125 1.358 . S
C123 H181 0.930 . S
C124 N121 1.314 1_455 S
C124 C122 1.353 . S
C124 H182 0.930 . S
C125 N121 1.279 . S
C125 C123 1.358 . S
C125 H183 0.930 . S
C126 C129 1.348 1_455 S
C126 C130 1.356 . S
C126 O177 1.325 1_455 S
C127 N128 1.279 . S
C127 C130 1.358 . S
C127 H184 0.930 . S
N128 C127 1.279 . S
N128 C131 1.314 1_455 S
C129 C126 1.348 1_655 S
C129 C131 1.353 . S
C129 H185 0.929 . S
C130 C126 1.356 . S
C130 C127 1.358 . S
C130 H186 0.930 . S
C131 N128 1.314 1_655 S
C131 C129 1.353 . S
C131 H187 0.930 . S
C132 N133 1.314 1_565 S
C132 C137 1.353 . S
C132 H138 0.930 . S
N133 Li116 1.990 . S
N133 C132 1.314 1_545 S
N133 C135 1.279 . S
C134 C135 1.358 . S
C134 C136 1.356 . S
C134 H188 0.930 . S
C135 N133 1.279 . S
C135 C134 1.358 . S
C135 H139 0.930 . S
C136 C134 1.356 . S
C136 C137 1.348 1_545 S
C137 C132 1.353 . S
C137 C136 1.348 1_565 S
C137 H189 0.929 . S
H138 C132 0.930 . S
H139 C135 0.930 . S
C140 N141 1.314 1_545 S
C140 C142 1.353 . S
C140 H146 0.930 . S
N141 Li117 1.990 . S
N141 C140 1.314 1_565 S
N141 C144 1.279 . S
C142 C140 1.353 . S
C142 C145 1.348 . S
C142 H190 0.929 . S
C143 C144 1.358 . S
C143 C145 1.356 1_565 S
C143 H191 0.930 . S
C144 N141 1.279 . S
C144 C143 1.358 . S
C144 H147 0.930 . S
C145 C142 1.348 . S
C145 C143 1.356 1_545 S
H146 C140 0.930 . S
H147 C144 0.930 . S
C148 C150 1.348 1_545 S
C148 C151 1.356 . S
C148 O178 1.325 1_545 S
N149 C152 1.314 1_545 S
N149 C153 1.279 . S
C150 C148 1.348 1_565 S
C150 C152 1.353 . S
C150 H192 0.929 . S
C151 C148 1.356 . S
C151 C153 1.358 . S
C151 H193 0.930 . S
C152 N149 1.314 1_565 S
C152 C150 1.353 . S
C152 H194 0.930 . S
C153 N149 1.279 . S
C153 C151 1.358 . S
C153 H195 0.930 . S
C154 C155 1.348 . S
C154 C156 1.356 1_545 S
C154 O179 1.325 . S
C155 C154 1.348 . S
C155 C157 1.353 . S
C155 H196 0.929 . S
C156 C154 1.356 1_565 S
C156 C158 1.358 . S
C156 H197 0.930 . S
C157 C155 1.353 . S
C157 N159 1.314 1_545 S
C157 H198 0.930 . S
C158 C156 1.358 . S
C158 N159 1.279 . S
C158 H199 0.930 . S
N159 C157 1.314 1_565 S
N159 C158 1.279 . S
C160 C162 1.353 . S
C160 N163 1.314 1_455 S
C160 H166 0.930 . S
C161 N163 1.279 . S
C161 C164 1.358 . S
C161 H167 0.930 . S
C162 C160 1.353 . S
C162 C165 1.348 . S
C162 H200 0.929 . S
N163 Li118 1.990 . S
N163 C160 1.314 1_655 S
N163 C161 1.279 . S
C164 C161 1.358 . S
C164 C165 1.356 1_655 S
C164 H201 0.930 . S
C165 C162 1.348 . S
C165 C164 1.356 1_455 S
H166 C160 0.930 . S
H167 C161 0.930 . S
C168 N169 1.314 1_655 S
C168 C170 1.353 . S
C168 H174 0.930 . S
N169 Li119 1.990 . S
N169 C168 1.314 1_455 S
N169 C172 1.279 . S
C170 C168 1.353 . S
C170 C173 1.348 1_655 S
C170 H202 0.929 . S
C171 C172 1.358 . S
C171 C173 1.356 . S
C171 H203 0.930 . S
C172 N169 1.279 . S
C172 C171 1.358 . S
C172 H175 0.930 . S
C173 C170 1.348 1_455 S
C173 C171 1.356 . S
H174 C168 0.930 . S
H175 C172 0.930 . S
O176 Li116 1.956 1_455 S
O176 Li117 1.970 1_545 S
O176 Li118 1.961 1_455 S
O176 C120 1.325 . S
O177 Li116 1.970 1_565 S
O177 Li117 1.956 1_655 S
O177 Li119 1.961 1_655 S
O177 C126 1.325 1_655 S
O178 Li116 1.961 1_565 S
O178 Li118 1.956 1_565 S
O178 Li119 1.970 1_655 S
O178 C148 1.325 1_565 S
O179 Li117 1.961 1_545 S
O179 Li118 1.970 1_455 S
O179 Li119 1.956 1_545 S
O179 C154 1.325 . S
H180 C122 0.929 . S
H181 C123 0.930 . S
H182 C124 0.930 . S
H183 C125 0.930 . S
H184 C127 0.930 . S
H185 C129 0.929 . S
H186 C130 0.930 . S
H187 C131 0.930 . S
H188 C134 0.930 . S
H189 C137 0.929 . S
H190 C142 0.929 . S
H191 C143 0.930 . S
H192 C150 0.929 . S
H193 C151 0.930 . S
H194 C152 0.930 . S
H195 C153 0.930 . S
H196 C155 0.929 . S
H197 C156 0.930 . S
H198 C157 0.930 . S
H199 C158 0.930 . S
H200 C162 0.929 . S
H201 C164 0.930 . S
H202 C170 0.929 . S
H203 C171 0.930 . S
H204 C212 0.950 . S
H205 C217 0.950 . S
H206 C214 0.950 . S
H207 C216 0.950 . S
H208 C218 0.950 . S
H209 C220 0.950 . S
H210 C222 0.950 . S
H211 C223 0.950 . S
C212 H204 0.950 . S
C212 C213 1.386 1_545 S
C212 C214 1.391 . S
C213 C212 1.386 1_565 S
C213 C217 1.393 . S
C214 H206 0.950 . S
C214 C212 1.391 . S
C214 C215 1.384 1_545 S
C215 C214 1.384 1_565 S
C215 C216 1.415 . S
C215 C221 1.490 1_565 S
C216 H207 0.950 . S
C216 C215 1.415 . S
C216 C217 1.391 . S
C217 H205 0.950 . S
C217 C213 1.393 . S
C217 C216 1.391 . S
C218 H208 0.950 . S
C218 C219 1.381 1_565 S
C218 C220 1.391 . S
C219 C218 1.381 1_545 S
C219 C223 1.398 . S
C220 H209 0.950 . S
C220 C218 1.391 . S
C220 C221 1.400 1_565 S
C221 C215 1.490 1_545 S
C221 C220 1.400 1_545 S
C221 C222 1.398 . S
C222 H210 0.950 . S
C222 C221 1.398 . S
C222 C223 1.391 . S
C223 H211 0.950 . S
C223 C219 1.398 . S
C223 C222 1.391 . S
H224 C232 0.950 . S
H225 C237 0.950 . S
H226 C234 0.950 . S
H227 C236 0.950 . S
H228 C238 0.950 . S
H229 C240 0.950 . S
H230 C242 0.950 . S
H231 C243 0.950 . S
C232 H224 0.950 . S
C232 C233 1.399 . S
C232 C234 1.391 . S
C233 C232 1.399 . S
C233 C237 1.380 1_655 S
C234 H226 0.950 . S
C234 C232 1.391 . S
C234 C235 1.399 . S
C235 C234 1.399 . S
C235 C236 1.400 1_655 S
C235 C241 1.491 1_655 S
C236 H227 0.950 . S
C236 C235 1.400 1_455 S
C236 C237 1.391 . S
C237 H225 0.950 . S
C237 C233 1.380 1_455 S
C237 C236 1.391 . S
C238 H228 0.950 . S
C238 C239 1.386 . S
C238 C240 1.391 . S
C239 C238 1.386 . S
C239 C243 1.393 1_455 S
C240 H229 0.950 . S
C240 C238 1.391 . S
C240 C241 1.400 . S
C241 C235 1.491 1_455 S
C241 C240 1.400 . S
C241 C242 1.398 1_455 S
C242 H230 0.950 . S
C242 C241 1.398 1_655 S
C242 C243 1.391 . S
C243 H231 0.950 . S
C243 C239 1.393 1_655 S
C243 C242 1.391 . S
H244 C252 0.950 . S
H245 C257 0.950 . S
H246 C254 0.950 . S
H247 C256 0.950 . S
H248 C258 0.950 . S
H249 C260 0.950 . S
H250 C262 0.950 . S
H251 C263 0.950 . S
C252 H244 0.950 . S
C252 C253 1.386 1_545 S
C252 C254 1.391 . S
C253 C252 1.386 1_565 S
C253 C257 1.393 . S
C254 H246 0.950 . S
C254 C252 1.391 . S
C254 C255 1.398 1_545 S
C255 C254 1.398 1_565 S
C255 C256 1.400 . S
C255 C261 1.490 1_565 S
C256 H247 0.950 . S
C256 C255 1.400 . S
C256 C257 1.391 . S
C257 H245 0.950 . S
C257 C253 1.393 . S
C257 C256 1.391 . S
C258 H248 0.950 . S
C258 C259 1.386 1_565 S
C258 C260 1.391 . S
C259 C258 1.386 1_545 S
C259 C263 1.393 . S
C260 H249 0.950 . S
C260 C258 1.391 . S
C260 C261 1.400 1_565 S
C261 C255 1.490 1_545 S
C261 C260 1.400 1_545 S
C261 C262 1.398 . S
C262 H250 0.950 . S
C262 C261 1.398 . S
C262 C263 1.391 . S
C263 H251 0.950 . S
C263 C259 1.393 . S
C263 C262 1.391 . S
H264 C272 0.950 . S
H265 C277 0.950 . S
H266 C274 0.950 . S
H267 C276 0.950 . S
H268 C278 0.950 . S
H269 C280 0.950 . S
H270 C282 0.950 . S
H271 C283 0.950 . S
C272 H264 0.950 . S
C272 C273 1.385 1_655 S
C272 C274 1.391 . S
C273 C272 1.385 1_455 S
C273 C277 1.393 . S
C274 H266 0.950 . S
C274 C272 1.391 . S
C274 C275 1.405 . S
C275 C274 1.405 . S
C275 C276 1.393 1_655 S
C275 C281 1.491 . S
C276 H267 0.950 . S
C276 C275 1.393 1_455 S
C276 C277 1.391 . S
C277 H265 0.950 . S
C277 C273 1.393 . S
C277 C276 1.391 . S
C278 H268 0.950 . S
C278 C279 1.364 1_455 S
C278 C280 1.391 . S
C279 C278 1.364 1_655 S
C279 C283 1.414 . S
C280 H269 0.950 . S
C280 C278 1.391 . S
C280 C281 1.389 1_455 S
C281 C275 1.491 . S
C281 C280 1.389 1_655 S
C281 C282 1.409 . S
C282 H270 0.950 . S
C282 C281 1.409 . S
C282 C283 1.391 . S
C283 H271 0.950 . S
C283 C279 1.414 . S
C283 C282 1.391 . S
H284 C292 0.950 . S
H285 C297 0.950 . S
H286 C294 0.950 . S
H287 C296 0.950 . S
H288 C298 0.950 . S
H289 C300 0.950 . S
H290 C302 0.950 . S
H291 C303 0.950 . S
C292 H284 0.950 . S
C292 C293 1.399 . S
C292 C294 1.391 . S
C293 C292 1.399 . S
C293 C297 1.380 1_565 S
C294 H286 0.950 . S
C294 C292 1.391 . S
C294 C295 1.399 . S
C295 C294 1.399 . S
C295 C296 1.399 1_565 S
C295 C301 1.491 1_565 S
C296 H287 0.950 . S
C296 C295 1.399 1_545 S
C296 C297 1.391 . S
C297 H285 0.950 . S
C297 C293 1.380 1_545 S
C297 C296 1.391 . S
C298 H288 0.950 . S
C298 C299 1.386 . S
C298 C300 1.391 . S
C299 C298 1.386 . S
C299 C303 1.393 1_545 S
C300 H289 0.950 . S
C300 C298 1.391 . S
C300 C301 1.400 . S
C301 C295 1.491 1_545 S
C301 C300 1.400 . S
C301 C302 1.398 1_545 S
C302 H290 0.950 . S
C302 C301 1.398 1_565 S
C302 C303 1.391 . S
C303 H291 0.950 . S
C303 C299 1.393 1_565 S
C303 C302 1.391 . S
H304 C312 0.950 . S
H305 C317 0.950 . S
H306 C314 0.950 . S
H307 C316 0.950 . S
H308 C318 0.950 . S
H309 C320 0.950 . S
H310 C322 0.950 . S
H311 C323 0.950 . S
C312 H304 0.950 . S
C312 C313 1.386 1_455 S
C312 C314 1.391 . S
C313 C312 1.386 1_655 S
C313 C317 1.393 . S
C314 H306 0.950 . S
C314 C312 1.391 . S
C314 C315 1.384 1_455 S
C315 C314 1.384 1_655 S
C315 C316 1.415 . S
C315 C321 1.490 1_655 S
C316 H307 0.950 . S
C316 C315 1.415 . S
C316 C317 1.391 . S
C317 H305 0.950 . S
C317 C313 1.393 . S
C317 C316 1.391 . S
C318 H308 0.950 . S
C318 C319 1.379 1_655 S
C318 C320 1.391 . S
C319 C318 1.379 1_455 S
C319 C323 1.399 . S
C320 H309 0.950 . S
C320 C318 1.391 . S
C320 C321 1.399 1_655 S
C321 C315 1.490 1_455 S
C321 C320 1.399 1_455 S
C321 C322 1.399 . S
C322 H310 0.950 . S
C322 C321 1.399 . S
C322 C323 1.391 . S
C323 H311 0.950 . S
C323 C319 1.399 . S
C323 C322 1.391 . S
H324 C332 0.950 . S
H325 C337 0.950 . S
H326 C334 0.950 . S
H327 C336 0.950 . S
H328 C338 0.950 . S
H329 C340 0.950 . S
H330 C342 0.950 . S
H331 C343 0.950 . S
C332 H324 0.950 . S
C332 C333 1.402 . S
C332 C334 1.391 . S
C333 C332 1.402 . S
C333 C337 1.377 1_545 S
C334 H326 0.950 . S
C334 C332 1.391 . S
C334 C335 1.401 . S
C335 C334 1.401 . S
C335 C336 1.397 1_545 S
C335 C341 1.490 1_545 S
C336 H327 0.950 . S
C336 C335 1.397 1_565 S
C336 C337 1.391 . S
C337 H325 0.950 . S
C337 C333 1.377 1_565 S
C337 C336 1.391 . S
C338 H328 0.950 . S
C338 C339 1.386 . S
C338 C340 1.391 . S
C339 C338 1.386 . S
C339 C343 1.393 1_565 S
C340 H329 0.950 . S
C340 C338 1.391 . S
C340 C341 1.418 . S
C341 C335 1.490 1_565 S
C341 C340 1.418 . S
C341 C342 1.382 1_565 S
C342 H330 0.950 . S
C342 C341 1.382 1_545 S
C342 C343 1.391 . S
C343 H331 0.950 . S
C343 C339 1.393 1_545 S
C343 C342 1.391 . S
H344 C352 0.950 . S
H345 C357 0.950 . S
H346 C354 0.950 . S
H347 C356 0.950 . S
H348 C358 0.950 . S
H349 C360 0.950 . S
H350 C362 0.950 . S
H351 C363 0.950 . S
C352 H344 0.950 . S
C352 C353 1.386 . S
C352 C354 1.391 . S
C353 C352 1.386 . S
C353 C357 1.393 1_655 S
C354 H346 0.950 . S
C354 C352 1.391 . S
C354 C355 1.402 . S
C355 C354 1.402 . S
C355 C356 1.397 1_655 S
C355 C361 1.490 1_655 S
C356 H347 0.950 . S
C356 C355 1.397 1_455 S
C356 C357 1.391 . S
C357 H345 0.950 . S
C357 C353 1.393 1_455 S
C357 C356 1.391 . S
C358 H348 0.950 . S
C358 C359 1.386 . S
C358 C360 1.391 . S
C359 C358 1.386 . S
C359 C363 1.393 1_455 S
C360 H349 0.950 . S
C360 C358 1.391 . S
C360 C361 1.400 . S
C361 C355 1.490 1_455 S
C361 C360 1.400 . S
C361 C362 1.398 1_455 S
C362 H350 0.950 . S
C362 C361 1.398 1_655 S
C362 C363 1.391 . S
C363 H351 0.950 . S
C363 C359 1.393 1_655 S
C363 C362 1.391 . S
C219 C77 1.458 . S
C213 C13 1.454 . S
C239 C165 1.460 . S
C233 C15 1.459 1_655 S
C259 C85 1.458 . S
C253 C1 1.456 1_565 S
C279 C173 1.455 1_655 S
C273 C27 1.456 1_455 S
C299 C145 1.460 . S
C293 C0 1.460 . S
C319 C48 1.458 . S
C313 C26 1.459 1_655 S
C339 C136 1.460 1_565 S
C333 C12 1.465 . S
C353 C14 1.459 . S
C359 C57 1.460 . S
