# Generated by pormake.
# Topology nia, (6,6)-cn, num edge types: 1
# Building blocks:
#     Node 0, Type 0, BuildingBlock: NUHQIS_clean_sbu_0, # of connection points: 6
#     Node 1, Type 0, BuildingBlock: NUHQIS_clean_sbu_0, # of connection points: 6
#     Node 2, Type 1, BuildingBlock: MIDCAF_clean_sbu_0, # of connection points: 6
#     Node 3, Type 1, BuildingBlock: MIDCAF_clean_sbu_0, # of connection points: 6
#     Edge 4, Type (0, 1), BuildingBlock: XUDNAN_clean_linker_2, # of connection points: 2
#     Edge 5, Type (0, 1), BuildingBlock: XUDNAN_clean_linker_2, # of connection points: 2
#     Edge 6, Type (0, 1), BuildingBlock: XUDNAN_clean_linker_2, # of connection points: 2
#     Edge 7, Type (0, 1), BuildingBlock: XUDNAN_clean_linker_2, # of connection points: 2
#     Edge 8, Type (0, 1), BuildingBlock: XUDNAN_clean_linker_2, # of connection points: 2
#     Edge 9, Type (0, 1), BuildingBlock: XUDNAN_clean_linker_2, # of connection points: 2
#     Edge 10, Type (0, 1), BuildingBlock: XUDNAN_clean_linker_2, # of connection points: 2
#     Edge 11, Type (0, 1), BuildingBlock: XUDNAN_clean_linker_2, # of connection points: 2
#     Edge 12, Type (0, 1), BuildingBlock: XUDNAN_clean_linker_2, # of connection points: 2
#     Edge 13, Type (0, 1), BuildingBlock: XUDNAN_clean_linker_2, # of connection points: 2
#     Edge 14, Type (0, 1), BuildingBlock: XUDNAN_clean_linker_2, # of connection points: 2
#     Edge 15, Type (0, 1), BuildingBlock: XUDNAN_clean_linker_2, # of connection points: 2
# Relax obj value: 0.212
# Max RMSD: 0.279
# Mean RMSD: 0.215
data_MOF--net-nia--node1-NUHQIS_clean_sbu_0--node2-MIDCAF_clean_sbu_0--edge1-XUDNAN_clean_linker_2
_symmetry_space_group_name_H-M    P1
_symmetry_Int_Tables_number       1
_symmetry_cell_setting            triclinic
loop_
_symmetry_equiv_pos_as_xyz
'x, y, z'
_cell_length_a     28.363945
_cell_length_b     28.421942
_cell_length_c     33.508672
_cell_angle_alpha  90.264863
_cell_angle_beta   90.300122
_cell_angle_gamma 134.64952
loop_
_atom_site_label
_atom_site_type_symbol
_atom_site_fract_x
_atom_site_fract_y
_atom_site_fract_z
_atom_type_partial_charge
Tb0 Tb 0.99408 0.03828 0.96578 0.0
Eu1 Eu 0.03179 0.98009 0.02906 0.0
C2 C 0.12698 0.07409 0.95822 0.0
C3 C 0.96584 0.91246 0.94381 0.0
C4 C 0.93527 0.10891 0.91459 0.0
C5 C 0.93543 0.18846 0.88815 0.0
C6 C 0.9677 0.16842 0.89511 0.0
C7 C 0.87042 0.07053 0.92829 0.0
C8 C 0.83793 0.09062 0.92127 0.0
C9 C 0.86969 0.14921 0.90039 0.0
C10 C 0.9692 0.08684 0.91751 0.0
O11 O 0.90186 0.95531 0.99453 0.0
O12 O 0.94353 0.95696 0.05379 0.0
O13 O 0.08285 0.08215 0.04759 0.0
O14 O 0.00744 0.08212 0.02373 0.0
C15 C 0.89423 0.93895 0.03222 0.0
O16 O 0.00033 0.90333 0.07026 0.0
O17 O 0.1044 -0.00362 0.06767 0.0
O18 O 0.10318 0.02139 0.97799 0.0
O19 O 0.09918 0.09632 0.96062 0.0
O20 O 0.98827 0.96888 0.93107 0.0
O21 O 0.96694 0.90199 0.98179 0.0
C22 C 0.05351 0.10244 0.04976 0.0
O23 O 0.02218 0.12221 0.94005 0.0
O24 O 0.93274 0.02366 0.92093 0.0
C25 C 0.0788 0.90635 0.09991 0.0
C26 C 0.11938 0.84824 0.13241 0.0
C27 C 0.09358 0.86566 0.15703 0.0
C28 C 0.07342 0.89431 0.14087 0.0
C29 C 0.10372 0.88861 0.07487 0.0
C30 C 0.12383 0.85957 0.09105 0.0
C31 C 0.05976 0.93947 0.0852 0.0
H32 H 0.9618 0.23443 0.87264 0.0
H33 H 0.01775 0.19884 0.8844 0.0
H34 H 0.84432 0.02438 0.94349 0.0
H35 H 0.7872 0.0591 0.9309 0.0
H36 H 0.0904 0.85867 0.189 0.0
H37 H 0.0545 0.90812 0.16058 0.0
H38 H 0.10802 0.89759 0.0431 0.0
H39 H 0.14269 0.84589 0.07122 0.0
Tb40 Tb 0.9948 0.04226 0.52855 0.0
Eu41 Eu 0.04786 0.98325 0.48341 0.0
C42 C 0.95031 0.91135 0.55652 0.0
C43 C 0.12048 0.07489 0.5622 0.0
C44 C 0.91818 0.10629 0.55613 0.0
C45 C 0.8257 0.09146 0.57449 0.0
C46 C 0.85664 0.06928 0.57451 0.0
C47 C 0.94651 0.16423 0.53574 0.0
C48 C 0.9154 0.18647 0.53572 0.0
C49 C 0.85587 0.15145 0.55633 0.0
C50 C 0.95513 0.08807 0.56318 0.0
O51 O 0.03806 0.09403 0.4723 0.0
O52 O 0.11591 0.09056 0.46725 0.0
O53 O 0.97025 0.95938 0.44324 0.0
O54 O 0.9148 0.9689 0.48661 0.0
C55 C 0.09363 0.11682 0.45749 0.0
O56 O 0.08359 0.97471 0.42931 0.0
O57 O 0.06259 0.91731 0.48144 0.0
O58 O 0.95859 0.90189 0.5199 0.0
O59 O 0.97391 0.96887 0.56783 0.0
O60 O 0.09069 0.09462 0.55626 0.0
O61 O 0.10797 0.02879 0.5401 0.0
C62 C 0.91931 0.94995 0.45216 0.0
O63 O 0.92144 0.0253 0.56152 0.0
O64 O 0.01367 0.12476 0.54743 0.0
C65 C 0.13109 0.93106 0.43136 0.0
C66 C 0.21194 0.91777 0.39714 0.0
C67 C 0.22996 0.97816 0.3948 0.0
C68 C 0.1897 0.98477 0.41178 0.0
C69 C 0.11399 0.87156 0.43432 0.0
C70 C 0.15358 0.8648 0.41729 0.0
C71 C 0.08205 0.9315 0.44446 0.0
H72 H 0.77937 0.063 0.59015 0.0
H73 H 0.8338 0.02462 0.59056 0.0
H74 H 0.99405 0.19401 0.52137 0.0
H75 H 0.93992 0.23304 0.52164 0.0
H76 H 0.27469 0.01993 0.37963 0.0
H77 H 0.20351 0.03108 0.40879 0.0
H78 H 0.06834 0.82913 0.44856 0.0
H79 H 0.13691 0.81695 0.41879 0.0
Zn80 Zn 0.34731 0.62498 0.14568 0.0
Zn81 Zn 0.37476 0.63368 0.31906 0.0
Zn82 Zn 0.38418 0.63843 0.24562 0.0
C83 C 0.5089 0.70959 0.30189 0.0
C84 C 0.29789 0.50539 0.30064 0.0
O85 O 0.34059 0.67694 0.22487 0.0
O86 O 0.31884 0.6684 0.15918 0.0
C87 C 0.48562 0.69823 0.18621 0.0
O88 O 0.48772 0.69747 0.26554 0.0
O89 O 0.46895 0.68568 0.33037 0.0
O90 O 0.3097 0.53919 0.3307 0.0
O91 O 0.32159 0.53331 0.26629 0.0
O92 O 0.43104 0.66932 0.17032 0.0
O93 O 0.48659 0.6965 0.22415 0.0
O94 O 0.31137 0.53426 0.2228 0.0
O95 O 0.2828 0.53113 0.15944 0.0
C96 C 0.27601 0.50218 0.1908 0.0
O97 O 0.35984 0.6946 0.2665 0.0
O98 O 0.35194 0.68218 0.33171 0.0
C99 C 0.31877 0.68505 0.19422 0.0
C100 C 0.35142 0.7075 0.30122 0.0
Zn101 Zn 0.66881 0.35764 0.85086 0.0
Zn102 Zn 0.62737 0.37468 0.67641 0.0
Zn103 Zn 0.65399 0.36946 0.74371 0.0
C104 C 0.71524 0.50388 0.70189 0.0
C105 C 0.50715 0.2883 0.71075 0.0
O106 O 0.69143 0.32049 0.74216 0.0
O107 O 0.68083 0.34312 0.79903 0.0
C108 C 0.74336 0.4911 0.81144 0.0
O109 O 0.71757 0.47762 0.7322 0.0
O110 O 0.67491 0.46765 0.67369 0.0
O111 O 0.53101 0.30917 0.67644 0.0
O112 O 0.54549 0.30735 0.74099 0.0
O113 O 0.72422 0.45397 0.84143 0.0
O114 O 0.72443 0.46823 0.77511 0.0
O115 O 0.56158 0.30957 0.78274 0.0
O116 O 0.5714 0.30111 0.84877 0.0
C117 C 0.53664 0.28778 0.81828 0.0
O118 O 0.68557 0.33193 0.70247 0.0
O119 O 0.6661 0.35191 0.64435 0.0
C120 C 0.69332 0.31569 0.77965 0.0
C121 C 0.68772 0.33248 0.66387 0.0
H122 H 0.23026 0.87536 0.11289 0.0
H123 H 0.06158 0.7568 0.19211 0.0
H124 H 0.10236 0.71199 0.22286 0.0
H125 H 0.2296 0.75286 0.09365 0.0
H126 H 0.31853 0.81007 0.09176 0.0
H127 H 0.27923 0.83727 0.07892 0.0
H128 H 0.35196 0.93128 0.13232 0.0
H129 H 0.39081 0.90353 0.14544 0.0
H130 H 0.35113 0.91063 0.18329 0.0
H131 H 0.15825 0.675 0.24228 0.0
H132 H 0.22006 0.64283 0.24454 0.0
H133 H 0.34945 0.78355 0.15166 0.0
C134 C 0.20175 0.83988 0.13664 0.0
C135 C 0.14294 0.81995 0.15024 0.0
C136 C 0.10743 0.77373 0.18164 0.0
C137 C 0.13017 0.74797 0.19931 0.0
C138 C 0.18855 0.76899 0.18532 0.0
C139 C 0.22361 0.81361 0.15452 0.0
C140 C 0.2824 0.82489 0.14314 0.0
C141 C 0.27708 0.80507 0.09928 0.0
C142 C 0.34794 0.89687 0.15156 0.0
C143 C 0.27375 0.77815 0.17144 0.0
C144 C 0.22016 0.74721 0.19613 0.0
C145 C 0.20079 0.69948 0.22344 0.0
C146 C 0.23616 0.68172 0.2247 0.0
C147 C 0.28981 0.7117 0.19874 0.0
C148 C 0.30922 0.76098 0.17228 0.0
H149 H 0.19037 0.04583 0.58615 0.0
H150 H 0.1579 0.17024 0.61522 0.0
H151 H 0.23728 0.21957 0.67127 0.0
H152 H 0.21902 0.02462 0.6918 0.0
H153 H 0.28245 0.02854 0.67623 0.0
H154 H 0.21396 -0.00609 0.64314 0.0
H155 H 0.29559 0.07639 0.58808 0.0
H156 H 0.3637 0.10975 0.62062 0.0
H157 H 0.35784 0.16376 0.59954 0.0
H158 H 0.33402 0.27034 0.71429 0.0
H159 H 0.44545 0.3238 0.73593 0.0
H160 H 0.41232 0.16286 0.68453 0.0
C161 C 0.19905 0.08264 0.60471 0.0
C162 C 0.16788 0.10415 0.59613 0.0
C163 C 0.18115 0.15288 0.62101 0.0
C164 C 0.22563 0.1807 0.65331 0.0
C165 C 0.2559 0.15874 0.66079 0.0
C166 C 0.24319 0.11077 0.63716 0.0
C167 C 0.28837 0.10192 0.64822 0.0
C168 C 0.24856 0.03316 0.66592 0.0
C169 C 0.32877 0.11374 0.61199 0.0
C170 C 0.33178 0.15582 0.67977 0.0
C171 C 0.31089 0.18669 0.68746 0.0
C172 C 0.34931 0.2449 0.7101 0.0
C173 C 0.41228 0.2745 0.72306 0.0
C174 C 0.43553 0.24516 0.71413 0.0
C175 C 0.39363 0.18378 0.69379 0.0
H176 H 0.04009 0.18918 0.05486 0.0
H177 H 0.11025 0.11621 0.11999 0.0
H178 H 0.15502 0.19892 0.17294 0.0
H179 H 0.17809 0.35097 0.06995 0.0
H180 H 0.13823 0.3794 0.07529 0.0
H181 H 0.09802 0.30523 0.04722 0.0
H182 H 0.99482 0.23974 0.09218 0.0
H183 H 0.03494 0.31412 0.12046 0.0
H184 H 0.00421 0.24117 0.14556 0.0
H185 H 0.21609 0.30396 0.20862 0.0
H186 H 0.284 0.42126 0.22516 0.0
H187 H 0.16607 0.42232 0.14387 0.0
C188 C 0.06284 0.18932 0.08098 0.0
C189 C 0.07207 0.14673 0.08326 0.0
C190 C 0.1033 0.149 0.11742 0.0
C191 C 0.1283 0.19534 0.14793 0.0
C192 C 0.12107 0.23868 0.14417 0.0
C193 C 0.08835 0.23565 0.11182 0.0
C194 C 0.09569 0.29377 0.1122 0.0
C195 C 0.12953 0.33474 0.07392 0.0
C196 C 0.02839 0.27079 0.11797 0.0
C197 C 0.14026 0.33134 0.14857 0.0
C198 C 0.15381 0.29842 0.16688 0.0
C199 C 0.20325 0.32886 0.19617 0.0
C200 C 0.24094 0.39516 0.20619 0.0
C201 C 0.22793 0.42957 0.1878 0.0
C202 C 0.17546 0.39633 0.1596 0.0
H203 H 0.81644 0.16122 0.62687 0.0
H204 H 0.83786 0.21022 0.50167 0.0
H205 H 0.79716 0.26262 0.51526 0.0
H206 H 0.67003 0.12106 0.64398 0.0
H207 H 0.6913 0.15915 0.69228 0.0
H208 H 0.72529 0.12728 0.67621 0.0
H209 H 0.84426 0.23808 0.68708 0.0
H210 H 0.82152 0.28119 0.70217 0.0
H211 H 0.87509 0.3101 0.66074 0.0
H212 H 0.75434 0.31016 0.54412 0.0
H213 H 0.71408 0.34846 0.58424 0.0
H214 H 0.72158 0.26735 0.69065 0.0
C215 C 0.81138 0.18176 0.60205 0.0
C216 C 0.82923 0.18074 0.56309 0.0
C217 C 0.82414 0.21031 0.53174 0.0
C218 C 0.80099 0.23997 0.53919 0.0
C219 C 0.78381 0.24001 0.57815 0.0
C220 C 0.78897 0.21172 0.6089 0.0
C221 C 0.7705 0.22062 0.6483 0.0
C222 C 0.71093 0.15311 0.66636 0.0
C223 C 0.83133 0.26481 0.67632 0.0
C224 C 0.75179 0.25641 0.63526 0.0
C225 C 0.76044 0.26785 0.59468 0.0
C226 C 0.74731 0.30115 0.57588 0.0
C227 C 0.72436 0.32268 0.59912 0.0
C228 C 0.71454 0.31092 0.64089 0.0
C229 C 0.72889 0.27756 0.65905 0.0
H230 H 0.86076 0.91633 0.11233 0.0
H231 H 0.77799 0.87145 0.99248 0.0
H232 H 0.66741 0.80522 0.02041 0.0
H233 H 0.721 0.75604 0.15495 0.0
H234 H 0.72535 0.78943 0.20229 0.0
H235 H 0.79935 0.83299 0.17348 0.0
H236 H 0.82078 0.9378 0.17478 0.0
H237 H 0.74694 0.89464 0.20363 0.0
H238 H 0.75704 0.93258 0.15721 0.0
H239 H 0.56817 0.74498 0.05849 0.0
H240 H 0.47976 0.69336 0.10612 0.0
H241 H 0.62072 0.77671 0.20457 0.0
C242 C 0.81921 0.89223 0.09206 0.0
C243 C 0.82815 0.89902 0.05012 0.0
C244 C 0.77269 0.86728 0.0246 0.0
C245 C 0.70951 0.82932 0.04017 0.0
C246 C 0.70239 0.82374 0.08136 0.0
C247 C 0.75525 0.8543 0.10719 0.0
C248 C 0.73258 0.84064 0.15039 0.0
C249 C 0.74533 0.8025 0.17153 0.0
C250 C 0.76634 0.90527 0.17282 0.0
C251 C 0.65868 0.7977 0.14445 0.0
C252 C 0.64326 0.7888 0.10418 0.0
C253 C 0.5794 0.75153 0.09013 0.0
C254 C 0.52938 0.72237 0.11778 0.0
C255 C 0.54277 0.73052 0.1595 0.0
C256 C 0.60864 0.76891 0.17308 0.0
H257 H 0.92322 0.79779 0.55069 0.0
H258 H 0.90494 0.90499 0.63031 0.0
H259 H 0.85324 0.81782 0.68081 0.0
H260 H 0.76976 0.63638 0.57391 0.0
H261 H 0.80156 0.59955 0.57081 0.0
H262 H 0.83874 0.67165 0.542 0.0
H263 H 0.95321 0.73223 0.57399 0.0
H264 H 0.91582 0.6604 0.60335 0.0
H265 H 0.96255 0.73943 0.62757 0.0
H266 H 0.7942 0.71242 0.7206 0.0
H267 H 0.733 0.59914 0.74424 0.0
H268 H 0.7987 0.56727 0.6408 0.0
C269 C 0.90837 0.80302 0.57872 0.0
C270 C 0.9179 0.85815 0.58641 0.0
C271 C 0.89815 0.86319 0.62368 0.0
C272 C 0.86892 0.814 0.65265 0.0
C273 C 0.86057 0.76042 0.64421 0.0
C274 C 0.87997 0.75489 0.60813 0.0
C275 C 0.86416 0.69182 0.60583 0.0
C276 C 0.81568 0.64724 0.57109 0.0
C277 C 0.92774 0.70691 0.60249 0.0
C278 C 0.83165 0.66204 0.64583 0.0
C279 C 0.82996 0.7021 0.66776 0.0
C280 C 0.79669 0.68141 0.70411 0.0
C281 C 0.7627 0.61741 0.71761 0.0
C282 C 0.76357 0.57579 0.69515 0.0
C283 C 0.79959 0.59925 0.65933 0.0
H284 H 0.23795 0.84867 0.4263 0.0
H285 H 0.27281 0.96159 0.32356 0.0
H286 H 0.32185 0.92784 0.28804 0.0
H287 H 0.37976 0.86868 0.41644 0.0
H288 H 0.33114 0.78451 0.43111 0.0
H289 H 0.31171 0.82854 0.45024 0.0
H290 H 0.19076 0.73465 0.42348 0.0
H291 H 0.21005 0.69088 0.40389 0.0
H292 H 0.17683 0.71222 0.37128 0.0
H293 H 0.36378 0.87525 0.26335 0.0
H294 H 0.38534 0.80536 0.25155 0.0
H295 H 0.30068 0.71388 0.3665 0.0
C296 C 0.25649 0.8671 0.39647 0.0
C297 C 0.25131 0.90762 0.37773 0.0
C298 C 0.27709 0.93123 0.33882 0.0
C299 C 0.30469 0.91199 0.31833 0.0
C300 C 0.30582 0.86907 0.33718 0.0
C301 C 0.28212 0.84704 0.37544 0.0
C302 C 0.2814 0.79573 0.38796 0.0
C303 C 0.32882 0.82088 0.42355 0.0
C304 C 0.21057 0.72948 0.39718 0.0
C305 C 0.30707 0.79091 0.35061 0.0
C306 C 0.32284 0.83461 0.32183 0.0
C307 C 0.3502 0.83999 0.2855 0.0
C308 C 0.36104 0.79921 0.27865 0.0
C309 C 0.34119 0.75147 0.30705 0.0
C310 C 0.3148 0.74846 0.34357 0.0
H311 H 0.20624 0.05099 0.94548 0.0
H312 H 0.17912 0.17771 0.91009 0.0
H313 H 0.27257 0.23645 0.86437 0.0
H314 H 0.3825 0.17695 0.94612 0.0
H315 H 0.39219 0.12501 0.92652 0.0
H316 H 0.31967 0.08905 0.95464 0.0
H317 H 0.24526 0.00902 0.89544 0.0
H318 H 0.31786 0.04553 0.86702 0.0
H319 H 0.25663 0.0423 0.84676 0.0
H320 H 0.37331 0.28746 0.82594 0.0
H321 H 0.47985 0.33148 0.80104 0.0
H322 H 0.44286 0.17238 0.85856 0.0
C323 C 0.21979 0.09085 0.92795 0.0
C324 C 0.18494 0.10944 0.93156 0.0
C325 C 0.20471 0.16225 0.90815 0.0
C326 C 0.25766 0.19587 0.88174 0.0
C327 C 0.29075 0.17632 0.87873 0.0
C328 C 0.27305 0.12538 0.9013 0.0
C329 C 0.3198 0.11726 0.89383 0.0
C330 C 0.35566 0.12771 0.93258 0.0
C331 C 0.28265 0.04949 0.87462 0.0
C332 C 0.36738 0.17278 0.86457 0.0
C333 C 0.3489 0.20543 0.85577 0.0
C334 C 0.38739 0.26124 0.83171 0.0
C335 C 0.44719 0.28531 0.81704 0.0
C336 C 0.46757 0.25332 0.82603 0.0
C337 C 0.42689 0.19609 0.84992 0.0
H338 H 0.06709 0.18894 0.43472 0.0
H339 H 0.20019 0.16538 0.41213 0.0
H340 H 0.25753 0.25293 0.36138 0.0
H341 H 0.05541 0.22338 0.33202 0.0
H342 H 0.05491 0.28399 0.34711 0.0
H343 H 0.02106 0.21604 0.37943 0.0
H344 H 0.09948 0.29826 0.43687 0.0
H345 H 0.13264 0.36615 0.40494 0.0
H346 H 0.18748 0.36271 0.42839 0.0
H347 H 0.30593 0.34928 0.31702 0.0
H348 H 0.3461 0.45134 0.28689 0.0
H349 H 0.17992 0.40992 0.33697 0.0
C350 C 0.10791 0.20165 0.41889 0.0
C351 C 0.12897 0.17002 0.42739 0.0
C352 C 0.18312 0.18885 0.40622 0.0
C353 C 0.21571 0.23822 0.3771 0.0
C354 C 0.19344 0.26817 0.36935 0.0
C355 C 0.141 0.25081 0.38984 0.0
C356 C 0.12955 0.29354 0.37797 0.0
C357 C 0.06117 0.25173 0.35794 0.0
C358 C 0.13782 0.33246 0.41419 0.0
C359 C 0.1848 0.33883 0.34829 0.0
C360 C 0.22056 0.32283 0.34326 0.0
C361 C 0.27732 0.36123 0.31992 0.0
C362 C 0.29936 0.41865 0.30247 0.0
C363 C 0.26429 0.43665 0.30801 0.0
C364 C 0.20581 0.39552 0.33072 0.0
H365 H 0.87224 0.1967 0.82888 0.0
H366 H 0.78474 0.14279 0.94635 0.0
H367 H 0.72515 0.17368 0.92655 0.0
H368 H 0.90009 0.33685 0.81461 0.0
H369 H 0.87712 0.32106 0.76269 0.0
H370 H 0.91039 0.29173 0.78478 0.0
H371 H 0.81071 0.17538 0.76106 0.0
H372 H 0.76427 0.19219 0.74224 0.0
H373 H 0.72932 0.1317 0.77978 0.0
H374 H 0.67724 0.21275 0.89359 0.0
H375 H 0.64708 0.25947 0.85208 0.0
H376 H 0.76801 0.29023 0.75604 0.0
C377 C 0.84151 0.1924 0.85082 0.0
C378 C 0.83379 0.16794 0.88934 0.0
C379 C 0.79122 0.16108 0.91658 0.0
C380 C 0.75743 0.17877 0.90564 0.0
C381 C 0.76652 0.20291 0.86734 0.0
C382 C 0.80774 0.20989 0.84057 0.0
C383 C 0.80746 0.23459 0.8009 0.0
C384 C 0.87786 0.29983 0.79005 0.0
C385 C 0.7764 0.18035 0.7691 0.0
C386 C 0.7626 0.24457 0.8098 0.0
C387 C 0.73845 0.22455 0.84819 0.0
C388 C 0.69616 0.2288 0.86361 0.0
C389 C 0.67961 0.25583 0.83972 0.0
C390 C 0.70563 0.27921 0.80079 0.0
C391 C 0.74668 0.27215 0.78535 0.0
H392 H 0.80966 0.93047 0.45453 0.0
H393 H 0.9085 0.896 0.38059 0.0
H394 H 0.81998 0.84116 0.3298 0.0
H395 H 0.64787 0.77785 0.43601 0.0
H396 H 0.61143 0.81018 0.43503 0.0
H397 H 0.68581 0.85207 0.46374 0.0
H398 H 0.74482 0.96025 0.42559 0.0
H399 H 0.6705 0.91844 0.39657 0.0
H400 H 0.74751 0.96021 0.37186 0.0
H401 H 0.71568 0.78218 0.28893 0.0
H402 H 0.60177 0.71964 0.26421 0.0
H403 H 0.5736 0.79475 0.3642 0.0
C404 C 0.81303 0.9119 0.42754 0.0
C405 C 0.86612 0.91765 0.42166 0.0
C406 C 0.86845 0.89243 0.38587 0.0
C407 C 0.81851 0.86139 0.35665 0.0
C408 C 0.76676 0.85637 0.36341 0.0
C409 C 0.76376 0.88099 0.39798 0.0
C410 C 0.70102 0.86597 0.39909 0.0
C411 C 0.65907 0.824 0.43562 0.0
C412 C 0.71694 0.93004 0.39821 0.0
C413 C 0.66811 0.82687 0.36056 0.0
C414 C 0.70712 0.82275 0.33991 0.0
C415 C 0.68505 0.78588 0.30452 0.0
C416 C 0.62069 0.751 0.29046 0.0
C417 C 0.57959 0.75317 0.31206 0.0
C418 C 0.60432 0.79263 0.347 0.0
H419 H 0.87404 0.78111 0.9584 0.0
H420 H -0.00276 0.92272 0.86446 0.0
H421 H 0.9545 0.83081 0.81823 0.0
H422 H 0.89197 0.67268 0.935 0.0
H423 H 0.80754 0.59918 0.94703 0.0
H424 H 0.84832 0.67639 0.97165 0.0
H425 H 0.7538 0.66618 0.94846 0.0
H426 H 0.71263 0.58878 0.92396 0.0
H427 H 0.73288 0.65503 0.8961 0.0
H428 H 0.90107 0.71929 0.78397 0.0
H429 H 0.83667 0.60252 0.76497 0.0
H430 H 0.74414 0.53961 0.88104 0.0
C431 C 0.89216 0.79298 0.9281 0.0
C432 C 0.93922 0.85888 0.91502 0.0
C433 C 0.96097 0.87229 0.87499 0.0
C434 C 0.93717 0.82048 0.84864 0.0
C435 C 0.89098 0.75575 0.86274 0.0
C436 C 0.86825 0.74223 0.9015 0.0
C437 C 0.81796 0.6692 0.90978 0.0
C438 C 0.84296 0.65347 0.94281 0.0
C439 C 0.75033 0.6433 0.92017 0.0
C440 C 0.81578 0.64323 0.8698 0.0
C441 C 0.85851 0.6933 0.84289 0.0
C442 C 0.86648 0.67978 0.80468 0.0
C443 C 0.82928 0.61338 0.7939 0.0
C444 C 0.78385 0.5617 0.82093 0.0
C445 C 0.77781 0.5776 0.8593 0.0
loop_
_geom_bond_atom_site_label_1
_geom_bond_atom_site_label_2
_geom_bond_distance
_geom_bond_site_symmetry_2
_ccdc_geom_bond_type
Tb0 C10 2.825 . S
Tb0 O11 2.347 1_546 S
Tb0 O14 2.361 1_656 S
Tb0 O19 2.418 1_655 S
Tb0 O20 2.384 1_545 S
Tb0 O23 2.479 . S
Tb0 O24 2.471 . S
Eu1 O12 2.418 1_455 S
Eu1 O13 2.384 1_565 S
Eu1 O16 2.479 . S
Eu1 O17 2.471 . S
Eu1 O18 2.347 1_564 S
Eu1 O21 2.366 1_455 S
Eu1 C31 2.825 . S
C2 O18 1.259 . S
C2 O19 1.265 . S
C3 O20 1.255 . S
C3 O21 1.265 1_556 S
C4 C6 1.380 . S
C4 C7 1.374 . S
C4 C10 1.507 . S
C5 C6 1.384 . S
C5 C9 1.387 . S
C5 H32 0.930 . S
C6 C4 1.380 . S
C6 C5 1.384 . S
C6 H33 0.931 . S
C7 C4 1.374 . S
C7 C8 1.390 . S
C7 H34 0.930 . S
C8 C7 1.390 . S
C8 C9 1.391 . S
C8 H35 0.930 . S
C9 C5 1.387 . S
C9 C8 1.391 . S
C10 Tb0 2.825 . S
C10 C4 1.507 . S
C10 O23 1.238 . S
C10 O24 1.247 . S
O11 Tb0 2.347 1_564 S
O11 C15 1.259 . S
O12 Eu1 2.418 1_655 S
O12 C15 1.265 . S
O13 Eu1 2.384 1_545 S
O13 C22 1.255 . S
O14 Tb0 2.361 1_454 S
O14 C22 1.273 . S
C15 O11 1.259 . S
C15 O12 1.265 . S
O16 Eu1 2.479 . S
O16 C31 1.238 . S
O17 Eu1 2.471 . S
O17 C31 1.247 . S
O18 Eu1 2.347 1_546 S
O18 C2 1.259 . S
O19 Tb0 2.418 1_455 S
O19 C2 1.265 . S
O20 Tb0 2.384 1_565 S
O20 C3 1.255 . S
O21 Eu1 2.366 1_655 S
O21 C3 1.265 1_554 S
C22 O13 1.255 . S
C22 O14 1.273 . S
O23 Tb0 2.479 . S
O23 C10 1.238 . S
O24 Tb0 2.471 . S
O24 C10 1.247 . S
C25 C28 1.380 . S
C25 C29 1.374 . S
C25 C31 1.507 . S
C26 C27 1.387 . S
C26 C30 1.391 . S
C27 C26 1.387 . S
C27 C28 1.384 . S
C27 H36 0.930 . S
C28 C25 1.380 . S
C28 C27 1.384 . S
C28 H37 0.931 . S
C29 C25 1.374 . S
C29 C30 1.390 . S
C29 H38 0.930 . S
C30 C26 1.391 . S
C30 C29 1.390 . S
C30 H39 0.930 . S
C31 Eu1 2.825 . S
C31 O16 1.238 . S
C31 O17 1.247 . S
C31 C25 1.507 . S
H32 C5 0.930 . S
H33 C6 0.931 . S
H34 C7 0.930 . S
H35 C8 0.930 . S
H36 C27 0.930 . S
H37 C28 0.931 . S
H38 C29 0.930 . S
H39 C30 0.930 . S
Tb40 C50 2.825 1_455 S
Tb40 O51 2.347 . S
Tb40 O54 2.366 1_445 S
Tb40 O59 2.418 1_445 S
Tb40 O60 2.384 . S
Tb40 O63 2.479 1_455 S
Tb40 O64 2.471 1_455 S
Eu41 O52 2.418 1_565 S
Eu41 O53 2.384 1_455 S
Eu41 O56 2.479 . S
Eu41 O57 2.471 . S
Eu41 O58 2.347 1_455 S
Eu41 O61 2.366 1_565 S
Eu41 C71 2.825 . S
C42 O58 1.259 . S
C42 O59 1.265 . S
C43 O60 1.255 . S
C43 O61 1.265 . S
C44 C46 1.380 . S
C44 C47 1.374 . S
C44 C50 1.507 . S
C45 C46 1.384 . S
C45 C49 1.387 . S
C45 H72 0.930 . S
C46 C44 1.380 . S
C46 C45 1.384 . S
C46 H73 0.931 . S
C47 C44 1.374 . S
C47 C48 1.390 . S
C47 H74 0.930 . S
C48 C47 1.390 . S
C48 C49 1.391 . S
C48 H75 0.930 . S
C49 C45 1.387 . S
C49 C48 1.391 . S
C50 Tb40 2.825 1_655 S
C50 C44 1.507 . S
C50 O63 1.238 . S
C50 O64 1.247 . S
O51 Tb40 2.347 . S
O51 C55 1.259 . S
O52 Eu41 2.418 1_545 S
O52 C55 1.265 . S
O53 Eu41 2.384 1_655 S
O53 C62 1.255 . S
O54 Tb40 2.366 1_665 S
O54 C62 1.265 . S
C55 O51 1.259 . S
C55 O52 1.265 . S
O56 Eu41 2.479 . S
O56 C71 1.238 . S
O57 Eu41 2.471 . S
O57 C71 1.247 . S
O58 Eu41 2.347 1_655 S
O58 C42 1.259 . S
O59 Tb40 2.418 1_665 S
O59 C42 1.265 . S
O60 Tb40 2.384 . S
O60 C43 1.255 . S
O61 Eu41 2.366 1_545 S
O61 C43 1.265 . S
C62 O53 1.255 . S
C62 O54 1.265 . S
O63 Tb40 2.479 1_655 S
O63 C50 1.238 . S
O64 Tb40 2.471 1_655 S
O64 C50 1.247 . S
C65 C68 1.380 . S
C65 C69 1.374 . S
C65 C71 1.507 . S
C66 C67 1.387 . S
C66 C70 1.391 . S
C67 C66 1.387 . S
C67 C68 1.384 . S
C67 H76 0.930 . S
C68 C65 1.380 . S
C68 C67 1.384 . S
C68 H77 0.931 . S
C69 C65 1.374 . S
C69 C70 1.390 . S
C69 H78 0.930 . S
C70 C66 1.391 . S
C70 C69 1.390 . S
C70 H79 0.930 . S
C71 Eu41 2.825 . S
C71 O56 1.238 . S
C71 O57 1.247 . S
C71 C65 1.507 . S
H72 C45 0.930 . S
H73 C46 0.931 . S
H74 C47 0.930 . S
H75 C48 0.930 . S
H76 C67 0.930 . S
H77 C68 0.931 . S
H78 C69 0.930 . S
H79 C70 0.930 . S
Zn80 O86 1.920 . S
Zn80 O92 1.898 . S
Zn80 O95 1.905 . S
Zn81 O89 1.905 . S
Zn81 O90 1.898 . S
Zn81 O98 1.920 . S
Zn82 O85 2.080 . S
Zn82 O88 2.114 . S
Zn82 O91 2.120 . S
Zn82 O93 2.120 . S
Zn82 O94 2.114 . S
Zn82 O97 2.080 . S
C83 O88 1.166 . S
C83 O89 1.182 . S
C84 O90 1.167 . S
C84 O91 1.299 . S
O85 Zn82 2.080 . S
O85 C99 1.305 . S
O86 Zn80 1.920 . S
O86 C99 1.234 . S
C87 O92 1.167 . S
C87 O93 1.299 . S
O88 Zn82 2.114 . S
O88 C83 1.166 . S
O89 Zn81 1.905 . S
O89 C83 1.182 . S
O90 Zn81 1.898 . S
O90 C84 1.167 . S
O91 Zn82 2.120 . S
O91 C84 1.299 . S
O92 Zn80 1.898 . S
O92 C87 1.167 . S
O93 Zn82 2.120 . S
O93 C87 1.299 . S
O94 Zn82 2.114 . S
O94 C96 1.166 . S
O95 Zn80 1.905 . S
O95 C96 1.182 . S
C96 O94 1.166 . S
C96 O95 1.182 . S
O97 Zn82 2.080 . S
O97 C100 1.305 . S
O98 Zn81 1.920 . S
O98 C100 1.234 . S
C99 O85 1.305 . S
C99 O86 1.234 . S
C100 O97 1.305 . S
C100 O98 1.234 . S
Zn101 O107 1.920 . S
Zn101 O113 1.898 . S
Zn101 O116 1.905 . S
Zn102 O110 1.905 . S
Zn102 O111 1.898 . S
Zn102 O119 1.920 . S
Zn103 O106 2.080 . S
Zn103 O109 2.114 . S
Zn103 O112 2.120 . S
Zn103 O114 2.120 . S
Zn103 O115 2.114 . S
Zn103 O118 2.080 . S
C104 O109 1.166 . S
C104 O110 1.182 . S
C105 O111 1.167 . S
C105 O112 1.299 . S
O106 Zn103 2.080 . S
O106 C120 1.305 . S
O107 Zn101 1.920 . S
O107 C120 1.234 . S
C108 O113 1.167 . S
C108 O114 1.299 . S
O109 Zn103 2.114 . S
O109 C104 1.166 . S
O110 Zn102 1.905 . S
O110 C104 1.182 . S
O111 Zn102 1.898 . S
O111 C105 1.167 . S
O112 Zn103 2.120 . S
O112 C105 1.299 . S
O113 Zn101 1.898 . S
O113 C108 1.167 . S
O114 Zn103 2.120 . S
O114 C108 1.299 . S
O115 Zn103 2.114 . S
O115 C117 1.166 . S
O116 Zn101 1.905 . S
O116 C117 1.182 . S
C117 O115 1.166 . S
C117 O116 1.182 . S
O118 Zn103 2.080 . S
O118 C121 1.305 . S
O119 Zn102 1.920 . S
O119 C121 1.234 . S
C120 O106 1.305 . S
C120 O107 1.234 . S
C121 O118 1.305 . S
C121 O119 1.234 . S
H122 C134 0.930 . S
H123 C136 0.930 . S
H124 C137 0.930 . S
H125 C141 0.959 . S
H126 C141 0.959 . S
H127 C141 0.961 . S
H128 C142 0.960 . S
H129 C142 0.961 . S
H130 C142 0.959 . S
H131 C145 0.929 . S
H132 C146 0.931 . S
H133 C148 0.930 . S
C134 H122 0.930 . S
C134 C135 1.399 . S
C134 C139 1.399 . S
C135 C134 1.399 . S
C135 C136 1.376 . S
C136 H123 0.930 . S
C136 C135 1.376 . S
C136 C137 1.388 . S
C137 H124 0.930 . S
C137 C136 1.388 . S
C137 C138 1.390 . S
C138 C137 1.390 . S
C138 C139 1.394 . S
C138 C144 1.465 . S
C139 C134 1.399 . S
C139 C138 1.394 . S
C139 C140 1.516 . S
C140 C139 1.516 . S
C140 C141 1.502 . S
C140 C142 1.561 . S
C140 C143 1.526 . S
C141 H125 0.959 . S
C141 H126 0.959 . S
C141 H127 0.961 . S
C141 C140 1.502 . S
C142 H128 0.960 . S
C142 H129 0.961 . S
C142 H130 0.959 . S
C142 C140 1.561 . S
C143 C140 1.526 . S
C143 C144 1.396 . S
C143 C148 1.390 . S
C144 C138 1.465 . S
C144 C143 1.396 . S
C144 C145 1.399 . S
C145 H131 0.929 . S
C145 C144 1.399 . S
C145 C146 1.385 . S
C146 H132 0.931 . S
C146 C145 1.385 . S
C146 C147 1.389 . S
C147 C146 1.389 . S
C147 C148 1.387 . S
C148 H133 0.930 . S
C148 C143 1.390 . S
C148 C147 1.387 . S
H149 C161 0.930 . S
H150 C163 0.930 . S
H151 C164 0.930 . S
H152 C168 0.959 . S
H153 C168 0.959 . S
H154 C168 0.961 . S
H155 C169 0.960 . S
H156 C169 0.961 . S
H157 C169 0.959 . S
H158 C172 0.929 . S
H159 C173 0.931 . S
H160 C175 0.930 . S
C161 H149 0.930 . S
C161 C162 1.399 . S
C161 C166 1.399 . S
C162 C161 1.399 . S
C162 C163 1.376 . S
C163 H150 0.930 . S
C163 C162 1.376 . S
C163 C164 1.388 . S
C164 H151 0.930 . S
C164 C163 1.388 . S
C164 C165 1.390 . S
C165 C164 1.390 . S
C165 C166 1.394 . S
C165 C171 1.465 . S
C166 C161 1.399 . S
C166 C165 1.394 . S
C166 C167 1.516 . S
C167 C166 1.516 . S
C167 C168 1.502 . S
C167 C169 1.561 . S
C167 C170 1.526 . S
C168 H152 0.959 . S
C168 H153 0.959 . S
C168 H154 0.961 . S
C168 C167 1.502 . S
C169 H155 0.960 . S
C169 H156 0.961 . S
C169 H157 0.959 . S
C169 C167 1.561 . S
C170 C167 1.526 . S
C170 C171 1.396 . S
C170 C175 1.390 . S
C171 C165 1.465 . S
C171 C170 1.396 . S
C171 C172 1.399 . S
C172 H158 0.929 . S
C172 C171 1.399 . S
C172 C173 1.385 . S
C173 H159 0.931 . S
C173 C172 1.385 . S
C173 C174 1.389 . S
C174 C173 1.389 . S
C174 C175 1.387 . S
C175 H160 0.930 . S
C175 C170 1.390 . S
C175 C174 1.387 . S
H176 C188 0.930 . S
H177 C190 0.930 . S
H178 C191 0.930 . S
H179 C195 0.959 . S
H180 C195 0.959 . S
H181 C195 0.961 . S
H182 C196 0.960 . S
H183 C196 0.961 . S
H184 C196 0.959 . S
H185 C199 0.929 . S
H186 C200 0.931 . S
H187 C202 0.930 . S
C188 H176 0.930 . S
C188 C189 1.399 . S
C188 C193 1.399 . S
C189 C188 1.399 . S
C189 C190 1.376 . S
C190 H177 0.930 . S
C190 C189 1.376 . S
C190 C191 1.388 . S
C191 H178 0.930 . S
C191 C190 1.388 . S
C191 C192 1.390 . S
C192 C191 1.390 . S
C192 C193 1.394 . S
C192 C198 1.465 . S
C193 C188 1.399 . S
C193 C192 1.394 . S
C193 C194 1.516 . S
C194 C193 1.516 . S
C194 C195 1.502 . S
C194 C196 1.561 . S
C194 C197 1.526 . S
C195 H179 0.959 . S
C195 H180 0.959 . S
C195 H181 0.961 . S
C195 C194 1.502 . S
C196 H182 0.960 . S
C196 H183 0.961 . S
C196 H184 0.959 . S
C196 C194 1.561 . S
C197 C194 1.526 . S
C197 C198 1.396 . S
C197 C202 1.390 . S
C198 C192 1.465 . S
C198 C197 1.396 . S
C198 C199 1.399 . S
C199 H185 0.929 . S
C199 C198 1.399 . S
C199 C200 1.385 . S
C200 H186 0.931 . S
C200 C199 1.385 . S
C200 C201 1.389 . S
C201 C200 1.389 . S
C201 C202 1.387 . S
C202 H187 0.930 . S
C202 C197 1.390 . S
C202 C201 1.387 . S
H203 C215 0.930 . S
H204 C217 0.930 . S
H205 C218 0.930 . S
H206 C222 0.959 . S
H207 C222 0.959 . S
H208 C222 0.961 . S
H209 C223 0.960 . S
H210 C223 0.961 . S
H211 C223 0.959 . S
H212 C226 0.929 . S
H213 C227 0.931 . S
H214 C229 0.930 . S
C215 H203 0.930 . S
C215 C216 1.399 . S
C215 C220 1.399 . S
C216 C215 1.399 . S
C216 C217 1.376 . S
C217 H204 0.930 . S
C217 C216 1.376 . S
C217 C218 1.388 . S
C218 H205 0.930 . S
C218 C217 1.388 . S
C218 C219 1.390 . S
C219 C218 1.390 . S
C219 C220 1.394 . S
C219 C225 1.465 . S
C220 C215 1.399 . S
C220 C219 1.394 . S
C220 C221 1.516 . S
C221 C220 1.516 . S
C221 C222 1.502 . S
C221 C223 1.561 . S
C221 C224 1.526 . S
C222 H206 0.959 . S
C222 H207 0.959 . S
C222 H208 0.961 . S
C222 C221 1.502 . S
C223 H209 0.960 . S
C223 H210 0.961 . S
C223 H211 0.959 . S
C223 C221 1.561 . S
C224 C221 1.526 . S
C224 C225 1.396 . S
C224 C229 1.390 . S
C225 C219 1.465 . S
C225 C224 1.396 . S
C225 C226 1.399 . S
C226 H212 0.929 . S
C226 C225 1.399 . S
C226 C227 1.385 . S
C227 H213 0.931 . S
C227 C226 1.385 . S
C227 C228 1.389 . S
C228 C227 1.389 . S
C228 C229 1.387 . S
C229 H214 0.930 . S
C229 C224 1.390 . S
C229 C228 1.387 . S
H230 C242 0.930 . S
H231 C244 0.930 . S
H232 C245 0.930 . S
H233 C249 0.959 . S
H234 C249 0.959 . S
H235 C249 0.961 . S
H236 C250 0.960 1_545 S
H237 C250 0.961 . S
H238 C250 0.959 . S
H239 C253 0.929 . S
H240 C254 0.931 . S
H241 C256 0.930 . S
C242 H230 0.930 . S
C242 C243 1.399 . S
C242 C247 1.399 . S
C243 C242 1.399 . S
C243 C244 1.376 . S
C244 H231 0.930 . S
C244 C243 1.376 . S
C244 C245 1.388 . S
C245 H232 0.930 . S
C245 C244 1.388 . S
C245 C246 1.390 . S
C246 C245 1.390 . S
C246 C247 1.394 . S
C246 C252 1.465 . S
C247 C242 1.399 . S
C247 C246 1.394 . S
C247 C248 1.516 . S
C248 C247 1.516 . S
C248 C249 1.502 . S
C248 C250 1.561 . S
C248 C251 1.526 . S
C249 H233 0.959 . S
C249 H234 0.959 . S
C249 H235 0.961 . S
C249 C248 1.502 . S
C250 H236 0.960 1_565 S
C250 H237 0.961 . S
C250 H238 0.959 . S
C250 C248 1.561 . S
C251 C248 1.526 . S
C251 C252 1.396 . S
C251 C256 1.390 . S
C252 C246 1.465 . S
C252 C251 1.396 . S
C252 C253 1.399 . S
C253 H239 0.929 . S
C253 C252 1.399 . S
C253 C254 1.385 . S
C254 H240 0.931 . S
C254 C253 1.385 . S
C254 C255 1.389 . S
C255 C254 1.389 . S
C255 C256 1.387 . S
C256 H241 0.930 . S
C256 C251 1.390 . S
C256 C255 1.387 . S
H257 C269 0.930 . S
H258 C271 0.930 . S
H259 C272 0.930 . S
H260 C276 0.959 . S
H261 C276 0.959 . S
H262 C276 0.961 . S
H263 C277 0.960 . S
H264 C277 0.961 . S
H265 C277 0.959 . S
H266 C280 0.929 . S
H267 C281 0.931 . S
H268 C283 0.930 . S
C269 H257 0.930 . S
C269 C270 1.399 . S
C269 C274 1.399 . S
C270 C269 1.399 . S
C270 C271 1.376 . S
C271 H258 0.930 . S
C271 C270 1.376 . S
C271 C272 1.388 . S
C272 H259 0.930 . S
C272 C271 1.388 . S
C272 C273 1.390 . S
C273 C272 1.390 . S
C273 C274 1.394 . S
C273 C279 1.465 . S
C274 C269 1.399 . S
C274 C273 1.394 . S
C274 C275 1.516 . S
C275 C274 1.516 . S
C275 C276 1.502 . S
C275 C277 1.561 . S
C275 C278 1.526 . S
C276 H260 0.959 . S
C276 H261 0.959 . S
C276 H262 0.961 . S
C276 C275 1.502 . S
C277 H263 0.960 . S
C277 H264 0.961 . S
C277 H265 0.959 . S
C277 C275 1.561 . S
C278 C275 1.526 . S
C278 C279 1.396 . S
C278 C283 1.390 . S
C279 C273 1.465 . S
C279 C278 1.396 . S
C279 C280 1.399 . S
C280 H266 0.929 . S
C280 C279 1.399 . S
C280 C281 1.385 . S
C281 H267 0.931 . S
C281 C280 1.385 . S
C281 C282 1.389 . S
C282 C281 1.389 . S
C282 C283 1.387 . S
C283 H268 0.930 . S
C283 C278 1.390 . S
C283 C282 1.387 . S
H284 C296 0.930 . S
H285 C298 0.930 . S
H286 C299 0.930 . S
H287 C303 0.959 . S
H288 C303 0.959 . S
H289 C303 0.961 . S
H290 C304 0.960 . S
H291 C304 0.961 . S
H292 C304 0.959 . S
H293 C307 0.929 . S
H294 C308 0.931 . S
H295 C310 0.930 . S
C296 H284 0.930 . S
C296 C297 1.399 . S
C296 C301 1.399 . S
C297 C296 1.399 . S
C297 C298 1.376 . S
C298 H285 0.930 . S
C298 C297 1.376 . S
C298 C299 1.388 . S
C299 H286 0.930 . S
C299 C298 1.388 . S
C299 C300 1.390 . S
C300 C299 1.390 . S
C300 C301 1.394 . S
C300 C306 1.465 . S
C301 C296 1.399 . S
C301 C300 1.394 . S
C301 C302 1.516 . S
C302 C301 1.516 . S
C302 C303 1.502 . S
C302 C304 1.561 . S
C302 C305 1.526 . S
C303 H287 0.959 . S
C303 H288 0.959 . S
C303 H289 0.961 . S
C303 C302 1.502 . S
C304 H290 0.960 . S
C304 H291 0.961 . S
C304 H292 0.959 . S
C304 C302 1.561 . S
C305 C302 1.526 . S
C305 C306 1.396 . S
C305 C310 1.390 . S
C306 C300 1.465 . S
C306 C305 1.396 . S
C306 C307 1.399 . S
C307 H293 0.929 . S
C307 C306 1.399 . S
C307 C308 1.385 . S
C308 H294 0.931 . S
C308 C307 1.385 . S
C308 C309 1.389 . S
C309 C308 1.389 . S
C309 C310 1.387 . S
C310 H295 0.930 . S
C310 C305 1.390 . S
C310 C309 1.387 . S
H311 C323 0.930 . S
H312 C325 0.930 . S
H313 C326 0.930 . S
H314 C330 0.959 . S
H315 C330 0.959 . S
H316 C330 0.961 . S
H317 C331 0.960 . S
H318 C331 0.961 . S
H319 C331 0.959 . S
H320 C334 0.929 . S
H321 C335 0.931 . S
H322 C337 0.930 . S
C323 H311 0.930 . S
C323 C324 1.399 . S
C323 C328 1.399 . S
C324 C323 1.399 . S
C324 C325 1.376 . S
C325 H312 0.930 . S
C325 C324 1.376 . S
C325 C326 1.388 . S
C326 H313 0.930 . S
C326 C325 1.388 . S
C326 C327 1.390 . S
C327 C326 1.390 . S
C327 C328 1.394 . S
C327 C333 1.465 . S
C328 C323 1.399 . S
C328 C327 1.394 . S
C328 C329 1.516 . S
C329 C328 1.516 . S
C329 C330 1.502 . S
C329 C331 1.561 . S
C329 C332 1.526 . S
C330 H314 0.959 . S
C330 H315 0.959 . S
C330 H316 0.961 . S
C330 C329 1.502 . S
C331 H317 0.960 . S
C331 H318 0.961 . S
C331 H319 0.959 . S
C331 C329 1.561 . S
C332 C329 1.526 . S
C332 C333 1.396 . S
C332 C337 1.390 . S
C333 C327 1.465 . S
C333 C332 1.396 . S
C333 C334 1.399 . S
C334 H320 0.929 . S
C334 C333 1.399 . S
C334 C335 1.385 . S
C335 H321 0.931 . S
C335 C334 1.385 . S
C335 C336 1.389 . S
C336 C335 1.389 . S
C336 C337 1.387 . S
C337 H322 0.930 . S
C337 C332 1.390 . S
C337 C336 1.387 . S
H338 C350 0.930 . S
H339 C352 0.930 . S
H340 C353 0.930 . S
H341 C357 0.959 . S
H342 C357 0.959 . S
H343 C357 0.961 . S
H344 C358 0.960 . S
H345 C358 0.961 . S
H346 C358 0.959 . S
H347 C361 0.929 . S
H348 C362 0.931 . S
H349 C364 0.930 . S
C350 H338 0.930 . S
C350 C351 1.399 . S
C350 C355 1.399 . S
C351 C350 1.399 . S
C351 C352 1.376 . S
C352 H339 0.930 . S
C352 C351 1.376 . S
C352 C353 1.388 . S
C353 H340 0.930 . S
C353 C352 1.388 . S
C353 C354 1.390 . S
C354 C353 1.390 . S
C354 C355 1.394 . S
C354 C360 1.465 . S
C355 C350 1.399 . S
C355 C354 1.394 . S
C355 C356 1.516 . S
C356 C355 1.516 . S
C356 C357 1.502 . S
C356 C358 1.561 . S
C356 C359 1.526 . S
C357 H341 0.959 . S
C357 H342 0.959 . S
C357 H343 0.961 . S
C357 C356 1.502 . S
C358 H344 0.960 . S
C358 H345 0.961 . S
C358 H346 0.959 . S
C358 C356 1.561 . S
C359 C356 1.526 . S
C359 C360 1.396 . S
C359 C364 1.390 . S
C360 C354 1.465 . S
C360 C359 1.396 . S
C360 C361 1.399 . S
C361 H347 0.929 . S
C361 C360 1.399 . S
C361 C362 1.385 . S
C362 H348 0.931 . S
C362 C361 1.385 . S
C362 C363 1.389 . S
C363 C362 1.389 . S
C363 C364 1.387 . S
C364 H349 0.930 . S
C364 C359 1.390 . S
C364 C363 1.387 . S
H365 C377 0.930 . S
H366 C379 0.930 . S
H367 C380 0.930 . S
H368 C384 0.959 . S
H369 C384 0.959 . S
H370 C384 0.961 . S
H371 C385 0.960 . S
H372 C385 0.961 . S
H373 C385 0.959 . S
H374 C388 0.929 . S
H375 C389 0.931 . S
H376 C391 0.930 . S
C377 H365 0.930 . S
C377 C378 1.399 . S
C377 C382 1.399 . S
C378 C377 1.399 . S
C378 C379 1.376 . S
C379 H366 0.930 . S
C379 C378 1.376 . S
C379 C380 1.388 . S
C380 H367 0.930 . S
C380 C379 1.388 . S
C380 C381 1.390 . S
C381 C380 1.390 . S
C381 C382 1.394 . S
C381 C387 1.465 . S
C382 C377 1.399 . S
C382 C381 1.394 . S
C382 C383 1.516 . S
C383 C382 1.516 . S
C383 C384 1.502 . S
C383 C385 1.561 . S
C383 C386 1.526 . S
C384 H368 0.959 . S
C384 H369 0.959 . S
C384 H370 0.961 . S
C384 C383 1.502 . S
C385 H371 0.960 . S
C385 H372 0.961 . S
C385 H373 0.959 . S
C385 C383 1.561 . S
C386 C383 1.526 . S
C386 C387 1.396 . S
C386 C391 1.390 . S
C387 C381 1.465 . S
C387 C386 1.396 . S
C387 C388 1.399 . S
C388 H374 0.929 . S
C388 C387 1.399 . S
C388 C389 1.385 . S
C389 H375 0.931 . S
C389 C388 1.385 . S
C389 C390 1.389 . S
C390 C389 1.389 . S
C390 C391 1.387 . S
C391 H376 0.930 . S
C391 C386 1.390 . S
C391 C390 1.387 . S
H392 C404 0.930 . S
H393 C406 0.930 . S
H394 C407 0.930 . S
H395 C411 0.959 . S
H396 C411 0.959 . S
H397 C411 0.961 . S
H398 C412 0.960 . S
H399 C412 0.961 . S
H400 C412 0.959 . S
H401 C415 0.929 . S
H402 C416 0.931 . S
H403 C418 0.930 . S
C404 H392 0.930 . S
C404 C405 1.399 . S
C404 C409 1.399 . S
C405 C404 1.399 . S
C405 C406 1.376 . S
C406 H393 0.930 . S
C406 C405 1.376 . S
C406 C407 1.388 . S
C407 H394 0.930 . S
C407 C406 1.388 . S
C407 C408 1.390 . S
C408 C407 1.390 . S
C408 C409 1.394 . S
C408 C414 1.465 . S
C409 C404 1.399 . S
C409 C408 1.394 . S
C409 C410 1.516 . S
C410 C409 1.516 . S
C410 C411 1.502 . S
C410 C412 1.561 . S
C410 C413 1.526 . S
C411 H395 0.959 . S
C411 H396 0.959 . S
C411 H397 0.961 . S
C411 C410 1.502 . S
C412 H398 0.960 . S
C412 H399 0.961 . S
C412 H400 0.959 . S
C412 C410 1.561 . S
C413 C410 1.526 . S
C413 C414 1.396 . S
C413 C418 1.390 . S
C414 C408 1.465 . S
C414 C413 1.396 . S
C414 C415 1.399 . S
C415 H401 0.929 . S
C415 C414 1.399 . S
C415 C416 1.385 . S
C416 H402 0.931 . S
C416 C415 1.385 . S
C416 C417 1.389 . S
C417 C416 1.389 . S
C417 C418 1.387 . S
C418 H403 0.930 . S
C418 C413 1.390 . S
C418 C417 1.387 . S
H419 C431 0.930 . S
H420 C433 0.930 . S
H421 C434 0.930 . S
H422 C438 0.959 . S
H423 C438 0.959 . S
H424 C438 0.961 . S
H425 C439 0.960 . S
H426 C439 0.961 . S
H427 C439 0.959 . S
H428 C442 0.929 . S
H429 C443 0.931 . S
H430 C445 0.930 . S
C431 H419 0.930 . S
C431 C432 1.399 . S
C431 C436 1.399 . S
C432 C431 1.399 . S
C432 C433 1.376 . S
C433 H420 0.930 . S
C433 C432 1.376 . S
C433 C434 1.388 . S
C434 H421 0.930 . S
C434 C433 1.388 . S
C434 C435 1.390 . S
C435 C434 1.390 . S
C435 C436 1.394 . S
C435 C441 1.465 . S
C436 C431 1.399 . S
C436 C435 1.394 . S
C436 C437 1.516 . S
C437 C436 1.516 . S
C437 C438 1.502 . S
C437 C439 1.561 . S
C437 C440 1.526 . S
C438 H422 0.959 . S
C438 H423 0.959 . S
C438 H424 0.961 . S
C438 C437 1.502 . S
C439 H425 0.960 . S
C439 H426 0.961 . S
C439 H427 0.959 . S
C439 C437 1.561 . S
C440 C437 1.526 . S
C440 C441 1.396 . S
C440 C445 1.390 . S
C441 C435 1.465 . S
C441 C440 1.396 . S
C441 C442 1.399 . S
C442 H428 0.929 . S
C442 C441 1.399 . S
C442 C443 1.385 . S
C443 H429 0.931 . S
C443 C442 1.385 . S
C443 C444 1.389 . S
C444 C443 1.389 . S
C444 C445 1.387 . S
C445 H430 0.930 . S
C445 C440 1.390 . S
C445 C444 1.387 . S
C135 C26 1.329 . S
C147 C99 1.333 . S
C162 C43 1.271 . S
C174 C105 1.174 . S
C189 C22 1.382 . S
C201 C96 1.330 . S
C216 C49 1.412 . S
C228 C121 1.302 . S
C243 C15 1.872 . S
C255 C87 1.644 . S
C282 C104 1.837 . S
C270 C42 1.914 . S
C297 C66 1.309 . S
C309 C100 1.334 . S
C336 C117 1.791 . S
C324 C2 1.913 . S
C363 C84 1.673 . S
C351 C55 1.854 . S
C390 C120 1.292 . S
C378 C9 1.422 . S
C417 C83 1.296 . S
C405 C62 1.362 . S
C444 C108 1.209 . S
C432 C3 1.264 . S
