# Generated by pormake.
# Topology ocu, (6,8)-cn, num edge types: 1
# Building blocks:
#     Node 0, Type 0, BuildingBlock: JUFBIX_clean_sbu_0, # of connection points: 6
#     Node 1, Type 0, BuildingBlock: JUFBIX_clean_sbu_0, # of connection points: 6
#     Node 2, Type 0, BuildingBlock: JUFBIX_clean_sbu_0, # of connection points: 6
#     Node 3, Type 0, BuildingBlock: JUFBIX_clean_sbu_0, # of connection points: 6
#     Node 4, Type 0, BuildingBlock: JUFBIX_clean_sbu_0, # of connection points: 6
#     Node 5, Type 0, BuildingBlock: JUFBIX_clean_sbu_0, # of connection points: 6
#     Node 6, Type 0, BuildingBlock: JUFBIX_clean_sbu_0, # of connection points: 6
#     Node 7, Type 0, BuildingBlock: JUFBIX_clean_sbu_0, # of connection points: 6
#     Node 8, Type 1, BuildingBlock: AJUNOK_clean_sbu_0, # of connection points: 8
#     Node 9, Type 1, BuildingBlock: AJUNOK_clean_sbu_0, # of connection points: 8
#     Node 10, Type 1, BuildingBlock: AJUNOK_clean_sbu_0, # of connection points: 8
#     Node 11, Type 1, BuildingBlock: AJUNOK_clean_sbu_0, # of connection points: 8
#     Node 12, Type 1, BuildingBlock: AJUNOK_clean_sbu_0, # of connection points: 8
#     Node 13, Type 1, BuildingBlock: AJUNOK_clean_sbu_0, # of connection points: 8
#     Edge 14, Type (0, 1), BuildingBlock: UVAHIK_clean_linker_0, # of connection points: 2
#     Edge 15, Type (0, 1), BuildingBlock: UVAHIK_clean_linker_0, # of connection points: 2
#     Edge 16, Type (0, 1), BuildingBlock: UVAHIK_clean_linker_0, # of connection points: 2
#     Edge 17, Type (0, 1), BuildingBlock: UVAHIK_clean_linker_0, # of connection points: 2
#     Edge 18, Type (0, 1), BuildingBlock: UVAHIK_clean_linker_0, # of connection points: 2
#     Edge 19, Type (0, 1), BuildingBlock: UVAHIK_clean_linker_0, # of connection points: 2
#     Edge 20, Type (0, 1), BuildingBlock: UVAHIK_clean_linker_0, # of connection points: 2
#     Edge 21, Type (0, 1), BuildingBlock: UVAHIK_clean_linker_0, # of connection points: 2
#     Edge 22, Type (0, 1), BuildingBlock: UVAHIK_clean_linker_0, # of connection points: 2
#     Edge 23, Type (0, 1), BuildingBlock: UVAHIK_clean_linker_0, # of connection points: 2
#     Edge 24, Type (0, 1), BuildingBlock: UVAHIK_clean_linker_0, # of connection points: 2
#     Edge 25, Type (0, 1), BuildingBlock: UVAHIK_clean_linker_0, # of connection points: 2
#     Edge 26, Type (0, 1), BuildingBlock: UVAHIK_clean_linker_0, # of connection points: 2
#     Edge 27, Type (0, 1), BuildingBlock: UVAHIK_clean_linker_0, # of connection points: 2
#     Edge 28, Type (0, 1), BuildingBlock: UVAHIK_clean_linker_0, # of connection points: 2
#     Edge 29, Type (0, 1), BuildingBlock: UVAHIK_clean_linker_0, # of connection points: 2
#     Edge 30, Type (0, 1), BuildingBlock: UVAHIK_clean_linker_0, # of connection points: 2
#     Edge 31, Type (0, 1), BuildingBlock: UVAHIK_clean_linker_0, # of connection points: 2
#     Edge 32, Type (0, 1), BuildingBlock: UVAHIK_clean_linker_0, # of connection points: 2
#     Edge 33, Type (0, 1), BuildingBlock: UVAHIK_clean_linker_0, # of connection points: 2
#     Edge 34, Type (0, 1), BuildingBlock: UVAHIK_clean_linker_0, # of connection points: 2
#     Edge 35, Type (0, 1), BuildingBlock: UVAHIK_clean_linker_0, # of connection points: 2
#     Edge 36, Type (0, 1), BuildingBlock: UVAHIK_clean_linker_0, # of connection points: 2
#     Edge 37, Type (0, 1), BuildingBlock: UVAHIK_clean_linker_0, # of connection points: 2
#     Edge 38, Type (0, 1), BuildingBlock: UVAHIK_clean_linker_0, # of connection points: 2
#     Edge 39, Type (0, 1), BuildingBlock: UVAHIK_clean_linker_0, # of connection points: 2
#     Edge 40, Type (0, 1), BuildingBlock: UVAHIK_clean_linker_0, # of connection points: 2
#     Edge 41, Type (0, 1), BuildingBlock: UVAHIK_clean_linker_0, # of connection points: 2
#     Edge 42, Type (0, 1), BuildingBlock: UVAHIK_clean_linker_0, # of connection points: 2
#     Edge 43, Type (0, 1), BuildingBlock: UVAHIK_clean_linker_0, # of connection points: 2
#     Edge 44, Type (0, 1), BuildingBlock: UVAHIK_clean_linker_0, # of connection points: 2
#     Edge 45, Type (0, 1), BuildingBlock: UVAHIK_clean_linker_0, # of connection points: 2
#     Edge 46, Type (0, 1), BuildingBlock: UVAHIK_clean_linker_0, # of connection points: 2
#     Edge 47, Type (0, 1), BuildingBlock: UVAHIK_clean_linker_0, # of connection points: 2
#     Edge 48, Type (0, 1), BuildingBlock: UVAHIK_clean_linker_0, # of connection points: 2
#     Edge 49, Type (0, 1), BuildingBlock: UVAHIK_clean_linker_0, # of connection points: 2
#     Edge 50, Type (0, 1), BuildingBlock: UVAHIK_clean_linker_0, # of connection points: 2
#     Edge 51, Type (0, 1), BuildingBlock: UVAHIK_clean_linker_0, # of connection points: 2
#     Edge 52, Type (0, 1), BuildingBlock: UVAHIK_clean_linker_0, # of connection points: 2
#     Edge 53, Type (0, 1), BuildingBlock: UVAHIK_clean_linker_0, # of connection points: 2
#     Edge 54, Type (0, 1), BuildingBlock: UVAHIK_clean_linker_0, # of connection points: 2
#     Edge 55, Type (0, 1), BuildingBlock: UVAHIK_clean_linker_0, # of connection points: 2
#     Edge 56, Type (0, 1), BuildingBlock: UVAHIK_clean_linker_0, # of connection points: 2
#     Edge 57, Type (0, 1), BuildingBlock: UVAHIK_clean_linker_0, # of connection points: 2
#     Edge 58, Type (0, 1), BuildingBlock: UVAHIK_clean_linker_0, # of connection points: 2
#     Edge 59, Type (0, 1), BuildingBlock: UVAHIK_clean_linker_0, # of connection points: 2
#     Edge 60, Type (0, 1), BuildingBlock: UVAHIK_clean_linker_0, # of connection points: 2
#     Edge 61, Type (0, 1), BuildingBlock: UVAHIK_clean_linker_0, # of connection points: 2
# Relax obj value: 0.250
# Max RMSD: 0.333
# Mean RMSD: 0.234
data_MOF--net-ocu--node1-JUFBIX_clean_sbu_0--node2-AJUNOK_clean_sbu_0--edge1-UVAHIK_clean_linker_0
_symmetry_space_group_name_H-M    P1
_symmetry_Int_Tables_number       1
_symmetry_cell_setting            triclinic
loop_
_symmetry_equiv_pos_as_xyz
'x, y, z'
_cell_length_a     51.855706
_cell_length_b     52.713097
_cell_length_c     44.747738
_cell_angle_alpha  99.300134
_cell_angle_beta   99.089322
_cell_angle_gamma 101.05094
loop_
_atom_site_label
_atom_site_type_symbol
_atom_site_fract_x
_atom_site_fract_y
_atom_site_fract_z
_atom_type_partial_charge
Co0 Co 0.23471 0.23274 0.24258 0.0
C1 C 0.23217 0.27174 0.29122 0.0
Co2 Co 0.26989 0.26608 0.25454 0.0
C3 C 0.20486 0.17955 0.23643 0.0
C4 C 0.17938 0.20531 0.22457 0.0
N5 N 0.20532 0.20457 0.23293 0.0
N6 N 0.17967 0.16482 0.23161 0.0
C7 C 0.16362 0.18098 0.22372 0.0
H8 H 0.22264 0.17267 0.24415 0.0
H9 H 0.17224 0.22286 0.2214 0.0
C10 C 0.27237 0.22701 0.20589 0.0
N11 N 0.29917 0.29433 0.26401 0.0
C12 C 0.29909 0.31943 0.26133 0.0
C13 C 0.32527 0.29359 0.27028 0.0
N14 N 0.32402 0.33422 0.26436 0.0
C15 C 0.34056 0.31804 0.27052 0.0
C16 C 0.27694 0.22577 0.28555 0.0
O17 O 0.24971 0.21622 0.21078 0.0
O18 O 0.28457 0.2495 0.22204 0.0
O19 O 0.28811 0.24849 0.28218 0.0
O20 O 0.25311 0.21555 0.27114 0.0
O21 O 0.25505 0.28241 0.28677 0.0
H22 H 0.33268 0.27596 0.27212 0.0
H23 H 0.28098 0.32628 0.25519 0.0
O24 O 0.21983 0.24947 0.27463 0.0
O25 O 0.21671 0.25023 0.21432 0.0
O26 O 0.25138 0.28344 0.22665 0.0
C27 C 0.22779 0.27319 0.21163 0.0
H28 H 0.14198 0.17638 0.22047 0.0
H29 H 0.36204 0.32267 0.27194 0.0
Co30 Co 0.76524 0.25637 0.24225 0.0
C31 C 0.75727 0.29034 0.29141 0.0
Co32 Co 0.72787 0.24214 0.25729 0.0
C33 C 0.80233 0.26163 0.20228 0.0
C34 C 0.82173 0.27681 0.2494 0.0
N35 N 0.79757 0.26615 0.2311 0.0
N36 N 0.82856 0.26896 0.20156 0.0
C37 C 0.84084 0.27871 0.23128 0.0
H38 H 0.78665 0.25292 0.18227 0.0
H39 H 0.82521 0.28264 0.27427 0.0
C40 C 0.73563 0.20815 0.20795 0.0
N41 N 0.69563 0.2326 0.26866 0.0
C42 C 0.69093 0.23703 0.29755 0.0
C43 C 0.67127 0.22388 0.25018 0.0
N44 N 0.66456 0.23187 0.29796 0.0
C45 C 0.65209 0.2233 0.26817 0.0
C46 C 0.72393 0.27377 0.21232 0.0
O47 O 0.75738 0.22502 0.21162 0.0
O48 O 0.71906 0.21184 0.22534 0.0
O49 O 0.71164 0.26122 0.22973 0.0
O50 O 0.74864 0.27416 0.21335 0.0
O51 O 0.73664 0.27245 0.28929 0.0
H52 H 0.66771 0.21902 0.22523 0.0
H53 H 0.70662 0.24469 0.31782 0.0
O54 O 0.77296 0.28758 0.27268 0.0
O55 O 0.78177 0.23893 0.27104 0.0
O56 O 0.74439 0.22295 0.28504 0.0
C57 C 0.76955 0.22514 0.28741 0.0
H58 H 0.86196 0.28739 0.23943 0.0
H59 H 0.63067 0.2167 0.25993 0.0
Co60 Co 0.75748 0.74448 0.27305 0.0
C61 C 0.79148 0.78367 0.25325 0.0
Co62 Co 0.74317 0.7529 0.22759 0.0
C63 C 0.77649 0.7176 0.31902 0.0
C64 C 0.78321 0.75895 0.33706 0.0
N65 N 0.77215 0.74028 0.31148 0.0
N66 N 0.79028 0.72129 0.34809 0.0
C67 C 0.7944 0.74727 0.35972 0.0
H68 H 0.7703 0.69881 0.30306 0.0
H69 H 0.78411 0.77981 0.33865 0.0
C70 C 0.70922 0.7137 0.24761 0.0
N71 N 0.7286 0.75707 0.18908 0.0
C72 C 0.72444 0.77967 0.18108 0.0
C73 C 0.71816 0.73829 0.16345 0.0
N74 N 0.71149 0.77582 0.1516 0.0
C75 C 0.70761 0.74981 0.14027 0.0
C76 C 0.77406 0.7151 0.2253 0.0
O77 O 0.72718 0.71778 0.27162 0.0
O78 O 0.71291 0.72622 0.22613 0.0
O79 O 0.76084 0.7277 0.20906 0.0
O80 O 0.77487 0.71908 0.25423 0.0
O81 O 0.77344 0.77996 0.22934 0.0
H82 H 0.71745 0.71748 0.16204 0.0
H83 H 0.73037 0.79854 0.1969 0.0
O84 O 0.78771 0.77081 0.27438 0.0
O85 O 0.74008 0.76994 0.29163 0.0
O86 O 0.72554 0.7781 0.24633 0.0
C87 C 0.72664 0.78236 0.27533 0.0
H88 H 0.80592 0.75729 0.38229 0.0
H89 H 0.69681 0.73967 0.11743 0.0
Co90 Co 0.23751 0.76787 0.25705 0.0
C91 C 0.28156 0.76807 0.30243 0.0
Co92 Co 0.2591 0.73671 0.24576 0.0
C93 C 0.21022 0.79847 0.2939 0.0
C94 C 0.21633 0.8143 0.25383 0.0
N95 N 0.22068 0.79455 0.26832 0.0
N96 N 0.19923 0.81969 0.29596 0.0
C97 C 0.20315 0.82984 0.27081 0.0
H98 H 0.21028 0.78562 0.31044 0.0
H99 H 0.22229 0.8172 0.23231 0.0
C100 C 0.21503 0.73632 0.20032 0.0
N101 N 0.27592 0.70967 0.23438 0.0
C102 C 0.29158 0.70859 0.21309 0.0
C103 C 0.27324 0.68594 0.2427 0.0
N104 N 0.29861 0.68522 0.20754 0.0
C105 C 0.28702 0.67087 0.22617 0.0
C106 C 0.21792 0.72157 0.27724 0.0
O107 O 0.21211 0.75587 0.21919 0.0
O108 O 0.23432 0.72541 0.20761 0.0
O109 O 0.23587 0.71375 0.26435 0.0
O110 O 0.21498 0.74488 0.27676 0.0
O111 O 0.28394 0.74802 0.28397 0.0
H112 H 0.26137 0.67946 0.25898 0.0
H113 H 0.29726 0.72447 0.20133 0.0
O114 O 0.26286 0.77962 0.29471 0.0
O115 O 0.26 0.79077 0.23753 0.0
O116 O 0.28216 0.76029 0.22718 0.0
C117 C 0.27865 0.78329 0.22567 0.0
H118 H 0.19703 0.84724 0.26505 0.0
H119 H 0.2875 0.65058 0.22708 0.0
Co120 Co 0.26604 0.75748 0.74107 0.0
C121 C 0.25941 0.79147 0.79102 0.0
Co122 Co 0.23138 0.74168 0.76015 0.0
C123 C 0.29646 0.76534 0.69489 0.0
C124 C 0.32054 0.78067 0.74003 0.0
N125 N 0.2953 0.7693 0.72503 0.0
N126 N 0.32146 0.77354 0.69025 0.0
C127 C 0.33671 0.78341 0.71865 0.0
H128 H 0.27924 0.75611 0.67674 0.0
H129 H 0.3268 0.7862 0.76487 0.0
C130 C 0.23777 0.70789 0.70975 0.0
N131 N 0.20266 0.72936 0.77698 0.0
C132 C 0.20419 0.72989 0.80733 0.0
C133 C 0.17696 0.71787 0.7638 0.0
N134 N 0.18068 0.71896 0.81388 0.0
C135 C 0.16331 0.71141 0.78659 0.0
C136 C 0.21959 0.77082 0.71488 0.0
O137 O 0.25775 0.72624 0.71076 0.0
O138 O 0.22297 0.71045 0.72961 0.0
O139 O 0.20959 0.75774 0.73349 0.0
O140 O 0.24437 0.7732 0.71431 0.0
O141 O 0.23982 0.77294 0.79082 0.0
H142 H 0.1689 0.71396 0.73927 0.0
H143 H 0.22244 0.73798 0.82438 0.0
O144 O 0.27415 0.78889 0.77116 0.0
O145 O 0.28768 0.74181 0.76759 0.0
O146 O 0.25327 0.72557 0.78651 0.0
C147 C 0.27799 0.72828 0.78581 0.0
H148 H 0.35787 0.79253 0.72365 0.0
H149 H 0.1426 0.70105 0.78321 0.0
Co150 Co 0.25403 0.24382 0.77449 0.0
C151 C 0.29056 0.28302 0.75719 0.0
Co152 Co 0.24261 0.25393 0.72911 0.0
C153 C 0.27305 0.21774 0.82273 0.0
C154 C 0.27589 0.25885 0.83898 0.0
N155 N 0.26716 0.23946 0.81364 0.0
N156 N 0.28535 0.22288 0.85267 0.0
C157 C 0.28709 0.24872 0.863 0.0
H158 H 0.26971 0.19888 0.80725 0.0
H159 H 0.27519 0.2793 0.83964 0.0
C160 C 0.20598 0.21491 0.7466 0.0
N161 N 0.22969 0.25892 0.69036 0.0
C162 C 0.22634 0.28195 0.68297 0.0
C163 C 0.21869 0.24061 0.66445 0.0
N164 N 0.21314 0.27883 0.65371 0.0
C165 C 0.20847 0.25284 0.64178 0.0
C166 C 0.27185 0.21464 0.72782 0.0
O167 O 0.223 0.21743 0.77116 0.0
O168 O 0.2114 0.22819 0.72623 0.0
O169 O 0.2598 0.22801 0.71144 0.0
O170 O 0.27167 0.21816 0.75659 0.0
O171 O 0.27383 0.28008 0.73234 0.0
H172 H 0.217 0.21962 0.66266 0.0
H173 H 0.23265 0.30057 0.69923 0.0
O174 O 0.28498 0.26988 0.77759 0.0
O175 O 0.23617 0.2696 0.79198 0.0
O176 O 0.22546 0.2798 0.74692 0.0
C177 C 0.22468 0.28323 0.77546 0.0
H178 H 0.2964 0.25968 0.88602 0.0
H179 H 0.19709 0.24318 0.61903 0.0
Co180 Co 0.74099 0.2661 0.75352 0.0
C181 C 0.78481 0.26176 0.79657 0.0
Co182 Co 0.76108 0.23449 0.73837 0.0
C183 C 0.70529 0.29334 0.7826 0.0
C184 C 0.73964 0.31973 0.77576 0.0
N185 N 0.72677 0.29412 0.76894 0.0
N186 N 0.70467 0.31726 0.79848 0.0
C187 C 0.72618 0.33391 0.7937 0.0
H188 H 0.69141 0.27525 0.78253 0.0
H189 H 0.7589 0.32748 0.77053 0.0
C190 C 0.71718 0.23888 0.69536 0.0
N191 N 0.77607 0.2073 0.72388 0.0
C192 C 0.78432 0.20338 0.69679 0.0
C193 C 0.78239 0.18798 0.73802 0.0
N194 N 0.79594 0.18262 0.69354 0.0
C195 C 0.79472 0.17276 0.7194 0.0
C196 C 0.71982 0.21864 0.76985 0.0
O197 O 0.71505 0.25761 0.716 0.0
O198 O 0.73551 0.22637 0.70082 0.0
O199 O 0.73738 0.2108 0.75608 0.0
O200 O 0.7178 0.24243 0.77125 0.0
O201 O 0.78691 0.24303 0.77601 0.0
H202 H 0.77881 0.18549 0.76065 0.0
H203 H 0.78277 0.2162 0.68029 0.0
O204 O 0.76655 0.27425 0.79098 0.0
O205 O 0.76463 0.28938 0.73541 0.0
O206 O 0.7846 0.25799 0.72073 0.0
C207 C 0.78237 0.28168 0.72196 0.0
H208 H 0.73322 0.35453 0.80437 0.0
H209 H 0.80249 0.15602 0.72469 0.0
Co210 Co 0.73037 0.73378 0.74421 0.0
C211 C 0.72649 0.77224 0.79285 0.0
Co212 Co 0.76531 0.76726 0.75753 0.0
C213 C 0.70107 0.68 0.73256 0.0
C214 C 0.67513 0.70667 0.72724 0.0
N215 N 0.70115 0.70568 0.73326 0.0
N216 N 0.67601 0.66486 0.72716 0.0
C217 C 0.65966 0.6817 0.72351 0.0
H218 H 0.71919 0.67286 0.7374 0.0
H219 H 0.66786 0.7246 0.72732 0.0
C220 C 0.7693 0.72892 0.70894 0.0
N221 N 0.79454 0.79551 0.76843 0.0
C222 C 0.7946 0.82078 0.76652 0.0
C223 C 0.82058 0.79482 0.77577 0.0
N224 N 0.81963 0.8358 0.77117 0.0
C225 C 0.83602 0.81951 0.77747 0.0
C226 C 0.7716 0.7262 0.78762 0.0
O227 O 0.74631 0.71783 0.71267 0.0
O228 O 0.78101 0.75126 0.72577 0.0
O229 O 0.78272 0.74926 0.78528 0.0
O230 O 0.748 0.71599 0.77248 0.0
O231 O 0.74958 0.78309 0.78921 0.0
H232 H 0.82794 0.77715 0.77747 0.0
H233 H 0.77659 0.82764 0.75984 0.0
O234 O 0.71454 0.75001 0.77589 0.0
O235 O 0.71303 0.75156 0.71622 0.0
O236 O 0.74757 0.78497 0.72924 0.0
C237 C 0.72416 0.77455 0.71374 0.0
H238 H 0.63808 0.67684 0.72081 0.0
H239 H 0.85761 0.82432 0.78004 0.0
Cd240 Cd 0.99249 0.97773 0.54135 0.0
Cd241 Cd 0.00189 0.02496 0.46074 0.0
C242 C 0.04819 0.95764 0.54436 0.0
N243 N 0.0212 0.94826 0.53612 0.0
C244 C 0.02652 0.9042 0.53666 0.0
C245 C 0.0543 0.91352 0.54748 0.0
C246 C 0.06518 0.94054 0.54999 0.0
C247 C 0.01027 0.922 0.53127 0.0
H248 H 0.05647 0.97862 0.5486 0.0
H249 H 0.98873 0.91504 0.5252 0.0
C250 C 0.96252 0.97301 0.46192 0.0
C251 C 0.94525 0.04282 0.45753 0.0
C252 C 0.92745 0.05925 0.45261 0.0
C253 C 0.93733 0.08658 0.45643 0.0
C254 C 0.96495 0.09678 0.46767 0.0
C255 C 0.98204 0.07959 0.47229 0.0
N256 N 0.97206 0.0531 0.46631 0.0
H257 H 0.93768 0.02172 0.45247 0.0
H258 H 0.00346 0.08728 0.47875 0.0
C259 C 0.01811 0.96919 0.44069 0.0
N260 N 0.02748 0.99323 0.4596 0.0
C261 C 0.0669 0.98037 0.48128 0.0
C262 C 0.05699 0.95494 0.46327 0.0
C263 C 0.03244 0.94956 0.44243 0.0
C264 C 0.05187 -0.00058 0.47872 0.0
H265 H -0.00046 0.96512 0.42417 0.0
H266 H 0.05961 0.01914 0.49213 0.0
C267 C 0.03177 0.02931 0.53961 0.0
C268 C 0.9618 0.95524 0.58056 0.0
N269 N 0.96646 0.00926 0.54134 0.0
C270 C 0.97576 0.03399 0.55867 0.0
C271 C 0.96112 0.05326 0.55552 0.0
C272 C 0.93632 0.04682 0.53499 0.0
C273 C 0.92645 0.02071 0.51886 0.0
C274 C 0.94181 0.0021 0.52271 0.0
C275 C 0.03249 0.04843 0.422 0.0
O276 O 0.97881 0.98056 0.48748 0.0
O277 O 0.96459 0.98709 0.4415 0.0
O278 O 0.01521 0.02144 0.51429 0.0
O279 O 0.03017 0.01544 0.56028 0.0
O280 O 0.95509 0.94744 0.5514 0.0
O281 O 0.98359 0.97235 0.59116 0.0
O282 O 0.03911 0.05591 0.45123 0.0
O283 O 0.01076 0.03127 0.41117 0.0
H284 H 0.99459 0.03894 0.57487 0.0
H285 H 0.93423 0.98196 0.51047 0.0
H286 H 0.01722 0.88351 0.5338 0.0
H287 H 0.08638 0.94876 0.55841 0.0
H288 H 0.90644 0.05036 0.44377 0.0
H289 H 0.97346 0.11773 0.47149 0.0
H290 H 0.08599 0.9855 0.49718 0.0
H291 H 0.0247 0.93061 0.42697 0.0
H292 H 0.96891 0.07285 0.56953 0.0
H293 H 0.90724 0.01478 0.50317 0.0
Cd294 Cd 0.47445 0.98998 0.03902 0.0
Cd295 Cd 0.52761 0.01365 0.96068 0.0
C296 C 0.52276 0.96997 0.07424 0.0
N297 N 0.50603 0.96506 0.04636 0.0
C298 C 0.52785 0.9321 0.02617 0.0
C299 C 0.54625 0.93763 0.05429 0.0
C300 C 0.54346 0.95687 0.07852 0.0
C301 C 0.50781 0.94622 0.02267 0.0
H302 H 0.52042 0.98459 0.09297 0.0
H303 H 0.49365 0.94216 0.00108 0.0
C304 C 0.47138 0.97372 0.95566 0.0
C305 C 0.47535 0.03231 0.93294 0.0
C306 C 0.45382 0.04457 0.9317 0.0
C307 C 0.45174 0.06228 0.95776 0.0
C308 C 0.47162 0.06742 0.9845 0.0
C309 C 0.49275 0.05455 0.9848 0.0
N310 N 0.49396 0.03707 0.95939 0.0
H311 H 0.47715 0.01882 0.91283 0.0
H312 H 0.50815 0.05856 0.00531 0.0
C313 C 0.54045 0.9546 0.9566 0.0
N314 N 0.55201 0.98042 0.95868 0.0
C315 C 0.59328 0.9693 0.95038 0.0
C316 C 0.58171 0.94233 0.94696 0.0
C317 C 0.55504 0.93515 0.95088 0.0
C318 C 0.57804 0.98803 0.95626 0.0
H319 H 0.51967 0.94896 0.95833 0.0
H320 H 0.58669 0.00864 0.95765 0.0
C321 C 0.53368 0.02558 0.04376 0.0
C322 C 0.43922 0.95612 0.06794 0.0
N323 N 0.45309 0.02563 0.04113 0.0
C324 C 0.46502 0.04925 0.06011 0.0
C325 C 0.45032 0.06859 0.06581 0.0
C326 C 0.42304 0.06352 0.05196 0.0
C327 C 0.41184 0.03958 0.03099 0.0
C328 C 0.42718 0.02079 0.02614 0.0
C329 C 0.55983 0.04869 0.93036 0.0
O330 O 0.47964 0.98396 0.98413 0.0
O331 O 0.48675 0.97923 0.93685 0.0
O332 O 0.52393 0.01753 0.01524 0.0
O333 O 0.51825 0.02125 0.06282 0.0
O334 O 0.43683 0.95238 0.03869 0.0
O335 O 0.45734 0.97571 0.08338 0.0
O336 O 0.56383 0.05191 0.9597 0.0
O337 O 0.5411 0.02941 0.91546 0.0
H338 H 0.48551 0.05261 0.07216 0.0
H339 H 0.41788 0.00181 0.01161 0.0
H340 H 0.52875 0.91692 0.00717 0.0
H341 H 0.5573 0.96208 0.1005 0.0
H342 H 0.43926 0.04064 0.91036 0.0
H343 H 0.47078 0.08113 0.00496 0.0
H344 H 0.61353 0.97592 0.94708 0.0
H345 H 0.54535 0.91469 0.94894 0.0
H346 H 0.45983 0.08662 0.08235 0.0
H347 H 0.39106 0.03492 0.01934 0.0
Cd348 Cd 0.99343 0.48841 0.05222 0.0
Cd349 Cd 0.00913 0.51474 0.94815 0.0
C350 C 0.04519 0.47794 0.09704 0.0
N351 N 0.03 0.47039 0.06806 0.0
C352 C 0.05068 0.43396 0.05735 0.0
C353 C 0.06603 0.44064 0.08747 0.0
C354 C 0.0636 0.46336 0.1072 0.0
C355 C 0.03275 0.44918 0.04811 0.0
H356 H 0.0422 0.49458 0.11266 0.0
H357 H 0.02019 0.44348 0.02534 0.0
C358 C 0.97141 0.46394 0.9695 0.0
C359 C 0.97697 0.53787 0.89391 0.0
C360 C 0.95855 0.55114 0.88074 0.0
C361 C 0.9373 0.55584 0.8953 0.0
C362 C 0.93455 0.54592 0.92225 0.0
C363 C 0.95353 0.53294 0.93474 0.0
N364 N 0.97445 0.52962 0.92079 0.0
H365 H 0.99396 0.53522 0.88346 0.0
H366 H 0.95226 0.52652 0.95634 0.0
C367 C 0.02288 0.4747 0.89026 0.0
N368 N 0.0297 0.48505 0.92105 0.0
C369 C 0.06388 0.46057 0.92713 0.0
C370 C 0.05753 0.44943 0.89542 0.0
C371 C 0.0366 0.45671 0.87689 0.0
C372 C 0.04955 0.47814 0.93947 0.0
H373 H 0.00677 0.48028 0.87615 0.0
H374 H 0.05437 0.48648 0.96394 0.0
C375 C 0.02563 0.53767 0.02896 0.0
C376 C 0.95626 0.44918 0.06682 0.0
N377 N 0.972 0.52051 0.07237 0.0
C378 C 0.98091 0.53565 0.10117 0.0
C379 C 0.96616 0.55324 0.11296 0.0
C380 C 0.94195 0.55501 0.09499 0.0
C381 C 0.93368 0.53945 0.06509 0.0
C382 C 0.94906 0.52228 0.05422 0.0
C383 C 0.0507 0.56001 0.95601 0.0
O384 O 0.98322 0.47732 0.99589 0.0
O385 O 0.97621 0.47307 0.94585 0.0
O386 O 0.01337 0.52147 0.00435 0.0
O387 O 0.02328 0.53115 0.05467 0.0
O388 O 0.95434 0.45352 0.0395 0.0
O389 O 0.97517 0.46408 0.0876 0.0
O390 O 0.02646 0.56006 0.94567 0.0
O391 O 0.05568 0.53855 0.96218 0.0
H392 H -0.00085 0.53369 0.11519 0.0
H393 H 0.94249 0.50994 0.03142 0.0
H394 H 0.05213 0.41683 0.04125 0.0
H395 H 0.07486 0.46908 0.13069 0.0
H396 H 0.96127 0.55818 0.85977 0.0
H397 H 0.91868 0.54931 0.93443 0.0
H398 H 0.08007 0.45612 0.94238 0.0
H399 H 0.03066 0.44842 0.85242 0.0
H400 H 0.97319 0.56468 0.13621 0.0
H401 H 0.91539 0.54042 0.05026 0.0
Cd402 Cd 0.49444 0.47827 0.03303 0.0
Cd403 Cd 0.50934 0.51292 0.94572 0.0
C404 C 0.55336 0.4672 0.05553 0.0
N405 N 0.52885 0.45526 0.03787 0.0
C406 C 0.5406 0.41327 0.03303 0.0
C407 C 0.56565 0.42481 0.05234 0.0
C408 C 0.57222 0.4523 0.06291 0.0
C409 C 0.5224 0.4289 0.02621 0.0
H410 H 0.55788 0.4881 0.06505 0.0
H411 H 0.50261 0.4198 0.01284 0.0
C412 C 0.46836 0.46697 0.95513 0.0
C413 C 0.46473 0.53531 0.9091 0.0
C414 C 0.44756 0.55145 0.9008 0.0
C415 C 0.44402 0.57176 0.92317 0.0
C416 C 0.45748 0.5749 0.95382 0.0
C417 C 0.47495 0.5585 0.96104 0.0
N418 N 0.4782 0.53922 0.93866 0.0
H419 H 0.46796 0.52003 0.89176 0.0
H420 H 0.48629 0.56149 0.98428 0.0
C421 C 0.52325 0.45592 0.93651 0.0
N422 N 0.53199 0.4801 0.95524 0.0
C423 C 0.56764 0.46588 0.98369 0.0
C424 C 0.55883 0.44065 0.96492 0.0
C425 C 0.5362 0.43571 0.94123 0.0
C426 C 0.55389 0.48547 0.97834 0.0
H427 H 0.50645 0.45242 0.91754 0.0
H428 H 0.56115 0.5051 0.99218 0.0
C429 C 0.53157 0.53525 0.03066 0.0
C430 C 0.46152 0.45371 0.06911 0.0
N431 N 0.47214 0.51249 0.03745 0.0
C432 C 0.4761 0.52927 0.06503 0.0
C433 C 0.46378 0.55059 0.06759 0.0
C434 C 0.44713 0.55453 0.04149 0.0
C435 C 0.44293 0.53645 0.01363 0.0
C436 C 0.45544 0.51539 0.01222 0.0
C437 C 0.5416 0.52836 0.90378 0.0
O438 O 0.48617 0.47698 0.97899 0.0
O439 O 0.46995 0.47683 0.93128 0.0
O440 O 0.52395 0.52756 0.00168 0.0
O441 O 0.52632 0.51983 0.04912 0.0
O442 O 0.45455 0.44845 0.03976 0.0
O443 O 0.48419 0.46907 0.0808 0.0
O444 O 0.54482 0.54236 0.93061 0.0
O445 O 0.52268 0.50792 0.89633 0.0
H446 H 0.48902 0.52619 0.08496 0.0
H447 H 0.45157 0.50145 0.99087 0.0
H448 H 0.53478 0.39222 0.02407 0.0
H449 H 0.59113 0.46201 0.07816 0.0
H450 H 0.43743 0.54834 0.87697 0.0
H451 H 0.45532 0.59046 0.97165 0.0
H452 H 0.58528 0.47056 0.00187 0.0
H453 H 0.52934 0.41682 0.92548 0.0
H454 H 0.46687 0.56346 0.0899 0.0
H455 H 0.43019 0.5385 0.99294 0.0
Cd456 Cd 0.97676 0.49491 0.54326 0.0
Cd457 Cd 0.02879 0.50696 0.45957 0.0
C458 C 0.03126 0.48416 0.58078 0.0
N459 N 0.01146 0.47469 0.55542 0.0
C460 C 0.03233 0.43997 0.53828 0.0
C461 C 0.05346 0.44957 0.56384 0.0
C462 C 0.05275 0.47196 0.58532 0.0
C463 C 0.01144 0.45292 0.53452 0.0
H464 H 0.0306 0.5014 0.59717 0.0
H465 H 0.99512 0.44564 0.51486 0.0
C466 C 0.97191 0.46894 0.4618 0.0
C467 C 0.97577 0.51948 0.42112 0.0
C468 C 0.95439 0.53177 0.41636 0.0
C469 C 0.95295 0.55338 0.43853 0.0
C470 C 0.97329 0.56213 0.465 0.0
C471 C 0.99403 0.54902 0.46898 0.0
N472 N 0.99467 0.52795 0.44744 0.0
H473 H 0.97702 0.50288 0.40414 0.0
H474 H 0.0097 0.55565 0.4893 0.0
C475 C 0.04023 0.44938 0.43612 0.0
N476 N 0.05164 0.47267 0.45596 0.0
C477 C 0.09327 0.45939 0.46589 0.0
C478 C 0.08234 0.43553 0.44463 0.0
C479 C 0.05522 0.43041 0.43023 0.0
C480 C 0.07751 0.47781 0.47112 0.0
H481 H 0.01986 0.44593 0.42368 0.0
H482 H 0.08626 0.49668 0.48629 0.0
C483 C 0.03149 0.53213 0.53751 0.0
C484 C 0.94221 0.46023 0.57132 0.0
N485 N 0.95472 0.52982 0.54786 0.0
C486 C 0.96359 0.54878 0.5739 0.0
C487 C 0.94919 0.56806 0.58087 0.0
C488 C 0.92514 0.56764 0.56107 0.0
C489 C 0.91684 0.54824 0.53384 0.0
C490 C 0.93208 0.52946 0.52759 0.0
C491 C 0.06383 0.54285 0.43332 0.0
O492 O 0.97985 0.4832 0.48855 0.0
O493 O 0.98677 0.47186 0.44185 0.0
O494 O 0.02338 0.5146 0.51327 0.0
O495 O 0.01777 0.53174 0.55875 0.0
O496 O 0.94087 0.45619 0.54222 0.0
O497 O 0.9593 0.48045 0.58722 0.0
O498 O 0.0641 0.54691 0.46227 0.0
O499 O 0.04776 0.52211 0.41704 0.0
H500 H 0.98131 0.54828 0.58999 0.0
H501 H 0.92528 0.51405 0.50717 0.0
H502 H 0.0317 0.42243 0.52157 0.0
H503 H 0.06873 0.48013 0.60524 0.0
H504 H 0.93905 0.5242 0.39572 0.0
H505 H 0.97343 0.57912 0.48229 0.0
H506 H 0.11399 0.4641 0.47775 0.0
H507 H 0.04602 0.41254 0.41328 0.0
H508 H 0.95614 0.58234 0.60234 0.0
H509 H 0.89853 0.54732 0.51783 0.0
Cd510 Cd 0.49264 0.9906 0.55284 0.0
Cd511 Cd 0.50908 0.01079 0.44986 0.0
C512 C 0.53232 0.97066 0.60239 0.0
N513 N 0.52832 0.97291 0.57225 0.0
C514 C 0.56108 0.94785 0.56249 0.0
C515 C 0.56458 0.94407 0.5931 0.0
C516 C 0.55031 0.95609 0.6133 0.0
C517 C 0.54253 0.96226 0.5524 0.0
H518 H 0.52075 0.9793 0.61768 0.0
H519 H 0.53867 0.96409 0.52845 0.0
C520 C 0.47343 0.96301 0.47125 0.0
C521 C 0.46483 0.02648 0.40098 0.0
C522 C 0.44687 0.04104 0.38988 0.0
C523 C 0.43553 0.05632 0.41065 0.0
C524 C 0.44181 0.05572 0.4422 0.0
C525 C 0.46036 0.04129 0.45241 0.0
N526 N 0.47178 0.02744 0.43183 0.0
H527 H 0.47425 0.01543 0.38506 0.0
H528 H 0.46655 0.04209 0.47686 0.0
C529 C 0.52116 0.96283 0.40267 0.0
N530 N 0.53089 0.97832 0.43116 0.0
C531 C 0.56909 0.95899 0.43717 0.0
C532 C 0.55988 0.94302 0.40752 0.0
C533 C 0.53532 0.9449 0.39041 0.0
C534 C 0.55422 0.97656 0.44856 0.0
H535 H 0.50259 0.96473 0.38927 0.0
H536 H 0.5616 0.98932 0.47103 0.0
C537 C 0.53016 0.03847 0.5314 0.0
C538 C 0.45258 0.95097 0.56277 0.0
N539 N 0.47171 0.02322 0.57298 0.0
C540 C 0.48088 0.03777 0.60204 0.0
C541 C 0.46643 0.05529 0.61462 0.0
C542 C 0.44221 0.0577 0.5972 0.0
C543 C 0.43366 0.04272 0.56698 0.0
C544 C 0.44877 0.02555 0.55531 0.0
C545 C 0.54346 0.05018 0.43183 0.0
O546 O 0.48537 0.97912 0.49607 0.0
O547 O 0.47712 0.96923 0.44577 0.0
O548 O 0.51772 0.02315 0.5063 0.0
O549 O 0.52583 0.03187 0.55654 0.0
O550 O 0.45299 0.95656 0.53625 0.0
O551 O 0.47062 0.96477 0.58524 0.0
O552 O 0.5472 0.04723 0.45972 0.0
O553 O 0.52504 0.03339 0.41242 0.0
H554 H 0.49911 0.03537 0.61566 0.0
H555 H 0.44181 0.01347 0.5324 0.0
H556 H 0.57162 0.93874 0.54621 0.0
H557 H 0.55266 0.95378 0.63713 0.0
H558 H 0.44237 0.04088 0.36536 0.0
H559 H 0.43357 0.06738 0.45893 0.0
H560 H 0.58803 0.95859 0.45109 0.0
H561 H 0.52716 0.93277 0.36769 0.0
H562 H 0.47405 0.06665 0.63783 0.0
H563 H 0.41499 0.04352 0.5528 0.0
C564 C 0.14512 0.12555 0.23196 0.0
C565 C 0.1714 0.14076 0.24236 0.0
C566 C 0.1344 0.10721 0.24854 0.0
C567 C 0.14101 0.10654 0.32892 0.0
H568 H 0.08563 0.04229 0.30312 0.0
C569 C 0.07775 0.06803 0.41344 0.0
C570 C 0.05045 0.05718 0.40152 0.0
C571 C 0.09539 0.0736 0.39363 0.0
C572 C 0.10095 0.06035 0.31063 0.0
H573 H 0.20821 0.14573 0.27583 0.0
H574 H 0.18954 0.11372 0.30433 0.0
H575 H 0.11278 0.05707 0.26655 0.0
H576 H 0.01999 0.04415 0.35974 0.0
H577 H 0.05045 0.05515 0.32525 0.0
H578 H 0.1283 0.11109 0.37207 0.0
C579 C 0.1771 0.11638 0.28372 0.0
C580 C 0.11662 0.0686 0.28978 0.0
C581 C 0.18781 0.13469 0.26719 0.0
C582 C 0.04097 0.05252 0.36953 0.0
C583 C 0.05852 0.05847 0.34974 0.0
C584 C 0.12517 0.09854 0.34954 0.0
C585 C 0.14986 0.10381 0.27572 0.0
C586 C 0.13645 0.09205 0.29861 0.0
C587 C 0.086 0.06884 0.36152 0.0
C588 C 0.10455 0.07567 0.34047 0.0
H589 H 0.13222 0.12928 0.21242 0.0
H590 H 0.11334 0.09765 0.24173 0.0
H591 H 0.15578 0.12502 0.33619 0.0
H592 H 0.08566 0.07144 0.438 0.0
H593 H 0.11646 0.08124 0.4035 0.0
C594 C 0.77246 0.19387 0.32456 0.0
C595 C 0.78501 0.2118 0.30833 0.0
C596 C 0.78766 0.1806 0.3429 0.0
C597 C 0.85261 0.16062 0.35086 0.0
H598 H 0.8417 0.15052 0.43225 0.0
C599 C 0.92914 0.12304 0.42887 0.0
C600 C 0.91955 0.10364 0.4451 0.0
C601 C 0.91191 0.13675 0.4145 0.0
C602 C 0.84483 0.15295 0.40942 0.0
H603 H 0.82351 0.23056 0.29973 0.0
H604 H 0.84964 0.20783 0.33154 0.0
H605 H 0.8125 0.17282 0.40241 0.0
H606 H 0.88437 0.08466 0.46032 0.0
H607 H 0.85408 0.10825 0.43456 0.0
H608 H 0.88469 0.1408 0.35748 0.0
C609 C 0.8281 0.2035 0.32972 0.0
C610 C 0.82807 0.16571 0.39233 0.0
C611 C 0.81304 0.21666 0.31153 0.0
C612 C 0.89239 0.09917 0.44765 0.0
C613 C 0.87506 0.11289 0.43311 0.0
C614 C 0.86923 0.1479 0.36782 0.0
C615 C 0.81564 0.18498 0.34525 0.0
C616 C 0.83206 0.17004 0.36301 0.0
C617 C 0.88449 0.13138 0.41568 0.0
C618 C 0.86588 0.14422 0.39753 0.0
H619 H 0.75092 0.18974 0.32265 0.0
H620 H 0.77745 0.16641 0.35454 0.0
H621 H 0.85586 0.16303 0.32806 0.0
H622 H 0.94979 0.1269 0.42602 0.0
H623 H 0.92004 0.15126 0.40188 0.0
C624 C 0.81266 0.83063 0.26606 0.0
C625 C 0.81552 0.80458 0.25939 0.0
C626 C 0.83186 0.84899 0.28858 0.0
C627 C 0.89545 0.86066 0.34422 0.0
H628 H 0.85223 0.8827 0.40273 0.0
C629 C 0.94788 0.92497 0.4571 0.0
C630 C 0.94127 0.94937 0.45584 0.0
C631 C 0.93016 0.90194 0.44018 0.0
C632 C 0.86447 0.87631 0.38676 0.0
H633 H 0.84227 0.7782 0.26557 0.0
H634 H 0.87614 0.81038 0.30436 0.0
H635 H 0.83042 0.85829 0.35097 0.0
H636 H 0.91014 0.96925 0.44112 0.0
H637 H 0.87892 0.9292 0.41229 0.0
H638 H 0.92954 0.87938 0.37971 0.0
C639 C 0.8591 0.81667 0.29301 0.0
C640 C 0.8521 0.86288 0.35702 0.0
C641 C 0.83985 0.79832 0.27065 0.0
C642 C 0.9155 0.95045 0.4419 0.0
C643 C 0.89764 0.92748 0.42561 0.0
C644 C 0.90785 0.87419 0.37398 0.0
C645 C 0.85392 0.84124 0.30409 0.0
C646 C 0.86754 0.85573 0.33524 0.0
C647 C 0.90576 0.90342 0.42248 0.0
C648 C 0.89247 0.88284 0.39517 0.0
H649 H 0.79394 0.83573 0.25756 0.0
H650 H 0.82792 0.86818 0.29636 0.0
H651 H 0.90767 0.85486 0.32795 0.0
H652 H 0.96779 0.92398 0.46794 0.0
H653 H 0.93663 0.88348 0.43835 0.0
C654 C 0.18892 0.82096 0.34821 0.0
C655 C 0.18489 0.82838 0.31926 0.0
C656 C 0.17421 0.82842 0.37031 0.0
C657 C 0.11279 0.85102 0.37938 0.0
H658 H 0.15206 0.88757 0.46095 0.0
C659 C 0.10074 0.94201 0.46313 0.0
C660 C 0.07328 0.93484 0.46339 0.0
C661 C 0.11478 0.92272 0.45534 0.0
C662 C 0.14078 0.87689 0.4385 0.0
H663 H 0.16219 0.84954 0.29106 0.0
H664 H 0.13711 0.86316 0.32998 0.0
H665 H 0.17528 0.8657 0.42452 0.0
H666 H 0.03991 0.90197 0.46016 0.0
H667 H 0.0644 0.86816 0.44536 0.0
H668 H 0.07872 0.86355 0.39254 0.0
C669 C 0.15132 0.8511 0.33522 0.0
C670 C 0.154 0.8644 0.4177 0.0
C671 C 0.166 0.84365 0.3131 0.0
C672 C 0.0609 0.908 0.45919 0.0
C673 C 0.07489 0.88869 0.45102 0.0
C674 C 0.09954 0.86328 0.40022 0.0
C675 C 0.15523 0.84346 0.36394 0.0
C676 C 0.14033 0.85234 0.38757 0.0
C677 C 0.10153 0.89602 0.44745 0.0
C678 C 0.11369 0.87721 0.4295 0.0
H679 H 0.20356 0.80955 0.354 0.0
H680 H 0.17759 0.82235 0.39234 0.0
H681 H 0.10178 0.84153 0.35637 0.0
H682 H 0.11085 0.9625 0.46617 0.0
H683 H 0.13527 0.92891 0.45252 0.0
C684 C 0.17513 0.78028 0.69418 0.0
C685 C 0.20274 0.78354 0.69451 0.0
C686 C 0.15944 0.79283 0.67558 0.0
C687 C 0.16445 0.84928 0.63525 0.0
H688 H 0.09189 0.81401 0.59413 0.0
C689 C 0.09808 0.89863 0.55594 0.0
C690 C 0.07122 0.89591 0.55939 0.0
C691 C 0.11444 0.88368 0.56977 0.0
C692 C 0.11205 0.82426 0.60563 0.0
H693 H 0.23537 0.80232 0.67501 0.0
H694 H 0.20802 0.82408 0.64253 0.0
H695 H 0.11965 0.79045 0.62338 0.0
H696 H 0.04072 0.87511 0.5803 0.0
H697 H 0.06896 0.84912 0.60396 0.0
H698 H 0.15674 0.88319 0.61781 0.0
C699 C 0.19852 0.81206 0.65694 0.0
C700 C 0.12798 0.81072 0.62247 0.0
C701 C 0.21419 0.79944 0.67547 0.0
C702 C 0.06107 0.87741 0.57646 0.0
C703 C 0.07736 0.86248 0.59019 0.0
C704 C 0.1485 0.86283 0.61842 0.0
C705 C 0.17094 0.80905 0.65684 0.0
C706 C 0.15433 0.82311 0.63777 0.0
C707 C 0.10436 0.86558 0.58735 0.0
C708 C 0.12197 0.8506 0.60363 0.0
H709 H 0.16562 0.76817 0.70851 0.0
H710 H 0.13836 0.79026 0.6764 0.0
H711 H 0.18451 0.85961 0.64703 0.0
H712 H 0.10654 0.91243 0.54268 0.0
H713 H 0.13502 0.88634 0.56669 0.0
C714 C 0.18158 0.16896 0.73088 0.0
C715 C 0.18077 0.19548 0.73926 0.0
C716 C 0.16149 0.15239 0.70771 0.0
C717 C 0.09842 0.14461 0.65377 0.0
H718 H 0.14023 0.1233 0.59326 0.0
C719 C 0.04472 0.07734 0.54307 0.0
C720 C 0.05229 0.05349 0.54529 0.0
C721 C 0.06197 0.10106 0.55881 0.0
C722 C 0.12837 0.12959 0.60974 0.0
H723 H 0.15677 0.22455 0.73517 0.0
H724 H 0.12125 0.19538 0.69519 0.0
H725 H 0.16299 0.14759 0.64477 0.0
H726 H 0.08447 0.03513 0.56076 0.0
H727 H 0.11494 0.07635 0.58746 0.0
H728 H 0.06375 0.12548 0.61922 0.0
C729 C 0.13738 0.18743 0.7058 0.0
C730 C 0.14129 0.14296 0.63929 0.0
C731 C 0.15755 0.20402 0.72881 0.0
C732 C 0.07839 0.05351 0.5592 0.0
C733 C 0.09581 0.07713 0.57423 0.0
C734 C 0.08544 0.13105 0.62419 0.0
C735 C 0.1406 0.16239 0.69327 0.0
C736 C 0.12637 0.1495 0.66185 0.0
C737 C 0.08693 0.10081 0.57624 0.0
C738 C 0.10034 0.12243 0.60242 0.0
H739 H 0.19944 0.16214 0.73868 0.0
H740 H 0.16389 0.13282 0.69866 0.0
H741 H 0.08664 0.15008 0.67072 0.0
H742 H 0.02451 0.07747 0.53231 0.0
H743 H 0.05486 0.11915 0.5599 0.0
C744 C 0.80118 0.17911 0.63921 0.0
C745 C 0.80944 0.17478 0.6691 0.0
C746 C 0.81503 0.17246 0.61581 0.0
C747 C 0.87973 0.15779 0.60345 0.0
H748 H 0.8387 0.1107 0.52822 0.0
C749 C 0.93219 0.09327 0.534 0.0
C750 C 0.91999 0.06678 0.53267 0.0
C751 C 0.91776 0.11289 0.53847 0.0
C752 C 0.85045 0.12424 0.54882 0.0
H753 H 0.83879 0.16041 0.69797 0.0
H754 H 0.86261 0.14834 0.65714 0.0
H755 H 0.81556 0.1337 0.56366 0.0
H756 H 0.88246 0.03979 0.53175 0.0
H757 H 0.85752 0.07375 0.53987 0.0
H758 H 0.91433 0.14669 0.59025 0.0
C759 C 0.84567 0.15721 0.65186 0.0
C760 C 0.83723 0.13747 0.56903 0.0
C761 C 0.83176 0.16369 0.67513 0.0
C762 C 0.89246 0.05999 0.53262 0.0
C763 C 0.87807 0.07955 0.53712 0.0
C764 C 0.89292 0.14456 0.58334 0.0
C765 C 0.83751 0.1616 0.62201 0.0
C766 C 0.85167 0.15318 0.59731 0.0
C767 C 0.89095 0.10629 0.54182 0.0
C768 C 0.87824 0.12647 0.55671 0.0
H769 H 0.78388 0.18743 0.63386 0.0
H770 H 0.80826 0.17588 0.59294 0.0
H771 H 0.89135 0.17026 0.62485 0.0
H772 H 0.95325 0.09897 0.53322 0.0
H773 H 0.92805 0.13332 0.54144 0.0
C774 C 0.85356 0.87559 0.77097 0.0
C775 C 0.82725 0.86034 0.76116 0.0
C776 C 0.86351 0.89452 0.75468 0.0
C777 C 0.85451 0.89687 0.6747 0.0
H778 H 0.91009 0.96097 0.70057 0.0
C779 C 0.91654 0.93627 0.58959 0.0
C780 C 0.94395 0.94672 0.60123 0.0
C781 C 0.8991 0.93071 0.60961 0.0
C782 C 0.89469 0.94297 0.69303 0.0
H783 H 0.78963 0.85591 0.72925 0.0
H784 H 0.80698 0.88889 0.70126 0.0
H785 H 0.88392 0.94545 0.73762 0.0
H786 H 0.97482 0.95907 0.64266 0.0
H787 H 0.94471 0.94804 0.67749 0.0
H788 H 0.86626 0.89305 0.63099 0.0
C789 C 0.82002 0.88583 0.72116 0.0
C790 C 0.87958 0.9343 0.71416 0.0
C791 C 0.81008 0.86694 0.73741 0.0
C792 C 0.95374 0.95103 0.63311 0.0
C793 C 0.93639 0.94507 0.65309 0.0
C794 C 0.86981 0.90527 0.65379 0.0
C795 C 0.84724 0.89848 0.7284 0.0
C796 C 0.85976 0.91085 0.70532 0.0
C797 C 0.90881 0.93506 0.64163 0.0
C798 C 0.89055 0.92805 0.66289 0.0
H799 H 0.86705 0.87145 0.7897 0.0
H800 H 0.88458 0.90413 0.76087 0.0
H801 H 0.83971 0.87842 0.66739 0.0
H802 H 0.90842 0.93314 0.56511 0.0
H803 H 0.87795 0.92334 0.59999 0.0
C804 C 0.31092 0.22358 0.17883 0.0
C805 C 0.28548 0.21231 0.18385 0.0
C806 C 0.32457 0.20851 0.16092 0.0
C807 C 0.32885 0.13969 0.13795 0.0
H808 H 0.36941 0.16511 0.07886 0.0
C809 C 0.37984 0.07127 0.06618 0.0
C810 C 0.40577 0.08165 0.06182 0.0
C811 C 0.36434 0.08782 0.07817 0.0
C812 C 0.35842 0.15781 0.09552 0.0
H813 H 0.25402 0.17663 0.17288 0.0
H814 H 0.27779 0.15049 0.14176 0.0
H815 H 0.34382 0.19317 0.10489 0.0
H816 H 0.43518 0.11789 0.06562 0.0
H817 H 0.40838 0.1468 0.08742 0.0
H818 H 0.34377 0.10472 0.12945 0.0
C819 C 0.2873 0.17089 0.15191 0.0
C820 C 0.3437 0.17387 0.11036 0.0
C821 C 0.2736 0.18595 0.16959 0.0
C822 C 0.41544 0.10918 0.069 0.0
C823 C 0.39993 0.12579 0.0812 0.0
C824 C 0.34366 0.12377 0.12336 0.0
C825 C 0.31316 0.18181 0.14787 0.0
C826 C 0.32865 0.16492 0.13164 0.0
C827 C 0.37435 0.11526 0.08648 0.0
C828 C 0.35856 0.13251 0.10181 0.0
H829 H 0.32065 0.24381 0.18948 0.0
H830 H 0.34451 0.21746 0.15835 0.0
H831 H 0.31794 0.13242 0.15472 0.0
H832 H 0.37175 0.05019 0.06137 0.0
H833 H 0.34455 0.07899 0.08132 0.0
C834 C 0.86816 0.27615 0.17711 0.0
C835 C 0.84018 0.27022 0.1745 0.0
C836 C 0.87942 0.28542 0.15354 0.0
C837 C 0.88732 0.30846 0.08961 0.0
H838 H 0.87586 0.37662 0.12578 0.0
C839 C 0.92076 0.40777 0.04959 0.0
C840 C 0.93866 0.42642 0.07363 0.0
C841 C 0.90643 0.38456 0.05562 0.0
C842 C 0.87887 0.35768 0.11522 0.0
H843 H 0.80229 0.26436 0.14238 0.0
H844 H 0.82208 0.28105 0.10212 0.0
H845 H 0.8561 0.33718 0.14322 0.0
H846 H 0.95475 0.43611 0.12291 0.0
H847 H 0.92897 0.39595 0.13354 0.0
H848 H 0.91076 0.32944 0.06205 0.0
C849 C 0.83517 0.27857 0.12234 0.0
C850 C 0.8676 0.33525 0.12507 0.0
C851 C 0.82388 0.26936 0.14583 0.0
C852 C 0.94113 0.42207 0.10394 0.0
C853 C 0.92649 0.39914 0.11002 0.0
C854 C 0.89837 0.33106 0.07932 0.0
C855 C 0.86278 0.28863 0.1272 0.0
C856 C 0.87222 0.31069 0.11282 0.0
C857 C 0.90939 0.38012 0.08586 0.0
C858 C 0.89472 0.35582 0.09276 0.0
H859 H 0.88137 0.27593 0.19829 0.0
H860 H 0.90087 0.29318 0.15761 0.0
H861 H 0.8911 0.28957 0.08017 0.0
H862 H 0.91824 0.41084 0.02608 0.0
H863 H 0.89303 0.37016 0.03681 0.0
C864 C 0.69696 0.79239 0.1046 0.0
C865 C 0.70104 0.79496 0.13684 0.0
C866 C 0.68567 0.8105 0.09037 0.0
C867 C 0.66934 0.87624 0.1076 0.0
H868 H 0.6095 0.84708 0.03899 0.0
C869 C 0.57608 0.91703 0.08768 0.0
C870 C 0.56796 0.92317 0.05873 0.0
C871 C 0.59681 0.90401 0.09237 0.0
C872 C 0.62657 0.85554 0.05765 0.0
H873 H 0.69616 0.81823 0.17938 0.0
H874 H 0.6764 0.84945 0.15478 0.0
H875 H 0.63868 0.8189 0.05652 0.0
H876 H 0.5753 0.9202 0.0119 0.0
H877 H 0.61084 0.89597 0.01996 0.0
H878 H 0.65578 0.91226 0.11022 0.0
C879 C 0.6826 0.83403 0.14043 0.0
C880 C 0.64328 0.8395 0.06768 0.0
C881 C 0.6939 0.81606 0.15458 0.0
C882 C 0.5808 0.91549 0.03437 0.0
C883 C 0.60126 0.90189 0.03896 0.0
C884 C 0.65246 0.89211 0.09784 0.0
C885 C 0.67825 0.83141 0.10819 0.0
C886 C 0.66417 0.84946 0.09354 0.0
C887 C 0.6095 0.89636 0.0681 0.0
C888 C 0.63046 0.88158 0.07354 0.0
H889 H 0.70247 0.77639 0.09044 0.0
H890 H 0.68262 0.80807 0.06547 0.0
H891 H 0.68565 0.88459 0.12715 0.0
H892 H 0.56621 0.92191 0.10672 0.0
H893 H 0.60258 0.89939 0.11488 0.0
C894 C 0.17215 0.73453 0.1637 0.0
C895 C 0.19563 0.72527 0.17084 0.0
C896 C 0.15261 0.72179 0.1374 0.0
C897 C 0.13932 0.66847 0.06626 0.0
H898 H 0.06875 0.6513 0.08609 0.0
C899 C 0.03233 0.58519 0.0262 0.0
C900 C 0.04315 0.563 0.0286 0.0
C901 C 0.04916 0.61043 0.03282 0.0
C902 C 0.08812 0.65631 0.07971 0.0
H903 H 0.21777 0.6965 0.15485 0.0
H904 H 0.18389 0.67413 0.10997 0.0
H905 H 0.10253 0.68773 0.11901 0.0
H906 H 0.07966 0.54918 0.0381 0.0
H907 H 0.10918 0.59307 0.04895 0.0
H908 H 0.12555 0.6352 0.02887 0.0
C909 C 0.18042 0.69137 0.12413 0.0
C910 C 0.10757 0.67731 0.09861 0.0
C911 C 0.19984 0.70406 0.15024 0.0
C912 C 0.07099 0.56608 0.03582 0.0
C913 C 0.08782 0.59118 0.04192 0.0
C914 C 0.12002 0.64718 0.04776 0.0
C915 C 0.1562 0.69956 0.11772 0.0
C916 C 0.13387 0.68271 0.09311 0.0
C917 C 0.07705 0.6137 0.0416 0.0
C918 C 0.09465 0.64011 0.05518 0.0
H919 H 0.16841 0.75103 0.17895 0.0
H920 H 0.13438 0.72888 0.133 0.0
H921 H 0.15908 0.6726 0.06069 0.0
H922 H 0.01082 0.58316 0.021 0.0
H923 H 0.04035 0.62744 0.03243 0.0
C924 C 0.26525 0.83966 0.8078 0.0
C925 C 0.26626 0.81507 0.81528 0.0
C926 C 0.27714 0.86268 0.82964 0.0
C927 C 0.32133 0.88657 0.90895 0.0
H928 H 0.36284 0.92997 0.86348 0.0
C929 C 0.43655 0.94309 0.91382 0.0
C930 C 0.44424 0.95703 0.94441 0.0
C931 C 0.41001 0.92985 0.90216 0.0
C932 C 0.35151 0.91799 0.87657 0.0
H933 H 0.27779 0.7945 0.85145 0.0
H934 H 0.30041 0.83432 0.88889 0.0
H935 H 0.32119 0.90064 0.83706 0.0
H936 H 0.43072 0.96705 0.98707 0.0
H937 H 0.38398 0.94462 0.96661 0.0
H938 H 0.3535 0.90244 0.94781 0.0
C939 C 0.28979 0.83644 0.86692 0.0
C940 C 0.32711 0.90145 0.86154 0.0
C941 C 0.27708 0.81348 0.84539 0.0
C942 C 0.42514 0.95662 0.96342 0.0
C943 C 0.39844 0.94371 0.95167 0.0
C944 C 0.34613 0.90283 0.9239 0.0
C945 C 0.29141 0.86134 0.85868 0.0
C946 C 0.31236 0.88437 0.87704 0.0
C947 C 0.39048 0.93064 0.92067 0.0
C948 C 0.3621 0.91757 0.90729 0.0
H949 H 0.25644 0.84107 0.78466 0.0
H950 H 0.27691 0.88145 0.82286 0.0
H951 H 0.31009 0.87445 0.92197 0.0
H952 H 0.45093 0.94273 0.89872 0.0
H953 H 0.40478 0.9191 0.87849 0.0
C954 C 0.20563 0.30339 0.81947 0.0
C955 C 0.20916 0.30162 0.78874 0.0
C956 C 0.18935 0.31932 0.83121 0.0
C957 C 0.13435 0.35171 0.80533 0.0
H958 H 0.15249 0.39031 0.88999 0.0
C959 C 0.07912 0.43083 0.8525 0.0
C960 C 0.07306 0.43077 0.88207 0.0
C961 C 0.09507 0.41444 0.84093 0.0
C962 C 0.14702 0.37945 0.86637 0.0
H963 H 0.19892 0.31586 0.74654 0.0
H964 H 0.17113 0.34399 0.76712 0.0
H965 H 0.18234 0.36385 0.87063 0.0
H966 H 0.07824 0.4122 0.92193 0.0
H967 H 0.10648 0.38426 0.90203 0.0
H968 H 0.09921 0.36768 0.80103 0.0
C969 C 0.18039 0.33263 0.78202 0.0
C970 C 0.16412 0.36422 0.85525 0.0
C971 C 0.19656 0.31664 0.77027 0.0
C972 C 0.08296 0.4134 0.89941 0.0
C973 C 0.09913 0.39726 0.88798 0.0
C974 C 0.11737 0.36709 0.81638 0.0
C975 C 0.17626 0.33394 0.81253 0.0
C976 C 0.15805 0.35017 0.82454 0.0
C977 C 0.10557 0.39773 0.85872 0.0
C978 C 0.1235 0.38116 0.84702 0.0
H979 H 0.21499 0.29203 0.83432 0.0
H980 H 0.18649 0.3196 0.8547 0.0
H981 H 0.12867 0.34075 0.78176 0.0
H982 H 0.07222 0.44409 0.83857 0.0
H983 H 0.09984 0.41541 0.81837 0.0
C984 C 0.68362 0.20971 0.80086 0.0
C985 C 0.70257 0.20068 0.78505 0.0
C986 C 0.66813 0.19326 0.81622 0.0
C987 C 0.64497 0.12272 0.82113 0.0
H988 H 0.62984 0.15283 0.89965 0.0
C989 C 0.5703 0.06288 0.8817 0.0
C990 C 0.57623 0.06633 0.91408 0.0
C991 C 0.58567 0.07921 0.86615 0.0
C992 C 0.63401 0.14397 0.87788 0.0
H993 H 0.71974 0.16694 0.7729 0.0
H994 H 0.69294 0.13837 0.79981 0.0
H995 H 0.65665 0.18087 0.87237 0.0
H996 H 0.60321 0.08985 0.95545 0.0
H997 H 0.63023 0.11815 0.92837 0.0
H998 H 0.62282 0.08572 0.82693 0.0
C999 C 0.6898 0.15812 0.80009 0.0
C1000 C 0.64916 0.1602 0.86196 0.0
C1001 C 0.70532 0.1746 0.78473 0.0
C1002 C 0.59797 0.08666 0.93051 0.0
C1003 C 0.61341 0.10301 0.91493 0.0
C1004 C 0.6298 0.10651 0.83702 0.0
C1005 C 0.67107 0.16724 0.81627 0.0
C1006 C 0.65487 0.14985 0.8333 0.0
C1007 C 0.60753 0.09951 0.88247 0.0
C1008 C 0.62402 0.11686 0.86565 0.0
H1009 H 0.68081 0.22962 0.80158 0.0
H1010 H 0.65366 0.20094 0.82791 0.0
H1011 H 0.64865 0.11397 0.79903 0.0
H1012 H 0.55364 0.04753 0.86824 0.0
H1013 H 0.58014 0.07609 0.84125 0.0
C1014 C 0.81536 0.71848 0.8126 0.0
C1015 C 0.78732 0.71013 0.80407 0.0
C1016 C 0.83082 0.70175 0.82369 0.0
C1017 C 0.82977 0.64375 0.85944 0.0
H1018 H 0.88914 0.63482 0.81888 0.0
C1019 C 0.89152 0.56577 0.88319 0.0
C1020 C 0.9192 0.57243 0.8837 0.0
C1021 C 0.87482 0.58207 0.87346 0.0
C1022 C 0.87294 0.63732 0.83085 0.0
H1023 H 0.75348 0.67801 0.80182 0.0
H1024 H 0.78058 0.64903 0.82207 0.0
H1025 H 0.86152 0.66491 0.80393 0.0
H1026 H 0.95105 0.60178 0.87491 0.0
H1027 H 0.92223 0.63032 0.85853 0.0
H1028 H 0.84151 0.61669 0.88694 0.0
C1029 C 0.79051 0.66849 0.81987 0.0
C1030 C 0.85704 0.65453 0.82216 0.0
C1031 C 0.77502 0.68509 0.8083 0.0
C1032 C 0.92975 0.59577 0.87423 0.0
C1033 C 0.91314 0.61216 0.86477 0.0
C1034 C 0.84592 0.62675 0.86846 0.0
C1035 C 0.81862 0.67642 0.82696 0.0
C1036 C 0.83533 0.658 0.83639 0.0
C1037 C 0.88541 0.60559 0.86424 0.0
C1038 C 0.86779 0.62332 0.85434 0.0
H1039 H 0.82553 0.73756 0.80952 0.0
H1040 H 0.85242 0.7085 0.8293 0.0
H1041 H 0.81326 0.64616 0.87093 0.0
H1042 H 0.88271 0.54783 0.89012 0.0
H1043 H 0.85356 0.57605 0.8729 0.0
C1044 C 0.1862 0.27796 0.17761 0.0
C1045 C 0.21248 0.28895 0.19405 0.0
C1046 C 0.1708 0.29369 0.16393 0.0
C1047 C 0.1754 0.35948 0.14125 0.0
H1048 H 0.10006 0.34655 0.14558 0.0
C1049 C 0.10909 0.43371 0.11663 0.0
C1050 C 0.0833 0.42315 0.0986 0.0
C1051 C 0.12507 0.41708 0.12713 0.0
C1052 C 0.12101 0.35028 0.14392 0.0
H1053 H 0.2433 0.32507 0.20842 0.0
H1054 H 0.21643 0.35247 0.18528 0.0
H1055 H 0.12748 0.31785 0.16506 0.0
H1056 H 0.05394 0.3868 0.07803 0.0
H1057 H 0.08179 0.35789 0.09624 0.0
H1058 H 0.1689 0.39232 0.12069 0.0
C1059 C 0.20776 0.33162 0.18233 0.0
C1060 C 0.13677 0.33373 0.15499 0.0
C1061 C 0.22321 0.31587 0.19577 0.0
C1062 C 0.07383 0.39559 0.09152 0.0
C1063 C 0.08969 0.37901 0.10224 0.0
C1064 C 0.15968 0.37616 0.13042 0.0
C1065 C 0.1812 0.32086 0.16655 0.0
C1066 C 0.16422 0.33808 0.15385 0.0
C1067 C 0.11551 0.38953 0.12015 0.0
C1068 C 0.13229 0.37178 0.13164 0.0
H1069 H 0.17731 0.25729 0.17579 0.0
H1070 H 0.15064 0.28453 0.15148 0.0
H1071 H 0.19632 0.36326 0.13946 0.0
H1072 H 0.11701 0.45483 0.12238 0.0
H1073 H 0.14478 0.42582 0.14111 0.0
C1074 C 0.15106 0.71226 0.85124 0.0
C1075 C 0.17636 0.71376 0.84342 0.0
C1076 C 0.14641 0.70477 0.87877 0.0
C1077 C 0.1657 0.65898 0.92235 0.0
H1078 H 0.11677 0.68171 0.97256 0.0
C1079 C 0.09911 0.58277 0.96823 0.0
C1080 C 0.07209 0.58379 0.9603 0.0
C1081 C 0.11932 0.60471 0.96903 0.0
C1082 C 0.13061 0.67517 0.9589 0.0
H1083 H 0.21699 0.70971 0.85886 0.0
H1084 H 0.20865 0.69625 0.90662 0.0
H1085 H 0.1394 0.71201 0.94399 0.0
H1086 H 0.04491 0.60909 0.94977 0.0
H1087 H 0.07981 0.64687 0.95002 0.0
H1088 H 0.15496 0.62139 0.93403 0.0
C1089 C 0.1926 0.70125 0.89169 0.0
C1090 C 0.14364 0.69257 0.94277 0.0
C1091 C 0.1973 0.70895 0.86434 0.0
C1092 C 0.0656 0.60761 0.9554 0.0
C1093 C 0.08573 0.62947 0.95609 0.0
C1094 C 0.15233 0.64146 0.93793 0.0
C1095 C 0.16694 0.69839 0.89871 0.0
C1096 C 0.16007 0.68402 0.92302 0.0
C1097 C 0.11283 0.62801 0.96178 0.0
C1098 C 0.13329 0.64882 0.95473 0.0
H1099 H 0.13473 0.71619 0.83568 0.0
H1100 H 0.1263 0.7023 0.88346 0.0
H1101 H 0.17826 0.65188 0.90719 0.0
H1102 H 0.10466 0.56476 0.97277 0.0
H1103 H 0.13999 0.60309 0.97418 0.0
C1104 C 0.28624 0.17801 0.86129 0.0
C1105 C 0.2972 0.20526 0.86889 0.0
C1106 C 0.29877 0.16074 0.87564 0.0
C1107 C 0.35045 0.1581 0.94203 0.0
H1108 H 0.35855 0.0963 0.88746 0.0
C1109 C 0.43515 0.10379 0.96685 0.0
C1110 C 0.42972 0.0764 0.95613 0.0
C1111 C 0.41521 0.11774 0.96112 0.0
C1112 C 0.35602 0.11315 0.90318 0.0
H1113 H 0.3298 0.23583 0.89758 0.0
H1114 H 0.35184 0.20577 0.92232 0.0
H1115 H 0.33053 0.12418 0.86754 0.0
H1116 H 0.39875 0.04179 0.9335 0.0
H1117 H 0.36382 0.06621 0.92348 0.0
H1118 H 0.37689 0.14749 0.97736 0.0
C1119 C 0.33322 0.19773 0.90583 0.0
C1120 C 0.33995 0.12915 0.89176 0.0
C1121 C 0.32062 0.21497 0.89161 0.0
C1122 C 0.40357 0.06299 0.94143 0.0
C1123 C 0.38362 0.07693 0.93574 0.0
C1124 C 0.36661 0.14212 0.95345 0.0
C1125 C 0.32261 0.1704 0.89776 0.0
C1126 C 0.33737 0.15205 0.9109 0.0
C1127 C 0.38949 0.10453 0.94465 0.0
C1128 C 0.3699 0.11974 0.93398 0.0
H1129 H 0.26803 0.17005 0.84414 0.0
H1130 H 0.28991 0.1398 0.86923 0.0
H1131 H 0.34852 0.17543 0.95745 0.0
H1132 H 0.45519 0.11464 0.97807 0.0
H1133 H 0.4204 0.13903 0.96801 0.0
C1134 C 0.79448 0.27784 0.8534 0.0
C1135 C 0.80382 0.27018 0.82633 0.0
C1136 C 0.81247 0.29098 0.88059 0.0
C1137 C 0.886 0.31889 0.91386 0.0
H1138 H 0.85917 0.37945 0.94579 0.0
C1139 C 0.95666 0.41839 0.97955 0.0
C1140 C 0.95106 0.43932 0.96567 0.0
C1141 C 0.93815 0.39403 0.97262 0.0
C1142 C 0.86696 0.36256 0.93743 0.0
H1143 H 0.83909 0.2682 0.80676 0.0
H1144 H 0.87058 0.29252 0.85351 0.0
H1145 H 0.82809 0.34048 0.91478 0.0
H1146 H 0.92177 0.45169 0.93455 0.0
H1147 H 0.88932 0.40971 0.923 0.0
H1148 H 0.92525 0.34234 0.9346 0.0
C1149 C 0.8495 0.2878 0.85441 0.0
C1150 C 0.84906 0.33993 0.91983 0.0
C1151 C 0.83146 0.27397 0.82742 0.0
C1152 C 0.92644 0.43588 0.94568 0.0
C1153 C 0.9078 0.41187 0.93928 0.0
C1154 C 0.90398 0.34172 0.93137 0.0
C1155 C 0.84016 0.29763 0.88095 0.0
C1156 C 0.85843 0.31828 0.90632 0.0
C1157 C 0.91355 0.3905 0.95224 0.0
C1158 C 0.8947 0.36429 0.94179 0.0
H1159 H 0.77316 0.27466 0.85318 0.0
H1160 H 0.80449 0.29731 0.90078 0.0
H1161 H 0.89392 0.30235 0.90469 0.0
H1162 H 0.97567 0.42055 0.99483 0.0
H1163 H 0.94313 0.37793 0.98294 0.0
C1164 C 0.72687 0.80965 0.83558 0.0
C1165 C 0.71272 0.78662 0.81441 0.0
C1166 C 0.71343 0.82485 0.85356 0.0
C1167 C 0.64771 0.82441 0.8785 0.0
H1168 H 0.67212 0.90032 0.89111 0.0
C1169 C 0.58373 0.89864 0.91577 0.0
C1170 C 0.59682 0.922 0.93709 0.0
C1171 C 0.59827 0.88088 0.90397 0.0
C1172 C 0.66524 0.87916 0.88815 0.0
H1173 H 0.67335 0.76125 0.79603 0.0
H1174 H 0.64982 0.78803 0.8267 0.0
H1175 H 0.69663 0.8718 0.8646 0.0
H1176 H 0.6355 0.94407 0.96394 0.0
H1177 H 0.66084 0.91335 0.94287 0.0
H1178 H 0.61573 0.83204 0.90124 0.0
C1179 C 0.6714 0.79414 0.83002 0.0
C1180 C 0.67936 0.86273 0.87299 0.0
C1181 C 0.68491 0.77876 0.81229 0.0
C1182 C 0.62476 0.92661 0.94708 0.0
C1183 C 0.63931 0.90898 0.93505 0.0
C1184 C 0.63342 0.84089 0.8934 0.0
C1185 C 0.68541 0.81764 0.85059 0.0
C1186 C 0.67078 0.83509 0.86784 0.0
C1187 C 0.6263 0.88612 0.91299 0.0
C1188 C 0.64198 0.86846 0.89832 0.0
H1189 H 0.74833 0.8162 0.83791 0.0
H1190 H 0.72505 0.84244 0.8696 0.0
H1191 H 0.64067 0.80328 0.87547 0.0
H1192 H 0.56234 0.89452 0.90712 0.0
H1193 H 0.58767 0.86357 0.8868 0.0
C1194 C 0.80523 0.6842 0.2291 0.0
C1195 C 0.78976 0.69741 0.211 0.0
C1196 C 0.82146 0.66895 0.21602 0.0
C1197 C 0.83235 0.63531 0.1409 0.0
H1198 H 0.90215 0.63716 0.18869 0.0
C1199 C 0.89689 0.56296 0.10223 0.0
C1200 C 0.92485 0.57214 0.10762 0.0
C1201 C 0.88067 0.57872 0.11425 0.0
C1202 C 0.88285 0.6366 0.17485 0.0
H1203 H 0.77897 0.70462 0.16476 0.0
H1204 H 0.80742 0.67831 0.14207 0.0
H1205 H 0.8734 0.66361 0.2104 0.0
H1206 H 0.95763 0.60535 0.12964 0.0
H1207 H 0.92931 0.63305 0.1504 0.0
H1208 H 0.84207 0.60883 0.10504 0.0
C1209 C 0.80681 0.67943 0.16631 0.0
C1210 C 0.86616 0.6515 0.18751 0.0
C1211 C 0.79054 0.69463 0.17938 0.0
C1212 C 0.93619 0.59756 0.12534 0.0
C1213 C 0.91993 0.61342 0.13728 0.0
C1214 C 0.84908 0.62047 0.1282 0.0
C1215 C 0.82268 0.66656 0.18451 0.0
C1216 C 0.8406 0.65093 0.1708 0.0
C1217 C 0.89193 0.60418 0.13194 0.0
C1218 C 0.8745 0.62076 0.14508 0.0
H1219 H 0.80508 0.68586 0.25352 0.0
H1220 H 0.833 0.65896 0.23065 0.0
H1221 H 0.81276 0.63419 0.1274 0.0
H1222 H 0.88751 0.5433 0.08917 0.0
H1223 H 0.85929 0.57068 0.11016 0.0
C1224 C 0.31514 0.79224 0.19475 0.0
C1225 C 0.29551 0.80091 0.20966 0.0
C1226 C 0.33046 0.80867 0.17913 0.0
C1227 C 0.35015 0.84199 0.13343 0.0
H1228 H 0.37305 0.91683 0.168 0.0
C1229 C 0.40157 0.91715 0.06641 0.0
C1230 C 0.42224 0.93827 0.08353 0.0
C1231 C 0.38604 0.90022 0.08135 0.0
C1232 C 0.36706 0.89597 0.15803 0.0
H1233 H 0.27679 0.83391 0.21961 0.0
H1234 H 0.30325 0.86235 0.19242 0.0
H1235 H 0.3472 0.88788 0.19506 0.0
H1236 H 0.4428 0.95782 0.12994 0.0
H1237 H 0.41615 0.92835 0.1558 0.0
H1238 H 0.37053 0.85007 0.09668 0.0
C1239 C 0.30711 0.84295 0.19304 0.0
C1240 C 0.35185 0.87932 0.17344 0.0
C1241 C 0.29176 0.82652 0.20857 0.0
C1242 C 0.42694 0.94194 0.11594 0.0
C1243 C 0.41149 0.92503 0.13084 0.0
C1244 C 0.36535 0.85868 0.11796 0.0
C1245 C 0.32671 0.83432 0.17802 0.0
C1246 C 0.34312 0.85204 0.16144 0.0
C1247 C 0.39072 0.9039 0.11384 0.0
C1248 C 0.37412 0.88596 0.13004 0.0
H1249 H 0.31865 0.77267 0.19504 0.0
H1250 H 0.34553 0.80133 0.16824 0.0
H1251 H 0.34363 0.8212 0.12319 0.0
H1252 H 0.39734 0.91371 0.04142 0.0
H1253 H 0.37009 0.88444 0.06736 0.0
C1254 C 0.70961 0.18634 0.15626 0.0
C1255 C 0.72847 0.18578 0.18203 0.0
C1256 C 0.6996 0.1639 0.13317 0.0
C1257 C 0.68015 0.11428 0.08524 0.0
H1258 H 0.651 0.0606 0.12817 0.0
C1259 C 0.57994 0.03921 0.03372 0.0
C1260 C 0.56219 0.03883 0.05447 0.0
C1261 C 0.60718 0.0508 0.04406 0.0
C1262 C 0.65919 0.0752 0.11568 0.0
H1263 H 0.75341 0.16262 0.20346 0.0
H1264 H 0.73536 0.12268 0.16314 0.0
H1265 H 0.69043 0.0944 0.15419 0.0
H1266 H 0.55905 0.04987 0.10233 0.0
H1267 H 0.60631 0.07057 0.1203 0.0
H1268 H 0.64723 0.09645 0.04782 0.0
C1269 C 0.72841 0.14048 0.16063 0.0
C1270 C 0.68206 0.09441 0.13044 0.0
C1271 C 0.73865 0.16316 0.18366 0.0
C1272 C 0.57221 0.04994 0.08578 0.0
C1273 C 0.59938 0.06147 0.09612 0.0
C1274 C 0.65716 0.0951 0.07051 0.0
C1275 C 0.70801 0.14035 0.13572 0.0
C1276 C 0.69155 0.11526 0.1162 0.0
C1277 C 0.61718 0.06205 0.0754 0.0
C1278 C 0.64543 0.07657 0.08652 0.0
H1279 H 0.70173 0.2038 0.1547 0.0
H1280 H 0.68368 0.16448 0.11462 0.0
H1281 H 0.68747 0.12977 0.07344 0.0
H1282 H 0.57284 0.0303 0.00955 0.0
H1283 H 0.6204 0.05093 0.02758 0.0
C1284 C 0.6414 0.62455 0.72369 0.0
C1285 C 0.6683 0.63837 0.73239 0.0
C1286 C 0.63232 0.60264 0.73608 0.0
C1287 C 0.61544 0.55726 0.76688 0.0
H1288 H 0.64545 0.57758 0.85455 0.0
C1289 C 0.5602 0.51597 0.85681 0.0
C1290 C 0.55965 0.53491 0.88254 0.0
C1291 C 0.57761 0.52194 0.83687 0.0
C1292 C 0.63684 0.57159 0.83013 0.0
H1293 H 0.70759 0.63699 0.75695 0.0
H1294 H 0.69192 0.59836 0.77738 0.0
H1295 H 0.66877 0.59762 0.81854 0.0
H1296 H 0.57684 0.57484 0.90779 0.0
H1297 H 0.60644 0.5857 0.87241 0.0
H1298 H 0.58224 0.53302 0.77896 0.0
C1299 C 0.67757 0.60526 0.76217 0.0
C1300 C 0.65049 0.58272 0.8093 0.0
C1301 C 0.6866 0.62743 0.75015 0.0
C1302 C 0.5769 0.55986 0.88814 0.0
C1303 C 0.59408 0.56594 0.86803 0.0
C1304 C 0.6016 0.54635 0.7878 0.0
C1305 C 0.65007 0.59377 0.75702 0.0
C1306 C 0.63934 0.57661 0.77753 0.0
C1307 C 0.59461 0.54706 0.84212 0.0
C1308 C 0.61159 0.55436 0.81975 0.0
H1309 H 0.6269 0.63172 0.70906 0.0
H1310 H 0.61099 0.59424 0.73129 0.0
H1311 H 0.60658 0.55169 0.74251 0.0
H1312 H 0.54732 0.49643 0.85219 0.0
H1313 H 0.57774 0.50688 0.81736 0.0
C1314 C 0.28544 0.70116 0.82654 0.0
C1315 C 0.29506 0.71466 0.80443 0.0
C1316 C 0.30118 0.68683 0.84239 0.0
C1317 C 0.35374 0.65115 0.83197 0.0
H1318 H 0.36786 0.6568 0.92079 0.0
C1319 C 0.43242 0.60222 0.8886 0.0
C1320 C 0.42759 0.5903 0.91364 0.0
C1321 C 0.41606 0.61818 0.87765 0.0
C1322 C 0.36381 0.65469 0.89592 0.0
H1323 H 0.32908 0.72431 0.78237 0.0
H1324 H 0.35619 0.69911 0.80962 0.0
H1325 H 0.33907 0.6831 0.89745 0.0
H1326 H 0.40238 0.58637 0.94758 0.0
H1327 H 0.37299 0.61379 0.9278 0.0
H1328 H 0.37764 0.62245 0.8299 0.0
C1329 C 0.33649 0.69955 0.81464 0.0
C1330 C 0.34739 0.66982 0.88261 0.0
C1331 C 0.32097 0.71407 0.79913 0.0
C1332 C 0.40649 0.59536 0.92821 0.0
C1333 C 0.38976 0.61112 0.9169 0.0
C1334 C 0.36977 0.63584 0.84513 0.0
C1335 C 0.32665 0.68547 0.83609 0.0
C1336 C 0.34263 0.66852 0.85053 0.0
C1337 C 0.39406 0.62235 0.89107 0.0
C1338 C 0.37553 0.63774 0.87734 0.0
H1339 H 0.2656 0.70131 0.83123 0.0
H1340 H 0.29311 0.6761 0.85878 0.0
H1341 H 0.34995 0.64933 0.80711 0.0
H1342 H 0.44888 0.59905 0.87732 0.0
H1343 H 0.42065 0.62715 0.85843 0.0
C1344 C 0.31316 0.32944 0.77313 0.0
C1345 C 0.3152 0.30323 0.76514 0.0
C1346 C 0.33214 0.34656 0.79701 0.0
C1347 C 0.39473 0.35457 0.85306 0.0
H1348 H 0.35293 0.38089 0.91092 0.0
C1349 C 0.45115 0.42119 0.95939 0.0
C1350 C 0.446 0.44556 0.95493 0.0
C1351 C 0.43155 0.39822 0.94676 0.0
C1352 C 0.36473 0.37318 0.89519 0.0
H1353 H 0.3404 0.27538 0.7708 0.0
H1354 H 0.37397 0.30543 0.81193 0.0
H1355 H 0.33035 0.35625 0.85945 0.0
H1356 H 0.41587 0.46625 0.93938 0.0
H1357 H 0.38153 0.4264 0.91764 0.0
H1358 H 0.42919 0.37225 0.88823 0.0
C1359 C 0.35769 0.31277 0.80058 0.0
C1360 C 0.35196 0.35964 0.8656 0.0
C1361 C 0.33866 0.29567 0.77683 0.0
C1362 C 0.42008 0.4474 0.94263 0.0
C1363 C 0.40041 0.42455 0.93044 0.0
C1364 C 0.40751 0.3681 0.88264 0.0
C1365 C 0.35319 0.33744 0.81258 0.0
C1366 C 0.36699 0.35116 0.84396 0.0
C1367 C 0.40695 0.39982 0.92966 0.0
C1368 C 0.39271 0.37842 0.90355 0.0
H1369 H 0.29508 0.33551 0.76434 0.0
H1370 H 0.32882 0.3659 0.80543 0.0
H1371 H 0.40664 0.3478 0.8369 0.0
H1372 H 0.47119 0.41958 0.96873 0.0
H1373 H 0.43685 0.37931 0.94677 0.0
C1374 C 0.69037 0.34911 0.83589 0.0
C1375 C 0.68816 0.32296 0.82081 0.0
C1376 C 0.67678 0.35452 0.85976 0.0
C1377 C 0.61756 0.33496 0.88714 0.0
H1378 H 0.65741 0.37942 0.96471 0.0
C1379 C 0.56294 0.39378 0.96148 0.0
C1380 C 0.57519 0.42071 0.96667 0.0
C1381 C 0.5776 0.37474 0.95448 0.0
C1382 C 0.64596 0.36679 0.94334 0.0
H1383 H 0.66825 0.2821 0.81865 0.0
H1384 H 0.6437 0.29205 0.85943 0.0
H1385 H 0.68135 0.35963 0.92768 0.0
H1386 H 0.61289 0.44883 0.97208 0.0
H1387 H 0.63821 0.41606 0.95962 0.0
H1388 H 0.5824 0.34411 0.90102 0.0
C1389 C 0.65678 0.30806 0.85303 0.0
C1390 C 0.65966 0.35546 0.92227 0.0
C1391 C 0.67081 0.3025 0.82946 0.0
C1392 C 0.6029 0.42824 0.96829 0.0
C1393 C 0.61748 0.40929 0.96118 0.0
C1394 C 0.60385 0.34667 0.90796 0.0
C1395 C 0.66017 0.33405 0.86871 0.0
C1396 C 0.6456 0.34046 0.89352 0.0
C1397 C 0.60466 0.38242 0.95242 0.0
C1398 C 0.61805 0.36383 0.93559 0.0
H1399 H 0.70276 0.36559 0.82966 0.0
H1400 H 0.67904 0.37484 0.87108 0.0
H1401 H 0.6064 0.32347 0.86499 0.0
H1402 H 0.54167 0.38749 0.96081 0.0
H1403 H 0.56731 0.35416 0.94855 0.0
C1404 C 0.72336 0.30759 0.17854 0.0
C1405 C 0.70946 0.28812 0.19184 0.0
C1406 C 0.70938 0.32195 0.16057 0.0
C1407 C 0.64265 0.31967 0.11509 0.0
H1408 H 0.66527 0.3959 0.13126 0.0
C1409 C 0.57276 0.38463 0.07293 0.0
C1410 C 0.58361 0.40804 0.06379 0.0
C1411 C 0.5894 0.36966 0.08581 0.0
C1412 C 0.6589 0.37461 0.12601 0.0
H1413 H 0.66997 0.26808 0.19616 0.0
H1414 H 0.64572 0.29283 0.16471 0.0
H1415 H 0.69215 0.37032 0.1585 0.0
H1416 H 0.62061 0.43367 0.06034 0.0
H1417 H 0.64978 0.40734 0.08261 0.0
H1418 H 0.60942 0.32379 0.08271 0.0
C1419 C 0.66738 0.29705 0.1681 0.0
C1420 C 0.67432 0.35995 0.1417 0.0
C1421 C 0.68132 0.28297 0.18629 0.0
C1422 C 0.61161 0.41587 0.06741 0.0
C1423 C 0.62832 0.4008 0.08025 0.0
C1424 C 0.62736 0.33427 0.09927 0.0
C1425 C 0.68122 0.31684 0.15519 0.0
C1426 C 0.66612 0.33234 0.13678 0.0
C1427 C 0.61743 0.37758 0.08985 0.0
C1428 C 0.635 0.36198 0.10489 0.0
H1429 H 0.74504 0.31207 0.18246 0.0
H1430 H 0.72059 0.33697 0.15078 0.0
H1431 H 0.63603 0.2984 0.11039 0.0
H1432 H 0.55134 0.37827 0.07113 0.0
H1433 H 0.58023 0.35224 0.09348 0.0
C1434 C 0.66027 0.70246 0.23707 0.0
C1435 C 0.68434 0.69414 0.24313 0.0
C1436 C 0.63776 0.6852 0.21819 0.0
C1437 C 0.6346 0.64672 0.14883 0.0
H1438 H 0.55925 0.61544 0.14053 0.0
C1439 C 0.57559 0.56467 0.05118 0.0
C1440 C 0.54785 0.56145 0.04344 0.0
C1441 C 0.59067 0.58649 0.07288 0.0
C1442 C 0.58012 0.62473 0.14241 0.0
H1443 H 0.70327 0.66095 0.23875 0.0
H1444 H 0.66388 0.63068 0.20521 0.0
H1445 H 0.58582 0.63776 0.19155 0.0
H1446 H 0.51396 0.57888 0.04894 0.0
H1447 H 0.54043 0.61751 0.087 0.0
H1448 H 0.62926 0.63409 0.10003 0.0
C1449 C 0.66228 0.65032 0.21524 0.0
C1450 C 0.59527 0.637 0.1716 0.0
C1451 C 0.68471 0.66753 0.23444 0.0
C1452 C 0.5355 0.58135 0.05484 0.0
C1453 C 0.55056 0.6032 0.07666 0.0
C1454 C 0.61948 0.63484 0.11974 0.0
C1455 C 0.63958 0.6598 0.20509 0.0
C1456 C 0.62275 0.64717 0.17495 0.0
C1457 C 0.57798 0.60508 0.08719 0.0
C1458 C 0.59232 0.62295 0.11636 0.0
H1459 H 0.65986 0.72308 0.24359 0.0
H1460 H 0.62039 0.69278 0.21047 0.0
H1461 H 0.6557 0.65536 0.15105 0.0
H1462 H 0.5852 0.54917 0.04268 0.0
H1463 H 0.61173 0.58729 0.08063 0.0
C1464 C 0.31801 0.69103 0.16123 0.0
C1465 C 0.31367 0.67686 0.18484 0.0
C1466 C 0.3316 0.68224 0.13854 0.0
C1467 C 0.34493 0.62195 0.09953 0.0
H1468 H 0.40783 0.66518 0.08154 0.0
C1469 C 0.40598 0.57174 0.02795 0.0
C1470 C 0.43253 0.57605 0.044 0.0
C1471 C 0.39044 0.58985 0.03479 0.0
C1472 C 0.39007 0.65302 0.08603 0.0
H1473 H 0.32151 0.64292 0.20356 0.0
H1474 H 0.34445 0.6273 0.16347 0.0
H1475 H 0.38242 0.68498 0.11711 0.0
H1476 H 0.46468 0.60447 0.07651 0.0
H1477 H 0.43696 0.63509 0.09018 0.0
H1478 H 0.3531 0.58967 0.07044 0.0
C1479 C 0.33705 0.6451 0.16259 0.0
C1480 C 0.37557 0.66433 0.10623 0.0
C1481 C 0.32381 0.65403 0.18549 0.0
C1482 C 0.44399 0.60011 0.06463 0.0
C1483 C 0.42824 0.61797 0.07196 0.0
C1484 C 0.35927 0.6107 0.0794 0.0
C1485 C 0.34071 0.65896 0.13877 0.0
C1486 C 0.35357 0.64854 0.11398 0.0
C1487 C 0.4009 0.6122 0.05838 0.0
C1488 C 0.38257 0.62588 0.07332 0.0
H1489 H 0.31044 0.70855 0.15954 0.0
H1490 H 0.33426 0.69317 0.1203 0.0
H1491 H 0.32772 0.60956 0.10489 0.0
H1492 H 0.3964 0.55352 0.0118 0.0
H1493 H 0.36957 0.58523 0.02345 0.0
C1494 C 0.31318 0.36415 0.22943 0.0
C1495 C 0.33109 0.35822 0.25304 0.0
C1496 C 0.32229 0.38263 0.21226 0.0
C1497 C 0.38086 0.43159 0.20331 0.0
H1498 H 0.36491 0.3914 0.11937 0.0
C1499 C 0.45341 0.4472 0.12093 0.0
C1500 C 0.4434 0.44447 0.08927 0.0
C1501 C 0.43614 0.44116 0.14092 0.0
C1502 C 0.36918 0.40329 0.14243 0.0
H1503 H 0.37146 0.36994 0.2801 0.0
H1504 H 0.38751 0.40193 0.24974 0.0
H1505 H 0.33957 0.37639 0.15676 0.0
H1506 H 0.40752 0.43315 0.05357 0.0
H1507 H 0.37713 0.42283 0.08863 0.0
H1508 H 0.411 0.45816 0.18908 0.0
C1509 C 0.36649 0.39212 0.24437 0.0
C1510 C 0.35458 0.3947 0.16391 0.0
C1511 C 0.35739 0.3736 0.26157 0.0
C1512 C 0.41579 0.43516 0.07785 0.0
C1513 C 0.39841 0.42934 0.09796 0.0
C1514 C 0.39531 0.44037 0.1817 0.0
C1515 C 0.3494 0.39558 0.21839 0.0
C1516 C 0.36089 0.40824 0.19481 0.0
C1517 C 0.40839 0.43251 0.12979 0.0
C1518 C 0.39031 0.42573 0.15132 0.0
H1519 H 0.29273 0.35295 0.22222 0.0
H1520 H 0.30859 0.3853 0.19266 0.0
H1521 H 0.38593 0.44251 0.22692 0.0
H1522 H 0.47463 0.45425 0.13037 0.0
H1523 H 0.44463 0.44309 0.16511 0.0
C1524 C 0.80982 0.72607 0.68553 0.0
C1525 C 0.78345 0.7148 0.68758 0.0
C1526 C 0.82438 0.71158 0.66838 0.0
C1527 C 0.81828 0.65187 0.60845 0.0
H1528 H 0.89145 0.656 0.64813 0.0
C1529 C 0.88031 0.57705 0.56724 0.0
C1530 C 0.90808 0.58618 0.57013 0.0
C1531 C 0.86468 0.59378 0.57883 0.0
C1532 C 0.87122 0.65488 0.63639 0.0
H1533 H 0.7514 0.6797 0.6722 0.0
H1534 H 0.77684 0.65443 0.64237 0.0
H1535 H 0.86498 0.68336 0.67278 0.0
H1536 H 0.94094 0.62046 0.58602 0.0
H1537 H 0.91371 0.64974 0.60572 0.0
H1538 H 0.82452 0.62319 0.57213 0.0
C1539 C 0.78621 0.67455 0.65386 0.0
C1540 C 0.85599 0.67061 0.65059 0.0
C1541 C 0.77164 0.68904 0.67106 0.0
C1542 C 0.91967 0.6127 0.58383 0.0
C1543 C 0.90405 0.62946 0.59525 0.0
C1544 C 0.83357 0.63616 0.59415 0.0
C1545 C 0.81296 0.68546 0.65281 0.0
C1546 C 0.8293 0.66927 0.63689 0.0
C1547 C 0.87643 0.6201 0.59347 0.0
C1548 C 0.86024 0.6374 0.60799 0.0
H1549 H 0.81954 0.74588 0.69788 0.0
H1550 H 0.84477 0.72076 0.66765 0.0
H1551 H 0.79787 0.65053 0.5971 0.0
H1552 H 0.87079 0.55664 0.55719 0.0
H1553 H 0.84357 0.58574 0.57734 0.0
C1554 C 0.31055 0.77588 0.63526 0.0
C1555 C 0.32939 0.77477 0.66108 0.0
C1556 C 0.31912 0.78429 0.60984 0.0
C1557 C 0.34663 0.83521 0.59631 0.0
H1558 H 0.40939 0.83225 0.56002 0.0
C1559 C 0.43376 0.92123 0.59579 0.0
C1560 C 0.43325 0.92805 0.56668 0.0
C1561 C 0.41714 0.89802 0.59875 0.0
C1562 C 0.39158 0.83299 0.56964 0.0
H1563 H 0.37137 0.7765 0.67798 0.0
H1564 H 0.38641 0.7922 0.63408 0.0
H1565 H 0.38575 0.79276 0.57536 0.0
H1566 H 0.41435 0.91668 0.51823 0.0
H1567 H 0.38572 0.87561 0.52366 0.0
H1568 H 0.35388 0.87597 0.59323 0.0
C1569 C 0.36508 0.7867 0.63352 0.0
C1570 C 0.37808 0.81055 0.57818 0.0
C1571 C 0.35652 0.77825 0.65897 0.0
C1572 C 0.41538 0.91168 0.54081 0.0
C1573 C 0.39907 0.88832 0.54376 0.0
C1574 C 0.36033 0.85762 0.58825 0.0
C1575 C 0.34657 0.79179 0.61004 0.0
C1576 C 0.35604 0.81181 0.59253 0.0
C1577 C 0.40011 0.88135 0.57262 0.0
C1578 C 0.38329 0.85677 0.57583 0.0
H1579 H 0.28941 0.7729 0.63574 0.0
H1580 H 0.30451 0.78782 0.59172 0.0
H1581 H 0.33007 0.8369 0.60798 0.0
H1582 H 0.44729 0.93351 0.61613 0.0
H1583 H 0.41788 0.89281 0.62128 0.0
C1584 C 0.19749 0.29656 0.60795 0.0
C1585 C 0.20255 0.2985 0.64011 0.0
C1586 C 0.18621 0.3153 0.59495 0.0
C1587 C 0.1731 0.382 0.6154 0.0
H1588 H 0.11143 0.35632 0.54843 0.0
C1589 C 0.08607 0.43278 0.59848 0.0
C1590 C 0.07551 0.43564 0.56863 0.0
C1591 C 0.10585 0.41856 0.60303 0.0
C1592 C 0.12896 0.36383 0.56669 0.0
H1593 H 0.19911 0.32119 0.68377 0.0
H1594 H 0.17956 0.35352 0.66131 0.0
H1595 H 0.13884 0.32604 0.564 0.0
H1596 H 0.07801 0.42641 0.52018 0.0
H1597 H 0.11214 0.40065 0.52824 0.0
H1598 H 0.1622 0.41936 0.61931 0.0
C1599 C 0.18499 0.3381 0.64608 0.0
C1600 C 0.14466 0.34655 0.57558 0.0
C1601 C 0.19621 0.3195 0.65899 0.0
C1602 C 0.08544 0.42421 0.54343 0.0
C1603 C 0.10504 0.40963 0.54798 0.0
C1604 C 0.15731 0.39915 0.60671 0.0
C1605 C 0.17983 0.33622 0.61395 0.0
C1606 C 0.16631 0.3553 0.60074 0.0
C1607 C 0.1153 0.40667 0.57782 0.0
C1608 C 0.13464 0.38997 0.58298 0.0
H1609 H 0.20229 0.28062 0.5929 0.0
H1610 H 0.18247 0.31341 0.57009 0.0
H1611 H 0.19002 0.3894 0.63445 0.0
H1612 H 0.07849 0.44082 0.61829 0.0
H1613 H 0.11314 0.41609 0.62621 0.0
C1614 C 0.70742 0.22287 0.63845 0.0
C1615 C 0.69814 0.2305 0.66558 0.0
C1616 C 0.68938 0.20998 0.61119 0.0
C1617 C 0.65244 0.16162 0.57106 0.0
H1618 H 0.57623 0.15899 0.55821 0.0
C1619 C 0.57579 0.06636 0.55076 0.0
C1620 C 0.55042 0.06245 0.5322 0.0
C1621 C 0.59442 0.09012 0.5549 0.0
C1622 C 0.59749 0.15969 0.56083 0.0
H1623 H 0.6629 0.23255 0.68519 0.0
H1624 H 0.63133 0.20862 0.63838 0.0
H1625 H 0.60777 0.199 0.58766 0.0
H1626 H 0.52445 0.07997 0.50298 0.0
H1627 H 0.55716 0.12225 0.51075 0.0
H1628 H 0.6421 0.12213 0.54496 0.0
C1629 C 0.65241 0.21323 0.63745 0.0
C1630 C 0.61561 0.18252 0.57813 0.0
C1631 C 0.6705 0.22683 0.6645 0.0
C1632 C 0.54408 0.08256 0.5172 0.0
C1633 C 0.56269 0.10668 0.52172 0.0
C1634 C 0.6344 0.13901 0.5536 0.0
C1635 C 0.66166 0.2035 0.61078 0.0
C1636 C 0.64322 0.18314 0.58519 0.0
C1637 C 0.58796 0.1108 0.54101 0.0
C1638 C 0.60668 0.13715 0.55007 0.0
H1639 H 0.72872 0.22595 0.63866 0.0
H1640 H 0.69733 0.20376 0.59095 0.0
H1641 H 0.67342 0.16105 0.57562 0.0
H1642 H 0.581 0.05119 0.56273 0.0
H1643 H 0.61344 0.09277 0.57039 0.0
C1644 C 0.77124 0.30882 0.3473 0.0
C1645 C 0.76456 0.31286 0.31712 0.0
C1646 C 0.78601 0.3298 0.37064 0.0
C1647 C 0.83769 0.38522 0.3682 0.0
H1648 H 0.85296 0.39318 0.45732 0.0
C1649 C 0.92538 0.45287 0.46903 0.0
C1650 C 0.94676 0.4489 0.45441 0.0
C1651 C 0.90008 0.43607 0.45855 0.0
C1652 C 0.84875 0.39117 0.43245 0.0
H1653 H 0.76363 0.34184 0.28812 0.0
H1654 H 0.78789 0.37894 0.32928 0.0
H1655 H 0.80863 0.36856 0.42769 0.0
H1656 H 0.95957 0.42292 0.41994 0.0
H1657 H 0.91556 0.39323 0.40196 0.0
H1658 H 0.87745 0.4072 0.37246 0.0
C1659 C 0.78303 0.35953 0.33481 0.0
C1660 C 0.82348 0.37721 0.41555 0.0
C1661 C 0.76916 0.33843 0.31128 0.0
C1662 C 0.94321 0.42667 0.43107 0.0
C1663 C 0.9181 0.40972 0.42091 0.0
C1664 C 0.86264 0.39892 0.38489 0.0
C1665 C 0.79378 0.35498 0.36388 0.0
C1666 C 0.81792 0.37372 0.38312 0.0
C1667 C 0.89604 0.41509 0.43344 0.0
C1668 C 0.86873 0.40142 0.417 0.0
H1669 H 0.76754 0.28907 0.35209 0.0
H1670 H 0.79376 0.32561 0.3928 0.0
H1671 H 0.83455 0.3825 0.34328 0.0
H1672 H 0.92778 0.46988 0.48718 0.0
H1673 H 0.8834 0.44059 0.46859 0.0
C1674 C 0.71085 0.80356 0.32144 0.0
C1675 C 0.71113 0.80024 0.28967 0.0
C1676 C 0.69478 0.81898 0.33458 0.0
C1677 C 0.63484 0.84603 0.31363 0.0
H1678 H 0.65973 0.89065 0.39497 0.0
C1679 C 0.57778 0.92224 0.36266 0.0
C1680 C 0.57627 0.92533 0.39413 0.0
C1681 C 0.59386 0.90645 0.35026 0.0
C1682 C 0.65234 0.87805 0.37238 0.0
H1683 H 0.69513 0.81112 0.24696 0.0
H1684 H 0.66749 0.8383 0.26992 0.0
H1685 H 0.689 0.86494 0.37283 0.0
H1686 H 0.5902 0.9135 0.43699 0.0
H1687 H 0.61836 0.88614 0.41538 0.0
H1688 H 0.59825 0.85925 0.31312 0.0
C1689 C 0.67931 0.8286 0.28463 0.0
C1690 C 0.66915 0.8633 0.35965 0.0
C1691 C 0.69536 0.81317 0.27149 0.0
C1692 C 0.59115 0.91198 0.41278 0.0
C1693 C 0.60733 0.89625 0.40039 0.0
C1694 C 0.61808 0.86082 0.32632 0.0
C1695 C 0.67858 0.8315 0.3163 0.0
C1696 C 0.66067 0.84716 0.33004 0.0
C1697 C 0.60897 0.89337 0.36898 0.0
C1698 C 0.62663 0.8771 0.35581 0.0
H1699 H 0.72269 0.79384 0.33614 0.0
H1700 H 0.69456 0.82052 0.35896 0.0
H1701 H 0.62739 0.83343 0.29105 0.0
H1702 H 0.56706 0.93256 0.34765 0.0
H1703 H 0.59494 0.90502 0.32609 0.0
C1704 C 0.18949 0.71438 0.31732 0.0
C1705 C 0.2013 0.70393 0.29327 0.0
C1706 C 0.1749 0.69769 0.33331 0.0
C1707 C 0.13486 0.63088 0.32519 0.0
H1708 H 0.15261 0.64148 0.41441 0.0
C1709 C 0.08533 0.55349 0.38898 0.0
C1710 C 0.08086 0.56157 0.41886 0.0
C1711 C 0.1004 0.57114 0.37458 0.0
C1712 C 0.14693 0.63836 0.38955 0.0
H1713 H 0.20658 0.66766 0.26691 0.0
H1714 H 0.18028 0.63857 0.29397 0.0
H1715 H 0.17703 0.67204 0.38755 0.0
H1716 H 0.08892 0.59475 0.4571 0.0
H1717 H 0.11417 0.62591 0.43165 0.0
H1718 H 0.10416 0.59802 0.32677 0.0
C1719 C 0.18265 0.6597 0.30074 0.0
C1720 C 0.16112 0.65591 0.37414 0.0
C1721 C 0.19777 0.67638 0.28529 0.0
C1722 C 0.09207 0.58781 0.43411 0.0
C1723 C 0.10676 0.60568 0.41945 0.0
C1724 C 0.12031 0.61368 0.34056 0.0
C1725 C 0.17121 0.67012 0.32511 0.0
C1726 C 0.15545 0.6522 0.34174 0.0
C1727 C 0.11106 0.59771 0.38929 0.0
C1728 C 0.12626 0.61684 0.37303 0.0
H1729 H 0.19195 0.73551 0.3242 0.0
H1730 H 0.16624 0.70632 0.35188 0.0
H1731 H 0.12976 0.62768 0.30024 0.0
H1732 H 0.07724 0.53335 0.37665 0.0
H1733 H 0.10375 0.56371 0.35186 0.0
C1734 C 0.27967 0.18727 0.31172 0.0
C1735 C 0.29253 0.21024 0.30313 0.0
C1736 C 0.2947 0.17128 0.32552 0.0
C1737 C 0.35739 0.15068 0.32615 0.0
H1738 H 0.34908 0.12966 0.40378 0.0
C1739 C 0.42837 0.09208 0.3818 0.0
C1740 C 0.41872 0.07407 0.39955 0.0
C1741 C 0.41286 0.10903 0.37131 0.0
C1742 C 0.3514 0.13485 0.38178 0.0
H1743 H 0.33125 0.23451 0.30261 0.0
H1744 H 0.35731 0.20624 0.32593 0.0
H1745 H 0.32168 0.15817 0.38335 0.0
H1746 H 0.38528 0.05957 0.42024 0.0
H1747 H 0.35746 0.0881 0.40064 0.0
H1748 H 0.38603 0.12669 0.32342 0.0
C1749 C 0.33565 0.20082 0.3223 0.0
C1750 C 0.33577 0.15139 0.37024 0.0
C1751 C 0.3207 0.21708 0.30914 0.0
C1752 C 0.3932 0.07335 0.40665 0.0
C1753 C 0.37738 0.08992 0.39556 0.0
C1754 C 0.37256 0.13372 0.33727 0.0
C1755 C 0.32282 0.17764 0.33035 0.0
C1756 C 0.33882 0.15966 0.34247 0.0
C1757 C 0.38694 0.10805 0.37765 0.0
C1758 C 0.37008 0.12571 0.36546 0.0
H1759 H 0.25801 0.18141 0.30729 0.0
H1760 H 0.28433 0.15344 0.33141 0.0
H1761 H 0.35986 0.15648 0.30444 0.0
H1762 H 0.44818 0.09336 0.37643 0.0
H1763 H 0.42147 0.1231 0.35847 0.0
C1764 C 0.68072 0.7824 0.68819 0.0
C1765 C 0.70883 0.7901 0.69602 0.0
C1766 C 0.66576 0.79866 0.67514 0.0
C1767 C 0.66658 0.85089 0.6311 0.0
H1768 H 0.6129 0.87059 0.67581 0.0
C1769 C 0.60807 0.92921 0.59867 0.0
C1770 C 0.58166 0.92636 0.60352 0.0
C1771 C 0.6241 0.91259 0.60908 0.0
C1772 C 0.62738 0.86498 0.66258 0.0
H1773 H 0.74332 0.82042 0.69508 0.0
H1774 H 0.71701 0.84851 0.67123 0.0
H1775 H 0.63945 0.84076 0.69389 0.0
H1776 H 0.55089 0.90326 0.62178 0.0
H1777 H 0.57817 0.87362 0.63868 0.0
H1778 H 0.65399 0.87423 0.59909 0.0
C1779 C 0.70669 0.82997 0.67559 0.0
C1780 C 0.64273 0.84799 0.67315 0.0
C1781 C 0.7217 0.81392 0.68924 0.0
C1782 C 0.57137 0.90621 0.61827 0.0
C1783 C 0.58715 0.8893 0.62812 0.0
C1784 C 0.65083 0.86751 0.6201 0.0
C1785 C 0.67857 0.82273 0.66908 0.0
C1786 C 0.66246 0.84078 0.65754 0.0
C1787 C 0.61389 0.89241 0.62406 0.0
C1788 C 0.63095 0.8748 0.63568 0.0
H1789 H 0.67016 0.76427 0.69327 0.0
H1790 H 0.6441 0.79258 0.67015 0.0
H1791 H 0.68161 0.84549 0.61859 0.0
H1792 H 0.61649 0.94465 0.5874 0.0
H1793 H 0.64464 0.91595 0.60584 0.0
C1794 C 0.66661 0.2288 0.35263 0.0
C1795 C 0.65242 0.23241 0.32469 0.0
C1796 C 0.65283 0.22099 0.37511 0.0
C1797 C 0.59988 0.17069 0.35872 0.0
H1798 H 0.60023 0.17153 0.44554 0.0
C1799 C 0.5459 0.08079 0.39565 0.0
C1800 C 0.5571 0.07403 0.42303 0.0
C1801 C 0.55618 0.10486 0.38858 0.0
C1802 C 0.60023 0.17103 0.42126 0.0
H1803 H 0.61392 0.23655 0.3014 0.0
H1804 H 0.58974 0.22164 0.34007 0.0
H1805 H 0.6197 0.21213 0.42903 0.0
H1806 H 0.58802 0.08682 0.46446 0.0
H1807 H 0.60735 0.12862 0.45099 0.0
H1808 H 0.58309 0.12967 0.35055 0.0
C1809 C 0.61139 0.22482 0.34453 0.0
C1810 C 0.6109 0.19427 0.41191 0.0
C1811 C 0.62514 0.2327 0.32207 0.0
C1812 C 0.57922 0.09157 0.44302 0.0
C1813 C 0.58998 0.1156 0.43555 0.0
C1814 C 0.58999 0.14758 0.368 0.0
C1815 C 0.62484 0.21645 0.36956 0.0
C1816 C 0.61048 0.19415 0.3805 0.0
C1817 C 0.57845 0.12248 0.40824 0.0
C1818 C 0.58977 0.14743 0.39928 0.0
H1819 H 0.68774 0.22894 0.35576 0.0
H1820 H 0.66357 0.21468 0.39436 0.0
H1821 H 0.60043 0.16994 0.33447 0.0
H1822 H 0.52847 0.06792 0.38012 0.0
H1823 H 0.54631 0.10977 0.36779 0.0
C1824 C 0.8083 0.68132 0.34302 0.0
C1825 C 0.80151 0.70206 0.36181 0.0
C1826 C 0.81986 0.66298 0.35602 0.0
C1827 C 0.86015 0.65499 0.42673 0.0
H1828 H 0.84379 0.58229 0.38281 0.0
C1829 C 0.92029 0.57795 0.45873 0.0
C1830 C 0.93087 0.56728 0.43367 0.0
C1831 C 0.90045 0.59222 0.45417 0.0
C1832 C 0.84832 0.60246 0.39547 0.0
H1833 H 0.80136 0.71984 0.40892 0.0
H1834 H 0.82176 0.68746 0.43193 0.0
H1835 H 0.81538 0.61176 0.36762 0.0
H1836 H 0.92884 0.56332 0.38422 0.0
H1837 H 0.89369 0.58744 0.37625 0.0
H1838 H 0.89359 0.64566 0.454 0.0
C1839 C 0.81811 0.68558 0.40708 0.0
C1840 C 0.83221 0.61933 0.38676 0.0
C1841 C 0.80651 0.70407 0.39398 0.0
C1842 C 0.92076 0.5707 0.40392 0.0
C1843 C 0.9007 0.58458 0.39933 0.0
C1844 C 0.87614 0.63798 0.43566 0.0
C1845 C 0.82487 0.66487 0.38815 0.0
C1846 C 0.83862 0.64601 0.40146 0.0
C1847 C 0.89057 0.59561 0.42442 0.0
C1848 C 0.87087 0.6119 0.41929 0.0
H1849 H 0.80542 0.67964 0.31824 0.0
H1850 H 0.8256 0.64773 0.34087 0.0
H1851 H 0.86567 0.6755 0.43833 0.0
H1852 H 0.92739 0.57538 0.48189 0.0
H1853 H 0.89283 0.60059 0.4738 0.0
C1854 C 0.32296 0.76794 0.3405 0.0
C1855 C 0.30075 0.77879 0.33208 0.0
C1856 C 0.34225 0.78007 0.36723 0.0
C1857 C 0.35641 0.83542 0.43655 0.0
H1858 H 0.42849 0.84699 0.42017 0.0
C1859 C 0.4641 0.91661 0.47938 0.0
C1860 C 0.45469 0.93824 0.47097 0.0
C1861 C 0.44676 0.89163 0.47322 0.0
C1862 C 0.40862 0.84352 0.42556 0.0
H1863 H 0.2806 0.80989 0.34611 0.0
H1864 H 0.31409 0.83125 0.39143 0.0
H1865 H 0.394 0.81061 0.38795 0.0
H1866 H 0.4201 0.9514 0.45098 0.0
H1867 H 0.3896 0.90815 0.44121 0.0
H1868 H 0.37026 0.87065 0.47116 0.0
C1869 C 0.31671 0.81318 0.37815 0.0
C1870 C 0.38877 0.82257 0.40713 0.0
C1871 C 0.29753 0.80108 0.35171 0.0
C1872 C 0.42761 0.93499 0.45793 0.0
C1873 C 0.41023 0.9103 0.45241 0.0
C1874 C 0.37599 0.8568 0.45423 0.0
C1875 C 0.33969 0.80327 0.38601 0.0
C1876 C 0.36201 0.81933 0.41116 0.0
C1877 C 0.41976 0.88825 0.45922 0.0
C1878 C 0.40192 0.86176 0.44789 0.0
H1879 H 0.32587 0.75059 0.32599 0.0
H1880 H 0.3595 0.77168 0.3727 0.0
H1881 H 0.33628 0.83293 0.44114 0.0
H1882 H 0.48508 0.91877 0.48915 0.0
H1883 H 0.45455 0.87487 0.47849 0.0
C1884 C 0.19405 0.27428 0.31904 0.0
C1885 C 0.21899 0.2862 0.31337 0.0
C1886 C 0.18027 0.28881 0.33732 0.0
C1887 C 0.18808 0.35202 0.39299 0.0
H1888 H 0.11153 0.34067 0.36358 0.0
C1889 C 0.12554 0.42689 0.4311 0.0
C1890 C 0.09948 0.41708 0.43549 0.0
C1891 C 0.14077 0.40975 0.41963 0.0
C1892 C 0.13282 0.34385 0.37241 0.0
H1893 H 0.24932 0.32263 0.32319 0.0
H1894 H 0.22516 0.34805 0.35448 0.0
H1895 H 0.13692 0.31287 0.33747 0.0
H1896 H 0.06956 0.38137 0.43253 0.0
H1897 H 0.09612 0.35146 0.41235 0.0
H1898 H 0.18395 0.38354 0.42743 0.0
C1899 C 0.21637 0.32735 0.34531 0.0
C1900 C 0.14742 0.32785 0.35745 0.0
C1901 C 0.23022 0.31277 0.32721 0.0
C1902 C 0.08938 0.38962 0.42898 0.0
C1903 C 0.10459 0.37248 0.41741 0.0
C1904 C 0.17348 0.36812 0.40785 0.0
C1905 C 0.191 0.31569 0.3502 0.0
C1906 C 0.1753 0.33183 0.36737 0.0
C1907 C 0.13031 0.38236 0.41216 0.0
C1908 C 0.1457 0.36435 0.39759 0.0
H1909 H 0.18487 0.25381 0.30886 0.0
H1910 H 0.16103 0.27902 0.34105 0.0
H1911 H 0.20942 0.35542 0.40161 0.0
H1912 H 0.13382 0.44791 0.43533 0.0
H1913 H 0.16036 0.41805 0.41549 0.0
C1914 C 0.28866 0.19397 0.68231 0.0
C1915 C 0.28739 0.19662 0.7138 0.0
C1916 C 0.3049 0.17861 0.66948 0.0
C1917 C 0.36394 0.15073 0.69159 0.0
H1918 H 0.34132 0.10843 0.60878 0.0
C1919 C 0.4229 0.07659 0.64185 0.0
C1920 C 0.42541 0.07482 0.61076 0.0
C1921 C 0.40628 0.09171 0.65427 0.0
C1922 C 0.34808 0.12037 0.63181 0.0
H1923 H 0.30172 0.18454 0.75631 0.0
H1924 H 0.32969 0.1574 0.73386 0.0
H1925 H 0.31129 0.13332 0.63059 0.0
H1926 H 0.41274 0.08832 0.56866 0.0
H1927 H 0.38366 0.11453 0.59028 0.0
H1928 H 0.40068 0.1377 0.69284 0.0
C1929 C 0.3185 0.16761 0.71916 0.0
C1930 C 0.33083 0.13466 0.64435 0.0
C1931 C 0.30227 0.18301 0.732 0.0
C1932 C 0.41101 0.08883 0.59254 0.0
C1933 C 0.39431 0.10389 0.60494 0.0
C1934 C 0.38114 0.13641 0.67909 0.0
C1935 C 0.32028 0.16544 0.68781 0.0
C1936 C 0.33851 0.15 0.67444 0.0
C1937 C 0.39163 0.10543 0.63594 0.0
C1938 C 0.37343 0.12101 0.64905 0.0
H1939 H 0.27752 0.20423 0.6676 0.0
H1940 H 0.30594 0.17765 0.64536 0.0
H1941 H 0.37078 0.16273 0.71458 0.0
H1942 H 0.43324 0.06572 0.65649 0.0
H1943 H 0.40442 0.09213 0.6781 0.0
C1944 C 0.8112 0.28983 0.68265 0.0
C1945 C 0.79961 0.29982 0.70713 0.0
C1946 C 0.82647 0.30694 0.66778 0.0
C1947 C 0.86856 0.37311 0.67867 0.0
H1948 H 0.85036 0.36508 0.58976 0.0
C1949 C 0.92147 0.45016 0.61641 0.0
C1950 C 0.9251 0.442 0.58618 0.0
C1951 C 0.90585 0.4329 0.63077 0.0
C1952 C 0.85619 0.36746 0.61453 0.0
H1953 H 0.79559 0.33569 0.73559 0.0
H1954 H 0.82308 0.36552 0.71033 0.0
H1955 H 0.8249 0.33455 0.61564 0.0
H1956 H 0.91522 0.40912 0.54737 0.0
H1957 H 0.88913 0.37864 0.57268 0.0
H1958 H 0.90046 0.40518 0.67785 0.0
C1959 C 0.81997 0.34443 0.70238 0.0
C1960 C 0.84138 0.34995 0.62938 0.0
C1961 C 0.80415 0.32734 0.71678 0.0
C1962 C 0.91269 0.41611 0.57062 0.0
C1963 C 0.8975 0.39864 0.58519 0.0
C1964 C 0.88375 0.39028 0.66381 0.0
C1965 C 0.83109 0.33444 0.67751 0.0
C1966 C 0.84726 0.35268 0.66164 0.0
C1967 C 0.89381 0.40669 0.61559 0.0
C1968 C 0.87773 0.38794 0.63146 0.0
H1969 H 0.80801 0.26875 0.67457 0.0
H1970 H 0.8349 0.29866 0.64879 0.0
H1971 H 0.87377 0.37554 0.70354 0.0
H1972 H 0.93053 0.47005 0.62897 0.0
H1973 H 0.90311 0.44034 0.65377 0.0
C1974 C 0.21312 0.66222 0.6857 0.0
C1975 C 0.22929 0.68595 0.68306 0.0
C1976 C 0.19822 0.64469 0.65927 0.0
C1977 C 0.15054 0.64419 0.61152 0.0
H1978 H 0.15319 0.59626 0.5373 0.0
C1979 C 0.05374 0.57954 0.54591 0.0
C1980 C 0.05505 0.55303 0.53976 0.0
C1981 C 0.077 0.59919 0.55035 0.0
C1982 C 0.15217 0.60975 0.55784 0.0
H1983 H 0.2457 0.70848 0.65118 0.0
H1984 H 0.21835 0.6782 0.60482 0.0
H1985 H 0.1951 0.62032 0.57275 0.0
H1986 H 0.08049 0.52575 0.53114 0.0
H1987 H 0.1215 0.5597 0.54142 0.0
H1988 H 0.10834 0.63287 0.59902 0.0
C1989 C 0.21768 0.67298 0.62718 0.0
C1990 C 0.17612 0.62349 0.57792 0.0
C1991 C 0.23311 0.69032 0.6537 0.0
C1992 C 0.07934 0.54626 0.53614 0.0
C1993 C 0.10274 0.5658 0.5416 0.0
C1994 C 0.12686 0.63049 0.59186 0.0
C1995 C 0.19886 0.65107 0.63008 0.0
C1996 C 0.17516 0.63975 0.60557 0.0
C1997 C 0.10207 0.59251 0.55027 0.0
C1998 C 0.12721 0.61211 0.5655 0.0
H1999 H 0.21027 0.65828 0.70812 0.0
H2000 H 0.18386 0.62767 0.66181 0.0
H2001 H 0.14954 0.65717 0.63253 0.0
H2002 H 0.03487 0.58502 0.54783 0.0
H2003 H 0.07554 0.61958 0.55577 0.0
loop_
_geom_bond_atom_site_label_1
_geom_bond_atom_site_label_2
_geom_bond_distance
_geom_bond_site_symmetry_2
_ccdc_geom_bond_type
Co0 N5 2.057 . S
Co0 O17 2.021 . S
Co0 O20 2.062 . S
Co0 O24 2.117 . S
Co0 O25 2.020 . S
C1 O21 1.259 . S
C1 O24 1.258 . S
Co2 N11 2.057 . S
Co2 O18 2.117 . S
Co2 O19 2.020 . S
Co2 O21 2.021 . S
Co2 O26 2.062 . S
C3 N5 1.316 . S
C3 N6 1.347 . S
C3 H8 0.931 . S
C4 N5 1.375 . S
C4 C7 1.350 . S
C4 H9 0.930 . S
N5 Co0 2.057 . S
N5 C3 1.316 . S
N5 C4 1.375 . S
N6 C3 1.347 . S
N6 C7 1.373 . S
C7 C4 1.350 . S
C7 N6 1.373 . S
C7 H28 0.931 . S
H8 C3 0.931 . S
H9 C4 0.930 . S
C10 O17 1.259 . S
C10 O18 1.258 . S
N11 Co2 2.057 . S
N11 C12 1.316 . S
N11 C13 1.375 . S
C12 N11 1.316 . S
C12 N14 1.347 . S
C12 H23 0.931 . S
C13 N11 1.375 . S
C13 C15 1.350 . S
C13 H22 0.930 . S
N14 C12 1.347 . S
N14 C15 1.373 . S
C15 C13 1.350 . S
C15 N14 1.373 . S
C15 H29 0.931 . S
C16 O19 1.256 . S
C16 O20 1.255 . S
O17 Co0 2.021 . S
O17 C10 1.259 . S
O18 Co2 2.117 . S
O18 C10 1.258 . S
O19 Co2 2.020 . S
O19 C16 1.256 . S
O20 Co0 2.062 . S
O20 C16 1.255 . S
O21 C1 1.259 . S
O21 Co2 2.021 . S
H22 C13 0.930 . S
H23 C12 0.931 . S
O24 Co0 2.117 . S
O24 C1 1.258 . S
O25 Co0 2.020 . S
O25 C27 1.256 . S
O26 Co2 2.062 . S
O26 C27 1.255 . S
C27 O25 1.256 . S
C27 O26 1.255 . S
H28 C7 0.931 . S
H29 C15 0.931 . S
Co30 N35 2.057 . S
Co30 O47 2.021 . S
Co30 O50 2.062 . S
Co30 O54 2.117 . S
Co30 O55 2.020 . S
C31 O51 1.259 . S
C31 O54 1.258 . S
Co32 N41 2.057 . S
Co32 O48 2.117 . S
Co32 O49 2.020 . S
Co32 O51 2.021 . S
Co32 O56 2.062 . S
C33 N35 1.316 . S
C33 N36 1.347 . S
C33 H38 0.931 . S
C34 N35 1.375 . S
C34 C37 1.350 . S
C34 H39 0.930 . S
N35 Co30 2.057 . S
N35 C33 1.316 . S
N35 C34 1.375 . S
N36 C33 1.347 . S
N36 C37 1.373 . S
C37 C34 1.350 . S
C37 N36 1.373 . S
C37 H58 0.931 . S
H38 C33 0.931 . S
H39 C34 0.930 . S
C40 O47 1.259 . S
C40 O48 1.258 . S
N41 Co32 2.057 . S
N41 C42 1.316 . S
N41 C43 1.375 . S
C42 N41 1.316 . S
C42 N44 1.347 . S
C42 H53 0.931 . S
C43 N41 1.375 . S
C43 C45 1.350 . S
C43 H52 0.930 . S
N44 C42 1.347 . S
N44 C45 1.373 . S
C45 C43 1.350 . S
C45 N44 1.373 . S
C45 H59 0.931 . S
C46 O49 1.256 . S
C46 O50 1.255 . S
O47 Co30 2.021 . S
O47 C40 1.259 . S
O48 Co32 2.117 . S
O48 C40 1.258 . S
O49 Co32 2.020 . S
O49 C46 1.256 . S
O50 Co30 2.062 . S
O50 C46 1.255 . S
O51 C31 1.259 . S
O51 Co32 2.021 . S
H52 C43 0.930 . S
H53 C42 0.931 . S
O54 Co30 2.117 . S
O54 C31 1.258 . S
O55 Co30 2.020 . S
O55 C57 1.256 . S
O56 Co32 2.062 . S
O56 C57 1.255 . S
C57 O55 1.256 . S
C57 O56 1.255 . S
H58 C37 0.931 . S
H59 C45 0.931 . S
Co60 N65 2.057 . S
Co60 O77 2.021 . S
Co60 O80 2.062 . S
Co60 O84 2.117 . S
Co60 O85 2.020 . S
C61 O81 1.259 . S
C61 O84 1.258 . S
Co62 N71 2.057 . S
Co62 O78 2.117 . S
Co62 O79 2.020 . S
Co62 O81 2.021 . S
Co62 O86 2.062 . S
C63 N65 1.316 . S
C63 N66 1.347 . S
C63 H68 0.931 . S
C64 N65 1.375 . S
C64 C67 1.350 . S
C64 H69 0.930 . S
N65 Co60 2.057 . S
N65 C63 1.316 . S
N65 C64 1.375 . S
N66 C63 1.347 . S
N66 C67 1.373 . S
C67 C64 1.350 . S
C67 N66 1.373 . S
C67 H88 0.931 . S
H68 C63 0.931 . S
H69 C64 0.930 . S
C70 O77 1.259 . S
C70 O78 1.258 . S
N71 Co62 2.057 . S
N71 C72 1.316 . S
N71 C73 1.375 . S
C72 N71 1.316 . S
C72 N74 1.347 . S
C72 H83 0.931 . S
C73 N71 1.375 . S
C73 C75 1.350 . S
C73 H82 0.930 . S
N74 C72 1.347 . S
N74 C75 1.373 . S
C75 C73 1.350 . S
C75 N74 1.373 . S
C75 H89 0.931 . S
C76 O79 1.256 . S
C76 O80 1.255 . S
O77 Co60 2.021 . S
O77 C70 1.259 . S
O78 Co62 2.117 . S
O78 C70 1.258 . S
O79 Co62 2.020 . S
O79 C76 1.256 . S
O80 Co60 2.062 . S
O80 C76 1.255 . S
O81 C61 1.259 . S
O81 Co62 2.021 . S
H82 C73 0.930 . S
H83 C72 0.931 . S
O84 Co60 2.117 . S
O84 C61 1.258 . S
O85 Co60 2.020 . S
O85 C87 1.256 . S
O86 Co62 2.062 . S
O86 C87 1.255 . S
C87 O85 1.256 . S
C87 O86 1.255 . S
H88 C67 0.931 . S
H89 C75 0.931 . S
Co90 N95 2.057 . S
Co90 O107 2.021 . S
Co90 O110 2.062 . S
Co90 O114 2.117 . S
Co90 O115 2.020 . S
C91 O111 1.259 . S
C91 O114 1.258 . S
Co92 N101 2.057 . S
Co92 O108 2.117 . S
Co92 O109 2.020 . S
Co92 O111 2.021 . S
Co92 O116 2.062 . S
C93 N95 1.316 . S
C93 N96 1.347 . S
C93 H98 0.931 . S
C94 N95 1.375 . S
C94 C97 1.350 . S
C94 H99 0.930 . S
N95 Co90 2.057 . S
N95 C93 1.316 . S
N95 C94 1.375 . S
N96 C93 1.347 . S
N96 C97 1.373 . S
C97 C94 1.350 . S
C97 N96 1.373 . S
C97 H118 0.931 . S
H98 C93 0.931 . S
H99 C94 0.930 . S
C100 O107 1.259 . S
C100 O108 1.258 . S
N101 Co92 2.057 . S
N101 C102 1.316 . S
N101 C103 1.375 . S
C102 N101 1.316 . S
C102 N104 1.347 . S
C102 H113 0.931 . S
C103 N101 1.375 . S
C103 C105 1.350 . S
C103 H112 0.930 . S
N104 C102 1.347 . S
N104 C105 1.373 . S
C105 C103 1.350 . S
C105 N104 1.373 . S
C105 H119 0.931 . S
C106 O109 1.256 . S
C106 O110 1.255 . S
O107 Co90 2.021 . S
O107 C100 1.259 . S
O108 Co92 2.117 . S
O108 C100 1.258 . S
O109 Co92 2.020 . S
O109 C106 1.256 . S
O110 Co90 2.062 . S
O110 C106 1.255 . S
O111 C91 1.259 . S
O111 Co92 2.021 . S
H112 C103 0.930 . S
H113 C102 0.931 . S
O114 Co90 2.117 . S
O114 C91 1.258 . S
O115 Co90 2.020 . S
O115 C117 1.256 . S
O116 Co92 2.062 . S
O116 C117 1.255 . S
C117 O115 1.256 . S
C117 O116 1.255 . S
H118 C97 0.931 . S
H119 C105 0.931 . S
Co120 N125 2.057 . S
Co120 O137 2.021 . S
Co120 O140 2.062 . S
Co120 O144 2.117 . S
Co120 O145 2.020 . S
C121 O141 1.259 . S
C121 O144 1.258 . S
Co122 N131 2.057 . S
Co122 O138 2.117 . S
Co122 O139 2.020 . S
Co122 O141 2.021 . S
Co122 O146 2.062 . S
C123 N125 1.316 . S
C123 N126 1.347 . S
C123 H128 0.931 . S
C124 N125 1.375 . S
C124 C127 1.350 . S
C124 H129 0.930 . S
N125 Co120 2.057 . S
N125 C123 1.316 . S
N125 C124 1.375 . S
N126 C123 1.347 . S
N126 C127 1.373 . S
C127 C124 1.350 . S
C127 N126 1.373 . S
C127 H148 0.931 . S
H128 C123 0.931 . S
H129 C124 0.930 . S
C130 O137 1.259 . S
C130 O138 1.258 . S
N131 Co122 2.057 . S
N131 C132 1.316 . S
N131 C133 1.375 . S
C132 N131 1.316 . S
C132 N134 1.347 . S
C132 H143 0.931 . S
C133 N131 1.375 . S
C133 C135 1.350 . S
C133 H142 0.930 . S
N134 C132 1.347 . S
N134 C135 1.373 . S
C135 C133 1.350 . S
C135 N134 1.373 . S
C135 H149 0.931 . S
C136 O139 1.256 . S
C136 O140 1.255 . S
O137 Co120 2.021 . S
O137 C130 1.259 . S
O138 Co122 2.117 . S
O138 C130 1.258 . S
O139 Co122 2.020 . S
O139 C136 1.256 . S
O140 Co120 2.062 . S
O140 C136 1.255 . S
O141 C121 1.259 . S
O141 Co122 2.021 . S
H142 C133 0.930 . S
H143 C132 0.931 . S
O144 Co120 2.117 . S
O144 C121 1.258 . S
O145 Co120 2.020 . S
O145 C147 1.256 . S
O146 Co122 2.062 . S
O146 C147 1.255 . S
C147 O145 1.256 . S
C147 O146 1.255 . S
H148 C127 0.931 . S
H149 C135 0.931 . S
Co150 N155 2.057 . S
Co150 O167 2.021 . S
Co150 O170 2.062 . S
Co150 O174 2.117 . S
Co150 O175 2.020 . S
C151 O171 1.259 . S
C151 O174 1.258 . S
Co152 N161 2.057 . S
Co152 O168 2.117 . S
Co152 O169 2.020 . S
Co152 O171 2.021 . S
Co152 O176 2.062 . S
C153 N155 1.316 . S
C153 N156 1.347 . S
C153 H158 0.931 . S
C154 N155 1.375 . S
C154 C157 1.350 . S
C154 H159 0.930 . S
N155 Co150 2.057 . S
N155 C153 1.316 . S
N155 C154 1.375 . S
N156 C153 1.347 . S
N156 C157 1.373 . S
C157 C154 1.350 . S
C157 N156 1.373 . S
C157 H178 0.931 . S
H158 C153 0.931 . S
H159 C154 0.930 . S
C160 O167 1.259 . S
C160 O168 1.258 . S
N161 Co152 2.057 . S
N161 C162 1.316 . S
N161 C163 1.375 . S
C162 N161 1.316 . S
C162 N164 1.347 . S
C162 H173 0.931 . S
C163 N161 1.375 . S
C163 C165 1.350 . S
C163 H172 0.930 . S
N164 C162 1.347 . S
N164 C165 1.373 . S
C165 C163 1.350 . S
C165 N164 1.373 . S
C165 H179 0.931 . S
C166 O169 1.256 . S
C166 O170 1.255 . S
O167 Co150 2.021 . S
O167 C160 1.259 . S
O168 Co152 2.117 . S
O168 C160 1.258 . S
O169 Co152 2.020 . S
O169 C166 1.256 . S
O170 Co150 2.062 . S
O170 C166 1.255 . S
O171 C151 1.259 . S
O171 Co152 2.021 . S
H172 C163 0.930 . S
H173 C162 0.931 . S
O174 Co150 2.117 . S
O174 C151 1.258 . S
O175 Co150 2.020 . S
O175 C177 1.256 . S
O176 Co152 2.062 . S
O176 C177 1.255 . S
C177 O175 1.256 . S
C177 O176 1.255 . S
H178 C157 0.931 . S
H179 C165 0.931 . S
Co180 N185 2.057 . S
Co180 O197 2.021 . S
Co180 O200 2.062 . S
Co180 O204 2.117 . S
Co180 O205 2.020 . S
C181 O201 1.259 . S
C181 O204 1.258 . S
Co182 N191 2.057 . S
Co182 O198 2.117 . S
Co182 O199 2.020 . S
Co182 O201 2.021 . S
Co182 O206 2.062 . S
C183 N185 1.316 . S
C183 N186 1.347 . S
C183 H188 0.931 . S
C184 N185 1.375 . S
C184 C187 1.350 . S
C184 H189 0.930 . S
N185 Co180 2.057 . S
N185 C183 1.316 . S
N185 C184 1.375 . S
N186 C183 1.347 . S
N186 C187 1.373 . S
C187 C184 1.350 . S
C187 N186 1.373 . S
C187 H208 0.931 . S
H188 C183 0.931 . S
H189 C184 0.930 . S
C190 O197 1.259 . S
C190 O198 1.258 . S
N191 Co182 2.057 . S
N191 C192 1.316 . S
N191 C193 1.375 . S
C192 N191 1.316 . S
C192 N194 1.347 . S
C192 H203 0.931 . S
C193 N191 1.375 . S
C193 C195 1.350 . S
C193 H202 0.930 . S
N194 C192 1.347 . S
N194 C195 1.373 . S
C195 C193 1.350 . S
C195 N194 1.373 . S
C195 H209 0.931 . S
C196 O199 1.256 . S
C196 O200 1.255 . S
O197 Co180 2.021 . S
O197 C190 1.259 . S
O198 Co182 2.117 . S
O198 C190 1.258 . S
O199 Co182 2.020 . S
O199 C196 1.256 . S
O200 Co180 2.062 . S
O200 C196 1.255 . S
O201 C181 1.259 . S
O201 Co182 2.021 . S
H202 C193 0.930 . S
H203 C192 0.931 . S
O204 Co180 2.117 . S
O204 C181 1.258 . S
O205 Co180 2.020 . S
O205 C207 1.256 . S
O206 Co182 2.062 . S
O206 C207 1.255 . S
C207 O205 1.256 . S
C207 O206 1.255 . S
H208 C187 0.931 . S
H209 C195 0.931 . S
Co210 N215 2.057 . S
Co210 O227 2.021 . S
Co210 O230 2.062 . S
Co210 O234 2.117 . S
Co210 O235 2.020 . S
C211 O231 1.259 . S
C211 O234 1.258 . S
Co212 N221 2.057 . S
Co212 O228 2.117 . S
Co212 O229 2.020 . S
Co212 O231 2.021 . S
Co212 O236 2.062 . S
C213 N215 1.316 . S
C213 N216 1.347 . S
C213 H218 0.931 . S
C214 N215 1.375 . S
C214 C217 1.350 . S
C214 H219 0.930 . S
N215 Co210 2.057 . S
N215 C213 1.316 . S
N215 C214 1.375 . S
N216 C213 1.347 . S
N216 C217 1.373 . S
C217 C214 1.350 . S
C217 N216 1.373 . S
C217 H238 0.931 . S
H218 C213 0.931 . S
H219 C214 0.930 . S
C220 O227 1.259 . S
C220 O228 1.258 . S
N221 Co212 2.057 . S
N221 C222 1.316 . S
N221 C223 1.375 . S
C222 N221 1.316 . S
C222 N224 1.347 . S
C222 H233 0.931 . S
C223 N221 1.375 . S
C223 C225 1.350 . S
C223 H232 0.930 . S
N224 C222 1.347 . S
N224 C225 1.373 . S
C225 C223 1.350 . S
C225 N224 1.373 . S
C225 H239 0.931 . S
C226 O229 1.256 . S
C226 O230 1.255 . S
O227 Co210 2.021 . S
O227 C220 1.259 . S
O228 Co212 2.117 . S
O228 C220 1.258 . S
O229 Co212 2.020 . S
O229 C226 1.256 . S
O230 Co210 2.062 . S
O230 C226 1.255 . S
O231 C211 1.259 . S
O231 Co212 2.021 . S
H232 C223 0.930 . S
H233 C222 0.931 . S
O234 Co210 2.117 . S
O234 C211 1.258 . S
O235 Co210 2.020 . S
O235 C237 1.256 . S
O236 Co212 2.062 . S
O236 C237 1.255 . S
C237 O235 1.256 . S
C237 O236 1.255 . S
H238 C217 0.931 . S
H239 C225 0.931 . S
Cd240 N243 2.334 1_655 S
Cd240 N269 2.304 1_565 S
Cd240 O276 2.268 . S
Cd240 O279 2.273 1_665 S
Cd240 O280 2.417 . S
Cd240 O281 2.330 . S
Cd241 N256 2.304 1_455 S
Cd241 N260 2.334 1_545 S
Cd241 O277 2.273 1_445 S
Cd241 O278 2.268 . S
Cd241 O282 2.417 . S
Cd241 O283 2.330 . S
C242 N243 1.332 . S
C242 C246 1.381 . S
C242 H248 0.931 . S
N243 Cd240 2.334 1_455 S
N243 C242 1.332 . S
N243 C247 1.328 . S
C244 C245 1.396 . S
C244 C247 1.378 . S
C244 H286 0.931 . S
C245 C244 1.396 . S
C245 C246 1.382 . S
C246 C242 1.381 . S
C246 C245 1.382 . S
C246 H287 0.930 . S
C247 N243 1.328 . S
C247 C244 1.378 . S
C247 H249 0.930 1_455 S
H248 C242 0.931 . S
H249 C247 0.930 1_655 S
C250 O276 1.238 . S
C250 O277 1.253 . S
C251 C252 1.379 . S
C251 N256 1.337 . S
C251 H257 0.929 . S
C252 C251 1.379 . S
C252 C253 1.380 . S
C252 H288 0.929 . S
C253 C252 1.380 . S
C253 C254 1.399 . S
C254 C253 1.399 . S
C254 C255 1.376 . S
C254 H289 0.931 . S
C255 C254 1.376 . S
C255 N256 1.338 . S
C255 H258 0.930 1_655 S
N256 Cd241 2.304 1_655 S
N256 C251 1.337 . S
N256 C255 1.338 . S
H257 C251 0.929 . S
H258 C255 0.930 1_455 S
C259 N260 1.332 . S
C259 C263 1.381 . S
C259 H265 0.931 . S
N260 Cd241 2.334 1_565 S
N260 C259 1.332 . S
N260 C264 1.328 . S
C261 C262 1.396 . S
C261 C264 1.378 . S
C261 H290 0.931 . S
C262 C261 1.396 . S
C262 C263 1.382 . S
C263 C259 1.381 . S
C263 C262 1.382 . S
C263 H291 0.930 . S
C264 N260 1.328 . S
C264 C261 1.378 . S
C264 H266 0.930 1_565 S
H265 C259 0.931 . S
H266 C264 0.930 1_545 S
C267 O278 1.238 . S
C267 O279 1.253 . S
C268 O280 1.239 . S
C268 O281 1.230 . S
N269 Cd240 2.304 1_545 S
N269 C270 1.337 . S
N269 C274 1.338 . S
C270 N269 1.337 . S
C270 C271 1.379 . S
C270 H284 0.929 . S
C271 C270 1.379 . S
C271 C272 1.380 . S
C271 H292 0.929 . S
C272 C271 1.380 . S
C272 C273 1.399 . S
C273 C272 1.399 . S
C273 C274 1.376 . S
C273 H293 0.931 . S
C274 N269 1.338 . S
C274 C273 1.376 . S
C274 H285 0.920 1_545 S
C275 O282 1.239 . S
C275 O283 1.230 . S
O276 Cd240 2.268 . S
O276 C250 1.238 . S
O277 Cd241 2.273 1_665 S
O277 C250 1.253 . S
O278 Cd241 2.268 . S
O278 C267 1.238 . S
O279 Cd240 2.273 1_445 S
O279 C267 1.253 . S
O280 Cd240 2.417 . S
O280 C268 1.239 . S
O281 Cd240 2.330 . S
O281 C268 1.230 . S
O282 Cd241 2.417 . S
O282 C275 1.239 . S
O283 Cd241 2.330 . S
O283 C275 1.230 . S
H284 C270 0.929 . S
H285 C274 0.920 1_565 S
H286 C244 0.931 . S
H287 C246 0.930 . S
H288 C252 0.929 . S
H289 C254 0.931 . S
H290 C261 0.931 . S
H291 C263 0.930 . S
H292 C271 0.929 . S
H293 C273 0.931 . S
Cd294 N297 2.334 . S
Cd294 N323 2.304 1_565 S
Cd294 O330 2.268 1_554 S
Cd294 O333 2.273 1_565 S
Cd294 O334 2.417 . S
Cd294 O335 2.330 . S
Cd295 N310 2.304 . S
Cd295 N314 2.334 1_545 S
Cd295 O331 2.273 1_545 S
Cd295 O332 2.268 1_556 S
Cd295 O336 2.417 . S
Cd295 O337 2.330 . S
C296 N297 1.332 . S
C296 C300 1.381 . S
C296 H302 0.931 . S
N297 Cd294 2.334 . S
N297 C296 1.332 . S
N297 C301 1.328 . S
C298 C299 1.396 . S
C298 C301 1.378 . S
C298 H340 0.931 1_554 S
C299 C298 1.396 . S
C299 C300 1.382 . S
C300 C296 1.381 . S
C300 C299 1.382 . S
C300 H341 0.930 . S
C301 N297 1.328 . S
C301 C298 1.378 . S
C301 H303 0.930 1_554 S
H302 C296 0.931 . S
H303 C301 0.930 1_556 S
C304 O330 1.238 . S
C304 O331 1.253 . S
C305 C306 1.379 . S
C305 N310 1.337 . S
C305 H311 0.929 . S
C306 C305 1.379 . S
C306 C307 1.380 . S
C306 H342 0.929 . S
C307 C306 1.380 . S
C307 C308 1.399 . S
C308 C307 1.399 . S
C308 C309 1.376 . S
C308 H343 0.931 1_556 S
C309 C308 1.376 . S
C309 N310 1.338 . S
C309 H312 0.930 1_556 S
N310 Cd295 2.304 . S
N310 C305 1.337 . S
N310 C309 1.338 . S
H311 C305 0.929 . S
H312 C309 0.930 1_554 S
C313 N314 1.332 . S
C313 C317 1.381 . S
C313 H319 0.931 . S
N314 Cd295 2.334 1_565 S
N314 C313 1.332 . S
N314 C318 1.328 . S
C315 C316 1.396 . S
C315 C318 1.378 . S
C315 H344 0.931 1_556 S
C316 C315 1.396 . S
C316 C317 1.382 . S
C317 C313 1.381 . S
C317 C316 1.382 . S
C317 H345 0.930 . S
C318 N314 1.328 . S
C318 C315 1.378 . S
C318 H320 0.930 1_566 S
H319 C313 0.931 . S
H320 C318 0.930 1_544 S
C321 O332 1.238 . S
C321 O333 1.253 . S
C322 O334 1.239 . S
C322 O335 1.230 . S
N323 Cd294 2.304 1_545 S
N323 C324 1.337 . S
N323 C328 1.338 . S
C324 N323 1.337 . S
C324 C325 1.379 . S
C324 H338 0.929 . S
C325 C324 1.379 . S
C325 C326 1.380 . S
C325 H346 0.929 . S
C326 C325 1.380 . S
C326 C327 1.399 . S
C327 C326 1.399 . S
C327 C328 1.376 . S
C327 H347 0.931 1_554 S
C328 N323 1.338 . S
C328 C327 1.376 . S
C328 H339 0.917 1_544 S
C329 O336 1.239 . S
C329 O337 1.230 . S
O330 Cd294 2.268 1_556 S
O330 C304 1.238 . S
O331 Cd295 2.273 1_565 S
O331 C304 1.253 . S
O332 Cd295 2.268 1_554 S
O332 C321 1.238 . S
O333 Cd294 2.273 1_545 S
O333 C321 1.253 . S
O334 Cd294 2.417 . S
O334 C322 1.239 . S
O335 Cd294 2.330 . S
O335 C322 1.230 . S
O336 Cd295 2.417 . S
O336 C329 1.239 . S
O337 Cd295 2.330 . S
O337 C329 1.230 . S
H338 C324 0.929 . S
H339 C328 0.917 1_566 S
H340 C298 0.931 1_556 S
H341 C300 0.930 . S
H342 C306 0.929 . S
H343 C308 0.931 1_554 S
H344 C315 0.931 1_554 S
H345 C317 0.930 . S
H346 C325 0.929 . S
H347 C327 0.931 1_556 S
Cd348 N351 2.334 1_655 S
Cd348 N377 2.304 . S
Cd348 O384 2.268 1_554 S
Cd348 O387 2.273 1_655 S
Cd348 O388 2.417 . S
Cd348 O389 2.330 . S
Cd349 N364 2.304 1_455 S
Cd349 N368 2.334 . S
Cd349 O385 2.273 1_455 S
Cd349 O386 2.268 1_556 S
Cd349 O390 2.417 . S
Cd349 O391 2.330 . S
C350 N351 1.332 . S
C350 C354 1.381 . S
C350 H356 0.931 . S
N351 Cd348 2.334 1_455 S
N351 C350 1.332 . S
N351 C355 1.328 . S
C352 C353 1.396 . S
C352 C355 1.378 . S
C352 H394 0.931 1_554 S
C353 C352 1.396 . S
C353 C354 1.382 . S
C354 C350 1.381 . S
C354 C353 1.382 . S
C354 H395 0.930 . S
C355 N351 1.328 . S
C355 C352 1.378 . S
C355 H357 0.930 1_454 S
H356 C350 0.931 . S
H357 C355 0.930 1_656 S
C358 O384 1.238 . S
C358 O385 1.253 . S
C359 C360 1.379 . S
C359 N364 1.337 . S
C359 H365 0.929 . S
C360 C359 1.379 . S
C360 C361 1.380 . S
C360 H396 0.929 . S
C361 C360 1.380 . S
C361 C362 1.399 . S
C362 C361 1.399 . S
C362 C363 1.376 . S
C362 H397 0.931 1_556 S
C363 C362 1.376 . S
C363 N364 1.338 . S
C363 H366 0.930 1_656 S
N364 Cd349 2.304 1_655 S
N364 C359 1.337 . S
N364 C363 1.338 . S
H365 C359 0.929 . S
H366 C363 0.930 1_454 S
C367 N368 1.332 . S
C367 C371 1.381 . S
C367 H373 0.931 . S
N368 Cd349 2.334 . S
N368 C367 1.332 . S
N368 C372 1.328 . S
C369 C370 1.396 . S
C369 C372 1.378 . S
C369 H398 0.931 1_556 S
C370 C369 1.396 . S
C370 C371 1.382 . S
C371 C367 1.381 . S
C371 C370 1.382 . S
C371 H399 0.930 . S
C372 N368 1.328 . S
C372 C369 1.378 . S
C372 H374 0.930 1_556 S
H373 C367 0.931 . S
H374 C372 0.930 1_554 S
C375 O386 1.238 . S
C375 O387 1.253 . S
C376 O388 1.239 . S
C376 O389 1.230 . S
N377 Cd348 2.304 . S
N377 C378 1.337 . S
N377 C382 1.338 . S
C378 N377 1.337 . S
C378 C379 1.379 . S
C378 H392 0.929 . S
C379 C378 1.379 . S
C379 C380 1.380 . S
C379 H400 0.929 . S
C380 C379 1.380 . S
C380 C381 1.399 . S
C381 C380 1.399 . S
C381 C382 1.376 . S
C381 H401 0.931 1_554 S
C382 N377 1.338 . S
C382 C381 1.376 . S
C382 H393 0.930 1_554 S
C383 O390 1.239 . S
C383 O391 1.230 . S
O384 Cd348 2.268 1_556 S
O384 C358 1.238 . S
O385 Cd349 2.273 1_655 S
O385 C358 1.253 . S
O386 Cd349 2.268 1_554 S
O386 C375 1.238 . S
O387 Cd348 2.273 1_455 S
O387 C375 1.253 . S
O388 Cd348 2.417 . S
O388 C376 1.239 . S
O389 Cd348 2.330 . S
O389 C376 1.230 . S
O390 Cd349 2.417 . S
O390 C383 1.239 . S
O391 Cd349 2.330 . S
O391 C383 1.230 . S
H392 C378 0.929 . S
H393 C382 0.930 1_556 S
H394 C352 0.931 1_556 S
H395 C354 0.930 . S
H396 C360 0.929 . S
H397 C362 0.931 1_554 S
H398 C369 0.931 1_554 S
H399 C371 0.930 . S
H400 C379 0.929 . S
H401 C381 0.931 1_556 S
Cd402 N405 2.334 . S
Cd402 N431 2.304 . S
Cd402 O438 2.268 1_554 S
Cd402 O441 2.273 . S
Cd402 O442 2.417 . S
Cd402 O443 2.330 . S
Cd403 N418 2.304 . S
Cd403 N422 2.334 . S
Cd403 O439 2.273 . S
Cd403 O440 2.268 1_556 S
Cd403 O444 2.417 . S
Cd403 O445 2.330 . S
C404 N405 1.332 . S
C404 C408 1.381 . S
C404 H410 0.931 . S
N405 Cd402 2.334 . S
N405 C404 1.332 . S
N405 C409 1.328 . S
C406 C407 1.396 . S
C406 C409 1.378 . S
C406 H448 0.931 1_554 S
C407 C406 1.396 . S
C407 C408 1.382 . S
C408 C404 1.381 . S
C408 C407 1.382 . S
C408 H449 0.930 . S
C409 N405 1.328 . S
C409 C406 1.378 . S
C409 H411 0.930 1_554 S
H410 C404 0.931 . S
H411 C409 0.930 1_556 S
C412 O438 1.238 . S
C412 O439 1.253 . S
C413 C414 1.379 . S
C413 N418 1.337 . S
C413 H419 0.929 . S
C414 C413 1.379 . S
C414 C415 1.380 . S
C414 H450 0.929 . S
C415 C414 1.380 . S
C415 C416 1.399 . S
C416 C415 1.399 . S
C416 C417 1.376 . S
C416 H451 0.931 1_556 S
C417 C416 1.376 . S
C417 N418 1.338 . S
C417 H420 0.930 1_556 S
N418 Cd403 2.304 . S
N418 C413 1.337 . S
N418 C417 1.338 . S
H419 C413 0.929 . S
H420 C417 0.930 1_554 S
C421 N422 1.332 . S
C421 C425 1.381 . S
C421 H427 0.931 . S
N422 Cd403 2.334 . S
N422 C421 1.332 . S
N422 C426 1.328 . S
C423 C424 1.396 . S
C423 C426 1.378 . S
C423 H452 0.931 1_556 S
C424 C423 1.396 . S
C424 C425 1.382 . S
C425 C421 1.381 . S
C425 C424 1.382 . S
C425 H453 0.930 . S
C426 N422 1.328 . S
C426 C423 1.378 . S
C426 H428 0.930 1_556 S
H427 C421 0.931 . S
H428 C426 0.930 1_554 S
C429 O440 1.238 . S
C429 O441 1.253 . S
C430 O442 1.239 . S
C430 O443 1.230 . S
N431 Cd402 2.304 . S
N431 C432 1.337 . S
N431 C436 1.338 . S
C432 N431 1.337 . S
C432 C433 1.379 . S
C432 H446 0.929 . S
C433 C432 1.379 . S
C433 C434 1.380 . S
C433 H454 0.929 . S
C434 C433 1.380 . S
C434 C435 1.399 . S
C435 C434 1.399 . S
C435 C436 1.376 . S
C435 H455 0.931 1_554 S
C436 N431 1.338 . S
C436 C435 1.376 . S
C436 H447 0.930 1_554 S
C437 O444 1.239 . S
C437 O445 1.230 . S
O438 Cd402 2.268 1_556 S
O438 C412 1.238 . S
O439 Cd403 2.273 . S
O439 C412 1.253 . S
O440 Cd403 2.268 1_554 S
O440 C429 1.238 . S
O441 Cd402 2.273 . S
O441 C429 1.253 . S
O442 Cd402 2.417 . S
O442 C430 1.239 . S
O443 Cd402 2.330 . S
O443 C430 1.230 . S
O444 Cd403 2.417 . S
O444 C437 1.239 . S
O445 Cd403 2.330 . S
O445 C437 1.230 . S
H446 C432 0.929 . S
H447 C436 0.930 1_556 S
H448 C406 0.931 1_556 S
H449 C408 0.930 . S
H450 C414 0.929 . S
H451 C416 0.931 1_554 S
H452 C423 0.931 1_554 S
H453 C425 0.930 . S
H454 C433 0.929 . S
H455 C435 0.931 1_556 S
Cd456 N459 2.334 1_655 S
Cd456 N485 2.304 . S
Cd456 O492 2.268 . S
Cd456 O495 2.273 1_655 S
Cd456 O496 2.417 . S
Cd456 O497 2.330 . S
Cd457 N472 2.304 1_455 S
Cd457 N476 2.334 . S
Cd457 O493 2.273 1_455 S
Cd457 O494 2.268 . S
Cd457 O498 2.417 . S
Cd457 O499 2.330 . S
C458 N459 1.332 . S
C458 C462 1.381 . S
C458 H464 0.931 . S
N459 Cd456 2.334 1_455 S
N459 C458 1.332 . S
N459 C463 1.328 . S
C460 C461 1.396 . S
C460 C463 1.378 . S
C460 H502 0.931 . S
C461 C460 1.396 . S
C461 C462 1.382 . S
C462 C458 1.381 . S
C462 C461 1.382 . S
C462 H503 0.930 . S
C463 N459 1.328 . S
C463 C460 1.378 . S
C463 H465 0.930 1_455 S
H464 C458 0.931 . S
H465 C463 0.930 1_655 S
C466 O492 1.238 . S
C466 O493 1.253 . S
C467 C468 1.379 . S
C467 N472 1.337 . S
C467 H473 0.929 . S
C468 C467 1.379 . S
C468 C469 1.380 . S
C468 H504 0.929 . S
C469 C468 1.380 . S
C469 C470 1.399 . S
C470 C469 1.399 . S
C470 C471 1.376 . S
C470 H505 0.931 . S
C471 C470 1.376 . S
C471 N472 1.338 . S
C471 H474 0.930 1_655 S
N472 Cd457 2.304 1_655 S
N472 C467 1.337 . S
N472 C471 1.338 . S
H473 C467 0.929 . S
H474 C471 0.930 1_455 S
C475 N476 1.332 . S
C475 C479 1.381 . S
C475 H481 0.931 . S
N476 Cd457 2.334 . S
N476 C475 1.332 . S
N476 C480 1.328 . S
C477 C478 1.396 . S
C477 C480 1.378 . S
C477 H506 0.931 . S
C478 C477 1.396 . S
C478 C479 1.382 . S
C479 C475 1.381 . S
C479 C478 1.382 . S
C479 H507 0.930 . S
C480 N476 1.328 . S
C480 C477 1.378 . S
C480 H482 0.930 . S
H481 C475 0.931 . S
H482 C480 0.930 . S
C483 O494 1.238 . S
C483 O495 1.253 . S
C484 O496 1.239 . S
C484 O497 1.230 . S
N485 Cd456 2.304 . S
N485 C486 1.337 . S
N485 C490 1.338 . S
C486 N485 1.337 . S
C486 C487 1.379 . S
C486 H500 0.929 . S
C487 C486 1.379 . S
C487 C488 1.380 . S
C487 H508 0.929 . S
C488 C487 1.380 . S
C488 C489 1.399 . S
C489 C488 1.399 . S
C489 C490 1.376 . S
C489 H509 0.931 . S
C490 N485 1.338 . S
C490 C489 1.376 . S
C490 H501 0.930 . S
C491 O498 1.239 . S
C491 O499 1.230 . S
O492 Cd456 2.268 . S
O492 C466 1.238 . S
O493 Cd457 2.273 1_655 S
O493 C466 1.253 . S
O494 Cd457 2.268 . S
O494 C483 1.238 . S
O495 Cd456 2.273 1_455 S
O495 C483 1.253 . S
O496 Cd456 2.417 . S
O496 C484 1.239 . S
O497 Cd456 2.330 . S
O497 C484 1.230 . S
O498 Cd457 2.417 . S
O498 C491 1.239 . S
O499 Cd457 2.330 . S
O499 C491 1.230 . S
H500 C486 0.929 . S
H501 C490 0.930 . S
H502 C460 0.931 . S
H503 C462 0.930 . S
H504 C468 0.929 . S
H505 C470 0.931 . S
H506 C477 0.931 . S
H507 C479 0.930 . S
H508 C487 0.929 . S
H509 C489 0.931 . S
Cd510 N513 2.334 . S
Cd510 N539 2.304 1_565 S
Cd510 O546 2.268 . S
Cd510 O549 2.273 1_565 S
Cd510 O550 2.417 . S
Cd510 O551 2.330 . S
Cd511 N526 2.304 . S
Cd511 N530 2.334 1_545 S
Cd511 O547 2.273 1_545 S
Cd511 O548 2.268 . S
Cd511 O552 2.417 . S
Cd511 O553 2.330 . S
C512 N513 1.332 . S
C512 C516 1.381 . S
C512 H518 0.931 . S
N513 Cd510 2.334 . S
N513 C512 1.332 . S
N513 C517 1.328 . S
C514 C515 1.396 . S
C514 C517 1.378 . S
C514 H556 0.931 . S
C515 C514 1.396 . S
C515 C516 1.382 . S
C516 C512 1.381 . S
C516 C515 1.382 . S
C516 H557 0.930 . S
C517 N513 1.328 . S
C517 C514 1.378 . S
C517 H519 0.930 . S
H518 C512 0.931 . S
H519 C517 0.930 . S
C520 O546 1.238 . S
C520 O547 1.253 . S
C521 C522 1.379 . S
C521 N526 1.337 . S
C521 H527 0.929 . S
C522 C521 1.379 . S
C522 C523 1.380 . S
C522 H558 0.929 . S
C523 C522 1.380 . S
C523 C524 1.399 . S
C524 C523 1.399 . S
C524 C525 1.376 . S
C524 H559 0.931 . S
C525 C524 1.376 . S
C525 N526 1.338 . S
C525 H528 0.930 . S
N526 Cd511 2.304 . S
N526 C521 1.337 . S
N526 C525 1.338 . S
H527 C521 0.929 . S
H528 C525 0.930 . S
C529 N530 1.332 . S
C529 C533 1.381 . S
C529 H535 0.931 . S
N530 Cd511 2.334 1_565 S
N530 C529 1.332 . S
N530 C534 1.328 . S
C531 C532 1.396 . S
C531 C534 1.378 . S
C531 H560 0.931 . S
C532 C531 1.396 . S
C532 C533 1.382 . S
C533 C529 1.381 . S
C533 C532 1.382 . S
C533 H561 0.930 . S
C534 N530 1.328 . S
C534 C531 1.378 . S
C534 H536 0.930 1_565 S
H535 C529 0.931 . S
H536 C534 0.930 1_545 S
C537 O548 1.238 . S
C537 O549 1.253 . S
C538 O550 1.239 . S
C538 O551 1.230 . S
N539 Cd510 2.304 1_545 S
N539 C540 1.337 . S
N539 C544 1.338 . S
C540 N539 1.337 . S
C540 C541 1.379 . S
C540 H554 0.929 . S
C541 C540 1.379 . S
C541 C542 1.380 . S
C541 H562 0.929 . S
C542 C541 1.380 . S
C542 C543 1.399 . S
C543 C542 1.399 . S
C543 C544 1.376 . S
C543 H563 0.931 . S
C544 N539 1.338 . S
C544 C543 1.376 . S
C544 H555 0.918 1_545 S
C545 O552 1.239 . S
C545 O553 1.230 . S
O546 Cd510 2.268 . S
O546 C520 1.238 . S
O547 Cd511 2.273 1_565 S
O547 C520 1.253 . S
O548 Cd511 2.268 . S
O548 C537 1.238 . S
O549 Cd510 2.273 1_545 S
O549 C537 1.253 . S
O550 Cd510 2.417 . S
O550 C538 1.239 . S
O551 Cd510 2.330 . S
O551 C538 1.230 . S
O552 Cd511 2.417 . S
O552 C545 1.239 . S
O553 Cd511 2.330 . S
O553 C545 1.230 . S
H554 C540 0.929 . S
H555 C544 0.918 1_565 S
H556 C514 0.931 . S
H557 C516 0.930 . S
H558 C522 0.929 . S
H559 C524 0.931 . S
H560 C531 0.931 . S
H561 C533 0.930 . S
H562 C541 0.929 . S
H563 C543 0.931 . S
C564 C565 1.349 . S
C564 C566 1.327 . S
C564 H589 0.950 . S
C565 C564 1.349 . S
C565 C581 1.349 . S
C566 C564 1.327 . S
C566 C585 1.429 . S
C566 H590 0.950 . S
C567 C584 1.574 . S
C567 C586 1.368 . S
C567 H591 0.949 . S
H568 C572 0.949 . S
C569 C570 1.349 . S
C569 C571 1.327 . S
C569 H592 0.950 . S
C570 C569 1.349 . S
C570 C582 1.349 . S
C571 C569 1.327 . S
C571 C587 1.429 . S
C571 H593 0.950 . S
C572 H568 0.949 . S
C572 C580 1.574 . S
C572 C588 1.368 . S
H573 C581 0.950 . S
H574 C579 0.950 . S
H575 C580 0.949 . S
H576 C582 0.950 . S
H577 C583 0.950 . S
H578 C584 0.949 . S
C579 H574 0.950 . S
C579 C581 1.327 . S
C579 C585 1.429 . S
C580 C572 1.574 . S
C580 H575 0.949 . S
C580 C586 1.368 . S
C581 C565 1.349 . S
C581 H573 0.950 . S
C581 C579 1.327 . S
C582 C570 1.349 . S
C582 H576 0.950 . S
C582 C583 1.327 . S
C583 H577 0.950 . S
C583 C582 1.327 . S
C583 C587 1.429 . S
C584 C567 1.574 . S
C584 H578 0.949 . S
C584 C588 1.368 . S
C585 C566 1.429 . S
C585 C579 1.429 . S
C585 C586 1.523 . S
C586 C567 1.368 . S
C586 C580 1.368 . S
C586 C585 1.523 . S
C587 C571 1.429 . S
C587 C583 1.429 . S
C587 C588 1.523 . S
C588 C572 1.368 . S
C588 C584 1.368 . S
C588 C587 1.523 . S
H589 C564 0.950 . S
H590 C566 0.950 . S
H591 C567 0.949 . S
H592 C569 0.950 . S
H593 C571 0.950 . S
C594 C595 1.349 . S
C594 C596 1.327 . S
C594 H619 0.950 . S
C595 C594 1.349 . S
C595 C611 1.349 . S
C596 C594 1.327 . S
C596 C615 1.429 . S
C596 H620 0.950 . S
C597 C614 1.574 . S
C597 C616 1.368 . S
C597 H621 0.949 . S
H598 C602 0.949 . S
C599 C600 1.349 . S
C599 C601 1.327 . S
C599 H622 0.950 . S
C600 C599 1.349 . S
C600 C612 1.349 . S
C601 C599 1.327 . S
C601 C617 1.429 . S
C601 H623 0.950 . S
C602 H598 0.949 . S
C602 C610 1.574 . S
C602 C618 1.368 . S
H603 C611 0.950 . S
H604 C609 0.950 . S
H605 C610 0.949 . S
H606 C612 0.950 . S
H607 C613 0.950 . S
H608 C614 0.949 . S
C609 H604 0.950 . S
C609 C611 1.327 . S
C609 C615 1.429 . S
C610 C602 1.574 . S
C610 H605 0.949 . S
C610 C616 1.368 . S
C611 C595 1.349 . S
C611 H603 0.950 . S
C611 C609 1.327 . S
C612 C600 1.349 . S
C612 H606 0.950 . S
C612 C613 1.327 . S
C613 H607 0.950 . S
C613 C612 1.327 . S
C613 C617 1.429 . S
C614 C597 1.574 . S
C614 H608 0.949 . S
C614 C618 1.368 . S
C615 C596 1.429 . S
C615 C609 1.429 . S
C615 C616 1.523 . S
C616 C597 1.368 . S
C616 C610 1.368 . S
C616 C615 1.523 . S
C617 C601 1.429 . S
C617 C613 1.429 . S
C617 C618 1.523 . S
C618 C602 1.368 . S
C618 C614 1.368 . S
C618 C617 1.523 . S
H619 C594 0.950 . S
H620 C596 0.950 . S
H621 C597 0.949 . S
H622 C599 0.950 . S
H623 C601 0.950 . S
C624 C625 1.349 . S
C624 C626 1.327 . S
C624 H649 0.950 . S
C625 C624 1.349 . S
C625 C641 1.349 . S
C626 C624 1.327 . S
C626 C645 1.429 . S
C626 H650 0.950 . S
C627 C644 1.574 . S
C627 C646 1.368 . S
C627 H651 0.949 . S
H628 C632 0.949 . S
C629 C630 1.349 . S
C629 C631 1.327 . S
C629 H652 0.950 . S
C630 C629 1.349 . S
C630 C642 1.349 . S
C631 C629 1.327 . S
C631 C647 1.429 . S
C631 H653 0.950 . S
C632 H628 0.949 . S
C632 C640 1.574 . S
C632 C648 1.368 . S
H633 C641 0.950 . S
H634 C639 0.950 . S
H635 C640 0.949 . S
H636 C642 0.950 . S
H637 C643 0.950 . S
H638 C644 0.949 . S
C639 H634 0.950 . S
C639 C641 1.327 . S
C639 C645 1.429 . S
C640 C632 1.574 . S
C640 H635 0.949 . S
C640 C646 1.368 . S
C641 C625 1.349 . S
C641 H633 0.950 . S
C641 C639 1.327 . S
C642 C630 1.349 . S
C642 H636 0.950 . S
C642 C643 1.327 . S
C643 H637 0.950 . S
C643 C642 1.327 . S
C643 C647 1.429 . S
C644 C627 1.574 . S
C644 H638 0.949 . S
C644 C648 1.368 . S
C645 C626 1.429 . S
C645 C639 1.429 . S
C645 C646 1.523 . S
C646 C627 1.368 . S
C646 C640 1.368 . S
C646 C645 1.523 . S
C647 C631 1.429 . S
C647 C643 1.429 . S
C647 C648 1.523 . S
C648 C632 1.368 . S
C648 C644 1.368 . S
C648 C647 1.523 . S
H649 C624 0.950 . S
H650 C626 0.950 . S
H651 C627 0.949 . S
H652 C629 0.950 . S
H653 C631 0.950 . S
C654 C655 1.349 . S
C654 C656 1.327 . S
C654 H679 0.950 . S
C655 C654 1.349 . S
C655 C671 1.349 . S
C656 C654 1.327 . S
C656 C675 1.429 . S
C656 H680 0.950 . S
C657 C674 1.574 . S
C657 C676 1.368 . S
C657 H681 0.949 . S
H658 C662 0.949 . S
C659 C660 1.349 . S
C659 C661 1.327 . S
C659 H682 0.950 . S
C660 C659 1.349 . S
C660 C672 1.349 . S
C661 C659 1.327 . S
C661 C677 1.429 . S
C661 H683 0.950 . S
C662 H658 0.949 . S
C662 C670 1.574 . S
C662 C678 1.368 . S
H663 C671 0.950 . S
H664 C669 0.950 . S
H665 C670 0.949 . S
H666 C672 0.950 . S
H667 C673 0.950 . S
H668 C674 0.949 . S
C669 H664 0.950 . S
C669 C671 1.327 . S
C669 C675 1.429 . S
C670 C662 1.574 . S
C670 H665 0.949 . S
C670 C676 1.368 . S
C671 C655 1.349 . S
C671 H663 0.950 . S
C671 C669 1.327 . S
C672 C660 1.349 . S
C672 H666 0.950 . S
C672 C673 1.327 . S
C673 H667 0.950 . S
C673 C672 1.327 . S
C673 C677 1.429 . S
C674 C657 1.574 . S
C674 H668 0.949 . S
C674 C678 1.368 . S
C675 C656 1.429 . S
C675 C669 1.429 . S
C675 C676 1.523 . S
C676 C657 1.368 . S
C676 C670 1.368 . S
C676 C675 1.523 . S
C677 C661 1.429 . S
C677 C673 1.429 . S
C677 C678 1.523 . S
C678 C662 1.368 . S
C678 C674 1.368 . S
C678 C677 1.523 . S
H679 C654 0.950 . S
H680 C656 0.950 . S
H681 C657 0.949 . S
H682 C659 0.950 . S
H683 C661 0.950 . S
C684 C685 1.349 . S
C684 C686 1.327 . S
C684 H709 0.950 . S
C685 C684 1.349 . S
C685 C701 1.349 . S
C686 C684 1.327 . S
C686 C705 1.429 . S
C686 H710 0.950 . S
C687 C704 1.574 . S
C687 C706 1.368 . S
C687 H711 0.949 . S
H688 C692 0.949 . S
C689 C690 1.349 . S
C689 C691 1.327 . S
C689 H712 0.950 . S
C690 C689 1.349 . S
C690 C702 1.349 . S
C691 C689 1.327 . S
C691 C707 1.429 . S
C691 H713 0.950 . S
C692 H688 0.949 . S
C692 C700 1.574 . S
C692 C708 1.368 . S
H693 C701 0.950 . S
H694 C699 0.950 . S
H695 C700 0.949 . S
H696 C702 0.950 . S
H697 C703 0.950 . S
H698 C704 0.949 . S
C699 H694 0.950 . S
C699 C701 1.327 . S
C699 C705 1.429 . S
C700 C692 1.574 . S
C700 H695 0.949 . S
C700 C706 1.368 . S
C701 C685 1.349 . S
C701 H693 0.950 . S
C701 C699 1.327 . S
C702 C690 1.349 . S
C702 H696 0.950 . S
C702 C703 1.327 . S
C703 H697 0.950 . S
C703 C702 1.327 . S
C703 C707 1.429 . S
C704 C687 1.574 . S
C704 H698 0.949 . S
C704 C708 1.368 . S
C705 C686 1.429 . S
C705 C699 1.429 . S
C705 C706 1.523 . S
C706 C687 1.368 . S
C706 C700 1.368 . S
C706 C705 1.523 . S
C707 C691 1.429 . S
C707 C703 1.429 . S
C707 C708 1.523 . S
C708 C692 1.368 . S
C708 C704 1.368 . S
C708 C707 1.523 . S
H709 C684 0.950 . S
H710 C686 0.950 . S
H711 C687 0.949 . S
H712 C689 0.950 . S
H713 C691 0.950 . S
C714 C715 1.349 . S
C714 C716 1.327 . S
C714 H739 0.950 . S
C715 C714 1.349 . S
C715 C731 1.349 . S
C716 C714 1.327 . S
C716 C735 1.429 . S
C716 H740 0.950 . S
C717 C734 1.574 . S
C717 C736 1.368 . S
C717 H741 0.949 . S
H718 C722 0.949 . S
C719 C720 1.349 . S
C719 C721 1.327 . S
C719 H742 0.950 . S
C720 C719 1.349 . S
C720 C732 1.349 . S
C721 C719 1.327 . S
C721 C737 1.429 . S
C721 H743 0.950 . S
C722 H718 0.949 . S
C722 C730 1.574 . S
C722 C738 1.368 . S
H723 C731 0.950 . S
H724 C729 0.950 . S
H725 C730 0.949 . S
H726 C732 0.950 . S
H727 C733 0.950 . S
H728 C734 0.949 . S
C729 H724 0.950 . S
C729 C731 1.327 . S
C729 C735 1.429 . S
C730 C722 1.574 . S
C730 H725 0.949 . S
C730 C736 1.368 . S
C731 C715 1.349 . S
C731 H723 0.950 . S
C731 C729 1.327 . S
C732 C720 1.349 . S
C732 H726 0.950 . S
C732 C733 1.327 . S
C733 H727 0.950 . S
C733 C732 1.327 . S
C733 C737 1.429 . S
C734 C717 1.574 . S
C734 H728 0.949 . S
C734 C738 1.368 . S
C735 C716 1.429 . S
C735 C729 1.429 . S
C735 C736 1.523 . S
C736 C717 1.368 . S
C736 C730 1.368 . S
C736 C735 1.523 . S
C737 C721 1.429 . S
C737 C733 1.429 . S
C737 C738 1.523 . S
C738 C722 1.368 . S
C738 C734 1.368 . S
C738 C737 1.523 . S
H739 C714 0.950 . S
H740 C716 0.950 . S
H741 C717 0.949 . S
H742 C719 0.950 . S
H743 C721 0.950 . S
C744 C745 1.349 . S
C744 C746 1.327 . S
C744 H769 0.950 . S
C745 C744 1.349 . S
C745 C761 1.349 . S
C746 C744 1.327 . S
C746 C765 1.429 . S
C746 H770 0.950 . S
C747 C764 1.574 . S
C747 C766 1.368 . S
C747 H771 0.949 . S
H748 C752 0.949 . S
C749 C750 1.349 . S
C749 C751 1.327 . S
C749 H772 0.950 . S
C750 C749 1.349 . S
C750 C762 1.349 . S
C751 C749 1.327 . S
C751 C767 1.429 . S
C751 H773 0.950 . S
C752 H748 0.949 . S
C752 C760 1.574 . S
C752 C768 1.368 . S
H753 C761 0.950 . S
H754 C759 0.950 . S
H755 C760 0.949 . S
H756 C762 0.950 . S
H757 C763 0.950 . S
H758 C764 0.949 . S
C759 H754 0.950 . S
C759 C761 1.327 . S
C759 C765 1.429 . S
C760 C752 1.574 . S
C760 H755 0.949 . S
C760 C766 1.368 . S
C761 C745 1.349 . S
C761 H753 0.950 . S
C761 C759 1.327 . S
C762 C750 1.349 . S
C762 H756 0.950 . S
C762 C763 1.327 . S
C763 H757 0.950 . S
C763 C762 1.327 . S
C763 C767 1.429 . S
C764 C747 1.574 . S
C764 H758 0.949 . S
C764 C768 1.368 . S
C765 C746 1.429 . S
C765 C759 1.429 . S
C765 C766 1.523 . S
C766 C747 1.368 . S
C766 C760 1.368 . S
C766 C765 1.523 . S
C767 C751 1.429 . S
C767 C763 1.429 . S
C767 C768 1.523 . S
C768 C752 1.368 . S
C768 C764 1.368 . S
C768 C767 1.523 . S
H769 C744 0.950 . S
H770 C746 0.950 . S
H771 C747 0.949 . S
H772 C749 0.950 . S
H773 C751 0.950 . S
C774 C775 1.349 . S
C774 C776 1.327 . S
C774 H799 0.950 . S
C775 C774 1.349 . S
C775 C791 1.349 . S
C776 C774 1.327 . S
C776 C795 1.429 . S
C776 H800 0.950 . S
C777 C794 1.574 . S
C777 C796 1.368 . S
C777 H801 0.949 . S
H778 C782 0.949 . S
C779 C780 1.349 . S
C779 C781 1.327 . S
C779 H802 0.950 . S
C780 C779 1.349 . S
C780 C792 1.349 . S
C781 C779 1.327 . S
C781 C797 1.429 . S
C781 H803 0.950 . S
C782 H778 0.949 . S
C782 C790 1.574 . S
C782 C798 1.368 . S
H783 C791 0.950 . S
H784 C789 0.950 . S
H785 C790 0.949 . S
H786 C792 0.950 . S
H787 C793 0.950 . S
H788 C794 0.949 . S
C789 H784 0.950 . S
C789 C791 1.327 . S
C789 C795 1.429 . S
C790 C782 1.574 . S
C790 H785 0.949 . S
C790 C796 1.368 . S
C791 C775 1.349 . S
C791 H783 0.950 . S
C791 C789 1.327 . S
C792 C780 1.349 . S
C792 H786 0.950 . S
C792 C793 1.327 . S
C793 H787 0.950 . S
C793 C792 1.327 . S
C793 C797 1.429 . S
C794 C777 1.574 . S
C794 H788 0.949 . S
C794 C798 1.368 . S
C795 C776 1.429 . S
C795 C789 1.429 . S
C795 C796 1.523 . S
C796 C777 1.368 . S
C796 C790 1.368 . S
C796 C795 1.523 . S
C797 C781 1.429 . S
C797 C793 1.429 . S
C797 C798 1.523 . S
C798 C782 1.368 . S
C798 C794 1.368 . S
C798 C797 1.523 . S
H799 C774 0.950 . S
H800 C776 0.950 . S
H801 C777 0.949 . S
H802 C779 0.950 . S
H803 C781 0.950 . S
C804 C805 1.349 . S
C804 C806 1.327 . S
C804 H829 0.950 . S
C805 C804 1.349 . S
C805 C821 1.349 . S
C806 C804 1.327 . S
C806 C825 1.429 . S
C806 H830 0.950 . S
C807 C824 1.574 . S
C807 C826 1.368 . S
C807 H831 0.949 . S
H808 C812 0.949 . S
C809 C810 1.349 . S
C809 C811 1.327 . S
C809 H832 0.950 . S
C810 C809 1.349 . S
C810 C822 1.349 . S
C811 C809 1.327 . S
C811 C827 1.429 . S
C811 H833 0.950 . S
C812 H808 0.949 . S
C812 C820 1.574 . S
C812 C828 1.368 . S
H813 C821 0.950 . S
H814 C819 0.950 . S
H815 C820 0.949 . S
H816 C822 0.950 . S
H817 C823 0.950 . S
H818 C824 0.949 . S
C819 H814 0.950 . S
C819 C821 1.327 . S
C819 C825 1.429 . S
C820 C812 1.574 . S
C820 H815 0.949 . S
C820 C826 1.368 . S
C821 C805 1.349 . S
C821 H813 0.950 . S
C821 C819 1.327 . S
C822 C810 1.349 . S
C822 H816 0.950 . S
C822 C823 1.327 . S
C823 H817 0.950 . S
C823 C822 1.327 . S
C823 C827 1.429 . S
C824 C807 1.574 . S
C824 H818 0.949 . S
C824 C828 1.368 . S
C825 C806 1.429 . S
C825 C819 1.429 . S
C825 C826 1.523 . S
C826 C807 1.368 . S
C826 C820 1.368 . S
C826 C825 1.523 . S
C827 C811 1.429 . S
C827 C823 1.429 . S
C827 C828 1.523 . S
C828 C812 1.368 . S
C828 C824 1.368 . S
C828 C827 1.523 . S
H829 C804 0.950 . S
H830 C806 0.950 . S
H831 C807 0.949 . S
H832 C809 0.950 . S
H833 C811 0.950 . S
C834 C835 1.349 . S
C834 C836 1.327 . S
C834 H859 0.950 . S
C835 C834 1.349 . S
C835 C851 1.349 . S
C836 C834 1.327 . S
C836 C855 1.429 . S
C836 H860 0.950 . S
C837 C854 1.574 . S
C837 C856 1.368 . S
C837 H861 0.949 . S
H838 C842 0.949 . S
C839 C840 1.349 . S
C839 C841 1.327 . S
C839 H862 0.950 . S
C840 C839 1.349 . S
C840 C852 1.349 . S
C841 C839 1.327 . S
C841 C857 1.429 . S
C841 H863 0.950 . S
C842 H838 0.949 . S
C842 C850 1.574 . S
C842 C858 1.368 . S
H843 C851 0.950 . S
H844 C849 0.950 . S
H845 C850 0.949 . S
H846 C852 0.950 . S
H847 C853 0.950 . S
H848 C854 0.949 . S
C849 H844 0.950 . S
C849 C851 1.327 . S
C849 C855 1.429 . S
C850 C842 1.574 . S
C850 H845 0.949 . S
C850 C856 1.368 . S
C851 C835 1.349 . S
C851 H843 0.950 . S
C851 C849 1.327 . S
C852 C840 1.349 . S
C852 H846 0.950 . S
C852 C853 1.327 . S
C853 H847 0.950 . S
C853 C852 1.327 . S
C853 C857 1.429 . S
C854 C837 1.574 . S
C854 H848 0.949 . S
C854 C858 1.368 . S
C855 C836 1.429 . S
C855 C849 1.429 . S
C855 C856 1.523 . S
C856 C837 1.368 . S
C856 C850 1.368 . S
C856 C855 1.523 . S
C857 C841 1.429 . S
C857 C853 1.429 . S
C857 C858 1.523 . S
C858 C842 1.368 . S
C858 C854 1.368 . S
C858 C857 1.523 . S
H859 C834 0.950 . S
H860 C836 0.950 . S
H861 C837 0.949 . S
H862 C839 0.950 . S
H863 C841 0.950 . S
C864 C865 1.349 . S
C864 C866 1.327 . S
C864 H889 0.950 . S
C865 C864 1.349 . S
C865 C881 1.349 . S
C866 C864 1.327 . S
C866 C885 1.429 . S
C866 H890 0.950 . S
C867 C884 1.574 . S
C867 C886 1.368 . S
C867 H891 0.949 . S
H868 C872 0.949 . S
C869 C870 1.349 . S
C869 C871 1.327 . S
C869 H892 0.950 . S
C870 C869 1.349 . S
C870 C882 1.349 . S
C871 C869 1.327 . S
C871 C887 1.429 . S
C871 H893 0.950 . S
C872 H868 0.949 . S
C872 C880 1.574 . S
C872 C888 1.368 . S
H873 C881 0.950 . S
H874 C879 0.950 . S
H875 C880 0.949 . S
H876 C882 0.950 1_556 S
H877 C883 0.950 . S
H878 C884 0.949 . S
C879 H874 0.950 . S
C879 C881 1.327 . S
C879 C885 1.429 . S
C880 C872 1.574 . S
C880 H875 0.949 . S
C880 C886 1.368 . S
C881 C865 1.349 . S
C881 H873 0.950 . S
C881 C879 1.327 . S
C882 C870 1.349 . S
C882 H876 0.950 1_554 S
C882 C883 1.327 . S
C883 H877 0.950 . S
C883 C882 1.327 . S
C883 C887 1.429 . S
C884 C867 1.574 . S
C884 H878 0.949 . S
C884 C888 1.368 . S
C885 C866 1.429 . S
C885 C879 1.429 . S
C885 C886 1.523 . S
C886 C867 1.368 . S
C886 C880 1.368 . S
C886 C885 1.523 . S
C887 C871 1.429 . S
C887 C883 1.429 . S
C887 C888 1.523 . S
C888 C872 1.368 . S
C888 C884 1.368 . S
C888 C887 1.523 . S
H889 C864 0.950 . S
H890 C866 0.950 . S
H891 C867 0.949 . S
H892 C869 0.950 . S
H893 C871 0.950 . S
C894 C895 1.349 . S
C894 C896 1.327 . S
C894 H919 0.950 . S
C895 C894 1.349 . S
C895 C911 1.349 . S
C896 C894 1.327 . S
C896 C915 1.429 . S
C896 H920 0.950 . S
C897 C914 1.574 . S
C897 C916 1.368 . S
C897 H921 0.949 . S
H898 C902 0.949 . S
C899 C900 1.349 . S
C899 C901 1.327 . S
C899 H922 0.950 . S
C900 C899 1.349 . S
C900 C912 1.349 . S
C901 C899 1.327 . S
C901 C917 1.429 . S
C901 H923 0.950 . S
C902 H898 0.949 . S
C902 C910 1.574 . S
C902 C918 1.368 . S
H903 C911 0.950 . S
H904 C909 0.950 . S
H905 C910 0.949 . S
H906 C912 0.950 . S
H907 C913 0.950 . S
H908 C914 0.949 . S
C909 H904 0.950 . S
C909 C911 1.327 . S
C909 C915 1.429 . S
C910 C902 1.574 . S
C910 H905 0.949 . S
C910 C916 1.368 . S
C911 C895 1.349 . S
C911 H903 0.950 . S
C911 C909 1.327 . S
C912 C900 1.349 . S
C912 H906 0.950 . S
C912 C913 1.327 . S
C913 H907 0.950 . S
C913 C912 1.327 . S
C913 C917 1.429 . S
C914 C897 1.574 . S
C914 H908 0.949 . S
C914 C918 1.368 . S
C915 C896 1.429 . S
C915 C909 1.429 . S
C915 C916 1.523 . S
C916 C897 1.368 . S
C916 C910 1.368 . S
C916 C915 1.523 . S
C917 C901 1.429 . S
C917 C913 1.429 . S
C917 C918 1.523 . S
C918 C902 1.368 . S
C918 C914 1.368 . S
C918 C917 1.523 . S
H919 C894 0.950 . S
H920 C896 0.950 . S
H921 C897 0.949 . S
H922 C899 0.950 . S
H923 C901 0.950 . S
C924 C925 1.349 . S
C924 C926 1.327 . S
C924 H949 0.950 . S
C925 C924 1.349 . S
C925 C941 1.349 . S
C926 C924 1.327 . S
C926 C945 1.429 . S
C926 H950 0.950 . S
C927 C944 1.574 . S
C927 C946 1.368 . S
C927 H951 0.949 . S
H928 C932 0.949 . S
C929 C930 1.349 . S
C929 C931 1.327 . S
C929 H952 0.950 . S
C930 C929 1.349 . S
C930 C942 1.349 . S
C931 C929 1.327 . S
C931 C947 1.429 . S
C931 H953 0.950 . S
C932 H928 0.949 . S
C932 C940 1.574 . S
C932 C948 1.368 . S
H933 C941 0.950 . S
H934 C939 0.950 . S
H935 C940 0.949 . S
H936 C942 0.950 . S
H937 C943 0.950 . S
H938 C944 0.949 . S
C939 H934 0.950 . S
C939 C941 1.327 . S
C939 C945 1.429 . S
C940 C932 1.574 . S
C940 H935 0.949 . S
C940 C946 1.368 . S
C941 C925 1.349 . S
C941 H933 0.950 . S
C941 C939 1.327 . S
C942 C930 1.349 . S
C942 H936 0.950 . S
C942 C943 1.327 . S
C943 H937 0.950 . S
C943 C942 1.327 . S
C943 C947 1.429 . S
C944 C927 1.574 . S
C944 H938 0.949 . S
C944 C948 1.368 . S
C945 C926 1.429 . S
C945 C939 1.429 . S
C945 C946 1.523 . S
C946 C927 1.368 . S
C946 C940 1.368 . S
C946 C945 1.523 . S
C947 C931 1.429 . S
C947 C943 1.429 . S
C947 C948 1.523 . S
C948 C932 1.368 . S
C948 C944 1.368 . S
C948 C947 1.523 . S
H949 C924 0.950 . S
H950 C926 0.950 . S
H951 C927 0.949 . S
H952 C929 0.950 . S
H953 C931 0.950 . S
C954 C955 1.349 . S
C954 C956 1.327 . S
C954 H979 0.950 . S
C955 C954 1.349 . S
C955 C971 1.349 . S
C956 C954 1.327 . S
C956 C975 1.429 . S
C956 H980 0.950 . S
C957 C974 1.574 . S
C957 C976 1.368 . S
C957 H981 0.949 . S
H958 C962 0.949 . S
C959 C960 1.349 . S
C959 C961 1.327 . S
C959 H982 0.950 . S
C960 C959 1.349 . S
C960 C972 1.349 . S
C961 C959 1.327 . S
C961 C977 1.429 . S
C961 H983 0.950 . S
C962 H958 0.949 . S
C962 C970 1.574 . S
C962 C978 1.368 . S
H963 C971 0.950 . S
H964 C969 0.950 . S
H965 C970 0.949 . S
H966 C972 0.950 . S
H967 C973 0.950 . S
H968 C974 0.949 . S
C969 H964 0.950 . S
C969 C971 1.327 . S
C969 C975 1.429 . S
C970 C962 1.574 . S
C970 H965 0.949 . S
C970 C976 1.368 . S
C971 C955 1.349 . S
C971 H963 0.950 . S
C971 C969 1.327 . S
C972 C960 1.349 . S
C972 H966 0.950 . S
C972 C973 1.327 . S
C973 H967 0.950 . S
C973 C972 1.327 . S
C973 C977 1.429 . S
C974 C957 1.574 . S
C974 H968 0.949 . S
C974 C978 1.368 . S
C975 C956 1.429 . S
C975 C969 1.429 . S
C975 C976 1.523 . S
C976 C957 1.368 . S
C976 C970 1.368 . S
C976 C975 1.523 . S
C977 C961 1.429 . S
C977 C973 1.429 . S
C977 C978 1.523 . S
C978 C962 1.368 . S
C978 C974 1.368 . S
C978 C977 1.523 . S
H979 C954 0.950 . S
H980 C956 0.950 . S
H981 C957 0.949 . S
H982 C959 0.950 . S
H983 C961 0.950 . S
C984 C985 1.349 . S
C984 C986 1.327 . S
C984 H1009 0.950 . S
C985 C984 1.349 . S
C985 C1001 1.349 . S
C986 C984 1.327 . S
C986 C1005 1.429 . S
C986 H1010 0.950 . S
C987 C1004 1.574 . S
C987 C1006 1.368 . S
C987 H1011 0.949 . S
H988 C992 0.949 . S
C989 C990 1.349 . S
C989 C991 1.327 . S
C989 H1012 0.950 . S
C990 C989 1.349 . S
C990 C1002 1.349 . S
C991 C989 1.327 . S
C991 C1007 1.429 . S
C991 H1013 0.950 . S
C992 H988 0.949 . S
C992 C1000 1.574 . S
C992 C1008 1.368 . S
H993 C1001 0.950 . S
H994 C999 0.950 . S
H995 C1000 0.949 . S
H996 C1002 0.950 . S
H997 C1003 0.950 . S
H998 C1004 0.949 . S
C999 H994 0.950 . S
C999 C1001 1.327 . S
C999 C1005 1.429 . S
C1000 C992 1.574 . S
C1000 H995 0.949 . S
C1000 C1006 1.368 . S
C1001 C985 1.349 . S
C1001 H993 0.950 . S
C1001 C999 1.327 . S
C1002 C990 1.349 . S
C1002 H996 0.950 . S
C1002 C1003 1.327 . S
C1003 H997 0.950 . S
C1003 C1002 1.327 . S
C1003 C1007 1.429 . S
C1004 C987 1.574 . S
C1004 H998 0.949 . S
C1004 C1008 1.368 . S
C1005 C986 1.429 . S
C1005 C999 1.429 . S
C1005 C1006 1.523 . S
C1006 C987 1.368 . S
C1006 C1000 1.368 . S
C1006 C1005 1.523 . S
C1007 C991 1.429 . S
C1007 C1003 1.429 . S
C1007 C1008 1.523 . S
C1008 C992 1.368 . S
C1008 C1004 1.368 . S
C1008 C1007 1.523 . S
H1009 C984 0.950 . S
H1010 C986 0.950 . S
H1011 C987 0.949 . S
H1012 C989 0.950 . S
H1013 C991 0.950 . S
C1014 C1015 1.349 . S
C1014 C1016 1.327 . S
C1014 H1039 0.950 . S
C1015 C1014 1.349 . S
C1015 C1031 1.349 . S
C1016 C1014 1.327 . S
C1016 C1035 1.429 . S
C1016 H1040 0.950 . S
C1017 C1034 1.574 . S
C1017 C1036 1.368 . S
C1017 H1041 0.949 . S
H1018 C1022 0.949 . S
C1019 C1020 1.349 . S
C1019 C1021 1.327 . S
C1019 H1042 0.950 . S
C1020 C1019 1.349 . S
C1020 C1032 1.349 . S
C1021 C1019 1.327 . S
C1021 C1037 1.429 . S
C1021 H1043 0.950 . S
C1022 H1018 0.949 . S
C1022 C1030 1.574 . S
C1022 C1038 1.368 . S
H1023 C1031 0.950 . S
H1024 C1029 0.950 . S
H1025 C1030 0.949 . S
H1026 C1032 0.950 . S
H1027 C1033 0.950 . S
H1028 C1034 0.949 . S
C1029 H1024 0.950 . S
C1029 C1031 1.327 . S
C1029 C1035 1.429 . S
C1030 C1022 1.574 . S
C1030 H1025 0.949 . S
C1030 C1036 1.368 . S
C1031 C1015 1.349 . S
C1031 H1023 0.950 . S
C1031 C1029 1.327 . S
C1032 C1020 1.349 . S
C1032 H1026 0.950 . S
C1032 C1033 1.327 . S
C1033 H1027 0.950 . S
C1033 C1032 1.327 . S
C1033 C1037 1.429 . S
C1034 C1017 1.574 . S
C1034 H1028 0.949 . S
C1034 C1038 1.368 . S
C1035 C1016 1.429 . S
C1035 C1029 1.429 . S
C1035 C1036 1.523 . S
C1036 C1017 1.368 . S
C1036 C1030 1.368 . S
C1036 C1035 1.523 . S
C1037 C1021 1.429 . S
C1037 C1033 1.429 . S
C1037 C1038 1.523 . S
C1038 C1022 1.368 . S
C1038 C1034 1.368 . S
C1038 C1037 1.523 . S
H1039 C1014 0.950 . S
H1040 C1016 0.950 . S
H1041 C1017 0.949 . S
H1042 C1019 0.950 . S
H1043 C1021 0.950 . S
C1044 C1045 1.349 . S
C1044 C1046 1.327 . S
C1044 H1069 0.950 . S
C1045 C1044 1.349 . S
C1045 C1061 1.349 . S
C1046 C1044 1.327 . S
C1046 C1065 1.429 . S
C1046 H1070 0.950 . S
C1047 C1064 1.574 . S
C1047 C1066 1.368 . S
C1047 H1071 0.949 . S
H1048 C1052 0.949 . S
C1049 C1050 1.349 . S
C1049 C1051 1.327 . S
C1049 H1072 0.950 . S
C1050 C1049 1.349 . S
C1050 C1062 1.349 . S
C1051 C1049 1.327 . S
C1051 C1067 1.429 . S
C1051 H1073 0.950 . S
C1052 H1048 0.949 . S
C1052 C1060 1.574 . S
C1052 C1068 1.368 . S
H1053 C1061 0.950 . S
H1054 C1059 0.950 . S
H1055 C1060 0.949 . S
H1056 C1062 0.950 . S
H1057 C1063 0.950 . S
H1058 C1064 0.949 . S
C1059 H1054 0.950 . S
C1059 C1061 1.327 . S
C1059 C1065 1.429 . S
C1060 C1052 1.574 . S
C1060 H1055 0.949 . S
C1060 C1066 1.368 . S
C1061 C1045 1.349 . S
C1061 H1053 0.950 . S
C1061 C1059 1.327 . S
C1062 C1050 1.349 . S
C1062 H1056 0.950 . S
C1062 C1063 1.327 . S
C1063 H1057 0.950 . S
C1063 C1062 1.327 . S
C1063 C1067 1.429 . S
C1064 C1047 1.574 . S
C1064 H1058 0.949 . S
C1064 C1068 1.368 . S
C1065 C1046 1.429 . S
C1065 C1059 1.429 . S
C1065 C1066 1.523 . S
C1066 C1047 1.368 . S
C1066 C1060 1.368 . S
C1066 C1065 1.523 . S
C1067 C1051 1.429 . S
C1067 C1063 1.429 . S
C1067 C1068 1.523 . S
C1068 C1052 1.368 . S
C1068 C1064 1.368 . S
C1068 C1067 1.523 . S
H1069 C1044 0.950 . S
H1070 C1046 0.950 . S
H1071 C1047 0.949 . S
H1072 C1049 0.950 . S
H1073 C1051 0.950 . S
C1074 C1075 1.349 . S
C1074 C1076 1.327 . S
C1074 H1099 0.950 . S
C1075 C1074 1.349 . S
C1075 C1091 1.349 . S
C1076 C1074 1.327 . S
C1076 C1095 1.429 . S
C1076 H1100 0.950 . S
C1077 C1094 1.574 . S
C1077 C1096 1.368 . S
C1077 H1101 0.949 . S
H1078 C1082 0.949 . S
C1079 C1080 1.349 . S
C1079 C1081 1.327 . S
C1079 H1102 0.950 . S
C1080 C1079 1.349 . S
C1080 C1092 1.349 . S
C1081 C1079 1.327 . S
C1081 C1097 1.429 . S
C1081 H1103 0.950 . S
C1082 H1078 0.949 . S
C1082 C1090 1.574 . S
C1082 C1098 1.368 . S
H1083 C1091 0.950 . S
H1084 C1089 0.950 . S
H1085 C1090 0.949 . S
H1086 C1092 0.950 . S
H1087 C1093 0.950 . S
H1088 C1094 0.949 . S
C1089 H1084 0.950 . S
C1089 C1091 1.327 . S
C1089 C1095 1.429 . S
C1090 C1082 1.574 . S
C1090 H1085 0.949 . S
C1090 C1096 1.368 . S
C1091 C1075 1.349 . S
C1091 H1083 0.950 . S
C1091 C1089 1.327 . S
C1092 C1080 1.349 . S
C1092 H1086 0.950 . S
C1092 C1093 1.327 . S
C1093 H1087 0.950 . S
C1093 C1092 1.327 . S
C1093 C1097 1.429 . S
C1094 C1077 1.574 . S
C1094 H1088 0.949 . S
C1094 C1098 1.368 . S
C1095 C1076 1.429 . S
C1095 C1089 1.429 . S
C1095 C1096 1.523 . S
C1096 C1077 1.368 . S
C1096 C1090 1.368 . S
C1096 C1095 1.523 . S
C1097 C1081 1.429 . S
C1097 C1093 1.429 . S
C1097 C1098 1.523 . S
C1098 C1082 1.368 . S
C1098 C1094 1.368 . S
C1098 C1097 1.523 . S
H1099 C1074 0.950 . S
H1100 C1076 0.950 . S
H1101 C1077 0.949 . S
H1102 C1079 0.950 . S
H1103 C1081 0.950 . S
C1104 C1105 1.349 . S
C1104 C1106 1.327 . S
C1104 H1129 0.950 . S
C1105 C1104 1.349 . S
C1105 C1121 1.349 . S
C1106 C1104 1.327 . S
C1106 C1125 1.429 . S
C1106 H1130 0.950 . S
C1107 C1124 1.574 . S
C1107 C1126 1.368 . S
C1107 H1131 0.949 . S
H1108 C1112 0.949 . S
C1109 C1110 1.349 . S
C1109 C1111 1.327 . S
C1109 H1132 0.950 . S
C1110 C1109 1.349 . S
C1110 C1122 1.349 . S
C1111 C1109 1.327 . S
C1111 C1127 1.429 . S
C1111 H1133 0.950 . S
C1112 H1108 0.949 . S
C1112 C1120 1.574 . S
C1112 C1128 1.368 . S
H1113 C1121 0.950 . S
H1114 C1119 0.950 . S
H1115 C1120 0.949 . S
H1116 C1122 0.950 . S
H1117 C1123 0.950 . S
H1118 C1124 0.949 . S
C1119 H1114 0.950 . S
C1119 C1121 1.327 . S
C1119 C1125 1.429 . S
C1120 C1112 1.574 . S
C1120 H1115 0.949 . S
C1120 C1126 1.368 . S
C1121 C1105 1.349 . S
C1121 H1113 0.950 . S
C1121 C1119 1.327 . S
C1122 C1110 1.349 . S
C1122 H1116 0.950 . S
C1122 C1123 1.327 . S
C1123 H1117 0.950 . S
C1123 C1122 1.327 . S
C1123 C1127 1.429 . S
C1124 C1107 1.574 . S
C1124 H1118 0.949 . S
C1124 C1128 1.368 . S
C1125 C1106 1.429 . S
C1125 C1119 1.429 . S
C1125 C1126 1.523 . S
C1126 C1107 1.368 . S
C1126 C1120 1.368 . S
C1126 C1125 1.523 . S
C1127 C1111 1.429 . S
C1127 C1123 1.429 . S
C1127 C1128 1.523 . S
C1128 C1112 1.368 . S
C1128 C1124 1.368 . S
C1128 C1127 1.523 . S
H1129 C1104 0.950 . S
H1130 C1106 0.950 . S
H1131 C1107 0.949 . S
H1132 C1109 0.950 . S
H1133 C1111 0.950 . S
C1134 C1135 1.349 . S
C1134 C1136 1.327 . S
C1134 H1159 0.950 . S
C1135 C1134 1.349 . S
C1135 C1151 1.349 . S
C1136 C1134 1.327 . S
C1136 C1155 1.429 . S
C1136 H1160 0.950 . S
C1137 C1154 1.574 . S
C1137 C1156 1.368 . S
C1137 H1161 0.949 . S
H1138 C1142 0.949 . S
C1139 C1140 1.349 . S
C1139 C1141 1.327 . S
C1139 H1162 0.950 . S
C1140 C1139 1.349 . S
C1140 C1152 1.349 . S
C1141 C1139 1.327 . S
C1141 C1157 1.429 . S
C1141 H1163 0.950 . S
C1142 H1138 0.949 . S
C1142 C1150 1.574 . S
C1142 C1158 1.368 . S
H1143 C1151 0.950 . S
H1144 C1149 0.950 . S
H1145 C1150 0.949 . S
H1146 C1152 0.950 . S
H1147 C1153 0.950 . S
H1148 C1154 0.949 . S
C1149 H1144 0.950 . S
C1149 C1151 1.327 . S
C1149 C1155 1.429 . S
C1150 C1142 1.574 . S
C1150 H1145 0.949 . S
C1150 C1156 1.368 . S
C1151 C1135 1.349 . S
C1151 H1143 0.950 . S
C1151 C1149 1.327 . S
C1152 C1140 1.349 . S
C1152 H1146 0.950 . S
C1152 C1153 1.327 . S
C1153 H1147 0.950 . S
C1153 C1152 1.327 . S
C1153 C1157 1.429 . S
C1154 C1137 1.574 . S
C1154 H1148 0.949 . S
C1154 C1158 1.368 . S
C1155 C1136 1.429 . S
C1155 C1149 1.429 . S
C1155 C1156 1.523 . S
C1156 C1137 1.368 . S
C1156 C1150 1.368 . S
C1156 C1155 1.523 . S
C1157 C1141 1.429 . S
C1157 C1153 1.429 . S
C1157 C1158 1.523 . S
C1158 C1142 1.368 . S
C1158 C1154 1.368 . S
C1158 C1157 1.523 . S
H1159 C1134 0.950 . S
H1160 C1136 0.950 . S
H1161 C1137 0.949 . S
H1162 C1139 0.950 . S
H1163 C1141 0.950 . S
C1164 C1165 1.349 . S
C1164 C1166 1.327 . S
C1164 H1189 0.950 . S
C1165 C1164 1.349 . S
C1165 C1181 1.349 . S
C1166 C1164 1.327 . S
C1166 C1185 1.429 . S
C1166 H1190 0.950 . S
C1167 C1184 1.574 . S
C1167 C1186 1.368 . S
C1167 H1191 0.949 . S
H1168 C1172 0.949 . S
C1169 C1170 1.349 . S
C1169 C1171 1.327 . S
C1169 H1192 0.950 . S
C1170 C1169 1.349 . S
C1170 C1182 1.349 . S
C1171 C1169 1.327 . S
C1171 C1187 1.429 . S
C1171 H1193 0.950 . S
C1172 H1168 0.949 . S
C1172 C1180 1.574 . S
C1172 C1188 1.368 . S
H1173 C1181 0.950 . S
H1174 C1179 0.950 . S
H1175 C1180 0.949 . S
H1176 C1182 0.950 . S
H1177 C1183 0.950 . S
H1178 C1184 0.949 . S
C1179 H1174 0.950 . S
C1179 C1181 1.327 . S
C1179 C1185 1.429 . S
C1180 C1172 1.574 . S
C1180 H1175 0.949 . S
C1180 C1186 1.368 . S
C1181 C1165 1.349 . S
C1181 H1173 0.950 . S
C1181 C1179 1.327 . S
C1182 C1170 1.349 . S
C1182 H1176 0.950 . S
C1182 C1183 1.327 . S
C1183 H1177 0.950 . S
C1183 C1182 1.327 . S
C1183 C1187 1.429 . S
C1184 C1167 1.574 . S
C1184 H1178 0.949 . S
C1184 C1188 1.368 . S
C1185 C1166 1.429 . S
C1185 C1179 1.429 . S
C1185 C1186 1.523 . S
C1186 C1167 1.368 . S
C1186 C1180 1.368 . S
C1186 C1185 1.523 . S
C1187 C1171 1.429 . S
C1187 C1183 1.429 . S
C1187 C1188 1.523 . S
C1188 C1172 1.368 . S
C1188 C1184 1.368 . S
C1188 C1187 1.523 . S
H1189 C1164 0.950 . S
H1190 C1166 0.950 . S
H1191 C1167 0.949 . S
H1192 C1169 0.950 . S
H1193 C1171 0.950 . S
C1194 C1195 1.349 . S
C1194 C1196 1.327 . S
C1194 H1219 0.950 . S
C1195 C1194 1.349 . S
C1195 C1211 1.349 . S
C1196 C1194 1.327 . S
C1196 C1215 1.429 . S
C1196 H1220 0.950 . S
C1197 C1214 1.574 . S
C1197 C1216 1.368 . S
C1197 H1221 0.949 . S
H1198 C1202 0.949 . S
C1199 C1200 1.349 . S
C1199 C1201 1.327 . S
C1199 H1222 0.950 . S
C1200 C1199 1.349 . S
C1200 C1212 1.349 . S
C1201 C1199 1.327 . S
C1201 C1217 1.429 . S
C1201 H1223 0.950 . S
C1202 H1198 0.949 . S
C1202 C1210 1.574 . S
C1202 C1218 1.368 . S
H1203 C1211 0.950 . S
H1204 C1209 0.950 . S
H1205 C1210 0.949 . S
H1206 C1212 0.950 . S
H1207 C1213 0.950 . S
H1208 C1214 0.949 . S
C1209 H1204 0.950 . S
C1209 C1211 1.327 . S
C1209 C1215 1.429 . S
C1210 C1202 1.574 . S
C1210 H1205 0.949 . S
C1210 C1216 1.368 . S
C1211 C1195 1.349 . S
C1211 H1203 0.950 . S
C1211 C1209 1.327 . S
C1212 C1200 1.349 . S
C1212 H1206 0.950 . S
C1212 C1213 1.327 . S
C1213 H1207 0.950 . S
C1213 C1212 1.327 . S
C1213 C1217 1.429 . S
C1214 C1197 1.574 . S
C1214 H1208 0.949 . S
C1214 C1218 1.368 . S
C1215 C1196 1.429 . S
C1215 C1209 1.429 . S
C1215 C1216 1.523 . S
C1216 C1197 1.368 . S
C1216 C1210 1.368 . S
C1216 C1215 1.523 . S
C1217 C1201 1.429 . S
C1217 C1213 1.429 . S
C1217 C1218 1.523 . S
C1218 C1202 1.368 . S
C1218 C1214 1.368 . S
C1218 C1217 1.523 . S
H1219 C1194 0.950 . S
H1220 C1196 0.950 . S
H1221 C1197 0.949 . S
H1222 C1199 0.950 . S
H1223 C1201 0.950 . S
C1224 C1225 1.349 . S
C1224 C1226 1.327 . S
C1224 H1249 0.950 . S
C1225 C1224 1.349 . S
C1225 C1241 1.349 . S
C1226 C1224 1.327 . S
C1226 C1245 1.429 . S
C1226 H1250 0.950 . S
C1227 C1244 1.574 . S
C1227 C1246 1.368 . S
C1227 H1251 0.949 . S
H1228 C1232 0.949 . S
C1229 C1230 1.349 . S
C1229 C1231 1.327 . S
C1229 H1252 0.950 . S
C1230 C1229 1.349 . S
C1230 C1242 1.349 . S
C1231 C1229 1.327 . S
C1231 C1247 1.429 . S
C1231 H1253 0.950 . S
C1232 H1228 0.949 . S
C1232 C1240 1.574 . S
C1232 C1248 1.368 . S
H1233 C1241 0.950 . S
H1234 C1239 0.950 . S
H1235 C1240 0.949 . S
H1236 C1242 0.950 . S
H1237 C1243 0.950 . S
H1238 C1244 0.949 . S
C1239 H1234 0.950 . S
C1239 C1241 1.327 . S
C1239 C1245 1.429 . S
C1240 C1232 1.574 . S
C1240 H1235 0.949 . S
C1240 C1246 1.368 . S
C1241 C1225 1.349 . S
C1241 H1233 0.950 . S
C1241 C1239 1.327 . S
C1242 C1230 1.349 . S
C1242 H1236 0.950 . S
C1242 C1243 1.327 . S
C1243 H1237 0.950 . S
C1243 C1242 1.327 . S
C1243 C1247 1.429 . S
C1244 C1227 1.574 . S
C1244 H1238 0.949 . S
C1244 C1248 1.368 . S
C1245 C1226 1.429 . S
C1245 C1239 1.429 . S
C1245 C1246 1.523 . S
C1246 C1227 1.368 . S
C1246 C1240 1.368 . S
C1246 C1245 1.523 . S
C1247 C1231 1.429 . S
C1247 C1243 1.429 . S
C1247 C1248 1.523 . S
C1248 C1232 1.368 . S
C1248 C1244 1.368 . S
C1248 C1247 1.523 . S
H1249 C1224 0.950 . S
H1250 C1226 0.950 . S
H1251 C1227 0.949 . S
H1252 C1229 0.950 . S
H1253 C1231 0.950 . S
C1254 C1255 1.349 . S
C1254 C1256 1.327 . S
C1254 H1279 0.950 . S
C1255 C1254 1.349 . S
C1255 C1271 1.349 . S
C1256 C1254 1.327 . S
C1256 C1275 1.429 . S
C1256 H1280 0.950 . S
C1257 C1274 1.574 . S
C1257 C1276 1.368 . S
C1257 H1281 0.949 . S
H1258 C1262 0.949 . S
C1259 C1260 1.349 . S
C1259 C1261 1.327 . S
C1259 H1282 0.950 . S
C1260 C1259 1.349 . S
C1260 C1272 1.349 . S
C1261 C1259 1.327 . S
C1261 C1277 1.429 . S
C1261 H1283 0.950 . S
C1262 H1258 0.949 . S
C1262 C1270 1.574 . S
C1262 C1278 1.368 . S
H1263 C1271 0.950 . S
H1264 C1269 0.950 . S
H1265 C1270 0.949 . S
H1266 C1272 0.950 . S
H1267 C1273 0.950 . S
H1268 C1274 0.949 . S
C1269 H1264 0.950 . S
C1269 C1271 1.327 . S
C1269 C1275 1.429 . S
C1270 C1262 1.574 . S
C1270 H1265 0.949 . S
C1270 C1276 1.368 . S
C1271 C1255 1.349 . S
C1271 H1263 0.950 . S
C1271 C1269 1.327 . S
C1272 C1260 1.349 . S
C1272 H1266 0.950 . S
C1272 C1273 1.327 . S
C1273 H1267 0.950 . S
C1273 C1272 1.327 . S
C1273 C1277 1.429 . S
C1274 C1257 1.574 . S
C1274 H1268 0.949 . S
C1274 C1278 1.368 . S
C1275 C1256 1.429 . S
C1275 C1269 1.429 . S
C1275 C1276 1.523 . S
C1276 C1257 1.368 . S
C1276 C1270 1.368 . S
C1276 C1275 1.523 . S
C1277 C1261 1.429 . S
C1277 C1273 1.429 . S
C1277 C1278 1.523 . S
C1278 C1262 1.368 . S
C1278 C1274 1.368 . S
C1278 C1277 1.523 . S
H1279 C1254 0.950 . S
H1280 C1256 0.950 . S
H1281 C1257 0.949 . S
H1282 C1259 0.950 . S
H1283 C1261 0.950 . S
C1284 C1285 1.349 . S
C1284 C1286 1.327 . S
C1284 H1309 0.950 . S
C1285 C1284 1.349 . S
C1285 C1301 1.349 . S
C1286 C1284 1.327 . S
C1286 C1305 1.429 . S
C1286 H1310 0.950 . S
C1287 C1304 1.574 . S
C1287 C1306 1.368 . S
C1287 H1311 0.949 . S
H1288 C1292 0.949 . S
C1289 C1290 1.349 . S
C1289 C1291 1.327 . S
C1289 H1312 0.950 . S
C1290 C1289 1.349 . S
C1290 C1302 1.349 . S
C1291 C1289 1.327 . S
C1291 C1307 1.429 . S
C1291 H1313 0.950 . S
C1292 H1288 0.949 . S
C1292 C1300 1.574 . S
C1292 C1308 1.368 . S
H1293 C1301 0.950 . S
H1294 C1299 0.950 . S
H1295 C1300 0.949 . S
H1296 C1302 0.950 . S
H1297 C1303 0.950 . S
H1298 C1304 0.949 . S
C1299 H1294 0.950 . S
C1299 C1301 1.327 . S
C1299 C1305 1.429 . S
C1300 C1292 1.574 . S
C1300 H1295 0.949 . S
C1300 C1306 1.368 . S
C1301 C1285 1.349 . S
C1301 H1293 0.950 . S
C1301 C1299 1.327 . S
C1302 C1290 1.349 . S
C1302 H1296 0.950 . S
C1302 C1303 1.327 . S
C1303 H1297 0.950 . S
C1303 C1302 1.327 . S
C1303 C1307 1.429 . S
C1304 C1287 1.574 . S
C1304 H1298 0.949 . S
C1304 C1308 1.368 . S
C1305 C1286 1.429 . S
C1305 C1299 1.429 . S
C1305 C1306 1.523 . S
C1306 C1287 1.368 . S
C1306 C1300 1.368 . S
C1306 C1305 1.523 . S
C1307 C1291 1.429 . S
C1307 C1303 1.429 . S
C1307 C1308 1.523 . S
C1308 C1292 1.368 . S
C1308 C1304 1.368 . S
C1308 C1307 1.523 . S
H1309 C1284 0.950 . S
H1310 C1286 0.950 . S
H1311 C1287 0.949 . S
H1312 C1289 0.950 . S
H1313 C1291 0.950 . S
C1314 C1315 1.349 . S
C1314 C1316 1.327 . S
C1314 H1339 0.950 . S
C1315 C1314 1.349 . S
C1315 C1331 1.349 . S
C1316 C1314 1.327 . S
C1316 C1335 1.429 . S
C1316 H1340 0.950 . S
C1317 C1334 1.574 . S
C1317 C1336 1.368 . S
C1317 H1341 0.949 . S
H1318 C1322 0.949 . S
C1319 C1320 1.349 . S
C1319 C1321 1.327 . S
C1319 H1342 0.950 . S
C1320 C1319 1.349 . S
C1320 C1332 1.349 . S
C1321 C1319 1.327 . S
C1321 C1337 1.429 . S
C1321 H1343 0.950 . S
C1322 H1318 0.949 . S
C1322 C1330 1.574 . S
C1322 C1338 1.368 . S
H1323 C1331 0.950 . S
H1324 C1329 0.950 . S
H1325 C1330 0.949 . S
H1326 C1332 0.950 . S
H1327 C1333 0.950 . S
H1328 C1334 0.949 . S
C1329 H1324 0.950 . S
C1329 C1331 1.327 . S
C1329 C1335 1.429 . S
C1330 C1322 1.574 . S
C1330 H1325 0.949 . S
C1330 C1336 1.368 . S
C1331 C1315 1.349 . S
C1331 H1323 0.950 . S
C1331 C1329 1.327 . S
C1332 C1320 1.349 . S
C1332 H1326 0.950 . S
C1332 C1333 1.327 . S
C1333 H1327 0.950 . S
C1333 C1332 1.327 . S
C1333 C1337 1.429 . S
C1334 C1317 1.574 . S
C1334 H1328 0.949 . S
C1334 C1338 1.368 . S
C1335 C1316 1.429 . S
C1335 C1329 1.429 . S
C1335 C1336 1.523 . S
C1336 C1317 1.368 . S
C1336 C1330 1.368 . S
C1336 C1335 1.523 . S
C1337 C1321 1.429 . S
C1337 C1333 1.429 . S
C1337 C1338 1.523 . S
C1338 C1322 1.368 . S
C1338 C1334 1.368 . S
C1338 C1337 1.523 . S
H1339 C1314 0.950 . S
H1340 C1316 0.950 . S
H1341 C1317 0.949 . S
H1342 C1319 0.950 . S
H1343 C1321 0.950 . S
C1344 C1345 1.349 . S
C1344 C1346 1.327 . S
C1344 H1369 0.950 . S
C1345 C1344 1.349 . S
C1345 C1361 1.349 . S
C1346 C1344 1.327 . S
C1346 C1365 1.429 . S
C1346 H1370 0.950 . S
C1347 C1364 1.574 . S
C1347 C1366 1.368 . S
C1347 H1371 0.949 . S
H1348 C1352 0.949 . S
C1349 C1350 1.349 . S
C1349 C1351 1.327 . S
C1349 H1372 0.950 . S
C1350 C1349 1.349 . S
C1350 C1362 1.349 . S
C1351 C1349 1.327 . S
C1351 C1367 1.429 . S
C1351 H1373 0.950 . S
C1352 H1348 0.949 . S
C1352 C1360 1.574 . S
C1352 C1368 1.368 . S
H1353 C1361 0.950 . S
H1354 C1359 0.950 . S
H1355 C1360 0.949 . S
H1356 C1362 0.950 . S
H1357 C1363 0.950 . S
H1358 C1364 0.949 . S
C1359 H1354 0.950 . S
C1359 C1361 1.327 . S
C1359 C1365 1.429 . S
C1360 C1352 1.574 . S
C1360 H1355 0.949 . S
C1360 C1366 1.368 . S
C1361 C1345 1.349 . S
C1361 H1353 0.950 . S
C1361 C1359 1.327 . S
C1362 C1350 1.349 . S
C1362 H1356 0.950 . S
C1362 C1363 1.327 . S
C1363 H1357 0.950 . S
C1363 C1362 1.327 . S
C1363 C1367 1.429 . S
C1364 C1347 1.574 . S
C1364 H1358 0.949 . S
C1364 C1368 1.368 . S
C1365 C1346 1.429 . S
C1365 C1359 1.429 . S
C1365 C1366 1.523 . S
C1366 C1347 1.368 . S
C1366 C1360 1.368 . S
C1366 C1365 1.523 . S
C1367 C1351 1.429 . S
C1367 C1363 1.429 . S
C1367 C1368 1.523 . S
C1368 C1352 1.368 . S
C1368 C1364 1.368 . S
C1368 C1367 1.523 . S
H1369 C1344 0.950 . S
H1370 C1346 0.950 . S
H1371 C1347 0.949 . S
H1372 C1349 0.950 . S
H1373 C1351 0.950 . S
C1374 C1375 1.349 . S
C1374 C1376 1.327 . S
C1374 H1399 0.950 . S
C1375 C1374 1.349 . S
C1375 C1391 1.349 . S
C1376 C1374 1.327 . S
C1376 C1395 1.429 . S
C1376 H1400 0.950 . S
C1377 C1394 1.574 . S
C1377 C1396 1.368 . S
C1377 H1401 0.949 . S
H1378 C1382 0.949 . S
C1379 C1380 1.349 . S
C1379 C1381 1.327 . S
C1379 H1402 0.950 . S
C1380 C1379 1.349 . S
C1380 C1392 1.349 . S
C1381 C1379 1.327 . S
C1381 C1397 1.429 . S
C1381 H1403 0.950 . S
C1382 H1378 0.949 . S
C1382 C1390 1.574 . S
C1382 C1398 1.368 . S
H1383 C1391 0.950 . S
H1384 C1389 0.950 . S
H1385 C1390 0.949 . S
H1386 C1392 0.950 . S
H1387 C1393 0.950 . S
H1388 C1394 0.949 . S
C1389 H1384 0.950 . S
C1389 C1391 1.327 . S
C1389 C1395 1.429 . S
C1390 C1382 1.574 . S
C1390 H1385 0.949 . S
C1390 C1396 1.368 . S
C1391 C1375 1.349 . S
C1391 H1383 0.950 . S
C1391 C1389 1.327 . S
C1392 C1380 1.349 . S
C1392 H1386 0.950 . S
C1392 C1393 1.327 . S
C1393 H1387 0.950 . S
C1393 C1392 1.327 . S
C1393 C1397 1.429 . S
C1394 C1377 1.574 . S
C1394 H1388 0.949 . S
C1394 C1398 1.368 . S
C1395 C1376 1.429 . S
C1395 C1389 1.429 . S
C1395 C1396 1.523 . S
C1396 C1377 1.368 . S
C1396 C1390 1.368 . S
C1396 C1395 1.523 . S
C1397 C1381 1.429 . S
C1397 C1393 1.429 . S
C1397 C1398 1.523 . S
C1398 C1382 1.368 . S
C1398 C1394 1.368 . S
C1398 C1397 1.523 . S
H1399 C1374 0.950 . S
H1400 C1376 0.950 . S
H1401 C1377 0.949 . S
H1402 C1379 0.950 . S
H1403 C1381 0.950 . S
C1404 C1405 1.349 . S
C1404 C1406 1.327 . S
C1404 H1429 0.950 . S
C1405 C1404 1.349 . S
C1405 C1421 1.349 . S
C1406 C1404 1.327 . S
C1406 C1425 1.429 . S
C1406 H1430 0.950 . S
C1407 C1424 1.574 . S
C1407 C1426 1.368 . S
C1407 H1431 0.949 . S
H1408 C1412 0.949 . S
C1409 C1410 1.349 . S
C1409 C1411 1.327 . S
C1409 H1432 0.950 . S
C1410 C1409 1.349 . S
C1410 C1422 1.349 . S
C1411 C1409 1.327 . S
C1411 C1427 1.429 . S
C1411 H1433 0.950 . S
C1412 H1408 0.949 . S
C1412 C1420 1.574 . S
C1412 C1428 1.368 . S
H1413 C1421 0.950 . S
H1414 C1419 0.950 . S
H1415 C1420 0.949 . S
H1416 C1422 0.950 . S
H1417 C1423 0.950 . S
H1418 C1424 0.949 . S
C1419 H1414 0.950 . S
C1419 C1421 1.327 . S
C1419 C1425 1.429 . S
C1420 C1412 1.574 . S
C1420 H1415 0.949 . S
C1420 C1426 1.368 . S
C1421 C1405 1.349 . S
C1421 H1413 0.950 . S
C1421 C1419 1.327 . S
C1422 C1410 1.349 . S
C1422 H1416 0.950 . S
C1422 C1423 1.327 . S
C1423 H1417 0.950 . S
C1423 C1422 1.327 . S
C1423 C1427 1.429 . S
C1424 C1407 1.574 . S
C1424 H1418 0.949 . S
C1424 C1428 1.368 . S
C1425 C1406 1.429 . S
C1425 C1419 1.429 . S
C1425 C1426 1.523 . S
C1426 C1407 1.368 . S
C1426 C1420 1.368 . S
C1426 C1425 1.523 . S
C1427 C1411 1.429 . S
C1427 C1423 1.429 . S
C1427 C1428 1.523 . S
C1428 C1412 1.368 . S
C1428 C1424 1.368 . S
C1428 C1427 1.523 . S
H1429 C1404 0.950 . S
H1430 C1406 0.950 . S
H1431 C1407 0.949 . S
H1432 C1409 0.950 . S
H1433 C1411 0.950 . S
C1434 C1435 1.349 . S
C1434 C1436 1.327 . S
C1434 H1459 0.950 . S
C1435 C1434 1.349 . S
C1435 C1451 1.349 . S
C1436 C1434 1.327 . S
C1436 C1455 1.429 . S
C1436 H1460 0.950 . S
C1437 C1454 1.574 . S
C1437 C1456 1.368 . S
C1437 H1461 0.949 . S
H1438 C1442 0.949 . S
C1439 C1440 1.349 . S
C1439 C1441 1.327 . S
C1439 H1462 0.950 . S
C1440 C1439 1.349 . S
C1440 C1452 1.349 . S
C1441 C1439 1.327 . S
C1441 C1457 1.429 . S
C1441 H1463 0.950 . S
C1442 H1438 0.949 . S
C1442 C1450 1.574 . S
C1442 C1458 1.368 . S
H1443 C1451 0.950 . S
H1444 C1449 0.950 . S
H1445 C1450 0.949 . S
H1446 C1452 0.950 . S
H1447 C1453 0.950 . S
H1448 C1454 0.949 . S
C1449 H1444 0.950 . S
C1449 C1451 1.327 . S
C1449 C1455 1.429 . S
C1450 C1442 1.574 . S
C1450 H1445 0.949 . S
C1450 C1456 1.368 . S
C1451 C1435 1.349 . S
C1451 H1443 0.950 . S
C1451 C1449 1.327 . S
C1452 C1440 1.349 . S
C1452 H1446 0.950 . S
C1452 C1453 1.327 . S
C1453 H1447 0.950 . S
C1453 C1452 1.327 . S
C1453 C1457 1.429 . S
C1454 C1437 1.574 . S
C1454 H1448 0.949 . S
C1454 C1458 1.368 . S
C1455 C1436 1.429 . S
C1455 C1449 1.429 . S
C1455 C1456 1.523 . S
C1456 C1437 1.368 . S
C1456 C1450 1.368 . S
C1456 C1455 1.523 . S
C1457 C1441 1.429 . S
C1457 C1453 1.429 . S
C1457 C1458 1.523 . S
C1458 C1442 1.368 . S
C1458 C1454 1.368 . S
C1458 C1457 1.523 . S
H1459 C1434 0.950 . S
H1460 C1436 0.950 . S
H1461 C1437 0.949 . S
H1462 C1439 0.950 . S
H1463 C1441 0.950 . S
C1464 C1465 1.349 . S
C1464 C1466 1.327 . S
C1464 H1489 0.950 . S
C1465 C1464 1.349 . S
C1465 C1481 1.349 . S
C1466 C1464 1.327 . S
C1466 C1485 1.429 . S
C1466 H1490 0.950 . S
C1467 C1484 1.574 . S
C1467 C1486 1.368 . S
C1467 H1491 0.949 . S
H1468 C1472 0.949 . S
C1469 C1470 1.349 . S
C1469 C1471 1.327 . S
C1469 H1492 0.950 . S
C1470 C1469 1.349 . S
C1470 C1482 1.349 . S
C1471 C1469 1.327 . S
C1471 C1487 1.429 . S
C1471 H1493 0.950 . S
C1472 H1468 0.949 . S
C1472 C1480 1.574 . S
C1472 C1488 1.368 . S
H1473 C1481 0.950 . S
H1474 C1479 0.950 . S
H1475 C1480 0.949 . S
H1476 C1482 0.950 . S
H1477 C1483 0.950 . S
H1478 C1484 0.949 . S
C1479 H1474 0.950 . S
C1479 C1481 1.327 . S
C1479 C1485 1.429 . S
C1480 C1472 1.574 . S
C1480 H1475 0.949 . S
C1480 C1486 1.368 . S
C1481 C1465 1.349 . S
C1481 H1473 0.950 . S
C1481 C1479 1.327 . S
C1482 C1470 1.349 . S
C1482 H1476 0.950 . S
C1482 C1483 1.327 . S
C1483 H1477 0.950 . S
C1483 C1482 1.327 . S
C1483 C1487 1.429 . S
C1484 C1467 1.574 . S
C1484 H1478 0.949 . S
C1484 C1488 1.368 . S
C1485 C1466 1.429 . S
C1485 C1479 1.429 . S
C1485 C1486 1.523 . S
C1486 C1467 1.368 . S
C1486 C1480 1.368 . S
C1486 C1485 1.523 . S
C1487 C1471 1.429 . S
C1487 C1483 1.429 . S
C1487 C1488 1.523 . S
C1488 C1472 1.368 . S
C1488 C1484 1.368 . S
C1488 C1487 1.523 . S
H1489 C1464 0.950 . S
H1490 C1466 0.950 . S
H1491 C1467 0.949 . S
H1492 C1469 0.950 . S
H1493 C1471 0.950 . S
C1494 C1495 1.349 . S
C1494 C1496 1.327 . S
C1494 H1519 0.950 . S
C1495 C1494 1.349 . S
C1495 C1511 1.349 . S
C1496 C1494 1.327 . S
C1496 C1515 1.429 . S
C1496 H1520 0.950 . S
C1497 C1514 1.574 . S
C1497 C1516 1.368 . S
C1497 H1521 0.949 . S
H1498 C1502 0.949 . S
C1499 C1500 1.349 . S
C1499 C1501 1.327 . S
C1499 H1522 0.950 . S
C1500 C1499 1.349 . S
C1500 C1512 1.349 . S
C1501 C1499 1.327 . S
C1501 C1517 1.429 . S
C1501 H1523 0.950 . S
C1502 H1498 0.949 . S
C1502 C1510 1.574 . S
C1502 C1518 1.368 . S
H1503 C1511 0.950 . S
H1504 C1509 0.950 . S
H1505 C1510 0.949 . S
H1506 C1512 0.950 . S
H1507 C1513 0.950 . S
H1508 C1514 0.949 . S
C1509 H1504 0.950 . S
C1509 C1511 1.327 . S
C1509 C1515 1.429 . S
C1510 C1502 1.574 . S
C1510 H1505 0.949 . S
C1510 C1516 1.368 . S
C1511 C1495 1.349 . S
C1511 H1503 0.950 . S
C1511 C1509 1.327 . S
C1512 C1500 1.349 . S
C1512 H1506 0.950 . S
C1512 C1513 1.327 . S
C1513 H1507 0.950 . S
C1513 C1512 1.327 . S
C1513 C1517 1.429 . S
C1514 C1497 1.574 . S
C1514 H1508 0.949 . S
C1514 C1518 1.368 . S
C1515 C1496 1.429 . S
C1515 C1509 1.429 . S
C1515 C1516 1.523 . S
C1516 C1497 1.368 . S
C1516 C1510 1.368 . S
C1516 C1515 1.523 . S
C1517 C1501 1.429 . S
C1517 C1513 1.429 . S
C1517 C1518 1.523 . S
C1518 C1502 1.368 . S
C1518 C1514 1.368 . S
C1518 C1517 1.523 . S
H1519 C1494 0.950 . S
H1520 C1496 0.950 . S
H1521 C1497 0.949 . S
H1522 C1499 0.950 . S
H1523 C1501 0.950 . S
C1524 C1525 1.349 . S
C1524 C1526 1.327 . S
C1524 H1549 0.950 . S
C1525 C1524 1.349 . S
C1525 C1541 1.349 . S
C1526 C1524 1.327 . S
C1526 C1545 1.429 . S
C1526 H1550 0.950 . S
C1527 C1544 1.574 . S
C1527 C1546 1.368 . S
C1527 H1551 0.949 . S
H1528 C1532 0.949 . S
C1529 C1530 1.349 . S
C1529 C1531 1.327 . S
C1529 H1552 0.950 . S
C1530 C1529 1.349 . S
C1530 C1542 1.349 . S
C1531 C1529 1.327 . S
C1531 C1547 1.429 . S
C1531 H1553 0.950 . S
C1532 H1528 0.949 . S
C1532 C1540 1.574 . S
C1532 C1548 1.368 . S
H1533 C1541 0.950 . S
H1534 C1539 0.950 . S
H1535 C1540 0.949 . S
H1536 C1542 0.950 . S
H1537 C1543 0.950 . S
H1538 C1544 0.949 . S
C1539 H1534 0.950 . S
C1539 C1541 1.327 . S
C1539 C1545 1.429 . S
C1540 C1532 1.574 . S
C1540 H1535 0.949 . S
C1540 C1546 1.368 . S
C1541 C1525 1.349 . S
C1541 H1533 0.950 . S
C1541 C1539 1.327 . S
C1542 C1530 1.349 . S
C1542 H1536 0.950 . S
C1542 C1543 1.327 . S
C1543 H1537 0.950 . S
C1543 C1542 1.327 . S
C1543 C1547 1.429 . S
C1544 C1527 1.574 . S
C1544 H1538 0.949 . S
C1544 C1548 1.368 . S
C1545 C1526 1.429 . S
C1545 C1539 1.429 . S
C1545 C1546 1.523 . S
C1546 C1527 1.368 . S
C1546 C1540 1.368 . S
C1546 C1545 1.523 . S
C1547 C1531 1.429 . S
C1547 C1543 1.429 . S
C1547 C1548 1.523 . S
C1548 C1532 1.368 . S
C1548 C1544 1.368 . S
C1548 C1547 1.523 . S
H1549 C1524 0.950 . S
H1550 C1526 0.950 . S
H1551 C1527 0.949 . S
H1552 C1529 0.950 . S
H1553 C1531 0.950 . S
C1554 C1555 1.349 . S
C1554 C1556 1.327 . S
C1554 H1579 0.950 . S
C1555 C1554 1.349 . S
C1555 C1571 1.349 . S
C1556 C1554 1.327 . S
C1556 C1575 1.429 . S
C1556 H1580 0.950 . S
C1557 C1574 1.574 . S
C1557 C1576 1.368 . S
C1557 H1581 0.949 . S
H1558 C1562 0.949 . S
C1559 C1560 1.349 . S
C1559 C1561 1.327 . S
C1559 H1582 0.950 . S
C1560 C1559 1.349 . S
C1560 C1572 1.349 . S
C1561 C1559 1.327 . S
C1561 C1577 1.429 . S
C1561 H1583 0.950 . S
C1562 H1558 0.949 . S
C1562 C1570 1.574 . S
C1562 C1578 1.368 . S
H1563 C1571 0.950 . S
H1564 C1569 0.950 . S
H1565 C1570 0.949 . S
H1566 C1572 0.950 . S
H1567 C1573 0.950 . S
H1568 C1574 0.949 . S
C1569 H1564 0.950 . S
C1569 C1571 1.327 . S
C1569 C1575 1.429 . S
C1570 C1562 1.574 . S
C1570 H1565 0.949 . S
C1570 C1576 1.368 . S
C1571 C1555 1.349 . S
C1571 H1563 0.950 . S
C1571 C1569 1.327 . S
C1572 C1560 1.349 . S
C1572 H1566 0.950 . S
C1572 C1573 1.327 . S
C1573 H1567 0.950 . S
C1573 C1572 1.327 . S
C1573 C1577 1.429 . S
C1574 C1557 1.574 . S
C1574 H1568 0.949 . S
C1574 C1578 1.368 . S
C1575 C1556 1.429 . S
C1575 C1569 1.429 . S
C1575 C1576 1.523 . S
C1576 C1557 1.368 . S
C1576 C1570 1.368 . S
C1576 C1575 1.523 . S
C1577 C1561 1.429 . S
C1577 C1573 1.429 . S
C1577 C1578 1.523 . S
C1578 C1562 1.368 . S
C1578 C1574 1.368 . S
C1578 C1577 1.523 . S
H1579 C1554 0.950 . S
H1580 C1556 0.950 . S
H1581 C1557 0.949 . S
H1582 C1559 0.950 . S
H1583 C1561 0.950 . S
C1584 C1585 1.349 . S
C1584 C1586 1.327 . S
C1584 H1609 0.950 . S
C1585 C1584 1.349 . S
C1585 C1601 1.349 . S
C1586 C1584 1.327 . S
C1586 C1605 1.429 . S
C1586 H1610 0.950 . S
C1587 C1604 1.574 . S
C1587 C1606 1.368 . S
C1587 H1611 0.949 . S
H1588 C1592 0.949 . S
C1589 C1590 1.349 . S
C1589 C1591 1.327 . S
C1589 H1612 0.950 . S
C1590 C1589 1.349 . S
C1590 C1602 1.349 . S
C1591 C1589 1.327 . S
C1591 C1607 1.429 . S
C1591 H1613 0.950 . S
C1592 H1588 0.949 . S
C1592 C1600 1.574 . S
C1592 C1608 1.368 . S
H1593 C1601 0.950 . S
H1594 C1599 0.950 . S
H1595 C1600 0.949 . S
H1596 C1602 0.950 . S
H1597 C1603 0.950 . S
H1598 C1604 0.949 . S
C1599 H1594 0.950 . S
C1599 C1601 1.327 . S
C1599 C1605 1.429 . S
C1600 C1592 1.574 . S
C1600 H1595 0.949 . S
C1600 C1606 1.368 . S
C1601 C1585 1.349 . S
C1601 H1593 0.950 . S
C1601 C1599 1.327 . S
C1602 C1590 1.349 . S
C1602 H1596 0.950 . S
C1602 C1603 1.327 . S
C1603 H1597 0.950 . S
C1603 C1602 1.327 . S
C1603 C1607 1.429 . S
C1604 C1587 1.574 . S
C1604 H1598 0.949 . S
C1604 C1608 1.368 . S
C1605 C1586 1.429 . S
C1605 C1599 1.429 . S
C1605 C1606 1.523 . S
C1606 C1587 1.368 . S
C1606 C1600 1.368 . S
C1606 C1605 1.523 . S
C1607 C1591 1.429 . S
C1607 C1603 1.429 . S
C1607 C1608 1.523 . S
C1608 C1592 1.368 . S
C1608 C1604 1.368 . S
C1608 C1607 1.523 . S
H1609 C1584 0.950 . S
H1610 C1586 0.950 . S
H1611 C1587 0.949 . S
H1612 C1589 0.950 . S
H1613 C1591 0.950 . S
C1614 C1615 1.349 . S
C1614 C1616 1.327 . S
C1614 H1639 0.950 . S
C1615 C1614 1.349 . S
C1615 C1631 1.349 . S
C1616 C1614 1.327 . S
C1616 C1635 1.429 . S
C1616 H1640 0.950 . S
C1617 C1634 1.574 . S
C1617 C1636 1.368 . S
C1617 H1641 0.949 . S
H1618 C1622 0.949 . S
C1619 C1620 1.349 . S
C1619 C1621 1.327 . S
C1619 H1642 0.950 . S
C1620 C1619 1.349 . S
C1620 C1632 1.349 . S
C1621 C1619 1.327 . S
C1621 C1637 1.429 . S
C1621 H1643 0.950 . S
C1622 H1618 0.949 . S
C1622 C1630 1.574 . S
C1622 C1638 1.368 . S
H1623 C1631 0.950 . S
H1624 C1629 0.950 . S
H1625 C1630 0.949 . S
H1626 C1632 0.950 . S
H1627 C1633 0.950 . S
H1628 C1634 0.949 . S
C1629 H1624 0.950 . S
C1629 C1631 1.327 . S
C1629 C1635 1.429 . S
C1630 C1622 1.574 . S
C1630 H1625 0.949 . S
C1630 C1636 1.368 . S
C1631 C1615 1.349 . S
C1631 H1623 0.950 . S
C1631 C1629 1.327 . S
C1632 C1620 1.349 . S
C1632 H1626 0.950 . S
C1632 C1633 1.327 . S
C1633 H1627 0.950 . S
C1633 C1632 1.327 . S
C1633 C1637 1.429 . S
C1634 C1617 1.574 . S
C1634 H1628 0.949 . S
C1634 C1638 1.368 . S
C1635 C1616 1.429 . S
C1635 C1629 1.429 . S
C1635 C1636 1.523 . S
C1636 C1617 1.368 . S
C1636 C1630 1.368 . S
C1636 C1635 1.523 . S
C1637 C1621 1.429 . S
C1637 C1633 1.429 . S
C1637 C1638 1.523 . S
C1638 C1622 1.368 . S
C1638 C1634 1.368 . S
C1638 C1637 1.523 . S
H1639 C1614 0.950 . S
H1640 C1616 0.950 . S
H1641 C1617 0.949 . S
H1642 C1619 0.950 . S
H1643 C1621 0.950 . S
C1644 C1645 1.349 . S
C1644 C1646 1.327 . S
C1644 H1669 0.950 . S
C1645 C1644 1.349 . S
C1645 C1661 1.349 . S
C1646 C1644 1.327 . S
C1646 C1665 1.429 . S
C1646 H1670 0.950 . S
C1647 C1664 1.574 . S
C1647 C1666 1.368 . S
C1647 H1671 0.949 . S
H1648 C1652 0.949 . S
C1649 C1650 1.349 . S
C1649 C1651 1.327 . S
C1649 H1672 0.950 . S
C1650 C1649 1.349 . S
C1650 C1662 1.349 . S
C1651 C1649 1.327 . S
C1651 C1667 1.429 . S
C1651 H1673 0.950 . S
C1652 H1648 0.949 . S
C1652 C1660 1.574 . S
C1652 C1668 1.368 . S
H1653 C1661 0.950 . S
H1654 C1659 0.950 . S
H1655 C1660 0.949 . S
H1656 C1662 0.950 . S
H1657 C1663 0.950 . S
H1658 C1664 0.949 . S
C1659 H1654 0.950 . S
C1659 C1661 1.327 . S
C1659 C1665 1.429 . S
C1660 C1652 1.574 . S
C1660 H1655 0.949 . S
C1660 C1666 1.368 . S
C1661 C1645 1.349 . S
C1661 H1653 0.950 . S
C1661 C1659 1.327 . S
C1662 C1650 1.349 . S
C1662 H1656 0.950 . S
C1662 C1663 1.327 . S
C1663 H1657 0.950 . S
C1663 C1662 1.327 . S
C1663 C1667 1.429 . S
C1664 C1647 1.574 . S
C1664 H1658 0.949 . S
C1664 C1668 1.368 . S
C1665 C1646 1.429 . S
C1665 C1659 1.429 . S
C1665 C1666 1.523 . S
C1666 C1647 1.368 . S
C1666 C1660 1.368 . S
C1666 C1665 1.523 . S
C1667 C1651 1.429 . S
C1667 C1663 1.429 . S
C1667 C1668 1.523 . S
C1668 C1652 1.368 . S
C1668 C1664 1.368 . S
C1668 C1667 1.523 . S
H1669 C1644 0.950 . S
H1670 C1646 0.950 . S
H1671 C1647 0.949 . S
H1672 C1649 0.950 . S
H1673 C1651 0.950 . S
C1674 C1675 1.349 . S
C1674 C1676 1.327 . S
C1674 H1699 0.950 . S
C1675 C1674 1.349 . S
C1675 C1691 1.349 . S
C1676 C1674 1.327 . S
C1676 C1695 1.429 . S
C1676 H1700 0.950 . S
C1677 C1694 1.574 . S
C1677 C1696 1.368 . S
C1677 H1701 0.949 . S
H1678 C1682 0.949 . S
C1679 C1680 1.349 . S
C1679 C1681 1.327 . S
C1679 H1702 0.950 . S
C1680 C1679 1.349 . S
C1680 C1692 1.349 . S
C1681 C1679 1.327 . S
C1681 C1697 1.429 . S
C1681 H1703 0.950 . S
C1682 H1678 0.949 . S
C1682 C1690 1.574 . S
C1682 C1698 1.368 . S
H1683 C1691 0.950 . S
H1684 C1689 0.950 . S
H1685 C1690 0.949 . S
H1686 C1692 0.950 . S
H1687 C1693 0.950 . S
H1688 C1694 0.949 . S
C1689 H1684 0.950 . S
C1689 C1691 1.327 . S
C1689 C1695 1.429 . S
C1690 C1682 1.574 . S
C1690 H1685 0.949 . S
C1690 C1696 1.368 . S
C1691 C1675 1.349 . S
C1691 H1683 0.950 . S
C1691 C1689 1.327 . S
C1692 C1680 1.349 . S
C1692 H1686 0.950 . S
C1692 C1693 1.327 . S
C1693 H1687 0.950 . S
C1693 C1692 1.327 . S
C1693 C1697 1.429 . S
C1694 C1677 1.574 . S
C1694 H1688 0.949 . S
C1694 C1698 1.368 . S
C1695 C1676 1.429 . S
C1695 C1689 1.429 . S
C1695 C1696 1.523 . S
C1696 C1677 1.368 . S
C1696 C1690 1.368 . S
C1696 C1695 1.523 . S
C1697 C1681 1.429 . S
C1697 C1693 1.429 . S
C1697 C1698 1.523 . S
C1698 C1682 1.368 . S
C1698 C1694 1.368 . S
C1698 C1697 1.523 . S
H1699 C1674 0.950 . S
H1700 C1676 0.950 . S
H1701 C1677 0.949 . S
H1702 C1679 0.950 . S
H1703 C1681 0.950 . S
C1704 C1705 1.349 . S
C1704 C1706 1.327 . S
C1704 H1729 0.950 . S
C1705 C1704 1.349 . S
C1705 C1721 1.349 . S
C1706 C1704 1.327 . S
C1706 C1725 1.429 . S
C1706 H1730 0.950 . S
C1707 C1724 1.574 . S
C1707 C1726 1.368 . S
C1707 H1731 0.949 . S
H1708 C1712 0.949 . S
C1709 C1710 1.349 . S
C1709 C1711 1.327 . S
C1709 H1732 0.950 . S
C1710 C1709 1.349 . S
C1710 C1722 1.349 . S
C1711 C1709 1.327 . S
C1711 C1727 1.429 . S
C1711 H1733 0.950 . S
C1712 H1708 0.949 . S
C1712 C1720 1.574 . S
C1712 C1728 1.368 . S
H1713 C1721 0.950 . S
H1714 C1719 0.950 . S
H1715 C1720 0.949 . S
H1716 C1722 0.950 . S
H1717 C1723 0.950 . S
H1718 C1724 0.949 . S
C1719 H1714 0.950 . S
C1719 C1721 1.327 . S
C1719 C1725 1.429 . S
C1720 C1712 1.574 . S
C1720 H1715 0.949 . S
C1720 C1726 1.368 . S
C1721 C1705 1.349 . S
C1721 H1713 0.950 . S
C1721 C1719 1.327 . S
C1722 C1710 1.349 . S
C1722 H1716 0.950 . S
C1722 C1723 1.327 . S
C1723 H1717 0.950 . S
C1723 C1722 1.327 . S
C1723 C1727 1.429 . S
C1724 C1707 1.574 . S
C1724 H1718 0.949 . S
C1724 C1728 1.368 . S
C1725 C1706 1.429 . S
C1725 C1719 1.429 . S
C1725 C1726 1.523 . S
C1726 C1707 1.368 . S
C1726 C1720 1.368 . S
C1726 C1725 1.523 . S
C1727 C1711 1.429 . S
C1727 C1723 1.429 . S
C1727 C1728 1.523 . S
C1728 C1712 1.368 . S
C1728 C1724 1.368 . S
C1728 C1727 1.523 . S
H1729 C1704 0.950 . S
H1730 C1706 0.950 . S
H1731 C1707 0.949 . S
H1732 C1709 0.950 . S
H1733 C1711 0.950 . S
C1734 C1735 1.349 . S
C1734 C1736 1.327 . S
C1734 H1759 0.950 . S
C1735 C1734 1.349 . S
C1735 C1751 1.349 . S
C1736 C1734 1.327 . S
C1736 C1755 1.429 . S
C1736 H1760 0.950 . S
C1737 C1754 1.574 . S
C1737 C1756 1.368 . S
C1737 H1761 0.949 . S
H1738 C1742 0.949 . S
C1739 C1740 1.349 . S
C1739 C1741 1.327 . S
C1739 H1762 0.950 . S
C1740 C1739 1.349 . S
C1740 C1752 1.349 . S
C1741 C1739 1.327 . S
C1741 C1757 1.429 . S
C1741 H1763 0.950 . S
C1742 H1738 0.949 . S
C1742 C1750 1.574 . S
C1742 C1758 1.368 . S
H1743 C1751 0.950 . S
H1744 C1749 0.950 . S
H1745 C1750 0.949 . S
H1746 C1752 0.950 . S
H1747 C1753 0.950 . S
H1748 C1754 0.949 . S
C1749 H1744 0.950 . S
C1749 C1751 1.327 . S
C1749 C1755 1.429 . S
C1750 C1742 1.574 . S
C1750 H1745 0.949 . S
C1750 C1756 1.368 . S
C1751 C1735 1.349 . S
C1751 H1743 0.950 . S
C1751 C1749 1.327 . S
C1752 C1740 1.349 . S
C1752 H1746 0.950 . S
C1752 C1753 1.327 . S
C1753 H1747 0.950 . S
C1753 C1752 1.327 . S
C1753 C1757 1.429 . S
C1754 C1737 1.574 . S
C1754 H1748 0.949 . S
C1754 C1758 1.368 . S
C1755 C1736 1.429 . S
C1755 C1749 1.429 . S
C1755 C1756 1.523 . S
C1756 C1737 1.368 . S
C1756 C1750 1.368 . S
C1756 C1755 1.523 . S
C1757 C1741 1.429 . S
C1757 C1753 1.429 . S
C1757 C1758 1.523 . S
C1758 C1742 1.368 . S
C1758 C1754 1.368 . S
C1758 C1757 1.523 . S
H1759 C1734 0.950 . S
H1760 C1736 0.950 . S
H1761 C1737 0.949 . S
H1762 C1739 0.950 . S
H1763 C1741 0.950 . S
C1764 C1765 1.349 . S
C1764 C1766 1.327 . S
C1764 H1789 0.950 . S
C1765 C1764 1.349 . S
C1765 C1781 1.349 . S
C1766 C1764 1.327 . S
C1766 C1785 1.429 . S
C1766 H1790 0.950 . S
C1767 C1784 1.574 . S
C1767 C1786 1.368 . S
C1767 H1791 0.949 . S
H1768 C1772 0.949 . S
C1769 C1770 1.349 . S
C1769 C1771 1.327 . S
C1769 H1792 0.950 . S
C1770 C1769 1.349 . S
C1770 C1782 1.349 . S
C1771 C1769 1.327 . S
C1771 C1787 1.429 . S
C1771 H1793 0.950 . S
C1772 H1768 0.949 . S
C1772 C1780 1.574 . S
C1772 C1788 1.368 . S
H1773 C1781 0.950 . S
H1774 C1779 0.950 . S
H1775 C1780 0.949 . S
H1776 C1782 0.950 . S
H1777 C1783 0.950 . S
H1778 C1784 0.949 . S
C1779 H1774 0.950 . S
C1779 C1781 1.327 . S
C1779 C1785 1.429 . S
C1780 C1772 1.574 . S
C1780 H1775 0.949 . S
C1780 C1786 1.368 . S
C1781 C1765 1.349 . S
C1781 H1773 0.950 . S
C1781 C1779 1.327 . S
C1782 C1770 1.349 . S
C1782 H1776 0.950 . S
C1782 C1783 1.327 . S
C1783 H1777 0.950 . S
C1783 C1782 1.327 . S
C1783 C1787 1.429 . S
C1784 C1767 1.574 . S
C1784 H1778 0.949 . S
C1784 C1788 1.368 . S
C1785 C1766 1.429 . S
C1785 C1779 1.429 . S
C1785 C1786 1.523 . S
C1786 C1767 1.368 . S
C1786 C1780 1.368 . S
C1786 C1785 1.523 . S
C1787 C1771 1.429 . S
C1787 C1783 1.429 . S
C1787 C1788 1.523 . S
C1788 C1772 1.368 . S
C1788 C1784 1.368 . S
C1788 C1787 1.523 . S
H1789 C1764 0.950 . S
H1790 C1766 0.950 . S
H1791 C1767 0.949 . S
H1792 C1769 0.950 . S
H1793 C1771 0.950 . S
C1794 C1795 1.349 . S
C1794 C1796 1.327 . S
C1794 H1819 0.950 . S
C1795 C1794 1.349 . S
C1795 C1811 1.349 . S
C1796 C1794 1.327 . S
C1796 C1815 1.429 . S
C1796 H1820 0.950 . S
C1797 C1814 1.574 . S
C1797 C1816 1.368 . S
C1797 H1821 0.949 . S
H1798 C1802 0.949 . S
C1799 C1800 1.349 . S
C1799 C1801 1.327 . S
C1799 H1822 0.950 . S
C1800 C1799 1.349 . S
C1800 C1812 1.349 . S
C1801 C1799 1.327 . S
C1801 C1817 1.429 . S
C1801 H1823 0.950 . S
C1802 H1798 0.949 . S
C1802 C1810 1.574 . S
C1802 C1818 1.368 . S
H1803 C1811 0.950 . S
H1804 C1809 0.950 . S
H1805 C1810 0.949 . S
H1806 C1812 0.950 . S
H1807 C1813 0.950 . S
H1808 C1814 0.949 . S
C1809 H1804 0.950 . S
C1809 C1811 1.327 . S
C1809 C1815 1.429 . S
C1810 C1802 1.574 . S
C1810 H1805 0.949 . S
C1810 C1816 1.368 . S
C1811 C1795 1.349 . S
C1811 H1803 0.950 . S
C1811 C1809 1.327 . S
C1812 C1800 1.349 . S
C1812 H1806 0.950 . S
C1812 C1813 1.327 . S
C1813 H1807 0.950 . S
C1813 C1812 1.327 . S
C1813 C1817 1.429 . S
C1814 C1797 1.574 . S
C1814 H1808 0.949 . S
C1814 C1818 1.368 . S
C1815 C1796 1.429 . S
C1815 C1809 1.429 . S
C1815 C1816 1.523 . S
C1816 C1797 1.368 . S
C1816 C1810 1.368 . S
C1816 C1815 1.523 . S
C1817 C1801 1.429 . S
C1817 C1813 1.429 . S
C1817 C1818 1.523 . S
C1818 C1802 1.368 . S
C1818 C1814 1.368 . S
C1818 C1817 1.523 . S
H1819 C1794 0.950 . S
H1820 C1796 0.950 . S
H1821 C1797 0.949 . S
H1822 C1799 0.950 . S
H1823 C1801 0.950 . S
C1824 C1825 1.349 . S
C1824 C1826 1.327 . S
C1824 H1849 0.950 . S
C1825 C1824 1.349 . S
C1825 C1841 1.349 . S
C1826 C1824 1.327 . S
C1826 C1845 1.429 . S
C1826 H1850 0.950 . S
C1827 C1844 1.574 . S
C1827 C1846 1.368 . S
C1827 H1851 0.949 . S
H1828 C1832 0.949 . S
C1829 C1830 1.349 . S
C1829 C1831 1.327 . S
C1829 H1852 0.950 . S
C1830 C1829 1.349 . S
C1830 C1842 1.349 . S
C1831 C1829 1.327 . S
C1831 C1847 1.429 . S
C1831 H1853 0.950 . S
C1832 H1828 0.949 . S
C1832 C1840 1.574 . S
C1832 C1848 1.368 . S
H1833 C1841 0.950 . S
H1834 C1839 0.950 . S
H1835 C1840 0.949 . S
H1836 C1842 0.950 . S
H1837 C1843 0.950 . S
H1838 C1844 0.949 . S
C1839 H1834 0.950 . S
C1839 C1841 1.327 . S
C1839 C1845 1.429 . S
C1840 C1832 1.574 . S
C1840 H1835 0.949 . S
C1840 C1846 1.368 . S
C1841 C1825 1.349 . S
C1841 H1833 0.950 . S
C1841 C1839 1.327 . S
C1842 C1830 1.349 . S
C1842 H1836 0.950 . S
C1842 C1843 1.327 . S
C1843 H1837 0.950 . S
C1843 C1842 1.327 . S
C1843 C1847 1.429 . S
C1844 C1827 1.574 . S
C1844 H1838 0.949 . S
C1844 C1848 1.368 . S
C1845 C1826 1.429 . S
C1845 C1839 1.429 . S
C1845 C1846 1.523 . S
C1846 C1827 1.368 . S
C1846 C1840 1.368 . S
C1846 C1845 1.523 . S
C1847 C1831 1.429 . S
C1847 C1843 1.429 . S
C1847 C1848 1.523 . S
C1848 C1832 1.368 . S
C1848 C1844 1.368 . S
C1848 C1847 1.523 . S
H1849 C1824 0.950 . S
H1850 C1826 0.950 . S
H1851 C1827 0.949 . S
H1852 C1829 0.950 . S
H1853 C1831 0.950 . S
C1854 C1855 1.349 . S
C1854 C1856 1.327 . S
C1854 H1879 0.950 . S
C1855 C1854 1.349 . S
C1855 C1871 1.349 . S
C1856 C1854 1.327 . S
C1856 C1875 1.429 . S
C1856 H1880 0.950 . S
C1857 C1874 1.574 . S
C1857 C1876 1.368 . S
C1857 H1881 0.949 . S
H1858 C1862 0.949 . S
C1859 C1860 1.349 . S
C1859 C1861 1.327 . S
C1859 H1882 0.950 . S
C1860 C1859 1.349 . S
C1860 C1872 1.349 . S
C1861 C1859 1.327 . S
C1861 C1877 1.429 . S
C1861 H1883 0.950 . S
C1862 H1858 0.949 . S
C1862 C1870 1.574 . S
C1862 C1878 1.368 . S
H1863 C1871 0.950 . S
H1864 C1869 0.950 . S
H1865 C1870 0.949 . S
H1866 C1872 0.950 . S
H1867 C1873 0.950 . S
H1868 C1874 0.949 . S
C1869 H1864 0.950 . S
C1869 C1871 1.327 . S
C1869 C1875 1.429 . S
C1870 C1862 1.574 . S
C1870 H1865 0.949 . S
C1870 C1876 1.368 . S
C1871 C1855 1.349 . S
C1871 H1863 0.950 . S
C1871 C1869 1.327 . S
C1872 C1860 1.349 . S
C1872 H1866 0.950 . S
C1872 C1873 1.327 . S
C1873 H1867 0.950 . S
C1873 C1872 1.327 . S
C1873 C1877 1.429 . S
C1874 C1857 1.574 . S
C1874 H1868 0.949 . S
C1874 C1878 1.368 . S
C1875 C1856 1.429 . S
C1875 C1869 1.429 . S
C1875 C1876 1.523 . S
C1876 C1857 1.368 . S
C1876 C1870 1.368 . S
C1876 C1875 1.523 . S
C1877 C1861 1.429 . S
C1877 C1873 1.429 . S
C1877 C1878 1.523 . S
C1878 C1862 1.368 . S
C1878 C1874 1.368 . S
C1878 C1877 1.523 . S
H1879 C1854 0.950 . S
H1880 C1856 0.950 . S
H1881 C1857 0.949 . S
H1882 C1859 0.950 . S
H1883 C1861 0.950 . S
C1884 C1885 1.349 . S
C1884 C1886 1.327 . S
C1884 H1909 0.950 . S
C1885 C1884 1.349 . S
C1885 C1901 1.349 . S
C1886 C1884 1.327 . S
C1886 C1905 1.429 . S
C1886 H1910 0.950 . S
C1887 C1904 1.574 . S
C1887 C1906 1.368 . S
C1887 H1911 0.949 . S
H1888 C1892 0.949 . S
C1889 C1890 1.349 . S
C1889 C1891 1.327 . S
C1889 H1912 0.950 . S
C1890 C1889 1.349 . S
C1890 C1902 1.349 . S
C1891 C1889 1.327 . S
C1891 C1907 1.429 . S
C1891 H1913 0.950 . S
C1892 H1888 0.949 . S
C1892 C1900 1.574 . S
C1892 C1908 1.368 . S
H1893 C1901 0.950 . S
H1894 C1899 0.950 . S
H1895 C1900 0.949 . S
H1896 C1902 0.950 . S
H1897 C1903 0.950 . S
H1898 C1904 0.949 . S
C1899 H1894 0.950 . S
C1899 C1901 1.327 . S
C1899 C1905 1.429 . S
C1900 C1892 1.574 . S
C1900 H1895 0.949 . S
C1900 C1906 1.368 . S
C1901 C1885 1.349 . S
C1901 H1893 0.950 . S
C1901 C1899 1.327 . S
C1902 C1890 1.349 . S
C1902 H1896 0.950 . S
C1902 C1903 1.327 . S
C1903 H1897 0.950 . S
C1903 C1902 1.327 . S
C1903 C1907 1.429 . S
C1904 C1887 1.574 . S
C1904 H1898 0.949 . S
C1904 C1908 1.368 . S
C1905 C1886 1.429 . S
C1905 C1899 1.429 . S
C1905 C1906 1.523 . S
C1906 C1887 1.368 . S
C1906 C1900 1.368 . S
C1906 C1905 1.523 . S
C1907 C1891 1.429 . S
C1907 C1903 1.429 . S
C1907 C1908 1.523 . S
C1908 C1892 1.368 . S
C1908 C1904 1.368 . S
C1908 C1907 1.523 . S
H1909 C1884 0.950 . S
H1910 C1886 0.950 . S
H1911 C1887 0.949 . S
H1912 C1889 0.950 . S
H1913 C1891 0.950 . S
C1914 C1915 1.349 . S
C1914 C1916 1.327 . S
C1914 H1939 0.950 . S
C1915 C1914 1.349 . S
C1915 C1931 1.349 . S
C1916 C1914 1.327 . S
C1916 C1935 1.429 . S
C1916 H1940 0.950 . S
C1917 C1934 1.574 . S
C1917 C1936 1.368 . S
C1917 H1941 0.949 . S
H1918 C1922 0.949 . S
C1919 C1920 1.349 . S
C1919 C1921 1.327 . S
C1919 H1942 0.950 . S
C1920 C1919 1.349 . S
C1920 C1932 1.349 . S
C1921 C1919 1.327 . S
C1921 C1937 1.429 . S
C1921 H1943 0.950 . S
C1922 H1918 0.949 . S
C1922 C1930 1.574 . S
C1922 C1938 1.368 . S
H1923 C1931 0.950 . S
H1924 C1929 0.950 . S
H1925 C1930 0.949 . S
H1926 C1932 0.950 . S
H1927 C1933 0.950 . S
H1928 C1934 0.949 . S
C1929 H1924 0.950 . S
C1929 C1931 1.327 . S
C1929 C1935 1.429 . S
C1930 C1922 1.574 . S
C1930 H1925 0.949 . S
C1930 C1936 1.368 . S
C1931 C1915 1.349 . S
C1931 H1923 0.950 . S
C1931 C1929 1.327 . S
C1932 C1920 1.349 . S
C1932 H1926 0.950 . S
C1932 C1933 1.327 . S
C1933 H1927 0.950 . S
C1933 C1932 1.327 . S
C1933 C1937 1.429 . S
C1934 C1917 1.574 . S
C1934 H1928 0.949 . S
C1934 C1938 1.368 . S
C1935 C1916 1.429 . S
C1935 C1929 1.429 . S
C1935 C1936 1.523 . S
C1936 C1917 1.368 . S
C1936 C1930 1.368 . S
C1936 C1935 1.523 . S
C1937 C1921 1.429 . S
C1937 C1933 1.429 . S
C1937 C1938 1.523 . S
C1938 C1922 1.368 . S
C1938 C1934 1.368 . S
C1938 C1937 1.523 . S
H1939 C1914 0.950 . S
H1940 C1916 0.950 . S
H1941 C1917 0.949 . S
H1942 C1919 0.950 . S
H1943 C1921 0.950 . S
C1944 C1945 1.349 . S
C1944 C1946 1.327 . S
C1944 H1969 0.950 . S
C1945 C1944 1.349 . S
C1945 C1961 1.349 . S
C1946 C1944 1.327 . S
C1946 C1965 1.429 . S
C1946 H1970 0.950 . S
C1947 C1964 1.574 . S
C1947 C1966 1.368 . S
C1947 H1971 0.949 . S
H1948 C1952 0.949 . S
C1949 C1950 1.349 . S
C1949 C1951 1.327 . S
C1949 H1972 0.950 . S
C1950 C1949 1.349 . S
C1950 C1962 1.349 . S
C1951 C1949 1.327 . S
C1951 C1967 1.429 . S
C1951 H1973 0.950 . S
C1952 H1948 0.949 . S
C1952 C1960 1.574 . S
C1952 C1968 1.368 . S
H1953 C1961 0.950 . S
H1954 C1959 0.950 . S
H1955 C1960 0.949 . S
H1956 C1962 0.950 . S
H1957 C1963 0.950 . S
H1958 C1964 0.949 . S
C1959 H1954 0.950 . S
C1959 C1961 1.327 . S
C1959 C1965 1.429 . S
C1960 C1952 1.574 . S
C1960 H1955 0.949 . S
C1960 C1966 1.368 . S
C1961 C1945 1.349 . S
C1961 H1953 0.950 . S
C1961 C1959 1.327 . S
C1962 C1950 1.349 . S
C1962 H1956 0.950 . S
C1962 C1963 1.327 . S
C1963 H1957 0.950 . S
C1963 C1962 1.327 . S
C1963 C1967 1.429 . S
C1964 C1947 1.574 . S
C1964 H1958 0.949 . S
C1964 C1968 1.368 . S
C1965 C1946 1.429 . S
C1965 C1959 1.429 . S
C1965 C1966 1.523 . S
C1966 C1947 1.368 . S
C1966 C1960 1.368 . S
C1966 C1965 1.523 . S
C1967 C1951 1.429 . S
C1967 C1963 1.429 . S
C1967 C1968 1.523 . S
C1968 C1952 1.368 . S
C1968 C1964 1.368 . S
C1968 C1967 1.523 . S
H1969 C1944 0.950 . S
H1970 C1946 0.950 . S
H1971 C1947 0.949 . S
H1972 C1949 0.950 . S
H1973 C1951 0.950 . S
C1974 C1975 1.349 . S
C1974 C1976 1.327 . S
C1974 H1999 0.950 . S
C1975 C1974 1.349 . S
C1975 C1991 1.349 . S
C1976 C1974 1.327 . S
C1976 C1995 1.429 . S
C1976 H2000 0.950 . S
C1977 C1994 1.574 . S
C1977 C1996 1.368 . S
C1977 H2001 0.949 . S
H1978 C1982 0.949 . S
C1979 C1980 1.349 . S
C1979 C1981 1.327 . S
C1979 H2002 0.950 . S
C1980 C1979 1.349 . S
C1980 C1992 1.349 . S
C1981 C1979 1.327 . S
C1981 C1997 1.429 . S
C1981 H2003 0.950 . S
C1982 H1978 0.949 . S
C1982 C1990 1.574 . S
C1982 C1998 1.368 . S
H1983 C1991 0.950 . S
H1984 C1989 0.950 . S
H1985 C1990 0.949 . S
H1986 C1992 0.950 . S
H1987 C1993 0.950 . S
H1988 C1994 0.949 . S
C1989 H1984 0.950 . S
C1989 C1991 1.327 . S
C1989 C1995 1.429 . S
C1990 C1982 1.574 . S
C1990 H1985 0.949 . S
C1990 C1996 1.368 . S
C1991 C1975 1.349 . S
C1991 H1983 0.950 . S
C1991 C1989 1.327 . S
C1992 C1980 1.349 . S
C1992 H1986 0.950 . S
C1992 C1993 1.327 . S
C1993 H1987 0.950 . S
C1993 C1992 1.327 . S
C1993 C1997 1.429 . S
C1994 C1977 1.574 . S
C1994 H1988 0.949 . S
C1994 C1998 1.368 . S
C1995 C1976 1.429 . S
C1995 C1989 1.429 . S
C1995 C1996 1.523 . S
C1996 C1977 1.368 . S
C1996 C1990 1.368 . S
C1996 C1995 1.523 . S
C1997 C1981 1.429 . S
C1997 C1993 1.429 . S
C1997 C1998 1.523 . S
C1998 C1982 1.368 . S
C1998 C1994 1.368 . S
C1998 C1997 1.523 . S
H1999 C1974 0.950 . S
H2000 C1976 0.950 . S
H2001 C1977 0.949 . S
H2002 C1979 0.950 . S
H2003 C1981 0.950 . S
C570 C275 0.547 . S
C565 N6 0.604 . S
C600 C253 2.142 . S
C595 C57 2.219 . S
C630 C250 0.501 . S
C625 C61 0.491 . S
C655 N96 0.794 . S
C660 C262 0.793 . S
C685 C136 2.217 . S
C690 C245 2.137 . S
C720 C267 0.500 . S
C715 C160 0.490 . S
C745 N194 0.795 . S
C750 C272 0.795 . S
C775 N224 0.604 . S
C780 C268 0.547 . S
C810 C326 2.104 . S
C805 C10 2.167 . S
C835 N36 0.699 . S
C840 C376 0.677 . S
C870 C299 0.829 . S
C865 N74 0.824 . S
C900 C375 0.529 . S
C895 C100 0.532 . S
C925 C121 0.542 . S
C930 C304 0.539 . S
C960 C370 2.068 . S
C955 C177 2.125 . S
C985 C196 1.943 . S
C990 C329 1.954 . S
C1015 C226 2.221 . S
C1020 C361 2.175 . S
C1045 C27 2.228 . S
C1050 C353 2.181 . S
C1075 N134 0.706 . S
C1080 C383 0.687 . S
C1110 C307 0.843 . S
C1105 N156 0.836 . S
C1140 C358 0.543 . S
C1135 C181 0.546 . S
C1165 C211 2.174 . S
C1170 C316 2.108 . S
C1195 C76 2.139 . S
C1200 C380 2.085 . S
C1230 C322 1.963 . S
C1225 C117 1.952 . S
C1255 C40 0.555 . S
C1260 C321 0.552 . S
C1285 N216 0.604 . S
C1290 C437 0.547 . S
C1315 C147 2.219 . S
C1320 C415 2.142 . S
C1350 C412 0.501 . S
C1345 C151 0.491 . S
C1380 C424 0.793 . S
C1375 N186 0.794 . S
C1405 C46 2.217 . S
C1410 C407 2.137 . S
C1440 C429 0.500 . S
C1435 C70 0.490 . S
C1465 N104 0.795 . S
C1470 C434 0.795 . S
C1495 N14 0.604 . S
C1500 C430 0.547 . S
C1525 C220 2.168 . S
C1530 C488 2.104 . S
C1560 C538 0.677 . S
C1555 N126 0.699 . S
C1585 N164 0.824 . S
C1590 C461 0.829 . S
C1615 C190 0.532 . S
C1620 C537 0.529 . S
C1650 C466 0.539 . S
C1645 C31 0.542 . S
C1675 C87 2.125 . S
C1680 C532 2.068 . S
C1710 C491 1.954 . S
C1705 C106 1.943 . S
C1740 C523 2.175 . S
C1735 C16 2.221 . S
C1770 C515 2.181 . S
C1765 C237 2.228 . S
C1795 N44 0.706 . S
C1800 C545 0.687 . S
C1825 N66 0.836 . S
C1830 C469 0.843 . S
C1860 C520 0.543 . S
C1855 C91 0.546 . S
C1885 C1 2.174 . S
C1890 C478 2.108 . S
C1915 C166 2.139 . S
C1920 C542 2.085 . S
C1950 C484 1.963 . S
C1945 C207 1.952 . S
C1980 C483 0.552 . S
C1975 C130 0.555 . S
