# Generated by pormake.
# Topology gar, (4,6)-cn, num edge types: 1
# Building blocks:
#     Node 0, Type 0, BuildingBlock: QUQFOY_clean_sbu_1, # of connection points: 4
#     Node 1, Type 0, BuildingBlock: QUQFOY_clean_sbu_1, # of connection points: 4
#     Node 2, Type 0, BuildingBlock: QUQFOY_clean_sbu_1, # of connection points: 4
#     Node 3, Type 0, BuildingBlock: QUQFOY_clean_sbu_1, # of connection points: 4
#     Node 4, Type 0, BuildingBlock: QUQFOY_clean_sbu_1, # of connection points: 4
#     Node 5, Type 0, BuildingBlock: QUQFOY_clean_sbu_1, # of connection points: 4
#     Node 6, Type 0, BuildingBlock: QUQFOY_clean_sbu_1, # of connection points: 4
#     Node 7, Type 0, BuildingBlock: QUQFOY_clean_sbu_1, # of connection points: 4
#     Node 8, Type 0, BuildingBlock: QUQFOY_clean_sbu_1, # of connection points: 4
#     Node 9, Type 0, BuildingBlock: QUQFOY_clean_sbu_1, # of connection points: 4
#     Node 10, Type 0, BuildingBlock: QUQFOY_clean_sbu_1, # of connection points: 4
#     Node 11, Type 0, BuildingBlock: QUQFOY_clean_sbu_1, # of connection points: 4
#     Node 12, Type 0, BuildingBlock: QUQFOY_clean_sbu_1, # of connection points: 4
#     Node 13, Type 0, BuildingBlock: QUQFOY_clean_sbu_1, # of connection points: 4
#     Node 14, Type 0, BuildingBlock: QUQFOY_clean_sbu_1, # of connection points: 4
#     Node 15, Type 0, BuildingBlock: QUQFOY_clean_sbu_1, # of connection points: 4
#     Node 16, Type 0, BuildingBlock: QUQFOY_clean_sbu_1, # of connection points: 4
#     Node 17, Type 0, BuildingBlock: QUQFOY_clean_sbu_1, # of connection points: 4
#     Node 18, Type 0, BuildingBlock: QUQFOY_clean_sbu_1, # of connection points: 4
#     Node 19, Type 0, BuildingBlock: QUQFOY_clean_sbu_1, # of connection points: 4
#     Node 20, Type 0, BuildingBlock: QUQFOY_clean_sbu_1, # of connection points: 4
#     Node 21, Type 0, BuildingBlock: QUQFOY_clean_sbu_1, # of connection points: 4
#     Node 22, Type 0, BuildingBlock: QUQFOY_clean_sbu_1, # of connection points: 4
#     Node 23, Type 0, BuildingBlock: QUQFOY_clean_sbu_1, # of connection points: 4
#     Node 24, Type 1, BuildingBlock: KUMJIN_clean_sbu_1, # of connection points: 6
#     Node 25, Type 1, BuildingBlock: KUMJIN_clean_sbu_1, # of connection points: 6
#     Node 26, Type 1, BuildingBlock: KUMJIN_clean_sbu_1, # of connection points: 6
#     Node 27, Type 1, BuildingBlock: KUMJIN_clean_sbu_1, # of connection points: 6
#     Node 28, Type 1, BuildingBlock: KUMJIN_clean_sbu_1, # of connection points: 6
#     Node 29, Type 1, BuildingBlock: KUMJIN_clean_sbu_1, # of connection points: 6
#     Node 30, Type 1, BuildingBlock: KUMJIN_clean_sbu_1, # of connection points: 6
#     Node 31, Type 1, BuildingBlock: KUMJIN_clean_sbu_1, # of connection points: 6
#     Node 32, Type 1, BuildingBlock: KUMJIN_clean_sbu_1, # of connection points: 6
#     Node 33, Type 1, BuildingBlock: KUMJIN_clean_sbu_1, # of connection points: 6
#     Node 34, Type 1, BuildingBlock: KUMJIN_clean_sbu_1, # of connection points: 6
#     Node 35, Type 1, BuildingBlock: KUMJIN_clean_sbu_1, # of connection points: 6
#     Node 36, Type 1, BuildingBlock: KUMJIN_clean_sbu_1, # of connection points: 6
#     Node 37, Type 1, BuildingBlock: KUMJIN_clean_sbu_1, # of connection points: 6
#     Node 38, Type 1, BuildingBlock: KUMJIN_clean_sbu_1, # of connection points: 6
#     Node 39, Type 1, BuildingBlock: KUMJIN_clean_sbu_1, # of connection points: 6
#     Edge 40, Type (0, 1), BuildingBlock: ZUJKAS_clean_linker_0, # of connection points: 2
#     Edge 41, Type (0, 1), BuildingBlock: ZUJKAS_clean_linker_0, # of connection points: 2
#     Edge 42, Type (0, 1), BuildingBlock: ZUJKAS_clean_linker_0, # of connection points: 2
#     Edge 43, Type (0, 1), BuildingBlock: ZUJKAS_clean_linker_0, # of connection points: 2
#     Edge 44, Type (0, 1), BuildingBlock: ZUJKAS_clean_linker_0, # of connection points: 2
#     Edge 45, Type (0, 1), BuildingBlock: ZUJKAS_clean_linker_0, # of connection points: 2
#     Edge 46, Type (0, 1), BuildingBlock: ZUJKAS_clean_linker_0, # of connection points: 2
#     Edge 47, Type (0, 1), BuildingBlock: ZUJKAS_clean_linker_0, # of connection points: 2
#     Edge 48, Type (0, 1), BuildingBlock: ZUJKAS_clean_linker_0, # of connection points: 2
#     Edge 49, Type (0, 1), BuildingBlock: ZUJKAS_clean_linker_0, # of connection points: 2
#     Edge 50, Type (0, 1), BuildingBlock: ZUJKAS_clean_linker_0, # of connection points: 2
#     Edge 51, Type (0, 1), BuildingBlock: ZUJKAS_clean_linker_0, # of connection points: 2
#     Edge 52, Type (0, 1), BuildingBlock: ZUJKAS_clean_linker_0, # of connection points: 2
#     Edge 53, Type (0, 1), BuildingBlock: ZUJKAS_clean_linker_0, # of connection points: 2
#     Edge 54, Type (0, 1), BuildingBlock: ZUJKAS_clean_linker_0, # of connection points: 2
#     Edge 55, Type (0, 1), BuildingBlock: ZUJKAS_clean_linker_0, # of connection points: 2
#     Edge 56, Type (0, 1), BuildingBlock: ZUJKAS_clean_linker_0, # of connection points: 2
#     Edge 57, Type (0, 1), BuildingBlock: ZUJKAS_clean_linker_0, # of connection points: 2
#     Edge 58, Type (0, 1), BuildingBlock: ZUJKAS_clean_linker_0, # of connection points: 2
#     Edge 59, Type (0, 1), BuildingBlock: ZUJKAS_clean_linker_0, # of connection points: 2
#     Edge 60, Type (0, 1), BuildingBlock: ZUJKAS_clean_linker_0, # of connection points: 2
#     Edge 61, Type (0, 1), BuildingBlock: ZUJKAS_clean_linker_0, # of connection points: 2
#     Edge 62, Type (0, 1), BuildingBlock: ZUJKAS_clean_linker_0, # of connection points: 2
#     Edge 63, Type (0, 1), BuildingBlock: ZUJKAS_clean_linker_0, # of connection points: 2
#     Edge 64, Type (0, 1), BuildingBlock: ZUJKAS_clean_linker_0, # of connection points: 2
#     Edge 65, Type (0, 1), BuildingBlock: ZUJKAS_clean_linker_0, # of connection points: 2
#     Edge 66, Type (0, 1), BuildingBlock: ZUJKAS_clean_linker_0, # of connection points: 2
#     Edge 67, Type (0, 1), BuildingBlock: ZUJKAS_clean_linker_0, # of connection points: 2
#     Edge 68, Type (0, 1), BuildingBlock: ZUJKAS_clean_linker_0, # of connection points: 2
#     Edge 69, Type (0, 1), BuildingBlock: ZUJKAS_clean_linker_0, # of connection points: 2
#     Edge 70, Type (0, 1), BuildingBlock: ZUJKAS_clean_linker_0, # of connection points: 2
#     Edge 71, Type (0, 1), BuildingBlock: ZUJKAS_clean_linker_0, # of connection points: 2
#     Edge 72, Type (0, 1), BuildingBlock: ZUJKAS_clean_linker_0, # of connection points: 2
#     Edge 73, Type (0, 1), BuildingBlock: ZUJKAS_clean_linker_0, # of connection points: 2
#     Edge 74, Type (0, 1), BuildingBlock: ZUJKAS_clean_linker_0, # of connection points: 2
#     Edge 75, Type (0, 1), BuildingBlock: ZUJKAS_clean_linker_0, # of connection points: 2
#     Edge 76, Type (0, 1), BuildingBlock: ZUJKAS_clean_linker_0, # of connection points: 2
#     Edge 77, Type (0, 1), BuildingBlock: ZUJKAS_clean_linker_0, # of connection points: 2
#     Edge 78, Type (0, 1), BuildingBlock: ZUJKAS_clean_linker_0, # of connection points: 2
#     Edge 79, Type (0, 1), BuildingBlock: ZUJKAS_clean_linker_0, # of connection points: 2
#     Edge 80, Type (0, 1), BuildingBlock: ZUJKAS_clean_linker_0, # of connection points: 2
#     Edge 81, Type (0, 1), BuildingBlock: ZUJKAS_clean_linker_0, # of connection points: 2
#     Edge 82, Type (0, 1), BuildingBlock: ZUJKAS_clean_linker_0, # of connection points: 2
#     Edge 83, Type (0, 1), BuildingBlock: ZUJKAS_clean_linker_0, # of connection points: 2
#     Edge 84, Type (0, 1), BuildingBlock: ZUJKAS_clean_linker_0, # of connection points: 2
#     Edge 85, Type (0, 1), BuildingBlock: ZUJKAS_clean_linker_0, # of connection points: 2
#     Edge 86, Type (0, 1), BuildingBlock: ZUJKAS_clean_linker_0, # of connection points: 2
#     Edge 87, Type (0, 1), BuildingBlock: ZUJKAS_clean_linker_0, # of connection points: 2
#     Edge 88, Type (0, 1), BuildingBlock: ZUJKAS_clean_linker_0, # of connection points: 2
#     Edge 89, Type (0, 1), BuildingBlock: ZUJKAS_clean_linker_0, # of connection points: 2
#     Edge 90, Type (0, 1), BuildingBlock: ZUJKAS_clean_linker_0, # of connection points: 2
#     Edge 91, Type (0, 1), BuildingBlock: ZUJKAS_clean_linker_0, # of connection points: 2
#     Edge 92, Type (0, 1), BuildingBlock: ZUJKAS_clean_linker_0, # of connection points: 2
#     Edge 93, Type (0, 1), BuildingBlock: ZUJKAS_clean_linker_0, # of connection points: 2
#     Edge 94, Type (0, 1), BuildingBlock: ZUJKAS_clean_linker_0, # of connection points: 2
#     Edge 95, Type (0, 1), BuildingBlock: ZUJKAS_clean_linker_0, # of connection points: 2
#     Edge 96, Type (0, 1), BuildingBlock: ZUJKAS_clean_linker_0, # of connection points: 2
#     Edge 97, Type (0, 1), BuildingBlock: ZUJKAS_clean_linker_0, # of connection points: 2
#     Edge 98, Type (0, 1), BuildingBlock: ZUJKAS_clean_linker_0, # of connection points: 2
#     Edge 99, Type (0, 1), BuildingBlock: ZUJKAS_clean_linker_0, # of connection points: 2
#     Edge 100, Type (0, 1), BuildingBlock: ZUJKAS_clean_linker_0, # of connection points: 2
#     Edge 101, Type (0, 1), BuildingBlock: ZUJKAS_clean_linker_0, # of connection points: 2
#     Edge 102, Type (0, 1), BuildingBlock: ZUJKAS_clean_linker_0, # of connection points: 2
#     Edge 103, Type (0, 1), BuildingBlock: ZUJKAS_clean_linker_0, # of connection points: 2
#     Edge 104, Type (0, 1), BuildingBlock: ZUJKAS_clean_linker_0, # of connection points: 2
#     Edge 105, Type (0, 1), BuildingBlock: ZUJKAS_clean_linker_0, # of connection points: 2
#     Edge 106, Type (0, 1), BuildingBlock: ZUJKAS_clean_linker_0, # of connection points: 2
#     Edge 107, Type (0, 1), BuildingBlock: ZUJKAS_clean_linker_0, # of connection points: 2
#     Edge 108, Type (0, 1), BuildingBlock: ZUJKAS_clean_linker_0, # of connection points: 2
#     Edge 109, Type (0, 1), BuildingBlock: ZUJKAS_clean_linker_0, # of connection points: 2
#     Edge 110, Type (0, 1), BuildingBlock: ZUJKAS_clean_linker_0, # of connection points: 2
#     Edge 111, Type (0, 1), BuildingBlock: ZUJKAS_clean_linker_0, # of connection points: 2
#     Edge 112, Type (0, 1), BuildingBlock: ZUJKAS_clean_linker_0, # of connection points: 2
#     Edge 113, Type (0, 1), BuildingBlock: ZUJKAS_clean_linker_0, # of connection points: 2
#     Edge 114, Type (0, 1), BuildingBlock: ZUJKAS_clean_linker_0, # of connection points: 2
#     Edge 115, Type (0, 1), BuildingBlock: ZUJKAS_clean_linker_0, # of connection points: 2
#     Edge 116, Type (0, 1), BuildingBlock: ZUJKAS_clean_linker_0, # of connection points: 2
#     Edge 117, Type (0, 1), BuildingBlock: ZUJKAS_clean_linker_0, # of connection points: 2
#     Edge 118, Type (0, 1), BuildingBlock: ZUJKAS_clean_linker_0, # of connection points: 2
#     Edge 119, Type (0, 1), BuildingBlock: ZUJKAS_clean_linker_0, # of connection points: 2
#     Edge 120, Type (0, 1), BuildingBlock: ZUJKAS_clean_linker_0, # of connection points: 2
#     Edge 121, Type (0, 1), BuildingBlock: ZUJKAS_clean_linker_0, # of connection points: 2
#     Edge 122, Type (0, 1), BuildingBlock: ZUJKAS_clean_linker_0, # of connection points: 2
#     Edge 123, Type (0, 1), BuildingBlock: ZUJKAS_clean_linker_0, # of connection points: 2
#     Edge 124, Type (0, 1), BuildingBlock: ZUJKAS_clean_linker_0, # of connection points: 2
#     Edge 125, Type (0, 1), BuildingBlock: ZUJKAS_clean_linker_0, # of connection points: 2
#     Edge 126, Type (0, 1), BuildingBlock: ZUJKAS_clean_linker_0, # of connection points: 2
#     Edge 127, Type (0, 1), BuildingBlock: ZUJKAS_clean_linker_0, # of connection points: 2
#     Edge 128, Type (0, 1), BuildingBlock: ZUJKAS_clean_linker_0, # of connection points: 2
#     Edge 129, Type (0, 1), BuildingBlock: ZUJKAS_clean_linker_0, # of connection points: 2
#     Edge 130, Type (0, 1), BuildingBlock: ZUJKAS_clean_linker_0, # of connection points: 2
#     Edge 131, Type (0, 1), BuildingBlock: ZUJKAS_clean_linker_0, # of connection points: 2
#     Edge 132, Type (0, 1), BuildingBlock: ZUJKAS_clean_linker_0, # of connection points: 2
#     Edge 133, Type (0, 1), BuildingBlock: ZUJKAS_clean_linker_0, # of connection points: 2
#     Edge 134, Type (0, 1), BuildingBlock: ZUJKAS_clean_linker_0, # of connection points: 2
#     Edge 135, Type (0, 1), BuildingBlock: ZUJKAS_clean_linker_0, # of connection points: 2
# Relax obj value: 0.077
# Max RMSD: 0.182
# Mean RMSD: 0.140
data_MOF--net-gar--node1-QUQFOY_clean_sbu_1--node2-KUMJIN_clean_sbu_1--edge1-ZUJKAS_clean_linker_0
_symmetry_space_group_name_H-M    P1
_symmetry_Int_Tables_number       1
_symmetry_cell_setting            triclinic
loop_
_symmetry_equiv_pos_as_xyz
'x, y, z'
_cell_length_a     77.542865
_cell_length_b     77.542526
_cell_length_c     73.147299
_cell_angle_alpha  95.942252
_cell_angle_beta   95.929657
_cell_angle_gamma 102.66709
loop_
_atom_site_label
_atom_site_type_symbol
_atom_site_fract_x
_atom_site_fract_y
_atom_site_fract_z
_atom_type_partial_charge
O0 O 0.04439 0.2733 0.38176 0.0
Cd1 Cd 0.04499 0.28848 0.35952 0.0
Cd2 Cd 0.02931 0.30966 0.39296 0.0
O3 O 0.03454 0.28763 0.40505 0.0
O4 O 0.05846 0.27575 0.34139 0.0
O5 O 0.07002 0.30279 0.35524 0.0
C6 C 0.07207 0.28916 0.34465 0.0
C7 C 0.03236 0.33782 0.41167 0.0
C8 C 0.04018 0.27436 0.39822 0.0
C9 C 1.00637 0.29617 0.35408 0.0
O10 O 0.00876 0.30335 0.37092 0.0
O11 O 0.01888 0.29045 0.34681 0.0
O12 O 0.01913 0.32452 0.41182 0.0
O13 O 0.04432 0.33522 0.40134 0.0
O14 O 1.00639 0.72403 0.69045 0.0
Cd15 Cd 0.0099 0.74651 0.7104 0.0
Cd16 Cd 0.02292 0.7625 0.68052 0.0
O17 O 0.01231 0.73754 0.66586 0.0
O18 O 0.99046 0.7414 0.72792 0.0
O19 O 0.99066 0.76148 0.70894 0.0
C20 C 0.98259 0.75281 0.72102 0.0
C21 C 0.02146 0.78803 0.66596 0.0
C22 C 0.00775 0.7233 0.67315 0.0
C23 C 0.05058 0.76051 0.71307 0.0
O24 O 0.04675 0.76409 0.69677 0.0
O25 O 0.03784 0.75482 0.72251 0.0
O26 O 0.03157 0.77767 0.66124 0.0
O27 O 0.01161 0.78371 0.67872 0.0
O28 O 0.57334 0.79841 0.87382 0.0
Cd29 Cd 0.55524 0.7974 0.89325 0.0
Cd30 Cd 0.53494 0.81053 0.86093 0.0
O31 O 0.55839 0.80532 0.84906 0.0
O32 O 0.56457 0.78352 0.91241 0.0
O33 O 0.5387 0.77333 0.89495 0.0
C34 C 0.55054 0.77078 0.90752 0.0
C35 C 0.50445 0.80376 0.84538 0.0
C36 C 0.57236 0.8012 0.85691 0.0
C37 C 0.54487 0.83334 0.90038 0.0
O38 O 0.53859 0.8312 0.88323 0.0
O39 O 0.55168 0.8214 0.90712 0.0
O40 O 0.51644 0.8172 0.84233 0.0
O41 O 0.5099 0.79324 0.85609 0.0
O42 O 0.50883 0.21442 0.18653 0.0
Cd43 Cd 0.51153 0.23708 0.20665 0.0
Cd44 Cd 0.52702 0.25331 0.17801 0.0
O45 O 0.518 0.22808 0.16292 0.0
O46 O 0.49142 0.23255 0.22376 0.0
O47 O 0.49208 0.25202 0.20417 0.0
C48 C 0.48373 0.24385 0.21639 0.0
C49 C 0.52497 0.27934 0.16472 0.0
C50 C 0.51197 0.21379 0.16966 0.0
C51 C 0.55279 0.25234 0.21223 0.0
O52 O 0.55017 0.25612 0.19584 0.0
O53 O 0.53923 0.24572 0.22026 0.0
O54 O 0.5359 0.26988 0.16 0.0
O55 O 0.51441 0.27365 0.17645 0.0
O56 O 0.04465 0.75908 0.1219 0.0
Cd57 Cd 0.04476 0.78276 0.13787 0.0
Cd58 Cd 0.05922 0.79732 0.10775 0.0
O59 O 0.05051 0.76918 0.09548 0.0
O60 O 0.02993 0.77433 0.15755 0.0
O61 O 0.02283 0.79309 0.13909 0.0
C62 C 0.01905 0.78381 0.15242 0.0
C63 C 0.05309 0.82513 0.09756 0.0
C64 C 0.04687 0.75601 0.10499 0.0
C65 C 0.0836 0.79945 0.14433 0.0
O66 O 0.08239 0.80058 0.12694 0.0
O67 O 0.06962 0.79484 0.15203 0.0
O68 O 0.06342 0.81653 0.08959 0.0
O69 O 0.04536 0.81759 0.11051 0.0
O70 O 0.53493 0.76455 0.43642 0.0
Cd71 Cd 0.51961 0.76366 0.4584 0.0
Cd72 Cd 0.49653 0.77682 0.42467 0.0
O73 O 0.51884 0.7719 0.4126 0.0
O74 O 0.5318 0.75012 0.47686 0.0
O75 O 0.50522 0.73843 0.46185 0.0
C76 C 0.51854 0.73639 0.47292 0.0
C77 C 0.46852 0.77374 0.40563 0.0
C78 C 0.53287 0.76759 0.41961 0.0
C79 C 0.50971 0.80117 0.46315 0.0
O80 O 0.50168 0.79752 0.4466 0.0
O81 O 0.51706 0.78971 0.47058 0.0
O82 O 0.48197 0.7868 0.40542 0.0
O83 O 0.47095 0.76186 0.41612 0.0
O84 O 0.5505 0.25615 0.62019 0.0
Cd85 Cd 0.55301 0.27919 0.63826 0.0
Cd86 Cd 0.57007 0.29563 0.6102 0.0
O87 O 0.56198 0.26809 0.59665 0.0
O88 O 0.53711 0.27061 0.65704 0.0
O89 O 0.53206 0.29098 0.63966 0.0
C90 C 0.5271 0.28101 0.65214 0.0
C91 C 0.56311 0.32329 0.60062 0.0
C92 C 0.55508 0.25423 0.60405 0.0
C93 C 0.59283 0.29488 0.64696 0.0
O94 O 0.59258 0.29831 0.63019 0.0
O95 O 0.5783 0.2888 0.6533 0.0
O96 O 0.57388 0.31535 0.59259 0.0
O97 O 0.55559 0.31529 0.61342 0.0
O98 O 0.00771 0.23473 0.94363 0.0
Cd99 Cd 0.00928 0.2535 0.92512 0.0
Cd100 Cd 0.99661 0.27309 0.9583 0.0
O101 O 1.00215 0.24902 0.96947 0.0
O102 O 0.0224 0.24435 0.90509 0.0
O103 O 0.0338 0.2693 0.92377 0.0
C104 C 0.03566 0.25782 0.91044 0.0
C105 C 1.00361 0.3038 0.97394 0.0
C106 C 1.00553 0.23501 0.9607 0.0
C107 C 0.97353 0.26407 0.91877 0.0
O108 O 0.9757 0.26995 0.93605 0.0
O109 O 0.98543 0.25747 0.91172 0.0
O110 O 0.99037 0.29174 0.97731 0.0
O111 O 0.0139 0.2983 0.96297 0.0
O112 O 0.38767 0.01608 0.28026 0.0
Cd113 Cd 0.37574 0.01991 0.30349 0.0
Cd114 Cd 0.40468 0.01831 0.31697 0.0
O115 O 0.41378 0.03012 0.29509 0.0
O116 O 0.35593 0.03009 0.2952 0.0
O117 O 0.37927 0.04467 0.31556 0.0
C118 C 0.36459 0.04461 0.30541 0.0
C119 C 0.41517 0.02729 0.34714 0.0
C120 C 0.40376 0.02397 0.27998 0.0
C121 C 0.37568 0.98686 0.3145 0.0
O122 O 0.39186 0.99188 0.31194 0.0
O123 O 0.36619 0.99818 0.31563 0.0
O124 O 0.42427 0.01971 0.33637 0.0
O125 O 0.40059 0.03107 0.34039 0.0
O126 O 0.27934 0.17195 0.54897 0.0
Cd127 Cd 0.27906 0.1558 0.52453 0.0
Cd128 Cd 0.26681 0.18338 0.51145 0.0
O129 O 0.27636 0.19693 0.53843 0.0
O130 O 0.29218 0.1385 0.53414 0.0
O131 O 0.30141 0.15495 0.51258 0.0
C132 C 0.30395 0.14333 0.52337 0.0
C133 C 0.27171 0.19454 0.48271 0.0
C134 C 0.2788 0.18825 0.55204 0.0
C135 C 0.241 0.14753 0.51078 0.0
O136 O 0.24324 0.16429 0.51081 0.0
O137 O 0.25425 0.14055 0.51353 0.0
O138 O 0.26141 0.20028 0.49346 0.0
O139 O 0.28007 0.18309 0.48868 0.0
O140 O 0.12711 0.02541 0.7623 0.0
Cd141 Cd 0.14602 0.02826 0.78473 0.0
Cd142 Cd 0.12208 0.04484 0.80114 0.0
O143 O 0.10743 0.03828 0.77446 0.0
O144 O 0.16221 0.01458 0.77392 0.0
O145 O 0.1488 0.00721 0.79808 0.0
C146 C 0.15916 1.0039 0.78613 0.0
C147 C 0.11038 0.03929 0.82915 0.0
C148 C 0.11265 0.03057 0.76047 0.0
C149 C 0.15869 0.06726 0.79821 0.0
O150 O 0.14349 0.06662 0.8035 0.0
O151 O 0.16258 0.05324 0.79096 0.0
O152 O 0.1073 0.05209 0.82032 0.0
O153 O 0.11936 0.02888 0.82164 0.0
O154 O 0.28608 0.92325 0.0313 0.0
Cd155 Cd 0.28326 0.93522 0.00776 0.0
Cd156 Cd 0.28382 0.90591 0.99535 0.0
O157 O 0.27066 0.89763 0.01663 0.0
O158 O 0.27241 0.95462 0.01518 0.0
O159 O 0.25905 0.93115 0.99418 0.0
C160 C 0.25839 0.94556 0.00441 0.0
C161 C 0.27805 0.89191 0.96591 0.0
C162 C 0.27731 0.90748 0.03171 0.0
C163 C 0.31619 0.93407 0.99869 0.0
O164 O 0.3102 0.91823 0.00179 0.0
O165 O 0.30558 0.94415 0.99634 0.0
O166 O 0.28474 0.88472 0.97923 0.0
O167 O 0.27302 0.90656 0.96975 0.0
O168 O 0.28946 0.38372 0.07633 0.0
Cd169 Cd 0.29031 0.40184 0.05774 0.0
Cd170 Cd 0.29871 0.37313 0.03517 0.0
O171 O 0.29052 0.35975 0.05763 0.0
O172 O 0.27722 0.41897 0.06875 0.0
O173 O 0.26785 0.40253 0.04151 0.0
C174 C 0.26521 0.41392 0.0545 0.0
C175 C 0.29267 0.35842 0.00429 0.0
C176 C 0.28875 0.36714 0.07354 0.0
C177 C 0.32675 0.40882 0.04692 0.0
O178 O 0.32256 0.39259 0.03956 0.0
O179 O 0.31535 0.41584 0.0543 0.0
O180 O 0.30441 0.35506 0.01634 0.0
O181 O 0.28351 0.3695 0.00993 0.0
O182 O 0.76653 0.12706 0.08012 0.0
Cd183 Cd 0.76702 0.11392 0.05472 0.0
Cd184 Cd 0.76648 0.1434 0.04751 0.0
O185 O 0.78244 0.1514 0.07203 0.0
O186 O 0.77977 0.09534 0.05821 0.0
O187 O 0.78997 0.11994 0.04535 0.0
C188 C 0.79257 0.10565 0.05174 0.0
C189 C 0.77054 0.15453 0.02044 0.0
C190 C 0.77658 0.14248 0.08455 0.0
C191 C 0.73377 0.11676 0.0412 0.0
O192 O 0.74051 0.13242 0.04912 0.0
O193 O 0.74364 0.10614 0.0378 0.0
O194 O 0.76548 0.16356 0.03389 0.0
O195 O 0.77469 0.13963 0.02302 0.0
O196 O 0.17975 0.53807 0.23953 0.0
Cd197 Cd 0.19613 0.53778 0.26285 0.0
Cd198 Cd 0.16885 0.54019 0.27731 0.0
O199 O 0.15627 0.52669 0.25246 0.0
O200 O 0.21191 0.52281 0.25584 0.0
O201 O 0.19134 0.51614 0.27499 0.0
C202 C 0.20315 0.51158 0.26541 0.0
C203 C 0.15459 0.53746 0.30325 0.0
C204 C 0.16342 0.53048 0.23815 0.0
C205 C 0.19868 0.57211 0.27849 0.0
O206 O 0.18203 0.56592 0.27731 0.0
O207 O 0.20904 0.56178 0.27612 0.0
O208 O 0.14864 0.54469 0.28963 0.0
O209 O 0.16827 0.53073 0.30167 0.0
O210 O 0.79118 0.88352 0.57983 0.0
Cd211 Cd 0.79236 0.89981 0.55925 0.0
Cd212 Cd 0.80225 0.87131 0.54095 0.0
O213 O 0.79492 0.85898 0.56419 0.0
O214 O 0.77966 0.91801 0.56837 0.0
O215 O 0.7695 0.89894 0.54292 0.0
C216 C 0.76729 0.91168 0.55466 0.0
C217 C 0.79383 0.85762 0.51006 0.0
C218 C 0.7917 0.86719 0.57905 0.0
C219 C 0.82931 0.90705 0.54915 0.0
O220 O 0.82619 0.89032 0.54425 0.0
O221 O 0.81707 0.91405 0.55462 0.0
O222 O 0.80608 0.85345 0.52084 0.0
O223 O 0.78538 0.8688 0.51705 0.0
O224 O 0.92341 0.01628 0.23889 0.0
Cd225 Cd 0.90769 0.01569 0.26 0.0
Cd226 Cd 0.93616 1.0051 0.27678 0.0
O227 O 0.94846 0.01325 0.25403 0.0
O228 O 0.88921 0.02767 0.25007 0.0
O229 O 0.90809 0.03888 0.27543 0.0
C230 C 0.8953 0.04047 0.26339 0.0
C231 C 0.94908 0.01374 0.30777 0.0
C232 C 0.9398 0.0161 0.2393 0.0
C233 C 0.90063 0.97857 0.26919 0.0
O234 O 0.91747 0.98098 0.27233 0.0
O235 O 0.89361 0.99141 0.26569 0.0
O236 O 0.95406 1.0019 0.29718 0.0
O237 O 0.93733 0.02148 0.30061 0.0
O238 O 0.26799 0.62695 0.5762 0.0
Cd239 Cd 0.26809 0.61271 0.55127 0.0
Cd240 Cd 0.26812 0.64196 0.54207 0.0
O241 O 0.28352 0.65089 0.56697 0.0
O242 O 0.28141 0.59467 0.55563 0.0
O243 O 0.29058 0.61818 0.54082 0.0
C244 C 0.29372 0.60448 0.54805 0.0
C245 C 0.2731 0.65371 0.51535 0.0
C246 C 0.2777 0.64261 0.57996 0.0
C247 C 0.2346 0.6147 0.53762 0.0
O248 O 0.24182 0.63097 0.54311 0.0
O249 O 0.24422 0.60358 0.53552 0.0
O250 O 0.26728 0.66235 0.52847 0.0
O251 O 0.27714 0.63877 0.51782 0.0
O252 O 0.42485 0.5198 0.74267 0.0
Cd253 Cd 0.40736 0.51805 0.76226 0.0
Cd254 Cd 0.43669 0.50739 0.78162 0.0
O255 O 0.44899 0.51564 0.75881 0.0
O256 O 0.38856 0.52945 0.75136 0.0
O257 O 0.40604 0.54097 0.77748 0.0
C258 C 0.39363 0.54227 0.76483 0.0
C259 C 0.4509 0.51422 0.81264 0.0
C260 C 0.44116 0.51911 0.74389 0.0
C261 C 0.40124 0.4803 0.77134 0.0
O262 O 0.41793 0.48343 0.7765 0.0
O263 O 0.39402 0.49271 0.76663 0.0
O264 O 0.45581 0.50356 0.80059 0.0
O265 O 0.43843 0.5218 0.80695 0.0
O266 O 0.68035 0.039 0.7363 0.0
Cd267 Cd 0.69475 0.04053 0.76159 0.0
Cd268 Cd 0.66605 0.04274 0.77018 0.0
O269 O 0.65642 0.02529 0.74689 0.0
O270 O 0.71203 0.02631 0.75805 0.0
O271 O 0.689 0.0195 0.77434 0.0
C272 C 0.70221 0.01528 0.767 0.0
C273 C 0.65396 0.04027 0.7971 0.0
C274 C 0.66453 0.02958 0.73329 0.0
C275 C 0.69413 0.07488 0.77242 0.0
O276 O 0.67781 0.06815 0.76676 0.0
O277 O 0.70471 0.06495 0.77568 0.0
O278 O 0.6457 0.04528 0.78312 0.0
O279 O 0.66894 0.03594 0.79542 0.0
O280 O 0.7763 0.67659 0.05512 0.0
Cd281 Cd 0.77699 0.66046 0.03097 0.0
Cd282 Cd 0.76419 0.68691 0.01756 0.0
O283 O 0.77323 0.70128 0.044 0.0
O284 O 0.79029 0.64375 0.04127 0.0
O285 O 0.79976 0.6601 0.01971 0.0
C286 C 0.80225 0.64866 0.03074 0.0
C287 C 0.76886 0.69798 0.98901 0.0
C288 C 0.77561 0.69286 0.05778 0.0
C289 C 0.73925 0.65066 0.01688 0.0
O290 O 0.74098 0.66735 0.01689 0.0
O291 O 0.75284 0.64423 0.01967 0.0
O292 O 0.75769 0.7028 0.99921 0.0
O293 O 0.77821 0.68751 0.99543 0.0
O294 O 0.88712 0.52515 0.78603 0.0
Cd295 Cd 0.87396 0.52532 0.80891 0.0
Cd296 Cd 0.90224 0.52028 0.82365 0.0
O297 O 0.91376 0.52932 0.80181 0.0
O298 O 0.85526 0.5373 0.80163 0.0
O299 O 0.87724 0.5484 0.82483 0.0
C300 C 0.86354 0.55016 0.81423 0.0
C301 C 0.91375 0.52895 0.85376 0.0
C302 C 0.90392 0.52845 0.78667 0.0
C303 C 0.8711 0.49015 0.81838 0.0
O304 O 0.88791 0.49466 0.81944 0.0
O305 O 0.86192 0.50161 0.81635 0.0
O306 O 0.9212 0.51944 0.84297 0.0
O307 O 0.90043 0.53484 0.84706 0.0
O308 O 0.792 0.41984 0.53832 0.0
Cd309 Cd 0.78777 0.43234 0.51561 0.0
Cd310 Cd 0.79096 0.4046 0.50133 0.0
O311 O 0.77882 0.394 0.5224 0.0
O312 O 0.77695 0.451 0.5251 0.0
O313 O 0.76315 0.42862 0.50316 0.0
C314 C 0.76275 0.44258 0.51428 0.0
C315 C 0.78453 0.393 0.47138 0.0
C316 C 0.78438 0.40358 0.53786 0.0
C317 C 0.82104 0.43547 0.50529 0.0
O318 O 0.8169 0.41905 0.50705 0.0
O319 O 0.8092 0.44432 0.50474 0.0
O320 O 0.79291 0.38546 0.48319 0.0
O321 O 0.77811 0.40637 0.47701 0.0
O322 O 0.63205 0.52385 0.26745 0.0
Cd323 Cd 0.65012 0.52669 0.29079 0.0
Cd324 Cd 0.6247 0.54175 0.30622 0.0
O325 O 0.61046 0.53376 0.2793 0.0
O326 O 0.667 0.51328 0.28087 0.0
O327 O 0.65254 0.50556 0.30428 0.0
C328 C 0.66339 0.50239 0.2928 0.0
C329 C 0.61361 0.53612 0.33468 0.0
C330 C 0.61683 0.52746 0.26531 0.0
C331 C 0.6607 0.56585 0.30424 0.0
O332 O 0.64486 0.56454 0.30807 0.0
O333 O 0.66582 0.55208 0.29822 0.0
O334 O 0.6083 0.54718 0.32465 0.0
O335 O 0.62455 0.52743 0.3281 0.0
Eu336 Eu 0.05569 0.04476 0.05269 0.0
C337 C 0.99475 0.98347 0.00768 0.0
N338 N 1.00401 0.99912 0.00305 0.0
C339 C 1.00241 0.9857 0.9717 0.0
C340 C 0.98882 0.9683 0.99424 0.0
C341 C 0.0078 1.00047 0.98535 0.0
C342 C 0.99284 0.96957 0.97613 0.0
C343 C 0.9806 0.96673 0.03066 0.0
C344 C 0.99066 0.98269 0.02579 0.0
C345 C 0.97467 0.95169 0.01724 0.0
C346 C 0.97875 0.95248 0.99911 0.0
Eu347 Eu 0.00846 0.02378 0.02614 0.0
N348 N 0.9961 0.99759 0.03848 0.0
C349 C 0.97635 0.96645 0.04877 0.0
C350 C 0.99128 0.99753 0.05587 0.0
C351 C 0.98169 0.98194 0.06142 0.0
H352 H 0.01411 0.01312 0.98141 0.0
H353 H 0.97796 0.98203 0.07528 0.0
H354 H 0.04864 0.05666 0.09667 0.0
H355 H 0.09685 0.08314 0.00816 0.0
H356 H 0.994 0.00954 0.06529 0.0
H357 H 0.96857 0.95447 0.053 0.0
H358 H 0.07863 0.05621 0.01786 0.0
H359 H 1.00525 0.98689 0.95764 0.0
H360 H 0.96674 0.93941 0.02071 0.0
H361 H 0.9739 0.94079 0.98889 0.0
H362 H 0.05526 0.08351 0.11952 0.0
H363 H 0.98838 0.95825 0.96541 0.0
H364 H 0.103 0.11192 0.02849 0.0
N365 N 0.0603 0.06996 0.07542 0.0
C366 C 0.07027 0.08539 0.07108 0.0
C367 C 0.05931 0.08431 0.10585 0.0
C368 C 0.07485 0.10102 0.084 0.0
C369 C 0.0552 0.06913 0.09268 0.0
C370 C 0.06907 0.10036 0.10146 0.0
N371 N 0.07249 0.06998 0.04199 0.0
C372 C 0.0802 0.06888 0.02615 0.0
C373 C 0.08754 0.101 0.04938 0.0
C374 C 0.07655 0.0854 0.05393 0.0
C375 C 0.09446 0.10024 0.03245 0.0
C376 C 0.09095 0.08405 0.0209 0.0
H377 H 0.07244 0.11204 0.1118 0.0
H378 H 0.08912 0.12877 0.08908 0.0
H379 H 0.1002 0.12875 0.05879 0.0
O380 O 0.07924 0.03449 0.04819 0.0
O381 O 0.04077 0.06612 0.04353 0.0
O382 O 0.01855 0.05233 0.01952 0.0
O383 O 0.07651 0.04695 0.07579 0.0
O384 O 0.05391 0.03116 0.02291 0.0
O385 O 0.02818 0.03554 0.00748 0.0
O386 O 0.98246 0.02785 0.03197 0.0
O387 O 0.02615 1.00392 0.03253 0.0
O388 O 0.04263 0.01713 0.06006 0.0
O389 O 0.98672 0.02003 0.00383 0.0
O390 O 0.0098 0.03933 0.05491 0.0
O391 O 0.03486 0.03412 0.07032 0.0
C392 C 0.02896 0.06691 0.02932 0.0
C393 C 0.10319 0.03611 0.07309 0.0
C394 C 0.12759 0.0217 0.0694 0.0
C395 C 0.13484 0.02811 0.08789 0.0
C396 C 0.11056 0.04259 0.09154 0.0
C397 C 0.12636 0.0386 0.09887 0.0
C398 C 0.11182 0.0258 0.06208 0.0
C399 C 0.04459 0.03366 0.00771 0.0
C400 C 0.08603 0.03915 0.06557 0.0
C401 C 0.08545 0.11667 0.07931 0.0
C402 C 0.09176 0.11666 0.06205 0.0
C403 C 0.03531 1.00262 0.04839 0.0
C404 C 0.96282 0.03387 0.00725 0.0
C405 C 0.94111 0.05155 0.01239 0.0
C406 C 0.9352 0.04873 0.99325 0.0
C407 C 0.95675 0.03114 0.98815 0.0
C408 C 0.95497 0.04415 0.0193 0.0
C409 C 0.94306 0.03862 0.98122 0.0
C410 C 0.01928 0.03793 0.07044 0.0
C411 C 0.97547 0.02395 0.0146 0.0
H412 H 0.14713 0.02519 0.09373 0.0
H413 H 0.10405 0.05058 0.10033 0.0
H414 H 0.132 0.04359 0.11309 0.0
H415 H 0.10607 0.02055 0.04791 0.0
H416 H 0.92414 0.0539 0.98767 0.0
H417 H 0.96224 0.0228 0.97862 0.0
H418 H 0.9593 0.04604 0.0341 0.0
H419 H 0.93825 0.03623 0.96654 0.0
Eu420 Eu 0.26086 0.78222 0.29964 0.0
C421 C 0.29816 0.74906 0.22899 0.0
N422 N 0.30549 0.76231 0.24307 0.0
C423 C 0.33054 0.74937 0.24894 0.0
C424 C 0.30649 0.73498 0.22476 0.0
C425 C 0.32159 0.76287 0.25285 0.0
C426 C 0.32287 0.73525 0.23497 0.0
C427 C 0.27425 0.73617 0.20408 0.0
C428 C 0.28225 0.74966 0.21885 0.0
C429 C 0.28212 0.72174 0.20023 0.0
C430 C 0.29824 0.72118 0.2105 0.0
Eu431 Eu 0.28872 0.78348 0.25018 0.0
N432 N 0.27494 0.76375 0.22304 0.0
C433 C 0.25883 0.73784 0.19335 0.0
C434 C 0.26097 0.76628 0.21152 0.0
C435 C 0.25241 0.75318 0.19683 0.0
H436 H 0.32756 0.7737 0.2637 0.0
H437 H 0.24097 0.755 0.18809 0.0
H438 H 0.21997 0.78958 0.29012 0.0
H439 H 0.31439 0.81481 0.35559 0.0
H440 H 0.25642 0.77844 0.21342 0.0
H441 H 0.25221 0.72773 0.18194 0.0
H442 H 0.29917 0.79178 0.33005 0.0
H443 H 0.34329 0.74981 0.25678 0.0
H444 H 0.27605 0.71113 0.18909 0.0
H445 H 0.30432 0.71012 0.20718 0.0
H446 H 0.2028 0.81113 0.30069 0.0
H447 H 0.32976 0.72474 0.23208 0.0
H448 H 0.29947 0.8381 0.3671 0.0
N449 N 0.2428 0.8012 0.30981 0.0
C450 C 0.25014 0.81381 0.32452 0.0
C451 C 0.21613 0.8121 0.30744 0.0
C452 C 0.24084 0.82649 0.33089 0.0
C453 C 0.22595 0.79998 0.30142 0.0
C454 C 0.22366 0.8255 0.32214 0.0
N455 N 0.27607 0.80226 0.32607 0.0
C456 C 0.29256 0.80198 0.33446 0.0
C457 C 0.27542 0.82773 0.34774 0.0
C458 C 0.26722 0.81435 0.33292 0.0
C459 C 0.29268 0.828 0.35576 0.0
C460 C 0.30118 0.81493 0.34923 0.0
H461 H 0.21608 0.83499 0.32664 0.0
H462 H 0.24215 0.84981 0.35054 0.0
H463 H 0.27244 0.85095 0.36522 0.0
O464 O 0.26141 0.7608 0.31658 0.0
O465 O 0.273 0.81087 0.29698 0.0
O466 O 0.28042 0.79493 0.27504 0.0
O467 O 0.23623 0.76684 0.30735 0.0
O468 O 0.28825 0.77449 0.30072 0.0
O469 O 0.30557 0.78772 0.27881 0.0
O470 O 0.28949 0.80587 0.2344 0.0
O471 O 0.28049 0.75641 0.25879 0.0
O472 O 0.25901 0.76563 0.27212 0.0
O473 O 0.3141 0.79904 0.2443 0.0
O474 O 0.25984 0.7875 0.24579 0.0
O475 O 0.24429 0.78474 0.27223 0.0
C476 C 0.28107 0.81086 0.28258 0.0
C477 C 0.23955 0.75683 0.33669 0.0
C478 C 0.2428 0.7446 0.36563 0.0
C479 C 0.23202 0.7551 0.37316 0.0
C480 C 0.22868 0.76732 0.34423 0.0
C481 C 0.22487 0.76633 0.3624 0.0
C482 C 0.24637 0.74533 0.3474 0.0
C483 C 0.30363 0.77973 0.29398 0.0
C484 C 0.24442 0.75787 0.31794 0.0
C485 C 0.24902 0.83986 0.34559 0.0
C486 C 0.26627 0.8405 0.35396 0.0
C487 C 0.26755 0.75319 0.26887 0.0
C488 C 0.31177 0.80908 0.21491 0.0
C489 C 0.30898 0.82059 0.18551 0.0
C490 C 0.31942 0.80953 0.17835 0.0
C491 C 0.32216 0.7979 0.20767 0.0
C492 C 0.30529 0.82047 0.20375 0.0
C493 C 0.32602 0.79824 0.18946 0.0
C494 C 0.24552 0.78747 0.25459 0.0
C495 C 0.30654 0.80837 0.23354 0.0
H496 H 0.22912 0.75454 0.38729 0.0
H497 H 0.22325 0.77634 0.33622 0.0
H498 H 0.21649 0.77438 0.36819 0.0
H499 H 0.2548 0.73722 0.3417 0.0
H500 H 0.3223 0.80955 0.16417 0.0
H501 H 0.3271 0.78877 0.21593 0.0
H502 H 0.29707 0.82898 0.20912 0.0
H503 H 0.33398 0.78961 0.1839 0.0
Eu504 Eu 0.50926 0.02361 0.5514 0.0
C505 C 0.57754 0.06504 0.51815 0.0
N506 N 0.56414 0.05032 0.51182 0.0
C507 C 0.5607 0.06062 0.48212 0.0
C508 C 0.58252 0.07839 0.50668 0.0
C509 C 0.55629 0.04764 0.49381 0.0
C510 C 0.57371 0.07614 0.48861 0.0
C511 C 0.60073 0.08178 0.54265 0.0
C512 C 0.58672 0.06675 0.53604 0.0
C513 C 0.6054 0.0951 0.53127 0.0
C514 C 0.59634 0.09342 0.51338 0.0
Eu515 Eu 0.55953 0.02926 0.53311 0.0
N516 N 0.58172 0.05396 0.54716 0.0
C517 C 0.60953 0.08309 0.56064 0.0
C518 C 0.5906 0.05483 0.56442 0.0
C519 C 0.60448 0.06952 0.57153 0.0
H520 H 0.54704 0.03536 0.48796 0.0
H521 H 0.61143 0.07026 0.58531 0.0
H522 H 0.52241 0.01841 0.59675 0.0
H523 H 0.45708 0.98122 0.50058 0.0
H524 H 0.58722 0.04397 0.57247 0.0
H525 H 0.62031 0.09446 0.5662 0.0
H526 H 0.48055 0.00832 0.51309 0.0
H527 H 0.55429 0.05848 0.46794 0.0
H528 H 0.61606 0.10677 0.53616 0.0
H529 H 0.60024 0.10378 0.50473 0.0
H530 H 0.51655 0.99535 0.61701 0.0
H531 H 0.5772 0.08607 0.47941 0.0
H532 H 0.45023 0.95652 0.51953 0.0
N533 N 0.50606 1.00254 0.57287 0.0
C534 C 0.49323 0.98731 0.56674 0.0
C535 C 0.51018 0.99277 0.6028 0.0
C536 C 0.48901 0.97394 0.57837 0.0
C537 C 0.51385 0.00573 0.59093 0.0
C538 C 0.49789 0.97673 0.59644 0.0
N539 N 0.48755 0.99828 0.53796 0.0
C540 C 0.47795 0.99728 0.52105 0.0
C541 C 0.47013 0.96973 0.54263 0.0
C542 C 0.48363 0.98522 0.54902 0.0
C543 C 0.46068 0.96824 0.52491 0.0
C544 C 0.46454 0.98212 0.51413 0.0
H545 H 0.49493 0.96682 0.60579 0.0
H546 H 0.4724 0.94806 0.58065 0.0
H547 H 0.45604 0.94431 0.54937 0.0
O548 O 0.48516 0.03365 0.54335 0.0
O549 O 0.5145 0.99783 0.53545 0.0
O550 O 0.54484 1.00032 0.53335 0.0
O551 O 0.49423 0.03197 0.57242 0.0
O552 O 0.51827 0.03475 0.526 0.0
O553 O 0.53593 0.01974 0.5113 0.0
O554 O 0.58348 0.01931 0.54162 0.0
O555 O 0.55396 0.0557 0.54708 0.0
O556 O 0.52427 0.05264 0.55258 0.0
O557 O 0.57431 0.01984 0.51226 0.0
O558 O 0.54993 0.01838 0.55828 0.0
O559 O 0.53282 0.03375 0.573 0.0
C560 C 0.52824 0.9908 0.53207 0.0
C561 C 0.46752 0.04271 0.56737 0.0
C562 C 0.44517 0.06037 0.56466 0.0
C563 C 0.44121 0.05718 0.58249 0.0
C564 C 0.4632 0.0396 0.58513 0.0
C565 C 0.45009 0.04675 0.59258 0.0
C566 C 0.45821 0.05288 0.55695 0.0
C567 C 0.52089 0.02457 0.51175 0.0
C568 C 0.48253 0.03618 0.56068 0.0
C569 C 0.47572 0.95842 0.57188 0.0
C570 C 0.46635 0.95631 0.55408 0.0
C571 C 0.54045 0.06247 0.55196 0.0
C572 C 0.60097 0.00905 0.51824 0.0
C573 C 0.62272 0.99083 0.52187 0.0
C574 C 0.62741 0.99397 0.50427 0.0
C575 C 0.60601 0.0121 0.50073 0.0
C576 C 0.60962 0.99861 0.52903 0.0
C577 C 0.61919 1.00465 0.49385 0.0
C578 C 0.54777 0.02887 0.57245 0.0
C579 C 0.58601 0.01603 0.52435 0.0
H580 H 0.43107 0.06264 0.58857 0.0
H581 H 0.47008 0.03174 0.5934 0.0
H582 H 0.4469 0.04432 0.60629 0.0
H583 H 0.46147 0.05547 0.54329 0.0
H584 H 0.63759 0.98821 0.49864 0.0
H585 H 0.59965 0.02018 0.49224 0.0
H586 H 0.60585 0.9961 0.54254 0.0
H587 H 0.62295 0.00704 0.48033 0.0
Eu588 Eu 0.30732 0.26254 0.78277 0.0
C589 C 0.24238 0.28195 0.73582 0.0
N590 N 0.25307 0.29153 0.75107 0.0
C591 C 0.25445 0.31844 0.73718 0.0
C592 C 0.23792 0.29025 0.72029 0.0
C593 C 0.25839 0.30965 0.75226 0.0
C594 C 0.24441 0.30866 0.721 0.0
C595 C 0.22305 0.25389 0.72096 0.0
C596 C 0.23488 0.26401 0.73617 0.0
C597 C 0.21923 0.26195 0.70517 0.0
C598 C 0.22662 0.28008 0.70485 0.0
Eu599 Eu 0.25863 0.27534 0.77593 0.0
N600 N 0.23876 0.25655 0.75165 0.0
C601 C 0.21503 0.2361 0.72228 0.0
C602 C 0.23009 0.23963 0.75352 0.0
C603 C 0.21839 0.22902 0.73874 0.0
H604 H 0.26514 0.31749 0.76504 0.0
H605 H 0.21185 0.21545 0.7401 0.0
H606 H 0.29458 0.22007 0.79276 0.0
H607 H 0.35248 0.32095 0.82384 0.0
H608 H 0.23227 0.23437 0.76641 0.0
H609 H 0.20588 0.22789 0.71088 0.0
H610 H 0.33117 0.30469 0.79706 0.0
H611 H 0.25887 0.33279 0.73818 0.0
H612 H 0.21024 0.25437 0.6933 0.0
H613 H 0.22315 0.28623 0.69277 0.0
H614 H 0.30015 0.20308 0.81829 0.0
H615 H 0.24119 0.31554 0.70941 0.0
H616 H 0.36063 0.30511 0.84989 0.0
N617 N 0.31043 0.24485 0.80677 0.0
C618 C 0.32255 0.25303 0.82165 0.0
C619 C 0.30631 0.21717 0.81955 0.0
C620 C 0.32657 0.24354 0.83638 0.0
C621 C 0.30283 0.22702 0.80524 0.0
C622 C 0.31813 0.22548 0.83525 0.0
N623 N 0.32664 0.28005 0.80812 0.0
C624 C 0.33427 0.2977 0.80846 0.0
C625 C 0.34342 0.27974 0.83769 0.0
C626 C 0.33103 0.27097 0.82223 0.0
C627 C 0.35115 0.2979 0.8382 0.0
C628 C 0.34651 0.30691 0.82356 0.0
H629 H 0.3209 0.21775 0.84626 0.0
H630 H 0.34222 0.24515 0.86306 0.0
H631 H 0.35684 0.27681 0.86429 0.0
O632 O 0.33468 0.26758 0.7752 0.0
O633 O 0.29579 0.27177 0.809 0.0
O634 O 0.27905 0.29106 0.79935 0.0
O635 O 0.3186 0.24073 0.77257 0.0
O636 O 0.30833 0.28862 0.77113 0.0
O637 O 0.28298 0.29875 0.77755 0.0
O638 O 0.23825 0.26777 0.79528 0.0
O639 O 0.26556 0.2568 0.75259 0.0
O640 O 0.29583 0.26694 0.75409 0.0
O641 O 0.23939 0.29094 0.78062 0.0
O642 O 0.26362 0.25292 0.79159 0.0
O643 O 0.28244 0.24021 0.77548 0.0
C644 C 0.28701 0.2843 0.81261 0.0
C645 C 0.34222 0.24525 0.75381 0.0
C646 C 0.36724 0.2491 0.73542 0.0
C647 C 0.3604 0.23173 0.72632 0.0
C648 C 0.3357 0.22793 0.74424 0.0
C649 C 0.34471 0.22129 0.73064 0.0
C650 C 0.35811 0.25593 0.74921 0.0
C651 C 0.29937 0.30121 0.77288 0.0
C652 C 0.33381 0.25076 0.77017 0.0
C653 C 0.339 0.25225 0.85166 0.0
C654 C 0.34738 0.27027 0.85232 0.0
C655 C 0.2803 0.25875 0.74474 0.0
C656 C 0.21642 0.28673 0.80069 0.0
C657 C 0.19204 0.28291 0.82005 0.0
C658 C 0.18886 0.29929 0.8159 0.0
C659 C 0.21267 0.30309 0.79695 0.0
C660 C 0.20588 0.27646 0.81234 0.0
C661 C 0.19905 0.30923 0.80444 0.0
C662 C 0.26817 0.2388 0.784 0.0
C663 C 0.23149 0.28135 0.7922 0.0
H664 H 0.36732 0.22619 0.71587 0.0
H665 H 0.32385 0.21919 0.74762 0.0
H666 H 0.33967 0.20785 0.72363 0.0
H667 H 0.36365 0.26913 0.75669 0.0
H668 H 0.17828 0.30438 0.82151 0.0
H669 H 0.22034 0.31135 0.78817 0.0
H670 H 0.20845 0.26382 0.81543 0.0
H671 H 0.19639 0.32182 0.80135 0.0
Eu672 Eu 0.04237 0.00746 0.53058 0.0
C673 C 0.02031 0.07213 0.57599 0.0
N674 N 0.01129 0.0618 0.56026 0.0
C675 C 0.98351 0.06089 0.57214 0.0
C676 C 0.01112 0.07707 0.5906 0.0
C677 C 0.99316 0.05637 0.55799 0.0
C678 C 0.99253 0.07121 0.58855 0.0
C679 C 0.04846 0.08849 0.59371 0.0
C680 C 0.03884 0.07771 0.57758 0.0
C681 C 0.03932 0.09339 0.60827 0.0
C682 C 0.02072 0.08767 0.60674 0.0
Eu683 Eu 0.02895 0.05508 0.53746 0.0
N684 N 0.04748 0.0722 0.56357 0.0
C685 C 0.06702 0.09402 0.59473 0.0
C686 C 0.06542 0.07821 0.56412 0.0
C687 C 0.0755 0.089 0.57979 0.0
H688 H 0.98607 0.04888 0.54514 0.0
H689 H 0.08979 0.0936 0.58024 0.0
H690 H 0.08503 0.01685 0.52149 0.0
H691 H 0.98285 0.96405 0.49 0.0
H692 H 0.07193 0.07504 0.55239 0.0
H693 H 0.07488 0.10236 0.60686 0.0
H694 H 1.00022 0.98452 0.51695 0.0
H695 H 0.96912 0.05653 0.57033 0.0
H696 H 0.0465 0.10162 0.62079 0.0
H697 H 0.01388 0.09156 0.61811 0.0
H698 H 0.10201 0.0098 0.49621 0.0
H699 H 0.985 0.07472 0.59947 0.0
H700 H 0.99775 0.95608 0.46309 0.0
N701 N 0.05996 1.00234 0.50704 0.0
C702 C 0.05124 0.99117 0.49171 0.0
C703 C 0.08772 1.00462 0.49469 0.0
C704 C 0.06054 0.98643 0.47711 0.0
C705 C 0.07799 0.00884 0.50888 0.0
C706 C 0.07896 0.99341 0.47871 0.0
N707 N 0.02428 0.98902 0.50497 0.0
C708 C 1.00667 0.98161 0.50508 0.0
C709 C 0.02364 0.97236 0.47511 0.0
C710 C 0.03295 0.98422 0.49069 0.0
C711 C 1.00536 0.96527 0.47479 0.0
C712 C 0.99689 0.96978 0.48993 0.0
H713 H 0.08658 0.99005 0.46782 0.0
H714 H 0.05819 0.97095 0.45017 0.0
H715 H 0.02593 0.95863 0.44843 0.0
O716 O 0.03335 0.98339 0.54476 0.0
O717 O 0.03405 0.01937 0.50443 0.0
O718 O 0.0142 0.03652 0.5121 0.0
O719 O 0.06015 0.99053 0.53677 0.0
O720 O 0.0179 0.00951 0.54463 0.0
O721 O 1.00549 0.03083 0.5319 0.0
O722 O 0.03939 0.07698 0.52163 0.0
O723 O 0.03627 0.04289 0.56386 0.0
O724 O 0.05612 0.02619 0.55611 0.0
O725 O 0.01478 0.076 0.53314 0.0
O726 O 0.05325 0.05257 0.52316 0.0
O727 O 0.06498 0.03188 0.53745 0.0
C728 C 0.02124 0.02748 0.4999 0.0
C729 C 0.05382 0.96321 0.5502 0.0
C730 C 0.05082 0.93841 0.5687 0.0
C731 C 0.0655 0.93369 0.56153 0.0
C732 C 0.06837 0.95798 0.54315 0.0
C733 C 0.07412 0.94335 0.54878 0.0
C734 C 0.04481 0.95316 0.56289 0.0
C735 C 1.004 0.01575 0.5392 0.0
C736 C 0.04877 0.9793 0.54414 0.0
C737 C 0.05125 0.97475 0.4615 0.0
C738 C 0.03287 0.96774 0.4605 0.0
C739 C 0.04839 0.03402 0.56857 0.0
C740 C 0.01862 0.09195 0.50721 0.0
C741 C 0.01925 0.11645 0.48824 0.0
C742 C 1.00228 0.10761 0.47924 0.0
C743 C 1.00177 0.08334 0.49768 0.0
C744 C 0.02745 0.10856 0.50232 0.0
C745 C 0.99367 0.09117 0.48387 0.0
C746 C 0.06676 0.04582 0.52849 0.0
C747 C 0.02611 0.08458 0.52339 0.0
H748 H 0.07021 0.92235 0.56572 0.0
H749 H 0.07542 0.96523 0.53322 0.0
H750 H 0.08535 0.93951 0.54326 0.0
H751 H 0.03353 0.95693 0.56841 0.0
H752 H 0.99563 0.1135 0.4686 0.0
H753 H 0.99466 0.07071 0.5012 0.0
H754 H 0.04039 0.11546 0.50966 0.0
H755 H 0.98055 0.08455 0.47684 0.0
Eu756 Eu 0.2824 0.80274 0.75664 0.0
C757 C 0.23896 0.73498 0.79037 0.0
N758 N 0.25433 0.74727 0.79738 0.0
C759 C 0.24424 0.74964 0.82727 0.0
C760 C 0.22538 0.7301 0.80159 0.0
C761 C 0.25736 0.7541 0.81573 0.0
C762 C 0.22812 0.73775 0.82014 0.0
C763 C 0.2209 0.71434 0.76449 0.0
C764 C 0.23673 0.72701 0.77192 0.0
C765 C 0.20732 0.70981 0.77561 0.0
C766 C 0.20956 0.71763 0.79408 0.0
Eu767 Eu 0.27541 0.75252 0.77628 0.0
N768 N 0.24991 0.73179 0.76117 0.0
C769 C 0.21921 0.70646 0.74608 0.0
C770 C 0.24874 0.72349 0.7436 0.0
C771 C 0.23327 0.71092 0.73566 0.0
H772 H 0.27 0.76263 0.82183 0.0
H773 H 0.23231 0.70449 0.72162 0.0
H774 H 0.2851 0.79094 0.71022 0.0
H775 H 0.32709 0.85412 0.80642 0.0
H776 H 0.25992 0.72614 0.73595 0.0
H777 H 0.20726 0.69665 0.7399 0.0
H778 H 0.29958 0.83098 0.79486 0.0
H779 H 0.24667 0.7552 0.84175 0.0
H780 H 0.19506 0.70013 0.7701 0.0
H781 H 0.199 0.71382 0.80252 0.0
H782 H 0.30747 0.79621 0.68908 0.0
H783 H 0.21803 0.73428 0.82919 0.0
H784 H 0.35129 0.86003 0.78673 0.0
N785 N 0.30242 0.80572 0.7341 0.0
C786 C 0.31832 0.81764 0.74009 0.0
C787 C 0.31081 0.80204 0.70346 0.0
C788 C 0.33124 0.82168 0.72792 0.0
C789 C 0.29825 0.79869 0.7158 0.0
C790 C 0.32744 0.81338 0.70959 0.0
N791 N 0.30877 0.8232 0.76969 0.0
C792 C 0.31032 0.83318 0.78651 0.0
C793 C 0.33722 0.84005 0.76405 0.0
C794 C 0.3214 0.82683 0.7581 0.0
C795 C 0.33935 0.84973 0.78174 0.0
C796 C 0.32576 0.84641 0.79293 0.0
H797 H 0.33701 0.81619 0.69986 0.0
H798 H 0.35728 0.83754 0.72493 0.0
H799 H 0.36249 0.85358 0.75646 0.0
O800 O 0.2694 0.82378 0.76687 0.0
O801 O 0.30745 0.79724 0.77366 0.0
O802 O 0.30446 0.76716 0.77752 0.0
O803 O 0.27914 0.82368 0.74022 0.0
O804 O 0.27034 0.79211 0.78078 0.0
O805 O 0.28416 0.77605 0.79845 0.0
O806 O 0.28401 0.72769 0.76726 0.0
O807 O 0.24963 0.76089 0.76487 0.0
O808 O 0.25359 0.78587 0.7486 0.0
O809 O 0.28495 0.73757 0.79671 0.0
O810 O 0.28702 0.76232 0.75133 0.0
O811 O 0.27283 0.77929 0.73494 0.0
C812 C 0.31415 0.78358 0.77814 0.0
C813 C 0.25497 0.837 0.74335 0.0
C814 C 0.23641 0.85855 0.74401 0.0
C815 C 0.22939 0.85227 0.72545 0.0
C816 C 0.24744 0.83053 0.72489 0.0
C817 C 0.23476 0.83819 0.71603 0.0
C818 C 0.24912 0.8508 0.75297 0.0
C819 C 0.27976 0.79105 0.79615 0.0
C820 C 0.27053 0.83126 0.75173 0.0
C821 C 0.34726 0.83437 0.73412 0.0
C822 C 0.35022 0.84354 0.75208 0.0
C823 C 0.24334 0.77205 0.75472 0.0
C824 C 0.29398 0.70997 0.79087 0.0
C825 C 0.31129 0.6872 0.78827 0.0
C826 C 0.30726 0.68283 0.80575 0.0
C827 C 0.29009 0.70516 0.80827 0.0
C828 C 0.3044 0.70069 0.78063 0.0
C829 C 0.29666 0.69167 0.81559 0.0
C830 C 0.2772 0.76418 0.73646 0.0
C831 C 0.28785 0.72537 0.78453 0.0
H832 H 0.21968 0.85822 0.7183 0.0
H833 H 0.25174 0.81993 0.71711 0.0
H834 H 0.22929 0.8334 0.70172 0.0
H835 H 0.255 0.85603 0.76711 0.0
H836 H 0.31231 0.67243 0.81179 0.0
H837 H 0.28205 0.71197 0.81636 0.0
H838 H 0.3076 0.70429 0.76725 0.0
H839 H 0.29364 0.68816 0.82903 0.0
Eu840 Eu 0.52882 0.03832 0.01247 0.0
C841 C 0.55786 0.99957 0.08667 0.0
N842 N 0.54544 0.99206 0.07181 0.0
C843 C 0.55699 0.96579 0.06957 0.0
C844 C 0.57091 0.99069 0.09298 0.0
C845 C 0.54462 0.97529 0.06344 0.0
C846 C 0.57031 0.97359 0.08427 0.0
C847 C 0.57157 0.02525 0.10951 0.0
C848 C 0.55804 0.01659 0.09501 0.0
C849 C 0.58475 0.01654 0.11562 0.0
C850 C 0.58436 0.99927 0.10746 0.0
Eu851 Eu 0.52618 0.00968 0.06116 0.0
N852 N 0.5457 0.02512 0.08803 0.0
C853 C 0.57169 0.04258 0.11718 0.0
C854 C 0.54512 0.04156 0.09634 0.0
C855 C 0.55825 0.05064 0.11076 0.0
H856 H 0.53438 0.96917 0.05204 0.0
H857 H 0.55796 0.06387 0.11691 0.0
H858 H 0.52238 0.07835 0.02736 0.0
H859 H 0.49442 0.99108 0.95195 0.0
H860 H 0.53458 0.04783 0.09214 0.0
H861 H 0.58197 0.04975 0.1282 0.0
H862 H 0.5193 1.00492 0.97639 0.0
H863 H 0.55635 0.95253 0.06282 0.0
H864 H 0.59535 0.02307 0.1266 0.0
H865 H 0.59465 0.99275 0.11231 0.0
H866 H 0.50003 0.0962 0.02184 0.0
H867 H 0.58008 0.96631 0.08875 0.0
H868 H 0.46908 0.00532 0.94651 0.0
N869 N 0.50903 0.05692 0.00675 0.0
C870 C 0.49521 0.05062 0.993 0.0
C871 C 0.49846 0.08335 0.01371 0.0
C872 C 0.48201 0.06021 0.98952 0.0
C873 C 0.51106 0.07319 0.01685 0.0
C874 C 0.48376 0.07675 1.00011 0.0
N875 N 0.50733 0.02563 0.98629 0.0
C876 C 0.50796 0.01077 0.97489 0.0
C877 C 0.47995 0.02728 0.96834 0.0
C878 C 0.4942 0.03436 0.98262 0.0
C879 C 0.47981 0.01124 0.95757 0.0
C880 C 0.49405 1.00312 0.96066 0.0
H881 H 0.47393 0.08457 0.99783 0.0
H882 H 0.45711 0.06003 0.97294 0.0
H883 H 0.4553 0.03118 0.95439 0.0
O884 O 0.54771 0.03823 0.99291 0.0
O885 O 0.50177 0.03168 0.0216 0.0
O886 O 0.50991 0.00912 0.03377 0.0
O887 O 0.54704 0.06328 0.00861 0.0
O888 O 0.53215 0.00902 0.00769 0.0
O889 O 0.52851 0.99275 0.03359 0.0
O890 O 0.50489 0.01029 0.07826 0.0
O891 O 0.55485 0.02158 0.05972 0.0
O892 O 0.54049 0.02757 0.03573 0.0
O893 O 0.51043 0.98502 0.06828 0.0
O894 O 0.51964 0.03769 0.06199 0.0
O895 O 0.53531 0.05468 0.0414 0.0
C896 C 0.49804 0.01846 0.03121 0.0
C897 C 0.55495 0.06349 0.97794 0.0
C898 C 0.56327 0.06114 0.94684 0.0
C899 C 0.55898 0.07752 0.94444 0.0
C900 C 0.55084 0.07994 0.9756 0.0
C901 C 0.55278 0.08686 0.9588 0.0
C902 C 0.561 0.05421 0.96349 0.0
C903 C 0.53141 0.99423 0.01597 0.0
C904 C 0.55353 0.05548 0.99518 0.0
C905 C 0.46751 0.05297 0.97568 0.0
C906 C 0.46647 0.03652 0.96514 0.0
C907 C 0.55595 0.02918 0.04511 0.0
C908 C 0.50015 0.98766 0.09751 0.0
C909 C 0.48684 0.9895 0.12591 0.0
C910 C 0.49549 0.97677 0.13233 0.0
C911 C 0.50904 0.97508 0.10407 0.0
C912 C 0.48919 0.99491 0.10858 0.0
C913 C 0.50666 0.96967 0.12144 0.0
C914 C 0.52629 0.05312 0.05588 0.0
C915 C 0.50164 0.99319 0.07911 0.0
H916 H 0.5609 0.08333 0.93174 0.0
H917 H 0.5462 0.08742 0.98665 0.0
H918 H 0.5497 0.09958 0.957 0.0
H919 H 0.56414 0.04148 0.9653 0.0
H920 H 0.49376 0.97253 0.14582 0.0
H921 H 0.51771 0.96937 0.0958 0.0
H922 H 0.4823 1.00464 0.10363 0.0
H923 H 0.51345 0.95995 0.12646 0.0
Eu924 Eu 0.26488 0.24656 0.25835 0.0
C925 C 0.32608 0.30926 0.30377 0.0
N926 N 0.31065 0.29874 0.30748 0.0
C927 C 0.32468 0.2962 0.33756 0.0
C928 C 0.3416 0.31323 0.31682 0.0
C929 C 0.30963 0.29265 0.32429 0.0
C930 C 0.34078 0.30637 0.33375 0.0
C931 C 0.34182 0.3286 0.2837 0.0
C932 C 0.32619 0.31689 0.28731 0.0
C933 C 0.35741 0.33197 0.29637 0.0
C934 C 0.35729 0.32435 0.31289 0.0
Eu935 Eu 0.28601 0.29434 0.28431 0.0
N936 N 0.31082 0.31385 0.27543 0.0
C937 C 0.34119 0.33717 0.26781 0.0
C938 C 0.30982 0.32339 0.26079 0.0
C939 C 0.32504 0.33476 0.25646 0.0
H940 H 0.29715 0.28561 0.32788 0.0
H941 H 0.32422 0.34192 0.24458 0.0
H942 H 0.25342 0.24971 0.21291 0.0
H943 H 0.22764 0.2056 0.30407 0.0
H944 H 0.29723 0.32247 0.25245 0.0
H945 H 0.35291 0.34623 0.26458 0.0
H946 H 0.25404 0.22461 0.29427 0.0
H947 H 0.32377 0.29133 0.35086 0.0
H948 H 0.36952 0.34087 0.29377 0.0
H949 H 0.36931 0.32749 0.32275 0.0
H950 H 0.22687 0.24038 0.18945 0.0
H951 H 0.35238 0.30926 0.34417 0.0
H952 H 0.1992 0.19701 0.28303 0.0
N953 N 0.24009 0.23882 0.23465 0.0
C954 C 0.22496 0.22845 0.23913 0.0
C955 C 0.22606 0.23715 0.20343 0.0
C956 C 0.20955 0.22253 0.22597 0.0
C957 C 0.24101 0.24264 0.21687 0.0
C958 C 0.2102 0.22723 0.20805 0.0
N959 N 0.2404 0.22797 0.26868 0.0
C960 C 0.24159 0.22143 0.28527 0.0
C961 C 0.20982 0.21156 0.26138 0.0
C962 C 0.22513 0.22286 0.25658 0.0
C963 C 0.21068 0.20564 0.27882 0.0
C964 C 0.2267 0.21047 0.29075 0.0
H965 H 0.19868 0.22284 0.19755 0.0
H966 H 0.18222 0.20706 0.22097 0.0
H967 H 0.1824 0.19762 0.25203 0.0
O968 O 0.27297 0.22173 0.26205 0.0
O969 O 0.2457 0.25651 0.27641 0.0
O970 O 0.25519 0.28683 0.27705 0.0
O971 O 0.26887 0.22958 0.23422 0.0
O972 O 0.28029 0.24924 0.28741 0.0
O973 O 0.27375 0.274 0.30209 0.0
O974 O 0.27657 0.31829 0.27992 0.0
O975 O 0.3063 0.27692 0.27968 0.0
O976 O 0.29301 0.25996 0.25221 0.0
O977 O 0.28599 0.31377 0.30811 0.0
O978 O 0.28576 0.29129 0.25325 0.0
O979 O 0.2606 0.26965 0.24272 0.0
C980 C 0.24288 0.27266 0.27935 0.0
C981 C 0.27731 0.20154 0.2361 0.0
C982 C 0.28965 0.17579 0.24014 0.0
C983 C 0.28727 0.17115 0.22079 0.0
C984 C 0.27499 0.19681 0.2168 0.0
C985 C 0.27989 0.18161 0.20922 0.0
C986 C 0.2844 0.19087 0.24767 0.0
C987 C 0.27684 0.25808 0.30245 0.0
C988 C 0.27286 0.21778 0.24425 0.0
C989 C 0.19417 0.21165 0.23088 0.0
C990 C 0.19429 0.20624 0.24856 0.0
C991 C 0.30745 0.26718 0.26409 0.0
C992 C 0.27621 0.34108 0.30516 0.0
C993 C 0.26153 0.36537 0.30162 0.0
C994 C 0.26925 0.3733 0.31962 0.0
C995 C 0.28373 0.34905 0.32314 0.0
C996 C 0.26517 0.3493 0.29442 0.0
C997 C 0.28028 0.36514 0.3303 0.0
C998 C 0.2727 0.28363 0.24023 0.0
C999 C 0.27974 0.32418 0.29761 0.0
H1000 H 0.2914 0.15966 0.2146 0.0
H1001 H 0.26947 0.20488 0.20759 0.0
H1002 H 0.27816 0.17803 0.19433 0.0
H1003 H 0.28595 0.19438 0.26259 0.0
H1004 H 0.26692 0.38591 0.32537 0.0
H1005 H 0.29235 0.3429 0.33162 0.0
H1006 H 0.25912 0.34304 0.28061 0.0
H1007 H 0.28619 0.37132 0.34413 0.0
Eu1008 Eu 0.54581 0.50051 0.03511 0.0
C1009 C 0.52107 0.56562 0.07715 0.0
N1010 N 0.5123 0.5543 0.06198 0.0
C1011 C 0.48479 0.55151 0.07485 0.0
C1012 C 0.51199 0.57014 0.09201 0.0
C1013 C 0.49438 0.5474 0.06048 0.0
C1014 C 0.49364 0.56285 0.09073 0.0
C1015 C 0.54882 0.58427 0.0935 0.0
C1016 C 0.53929 0.57249 0.07796 0.0
C1017 C 0.53984 0.58871 0.10838 0.0
C1018 C 0.52149 0.58164 0.10766 0.0
Eu1019 Eu 0.52984 0.54681 0.03931 0.0
N1020 N 0.54775 0.56737 0.06367 0.0
C1021 C 0.56709 0.59124 0.09357 0.0
C1022 C 0.56529 0.57482 0.06322 0.0
C1023 C 0.5753 0.58669 0.07824 0.0
H1024 H 0.48742 0.53874 0.04818 0.0
H1025 H 0.58929 0.59241 0.07792 0.0
H1026 H 0.58827 0.51176 0.02569 0.0
H1027 H 0.48737 0.45505 0.99495 0.0
H1028 H 0.57151 0.57197 0.05117 0.0
H1029 H 0.57488 0.60037 0.10522 0.0
H1030 H 0.50465 0.47524 0.02226 0.0
H1031 H 0.4706 0.5459 0.07369 0.0
H1032 H 0.54696 0.59764 0.1205 0.0
H1033 H 0.51475 0.58518 0.11926 0.0
H1034 H 0.60532 0.50613 0.99998 0.0
H1035 H 0.48619 0.56594 0.10188 0.0
H1036 H 0.50224 0.44845 0.96755 0.0
N1037 N 0.5636 0.49599 0.01155 0.0
C1038 C 0.55515 0.48465 0.99621 0.0
C1039 C 0.59119 0.50012 0.99868 0.0
C1040 C 0.56446 0.48086 0.9813 0.0
C1041 C 0.58143 0.50348 0.01313 0.0
C1042 C 0.58267 0.48882 0.98267 0.0
N1043 N 0.52828 0.48117 0.00978 0.0
C1044 C 0.51091 0.47304 0.01007 0.0
C1045 C 0.52788 0.46523 0.9796 0.0
C1046 C 0.53702 0.47695 0.99534 0.0
C1047 C 0.50973 0.45755 0.97937 0.0
C1048 C 0.50126 0.46133 0.99476 0.0
H1049 H 0.5903 0.48623 0.97151 0.0
H1050 H 0.56229 0.46622 0.95395 0.0
H1051 H 0.53032 0.45253 0.95248 0.0
O1052 O 0.53828 0.47697 0.05005 0.0
O1053 O 0.53812 0.51172 0.00816 0.0
O1054 O 0.51615 0.52508 0.01624 0.0
O1055 O 0.56488 0.48471 0.0417 0.0
O1056 O 0.5204 0.50051 0.04856 0.0
O1057 O 0.50793 0.52151 0.03524 0.0
O1058 O 0.53872 0.56843 0.02255 0.0
O1059 O 0.53763 0.53678 0.06706 0.0
O1060 O 0.55808 0.52028 0.0605 0.0
O1061 O 0.51129 0.56142 0.02773 0.0
O1062 O 0.55482 0.54473 0.0261 0.0
O1063 O 0.56754 0.52571 0.04213 0.0
C1064 C 0.52425 0.51827 0.0035 0.0
C1065 C 0.55964 0.45838 0.05727 0.0
C1066 C 0.55606 0.43416 0.07653 0.0
C1067 C 0.57218 0.43066 0.07187 0.0
C1068 C 0.57567 0.45442 0.05278 0.0
C1069 C 0.58184 0.44065 0.06 0.0
C1070 C 0.54964 0.44798 0.06904 0.0
C1071 C 0.50678 0.50764 0.0444 0.0
C1072 C 0.55398 0.47353 0.04964 0.0
C1073 C 0.55535 0.46928 0.96555 0.0
C1074 C 0.53713 0.46149 0.9647 0.0
C1075 C 0.55009 0.52849 0.07247 0.0
C1076 C 0.52154 0.59063 0.01975 0.0
C1077 C 0.52341 0.61717 0.00365 0.0
C1078 C 0.51408 0.62422 0.01689 0.0
C1079 C 0.51256 0.59828 0.03297 0.0
C1080 C 0.52721 0.6003 0.00514 0.0
C1081 C 0.50884 0.61491 0.03148 0.0
C1082 C 0.56885 0.53953 0.033 0.0
C1083 C 0.523 0.57187 0.01981 0.0
H1084 H 0.57722 0.41997 0.07729 0.0
H1085 H 0.58354 0.462 0.04363 0.0
H1086 H 0.59418 0.43772 0.05639 0.0
H1087 H 0.53721 0.45076 0.07259 0.0
H1088 H 0.51091 0.63706 0.01596 0.0
H1089 H 0.50798 0.59119 0.04422 0.0
H1090 H 0.53399 0.59451 0.99472 0.0
H1091 H 0.50164 0.62054 0.04157 0.0
Eu1092 Eu 0.78492 0.29848 0.2659 0.0
C1093 C 0.74106 0.23068 0.2989 0.0
N1094 N 0.75641 0.24306 0.30575 0.0
C1095 C 0.74676 0.24518 0.33587 0.0
C1096 C 0.72777 0.22551 0.31037 0.0
C1097 C 0.75963 0.24987 0.32411 0.0
C1098 C 0.73073 0.23308 0.32896 0.0
C1099 C 0.7228 0.21003 0.27315 0.0
C1100 C 0.73859 0.22286 0.28038 0.0
C1101 C 0.70956 0.20512 0.28457 0.0
C1102 C 0.71205 0.21281 0.3031 0.0
Eu1103 Eu 0.77727 0.24825 0.2844 0.0
N1104 N 0.75143 0.22799 0.26937 0.0
C1105 C 0.72078 0.20243 0.2546 0.0
C1106 C 0.7499 0.22005 0.25161 0.0
C1107 C 0.73445 0.20737 0.24383 0.0
H1108 H 0.77224 0.2585 0.33009 0.0
H1109 H 0.73322 0.20121 0.22965 0.0
H1110 H 0.78708 0.28931 0.2192 0.0
H1111 H 0.83073 0.34582 0.31867 0.0
H1112 H 0.76077 0.22304 0.24365 0.0
H1113 H 0.70885 0.19253 0.24856 0.0
H1114 H 0.80284 0.32365 0.30587 0.0
H1115 H 0.74936 0.25071 0.35036 0.0
H1116 H 0.69737 0.19528 0.27922 0.0
H1117 H 0.70174 0.20873 0.31175 0.0
H1118 H 0.80907 0.29648 0.19779 0.0
H1119 H 0.72086 0.22939 0.33819 0.0
H1120 H 0.85422 0.35418 0.2986 0.0
N1121 N 0.80437 0.3038 0.24315 0.0
C1122 C 0.82015 0.31575 0.24944 0.0
C1123 C 0.81244 0.30177 0.21232 0.0
C1124 C 0.83286 0.32074 0.2373 0.0
C1125 C 0.8001 0.29741 0.22471 0.0
C1126 C 0.82895 0.31332 0.21867 0.0
N1127 N 0.81129 0.31852 0.27966 0.0
C1128 C 0.81337 0.32674 0.29739 0.0
C1129 C 0.83943 0.33647 0.27453 0.0
C1130 C 0.82349 0.32361 0.26797 0.0
C1131 C 0.84214 0.34426 0.29307 0.0
C1132 C 0.82897 0.3395 0.30449 0.0
H1133 H 0.83838 0.31682 0.20895 0.0
H1134 H 0.85879 0.33716 0.23482 0.0
H1135 H 0.86451 0.35089 0.26731 0.0
O1136 O 0.77175 0.31866 0.27776 0.0
O1137 O 0.81078 0.29131 0.27928 0.0
O1138 O 0.80635 0.26365 0.29048 0.0
O1139 O 0.78106 0.32027 0.25095 0.0
O1140 O 0.77319 0.28809 0.29033 0.0
O1141 O 0.78701 0.27113 0.30678 0.0
O1142 O 0.78633 0.22392 0.27435 0.0
O1143 O 0.75159 0.25723 0.27338 0.0
O1144 O 0.75656 0.28133 0.25601 0.0
O1145 O 0.78508 0.23173 0.30389 0.0
O1146 O 0.78964 0.25802 0.25983 0.0
O1147 O 0.77578 0.27547 0.24367 0.0
C1148 C 0.81679 0.27876 0.28741 0.0
C1149 C 0.7558 0.33138 0.25516 0.0
C1150 C 0.73639 0.35216 0.2548 0.0
C1151 C 0.72737 0.34309 0.23767 0.0
C1152 C 0.74641 0.32226 0.23817 0.0
C1153 C 0.73227 0.32812 0.22952 0.0
C1154 C 0.75054 0.34615 0.26359 0.0
C1155 C 0.78293 0.28634 0.30523 0.0
C1156 C 0.77222 0.32682 0.26301 0.0
C1157 C 0.8489 0.33326 0.24397 0.0
C1158 C 0.85214 0.34112 0.26248 0.0
C1159 C 0.74576 0.26819 0.26255 0.0
C1160 C 0.79376 0.20429 0.29719 0.0
C1161 C 0.81139 0.18189 0.29513 0.0
C1162 C 0.80551 0.17612 0.31149 0.0
C1163 C 0.78796 0.19814 0.31345 0.0
C1164 C 0.80526 0.19588 0.28777 0.0
C1165 C 0.79379 0.18413 0.3205 0.0
C1166 C 0.78031 0.26037 0.24484 0.0
C1167 C 0.78877 0.22034 0.2914 0.0
H1168 H 0.71647 0.34755 0.23064 0.0
H1169 H 0.75032 0.31091 0.23134 0.0
H1170 H 0.72526 0.3212 0.21632 0.0
H1171 H 0.75787 0.35338 0.27656 0.0
H1172 H 0.80993 0.16526 0.31727 0.0
H1173 H 0.77907 0.20435 0.32091 0.0
H1174 H 0.80995 0.2006 0.27532 0.0
H1175 H 0.78934 0.17958 0.3331 0.0
Eu1176 Eu 0.02467 0.54625 0.51758 0.0
C1177 C 0.05859 0.50905 0.58904 0.0
N1178 N 0.04466 0.5013 0.57587 0.0
C1179 C 0.05676 0.47557 0.57072 0.0
C1180 C 0.07261 0.50061 0.59314 0.0
C1181 C 0.04332 0.48463 0.56696 0.0
C1182 C 0.0716 0.4837 0.58368 0.0
C1183 C 0.07254 0.53368 0.61278 0.0
C1184 C 0.05856 0.52534 0.59862 0.0
C1185 C 0.08701 0.52579 0.61637 0.0
C1186 C 0.08702 0.50925 0.6066 0.0
Eu1187 Eu 0.02432 0.51869 0.56773 0.0
N1188 N 0.04438 0.53256 0.59469 0.0
C1189 C 0.07129 0.54942 0.62322 0.0
C1190 C 0.04231 0.54691 0.60598 0.0
C1191 C 0.05588 0.55581 0.6201 0.0
H1192 H 0.03197 0.47835 0.5568 0.0
H1193 H 0.0544 0.56753 0.62864 0.0
H1194 H 0.01865 0.58784 0.52847 0.0
H1195 H 0.99352 0.49723 0.4576 0.0
H1196 H 0.03018 0.55156 0.60427 0.0
H1197 H 0.08177 0.55632 0.63417 0.0
H1198 H 0.01695 0.51165 0.48336 0.0
H1199 H 0.05574 0.46241 0.56349 0.0
H1200 H 0.09802 0.53214 0.62699 0.0
H1201 H 0.09807 0.50312 0.60977 0.0
H1202 H 0.99642 0.6051 0.52043 0.0
H1203 H 0.08207 0.47672 0.58646 0.0
H1204 H 0.96865 0.5114 0.44922 0.0
N1205 N 1.00561 0.56503 0.50925 0.0
C1206 C 0.99239 0.55816 0.49499 0.0
C1207 C 0.99501 0.59182 0.5133 0.0
C1208 C 0.97936 0.56754 0.48996 0.0
C1209 C 0.0075 0.58191 0.51793 0.0
C1210 C 0.9807 0.58449 0.49947 0.0
N1211 N 1.00501 0.53327 0.49025 0.0
C1212 C 1.00604 0.51782 0.4801 0.0
C1213 C 0.97853 0.53418 0.47035 0.0
C1214 C 0.9921 0.54182 0.48515 0.0
C1215 C 0.9789 0.51777 0.4606 0.0
C1216 C 0.99288 0.50971 0.46532 0.0
H1217 H 0.97098 0.59216 0.496 0.0
H1218 H 0.95526 0.56671 0.47165 0.0
H1219 H 0.95442 0.53738 0.45462 0.0
O1220 O 0.04582 0.54533 0.50026 0.0
O1221 O 0.99702 0.5299 0.51861 0.0
O1222 O 0.0126 0.5285 0.54402 0.0
O1223 O 0.04141 0.57072 0.51134 0.0
O1224 O 0.02991 0.51782 0.51533 0.0
O1225 O 0.02133 0.50102 0.53979 0.0
O1226 O 1.00346 0.51843 0.58536 0.0
O1227 O 0.05074 0.52504 0.55709 0.0
O1228 O 0.042 0.5471 0.54441 0.0
O1229 O 1.00548 0.49374 0.57005 0.0
O1230 O 0.02145 0.54797 0.5718 0.0
O1231 O 0.0219 0.56279 0.54484 0.0
C1232 C 0.99719 0.52384 0.53426 0.0
C1233 C 0.05229 0.56929 0.4824 0.0
C1234 C 0.06138 0.56575 0.45166 0.0
C1235 C 0.05908 0.58287 0.44915 0.0
C1236 C 0.05018 0.58646 0.47974 0.0
C1237 C 0.05348 0.59313 0.46313 0.0
C1238 C 0.05785 0.55901 0.46827 0.0
C1239 C 0.02633 0.50276 0.52304 0.0
C1240 C 0.04999 0.56257 0.50027 0.0
C1241 C 0.96555 0.55981 0.47552 0.0
C1242 C 0.96509 0.54313 0.46579 0.0
C1243 C 0.05367 0.53749 0.54637 0.0
C1244 C 0.99409 0.49227 0.59901 0.0
C1245 C 0.98463 0.49327 0.62975 0.0
C1246 C 0.98514 0.47528 0.62989 0.0
C1247 C 0.99435 0.47424 0.59925 0.0
C1248 C 0.98921 0.50167 0.61432 0.0
C1249 C 0.98999 0.46585 0.61469 0.0
C1250 C 0.02068 0.56202 0.56283 0.0
C1251 C 0.99765 0.50118 0.58253 0.0
H1252 H 0.06215 0.58856 0.43662 0.0
H1253 H 0.04622 0.59484 0.49054 0.0
H1254 H 0.05201 0.60642 0.46123 0.0
H1255 H 0.05971 0.54585 0.47029 0.0
H1256 H 0.98132 0.46836 0.6415 0.0
H1257 H 0.99775 0.46659 0.58747 0.0
H1258 H 0.98878 0.51554 0.61417 0.0
H1259 H 0.99008 0.45193 0.61477 0.0
Eu1260 Eu 0.80212 0.76498 0.28723 0.0
C1261 C 0.7386 0.78595 0.24095 0.0
N1262 N 0.7495 0.795 0.25634 0.0
C1263 C 0.75245 0.82223 0.24277 0.0
C1264 C 0.73476 0.79469 0.22556 0.0
C1265 C 0.75571 0.81306 0.25775 0.0
C1266 C 0.74214 0.81297 0.2265 0.0
C1267 C 0.71835 0.75859 0.2256 0.0
C1268 C 0.73036 0.76812 0.24097 0.0
C1269 C 0.71504 0.76709 0.21 0.0
C1270 C 0.72321 0.78509 0.20999 0.0
Eu1271 Eu 0.75353 0.77814 0.28104 0.0
N1272 N 0.73383 0.76017 0.2562 0.0
C1273 C 0.70973 0.74088 0.22652 0.0
C1274 C 0.72477 0.74327 0.25762 0.0
C1275 C 0.71282 0.73325 0.24269 0.0
H1276 H 0.76267 0.82063 0.27058 0.0
H1277 H 0.70591 0.71972 0.2437 0.0
H1278 H 0.79033 0.72399 0.30008 0.0
H1279 H 0.84924 0.82496 0.32311 0.0
H1280 H 0.72683 0.73758 0.27028 0.0
H1281 H 0.70041 0.73311 0.215 0.0
H1282 H 0.82781 0.80695 0.29734 0.0
H1283 H 0.75758 0.83651 0.24394 0.0
H1284 H 0.70591 0.75996 0.19803 0.0
H1285 H 0.72019 0.79159 0.19803 0.0
H1286 H 0.79652 0.70869 0.32697 0.0
H1287 H 0.73944 0.82017 0.21501 0.0
H1288 H 0.85655 0.81167 0.3514 0.0
N1289 N 0.80601 0.74931 0.31264 0.0
C1290 C 0.81803 0.75847 0.32718 0.0
C1291 C 0.80245 0.72275 0.32733 0.0
C1292 C 0.82225 0.7501 0.34273 0.0
C1293 C 0.79867 0.73157 0.31223 0.0
C1294 C 0.81417 0.73208 0.34272 0.0
N1295 N 0.82202 0.78405 0.31126 0.0
C1296 C 0.83034 0.80118 0.3098 0.0
C1297 C 0.83871 0.78601 0.34142 0.0
C1298 C 0.82622 0.77627 0.32649 0.0
C1299 C 0.8469 0.80376 0.34021 0.0
C1300 C 0.84275 0.81134 0.32429 0.0
H1301 H 0.81715 0.72516 0.35436 0.0
H1302 H 0.83793 0.75364 0.3697 0.0
H1303 H 0.85225 0.78504 0.36861 0.0
O1304 O 0.82963 0.76883 0.28045 0.0
O1305 O 0.78963 0.77224 0.31332 0.0
O1306 O 0.77355 0.7927 0.30533 0.0
O1307 O 0.81204 0.74258 0.27568 0.0
O1308 O 0.80188 0.79041 0.27466 0.0
O1309 O 0.77831 0.80136 0.28479 0.0
O1310 O 0.73192 0.77043 0.29918 0.0
O1311 O 0.7606 0.76001 0.25741 0.0
O1312 O 0.79078 0.77053 0.25914 0.0
O1313 O 0.73478 0.79428 0.28548 0.0
O1314 O 0.75743 0.75459 0.29555 0.0
O1315 O 0.7773 0.7425 0.2801 0.0
C1316 C 0.78182 0.7853 0.31777 0.0
C1317 C 0.836 0.74758 0.2572 0.0
C1318 C 0.86159 0.75154 0.23955 0.0
C1319 C 0.85338 0.73553 0.22818 0.0
C1320 C 0.82811 0.73169 0.24536 0.0
C1321 C 0.83674 0.72578 0.23099 0.0
C1322 C 0.85283 0.75764 0.25407 0.0
C1323 C 0.79387 0.80348 0.27831 0.0
C1324 C 0.82777 0.75214 0.27403 0.0
C1325 C 0.83455 0.75985 0.35765 0.0
C1326 C 0.84272 0.77774 0.35701 0.0
C1327 C 0.77539 0.76222 0.24966 0.0
C1328 C 0.70988 0.78963 0.30307 0.0
C1329 C 0.68491 0.78706 0.32181 0.0
C1330 C 0.68067 0.80197 0.31466 0.0
C1331 C 0.70499 0.80454 0.29644 0.0
C1332 C 0.69957 0.78066 0.31582 0.0
C1333 C 0.69059 0.81057 0.30215 0.0
C1334 C 0.76267 0.74075 0.28814 0.0
C1335 C 0.72573 0.78435 0.29605 0.0
H1336 H 0.85992 0.73053 0.21707 0.0
H1337 H 0.81543 0.72348 0.24745 0.0
H1338 H 0.83062 0.71341 0.22217 0.0
H1339 H 0.85934 0.76972 0.26323 0.0
H1340 H 0.66949 0.80701 0.31879 0.0
H1341 H 0.71232 0.81174 0.28667 0.0
H1342 H 0.70302 0.76917 0.32116 0.0
H1343 H 0.6871 0.82204 0.29683 0.0
Eu1344 Eu 0.77007 0.27982 0.80552 0.0
C1345 C 0.80915 0.24562 0.73437 0.0
N1346 N 0.81594 0.25884 0.74867 0.0
C1347 C 0.84194 0.24712 0.75403 0.0
C1348 C 0.81808 0.23203 0.73002 0.0
C1349 C 0.83251 0.26022 0.75792 0.0
C1350 C 0.83455 0.23277 0.74027 0.0
C1351 C 0.78613 0.23273 0.7085 0.0
C1352 C 0.79355 0.24607 0.72357 0.0
C1353 C 0.79449 0.21867 0.70471 0.0
C1354 C 0.81049 0.21836 0.71539 0.0
Eu1355 Eu 0.79772 0.27902 0.7555 0.0
N1356 N 0.78563 0.25966 0.72783 0.0
C1357 C 0.77063 0.23405 0.69763 0.0
C1358 C 0.77131 0.26174 0.71653 0.0
C1359 C 0.76338 0.24881 0.70147 0.0
H1360 H 0.83867 0.27147 0.76824 0.0
H1361 H 0.7517 0.25024 0.69283 0.0
H1362 H 0.72827 0.28421 0.79649 0.0
H1363 H 0.82111 0.3152 0.86292 0.0
H1364 H 0.76594 0.27333 0.71913 0.0
H1365 H 0.76444 0.22402 0.686 0.0
H1366 H 0.80575 0.28974 0.83999 0.0
H1367 H 0.85495 0.24814 0.76163 0.0
H1368 H 0.78889 0.20816 0.69333 0.0
H1369 H 0.81702 0.20766 0.71203 0.0
H1370 H 0.71053 0.30621 0.80396 0.0
H1371 H 0.84188 0.22263 0.73732 0.0
H1372 H 0.80743 0.34086 0.86895 0.0
N1373 N 0.75155 0.29886 0.81406 0.0
C1374 C 0.75898 0.31331 0.82669 0.0
C1375 C 0.72417 0.30843 0.81039 0.0
C1376 C 0.74944 0.32635 0.83123 0.0
C1377 C 0.73427 0.296 0.80619 0.0
C1378 C 0.73187 0.32381 0.82279 0.0
N1379 N 0.78434 0.30144 0.83126 0.0
C1380 C 0.79992 0.30108 0.84164 0.0
C1381 C 0.78405 0.32941 0.84899 0.0
C1382 C 0.776 0.31477 0.83543 0.0
C1383 C 0.80076 0.32982 0.85848 0.0
C1384 C 0.80854 0.3154 0.85507 0.0
H1385 H 0.72406 0.33348 0.82594 0.0
H1386 H 0.75065 0.35161 0.84766 0.0
H1387 H 0.78103 0.35434 0.86318 0.0
O1388 O 0.76945 0.2607 0.82507 0.0
O1389 O 0.77659 0.30603 0.79458 0.0
O1390 O 0.79823 0.29641 0.78212 0.0
O1391 O 0.74534 0.26022 0.80701 0.0
O1392 O 0.79886 0.27557 0.80976 0.0
O1393 O 0.81432 0.27699 0.7833 0.0
O1394 O 0.79683 0.3007 0.73883 0.0
O1395 O 0.77946 0.25222 0.7556 0.0
O1396 O 0.77981 0.26708 0.78209 0.0
O1397 O 0.82205 0.29462 0.74777 0.0
O1398 O 0.76879 0.28332 0.75236 0.0
O1399 O 0.7524 0.2782 0.77792 0.0
C1400 C 0.78897 0.30845 0.78372 0.0
C1401 C 0.74239 0.25052 0.83667 0.0
C1402 C 0.74131 0.2391 0.86635 0.0
C1403 C 0.72347 0.24043 0.86594 0.0
C1404 C 0.72455 0.25169 0.83627 0.0
C1405 C 0.71521 0.24682 0.851 0.0
C1406 C 0.75069 0.24456 0.85185 0.0
C1407 C 0.81323 0.27522 0.80118 0.0
C1408 C 0.75241 0.25387 0.82097 0.0
C1409 C 0.75766 0.34132 0.84415 0.0
C1410 C 0.77496 0.34288 0.85297 0.0
C1411 C 0.7736 0.25229 0.77136 0.0
C1412 C 0.8189 0.30491 0.71865 0.0
C1413 C 0.81627 0.31728 0.68967 0.0
C1414 C 0.82977 0.30945 0.68377 0.0
C1415 C 0.83227 0.29689 0.71253 0.0
C1416 C 0.81081 0.31493 0.70704 0.0
C1417 C 0.83764 0.29918 0.69514 0.0
C1418 C 0.75391 0.28137 0.76052 0.0
C1419 C 0.8138 0.30365 0.73733 0.0
H1420 H 0.71576 0.23607 0.87683 0.0
H1421 H 0.71778 0.2561 0.82456 0.0
H1422 H 0.70142 0.2476 0.85065 0.0
H1423 H 0.76451 0.24379 0.85216 0.0
H1424 H 0.83412 0.3112 0.67034 0.0
H1425 H 0.83872 0.28901 0.72119 0.0
H1426 H 0.80058 0.32127 0.71167 0.0
H1427 H 0.848 0.29309 0.69053 0.0
Eu1428 Eu 0.76202 0.75018 0.76714 0.0
C1429 C 0.82399 0.81408 0.81002 0.0
N1430 N 0.80833 0.80439 0.8143 0.0
C1431 C 0.82164 0.8056 0.84567 0.0
C1432 C 0.83914 0.8197 0.82352 0.0
C1433 C 0.80687 0.80057 0.83199 0.0
C1434 C 0.83786 0.81512 0.84141 0.0
C1435 C 0.8405 0.82998 0.78785 0.0
C1436 C 0.8247 0.81925 0.79233 0.0
C1437 C 0.85561 0.83529 0.80122 0.0
C1438 C 0.85494 0.83017 0.81898 0.0
Eu1439 Eu 0.78387 0.79964 0.79067 0.0
N1440 N 0.80988 0.81403 0.77957 0.0
C1441 C 0.84055 0.83534 0.77014 0.0
C1442 C 0.80962 0.81983 0.7626 0.0
C1443 C 0.825 0.8303 0.75749 0.0
H1444 H 0.79423 0.7944 0.836 0.0
H1445 H 0.82477 0.83474 0.74393 0.0
H1446 H 0.75061 0.75779 0.72266 0.0
H1447 H 0.72153 0.71621 0.81494 0.0
H1448 H 0.79746 0.81681 0.75322 0.0
H1449 H 0.85241 0.84361 0.7662 0.0
H1450 H 0.74879 0.73399 0.80549 0.0
H1451 H 0.82038 0.80254 0.85964 0.0
H1452 H 0.86784 0.84356 0.79803 0.0
H1453 H 0.86665 0.83464 0.82922 0.0
H1454 H 0.72414 0.74997 0.69951 0.0
H1455 H 0.84918 0.81928 0.85217 0.0
H1456 H 0.69397 0.7068 0.79262 0.0
N1457 N 0.7372 0.74681 0.74431 0.0
C1458 C 0.7218 0.73665 0.74866 0.0
C1459 C 0.72322 0.74643 0.71337 0.0
C1460 C 0.70646 0.73118 0.73537 0.0
C1461 C 0.73817 0.75134 0.72681 0.0
C1462 C 0.70729 0.73636 0.71766 0.0
N1463 N 0.73631 0.73646 0.77903 0.0
C1464 C 0.73659 0.73098 0.79614 0.0
C1465 C 0.70573 0.72029 0.77084 0.0
C1466 C 0.72143 0.73114 0.76629 0.0
C1467 C 0.70577 0.71512 0.78863 0.0
C1468 C 0.72126 0.7205 0.80132 0.0
H1469 H 0.69582 0.73229 0.70707 0.0
H1470 H 0.67907 0.71593 0.72983 0.0
H1471 H 0.67841 0.70652 0.76083 0.0
O1472 O 0.76437 0.72343 0.77215 0.0
O1473 O 0.74158 0.76593 0.7774 0.0
O1474 O 0.75588 0.79047 0.79872 0.0
O1475 O 0.75853 0.72915 0.74411 0.0
O1476 O 0.77775 0.75352 0.79589 0.0
O1477 O 0.77349 0.77988 0.80996 0.0
O1478 O 0.77641 0.82357 0.7827 0.0
O1479 O 0.80426 0.78576 0.77798 0.0
O1480 O 0.79201 0.75643 0.76496 0.0
O1481 O 0.78793 0.82312 0.81094 0.0
O1482 O 0.76755 0.79477 0.76219 0.0
O1483 O 0.77356 0.76959 0.74801 0.0
C1484 C 0.74117 0.77926 0.79023 0.0
C1485 C 0.77071 0.70416 0.74728 0.0
C1486 C 0.78943 0.68329 0.75213 0.0
C1487 C 0.78552 0.67653 0.73321 0.0
C1488 C 0.76686 0.6972 0.72841 0.0
C1489 C 0.77432 0.68351 0.72143 0.0
C1490 C 0.78204 0.69717 0.7591 0.0
C1491 C 0.77607 0.7638 0.8107 0.0
C1492 C 0.76114 0.71717 0.75456 0.0
C1493 C 0.69089 0.72034 0.73993 0.0
C1494 C 0.69053 0.71493 0.75758 0.0
C1495 C 0.80574 0.77028 0.76957 0.0
C1496 C 0.76822 0.84189 0.80641 0.0
C1497 C 0.75213 0.86477 0.8022 0.0
C1498 C 0.74621 0.86321 0.81956 0.0
C1499 C 0.76216 0.84008 0.82375 0.0
C1500 C 0.76303 0.85413 0.79567 0.0
C1501 C 0.75113 0.85073 0.83024 0.0
C1502 C 0.77116 0.78575 0.74748 0.0
C1503 C 0.78075 0.83206 0.79947 0.0
H1504 H 0.79073 0.6655 0.72762 0.0
H1505 H 0.75775 0.70208 0.71914 0.0
H1506 H 0.77111 0.67806 0.70693 0.0
H1507 H 0.78487 0.70224 0.77374 0.0
H1508 H 0.73776 0.87153 0.82471 0.0
H1509 H 0.766 0.8306 0.8323 0.0
H1510 H 0.76778 0.85569 0.78234 0.0
H1511 H 0.7465 0.84942 0.8436 0.0
Eu1512 Eu 0.56178 0.5434 0.55902 0.0
C1513 C 0.49792 0.48227 0.51527 0.0
N1514 N 0.50729 0.49766 0.51027 0.0
C1515 C 0.50561 0.48341 0.47923 0.0
C1516 C 0.49212 0.46673 0.50231 0.0
C1517 C 0.51103 0.49849 0.49251 0.0
C1518 C 0.49615 0.46745 0.48415 0.0
C1519 C 0.48361 0.46646 0.53872 0.0
C1520 C 0.4937 0.48214 0.53331 0.0
C1521 C 0.47805 0.45093 0.52589 0.0
C1522 C 0.48226 0.45108 0.50774 0.0
Eu1523 Eu 0.51418 0.52272 0.53326 0.0
N1524 N 0.49906 0.49742 0.54542 0.0
C1525 C 0.47899 0.46697 0.55673 0.0
C1526 C 0.49353 0.49824 0.5625 0.0
C1527 C 0.48381 0.483 0.5686 0.0
H1528 H 0.5176 0.51091 0.48832 0.0
H1529 H 0.47966 0.48374 0.58229 0.0
H1530 H 0.55498 0.55371 0.60374 0.0
H1531 H 0.59382 0.58589 0.51137 0.0
H1532 H 0.49585 0.51071 0.57118 0.0
H1533 H 0.47123 0.45523 0.56139 0.0
H1534 H 0.57672 0.55822 0.52043 0.0
H1535 H 0.50849 0.48419 0.46513 0.0
H1536 H 0.47025 0.4388 0.5298 0.0
H1537 H 0.47766 0.43905 0.49794 0.0
H1538 H 0.56293 0.57977 0.62761 0.0
H1539 H 0.49182 0.45583 0.47377 0.0
H1540 H 0.60359 0.61297 0.53432 0.0
N1541 N 0.56601 0.5678 0.58255 0.0
C1542 C 0.57582 0.58345 0.57845 0.0
C1543 C 0.56641 0.58105 0.61378 0.0
C1544 C 0.58124 0.59856 0.59203 0.0
C1545 C 0.56151 0.56635 0.60001 0.0
C1546 C 0.5763 0.59722 0.60979 0.0
N1547 N 0.57527 0.5697 0.54767 0.0
C1548 C 0.58008 0.57004 0.53029 0.0
C1549 C 0.59116 0.60036 0.55626 0.0
C1550 C 0.58081 0.58434 0.56069 0.0
C1551 C 0.59569 0.60091 0.53826 0.0
C1552 C 0.59011 0.58569 0.52523 0.0
H1553 H 0.5803 0.6085 0.62061 0.0
H1554 H 0.59602 0.62611 0.59794 0.0
H1555 H 0.60461 0.6277 0.56665 0.0
O1556 O 0.5872 0.53753 0.55357 0.0
O1557 O 0.54547 0.56395 0.55055 0.0
O1558 O 0.52672 0.54953 0.52455 0.0
O1559 O 0.58356 0.54751 0.58132 0.0
O1560 O 0.56053 0.52855 0.52992 0.0
O1561 O 0.53459 0.53222 0.5144 0.0
O1562 O 0.49119 0.53304 0.53999 0.0
O1563 O 0.52981 0.5015 0.54053 0.0
O1564 O 0.55106 0.51475 0.56542 0.0
O1565 O 0.49236 0.52146 0.51154 0.0
O1566 O 0.51736 0.53798 0.56238 0.0
O1567 O 0.54196 0.53158 0.57736 0.0
C1568 C 0.53476 0.56437 0.53534 0.0
C1569 C 0.60441 0.52974 0.57876 0.0
C1570 C 0.62801 0.51413 0.5759 0.0
C1571 C 0.62691 0.50968 0.59393 0.0
C1572 C 0.60315 0.52507 0.59675 0.0
C1573 C 0.61442 0.51508 0.60427 0.0
C1574 C 0.61683 0.52422 0.56848 0.0
C1575 C 0.55066 0.52939 0.51441 0.0
C1576 C 0.59412 0.54158 0.57095 0.0
C1577 C 0.59165 0.61444 0.58763 0.0
C1578 C 0.59659 0.61533 0.56982 0.0
C1579 C 0.54125 0.50032 0.55483 0.0
C1580 C 0.46633 0.5327 0.51665 0.0
C1581 C 0.44381 0.54933 0.52145 0.0
C1582 C 0.43544 0.54288 0.50332 0.0
C1583 C 0.45781 0.52618 0.49858 0.0
C1584 C 0.45908 0.54403 0.52818 0.0
C1585 C 0.44236 0.53122 0.492 0.0
C1586 C 0.52615 0.53487 0.57754 0.0
C1587 C 0.48362 0.52918 0.52281 0.0
H1588 H 0.63551 0.50186 0.59987 0.0
H1589 H 0.59371 0.52931 0.60508 0.0
H1590 H 0.61353 0.51159 0.61814 0.0
H1591 H 0.61807 0.5281 0.55474 0.0
H1592 H 0.42345 0.54673 0.49803 0.0
H1593 H 0.46325 0.51745 0.48942 0.0
H1594 H 0.46561 0.54925 0.54211 0.0
H1595 H 0.43586 0.52624 0.47805 0.0
Eu1596 Eu 1.0043 0.52816 0.05946 0.0
C1597 C 0.07255 0.56466 0.02744 0.0
N1598 N 0.0607 0.5488 0.02119 0.0
C1599 C 0.05875 0.55681 0.99031 0.0
C1600 C 0.07705 0.57758 0.01538 0.0
C1601 C 0.05478 0.54435 0.00265 0.0
C1602 C 0.06963 0.57362 0.99676 0.0
C1603 C 0.09355 0.58395 0.05227 0.0
C1604 C 0.08097 0.5678 0.04572 0.0
C1605 C 0.09741 0.59701 0.04043 0.0
C1606 C 0.08921 0.59383 0.02206 0.0
Eu1607 Eu 0.05481 0.52955 0.04419 0.0
N1608 N 0.07678 0.55516 0.05719 0.0
C1609 C 0.10199 0.58648 0.07055 0.0
C1610 C 0.0855 0.55723 0.07475 0.0
C1611 C 0.09807 0.57299 0.08176 0.0
H1612 H 0.04728 0.53112 0.997 0.0
H1613 H 0.10474 0.57473 0.0958 0.0
H1614 H 0.0146 0.52424 0.1061 0.0
H1615 H 0.95145 0.48576 0.00916 0.0
H1616 H 0.08269 0.54676 0.08333 0.0
H1617 H 0.1117 0.59871 0.07605 0.0
H1618 H 0.97501 0.51284 0.0215 0.0
H1619 H 0.05364 0.55332 0.97574 0.0
H1620 H 0.10693 0.60953 0.04528 0.0
H1621 H 0.09264 0.60391 0.013 0.0
H1622 H 0.00922 0.50108 0.12627 0.0
H1623 H 0.07278 0.58318 0.9871 0.0
H1624 H 0.94459 0.46113 0.02819 0.0
N1625 N 0.99955 0.5078 0.08178 0.0
C1626 C 0.98703 0.49238 0.0756 0.0
C1627 C 1.0032 0.4983 0.11194 0.0
C1628 C 0.98301 0.47892 0.08718 0.0
C1629 C 1.00663 0.51132 0.1001 0.0
C1630 C 0.99165 0.48189 0.10535 0.0
N1631 N 0.98135 0.50332 0.04691 0.0
C1632 C 0.97203 0.50207 0.02978 0.0
C1633 C 0.96424 0.47456 0.05141 0.0
C1634 C 0.9775 0.49022 0.05791 0.0
C1635 C 0.95485 0.47298 0.03366 0.0
C1636 C 0.9587 0.48683 0.02284 0.0
H1637 H 0.98891 0.47189 0.11464 0.0
H1638 H 0.96707 0.45264 0.0892 0.0
H1639 H 0.95076 0.44878 0.05788 0.0
O1640 O 0.98002 0.53729 0.0516 0.0
O1641 O 0.00793 0.50179 0.04297 0.0
O1642 O 0.03777 0.50317 0.05069 0.0
O1643 O 0.99421 0.54478 0.07945 0.0
O1644 O 0.01429 0.53755 0.03357 0.0
O1645 O 0.03214 0.52117 0.02096 0.0
O1646 O 0.07874 0.52093 0.05459 0.0
O1647 O 0.05029 0.55599 0.05971 0.0
O1648 O 0.02059 0.55365 0.05041 0.0
O1649 O 0.06678 0.51298 0.02602 0.0
O1650 O 0.0421 0.51947 0.06817 0.0
O1651 O 0.02717 0.53728 0.08229 0.0
C1652 C 0.02173 0.49419 0.04279 0.0
C1653 C 0.964 0.54663 0.07542 0.0
C1654 C 0.93855 0.56019 0.07543 0.0
C1655 C 0.93488 0.55354 0.09211 0.0
C1656 C 0.96006 0.53978 0.09193 0.0
C1657 C 0.94549 0.54322 0.10019 0.0
C1658 C 0.95302 0.55652 0.06707 0.0
C1659 C 0.01754 0.52699 0.01996 0.0
C1660 C 0.98068 0.54599 0.06795 0.0
C1661 C 0.97014 0.46314 0.08052 0.0
C1662 C 0.96079 0.46097 0.06271 0.0
C1663 C 0.03637 0.56339 0.05809 0.0
C1664 C 0.0972 0.51322 0.03256 0.0
C1665 C 0.12253 0.49968 0.0299 0.0
C1666 C 0.1285 0.51145 0.01728 0.0
C1667 C 0.10346 0.52505 0.02017 0.0
C1668 C 0.10691 0.50077 0.03766 0.0
C1669 C 0.11909 0.52414 0.01259 0.0
C1670 C 0.04094 0.53031 0.08241 0.0
C1671 C 0.07963 0.51221 0.03865 0.0
H1672 H 0.92375 0.55626 0.09881 0.0
H1673 H 0.96849 0.53224 0.09868 0.0
H1674 H 0.94259 0.53813 0.11304 0.0
H1675 H 0.95625 0.56209 0.05449 0.0
H1676 H 0.14054 0.51092 0.01115 0.0
H1677 H 0.09605 0.53465 0.01602 0.0
H1678 H 0.10195 0.49148 0.04707 0.0
H1679 H 0.1238 0.53314 0.00286 0.0
H1680 H 0.01037 0.22962 0.99844 0.0
H1681 H 0.01516 0.20249 0.01124 0.0
H1682 H 0.00857 0.17492 0.95588 0.0
H1683 H 1.00448 0.20169 0.94323 0.0
H1684 H 0.99754 0.16911 0.01182 0.0
H1685 H 0.05345 0.16258 0.97291 0.0
H1686 H 0.04432 0.18205 0.97335 0.0
H1687 H 0.03397 0.16229 0.95735 0.0
C1688 C 0.00998 0.2178 0.98897 0.0
C1689 C 1.00723 0.21831 0.96964 0.0
C1690 C 0.01276 0.20213 0.99634 0.0
C1691 C 0.01292 0.18636 0.98469 0.0
C1692 C 0.00939 0.18676 0.96546 0.0
H1693 H 0.01493 0.07427 0.99546 0.0
H1694 H 0.01183 0.1029 0.98575 0.0
C1695 C 1.00682 0.2023 0.95816 0.0
C1696 C 0.01652 0.1695 0.99228 0.0
H1697 H 0.04004 0.13676 0.98623 0.0
C1698 C 1.00703 0.16227 0.0063 0.0
C1699 C 0.02892 0.16008 0.98542 0.0
C1700 C 0.04087 0.16725 0.97159 0.0
C1701 C 0.00913 0.14609 0.01298 0.0
C1702 C 0.02112 0.1365 0.00572 0.0
C1703 C 0.03074 0.14378 0.9919 0.0
C1704 C 0.02351 0.11879 0.01193 0.0
C1705 C 0.99803 0.13899 0.02748 0.0
C1706 C 0.03151 0.11767 0.02992 0.0
C1707 C 0.03364 0.10113 0.03549 0.0
C1708 C 0.02753 0.08496 0.02341 0.0
C1709 C 0.01967 0.08619 0.00538 0.0
C1710 C 0.01789 0.10272 0.99973 0.0
H1711 H 0.98745 0.14629 0.02976 0.0
H1712 H 0.99171 0.12461 0.02338 0.0
H1713 H 1.00677 0.14029 0.04079 0.0
H1714 H 0.03625 0.12967 0.03972 0.0
H1715 H 0.03982 0.10101 0.04943 0.0
H1716 H 0.09348 0.80965 0.18164 0.0
H1717 H 0.12128 0.80841 0.20014 0.0
H1718 H 0.14044 0.78874 0.15062 0.0
H1719 H 0.11323 0.79112 0.13204 0.0
H1720 H 0.13485 0.78228 0.20739 0.0
H1721 H 0.1839 0.82446 0.17113 0.0
H1722 H 0.16034 0.82303 0.16634 0.0
H1723 H 0.1701 0.80609 0.15565 0.0
C1724 C 0.10385 0.80554 0.17465 0.0
C1725 C 0.10128 0.80088 0.15529 0.0
C1726 C 0.11972 0.80467 0.18527 0.0
C1727 C 0.13332 0.79881 0.17687 0.0
C1728 C 0.13064 0.794 0.15751 0.0
H1729 H 0.2283 0.76666 0.22267 0.0
H1730 H 0.20097 0.76914 0.20409 0.0
C1731 C 0.11498 0.79532 0.14683 0.0
C1732 C 0.14985 0.79702 0.18845 0.0
H1733 H 0.19549 0.80708 0.19224 0.0
C1734 C 0.14807 0.7879 0.2041 0.0
C1735 C 0.16728 0.80423 0.18431 0.0
C1736 C 0.17053 0.81515 0.16856 0.0
C1737 C 0.16306 0.78572 0.21548 0.0
C1738 C 0.18033 0.79269 0.21111 0.0
C1739 C 0.1822 0.80169 0.1955 0.0
C1740 C 0.19668 0.79094 0.22265 0.0
C1741 C 0.16045 0.77581 0.23205 0.0
C1742 C 0.20336 0.80234 0.23927 0.0
C1743 C 0.21926 0.80123 0.24964 0.0
C1744 C 0.22883 0.78879 0.2435 0.0
C1745 C 0.22182 0.77705 0.22716 0.0
C1746 C 0.206 0.77823 0.21673 0.0
H1747 H 0.14616 0.77004 0.23286 0.0
H1748 H 0.16767 0.76491 0.23145 0.0
H1749 H 0.16618 0.78505 0.24493 0.0
H1750 H 0.19636 0.81223 0.2441 0.0
H1751 H 0.22423 0.81027 0.26232 0.0
H1752 H 0.48606 0.82237 0.45827 0.0
H1753 H 0.48899 0.85359 0.47061 0.0
H1754 H 0.5395 0.85437 0.50167 0.0
H1755 H 0.53647 0.82279 0.48951 0.0
H1756 H 0.49398 0.87118 0.50898 0.0
H1757 H 0.55022 0.89775 0.47082 0.0
H1758 H 0.53584 0.87579 0.46416 0.0
H1759 H 0.55265 0.8798 0.48389 0.0
C1760 C 0.49774 0.82903 0.46794 0.0
C1761 C 0.51094 0.81974 0.47293 0.0
C1762 C 0.49942 0.84704 0.47499 0.0
C1763 C 0.51456 0.85672 0.48701 0.0
C1764 C 0.5277 0.84746 0.49231 0.0
H1765 H 0.55305 0.97024 0.53221 0.0
H1766 H 0.54908 0.93855 0.52179 0.0
C1767 C 0.52587 0.82924 0.48549 0.0
C1768 C 0.51644 0.87636 0.4938 0.0
H1769 H 0.54089 0.9185 0.49103 0.0
C1770 C 0.50428 0.88151 0.50506 0.0
C1771 C 0.52975 0.8901 0.48875 0.0
C1772 C 0.54283 0.88573 0.47613 0.0
C1773 C 0.50534 0.89965 0.51176 0.0
C1774 C 0.51861 0.9135 0.50663 0.0
C1775 C 0.53068 0.90826 0.49519 0.0
C1776 C 0.52064 0.9333 0.51331 0.0
C1777 C 0.49249 0.9036 0.52486 0.0
C1778 C 0.50614 0.94168 0.51211 0.0
C1779 C 0.50838 0.96006 0.51839 0.0
C1780 C 0.52526 0.9709 0.52586 0.0
C1781 C 0.53976 0.96257 0.52672 0.0
C1782 C 0.5375 0.94423 0.52063 0.0
H1783 H 0.48735 0.8919 0.53198 0.0
H1784 H 0.49884 0.91508 0.53556 0.0
H1785 H 0.48089 0.90679 0.51687 0.0
H1786 H 0.49302 0.9341 0.50597 0.0
H1787 H 0.49694 0.96586 0.51692 0.0
H1788 H 0.50243 0.30105 0.64495 0.0
H1789 H 0.47488 0.30063 0.65903 0.0
H1790 H 0.48616 0.26026 0.69163 0.0
H1791 H 0.51353 0.2606 0.67782 0.0
H1792 H 0.44465 0.26976 0.66057 0.0
H1793 H 0.47945 0.30138 0.72995 0.0
H1794 H 0.49005 0.30295 0.70912 0.0
H1795 H 0.48767 0.28303 0.72011 0.0
C1796 C 0.49906 0.29214 0.65517 0.0
C1797 C 0.51035 0.28103 0.66043 0.0
C1798 C 0.48329 0.29188 0.66315 0.0
C1799 C 0.47861 0.28062 0.6766 0.0
C1800 C 0.48966 0.26929 0.68154 0.0
H1801 H 0.40019 0.24381 0.74491 0.0
H1802 H 0.42703 0.25459 0.73061 0.0
C1803 C 0.50533 0.26951 0.67359 0.0
C1804 C 0.4623 0.28056 0.68574 0.0
H1805 H 0.44875 0.28689 0.72842 0.0
C1806 C 0.44547 0.27378 0.67534 0.0
C1807 C 0.46341 0.28583 0.705 0.0
C1808 C 0.4811 0.29386 0.71672 0.0
C1809 C 0.42978 0.27115 0.68391 0.0
C1810 C 0.43096 0.2758 0.70336 0.0
C1811 C 0.44778 0.2833 0.71356 0.0
C1812 C 0.41522 0.27134 0.71364 0.0
C1813 C 0.41222 0.26252 0.67218 0.0
C1814 C 0.39983 0.2778 0.70959 0.0
C1815 C 0.38448 0.27171 0.71792 0.0
C1816 C 0.38434 0.25921 0.73054 0.0
C1817 C 0.40005 0.25364 0.73542 0.0
C1818 C 0.41535 0.25971 0.72714 0.0
H1819 H 0.41407 0.2563 0.65836 0.0
H1820 H 0.40418 0.25213 0.67921 0.0
H1821 H 0.40452 0.27278 0.66998 0.0
H1822 H 0.39949 0.28707 0.69954 0.0
H1823 H 0.37243 0.27598 0.71374 0.0
H1824 H 0.048 0.80597 0.64886 0.0
H1825 H 0.04907 0.83314 0.63451 0.0
H1826 H 0.9965 0.83428 0.64823 0.0
H1827 H 0.99574 0.8074 0.66347 0.0
H1828 H 0.02939 0.83885 0.60565 0.0
H1829 H 0.02169 0.88491 0.66599 0.0
H1830 H 0.02592 0.86322 0.66833 0.0
H1831 H 1.00382 0.86537 0.66046 0.0
C1832 C 0.03669 0.81205 0.64893 0.0
C1833 C 0.02179 0.80455 0.65732 0.0
C1834 C 0.03731 0.82761 0.64071 0.0
C1835 C 0.02297 0.83599 0.64044 0.0
C1836 C 0.00795 0.82842 0.64867 0.0
H1837 H 0.01834 0.91497 0.56317 0.0
H1838 H 0.00862 0.89059 0.58152 0.0
C1839 C 0.00746 0.81296 0.65724 0.0
C1840 C 0.02372 0.85218 0.63087 0.0
H1841 H 0.02215 0.89617 0.63708 0.0
C1842 C 0.02769 0.85133 0.61253 0.0
C1843 C 0.02166 0.86858 0.63985 0.0
C1844 C 0.0182 0.87069 0.65979 0.0
C1845 C 0.02994 0.86636 0.60306 0.0
C1846 C 0.0277 0.88267 0.61195 0.0
C1847 C 0.02355 0.88356 0.6302 0.0
C1848 C 0.03127 0.89919 0.60292 0.0
C1849 C 0.03544 0.86488 0.58386 0.0
C1850 C 0.04669 0.91259 0.60939 0.0
C1851 C 0.05217 0.92648 0.59899 0.0
C1852 C 0.04222 0.92735 0.58206 0.0
C1853 C 0.02605 0.91475 0.57633 0.0
C1854 C 0.02061 0.90075 0.5867 0.0
H1855 H 0.0395 0.8522 0.58021 0.0
H1856 H 0.02409 0.86543 0.57355 0.0
H1857 H 0.04671 0.87618 0.58271 0.0
H1858 H 0.05513 0.91163 0.62183 0.0
H1859 H 0.06482 0.9359 0.60353 0.0
H1860 H 0.48652 0.8295 0.83743 0.0
H1861 H 0.45479 0.82623 0.82718 0.0
H1862 H 0.44646 0.76915 0.8248 0.0
H1863 H 0.47796 0.77262 0.83656 0.0
H1864 H 0.43341 0.81429 0.79908 0.0
H1865 H 0.40554 0.77168 0.84988 0.0
H1866 H 0.42906 0.7814 0.85164 0.0
H1867 H 0.41912 0.76102 0.83636 0.0
C1868 C 0.47792 0.81622 0.83482 0.0
C1869 C 0.48499 0.80134 0.83795 0.0
C1870 C 0.4596 0.81432 0.82889 0.0
C1871 C 0.44758 0.79743 0.82547 0.0
C1872 C 0.45484 0.78248 0.828 0.0
H1873 H 0.33414 0.75841 0.78045 0.0
H1874 H 0.36573 0.7624 0.79155 0.0
C1875 C 0.4731 0.78443 0.83451 0.0
C1876 C 0.42782 0.79564 0.81878 0.0
H1877 H 0.38513 0.77449 0.82442 0.0
C1878 C 0.42296 0.80567 0.80486 0.0
C1879 C 0.41368 0.78447 0.82604 0.0
C1880 C 0.41711 0.7742 0.84193 0.0
C1881 C 0.40492 0.80462 0.79788 0.0
C1882 C 0.39088 0.79321 0.8049 0.0
C1883 C 0.39566 0.7832 0.81881 0.0
C1884 C 0.37126 0.7911 0.79782 0.0
C1885 C 0.40117 0.81548 0.78262 0.0
C1886 C 0.36323 0.80579 0.79765 0.0
C1887 C 0.34493 0.80351 0.79119 0.0
C1888 C 0.33391 0.78648 0.78474 0.0
C1889 C 0.34196 0.77181 0.78517 0.0
C1890 C 0.36021 0.77408 0.79158 0.0
H1891 H 0.41294 0.81944 0.77522 0.0
H1892 H 0.38973 0.808 0.77236 0.0
H1893 H 0.39784 0.82785 0.78874 0.0
H1894 H 0.37104 0.81908 0.80286 0.0
H1895 H 0.33933 0.81507 0.79171 0.0
H1896 H 0.4875 0.19486 0.14045 0.0
H1897 H 0.4888 0.16715 0.1214 0.0
H1898 H 0.53856 0.16718 0.15379 0.0
H1899 H 0.53663 0.19411 0.17332 0.0
H1900 H 0.5101 0.15887 0.09883 0.0
H1901 H 0.51541 0.11705 0.15489 0.0
H1902 H 0.51016 0.13853 0.1589 0.0
H1903 H 0.533 0.13682 0.15892 0.0
C1904 C 0.49846 0.18865 0.14371 0.0
C1905 C 0.51171 0.19638 0.1587 0.0
C1906 C 0.49931 0.17285 0.13273 0.0
C1907 C 0.51357 0.16452 0.13628 0.0
C1908 C 0.527 0.17264 0.15104 0.0
H1909 H 0.55261 0.08072 0.07449 0.0
H1910 H 0.54923 0.10762 0.09356 0.0
C1911 C 0.52596 0.18817 0.16221 0.0
C1912 C 0.51478 0.14784 0.12424 0.0
H1913 H 0.52302 0.10618 0.12567 0.0
C1914 C 0.51276 0.14734 0.10479 0.0
C1915 C 0.51817 0.1325 0.13173 0.0
C1916 C 0.51911 0.13116 0.15223 0.0
C1917 C 0.51444 0.13236 0.09289 0.0
C1918 C 0.51836 0.11737 0.10046 0.0
C1919 C 0.52022 0.11772 0.11981 0.0
C1920 C 0.52042 0.10115 0.0885 0.0
C1921 C 0.51225 0.13266 0.07222 0.0
C1922 C 0.5054 0.0884 0.07932 0.0
C1923 C 0.50732 0.07284 0.06874 0.0
C1924 C 0.52432 0.06983 0.06676 0.0
C1925 C 0.53936 0.08274 0.07564 0.0
C1926 C 0.53742 0.0981 0.08658 0.0
H1927 H 0.51105 0.14592 0.06849 0.0
H1928 H 0.52377 0.12903 0.06625 0.0
H1929 H 0.50007 0.12258 0.06578 0.0
H1930 H 0.49214 0.09038 0.08054 0.0
H1931 H 0.4955 0.06319 0.06198 0.0
H1932 H 0.08205 0.26017 0.32734 0.0
H1933 H 0.11074 0.25829 0.31715 0.0
H1934 H 0.13088 0.3146 0.33454 0.0
H1935 H 0.10241 0.3163 0.34556 0.0
H1936 H 0.12891 0.26988 0.29238 0.0
H1937 H 0.17243 0.3003 0.35748 0.0
H1938 H 0.1485 0.29485 0.35625 0.0
H1939 H 0.15996 0.31529 0.34885 0.0
C1940 C 0.09256 0.27221 0.32908 0.0
C1941 C 0.08964 0.2884 0.33741 0.0
C1942 C 0.10916 0.27112 0.32319 0.0
C1943 C 0.12361 0.28618 0.32528 0.0
C1944 C 0.12053 0.30249 0.3332 0.0
H1945 H 0.23227 0.30381 0.29022 0.0
H1946 H 0.20401 0.30713 0.30096 0.0
C1947 C 0.10398 0.30354 0.33934 0.0
C1948 C 0.14145 0.28475 0.31867 0.0
H1949 H 0.18705 0.29589 0.33093 0.0
C1950 C 0.14154 0.27553 0.301 0.0
C1951 C 0.15834 0.29199 0.32957 0.0
C1952 C 0.15984 0.30099 0.34915 0.0
C1953 C 0.15753 0.2736 0.29397 0.0
C1954 C 0.17437 0.28095 0.3048 0.0
C1955 C 0.17436 0.29027 0.32241 0.0
C1956 C 0.19196 0.27888 0.2982 0.0
C1957 C 0.15619 0.26397 0.2747 0.0
C1958 C 0.19521 0.26193 0.29317 0.0
C1959 C 0.21148 0.25999 0.28706 0.0
C1960 C 0.22527 0.27492 0.28564 0.0
C1961 C 0.22209 0.29191 0.29085 0.0
C1962 C 0.20582 0.29384 0.29711 0.0
H1963 H 0.14332 0.26368 0.26631 0.0
H1964 H 0.16724 0.27031 0.26731 0.0
H1965 H 0.15702 0.24998 0.27565 0.0
H1966 H 0.18518 0.25004 0.29419 0.0
H1967 H 0.21325 0.24666 0.28354 0.0
H1968 H 0.97388 0.0144 0.23303 0.0
H1969 H 0.98746 0.01909 0.20451 0.0
H1970 H 0.93876 0.02909 0.17855 0.0
H1971 H 0.92516 0.02456 0.20679 0.0
H1972 H 0.97468 1.00014 0.1678 0.0
H1973 H 0.97728 0.07248 0.17007 0.0
H1974 H 0.97417 0.06085 0.19007 0.0
H1975 H 0.95585 0.05877 0.17219 0.0
C1976 C 0.96611 0.0177 0.22129 0.0
C1977 C 0.94845 0.01917 0.2223 0.0
C1978 C 0.97387 0.02036 0.20499 0.0
C1979 C 0.96421 0.02471 0.18949 0.0
C1980 C 0.94659 0.02609 0.19044 0.0
H1981 H 0.98792 0.04666 0.07837 0.0
H1982 H 0.97413 0.04327 0.10698 0.0
C1983 C 0.93881 0.02339 0.20663 0.0
C1984 C 0.97228 0.02733 0.17209 0.0
H1985 H 0.98431 0.05802 0.14261 0.0
C1986 C 0.97689 0.01282 0.16233 0.0
C1987 C 0.97489 0.0438 0.16483 0.0
C1988 C 0.97043 0.05993 0.17488 0.0
C1989 C 0.98385 0.01425 0.1454 0.0
C1990 C 0.98682 0.03084 0.13828 0.0
C1991 C 0.98208 0.04532 0.14802 0.0
C1992 C 0.99532 0.03353 0.12109 0.0
C1993 C 0.9875 0.99778 0.13511 0.0
C1994 C 0.012 0.02968 0.11964 0.0
C1995 C 0.01974 0.03138 0.10333 0.0
C1996 C 0.01127 0.03748 0.08812 0.0
C1997 C 0.99483 0.04197 0.08979 0.0
C1998 C 0.98694 0.04003 0.10614 0.0
H1999 H 0.97914 0.98543 0.1389 0.0
H2000 H 0.98498 0.99762 0.11986 0.0
H2001 H 1.00166 0.99751 0.13889 0.0
H2002 H 0.01902 0.02515 0.1311 0.0
H2003 H 0.03233 0.02761 0.10262 0.0
H2004 H 0.30078 0.67154 0.49968 0.0
H2005 H 0.29854 0.68445 0.47039 0.0
H2006 H 0.24186 0.66151 0.46133 0.0
H2007 H 0.24404 0.64916 0.49076 0.0
H2008 H 0.28474 0.67001 0.43281 0.0
H2009 H 0.24597 0.71523 0.464 0.0
H2010 H 0.25746 0.70208 0.47763 0.0
H2011 H 0.23627 0.692 0.46405 0.0
C2012 C 0.28797 0.66914 0.4912 0.0
C2013 C 0.27256 0.65958 0.49717 0.0
C2014 C 0.28669 0.6764 0.47457 0.0
C2015 C 0.27001 0.67405 0.46396 0.0
C2016 C 0.25478 0.66362 0.46953 0.0
H2017 H 0.23338 0.70858 0.36267 0.0
H2018 H 0.24364 0.68981 0.38459 0.0
C2019 C 0.25603 0.65658 0.4862 0.0
C2020 C 0.26822 0.68373 0.44793 0.0
H2021 H 0.24866 0.71553 0.43215 0.0
C2022 C 0.27691 0.68 0.4326 0.0
C2023 C 0.2581 0.69684 0.44795 0.0
C2024 C 0.24905 0.70192 0.46435 0.0
C2025 C 0.27546 0.68895 0.41702 0.0
C2026 C 0.26515 0.70182 0.41703 0.0
C2027 C 0.25658 0.7056 0.43237 0.0
C2028 C 0.26275 0.71175 0.40137 0.0
C2029 C 0.28501 0.68488 0.40076 0.0
C2030 C 0.27039 0.73009 0.40359 0.0
C2031 C 0.26432 0.74077 0.39142 0.0
C2032 C 0.25065 0.73312 0.37694 0.0
C2033 C 0.24391 0.7146 0.3739 0.0
C2034 C 0.24987 0.70393 0.3862 0.0
H2035 H 0.29327 0.67513 0.40335 0.0
H2036 H 0.27512 0.6794 0.3883 0.0
H2037 H 0.29371 0.69736 0.39767 0.0
H2038 H 0.28021 0.73627 0.4154 0.0
H2039 H 0.26976 0.75505 0.39372 0.0
H2040 H 0.67428 0.04697 0.70435 0.0
H2041 H 0.65476 0.04887 0.67671 0.0
H2042 H 0.61247 0.00966 0.6931 0.0
H2043 H 0.63177 0.00798 0.72116 0.0
H2044 H 0.63657 0.02388 0.64809 0.0
H2045 H 0.59072 0.05305 0.68854 0.0
H2046 H 0.61252 0.05148 0.69856 0.0
H2047 H 0.59406 0.03233 0.69542 0.0
C2048 C 0.66095 0.03846 0.7019 0.0
C2049 C 0.6544 0.02746 0.71493 0.0
C2050 C 0.64983 0.03967 0.68621 0.0
C2051 C 0.63217 0.02979 0.68336 0.0
C2052 C 0.62599 0.01775 0.69553 0.0
H2053 H 0.55928 1.0021 0.58631 0.0
H2054 H 0.58005 1.00442 0.61438 0.0
C2055 C 0.63704 0.01665 0.71136 0.0
C2056 C 0.62014 0.03225 0.66767 0.0
H2057 H 0.58055 0.04314 0.65639 0.0
C2058 C 0.62441 0.02826 0.64985 0.0
C2059 C 0.60464 0.03848 0.67024 0.0
C2060 C 0.60028 0.04427 0.68923 0.0
C2061 C 0.61298 0.02946 0.6343 0.0
C2062 C 0.59678 0.03428 0.63687 0.0
C2063 C 0.59294 0.03921 0.65467 0.0
C2064 C 0.58311 0.03288 0.62122 0.0
C2065 C 0.61819 0.02529 0.6153 0.0
C2066 C 0.57731 0.04798 0.6167 0.0
C2067 C 0.56507 0.04655 0.601 0.0
C2068 C 0.55902 0.03014 0.58975 0.0
C2069 C 0.56425 0.01494 0.59473 0.0
C2070 C 0.57606 0.01626 0.61061 0.0
H2071 H 0.63287 0.02729 0.61578 0.0
H2072 H 0.61208 0.01111 0.60991 0.0
H2073 H 0.61346 0.03374 0.60542 0.0
H2074 H 0.5826 0.06084 0.62499 0.0
H2075 H 0.561 0.05834 0.59717 0.0
H2076 H 0.26475 0.35567 0.97667 0.0
H2077 H 0.26213 0.34262 0.94411 0.0
H2078 H 0.31412 0.33151 0.95442 0.0
H2079 H 0.31644 0.34373 0.98689 0.0
H2080 H 0.28126 0.3512 0.91646 0.0
H2081 H 0.28677 0.28368 0.93018 0.0
H2082 H 0.28357 0.30006 0.94809 0.0
H2083 H 0.30547 0.30055 0.94165 0.0
C2084 C 0.27552 0.35025 0.97201 0.0
C2085 C 0.29066 0.35046 0.9845 0.0
C2086 C 0.27404 0.34283 0.95336 0.0
C2087 C 0.28772 0.33559 0.94677 0.0
C2088 C 0.30306 0.33634 0.95917 0.0
H2089 H 0.31115 0.28596 0.84343 0.0
H2090 H 0.31077 0.29909 0.87505 0.0
C2091 C 0.30441 0.34345 0.9778 0.0
C2092 C 0.28624 0.32759 0.92695 0.0
H2093 H 0.29004 0.29043 0.89953 0.0
C2094 C 0.28302 0.33785 0.91275 0.0
C2095 C 0.28854 0.31014 0.92197 0.0
C2096 C 0.2911 0.29791 0.93627 0.0
C2097 C 0.28271 0.33147 0.8939 0.0
C2098 C 0.2853 0.31411 0.88895 0.0
C2099 C 0.28817 0.30375 0.90316 0.0
C2100 C 0.28558 0.30649 0.86928 0.0
C2101 C 0.28028 0.34375 0.87961 0.0
C2102 C 0.27156 0.30598 0.85523 0.0
C2103 C 0.27214 0.29893 0.83688 0.0
C2104 C 0.28646 0.29163 0.83219 0.0
C2105 C 0.30009 0.29156 0.84637 0.0
C2106 C 0.29979 0.29905 0.86459 0.0
H2107 H 0.28387 0.35795 0.88587 0.0
H2108 H 0.28851 0.34214 0.86828 0.0
H2109 H 0.26606 0.34059 0.87353 0.0
H2110 H 0.26004 0.31088 0.85842 0.0
H2111 H 0.26118 0.2989 0.82641 0.0
H2112 H 0.972 0.04304 0.32821 0.0
H2113 H 0.98416 0.0461 0.36119 0.0
H2114 H 0.95135 0.99437 0.36552 0.0
H2115 H 0.94 0.99101 0.33253 0.0
H2116 H 0.97056 0.04646 0.39351 0.0
H2117 H 0.99888 0.98698 0.38429 0.0
H2118 H 0.99006 0.99642 0.3649 0.0
H2119 H 0.97533 0.98176 0.37711 0.0
C2120 C 0.96743 0.0324 0.3363 0.0
C2121 C 0.95526 0.01671 0.32789 0.0
C2122 C 0.97434 0.03413 0.35512 0.0
C2123 C 0.96909 0.02025 0.36582 0.0
C2124 C 0.95616 1.005 0.35751 0.0
H2125 H 0.992 1.0039 0.48108 0.0
H2126 H 0.97957 1.00238 0.44848 0.0
C2127 C 0.94954 1.00314 0.3387 0.0
C2128 C 0.97727 0.02146 0.3855 0.0
H2129 H 0.99839 0.99921 0.41542 0.0
C2130 C 0.97676 0.03619 0.39823 0.0
C2131 C 0.98547 0.00811 0.39179 0.0
C2132 C 0.98765 0.99253 0.37877 0.0
C2133 C 0.98381 0.03767 0.41704 0.0
C2134 C 0.99167 0.02415 0.4233 0.0
C2135 C 0.99227 0.00951 0.41061 0.0
C2136 C 0.9994 0.02495 0.44296 0.0
C2137 C 0.98251 0.05351 0.43021 0.0
C2138 C 0.01485 0.03791 0.45061 0.0
C2139 C 0.02217 0.03849 0.46908 0.0
C2140 C 0.01411 0.02617 0.48019 0.0
C2141 C 0.99864 0.01326 0.47262 0.0
C2142 C 0.99147 0.0125 0.45408 0.0
H2143 H 0.97309 0.06094 0.42411 0.0
H2144 H 0.97813 0.04922 0.44335 0.0
H2145 H 0.99585 0.06276 0.43365 0.0
H2146 H 0.02128 0.04754 0.44226 0.0
H2147 H 0.034 0.04868 0.47476 0.0
H2148 H 0.25228 0.63772 0.60261 0.0
H2149 H 0.25001 0.65819 0.62935 0.0
H2150 H 0.30224 0.69012 0.6251 0.0
H2151 H 0.30418 0.6701 0.59755 0.0
H2152 H 0.26887 0.66937 0.66245 0.0
H2153 H 0.27169 0.72581 0.62114 0.0
H2154 H 0.26925 0.70316 0.61061 0.0
H2155 H 0.29088 0.71652 0.6205 0.0
C2156 C 0.26344 0.6489 0.60762 0.0
C2157 C 0.27838 0.65253 0.59811 0.0
C2158 C 0.26206 0.6606 0.62278 0.0
C2159 C 0.27573 0.67582 0.62872 0.0
C2160 C 0.29133 0.67868 0.6202 0.0
H2161 H 0.3009 0.74494 0.72756 0.0
H2162 H 0.29778 0.72308 0.70022 0.0
C2163 C 0.29253 0.66721 0.60471 0.0
C2164 C 0.27337 0.68896 0.6435 0.0
H2165 H 0.27451 0.73302 0.6541 0.0
C2166 C 0.2699 0.68324 0.66059 0.0
C2167 C 0.27422 0.7069 0.64073 0.0
C2168 C 0.27651 0.71343 0.62218 0.0
C2169 C 0.26823 0.69532 0.67541 0.0
C2170 C 0.27046 0.71343 0.67299 0.0
C2171 C 0.27298 0.71903 0.65571 0.0
C2172 C 0.27223 0.72696 0.68879 0.0
C2173 C 0.26451 0.68881 0.69368 0.0
C2174 C 0.25909 0.73657 0.69074 0.0
C2175 C 0.26094 0.74921 0.70619 0.0
C2176 C 0.27586 0.75205 0.71967 0.0
C2177 C 0.28919 0.74271 0.71738 0.0
C2178 C 0.28742 0.73027 0.7019 0.0
H2179 H 0.25925 0.67413 0.69208 0.0
H2180 H 0.27704 0.69221 0.70347 0.0
H2181 H 0.25476 0.69541 0.69991 0.0
H2182 H 0.24737 0.73408 0.68053 0.0
H2183 H 0.25052 0.75631 0.70793 0.0
H2184 H 0.62289 0.04844 0.80441 0.0
H2185 H 0.60985 0.04667 0.83326 0.0
H2186 H 0.65499 0.0295 0.8583 0.0
H2187 H 0.66834 0.0313 0.82941 0.0
H2188 H 0.6034 0.01244 0.85073 0.0
H2189 H 0.64645 0.07271 0.89484 0.0
H2190 H 0.64326 0.07134 0.86989 0.0
H2191 H 0.65659 0.05819 0.88084 0.0
C2192 C 0.63009 0.04431 0.81603 0.0
C2193 C 0.64648 0.03972 0.81464 0.0
C2194 C 0.62264 0.04334 0.83244 0.0
C2195 C 0.6315 0.03785 0.84763 0.0
C2196 C 0.64807 0.03374 0.84656 0.0
H2197 H 0.59129 0.04572 0.95281 0.0
H2198 H 0.60691 0.03293 0.92969 0.0
C2199 C 0.65558 0.03469 0.83009 0.0
C2200 C 0.62279 0.03579 0.86427 0.0
H2201 H 0.62125 0.0576 0.90653 0.0
C2202 C 0.60743 0.02206 0.86315 0.0
C2203 C 0.6283 0.04838 0.88026 0.0
C2204 C 0.64452 0.06356 0.88168 0.0
C2205 C 0.59674 0.02117 0.87742 0.0
C2206 C 0.60165 0.03442 0.89292 0.0
C2207 C 0.61767 0.04742 0.89456 0.0
C2208 C 0.58939 0.0369 0.90634 0.0
C2209 C 0.57999 0.00659 0.8755 0.0
C2210 C 0.5741 0.04285 0.90068 0.0
C2211 C 0.5651 0.05021 0.91386 0.0
C2212 C 0.57138 0.0517 0.93276 0.0
C2213 C 0.58605 0.04464 0.93832 0.0
C2214 C 0.59496 0.03726 0.92518 0.0
H2215 H 0.58085 0.99482 0.86588 0.0
H2216 H 0.57734 1.00231 0.88917 0.0
H2217 H 0.56852 0.01166 0.86979 0.0
H2218 H 0.56986 0.04293 0.88611 0.0
H2219 H 0.55365 0.05527 0.90927 0.0
H2220 H 0.30289 0.37811 0.10939 0.0
H2221 H 0.29844 0.36209 0.13618 0.0
H2222 H 0.26317 0.31757 0.10084 0.0
H2223 H 0.26861 0.33325 0.07373 0.0
H2224 H 0.27125 0.35141 0.15261 0.0
H2225 H 0.29342 0.29098 0.12734 0.0
H2226 H 0.29639 0.3104 0.1154 0.0
H2227 H 0.27517 0.29456 0.11226 0.0
C2228 C 0.29438 0.36478 0.1073 0.0
C2229 C 0.2863 0.3568 0.08943 0.0
C2230 C 0.29176 0.35564 0.12267 0.0
C2231 C 0.2807 0.33839 0.12065 0.0
C2232 C 0.27228 0.33056 0.1028 0.0
H2233 H 0.24414 0.28186 0.21369 0.0
H2234 H 0.24475 0.29437 0.18407 0.0
C2235 C 0.2753 0.33954 0.08728 0.0
C2236 C 0.27792 0.32896 0.13736 0.0
H2237 H 0.28063 0.29045 0.15543 0.0
C2238 C 0.27325 0.33805 0.15311 0.0
C2239 C 0.2807 0.31155 0.13829 0.0
C2240 C 0.28687 0.30137 0.1225 0.0
C2241 C 0.27138 0.33031 0.16959 0.0
C2242 C 0.2739 0.31289 0.17034 0.0
C2243 C 0.27841 0.3037 0.15467 0.0
C2244 C 0.27333 0.30466 0.18781 0.0
C2245 C 0.26726 0.34092 0.18638 0.0
C2246 C 0.28919 0.30611 0.19955 0.0
C2247 C 0.28888 0.29902 0.21636 0.0
C2248 C 0.27269 0.29029 0.22186 0.0
C2249 C 0.25682 0.28847 0.20986 0.0
C2250 C 0.25714 0.29566 0.19298 0.0
H2251 H 0.26573 0.35437 0.18363 0.0
H2252 H 0.25479 0.33363 0.19093 0.0
H2253 H 0.27814 0.34248 0.19799 0.0
H2254 H 0.30182 0.31292 0.19578 0.0
H2255 H 0.3014 0.30035 0.22506 0.0
H2256 H 0.24659 0.95432 0.03614 0.0
H2257 H 0.21906 0.96354 0.04026 0.0
H2258 H 0.20476 0.95693 0.98087 0.0
H2259 H 0.23227 0.94673 0.97671 0.0
H2260 H 0.2136 0.99404 0.02549 0.0
H2261 H 0.1578 0.93447 0.00144 0.0
H2262 H 0.1803 0.93249 0.00815 0.0
H2263 H 0.17476 0.94038 0.98663 0.0
C2264 C 0.23749 0.95471 0.02398 0.0
C2265 C 0.24148 0.95027 0.00612 0.0
C2266 C 0.22178 0.95981 0.02633 0.0
C2267 C 0.21003 0.96091 0.01085 0.0
C2268 C 0.21366 0.9559 0.99293 0.0
H2269 H 0.13513 0.02627 0.03454 0.0
H2270 H 0.15216 0.0098 0.01583 0.0
C2271 C 0.22932 0.9503 0.99056 0.0
C2272 C 0.19525 0.96929 0.01396 0.0
H2273 H 0.15041 0.96031 0.01534 0.0
C2274 C 0.19973 0.98683 0.02294 0.0
C2275 C 0.17731 0.95964 0.01066 0.0
C2276 C 0.17212 0.94066 0.00127 0.0
C2277 C 0.18681 0.99469 0.02979 0.0
C2278 C 0.16893 0.98489 0.02701 0.0
C2279 C 0.16422 0.96768 0.01721 0.0
C2280 C 0.15554 0.99195 0.03604 0.0
C2281 C 0.19246 0.01297 0.04097 0.0
C2282 C 0.15172 0.98697 0.05331 0.0
C2283 C 0.14225 0.99643 0.06408 0.0
C2284 C 0.13647 0.01086 0.05757 0.0
C2285 C 0.13947 0.01515 0.03979 0.0
C2286 C 0.14903 0.00574 0.02908 0.0
H2287 H 0.20715 0.01821 0.0429 0.0
H2288 H 0.18616 0.02245 0.03388 0.0
H2289 H 0.18788 0.0125 0.05484 0.0
H2290 H 0.1569 0.97641 0.05884 0.0
H2291 H 0.13977 0.99275 0.07762 0.0
H2292 H 0.72629 0.61644 0.99984 0.0
H2293 H 0.69691 0.59706 0.00126 0.0
H2294 H 0.68385 0.63904 0.03687 0.0
H2295 H 0.71248 0.65869 0.03431 0.0
H2296 H 0.68252 0.5839 0.02869 0.0
H2297 H 0.64008 0.6267 0.00134 0.0
H2298 H 0.66376 0.63149 1.00038 0.0
H2299 H 0.65513 0.63804 0.02132 0.0
C2300 C 0.71691 0.62157 0.0076 0.0
C2301 C 0.72138 0.63914 0.01658 0.0
C2302 C 0.70021 0.6105 0.00851 0.0
C2303 C 0.68793 0.61672 0.01879 0.0
C2304 C 0.6927 0.63415 0.02819 0.0
H2305 H 0.59782 0.55003 0.05911 0.0
H2306 H 0.62706 0.56849 0.05575 0.0
C2307 C 0.7091 0.64535 0.02679 0.0
C2308 C 0.67042 0.60483 0.02027 0.0
H2309 H 0.62569 0.6026 0.01627 0.0
C2310 C 0.67009 0.58794 0.0258 0.0
C2311 C 0.65413 0.61003 0.01642 0.0
C2312 C 0.65327 0.62748 0.00936 0.0
C2313 C 0.65399 0.57622 0.02776 0.0
C2314 C 0.63784 0.58171 0.02452 0.0
C2315 C 0.63812 0.59849 0.01886 0.0
C2316 C 0.6204 0.57016 0.02658 0.0
C2317 C 0.65435 0.55793 0.03288 0.0
C2318 C 0.60681 0.56543 0.01147 0.0
C2319 C 0.59001 0.55535 0.01352 0.0
C2320 C 0.58666 0.54962 0.03064 0.0
C2321 C 0.60029 0.55409 0.0457 0.0
C2322 C 0.61697 0.56453 0.04376 0.0
H2323 H 0.66718 0.55435 0.03078 0.0
H2324 H 0.65264 0.55764 0.04773 0.0
H2325 H 0.6433 0.54764 0.02455 0.0
H2326 H 0.6092 0.56965 0.99811 0.0
H2327 H 0.57967 0.55193 0.00173 0.0
H2328 H 0.66386 0.47954 0.31921 0.0
H2329 H 0.67745 0.45363 0.31837 0.0
H2330 H 0.69312 0.46335 0.26481 0.0
H2331 H 0.68002 0.48917 0.26565 0.0
H2332 H 0.67074 0.4224 0.29089 0.0
H2333 H 0.74004 0.46248 0.29616 0.0
H2334 H 0.72183 0.47203 0.30231 0.0
H2335 H 0.7252 0.46804 0.27841 0.0
C2336 C 0.67026 0.47614 0.30731 0.0
C2337 C 0.67113 0.48656 0.29264 0.0
C2338 C 0.67797 0.46136 0.30684 0.0
C2339 C 0.68661 0.45686 0.2917 0.0
C2340 C 0.68693 0.4669 0.27683 0.0
H2341 H 0.73407 0.38168 0.23872 0.0
H2342 H 0.72288 0.40707 0.25112 0.0
C2343 C 0.67941 0.48165 0.27734 0.0
C2344 C 0.69539 0.44172 0.2911 0.0
H2345 H 0.73508 0.43151 0.28435 0.0
C2346 C 0.68487 0.42433 0.28987 0.0
C2347 C 0.71384 0.44434 0.28981 0.0
C2348 C 0.72593 0.46275 0.29192 0.0
C2349 C 0.69214 0.40944 0.28613 0.0
C2350 C 0.71041 0.41214 0.28385 0.0
C2351 C 0.72107 0.42951 0.28605 0.0
C2352 C 0.71826 0.39726 0.27726 0.0
C2353 C 0.68007 0.391 0.2836 0.0
C2354 C 0.71983 0.38363 0.2881 0.0
C2355 C 0.72634 0.36917 0.28106 0.0
C2356 C 0.73119 0.36815 0.26307 0.0
C2357 C 0.73017 0.38211 0.25254 0.0
C2358 C 0.72386 0.39659 0.25962 0.0
H2359 H 0.66577 0.39136 0.28282 0.0
H2360 H 0.6821 0.38309 0.27079 0.0
H2361 H 0.68336 0.384 0.29551 0.0
H2362 H 0.71581 0.38407 0.30185 0.0
H2363 H 0.72705 0.35853 0.2894 0.0
H2364 H 0.83451 0.46061 0.53391 0.0
H2365 H 0.86606 0.47459 0.54387 0.0
H2366 H 0.88022 0.44523 0.49651 0.0
H2367 H 0.84851 0.43071 0.48676 0.0
H2368 H 0.89607 0.45073 0.54673 0.0
H2369 H 0.90054 0.50477 0.50138 0.0
H2370 H 0.87981 0.49431 0.50904 0.0
H2371 H 0.8889 0.48245 0.49152 0.0
C2372 C 0.84441 0.4574 0.52553 0.0
C2373 C 0.83946 0.44495 0.50951 0.0
C2374 C 0.86226 0.46519 0.53129 0.0
C2375 C 0.87511 0.46074 0.52087 0.0
C2376 C 0.87021 0.44857 0.50464 0.0
H2377 H 0.98305 0.49115 0.51628 0.0
H2378 H 0.95346 0.47308 0.51866 0.0
C2379 C 0.85231 0.44047 0.49905 0.0
C2380 C 0.89375 0.46911 0.52692 0.0
H2381 H 0.92723 0.50244 0.51861 0.0
C2382 C 0.90298 0.46209 0.54074 0.0
C2383 C 0.90225 0.48401 0.51911 0.0
C2384 C 0.89243 0.49197 0.50449 0.0
C2385 C 0.92109 0.4694 0.54651 0.0
C2386 C 0.9297 0.48389 0.53821 0.0
C2387 C 0.92029 0.49127 0.52487 0.0
C2388 C 0.94886 0.49077 0.54159 0.0
C2389 C 0.93112 0.46153 0.56098 0.0
C2390 C 0.95596 0.50614 0.55422 0.0
C2391 C 0.97279 0.51637 0.55287 0.0
C2392 C 0.98232 0.51114 0.53891 0.0
C2393 C 0.97579 0.49506 0.52727 0.0
C2394 C 0.95908 0.48477 0.52871 0.0
H2395 H 0.92222 0.45075 0.56676 0.0
H2396 H 0.94159 0.45605 0.55478 0.0
H2397 H 0.93793 0.47214 0.57245 0.0
H2398 H 0.94791 0.51099 0.56393 0.0
H2399 H 0.97772 0.52901 0.56168 0.0
H2400 H 0.37559 0.076 0.32873 0.0
H2401 H 0.36515 0.10348 0.32586 0.0
H2402 H 0.33013 0.07759 0.27631 0.0
H2403 H 0.34014 0.05029 0.27911 0.0
H2404 H 0.36414 0.12246 0.29091 0.0
H2405 H 0.29847 0.09657 0.31394 0.0
H2406 H 0.31785 0.08797 0.32019 0.0
H2407 H 0.30519 0.08121 0.29759 0.0
C2408 C 0.36557 0.07621 0.31733 0.0
C2409 C 0.35836 0.06099 0.30436 0.0
C2410 C 0.35973 0.09184 0.3157 0.0
C2411 C 0.34672 0.09224 0.30109 0.0
C2412 C 0.33993 0.07725 0.28788 0.0
H2413 H 0.28377 0.13962 0.23742 0.0
H2414 H 0.29874 0.12222 0.25693 0.0
C2415 C 0.34561 0.06169 0.28956 0.0
C2416 C 0.33981 0.10812 0.29925 0.0
H2417 H 0.30015 0.12016 0.29477 0.0
C2418 C 0.35033 0.1224 0.29228 0.0
C2419 C 0.32181 0.1077 0.30108 0.0
C2420 C 0.31018 0.0926 0.30877 0.0
C2421 C 0.34273 0.13559 0.28536 0.0
C2422 C 0.32432 0.13441 0.28592 0.0
C2423 C 0.31425 0.12094 0.29439 0.0
C2424 C 0.3147 0.14518 0.27524 0.0
C2425 C 0.35404 0.14974 0.27614 0.0
C2426 C 0.31862 0.16375 0.27935 0.0
C2427 C 0.31039 0.17373 0.26798 0.0
C2428 C 0.29794 0.16521 0.25254 0.0
C2429 C 0.29358 0.14654 0.24895 0.0
C2430 C 0.30195 0.13661 0.2602 0.0
H2431 H 0.3673 0.14703 0.27437 0.0
H2432 H 0.3472 0.15074 0.26232 0.0
H2433 H 0.35618 0.16285 0.28477 0.0
H2434 H 0.32825 0.1705 0.2911 0.0
H2435 H 0.31408 0.18813 0.27103 0.0
H2436 H 0.32097 0.13418 0.55365 0.0
H2437 H 0.3474 0.12197 0.55584 0.0
H2438 H 0.34941 0.12319 0.49722 0.0
H2439 H 0.32339 0.13653 0.49525 0.0
H2440 H 0.35089 0.09156 0.54078 0.0
H2441 H 0.4006 0.14416 0.51602 0.0
H2442 H 0.37928 0.14749 0.52136 0.0
H2443 H 0.38099 0.13512 0.49967 0.0
C2444 C 0.32715 0.132 0.54125 0.0
C2445 C 0.32017 0.13628 0.52428 0.0
C2446 C 0.34227 0.12502 0.54251 0.0
C2447 C 0.35057 0.12178 0.52674 0.0
C2448 C 0.34358 0.126 0.50969 0.0
H2449 H 0.42466 0.05113 0.53095 0.0
H2450 H 0.40266 0.06669 0.51813 0.0
C2451 C 0.32864 0.13347 0.50853 0.0
C2452 C 0.36586 0.11308 0.52831 0.0
H2453 H 0.40979 0.11792 0.52232 0.0
C2454 C 0.36371 0.09732 0.53661 0.0
C2455 C 0.38267 0.1206 0.52296 0.0
C2456 C 0.38613 0.13785 0.51467 0.0
C2457 C 0.37791 0.08914 0.54012 0.0
C2458 C 0.39462 0.09661 0.53474 0.0
C2459 C 0.39682 0.11213 0.52613 0.0
C2460 C 0.41021 0.08921 0.53974 0.0
C2461 C 0.3752 0.07296 0.55029 0.0
C2462 C 0.4221 0.09713 0.55564 0.0
C2463 C 0.4345 0.08826 0.56299 0.0
C2464 C 0.43527 0.07141 0.55445 0.0
C2465 C 0.42437 0.06417 0.53767 0.0
C2466 C 0.41181 0.07299 0.5304 0.0
H2467 H 0.36174 0.06964 0.55479 0.0
H2468 H 0.37696 0.0613 0.54115 0.0
H2469 H 0.38535 0.07528 0.56271 0.0
H2470 H 0.42098 0.1096 0.56306 0.0
H2471 H 0.44282 0.09409 0.57594 0.0
H2472 H 0.69124 0.57453 0.2882 0.0
H2473 H 0.70881 0.6044 0.28602 0.0
H2474 H 0.6745 0.62752 0.31885 0.0
H2475 H 0.65675 0.59771 0.32107 0.0
H2476 H 0.69357 0.63272 0.27091 0.0
H2477 H 0.7269 0.65134 0.3436 0.0
H2478 H 0.71765 0.62844 0.3336 0.0
H2479 H 0.70318 0.64236 0.34058 0.0
C2480 C 0.68758 0.58594 0.29524 0.0
C2481 C 0.6726 0.58373 0.30487 0.0
C2482 C 0.69758 0.60299 0.29387 0.0
C2483 C 0.69297 0.6181 0.30233 0.0
C2484 C 0.67834 0.61598 0.31236 0.0
H2485 H 0.73605 0.73174 0.30949 0.0
H2486 H 0.71861 0.70197 0.31196 0.0
C2487 C 0.66822 0.59894 0.3136 0.0
C2488 C 0.70305 0.63612 0.30007 0.0
H2489 H 0.73108 0.6737 0.32382 0.0
C2490 C 0.70185 0.64169 0.28243 0.0
C2491 C 0.71366 0.64775 0.31518 0.0
C2492 C 0.7156 0.64222 0.33432 0.0
C2493 C 0.71087 0.65878 0.27954 0.0
C2494 C 0.72169 0.67035 0.29463 0.0
C2495 C 0.72282 0.66476 0.31228 0.0
C2496 C 0.73194 0.68836 0.29249 0.0
C2497 C 0.70841 0.66446 0.2605 0.0
C2498 C 0.74529 0.69056 0.28079 0.0
C2499 C 0.7553 0.70758 0.27932 0.0
C2500 C 0.75218 0.72268 0.28963 0.0
C2501 C 0.7388 0.7204 0.30135 0.0
C2502 C 0.72881 0.7034 0.30279 0.0
H2503 H 0.69627 0.65602 0.25187 0.0
H2504 H 0.70743 0.67859 0.26144 0.0
H2505 H 0.72008 0.66318 0.25333 0.0
H2506 H 0.74814 0.67909 0.27298 0.0
H2507 H 0.76547 0.7089 0.27013 0.0
H2508 H 0.88692 0.46278 0.82372 0.0
H2509 H 0.87309 0.43104 0.81602 0.0
H2510 H 0.82199 0.4432 0.80232 0.0
H2511 H 0.83562 0.47503 0.80985 0.0
H2512 H 0.84149 0.40938 0.82958 0.0
H2513 H 0.8344 0.41531 0.75408 0.0
H2514 H 0.84973 0.43169 0.77098 0.0
H2515 H 0.82634 0.43118 0.76861 0.0
C2516 C 0.87268 0.4587 0.81934 0.0
C2517 C 0.86234 0.4713 0.81711 0.0
C2518 C 0.86488 0.44064 0.81496 0.0
C2519 C 0.84673 0.43512 0.80833 0.0
C2520 C 0.83612 0.44751 0.8072 0.0
H2521 H 0.77246 0.33569 0.78259 0.0
H2522 H 0.78751 0.36733 0.78615 0.0
C2523 C 0.84389 0.46558 0.8116 0.0
C2524 C 0.83896 0.41639 0.80187 0.0
H2525 H 0.82063 0.38754 0.76294 0.0
C2526 C 0.83698 0.40451 0.81505 0.0
C2527 C 0.83345 0.41036 0.78284 0.0
C2528 C 0.83618 0.42274 0.76824 0.0
C2529 C 0.8289 0.38654 0.80964 0.0
C2530 C 0.8229 0.38067 0.79068 0.0
C2531 C 0.82526 0.39242 0.77745 0.0
C2532 C 0.81369 0.36228 0.78455 0.0
C2533 C 0.82657 0.37397 0.82412 0.0
C2534 C 0.8236 0.34947 0.78158 0.0
C2535 C 0.81511 0.33155 0.77942 0.0
C2536 C 0.79674 0.32649 0.78047 0.0
C2537 C 0.78665 0.33941 0.78183 0.0
C2538 C 0.79516 0.35734 0.78387 0.0
H2539 H 0.83133 0.38095 0.8384 0.0
H2540 H 0.8123 0.36713 0.82338 0.0
H2541 H 0.83411 0.36355 0.82136 0.0
H2542 H 0.83797 0.35333 0.78217 0.0
H2543 H 0.82318 0.3218 0.77851 0.0
H2544 H 0.03964 0.85078 0.11728 0.0
H2545 H 0.03686 0.88031 0.10959 0.0
H2546 H 0.05857 0.87076 0.05871 0.0
H2547 H 0.06175 0.84142 0.06651 0.0
H2548 H 0.0647 0.91099 0.10092 0.0
H2549 H 0.01098 0.88577 0.04195 0.0
H2550 H 0.01592 0.87212 0.05947 0.0
H2551 H 0.0302 0.87632 0.04183 0.0
C2552 C 0.04376 0.85484 0.10437 0.0
C2553 C 0.05079 0.84327 0.09251 0.0
C2554 C 0.04222 0.87194 0.09999 0.0
C2555 C 0.04727 0.87811 0.08337 0.0
C2556 C 0.0543 0.86658 0.07152 0.0
H2557 H 0.03458 0.97134 0.02573 0.0
H2558 H 0.03814 0.9425 0.0345 0.0
C2559 C 0.05614 0.84963 0.07605 0.0
C2560 C 0.04526 0.89642 0.07845 0.0
H2561 H 0.02272 0.91675 0.0473 0.0
C2562 C 0.05547 0.9122 0.08919 0.0
C2563 C 0.03344 0.89846 0.06305 0.0
C2564 C 0.02187 0.88233 0.05091 0.0
C2565 C 0.05458 0.92954 0.08481 0.0
C2566 C 0.0424 0.93167 0.06958 0.0
C2567 C 0.03212 0.91575 0.05895 0.0
C2568 C 0.04024 0.94995 0.0642 0.0
C2569 C 0.06752 0.9453 0.09624 0.0
C2570 C 0.03979 0.96443 0.07753 0.0
C2571 C 0.03841 0.9813 0.07245 0.0
C2572 C 0.0366 0.98437 0.05373 0.0
C2573 C 0.0361 0.96975 0.0403 0.0
C2574 C 0.03808 0.95303 0.04541 0.0
H2575 H 0.07965 0.94149 0.10235 0.0
H2576 H 0.07175 0.95625 0.08786 0.0
H2577 H 0.06112 0.95031 0.10792 0.0
H2578 H 0.04033 0.96276 0.09205 0.0
H2579 H 0.03842 0.99193 0.0833 0.0
H2580 H 0.95265 0.28838 0.92299 0.0
H2581 H 0.92583 0.2903 0.90295 0.0
H2582 H 0.92961 0.24392 0.86718 0.0
H2583 H 0.95673 0.24222 0.88685 0.0
H2584 H 0.92252 0.29126 0.85998 0.0
H2585 H 0.87629 0.23493 0.88365 0.0
H2586 H 0.89657 0.24732 0.89782 0.0
H2587 H 0.89763 0.23151 0.87851 0.0
C2588 C 0.94778 0.27854 0.91088 0.0
C2589 C 0.95695 0.26511 0.90664 0.0
C2590 C 0.93242 0.2797 0.89937 0.0
C2591 C 0.92551 0.26721 0.88353 0.0
C2592 C 0.93455 0.25371 0.87931 0.0
H2593 H 0.83033 0.24774 0.80023 0.0
H2594 H 0.85754 0.24591 0.81985 0.0
C2595 C 0.95014 0.25278 0.89059 0.0
C2596 C 0.90899 0.26834 0.87134 0.0
H2597 H 0.8647 0.24808 0.85892 0.0
C2598 C 0.90988 0.28185 0.8598 0.0
C2599 C 0.89241 0.25607 0.87097 0.0
C2600 C 0.89047 0.24165 0.88344 0.0
C2601 C 0.89484 0.28324 0.8478 0.0
C2602 C 0.8782 0.271 0.84746 0.0
C2603 C 0.87734 0.25748 0.85902 0.0
C2604 C 0.86157 0.27212 0.83538 0.0
C2605 C 0.89702 0.29758 0.83522 0.0
C2606 C 0.85451 0.28736 0.83746 0.0
C2607 C 0.83893 0.28835 0.82631 0.0
C2608 C 0.82986 0.27409 0.81283 0.0
C2609 C 0.83694 0.2589 0.81057 0.0
C2610 C 0.8525 0.25785 0.82183 0.0
H2611 H 0.91123 0.30272 0.8335 0.0
H2612 H 0.8893 0.29253 0.82132 0.0
H2613 H 0.89195 0.30891 0.84131 0.0
H2614 H 0.86099 0.29852 0.84785 0.0
H2615 H 0.83405 0.30039 0.82812 0.0
H2616 H 0.57975 0.2396 0.58665 0.0
H2617 H 0.57857 0.20774 0.57761 0.0
H2618 H 0.52583 0.19379 0.59344 0.0
H2619 H 0.52716 0.22539 0.60287 0.0
H2620 H 0.57188 0.17801 0.60169 0.0
H2621 H 0.52115 0.16651 0.53971 0.0
H2622 H 0.534 0.18852 0.54938 0.0
H2623 H 0.51565 0.17769 0.56035 0.0
C2624 C 0.56771 0.2298 0.58774 0.0
C2625 C 0.55337 0.2353 0.59511 0.0
C2626 C 0.56712 0.21146 0.58278 0.0
C2627 C 0.55204 0.19805 0.58465 0.0
C2628 C 0.5376 0.20362 0.59161 0.0
H2629 H 0.51528 0.0816 0.55936 0.0
H2630 H 0.51904 0.11359 0.56779 0.0
C2631 C 0.53833 0.22183 0.59692 0.0
C2632 C 0.55134 0.17833 0.57969 0.0
H2633 H 0.52885 0.14101 0.55009 0.0
C2634 C 0.56258 0.16998 0.59028 0.0
C2635 C 0.53909 0.1675 0.565 0.0
C2636 C 0.52684 0.17545 0.55281 0.0
C2637 C 0.56162 0.15136 0.58687 0.0
C2638 C 0.54943 0.14053 0.57203 0.0
C2639 C 0.53828 0.14898 0.56143 0.0
C2640 C 0.54757 0.12048 0.56745 0.0
C2641 C 0.57322 0.14338 0.5998 0.0
C2642 C 0.56226 0.11302 0.56431 0.0
C2643 C 0.56012 0.09442 0.55952 0.0
C2644 C 0.54322 0.0825 0.55742 0.0
C2645 C 0.52859 0.09003 0.56067 0.0
C2646 C 0.53072 0.10856 0.56551 0.0
H2647 H 0.57764 0.152 0.61332 0.0
H2648 H 0.56608 0.12998 0.60241 0.0
H2649 H 0.58531 0.142 0.59344 0.0
H2650 H 0.57544 0.12161 0.56525 0.0
H2651 H 0.57179 0.08942 0.55754 0.0
H2652 H 0.5397 0.73918 0.39843 0.0
H2653 H 0.56621 0.73849 0.38267 0.0
H2654 H 0.58667 0.79465 0.40089 0.0
H2655 H 0.56023 0.7953 0.41655 0.0
H2656 H 0.58081 0.75914 0.3545 0.0
H2657 H 0.62773 0.77193 0.41957 0.0
H2658 H 0.60388 0.76474 0.41914 0.0
H2659 H 0.61391 0.78762 0.41746 0.0
C2660 C 0.5498 0.75138 0.39885 0.0
C2661 C 0.54789 0.76733 0.40858 0.0
C2662 C 0.56497 0.75098 0.3899 0.0
C2663 C 0.57865 0.76646 0.39078 0.0
C2664 C 0.57651 0.78246 0.40022 0.0
H2665 H 0.68045 0.8034 0.35492 0.0
H2666 H 0.65487 0.79579 0.3717 0.0
C2667 C 0.56133 0.78287 0.40904 0.0
C2668 C 0.5952 0.76599 0.38194 0.0
H2669 H 0.64057 0.77369 0.39157 0.0
C2670 C 0.59389 0.76216 0.36258 0.0
C2671 C 0.61229 0.76991 0.39245 0.0
C2672 C 0.61462 0.77364 0.41332 0.0
C2673 C 0.60918 0.76307 0.3534 0.0
C2674 C 0.62641 0.76728 0.3639 0.0
C2675 C 0.62756 0.77046 0.38336 0.0
C2676 C 0.64342 0.77026 0.35508 0.0
C2677 C 0.6066 0.76047 0.33248 0.0
C2678 C 0.64648 0.75807 0.34073 0.0
C2679 C 0.66121 0.76258 0.33087 0.0
C2680 C 0.67343 0.77918 0.3355 0.0
C2681 C 0.67134 0.79046 0.35106 0.0
C2682 C 0.65656 0.78613 0.36062 0.0
H2683 H 0.59333 0.76217 0.32673 0.0
H2684 H 0.61699 0.77003 0.32693 0.0
H2685 H 0.60743 0.74672 0.32742 0.0
H2686 H 0.6371 0.74536 0.33657 0.0
H2687 H 0.66232 0.75365 0.31887 0.0
H2688 H 0.0607 0.24982 0.39429 0.0
H2689 H 0.06057 0.22376 0.41073 0.0
H2690 H 0.02103 0.23794 0.44282 0.0
H2691 H 0.02132 0.26424 0.42672 0.0
H2692 H 0.06534 0.22264 0.45376 0.0
H2693 H 1.00095 0.18402 0.4142 0.0
H2694 H 0.01526 0.20214 0.40544 0.0
H2695 H 1.00199 0.20681 0.42319 0.0
C2696 C 0.05208 0.24751 0.40496 0.0
C2697 C 0.04104 0.25921 0.40916 0.0
C2698 C 0.05205 0.23259 0.41437 0.0
C2699 C 0.04074 0.22881 0.42797 0.0
C2700 C 0.02987 0.24056 0.43238 0.0
H2701 H 0.01508 0.14921 0.50165 0.0
H2702 H 0.0227 0.17694 0.48761 0.0
C2703 C 0.03011 0.25565 0.4232 0.0
C2704 C 0.03985 0.21232 0.43717 0.0
H2705 H 0.01282 0.17144 0.43932 0.0
C2706 C 0.0539 0.21142 0.45056 0.0
C2707 C 0.02503 0.19756 0.43285 0.0
C2708 C 0.00995 0.19748 0.41805 0.0
C2709 C 0.0532 0.19639 0.4601 0.0
C2710 C 0.03813 0.18189 0.45616 0.0
C2711 C 0.02431 0.18261 0.44245 0.0
C2712 C 0.03613 0.16598 0.46637 0.0
C2713 C 0.06843 0.19606 0.47452 0.0
C2714 C 0.04153 0.15069 0.4594 0.0
C2715 C 0.0373 0.13488 0.46752 0.0
C2716 C 0.02762 0.13405 0.48277 0.0
C2717 C 0.02289 0.14958 0.49019 0.0
C2718 C 0.02713 0.16538 0.48209 0.0
H2719 H 0.07949 0.20813 0.47566 0.0
H2720 H 0.06355 0.19512 0.48822 0.0
H2721 H 0.07366 0.18407 0.47103 0.0
H2722 H 0.04836 0.15077 0.4472 0.0
H2723 H 0.04076 0.12301 0.46128 0.0
H2724 H 0.58238 0.27368 0.20212 0.0
H2725 H 0.61381 0.27542 0.21159 0.0
H2726 H 0.5997 0.23843 0.25063 0.0
H2727 H 0.5678 0.2364 0.24087 0.0
H2728 H 0.63618 0.28638 0.24263 0.0
H2729 H 0.63328 0.21459 0.22449 0.0
H2730 H 0.61493 0.22438 0.21773 0.0
H2731 H 0.61864 0.21904 0.24094 0.0
C2732 C 0.58579 0.26593 0.21286 0.0
C2733 C 0.57215 0.25487 0.22064 0.0
C2734 C 0.60402 0.26695 0.21829 0.0
C2735 C 0.60961 0.25682 0.23166 0.0
C2736 C 0.59608 0.24614 0.23996 0.0
H2737 H 0.71767 0.24737 0.27704 0.0
H2738 H 0.68558 0.24427 0.26946 0.0
C2739 C 0.57768 0.24518 0.23455 0.0
C2740 C 0.62949 0.25777 0.2367 0.0
H2741 H 0.66101 0.23262 0.23895 0.0
C2742 C 0.64149 0.27454 0.24178 0.0
C2743 C 0.63693 0.24251 0.23563 0.0
C2744 C 0.62535 0.22411 0.22924 0.0
C2745 C 0.66019 0.27646 0.24603 0.0
C2746 C 0.66764 0.26122 0.24489 0.0
C2747 C 0.65565 0.24442 0.23992 0.0
C2748 C 0.68768 0.26248 0.24887 0.0
C2749 C 0.67172 0.29493 0.25217 0.0
C2750 C 0.70015 0.27335 0.23964 0.0
C2751 C 0.71872 0.27495 0.24384 0.0
C2752 C 0.7257 0.26567 0.25737 0.0
C2753 C 0.71317 0.25452 0.26632 0.0
C2754 C 0.69458 0.25284 0.26205 0.0
H2755 H 0.66389 0.30422 0.25772 0.0
H2756 H 0.68281 0.29476 0.263 0.0
H2757 H 0.67753 0.30029 0.2401 0.0
H2758 H 0.69555 0.28066 0.22905 0.0
H2759 H 0.72764 0.28356 0.2364 0.0
H2760 H 0.56179 0.84636 0.93596 0.0
H2761 H 0.55984 0.8734 0.9556 0.0
H2762 H 0.5237 0.88508 0.91238 0.0
H2763 H 0.52568 0.85827 0.89265 0.0
H2764 H 0.56759 0.91072 0.94789 0.0
H2765 H 0.49702 0.88667 0.95892 0.0
H2766 H 0.51037 0.87173 0.95094 0.0
H2767 H 0.5013 0.88475 0.93519 0.0
C2768 C 0.5534 0.85464 0.9306 0.0
C2769 C 0.54387 0.84993 0.9126 0.0
C2770 C 0.55232 0.87019 0.94188 0.0
C2771 C 0.54146 0.88133 0.93566 0.0
C2772 C 0.53201 0.8767 0.91771 0.0
H2773 H 0.51039 0.97656 0.98411 0.0
H2774 H 0.51371 0.95012 0.96468 0.0
C2775 C 0.53324 0.86131 0.90635 0.0
C2776 C 0.54005 0.89779 0.94781 0.0
H2777 H 0.51066 0.91677 0.97012 0.0
C2778 C 0.55516 0.91198 0.95284 0.0
C2779 C 0.52383 0.89969 0.9542 0.0
C2780 C 0.5072 0.88488 0.9497 0.0
C2781 C 0.55441 0.92799 0.96364 0.0
C2782 C 0.53822 0.92981 0.97027 0.0
C2783 C 0.52313 0.91556 0.96523 0.0
C2784 C 0.53654 0.94637 0.98217 0.0
C2785 C 0.57088 0.94304 0.96723 0.0
C2786 C 0.54798 0.95323 0.99883 0.0
C2787 C 0.54628 0.96868 0.00979 0.0
C2788 C 0.5331 0.97773 0.00442 0.0
C2789 C 0.52128 0.97055 0.98815 0.0
C2790 C 0.523 0.95515 0.97717 0.0
H2791 H 0.58006 0.94177 0.95674 0.0
H2792 H 0.5674 0.95618 0.96713 0.0
H2793 H 0.57816 0.94273 0.98102 0.0
H2794 H 0.55816 0.94654 0.00352 0.0
H2795 H 0.55539 0.97366 0.02243 0.0
H2796 H 0.96034 0.73357 0.7429 0.0
H2797 H 0.93086 0.73654 0.75011 0.0
H2798 H 0.93429 0.7809 0.71867 0.0
H2799 H 0.96345 0.7775 0.71086 0.0
H2800 H 0.91781 0.7594 0.7685 0.0
H2801 H 0.88587 0.75582 0.69671 0.0
H2802 H 0.90762 0.75141 0.70169 0.0
H2803 H 0.90508 0.77401 0.70211 0.0
C2804 C 0.95486 0.74397 0.73743 0.0
C2805 C 0.96459 0.75524 0.72617 0.0
C2806 C 0.93781 0.74569 0.74161 0.0
C2807 C 0.92964 0.75873 0.73472 0.0
C2808 C 0.93957 0.77026 0.7238 0.0
H2809 H 0.83459 0.79666 0.76396 0.0
H2810 H 0.86382 0.79394 0.75578 0.0
C2811 C 0.95656 0.76844 0.71948 0.0
C2812 C 0.91115 0.76044 0.73937 0.0
H2813 H 0.86978 0.76473 0.72066 0.0
C2814 C 0.90739 0.76044 0.75789 0.0
C2815 C 0.89701 0.76176 0.72581 0.0
C2816 C 0.899 0.76056 0.70546 0.0
C2817 C 0.89054 0.76198 0.7631 0.0
C2818 C 0.87667 0.76362 0.74963 0.0
C2819 C 0.88028 0.7636 0.73115 0.0
C2820 C 0.85841 0.76527 0.75458 0.0
C2821 C 0.88762 0.76199 0.78314 0.0
C2822 C 0.84516 0.75016 0.75666 0.0
C2823 C 0.82821 0.75174 0.76133 0.0
C2824 C 0.82391 0.76852 0.76436 0.0
C2825 C 0.83724 0.78357 0.7622 0.0
C2826 C 0.85409 0.78199 0.75733 0.0
H2827 H 0.89989 0.76165 0.79225 0.0
H2828 H 0.88301 0.77406 0.78799 0.0
H2829 H 0.87698 0.7502 0.78454 0.0
H2830 H 0.84792 0.73705 0.75466 0.0
H2831 H 0.8185 0.73974 0.76278 0.0
H2832 H 0.11114 0.06593 0.85654 0.0
H2833 H 0.10172 0.06369 0.88725 0.0
H2834 H 0.08619 0.0064 0.87431 0.0
H2835 H 0.09684 0.00866 0.84395 0.0
H2836 H 0.07061 0.05297 0.8963 0.0
H2837 H 0.11056 0.00844 0.92472 0.0
H2838 H 0.11472 0.01796 0.90367 0.0
H2839 H 0.09682 0.99864 0.90337 0.0
C2840 C 0.10586 0.05284 0.86032 0.0
C2841 C 0.10468 0.03748 0.84781 0.0
C2842 C 0.10047 0.05155 0.87793 0.0
C2843 C 0.09338 0.03486 0.88344 0.0
C2844 C 0.09211 0.01944 0.87084 0.0
H2845 H 0.04768 1.00502 0.9842 0.0
H2846 H 0.0587 0.0052 0.95389 0.0
C2847 C 0.09802 0.02073 0.85336 0.0
C2848 C 0.08633 0.03396 0.90181 0.0
H2849 H 0.08808 0.01501 0.94204 0.0
C2850 C 0.07454 0.0447 0.90631 0.0
C2851 C 0.09117 0.02305 0.91496 0.0
C2852 C 0.10413 0.0115 0.91153 0.0
C2853 C 0.06735 0.04478 0.92323 0.0
C2854 C 0.07241 0.03412 0.93657 0.0
C2855 C 0.08411 0.02324 0.93202 0.0
C2856 C 0.06574 0.03401 0.95521 0.0
C2857 C 0.05396 0.05598 0.92615 0.0
C2858 C 0.06604 0.05002 0.96641 0.0
C2859 C 0.05886 0.04983 0.98323 0.0
C2860 C 0.05239 0.03369 0.99002 0.0
C2861 C 0.05275 0.01767 0.97936 0.0
C2862 C 0.05913 0.01781 0.96205 0.0
H2863 H 0.04704 0.058 0.91274 0.0
H2864 H 0.04372 0.0498 0.93455 0.0
H2865 H 0.06102 0.06936 0.93335 0.0
H2866 H 0.07173 0.06276 0.96215 0.0
H2867 H 0.05853 0.06238 0.99106 0.0
H2868 H 0.75715 0.37828 0.54617 0.0
H2869 H 0.75557 0.36541 0.57541 0.0
H2870 H 0.808 0.39788 0.59654 0.0
H2871 H 0.80914 0.41138 0.56791 0.0
H2872 H 0.77691 0.34641 0.58914 0.0
H2873 H 0.7825 0.40591 0.64001 0.0
H2874 H 0.77753 0.40613 0.61537 0.0
H2875 H 0.80022 0.4091 0.62594 0.0
C2876 C 0.76816 0.38276 0.55724 0.0
C2877 C 0.78317 0.39583 0.55509 0.0
C2878 C 0.76723 0.37552 0.57387 0.0
C2879 C 0.78144 0.38112 0.58829 0.0
C2880 C 0.79657 0.39397 0.5859 0.0
H2881 H 0.8331 0.34694 0.67672 0.0
H2882 H 0.82036 0.36327 0.65399 0.0
C2883 C 0.7973 0.4015 0.56952 0.0
C2884 C 0.78138 0.37229 0.60511 0.0
H2885 H 0.7914 0.38068 0.65209 0.0
C2886 C 0.77958 0.35379 0.60295 0.0
C2887 C 0.78493 0.38207 0.62304 0.0
C2888 C 0.78622 0.40188 0.62621 0.0
C2889 C 0.78253 0.34491 0.61823 0.0
C2890 C 0.78704 0.35484 0.63606 0.0
C2891 C 0.78784 0.37318 0.63835 0.0
C2892 C 0.79357 0.34689 0.65195 0.0
C2893 C 0.78205 0.32524 0.615 0.0
C2894 C 0.7825 0.33277 0.65869 0.0
C2895 C 0.78978 0.32346 0.67163 0.0
C2896 C 0.80815 0.3282 0.67777 0.0
C2897 C 0.81896 0.34297 0.67183 0.0
C2898 C 0.81168 0.35233 0.65905 0.0
H2899 H 0.78129 0.32029 0.60006 0.0
H2900 H 0.79408 0.32237 0.62253 0.0
H2901 H 0.77017 0.31766 0.62033 0.0
H2902 H 0.76845 0.32855 0.6534 0.0
H2903 H 0.78126 0.31211 0.67621 0.0
H2904 H 0.40575 1.00071 0.36694 0.0
H2905 H 0.4194 0.99865 0.39811 0.0
H2906 H 0.44919 0.0532 0.40226 0.0
H2907 H 0.43559 0.05521 0.37088 0.0
H2908 H 0.45905 0.00646 0.40166 0.0
H2909 H 0.43168 0.04551 0.45498 0.0
H2910 H 0.41915 0.03587 0.43264 0.0
H2911 H 0.43665 0.05565 0.4345 0.0
C2912 C 0.41467 0.01244 0.3749 0.0
C2913 C 0.41965 0.02817 0.36695 0.0
C2914 C 0.42241 0.01124 0.39256 0.0
C2915 C 0.43507 0.02582 0.40232 0.0
C2916 C 0.43914 0.04198 0.39489 0.0
H2917 H 0.51348 0.05194 0.49551 0.0
H2918 H 0.49255 0.05016 0.46766 0.0
C2919 C 0.43146 0.04314 0.37711 0.0
C2920 C 0.44639 0.02317 0.41851 0.0
H2921 H 0.45832 0.03683 0.46455 0.0
C2922 C 0.45886 0.01289 0.41552 0.0
C2923 C 0.44591 0.0317 0.4363 0.0
C2924 C 0.43256 0.04273 0.43994 0.0
C2925 C 0.47171 0.01169 0.42987 0.0
C2926 C 0.47151 0.02056 0.44769 0.0
C2927 C 0.45844 0.03015 0.45079 0.0
C2928 C 0.48541 0.02125 0.46311 0.0
C2929 C 0.48582 1.00174 0.42556 0.0
C2930 C 0.48869 0.00558 0.46927 0.0
C2931 C 0.50121 0.00665 0.48467 0.0
C2932 C 0.50972 0.02335 0.49441 0.0
C2933 C 0.50672 0.03897 0.48812 0.0
C2934 C 0.4948 0.03794 0.47236 0.0
H2935 H 0.48688 0.99999 0.41048 0.0
H2936 H 0.49909 0.00878 0.43305 0.0
H2937 H 0.48225 0.98827 0.42994 0.0
H2938 H 0.48124 0.99259 0.46257 0.0
H2939 H 0.50345 0.99452 0.48961 0.0
H2940 H 0.79396 0.72586 0.07586 0.0
H2941 H 0.79448 0.73736 0.10865 0.0
H2942 H 0.75607 0.68966 0.1153 0.0
H2943 H 0.75661 0.67778 0.08324 0.0
H2944 H 0.77185 0.74652 0.12833 0.0
H2945 H 0.78964 0.68948 0.15879 0.0
H2946 H 0.79003 0.69153 0.13452 0.0
H2947 H 0.76943 0.68225 0.14309 0.0
C2948 C 0.78575 0.71787 0.08444 0.0
C2949 C 0.77541 0.70086 0.07708 0.0
C2950 C 0.78603 0.7244 0.10319 0.0
C2951 C 0.77573 0.7142 0.11484 0.0
C2952 C 0.7648 0.69754 0.10709 0.0
H2953 H 0.74833 0.73821 0.22666 0.0
H2954 H 0.74808 0.72679 0.19401 0.0
C2955 C 0.76494 0.69083 0.08862 0.0
C2956 C 0.7759 0.72111 0.13485 0.0
H2957 H 0.77862 0.70967 0.17897 0.0
C2958 C 0.77351 0.73846 0.13934 0.0
C2959 C 0.77808 0.71073 0.14949 0.0
C2960 C 0.78213 0.69256 0.14624 0.0
C2961 C 0.77294 0.7455 0.15777 0.0
C2962 C 0.77464 0.73495 0.1722 0.0
C2963 C 0.77707 0.71767 0.16785 0.0
C2964 C 0.77462 0.74195 0.19199 0.0
C2965 C 0.77038 0.76417 0.16177 0.0
C2966 C 0.78964 0.75417 0.20177 0.0
C2967 C 0.78981 0.76071 0.2204 0.0
C2968 C 0.77491 0.75528 0.22973 0.0
C2969 C 0.75989 0.74295 0.21989 0.0
C2970 C 0.75978 0.73631 0.20124 0.0
H2971 H 0.76693 0.76982 0.1489 0.0
H2972 H 0.75968 0.76434 0.17074 0.0
H2973 H 0.78288 0.77291 0.1694 0.0
H2974 H 0.80129 0.7586 0.19498 0.0
H2975 H 0.80166 0.77011 0.22748 0.0
H2976 H 0.11719 0.01001 0.72956 0.0
H2977 H 0.10583 0.01088 0.6974 0.0
H2978 H 0.07605 0.04896 0.71531 0.0
H2979 H 0.0876 0.04836 0.74774 0.0
H2980 H 0.07162 1.00333 0.67872 0.0
H2981 H 0.10566 0.07406 0.678 0.0
H2982 H 0.11136 0.06123 0.69598 0.0
H2983 H 0.09203 0.07044 0.69631 0.0
C2984 C 0.10806 0.01846 0.72675 0.0
C2985 C 0.10333 0.02915 0.74133 0.0
C2986 C 0.1016 0.01895 0.70829 0.0
C2987 C 0.09035 0.03023 0.70385 0.0
C2988 C 0.08501 0.04041 0.71836 0.0
H2989 H 0.03743 0.04982 0.59952 0.0
H2990 H 0.04814 0.04937 0.63211 0.0
C2991 C 0.09143 0.03988 0.73692 0.0
C2992 C 0.08433 0.03129 0.68404 0.0
H2993 H 0.08553 0.05991 0.65131 0.0
C2994 C 0.07465 0.01571 0.67275 0.0
C2995 C 0.08857 0.04737 0.67612 0.0
C2996 C 0.10012 0.06421 0.68713 0.0
C2997 C 0.06869 0.01587 0.65394 0.0
C2998 C 0.07256 0.03203 0.64615 0.0
C2999 C 0.08238 0.04759 0.65737 0.0
C3000 C 0.06664 0.03295 0.62631 0.0
C3001 C 0.05811 0.99878 0.64257 0.0
C3002 C 0.07369 0.02414 0.61219 0.0
C3003 C 0.06785 0.02466 0.59354 0.0
C3004 C 0.05474 0.03397 0.58852 0.0
C3005 C 0.04773 0.04281 0.60275 0.0
C3006 C 0.05377 0.04248 0.62144 0.0
H3007 H 0.05309 0.98845 0.65142 0.0
H3008 H 0.0466 1.0012 0.63369 0.0
H3009 H 0.06676 0.99345 0.63336 0.0
H3010 H 0.08374 0.01682 0.61561 0.0
H3011 H 0.07356 0.0176 0.58305 0.0
H3012 H 0.81283 0.38842 0.45554 0.0
H3013 H 0.81298 0.37462 0.42411 0.0
H3014 H 0.75658 0.37136 0.41209 0.0
H3015 H 0.7565 0.38581 0.4437 0.0
H3016 H 0.78908 0.33948 0.41669 0.0
H3017 H 0.77931 0.38409 0.36335 0.0
H3018 H 0.78882 0.39266 0.38704 0.0
H3019 H 0.76536 0.38309 0.38162 0.0
C3020 C 0.80057 0.38515 0.446 0.0
C3021 C 0.78455 0.38767 0.45183 0.0
C3022 C 0.80072 0.37749 0.42812 0.0
C3023 C 0.78481 0.37207 0.41603 0.0
C3024 C 0.76899 0.37577 0.42134 0.0
H3025 H 0.75647 0.30146 0.31465 0.0
H3026 H 0.75718 0.32197 0.34249 0.0
C3027 C 0.7689 0.38381 0.43928 0.0
C3028 C 0.78429 0.35948 0.39967 0.0
H3029 H 0.77966 0.35437 0.35265 0.0
C3030 C 0.78704 0.34267 0.40264 0.0
C3031 C 0.78153 0.3639 0.38161 0.0
C3032 C 0.77867 0.38194 0.37808 0.0
C3033 C 0.78701 0.32989 0.3878 0.0
C3034 C 0.78449 0.33436 0.36967 0.0
C3035 C 0.78167 0.35118 0.3667 0.0
C3036 C 0.78408 0.32154 0.35351 0.0
C3037 C 0.78929 0.31169 0.39166 0.0
C3038 C 0.79896 0.31452 0.35084 0.0
C3039 C 0.7984 0.30246 0.33524 0.0
C3040 C 0.78321 0.29797 0.32204 0.0
C3041 C 0.76838 0.30502 0.3247 0.0
C3042 C 0.76877 0.31667 0.34048 0.0
H3043 H 0.78636 0.30905 0.40579 0.0
H3044 H 0.78048 0.30101 0.38141 0.0
H3045 H 0.80331 0.31096 0.3907 0.0
H3046 H 0.81101 0.31852 0.36066 0.0
H3047 H 0.80997 0.29715 0.33313 0.0
H3048 H 0.39263 0.9999 0.24932 0.0
H3049 H 0.40578 0.99931 0.22044 0.0
H3050 H 0.44376 0.04869 0.24185 0.0
H3051 H 0.43113 0.0489 0.27122 0.0
H3052 H 0.40995 0.02241 0.19482 0.0
H3053 H 0.47546 0.01567 0.22836 0.0
H3054 H 0.45594 0.0131 0.24015 0.0
H3055 H 0.46859 0.03499 0.23783 0.0
C3056 C 0.40371 0.01069 0.24779 0.0
C3057 C 0.41099 0.02443 0.26237 0.0
C3058 C 0.41116 0.01035 0.23133 0.0
C3059 C 0.4258 0.02387 0.22919 0.0
C3060 C 0.43267 0.03798 0.24348 0.0
H3061 H 0.49331 0.02368 0.14191 0.0
H3062 H 0.47635 0.03597 0.16447 0.0
C3063 C 0.42546 0.03812 0.26014 0.0
C3064 C 0.43425 0.02267 0.21221 0.0
H3065 H 0.47277 0.01744 0.19642 0.0
C3066 C 0.42375 0.02152 0.19511 0.0
C3067 C 0.45216 0.0213 0.21279 0.0
C3068 C 0.46367 0.02115 0.23073 0.0
C3069 C 0.43069 0.01873 0.17843 0.0
C3070 C 0.44851 0.01723 0.17907 0.0
C3071 C 0.45916 0.01895 0.19614 0.0
C3072 C 0.45598 0.01156 0.1625 0.0
C3073 C 0.41884 0.01697 0.16032 0.0
C3074 C 0.44984 0.99394 0.15389 0.0
C3075 C 0.45965 0.98686 0.14142 0.0
C3076 C 0.47555 0.99742 0.13741 0.0
C3077 C 0.48106 0.01539 0.14502 0.0
C3078 C 0.47137 0.02241 0.15769 0.0
H3079 H 0.40741 0.02322 0.16199 0.0
H3080 H 0.42646 0.02315 0.14968 0.0
H3081 H 0.41343 1.00262 0.15519 0.0
H3082 H 0.43814 0.98533 0.15775 0.0
H3083 H 0.4552 0.97301 0.1354 0.0
H3084 H 0.74458 0.71082 0.96805 0.0
H3085 H 0.74617 0.72022 0.93733 0.0
H3086 H 0.79788 0.70823 0.93675 0.0
H3087 H 0.79596 0.69803 0.96731 0.0
H3088 H 0.76816 0.74681 0.92694 0.0
H3089 H 0.77581 0.68534 0.88598 0.0
H3090 H 0.77004 0.68556 0.90926 0.0
H3091 H 0.79284 0.69335 0.90537 0.0
C3092 C 0.75629 0.7101 0.96139 0.0
C3093 C 0.77019 0.70375 0.97025 0.0
C3094 C 0.75717 0.71546 0.94373 0.0
C3095 C 0.77204 0.7148 0.93442 0.0
C3096 C 0.78601 0.70847 0.94327 0.0
H3097 H 0.80028 0.74792 0.82796 0.0
H3098 H 0.79973 0.73675 0.8582 0.0
C3099 C 0.785 0.70281 0.96088 0.0
C3100 C 0.77318 0.72177 0.91608 0.0
H3101 H 0.77943 0.71133 0.87097 0.0
C3102 C 0.77057 0.73899 0.9147 0.0
C3103 C 0.77645 0.71171 0.90001 0.0
C3104 C 0.77878 0.69291 0.90013 0.0
C3105 C 0.77133 0.74651 0.898 0.0
C3106 C 0.77438 0.73639 0.88184 0.0
C3107 C 0.7771 0.71918 0.88323 0.0
C3108 C 0.77477 0.74335 0.86342 0.0
C3109 C 0.76933 0.76546 0.89817 0.0
C3110 C 0.76092 0.75067 0.85599 0.0
C3111 C 0.76163 0.75767 0.8391 0.0
C3112 C 0.77573 0.75668 0.82874 0.0
C3113 C 0.78925 0.74879 0.8357 0.0
C3114 C 0.78889 0.74237 0.85296 0.0
H3115 H 0.77319 0.77305 0.91228 0.0
H3116 H 0.77758 0.77264 0.88856 0.0
H3117 H 0.75514 0.76533 0.89392 0.0
H3118 H 0.74945 0.75093 0.86318 0.0
H3119 H 0.75086 0.76341 0.83385 0.0
H3120 H 0.80466 0.08339 0.07327 0.0
H3121 H 0.83462 0.0782 0.07705 0.0
H3122 H 0.85048 0.11494 0.03807 0.0
H3123 H 0.82057 0.12056 0.03449 0.0
H3124 H 0.84748 0.06427 0.04645 0.0
H3125 H 0.89321 0.1278 0.0795 0.0
H3126 H 0.86953 0.12271 0.08102 0.0
H3127 H 0.87774 0.13011 0.06038 0.0
C3128 C 0.81454 0.09039 0.06553 0.0
C3129 C 0.81032 0.10212 0.05334 0.0
C3130 C 0.83166 0.08763 0.06795 0.0
C3131 C 0.8447 0.09649 0.05815 0.0
C3132 C 0.84064 0.10842 0.04615 0.0
H3133 H 0.93145 0.08274 0.00879 0.0
H3134 H 0.91064 0.09497 0.02612 0.0
C3135 C 0.82352 0.11135 0.04387 0.0
C3136 C 0.8615 0.09093 0.05797 0.0
H3137 H 0.90654 0.10644 0.06337 0.0
C3138 C 0.86045 0.0733 0.05059 0.0
C3139 C 0.8782 0.10295 0.06326 0.0
C3140 C 0.8798 0.12193 0.07164 0.0
C3141 C 0.87574 0.06756 0.04716 0.0
C3142 C 0.89251 0.07973 0.05184 0.0
C3143 C 0.89363 0.09716 0.0601 0.0
C3144 C 0.90842 0.07534 0.04527 0.0
C3145 C 0.87365 0.04897 0.03727 0.0
C3146 C 0.91459 0.06084 0.051 0.0
C3147 C 0.92619 0.05363 0.04091 0.0
C3148 C 0.93182 0.06104 0.02516 0.0
C3149 C 0.92698 0.07663 0.02066 0.0
C3150 C 0.91532 0.08374 0.03067 0.0
H3151 H 0.85953 0.0425 0.03187 0.0
H3152 H 0.88159 0.04924 0.02547 0.0
H3153 H 0.87855 0.04056 0.04706 0.0
H3154 H 0.9094 0.05433 0.06236 0.0
H3155 H 0.92973 0.04158 0.04465 0.0
H3156 H 0.34422 0.43887 0.07039 0.0
H3157 H 0.37521 0.45556 0.07143 0.0
H3158 H 0.38211 0.41932 0.02546 0.0
H3159 H 0.35128 0.40242 0.02443 0.0
H3160 H 0.40975 0.43536 0.07009 0.0
H3161 H 0.39453 0.477 0.01564 0.0
H3162 H 0.37819 0.46836 0.03034 0.0
H3163 H 0.38393 0.45357 0.01274 0.0
C3164 C 0.35231 0.4345 0.06045 0.0
C3165 C 0.34527 0.41935 0.04728 0.0
C3166 C 0.37002 0.44397 0.06115 0.0
C3167 C 0.38089 0.4386 0.04856 0.0
C3168 C 0.37391 0.42358 0.03535 0.0
H3169 H 0.48098 0.49171 0.01636 0.0
H3170 H 0.45128 0.47391 0.01839 0.0
C3171 C 0.3563 0.41398 0.03477 0.0
C3172 C 0.39943 0.44893 0.04884 0.0
H3173 H 0.42443 0.48133 0.02822 0.0
C3174 C 0.41308 0.44545 0.06099 0.0
C3175 C 0.40362 0.46183 0.03677 0.0
C3176 C 0.38937 0.46556 0.0231 0.0
C3177 C 0.43101 0.45435 0.06113 0.0
C3178 C 0.43527 0.46769 0.0493 0.0
C3179 C 0.42138 0.4712 0.03732 0.0
C3180 C 0.45393 0.47775 0.04845 0.0
C3181 C 0.44511 0.44874 0.07341 0.0
C3182 C 0.46562 0.48592 0.06459 0.0
C3183 C 0.48305 0.49527 0.06339 0.0
C3184 C 0.48877 0.49733 0.04602 0.0
C3185 C 0.47692 0.48998 0.02992 0.0
C3186 C 0.45988 0.47993 0.03111 0.0
H3187 H 0.44041 0.43487 0.07649 0.0
H3188 H 0.45755 0.44955 0.06694 0.0
H3189 H 0.44819 0.45758 0.08683 0.0
H3190 H 0.46125 0.4853 0.07813 0.0
H3191 H 0.49187 0.5013 0.07596 0.0
H3192 H 0.36679 0.54784 0.74054 0.0
H3193 H 0.35478 0.57444 0.74017 0.0
H3194 H 0.39098 0.59957 0.78913 0.0
H3195 H 0.4032 0.57297 0.78958 0.0
H3196 H 0.33865 0.58959 0.76867 0.0
H3197 H 0.39805 0.63776 0.75325 0.0
H3198 H 0.39567 0.61391 0.74929 0.0
H3199 H 0.40194 0.62566 0.77234 0.0
C3200 C 0.37224 0.559 0.75126 0.0
C3201 C 0.38595 0.55823 0.76514 0.0
C3202 C 0.36538 0.57423 0.75097 0.0
C3203 C 0.37217 0.5891 0.76443 0.0
C3204 C 0.38579 0.58838 0.77838 0.0
H3205 H 0.34553 0.68711 0.79989 0.0
H3206 H 0.36096 0.66393 0.79072 0.0
C3207 C 0.39264 0.5731 0.77872 0.0
C3208 C 0.36426 0.60491 0.76441 0.0
H3209 H 0.37374 0.64964 0.76148 0.0
C3210 C 0.34625 0.6027 0.76691 0.0
C3211 C 0.37424 0.62199 0.76218 0.0
C3212 C 0.39352 0.62504 0.75896 0.0
C3213 C 0.33809 0.61719 0.76794 0.0
C3214 C 0.34806 0.63435 0.76575 0.0
C3215 C 0.36603 0.63649 0.76293 0.0
C3216 C 0.34052 0.65042 0.76827 0.0
C3217 C 0.31912 0.61405 0.77228 0.0
C3218 C 0.32449 0.65132 0.75787 0.0
C3219 C 0.31561 0.66462 0.76316 0.0
C3220 C 0.32281 0.67728 0.77874 0.0
C3221 C 0.33974 0.67747 0.78782 0.0
C3222 C 0.34853 0.66418 0.78262 0.0
H3223 H 0.31499 0.60128 0.77803 0.0
H3224 H 0.31737 0.62503 0.78242 0.0
H3225 H 0.31002 0.61343 0.75936 0.0
H3226 H 0.31829 0.64113 0.7464 0.0
H3227 H 0.30253 0.66415 0.75601 0.0
H3228 H 0.21346 0.58419 0.51857 0.0
H3229 H 0.18186 0.57237 0.5207 0.0
H3230 H 0.18173 0.61857 0.55905 0.0
H3231 H 0.213 0.63075 0.55647 0.0
H3232 H 0.16812 0.56474 0.55348 0.0
H3233 H 0.13864 0.61552 0.52125 0.0
H3234 H 0.16116 0.61363 0.51913 0.0
H3235 H 0.15598 0.6241 0.5403 0.0
C3236 C 0.20654 0.59193 0.52712 0.0
C3237 C 0.21544 0.60841 0.53714 0.0
C3238 C 0.18863 0.58519 0.52839 0.0
C3239 C 0.17963 0.5948 0.53983 0.0
C3240 C 0.18847 0.61127 0.5498 0.0
H3241 H 0.07145 0.56905 0.56437 0.0
H3242 H 0.10285 0.58323 0.564 0.0
C3243 C 0.20626 0.61817 0.54829 0.0
C3244 C 0.16114 0.58714 0.5419 0.0
H3245 H 0.11908 0.59318 0.53363 0.0
C3246 C 0.15734 0.57088 0.54912 0.0
C3247 C 0.14738 0.59554 0.5365 0.0
C3248 C 0.15092 0.6131 0.52874 0.0
C3249 C 0.13985 0.5625 0.55077 0.0
C3250 C 0.12605 0.57054 0.54466 0.0
C3251 C 0.12987 0.58708 0.53802 0.0
C3252 C 0.10743 0.56193 0.54491 0.0
C3253 C 0.13629 0.54527 0.55915 0.0
C3254 C 0.0999 0.54544 0.53411 0.0
C3255 C 0.08214 0.53726 0.53451 0.0
C3256 C 0.07193 0.54585 0.54532 0.0
C3257 C 0.07934 0.56246 0.55582 0.0
C3258 C 0.09711 0.57048 0.55566 0.0
H3259 H 0.14841 0.54346 0.56752 0.0
H3260 H 0.1255 0.54476 0.5681 0.0
H3261 H 0.13198 0.53391 0.54787 0.0
H3262 H 0.10776 0.53897 0.52544 0.0
H3263 H 0.07634 0.52442 0.52634 0.0
H3264 H 0.70067 0.9936 0.73593 0.0
H3265 H 0.70371 0.96274 0.73319 0.0
H3266 H 0.71125 0.96587 0.79292 0.0
H3267 H 0.70717 0.99651 0.79559 0.0
H3268 H 0.73393 0.95434 0.74602 0.0
H3269 H 0.67799 0.91755 0.7784 0.0
H3270 H 0.67822 0.93913 0.77104 0.0
H3271 H 0.69009 0.93738 0.79303 0.0
C3272 C 0.70286 0.98753 0.7484 0.0
C3273 C 0.70409 0.99714 0.76596 0.0
C3274 C 0.70439 0.96999 0.74683 0.0
C3275 C 0.70744 0.9621 0.76283 0.0
C3276 C 0.70837 0.97167 0.78044 0.0
H3277 H 0.76393 0.90046 0.80864 0.0
H3278 H 0.75364 0.92227 0.79092 0.0
C3279 C 0.70636 0.98912 0.78199 0.0
C3280 C 0.71205 0.94479 0.76119 0.0
H3281 H 0.70425 0.90526 0.7785 0.0
C3282 C 0.72714 0.94334 0.75261 0.0
C3283 C 0.70301 0.93054 0.76966 0.0
C3284 C 0.68632 0.93117 0.77838 0.0
C3285 C 0.73445 0.92853 0.75383 0.0
C3286 C 0.72631 0.91507 0.76375 0.0
C3287 C 0.71032 0.91574 0.77082 0.0
C3288 C 0.73582 0.90231 0.77051 0.0
C3289 C 0.75141 0.92788 0.74571 0.0
C3290 C 0.72936 0.8841 0.76446 0.0
C3291 C 0.73523 0.87174 0.7745 0.0
C3292 C 0.7472 0.87765 0.79081 0.0
C3293 C 0.75442 0.89584 0.79624 0.0
C3294 C 0.74881 0.90818 0.78602 0.0
H3295 H 0.75377 0.9371 0.73508 0.0
H3296 H 0.76284 0.93185 0.75693 0.0
H3297 H 0.75098 0.91412 0.73935 0.0
H3298 H 0.71913 0.87953 0.75264 0.0
H3299 H 0.72983 0.85763 0.77011 0.0
H3300 H 0.73725 0.8996 0.52923 0.0
H3301 H 0.70996 0.91087 0.5274 0.0
H3302 H 0.73281 0.94996 0.57488 0.0
H3303 H 0.76001 0.93894 0.5768 0.0
H3304 H 0.68667 0.91574 0.55767 0.0
H3305 H 0.71899 0.97807 0.53139 0.0
H3306 H 0.72785 0.95836 0.52981 0.0
H3307 H 0.73093 0.9725 0.5515 0.0
C3308 C 0.73647 0.91063 0.53923 0.0
C3309 C 0.75087 0.91849 0.55304 0.0
C3310 C 0.72085 0.91695 0.53825 0.0
C3311 C 0.71947 0.93127 0.55097 0.0
C3312 C 0.7337 0.93897 0.56487 0.0
H3313 H 0.64634 1.0009 0.55334 0.0
H3314 H 0.66837 0.98461 0.56432 0.0
C3315 C 0.74925 0.93266 0.5659 0.0
C3316 C 0.70352 0.9388 0.54938 0.0
H3317 H 0.68995 0.97601 0.53913 0.0
C3318 C 0.68731 0.9289 0.55361 0.0
C3319 C 0.70449 0.95597 0.54413 0.0
C3320 C 0.72144 0.96685 0.53879 0.0
C3321 C 0.67202 0.93591 0.55293 0.0
C3322 C 0.67302 0.95312 0.54767 0.0
C3323 C 0.68927 0.96294 0.54347 0.0
C3324 C 0.65721 0.96082 0.5448 0.0
C3325 C 0.65502 0.92495 0.55801 0.0
C3326 C 0.64322 0.95255 0.53079 0.0
C3327 C 0.63069 0.96181 0.52458 0.0
C3328 C 0.63197 0.97947 0.53229 0.0
C3329 C 0.64499 0.9872 0.5474 0.0
C3330 C 0.65759 0.97795 0.55357 0.0
H3331 H 0.65774 0.91494 0.56707 0.0
H3332 H 0.6474 0.93354 0.5652 0.0
H3333 H 0.64655 0.91765 0.54519 0.0
H3334 H 0.64282 0.93952 0.52358 0.0
H3335 H 0.62083 0.95571 0.51279 0.0
H3336 H 0.3649 0.46917 0.77028 0.0
H3337 H 0.34744 0.4386 0.76982 0.0
H3338 H 0.39541 0.41917 0.76883 0.0
H3339 H 0.41294 0.44958 0.77007 0.0
H3340 H 0.3419 0.4091 0.7455 0.0
H3341 H 0.37633 0.39684 0.81148 0.0
H3342 H 0.37961 0.41872 0.8042 0.0
H3343 H 0.39137 0.40288 0.79494 0.0
C3344 C 0.37172 0.45838 0.77007 0.0
C3345 C 0.39035 0.46185 0.77051 0.0
C3346 C 0.36173 0.44091 0.76978 0.0
C3347 C 0.37015 0.42658 0.76977 0.0
C3348 C 0.38865 0.43 0.7695 0.0
H3349 H 0.33061 0.31142 0.75825 0.0
H3350 H 0.34754 0.34174 0.75688 0.0
C3351 C 0.39866 0.44743 0.7701 0.0
C3352 C 0.35961 0.40807 0.76988 0.0
H3353 H 0.35681 0.37161 0.79306 0.0
C3354 C 0.34511 0.40098 0.75598 0.0
C3355 C 0.36377 0.39739 0.78356 0.0
C3356 C 0.3785 0.4044 0.79949 0.0
C3357 C 0.33485 0.3835 0.75528 0.0
C3358 C 0.33918 0.37287 0.76881 0.0
C3359 C 0.35363 0.37985 0.78266 0.0
C3360 C 0.32858 0.35455 0.76903 0.0
C3361 C 0.3195 0.37633 0.74006 0.0
C3362 C 0.31238 0.35179 0.77646 0.0
C3363 C 0.30277 0.33449 0.77754 0.0
C3364 C 0.30904 0.3196 0.77094 0.0
C3365 C 0.32526 0.32251 0.76335 0.0
C3366 C 0.33498 0.33982 0.76252 0.0
H3367 H 0.31893 0.3856 0.72951 0.0
H3368 H 0.32062 0.36327 0.73309 0.0
H3369 H 0.30679 0.3741 0.74615 0.0
H3370 H 0.30738 0.36305 0.78177 0.0
H3371 H 0.2907 0.33286 0.78403 0.0
H3372 H 0.22751 0.58909 0.26411 0.0
H3373 H 0.23548 0.62085 0.26088 0.0
H3374 H 0.19175 0.62944 0.28985 0.0
H3375 H 0.18358 0.5977 0.29312 0.0
H3376 H 0.20738 0.64275 0.2453 0.0
H3377 H 0.24354 0.66181 0.3172 0.0
H3378 H 0.24057 0.63973 0.30489 0.0
H3379 H 0.22198 0.64649 0.31361 0.0
C3380 C 0.21985 0.59783 0.27011 0.0
C3381 C 0.20516 0.5912 0.27912 0.0
C3382 C 0.22419 0.61576 0.26796 0.0
C3383 C 0.21399 0.62706 0.27499 0.0
C3384 C 0.19953 0.62061 0.28426 0.0
H3385 H 0.23551 0.74131 0.28053 0.0
H3386 H 0.21991 0.71039 0.28039 0.0
C3387 C 0.19508 0.60267 0.28629 0.0
C3388 C 0.21933 0.64593 0.27377 0.0
H3389 H 0.24369 0.6846 0.29841 0.0
C3390 C 0.21517 0.65203 0.25688 0.0
C3391 C 0.22942 0.65761 0.28904 0.0
C3392 C 0.23426 0.65119 0.30725 0.0
C3393 C 0.22138 0.66992 0.25479 0.0
C3394 C 0.23185 0.68144 0.26996 0.0
C3395 C 0.23554 0.67542 0.28695 0.0
C3396 C 0.24024 0.69966 0.26831 0.0
C3397 C 0.21713 0.67643 0.2365 0.0
C3398 C 0.25686 0.70338 0.26192 0.0
C3399 C 0.2661 0.72093 0.26259 0.0
C3400 C 0.25862 0.73478 0.26953 0.0
C3401 C 0.24179 0.73087 0.27566 0.0
C3402 C 0.2327 0.71333 0.27522 0.0
H3403 H 0.20738 0.66611 0.22665 0.0
H3404 H 0.21168 0.68848 0.23876 0.0
H3405 H 0.22958 0.68031 0.23014 0.0
H3406 H 0.26278 0.6927 0.2568 0.0
H3407 H 0.27897 0.72363 0.25758 0.0
H3408 H 0.4929 0.70434 0.4668 0.0
H3409 H 0.49472 0.6756 0.47733 0.0
H3410 H 0.54781 0.69905 0.5048 0.0
H3411 H 0.54592 0.72775 0.49466 0.0
H3412 H 0.51601 0.65275 0.47124 0.0
H3413 H 0.5273 0.67579 0.54646 0.0
H3414 H 0.5205 0.68928 0.52968 0.0
H3415 H 0.54354 0.68836 0.53422 0.0
C3416 C 0.50491 0.70349 0.47529 0.0
C3417 C 0.51915 0.71872 0.48001 0.0
C3418 C 0.50598 0.68689 0.48128 0.0
C3419 C 0.52128 0.68486 0.49234 0.0
C3420 C 0.53557 0.70003 0.49684 0.0
H3421 H 0.55538 0.59889 0.54644 0.0
H3422 H 0.55224 0.62663 0.535 0.0
C3423 C 0.53451 0.7166 0.49089 0.0
C3424 C 0.52249 0.66697 0.49879 0.0
H3425 H 0.53189 0.64708 0.53735 0.0
C3426 C 0.5194 0.65156 0.48573 0.0
C3427 C 0.52694 0.66499 0.5177 0.0
C3428 C 0.52959 0.68043 0.53285 0.0
C3429 C 0.5212 0.63474 0.49081 0.0
C3430 C 0.52572 0.63274 0.50977 0.0
C3431 C 0.52857 0.64818 0.52282 0.0
C3432 C 0.52784 0.61511 0.51644 0.0
C3433 C 0.51888 0.6195 0.47548 0.0
C3434 C 0.51528 0.5988 0.51036 0.0
C3435 C 0.51762 0.58259 0.51637 0.0
C3436 C 0.53226 0.582 0.52934 0.0
C3437 C 0.54428 0.59841 0.53615 0.0
C3438 C 0.5423 0.61453 0.52966 0.0
H3439 H 0.52148 0.6244 0.46205 0.0
H3440 H 0.52794 0.61064 0.47865 0.0
H3441 H 0.5049 0.61158 0.47364 0.0
H3442 H 0.50344 0.5985 0.50102 0.0
H3443 H 0.5077 0.57046 0.51103 0.0
H3444 H 0.6008 0.30215 0.68487 0.0
H3445 H 0.62828 0.30104 0.70408 0.0
H3446 H 0.65058 0.28619 0.65481 0.0
H3447 H 0.62372 0.28864 0.63564 0.0
H3448 H 0.6434 0.27659 0.71123 0.0
H3449 H 0.69269 0.32163 0.67808 0.0
H3450 H 0.66909 0.31945 0.6724 0.0
H3451 H 0.68 0.30356 0.6615 0.0
C3452 C 0.61177 0.29911 0.67813 0.0
C3453 C 0.61015 0.2959 0.65865 0.0
C3454 C 0.62751 0.29832 0.68916 0.0
C3455 C 0.64199 0.29392 0.6811 0.0
C3456 C 0.64018 0.2904 0.6616 0.0
H3457 H 0.73753 0.26194 0.72727 0.0
H3458 H 0.71049 0.26497 0.70844 0.0
C3459 C 0.62466 0.29171 0.65055 0.0
C3460 C 0.65854 0.29229 0.69307 0.0
H3461 H 0.70432 0.30325 0.69809 0.0
C3462 C 0.65667 0.28263 0.70836 0.0
C3463 C 0.67611 0.30012 0.68966 0.0
C3464 C 0.67959 0.31192 0.67464 0.0
C3465 C 0.6716 0.2804 0.71991 0.0
C3466 C 0.68901 0.28777 0.71608 0.0
C3467 C 0.69098 0.29743 0.70093 0.0
C3468 C 0.70536 0.28574 0.72775 0.0
C3469 C 0.66875 0.27001 0.73609 0.0
C3470 C 0.71161 0.29639 0.74492 0.0
C3471 C 0.72734 0.29494 0.7555 0.0
C3472 C 0.73722 0.28283 0.74918 0.0
C3473 C 0.73074 0.27193 0.73218 0.0
C3474 C 0.71509 0.27347 0.72152 0.0
H3475 H 0.65444 0.26397 0.7365 0.0
H3476 H 0.67616 0.25926 0.73539 0.0
H3477 H 0.67412 0.27899 0.74922 0.0
H3478 H 0.70443 0.306 0.75004 0.0
H3479 H 0.73197 0.30356 0.76849 0.0
H3480 H 0.97815 0.32135 0.98422 0.0
H3481 H 0.98118 0.35307 0.99427 0.0
H3482 H 0.03774 0.36263 0.99173 0.0
H3483 H 0.03439 0.33109 0.98021 0.0
H3484 H 0.99413 0.37513 0.02126 0.0
H3485 H 0.03249 0.40325 0.96746 0.0
H3486 H 0.02341 0.37966 0.96624 0.0
H3487 H 0.04442 0.39012 0.98024 0.0
C3488 C 0.99127 0.3302 0.9857 0.0
C3489 C 1.00599 0.32338 0.98128 0.0
C3490 C 0.99304 0.34856 0.99152 0.0
C3491 C 0.00968 0.36097 0.99354 0.0
C3492 C 0.02452 0.35399 0.98967 0.0
H3493 H 0.04736 0.47467 0.04024 0.0
H3494 H 0.04396 0.44329 0.02831 0.0
C3495 C 0.02266 0.33568 0.9833 0.0
C3496 C 0.01133 0.38081 1.00023 0.0
H3497 H 0.03087 0.42374 0.99347 0.0
C3498 C 1.00206 0.38562 0.0149 0.0
C3499 C 0.0216 0.39509 0.99229 0.0
C3500 C 0.03087 0.39178 0.97557 0.0
C3501 C 1.00296 0.40366 0.02186 0.0
C3502 C 0.0135 0.41782 0.01418 0.0
C3503 C 0.02281 0.41313 0.99958 0.0
C3504 C 0.01533 0.43745 0.02133 0.0
C3505 C 0.99286 0.40739 0.0378 0.0
C3506 C 1.00049 0.44528 0.02131 0.0
C3507 C 1.00242 0.46351 0.02808 0.0
C3508 C 0.01925 0.4746 0.03533 0.0
C3509 C 0.03408 0.46676 0.03508 0.0
C3510 C 0.03217 0.44864 0.02814 0.0
H3511 H 0.98904 0.39552 0.04511 0.0
H3512 H 1.00089 0.41863 0.04797 0.0
H3513 H 0.98046 0.41112 0.03241 0.0
H3514 H 0.98732 0.43733 0.01581 0.0
H3515 H 0.9907 0.46891 0.02751 0.0
H3516 H 1.00451 0.76034 0.17497 0.0
H3517 H 0.97821 0.76007 0.19067 0.0
H3518 H 0.97046 0.80682 0.16683 0.0
H3519 H 0.99669 0.80691 0.15059 0.0
H3520 H 0.9729 0.78616 0.21664 0.0
H3521 H 0.92069 0.77417 0.15555 0.0
H3522 H 0.94271 0.7706 0.15366 0.0
H3523 H 0.93925 0.79283 0.15617 0.0
C3524 C 0.99721 0.77056 0.17297 0.0
C3525 C 1.00276 0.78369 0.16155 0.0
C3526 C 0.98213 0.77038 0.18198 0.0
C3527 C 0.97221 0.78333 0.17988 0.0
C3528 C 0.97766 0.79647 0.16842 0.0
H3529 H 0.87077 0.78293 0.22502 0.0
H3530 H 0.89868 0.79432 0.21237 0.0
C3531 C 0.99272 0.79657 0.15923 0.0
C3532 C 0.95663 0.78317 0.19031 0.0
H3533 H 0.91121 0.77641 0.18501 0.0
C3534 C 0.95942 0.78417 0.20971 0.0
C3535 C 0.93903 0.78082 0.18134 0.0
C3536 C 0.93511 0.77941 0.16053 0.0
C3537 C 0.94516 0.78235 0.22033 0.0
C3538 C 0.92747 0.77905 0.21131 0.0
C3539 C 0.92472 0.77889 0.19197 0.0
C3540 C 0.91162 0.77401 0.22134 0.0
C3541 C 0.94926 0.78391 0.24112 0.0
C3542 C 0.90967 0.75906 0.23096 0.0
C3543 C 0.89383 0.75265 0.23822 0.0
C3544 C 0.87955 0.76103 0.23606 0.0
C3545 C 0.88172 0.77646 0.22721 0.0
C3546 C 0.89759 0.78285 0.21983 0.0
H3547 H 0.96262 0.79274 0.2461 0.0
H3548 H 0.93915 0.7892 0.24821 0.0
H3549 H 0.94939 0.77053 0.24517 0.0
H3550 H 0.92002 0.7517 0.23198 0.0
H3551 H 0.89237 0.74054 0.24468 0.0
H3552 H 0.4976 0.29638 0.1592 0.0
H3553 H 0.49857 0.32424 0.14554 0.0
H3554 H 0.55458 0.3295 0.14169 0.0
H3555 H 0.55343 0.30142 0.15432 0.0
H3556 H 0.51705 0.35864 0.15509 0.0
H3557 H 0.53684 0.3322 0.08917 0.0
H3558 H 0.52958 0.31803 0.10629 0.0
H3559 H 0.55219 0.33106 0.1088 0.0
C3560 C 0.51007 0.30349 0.15534 0.0
C3561 C 0.52534 0.29654 0.15742 0.0
C3562 C 0.51063 0.31942 0.14759 0.0
C3563 C 0.52654 0.32875 0.14206 0.0
C3564 C 0.54199 0.32225 0.14515 0.0
H3565 H 0.56675 0.43183 0.11248 0.0
H3566 H 0.55571 0.40712 0.12975 0.0
C3567 C 0.54133 0.30621 0.15244 0.0
C3568 C 0.52707 0.34506 0.13276 0.0
H3569 H 0.53988 0.36367 0.0945 0.0
C3570 C 0.52186 0.35966 0.14175 0.0
C3571 C 0.53315 0.3464 0.11522 0.0
C3572 C 0.53808 0.33101 0.10423 0.0
C3573 C 0.52326 0.37574 0.134 0.0
C3574 C 0.53003 0.37723 0.11689 0.0
C3575 C 0.53467 0.36248 0.10764 0.0
C3576 C 0.53367 0.39421 0.10872 0.0
C3577 C 0.51758 0.39109 0.1441 0.0
C3578 C 0.52458 0.39547 0.09143 0.0
C3579 C 0.53076 0.40972 0.08164 0.0
C3580 C 0.54628 0.42273 0.0889 0.0
C3581 C 0.55461 0.42208 0.10674 0.0
C3582 C 0.54832 0.40797 0.1166 0.0
H3583 H 0.51006 0.38699 0.15567 0.0
H3584 H 0.52955 0.40173 0.14985 0.0
H3585 H 0.50914 0.39684 0.13434 0.0
H3586 H 0.51336 0.38488 0.08504 0.0
H3587 H 0.52431 0.40978 0.06779 0.0
H3588 H 0.99314 0.3136 0.32638 0.0
H3589 H 0.96161 0.31144 0.3148 0.0
H3590 H 0.94566 0.26956 0.34826 0.0
H3591 H 0.97693 0.27225 0.36025 0.0
H3592 H 0.93443 0.28782 0.29572 0.0
H3593 H 0.91452 0.30004 0.36529 0.0
H3594 H 0.93753 0.30233 0.3618 0.0
H3595 H 0.92359 0.2807 0.36313 0.0
C3596 C 0.98291 0.30372 0.331 0.0
C3597 C 0.98771 0.29289 0.34405 0.0
C3598 C 0.96475 0.30256 0.32447 0.0
C3599 C 0.9508 0.29064 0.33091 0.0
C3600 C 0.95578 0.27934 0.34338 0.0
H3601 H 0.83349 0.26011 0.31105 0.0
H3602 H 0.8653 0.26349 0.32077 0.0
C3603 C 0.97382 0.28065 0.35003 0.0
C3604 C 0.93121 0.28996 0.32466 0.0
H3605 H 0.89083 0.28949 0.34049 0.0
C3606 C 0.925 0.28835 0.3056 0.0
C3607 C 0.9185 0.29068 0.3373 0.0
C3608 C 0.9239 0.29372 0.35801 0.0
C3609 C 0.90678 0.28687 0.29893 0.0
C3610 C 0.89404 0.28726 0.31156 0.0
C3611 C 0.90028 0.28906 0.33061 0.0
C3612 C 0.87425 0.28545 0.30541 0.0
C3613 C 0.9013 0.28428 0.27826 0.0
C3614 C 0.86807 0.2967 0.29357 0.0
C3615 C 0.84966 0.29466 0.28779 0.0
C3616 C 0.83662 0.28153 0.29387 0.0
C3617 C 0.84285 0.27046 0.30594 0.0
C3618 C 0.86123 0.27242 0.31162 0.0
H3619 H 0.9112 0.27921 0.2706 0.0
H3620 H 0.88811 0.27482 0.27437 0.0
H3621 H 0.90034 0.29729 0.2737 0.0
H3622 H 0.8775 0.30718 0.28875 0.0
H3623 H 0.84574 0.30315 0.2782 0.0
H3624 H 0.99991 0.7147 0.63541 0.0
H3625 H 1.00128 0.68705 0.6167 0.0
H3626 H 0.01643 0.66568 0.66649 0.0
H3627 H 0.01403 0.6928 0.68521 0.0
H3628 H 0.02763 0.67254 0.61146 0.0
H3629 H 0.97971 0.62387 0.64266 0.0
H3630 H 0.98202 0.64756 0.64784 0.0
H3631 H 0.99738 0.63669 0.65964 0.0
C3632 C 1.00308 0.70391 0.64238 0.0
C3633 C 1.0065 0.70585 0.66184 0.0
C3634 C 1.00401 0.68813 0.63165 0.0
C3635 C 0.00863 0.67398 0.64009 0.0
C3636 C 0.01217 0.67599 0.65955 0.0
H3637 H 0.04186 0.57968 0.59437 0.0
H3638 H 0.03925 0.60705 0.61287 0.0
C3639 C 0.01084 0.69159 0.67029 0.0
C3640 C 0.01045 0.6575 0.62852 0.0
H3641 H 0.9981 0.61186 0.62305 0.0
C3642 C 0.02102 0.65931 0.61396 0.0
C3643 C 1.00188 0.64009 0.63163 0.0
C3644 C 0.98948 0.63693 0.64617 0.0
C3645 C 0.02336 0.64433 0.60271 0.0
C3646 C 0.01505 0.62706 0.60612 0.0
C3647 C 1.00452 0.62516 0.62057 0.0
C3648 C 0.01693 0.61076 0.59466 0.0
C3649 C 0.03473 0.64691 0.58724 0.0
C3650 C 1.00526 0.60378 0.5783 0.0
C3651 C 1.00649 0.58792 0.56796 0.0
C3652 C 0.01933 0.57871 0.57387 0.0
C3653 C 0.03127 0.58598 0.59 0.0
C3654 C 0.03 0.60179 0.60039 0.0
H3655 H 0.04076 0.6612 0.58667 0.0
H3656 H 0.04555 0.6397 0.58905 0.0
H3657 H 0.02648 0.64114 0.57377 0.0
H3658 H 0.9951 0.61053 0.57363 0.0
H3659 H 0.9972 0.58269 0.55551 0.0
H3660 H 0.60249 0.82686 0.85428 0.0
H3661 H 0.63006 0.82298 0.8422 0.0
H3662 H 0.6065 0.76699 0.82658 0.0
H3663 H 0.57891 0.77101 0.83841 0.0
H3664 H 0.65377 0.80428 0.85244 0.0
H3665 H 0.62675 0.77686 0.77975 0.0
H3666 H 0.61388 0.78679 0.79519 0.0
H3667 H 0.61597 0.76424 0.79628 0.0
C3668 C 0.60298 0.81382 0.84775 0.0
C3669 C 0.58807 0.7994 0.84674 0.0
C3670 C 0.61893 0.81152 0.84097 0.0
C3671 C 0.62067 0.7947 0.83293 0.0
C3672 C 0.60571 0.78027 0.83202 0.0
H3673 H 0.7082 0.75483 0.78592 0.0
H3674 H 0.68019 0.75835 0.79656 0.0
C3675 C 0.58977 0.78258 0.83882 0.0
C3676 C 0.63824 0.79221 0.82638 0.0
H3677 H 0.65665 0.77591 0.7893 0.0
C3678 C 0.65431 0.79817 0.83856 0.0
C3679 C 0.6394 0.78403 0.80834 0.0
C3680 C 0.62313 0.77775 0.79406 0.0
C3681 C 0.67103 0.79599 0.8335 0.0
C3682 C 0.67228 0.78809 0.81533 0.0
C3683 C 0.65616 0.78203 0.80319 0.0
C3684 C 0.68996 0.78592 0.80869 0.0
C3685 C 0.68707 0.80162 0.84814 0.0
C3686 C 0.70535 0.80009 0.81138 0.0
C3687 C 0.72169 0.79787 0.80551 0.0
C3688 C 0.72336 0.78152 0.7962 0.0
C3689 C 0.70782 0.76756 0.79298 0.0
C3690 C 0.69156 0.76965 0.79914 0.0
H3691 H 0.68312 0.80146 0.86231 0.0
H3692 H 0.69646 0.79279 0.84654 0.0
H3693 H 0.69413 0.81547 0.84701 0.0
H3694 H 0.70478 0.81309 0.8179 0.0
H3695 H 0.73303 0.80918 0.80809 0.0
H3696 H 0.47166 0.50883 0.73606 0.0
H3697 H 0.4861 0.51197 0.70782 0.0
H3698 H 0.44648 0.53829 0.68599 0.0
H3699 H 0.43189 0.53507 0.71395 0.0
H3700 H 0.46807 0.49924 0.66821 0.0
H3701 H 0.49695 0.57228 0.68337 0.0
H3702 H 0.49059 0.55867 0.70128 0.0
H3703 H 0.47381 0.56467 0.68609 0.0
C3704 C 0.46612 0.51544 0.72533 0.0
C3705 C 0.45068 0.5218 0.72736 0.0
C3706 C 0.47433 0.51712 0.70915 0.0
C3707 C 0.46744 0.52547 0.69485 0.0
C3708 C 0.45211 0.53193 0.6969 0.0
H3709 H 0.49854 0.54955 0.58691 0.0
H3710 H 0.4841 0.54734 0.61521 0.0
C3711 C 0.44378 0.53005 0.71291 0.0
C3712 C 0.47614 0.52736 0.67771 0.0
H3713 H 0.49994 0.55817 0.654 0.0
C3714 C 0.47512 0.51209 0.66514 0.0
C3715 C 0.48514 0.54418 0.67361 0.0
C3716 C 0.48686 0.56093 0.6868 0.0
C3717 C 0.48278 0.51323 0.64853 0.0
C3718 C 0.49202 0.53002 0.64456 0.0
C3719 C 0.4929 0.5453 0.65706 0.0
C3720 C 0.50113 0.53189 0.62765 0.0
C3721 C 0.48062 0.49651 0.63514 0.0
C3722 C 0.51574 0.52428 0.62539 0.0
C3723 C 0.52411 0.52567 0.60935 0.0
C3724 C 0.51801 0.53465 0.59514 0.0
C3725 C 0.50355 0.54254 0.59757 0.0
C3726 C 0.49528 0.54128 0.61373 0.0
H3727 H 0.46985 0.48552 0.63811 0.0
H3728 H 0.47759 0.49911 0.62064 0.0
H3729 H 0.49327 0.492 0.63625 0.0
H3730 H 0.52063 0.51718 0.63603 0.0
H3731 H 0.53514 0.51936 0.60792 0.0
H3732 H 0.78945 0.14607 0.99271 0.0
H3733 H 0.79034 0.15827 0.96299 0.0
H3734 H 0.75159 0.18792 0.97744 0.0
H3735 H 0.75087 0.1762 0.00706 0.0
H3736 H 0.75909 0.16023 0.9335 0.0
H3737 H 0.79969 0.22461 0.97087 0.0
H3738 H 0.7981 0.20371 0.98022 0.0
H3739 H 0.78037 0.21517 0.98125 0.0
C3740 C 0.78113 0.15516 0.98944 0.0
C3741 C 0.77055 0.16072 0.00228 0.0
C3742 C 0.78158 0.16198 0.97253 0.0
C3743 C 0.7713 0.17417 0.96843 0.0
C3744 C 0.75985 0.17875 0.9807 0.0
H3745 H 0.73827 0.24304 0.90339 0.0
H3746 H 0.75041 0.22732 0.92702 0.0
C3747 C 0.75957 0.17218 0.9976 0.0
C3748 C 0.7733 0.18343 0.95212 0.0
H3749 H 0.78431 0.22558 0.94088 0.0
C3750 C 0.765 0.17441 0.93483 0.0
C3751 C 0.78113 0.20186 0.95421 0.0
C3752 C 0.79047 0.21191 0.97262 0.0
C3753 C 0.76289 0.1838 0.91973 0.0
C3754 C 0.76961 0.20253 0.92219 0.0
C3755 C 0.77918 0.21124 0.93914 0.0
C3756 C 0.76445 0.21355 0.9084 0.0
C3757 C 0.75233 0.17383 0.90179 0.0
C3758 C 0.76881 0.21133 0.89038 0.0
C3759 C 0.76141 0.21979 0.87677 0.0
C3760 C 0.74997 0.23103 0.88113 0.0
C3761 C 0.74663 0.23412 0.89952 0.0
C3762 C 0.75377 0.22537 0.91305 0.0
H3763 H 0.7455 0.15998 0.90332 0.0
H3764 H 0.74214 0.18084 0.89659 0.0
H3765 H 0.76146 0.17312 0.89116 0.0
H3766 H 0.77734 0.20253 0.8867 0.0
H3767 H 0.76418 0.21696 0.8627 0.0
H3768 H 0.14787 0.55702 0.23241 0.0
H3769 H 0.12811 0.55934 0.20488 0.0
H3770 H 0.1342 0.50861 0.1794 0.0
H3771 H 0.15417 0.50632 0.20712 0.0
H3772 H 0.13454 0.55602 0.16479 0.0
H3773 H 0.07924 0.5051 0.18457 0.0
H3774 H 0.09834 0.51676 0.2009 0.0
H3775 H 0.10038 0.49922 0.18382 0.0
C3776 C 0.14496 0.54645 0.22084 0.0
C3777 C 0.15206 0.5314 0.2216 0.0
C3778 C 0.1339 0.54784 0.20522 0.0
C3779 C 0.12985 0.53412 0.1904 0.0
C3780 C 0.13732 0.51924 0.19092 0.0
H3781 H 0.06248 0.50847 0.0902 0.0
H3782 H 0.08467 0.51207 0.11714 0.0
C3783 C 0.14852 0.51788 0.20659 0.0
C3784 C 0.11666 0.53488 0.17505 0.0
H3785 H 0.0738 0.51642 0.15636 0.0
C3786 C 0.12122 0.54746 0.16289 0.0
C3787 C 0.09937 0.52379 0.17308 0.0
C3788 C 0.0939 0.51051 0.18633 0.0
C3789 C 0.10882 0.54881 0.14816 0.0
C3790 C 0.09168 0.53745 0.14601 0.0
C3791 C 0.08703 0.52518 0.15841 0.0
C3792 C 0.07902 0.53639 0.12966 0.0
C3793 C 0.11417 0.56175 0.13457 0.0
C3794 C 0.06862 0.54896 0.12819 0.0
C3795 C 0.05585 0.54695 0.1128 0.0
C3796 C 0.05361 0.5324 0.09898 0.0
C3797 C 0.06404 0.51985 0.10068 0.0
C3798 C 0.07672 0.52188 0.11594 0.0
H3799 H 0.12818 0.56953 0.13816 0.0
H3800 H 0.11258 0.55438 0.12043 0.0
H3801 H 0.10525 0.57116 0.13422 0.0
H3802 H 0.07031 0.56012 0.13895 0.0
H3803 H 0.04793 0.55678 0.11159 0.0
H3804 H 0.76242 0.842 0.4874 0.0
H3805 H 0.75908 0.82959 0.45445 0.0
H3806 H 0.81576 0.84807 0.45433 0.0
H3807 H 0.81918 0.85918 0.4873 0.0
H3808 H 0.76527 0.84206 0.42283 0.0
H3809 H 0.81098 0.79763 0.43513 0.0
H3810 H 0.80342 0.80968 0.45392 0.0
H3811 H 0.82182 0.82047 0.4428 0.0
C3812 C 0.77412 0.84325 0.48028 0.0
C3813 C 0.79111 0.85113 0.48995 0.0
C3814 C 0.77223 0.83622 0.46145 0.0
C3815 C 0.78726 0.83727 0.45193 0.0
C3816 C 0.80404 0.84626 0.46143 0.0
H3817 H 0.81016 0.80549 0.34134 0.0
H3818 H 0.81063 0.81804 0.37359 0.0
C3819 C 0.80598 0.85274 0.48028 0.0
C3820 C 0.78562 0.82887 0.43224 0.0
H3821 H 0.80329 0.80141 0.40369 0.0
C3822 C 0.77347 0.83304 0.4187 0.0
C3823 C 0.79624 0.81699 0.42668 0.0
C3824 C 0.80869 0.81079 0.44044 0.0
C3825 C 0.7721 0.82619 0.39982 0.0
C3826 C 0.78305 0.81467 0.39429 0.0
C3827 C 0.79499 0.81033 0.40784 0.0
C3828 C 0.78258 0.80706 0.37456 0.0
C3829 C 0.75933 0.8318 0.38592 0.0
C3830 C 0.76677 0.79646 0.36432 0.0
C3831 C 0.7666 0.78923 0.34588 0.0
C3832 C 0.78229 0.79214 0.33748 0.0
C3833 C 0.79808 0.80258 0.3477 0.0
C3834 C 0.79826 0.80992 0.36607 0.0
H3835 H 0.75557 0.84415 0.39148 0.0
H3836 H 0.76516 0.83406 0.37289 0.0
H3837 H 0.74696 0.82108 0.38253 0.0
H3838 H 0.75459 0.79366 0.3706 0.0
H3839 H 0.75422 0.7813 0.33819 0.0
H3840 H 0.43584 0.52353 0.8435 0.0
H3841 H 0.44794 0.52487 0.87621 0.0
H3842 H 0.49566 0.51183 0.85935 0.0
H3843 H 0.48352 0.51005 0.82673 0.0
H3844 H 0.46155 0.49398 0.89236 0.0
H3845 H 0.51113 0.5589 0.90003 0.0
H3846 H 0.49135 0.55343 0.88318 0.0
H3847 H 0.50993 0.54392 0.87914 0.0
C3848 C 0.44901 0.52117 0.84678 0.0
C3849 C 0.45876 0.51676 0.83249 0.0
C3850 C 0.45586 0.52185 0.86547 0.0
C3851 C 0.47275 0.51852 0.87025 0.0
C3852 C 0.48265 0.51453 0.85602 0.0
H3853 H 0.53932 0.51069 0.97189 0.0
H3854 H 0.52667 0.51033 0.93952 0.0
C3855 C 0.47568 0.51351 0.83737 0.0
C3856 C 0.47992 0.51859 0.89001 0.0
H3857 H 0.5126 0.54138 0.92456 0.0
C3858 C 0.47264 0.50438 0.89944 0.0
C3859 C 0.49439 0.53217 0.89925 0.0
C3860 C 0.50216 0.54808 0.89002 0.0
C3861 C 0.4797 0.50323 0.91771 0.0
C3862 C 0.49437 0.51666 0.92684 0.0
C3863 C 0.50152 0.53097 0.91748 0.0
C3864 C 0.50198 0.51639 0.94637 0.0
C3865 C 0.47166 0.4875 0.92709 0.0
C3866 C 0.49233 0.51989 0.96095 0.0
C3867 C 0.49953 0.52022 0.97936 0.0
C3868 C 0.51658 0.51698 0.98372 0.0
C3869 C 0.52616 0.51319 0.96907 0.0
C3870 C 0.51897 0.51304 0.95057 0.0
H3871 H 0.46238 0.47681 0.9172 0.0
H3872 H 0.4823 0.48188 0.93384 0.0
H3873 H 0.46414 0.49197 0.93806 0.0
H3874 H 0.47926 0.5226 0.95808 0.0
H3875 H 0.4917 0.52313 0.99022 0.0
H3876 H 0.74972 0.15664 0.09261 0.0
H3877 H 0.7483 0.17563 0.12103 0.0
H3878 H 0.79948 0.16855 0.14409 0.0
H3879 H 0.80109 0.14977 0.11528 0.0
H3880 H 0.75116 0.16981 0.15926 0.0
H3881 H 0.80558 0.22295 0.14173 0.0
H3882 H 0.79365 0.20419 0.12512 0.0
H3883 H 0.81075 0.20151 0.14241 0.0
C3884 C 0.76051 0.15903 0.10392 0.0
C3885 C 0.77556 0.1521 0.10214 0.0
C3886 C 0.75965 0.16971 0.12002 0.0
C3887 C 0.77384 0.17343 0.13434 0.0
C3888 C 0.78855 0.1658 0.13291 0.0
H3889 H 0.80077 0.23701 0.23771 0.0
H3890 H 0.79702 0.21547 0.21 0.0
C3891 C 0.78948 0.1552 0.11666 0.0
C3892 C 0.77383 0.18652 0.15006 0.0
H3893 H 0.79537 0.22801 0.17074 0.0
C3894 C 0.76075 0.18257 0.16183 0.0
C3895 C 0.78617 0.20319 0.15283 0.0
C3896 C 0.79974 0.20835 0.13978 0.0
C3897 C 0.76018 0.19482 0.17699 0.0
C3898 C 0.77296 0.21115 0.18009 0.0
C3899 C 0.78569 0.21531 0.16806 0.0
C3900 C 0.77441 0.22359 0.19667 0.0
C3901 C 0.74639 0.19019 0.18992 0.0
C3902 C 0.76295 0.23516 0.19782 0.0
C3903 C 0.7651 0.24753 0.21351 0.0
C3904 C 0.77867 0.24821 0.22801 0.0
C3905 C 0.7902 0.23664 0.22666 0.0
C3906 C 0.78805 0.22436 0.21099 0.0
H3907 H 0.73774 0.1766 0.18581 0.0
H3908 H 0.75309 0.19105 0.20427 0.0
H3909 H 0.73787 0.19997 0.19006 0.0
H3910 H 0.75248 0.23464 0.18661 0.0
H3911 H 0.75601 0.2563 0.21447 0.0
H3912 H 0.12565 0.55039 0.30959 0.0
H3913 H 0.11153 0.5508 0.33781 0.0
H3914 H 0.15052 0.526 0.36389 0.0
H3915 H 0.16495 0.52555 0.33557 0.0
H3916 H 0.09899 0.51661 0.35424 0.0
H3917 H 0.14715 0.57154 0.40103 0.0
H3918 H 0.14497 0.57096 0.37614 0.0
H3919 H 0.15548 0.55551 0.38691 0.0
C3920 C 0.13126 0.545 0.32129 0.0
C3921 C 0.14622 0.53764 0.32032 0.0
C3922 C 0.12322 0.54533 0.33738 0.0
C3923 C 0.13006 0.53841 0.35273 0.0
C3924 C 0.1452 0.53143 0.35206 0.0
H3925 H 0.08754 0.54772 0.45747 0.0
H3926 H 0.10331 0.53529 0.43406 0.0
C3927 C 0.15329 0.53106 0.3359 0.0
C3928 C 0.12045 0.53752 0.36892 0.0
H3929 H 0.12046 0.55884 0.41192 0.0
C3930 C 0.10375 0.5256 0.36702 0.0
C3931 C 0.12688 0.5493 0.38541 0.0
C3932 C 0.14458 0.56264 0.38764 0.0
C3933 C 0.09287 0.52559 0.3811 0.0
C3934 C 0.0989 0.53795 0.39726 0.0
C3935 C 0.11601 0.54926 0.39952 0.0
C3936 C 0.08695 0.54124 0.41086 0.0
C3937 C 0.07484 0.51277 0.37831 0.0
C3938 C 0.07225 0.54816 0.40539 0.0
C3939 C 0.06319 0.55521 0.41867 0.0
C3940 C 0.06884 0.55556 0.43759 0.0
C3941 C 0.08283 0.54753 0.44297 0.0
C3942 C 0.09187 0.54046 0.42966 0.0
H3943 H 0.07464 0.50074 0.36854 0.0
H3944 H 0.07098 0.50855 0.39165 0.0
H3945 H 0.0647 0.51942 0.37227 0.0
H3946 H 0.06849 0.54916 0.39092 0.0
H3947 H 0.05229 0.56109 0.41419 0.0
H3948 H 0.79484 0.83337 0.58509 0.0
H3949 H 0.79023 0.8192 0.6133 0.0
H3950 H 0.77714 0.86633 0.63922 0.0
H3951 H 0.78161 0.8805 0.61131 0.0
H3952 H 0.80829 0.83229 0.65035 0.0
H3953 H 0.73524 0.8259 0.6471 0.0
H3954 H 0.74699 0.82984 0.62729 0.0
H3955 H 0.74812 0.8478 0.64531 0.0
C3956 C 0.79086 0.84067 0.59675 0.0
C3957 C 0.78857 0.85808 0.59582 0.0
C3958 C 0.78826 0.83256 0.61288 0.0
C3959 C 0.78309 0.84159 0.62832 0.0
C3960 C 0.78079 0.85894 0.62741 0.0
H3961 H 0.76133 0.81626 0.73882 0.0
H3962 H 0.76429 0.82986 0.71016 0.0
C3963 C 0.78347 0.86707 0.6114 0.0
C3964 C 0.78069 0.8332 0.64562 0.0
H3965 H 0.74998 0.81908 0.67452 0.0
C3966 C 0.79551 0.82927 0.65556 0.0
C3967 C 0.76409 0.82957 0.65264 0.0
C3968 C 0.74764 0.83335 0.6425 0.0
C3969 C 0.79427 0.822 0.67237 0.0
C3970 C 0.77757 0.81795 0.67919 0.0
C3971 C 0.76276 0.82204 0.66931 0.0
C3972 C 0.77522 0.80937 0.69646 0.0
C3973 C 0.81103 0.81929 0.68293 0.0
C3974 C 0.77996 0.79308 0.69826 0.0
C3975 C 0.77845 0.78537 0.71469 0.0
C3976 C 0.77186 0.79358 0.72967 0.0
C3977 C 0.76653 0.80959 0.72762 0.0
C3978 C 0.76819 0.81738 0.71121 0.0
H3979 H 0.82315 0.82807 0.67916 0.0
H3980 H 0.81099 0.82196 0.69814 0.0
H3981 H 0.81198 0.80528 0.67947 0.0
H3982 H 0.78493 0.78633 0.68695 0.0
H3983 H 0.78263 0.77303 0.71568 0.0
H3984 H 0.75518 0.462 0.54363 0.0
H3985 H 0.72836 0.47286 0.54632 0.0
H3986 H 0.70617 0.44711 0.49114 0.0
H3987 H 0.73319 0.43575 0.48837 0.0
H3988 H 0.71671 0.49496 0.51841 0.0
H3989 H 0.66688 0.43364 0.52788 0.0
H3990 H 0.69043 0.43572 0.53427 0.0
H3991 H 0.68148 0.43286 0.51028 0.0
C3992 C 0.74463 0.45864 0.53203 0.0
C3993 C 0.74627 0.44839 0.51564 0.0
C3994 C 0.72934 0.46475 0.53365 0.0
C3995 C 0.71557 0.46082 0.51886 0.0
C3996 C 0.71682 0.45015 0.50262 0.0
H3997 H 0.62069 0.49761 0.54058 0.0
H3998 H 0.64136 0.48669 0.52177 0.0
C3999 C 0.73216 0.4438 0.50106 0.0
C4000 C 0.70052 0.46901 0.52053 0.0
H4001 H 0.65951 0.4612 0.53471 0.0
C4002 C 0.70394 0.48761 0.52145 0.0
C4003 C 0.68415 0.45921 0.52461 0.0
C4004 C 0.68037 0.43924 0.52427 0.0
C4005 C 0.69172 0.49689 0.52764 0.0
C4006 C 0.67579 0.48717 0.53284 0.0
C4007 C 0.67179 0.46848 0.53057 0.0
C4008 C 0.66414 0.49601 0.54289 0.0
C4009 C 0.69636 0.51698 0.52952 0.0
C4010 C 0.67033 0.50481 0.56087 0.0
C4011 C 0.65859 0.51088 0.57167 0.0
C4012 C 0.6406 0.50817 0.56452 0.0
C4013 C 0.63457 0.49983 0.54631 0.0
C4014 C 0.64628 0.49368 0.53557 0.0
H4015 H 0.70606 0.52196 0.52001 0.0
H4016 H 0.68427 0.52223 0.52664 0.0
H4017 H 0.70259 0.52234 0.54392 0.0
H4018 H 0.68408 0.50638 0.56677 0.0
H4019 H 0.6635 0.51753 0.5856 0.0
H4020 H 0.22332 0.11722 0.48786 0.0
H4021 H 0.19318 0.09938 0.4895 0.0
H4022 H 0.18937 0.13472 0.53779 0.0
H4023 H 0.2187 0.15312 0.53526 0.0
H4024 H 0.17955 0.08077 0.51444 0.0
H4025 H 0.14379 0.13485 0.50873 0.0
H4026 H 0.16673 0.13763 0.50472 0.0
H4027 H 0.1611 0.14027 0.528 0.0
C4028 C 0.2158 0.12125 0.49856 0.0
C4029 C 0.22297 0.13671 0.51114 0.0
C4030 C 0.19868 0.11106 0.49958 0.0
C4031 C 0.18873 0.116 0.51345 0.0
C4032 C 0.19635 0.13106 0.52646 0.0
H4033 H 0.09679 0.05306 0.5532 0.0
H4034 H 0.12668 0.06952 0.549 0.0
C4035 C 0.21315 0.14151 0.52509 0.0
C4036 C 0.17059 0.10521 0.51466 0.0
H4037 H 0.12776 0.10821 0.51861 0.0
C4038 C 0.16823 0.08677 0.5152 0.0
C4039 C 0.15571 0.11299 0.51555 0.0
C4040 C 0.15692 0.13249 0.51403 0.0
C4041 C 0.15152 0.07603 0.51697 0.0
C4042 C 0.13689 0.08395 0.51841 0.0
C4043 C 0.13911 0.10226 0.51761 0.0
C4044 C 0.11909 0.07345 0.5207 0.0
C4045 C 0.14945 0.05624 0.51705 0.0
C4046 C 0.10497 0.07052 0.50626 0.0
C4047 C 0.08787 0.06143 0.50875 0.0
C4048 C 0.08478 0.05502 0.52563 0.0
C4049 C 0.09898 0.05772 0.53998 0.0
C4050 C 0.11599 0.06707 0.5376 0.0
H4051 H 0.16169 0.05187 0.51399 0.0
H4052 H 0.14639 0.05263 0.53084 0.0
H4053 H 0.13811 0.04881 0.50663 0.0
H4054 H 0.10718 0.07535 0.49313 0.0
H4055 H 0.07711 0.05929 0.49746 0.0
H4056 H 0.15544 0.97805 0.80947 0.0
H4057 H 0.16893 0.9521 0.80837 0.0
H4058 H 0.19397 0.96845 0.76104 0.0
H4059 H 0.18074 0.99419 0.76197 0.0
H4060 H 0.16617 0.92441 0.77461 0.0
H4061 H 0.23493 0.96289 0.80144 0.0
H4062 H 0.21536 0.97098 0.80575 0.0
H4063 H 0.2235 0.97223 0.78369 0.0
C4064 C 0.16388 0.97612 0.79889 0.0
C4065 C 0.16716 0.98826 0.78592 0.0
C4066 C 0.17151 0.96131 0.79826 0.0
C4067 C 0.1826 0.9586 0.78478 0.0
C4068 C 0.18566 0.97053 0.77171 0.0
H4069 H 0.23981 0.89179 0.73433 0.0
H4070 H 0.22725 0.91569 0.74809 0.0
C4071 C 0.17806 0.98522 0.77228 0.0
C4072 C 0.19108 0.94332 0.78399 0.0
H4073 H 0.23199 0.93365 0.78557 0.0
C4074 C 0.18051 0.92626 0.77742 0.0
C4075 C 0.20978 0.94593 0.7876 0.0
C4076 C 0.22159 0.96397 0.79516 0.0
C4077 C 0.18833 0.91186 0.77324 0.0
C4078 C 0.20712 0.91468 0.77605 0.0
C4079 C 0.21759 0.93157 0.7835 0.0
C4080 C 0.21618 0.90085 0.76932 0.0
C4081 C 0.17655 0.89404 0.7648 0.0
C4082 C 0.21458 0.88488 0.77715 0.0
C4083 C 0.22189 0.8713 0.7694 0.0
C4084 C 0.23069 0.87353 0.75367 0.0
C4085 C 0.2329 0.88979 0.74636 0.0
C4086 C 0.2258 0.9034 0.75422 0.0
H4087 H 0.16254 0.89483 0.76091 0.0
H4088 H 0.18167 0.8888 0.75225 0.0
H4089 H 0.17664 0.88435 0.77493 0.0
H4090 H 0.20736 0.8828 0.78894 0.0
H4091 H 0.22007 0.85882 0.7752 0.0
H4092 H 0.34164 0.91916 0.01416 0.0
H4093 H 0.37306 0.93344 0.02309 0.0
H4094 H 0.36548 0.97969 0.99804 0.0
H4095 H 0.33378 0.96569 0.98938 0.0
H4096 H 0.39888 0.94668 0.00093 0.0
H4097 H 0.38685 0.99945 0.05217 0.0
H4098 H 0.36986 0.97971 0.04272 0.0
H4099 H 0.37506 0.99796 0.02939 0.0
C4100 C 0.34669 0.93228 0.01032 0.0
C4101 C 0.33535 0.94146 0.00124 0.0
C4102 C 0.36455 0.94039 0.01552 0.0
C4103 C 0.37121 0.95766 0.01157 0.0
C4104 C 0.36023 0.96649 0.00157 0.0
H4105 H 0.46947 0.03237 0.02254 0.0
H4106 H 0.43824 0.01677 0.02036 0.0
C4107 C 0.34228 0.95845 0.99651 0.0
C4108 C 0.38978 0.96641 0.01785 0.0
H4109 H 0.41644 1.00277 0.04473 0.0
C4110 C 0.40283 0.95887 0.01061 0.0
C4111 C 0.39455 0.98213 0.03061 0.0
C4112 C 0.38085 0.99022 0.03933 0.0
C4113 C 0.42081 0.96724 0.0151 0.0
C4114 C 0.4256 0.98327 0.02751 0.0
C4115 C 0.41254 0.99046 0.03524 0.0
C4116 C 0.444 0.99351 0.03148 0.0
C4117 C 0.43435 0.95924 0.0059 0.0
C4118 C 0.45725 0.98572 0.03905 0.0
C4119 C 0.47499 0.99425 0.03961 0.0
C4120 C 0.4796 0.01101 0.03351 0.0
C4121 C 0.46623 0.01946 0.02741 0.0
C4122 C 0.44845 0.01063 0.02622 0.0
H4123 H 0.42805 0.94941 0.99358 0.0
H4124 H 0.4447 0.96974 0.00147 0.0
H4125 H 0.44102 0.95217 0.01588 0.0
H4126 H 0.4539 0.97262 0.04347 0.0
H4127 H 0.48499 0.98718 0.04372 0.0
H4128 H 0.84986 0.56896 0.84047 0.0
H4129 H 0.83875 0.59597 0.83616 0.0
H4130 H 0.85759 0.59664 0.78265 0.0
H4131 H 0.86804 0.56961 0.78666 0.0
H4132 H 0.85524 0.63149 0.82567 0.0
H4133 H 0.80257 0.58888 0.77252 0.0
H4134 H 0.81594 0.5797 0.7889 0.0
H4135 H 0.82472 0.58748 0.76865 0.0
C4136 C 0.85181 0.57519 0.82802 0.0
C4137 C 0.85945 0.56742 0.81374 0.0
C4138 C 0.84557 0.59049 0.82559 0.0
C4139 C 0.84717 0.59792 0.80898 0.0
C4140 C 0.85607 0.59083 0.79541 0.0
H4141 H 0.82081 0.67465 0.74683 0.0
H4142 H 0.83595 0.65624 0.76498 0.0
C4143 C 0.86199 0.57551 0.79769 0.0
C4144 C 0.83808 0.61192 0.80468 0.0
H4145 H 0.80698 0.62041 0.7727 0.0
C4146 C 0.84446 0.62911 0.81434 0.0
C4147 C 0.82401 0.60852 0.78992 0.0
C4148 C 0.81629 0.5901 0.77951 0.0
C4149 C 0.83764 0.64334 0.80886 0.0
C4150 C 0.82425 0.64003 0.79353 0.0
C4151 C 0.81735 0.62273 0.78445 0.0
C4152 C 0.81783 0.65436 0.78566 0.0
C4153 C 0.84508 0.66188 0.81889 0.0
C4154 C 0.80293 0.65949 0.79166 0.0
C4155 C 0.79418 0.66984 0.78126 0.0
C4156 C 0.80024 0.67497 0.76471 0.0
C4157 C 0.81582 0.67067 0.75942 0.0
C4158 C 0.82455 0.66037 0.76983 0.0
H4159 H 0.85541 0.66219 0.83071 0.0
H4160 H 0.85101 0.67077 0.80908 0.0
H4161 H 0.83412 0.66726 0.82414 0.0
H4162 H 0.79749 0.6546 0.80371 0.0
H4163 H 0.78209 0.67287 0.78553 0.0
H4164 H 0.81776 0.63806 0.06094 0.0
H4165 H 0.84357 0.62499 0.06347 0.0
H4166 H 0.84878 0.62941 0.00586 0.0
H4167 H 0.82317 0.64338 0.00349 0.0
H4168 H 0.84524 0.59405 0.04498 0.0
H4169 H 0.90002 0.64805 0.02957 0.0
H4170 H 0.87878 0.65201 0.03454 0.0
H4171 H 0.88084 0.64115 0.01223 0.0
C4172 C 0.8245 0.63642 0.04884 0.0
C4173 C 0.81846 0.64165 0.032 0.0
C4174 C 0.83927 0.62898 0.05031 0.0
C4175 C 0.84817 0.62629 0.03489 0.0
C4176 C 0.84234 0.63169 0.01803 0.0
H4177 H 0.92206 0.55536 0.03995 0.0
H4178 H 0.90158 0.57229 0.02674 0.0
C4179 C 0.82767 0.63955 0.01666 0.0
C4180 C 0.8627 0.6167 0.03659 0.0
H4181 H 0.90756 0.6213 0.03649 0.0
C4182 C 0.85882 0.59995 0.04292 0.0
C4183 C 0.88041 0.62441 0.03385 0.0
C4184 C 0.88538 0.64245 0.0273 0.0
C4185 C 0.87224 0.59107 0.04735 0.0
C4186 C 0.88996 0.59898 0.04511 0.0
C4187 C 0.89387 0.61535 0.03809 0.0
C4188 C 0.90456 0.59089 0.05165 0.0
C4189 C 0.86761 0.57362 0.05521 0.0
C4190 C 0.91307 0.596 0.06987 0.0
C4191 C 0.92444 0.58621 0.07751 0.0
C4192 C 0.92756 0.5713 0.06694 0.0
C4193 C 0.91979 0.5668 0.04835 0.0
C4194 C 0.90823 0.57648 0.04078 0.0
H4195 H 0.85318 0.56945 0.05648 0.0
H4196 H 0.87136 0.56301 0.04616 0.0
H4197 H 0.87532 0.57483 0.06913 0.0
H4198 H 0.91026 0.60706 0.07844 0.0
H4199 H 0.93055 0.59007 0.09178 0.0
H4200 H 0.18488 0.07554 0.77631 0.0
H4201 H 0.20335 0.10504 0.77423 0.0
H4202 H 0.17901 0.12801 0.8181 0.0
H4203 H 0.16017 0.09853 0.82011 0.0
H4204 H 0.18729 0.13841 0.76913 0.0
H4205 H 0.23692 0.14302 0.83132 0.0
H4206 H 0.22439 0.12187 0.81894 0.0
H4207 H 0.21362 0.13517 0.83338 0.0
C4208 C 0.18362 0.08681 0.78572 0.0
C4209 C 0.17115 0.08472 0.79847 0.0
C4210 C 0.19408 0.10364 0.78439 0.0
C4211 C 0.19247 0.11859 0.796 0.0
C4212 C 0.18038 0.11655 0.80904 0.0
H4213 H 0.24568 0.23018 0.80951 0.0
H4214 H 0.22674 0.20097 0.81173 0.0
C4215 C 0.16969 0.09974 0.8102 0.0
C4216 C 0.20336 0.13636 0.79428 0.0
H4217 H 0.23994 0.16794 0.81496 0.0
C4218 C 0.19883 0.1449 0.77909 0.0
C4219 C 0.21831 0.14468 0.80737 0.0
C4220 C 0.22376 0.13577 0.82367 0.0
C4221 C 0.20889 0.16174 0.77675 0.0
C4222 C 0.22395 0.16997 0.78977 0.0
C4223 C 0.2284 0.16147 0.80499 0.0
C4224 C 0.23517 0.18758 0.78801 0.0
C4225 C 0.20325 0.1708 0.76062 0.0
C4226 C 0.24627 0.18957 0.77402 0.0
C4227 C 0.25726 0.2062 0.77283 0.0
C4228 C 0.25718 0.22105 0.78555 0.0
C4229 C 0.24601 0.21896 0.79951 0.0
C4230 C 0.23518 0.20233 0.8008 0.0
H4231 H 0.18972 0.164 0.75357 0.0
H4232 H 0.20339 0.18492 0.76536 0.0
H4233 H 0.21284 0.17077 0.75036 0.0
H4234 H 0.2465 0.17824 0.76413 0.0
H4235 H 0.26564 0.2075 0.76184 0.0
H4236 H 0.39144 0.95917 0.30794 0.0
H4237 H 0.37622 0.92805 0.298 0.0
H4238 H 0.32574 0.94049 0.30596 0.0
H4239 H 0.34072 0.9717 0.31582 0.0
H4240 H 0.35195 0.90403 0.31717 0.0
H4241 H 0.32101 0.91841 0.25005 0.0
H4242 H 0.33993 0.9337 0.26391 0.0
H4243 H 0.31798 0.93189 0.27045 0.0
C4244 C 0.37714 0.95524 0.30789 0.0
C4245 C 0.3672 0.96785 0.31239 0.0
C4246 C 0.36852 0.93755 0.30211 0.0
C4247 C 0.34995 0.93236 0.30082 0.0
C4248 C 0.34009 0.94457 0.30651 0.0
H4249 H 0.26852 0.84008 0.27949 0.0
H4250 H 0.28669 0.87007 0.27911 0.0
C4251 C 0.34868 0.96228 0.31229 0.0
C4252 C 0.34084 0.91409 0.29346 0.0
H4253 H 0.31135 0.8891 0.25774 0.0
C4254 C 0.34323 0.90064 0.30409 0.0
C4255 C 0.32957 0.91004 0.2764 0.0
C4256 C 0.32702 0.92423 0.26442 0.0
C4257 C 0.33392 0.88306 0.29845 0.0
C4258 C 0.32243 0.87899 0.28146 0.0
C4259 C 0.3204 0.89241 0.27059 0.0
C4260 C 0.31097 0.86121 0.27601 0.0
C4261 C 0.33576 0.86922 0.31119 0.0
C4262 C 0.31855 0.84652 0.27335 0.0
C4263 C 0.30835 0.82957 0.27409 0.0
C4264 C 0.29038 0.8272 0.27661 0.0
C4265 C 0.28237 0.84173 0.27729 0.0
C4266 C 0.29266 0.85875 0.27698 0.0
H4267 H 0.34236 0.87536 0.32529 0.0
H4268 H 0.32252 0.86073 0.31248 0.0
H4269 H 0.34398 0.86048 0.30538 0.0
H4270 H 0.3327 0.84833 0.27256 0.0
H4271 H 0.31502 0.81878 0.27443 0.0
H4272 H 0.56378 0.33692 0.56694 0.0
H4273 H 0.55942 0.36609 0.55952 0.0
H4274 H 0.55209 0.38033 0.61612 0.0
H4275 H 0.55577 0.35093 0.62345 0.0
H4276 H 0.52593 0.38403 0.5702 0.0
H4277 H 0.5947 0.42188 0.59815 0.0
H4278 H 0.58985 0.39836 0.58969 0.0
H4279 H 0.58304 0.40565 0.61127 0.0
C4280 C 0.56116 0.34618 0.57785 0.0
C4281 C 0.56007 0.34123 0.59584 0.0
C4282 C 0.55864 0.363 0.57355 0.0
C4283 C 0.55543 0.37579 0.58718 0.0
C4284 C 0.55448 0.37094 0.6052 0.0
H4285 H 0.55692 0.49111 0.58722 0.0
H4286 H 0.55927 0.46162 0.5949 0.0
C4287 C 0.55655 0.35396 0.60939 0.0
C4288 C 0.55309 0.39406 0.58261 0.0
H4289 H 0.57506 0.43819 0.58598 0.0
C4290 C 0.53672 0.39585 0.57363 0.0
C4291 C 0.56688 0.40981 0.58723 0.0
C4292 C 0.58469 0.40903 0.59707 0.0
C4293 C 0.53374 0.41261 0.5694 0.0
C4294 C 0.54777 0.42841 0.57344 0.0
C4295 C 0.56413 0.4265 0.58257 0.0
C4296 C 0.54581 0.44687 0.56862 0.0
C4297 C 0.51517 0.41311 0.56135 0.0
C4298 C 0.53756 0.44928 0.55116 0.0
C4299 C 0.53583 0.46631 0.54687 0.0
C4300 C 0.54277 0.48192 0.5596 0.0
C4301 C 0.55135 0.47963 0.5769 0.0
C4302 C 0.55276 0.46254 0.58132 0.0
H4303 H 0.50502 0.40214 0.56536 0.0
H4304 H 0.51187 0.42595 0.56601 0.0
H4305 H 0.51413 0.41127 0.546 0.0
H4306 H 0.53264 0.43799 0.54052 0.0
H4307 H 0.52931 0.46726 0.53332 0.0
H4308 H 0.45566 0.80165 0.39488 0.0
H4309 H 0.42703 0.80117 0.37722 0.0
H4310 H 0.413 0.74376 0.3729 0.0
H4311 H 0.44132 0.74436 0.39168 0.0
H4312 H 0.41422 0.78946 0.34395 0.0
H4313 H 0.36715 0.75159 0.38558 0.0
H4314 H 0.39062 0.75924 0.39374 0.0
H4315 H 0.38249 0.73926 0.37748 0.0
C4316 C 0.44643 0.7889 0.39031 0.0
C4317 C 0.45086 0.77304 0.39475 0.0
C4318 C 0.42996 0.78862 0.38015 0.0
C4319 C 0.41744 0.77245 0.37377 0.0
C4320 C 0.42195 0.75652 0.37804 0.0
H4321 H 0.3136 0.74958 0.30278 0.0
H4322 H 0.34113 0.74748 0.32153 0.0
C4323 C 0.43831 0.75684 0.38866 0.0
C4324 C 0.40031 0.77252 0.36189 0.0
H4325 H 0.35479 0.75755 0.35652 0.0
C4326 C 0.40126 0.78253 0.34686 0.0
C4327 C 0.38319 0.76338 0.36531 0.0
C4328 C 0.38075 0.75291 0.3815 0.0
C4329 C 0.38591 0.78365 0.33531 0.0
C4330 C 0.3688 0.77474 0.33887 0.0
C4331 C 0.3678 0.76446 0.35369 0.0
C4332 C 0.35186 0.776 0.32749 0.0
C4333 C 0.38838 0.79413 0.31912 0.0
C4334 C 0.34837 0.79268 0.32462 0.0
C4335 C 0.33289 0.79384 0.31347 0.0
C4336 C 0.32016 0.77837 0.30545 0.0
C4337 C 0.32323 0.76171 0.30878 0.0
C4338 C 0.33896 0.76052 0.31955 0.0
H4339 H 0.40184 0.79509 0.31479 0.0
H4340 H 0.37826 0.78803 0.30699 0.0
H4341 H 0.38706 0.80791 0.32327 0.0
H4342 H 0.35759 0.80488 0.33108 0.0
H4343 H 0.33068 0.80686 0.31142 0.0
H4344 H 0.06414 0.73405 0.12224 0.0
H4345 H 0.06326 0.70259 0.11366 0.0
H4346 H 0.02746 0.70198 0.06428 0.0
H4347 H 0.02937 0.73402 0.0724 0.0
H4348 H 0.0413 0.67398 0.11144 0.0
H4349 H 0.05664 0.67481 0.03948 0.0
H4350 H 0.05846 0.6951 0.05469 0.0
H4351 H 0.03712 0.68302 0.04242 0.0
C4352 C 0.05635 0.72735 0.10928 0.0
C4353 C 0.04712 0.73694 0.09789 0.0
C4354 C 0.05572 0.7091 0.10441 0.0
C4355 C 0.04554 0.69932 0.08801 0.0
C4356 C 0.03608 0.70888 0.07664 0.0
H4357 H 0.01255 0.58376 0.04886 0.0
H4358 H 0.01526 0.61581 0.05646 0.0
C4359 C 0.03707 0.72739 0.08134 0.0
C4360 C 0.04455 0.67927 0.08346 0.0
H4361 H 0.04583 0.6462 0.04856 0.0
C4362 C 0.0425 0.66813 0.09766 0.0
C4363 C 0.04614 0.67096 0.06557 0.0
C4364 C 0.0499 0.68162 0.04974 0.0
C4365 C 0.04175 0.64953 0.09448 0.0
C4366 C 0.04287 0.64128 0.07654 0.0
C4367 C 0.04488 0.65227 0.06235 0.0
C4368 C 0.04147 0.6213 0.07212 0.0
C4369 C 0.0394 0.63863 0.11034 0.0
C4370 C 0.0553 0.61318 0.0782 0.0
C4371 C 0.05388 0.5946 0.07363 0.0
C4372 C 0.03851 0.58343 0.06293 0.0
C4373 C 0.02468 0.59165 0.05704 0.0
C4374 C 0.0262 0.61017 0.0614 0.0
H4375 H 0.03694 0.64646 0.12302 0.0
H4376 H 0.02809 0.62682 0.1063 0.0
H4377 H 0.05159 0.63368 0.1137 0.0
H4378 H 0.06732 0.62124 0.08643 0.0
H4379 H 0.06477 0.58898 0.07869 0.0
H4380 H 0.06798 0.28156 0.92187 0.0
H4381 H 0.09591 0.28344 0.90823 0.0
H4382 H 0.06968 0.23974 0.8663 0.0
H4383 H 0.04185 0.23771 0.87982 0.0
H4384 H 0.11555 0.25509 0.90118 0.0
H4385 H 0.09258 0.28059 0.83706 0.0
H4386 H 0.08191 0.28199 0.85779 0.0
H4387 H 0.07765 0.26126 0.84279 0.0
C4388 C 0.06812 0.27241 0.90968 0.0
C4389 C 0.05257 0.25956 0.9019 0.0
C4390 C 0.08414 0.27345 0.90195 0.0
C4391 C 0.08491 0.26182 0.88613 0.0
C4392 C 0.06942 0.24899 0.87837 0.0
H4393 H 0.16313 0.25508 0.80992 0.0
H4394 H 0.13773 0.24764 0.82741 0.0
C4395 C 0.05348 0.24784 0.88616 0.0
C4396 C 0.10179 0.26305 0.87758 0.0
H4397 H 0.12001 0.27204 0.83801 0.0
C4398 C 0.11657 0.25884 0.88739 0.0
C4399 C 0.10317 0.26794 0.85959 0.0
C4400 C 0.08807 0.27336 0.84869 0.0
C4401 C 0.13248 0.25897 0.87951 0.0
C4402 C 0.13382 0.26375 0.86141 0.0
C4403 C 0.11904 0.26811 0.85174 0.0
C4404 C 0.15052 0.26517 0.85239 0.0
C4405 C 0.14753 0.25358 0.89052 0.0
C4406 C 0.16657 0.27685 0.86076 0.0
C4407 C 0.18119 0.28084 0.85084 0.0
C4408 C 0.18012 0.27331 0.83229 0.0
C4409 C 0.16456 0.26067 0.82434 0.0
C4410 C 0.14992 0.25665 0.83428 0.0
H4411 H 0.14258 0.24497 0.901 0.0
H4412 H 0.15491 0.24635 0.88136 0.0
H4413 H 0.15698 0.26571 0.89803 0.0
H4414 H 0.1674 0.28397 0.87448 0.0
H4415 H 0.1928 0.29103 0.85713 0.0
H4416 H 0.52085 0.74295 0.90428 0.0
H4417 H 0.51801 0.71496 0.9179 0.0
H4418 H 0.57313 0.73139 0.94192 0.0
H4419 H 0.5759 0.75948 0.92889 0.0
H4420 H 0.53508 0.68731 0.91408 0.0
H4421 H 0.54958 0.71972 0.98695 0.0
H4422 H 0.54499 0.73171 0.96787 0.0
H4423 H 0.56676 0.72747 0.97311 0.0
C4424 C 0.53234 0.74065 0.91256 0.0
C4425 C 0.54854 0.75365 0.91569 0.0
C4426 C 0.53072 0.72458 0.92029 0.0
C4427 C 0.54525 0.72109 0.9313 0.0
C4428 C 0.56155 0.73386 0.93397 0.0
H4429 H 0.55624 0.63749 1.00061 0.0
H4430 H 0.56297 0.66108 0.98066 0.0
C4431 C 0.56313 0.74997 0.92643 0.0
C4432 C 0.54337 0.70427 0.94015 0.0
H4433 H 0.54775 0.68878 0.98213 0.0
C4434 C 0.53782 0.68765 0.92897 0.0
C4435 C 0.54702 0.70456 0.9596 0.0
C4436 C 0.55226 0.7218 0.97262 0.0
C4437 C 0.536 0.67144 0.93664 0.0
C4438 C 0.53948 0.67178 0.95611 0.0
C4439 C 0.54519 0.6884 0.96722 0.0
C4440 C 0.53639 0.65528 0.96556 0.0
C4441 C 0.53065 0.65415 0.92373 0.0
C4442 C 0.51938 0.6437 0.96345 0.0
C4443 C 0.51559 0.63018 0.97482 0.0
C4444 C 0.52872 0.62787 0.98851 0.0
C4445 C 0.54599 0.63873 0.98993 0.0
C4446 C 0.54977 0.65232 0.97861 0.0
H4447 H 0.53444 0.65601 0.9097 0.0
H4448 H 0.53689 0.6438 0.92916 0.0
H4449 H 0.51596 0.64923 0.92226 0.0
H4450 H 0.50868 0.6458 0.95384 0.0
H4451 H 0.50208 0.62221 0.97367 0.0
H4452 H 0.06744 0.75258 0.74623 0.0
H4453 H 0.09951 0.7539 0.75446 0.0
H4454 H 0.11011 0.77173 0.70205 0.0
H4455 H 0.07886 0.77102 0.69411 0.0
H4456 H 0.12337 0.73689 0.73858 0.0
H4457 H 0.14702 0.80889 0.735 0.0
H4458 H 0.12375 0.79867 0.73489 0.0
H4459 H 0.13394 0.79733 0.71389 0.0
C4460 C 0.07664 0.75707 0.7366 0.0
C4461 C 0.07021 0.76198 0.71958 0.0
C4462 C 0.09508 0.75772 0.74127 0.0
C4463 C 0.10768 0.76336 0.72913 0.0
C4464 C 0.10113 0.76792 0.71209 0.0
H4465 H 0.22377 0.78247 0.72573 0.0
H4466 H 0.19144 0.77906 0.71966 0.0
C4467 C 0.08295 0.76739 0.70751 0.0
C4468 C 0.12753 0.76429 0.73378 0.0
H4469 H 0.16907 0.79192 0.73543 0.0
C4470 C 0.13333 0.749 0.73807 0.0
C4471 C 0.14088 0.77993 0.73295 0.0
C4472 C 0.1361 0.79717 0.72911 0.0
C4473 C 0.15171 0.74876 0.74094 0.0
C4474 C 0.1651 0.76446 0.74015 0.0
C4475 C 0.15921 0.77976 0.73604 0.0
C4476 C 0.18514 0.76551 0.74344 0.0
C4477 C 0.15642 0.73131 0.74398 0.0
C4478 C 0.19304 0.75914 0.75886 0.0
C4479 C 0.21166 0.76079 0.76213 0.0
C4480 C 0.22327 0.76924 0.7504 0.0
C4481 C 0.21545 0.7758 0.73511 0.0
C4482 C 0.19678 0.77388 0.73164 0.0
H4483 H 0.1454 0.71977 0.73784 0.0
H4484 H 0.16865 0.72993 0.73787 0.0
H4485 H 0.15869 0.73061 0.75909 0.0
H4486 H 0.18491 0.75329 0.76879 0.0
H4487 H 0.21701 0.75602 0.77436 0.0
H4488 H 1.00497 0.35396 0.41607 0.0
H4489 H 1.00563 0.38267 0.43374 0.0
H4490 H 0.06198 0.38982 0.45083 0.0
H4491 H 0.06151 0.3617 0.43177 0.0
H4492 H 0.01039 0.39344 0.46719 0.0
H4493 H 0.06495 0.43833 0.44023 0.0
H4494 H 0.05611 0.41562 0.42969 0.0
H4495 H 0.07251 0.42067 0.45005 0.0
C4496 C 0.01756 0.36178 0.42341 0.0
C4497 C 0.03319 0.35554 0.42243 0.0
C4498 C 0.01795 0.37827 0.43361 0.0
C4499 C 0.03391 0.3889 0.44363 0.0
C4500 C 0.04955 0.38249 0.44283 0.0
H4501 H 0.05317 0.48515 0.52597 0.0
H4502 H 0.05539 0.45772 0.50702 0.0
C4503 C 0.04926 0.36622 0.43206 0.0
C4504 C 0.03368 0.40599 0.45557 0.0
H4505 H 0.05475 0.45022 0.46734 0.0
C4506 C 0.02007 0.40582 0.46698 0.0
C4507 C 0.04628 0.42242 0.45567 0.0
C4508 C 0.06065 0.42434 0.44311 0.0
C4509 C 0.01869 0.42123 0.47827 0.0
C4510 C 0.0313 0.43752 0.47843 0.0
C4511 C 0.04509 0.43776 0.46732 0.0
C4512 C 0.03016 0.45443 0.4898 0.0
C4513 C 1.00376 0.41986 0.49013 0.0
C4514 C 0.01535 0.46194 0.48645 0.0
C4515 C 0.01411 0.47759 0.49725 0.0
C4516 C 0.02766 0.48618 0.51163 0.0
C4517 C 0.04251 0.47878 0.51499 0.0
C4518 C 0.04381 0.46314 0.50411 0.0
H4519 H 0.99804 0.40584 0.49209 0.0
H4520 H 0.00843 0.42784 0.50395 0.0
H4521 H 0.99294 0.42514 0.48324 0.0
H4522 H 1.00473 0.45571 0.47539 0.0
H4523 H 1.00248 0.48293 0.49438 0.0
H4524 H 0.46205 0.26422 0.20064 0.0
H4525 H 0.4329 0.26832 0.20822 0.0
H4526 H 0.4347 0.23394 0.25062 0.0
H4527 H 0.4638 0.22991 0.24317 0.0
H4528 H 0.39996 0.24593 0.20735 0.0
H4529 H 0.42244 0.27508 0.28037 0.0
H4530 H 0.43794 0.27223 0.26417 0.0
H4531 H 0.42723 0.25366 0.27502 0.0
C4532 C 0.45638 0.25761 0.21172 0.0
C4533 C 0.46576 0.24684 0.22135 0.0
C4534 C 0.43949 0.25993 0.21604 0.0
C4535 C 0.43126 0.25179 0.23036 0.0
C4536 C 0.44056 0.24089 0.23985 0.0
H4537 H 0.33272 0.25301 0.28292 0.0
H4538 H 0.36141 0.24889 0.27403 0.0
C4539 C 0.45737 0.23848 0.23546 0.0
C4540 C 0.41307 0.25447 0.23519 0.0
H4541 H 0.39129 0.2673 0.27118 0.0
C4542 C 0.39817 0.25069 0.22133 0.0
C4543 C 0.41017 0.26062 0.2534 0.0
C4544 C 0.4253 0.2658 0.26908 0.0
C4545 C 0.38084 0.2523 0.22514 0.0
C4546 C 0.37795 0.25856 0.2434 0.0
C4547 C 0.39294 0.26245 0.25719 0.0
C4548 C 0.35974 0.26096 0.24865 0.0
C4549 C 0.36572 0.24648 0.20948 0.0
C4550 C 0.34858 0.26932 0.2378 0.0
C4551 C 0.33176 0.27118 0.24269 0.0
C4552 C 0.3256 0.26543 0.25904 0.0
C4553 C 0.3369 0.25768 0.27026 0.0
C4554 C 0.35349 0.25534 0.26511 0.0
H4555 H 0.36858 0.23663 0.19875 0.0
H4556 H 0.35303 0.24041 0.21451 0.0
H4557 H 0.36394 0.25822 0.20267 0.0
H4558 H 0.35289 0.27469 0.22554 0.0
H4559 H 0.32365 0.27747 0.23377 0.0
H4560 H 0.62783 0.52023 0.36279 0.0
H4561 H 0.61886 0.51827 0.39394 0.0
H4562 H 0.5777 0.54591 0.38034 0.0
H4563 H 0.58665 0.54809 0.34938 0.0
H4564 H 0.6154 0.54859 0.42237 0.0
H4565 H 0.55225 0.49784 0.39862 0.0
H4566 H 0.57062 0.50132 0.38506 0.0
H4567 H 0.55633 0.51665 0.38587 0.0
C4568 C 0.61679 0.52578 0.36638 0.0
C4569 C 0.60785 0.53416 0.35342 0.0
C4570 C 0.61175 0.52475 0.38426 0.0
C4571 C 0.5975 0.53182 0.3895 0.0
C4572 C 0.58863 0.54021 0.37662 0.0
H4573 H 0.53737 0.5388 0.48171 0.0
H4574 H 0.54974 0.5389 0.45243 0.0
C4575 C 0.59377 0.54144 0.35887 0.0
C4576 C 0.59164 0.5303 0.40826 0.0
H4577 H 0.55642 0.5113 0.42978 0.0
C4578 C 0.60259 0.5403 0.42404 0.0
C4579 C 0.57491 0.51955 0.41049 0.0
C4580 C 0.56284 0.50809 0.39417 0.0
C4581 C 0.59698 0.54027 0.44183 0.0
C4582 C 0.58011 0.52965 0.444 0.0
C4583 C 0.56934 0.51943 0.42822 0.0
C4584 C 0.57291 0.52958 0.46226 0.0
C4585 C 0.60884 0.55215 0.45802 0.0
C4586 C 0.58166 0.52416 0.47773 0.0
C4587 C 0.57451 0.52398 0.49466 0.0
C4588 C 0.55836 0.5291 0.49646 0.0
C4589 C 0.54967 0.53449 0.4809 0.0
C4590 C 0.55679 0.53464 0.46406 0.0
H4591 H 0.61931 0.56242 0.45343 0.0
H4592 H 0.60091 0.55896 0.46692 0.0
H4593 H 0.61555 0.54393 0.46659 0.0
H4594 H 0.59394 0.51987 0.47669 0.0
H4595 H 0.58159 0.51978 0.50631 0.0
H4596 H 0.30066 0.91932 0.06298 0.0
H4597 H 0.30211 0.90524 0.09124 0.0
H4598 H 0.2548 0.86496 0.06837 0.0
H4599 H 0.25363 0.87865 0.0397 0.0
H4600 H 0.2782 0.89832 0.11623 0.0
H4601 H 0.2908 0.83584 0.08156 0.0
H4602 H 0.29236 0.85575 0.07048 0.0
H4603 H 0.27094 0.84145 0.07159 0.0
C4604 C 0.29044 0.90758 0.06407 0.0
C4605 C 0.277 0.90002 0.04925 0.0
C4606 C 0.29132 0.89956 0.08016 0.0
C4607 C 0.27868 0.88401 0.0817 0.0
C4608 C 0.26485 0.87679 0.06721 0.0
H4609 H 0.27678 0.81223 0.16466 0.0
H4610 H 0.26599 0.82946 0.14145 0.0
C4611 C 0.26413 0.88465 0.05095 0.0
C4612 C 0.28028 0.87516 0.09836 0.0
H4613 H 0.28704 0.8367 0.11312 0.0
C4614 C 0.28002 0.88481 0.11561 0.0
C4615 C 0.28285 0.85762 0.09736 0.0
C4616 C 0.28444 0.8471 0.07929 0.0
C4617 C 0.28225 0.8773 0.13203 0.0
C4618 C 0.28477 0.85977 0.13099 0.0
C4619 C 0.28477 0.85005 0.11373 0.0
C4620 C 0.28912 0.85159 0.14756 0.0
C4621 C 0.28203 0.88818 0.15029 0.0
C4622 C 0.30545 0.85863 0.15881 0.0
C4623 C 0.3116 0.8488 0.17189 0.0
C4624 C 0.30149 0.83189 0.17369 0.0
C4625 C 0.28471 0.82528 0.16326 0.0
C4626 C 0.27854 0.8351 0.15018 0.0
H4627 H 0.27501 0.89905 0.14845 0.0
H4628 H 0.27552 0.87968 0.16011 0.0
H4629 H 0.29595 0.89438 0.15655 0.0
H4630 H 0.31392 0.87117 0.15669 0.0
H4631 H 0.32457 0.854 0.17998 0.0
H4632 H 0.90485 0.50229 0.87356 0.0
H4633 H 0.91783 0.50069 0.90509 0.0
H4634 H 0.94682 0.55556 0.9093 0.0
H4635 H 0.9336 0.55719 0.87765 0.0
H4636 H 0.95587 0.50736 0.90999 0.0
H4637 H 0.92995 0.54974 0.96143 0.0
H4638 H 0.9178 0.5406 0.93881 0.0
H4639 H 0.9362 0.55967 0.94121 0.0
C4640 C 0.91348 0.51416 0.88157 0.0
C4641 C 0.91832 0.52988 0.87358 0.0
C4642 C 0.92081 0.51324 0.89945 0.0
C4643 C 0.93307 0.52804 0.9094 0.0
C4644 C 0.93705 0.54416 0.90184 0.0
H4645 H 0.0128 0.554 0.00158 0.0
H4646 H 0.99154 0.55218 0.97395 0.0
C4647 C 0.92962 0.54509 0.88388 0.0
C4648 C 0.94411 0.52563 0.92594 0.0
H4649 H 0.95643 0.5408 0.97169 0.0
C4650 C 0.95591 0.51446 0.92359 0.0
C4651 C 0.94396 0.53499 0.94343 0.0
C4652 C 0.93121 0.54683 0.94649 0.0
C4653 C 0.96839 0.51312 0.93823 0.0
C4654 C 0.96859 0.52286 0.95568 0.0
C4655 C 0.95622 0.53342 0.9582 0.0
C4656 C 0.98233 0.52343 0.9712 0.0
C4657 C 0.98176 0.50204 0.93459 0.0
C4658 C 0.98447 0.50779 0.97832 0.0
C4659 C 0.99711 0.5088 0.99359 0.0
C4660 C 1.00705 0.52548 0.00215 0.0
C4661 C 1.00515 0.54105 0.99492 0.0
C4662 C 0.99298 0.54001 0.97936 0.0
H4663 H 0.98261 0.49924 0.91955 0.0
H4664 H 0.99525 0.50881 0.94175 0.0
H4665 H 0.9776 0.48906 0.93989 0.0
H4666 H 0.97604 0.49494 0.97245 0.0
H4667 H 0.99832 0.49675 0.99941 0.0
H4668 H 0.26774 0.17074 0.58057 0.0
H4669 H 0.26731 0.18273 0.61259 0.0
H4670 H 0.29156 0.23533 0.60079 0.0
H4671 H 0.29092 0.22341 0.5682 0.0
H4672 H 0.29042 0.19692 0.63992 0.0
H4673 H 0.25298 0.24817 0.62591 0.0
H4674 H 0.25573 0.23177 0.60781 0.0
H4675 H 0.27313 0.2516 0.61544 0.0
C4676 C 0.27292 0.18492 0.58472 0.0
C4677 C 0.27927 0.19613 0.57169 0.0
C4678 C 0.27269 0.19179 0.60316 0.0
C4679 C 0.27904 0.2101 0.60934 0.0
C4680 C 0.28592 0.22128 0.59644 0.0
H4681 H 0.30488 0.26805 0.72096 0.0
H4682 H 0.30396 0.25572 0.68853 0.0
C4683 C 0.28573 0.21444 0.57777 0.0
C4684 C 0.27861 0.21719 0.62926 0.0
H4685 H 0.26645 0.24977 0.65707 0.0
C4686 C 0.28507 0.20842 0.64354 0.0
C4687 C 0.27138 0.23207 0.63434 0.0
C4688 C 0.26274 0.24132 0.62006 0.0
C4689 C 0.28487 0.21431 0.66244 0.0
C4690 C 0.27831 0.22954 0.6674 0.0
C4691 C 0.27166 0.2382 0.65327 0.0
C4692 C 0.27866 0.23689 0.68722 0.0
C4693 C 0.29171 0.20428 0.6771 0.0
C4694 C 0.26468 0.23048 0.69736 0.0
C4695 C 0.26508 0.23763 0.71594 0.0
C4696 C 0.27954 0.25129 0.72486 0.0
C4697 C 0.29354 0.25756 0.71464 0.0
C4698 C 0.29304 0.25053 0.69605 0.0
H4699 H 0.29681 0.19292 0.6711 0.0
H4700 H 0.30257 0.21344 0.68689 0.0
H4701 H 0.28081 0.1991 0.68522 0.0
H4702 H 0.25346 0.21992 0.69091 0.0
H4703 H 0.25421 0.23225 0.72341 0.0
H4704 H 0.62511 0.51078 0.2337 0.0
H4705 H 0.61332 0.51149 0.20163 0.0
H4706 H 0.57644 0.54157 0.22039 0.0
H4707 H 0.58839 0.54113 0.25274 0.0
H4708 H 0.57999 0.49931 0.18202 0.0
H4709 H 0.60132 0.57266 0.1845 0.0
H4710 H 0.60947 0.56073 0.20214 0.0
H4711 H 0.58787 0.56566 0.20217 0.0
C4712 C 0.61437 0.51745 0.23111 0.0
C4713 C 0.60774 0.52594 0.24595 0.0
C4714 C 0.60765 0.51786 0.21266 0.0
C4715 C 0.5942 0.52689 0.20845 0.0
C4716 C 0.58709 0.53485 0.22321 0.0
H4717 H 0.53819 0.5439 0.10331 0.0
H4718 H 0.54892 0.54385 0.13614 0.0
C4719 C 0.59378 0.53439 0.24174 0.0
C4720 C 0.58767 0.52785 0.18864 0.0
H4721 H 0.58309 0.55692 0.1572 0.0
C4722 C 0.58065 0.51192 0.17663 0.0
C4723 C 0.58876 0.54427 0.1814 0.0
C4724 C 0.59742 0.56182 0.19313 0.0
C4725 C 0.5743 0.51195 0.15786 0.0
C4726 C 0.57508 0.52838 0.15069 0.0
C4727 C 0.58221 0.54432 0.16266 0.0
C4728 C 0.56901 0.52921 0.13071 0.0
C4729 C 0.56656 0.49429 0.14595 0.0
C4730 C 0.57699 0.52147 0.11664 0.0
C4731 C 0.57094 0.52153 0.09793 0.0
C4732 C 0.55677 0.52946 0.09263 0.0
C4733 C 0.5491 0.53768 0.10675 0.0
C4734 C 0.55522 0.53763 0.12557 0.0
H4735 H 0.56239 0.48341 0.15445 0.0
H4736 H 0.55488 0.49501 0.13615 0.0
H4737 H 0.57684 0.49074 0.13775 0.0
H4738 H 0.58792 0.51528 0.12011 0.0
H4739 H 0.57738 0.51515 0.0876 0.0
H4740 H 0.26445 0.9028 0.93416 0.0
H4741 H 0.2654 0.89003 0.90217 0.0
H4742 H 0.29306 0.85201 0.92282 0.0
H4743 H 0.29201 0.86427 0.95448 0.0
H4744 H 0.29984 0.88119 0.88482 0.0
H4745 H 0.24247 0.82528 0.89033 0.0
H4746 H 0.2465 0.84673 0.90432 0.0
H4747 H 0.25965 0.83114 0.90989 0.0
C4748 C 0.27064 0.89167 0.93181 0.0
C4749 C 0.27781 0.88425 0.94673 0.0
C4750 C 0.27134 0.88459 0.91365 0.0
C4751 C 0.27929 0.8702 0.91045 0.0
C4752 C 0.28687 0.86315 0.92525 0.0
H4753 H 0.302 0.79644 0.82854 0.0
H4754 H 0.3029 0.81859 0.85542 0.0
C4755 C 0.28607 0.87006 0.94328 0.0
C4756 C 0.27839 0.86115 0.8918 0.0
H4757 H 0.25959 0.82128 0.86574 0.0
C4758 C 0.29086 0.86825 0.88038 0.0
C4759 C 0.26665 0.84432 0.88637 0.0
C4760 C 0.25294 0.83641 0.89828 0.0
C4761 C 0.29231 0.85836 0.86373 0.0
C4762 C 0.28111 0.84122 0.85883 0.0
C4763 C 0.26821 0.83446 0.86988 0.0
C4764 C 0.2824 0.82984 0.84222 0.0
C4765 C 0.30592 0.86591 0.8516 0.0
C4766 C 0.27046 0.82903 0.82637 0.0
C4767 C 0.26972 0.81638 0.81132 0.0
C4768 C 0.28102 0.8045 0.81197 0.0
C4769 C 0.2932 0.80551 0.82781 0.0
C4770 C 0.29386 0.81818 0.84297 0.0
H4771 H 0.31332 0.87973 0.85714 0.0
H4772 H 0.3156 0.85733 0.85039 0.0
H4773 H 0.29921 0.86586 0.83742 0.0
H4774 H 0.26135 0.83781 0.8259 0.0
H4775 H 0.25999 0.81568 0.79937 0.0
H4776 H 0.92427 0.50702 0.77465 0.0
H4777 H 0.9369 0.50635 0.74531 0.0
H4778 H 0.91364 0.54963 0.73089 0.0
H4779 H 0.90044 0.54996 0.76017 0.0
H4780 H 0.91303 0.50664 0.70499 0.0
H4781 H 0.9742 0.55961 0.73217 0.0
H4782 H 0.96258 0.54564 0.74743 0.0
H4783 H 0.95255 0.56189 0.73767 0.0
C4784 C 0.922 0.51644 0.76523 0.0
C4785 C 0.91177 0.52873 0.76951 0.0
C4786 C 0.92906 0.51598 0.74855 0.0
C4787 C 0.9262 0.52803 0.73623 0.0
C4788 C 0.91588 0.54029 0.7404 0.0
H4789 H 0.96143 0.51505 0.6273 0.0
H4790 H 0.94807 0.52807 0.65257 0.0
C4791 C 0.90848 0.54051 0.75699 0.0
C4792 C 0.93448 0.52776 0.71918 0.0
H4793 H 0.9738 0.54329 0.70292 0.0
C4794 C 0.92612 0.51491 0.70423 0.0
C4795 C 0.95161 0.53846 0.71867 0.0
C4796 C 0.9609 0.55222 0.73479 0.0
C4797 C 0.93487 0.51195 0.68885 0.0
C4798 C 0.95227 0.52228 0.68854 0.0
C4799 C 0.96038 0.53559 0.70325 0.0
C4800 C 0.96282 0.51787 0.67397 0.0
C4801 C 0.92594 0.49712 0.67353 0.0
C4802 C 0.97599 0.5085 0.67795 0.0
C4803 C 0.98366 0.50106 0.66361 0.0
C4804 C 0.97826 0.50297 0.64515 0.0
C4805 C 0.96589 0.5134 0.6414 0.0
C4806 C 0.95823 0.52082 0.65575 0.0
H4807 H 0.91332 0.48899 0.67702 0.0
H4808 H 0.92285 0.50291 0.66067 0.0
H4809 H 0.93501 0.4882 0.67058 0.0
H4810 H 0.97964 0.50615 0.69202 0.0
H4811 H 0.99341 0.49338 0.66688 0.0
H4812 H 0.25667 0.21945 0.46735 0.0
H4813 H 0.25811 0.22852 0.4364 0.0
H4814 H 0.29132 0.19208 0.42409 0.0
H4815 H 0.28983 0.18281 0.45511 0.0
H4816 H 0.28758 0.24409 0.42049 0.0
H4817 H 0.25321 0.17954 0.37865 0.0
H4818 H 0.2525 0.18379 0.40327 0.0
H4819 H 0.27197 0.17862 0.39482 0.0
C4820 C 0.26431 0.21333 0.45812 0.0
C4821 C 0.27319 0.20041 0.46389 0.0
C4822 C 0.2651 0.21853 0.44033 0.0
C4823 C 0.27462 0.21087 0.42765 0.0
C4824 C 0.28358 0.198 0.43337 0.0
H4825 H 0.29118 0.2304 0.31296 0.0
H4826 H 0.29131 0.21882 0.34304 0.0
C4827 C 0.28286 0.19282 0.45125 0.0
C4828 C 0.27564 0.21694 0.40883 0.0
H4829 H 0.26524 0.20304 0.36214 0.0
C4830 C 0.28268 0.23508 0.40775 0.0
C4831 C 0.26939 0.20525 0.39208 0.0
C4832 C 0.2612 0.18574 0.39215 0.0
C4833 C 0.28372 0.2418 0.3906 0.0
C4834 C 0.27709 0.23021 0.37383 0.0
C4835 C 0.2703 0.212 0.37487 0.0
C4836 C 0.27668 0.23687 0.35522 0.0
C4837 C 0.29228 0.26127 0.39068 0.0
C4838 C 0.26807 0.25059 0.3517 0.0
C4839 C 0.2681 0.25729 0.33461 0.0
C4840 C 0.27654 0.25031 0.32037 0.0
C4841 C 0.28465 0.23616 0.32362 0.0
C4842 C 0.28471 0.22952 0.34084 0.0
H4843 H 0.30162 0.26674 0.40357 0.0
H4844 H 0.2997 0.26343 0.3786 0.0
H4845 H 0.28177 0.26894 0.39006 0.0
H4846 H 0.26125 0.25617 0.3622 0.0
H4847 H 0.26144 0.26797 0.33256 0.0
H4848 H 0.32067 0.61814 0.52878 0.0
H4849 H 0.35099 0.61336 0.53227 0.0
H4850 H 0.33753 0.57994 0.57477 0.0
H4851 H 0.30722 0.58421 0.57108 0.0
H4852 H 0.37797 0.6186 0.56504 0.0
H4853 H 0.35205 0.54817 0.5327 0.0
H4854 H 0.33915 0.56481 0.53118 0.0
H4855 H 0.34141 0.55474 0.55208 0.0
C4856 C 0.3242 0.6097 0.53877 0.0
C4857 C 0.31159 0.60117 0.54935 0.0
C4858 C 0.34149 0.60719 0.5409 0.0
C4859 C 0.34626 0.59628 0.55371 0.0
C4860 C 0.33388 0.58828 0.56471 0.0
H4861 H 0.43223 0.54369 0.55449 0.0
H4862 H 0.4123 0.55936 0.56969 0.0
C4863 C 0.31658 0.59057 0.56243 0.0
C4864 C 0.36362 0.59177 0.55435 0.0
H4865 H 0.38255 0.5571 0.54369 0.0
C4866 C 0.37909 0.60515 0.56056 0.0
C4867 C 0.36478 0.57423 0.54835 0.0
C4868 C 0.3485 0.55967 0.54054 0.0
C4869 C 0.39595 0.60135 0.56077 0.0
C4870 C 0.39709 0.58383 0.55462 0.0
C4871 C 0.38154 0.57044 0.54884 0.0
C4872 C 0.41391 0.57934 0.55095 0.0
C4873 C 0.41237 0.61607 0.56716 0.0
C4874 C 0.42198 0.58602 0.53605 0.0
C4875 C 0.43306 0.57696 0.52724 0.0
C4876 C 0.43621 0.56127 0.53337 0.0
C4877 C 0.42986 0.5558 0.5496 0.0
C4878 C 0.41865 0.56479 0.55834 0.0
H4879 H 0.40941 0.62688 0.57666 0.0
H4880 H 0.42315 0.6109 0.57431 0.0
H4881 H 0.4173 0.62193 0.55493 0.0
H4882 H 0.41821 0.59704 0.52998 0.0
H4883 H 0.43808 0.58142 0.51483 0.0
H4884 H 0.85869 0.89625 0.53899 0.0
H4885 H 0.88849 0.91461 0.53825 0.0
H4886 H 0.8708 0.96168 0.55673 0.0
H4887 H 0.84097 0.94339 0.55779 0.0
H4888 H 0.89928 0.94195 0.51793 0.0
H4889 H 0.91556 0.96609 0.59314 0.0
H4890 H 0.89703 0.9477 0.58384 0.0
H4891 H 0.89505 0.97028 0.58293 0.0
C4892 C 0.86111 0.9105 0.54298 0.0
C4893 C 0.84739 0.91831 0.54855 0.0
C4894 C 0.87818 0.92098 0.54253 0.0
C4895 C 0.88199 0.9395 0.5477 0.0
C4896 C 0.8683 0.94738 0.55306 0.0
H4897 H 0.97128 0.02063 0.52542 0.0
H4898 H 0.94185 1.00197 0.52763 0.0
C4899 C 0.8512 0.9369 0.55355 0.0
C4900 C 0.90015 0.95056 0.54704 0.0
H4901 H 0.93539 0.98011 0.57345 0.0
C4902 C 0.90716 0.95029 0.53007 0.0
C4903 C 0.9106 0.96119 0.56297 0.0
C4904 C 0.90428 0.96125 0.5818 0.0
C4905 C 0.92411 0.9607 0.52852 0.0
C4906 C 0.93423 0.97181 0.54428 0.0
C4907 C 0.92745 0.97178 0.56133 0.0
C4908 C 0.95201 0.98337 0.54333 0.0
C4909 C 0.93129 0.95959 0.51015 0.0
C4910 C 0.96742 0.97926 0.55173 0.0
C4911 C 0.98424 0.98996 0.55065 0.0
C4912 C 0.986 1.00507 0.54119 0.0
C4913 C 0.97046 0.00925 0.53298 0.0
C4914 C 0.95363 0.99851 0.53408 0.0
H4915 H 0.92277 0.94871 0.49988 0.0
H4916 H 0.93206 0.9724 0.50441 0.0
H4917 H 0.945 0.95736 0.51206 0.0
H4918 H 0.96645 0.96761 0.55891 0.0
H4919 H 0.99588 0.98623 0.55706 0.0
H4920 H 0.87224 0.04916 0.2372 0.0
H4921 H 0.86085 0.07612 0.23796 0.0
H4922 H 0.89066 0.09545 0.29205 0.0
H4923 H 0.90248 0.06858 0.29124 0.0
H4924 H 0.84068 0.08724 0.26319 0.0
H4925 H 0.90315 0.13872 0.26447 0.0
H4926 H 0.90168 0.11524 0.25821 0.0
H4927 H 0.90396 0.12442 0.28217 0.0
C4928 C 0.87644 0.05915 0.24926 0.0
C4929 C 0.88824 0.05672 0.2642 0.0
C4930 C 0.86997 0.07459 0.24962 0.0
C4931 C 0.87515 0.08792 0.2649 0.0
C4932 C 0.88686 0.08553 0.2799 0.0
H4933 H 0.84332 0.17828 0.31086 0.0
H4934 H 0.85989 0.1568 0.29983 0.0
C4935 C 0.89345 0.0701 0.27951 0.0
C4936 C 0.86725 0.10367 0.26563 0.0
H4937 H 0.87747 0.14917 0.27133 0.0
C4938 C 0.84867 0.1008 0.26472 0.0
C4939 C 0.87776 0.1213 0.26761 0.0
C4940 C 0.89774 0.12516 0.26801 0.0
C4941 C 0.84032 0.11507 0.26663 0.0
C4942 C 0.85085 0.13276 0.26899 0.0
C4943 C 0.86941 0.13562 0.26934 0.0
C4944 C 0.84306 0.14827 0.2735 0.0
C4945 C 0.82042 0.11099 0.26712 0.0
C4946 C 0.82879 0.15146 0.26187 0.0
C4947 C 0.8192 0.16371 0.26825 0.0
C4948 C 0.82393 0.17297 0.28624 0.0
C4949 C 0.83933 0.17111 0.29701 0.0
C4950 C 0.8488 0.15886 0.2907 0.0
H4951 H 0.81506 0.09693 0.26924 0.0
H4952 H 0.81693 0.11983 0.27838 0.0
H4953 H 0.81367 0.11319 0.25373 0.0
H4954 H 0.82443 0.14375 0.24832 0.0
H4955 H 0.80738 0.16497 0.2597 0.0
H4956 H 0.71012 0.10672 0.01022 0.0
H4957 H 0.67793 0.09432 0.00899 0.0
H4958 H 0.68388 0.09846 0.06879 0.0
H4959 H 0.71578 0.11153 0.07 0.0
H4960 H 0.66436 0.06293 0.02365 0.0
H4961 H 0.64166 0.12038 0.05698 0.0
H4962 H 0.66304 0.12299 0.04849 0.0
H4963 H 0.65981 0.11441 0.07011 0.0
C4964 C 0.70434 0.10511 0.02298 0.0
C4965 C 0.71491 0.10991 0.04016 0.0
C4966 C 0.68616 0.09817 0.02231 0.0
C4967 C 0.67875 0.09587 0.03882 0.0
C4968 C 0.68943 0.10068 0.056 0.0
H4969 H 0.57942 0.0505 0.07139 0.0
H4970 H 0.60957 0.06605 0.06839 0.0
C4971 C 0.7075 0.10792 0.05667 0.0
C4972 C 0.66009 0.08701 0.03801 0.0
H4973 H 0.62091 0.09242 0.0516 0.0
C4974 C 0.65471 0.06932 0.02956 0.0
C4975 C 0.64795 0.09552 0.04615 0.0
C4976 C 0.65336 0.11443 0.05584 0.0
C4977 C 0.63733 0.05955 0.02945 0.0
C4978 C 0.62503 0.06816 0.03728 0.0
C4979 C 0.63042 0.086 0.04543 0.0
C4980 C 0.60684 0.05866 0.03862 0.0
C4981 C 0.63271 0.04002 0.02177 0.0
C4982 C 0.59549 0.04923 0.02289 0.0
C4983 C 0.57857 0.03957 0.02482 0.0
C4984 C 0.57257 0.04044 0.04215 0.0
C4985 C 0.58375 0.05019 0.05776 0.0
C4986 C 0.60088 0.05906 0.05605 0.0
H4987 H 0.6448 0.03455 0.02156 0.0
H4988 H 0.6235 0.032 0.03001 0.0
H4989 H 0.62617 0.03835 0.00727 0.0
H4990 H 0.59986 0.04893 0.0093 0.0
H4991 H 0.57066 0.03074 0.01312 0.0
H4992 H 0.21426 0.49438 0.23663 0.0
H4993 H 0.21738 0.46367 0.23302 0.0
H4994 H 0.20012 0.45702 0.28664 0.0
H4995 H 0.19632 0.4877 0.29006 0.0
H4996 H 0.24064 0.45285 0.25636 0.0
H4997 H 0.17293 0.41065 0.25545 0.0
H4998 H 0.17684 0.43361 0.25101 0.0
H4999 H 0.17881 0.42835 0.27442 0.0
C5000 C 0.21108 0.48634 0.24763 0.0
C5001 C 0.20534 0.49334 0.26377 0.0
C5002 C 0.21263 0.46879 0.24541 0.0
C5003 C 0.20864 0.45809 0.25938 0.0
C5004 C 0.20271 0.46498 0.27546 0.0
H5005 H 0.23513 0.38012 0.31284 0.0
H5006 H 0.21954 0.39899 0.29622 0.0
C5007 C 0.20085 0.48251 0.27755 0.0
C5008 C 0.21326 0.44072 0.25839 0.0
H5009 H 0.19759 0.39751 0.26462 0.0
C5010 C 0.2312 0.44058 0.25767 0.0
C5011 C 0.20079 0.4249 0.25999 0.0
C5012 C 0.18123 0.42433 0.26008 0.0
C5013 C 0.23742 0.42534 0.26032 0.0
C5014 C 0.22514 0.40973 0.26321 0.0
C5015 C 0.20691 0.4095 0.26233 0.0
C5016 C 0.23143 0.39515 0.27102 0.0
C5017 C 0.25727 0.42669 0.26167 0.0
C5018 C 0.24259 0.38611 0.26199 0.0
C5019 C 0.25192 0.3757 0.27169 0.0
C5020 C 0.24988 0.37404 0.29037 0.0
C5021 C 0.23734 0.38167 0.29866 0.0
C5022 C 0.22823 0.39221 0.28908 0.0
H5023 H 0.265 0.44062 0.26202 0.0
H5024 H 0.26207 0.42149 0.27435 0.0
H5025 H 0.26019 0.41864 0.24944 0.0
H5026 H 0.2449 0.38796 0.2479 0.0
H5027 H 0.26142 0.36981 0.26492 0.0
H5028 H 0.24149 0.41378 0.02391 0.0
H5029 H 0.2143 0.42514 0.02292 0.0
H5030 H 0.22368 0.43889 0.08234 0.0
H5031 H 0.25117 0.42834 0.08332 0.0
H5032 H 0.18365 0.41618 0.03865 0.0
H5033 H 0.2192 0.48573 0.06651 0.0
H5034 H 0.23087 0.46902 0.05929 0.0
H5035 H 0.22271 0.46957 0.08145 0.0
C5036 C 0.23779 0.41934 0.03673 0.0
C5037 C 0.24863 0.42048 0.05364 0.0
C5038 C 0.22222 0.42574 0.03617 0.0
C5039 C 0.21713 0.43322 0.05252 0.0
C5040 C 0.2276 0.4337 0.06949 0.0
H5041 H 0.13459 0.4933 0.06443 0.0
H5042 H 0.15495 0.47413 0.07207 0.0
C5043 C 0.2433 0.42762 0.07002 0.0
C5044 C 0.20115 0.4409 0.05174 0.0
H5045 H 0.18795 0.47975 0.06111 0.0
C5046 C 0.18458 0.43007 0.04361 0.0
C5047 C 0.20229 0.45899 0.05842 0.0
C5048 C 0.21974 0.47156 0.06676 0.0
C5049 C 0.16922 0.43691 0.04167 0.0
C5050 C 0.17055 0.45513 0.04776 0.0
C5051 C 0.18694 0.46577 0.05651 0.0
C5052 C 0.15578 0.46405 0.04353 0.0
C5053 C 0.15175 0.42459 0.03308 0.0
C5054 C 0.14926 0.4645 0.025 0.0
C5055 C 0.1378 0.47551 0.02064 0.0
C5056 C 0.13265 0.48628 0.03473 0.0
C5057 C 0.13835 0.4851 0.05333 0.0
C5058 C 0.14997 0.47417 0.05769 0.0
H5059 H 0.15146 0.41057 0.0353 0.0
H5060 H 0.14029 0.42856 0.03886 0.0
H5061 H 0.15009 0.42508 0.01791 0.0
H5062 H 0.15378 0.45708 0.01382 0.0
H5063 H 0.13342 0.47605 0.0062 0.0
H5064 H 0.90863 0.94652 0.26028 0.0
H5065 H 0.88969 0.91681 0.26029 0.0
H5066 H 0.8485 0.94053 0.27996 0.0
H5067 H 0.867 0.97024 0.27884 0.0
H5068 H 0.87728 0.9003 0.28648 0.0
H5069 H 0.81914 0.90611 0.23898 0.0
H5070 H 0.83993 0.92263 0.24233 0.0
H5071 H 0.82395 0.92314 0.25851 0.0
C5072 C 0.89546 0.94536 0.26445 0.0
C5073 C 0.88921 0.96066 0.26941 0.0
C5074 C 0.88464 0.92838 0.26446 0.0
C5075 C 0.86746 0.92634 0.26973 0.0
C5076 C 0.8614 0.94167 0.27516 0.0
H5077 H 0.78881 0.8357 0.29333 0.0
H5078 H 0.80668 0.86546 0.29085 0.0
C5079 C 0.87205 0.95866 0.27469 0.0
C5080 C 0.85622 0.90821 0.2702 0.0
H5081 H 0.81459 0.88146 0.25644 0.0
C5082 C 0.86362 0.89617 0.27978 0.0
C5083 C 0.83839 0.90269 0.26134 0.0
C5084 C 0.82997 0.91427 0.24955 0.0
C5085 C 0.85362 0.87901 0.28107 0.0
C5086 C 0.8357 0.87377 0.27269 0.0
C5087 C 0.82828 0.88567 0.26304 0.0
C5088 C 0.8245 0.85585 0.27357 0.0
C5089 C 0.86221 0.86665 0.29157 0.0
C5090 C 0.82838 0.84071 0.2643 0.0
C5091 C 0.81808 0.82377 0.26545 0.0
C5092 C 0.8037 0.82162 0.27596 0.0
C5093 C 0.79963 0.83688 0.28494 0.0
C5094 C 0.80989 0.85387 0.28365 0.0
H5095 H 0.87478 0.87387 0.30037 0.0
H5096 H 0.85298 0.85962 0.30048 0.0
H5097 H 0.86541 0.85643 0.28153 0.0
H5098 H 0.83944 0.842 0.25622 0.0
H5099 H 0.82156 0.81232 0.25828 0.0
H5100 H 0.68219 0.09607 0.74976 0.0
H5101 H 0.69368 0.12809 0.75042 0.0
H5102 H 0.73221 0.12819 0.79755 0.0
H5103 H 0.72122 0.09593 0.79646 0.0
H5104 H 0.69443 0.15407 0.7789 0.0
H5105 H 0.76233 0.15328 0.76164 0.0
H5106 H 0.74445 0.13348 0.75835 0.0
H5107 H 0.75681 0.14159 0.78094 0.0
C5108 C 0.69311 0.10299 0.76024 0.0
C5109 C 0.7009 0.09386 0.77314 0.0
C5110 C 0.69964 0.12113 0.76055 0.0
C5111 C 0.7138 0.1302 0.7739 0.0
C5112 C 0.72148 0.12114 0.78693 0.0
H5113 H 0.7759 0.23495 0.80072 0.0
H5114 H 0.75675 0.20634 0.80445 0.0
C5115 C 0.71519 0.10289 0.78638 0.0
C5116 C 0.7202 0.14934 0.77458 0.0
H5117 H 0.75743 0.18138 0.77317 0.0
C5118 C 0.70818 0.16014 0.77763 0.0
C5119 C 0.73805 0.15689 0.77256 0.0
C5120 C 0.7511 0.1457 0.76799 0.0
C5121 C 0.71382 0.17865 0.77937 0.0
C5122 C 0.73181 0.18616 0.7781 0.0
C5123 C 0.7437 0.17533 0.77459 0.0
C5124 C 0.73879 0.20526 0.77942 0.0
C5125 C 0.70068 0.19002 0.78267 0.0
C5126 C 0.73434 0.21414 0.76455 0.0
C5127 C 0.74508 0.23053 0.76261 0.0
C5128 C 0.76013 0.23789 0.77557 0.0
C5129 C 0.76391 0.22956 0.79103 0.0
C5130 C 0.75306 0.21334 0.79312 0.0
H5131 H 0.68832 0.18234 0.78712 0.0
H5132 H 0.70673 0.20163 0.79334 0.0
H5133 H 0.69697 0.19521 0.7696 0.0
H5134 H 0.72361 0.20774 0.75365 0.0
H5135 H 0.74235 0.23685 0.75043 0.0
loop_
_geom_bond_atom_site_label_1
_geom_bond_atom_site_label_2
_geom_bond_distance
_geom_bond_site_symmetry_2
_ccdc_geom_bond_type
O0 Cd1 2.223 . S
O0 C8 1.315 . S
Cd1 O0 2.223 . S
Cd1 O4 2.297 . S
Cd1 O5 2.439 . S
Cd1 O11 2.240 . S
Cd2 O3 2.240 . S
Cd2 O10 2.240 . S
Cd2 O12 2.297 . S
Cd2 O13 2.439 . S
O3 Cd2 2.240 . S
O3 C8 1.279 . S
O4 Cd1 2.297 . S
O4 C6 1.247 . S
O5 Cd1 2.439 . S
O5 C6 1.208 . S
C6 O4 1.247 . S
C6 O5 1.208 . S
C7 O12 1.247 . S
C7 O13 1.208 . S
C8 O0 1.315 . S
C8 O3 1.279 . S
C9 O10 1.319 . S
C9 O11 1.279 . S
O10 Cd2 2.240 . S
O10 C9 1.319 . S
O11 Cd1 2.240 . S
O11 C9 1.279 . S
O12 Cd2 2.297 . S
O12 C7 1.247 . S
O13 Cd2 2.439 . S
O13 C7 1.208 . S
O14 Cd15 2.223 . S
O14 C22 1.315 . S
Cd15 O14 2.223 . S
Cd15 O18 2.297 1_455 S
Cd15 O19 2.439 1_455 S
Cd15 O25 2.240 . S
Cd16 O17 2.231 1_455 S
Cd16 O24 2.223 . S
Cd16 O26 2.297 . S
Cd16 O27 2.439 . S
O17 Cd16 2.231 1_655 S
O17 C22 1.270 1_655 S
O18 Cd15 2.297 1_655 S
O18 C20 1.247 . S
O19 Cd15 2.439 1_655 S
O19 C20 1.208 . S
C20 O18 1.247 . S
C20 O19 1.208 . S
C21 O26 1.247 . S
C21 O27 1.208 . S
C22 O14 1.315 . S
C22 O17 1.270 1_455 S
C23 O24 1.315 . S
C23 O25 1.279 . S
O24 Cd16 2.223 . S
O24 C23 1.315 . S
O25 Cd15 2.240 . S
O25 C23 1.279 . S
O26 Cd16 2.297 . S
O26 C21 1.247 . S
O27 Cd16 2.439 . S
O27 C21 1.208 . S
O28 Cd29 2.223 . S
O28 C36 1.315 . S
Cd29 O28 2.223 . S
Cd29 O32 2.297 . S
Cd29 O33 2.439 . S
Cd29 O39 2.240 . S
Cd30 O31 2.240 . S
Cd30 O38 2.223 . S
Cd30 O40 2.297 . S
Cd30 O41 2.439 . S
O31 Cd30 2.240 . S
O31 C36 1.279 . S
O32 Cd29 2.297 . S
O32 C34 1.247 . S
O33 Cd29 2.439 . S
O33 C34 1.208 . S
C34 O32 1.247 . S
C34 O33 1.208 . S
C35 O40 1.247 . S
C35 O41 1.208 . S
C36 O28 1.315 . S
C36 O31 1.279 . S
C37 O38 1.315 . S
C37 O39 1.279 . S
O38 Cd30 2.223 . S
O38 C37 1.315 . S
O39 Cd29 2.240 . S
O39 C37 1.279 . S
O40 Cd30 2.297 . S
O40 C35 1.247 . S
O41 Cd30 2.439 . S
O41 C35 1.208 . S
O42 Cd43 2.223 . S
O42 C50 1.315 . S
Cd43 O42 2.223 . S
Cd43 O46 2.297 . S
Cd43 O47 2.439 . S
Cd43 O53 2.240 . S
Cd44 O45 2.240 . S
Cd44 O52 2.223 . S
Cd44 O54 2.297 . S
Cd44 O55 2.439 . S
O45 Cd44 2.240 . S
O45 C50 1.279 . S
O46 Cd43 2.297 . S
O46 C48 1.247 . S
O47 Cd43 2.439 . S
O47 C48 1.208 . S
C48 O46 1.247 . S
C48 O47 1.208 . S
C49 O54 1.247 . S
C49 O55 1.208 . S
C50 O42 1.315 . S
C50 O45 1.279 . S
C51 O52 1.315 . S
C51 O53 1.279 . S
O52 Cd44 2.223 . S
O52 C51 1.315 . S
O53 Cd43 2.240 . S
O53 C51 1.279 . S
O54 Cd44 2.297 . S
O54 C49 1.247 . S
O55 Cd44 2.439 . S
O55 C49 1.208 . S
O56 Cd57 2.223 . S
O56 C64 1.315 . S
Cd57 O56 2.223 . S
Cd57 O60 2.297 . S
Cd57 O61 2.439 . S
Cd57 O67 2.240 . S
Cd58 O59 2.240 . S
Cd58 O66 2.223 . S
Cd58 O68 2.297 . S
Cd58 O69 2.439 . S
O59 Cd58 2.240 . S
O59 C64 1.279 . S
O60 Cd57 2.297 . S
O60 C62 1.247 . S
O61 Cd57 2.439 . S
O61 C62 1.208 . S
C62 O60 1.247 . S
C62 O61 1.208 . S
C63 O68 1.247 . S
C63 O69 1.208 . S
C64 O56 1.315 . S
C64 O59 1.279 . S
C65 O66 1.315 . S
C65 O67 1.279 . S
O66 Cd58 2.223 . S
O66 C65 1.315 . S
O67 Cd57 2.240 . S
O67 C65 1.279 . S
O68 Cd58 2.297 . S
O68 C63 1.247 . S
O69 Cd58 2.439 . S
O69 C63 1.208 . S
O70 Cd71 2.223 . S
O70 C78 1.315 . S
Cd71 O70 2.223 . S
Cd71 O74 2.297 . S
Cd71 O75 2.439 . S
Cd71 O81 2.240 . S
Cd72 O73 2.240 . S
Cd72 O80 2.223 . S
Cd72 O82 2.297 . S
Cd72 O83 2.439 . S
O73 Cd72 2.240 . S
O73 C78 1.279 . S
O74 Cd71 2.297 . S
O74 C76 1.247 . S
O75 Cd71 2.439 . S
O75 C76 1.208 . S
C76 O74 1.247 . S
C76 O75 1.208 . S
C77 O82 1.247 . S
C77 O83 1.208 . S
C78 O70 1.315 . S
C78 O73 1.279 . S
C79 O80 1.315 . S
C79 O81 1.279 . S
O80 Cd72 2.223 . S
O80 C79 1.315 . S
O81 Cd71 2.240 . S
O81 C79 1.279 . S
O82 Cd72 2.297 . S
O82 C77 1.247 . S
O83 Cd72 2.439 . S
O83 C77 1.208 . S
O84 Cd85 2.223 . S
O84 C92 1.315 . S
Cd85 O84 2.223 . S
Cd85 O88 2.297 . S
Cd85 O89 2.439 . S
Cd85 O95 2.240 . S
Cd86 O87 2.240 . S
Cd86 O94 2.223 . S
Cd86 O96 2.297 . S
Cd86 O97 2.439 . S
O87 Cd86 2.240 . S
O87 C92 1.279 . S
O88 Cd85 2.297 . S
O88 C90 1.247 . S
O89 Cd85 2.439 . S
O89 C90 1.208 . S
C90 O88 1.247 . S
C90 O89 1.208 . S
C91 O96 1.247 . S
C91 O97 1.208 . S
C92 O84 1.315 . S
C92 O87 1.279 . S
C93 O94 1.315 . S
C93 O95 1.279 . S
O94 Cd86 2.223 . S
O94 C93 1.315 . S
O95 Cd85 2.240 . S
O95 C93 1.279 . S
O96 Cd86 2.297 . S
O96 C91 1.247 . S
O97 Cd86 2.439 . S
O97 C91 1.208 . S
O98 Cd99 2.223 1_655 S
O98 C106 1.315 . S
Cd99 O98 2.223 1_455 S
Cd99 O102 2.297 . S
Cd99 O103 2.439 . S
Cd99 O109 2.240 1_455 S
Cd100 O101 2.240 1_655 S
Cd100 O108 2.223 . S
Cd100 O110 2.297 . S
Cd100 O111 2.439 1_655 S
O101 Cd100 2.240 1_455 S
O101 C106 1.279 1_455 S
O102 Cd99 2.297 . S
O102 C104 1.247 . S
O103 Cd99 2.439 . S
O103 C104 1.208 . S
C104 O102 1.247 . S
C104 O103 1.208 . S
C105 O110 1.272 . S
C105 O111 1.184 1_655 S
C106 O98 1.315 . S
C106 O101 1.279 1_655 S
C107 O108 1.315 . S
C107 O109 1.279 . S
O108 Cd100 2.223 . S
O108 C107 1.315 . S
O109 Cd99 2.240 1_655 S
O109 C107 1.279 . S
O110 Cd100 2.297 . S
O110 C105 1.272 . S
O111 Cd100 2.439 1_455 S
O111 C105 1.184 1_455 S
O112 Cd113 2.223 . S
O112 C120 1.315 . S
Cd113 O112 2.223 . S
Cd113 O116 2.297 . S
Cd113 O117 2.439 . S
Cd113 O123 2.240 1_545 S
Cd114 O115 2.240 . S
Cd114 O122 2.223 1_545 S
Cd114 O124 2.297 1_545 S
Cd114 O125 2.439 . S
O115 Cd114 2.240 . S
O115 C120 1.279 . S
O116 Cd113 2.297 . S
O116 C118 1.247 . S
O117 Cd113 2.439 . S
O117 C118 1.208 . S
C118 O116 1.247 . S
C118 O117 1.208 . S
C119 O124 1.247 1_545 S
C119 O125 1.208 . S
C120 O112 1.315 . S
C120 O115 1.279 . S
C121 O122 1.315 . S
C121 O123 1.279 . S
O122 Cd114 2.223 1_565 S
O122 C121 1.315 . S
O123 Cd113 2.240 1_565 S
O123 C121 1.279 . S
O124 Cd114 2.297 1_565 S
O124 C119 1.247 1_565 S
O125 Cd114 2.439 . S
O125 C119 1.208 . S
O126 Cd127 2.223 . S
O126 C134 1.315 . S
Cd127 O126 2.223 . S
Cd127 O130 2.297 . S
Cd127 O131 2.439 . S
Cd127 O137 2.240 . S
Cd128 O129 2.240 . S
Cd128 O136 2.223 . S
Cd128 O138 2.297 . S
Cd128 O139 2.439 . S
O129 Cd128 2.240 . S
O129 C134 1.279 . S
O130 Cd127 2.297 . S
O130 C132 1.247 . S
O131 Cd127 2.439 . S
O131 C132 1.208 . S
C132 O130 1.247 . S
C132 O131 1.208 . S
C133 O138 1.247 . S
C133 O139 1.208 . S
C134 O126 1.315 . S
C134 O129 1.279 . S
C135 O136 1.315 . S
C135 O137 1.279 . S
O136 Cd128 2.223 . S
O136 C135 1.315 . S
O137 Cd127 2.240 . S
O137 C135 1.279 . S
O138 Cd128 2.297 . S
O138 C133 1.247 . S
O139 Cd128 2.439 . S
O139 C133 1.208 . S
O140 Cd141 2.223 . S
O140 C148 1.315 . S
Cd141 O140 2.223 . S
Cd141 O144 2.297 1_545 S
Cd141 O145 2.439 1_545 S
Cd141 O151 2.240 . S
Cd142 O143 2.240 . S
Cd142 O150 2.223 . S
Cd142 O152 2.297 . S
Cd142 O153 2.439 . S
O143 Cd142 2.240 . S
O143 C148 1.279 . S
O144 Cd141 2.297 1_565 S
O144 C146 1.247 . S
O145 Cd141 2.439 1_565 S
O145 C146 1.208 . S
C146 O144 1.247 . S
C146 O145 1.208 . S
C147 O152 1.247 . S
C147 O153 1.208 . S
C148 O140 1.315 . S
C148 O143 1.279 . S
C149 O150 1.315 . S
C149 O151 1.279 . S
O150 Cd142 2.223 . S
O150 C149 1.315 . S
O151 Cd141 2.240 . S
O151 C149 1.279 . S
O152 Cd142 2.297 . S
O152 C147 1.247 . S
O153 Cd142 2.439 . S
O153 C147 1.208 . S
O154 Cd155 2.223 . S
O154 C162 1.315 . S
Cd155 O154 2.223 . S
Cd155 O158 2.297 . S
Cd155 O159 2.439 1_554 S
Cd155 O165 2.240 1_554 S
Cd156 O157 2.240 1_556 S
Cd156 O164 2.223 1_556 S
Cd156 O166 2.297 . S
Cd156 O167 2.439 . S
O157 Cd156 2.240 1_554 S
O157 C162 1.279 . S
O158 Cd155 2.297 . S
O158 C160 1.247 . S
O159 Cd155 2.439 1_556 S
O159 C160 1.208 1_556 S
C160 O158 1.247 . S
C160 O159 1.208 1_554 S
C161 O166 1.247 . S
C161 O167 1.208 . S
C162 O154 1.315 . S
C162 O157 1.279 . S
C163 O164 1.315 . S
C163 O165 1.279 1_554 S
O164 Cd156 2.223 1_554 S
O164 C163 1.315 . S
O165 Cd155 2.240 1_556 S
O165 C163 1.279 1_556 S
O166 Cd156 2.297 . S
O166 C161 1.247 . S
O167 Cd156 2.439 . S
O167 C161 1.208 . S
O168 Cd169 2.223 . S
O168 C176 1.315 . S
Cd169 O168 2.223 . S
Cd169 O172 2.297 . S
Cd169 O173 2.439 . S
Cd169 O179 2.240 . S
Cd170 O171 2.240 . S
Cd170 O178 2.223 . S
Cd170 O180 2.297 . S
Cd170 O181 2.439 . S
O171 Cd170 2.240 . S
O171 C176 1.279 . S
O172 Cd169 2.297 . S
O172 C174 1.247 . S
O173 Cd169 2.439 . S
O173 C174 1.208 . S
C174 O172 1.247 . S
C174 O173 1.208 . S
C175 O180 1.267 . S
C175 O181 1.236 . S
C176 O168 1.315 . S
C176 O171 1.279 . S
C177 O178 1.315 . S
C177 O179 1.279 . S
O178 Cd170 2.223 . S
O178 C177 1.315 . S
O179 Cd169 2.240 . S
O179 C177 1.279 . S
O180 Cd170 2.297 . S
O180 C175 1.267 . S
O181 Cd170 2.439 . S
O181 C175 1.236 . S
O182 Cd183 2.223 . S
O182 C190 1.315 . S
Cd183 O182 2.223 . S
Cd183 O186 2.297 . S
Cd183 O187 2.439 . S
Cd183 O193 2.240 . S
Cd184 O185 2.240 . S
Cd184 O192 2.223 . S
Cd184 O194 2.297 . S
Cd184 O195 2.439 . S
O185 Cd184 2.240 . S
O185 C190 1.279 . S
O186 Cd183 2.297 . S
O186 C188 1.247 . S
O187 Cd183 2.439 . S
O187 C188 1.208 . S
C188 O186 1.247 . S
C188 O187 1.208 . S
C189 O194 1.247 . S
C189 O195 1.208 . S
C190 O182 1.315 . S
C190 O185 1.279 . S
C191 O192 1.315 . S
C191 O193 1.279 . S
O192 Cd184 2.223 . S
O192 C191 1.315 . S
O193 Cd183 2.240 . S
O193 C191 1.279 . S
O194 Cd184 2.297 . S
O194 C189 1.247 . S
O195 Cd184 2.439 . S
O195 C189 1.208 . S
O196 Cd197 2.223 . S
O196 C204 1.315 . S
Cd197 O196 2.223 . S
Cd197 O200 2.297 . S
Cd197 O201 2.439 . S
Cd197 O207 2.240 . S
Cd198 O199 2.240 . S
Cd198 O206 2.223 . S
Cd198 O208 2.297 . S
Cd198 O209 2.439 . S
O199 Cd198 2.240 . S
O199 C204 1.279 . S
O200 Cd197 2.297 . S
O200 C202 1.247 . S
O201 Cd197 2.439 . S
O201 C202 1.208 . S
C202 O200 1.247 . S
C202 O201 1.208 . S
C203 O208 1.247 . S
C203 O209 1.208 . S
C204 O196 1.315 . S
C204 O199 1.279 . S
C205 O206 1.315 . S
C205 O207 1.279 . S
O206 Cd198 2.223 . S
O206 C205 1.315 . S
O207 Cd197 2.240 . S
O207 C205 1.279 . S
O208 Cd198 2.297 . S
O208 C203 1.247 . S
O209 Cd198 2.439 . S
O209 C203 1.208 . S
O210 Cd211 2.223 . S
O210 C218 1.315 . S
Cd211 O210 2.223 . S
Cd211 O214 2.297 . S
Cd211 O215 2.439 . S
Cd211 O221 2.240 . S
Cd212 O213 2.240 . S
Cd212 O220 2.223 . S
Cd212 O222 2.297 . S
Cd212 O223 2.439 . S
O213 Cd212 2.240 . S
O213 C218 1.279 . S
O214 Cd211 2.297 . S
O214 C216 1.247 . S
O215 Cd211 2.439 . S
O215 C216 1.208 . S
C216 O214 1.247 . S
C216 O215 1.208 . S
C217 O222 1.247 . S
C217 O223 1.208 . S
C218 O210 1.315 . S
C218 O213 1.279 . S
C219 O220 1.315 . S
C219 O221 1.279 . S
O220 Cd212 2.223 . S
O220 C219 1.315 . S
O221 Cd211 2.240 . S
O221 C219 1.279 . S
O222 Cd212 2.297 . S
O222 C217 1.247 . S
O223 Cd212 2.439 . S
O223 C217 1.208 . S
O224 Cd225 2.223 . S
O224 C232 1.315 . S
Cd225 O224 2.223 . S
Cd225 O228 2.297 . S
Cd225 O229 2.439 . S
Cd225 O235 2.240 1_545 S
Cd226 O227 2.240 . S
Cd226 O234 2.223 1_545 S
Cd226 O236 2.297 1_545 S
Cd226 O237 2.439 . S
O227 Cd226 2.240 . S
O227 C232 1.279 . S
O228 Cd225 2.297 . S
O228 C230 1.247 . S
O229 Cd225 2.439 . S
O229 C230 1.208 . S
C230 O228 1.247 . S
C230 O229 1.208 . S
C231 O236 1.247 1_545 S
C231 O237 1.208 . S
C232 O224 1.315 . S
C232 O227 1.279 . S
C233 O234 1.315 . S
C233 O235 1.279 . S
O234 Cd226 2.223 1_565 S
O234 C233 1.315 . S
O235 Cd225 2.240 1_565 S
O235 C233 1.279 . S
O236 Cd226 2.297 1_565 S
O236 C231 1.247 1_565 S
O237 Cd226 2.439 . S
O237 C231 1.208 . S
O238 Cd239 2.223 . S
O238 C246 1.315 . S
Cd239 O238 2.223 . S
Cd239 O242 2.297 . S
Cd239 O243 2.439 . S
Cd239 O249 2.240 . S
Cd240 O241 2.240 . S
Cd240 O248 2.223 . S
Cd240 O250 2.297 . S
Cd240 O251 2.439 . S
O241 Cd240 2.240 . S
O241 C246 1.279 . S
O242 Cd239 2.297 . S
O242 C244 1.247 . S
O243 Cd239 2.439 . S
O243 C244 1.208 . S
C244 O242 1.247 . S
C244 O243 1.208 . S
C245 O250 1.247 . S
C245 O251 1.208 . S
C246 O238 1.315 . S
C246 O241 1.279 . S
C247 O248 1.315 . S
C247 O249 1.279 . S
O248 Cd240 2.223 . S
O248 C247 1.315 . S
O249 Cd239 2.240 . S
O249 C247 1.279 . S
O250 Cd240 2.297 . S
O250 C245 1.247 . S
O251 Cd240 2.439 . S
O251 C245 1.208 . S
O252 Cd253 2.223 . S
O252 C260 1.315 . S
Cd253 O252 2.223 . S
Cd253 O256 2.297 . S
Cd253 O257 2.439 . S
Cd253 O263 2.240 . S
Cd254 O255 2.240 . S
Cd254 O262 2.223 . S
Cd254 O264 2.297 . S
Cd254 O265 2.439 . S
O255 Cd254 2.240 . S
O255 C260 1.279 . S
O256 Cd253 2.297 . S
O256 C258 1.247 . S
O257 Cd253 2.439 . S
O257 C258 1.208 . S
C258 O256 1.247 . S
C258 O257 1.208 . S
C259 O264 1.247 . S
C259 O265 1.208 . S
C260 O252 1.315 . S
C260 O255 1.279 . S
C261 O262 1.315 . S
C261 O263 1.279 . S
O262 Cd254 2.223 . S
O262 C261 1.315 . S
O263 Cd253 2.240 . S
O263 C261 1.279 . S
O264 Cd254 2.297 . S
O264 C259 1.247 . S
O265 Cd254 2.439 . S
O265 C259 1.208 . S
O266 Cd267 2.223 . S
O266 C274 1.315 . S
Cd267 O266 2.223 . S
Cd267 O270 2.297 . S
Cd267 O271 2.439 . S
Cd267 O277 2.240 . S
Cd268 O269 2.240 . S
Cd268 O276 2.223 . S
Cd268 O278 2.297 . S
Cd268 O279 2.439 . S
O269 Cd268 2.240 . S
O269 C274 1.279 . S
O270 Cd267 2.297 . S
O270 C272 1.265 . S
O271 Cd267 2.439 . S
O271 C272 1.230 . S
C272 O270 1.265 . S
C272 O271 1.230 . S
C273 O278 1.247 . S
C273 O279 1.208 . S
C274 O266 1.315 . S
C274 O269 1.279 . S
C275 O276 1.315 . S
C275 O277 1.279 . S
O276 Cd268 2.223 . S
O276 C275 1.315 . S
O277 Cd267 2.240 . S
O277 C275 1.279 . S
O278 Cd268 2.297 . S
O278 C273 1.247 . S
O279 Cd268 2.439 . S
O279 C273 1.208 . S
O280 Cd281 2.223 . S
O280 C288 1.315 . S
Cd281 O280 2.223 . S
Cd281 O284 2.297 . S
Cd281 O285 2.439 . S
Cd281 O291 2.240 . S
Cd282 O283 2.240 . S
Cd282 O290 2.223 . S
Cd282 O292 2.297 1_554 S
Cd282 O293 2.439 1_554 S
O283 Cd282 2.240 . S
O283 C288 1.279 . S
O284 Cd281 2.297 . S
O284 C286 1.247 . S
O285 Cd281 2.439 . S
O285 C286 1.208 . S
C286 O284 1.247 . S
C286 O285 1.208 . S
C287 O292 1.247 . S
C287 O293 1.208 . S
C288 O280 1.315 . S
C288 O283 1.279 . S
C289 O290 1.315 . S
C289 O291 1.279 . S
O290 Cd282 2.223 . S
O290 C289 1.315 . S
O291 Cd281 2.240 . S
O291 C289 1.279 . S
O292 Cd282 2.297 1_556 S
O292 C287 1.247 . S
O293 Cd282 2.439 1_556 S
O293 C287 1.208 . S
O294 Cd295 2.223 . S
O294 C302 1.315 . S
Cd295 O294 2.223 . S
Cd295 O298 2.297 . S
Cd295 O299 2.439 . S
Cd295 O305 2.240 . S
Cd296 O297 2.240 . S
Cd296 O304 2.223 . S
Cd296 O306 2.297 . S
Cd296 O307 2.439 . S
O297 Cd296 2.240 . S
O297 C302 1.279 . S
O298 Cd295 2.297 . S
O298 C300 1.247 . S
O299 Cd295 2.439 . S
O299 C300 1.208 . S
C300 O298 1.247 . S
C300 O299 1.208 . S
C301 O306 1.247 . S
C301 O307 1.208 . S
C302 O294 1.315 . S
C302 O297 1.279 . S
C303 O304 1.315 . S
C303 O305 1.279 . S
O304 Cd296 2.223 . S
O304 C303 1.315 . S
O305 Cd295 2.240 . S
O305 C303 1.279 . S
O306 Cd296 2.297 . S
O306 C301 1.247 . S
O307 Cd296 2.439 . S
O307 C301 1.208 . S
O308 Cd309 2.223 . S
O308 C316 1.315 . S
Cd309 O308 2.223 . S
Cd309 O312 2.297 . S
Cd309 O313 2.439 . S
Cd309 O319 2.240 . S
Cd310 O311 2.240 . S
Cd310 O318 2.223 . S
Cd310 O320 2.297 . S
Cd310 O321 2.439 . S
O311 Cd310 2.240 . S
O311 C316 1.279 . S
O312 Cd309 2.297 . S
O312 C314 1.247 . S
O313 Cd309 2.439 . S
O313 C314 1.208 . S
C314 O312 1.247 . S
C314 O313 1.208 . S
C315 O320 1.247 . S
C315 O321 1.208 . S
C316 O308 1.315 . S
C316 O311 1.279 . S
C317 O318 1.315 . S
C317 O319 1.279 . S
O318 Cd310 2.223 . S
O318 C317 1.315 . S
O319 Cd309 2.240 . S
O319 C317 1.279 . S
O320 Cd310 2.297 . S
O320 C315 1.247 . S
O321 Cd310 2.439 . S
O321 C315 1.208 . S
O322 Cd323 2.223 . S
O322 C330 1.315 . S
Cd323 O322 2.223 . S
Cd323 O326 2.297 . S
Cd323 O327 2.439 . S
Cd323 O333 2.240 . S
Cd324 O325 2.240 . S
Cd324 O332 2.223 . S
Cd324 O334 2.297 . S
Cd324 O335 2.439 . S
O325 Cd324 2.240 . S
O325 C330 1.279 . S
O326 Cd323 2.297 . S
O326 C328 1.247 . S
O327 Cd323 2.439 . S
O327 C328 1.208 . S
C328 O326 1.247 . S
C328 O327 1.208 . S
C329 O334 1.247 . S
C329 O335 1.208 . S
C330 O322 1.315 . S
C330 O325 1.279 . S
C331 O332 1.315 . S
C331 O333 1.279 . S
O332 Cd324 2.223 . S
O332 C331 1.315 . S
O333 Cd323 2.240 . S
O333 C331 1.279 . S
O334 Cd324 2.297 . S
O334 C329 1.247 . S
O335 Cd324 2.439 . S
O335 C329 1.208 . S
Eu336 N365 2.600 . S
Eu336 N371 2.562 . S
Eu336 O380 2.462 . S
Eu336 O381 2.373 . S
Eu336 O383 2.432 . S
Eu336 O384 2.291 . S
Eu336 O388 2.335 . S
Eu336 O391 2.372 . S
Eu336 C400 2.787 . S
C337 N338 1.365 . S
C337 C340 1.405 1_554 S
C337 C344 1.448 . S
N338 C337 1.365 . S
N338 C341 1.319 1_554 S
N338 Eu347 2.600 1_565 S
C339 C341 1.397 . S
C339 C342 1.367 . S
C339 H359 0.931 . S
C340 C337 1.405 1_556 S
C340 C342 1.403 . S
C340 C346 1.460 . S
C341 N338 1.319 1_556 S
C341 C339 1.397 . S
C341 H352 0.930 1_565 S
C342 C339 1.367 . S
C342 C340 1.403 . S
C342 H363 0.929 . S
C343 C344 1.430 . S
C343 C345 1.387 . S
C343 C349 1.404 . S
C344 C337 1.448 . S
C344 C343 1.430 . S
C344 N348 1.351 . S
C345 C343 1.387 . S
C345 C346 1.331 1_554 S
C345 H360 0.931 . S
C346 C340 1.460 . S
C346 C345 1.331 1_556 S
C346 H361 0.955 . S
Eu347 N338 2.600 1_545 S
Eu347 N348 2.562 1_545 S
Eu347 O382 2.335 1_655 S
Eu347 O385 2.372 1_655 S
Eu347 O386 2.462 . S
Eu347 O387 2.373 1_645 S
Eu347 O389 2.432 . S
Eu347 O390 2.291 1_655 S
Eu347 C411 2.787 . S
N348 C344 1.351 . S
N348 Eu347 2.562 1_565 S
N348 C350 1.325 . S
C349 C343 1.404 . S
C349 C351 1.366 . S
C349 H357 0.930 . S
C350 N348 1.325 . S
C350 C351 1.416 . S
C350 H356 0.929 1_565 S
C351 C349 1.366 . S
C351 C350 1.416 . S
C351 H353 0.930 . S
H352 C341 0.930 1_545 S
H353 C351 0.930 . S
H354 C369 0.930 . S
H355 C376 0.930 . S
H356 C350 0.929 1_545 S
H357 C349 0.930 . S
H358 C372 0.929 . S
H359 C339 0.931 . S
H360 C345 0.931 . S
H361 C346 0.955 . S
H362 C367 0.931 . S
H363 C342 0.929 . S
H364 C375 0.930 . S
N365 Eu336 2.600 . S
N365 C366 1.365 . S
N365 C369 1.319 . S
C366 N365 1.365 . S
C366 C368 1.405 . S
C366 C374 1.448 . S
C367 H362 0.931 . S
C367 C369 1.397 . S
C367 C370 1.367 . S
C368 C366 1.405 . S
C368 C370 1.403 . S
C368 C401 1.439 . S
C369 H354 0.930 . S
C369 N365 1.319 . S
C369 C367 1.397 . S
C370 C367 1.367 . S
C370 C368 1.403 . S
C370 H377 0.929 . S
N371 Eu336 2.562 . S
N371 C372 1.325 . S
N371 C374 1.351 . S
C372 H358 0.929 . S
C372 N371 1.325 . S
C372 C376 1.416 . S
C373 C374 1.430 . S
C373 C375 1.404 . S
C373 C402 1.387 . S
C374 C366 1.448 . S
C374 N371 1.351 . S
C374 C373 1.430 . S
C375 H364 0.930 . S
C375 C373 1.404 . S
C375 C376 1.366 . S
C376 H355 0.930 . S
C376 C372 1.416 . S
C376 C375 1.366 . S
H377 C370 0.929 . S
H378 C401 0.931 . S
H379 C402 0.931 . S
O380 Eu336 2.462 . S
O380 C400 1.252 . S
O381 Eu336 2.373 . S
O381 C392 1.249 . S
O382 Eu347 2.335 1_455 S
O382 C392 1.264 . S
O383 Eu336 2.432 . S
O383 C400 1.268 . S
O384 Eu336 2.291 . S
O384 C399 1.255 . S
O385 Eu347 2.372 1_455 S
O385 C399 1.257 . S
O386 Eu347 2.462 . S
O386 C411 1.252 . S
O387 Eu347 2.373 1_465 S
O387 C403 1.249 . S
O388 Eu336 2.335 . S
O388 C403 1.264 1_545 S
O389 Eu347 2.432 . S
O389 C411 1.268 . S
O390 Eu347 2.291 1_455 S
O390 C410 1.255 . S
O391 Eu336 2.372 . S
O391 C410 1.257 . S
C392 O381 1.249 . S
C392 O382 1.264 . S
C393 C396 1.382 . S
C393 C398 1.390 . S
C393 C400 1.506 . S
C394 C395 1.398 . S
C394 C398 1.392 . S
C395 C394 1.398 . S
C395 C397 1.372 . S
C395 H412 0.931 . S
C396 C393 1.382 . S
C396 C397 1.390 . S
C396 H413 0.931 . S
C397 C395 1.372 . S
C397 C396 1.390 . S
C397 H414 0.929 . S
C398 C393 1.390 . S
C398 C394 1.392 . S
C398 H415 0.930 . S
C399 O384 1.255 . S
C399 O385 1.257 . S
C400 Eu336 2.787 . S
C400 O380 1.252 . S
C400 O383 1.268 . S
C400 C393 1.506 . S
C401 C368 1.439 . S
C401 H378 0.931 . S
C401 C402 1.374 . S
C402 C373 1.387 . S
C402 H379 0.931 . S
C402 C401 1.374 . S
C403 O387 1.249 . S
C403 O388 1.264 1_565 S
C404 C407 1.361 1_554 S
C404 C408 1.390 . S
C404 C411 1.506 . S
C405 C406 1.398 . S
C405 C408 1.392 . S
C406 C405 1.398 . S
C406 C409 1.372 1_554 S
C406 H416 0.931 . S
C407 C404 1.361 1_556 S
C407 C409 1.393 . S
C407 H417 0.949 . S
C408 C404 1.390 . S
C408 C405 1.392 . S
C408 H418 0.930 . S
C409 C406 1.372 1_556 S
C409 C407 1.393 . S
C409 H419 0.929 . S
C410 O390 1.255 . S
C410 O391 1.257 . S
C411 Eu347 2.787 . S
C411 O386 1.252 . S
C411 O389 1.268 . S
C411 C404 1.506 . S
H412 C395 0.931 . S
H413 C396 0.931 . S
H414 C397 0.929 . S
H415 C398 0.930 . S
H416 C406 0.931 . S
H417 C407 0.949 . S
H418 C408 0.930 . S
H419 C409 0.929 . S
Eu420 N449 2.600 . S
Eu420 N455 2.562 . S
Eu420 O464 2.462 . S
Eu420 O465 2.373 . S
Eu420 O467 2.432 . S
Eu420 O468 2.291 . S
Eu420 O472 2.335 . S
Eu420 O475 2.372 . S
Eu420 C484 2.787 . S
C421 N422 1.365 . S
C421 C424 1.405 . S
C421 C428 1.448 . S
N422 C421 1.365 . S
N422 C425 1.319 . S
N422 Eu431 2.600 . S
C423 C425 1.397 . S
C423 C426 1.367 . S
C423 H443 0.931 . S
C424 C421 1.405 . S
C424 C426 1.403 . S
C424 C430 1.439 . S
C425 N422 1.319 . S
C425 C423 1.397 . S
C425 H436 0.930 . S
C426 C423 1.367 . S
C426 C424 1.403 . S
C426 H447 0.929 . S
C427 C428 1.430 . S
C427 C429 1.387 . S
C427 C433 1.404 . S
C428 C421 1.448 . S
C428 C427 1.430 . S
C428 N432 1.351 . S
C429 C427 1.387 . S
C429 C430 1.374 . S
C429 H444 0.931 . S
C430 C424 1.439 . S
C430 C429 1.374 . S
C430 H445 0.931 . S
Eu431 N422 2.600 . S
Eu431 N432 2.562 . S
Eu431 O466 2.335 . S
Eu431 O469 2.372 . S
Eu431 O470 2.462 . S
Eu431 O471 2.373 . S
Eu431 O473 2.432 . S
Eu431 O474 2.291 . S
Eu431 C495 2.787 . S
N432 C428 1.351 . S
N432 Eu431 2.562 . S
N432 C434 1.325 . S
C433 C427 1.404 . S
C433 C435 1.366 . S
C433 H441 0.930 . S
C434 N432 1.325 . S
C434 C435 1.416 . S
C434 H440 0.929 . S
C435 C433 1.366 . S
C435 C434 1.416 . S
C435 H437 0.930 . S
H436 C425 0.930 . S
H437 C435 0.930 . S
H438 C453 0.930 . S
H439 C460 0.930 . S
H440 C434 0.929 . S
H441 C433 0.930 . S
H442 C456 0.929 . S
H443 C423 0.931 . S
H444 C429 0.931 . S
H445 C430 0.931 . S
H446 C451 0.931 . S
H447 C426 0.929 . S
H448 C459 0.930 . S
N449 Eu420 2.600 . S
N449 C450 1.365 . S
N449 C453 1.319 . S
C450 N449 1.365 . S
C450 C452 1.405 . S
C450 C458 1.448 . S
C451 H446 0.931 . S
C451 C453 1.397 . S
C451 C454 1.367 . S
C452 C450 1.405 . S
C452 C454 1.403 . S
C452 C485 1.439 . S
C453 H438 0.930 . S
C453 N449 1.319 . S
C453 C451 1.397 . S
C454 C451 1.367 . S
C454 C452 1.403 . S
C454 H461 0.929 . S
N455 Eu420 2.562 . S
N455 C456 1.325 . S
N455 C458 1.351 . S
C456 H442 0.929 . S
C456 N455 1.325 . S
C456 C460 1.416 . S
C457 C458 1.430 . S
C457 C459 1.404 . S
C457 C486 1.387 . S
C458 C450 1.448 . S
C458 N455 1.351 . S
C458 C457 1.430 . S
C459 H448 0.930 . S
C459 C457 1.404 . S
C459 C460 1.366 . S
C460 H439 0.930 . S
C460 C456 1.416 . S
C460 C459 1.366 . S
H461 C454 0.929 . S
H462 C485 0.931 . S
H463 C486 0.931 . S
O464 Eu420 2.462 . S
O464 C484 1.252 . S
O465 Eu420 2.373 . S
O465 C476 1.249 . S
O466 Eu431 2.335 . S
O466 C476 1.264 . S
O467 Eu420 2.432 . S
O467 C484 1.268 . S
O468 Eu420 2.291 . S
O468 C483 1.255 . S
O469 Eu431 2.372 . S
O469 C483 1.257 . S
O470 Eu431 2.462 . S
O470 C495 1.252 . S
O471 Eu431 2.373 . S
O471 C487 1.249 . S
O472 Eu420 2.335 . S
O472 C487 1.264 . S
O473 Eu431 2.432 . S
O473 C495 1.268 . S
O474 Eu431 2.291 . S
O474 C494 1.255 . S
O475 Eu420 2.372 . S
O475 C494 1.257 . S
C476 O465 1.249 . S
C476 O466 1.264 . S
C477 C480 1.382 . S
C477 C482 1.390 . S
C477 C484 1.506 . S
C478 C479 1.398 . S
C478 C482 1.392 . S
C479 C478 1.398 . S
C479 C481 1.372 . S
C479 H496 0.931 . S
C480 C477 1.382 . S
C480 C481 1.390 . S
C480 H497 0.931 . S
C481 C479 1.372 . S
C481 C480 1.390 . S
C481 H498 0.929 . S
C482 C477 1.390 . S
C482 C478 1.392 . S
C482 H499 0.930 . S
C483 O468 1.255 . S
C483 O469 1.257 . S
C484 Eu420 2.787 . S
C484 O464 1.252 . S
C484 O467 1.268 . S
C484 C477 1.506 . S
C485 C452 1.439 . S
C485 H462 0.931 . S
C485 C486 1.374 . S
C486 C457 1.387 . S
C486 H463 0.931 . S
C486 C485 1.374 . S
C487 O471 1.249 . S
C487 O472 1.264 . S
C488 C491 1.382 . S
C488 C492 1.390 . S
C488 C495 1.506 . S
C489 C490 1.398 . S
C489 C492 1.392 . S
C490 C489 1.398 . S
C490 C493 1.372 . S
C490 H500 0.931 . S
C491 C488 1.382 . S
C491 C493 1.390 . S
C491 H501 0.931 . S
C492 C488 1.390 . S
C492 C489 1.392 . S
C492 H502 0.930 . S
C493 C490 1.372 . S
C493 C491 1.390 . S
C493 H503 0.929 . S
C494 O474 1.255 . S
C494 O475 1.257 . S
C495 Eu431 2.787 . S
C495 O470 1.252 . S
C495 O473 1.268 . S
C495 C488 1.506 . S
H496 C479 0.931 . S
H497 C480 0.931 . S
H498 C481 0.929 . S
H499 C482 0.930 . S
H500 C490 0.931 . S
H501 C491 0.931 . S
H502 C492 0.930 . S
H503 C493 0.929 . S
Eu504 N533 2.600 1_545 S
Eu504 N539 2.562 1_545 S
Eu504 O548 2.462 . S
Eu504 O549 2.373 1_545 S
Eu504 O551 2.432 . S
Eu504 O552 2.291 . S
Eu504 O556 2.335 . S
Eu504 O559 2.372 . S
Eu504 C568 2.787 . S
C505 N506 1.365 . S
C505 C508 1.405 . S
C505 C512 1.448 . S
N506 C505 1.365 . S
N506 C509 1.319 . S
N506 Eu515 2.600 . S
C507 C509 1.397 . S
C507 C510 1.367 . S
C507 H527 0.931 . S
C508 C505 1.405 . S
C508 C510 1.403 . S
C508 C514 1.439 . S
C509 N506 1.319 . S
C509 C507 1.397 . S
C509 H520 0.930 . S
C510 C507 1.367 . S
C510 C508 1.403 . S
C510 H531 0.929 . S
C511 C512 1.430 . S
C511 C513 1.387 . S
C511 C517 1.404 . S
C512 C505 1.448 . S
C512 C511 1.430 . S
C512 N516 1.351 . S
C513 C511 1.387 . S
C513 C514 1.374 . S
C513 H528 0.931 . S
C514 C508 1.439 . S
C514 C513 1.374 . S
C514 H529 0.931 . S
Eu515 N506 2.600 . S
Eu515 N516 2.562 . S
Eu515 O550 2.335 1_545 S
Eu515 O553 2.372 . S
Eu515 O554 2.462 . S
Eu515 O555 2.373 . S
Eu515 O557 2.432 . S
Eu515 O558 2.291 . S
Eu515 C579 2.787 . S
N516 C512 1.351 . S
N516 Eu515 2.562 . S
N516 C518 1.325 . S
C517 C511 1.404 . S
C517 C519 1.366 . S
C517 H525 0.930 . S
C518 N516 1.325 . S
C518 C519 1.416 . S
C518 H524 0.929 . S
C519 C517 1.366 . S
C519 C518 1.416 . S
C519 H521 0.930 . S
H520 C509 0.930 . S
H521 C519 0.930 . S
H522 C537 0.930 1_545 S
H523 C544 0.930 . S
H524 C518 0.929 . S
H525 C517 0.930 . S
H526 C540 0.929 . S
H527 C507 0.931 . S
H528 C513 0.931 . S
H529 C514 0.931 . S
H530 C535 0.931 . S
H531 C510 0.929 . S
H532 C543 0.930 . S
N533 Eu504 2.600 1_565 S
N533 C534 1.365 . S
N533 C537 1.319 . S
C534 N533 1.365 . S
C534 C536 1.405 . S
C534 C542 1.448 . S
C535 H530 0.931 . S
C535 C537 1.397 . S
C535 C538 1.367 . S
C536 C534 1.405 . S
C536 C538 1.403 . S
C536 C569 1.439 . S
C537 H522 0.930 1_565 S
C537 N533 1.319 . S
C537 C535 1.397 . S
C538 C535 1.367 . S
C538 C536 1.403 . S
C538 H545 0.929 . S
N539 Eu504 2.562 1_565 S
N539 C540 1.325 . S
N539 C542 1.351 . S
C540 H526 0.929 . S
C540 N539 1.325 . S
C540 C544 1.416 . S
C541 C542 1.430 . S
C541 C543 1.404 . S
C541 C570 1.387 . S
C542 C534 1.448 . S
C542 N539 1.351 . S
C542 C541 1.430 . S
C543 H532 0.930 . S
C543 C541 1.404 . S
C543 C544 1.366 . S
C544 H523 0.930 . S
C544 C540 1.416 . S
C544 C543 1.366 . S
H545 C538 0.929 . S
H546 C569 0.931 . S
H547 C570 0.931 . S
O548 Eu504 2.462 . S
O548 C568 1.252 . S
O549 Eu504 2.373 1_565 S
O549 C560 1.249 . S
O550 Eu515 2.335 1_565 S
O550 C560 1.264 . S
O551 Eu504 2.432 . S
O551 C568 1.268 . S
O552 Eu504 2.291 . S
O552 C567 1.255 . S
O553 Eu515 2.372 . S
O553 C567 1.257 . S
O554 Eu515 2.462 . S
O554 C579 1.252 . S
O555 Eu515 2.373 . S
O555 C571 1.249 . S
O556 Eu504 2.335 . S
O556 C571 1.264 . S
O557 Eu515 2.432 . S
O557 C579 1.268 . S
O558 Eu515 2.291 . S
O558 C578 1.255 . S
O559 Eu504 2.372 . S
O559 C578 1.257 . S
C560 O549 1.249 . S
C560 O550 1.264 . S
C561 C564 1.382 . S
C561 C566 1.390 . S
C561 C568 1.506 . S
C562 C563 1.398 . S
C562 C566 1.392 . S
C563 C562 1.398 . S
C563 C565 1.372 . S
C563 H580 0.931 . S
C564 C561 1.382 . S
C564 C565 1.390 . S
C564 H581 0.931 . S
C565 C563 1.372 . S
C565 C564 1.390 . S
C565 H582 0.929 . S
C566 C561 1.390 . S
C566 C562 1.392 . S
C566 H583 0.930 . S
C567 O552 1.255 . S
C567 O553 1.257 . S
C568 Eu504 2.787 . S
C568 O548 1.252 . S
C568 O551 1.268 . S
C568 C561 1.506 . S
C569 C536 1.439 . S
C569 H546 0.931 . S
C569 C570 1.374 . S
C570 C541 1.387 . S
C570 H547 0.931 . S
C570 C569 1.374 . S
C571 O555 1.249 . S
C571 O556 1.264 . S
C572 C575 1.382 . S
C572 C576 1.390 . S
C572 C579 1.506 1_565 S
C573 C574 1.398 . S
C573 C576 1.392 . S
C574 C573 1.398 . S
C574 C577 1.372 . S
C574 H584 0.931 . S
C575 C572 1.382 . S
C575 C577 1.390 . S
C575 H585 0.931 . S
C576 C572 1.390 . S
C576 C573 1.392 . S
C576 H586 0.930 . S
C577 C574 1.372 . S
C577 C575 1.390 . S
C577 H587 0.929 . S
C578 O558 1.255 . S
C578 O559 1.257 . S
C579 Eu515 2.787 . S
C579 O554 1.252 . S
C579 O557 1.268 . S
C579 C572 1.506 1_545 S
H580 C563 0.931 . S
H581 C564 0.931 . S
H582 C565 0.929 . S
H583 C566 0.930 . S
H584 C574 0.931 . S
H585 C575 0.931 . S
H586 C576 0.930 . S
H587 C577 0.929 . S
Eu588 N617 2.600 . S
Eu588 N623 2.562 . S
Eu588 O632 2.462 . S
Eu588 O633 2.373 . S
Eu588 O635 2.432 . S
Eu588 O636 2.291 . S
Eu588 O640 2.335 . S
Eu588 O643 2.372 . S
Eu588 C652 2.787 . S
C589 N590 1.365 . S
C589 C592 1.405 . S
C589 C596 1.448 . S
N590 C589 1.365 . S
N590 C593 1.319 . S
N590 Eu599 2.600 . S
C591 C593 1.397 . S
C591 C594 1.367 . S
C591 H611 0.931 . S
C592 C589 1.405 . S
C592 C594 1.403 . S
C592 C598 1.439 . S
C593 N590 1.319 . S
C593 C591 1.397 . S
C593 H604 0.930 . S
C594 C591 1.367 . S
C594 C592 1.403 . S
C594 H615 0.929 . S
C595 C596 1.430 . S
C595 C597 1.387 . S
C595 C601 1.404 . S
C596 C589 1.448 . S
C596 C595 1.430 . S
C596 N600 1.351 . S
C597 C595 1.387 . S
C597 C598 1.374 . S
C597 H612 0.931 . S
C598 C592 1.439 . S
C598 C597 1.374 . S
C598 H613 0.931 . S
Eu599 N590 2.600 . S
Eu599 N600 2.562 . S
Eu599 O634 2.335 . S
Eu599 O637 2.372 . S
Eu599 O638 2.462 . S
Eu599 O639 2.373 . S
Eu599 O641 2.432 . S
Eu599 O642 2.291 . S
Eu599 C663 2.787 . S
N600 C596 1.351 . S
N600 Eu599 2.562 . S
N600 C602 1.325 . S
C601 C595 1.404 . S
C601 C603 1.366 . S
C601 H609 0.930 . S
C602 N600 1.325 . S
C602 C603 1.416 . S
C602 H608 0.929 . S
C603 C601 1.366 . S
C603 C602 1.416 . S
C603 H605 0.930 . S
H604 C593 0.930 . S
H605 C603 0.930 . S
H606 C621 0.930 . S
H607 C628 0.930 . S
H608 C602 0.929 . S
H609 C601 0.930 . S
H610 C624 0.929 . S
H611 C591 0.931 . S
H612 C597 0.931 . S
H613 C598 0.931 . S
H614 C619 0.931 . S
H615 C594 0.929 . S
H616 C627 0.930 . S
N617 Eu588 2.600 . S
N617 C618 1.365 . S
N617 C621 1.319 . S
C618 N617 1.365 . S
C618 C620 1.405 . S
C618 C626 1.448 . S
C619 H614 0.931 . S
C619 C621 1.397 . S
C619 C622 1.367 . S
C620 C618 1.405 . S
C620 C622 1.403 . S
C620 C653 1.439 . S
C621 H606 0.930 . S
C621 N617 1.319 . S
C621 C619 1.397 . S
C622 C619 1.367 . S
C622 C620 1.403 . S
C622 H629 0.929 . S
N623 Eu588 2.562 . S
N623 C624 1.325 . S
N623 C626 1.351 . S
C624 H610 0.929 . S
C624 N623 1.325 . S
C624 C628 1.416 . S
C625 C626 1.430 . S
C625 C627 1.404 . S
C625 C654 1.387 . S
C626 C618 1.448 . S
C626 N623 1.351 . S
C626 C625 1.430 . S
C627 H616 0.930 . S
C627 C625 1.404 . S
C627 C628 1.366 . S
C628 H607 0.930 . S
C628 C624 1.416 . S
C628 C627 1.366 . S
H629 C622 0.929 . S
H630 C653 0.931 . S
H631 C654 0.931 . S
O632 Eu588 2.462 . S
O632 C652 1.252 . S
O633 Eu588 2.373 . S
O633 C644 1.249 . S
O634 Eu599 2.335 . S
O634 C644 1.264 . S
O635 Eu588 2.432 . S
O635 C652 1.268 . S
O636 Eu588 2.291 . S
O636 C651 1.255 . S
O637 Eu599 2.372 . S
O637 C651 1.257 . S
O638 Eu599 2.462 . S
O638 C663 1.252 . S
O639 Eu599 2.373 . S
O639 C655 1.249 . S
O640 Eu588 2.335 . S
O640 C655 1.264 . S
O641 Eu599 2.432 . S
O641 C663 1.268 . S
O642 Eu599 2.291 . S
O642 C662 1.255 . S
O643 Eu588 2.372 . S
O643 C662 1.257 . S
C644 O633 1.249 . S
C644 O634 1.264 . S
C645 C648 1.382 . S
C645 C650 1.390 . S
C645 C652 1.506 . S
C646 C647 1.398 . S
C646 C650 1.392 . S
C647 C646 1.398 . S
C647 C649 1.372 . S
C647 H664 0.931 . S
C648 C645 1.382 . S
C648 C649 1.390 . S
C648 H665 0.931 . S
C649 C647 1.372 . S
C649 C648 1.390 . S
C649 H666 0.929 . S
C650 C645 1.390 . S
C650 C646 1.392 . S
C650 H667 0.930 . S
C651 O636 1.255 . S
C651 O637 1.257 . S
C652 Eu588 2.787 . S
C652 O632 1.252 . S
C652 O635 1.268 . S
C652 C645 1.506 . S
C653 C620 1.439 . S
C653 H630 0.931 . S
C653 C654 1.374 . S
C654 C625 1.387 . S
C654 H631 0.931 . S
C654 C653 1.374 . S
C655 O639 1.249 . S
C655 O640 1.264 . S
C656 C659 1.382 . S
C656 C660 1.390 . S
C656 C663 1.506 . S
C657 C658 1.398 . S
C657 C660 1.392 . S
C658 C657 1.398 . S
C658 C661 1.372 . S
C658 H668 0.931 . S
C659 C656 1.382 . S
C659 C661 1.390 . S
C659 H669 0.931 . S
C660 C656 1.390 . S
C660 C657 1.392 . S
C660 H670 0.930 . S
C661 C658 1.372 . S
C661 C659 1.390 . S
C661 H671 0.929 . S
C662 O642 1.255 . S
C662 O643 1.257 . S
C663 Eu599 2.787 . S
C663 O638 1.252 . S
C663 O641 1.268 . S
C663 C656 1.506 . S
H664 C647 0.931 . S
H665 C648 0.931 . S
H666 C649 0.929 . S
H667 C650 0.930 . S
H668 C658 0.931 . S
H669 C659 0.931 . S
H670 C660 0.930 . S
H671 C661 0.929 . S
Eu672 N701 2.617 . S
Eu672 N707 2.589 . S
Eu672 O716 2.499 . S
Eu672 O717 2.347 1_565 S
Eu672 O719 2.468 . S
Eu672 O720 2.276 1_565 S
Eu672 O724 2.321 1_565 S
Eu672 O727 2.344 1_565 S
Eu672 C736 2.828 . S
C673 N674 1.365 . S
C673 C676 1.405 . S
C673 C680 1.448 . S
N674 C673 1.365 . S
N674 C677 1.319 1_455 S
N674 Eu683 2.600 . S
C675 C677 1.397 . S
C675 C678 1.367 . S
C675 H695 0.931 . S
C676 C673 1.405 . S
C676 C678 1.403 1_455 S
C676 C682 1.439 . S
C677 N674 1.319 1_655 S
C677 C675 1.397 . S
C677 H688 0.930 . S
C678 C675 1.367 . S
C678 C676 1.403 1_655 S
C678 H699 0.929 . S
C679 C680 1.430 . S
C679 C681 1.387 . S
C679 C685 1.404 . S
C680 C673 1.448 . S
C680 C679 1.430 . S
C680 N684 1.351 . S
C681 C679 1.387 . S
C681 C682 1.374 . S
C681 H696 0.931 . S
C682 C676 1.439 . S
C682 C681 1.374 . S
C682 H697 0.931 . S
Eu683 N674 2.600 . S
Eu683 N684 2.562 . S
Eu683 O718 2.335 . S
Eu683 O721 2.372 1_455 S
Eu683 O722 2.462 . S
Eu683 O723 2.373 . S
Eu683 O725 2.432 . S
Eu683 O726 2.291 . S
Eu683 C747 2.787 . S
N684 C680 1.351 . S
N684 Eu683 2.562 . S
N684 C686 1.325 . S
C685 C679 1.404 . S
C685 C687 1.366 . S
C685 H693 0.930 . S
C686 N684 1.325 . S
C686 C687 1.416 . S
C686 H692 0.929 . S
C687 C685 1.366 . S
C687 C686 1.416 . S
C687 H689 0.930 . S
H688 C677 0.930 . S
H689 C687 0.930 . S
H690 C705 0.930 1_545 S
H691 C712 0.930 . S
H692 C686 0.929 . S
H693 C685 0.930 . S
H694 C708 0.929 1_655 S
H695 C675 0.931 . S
H696 C681 0.931 . S
H697 C682 0.931 . S
H698 C703 0.931 . S
H699 C678 0.929 . S
H700 C711 0.931 1_655 S
N701 Eu672 2.617 . S
N701 C702 1.365 . S
N701 C705 1.319 . S
C702 N701 1.365 . S
C702 C704 1.405 . S
C702 C710 1.448 . S
C703 H698 0.931 . S
C703 C705 1.397 . S
C703 C706 1.367 . S
C704 C702 1.405 . S
C704 C706 1.403 . S
C704 C737 1.439 . S
C705 H690 0.930 1_565 S
C705 N701 1.319 . S
C705 C703 1.397 . S
C706 C703 1.367 . S
C706 C704 1.403 . S
C706 H713 0.929 . S
N707 Eu672 2.589 . S
N707 C708 1.325 . S
N707 C710 1.351 . S
C708 H694 0.929 1_455 S
C708 N707 1.325 . S
C708 C712 1.416 1_455 S
C709 C710 1.430 . S
C709 C711 1.404 . S
C709 C738 1.387 . S
C710 C702 1.448 . S
C710 N707 1.351 . S
C710 C709 1.430 . S
C711 H700 0.931 1_455 S
C711 C709 1.404 . S
C711 C712 1.366 1_455 S
C712 H691 0.930 . S
C712 C708 1.416 1_655 S
C712 C711 1.366 1_655 S
H713 C706 0.929 . S
H714 C737 0.931 . S
H715 C738 0.931 . S
O716 Eu672 2.499 . S
O716 C736 1.252 . S
O717 Eu672 2.347 1_545 S
O717 C728 1.249 . S
O718 Eu683 2.335 . S
O718 C728 1.264 . S
O719 Eu672 2.468 . S
O719 C736 1.268 . S
O720 Eu672 2.276 1_545 S
O720 C735 1.255 1_455 S
O721 Eu683 2.372 1_655 S
O721 C735 1.257 . S
O722 Eu683 2.462 . S
O722 C747 1.252 . S
O723 Eu683 2.373 . S
O723 C739 1.249 . S
O724 Eu672 2.321 1_545 S
O724 C739 1.264 . S
O725 Eu683 2.432 . S
O725 C747 1.268 . S
O726 Eu683 2.291 . S
O726 C746 1.255 . S
O727 Eu672 2.344 1_545 S
O727 C746 1.257 . S
C728 O717 1.249 . S
C728 O718 1.264 . S
C729 C732 1.382 . S
C729 C734 1.390 . S
C729 C736 1.506 . S
C730 C731 1.398 . S
C730 C734 1.392 . S
C731 C730 1.398 . S
C731 C733 1.372 . S
C731 H748 0.931 . S
C732 C729 1.382 . S
C732 C733 1.390 . S
C732 H749 0.931 . S
C733 C731 1.372 . S
C733 C732 1.390 . S
C733 H750 0.929 . S
C734 C729 1.390 . S
C734 C730 1.392 . S
C734 H751 0.930 . S
C735 O720 1.255 1_655 S
C735 O721 1.257 . S
C736 Eu672 2.828 . S
C736 O716 1.252 . S
C736 O719 1.268 . S
C736 C729 1.506 . S
C737 C704 1.439 . S
C737 H714 0.931 . S
C737 C738 1.374 . S
C738 C709 1.387 . S
C738 H715 0.931 . S
C738 C737 1.374 . S
C739 O723 1.249 . S
C739 O724 1.264 . S
C740 C743 1.382 1_455 S
C740 C744 1.390 . S
C740 C747 1.506 . S
C741 C742 1.398 . S
C741 C744 1.392 . S
C742 C741 1.398 . S
C742 C745 1.372 1_455 S
C742 H752 0.931 . S
C743 C740 1.382 1_655 S
C743 C745 1.390 . S
C743 H753 0.931 . S
C744 C740 1.390 . S
C744 C741 1.392 . S
C744 H754 0.930 . S
C745 C742 1.372 1_655 S
C745 C743 1.390 . S
C745 H755 0.929 . S
C746 O726 1.255 . S
C746 O727 1.257 . S
C747 Eu683 2.787 . S
C747 O722 1.252 . S
C747 O725 1.268 . S
C747 C740 1.506 . S
H748 C731 0.931 . S
H749 C732 0.931 . S
H750 C733 0.929 . S
H751 C734 0.930 . S
H752 C742 0.931 . S
H753 C743 0.931 . S
H754 C744 0.930 . S
H755 C745 0.929 . S
Eu756 N785 2.600 . S
Eu756 N791 2.562 . S
Eu756 O800 2.462 . S
Eu756 O801 2.373 . S
Eu756 O803 2.432 . S
Eu756 O804 2.291 . S
Eu756 O808 2.335 . S
Eu756 O811 2.372 . S
Eu756 C820 2.787 . S
C757 N758 1.365 . S
C757 C760 1.405 . S
C757 C764 1.448 . S
N758 C757 1.365 . S
N758 C761 1.319 . S
N758 Eu767 2.600 . S
C759 C761 1.397 . S
C759 C762 1.367 . S
C759 H779 0.931 . S
C760 C757 1.405 . S
C760 C762 1.403 . S
C760 C766 1.439 . S
C761 N758 1.319 . S
C761 C759 1.397 . S
C761 H772 0.930 . S
C762 C759 1.367 . S
C762 C760 1.403 . S
C762 H783 0.929 . S
C763 C764 1.430 . S
C763 C765 1.387 . S
C763 C769 1.404 . S
C764 C757 1.448 . S
C764 C763 1.430 . S
C764 N768 1.351 . S
C765 C763 1.387 . S
C765 C766 1.374 . S
C765 H780 0.931 . S
C766 C760 1.439 . S
C766 C765 1.374 . S
C766 H781 0.931 . S
Eu767 N758 2.600 . S
Eu767 N768 2.562 . S
Eu767 O802 2.335 . S
Eu767 O805 2.372 . S
Eu767 O806 2.462 . S
Eu767 O807 2.373 . S
Eu767 O809 2.432 . S
Eu767 O810 2.291 . S
Eu767 C831 2.787 . S
N768 C764 1.351 . S
N768 Eu767 2.562 . S
N768 C770 1.325 . S
C769 C763 1.404 . S
C769 C771 1.366 . S
C769 H777 0.930 . S
C770 N768 1.325 . S
C770 C771 1.416 . S
C770 H776 0.929 . S
C771 C769 1.366 . S
C771 C770 1.416 . S
C771 H773 0.930 . S
H772 C761 0.930 . S
H773 C771 0.930 . S
H774 C789 0.930 . S
H775 C796 0.930 . S
H776 C770 0.929 . S
H777 C769 0.930 . S
H778 C792 0.929 . S
H779 C759 0.931 . S
H780 C765 0.931 . S
H781 C766 0.931 . S
H782 C787 0.931 . S
H783 C762 0.929 . S
H784 C795 0.930 . S
N785 Eu756 2.600 . S
N785 C786 1.365 . S
N785 C789 1.319 . S
C786 N785 1.365 . S
C786 C788 1.405 . S
C786 C794 1.448 . S
C787 H782 0.931 . S
C787 C789 1.397 . S
C787 C790 1.367 . S
C788 C786 1.405 . S
C788 C790 1.403 . S
C788 C821 1.439 . S
C789 H774 0.930 . S
C789 N785 1.319 . S
C789 C787 1.397 . S
C790 C787 1.367 . S
C790 C788 1.403 . S
C790 H797 0.929 . S
N791 Eu756 2.562 . S
N791 C792 1.325 . S
N791 C794 1.351 . S
C792 H778 0.929 . S
C792 N791 1.325 . S
C792 C796 1.416 . S
C793 C794 1.430 . S
C793 C795 1.404 . S
C793 C822 1.387 . S
C794 C786 1.448 . S
C794 N791 1.351 . S
C794 C793 1.430 . S
C795 H784 0.930 . S
C795 C793 1.404 . S
C795 C796 1.366 . S
C796 H775 0.930 . S
C796 C792 1.416 . S
C796 C795 1.366 . S
H797 C790 0.929 . S
H798 C821 0.931 . S
H799 C822 0.931 . S
O800 Eu756 2.462 . S
O800 C820 1.252 . S
O801 Eu756 2.373 . S
O801 C812 1.249 . S
O802 Eu767 2.335 . S
O802 C812 1.264 . S
O803 Eu756 2.432 . S
O803 C820 1.268 . S
O804 Eu756 2.291 . S
O804 C819 1.255 . S
O805 Eu767 2.372 . S
O805 C819 1.257 . S
O806 Eu767 2.462 . S
O806 C831 1.252 . S
O807 Eu767 2.373 . S
O807 C823 1.249 . S
O808 Eu756 2.335 . S
O808 C823 1.264 . S
O809 Eu767 2.432 . S
O809 C831 1.268 . S
O810 Eu767 2.291 . S
O810 C830 1.255 . S
O811 Eu756 2.372 . S
O811 C830 1.257 . S
C812 O801 1.249 . S
C812 O802 1.264 . S
C813 C816 1.382 . S
C813 C818 1.390 . S
C813 C820 1.506 . S
C814 C815 1.398 . S
C814 C818 1.392 . S
C815 C814 1.398 . S
C815 C817 1.372 . S
C815 H832 0.931 . S
C816 C813 1.382 . S
C816 C817 1.390 . S
C816 H833 0.931 . S
C817 C815 1.372 . S
C817 C816 1.390 . S
C817 H834 0.929 . S
C818 C813 1.390 . S
C818 C814 1.392 . S
C818 H835 0.930 . S
C819 O804 1.255 . S
C819 O805 1.257 . S
C820 Eu756 2.787 . S
C820 O800 1.252 . S
C820 O803 1.268 . S
C820 C813 1.506 . S
C821 C788 1.439 . S
C821 H798 0.931 . S
C821 C822 1.374 . S
C822 C793 1.387 . S
C822 H799 0.931 . S
C822 C821 1.374 . S
C823 O807 1.249 . S
C823 O808 1.264 . S
C824 C827 1.382 . S
C824 C828 1.390 . S
C824 C831 1.506 . S
C825 C826 1.398 . S
C825 C828 1.392 . S
C826 C825 1.398 . S
C826 C829 1.372 . S
C826 H836 0.931 . S
C827 C824 1.382 . S
C827 C829 1.390 . S
C827 H837 0.931 . S
C828 C824 1.390 . S
C828 C825 1.392 . S
C828 H838 0.930 . S
C829 C826 1.372 . S
C829 C827 1.390 . S
C829 H839 0.929 . S
C830 O810 1.255 . S
C830 O811 1.257 . S
C831 Eu767 2.787 . S
C831 O806 1.252 . S
C831 O809 1.268 . S
C831 C824 1.506 . S
H832 C815 0.931 . S
H833 C816 0.931 . S
H834 C817 0.929 . S
H835 C818 0.930 . S
H836 C826 0.931 . S
H837 C827 0.931 . S
H838 C828 0.930 . S
H839 C829 0.929 . S
Eu840 N869 2.617 . S
Eu840 N875 2.562 1_554 S
Eu840 O884 2.462 1_554 S
Eu840 O885 2.373 . S
Eu840 O887 2.432 1_554 S
Eu840 O888 2.291 . S
Eu840 O892 2.335 . S
Eu840 O895 2.372 . S
Eu840 C904 2.787 1_554 S
C841 N842 1.367 . S
C841 C844 1.412 . S
C841 C848 1.438 1_565 S
N842 C841 1.367 . S
N842 C845 1.319 . S
N842 Eu851 2.600 1_565 S
C843 C845 1.397 . S
C843 C846 1.367 . S
C843 H863 0.931 . S
C844 C841 1.412 . S
C844 C846 1.403 . S
C844 C850 1.438 1_565 S
C845 N842 1.319 . S
C845 C843 1.397 . S
C845 H856 0.930 . S
C846 C843 1.367 . S
C846 C844 1.403 . S
C846 H867 0.929 . S
C847 C848 1.430 . S
C847 C849 1.387 . S
C847 C853 1.404 . S
C848 C841 1.438 1_545 S
C848 C847 1.430 . S
C848 N852 1.351 . S
C849 C847 1.387 . S
C849 C850 1.380 . S
C849 H864 0.931 . S
C850 C844 1.438 1_545 S
C850 C849 1.380 . S
C850 H865 0.927 1_545 S
Eu851 N842 2.600 1_545 S
Eu851 N852 2.562 . S
Eu851 O886 2.335 . S
Eu851 O889 2.372 1_545 S
Eu851 O890 2.462 . S
Eu851 O891 2.373 . S
Eu851 O893 2.432 1_545 S
Eu851 O894 2.291 . S
Eu851 C915 2.787 . S
N852 C848 1.351 . S
N852 Eu851 2.562 . S
N852 C854 1.325 . S
C853 C847 1.404 . S
C853 C855 1.366 . S
C853 H861 0.930 . S
C854 N852 1.325 . S
C854 C855 1.416 . S
C854 H860 0.929 . S
C855 C853 1.366 . S
C855 C854 1.416 . S
C855 H857 0.930 . S
H856 C845 0.930 . S
H857 C855 0.930 . S
H858 C873 0.930 . S
H859 C880 0.930 . S
H860 C854 0.929 . S
H861 C853 0.930 . S
H862 C876 0.929 1_565 S
H863 C843 0.931 . S
H864 C849 0.931 . S
H865 C850 0.927 1_565 S
H866 C871 0.931 . S
H867 C846 0.929 . S
H868 C879 0.930 1_565 S
N869 Eu840 2.617 . S
N869 C870 1.335 1_554 S
N869 C873 1.336 . S
C870 N869 1.335 1_556 S
C870 C872 1.405 . S
C870 C878 1.448 . S
C871 H866 0.931 . S
C871 C873 1.397 . S
C871 C874 1.367 1_554 S
C872 C870 1.405 . S
C872 C874 1.403 . S
C872 C905 1.439 . S
C873 H858 0.930 . S
C873 N869 1.336 . S
C873 C871 1.397 . S
C874 C871 1.367 1_556 S
C874 C872 1.403 . S
C874 H881 0.929 . S
N875 Eu840 2.562 1_556 S
N875 C876 1.325 . S
N875 C878 1.351 . S
C876 H862 0.929 1_545 S
C876 N875 1.325 . S
C876 C880 1.416 1_545 S
C877 C878 1.430 . S
C877 C879 1.404 . S
C877 C906 1.387 . S
C878 C870 1.448 . S
C878 N875 1.351 . S
C878 C877 1.430 . S
C879 H868 0.930 1_545 S
C879 C877 1.404 . S
C879 C880 1.366 1_545 S
C880 H859 0.930 . S
C880 C876 1.416 1_565 S
C880 C879 1.366 1_565 S
H881 C874 0.929 . S
H882 C905 0.931 . S
H883 C906 0.931 . S
O884 Eu840 2.462 1_556 S
O884 C904 1.252 . S
O885 Eu840 2.373 . S
O885 C896 1.249 . S
O886 Eu851 2.335 . S
O886 C896 1.264 . S
O887 Eu840 2.432 1_556 S
O887 C904 1.268 . S
O888 Eu840 2.291 . S
O888 C903 1.255 1_545 S
O889 Eu851 2.372 1_565 S
O889 C903 1.257 . S
O890 Eu851 2.462 . S
O890 C915 1.252 . S
O891 Eu851 2.373 . S
O891 C907 1.249 . S
O892 Eu840 2.335 . S
O892 C907 1.264 . S
O893 Eu851 2.432 1_565 S
O893 C915 1.268 1_565 S
O894 Eu851 2.291 . S
O894 C914 1.255 . S
O895 Eu840 2.372 . S
O895 C914 1.257 . S
C896 O885 1.249 . S
C896 O886 1.264 . S
C897 C900 1.382 . S
C897 C902 1.390 . S
C897 C904 1.506 . S
C898 C899 1.398 . S
C898 C902 1.392 . S
C899 C898 1.398 . S
C899 C901 1.372 . S
C899 H916 0.931 . S
C900 C897 1.382 . S
C900 C901 1.390 . S
C900 H917 0.931 . S
C901 C899 1.372 . S
C901 C900 1.390 . S
C901 H918 0.929 . S
C902 C897 1.390 . S
C902 C898 1.392 . S
C902 H919 0.930 . S
C903 O888 1.255 1_565 S
C903 O889 1.257 . S
C904 Eu840 2.787 1_556 S
C904 O884 1.252 . S
C904 O887 1.268 . S
C904 C897 1.506 . S
C905 C872 1.439 . S
C905 H882 0.931 . S
C905 C906 1.374 . S
C906 C877 1.387 . S
C906 H883 0.931 . S
C906 C905 1.374 . S
C907 O891 1.249 . S
C907 O892 1.264 . S
C908 C911 1.382 . S
C908 C912 1.390 1_565 S
C908 C915 1.506 1_565 S
C909 C910 1.398 1_545 S
C909 C912 1.392 . S
C910 C909 1.398 1_565 S
C910 C913 1.372 . S
C910 H920 0.931 . S
C911 C908 1.382 . S
C911 C913 1.390 . S
C911 H921 0.931 . S
C912 C908 1.390 1_545 S
C912 C909 1.392 . S
C912 H922 0.930 . S
C913 C910 1.372 . S
C913 C911 1.390 . S
C913 H923 0.929 . S
C914 O894 1.255 . S
C914 O895 1.257 . S
C915 Eu851 2.787 . S
C915 O890 1.252 . S
C915 O893 1.268 1_545 S
C915 C908 1.506 1_545 S
H916 C899 0.931 . S
H917 C900 0.931 . S
H918 C901 0.929 . S
H919 C902 0.930 . S
H920 C910 0.931 . S
H921 C911 0.931 . S
H922 C912 0.930 . S
H923 C913 0.929 . S
Eu924 N953 2.600 . S
Eu924 N959 2.562 . S
Eu924 O968 2.462 . S
Eu924 O969 2.373 . S
Eu924 O971 2.432 . S
Eu924 O972 2.291 . S
Eu924 O976 2.335 . S
Eu924 O979 2.372 . S
Eu924 C988 2.787 . S
C925 N926 1.365 . S
C925 C928 1.405 . S
C925 C932 1.448 . S
N926 C925 1.365 . S
N926 C929 1.319 . S
N926 Eu935 2.600 . S
C927 C929 1.397 . S
C927 C930 1.367 . S
C927 H947 0.931 . S
C928 C925 1.405 . S
C928 C930 1.403 . S
C928 C934 1.439 . S
C929 N926 1.319 . S
C929 C927 1.397 . S
C929 H940 0.930 . S
C930 C927 1.367 . S
C930 C928 1.403 . S
C930 H951 0.929 . S
C931 C932 1.430 . S
C931 C933 1.387 . S
C931 C937 1.404 . S
C932 C925 1.448 . S
C932 C931 1.430 . S
C932 N936 1.351 . S
C933 C931 1.387 . S
C933 C934 1.374 . S
C933 H948 0.931 . S
C934 C928 1.439 . S
C934 C933 1.374 . S
C934 H949 0.931 . S
Eu935 N926 2.600 . S
Eu935 N936 2.562 . S
Eu935 O970 2.335 . S
Eu935 O973 2.372 . S
Eu935 O974 2.462 . S
Eu935 O975 2.373 . S
Eu935 O977 2.432 . S
Eu935 O978 2.291 . S
Eu935 C999 2.787 . S
N936 C932 1.351 . S
N936 Eu935 2.562 . S
N936 C938 1.325 . S
C937 C931 1.404 . S
C937 C939 1.366 . S
C937 H945 0.930 . S
C938 N936 1.325 . S
C938 C939 1.416 . S
C938 H944 0.929 . S
C939 C937 1.366 . S
C939 C938 1.416 . S
C939 H941 0.930 . S
H940 C929 0.930 . S
H941 C939 0.930 . S
H942 C957 0.930 . S
H943 C964 0.930 . S
H944 C938 0.929 . S
H945 C937 0.930 . S
H946 C960 0.929 . S
H947 C927 0.931 . S
H948 C933 0.931 . S
H949 C934 0.931 . S
H950 C955 0.931 . S
H951 C930 0.929 . S
H952 C963 0.930 . S
N953 Eu924 2.600 . S
N953 C954 1.365 . S
N953 C957 1.319 . S
C954 N953 1.365 . S
C954 C956 1.405 . S
C954 C962 1.448 . S
C955 H950 0.931 . S
C955 C957 1.397 . S
C955 C958 1.367 . S
C956 C954 1.405 . S
C956 C958 1.403 . S
C956 C989 1.439 . S
C957 H942 0.930 . S
C957 N953 1.319 . S
C957 C955 1.397 . S
C958 C955 1.367 . S
C958 C956 1.403 . S
C958 H965 0.929 . S
N959 Eu924 2.562 . S
N959 C960 1.325 . S
N959 C962 1.351 . S
C960 H946 0.929 . S
C960 N959 1.325 . S
C960 C964 1.416 . S
C961 C962 1.430 . S
C961 C963 1.404 . S
C961 C990 1.387 . S
C962 C954 1.448 . S
C962 N959 1.351 . S
C962 C961 1.430 . S
C963 H952 0.930 . S
C963 C961 1.404 . S
C963 C964 1.366 . S
C964 H943 0.930 . S
C964 C960 1.416 . S
C964 C963 1.366 . S
H965 C958 0.929 . S
H966 C989 0.931 . S
H967 C990 0.931 . S
O968 Eu924 2.462 . S
O968 C988 1.252 . S
O969 Eu924 2.373 . S
O969 C980 1.249 . S
O970 Eu935 2.335 . S
O970 C980 1.264 . S
O971 Eu924 2.432 . S
O971 C988 1.268 . S
O972 Eu924 2.291 . S
O972 C987 1.255 . S
O973 Eu935 2.372 . S
O973 C987 1.257 . S
O974 Eu935 2.462 . S
O974 C999 1.252 . S
O975 Eu935 2.373 . S
O975 C991 1.249 . S
O976 Eu924 2.335 . S
O976 C991 1.264 . S
O977 Eu935 2.432 . S
O977 C999 1.268 . S
O978 Eu935 2.291 . S
O978 C998 1.255 . S
O979 Eu924 2.372 . S
O979 C998 1.257 . S
C980 O969 1.249 . S
C980 O970 1.264 . S
C981 C984 1.382 . S
C981 C986 1.390 . S
C981 C988 1.506 . S
C982 C983 1.398 . S
C982 C986 1.392 . S
C983 C982 1.398 . S
C983 C985 1.372 . S
C983 H1000 0.931 . S
C984 C981 1.382 . S
C984 C985 1.390 . S
C984 H1001 0.931 . S
C985 C983 1.372 . S
C985 C984 1.390 . S
C985 H1002 0.929 . S
C986 C981 1.390 . S
C986 C982 1.392 . S
C986 H1003 0.930 . S
C987 O972 1.255 . S
C987 O973 1.257 . S
C988 Eu924 2.787 . S
C988 O968 1.252 . S
C988 O971 1.268 . S
C988 C981 1.506 . S
C989 C956 1.439 . S
C989 H966 0.931 . S
C989 C990 1.374 . S
C990 C961 1.387 . S
C990 H967 0.931 . S
C990 C989 1.374 . S
C991 O975 1.249 . S
C991 O976 1.264 . S
C992 C995 1.382 . S
C992 C996 1.390 . S
C992 C999 1.506 . S
C993 C994 1.398 . S
C993 C996 1.392 . S
C994 C993 1.398 . S
C994 C997 1.372 . S
C994 H1004 0.931 . S
C995 C992 1.382 . S
C995 C997 1.390 . S
C995 H1005 0.931 . S
C996 C992 1.390 . S
C996 C993 1.392 . S
C996 H1006 0.930 . S
C997 C994 1.372 . S
C997 C995 1.390 . S
C997 H1007 0.929 . S
C998 O978 1.255 . S
C998 O979 1.257 . S
C999 Eu935 2.787 . S
C999 O974 1.252 . S
C999 O977 1.268 . S
C999 C992 1.506 . S
H1000 C983 0.931 . S
H1001 C984 0.931 . S
H1002 C985 0.929 . S
H1003 C986 0.930 . S
H1004 C994 0.931 . S
H1005 C995 0.931 . S
H1006 C996 0.930 . S
H1007 C997 0.929 . S
Eu1008 N1037 2.600 . S
Eu1008 N1043 2.562 . S
Eu1008 O1052 2.462 . S
Eu1008 O1053 2.373 . S
Eu1008 O1055 2.432 . S
Eu1008 O1056 2.291 . S
Eu1008 O1060 2.335 . S
Eu1008 O1063 2.372 . S
Eu1008 C1072 2.787 . S
C1009 N1010 1.365 . S
C1009 C1012 1.405 . S
C1009 C1016 1.448 . S
N1010 C1009 1.365 . S
N1010 C1013 1.319 . S
N1010 Eu1019 2.600 . S
C1011 C1013 1.397 . S
C1011 C1014 1.367 . S
C1011 H1031 0.931 . S
C1012 C1009 1.405 . S
C1012 C1014 1.403 . S
C1012 C1018 1.439 . S
C1013 N1010 1.319 . S
C1013 C1011 1.397 . S
C1013 H1024 0.930 . S
C1014 C1011 1.367 . S
C1014 C1012 1.403 . S
C1014 H1035 0.929 . S
C1015 C1016 1.430 . S
C1015 C1017 1.387 . S
C1015 C1021 1.404 . S
C1016 C1009 1.448 . S
C1016 C1015 1.430 . S
C1016 N1020 1.351 . S
C1017 C1015 1.387 . S
C1017 C1018 1.374 . S
C1017 H1032 0.931 . S
C1018 C1012 1.439 . S
C1018 C1017 1.374 . S
C1018 H1033 0.931 . S
Eu1019 N1010 2.600 . S
Eu1019 N1020 2.562 . S
Eu1019 O1054 2.335 . S
Eu1019 O1057 2.372 . S
Eu1019 O1058 2.462 . S
Eu1019 O1059 2.373 . S
Eu1019 O1061 2.432 . S
Eu1019 O1062 2.291 . S
Eu1019 C1083 2.787 . S
N1020 C1016 1.351 . S
N1020 Eu1019 2.562 . S
N1020 C1022 1.325 . S
C1021 C1015 1.404 . S
C1021 C1023 1.366 . S
C1021 H1029 0.930 . S
C1022 N1020 1.325 . S
C1022 C1023 1.416 . S
C1022 H1028 0.929 . S
C1023 C1021 1.366 . S
C1023 C1022 1.416 . S
C1023 H1025 0.930 . S
H1024 C1013 0.930 . S
H1025 C1023 0.930 . S
H1026 C1041 0.930 . S
H1027 C1048 0.930 . S
H1028 C1022 0.929 . S
H1029 C1021 0.930 . S
H1030 C1044 0.929 . S
H1031 C1011 0.931 . S
H1032 C1017 0.931 . S
H1033 C1018 0.931 . S
H1034 C1039 0.931 . S
H1035 C1014 0.929 . S
H1036 C1047 0.930 . S
N1037 Eu1008 2.600 . S
N1037 C1038 1.365 1_554 S
N1037 C1041 1.319 . S
C1038 N1037 1.365 1_556 S
C1038 C1040 1.405 . S
C1038 C1046 1.448 . S
C1039 H1034 0.931 . S
C1039 C1041 1.397 1_556 S
C1039 C1042 1.367 . S
C1040 C1038 1.405 . S
C1040 C1042 1.403 . S
C1040 C1073 1.439 . S
C1041 H1026 0.930 . S
C1041 N1037 1.319 . S
C1041 C1039 1.397 1_554 S
C1042 C1039 1.367 . S
C1042 C1040 1.403 . S
C1042 H1049 0.929 . S
N1043 Eu1008 2.562 . S
N1043 C1044 1.325 . S
N1043 C1046 1.351 1_554 S
C1044 H1030 0.929 . S
C1044 N1043 1.325 . S
C1044 C1048 1.416 1_554 S
C1045 C1046 1.430 . S
C1045 C1047 1.404 . S
C1045 C1074 1.387 . S
C1046 C1038 1.448 . S
C1046 N1043 1.351 1_556 S
C1046 C1045 1.430 . S
C1047 H1036 0.930 . S
C1047 C1045 1.404 . S
C1047 C1048 1.366 . S
C1048 H1027 0.930 . S
C1048 C1044 1.416 1_556 S
C1048 C1047 1.366 . S
H1049 C1042 0.929 . S
H1050 C1073 0.931 . S
H1051 C1074 0.931 . S
O1052 Eu1008 2.462 . S
O1052 C1072 1.252 . S
O1053 Eu1008 2.373 . S
O1053 C1064 1.263 . S
O1054 Eu1019 2.335 . S
O1054 C1064 1.293 . S
O1055 Eu1008 2.432 . S
O1055 C1072 1.268 . S
O1056 Eu1008 2.291 . S
O1056 C1071 1.255 . S
O1057 Eu1019 2.372 . S
O1057 C1071 1.257 . S
O1058 Eu1019 2.462 . S
O1058 C1083 1.252 . S
O1059 Eu1019 2.373 . S
O1059 C1075 1.249 . S
O1060 Eu1008 2.335 . S
O1060 C1075 1.264 . S
O1061 Eu1019 2.432 . S
O1061 C1083 1.268 . S
O1062 Eu1019 2.291 . S
O1062 C1082 1.255 . S
O1063 Eu1008 2.372 . S
O1063 C1082 1.257 . S
C1064 O1053 1.263 . S
C1064 O1054 1.293 . S
C1065 C1068 1.382 . S
C1065 C1070 1.390 . S
C1065 C1072 1.506 . S
C1066 C1067 1.398 . S
C1066 C1070 1.392 . S
C1067 C1066 1.398 . S
C1067 C1069 1.372 . S
C1067 H1084 0.931 . S
C1068 C1065 1.382 . S
C1068 C1069 1.390 . S
C1068 H1085 0.931 . S
C1069 C1067 1.372 . S
C1069 C1068 1.390 . S
C1069 H1086 0.929 . S
C1070 C1065 1.390 . S
C1070 C1066 1.392 . S
C1070 H1087 0.930 . S
C1071 O1056 1.255 . S
C1071 O1057 1.257 . S
C1072 Eu1008 2.787 . S
C1072 O1052 1.252 . S
C1072 O1055 1.268 . S
C1072 C1065 1.506 . S
C1073 C1040 1.439 . S
C1073 H1050 0.931 . S
C1073 C1074 1.374 . S
C1074 C1045 1.387 . S
C1074 H1051 0.931 . S
C1074 C1073 1.374 . S
C1075 O1059 1.249 . S
C1075 O1060 1.264 . S
C1076 C1079 1.382 . S
C1076 C1080 1.390 . S
C1076 C1083 1.506 . S
C1077 C1078 1.398 . S
C1077 C1080 1.392 1_556 S
C1078 C1077 1.398 . S
C1078 C1081 1.372 1_556 S
C1078 H1088 0.931 . S
C1079 C1076 1.382 . S
C1079 C1081 1.390 . S
C1079 H1089 0.931 . S
C1080 C1076 1.390 . S
C1080 C1077 1.392 1_554 S
C1080 H1090 0.930 . S
C1081 C1078 1.372 1_554 S
C1081 C1079 1.390 . S
C1081 H1091 0.929 . S
C1082 O1062 1.255 . S
C1082 O1063 1.257 . S
C1083 Eu1019 2.787 . S
C1083 O1058 1.252 . S
C1083 O1061 1.268 . S
C1083 C1076 1.506 . S
H1084 C1067 0.931 . S
H1085 C1068 0.931 . S
H1086 C1069 0.929 . S
H1087 C1070 0.930 . S
H1088 C1078 0.931 . S
H1089 C1079 0.931 . S
H1090 C1080 0.930 . S
H1091 C1081 0.929 . S
Eu1092 N1121 2.600 . S
Eu1092 N1127 2.562 . S
Eu1092 O1136 2.462 . S
Eu1092 O1137 2.373 . S
Eu1092 O1139 2.432 . S
Eu1092 O1140 2.291 . S
Eu1092 O1144 2.335 . S
Eu1092 O1147 2.372 . S
Eu1092 C1156 2.787 . S
C1093 N1094 1.365 . S
C1093 C1096 1.405 . S
C1093 C1100 1.448 . S
N1094 C1093 1.365 . S
N1094 C1097 1.319 . S
N1094 Eu1103 2.600 . S
C1095 C1097 1.397 . S
C1095 C1098 1.367 . S
C1095 H1115 0.931 . S
C1096 C1093 1.405 . S
C1096 C1098 1.403 . S
C1096 C1102 1.439 . S
C1097 N1094 1.319 . S
C1097 C1095 1.397 . S
C1097 H1108 0.930 . S
C1098 C1095 1.367 . S
C1098 C1096 1.403 . S
C1098 H1119 0.929 . S
C1099 C1100 1.430 . S
C1099 C1101 1.387 . S
C1099 C1105 1.404 . S
C1100 C1093 1.448 . S
C1100 C1099 1.430 . S
C1100 N1104 1.351 . S
C1101 C1099 1.387 . S
C1101 C1102 1.374 . S
C1101 H1116 0.931 . S
C1102 C1096 1.439 . S
C1102 C1101 1.374 . S
C1102 H1117 0.931 . S
Eu1103 N1094 2.600 . S
Eu1103 N1104 2.562 . S
Eu1103 O1138 2.335 . S
Eu1103 O1141 2.372 . S
Eu1103 O1142 2.462 . S
Eu1103 O1143 2.373 . S
Eu1103 O1145 2.432 . S
Eu1103 O1146 2.291 . S
Eu1103 C1167 2.787 . S
N1104 C1100 1.351 . S
N1104 Eu1103 2.562 . S
N1104 C1106 1.325 . S
C1105 C1099 1.404 . S
C1105 C1107 1.366 . S
C1105 H1113 0.930 . S
C1106 N1104 1.325 . S
C1106 C1107 1.416 . S
C1106 H1112 0.929 . S
C1107 C1105 1.366 . S
C1107 C1106 1.416 . S
C1107 H1109 0.930 . S
H1108 C1097 0.930 . S
H1109 C1107 0.930 . S
H1110 C1125 0.930 . S
H1111 C1132 0.930 . S
H1112 C1106 0.929 . S
H1113 C1105 0.930 . S
H1114 C1128 0.929 . S
H1115 C1095 0.931 . S
H1116 C1101 0.931 . S
H1117 C1102 0.931 . S
H1118 C1123 0.931 . S
H1119 C1098 0.929 . S
H1120 C1131 0.930 . S
N1121 Eu1092 2.600 . S
N1121 C1122 1.365 . S
N1121 C1125 1.319 . S
C1122 N1121 1.365 . S
C1122 C1124 1.405 . S
C1122 C1130 1.448 . S
C1123 H1118 0.931 . S
C1123 C1125 1.397 . S
C1123 C1126 1.367 . S
C1124 C1122 1.405 . S
C1124 C1126 1.403 . S
C1124 C1157 1.439 . S
C1125 H1110 0.930 . S
C1125 N1121 1.319 . S
C1125 C1123 1.397 . S
C1126 C1123 1.367 . S
C1126 C1124 1.403 . S
C1126 H1133 0.929 . S
N1127 Eu1092 2.562 . S
N1127 C1128 1.325 . S
N1127 C1130 1.351 . S
C1128 H1114 0.929 . S
C1128 N1127 1.325 . S
C1128 C1132 1.416 . S
C1129 C1130 1.430 . S
C1129 C1131 1.404 . S
C1129 C1158 1.387 . S
C1130 C1122 1.448 . S
C1130 N1127 1.351 . S
C1130 C1129 1.430 . S
C1131 H1120 0.930 . S
C1131 C1129 1.404 . S
C1131 C1132 1.366 . S
C1132 H1111 0.930 . S
C1132 C1128 1.416 . S
C1132 C1131 1.366 . S
H1133 C1126 0.929 . S
H1134 C1157 0.931 . S
H1135 C1158 0.931 . S
O1136 Eu1092 2.462 . S
O1136 C1156 1.252 . S
O1137 Eu1092 2.373 . S
O1137 C1148 1.249 . S
O1138 Eu1103 2.335 . S
O1138 C1148 1.264 . S
O1139 Eu1092 2.432 . S
O1139 C1156 1.268 . S
O1140 Eu1092 2.291 . S
O1140 C1155 1.255 . S
O1141 Eu1103 2.372 . S
O1141 C1155 1.257 . S
O1142 Eu1103 2.462 . S
O1142 C1167 1.252 . S
O1143 Eu1103 2.373 . S
O1143 C1159 1.249 . S
O1144 Eu1092 2.335 . S
O1144 C1159 1.264 . S
O1145 Eu1103 2.432 . S
O1145 C1167 1.268 . S
O1146 Eu1103 2.291 . S
O1146 C1166 1.255 . S
O1147 Eu1092 2.372 . S
O1147 C1166 1.257 . S
C1148 O1137 1.249 . S
C1148 O1138 1.264 . S
C1149 C1152 1.382 . S
C1149 C1154 1.390 . S
C1149 C1156 1.506 . S
C1150 C1151 1.398 . S
C1150 C1154 1.392 . S
C1151 C1150 1.398 . S
C1151 C1153 1.372 . S
C1151 H1168 0.931 . S
C1152 C1149 1.382 . S
C1152 C1153 1.390 . S
C1152 H1169 0.931 . S
C1153 C1151 1.372 . S
C1153 C1152 1.390 . S
C1153 H1170 0.929 . S
C1154 C1149 1.390 . S
C1154 C1150 1.392 . S
C1154 H1171 0.930 . S
C1155 O1140 1.255 . S
C1155 O1141 1.257 . S
C1156 Eu1092 2.787 . S
C1156 O1136 1.252 . S
C1156 O1139 1.268 . S
C1156 C1149 1.506 . S
C1157 C1124 1.439 . S
C1157 H1134 0.931 . S
C1157 C1158 1.374 . S
C1158 C1129 1.387 . S
C1158 H1135 0.931 . S
C1158 C1157 1.374 . S
C1159 O1143 1.249 . S
C1159 O1144 1.264 . S
C1160 C1163 1.382 . S
C1160 C1164 1.390 . S
C1160 C1167 1.506 . S
C1161 C1162 1.398 . S
C1161 C1164 1.392 . S
C1162 C1161 1.398 . S
C1162 C1165 1.372 . S
C1162 H1172 0.931 . S
C1163 C1160 1.382 . S
C1163 C1165 1.390 . S
C1163 H1173 0.931 . S
C1164 C1160 1.390 . S
C1164 C1161 1.392 . S
C1164 H1174 0.930 . S
C1165 C1162 1.372 . S
C1165 C1163 1.390 . S
C1165 H1175 0.929 . S
C1166 O1146 1.255 . S
C1166 O1147 1.257 . S
C1167 Eu1103 2.787 . S
C1167 O1142 1.252 . S
C1167 O1145 1.268 . S
C1167 C1160 1.506 . S
H1168 C1151 0.931 . S
H1169 C1152 0.931 . S
H1170 C1153 0.929 . S
H1171 C1154 0.930 . S
H1172 C1162 0.931 . S
H1173 C1163 0.931 . S
H1174 C1164 0.930 . S
H1175 C1165 0.929 . S
Eu1176 N1205 2.600 1_455 S
Eu1176 N1211 2.562 1_455 S
Eu1176 O1220 2.462 . S
Eu1176 O1221 2.373 1_455 S
Eu1176 O1223 2.432 . S
Eu1176 O1224 2.291 . S
Eu1176 O1228 2.335 . S
Eu1176 O1231 2.372 . S
Eu1176 C1240 2.787 . S
C1177 N1178 1.365 . S
C1177 C1180 1.405 . S
C1177 C1184 1.448 . S
N1178 C1177 1.365 . S
N1178 C1181 1.319 . S
N1178 Eu1187 2.600 . S
C1179 C1181 1.397 . S
C1179 C1182 1.367 . S
C1179 H1199 0.931 . S
C1180 C1177 1.405 . S
C1180 C1182 1.403 . S
C1180 C1186 1.439 . S
C1181 N1178 1.319 . S
C1181 C1179 1.397 . S
C1181 H1192 0.930 . S
C1182 C1179 1.367 . S
C1182 C1180 1.403 . S
C1182 H1203 0.929 . S
C1183 C1184 1.430 . S
C1183 C1185 1.387 . S
C1183 C1189 1.404 . S
C1184 C1177 1.448 . S
C1184 C1183 1.430 . S
C1184 N1188 1.351 . S
C1185 C1183 1.387 . S
C1185 C1186 1.374 . S
C1185 H1200 0.931 . S
C1186 C1180 1.439 . S
C1186 C1185 1.374 . S
C1186 H1201 0.931 . S
Eu1187 N1178 2.600 . S
Eu1187 N1188 2.562 . S
Eu1187 O1222 2.335 1_455 S
Eu1187 O1225 2.372 . S
Eu1187 O1226 2.462 . S
Eu1187 O1227 2.373 . S
Eu1187 O1229 2.432 . S
Eu1187 O1230 2.291 . S
Eu1187 C1251 2.787 . S
N1188 C1184 1.351 . S
N1188 Eu1187 2.562 . S
N1188 C1190 1.325 . S
C1189 C1183 1.404 . S
C1189 C1191 1.366 . S
C1189 H1197 0.930 . S
C1190 N1188 1.325 . S
C1190 C1191 1.416 . S
C1190 H1196 0.929 . S
C1191 C1189 1.366 . S
C1191 C1190 1.416 . S
C1191 H1193 0.930 . S
H1192 C1181 0.930 . S
H1193 C1191 0.930 . S
H1194 C1209 0.930 1_455 S
H1195 C1216 0.930 . S
H1196 C1190 0.929 . S
H1197 C1189 0.930 . S
H1198 C1212 0.929 . S
H1199 C1179 0.931 . S
H1200 C1185 0.931 . S
H1201 C1186 0.931 . S
H1202 C1207 0.931 . S
H1203 C1182 0.929 . S
H1204 C1215 0.930 . S
N1205 Eu1176 2.600 1_655 S
N1205 C1206 1.365 . S
N1205 C1209 1.319 . S
C1206 N1205 1.365 . S
C1206 C1208 1.405 . S
C1206 C1214 1.448 . S
C1207 H1202 0.931 . S
C1207 C1209 1.397 . S
C1207 C1210 1.367 . S
C1208 C1206 1.405 . S
C1208 C1210 1.403 . S
C1208 C1241 1.439 . S
C1209 H1194 0.930 1_655 S
C1209 N1205 1.319 . S
C1209 C1207 1.397 . S
C1210 C1207 1.367 . S
C1210 C1208 1.403 . S
C1210 H1217 0.929 . S
N1211 Eu1176 2.562 1_655 S
N1211 C1212 1.325 . S
N1211 C1214 1.351 . S
C1212 H1198 0.929 . S
C1212 N1211 1.325 . S
C1212 C1216 1.416 . S
C1213 C1214 1.430 . S
C1213 C1215 1.404 . S
C1213 C1242 1.387 . S
C1214 C1206 1.448 . S
C1214 N1211 1.351 . S
C1214 C1213 1.430 . S
C1215 H1204 0.930 . S
C1215 C1213 1.404 . S
C1215 C1216 1.366 . S
C1216 H1195 0.930 . S
C1216 C1212 1.416 . S
C1216 C1215 1.366 . S
H1217 C1210 0.929 . S
H1218 C1241 0.931 . S
H1219 C1242 0.931 . S
O1220 Eu1176 2.462 . S
O1220 C1240 1.252 . S
O1221 Eu1176 2.373 1_655 S
O1221 C1232 1.249 . S
O1222 Eu1187 2.335 1_655 S
O1222 C1232 1.264 . S
O1223 Eu1176 2.432 . S
O1223 C1240 1.268 . S
O1224 Eu1176 2.291 . S
O1224 C1239 1.255 . S
O1225 Eu1187 2.372 . S
O1225 C1239 1.257 . S
O1226 Eu1187 2.462 . S
O1226 C1251 1.252 . S
O1227 Eu1187 2.373 . S
O1227 C1243 1.249 . S
O1228 Eu1176 2.335 . S
O1228 C1243 1.264 . S
O1229 Eu1187 2.432 . S
O1229 C1251 1.268 . S
O1230 Eu1187 2.291 . S
O1230 C1250 1.255 . S
O1231 Eu1176 2.372 . S
O1231 C1250 1.257 . S
C1232 O1221 1.249 . S
C1232 O1222 1.264 . S
C1233 C1236 1.382 . S
C1233 C1238 1.390 . S
C1233 C1240 1.506 . S
C1234 C1235 1.398 . S
C1234 C1238 1.392 . S
C1235 C1234 1.398 . S
C1235 C1237 1.372 . S
C1235 H1252 0.931 . S
C1236 C1233 1.382 . S
C1236 C1237 1.390 . S
C1236 H1253 0.931 . S
C1237 C1235 1.372 . S
C1237 C1236 1.390 . S
C1237 H1254 0.929 . S
C1238 C1233 1.390 . S
C1238 C1234 1.392 . S
C1238 H1255 0.930 . S
C1239 O1224 1.255 . S
C1239 O1225 1.257 . S
C1240 Eu1176 2.787 . S
C1240 O1220 1.252 . S
C1240 O1223 1.268 . S
C1240 C1233 1.506 . S
C1241 C1208 1.439 . S
C1241 H1218 0.931 . S
C1241 C1242 1.374 . S
C1242 C1213 1.387 . S
C1242 H1219 0.931 . S
C1242 C1241 1.374 . S
C1243 O1227 1.249 . S
C1243 O1228 1.264 . S
C1244 C1247 1.382 . S
C1244 C1248 1.390 . S
C1244 C1251 1.506 1_655 S
C1245 C1246 1.398 . S
C1245 C1248 1.392 . S
C1246 C1245 1.398 . S
C1246 C1249 1.372 . S
C1246 H1256 0.931 . S
C1247 C1244 1.382 . S
C1247 C1249 1.390 . S
C1247 H1257 0.931 . S
C1248 C1244 1.390 . S
C1248 C1245 1.392 . S
C1248 H1258 0.930 . S
C1249 C1246 1.372 . S
C1249 C1247 1.390 . S
C1249 H1259 0.929 . S
C1250 O1230 1.255 . S
C1250 O1231 1.257 . S
C1251 Eu1187 2.787 . S
C1251 O1226 1.252 . S
C1251 O1229 1.268 . S
C1251 C1244 1.506 1_455 S
H1252 C1235 0.931 . S
H1253 C1236 0.931 . S
H1254 C1237 0.929 . S
H1255 C1238 0.930 . S
H1256 C1246 0.931 . S
H1257 C1247 0.931 . S
H1258 C1248 0.930 . S
H1259 C1249 0.929 . S
Eu1260 N1289 2.600 . S
Eu1260 N1295 2.562 . S
Eu1260 O1304 2.462 . S
Eu1260 O1305 2.373 . S
Eu1260 O1307 2.432 . S
Eu1260 O1308 2.291 . S
Eu1260 O1312 2.335 . S
Eu1260 O1315 2.372 . S
Eu1260 C1324 2.787 . S
C1261 N1262 1.365 . S
C1261 C1264 1.405 . S
C1261 C1268 1.448 . S
N1262 C1261 1.365 . S
N1262 C1265 1.319 . S
N1262 Eu1271 2.600 . S
C1263 C1265 1.397 . S
C1263 C1266 1.367 . S
C1263 H1283 0.931 . S
C1264 C1261 1.405 . S
C1264 C1266 1.403 . S
C1264 C1270 1.439 . S
C1265 N1262 1.319 . S
C1265 C1263 1.397 . S
C1265 H1276 0.930 . S
C1266 C1263 1.367 . S
C1266 C1264 1.403 . S
C1266 H1287 0.929 . S
C1267 C1268 1.430 . S
C1267 C1269 1.387 . S
C1267 C1273 1.404 . S
C1268 C1261 1.448 . S
C1268 C1267 1.430 . S
C1268 N1272 1.351 . S
C1269 C1267 1.387 . S
C1269 C1270 1.374 . S
C1269 H1284 0.931 . S
C1270 C1264 1.439 . S
C1270 C1269 1.374 . S
C1270 H1285 0.931 . S
Eu1271 N1262 2.600 . S
Eu1271 N1272 2.562 . S
Eu1271 O1306 2.335 . S
Eu1271 O1309 2.372 . S
Eu1271 O1310 2.462 . S
Eu1271 O1311 2.373 . S
Eu1271 O1313 2.432 . S
Eu1271 O1314 2.291 . S
Eu1271 C1335 2.787 . S
N1272 C1268 1.351 . S
N1272 Eu1271 2.562 . S
N1272 C1274 1.325 . S
C1273 C1267 1.404 . S
C1273 C1275 1.366 . S
C1273 H1281 0.930 . S
C1274 N1272 1.325 . S
C1274 C1275 1.416 . S
C1274 H1280 0.929 . S
C1275 C1273 1.366 . S
C1275 C1274 1.416 . S
C1275 H1277 0.930 . S
H1276 C1265 0.930 . S
H1277 C1275 0.930 . S
H1278 C1293 0.930 . S
H1279 C1300 0.930 . S
H1280 C1274 0.929 . S
H1281 C1273 0.930 . S
H1282 C1296 0.929 . S
H1283 C1263 0.931 . S
H1284 C1269 0.931 . S
H1285 C1270 0.931 . S
H1286 C1291 0.931 . S
H1287 C1266 0.929 . S
H1288 C1299 0.930 . S
N1289 Eu1260 2.600 . S
N1289 C1290 1.365 . S
N1289 C1293 1.319 . S
C1290 N1289 1.365 . S
C1290 C1292 1.405 . S
C1290 C1298 1.448 . S
C1291 H1286 0.931 . S
C1291 C1293 1.397 . S
C1291 C1294 1.367 . S
C1292 C1290 1.405 . S
C1292 C1294 1.403 . S
C1292 C1325 1.439 . S
C1293 H1278 0.930 . S
C1293 N1289 1.319 . S
C1293 C1291 1.397 . S
C1294 C1291 1.367 . S
C1294 C1292 1.403 . S
C1294 H1301 0.929 . S
N1295 Eu1260 2.562 . S
N1295 C1296 1.325 . S
N1295 C1298 1.351 . S
C1296 H1282 0.929 . S
C1296 N1295 1.325 . S
C1296 C1300 1.416 . S
C1297 C1298 1.430 . S
C1297 C1299 1.404 . S
C1297 C1326 1.387 . S
C1298 C1290 1.448 . S
C1298 N1295 1.351 . S
C1298 C1297 1.430 . S
C1299 H1288 0.930 . S
C1299 C1297 1.404 . S
C1299 C1300 1.366 . S
C1300 H1279 0.930 . S
C1300 C1296 1.416 . S
C1300 C1299 1.366 . S
H1301 C1294 0.929 . S
H1302 C1325 0.931 . S
H1303 C1326 0.931 . S
O1304 Eu1260 2.462 . S
O1304 C1324 1.252 . S
O1305 Eu1260 2.373 . S
O1305 C1316 1.249 . S
O1306 Eu1271 2.335 . S
O1306 C1316 1.264 . S
O1307 Eu1260 2.432 . S
O1307 C1324 1.268 . S
O1308 Eu1260 2.291 . S
O1308 C1323 1.255 . S
O1309 Eu1271 2.372 . S
O1309 C1323 1.257 . S
O1310 Eu1271 2.462 . S
O1310 C1335 1.252 . S
O1311 Eu1271 2.373 . S
O1311 C1327 1.249 . S
O1312 Eu1260 2.335 . S
O1312 C1327 1.264 . S
O1313 Eu1271 2.432 . S
O1313 C1335 1.268 . S
O1314 Eu1271 2.291 . S
O1314 C1334 1.255 . S
O1315 Eu1260 2.372 . S
O1315 C1334 1.257 . S
C1316 O1305 1.249 . S
C1316 O1306 1.264 . S
C1317 C1320 1.382 . S
C1317 C1322 1.390 . S
C1317 C1324 1.506 . S
C1318 C1319 1.398 . S
C1318 C1322 1.392 . S
C1319 C1318 1.398 . S
C1319 C1321 1.372 . S
C1319 H1336 0.931 . S
C1320 C1317 1.382 . S
C1320 C1321 1.390 . S
C1320 H1337 0.931 . S
C1321 C1319 1.372 . S
C1321 C1320 1.390 . S
C1321 H1338 0.929 . S
C1322 C1317 1.390 . S
C1322 C1318 1.392 . S
C1322 H1339 0.930 . S
C1323 O1308 1.255 . S
C1323 O1309 1.257 . S
C1324 Eu1260 2.787 . S
C1324 O1304 1.252 . S
C1324 O1307 1.268 . S
C1324 C1317 1.506 . S
C1325 C1292 1.439 . S
C1325 H1302 0.931 . S
C1325 C1326 1.374 . S
C1326 C1297 1.387 . S
C1326 H1303 0.931 . S
C1326 C1325 1.374 . S
C1327 O1311 1.249 . S
C1327 O1312 1.264 . S
C1328 C1331 1.382 . S
C1328 C1332 1.390 . S
C1328 C1335 1.506 . S
C1329 C1330 1.398 . S
C1329 C1332 1.392 . S
C1330 C1329 1.398 . S
C1330 C1333 1.372 . S
C1330 H1340 0.931 . S
C1331 C1328 1.382 . S
C1331 C1333 1.390 . S
C1331 H1341 0.931 . S
C1332 C1328 1.390 . S
C1332 C1329 1.392 . S
C1332 H1342 0.930 . S
C1333 C1330 1.372 . S
C1333 C1331 1.390 . S
C1333 H1343 0.929 . S
C1334 O1314 1.255 . S
C1334 O1315 1.257 . S
C1335 Eu1271 2.787 . S
C1335 O1310 1.252 . S
C1335 O1313 1.268 . S
C1335 C1328 1.506 . S
H1336 C1319 0.931 . S
H1337 C1320 0.931 . S
H1338 C1321 0.929 . S
H1339 C1322 0.930 . S
H1340 C1330 0.931 . S
H1341 C1331 0.931 . S
H1342 C1332 0.930 . S
H1343 C1333 0.929 . S
Eu1344 N1373 2.600 . S
Eu1344 N1379 2.562 . S
Eu1344 O1388 2.462 . S
Eu1344 O1389 2.373 . S
Eu1344 O1391 2.432 . S
Eu1344 O1392 2.291 . S
Eu1344 O1396 2.335 . S
Eu1344 O1399 2.372 . S
Eu1344 C1408 2.787 . S
C1345 N1346 1.365 . S
C1345 C1348 1.405 . S
C1345 C1352 1.448 . S
N1346 C1345 1.365 . S
N1346 C1349 1.319 . S
N1346 Eu1355 2.600 . S
C1347 C1349 1.397 . S
C1347 C1350 1.367 . S
C1347 H1367 0.931 . S
C1348 C1345 1.405 . S
C1348 C1350 1.403 . S
C1348 C1354 1.439 . S
C1349 N1346 1.319 . S
C1349 C1347 1.397 . S
C1349 H1360 0.930 . S
C1350 C1347 1.367 . S
C1350 C1348 1.403 . S
C1350 H1371 0.929 . S
C1351 C1352 1.430 . S
C1351 C1353 1.387 . S
C1351 C1357 1.404 . S
C1352 C1345 1.448 . S
C1352 C1351 1.430 . S
C1352 N1356 1.351 . S
C1353 C1351 1.387 . S
C1353 C1354 1.374 . S
C1353 H1368 0.931 . S
C1354 C1348 1.439 . S
C1354 C1353 1.374 . S
C1354 H1369 0.931 . S
Eu1355 N1346 2.600 . S
Eu1355 N1356 2.562 . S
Eu1355 O1390 2.335 . S
Eu1355 O1393 2.372 . S
Eu1355 O1394 2.462 . S
Eu1355 O1395 2.373 . S
Eu1355 O1397 2.432 . S
Eu1355 O1398 2.291 . S
Eu1355 C1419 2.787 . S
N1356 C1352 1.351 . S
N1356 Eu1355 2.562 . S
N1356 C1358 1.325 . S
C1357 C1351 1.404 . S
C1357 C1359 1.366 . S
C1357 H1365 0.930 . S
C1358 N1356 1.325 . S
C1358 C1359 1.416 . S
C1358 H1364 0.929 . S
C1359 C1357 1.366 . S
C1359 C1358 1.416 . S
C1359 H1361 0.930 . S
H1360 C1349 0.930 . S
H1361 C1359 0.930 . S
H1362 C1377 0.930 . S
H1363 C1384 0.930 . S
H1364 C1358 0.929 . S
H1365 C1357 0.930 . S
H1366 C1380 0.929 . S
H1367 C1347 0.931 . S
H1368 C1353 0.931 . S
H1369 C1354 0.931 . S
H1370 C1375 0.931 . S
H1371 C1350 0.929 . S
H1372 C1383 0.930 . S
N1373 Eu1344 2.600 . S
N1373 C1374 1.365 . S
N1373 C1377 1.319 . S
C1374 N1373 1.365 . S
C1374 C1376 1.405 . S
C1374 C1382 1.448 . S
C1375 H1370 0.931 . S
C1375 C1377 1.397 . S
C1375 C1378 1.367 . S
C1376 C1374 1.405 . S
C1376 C1378 1.403 . S
C1376 C1409 1.439 . S
C1377 H1362 0.930 . S
C1377 N1373 1.319 . S
C1377 C1375 1.397 . S
C1378 C1375 1.367 . S
C1378 C1376 1.403 . S
C1378 H1385 0.929 . S
N1379 Eu1344 2.562 . S
N1379 C1380 1.325 . S
N1379 C1382 1.351 . S
C1380 H1366 0.929 . S
C1380 N1379 1.325 . S
C1380 C1384 1.416 . S
C1381 C1382 1.430 . S
C1381 C1383 1.404 . S
C1381 C1410 1.387 . S
C1382 C1374 1.448 . S
C1382 N1379 1.351 . S
C1382 C1381 1.430 . S
C1383 H1372 0.930 . S
C1383 C1381 1.404 . S
C1383 C1384 1.366 . S
C1384 H1363 0.930 . S
C1384 C1380 1.416 . S
C1384 C1383 1.366 . S
H1385 C1378 0.929 . S
H1386 C1409 0.931 . S
H1387 C1410 0.931 . S
O1388 Eu1344 2.462 . S
O1388 C1408 1.252 . S
O1389 Eu1344 2.373 . S
O1389 C1400 1.249 . S
O1390 Eu1355 2.335 . S
O1390 C1400 1.264 . S
O1391 Eu1344 2.432 . S
O1391 C1408 1.268 . S
O1392 Eu1344 2.291 . S
O1392 C1407 1.255 . S
O1393 Eu1355 2.372 . S
O1393 C1407 1.257 . S
O1394 Eu1355 2.462 . S
O1394 C1419 1.252 . S
O1395 Eu1355 2.373 . S
O1395 C1411 1.249 . S
O1396 Eu1344 2.335 . S
O1396 C1411 1.264 . S
O1397 Eu1355 2.432 . S
O1397 C1419 1.268 . S
O1398 Eu1355 2.291 . S
O1398 C1418 1.255 . S
O1399 Eu1344 2.372 . S
O1399 C1418 1.257 . S
C1400 O1389 1.249 . S
C1400 O1390 1.264 . S
C1401 C1404 1.382 . S
C1401 C1406 1.390 . S
C1401 C1408 1.506 . S
C1402 C1403 1.398 . S
C1402 C1406 1.392 . S
C1403 C1402 1.398 . S
C1403 C1405 1.372 . S
C1403 H1420 0.931 . S
C1404 C1401 1.382 . S
C1404 C1405 1.390 . S
C1404 H1421 0.931 . S
C1405 C1403 1.372 . S
C1405 C1404 1.390 . S
C1405 H1422 0.929 . S
C1406 C1401 1.390 . S
C1406 C1402 1.392 . S
C1406 H1423 0.930 . S
C1407 O1392 1.255 . S
C1407 O1393 1.257 . S
C1408 Eu1344 2.787 . S
C1408 O1388 1.252 . S
C1408 O1391 1.268 . S
C1408 C1401 1.506 . S
C1409 C1376 1.439 . S
C1409 H1386 0.931 . S
C1409 C1410 1.374 . S
C1410 C1381 1.387 . S
C1410 H1387 0.931 . S
C1410 C1409 1.374 . S
C1411 O1395 1.249 . S
C1411 O1396 1.264 . S
C1412 C1415 1.382 . S
C1412 C1416 1.390 . S
C1412 C1419 1.506 . S
C1413 C1414 1.398 . S
C1413 C1416 1.392 . S
C1414 C1413 1.398 . S
C1414 C1417 1.372 . S
C1414 H1424 0.931 . S
C1415 C1412 1.382 . S
C1415 C1417 1.390 . S
C1415 H1425 0.931 . S
C1416 C1412 1.390 . S
C1416 C1413 1.392 . S
C1416 H1426 0.930 . S
C1417 C1414 1.372 . S
C1417 C1415 1.390 . S
C1417 H1427 0.929 . S
C1418 O1398 1.255 . S
C1418 O1399 1.257 . S
C1419 Eu1355 2.787 . S
C1419 O1394 1.252 . S
C1419 O1397 1.268 . S
C1419 C1412 1.506 . S
H1420 C1403 0.931 . S
H1421 C1404 0.931 . S
H1422 C1405 0.929 . S
H1423 C1406 0.930 . S
H1424 C1414 0.931 . S
H1425 C1415 0.931 . S
H1426 C1416 0.930 . S
H1427 C1417 0.929 . S
Eu1428 N1457 2.600 . S
Eu1428 N1463 2.562 . S
Eu1428 O1472 2.462 . S
Eu1428 O1473 2.373 . S
Eu1428 O1475 2.432 . S
Eu1428 O1476 2.291 . S
Eu1428 O1480 2.335 . S
Eu1428 O1483 2.372 . S
Eu1428 C1492 2.787 . S
C1429 N1430 1.365 . S
C1429 C1432 1.405 . S
C1429 C1436 1.448 . S
N1430 C1429 1.365 . S
N1430 C1433 1.319 . S
N1430 Eu1439 2.600 . S
C1431 C1433 1.397 . S
C1431 C1434 1.367 . S
C1431 H1451 0.931 . S
C1432 C1429 1.405 . S
C1432 C1434 1.403 . S
C1432 C1438 1.439 . S
C1433 N1430 1.319 . S
C1433 C1431 1.397 . S
C1433 H1444 0.930 . S
C1434 C1431 1.367 . S
C1434 C1432 1.403 . S
C1434 H1455 0.929 . S
C1435 C1436 1.430 . S
C1435 C1437 1.387 . S
C1435 C1441 1.404 . S
C1436 C1429 1.448 . S
C1436 C1435 1.430 . S
C1436 N1440 1.351 . S
C1437 C1435 1.387 . S
C1437 C1438 1.374 . S
C1437 H1452 0.931 . S
C1438 C1432 1.439 . S
C1438 C1437 1.374 . S
C1438 H1453 0.931 . S
Eu1439 N1430 2.600 . S
Eu1439 N1440 2.562 . S
Eu1439 O1474 2.335 . S
Eu1439 O1477 2.372 . S
Eu1439 O1478 2.462 . S
Eu1439 O1479 2.373 . S
Eu1439 O1481 2.432 . S
Eu1439 O1482 2.291 . S
Eu1439 C1503 2.787 . S
N1440 C1436 1.351 . S
N1440 Eu1439 2.562 . S
N1440 C1442 1.325 . S
C1441 C1435 1.404 . S
C1441 C1443 1.366 . S
C1441 H1449 0.930 . S
C1442 N1440 1.325 . S
C1442 C1443 1.416 . S
C1442 H1448 0.929 . S
C1443 C1441 1.366 . S
C1443 C1442 1.416 . S
C1443 H1445 0.930 . S
H1444 C1433 0.930 . S
H1445 C1443 0.930 . S
H1446 C1461 0.930 . S
H1447 C1468 0.930 . S
H1448 C1442 0.929 . S
H1449 C1441 0.930 . S
H1450 C1464 0.929 . S
H1451 C1431 0.931 . S
H1452 C1437 0.931 . S
H1453 C1438 0.931 . S
H1454 C1459 0.931 . S
H1455 C1434 0.929 . S
H1456 C1467 0.930 . S
N1457 Eu1428 2.600 . S
N1457 C1458 1.365 . S
N1457 C1461 1.319 . S
C1458 N1457 1.365 . S
C1458 C1460 1.405 . S
C1458 C1466 1.448 . S
C1459 H1454 0.931 . S
C1459 C1461 1.397 . S
C1459 C1462 1.367 . S
C1460 C1458 1.405 . S
C1460 C1462 1.403 . S
C1460 C1493 1.439 . S
C1461 H1446 0.930 . S
C1461 N1457 1.319 . S
C1461 C1459 1.397 . S
C1462 C1459 1.367 . S
C1462 C1460 1.403 . S
C1462 H1469 0.929 . S
N1463 Eu1428 2.562 . S
N1463 C1464 1.325 . S
N1463 C1466 1.351 . S
C1464 H1450 0.929 . S
C1464 N1463 1.325 . S
C1464 C1468 1.416 . S
C1465 C1466 1.430 . S
C1465 C1467 1.404 . S
C1465 C1494 1.387 . S
C1466 C1458 1.448 . S
C1466 N1463 1.351 . S
C1466 C1465 1.430 . S
C1467 H1456 0.930 . S
C1467 C1465 1.404 . S
C1467 C1468 1.366 . S
C1468 H1447 0.930 . S
C1468 C1464 1.416 . S
C1468 C1467 1.366 . S
H1469 C1462 0.929 . S
H1470 C1493 0.931 . S
H1471 C1494 0.931 . S
O1472 Eu1428 2.462 . S
O1472 C1492 1.252 . S
O1473 Eu1428 2.373 . S
O1473 C1484 1.249 . S
O1474 Eu1439 2.335 . S
O1474 C1484 1.264 . S
O1475 Eu1428 2.432 . S
O1475 C1492 1.268 . S
O1476 Eu1428 2.291 . S
O1476 C1491 1.255 . S
O1477 Eu1439 2.372 . S
O1477 C1491 1.257 . S
O1478 Eu1439 2.462 . S
O1478 C1503 1.252 . S
O1479 Eu1439 2.373 . S
O1479 C1495 1.249 . S
O1480 Eu1428 2.335 . S
O1480 C1495 1.264 . S
O1481 Eu1439 2.432 . S
O1481 C1503 1.268 . S
O1482 Eu1439 2.291 . S
O1482 C1502 1.255 . S
O1483 Eu1428 2.372 . S
O1483 C1502 1.257 . S
C1484 O1473 1.249 . S
C1484 O1474 1.264 . S
C1485 C1488 1.382 . S
C1485 C1490 1.390 . S
C1485 C1492 1.506 . S
C1486 C1487 1.398 . S
C1486 C1490 1.392 . S
C1487 C1486 1.398 . S
C1487 C1489 1.372 . S
C1487 H1504 0.931 . S
C1488 C1485 1.382 . S
C1488 C1489 1.390 . S
C1488 H1505 0.931 . S
C1489 C1487 1.372 . S
C1489 C1488 1.390 . S
C1489 H1506 0.929 . S
C1490 C1485 1.390 . S
C1490 C1486 1.392 . S
C1490 H1507 0.930 . S
C1491 O1476 1.255 . S
C1491 O1477 1.257 . S
C1492 Eu1428 2.787 . S
C1492 O1472 1.252 . S
C1492 O1475 1.268 . S
C1492 C1485 1.506 . S
C1493 C1460 1.439 . S
C1493 H1470 0.931 . S
C1493 C1494 1.374 . S
C1494 C1465 1.387 . S
C1494 H1471 0.931 . S
C1494 C1493 1.374 . S
C1495 O1479 1.249 . S
C1495 O1480 1.264 . S
C1496 C1499 1.382 . S
C1496 C1500 1.390 . S
C1496 C1503 1.506 . S
C1497 C1498 1.398 . S
C1497 C1500 1.392 . S
C1498 C1497 1.398 . S
C1498 C1501 1.372 . S
C1498 H1508 0.931 . S
C1499 C1496 1.382 . S
C1499 C1501 1.390 . S
C1499 H1509 0.931 . S
C1500 C1496 1.390 . S
C1500 C1497 1.392 . S
C1500 H1510 0.930 . S
C1501 C1498 1.372 . S
C1501 C1499 1.390 . S
C1501 H1511 0.929 . S
C1502 O1482 1.255 . S
C1502 O1483 1.257 . S
C1503 Eu1439 2.787 . S
C1503 O1478 1.252 . S
C1503 O1481 1.268 . S
C1503 C1496 1.506 . S
H1504 C1487 0.931 . S
H1505 C1488 0.931 . S
H1506 C1489 0.929 . S
H1507 C1490 0.930 . S
H1508 C1498 0.931 . S
H1509 C1499 0.931 . S
H1510 C1500 0.930 . S
H1511 C1501 0.929 . S
Eu1512 N1541 2.600 . S
Eu1512 N1547 2.562 . S
Eu1512 O1556 2.462 . S
Eu1512 O1557 2.373 . S
Eu1512 O1559 2.432 . S
Eu1512 O1560 2.291 . S
Eu1512 O1564 2.335 . S
Eu1512 O1567 2.372 . S
Eu1512 C1576 2.787 . S
C1513 N1514 1.365 . S
C1513 C1516 1.405 . S
C1513 C1520 1.448 . S
N1514 C1513 1.365 . S
N1514 C1517 1.319 . S
N1514 Eu1523 2.600 . S
C1515 C1517 1.397 . S
C1515 C1518 1.367 . S
C1515 H1535 0.931 . S
C1516 C1513 1.405 . S
C1516 C1518 1.403 . S
C1516 C1522 1.439 . S
C1517 N1514 1.319 . S
C1517 C1515 1.397 . S
C1517 H1528 0.930 . S
C1518 C1515 1.367 . S
C1518 C1516 1.403 . S
C1518 H1539 0.929 . S
C1519 C1520 1.430 . S
C1519 C1521 1.387 . S
C1519 C1525 1.404 . S
C1520 C1513 1.448 . S
C1520 C1519 1.430 . S
C1520 N1524 1.351 . S
C1521 C1519 1.387 . S
C1521 C1522 1.374 . S
C1521 H1536 0.931 . S
C1522 C1516 1.439 . S
C1522 C1521 1.374 . S
C1522 H1537 0.931 . S
Eu1523 N1514 2.600 . S
Eu1523 N1524 2.562 . S
Eu1523 O1558 2.335 . S
Eu1523 O1561 2.372 . S
Eu1523 O1562 2.462 . S
Eu1523 O1563 2.373 . S
Eu1523 O1565 2.432 . S
Eu1523 O1566 2.291 . S
Eu1523 C1587 2.787 . S
N1524 C1520 1.351 . S
N1524 Eu1523 2.562 . S
N1524 C1526 1.325 . S
C1525 C1519 1.404 . S
C1525 C1527 1.366 . S
C1525 H1533 0.930 . S
C1526 N1524 1.325 . S
C1526 C1527 1.416 . S
C1526 H1532 0.929 . S
C1527 C1525 1.366 . S
C1527 C1526 1.416 . S
C1527 H1529 0.930 . S
H1528 C1517 0.930 . S
H1529 C1527 0.930 . S
H1530 C1545 0.930 . S
H1531 C1552 0.930 . S
H1532 C1526 0.929 . S
H1533 C1525 0.930 . S
H1534 C1548 0.929 . S
H1535 C1515 0.931 . S
H1536 C1521 0.931 . S
H1537 C1522 0.931 . S
H1538 C1543 0.931 . S
H1539 C1518 0.929 . S
H1540 C1551 0.930 . S
N1541 Eu1512 2.600 . S
N1541 C1542 1.365 . S
N1541 C1545 1.319 . S
C1542 N1541 1.365 . S
C1542 C1544 1.405 . S
C1542 C1550 1.448 . S
C1543 H1538 0.931 . S
C1543 C1545 1.397 . S
C1543 C1546 1.367 . S
C1544 C1542 1.405 . S
C1544 C1546 1.403 . S
C1544 C1577 1.439 . S
C1545 H1530 0.930 . S
C1545 N1541 1.319 . S
C1545 C1543 1.397 . S
C1546 C1543 1.367 . S
C1546 C1544 1.403 . S
C1546 H1553 0.929 . S
N1547 Eu1512 2.562 . S
N1547 C1548 1.325 . S
N1547 C1550 1.351 . S
C1548 H1534 0.929 . S
C1548 N1547 1.325 . S
C1548 C1552 1.416 . S
C1549 C1550 1.430 . S
C1549 C1551 1.404 . S
C1549 C1578 1.387 . S
C1550 C1542 1.448 . S
C1550 N1547 1.351 . S
C1550 C1549 1.430 . S
C1551 H1540 0.930 . S
C1551 C1549 1.404 . S
C1551 C1552 1.366 . S
C1552 H1531 0.930 . S
C1552 C1548 1.416 . S
C1552 C1551 1.366 . S
H1553 C1546 0.929 . S
H1554 C1577 0.931 . S
H1555 C1578 0.931 . S
O1556 Eu1512 2.462 . S
O1556 C1576 1.252 . S
O1557 Eu1512 2.373 . S
O1557 C1568 1.249 . S
O1558 Eu1523 2.335 . S
O1558 C1568 1.264 . S
O1559 Eu1512 2.432 . S
O1559 C1576 1.268 . S
O1560 Eu1512 2.291 . S
O1560 C1575 1.255 . S
O1561 Eu1523 2.372 . S
O1561 C1575 1.257 . S
O1562 Eu1523 2.462 . S
O1562 C1587 1.252 . S
O1563 Eu1523 2.373 . S
O1563 C1579 1.249 . S
O1564 Eu1512 2.335 . S
O1564 C1579 1.264 . S
O1565 Eu1523 2.432 . S
O1565 C1587 1.268 . S
O1566 Eu1523 2.291 . S
O1566 C1586 1.255 . S
O1567 Eu1512 2.372 . S
O1567 C1586 1.257 . S
C1568 O1557 1.249 . S
C1568 O1558 1.264 . S
C1569 C1572 1.382 . S
C1569 C1574 1.390 . S
C1569 C1576 1.506 . S
C1570 C1571 1.398 . S
C1570 C1574 1.392 . S
C1571 C1570 1.398 . S
C1571 C1573 1.372 . S
C1571 H1588 0.931 . S
C1572 C1569 1.382 . S
C1572 C1573 1.390 . S
C1572 H1589 0.931 . S
C1573 C1571 1.372 . S
C1573 C1572 1.390 . S
C1573 H1590 0.929 . S
C1574 C1569 1.390 . S
C1574 C1570 1.392 . S
C1574 H1591 0.930 . S
C1575 O1560 1.255 . S
C1575 O1561 1.257 . S
C1576 Eu1512 2.787 . S
C1576 O1556 1.252 . S
C1576 O1559 1.268 . S
C1576 C1569 1.506 . S
C1577 C1544 1.439 . S
C1577 H1554 0.931 . S
C1577 C1578 1.374 . S
C1578 C1549 1.387 . S
C1578 H1555 0.931 . S
C1578 C1577 1.374 . S
C1579 O1563 1.249 . S
C1579 O1564 1.264 . S
C1580 C1583 1.382 . S
C1580 C1584 1.390 . S
C1580 C1587 1.506 . S
C1581 C1582 1.398 . S
C1581 C1584 1.392 . S
C1582 C1581 1.398 . S
C1582 C1585 1.372 . S
C1582 H1592 0.931 . S
C1583 C1580 1.382 . S
C1583 C1585 1.390 . S
C1583 H1593 0.931 . S
C1584 C1580 1.390 . S
C1584 C1581 1.392 . S
C1584 H1594 0.930 . S
C1585 C1582 1.372 . S
C1585 C1583 1.390 . S
C1585 H1595 0.929 . S
C1586 O1566 1.255 . S
C1586 O1567 1.257 . S
C1587 Eu1523 2.787 . S
C1587 O1562 1.252 . S
C1587 O1565 1.268 . S
C1587 C1580 1.506 . S
H1588 C1571 0.931 . S
H1589 C1572 0.931 . S
H1590 C1573 0.929 . S
H1591 C1574 0.930 . S
H1592 C1582 0.931 . S
H1593 C1583 0.931 . S
H1594 C1584 0.930 . S
H1595 C1585 0.929 . S
Eu1596 N1625 2.600 . S
Eu1596 N1631 2.562 . S
Eu1596 O1640 2.462 . S
Eu1596 O1641 2.373 1_655 S
Eu1596 O1643 2.432 . S
Eu1596 O1644 2.291 1_655 S
Eu1596 O1648 2.335 1_655 S
Eu1596 O1651 2.372 1_655 S
Eu1596 C1660 2.787 . S
C1597 N1598 1.365 . S
C1597 C1600 1.405 . S
C1597 C1604 1.448 . S
N1598 C1597 1.365 . S
N1598 C1601 1.299 1_554 S
N1598 Eu1607 2.600 . S
C1599 C1601 1.413 . S
C1599 C1602 1.367 . S
C1599 H1619 0.931 . S
C1600 C1597 1.405 . S
C1600 C1602 1.403 1_554 S
C1600 C1606 1.439 . S
C1601 N1598 1.299 1_556 S
C1601 C1599 1.413 . S
C1601 H1612 0.934 . S
C1602 C1599 1.367 . S
C1602 C1600 1.403 1_556 S
C1602 H1623 0.929 . S
C1603 C1604 1.430 . S
C1603 C1605 1.387 . S
C1603 C1609 1.404 . S
C1604 C1597 1.448 . S
C1604 C1603 1.430 . S
C1604 N1608 1.351 . S
C1605 C1603 1.387 . S
C1605 C1606 1.374 . S
C1605 H1620 0.931 . S
C1606 C1600 1.439 . S
C1606 C1605 1.374 . S
C1606 H1621 0.931 . S
Eu1607 N1598 2.600 . S
Eu1607 N1608 2.562 . S
Eu1607 O1642 2.335 . S
Eu1607 O1645 2.372 . S
Eu1607 O1646 2.462 . S
Eu1607 O1647 2.373 . S
Eu1607 O1649 2.432 . S
Eu1607 O1650 2.291 . S
Eu1607 C1671 2.787 . S
N1608 C1604 1.351 . S
N1608 Eu1607 2.562 . S
N1608 C1610 1.325 . S
C1609 C1603 1.404 . S
C1609 C1611 1.366 . S
C1609 H1617 0.930 . S
C1610 N1608 1.325 . S
C1610 C1611 1.416 . S
C1610 H1616 0.929 . S
C1611 C1609 1.366 . S
C1611 C1610 1.416 . S
C1611 H1613 0.930 . S
H1612 C1601 0.934 . S
H1613 C1611 0.930 . S
H1614 C1629 0.930 1_455 S
H1615 C1636 0.930 . S
H1616 C1610 0.929 . S
H1617 C1609 0.930 . S
H1618 C1632 0.929 . S
H1619 C1599 0.931 . S
H1620 C1605 0.931 . S
H1621 C1606 0.931 . S
H1622 C1627 0.931 . S
H1623 C1602 0.929 . S
H1624 C1635 0.930 . S
N1625 Eu1596 2.600 . S
N1625 C1626 1.365 . S
N1625 C1629 1.319 . S
C1626 N1625 1.365 . S
C1626 C1628 1.405 . S
C1626 C1634 1.448 . S
C1627 H1622 0.931 . S
C1627 C1629 1.397 . S
C1627 C1630 1.367 . S
C1628 C1626 1.405 . S
C1628 C1630 1.403 . S
C1628 C1661 1.439 . S
C1629 H1614 0.930 1_655 S
C1629 N1625 1.319 . S
C1629 C1627 1.397 . S
C1630 C1627 1.367 . S
C1630 C1628 1.403 . S
C1630 H1637 0.929 . S
N1631 Eu1596 2.562 . S
N1631 C1632 1.325 . S
N1631 C1634 1.351 . S
C1632 H1618 0.929 . S
C1632 N1631 1.325 . S
C1632 C1636 1.416 . S
C1633 C1634 1.430 . S
C1633 C1635 1.404 . S
C1633 C1662 1.387 . S
C1634 C1626 1.448 . S
C1634 N1631 1.351 . S
C1634 C1633 1.430 . S
C1635 H1624 0.930 . S
C1635 C1633 1.404 . S
C1635 C1636 1.366 . S
C1636 H1615 0.930 . S
C1636 C1632 1.416 . S
C1636 C1635 1.366 . S
H1637 C1630 0.929 . S
H1638 C1661 0.931 . S
H1639 C1662 0.931 . S
O1640 Eu1596 2.462 . S
O1640 C1660 1.252 . S
O1641 Eu1596 2.373 1_455 S
O1641 C1652 1.249 . S
O1642 Eu1607 2.335 . S
O1642 C1652 1.264 . S
O1643 Eu1596 2.432 . S
O1643 C1660 1.268 . S
O1644 Eu1596 2.291 1_455 S
O1644 C1659 1.255 . S
O1645 Eu1607 2.372 . S
O1645 C1659 1.257 . S
O1646 Eu1607 2.462 . S
O1646 C1671 1.252 . S
O1647 Eu1607 2.373 . S
O1647 C1663 1.249 . S
O1648 Eu1596 2.335 1_455 S
O1648 C1663 1.264 . S
O1649 Eu1607 2.432 . S
O1649 C1671 1.268 . S
O1650 Eu1607 2.291 . S
O1650 C1670 1.255 . S
O1651 Eu1596 2.372 1_455 S
O1651 C1670 1.257 . S
C1652 O1641 1.249 . S
C1652 O1642 1.264 . S
C1653 C1656 1.382 . S
C1653 C1658 1.390 . S
C1653 C1660 1.506 . S
C1654 C1655 1.398 . S
C1654 C1658 1.392 . S
C1655 C1654 1.398 . S
C1655 C1657 1.372 . S
C1655 H1672 0.931 . S
C1656 C1653 1.382 . S
C1656 C1657 1.390 . S
C1656 H1673 0.931 . S
C1657 C1655 1.372 . S
C1657 C1656 1.390 . S
C1657 H1674 0.929 . S
C1658 C1653 1.390 . S
C1658 C1654 1.392 . S
C1658 H1675 0.930 . S
C1659 O1644 1.255 . S
C1659 O1645 1.257 . S
C1660 Eu1596 2.787 . S
C1660 O1640 1.252 . S
C1660 O1643 1.268 . S
C1660 C1653 1.506 . S
C1661 C1628 1.439 . S
C1661 H1638 0.931 . S
C1661 C1662 1.374 . S
C1662 C1633 1.387 . S
C1662 H1639 0.931 . S
C1662 C1661 1.374 . S
C1663 O1647 1.249 . S
C1663 O1648 1.264 . S
C1664 C1667 1.382 . S
C1664 C1668 1.390 . S
C1664 C1671 1.506 . S
C1665 C1666 1.398 . S
C1665 C1668 1.392 . S
C1666 C1665 1.398 . S
C1666 C1669 1.372 . S
C1666 H1676 0.931 . S
C1667 C1664 1.382 . S
C1667 C1669 1.390 . S
C1667 H1677 0.931 . S
C1668 C1664 1.390 . S
C1668 C1665 1.392 . S
C1668 H1678 0.930 . S
C1669 C1666 1.372 . S
C1669 C1667 1.390 . S
C1669 H1679 0.929 1_554 S
C1670 O1650 1.255 . S
C1670 O1651 1.257 . S
C1671 Eu1607 2.787 . S
C1671 O1646 1.252 . S
C1671 O1649 1.268 . S
C1671 C1664 1.506 . S
H1672 C1655 0.931 . S
H1673 C1656 0.931 . S
H1674 C1657 0.929 . S
H1675 C1658 0.930 . S
H1676 C1666 0.931 . S
H1677 C1667 0.931 . S
H1678 C1668 0.930 . S
H1679 C1669 0.929 1_556 S
H1680 C1688 0.923 . S
H1681 C1690 0.933 1_554 S
H1682 C1692 0.930 . S
H1683 C1695 0.929 . S
H1684 C1698 0.930 1_554 S
H1685 C1700 0.960 . S
H1686 C1700 0.960 . S
H1687 C1700 0.960 . S
C1688 H1680 0.923 . S
C1688 C1689 1.372 1_455 S
C1688 C1690 1.398 . S
C1689 C1688 1.372 1_655 S
C1689 C1695 1.390 . S
C1690 H1681 0.933 1_556 S
C1690 C1688 1.398 . S
C1690 C1691 1.372 . S
C1691 C1690 1.372 . S
C1691 C1692 1.400 1_455 S
C1691 C1696 1.490 . S
C1692 H1682 0.930 . S
C1692 C1691 1.400 1_655 S
C1692 C1695 1.386 . S
H1693 C1709 0.914 1_556 S
H1694 C1710 0.926 . S
C1695 H1683 0.929 . S
C1695 C1689 1.390 . S
C1695 C1692 1.386 . S
C1696 C1691 1.490 . S
C1696 C1698 1.395 1_455 S
C1696 C1699 1.403 . S
H1697 C1703 0.930 . S
C1698 H1684 0.930 1_556 S
C1698 C1696 1.395 1_655 S
C1698 C1701 1.403 1_556 S
C1699 C1696 1.403 . S
C1699 C1700 1.524 . S
C1699 C1703 1.400 . S
C1700 H1685 0.960 . S
C1700 H1686 0.960 . S
C1700 H1687 0.960 . S
C1700 C1699 1.524 . S
C1701 C1698 1.403 1_554 S
C1701 C1702 1.392 1_655 S
C1701 C1705 1.495 . S
C1702 C1701 1.392 1_455 S
C1702 C1703 1.385 1_554 S
C1702 C1704 1.478 . S
C1703 H1697 0.930 . S
C1703 C1699 1.400 . S
C1703 C1702 1.385 1_556 S
C1704 C1702 1.478 . S
C1704 C1706 1.381 . S
C1704 C1710 1.385 1_554 S
C1705 C1701 1.495 . S
C1705 H1711 0.959 . S
C1705 H1712 0.961 . S
C1705 H1713 0.960 . S
C1706 C1704 1.381 . S
C1706 C1707 1.394 . S
C1706 H1714 0.930 . S
C1707 C1706 1.394 . S
C1707 C1708 1.383 . S
C1707 H1715 0.929 . S
C1708 C1707 1.383 . S
C1708 C1709 1.377 . S
C1709 H1693 0.914 1_554 S
C1709 C1708 1.377 . S
C1709 C1710 1.382 1_554 S
C1710 H1694 0.926 . S
C1710 C1704 1.385 1_556 S
C1710 C1709 1.382 1_556 S
H1711 C1705 0.959 . S
H1712 C1705 0.961 . S
H1713 C1705 0.960 . S
H1714 C1706 0.930 . S
H1715 C1707 0.929 . S
H1716 C1724 0.929 . S
H1717 C1726 0.930 . S
H1718 C1728 0.930 . S
H1719 C1731 0.929 . S
H1720 C1734 0.930 . S
H1721 C1736 0.960 . S
H1722 C1736 0.960 . S
H1723 C1736 0.960 . S
C1724 H1716 0.929 . S
C1724 C1725 1.377 . S
C1724 C1726 1.384 . S
C1725 C1724 1.377 . S
C1725 C1731 1.390 . S
C1726 H1717 0.930 . S
C1726 C1724 1.384 . S
C1726 C1727 1.372 . S
C1727 C1726 1.372 . S
C1727 C1728 1.400 . S
C1727 C1732 1.490 . S
C1728 H1718 0.930 . S
C1728 C1727 1.400 . S
C1728 C1731 1.386 . S
H1729 C1745 0.930 . S
H1730 C1746 0.931 . S
C1731 H1719 0.929 . S
C1731 C1725 1.390 . S
C1731 C1728 1.386 . S
C1732 C1727 1.490 . S
C1732 C1734 1.395 . S
C1732 C1735 1.403 . S
H1733 C1739 0.930 . S
C1734 H1720 0.930 . S
C1734 C1732 1.395 . S
C1734 C1737 1.403 . S
C1735 C1732 1.403 . S
C1735 C1736 1.524 . S
C1735 C1739 1.400 . S
C1736 H1721 0.960 . S
C1736 H1722 0.960 . S
C1736 H1723 0.960 . S
C1736 C1735 1.524 . S
C1737 C1734 1.403 . S
C1737 C1738 1.392 . S
C1737 C1741 1.495 . S
C1738 C1737 1.392 . S
C1738 C1739 1.385 . S
C1738 C1740 1.478 . S
C1739 H1733 0.930 . S
C1739 C1735 1.400 . S
C1739 C1738 1.385 . S
C1740 C1738 1.478 . S
C1740 C1742 1.381 . S
C1740 C1746 1.383 . S
C1741 C1737 1.495 . S
C1741 H1747 0.959 . S
C1741 H1748 0.961 . S
C1741 H1749 0.960 . S
C1742 C1740 1.381 . S
C1742 C1743 1.394 . S
C1742 H1750 0.930 . S
C1743 C1742 1.394 . S
C1743 C1744 1.383 . S
C1743 H1751 0.929 . S
C1744 C1743 1.383 . S
C1744 C1745 1.377 . S
C1745 H1729 0.930 . S
C1745 C1744 1.377 . S
C1745 C1746 1.379 . S
C1746 H1730 0.931 . S
C1746 C1740 1.383 . S
C1746 C1745 1.379 . S
H1747 C1741 0.959 . S
H1748 C1741 0.961 . S
H1749 C1741 0.960 . S
H1750 C1742 0.930 . S
H1751 C1743 0.929 . S
H1752 C1760 0.929 . S
H1753 C1762 0.930 . S
H1754 C1764 0.930 . S
H1755 C1767 0.929 . S
H1756 C1770 0.930 . S
H1757 C1772 0.960 . S
H1758 C1772 0.960 . S
H1759 C1772 0.960 . S
C1760 H1752 0.929 . S
C1760 C1761 1.377 . S
C1760 C1762 1.384 . S
C1761 C1760 1.377 . S
C1761 C1767 1.390 . S
C1762 H1753 0.930 . S
C1762 C1760 1.384 . S
C1762 C1763 1.372 . S
C1763 C1762 1.372 . S
C1763 C1764 1.400 . S
C1763 C1768 1.490 . S
C1764 H1754 0.930 . S
C1764 C1763 1.400 . S
C1764 C1767 1.386 . S
H1765 C1781 0.930 . S
H1766 C1782 0.931 . S
C1767 H1755 0.929 . S
C1767 C1761 1.390 . S
C1767 C1764 1.386 . S
C1768 C1763 1.490 . S
C1768 C1770 1.395 . S
C1768 C1771 1.403 . S
H1769 C1775 0.930 . S
C1770 H1756 0.930 . S
C1770 C1768 1.395 . S
C1770 C1773 1.403 . S
C1771 C1768 1.403 . S
C1771 C1772 1.524 . S
C1771 C1775 1.400 . S
C1772 H1757 0.960 . S
C1772 H1758 0.960 . S
C1772 H1759 0.960 . S
C1772 C1771 1.524 . S
C1773 C1770 1.403 . S
C1773 C1774 1.392 . S
C1773 C1777 1.495 . S
C1774 C1773 1.392 . S
C1774 C1775 1.385 . S
C1774 C1776 1.478 . S
C1775 H1769 0.930 . S
C1775 C1771 1.400 . S
C1775 C1774 1.385 . S
C1776 C1774 1.478 . S
C1776 C1778 1.381 . S
C1776 C1782 1.383 . S
C1777 C1773 1.495 . S
C1777 H1783 0.959 . S
C1777 H1784 0.961 . S
C1777 H1785 0.960 . S
C1778 C1776 1.381 . S
C1778 C1779 1.394 . S
C1778 H1786 0.930 . S
C1779 C1778 1.394 . S
C1779 C1780 1.383 . S
C1779 H1787 0.929 . S
C1780 C1779 1.383 . S
C1780 C1781 1.377 . S
C1781 H1765 0.930 . S
C1781 C1780 1.377 . S
C1781 C1782 1.379 . S
C1782 H1766 0.931 . S
C1782 C1776 1.383 . S
C1782 C1781 1.379 . S
H1783 C1777 0.959 . S
H1784 C1777 0.961 . S
H1785 C1777 0.960 . S
H1786 C1778 0.930 . S
H1787 C1779 0.929 . S
H1788 C1796 0.929 . S
H1789 C1798 0.930 . S
H1790 C1800 0.930 . S
H1791 C1803 0.929 . S
H1792 C1806 0.930 . S
H1793 C1808 0.960 . S
H1794 C1808 0.960 . S
H1795 C1808 0.960 . S
C1796 H1788 0.929 . S
C1796 C1797 1.377 . S
C1796 C1798 1.384 . S
C1797 C1796 1.377 . S
C1797 C1803 1.390 . S
C1798 H1789 0.930 . S
C1798 C1796 1.384 . S
C1798 C1799 1.372 . S
C1799 C1798 1.372 . S
C1799 C1800 1.400 . S
C1799 C1804 1.490 . S
C1800 H1790 0.930 . S
C1800 C1799 1.400 . S
C1800 C1803 1.386 . S
H1801 C1817 0.930 . S
H1802 C1818 0.931 . S
C1803 H1791 0.929 . S
C1803 C1797 1.390 . S
C1803 C1800 1.386 . S
C1804 C1799 1.490 . S
C1804 C1806 1.395 . S
C1804 C1807 1.403 . S
H1805 C1811 0.930 . S
C1806 H1792 0.930 . S
C1806 C1804 1.395 . S
C1806 C1809 1.403 . S
C1807 C1804 1.403 . S
C1807 C1808 1.524 . S
C1807 C1811 1.400 . S
C1808 H1793 0.960 . S
C1808 H1794 0.960 . S
C1808 H1795 0.960 . S
C1808 C1807 1.524 . S
C1809 C1806 1.403 . S
C1809 C1810 1.392 . S
C1809 C1813 1.495 . S
C1810 C1809 1.392 . S
C1810 C1811 1.385 . S
C1810 C1812 1.478 . S
C1811 H1805 0.930 . S
C1811 C1807 1.400 . S
C1811 C1810 1.385 . S
C1812 C1810 1.478 . S
C1812 C1814 1.381 . S
C1812 C1818 1.383 . S
C1813 C1809 1.495 . S
C1813 H1819 0.959 . S
C1813 H1820 0.961 . S
C1813 H1821 0.960 . S
C1814 C1812 1.381 . S
C1814 C1815 1.394 . S
C1814 H1822 0.930 . S
C1815 C1814 1.394 . S
C1815 C1816 1.383 . S
C1815 H1823 0.929 . S
C1816 C1815 1.383 . S
C1816 C1817 1.377 . S
C1817 H1801 0.930 . S
C1817 C1816 1.377 . S
C1817 C1818 1.379 . S
C1818 H1802 0.931 . S
C1818 C1812 1.383 . S
C1818 C1817 1.379 . S
H1819 C1813 0.959 . S
H1820 C1813 0.961 . S
H1821 C1813 0.960 . S
H1822 C1814 0.930 . S
H1823 C1815 0.929 . S
H1824 C1832 0.929 . S
H1825 C1834 0.930 . S
H1826 C1836 0.930 1_655 S
H1827 C1839 0.929 1_655 S
H1828 C1842 0.930 . S
H1829 C1844 0.960 . S
H1830 C1844 0.960 . S
H1831 C1844 0.960 . S
C1832 H1824 0.929 . S
C1832 C1833 1.377 . S
C1832 C1834 1.384 . S
C1833 C1832 1.377 . S
C1833 C1839 1.390 . S
C1834 H1825 0.930 . S
C1834 C1832 1.384 . S
C1834 C1835 1.372 . S
C1835 C1834 1.372 . S
C1835 C1836 1.400 . S
C1835 C1840 1.490 . S
C1836 H1826 0.930 1_455 S
C1836 C1835 1.400 . S
C1836 C1839 1.386 . S
H1837 C1853 0.930 1_655 S
H1838 C1854 0.931 1_655 S
C1839 H1827 0.929 1_455 S
C1839 C1833 1.390 . S
C1839 C1836 1.386 . S
C1840 C1835 1.490 . S
C1840 C1842 1.395 . S
C1840 C1843 1.403 . S
H1841 C1847 0.930 . S
C1842 H1828 0.930 . S
C1842 C1840 1.395 . S
C1842 C1845 1.403 . S
C1843 C1840 1.403 . S
C1843 C1844 1.524 . S
C1843 C1847 1.400 . S
C1844 H1829 0.960 . S
C1844 H1830 0.960 . S
C1844 H1831 0.960 . S
C1844 C1843 1.524 . S
C1845 C1842 1.403 . S
C1845 C1846 1.392 . S
C1845 C1849 1.495 . S
C1846 C1845 1.392 . S
C1846 C1847 1.385 . S
C1846 C1848 1.478 . S
C1847 H1841 0.930 . S
C1847 C1843 1.400 . S
C1847 C1846 1.385 . S
C1848 C1846 1.478 . S
C1848 C1850 1.381 . S
C1848 C1854 1.383 . S
C1849 C1845 1.495 . S
C1849 H1855 0.959 . S
C1849 H1856 0.961 . S
C1849 H1857 0.960 . S
C1850 C1848 1.381 . S
C1850 C1851 1.394 . S
C1850 H1858 0.930 . S
C1851 C1850 1.394 . S
C1851 C1852 1.383 . S
C1851 H1859 0.929 . S
C1852 C1851 1.383 . S
C1852 C1853 1.377 . S
C1853 H1837 0.930 1_455 S
C1853 C1852 1.377 . S
C1853 C1854 1.379 . S
C1854 H1838 0.931 1_455 S
C1854 C1848 1.383 . S
C1854 C1853 1.379 . S
H1855 C1849 0.959 . S
H1856 C1849 0.961 . S
H1857 C1849 0.960 . S
H1858 C1850 0.930 . S
H1859 C1851 0.929 . S
H1860 C1868 0.929 . S
H1861 C1870 0.930 . S
H1862 C1872 0.930 . S
H1863 C1875 0.929 . S
H1864 C1878 0.930 . S
H1865 C1880 0.960 . S
H1866 C1880 0.960 . S
H1867 C1880 0.960 . S
C1868 H1860 0.929 . S
C1868 C1869 1.377 . S
C1868 C1870 1.384 . S
C1869 C1868 1.377 . S
C1869 C1875 1.390 . S
C1870 H1861 0.930 . S
C1870 C1868 1.384 . S
C1870 C1871 1.372 . S
C1871 C1870 1.372 . S
C1871 C1872 1.400 . S
C1871 C1876 1.490 . S
C1872 H1862 0.930 . S
C1872 C1871 1.400 . S
C1872 C1875 1.386 . S
H1873 C1889 0.930 . S
H1874 C1890 0.931 . S
C1875 H1863 0.929 . S
C1875 C1869 1.390 . S
C1875 C1872 1.386 . S
C1876 C1871 1.490 . S
C1876 C1878 1.395 . S
C1876 C1879 1.403 . S
H1877 C1883 0.930 . S
C1878 H1864 0.930 . S
C1878 C1876 1.395 . S
C1878 C1881 1.403 . S
C1879 C1876 1.403 . S
C1879 C1880 1.524 . S
C1879 C1883 1.400 . S
C1880 H1865 0.960 . S
C1880 H1866 0.960 . S
C1880 H1867 0.960 . S
C1880 C1879 1.524 . S
C1881 C1878 1.403 . S
C1881 C1882 1.392 . S
C1881 C1885 1.495 . S
C1882 C1881 1.392 . S
C1882 C1883 1.385 . S
C1882 C1884 1.478 . S
C1883 H1877 0.930 . S
C1883 C1879 1.400 . S
C1883 C1882 1.385 . S
C1884 C1882 1.478 . S
C1884 C1886 1.381 . S
C1884 C1890 1.383 . S
C1885 C1881 1.495 . S
C1885 H1891 0.959 . S
C1885 H1892 0.961 . S
C1885 H1893 0.960 . S
C1886 C1884 1.381 . S
C1886 C1887 1.394 . S
C1886 H1894 0.930 . S
C1887 C1886 1.394 . S
C1887 C1888 1.383 . S
C1887 H1895 0.929 . S
C1888 C1887 1.383 . S
C1888 C1889 1.377 . S
C1889 H1873 0.930 . S
C1889 C1888 1.377 . S
C1889 C1890 1.379 . S
C1890 H1874 0.931 . S
C1890 C1884 1.383 . S
C1890 C1889 1.379 . S
H1891 C1885 0.959 . S
H1892 C1885 0.961 . S
H1893 C1885 0.960 . S
H1894 C1886 0.930 . S
H1895 C1887 0.929 . S
H1896 C1904 0.929 . S
H1897 C1906 0.930 . S
H1898 C1908 0.930 . S
H1899 C1911 0.929 . S
H1900 C1914 0.930 . S
H1901 C1916 0.960 . S
H1902 C1916 0.960 . S
H1903 C1916 0.960 . S
C1904 H1896 0.929 . S
C1904 C1905 1.377 . S
C1904 C1906 1.384 . S
C1905 C1904 1.377 . S
C1905 C1911 1.390 . S
C1906 H1897 0.930 . S
C1906 C1904 1.384 . S
C1906 C1907 1.372 . S
C1907 C1906 1.372 . S
C1907 C1908 1.400 . S
C1907 C1912 1.490 . S
C1908 H1898 0.930 . S
C1908 C1907 1.400 . S
C1908 C1911 1.386 . S
H1909 C1925 0.930 . S
H1910 C1926 0.931 . S
C1911 H1899 0.929 . S
C1911 C1905 1.390 . S
C1911 C1908 1.386 . S
C1912 C1907 1.490 . S
C1912 C1914 1.395 . S
C1912 C1915 1.403 . S
H1913 C1919 0.930 . S
C1914 H1900 0.930 . S
C1914 C1912 1.395 . S
C1914 C1917 1.403 . S
C1915 C1912 1.403 . S
C1915 C1916 1.524 . S
C1915 C1919 1.400 . S
C1916 H1901 0.960 . S
C1916 H1902 0.960 . S
C1916 H1903 0.960 . S
C1916 C1915 1.524 . S
C1917 C1914 1.403 . S
C1917 C1918 1.392 . S
C1917 C1921 1.495 . S
C1918 C1917 1.392 . S
C1918 C1919 1.385 . S
C1918 C1920 1.478 . S
C1919 H1913 0.930 . S
C1919 C1915 1.400 . S
C1919 C1918 1.385 . S
C1920 C1918 1.478 . S
C1920 C1922 1.381 . S
C1920 C1926 1.383 . S
C1921 C1917 1.495 . S
C1921 H1927 0.959 . S
C1921 H1928 0.961 . S
C1921 H1929 0.960 . S
C1922 C1920 1.381 . S
C1922 C1923 1.394 . S
C1922 H1930 0.930 . S
C1923 C1922 1.394 . S
C1923 C1924 1.383 . S
C1923 H1931 0.929 . S
C1924 C1923 1.383 . S
C1924 C1925 1.377 . S
C1925 H1909 0.930 . S
C1925 C1924 1.377 . S
C1925 C1926 1.379 . S
C1926 H1910 0.931 . S
C1926 C1920 1.383 . S
C1926 C1925 1.379 . S
H1927 C1921 0.959 . S
H1928 C1921 0.961 . S
H1929 C1921 0.960 . S
H1930 C1922 0.930 . S
H1931 C1923 0.929 . S
H1932 C1940 0.929 . S
H1933 C1942 0.930 . S
H1934 C1944 0.930 . S
H1935 C1947 0.929 . S
H1936 C1950 0.930 . S
H1937 C1952 0.960 . S
H1938 C1952 0.960 . S
H1939 C1952 0.960 . S
C1940 H1932 0.929 . S
C1940 C1941 1.377 . S
C1940 C1942 1.384 . S
C1941 C1940 1.377 . S
C1941 C1947 1.390 . S
C1942 H1933 0.930 . S
C1942 C1940 1.384 . S
C1942 C1943 1.372 . S
C1943 C1942 1.372 . S
C1943 C1944 1.400 . S
C1943 C1948 1.490 . S
C1944 H1934 0.930 . S
C1944 C1943 1.400 . S
C1944 C1947 1.386 . S
H1945 C1961 0.930 . S
H1946 C1962 0.931 . S
C1947 H1935 0.929 . S
C1947 C1941 1.390 . S
C1947 C1944 1.386 . S
C1948 C1943 1.490 . S
C1948 C1950 1.395 . S
C1948 C1951 1.403 . S
H1949 C1955 0.930 . S
C1950 H1936 0.930 . S
C1950 C1948 1.395 . S
C1950 C1953 1.403 . S
C1951 C1948 1.403 . S
C1951 C1952 1.524 . S
C1951 C1955 1.400 . S
C1952 H1937 0.960 . S
C1952 H1938 0.960 . S
C1952 H1939 0.960 . S
C1952 C1951 1.524 . S
C1953 C1950 1.403 . S
C1953 C1954 1.392 . S
C1953 C1957 1.495 . S
C1954 C1953 1.392 . S
C1954 C1955 1.385 . S
C1954 C1956 1.478 . S
C1955 H1949 0.930 . S
C1955 C1951 1.400 . S
C1955 C1954 1.385 . S
C1956 C1954 1.478 . S
C1956 C1958 1.381 . S
C1956 C1962 1.383 . S
C1957 C1953 1.495 . S
C1957 H1963 0.959 . S
C1957 H1964 0.961 . S
C1957 H1965 0.960 . S
C1958 C1956 1.381 . S
C1958 C1959 1.394 . S
C1958 H1966 0.930 . S
C1959 C1958 1.394 . S
C1959 C1960 1.383 . S
C1959 H1967 0.929 . S
C1960 C1959 1.383 . S
C1960 C1961 1.377 . S
C1961 H1945 0.930 . S
C1961 C1960 1.377 . S
C1961 C1962 1.379 . S
C1962 H1946 0.931 . S
C1962 C1956 1.383 . S
C1962 C1961 1.379 . S
H1963 C1957 0.959 . S
H1964 C1957 0.961 . S
H1965 C1957 0.960 . S
H1966 C1958 0.930 . S
H1967 C1959 0.929 . S
H1968 C1976 0.929 . S
H1969 C1978 0.930 . S
H1970 C1980 0.930 . S
H1971 C1983 0.929 . S
H1972 C1986 0.930 1_565 S
H1973 C1988 0.960 . S
H1974 C1988 0.960 . S
H1975 C1988 0.960 . S
C1976 H1968 0.929 . S
C1976 C1977 1.377 . S
C1976 C1978 1.384 . S
C1977 C1976 1.377 . S
C1977 C1983 1.390 . S
C1978 H1969 0.930 . S
C1978 C1976 1.384 . S
C1978 C1979 1.372 . S
C1979 C1978 1.372 . S
C1979 C1980 1.400 . S
C1979 C1984 1.490 . S
C1980 H1970 0.930 . S
C1980 C1979 1.400 . S
C1980 C1983 1.386 . S
H1981 C1997 0.930 . S
H1982 C1998 0.931 . S
C1983 H1971 0.929 . S
C1983 C1977 1.390 . S
C1983 C1980 1.386 . S
C1984 C1979 1.490 . S
C1984 C1986 1.395 . S
C1984 C1987 1.403 . S
H1985 C1991 0.930 . S
C1986 H1972 0.930 1_545 S
C1986 C1984 1.395 . S
C1986 C1989 1.403 . S
C1987 C1984 1.403 . S
C1987 C1988 1.524 . S
C1987 C1991 1.400 . S
C1988 H1973 0.960 . S
C1988 H1974 0.960 . S
C1988 H1975 0.960 . S
C1988 C1987 1.524 . S
C1989 C1986 1.403 . S
C1989 C1990 1.392 . S
C1989 C1993 1.495 1_545 S
C1990 C1989 1.392 . S
C1990 C1991 1.385 . S
C1990 C1992 1.478 . S
C1991 H1985 0.930 . S
C1991 C1987 1.400 . S
C1991 C1990 1.385 . S
C1992 C1990 1.478 . S
C1992 C1994 1.381 1_655 S
C1992 C1998 1.383 . S
C1993 C1989 1.495 1_565 S
C1993 H1999 0.959 . S
C1993 H2000 0.961 . S
C1993 H2001 0.960 . S
C1994 C1992 1.381 1_455 S
C1994 C1995 1.394 . S
C1994 H2002 0.930 . S
C1995 C1994 1.394 . S
C1995 C1996 1.383 . S
C1995 H2003 0.929 . S
C1996 C1995 1.383 . S
C1996 C1997 1.377 1_455 S
C1997 H1981 0.930 . S
C1997 C1996 1.377 1_655 S
C1997 C1998 1.379 . S
C1998 H1982 0.931 . S
C1998 C1992 1.383 . S
C1998 C1997 1.379 . S
H1999 C1993 0.959 . S
H2000 C1993 0.961 . S
H2001 C1993 0.960 . S
H2002 C1994 0.930 . S
H2003 C1995 0.929 . S
H2004 C2012 0.929 . S
H2005 C2014 0.930 . S
H2006 C2016 0.930 . S
H2007 C2019 0.929 . S
H2008 C2022 0.930 . S
H2009 C2024 0.960 . S
H2010 C2024 0.960 . S
H2011 C2024 0.960 . S
C2012 H2004 0.929 . S
C2012 C2013 1.377 . S
C2012 C2014 1.384 . S
C2013 C2012 1.377 . S
C2013 C2019 1.390 . S
C2014 H2005 0.930 . S
C2014 C2012 1.384 . S
C2014 C2015 1.372 . S
C2015 C2014 1.372 . S
C2015 C2016 1.400 . S
C2015 C2020 1.490 . S
C2016 H2006 0.930 . S
C2016 C2015 1.400 . S
C2016 C2019 1.386 . S
H2017 C2033 0.930 . S
H2018 C2034 0.931 . S
C2019 H2007 0.929 . S
C2019 C2013 1.390 . S
C2019 C2016 1.386 . S
C2020 C2015 1.490 . S
C2020 C2022 1.395 . S
C2020 C2023 1.403 . S
H2021 C2027 0.930 . S
C2022 H2008 0.930 . S
C2022 C2020 1.395 . S
C2022 C2025 1.403 . S
C2023 C2020 1.403 . S
C2023 C2024 1.524 . S
C2023 C2027 1.400 . S
C2024 H2009 0.960 . S
C2024 H2010 0.960 . S
C2024 H2011 0.960 . S
C2024 C2023 1.524 . S
C2025 C2022 1.403 . S
C2025 C2026 1.392 . S
C2025 C2029 1.495 . S
C2026 C2025 1.392 . S
C2026 C2027 1.385 . S
C2026 C2028 1.478 . S
C2027 H2021 0.930 . S
C2027 C2023 1.400 . S
C2027 C2026 1.385 . S
C2028 C2026 1.478 . S
C2028 C2030 1.381 . S
C2028 C2034 1.383 . S
C2029 C2025 1.495 . S
C2029 H2035 0.959 . S
C2029 H2036 0.961 . S
C2029 H2037 0.960 . S
C2030 C2028 1.381 . S
C2030 C2031 1.394 . S
C2030 H2038 0.930 . S
C2031 C2030 1.394 . S
C2031 C2032 1.383 . S
C2031 H2039 0.929 . S
C2032 C2031 1.383 . S
C2032 C2033 1.377 . S
C2033 H2017 0.930 . S
C2033 C2032 1.377 . S
C2033 C2034 1.379 . S
C2034 H2018 0.931 . S
C2034 C2028 1.383 . S
C2034 C2033 1.379 . S
H2035 C2029 0.959 . S
H2036 C2029 0.961 . S
H2037 C2029 0.960 . S
H2038 C2030 0.930 . S
H2039 C2031 0.929 . S
H2040 C2048 0.929 . S
H2041 C2050 0.930 . S
H2042 C2052 0.930 . S
H2043 C2055 0.929 . S
H2044 C2058 0.930 . S
H2045 C2060 0.960 . S
H2046 C2060 0.960 . S
H2047 C2060 0.960 . S
C2048 H2040 0.929 . S
C2048 C2049 1.377 . S
C2048 C2050 1.384 . S
C2049 C2048 1.377 . S
C2049 C2055 1.390 . S
C2050 H2041 0.930 . S
C2050 C2048 1.384 . S
C2050 C2051 1.372 . S
C2051 C2050 1.372 . S
C2051 C2052 1.400 . S
C2051 C2056 1.490 . S
C2052 H2042 0.930 . S
C2052 C2051 1.400 . S
C2052 C2055 1.386 . S
H2053 C2069 0.893 1_565 S
H2054 C2070 0.931 . S
C2055 H2043 0.929 . S
C2055 C2049 1.390 . S
C2055 C2052 1.386 . S
C2056 C2051 1.490 . S
C2056 C2058 1.395 . S
C2056 C2059 1.403 . S
H2057 C2063 0.930 . S
C2058 H2044 0.930 . S
C2058 C2056 1.395 . S
C2058 C2061 1.403 . S
C2059 C2056 1.403 . S
C2059 C2060 1.524 . S
C2059 C2063 1.400 . S
C2060 H2045 0.960 . S
C2060 H2046 0.960 . S
C2060 H2047 0.960 . S
C2060 C2059 1.524 . S
C2061 C2058 1.403 . S
C2061 C2062 1.392 . S
C2061 C2065 1.495 . S
C2062 C2061 1.392 . S
C2062 C2063 1.385 . S
C2062 C2064 1.478 . S
C2063 H2057 0.930 . S
C2063 C2059 1.400 . S
C2063 C2062 1.385 . S
C2064 C2062 1.478 . S
C2064 C2066 1.381 . S
C2064 C2070 1.383 . S
C2065 C2061 1.495 . S
C2065 H2071 0.959 . S
C2065 H2072 0.961 . S
C2065 H2073 0.960 . S
C2066 C2064 1.381 . S
C2066 C2067 1.394 . S
C2066 H2074 0.930 . S
C2067 C2066 1.394 . S
C2067 C2068 1.383 . S
C2067 H2075 0.929 . S
C2068 C2067 1.383 . S
C2068 C2069 1.377 . S
C2069 H2053 0.893 1_545 S
C2069 C2068 1.377 . S
C2069 C2070 1.379 . S
C2070 H2054 0.931 . S
C2070 C2064 1.383 . S
C2070 C2069 1.379 . S
H2071 C2065 0.959 . S
H2072 C2065 0.961 . S
H2073 C2065 0.960 . S
H2074 C2066 0.930 . S
H2075 C2067 0.929 . S
H2076 C2084 0.929 . S
H2077 C2086 0.930 . S
H2078 C2088 0.930 . S
H2079 C2091 0.929 . S
H2080 C2094 0.930 . S
H2081 C2096 0.960 . S
H2082 C2096 0.960 . S
H2083 C2096 0.960 . S
C2084 H2076 0.929 . S
C2084 C2085 1.377 . S
C2084 C2086 1.384 . S
C2085 C2084 1.377 . S
C2085 C2091 1.390 . S
C2086 H2077 0.930 . S
C2086 C2084 1.384 . S
C2086 C2087 1.372 . S
C2087 C2086 1.372 . S
C2087 C2088 1.400 . S
C2087 C2092 1.490 . S
C2088 H2078 0.930 . S
C2088 C2087 1.400 . S
C2088 C2091 1.386 . S
H2089 C2105 0.930 . S
H2090 C2106 0.931 . S
C2091 H2079 0.929 . S
C2091 C2085 1.390 . S
C2091 C2088 1.386 . S
C2092 C2087 1.490 . S
C2092 C2094 1.395 . S
C2092 C2095 1.403 . S
H2093 C2099 0.930 . S
C2094 H2080 0.930 . S
C2094 C2092 1.395 . S
C2094 C2097 1.403 . S
C2095 C2092 1.403 . S
C2095 C2096 1.524 . S
C2095 C2099 1.400 . S
C2096 H2081 0.960 . S
C2096 H2082 0.960 . S
C2096 H2083 0.960 . S
C2096 C2095 1.524 . S
C2097 C2094 1.403 . S
C2097 C2098 1.392 . S
C2097 C2101 1.495 . S
C2098 C2097 1.392 . S
C2098 C2099 1.385 . S
C2098 C2100 1.478 . S
C2099 H2093 0.930 . S
C2099 C2095 1.400 . S
C2099 C2098 1.385 . S
C2100 C2098 1.478 . S
C2100 C2102 1.381 . S
C2100 C2106 1.383 . S
C2101 C2097 1.495 . S
C2101 H2107 0.959 . S
C2101 H2108 0.961 . S
C2101 H2109 0.960 . S
C2102 C2100 1.381 . S
C2102 C2103 1.394 . S
C2102 H2110 0.930 . S
C2103 C2102 1.394 . S
C2103 C2104 1.383 . S
C2103 H2111 0.929 . S
C2104 C2103 1.383 . S
C2104 C2105 1.377 . S
C2105 H2089 0.930 . S
C2105 C2104 1.377 . S
C2105 C2106 1.379 . S
C2106 H2090 0.931 . S
C2106 C2100 1.383 . S
C2106 C2105 1.379 . S
H2107 C2101 0.959 . S
H2108 C2101 0.961 . S
H2109 C2101 0.960 . S
H2110 C2102 0.930 . S
H2111 C2103 0.929 . S
H2112 C2120 0.929 . S
H2113 C2122 0.930 . S
H2114 C2124 0.901 1_565 S
H2115 C2127 0.956 . S
H2116 C2130 0.930 . S
H2117 C2132 0.960 . S
H2118 C2132 0.960 . S
H2119 C2132 0.960 . S
C2120 H2112 0.929 . S
C2120 C2121 1.377 . S
C2120 C2122 1.384 . S
C2121 C2120 1.377 . S
C2121 C2127 1.358 1_545 S
C2122 H2113 0.930 . S
C2122 C2120 1.384 . S
C2122 C2123 1.372 . S
C2123 C2122 1.372 . S
C2123 C2124 1.423 . S
C2123 C2128 1.490 . S
C2124 H2114 0.901 1_545 S
C2124 C2123 1.423 . S
C2124 C2127 1.400 1_545 S
H2125 C2141 0.925 1_565 S
H2126 C2142 0.929 . S
C2127 H2115 0.956 . S
C2127 C2121 1.358 1_565 S
C2127 C2124 1.400 1_565 S
C2128 C2123 1.490 . S
C2128 C2130 1.395 . S
C2128 C2131 1.403 . S
H2129 C2135 0.930 1_565 S
C2130 H2116 0.930 . S
C2130 C2128 1.395 . S
C2130 C2133 1.403 . S
C2131 C2128 1.403 . S
C2131 C2132 1.524 1_545 S
C2131 C2135 1.400 . S
C2132 H2117 0.960 . S
C2132 H2118 0.960 . S
C2132 H2119 0.960 . S
C2132 C2131 1.524 1_565 S
C2133 C2130 1.403 . S
C2133 C2134 1.392 . S
C2133 C2137 1.495 . S
C2134 C2133 1.392 . S
C2134 C2135 1.385 . S
C2134 C2136 1.478 . S
C2135 H2129 0.930 1_545 S
C2135 C2131 1.400 . S
C2135 C2134 1.385 . S
C2136 C2134 1.478 . S
C2136 C2138 1.381 1_655 S
C2136 C2142 1.383 . S
C2137 C2133 1.495 . S
C2137 H2143 0.959 . S
C2137 H2144 0.961 . S
C2137 H2145 0.960 . S
C2138 C2136 1.381 1_455 S
C2138 C2139 1.394 . S
C2138 H2146 0.930 . S
C2139 C2138 1.394 . S
C2139 C2140 1.383 . S
C2139 H2147 0.929 . S
C2140 C2139 1.383 . S
C2140 C2141 1.377 1_455 S
C2141 H2125 0.925 1_545 S
C2141 C2140 1.377 1_655 S
C2141 C2142 1.379 . S
C2142 H2126 0.929 . S
C2142 C2136 1.383 . S
C2142 C2141 1.379 . S
H2143 C2137 0.959 . S
H2144 C2137 0.961 . S
H2145 C2137 0.960 . S
H2146 C2138 0.930 . S
H2147 C2139 0.929 . S
H2148 C2156 0.929 . S
H2149 C2158 0.930 . S
H2150 C2160 0.930 . S
H2151 C2163 0.929 . S
H2152 C2166 0.930 . S
H2153 C2168 0.960 . S
H2154 C2168 0.960 . S
H2155 C2168 0.960 . S
C2156 H2148 0.929 . S
C2156 C2157 1.377 . S
C2156 C2158 1.384 . S
C2157 C2156 1.377 . S
C2157 C2163 1.390 . S
C2158 H2149 0.930 . S
C2158 C2156 1.384 . S
C2158 C2159 1.372 . S
C2159 C2158 1.372 . S
C2159 C2160 1.400 . S
C2159 C2164 1.490 . S
C2160 H2150 0.930 . S
C2160 C2159 1.400 . S
C2160 C2163 1.386 . S
H2161 C2177 0.930 . S
H2162 C2178 0.931 . S
C2163 H2151 0.929 . S
C2163 C2157 1.390 . S
C2163 C2160 1.386 . S
C2164 C2159 1.490 . S
C2164 C2166 1.395 . S
C2164 C2167 1.403 . S
H2165 C2171 0.930 . S
C2166 H2152 0.930 . S
C2166 C2164 1.395 . S
C2166 C2169 1.403 . S
C2167 C2164 1.403 . S
C2167 C2168 1.524 . S
C2167 C2171 1.400 . S
C2168 H2153 0.960 . S
C2168 H2154 0.960 . S
C2168 H2155 0.960 . S
C2168 C2167 1.524 . S
C2169 C2166 1.403 . S
C2169 C2170 1.392 . S
C2169 C2173 1.495 . S
C2170 C2169 1.392 . S
C2170 C2171 1.385 . S
C2170 C2172 1.478 . S
C2171 H2165 0.930 . S
C2171 C2167 1.400 . S
C2171 C2170 1.385 . S
C2172 C2170 1.478 . S
C2172 C2174 1.381 . S
C2172 C2178 1.383 . S
C2173 C2169 1.495 . S
C2173 H2179 0.959 . S
C2173 H2180 0.961 . S
C2173 H2181 0.960 . S
C2174 C2172 1.381 . S
C2174 C2175 1.394 . S
C2174 H2182 0.930 . S
C2175 C2174 1.394 . S
C2175 C2176 1.383 . S
C2175 H2183 0.929 . S
C2176 C2175 1.383 . S
C2176 C2177 1.377 . S
C2177 H2161 0.930 . S
C2177 C2176 1.377 . S
C2177 C2178 1.379 . S
C2178 H2162 0.931 . S
C2178 C2172 1.383 . S
C2178 C2177 1.379 . S
H2179 C2173 0.959 . S
H2180 C2173 0.961 . S
H2181 C2173 0.960 . S
H2182 C2174 0.930 . S
H2183 C2175 0.929 . S
H2184 C2192 0.929 . S
H2185 C2194 0.930 . S
H2186 C2196 0.930 . S
H2187 C2199 0.929 . S
H2188 C2202 0.930 . S
H2189 C2204 0.960 . S
H2190 C2204 0.960 . S
H2191 C2204 0.960 . S
C2192 H2184 0.929 . S
C2192 C2193 1.377 . S
C2192 C2194 1.384 . S
C2193 C2192 1.377 . S
C2193 C2199 1.390 . S
C2194 H2185 0.930 . S
C2194 C2192 1.384 . S
C2194 C2195 1.372 . S
C2195 C2194 1.372 . S
C2195 C2196 1.400 . S
C2195 C2200 1.490 . S
C2196 H2186 0.930 . S
C2196 C2195 1.400 . S
C2196 C2199 1.386 . S
H2197 C2213 0.930 . S
H2198 C2214 0.931 . S
C2199 H2187 0.929 . S
C2199 C2193 1.390 . S
C2199 C2196 1.386 . S
C2200 C2195 1.490 . S
C2200 C2202 1.395 . S
C2200 C2203 1.403 . S
H2201 C2207 0.930 . S
C2202 H2188 0.930 . S
C2202 C2200 1.395 . S
C2202 C2205 1.403 . S
C2203 C2200 1.403 . S
C2203 C2204 1.524 . S
C2203 C2207 1.400 . S
C2204 H2189 0.960 . S
C2204 H2190 0.960 . S
C2204 H2191 0.960 . S
C2204 C2203 1.524 . S
C2205 C2202 1.403 . S
C2205 C2206 1.392 . S
C2205 C2209 1.495 . S
C2206 C2205 1.392 . S
C2206 C2207 1.385 . S
C2206 C2208 1.478 . S
C2207 H2201 0.930 . S
C2207 C2203 1.400 . S
C2207 C2206 1.385 . S
C2208 C2206 1.478 . S
C2208 C2210 1.381 . S
C2208 C2214 1.383 . S
C2209 C2205 1.495 . S
C2209 H2215 0.959 . S
C2209 H2216 0.961 . S
C2209 H2217 0.960 . S
C2210 C2208 1.381 . S
C2210 C2211 1.394 . S
C2210 H2218 0.930 . S
C2211 C2210 1.394 . S
C2211 C2212 1.383 . S
C2211 H2219 0.929 . S
C2212 C2211 1.383 . S
C2212 C2213 1.377 . S
C2213 H2197 0.930 . S
C2213 C2212 1.377 . S
C2213 C2214 1.379 . S
C2214 H2198 0.931 . S
C2214 C2208 1.383 . S
C2214 C2213 1.379 . S
H2215 C2209 0.959 . S
H2216 C2209 0.961 . S
H2217 C2209 0.960 . S
H2218 C2210 0.930 . S
H2219 C2211 0.929 . S
H2220 C2228 0.929 . S
H2221 C2230 0.930 . S
H2222 C2232 0.930 . S
H2223 C2235 0.929 . S
H2224 C2238 0.930 . S
H2225 C2240 0.960 . S
H2226 C2240 0.960 . S
H2227 C2240 0.960 . S
C2228 H2220 0.929 . S
C2228 C2229 1.377 . S
C2228 C2230 1.384 . S
C2229 C2228 1.377 . S
C2229 C2235 1.390 . S
C2230 H2221 0.930 . S
C2230 C2228 1.384 . S
C2230 C2231 1.372 . S
C2231 C2230 1.372 . S
C2231 C2232 1.400 . S
C2231 C2236 1.490 . S
C2232 H2222 0.930 . S
C2232 C2231 1.400 . S
C2232 C2235 1.386 . S
H2233 C2249 0.930 . S
H2234 C2250 0.931 . S
C2235 H2223 0.929 . S
C2235 C2229 1.390 . S
C2235 C2232 1.386 . S
C2236 C2231 1.490 . S
C2236 C2238 1.395 . S
C2236 C2239 1.403 . S
H2237 C2243 0.930 . S
C2238 H2224 0.930 . S
C2238 C2236 1.395 . S
C2238 C2241 1.403 . S
C2239 C2236 1.403 . S
C2239 C2240 1.524 . S
C2239 C2243 1.400 . S
C2240 H2225 0.960 . S
C2240 H2226 0.960 . S
C2240 H2227 0.960 . S
C2240 C2239 1.524 . S
C2241 C2238 1.403 . S
C2241 C2242 1.392 . S
C2241 C2245 1.495 . S
C2242 C2241 1.392 . S
C2242 C2243 1.385 . S
C2242 C2244 1.478 . S
C2243 H2237 0.930 . S
C2243 C2239 1.400 . S
C2243 C2242 1.385 . S
C2244 C2242 1.478 . S
C2244 C2246 1.381 . S
C2244 C2250 1.383 . S
C2245 C2241 1.495 . S
C2245 H2251 0.959 . S
C2245 H2252 0.961 . S
C2245 H2253 0.960 . S
C2246 C2244 1.381 . S
C2246 C2247 1.394 . S
C2246 H2254 0.930 . S
C2247 C2246 1.394 . S
C2247 C2248 1.383 . S
C2247 H2255 0.929 . S
C2248 C2247 1.383 . S
C2248 C2249 1.377 . S
C2249 H2233 0.930 . S
C2249 C2248 1.377 . S
C2249 C2250 1.379 . S
C2250 H2234 0.931 . S
C2250 C2244 1.383 . S
C2250 C2249 1.379 . S
H2251 C2245 0.959 . S
H2252 C2245 0.961 . S
H2253 C2245 0.960 . S
H2254 C2246 0.930 . S
H2255 C2247 0.929 . S
H2256 C2264 0.929 . S
H2257 C2266 0.930 . S
H2258 C2268 0.930 . S
H2259 C2271 0.929 . S
H2260 C2274 0.930 . S
H2261 C2276 0.960 . S
H2262 C2276 0.960 . S
H2263 C2276 0.960 1_556 S
C2264 H2256 0.929 . S
C2264 C2265 1.377 . S
C2264 C2266 1.384 . S
C2265 C2264 1.377 . S
C2265 C2271 1.390 1_554 S
C2266 H2257 0.930 . S
C2266 C2264 1.384 . S
C2266 C2267 1.372 . S
C2267 C2266 1.372 . S
C2267 C2268 1.400 1_554 S
C2267 C2272 1.490 . S
C2268 H2258 0.930 . S
C2268 C2267 1.400 1_556 S
C2268 C2271 1.386 . S
H2269 C2285 0.930 . S
H2270 C2286 0.931 . S
C2271 H2259 0.929 . S
C2271 C2265 1.390 1_556 S
C2271 C2268 1.386 . S
C2272 C2267 1.490 . S
C2272 C2274 1.395 . S
C2272 C2275 1.403 . S
H2273 C2279 0.930 . S
C2274 H2260 0.930 . S
C2274 C2272 1.395 . S
C2274 C2277 1.403 . S
C2275 C2272 1.403 . S
C2275 C2276 1.524 . S
C2275 C2279 1.400 . S
C2276 H2261 0.960 . S
C2276 H2262 0.960 . S
C2276 H2263 0.960 1_554 S
C2276 C2275 1.524 . S
C2277 C2274 1.403 . S
C2277 C2278 1.392 . S
C2277 C2281 1.495 1_565 S
C2278 C2277 1.392 . S
C2278 C2279 1.385 . S
C2278 C2280 1.478 . S
C2279 H2273 0.930 . S
C2279 C2275 1.400 . S
C2279 C2278 1.385 . S
C2280 C2278 1.478 . S
C2280 C2282 1.381 . S
C2280 C2286 1.383 . S
C2281 C2277 1.495 1_545 S
C2281 H2287 0.959 . S
C2281 H2288 0.961 . S
C2281 H2289 0.960 . S
C2282 C2280 1.381 . S
C2282 C2283 1.357 1_565 S
C2282 H2290 0.930 . S
C2283 C2282 1.357 1_545 S
C2283 C2284 1.417 . S
C2283 H2291 0.937 . S
C2284 C2283 1.417 . S
C2284 C2285 1.377 . S
C2285 H2269 0.930 . S
C2285 C2284 1.377 . S
C2285 C2286 1.379 1_545 S
C2286 H2270 0.931 . S
C2286 C2280 1.383 . S
C2286 C2285 1.379 1_565 S
H2287 C2281 0.959 . S
H2288 C2281 0.961 . S
H2289 C2281 0.960 . S
H2290 C2282 0.930 . S
H2291 C2283 0.937 . S
H2292 C2300 0.929 1_556 S
H2293 C2302 0.943 . S
H2294 C2304 0.930 . S
H2295 C2307 0.929 . S
H2296 C2310 0.930 . S
H2297 C2312 0.960 . S
H2298 C2312 0.960 . S
H2299 C2312 0.960 . S
C2300 H2292 0.929 1_554 S
C2300 C2301 1.377 . S
C2300 C2302 1.384 . S
C2301 C2300 1.377 . S
C2301 C2307 1.390 . S
C2302 H2293 0.943 . S
C2302 C2300 1.384 . S
C2302 C2303 1.372 . S
C2303 C2302 1.372 . S
C2303 C2304 1.400 . S
C2303 C2308 1.490 . S
C2304 H2294 0.930 . S
C2304 C2303 1.400 . S
C2304 C2307 1.386 . S
H2305 C2321 0.930 . S
H2306 C2322 0.931 . S
C2307 H2295 0.929 . S
C2307 C2301 1.390 . S
C2307 C2304 1.386 . S
C2308 C2303 1.490 . S
C2308 C2310 1.395 . S
C2308 C2311 1.403 . S
H2309 C2315 0.930 . S
C2310 H2296 0.930 . S
C2310 C2308 1.395 . S
C2310 C2313 1.403 . S
C2311 C2308 1.403 . S
C2311 C2312 1.524 . S
C2311 C2315 1.400 . S
C2312 H2297 0.960 . S
C2312 H2298 0.960 . S
C2312 H2299 0.960 . S
C2312 C2311 1.524 . S
C2313 C2310 1.403 . S
C2313 C2314 1.392 . S
C2313 C2317 1.495 . S
C2314 C2313 1.392 . S
C2314 C2315 1.385 . S
C2314 C2316 1.478 . S
C2315 H2309 0.930 . S
C2315 C2311 1.400 . S
C2315 C2314 1.385 . S
C2316 C2314 1.478 . S
C2316 C2318 1.381 . S
C2316 C2322 1.383 . S
C2317 C2313 1.495 . S
C2317 H2323 0.959 . S
C2317 H2324 0.961 . S
C2317 H2325 0.960 . S
C2318 C2316 1.381 . S
C2318 C2319 1.394 . S
C2318 H2326 0.930 . S
C2319 C2318 1.394 . S
C2319 C2320 1.383 . S
C2319 H2327 0.929 . S
C2320 C2319 1.383 . S
C2320 C2321 1.377 . S
C2321 H2305 0.930 . S
C2321 C2320 1.377 . S
C2321 C2322 1.379 . S
C2322 H2306 0.931 . S
C2322 C2316 1.383 . S
C2322 C2321 1.379 . S
H2323 C2317 0.959 . S
H2324 C2317 0.961 . S
H2325 C2317 0.960 . S
H2326 C2318 0.930 . S
H2327 C2319 0.929 . S
H2328 C2336 0.929 . S
H2329 C2338 0.930 . S
H2330 C2340 0.930 . S
H2331 C2343 0.929 . S
H2332 C2346 0.930 . S
H2333 C2348 0.960 . S
H2334 C2348 0.960 . S
H2335 C2348 0.960 . S
C2336 H2328 0.929 . S
C2336 C2337 1.377 . S
C2336 C2338 1.384 . S
C2337 C2336 1.377 . S
C2337 C2343 1.390 . S
C2338 H2329 0.930 . S
C2338 C2336 1.384 . S
C2338 C2339 1.372 . S
C2339 C2338 1.372 . S
C2339 C2340 1.400 . S
C2339 C2344 1.490 . S
C2340 H2330 0.930 . S
C2340 C2339 1.400 . S
C2340 C2343 1.386 . S
H2341 C2357 0.930 . S
H2342 C2358 0.931 . S
C2343 H2331 0.929 . S
C2343 C2337 1.390 . S
C2343 C2340 1.386 . S
C2344 C2339 1.490 . S
C2344 C2346 1.395 . S
C2344 C2347 1.403 . S
H2345 C2351 0.930 . S
C2346 H2332 0.930 . S
C2346 C2344 1.395 . S
C2346 C2349 1.403 . S
C2347 C2344 1.403 . S
C2347 C2348 1.524 . S
C2347 C2351 1.400 . S
C2348 H2333 0.960 . S
C2348 H2334 0.960 . S
C2348 H2335 0.960 . S
C2348 C2347 1.524 . S
C2349 C2346 1.403 . S
C2349 C2350 1.392 . S
C2349 C2353 1.495 . S
C2350 C2349 1.392 . S
C2350 C2351 1.385 . S
C2350 C2352 1.478 . S
C2351 H2345 0.930 . S
C2351 C2347 1.400 . S
C2351 C2350 1.385 . S
C2352 C2350 1.478 . S
C2352 C2354 1.381 . S
C2352 C2358 1.383 . S
C2353 C2349 1.495 . S
C2353 H2359 0.959 . S
C2353 H2360 0.961 . S
C2353 H2361 0.960 . S
C2354 C2352 1.381 . S
C2354 C2355 1.394 . S
C2354 H2362 0.930 . S
C2355 C2354 1.394 . S
C2355 C2356 1.383 . S
C2355 H2363 0.929 . S
C2356 C2355 1.383 . S
C2356 C2357 1.377 . S
C2357 H2341 0.930 . S
C2357 C2356 1.377 . S
C2357 C2358 1.379 . S
C2358 H2342 0.931 . S
C2358 C2352 1.383 . S
C2358 C2357 1.379 . S
H2359 C2353 0.959 . S
H2360 C2353 0.961 . S
H2361 C2353 0.960 . S
H2362 C2354 0.930 . S
H2363 C2355 0.929 . S
H2364 C2372 0.929 . S
H2365 C2374 0.930 . S
H2366 C2376 0.930 . S
H2367 C2379 0.929 . S
H2368 C2382 0.930 . S
H2369 C2384 0.960 . S
H2370 C2384 0.960 . S
H2371 C2384 0.960 . S
C2372 H2364 0.929 . S
C2372 C2373 1.377 . S
C2372 C2374 1.384 . S
C2373 C2372 1.377 . S
C2373 C2379 1.390 . S
C2374 H2365 0.930 . S
C2374 C2372 1.384 . S
C2374 C2375 1.372 . S
C2375 C2374 1.372 . S
C2375 C2376 1.400 . S
C2375 C2380 1.490 . S
C2376 H2366 0.930 . S
C2376 C2375 1.400 . S
C2376 C2379 1.386 . S
H2377 C2393 0.930 . S
H2378 C2394 0.931 . S
C2379 H2367 0.929 . S
C2379 C2373 1.390 . S
C2379 C2376 1.386 . S
C2380 C2375 1.490 . S
C2380 C2382 1.395 . S
C2380 C2383 1.403 . S
H2381 C2387 0.930 . S
C2382 H2368 0.930 . S
C2382 C2380 1.395 . S
C2382 C2385 1.403 . S
C2383 C2380 1.403 . S
C2383 C2384 1.524 . S
C2383 C2387 1.400 . S
C2384 H2369 0.960 . S
C2384 H2370 0.960 . S
C2384 H2371 0.960 . S
C2384 C2383 1.524 . S
C2385 C2382 1.403 . S
C2385 C2386 1.392 . S
C2385 C2389 1.495 . S
C2386 C2385 1.392 . S
C2386 C2387 1.385 . S
C2386 C2388 1.478 . S
C2387 H2381 0.930 . S
C2387 C2383 1.400 . S
C2387 C2386 1.385 . S
C2388 C2386 1.478 . S
C2388 C2390 1.381 . S
C2388 C2394 1.383 . S
C2389 C2385 1.495 . S
C2389 H2395 0.959 . S
C2389 H2396 0.961 . S
C2389 H2397 0.960 . S
C2390 C2388 1.381 . S
C2390 C2391 1.394 . S
C2390 H2398 0.930 . S
C2391 C2390 1.394 . S
C2391 C2392 1.383 . S
C2391 H2399 0.929 . S
C2392 C2391 1.383 . S
C2392 C2393 1.377 . S
C2393 H2377 0.930 . S
C2393 C2392 1.377 . S
C2393 C2394 1.379 . S
C2394 H2378 0.931 . S
C2394 C2388 1.383 . S
C2394 C2393 1.379 . S
H2395 C2389 0.959 . S
H2396 C2389 0.961 . S
H2397 C2389 0.960 . S
H2398 C2390 0.930 . S
H2399 C2391 0.929 . S
H2400 C2408 0.929 . S
H2401 C2410 0.930 . S
H2402 C2412 0.930 . S
H2403 C2415 0.929 . S
H2404 C2418 0.930 . S
H2405 C2420 0.960 . S
H2406 C2420 0.960 . S
H2407 C2420 0.960 . S
C2408 H2400 0.929 . S
C2408 C2409 1.377 . S
C2408 C2410 1.384 . S
C2409 C2408 1.377 . S
C2409 C2415 1.390 . S
C2410 H2401 0.930 . S
C2410 C2408 1.384 . S
C2410 C2411 1.372 . S
C2411 C2410 1.372 . S
C2411 C2412 1.400 . S
C2411 C2416 1.490 . S
C2412 H2402 0.930 . S
C2412 C2411 1.400 . S
C2412 C2415 1.386 . S
H2413 C2429 0.930 . S
H2414 C2430 0.931 . S
C2415 H2403 0.929 . S
C2415 C2409 1.390 . S
C2415 C2412 1.386 . S
C2416 C2411 1.490 . S
C2416 C2418 1.395 . S
C2416 C2419 1.403 . S
H2417 C2423 0.930 . S
C2418 H2404 0.930 . S
C2418 C2416 1.395 . S
C2418 C2421 1.403 . S
C2419 C2416 1.403 . S
C2419 C2420 1.524 . S
C2419 C2423 1.400 . S
C2420 H2405 0.960 . S
C2420 H2406 0.960 . S
C2420 H2407 0.960 . S
C2420 C2419 1.524 . S
C2421 C2418 1.403 . S
C2421 C2422 1.392 . S
C2421 C2425 1.495 . S
C2422 C2421 1.392 . S
C2422 C2423 1.385 . S
C2422 C2424 1.478 . S
C2423 H2417 0.930 . S
C2423 C2419 1.400 . S
C2423 C2422 1.385 . S
C2424 C2422 1.478 . S
C2424 C2426 1.381 . S
C2424 C2430 1.383 . S
C2425 C2421 1.495 . S
C2425 H2431 0.959 . S
C2425 H2432 0.961 . S
C2425 H2433 0.960 . S
C2426 C2424 1.381 . S
C2426 C2427 1.394 . S
C2426 H2434 0.930 . S
C2427 C2426 1.394 . S
C2427 C2428 1.383 . S
C2427 H2435 0.929 . S
C2428 C2427 1.383 . S
C2428 C2429 1.377 . S
C2429 H2413 0.930 . S
C2429 C2428 1.377 . S
C2429 C2430 1.379 . S
C2430 H2414 0.931 . S
C2430 C2424 1.383 . S
C2430 C2429 1.379 . S
H2431 C2425 0.959 . S
H2432 C2425 0.961 . S
H2433 C2425 0.960 . S
H2434 C2426 0.930 . S
H2435 C2427 0.929 . S
H2436 C2444 0.929 . S
H2437 C2446 0.930 . S
H2438 C2448 0.930 . S
H2439 C2451 0.929 . S
H2440 C2454 0.930 . S
H2441 C2456 0.960 . S
H2442 C2456 0.960 . S
H2443 C2456 0.960 . S
C2444 H2436 0.929 . S
C2444 C2445 1.377 . S
C2444 C2446 1.384 . S
C2445 C2444 1.377 . S
C2445 C2451 1.390 . S
C2446 H2437 0.930 . S
C2446 C2444 1.384 . S
C2446 C2447 1.372 . S
C2447 C2446 1.372 . S
C2447 C2448 1.400 . S
C2447 C2452 1.490 . S
C2448 H2438 0.930 . S
C2448 C2447 1.400 . S
C2448 C2451 1.386 . S
H2449 C2465 0.930 . S
H2450 C2466 0.931 . S
C2451 H2439 0.929 . S
C2451 C2445 1.390 . S
C2451 C2448 1.386 . S
C2452 C2447 1.490 . S
C2452 C2454 1.395 . S
C2452 C2455 1.403 . S
H2453 C2459 0.930 . S
C2454 H2440 0.930 . S
C2454 C2452 1.395 . S
C2454 C2457 1.403 . S
C2455 C2452 1.403 . S
C2455 C2456 1.524 . S
C2455 C2459 1.400 . S
C2456 H2441 0.960 . S
C2456 H2442 0.960 . S
C2456 H2443 0.960 . S
C2456 C2455 1.524 . S
C2457 C2454 1.403 . S
C2457 C2458 1.392 . S
C2457 C2461 1.495 . S
C2458 C2457 1.392 . S
C2458 C2459 1.385 . S
C2458 C2460 1.478 . S
C2459 H2453 0.930 . S
C2459 C2455 1.400 . S
C2459 C2458 1.385 . S
C2460 C2458 1.478 . S
C2460 C2462 1.381 . S
C2460 C2466 1.383 . S
C2461 C2457 1.495 . S
C2461 H2467 0.959 . S
C2461 H2468 0.961 . S
C2461 H2469 0.960 . S
C2462 C2460 1.381 . S
C2462 C2463 1.394 . S
C2462 H2470 0.930 . S
C2463 C2462 1.394 . S
C2463 C2464 1.383 . S
C2463 H2471 0.929 . S
C2464 C2463 1.383 . S
C2464 C2465 1.377 . S
C2465 H2449 0.930 . S
C2465 C2464 1.377 . S
C2465 C2466 1.379 . S
C2466 H2450 0.931 . S
C2466 C2460 1.383 . S
C2466 C2465 1.379 . S
H2467 C2461 0.959 . S
H2468 C2461 0.961 . S
H2469 C2461 0.960 . S
H2470 C2462 0.930 . S
H2471 C2463 0.929 . S
H2472 C2480 0.929 . S
H2473 C2482 0.930 . S
H2474 C2484 0.930 . S
H2475 C2487 0.929 . S
H2476 C2490 0.930 . S
H2477 C2492 0.960 . S
H2478 C2492 0.960 . S
H2479 C2492 0.960 . S
C2480 H2472 0.929 . S
C2480 C2481 1.377 . S
C2480 C2482 1.384 . S
C2481 C2480 1.377 . S
C2481 C2487 1.390 . S
C2482 H2473 0.930 . S
C2482 C2480 1.384 . S
C2482 C2483 1.372 . S
C2483 C2482 1.372 . S
C2483 C2484 1.400 . S
C2483 C2488 1.490 . S
C2484 H2474 0.930 . S
C2484 C2483 1.400 . S
C2484 C2487 1.386 . S
H2485 C2501 0.930 . S
H2486 C2502 0.931 . S
C2487 H2475 0.929 . S
C2487 C2481 1.390 . S
C2487 C2484 1.386 . S
C2488 C2483 1.490 . S
C2488 C2490 1.395 . S
C2488 C2491 1.403 . S
H2489 C2495 0.930 . S
C2490 H2476 0.930 . S
C2490 C2488 1.395 . S
C2490 C2493 1.403 . S
C2491 C2488 1.403 . S
C2491 C2492 1.524 . S
C2491 C2495 1.400 . S
C2492 H2477 0.960 . S
C2492 H2478 0.960 . S
C2492 H2479 0.960 . S
C2492 C2491 1.524 . S
C2493 C2490 1.403 . S
C2493 C2494 1.392 . S
C2493 C2497 1.495 . S
C2494 C2493 1.392 . S
C2494 C2495 1.385 . S
C2494 C2496 1.478 . S
C2495 H2489 0.930 . S
C2495 C2491 1.400 . S
C2495 C2494 1.385 . S
C2496 C2494 1.478 . S
C2496 C2498 1.381 . S
C2496 C2502 1.383 . S
C2497 C2493 1.495 . S
C2497 H2503 0.959 . S
C2497 H2504 0.961 . S
C2497 H2505 0.960 . S
C2498 C2496 1.381 . S
C2498 C2499 1.394 . S
C2498 H2506 0.930 . S
C2499 C2498 1.394 . S
C2499 C2500 1.383 . S
C2499 H2507 0.929 . S
C2500 C2499 1.383 . S
C2500 C2501 1.377 . S
C2501 H2485 0.930 . S
C2501 C2500 1.377 . S
C2501 C2502 1.379 . S
C2502 H2486 0.931 . S
C2502 C2496 1.383 . S
C2502 C2501 1.379 . S
H2503 C2497 0.959 . S
H2504 C2497 0.961 . S
H2505 C2497 0.960 . S
H2506 C2498 0.930 . S
H2507 C2499 0.929 . S
H2508 C2516 0.929 . S
H2509 C2518 0.930 . S
H2510 C2520 0.930 . S
H2511 C2523 0.929 . S
H2512 C2526 0.930 . S
H2513 C2528 0.960 . S
H2514 C2528 0.960 . S
H2515 C2528 0.960 . S
C2516 H2508 0.929 . S
C2516 C2517 1.377 . S
C2516 C2518 1.384 . S
C2517 C2516 1.377 . S
C2517 C2523 1.390 . S
C2518 H2509 0.930 . S
C2518 C2516 1.384 . S
C2518 C2519 1.372 . S
C2519 C2518 1.372 . S
C2519 C2520 1.400 . S
C2519 C2524 1.490 . S
C2520 H2510 0.930 . S
C2520 C2519 1.400 . S
C2520 C2523 1.386 . S
H2521 C2537 0.930 . S
H2522 C2538 0.931 . S
C2523 H2511 0.929 . S
C2523 C2517 1.390 . S
C2523 C2520 1.386 . S
C2524 C2519 1.490 . S
C2524 C2526 1.395 . S
C2524 C2527 1.403 . S
H2525 C2531 0.930 . S
C2526 H2512 0.930 . S
C2526 C2524 1.395 . S
C2526 C2529 1.403 . S
C2527 C2524 1.403 . S
C2527 C2528 1.524 . S
C2527 C2531 1.400 . S
C2528 H2513 0.960 . S
C2528 H2514 0.960 . S
C2528 H2515 0.960 . S
C2528 C2527 1.524 . S
C2529 C2526 1.403 . S
C2529 C2530 1.392 . S
C2529 C2533 1.495 . S
C2530 C2529 1.392 . S
C2530 C2531 1.385 . S
C2530 C2532 1.478 . S
C2531 H2525 0.930 . S
C2531 C2527 1.400 . S
C2531 C2530 1.385 . S
C2532 C2530 1.478 . S
C2532 C2534 1.381 . S
C2532 C2538 1.383 . S
C2533 C2529 1.495 . S
C2533 H2539 0.959 . S
C2533 H2540 0.961 . S
C2533 H2541 0.960 . S
C2534 C2532 1.381 . S
C2534 C2535 1.394 . S
C2534 H2542 0.930 . S
C2535 C2534 1.394 . S
C2535 C2536 1.383 . S
C2535 H2543 0.929 . S
C2536 C2535 1.383 . S
C2536 C2537 1.377 . S
C2537 H2521 0.930 . S
C2537 C2536 1.377 . S
C2537 C2538 1.379 . S
C2538 H2522 0.931 . S
C2538 C2532 1.383 . S
C2538 C2537 1.379 . S
H2539 C2533 0.959 . S
H2540 C2533 0.961 . S
H2541 C2533 0.960 . S
H2542 C2534 0.930 . S
H2543 C2535 0.929 . S
H2544 C2552 0.929 . S
H2545 C2554 0.930 . S
H2546 C2556 0.930 . S
H2547 C2559 0.929 . S
H2548 C2562 0.930 . S
H2549 C2564 0.960 . S
H2550 C2564 0.960 . S
H2551 C2564 0.960 . S
C2552 H2544 0.929 . S
C2552 C2553 1.377 . S
C2552 C2554 1.384 . S
C2553 C2552 1.377 . S
C2553 C2559 1.390 . S
C2554 H2545 0.930 . S
C2554 C2552 1.384 . S
C2554 C2555 1.372 . S
C2555 C2554 1.372 . S
C2555 C2556 1.400 . S
C2555 C2560 1.490 . S
C2556 H2546 0.930 . S
C2556 C2555 1.400 . S
C2556 C2559 1.386 . S
H2557 C2573 0.930 . S
H2558 C2574 0.931 . S
C2559 H2547 0.929 . S
C2559 C2553 1.390 . S
C2559 C2556 1.386 . S
C2560 C2555 1.490 . S
C2560 C2562 1.395 . S
C2560 C2563 1.403 . S
H2561 C2567 0.930 . S
C2562 H2548 0.930 . S
C2562 C2560 1.395 . S
C2562 C2565 1.403 . S
C2563 C2560 1.403 . S
C2563 C2564 1.524 . S
C2563 C2567 1.400 . S
C2564 H2549 0.960 . S
C2564 H2550 0.960 . S
C2564 H2551 0.960 . S
C2564 C2563 1.524 . S
C2565 C2562 1.403 . S
C2565 C2566 1.392 . S
C2565 C2569 1.495 . S
C2566 C2565 1.392 . S
C2566 C2567 1.385 . S
C2566 C2568 1.478 . S
C2567 H2561 0.930 . S
C2567 C2563 1.400 . S
C2567 C2566 1.385 . S
C2568 C2566 1.478 . S
C2568 C2570 1.381 . S
C2568 C2574 1.383 . S
C2569 C2565 1.495 . S
C2569 H2575 0.959 . S
C2569 H2576 0.961 . S
C2569 H2577 0.960 . S
C2570 C2568 1.381 . S
C2570 C2571 1.394 . S
C2570 H2578 0.930 . S
C2571 C2570 1.394 . S
C2571 C2572 1.383 . S
C2571 H2579 0.929 . S
C2572 C2571 1.383 . S
C2572 C2573 1.377 . S
C2573 H2557 0.930 . S
C2573 C2572 1.377 . S
C2573 C2574 1.379 . S
C2574 H2558 0.931 . S
C2574 C2568 1.383 . S
C2574 C2573 1.379 . S
H2575 C2569 0.959 . S
H2576 C2569 0.961 . S
H2577 C2569 0.960 . S
H2578 C2570 0.930 . S
H2579 C2571 0.929 . S
H2580 C2588 0.929 . S
H2581 C2590 0.930 . S
H2582 C2592 0.930 . S
H2583 C2595 0.929 . S
H2584 C2598 0.930 . S
H2585 C2600 0.960 . S
H2586 C2600 0.960 . S
H2587 C2600 0.960 . S
C2588 H2580 0.929 . S
C2588 C2589 1.377 . S
C2588 C2590 1.384 . S
C2589 C2588 1.377 . S
C2589 C2595 1.390 . S
C2590 H2581 0.930 . S
C2590 C2588 1.384 . S
C2590 C2591 1.372 . S
C2591 C2590 1.372 . S
C2591 C2592 1.400 . S
C2591 C2596 1.490 . S
C2592 H2582 0.930 . S
C2592 C2591 1.400 . S
C2592 C2595 1.386 . S
H2593 C2609 0.930 . S
H2594 C2610 0.931 . S
C2595 H2583 0.929 . S
C2595 C2589 1.390 . S
C2595 C2592 1.386 . S
C2596 C2591 1.490 . S
C2596 C2598 1.395 . S
C2596 C2599 1.403 . S
H2597 C2603 0.930 . S
C2598 H2584 0.930 . S
C2598 C2596 1.395 . S
C2598 C2601 1.403 . S
C2599 C2596 1.403 . S
C2599 C2600 1.524 . S
C2599 C2603 1.400 . S
C2600 H2585 0.960 . S
C2600 H2586 0.960 . S
C2600 H2587 0.960 . S
C2600 C2599 1.524 . S
C2601 C2598 1.403 . S
C2601 C2602 1.392 . S
C2601 C2605 1.495 . S
C2602 C2601 1.392 . S
C2602 C2603 1.385 . S
C2602 C2604 1.478 . S
C2603 H2597 0.930 . S
C2603 C2599 1.400 . S
C2603 C2602 1.385 . S
C2604 C2602 1.478 . S
C2604 C2606 1.381 . S
C2604 C2610 1.383 . S
C2605 C2601 1.495 . S
C2605 H2611 0.959 . S
C2605 H2612 0.961 . S
C2605 H2613 0.960 . S
C2606 C2604 1.381 . S
C2606 C2607 1.394 . S
C2606 H2614 0.930 . S
C2607 C2606 1.394 . S
C2607 C2608 1.383 . S
C2607 H2615 0.929 . S
C2608 C2607 1.383 . S
C2608 C2609 1.377 . S
C2609 H2593 0.930 . S
C2609 C2608 1.377 . S
C2609 C2610 1.379 . S
C2610 H2594 0.931 . S
C2610 C2604 1.383 . S
C2610 C2609 1.379 . S
H2611 C2605 0.959 . S
H2612 C2605 0.961 . S
H2613 C2605 0.960 . S
H2614 C2606 0.930 . S
H2615 C2607 0.929 . S
H2616 C2624 0.929 . S
H2617 C2626 0.930 . S
H2618 C2628 0.930 . S
H2619 C2631 0.929 . S
H2620 C2634 0.930 . S
H2621 C2636 0.960 . S
H2622 C2636 0.960 . S
H2623 C2636 0.960 . S
C2624 H2616 0.929 . S
C2624 C2625 1.377 . S
C2624 C2626 1.384 . S
C2625 C2624 1.377 . S
C2625 C2631 1.390 . S
C2626 H2617 0.930 . S
C2626 C2624 1.384 . S
C2626 C2627 1.372 . S
C2627 C2626 1.372 . S
C2627 C2628 1.400 . S
C2627 C2632 1.490 . S
C2628 H2618 0.930 . S
C2628 C2627 1.400 . S
C2628 C2631 1.386 . S
H2629 C2645 0.930 . S
H2630 C2646 0.931 . S
C2631 H2619 0.929 . S
C2631 C2625 1.390 . S
C2631 C2628 1.386 . S
C2632 C2627 1.490 . S
C2632 C2634 1.395 . S
C2632 C2635 1.403 . S
H2633 C2639 0.930 . S
C2634 H2620 0.930 . S
C2634 C2632 1.395 . S
C2634 C2637 1.403 . S
C2635 C2632 1.403 . S
C2635 C2636 1.524 . S
C2635 C2639 1.400 . S
C2636 H2621 0.960 . S
C2636 H2622 0.960 . S
C2636 H2623 0.960 . S
C2636 C2635 1.524 . S
C2637 C2634 1.403 . S
C2637 C2638 1.392 . S
C2637 C2641 1.495 . S
C2638 C2637 1.392 . S
C2638 C2639 1.385 . S
C2638 C2640 1.478 . S
C2639 H2633 0.930 . S
C2639 C2635 1.400 . S
C2639 C2638 1.385 . S
C2640 C2638 1.478 . S
C2640 C2642 1.381 . S
C2640 C2646 1.383 . S
C2641 C2637 1.495 . S
C2641 H2647 0.959 . S
C2641 H2648 0.961 . S
C2641 H2649 0.960 . S
C2642 C2640 1.381 . S
C2642 C2643 1.394 . S
C2642 H2650 0.930 . S
C2643 C2642 1.394 . S
C2643 C2644 1.383 . S
C2643 H2651 0.929 . S
C2644 C2643 1.383 . S
C2644 C2645 1.377 . S
C2645 H2629 0.930 . S
C2645 C2644 1.377 . S
C2645 C2646 1.379 . S
C2646 H2630 0.931 . S
C2646 C2640 1.383 . S
C2646 C2645 1.379 . S
H2647 C2641 0.959 . S
H2648 C2641 0.961 . S
H2649 C2641 0.960 . S
H2650 C2642 0.930 . S
H2651 C2643 0.929 . S
H2652 C2660 0.929 . S
H2653 C2662 0.930 . S
H2654 C2664 0.930 . S
H2655 C2667 0.929 . S
H2656 C2670 0.930 . S
H2657 C2672 0.960 . S
H2658 C2672 0.960 . S
H2659 C2672 0.960 . S
C2660 H2652 0.929 . S
C2660 C2661 1.377 . S
C2660 C2662 1.384 . S
C2661 C2660 1.377 . S
C2661 C2667 1.390 . S
C2662 H2653 0.930 . S
C2662 C2660 1.384 . S
C2662 C2663 1.372 . S
C2663 C2662 1.372 . S
C2663 C2664 1.400 . S
C2663 C2668 1.490 . S
C2664 H2654 0.930 . S
C2664 C2663 1.400 . S
C2664 C2667 1.386 . S
H2665 C2681 0.930 . S
H2666 C2682 0.931 . S
C2667 H2655 0.929 . S
C2667 C2661 1.390 . S
C2667 C2664 1.386 . S
C2668 C2663 1.490 . S
C2668 C2670 1.395 . S
C2668 C2671 1.403 . S
H2669 C2675 0.930 . S
C2670 H2656 0.930 . S
C2670 C2668 1.395 . S
C2670 C2673 1.403 . S
C2671 C2668 1.403 . S
C2671 C2672 1.524 . S
C2671 C2675 1.400 . S
C2672 H2657 0.960 . S
C2672 H2658 0.960 . S
C2672 H2659 0.960 . S
C2672 C2671 1.524 . S
C2673 C2670 1.403 . S
C2673 C2674 1.392 . S
C2673 C2677 1.495 . S
C2674 C2673 1.392 . S
C2674 C2675 1.385 . S
C2674 C2676 1.478 . S
C2675 H2669 0.930 . S
C2675 C2671 1.400 . S
C2675 C2674 1.385 . S
C2676 C2674 1.478 . S
C2676 C2678 1.381 . S
C2676 C2682 1.383 . S
C2677 C2673 1.495 . S
C2677 H2683 0.959 . S
C2677 H2684 0.961 . S
C2677 H2685 0.960 . S
C2678 C2676 1.381 . S
C2678 C2679 1.394 . S
C2678 H2686 0.930 . S
C2679 C2678 1.394 . S
C2679 C2680 1.383 . S
C2679 H2687 0.929 . S
C2680 C2679 1.383 . S
C2680 C2681 1.377 . S
C2681 H2665 0.930 . S
C2681 C2680 1.377 . S
C2681 C2682 1.379 . S
C2682 H2666 0.931 . S
C2682 C2676 1.383 . S
C2682 C2681 1.379 . S
H2683 C2677 0.959 . S
H2684 C2677 0.961 . S
H2685 C2677 0.960 . S
H2686 C2678 0.930 . S
H2687 C2679 0.929 . S
H2688 C2696 0.929 . S
H2689 C2698 0.930 . S
H2690 C2700 0.930 . S
H2691 C2703 0.929 . S
H2692 C2706 0.930 . S
H2693 C2708 0.960 1_655 S
H2694 C2708 0.960 . S
H2695 C2708 0.960 1_655 S
C2696 H2688 0.929 . S
C2696 C2697 1.377 . S
C2696 C2698 1.384 . S
C2697 C2696 1.377 . S
C2697 C2703 1.390 . S
C2698 H2689 0.930 . S
C2698 C2696 1.384 . S
C2698 C2699 1.372 . S
C2699 C2698 1.372 . S
C2699 C2700 1.400 . S
C2699 C2704 1.490 . S
C2700 H2690 0.930 . S
C2700 C2699 1.400 . S
C2700 C2703 1.386 . S
H2701 C2717 0.930 . S
H2702 C2718 0.931 . S
C2703 H2691 0.929 . S
C2703 C2697 1.390 . S
C2703 C2700 1.386 . S
C2704 C2699 1.490 . S
C2704 C2706 1.395 . S
C2704 C2707 1.403 . S
H2705 C2711 0.930 . S
C2706 H2692 0.930 . S
C2706 C2704 1.395 . S
C2706 C2709 1.403 . S
C2707 C2704 1.403 . S
C2707 C2708 1.524 . S
C2707 C2711 1.400 . S
C2708 H2693 0.960 1_455 S
C2708 H2694 0.960 . S
C2708 H2695 0.960 1_455 S
C2708 C2707 1.524 . S
C2709 C2706 1.403 . S
C2709 C2710 1.392 . S
C2709 C2713 1.495 . S
C2710 C2709 1.392 . S
C2710 C2711 1.385 . S
C2710 C2712 1.478 . S
C2711 H2705 0.930 . S
C2711 C2707 1.400 . S
C2711 C2710 1.385 . S
C2712 C2710 1.478 . S
C2712 C2714 1.381 . S
C2712 C2718 1.383 . S
C2713 C2709 1.495 . S
C2713 H2719 0.959 . S
C2713 H2720 0.961 . S
C2713 H2721 0.960 . S
C2714 C2712 1.381 . S
C2714 C2715 1.394 . S
C2714 H2722 0.930 . S
C2715 C2714 1.394 . S
C2715 C2716 1.383 . S
C2715 H2723 0.929 . S
C2716 C2715 1.383 . S
C2716 C2717 1.377 . S
C2717 H2701 0.930 . S
C2717 C2716 1.377 . S
C2717 C2718 1.379 . S
C2718 H2702 0.931 . S
C2718 C2712 1.383 . S
C2718 C2717 1.379 . S
H2719 C2713 0.959 . S
H2720 C2713 0.961 . S
H2721 C2713 0.960 . S
H2722 C2714 0.930 . S
H2723 C2715 0.929 . S
H2724 C2732 0.929 . S
H2725 C2734 0.930 . S
H2726 C2736 0.930 . S
H2727 C2739 0.929 . S
H2728 C2742 0.930 . S
H2729 C2744 0.960 . S
H2730 C2744 0.960 . S
H2731 C2744 0.960 . S
C2732 H2724 0.929 . S
C2732 C2733 1.377 . S
C2732 C2734 1.384 . S
C2733 C2732 1.377 . S
C2733 C2739 1.390 . S
C2734 H2725 0.930 . S
C2734 C2732 1.384 . S
C2734 C2735 1.372 . S
C2735 C2734 1.372 . S
C2735 C2736 1.400 . S
C2735 C2740 1.490 . S
C2736 H2726 0.930 . S
C2736 C2735 1.400 . S
C2736 C2739 1.386 . S
H2737 C2753 0.930 . S
H2738 C2754 0.931 . S
C2739 H2727 0.929 . S
C2739 C2733 1.390 . S
C2739 C2736 1.386 . S
C2740 C2735 1.490 . S
C2740 C2742 1.395 . S
C2740 C2743 1.403 . S
H2741 C2747 0.930 . S
C2742 H2728 0.930 . S
C2742 C2740 1.395 . S
C2742 C2745 1.403 . S
C2743 C2740 1.403 . S
C2743 C2744 1.524 . S
C2743 C2747 1.400 . S
C2744 H2729 0.960 . S
C2744 H2730 0.960 . S
C2744 H2731 0.960 . S
C2744 C2743 1.524 . S
C2745 C2742 1.403 . S
C2745 C2746 1.392 . S
C2745 C2749 1.495 . S
C2746 C2745 1.392 . S
C2746 C2747 1.385 . S
C2746 C2748 1.478 . S
C2747 H2741 0.930 . S
C2747 C2743 1.400 . S
C2747 C2746 1.385 . S
C2748 C2746 1.478 . S
C2748 C2750 1.381 . S
C2748 C2754 1.383 . S
C2749 C2745 1.495 . S
C2749 H2755 0.959 . S
C2749 H2756 0.961 . S
C2749 H2757 0.960 . S
C2750 C2748 1.381 . S
C2750 C2751 1.394 . S
C2750 H2758 0.930 . S
C2751 C2750 1.394 . S
C2751 C2752 1.383 . S
C2751 H2759 0.929 . S
C2752 C2751 1.383 . S
C2752 C2753 1.377 . S
C2753 H2737 0.930 . S
C2753 C2752 1.377 . S
C2753 C2754 1.379 . S
C2754 H2738 0.931 . S
C2754 C2748 1.383 . S
C2754 C2753 1.379 . S
H2755 C2749 0.959 . S
H2756 C2749 0.961 . S
H2757 C2749 0.960 . S
H2758 C2750 0.930 . S
H2759 C2751 0.929 . S
H2760 C2768 0.929 . S
H2761 C2770 0.930 . S
H2762 C2772 0.930 . S
H2763 C2775 0.929 . S
H2764 C2778 0.930 . S
H2765 C2780 0.960 . S
H2766 C2780 0.960 . S
H2767 C2780 0.960 . S
C2768 H2760 0.929 . S
C2768 C2769 1.377 . S
C2768 C2770 1.384 . S
C2769 C2768 1.377 . S
C2769 C2775 1.390 . S
C2770 H2761 0.930 . S
C2770 C2768 1.384 . S
C2770 C2771 1.372 . S
C2771 C2770 1.372 . S
C2771 C2772 1.400 . S
C2771 C2776 1.490 . S
C2772 H2762 0.930 . S
C2772 C2771 1.400 . S
C2772 C2775 1.386 . S
H2773 C2789 0.930 . S
H2774 C2790 0.931 . S
C2775 H2763 0.929 . S
C2775 C2769 1.390 . S
C2775 C2772 1.386 . S
C2776 C2771 1.490 . S
C2776 C2778 1.395 . S
C2776 C2779 1.403 . S
H2777 C2783 0.930 . S
C2778 H2764 0.930 . S
C2778 C2776 1.395 . S
C2778 C2781 1.403 . S
C2779 C2776 1.403 . S
C2779 C2780 1.524 . S
C2779 C2783 1.400 . S
C2780 H2765 0.960 . S
C2780 H2766 0.960 . S
C2780 H2767 0.960 . S
C2780 C2779 1.524 . S
C2781 C2778 1.403 . S
C2781 C2782 1.392 . S
C2781 C2785 1.495 . S
C2782 C2781 1.392 . S
C2782 C2783 1.385 . S
C2782 C2784 1.478 . S
C2783 H2777 0.930 . S
C2783 C2779 1.400 . S
C2783 C2782 1.385 . S
C2784 C2782 1.478 . S
C2784 C2786 1.381 . S
C2784 C2790 1.383 . S
C2785 C2781 1.495 . S
C2785 H2791 0.959 . S
C2785 H2792 0.961 . S
C2785 H2793 0.960 . S
C2786 C2784 1.381 . S
C2786 C2787 1.394 1_556 S
C2786 H2794 0.937 . S
C2787 C2786 1.394 1_554 S
C2787 C2788 1.383 . S
C2787 H2795 0.929 . S
C2788 C2787 1.383 . S
C2788 C2789 1.377 1_554 S
C2789 H2773 0.930 . S
C2789 C2788 1.377 1_556 S
C2789 C2790 1.379 . S
C2790 H2774 0.931 . S
C2790 C2784 1.383 . S
C2790 C2789 1.379 . S
H2791 C2785 0.959 . S
H2792 C2785 0.961 . S
H2793 C2785 0.960 . S
H2794 C2786 0.937 . S
H2795 C2787 0.929 . S
H2796 C2804 0.929 . S
H2797 C2806 0.930 . S
H2798 C2808 0.930 . S
H2799 C2811 0.929 . S
H2800 C2814 0.930 . S
H2801 C2816 0.960 . S
H2802 C2816 0.960 . S
H2803 C2816 0.960 . S
C2804 H2796 0.929 . S
C2804 C2805 1.377 . S
C2804 C2806 1.384 . S
C2805 C2804 1.377 . S
C2805 C2811 1.390 . S
C2806 H2797 0.930 . S
C2806 C2804 1.384 . S
C2806 C2807 1.372 . S
C2807 C2806 1.372 . S
C2807 C2808 1.400 . S
C2807 C2812 1.490 . S
C2808 H2798 0.930 . S
C2808 C2807 1.400 . S
C2808 C2811 1.386 . S
H2809 C2825 0.930 . S
H2810 C2826 0.931 . S
C2811 H2799 0.929 . S
C2811 C2805 1.390 . S
C2811 C2808 1.386 . S
C2812 C2807 1.490 . S
C2812 C2814 1.395 . S
C2812 C2815 1.403 . S
H2813 C2819 0.930 . S
C2814 H2800 0.930 . S
C2814 C2812 1.395 . S
C2814 C2817 1.403 . S
C2815 C2812 1.403 . S
C2815 C2816 1.524 . S
C2815 C2819 1.400 . S
C2816 H2801 0.960 . S
C2816 H2802 0.960 . S
C2816 H2803 0.960 . S
C2816 C2815 1.524 . S
C2817 C2814 1.403 . S
C2817 C2818 1.392 . S
C2817 C2821 1.495 . S
C2818 C2817 1.392 . S
C2818 C2819 1.385 . S
C2818 C2820 1.478 . S
C2819 H2813 0.930 . S
C2819 C2815 1.400 . S
C2819 C2818 1.385 . S
C2820 C2818 1.478 . S
C2820 C2822 1.381 . S
C2820 C2826 1.383 . S
C2821 C2817 1.495 . S
C2821 H2827 0.959 . S
C2821 H2828 0.961 . S
C2821 H2829 0.960 . S
C2822 C2820 1.381 . S
C2822 C2823 1.394 . S
C2822 H2830 0.930 . S
C2823 C2822 1.394 . S
C2823 C2824 1.383 . S
C2823 H2831 0.929 . S
C2824 C2823 1.383 . S
C2824 C2825 1.377 . S
C2825 H2809 0.930 . S
C2825 C2824 1.377 . S
C2825 C2826 1.379 . S
C2826 H2810 0.931 . S
C2826 C2820 1.383 . S
C2826 C2825 1.379 . S
H2827 C2821 0.959 . S
H2828 C2821 0.961 . S
H2829 C2821 0.960 . S
H2830 C2822 0.930 . S
H2831 C2823 0.929 . S
H2832 C2840 0.929 . S
H2833 C2842 0.930 . S
H2834 C2844 0.930 . S
H2835 C2847 0.929 . S
H2836 C2850 0.930 . S
H2837 C2852 0.960 1_565 S
H2838 C2852 0.960 . S
H2839 C2852 0.960 1_565 S
C2840 H2832 0.929 . S
C2840 C2841 1.377 . S
C2840 C2842 1.384 . S
C2841 C2840 1.377 . S
C2841 C2847 1.390 . S
C2842 H2833 0.930 . S
C2842 C2840 1.384 . S
C2842 C2843 1.372 . S
C2843 C2842 1.372 . S
C2843 C2844 1.400 . S
C2843 C2848 1.490 . S
C2844 H2834 0.930 . S
C2844 C2843 1.400 . S
C2844 C2847 1.386 . S
H2845 C2861 0.930 . S
H2846 C2862 0.931 . S
C2847 H2835 0.929 . S
C2847 C2841 1.390 . S
C2847 C2844 1.386 . S
C2848 C2843 1.490 . S
C2848 C2850 1.395 . S
C2848 C2851 1.403 . S
H2849 C2855 0.930 . S
C2850 H2836 0.930 . S
C2850 C2848 1.395 . S
C2850 C2853 1.403 . S
C2851 C2848 1.403 . S
C2851 C2852 1.524 . S
C2851 C2855 1.400 . S
C2852 H2837 0.960 1_545 S
C2852 H2838 0.960 . S
C2852 H2839 0.960 1_545 S
C2852 C2851 1.524 . S
C2853 C2850 1.403 . S
C2853 C2854 1.392 . S
C2853 C2857 1.495 . S
C2854 C2853 1.392 . S
C2854 C2855 1.385 . S
C2854 C2856 1.478 . S
C2855 H2849 0.930 . S
C2855 C2851 1.400 . S
C2855 C2854 1.385 . S
C2856 C2854 1.478 . S
C2856 C2858 1.381 . S
C2856 C2862 1.383 . S
C2857 C2853 1.495 . S
C2857 H2863 0.959 . S
C2857 H2864 0.961 . S
C2857 H2865 0.960 . S
C2858 C2856 1.381 . S
C2858 C2859 1.394 . S
C2858 H2866 0.930 . S
C2859 C2858 1.394 . S
C2859 C2860 1.383 . S
C2859 H2867 0.929 . S
C2860 C2859 1.383 . S
C2860 C2861 1.377 . S
C2861 H2845 0.930 . S
C2861 C2860 1.377 . S
C2861 C2862 1.379 . S
C2862 H2846 0.931 . S
C2862 C2856 1.383 . S
C2862 C2861 1.379 . S
H2863 C2857 0.959 . S
H2864 C2857 0.961 . S
H2865 C2857 0.960 . S
H2866 C2858 0.930 . S
H2867 C2859 0.929 . S
H2868 C2876 0.929 . S
H2869 C2878 0.930 . S
H2870 C2880 0.930 . S
H2871 C2883 0.929 . S
H2872 C2886 0.930 . S
H2873 C2888 0.960 . S
H2874 C2888 0.960 . S
H2875 C2888 0.960 . S
C2876 H2868 0.929 . S
C2876 C2877 1.377 . S
C2876 C2878 1.384 . S
C2877 C2876 1.377 . S
C2877 C2883 1.390 . S
C2878 H2869 0.930 . S
C2878 C2876 1.384 . S
C2878 C2879 1.372 . S
C2879 C2878 1.372 . S
C2879 C2880 1.400 . S
C2879 C2884 1.490 . S
C2880 H2870 0.930 . S
C2880 C2879 1.400 . S
C2880 C2883 1.386 . S
H2881 C2897 0.930 . S
H2882 C2898 0.931 . S
C2883 H2871 0.929 . S
C2883 C2877 1.390 . S
C2883 C2880 1.386 . S
C2884 C2879 1.490 . S
C2884 C2886 1.395 . S
C2884 C2887 1.403 . S
H2885 C2891 0.930 . S
C2886 H2872 0.930 . S
C2886 C2884 1.395 . S
C2886 C2889 1.403 . S
C2887 C2884 1.403 . S
C2887 C2888 1.524 . S
C2887 C2891 1.400 . S
C2888 H2873 0.960 . S
C2888 H2874 0.960 . S
C2888 H2875 0.960 . S
C2888 C2887 1.524 . S
C2889 C2886 1.403 . S
C2889 C2890 1.392 . S
C2889 C2893 1.495 . S
C2890 C2889 1.392 . S
C2890 C2891 1.385 . S
C2890 C2892 1.478 . S
C2891 H2885 0.930 . S
C2891 C2887 1.400 . S
C2891 C2890 1.385 . S
C2892 C2890 1.478 . S
C2892 C2894 1.381 . S
C2892 C2898 1.383 . S
C2893 C2889 1.495 . S
C2893 H2899 0.959 . S
C2893 H2900 0.961 . S
C2893 H2901 0.960 . S
C2894 C2892 1.381 . S
C2894 C2895 1.394 . S
C2894 H2902 0.930 . S
C2895 C2894 1.394 . S
C2895 C2896 1.383 . S
C2895 H2903 0.929 . S
C2896 C2895 1.383 . S
C2896 C2897 1.377 . S
C2897 H2881 0.930 . S
C2897 C2896 1.377 . S
C2897 C2898 1.379 . S
C2898 H2882 0.931 . S
C2898 C2892 1.383 . S
C2898 C2897 1.379 . S
H2899 C2893 0.959 . S
H2900 C2893 0.961 . S
H2901 C2893 0.960 . S
H2902 C2894 0.930 . S
H2903 C2895 0.929 . S
H2904 C2912 0.929 . S
H2905 C2914 0.930 . S
H2906 C2916 0.930 . S
H2907 C2919 0.929 . S
H2908 C2922 0.930 1_565 S
H2909 C2924 0.960 . S
H2910 C2924 0.960 . S
H2911 C2924 0.960 . S
C2912 H2904 0.929 . S
C2912 C2913 1.377 1_565 S
C2912 C2914 1.384 . S
C2913 C2912 1.377 1_545 S
C2913 C2919 1.390 . S
C2914 H2905 0.930 . S
C2914 C2912 1.384 . S
C2914 C2915 1.372 1_565 S
C2915 C2914 1.372 1_545 S
C2915 C2916 1.400 . S
C2915 C2920 1.490 . S
C2916 H2906 0.930 . S
C2916 C2915 1.400 . S
C2916 C2919 1.386 . S
H2917 C2933 0.930 . S
H2918 C2934 0.931 . S
C2919 H2907 0.929 . S
C2919 C2913 1.390 . S
C2919 C2916 1.386 . S
C2920 C2915 1.490 . S
C2920 C2922 1.395 . S
C2920 C2923 1.403 . S
H2921 C2927 0.930 . S
C2922 H2908 0.930 1_545 S
C2922 C2920 1.395 . S
C2922 C2925 1.403 . S
C2923 C2920 1.403 . S
C2923 C2924 1.524 . S
C2923 C2927 1.400 . S
C2924 H2909 0.960 . S
C2924 H2910 0.960 . S
C2924 H2911 0.960 . S
C2924 C2923 1.524 . S
C2925 C2922 1.403 . S
C2925 C2926 1.392 . S
C2925 C2929 1.495 1_545 S
C2926 C2925 1.392 . S
C2926 C2927 1.385 . S
C2926 C2928 1.478 . S
C2927 H2921 0.930 . S
C2927 C2923 1.400 . S
C2927 C2926 1.385 . S
C2928 C2926 1.478 . S
C2928 C2930 1.381 . S
C2928 C2934 1.383 . S
C2929 C2925 1.495 1_565 S
C2929 H2935 0.959 . S
C2929 H2936 0.954 1_565 S
C2929 H2937 0.960 . S
C2930 C2928 1.381 . S
C2930 C2931 1.394 . S
C2930 H2938 0.930 1_545 S
C2931 C2930 1.394 . S
C2931 C2932 1.383 . S
C2931 H2939 0.929 1_545 S
C2932 C2931 1.383 . S
C2932 C2933 1.377 . S
C2933 H2917 0.930 . S
C2933 C2932 1.377 . S
C2933 C2934 1.379 . S
C2934 H2918 0.931 . S
C2934 C2928 1.383 . S
C2934 C2933 1.379 . S
H2935 C2929 0.959 . S
H2936 C2929 0.954 1_545 S
H2937 C2929 0.960 . S
H2938 C2930 0.930 1_565 S
H2939 C2931 0.929 1_565 S
H2940 C2948 0.929 . S
H2941 C2950 0.930 . S
H2942 C2952 0.930 . S
H2943 C2955 0.929 . S
H2944 C2958 0.930 . S
H2945 C2960 0.960 . S
H2946 C2960 0.960 . S
H2947 C2960 0.960 . S
C2948 H2940 0.929 . S
C2948 C2949 1.377 . S
C2948 C2950 1.384 . S
C2949 C2948 1.377 . S
C2949 C2955 1.390 . S
C2950 H2941 0.930 . S
C2950 C2948 1.384 . S
C2950 C2951 1.372 . S
C2951 C2950 1.372 . S
C2951 C2952 1.400 . S
C2951 C2956 1.490 . S
C2952 H2942 0.930 . S
C2952 C2951 1.400 . S
C2952 C2955 1.386 . S
H2953 C2969 0.930 . S
H2954 C2970 0.931 . S
C2955 H2943 0.929 . S
C2955 C2949 1.390 . S
C2955 C2952 1.386 . S
C2956 C2951 1.490 . S
C2956 C2958 1.395 . S
C2956 C2959 1.403 . S
H2957 C2963 0.930 . S
C2958 H2944 0.930 . S
C2958 C2956 1.395 . S
C2958 C2961 1.403 . S
C2959 C2956 1.403 . S
C2959 C2960 1.524 . S
C2959 C2963 1.400 . S
C2960 H2945 0.960 . S
C2960 H2946 0.960 . S
C2960 H2947 0.960 . S
C2960 C2959 1.524 . S
C2961 C2958 1.403 . S
C2961 C2962 1.392 . S
C2961 C2965 1.495 . S
C2962 C2961 1.392 . S
C2962 C2963 1.385 . S
C2962 C2964 1.478 . S
C2963 H2957 0.930 . S
C2963 C2959 1.400 . S
C2963 C2962 1.385 . S
C2964 C2962 1.478 . S
C2964 C2966 1.381 . S
C2964 C2970 1.383 . S
C2965 C2961 1.495 . S
C2965 H2971 0.959 . S
C2965 H2972 0.961 . S
C2965 H2973 0.960 . S
C2966 C2964 1.381 . S
C2966 C2967 1.394 . S
C2966 H2974 0.930 . S
C2967 C2966 1.394 . S
C2967 C2968 1.383 . S
C2967 H2975 0.929 . S
C2968 C2967 1.383 . S
C2968 C2969 1.377 . S
C2969 H2953 0.930 . S
C2969 C2968 1.377 . S
C2969 C2970 1.379 . S
C2970 H2954 0.931 . S
C2970 C2964 1.383 . S
C2970 C2969 1.379 . S
H2971 C2965 0.959 . S
H2972 C2965 0.961 . S
H2973 C2965 0.960 . S
H2974 C2966 0.930 . S
H2975 C2967 0.929 . S
H2976 C2984 0.929 . S
H2977 C2986 0.930 . S
H2978 C2988 0.930 . S
H2979 C2991 0.929 . S
H2980 C2994 0.895 1_565 S
H2981 C2996 0.960 . S
H2982 C2996 0.960 . S
H2983 C2996 0.960 . S
C2984 H2976 0.929 . S
C2984 C2985 1.377 . S
C2984 C2986 1.384 . S
C2985 C2984 1.377 . S
C2985 C2991 1.390 . S
C2986 H2977 0.930 . S
C2986 C2984 1.384 . S
C2986 C2987 1.372 . S
C2987 C2986 1.372 . S
C2987 C2988 1.400 . S
C2987 C2992 1.490 . S
C2988 H2978 0.930 . S
C2988 C2987 1.400 . S
C2988 C2991 1.386 . S
H2989 C3005 0.930 . S
H2990 C3006 0.931 . S
C2991 H2979 0.929 . S
C2991 C2985 1.390 . S
C2991 C2988 1.386 . S
C2992 C2987 1.490 . S
C2992 C2994 1.395 . S
C2992 C2995 1.403 . S
H2993 C2999 0.930 . S
C2994 H2980 0.895 1_545 S
C2994 C2992 1.395 . S
C2994 C2997 1.403 . S
C2995 C2992 1.403 . S
C2995 C2996 1.524 . S
C2995 C2999 1.400 . S
C2996 H2981 0.960 . S
C2996 H2982 0.960 . S
C2996 H2983 0.960 . S
C2996 C2995 1.524 . S
C2997 C2994 1.403 . S
C2997 C2998 1.392 . S
C2997 C3001 1.495 1_545 S
C2998 C2997 1.392 . S
C2998 C2999 1.385 . S
C2998 C3000 1.478 . S
C2999 H2993 0.930 . S
C2999 C2995 1.400 . S
C2999 C2998 1.385 . S
C3000 C2998 1.478 . S
C3000 C3002 1.381 . S
C3000 C3006 1.383 . S
C3001 C2997 1.495 1_565 S
C3001 H3007 0.959 . S
C3001 H3008 0.961 . S
C3001 H3009 0.960 . S
C3002 C3000 1.381 . S
C3002 C3003 1.394 . S
C3002 H3010 0.930 . S
C3003 C3002 1.394 . S
C3003 C3004 1.383 . S
C3003 H3011 0.929 . S
C3004 C3003 1.383 . S
C3004 C3005 1.377 . S
C3005 H2989 0.930 . S
C3005 C3004 1.377 . S
C3005 C3006 1.379 . S
C3006 H2990 0.931 . S
C3006 C3000 1.383 . S
C3006 C3005 1.379 . S
H3007 C3001 0.959 . S
H3008 C3001 0.961 . S
H3009 C3001 0.960 . S
H3010 C3002 0.930 . S
H3011 C3003 0.929 . S
H3012 C3020 0.929 . S
H3013 C3022 0.930 . S
H3014 C3024 0.930 . S
H3015 C3027 0.929 . S
H3016 C3030 0.930 . S
H3017 C3032 0.960 . S
H3018 C3032 0.960 . S
H3019 C3032 0.960 . S
C3020 H3012 0.929 . S
C3020 C3021 1.377 . S
C3020 C3022 1.384 . S
C3021 C3020 1.377 . S
C3021 C3027 1.390 . S
C3022 H3013 0.930 . S
C3022 C3020 1.384 . S
C3022 C3023 1.372 . S
C3023 C3022 1.372 . S
C3023 C3024 1.400 . S
C3023 C3028 1.490 . S
C3024 H3014 0.930 . S
C3024 C3023 1.400 . S
C3024 C3027 1.386 . S
H3025 C3041 0.930 . S
H3026 C3042 0.931 . S
C3027 H3015 0.929 . S
C3027 C3021 1.390 . S
C3027 C3024 1.386 . S
C3028 C3023 1.490 . S
C3028 C3030 1.395 . S
C3028 C3031 1.403 . S
H3029 C3035 0.930 . S
C3030 H3016 0.930 . S
C3030 C3028 1.395 . S
C3030 C3033 1.403 . S
C3031 C3028 1.403 . S
C3031 C3032 1.524 . S
C3031 C3035 1.400 . S
C3032 H3017 0.960 . S
C3032 H3018 0.960 . S
C3032 H3019 0.960 . S
C3032 C3031 1.524 . S
C3033 C3030 1.403 . S
C3033 C3034 1.392 . S
C3033 C3037 1.495 . S
C3034 C3033 1.392 . S
C3034 C3035 1.385 . S
C3034 C3036 1.478 . S
C3035 H3029 0.930 . S
C3035 C3031 1.400 . S
C3035 C3034 1.385 . S
C3036 C3034 1.478 . S
C3036 C3038 1.381 . S
C3036 C3042 1.383 . S
C3037 C3033 1.495 . S
C3037 H3043 0.959 . S
C3037 H3044 0.961 . S
C3037 H3045 0.960 . S
C3038 C3036 1.381 . S
C3038 C3039 1.394 . S
C3038 H3046 0.930 . S
C3039 C3038 1.394 . S
C3039 C3040 1.383 . S
C3039 H3047 0.929 . S
C3040 C3039 1.383 . S
C3040 C3041 1.377 . S
C3041 H3025 0.930 . S
C3041 C3040 1.377 . S
C3041 C3042 1.379 . S
C3042 H3026 0.931 . S
C3042 C3036 1.383 . S
C3042 C3041 1.379 . S
H3043 C3037 0.959 . S
H3044 C3037 0.961 . S
H3045 C3037 0.960 . S
H3046 C3038 0.930 . S
H3047 C3039 0.929 . S
H3048 C3056 0.929 . S
H3049 C3058 0.930 . S
H3050 C3060 0.930 . S
H3051 C3063 0.929 . S
H3052 C3066 0.930 . S
H3053 C3068 0.960 . S
H3054 C3068 0.960 . S
H3055 C3068 0.960 . S
C3056 H3048 0.929 . S
C3056 C3057 1.377 1_565 S
C3056 C3058 1.384 . S
C3057 C3056 1.377 1_545 S
C3057 C3063 1.390 . S
C3058 H3049 0.930 . S
C3058 C3056 1.384 . S
C3058 C3059 1.372 1_565 S
C3059 C3058 1.372 1_545 S
C3059 C3060 1.400 . S
C3059 C3064 1.490 . S
C3060 H3050 0.930 . S
C3060 C3059 1.400 . S
C3060 C3063 1.386 . S
H3061 C3077 0.930 . S
H3062 C3078 0.931 . S
C3063 H3051 0.929 . S
C3063 C3057 1.390 . S
C3063 C3060 1.386 . S
C3064 C3059 1.490 . S
C3064 C3066 1.395 . S
C3064 C3067 1.403 . S
H3065 C3071 0.930 . S
C3066 H3052 0.930 . S
C3066 C3064 1.395 . S
C3066 C3069 1.403 . S
C3067 C3064 1.403 . S
C3067 C3068 1.524 . S
C3067 C3071 1.400 . S
C3068 H3053 0.960 . S
C3068 H3054 0.960 . S
C3068 H3055 0.960 . S
C3068 C3067 1.524 . S
C3069 C3066 1.403 . S
C3069 C3070 1.392 . S
C3069 C3073 1.495 . S
C3070 C3069 1.392 . S
C3070 C3071 1.385 . S
C3070 C3072 1.478 . S
C3071 H3065 0.930 . S
C3071 C3067 1.400 . S
C3071 C3070 1.385 . S
C3072 C3070 1.478 . S
C3072 C3074 1.381 1_545 S
C3072 C3078 1.383 . S
C3073 C3069 1.495 . S
C3073 H3079 0.958 . S
C3073 H3080 0.961 . S
C3073 H3081 0.960 1_545 S
C3074 C3072 1.381 1_565 S
C3074 C3075 1.394 . S
C3074 H3082 0.930 . S
C3075 C3074 1.394 . S
C3075 C3076 1.383 1_565 S
C3075 H3083 0.929 . S
C3076 C3075 1.383 1_545 S
C3076 C3077 1.377 . S
C3077 H3061 0.930 . S
C3077 C3076 1.377 . S
C3077 C3078 1.379 . S
C3078 H3062 0.931 . S
C3078 C3072 1.383 . S
C3078 C3077 1.379 . S
H3079 C3073 0.958 . S
H3080 C3073 0.961 . S
H3081 C3073 0.960 1_565 S
H3082 C3074 0.930 . S
H3083 C3075 0.929 . S
H3084 C3092 0.929 . S
H3085 C3094 0.930 . S
H3086 C3096 0.930 . S
H3087 C3099 0.929 . S
H3088 C3102 0.930 . S
H3089 C3104 0.960 . S
H3090 C3104 0.960 . S
H3091 C3104 0.960 . S
C3092 H3084 0.929 . S
C3092 C3093 1.377 . S
C3092 C3094 1.384 . S
C3093 C3092 1.377 . S
C3093 C3099 1.390 . S
C3094 H3085 0.930 . S
C3094 C3092 1.384 . S
C3094 C3095 1.372 . S
C3095 C3094 1.372 . S
C3095 C3096 1.400 . S
C3095 C3100 1.490 . S
C3096 H3086 0.930 . S
C3096 C3095 1.400 . S
C3096 C3099 1.386 . S
H3097 C3113 0.930 . S
H3098 C3114 0.931 . S
C3099 H3087 0.929 . S
C3099 C3093 1.390 . S
C3099 C3096 1.386 . S
C3100 C3095 1.490 . S
C3100 C3102 1.395 . S
C3100 C3103 1.403 . S
H3101 C3107 0.930 . S
C3102 H3088 0.930 . S
C3102 C3100 1.395 . S
C3102 C3105 1.403 . S
C3103 C3100 1.403 . S
C3103 C3104 1.524 . S
C3103 C3107 1.400 . S
C3104 H3089 0.960 . S
C3104 H3090 0.960 . S
C3104 H3091 0.960 . S
C3104 C3103 1.524 . S
C3105 C3102 1.403 . S
C3105 C3106 1.392 . S
C3105 C3109 1.495 . S
C3106 C3105 1.392 . S
C3106 C3107 1.385 . S
C3106 C3108 1.478 . S
C3107 H3101 0.930 . S
C3107 C3103 1.400 . S
C3107 C3106 1.385 . S
C3108 C3106 1.478 . S
C3108 C3110 1.381 . S
C3108 C3114 1.383 . S
C3109 C3105 1.495 . S
C3109 H3115 0.959 . S
C3109 H3116 0.961 . S
C3109 H3117 0.960 . S
C3110 C3108 1.381 . S
C3110 C3111 1.394 . S
C3110 H3118 0.930 . S
C3111 C3110 1.394 . S
C3111 C3112 1.383 . S
C3111 H3119 0.929 . S
C3112 C3111 1.383 . S
C3112 C3113 1.377 . S
C3113 H3097 0.930 . S
C3113 C3112 1.377 . S
C3113 C3114 1.379 . S
C3114 H3098 0.931 . S
C3114 C3108 1.383 . S
C3114 C3113 1.379 . S
H3115 C3109 0.959 . S
H3116 C3109 0.961 . S
H3117 C3109 0.960 . S
H3118 C3110 0.930 . S
H3119 C3111 0.929 . S
H3120 C3128 0.929 . S
H3121 C3130 0.930 . S
H3122 C3132 0.930 . S
H3123 C3135 0.929 . S
H3124 C3138 0.930 . S
H3125 C3140 0.960 . S
H3126 C3140 0.960 . S
H3127 C3140 0.960 . S
C3128 H3120 0.929 . S
C3128 C3129 1.377 . S
C3128 C3130 1.384 . S
C3129 C3128 1.377 . S
C3129 C3135 1.390 . S
C3130 H3121 0.930 . S
C3130 C3128 1.384 . S
C3130 C3131 1.372 . S
C3131 C3130 1.372 . S
C3131 C3132 1.400 . S
C3131 C3136 1.490 . S
C3132 H3122 0.930 . S
C3132 C3131 1.400 . S
C3132 C3135 1.386 . S
H3133 C3149 0.930 . S
H3134 C3150 0.931 . S
C3135 H3123 0.929 . S
C3135 C3129 1.390 . S
C3135 C3132 1.386 . S
C3136 C3131 1.490 . S
C3136 C3138 1.395 . S
C3136 C3139 1.403 . S
H3137 C3143 0.930 . S
C3138 H3124 0.930 . S
C3138 C3136 1.395 . S
C3138 C3141 1.403 . S
C3139 C3136 1.403 . S
C3139 C3140 1.524 . S
C3139 C3143 1.400 . S
C3140 H3125 0.960 . S
C3140 H3126 0.960 . S
C3140 H3127 0.960 . S
C3140 C3139 1.524 . S
C3141 C3138 1.403 . S
C3141 C3142 1.392 . S
C3141 C3145 1.495 . S
C3142 C3141 1.392 . S
C3142 C3143 1.385 . S
C3142 C3144 1.478 . S
C3143 H3137 0.930 . S
C3143 C3139 1.400 . S
C3143 C3142 1.385 . S
C3144 C3142 1.478 . S
C3144 C3146 1.381 . S
C3144 C3150 1.383 . S
C3145 C3141 1.495 . S
C3145 H3151 0.959 . S
C3145 H3152 0.961 . S
C3145 H3153 0.960 . S
C3146 C3144 1.381 . S
C3146 C3147 1.394 . S
C3146 H3154 0.930 . S
C3147 C3146 1.394 . S
C3147 C3148 1.383 . S
C3147 H3155 0.929 . S
C3148 C3147 1.383 . S
C3148 C3149 1.377 . S
C3149 H3133 0.930 . S
C3149 C3148 1.377 . S
C3149 C3150 1.379 . S
C3150 H3134 0.931 . S
C3150 C3144 1.383 . S
C3150 C3149 1.379 . S
H3151 C3145 0.959 . S
H3152 C3145 0.961 . S
H3153 C3145 0.960 . S
H3154 C3146 0.930 . S
H3155 C3147 0.929 . S
H3156 C3164 0.929 . S
H3157 C3166 0.930 . S
H3158 C3168 0.930 . S
H3159 C3171 0.929 . S
H3160 C3174 0.930 . S
H3161 C3176 0.960 . S
H3162 C3176 0.960 . S
H3163 C3176 0.960 . S
C3164 H3156 0.929 . S
C3164 C3165 1.377 . S
C3164 C3166 1.384 . S
C3165 C3164 1.377 . S
C3165 C3171 1.390 . S
C3166 H3157 0.930 . S
C3166 C3164 1.384 . S
C3166 C3167 1.372 . S
C3167 C3166 1.372 . S
C3167 C3168 1.400 . S
C3167 C3172 1.490 . S
C3168 H3158 0.930 . S
C3168 C3167 1.400 . S
C3168 C3171 1.386 . S
H3169 C3185 0.930 . S
H3170 C3186 0.931 . S
C3171 H3159 0.929 . S
C3171 C3165 1.390 . S
C3171 C3168 1.386 . S
C3172 C3167 1.490 . S
C3172 C3174 1.395 . S
C3172 C3175 1.403 . S
H3173 C3179 0.930 . S
C3174 H3160 0.930 . S
C3174 C3172 1.395 . S
C3174 C3177 1.403 . S
C3175 C3172 1.403 . S
C3175 C3176 1.524 . S
C3175 C3179 1.400 . S
C3176 H3161 0.960 . S
C3176 H3162 0.960 . S
C3176 H3163 0.960 . S
C3176 C3175 1.524 . S
C3177 C3174 1.403 . S
C3177 C3178 1.392 . S
C3177 C3181 1.495 . S
C3178 C3177 1.392 . S
C3178 C3179 1.385 . S
C3178 C3180 1.478 . S
C3179 H3173 0.930 . S
C3179 C3175 1.400 . S
C3179 C3178 1.385 . S
C3180 C3178 1.478 . S
C3180 C3182 1.381 . S
C3180 C3186 1.383 . S
C3181 C3177 1.495 . S
C3181 H3187 0.959 . S
C3181 H3188 0.961 . S
C3181 H3189 0.960 . S
C3182 C3180 1.381 . S
C3182 C3183 1.394 . S
C3182 H3190 0.930 . S
C3183 C3182 1.394 . S
C3183 C3184 1.383 . S
C3183 H3191 0.929 . S
C3184 C3183 1.383 . S
C3184 C3185 1.377 . S
C3185 H3169 0.930 . S
C3185 C3184 1.377 . S
C3185 C3186 1.379 . S
C3186 H3170 0.931 . S
C3186 C3180 1.383 . S
C3186 C3185 1.379 . S
H3187 C3181 0.959 . S
H3188 C3181 0.961 . S
H3189 C3181 0.960 . S
H3190 C3182 0.930 . S
H3191 C3183 0.929 . S
H3192 C3200 0.929 . S
H3193 C3202 0.930 . S
H3194 C3204 0.930 . S
H3195 C3207 0.929 . S
H3196 C3210 0.930 . S
H3197 C3212 0.960 . S
H3198 C3212 0.960 . S
H3199 C3212 0.960 . S
C3200 H3192 0.929 . S
C3200 C3201 1.377 . S
C3200 C3202 1.384 . S
C3201 C3200 1.377 . S
C3201 C3207 1.390 . S
C3202 H3193 0.930 . S
C3202 C3200 1.384 . S
C3202 C3203 1.372 . S
C3203 C3202 1.372 . S
C3203 C3204 1.400 . S
C3203 C3208 1.490 . S
C3204 H3194 0.930 . S
C3204 C3203 1.400 . S
C3204 C3207 1.386 . S
H3205 C3221 0.930 . S
H3206 C3222 0.931 . S
C3207 H3195 0.929 . S
C3207 C3201 1.390 . S
C3207 C3204 1.386 . S
C3208 C3203 1.490 . S
C3208 C3210 1.395 . S
C3208 C3211 1.403 . S
H3209 C3215 0.930 . S
C3210 H3196 0.930 . S
C3210 C3208 1.395 . S
C3210 C3213 1.403 . S
C3211 C3208 1.403 . S
C3211 C3212 1.524 . S
C3211 C3215 1.400 . S
C3212 H3197 0.960 . S
C3212 H3198 0.960 . S
C3212 H3199 0.960 . S
C3212 C3211 1.524 . S
C3213 C3210 1.403 . S
C3213 C3214 1.392 . S
C3213 C3217 1.495 . S
C3214 C3213 1.392 . S
C3214 C3215 1.385 . S
C3214 C3216 1.478 . S
C3215 H3209 0.930 . S
C3215 C3211 1.400 . S
C3215 C3214 1.385 . S
C3216 C3214 1.478 . S
C3216 C3218 1.381 . S
C3216 C3222 1.383 . S
C3217 C3213 1.495 . S
C3217 H3223 0.959 . S
C3217 H3224 0.961 . S
C3217 H3225 0.960 . S
C3218 C3216 1.381 . S
C3218 C3219 1.394 . S
C3218 H3226 0.930 . S
C3219 C3218 1.394 . S
C3219 C3220 1.383 . S
C3219 H3227 0.929 . S
C3220 C3219 1.383 . S
C3220 C3221 1.377 . S
C3221 H3205 0.930 . S
C3221 C3220 1.377 . S
C3221 C3222 1.379 . S
C3222 H3206 0.931 . S
C3222 C3216 1.383 . S
C3222 C3221 1.379 . S
H3223 C3217 0.959 . S
H3224 C3217 0.961 . S
H3225 C3217 0.960 . S
H3226 C3218 0.930 . S
H3227 C3219 0.929 . S
H3228 C3236 0.929 . S
H3229 C3238 0.930 . S
H3230 C3240 0.930 . S
H3231 C3243 0.929 . S
H3232 C3246 0.930 . S
H3233 C3248 0.960 . S
H3234 C3248 0.960 . S
H3235 C3248 0.960 . S
C3236 H3228 0.929 . S
C3236 C3237 1.377 . S
C3236 C3238 1.384 . S
C3237 C3236 1.377 . S
C3237 C3243 1.390 . S
C3238 H3229 0.930 . S
C3238 C3236 1.384 . S
C3238 C3239 1.372 . S
C3239 C3238 1.372 . S
C3239 C3240 1.400 . S
C3239 C3244 1.490 . S
C3240 H3230 0.930 . S
C3240 C3239 1.400 . S
C3240 C3243 1.386 . S
H3241 C3257 0.930 . S
H3242 C3258 0.931 . S
C3243 H3231 0.929 . S
C3243 C3237 1.390 . S
C3243 C3240 1.386 . S
C3244 C3239 1.490 . S
C3244 C3246 1.395 . S
C3244 C3247 1.403 . S
H3245 C3251 0.930 . S
C3246 H3232 0.930 . S
C3246 C3244 1.395 . S
C3246 C3249 1.403 . S
C3247 C3244 1.403 . S
C3247 C3248 1.524 . S
C3247 C3251 1.400 . S
C3248 H3233 0.960 . S
C3248 H3234 0.960 . S
C3248 H3235 0.960 . S
C3248 C3247 1.524 . S
C3249 C3246 1.403 . S
C3249 C3250 1.392 . S
C3249 C3253 1.495 . S
C3250 C3249 1.392 . S
C3250 C3251 1.385 . S
C3250 C3252 1.478 . S
C3251 H3245 0.930 . S
C3251 C3247 1.400 . S
C3251 C3250 1.385 . S
C3252 C3250 1.478 . S
C3252 C3254 1.381 . S
C3252 C3258 1.383 . S
C3253 C3249 1.495 . S
C3253 H3259 0.959 . S
C3253 H3260 0.961 . S
C3253 H3261 0.960 . S
C3254 C3252 1.381 . S
C3254 C3255 1.394 . S
C3254 H3262 0.930 . S
C3255 C3254 1.394 . S
C3255 C3256 1.383 . S
C3255 H3263 0.929 . S
C3256 C3255 1.383 . S
C3256 C3257 1.377 . S
C3257 H3241 0.930 . S
C3257 C3256 1.377 . S
C3257 C3258 1.379 . S
C3258 H3242 0.931 . S
C3258 C3252 1.383 . S
C3258 C3257 1.379 . S
H3259 C3253 0.959 . S
H3260 C3253 0.961 . S
H3261 C3253 0.960 . S
H3262 C3254 0.930 . S
H3263 C3255 0.929 . S
H3264 C3272 0.929 . S
H3265 C3274 0.930 . S
H3266 C3276 0.930 . S
H3267 C3279 0.929 . S
H3268 C3282 0.930 . S
H3269 C3284 0.960 . S
H3270 C3284 0.960 . S
H3271 C3284 0.960 . S
C3272 H3264 0.929 . S
C3272 C3273 1.377 . S
C3272 C3274 1.384 . S
C3273 C3272 1.377 . S
C3273 C3279 1.390 . S
C3274 H3265 0.930 . S
C3274 C3272 1.384 . S
C3274 C3275 1.372 . S
C3275 C3274 1.372 . S
C3275 C3276 1.400 . S
C3275 C3280 1.490 . S
C3276 H3266 0.930 . S
C3276 C3275 1.400 . S
C3276 C3279 1.386 . S
H3277 C3293 0.930 . S
H3278 C3294 0.931 . S
C3279 H3267 0.929 . S
C3279 C3273 1.390 . S
C3279 C3276 1.386 . S
C3280 C3275 1.490 . S
C3280 C3282 1.395 . S
C3280 C3283 1.403 . S
H3281 C3287 0.930 . S
C3282 H3268 0.930 . S
C3282 C3280 1.395 . S
C3282 C3285 1.403 . S
C3283 C3280 1.403 . S
C3283 C3284 1.524 . S
C3283 C3287 1.400 . S
C3284 H3269 0.960 . S
C3284 H3270 0.960 . S
C3284 H3271 0.960 . S
C3284 C3283 1.524 . S
C3285 C3282 1.403 . S
C3285 C3286 1.392 . S
C3285 C3289 1.495 . S
C3286 C3285 1.392 . S
C3286 C3287 1.385 . S
C3286 C3288 1.478 . S
C3287 H3281 0.930 . S
C3287 C3283 1.400 . S
C3287 C3286 1.385 . S
C3288 C3286 1.478 . S
C3288 C3290 1.381 . S
C3288 C3294 1.383 . S
C3289 C3285 1.495 . S
C3289 H3295 0.959 . S
C3289 H3296 0.961 . S
C3289 H3297 0.960 . S
C3290 C3288 1.381 . S
C3290 C3291 1.394 . S
C3290 H3298 0.930 . S
C3291 C3290 1.394 . S
C3291 C3292 1.383 . S
C3291 H3299 0.929 . S
C3292 C3291 1.383 . S
C3292 C3293 1.377 . S
C3293 H3277 0.930 . S
C3293 C3292 1.377 . S
C3293 C3294 1.379 . S
C3294 H3278 0.931 . S
C3294 C3288 1.383 . S
C3294 C3293 1.379 . S
H3295 C3289 0.959 . S
H3296 C3289 0.961 . S
H3297 C3289 0.960 . S
H3298 C3290 0.930 . S
H3299 C3291 0.929 . S
H3300 C3308 0.929 . S
H3301 C3310 0.930 . S
H3302 C3312 0.930 . S
H3303 C3315 0.929 . S
H3304 C3318 0.930 . S
H3305 C3320 0.960 . S
H3306 C3320 0.960 . S
H3307 C3320 0.960 . S
C3308 H3300 0.929 . S
C3308 C3309 1.377 . S
C3308 C3310 1.384 . S
C3309 C3308 1.377 . S
C3309 C3315 1.390 . S
C3310 H3301 0.930 . S
C3310 C3308 1.384 . S
C3310 C3311 1.372 . S
C3311 C3310 1.372 . S
C3311 C3312 1.400 . S
C3311 C3316 1.490 . S
C3312 H3302 0.930 . S
C3312 C3311 1.400 . S
C3312 C3315 1.386 . S
H3313 C3329 0.930 . S
H3314 C3330 0.931 . S
C3315 H3303 0.929 . S
C3315 C3309 1.390 . S
C3315 C3312 1.386 . S
C3316 C3311 1.490 . S
C3316 C3318 1.395 . S
C3316 C3319 1.403 . S
H3317 C3323 0.930 . S
C3318 H3304 0.930 . S
C3318 C3316 1.395 . S
C3318 C3321 1.403 . S
C3319 C3316 1.403 . S
C3319 C3320 1.524 . S
C3319 C3323 1.400 . S
C3320 H3305 0.960 . S
C3320 H3306 0.960 . S
C3320 H3307 0.960 . S
C3320 C3319 1.524 . S
C3321 C3318 1.403 . S
C3321 C3322 1.392 . S
C3321 C3325 1.495 . S
C3322 C3321 1.392 . S
C3322 C3323 1.385 . S
C3322 C3324 1.478 . S
C3323 H3317 0.930 . S
C3323 C3319 1.400 . S
C3323 C3322 1.385 . S
C3324 C3322 1.478 . S
C3324 C3326 1.381 . S
C3324 C3330 1.383 . S
C3325 C3321 1.495 . S
C3325 H3331 0.959 . S
C3325 H3332 0.961 . S
C3325 H3333 0.960 . S
C3326 C3324 1.381 . S
C3326 C3327 1.394 . S
C3326 H3334 0.930 . S
C3327 C3326 1.394 . S
C3327 C3328 1.383 . S
C3327 H3335 0.929 . S
C3328 C3327 1.383 . S
C3328 C3329 1.377 . S
C3329 H3313 0.930 . S
C3329 C3328 1.377 . S
C3329 C3330 1.379 . S
C3330 H3314 0.931 . S
C3330 C3324 1.383 . S
C3330 C3329 1.379 . S
H3331 C3325 0.959 . S
H3332 C3325 0.961 . S
H3333 C3325 0.960 . S
H3334 C3326 0.930 . S
H3335 C3327 0.929 . S
H3336 C3344 0.929 . S
H3337 C3346 0.930 . S
H3338 C3348 0.930 . S
H3339 C3351 0.929 . S
H3340 C3354 0.930 . S
H3341 C3356 0.960 . S
H3342 C3356 0.960 . S
H3343 C3356 0.960 . S
C3344 H3336 0.929 . S
C3344 C3345 1.377 . S
C3344 C3346 1.384 . S
C3345 C3344 1.377 . S
C3345 C3351 1.390 . S
C3346 H3337 0.930 . S
C3346 C3344 1.384 . S
C3346 C3347 1.372 . S
C3347 C3346 1.372 . S
C3347 C3348 1.400 . S
C3347 C3352 1.490 . S
C3348 H3338 0.930 . S
C3348 C3347 1.400 . S
C3348 C3351 1.386 . S
H3349 C3365 0.930 . S
H3350 C3366 0.931 . S
C3351 H3339 0.929 . S
C3351 C3345 1.390 . S
C3351 C3348 1.386 . S
C3352 C3347 1.490 . S
C3352 C3354 1.395 . S
C3352 C3355 1.403 . S
H3353 C3359 0.930 . S
C3354 H3340 0.930 . S
C3354 C3352 1.395 . S
C3354 C3357 1.403 . S
C3355 C3352 1.403 . S
C3355 C3356 1.524 . S
C3355 C3359 1.400 . S
C3356 H3341 0.960 . S
C3356 H3342 0.960 . S
C3356 H3343 0.960 . S
C3356 C3355 1.524 . S
C3357 C3354 1.403 . S
C3357 C3358 1.392 . S
C3357 C3361 1.495 . S
C3358 C3357 1.392 . S
C3358 C3359 1.385 . S
C3358 C3360 1.478 . S
C3359 H3353 0.930 . S
C3359 C3355 1.400 . S
C3359 C3358 1.385 . S
C3360 C3358 1.478 . S
C3360 C3362 1.381 . S
C3360 C3366 1.383 . S
C3361 C3357 1.495 . S
C3361 H3367 0.959 . S
C3361 H3368 0.961 . S
C3361 H3369 0.960 . S
C3362 C3360 1.381 . S
C3362 C3363 1.394 . S
C3362 H3370 0.930 . S
C3363 C3362 1.394 . S
C3363 C3364 1.383 . S
C3363 H3371 0.929 . S
C3364 C3363 1.383 . S
C3364 C3365 1.377 . S
C3365 H3349 0.930 . S
C3365 C3364 1.377 . S
C3365 C3366 1.379 . S
C3366 H3350 0.931 . S
C3366 C3360 1.383 . S
C3366 C3365 1.379 . S
H3367 C3361 0.959 . S
H3368 C3361 0.961 . S
H3369 C3361 0.960 . S
H3370 C3362 0.930 . S
H3371 C3363 0.929 . S
H3372 C3380 0.929 . S
H3373 C3382 0.930 . S
H3374 C3384 0.930 . S
H3375 C3387 0.929 . S
H3376 C3390 0.930 . S
H3377 C3392 0.960 . S
H3378 C3392 0.960 . S
H3379 C3392 0.960 . S
C3380 H3372 0.929 . S
C3380 C3381 1.377 . S
C3380 C3382 1.384 . S
C3381 C3380 1.377 . S
C3381 C3387 1.390 . S
C3382 H3373 0.930 . S
C3382 C3380 1.384 . S
C3382 C3383 1.372 . S
C3383 C3382 1.372 . S
C3383 C3384 1.400 . S
C3383 C3388 1.490 . S
C3384 H3374 0.930 . S
C3384 C3383 1.400 . S
C3384 C3387 1.386 . S
H3385 C3401 0.930 . S
H3386 C3402 0.931 . S
C3387 H3375 0.929 . S
C3387 C3381 1.390 . S
C3387 C3384 1.386 . S
C3388 C3383 1.490 . S
C3388 C3390 1.395 . S
C3388 C3391 1.403 . S
H3389 C3395 0.930 . S
C3390 H3376 0.930 . S
C3390 C3388 1.395 . S
C3390 C3393 1.403 . S
C3391 C3388 1.403 . S
C3391 C3392 1.524 . S
C3391 C3395 1.400 . S
C3392 H3377 0.960 . S
C3392 H3378 0.960 . S
C3392 H3379 0.960 . S
C3392 C3391 1.524 . S
C3393 C3390 1.403 . S
C3393 C3394 1.392 . S
C3393 C3397 1.495 . S
C3394 C3393 1.392 . S
C3394 C3395 1.385 . S
C3394 C3396 1.478 . S
C3395 H3389 0.930 . S
C3395 C3391 1.400 . S
C3395 C3394 1.385 . S
C3396 C3394 1.478 . S
C3396 C3398 1.381 . S
C3396 C3402 1.383 . S
C3397 C3393 1.495 . S
C3397 H3403 0.959 . S
C3397 H3404 0.961 . S
C3397 H3405 0.960 . S
C3398 C3396 1.381 . S
C3398 C3399 1.394 . S
C3398 H3406 0.930 . S
C3399 C3398 1.394 . S
C3399 C3400 1.383 . S
C3399 H3407 0.929 . S
C3400 C3399 1.383 . S
C3400 C3401 1.377 . S
C3401 H3385 0.930 . S
C3401 C3400 1.377 . S
C3401 C3402 1.379 . S
C3402 H3386 0.931 . S
C3402 C3396 1.383 . S
C3402 C3401 1.379 . S
H3403 C3397 0.959 . S
H3404 C3397 0.961 . S
H3405 C3397 0.960 . S
H3406 C3398 0.930 . S
H3407 C3399 0.929 . S
H3408 C3416 0.929 . S
H3409 C3418 0.930 . S
H3410 C3420 0.930 . S
H3411 C3423 0.929 . S
H3412 C3426 0.930 . S
H3413 C3428 0.960 . S
H3414 C3428 0.960 . S
H3415 C3428 0.960 . S
C3416 H3408 0.929 . S
C3416 C3417 1.377 . S
C3416 C3418 1.384 . S
C3417 C3416 1.377 . S
C3417 C3423 1.390 . S
C3418 H3409 0.930 . S
C3418 C3416 1.384 . S
C3418 C3419 1.372 . S
C3419 C3418 1.372 . S
C3419 C3420 1.400 . S
C3419 C3424 1.490 . S
C3420 H3410 0.930 . S
C3420 C3419 1.400 . S
C3420 C3423 1.386 . S
H3421 C3437 0.930 . S
H3422 C3438 0.931 . S
C3423 H3411 0.929 . S
C3423 C3417 1.390 . S
C3423 C3420 1.386 . S
C3424 C3419 1.490 . S
C3424 C3426 1.395 . S
C3424 C3427 1.403 . S
H3425 C3431 0.930 . S
C3426 H3412 0.930 . S
C3426 C3424 1.395 . S
C3426 C3429 1.403 . S
C3427 C3424 1.403 . S
C3427 C3428 1.524 . S
C3427 C3431 1.400 . S
C3428 H3413 0.960 . S
C3428 H3414 0.960 . S
C3428 H3415 0.960 . S
C3428 C3427 1.524 . S
C3429 C3426 1.403 . S
C3429 C3430 1.392 . S
C3429 C3433 1.495 . S
C3430 C3429 1.392 . S
C3430 C3431 1.385 . S
C3430 C3432 1.478 . S
C3431 H3425 0.930 . S
C3431 C3427 1.400 . S
C3431 C3430 1.385 . S
C3432 C3430 1.478 . S
C3432 C3434 1.381 . S
C3432 C3438 1.383 . S
C3433 C3429 1.495 . S
C3433 H3439 0.959 . S
C3433 H3440 0.961 . S
C3433 H3441 0.960 . S
C3434 C3432 1.381 . S
C3434 C3435 1.394 . S
C3434 H3442 0.930 . S
C3435 C3434 1.394 . S
C3435 C3436 1.383 . S
C3435 H3443 0.929 . S
C3436 C3435 1.383 . S
C3436 C3437 1.377 . S
C3437 H3421 0.930 . S
C3437 C3436 1.377 . S
C3437 C3438 1.379 . S
C3438 H3422 0.931 . S
C3438 C3432 1.383 . S
C3438 C3437 1.379 . S
H3439 C3433 0.959 . S
H3440 C3433 0.961 . S
H3441 C3433 0.960 . S
H3442 C3434 0.930 . S
H3443 C3435 0.929 . S
H3444 C3452 0.929 . S
H3445 C3454 0.930 . S
H3446 C3456 0.930 . S
H3447 C3459 0.929 . S
H3448 C3462 0.930 . S
H3449 C3464 0.960 . S
H3450 C3464 0.960 . S
H3451 C3464 0.960 . S
C3452 H3444 0.929 . S
C3452 C3453 1.377 . S
C3452 C3454 1.384 . S
C3453 C3452 1.377 . S
C3453 C3459 1.390 . S
C3454 H3445 0.930 . S
C3454 C3452 1.384 . S
C3454 C3455 1.372 . S
C3455 C3454 1.372 . S
C3455 C3456 1.400 . S
C3455 C3460 1.490 . S
C3456 H3446 0.930 . S
C3456 C3455 1.400 . S
C3456 C3459 1.386 . S
H3457 C3473 0.930 . S
H3458 C3474 0.931 . S
C3459 H3447 0.929 . S
C3459 C3453 1.390 . S
C3459 C3456 1.386 . S
C3460 C3455 1.490 . S
C3460 C3462 1.395 . S
C3460 C3463 1.403 . S
H3461 C3467 0.930 . S
C3462 H3448 0.930 . S
C3462 C3460 1.395 . S
C3462 C3465 1.403 . S
C3463 C3460 1.403 . S
C3463 C3464 1.524 . S
C3463 C3467 1.400 . S
C3464 H3449 0.960 . S
C3464 H3450 0.960 . S
C3464 H3451 0.960 . S
C3464 C3463 1.524 . S
C3465 C3462 1.403 . S
C3465 C3466 1.392 . S
C3465 C3469 1.495 . S
C3466 C3465 1.392 . S
C3466 C3467 1.385 . S
C3466 C3468 1.478 . S
C3467 H3461 0.930 . S
C3467 C3463 1.400 . S
C3467 C3466 1.385 . S
C3468 C3466 1.478 . S
C3468 C3470 1.381 . S
C3468 C3474 1.383 . S
C3469 C3465 1.495 . S
C3469 H3475 0.959 . S
C3469 H3476 0.961 . S
C3469 H3477 0.960 . S
C3470 C3468 1.381 . S
C3470 C3471 1.394 . S
C3470 H3478 0.930 . S
C3471 C3470 1.394 . S
C3471 C3472 1.383 . S
C3471 H3479 0.929 . S
C3472 C3471 1.383 . S
C3472 C3473 1.377 . S
C3473 H3457 0.930 . S
C3473 C3472 1.377 . S
C3473 C3474 1.379 . S
C3474 H3458 0.931 . S
C3474 C3468 1.383 . S
C3474 C3473 1.379 . S
H3475 C3469 0.959 . S
H3476 C3469 0.961 . S
H3477 C3469 0.960 . S
H3478 C3470 0.930 . S
H3479 C3471 0.929 . S
H3480 C3488 0.929 . S
H3481 C3490 0.930 . S
H3482 C3492 0.930 . S
H3483 C3495 0.929 . S
H3484 C3498 0.930 . S
H3485 C3500 0.960 . S
H3486 C3500 0.960 . S
H3487 C3500 0.960 . S
C3488 H3480 0.929 . S
C3488 C3489 1.377 1_655 S
C3488 C3490 1.384 . S
C3489 C3488 1.377 1_455 S
C3489 C3495 1.390 . S
C3490 H3481 0.930 . S
C3490 C3488 1.384 . S
C3490 C3491 1.372 1_655 S
C3491 C3490 1.372 1_455 S
C3491 C3492 1.400 . S
C3491 C3496 1.490 . S
C3492 H3482 0.930 . S
C3492 C3491 1.400 . S
C3492 C3495 1.386 . S
H3493 C3509 0.930 . S
H3494 C3510 0.931 . S
C3495 H3483 0.929 . S
C3495 C3489 1.390 . S
C3495 C3492 1.386 . S
C3496 C3491 1.490 . S
C3496 C3498 1.395 1_456 S
C3496 C3499 1.403 . S
H3497 C3503 0.958 . S
C3498 H3484 0.930 . S
C3498 C3496 1.395 1_654 S
C3498 C3501 1.403 . S
C3499 C3496 1.403 . S
C3499 C3500 1.524 . S
C3499 C3503 1.426 . S
C3500 H3485 0.960 . S
C3500 H3486 0.960 . S
C3500 H3487 0.960 . S
C3500 C3499 1.524 . S
C3501 C3498 1.403 . S
C3501 C3502 1.392 1_655 S
C3501 C3505 1.495 . S
C3502 C3501 1.392 1_455 S
C3502 C3503 1.336 1_554 S
C3502 C3504 1.478 . S
C3503 H3497 0.958 . S
C3503 C3499 1.426 . S
C3503 C3502 1.336 1_556 S
C3504 C3502 1.478 . S
C3504 C3506 1.381 1_455 S
C3504 C3510 1.383 . S
C3505 C3501 1.495 . S
C3505 H3511 0.959 . S
C3505 H3512 0.961 . S
C3505 H3513 0.960 . S
C3506 C3504 1.381 1_655 S
C3506 C3507 1.394 . S
C3506 H3514 0.930 . S
C3507 C3506 1.394 . S
C3507 C3508 1.383 1_655 S
C3507 H3515 0.929 . S
C3508 C3507 1.383 1_455 S
C3508 C3509 1.377 . S
C3509 H3493 0.930 . S
C3509 C3508 1.377 . S
C3509 C3510 1.379 . S
C3510 H3494 0.931 . S
C3510 C3504 1.383 . S
C3510 C3509 1.379 . S
H3511 C3505 0.959 . S
H3512 C3505 0.961 . S
H3513 C3505 0.960 . S
H3514 C3506 0.930 . S
H3515 C3507 0.929 . S
H3516 C3524 0.929 . S
H3517 C3526 0.930 . S
H3518 C3528 0.930 . S
H3519 C3531 0.929 . S
H3520 C3534 0.930 . S
H3521 C3536 0.960 . S
H3522 C3536 0.960 . S
H3523 C3536 0.960 . S
C3524 H3516 0.929 . S
C3524 C3525 1.377 . S
C3524 C3526 1.384 . S
C3525 C3524 1.377 . S
C3525 C3531 1.390 . S
C3526 H3517 0.930 . S
C3526 C3524 1.384 . S
C3526 C3527 1.372 . S
C3527 C3526 1.372 . S
C3527 C3528 1.400 . S
C3527 C3532 1.490 . S
C3528 H3518 0.930 . S
C3528 C3527 1.400 . S
C3528 C3531 1.386 . S
H3529 C3545 0.930 . S
H3530 C3546 0.931 . S
C3531 H3519 0.929 . S
C3531 C3525 1.390 . S
C3531 C3528 1.386 . S
C3532 C3527 1.490 . S
C3532 C3534 1.395 . S
C3532 C3535 1.403 . S
H3533 C3539 0.930 . S
C3534 H3520 0.930 . S
C3534 C3532 1.395 . S
C3534 C3537 1.403 . S
C3535 C3532 1.403 . S
C3535 C3536 1.524 . S
C3535 C3539 1.400 . S
C3536 H3521 0.960 . S
C3536 H3522 0.960 . S
C3536 H3523 0.960 . S
C3536 C3535 1.524 . S
C3537 C3534 1.403 . S
C3537 C3538 1.392 . S
C3537 C3541 1.495 . S
C3538 C3537 1.392 . S
C3538 C3539 1.385 . S
C3538 C3540 1.478 . S
C3539 H3533 0.930 . S
C3539 C3535 1.400 . S
C3539 C3538 1.385 . S
C3540 C3538 1.478 . S
C3540 C3542 1.381 . S
C3540 C3546 1.383 . S
C3541 C3537 1.495 . S
C3541 H3547 0.959 . S
C3541 H3548 0.961 . S
C3541 H3549 0.960 . S
C3542 C3540 1.381 . S
C3542 C3543 1.394 . S
C3542 H3550 0.930 . S
C3543 C3542 1.394 . S
C3543 C3544 1.383 . S
C3543 H3551 0.929 . S
C3544 C3543 1.383 . S
C3544 C3545 1.377 . S
C3545 H3529 0.930 . S
C3545 C3544 1.377 . S
C3545 C3546 1.379 . S
C3546 H3530 0.931 . S
C3546 C3540 1.383 . S
C3546 C3545 1.379 . S
H3547 C3541 0.959 . S
H3548 C3541 0.961 . S
H3549 C3541 0.960 . S
H3550 C3542 0.930 . S
H3551 C3543 0.929 . S
H3552 C3560 0.929 . S
H3553 C3562 0.930 . S
H3554 C3564 0.930 . S
H3555 C3567 0.929 . S
H3556 C3570 0.930 . S
H3557 C3572 0.960 . S
H3558 C3572 0.960 . S
H3559 C3572 0.960 . S
C3560 H3552 0.929 . S
C3560 C3561 1.377 . S
C3560 C3562 1.384 . S
C3561 C3560 1.377 . S
C3561 C3567 1.390 . S
C3562 H3553 0.930 . S
C3562 C3560 1.384 . S
C3562 C3563 1.372 . S
C3563 C3562 1.372 . S
C3563 C3564 1.400 . S
C3563 C3568 1.490 . S
C3564 H3554 0.930 . S
C3564 C3563 1.400 . S
C3564 C3567 1.386 . S
H3565 C3581 0.930 . S
H3566 C3582 0.931 . S
C3567 H3555 0.929 . S
C3567 C3561 1.390 . S
C3567 C3564 1.386 . S
C3568 C3563 1.490 . S
C3568 C3570 1.395 . S
C3568 C3571 1.403 . S
H3569 C3575 0.930 . S
C3570 H3556 0.930 . S
C3570 C3568 1.395 . S
C3570 C3573 1.403 . S
C3571 C3568 1.403 . S
C3571 C3572 1.524 . S
C3571 C3575 1.400 . S
C3572 H3557 0.960 . S
C3572 H3558 0.960 . S
C3572 H3559 0.960 . S
C3572 C3571 1.524 . S
C3573 C3570 1.403 . S
C3573 C3574 1.392 . S
C3573 C3577 1.495 . S
C3574 C3573 1.392 . S
C3574 C3575 1.385 . S
C3574 C3576 1.478 . S
C3575 H3569 0.930 . S
C3575 C3571 1.400 . S
C3575 C3574 1.385 . S
C3576 C3574 1.478 . S
C3576 C3578 1.381 . S
C3576 C3582 1.383 . S
C3577 C3573 1.495 . S
C3577 H3583 0.959 . S
C3577 H3584 0.961 . S
C3577 H3585 0.960 . S
C3578 C3576 1.381 . S
C3578 C3579 1.394 . S
C3578 H3586 0.930 . S
C3579 C3578 1.394 . S
C3579 C3580 1.383 . S
C3579 H3587 0.929 . S
C3580 C3579 1.383 . S
C3580 C3581 1.377 . S
C3581 H3565 0.930 . S
C3581 C3580 1.377 . S
C3581 C3582 1.379 . S
C3582 H3566 0.931 . S
C3582 C3576 1.383 . S
C3582 C3581 1.379 . S
H3583 C3577 0.959 . S
H3584 C3577 0.961 . S
H3585 C3577 0.960 . S
H3586 C3578 0.930 . S
H3587 C3579 0.929 . S
H3588 C3596 0.929 . S
H3589 C3598 0.930 . S
H3590 C3600 0.930 . S
H3591 C3603 0.929 . S
H3592 C3606 0.930 . S
H3593 C3608 0.960 . S
H3594 C3608 0.960 . S
H3595 C3608 0.960 . S
C3596 H3588 0.929 . S
C3596 C3597 1.377 . S
C3596 C3598 1.384 . S
C3597 C3596 1.377 . S
C3597 C3603 1.390 . S
C3598 H3589 0.930 . S
C3598 C3596 1.384 . S
C3598 C3599 1.372 . S
C3599 C3598 1.372 . S
C3599 C3600 1.400 . S
C3599 C3604 1.490 . S
C3600 H3590 0.930 . S
C3600 C3599 1.400 . S
C3600 C3603 1.386 . S
H3601 C3617 0.930 . S
H3602 C3618 0.931 . S
C3603 H3591 0.929 . S
C3603 C3597 1.390 . S
C3603 C3600 1.386 . S
C3604 C3599 1.490 . S
C3604 C3606 1.395 . S
C3604 C3607 1.403 . S
H3605 C3611 0.930 . S
C3606 H3592 0.930 . S
C3606 C3604 1.395 . S
C3606 C3609 1.403 . S
C3607 C3604 1.403 . S
C3607 C3608 1.524 . S
C3607 C3611 1.400 . S
C3608 H3593 0.960 . S
C3608 H3594 0.960 . S
C3608 H3595 0.960 . S
C3608 C3607 1.524 . S
C3609 C3606 1.403 . S
C3609 C3610 1.392 . S
C3609 C3613 1.495 . S
C3610 C3609 1.392 . S
C3610 C3611 1.385 . S
C3610 C3612 1.478 . S
C3611 H3605 0.930 . S
C3611 C3607 1.400 . S
C3611 C3610 1.385 . S
C3612 C3610 1.478 . S
C3612 C3614 1.381 . S
C3612 C3618 1.383 . S
C3613 C3609 1.495 . S
C3613 H3619 0.959 . S
C3613 H3620 0.961 . S
C3613 H3621 0.960 . S
C3614 C3612 1.381 . S
C3614 C3615 1.394 . S
C3614 H3622 0.930 . S
C3615 C3614 1.394 . S
C3615 C3616 1.383 . S
C3615 H3623 0.929 . S
C3616 C3615 1.383 . S
C3616 C3617 1.377 . S
C3617 H3601 0.930 . S
C3617 C3616 1.377 . S
C3617 C3618 1.379 . S
C3618 H3602 0.931 . S
C3618 C3612 1.383 . S
C3618 C3617 1.379 . S
H3619 C3613 0.959 . S
H3620 C3613 0.961 . S
H3621 C3613 0.960 . S
H3622 C3614 0.930 . S
H3623 C3615 0.929 . S
H3624 C3632 0.929 . S
H3625 C3634 0.936 . S
H3626 C3636 0.930 . S
H3627 C3639 0.929 . S
H3628 C3642 0.930 . S
H3629 C3644 0.960 . S
H3630 C3644 0.960 . S
H3631 C3644 0.960 . S
C3632 H3624 0.929 . S
C3632 C3633 1.377 1_655 S
C3632 C3634 1.392 . S
C3633 C3632 1.377 1_455 S
C3633 C3639 1.390 . S
C3634 H3625 0.936 . S
C3634 C3632 1.392 . S
C3634 C3635 1.358 1_655 S
C3635 C3634 1.358 1_455 S
C3635 C3636 1.400 . S
C3635 C3640 1.490 . S
C3636 H3626 0.930 . S
C3636 C3635 1.400 . S
C3636 C3639 1.386 . S
H3637 C3653 0.930 . S
H3638 C3654 0.931 . S
C3639 H3627 0.929 . S
C3639 C3633 1.390 . S
C3639 C3636 1.386 . S
C3640 C3635 1.490 . S
C3640 C3642 1.395 . S
C3640 C3643 1.387 1_455 S
H3641 C3647 0.930 1_655 S
C3642 H3628 0.930 . S
C3642 C3640 1.395 . S
C3642 C3645 1.403 . S
C3643 C3640 1.387 1_655 S
C3643 C3644 1.565 . S
C3643 C3647 1.378 1_655 S
C3644 H3629 0.960 . S
C3644 H3630 0.960 . S
C3644 H3631 0.960 . S
C3644 C3643 1.565 . S
C3645 C3642 1.403 . S
C3645 C3646 1.392 . S
C3645 C3649 1.495 . S
C3646 C3645 1.392 . S
C3646 C3647 1.385 . S
C3646 C3648 1.478 . S
C3647 H3641 0.930 1_455 S
C3647 C3643 1.378 1_455 S
C3647 C3646 1.385 . S
C3648 C3646 1.478 . S
C3648 C3650 1.381 . S
C3648 C3654 1.383 . S
C3649 C3645 1.495 . S
C3649 H3655 0.959 . S
C3649 H3656 0.961 . S
C3649 H3657 0.960 . S
C3650 C3648 1.381 . S
C3650 C3651 1.394 . S
C3650 H3658 0.904 1_455 S
C3651 C3650 1.394 . S
C3651 C3652 1.383 . S
C3651 H3659 0.916 1_455 S
C3652 C3651 1.383 . S
C3652 C3653 1.377 . S
C3653 H3637 0.930 . S
C3653 C3652 1.377 . S
C3653 C3654 1.379 . S
C3654 H3638 0.931 . S
C3654 C3648 1.383 . S
C3654 C3653 1.379 . S
H3655 C3649 0.959 . S
H3656 C3649 0.961 . S
H3657 C3649 0.960 . S
H3658 C3650 0.904 1_655 S
H3659 C3651 0.916 1_655 S
H3660 C3668 0.929 . S
H3661 C3670 0.930 . S
H3662 C3672 0.930 . S
H3663 C3675 0.929 . S
H3664 C3678 0.930 . S
H3665 C3680 0.960 . S
H3666 C3680 0.960 . S
H3667 C3680 0.960 . S
C3668 H3660 0.929 . S
C3668 C3669 1.377 . S
C3668 C3670 1.384 . S
C3669 C3668 1.377 . S
C3669 C3675 1.390 . S
C3670 H3661 0.930 . S
C3670 C3668 1.384 . S
C3670 C3671 1.372 . S
C3671 C3670 1.372 . S
C3671 C3672 1.400 . S
C3671 C3676 1.490 . S
C3672 H3662 0.930 . S
C3672 C3671 1.400 . S
C3672 C3675 1.386 . S
H3673 C3689 0.930 . S
H3674 C3690 0.931 . S
C3675 H3663 0.929 . S
C3675 C3669 1.390 . S
C3675 C3672 1.386 . S
C3676 C3671 1.490 . S
C3676 C3678 1.395 . S
C3676 C3679 1.403 . S
H3677 C3683 0.930 . S
C3678 H3664 0.930 . S
C3678 C3676 1.395 . S
C3678 C3681 1.403 . S
C3679 C3676 1.403 . S
C3679 C3680 1.524 . S
C3679 C3683 1.400 . S
C3680 H3665 0.960 . S
C3680 H3666 0.960 . S
C3680 H3667 0.960 . S
C3680 C3679 1.524 . S
C3681 C3678 1.403 . S
C3681 C3682 1.392 . S
C3681 C3685 1.495 . S
C3682 C3681 1.392 . S
C3682 C3683 1.385 . S
C3682 C3684 1.478 . S
C3683 H3677 0.930 . S
C3683 C3679 1.400 . S
C3683 C3682 1.385 . S
C3684 C3682 1.478 . S
C3684 C3686 1.381 . S
C3684 C3690 1.383 . S
C3685 C3681 1.495 . S
C3685 H3691 0.959 . S
C3685 H3692 0.961 . S
C3685 H3693 0.960 . S
C3686 C3684 1.381 . S
C3686 C3687 1.394 . S
C3686 H3694 0.930 . S
C3687 C3686 1.394 . S
C3687 C3688 1.383 . S
C3687 H3695 0.929 . S
C3688 C3687 1.383 . S
C3688 C3689 1.377 . S
C3689 H3673 0.930 . S
C3689 C3688 1.377 . S
C3689 C3690 1.379 . S
C3690 H3674 0.931 . S
C3690 C3684 1.383 . S
C3690 C3689 1.379 . S
H3691 C3685 0.959 . S
H3692 C3685 0.961 . S
H3693 C3685 0.960 . S
H3694 C3686 0.930 . S
H3695 C3687 0.929 . S
H3696 C3704 0.929 . S
H3697 C3706 0.930 . S
H3698 C3708 0.930 . S
H3699 C3711 0.929 . S
H3700 C3714 0.930 . S
H3701 C3716 0.960 . S
H3702 C3716 0.960 . S
H3703 C3716 0.960 . S
C3704 H3696 0.929 . S
C3704 C3705 1.377 . S
C3704 C3706 1.384 . S
C3705 C3704 1.377 . S
C3705 C3711 1.390 . S
C3706 H3697 0.930 . S
C3706 C3704 1.384 . S
C3706 C3707 1.372 . S
C3707 C3706 1.372 . S
C3707 C3708 1.400 . S
C3707 C3712 1.490 . S
C3708 H3698 0.930 . S
C3708 C3707 1.400 . S
C3708 C3711 1.386 . S
H3709 C3725 0.930 . S
H3710 C3726 0.931 . S
C3711 H3699 0.929 . S
C3711 C3705 1.390 . S
C3711 C3708 1.386 . S
C3712 C3707 1.490 . S
C3712 C3714 1.395 . S
C3712 C3715 1.403 . S
H3713 C3719 0.930 . S
C3714 H3700 0.930 . S
C3714 C3712 1.395 . S
C3714 C3717 1.403 . S
C3715 C3712 1.403 . S
C3715 C3716 1.524 . S
C3715 C3719 1.400 . S
C3716 H3701 0.960 . S
C3716 H3702 0.960 . S
C3716 H3703 0.960 . S
C3716 C3715 1.524 . S
C3717 C3714 1.403 . S
C3717 C3718 1.392 . S
C3717 C3721 1.495 . S
C3718 C3717 1.392 . S
C3718 C3719 1.385 . S
C3718 C3720 1.478 . S
C3719 H3713 0.930 . S
C3719 C3715 1.400 . S
C3719 C3718 1.385 . S
C3720 C3718 1.478 . S
C3720 C3722 1.381 . S
C3720 C3726 1.383 . S
C3721 C3717 1.495 . S
C3721 H3727 0.959 . S
C3721 H3728 0.961 . S
C3721 H3729 0.960 . S
C3722 C3720 1.381 . S
C3722 C3723 1.394 . S
C3722 H3730 0.930 . S
C3723 C3722 1.394 . S
C3723 C3724 1.383 . S
C3723 H3731 0.929 . S
C3724 C3723 1.383 . S
C3724 C3725 1.377 . S
C3725 H3709 0.930 . S
C3725 C3724 1.377 . S
C3725 C3726 1.379 . S
C3726 H3710 0.931 . S
C3726 C3720 1.383 . S
C3726 C3725 1.379 . S
H3727 C3721 0.959 . S
H3728 C3721 0.961 . S
H3729 C3721 0.960 . S
H3730 C3722 0.930 . S
H3731 C3723 0.929 . S
H3732 C3740 0.929 . S
H3733 C3742 0.930 . S
H3734 C3744 0.930 . S
H3735 C3747 0.929 1_554 S
H3736 C3750 0.930 . S
H3737 C3752 0.960 . S
H3738 C3752 0.960 . S
H3739 C3752 0.960 . S
C3740 H3732 0.929 . S
C3740 C3741 1.377 . S
C3740 C3742 1.384 . S
C3741 C3740 1.377 . S
C3741 C3747 1.390 . S
C3742 H3733 0.930 . S
C3742 C3740 1.384 . S
C3742 C3743 1.372 . S
C3743 C3742 1.372 . S
C3743 C3744 1.400 . S
C3743 C3748 1.490 . S
C3744 H3734 0.930 . S
C3744 C3743 1.400 . S
C3744 C3747 1.386 . S
H3745 C3761 0.930 . S
H3746 C3762 0.931 . S
C3747 H3735 0.929 1_556 S
C3747 C3741 1.390 . S
C3747 C3744 1.386 . S
C3748 C3743 1.490 . S
C3748 C3750 1.395 . S
C3748 C3751 1.403 . S
H3749 C3755 0.930 . S
C3750 H3736 0.930 . S
C3750 C3748 1.395 . S
C3750 C3753 1.403 . S
C3751 C3748 1.403 . S
C3751 C3752 1.524 . S
C3751 C3755 1.400 . S
C3752 H3737 0.960 . S
C3752 H3738 0.960 . S
C3752 H3739 0.960 . S
C3752 C3751 1.524 . S
C3753 C3750 1.403 . S
C3753 C3754 1.392 . S
C3753 C3757 1.495 . S
C3754 C3753 1.392 . S
C3754 C3755 1.385 . S
C3754 C3756 1.478 . S
C3755 H3749 0.930 . S
C3755 C3751 1.400 . S
C3755 C3754 1.385 . S
C3756 C3754 1.478 . S
C3756 C3758 1.381 . S
C3756 C3762 1.383 . S
C3757 C3753 1.495 . S
C3757 H3763 0.959 . S
C3757 H3764 0.961 . S
C3757 H3765 0.960 . S
C3758 C3756 1.381 . S
C3758 C3759 1.394 . S
C3758 H3766 0.930 . S
C3759 C3758 1.394 . S
C3759 C3760 1.383 . S
C3759 H3767 0.929 . S
C3760 C3759 1.383 . S
C3760 C3761 1.377 . S
C3761 H3745 0.930 . S
C3761 C3760 1.377 . S
C3761 C3762 1.379 . S
C3762 H3746 0.931 . S
C3762 C3756 1.383 . S
C3762 C3761 1.379 . S
H3763 C3757 0.959 . S
H3764 C3757 0.961 . S
H3765 C3757 0.960 . S
H3766 C3758 0.930 . S
H3767 C3759 0.929 . S
H3768 C3776 0.929 . S
H3769 C3778 0.930 . S
H3770 C3780 0.930 . S
H3771 C3783 0.929 . S
H3772 C3786 0.930 . S
H3773 C3788 0.960 . S
H3774 C3788 0.960 . S
H3775 C3788 0.960 . S
C3776 H3768 0.929 . S
C3776 C3777 1.377 . S
C3776 C3778 1.384 . S
C3777 C3776 1.377 . S
C3777 C3783 1.390 . S
C3778 H3769 0.930 . S
C3778 C3776 1.384 . S
C3778 C3779 1.372 . S
C3779 C3778 1.372 . S
C3779 C3780 1.400 . S
C3779 C3784 1.490 . S
C3780 H3770 0.930 . S
C3780 C3779 1.400 . S
C3780 C3783 1.386 . S
H3781 C3797 0.930 . S
H3782 C3798 0.931 . S
C3783 H3771 0.929 . S
C3783 C3777 1.390 . S
C3783 C3780 1.386 . S
C3784 C3779 1.490 . S
C3784 C3786 1.395 . S
C3784 C3787 1.403 . S
H3785 C3791 0.930 . S
C3786 H3772 0.930 . S
C3786 C3784 1.395 . S
C3786 C3789 1.403 . S
C3787 C3784 1.403 . S
C3787 C3788 1.524 . S
C3787 C3791 1.400 . S
C3788 H3773 0.960 . S
C3788 H3774 0.960 . S
C3788 H3775 0.960 . S
C3788 C3787 1.524 . S
C3789 C3786 1.403 . S
C3789 C3790 1.392 . S
C3789 C3793 1.495 . S
C3790 C3789 1.392 . S
C3790 C3791 1.385 . S
C3790 C3792 1.478 . S
C3791 H3785 0.930 . S
C3791 C3787 1.400 . S
C3791 C3790 1.385 . S
C3792 C3790 1.478 . S
C3792 C3794 1.381 . S
C3792 C3798 1.383 . S
C3793 C3789 1.495 . S
C3793 H3799 0.959 . S
C3793 H3800 0.961 . S
C3793 H3801 0.960 . S
C3794 C3792 1.381 . S
C3794 C3795 1.394 . S
C3794 H3802 0.930 . S
C3795 C3794 1.394 . S
C3795 C3796 1.383 . S
C3795 H3803 0.929 . S
C3796 C3795 1.383 . S
C3796 C3797 1.377 . S
C3797 H3781 0.930 . S
C3797 C3796 1.377 . S
C3797 C3798 1.379 . S
C3798 H3782 0.931 . S
C3798 C3792 1.383 . S
C3798 C3797 1.379 . S
H3799 C3793 0.959 . S
H3800 C3793 0.961 . S
H3801 C3793 0.960 . S
H3802 C3794 0.930 . S
H3803 C3795 0.929 . S
H3804 C3812 0.929 . S
H3805 C3814 0.930 . S
H3806 C3816 0.930 . S
H3807 C3819 0.929 . S
H3808 C3822 0.930 . S
H3809 C3824 0.960 . S
H3810 C3824 0.960 . S
H3811 C3824 0.960 . S
C3812 H3804 0.929 . S
C3812 C3813 1.377 . S
C3812 C3814 1.384 . S
C3813 C3812 1.377 . S
C3813 C3819 1.390 . S
C3814 H3805 0.930 . S
C3814 C3812 1.384 . S
C3814 C3815 1.372 . S
C3815 C3814 1.372 . S
C3815 C3816 1.400 . S
C3815 C3820 1.490 . S
C3816 H3806 0.930 . S
C3816 C3815 1.400 . S
C3816 C3819 1.386 . S
H3817 C3833 0.930 . S
H3818 C3834 0.931 . S
C3819 H3807 0.929 . S
C3819 C3813 1.390 . S
C3819 C3816 1.386 . S
C3820 C3815 1.490 . S
C3820 C3822 1.395 . S
C3820 C3823 1.403 . S
H3821 C3827 0.930 . S
C3822 H3808 0.930 . S
C3822 C3820 1.395 . S
C3822 C3825 1.403 . S
C3823 C3820 1.403 . S
C3823 C3824 1.524 . S
C3823 C3827 1.400 . S
C3824 H3809 0.960 . S
C3824 H3810 0.960 . S
C3824 H3811 0.960 . S
C3824 C3823 1.524 . S
C3825 C3822 1.403 . S
C3825 C3826 1.392 . S
C3825 C3829 1.495 . S
C3826 C3825 1.392 . S
C3826 C3827 1.385 . S
C3826 C3828 1.478 . S
C3827 H3821 0.930 . S
C3827 C3823 1.400 . S
C3827 C3826 1.385 . S
C3828 C3826 1.478 . S
C3828 C3830 1.381 . S
C3828 C3834 1.383 . S
C3829 C3825 1.495 . S
C3829 H3835 0.959 . S
C3829 H3836 0.961 . S
C3829 H3837 0.960 . S
C3830 C3828 1.381 . S
C3830 C3831 1.394 . S
C3830 H3838 0.930 . S
C3831 C3830 1.394 . S
C3831 C3832 1.383 . S
C3831 H3839 0.929 . S
C3832 C3831 1.383 . S
C3832 C3833 1.377 . S
C3833 H3817 0.930 . S
C3833 C3832 1.377 . S
C3833 C3834 1.379 . S
C3834 H3818 0.931 . S
C3834 C3828 1.383 . S
C3834 C3833 1.379 . S
H3835 C3829 0.959 . S
H3836 C3829 0.961 . S
H3837 C3829 0.960 . S
H3838 C3830 0.930 . S
H3839 C3831 0.929 . S
H3840 C3848 0.929 . S
H3841 C3850 0.930 . S
H3842 C3852 0.930 . S
H3843 C3855 0.929 . S
H3844 C3858 0.930 . S
H3845 C3860 0.960 . S
H3846 C3860 0.960 . S
H3847 C3860 0.960 . S
C3848 H3840 0.929 . S
C3848 C3849 1.377 . S
C3848 C3850 1.384 . S
C3849 C3848 1.377 . S
C3849 C3855 1.390 . S
C3850 H3841 0.930 . S
C3850 C3848 1.384 . S
C3850 C3851 1.372 . S
C3851 C3850 1.372 . S
C3851 C3852 1.400 . S
C3851 C3856 1.490 . S
C3852 H3842 0.930 . S
C3852 C3851 1.400 . S
C3852 C3855 1.386 . S
H3853 C3869 0.930 . S
H3854 C3870 0.931 . S
C3855 H3843 0.929 . S
C3855 C3849 1.390 . S
C3855 C3852 1.386 . S
C3856 C3851 1.490 . S
C3856 C3858 1.395 . S
C3856 C3859 1.403 . S
H3857 C3863 0.930 . S
C3858 H3844 0.930 . S
C3858 C3856 1.395 . S
C3858 C3861 1.403 . S
C3859 C3856 1.403 . S
C3859 C3860 1.524 . S
C3859 C3863 1.400 . S
C3860 H3845 0.960 . S
C3860 H3846 0.960 . S
C3860 H3847 0.960 . S
C3860 C3859 1.524 . S
C3861 C3858 1.403 . S
C3861 C3862 1.392 . S
C3861 C3865 1.495 . S
C3862 C3861 1.392 . S
C3862 C3863 1.385 . S
C3862 C3864 1.478 . S
C3863 H3857 0.930 . S
C3863 C3859 1.400 . S
C3863 C3862 1.385 . S
C3864 C3862 1.478 . S
C3864 C3866 1.381 . S
C3864 C3870 1.383 . S
C3865 C3861 1.495 . S
C3865 H3871 0.959 . S
C3865 H3872 0.961 . S
C3865 H3873 0.960 . S
C3866 C3864 1.381 . S
C3866 C3867 1.394 . S
C3866 H3874 0.930 . S
C3867 C3866 1.394 . S
C3867 C3868 1.383 . S
C3867 H3875 0.929 . S
C3868 C3867 1.383 . S
C3868 C3869 1.377 . S
C3869 H3853 0.930 . S
C3869 C3868 1.377 . S
C3869 C3870 1.379 . S
C3870 H3854 0.931 . S
C3870 C3864 1.383 . S
C3870 C3869 1.379 . S
H3871 C3865 0.959 . S
H3872 C3865 0.961 . S
H3873 C3865 0.960 . S
H3874 C3866 0.930 . S
H3875 C3867 0.929 . S
H3876 C3884 0.929 . S
H3877 C3886 0.930 . S
H3878 C3888 0.930 . S
H3879 C3891 0.929 . S
H3880 C3894 0.930 . S
H3881 C3896 0.960 . S
H3882 C3896 0.960 . S
H3883 C3896 0.960 . S
C3884 H3876 0.929 . S
C3884 C3885 1.377 . S
C3884 C3886 1.384 . S
C3885 C3884 1.377 . S
C3885 C3891 1.390 . S
C3886 H3877 0.930 . S
C3886 C3884 1.384 . S
C3886 C3887 1.372 . S
C3887 C3886 1.372 . S
C3887 C3888 1.400 . S
C3887 C3892 1.490 . S
C3888 H3878 0.930 . S
C3888 C3887 1.400 . S
C3888 C3891 1.386 . S
H3889 C3905 0.930 . S
H3890 C3906 0.931 . S
C3891 H3879 0.929 . S
C3891 C3885 1.390 . S
C3891 C3888 1.386 . S
C3892 C3887 1.490 . S
C3892 C3894 1.395 . S
C3892 C3895 1.403 . S
H3893 C3899 0.930 . S
C3894 H3880 0.930 . S
C3894 C3892 1.395 . S
C3894 C3897 1.403 . S
C3895 C3892 1.403 . S
C3895 C3896 1.524 . S
C3895 C3899 1.400 . S
C3896 H3881 0.960 . S
C3896 H3882 0.960 . S
C3896 H3883 0.960 . S
C3896 C3895 1.524 . S
C3897 C3894 1.403 . S
C3897 C3898 1.392 . S
C3897 C3901 1.495 . S
C3898 C3897 1.392 . S
C3898 C3899 1.385 . S
C3898 C3900 1.478 . S
C3899 H3893 0.930 . S
C3899 C3895 1.400 . S
C3899 C3898 1.385 . S
C3900 C3898 1.478 . S
C3900 C3902 1.381 . S
C3900 C3906 1.383 . S
C3901 C3897 1.495 . S
C3901 H3907 0.959 . S
C3901 H3908 0.961 . S
C3901 H3909 0.960 . S
C3902 C3900 1.381 . S
C3902 C3903 1.394 . S
C3902 H3910 0.930 . S
C3903 C3902 1.394 . S
C3903 C3904 1.383 . S
C3903 H3911 0.929 . S
C3904 C3903 1.383 . S
C3904 C3905 1.377 . S
C3905 H3889 0.930 . S
C3905 C3904 1.377 . S
C3905 C3906 1.379 . S
C3906 H3890 0.931 . S
C3906 C3900 1.383 . S
C3906 C3905 1.379 . S
H3907 C3901 0.959 . S
H3908 C3901 0.961 . S
H3909 C3901 0.960 . S
H3910 C3902 0.930 . S
H3911 C3903 0.929 . S
H3912 C3920 0.929 . S
H3913 C3922 0.930 . S
H3914 C3924 0.930 . S
H3915 C3927 0.929 . S
H3916 C3930 0.930 . S
H3917 C3932 0.960 . S
H3918 C3932 0.960 . S
H3919 C3932 0.960 . S
C3920 H3912 0.929 . S
C3920 C3921 1.377 . S
C3920 C3922 1.384 . S
C3921 C3920 1.377 . S
C3921 C3927 1.390 . S
C3922 H3913 0.930 . S
C3922 C3920 1.384 . S
C3922 C3923 1.372 . S
C3923 C3922 1.372 . S
C3923 C3924 1.400 . S
C3923 C3928 1.490 . S
C3924 H3914 0.930 . S
C3924 C3923 1.400 . S
C3924 C3927 1.386 . S
H3925 C3941 0.930 . S
H3926 C3942 0.931 . S
C3927 H3915 0.929 . S
C3927 C3921 1.390 . S
C3927 C3924 1.386 . S
C3928 C3923 1.490 . S
C3928 C3930 1.395 . S
C3928 C3931 1.403 . S
H3929 C3935 0.930 . S
C3930 H3916 0.930 . S
C3930 C3928 1.395 . S
C3930 C3933 1.403 . S
C3931 C3928 1.403 . S
C3931 C3932 1.524 . S
C3931 C3935 1.400 . S
C3932 H3917 0.960 . S
C3932 H3918 0.960 . S
C3932 H3919 0.960 . S
C3932 C3931 1.524 . S
C3933 C3930 1.403 . S
C3933 C3934 1.392 . S
C3933 C3937 1.495 . S
C3934 C3933 1.392 . S
C3934 C3935 1.385 . S
C3934 C3936 1.478 . S
C3935 H3929 0.930 . S
C3935 C3931 1.400 . S
C3935 C3934 1.385 . S
C3936 C3934 1.478 . S
C3936 C3938 1.381 . S
C3936 C3942 1.383 . S
C3937 C3933 1.495 . S
C3937 H3943 0.959 . S
C3937 H3944 0.961 . S
C3937 H3945 0.960 . S
C3938 C3936 1.381 . S
C3938 C3939 1.394 . S
C3938 H3946 0.930 . S
C3939 C3938 1.394 . S
C3939 C3940 1.383 . S
C3939 H3947 0.929 . S
C3940 C3939 1.383 . S
C3940 C3941 1.377 . S
C3941 H3925 0.930 . S
C3941 C3940 1.377 . S
C3941 C3942 1.379 . S
C3942 H3926 0.931 . S
C3942 C3936 1.383 . S
C3942 C3941 1.379 . S
H3943 C3937 0.959 . S
H3944 C3937 0.961 . S
H3945 C3937 0.960 . S
H3946 C3938 0.930 . S
H3947 C3939 0.929 . S
H3948 C3956 0.929 . S
H3949 C3958 0.930 . S
H3950 C3960 0.930 . S
H3951 C3963 0.929 . S
H3952 C3966 0.930 . S
H3953 C3968 0.960 . S
H3954 C3968 0.960 . S
H3955 C3968 0.960 . S
C3956 H3948 0.929 . S
C3956 C3957 1.377 . S
C3956 C3958 1.384 . S
C3957 C3956 1.377 . S
C3957 C3963 1.390 . S
C3958 H3949 0.930 . S
C3958 C3956 1.384 . S
C3958 C3959 1.372 . S
C3959 C3958 1.372 . S
C3959 C3960 1.400 . S
C3959 C3964 1.490 . S
C3960 H3950 0.930 . S
C3960 C3959 1.400 . S
C3960 C3963 1.386 . S
H3961 C3977 0.930 . S
H3962 C3978 0.931 . S
C3963 H3951 0.929 . S
C3963 C3957 1.390 . S
C3963 C3960 1.386 . S
C3964 C3959 1.490 . S
C3964 C3966 1.395 . S
C3964 C3967 1.403 . S
H3965 C3971 0.930 . S
C3966 H3952 0.930 . S
C3966 C3964 1.395 . S
C3966 C3969 1.403 . S
C3967 C3964 1.403 . S
C3967 C3968 1.524 . S
C3967 C3971 1.400 . S
C3968 H3953 0.960 . S
C3968 H3954 0.960 . S
C3968 H3955 0.960 . S
C3968 C3967 1.524 . S
C3969 C3966 1.403 . S
C3969 C3970 1.392 . S
C3969 C3973 1.495 . S
C3970 C3969 1.392 . S
C3970 C3971 1.385 . S
C3970 C3972 1.478 . S
C3971 H3965 0.930 . S
C3971 C3967 1.400 . S
C3971 C3970 1.385 . S
C3972 C3970 1.478 . S
C3972 C3974 1.381 . S
C3972 C3978 1.383 . S
C3973 C3969 1.495 . S
C3973 H3979 0.959 . S
C3973 H3980 0.961 . S
C3973 H3981 0.960 . S
C3974 C3972 1.381 . S
C3974 C3975 1.394 . S
C3974 H3982 0.930 . S
C3975 C3974 1.394 . S
C3975 C3976 1.383 . S
C3975 H3983 0.929 . S
C3976 C3975 1.383 . S
C3976 C3977 1.377 . S
C3977 H3961 0.930 . S
C3977 C3976 1.377 . S
C3977 C3978 1.379 . S
C3978 H3962 0.931 . S
C3978 C3972 1.383 . S
C3978 C3977 1.379 . S
H3979 C3973 0.959 . S
H3980 C3973 0.961 . S
H3981 C3973 0.960 . S
H3982 C3974 0.930 . S
H3983 C3975 0.929 . S
H3984 C3992 0.929 . S
H3985 C3994 0.930 . S
H3986 C3996 0.930 . S
H3987 C3999 0.929 . S
H3988 C4002 0.930 . S
H3989 C4004 0.960 . S
H3990 C4004 0.960 . S
H3991 C4004 0.960 . S
C3992 H3984 0.929 . S
C3992 C3993 1.377 . S
C3992 C3994 1.384 . S
C3993 C3992 1.377 . S
C3993 C3999 1.390 . S
C3994 H3985 0.930 . S
C3994 C3992 1.384 . S
C3994 C3995 1.372 . S
C3995 C3994 1.372 . S
C3995 C3996 1.400 . S
C3995 C4000 1.490 . S
C3996 H3986 0.930 . S
C3996 C3995 1.400 . S
C3996 C3999 1.386 . S
H3997 C4013 0.930 . S
H3998 C4014 0.931 . S
C3999 H3987 0.929 . S
C3999 C3993 1.390 . S
C3999 C3996 1.386 . S
C4000 C3995 1.490 . S
C4000 C4002 1.395 . S
C4000 C4003 1.403 . S
H4001 C4007 0.930 . S
C4002 H3988 0.930 . S
C4002 C4000 1.395 . S
C4002 C4005 1.403 . S
C4003 C4000 1.403 . S
C4003 C4004 1.524 . S
C4003 C4007 1.400 . S
C4004 H3989 0.960 . S
C4004 H3990 0.960 . S
C4004 H3991 0.960 . S
C4004 C4003 1.524 . S
C4005 C4002 1.403 . S
C4005 C4006 1.392 . S
C4005 C4009 1.495 . S
C4006 C4005 1.392 . S
C4006 C4007 1.385 . S
C4006 C4008 1.478 . S
C4007 H4001 0.930 . S
C4007 C4003 1.400 . S
C4007 C4006 1.385 . S
C4008 C4006 1.478 . S
C4008 C4010 1.381 . S
C4008 C4014 1.383 . S
C4009 C4005 1.495 . S
C4009 H4015 0.959 . S
C4009 H4016 0.961 . S
C4009 H4017 0.960 . S
C4010 C4008 1.381 . S
C4010 C4011 1.394 . S
C4010 H4018 0.930 . S
C4011 C4010 1.394 . S
C4011 C4012 1.383 . S
C4011 H4019 0.929 . S
C4012 C4011 1.383 . S
C4012 C4013 1.377 . S
C4013 H3997 0.930 . S
C4013 C4012 1.377 . S
C4013 C4014 1.379 . S
C4014 H3998 0.931 . S
C4014 C4008 1.383 . S
C4014 C4013 1.379 . S
H4015 C4009 0.959 . S
H4016 C4009 0.961 . S
H4017 C4009 0.960 . S
H4018 C4010 0.930 . S
H4019 C4011 0.929 . S
H4020 C4028 0.929 . S
H4021 C4030 0.930 . S
H4022 C4032 0.930 . S
H4023 C4035 0.929 . S
H4024 C4038 0.930 . S
H4025 C4040 0.960 . S
H4026 C4040 0.960 . S
H4027 C4040 0.960 . S
C4028 H4020 0.929 . S
C4028 C4029 1.377 . S
C4028 C4030 1.384 . S
C4029 C4028 1.377 . S
C4029 C4035 1.390 . S
C4030 H4021 0.930 . S
C4030 C4028 1.384 . S
C4030 C4031 1.372 . S
C4031 C4030 1.372 . S
C4031 C4032 1.400 . S
C4031 C4036 1.490 . S
C4032 H4022 0.930 . S
C4032 C4031 1.400 . S
C4032 C4035 1.386 . S
H4033 C4049 0.930 . S
H4034 C4050 0.931 . S
C4035 H4023 0.929 . S
C4035 C4029 1.390 . S
C4035 C4032 1.386 . S
C4036 C4031 1.490 . S
C4036 C4038 1.395 . S
C4036 C4039 1.403 . S
H4037 C4043 0.930 . S
C4038 H4024 0.930 . S
C4038 C4036 1.395 . S
C4038 C4041 1.403 . S
C4039 C4036 1.403 . S
C4039 C4040 1.524 . S
C4039 C4043 1.400 . S
C4040 H4025 0.960 . S
C4040 H4026 0.960 . S
C4040 H4027 0.960 . S
C4040 C4039 1.524 . S
C4041 C4038 1.403 . S
C4041 C4042 1.392 . S
C4041 C4045 1.495 . S
C4042 C4041 1.392 . S
C4042 C4043 1.385 . S
C4042 C4044 1.478 . S
C4043 H4037 0.930 . S
C4043 C4039 1.400 . S
C4043 C4042 1.385 . S
C4044 C4042 1.478 . S
C4044 C4046 1.381 . S
C4044 C4050 1.383 . S
C4045 C4041 1.495 . S
C4045 H4051 0.959 . S
C4045 H4052 0.961 . S
C4045 H4053 0.960 . S
C4046 C4044 1.381 . S
C4046 C4047 1.394 . S
C4046 H4054 0.930 . S
C4047 C4046 1.394 . S
C4047 C4048 1.383 . S
C4047 H4055 0.929 . S
C4048 C4047 1.383 . S
C4048 C4049 1.377 . S
C4049 H4033 0.930 . S
C4049 C4048 1.377 . S
C4049 C4050 1.379 . S
C4050 H4034 0.931 . S
C4050 C4044 1.383 . S
C4050 C4049 1.379 . S
H4051 C4045 0.959 . S
H4052 C4045 0.961 . S
H4053 C4045 0.960 . S
H4054 C4046 0.930 . S
H4055 C4047 0.929 . S
H4056 C4064 0.929 . S
H4057 C4066 0.930 . S
H4058 C4068 0.930 . S
H4059 C4071 0.929 . S
H4060 C4074 0.930 . S
H4061 C4076 0.960 . S
H4062 C4076 0.960 . S
H4063 C4076 0.960 . S
C4064 H4056 0.929 . S
C4064 C4065 1.377 . S
C4064 C4066 1.384 . S
C4065 C4064 1.377 . S
C4065 C4071 1.390 . S
C4066 H4057 0.930 . S
C4066 C4064 1.384 . S
C4066 C4067 1.372 . S
C4067 C4066 1.372 . S
C4067 C4068 1.400 . S
C4067 C4072 1.490 . S
C4068 H4058 0.930 . S
C4068 C4067 1.400 . S
C4068 C4071 1.386 . S
H4069 C4085 0.930 . S
H4070 C4086 0.931 . S
C4071 H4059 0.929 . S
C4071 C4065 1.390 . S
C4071 C4068 1.386 . S
C4072 C4067 1.490 . S
C4072 C4074 1.395 . S
C4072 C4075 1.403 . S
H4073 C4079 0.930 . S
C4074 H4060 0.930 . S
C4074 C4072 1.395 . S
C4074 C4077 1.403 . S
C4075 C4072 1.403 . S
C4075 C4076 1.524 . S
C4075 C4079 1.400 . S
C4076 H4061 0.960 . S
C4076 H4062 0.960 . S
C4076 H4063 0.960 . S
C4076 C4075 1.524 . S
C4077 C4074 1.403 . S
C4077 C4078 1.392 . S
C4077 C4081 1.495 . S
C4078 C4077 1.392 . S
C4078 C4079 1.385 . S
C4078 C4080 1.478 . S
C4079 H4073 0.930 . S
C4079 C4075 1.400 . S
C4079 C4078 1.385 . S
C4080 C4078 1.478 . S
C4080 C4082 1.381 . S
C4080 C4086 1.383 . S
C4081 C4077 1.495 . S
C4081 H4087 0.959 . S
C4081 H4088 0.961 . S
C4081 H4089 0.960 . S
C4082 C4080 1.381 . S
C4082 C4083 1.394 . S
C4082 H4090 0.930 . S
C4083 C4082 1.394 . S
C4083 C4084 1.383 . S
C4083 H4091 0.929 . S
C4084 C4083 1.383 . S
C4084 C4085 1.377 . S
C4085 H4069 0.930 . S
C4085 C4084 1.377 . S
C4085 C4086 1.379 . S
C4086 H4070 0.931 . S
C4086 C4080 1.383 . S
C4086 C4085 1.379 . S
H4087 C4081 0.959 . S
H4088 C4081 0.961 . S
H4089 C4081 0.960 . S
H4090 C4082 0.930 . S
H4091 C4083 0.929 . S
H4092 C4100 0.929 . S
H4093 C4102 0.930 . S
H4094 C4104 0.936 . S
H4095 C4107 0.929 1_556 S
H4096 C4110 0.930 . S
H4097 C4112 0.960 . S
H4098 C4112 0.960 . S
H4099 C4112 0.960 . S
C4100 H4092 0.929 . S
C4100 C4101 1.377 . S
C4100 C4102 1.384 . S
C4101 C4100 1.377 . S
C4101 C4107 1.390 . S
C4102 H4093 0.930 . S
C4102 C4100 1.384 . S
C4102 C4103 1.372 . S
C4103 C4102 1.372 . S
C4103 C4104 1.400 . S
C4103 C4108 1.490 . S
C4104 H4094 0.936 . S
C4104 C4103 1.400 . S
C4104 C4107 1.386 . S
H4105 C4121 0.930 . S
H4106 C4122 0.931 1_545 S
C4107 H4095 0.929 1_554 S
C4107 C4101 1.390 . S
C4107 C4104 1.386 . S
C4108 C4103 1.490 . S
C4108 C4110 1.395 . S
C4108 C4111 1.403 . S
H4109 C4115 0.930 . S
C4110 H4096 0.930 . S
C4110 C4108 1.395 . S
C4110 C4113 1.403 . S
C4111 C4108 1.403 . S
C4111 C4112 1.524 . S
C4111 C4115 1.400 . S
C4112 H4097 0.960 . S
C4112 H4098 0.960 . S
C4112 H4099 0.960 . S
C4112 C4111 1.524 . S
C4113 C4110 1.403 . S
C4113 C4114 1.392 . S
C4113 C4117 1.495 . S
C4114 C4113 1.392 . S
C4114 C4115 1.385 . S
C4114 C4116 1.478 . S
C4115 H4109 0.930 . S
C4115 C4111 1.400 . S
C4115 C4114 1.385 . S
C4116 C4114 1.478 . S
C4116 C4118 1.381 . S
C4116 C4122 1.383 . S
C4117 C4113 1.495 . S
C4117 H4123 0.959 1_554 S
C4117 H4124 0.961 1_554 S
C4117 H4125 0.960 . S
C4118 C4116 1.381 . S
C4118 C4119 1.394 . S
C4118 H4126 0.930 . S
C4119 C4118 1.394 . S
C4119 C4120 1.383 1_565 S
C4119 H4127 0.929 . S
C4120 C4119 1.383 1_545 S
C4120 C4121 1.377 . S
C4121 H4105 0.930 . S
C4121 C4120 1.377 . S
C4121 C4122 1.379 1_545 S
C4122 H4106 0.931 1_565 S
C4122 C4116 1.383 . S
C4122 C4121 1.379 1_565 S
H4123 C4117 0.959 1_556 S
H4124 C4117 0.961 1_556 S
H4125 C4117 0.960 . S
H4126 C4118 0.930 . S
H4127 C4119 0.929 . S
H4128 C4136 0.929 . S
H4129 C4138 0.930 . S
H4130 C4140 0.930 . S
H4131 C4143 0.929 . S
H4132 C4146 0.930 . S
H4133 C4148 0.960 . S
H4134 C4148 0.960 . S
H4135 C4148 0.960 . S
C4136 H4128 0.929 . S
C4136 C4137 1.377 . S
C4136 C4138 1.384 . S
C4137 C4136 1.377 . S
C4137 C4143 1.390 . S
C4138 H4129 0.930 . S
C4138 C4136 1.384 . S
C4138 C4139 1.372 . S
C4139 C4138 1.372 . S
C4139 C4140 1.400 . S
C4139 C4144 1.490 . S
C4140 H4130 0.930 . S
C4140 C4139 1.400 . S
C4140 C4143 1.386 . S
H4141 C4157 0.930 . S
H4142 C4158 0.931 . S
C4143 H4131 0.929 . S
C4143 C4137 1.390 . S
C4143 C4140 1.386 . S
C4144 C4139 1.490 . S
C4144 C4146 1.395 . S
C4144 C4147 1.403 . S
H4145 C4151 0.930 . S
C4146 H4132 0.930 . S
C4146 C4144 1.395 . S
C4146 C4149 1.403 . S
C4147 C4144 1.403 . S
C4147 C4148 1.524 . S
C4147 C4151 1.400 . S
C4148 H4133 0.960 . S
C4148 H4134 0.960 . S
C4148 H4135 0.960 . S
C4148 C4147 1.524 . S
C4149 C4146 1.403 . S
C4149 C4150 1.392 . S
C4149 C4153 1.495 . S
C4150 C4149 1.392 . S
C4150 C4151 1.385 . S
C4150 C4152 1.478 . S
C4151 H4145 0.930 . S
C4151 C4147 1.400 . S
C4151 C4150 1.385 . S
C4152 C4150 1.478 . S
C4152 C4154 1.381 . S
C4152 C4158 1.383 . S
C4153 C4149 1.495 . S
C4153 H4159 0.959 . S
C4153 H4160 0.961 . S
C4153 H4161 0.960 . S
C4154 C4152 1.381 . S
C4154 C4155 1.394 . S
C4154 H4162 0.930 . S
C4155 C4154 1.394 . S
C4155 C4156 1.383 . S
C4155 H4163 0.929 . S
C4156 C4155 1.383 . S
C4156 C4157 1.377 . S
C4157 H4141 0.930 . S
C4157 C4156 1.377 . S
C4157 C4158 1.379 . S
C4158 H4142 0.931 . S
C4158 C4152 1.383 . S
C4158 C4157 1.379 . S
H4159 C4153 0.959 . S
H4160 C4153 0.961 . S
H4161 C4153 0.960 . S
H4162 C4154 0.930 . S
H4163 C4155 0.929 . S
H4164 C4172 0.929 . S
H4165 C4174 0.930 . S
H4166 C4176 0.930 . S
H4167 C4179 0.929 . S
H4168 C4182 0.930 . S
H4169 C4184 0.960 . S
H4170 C4184 0.960 . S
H4171 C4184 0.960 . S
C4172 H4164 0.929 . S
C4172 C4173 1.377 . S
C4172 C4174 1.384 . S
C4173 C4172 1.377 . S
C4173 C4179 1.390 . S
C4174 H4165 0.930 . S
C4174 C4172 1.384 . S
C4174 C4175 1.372 . S
C4175 C4174 1.372 . S
C4175 C4176 1.400 . S
C4175 C4180 1.490 . S
C4176 H4166 0.930 . S
C4176 C4175 1.400 . S
C4176 C4179 1.386 . S
H4177 C4193 0.930 . S
H4178 C4194 0.931 . S
C4179 H4167 0.929 . S
C4179 C4173 1.390 . S
C4179 C4176 1.386 . S
C4180 C4175 1.490 . S
C4180 C4182 1.395 . S
C4180 C4183 1.403 . S
H4181 C4187 0.930 . S
C4182 H4168 0.930 . S
C4182 C4180 1.395 . S
C4182 C4185 1.403 . S
C4183 C4180 1.403 . S
C4183 C4184 1.524 . S
C4183 C4187 1.400 . S
C4184 H4169 0.960 . S
C4184 H4170 0.960 . S
C4184 H4171 0.960 . S
C4184 C4183 1.524 . S
C4185 C4182 1.403 . S
C4185 C4186 1.392 . S
C4185 C4189 1.495 . S
C4186 C4185 1.392 . S
C4186 C4187 1.385 . S
C4186 C4188 1.478 . S
C4187 H4181 0.930 . S
C4187 C4183 1.400 . S
C4187 C4186 1.385 . S
C4188 C4186 1.478 . S
C4188 C4190 1.381 . S
C4188 C4194 1.383 . S
C4189 C4185 1.495 . S
C4189 H4195 0.959 . S
C4189 H4196 0.961 . S
C4189 H4197 0.960 . S
C4190 C4188 1.381 . S
C4190 C4191 1.394 . S
C4190 H4198 0.930 . S
C4191 C4190 1.394 . S
C4191 C4192 1.383 . S
C4191 H4199 0.929 . S
C4192 C4191 1.383 . S
C4192 C4193 1.377 . S
C4193 H4177 0.930 . S
C4193 C4192 1.377 . S
C4193 C4194 1.379 . S
C4194 H4178 0.931 . S
C4194 C4188 1.383 . S
C4194 C4193 1.379 . S
H4195 C4189 0.959 . S
H4196 C4189 0.961 . S
H4197 C4189 0.960 . S
H4198 C4190 0.930 . S
H4199 C4191 0.929 . S
H4200 C4208 0.929 . S
H4201 C4210 0.930 . S
H4202 C4212 0.930 . S
H4203 C4215 0.929 . S
H4204 C4218 0.930 . S
H4205 C4220 0.960 . S
H4206 C4220 0.960 . S
H4207 C4220 0.960 . S
C4208 H4200 0.929 . S
C4208 C4209 1.377 . S
C4208 C4210 1.384 . S
C4209 C4208 1.377 . S
C4209 C4215 1.390 . S
C4210 H4201 0.930 . S
C4210 C4208 1.384 . S
C4210 C4211 1.372 . S
C4211 C4210 1.372 . S
C4211 C4212 1.400 . S
C4211 C4216 1.490 . S
C4212 H4202 0.930 . S
C4212 C4211 1.400 . S
C4212 C4215 1.386 . S
H4213 C4229 0.930 . S
H4214 C4230 0.931 . S
C4215 H4203 0.929 . S
C4215 C4209 1.390 . S
C4215 C4212 1.386 . S
C4216 C4211 1.490 . S
C4216 C4218 1.395 . S
C4216 C4219 1.403 . S
H4217 C4223 0.930 . S
C4218 H4204 0.930 . S
C4218 C4216 1.395 . S
C4218 C4221 1.403 . S
C4219 C4216 1.403 . S
C4219 C4220 1.524 . S
C4219 C4223 1.400 . S
C4220 H4205 0.960 . S
C4220 H4206 0.960 . S
C4220 H4207 0.960 . S
C4220 C4219 1.524 . S
C4221 C4218 1.403 . S
C4221 C4222 1.392 . S
C4221 C4225 1.495 . S
C4222 C4221 1.392 . S
C4222 C4223 1.385 . S
C4222 C4224 1.478 . S
C4223 H4217 0.930 . S
C4223 C4219 1.400 . S
C4223 C4222 1.385 . S
C4224 C4222 1.478 . S
C4224 C4226 1.381 . S
C4224 C4230 1.383 . S
C4225 C4221 1.495 . S
C4225 H4231 0.959 . S
C4225 H4232 0.961 . S
C4225 H4233 0.960 . S
C4226 C4224 1.381 . S
C4226 C4227 1.394 . S
C4226 H4234 0.930 . S
C4227 C4226 1.394 . S
C4227 C4228 1.383 . S
C4227 H4235 0.929 . S
C4228 C4227 1.383 . S
C4228 C4229 1.377 . S
C4229 H4213 0.930 . S
C4229 C4228 1.377 . S
C4229 C4230 1.379 . S
C4230 H4214 0.931 . S
C4230 C4224 1.383 . S
C4230 C4229 1.379 . S
H4231 C4225 0.959 . S
H4232 C4225 0.961 . S
H4233 C4225 0.960 . S
H4234 C4226 0.930 . S
H4235 C4227 0.929 . S
H4236 C4244 0.929 . S
H4237 C4246 0.930 . S
H4238 C4248 0.930 . S
H4239 C4251 0.929 . S
H4240 C4254 0.930 . S
H4241 C4256 0.960 . S
H4242 C4256 0.960 . S
H4243 C4256 0.960 . S
C4244 H4236 0.929 . S
C4244 C4245 1.377 . S
C4244 C4246 1.384 . S
C4245 C4244 1.377 . S
C4245 C4251 1.390 . S
C4246 H4237 0.930 . S
C4246 C4244 1.384 . S
C4246 C4247 1.372 . S
C4247 C4246 1.372 . S
C4247 C4248 1.400 . S
C4247 C4252 1.490 . S
C4248 H4238 0.930 . S
C4248 C4247 1.400 . S
C4248 C4251 1.386 . S
H4249 C4265 0.930 . S
H4250 C4266 0.931 . S
C4251 H4239 0.929 . S
C4251 C4245 1.390 . S
C4251 C4248 1.386 . S
C4252 C4247 1.490 . S
C4252 C4254 1.395 . S
C4252 C4255 1.403 . S
H4253 C4259 0.930 . S
C4254 H4240 0.930 . S
C4254 C4252 1.395 . S
C4254 C4257 1.403 . S
C4255 C4252 1.403 . S
C4255 C4256 1.524 . S
C4255 C4259 1.400 . S
C4256 H4241 0.960 . S
C4256 H4242 0.960 . S
C4256 H4243 0.960 . S
C4256 C4255 1.524 . S
C4257 C4254 1.403 . S
C4257 C4258 1.392 . S
C4257 C4261 1.495 . S
C4258 C4257 1.392 . S
C4258 C4259 1.385 . S
C4258 C4260 1.478 . S
C4259 H4253 0.930 . S
C4259 C4255 1.400 . S
C4259 C4258 1.385 . S
C4260 C4258 1.478 . S
C4260 C4262 1.381 . S
C4260 C4266 1.383 . S
C4261 C4257 1.495 . S
C4261 H4267 0.959 . S
C4261 H4268 0.961 . S
C4261 H4269 0.960 . S
C4262 C4260 1.381 . S
C4262 C4263 1.394 . S
C4262 H4270 0.930 . S
C4263 C4262 1.394 . S
C4263 C4264 1.383 . S
C4263 H4271 0.929 . S
C4264 C4263 1.383 . S
C4264 C4265 1.377 . S
C4265 H4249 0.930 . S
C4265 C4264 1.377 . S
C4265 C4266 1.379 . S
C4266 H4250 0.931 . S
C4266 C4260 1.383 . S
C4266 C4265 1.379 . S
H4267 C4261 0.959 . S
H4268 C4261 0.961 . S
H4269 C4261 0.960 . S
H4270 C4262 0.930 . S
H4271 C4263 0.929 . S
H4272 C4280 0.929 . S
H4273 C4282 0.930 . S
H4274 C4284 0.930 . S
H4275 C4287 0.929 . S
H4276 C4290 0.930 . S
H4277 C4292 0.960 . S
H4278 C4292 0.960 . S
H4279 C4292 0.960 . S
C4280 H4272 0.929 . S
C4280 C4281 1.377 . S
C4280 C4282 1.384 . S
C4281 C4280 1.377 . S
C4281 C4287 1.390 . S
C4282 H4273 0.930 . S
C4282 C4280 1.384 . S
C4282 C4283 1.372 . S
C4283 C4282 1.372 . S
C4283 C4284 1.400 . S
C4283 C4288 1.490 . S
C4284 H4274 0.930 . S
C4284 C4283 1.400 . S
C4284 C4287 1.386 . S
H4285 C4301 0.930 . S
H4286 C4302 0.931 . S
C4287 H4275 0.929 . S
C4287 C4281 1.390 . S
C4287 C4284 1.386 . S
C4288 C4283 1.490 . S
C4288 C4290 1.395 . S
C4288 C4291 1.403 . S
H4289 C4295 0.930 . S
C4290 H4276 0.930 . S
C4290 C4288 1.395 . S
C4290 C4293 1.403 . S
C4291 C4288 1.403 . S
C4291 C4292 1.524 . S
C4291 C4295 1.400 . S
C4292 H4277 0.960 . S
C4292 H4278 0.960 . S
C4292 H4279 0.960 . S
C4292 C4291 1.524 . S
C4293 C4290 1.403 . S
C4293 C4294 1.392 . S
C4293 C4297 1.495 . S
C4294 C4293 1.392 . S
C4294 C4295 1.385 . S
C4294 C4296 1.478 . S
C4295 H4289 0.930 . S
C4295 C4291 1.400 . S
C4295 C4294 1.385 . S
C4296 C4294 1.478 . S
C4296 C4298 1.381 . S
C4296 C4302 1.383 . S
C4297 C4293 1.495 . S
C4297 H4303 0.959 . S
C4297 H4304 0.961 . S
C4297 H4305 0.960 . S
C4298 C4296 1.381 . S
C4298 C4299 1.394 . S
C4298 H4306 0.930 . S
C4299 C4298 1.394 . S
C4299 C4300 1.383 . S
C4299 H4307 0.929 . S
C4300 C4299 1.383 . S
C4300 C4301 1.377 . S
C4301 H4285 0.930 . S
C4301 C4300 1.377 . S
C4301 C4302 1.379 . S
C4302 H4286 0.931 . S
C4302 C4296 1.383 . S
C4302 C4301 1.379 . S
H4303 C4297 0.959 . S
H4304 C4297 0.961 . S
H4305 C4297 0.960 . S
H4306 C4298 0.930 . S
H4307 C4299 0.929 . S
H4308 C4316 0.929 . S
H4309 C4318 0.930 . S
H4310 C4320 0.930 . S
H4311 C4323 0.929 . S
H4312 C4326 0.930 . S
H4313 C4328 0.960 . S
H4314 C4328 0.960 . S
H4315 C4328 0.960 . S
C4316 H4308 0.929 . S
C4316 C4317 1.377 . S
C4316 C4318 1.384 . S
C4317 C4316 1.377 . S
C4317 C4323 1.390 . S
C4318 H4309 0.930 . S
C4318 C4316 1.384 . S
C4318 C4319 1.372 . S
C4319 C4318 1.372 . S
C4319 C4320 1.400 . S
C4319 C4324 1.490 . S
C4320 H4310 0.930 . S
C4320 C4319 1.400 . S
C4320 C4323 1.386 . S
H4321 C4337 0.930 . S
H4322 C4338 0.931 . S
C4323 H4311 0.929 . S
C4323 C4317 1.390 . S
C4323 C4320 1.386 . S
C4324 C4319 1.490 . S
C4324 C4326 1.395 . S
C4324 C4327 1.403 . S
H4325 C4331 0.930 . S
C4326 H4312 0.930 . S
C4326 C4324 1.395 . S
C4326 C4329 1.403 . S
C4327 C4324 1.403 . S
C4327 C4328 1.524 . S
C4327 C4331 1.400 . S
C4328 H4313 0.960 . S
C4328 H4314 0.960 . S
C4328 H4315 0.960 . S
C4328 C4327 1.524 . S
C4329 C4326 1.403 . S
C4329 C4330 1.392 . S
C4329 C4333 1.495 . S
C4330 C4329 1.392 . S
C4330 C4331 1.385 . S
C4330 C4332 1.478 . S
C4331 H4325 0.930 . S
C4331 C4327 1.400 . S
C4331 C4330 1.385 . S
C4332 C4330 1.478 . S
C4332 C4334 1.381 . S
C4332 C4338 1.383 . S
C4333 C4329 1.495 . S
C4333 H4339 0.959 . S
C4333 H4340 0.961 . S
C4333 H4341 0.960 . S
C4334 C4332 1.381 . S
C4334 C4335 1.394 . S
C4334 H4342 0.930 . S
C4335 C4334 1.394 . S
C4335 C4336 1.383 . S
C4335 H4343 0.929 . S
C4336 C4335 1.383 . S
C4336 C4337 1.377 . S
C4337 H4321 0.930 . S
C4337 C4336 1.377 . S
C4337 C4338 1.379 . S
C4338 H4322 0.931 . S
C4338 C4332 1.383 . S
C4338 C4337 1.379 . S
H4339 C4333 0.959 . S
H4340 C4333 0.961 . S
H4341 C4333 0.960 . S
H4342 C4334 0.930 . S
H4343 C4335 0.929 . S
H4344 C4352 0.929 . S
H4345 C4354 0.930 . S
H4346 C4356 0.930 . S
H4347 C4359 0.929 . S
H4348 C4362 0.930 . S
H4349 C4364 0.960 . S
H4350 C4364 0.960 . S
H4351 C4364 0.960 . S
C4352 H4344 0.929 . S
C4352 C4353 1.377 . S
C4352 C4354 1.384 . S
C4353 C4352 1.377 . S
C4353 C4359 1.390 . S
C4354 H4345 0.930 . S
C4354 C4352 1.384 . S
C4354 C4355 1.372 . S
C4355 C4354 1.372 . S
C4355 C4356 1.400 . S
C4355 C4360 1.490 . S
C4356 H4346 0.930 . S
C4356 C4355 1.400 . S
C4356 C4359 1.386 . S
H4357 C4373 0.930 . S
H4358 C4374 0.931 . S
C4359 H4347 0.929 . S
C4359 C4353 1.390 . S
C4359 C4356 1.386 . S
C4360 C4355 1.490 . S
C4360 C4362 1.395 . S
C4360 C4363 1.403 . S
H4361 C4367 0.930 . S
C4362 H4348 0.930 . S
C4362 C4360 1.395 . S
C4362 C4365 1.403 . S
C4363 C4360 1.403 . S
C4363 C4364 1.524 . S
C4363 C4367 1.400 . S
C4364 H4349 0.960 . S
C4364 H4350 0.960 . S
C4364 H4351 0.960 . S
C4364 C4363 1.524 . S
C4365 C4362 1.403 . S
C4365 C4366 1.392 . S
C4365 C4369 1.495 . S
C4366 C4365 1.392 . S
C4366 C4367 1.385 . S
C4366 C4368 1.478 . S
C4367 H4361 0.930 . S
C4367 C4363 1.400 . S
C4367 C4366 1.385 . S
C4368 C4366 1.478 . S
C4368 C4370 1.381 . S
C4368 C4374 1.383 . S
C4369 C4365 1.495 . S
C4369 H4375 0.959 . S
C4369 H4376 0.961 . S
C4369 H4377 0.960 . S
C4370 C4368 1.381 . S
C4370 C4371 1.394 . S
C4370 H4378 0.930 . S
C4371 C4370 1.394 . S
C4371 C4372 1.383 . S
C4371 H4379 0.929 . S
C4372 C4371 1.383 . S
C4372 C4373 1.377 . S
C4373 H4357 0.930 . S
C4373 C4372 1.377 . S
C4373 C4374 1.379 . S
C4374 H4358 0.931 . S
C4374 C4368 1.383 . S
C4374 C4373 1.379 . S
H4375 C4369 0.959 . S
H4376 C4369 0.961 . S
H4377 C4369 0.960 . S
H4378 C4370 0.930 . S
H4379 C4371 0.929 . S
H4380 C4388 0.929 . S
H4381 C4390 0.930 . S
H4382 C4392 0.930 . S
H4383 C4395 0.929 . S
H4384 C4398 0.930 . S
H4385 C4400 0.960 . S
H4386 C4400 0.960 . S
H4387 C4400 0.960 . S
C4388 H4380 0.929 . S
C4388 C4389 1.377 . S
C4388 C4390 1.384 . S
C4389 C4388 1.377 . S
C4389 C4395 1.390 . S
C4390 H4381 0.930 . S
C4390 C4388 1.384 . S
C4390 C4391 1.372 . S
C4391 C4390 1.372 . S
C4391 C4392 1.400 . S
C4391 C4396 1.490 . S
C4392 H4382 0.930 . S
C4392 C4391 1.400 . S
C4392 C4395 1.386 . S
H4393 C4409 0.930 . S
H4394 C4410 0.931 . S
C4395 H4383 0.929 . S
C4395 C4389 1.390 . S
C4395 C4392 1.386 . S
C4396 C4391 1.490 . S
C4396 C4398 1.395 . S
C4396 C4399 1.403 . S
H4397 C4403 0.930 . S
C4398 H4384 0.930 . S
C4398 C4396 1.395 . S
C4398 C4401 1.403 . S
C4399 C4396 1.403 . S
C4399 C4400 1.524 . S
C4399 C4403 1.400 . S
C4400 H4385 0.960 . S
C4400 H4386 0.960 . S
C4400 H4387 0.960 . S
C4400 C4399 1.524 . S
C4401 C4398 1.403 . S
C4401 C4402 1.392 . S
C4401 C4405 1.495 . S
C4402 C4401 1.392 . S
C4402 C4403 1.385 . S
C4402 C4404 1.478 . S
C4403 H4397 0.930 . S
C4403 C4399 1.400 . S
C4403 C4402 1.385 . S
C4404 C4402 1.478 . S
C4404 C4406 1.381 . S
C4404 C4410 1.383 . S
C4405 C4401 1.495 . S
C4405 H4411 0.959 . S
C4405 H4412 0.961 . S
C4405 H4413 0.960 . S
C4406 C4404 1.381 . S
C4406 C4407 1.394 . S
C4406 H4414 0.930 . S
C4407 C4406 1.394 . S
C4407 C4408 1.383 . S
C4407 H4415 0.929 . S
C4408 C4407 1.383 . S
C4408 C4409 1.377 . S
C4409 H4393 0.930 . S
C4409 C4408 1.377 . S
C4409 C4410 1.379 . S
C4410 H4394 0.931 . S
C4410 C4404 1.383 . S
C4410 C4409 1.379 . S
H4411 C4405 0.959 . S
H4412 C4405 0.961 . S
H4413 C4405 0.960 . S
H4414 C4406 0.930 . S
H4415 C4407 0.929 . S
H4416 C4424 0.929 . S
H4417 C4426 0.930 . S
H4418 C4428 0.930 . S
H4419 C4431 0.929 . S
H4420 C4434 0.930 . S
H4421 C4436 0.960 . S
H4422 C4436 0.960 . S
H4423 C4436 0.960 . S
C4424 H4416 0.929 . S
C4424 C4425 1.377 . S
C4424 C4426 1.384 . S
C4425 C4424 1.377 . S
C4425 C4431 1.390 . S
C4426 H4417 0.930 . S
C4426 C4424 1.384 . S
C4426 C4427 1.372 . S
C4427 C4426 1.372 . S
C4427 C4428 1.400 . S
C4427 C4432 1.490 . S
C4428 H4418 0.930 . S
C4428 C4427 1.400 . S
C4428 C4431 1.386 . S
H4429 C4445 0.930 . S
H4430 C4446 0.931 . S
C4431 H4419 0.929 . S
C4431 C4425 1.390 . S
C4431 C4428 1.386 . S
C4432 C4427 1.490 . S
C4432 C4434 1.395 . S
C4432 C4435 1.403 . S
H4433 C4439 0.930 . S
C4434 H4420 0.930 . S
C4434 C4432 1.395 . S
C4434 C4437 1.403 . S
C4435 C4432 1.403 . S
C4435 C4436 1.524 . S
C4435 C4439 1.400 . S
C4436 H4421 0.960 . S
C4436 H4422 0.960 . S
C4436 H4423 0.960 . S
C4436 C4435 1.524 . S
C4437 C4434 1.403 . S
C4437 C4438 1.392 . S
C4437 C4441 1.495 . S
C4438 C4437 1.392 . S
C4438 C4439 1.385 . S
C4438 C4440 1.478 . S
C4439 H4433 0.930 . S
C4439 C4435 1.400 . S
C4439 C4438 1.385 . S
C4440 C4438 1.478 . S
C4440 C4442 1.381 . S
C4440 C4446 1.383 . S
C4441 C4437 1.495 . S
C4441 H4447 0.959 . S
C4441 H4448 0.961 . S
C4441 H4449 0.960 . S
C4442 C4440 1.381 . S
C4442 C4443 1.394 . S
C4442 H4450 0.930 . S
C4443 C4442 1.394 . S
C4443 C4444 1.383 . S
C4443 H4451 0.929 . S
C4444 C4443 1.383 . S
C4444 C4445 1.377 . S
C4445 H4429 0.930 . S
C4445 C4444 1.377 . S
C4445 C4446 1.379 . S
C4446 H4430 0.931 . S
C4446 C4440 1.383 . S
C4446 C4445 1.379 . S
H4447 C4441 0.959 . S
H4448 C4441 0.961 . S
H4449 C4441 0.960 . S
H4450 C4442 0.930 . S
H4451 C4443 0.929 . S
H4452 C4460 0.929 . S
H4453 C4462 0.930 . S
H4454 C4464 0.930 . S
H4455 C4467 0.929 . S
H4456 C4470 0.930 . S
H4457 C4472 0.960 . S
H4458 C4472 0.960 . S
H4459 C4472 0.960 . S
C4460 H4452 0.929 . S
C4460 C4461 1.377 . S
C4460 C4462 1.384 . S
C4461 C4460 1.377 . S
C4461 C4467 1.390 . S
C4462 H4453 0.930 . S
C4462 C4460 1.384 . S
C4462 C4463 1.372 . S
C4463 C4462 1.372 . S
C4463 C4464 1.400 . S
C4463 C4468 1.490 . S
C4464 H4454 0.930 . S
C4464 C4463 1.400 . S
C4464 C4467 1.386 . S
H4465 C4481 0.930 . S
H4466 C4482 0.931 . S
C4467 H4455 0.929 . S
C4467 C4461 1.390 . S
C4467 C4464 1.386 . S
C4468 C4463 1.490 . S
C4468 C4470 1.395 . S
C4468 C4471 1.403 . S
H4469 C4475 0.930 . S
C4470 H4456 0.930 . S
C4470 C4468 1.395 . S
C4470 C4473 1.403 . S
C4471 C4468 1.403 . S
C4471 C4472 1.524 . S
C4471 C4475 1.400 . S
C4472 H4457 0.960 . S
C4472 H4458 0.960 . S
C4472 H4459 0.960 . S
C4472 C4471 1.524 . S
C4473 C4470 1.403 . S
C4473 C4474 1.392 . S
C4473 C4477 1.495 . S
C4474 C4473 1.392 . S
C4474 C4475 1.385 . S
C4474 C4476 1.478 . S
C4475 H4469 0.930 . S
C4475 C4471 1.400 . S
C4475 C4474 1.385 . S
C4476 C4474 1.478 . S
C4476 C4478 1.381 . S
C4476 C4482 1.383 . S
C4477 C4473 1.495 . S
C4477 H4483 0.959 . S
C4477 H4484 0.961 . S
C4477 H4485 0.960 . S
C4478 C4476 1.381 . S
C4478 C4479 1.394 . S
C4478 H4486 0.930 . S
C4479 C4478 1.394 . S
C4479 C4480 1.383 . S
C4479 H4487 0.929 . S
C4480 C4479 1.383 . S
C4480 C4481 1.377 . S
C4481 H4465 0.930 . S
C4481 C4480 1.377 . S
C4481 C4482 1.379 . S
C4482 H4466 0.931 . S
C4482 C4476 1.383 . S
C4482 C4481 1.379 . S
H4483 C4477 0.959 . S
H4484 C4477 0.961 . S
H4485 C4477 0.960 . S
H4486 C4478 0.930 . S
H4487 C4479 0.929 . S
H4488 C4496 0.929 . S
H4489 C4498 0.930 . S
H4490 C4500 0.930 . S
H4491 C4503 0.929 . S
H4492 C4506 0.930 . S
H4493 C4508 0.960 . S
H4494 C4508 0.960 . S
H4495 C4508 0.960 . S
C4496 H4488 0.929 . S
C4496 C4497 1.377 . S
C4496 C4498 1.384 . S
C4497 C4496 1.377 . S
C4497 C4503 1.390 . S
C4498 H4489 0.930 . S
C4498 C4496 1.384 . S
C4498 C4499 1.372 . S
C4499 C4498 1.372 . S
C4499 C4500 1.400 . S
C4499 C4504 1.490 . S
C4500 H4490 0.930 . S
C4500 C4499 1.400 . S
C4500 C4503 1.386 . S
H4501 C4517 0.930 . S
H4502 C4518 0.931 . S
C4503 H4491 0.929 . S
C4503 C4497 1.390 . S
C4503 C4500 1.386 . S
C4504 C4499 1.490 . S
C4504 C4506 1.395 . S
C4504 C4507 1.403 . S
H4505 C4511 0.930 . S
C4506 H4492 0.930 . S
C4506 C4504 1.395 . S
C4506 C4509 1.403 . S
C4507 C4504 1.403 . S
C4507 C4508 1.524 . S
C4507 C4511 1.400 . S
C4508 H4493 0.960 . S
C4508 H4494 0.960 . S
C4508 H4495 0.960 . S
C4508 C4507 1.524 . S
C4509 C4506 1.403 . S
C4509 C4510 1.392 . S
C4509 C4513 1.495 1_455 S
C4510 C4509 1.392 . S
C4510 C4511 1.385 . S
C4510 C4512 1.478 . S
C4511 H4505 0.930 . S
C4511 C4507 1.400 . S
C4511 C4510 1.385 . S
C4512 C4510 1.478 . S
C4512 C4514 1.381 . S
C4512 C4518 1.383 . S
C4513 C4509 1.495 1_655 S
C4513 H4519 0.959 . S
C4513 H4520 0.950 1_655 S
C4513 H4521 0.960 . S
C4514 C4512 1.381 . S
C4514 C4515 1.394 . S
C4514 H4522 0.930 . S
C4515 C4514 1.394 . S
C4515 C4516 1.383 . S
C4515 H4523 0.929 . S
C4516 C4515 1.383 . S
C4516 C4517 1.377 . S
C4517 H4501 0.930 . S
C4517 C4516 1.377 . S
C4517 C4518 1.379 . S
C4518 H4502 0.931 . S
C4518 C4512 1.383 . S
C4518 C4517 1.379 . S
H4519 C4513 0.959 . S
H4520 C4513 0.950 1_455 S
H4521 C4513 0.960 . S
H4522 C4514 0.930 . S
H4523 C4515 0.929 . S
H4524 C4532 0.929 . S
H4525 C4534 0.930 . S
H4526 C4536 0.930 . S
H4527 C4539 0.929 . S
H4528 C4542 0.930 . S
H4529 C4544 0.960 . S
H4530 C4544 0.960 . S
H4531 C4544 0.960 . S
C4532 H4524 0.929 . S
C4532 C4533 1.377 . S
C4532 C4534 1.384 . S
C4533 C4532 1.377 . S
C4533 C4539 1.390 . S
C4534 H4525 0.930 . S
C4534 C4532 1.384 . S
C4534 C4535 1.372 . S
C4535 C4534 1.372 . S
C4535 C4536 1.400 . S
C4535 C4540 1.490 . S
C4536 H4526 0.930 . S
C4536 C4535 1.400 . S
C4536 C4539 1.386 . S
H4537 C4553 0.930 . S
H4538 C4554 0.931 . S
C4539 H4527 0.929 . S
C4539 C4533 1.390 . S
C4539 C4536 1.386 . S
C4540 C4535 1.490 . S
C4540 C4542 1.395 . S
C4540 C4543 1.403 . S
H4541 C4547 0.930 . S
C4542 H4528 0.930 . S
C4542 C4540 1.395 . S
C4542 C4545 1.403 . S
C4543 C4540 1.403 . S
C4543 C4544 1.524 . S
C4543 C4547 1.400 . S
C4544 H4529 0.960 . S
C4544 H4530 0.960 . S
C4544 H4531 0.960 . S
C4544 C4543 1.524 . S
C4545 C4542 1.403 . S
C4545 C4546 1.392 . S
C4545 C4549 1.495 . S
C4546 C4545 1.392 . S
C4546 C4547 1.385 . S
C4546 C4548 1.478 . S
C4547 H4541 0.930 . S
C4547 C4543 1.400 . S
C4547 C4546 1.385 . S
C4548 C4546 1.478 . S
C4548 C4550 1.381 . S
C4548 C4554 1.383 . S
C4549 C4545 1.495 . S
C4549 H4555 0.959 . S
C4549 H4556 0.961 . S
C4549 H4557 0.960 . S
C4550 C4548 1.381 . S
C4550 C4551 1.394 . S
C4550 H4558 0.930 . S
C4551 C4550 1.394 . S
C4551 C4552 1.383 . S
C4551 H4559 0.929 . S
C4552 C4551 1.383 . S
C4552 C4553 1.377 . S
C4553 H4537 0.930 . S
C4553 C4552 1.377 . S
C4553 C4554 1.379 . S
C4554 H4538 0.931 . S
C4554 C4548 1.383 . S
C4554 C4553 1.379 . S
H4555 C4549 0.959 . S
H4556 C4549 0.961 . S
H4557 C4549 0.960 . S
H4558 C4550 0.930 . S
H4559 C4551 0.929 . S
H4560 C4568 0.929 . S
H4561 C4570 0.930 . S
H4562 C4572 0.930 . S
H4563 C4575 0.929 . S
H4564 C4578 0.930 . S
H4565 C4580 0.960 . S
H4566 C4580 0.960 . S
H4567 C4580 0.960 . S
C4568 H4560 0.929 . S
C4568 C4569 1.377 . S
C4568 C4570 1.384 . S
C4569 C4568 1.377 . S
C4569 C4575 1.390 . S
C4570 H4561 0.930 . S
C4570 C4568 1.384 . S
C4570 C4571 1.372 . S
C4571 C4570 1.372 . S
C4571 C4572 1.400 . S
C4571 C4576 1.490 . S
C4572 H4562 0.930 . S
C4572 C4571 1.400 . S
C4572 C4575 1.386 . S
H4573 C4589 0.930 . S
H4574 C4590 0.931 . S
C4575 H4563 0.929 . S
C4575 C4569 1.390 . S
C4575 C4572 1.386 . S
C4576 C4571 1.490 . S
C4576 C4578 1.395 . S
C4576 C4579 1.403 . S
H4577 C4583 0.930 . S
C4578 H4564 0.930 . S
C4578 C4576 1.395 . S
C4578 C4581 1.403 . S
C4579 C4576 1.403 . S
C4579 C4580 1.524 . S
C4579 C4583 1.400 . S
C4580 H4565 0.960 . S
C4580 H4566 0.960 . S
C4580 H4567 0.960 . S
C4580 C4579 1.524 . S
C4581 C4578 1.403 . S
C4581 C4582 1.392 . S
C4581 C4585 1.495 . S
C4582 C4581 1.392 . S
C4582 C4583 1.385 . S
C4582 C4584 1.478 . S
C4583 H4577 0.930 . S
C4583 C4579 1.400 . S
C4583 C4582 1.385 . S
C4584 C4582 1.478 . S
C4584 C4586 1.381 . S
C4584 C4590 1.383 . S
C4585 C4581 1.495 . S
C4585 H4591 0.959 . S
C4585 H4592 0.961 . S
C4585 H4593 0.960 . S
C4586 C4584 1.381 . S
C4586 C4587 1.394 . S
C4586 H4594 0.930 . S
C4587 C4586 1.394 . S
C4587 C4588 1.383 . S
C4587 H4595 0.929 . S
C4588 C4587 1.383 . S
C4588 C4589 1.377 . S
C4589 H4573 0.930 . S
C4589 C4588 1.377 . S
C4589 C4590 1.379 . S
C4590 H4574 0.931 . S
C4590 C4584 1.383 . S
C4590 C4589 1.379 . S
H4591 C4585 0.959 . S
H4592 C4585 0.961 . S
H4593 C4585 0.960 . S
H4594 C4586 0.930 . S
H4595 C4587 0.929 . S
H4596 C4604 0.929 . S
H4597 C4606 0.930 . S
H4598 C4608 0.930 . S
H4599 C4611 0.929 . S
H4600 C4614 0.930 . S
H4601 C4616 0.960 . S
H4602 C4616 0.960 . S
H4603 C4616 0.960 . S
C4604 H4596 0.929 . S
C4604 C4605 1.377 . S
C4604 C4606 1.384 . S
C4605 C4604 1.377 . S
C4605 C4611 1.390 . S
C4606 H4597 0.930 . S
C4606 C4604 1.384 . S
C4606 C4607 1.372 . S
C4607 C4606 1.372 . S
C4607 C4608 1.400 . S
C4607 C4612 1.490 . S
C4608 H4598 0.930 . S
C4608 C4607 1.400 . S
C4608 C4611 1.386 . S
H4609 C4625 0.930 . S
H4610 C4626 0.931 . S
C4611 H4599 0.929 . S
C4611 C4605 1.390 . S
C4611 C4608 1.386 . S
C4612 C4607 1.490 . S
C4612 C4614 1.395 . S
C4612 C4615 1.403 . S
H4613 C4619 0.930 . S
C4614 H4600 0.930 . S
C4614 C4612 1.395 . S
C4614 C4617 1.403 . S
C4615 C4612 1.403 . S
C4615 C4616 1.524 . S
C4615 C4619 1.400 . S
C4616 H4601 0.960 . S
C4616 H4602 0.960 . S
C4616 H4603 0.960 . S
C4616 C4615 1.524 . S
C4617 C4614 1.403 . S
C4617 C4618 1.392 . S
C4617 C4621 1.495 . S
C4618 C4617 1.392 . S
C4618 C4619 1.385 . S
C4618 C4620 1.478 . S
C4619 H4613 0.930 . S
C4619 C4615 1.400 . S
C4619 C4618 1.385 . S
C4620 C4618 1.478 . S
C4620 C4622 1.381 . S
C4620 C4626 1.383 . S
C4621 C4617 1.495 . S
C4621 H4627 0.959 . S
C4621 H4628 0.961 . S
C4621 H4629 0.960 . S
C4622 C4620 1.381 . S
C4622 C4623 1.394 . S
C4622 H4630 0.930 . S
C4623 C4622 1.394 . S
C4623 C4624 1.383 . S
C4623 H4631 0.929 . S
C4624 C4623 1.383 . S
C4624 C4625 1.377 . S
C4625 H4609 0.930 . S
C4625 C4624 1.377 . S
C4625 C4626 1.379 . S
C4626 H4610 0.931 . S
C4626 C4620 1.383 . S
C4626 C4625 1.379 . S
H4627 C4621 0.959 . S
H4628 C4621 0.961 . S
H4629 C4621 0.960 . S
H4630 C4622 0.930 . S
H4631 C4623 0.929 . S
H4632 C4640 0.929 . S
H4633 C4642 0.930 . S
H4634 C4644 0.930 . S
H4635 C4647 0.929 . S
H4636 C4650 0.930 . S
H4637 C4652 0.960 . S
H4638 C4652 0.960 . S
H4639 C4652 0.960 . S
C4640 H4632 0.929 . S
C4640 C4641 1.377 . S
C4640 C4642 1.384 . S
C4641 C4640 1.377 . S
C4641 C4647 1.390 . S
C4642 H4633 0.930 . S
C4642 C4640 1.384 . S
C4642 C4643 1.372 . S
C4643 C4642 1.372 . S
C4643 C4644 1.400 . S
C4643 C4648 1.490 . S
C4644 H4634 0.930 . S
C4644 C4643 1.400 . S
C4644 C4647 1.386 . S
H4645 C4661 0.931 . S
H4646 C4662 0.931 . S
C4647 H4635 0.929 . S
C4647 C4641 1.390 . S
C4647 C4644 1.386 . S
C4648 C4643 1.490 . S
C4648 C4650 1.395 . S
C4648 C4651 1.403 . S
H4649 C4655 0.930 . S
C4650 H4636 0.930 . S
C4650 C4648 1.395 . S
C4650 C4653 1.403 . S
C4651 C4648 1.403 . S
C4651 C4652 1.524 . S
C4651 C4655 1.400 . S
C4652 H4637 0.960 . S
C4652 H4638 0.960 . S
C4652 H4639 0.960 . S
C4652 C4651 1.524 . S
C4653 C4650 1.403 . S
C4653 C4654 1.392 . S
C4653 C4657 1.495 . S
C4654 C4653 1.392 . S
C4654 C4655 1.385 . S
C4654 C4656 1.478 . S
C4655 H4649 0.930 . S
C4655 C4651 1.400 . S
C4655 C4654 1.385 . S
C4656 C4654 1.478 . S
C4656 C4658 1.381 . S
C4656 C4662 1.383 . S
C4657 C4653 1.495 . S
C4657 H4663 0.959 . S
C4657 H4664 0.961 . S
C4657 H4665 0.960 . S
C4658 C4656 1.381 . S
C4658 C4659 1.394 1_556 S
C4658 H4666 0.930 . S
C4659 C4658 1.394 1_554 S
C4659 C4660 1.383 . S
C4659 H4667 0.929 . S
C4660 C4659 1.383 . S
C4660 C4661 1.377 1_654 S
C4661 H4645 0.931 . S
C4661 C4660 1.377 1_456 S
C4661 C4662 1.382 1_455 S
C4662 H4646 0.931 . S
C4662 C4656 1.383 . S
C4662 C4661 1.382 1_655 S
H4663 C4657 0.959 . S
H4664 C4657 0.961 . S
H4665 C4657 0.960 . S
H4666 C4658 0.930 . S
H4667 C4659 0.929 . S
H4668 C4676 0.929 . S
H4669 C4678 0.930 . S
H4670 C4680 0.930 . S
H4671 C4683 0.929 . S
H4672 C4686 0.930 . S
H4673 C4688 0.960 . S
H4674 C4688 0.960 . S
H4675 C4688 0.960 . S
C4676 H4668 0.929 . S
C4676 C4677 1.377 . S
C4676 C4678 1.384 . S
C4677 C4676 1.377 . S
C4677 C4683 1.390 . S
C4678 H4669 0.930 . S
C4678 C4676 1.384 . S
C4678 C4679 1.372 . S
C4679 C4678 1.372 . S
C4679 C4680 1.400 . S
C4679 C4684 1.490 . S
C4680 H4670 0.930 . S
C4680 C4679 1.400 . S
C4680 C4683 1.386 . S
H4681 C4697 0.930 . S
H4682 C4698 0.931 . S
C4683 H4671 0.929 . S
C4683 C4677 1.390 . S
C4683 C4680 1.386 . S
C4684 C4679 1.490 . S
C4684 C4686 1.395 . S
C4684 C4687 1.403 . S
H4685 C4691 0.930 . S
C4686 H4672 0.930 . S
C4686 C4684 1.395 . S
C4686 C4689 1.403 . S
C4687 C4684 1.403 . S
C4687 C4688 1.524 . S
C4687 C4691 1.400 . S
C4688 H4673 0.960 . S
C4688 H4674 0.960 . S
C4688 H4675 0.960 . S
C4688 C4687 1.524 . S
C4689 C4686 1.403 . S
C4689 C4690 1.392 . S
C4689 C4693 1.495 . S
C4690 C4689 1.392 . S
C4690 C4691 1.385 . S
C4690 C4692 1.478 . S
C4691 H4685 0.930 . S
C4691 C4687 1.400 . S
C4691 C4690 1.385 . S
C4692 C4690 1.478 . S
C4692 C4694 1.381 . S
C4692 C4698 1.383 . S
C4693 C4689 1.495 . S
C4693 H4699 0.959 . S
C4693 H4700 0.961 . S
C4693 H4701 0.960 . S
C4694 C4692 1.381 . S
C4694 C4695 1.394 . S
C4694 H4702 0.930 . S
C4695 C4694 1.394 . S
C4695 C4696 1.383 . S
C4695 H4703 0.929 . S
C4696 C4695 1.383 . S
C4696 C4697 1.377 . S
C4697 H4681 0.930 . S
C4697 C4696 1.377 . S
C4697 C4698 1.379 . S
C4698 H4682 0.931 . S
C4698 C4692 1.383 . S
C4698 C4697 1.379 . S
H4699 C4693 0.959 . S
H4700 C4693 0.961 . S
H4701 C4693 0.960 . S
H4702 C4694 0.930 . S
H4703 C4695 0.929 . S
H4704 C4712 0.929 . S
H4705 C4714 0.930 . S
H4706 C4716 0.930 . S
H4707 C4719 0.929 . S
H4708 C4722 0.930 . S
H4709 C4724 0.960 . S
H4710 C4724 0.960 . S
H4711 C4724 0.960 . S
C4712 H4704 0.929 . S
C4712 C4713 1.377 . S
C4712 C4714 1.384 . S
C4713 C4712 1.377 . S
C4713 C4719 1.390 . S
C4714 H4705 0.930 . S
C4714 C4712 1.384 . S
C4714 C4715 1.372 . S
C4715 C4714 1.372 . S
C4715 C4716 1.400 . S
C4715 C4720 1.490 . S
C4716 H4706 0.930 . S
C4716 C4715 1.400 . S
C4716 C4719 1.386 . S
H4717 C4733 0.930 . S
H4718 C4734 0.931 . S
C4719 H4707 0.929 . S
C4719 C4713 1.390 . S
C4719 C4716 1.386 . S
C4720 C4715 1.490 . S
C4720 C4722 1.395 . S
C4720 C4723 1.403 . S
H4721 C4727 0.930 . S
C4722 H4708 0.930 . S
C4722 C4720 1.395 . S
C4722 C4725 1.403 . S
C4723 C4720 1.403 . S
C4723 C4724 1.524 . S
C4723 C4727 1.400 . S
C4724 H4709 0.960 . S
C4724 H4710 0.960 . S
C4724 H4711 0.960 . S
C4724 C4723 1.524 . S
C4725 C4722 1.403 . S
C4725 C4726 1.392 . S
C4725 C4729 1.495 . S
C4726 C4725 1.392 . S
C4726 C4727 1.385 . S
C4726 C4728 1.478 . S
C4727 H4721 0.930 . S
C4727 C4723 1.400 . S
C4727 C4726 1.385 . S
C4728 C4726 1.478 . S
C4728 C4730 1.381 . S
C4728 C4734 1.383 . S
C4729 C4725 1.495 . S
C4729 H4735 0.959 . S
C4729 H4736 0.961 . S
C4729 H4737 0.960 . S
C4730 C4728 1.381 . S
C4730 C4731 1.394 . S
C4730 H4738 0.930 . S
C4731 C4730 1.394 . S
C4731 C4732 1.383 . S
C4731 H4739 0.929 . S
C4732 C4731 1.383 . S
C4732 C4733 1.377 . S
C4733 H4717 0.930 . S
C4733 C4732 1.377 . S
C4733 C4734 1.379 . S
C4734 H4718 0.931 . S
C4734 C4728 1.383 . S
C4734 C4733 1.379 . S
H4735 C4729 0.959 . S
H4736 C4729 0.961 . S
H4737 C4729 0.960 . S
H4738 C4730 0.930 . S
H4739 C4731 0.929 . S
H4740 C4748 0.929 . S
H4741 C4750 0.930 . S
H4742 C4752 0.930 . S
H4743 C4755 0.929 . S
H4744 C4758 0.930 . S
H4745 C4760 0.960 . S
H4746 C4760 0.960 . S
H4747 C4760 0.960 . S
C4748 H4740 0.929 . S
C4748 C4749 1.377 . S
C4748 C4750 1.384 . S
C4749 C4748 1.377 . S
C4749 C4755 1.390 . S
C4750 H4741 0.930 . S
C4750 C4748 1.384 . S
C4750 C4751 1.372 . S
C4751 C4750 1.372 . S
C4751 C4752 1.400 . S
C4751 C4756 1.490 . S
C4752 H4742 0.930 . S
C4752 C4751 1.400 . S
C4752 C4755 1.386 . S
H4753 C4769 0.930 . S
H4754 C4770 0.931 . S
C4755 H4743 0.929 . S
C4755 C4749 1.390 . S
C4755 C4752 1.386 . S
C4756 C4751 1.490 . S
C4756 C4758 1.395 . S
C4756 C4759 1.403 . S
H4757 C4763 0.930 . S
C4758 H4744 0.930 . S
C4758 C4756 1.395 . S
C4758 C4761 1.403 . S
C4759 C4756 1.403 . S
C4759 C4760 1.524 . S
C4759 C4763 1.400 . S
C4760 H4745 0.960 . S
C4760 H4746 0.960 . S
C4760 H4747 0.960 . S
C4760 C4759 1.524 . S
C4761 C4758 1.403 . S
C4761 C4762 1.392 . S
C4761 C4765 1.495 . S
C4762 C4761 1.392 . S
C4762 C4763 1.385 . S
C4762 C4764 1.478 . S
C4763 H4757 0.930 . S
C4763 C4759 1.400 . S
C4763 C4762 1.385 . S
C4764 C4762 1.478 . S
C4764 C4766 1.381 . S
C4764 C4770 1.383 . S
C4765 C4761 1.495 . S
C4765 H4771 0.959 . S
C4765 H4772 0.961 . S
C4765 H4773 0.960 . S
C4766 C4764 1.381 . S
C4766 C4767 1.394 . S
C4766 H4774 0.930 . S
C4767 C4766 1.394 . S
C4767 C4768 1.383 . S
C4767 H4775 0.929 . S
C4768 C4767 1.383 . S
C4768 C4769 1.377 . S
C4769 H4753 0.930 . S
C4769 C4768 1.377 . S
C4769 C4770 1.379 . S
C4770 H4754 0.931 . S
C4770 C4764 1.383 . S
C4770 C4769 1.379 . S
H4771 C4765 0.959 . S
H4772 C4765 0.961 . S
H4773 C4765 0.960 . S
H4774 C4766 0.930 . S
H4775 C4767 0.929 . S
H4776 C4784 0.929 . S
H4777 C4786 0.930 . S
H4778 C4788 0.930 . S
H4779 C4791 0.929 . S
H4780 C4794 0.930 . S
H4781 C4796 0.960 . S
H4782 C4796 0.960 . S
H4783 C4796 0.960 . S
C4784 H4776 0.929 . S
C4784 C4785 1.377 . S
C4784 C4786 1.384 . S
C4785 C4784 1.377 . S
C4785 C4791 1.390 . S
C4786 H4777 0.930 . S
C4786 C4784 1.384 . S
C4786 C4787 1.372 . S
C4787 C4786 1.372 . S
C4787 C4788 1.400 . S
C4787 C4792 1.490 . S
C4788 H4778 0.930 . S
C4788 C4787 1.400 . S
C4788 C4791 1.386 . S
H4789 C4805 0.930 . S
H4790 C4806 0.931 . S
C4791 H4779 0.929 . S
C4791 C4785 1.390 . S
C4791 C4788 1.386 . S
C4792 C4787 1.490 . S
C4792 C4794 1.395 . S
C4792 C4795 1.403 . S
H4793 C4799 0.930 . S
C4794 H4780 0.930 . S
C4794 C4792 1.395 . S
C4794 C4797 1.403 . S
C4795 C4792 1.403 . S
C4795 C4796 1.524 . S
C4795 C4799 1.400 . S
C4796 H4781 0.960 . S
C4796 H4782 0.960 . S
C4796 H4783 0.960 . S
C4796 C4795 1.524 . S
C4797 C4794 1.403 . S
C4797 C4798 1.392 . S
C4797 C4801 1.495 . S
C4798 C4797 1.392 . S
C4798 C4799 1.385 . S
C4798 C4800 1.478 . S
C4799 H4793 0.930 . S
C4799 C4795 1.400 . S
C4799 C4798 1.385 . S
C4800 C4798 1.478 . S
C4800 C4802 1.381 . S
C4800 C4806 1.383 . S
C4801 C4797 1.495 . S
C4801 H4807 0.959 . S
C4801 H4808 0.961 . S
C4801 H4809 0.960 . S
C4802 C4800 1.381 . S
C4802 C4803 1.394 . S
C4802 H4810 0.930 . S
C4803 C4802 1.394 . S
C4803 C4804 1.383 . S
C4803 H4811 0.929 . S
C4804 C4803 1.383 . S
C4804 C4805 1.377 . S
C4805 H4789 0.930 . S
C4805 C4804 1.377 . S
C4805 C4806 1.379 . S
C4806 H4790 0.931 . S
C4806 C4800 1.383 . S
C4806 C4805 1.379 . S
H4807 C4801 0.959 . S
H4808 C4801 0.961 . S
H4809 C4801 0.960 . S
H4810 C4802 0.930 . S
H4811 C4803 0.929 . S
H4812 C4820 0.929 . S
H4813 C4822 0.930 . S
H4814 C4824 0.930 . S
H4815 C4827 0.929 . S
H4816 C4830 0.930 . S
H4817 C4832 0.960 . S
H4818 C4832 0.960 . S
H4819 C4832 0.960 . S
C4820 H4812 0.929 . S
C4820 C4821 1.377 . S
C4820 C4822 1.384 . S
C4821 C4820 1.377 . S
C4821 C4827 1.390 . S
C4822 H4813 0.930 . S
C4822 C4820 1.384 . S
C4822 C4823 1.372 . S
C4823 C4822 1.372 . S
C4823 C4824 1.400 . S
C4823 C4828 1.490 . S
C4824 H4814 0.930 . S
C4824 C4823 1.400 . S
C4824 C4827 1.386 . S
H4825 C4841 0.930 . S
H4826 C4842 0.931 . S
C4827 H4815 0.929 . S
C4827 C4821 1.390 . S
C4827 C4824 1.386 . S
C4828 C4823 1.490 . S
C4828 C4830 1.395 . S
C4828 C4831 1.403 . S
H4829 C4835 0.930 . S
C4830 H4816 0.930 . S
C4830 C4828 1.395 . S
C4830 C4833 1.403 . S
C4831 C4828 1.403 . S
C4831 C4832 1.524 . S
C4831 C4835 1.400 . S
C4832 H4817 0.960 . S
C4832 H4818 0.960 . S
C4832 H4819 0.960 . S
C4832 C4831 1.524 . S
C4833 C4830 1.403 . S
C4833 C4834 1.392 . S
C4833 C4837 1.495 . S
C4834 C4833 1.392 . S
C4834 C4835 1.385 . S
C4834 C4836 1.478 . S
C4835 H4829 0.930 . S
C4835 C4831 1.400 . S
C4835 C4834 1.385 . S
C4836 C4834 1.478 . S
C4836 C4838 1.381 . S
C4836 C4842 1.383 . S
C4837 C4833 1.495 . S
C4837 H4843 0.959 . S
C4837 H4844 0.961 . S
C4837 H4845 0.960 . S
C4838 C4836 1.381 . S
C4838 C4839 1.394 . S
C4838 H4846 0.930 . S
C4839 C4838 1.394 . S
C4839 C4840 1.383 . S
C4839 H4847 0.929 . S
C4840 C4839 1.383 . S
C4840 C4841 1.377 . S
C4841 H4825 0.930 . S
C4841 C4840 1.377 . S
C4841 C4842 1.379 . S
C4842 H4826 0.931 . S
C4842 C4836 1.383 . S
C4842 C4841 1.379 . S
H4843 C4837 0.959 . S
H4844 C4837 0.961 . S
H4845 C4837 0.960 . S
H4846 C4838 0.930 . S
H4847 C4839 0.929 . S
H4848 C4856 0.929 . S
H4849 C4858 0.930 . S
H4850 C4860 0.930 . S
H4851 C4863 0.929 . S
H4852 C4866 0.930 . S
H4853 C4868 0.960 . S
H4854 C4868 0.960 . S
H4855 C4868 0.960 . S
C4856 H4848 0.929 . S
C4856 C4857 1.377 . S
C4856 C4858 1.384 . S
C4857 C4856 1.377 . S
C4857 C4863 1.390 . S
C4858 H4849 0.930 . S
C4858 C4856 1.384 . S
C4858 C4859 1.372 . S
C4859 C4858 1.372 . S
C4859 C4860 1.400 . S
C4859 C4864 1.490 . S
C4860 H4850 0.930 . S
C4860 C4859 1.400 . S
C4860 C4863 1.386 . S
H4861 C4877 0.930 . S
H4862 C4878 0.931 . S
C4863 H4851 0.929 . S
C4863 C4857 1.390 . S
C4863 C4860 1.386 . S
C4864 C4859 1.490 . S
C4864 C4866 1.395 . S
C4864 C4867 1.403 . S
H4865 C4871 0.930 . S
C4866 H4852 0.930 . S
C4866 C4864 1.395 . S
C4866 C4869 1.403 . S
C4867 C4864 1.403 . S
C4867 C4868 1.524 . S
C4867 C4871 1.400 . S
C4868 H4853 0.960 . S
C4868 H4854 0.960 . S
C4868 H4855 0.960 . S
C4868 C4867 1.524 . S
C4869 C4866 1.403 . S
C4869 C4870 1.392 . S
C4869 C4873 1.495 . S
C4870 C4869 1.392 . S
C4870 C4871 1.385 . S
C4870 C4872 1.478 . S
C4871 H4865 0.930 . S
C4871 C4867 1.400 . S
C4871 C4870 1.385 . S
C4872 C4870 1.478 . S
C4872 C4874 1.381 . S
C4872 C4878 1.383 . S
C4873 C4869 1.495 . S
C4873 H4879 0.959 . S
C4873 H4880 0.961 . S
C4873 H4881 0.960 . S
C4874 C4872 1.381 . S
C4874 C4875 1.394 . S
C4874 H4882 0.930 . S
C4875 C4874 1.394 . S
C4875 C4876 1.383 . S
C4875 H4883 0.929 . S
C4876 C4875 1.383 . S
C4876 C4877 1.377 . S
C4877 H4861 0.930 . S
C4877 C4876 1.377 . S
C4877 C4878 1.379 . S
C4878 H4862 0.931 . S
C4878 C4872 1.383 . S
C4878 C4877 1.379 . S
H4879 C4873 0.959 . S
H4880 C4873 0.961 . S
H4881 C4873 0.960 . S
H4882 C4874 0.930 . S
H4883 C4875 0.929 . S
H4884 C4892 0.929 . S
H4885 C4894 0.930 . S
H4886 C4896 0.930 . S
H4887 C4899 0.929 . S
H4888 C4902 0.930 . S
H4889 C4904 0.960 . S
H4890 C4904 0.960 . S
H4891 C4904 0.960 . S
C4892 H4884 0.929 . S
C4892 C4893 1.377 . S
C4892 C4894 1.384 . S
C4893 C4892 1.377 . S
C4893 C4899 1.390 . S
C4894 H4885 0.930 . S
C4894 C4892 1.384 . S
C4894 C4895 1.372 . S
C4895 C4894 1.372 . S
C4895 C4896 1.400 . S
C4895 C4900 1.490 . S
C4896 H4886 0.930 . S
C4896 C4895 1.400 . S
C4896 C4899 1.386 . S
H4897 C4913 0.867 1_545 S
H4898 C4914 0.931 . S
C4899 H4887 0.929 . S
C4899 C4893 1.390 . S
C4899 C4896 1.386 . S
C4900 C4895 1.490 . S
C4900 C4902 1.395 . S
C4900 C4903 1.403 . S
H4901 C4907 0.930 . S
C4902 H4888 0.930 . S
C4902 C4900 1.395 . S
C4902 C4905 1.403 . S
C4903 C4900 1.403 . S
C4903 C4904 1.524 . S
C4903 C4907 1.400 . S
C4904 H4889 0.960 . S
C4904 H4890 0.960 . S
C4904 H4891 0.960 . S
C4904 C4903 1.524 . S
C4905 C4902 1.403 . S
C4905 C4906 1.392 . S
C4905 C4909 1.495 . S
C4906 C4905 1.392 . S
C4906 C4907 1.385 . S
C4906 C4908 1.478 . S
C4907 H4901 0.930 . S
C4907 C4903 1.400 . S
C4907 C4906 1.385 . S
C4908 C4906 1.478 . S
C4908 C4910 1.381 . S
C4908 C4914 1.383 . S
C4909 C4905 1.495 . S
C4909 H4915 0.959 . S
C4909 H4916 0.961 . S
C4909 H4917 0.960 . S
C4910 C4908 1.381 . S
C4910 C4911 1.394 . S
C4910 H4918 0.930 . S
C4911 C4910 1.394 . S
C4911 C4912 1.383 . S
C4911 H4919 0.929 . S
C4912 C4911 1.383 . S
C4912 C4913 1.414 . S
C4913 H4897 0.867 1_565 S
C4913 C4912 1.414 . S
C4913 C4914 1.407 . S
C4914 H4898 0.931 . S
C4914 C4908 1.383 . S
C4914 C4913 1.407 . S
H4915 C4909 0.959 . S
H4916 C4909 0.961 . S
H4917 C4909 0.960 . S
H4918 C4910 0.930 . S
H4919 C4911 0.929 . S
H4920 C4928 0.929 . S
H4921 C4930 0.930 . S
H4922 C4932 0.930 . S
H4923 C4935 0.929 . S
H4924 C4938 0.930 . S
H4925 C4940 0.960 . S
H4926 C4940 0.960 . S
H4927 C4940 0.960 . S
C4928 H4920 0.929 . S
C4928 C4929 1.377 . S
C4928 C4930 1.384 . S
C4929 C4928 1.377 . S
C4929 C4935 1.390 . S
C4930 H4921 0.930 . S
C4930 C4928 1.384 . S
C4930 C4931 1.372 . S
C4931 C4930 1.372 . S
C4931 C4932 1.400 . S
C4931 C4936 1.490 . S
C4932 H4922 0.930 . S
C4932 C4931 1.400 . S
C4932 C4935 1.386 . S
H4933 C4949 0.930 . S
H4934 C4950 0.931 . S
C4935 H4923 0.929 . S
C4935 C4929 1.390 . S
C4935 C4932 1.386 . S
C4936 C4931 1.490 . S
C4936 C4938 1.395 . S
C4936 C4939 1.403 . S
H4937 C4943 0.930 . S
C4938 H4924 0.930 . S
C4938 C4936 1.395 . S
C4938 C4941 1.403 . S
C4939 C4936 1.403 . S
C4939 C4940 1.524 . S
C4939 C4943 1.400 . S
C4940 H4925 0.960 . S
C4940 H4926 0.960 . S
C4940 H4927 0.960 . S
C4940 C4939 1.524 . S
C4941 C4938 1.403 . S
C4941 C4942 1.392 . S
C4941 C4945 1.495 . S
C4942 C4941 1.392 . S
C4942 C4943 1.385 . S
C4942 C4944 1.478 . S
C4943 H4937 0.930 . S
C4943 C4939 1.400 . S
C4943 C4942 1.385 . S
C4944 C4942 1.478 . S
C4944 C4946 1.381 . S
C4944 C4950 1.383 . S
C4945 C4941 1.495 . S
C4945 H4951 0.959 . S
C4945 H4952 0.961 . S
C4945 H4953 0.960 . S
C4946 C4944 1.381 . S
C4946 C4947 1.394 . S
C4946 H4954 0.930 . S
C4947 C4946 1.394 . S
C4947 C4948 1.383 . S
C4947 H4955 0.929 . S
C4948 C4947 1.383 . S
C4948 C4949 1.377 . S
C4949 H4933 0.930 . S
C4949 C4948 1.377 . S
C4949 C4950 1.379 . S
C4950 H4934 0.931 . S
C4950 C4944 1.383 . S
C4950 C4949 1.379 . S
H4951 C4945 0.959 . S
H4952 C4945 0.961 . S
H4953 C4945 0.960 . S
H4954 C4946 0.930 . S
H4955 C4947 0.929 . S
H4956 C4964 0.929 . S
H4957 C4966 0.930 . S
H4958 C4968 0.930 . S
H4959 C4971 0.929 . S
H4960 C4974 0.930 . S
H4961 C4976 0.960 . S
H4962 C4976 0.960 . S
H4963 C4976 0.960 . S
C4964 H4956 0.929 . S
C4964 C4965 1.377 . S
C4964 C4966 1.384 . S
C4965 C4964 1.377 . S
C4965 C4971 1.390 . S
C4966 H4957 0.930 . S
C4966 C4964 1.384 . S
C4966 C4967 1.372 . S
C4967 C4966 1.372 . S
C4967 C4968 1.400 . S
C4967 C4972 1.490 . S
C4968 H4958 0.930 . S
C4968 C4967 1.400 . S
C4968 C4971 1.386 . S
H4969 C4985 0.930 . S
H4970 C4986 0.931 . S
C4971 H4959 0.929 . S
C4971 C4965 1.390 . S
C4971 C4968 1.386 . S
C4972 C4967 1.490 . S
C4972 C4974 1.395 . S
C4972 C4975 1.403 . S
H4973 C4979 0.930 . S
C4974 H4960 0.930 . S
C4974 C4972 1.395 . S
C4974 C4977 1.403 . S
C4975 C4972 1.403 . S
C4975 C4976 1.524 . S
C4975 C4979 1.400 . S
C4976 H4961 0.960 . S
C4976 H4962 0.960 . S
C4976 H4963 0.960 . S
C4976 C4975 1.524 . S
C4977 C4974 1.403 . S
C4977 C4978 1.392 . S
C4977 C4981 1.495 . S
C4978 C4977 1.392 . S
C4978 C4979 1.385 . S
C4978 C4980 1.478 . S
C4979 H4973 0.930 . S
C4979 C4975 1.400 . S
C4979 C4978 1.385 . S
C4980 C4978 1.478 . S
C4980 C4982 1.381 . S
C4980 C4986 1.383 . S
C4981 C4977 1.495 . S
C4981 H4987 0.959 . S
C4981 H4988 0.961 . S
C4981 H4989 0.960 . S
C4982 C4980 1.381 . S
C4982 C4983 1.394 . S
C4982 H4990 0.930 . S
C4983 C4982 1.394 . S
C4983 C4984 1.383 . S
C4983 H4991 0.929 . S
C4984 C4983 1.383 . S
C4984 C4985 1.377 . S
C4985 H4969 0.930 . S
C4985 C4984 1.377 . S
C4985 C4986 1.379 . S
C4986 H4970 0.931 . S
C4986 C4980 1.383 . S
C4986 C4985 1.379 . S
H4987 C4981 0.959 . S
H4988 C4981 0.961 . S
H4989 C4981 0.960 . S
H4990 C4982 0.930 . S
H4991 C4983 0.929 . S
H4992 C5000 0.929 . S
H4993 C5002 0.930 . S
H4994 C5004 0.930 . S
H4995 C5007 0.929 . S
H4996 C5010 0.930 . S
H4997 C5012 0.960 . S
H4998 C5012 0.960 . S
H4999 C5012 0.960 . S
C5000 H4992 0.929 . S
C5000 C5001 1.377 . S
C5000 C5002 1.384 . S
C5001 C5000 1.377 . S
C5001 C5007 1.390 . S
C5002 H4993 0.930 . S
C5002 C5000 1.384 . S
C5002 C5003 1.372 . S
C5003 C5002 1.372 . S
C5003 C5004 1.400 . S
C5003 C5008 1.490 . S
C5004 H4994 0.930 . S
C5004 C5003 1.400 . S
C5004 C5007 1.386 . S
H5005 C5021 0.930 . S
H5006 C5022 0.931 . S
C5007 H4995 0.929 . S
C5007 C5001 1.390 . S
C5007 C5004 1.386 . S
C5008 C5003 1.490 . S
C5008 C5010 1.395 . S
C5008 C5011 1.403 . S
H5009 C5015 0.930 . S
C5010 H4996 0.930 . S
C5010 C5008 1.395 . S
C5010 C5013 1.403 . S
C5011 C5008 1.403 . S
C5011 C5012 1.524 . S
C5011 C5015 1.400 . S
C5012 H4997 0.960 . S
C5012 H4998 0.960 . S
C5012 H4999 0.960 . S
C5012 C5011 1.524 . S
C5013 C5010 1.403 . S
C5013 C5014 1.392 . S
C5013 C5017 1.495 . S
C5014 C5013 1.392 . S
C5014 C5015 1.385 . S
C5014 C5016 1.478 . S
C5015 H5009 0.930 . S
C5015 C5011 1.400 . S
C5015 C5014 1.385 . S
C5016 C5014 1.478 . S
C5016 C5018 1.381 . S
C5016 C5022 1.383 . S
C5017 C5013 1.495 . S
C5017 H5023 0.959 . S
C5017 H5024 0.961 . S
C5017 H5025 0.960 . S
C5018 C5016 1.381 . S
C5018 C5019 1.394 . S
C5018 H5026 0.930 . S
C5019 C5018 1.394 . S
C5019 C5020 1.383 . S
C5019 H5027 0.929 . S
C5020 C5019 1.383 . S
C5020 C5021 1.377 . S
C5021 H5005 0.930 . S
C5021 C5020 1.377 . S
C5021 C5022 1.379 . S
C5022 H5006 0.931 . S
C5022 C5016 1.383 . S
C5022 C5021 1.379 . S
H5023 C5017 0.959 . S
H5024 C5017 0.961 . S
H5025 C5017 0.960 . S
H5026 C5018 0.930 . S
H5027 C5019 0.929 . S
H5028 C5036 0.929 . S
H5029 C5038 0.930 . S
H5030 C5040 0.930 . S
H5031 C5043 0.929 . S
H5032 C5046 0.930 . S
H5033 C5048 0.960 . S
H5034 C5048 0.960 . S
H5035 C5048 0.960 . S
C5036 H5028 0.929 . S
C5036 C5037 1.377 . S
C5036 C5038 1.384 . S
C5037 C5036 1.377 . S
C5037 C5043 1.390 . S
C5038 H5029 0.930 . S
C5038 C5036 1.384 . S
C5038 C5039 1.372 . S
C5039 C5038 1.372 . S
C5039 C5040 1.400 . S
C5039 C5044 1.490 . S
C5040 H5030 0.930 . S
C5040 C5039 1.400 . S
C5040 C5043 1.386 . S
H5041 C5057 0.930 . S
H5042 C5058 0.931 . S
C5043 H5031 0.929 . S
C5043 C5037 1.390 . S
C5043 C5040 1.386 . S
C5044 C5039 1.490 . S
C5044 C5046 1.395 . S
C5044 C5047 1.403 . S
H5045 C5051 0.930 . S
C5046 H5032 0.930 . S
C5046 C5044 1.395 . S
C5046 C5049 1.403 . S
C5047 C5044 1.403 . S
C5047 C5048 1.524 . S
C5047 C5051 1.400 . S
C5048 H5033 0.960 . S
C5048 H5034 0.960 . S
C5048 H5035 0.960 . S
C5048 C5047 1.524 . S
C5049 C5046 1.403 . S
C5049 C5050 1.392 . S
C5049 C5053 1.495 . S
C5050 C5049 1.392 . S
C5050 C5051 1.385 . S
C5050 C5052 1.478 . S
C5051 H5045 0.930 . S
C5051 C5047 1.400 . S
C5051 C5050 1.385 . S
C5052 C5050 1.478 . S
C5052 C5054 1.381 . S
C5052 C5058 1.383 . S
C5053 C5049 1.495 . S
C5053 H5059 0.959 . S
C5053 H5060 0.961 . S
C5053 H5061 0.960 . S
C5054 C5052 1.381 . S
C5054 C5055 1.394 . S
C5054 H5062 0.930 . S
C5055 C5054 1.394 . S
C5055 C5056 1.383 . S
C5055 H5063 0.929 . S
C5056 C5055 1.383 . S
C5056 C5057 1.377 . S
C5057 H5041 0.930 . S
C5057 C5056 1.377 . S
C5057 C5058 1.379 . S
C5058 H5042 0.931 . S
C5058 C5052 1.383 . S
C5058 C5057 1.379 . S
H5059 C5053 0.959 . S
H5060 C5053 0.961 . S
H5061 C5053 0.960 . S
H5062 C5054 0.930 . S
H5063 C5055 0.929 . S
H5064 C5072 0.929 . S
H5065 C5074 0.930 . S
H5066 C5076 0.930 . S
H5067 C5079 0.929 . S
H5068 C5082 0.930 . S
H5069 C5084 0.960 . S
H5070 C5084 0.960 . S
H5071 C5084 0.960 . S
C5072 H5064 0.929 . S
C5072 C5073 1.377 . S
C5072 C5074 1.384 . S
C5073 C5072 1.377 . S
C5073 C5079 1.390 . S
C5074 H5065 0.930 . S
C5074 C5072 1.384 . S
C5074 C5075 1.372 . S
C5075 C5074 1.372 . S
C5075 C5076 1.400 . S
C5075 C5080 1.490 . S
C5076 H5066 0.930 . S
C5076 C5075 1.400 . S
C5076 C5079 1.386 . S
H5077 C5093 0.930 . S
H5078 C5094 0.931 . S
C5079 H5067 0.929 . S
C5079 C5073 1.390 . S
C5079 C5076 1.386 . S
C5080 C5075 1.490 . S
C5080 C5082 1.395 . S
C5080 C5083 1.403 . S
H5081 C5087 0.930 . S
C5082 H5068 0.930 . S
C5082 C5080 1.395 . S
C5082 C5085 1.403 . S
C5083 C5080 1.403 . S
C5083 C5084 1.524 . S
C5083 C5087 1.400 . S
C5084 H5069 0.960 . S
C5084 H5070 0.960 . S
C5084 H5071 0.960 . S
C5084 C5083 1.524 . S
C5085 C5082 1.403 . S
C5085 C5086 1.392 . S
C5085 C5089 1.495 . S
C5086 C5085 1.392 . S
C5086 C5087 1.385 . S
C5086 C5088 1.478 . S
C5087 H5081 0.930 . S
C5087 C5083 1.400 . S
C5087 C5086 1.385 . S
C5088 C5086 1.478 . S
C5088 C5090 1.381 . S
C5088 C5094 1.383 . S
C5089 C5085 1.495 . S
C5089 H5095 0.959 . S
C5089 H5096 0.961 . S
C5089 H5097 0.960 . S
C5090 C5088 1.381 . S
C5090 C5091 1.394 . S
C5090 H5098 0.930 . S
C5091 C5090 1.394 . S
C5091 C5092 1.383 . S
C5091 H5099 0.929 . S
C5092 C5091 1.383 . S
C5092 C5093 1.377 . S
C5093 H5077 0.930 . S
C5093 C5092 1.377 . S
C5093 C5094 1.379 . S
C5094 H5078 0.931 . S
C5094 C5088 1.383 . S
C5094 C5093 1.379 . S
H5095 C5089 0.959 . S
H5096 C5089 0.961 . S
H5097 C5089 0.960 . S
H5098 C5090 0.930 . S
H5099 C5091 0.929 . S
H5100 C5108 0.929 . S
H5101 C5110 0.930 . S
H5102 C5112 0.930 . S
H5103 C5115 0.929 . S
H5104 C5118 0.930 . S
H5105 C5120 0.960 . S
H5106 C5120 0.960 . S
H5107 C5120 0.960 . S
C5108 H5100 0.929 . S
C5108 C5109 1.377 . S
C5108 C5110 1.384 . S
C5109 C5108 1.377 . S
C5109 C5115 1.390 . S
C5110 H5101 0.930 . S
C5110 C5108 1.384 . S
C5110 C5111 1.372 . S
C5111 C5110 1.372 . S
C5111 C5112 1.400 . S
C5111 C5116 1.490 . S
C5112 H5102 0.930 . S
C5112 C5111 1.400 . S
C5112 C5115 1.386 . S
H5113 C5129 0.930 . S
H5114 C5130 0.931 . S
C5115 H5103 0.929 . S
C5115 C5109 1.390 . S
C5115 C5112 1.386 . S
C5116 C5111 1.490 . S
C5116 C5118 1.395 . S
C5116 C5119 1.403 . S
H5117 C5123 0.930 . S
C5118 H5104 0.930 . S
C5118 C5116 1.395 . S
C5118 C5121 1.403 . S
C5119 C5116 1.403 . S
C5119 C5120 1.524 . S
C5119 C5123 1.400 . S
C5120 H5105 0.960 . S
C5120 H5106 0.960 . S
C5120 H5107 0.960 . S
C5120 C5119 1.524 . S
C5121 C5118 1.403 . S
C5121 C5122 1.392 . S
C5121 C5125 1.495 . S
C5122 C5121 1.392 . S
C5122 C5123 1.385 . S
C5122 C5124 1.478 . S
C5123 H5117 0.930 . S
C5123 C5119 1.400 . S
C5123 C5122 1.385 . S
C5124 C5122 1.478 . S
C5124 C5126 1.381 . S
C5124 C5130 1.383 . S
C5125 C5121 1.495 . S
C5125 H5131 0.959 . S
C5125 H5132 0.961 . S
C5125 H5133 0.960 . S
C5126 C5124 1.381 . S
C5126 C5127 1.394 . S
C5126 H5134 0.930 . S
C5127 C5126 1.394 . S
C5127 C5128 1.383 . S
C5127 H5135 0.929 . S
C5128 C5127 1.383 . S
C5128 C5129 1.377 . S
C5129 H5113 0.930 . S
C5129 C5128 1.377 . S
C5129 C5130 1.379 . S
C5130 H5114 0.931 . S
C5130 C5124 1.383 . S
C5130 C5129 1.379 . S
H5131 C5125 0.959 . S
H5132 C5125 0.961 . S
H5133 C5125 0.960 . S
H5134 C5126 0.930 . S
H5135 C5127 0.929 . S
C1689 C106 2.293 . S
C1708 C392 2.335 . S
C1725 C65 1.790 . S
C1744 C494 1.755 . S
C1761 C79 2.115 . S
C1780 C560 2.148 . S
C1816 C646 1.216 . S
C1797 C90 1.289 . S
C1833 C21 1.338 . S
C1852 C730 1.249 . S
C1888 C812 1.727 . S
C1869 C35 1.706 . S
C1924 C914 1.834 . S
C1905 C50 1.862 . S
C1941 C6 1.889 . S
C1960 C980 1.942 . S
C1996 C410 1.736 . S
C1977 C232 1.785 . S
C2013 C245 0.862 . S
C2032 C478 0.898 . S
C2068 C578 1.135 . S
C2049 C274 1.140 . S
C2104 C644 1.597 . S
C2085 C175 1.518 1_556 S
C2121 C231 1.395 . S
C2140 C728 1.419 . S
C2176 C830 1.024 . S
C2157 C246 1.038 . S
C2212 C898 0.819 . S
C2193 C273 0.765 . S
C2248 C998 1.671 . S
C2229 C176 1.691 . S
C2284 C394 0.895 . S
C2265 C160 0.914 . S
C2301 C289 1.662 . S
C2320 C1082 1.629 . S
C2356 C1150 1.318 . S
C2337 C328 1.342 . S
C2392 C1232 0.977 . S
C2373 C317 0.981 . S
C2409 C118 0.881 . S
C2428 C982 0.856 . S
C2445 C132 1.347 . S
C2464 C562 1.303 . S
C2481 C331 1.753 . S
C2500 C1334 1.716 . S
C2536 C1400 1.058 . S
C2517 C303 1.048 . S
C2572 C403 1.916 . S
C2553 C63 1.914 . S
C2608 C1407 2.229 . S
C2589 C107 2.212 . S
C2625 C92 1.973 . S
C2644 C571 2.010 . S
C2661 C78 1.937 . S
C2680 C1329 1.780 . S
C2716 C741 1.802 . S
C2697 C8 1.938 . S
C2733 C51 1.967 . S
C2752 C1159 2.000 . S
C2788 C903 2.246 . S
C2769 C37 2.213 . S
C2824 C1495 1.922 . S
C2805 C20 1.916 . S
C2860 C399 1.574 1_556 S
C2841 C147 1.604 . S
C2896 C1413 1.057 . S
C2877 C316 1.121 . S
C2913 C119 1.094 . S
C2932 C567 1.099 . S
C2949 C288 1.806 . S
C2968 C1327 1.818 . S
C2985 C148 1.805 . S
C3004 C739 1.812 . S
C3040 C1155 1.108 . S
C3021 C315 1.091 . S
C3057 C120 1.126 . S
C3076 C909 1.062 . S
C3093 C287 1.603 . S
C3112 C1491 1.580 . S
C3129 C188 0.780 . S
C3148 C405 0.750 . S
C3165 C177 2.027 . S
C3184 C1071 2.034 . S
C3201 C258 1.470 . S
C3220 C825 1.391 . S
C3237 C247 1.034 . S
C3256 C1243 1.043 . S
C3292 C1497 0.811 . S
C3273 C272 0.745 1_565 S
C3309 C216 1.217 . S
C3328 C573 1.187 . S
C3364 C651 2.026 . S
C3345 C261 2.024 . S
C3400 C487 1.055 . S
C3381 C205 1.041 . S
C3417 C76 1.889 . S
C3436 C1568 1.927 . S
C3472 C1418 1.828 . S
C3453 C93 1.862 . S
C3489 C105 1.710 1_455 S
C3508 C1652 1.727 . S
C3525 C62 1.337 1_655 S
C3544 C1318 1.259 . S
C3561 C49 1.285 . S
C3580 C1066 1.249 . S
C3616 C1148 2.145 . S
C3597 C9 2.115 1_655 S
C3652 C1250 1.754 . S
C3633 C22 1.789 . S
C3688 C1484 2.332 . S
C3669 C36 2.297 . S
C3724 C1586 1.643 . S
C3705 C260 1.689 . S
C3741 C189 0.769 1_556 S
C3760 C1402 0.747 . S
C3796 C1670 1.009 . S
C3777 C204 1.037 . S
C3832 C1316 1.419 . S
C3813 C217 1.396 . S
C3868 C1064 1.561 1_556 S
C3849 C259 1.571 . S
C3885 C190 1.139 . S
C3904 C1166 1.107 . S
C3940 C1234 0.895 . S
C3921 C203 0.868 . S
C3957 C218 1.785 . S
C3976 C1502 1.736 . S
C4012 C1570 0.890 . S
C3993 C314 0.874 . S
C4029 C135 1.751 . S
C4048 C746 1.717 . S
C4084 C814 1.265 . S
C4065 C146 1.288 . S
C4120 C896 1.057 . S
C4101 C163 1.050 . S
C4156 C1486 0.935 . S
C4137 C300 0.907 . S
C4173 C286 1.291 . S
C4192 C1654 1.270 . S
C4228 C662 1.633 . S
C4209 C149 1.663 . S
C4264 C476 0.980 . S
C4245 C121 0.978 . S
C4281 C91 1.901 . S
C4300 C1579 1.914 . S
C4336 C483 1.836 . S
C4317 C77 1.776 . S
C4353 C64 1.954 . S
C4372 C1663 1.992 . S
C4389 C104 1.552 . S
C4408 C657 1.481 . S
C4425 C34 1.548 . S
C4444 C1077 1.456 . S
C4480 C823 1.994 . S
C4461 C23 1.955 . S
C4497 C7 1.777 . S
C4516 C1239 1.835 . S
C4533 C48 1.900 . S
C4552 C991 1.906 . S
C4588 C1575 1.585 . S
C4569 C329 1.600 . S
C4605 C162 1.161 . S
C4624 C489 1.090 . S
C4660 C1659 1.105 1_655 S
C4641 C301 1.105 . S
C4677 C134 1.827 . S
C4696 C655 1.839 . S
C4713 C330 1.825 . S
C4732 C1075 1.834 . S
C4768 C819 1.116 . S
C4749 C161 1.110 . S
C4785 C302 1.161 . S
C4804 C1245 1.055 . S
C4840 C987 1.587 . S
C4821 C133 1.599 . S
C4876 C1581 0.972 . S
C4857 C244 0.993 . S
C4912 C735 1.959 1_565 S
C4893 C219 1.966 . S
C4929 C230 1.219 . S
C4948 C1161 1.177 . S
C4984 C907 0.999 . S
C4965 C191 0.995 . S
C5001 C202 0.998 . S
C5020 C993 0.965 . S
C5037 C174 1.466 . S
C5056 C1665 1.380 . S
C5092 C1323 1.969 . S
C5073 C233 1.968 . S
C5128 C1411 1.005 . S
C5109 C275 1.004 . S
