# Generated by pormake.
# Topology iac, (4,6)-cn, num edge types: 1
# Building blocks:
#     Node 0, Type 0, BuildingBlock: GALJAG_clean_sbu_0, # of connection points: 4
#     Node 1, Type 0, BuildingBlock: GALJAG_clean_sbu_0, # of connection points: 4
#     Node 2, Type 0, BuildingBlock: GALJAG_clean_sbu_0, # of connection points: 4
#     Node 3, Type 0, BuildingBlock: GALJAG_clean_sbu_0, # of connection points: 4
#     Node 4, Type 0, BuildingBlock: GALJAG_clean_sbu_0, # of connection points: 4
#     Node 5, Type 0, BuildingBlock: GALJAG_clean_sbu_0, # of connection points: 4
#     Node 6, Type 0, BuildingBlock: GALJAG_clean_sbu_0, # of connection points: 4
#     Node 7, Type 0, BuildingBlock: GALJAG_clean_sbu_0, # of connection points: 4
#     Node 8, Type 0, BuildingBlock: GALJAG_clean_sbu_0, # of connection points: 4
#     Node 9, Type 0, BuildingBlock: GALJAG_clean_sbu_0, # of connection points: 4
#     Node 10, Type 0, BuildingBlock: GALJAG_clean_sbu_0, # of connection points: 4
#     Node 11, Type 0, BuildingBlock: GALJAG_clean_sbu_0, # of connection points: 4
#     Node 12, Type 0, BuildingBlock: GALJAG_clean_sbu_0, # of connection points: 4
#     Node 13, Type 0, BuildingBlock: GALJAG_clean_sbu_0, # of connection points: 4
#     Node 14, Type 0, BuildingBlock: GALJAG_clean_sbu_0, # of connection points: 4
#     Node 15, Type 0, BuildingBlock: GALJAG_clean_sbu_0, # of connection points: 4
#     Node 16, Type 0, BuildingBlock: GALJAG_clean_sbu_0, # of connection points: 4
#     Node 17, Type 0, BuildingBlock: GALJAG_clean_sbu_0, # of connection points: 4
#     Node 18, Type 0, BuildingBlock: GALJAG_clean_sbu_0, # of connection points: 4
#     Node 19, Type 0, BuildingBlock: GALJAG_clean_sbu_0, # of connection points: 4
#     Node 20, Type 0, BuildingBlock: GALJAG_clean_sbu_0, # of connection points: 4
#     Node 21, Type 0, BuildingBlock: GALJAG_clean_sbu_0, # of connection points: 4
#     Node 22, Type 0, BuildingBlock: GALJAG_clean_sbu_0, # of connection points: 4
#     Node 23, Type 0, BuildingBlock: GALJAG_clean_sbu_0, # of connection points: 4
#     Node 24, Type 1, BuildingBlock: FUNLAD_clean_sbu_0, # of connection points: 6
#     Node 25, Type 1, BuildingBlock: FUNLAD_clean_sbu_0, # of connection points: 6
#     Node 26, Type 1, BuildingBlock: FUNLAD_clean_sbu_0, # of connection points: 6
#     Node 27, Type 1, BuildingBlock: FUNLAD_clean_sbu_0, # of connection points: 6
#     Node 28, Type 1, BuildingBlock: FUNLAD_clean_sbu_0, # of connection points: 6
#     Node 29, Type 1, BuildingBlock: FUNLAD_clean_sbu_0, # of connection points: 6
#     Node 30, Type 1, BuildingBlock: FUNLAD_clean_sbu_0, # of connection points: 6
#     Node 31, Type 1, BuildingBlock: FUNLAD_clean_sbu_0, # of connection points: 6
#     Node 32, Type 1, BuildingBlock: FUNLAD_clean_sbu_0, # of connection points: 6
#     Node 33, Type 1, BuildingBlock: FUNLAD_clean_sbu_0, # of connection points: 6
#     Node 34, Type 1, BuildingBlock: FUNLAD_clean_sbu_0, # of connection points: 6
#     Node 35, Type 1, BuildingBlock: FUNLAD_clean_sbu_0, # of connection points: 6
#     Node 36, Type 1, BuildingBlock: FUNLAD_clean_sbu_0, # of connection points: 6
#     Node 37, Type 1, BuildingBlock: FUNLAD_clean_sbu_0, # of connection points: 6
#     Node 38, Type 1, BuildingBlock: FUNLAD_clean_sbu_0, # of connection points: 6
#     Node 39, Type 1, BuildingBlock: FUNLAD_clean_sbu_0, # of connection points: 6
#     Edge 40, Type (0, 1), BuildingBlock: CIFDUS_clean_linker_0, # of connection points: 2
#     Edge 41, Type (0, 1), BuildingBlock: CIFDUS_clean_linker_0, # of connection points: 2
#     Edge 42, Type (0, 1), BuildingBlock: CIFDUS_clean_linker_0, # of connection points: 2
#     Edge 43, Type (0, 1), BuildingBlock: CIFDUS_clean_linker_0, # of connection points: 2
#     Edge 44, Type (0, 1), BuildingBlock: CIFDUS_clean_linker_0, # of connection points: 2
#     Edge 45, Type (0, 1), BuildingBlock: CIFDUS_clean_linker_0, # of connection points: 2
#     Edge 46, Type (0, 1), BuildingBlock: CIFDUS_clean_linker_0, # of connection points: 2
#     Edge 47, Type (0, 1), BuildingBlock: CIFDUS_clean_linker_0, # of connection points: 2
#     Edge 48, Type (0, 1), BuildingBlock: CIFDUS_clean_linker_0, # of connection points: 2
#     Edge 49, Type (0, 1), BuildingBlock: CIFDUS_clean_linker_0, # of connection points: 2
#     Edge 50, Type (0, 1), BuildingBlock: CIFDUS_clean_linker_0, # of connection points: 2
#     Edge 51, Type (0, 1), BuildingBlock: CIFDUS_clean_linker_0, # of connection points: 2
#     Edge 52, Type (0, 1), BuildingBlock: CIFDUS_clean_linker_0, # of connection points: 2
#     Edge 53, Type (0, 1), BuildingBlock: CIFDUS_clean_linker_0, # of connection points: 2
#     Edge 54, Type (0, 1), BuildingBlock: CIFDUS_clean_linker_0, # of connection points: 2
#     Edge 55, Type (0, 1), BuildingBlock: CIFDUS_clean_linker_0, # of connection points: 2
#     Edge 56, Type (0, 1), BuildingBlock: CIFDUS_clean_linker_0, # of connection points: 2
#     Edge 57, Type (0, 1), BuildingBlock: CIFDUS_clean_linker_0, # of connection points: 2
#     Edge 58, Type (0, 1), BuildingBlock: CIFDUS_clean_linker_0, # of connection points: 2
#     Edge 59, Type (0, 1), BuildingBlock: CIFDUS_clean_linker_0, # of connection points: 2
#     Edge 60, Type (0, 1), BuildingBlock: CIFDUS_clean_linker_0, # of connection points: 2
#     Edge 61, Type (0, 1), BuildingBlock: CIFDUS_clean_linker_0, # of connection points: 2
#     Edge 62, Type (0, 1), BuildingBlock: CIFDUS_clean_linker_0, # of connection points: 2
#     Edge 63, Type (0, 1), BuildingBlock: CIFDUS_clean_linker_0, # of connection points: 2
#     Edge 64, Type (0, 1), BuildingBlock: CIFDUS_clean_linker_0, # of connection points: 2
#     Edge 65, Type (0, 1), BuildingBlock: CIFDUS_clean_linker_0, # of connection points: 2
#     Edge 66, Type (0, 1), BuildingBlock: CIFDUS_clean_linker_0, # of connection points: 2
#     Edge 67, Type (0, 1), BuildingBlock: CIFDUS_clean_linker_0, # of connection points: 2
#     Edge 68, Type (0, 1), BuildingBlock: CIFDUS_clean_linker_0, # of connection points: 2
#     Edge 69, Type (0, 1), BuildingBlock: CIFDUS_clean_linker_0, # of connection points: 2
#     Edge 70, Type (0, 1), BuildingBlock: CIFDUS_clean_linker_0, # of connection points: 2
#     Edge 71, Type (0, 1), BuildingBlock: CIFDUS_clean_linker_0, # of connection points: 2
#     Edge 72, Type (0, 1), BuildingBlock: CIFDUS_clean_linker_0, # of connection points: 2
#     Edge 73, Type (0, 1), BuildingBlock: CIFDUS_clean_linker_0, # of connection points: 2
#     Edge 74, Type (0, 1), BuildingBlock: CIFDUS_clean_linker_0, # of connection points: 2
#     Edge 75, Type (0, 1), BuildingBlock: CIFDUS_clean_linker_0, # of connection points: 2
#     Edge 76, Type (0, 1), BuildingBlock: CIFDUS_clean_linker_0, # of connection points: 2
#     Edge 77, Type (0, 1), BuildingBlock: CIFDUS_clean_linker_0, # of connection points: 2
#     Edge 78, Type (0, 1), BuildingBlock: CIFDUS_clean_linker_0, # of connection points: 2
#     Edge 79, Type (0, 1), BuildingBlock: CIFDUS_clean_linker_0, # of connection points: 2
#     Edge 80, Type (0, 1), BuildingBlock: CIFDUS_clean_linker_0, # of connection points: 2
#     Edge 81, Type (0, 1), BuildingBlock: CIFDUS_clean_linker_0, # of connection points: 2
#     Edge 82, Type (0, 1), BuildingBlock: CIFDUS_clean_linker_0, # of connection points: 2
#     Edge 83, Type (0, 1), BuildingBlock: CIFDUS_clean_linker_0, # of connection points: 2
#     Edge 84, Type (0, 1), BuildingBlock: CIFDUS_clean_linker_0, # of connection points: 2
#     Edge 85, Type (0, 1), BuildingBlock: CIFDUS_clean_linker_0, # of connection points: 2
#     Edge 86, Type (0, 1), BuildingBlock: CIFDUS_clean_linker_0, # of connection points: 2
#     Edge 87, Type (0, 1), BuildingBlock: CIFDUS_clean_linker_0, # of connection points: 2
#     Edge 88, Type (0, 1), BuildingBlock: CIFDUS_clean_linker_0, # of connection points: 2
#     Edge 89, Type (0, 1), BuildingBlock: CIFDUS_clean_linker_0, # of connection points: 2
#     Edge 90, Type (0, 1), BuildingBlock: CIFDUS_clean_linker_0, # of connection points: 2
#     Edge 91, Type (0, 1), BuildingBlock: CIFDUS_clean_linker_0, # of connection points: 2
#     Edge 92, Type (0, 1), BuildingBlock: CIFDUS_clean_linker_0, # of connection points: 2
#     Edge 93, Type (0, 1), BuildingBlock: CIFDUS_clean_linker_0, # of connection points: 2
#     Edge 94, Type (0, 1), BuildingBlock: CIFDUS_clean_linker_0, # of connection points: 2
#     Edge 95, Type (0, 1), BuildingBlock: CIFDUS_clean_linker_0, # of connection points: 2
#     Edge 96, Type (0, 1), BuildingBlock: CIFDUS_clean_linker_0, # of connection points: 2
#     Edge 97, Type (0, 1), BuildingBlock: CIFDUS_clean_linker_0, # of connection points: 2
#     Edge 98, Type (0, 1), BuildingBlock: CIFDUS_clean_linker_0, # of connection points: 2
#     Edge 99, Type (0, 1), BuildingBlock: CIFDUS_clean_linker_0, # of connection points: 2
#     Edge 100, Type (0, 1), BuildingBlock: CIFDUS_clean_linker_0, # of connection points: 2
#     Edge 101, Type (0, 1), BuildingBlock: CIFDUS_clean_linker_0, # of connection points: 2
#     Edge 102, Type (0, 1), BuildingBlock: CIFDUS_clean_linker_0, # of connection points: 2
#     Edge 103, Type (0, 1), BuildingBlock: CIFDUS_clean_linker_0, # of connection points: 2
#     Edge 104, Type (0, 1), BuildingBlock: CIFDUS_clean_linker_0, # of connection points: 2
#     Edge 105, Type (0, 1), BuildingBlock: CIFDUS_clean_linker_0, # of connection points: 2
#     Edge 106, Type (0, 1), BuildingBlock: CIFDUS_clean_linker_0, # of connection points: 2
#     Edge 107, Type (0, 1), BuildingBlock: CIFDUS_clean_linker_0, # of connection points: 2
#     Edge 108, Type (0, 1), BuildingBlock: CIFDUS_clean_linker_0, # of connection points: 2
#     Edge 109, Type (0, 1), BuildingBlock: CIFDUS_clean_linker_0, # of connection points: 2
#     Edge 110, Type (0, 1), BuildingBlock: CIFDUS_clean_linker_0, # of connection points: 2
#     Edge 111, Type (0, 1), BuildingBlock: CIFDUS_clean_linker_0, # of connection points: 2
#     Edge 112, Type (0, 1), BuildingBlock: CIFDUS_clean_linker_0, # of connection points: 2
#     Edge 113, Type (0, 1), BuildingBlock: CIFDUS_clean_linker_0, # of connection points: 2
#     Edge 114, Type (0, 1), BuildingBlock: CIFDUS_clean_linker_0, # of connection points: 2
#     Edge 115, Type (0, 1), BuildingBlock: CIFDUS_clean_linker_0, # of connection points: 2
#     Edge 116, Type (0, 1), BuildingBlock: CIFDUS_clean_linker_0, # of connection points: 2
#     Edge 117, Type (0, 1), BuildingBlock: CIFDUS_clean_linker_0, # of connection points: 2
#     Edge 118, Type (0, 1), BuildingBlock: CIFDUS_clean_linker_0, # of connection points: 2
#     Edge 119, Type (0, 1), BuildingBlock: CIFDUS_clean_linker_0, # of connection points: 2
#     Edge 120, Type (0, 1), BuildingBlock: CIFDUS_clean_linker_0, # of connection points: 2
#     Edge 121, Type (0, 1), BuildingBlock: CIFDUS_clean_linker_0, # of connection points: 2
#     Edge 122, Type (0, 1), BuildingBlock: CIFDUS_clean_linker_0, # of connection points: 2
#     Edge 123, Type (0, 1), BuildingBlock: CIFDUS_clean_linker_0, # of connection points: 2
#     Edge 124, Type (0, 1), BuildingBlock: CIFDUS_clean_linker_0, # of connection points: 2
#     Edge 125, Type (0, 1), BuildingBlock: CIFDUS_clean_linker_0, # of connection points: 2
#     Edge 126, Type (0, 1), BuildingBlock: CIFDUS_clean_linker_0, # of connection points: 2
#     Edge 127, Type (0, 1), BuildingBlock: CIFDUS_clean_linker_0, # of connection points: 2
#     Edge 128, Type (0, 1), BuildingBlock: CIFDUS_clean_linker_0, # of connection points: 2
#     Edge 129, Type (0, 1), BuildingBlock: CIFDUS_clean_linker_0, # of connection points: 2
#     Edge 130, Type (0, 1), BuildingBlock: CIFDUS_clean_linker_0, # of connection points: 2
#     Edge 131, Type (0, 1), BuildingBlock: CIFDUS_clean_linker_0, # of connection points: 2
#     Edge 132, Type (0, 1), BuildingBlock: CIFDUS_clean_linker_0, # of connection points: 2
#     Edge 133, Type (0, 1), BuildingBlock: CIFDUS_clean_linker_0, # of connection points: 2
#     Edge 134, Type (0, 1), BuildingBlock: CIFDUS_clean_linker_0, # of connection points: 2
#     Edge 135, Type (0, 1), BuildingBlock: CIFDUS_clean_linker_0, # of connection points: 2
# Relax obj value: 0.367
# Max RMSD: 0.295
# Mean RMSD: 0.172
data_MOF--net-iac--node1-GALJAG_clean_sbu_0--node2-FUNLAD_clean_sbu_0--edge1-CIFDUS_clean_linker_0
_symmetry_space_group_name_H-M    P1
_symmetry_Int_Tables_number       1
_symmetry_cell_setting            triclinic
loop_
_symmetry_equiv_pos_as_xyz
'x, y, z'
_cell_length_a     48.507004
_cell_length_b     46.48475
_cell_length_c     52.934415
_cell_angle_alpha  89.857099
_cell_angle_beta   92.193226
_cell_angle_gamma 90.002303
loop_
_atom_site_label
_atom_site_type_symbol
_atom_site_fract_x
_atom_site_fract_y
_atom_site_fract_z
_atom_type_partial_charge
In0 In 0.05694 0.18863 0.15802 0.0
O1 O 0.0836 0.17338 0.12673 0.0
O2 O 0.0716 0.14186 0.15304 0.0
C3 C 0.03869 0.23258 0.12918 0.0
C4 C 0.00927 0.17453 0.17956 0.0
C5 C 0.09719 0.2124 0.18715 0.0
O6 O 0.04186 0.20764 0.12031 0.0
O7 O 0.04323 0.23471 0.15276 0.0
O8 O 0.08373 0.19091 0.19451 0.0
O9 O 0.09041 0.22136 0.16537 0.0
C10 C 0.08483 0.14754 0.13357 0.0
O11 O 0.0309 0.18109 0.1922 0.0
O12 O 0.01203 0.17364 0.15597 0.0
In13 In 0.04164 0.76558 0.39164 0.0
O14 O 0.07053 0.76152 0.3572 0.0
O15 O 0.0889 0.77075 0.39307 0.0
C16 C 0.989 0.76384 0.36961 0.0
C17 C 0.04591 0.71318 0.4157 0.0
C18 C 0.03886 0.8183 0.41487 0.0
O19 O 0.01 0.76958 0.35703 0.0
O20 O 0.9947 0.75892 0.39265 0.0
O21 O 0.03735 0.79479 0.42676 0.0
O22 O 0.04189 0.81526 0.39144 0.0
C23 C 0.09268 0.76625 0.36996 0.0
O24 O 0.04742 0.7368 0.42746 0.0
O25 O 0.04236 0.71605 0.39206 0.0
In26 In 0.56637 0.69025 0.65258 0.0
O27 O 0.54598 0.70934 0.6169 0.0
O28 O 0.55193 0.73647 0.64885 0.0
C29 C 0.59496 0.6516 0.62626 0.0
C30 C 0.60468 0.71768 0.68129 0.0
C31 C 0.5237 0.66581 0.67547 0.0
O32 O 0.5893 0.67655 0.61855 0.0
O33 O 0.58632 0.64575 0.64788 0.0
O34 O 0.54666 0.67061 0.68661 0.0
O35 O 0.52258 0.67204 0.65223 0.0
C36 C 0.54432 0.73433 0.62589 0.0
O37 O 0.58297 0.70784 0.69037 0.0
O38 O 0.6073 0.71287 0.65811 0.0
In39 In 0.54671 0.26902 0.89055 0.0
O40 O 0.57193 0.26204 0.85469 0.0
O41 O 0.59479 0.27047 0.88853 0.0
C42 C 0.49519 0.26953 0.8664 0.0
C43 C 0.54747 0.21796 0.91676 0.0
C44 C 0.54599 0.3217 0.91426 0.0
O45 O 0.51711 0.27584 0.85553 0.0
O46 O 0.49911 0.26307 0.88939 0.0
O47 O 0.54261 0.2982 0.92568 0.0
O48 O 0.55007 0.31873 0.89102 0.0
C49 C 0.59555 0.26537 0.86513 0.0
O50 O 0.55134 0.24201 0.92735 0.0
O51 O 0.54392 0.21961 0.89305 0.0
In52 In 0.16229 0.0188 0.24598 0.0
O53 O 0.20113 0.99086 0.24931 0.0
O54 O 0.16208 0.96999 0.24778 0.0
C55 C 0.1857 0.07059 0.23972 0.0
C56 C 0.13234 0.0137 0.2024 0.0
C57 C 0.14343 0.02543 0.29284 0.0
O58 O 0.19965 0.04763 0.24001 0.0
O59 O 0.16003 0.06711 0.24129 0.0
O60 O 0.12853 0.01531 0.27491 0.0
O61 O 0.16786 0.03104 0.28733 0.0
C62 C 0.18798 0.96742 0.24892 0.0
O63 O 0.12161 0.02135 0.22269 0.0
O64 O 0.15804 0.0095 0.20407 0.0
In65 In 0.28708 0.89542 0.56335 0.0
O66 O 0.25683 0.9328 0.5572 0.0
O67 O 0.24031 0.89132 0.56414 0.0
C68 C 0.33519 0.92437 0.55975 0.0
C69 C 0.28782 0.87111 0.60987 0.0
C70 C 0.28957 0.86655 0.51937 0.0
O71 O 0.31274 0.93711 0.56354 0.0
O72 O 0.33349 0.89734 0.55944 0.0
O73 O 0.29291 0.85432 0.54057 0.0
O74 O 0.28384 0.89296 0.52044 0.0
C75 C 0.23558 0.91759 0.55987 0.0
O76 O 0.28831 0.85661 0.5898 0.0
O77 O 0.28778 0.89804 0.60659 0.0
In78 In 0.4199 0.0082 0.74438 0.0
O79 O 0.3824 0.03717 0.74782 0.0
O80 O 0.42116 0.05752 0.74368 0.0
C81 C 0.3916 0.95815 0.74806 0.0
C82 C 0.44233 0.00841 0.69829 0.0
C83 C 0.44869 0.00731 0.78908 0.0
O84 O 0.38005 0.98197 0.74349 0.0
O85 O 0.41758 0.95922 0.7493 0.0
O86 O 0.46037 0.0069 0.76819 0.0
O87 O 0.42278 0.00921 0.78731 0.0
C88 C 0.39551 0.06045 0.74603 0.0
O89 O 0.4563 0.00345 0.71839 0.0
O90 O 0.41695 0.01226 0.70132 0.0
In91 In 0.26287 0.07278 0.03829 0.0
O92 O 0.29994 0.05989 0.06341 0.0
O93 O 0.30519 0.06577 0.02386 0.0
C94 C 0.24035 0.02042 0.0442 0.0
C95 C 0.26446 0.12045 0.06642 0.0
C96 C 0.24029 0.09532 0.99548 0.0
O97 O 0.25468 0.02722 0.02582 0.0
O98 O 0.23643 0.04053 0.0597 0.0
O99 O 0.22874 0.09745 0.01634 0.0
O100 O 0.26236 0.081 0.99621 0.0
C101 C 0.31606 0.05961 0.04523 0.0
O102 O 0.28106 0.11551 0.0492 0.0
O103 O 0.24649 0.1011 0.06963 0.0
In104 In 0.78896 0.39254 0.06581 0.0
O105 O 0.78832 0.35534 0.09417 0.0
O106 O 0.78428 0.39788 0.10829 0.0
C107 C 0.7944 0.36369 0.02209 0.0
C108 C 0.73856 0.41696 0.05991 0.0
C109 C 0.83968 0.41649 0.06577 0.0
O110 O 0.78688 0.35124 0.04192 0.0
O111 O 0.79821 0.39036 0.02422 0.0
O112 O 0.81809 0.43054 0.05969 0.0
O113 O 0.83538 0.39121 0.07349 0.0
C114 C 0.78464 0.37123 0.11309 0.0
O115 O 0.76025 0.4319 0.06246 0.0
O116 O 0.74249 0.39018 0.05974 0.0
In117 In 0.91447 0.51443 0.23946 0.0
O118 O 0.9526 0.51342 0.21546 0.0
O119 O 0.91325 0.51658 0.19647 0.0
C120 C 0.9495 0.51352 0.28049 0.0
C121 C 0.88431 0.5634 0.23789 0.0
C122 C 0.88521 0.46548 0.24518 0.0
O123 O 0.93757 0.53614 0.2728 0.0
O124 O 0.94451 0.4917 0.26709 0.0
O125 O 0.88256 0.48712 0.25924 0.0
O126 O 0.90138 0.46916 0.22732 0.0
C127 C 0.93913 0.5159 0.19468 0.0
O128 O 0.87434 0.53973 0.24496 0.0
O129 O 0.90916 0.56222 0.2319 0.0
In130 In 0.78142 0.56712 0.52425 0.0
O131 O 0.82043 0.54327 0.53521 0.0
O132 O 0.81956 0.56688 0.50055 0.0
C133 C 0.74952 0.52067 0.53287 0.0
C134 C 0.79283 0.60363 0.56268 0.0
C135 C 0.76143 0.59719 0.48382 0.0
O136 O 0.76647 0.52197 0.51561 0.0
O137 O 0.74821 0.54315 0.54608 0.0
O138 O 0.76507 0.60832 0.50535 0.0
O139 O 0.76723 0.57084 0.48286 0.0
C140 C 0.83309 0.55107 0.51597 0.0
O141 O 0.76915 0.60264 0.55181 0.0
O142 O 0.80981 0.58553 0.5549 0.0
In143 In 0.66765 0.51657 0.75021 0.0
O144 O 0.69659 0.48739 0.72883 0.0
O145 O 0.69682 0.48392 0.7689 0.0
C146 C 0.69065 0.56894 0.7472 0.0
C147 C 0.63043 0.50921 0.71163 0.0
C148 C 0.64265 0.51677 0.79486 0.0
O149 O 0.70471 0.54622 0.74513 0.0
O150 O 0.66515 0.565 0.74938 0.0
O151 O 0.63377 0.50177 0.77647 0.0
O152 O 0.66429 0.53066 0.7909 0.0
C153 C 0.70608 0.47483 0.74845 0.0
O154 O 0.64052 0.53343 0.71729 0.0
O155 O 0.63895 0.48872 0.72547 0.0
In156 In 0.00824 0.82567 0.90321 0.0
O157 O 0.03903 0.84367 0.87584 0.0
O158 O 0.05386 0.83431 0.9131 0.0
C159 C 0.97359 0.80576 0.86651 0.0
C160 C 0.01944 0.77662 0.92843 0.0
C161 C 0.97908 0.86727 0.92609 0.0
O162 O 0.99517 0.81949 0.86166 0.0
O163 O 0.96934 0.80273 0.8897 0.0
O164 O 0.98271 0.84249 0.93511 0.0
O165 O 0.99057 0.87152 0.90546 0.0
C166 C 0.05947 0.84264 0.89121 0.0
O167 O 0.01783 0.80059 0.93943 0.0
O168 O 0.01651 0.77765 0.90465 0.0
In169 In 0.03937 0.26556 0.65587 0.0
O170 O 0.03165 0.29468 0.62068 0.0
O171 O 0.04403 0.31501 0.65494 0.0
C172 C 0.03905 0.21755 0.62509 0.0
C173 C 0.09223 0.26201 0.67697 0.0
C174 C 0.99405 0.2687 0.68656 0.0
O175 O 0.03705 0.24298 0.61697 0.0
O176 O 0.04051 0.21594 0.64892 0.0
O177 O 0.01865 0.27242 0.69435 0.0
O178 O 0.992 0.26301 0.66326 0.0
C179 C 0.03771 0.318 0.6317 0.0
O180 O 0.07179 0.24982 0.68645 0.0
O181 O 0.08612 0.27571 0.65695 0.0
In182 In 0.49136 0.327 0.41513 0.0
O183 O 0.51255 0.3452 0.3807 0.0
O184 O 0.53681 0.33913 0.41451 0.0
C185 C 0.45295 0.30723 0.38204 0.0
C186 C 0.50107 0.27686 0.43961 0.0
C187 C 0.47125 0.36738 0.44603 0.0
O188 O 0.47832 0.30315 0.37892 0.0
O189 O 0.44732 0.32212 0.40104 0.0
O190 O 0.48196 0.34424 0.4539 0.0
O191 O 0.47208 0.37115 0.42247 0.0
C192 C 0.53617 0.34633 0.3915 0.0
O193 O 0.52024 0.29415 0.43489 0.0
O194 O 0.47743 0.28498 0.43213 0.0
In195 In 0.53204 0.76844 0.15362 0.0
O196 O 0.53539 0.74537 0.11549 0.0
O197 O 0.53635 0.7189 0.148 0.0
C198 C 0.52714 0.81846 0.12592 0.0
C199 C 0.48234 0.76714 0.17824 0.0
C200 C 0.58386 0.76831 0.1775 0.0
O201 O 0.52394 0.79369 0.11665 0.0
O202 O 0.53234 0.81836 0.14951 0.0
O203 O 0.56312 0.75696 0.18728 0.0
O204 O 0.57829 0.77989 0.15638 0.0
C205 C 0.53732 0.72017 0.12418 0.0
O206 O 0.50387 0.77871 0.18776 0.0
O207 O 0.48603 0.75615 0.15689 0.0
In208 In 0.9162 0.01388 0.79719 0.0
O209 O 0.94979 0.02974 0.77156 0.0
O210 O 0.9379 0.98575 0.76947 0.0
C211 C 0.95044 0.00906 0.83834 0.0
C212 C 0.88575 0.06212 0.79117 0.0
C213 C 0.87558 0.97479 0.79295 0.0
O214 O 0.94008 0.98754 0.82709 0.0
O215 O 0.94325 0.03305 0.82903 0.0
O216 O 0.88702 0.98573 0.77427 0.0
O217 O 0.88413 0.98416 0.81422 0.0
C218 C 0.95275 0.00558 0.76114 0.0
O219 O 0.89751 0.05004 0.77324 0.0
O220 O 0.88964 0.05013 0.81243 0.0
In221 In 0.78184 0.12362 0.50511 0.0
O222 O 0.80588 0.08112 0.5097 0.0
O223 O 0.82866 0.12007 0.50994 0.0
C224 C 0.73116 0.10026 0.49802 0.0
C225 C 0.77565 0.148 0.55095 0.0
C226 C 0.78811 0.15368 0.46181 0.0
O227 O 0.75241 0.08526 0.50294 0.0
O228 O 0.73577 0.12676 0.49511 0.0
O229 O 0.78161 0.16539 0.48223 0.0
O230 O 0.79081 0.12667 0.46303 0.0
C231 C 0.82924 0.09301 0.51134 0.0
O232 O 0.78847 0.16036 0.53371 0.0
O233 O 0.76686 0.12333 0.5453 0.0
In234 In 0.66595 0.01523 0.30956 0.0
O235 O 0.70023 0.98205 0.3167 0.0
O236 O 0.66831 0.97195 0.28954 0.0
C237 C 0.69422 0.0652 0.31506 0.0
C238 C 0.64236 0.02803 0.26416 0.0
C239 C 0.63699 0.00282 0.35101 0.0
O240 O 0.70583 0.04139 0.31153 0.0
O241 O 0.66852 0.0636 0.31739 0.0
O242 O 0.62543 0.01037 0.33031 0.0
O243 O 0.66294 0.002 0.35088 0.0
C244 C 0.69057 0.96431 0.30069 0.0
O245 O 0.62833 0.02519 0.28367 0.0
O246 O 0.66792 0.0237 0.2676 0.0
In247 In 0.79173 0.9474 0.01653 0.0
O248 O 0.75536 0.9669 0.99465 0.0
O249 O 0.75308 0.9627 0.03469 0.0
C250 C 0.81776 0.99842 0.01714 0.0
C251 C 0.80549 0.91284 0.0559 0.0
C252 C 0.79277 0.90882 0.97889 0.0
O253 O 0.80562 0.98847 0.03586 0.0
O254 O 0.81809 0.98188 0.99823 0.0
O255 O 0.81426 0.92234 0.98618 0.0
O256 O 0.77136 0.91506 0.99042 0.0
C257 C 0.74158 0.97081 0.01409 0.0
O258 O 0.78112 0.91623 0.04738 0.0
O259 O 0.82343 0.9272 0.04466 0.0
In260 In 0.2835 0.61602 0.00023 0.0
O261 O 0.27813 0.65923 0.02005 0.0
O262 O 0.28543 0.62245 0.04296 0.0
C263 C 0.2827 0.6509 0.95937 0.0
C264 C 0.33177 0.58666 0.00232 0.0
C265 C 0.2372 0.58334 0.99795 0.0
O266 O 0.26398 0.65107 0.97529 0.0
O267 O 0.3015 0.6325 0.96364 0.0
O268 O 0.25074 0.58839 0.0182 0.0
O269 O 0.24757 0.59378 0.97845 0.0
C270 C 0.28067 0.64905 0.04205 0.0
O271 O 0.30879 0.57418 0.9991 0.0
O272 O 0.33037 0.61365 0.00405 0.0
In273 In 0.16838 0.50865 0.81222 0.0
O274 O 0.20625 0.48409 0.79982 0.0
O275 O 0.17524 0.46013 0.81767 0.0
C276 C 0.19535 0.55975 0.81389 0.0
C277 C 0.13909 0.51266 0.76788 0.0
C278 C 0.14162 0.50123 0.85566 0.0
O279 O 0.20664 0.53636 0.82051 0.0
O280 O 0.17006 0.55766 0.80792 0.0
O281 O 0.16677 0.50823 0.85538 0.0
O282 O 0.12992 0.49847 0.83412 0.0
C283 C 0.19846 0.45994 0.80773 0.0
O284 O 0.16344 0.5032 0.76954 0.0
O285 O 0.12902 0.51909 0.78873 0.0
In286 In 0.30255 0.41227 0.52845 0.0
O287 O 0.33758 0.40484 0.55812 0.0
O288 O 0.3071 0.37241 0.5529 0.0
C289 C 0.30556 0.37918 0.48734 0.0
C290 C 0.24955 0.42725 0.53132 0.0
C291 C 0.32016 0.46681 0.5281 0.0
O292 O 0.28792 0.37559 0.50392 0.0
O293 O 0.32236 0.39962 0.49155 0.0
O294 O 0.32587 0.44928 0.51078 0.0
O295 O 0.30675 0.45633 0.54588 0.0
C296 C 0.32882 0.38048 0.5645 0.0
O297 O 0.26346 0.41834 0.55041 0.0
O298 O 0.26214 0.42739 0.51095 0.0
In299 In 0.41556 0.51711 0.29989 0.0
O300 O 0.4522 0.51344 0.27464 0.0
O301 O 0.41511 0.53147 0.25881 0.0
C302 C 0.44341 0.50776 0.34415 0.0
C303 C 0.38988 0.56796 0.30563 0.0
C304 C 0.38919 0.46736 0.28922 0.0
O305 O 0.4554 0.51441 0.32424 0.0
O306 O 0.4175 0.5059 0.34173 0.0
O307 O 0.37762 0.48764 0.30056 0.0
O308 O 0.41401 0.47183 0.28444 0.0
C309 C 0.43938 0.52311 0.25523 0.0
O310 O 0.37741 0.54553 0.29819 0.0
O311 O 0.41545 0.56481 0.31022 0.0
C312 C 0.02321 0.01879 0.9739 0.0
N313 N 0.98939 0.06551 0.03211 0.0
C314 C 0.98708 0.0858 0.01354 0.0
C315 C 0.9621 0.10031 0.00924 0.0
C316 C 0.93967 0.09355 0.02422 0.0
C317 C 0.94483 0.07706 0.04628 0.0
C318 C 0.96982 0.06272 0.04959 0.0
Zn319 Zn 0.0156 0.03164 0.02878 0.0
C320 C 0.98534 0.97645 0.02372 0.0
N321 N 0.06897 0.96048 0.01966 0.0
C322 C 0.09062 0.96286 0.00433 0.0
C323 C 0.06841 0.93991 0.03799 0.0
C324 C 0.09237 0.92466 0.0447 0.0
C325 C 0.1167 0.93091 0.03228 0.0
C326 C 0.1148 0.94774 0.01009 0.0
Zn327 Zn 0.0434 0.99483 0.02223 0.0
O328 O 0.01219 0.0356 0.98941 0.0
C329 C 0.07389 0.04963 0.02751 0.0
O330 O 0.03825 0.99816 0.98215 0.0
H331 H 0.05069 0.93808 0.04969 0.0
H332 H 0.00324 0.0882 0.00018 0.0
H333 H 0.09053 0.97927 0.98981 0.0
O334 O 0.04951 0.05896 0.02983 0.0
O335 O 0.07782 0.02312 0.0232 0.0
H336 H 0.97195 0.04653 0.06421 0.0
O337 O 0.04839 0.99219 0.06161 0.0
O338 O 0.02025 0.02767 0.06894 0.0
O339 O 0.00987 0.9674 0.02233 0.0
O340 O 0.98094 0.00313 0.02667 0.0
C341 C 0.03723 0.00876 0.07719 0.0
H342 H 0.95931 0.11354 0.99247 0.0
H343 H 0.92853 0.07127 0.05873 0.0
H344 H 0.09284 0.91146 0.06161 0.0
H345 H 0.1329 0.95313 -0.00032 0.0
C346 C 0.34306 0.77433 0.25824 0.0
N347 N 0.26781 0.74699 0.22382 0.0
C348 C 0.27866 0.75938 0.20314 0.0
C349 C 0.27613 0.74589 0.17968 0.0
C350 C 0.2621 0.71951 0.1775 0.0
C351 C 0.2491 0.70854 0.19876 0.0
C352 C 0.25239 0.72262 0.22191 0.0
Zn353 Zn 0.28055 0.76107 0.25863 0.0
C354 C 0.30313 0.71201 0.28965 0.0
N355 N 0.31066 0.78831 0.33104 0.0
C356 C 0.32424 0.81366 0.33459 0.0
C357 C 0.30056 0.77346 0.35082 0.0
C358 C 0.30204 0.78504 0.37508 0.0
C359 C 0.31421 0.81214 0.37912 0.0
C360 C 0.32638 0.82597 0.35866 0.0
Zn361 Zn 0.29847 0.77492 0.29573 0.0
O362 O 0.32211 0.76618 0.24487 0.0
C363 C 0.27593 0.82393 0.26471 0.0
O364 O 0.33968 0.78051 0.2814 0.0
H365 H 0.28963 0.75347 0.34755 0.0
H366 H 0.29088 0.77876 0.20513 0.0
H367 H 0.33202 0.82514 0.31855 0.0
O368 O 0.27027 0.80406 0.2489 0.0
O369 O 0.28822 0.81778 0.28564 0.0
H370 H 0.24404 0.71311 0.23864 0.0
O371 O 0.25652 0.76934 0.30951 0.0
O372 O 0.23963 0.75599 0.27251 0.0
O373 O 0.30911 0.73192 0.30531 0.0
O374 O 0.29053 0.7182 0.26889 0.0
C375 C 0.23577 0.76163 0.29563 0.0
H376 H 0.28666 0.75506 0.16389 0.0
H377 H 0.23761 0.68858 0.1978 0.0
H378 H 0.29206 0.77368 0.39009 0.0
H379 H 0.33642 0.84665 0.36098 0.0
C380 C 0.52693 0.00909 0.57236 0.0
N381 N 0.55729 0.93865 0.53459 0.0
C382 C 0.57437 0.93485 0.55527 0.0
C383 C 0.57564 0.90826 0.56743 0.0
C384 C 0.55867 0.88567 0.55851 0.0
C385 C 0.5435 0.88941 0.53559 0.0
C386 C 0.54333 0.91621 0.52373 0.0
Zn387 Zn 0.54491 0.97918 0.52574 0.0
C388 C 0.48247 0.97924 0.51841 0.0
N389 N 0.51335 0.0622 0.50964 0.0
C390 C 0.5246 0.08436 0.52322 0.0
C391 C 0.49512 0.06686 0.48991 0.0
C392 C 0.48824 0.09487 0.4826 0.0
C393 C 0.5004 0.11815 0.49569 0.0
C394 C 0.5184 0.11267 0.51651 0.0
Zn395 Zn 0.52642 0.02178 0.51767 0.0
O396 O 0.5383 0.98632 0.56467 0.0
C397 C 0.58914 0.02118 0.52507 0.0
O398 O 0.52055 0.02885 0.55661 0.0
H399 H 0.48658 0.04885 0.47935 0.0
H400 H 0.5852 0.95302 0.56363 0.0
H401 H 0.539 0.08007 0.53888 0.0
O402 O 0.58544 0.99467 0.52963 0.0
O403 O 0.56827 0.03717 0.52027 0.0
H404 H 0.52998 0.91972 0.50718 0.0
O405 O 0.53201 0.01416 0.47857 0.0
O406 O 0.55177 0.97255 0.48698 0.0
O407 O 0.48517 0.00616 0.51524 0.0
O408 O 0.50387 0.96382 0.52181 0.0
C409 C 0.54447 0.99188 0.47105 0.0
H410 H 0.58839 0.90605 0.58457 0.0
H411 H 0.53013 0.87269 0.52793 0.0
H412 H 0.47447 0.09826 0.46628 0.0
H413 H 0.52793 0.1301 0.52721 0.0
C414 C 0.30503 0.20025 0.7681 0.0
N415 N 0.26054 0.22065 0.83103 0.0
C416 C 0.24641 0.19618 0.82491 0.0
C417 C 0.23784 0.17768 0.84375 0.0
C418 C 0.2437 0.18449 0.86914 0.0
C419 C 0.25674 0.21073 0.87507 0.0
C420 C 0.26519 0.2286 0.85554 0.0
Zn421 Zn 0.27747 0.24239 0.80203 0.0
C422 C 0.3373 0.25784 0.81314 0.0
N423 N 0.31299 0.28329 0.73945 0.0
C424 C 0.30641 0.27393 0.71571 0.0
C425 C 0.33025 0.30602 0.74357 0.0
C426 C 0.3413 0.32061 0.72322 0.0
C427 C 0.33411 0.31204 0.69839 0.0
C428 C 0.31651 0.28819 0.69486 0.0
Zn429 Zn 0.29607 0.26283 0.76897 0.0
O430 O 0.29135 0.20262 0.78793 0.0
C431 C 0.23608 0.24754 0.75802 0.0
O432 O 0.31026 0.22261 0.75531 0.0
H433 H 0.33519 0.31309 0.76265 0.0
H434 H 0.24291 0.19024 0.80532 0.0
H435 H 0.29281 0.2557 0.71289 0.0
O436 O 0.23923 0.23842 0.78061 0.0
O437 O 0.25678 0.2587 0.74757 0.0
H438 H 0.27652 0.24811 0.85992 0.0
O439 O 0.28198 0.30282 0.78299 0.0
O440 O 0.26347 0.2823 0.81568 0.0
O441 O 0.33453 0.2668 0.79045 0.0
O442 O 0.3164 0.2468 0.82341 0.0
C443 C 0.26817 0.30484 0.80287 0.0
H444 H 0.22772 0.15767 0.83851 0.0
H445 H 0.26184 0.2165 0.89451 0.0
H446 H 0.355 0.33861 0.72694 0.0
H447 H 0.30969 0.2811 0.67619 0.0
C448 C 0.09168 0.99749 0.5341 0.0
N449 N 0.05288 0.04144 0.47372 0.0
C450 C 0.07926 0.04897 0.46882 0.0
C451 C 0.08782 0.05005 0.44392 0.0
C452 C 0.06883 0.04417 0.4238 0.0
C453 C 0.04106 0.03996 0.42946 0.0
C454 C 0.03364 0.03801 0.45455 0.0
Zn455 Zn 0.04347 0.02531 0.50855 0.0
C456 C 0.02866 0.9606 0.50113 0.0
N457 N 0.02241 0.98482 0.57694 0.0
C458 C 0.0413 0.98999 0.59605 0.0
C459 C 0.99788 0.97192 0.58133 0.0
C460 C 0.99087 0.96546 0.60608 0.0
C461 C 0.00937 0.97238 0.62624 0.0
C462 C 0.0353 0.98363 0.62088 0.0
Zn463 Zn 0.03085 0.00184 0.54275 0.0
O464 O 0.0853 0.01403 0.51574 0.0
C465 C 0.04572 0.06581 0.55142 0.0
O466 O 0.0729 0.98887 0.54835 0.0
H467 H 0.98318 0.96808 0.56583 0.0
H468 H 0.09433 0.0519 0.48416 0.0
H469 H 0.06053 0.00061 0.59229 0.0
O470 O 0.04978 0.06654 0.52772 0.0
O471 O 0.03888 0.04202 0.56131 0.0
H472 H 0.01287 0.03153 0.45846 0.0
O473 O 0.98855 0.01492 0.53651 0.0
O474 O 0.00182 0.03699 0.50244 0.0
O475 O 0.02306 0.96209 0.52436 0.0
O476 O 0.03689 0.98332 0.49011 0.0
C477 C 0.98283 0.03062 0.5173 0.0
H478 H 0.10949 0.0534 0.4408 0.0
H479 H 0.02534 0.03643 0.41473 0.0
H480 H 0.97055 0.95695 0.60948 0.0
H481 H 0.05026 0.98892 0.63587 0.0
C482 C 0.28488 0.77632 0.73546 0.0
N483 N 0.3458 0.72243 0.76982 0.0
C484 C 0.34722 0.71216 0.74586 0.0
C485 C 0.3711 0.69861 0.73806 0.0
C486 C 0.39356 0.6943 0.75533 0.0
C487 C 0.39049 0.70311 0.78048 0.0
C488 C 0.36685 0.71786 0.78711 0.0
Zn489 Zn 0.31232 0.74662 0.77982 0.0
C490 C 0.3279 0.80778 0.78915 0.0
N491 N 0.2435 0.79704 0.80109 0.0
C492 C 0.21903 0.79401 0.78798 0.0
C493 C 0.24586 0.81422 0.82183 0.0
C494 C 0.22274 0.82835 0.8307 0.0
C495 C 0.19695 0.82469 0.81813 0.0
C496 C 0.1954 0.80767 0.7962 0.0
Zn497 Zn 0.27647 0.77324 0.79069 0.0
O498 O 0.30377 0.75839 0.74148 0.0
C499 C 0.26109 0.71194 0.78109 0.0
O500 O 0.26946 0.78589 0.7524 0.0
H501 H 0.26555 0.81634 0.83194 0.0
H502 H 0.33022 0.71524 0.73236 0.0
H503 H 0.21762 0.78019 0.77158 0.0
O504 O 0.28661 0.71011 0.77668 0.0
O505 O 0.25077 0.73632 0.78611 0.0
H506 H 0.36587 0.72618 0.80606 0.0
O507 O 0.28379 0.76038 0.82921 0.0
O508 O 0.31966 0.7356 0.81801 0.0
O509 O 0.30265 0.80954 0.79465 0.0
O510 O 0.33787 0.7835 0.78331 0.0
C511 C 0.30369 0.74355 0.83506 0.0
H512 H 0.37207 0.69279 0.71835 0.0
H513 H 0.40643 0.69952 0.79498 0.0
H514 H 0.22494 0.84151 0.84751 0.0
H515 H 0.17592 0.80383 0.78611 0.0
C516 C 0.52922 0.97463 0.05885 0.0
N517 N 0.53937 0.05743 0.08774 0.0
C518 C 0.52347 0.04707 0.10633 0.0
C519 C 0.53127 0.05136 0.13166 0.0
C520 C 0.55567 0.06643 0.13785 0.0
C521 C 0.57009 0.07938 0.11828 0.0
C522 C 0.56156 0.07451 0.09317 0.0
Zn523 Zn 0.53425 0.03996 0.0526 0.0
C524 C 0.58841 0.02163 0.03277 0.0
N525 N 0.52521 0.99874 0.98105 0.0
C526 C 0.50415 0.97985 0.97685 0.0
C527 C 0.53859 0.01077 0.96152 0.0
C528 C 0.52897 0.00636 0.93665 0.0
C529 C 0.50554 0.98915 0.93184 0.0
C530 C 0.49408 0.97453 0.95224 0.0
Zn531 Zn 0.53099 0.01633 0.01617 0.0
O532 O 0.53134 0.99871 0.07006 0.0
C533 C 0.47674 0.03435 0.03528 0.0
O534 O 0.52831 0.97439 0.03473 0.0
H535 H 0.55532 0.02572 0.96527 0.0
H536 H 0.506 0.0334 0.10159 0.0
H537 H 0.49375 0.97059 0.99265 0.0
O538 O 0.49104 0.04496 0.05356 0.0
O539 O 0.48858 0.02142 0.01767 0.0
H540 H 0.57389 0.08252 0.07808 0.0
O541 O 0.53387 0.05846 0.99864 0.0
O542 O 0.53752 0.0812 0.03479 0.0
O543 O 0.57334 0.01166 0.01474 0.0
O544 O 0.57741 0.0343 0.05108 0.0
C545 C 0.5367 0.08199 0.01072 0.0
H546 H 0.51964 0.04082 0.14609 0.0
H547 H 0.58878 0.09156 0.12229 0.0
H548 H 0.53848 0.01821 0.92165 0.0
H549 H 0.47643 0.96048 0.9494 0.0
C550 C 0.27547 0.21207 0.25926 0.0
N551 N 0.31062 0.26531 0.20646 0.0
C552 C 0.32809 0.24342 0.20123 0.0
C553 C 0.32962 0.23335 0.17658 0.0
C554 C 0.31256 0.24562 0.15751 0.0
C555 C 0.29701 0.27007 0.16287 0.0
C556 C 0.29665 0.27994 0.1877 0.0
Zn557 Zn 0.29796 0.26885 0.24244 0.0
C558 C 0.23566 0.2791 0.24159 0.0
N559 N 0.26568 0.2735 0.31534 0.0
C560 C 0.27599 0.25455 0.33294 0.0
C561 C 0.25262 0.29801 0.32216 0.0
C562 C 0.25227 0.30582 0.3475 0.0
C563 C 0.26511 0.28798 0.36575 0.0
C564 C 0.27588 0.26144 0.35857 0.0
Zn565 Zn 0.27784 0.27048 0.27923 0.0
O566 O 0.28962 0.22384 0.24239 0.0
C567 C 0.3396 0.25954 0.28137 0.0
O568 O 0.2677 0.2268 0.27784 0.0
H569 H 0.24466 0.31277 0.30784 0.0
H570 H 0.33865 0.23181 0.21645 0.0
H571 H 0.2865 0.23533 0.32702 0.0
O572 O 0.33854 0.26189 0.25746 0.0
O573 O 0.3175 0.26131 0.29329 0.0
H574 H 0.28303 0.29742 0.1923 0.0
O575 O 0.28775 0.31466 0.27994 0.0
O576 O 0.3062 0.31329 0.24277 0.0
O577 O 0.2386 0.27925 0.26544 0.0
O578 O 0.25661 0.27585 0.22816 0.0
C579 C 0.29985 0.32735 0.26225 0.0
H580 H 0.34153 0.21415 0.17303 0.0
H581 H 0.28349 0.27981 0.1485 0.0
H582 H 0.24389 0.32652 0.35262 0.0
H583 H 0.28614 0.24742 0.37234 0.0
C584 C 0.59599 0.50025 0.03731 0.0
N585 N 0.56019 0.54439 0.9762 0.0
C586 C 0.58541 0.55673 0.97398 0.0
C587 C 0.59614 0.56076 0.95011 0.0
C588 C 0.58058 0.55227 0.92844 0.0
C589 C 0.55362 0.54214 0.93133 0.0
C590 C 0.54393 0.53801 0.95546 0.0
Zn591 Zn 0.5487 0.52773 0.0098 0.0
C592 C 0.53483 0.46289 0.00165 0.0
N593 N 0.52397 0.48748 0.07719 0.0
C594 C 0.54219 0.49191 0.09701 0.0
C595 C 0.49796 0.47778 0.08088 0.0
C596 C 0.48875 0.4745 0.10541 0.0
C597 C 0.50671 0.48079 0.12609 0.0
C598 C 0.53404 0.48835 0.1217 0.0
Zn599 Zn 0.53472 0.50392 0.04322 0.0
O600 O 0.5903 0.51708 0.01897 0.0
C601 C 0.54856 0.56792 0.05257 0.0
O602 O 0.57662 0.49103 0.05064 0.0
H603 H 0.48376 0.4745 0.0649 0.0
H604 H 0.59801 0.56162 0.99071 0.0
H605 H 0.56248 0.50046 0.09389 0.0
O606 O 0.55348 0.56882 0.02908 0.0
O607 O 0.54162 0.54402 0.06215 0.0
H608 H 0.5241 0.52787 0.95757 0.0
O609 O 0.49278 0.51685 0.03467 0.0
O610 O 0.50734 0.53897 0.0011 0.0
O611 O 0.52798 0.4642 0.02458 0.0
O612 O 0.54361 0.48569 0.99112 0.0
C613 C 0.48771 0.53219 0.01511 0.0
H614 H 0.61707 0.56858 0.94884 0.0
H615 H 0.54063 0.536 0.91514 0.0
H616 H 0.46748 0.46855 0.10821 0.0
H617 H 0.54833 0.49383 0.13718 0.0
C618 C 0.77012 0.28688 0.24313 0.0
N619 N 0.8338 0.23864 0.27726 0.0
C620 C 0.83069 0.21802 0.25918 0.0
C621 C 0.85362 0.20338 0.25058 0.0
C622 C 0.88013 0.2103 0.26038 0.0
C623 C 0.8826 0.23132 0.27942 0.0
C624 C 0.85907 0.24514 0.2877 0.0
Zn625 Zn 0.80008 0.26106 0.28808 0.0
C626 C 0.81215 0.3238 0.29515 0.0
N627 N 0.72948 0.30813 0.31023 0.0
C628 C 0.7039 0.30228 0.3001 0.0
C629 C 0.73296 0.32616 0.33031 0.0
C630 C 0.71017 0.33789 0.34183 0.0
C631 C 0.68342 0.33073 0.33287 0.0
C632 C 0.68046 0.31336 0.31121 0.0
Zn633 Zn 0.76329 0.28614 0.29863 0.0
O634 O 0.78939 0.26967 0.24983 0.0
C635 C 0.75101 0.22361 0.29149 0.0
O636 O 0.75487 0.29756 0.2598 0.0
H637 H 0.75343 0.33041 0.33822 0.0
H638 H 0.81041 0.21319 0.2511 0.0
H639 H 0.70158 0.28783 0.28418 0.0
O640 O 0.77663 0.22305 0.28744 0.0
O641 O 0.73936 0.24765 0.29523 0.0
H642 H 0.86106 0.26154 0.3021 0.0
O643 O 0.77264 0.27443 0.33697 0.0
O644 O 0.81021 0.2518 0.32654 0.0
O645 O 0.78736 0.32382 0.302 0.0
O646 O 0.82317 0.30026 0.28865 0.0
C647 C 0.79352 0.25914 0.34329 0.0
H648 H 0.85059 0.18705 0.23619 0.0
H649 H 0.90256 0.2378 0.28728 0.0
H650 H 0.71348 0.35157 0.3582 0.0
H651 H 0.66028 0.307 0.30376 0.0
C652 C 0.0423 0.45845 0.54217 0.0
N653 N 0.0631 0.53667 0.57641 0.0
C654 C 0.04859 0.5256 0.59567 0.0
C655 C 0.05918 0.52703 0.6205 0.0
C656 C 0.08493 0.54003 0.62555 0.0
C657 C 0.09821 0.55357 0.60558 0.0
C658 C 0.0869 0.55155 0.581 0.0
Zn659 Zn 0.05318 0.52315 0.54057 0.0
C660 C 0.10306 0.50147 0.51556 0.0
N661 N 0.03497 0.4905 0.46674 0.0
C662 C 0.01206 0.47447 0.4612 0.0
C663 C 0.05069 0.50119 0.44815 0.0
C664 C 0.04262 0.49755 0.42285 0.0
C665 C 0.01822 0.48261 0.41658 0.0
C666 C 0.00332 0.47011 0.43602 0.0
Zn667 Zn 0.04413 0.50425 0.50264 0.0
O668 O 0.04813 0.48059 0.55536 0.0
C669 C 0.99412 0.5246 0.52764 0.0
O670 O 0.03907 0.46135 0.51826 0.0
H671 H 0.06879 0.51391 0.45293 0.0
H672 H 0.02981 0.51366 0.59159 0.0
H673 H 0.99979 0.46635 0.4763 0.0
O674 O 0.01116 0.53149 0.54542 0.0
O675 O 0.00264 0.51299 0.50773 0.0
H676 H 0.09814 0.5601 0.56539 0.0
O677 O 0.04888 0.54718 0.48788 0.0
O678 O 0.05796 0.56601 0.52515 0.0
O679 O 0.0857 0.49552 0.49787 0.0
O680 O 0.09511 0.51366 0.53544 0.0
C681 C 0.05433 0.56926 0.50132 0.0
H682 H 0.04829 0.51613 0.63523 0.0
H683 H 0.11787 0.56428 0.60873 0.0
H684 H 0.05476 0.50726 0.40833 0.0
H685 H 0.98427 0.45859 0.43186 0.0
C686 C 0.79812 0.70556 0.26174 0.0
N687 N 0.76541 0.73796 0.32736 0.0
C688 C 0.74697 0.71592 0.32692 0.0
C689 C 0.73997 0.7024 0.34929 0.0
C690 C 0.75246 0.71126 0.37235 0.0
C691 C 0.77051 0.73493 0.37236 0.0
C692 C 0.77665 0.7481 0.34952 0.0
Zn693 Zn 0.77804 0.75355 0.29379 0.0
C694 C 0.83958 0.767 0.29561 0.0
N695 N 0.80371 0.78377 0.22274 0.0
C696 C 0.79542 0.7687 0.20181 0.0
C697 C 0.8161 0.8099 0.22085 0.0
C698 C 0.81868 0.82281 0.19719 0.0
C699 C 0.80842 0.80857 0.17542 0.0
C700 C 0.79774 0.78068 0.17786 0.0
Zn701 Zn 0.79213 0.76878 0.25686 0.0
O702 O 0.78649 0.71088 0.2823 0.0
C703 C 0.73081 0.75591 0.25454 0.0
O704 O 0.80337 0.7262 0.24689 0.0
H705 H 0.8225 0.82149 0.23777 0.0
H706 H 0.73834 0.7081 0.3091 0.0
H707 H 0.78553 0.74801 0.20375 0.0
O708 O 0.73601 0.75052 0.27785 0.0
O709 O 0.75076 0.76299 0.24091 0.0
H710 H 0.79121 0.76572 0.34941 0.0
O711 O 0.78041 0.81102 0.26748 0.0
O712 O 0.76968 0.79611 0.30526 0.0
O713 O 0.83344 0.77477 0.27296 0.0
O714 O 0.82042 0.75703 0.30898 0.0
C715 C 0.77165 0.81638 0.28931 0.0
H716 H 0.72558 0.68459 0.34842 0.0
H717 H 0.78087 0.74232 0.38962 0.0
H718 H 0.82689 0.84443 0.19616 0.0
H719 H 0.78998 0.76881 0.1615 0.0
C720 C 0.84913 0.27671 0.75818 0.0
N721 N 0.77074 0.2542 0.73012 0.0
C722 C 0.77478 0.27297 0.71083 0.0
C723 C 0.77213 0.2639 0.68579 0.0
C724 C 0.76625 0.23492 0.68039 0.0
C725 C 0.76003 0.21658 0.7006 0.0
C726 C 0.76212 0.22681 0.72541 0.0
Zn727 Zn 0.78683 0.26518 0.76519 0.0
C728 C 0.81196 0.21441 0.7923 0.0
N729 N 0.82667 0.28832 0.83569 0.0
C730 C 0.83646 0.31533 0.84017 0.0
C731 C 0.82199 0.26998 0.85517 0.0
C732 C 0.82551 0.27908 0.88015 0.0
C733 C 0.83288 0.30774 0.88538 0.0
C734 C 0.83943 0.32563 0.86494 0.0
Zn735 Zn 0.8105 0.27717 0.80053 0.0
O736 O 0.82573 0.27074 0.7478 0.0
C737 C 0.78564 0.32824 0.7742 0.0
O738 O 0.85038 0.28145 0.78199 0.0
H739 H 0.8137 0.24877 0.85152 0.0
H740 H 0.78211 0.2945 0.7147 0.0
H741 H 0.84011 0.32969 0.82456 0.0
O742 O 0.77661 0.30925 0.75879 0.0
O743 O 0.80085 0.32063 0.79306 0.0
H744 H 0.7589 0.21215 0.7409 0.0
O745 O 0.77047 0.27242 0.81775 0.0
O746 O 0.74767 0.25968 0.78302 0.0
O747 O 0.81974 0.23384 0.8077 0.0
O748 O 0.79776 0.22127 0.77252 0.0
C749 C 0.74769 0.26527 0.8066 0.0
H750 H 0.77621 0.27917 0.67093 0.0
H751 H 0.7555 0.19403 0.69762 0.0
H752 H 0.82111 0.26407 0.89512 0.0
H753 H 0.84507 0.34794 0.86776 0.0
C754 C 0.77802 0.71194 0.76712 0.0
N755 N 0.81719 0.75581 0.71046 0.0
C756 C 0.83064 0.73034 0.70836 0.0
C757 C 0.83049 0.71612 0.68524 0.0
C758 C 0.8166 0.7284 0.66405 0.0
C759 C 0.80604 0.75642 0.66613 0.0
C760 C 0.80647 0.76981 0.68973 0.0
Zn761 Zn 0.80336 0.76578 0.74518 0.0
C762 C 0.74233 0.77892 0.74009 0.0
N763 N 0.76792 0.78104 0.81594 0.0
C764 C 0.77854 0.76691 0.83667 0.0
C765 C 0.75211 0.805 0.81822 0.0
C766 C 0.74811 0.81683 0.84195 0.0
C767 C 0.76099 0.80416 0.86334 0.0
C768 C 0.7756 0.77841 0.86074 0.0
Zn769 Zn 0.78203 0.77157 0.78117 0.0
O770 O 0.79296 0.72169 0.74991 0.0
C771 C 0.84293 0.75781 0.78646 0.0
O772 O 0.7696 0.72868 0.78408 0.0
H773 H 0.74427 0.8162 0.80152 0.0
H774 H 0.83884 0.71951 0.72511 0.0
H775 H 0.79095 0.74782 0.83446 0.0
O776 O 0.84263 0.75887 0.76249 0.0
O777 O 0.82077 0.76165 0.79795 0.0
H778 H 0.79585 0.79007 0.69186 0.0
O779 O 0.79439 0.81487 0.77767 0.0
O780 O 0.81312 0.8094 0.74089 0.0
O781 O 0.74365 0.78081 0.76398 0.0
O782 O 0.76391 0.77303 0.72833 0.0
C783 C 0.80678 0.82552 0.75912 0.0
H784 H 0.83882 0.69453 0.68475 0.0
H785 H 0.79575 0.76701 0.65015 0.0
H786 H 0.73693 0.83691 0.84335 0.0
H787 H 0.78574 0.76814 0.87697 0.0
C788 C 0.50153 0.50902 0.48657 0.0
N789 N 0.47722 0.56248 0.54386 0.0
C790 C 0.47275 0.58086 0.52408 0.0
C791 C 0.44645 0.59229 0.5193 0.0
C792 C 0.42491 0.58371 0.53469 0.0
C793 C 0.43207 0.5706 0.5581 0.0
C794 C 0.45855 0.55965 0.56213 0.0
Zn795 Zn 0.50444 0.52969 0.54036 0.0
C796 C 0.47795 0.47249 0.54547 0.0
N797 N 0.56038 0.46111 0.52952 0.0
C798 C 0.57855 0.46334 0.51073 0.0
C799 C 0.56573 0.44404 0.55006 0.0
C800 C 0.59227 0.43322 0.55471 0.0
C801 C 0.61294 0.44001 0.53784 0.0
C802 C 0.60516 0.45257 0.51443 0.0
Zn803 Zn 0.53288 0.49371 0.53279 0.0
O804 O 0.4927 0.52696 0.50229 0.0
C805 C 0.56 0.54999 0.52757 0.0
O806 O 0.52051 0.49147 0.49346 0.0
H807 H 0.55075 0.44224 0.5646 0.0
H808 H 0.48821 0.58328 0.51003 0.0
H809 H 0.57384 0.47702 0.49459 0.0
O810 O 0.53605 0.55882 0.53264 0.0
O811 O 0.56439 0.52325 0.52557 0.0
H812 H 0.46271 0.54525 0.57789 0.0
O813 O 0.54441 0.49667 0.57167 0.0
O814 O 0.51633 0.53237 0.57899 0.0
O815 O 0.50225 0.46472 0.54067 0.0
O816 O 0.47243 0.49913 0.54718 0.0
C817 C 0.53489 0.51494 0.58683 0.0
H818 H 0.44217 0.60355 0.50165 0.0
H819 H 0.41663 0.5641 0.57119 0.0
H820 H 0.59738 0.42317 0.57277 0.0
H821 H 0.62035 0.4582 0.50078 0.0
C822 C 0.02713 0.51462 0.07159 0.0
N823 N 0.05209 0.43829 0.03961 0.0
C824 C 0.0682 0.43434 0.06091 0.0
C825 C 0.06834 0.40789 0.07333 0.0
C826 C 0.05143 0.38551 0.06392 0.0
C827 C 0.0368 0.38951 0.04077 0.0
C828 C 0.03754 0.41622 0.02879 0.0
Zn829 Zn 0.04333 0.47897 0.02808 0.0
C830 C 0.9807 0.48411 0.01966 0.0
N831 N 0.01882 0.56244 0.00437 0.0
C832 C 0.0331 0.5847 0.01516 0.0
C833 C 0.00147 0.56649 0.9839 0.0
C834 C 0.99913 0.59355 0.9726 0.0
C835 C 0.01506 0.61655 0.98231 0.0
C836 C 0.03161 0.61204 0.00433 0.0
Zn837 Zn 0.02794 0.5218 0.01595 0.0
O838 O 0.03684 0.49028 0.06583 0.0
C839 C 0.0904 0.51645 0.02534 0.0
O840 O 0.02209 0.53317 0.05433 0.0
H841 H 0.99041 0.54843 0.9756 0.0
H842 H 0.07949 0.45225 0.06922 0.0
H843 H 0.04681 0.58093 0.03142 0.0
O844 O 0.08498 0.49097 0.03216 0.0
O845 O 0.07086 0.5332 0.01823 0.0
H846 H 0.02486 0.41992 0.01185 0.0
O847 O 0.03348 0.51005 0.97793 0.0
O848 O 0.05073 0.46831 0.98989 0.0
O849 O 0.98575 0.50999 0.01365 0.0
O850 O 1.00075 0.46721 0.02476 0.0
C851 C 0.0449 0.48643 0.97247 0.0
H852 H 0.08051 0.40547 0.09079 0.0
H853 H 0.02344 0.37291 0.03284 0.0
H854 H 0.98565 0.5962 0.95598 0.0
H855 H 0.04442 0.62902 0.01238 0.0
H856 H 0.10127 0.1545 0.086 0.0
H857 H 0.09569 0.09106 0.14525 0.0
H858 H 0.10492 0.05287 0.11499 0.0
H859 H 0.1 0.03762 0.07095 0.0
H860 H 0.09376 0.10124 0.01182 0.0
H861 H 0.1053 0.13918 0.0423 0.0
C862 C 0.10277 0.13236 0.09245 0.0
C863 C 0.09708 0.12542 0.11759 0.0
C864 C 0.10593 0.1105 0.07468 0.0
C865 C 0.09942 0.09678 0.12582 0.0
C866 C 0.10459 0.07497 0.10853 0.0
C867 C 0.1028 0.05964 0.06463 0.0
C868 C 0.09587 0.06691 0.0394 0.0
C869 C 0.10589 0.08147 0.08269 0.0
C870 C 0.09915 0.09534 0.0312 0.0
C871 C 0.10507 0.11703 0.04876 0.0
H872 H 0.10826 0.75352 0.32138 0.0
H873 H 0.14132 0.77942 0.39464 0.0
H874 H 0.18781 0.77992 0.37868 0.0
H875 H 0.21971 0.77334 0.34391 0.0
H876 H 0.18715 0.74712 0.27056 0.0
H877 H 0.14052 0.74635 0.28648 0.0
C878 C 0.12562 0.7593 0.33385 0.0
C879 C 0.12098 0.76648 0.35928 0.0
C880 C 0.1527 0.75945 0.32451 0.0
C881 C 0.14397 0.7738 0.37504 0.0
C882 C 0.17074 0.77409 0.3659 0.0
C883 C 0.20247 0.76734 0.33137 0.0
C884 C 0.20729 0.76027 0.30596 0.0
C885 C 0.17545 0.76697 0.34067 0.0
C886 C 0.18439 0.75264 0.29017 0.0
C887 C 0.15755 0.75223 0.29928 0.0
H888 H 0.54341 0.78968 0.64096 0.0
H889 H 0.53651 0.73613 0.57456 0.0
H890 H 0.54018 0.77855 0.54752 0.0
H891 H 0.5503 0.83007 0.5431 0.0
H892 H 0.55617 0.88335 0.60989 0.0
H893 H 0.54897 0.84153 0.63642 0.0
C894 C 0.54215 0.78734 0.62056 0.0
C895 C 0.5399 0.75987 0.60976 0.0
C896 C 0.54498 0.81162 0.60522 0.0
C897 C 0.53821 0.75712 0.58331 0.0
C898 C 0.54061 0.78131 0.56786 0.0
C899 C 0.5497 0.83264 0.56342 0.0
C900 C 0.55444 0.8598 0.57441 0.0
C901 C 0.54486 0.80856 0.57865 0.0
C902 C 0.55363 0.8626 0.60086 0.0
C903 C 0.54908 0.83875 0.6161 0.0
H904 H 0.44539 0.25398 0.88539 0.0
H905 H 0.48209 0.28499 0.81756 0.0
H906 H 0.43691 0.28479 0.79547 0.0
H907 H 0.38685 0.27531 0.79503 0.0
H908 H 0.35003 0.24353 0.86258 0.0
H909 H 0.39507 0.24463 0.88497 0.0
C910 C 0.44351 0.26075 0.86579 0.0
C911 C 0.4673 0.26951 0.85323 0.0
C912 C 0.4173 0.26046 0.85306 0.0
C913 C 0.46431 0.27813 0.82777 0.0
C914 C 0.43838 0.27803 0.81509 0.0
C915 C 0.38858 0.26872 0.81469 0.0
C916 C 0.36481 0.25939 0.82701 0.0
C917 C 0.41471 0.26918 0.82749 0.0
C918 C 0.36776 0.25083 0.85251 0.0
C919 C 0.39361 0.25143 0.86537 0.0
H920 H 0.02535 0.83075 0.46347 0.0
H921 H 0.04886 0.87098 0.39404 0.0
H922 H 0.04713 0.91832 0.41398 0.0
H923 H 0.03979 0.9486 0.45156 0.0
H924 H 0.01533 0.90815 0.52069 0.0
H925 H 0.01639 0.8611 0.5005 0.0
C926 C 0.03008 0.84987 0.45269 0.0
C927 C 0.03736 0.84713 0.42726 0.0
C928 C 0.0288 0.87721 0.46425 0.0
C929 C 0.04323 0.87229 0.41361 0.0
C930 C 0.04224 0.89946 0.42503 0.0
C931 C 0.03449 0.92954 0.46219 0.0
C932 C 0.0275 0.9322 0.48774 0.0
C933 C 0.03513 0.90225 0.45039 0.0
C934 C 0.02075 0.90704 0.50106 0.0
C935 C 0.02143 0.87997 0.48952 0.0
H936 H 0.51623 0.67836 0.72404 0.0
H937 H 0.47511 0.64169 0.65806 0.0
H938 H 0.43114 0.64229 0.67947 0.0
H939 H 0.40399 0.6593 0.71461 0.0
H940 H 0.44551 0.70531 0.77619 0.0
H941 H 0.48955 0.69367 0.75944 0.0
C942 C 0.49777 0.6698 0.71458 0.0
C943 C 0.49877 0.65998 0.68959 0.0
C944 C 0.47249 0.67202 0.72627 0.0
C945 C 0.4747 0.64935 0.67736 0.0
C946 C 0.44961 0.64988 0.68954 0.0
C947 C 0.42249 0.66714 0.72439 0.0
C948 C 0.42074 0.68357 0.74669 0.0
C949 C 0.4481 0.66233 0.71361 0.0
C950 C 0.44549 0.69223 0.75934 0.0
C951 C 0.47102 0.68593 0.74956 0.0
H952 H 0.54965 0.20923 0.96811 0.0
H953 H 0.54175 0.16397 0.89716 0.0
H954 H 0.53778 0.11831 0.91968 0.0
H955 H 0.536 0.09097 0.95952 0.0
H956 H 0.54349 0.13608 0.03061 0.0
H957 H 0.54809 0.18171 0.00813 0.0
C958 C 0.54719 0.18936 0.95757 0.0
C959 C 0.54607 0.19017 0.9309 0.0
C960 C 0.54472 0.16302 0.97071 0.0
C961 C 0.54272 0.16412 0.91764 0.0
C962 C 0.54041 0.13793 0.93053 0.0
C963 C 0.53862 0.11076 0.97016 0.0
C964 C 0.53933 0.10989 0.99684 0.0
C965 C 0.54126 0.13708 0.95707 0.0
C966 C 0.5428 0.13591 0.01014 0.0
C967 C 0.54547 0.16211 0.99726 0.0
H968 H 0.13325 0.25171 0.17102 0.0
H969 H 0.11147 0.20298 0.23685 0.0
H970 H 0.15061 0.22383 0.26093 0.0
H971 H 0.19294 0.25233 0.26188 0.0
H972 H 0.21758 0.29655 0.19464 0.0
H973 H 0.17471 0.28164 0.17244 0.0
C974 C 0.13691 0.24588 0.19072 0.0
C975 C 0.11969 0.22581 0.20221 0.0
C976 C 0.15971 0.25733 0.20412 0.0
C977 C 0.12464 0.21829 0.22765 0.0
C978 C 0.1469 0.23025 0.24139 0.0
C979 C 0.18853 0.25939 0.24258 0.0
C980 C 0.20802 0.27579 0.22989 0.0
C981 C 0.16478 0.2494 0.22966 0.0
C982 C 0.20259 0.28415 0.20473 0.0
C983 C 0.17828 0.27543 0.19204 0.0
H984 H 0.08185 0.03559 0.18823 0.0
H985 H 0.14671 0.97983 0.16372 0.0
H986 H 0.12078 0.97037 0.12433 0.0
H987 H 0.08149 0.97986 0.09602 0.0
H988 H 0.01829 0.03942 0.11748 0.0
H989 H 0.04149 0.04507 0.15917 0.0
C990 C 0.09013 0.02127 0.17426 0.0
C991 C 0.11613 0.00844 0.17878 0.0
C992 C 0.07534 0.01643 0.15128 0.0
C993 C 0.12683 0.99012 0.16054 0.0
C994 C 0.11196 0.98457 0.13809 0.0
C995 C 0.07238 0.99372 0.1099 0.0
C996 C 0.04805 0.00905 0.10369 0.0
C997 C 0.08638 0.9978 0.13318 0.0
C998 C 0.03689 0.02721 0.12187 0.0
C999 C 0.05025 0.03059 0.14562 0.0
H1000 H 0.28923 0.89046 0.4727 0.0
H1001 H 0.30138 0.80981 0.5121 0.0
H1002 H 0.31185 0.78616 0.47237 0.0
H1003 H 0.31758 0.78853 0.42651 0.0
H1004 H 0.3039 0.86911 0.38718 0.0
H1005 H 0.29498 0.89282 0.42699 0.0
C1006 C 0.29401 0.86766 0.47258 0.0
C1007 C 0.29435 0.85185 0.49525 0.0
C1008 C 0.30021 0.8543 0.44976 0.0
C1009 C 0.30082 0.8224 0.49484 0.0
C1010 C 0.30693 0.80891 0.47217 0.0
C1011 C 0.31257 0.81126 0.4266 0.0
C1012 C 0.31152 0.82694 0.40378 0.0
C1013 C 0.30672 0.82467 0.44952 0.0
C1014 C 0.30542 0.85653 0.40442 0.0
C1015 C 0.29995 0.87008 0.42717 0.0
H1016 H 0.49358 0.99142 0.6853 0.0
H1017 H 0.41925 0.03215 0.65552 0.0
H1018 H 0.44022 0.03876 0.6147 0.0
H1019 H 0.47909 0.03176 0.58707 0.0
H1020 H 0.55186 0.98715 0.61529 0.0
H1021 H 0.53239 0.98367 0.65726 0.0
C1022 C 0.48202 0.00174 0.66985 0.0
C1023 C 0.45491 0.01127 0.6734 0.0
C1024 C 0.49405 0.00505 0.64627 0.0
C1025 C 0.44009 0.02446 0.65321 0.0
C1026 C 0.45211 0.0284 0.6299 0.0
C1027 C 0.49089 0.02181 0.60257 0.0
C1028 C 0.51706 0.01023 0.59834 0.0
C1029 C 0.47905 0.01876 0.62621 0.0
C1030 C 0.53181 0.99653 0.61829 0.0
C1031 C 0.5206 0.99439 0.64219 0.0
H1032 H 0.25193 0.08333 0.9474 0.0
H1033 H 0.20995 0.14473 0.99319 0.0
H1034 H 0.20522 0.17764 0.95707 0.0
H1035 H 0.21855 0.19118 0.91394 0.0
H1036 H 0.26026 0.12899 0.86864 0.0
H1037 H 0.25943 0.09405 0.903 0.0
C1038 C 0.24122 0.10367 0.94928 0.0
C1039 C 0.23159 0.11184 0.97284 0.0
C1040 C 0.23885 0.12245 0.92861 0.0
C1041 C 0.21749 0.13804 0.97512 0.0
C1042 C 0.21502 0.15694 0.95457 0.0
C1043 C 0.22709 0.16983 0.9116 0.0
C1044 C 0.23962 0.16267 0.88897 0.0
C1045 C 0.22652 0.14978 0.93148 0.0
C1046 C 0.25039 0.13489 0.8859 0.0
C1047 C 0.25005 0.11496 0.90555 0.0
H1048 H 0.09755 0.00393 0.3137 0.0
H1049 H 0.16558 0.06216 0.32786 0.0
H1050 H 0.14742 0.0749 0.36876 0.0
H1051 H 0.11229 0.06948 0.4004 0.0
H1052 H 0.04721 0.00686 0.38805 0.0
H1053 H 0.06357 0.99683 0.34632 0.0
C1054 C 0.10836 0.01937 0.32579 0.0
C1055 C 0.13281 0.03207 0.31786 0.0
C1056 C 0.09812 0.0262 0.34948 0.0
C1057 C 0.14678 0.05194 0.3337 0.0
C1058 C 0.13635 0.05935 0.35702 0.0
C1059 C 0.10175 0.05341 0.38881 0.0
C1060 C 0.07824 0.03935 0.39761 0.0
C1061 C 0.11205 0.04655 0.36514 0.0
C1062 C 0.06479 0.0189 0.3818 0.0
C1063 C 0.07438 0.01272 0.35792 0.0
H1064 H 0.29577 0.81484 0.62198 0.0
H1065 H 0.27529 0.89691 0.65419 0.0
H1066 H 0.27011 0.87419 0.69545 0.0
H1067 H 0.27223 0.83115 0.72256 0.0
H1068 H 0.29618 0.7498 0.69119 0.0
H1069 H 0.29876 0.77192 0.64929 0.0
C1070 C 0.29019 0.82774 0.63804 0.0
C1071 C 0.28591 0.85751 0.63504 0.0
C1072 C 0.28758 0.81458 0.66177 0.0
C1073 C 0.27883 0.87398 0.65605 0.0
C1074 C 0.27573 0.86098 0.67961 0.0
C1075 C 0.27753 0.81819 0.70643 0.0
C1076 C 0.28353 0.7888 0.70977 0.0
C1077 C 0.28002 0.83131 0.68268 0.0
C1078 C 0.29119 0.7724 0.68894 0.0
C1079 C 0.29281 0.78508 0.66506 0.0
H1080 H 0.4267 0.00239 0.835 0.0
H1081 H 0.50452 0.00406 0.79821 0.0
H1082 H 0.5291 0.99677 0.83899 0.0
H1083 H 0.5283 0.99026 0.88519 0.0
H1084 H 0.45001 0.9902 0.92148 0.0
H1085 H 0.42586 0.99556 0.8807 0.0
C1086 C 0.44906 0.00127 0.83589 0.0
C1087 C 0.46379 0.00396 0.81367 0.0
C1088 C 0.46297 0.9969 0.85928 0.0
C1089 C 0.49273 0.00222 0.8151 0.0
C1090 C 0.50677 0.99794 0.83839 0.0
C1091 C 0.50597 0.99144 0.8842 0.0
C1092 C 0.49111 0.98959 0.9065 0.0
C1093 C 0.49209 0.99528 0.86063 0.0
C1094 C 0.4621 0.99084 0.90471 0.0
C1095 C 0.44819 0.99431 0.88137 0.0
H1096 H 0.30783 0.15662 0.06929 0.0
H1097 H 0.22745 0.14198 0.09913 0.0
H1098 H 0.23399 0.18324 0.12741 0.0
H1099 H 0.26441 0.22021 0.1463 0.0
H1100 H 0.34651 0.23133 0.11959 0.0
H1101 H 0.33739 0.19489 0.08684 0.0
C1102 C 0.2916 0.16266 0.08178 0.0
C1103 C 0.26723 0.1463 0.08228 0.0
C1104 C 0.29585 0.18576 0.09836 0.0
C1105 C 0.24643 0.1542 0.0986 0.0
C1106 C 0.25015 0.17777 0.11469 0.0
C1107 C 0.27995 0.21514 0.13278 0.0
C1108 C 0.30587 0.22855 0.1348 0.0
C1109 C 0.27498 0.1933 0.11504 0.0
C1110 C 0.32631 0.22142 0.11791 0.0
C1111 C 0.32115 0.2005 0.09944 0.0
H1112 H 0.20631 0.00073 0.0801 0.0
H1113 H 0.24445 0.9763 0.01102 0.0
H1114 H 0.21304 0.93572 0.00607 0.0
H1115 H 0.16718 0.91708 0.01476 0.0
H1116 H 0.12704 0.94468 0.08178 0.0
H1117 H 0.16747 0.97215 0.0951 0.0
C1118 C 0.20824 0.98601 0.0644 0.0
C1119 C 0.22677 0.99213 0.0454 0.0
C1120 C 0.18966 0.96305 0.06131 0.0
C1121 C 0.22968 0.9725 0.0255 0.0
C1122 C 0.21177 0.94921 0.02266 0.0
C1123 C 0.16789 0.92797 0.03288 0.0
C1124 C 0.14367 0.93017 0.04644 0.0
C1125 C 0.19046 0.94558 0.03947 0.0
C1126 C 0.14511 0.94324 0.07046 0.0
C1127 C 0.16811 0.95958 0.0779 0.0
H1128 H 0.72331 0.47081 0.04425 0.0
H1129 H 0.69097 0.3907 0.07182 0.0
H1130 H 0.64425 0.4102 0.06915 0.0
H1131 H 0.6123 0.44936 0.05773 0.0
H1132 H 0.64367 0.52808 0.02655 0.0
H1133 H 0.69095 0.50998 0.03199 0.0
C1134 C 0.706 0.45775 0.04975 0.0
C1135 C 0.71053 0.4294 0.05823 0.0
C1136 C 0.67901 0.46887 0.04754 0.0
C1137 C 0.68795 0.41254 0.06509 0.0
C1138 C 0.66124 0.42369 0.06364 0.0
C1139 C 0.62953 0.46266 0.05239 0.0
C1140 C 0.62459 0.49007 0.04198 0.0
C1141 C 0.65649 0.45174 0.05476 0.0
C1142 C 0.64702 0.50689 0.03467 0.0
C1143 C 0.67403 0.49655 0.03774 0.0
H1144 H 0.85145 0.45222 0.28337 0.0
H1145 H 0.89202 0.41498 0.2201 0.0
H1146 H 0.87509 0.36736 0.23148 0.0
H1147 H 0.84847 0.33629 0.2592 0.0
H1148 H 0.80584 0.37376 0.32109 0.0
H1149 H 0.82432 0.42121 0.31082 0.0
C1150 C 0.85643 0.43371 0.27198 0.0
C1151 C 0.8729 0.43717 0.25087 0.0
C1152 C 0.84663 0.40637 0.27864 0.0
C1153 C 0.87925 0.41295 0.23635 0.0
C1154 C 0.86973 0.38567 0.24294 0.0
C1155 C 0.84367 0.35477 0.27071 0.0
C1156 C 0.82622 0.35152 0.29113 0.0
C1157 C 0.85354 0.3821 0.26412 0.0
C1158 C 0.8195 0.37575 0.30546 0.0
C1159 C 0.82989 0.40287 0.29947 0.0
H1160 H 0.87023 0.54211 0.5539 0.0
H1161 H 0.86135 0.54775 0.47265 0.0
H1162 H 0.91096 0.53951 0.46916 0.0
H1163 H 0.95652 0.53135 0.48942 0.0
H1164 H 0.96578 0.52934 0.57083 0.0
H1165 H 0.916 0.53585 0.57419 0.0
C1166 C 0.87918 0.54125 0.53544 0.0
C1167 C 0.86243 0.54508 0.51351 0.0
C1168 C 0.90759 0.53745 0.53369 0.0
C1169 C 0.87408 0.54465 0.4897 0.0
C1170 C 0.90232 0.54001 0.48773 0.0
C1171 C 0.94759 0.53231 0.50788 0.0
C1172 C 0.96454 0.52973 0.52986 0.0
C1173 C 0.91922 0.5365 0.50963 0.0
C1174 C 0.95297 0.53139 0.5537 0.0
C1175 C 0.9246 0.53496 0.55561 0.0
H1176 H 0.23975 0.08457 0.23431 0.0
H1177 H 0.16008 0.12113 0.24886 0.0
H1178 H 0.18132 0.16778 0.25721 0.0
H1179 H 0.22255 0.19767 0.26231 0.0
H1180 H 0.30199 0.16326 0.24473 0.0
H1181 H 0.28096 0.11602 0.23593 0.0
C1182 C 0.22707 0.10285 0.23905 0.0
C1183 C 0.19844 0.09937 0.24116 0.0
C1184 C 0.23942 0.12975 0.24373 0.0
C1185 C 0.18217 0.12324 0.24712 0.0
C1186 C 0.1943 0.14989 0.25208 0.0
C1187 C 0.23525 0.17967 0.25682 0.0
C1188 C 0.26376 0.18338 0.25484 0.0
C1189 C 0.22291 0.15322 0.25091 0.0
C1190 C 0.28001 0.16047 0.24679 0.0
C1191 C 0.26798 0.13363 0.24165 0.0
H1192 H 0.381 0.90076 0.54126 0.0
H1193 H 0.34645 0.98213 0.56292 0.0
H1194 H 0.38823 0.00694 0.54988 0.0
H1195 H 0.43519 0.00509 0.53316 0.0
H1196 H 0.46894 0.92313 0.51186 0.0
H1197 H 0.42658 0.89905 0.52339 0.0
C1198 C 0.38264 0.92392 0.54329 0.0
C1199 C 0.36081 0.93955 0.55331 0.0
C1200 C 0.40642 0.93797 0.53544 0.0
C1201 C 0.3631 0.96959 0.55546 0.0
C1202 C 0.3869 0.98378 0.54788 0.0
C1203 C 0.433 0.98206 0.53058 0.0
C1204 C 0.45512 0.96594 0.52152 0.0
C1205 C 0.40871 0.96818 0.5378 0.0
C1206 C 0.4522 0.93602 0.51871 0.0
C1207 C 0.42805 0.9222 0.52545 0.0
H1208 H 0.83707 0.57607 0.26182 0.0
H1209 H 0.8969 0.61206 0.21245 0.0
H1210 H 0.87358 0.65854 0.21323 0.0
H1211 H 0.83836 0.68992 0.2304 0.0
H1212 H 0.78043 0.6552 0.28228 0.0
H1213 H 0.80054 0.60732 0.27786 0.0
C1214 C 0.84476 0.59404 0.25104 0.0
C1215 C 0.8687 0.5907 0.23718 0.0
C1216 C 0.83162 0.62097 0.25208 0.0
C1217 C 0.8786 0.61417 0.22341 0.0
C1218 C 0.86527 0.64075 0.22382 0.0
C1219 C 0.82984 0.67178 0.24041 0.0
C1220 C 0.80793 0.6761 0.25661 0.0
C1221 C 0.84206 0.64454 0.23842 0.0
C1222 C 0.79734 0.65244 0.26971 0.0
C1223 C 0.80887 0.62507 0.26725 0.0
H1224 H 0.73832 0.45297 0.7866 0.0
H1225 H 0.71403 0.43963 0.7083 0.0
H1226 H 0.73826 0.39345 0.70869 0.0
H1227 H 0.76255 0.35488 0.73262 0.0
H1228 H 0.78791 0.36936 0.81063 0.0
H1229 H 0.7673 0.41715 0.80894 0.0
C1230 C 0.73868 0.44011 0.76954 0.0
C1231 C 0.7242 0.44943 0.74756 0.0
C1232 C 0.75267 0.41371 0.7699 0.0
C1233 C 0.72505 0.43282 0.72547 0.0
C1234 C 0.73875 0.40636 0.72572 0.0
C1235 C 0.76383 0.36865 0.74913 0.0
C1236 C 0.77641 0.35844 0.77179 0.0
C1237 C 0.75204 0.39626 0.74803 0.0
C1238 C 0.77826 0.37665 0.79296 0.0
C1239 C 0.76639 0.40397 0.79206 0.0
H1240 H 0.96353 0.86482 0.97448 0.0
H1241 H 0.96475 0.92123 0.90977 0.0
H1242 H 0.95485 0.96247 0.9366 0.0
H1243 H 0.95933 0.98282 0.97915 0.0
H1244 H 0.96663 0.92652 0.04369 0.0
H1245 H 0.95774 0.88483 0.0166 0.0
C1246 C 0.96085 0.88602 0.96614 0.0
C1247 C 0.9659 0.89032 0.94043 0.0
C1248 C 0.95643 0.90964 0.98185 0.0
C1249 C 0.96186 0.91771 0.92972 0.0
C1250 C 0.95611 0.94121 0.94504 0.0
C1251 C 0.95722 0.96154 0.98737 0.0
C1252 C 0.96384 0.95748 0.0132 0.0
C1253 C 0.9552 0.93763 0.97133 0.0
C1254 C 0.96146 0.92998 0.02382 0.0
C1255 C 0.95709 0.90613 0.00821 0.0
H1256 H 0.93863 0.2668 0.67346 0.0
H1257 H 0.99481 0.27642 0.73793 0.0
H1258 H 0.95587 0.2806 0.76579 0.0
H1259 H 0.90512 0.2809 0.77224 0.0
H1260 H 0.84965 0.27176 0.707 0.0
H1261 H 0.88853 0.26826 0.67963 0.0
C1262 C 0.94241 0.26979 0.6936 0.0
C1263 C 0.96985 0.27115 0.70342 0.0
C1264 C 0.91978 0.27239 0.70964 0.0
C1265 C 0.97407 0.27521 0.72967 0.0
C1266 C 0.9517 0.27764 0.74571 0.0
C1267 C 0.90152 0.27837 0.75204 0.0
C1268 C 0.8741 0.27662 0.742 0.0
C1269 C 0.92434 0.27624 0.73598 0.0
C1270 C 0.87023 0.27317 0.71561 0.0
C1271 C 0.89259 0.2711 0.69974 0.0
H1272 H 0.46244 0.23726 0.44977 0.0
H1273 H 0.5499 0.25387 0.4575 0.0
H1274 H 0.55718 0.20642 0.47679 0.0
H1275 H 0.53877 0.15961 0.48963 0.0
H1276 H 0.45138 0.14303 0.4812 0.0
H1277 H 0.44393 0.19128 0.46379 0.0
C1278 C 0.4831 0.23057 0.45579 0.0
C1279 C 0.50563 0.24892 0.4522 0.0
C1280 C 0.4871 0.20333 0.46659 0.0
C1281 C 0.53225 0.24003 0.46007 0.0
C1282 C 0.53641 0.21295 0.47105 0.0
C1283 C 0.51806 0.16675 0.48434 0.0
C1284 C 0.49563 0.1479 0.48669 0.0
C1285 C 0.51399 0.19436 0.4742 0.0
C1286 C 0.46895 0.15715 0.47935 0.0
C1287 C 0.46469 0.1847 0.46948 0.0
H1288 H 0.60228 0.74722 0.22418 0.0
H1289 H 0.63063 0.78803 0.15664 0.0
H1290 H 0.67794 0.78709 0.17386 0.0
H1291 H 0.71177 0.77507 0.20807 0.0
H1292 H 0.68408 0.73546 0.27635 0.0
H1293 H 0.63656 0.73549 0.25897 0.0
C1294 C 0.61881 0.75593 0.21325 0.0
C1295 C 0.61263 0.7677 0.18903 0.0
C1296 C 0.64633 0.75549 0.22342 0.0
C1297 C 0.6345 0.77888 0.17527 0.0
C1298 C 0.66172 0.77832 0.18512 0.0
C1299 C 0.69541 0.76629 0.21917 0.0
C1300 C 0.70179 0.75515 0.24355 0.0
C1301 C 0.66795 0.76669 0.20915 0.0
C1302 C 0.68002 0.74415 0.25757 0.0
C1303 C 0.65272 0.74418 0.24761 0.0
H1304 H 0.0454 0.16055 0.63778 0.0
H1305 H 0.03603 0.21714 0.57338 0.0
H1306 H 0.03882 0.17608 0.54479 0.0
H1307 H 0.04299 0.12339 0.53779 0.0
H1308 H 0.05159 0.06722 0.60264 0.0
H1309 H 0.0503 0.1084 0.63088 0.0
C1310 C 0.04393 0.16393 0.6175 0.0
C1311 C 0.04039 0.19206 0.60789 0.0
C1312 C 0.04557 0.14009 0.60103 0.0
C1313 C 0.03866 0.19583 0.58145 0.0
C1314 C 0.04032 0.17229 0.56501 0.0
C1315 C 0.04492 0.12021 0.55808 0.0
C1316 C 0.04747 0.09201 0.56789 0.0
C1317 C 0.04374 0.14422 0.57452 0.0
C1318 C 0.04958 0.08849 0.59436 0.0
C1319 C 0.04878 0.11212 0.61066 0.0
H1320 H 0.58887 0.34438 0.41018 0.0
H1321 H 0.54042 0.35819 0.34118 0.0
H1322 H 0.58231 0.3573 0.31691 0.0
H1323 H 0.63215 0.34755 0.31494 0.0
H1324 H 0.67962 0.33106 0.38415 0.0
H1325 H 0.63884 0.33857 0.40859 0.0
C1326 C 0.5875 0.34771 0.38988 0.0
C1327 C 0.56157 0.35111 0.37749 0.0
C1328 C 0.61154 0.3465 0.37601 0.0
C1329 C 0.56015 0.35546 0.35118 0.0
C1330 C 0.58408 0.35478 0.33726 0.0
C1331 C 0.63359 0.34574 0.33537 0.0
C1332 C 0.659 0.33865 0.34759 0.0
C1333 C 0.60981 0.34944 0.34941 0.0
C1334 C 0.66053 0.33686 0.37416 0.0
C1335 C 0.63711 0.3409 0.38821 0.0
H1336 H 0.53195 0.87467 0.14113 0.0
H1337 H 0.51961 0.82221 0.0746 0.0
H1338 H 0.51896 0.86518 0.04789 0.0
H1339 H 0.52262 0.91817 0.04311 0.0
H1340 H 0.53438 0.97021 0.11012 0.0
H1341 H 0.53448 0.92734 0.1365 0.0
C1342 C 0.52903 0.87263 0.1208 0.0
C1343 C 0.52587 0.8451 0.11 0.0
C1344 C 0.52862 0.89756 0.10543 0.0
C1345 C 0.52208 0.84303 0.08355 0.0
C1346 C 0.52174 0.86767 0.06818 0.0
C1347 C 0.52515 0.92014 0.06347 0.0
C1348 C 0.52855 0.94765 0.0744 0.0
C1349 C 0.52511 0.89513 0.07885 0.0
C1350 C 0.53172 0.94954 0.10094 0.0
C1351 C 0.53181 0.92492 0.1162 0.0
H1352 H 0.9319 0.76876 0.87317 0.0
H1353 H 0.97285 0.81686 0.81576 0.0
H1354 H 0.93786 0.80146 0.78405 0.0
H1355 H 0.89244 0.77955 0.77427 0.0
H1356 H 0.85074 0.73403 0.83279 0.0
H1357 H 0.88965 0.7425 0.86239 0.0
C1358 C 0.93331 0.77566 0.85367 0.0
C1359 C 0.95448 0.79431 0.84682 0.0
C1360 C 0.91308 0.76704 0.83577 0.0
C1361 C 0.95644 0.80271 0.82145 0.0
C1362 C 0.9365 0.79391 0.80336 0.0
C1363 C 0.89235 0.77075 0.79327 0.0
C1364 C 0.86889 0.75634 0.8015 0.0
C1365 C 0.91429 0.77674 0.81048 0.0
C1366 C 0.86868 0.74528 0.82619 0.0
C1367 C 0.89077 0.75029 0.84314 0.0
H1368 H 0.96849 0.05195 0.8691 0.0
H1369 H 0.97336 0.96011 0.85862 0.0
H1370 H 1.00078 0.95547 0.8982 0.0
H1371 H 0.01814 0.97686 0.93833 0.0
H1372 H 0.01059 0.0684 0.94938 0.0
H1373 H 0.98944 0.07379 0.90711 0.0
C1374 C 0.97571 0.03093 0.87539 0.0
C1375 C 0.96866 0.0064 0.86117 0.0
C1376 C 0.99072 0.02832 0.89842 0.0
C1377 C 0.97826 0.97931 0.86945 0.0
C1378 C 0.99387 0.97662 0.89208 0.0
C1379 C 0.01254 0.99803 0.93115 0.0
C1380 C 0.01586 0.02219 0.94684 0.0
C1381 C 0.99955 0.00087 0.90709 0.0
C1382 C 0.00812 0.04948 0.93758 0.0
C1383 C 0.99591 0.05258 0.91348 0.0
H1384 H 0.80044 0.19521 0.57167 0.0
H1385 H 0.73835 0.13106 0.58495 0.0
H1386 H 0.72842 0.15348 0.62525 0.0
H1387 H 0.73768 0.19094 0.65688 0.0
H1388 H 0.80308 0.25224 0.6453 0.0
H1389 H 0.8106 0.23193 0.60397 0.0
C1390 C 0.78474 0.1862 0.58341 0.0
C1391 C 0.7702 0.16155 0.57541 0.0
C1392 C 0.77943 0.1989 0.60676 0.0
C1393 C 0.74997 0.14996 0.59081 0.0
C1394 C 0.74419 0.16282 0.61381 0.0
C1395 C 0.75375 0.1998 0.64549 0.0
C1396 C 0.76951 0.22337 0.65439 0.0
C1397 C 0.75889 0.18723 0.62204 0.0
C1398 C 0.78994 0.23468 0.63892 0.0
C1399 C 0.79461 0.2228 0.61529 0.0
H1400 H 0.58419 0.01741 0.36133 0.0
H1401 H 0.65548 0.97164 0.39159 0.0
H1402 H 0.63131 0.96065 0.43004 0.0
H1403 H 0.59143 0.96709 0.45636 0.0
H1404 H 0.52177 0.01693 0.42833 0.0
H1405 H 0.54345 0.02286 0.38757 0.0
C1406 C 0.59428 0.00483 0.37628 0.0
C1407 C 0.62159 0.99541 0.37369 0.0
C1408 C 0.58048 0.99923 0.39869 0.0
C1409 C 0.63454 0.97931 0.39324 0.0
C1410 C 0.6207 0.97293 0.4152 0.0
C1411 C 0.58069 0.97866 0.44112 0.0
C1412 C 0.5549 0.99125 0.4452 0.0
C1413 C 0.59384 0.98313 0.41828 0.0
C1414 C 0.54155 0.00684 0.42552 0.0
C1415 C 0.55403 0.0104 0.4023 0.0
H1416 H 0.77193 0.87326 0.0753 0.0
H1417 H 0.85359 0.90928 0.08472 0.0
H1418 H 0.86251 0.87896 0.12216 0.0
H1419 H 0.84591 0.8437 0.15327 0.0
H1420 H 0.76378 0.80868 0.14297 0.0
H1421 H 0.75642 0.83682 0.10455 0.0
C1422 C 0.79174 0.87444 0.08549 0.0
C1423 C 0.81198 0.89361 0.07749 0.0
C1424 C 0.79666 0.85702 0.10676 0.0
C1425 C 0.83766 0.89467 0.09064 0.0
C1426 C 0.84273 0.87741 0.11203 0.0
C1427 C 0.82649 0.84219 0.14251 0.0
C1428 C 0.8055 0.82401 0.15093 0.0
C1429 C 0.82221 0.85874 0.12044 0.0
C1430 C 0.78048 0.82208 0.13671 0.0
C1431 C 0.77612 0.83837 0.11484 0.0
H1432 H 0.95368 0.95883 0.73097 0.0
H1433 H 0.9889 0.04349 0.74123 0.0
H1434 H 0.01164 0.03924 0.701 0.0
H1435 H 0.01739 0.01372 0.66136 0.0
H1436 H 0.98071 0.92995 0.64995 0.0
H1437 H 0.96225 0.93171 0.69235 0.0
C1438 C 0.9667 0.97616 0.72459 0.0
C1439 C 0.96956 0.0015 0.7389 0.0
C1440 C 0.97906 0.97387 0.7012 0.0
C1441 C 0.98636 0.02383 0.73044 0.0
C1442 C 0.99926 0.02145 0.70744 0.0
C1443 C 0.00593 0.9955 0.66835 0.0
C1444 C 1.00048 0.97166 0.65264 0.0
C1445 C 0.99517 0.99688 0.69244 0.0
C1446 C 0.985 0.94858 0.6617 0.0
C1447 C 0.97453 0.94957 0.6859 0.0
H1448 H 0.77584 0.20999 0.45258 0.0
H1449 H 0.81113 0.13484 0.41871 0.0
H1450 H 0.81909 0.16212 0.38015 0.0
H1451 H 0.81388 0.20653 0.35525 0.0
H1452 H 0.77517 0.2806 0.38761 0.0
H1453 H 0.77117 0.2548 0.42773 0.0
C1454 C 0.78536 0.19964 0.43678 0.0
C1455 C 0.79281 0.1704 0.43849 0.0
C1456 C 0.78948 0.21536 0.41448 0.0
C1457 C 0.80504 0.15725 0.41783 0.0
C1458 C 0.80971 0.17288 0.3958 0.0
C1459 C 0.80515 0.21725 0.37128 0.0
C1460 C 0.79522 0.24559 0.36863 0.0
C1461 C 0.80184 0.20187 0.39385 0.0
C1462 C 0.78323 0.25891 0.38931 0.0
C1463 C 0.78076 0.24409 0.41217 0.0
H1464 H 0.58956 0.04503 0.25272 0.0
H1465 H 0.66814 0.02948 0.21961 0.0
H1466 H 0.64866 0.04241 0.17802 0.0
H1467 H 0.60904 0.05561 0.1508 0.0
H1468 H 0.53016 0.07144 0.18311 0.0
H1469 H 0.55007 0.06103 0.22536 0.0
C1470 C 0.60237 0.04451 0.23638 0.0
C1471 C 0.63017 0.0361 0.23919 0.0
C1472 C 0.59105 0.0521 0.21244 0.0
C1473 C 0.64663 0.03575 0.21792 0.0
C1474 C 0.63554 0.04319 0.19413 0.0
C1475 C 0.59631 0.05754 0.16711 0.0
C1476 C 0.56819 0.06446 0.16381 0.0
C1477 C 0.60777 0.05121 0.19116 0.0
C1478 C 0.55186 0.06607 0.18515 0.0
C1479 C 0.56322 0.06006 0.20928 0.0
H1480 H 0.74755 0.88381 0.95753 0.0
H1481 H 0.83627 0.88618 0.9541 0.0
H1482 H 0.83422 0.85138 0.91937 0.0
H1483 H 0.80684 0.82229 0.8887 0.0
H1484 H 0.7181 0.82268 0.89065 0.0
H1485 H 0.72042 0.85427 0.92766 0.0
C1486 C 0.76648 0.87662 0.94929 0.0
C1487 C 0.79204 0.88754 0.95828 0.0
C1488 C 0.76507 0.85707 0.92923 0.0
C1489 C 0.81636 0.87813 0.94738 0.0
C1490 C 0.81519 0.85823 0.9276 0.0
C1491 C 0.7881 0.82892 0.89762 0.0
C1492 C 0.76233 0.82006 0.88738 0.0
C1493 C 0.78963 0.84776 0.91826 0.0
C1494 C 0.73808 0.82919 0.8985 0.0
C1495 C 0.73944 0.84728 0.9195 0.0
H1496 H 0.84702 0.02368 0.98039 0.0
H1497 H 0.81909 0.03671 0.05593 0.0
H1498 H 0.84927 0.07837 0.06109 0.0
H1499 H 0.89134 0.10234 0.04819 0.0
H1500 H 0.92292 0.08418 0.97483 0.0
H1501 H 0.88238 0.05579 0.96393 0.0
C1502 C 0.84713 0.03603 0.99775 0.0
C1503 C 0.83173 0.02656 0.01809 0.0
C1504 C 0.8651 0.05949 0.00088 0.0
C1505 C 0.83144 0.04313 0.04026 0.0
C1506 C 0.84858 0.06706 0.04319 0.0
C1507 C 0.88883 0.09301 0.02947 0.0
C1508 C 0.91101 0.09381 0.01313 0.0
C1509 C 0.86672 0.07428 0.02421 0.0
C1510 C 0.90675 0.0832 0.98835 0.0
C1511 C 0.88373 0.06627 0.98221 0.0
H1512 H 0.38155 0.6063 0.98938 0.0
H1513 H 0.34133 0.53237 0.02058 0.0
H1514 H 0.38615 0.50859 0.0277 0.0
H1515 H 0.4373 0.50986 0.02636 0.0
H1516 H 0.47622 0.58275 0.9918 0.0
H1517 H 0.43153 0.60582 0.98464 0.0
C1518 C 0.38263 0.58491 0.99761 0.0
C1519 C 0.35833 0.57117 0.00466 0.0
C1520 C 0.40828 0.57123 0.0011 0.0
C1521 C 0.35986 0.54331 0.01498 0.0
C1522 C 0.38546 0.52979 0.01914 0.0
C1523 C 0.43587 0.53071 0.01717 0.0
C1524 C 0.46003 0.54464 0.00976 0.0
C1525 C 0.40989 0.54368 0.01251 0.0
C1526 C 0.45793 0.57152 0.99761 0.0
C1527 C 0.43238 0.58481 0.99356 0.0
H1528 H 0.17557 0.6122 0.79904 0.0
H1529 H 0.25085 0.56718 0.8201 0.0
H1530 H 0.2778 0.60972 0.80998 0.0
H1531 H 0.28013 0.65943 0.7948 0.0
H1532 H 0.20509 0.7057 0.77578 0.0
H1533 H 0.17787 0.66279 0.78504 0.0
C1534 C 0.19786 0.61181 0.80162 0.0
C1535 C 0.21118 0.58656 0.81034 0.0
C1536 C 0.21327 0.63639 0.79575 0.0
C1537 C 0.24007 0.58636 0.81355 0.0
C1538 C 0.25552 0.61062 0.8076 0.0
C1539 C 0.25783 0.66 0.79231 0.0
C1540 C 0.24463 0.68551 0.78419 0.0
C1541 C 0.24237 0.63563 0.79847 0.0
C1542 C 0.2157 0.68618 0.78174 0.0
C1543 C 0.20016 0.66173 0.78718 0.0
H1544 H 0.21661 0.44522 0.49239 0.0
H1545 H 0.22082 0.43749 0.57372 0.0
H1546 H 0.17651 0.46228 0.57607 0.0
H1547 H 0.13676 0.48598 0.55487 0.0
H1548 H 0.1319 0.49176 0.47344 0.0
H1549 H 0.17688 0.46836 0.47124 0.0
C1550 C 0.20776 0.44881 0.51063 0.0
C1551 C 0.22182 0.43957 0.53285 0.0
C1552 C 0.18251 0.46309 0.5118 0.0
C1553 C 0.21019 0.4443 0.55636 0.0
C1554 C 0.18502 0.45863 0.55772 0.0
C1555 C 0.14581 0.48252 0.53669 0.0
C1556 C 0.13138 0.49078 0.51435 0.0
C1557 C 0.17113 0.46827 0.53556 0.0
C1558 C 0.14287 0.48567 0.49085 0.0
C1559 C 0.16842 0.47218 0.48959 0.0
H1560 H 0.86244 0.94653 0.7498 0.0
H1561 H 0.84657 0.9479 0.82947 0.0
H1562 H 0.8207 0.90285 0.82513 0.0
H1563 H 0.8073 0.86086 0.79967 0.0
H1564 H 0.82653 0.85793 0.72071 0.0
H1565 H 0.84635 0.90617 0.72377 0.0
C1566 C 0.85295 0.93723 0.76616 0.0
C1567 C 0.85651 0.95032 0.78996 0.0
C1568 C 0.839 0.911 0.76367 0.0
C1569 C 0.84415 0.93808 0.81098 0.0
C1570 C 0.82948 0.91232 0.80851 0.0
C1571 C 0.81547 0.87092 0.78301 0.0
C1572 C 0.81569 0.8558 0.76003 0.0
C1573 C 0.82749 0.89822 0.78509 0.0
C1574 C 0.82636 0.86907 0.73865 0.0
C1575 C 0.83769 0.89661 0.7404 0.0
H1576 H 0.71598 0.04808 0.51591 0.0
H1577 H 0.68285 0.12679 0.48384 0.0
H1578 H 0.63594 0.10978 0.49031 0.0
H1579 H 0.60438 0.07297 0.50589 0.0
H1580 H 0.63768 0.99446 0.53838 0.0
H1581 H 0.68444 0.0112 0.53129 0.0
C1582 C 0.69848 0.06136 0.51003 0.0
C1583 C 0.70288 0.08857 0.49925 0.0
C1584 C 0.6716 0.05168 0.51427 0.0
C1585 C 0.68 0.10568 0.49206 0.0
C1586 C 0.65318 0.09605 0.49589 0.0
C1587 C 0.62186 0.05962 0.51166 0.0
C1588 C 0.61748 0.03256 0.52281 0.0
C1589 C 0.64874 0.06922 0.50725 0.0
C1590 C 0.64041 0.01543 0.52987 0.0
C1591 C 0.66719 0.02492 0.5257 0.0
H1592 H 0.19282 0.40914 0.83257 0.0
H1593 H 0.24198 0.45197 0.77763 0.0
H1594 H 0.26911 0.40826 0.77245 0.0
H1595 H 0.27754 0.35733 0.78211 0.0
H1596 H 0.22917 0.31461 0.83781 0.0
H1597 H 0.20343 0.35893 0.84441 0.0
C1598 C 0.2095 0.40886 0.8195 0.0
C1599 C 0.21521 0.43362 0.80531 0.0
C1600 C 0.22526 0.38375 0.81685 0.0
C1601 C 0.23712 0.43314 0.7887 0.0
C1602 C 0.25265 0.40816 0.78573 0.0
C1603 C 0.26156 0.35776 0.7959 0.0
C1604 C 0.25521 0.3326 0.80932 0.0
C1605 C 0.24675 0.38327 0.79954 0.0
C1606 C 0.23455 0.33364 0.82722 0.0
C1607 C 0.21967 0.35895 0.83092 0.0
H1608 H 0.3393 0.58229 0.28625 0.0
H1609 H 0.40905 0.61638 0.32943 0.0
H1610 H 0.38665 0.66348 0.33083 0.0
H1611 H 0.34868 0.6957 0.31721 0.0
H1612 H 0.28086 0.66236 0.27101 0.0
H1613 H 0.30084 0.61411 0.27362 0.0
C1614 C 0.34947 0.59997 0.29617 0.0
C1615 C 0.37578 0.59594 0.30768 0.0
C1616 C 0.33678 0.62709 0.29635 0.0
C1617 C 0.38883 0.61904 0.32032 0.0
C1618 C 0.37602 0.64594 0.32115 0.0
C1619 C 0.33805 0.67774 0.30813 0.0
C1620 C 0.31328 0.68246 0.29406 0.0
C1621 C 0.35018 0.65031 0.30892 0.0
C1622 C 0.29994 0.65917 0.28197 0.0
C1623 C 0.31139 0.63163 0.28338 0.0
H1624 H 0.60106 0.65775 0.57637 0.0
H1625 H 0.6112 0.59634 0.63728 0.0
H1626 H 0.61253 0.5571 0.60668 0.0
H1627 H 0.59618 0.54053 0.56514 0.0
H1628 H 0.57277 0.60222 0.50742 0.0
H1629 H 0.59258 0.64108 0.53333 0.0
C1630 C 0.60448 0.63586 0.58292 0.0
C1631 C 0.60521 0.6297 0.60896 0.0
C1632 C 0.6027 0.61343 0.56543 0.0
C1633 C 0.61006 0.60142 0.61728 0.0
C1634 C 0.6107 0.57902 0.59978 0.0
C1635 C 0.59685 0.56234 0.55776 0.0
C1636 C 0.58306 0.56883 0.53463 0.0
C1637 C 0.60491 0.58469 0.57404 0.0
C1638 C 0.58346 0.59697 0.52517 0.0
C1639 C 0.5943 0.61915 0.54023 0.0
H1640 H 0.6493 0.27207 0.88313 0.0
H1641 H 0.60103 0.25481 0.81476 0.0
H1642 H 0.64308 0.25249 0.79084 0.0
H1643 H 0.69398 0.25608 0.78886 0.0
H1644 H 0.74214 0.27362 0.85732 0.0
H1645 H 0.70019 0.27497 0.88128 0.0
C1646 C 0.64795 0.26775 0.863 0.0
C1647 C 0.62176 0.26366 0.8509 0.0
C1648 C 0.67242 0.26646 0.84919 0.0
C1649 C 0.62069 0.25808 0.82473 0.0
C1650 C 0.64484 0.25674 0.81095 0.0
C1651 C 0.69537 0.26004 0.80904 0.0
C1652 C 0.72153 0.26471 0.82108 0.0
C1653 C 0.6709 0.26097 0.82291 0.0
C1654 C 0.72256 0.26993 0.84733 0.0
C1655 C 0.69844 0.27075 0.86115 0.0
H1656 H 0.03555 0.28769 0.14446 0.0
H1657 H 0.03495 0.23482 0.07755 0.0
H1658 H 0.03833 0.27782 0.05111 0.0
H1659 H 0.04582 0.33002 0.04755 0.0
H1660 H 0.04628 0.38235 0.1149 0.0
H1661 H 0.03938 0.33977 0.14068 0.0
C1662 C 0.03568 0.28558 0.12405 0.0
C1663 C 0.03516 0.25819 0.11296 0.0
C1664 C 0.03833 0.3102 0.10911 0.0
C1665 C 0.0353 0.25575 0.08652 0.0
C1666 C 0.03748 0.28029 0.07142 0.0
C1667 C 0.04413 0.33214 0.06783 0.0
C1668 C 0.04712 0.3593 0.07929 0.0
C1669 C 0.03976 0.30757 0.08259 0.0
C1670 C 0.04494 0.36163 0.10563 0.0
C1671 C 0.04064 0.33733 0.12039 0.0
H1672 H 0.96891 0.7786 0.32157 0.0
H1673 H 0.94306 0.74702 0.3936 0.0
H1674 H 0.89529 0.7454 0.3776 0.0
H1675 H 0.86022 0.75276 0.34319 0.0
H1676 H 0.88548 0.78489 0.27114 0.0
H1677 H 0.93343 0.78652 0.28703 0.0
C1678 C 0.95284 0.77132 0.33374 0.0
C1679 C 0.95988 0.76289 0.35885 0.0
C1680 C 0.92499 0.77058 0.32441 0.0
C1681 C 0.93853 0.75365 0.37426 0.0
C1682 C 0.91104 0.75271 0.3651 0.0
C1683 C 0.87615 0.7602 0.33093 0.0
C1684 C 0.8689 0.7687 0.3059 0.0
C1685 C 0.90393 0.76113 0.34022 0.0
C1686 C 0.89013 0.77824 0.29046 0.0
C1687 C 0.91773 0.77914 0.29955 0.0
H1688 H 0.53088 0.33376 0.96239 0.0
H1689 H 0.55861 0.37437 0.89459 0.0
H1690 H 0.55712 0.42145 0.91507 0.0
H1691 H 0.54847 0.45135 0.95263 0.0
H1692 H 0.5199 0.41042 0.02008 0.0
H1693 H 0.52103 0.36367 -0.00061 0.0
C1694 C 0.53662 0.3529 0.95208 0.0
C1695 C 0.54498 0.35037 0.92695 0.0
C1696 C 0.53548 0.38006 0.96394 0.0
C1697 C 0.55215 0.37554 0.91392 0.0
C1698 C 0.55129 0.40255 0.92565 0.0
C1699 C 0.54233 0.43225 0.96278 0.0
C1700 C 0.5341 0.43468 0.988 0.0
C1701 C 0.54302 0.40513 0.9507 0.0
C1702 C 0.52628 0.40948 0.00071 0.0
C1703 C 0.52699 0.38258 0.98889 0.0
H1704 H 0.99905 0.17336 0.22953 0.0
H1705 H 0.95858 0.17356 0.15551 0.0
H1706 H 0.91418 0.18209 0.17441 0.0
H1707 H 0.88835 0.19616 0.21123 0.0
H1708 H 0.92854 0.19505 0.28548 0.0
H1709 H 0.9717 0.18055 0.26708 0.0
C1710 C 0.98042 0.17468 0.21758 0.0
C1711 C 0.98212 0.17321 0.19116 0.0
C1712 C 0.95504 0.18001 0.22854 0.0
C1713 C 0.95782 0.17471 0.17591 0.0
C1714 C 0.93245 0.1798 0.18669 0.0
C1715 C 0.90626 0.19202 0.22357 0.0
C1716 C 0.90519 0.19727 0.24971 0.0
C1717 C 0.931 0.18348 0.2129 0.0
C1718 C 0.92888 0.192 0.26522 0.0
C1719 C 0.95356 0.1835 0.25474 0.0
H1720 H 0.05531 0.7006 0.46624 0.0
H1721 H 0.04052 0.66058 0.39352 0.0
H1722 H 0.04248 0.61312 0.41327 0.0
H1723 H 0.04757 0.58261 0.45112 0.0
H1724 H 0.06252 0.6219 0.52412 0.0
H1725 H 0.06148 0.66962 0.5044 0.0
C1726 C 0.05256 0.68149 0.45471 0.0
C1727 C 0.0477 0.68436 0.42833 0.0
C1728 C 0.05378 0.65396 0.46627 0.0
C1729 C 0.04427 0.65922 0.41379 0.0
C1730 C 0.04538 0.63195 0.4251 0.0
C1731 C 0.05074 0.60156 0.4628 0.0
C1732 C 0.05511 0.59842 0.4892 0.0
C1733 C 0.05003 0.62902 0.45131 0.0
C1734 C 0.05915 0.62344 0.50382 0.0
C1735 C 0.05849 0.65083 0.49252 0.0
H1736 H 0.64702 0.74804 0.66364 0.0
H1737 H 0.60874 0.72315 0.73263 0.0
H1738 H 0.64643 0.74558 0.75752 0.0
H1739 H 0.69298 0.76623 0.75926 0.0
H1740 H 0.73216 0.78828 0.68995 0.0
H1741 H 0.69086 0.77376 0.66547 0.0
C1742 C 0.64682 0.74775 0.68413 0.0
C1743 C 0.6256 0.73352 0.69638 0.0
C1744 C 0.66857 0.76032 0.69818 0.0
C1745 C 0.62516 0.73373 0.72287 0.0
C1746 C 0.64664 0.74656 0.73707 0.0
C1747 C 0.69214 0.76868 0.73885 0.0
C1748 C 0.71553 0.778 0.72633 0.0
C1749 C 0.66883 0.75915 0.72489 0.0
C1750 C 0.71435 0.78095 0.69991 0.0
C1751 C 0.69087 0.77245 0.68592 0.0
H1752 H 0.59775 0.54928 0.68833 0.0
H1753 H 0.62028 0.45956 0.68605 0.0
H1754 H 0.59121 0.453 0.64778 0.0
H1755 H 0.56162 0.47342 0.61375 0.0
H1756 H 0.53748 0.56264 0.61669 0.0
H1757 H 0.56461 0.56871 0.65622 0.0
C1758 C 0.59609 0.52828 0.67951 0.0
C1759 C 0.61123 0.50498 0.68976 0.0
C1760 C 0.57901 0.52458 0.65777 0.0
C1761 C 0.60875 0.47778 0.67843 0.0
C1762 C 0.59221 0.47404 0.65655 0.0
C1763 C 0.562 0.49408 0.62326 0.0
C1764 C 0.54765 0.51755 0.6124 0.0
C1765 C 0.57754 0.49736 0.64591 0.0
C1766 C 0.54816 0.54419 0.62488 0.0
C1767 C 0.56384 0.54772 0.64735 0.0
H1768 H 0.83195 0.37742 0.98789 0.0
H1769 H 0.76827 0.31588 0.00339 0.0
H1770 H 0.77503 0.29266 0.96254 0.0
H1771 H 0.79717 0.29192 0.92179 0.0
H1772 H 0.86424 0.35057 0.90815 0.0
H1773 H 0.85765 0.37322 0.94893 0.0
C1774 C 0.81962 0.35886 0.98229 0.0
C1775 C 0.79939 0.34851 0.99832 0.0
C1776 C 0.8241 0.34531 0.95916 0.0
C1777 C 0.78389 0.32418 0.99123 0.0
C1778 C 0.78773 0.311 0.9679 0.0
C1779 C 0.81098 0.30911 0.92783 0.0
C1780 C 0.83109 0.31953 0.91151 0.0
C1781 C 0.80763 0.32156 0.95164 0.0
C1782 C 0.84816 0.34239 0.91983 0.0
C1783 C 0.84454 0.35529 0.94329 0.0
H1784 H 0.99244 0.50426 0.18434 0.0
H1785 H 0.9158 0.53534 0.15037 0.0
H1786 H 0.93772 0.54168 0.10997 0.0
H1787 H 0.97792 0.53589 0.08367 0.0
H1788 H 0.05314 0.50009 0.11624 0.0
H1789 H 0.03287 0.49868 0.15796 0.0
C1790 C 0.98061 0.5125 0.16809 0.0
C1791 C 0.95255 0.51923 0.17028 0.0
C1792 C 0.99321 0.51555 0.14477 0.0
C1793 C 0.93738 0.52977 0.14908 0.0
C1794 C 0.94993 0.53356 0.12601 0.0
C1795 C 0.99005 0.52852 0.10009 0.0
C1796 C 0.01711 0.51871 0.09719 0.0
C1797 C 0.97777 0.52634 0.12359 0.0
C1798 C 0.03239 0.50818 0.11828 0.0
C1799 C 0.02073 0.50714 0.14201 0.0
H1800 H 0.75267 0.65484 0.48078 0.0
H1801 H 0.75451 0.5777 0.43563 0.0
H1802 H 0.74948 0.60637 0.39709 0.0
H1803 H 0.74974 0.6532 0.37636 0.0
H1804 H 0.74787 0.73075 0.42098 0.0
H1805 H 0.74804 0.70196 0.4597 0.0
C1806 C 0.75153 0.64431 0.46251 0.0
C1807 C 0.75422 0.61425 0.46101 0.0
C1808 C 0.74904 0.66096 0.44038 0.0
C1809 C 0.75263 0.60083 0.43726 0.0
C1810 C 0.74985 0.61721 0.41521 0.0
C1811 C 0.74861 0.66391 0.39447 0.0
C1812 C 0.74894 0.69413 0.39572 0.0
C1813 C 0.74876 0.64729 0.41656 0.0
C1814 C 0.74807 0.70753 0.41948 0.0
C1815 C 0.74806 0.69108 0.44162 0.0
H1816 H 0.64888 0.55893 0.82948 0.0
H1817 H 0.60408 0.4805 0.81342 0.0
H1818 H 0.58049 0.48502 0.8533 0.0
H1819 H 0.57377 0.51054 0.89292 0.0
H1820 H 0.61659 0.59056 0.90787 0.0
H1821 H 0.64014 0.58595 0.86811 0.0
C1822 C 0.634 0.54279 0.83477 0.0
C1823 C 0.62834 0.51926 0.81876 0.0
C1824 C 0.62024 0.54583 0.8574 0.0
C1825 C 0.60876 0.49872 0.82555 0.0
C1826 C 0.59531 0.50132 0.84829 0.0
C1827 C 0.58777 0.52737 0.8873 0.0
C1828 C 0.5933 0.55094 0.90339 0.0
C1829 C 0.60093 0.52478 0.86434 0.0
C1830 C 0.61213 0.57206 0.89601 0.0
C1831 C 0.62554 0.56949 0.87325 0.0
H1832 H 0.78701 0.3153 0.12843 0.0
H1833 H 0.7707 0.40105 0.15505 0.0
H1834 H 0.76141 0.38204 0.19695 0.0
H1835 H 0.75983 0.34121 0.22665 0.0
H1836 H 0.7792 0.256 0.20076 0.0
H1837 H 0.78477 0.27444 0.15792 0.0
C1838 C 0.78141 0.32982 0.1434 0.0
C1839 C 0.77969 0.35957 0.13862 0.0
C1840 C 0.7763 0.31875 0.16754 0.0
C1841 C 0.77237 0.37808 0.15824 0.0
C1842 C 0.76691 0.36721 0.18219 0.0
C1843 C 0.7646 0.32663 0.21146 0.0
C1844 C 0.76864 0.29723 0.2167 0.0
C1845 C 0.7689 0.3376 0.18711 0.0
C1846 C 0.77567 0.27867 0.19705 0.0
C1847 C 0.77908 0.28924 0.17263 0.0
H1848 H 0.962 0.46594 0.30815 0.0
H1849 H 0.97297 0.55803 0.30679 0.0
H1850 H 0.99686 0.55612 0.34829 0.0
H1851 H 0.0121 0.52868 0.38585 0.0
H1852 H 0.99857 0.43707 0.38865 0.0
H1853 H 0.97796 0.4383 0.34563 0.0
C1854 C 0.96995 0.48552 0.31683 0.0
C1855 C 0.9659 0.51208 0.30447 0.0
C1856 C 0.98292 0.48433 0.34096 0.0
C1857 C 0.9759 0.53736 0.316 0.0
C1858 C 0.98949 0.53627 0.33971 0.0
C1859 C 0.005 0.50893 0.37687 0.0
C1860 C 0.007 0.48277 0.3902 0.0
C1861 C 0.99276 0.50994 0.35248 0.0
C1862 C 0.99718 0.45742 0.37867 0.0
C1863 C 0.98547 0.45814 0.35412 0.0
H1864 H 0.76274 0.64892 0.57923 0.0
H1865 H 0.84228 0.60766 0.58807 0.0
H1866 H 0.85776 0.64456 0.61793 0.0
H1867 H 0.84853 0.68773 0.64235 0.0
H1868 H 0.76817 0.72761 0.6357 0.0
H1869 H 0.75375 0.69293 0.60344 0.0
C1870 C 0.78339 0.64797 0.58782 0.0
C1871 C 0.80121 0.62547 0.58163 0.0
C1872 C 0.79226 0.66933 0.60502 0.0
C1873 C 0.82804 0.62466 0.59266 0.0
C1874 C 0.837 0.64583 0.60966 0.0
C1875 C 0.82786 0.68889 0.63387 0.0
C1876 C 0.80955 0.71029 0.64159 0.0
C1877 C 0.81926 0.66818 0.61606 0.0
C1878 C 0.78299 0.71175 0.62992 0.0
C1879 C 0.77451 0.69161 0.61169 0.0
H1880 H 0.71465 0.50978 0.57072 0.0
H1881 H 0.74273 0.47594 0.50037 0.0
H1882 H 0.70554 0.4407 0.49926 0.0
H1883 H 0.65984 0.42705 0.51352 0.0
H1884 H 0.63082 0.46272 0.58284 0.0
H1885 H 0.67408 0.48825 0.58981 0.0
C1886 C 0.71293 0.49426 0.55547 0.0
C1887 C 0.73078 0.49599 0.5353 0.0
C1888 C 0.69133 0.47419 0.5548 0.0
C1889 C 0.72883 0.47538 0.51591 0.0
C1890 C 0.70759 0.45518 0.51524 0.0
C1891 C 0.66348 0.43953 0.53063 0.0
C1892 C 0.64191 0.44352 0.54721 0.0
C1893 C 0.68791 0.4554 0.53391 0.0
C1894 C 0.647 0.45927 0.56962 0.0
C1895 C 0.67162 0.4744 0.57343 0.0
H1896 H 0.2189 0.96811 0.53838 0.0
H1897 H 0.18892 0.89338 0.57723 0.0
H1898 H 0.14193 0.91234 0.57399 0.0
H1899 H 0.10917 0.94952 0.55915 0.0
H1900 H 0.13854 0.02266 0.51767 0.0
H1901 H 0.18593 0.00507 0.52296 0.0
C1902 C 0.20207 0.95608 0.54622 0.0
C1903 C 0.20733 0.92945 0.55807 0.0
C1904 C 0.17501 0.96682 0.5438 0.0
C1905 C 0.18534 0.91391 0.56795 0.0
C1906 C 0.15848 0.92475 0.56614 0.0
C1907 C 0.12599 0.96171 0.55145 0.0
C1908 C 0.12041 0.98741 0.53817 0.0
C1909 C 0.15305 0.9511 0.55399 0.0
C1910 C 0.14233 0.00279 0.52797 0.0
C1911 C 0.16942 0.99275 0.53098 0.0
H1912 H 0.41204 0.90589 0.76272 0.0
H1913 H 0.33581 0.95192 0.74802 0.0
H1914 H 0.30958 0.91024 0.76166 0.0
H1915 H 0.30818 0.86072 0.77747 0.0
H1916 H 0.38401 0.8136 0.79049 0.0
H1917 H 0.41057 0.8559 0.77832 0.0
C1918 C 0.38968 0.90671 0.76234 0.0
C1919 C 0.3759 0.93194 0.75427 0.0
C1920 C 0.37469 0.88265 0.77031 0.0
C1921 C 0.34693 0.93272 0.75401 0.0
C1922 C 0.33191 0.90895 0.76196 0.0
C1923 C 0.33055 0.85987 0.77811 0.0
C1924 C 0.34415 0.83422 0.78525 0.0
C1925 C 0.34557 0.88389 0.77029 0.0
C1926 C 0.3731 0.83321 0.78532 0.0
C1927 C 0.38826 0.85731 0.77818 0.0
H1928 H 0.35025 0.04535 0.00881 0.0
H1929 H 0.34783 0.06082 0.08899 0.0
H1930 H 0.39797 0.05446 0.09322 0.0
H1931 H 0.44256 0.046 0.0735 0.0
H1932 H 0.44359 0.02916 0.99331 0.0
H1933 H 0.39376 0.03466 0.98969 0.0
C1934 C 0.3607 0.04723 0.02723 0.0
C1935 C 0.34564 0.05371 0.04851 0.0
C1936 C 0.3892 0.04346 0.02947 0.0
C1937 C 0.3592 0.05578 0.07235 0.0
C1938 C 0.38779 0.05229 0.07474 0.0
C1939 C 0.4318 0.0436 0.05529 0.0
C1940 C 0.44663 0.0374 0.03371 0.0
C1941 C 0.40303 0.04641 0.05335 0.0
C1942 C 0.43255 0.03393 0.01022 0.0
C1943 C 0.40409 0.03709 0.00809 0.0
H1944 H 0.74471 0.58369 0.74345 0.0
H1945 H 0.6644 0.61862 0.75805 0.0
H1946 H 0.68492 0.66531 0.76764 0.0
H1947 H 0.72556 0.69617 0.7724 0.0
H1948 H 0.80551 0.66323 0.75461 0.0
H1949 H 0.78544 0.61555 0.74624 0.0
C1950 C 0.73174 0.60161 0.74853 0.0
C1951 C 0.70313 0.5977 0.75012 0.0
C1952 C 0.74367 0.62853 0.75392 0.0
C1953 C 0.6865 0.62108 0.75665 0.0
C1954 C 0.69821 0.64776 0.76232 0.0
C1955 C 0.7386 0.67835 0.76713 0.0
C1956 C 0.76695 0.68271 0.76472 0.0
C1957 C 0.72676 0.65161 0.7613 0.0
C1958 C 0.78364 0.65997 0.75697 0.0
C1959 C 0.77215 0.63289 0.75202 0.0
H1960 H 0.8542 0.46466 0.03977 0.0
H1961 H 0.88837 0.39119 0.07997 0.0
H1962 H 0.93462 0.40476 0.06787 0.0
H1963 H 0.96529 0.43676 0.04544 0.0
H1964 H 0.93202 0.511 0.00579 0.0
H1965 H 0.88543 0.49755 0.01774 0.0
C1966 C 0.87182 0.45185 0.04614 0.0
C1967 C 0.86782 0.427 0.06086 0.0
C1968 C 0.89845 0.4596 0.03885 0.0
C1969 C 0.89085 0.41047 0.06873 0.0
C1970 C 0.91731 0.41811 0.06169 0.0
C1971 C 0.94785 0.44988 0.0391 0.0
C1972 C 0.95215 0.47469 0.02446 0.0
C1973 C 0.92131 0.44241 0.04653 0.0
C1974 C 0.92929 0.49165 0.01687 0.0
C1975 C 0.90267 0.48407 0.02384 0.0
H1976 H 0.3434 0.07155 0.75973 0.0
H1977 H 0.41685 0.11292 0.734 0.0
H1978 H 0.39415 0.15986 0.73591 0.0
H1979 H 0.35409 0.18937 0.74703 0.0
H1980 H 0.28222 0.14789 0.77587 0.0
H1981 H 0.3034 0.10074 0.77026 0.0
C1982 C 0.35439 0.09083 0.75441 0.0
C1983 C 0.38176 0.0888 0.74678 0.0
C1984 C 0.34141 0.11771 0.75601 0.0
C1985 C 0.3958 0.11396 0.74007 0.0
C1986 C 0.38281 0.14078 0.74109 0.0
C1987 C 0.34294 0.16993 0.75163 0.0
C1988 C 0.31657 0.17198 0.76162 0.0
C1989 C 0.35569 0.14295 0.74925 0.0
C1990 C 0.30251 0.14675 0.76805 0.0
C1991 C 0.31465 0.11983 0.76495 0.0
H1992 H 0.24015 0.9542 0.26561 0.0
H1993 H 0.16617 0.91724 0.23153 0.0
H1994 H 0.18821 0.87004 0.23073 0.0
H1995 H 0.22765 0.83882 0.24151 0.0
H1996 H 0.29996 0.87439 0.2796 0.0
H1997 H 0.27972 0.92266 0.27679 0.0
C1998 C 0.22897 0.93579 0.25795 0.0
C1999 C 0.20162 0.93909 0.24868 0.0
C2000 C 0.24154 0.90854 0.25816 0.0
C2001 C 0.1872 0.91511 0.23895 0.0
C2002 C 0.19981 0.88816 0.23839 0.0
C2003 C 0.23914 0.85726 0.24876 0.0
C2004 C 0.26535 0.85328 0.2604 0.0
C2005 C 0.22688 0.88459 0.2481 0.0
C2006 C 0.2798 0.87711 0.27037 0.0
C2007 C 0.26819 0.90462 0.26887 0.0
H2008 H 0.46654 0.36188 0.49651 0.0
H2009 H 0.44856 0.41982 0.43421 0.0
H2010 H 0.43562 0.45729 0.4638 0.0
H2011 H 0.44192 0.47664 0.50659 0.0
H2012 H 0.46807 0.42068 0.56771 0.0
H2013 H 0.46303 0.37895 0.54003 0.0
C2014 C 0.45939 0.38258 0.48939 0.0
C2015 C 0.4594 0.38848 0.46333 0.0
C2016 C 0.45304 0.40431 0.50651 0.0
C2017 C 0.44942 0.41507 0.45428 0.0
C2018 C 0.44195 0.43648 0.47118 0.0
C2019 C 0.44488 0.45508 0.51415 0.0
C2020 C 0.45634 0.45164 0.53875 0.0
C2021 C 0.44527 0.43184 0.49733 0.0
C2022 C 0.4596 0.42377 0.54866 0.0
C2023 C 0.45758 0.40002 0.53258 0.0
H2024 H 0.46833 0.78672 0.22562 0.0
H2025 H 0.43374 0.74668 0.15814 0.0
H2026 H 0.38835 0.74588 0.17635 0.0
H2027 H 0.35789 0.75625 0.21134 0.0
H2028 H 0.39181 0.79524 0.27952 0.0
H2029 H 0.43746 0.79674 0.26126 0.0
C2030 C 0.45087 0.7778 0.21491 0.0
C2031 C 0.45476 0.76677 0.19038 0.0
C2032 C 0.42443 0.77723 0.22566 0.0
C2033 C 0.43168 0.7553 0.17696 0.0
C2034 C 0.40554 0.75485 0.18739 0.0
C2035 C 0.37519 0.76518 0.22227 0.0
C2036 C 0.37107 0.77571 0.24689 0.0
C2037 C 0.40159 0.76574 0.2117 0.0
C2038 C 0.39407 0.78699 0.26059 0.0
C2039 C 0.42032 0.78784 0.25012 0.0
H2040 H 0.01962 0.7231 0.9086 0.0
H2041 H 0.02345 0.76875 0.97954 0.0
H2042 H 0.02211 0.72316 0.00258 0.0
H2043 H 0.01772 0.67054 0.00242 0.0
H2044 H 0.01499 0.62513 0.93127 0.0
H2045 H 0.01728 0.67056 0.90848 0.0
C2046 C 0.02044 0.72307 0.92911 0.0
C2047 C 0.02162 0.74919 0.94236 0.0
C2048 C 0.01935 0.69688 0.94219 0.0
C2049 C 0.0226 0.74886 0.96892 0.0
C2050 C 0.02169 0.72283 0.9821 0.0
C2051 C 0.01788 0.67054 0.98194 0.0
C2052 C 0.01589 0.64442 0.96862 0.0
C2053 C 0.01972 0.69674 0.96891 0.0
C2054 C 0.01582 0.64491 0.94204 0.0
C2055 C 0.01745 0.67087 0.92896 0.0
H2056 H 0.11045 0.23487 0.72061 0.0
H2057 H 0.13883 0.28672 0.65915 0.0
H2058 H 0.18568 0.28612 0.6779 0.0
H2059 H 0.21883 0.2718 0.71246 0.0
H2060 H 0.19 0.22039 0.77411 0.0
H2061 H 0.14364 0.21983 0.75463 0.0
C2062 C 0.12689 0.24598 0.71126 0.0
C2063 C 0.12092 0.26085 0.68844 0.0
C2064 C 0.15395 0.24564 0.72224 0.0
C2065 C 0.14264 0.2751 0.6767 0.0
C2066 C 0.16955 0.27477 0.68744 0.0
C2067 C 0.20248 0.2603 0.72156 0.0
C2068 C 0.20818 0.24616 0.74483 0.0
C2069 C 0.1755 0.26022 0.7103 0.0
C2070 C 0.18647 0.23152 0.75627 0.0
C2071 C 0.1598 0.23119 0.74513 0.0
H2072 H 0.54225 0.66333 0.13784 0.0
H2073 H 0.5397 0.71933 0.07274 0.0
H2074 H 0.54448 0.67797 0.04486 0.0
H2075 H 0.54813 0.62525 0.03858 0.0
H2076 H 0.5499 0.56952 0.10395 0.0
H2077 H 0.54696 0.61101 0.1317 0.0
C2078 C 0.54279 0.6665 0.11757 0.0
C2079 C 0.54052 0.69453 0.10752 0.0
C2080 C 0.5455 0.64248 0.1015 0.0
C2081 C 0.54132 0.69808 0.08112 0.0
C2082 C 0.5441 0.67437 0.06508 0.0
C2083 C 0.5482 0.62222 0.0589 0.0
C2084 C 0.54928 0.5941 0.069 0.0
C2085 C 0.5461 0.64637 0.07499 0.0
C2086 C 0.54905 0.59076 0.09547 0.0
C2087 C 0.54731 0.61455 0.11147 0.0
H2088 H 0.07589 0.85782 0.84466 0.0
H2089 H 0.10715 0.83441 0.91932 0.0
H2090 H 0.15366 0.83008 0.9036 0.0
H2091 H 0.18376 0.82615 0.8676 0.0
H2092 H 0.1524 0.84886 0.79278 0.0
H2093 H 0.10752 0.86013 0.80963 0.0
C2094 C 0.09298 0.85235 0.8576 0.0
C2095 C 0.08805 0.84608 0.88303 0.0
C2096 C 0.11953 0.84929 0.84832 0.0
C2097 C 0.1104 0.8392 0.89961 0.0
C2098 C 0.13697 0.83655 0.89061 0.0
C2099 C 0.16738 0.83431 0.85504 0.0
C2100 C 0.17135 0.83624 0.82889 0.0
C2101 C 0.14157 0.84054 0.86483 0.0
C2102 C 0.14973 0.84659 0.8129 0.0
C2103 C 0.12408 0.85314 0.82253 0.0
H2104 H 0.02893 0.32947 0.58101 0.0
H2105 H 0.04834 0.37064 0.65246 0.0
H2106 H 0.05111 0.4172 0.63126 0.0
H2107 H 0.04878 0.44638 0.59254 0.0
H2108 H 0.02986 0.40584 0.52071 0.0
H2109 H 0.02616 0.35914 0.54189 0.0
C2110 C 0.03365 0.34865 0.59196 0.0
C2111 C 0.03838 0.3464 0.61841 0.0
C2112 C 0.03539 0.37556 0.57954 0.0
C2113 C 0.04457 0.37157 0.63217 0.0
C2114 C 0.0462 0.39829 0.62003 0.0
C2115 C 0.0438 0.42739 0.58141 0.0
C2116 C 0.03964 0.42983 0.55493 0.0
C2117 C 0.04177 0.40056 0.59373 0.0
C2118 C 0.0332 0.40479 0.54104 0.0
C2119 C 0.03108 0.378 0.55318 0.0
H2120 H 0.45384 0.29352 0.33206 0.0
H2121 H 0.40367 0.28976 0.39759 0.0
H2122 H 0.36599 0.26842 0.37241 0.0
H2123 H 0.34585 0.25571 0.33176 0.0
H2124 H 0.39237 0.26547 0.26435 0.0
H2125 H 0.43346 0.27838 0.29037 0.0
C2126 C 0.43468 0.28776 0.34069 0.0
C2127 C 0.43122 0.29342 0.36643 0.0
C2128 C 0.41267 0.27638 0.32586 0.0
C2129 C 0.40648 0.28597 0.37765 0.0
C2130 C 0.38504 0.27361 0.36335 0.0
C2131 C 0.36504 0.26024 0.32262 0.0
C2132 C 0.36597 0.26007 0.29615 0.0
C2133 C 0.38771 0.2694 0.3374 0.0
C2134 C 0.39113 0.26556 0.28473 0.0
C2135 C 0.4145 0.27325 0.29958 0.0
H2136 H 0.42257 0.51442 0.39 0.0
H2137 H 0.49762 0.49348 0.35312 0.0
H2138 H 0.52233 0.4895 0.39431 0.0
H2139 H 0.52277 0.49433 0.44107 0.0
H2140 H 0.44799 0.52042 0.47633 0.0
H2141 H 0.42302 0.5199 0.4357 0.0
C2142 C 0.44428 0.50874 0.39101 0.0
C2143 C 0.45827 0.50412 0.36872 0.0
C2144 C 0.45843 0.50754 0.41452 0.0
C2145 C 0.48648 0.49718 0.37016 0.0
C2146 C 0.50058 0.4949 0.39366 0.0
C2147 C 0.501 0.49969 0.43973 0.0
C2148 C 0.48725 0.50739 0.46157 0.0
C2149 C 0.48682 0.50037 0.41601 0.0
C2150 C 0.45909 0.51463 0.45969 0.0
C2151 C 0.44473 0.51429 0.43649 0.0
H2152 H 0.28033 0.63016 0.09035 0.0
H2153 H 0.27177 0.70691 0.04472 0.0
H2154 H 0.26373 0.7354 0.08252 0.0
H2155 H 0.25933 0.73839 0.12854 0.0
H2156 H 0.26929 0.66148 0.17395 0.0
H2157 H 0.27574 0.63307 0.1361 0.0
C2158 C 0.27681 0.65314 0.08869 0.0
C2159 C 0.2768 0.66646 0.06486 0.0
C2160 C 0.27205 0.66929 0.1104 0.0
C2161 C 0.272 0.69621 0.06293 0.0
C2162 C 0.26731 0.71248 0.0845 0.0
C2163 C 0.26297 0.71543 0.13016 0.0
C2164 C 0.26366 0.70215 0.15409 0.0
C2165 C 0.2673 0.69923 0.10834 0.0
C2166 C 0.26805 0.67226 0.15578 0.0
C2167 C 0.27209 0.65599 0.13416 0.0
H2168 H 0.08627 0.49965 0.86191 0.0
H2169 H 0.16468 0.49066 0.90243 0.0
H2170 H 0.1411 0.48121 0.94158 0.0
H2171 H 0.09833 0.47781 0.9647 0.0
H2172 H 0.02009 0.4924 0.92558 0.0
H2173 H 0.04327 0.49672 0.88529 0.0
C2174 C 0.09815 0.49548 0.87931 0.0
C2175 C 0.12717 0.49581 0.8793 0.0
C2176 C 0.08443 0.49071 0.90187 0.0
C2177 C 0.14234 0.49065 0.90199 0.0
C2178 C 0.12887 0.48511 0.92435 0.0
C2179 C 0.08636 0.48113 0.94719 0.0
C2180 C 0.05755 0.4839 0.94778 0.0
C2181 C 0.09996 0.48521 0.92453 0.0
C2182 C 0.04224 0.48952 0.9253 0.0
C2183 C 0.05552 0.49227 0.9024 0.0
H2184 H 0.3424 0.40157 0.61046 0.0
H2185 H 0.33873 0.3233 0.56708 0.0
H2186 H 0.34648 0.29483 0.60565 0.0
H2187 H 0.34633 0.29223 0.65168 0.0
H2188 H 0.34112 0.37056 0.69502 0.0
H2189 H 0.34606 0.39895 0.65682 0.0
C2190 C 0.34421 0.37833 0.60952 0.0
C2191 C 0.34017 0.36435 0.58625 0.0
C2192 C 0.34679 0.36214 0.63187 0.0
C2193 C 0.3419 0.33429 0.58499 0.0
C2194 C 0.34614 0.31809 0.60699 0.0
C2195 C 0.34628 0.31551 0.65284 0.0
C2196 C 0.34268 0.32909 0.67621 0.0
C2197 C 0.34725 0.33176 0.6306 0.0
C2198 C 0.34387 0.35933 0.67741 0.0
C2199 C 0.34639 0.37569 0.65547 0.0
H2200 H 0.4841 0.49283 0.24183 0.0
H2201 H 0.41776 0.54592 0.21138 0.0
H2202 H 0.43183 0.53585 0.16845 0.0
H2203 H 0.46255 0.51139 0.13966 0.0
H2204 H 0.5288 0.45827 0.16998 0.0
H2205 H 0.5149 0.46849 0.21304 0.0
C2206 C 0.47296 0.50251 0.2258 0.0
C2207 C 0.45006 0.52024 0.22971 0.0
C2208 C 0.4808 0.49616 0.20123 0.0
C2209 C 0.43558 0.53235 0.2088 0.0
C2210 C 0.44347 0.52643 0.18428 0.0
C2211 C 0.47358 0.50164 0.15572 0.0
C2212 C 0.49637 0.48379 0.1518 0.0
C2213 C 0.46582 0.50807 0.18029 0.0
C2214 C 0.51103 0.47188 0.17268 0.0
C2215 C 0.50321 0.47787 0.19722 0.0
H2216 H 0.32466 0.66108 0.92809 0.0
H2217 H 0.24143 0.68694 0.9429 0.0
H2218 H 0.2416 0.7205 0.90728 0.0
H2219 H 0.2645 0.74046 0.87044 0.0
H2220 H 0.3476 0.714 0.85552 0.0
H2221 H 0.34857 0.68326 0.89294 0.0
C2222 C 0.30657 0.67407 0.92351 0.0
C2223 C 0.28297 0.6713 0.93791 0.0
C2224 C 0.30687 0.69343 0.90311 0.0
C2225 C 0.2598 0.68854 0.93198 0.0
C2226 C 0.2599 0.70779 0.91166 0.0
C2227 C 0.28303 0.72844 0.87568 0.0
C2228 C 0.30592 0.72953 0.86018 0.0
C2229 C 0.28324 0.71025 0.89695 0.0
C2230 C 0.32967 0.71356 0.86711 0.0
C2231 C 0.3302 0.69581 0.88842 0.0
H2232 H 0.16077 0.51107 0.72165 0.0
H2233 H 0.08492 0.52703 0.75921 0.0
H2234 H 0.06156 0.53816 0.71854 0.0
H2235 H 0.06288 0.54342 0.67225 0.0
H2236 H 0.13912 0.52729 0.6352 0.0
H2237 H 0.16227 0.51693 0.67581 0.0
C2238 C 0.13907 0.5168 0.72093 0.0
C2239 C 0.12451 0.518 0.74333 0.0
C2240 C 0.12595 0.52358 0.69761 0.0
C2241 C 0.09652 0.52581 0.74216 0.0
C2242 C 0.08319 0.53227 0.71894 0.0
C2243 C 0.08456 0.53766 0.67309 0.0
C2244 C 0.09923 0.53635 0.65068 0.0
C2245 C 0.09773 0.53129 0.69654 0.0
C2246 C 0.12741 0.52908 0.65214 0.0
C2247 C 0.14063 0.5228 0.67535 0.0
H2248 H 0.27512 0.3316 0.47776 0.0
H2249 H 0.33363 0.38895 0.44442 0.0
H2250 H 0.32695 0.36443 0.4038 0.0
H2251 H 0.30161 0.32929 0.37716 0.0
H2252 H 0.24337 0.27186 0.41035 0.0
H2253 H 0.2527 0.29388 0.45197 0.0
C2254 C 0.28663 0.33854 0.46166 0.0
C2255 C 0.30461 0.36221 0.46391 0.0
C2256 C 0.28248 0.32456 0.43845 0.0
C2257 C 0.31963 0.37082 0.44306 0.0
C2258 C 0.31571 0.35692 0.41985 0.0
C2259 C 0.29114 0.32162 0.39365 0.0
C2260 C 0.27162 0.29947 0.39103 0.0
C2261 C 0.29672 0.33425 0.41724 0.0
C2262 C 0.25832 0.28912 0.41223 0.0
C2263 C 0.26366 0.30167 0.43586 0.0
H2264 H 0.34726 0.49507 0.49167 0.0
H2265 H 0.31367 0.50627 0.56531 0.0
H2266 H 0.33672 0.5527 0.56975 0.0
H2267 H 0.37473 0.5835 0.55707 0.0
H2268 H 0.41197 0.56821 0.48551 0.0
H2269 H 0.37766 0.53216 0.47501 0.0
C2270 C 0.34457 0.50795 0.50845 0.0
C2271 C 0.3297 0.49688 0.5285 0.0
C2272 C 0.35835 0.53432 0.51114 0.0
C2273 C 0.32568 0.51407 0.54987 0.0
C2274 C 0.33875 0.54069 0.55239 0.0
C2275 C 0.37481 0.5729 0.53883 0.0
C2276 C 0.39712 0.57728 0.52304 0.0
C2277 C 0.35642 0.55018 0.53378 0.0
C2278 C 0.3958 0.56482 0.49872 0.0
C2279 C 0.37639 0.54354 0.49278 0.0
H2280 H 0.87884 0.10919 0.49518 0.0
H2281 H 0.83795 0.04029 0.53339 0.0
H2282 H 0.88195 0.01451 0.53906 0.0
H2283 H 0.93263 0.01227 0.53367 0.0
H2284 H 0.97167 0.08014 0.49218 0.0
H2285 H 0.92795 0.10544 0.48719 0.0
C2286 C 0.87959 0.08852 0.50476 0.0
C2287 C 0.85537 0.07677 0.5141 0.0
C2288 C 0.90467 0.07359 0.50731 0.0
C2289 C 0.85644 0.04976 0.52608 0.0
C2290 C 0.88157 0.03506 0.52935 0.0
C2291 C 0.93144 0.03251 0.52345 0.0
C2292 C 0.95542 0.04429 0.51339 0.0
C2293 C 0.90591 0.04684 0.52012 0.0
C2294 C 0.95355 0.07045 0.50001 0.0
C2295 C 0.92855 0.08507 0.49721 0.0
H2296 H 0.67186 0.11875 0.31161 0.0
H2297 H 0.74962 0.07354 0.31315 0.0
H2298 H 0.77381 0.11847 0.30494 0.0
H2299 H 0.77281 0.17016 0.29633 0.0
H2300 H 0.69529 0.21586 0.29493 0.0
H2301 H 0.67098 0.171 0.30369 0.0
C2302 C 0.69414 0.11881 0.31046 0.0
C2303 C 0.70895 0.09288 0.31308 0.0
C2304 C 0.70788 0.14467 0.30534 0.0
C2305 C 0.73777 0.09324 0.31129 0.0
C2306 C 0.75159 0.11888 0.30645 0.0
C2307 C 0.75055 0.17033 0.29768 0.0
C2308 C 0.73585 0.1963 0.29472 0.0
C2309 C 0.73682 0.14463 0.30313 0.0
C2310 C 0.70707 0.19613 0.29694 0.0
C2311 C 0.69319 0.17053 0.30208 0.0
H2312 H 0.71343 0.99213 0.05277 0.0
H2313 H 0.70759 0.97666 0.97239 0.0
H2314 H 0.6597 0.99305 0.97085 0.0
H2315 H 0.61889 0.00844 0.99289 0.0
H2316 H 0.6248 0.02464 0.07319 0.0
H2317 H 0.67363 0.0116 0.07421 0.0
C2318 C 0.70167 0.99253 0.03492 0.0
C2319 C 0.71369 0.98292 0.0128 0.0
C2320 C 0.67432 0.00204 0.03419 0.0
C2321 C 0.69857 0.98389 0.98967 0.0
C2322 C 0.67125 0.99318 0.98879 0.0
C2323 C 0.63093 0.00929 0.01057 0.0
C2324 C 0.61833 0.01705 0.03298 0.0
C2325 C 0.65882 0.00178 0.01101 0.0
C2326 C 0.63414 0.0186 0.05571 0.0
C2327 C 0.66197 0.01105 0.05633 0.0
H2328 H 0.3387 0.44836 0.30258 0.0
H2329 H 0.40733 0.42775 0.25632 0.0
H2330 H 0.38388 0.38435 0.24134 0.0
H2331 H 0.34519 0.35093 0.24305 0.0
H2332 H 0.27804 0.36895 0.29169 0.0
H2333 H 0.29926 0.41496 0.30372 0.0
C2334 C 0.34842 0.43435 0.2892 0.0
C2335 C 0.37472 0.44109 0.28069 0.0
C2336 C 0.33499 0.40913 0.28092 0.0
C2337 C 0.38717 0.42283 0.26334 0.0
C2338 C 0.37374 0.39809 0.25465 0.0
C2339 C 0.33492 0.36524 0.25585 0.0
C2340 C 0.31003 0.35683 0.26629 0.0
C2341 C 0.34777 0.39092 0.26346 0.0
C2342 C 0.2972 0.37518 0.28332 0.0
C2343 C 0.30939 0.40134 0.29031 0.0
H2344 H 0.21614 0.55034 0.03483 0.0
H2345 H 0.19677 0.58561 0.96081 0.0
H2346 H 0.14928 0.56835 0.96301 0.0
H2347 H 0.11261 0.54557 0.98706 0.0
H2348 H 0.13265 0.50734 0.0597 0.0
H2349 H 0.18058 0.5236 0.05715 0.0
C2350 C 0.20158 0.55395 0.01908 0.0
C2351 C 0.20984 0.56938 0.99777 0.0
C2352 C 0.1744 0.54382 0.02042 0.0
C2353 C 0.19089 0.57371 0.97738 0.0
C2354 C 0.1637 0.56405 0.97871 0.0
C2355 C 0.12754 0.54096 0.00234 0.0
C2356 C 0.11922 0.5259 0.02379 0.0
C2357 C 0.15511 0.54957 0.00034 0.0
C2358 C 0.13871 0.51921 0.04317 0.0
C2359 C 0.16603 0.52844 0.04167 0.0
H2360 H 0.72525 0.93293 0.33141 0.0
H2361 H 0.68745 0.93523 0.25636 0.0
H2362 H 0.7114 0.89094 0.24553 0.0
H2363 H 0.74207 0.85088 0.25773 0.0
H2364 H 0.77592 0.84533 0.33404 0.0
H2365 H 0.75482 0.89167 0.34412 0.0
C2366 C 0.72237 0.92369 0.3127 0.0
C2367 C 0.70474 0.93726 0.29466 0.0
C2368 C 0.73559 0.89776 0.30686 0.0
C2369 C 0.70084 0.92502 0.27057 0.0
C2370 C 0.7146 0.89979 0.26434 0.0
C2371 C 0.7451 0.86007 0.27645 0.0
C2372 C 0.76082 0.84513 0.29504 0.0
C2373 C 0.73194 0.88594 0.28235 0.0
C2374 C 0.76404 0.85671 0.31943 0.0
C2375 C 0.75192 0.88309 0.32519 0.0
H2376 H 0.86754 0.09804 0.82724 0.0
H2377 H 0.86668 0.08506 0.74655 0.0
H2378 H 0.84082 0.12969 0.73987 0.0
H2379 H 0.82117 0.17402 0.75682 0.0
H2380 H 0.82513 0.18871 0.8373 0.0
H2381 H 0.84667 0.14169 0.84427 0.0
C2382 C 0.86149 0.10491 0.80823 0.0
C2383 C 0.86907 0.08841 0.78743 0.0
C2384 C 0.84714 0.13089 0.80451 0.0
C2385 C 0.86122 0.09755 0.76287 0.0
C2386 C 0.84639 0.12302 0.75903 0.0
C2387 C 0.82632 0.16665 0.77589 0.0
C2388 C 0.82155 0.18466 0.79652 0.0
C2389 C 0.83958 0.14006 0.77968 0.0
C2390 C 0.82869 0.17515 0.82113 0.0
C2391 C 0.84106 0.14834 0.82512 0.0
loop_
_geom_bond_atom_site_label_1
_geom_bond_atom_site_label_2
_geom_bond_distance
_geom_bond_site_symmetry_2
_ccdc_geom_bond_type
In0 O1 2.294 . S
In0 O2 2.326 . S
In0 O6 2.266 . S
In0 O7 2.326 . S
In0 O8 2.266 . S
In0 O9 2.326 . S
In0 O11 2.294 . S
In0 O12 2.326 . S
O1 In0 2.294 . S
O1 C10 1.240 . S
O2 In0 2.326 . S
O2 C10 1.252 . S
C3 O6 1.252 . S
C3 O7 1.260 . S
C4 O11 1.240 . S
C4 O12 1.252 . S
C5 O8 1.252 . S
C5 O9 1.260 . S
O6 In0 2.266 . S
O6 C3 1.252 . S
O7 In0 2.326 . S
O7 C3 1.260 . S
O8 In0 2.266 . S
O8 C5 1.252 . S
O9 In0 2.326 . S
O9 C5 1.260 . S
C10 O1 1.240 . S
C10 O2 1.252 . S
O11 In0 2.294 . S
O11 C4 1.240 . S
O12 In0 2.326 . S
O12 C4 1.252 . S
In13 O14 2.294 . S
In13 O15 2.326 . S
In13 O19 2.266 . S
In13 O20 2.326 1_455 S
In13 O21 2.266 . S
In13 O22 2.326 . S
In13 O24 2.294 . S
In13 O25 2.326 . S
O14 In13 2.294 . S
O14 C23 1.240 . S
O15 In13 2.326 . S
O15 C23 1.252 . S
C16 O19 1.252 1_655 S
C16 O20 1.260 . S
C17 O24 1.240 . S
C17 O25 1.252 . S
C18 O21 1.252 . S
C18 O22 1.260 . S
O19 In13 2.266 . S
O19 C16 1.252 1_455 S
O20 In13 2.326 1_655 S
O20 C16 1.260 . S
O21 In13 2.266 . S
O21 C18 1.252 . S
O22 In13 2.326 . S
O22 C18 1.260 . S
C23 O14 1.240 . S
C23 O15 1.252 . S
O24 In13 2.294 . S
O24 C17 1.240 . S
O25 In13 2.326 . S
O25 C17 1.252 . S
In26 O27 2.294 . S
In26 O28 2.326 . S
In26 O32 2.266 . S
In26 O33 2.326 . S
In26 O34 2.266 . S
In26 O35 2.326 . S
In26 O37 2.294 . S
In26 O38 2.326 . S
O27 In26 2.294 . S
O27 C36 1.240 . S
O28 In26 2.326 . S
O28 C36 1.252 . S
C29 O32 1.252 . S
C29 O33 1.260 . S
C30 O37 1.240 . S
C30 O38 1.252 . S
C31 O34 1.252 . S
C31 O35 1.260 . S
O32 In26 2.266 . S
O32 C29 1.252 . S
O33 In26 2.326 . S
O33 C29 1.260 . S
O34 In26 2.266 . S
O34 C31 1.252 . S
O35 In26 2.326 . S
O35 C31 1.260 . S
C36 O27 1.240 . S
C36 O28 1.252 . S
O37 In26 2.294 . S
O37 C30 1.240 . S
O38 In26 2.326 . S
O38 C30 1.252 . S
In39 O40 2.294 . S
In39 O41 2.326 . S
In39 O45 2.266 . S
In39 O46 2.326 . S
In39 O47 2.266 . S
In39 O48 2.326 . S
In39 O50 2.294 . S
In39 O51 2.326 . S
O40 In39 2.294 . S
O40 C49 1.240 . S
O41 In39 2.326 . S
O41 C49 1.252 . S
C42 O45 1.252 . S
C42 O46 1.260 . S
C43 O50 1.240 . S
C43 O51 1.252 . S
C44 O47 1.252 . S
C44 O48 1.260 . S
O45 In39 2.266 . S
O45 C42 1.252 . S
O46 In39 2.326 . S
O46 C42 1.260 . S
O47 In39 2.266 . S
O47 C44 1.252 . S
O48 In39 2.326 . S
O48 C44 1.260 . S
C49 O40 1.240 . S
C49 O41 1.252 . S
O50 In39 2.294 . S
O50 C43 1.240 . S
O51 In39 2.326 . S
O51 C43 1.252 . S
In52 O53 2.294 1_545 S
In52 O54 2.326 1_545 S
In52 O58 2.266 . S
In52 O59 2.326 . S
In52 O60 2.266 . S
In52 O61 2.326 . S
In52 O63 2.294 . S
In52 O64 2.326 . S
O53 In52 2.294 1_565 S
O53 C62 1.240 . S
O54 In52 2.326 1_565 S
O54 C62 1.252 . S
C55 O58 1.252 . S
C55 O59 1.260 . S
C56 O63 1.240 . S
C56 O64 1.252 . S
C57 O60 1.252 . S
C57 O61 1.260 . S
O58 In52 2.266 . S
O58 C55 1.252 . S
O59 In52 2.326 . S
O59 C55 1.260 . S
O60 In52 2.266 . S
O60 C57 1.252 . S
O61 In52 2.326 . S
O61 C57 1.260 . S
C62 O53 1.240 . S
C62 O54 1.252 . S
O63 In52 2.294 . S
O63 C56 1.240 . S
O64 In52 2.326 . S
O64 C56 1.252 . S
In65 O66 2.294 . S
In65 O67 2.326 . S
In65 O71 2.266 . S
In65 O72 2.326 . S
In65 O73 2.266 . S
In65 O74 2.326 . S
In65 O76 2.294 . S
In65 O77 2.326 . S
O66 In65 2.294 . S
O66 C75 1.240 . S
O67 In65 2.326 . S
O67 C75 1.252 . S
C68 O71 1.252 . S
C68 O72 1.260 . S
C69 O76 1.240 . S
C69 O77 1.252 . S
C70 O73 1.252 . S
C70 O74 1.260 . S
O71 In65 2.266 . S
O71 C68 1.252 . S
O72 In65 2.326 . S
O72 C68 1.260 . S
O73 In65 2.266 . S
O73 C70 1.252 . S
O74 In65 2.326 . S
O74 C70 1.260 . S
C75 O66 1.240 . S
C75 O67 1.252 . S
O76 In65 2.294 . S
O76 C69 1.240 . S
O77 In65 2.326 . S
O77 C69 1.252 . S
In78 O79 2.294 . S
In78 O80 2.326 . S
In78 O84 2.266 1_545 S
In78 O85 2.326 1_545 S
In78 O86 2.266 . S
In78 O87 2.326 . S
In78 O89 2.294 . S
In78 O90 2.326 . S
O79 In78 2.294 . S
O79 C88 1.240 . S
O80 In78 2.326 . S
O80 C88 1.252 . S
C81 O84 1.252 . S
C81 O85 1.260 . S
C82 O89 1.240 . S
C82 O90 1.252 . S
C83 O86 1.252 . S
C83 O87 1.260 . S
O84 In78 2.266 1_565 S
O84 C81 1.252 . S
O85 In78 2.326 1_565 S
O85 C81 1.260 . S
O86 In78 2.266 . S
O86 C83 1.252 . S
O87 In78 2.326 . S
O87 C83 1.260 . S
C88 O79 1.240 . S
C88 O80 1.252 . S
O89 In78 2.294 . S
O89 C82 1.240 . S
O90 In78 2.326 . S
O90 C82 1.252 . S
In91 O92 2.294 . S
In91 O93 2.326 . S
In91 O97 2.266 . S
In91 O98 2.326 . S
In91 O99 2.266 . S
In91 O100 2.326 1_554 S
In91 O102 2.294 . S
In91 O103 2.326 . S
O92 In91 2.294 . S
O92 C101 1.240 . S
O93 In91 2.326 . S
O93 C101 1.252 . S
C94 O97 1.252 . S
C94 O98 1.260 . S
C95 O102 1.240 . S
C95 O103 1.252 . S
C96 O99 1.252 1_556 S
C96 O100 1.260 . S
O97 In91 2.266 . S
O97 C94 1.252 . S
O98 In91 2.326 . S
O98 C94 1.260 . S
O99 In91 2.266 . S
O99 C96 1.252 1_554 S
O100 In91 2.326 1_556 S
O100 C96 1.260 . S
C101 O92 1.240 . S
C101 O93 1.252 . S
O102 In91 2.294 . S
O102 C95 1.240 . S
O103 In91 2.326 . S
O103 C95 1.252 . S
In104 O105 2.294 . S
In104 O106 2.326 . S
In104 O110 2.266 . S
In104 O111 2.326 . S
In104 O112 2.266 . S
In104 O113 2.326 . S
In104 O115 2.294 . S
In104 O116 2.326 . S
O105 In104 2.294 . S
O105 C114 1.240 . S
O106 In104 2.326 . S
O106 C114 1.252 . S
C107 O110 1.252 . S
C107 O111 1.260 . S
C108 O115 1.240 . S
C108 O116 1.252 . S
C109 O112 1.252 . S
C109 O113 1.260 . S
O110 In104 2.266 . S
O110 C107 1.252 . S
O111 In104 2.326 . S
O111 C107 1.260 . S
O112 In104 2.266 . S
O112 C109 1.252 . S
O113 In104 2.326 . S
O113 C109 1.260 . S
C114 O105 1.240 . S
C114 O106 1.252 . S
O115 In104 2.294 . S
O115 C108 1.240 . S
O116 In104 2.326 . S
O116 C108 1.252 . S
In117 O118 2.294 . S
In117 O119 2.326 . S
In117 O123 2.266 . S
In117 O124 2.326 . S
In117 O125 2.266 . S
In117 O126 2.326 . S
In117 O128 2.294 . S
In117 O129 2.326 . S
O118 In117 2.294 . S
O118 C127 1.240 . S
O119 In117 2.326 . S
O119 C127 1.252 . S
C120 O123 1.252 . S
C120 O124 1.260 . S
C121 O128 1.240 . S
C121 O129 1.252 . S
C122 O125 1.252 . S
C122 O126 1.260 . S
O123 In117 2.266 . S
O123 C120 1.252 . S
O124 In117 2.326 . S
O124 C120 1.260 . S
O125 In117 2.266 . S
O125 C122 1.252 . S
O126 In117 2.326 . S
O126 C122 1.260 . S
C127 O118 1.240 . S
C127 O119 1.252 . S
O128 In117 2.294 . S
O128 C121 1.240 . S
O129 In117 2.326 . S
O129 C121 1.252 . S
In130 O131 2.294 . S
In130 O132 2.326 . S
In130 O136 2.266 . S
In130 O137 2.326 . S
In130 O138 2.266 . S
In130 O139 2.326 . S
In130 O141 2.294 . S
In130 O142 2.326 . S
O131 In130 2.294 . S
O131 C140 1.240 . S
O132 In130 2.326 . S
O132 C140 1.252 . S
C133 O136 1.252 . S
C133 O137 1.260 . S
C134 O141 1.240 . S
C134 O142 1.252 . S
C135 O138 1.252 . S
C135 O139 1.260 . S
O136 In130 2.266 . S
O136 C133 1.252 . S
O137 In130 2.326 . S
O137 C133 1.260 . S
O138 In130 2.266 . S
O138 C135 1.252 . S
O139 In130 2.326 . S
O139 C135 1.260 . S
C140 O131 1.240 . S
C140 O132 1.252 . S
O141 In130 2.294 . S
O141 C134 1.240 . S
O142 In130 2.326 . S
O142 C134 1.252 . S
In143 O144 2.294 . S
In143 O145 2.326 . S
In143 O149 2.266 . S
In143 O150 2.326 . S
In143 O151 2.266 . S
In143 O152 2.326 . S
In143 O154 2.294 . S
In143 O155 2.326 . S
O144 In143 2.294 . S
O144 C153 1.240 . S
O145 In143 2.326 . S
O145 C153 1.252 . S
C146 O149 1.252 . S
C146 O150 1.260 . S
C147 O154 1.240 . S
C147 O155 1.252 . S
C148 O151 1.252 . S
C148 O152 1.260 . S
O149 In143 2.266 . S
O149 C146 1.252 . S
O150 In143 2.326 . S
O150 C146 1.260 . S
O151 In143 2.266 . S
O151 C148 1.252 . S
O152 In143 2.326 . S
O152 C148 1.260 . S
C153 O144 1.240 . S
C153 O145 1.252 . S
O154 In143 2.294 . S
O154 C147 1.240 . S
O155 In143 2.326 . S
O155 C147 1.252 . S
In156 O157 2.296 . S
In156 O158 2.330 . S
In156 O162 2.264 1_455 S
In156 O163 2.322 1_455 S
In156 O164 2.266 1_455 S
In156 O165 2.325 1_455 S
In156 O167 2.294 . S
In156 O168 2.327 . S
O157 In156 2.296 . S
O157 C166 1.240 . S
O158 In156 2.330 . S
O158 C166 1.252 . S
C159 O162 1.252 . S
C159 O163 1.260 . S
C160 O167 1.240 . S
C160 O168 1.252 . S
C161 O164 1.252 . S
C161 O165 1.260 . S
O162 In156 2.264 1_655 S
O162 C159 1.252 . S
O163 In156 2.322 1_655 S
O163 C159 1.260 . S
O164 In156 2.266 1_655 S
O164 C161 1.252 . S
O165 In156 2.325 1_655 S
O165 C161 1.260 . S
C166 O157 1.240 . S
C166 O158 1.252 . S
O167 In156 2.294 . S
O167 C160 1.240 . S
O168 In156 2.327 . S
O168 C160 1.252 . S
In169 O170 2.294 . S
In169 O171 2.326 . S
In169 O175 2.266 . S
In169 O176 2.326 . S
In169 O177 2.266 . S
In169 O178 2.326 1_455 S
In169 O180 2.294 . S
In169 O181 2.326 . S
O170 In169 2.294 . S
O170 C179 1.240 . S
O171 In169 2.326 . S
O171 C179 1.252 . S
C172 O175 1.252 . S
C172 O176 1.260 . S
C173 O180 1.240 . S
C173 O181 1.252 . S
C174 O177 1.252 1_655 S
C174 O178 1.260 . S
O175 In169 2.266 . S
O175 C172 1.252 . S
O176 In169 2.326 . S
O176 C172 1.260 . S
O177 In169 2.266 . S
O177 C174 1.252 1_455 S
O178 In169 2.326 1_655 S
O178 C174 1.260 . S
C179 O170 1.240 . S
C179 O171 1.252 . S
O180 In169 2.294 . S
O180 C173 1.240 . S
O181 In169 2.326 . S
O181 C173 1.252 . S
In182 O183 2.294 . S
In182 O184 2.326 . S
In182 O188 2.266 . S
In182 O189 2.326 . S
In182 O190 2.266 . S
In182 O191 2.326 . S
In182 O193 2.294 . S
In182 O194 2.326 . S
O183 In182 2.294 . S
O183 C192 1.240 . S
O184 In182 2.326 . S
O184 C192 1.252 . S
C185 O188 1.252 . S
C185 O189 1.260 . S
C186 O193 1.240 . S
C186 O194 1.252 . S
C187 O190 1.252 . S
C187 O191 1.260 . S
O188 In182 2.266 . S
O188 C185 1.252 . S
O189 In182 2.326 . S
O189 C185 1.260 . S
O190 In182 2.266 . S
O190 C187 1.252 . S
O191 In182 2.326 . S
O191 C187 1.260 . S
C192 O183 1.240 . S
C192 O184 1.252 . S
O193 In182 2.294 . S
O193 C186 1.240 . S
O194 In182 2.326 . S
O194 C186 1.252 . S
In195 O196 2.294 . S
In195 O197 2.326 . S
In195 O201 2.266 . S
In195 O202 2.326 . S
In195 O203 2.266 . S
In195 O204 2.326 . S
In195 O206 2.294 . S
In195 O207 2.326 . S
O196 In195 2.294 . S
O196 C205 1.240 . S
O197 In195 2.326 . S
O197 C205 1.252 . S
C198 O201 1.252 . S
C198 O202 1.260 . S
C199 O206 1.240 . S
C199 O207 1.252 . S
C200 O203 1.252 . S
C200 O204 1.260 . S
O201 In195 2.266 . S
O201 C198 1.252 . S
O202 In195 2.326 . S
O202 C198 1.260 . S
O203 In195 2.266 . S
O203 C200 1.252 . S
O204 In195 2.326 . S
O204 C200 1.260 . S
C205 O196 1.240 . S
C205 O197 1.252 . S
O206 In195 2.294 . S
O206 C199 1.240 . S
O207 In195 2.326 . S
O207 C199 1.252 . S
In208 O209 2.294 . S
In208 O210 2.326 . S
In208 O214 2.266 1_545 S
In208 O215 2.326 . S
In208 O216 2.266 1_545 S
In208 O217 2.326 1_545 S
In208 O219 2.294 . S
In208 O220 2.326 . S
O209 In208 2.294 . S
O209 C218 1.240 . S
O210 In208 2.326 . S
O210 C218 1.252 . S
C211 O214 1.252 . S
C211 O215 1.260 1_565 S
C212 O219 1.240 . S
C212 O220 1.252 . S
C213 O216 1.252 . S
C213 O217 1.260 . S
O214 In208 2.266 1_565 S
O214 C211 1.252 . S
O215 In208 2.326 . S
O215 C211 1.260 1_545 S
O216 In208 2.266 1_565 S
O216 C213 1.252 . S
O217 In208 2.326 1_565 S
O217 C213 1.260 . S
C218 O209 1.240 . S
C218 O210 1.252 . S
O219 In208 2.294 . S
O219 C212 1.240 . S
O220 In208 2.326 . S
O220 C212 1.252 . S
In221 O222 2.294 . S
In221 O223 2.326 . S
In221 O227 2.266 . S
In221 O228 2.326 . S
In221 O229 2.266 . S
In221 O230 2.326 . S
In221 O232 2.294 . S
In221 O233 2.326 . S
O222 In221 2.294 . S
O222 C231 1.240 . S
O223 In221 2.326 . S
O223 C231 1.252 . S
C224 O227 1.252 . S
C224 O228 1.260 . S
C225 O232 1.240 . S
C225 O233 1.252 . S
C226 O229 1.252 . S
C226 O230 1.260 . S
O227 In221 2.266 . S
O227 C224 1.252 . S
O228 In221 2.326 . S
O228 C224 1.260 . S
O229 In221 2.266 . S
O229 C226 1.252 . S
O230 In221 2.326 . S
O230 C226 1.260 . S
C231 O222 1.240 . S
C231 O223 1.252 . S
O232 In221 2.294 . S
O232 C225 1.240 . S
O233 In221 2.326 . S
O233 C225 1.252 . S
In234 O235 2.294 1_545 S
In234 O236 2.326 1_545 S
In234 O240 2.266 . S
In234 O241 2.326 . S
In234 O242 2.266 . S
In234 O243 2.326 . S
In234 O245 2.294 . S
In234 O246 2.326 . S
O235 In234 2.294 1_565 S
O235 C244 1.240 . S
O236 In234 2.326 1_565 S
O236 C244 1.252 . S
C237 O240 1.252 . S
C237 O241 1.260 . S
C238 O245 1.240 . S
C238 O246 1.252 . S
C239 O242 1.252 . S
C239 O243 1.260 . S
O240 In234 2.266 . S
O240 C237 1.252 . S
O241 In234 2.326 . S
O241 C237 1.260 . S
O242 In234 2.266 . S
O242 C239 1.252 . S
O243 In234 2.326 . S
O243 C239 1.260 . S
C244 O235 1.240 . S
C244 O236 1.252 . S
O245 In234 2.294 . S
O245 C238 1.240 . S
O246 In234 2.326 . S
O246 C238 1.252 . S
In247 O248 2.294 . S
In247 O249 2.326 . S
In247 O253 2.266 . S
In247 O254 2.326 . S
In247 O255 2.266 . S
In247 O256 2.326 1_554 S
In247 O258 2.294 . S
In247 O259 2.326 . S
O248 In247 2.294 . S
O248 C257 1.240 . S
O249 In247 2.326 . S
O249 C257 1.252 . S
C250 O253 1.252 . S
C250 O254 1.260 . S
C251 O258 1.240 . S
C251 O259 1.252 . S
C252 O255 1.252 1_556 S
C252 O256 1.260 . S
O253 In247 2.266 . S
O253 C250 1.252 . S
O254 In247 2.326 . S
O254 C250 1.260 . S
O255 In247 2.266 . S
O255 C252 1.252 1_554 S
O256 In247 2.326 1_556 S
O256 C252 1.260 . S
C257 O248 1.240 . S
C257 O249 1.252 . S
O258 In247 2.294 . S
O258 C251 1.240 . S
O259 In247 2.326 . S
O259 C251 1.252 . S
In260 O261 2.296 . S
In260 O262 2.330 . S
In260 O266 2.264 1_554 S
In260 O267 2.322 1_554 S
In260 O268 2.266 1_554 S
In260 O269 2.325 1_554 S
In260 O271 2.294 . S
In260 O272 2.326 . S
O261 In260 2.296 . S
O261 C270 1.240 . S
O262 In260 2.330 . S
O262 C270 1.252 . S
C263 O266 1.252 . S
C263 O267 1.260 . S
C264 O271 1.240 . S
C264 O272 1.252 . S
C265 O268 1.252 . S
C265 O269 1.260 . S
O266 In260 2.264 1_556 S
O266 C263 1.252 . S
O267 In260 2.322 1_556 S
O267 C263 1.260 . S
O268 In260 2.266 1_556 S
O268 C265 1.252 . S
O269 In260 2.325 1_556 S
O269 C265 1.260 . S
C270 O261 1.240 . S
C270 O262 1.252 . S
O271 In260 2.294 . S
O271 C264 1.240 . S
O272 In260 2.326 . S
O272 C264 1.252 . S
In273 O274 2.294 . S
In273 O275 2.326 . S
In273 O279 2.266 . S
In273 O280 2.326 . S
In273 O281 2.266 . S
In273 O282 2.326 . S
In273 O284 2.294 . S
In273 O285 2.326 . S
O274 In273 2.294 . S
O274 C283 1.240 . S
O275 In273 2.326 . S
O275 C283 1.252 . S
C276 O279 1.252 . S
C276 O280 1.260 . S
C277 O284 1.240 . S
C277 O285 1.252 . S
C278 O281 1.252 . S
C278 O282 1.260 . S
O279 In273 2.266 . S
O279 C276 1.252 . S
O280 In273 2.326 . S
O280 C276 1.260 . S
O281 In273 2.266 . S
O281 C278 1.252 . S
O282 In273 2.326 . S
O282 C278 1.260 . S
C283 O274 1.240 . S
C283 O275 1.252 . S
O284 In273 2.294 . S
O284 C277 1.240 . S
O285 In273 2.326 . S
O285 C277 1.252 . S
In286 O287 2.294 . S
In286 O288 2.326 . S
In286 O292 2.266 . S
In286 O293 2.326 . S
In286 O294 2.266 . S
In286 O295 2.326 . S
In286 O297 2.294 . S
In286 O298 2.326 . S
O287 In286 2.294 . S
O287 C296 1.240 . S
O288 In286 2.326 . S
O288 C296 1.252 . S
C289 O292 1.252 . S
C289 O293 1.260 . S
C290 O297 1.240 . S
C290 O298 1.252 . S
C291 O294 1.252 . S
C291 O295 1.260 . S
O292 In286 2.266 . S
O292 C289 1.252 . S
O293 In286 2.326 . S
O293 C289 1.260 . S
O294 In286 2.266 . S
O294 C291 1.252 . S
O295 In286 2.326 . S
O295 C291 1.260 . S
C296 O287 1.240 . S
C296 O288 1.252 . S
O297 In286 2.294 . S
O297 C290 1.240 . S
O298 In286 2.326 . S
O298 C290 1.252 . S
In299 O300 2.294 . S
In299 O301 2.326 . S
In299 O305 2.266 . S
In299 O306 2.326 . S
In299 O307 2.266 . S
In299 O308 2.326 . S
In299 O310 2.294 . S
In299 O311 2.326 . S
O300 In299 2.294 . S
O300 C309 1.240 . S
O301 In299 2.326 . S
O301 C309 1.252 . S
C302 O305 1.252 . S
C302 O306 1.260 . S
C303 O310 1.240 . S
C303 O311 1.252 . S
C304 O307 1.252 . S
C304 O308 1.260 . S
O305 In299 2.266 . S
O305 C302 1.252 . S
O306 In299 2.326 . S
O306 C302 1.260 . S
O307 In299 2.266 . S
O307 C304 1.252 . S
O308 In299 2.326 . S
O308 C304 1.260 . S
C309 O300 1.240 . S
C309 O301 1.252 . S
O310 In299 2.294 . S
O310 C303 1.240 . S
O311 In299 2.326 . S
O311 C303 1.252 . S
C312 O328 1.251 1_455 S
C312 O330 1.254 . S
N313 C314 1.333 1_565 S
N313 C318 1.307 . S
N313 Zn319 2.024 1_655 S
C314 N313 1.333 1_545 S
C314 C315 1.379 1_545 S
C314 H332 0.952 . S
C315 C314 1.379 1_565 S
C315 C316 1.390 . S
C315 H342 0.949 1_565 S
C316 C315 1.390 . S
C316 C317 1.357 . S
C317 C316 1.357 . S
C317 C318 1.370 . S
C317 H343 0.950 . S
C318 N313 1.307 . S
C318 C317 1.370 . S
C318 H336 0.948 . S
Zn319 N313 2.024 1_455 S
Zn319 O328 2.032 1_464 S
Zn319 O334 2.014 1_565 S
Zn319 O338 2.031 . S
Zn319 O340 2.043 . S
C320 O339 1.246 . S
C320 O340 1.249 . S
N321 C322 1.307 1_554 S
N321 C323 1.333 . S
N321 Zn327 2.020 . S
C322 N321 1.307 1_556 S
C322 C326 1.370 . S
C322 H333 0.948 . S
C323 N321 1.333 . S
C323 C324 1.379 . S
C323 H331 0.952 . S
C324 C323 1.379 . S
C324 C325 1.390 1_554 S
C324 H344 0.949 . S
C325 C324 1.390 1_556 S
C325 C326 1.357 . S
C326 C322 1.370 . S
C326 C325 1.357 . S
C326 H345 0.950 . S
Zn327 N321 2.020 . S
Zn327 O330 2.025 1_554 S
Zn327 O335 2.024 . S
Zn327 O337 2.039 . S
Zn327 O339 2.034 1_545 S
O328 C312 1.251 1_655 S
O328 Zn319 2.032 1_646 S
C329 O334 1.246 . S
C329 O335 1.249 . S
O330 C312 1.254 . S
O330 Zn327 2.025 1_556 S
H331 C323 0.952 . S
H332 C314 0.952 . S
H333 C322 0.948 . S
O334 Zn319 2.014 1_545 S
O334 C329 1.246 . S
O335 Zn327 2.024 . S
O335 C329 1.249 . S
H336 C318 0.948 . S
O337 Zn327 2.039 . S
O337 C341 1.251 1_545 S
O338 Zn319 2.031 . S
O338 C341 1.254 . S
O339 C320 1.246 . S
O339 Zn327 2.034 1_565 S
O340 Zn319 2.043 . S
O340 C320 1.249 . S
C341 O337 1.251 1_565 S
C341 O338 1.254 . S
H342 C315 0.949 1_545 S
H343 C317 0.950 . S
H344 C324 0.949 . S
H345 C326 0.950 . S
C346 O362 1.251 . S
C346 O364 1.254 . S
N347 C348 1.333 . S
N347 C352 1.307 . S
N347 Zn353 2.020 . S
C348 N347 1.333 . S
C348 C349 1.379 . S
C348 H366 0.952 . S
C349 C348 1.379 . S
C349 C350 1.390 . S
C349 H376 0.949 . S
C350 C349 1.390 . S
C350 C351 1.357 . S
C351 C350 1.357 . S
C351 C352 1.370 . S
C351 H377 0.950 . S
C352 N347 1.307 . S
C352 C351 1.370 . S
C352 H370 0.948 . S
Zn353 N347 2.020 . S
Zn353 O362 2.039 . S
Zn353 O368 2.034 . S
Zn353 O372 2.025 . S
Zn353 O374 2.024 . S
C354 O373 1.246 . S
C354 O374 1.249 . S
N355 C356 1.307 . S
N355 C357 1.333 . S
N355 Zn361 2.020 . S
C356 N355 1.307 . S
C356 C360 1.370 . S
C356 H367 0.948 . S
C357 N355 1.333 . S
C357 C358 1.379 . S
C357 H365 0.952 . S
C358 C357 1.379 . S
C358 C359 1.390 . S
C358 H378 0.949 . S
C359 C358 1.390 . S
C359 C360 1.357 . S
C360 C356 1.370 . S
C360 C359 1.357 . S
C360 H379 0.950 . S
Zn361 N355 2.020 . S
Zn361 O364 2.025 . S
Zn361 O369 2.024 . S
Zn361 O371 2.039 . S
Zn361 O373 2.034 . S
O362 C346 1.251 . S
O362 Zn353 2.039 . S
C363 O368 1.246 . S
C363 O369 1.249 . S
O364 C346 1.254 . S
O364 Zn361 2.025 . S
H365 C357 0.952 . S
H366 C348 0.952 . S
H367 C356 0.948 . S
O368 Zn353 2.034 . S
O368 C363 1.246 . S
O369 Zn361 2.024 . S
O369 C363 1.249 . S
H370 C352 0.948 . S
O371 Zn361 2.039 . S
O371 C375 1.251 . S
O372 Zn353 2.025 . S
O372 C375 1.254 . S
O373 C354 1.246 . S
O373 Zn361 2.034 . S
O374 Zn353 2.024 . S
O374 C354 1.249 . S
C375 O371 1.251 . S
C375 O372 1.254 . S
H376 C349 0.949 . S
H377 C351 0.950 . S
H378 C358 0.949 . S
H379 C360 0.950 . S
C380 O396 1.251 . S
C380 O398 1.254 . S
N381 C382 1.333 . S
N381 C386 1.307 . S
N381 Zn387 2.020 . S
C382 N381 1.333 . S
C382 C383 1.379 . S
C382 H400 0.952 . S
C383 C382 1.379 . S
C383 C384 1.390 . S
C383 H410 0.949 . S
C384 C383 1.390 . S
C384 C385 1.357 . S
C385 C384 1.357 . S
C385 C386 1.370 . S
C385 H411 0.950 . S
C386 N381 1.307 . S
C386 C385 1.370 . S
C386 H404 0.948 . S
Zn387 N381 2.020 . S
Zn387 O396 2.039 1_565 S
Zn387 O402 2.034 1_565 S
Zn387 O406 2.025 . S
Zn387 O408 2.024 . S
C388 O407 1.246 1_565 S
C388 O408 1.249 . S
N389 C390 1.307 . S
N389 C391 1.333 . S
N389 Zn395 2.020 . S
C390 N389 1.307 . S
C390 C394 1.370 . S
C390 H401 0.948 . S
C391 N389 1.333 . S
C391 C392 1.379 . S
C391 H399 0.952 . S
C392 C391 1.379 . S
C392 C393 1.390 . S
C392 H412 0.949 . S
C393 C392 1.390 . S
C393 C394 1.357 . S
C394 C390 1.370 . S
C394 C393 1.357 . S
C394 H413 0.950 . S
Zn395 N389 2.020 . S
Zn395 O398 2.025 . S
Zn395 O403 2.024 . S
Zn395 O405 2.039 . S
Zn395 O407 2.034 . S
O396 C380 1.251 . S
O396 Zn387 2.039 1_545 S
C397 O402 1.246 . S
C397 O403 1.249 . S
O398 C380 1.254 . S
O398 Zn395 2.025 . S
H399 C391 0.952 . S
H400 C382 0.952 . S
H401 C390 0.948 . S
O402 Zn387 2.034 1_545 S
O402 C397 1.246 . S
O403 Zn395 2.024 . S
O403 C397 1.249 . S
H404 C386 0.948 . S
O405 Zn395 2.039 . S
O405 C409 1.251 . S
O406 Zn387 2.025 . S
O406 C409 1.254 1_565 S
O407 C388 1.246 1_545 S
O407 Zn395 2.034 . S
O408 Zn387 2.024 . S
O408 C388 1.249 . S
C409 O405 1.251 . S
C409 O406 1.254 1_545 S
H410 C383 0.949 . S
H411 C385 0.950 . S
H412 C392 0.949 . S
H413 C394 0.950 . S
C414 O430 1.251 . S
C414 O432 1.254 . S
N415 C416 1.333 . S
N415 C420 1.307 . S
N415 Zn421 2.020 . S
C416 N415 1.333 . S
C416 C417 1.379 . S
C416 H434 0.952 . S
C417 C416 1.379 . S
C417 C418 1.390 . S
C417 H444 0.949 . S
C418 C417 1.390 . S
C418 C419 1.357 . S
C419 C418 1.357 . S
C419 C420 1.370 . S
C419 H445 0.950 . S
C420 N415 1.307 . S
C420 C419 1.370 . S
C420 H438 0.948 . S
Zn421 N415 2.020 . S
Zn421 O430 2.039 . S
Zn421 O436 2.034 . S
Zn421 O440 2.025 . S
Zn421 O442 2.024 . S
C422 O441 1.246 . S
C422 O442 1.249 . S
N423 C424 1.307 . S
N423 C425 1.333 . S
N423 Zn429 2.020 . S
C424 N423 1.307 . S
C424 C428 1.370 . S
C424 H435 0.948 . S
C425 N423 1.333 . S
C425 C426 1.379 . S
C425 H433 0.952 . S
C426 C425 1.379 . S
C426 C427 1.390 . S
C426 H446 0.949 . S
C427 C426 1.390 . S
C427 C428 1.357 . S
C428 C424 1.370 . S
C428 C427 1.357 . S
C428 H447 0.950 . S
Zn429 N423 2.020 . S
Zn429 O432 2.025 . S
Zn429 O437 2.024 . S
Zn429 O439 2.039 . S
Zn429 O441 2.034 . S
O430 C414 1.251 . S
O430 Zn421 2.039 . S
C431 O436 1.246 . S
C431 O437 1.249 . S
O432 C414 1.254 . S
O432 Zn429 2.025 . S
H433 C425 0.952 . S
H434 C416 0.952 . S
H435 C424 0.948 . S
O436 Zn421 2.034 . S
O436 C431 1.246 . S
O437 Zn429 2.024 . S
O437 C431 1.249 . S
H438 C420 0.948 . S
O439 Zn429 2.039 . S
O439 C443 1.251 . S
O440 Zn421 2.025 . S
O440 C443 1.254 . S
O441 C422 1.246 . S
O441 Zn429 2.034 . S
O442 Zn421 2.024 . S
O442 C422 1.249 . S
C443 O439 1.251 . S
C443 O440 1.254 . S
H444 C417 0.949 . S
H445 C419 0.950 . S
H446 C426 0.949 . S
H447 C428 0.950 . S
C448 O464 1.249 1_565 S
C448 O466 1.254 . S
N449 C450 1.333 . S
N449 C454 1.307 . S
N449 Zn455 2.020 . S
C450 N449 1.333 . S
C450 C451 1.379 . S
C450 H468 0.952 . S
C451 C450 1.379 . S
C451 C452 1.390 . S
C451 H478 0.949 . S
C452 C451 1.390 . S
C452 C453 1.357 . S
C453 C452 1.357 . S
C453 C454 1.370 . S
C453 H479 0.950 . S
C454 N449 1.307 . S
C454 C453 1.370 . S
C454 H472 0.948 . S
Zn455 N449 2.020 . S
Zn455 O464 2.039 . S
Zn455 O470 2.034 . S
Zn455 O474 2.048 . S
Zn455 O476 2.024 1_545 S
C456 O475 1.246 . S
C456 O476 1.249 . S
N457 C458 1.307 . S
N457 C459 1.333 1_455 S
N457 Zn463 2.020 1_565 S
C458 N457 1.307 . S
C458 C462 1.370 . S
C458 H469 0.948 1_565 S
C459 N457 1.333 1_655 S
C459 C460 1.379 . S
C459 H467 0.952 . S
C460 C459 1.379 . S
C460 C461 1.390 . S
C460 H480 0.949 . S
C461 C460 1.390 . S
C461 C462 1.357 1_655 S
C462 C458 1.370 . S
C462 C461 1.357 1_455 S
C462 H481 0.950 . S
Zn463 N457 2.020 1_545 S
Zn463 O466 2.025 1_545 S
Zn463 O471 2.024 . S
Zn463 O473 2.039 1_455 S
Zn463 O475 2.034 1_545 S
O464 C448 1.249 1_545 S
O464 Zn455 2.039 . S
C465 O470 1.246 . S
C465 O471 1.249 . S
O466 C448 1.254 . S
O466 Zn463 2.025 1_565 S
H467 C459 0.952 . S
H468 C450 0.952 . S
H469 C458 0.948 1_545 S
O470 Zn455 2.034 . S
O470 C465 1.246 . S
O471 Zn463 2.024 . S
O471 C465 1.249 . S
H472 C454 0.948 . S
O473 Zn463 2.039 1_655 S
O473 C477 1.251 . S
O474 Zn455 2.048 . S
O474 C477 1.238 1_455 S
O475 C456 1.246 . S
O475 Zn463 2.034 1_565 S
O476 Zn455 2.024 1_565 S
O476 C456 1.249 . S
C477 O473 1.251 . S
C477 O474 1.238 1_655 S
H478 C451 0.949 . S
H479 C453 0.950 . S
H480 C460 0.949 . S
H481 C462 0.950 . S
C482 O498 1.251 . S
C482 O500 1.254 . S
N483 C484 1.333 . S
N483 C488 1.307 . S
N483 Zn489 2.020 . S
C484 N483 1.333 . S
C484 C485 1.379 . S
C484 H502 0.952 . S
C485 C484 1.379 . S
C485 C486 1.390 . S
C485 H512 0.949 . S
C486 C485 1.390 . S
C486 C487 1.357 . S
C487 C486 1.357 . S
C487 C488 1.370 . S
C487 H513 0.950 . S
C488 N483 1.307 . S
C488 C487 1.370 . S
C488 H506 0.948 . S
Zn489 N483 2.020 . S
Zn489 O498 2.039 . S
Zn489 O504 2.034 . S
Zn489 O508 2.025 . S
Zn489 O510 2.024 . S
C490 O509 1.246 . S
C490 O510 1.249 . S
N491 C492 1.307 . S
N491 C493 1.333 . S
N491 Zn497 2.020 . S
C492 N491 1.307 . S
C492 C496 1.370 . S
C492 H503 0.948 . S
C493 N491 1.333 . S
C493 C494 1.379 . S
C493 H501 0.952 . S
C494 C493 1.379 . S
C494 C495 1.390 . S
C494 H514 0.949 . S
C495 C494 1.390 . S
C495 C496 1.357 . S
C496 C492 1.370 . S
C496 C495 1.357 . S
C496 H515 0.950 . S
Zn497 N491 2.020 . S
Zn497 O500 2.025 . S
Zn497 O505 2.024 . S
Zn497 O507 2.039 . S
Zn497 O509 2.034 . S
O498 C482 1.251 . S
O498 Zn489 2.039 . S
C499 O504 1.246 . S
C499 O505 1.249 . S
O500 C482 1.254 . S
O500 Zn497 2.025 . S
H501 C493 0.952 . S
H502 C484 0.952 . S
H503 C492 0.948 . S
O504 Zn489 2.034 . S
O504 C499 1.246 . S
O505 Zn497 2.024 . S
O505 C499 1.249 . S
H506 C488 0.948 . S
O507 Zn497 2.039 . S
O507 C511 1.251 . S
O508 Zn489 2.025 . S
O508 C511 1.254 . S
O509 C490 1.246 . S
O509 Zn497 2.034 . S
O510 Zn489 2.024 . S
O510 C490 1.249 . S
C511 O507 1.251 . S
C511 O508 1.254 . S
H512 C485 0.949 . S
H513 C487 0.950 . S
H514 C494 0.949 . S
H515 C496 0.950 . S
C516 O532 1.251 . S
C516 O534 1.254 . S
N517 C518 1.333 . S
N517 C522 1.307 . S
N517 Zn523 2.020 . S
C518 N517 1.333 . S
C518 C519 1.379 . S
C518 H536 0.952 1_545 S
C519 C518 1.379 . S
C519 C520 1.390 . S
C519 H546 0.949 . S
C520 C519 1.390 . S
C520 C521 1.357 . S
C521 C520 1.357 . S
C521 C522 1.370 . S
C521 H547 0.950 . S
C522 N517 1.307 . S
C522 C521 1.370 . S
C522 H540 0.948 . S
Zn523 N517 2.020 . S
Zn523 O532 2.039 1_545 S
Zn523 O538 2.034 . S
Zn523 O542 2.025 . S
Zn523 O544 2.013 1_545 S
C524 O543 1.246 . S
C524 O544 1.264 . S
N525 C526 1.307 . S
N525 C527 1.354 . S
N525 Zn531 2.020 1_556 S
C526 N525 1.307 . S
C526 C530 1.370 . S
C526 H537 0.948 . S
C527 N525 1.354 . S
C527 C528 1.388 . S
C527 H535 0.921 1_565 S
C528 C527 1.388 . S
C528 C529 1.390 . S
C528 H548 0.949 1_565 S
C529 C528 1.390 . S
C529 C530 1.357 . S
C530 C526 1.370 . S
C530 C529 1.357 . S
C530 H549 0.950 . S
Zn531 N525 2.020 1_554 S
Zn531 O534 2.025 . S
Zn531 O539 2.024 1_565 S
Zn531 O541 2.034 1_564 S
Zn531 O543 2.034 . S
O532 C516 1.251 . S
O532 Zn523 2.039 1_565 S
C533 O538 1.246 . S
C533 O539 1.249 . S
O534 C516 1.254 . S
O534 Zn531 2.025 . S
H535 C527 0.921 1_545 S
H536 C518 0.952 1_565 S
H537 C526 0.948 . S
O538 Zn523 2.034 . S
O538 C533 1.246 . S
O539 Zn531 2.024 1_545 S
O539 C533 1.249 . S
H540 C522 0.948 . S
O541 Zn531 2.034 1_546 S
O541 C545 1.237 1_556 S
O542 Zn523 2.025 . S
O542 C545 1.254 . S
O543 C524 1.246 . S
O543 Zn531 2.034 . S
O544 Zn523 2.013 1_565 S
O544 C524 1.264 . S
C545 O541 1.237 1_554 S
C545 O542 1.254 . S
H546 C519 0.949 . S
H547 C521 0.950 . S
H548 C528 0.949 1_545 S
H549 C530 0.950 . S
C550 O566 1.251 . S
C550 O568 1.254 . S
N551 C552 1.333 . S
N551 C556 1.307 . S
N551 Zn557 2.020 . S
C552 N551 1.333 . S
C552 C553 1.379 . S
C552 H570 0.952 . S
C553 C552 1.379 . S
C553 C554 1.390 . S
C553 H580 0.949 . S
C554 C553 1.390 . S
C554 C555 1.357 . S
C555 C554 1.357 . S
C555 C556 1.370 . S
C555 H581 0.950 . S
C556 N551 1.307 . S
C556 C555 1.370 . S
C556 H574 0.948 . S
Zn557 N551 2.020 . S
Zn557 O566 2.039 . S
Zn557 O572 2.034 . S
Zn557 O576 2.025 . S
Zn557 O578 2.024 . S
C558 O577 1.246 . S
C558 O578 1.249 . S
N559 C560 1.307 . S
N559 C561 1.333 . S
N559 Zn565 2.020 . S
C560 N559 1.307 . S
C560 C564 1.370 . S
C560 H571 0.948 . S
C561 N559 1.333 . S
C561 C562 1.379 . S
C561 H569 0.952 . S
C562 C561 1.379 . S
C562 C563 1.390 . S
C562 H582 0.949 . S
C563 C562 1.390 . S
C563 C564 1.357 . S
C564 C560 1.370 . S
C564 C563 1.357 . S
C564 H583 0.950 . S
Zn565 N559 2.020 . S
Zn565 O568 2.025 . S
Zn565 O573 2.024 . S
Zn565 O575 2.039 . S
Zn565 O577 2.034 . S
O566 C550 1.251 . S
O566 Zn557 2.039 . S
C567 O572 1.246 . S
C567 O573 1.249 . S
O568 C550 1.254 . S
O568 Zn565 2.025 . S
H569 C561 0.952 . S
H570 C552 0.952 . S
H571 C560 0.948 . S
O572 Zn557 2.034 . S
O572 C567 1.246 . S
O573 Zn565 2.024 . S
O573 C567 1.249 . S
H574 C556 0.948 . S
O575 Zn565 2.039 . S
O575 C579 1.251 . S
O576 Zn557 2.025 . S
O576 C579 1.254 . S
O577 C558 1.246 . S
O577 Zn565 2.034 . S
O578 Zn557 2.024 . S
O578 C558 1.249 . S
C579 O575 1.251 . S
C579 O576 1.254 . S
H580 C553 0.949 . S
H581 C555 0.950 . S
H582 C562 0.949 . S
H583 C564 0.950 . S
C584 O600 1.251 . S
C584 O602 1.254 . S
N585 C586 1.333 . S
N585 C590 1.307 . S
N585 Zn591 2.020 1_556 S
C586 N585 1.333 . S
C586 C587 1.379 . S
C586 H604 0.952 . S
C587 C586 1.379 . S
C587 C588 1.390 . S
C587 H614 0.949 . S
C588 C587 1.390 . S
C588 C589 1.357 . S
C589 C588 1.357 . S
C589 C590 1.370 . S
C589 H615 0.950 . S
C590 N585 1.307 . S
C590 C589 1.370 . S
C590 H608 0.948 . S
Zn591 N585 2.020 1_554 S
Zn591 O600 2.039 . S
Zn591 O606 2.034 . S
Zn591 O610 2.025 . S
Zn591 O612 2.024 1_554 S
C592 O611 1.246 . S
C592 O612 1.249 1_554 S
N593 C594 1.307 . S
N593 C595 1.333 . S
N593 Zn599 2.020 . S
C594 N593 1.307 . S
C594 C598 1.370 . S
C594 H605 0.948 . S
C595 N593 1.333 . S
C595 C596 1.379 . S
C595 H603 0.952 . S
C596 C595 1.379 . S
C596 C597 1.390 . S
C596 H616 0.949 . S
C597 C596 1.390 . S
C597 C598 1.357 . S
C598 C594 1.370 . S
C598 C597 1.357 . S
C598 H617 0.950 . S
Zn599 N593 2.020 . S
Zn599 O602 2.025 . S
Zn599 O607 2.024 . S
Zn599 O609 2.039 . S
Zn599 O611 2.034 . S
O600 C584 1.251 . S
O600 Zn591 2.039 . S
C601 O606 1.246 . S
C601 O607 1.249 . S
O602 C584 1.254 . S
O602 Zn599 2.025 . S
H603 C595 0.952 . S
H604 C586 0.952 . S
H605 C594 0.948 . S
O606 Zn591 2.034 . S
O606 C601 1.246 . S
O607 Zn599 2.024 . S
O607 C601 1.249 . S
H608 C590 0.948 . S
O609 Zn599 2.039 . S
O609 C613 1.251 . S
O610 Zn591 2.025 . S
O610 C613 1.254 . S
O611 C592 1.246 . S
O611 Zn599 2.034 . S
O612 Zn591 2.024 1_556 S
O612 C592 1.249 1_556 S
C613 O609 1.251 . S
C613 O610 1.254 . S
H614 C587 0.949 . S
H615 C589 0.950 . S
H616 C596 0.949 . S
H617 C598 0.950 . S
C618 O634 1.251 . S
C618 O636 1.254 . S
N619 C620 1.333 . S
N619 C624 1.307 . S
N619 Zn625 2.020 . S
C620 N619 1.333 . S
C620 C621 1.379 . S
C620 H638 0.952 . S
C621 C620 1.379 . S
C621 C622 1.390 . S
C621 H648 0.949 . S
C622 C621 1.390 . S
C622 C623 1.357 . S
C623 C622 1.357 . S
C623 C624 1.370 . S
C623 H649 0.950 . S
C624 N619 1.307 . S
C624 C623 1.370 . S
C624 H642 0.948 . S
Zn625 N619 2.020 . S
Zn625 O634 2.039 . S
Zn625 O640 2.034 . S
Zn625 O644 2.025 . S
Zn625 O646 2.024 . S
C626 O645 1.246 . S
C626 O646 1.249 . S
N627 C628 1.307 . S
N627 C629 1.333 . S
N627 Zn633 2.020 . S
C628 N627 1.307 . S
C628 C632 1.370 . S
C628 H639 0.948 . S
C629 N627 1.333 . S
C629 C630 1.379 . S
C629 H637 0.952 . S
C630 C629 1.379 . S
C630 C631 1.390 . S
C630 H650 0.949 . S
C631 C630 1.390 . S
C631 C632 1.357 . S
C632 C628 1.370 . S
C632 C631 1.357 . S
C632 H651 0.950 . S
Zn633 N627 2.020 . S
Zn633 O636 2.025 . S
Zn633 O641 2.024 . S
Zn633 O643 2.039 . S
Zn633 O645 2.034 . S
O634 C618 1.251 . S
O634 Zn625 2.039 . S
C635 O640 1.246 . S
C635 O641 1.249 . S
O636 C618 1.254 . S
O636 Zn633 2.025 . S
H637 C629 0.952 . S
H638 C620 0.952 . S
H639 C628 0.948 . S
O640 Zn625 2.034 . S
O640 C635 1.246 . S
O641 Zn633 2.024 . S
O641 C635 1.249 . S
H642 C624 0.948 . S
O643 Zn633 2.039 . S
O643 C647 1.251 . S
O644 Zn625 2.025 . S
O644 C647 1.254 . S
O645 C626 1.246 . S
O645 Zn633 2.034 . S
O646 Zn625 2.024 . S
O646 C626 1.249 . S
C647 O643 1.251 . S
C647 O644 1.254 . S
H648 C621 0.949 . S
H649 C623 0.950 . S
H650 C630 0.949 . S
H651 C632 0.950 . S
C652 O668 1.251 . S
C652 O670 1.254 . S
N653 C654 1.333 . S
N653 C658 1.307 . S
N653 Zn659 2.020 . S
C654 N653 1.333 . S
C654 C655 1.379 . S
C654 H672 0.952 . S
C655 C654 1.379 . S
C655 C656 1.390 . S
C655 H682 0.949 . S
C656 C655 1.390 . S
C656 C657 1.357 . S
C657 C656 1.357 . S
C657 C658 1.370 . S
C657 H683 0.950 . S
C658 N653 1.307 . S
C658 C657 1.370 . S
C658 H676 0.948 . S
Zn659 N653 2.020 . S
Zn659 O668 2.039 . S
Zn659 O674 2.034 . S
Zn659 O678 2.025 . S
Zn659 O680 2.024 . S
C660 O679 1.246 . S
C660 O680 1.249 . S
N661 C662 1.307 1_455 S
N661 C663 1.333 . S
N661 Zn667 2.020 . S
C662 N661 1.307 1_655 S
C662 C666 1.370 . S
C662 H673 0.948 . S
C663 N661 1.333 . S
C663 C664 1.379 . S
C663 H671 0.952 . S
C664 C663 1.379 . S
C664 C665 1.390 1_455 S
C664 H684 0.949 . S
C665 C664 1.390 1_655 S
C665 C666 1.357 . S
C666 C662 1.370 . S
C666 C665 1.357 . S
C666 H685 0.950 . S
Zn667 N661 2.020 . S
Zn667 O670 2.025 . S
Zn667 O675 2.024 1_455 S
Zn667 O677 2.039 . S
Zn667 O679 2.034 . S
O668 C652 1.251 . S
O668 Zn659 2.039 . S
C669 O674 1.246 1_655 S
C669 O675 1.249 . S
O670 C652 1.254 . S
O670 Zn667 2.025 . S
H671 C663 0.952 . S
H672 C654 0.952 . S
H673 C662 0.948 . S
O674 Zn659 2.034 . S
O674 C669 1.246 1_455 S
O675 Zn667 2.024 1_655 S
O675 C669 1.249 . S
H676 C658 0.948 . S
O677 Zn667 2.039 . S
O677 C681 1.251 . S
O678 Zn659 2.025 . S
O678 C681 1.254 . S
O679 C660 1.246 . S
O679 Zn667 2.034 . S
O680 Zn659 2.024 . S
O680 C660 1.249 . S
C681 O677 1.251 . S
C681 O678 1.254 . S
H682 C655 0.949 . S
H683 C657 0.950 . S
H684 C664 0.949 . S
H685 C666 0.950 . S
C686 O702 1.251 . S
C686 O704 1.254 . S
N687 C688 1.333 . S
N687 C692 1.307 . S
N687 Zn693 2.020 . S
C688 N687 1.333 . S
C688 C689 1.379 . S
C688 H706 0.952 . S
C689 C688 1.379 . S
C689 C690 1.390 . S
C689 H716 0.949 . S
C690 C689 1.390 . S
C690 C691 1.357 . S
C691 C690 1.357 . S
C691 C692 1.370 . S
C691 H717 0.950 . S
C692 N687 1.307 . S
C692 C691 1.370 . S
C692 H710 0.948 . S
Zn693 N687 2.020 . S
Zn693 O702 2.039 . S
Zn693 O708 2.034 . S
Zn693 O712 2.025 . S
Zn693 O714 2.024 . S
C694 O713 1.246 . S
C694 O714 1.249 . S
N695 C696 1.307 . S
N695 C697 1.333 . S
N695 Zn701 2.020 . S
C696 N695 1.307 . S
C696 C700 1.370 . S
C696 H707 0.948 . S
C697 N695 1.333 . S
C697 C698 1.379 . S
C697 H705 0.952 . S
C698 C697 1.379 . S
C698 C699 1.390 . S
C698 H718 0.949 . S
C699 C698 1.390 . S
C699 C700 1.357 . S
C700 C696 1.370 . S
C700 C699 1.357 . S
C700 H719 0.950 . S
Zn701 N695 2.020 . S
Zn701 O704 2.025 . S
Zn701 O709 2.024 . S
Zn701 O711 2.039 . S
Zn701 O713 2.034 . S
O702 C686 1.251 . S
O702 Zn693 2.039 . S
C703 O708 1.246 . S
C703 O709 1.249 . S
O704 C686 1.254 . S
O704 Zn701 2.025 . S
H705 C697 0.952 . S
H706 C688 0.952 . S
H707 C696 0.948 . S
O708 Zn693 2.034 . S
O708 C703 1.246 . S
O709 Zn701 2.024 . S
O709 C703 1.249 . S
H710 C692 0.948 . S
O711 Zn701 2.039 . S
O711 C715 1.251 . S
O712 Zn693 2.025 . S
O712 C715 1.254 . S
O713 C694 1.246 . S
O713 Zn701 2.034 . S
O714 Zn693 2.024 . S
O714 C694 1.249 . S
C715 O711 1.251 . S
C715 O712 1.254 . S
H716 C689 0.949 . S
H717 C691 0.950 . S
H718 C698 0.949 . S
H719 C700 0.950 . S
C720 O736 1.251 . S
C720 O738 1.254 . S
N721 C722 1.333 . S
N721 C726 1.307 . S
N721 Zn727 2.020 . S
C722 N721 1.333 . S
C722 C723 1.379 . S
C722 H740 0.952 . S
C723 C722 1.379 . S
C723 C724 1.390 . S
C723 H750 0.949 . S
C724 C723 1.390 . S
C724 C725 1.357 . S
C725 C724 1.357 . S
C725 C726 1.370 . S
C725 H751 0.950 . S
C726 N721 1.307 . S
C726 C725 1.370 . S
C726 H744 0.948 . S
Zn727 N721 2.020 . S
Zn727 O736 2.039 . S
Zn727 O742 2.034 . S
Zn727 O746 2.025 . S
Zn727 O748 2.024 . S
C728 O747 1.246 . S
C728 O748 1.249 . S
N729 C730 1.307 . S
N729 C731 1.333 . S
N729 Zn735 2.020 . S
C730 N729 1.307 . S
C730 C734 1.370 . S
C730 H741 0.948 . S
C731 N729 1.333 . S
C731 C732 1.379 . S
C731 H739 0.952 . S
C732 C731 1.379 . S
C732 C733 1.390 . S
C732 H752 0.949 . S
C733 C732 1.390 . S
C733 C734 1.357 . S
C734 C730 1.370 . S
C734 C733 1.357 . S
C734 H753 0.950 . S
Zn735 N729 2.020 . S
Zn735 O738 2.025 . S
Zn735 O743 2.024 . S
Zn735 O745 2.039 . S
Zn735 O747 2.034 . S
O736 C720 1.251 . S
O736 Zn727 2.039 . S
C737 O742 1.246 . S
C737 O743 1.249 . S
O738 C720 1.254 . S
O738 Zn735 2.025 . S
H739 C731 0.952 . S
H740 C722 0.952 . S
H741 C730 0.948 . S
O742 Zn727 2.034 . S
O742 C737 1.246 . S
O743 Zn735 2.024 . S
O743 C737 1.249 . S
H744 C726 0.948 . S
O745 Zn735 2.039 . S
O745 C749 1.251 . S
O746 Zn727 2.025 . S
O746 C749 1.254 . S
O747 C728 1.246 . S
O747 Zn735 2.034 . S
O748 Zn727 2.024 . S
O748 C728 1.249 . S
C749 O745 1.251 . S
C749 O746 1.254 . S
H750 C723 0.949 . S
H751 C725 0.950 . S
H752 C732 0.949 . S
H753 C734 0.950 . S
C754 O770 1.251 . S
C754 O772 1.254 . S
N755 C756 1.333 . S
N755 C760 1.307 . S
N755 Zn761 2.020 . S
C756 N755 1.333 . S
C756 C757 1.379 . S
C756 H774 0.952 . S
C757 C756 1.379 . S
C757 C758 1.390 . S
C757 H784 0.949 . S
C758 C757 1.390 . S
C758 C759 1.357 . S
C759 C758 1.357 . S
C759 C760 1.370 . S
C759 H785 0.950 . S
C760 N755 1.307 . S
C760 C759 1.370 . S
C760 H778 0.948 . S
Zn761 N755 2.020 . S
Zn761 O770 2.039 . S
Zn761 O776 2.034 . S
Zn761 O780 2.025 . S
Zn761 O782 2.024 . S
C762 O781 1.246 . S
C762 O782 1.249 . S
N763 C764 1.307 . S
N763 C765 1.333 . S
N763 Zn769 2.020 . S
C764 N763 1.307 . S
C764 C768 1.370 . S
C764 H775 0.948 . S
C765 N763 1.333 . S
C765 C766 1.379 . S
C765 H773 0.952 . S
C766 C765 1.379 . S
C766 C767 1.390 . S
C766 H786 0.949 . S
C767 C766 1.390 . S
C767 C768 1.357 . S
C768 C764 1.370 . S
C768 C767 1.357 . S
C768 H787 0.950 . S
Zn769 N763 2.020 . S
Zn769 O772 2.025 . S
Zn769 O777 2.024 . S
Zn769 O779 2.039 . S
Zn769 O781 2.034 . S
O770 C754 1.251 . S
O770 Zn761 2.039 . S
C771 O776 1.246 . S
C771 O777 1.249 . S
O772 C754 1.254 . S
O772 Zn769 2.025 . S
H773 C765 0.952 . S
H774 C756 0.952 . S
H775 C764 0.948 . S
O776 Zn761 2.034 . S
O776 C771 1.246 . S
O777 Zn769 2.024 . S
O777 C771 1.249 . S
H778 C760 0.948 . S
O779 Zn769 2.039 . S
O779 C783 1.251 . S
O780 Zn761 2.025 . S
O780 C783 1.254 . S
O781 C762 1.246 . S
O781 Zn769 2.034 . S
O782 Zn761 2.024 . S
O782 C762 1.249 . S
C783 O779 1.251 . S
C783 O780 1.254 . S
H784 C757 0.949 . S
H785 C759 0.950 . S
H786 C766 0.949 . S
H787 C768 0.950 . S
C788 O804 1.251 . S
C788 O806 1.254 . S
N789 C790 1.333 . S
N789 C794 1.307 . S
N789 Zn795 2.020 . S
C790 N789 1.333 . S
C790 C791 1.379 . S
C790 H808 0.952 . S
C791 C790 1.379 . S
C791 C792 1.390 . S
C791 H818 0.949 . S
C792 C791 1.390 . S
C792 C793 1.357 . S
C793 C792 1.357 . S
C793 C794 1.370 . S
C793 H819 0.950 . S
C794 N789 1.307 . S
C794 C793 1.370 . S
C794 H812 0.948 . S
Zn795 N789 2.020 . S
Zn795 O804 2.039 . S
Zn795 O810 2.034 . S
Zn795 O814 2.025 . S
Zn795 O816 2.024 . S
C796 O815 1.246 . S
C796 O816 1.249 . S
N797 C798 1.307 . S
N797 C799 1.333 . S
N797 Zn803 2.020 . S
C798 N797 1.307 . S
C798 C802 1.370 . S
C798 H809 0.948 . S
C799 N797 1.333 . S
C799 C800 1.379 . S
C799 H807 0.952 . S
C800 C799 1.379 . S
C800 C801 1.390 . S
C800 H820 0.949 . S
C801 C800 1.390 . S
C801 C802 1.357 . S
C802 C798 1.370 . S
C802 C801 1.357 . S
C802 H821 0.950 . S
Zn803 N797 2.020 . S
Zn803 O806 2.025 . S
Zn803 O811 2.024 . S
Zn803 O813 2.039 . S
Zn803 O815 2.034 . S
O804 C788 1.251 . S
O804 Zn795 2.039 . S
C805 O810 1.246 . S
C805 O811 1.249 . S
O806 C788 1.254 . S
O806 Zn803 2.025 . S
H807 C799 0.952 . S
H808 C790 0.952 . S
H809 C798 0.948 . S
O810 Zn795 2.034 . S
O810 C805 1.246 . S
O811 Zn803 2.024 . S
O811 C805 1.249 . S
H812 C794 0.948 . S
O813 Zn803 2.039 . S
O813 C817 1.251 . S
O814 Zn795 2.025 . S
O814 C817 1.254 . S
O815 C796 1.246 . S
O815 Zn803 2.034 . S
O816 Zn795 2.024 . S
O816 C796 1.249 . S
C817 O813 1.251 . S
C817 O814 1.254 . S
H818 C791 0.949 . S
H819 C793 0.950 . S
H820 C800 0.949 . S
H821 C802 0.950 . S
C822 O838 1.251 . S
C822 O840 1.254 . S
N823 C824 1.333 . S
N823 C828 1.307 . S
N823 Zn829 2.020 . S
C824 N823 1.333 . S
C824 C825 1.379 . S
C824 H842 0.952 . S
C825 C824 1.379 . S
C825 C826 1.390 . S
C825 H852 0.949 . S
C826 C825 1.390 . S
C826 C827 1.357 . S
C827 C826 1.357 . S
C827 C828 1.370 . S
C827 H853 0.950 . S
C828 N823 1.307 . S
C828 C827 1.370 . S
C828 H846 0.948 . S
Zn829 N823 2.020 . S
Zn829 O838 2.039 . S
Zn829 O844 2.034 . S
Zn829 O848 2.025 1_554 S
Zn829 O850 2.024 . S
C830 O849 1.246 . S
C830 O850 1.249 1_655 S
N831 C832 1.307 . S
N831 C833 1.333 1_554 S
N831 Zn837 2.020 . S
C832 N831 1.307 . S
C832 C836 1.370 . S
C832 H843 0.948 . S
C833 N831 1.333 1_556 S
C833 C834 1.379 . S
C833 H841 0.952 . S
C834 C833 1.379 . S
C834 C835 1.390 . S
C834 H854 0.949 . S
C835 C834 1.390 . S
C835 C836 1.357 1_556 S
C836 C832 1.370 . S
C836 C835 1.357 1_554 S
C836 H855 0.950 . S
Zn837 N831 2.020 . S
Zn837 O840 2.025 . S
Zn837 O845 2.024 . S
Zn837 O847 2.039 1_554 S
Zn837 O849 2.034 1_455 S
O838 C822 1.251 . S
O838 Zn829 2.039 . S
C839 O844 1.246 . S
C839 O845 1.249 . S
O840 C822 1.254 . S
O840 Zn837 2.025 . S
H841 C833 0.952 . S
H842 C824 0.952 . S
H843 C832 0.948 . S
O844 Zn829 2.034 . S
O844 C839 1.246 . S
O845 Zn837 2.024 . S
O845 C839 1.249 . S
H846 C828 0.948 . S
O847 Zn837 2.039 1_556 S
O847 C851 1.251 . S
O848 Zn829 2.025 1_556 S
O848 C851 1.254 . S
O849 C830 1.246 . S
O849 Zn837 2.034 1_655 S
O850 Zn829 2.024 . S
O850 C830 1.249 1_455 S
C851 O847 1.251 . S
C851 O848 1.254 . S
H852 C825 0.949 . S
H853 C827 0.950 . S
H854 C834 0.949 . S
H855 C836 0.950 . S
H856 C862 0.930 . S
H857 C865 0.930 . S
H858 C866 0.930 . S
H859 C867 0.930 . S
H860 C870 0.930 . S
H861 C871 0.930 . S
C862 H856 0.930 . S
C862 C863 1.355 . S
C862 C864 1.415 . S
C863 C862 1.355 . S
C863 C865 1.419 . S
C864 C862 1.415 . S
C864 C869 1.425 . S
C864 C871 1.409 . S
C865 H857 0.930 . S
C865 C863 1.419 . S
C865 C866 1.362 . S
C866 H858 0.930 . S
C866 C865 1.362 . S
C866 C869 1.409 . S
C867 H859 0.930 . S
C867 C868 1.355 . S
C867 C869 1.415 . S
C868 C867 1.355 . S
C868 C870 1.419 . S
C869 C864 1.425 . S
C869 C866 1.409 . S
C869 C867 1.415 . S
C870 H860 0.930 . S
C870 C868 1.419 . S
C870 C871 1.362 . S
C871 H861 0.930 . S
C871 C864 1.409 . S
C871 C870 1.362 . S
H872 C878 0.930 . S
H873 C881 0.930 . S
H874 C882 0.930 . S
H875 C883 0.930 . S
H876 C886 0.930 . S
H877 C887 0.930 . S
C878 H872 0.930 . S
C878 C879 1.355 . S
C878 C880 1.415 . S
C879 C878 1.355 . S
C879 C881 1.419 . S
C880 C878 1.415 . S
C880 C885 1.425 . S
C880 C887 1.409 . S
C881 H873 0.930 . S
C881 C879 1.419 . S
C881 C882 1.362 . S
C882 H874 0.930 . S
C882 C881 1.362 . S
C882 C885 1.409 . S
C883 H875 0.930 . S
C883 C884 1.355 . S
C883 C885 1.415 . S
C884 C883 1.355 . S
C884 C886 1.419 . S
C885 C880 1.425 . S
C885 C882 1.409 . S
C885 C883 1.415 . S
C886 H876 0.930 . S
C886 C884 1.419 . S
C886 C887 1.362 . S
C887 H877 0.930 . S
C887 C880 1.409 . S
C887 C886 1.362 . S
H888 C894 0.930 . S
H889 C897 0.930 . S
H890 C898 0.930 . S
H891 C899 0.930 . S
H892 C902 0.930 . S
H893 C903 0.930 . S
C894 H888 0.930 . S
C894 C895 1.355 . S
C894 C896 1.415 . S
C895 C894 1.355 . S
C895 C897 1.419 . S
C896 C894 1.415 . S
C896 C901 1.425 . S
C896 C903 1.409 . S
C897 H889 0.930 . S
C897 C895 1.419 . S
C897 C898 1.362 . S
C898 H890 0.930 . S
C898 C897 1.362 . S
C898 C901 1.409 . S
C899 H891 0.930 . S
C899 C900 1.355 . S
C899 C901 1.415 . S
C900 C899 1.355 . S
C900 C902 1.419 . S
C901 C896 1.425 . S
C901 C898 1.409 . S
C901 C899 1.415 . S
C902 H892 0.930 . S
C902 C900 1.419 . S
C902 C903 1.362 . S
C903 H893 0.930 . S
C903 C896 1.409 . S
C903 C902 1.362 . S
H904 C910 0.930 . S
H905 C913 0.930 . S
H906 C914 0.930 . S
H907 C915 0.930 . S
H908 C918 0.930 . S
H909 C919 0.930 . S
C910 H904 0.930 . S
C910 C911 1.355 . S
C910 C912 1.415 . S
C911 C910 1.355 . S
C911 C913 1.419 . S
C912 C910 1.415 . S
C912 C917 1.425 . S
C912 C919 1.409 . S
C913 H905 0.930 . S
C913 C911 1.419 . S
C913 C914 1.362 . S
C914 H906 0.930 . S
C914 C913 1.362 . S
C914 C917 1.409 . S
C915 H907 0.930 . S
C915 C916 1.355 . S
C915 C917 1.415 . S
C916 C915 1.355 . S
C916 C918 1.419 . S
C917 C912 1.425 . S
C917 C914 1.409 . S
C917 C915 1.415 . S
C918 H908 0.930 . S
C918 C916 1.419 . S
C918 C919 1.362 . S
C919 H909 0.930 . S
C919 C912 1.409 . S
C919 C918 1.362 . S
H920 C926 0.930 . S
H921 C929 0.954 . S
H922 C930 0.930 . S
H923 C931 0.930 1_655 S
H924 C934 0.930 . S
H925 C935 0.930 . S
C926 H920 0.930 . S
C926 C927 1.355 . S
C926 C928 1.415 . S
C927 C926 1.355 . S
C927 C929 1.387 1_455 S
C928 C926 1.415 . S
C928 C933 1.425 . S
C928 C935 1.409 . S
C929 H921 0.954 . S
C929 C927 1.387 1_655 S
C929 C930 1.372 . S
C930 H922 0.930 . S
C930 C929 1.372 . S
C930 C933 1.409 1_655 S
C931 H923 0.930 1_455 S
C931 C932 1.355 . S
C931 C933 1.415 . S
C932 C931 1.355 . S
C932 C934 1.419 . S
C933 C928 1.425 . S
C933 C930 1.409 1_455 S
C933 C931 1.415 . S
C934 H924 0.930 . S
C934 C932 1.419 . S
C934 C935 1.362 . S
C935 H925 0.930 . S
C935 C928 1.409 . S
C935 C934 1.362 . S
H936 C942 0.930 . S
H937 C945 0.930 . S
H938 C946 0.930 . S
H939 C947 0.930 . S
H940 C950 0.930 . S
H941 C951 0.930 . S
C942 H936 0.930 . S
C942 C943 1.355 . S
C942 C944 1.415 . S
C943 C942 1.355 . S
C943 C945 1.419 . S
C944 C942 1.415 . S
C944 C949 1.425 . S
C944 C951 1.409 . S
C945 H937 0.930 . S
C945 C943 1.419 . S
C945 C946 1.362 . S
C946 H938 0.930 . S
C946 C945 1.362 . S
C946 C949 1.409 . S
C947 H939 0.930 . S
C947 C948 1.355 . S
C947 C949 1.415 . S
C948 C947 1.355 . S
C948 C950 1.419 . S
C949 C944 1.425 . S
C949 C946 1.409 . S
C949 C947 1.415 . S
C950 H940 0.930 . S
C950 C948 1.419 . S
C950 C951 1.362 . S
C951 H941 0.930 . S
C951 C944 1.409 . S
C951 C950 1.362 . S
H952 C958 0.930 . S
H953 C961 0.930 . S
H954 C962 0.930 . S
H955 C963 0.930 . S
H956 C966 0.930 . S
H957 C967 0.930 1_554 S
C958 H952 0.930 . S
C958 C959 1.355 . S
C958 C960 1.415 . S
C959 C958 1.355 . S
C959 C961 1.419 . S
C960 C958 1.415 . S
C960 C965 1.425 . S
C960 C967 1.409 . S
C961 H953 0.930 . S
C961 C959 1.419 . S
C961 C962 1.362 . S
C962 H954 0.930 . S
C962 C961 1.362 . S
C962 C965 1.409 . S
C963 H955 0.930 . S
C963 C964 1.355 . S
C963 C965 1.415 . S
C964 C963 1.355 . S
C964 C966 1.419 1_556 S
C965 C960 1.425 . S
C965 C962 1.409 . S
C965 C963 1.415 . S
C966 H956 0.930 . S
C966 C964 1.419 1_554 S
C966 C967 1.362 1_554 S
C967 H957 0.930 1_556 S
C967 C960 1.409 . S
C967 C966 1.362 1_556 S
H968 C974 0.930 . S
H969 C977 0.930 . S
H970 C978 0.930 . S
H971 C979 0.930 . S
H972 C982 0.930 . S
H973 C983 0.930 . S
C974 H968 0.930 . S
C974 C975 1.355 . S
C974 C976 1.415 . S
C975 C974 1.355 . S
C975 C977 1.419 . S
C976 C974 1.415 . S
C976 C981 1.425 . S
C976 C983 1.409 . S
C977 H969 0.930 . S
C977 C975 1.419 . S
C977 C978 1.362 . S
C978 H970 0.930 . S
C978 C977 1.362 . S
C978 C981 1.409 . S
C979 H971 0.930 . S
C979 C980 1.355 . S
C979 C981 1.415 . S
C980 C979 1.355 . S
C980 C982 1.419 . S
C981 C976 1.425 . S
C981 C978 1.409 . S
C981 C979 1.415 . S
C982 H972 0.930 . S
C982 C980 1.419 . S
C982 C983 1.362 . S
C983 H973 0.930 . S
C983 C976 1.409 . S
C983 C982 1.362 . S
H984 C990 0.930 . S
H985 C993 0.930 . S
H986 C994 0.930 . S
H987 C995 0.930 . S
H988 C998 0.930 . S
H989 C999 0.931 . S
C990 H984 0.930 . S
C990 C991 1.355 . S
C990 C992 1.415 . S
C991 C990 1.355 . S
C991 C993 1.419 . S
C992 C990 1.415 . S
C992 C997 1.426 . S
C992 C999 1.409 1_545 S
C993 H985 0.930 . S
C993 C991 1.419 . S
C993 C994 1.362 . S
C994 H986 0.930 . S
C994 C993 1.362 . S
C994 C997 1.410 . S
C995 H987 0.930 . S
C995 C996 1.355 . S
C995 C997 1.413 1_565 S
C996 C995 1.355 . S
C996 C998 1.419 . S
C997 C992 1.426 . S
C997 C994 1.410 . S
C997 C995 1.413 1_545 S
C998 H988 0.930 . S
C998 C996 1.419 . S
C998 C999 1.362 . S
C999 H989 0.931 . S
C999 C992 1.409 1_565 S
C999 C998 1.362 . S
H1000 C1006 0.930 . S
H1001 C1009 0.930 . S
H1002 C1010 0.930 . S
H1003 C1011 0.930 . S
H1004 C1014 0.930 . S
H1005 C1015 0.930 . S
C1006 H1000 0.930 . S
C1006 C1007 1.355 . S
C1006 C1008 1.415 . S
C1007 C1006 1.355 . S
C1007 C1009 1.419 . S
C1008 C1006 1.415 . S
C1008 C1013 1.425 . S
C1008 C1015 1.409 . S
C1009 H1001 0.930 . S
C1009 C1007 1.419 . S
C1009 C1010 1.362 . S
C1010 H1002 0.930 . S
C1010 C1009 1.362 . S
C1010 C1013 1.409 . S
C1011 H1003 0.930 . S
C1011 C1012 1.355 . S
C1011 C1013 1.415 . S
C1012 C1011 1.355 . S
C1012 C1014 1.419 . S
C1013 C1008 1.425 . S
C1013 C1010 1.409 . S
C1013 C1011 1.415 . S
C1014 H1004 0.930 . S
C1014 C1012 1.419 . S
C1014 C1015 1.362 . S
C1015 H1005 0.930 . S
C1015 C1008 1.409 . S
C1015 C1014 1.362 . S
H1016 C1022 0.930 1_565 S
H1017 C1025 0.930 . S
H1018 C1026 0.930 . S
H1019 C1027 0.930 . S
H1020 C1030 0.930 . S
H1021 C1031 0.930 . S
C1022 H1016 0.930 1_545 S
C1022 C1023 1.355 . S
C1022 C1024 1.415 . S
C1023 C1022 1.355 . S
C1023 C1025 1.419 . S
C1024 C1022 1.415 . S
C1024 C1029 1.425 . S
C1024 C1031 1.409 1_545 S
C1025 H1017 0.930 . S
C1025 C1023 1.419 . S
C1025 C1026 1.362 . S
C1026 H1018 0.930 . S
C1026 C1025 1.362 . S
C1026 C1029 1.409 . S
C1027 H1019 0.930 . S
C1027 C1028 1.355 . S
C1027 C1029 1.415 . S
C1028 C1027 1.355 . S
C1028 C1030 1.419 1_545 S
C1029 C1024 1.425 . S
C1029 C1026 1.409 . S
C1029 C1027 1.415 . S
C1030 H1020 0.930 . S
C1030 C1028 1.419 1_565 S
C1030 C1031 1.362 . S
C1031 H1021 0.930 . S
C1031 C1024 1.409 1_565 S
C1031 C1030 1.362 . S
H1032 C1038 0.930 . S
H1033 C1041 0.930 . S
H1034 C1042 0.930 . S
H1035 C1043 0.930 . S
H1036 C1046 0.930 . S
H1037 C1047 0.930 . S
C1038 H1032 0.930 . S
C1038 C1039 1.355 . S
C1038 C1040 1.415 . S
C1039 C1038 1.355 . S
C1039 C1041 1.419 . S
C1040 C1038 1.415 . S
C1040 C1045 1.425 . S
C1040 C1047 1.409 . S
C1041 H1033 0.930 . S
C1041 C1039 1.419 . S
C1041 C1042 1.362 . S
C1042 H1034 0.930 . S
C1042 C1041 1.362 . S
C1042 C1045 1.409 . S
C1043 H1035 0.930 . S
C1043 C1044 1.355 . S
C1043 C1045 1.415 . S
C1044 C1043 1.355 . S
C1044 C1046 1.419 . S
C1045 C1040 1.425 . S
C1045 C1042 1.409 . S
C1045 C1043 1.415 . S
C1046 H1036 0.930 . S
C1046 C1044 1.419 . S
C1046 C1047 1.362 . S
C1047 H1037 0.930 . S
C1047 C1040 1.409 . S
C1047 C1046 1.362 . S
H1048 C1054 0.930 . S
H1049 C1057 0.930 . S
H1050 C1058 0.930 . S
H1051 C1059 0.930 . S
H1052 C1062 0.930 . S
H1053 C1063 0.930 1_565 S
C1054 H1048 0.930 . S
C1054 C1055 1.355 . S
C1054 C1056 1.415 . S
C1055 C1054 1.355 . S
C1055 C1057 1.419 . S
C1056 C1054 1.415 . S
C1056 C1061 1.425 . S
C1056 C1063 1.409 . S
C1057 H1049 0.930 . S
C1057 C1055 1.419 . S
C1057 C1058 1.362 . S
C1058 H1050 0.930 . S
C1058 C1057 1.362 . S
C1058 C1061 1.409 . S
C1059 H1051 0.930 . S
C1059 C1060 1.355 . S
C1059 C1061 1.415 . S
C1060 C1059 1.355 . S
C1060 C1062 1.419 . S
C1061 C1056 1.425 . S
C1061 C1058 1.409 . S
C1061 C1059 1.415 . S
C1062 H1052 0.930 . S
C1062 C1060 1.419 . S
C1062 C1063 1.362 . S
C1063 H1053 0.930 1_545 S
C1063 C1056 1.409 . S
C1063 C1062 1.362 . S
H1064 C1070 0.930 . S
H1065 C1073 0.930 . S
H1066 C1074 0.930 . S
H1067 C1075 0.930 . S
H1068 C1078 0.930 . S
H1069 C1079 0.930 . S
C1070 H1064 0.930 . S
C1070 C1071 1.355 . S
C1070 C1072 1.415 . S
C1071 C1070 1.355 . S
C1071 C1073 1.419 . S
C1072 C1070 1.415 . S
C1072 C1077 1.425 . S
C1072 C1079 1.409 . S
C1073 H1065 0.930 . S
C1073 C1071 1.419 . S
C1073 C1074 1.362 . S
C1074 H1066 0.930 . S
C1074 C1073 1.362 . S
C1074 C1077 1.409 . S
C1075 H1067 0.930 . S
C1075 C1076 1.355 . S
C1075 C1077 1.415 . S
C1076 C1075 1.355 . S
C1076 C1078 1.419 . S
C1077 C1072 1.425 . S
C1077 C1074 1.409 . S
C1077 C1075 1.415 . S
C1078 H1068 0.930 . S
C1078 C1076 1.419 . S
C1078 C1079 1.362 . S
C1079 H1069 0.930 . S
C1079 C1072 1.409 . S
C1079 C1078 1.362 . S
H1080 C1086 0.930 . S
H1081 C1089 0.930 . S
H1082 C1090 0.930 . S
H1083 C1091 0.930 . S
H1084 C1094 0.930 . S
H1085 C1095 0.930 . S
C1086 H1080 0.930 . S
C1086 C1087 1.355 1_565 S
C1086 C1088 1.415 . S
C1087 C1086 1.355 1_545 S
C1087 C1089 1.419 . S
C1088 C1086 1.415 . S
C1088 C1093 1.425 . S
C1088 C1095 1.409 . S
C1089 H1081 0.930 . S
C1089 C1087 1.419 . S
C1089 C1090 1.362 . S
C1090 H1082 0.930 . S
C1090 C1089 1.362 . S
C1090 C1093 1.409 1_545 S
C1091 H1083 0.930 . S
C1091 C1092 1.355 . S
C1091 C1093 1.415 . S
C1092 C1091 1.355 . S
C1092 C1094 1.419 . S
C1093 C1088 1.425 . S
C1093 C1090 1.409 1_565 S
C1093 C1091 1.415 . S
C1094 H1084 0.930 . S
C1094 C1092 1.419 . S
C1094 C1095 1.362 . S
C1095 H1085 0.930 . S
C1095 C1088 1.409 . S
C1095 C1094 1.362 . S
H1096 C1102 0.930 . S
H1097 C1105 0.930 . S
H1098 C1106 0.930 . S
H1099 C1107 0.930 . S
H1100 C1110 0.930 . S
H1101 C1111 0.930 . S
C1102 H1096 0.930 . S
C1102 C1103 1.355 . S
C1102 C1104 1.415 . S
C1103 C1102 1.355 . S
C1103 C1105 1.419 . S
C1104 C1102 1.415 . S
C1104 C1109 1.425 . S
C1104 C1111 1.409 . S
C1105 H1097 0.930 . S
C1105 C1103 1.419 . S
C1105 C1106 1.362 . S
C1106 H1098 0.930 . S
C1106 C1105 1.362 . S
C1106 C1109 1.409 . S
C1107 H1099 0.930 . S
C1107 C1108 1.355 . S
C1107 C1109 1.415 . S
C1108 C1107 1.355 . S
C1108 C1110 1.419 . S
C1109 C1104 1.425 . S
C1109 C1106 1.409 . S
C1109 C1107 1.415 . S
C1110 H1100 0.930 . S
C1110 C1108 1.419 . S
C1110 C1111 1.362 . S
C1111 H1101 0.930 . S
C1111 C1104 1.409 . S
C1111 C1110 1.362 . S
H1112 C1118 0.930 . S
H1113 C1121 0.930 . S
H1114 C1122 0.930 . S
H1115 C1123 0.930 . S
H1116 C1126 0.930 . S
H1117 C1127 0.930 . S
C1118 H1112 0.930 . S
C1118 C1119 1.355 . S
C1118 C1120 1.415 . S
C1119 C1118 1.355 . S
C1119 C1121 1.419 . S
C1120 C1118 1.415 . S
C1120 C1125 1.423 1_554 S
C1120 C1127 1.409 . S
C1121 H1113 0.930 . S
C1121 C1119 1.419 . S
C1121 C1122 1.362 1_554 S
C1122 H1114 0.930 . S
C1122 C1121 1.362 1_556 S
C1122 C1125 1.410 . S
C1123 H1115 0.930 . S
C1123 C1124 1.355 . S
C1123 C1125 1.416 . S
C1124 C1123 1.355 . S
C1124 C1126 1.419 1_556 S
C1125 C1120 1.423 1_556 S
C1125 C1122 1.410 . S
C1125 C1123 1.416 . S
C1126 H1116 0.930 . S
C1126 C1124 1.419 1_554 S
C1126 C1127 1.362 . S
C1127 H1117 0.930 . S
C1127 C1120 1.409 . S
C1127 C1126 1.362 . S
H1128 C1134 0.930 . S
H1129 C1137 0.930 . S
H1130 C1138 0.930 . S
H1131 C1139 0.930 . S
H1132 C1142 0.930 . S
H1133 C1143 0.930 . S
C1134 H1128 0.930 . S
C1134 C1135 1.355 . S
C1134 C1136 1.415 . S
C1135 C1134 1.355 . S
C1135 C1137 1.419 . S
C1136 C1134 1.415 . S
C1136 C1141 1.425 . S
C1136 C1143 1.409 . S
C1137 H1129 0.930 . S
C1137 C1135 1.419 . S
C1137 C1138 1.362 . S
C1138 H1130 0.930 . S
C1138 C1137 1.362 . S
C1138 C1141 1.409 . S
C1139 H1131 0.930 . S
C1139 C1140 1.355 . S
C1139 C1141 1.415 . S
C1140 C1139 1.355 . S
C1140 C1142 1.419 . S
C1141 C1136 1.425 . S
C1141 C1138 1.409 . S
C1141 C1139 1.415 . S
C1142 H1132 0.930 . S
C1142 C1140 1.419 . S
C1142 C1143 1.362 . S
C1143 H1133 0.930 . S
C1143 C1136 1.409 . S
C1143 C1142 1.362 . S
H1144 C1150 0.930 . S
H1145 C1153 0.930 . S
H1146 C1154 0.930 . S
H1147 C1155 0.930 . S
H1148 C1158 0.930 . S
H1149 C1159 0.930 . S
C1150 H1144 0.930 . S
C1150 C1151 1.355 . S
C1150 C1152 1.415 . S
C1151 C1150 1.355 . S
C1151 C1153 1.419 . S
C1152 C1150 1.415 . S
C1152 C1157 1.425 . S
C1152 C1159 1.409 . S
C1153 H1145 0.930 . S
C1153 C1151 1.419 . S
C1153 C1154 1.362 . S
C1154 H1146 0.930 . S
C1154 C1153 1.362 . S
C1154 C1157 1.409 . S
C1155 H1147 0.930 . S
C1155 C1156 1.355 . S
C1155 C1157 1.415 . S
C1156 C1155 1.355 . S
C1156 C1158 1.419 . S
C1157 C1152 1.425 . S
C1157 C1154 1.409 . S
C1157 C1155 1.415 . S
C1158 H1148 0.930 . S
C1158 C1156 1.419 . S
C1158 C1159 1.362 . S
C1159 H1149 0.930 . S
C1159 C1152 1.409 . S
C1159 C1158 1.362 . S
H1160 C1166 0.930 . S
H1161 C1169 0.930 . S
H1162 C1170 0.930 . S
H1163 C1171 0.930 . S
H1164 C1174 0.930 . S
H1165 C1175 0.930 . S
C1166 H1160 0.930 . S
C1166 C1167 1.355 . S
C1166 C1168 1.415 . S
C1167 C1166 1.355 . S
C1167 C1169 1.419 . S
C1168 C1166 1.415 . S
C1168 C1173 1.425 . S
C1168 C1175 1.409 . S
C1169 H1161 0.930 . S
C1169 C1167 1.419 . S
C1169 C1170 1.362 . S
C1170 H1162 0.930 . S
C1170 C1169 1.362 . S
C1170 C1173 1.409 . S
C1171 H1163 0.930 . S
C1171 C1172 1.355 . S
C1171 C1173 1.415 . S
C1172 C1171 1.355 . S
C1172 C1174 1.419 . S
C1173 C1168 1.425 . S
C1173 C1170 1.409 . S
C1173 C1171 1.415 . S
C1174 H1164 0.930 . S
C1174 C1172 1.419 . S
C1174 C1175 1.362 . S
C1175 H1165 0.930 . S
C1175 C1168 1.409 . S
C1175 C1174 1.362 . S
H1176 C1182 0.930 . S
H1177 C1185 0.930 . S
H1178 C1186 0.930 . S
H1179 C1187 0.930 . S
H1180 C1190 0.930 . S
H1181 C1191 0.930 . S
C1182 H1176 0.930 . S
C1182 C1183 1.355 . S
C1182 C1184 1.415 . S
C1183 C1182 1.355 . S
C1183 C1185 1.419 . S
C1184 C1182 1.415 . S
C1184 C1189 1.425 . S
C1184 C1191 1.409 . S
C1185 H1177 0.930 . S
C1185 C1183 1.419 . S
C1185 C1186 1.362 . S
C1186 H1178 0.930 . S
C1186 C1185 1.362 . S
C1186 C1189 1.409 . S
C1187 H1179 0.930 . S
C1187 C1188 1.355 . S
C1187 C1189 1.415 . S
C1188 C1187 1.355 . S
C1188 C1190 1.419 . S
C1189 C1184 1.425 . S
C1189 C1186 1.409 . S
C1189 C1187 1.415 . S
C1190 H1180 0.930 . S
C1190 C1188 1.419 . S
C1190 C1191 1.362 . S
C1191 H1181 0.930 . S
C1191 C1184 1.409 . S
C1191 C1190 1.362 . S
H1192 C1198 0.930 . S
H1193 C1201 0.930 . S
H1194 C1202 0.930 1_545 S
H1195 C1203 0.930 1_545 S
H1196 C1206 0.930 . S
H1197 C1207 0.930 . S
C1198 H1192 0.930 . S
C1198 C1199 1.355 . S
C1198 C1200 1.415 . S
C1199 C1198 1.355 . S
C1199 C1201 1.419 . S
C1200 C1198 1.415 . S
C1200 C1205 1.425 . S
C1200 C1207 1.409 . S
C1201 H1193 0.930 . S
C1201 C1199 1.419 . S
C1201 C1202 1.362 . S
C1202 H1194 0.930 1_565 S
C1202 C1201 1.362 . S
C1202 C1205 1.409 . S
C1203 H1195 0.930 1_565 S
C1203 C1204 1.355 . S
C1203 C1205 1.415 . S
C1204 C1203 1.355 . S
C1204 C1206 1.419 . S
C1205 C1200 1.425 . S
C1205 C1202 1.409 . S
C1205 C1203 1.415 . S
C1206 H1196 0.930 . S
C1206 C1204 1.419 . S
C1206 C1207 1.362 . S
C1207 H1197 0.930 . S
C1207 C1200 1.409 . S
C1207 C1206 1.362 . S
H1208 C1214 0.930 . S
H1209 C1217 0.930 . S
H1210 C1218 0.930 . S
H1211 C1219 0.930 . S
H1212 C1222 0.930 . S
H1213 C1223 0.930 . S
C1214 H1208 0.930 . S
C1214 C1215 1.355 . S
C1214 C1216 1.415 . S
C1215 C1214 1.355 . S
C1215 C1217 1.419 . S
C1216 C1214 1.415 . S
C1216 C1221 1.425 . S
C1216 C1223 1.409 . S
C1217 H1209 0.930 . S
C1217 C1215 1.419 . S
C1217 C1218 1.362 . S
C1218 H1210 0.930 . S
C1218 C1217 1.362 . S
C1218 C1221 1.409 . S
C1219 H1211 0.930 . S
C1219 C1220 1.355 . S
C1219 C1221 1.415 . S
C1220 C1219 1.355 . S
C1220 C1222 1.419 . S
C1221 C1216 1.425 . S
C1221 C1218 1.409 . S
C1221 C1219 1.415 . S
C1222 H1212 0.930 . S
C1222 C1220 1.419 . S
C1222 C1223 1.362 . S
C1223 H1213 0.930 . S
C1223 C1216 1.409 . S
C1223 C1222 1.362 . S
H1224 C1230 0.930 . S
H1225 C1233 0.930 . S
H1226 C1234 0.930 . S
H1227 C1235 0.930 . S
H1228 C1238 0.930 . S
H1229 C1239 0.930 . S
C1230 H1224 0.930 . S
C1230 C1231 1.355 . S
C1230 C1232 1.415 . S
C1231 C1230 1.355 . S
C1231 C1233 1.419 . S
C1232 C1230 1.415 . S
C1232 C1237 1.425 . S
C1232 C1239 1.409 . S
C1233 H1225 0.930 . S
C1233 C1231 1.419 . S
C1233 C1234 1.362 . S
C1234 H1226 0.930 . S
C1234 C1233 1.362 . S
C1234 C1237 1.409 . S
C1235 H1227 0.930 . S
C1235 C1236 1.355 . S
C1235 C1237 1.415 . S
C1236 C1235 1.355 . S
C1236 C1238 1.419 . S
C1237 C1232 1.425 . S
C1237 C1234 1.409 . S
C1237 C1235 1.415 . S
C1238 H1228 0.930 . S
C1238 C1236 1.419 . S
C1238 C1239 1.362 . S
C1239 H1229 0.930 . S
C1239 C1232 1.409 . S
C1239 C1238 1.362 . S
H1240 C1246 0.930 . S
H1241 C1249 0.930 . S
H1242 C1250 0.930 . S
H1243 C1251 0.930 . S
H1244 C1254 0.940 . S
H1245 C1255 0.930 . S
C1246 H1240 0.930 . S
C1246 C1247 1.365 . S
C1246 C1248 1.415 1_655 S
C1247 C1246 1.365 . S
C1247 C1249 1.396 1_655 S
C1248 C1246 1.415 1_455 S
C1248 C1253 1.425 . S
C1248 C1255 1.409 1_455 S
C1249 H1241 0.930 . S
C1249 C1247 1.396 1_455 S
C1249 C1250 1.362 . S
C1250 H1242 0.930 . S
C1250 C1249 1.362 . S
C1250 C1253 1.409 . S
C1251 H1243 0.930 . S
C1251 C1252 1.355 . S
C1251 C1253 1.415 . S
C1252 C1251 1.355 . S
C1252 C1254 1.419 . S
C1253 C1248 1.425 . S
C1253 C1250 1.409 . S
C1253 C1251 1.415 . S
C1254 H1244 0.940 . S
C1254 C1252 1.419 . S
C1254 C1255 1.362 1_455 S
C1255 H1245 0.930 . S
C1255 C1248 1.409 1_655 S
C1255 C1254 1.362 1_655 S
H1256 C1262 0.930 . S
H1257 C1265 0.930 . S
H1258 C1266 0.930 . S
H1259 C1267 0.930 . S
H1260 C1270 0.930 . S
H1261 C1271 0.930 . S
C1262 H1256 0.930 . S
C1262 C1263 1.355 . S
C1262 C1264 1.415 . S
C1263 C1262 1.355 . S
C1263 C1265 1.419 . S
C1264 C1262 1.415 . S
C1264 C1269 1.425 . S
C1264 C1271 1.409 . S
C1265 H1257 0.930 . S
C1265 C1263 1.419 . S
C1265 C1266 1.362 . S
C1266 H1258 0.930 . S
C1266 C1265 1.362 . S
C1266 C1269 1.409 . S
C1267 H1259 0.930 . S
C1267 C1268 1.355 . S
C1267 C1269 1.415 . S
C1268 C1267 1.355 . S
C1268 C1270 1.419 . S
C1269 C1264 1.425 . S
C1269 C1266 1.409 . S
C1269 C1267 1.415 . S
C1270 H1260 0.930 . S
C1270 C1268 1.419 . S
C1270 C1271 1.362 . S
C1271 H1261 0.930 . S
C1271 C1264 1.409 . S
C1271 C1270 1.362 . S
H1272 C1278 0.930 . S
H1273 C1281 0.930 . S
H1274 C1282 0.930 . S
H1275 C1283 0.930 . S
H1276 C1286 0.930 . S
H1277 C1287 0.930 . S
C1278 H1272 0.930 . S
C1278 C1279 1.355 . S
C1278 C1280 1.415 . S
C1279 C1278 1.355 . S
C1279 C1281 1.419 . S
C1280 C1278 1.415 . S
C1280 C1285 1.425 . S
C1280 C1287 1.409 . S
C1281 H1273 0.930 . S
C1281 C1279 1.419 . S
C1281 C1282 1.362 . S
C1282 H1274 0.930 . S
C1282 C1281 1.362 . S
C1282 C1285 1.409 . S
C1283 H1275 0.930 . S
C1283 C1284 1.355 . S
C1283 C1285 1.415 . S
C1284 C1283 1.355 . S
C1284 C1286 1.419 . S
C1285 C1280 1.425 . S
C1285 C1282 1.409 . S
C1285 C1283 1.415 . S
C1286 H1276 0.930 . S
C1286 C1284 1.419 . S
C1286 C1287 1.362 . S
C1287 H1277 0.930 . S
C1287 C1280 1.409 . S
C1287 C1286 1.362 . S
H1288 C1294 0.930 . S
H1289 C1297 0.930 . S
H1290 C1298 0.930 . S
H1291 C1299 0.930 . S
H1292 C1302 0.930 . S
H1293 C1303 0.930 . S
C1294 H1288 0.930 . S
C1294 C1295 1.355 . S
C1294 C1296 1.415 . S
C1295 C1294 1.355 . S
C1295 C1297 1.419 . S
C1296 C1294 1.415 . S
C1296 C1301 1.425 . S
C1296 C1303 1.409 . S
C1297 H1289 0.930 . S
C1297 C1295 1.419 . S
C1297 C1298 1.362 . S
C1298 H1290 0.930 . S
C1298 C1297 1.362 . S
C1298 C1301 1.409 . S
C1299 H1291 0.930 . S
C1299 C1300 1.355 . S
C1299 C1301 1.415 . S
C1300 C1299 1.355 . S
C1300 C1302 1.419 . S
C1301 C1296 1.425 . S
C1301 C1298 1.409 . S
C1301 C1299 1.415 . S
C1302 H1292 0.930 . S
C1302 C1300 1.419 . S
C1302 C1303 1.362 . S
C1303 H1293 0.930 . S
C1303 C1296 1.409 . S
C1303 C1302 1.362 . S
H1304 C1310 0.930 . S
H1305 C1313 0.930 . S
H1306 C1314 0.930 . S
H1307 C1315 0.930 . S
H1308 C1318 0.930 . S
H1309 C1319 0.942 . S
C1310 H1304 0.930 . S
C1310 C1311 1.355 . S
C1310 C1312 1.415 . S
C1311 C1310 1.355 . S
C1311 C1313 1.419 . S
C1312 C1310 1.415 . S
C1312 C1317 1.425 . S
C1312 C1319 1.409 . S
C1313 H1305 0.930 . S
C1313 C1311 1.419 . S
C1313 C1314 1.362 . S
C1314 H1306 0.930 . S
C1314 C1313 1.362 . S
C1314 C1317 1.409 . S
C1315 H1307 0.930 . S
C1315 C1316 1.355 . S
C1315 C1317 1.415 . S
C1316 C1315 1.355 . S
C1316 C1318 1.419 . S
C1317 C1312 1.425 . S
C1317 C1314 1.409 . S
C1317 C1315 1.415 . S
C1318 H1308 0.930 . S
C1318 C1316 1.419 . S
C1318 C1319 1.362 . S
C1319 H1309 0.942 . S
C1319 C1312 1.409 . S
C1319 C1318 1.362 . S
H1320 C1326 0.930 . S
H1321 C1329 0.930 . S
H1322 C1330 0.930 . S
H1323 C1331 0.930 . S
H1324 C1334 0.930 . S
H1325 C1335 0.930 . S
C1326 H1320 0.930 . S
C1326 C1327 1.355 . S
C1326 C1328 1.415 . S
C1327 C1326 1.355 . S
C1327 C1329 1.419 . S
C1328 C1326 1.415 . S
C1328 C1333 1.425 . S
C1328 C1335 1.409 . S
C1329 H1321 0.930 . S
C1329 C1327 1.419 . S
C1329 C1330 1.362 . S
C1330 H1322 0.930 . S
C1330 C1329 1.362 . S
C1330 C1333 1.409 . S
C1331 H1323 0.930 . S
C1331 C1332 1.355 . S
C1331 C1333 1.415 . S
C1332 C1331 1.355 . S
C1332 C1334 1.419 . S
C1333 C1328 1.425 . S
C1333 C1330 1.409 . S
C1333 C1331 1.415 . S
C1334 H1324 0.930 . S
C1334 C1332 1.419 . S
C1334 C1335 1.362 . S
C1335 H1325 0.930 . S
C1335 C1328 1.409 . S
C1335 C1334 1.362 . S
H1336 C1342 0.930 . S
H1337 C1345 0.930 . S
H1338 C1346 0.930 . S
H1339 C1347 0.930 . S
H1340 C1350 0.930 . S
H1341 C1351 0.930 . S
C1342 H1336 0.930 . S
C1342 C1343 1.355 . S
C1342 C1344 1.415 . S
C1343 C1342 1.355 . S
C1343 C1345 1.419 . S
C1344 C1342 1.415 . S
C1344 C1349 1.425 . S
C1344 C1351 1.409 . S
C1345 H1337 0.930 . S
C1345 C1343 1.419 . S
C1345 C1346 1.362 . S
C1346 H1338 0.930 . S
C1346 C1345 1.362 . S
C1346 C1349 1.409 . S
C1347 H1339 0.930 . S
C1347 C1348 1.355 . S
C1347 C1349 1.415 . S
C1348 C1347 1.355 . S
C1348 C1350 1.419 . S
C1349 C1344 1.425 . S
C1349 C1346 1.409 . S
C1349 C1347 1.415 . S
C1350 H1340 0.930 . S
C1350 C1348 1.419 . S
C1350 C1351 1.362 . S
C1351 H1341 0.930 . S
C1351 C1344 1.409 . S
C1351 C1350 1.362 . S
H1352 C1358 0.930 . S
H1353 C1361 0.930 . S
H1354 C1362 0.930 . S
H1355 C1363 0.930 . S
H1356 C1366 0.930 . S
H1357 C1367 0.930 . S
C1358 H1352 0.930 . S
C1358 C1359 1.355 . S
C1358 C1360 1.415 . S
C1359 C1358 1.355 . S
C1359 C1361 1.419 . S
C1360 C1358 1.415 . S
C1360 C1365 1.425 . S
C1360 C1367 1.409 . S
C1361 H1353 0.930 . S
C1361 C1359 1.419 . S
C1361 C1362 1.362 . S
C1362 H1354 0.930 . S
C1362 C1361 1.362 . S
C1362 C1365 1.409 . S
C1363 H1355 0.930 . S
C1363 C1364 1.355 . S
C1363 C1365 1.415 . S
C1364 C1363 1.355 . S
C1364 C1366 1.419 . S
C1365 C1360 1.425 . S
C1365 C1362 1.409 . S
C1365 C1363 1.415 . S
C1366 H1356 0.930 . S
C1366 C1364 1.419 . S
C1366 C1367 1.362 . S
C1367 H1357 0.930 . S
C1367 C1360 1.409 . S
C1367 C1366 1.362 . S
H1368 C1374 0.930 . S
H1369 C1377 0.930 . S
H1370 C1378 0.930 1_455 S
H1371 C1379 0.930 1_565 S
H1372 C1382 0.930 . S
H1373 C1383 0.930 . S
C1374 H1368 0.930 . S
C1374 C1375 1.331 1_545 S
C1374 C1376 1.415 . S
C1375 C1374 1.331 1_565 S
C1375 C1377 1.441 . S
C1376 C1374 1.415 . S
C1376 C1381 1.425 . S
C1376 C1383 1.409 . S
C1377 H1369 0.930 . S
C1377 C1375 1.441 . S
C1377 C1378 1.362 . S
C1378 H1370 0.930 1_655 S
C1378 C1377 1.362 . S
C1378 C1381 1.409 1_565 S
C1379 H1371 0.930 1_545 S
C1379 C1380 1.355 1_455 S
C1379 C1381 1.415 1_455 S
C1380 C1379 1.355 1_655 S
C1380 C1382 1.419 . S
C1381 C1376 1.425 . S
C1381 C1378 1.409 1_545 S
C1381 C1379 1.415 1_655 S
C1382 H1372 0.930 . S
C1382 C1380 1.419 . S
C1382 C1383 1.362 . S
C1383 H1373 0.930 . S
C1383 C1376 1.409 . S
C1383 C1382 1.362 . S
H1384 C1390 0.930 . S
H1385 C1393 0.930 . S
H1386 C1394 0.930 . S
H1387 C1395 0.930 . S
H1388 C1398 0.930 . S
H1389 C1399 0.930 . S
C1390 H1384 0.930 . S
C1390 C1391 1.355 . S
C1390 C1392 1.415 . S
C1391 C1390 1.355 . S
C1391 C1393 1.419 . S
C1392 C1390 1.415 . S
C1392 C1397 1.425 . S
C1392 C1399 1.409 . S
C1393 H1385 0.930 . S
C1393 C1391 1.419 . S
C1393 C1394 1.362 . S
C1394 H1386 0.930 . S
C1394 C1393 1.362 . S
C1394 C1397 1.409 . S
C1395 H1387 0.930 . S
C1395 C1396 1.355 . S
C1395 C1397 1.415 . S
C1396 C1395 1.355 . S
C1396 C1398 1.419 . S
C1397 C1392 1.425 . S
C1397 C1394 1.409 . S
C1397 C1395 1.415 . S
C1398 H1388 0.930 . S
C1398 C1396 1.419 . S
C1398 C1399 1.362 . S
C1399 H1389 0.930 . S
C1399 C1392 1.409 . S
C1399 C1398 1.362 . S
H1400 C1406 0.930 . S
H1401 C1409 0.930 1_565 S
H1402 C1410 0.930 . S
H1403 C1411 0.930 . S
H1404 C1414 0.930 . S
H1405 C1415 0.930 . S
C1406 H1400 0.930 . S
C1406 C1407 1.355 . S
C1406 C1408 1.415 . S
C1407 C1406 1.355 . S
C1407 C1409 1.419 . S
C1408 C1406 1.415 . S
C1408 C1413 1.425 . S
C1408 C1415 1.409 . S
C1409 H1401 0.930 1_545 S
C1409 C1407 1.419 . S
C1409 C1410 1.362 1_545 S
C1410 H1402 0.930 . S
C1410 C1409 1.362 1_565 S
C1410 C1413 1.409 1_565 S
C1411 H1403 0.930 . S
C1411 C1412 1.355 1_565 S
C1411 C1413 1.415 1_565 S
C1412 C1411 1.355 1_545 S
C1412 C1414 1.419 . S
C1413 C1408 1.425 . S
C1413 C1410 1.409 1_545 S
C1413 C1411 1.415 1_545 S
C1414 H1404 0.930 . S
C1414 C1412 1.419 . S
C1414 C1415 1.362 . S
C1415 H1405 0.930 . S
C1415 C1408 1.409 . S
C1415 C1414 1.362 . S
H1416 C1422 0.930 . S
H1417 C1425 0.930 . S
H1418 C1426 0.930 . S
H1419 C1427 0.930 . S
H1420 C1430 0.930 . S
H1421 C1431 0.930 . S
C1422 H1416 0.930 . S
C1422 C1423 1.355 . S
C1422 C1424 1.415 . S
C1423 C1422 1.355 . S
C1423 C1425 1.419 . S
C1424 C1422 1.415 . S
C1424 C1429 1.425 . S
C1424 C1431 1.409 . S
C1425 H1417 0.930 . S
C1425 C1423 1.419 . S
C1425 C1426 1.362 . S
C1426 H1418 0.930 . S
C1426 C1425 1.362 . S
C1426 C1429 1.409 . S
C1427 H1419 0.930 . S
C1427 C1428 1.355 . S
C1427 C1429 1.415 . S
C1428 C1427 1.355 . S
C1428 C1430 1.419 . S
C1429 C1424 1.425 . S
C1429 C1426 1.409 . S
C1429 C1427 1.415 . S
C1430 H1420 0.930 . S
C1430 C1428 1.419 . S
C1430 C1431 1.362 . S
C1431 H1421 0.930 . S
C1431 C1424 1.409 . S
C1431 C1430 1.362 . S
H1432 C1438 0.930 . S
H1433 C1441 0.930 . S
H1434 C1442 0.930 1_455 S
H1435 C1443 0.930 1_455 S
H1436 C1446 0.930 . S
H1437 C1447 0.930 . S
C1438 H1432 0.930 . S
C1438 C1439 1.355 1_565 S
C1438 C1440 1.415 . S
C1439 C1438 1.355 1_545 S
C1439 C1441 1.419 . S
C1440 C1438 1.415 . S
C1440 C1445 1.425 . S
C1440 C1447 1.409 . S
C1441 H1433 0.930 . S
C1441 C1439 1.419 . S
C1441 C1442 1.362 . S
C1442 H1434 0.930 1_655 S
C1442 C1441 1.362 . S
C1442 C1445 1.409 1_545 S
C1443 H1435 0.930 1_655 S
C1443 C1444 1.355 . S
C1443 C1445 1.415 . S
C1444 C1443 1.355 . S
C1444 C1446 1.419 . S
C1445 C1440 1.425 . S
C1445 C1442 1.409 1_565 S
C1445 C1443 1.415 . S
C1446 H1436 0.930 . S
C1446 C1444 1.419 . S
C1446 C1447 1.362 . S
C1447 H1437 0.930 . S
C1447 C1440 1.409 . S
C1447 C1446 1.362 . S
H1448 C1454 0.930 . S
H1449 C1457 0.930 . S
H1450 C1458 0.930 . S
H1451 C1459 0.930 . S
H1452 C1462 0.930 . S
H1453 C1463 0.930 . S
C1454 H1448 0.930 . S
C1454 C1455 1.355 . S
C1454 C1456 1.415 . S
C1455 C1454 1.355 . S
C1455 C1457 1.419 . S
C1456 C1454 1.415 . S
C1456 C1461 1.425 . S
C1456 C1463 1.409 . S
C1457 H1449 0.930 . S
C1457 C1455 1.419 . S
C1457 C1458 1.362 . S
C1458 H1450 0.930 . S
C1458 C1457 1.362 . S
C1458 C1461 1.409 . S
C1459 H1451 0.930 . S
C1459 C1460 1.355 . S
C1459 C1461 1.415 . S
C1460 C1459 1.355 . S
C1460 C1462 1.419 . S
C1461 C1456 1.425 . S
C1461 C1458 1.409 . S
C1461 C1459 1.415 . S
C1462 H1452 0.930 . S
C1462 C1460 1.419 . S
C1462 C1463 1.362 . S
C1463 H1453 0.930 . S
C1463 C1456 1.409 . S
C1463 C1462 1.362 . S
H1464 C1470 0.930 . S
H1465 C1473 0.930 . S
H1466 C1474 0.930 . S
H1467 C1475 0.930 . S
H1468 C1478 0.930 . S
H1469 C1479 0.930 . S
C1470 H1464 0.930 . S
C1470 C1471 1.355 . S
C1470 C1472 1.415 . S
C1471 C1470 1.355 . S
C1471 C1473 1.419 . S
C1472 C1470 1.415 . S
C1472 C1477 1.425 . S
C1472 C1479 1.409 . S
C1473 H1465 0.930 . S
C1473 C1471 1.419 . S
C1473 C1474 1.362 . S
C1474 H1466 0.930 . S
C1474 C1473 1.362 . S
C1474 C1477 1.409 . S
C1475 H1467 0.930 . S
C1475 C1476 1.355 . S
C1475 C1477 1.415 . S
C1476 C1475 1.355 . S
C1476 C1478 1.419 . S
C1477 C1472 1.425 . S
C1477 C1474 1.409 . S
C1477 C1475 1.415 . S
C1478 H1468 0.930 . S
C1478 C1476 1.419 . S
C1478 C1479 1.362 . S
C1479 H1469 0.930 . S
C1479 C1472 1.409 . S
C1479 C1478 1.362 . S
H1480 C1486 0.930 . S
H1481 C1489 0.930 . S
H1482 C1490 0.930 . S
H1483 C1491 0.930 . S
H1484 C1494 0.930 . S
H1485 C1495 0.930 . S
C1486 H1480 0.930 . S
C1486 C1487 1.355 . S
C1486 C1488 1.415 . S
C1487 C1486 1.355 . S
C1487 C1489 1.419 . S
C1488 C1486 1.415 . S
C1488 C1493 1.425 . S
C1488 C1495 1.409 . S
C1489 H1481 0.930 . S
C1489 C1487 1.419 . S
C1489 C1490 1.362 . S
C1490 H1482 0.930 . S
C1490 C1489 1.362 . S
C1490 C1493 1.409 . S
C1491 H1483 0.930 . S
C1491 C1492 1.355 . S
C1491 C1493 1.415 . S
C1492 C1491 1.355 . S
C1492 C1494 1.419 . S
C1493 C1488 1.425 . S
C1493 C1490 1.409 . S
C1493 C1491 1.415 . S
C1494 H1484 0.930 . S
C1494 C1492 1.419 . S
C1494 C1495 1.362 . S
C1495 H1485 0.930 . S
C1495 C1488 1.409 . S
C1495 C1494 1.362 . S
H1496 C1502 0.930 . S
H1497 C1505 0.930 . S
H1498 C1506 0.930 1_545 S
H1499 C1507 0.930 1_545 S
H1500 C1510 0.930 . S
H1501 C1511 0.930 . S
C1502 H1496 0.930 . S
C1502 C1503 1.355 . S
C1502 C1504 1.415 . S
C1503 C1502 1.355 . S
C1503 C1505 1.419 . S
C1504 C1502 1.415 . S
C1504 C1509 1.425 . S
C1504 C1511 1.409 . S
C1505 H1497 0.930 . S
C1505 C1503 1.419 . S
C1505 C1506 1.362 . S
C1506 H1498 0.930 1_565 S
C1506 C1505 1.362 . S
C1506 C1509 1.409 . S
C1507 H1499 0.930 1_565 S
C1507 C1508 1.355 . S
C1507 C1509 1.415 . S
C1508 C1507 1.355 . S
C1508 C1510 1.419 . S
C1509 C1504 1.425 . S
C1509 C1506 1.409 . S
C1509 C1507 1.415 . S
C1510 H1500 0.930 . S
C1510 C1508 1.419 . S
C1510 C1511 1.362 . S
C1511 H1501 0.930 . S
C1511 C1504 1.409 . S
C1511 C1510 1.362 . S
H1512 C1518 0.930 1_556 S
H1513 C1521 0.930 . S
H1514 C1522 0.930 . S
H1515 C1523 0.930 . S
H1516 C1526 0.930 . S
H1517 C1527 0.931 1_556 S
C1518 H1512 0.930 1_554 S
C1518 C1519 1.355 . S
C1518 C1520 1.415 . S
C1519 C1518 1.355 . S
C1519 C1521 1.419 . S
C1520 C1518 1.415 . S
C1520 C1525 1.425 . S
C1520 C1527 1.409 . S
C1521 H1513 0.930 . S
C1521 C1519 1.419 . S
C1521 C1522 1.362 . S
C1522 H1514 0.930 . S
C1522 C1521 1.362 . S
C1522 C1525 1.409 . S
C1523 H1515 0.930 . S
C1523 C1524 1.355 . S
C1523 C1525 1.415 . S
C1524 C1523 1.355 . S
C1524 C1526 1.419 . S
C1525 C1520 1.425 . S
C1525 C1522 1.409 . S
C1525 C1523 1.415 . S
C1526 H1516 0.930 . S
C1526 C1524 1.419 . S
C1526 C1527 1.362 . S
C1527 H1517 0.931 1_554 S
C1527 C1520 1.409 . S
C1527 C1526 1.362 . S
H1528 C1534 0.930 . S
H1529 C1537 0.930 . S
H1530 C1538 0.930 . S
H1531 C1539 0.930 . S
H1532 C1542 0.930 . S
H1533 C1543 0.930 . S
C1534 H1528 0.930 . S
C1534 C1535 1.355 . S
C1534 C1536 1.415 . S
C1535 C1534 1.355 . S
C1535 C1537 1.419 . S
C1536 C1534 1.415 . S
C1536 C1541 1.425 . S
C1536 C1543 1.409 . S
C1537 H1529 0.930 . S
C1537 C1535 1.419 . S
C1537 C1538 1.362 . S
C1538 H1530 0.930 . S
C1538 C1537 1.362 . S
C1538 C1541 1.409 . S
C1539 H1531 0.930 . S
C1539 C1540 1.355 . S
C1539 C1541 1.415 . S
C1540 C1539 1.355 . S
C1540 C1542 1.419 . S
C1541 C1536 1.425 . S
C1541 C1538 1.409 . S
C1541 C1539 1.415 . S
C1542 H1532 0.930 . S
C1542 C1540 1.419 . S
C1542 C1543 1.362 . S
C1543 H1533 0.930 . S
C1543 C1536 1.409 . S
C1543 C1542 1.362 . S
H1544 C1550 0.930 . S
H1545 C1553 0.930 . S
H1546 C1554 0.930 . S
H1547 C1555 0.930 . S
H1548 C1558 0.930 . S
H1549 C1559 0.930 . S
C1550 H1544 0.930 . S
C1550 C1551 1.355 . S
C1550 C1552 1.415 . S
C1551 C1550 1.355 . S
C1551 C1553 1.419 . S
C1552 C1550 1.415 . S
C1552 C1557 1.425 . S
C1552 C1559 1.409 . S
C1553 H1545 0.930 . S
C1553 C1551 1.419 . S
C1553 C1554 1.362 . S
C1554 H1546 0.930 . S
C1554 C1553 1.362 . S
C1554 C1557 1.409 . S
C1555 H1547 0.930 . S
C1555 C1556 1.355 . S
C1555 C1557 1.415 . S
C1556 C1555 1.355 . S
C1556 C1558 1.419 . S
C1557 C1552 1.425 . S
C1557 C1554 1.409 . S
C1557 C1555 1.415 . S
C1558 H1548 0.930 . S
C1558 C1556 1.419 . S
C1558 C1559 1.362 . S
C1559 H1549 0.930 . S
C1559 C1552 1.409 . S
C1559 C1558 1.362 . S
H1560 C1566 0.930 . S
H1561 C1569 0.930 . S
H1562 C1570 0.930 . S
H1563 C1571 0.930 . S
H1564 C1574 0.930 . S
H1565 C1575 0.930 . S
C1566 H1560 0.930 . S
C1566 C1567 1.355 . S
C1566 C1568 1.415 . S
C1567 C1566 1.355 . S
C1567 C1569 1.419 . S
C1568 C1566 1.415 . S
C1568 C1573 1.425 . S
C1568 C1575 1.409 . S
C1569 H1561 0.930 . S
C1569 C1567 1.419 . S
C1569 C1570 1.362 . S
C1570 H1562 0.930 . S
C1570 C1569 1.362 . S
C1570 C1573 1.409 . S
C1571 H1563 0.930 . S
C1571 C1572 1.355 . S
C1571 C1573 1.415 . S
C1572 C1571 1.355 . S
C1572 C1574 1.419 . S
C1573 C1568 1.425 . S
C1573 C1570 1.409 . S
C1573 C1571 1.415 . S
C1574 H1564 0.930 . S
C1574 C1572 1.419 . S
C1574 C1575 1.362 . S
C1575 H1565 0.930 . S
C1575 C1568 1.409 . S
C1575 C1574 1.362 . S
H1576 C1582 0.930 . S
H1577 C1585 0.930 . S
H1578 C1586 0.930 . S
H1579 C1587 0.930 . S
H1580 C1590 0.930 . S
H1581 C1591 0.930 . S
C1582 H1576 0.930 . S
C1582 C1583 1.355 . S
C1582 C1584 1.415 . S
C1583 C1582 1.355 . S
C1583 C1585 1.419 . S
C1584 C1582 1.415 . S
C1584 C1589 1.425 . S
C1584 C1591 1.409 . S
C1585 H1577 0.930 . S
C1585 C1583 1.419 . S
C1585 C1586 1.362 . S
C1586 H1578 0.930 . S
C1586 C1585 1.362 . S
C1586 C1589 1.409 . S
C1587 H1579 0.930 . S
C1587 C1588 1.355 . S
C1587 C1589 1.415 . S
C1588 C1587 1.355 . S
C1588 C1590 1.419 . S
C1589 C1584 1.425 . S
C1589 C1586 1.409 . S
C1589 C1587 1.415 . S
C1590 H1580 0.930 . S
C1590 C1588 1.419 . S
C1590 C1591 1.362 . S
C1591 H1581 0.930 . S
C1591 C1584 1.409 . S
C1591 C1590 1.362 . S
H1592 C1598 0.930 . S
H1593 C1601 0.930 . S
H1594 C1602 0.930 . S
H1595 C1603 0.930 . S
H1596 C1606 0.930 . S
H1597 C1607 0.930 . S
C1598 H1592 0.930 . S
C1598 C1599 1.355 . S
C1598 C1600 1.415 . S
C1599 C1598 1.355 . S
C1599 C1601 1.419 . S
C1600 C1598 1.415 . S
C1600 C1605 1.425 . S
C1600 C1607 1.409 . S
C1601 H1593 0.930 . S
C1601 C1599 1.419 . S
C1601 C1602 1.362 . S
C1602 H1594 0.930 . S
C1602 C1601 1.362 . S
C1602 C1605 1.409 . S
C1603 H1595 0.930 . S
C1603 C1604 1.355 . S
C1603 C1605 1.415 . S
C1604 C1603 1.355 . S
C1604 C1606 1.419 . S
C1605 C1600 1.425 . S
C1605 C1602 1.409 . S
C1605 C1603 1.415 . S
C1606 H1596 0.930 . S
C1606 C1604 1.419 . S
C1606 C1607 1.362 . S
C1607 H1597 0.930 . S
C1607 C1600 1.409 . S
C1607 C1606 1.362 . S
H1608 C1614 0.930 . S
H1609 C1617 0.930 . S
H1610 C1618 0.930 . S
H1611 C1619 0.930 . S
H1612 C1622 0.930 . S
H1613 C1623 0.930 . S
C1614 H1608 0.930 . S
C1614 C1615 1.355 . S
C1614 C1616 1.415 . S
C1615 C1614 1.355 . S
C1615 C1617 1.419 . S
C1616 C1614 1.415 . S
C1616 C1621 1.425 . S
C1616 C1623 1.409 . S
C1617 H1609 0.930 . S
C1617 C1615 1.419 . S
C1617 C1618 1.362 . S
C1618 H1610 0.930 . S
C1618 C1617 1.362 . S
C1618 C1621 1.409 . S
C1619 H1611 0.930 . S
C1619 C1620 1.355 . S
C1619 C1621 1.415 . S
C1620 C1619 1.355 . S
C1620 C1622 1.419 . S
C1621 C1616 1.425 . S
C1621 C1618 1.409 . S
C1621 C1619 1.415 . S
C1622 H1612 0.930 . S
C1622 C1620 1.419 . S
C1622 C1623 1.362 . S
C1623 H1613 0.930 . S
C1623 C1616 1.409 . S
C1623 C1622 1.362 . S
H1624 C1630 0.930 . S
H1625 C1633 0.930 . S
H1626 C1634 0.930 . S
H1627 C1635 0.930 . S
H1628 C1638 0.930 . S
H1629 C1639 0.930 . S
C1630 H1624 0.930 . S
C1630 C1631 1.355 . S
C1630 C1632 1.415 . S
C1631 C1630 1.355 . S
C1631 C1633 1.419 . S
C1632 C1630 1.415 . S
C1632 C1637 1.425 . S
C1632 C1639 1.409 . S
C1633 H1625 0.930 . S
C1633 C1631 1.419 . S
C1633 C1634 1.362 . S
C1634 H1626 0.930 . S
C1634 C1633 1.362 . S
C1634 C1637 1.409 . S
C1635 H1627 0.930 . S
C1635 C1636 1.355 . S
C1635 C1637 1.415 . S
C1636 C1635 1.355 . S
C1636 C1638 1.419 . S
C1637 C1632 1.425 . S
C1637 C1634 1.409 . S
C1637 C1635 1.415 . S
C1638 H1628 0.930 . S
C1638 C1636 1.419 . S
C1638 C1639 1.362 . S
C1639 H1629 0.930 . S
C1639 C1632 1.409 . S
C1639 C1638 1.362 . S
H1640 C1646 0.930 . S
H1641 C1649 0.930 . S
H1642 C1650 0.930 . S
H1643 C1651 0.930 . S
H1644 C1654 0.930 . S
H1645 C1655 0.930 . S
C1646 H1640 0.930 . S
C1646 C1647 1.355 . S
C1646 C1648 1.415 . S
C1647 C1646 1.355 . S
C1647 C1649 1.419 . S
C1648 C1646 1.415 . S
C1648 C1653 1.425 . S
C1648 C1655 1.409 . S
C1649 H1641 0.930 . S
C1649 C1647 1.419 . S
C1649 C1650 1.362 . S
C1650 H1642 0.930 . S
C1650 C1649 1.362 . S
C1650 C1653 1.409 . S
C1651 H1643 0.930 . S
C1651 C1652 1.355 . S
C1651 C1653 1.415 . S
C1652 C1651 1.355 . S
C1652 C1654 1.419 . S
C1653 C1648 1.425 . S
C1653 C1650 1.409 . S
C1653 C1651 1.415 . S
C1654 H1644 0.930 . S
C1654 C1652 1.419 . S
C1654 C1655 1.362 . S
C1655 H1645 0.930 . S
C1655 C1648 1.409 . S
C1655 C1654 1.362 . S
H1656 C1662 0.930 . S
H1657 C1665 0.930 . S
H1658 C1666 0.930 . S
H1659 C1667 0.930 . S
H1660 C1670 0.930 . S
H1661 C1671 0.930 . S
C1662 H1656 0.930 . S
C1662 C1663 1.355 . S
C1662 C1664 1.415 . S
C1663 C1662 1.355 . S
C1663 C1665 1.419 . S
C1664 C1662 1.415 . S
C1664 C1669 1.425 . S
C1664 C1671 1.409 . S
C1665 H1657 0.930 . S
C1665 C1663 1.419 . S
C1665 C1666 1.362 . S
C1666 H1658 0.930 . S
C1666 C1665 1.362 . S
C1666 C1669 1.409 . S
C1667 H1659 0.930 . S
C1667 C1668 1.355 . S
C1667 C1669 1.415 . S
C1668 C1667 1.355 . S
C1668 C1670 1.419 . S
C1669 C1664 1.425 . S
C1669 C1666 1.409 . S
C1669 C1667 1.415 . S
C1670 H1660 0.930 . S
C1670 C1668 1.419 . S
C1670 C1671 1.362 . S
C1671 H1661 0.930 . S
C1671 C1664 1.409 . S
C1671 C1670 1.362 . S
H1672 C1678 0.930 . S
H1673 C1681 0.930 . S
H1674 C1682 0.930 . S
H1675 C1683 0.930 . S
H1676 C1686 0.930 . S
H1677 C1687 0.930 . S
C1678 H1672 0.930 . S
C1678 C1679 1.355 . S
C1678 C1680 1.415 . S
C1679 C1678 1.355 . S
C1679 C1681 1.419 . S
C1680 C1678 1.415 . S
C1680 C1685 1.425 . S
C1680 C1687 1.409 . S
C1681 H1673 0.930 . S
C1681 C1679 1.419 . S
C1681 C1682 1.362 . S
C1682 H1674 0.930 . S
C1682 C1681 1.362 . S
C1682 C1685 1.409 . S
C1683 H1675 0.930 . S
C1683 C1684 1.355 . S
C1683 C1685 1.415 . S
C1684 C1683 1.355 . S
C1684 C1686 1.419 . S
C1685 C1680 1.425 . S
C1685 C1682 1.409 . S
C1685 C1683 1.415 . S
C1686 H1676 0.930 . S
C1686 C1684 1.419 . S
C1686 C1687 1.362 . S
C1687 H1677 0.930 . S
C1687 C1680 1.409 . S
C1687 C1686 1.362 . S
H1688 C1694 0.930 . S
H1689 C1697 0.930 . S
H1690 C1698 0.930 . S
H1691 C1699 0.930 . S
H1692 C1702 0.930 . S
H1693 C1703 0.930 . S
C1694 H1688 0.930 . S
C1694 C1695 1.355 . S
C1694 C1696 1.415 . S
C1695 C1694 1.355 . S
C1695 C1697 1.419 . S
C1696 C1694 1.415 . S
C1696 C1701 1.425 . S
C1696 C1703 1.409 . S
C1697 H1689 0.930 . S
C1697 C1695 1.419 . S
C1697 C1698 1.362 . S
C1698 H1690 0.930 . S
C1698 C1697 1.362 . S
C1698 C1701 1.409 . S
C1699 H1691 0.930 . S
C1699 C1700 1.355 . S
C1699 C1701 1.415 . S
C1700 C1699 1.355 . S
C1700 C1702 1.419 . S
C1701 C1696 1.425 . S
C1701 C1698 1.409 . S
C1701 C1699 1.415 . S
C1702 H1692 0.930 . S
C1702 C1700 1.419 . S
C1702 C1703 1.362 . S
C1703 H1693 0.930 . S
C1703 C1696 1.409 . S
C1703 C1702 1.362 . S
H1704 C1710 0.930 1_455 S
H1705 C1713 0.930 . S
H1706 C1714 0.930 . S
H1707 C1715 0.930 . S
H1708 C1718 0.930 . S
H1709 C1719 0.930 . S
C1710 H1704 0.930 1_655 S
C1710 C1711 1.355 1_655 S
C1710 C1712 1.415 . S
C1711 C1710 1.355 1_455 S
C1711 C1713 1.419 1_455 S
C1712 C1710 1.415 . S
C1712 C1717 1.425 . S
C1712 C1719 1.409 . S
C1713 H1705 0.930 . S
C1713 C1711 1.419 1_655 S
C1713 C1714 1.362 . S
C1714 H1706 0.930 . S
C1714 C1713 1.362 . S
C1714 C1717 1.409 . S
C1715 H1707 0.930 . S
C1715 C1716 1.355 . S
C1715 C1717 1.415 . S
C1716 C1715 1.355 . S
C1716 C1718 1.419 . S
C1717 C1712 1.425 . S
C1717 C1714 1.409 . S
C1717 C1715 1.415 . S
C1718 H1708 0.930 . S
C1718 C1716 1.419 . S
C1718 C1719 1.362 . S
C1719 H1709 0.930 . S
C1719 C1712 1.409 . S
C1719 C1718 1.362 . S
H1720 C1726 0.930 . S
H1721 C1729 0.930 . S
H1722 C1730 0.930 . S
H1723 C1731 0.930 . S
H1724 C1734 0.930 . S
H1725 C1735 0.930 1_655 S
C1726 H1720 0.930 . S
C1726 C1727 1.355 . S
C1726 C1728 1.415 . S
C1727 C1726 1.355 . S
C1727 C1729 1.419 . S
C1728 C1726 1.415 . S
C1728 C1733 1.425 . S
C1728 C1735 1.409 . S
C1729 H1721 0.930 . S
C1729 C1727 1.419 . S
C1729 C1730 1.362 . S
C1730 H1722 0.930 . S
C1730 C1729 1.362 . S
C1730 C1733 1.409 . S
C1731 H1723 0.930 . S
C1731 C1732 1.355 . S
C1731 C1733 1.415 . S
C1732 C1731 1.355 . S
C1732 C1734 1.419 . S
C1733 C1728 1.425 . S
C1733 C1730 1.409 . S
C1733 C1731 1.415 . S
C1734 H1724 0.930 . S
C1734 C1732 1.419 . S
C1734 C1735 1.362 . S
C1735 H1725 0.930 1_455 S
C1735 C1728 1.409 . S
C1735 C1734 1.362 . S
H1736 C1742 0.930 . S
H1737 C1745 0.930 . S
H1738 C1746 0.930 . S
H1739 C1747 0.930 . S
H1740 C1750 0.930 . S
H1741 C1751 0.930 . S
C1742 H1736 0.930 . S
C1742 C1743 1.355 . S
C1742 C1744 1.415 . S
C1743 C1742 1.355 . S
C1743 C1745 1.419 . S
C1744 C1742 1.415 . S
C1744 C1749 1.425 . S
C1744 C1751 1.409 . S
C1745 H1737 0.930 . S
C1745 C1743 1.419 . S
C1745 C1746 1.362 . S
C1746 H1738 0.930 . S
C1746 C1745 1.362 . S
C1746 C1749 1.409 . S
C1747 H1739 0.930 . S
C1747 C1748 1.355 . S
C1747 C1749 1.415 . S
C1748 C1747 1.355 . S
C1748 C1750 1.419 . S
C1749 C1744 1.425 . S
C1749 C1746 1.409 . S
C1749 C1747 1.415 . S
C1750 H1740 0.930 . S
C1750 C1748 1.419 . S
C1750 C1751 1.362 . S
C1751 H1741 0.930 . S
C1751 C1744 1.409 . S
C1751 C1750 1.362 . S
H1752 C1758 0.930 . S
H1753 C1761 0.930 . S
H1754 C1762 0.930 . S
H1755 C1763 0.930 . S
H1756 C1766 0.930 . S
H1757 C1767 0.930 . S
C1758 H1752 0.930 . S
C1758 C1759 1.355 . S
C1758 C1760 1.415 . S
C1759 C1758 1.355 . S
C1759 C1761 1.419 . S
C1760 C1758 1.415 . S
C1760 C1765 1.425 . S
C1760 C1767 1.409 . S
C1761 H1753 0.930 . S
C1761 C1759 1.419 . S
C1761 C1762 1.362 . S
C1762 H1754 0.930 . S
C1762 C1761 1.362 . S
C1762 C1765 1.409 . S
C1763 H1755 0.930 . S
C1763 C1764 1.355 . S
C1763 C1765 1.415 . S
C1764 C1763 1.355 . S
C1764 C1766 1.419 . S
C1765 C1760 1.425 . S
C1765 C1762 1.409 . S
C1765 C1763 1.415 . S
C1766 H1756 0.930 . S
C1766 C1764 1.419 . S
C1766 C1767 1.362 . S
C1767 H1757 0.930 . S
C1767 C1760 1.409 . S
C1767 C1766 1.362 . S
H1768 C1774 0.930 . S
H1769 C1777 0.930 . S
H1770 C1778 0.930 . S
H1771 C1779 0.930 . S
H1772 C1782 0.930 . S
H1773 C1783 0.930 . S
C1774 H1768 0.930 . S
C1774 C1775 1.355 . S
C1774 C1776 1.415 . S
C1775 C1774 1.355 . S
C1775 C1777 1.419 . S
C1776 C1774 1.415 . S
C1776 C1781 1.425 . S
C1776 C1783 1.409 . S
C1777 H1769 0.930 . S
C1777 C1775 1.419 . S
C1777 C1778 1.362 . S
C1778 H1770 0.930 . S
C1778 C1777 1.362 . S
C1778 C1781 1.409 . S
C1779 H1771 0.930 . S
C1779 C1780 1.355 . S
C1779 C1781 1.415 . S
C1780 C1779 1.355 . S
C1780 C1782 1.419 . S
C1781 C1776 1.425 . S
C1781 C1778 1.409 . S
C1781 C1779 1.415 . S
C1782 H1772 0.930 . S
C1782 C1780 1.419 . S
C1782 C1783 1.362 . S
C1783 H1773 0.930 . S
C1783 C1776 1.409 . S
C1783 C1782 1.362 . S
H1784 C1790 0.930 . S
H1785 C1793 0.930 . S
H1786 C1794 0.930 . S
H1787 C1795 0.930 . S
H1788 C1798 0.930 . S
H1789 C1799 0.930 . S
C1790 H1784 0.930 . S
C1790 C1791 1.355 . S
C1790 C1792 1.415 . S
C1791 C1790 1.355 . S
C1791 C1793 1.419 . S
C1792 C1790 1.415 . S
C1792 C1797 1.425 . S
C1792 C1799 1.409 1_655 S
C1793 H1785 0.930 . S
C1793 C1791 1.419 . S
C1793 C1794 1.362 . S
C1794 H1786 0.930 . S
C1794 C1793 1.362 . S
C1794 C1797 1.409 . S
C1795 H1787 0.930 . S
C1795 C1796 1.355 1_655 S
C1795 C1797 1.415 . S
C1796 C1795 1.355 1_455 S
C1796 C1798 1.419 . S
C1797 C1792 1.425 . S
C1797 C1794 1.409 . S
C1797 C1795 1.415 . S
C1798 H1788 0.930 . S
C1798 C1796 1.419 . S
C1798 C1799 1.362 . S
C1799 H1789 0.930 . S
C1799 C1792 1.409 1_455 S
C1799 C1798 1.362 . S
H1800 C1806 0.930 . S
H1801 C1809 0.930 . S
H1802 C1810 0.930 . S
H1803 C1811 0.930 . S
H1804 C1814 0.930 . S
H1805 C1815 0.930 . S
C1806 H1800 0.930 . S
C1806 C1807 1.355 . S
C1806 C1808 1.415 . S
C1807 C1806 1.355 . S
C1807 C1809 1.419 . S
C1808 C1806 1.415 . S
C1808 C1813 1.425 . S
C1808 C1815 1.409 . S
C1809 H1801 0.930 . S
C1809 C1807 1.419 . S
C1809 C1810 1.362 . S
C1810 H1802 0.930 . S
C1810 C1809 1.362 . S
C1810 C1813 1.409 . S
C1811 H1803 0.930 . S
C1811 C1812 1.355 . S
C1811 C1813 1.415 . S
C1812 C1811 1.355 . S
C1812 C1814 1.419 . S
C1813 C1808 1.425 . S
C1813 C1810 1.409 . S
C1813 C1811 1.415 . S
C1814 H1804 0.930 . S
C1814 C1812 1.419 . S
C1814 C1815 1.362 . S
C1815 H1805 0.930 . S
C1815 C1808 1.409 . S
C1815 C1814 1.362 . S
H1816 C1822 0.930 . S
H1817 C1825 0.930 . S
H1818 C1826 0.930 . S
H1819 C1827 0.930 . S
H1820 C1830 0.930 . S
H1821 C1831 0.930 . S
C1822 H1816 0.930 . S
C1822 C1823 1.355 . S
C1822 C1824 1.415 . S
C1823 C1822 1.355 . S
C1823 C1825 1.419 . S
C1824 C1822 1.415 . S
C1824 C1829 1.425 . S
C1824 C1831 1.409 . S
C1825 H1817 0.930 . S
C1825 C1823 1.419 . S
C1825 C1826 1.362 . S
C1826 H1818 0.930 . S
C1826 C1825 1.362 . S
C1826 C1829 1.409 . S
C1827 H1819 0.930 . S
C1827 C1828 1.355 . S
C1827 C1829 1.415 . S
C1828 C1827 1.355 . S
C1828 C1830 1.419 . S
C1829 C1824 1.425 . S
C1829 C1826 1.409 . S
C1829 C1827 1.415 . S
C1830 H1820 0.930 . S
C1830 C1828 1.419 . S
C1830 C1831 1.362 . S
C1831 H1821 0.930 . S
C1831 C1824 1.409 . S
C1831 C1830 1.362 . S
H1832 C1838 0.930 . S
H1833 C1841 0.930 . S
H1834 C1842 0.930 . S
H1835 C1843 0.930 . S
H1836 C1846 0.930 . S
H1837 C1847 0.930 . S
C1838 H1832 0.930 . S
C1838 C1839 1.355 . S
C1838 C1840 1.415 . S
C1839 C1838 1.355 . S
C1839 C1841 1.419 . S
C1840 C1838 1.415 . S
C1840 C1845 1.425 . S
C1840 C1847 1.409 . S
C1841 H1833 0.930 . S
C1841 C1839 1.419 . S
C1841 C1842 1.362 . S
C1842 H1834 0.930 . S
C1842 C1841 1.362 . S
C1842 C1845 1.409 . S
C1843 H1835 0.930 . S
C1843 C1844 1.355 . S
C1843 C1845 1.415 . S
C1844 C1843 1.355 . S
C1844 C1846 1.419 . S
C1845 C1840 1.425 . S
C1845 C1842 1.409 . S
C1845 C1843 1.415 . S
C1846 H1836 0.930 . S
C1846 C1844 1.419 . S
C1846 C1847 1.362 . S
C1847 H1837 0.930 . S
C1847 C1840 1.409 . S
C1847 C1846 1.362 . S
H1848 C1854 0.930 . S
H1849 C1857 0.930 . S
H1850 C1858 0.930 . S
H1851 C1859 0.930 1_455 S
H1852 C1862 0.930 . S
H1853 C1863 0.930 . S
C1854 H1848 0.930 . S
C1854 C1855 1.355 . S
C1854 C1856 1.415 . S
C1855 C1854 1.355 . S
C1855 C1857 1.419 . S
C1856 C1854 1.415 . S
C1856 C1861 1.425 . S
C1856 C1863 1.409 . S
C1857 H1849 0.930 . S
C1857 C1855 1.419 . S
C1857 C1858 1.362 . S
C1858 H1850 0.930 . S
C1858 C1857 1.362 . S
C1858 C1861 1.409 . S
C1859 H1851 0.930 1_655 S
C1859 C1860 1.355 . S
C1859 C1861 1.415 . S
C1860 C1859 1.355 . S
C1860 C1862 1.419 . S
C1861 C1856 1.425 . S
C1861 C1858 1.409 . S
C1861 C1859 1.415 . S
C1862 H1852 0.930 . S
C1862 C1860 1.419 . S
C1862 C1863 1.362 . S
C1863 H1853 0.930 . S
C1863 C1856 1.409 . S
C1863 C1862 1.362 . S
H1864 C1870 0.930 . S
H1865 C1873 0.930 . S
H1866 C1874 0.930 . S
H1867 C1875 0.930 . S
H1868 C1878 0.930 . S
H1869 C1879 0.930 . S
C1870 H1864 0.930 . S
C1870 C1871 1.355 . S
C1870 C1872 1.415 . S
C1871 C1870 1.355 . S
C1871 C1873 1.419 . S
C1872 C1870 1.415 . S
C1872 C1877 1.425 . S
C1872 C1879 1.409 . S
C1873 H1865 0.930 . S
C1873 C1871 1.419 . S
C1873 C1874 1.362 . S
C1874 H1866 0.930 . S
C1874 C1873 1.362 . S
C1874 C1877 1.409 . S
C1875 H1867 0.930 . S
C1875 C1876 1.355 . S
C1875 C1877 1.415 . S
C1876 C1875 1.355 . S
C1876 C1878 1.419 . S
C1877 C1872 1.425 . S
C1877 C1874 1.409 . S
C1877 C1875 1.415 . S
C1878 H1868 0.930 . S
C1878 C1876 1.419 . S
C1878 C1879 1.362 . S
C1879 H1869 0.930 . S
C1879 C1872 1.409 . S
C1879 C1878 1.362 . S
H1880 C1886 0.930 . S
H1881 C1889 0.930 . S
H1882 C1890 0.930 . S
H1883 C1891 0.930 . S
H1884 C1894 0.930 . S
H1885 C1895 0.930 . S
C1886 H1880 0.930 . S
C1886 C1887 1.355 . S
C1886 C1888 1.415 . S
C1887 C1886 1.355 . S
C1887 C1889 1.419 . S
C1888 C1886 1.415 . S
C1888 C1893 1.425 . S
C1888 C1895 1.409 . S
C1889 H1881 0.930 . S
C1889 C1887 1.419 . S
C1889 C1890 1.362 . S
C1890 H1882 0.930 . S
C1890 C1889 1.362 . S
C1890 C1893 1.409 . S
C1891 H1883 0.930 . S
C1891 C1892 1.355 . S
C1891 C1893 1.415 . S
C1892 C1891 1.355 . S
C1892 C1894 1.419 . S
C1893 C1888 1.425 . S
C1893 C1890 1.409 . S
C1893 C1891 1.415 . S
C1894 H1884 0.930 . S
C1894 C1892 1.419 . S
C1894 C1895 1.362 . S
C1895 H1885 0.930 . S
C1895 C1888 1.409 . S
C1895 C1894 1.362 . S
H1896 C1902 0.930 . S
H1897 C1905 0.930 . S
H1898 C1906 0.930 . S
H1899 C1907 0.930 . S
H1900 C1910 0.930 1_545 S
H1901 C1911 0.930 . S
C1902 H1896 0.930 . S
C1902 C1903 1.355 . S
C1902 C1904 1.415 . S
C1903 C1902 1.355 . S
C1903 C1905 1.419 . S
C1904 C1902 1.415 . S
C1904 C1909 1.425 . S
C1904 C1911 1.409 . S
C1905 H1897 0.930 . S
C1905 C1903 1.419 . S
C1905 C1906 1.362 . S
C1906 H1898 0.930 . S
C1906 C1905 1.362 . S
C1906 C1909 1.409 . S
C1907 H1899 0.930 . S
C1907 C1908 1.355 . S
C1907 C1909 1.415 . S
C1908 C1907 1.355 . S
C1908 C1910 1.419 . S
C1909 C1904 1.425 . S
C1909 C1906 1.409 . S
C1909 C1907 1.415 . S
C1910 H1900 0.930 1_565 S
C1910 C1908 1.419 . S
C1910 C1911 1.362 . S
C1911 H1901 0.930 . S
C1911 C1904 1.409 . S
C1911 C1910 1.362 . S
H1912 C1918 0.930 . S
H1913 C1921 0.930 . S
H1914 C1922 0.930 . S
H1915 C1923 0.930 . S
H1916 C1926 0.930 . S
H1917 C1927 0.930 . S
C1918 H1912 0.930 . S
C1918 C1919 1.355 . S
C1918 C1920 1.415 . S
C1919 C1918 1.355 . S
C1919 C1921 1.419 . S
C1920 C1918 1.415 . S
C1920 C1925 1.425 . S
C1920 C1927 1.409 . S
C1921 H1913 0.930 . S
C1921 C1919 1.419 . S
C1921 C1922 1.362 . S
C1922 H1914 0.930 . S
C1922 C1921 1.362 . S
C1922 C1925 1.409 . S
C1923 H1915 0.930 . S
C1923 C1924 1.355 . S
C1923 C1925 1.415 . S
C1924 C1923 1.355 . S
C1924 C1926 1.419 . S
C1925 C1920 1.425 . S
C1925 C1922 1.409 . S
C1925 C1923 1.415 . S
C1926 H1916 0.930 . S
C1926 C1924 1.419 . S
C1926 C1927 1.362 . S
C1927 H1917 0.930 . S
C1927 C1920 1.409 . S
C1927 C1926 1.362 . S
H1928 C1934 0.930 . S
H1929 C1937 0.930 . S
H1930 C1938 0.930 . S
H1931 C1939 0.930 . S
H1932 C1942 0.930 . S
H1933 C1943 0.930 . S
C1934 H1928 0.930 . S
C1934 C1935 1.355 . S
C1934 C1936 1.415 . S
C1935 C1934 1.355 . S
C1935 C1937 1.419 . S
C1936 C1934 1.415 . S
C1936 C1941 1.425 . S
C1936 C1943 1.409 . S
C1937 H1929 0.930 . S
C1937 C1935 1.419 . S
C1937 C1938 1.362 . S
C1938 H1930 0.930 . S
C1938 C1937 1.362 . S
C1938 C1941 1.409 . S
C1939 H1931 0.930 . S
C1939 C1940 1.355 . S
C1939 C1941 1.415 . S
C1940 C1939 1.355 . S
C1940 C1942 1.419 . S
C1941 C1936 1.425 . S
C1941 C1938 1.409 . S
C1941 C1939 1.415 . S
C1942 H1932 0.930 . S
C1942 C1940 1.419 . S
C1942 C1943 1.362 . S
C1943 H1933 0.930 . S
C1943 C1936 1.409 . S
C1943 C1942 1.362 . S
H1944 C1950 0.930 . S
H1945 C1953 0.930 . S
H1946 C1954 0.930 . S
H1947 C1955 0.930 . S
H1948 C1958 0.930 . S
H1949 C1959 0.930 . S
C1950 H1944 0.930 . S
C1950 C1951 1.355 . S
C1950 C1952 1.415 . S
C1951 C1950 1.355 . S
C1951 C1953 1.419 . S
C1952 C1950 1.415 . S
C1952 C1957 1.425 . S
C1952 C1959 1.409 . S
C1953 H1945 0.930 . S
C1953 C1951 1.419 . S
C1953 C1954 1.362 . S
C1954 H1946 0.930 . S
C1954 C1953 1.362 . S
C1954 C1957 1.409 . S
C1955 H1947 0.930 . S
C1955 C1956 1.355 . S
C1955 C1957 1.415 . S
C1956 C1955 1.355 . S
C1956 C1958 1.419 . S
C1957 C1952 1.425 . S
C1957 C1954 1.409 . S
C1957 C1955 1.415 . S
C1958 H1948 0.930 . S
C1958 C1956 1.419 . S
C1958 C1959 1.362 . S
C1959 H1949 0.930 . S
C1959 C1952 1.409 . S
C1959 C1958 1.362 . S
H1960 C1966 0.930 . S
H1961 C1969 0.930 . S
H1962 C1970 0.930 . S
H1963 C1971 0.930 . S
H1964 C1974 0.930 . S
H1965 C1975 0.930 . S
C1966 H1960 0.930 . S
C1966 C1967 1.355 . S
C1966 C1968 1.415 . S
C1967 C1966 1.355 . S
C1967 C1969 1.419 . S
C1968 C1966 1.415 . S
C1968 C1973 1.425 . S
C1968 C1975 1.409 . S
C1969 H1961 0.930 . S
C1969 C1967 1.419 . S
C1969 C1970 1.362 . S
C1970 H1962 0.930 . S
C1970 C1969 1.362 . S
C1970 C1973 1.409 . S
C1971 H1963 0.930 . S
C1971 C1972 1.355 . S
C1971 C1973 1.415 . S
C1972 C1971 1.355 . S
C1972 C1974 1.419 . S
C1973 C1968 1.425 . S
C1973 C1970 1.409 . S
C1973 C1971 1.415 . S
C1974 H1964 0.930 . S
C1974 C1972 1.419 . S
C1974 C1975 1.362 . S
C1975 H1965 0.930 . S
C1975 C1968 1.409 . S
C1975 C1974 1.362 . S
H1976 C1982 0.930 . S
H1977 C1985 0.930 . S
H1978 C1986 0.930 . S
H1979 C1987 0.930 . S
H1980 C1990 0.930 . S
H1981 C1991 0.930 . S
C1982 H1976 0.930 . S
C1982 C1983 1.355 . S
C1982 C1984 1.415 . S
C1983 C1982 1.355 . S
C1983 C1985 1.419 . S
C1984 C1982 1.415 . S
C1984 C1989 1.425 . S
C1984 C1991 1.409 . S
C1985 H1977 0.930 . S
C1985 C1983 1.419 . S
C1985 C1986 1.362 . S
C1986 H1978 0.930 . S
C1986 C1985 1.362 . S
C1986 C1989 1.409 . S
C1987 H1979 0.930 . S
C1987 C1988 1.355 . S
C1987 C1989 1.415 . S
C1988 C1987 1.355 . S
C1988 C1990 1.419 . S
C1989 C1984 1.425 . S
C1989 C1986 1.409 . S
C1989 C1987 1.415 . S
C1990 H1980 0.930 . S
C1990 C1988 1.419 . S
C1990 C1991 1.362 . S
C1991 H1981 0.930 . S
C1991 C1984 1.409 . S
C1991 C1990 1.362 . S
H1992 C1998 0.930 . S
H1993 C2001 0.930 . S
H1994 C2002 0.930 . S
H1995 C2003 0.930 . S
H1996 C2006 0.930 . S
H1997 C2007 0.930 . S
C1998 H1992 0.930 . S
C1998 C1999 1.355 . S
C1998 C2000 1.415 . S
C1999 C1998 1.355 . S
C1999 C2001 1.419 . S
C2000 C1998 1.415 . S
C2000 C2005 1.425 . S
C2000 C2007 1.409 . S
C2001 H1993 0.930 . S
C2001 C1999 1.419 . S
C2001 C2002 1.362 . S
C2002 H1994 0.930 . S
C2002 C2001 1.362 . S
C2002 C2005 1.409 . S
C2003 H1995 0.930 . S
C2003 C2004 1.355 . S
C2003 C2005 1.415 . S
C2004 C2003 1.355 . S
C2004 C2006 1.419 . S
C2005 C2000 1.425 . S
C2005 C2002 1.409 . S
C2005 C2003 1.415 . S
C2006 H1996 0.930 . S
C2006 C2004 1.419 . S
C2006 C2007 1.362 . S
C2007 H1997 0.930 . S
C2007 C2000 1.409 . S
C2007 C2006 1.362 . S
H2008 C2014 0.930 . S
H2009 C2017 0.930 . S
H2010 C2018 0.930 . S
H2011 C2019 0.930 . S
H2012 C2022 0.930 . S
H2013 C2023 0.930 . S
C2014 H2008 0.930 . S
C2014 C2015 1.355 . S
C2014 C2016 1.415 . S
C2015 C2014 1.355 . S
C2015 C2017 1.419 . S
C2016 C2014 1.415 . S
C2016 C2021 1.425 . S
C2016 C2023 1.409 . S
C2017 H2009 0.930 . S
C2017 C2015 1.419 . S
C2017 C2018 1.362 . S
C2018 H2010 0.930 . S
C2018 C2017 1.362 . S
C2018 C2021 1.409 . S
C2019 H2011 0.930 . S
C2019 C2020 1.355 . S
C2019 C2021 1.415 . S
C2020 C2019 1.355 . S
C2020 C2022 1.419 . S
C2021 C2016 1.425 . S
C2021 C2018 1.409 . S
C2021 C2019 1.415 . S
C2022 H2012 0.930 . S
C2022 C2020 1.419 . S
C2022 C2023 1.362 . S
C2023 H2013 0.930 . S
C2023 C2016 1.409 . S
C2023 C2022 1.362 . S
H2024 C2030 0.930 . S
H2025 C2033 0.930 . S
H2026 C2034 0.930 . S
H2027 C2035 0.930 . S
H2028 C2038 0.930 . S
H2029 C2039 0.930 . S
C2030 H2024 0.930 . S
C2030 C2031 1.355 . S
C2030 C2032 1.415 . S
C2031 C2030 1.355 . S
C2031 C2033 1.419 . S
C2032 C2030 1.415 . S
C2032 C2037 1.425 . S
C2032 C2039 1.409 . S
C2033 H2025 0.930 . S
C2033 C2031 1.419 . S
C2033 C2034 1.362 . S
C2034 H2026 0.930 . S
C2034 C2033 1.362 . S
C2034 C2037 1.409 . S
C2035 H2027 0.930 . S
C2035 C2036 1.355 . S
C2035 C2037 1.415 . S
C2036 C2035 1.355 . S
C2036 C2038 1.419 . S
C2037 C2032 1.425 . S
C2037 C2034 1.409 . S
C2037 C2035 1.415 . S
C2038 H2028 0.930 . S
C2038 C2036 1.419 . S
C2038 C2039 1.362 . S
C2039 H2029 0.930 . S
C2039 C2032 1.409 . S
C2039 C2038 1.362 . S
H2040 C2046 0.930 . S
H2041 C2049 0.930 . S
H2042 C2050 0.930 . S
H2043 C2051 0.930 . S
H2044 C2054 0.930 . S
H2045 C2055 0.930 . S
C2046 H2040 0.930 . S
C2046 C2047 1.355 . S
C2046 C2048 1.415 . S
C2047 C2046 1.355 . S
C2047 C2049 1.419 1_455 S
C2048 C2046 1.415 . S
C2048 C2053 1.425 1_455 S
C2048 C2055 1.409 . S
C2049 H2041 0.930 . S
C2049 C2047 1.419 1_655 S
C2049 C2050 1.362 . S
C2050 H2042 0.930 . S
C2050 C2049 1.362 . S
C2050 C2053 1.409 . S
C2051 H2043 0.930 . S
C2051 C2052 1.355 1_655 S
C2051 C2053 1.415 . S
C2052 C2051 1.355 1_455 S
C2052 C2054 1.419 . S
C2053 C2048 1.425 1_655 S
C2053 C2050 1.409 . S
C2053 C2051 1.415 . S
C2054 H2044 0.930 . S
C2054 C2052 1.419 . S
C2054 C2055 1.362 . S
C2055 H2045 0.930 . S
C2055 C2048 1.409 . S
C2055 C2054 1.362 . S
H2056 C2062 0.930 . S
H2057 C2065 0.930 . S
H2058 C2066 0.930 . S
H2059 C2067 0.930 . S
H2060 C2070 0.930 . S
H2061 C2071 0.930 . S
C2062 H2056 0.930 . S
C2062 C2063 1.355 . S
C2062 C2064 1.415 . S
C2063 C2062 1.355 . S
C2063 C2065 1.419 . S
C2064 C2062 1.415 . S
C2064 C2069 1.425 . S
C2064 C2071 1.409 . S
C2065 H2057 0.930 . S
C2065 C2063 1.419 . S
C2065 C2066 1.362 . S
C2066 H2058 0.930 . S
C2066 C2065 1.362 . S
C2066 C2069 1.409 . S
C2067 H2059 0.930 . S
C2067 C2068 1.355 . S
C2067 C2069 1.415 . S
C2068 C2067 1.355 . S
C2068 C2070 1.419 . S
C2069 C2064 1.425 . S
C2069 C2066 1.409 . S
C2069 C2067 1.415 . S
C2070 H2060 0.930 . S
C2070 C2068 1.419 . S
C2070 C2071 1.362 . S
C2071 H2061 0.930 . S
C2071 C2064 1.409 . S
C2071 C2070 1.362 . S
H2072 C2078 0.930 . S
H2073 C2081 0.930 . S
H2074 C2082 0.930 . S
H2075 C2083 0.930 . S
H2076 C2086 0.930 . S
H2077 C2087 0.930 . S
C2078 H2072 0.930 . S
C2078 C2079 1.355 . S
C2078 C2080 1.415 . S
C2079 C2078 1.355 . S
C2079 C2081 1.419 . S
C2080 C2078 1.415 . S
C2080 C2085 1.425 . S
C2080 C2087 1.409 . S
C2081 H2073 0.930 . S
C2081 C2079 1.419 . S
C2081 C2082 1.362 . S
C2082 H2074 0.930 . S
C2082 C2081 1.362 . S
C2082 C2085 1.409 . S
C2083 H2075 0.930 . S
C2083 C2084 1.355 . S
C2083 C2085 1.415 . S
C2084 C2083 1.355 . S
C2084 C2086 1.419 . S
C2085 C2080 1.425 . S
C2085 C2082 1.409 . S
C2085 C2083 1.415 . S
C2086 H2076 0.930 . S
C2086 C2084 1.419 . S
C2086 C2087 1.362 . S
C2087 H2077 0.930 . S
C2087 C2080 1.409 . S
C2087 C2086 1.362 . S
H2088 C2094 0.930 . S
H2089 C2097 0.930 . S
H2090 C2098 0.930 . S
H2091 C2099 0.930 . S
H2092 C2102 0.930 . S
H2093 C2103 0.930 . S
C2094 H2088 0.930 . S
C2094 C2095 1.355 . S
C2094 C2096 1.415 . S
C2095 C2094 1.355 . S
C2095 C2097 1.419 . S
C2096 C2094 1.415 . S
C2096 C2101 1.425 . S
C2096 C2103 1.409 . S
C2097 H2089 0.930 . S
C2097 C2095 1.419 . S
C2097 C2098 1.362 . S
C2098 H2090 0.930 . S
C2098 C2097 1.362 . S
C2098 C2101 1.409 . S
C2099 H2091 0.930 . S
C2099 C2100 1.355 . S
C2099 C2101 1.415 . S
C2100 C2099 1.355 . S
C2100 C2102 1.419 . S
C2101 C2096 1.425 . S
C2101 C2098 1.409 . S
C2101 C2099 1.415 . S
C2102 H2092 0.930 . S
C2102 C2100 1.419 . S
C2102 C2103 1.362 . S
C2103 H2093 0.930 . S
C2103 C2096 1.409 . S
C2103 C2102 1.362 . S
H2104 C2110 0.930 . S
H2105 C2113 0.930 1_655 S
H2106 C2114 0.930 1_655 S
H2107 C2115 0.930 1_655 S
H2108 C2118 0.930 . S
H2109 C2119 0.930 . S
C2110 H2104 0.930 . S
C2110 C2111 1.355 . S
C2110 C2112 1.415 . S
C2111 C2110 1.355 . S
C2111 C2113 1.419 . S
C2112 C2110 1.415 . S
C2112 C2117 1.425 . S
C2112 C2119 1.409 . S
C2113 H2105 0.930 1_455 S
C2113 C2111 1.419 . S
C2113 C2114 1.362 . S
C2114 H2106 0.930 1_455 S
C2114 C2113 1.362 . S
C2114 C2117 1.409 . S
C2115 H2107 0.930 1_455 S
C2115 C2116 1.355 . S
C2115 C2117 1.415 . S
C2116 C2115 1.355 . S
C2116 C2118 1.419 . S
C2117 C2112 1.425 . S
C2117 C2114 1.409 . S
C2117 C2115 1.415 . S
C2118 H2108 0.930 . S
C2118 C2116 1.419 . S
C2118 C2119 1.362 . S
C2119 H2109 0.930 . S
C2119 C2112 1.409 . S
C2119 C2118 1.362 . S
H2120 C2126 0.930 . S
H2121 C2129 0.930 . S
H2122 C2130 0.930 . S
H2123 C2131 0.930 . S
H2124 C2134 0.930 . S
H2125 C2135 0.930 . S
C2126 H2120 0.930 . S
C2126 C2127 1.355 . S
C2126 C2128 1.415 . S
C2127 C2126 1.355 . S
C2127 C2129 1.419 . S
C2128 C2126 1.415 . S
C2128 C2133 1.425 . S
C2128 C2135 1.409 . S
C2129 H2121 0.930 . S
C2129 C2127 1.419 . S
C2129 C2130 1.362 . S
C2130 H2122 0.930 . S
C2130 C2129 1.362 . S
C2130 C2133 1.409 . S
C2131 H2123 0.930 . S
C2131 C2132 1.355 . S
C2131 C2133 1.415 . S
C2132 C2131 1.355 . S
C2132 C2134 1.419 . S
C2133 C2128 1.425 . S
C2133 C2130 1.409 . S
C2133 C2131 1.415 . S
C2134 H2124 0.930 . S
C2134 C2132 1.419 . S
C2134 C2135 1.362 . S
C2135 H2125 0.930 . S
C2135 C2128 1.409 . S
C2135 C2134 1.362 . S
H2136 C2142 0.930 . S
H2137 C2145 0.930 . S
H2138 C2146 0.930 . S
H2139 C2147 0.930 . S
H2140 C2150 0.930 . S
H2141 C2151 0.930 . S
C2142 H2136 0.930 . S
C2142 C2143 1.355 . S
C2142 C2144 1.415 . S
C2143 C2142 1.355 . S
C2143 C2145 1.419 . S
C2144 C2142 1.415 . S
C2144 C2149 1.425 . S
C2144 C2151 1.409 . S
C2145 H2137 0.930 . S
C2145 C2143 1.419 . S
C2145 C2146 1.362 . S
C2146 H2138 0.930 . S
C2146 C2145 1.362 . S
C2146 C2149 1.409 . S
C2147 H2139 0.930 . S
C2147 C2148 1.355 . S
C2147 C2149 1.415 . S
C2148 C2147 1.355 . S
C2148 C2150 1.419 . S
C2149 C2144 1.425 . S
C2149 C2146 1.409 . S
C2149 C2147 1.415 . S
C2150 H2140 0.930 . S
C2150 C2148 1.419 . S
C2150 C2151 1.362 . S
C2151 H2141 0.930 . S
C2151 C2144 1.409 . S
C2151 C2150 1.362 . S
H2152 C2158 0.930 . S
H2153 C2161 0.930 . S
H2154 C2162 0.930 . S
H2155 C2163 0.930 . S
H2156 C2166 0.930 . S
H2157 C2167 0.930 . S
C2158 H2152 0.930 . S
C2158 C2159 1.355 . S
C2158 C2160 1.415 . S
C2159 C2158 1.355 . S
C2159 C2161 1.419 . S
C2160 C2158 1.415 . S
C2160 C2165 1.425 . S
C2160 C2167 1.409 . S
C2161 H2153 0.930 . S
C2161 C2159 1.419 . S
C2161 C2162 1.362 . S
C2162 H2154 0.930 . S
C2162 C2161 1.362 . S
C2162 C2165 1.409 . S
C2163 H2155 0.930 . S
C2163 C2164 1.355 . S
C2163 C2165 1.415 . S
C2164 C2163 1.355 . S
C2164 C2166 1.419 . S
C2165 C2160 1.425 . S
C2165 C2162 1.409 . S
C2165 C2163 1.415 . S
C2166 H2156 0.930 . S
C2166 C2164 1.419 . S
C2166 C2167 1.362 . S
C2167 H2157 0.930 . S
C2167 C2160 1.409 . S
C2167 C2166 1.362 . S
H2168 C2174 0.930 . S
H2169 C2177 0.930 . S
H2170 C2178 0.930 . S
H2171 C2179 0.930 . S
H2172 C2182 0.930 . S
H2173 C2183 0.930 . S
C2174 H2168 0.930 . S
C2174 C2175 1.355 . S
C2174 C2176 1.415 . S
C2175 C2174 1.355 . S
C2175 C2177 1.419 . S
C2176 C2174 1.415 . S
C2176 C2181 1.425 . S
C2176 C2183 1.409 . S
C2177 H2169 0.930 . S
C2177 C2175 1.419 . S
C2177 C2178 1.362 . S
C2178 H2170 0.930 . S
C2178 C2177 1.362 . S
C2178 C2181 1.409 . S
C2179 H2171 0.930 . S
C2179 C2180 1.355 . S
C2179 C2181 1.415 . S
C2180 C2179 1.355 . S
C2180 C2182 1.419 . S
C2181 C2176 1.425 . S
C2181 C2178 1.409 . S
C2181 C2179 1.415 . S
C2182 H2172 0.930 . S
C2182 C2180 1.419 . S
C2182 C2183 1.362 . S
C2183 H2173 0.930 . S
C2183 C2176 1.409 . S
C2183 C2182 1.362 . S
H2184 C2190 0.930 . S
H2185 C2193 0.930 . S
H2186 C2194 0.930 . S
H2187 C2195 0.930 . S
H2188 C2198 0.930 . S
H2189 C2199 0.930 . S
C2190 H2184 0.930 . S
C2190 C2191 1.355 . S
C2190 C2192 1.415 . S
C2191 C2190 1.355 . S
C2191 C2193 1.419 . S
C2192 C2190 1.415 . S
C2192 C2197 1.425 . S
C2192 C2199 1.409 . S
C2193 H2185 0.930 . S
C2193 C2191 1.419 . S
C2193 C2194 1.362 . S
C2194 H2186 0.930 . S
C2194 C2193 1.362 . S
C2194 C2197 1.409 . S
C2195 H2187 0.930 . S
C2195 C2196 1.355 . S
C2195 C2197 1.415 . S
C2196 C2195 1.355 . S
C2196 C2198 1.419 . S
C2197 C2192 1.425 . S
C2197 C2194 1.409 . S
C2197 C2195 1.415 . S
C2198 H2188 0.930 . S
C2198 C2196 1.419 . S
C2198 C2199 1.362 . S
C2199 H2189 0.930 . S
C2199 C2192 1.409 . S
C2199 C2198 1.362 . S
H2200 C2206 0.930 . S
H2201 C2209 0.930 . S
H2202 C2210 0.930 . S
H2203 C2211 0.930 . S
H2204 C2214 0.930 . S
H2205 C2215 0.930 . S
C2206 H2200 0.930 . S
C2206 C2207 1.355 . S
C2206 C2208 1.415 . S
C2207 C2206 1.355 . S
C2207 C2209 1.419 . S
C2208 C2206 1.415 . S
C2208 C2213 1.425 . S
C2208 C2215 1.409 . S
C2209 H2201 0.930 . S
C2209 C2207 1.419 . S
C2209 C2210 1.362 . S
C2210 H2202 0.930 . S
C2210 C2209 1.362 . S
C2210 C2213 1.409 . S
C2211 H2203 0.930 . S
C2211 C2212 1.355 . S
C2211 C2213 1.415 . S
C2212 C2211 1.355 . S
C2212 C2214 1.419 . S
C2213 C2208 1.425 . S
C2213 C2210 1.409 . S
C2213 C2211 1.415 . S
C2214 H2204 0.930 . S
C2214 C2212 1.419 . S
C2214 C2215 1.362 . S
C2215 H2205 0.930 . S
C2215 C2208 1.409 . S
C2215 C2214 1.362 . S
H2216 C2222 0.930 . S
H2217 C2225 0.930 . S
H2218 C2226 0.930 . S
H2219 C2227 0.930 . S
H2220 C2230 0.930 . S
H2221 C2231 0.930 . S
C2222 H2216 0.930 . S
C2222 C2223 1.355 . S
C2222 C2224 1.415 . S
C2223 C2222 1.355 . S
C2223 C2225 1.419 . S
C2224 C2222 1.415 . S
C2224 C2229 1.425 . S
C2224 C2231 1.409 . S
C2225 H2217 0.930 . S
C2225 C2223 1.419 . S
C2225 C2226 1.362 . S
C2226 H2218 0.930 . S
C2226 C2225 1.362 . S
C2226 C2229 1.409 . S
C2227 H2219 0.930 . S
C2227 C2228 1.355 . S
C2227 C2229 1.415 . S
C2228 C2227 1.355 . S
C2228 C2230 1.419 . S
C2229 C2224 1.425 . S
C2229 C2226 1.409 . S
C2229 C2227 1.415 . S
C2230 H2220 0.930 . S
C2230 C2228 1.419 . S
C2230 C2231 1.362 . S
C2231 H2221 0.930 . S
C2231 C2224 1.409 . S
C2231 C2230 1.362 . S
H2232 C2238 0.930 . S
H2233 C2241 0.930 . S
H2234 C2242 0.930 . S
H2235 C2243 0.930 . S
H2236 C2246 0.930 . S
H2237 C2247 0.930 . S
C2238 H2232 0.930 . S
C2238 C2239 1.355 . S
C2238 C2240 1.415 . S
C2239 C2238 1.355 . S
C2239 C2241 1.419 . S
C2240 C2238 1.415 . S
C2240 C2245 1.425 . S
C2240 C2247 1.409 . S
C2241 H2233 0.930 . S
C2241 C2239 1.419 . S
C2241 C2242 1.362 . S
C2242 H2234 0.930 . S
C2242 C2241 1.362 . S
C2242 C2245 1.409 . S
C2243 H2235 0.930 . S
C2243 C2244 1.355 . S
C2243 C2245 1.415 . S
C2244 C2243 1.355 . S
C2244 C2246 1.419 . S
C2245 C2240 1.425 . S
C2245 C2242 1.409 . S
C2245 C2243 1.415 . S
C2246 H2236 0.930 . S
C2246 C2244 1.419 . S
C2246 C2247 1.362 . S
C2247 H2237 0.930 . S
C2247 C2240 1.409 . S
C2247 C2246 1.362 . S
H2248 C2254 0.930 . S
H2249 C2257 0.930 . S
H2250 C2258 0.930 . S
H2251 C2259 0.930 . S
H2252 C2262 0.930 . S
H2253 C2263 0.930 . S
C2254 H2248 0.930 . S
C2254 C2255 1.355 . S
C2254 C2256 1.415 . S
C2255 C2254 1.355 . S
C2255 C2257 1.419 . S
C2256 C2254 1.415 . S
C2256 C2261 1.425 . S
C2256 C2263 1.409 . S
C2257 H2249 0.930 . S
C2257 C2255 1.419 . S
C2257 C2258 1.362 . S
C2258 H2250 0.930 . S
C2258 C2257 1.362 . S
C2258 C2261 1.409 . S
C2259 H2251 0.930 . S
C2259 C2260 1.355 . S
C2259 C2261 1.415 . S
C2260 C2259 1.355 . S
C2260 C2262 1.419 . S
C2261 C2256 1.425 . S
C2261 C2258 1.409 . S
C2261 C2259 1.415 . S
C2262 H2252 0.930 . S
C2262 C2260 1.419 . S
C2262 C2263 1.362 . S
C2263 H2253 0.930 . S
C2263 C2256 1.409 . S
C2263 C2262 1.362 . S
H2264 C2270 0.930 . S
H2265 C2273 0.930 . S
H2266 C2274 0.930 . S
H2267 C2275 0.930 . S
H2268 C2278 0.930 . S
H2269 C2279 0.930 . S
C2270 H2264 0.930 . S
C2270 C2271 1.355 . S
C2270 C2272 1.415 . S
C2271 C2270 1.355 . S
C2271 C2273 1.419 . S
C2272 C2270 1.415 . S
C2272 C2277 1.425 . S
C2272 C2279 1.409 . S
C2273 H2265 0.930 . S
C2273 C2271 1.419 . S
C2273 C2274 1.362 . S
C2274 H2266 0.930 . S
C2274 C2273 1.362 . S
C2274 C2277 1.409 . S
C2275 H2267 0.930 . S
C2275 C2276 1.355 . S
C2275 C2277 1.415 . S
C2276 C2275 1.355 . S
C2276 C2278 1.419 . S
C2277 C2272 1.425 . S
C2277 C2274 1.409 . S
C2277 C2275 1.415 . S
C2278 H2268 0.930 . S
C2278 C2276 1.419 . S
C2278 C2279 1.362 . S
C2279 H2269 0.930 . S
C2279 C2272 1.409 . S
C2279 C2278 1.362 . S
H2280 C2286 0.930 . S
H2281 C2289 0.930 . S
H2282 C2290 0.930 . S
H2283 C2291 0.930 . S
H2284 C2294 0.930 . S
H2285 C2295 0.930 . S
C2286 H2280 0.930 . S
C2286 C2287 1.355 . S
C2286 C2288 1.415 . S
C2287 C2286 1.355 . S
C2287 C2289 1.419 . S
C2288 C2286 1.415 . S
C2288 C2293 1.425 . S
C2288 C2295 1.409 . S
C2289 H2281 0.930 . S
C2289 C2287 1.419 . S
C2289 C2290 1.362 . S
C2290 H2282 0.930 . S
C2290 C2289 1.362 . S
C2290 C2293 1.409 . S
C2291 H2283 0.930 . S
C2291 C2292 1.355 . S
C2291 C2293 1.415 . S
C2292 C2291 1.355 . S
C2292 C2294 1.419 . S
C2293 C2288 1.425 . S
C2293 C2290 1.409 . S
C2293 C2291 1.415 . S
C2294 H2284 0.930 . S
C2294 C2292 1.419 . S
C2294 C2295 1.362 . S
C2295 H2285 0.930 . S
C2295 C2288 1.409 . S
C2295 C2294 1.362 . S
H2296 C2302 0.930 . S
H2297 C2305 0.930 . S
H2298 C2306 0.930 . S
H2299 C2307 0.930 . S
H2300 C2310 0.930 . S
H2301 C2311 0.930 . S
C2302 H2296 0.930 . S
C2302 C2303 1.355 . S
C2302 C2304 1.415 . S
C2303 C2302 1.355 . S
C2303 C2305 1.419 . S
C2304 C2302 1.415 . S
C2304 C2309 1.425 . S
C2304 C2311 1.409 . S
C2305 H2297 0.930 . S
C2305 C2303 1.419 . S
C2305 C2306 1.362 . S
C2306 H2298 0.930 . S
C2306 C2305 1.362 . S
C2306 C2309 1.409 . S
C2307 H2299 0.930 . S
C2307 C2308 1.355 . S
C2307 C2309 1.415 . S
C2308 C2307 1.355 . S
C2308 C2310 1.419 . S
C2309 C2304 1.425 . S
C2309 C2306 1.409 . S
C2309 C2307 1.415 . S
C2310 H2300 0.930 . S
C2310 C2308 1.419 . S
C2310 C2311 1.362 . S
C2311 H2301 0.930 . S
C2311 C2304 1.409 . S
C2311 C2310 1.362 . S
H2312 C2318 0.930 . S
H2313 C2321 0.930 . S
H2314 C2322 0.927 1_556 S
H2315 C2323 0.910 1_556 S
H2316 C2326 0.930 . S
H2317 C2327 0.930 1_545 S
C2318 H2312 0.930 . S
C2318 C2319 1.355 . S
C2318 C2320 1.415 . S
C2319 C2318 1.355 . S
C2319 C2321 1.419 . S
C2320 C2318 1.415 . S
C2320 C2325 1.425 . S
C2320 C2327 1.409 . S
C2321 H2313 0.930 . S
C2321 C2319 1.419 . S
C2321 C2322 1.362 . S
C2322 H2314 0.927 1_554 S
C2322 C2321 1.362 . S
C2322 C2325 1.409 . S
C2323 H2315 0.910 1_554 S
C2323 C2324 1.355 . S
C2323 C2325 1.415 . S
C2324 C2323 1.355 . S
C2324 C2326 1.419 1_565 S
C2325 C2320 1.425 . S
C2325 C2322 1.409 . S
C2325 C2323 1.415 . S
C2326 H2316 0.930 . S
C2326 C2324 1.419 1_545 S
C2326 C2327 1.362 1_545 S
C2327 H2317 0.930 1_565 S
C2327 C2320 1.409 . S
C2327 C2326 1.362 1_565 S
H2328 C2334 0.930 . S
H2329 C2337 0.930 . S
H2330 C2338 0.930 . S
H2331 C2339 0.930 . S
H2332 C2342 0.930 . S
H2333 C2343 0.930 . S
C2334 H2328 0.930 . S
C2334 C2335 1.355 . S
C2334 C2336 1.415 . S
C2335 C2334 1.355 . S
C2335 C2337 1.419 . S
C2336 C2334 1.415 . S
C2336 C2341 1.425 . S
C2336 C2343 1.409 . S
C2337 H2329 0.930 . S
C2337 C2335 1.419 . S
C2337 C2338 1.362 . S
C2338 H2330 0.930 . S
C2338 C2337 1.362 . S
C2338 C2341 1.409 . S
C2339 H2331 0.930 . S
C2339 C2340 1.355 . S
C2339 C2341 1.415 . S
C2340 C2339 1.355 . S
C2340 C2342 1.419 . S
C2341 C2336 1.425 . S
C2341 C2338 1.409 . S
C2341 C2339 1.415 . S
C2342 H2332 0.930 . S
C2342 C2340 1.419 . S
C2342 C2343 1.362 . S
C2343 H2333 0.930 . S
C2343 C2336 1.409 . S
C2343 C2342 1.362 . S
H2344 C2350 0.930 . S
H2345 C2353 0.930 . S
H2346 C2354 0.928 1_556 S
H2347 C2355 0.930 . S
H2348 C2358 0.930 . S
H2349 C2359 0.930 . S
C2350 H2344 0.930 . S
C2350 C2351 1.355 1_554 S
C2350 C2352 1.415 . S
C2351 C2350 1.355 1_556 S
C2351 C2353 1.419 . S
C2352 C2350 1.415 . S
C2352 C2357 1.425 . S
C2352 C2359 1.409 . S
C2353 H2345 0.930 . S
C2353 C2351 1.419 . S
C2353 C2354 1.362 1_556 S
C2354 H2346 0.928 1_554 S
C2354 C2353 1.362 1_554 S
C2354 C2357 1.409 . S
C2355 H2347 0.930 . S
C2355 C2356 1.355 . S
C2355 C2357 1.415 . S
C2356 C2355 1.355 . S
C2356 C2358 1.419 . S
C2357 C2352 1.425 . S
C2357 C2354 1.409 . S
C2357 C2355 1.415 . S
C2358 H2348 0.930 . S
C2358 C2356 1.419 . S
C2358 C2359 1.362 . S
C2359 H2349 0.930 . S
C2359 C2352 1.409 . S
C2359 C2358 1.362 . S
H2360 C2366 0.930 . S
H2361 C2369 0.930 . S
H2362 C2370 0.930 . S
H2363 C2371 0.930 . S
H2364 C2374 0.930 . S
H2365 C2375 0.930 . S
C2366 H2360 0.930 . S
C2366 C2367 1.355 . S
C2366 C2368 1.415 . S
C2367 C2366 1.355 . S
C2367 C2369 1.419 . S
C2368 C2366 1.415 . S
C2368 C2373 1.425 . S
C2368 C2375 1.409 . S
C2369 H2361 0.930 . S
C2369 C2367 1.419 . S
C2369 C2370 1.362 . S
C2370 H2362 0.930 . S
C2370 C2369 1.362 . S
C2370 C2373 1.409 . S
C2371 H2363 0.930 . S
C2371 C2372 1.355 . S
C2371 C2373 1.415 . S
C2372 C2371 1.355 . S
C2372 C2374 1.419 . S
C2373 C2368 1.425 . S
C2373 C2370 1.409 . S
C2373 C2371 1.415 . S
C2374 H2364 0.930 . S
C2374 C2372 1.419 . S
C2374 C2375 1.362 . S
C2375 H2365 0.930 . S
C2375 C2368 1.409 . S
C2375 C2374 1.362 . S
H2376 C2382 0.930 . S
H2377 C2385 0.930 . S
H2378 C2386 0.930 . S
H2379 C2387 0.930 . S
H2380 C2390 0.930 . S
H2381 C2391 0.930 . S
C2382 H2376 0.930 . S
C2382 C2383 1.355 . S
C2382 C2384 1.415 . S
C2383 C2382 1.355 . S
C2383 C2385 1.419 . S
C2384 C2382 1.415 . S
C2384 C2389 1.425 . S
C2384 C2391 1.409 . S
C2385 H2377 0.930 . S
C2385 C2383 1.419 . S
C2385 C2386 1.362 . S
C2386 H2378 0.930 . S
C2386 C2385 1.362 . S
C2386 C2389 1.409 . S
C2387 H2379 0.930 . S
C2387 C2388 1.355 . S
C2387 C2389 1.415 . S
C2388 C2387 1.355 . S
C2388 C2390 1.419 . S
C2389 C2384 1.425 . S
C2389 C2386 1.409 . S
C2389 C2387 1.415 . S
C2390 H2380 0.930 . S
C2390 C2388 1.419 . S
C2390 C2391 1.362 . S
C2391 H2381 0.930 . S
C2391 C2384 1.409 . S
C2391 C2390 1.362 . S
C868 C329 1.296 . S
C863 C10 1.311 . S
C879 C23 2.108 . S
C884 C375 2.090 . S
C895 C36 1.045 . S
C900 C384 1.049 . S
C916 C422 1.882 . S
C911 C42 1.921 . S
C927 C18 1.862 . S
C932 C456 1.827 . S
C948 C486 1.005 . S
C943 C31 1.040 . S
C964 C545 1.830 1_556 S
C959 C43 1.850 . S
C975 C5 1.248 . S
C980 C558 1.219 . S
C991 C56 1.674 . S
C996 C341 1.639 . S
C1007 C70 1.348 . S
C1012 C359 1.311 . S
C1028 C380 1.897 . S
C1023 C82 1.931 . S
C1044 C418 0.987 . S
C1039 C96 1.008 . S
C1055 C57 1.453 . S
C1060 C452 1.396 . S
C1076 C482 1.864 . S
C1071 C69 1.879 . S
C1092 C529 1.414 . S
C1087 C83 1.439 . S
C1108 C554 0.879 . S
C1103 C95 0.862 . S
C1124 C325 0.814 . S
C1119 C94 0.852 . S
C1140 C584 1.773 . S
C1135 C108 1.775 . S
C1151 C122 1.620 . S
C1156 C626 1.590 . S
C1172 C669 0.697 . S
C1167 C140 0.734 . S
C1183 C55 1.635 . S
C1188 C550 1.615 . S
C1204 C388 1.674 . S
C1199 C68 1.704 . S
C1215 C121 1.578 . S
C1220 C686 1.589 . S
C1236 C737 1.772 . S
C1231 C153 1.773 . S
C1247 C161 1.010 . S
C1252 C320 1.007 1_556 S
C1268 C720 1.785 . S
C1263 C174 1.800 . S
C1279 C186 0.915 . S
C1284 C393 0.925 . S
C1295 C200 1.626 . S
C1300 C703 1.606 . S
C1316 C465 1.532 . S
C1311 C172 1.558 . S
C1332 C631 0.817 . S
C1327 C192 0.824 . S
C1348 C516 1.525 . S
C1343 C198 1.538 . S
C1364 C771 0.918 . S
C1359 C159 0.921 . S
C1380 C312 1.337 1_655 S
C1375 C211 1.357 . S
C1391 C225 1.158 . S
C1396 C724 1.141 . S
C1412 C409 1.640 . S
C1407 C239 1.656 . S
C1423 C251 0.899 . S
C1428 C699 0.874 . S
C1439 C218 1.263 . S
C1444 C461 1.242 . S
C1455 C226 1.590 . S
C1460 C647 1.577 . S
C1476 C520 1.250 . S
C1471 C238 1.256 . S
C1487 C252 0.722 . S
C1492 C767 0.756 . S
C1503 C250 0.699 . S
C1508 C316 0.668 . S
C1519 C264 1.523 . S
C1524 C613 1.516 . S
C1535 C276 1.359 . S
C1540 C499 1.350 . S
C1551 C290 0.440 . S
C1556 C660 0.505 . S
C1572 C783 1.341 . S
C1567 C213 1.347 . S
C1588 C397 1.451 . S
C1583 C224 1.447 . S
C1604 C443 1.311 . S
C1599 C283 1.316 . S
C1620 C354 1.540 . S
C1615 C303 1.554 . S
C1631 C29 1.325 . S
C1636 C805 1.340 . S
C1652 C749 2.082 . S
C1647 C49 2.092 . S
C1668 C826 1.065 . S
C1663 C3 1.056 . S
C1679 C16 1.935 . S
C1684 C694 1.897 . S
C1695 C44 1.863 . S
C1700 C592 1.845 1_556 S
C1716 C622 1.038 . S
C1711 C4 1.032 . S
C1732 C681 1.821 . S
C1727 C17 1.843 . S
C1748 C762 1.230 . S
C1743 C30 1.247 . S
C1764 C817 1.644 . S
C1759 C147 1.677 . S
C1775 C107 1.375 1_556 S
C1780 C733 1.369 . S
C1791 C127 1.942 . S
C1796 C822 1.910 . S
C1812 C690 1.000 . S
C1807 C135 1.040 . S
C1828 C588 1.457 . S
C1823 C148 1.472 . S
C1839 C114 1.849 . S
C1844 C618 1.819 . S
C1860 C665 1.420 . S
C1855 C120 1.441 . S
C1871 C134 0.881 . S
C1876 C758 0.834 . S
C1892 C801 0.808 . S
C1887 C133 0.849 . S
C1908 C448 1.773 . S
C1903 C75 1.780 . S
C1924 C490 1.607 . S
C1919 C81 1.635 . S
C1935 C101 0.707 . S
C1940 C533 0.709 . S
C1956 C754 1.607 . S
C1951 C146 1.634 . S
C1967 C109 1.695 . S
C1972 C830 1.668 . S
C1988 C414 1.572 . S
C1983 C88 1.584 . S
C2004 C363 1.773 . S
C1999 C62 1.786 . S
C2015 C187 1.103 . S
C2020 C796 1.111 . S
C2036 C346 1.809 . S
C2031 C199 1.820 . S
C2052 C835 0.893 . S
C2047 C160 0.919 . S
C2063 C173 1.618 . S
C2068 C431 1.597 . S
C2079 C205 1.550 . S
C2084 C601 1.520 . S
C2095 C166 0.846 . S
C2100 C495 0.845 . S
C2111 C179 1.551 . S
C2116 C652 1.534 . S
C2127 C185 1.011 . S
C2132 C567 1.018 . S
C2148 C788 1.298 . S
C2143 C302 1.332 . S
C2159 C270 1.161 . S
C2164 C350 1.136 . S
C2180 C851 1.599 . S
C2175 C278 1.625 . S
C2191 C296 0.836 . S
C2196 C427 0.830 . S
C2207 C309 1.289 . S
C2212 C597 1.271 . S
C2228 C511 1.536 . S
C2223 C263 1.561 . S
C2239 C277 1.224 . S
C2244 C656 1.203 . S
C2260 C563 0.708 . S
C2255 C289 0.695 . S
C2276 C792 0.704 . S
C2271 C291 0.678 . S
C2292 C477 1.513 . S
C2287 C231 1.522 . S
C2303 C237 1.373 . S
C2308 C635 1.361 . S
C2324 C524 0.435 . S
C2319 C257 0.444 . S
C2340 C579 1.295 . S
C2335 C304 1.309 . S
C2351 C265 1.442 . S
C2356 C839 1.447 . S
C2372 C715 1.325 . S
C2367 C244 1.309 . S
C2388 C728 1.528 . S
C2383 C212 1.542 . S
