# Generated by pormake.
# Topology ocu, (6,8)-cn, num edge types: 1
# Building blocks:
#     Node 0, Type 0, BuildingBlock: BETDEL_clean_sbu_0, # of connection points: 6
#     Node 1, Type 0, BuildingBlock: BETDEL_clean_sbu_0, # of connection points: 6
#     Node 2, Type 0, BuildingBlock: BETDEL_clean_sbu_0, # of connection points: 6
#     Node 3, Type 0, BuildingBlock: BETDEL_clean_sbu_0, # of connection points: 6
#     Node 4, Type 0, BuildingBlock: BETDEL_clean_sbu_0, # of connection points: 6
#     Node 5, Type 0, BuildingBlock: BETDEL_clean_sbu_0, # of connection points: 6
#     Node 6, Type 0, BuildingBlock: BETDEL_clean_sbu_0, # of connection points: 6
#     Node 7, Type 0, BuildingBlock: BETDEL_clean_sbu_0, # of connection points: 6
#     Node 8, Type 1, BuildingBlock: TAGTUT_clean_sbu_1, # of connection points: 8
#     Node 9, Type 1, BuildingBlock: TAGTUT_clean_sbu_1, # of connection points: 8
#     Node 10, Type 1, BuildingBlock: TAGTUT_clean_sbu_1, # of connection points: 8
#     Node 11, Type 1, BuildingBlock: TAGTUT_clean_sbu_1, # of connection points: 8
#     Node 12, Type 1, BuildingBlock: TAGTUT_clean_sbu_1, # of connection points: 8
#     Node 13, Type 1, BuildingBlock: TAGTUT_clean_sbu_1, # of connection points: 8
#     Edge 14, Type (0, 1), BuildingBlock: UVAHIK_clean_linker_0, # of connection points: 2
#     Edge 15, Type (0, 1), BuildingBlock: UVAHIK_clean_linker_0, # of connection points: 2
#     Edge 16, Type (0, 1), BuildingBlock: UVAHIK_clean_linker_0, # of connection points: 2
#     Edge 17, Type (0, 1), BuildingBlock: UVAHIK_clean_linker_0, # of connection points: 2
#     Edge 18, Type (0, 1), BuildingBlock: UVAHIK_clean_linker_0, # of connection points: 2
#     Edge 19, Type (0, 1), BuildingBlock: UVAHIK_clean_linker_0, # of connection points: 2
#     Edge 20, Type (0, 1), BuildingBlock: UVAHIK_clean_linker_0, # of connection points: 2
#     Edge 21, Type (0, 1), BuildingBlock: UVAHIK_clean_linker_0, # of connection points: 2
#     Edge 22, Type (0, 1), BuildingBlock: UVAHIK_clean_linker_0, # of connection points: 2
#     Edge 23, Type (0, 1), BuildingBlock: UVAHIK_clean_linker_0, # of connection points: 2
#     Edge 24, Type (0, 1), BuildingBlock: UVAHIK_clean_linker_0, # of connection points: 2
#     Edge 25, Type (0, 1), BuildingBlock: UVAHIK_clean_linker_0, # of connection points: 2
#     Edge 26, Type (0, 1), BuildingBlock: UVAHIK_clean_linker_0, # of connection points: 2
#     Edge 27, Type (0, 1), BuildingBlock: UVAHIK_clean_linker_0, # of connection points: 2
#     Edge 28, Type (0, 1), BuildingBlock: UVAHIK_clean_linker_0, # of connection points: 2
#     Edge 29, Type (0, 1), BuildingBlock: UVAHIK_clean_linker_0, # of connection points: 2
#     Edge 30, Type (0, 1), BuildingBlock: UVAHIK_clean_linker_0, # of connection points: 2
#     Edge 31, Type (0, 1), BuildingBlock: UVAHIK_clean_linker_0, # of connection points: 2
#     Edge 32, Type (0, 1), BuildingBlock: UVAHIK_clean_linker_0, # of connection points: 2
#     Edge 33, Type (0, 1), BuildingBlock: UVAHIK_clean_linker_0, # of connection points: 2
#     Edge 34, Type (0, 1), BuildingBlock: UVAHIK_clean_linker_0, # of connection points: 2
#     Edge 35, Type (0, 1), BuildingBlock: UVAHIK_clean_linker_0, # of connection points: 2
#     Edge 36, Type (0, 1), BuildingBlock: UVAHIK_clean_linker_0, # of connection points: 2
#     Edge 37, Type (0, 1), BuildingBlock: UVAHIK_clean_linker_0, # of connection points: 2
#     Edge 38, Type (0, 1), BuildingBlock: UVAHIK_clean_linker_0, # of connection points: 2
#     Edge 39, Type (0, 1), BuildingBlock: UVAHIK_clean_linker_0, # of connection points: 2
#     Edge 40, Type (0, 1), BuildingBlock: UVAHIK_clean_linker_0, # of connection points: 2
#     Edge 41, Type (0, 1), BuildingBlock: UVAHIK_clean_linker_0, # of connection points: 2
#     Edge 42, Type (0, 1), BuildingBlock: UVAHIK_clean_linker_0, # of connection points: 2
#     Edge 43, Type (0, 1), BuildingBlock: UVAHIK_clean_linker_0, # of connection points: 2
#     Edge 44, Type (0, 1), BuildingBlock: UVAHIK_clean_linker_0, # of connection points: 2
#     Edge 45, Type (0, 1), BuildingBlock: UVAHIK_clean_linker_0, # of connection points: 2
#     Edge 46, Type (0, 1), BuildingBlock: UVAHIK_clean_linker_0, # of connection points: 2
#     Edge 47, Type (0, 1), BuildingBlock: UVAHIK_clean_linker_0, # of connection points: 2
#     Edge 48, Type (0, 1), BuildingBlock: UVAHIK_clean_linker_0, # of connection points: 2
#     Edge 49, Type (0, 1), BuildingBlock: UVAHIK_clean_linker_0, # of connection points: 2
#     Edge 50, Type (0, 1), BuildingBlock: UVAHIK_clean_linker_0, # of connection points: 2
#     Edge 51, Type (0, 1), BuildingBlock: UVAHIK_clean_linker_0, # of connection points: 2
#     Edge 52, Type (0, 1), BuildingBlock: UVAHIK_clean_linker_0, # of connection points: 2
#     Edge 53, Type (0, 1), BuildingBlock: UVAHIK_clean_linker_0, # of connection points: 2
#     Edge 54, Type (0, 1), BuildingBlock: UVAHIK_clean_linker_0, # of connection points: 2
#     Edge 55, Type (0, 1), BuildingBlock: UVAHIK_clean_linker_0, # of connection points: 2
#     Edge 56, Type (0, 1), BuildingBlock: UVAHIK_clean_linker_0, # of connection points: 2
#     Edge 57, Type (0, 1), BuildingBlock: UVAHIK_clean_linker_0, # of connection points: 2
#     Edge 58, Type (0, 1), BuildingBlock: UVAHIK_clean_linker_0, # of connection points: 2
#     Edge 59, Type (0, 1), BuildingBlock: UVAHIK_clean_linker_0, # of connection points: 2
#     Edge 60, Type (0, 1), BuildingBlock: UVAHIK_clean_linker_0, # of connection points: 2
#     Edge 61, Type (0, 1), BuildingBlock: UVAHIK_clean_linker_0, # of connection points: 2
# Relax obj value: 0.092
# Max RMSD: 0.255
# Mean RMSD: 0.153
data_MOF--net-ocu--node1-BETDEL_clean_sbu_0--node2-TAGTUT_clean_sbu_1--edge1-UVAHIK_clean_linker_0
_symmetry_space_group_name_H-M    P1
_symmetry_Int_Tables_number       1
_symmetry_cell_setting            triclinic
loop_
_symmetry_equiv_pos_as_xyz
'x, y, z'
_cell_length_a     48.085835
_cell_length_b     46.68979
_cell_length_c     48.963069
_cell_angle_alpha  91.860025
_cell_angle_beta   94.075378
_cell_angle_gamma 105.17806
loop_
_atom_site_label
_atom_site_type_symbol
_atom_site_fract_x
_atom_site_fract_y
_atom_site_fract_z
_atom_type_partial_charge
Dy0 Dy 0.27388 0.24174 0.26575 0.0
C1 C 0.20423 0.27923 0.1845 0.0
C2 C 0.30402 0.21668 0.30255 0.0
Dy3 Dy 0.23177 0.25024 0.22003 0.0
O4 O 0.31125 0.24446 0.29677 0.0
O5 O 0.27993 0.20281 0.28876 0.0
O6 O 0.30364 0.2868 0.25999 0.0
O7 O 0.2785 0.26204 0.22645 0.0
C8 C 0.29564 0.28677 0.23407 0.0
C9 C 0.20999 0.20511 0.25162 0.0
O10 O 0.25612 0.22494 0.19514 0.0
O11 O 0.27792 0.20787 0.2327 0.0
O12 O 0.19497 0.25121 0.18925 0.0
O13 O 0.22878 0.29086 0.19845 0.0
O14 O 0.20182 0.2052 0.2257 0.0
O15 O 0.22713 0.22985 0.25929 0.0
O16 O 0.24983 0.26733 0.29078 0.0
O17 O 0.22723 0.28344 0.25326 0.0
C18 C 0.27155 0.20753 0.20575 0.0
C19 C 0.234 0.28434 0.28014 0.0
Dy20 Dy 0.77648 0.24557 0.2636 0.0
C21 C 0.69163 0.28016 0.19165 0.0
C22 C 0.81817 0.23598 0.30017 0.0
Dy23 Dy 0.73006 0.26569 0.22856 0.0
O24 O 0.81821 0.23405 0.27375 0.0
O25 O 0.79508 0.2431 0.30694 0.0
O26 O 0.7779 0.2113 0.23078 0.0
O27 O 0.73946 0.22327 0.23535 0.0
C28 C 0.75184 0.20894 0.22043 0.0
C29 C 0.75337 0.30019 0.27333 0.0
O30 O 0.70202 0.23809 0.25684 0.0
O31 O 0.73841 0.23367 0.28921 0.0
O32 O 0.71364 0.29884 0.20487 0.0
O33 O 0.6909 0.25317 0.19803 0.0
O34 O 0.72667 0.29617 0.2639 0.0
O35 O 0.76658 0.28771 0.25749 0.0
O36 O 0.80242 0.27957 0.23825 0.0
O37 O 0.76721 0.27278 0.20228 0.0
C38 C 0.71076 0.23099 0.2813 0.0
C39 C 0.79461 0.28184 0.21214 0.0
Dy40 Dy 0.73839 0.74516 0.26362 0.0
C41 C 0.79692 0.73658 0.16749 0.0
C42 C 0.72055 0.75773 0.31282 0.0
Dy43 Dy 0.77715 0.74711 0.21635 0.0
O44 O 0.70429 0.74029 0.29339 0.0
O45 O 0.74649 0.76802 0.30538 0.0
O46 O 0.70455 0.70651 0.24307 0.0
O47 O 0.74841 0.71215 0.23666 0.0
C48 C 0.72299 0.69747 0.22913 0.0
C49 C 0.7921 0.7947 0.25115 0.0
O50 O 0.74109 0.76468 0.19621 0.0
O51 O 0.71684 0.77109 0.23443 0.0
O52 O 0.81239 0.75339 0.1877 0.0
O53 O 0.77067 0.72562 0.17396 0.0
O54 O 0.81085 0.78547 0.23786 0.0
O55 O 0.76687 0.78 0.2431 0.0
O56 O 0.77462 0.72814 0.28384 0.0
O57 O 0.79771 0.72006 0.24538 0.0
C58 C 0.72045 0.77388 0.20783 0.0
C59 C 0.79463 0.71799 0.27216 0.0
Dy60 Dy 0.27371 0.72496 0.25157 0.0
C61 C 0.21301 0.81712 0.25121 0.0
C62 C 0.30108 0.6817 0.24221 0.0
Dy63 Dy 0.24133 0.77449 0.24251 0.0
O64 O 0.31362 0.70823 0.25276 0.0
O65 O 0.27354 0.67865 0.23769 0.0
O66 O 0.28079 0.73658 0.29702 0.0
O67 O 0.27744 0.76901 0.26916 0.0
C68 C 0.27861 0.76358 0.29414 0.0
C69 C 0.23648 0.73561 0.20009 0.0
O70 O 0.28385 0.79737 0.22805 0.0
O71 O 0.29963 0.75469 0.22196 0.0
O72 O 0.20097 0.79044 0.24078 0.0
O73 O 0.24061 0.82069 0.25596 0.0
O74 O 0.23449 0.76264 0.19702 0.0
O75 O 0.23754 0.73044 0.22511 0.0
O76 O 0.23119 0.70215 0.26601 0.0
O77 O 0.21545 0.74483 0.27221 0.0
C78 C 0.3023 0.7834 0.21882 0.0
C79 C 0.21274 0.7161 0.27526 0.0
Dy80 Dy 0.28237 0.73936 0.7512 0.0
C81 C 0.19179 0.77894 0.69197 0.0
C82 C 0.32427 0.72764 0.78597 0.0
Dy83 Dy 0.2319 0.75998 0.7233 0.0
O84 O 0.32332 0.72557 0.75943 0.0
O85 O 0.30216 0.736 0.79366 0.0
O86 O 0.28879 0.71666 0.71172 0.0
O87 O 0.24767 0.72058 0.71969 0.0
C88 C 0.2623 0.71315 0.7018 0.0
C89 C 0.25213 0.78443 0.77343 0.0
O90 O 0.20639 0.7207 0.74322 0.0
O91 O 0.24433 0.71309 0.77197 0.0
O92 O 0.21312 0.79596 0.70745 0.0
O93 O 0.1926 0.75141 0.69311 0.0
O94 O 0.22511 0.77874 0.76448 0.0
O95 O 0.26685 0.77881 0.75478 0.0
O96 O 0.30502 0.78104 0.73299 0.0
O97 O 0.26922 0.77749 0.6979 0.0
C98 C 0.21637 0.70764 0.76394 0.0
C99 C 0.29639 0.78755 0.70831 0.0
Dy100 Dy 0.23446 0.24553 0.76944 0.0
C101 C 0.30489 0.24395 0.67997 0.0
C102 C 0.20487 0.25323 0.81299 0.0
Dy103 Dy 0.27556 0.25344 0.72311 0.0
O104 O 0.1931 0.23914 0.78997 0.0
O105 O 0.23261 0.26298 0.81213 0.0
O106 O 0.22086 0.196 0.75976 0.0
O107 O 0.233 0.22561 0.72875 0.0
C108 C 0.22638 0.19868 0.73421 0.0
C109 C 0.28259 0.30139 0.75621 0.0
O110 O 0.24086 0.27155 0.70279 0.0
O111 O 0.21686 0.27623 0.74167 0.0
O112 O 0.31675 0.25915 0.70246 0.0
O113 O 0.27721 0.2341 0.68118 0.0
O114 O 0.29014 0.30287 0.73121 0.0
O115 O 0.27628 0.27482 0.76317 0.0
O116 O 0.26943 0.22781 0.78985 0.0
O117 O 0.29282 0.22254 0.75085 0.0
C118 C 0.22116 0.28118 0.71538 0.0
C119 C 0.2889 0.21793 0.7772 0.0
Dy120 Dy 0.77096 0.2251 0.74883 0.0
C121 C 0.70791 0.31515 0.74504 0.0
C122 C 0.80029 0.18298 0.74206 0.0
Dy123 Dy 0.73733 0.27317 0.73797 0.0
O124 O 0.81213 0.21071 0.74946 0.0
O125 O 0.77241 0.17819 0.73931 0.0
O126 O 0.77611 0.2367 0.79431 0.0
O127 O 0.7727 0.26877 0.76621 0.0
C128 C 0.77297 0.2633 0.79117 0.0
C129 C 0.73585 0.2354 0.69547 0.0
O130 O 0.78048 0.29713 0.72537 0.0
O131 O 0.79734 0.25512 0.71965 0.0
O132 O 0.69626 0.28784 0.73606 0.0
O133 O 0.73568 0.31963 0.74921 0.0
O134 O 0.73269 0.26202 0.69245 0.0
O135 O 0.7358 0.22965 0.72039 0.0
O136 O 0.72778 0.20109 0.76124 0.0
O137 O 0.71086 0.24302 0.76701 0.0
C138 C 0.7996 0.28378 0.71659 0.0
C139 C 0.70866 0.21438 0.77006 0.0
Dy140 Dy 0.77939 0.74437 0.77087 0.0
C141 C 0.70956 0.77521 0.68619 0.0
C142 C 0.8101 0.72006 0.80778 0.0
Dy143 Dy 0.73705 0.74924 0.7243 0.0
O144 O 0.8173 0.74769 0.80145 0.0
O145 O 0.78557 0.70618 0.79475 0.0
O146 O 0.80741 0.79005 0.76418 0.0
O147 O 0.78372 0.76318 0.73094 0.0
C148 C 0.79982 0.78861 0.73804 0.0
C149 C 0.71628 0.70469 0.75672 0.0
O150 O 0.76123 0.72285 0.70061 0.0
O151 O 0.78642 0.71117 0.73889 0.0
O152 O 0.70027 0.74779 0.69277 0.0
O153 O 0.73389 0.78799 0.70003 0.0
O154 O 0.70871 0.70381 0.73058 0.0
O155 O 0.73254 0.73003 0.76411 0.0
O156 O 0.75413 0.76945 0.79472 0.0
O157 O 0.73023 0.78261 0.75636 0.0
C158 C 0.77883 0.70816 0.71208 0.0
C159 C 0.73714 0.78485 0.7833 0.0
C160 C 0.94419 0.06424 0.54315 0.0
C161 C 0.97267 0.07463 0.46101 0.0
C162 C 0.94826 0.95536 0.45586 0.0
Mg163 Mg 1.00163 0.06629 0.51692 0.0
O164 O 0.98354 0.02538 0.51329 0.0
Mg165 Mg 0.94396 0.01194 0.49356 0.0
Mg166 Mg 1.00239 0.99834 0.49425 0.0
O167 O 0.02121 0.97119 0.47524 0.0
Mg168 Mg 1.00288 0.93031 0.47178 0.0
Mg169 Mg 0.06029 0.98415 0.49604 0.0
C170 C 0.0562 0.04126 0.53296 0.0
C171 C 0.05183 0.03729 0.45773 0.0
O172 O 0.93099 0.0425 0.52616 0.0
O173 O 0.97146 0.07636 0.5436 0.0
O174 O 0.95372 0.05041 0.46456 0.0
O175 O 0.9948 0.08462 0.47798 0.0
O176 O 0.04481 0.06333 0.5321 0.0
O177 O 0.04248 0.01505 0.52347 0.0
C178 C 0.95361 0.95875 0.53106 0.0
O179 O 0.9797 0.96354 0.52425 0.0
O180 O 0.93661 0.97388 0.52195 0.0
O181 O 0.07369 0.95291 0.46439 0.0
O182 O 0.03347 0.91935 0.44605 0.0
O183 O 0.04892 0.9464 0.52578 0.0
C184 C 0.06084 0.93118 0.44726 0.0
O185 O 0.00791 0.91264 0.51123 0.0
O186 O 0.95994 0.9335 0.45646 0.0
C187 C 0.02921 0.92266 0.52907 0.0
O188 O 0.9619 0.98165 0.46526 0.0
O189 O 0.02564 0.03301 0.46426 0.0
O190 O 0.06844 0.02187 0.46722 0.0
C191 C 0.43709 0.063 0.03528 0.0
C192 C 0.45113 0.05808 0.95011 0.0
C193 C 0.4512 0.94019 0.96956 0.0
Mg194 Mg 0.49234 0.06539 0.00384 0.0
O195 O 0.48153 0.02423 0.00787 0.0
Mg196 Mg 0.44068 0.00228 -0.00425 0.0
Mg197 Mg 0.50334 0.99617 0.99288 0.0
O198 O 0.52519 0.96801 0.97807 0.0
Mg199 Mg 0.51466 0.92693 0.98296 0.0
Mg200 Mg 0.56608 0.99012 0.99009 0.0
C201 C 0.5554 0.05174 0.01768 0.0
C202 C 0.54023 0.02789 0.94404 0.0
O203 O 0.42568 0.03691 0.02377 0.0
O204 O 0.4631 0.07765 0.03166 0.0
O205 O 0.43729 0.03278 0.95831 0.0
O206 O 0.47458 0.07335 0.96331 0.0
O207 O 0.53927 0.0699 0.01469 0.0
O208 O 0.54541 0.02339 0.01395 0.0
C209 C 0.46666 0.9647 0.04181 0.0
O210 O 0.49056 0.96913 0.03048 0.0
O211 O 0.44578 0.97485 0.03239 0.0
O212 O 0.58093 0.95549 0.96227 0.0
O213 O 0.54345 0.91482 0.95451 0.0
O214 O 0.57024 0.95969 0.02705 0.0
C215 C 0.56946 0.92941 0.95077 0.0
O216 O 0.5331 0.91903 0.02354 0.0
O217 O 0.46754 0.92228 0.97295 0.0
C218 C 0.55695 0.93455 0.03588 0.0
O219 O 0.46114 0.96866 0.97208 0.0
O220 O 0.51622 0.02344 0.95519 0.0
O221 O 0.56096 0.01761 0.95358 0.0
C222 C 0.9484 0.58029 0.01251 0.0
C223 C 0.97227 0.55621 0.93476 0.0
C224 C 0.94818 0.44537 0.97084 0.0
Mg225 Mg 1.00455 0.57049 0.99224 0.0
O226 O 0.98778 0.53147 0.00102 0.0
Mg227 Mg 0.94715 0.51228 0.98557 0.0
Mg228 Mg 1.00534 0.4989 0.99056 0.0
O229 O 0.02254 0.46605 0.98072 0.0
Mg230 Mg 1.00514 0.42871 0.99339 0.0
Mg231 Mg 0.06356 0.48496 -0.00477 0.0
C232 C 0.06198 0.55277 0.01292 0.0
C233 C 0.04736 0.51837 0.94174 0.0
O234 O 0.93558 0.55356 0.00364 0.0
O235 O 0.97572 0.5914 0.01189 0.0
O236 O 0.95367 0.53512 0.94465 0.0
O237 O 0.99434 0.57187 0.94937 0.0
O238 O 0.04922 0.57304 0.00686 0.0
O239 O 0.04845 0.52504 0.01152 0.0
C240 C 0.96275 0.47794 0.03836 0.0
O241 O 0.98709 0.47818 0.0291 0.0
O242 O 0.94441 0.48979 0.02611 0.0
O243 O 0.07329 0.44204 0.97712 0.0
O244 O 0.03151 0.40573 0.97356 0.0
O245 O 0.0589 0.4637 0.03687 0.0
C246 C 0.05849 0.41523 0.97017 0.0
O247 O 0.01717 0.42892 0.03631 0.0
O248 O 0.96038 0.42546 0.97924 0.0
C249 C 0.04075 0.44415 0.04887 0.0
O250 O 0.96237 0.47267 0.96961 0.0
O251 O 0.02349 0.51927 0.9515 0.0
O252 O 0.06542 0.50627 0.95411 0.0
C253 C 0.44476 0.56298 0.04186 0.0
C254 C 0.47269 0.57136 0.95886 0.0
C255 C 0.44729 0.45315 0.95485 0.0
Mg256 Mg 0.50165 0.56419 0.01502 0.0
O257 O 0.48355 0.52322 0.01227 0.0
Mg258 Mg 0.44381 0.50987 0.99275 0.0
Mg259 Mg 0.50202 0.49616 0.99263 0.0
O260 O 0.52045 0.46917 0.97288 0.0
Mg261 Mg 0.50221 0.42829 0.96914 0.0
Mg262 Mg 0.55991 0.48206 0.99291 0.0
C263 C 0.5567 0.53941 0.0297 0.0
C264 C 0.5506 0.53554 0.95562 0.0
O265 O 0.43137 0.54098 0.02521 0.0
O266 O 0.472 0.57506 0.04192 0.0
O267 O 0.45353 0.54755 0.96309 0.0
O268 O 0.49486 0.58168 0.97567 0.0
O269 O 0.54507 0.5613 0.02909 0.0
O270 O 0.54278 0.51295 0.02102 0.0
C271 C 0.45384 0.45673 0.03003 0.0
O272 O 0.47976 0.46127 0.02277 0.0
O273 O 0.43686 0.4721 0.02137 0.0
O274 O 0.57269 0.45106 0.96059 0.0
O275 O 0.53224 0.41752 0.94271 0.0
O276 O 0.54906 0.44405 0.02249 0.0
C277 C 0.55957 0.4294 0.94349 0.0
O278 O 0.50786 0.41037 0.00831 0.0
O279 O 0.45903 0.43135 0.95475 0.0
C280 C 0.52942 0.42028 0.02589 0.0
O281 O 0.46109 0.47934 0.96436 0.0
O282 O 0.52457 0.53101 0.96264 0.0
O283 O 0.56746 0.52008 0.9644 0.0
C284 C 0.94293 0.56733 0.53744 0.0
C285 C 0.95516 0.5616 0.45174 0.0
C286 C 0.95575 0.44427 0.47207 0.0
Mg287 Mg 0.9972 0.56958 0.50523 0.0
O288 O 0.98674 0.52857 0.50992 0.0
Mg289 Mg 0.9458 0.50664 0.4979 0.0
Mg290 Mg 0.00839 0.50009 0.49555 0.0
O291 O 0.02977 0.4716 0.4809 0.0
Mg292 Mg 0.01871 0.43051 0.48527 0.0
Mg293 Mg 0.07073 0.49348 0.49253 0.0
C294 C 0.0608 0.55632 0.5162 0.0
C295 C 0.04475 0.5305 0.44604 0.0
O296 O 0.93098 0.54189 0.5249 0.0
O297 O 0.96937 0.58135 0.53475 0.0
O298 O 0.94201 0.5361 0.45997 0.0
O299 O 0.97821 0.57752 0.46506 0.0
O300 O 0.04436 0.57408 0.51275 0.0
O301 O 0.05098 0.52785 0.51582 0.0
C302 C 0.97149 0.46964 0.54484 0.0
O303 O 0.99548 0.47365 0.53368 0.0
O304 O 0.95083 0.4799 0.53505 0.0
O305 O 0.08529 0.45797 0.46529 0.0
O306 O 0.0472 0.41805 0.4568 0.0
O307 O 0.07396 0.46395 0.53035 0.0
C308 C 0.07347 0.4321 0.45348 0.0
O309 O 0.03695 0.42311 0.52593 0.0
O310 O 0.97166 0.42593 0.47515 0.0
C311 C 0.06029 0.43884 0.53899 0.0
O312 O 0.96617 0.47263 0.47504 0.0
O313 O 0.02099 0.52636 0.45756 0.0
O314 O 0.06562 0.5203 0.4554 0.0
C315 C 0.45669 0.0723 0.53881 0.0
C316 C 0.47063 0.0621 0.45427 0.0
C317 C 0.45717 0.94836 0.47052 0.0
Mg318 Mg 0.50949 0.06971 0.50798 0.0
O319 O 0.49557 0.02927 0.51391 0.0
Mg320 Mg 0.45419 0.00995 0.50067 0.0
Mg321 Mg 0.5135 0.00149 0.49458 0.0
O322 O 0.53142 0.97378 0.47497 0.0
Mg323 Mg 0.51735 0.93328 0.48087 0.0
Mg324 Mg 0.57258 0.99317 0.48903 0.0
C325 C 0.56973 0.05479 0.51784 0.0
C326 C 0.54964 0.03561 0.44711 0.0
O327 O 0.44328 0.04648 0.52794 0.0
O328 O 0.48305 0.08507 0.535 0.0
O329 O 0.45409 0.03919 0.46377 0.0
O330 O 0.49418 0.07653 0.46741 0.0
O331 O 0.55556 0.07459 0.51638 0.0
O332 O 0.55717 0.02691 0.51456 0.0
C333 C 0.47817 0.9683 0.54294 0.0
O334 O 0.501 0.97198 0.53005 0.0
O335 O 0.45794 0.9807 0.53636 0.0
O336 O 0.58433 0.9568 0.46255 0.0
O337 O 0.54532 0.91745 0.45556 0.0
O338 O 0.57114 0.96377 0.52586 0.0
C339 C 0.57175 0.93055 0.45221 0.0
O340 O 0.53065 0.92686 0.52212 0.0
O341 O 0.47141 0.92859 0.4715 0.0
C342 C 0.55408 0.94129 0.53548 0.0
O343 O 0.46962 0.97619 0.47468 0.0
O344 O 0.52642 0.03115 0.45953 0.0
O345 O 0.56987 0.02312 0.45351 0.0
C346 C 0.20376 0.18725 0.29881 0.0
C347 C 0.19331 0.18528 0.27111 0.0
C348 C 0.18707 0.1708 0.31804 0.0
C349 C 0.11243 0.13645 0.33236 0.0
H350 H 0.14766 0.09414 0.38553 0.0
C351 C 0.04845 0.06177 0.41311 0.0
C352 C 0.06385 0.05971 0.43811 0.0
C353 C 0.06262 0.07823 0.39223 0.0
C354 C 0.13751 0.10625 0.3712 0.0
H355 H 0.15726 0.16434 0.24172 0.0
H356 H 0.12781 0.13573 0.27557 0.0
H357 H 0.17574 0.11912 0.34973 0.0
H358 H 0.10512 0.07514 0.46191 0.0
H359 H 0.12929 0.10496 0.42644 0.0
H360 H 0.07435 0.12417 0.35429 0.0
C361 C 0.14899 0.15 0.2823 0.0
C362 C 0.15363 0.12038 0.35052 0.0
C363 C 0.16594 0.16616 0.26292 0.0
C364 C 0.09285 0.07612 0.44267 0.0
C365 C 0.10679 0.0929 0.42216 0.0
C366 C 0.09631 0.12255 0.35334 0.0
C367 C 0.15935 0.15229 0.3101 0.0
C368 C 0.1414 0.13586 0.33101 0.0
C369 C 0.0923 0.09317 0.39621 0.0
C370 C 0.10878 0.10755 0.37327 0.0
H371 H 0.22467 0.20197 0.30574 0.0
H372 H 0.19556 0.17321 0.33933 0.0
H373 H 0.1025 0.14842 0.31768 0.0
H374 H 0.0261 0.04912 0.40905 0.0
H375 H 0.0507 0.07792 0.37257 0.0
C376 C 0.86466 0.22277 0.30873 0.0
C377 C 0.83983 0.22804 0.31903 0.0
C378 C 0.8835 0.21128 0.32528 0.0
C379 C 0.88081 0.16294 0.38202 0.0
H380 H 0.96415 0.1822 0.37966 0.0
C381 C 0.97898 0.12433 0.44074 0.0
C382 C 0.96591 0.09354 0.43922 0.0
C383 C 0.96729 0.14319 0.42458 0.0
C384 C 0.94091 0.17669 0.38055 0.0
H385 H 0.81599 0.22723 0.35501 0.0
H386 H 0.849 0.2069 0.38413 0.0
H387 H 0.93676 0.2138 0.35741 0.0
H388 H 0.93253 0.0581 0.41734 0.0
H389 H 0.91249 0.09092 0.38906 0.0
H390 H 0.88474 0.12582 0.40488 0.0
C391 C 0.85374 0.21148 0.36317 0.0
C392 C 0.92526 0.19468 0.36781 0.0
C393 C 0.83495 0.22321 0.3466 0.0
C394 C 0.9428 0.08176 0.41936 0.0
C395 C 0.93119 0.10055 0.40327 0.0
C396 C 0.89636 0.1449 0.39451 0.0
C397 C 0.87778 0.20467 0.35242 0.0
C398 C 0.895 0.18779 0.36823 0.0
C399 C 0.94245 0.13151 0.40666 0.0
C400 C 0.9265 0.15132 0.39358 0.0
H401 H 0.86897 0.22647 0.28753 0.0
H402 H 0.90167 0.20605 0.31634 0.0
H403 H 0.8575 0.15681 0.38241 0.0
H404 H 0.99687 0.1341 0.45578 0.0
H405 H 0.97648 0.16698 0.42748 0.0
C406 C 0.82797 0.83604 0.27782 0.0
C407 C 0.79907 0.82052 0.27086 0.0
C408 C 0.83483 0.85958 0.29751 0.0
C409 C 0.84356 0.91609 0.33236 0.0
H410 H 0.81541 0.89334 0.40286 0.0
C411 C 0.91011 0.97184 0.4281 0.0
C412 C 0.91868 0.94977 0.44274 0.0
C413 C 0.88514 0.96422 0.40999 0.0
C414 C 0.82304 0.90039 0.38324 0.0
H415 H 0.75452 0.81815 0.27792 0.0
H416 H 0.76666 0.85879 0.3133 0.0
H417 H 0.79215 0.86392 0.36135 0.0
H418 H 0.90615 0.90359 0.45294 0.0
H419 H 0.86295 0.8903 0.42159 0.0
H420 H 0.87604 0.95086 0.35426 0.0
C421 C 0.78392 0.85281 0.30337 0.0
C422 C 0.80965 0.88362 0.35946 0.0
C423 C 0.77704 0.82949 0.2833 0.0
C424 C 0.90026 0.9209 0.44149 0.0
C425 C 0.87525 0.91339 0.42372 0.0
C426 C 0.8569 0.93285 0.35607 0.0
C427 C 0.81292 0.86792 0.31078 0.0
C428 C 0.821 0.89029 0.33407 0.0
C429 C 0.8683 0.93454 0.4066 0.0
C430 C 0.84796 0.924 0.38193 0.0
H431 H 0.84534 0.82962 0.26847 0.0
H432 H 0.85741 0.87047 0.30316 0.0
H433 H 0.85235 0.92199 0.31292 0.0
H434 H 0.92387 0.99435 0.42889 0.0
H435 H 0.88012 0.98105 0.39727 0.0
C436 C 0.16702 0.82751 0.26326 0.0
C437 C 0.19722 0.83686 0.26318 0.0
C438 C 0.15261 0.84257 0.28008 0.0
C439 C 0.16733 0.88626 0.34531 0.0
H440 H 0.08954 0.89401 0.32974 0.0
C441 C 0.10718 0.93558 0.42513 0.0
C442 C 0.07778 0.92109 0.42661 0.0
C443 C 0.12241 0.92784 0.40406 0.0
C444 C 0.11121 0.89178 0.33442 0.0
H445 H 0.23586 0.87059 0.27867 0.0
H446 H 0.21065 0.89728 0.30764 0.0
H447 H 0.11481 0.87833 0.29287 0.0
H448 H 0.0416 0.88647 0.40742 0.0
H449 H 0.06831 0.87274 0.37103 0.0
H450 H 0.16357 0.89909 0.38693 0.0
C451 C 0.19814 0.87797 0.29521 0.0
C452 C 0.12569 0.88292 0.3133 0.0
C453 C 0.21254 0.86287 0.27844 0.0
C454 C 0.06419 0.89819 0.4069 0.0
C455 C 0.07941 0.89049 0.38585 0.0
C456 C 0.15286 0.89513 0.3664 0.0
C457 C 0.16819 0.86727 0.29705 0.0
C458 C 0.15378 0.87969 0.31858 0.0
C459 C 0.10858 0.90545 0.38401 0.0
C460 C 0.1245 0.89758 0.36128 0.0
H461 H 0.15473 0.80745 0.25172 0.0
H462 H 0.12955 0.83365 0.28111 0.0
H463 H 0.18874 0.88344 0.35022 0.0
H464 H 0.11834 0.9534 0.43987 0.0
H465 H 0.14484 0.93989 0.40311 0.0
C466 C 0.16963 0.81962 0.6795 0.0
C467 C 0.16872 0.78936 0.67751 0.0
C468 C 0.14725 0.82973 0.6671 0.0
C469 C 0.08986 0.81167 0.61139 0.0
H470 H 0.06646 0.87596 0.64721 0.0
C471 C 0.0196 0.87427 0.552 0.0
C472 C 0.03321 0.90489 0.55271 0.0
C473 C 0.02816 0.85637 0.57149 0.0
C474 C 0.0726 0.85785 0.63704 0.0
H475 H 0.14391 0.74582 0.66102 0.0
H476 H 0.10458 0.76359 0.63905 0.0
H477 H 0.09791 0.85095 0.67271 0.0
H478 H 0.06423 0.94124 0.57594 0.0
H479 H 0.07905 0.91016 0.60984 0.0
H480 H 0.06556 0.81938 0.57539 0.0
C481 C 0.12267 0.77947 0.6502 0.0
C482 C 0.09067 0.84363 0.65157 0.0
C483 C 0.14513 0.76932 0.66271 0.0
C484 C 0.05358 0.91766 0.57466 0.0
C485 C 0.06192 0.89985 0.59423 0.0
C486 C 0.07173 0.82586 0.59687 0.0
C487 C 0.12345 0.80978 0.65244 0.0
C488 C 0.10038 0.82117 0.63858 0.0
C489 C 0.05017 0.86888 0.5922 0.0
C490 C 0.06379 0.84982 0.60926 0.0
H491 H 0.18761 0.83555 0.69077 0.0
H492 H 0.14884 0.85331 0.66868 0.0
H493 H 0.09707 0.79455 0.60078 0.0
H494 H 1.0037 0.8638 0.53541 0.0
H495 H 0.01852 0.8326 0.56965 0.0
C496 C 0.21464 0.14439 0.72045 0.0
C497 C 0.22057 0.1741 0.71322 0.0
C498 C 0.20705 0.1213 0.70007 0.0
C499 C 0.20228 0.10629 0.62401 0.0
H500 H 0.12968 0.05013 0.6361 0.0
C501 C 0.10491 0.07451 0.54733 0.0
C502 C 0.08543 0.04625 0.54674 0.0
C503 C 0.13019 0.08126 0.56478 0.0
C504 C 0.15038 0.06497 0.63249 0.0
H505 H 0.22362 0.20306 0.67925 0.0
H506 H 0.21052 0.16331 0.64399 0.0
H507 H 0.15906 0.07947 0.67478 0.0
H508 H 0.07799 0.00211 0.56219 0.0
H509 H 0.122 0.0143 0.59354 0.0
H510 H 0.19204 0.09361 0.58127 0.0
C511 C 0.21234 0.1575 0.66516 0.0
C512 C 0.16728 0.08184 0.65472 0.0
C513 C 0.21976 0.1804 0.68542 0.0
C514 C 0.0927 0.0241 0.56231 0.0
C515 C 0.11779 0.03105 0.58025 0.0
C516 C 0.18523 0.08961 0.60175 0.0
C517 C 0.20533 0.12764 0.67218 0.0
C518 C 0.19254 0.10393 0.65048 0.0
C519 C 0.13621 0.06002 0.58232 0.0
C520 C 0.15836 0.07002 0.60566 0.0
H521 H 0.21525 0.13901 0.7418 0.0
H522 H 0.20185 0.09853 0.70614 0.0
H523 H 0.22205 0.12259 0.62019 0.0
H524 H 0.0999 0.09187 0.53531 0.0
H525 H 0.1438 0.10386 0.56611 0.0
C526 C 0.80023 0.13544 0.71765 0.0
C527 C 0.81584 0.1627 0.73069 0.0
C528 C 0.81391 0.11943 0.70101 0.0
C529 C 0.88518 0.11459 0.67956 0.0
H530 H 0.84317 0.09393 0.60796 0.0
C531 C 0.94175 0.0979 0.58324 0.0
C532 C 0.9279 0.07414 0.56448 0.0
C533 C 0.92737 0.1056 0.60492 0.0
C534 C 0.85502 0.09911 0.62793 0.0
H535 H 0.85826 0.1935 0.73852 0.0
H536 H 0.88219 0.16565 0.70943 0.0
H537 H 0.81976 0.11065 0.64552 0.0
H538 H 0.88775 0.04025 0.55356 0.0
H539 H 0.86267 0.05377 0.5915 0.0
H540 H 0.9207 0.1037 0.66169 0.0
C541 C 0.85946 0.15649 0.71206 0.0
C542 C 0.84158 0.1086 0.64951 0.0
C543 C 0.84577 0.17249 0.7287 0.0
C544 C 0.89905 0.05875 0.56755 0.0
C545 C 0.88465 0.06648 0.58929 0.0
C546 C 0.89863 0.10508 0.65796 0.0
C547 C 0.84342 0.13044 0.69716 0.0
C548 C 0.85666 0.1169 0.67545 0.0
C549 C 0.8988 0.08976 0.6084 0.0
C550 C 0.88385 0.09776 0.63179 0.0
H551 H 0.77711 0.12737 0.71891 0.0
H552 H 0.80112 0.09914 0.69018 0.0
H553 H 0.89723 0.12051 0.69939 0.0
H554 H 0.96391 0.11036 0.58146 0.0
H555 H 0.93864 0.12407 0.61896 0.0
C556 C 0.84245 0.82922 0.72645 0.0
C557 C 0.81612 0.80825 0.71821 0.0
C558 C 0.85911 0.84548 0.70694 0.0
C559 C 0.85388 0.87269 0.63819 0.0
H560 H 0.93413 0.87224 0.63488 0.0
C561 C 0.91351 0.91885 0.54606 0.0
C562 C 0.94225 0.93602 0.5506 0.0
C563 C 0.90008 0.90164 0.56656 0.0
C564 C 0.91189 0.87295 0.63569 0.0
H565 H 0.78643 0.78817 0.68324 0.0
H566 H 0.81485 0.81731 0.64944 0.0
H567 H 0.90666 0.84763 0.67175 0.0
H568 H 0.98012 0.94752 0.57951 0.0
H569 H 0.95635 0.91814 0.61602 0.0
H570 H 0.85885 0.89852 0.6029 0.0
C571 C 0.82274 0.82102 0.67089 0.0
C572 C 0.89617 0.85883 0.65681 0.0
C573 C 0.80643 0.80442 0.69025 0.0
C574 C 0.95795 0.93431 0.57551 0.0
C575 C 0.94426 0.91749 0.5964 0.0
C576 C 0.8696 0.88713 0.61741 0.0
C577 C 0.8494 0.84146 0.67896 0.0
C578 C 0.86689 0.8582 0.65798 0.0
C579 C 0.91478 0.90176 0.59248 0.0
C580 C 0.89869 0.88702 0.61549 0.0
H581 H 0.85056 0.83247 0.74785 0.0
H582 H 0.87951 0.86123 0.7137 0.0
H583 H 0.83147 0.87293 0.63883 0.0
H584 H 0.90106 0.91954 0.52687 0.0
H585 H 0.87778 0.88895 0.56229 0.0
C586 C 0.29307 0.16472 0.19578 0.0
C587 C 0.28539 0.19032 0.18715 0.0
C588 C 0.30804 0.14987 0.17902 0.0
C589 C 0.36182 0.16177 0.13039 0.0
H590 H 0.3298 0.08062 0.10165 0.0
C591 C 0.42426 0.10801 0.05507 0.0
C592 C 0.41947 0.07697 0.05289 0.0
C593 C 0.4074 0.12129 0.07105 0.0
C594 C 0.33959 0.10307 0.10984 0.0
H595 H 0.28788 0.22045 0.15411 0.0
H596 H 0.31495 0.19515 0.12541 0.0
H597 H 0.30173 0.10397 0.13051 0.0
H598 H 0.39337 0.03559 0.06646 0.0
H599 H 0.3653 0.05846 0.0956 0.0
H600 H 0.4002 0.16091 0.11139 0.0
C601 C 0.30876 0.18626 0.1449 0.0
C602 C 0.32319 0.11654 0.12626 0.0
C603 C 0.29309 0.20062 0.1613 0.0
C604 C 0.39754 0.05957 0.06747 0.0
C605 C 0.38117 0.07287 0.0841 0.0
C606 C 0.37856 0.14811 0.11462 0.0
C607 C 0.31647 0.16075 0.15358 0.0
C608 C 0.334 0.14613 0.13651 0.0
C609 C 0.3856 0.10406 0.08614 0.0
C610 C 0.36774 0.11852 0.10373 0.0
H611 H 0.28763 0.15625 0.2156 0.0
H612 H 0.31377 0.13034 0.18629 0.0
H613 H 0.37086 0.18452 0.13825 0.0
H614 H 0.4407 0.12214 0.04386 0.0
H615 H 0.41137 0.14518 0.07107 0.0
C616 C 0.84499 0.3103 0.20536 0.0
C617 C 0.81637 0.29769 0.19448 0.0
C618 C 0.8647 0.32864 0.18972 0.0
C619 C 0.86424 0.37911 0.13529 0.0
H620 H 0.94497 0.38065 0.13193 0.0
C621 C 0.95713 0.43167 0.06289 0.0
C622 C 0.95396 0.46061 0.06204 0.0
C623 C 0.94491 0.41314 0.08298 0.0
C624 C 0.92249 0.38048 0.13287 0.0
H625 H 0.78655 0.29229 0.15807 0.0
H626 H 0.82112 0.32425 0.13075 0.0
H627 H 0.91356 0.34201 0.15684 0.0
H628 H 0.93635 0.4935 0.0815 0.0
H629 H 0.91475 0.46097 0.11695 0.0
H630 H 0.87272 0.41693 0.11088 0.0
C631 C 0.82805 0.32041 0.15154 0.0
C632 C 0.90461 0.35848 0.14707 0.0
C633 C 0.80833 0.30209 0.16715 0.0
C634 C 0.93918 0.47124 0.08203 0.0
C635 C 0.92687 0.45269 0.10216 0.0
C636 C 0.88206 0.40107 0.12125 0.0
C637 C 0.85607 0.33457 0.16302 0.0
C638 C 0.87527 0.35747 0.14807 0.0
C639 C 0.92892 0.42321 0.10225 0.0
C640 C 0.91126 0.40182 0.11973 0.0
H641 H 0.85189 0.30706 0.22631 0.0
H642 H 0.8862 0.33937 0.19901 0.0
H643 H 0.84179 0.3791 0.13621 0.0
H644 H 0.96701 0.42255 0.0468 0.0
H645 H 0.94622 0.39031 0.08217 0.0
C646 C 0.67475 0.79086 0.19819 0.0
C647 C 0.70238 0.78987 0.19099 0.0
C648 C 0.65811 0.8063 0.1826 0.0
C649 C 0.66391 0.86929 0.13839 0.0
H650 H 0.58575 0.83073 0.1087 0.0
C651 C 0.60245 0.92989 0.06248 0.0
C652 C 0.57209 0.9209 0.0579 0.0
C653 C 0.61749 0.91452 0.0798 0.0
C654 C 0.60727 0.84238 0.11718 0.0
H655 H 0.73407 0.80498 0.16167 0.0
H656 H 0.70561 0.83277 0.13528 0.0
H657 H 0.61285 0.80323 0.13653 0.0
H658 H 0.53385 0.88892 0.06927 0.0
H659 H 0.55958 0.86343 0.10079 0.0
H660 H 0.65841 0.90878 0.12058 0.0
C661 C 0.6966 0.82113 0.15274 0.0
C662 C 0.62297 0.82628 0.13309 0.0
C663 C 0.71289 0.80502 0.16784 0.0
C664 C 0.55721 0.89661 0.07218 0.0
C665 C 0.57223 0.88162 0.0901 0.0
C666 C 0.64802 0.88564 0.12313 0.0
C667 C 0.66892 0.82196 0.15981 0.0
C668 C 0.65167 0.83937 0.14364 0.0
C669 C 0.60283 0.88982 0.09393 0.0
C670 C 0.61941 0.87251 0.11175 0.0
H671 H 0.66585 0.7795 0.21582 0.0
H672 H 0.63696 0.80651 0.18875 0.0
H673 H 0.6858 0.88028 0.14647 0.0
H674 H 0.6149 0.94811 0.0516 0.0
H675 H 0.64084 0.92167 0.08117 0.0
C676 C 0.22881 0.71927 0.15036 0.0
C677 C 0.23192 0.71242 0.17788 0.0
C678 C 0.2214 0.69656 0.12969 0.0
C679 C 0.18213 0.61772 0.12224 0.0
H680 H 0.1972 0.62847 0.04601 0.0
C681 C 0.10472 0.5445 0.04068 0.0
C682 C 0.09272 0.56231 0.02332 0.0
C683 C 0.13143 0.55647 0.05552 0.0
C684 C 0.19308 0.62493 0.06727 0.0
H685 H 0.23066 0.67678 0.20534 0.0
H686 H 0.21966 0.6375 0.16944 0.0
H687 H 0.22719 0.66315 0.08161 0.0
H688 H 0.10077 0.60517 0.00516 0.0
H689 H 0.1469 0.62606 0.03111 0.0
H690 H 0.14719 0.58062 0.10804 0.0
C691 C 0.22223 0.66019 0.16368 0.0
C692 C 0.21011 0.64488 0.08763 0.0
C693 C 0.22901 0.68277 0.18428 0.0
C694 C 0.10925 0.59109 0.01879 0.0
C695 C 0.13593 0.60296 0.03345 0.0
C696 C 0.16528 0.59777 0.10197 0.0
C697 C 0.21726 0.66664 0.13622 0.0
C698 C 0.20394 0.64227 0.11523 0.0
C699 C 0.14657 0.58634 0.05306 0.0
C700 C 0.16966 0.60198 0.07418 0.0
H701 H 0.23095 0.742 0.1449 0.0
H702 H 0.21737 0.70239 0.10883 0.0
H703 H 0.17641 0.61508 0.14317 0.0
H704 H 0.09257 0.52215 0.04441 0.0
H705 H 0.13932 0.54301 0.07024 0.0
C706 C 0.24714 0.80624 0.81959 0.0
C707 C 0.26476 0.80113 0.79926 0.0
C708 C 0.25946 0.82366 0.84341 0.0
C709 C 0.32069 0.88438 0.8672 0.0
H710 H 0.32042 0.85141 0.93889 0.0
C711 C 0.40832 0.8964 0.95982 0.0
C712 C 0.42015 0.92736 0.96112 0.0
C713 C 0.38081 0.88381 0.94692 0.0
C714 C 0.32027 0.8611 0.9191 0.0
H715 H 0.30886 0.80941 0.78796 0.0
H716 H 0.33018 0.84022 0.82914 0.0
H717 H 0.28829 0.82305 0.90053 0.0
H718 H 0.41112 0.96952 0.95251 0.0
H719 H 0.36306 0.94745 0.93003 0.0
H720 H 0.35382 0.92142 0.8848 0.0
C721 C 0.30696 0.83085 0.82669 0.0
C722 C 0.30184 0.84497 0.89728 0.0
C723 C 0.29478 0.81314 0.80324 0.0
C724 C 0.40282 0.94557 0.9516 0.0
C725 C 0.37528 0.93295 0.93867 0.0
C726 C 0.33885 0.90057 0.88893 0.0
C727 C 0.2894 0.83651 0.84677 0.0
C728 C 0.303 0.85598 0.87096 0.0
C729 C 0.36459 0.90193 0.93505 0.0
C730 C 0.33984 0.8885 0.9148 0.0
H731 H 0.22392 0.79703 0.81696 0.0
H732 H 0.24565 0.82768 0.85882 0.0
H733 H 0.32174 0.89327 0.84701 0.0
H734 H 0.42091 0.88173 0.96733 0.0
H735 H 0.37332 0.85983 0.94435 0.0
C736 C 0.15896 0.24907 0.83492 0.0
C737 C 0.18895 0.26085 0.83531 0.0
C738 C 0.14343 0.25968 0.85407 0.0
C739 C 0.15127 0.30851 0.91751 0.0
H740 H 0.08332 0.32705 0.88321 0.0
C741 C 0.10305 0.40124 0.95771 0.0
C742 C 0.07281 0.39423 0.95783 0.0
C743 C 0.11624 0.38107 0.94595 0.0
C744 C 0.10201 0.32166 0.89319 0.0
H745 H 0.22663 0.29157 0.8566 0.0
H746 H 0.19955 0.31079 0.88941 0.0
H747 H 0.10771 0.29675 0.85777 0.0
H748 H 0.03272 0.36045 0.94598 0.0
H749 H 0.05581 0.32561 0.92531 0.0
H750 H 0.14609 0.33484 0.95251 0.0
C751 C 0.18793 0.29298 0.87487 0.0
C752 C 0.1159 0.30412 0.8787 0.0
C753 C 0.20345 0.28213 0.85594 0.0
C754 C 0.05608 0.36661 0.9462 0.0
C755 C 0.06923 0.34663 0.93431 0.0
C756 C 0.13749 0.32634 0.93192 0.0
C757 C 0.15765 0.2825 0.87363 0.0
C758 C 0.14095 0.29773 0.89052 0.0
C759 C 0.09937 0.35375 0.93394 0.0
C760 C 0.11299 0.33335 0.9197 0.0
H761 H 0.14741 0.23242 0.81928 0.0
H762 H 0.12017 0.25076 0.85294 0.0
H763 H 0.1703 0.30363 0.92729 0.0
H764 H 0.11652 0.42226 0.96663 0.0
H765 H 0.13955 0.38713 0.94563 0.0
C766 C 0.6639 0.21002 0.79487 0.0
C767 C 0.68379 0.19656 0.78361 0.0
C768 C 0.64052 0.19303 0.80777 0.0
C769 C 0.60717 0.15443 0.85032 0.0
H770 H 0.5692 0.07371 0.82303 0.0
C771 C 0.56285 0.03886 0.90033 0.0
C772 C 0.54499 0.0456 0.91964 0.0
C773 C 0.57118 0.0576 0.87916 0.0
C774 C 0.57936 0.09632 0.83076 0.0
H775 H 0.69442 0.15463 0.77676 0.0
H776 H 0.65403 0.12525 0.79941 0.0
H777 H 0.60123 0.10705 0.79439 0.0
H778 H 0.52069 0.07644 0.93136 0.0
H779 H 0.53592 0.10996 0.89433 0.0
H780 H 0.58629 0.14318 0.88719 0.0
C781 C 0.65621 0.14883 0.79797 0.0
C782 C 0.59781 0.11534 0.81445 0.0
C783 C 0.67958 0.16576 0.78522 0.0
C784 C 0.53439 0.07074 0.91663 0.0
C785 C 0.54319 0.08992 0.89559 0.0
C786 C 0.58864 0.13538 0.86663 0.0
C787 C 0.63646 0.16225 0.80947 0.0
C788 C 0.61284 0.14418 0.82452 0.0
C789 C 0.56216 0.08377 0.87701 0.0
C790 C 0.57554 0.10577 0.85743 0.0
H791 H 0.66644 0.2337 0.79391 0.0
H792 H 0.62561 0.20398 0.81636 0.0
H793 H 0.6185 0.17649 0.85869 0.0
H794 H 0.57117 0.0195 0.90211 0.0
H795 H 0.58608 0.05243 0.86541 0.0
C796 C 0.85956 0.71961 0.82609 0.0
C797 C 0.83018 0.70475 0.82073 0.0
C798 C 0.87969 0.70366 0.8328 0.0
C799 C 0.88872 0.62763 0.82601 0.0
H800 H 0.94938 0.65565 0.88454 0.0
C801 C 0.93786 0.55427 0.89374 0.0
C802 C 0.96524 0.56653 0.90758 0.0
C803 C 0.927 0.57012 0.87387 0.0
C804 C 0.93312 0.64783 0.86757 0.0
H805 H 0.79839 0.66207 0.81969 0.0
H806 H 0.83338 0.63431 0.8323 0.0
H807 H 0.91791 0.68674 0.87136 0.0
H808 H 1.00469 0.60231 0.90798 0.0
H809 H 0.98579 0.62965 0.87307 0.0
H810 H 0.90315 0.58802 0.82325 0.0
C811 C 0.84104 0.65809 0.83048 0.0
C812 C 0.91494 0.66562 0.86017 0.0
C813 C 0.82097 0.67402 0.8237 0.0
C814 C 0.98323 0.59254 0.89817 0.0
C815 C 0.9724 0.60832 0.87822 0.0
C816 C 0.90688 0.60977 0.83348 0.0
C817 C 0.87068 0.67262 0.83433 0.0
C818 C 0.89199 0.6553 0.83994 0.0
C819 C 0.94347 0.59832 0.86746 0.0
C820 C 0.9287 0.61934 0.85491 0.0
H821 H 0.86718 0.7433 0.8237 0.0
H822 H 0.90239 0.71545 0.8357 0.0
H823 H 0.87162 0.61944 0.80983 0.0
H824 H 0.92364 0.53396 0.90012 0.0
H825 H 0.90466 0.5617 0.8658 0.0
C826 C 0.15773 0.28445 0.16197 0.0
C827 C 0.18698 0.29698 0.17059 0.0
C828 C 0.14038 0.30259 0.15282 0.0
C829 C 0.14414 0.37635 0.12642 0.0
H830 H 0.06694 0.36333 0.15074 0.0
C831 C 0.07642 0.45099 0.08961 0.0
C832 C 0.05025 0.43469 0.07563 0.0
C833 C 0.09097 0.43746 0.10876 0.0
C834 C 0.08849 0.36727 0.1439 0.0
H835 H 0.22141 0.33785 0.17567 0.0
H836 H 0.19128 0.36942 0.15974 0.0
H837 H 0.09738 0.33134 0.16598 0.0
H838 H 0.01648 0.39323 0.07403 0.0
H839 H 0.04214 0.3695 0.10689 0.0
H840 H 0.13529 0.41164 0.10385 0.0
C841 C 0.18165 0.3457 0.15985 0.0
C842 C 0.10581 0.34884 0.15242 0.0
C843 C 0.19892 0.32763 0.16896 0.0
C844 C 0.03688 0.40622 0.08409 0.0
C845 C 0.05159 0.3926 0.10306 0.0
C846 C 0.12693 0.39471 0.11798 0.0
C847 C 0.15211 0.33347 0.15211 0.0
C848 C 0.1337 0.35306 0.14352 0.0
C849 C 0.07966 0.40741 0.11406 0.0
C850 C 0.09883 0.39026 0.1264 0.0
H851 H 0.14803 0.26086 0.16318 0.0
H852 H 0.11778 0.2925 0.14652 0.0
H853 H 0.16536 0.3799 0.11889 0.0
H854 H 0.08694 0.47325 0.08402 0.0
H855 H 0.11218 0.44973 0.11767 0.0
C856 C 0.16744 0.673 0.76626 0.0
C857 C 0.19547 0.68597 0.77848 0.0
C858 C 0.14732 0.65319 0.78048 0.0
C859 C 0.1289 0.63658 0.84932 0.0
H860 H 0.08858 0.55702 0.82031 0.0
C861 C 0.07334 0.52339 0.89916 0.0
C862 C 0.05558 0.53355 0.91658 0.0
C863 C 0.08475 0.54038 0.87766 0.0
C864 C 0.09954 0.57928 0.82845 0.0
H865 H 0.2246 0.68829 0.81492 0.0
H866 H 0.1892 0.65402 0.83991 0.0
H867 H 0.12138 0.59073 0.79203 0.0
H868 H 0.03552 0.56883 0.92492 0.0
H869 H 0.05487 0.59829 0.8872 0.0
H870 H 0.10777 0.62523 0.88586 0.0
C871 C 0.18294 0.65915 0.81932 0.0
C872 C 0.11813 0.59848 0.81235 0.0
C873 C 0.20317 0.67859 0.80499 0.0
C874 C 0.04829 0.56011 0.91135 0.0
C875 C 0.05973 0.57713 0.88999 0.0
C876 C 0.11011 0.61763 0.86522 0.0
C877 C 0.15486 0.6465 0.80723 0.0
C878 C 0.13338 0.62699 0.82298 0.0
C879 C 0.0788 0.56787 0.87356 0.0
C880 C 0.09567 0.58867 0.85511 0.0
H881 H 0.161 0.67817 0.74575 0.0
H882 H 0.12571 0.64366 0.77086 0.0
H883 H 0.14031 0.65861 0.85777 0.0
H884 H 0.07927 0.50292 0.90282 0.0
H885 H 0.09966 0.53293 0.86539 0.0
C886 C 0.30719 0.20096 0.82207 0.0
C887 C 0.30669 0.201 0.79324 0.0
C888 C 0.32366 0.1852 0.8373 0.0
C889 C 0.35854 0.12278 0.83242 0.0
H890 H 0.40123 0.15913 0.90044 0.0
C891 C 0.41055 0.05741 0.91343 0.0
C892 C 0.43743 0.07223 0.92739 0.0
C893 C 0.39577 0.07234 0.89525 0.0
C894 C 0.38963 0.1486 0.88143 0.0
H895 H 0.32333 0.18378 0.75805 0.0
H896 H 0.35171 0.156 0.78457 0.0
H897 H 0.37364 0.18649 0.87288 0.0
H898 H 0.46998 0.11457 0.93192 0.0
H899 H 0.44436 0.14032 0.90058 0.0
H900 H 0.3744 0.08474 0.84121 0.0
C901 C 0.33932 0.16832 0.79542 0.0
C902 C 0.37348 0.16427 0.86567 0.0
C903 C 0.32313 0.18447 0.78017 0.0
C904 C 0.44941 0.10219 0.92174 0.0
C905 C 0.43451 0.11716 0.90385 0.0
C906 C 0.37439 0.10691 0.84842 0.0
C907 C 0.33999 0.16853 0.8243 0.0
C908 C 0.35762 0.15168 0.84088 0.0
C909 C 0.40717 0.1027 0.89066 0.0
C910 C 0.39029 0.11957 0.87319 0.0
H911 H 0.29491 0.21331 0.83304 0.0
H912 H 0.32324 0.18577 0.85939 0.0
H913 H 0.34652 0.11215 0.81362 0.0
H914 H 0.4004 0.03445 0.91719 0.0
H915 H 0.37478 0.06035 0.88565 0.0
C916 C 0.77606 0.3152 0.80715 0.0
C917 C 0.77571 0.28604 0.81346 0.0
C918 C 0.7816 0.33771 0.82775 0.0
C919 C 0.82171 0.38166 0.8678 0.0
H920 H 0.81161 0.37018 0.94485 0.0
C921 C 0.90054 0.40748 0.96722 0.0
C922 C 0.91703 0.43601 0.96181 0.0
C923 C 0.87296 0.39596 0.95419 0.0
C924 C 0.81433 0.37393 0.92338 0.0
H925 H 0.77957 0.25707 0.84634 0.0
H926 H 0.79119 0.29671 0.88236 0.0
H927 H 0.78044 0.33503 0.91029 0.0
H928 H 0.91623 0.47622 0.94114 0.0
H929 H 0.86786 0.45605 0.91835 0.0
H930 H 0.85661 0.41926 0.88059 0.0
C931 C 0.78607 0.30214 0.86159 0.0
C932 C 0.79659 0.35374 0.90361 0.0
C933 C 0.77981 0.27944 0.84094 0.0
C934 C 0.90421 0.45399 0.94541 0.0
C935 C 0.87652 0.44242 0.93234 0.0
C936 C 0.83931 0.4018 0.88747 0.0
C937 C 0.78798 0.33174 0.85508 0.0
C938 C 0.80112 0.35656 0.87565 0.0
C939 C 0.86128 0.41273 0.93546 0.0
C940 C 0.83688 0.39726 0.9155 0.0
H941 H 0.7735 0.32102 0.78615 0.0
H942 H 0.7824 0.36011 0.82203 0.0
H943 H 0.82614 0.38453 0.84654 0.0
H944 H 0.90957 0.39328 0.98024 0.0
H945 H 0.86197 0.37298 0.95704 0.0
C946 C 0.7235 0.79962 0.82966 0.0
C947 C 0.72272 0.80236 0.80107 0.0
C948 C 0.7079 0.81414 0.84598 0.0
C949 C 0.67189 0.87587 0.847 0.0
H950 H 0.62982 0.83261 0.90413 0.0
C951 C 0.61441 0.93182 0.92593 0.0
C952 C 0.5871 0.91548 0.93305 0.0
C953 C 0.63119 0.91857 0.90982 0.0
C954 C 0.64129 0.84501 0.88818 0.0
H955 H 0.70518 0.82329 0.76751 0.0
H956 H 0.67833 0.84868 0.79589 0.0
H957 H 0.65879 0.80906 0.87643 0.0
H958 H 0.55625 0.87208 0.92847 0.0
H959 H 0.58545 0.84908 0.90057 0.0
H960 H 0.65418 0.91174 0.85861 0.0
C961 C 0.69105 0.83534 0.80576 0.0
C962 C 0.65823 0.83159 0.87245 0.0
C963 C 0.70643 0.82063 0.78942 0.0
C964 C 0.57711 0.88548 0.92348 0.0
C965 C 0.594 0.87217 0.90758 0.0
C966 C 0.65516 0.88941 0.8629 0.0
C967 C 0.69125 0.83206 0.83427 0.0
C968 C 0.67372 0.84675 0.85153 0.0
C969 C 0.62134 0.88848 0.90052 0.0
C970 C 0.63948 0.87415 0.88367 0.0
H971 H 0.73567 0.78571 0.83943 0.0
H972 H 0.70892 0.81132 0.86786 0.0
H973 H 0.68364 0.8884 0.83127 0.0
H974 H 0.62295 0.95494 0.93285 0.0
H975 H 0.6522 0.93183 0.90508 0.0
C976 C 0.83799 0.73832 0.13897 0.0
C977 C 0.80853 0.72745 0.14273 0.0
C978 C 0.85014 0.72585 0.11814 0.0
C979 C 0.83885 0.65398 0.08266 0.0
H980 H 0.90363 0.69465 0.04319 0.0
C981 C 0.90033 0.58913 0.01953 0.0
C982 C 0.93066 0.59902 0.02302 0.0
C983 C 0.88338 0.60666 0.02924 0.0
C984 C 0.88561 0.68303 0.05416 0.0
H985 H 0.76807 0.69684 0.12666 0.0
H986 H 0.78928 0.67515 0.09004 0.0
H987 H 0.87647 0.72352 0.0675 0.0
H988 H 0.96699 0.63529 0.03912 0.0
H989 H 0.93731 0.66561 0.05677 0.0
H990 H 0.84853 0.61364 0.07041 0.0
C991 C 0.80306 0.69298 0.10338 0.0
C992 C 0.87002 0.69952 0.06794 0.0
C993 C 0.79093 0.70546 0.12422 0.0
C994 C 0.94368 0.62702 0.03613 0.0
C995 C 0.92668 0.64451 0.04601 0.0
C996 C 0.85443 0.63754 0.06898 0.0
C997 C 0.83297 0.70232 0.1008 0.0
C998 C 0.84685 0.68515 0.08276 0.0
C999 C 0.89635 0.6344 0.04283 0.0
C1000 C 0.87832 0.6519 0.05504 0.0
H1001 H 0.85196 0.75535 0.15299 0.0
H1002 H 0.87329 0.73335 0.11681 0.0
H1003 H 0.82147 0.64228 0.09434 0.0
H1004 H 0.88957 0.56783 0.0092 0.0
H1005 H 0.86007 0.59845 0.02614 0.0
C1006 C 0.34703 0.78656 0.19438 0.0
C1007 C 0.32727 0.80059 0.20508 0.0
C1008 C 0.37078 0.80299 0.18166 0.0
C1009 C 0.41431 0.88015 0.17402 0.0
H1010 H 0.42488 0.85088 0.1015 0.0
C1011 C 0.44452 0.95384 0.08575 0.0
C1012 C 0.46249 0.94737 0.06644 0.0
C1013 C 0.43747 0.93572 0.10759 0.0
C1014 C 0.42284 0.85905 0.12202 0.0
H1015 H 0.31719 0.84293 0.21106 0.0
H1016 H 0.35818 0.87135 0.18857 0.0
H1017 H 0.39317 0.81817 0.13079 0.0
H1018 H 0.48827 0.91774 0.05531 0.0
H1019 H 0.47518 0.88522 0.09345 0.0
H1020 H 0.44248 0.92163 0.16446 0.0
C1021 C 0.35565 0.84776 0.19041 0.0
C1022 C 0.40461 0.84036 0.13878 0.0
C1023 C 0.33192 0.83138 0.20303 0.0
C1024 C 0.47441 0.92317 0.07001 0.0
C1025 C 0.4669 0.9046 0.09171 0.0
C1026 C 0.43242 0.89883 0.15725 0.0
C1027 C 0.37529 0.83376 0.17952 0.0
C1028 C 0.39914 0.85119 0.16441 0.0
C1029 C 0.44793 0.91048 0.11038 0.0
C1030 C 0.43578 0.88885 0.13063 0.0
H1031 H 0.34417 0.76287 0.19573 0.0
H1032 H 0.3856 0.79163 0.1735 0.0
H1033 H 0.41103 0.88885 0.19397 0.0
H1034 H 0.43524 0.97252 0.08357 0.0
H1035 H 0.4225 0.94058 0.12142 0.0
C1036 C 0.75437 0.17898 0.17816 0.0
C1037 C 0.73774 0.18957 0.19652 0.0
C1038 C 0.74089 0.16061 0.15531 0.0
C1039 C 0.67455 0.10686 0.13086 0.0
H1040 H 0.68705 0.13431 0.05762 0.0
C1041 C 0.59857 0.09463 0.02973 0.0
C1042 C 0.58588 0.06383 0.02831 0.0
C1043 C 0.62481 0.10662 0.04517 0.0
C1044 C 0.68379 0.12614 0.07792 0.0
H1045 H 0.69431 0.18941 0.20581 0.0
H1046 H 0.67069 0.15662 0.1662 0.0
H1047 H 0.7178 0.16198 0.09714 0.0
H1048 H 0.59221 0.02121 0.03954 0.0
H1049 H 0.63783 0.04231 0.06685 0.0
H1050 H 0.63986 0.07185 0.11211 0.0
C1051 C 0.69408 0.16267 0.16942 0.0
C1052 C 0.70132 0.14186 0.10041 0.0
C1053 C 0.70753 0.18147 0.19191 0.0
C1054 C 0.60128 0.04507 0.04041 0.0
C1055 C 0.62738 0.05709 0.05607 0.0
C1056 C 0.65739 0.09091 0.10843 0.0
C1057 C 0.71066 0.15216 0.15098 0.0
C1058 C 0.69604 0.13288 0.12705 0.0
C1059 C 0.63865 0.08801 0.05959 0.0
C1060 C 0.66118 0.101 0.08188 0.0
H1061 H 0.77775 0.18513 0.18132 0.0
H1062 H 0.75398 0.15275 0.14121 0.0
H1063 H 0.67027 0.09958 0.1513 0.0
H1064 H 0.58741 0.10964 0.02031 0.0
H1065 H 0.63298 0.13057 0.04766 0.0
C1066 C 0.67156 0.66629 0.76693 0.0
C1067 C 0.69846 0.68573 0.77604 0.0
C1068 C 0.653 0.65148 0.78578 0.0
C1069 C 0.64035 0.65543 0.86004 0.0
H1070 H 0.59082 0.57579 0.84379 0.0
C1071 C 0.59114 0.57547 0.94127 0.0
C1072 C 0.56219 0.5588 0.93665 0.0
C1073 C 0.60434 0.59403 0.92151 0.0
C1074 C 0.60418 0.59824 0.8484 0.0
H1075 H 0.72765 0.70388 0.81181 0.0
H1076 H 0.69606 0.67708 0.84458 0.0
H1077 H 0.62206 0.60018 0.80951 0.0
H1078 H 0.52391 0.54917 0.90825 0.0
H1079 H 0.54744 0.58127 0.87295 0.0
H1080 H 0.62342 0.65269 0.8995 0.0
C1081 C 0.68864 0.67401 0.82303 0.0
C1082 C 0.62215 0.61227 0.82878 0.0
C1083 C 0.70698 0.6891 0.80422 0.0
C1084 C 0.54622 0.56197 0.91231 0.0
C1085 C 0.5597 0.5801 0.89213 0.0
C1086 C 0.62272 0.64123 0.87976 0.0
C1087 C 0.66108 0.6555 0.81415 0.0
C1088 C 0.64085 0.64091 0.83448 0.0
C1089 C 0.58906 0.59586 0.8964 0.0
C1090 C 0.60474 0.61236 0.87428 0.0
H1091 H 0.66432 0.66341 0.74532 0.0
H1092 H 0.63193 0.63767 0.77808 0.0
H1093 H 0.65374 0.67779 0.86499 0.0
H1094 H 0.60389 0.57341 0.95991 0.0
H1095 H 0.627 0.60576 0.9253 0.0
C1096 C 0.34262 0.71733 0.83252 0.0
C1097 C 0.34587 0.71904 0.80434 0.0
C1098 C 0.36121 0.7057 0.84932 0.0
C1099 C 0.43019 0.68439 0.85385 0.0
H1100 H 0.38844 0.62161 0.89713 0.0
C1101 C 0.44394 0.57612 0.91573 0.0
C1102 C 0.46669 0.58891 0.93567 0.0
C1103 C 0.43344 0.59388 0.89755 0.0
C1104 C 0.40039 0.639 0.88504 0.0
H1105 H 0.37195 0.71179 0.77178 0.0
H1106 H 0.40442 0.69139 0.80114 0.0
H1107 H 0.36227 0.65168 0.87179 0.0
H1108 H 0.49823 0.62988 0.95032 0.0
H1109 H 0.4797 0.66101 0.91831 0.0
H1110 H 0.46836 0.67123 0.86717 0.0
C1111 C 0.38763 0.69908 0.81028 0.0
C1112 C 0.38547 0.65648 0.87086 0.0
C1113 C 0.36893 0.71054 0.79347 0.0
C1114 C 0.48055 0.61941 0.93529 0.0
C1115 C 0.46998 0.63724 0.91699 0.0
C1116 C 0.44525 0.66701 0.86837 0.0
C1117 C 0.38343 0.69576 0.83821 0.0
C1118 C 0.40012 0.67917 0.85493 0.0
C1119 C 0.44548 0.62475 0.89889 0.0
C1120 C 0.43033 0.64386 0.88373 0.0
H1121 H 0.32509 0.72393 0.84139 0.0
H1122 H 0.35772 0.70367 0.87087 0.0
H1123 H 0.44198 0.70183 0.84174 0.0
H1124 H 0.43313 0.5526 0.91512 0.0
H1125 H 0.41492 0.58364 0.88332 0.0
C1126 C 0.31319 0.34972 0.77632 0.0
C1127 C 0.28734 0.32724 0.77544 0.0
C1128 C 0.31934 0.3726 0.79667 0.0
C1129 C 0.30176 0.38415 0.86701 0.0
H1130 H 0.36195 0.45669 0.86064 0.0
C1131 C 0.40674 0.47028 0.93168 0.0
C1132 C 0.41712 0.44749 0.94316 0.0
C1133 C 0.38028 0.4634 0.91571 0.0
C1134 C 0.34453 0.43708 0.86301 0.0
H1135 H 0.24594 0.31281 0.79227 0.0
H1136 H 0.25645 0.35278 0.8281 0.0
H1137 H 0.33378 0.43119 0.81972 0.0
H1138 H 0.40666 0.40032 0.94977 0.0
H1139 H 0.36127 0.38827 0.92192 0.0
H1140 H 0.31295 0.38975 0.91025 0.0
C1141 C 0.27257 0.35225 0.81386 0.0
C1142 C 0.32866 0.42214 0.8394 0.0
C1143 C 0.26663 0.32917 0.79364 0.0
C1144 C 0.39944 0.41828 0.94074 0.0
C1145 C 0.37309 0.41145 0.92502 0.0
C1146 C 0.31727 0.39937 0.89065 0.0
C1147 C 0.29946 0.37368 0.81625 0.0
C1148 C 0.30872 0.39431 0.84097 0.0
C1149 C 0.36379 0.43368 0.91122 0.0
C1150 C 0.3404 0.42467 0.88867 0.0
H1151 H 0.32934 0.34873 0.76222 0.0
H1152 H 0.34047 0.38832 0.79796 0.0
H1153 H 0.28636 0.36298 0.86921 0.0
H1154 H 0.41987 0.49308 0.93344 0.0
H1155 H 0.37354 0.48109 0.90566 0.0
C1156 C 0.70703 0.36181 0.77045 0.0
C1157 C 0.69187 0.33492 0.75649 0.0
C1158 C 0.69277 0.37711 0.78716 0.0
C1159 C 0.62073 0.38062 0.80759 0.0
H1160 H 0.66132 0.39959 0.87995 0.0
C1161 C 0.56231 0.39607 0.90322 0.0
C1162 C 0.57607 0.41948 0.92236 0.0
C1163 C 0.57699 0.38848 0.88169 0.0
C1164 C 0.64985 0.39486 0.85978 0.0
H1165 H 0.64967 0.30411 0.74712 0.0
H1166 H 0.62474 0.33069 0.7764 0.0
H1167 H 0.68555 0.38389 0.84253 0.0
H1168 H 0.61636 0.45287 0.93412 0.0
H1169 H 0.64191 0.43958 0.89649 0.0
H1170 H 0.58478 0.39099 0.82511 0.0
C1171 C 0.64756 0.34012 0.77441 0.0
C1172 C 0.66376 0.38596 0.83827 0.0
C1173 C 0.66183 0.32485 0.75765 0.0
C1174 C 0.60511 0.43463 0.91984 0.0
C1175 C 0.61979 0.42702 0.89827 0.0
C1176 C 0.60679 0.38953 0.82913 0.0
C1177 C 0.66313 0.36573 0.79023 0.0
C1178 C 0.64924 0.37836 0.81203 0.0
C1179 C 0.60576 0.4041 0.87878 0.0
C1180 C 0.62107 0.39631 0.85555 0.0
H1181 H 0.73022 0.3701 0.76981 0.0
H1182 H 0.70522 0.39711 0.79868 0.0
H1183 H 0.60909 0.37519 0.78754 0.0
H1184 H 0.54001 0.38382 0.90456 0.0
H1185 H 0.56578 0.37029 0.86733 0.0
C1186 C 0.64382 0.26813 0.16384 0.0
C1187 C 0.66873 0.28918 0.17542 0.0
C1188 C 0.62107 0.27746 0.15079 0.0
C1189 C 0.59056 0.34193 0.14875 0.0
H1190 H 0.56223 0.3147 0.0738 0.0
C1191 C 0.55458 0.41502 0.07099 0.0
C1192 C 0.53356 0.4025 0.04949 0.0
C1193 C 0.56256 0.39717 0.09069 0.0
C1194 C 0.56925 0.322 0.09499 0.0
H1195 H 0.68985 0.33624 0.18198 0.0
H1196 H 0.65042 0.35243 0.15927 0.0
H1197 H 0.59367 0.28981 0.09946 0.0
H1198 H 0.50267 0.36184 0.03306 0.0
H1199 H 0.51682 0.33053 0.06758 0.0
H1200 H 0.56727 0.37495 0.14397 0.0
C1201 C 0.64816 0.32881 0.16055 0.0
C1202 C 0.58733 0.30779 0.10961 0.0
C1203 C 0.67085 0.31954 0.17329 0.0
C1204 C 0.5191 0.37211 0.04929 0.0
C1205 C 0.52726 0.35415 0.06895 0.0
C1206 C 0.57243 0.35604 0.13421 0.0
C1207 C 0.6229 0.30793 0.14952 0.0
C1208 C 0.59916 0.31852 0.13617 0.0
C1209 C 0.54975 0.36636 0.08929 0.0
C1210 C 0.56266 0.34708 0.10677 0.0
H1211 H 0.64169 0.24457 0.16534 0.0
H1212 H 0.60186 0.26096 0.14226 0.0
H1213 H 0.59896 0.35022 0.16944 0.0
H1214 H 0.56592 0.43842 0.07188 0.0
H1215 H 0.58013 0.40726 0.10595 0.0
C1216 C 0.68647 0.65562 0.20388 0.0
C1217 C 0.71545 0.6716 0.20947 0.0
C1218 C 0.6789 0.63212 0.18417 0.0
C1219 C 0.66895 0.57618 0.14834 0.0
H1220 H 0.69169 0.60109 0.07662 0.0
C1221 C 0.59631 0.52276 0.05496 0.0
C1222 C 0.58673 0.54512 0.04174 0.0
C1223 C 0.62225 0.53006 0.07171 0.0
C1224 C 0.68557 0.59344 0.09653 0.0
H1225 H 0.7595 0.67479 0.19998 0.0
H1226 H 0.74603 0.63421 0.16449 0.0
H1227 H 0.71754 0.6296 0.11764 0.0
H1228 H 0.59828 0.59168 0.03265 0.0
H1229 H 0.6431 0.60443 0.06175 0.0
H1230 H 0.63532 0.54177 0.1274 0.0
C1231 C 0.72927 0.63981 0.17555 0.0
C1232 C 0.70047 0.60967 0.12003 0.0
C1233 C 0.73691 0.66309 0.19566 0.0
C1234 C 0.60491 0.57411 0.04304 0.0
C1235 C 0.63086 0.58132 0.05948 0.0
C1236 C 0.65409 0.55997 0.12491 0.0
C1237 C 0.70014 0.62429 0.16948 0.0
C1238 C 0.69102 0.60225 0.146 0.0
C1239 C 0.63905 0.55973 0.07516 0.0
C1240 C 0.66103 0.56964 0.09874 0.0
H1241 H 0.66954 0.66167 0.21432 0.0
H1242 H 0.6562 0.62093 0.17958 0.0
H1243 H 0.66161 0.56973 0.16821 0.0
H1244 H 0.58279 0.50014 0.05408 0.0
H1245 H 0.62818 0.51291 0.08334 0.0
C1246 C 0.34638 0.67054 0.22902 0.0
C1247 C 0.31626 0.66152 0.23001 0.0
C1248 C 0.36003 0.65495 0.21191 0.0
C1249 C 0.34273 0.60995 0.14736 0.0
H1250 H 0.42071 0.60196 0.16062 0.0
C1251 C 0.39951 0.55875 0.06582 0.0
C1252 C 0.4287 0.57325 0.06321 0.0
C1253 C 0.38516 0.56685 0.08743 0.0
C1254 C 0.39897 0.60423 0.15659 0.0
H1255 H 0.27705 0.62784 0.21589 0.0
H1256 H 0.30095 0.60022 0.18645 0.0
H1257 H 0.39701 0.61861 0.19823 0.0
H1258 H 0.46544 0.60818 0.08099 0.0
H1259 H 0.44027 0.62249 0.11834 0.0
H1260 H 0.34486 0.59617 0.10565 0.0
C1261 C 0.31396 0.61969 0.19835 0.0
C1262 C 0.38539 0.61367 0.17813 0.0
C1263 C 0.30032 0.63533 0.21539 0.0
C1264 C 0.44299 0.59645 0.08237 0.0
C1265 C 0.42866 0.60449 0.10397 0.0
C1266 C 0.35629 0.6005 0.12585 0.0
C1267 C 0.34376 0.63004 0.19556 0.0
C1268 C 0.35725 0.61701 0.17367 0.0
C1269 C 0.39969 0.58958 0.10691 0.0
C1270 C 0.38471 0.59795 0.13013 0.0
H1271 H 0.35914 0.69074 0.24005 0.0
H1272 H 0.383 0.66361 0.21014 0.0
H1273 H 0.32126 0.61285 0.14306 0.0
H1274 H 0.38784 0.54071 0.05151 0.0
H1275 H 0.36287 0.55484 0.08923 0.0
C1276 C 0.30262 0.30391 0.18676 0.0
C1277 C 0.31249 0.30647 0.21464 0.0
C1278 C 0.3195 0.32038 0.16768 0.0
C1279 C 0.39409 0.35607 0.15445 0.0
H1280 H 0.35861 0.39722 0.1004 0.0
C1281 C 0.45777 0.43212 0.07443 0.0
C1282 C 0.44246 0.43372 0.04927 0.0
C1283 C 0.44375 0.41515 0.09508 0.0
C1284 C 0.36884 0.38544 0.11499 0.0
H1285 H 0.34773 0.32839 0.24451 0.0
H1286 H 0.37754 0.35704 0.21091 0.0
H1287 H 0.33031 0.37195 0.13592 0.0
H1288 H 0.40175 0.41692 0.02484 0.0
H1289 H 0.3779 0.3862 0.05993 0.0
H1290 H 0.4325 0.36901 0.13306 0.0
C1291 C 0.35665 0.3423 0.20394 0.0
C1292 C 0.35259 0.37114 0.1355 0.0
C1293 C 0.3395 0.32612 0.22315 0.0
C1294 C 0.41388 0.41628 0.04423 0.0
C1295 C 0.40013 0.39899 0.06451 0.0
C1296 C 0.41035 0.37014 0.13364 0.0
C1297 C 0.34683 0.33948 0.17599 0.0
C1298 C 0.36491 0.35608 0.1553 0.0
C1299 C 0.41437 0.39927 0.09067 0.0
C1300 C 0.39778 0.38469 0.11341 0.0
H1301 H 0.28201 0.28875 0.17958 0.0
H1302 H 0.31147 0.31756 0.14626 0.0
H1303 H 0.40407 0.34444 0.1694 0.0
H1304 H 0.47981 0.44556 0.0788 0.0
H1305 H 0.45546 0.41586 0.11492 0.0
C1306 C 0.82028 0.68632 0.7038 0.0
C1307 C 0.79356 0.69105 0.69434 0.0
C1308 C 0.83562 0.67253 0.68663 0.0
C1309 C 0.82906 0.62056 0.62792 0.0
H1310 H 0.90812 0.66269 0.61745 0.0
C1311 C 0.89517 0.57386 0.55085 0.0
C1312 C 0.92547 0.58098 0.5554 0.0
C1313 C 0.87875 0.58715 0.56733 0.0
C1314 C 0.88632 0.65011 0.62042 0.0
H1315 H 0.76179 0.68415 0.65943 0.0
H1316 H 0.78816 0.6589 0.62975 0.0
H1317 H 0.88016 0.68484 0.64728 0.0
H1318 H 0.96213 0.60724 0.58146 0.0
H1319 H 0.93375 0.62905 0.61105 0.0
H1320 H 0.83528 0.58518 0.6023 0.0
C1321 C 0.79732 0.66635 0.65043 0.0
C1322 C 0.87018 0.6631 0.63744 0.0
C1323 C 0.78224 0.68084 0.66742 0.0
C1324 C 0.93887 0.60143 0.57716 0.0
C1325 C 0.92243 0.6142 0.59406 0.0
C1326 C 0.8454 0.6072 0.61139 0.0
C1327 C 0.82441 0.66245 0.65972 0.0
C1328 C 0.84134 0.64854 0.64135 0.0
C1329 C 0.89202 0.60753 0.58937 0.0
C1330 C 0.87438 0.62174 0.60723 0.0
H1331 H 0.82984 0.69404 0.72431 0.0
H1332 H 0.85634 0.66971 0.69444 0.0
H1333 H 0.80696 0.60866 0.63073 0.0
H1334 H 0.88411 0.55842 0.53412 0.0
H1335 H 0.85563 0.58167 0.56234 0.0
C1336 C 0.34098 0.82719 0.70316 0.0
C1337 C 0.3184 0.80374 0.69136 0.0
C1338 C 0.36361 0.84079 0.68781 0.0
C1339 C 0.38309 0.84843 0.61603 0.0
H1340 H 0.45862 0.88702 0.6525 0.0
C1341 C 0.47237 0.91704 0.55732 0.0
C1342 C 0.47332 0.94671 0.5641 0.0
C1343 C 0.46113 0.89496 0.57504 0.0
C1344 C 0.43778 0.8758 0.6421 0.0
H1345 H 0.30171 0.7752 0.65495 0.0
H1346 H 0.34193 0.79786 0.62835 0.0
H1347 H 0.42168 0.85569 0.67836 0.0
H1348 H 0.46569 0.97733 0.59498 0.0
H1349 H 0.44657 0.93862 0.62648 0.0
H1350 H 0.39946 0.86852 0.5798 0.0
C1351 C 0.34177 0.8068 0.64899 0.0
C1352 C 0.41646 0.85829 0.65687 0.0
C1353 C 0.31869 0.79381 0.66413 0.0
C1354 C 0.46523 0.9545 0.58962 0.0
C1355 C 0.45458 0.9325 0.6076 0.0
C1356 C 0.40462 0.86521 0.60118 0.0
C1357 C 0.36453 0.83051 0.66063 0.0
C1358 C 0.38849 0.84535 0.64423 0.0
C1359 C 0.45125 0.90254 0.59981 0.0
C1360 C 0.43171 0.87972 0.61432 0.0
H1361 H 0.34107 0.83502 0.72426 0.0
H1362 H 0.38021 0.85951 0.69728 0.0
H1363 H 0.36183 0.83933 0.60559 0.0
H1364 H 0.47786 0.91062 0.53738 0.0
H1365 H 0.45825 0.87187 0.56861 0.0
C1366 C 0.2085 0.30433 0.67173 0.0
C1367 C 0.20357 0.29822 0.69925 0.0
C1368 C 0.19246 0.32039 0.65642 0.0
C1369 C 0.12404 0.34487 0.65382 0.0
H1370 H 0.16254 0.39893 0.60146 0.0
C1371 C 0.0611 0.39701 0.57075 0.0
C1372 C 0.07414 0.42567 0.56226 0.0
C1373 C 0.076 0.38278 0.58941 0.0
C1374 C 0.15134 0.3842 0.61613 0.0
H1375 H 0.17731 0.30456 0.73196 0.0
H1376 H 0.14941 0.33262 0.70533 0.0
H1377 H 0.18999 0.37233 0.6298 0.0
H1378 H 0.11309 0.46207 0.56817 0.0
H1379 H 0.13869 0.43764 0.6008 0.0
H1380 H 0.0854 0.35705 0.64024 0.0
C1381 C 0.16565 0.32471 0.69547 0.0
C1382 C 0.16713 0.36851 0.63225 0.0
C1383 C 0.18183 0.30868 0.71087 0.0
C1384 C 0.10216 0.44005 0.57402 0.0
C1385 C 0.11707 0.4258 0.59262 0.0
C1386 C 0.10818 0.36051 0.63758 0.0
C1387 C 0.17076 0.33098 0.66797 0.0
C1388 C 0.15378 0.34841 0.6513 0.0
C1389 C 0.10454 0.39664 0.60023 0.0
C1390 C 0.12153 0.38043 0.61836 0.0
H1391 H 0.22488 0.29669 0.66183 0.0
H1392 H 0.19689 0.32415 0.63527 0.0
H1393 H 0.11276 0.32953 0.668 0.0
H1394 H 0.03964 0.38503 0.56222 0.0
H1395 H 0.06548 0.36034 0.59448 0.0
C1396 C 0.73127 0.22049 0.64555 0.0
C1397 C 0.73499 0.21345 0.67294 0.0
C1398 C 0.72714 0.19849 0.62447 0.0
C1399 C 0.69733 0.11774 0.61607 0.0
H1400 H 0.70581 0.13412 0.53959 0.0
C1401 C 0.61622 0.0464 0.53761 0.0
C1402 C 0.60128 0.06482 0.52432 0.0
C1403 C 0.64439 0.05835 0.54949 0.0
C1404 C 0.70371 0.12896 0.56088 0.0
H1405 H 0.7388 0.17852 0.69968 0.0
H1406 H 0.73388 0.14078 0.66315 0.0
H1407 H 0.73545 0.169 0.57519 0.0
H1408 H 0.60527 0.10888 0.50954 0.0
H1409 H 0.65391 0.12974 0.53045 0.0
H1410 H 0.66454 0.07879 0.60205 0.0
C1411 C 0.73315 0.1629 0.65776 0.0
C1412 C 0.72049 0.14903 0.58128 0.0
C1413 C 0.73644 0.18466 0.67878 0.0
C1414 C 0.61607 0.09434 0.52024 0.0
C1415 C 0.64419 0.1062 0.53191 0.0
C1416 C 0.68081 0.09765 0.59576 0.0
C1417 C 0.72713 0.16914 0.63042 0.0
C1418 C 0.71617 0.14454 0.6091 0.0
C1419 C 0.65799 0.0888 0.54807 0.0
C1420 C 0.68249 0.10398 0.568 0.0
H1421 H 0.73016 0.2426 0.64048 0.0
H1422 H 0.72218 0.20417 0.60376 0.0
H1423 H 0.69311 0.1134 0.63717 0.0
H1424 H 0.60543 0.02344 0.54076 0.0
H1425 H 0.65467 0.04433 0.56154 0.0
C1426 C 0.74947 0.32528 0.31807 0.0
C1427 C 0.76668 0.31757 0.29855 0.0
C1428 C 0.7624 0.34187 0.34209 0.0
C1429 C 0.82595 0.39711 0.36847 0.0
H1430 H 0.8232 0.3603 0.4385 0.0
C1431 C 0.91223 0.40151 0.46049 0.0
C1432 C 0.92468 0.43235 0.46337 0.0
C1433 C 0.88464 0.39023 0.44727 0.0
C1434 C 0.82372 0.37107 0.4192 0.0
H1435 H 0.81054 0.32079 0.28851 0.0
H1436 H 0.83311 0.3505 0.33011 0.0
H1437 H 0.79032 0.33515 0.39921 0.0
H1438 H 0.9167 0.4755 0.45717 0.0
H1439 H 0.86862 0.45568 0.43428 0.0
H1440 H 0.86037 0.43204 0.38749 0.0
C1441 C 0.80973 0.34357 0.3269 0.0
C1442 C 0.80491 0.35678 0.39688 0.0
C1443 C 0.79686 0.32658 0.30325 0.0
C1444 C 0.90791 0.4516 0.45513 0.0
C1445 C 0.88034 0.44032 0.44196 0.0
C1446 C 0.84446 0.41151 0.39074 0.0
C1447 C 0.7926 0.35135 0.3464 0.0
C1448 C 0.80688 0.3692 0.37116 0.0
C1449 C 0.86906 0.40957 0.43671 0.0
C1450 C 0.84441 0.39801 0.41599 0.0
H1451 H 0.7261 0.31832 0.31486 0.0
H1452 H 0.74895 0.34763 0.35706 0.0
H1453 H 0.82771 0.40693 0.34869 0.0
H1454 H 0.92437 0.38607 0.46693 0.0
H1455 H 0.87657 0.36639 0.44338 0.0
C1456 C 0.68043 0.75953 0.34145 0.0
C1457 C 0.70977 0.76935 0.33688 0.0
C1458 C 0.66875 0.77509 0.36032 0.0
C1459 C 0.68056 0.85141 0.38471 0.0
H1460 H 0.61646 0.81908 0.42824 0.0
C1461 C 0.61944 0.92464 0.43951 0.0
C1462 C 0.58922 0.91357 0.43855 0.0
C1463 C 0.63636 0.90692 0.43002 0.0
C1464 C 0.63425 0.82837 0.41602 0.0
H1465 H 0.7506 0.8012 0.34995 0.0
H1466 H 0.73015 0.82839 0.38308 0.0
H1467 H 0.64353 0.78631 0.40985 0.0
H1468 H 0.55295 0.87577 0.42558 0.0
H1469 H 0.58248 0.84518 0.40842 0.0
H1470 H 0.67071 0.89319 0.38995 0.0
C1471 C 0.71613 0.80894 0.37188 0.0
C1472 C 0.64982 0.80968 0.4057 0.0
C1473 C 0.72782 0.79331 0.35306 0.0
C1474 C 0.57619 0.8849 0.42681 0.0
C1475 C 0.59311 0.86725 0.41724 0.0
C1476 C 0.66496 0.87006 0.39495 0.0
C1477 C 0.68627 0.80072 0.37478 0.0
C1478 C 0.67274 0.82094 0.38949 0.0
C1479 C 0.62337 0.87786 0.41927 0.0
C1480 C 0.64127 0.85859 0.41019 0.0
H1481 H 0.66616 0.74102 0.32923 0.0
H1482 H 0.64563 0.76836 0.36203 0.0
H1483 H 0.69781 0.86061 0.37185 0.0
H1484 H 0.63019 0.9466 0.44852 0.0
H1485 H 0.65965 0.91566 0.43189 0.0
C1486 C 0.16764 0.71262 0.29922 0.0
C1487 C 0.18755 0.69875 0.2886 0.0
C1488 C 0.1435 0.69592 0.31124 0.0
C1489 C 0.10834 0.65723 0.35262 0.0
H1490 H 0.07066 0.57676 0.32442 0.0
C1491 C 0.06708 0.54206 0.40225 0.0
C1492 C 0.04895 0.54811 0.42159 0.0
C1493 C 0.07442 0.56074 0.38085 0.0
C1494 C 0.08065 0.59934 0.33232 0.0
H1495 H 0.19757 0.65643 0.2821 0.0
H1496 H 0.15591 0.62756 0.30335 0.0
H1497 H 0.10299 0.61053 0.2963 0.0
H1498 H 0.02312 0.57754 0.43317 0.0
H1499 H 0.03669 0.61099 0.39582 0.0
H1500 H 0.08715 0.64548 0.38922 0.0
C1501 C 0.15862 0.65123 0.30199 0.0
C1502 C 0.09926 0.61859 0.31635 0.0
C1503 C 0.18273 0.66787 0.29009 0.0
C1504 C 0.03708 0.5724 0.41842 0.0
C1505 C 0.04488 0.59152 0.39718 0.0
C1506 C 0.08962 0.63798 0.36858 0.0
C1507 C 0.13875 0.66504 0.31269 0.0
C1508 C 0.11437 0.64722 0.32689 0.0
C1509 C 0.0641 0.58612 0.37856 0.0
C1510 C 0.07675 0.60844 0.35906 0.0
H1511 H 0.17065 0.73637 0.29828 0.0
H1512 H 0.12853 0.70713 0.31932 0.0
H1513 H 0.11971 0.67915 0.36131 0.0
H1514 H 0.07634 0.52333 0.40414 0.0
H1515 H 0.08958 0.55624 0.36704 0.0
C1516 C 0.31376 0.17124 0.32148 0.0
C1517 C 0.32299 0.20187 0.318 0.0
C1518 C 0.33302 0.15629 0.33281 0.0
C1519 C 0.4023 0.16782 0.37424 0.0
H1520 H 0.399 0.08934 0.34318 0.0
C1521 C 0.47615 0.10214 0.42088 0.0
C1522 C 0.46044 0.07447 0.4293 0.0
C1523 C 0.46355 0.11716 0.4015 0.0
C1524 C 0.40023 0.1113 0.35192 0.0
H1525 H 0.35911 0.24118 0.32411 0.0
H1526 H 0.39292 0.21504 0.34377 0.0
H1527 H 0.36758 0.11766 0.32255 0.0
H1528 H 0.42062 0.0393 0.42167 0.0
H1529 H 0.39861 0.06564 0.38805 0.0
H1530 H 0.43446 0.16127 0.40393 0.0
C1531 C 0.37079 0.20258 0.338 0.0
C1532 C 0.38214 0.12741 0.34029 0.0
C1533 C 0.35147 0.21755 0.32679 0.0
C1534 C 0.43313 0.06077 0.4159 0.0
C1535 C 0.42057 0.07578 0.39648 0.0
C1536 C 0.42046 0.1518 0.38576 0.0
C1537 C 0.36189 0.17171 0.3407 0.0
C1538 C 0.38255 0.15556 0.35172 0.0
C1539 C 0.43513 0.10469 0.39013 0.0
C1540 C 0.41919 0.12315 0.37506 0.0
H1541 H 0.29186 0.1587 0.31486 0.0
H1542 H 0.32535 0.13262 0.33523 0.0
H1543 H 0.40293 0.18931 0.38368 0.0
H1544 H 0.49742 0.11314 0.4305 0.0
H1545 H 0.47542 0.13922 0.39652 0.0
C1546 C 0.664 0.77813 0.66021 0.0
C1547 C 0.69293 0.79138 0.6695 0.0
C1548 C 0.6472 0.79518 0.64785 0.0
C1549 C 0.65274 0.86575 0.61449 0.0
H1550 H 0.5753 0.85755 0.63681 0.0
C1551 C 0.59011 0.94425 0.57531 0.0
C1552 C 0.56382 0.92923 0.56075 0.0
C1553 C 0.6035 0.9295 0.59424 0.0
C1554 C 0.59691 0.86006 0.63051 0.0
H1555 H 0.72747 0.8322 0.67247 0.0
H1556 H 0.69826 0.86191 0.6511 0.0
H1557 H 0.60415 0.82552 0.65557 0.0
H1558 H 0.52892 0.88856 0.55745 0.0
H1559 H 0.55263 0.8627 0.59018 0.0
H1560 H 0.64564 0.89996 0.58933 0.0
C1561 C 0.68848 0.83845 0.65308 0.0
C1562 C 0.61329 0.84162 0.641 0.0
C1563 C 0.70519 0.82147 0.66536 0.0
C1564 C 0.54945 0.90055 0.56798 0.0
C1565 C 0.56294 0.88575 0.58686 0.0
C1566 C 0.6365 0.88419 0.60417 0.0
C1567 C 0.65921 0.82561 0.64461 0.0
C1568 C 0.64135 0.84432 0.63303 0.0
C1569 C 0.59084 0.89955 0.59884 0.0
C1570 C 0.60847 0.88156 0.61207 0.0
H1571 H 0.65412 0.75493 0.66329 0.0
H1572 H 0.62479 0.78466 0.64111 0.0
H1573 H 0.67409 0.86799 0.60763 0.0
H1574 H 0.60139 0.96663 0.57067 0.0
H1575 H 0.62471 0.94084 0.60383 0.0
C1576 C 0.69578 0.20928 0.32563 0.0
C1577 C 0.68847 0.21933 0.3001 0.0
C1578 C 0.67415 0.19643 0.3424 0.0
C1579 C 0.6003 0.15236 0.33519 0.0
H1580 H 0.60927 0.15788 0.41464 0.0
C1581 C 0.55204 0.08707 0.43537 0.0
C1582 C 0.55497 0.05893 0.42755 0.0
C1583 C 0.56031 0.11069 0.41851 0.0
C1584 C 0.60603 0.15651 0.39247 0.0
H1585 H 0.65302 0.22581 0.27297 0.0
H1586 H 0.61545 0.20313 0.30222 0.0
H1587 H 0.6406 0.19549 0.38907 0.0
H1588 H 0.56834 0.03279 0.39629 0.0
H1589 H 0.58329 0.07434 0.3666 0.0
H1590 H 0.56676 0.1125 0.3386 0.0
C1591 C 0.6378 0.20493 0.30905 0.0
C1592 C 0.6241 0.17784 0.3779 0.0
C1593 C 0.65936 0.21777 0.29232 0.0
C1594 C 0.56562 0.05435 0.4024 0.0
C1595 C 0.57385 0.07798 0.38542 0.0
C1596 C 0.58234 0.13094 0.34975 0.0
C1597 C 0.64496 0.19349 0.33388 0.0
C1598 C 0.62212 0.17523 0.34918 0.0
C1599 C 0.57191 0.10648 0.3937 0.0
C1600 C 0.58587 0.13223 0.37846 0.0
H1601 H 0.71803 0.21046 0.33229 0.0
H1602 H 0.68019 0.18744 0.36136 0.0
H1603 H 0.59845 0.14978 0.31301 0.0
H1604 H 0.54515 0.09129 0.4553 0.0
H1605 H 0.55886 0.1325 0.42539 0.0
C1606 C 0.83399 0.6907 0.2782 0.0
C1607 C 0.81255 0.70205 0.28935 0.0
C1608 C 0.8501 0.67512 0.29427 0.0
C1609 C 0.84868 0.63374 0.35902 0.0
H1610 H 0.92986 0.64266 0.34998 0.0
C1611 C 0.91265 0.56106 0.41756 0.0
C1612 C 0.94105 0.57493 0.42868 0.0
C1613 C 0.89774 0.57553 0.39912 0.0
C1614 C 0.90724 0.63991 0.35296 0.0
H1615 H 0.79177 0.70574 0.32671 0.0
H1616 H 0.81965 0.67897 0.35447 0.0
H1617 H 0.90291 0.67021 0.3218 0.0
H1618 H 0.97614 0.61493 0.42777 0.0
H1619 H 0.95037 0.63992 0.39573 0.0
H1620 H 0.85304 0.60388 0.39045 0.0
C1621 C 0.8239 0.68173 0.33317 0.0
C1622 C 0.8916 0.65558 0.33648 0.0
C1623 C 0.80793 0.69739 0.31717 0.0
C1624 C 0.95439 0.60332 0.41975 0.0
C1625 C 0.93952 0.61773 0.4012 0.0
C1626 C 0.86425 0.61796 0.37535 0.0
C1627 C 0.84523 0.67016 0.32204 0.0
C1628 C 0.86203 0.65294 0.3393 0.0
C1629 C 0.91067 0.60439 0.39096 0.0
C1630 C 0.89387 0.62079 0.37275 0.0
H1631 H 0.83828 0.69366 0.25692 0.0
H1632 H 0.86603 0.66645 0.28469 0.0
H1633 H 0.82596 0.63063 0.36177 0.0
H1634 H 0.90145 0.53929 0.42379 0.0
H1635 H 0.87584 0.56408 0.39143 0.0
C1636 C 0.28713 0.7797 0.34395 0.0
C1637 C 0.28277 0.78648 0.31656 0.0
C1638 C 0.29422 0.80233 0.3647 0.0
C1639 C 0.32978 0.88241 0.37148 0.0
H1640 H 0.32109 0.86951 0.44855 0.0
C1641 C 0.41112 0.95618 0.44908 0.0
C1642 C 0.42572 0.93826 0.46357 0.0
C1643 C 0.3832 0.94381 0.43673 0.0
C1644 C 0.32331 0.87368 0.42708 0.0
H1645 H 0.28141 0.82189 0.28951 0.0
H1646 H 0.29134 0.86083 0.32555 0.0
H1647 H 0.29004 0.83433 0.41394 0.0
H1648 H 0.42143 0.89481 0.47982 0.0
H1649 H 0.37312 0.87328 0.45828 0.0
H1650 H 0.36388 0.92075 0.38441 0.0
C1651 C 0.29023 0.83834 0.33116 0.0
C1652 C 0.30573 0.85342 0.40725 0.0
C1653 C 0.28398 0.81589 0.31045 0.0
C1654 C 0.41083 0.90894 0.46826 0.0
C1655 C 0.38294 0.89671 0.45619 0.0
C1656 C 0.34708 0.90271 0.39122 0.0
C1657 C 0.29663 0.8321 0.35842 0.0
C1658 C 0.30982 0.85674 0.37924 0.0
C1659 C 0.36951 0.9135 0.43898 0.0
C1660 C 0.34511 0.89773 0.41921 0.0
H1661 H 0.28632 0.75715 0.3492 0.0
H1662 H 0.29938 0.79663 0.38535 0.0
H1663 H 0.33394 0.88574 0.35022 0.0
H1664 H 0.42205 0.97895 0.44538 0.0
H1665 H 0.37319 0.95735 0.42381 0.0
C1666 C 0.20223 0.31878 0.28736 0.0
C1667 C 0.22051 0.30223 0.29856 0.0
C1668 C 0.18752 0.33364 0.30428 0.0
C1669 C 0.18602 0.3622 0.37618 0.0
H1670 H 0.1068 0.35979 0.3522 0.0
C1671 C 0.12031 0.43129 0.43304 0.0
C1672 C 0.09082 0.41783 0.43569 0.0
C1673 C 0.13659 0.41761 0.41669 0.0
C1674 C 0.12883 0.36058 0.35939 0.0
H1675 H 0.23793 0.2891 0.33678 0.0
H1676 H 0.21234 0.31504 0.36627 0.0
H1677 H 0.1343 0.3354 0.32375 0.0
H1678 H 0.0556 0.37907 0.42286 0.0
H1679 H 0.08382 0.35539 0.39457 0.0
H1680 H 0.18032 0.38708 0.41205 0.0
C1681 C 0.20949 0.31665 0.34429 0.0
C1682 C 0.1448 0.34684 0.34283 0.0
C1683 C 0.22417 0.30166 0.32732 0.0
C1684 C 0.07816 0.39029 0.42137 0.0
C1685 C 0.09439 0.37671 0.40494 0.0
C1686 C 0.17007 0.37613 0.3927 0.0
C1687 C 0.1906 0.33255 0.33301 0.0
C1688 C 0.17367 0.34739 0.35091 0.0
C1689 C 0.12389 0.3901 0.40232 0.0
C1690 C 0.14117 0.37549 0.38461 0.0
H1691 H 0.19882 0.31995 0.26537 0.0
H1692 H 0.17367 0.34603 0.29473 0.0
H1693 H 0.2082 0.36337 0.3831 0.0
H1694 H 0.13094 0.45245 0.44368 0.0
H1695 H 0.1591 0.42886 0.41502 0.0
C1696 C 0.35098 0.24133 0.66139 0.0
C1697 C 0.32069 0.23421 0.65863 0.0
C1698 C 0.36562 0.22688 0.64432 0.0
C1699 C 0.35312 0.15442 0.61086 0.0
H1700 H 0.42573 0.187 0.57936 0.0
C1701 C 0.41026 0.08173 0.55087 0.0
C1702 C 0.44058 0.08924 0.55425 0.0
C1703 C 0.39519 0.10016 0.56246 0.0
C1704 C 0.40562 0.1776 0.58834 0.0
H1705 H 0.28194 0.20876 0.63461 0.0
H1706 H 0.30758 0.18352 0.60478 0.0
H1707 H 0.40016 0.22058 0.59898 0.0
H1708 H 0.47886 0.12092 0.57365 0.0
H1709 H 0.45245 0.15256 0.59462 0.0
H1710 H 0.35885 0.11153 0.60123 0.0
C1711 C 0.31994 0.19991 0.62027 0.0
C1712 C 0.39095 0.1968 0.59933 0.0
C1713 C 0.30535 0.2144 0.63724 0.0
C1714 C 0.45548 0.11473 0.57048 0.0
C1715 C 0.44039 0.13299 0.58227 0.0
C1716 C 0.36786 0.13525 0.60013 0.0
C1717 C 0.35005 0.20513 0.62445 0.0
C1718 C 0.36464 0.18532 0.61074 0.0
C1719 C 0.41016 0.12624 0.57787 0.0
C1720 C 0.39434 0.14663 0.58891 0.0
H1721 H 0.36321 0.25664 0.67774 0.0
H1722 H 0.38887 0.23119 0.64795 0.0
H1723 H 0.33313 0.14504 0.62009 0.0
H1724 H 0.3982 0.06232 0.53831 0.0
H1725 H 0.37189 0.09449 0.55854 0.0
C1726 C 0.84467 0.28807 0.69232 0.0
C1727 C 0.82462 0.30156 0.70323 0.0
C1728 C 0.86834 0.30504 0.6798 0.0
C1729 C 0.91151 0.38267 0.6738 0.0
H1730 H 0.92454 0.35492 0.60153 0.0
C1731 C 0.9486 0.45918 0.58848 0.0
C1732 C 0.96658 0.45221 0.5694 0.0
C1733 C 0.93993 0.44053 0.60964 0.0
C1734 C 0.92177 0.3627 0.62199 0.0
H1735 H 0.81396 0.34352 0.70977 0.0
H1736 H 0.85486 0.37288 0.68773 0.0
H1737 H 0.8915 0.32166 0.62939 0.0
H1738 H 0.99085 0.42117 0.55816 0.0
H1739 H 0.97505 0.38785 0.59518 0.0
H1740 H 0.94055 0.42424 0.66574 0.0
C1741 C 0.85258 0.34929 0.68919 0.0
C1742 C 0.90276 0.34367 0.63792 0.0
C1743 C 0.82892 0.33237 0.70158 0.0
C1744 C 0.97704 0.42702 0.5727 0.0
C1745 C 0.96791 0.40796 0.59373 0.0
C1746 C 0.93044 0.40167 0.65787 0.0
C1747 C 0.87252 0.33584 0.6781 0.0
C1748 C 0.89654 0.35389 0.66352 0.0
C1749 C 0.94874 0.41426 0.61201 0.0
C1750 C 0.93483 0.39226 0.63136 0.0
H1751 H 0.84207 0.26439 0.69332 0.0
H1752 H 0.88339 0.29407 0.67152 0.0
H1753 H 0.90766 0.39093 0.69373 0.0
H1754 H 0.94039 0.47858 0.58647 0.0
H1755 H 0.92489 0.44583 0.62316 0.0
C1756 C 0.22081 0.69606 0.66687 0.0
C1757 C 0.25025 0.69998 0.67445 0.0
C1758 C 0.20889 0.68338 0.64119 0.0
C1759 C 0.19228 0.6702 0.58103 0.0
H1760 H 0.19758 0.59024 0.56393 0.0
C1761 C 0.10488 0.59648 0.50927 0.0
C1762 C 0.09212 0.56963 0.52095 0.0
C1763 C 0.13307 0.61241 0.51804 0.0
C1764 C 0.19609 0.61267 0.56821 0.0
H1765 H 0.2905 0.69374 0.66137 0.0
H1766 H 0.26923 0.67056 0.61622 0.0
H1767 H 0.23041 0.62106 0.60032 0.0
H1768 H 0.09949 0.5367 0.54868 0.0
H1769 H 0.14806 0.56516 0.56526 0.0
H1770 H 0.15655 0.66142 0.55105 0.0
C1771 C 0.2556 0.67777 0.63017 0.0
C1772 C 0.21508 0.63038 0.58884 0.0
C1773 C 0.26768 0.69093 0.6559 0.0
C1774 C 0.10884 0.55753 0.53957 0.0
C1775 C 0.13683 0.5738 0.54886 0.0
C1776 C 0.1733 0.65257 0.56059 0.0
C1777 C 0.22609 0.67401 0.62262 0.0
C1778 C 0.2122 0.65868 0.59636 0.0
C1779 C 0.14868 0.60219 0.53926 0.0
C1780 C 0.17395 0.62301 0.55492 0.0
H1781 H 0.20682 0.70236 0.68096 0.0
H1782 H 0.18592 0.68009 0.63616 0.0
H1783 H 0.18996 0.69216 0.58622 0.0
H1784 H 0.09257 0.60585 0.49429 0.0
H1785 H 0.14187 0.63371 0.50954 0.0
loop_
_geom_bond_atom_site_label_1
_geom_bond_atom_site_label_2
_geom_bond_distance
_geom_bond_site_symmetry_2
_ccdc_geom_bond_type
Dy0 O4 2.398 . S
Dy0 O5 2.491 . S
Dy0 O6 2.403 . S
Dy0 O7 2.664 . S
Dy0 O11 2.326 . S
Dy0 O15 2.310 . S
Dy0 O16 2.351 . S
C1 O12 1.185 . S
C1 O13 1.355 . S
C2 O4 1.185 . S
C2 O5 1.355 . S
Dy3 O7 2.310 . S
Dy3 O10 2.351 . S
Dy3 O12 2.398 . S
Dy3 O13 2.491 . S
Dy3 O14 2.403 . S
Dy3 O15 2.664 . S
Dy3 O17 2.326 . S
O4 Dy0 2.398 . S
O4 C2 1.185 . S
O5 Dy0 2.491 . S
O5 C2 1.355 . S
O6 Dy0 2.403 . S
O6 C8 1.254 . S
O7 Dy0 2.664 . S
O7 Dy3 2.310 . S
O7 C8 1.268 . S
C8 O6 1.254 . S
C8 O7 1.268 . S
C9 O14 1.254 . S
C9 O15 1.268 . S
O10 Dy3 2.351 . S
O10 C18 1.249 . S
O11 Dy0 2.326 . S
O11 C18 1.267 . S
O12 C1 1.185 . S
O12 Dy3 2.398 . S
O13 C1 1.355 . S
O13 Dy3 2.491 . S
O14 Dy3 2.403 . S
O14 C9 1.254 . S
O15 Dy0 2.310 . S
O15 Dy3 2.664 . S
O15 C9 1.268 . S
O16 Dy0 2.351 . S
O16 C19 1.249 . S
O17 Dy3 2.326 . S
O17 C19 1.267 . S
C18 O10 1.249 . S
C18 O11 1.267 . S
C19 O16 1.249 . S
C19 O17 1.267 . S
Dy20 O24 2.398 . S
Dy20 O25 2.491 . S
Dy20 O26 2.403 . S
Dy20 O27 2.664 . S
Dy20 O31 2.326 . S
Dy20 O35 2.310 . S
Dy20 O36 2.351 . S
C21 O32 1.185 . S
C21 O33 1.355 . S
C22 O24 1.185 . S
C22 O25 1.355 . S
Dy23 O27 2.310 . S
Dy23 O30 2.351 . S
Dy23 O32 2.398 . S
Dy23 O33 2.491 . S
Dy23 O34 2.403 . S
Dy23 O35 2.664 . S
Dy23 O37 2.326 . S
O24 Dy20 2.398 . S
O24 C22 1.185 . S
O25 Dy20 2.491 . S
O25 C22 1.355 . S
O26 Dy20 2.403 . S
O26 C28 1.254 . S
O27 Dy20 2.664 . S
O27 Dy23 2.310 . S
O27 C28 1.268 . S
C28 O26 1.254 . S
C28 O27 1.268 . S
C29 O34 1.254 . S
C29 O35 1.268 . S
O30 Dy23 2.351 . S
O30 C38 1.249 . S
O31 Dy20 2.326 . S
O31 C38 1.267 . S
O32 C21 1.185 . S
O32 Dy23 2.398 . S
O33 C21 1.355 . S
O33 Dy23 2.491 . S
O34 Dy23 2.403 . S
O34 C29 1.254 . S
O35 Dy20 2.310 . S
O35 Dy23 2.664 . S
O35 C29 1.268 . S
O36 Dy20 2.351 . S
O36 C39 1.249 . S
O37 Dy23 2.326 . S
O37 C39 1.267 . S
C38 O30 1.249 . S
C38 O31 1.267 . S
C39 O36 1.249 . S
C39 O37 1.267 . S
Dy40 O44 2.398 . S
Dy40 O45 2.491 . S
Dy40 O46 2.403 . S
Dy40 O47 2.664 . S
Dy40 O51 2.326 . S
Dy40 O55 2.310 . S
Dy40 O56 2.351 . S
C41 O52 1.185 . S
C41 O53 1.355 . S
C42 O44 1.185 . S
C42 O45 1.355 . S
Dy43 O47 2.310 . S
Dy43 O50 2.351 . S
Dy43 O52 2.398 . S
Dy43 O53 2.491 . S
Dy43 O54 2.403 . S
Dy43 O55 2.664 . S
Dy43 O57 2.326 . S
O44 Dy40 2.398 . S
O44 C42 1.185 . S
O45 Dy40 2.491 . S
O45 C42 1.355 . S
O46 Dy40 2.403 . S
O46 C48 1.254 . S
O47 Dy40 2.664 . S
O47 Dy43 2.310 . S
O47 C48 1.268 . S
C48 O46 1.254 . S
C48 O47 1.268 . S
C49 O54 1.254 . S
C49 O55 1.268 . S
O50 Dy43 2.351 . S
O50 C58 1.249 . S
O51 Dy40 2.326 . S
O51 C58 1.267 . S
O52 C41 1.185 . S
O52 Dy43 2.398 . S
O53 C41 1.355 . S
O53 Dy43 2.491 . S
O54 Dy43 2.403 . S
O54 C49 1.254 . S
O55 Dy40 2.310 . S
O55 Dy43 2.664 . S
O55 C49 1.268 . S
O56 Dy40 2.351 . S
O56 C59 1.249 . S
O57 Dy43 2.326 . S
O57 C59 1.267 . S
C58 O50 1.249 . S
C58 O51 1.267 . S
C59 O56 1.249 . S
C59 O57 1.267 . S
Dy60 O64 2.398 . S
Dy60 O65 2.491 . S
Dy60 O66 2.403 . S
Dy60 O67 2.664 . S
Dy60 O71 2.326 . S
Dy60 O75 2.310 . S
Dy60 O76 2.351 . S
C61 O72 1.185 . S
C61 O73 1.355 . S
C62 O64 1.185 . S
C62 O65 1.355 . S
Dy63 O67 2.310 . S
Dy63 O70 2.351 . S
Dy63 O72 2.398 . S
Dy63 O73 2.491 . S
Dy63 O74 2.403 . S
Dy63 O75 2.664 . S
Dy63 O77 2.326 . S
O64 Dy60 2.398 . S
O64 C62 1.185 . S
O65 Dy60 2.491 . S
O65 C62 1.355 . S
O66 Dy60 2.403 . S
O66 C68 1.254 . S
O67 Dy60 2.664 . S
O67 Dy63 2.310 . S
O67 C68 1.268 . S
C68 O66 1.254 . S
C68 O67 1.268 . S
C69 O74 1.254 . S
C69 O75 1.268 . S
O70 Dy63 2.351 . S
O70 C78 1.249 . S
O71 Dy60 2.326 . S
O71 C78 1.267 . S
O72 C61 1.185 . S
O72 Dy63 2.398 . S
O73 C61 1.355 . S
O73 Dy63 2.491 . S
O74 Dy63 2.403 . S
O74 C69 1.254 . S
O75 Dy60 2.310 . S
O75 Dy63 2.664 . S
O75 C69 1.268 . S
O76 Dy60 2.351 . S
O76 C79 1.249 . S
O77 Dy63 2.326 . S
O77 C79 1.267 . S
C78 O70 1.249 . S
C78 O71 1.267 . S
C79 O76 1.249 . S
C79 O77 1.267 . S
Dy80 O84 2.398 . S
Dy80 O85 2.491 . S
Dy80 O86 2.403 . S
Dy80 O87 2.664 . S
Dy80 O91 2.326 . S
Dy80 O95 2.310 . S
Dy80 O96 2.351 . S
C81 O92 1.185 . S
C81 O93 1.355 . S
C82 O84 1.185 . S
C82 O85 1.355 . S
Dy83 O87 2.310 . S
Dy83 O90 2.351 . S
Dy83 O92 2.398 . S
Dy83 O93 2.491 . S
Dy83 O94 2.403 . S
Dy83 O95 2.664 . S
Dy83 O97 2.326 . S
O84 Dy80 2.398 . S
O84 C82 1.185 . S
O85 Dy80 2.491 . S
O85 C82 1.355 . S
O86 Dy80 2.403 . S
O86 C88 1.254 . S
O87 Dy80 2.664 . S
O87 Dy83 2.310 . S
O87 C88 1.268 . S
C88 O86 1.254 . S
C88 O87 1.268 . S
C89 O94 1.254 . S
C89 O95 1.268 . S
O90 Dy83 2.351 . S
O90 C98 1.249 . S
O91 Dy80 2.326 . S
O91 C98 1.267 . S
O92 C81 1.185 . S
O92 Dy83 2.398 . S
O93 C81 1.355 . S
O93 Dy83 2.491 . S
O94 Dy83 2.403 . S
O94 C89 1.254 . S
O95 Dy80 2.310 . S
O95 Dy83 2.664 . S
O95 C89 1.268 . S
O96 Dy80 2.351 . S
O96 C99 1.249 . S
O97 Dy83 2.326 . S
O97 C99 1.267 . S
C98 O90 1.249 . S
C98 O91 1.267 . S
C99 O96 1.249 . S
C99 O97 1.267 . S
Dy100 O104 2.398 . S
Dy100 O105 2.491 . S
Dy100 O106 2.403 . S
Dy100 O107 2.664 . S
Dy100 O111 2.326 . S
Dy100 O115 2.310 . S
Dy100 O116 2.351 . S
C101 O112 1.185 . S
C101 O113 1.355 . S
C102 O104 1.185 . S
C102 O105 1.355 . S
Dy103 O107 2.310 . S
Dy103 O110 2.351 . S
Dy103 O112 2.398 . S
Dy103 O113 2.491 . S
Dy103 O114 2.403 . S
Dy103 O115 2.664 . S
Dy103 O117 2.326 . S
O104 Dy100 2.398 . S
O104 C102 1.185 . S
O105 Dy100 2.491 . S
O105 C102 1.355 . S
O106 Dy100 2.403 . S
O106 C108 1.254 . S
O107 Dy100 2.664 . S
O107 Dy103 2.310 . S
O107 C108 1.268 . S
C108 O106 1.254 . S
C108 O107 1.268 . S
C109 O114 1.254 . S
C109 O115 1.268 . S
O110 Dy103 2.351 . S
O110 C118 1.249 . S
O111 Dy100 2.326 . S
O111 C118 1.267 . S
O112 C101 1.185 . S
O112 Dy103 2.398 . S
O113 C101 1.355 . S
O113 Dy103 2.491 . S
O114 Dy103 2.403 . S
O114 C109 1.254 . S
O115 Dy100 2.310 . S
O115 Dy103 2.664 . S
O115 C109 1.268 . S
O116 Dy100 2.351 . S
O116 C119 1.249 . S
O117 Dy103 2.326 . S
O117 C119 1.267 . S
C118 O110 1.249 . S
C118 O111 1.267 . S
C119 O116 1.249 . S
C119 O117 1.267 . S
Dy120 O124 2.398 . S
Dy120 O125 2.491 . S
Dy120 O126 2.403 . S
Dy120 O127 2.664 . S
Dy120 O131 2.326 . S
Dy120 O135 2.310 . S
Dy120 O136 2.351 . S
C121 O132 1.185 . S
C121 O133 1.355 . S
C122 O124 1.185 . S
C122 O125 1.355 . S
Dy123 O127 2.310 . S
Dy123 O130 2.351 . S
Dy123 O132 2.398 . S
Dy123 O133 2.491 . S
Dy123 O134 2.403 . S
Dy123 O135 2.664 . S
Dy123 O137 2.326 . S
O124 Dy120 2.398 . S
O124 C122 1.185 . S
O125 Dy120 2.491 . S
O125 C122 1.355 . S
O126 Dy120 2.403 . S
O126 C128 1.254 . S
O127 Dy120 2.664 . S
O127 Dy123 2.310 . S
O127 C128 1.268 . S
C128 O126 1.254 . S
C128 O127 1.268 . S
C129 O134 1.254 . S
C129 O135 1.268 . S
O130 Dy123 2.351 . S
O130 C138 1.249 . S
O131 Dy120 2.326 . S
O131 C138 1.267 . S
O132 C121 1.185 . S
O132 Dy123 2.398 . S
O133 C121 1.355 . S
O133 Dy123 2.491 . S
O134 Dy123 2.403 . S
O134 C129 1.254 . S
O135 Dy120 2.310 . S
O135 Dy123 2.664 . S
O135 C129 1.268 . S
O136 Dy120 2.351 . S
O136 C139 1.249 . S
O137 Dy123 2.326 . S
O137 C139 1.267 . S
C138 O130 1.249 . S
C138 O131 1.267 . S
C139 O136 1.249 . S
C139 O137 1.267 . S
Dy140 O144 2.398 . S
Dy140 O145 2.491 . S
Dy140 O146 2.403 . S
Dy140 O147 2.664 . S
Dy140 O151 2.326 . S
Dy140 O155 2.310 . S
Dy140 O156 2.351 . S
C141 O152 1.185 . S
C141 O153 1.355 . S
C142 O144 1.185 . S
C142 O145 1.355 . S
Dy143 O147 2.310 . S
Dy143 O150 2.351 . S
Dy143 O152 2.398 . S
Dy143 O153 2.491 . S
Dy143 O154 2.403 . S
Dy143 O155 2.664 . S
Dy143 O157 2.326 . S
O144 Dy140 2.398 . S
O144 C142 1.185 . S
O145 Dy140 2.491 . S
O145 C142 1.355 . S
O146 Dy140 2.403 . S
O146 C148 1.254 . S
O147 Dy140 2.664 . S
O147 Dy143 2.310 . S
O147 C148 1.268 . S
C148 O146 1.254 . S
C148 O147 1.268 . S
C149 O154 1.254 . S
C149 O155 1.268 . S
O150 Dy143 2.351 . S
O150 C158 1.249 . S
O151 Dy140 2.326 . S
O151 C158 1.267 . S
O152 C141 1.185 . S
O152 Dy143 2.398 . S
O153 C141 1.355 . S
O153 Dy143 2.491 . S
O154 Dy143 2.403 . S
O154 C149 1.254 . S
O155 Dy140 2.310 . S
O155 Dy143 2.664 . S
O155 C149 1.268 . S
O156 Dy140 2.351 . S
O156 C159 1.249 . S
O157 Dy143 2.326 . S
O157 C159 1.267 . S
C158 O150 1.249 . S
C158 O151 1.267 . S
C159 O156 1.249 . S
C159 O157 1.267 . S
C160 O172 1.241 . S
C160 O173 1.280 . S
C161 O174 1.277 . S
C161 O175 1.245 . S
C162 O186 1.247 . S
C162 O188 1.289 . S
Mg163 O164 1.926 . S
Mg163 O173 1.984 . S
Mg163 O175 1.988 . S
Mg163 O176 2.061 1_655 S
O164 Mg163 1.926 . S
O164 Mg165 1.986 . S
O164 Mg166 1.917 1_655 S
Mg165 O164 1.986 . S
Mg165 O172 2.042 . S
Mg165 O174 2.041 . S
Mg165 O180 2.038 1_545 S
Mg165 O188 2.238 1_545 S
Mg166 O164 1.917 1_455 S
Mg166 O167 1.917 1_545 S
Mg166 O177 2.106 . S
Mg166 O179 2.079 1_445 S
Mg166 O188 2.106 1_445 S
Mg166 O189 2.079 . S
O167 Mg166 1.917 1_565 S
O167 Mg168 1.926 . S
O167 Mg169 1.986 . S
Mg168 O167 1.926 . S
Mg168 O182 1.984 . S
Mg168 O185 1.988 . S
Mg168 O186 2.061 1_455 S
Mg169 O167 1.986 . S
Mg169 O177 2.238 1_565 S
Mg169 O181 2.042 . S
Mg169 O183 2.041 . S
Mg169 O190 2.038 1_565 S
C170 O176 1.247 . S
C170 O177 1.289 . S
C171 O189 1.245 . S
C171 O190 1.274 . S
O172 C160 1.241 . S
O172 Mg165 2.042 . S
O173 C160 1.280 . S
O173 Mg163 1.984 . S
O174 C161 1.277 . S
O174 Mg165 2.041 . S
O175 C161 1.245 . S
O175 Mg163 1.988 . S
O176 Mg163 2.061 1_455 S
O176 C170 1.247 . S
O177 Mg166 2.106 . S
O177 Mg169 2.238 1_545 S
O177 C170 1.289 . S
C178 O179 1.245 . S
C178 O180 1.274 . S
O179 Mg166 2.079 1_665 S
O179 C178 1.245 . S
O180 Mg165 2.038 1_565 S
O180 C178 1.274 . S
O181 Mg169 2.042 . S
O181 C184 1.241 . S
O182 Mg168 1.984 . S
O182 C184 1.280 . S
O183 Mg169 2.041 . S
O183 C187 1.277 . S
C184 O181 1.241 . S
C184 O182 1.280 . S
O185 Mg168 1.988 . S
O185 C187 1.245 . S
O186 C162 1.247 . S
O186 Mg168 2.061 1_655 S
C187 O183 1.277 . S
C187 O185 1.245 . S
O188 C162 1.289 . S
O188 Mg165 2.238 1_565 S
O188 Mg166 2.106 1_665 S
O189 Mg166 2.079 . S
O189 C171 1.245 . S
O190 Mg169 2.038 1_545 S
O190 C171 1.274 . S
C191 O203 1.241 . S
C191 O204 1.280 . S
C192 O205 1.277 . S
C192 O206 1.245 . S
C193 O217 1.247 . S
C193 O219 1.289 . S
Mg194 O195 1.926 . S
Mg194 O204 1.984 . S
Mg194 O206 1.988 1_554 S
Mg194 O207 2.061 . S
O195 Mg194 1.926 . S
O195 Mg196 1.980 1_554 S
O195 Mg197 1.917 . S
Mg196 O195 1.980 1_556 S
Mg196 O203 2.017 1_556 S
Mg196 O205 2.071 . S
Mg196 O211 2.009 1_546 S
Mg196 O219 2.259 1_545 S
Mg197 O195 1.917 . S
Mg197 O198 1.917 1_544 S
Mg197 O208 2.106 . S
Mg197 O210 2.079 1_545 S
Mg197 O219 2.106 1_544 S
Mg197 O220 2.079 1_554 S
O198 Mg197 1.917 1_566 S
O198 Mg199 1.926 . S
O198 Mg200 1.986 1_556 S
Mg199 O198 1.926 . S
Mg199 O213 1.984 . S
Mg199 O216 1.988 1_556 S
Mg199 O217 2.061 . S
Mg200 O198 1.986 1_554 S
Mg200 O208 2.238 1_565 S
Mg200 O212 2.042 1_554 S
Mg200 O214 2.041 . S
Mg200 O221 2.038 1_564 S
C201 O207 1.247 . S
C201 O208 1.289 . S
C202 O220 1.245 . S
C202 O221 1.274 . S
O203 C191 1.241 . S
O203 Mg196 2.017 1_554 S
O204 C191 1.280 . S
O204 Mg194 1.984 . S
O205 C192 1.277 . S
O205 Mg196 2.071 . S
O206 C192 1.245 . S
O206 Mg194 1.988 1_556 S
O207 Mg194 2.061 . S
O207 C201 1.247 . S
O208 Mg197 2.106 . S
O208 Mg200 2.238 1_545 S
O208 C201 1.289 . S
C209 O210 1.245 . S
C209 O211 1.274 . S
O210 Mg197 2.079 1_565 S
O210 C209 1.245 . S
O211 Mg196 2.009 1_564 S
O211 C209 1.274 . S
O212 Mg200 2.042 1_556 S
O212 C215 1.241 . S
O213 Mg199 1.984 . S
O213 C215 1.280 . S
O214 Mg200 2.041 . S
O214 C218 1.277 . S
C215 O212 1.241 . S
C215 O213 1.280 . S
O216 Mg199 1.988 1_554 S
O216 C218 1.245 . S
O217 C193 1.247 . S
O217 Mg199 2.061 . S
C218 O214 1.277 . S
C218 O216 1.245 . S
O219 C193 1.289 . S
O219 Mg196 2.259 1_565 S
O219 Mg197 2.106 1_566 S
O220 Mg197 2.079 1_556 S
O220 C202 1.245 . S
O221 Mg200 2.038 1_546 S
O221 C202 1.274 . S
C222 O234 1.241 . S
C222 O235 1.280 . S
C223 O236 1.277 . S
C223 O237 1.245 . S
C224 O248 1.247 . S
C224 O250 1.289 . S
Mg225 O226 1.926 . S
Mg225 O235 1.984 . S
Mg225 O237 1.988 1_554 S
Mg225 O238 2.061 1_655 S
O226 Mg225 1.926 . S
O226 Mg227 1.980 1_554 S
O226 Mg228 1.917 1_655 S
Mg227 O226 1.980 1_556 S
Mg227 O234 2.017 1_556 S
Mg227 O236 2.071 . S
Mg227 O242 2.009 1_556 S
Mg227 O250 2.259 . S
Mg228 O226 1.917 1_455 S
Mg228 O229 1.917 1_554 S
Mg228 O239 2.106 . S
Mg228 O241 2.079 1_455 S
Mg228 O250 2.106 1_454 S
Mg228 O251 2.079 1_554 S
O229 Mg228 1.917 1_556 S
O229 Mg230 1.926 . S
O229 Mg231 1.986 1_556 S
Mg230 O229 1.926 . S
Mg230 O244 1.984 . S
Mg230 O247 1.988 1_556 S
Mg230 O248 2.061 1_455 S
Mg231 O229 1.986 1_554 S
Mg231 O239 2.238 . S
Mg231 O243 2.042 1_554 S
Mg231 O245 2.041 . S
Mg231 O252 2.038 1_554 S
C232 O238 1.247 . S
C232 O239 1.289 . S
C233 O251 1.245 . S
C233 O252 1.274 . S
O234 C222 1.241 . S
O234 Mg227 2.017 1_554 S
O235 C222 1.280 . S
O235 Mg225 1.984 . S
O236 C223 1.277 . S
O236 Mg227 2.071 . S
O237 C223 1.245 . S
O237 Mg225 1.988 1_556 S
O238 Mg225 2.061 1_455 S
O238 C232 1.247 . S
O239 Mg228 2.106 . S
O239 Mg231 2.238 . S
O239 C232 1.289 . S
C240 O241 1.245 . S
C240 O242 1.274 . S
O241 Mg228 2.079 1_655 S
O241 C240 1.245 . S
O242 Mg227 2.009 1_554 S
O242 C240 1.274 . S
O243 Mg231 2.042 1_556 S
O243 C246 1.241 . S
O244 Mg230 1.984 . S
O244 C246 1.280 . S
O245 Mg231 2.041 . S
O245 C249 1.277 . S
C246 O243 1.241 . S
C246 O244 1.280 . S
O247 Mg230 1.988 1_554 S
O247 C249 1.245 . S
O248 C224 1.247 . S
O248 Mg230 2.061 1_655 S
C249 O245 1.277 . S
C249 O247 1.245 . S
O250 C224 1.289 . S
O250 Mg227 2.259 . S
O250 Mg228 2.106 1_656 S
O251 Mg228 2.079 1_556 S
O251 C233 1.245 . S
O252 Mg231 2.038 1_556 S
O252 C233 1.274 . S
C253 O265 1.241 . S
C253 O266 1.280 . S
C254 O267 1.277 . S
C254 O268 1.245 . S
C255 O279 1.247 . S
C255 O281 1.289 . S
Mg256 O257 1.926 . S
Mg256 O266 1.984 . S
Mg256 O268 1.988 1_554 S
Mg256 O269 2.061 . S
O257 Mg256 1.926 . S
O257 Mg258 1.980 1_554 S
O257 Mg259 1.917 . S
Mg258 O257 1.980 1_556 S
Mg258 O265 2.017 1_556 S
Mg258 O267 2.071 . S
Mg258 O273 2.009 1_556 S
Mg258 O281 2.259 . S
Mg259 O257 1.917 . S
Mg259 O260 1.917 1_554 S
Mg259 O270 2.106 . S
Mg259 O272 2.079 . S
Mg259 O281 2.106 1_554 S
Mg259 O282 2.079 1_554 S
O260 Mg259 1.917 1_556 S
O260 Mg261 1.926 . S
O260 Mg262 1.986 1_556 S
Mg261 O260 1.926 . S
Mg261 O275 1.984 . S
Mg261 O278 1.988 1_556 S
Mg261 O279 2.061 . S
Mg262 O260 1.986 1_554 S
Mg262 O270 2.238 . S
Mg262 O274 2.042 1_554 S
Mg262 O276 2.041 . S
Mg262 O283 2.038 1_554 S
C263 O269 1.247 . S
C263 O270 1.289 . S
C264 O282 1.245 . S
C264 O283 1.274 . S
O265 C253 1.241 . S
O265 Mg258 2.017 1_554 S
O266 C253 1.280 . S
O266 Mg256 1.984 . S
O267 C254 1.277 . S
O267 Mg258 2.071 . S
O268 C254 1.245 . S
O268 Mg256 1.988 1_556 S
O269 Mg256 2.061 . S
O269 C263 1.247 . S
O270 Mg259 2.106 . S
O270 Mg262 2.238 . S
O270 C263 1.289 . S
C271 O272 1.245 . S
C271 O273 1.274 . S
O272 Mg259 2.079 . S
O272 C271 1.245 . S
O273 Mg258 2.009 1_554 S
O273 C271 1.274 . S
O274 Mg262 2.042 1_556 S
O274 C277 1.241 . S
O275 Mg261 1.984 . S
O275 C277 1.280 . S
O276 Mg262 2.041 . S
O276 C280 1.277 . S
C277 O274 1.241 . S
C277 O275 1.280 . S
O278 Mg261 1.988 1_554 S
O278 C280 1.245 . S
O279 C255 1.247 . S
O279 Mg261 2.061 . S
C280 O276 1.277 . S
C280 O278 1.245 . S
O281 C255 1.289 . S
O281 Mg258 2.259 . S
O281 Mg259 2.106 1_556 S
O282 Mg259 2.079 1_556 S
O282 C264 1.245 . S
O283 Mg262 2.038 1_556 S
O283 C264 1.274 . S
C284 O296 1.241 . S
C284 O297 1.280 . S
C285 O298 1.277 . S
C285 O299 1.245 . S
C286 O310 1.247 . S
C286 O312 1.289 . S
Mg287 O288 1.926 . S
Mg287 O297 1.984 . S
Mg287 O299 1.988 . S
Mg287 O300 2.061 1_655 S
O288 Mg287 1.926 . S
O288 Mg289 1.986 . S
O288 Mg290 1.917 1_655 S
Mg289 O288 1.986 . S
Mg289 O296 2.042 . S
Mg289 O298 2.041 . S
Mg289 O304 2.038 . S
Mg289 O312 2.238 . S
Mg290 O288 1.917 1_455 S
Mg290 O291 1.917 . S
Mg290 O301 2.106 . S
Mg290 O303 2.079 1_455 S
Mg290 O312 2.106 1_455 S
Mg290 O313 2.079 . S
O291 Mg290 1.917 . S
O291 Mg292 1.926 . S
O291 Mg293 1.986 . S
Mg292 O291 1.926 . S
Mg292 O306 1.984 . S
Mg292 O309 1.988 . S
Mg292 O310 2.061 1_455 S
Mg293 O291 1.986 . S
Mg293 O301 2.238 . S
Mg293 O305 2.042 . S
Mg293 O307 2.041 . S
Mg293 O314 2.038 . S
C294 O300 1.247 . S
C294 O301 1.289 . S
C295 O313 1.245 . S
C295 O314 1.274 . S
O296 C284 1.241 . S
O296 Mg289 2.042 . S
O297 C284 1.280 . S
O297 Mg287 1.984 . S
O298 C285 1.277 . S
O298 Mg289 2.041 . S
O299 C285 1.245 . S
O299 Mg287 1.988 . S
O300 Mg287 2.061 1_455 S
O300 C294 1.247 . S
O301 Mg290 2.106 . S
O301 Mg293 2.238 . S
O301 C294 1.289 . S
C302 O303 1.245 . S
C302 O304 1.274 . S
O303 Mg290 2.079 1_655 S
O303 C302 1.245 . S
O304 Mg289 2.038 . S
O304 C302 1.274 . S
O305 Mg293 2.042 . S
O305 C308 1.241 . S
O306 Mg292 1.984 . S
O306 C308 1.280 . S
O307 Mg293 2.041 . S
O307 C311 1.277 . S
C308 O305 1.241 . S
C308 O306 1.280 . S
O309 Mg292 1.988 . S
O309 C311 1.245 . S
O310 C286 1.247 . S
O310 Mg292 2.061 1_655 S
C311 O307 1.277 . S
C311 O309 1.245 . S
O312 C286 1.289 . S
O312 Mg289 2.238 . S
O312 Mg290 2.106 1_655 S
O313 Mg290 2.079 . S
O313 C295 1.245 . S
O314 Mg293 2.038 . S
O314 C295 1.274 . S
C315 O327 1.241 . S
C315 O328 1.280 . S
C316 O329 1.277 . S
C316 O330 1.245 . S
C317 O341 1.247 . S
C317 O343 1.289 . S
Mg318 O319 1.926 . S
Mg318 O328 1.984 . S
Mg318 O330 1.988 . S
Mg318 O331 2.061 . S
O319 Mg318 1.926 . S
O319 Mg320 1.986 . S
O319 Mg321 1.917 . S
Mg320 O319 1.986 . S
Mg320 O327 2.042 . S
Mg320 O329 2.041 . S
Mg320 O335 2.038 1_545 S
Mg320 O343 2.238 1_545 S
Mg321 O319 1.917 . S
Mg321 O322 1.917 1_545 S
Mg321 O332 2.106 . S
Mg321 O334 2.079 1_545 S
Mg321 O343 2.106 1_545 S
Mg321 O344 2.079 . S
O322 Mg321 1.917 1_565 S
O322 Mg323 1.926 . S
O322 Mg324 1.986 . S
Mg323 O322 1.926 . S
Mg323 O337 1.984 . S
Mg323 O340 1.988 . S
Mg323 O341 2.061 . S
Mg324 O322 1.986 . S
Mg324 O332 2.238 1_565 S
Mg324 O336 2.042 . S
Mg324 O338 2.041 . S
Mg324 O345 2.038 1_565 S
C325 O331 1.247 . S
C325 O332 1.289 . S
C326 O344 1.245 . S
C326 O345 1.274 . S
O327 C315 1.241 . S
O327 Mg320 2.042 . S
O328 C315 1.280 . S
O328 Mg318 1.984 . S
O329 C316 1.277 . S
O329 Mg320 2.041 . S
O330 C316 1.245 . S
O330 Mg318 1.988 . S
O331 Mg318 2.061 . S
O331 C325 1.247 . S
O332 Mg321 2.106 . S
O332 Mg324 2.238 1_545 S
O332 C325 1.289 . S
C333 O334 1.245 . S
C333 O335 1.274 . S
O334 Mg321 2.079 1_565 S
O334 C333 1.245 . S
O335 Mg320 2.038 1_565 S
O335 C333 1.274 . S
O336 Mg324 2.042 . S
O336 C339 1.241 . S
O337 Mg323 1.984 . S
O337 C339 1.280 . S
O338 Mg324 2.041 . S
O338 C342 1.277 . S
C339 O336 1.241 . S
C339 O337 1.280 . S
O340 Mg323 1.988 . S
O340 C342 1.245 . S
O341 C317 1.247 . S
O341 Mg323 2.061 . S
C342 O338 1.277 . S
C342 O340 1.245 . S
O343 C317 1.289 . S
O343 Mg320 2.238 1_565 S
O343 Mg321 2.106 1_565 S
O344 Mg321 2.079 . S
O344 C326 1.245 . S
O345 Mg324 2.038 1_545 S
O345 C326 1.274 . S
C346 C347 1.349 . S
C346 C348 1.327 . S
C346 H371 0.950 . S
C347 C346 1.349 . S
C347 C363 1.349 . S
C348 C346 1.327 . S
C348 C367 1.429 . S
C348 H372 0.950 . S
C349 C366 1.574 . S
C349 C368 1.368 . S
C349 H373 0.949 . S
H350 C354 0.949 . S
C351 C352 1.349 . S
C351 C353 1.327 . S
C351 H374 0.950 . S
C352 C351 1.349 . S
C352 C364 1.349 . S
C353 C351 1.327 . S
C353 C369 1.429 . S
C353 H375 0.950 . S
C354 H350 0.949 . S
C354 C362 1.574 . S
C354 C370 1.368 . S
H355 C363 0.950 . S
H356 C361 0.950 . S
H357 C362 0.949 . S
H358 C364 0.950 . S
H359 C365 0.950 . S
H360 C366 0.949 . S
C361 H356 0.950 . S
C361 C363 1.327 . S
C361 C367 1.429 . S
C362 C354 1.574 . S
C362 H357 0.949 . S
C362 C368 1.368 . S
C363 C347 1.349 . S
C363 H355 0.950 . S
C363 C361 1.327 . S
C364 C352 1.349 . S
C364 H358 0.950 . S
C364 C365 1.327 . S
C365 H359 0.950 . S
C365 C364 1.327 . S
C365 C369 1.429 . S
C366 C349 1.574 . S
C366 H360 0.949 . S
C366 C370 1.368 . S
C367 C348 1.429 . S
C367 C361 1.429 . S
C367 C368 1.523 . S
C368 C349 1.368 . S
C368 C362 1.368 . S
C368 C367 1.523 . S
C369 C353 1.429 . S
C369 C365 1.429 . S
C369 C370 1.523 . S
C370 C354 1.368 . S
C370 C366 1.368 . S
C370 C369 1.523 . S
H371 C346 0.950 . S
H372 C348 0.950 . S
H373 C349 0.949 . S
H374 C351 0.950 . S
H375 C353 0.950 . S
C376 C377 1.349 . S
C376 C378 1.327 . S
C376 H401 0.950 . S
C377 C376 1.349 . S
C377 C393 1.349 . S
C378 C376 1.327 . S
C378 C397 1.429 . S
C378 H402 0.950 . S
C379 C396 1.574 . S
C379 C398 1.368 . S
C379 H403 0.949 . S
H380 C384 0.949 . S
C381 C382 1.349 . S
C381 C383 1.327 . S
C381 H404 0.950 . S
C382 C381 1.349 . S
C382 C394 1.349 . S
C383 C381 1.327 . S
C383 C399 1.429 . S
C383 H405 0.950 . S
C384 H380 0.949 . S
C384 C392 1.574 . S
C384 C400 1.368 . S
H385 C393 0.950 . S
H386 C391 0.950 . S
H387 C392 0.949 . S
H388 C394 0.950 . S
H389 C395 0.950 . S
H390 C396 0.949 . S
C391 H386 0.950 . S
C391 C393 1.327 . S
C391 C397 1.429 . S
C392 C384 1.574 . S
C392 H387 0.949 . S
C392 C398 1.368 . S
C393 C377 1.349 . S
C393 H385 0.950 . S
C393 C391 1.327 . S
C394 C382 1.349 . S
C394 H388 0.950 . S
C394 C395 1.327 . S
C395 H389 0.950 . S
C395 C394 1.327 . S
C395 C399 1.429 . S
C396 C379 1.574 . S
C396 H390 0.949 . S
C396 C400 1.368 . S
C397 C378 1.429 . S
C397 C391 1.429 . S
C397 C398 1.523 . S
C398 C379 1.368 . S
C398 C392 1.368 . S
C398 C397 1.523 . S
C399 C383 1.429 . S
C399 C395 1.429 . S
C399 C400 1.523 . S
C400 C384 1.368 . S
C400 C396 1.368 . S
C400 C399 1.523 . S
H401 C376 0.950 . S
H402 C378 0.950 . S
H403 C379 0.949 . S
H404 C381 0.950 . S
H405 C383 0.950 . S
C406 C407 1.349 . S
C406 C408 1.327 . S
C406 H431 0.950 . S
C407 C406 1.349 . S
C407 C423 1.349 . S
C408 C406 1.327 . S
C408 C427 1.429 . S
C408 H432 0.950 . S
C409 C426 1.574 . S
C409 C428 1.368 . S
C409 H433 0.949 . S
H410 C414 0.949 . S
C411 C412 1.349 . S
C411 C413 1.327 . S
C411 H434 0.950 . S
C412 C411 1.349 . S
C412 C424 1.349 . S
C413 C411 1.327 . S
C413 C429 1.429 . S
C413 H435 0.950 . S
C414 H410 0.949 . S
C414 C422 1.574 . S
C414 C430 1.368 . S
H415 C423 0.950 . S
H416 C421 0.950 . S
H417 C422 0.949 . S
H418 C424 0.950 . S
H419 C425 0.950 . S
H420 C426 0.949 . S
C421 H416 0.950 . S
C421 C423 1.327 . S
C421 C427 1.429 . S
C422 C414 1.574 . S
C422 H417 0.949 . S
C422 C428 1.368 . S
C423 C407 1.349 . S
C423 H415 0.950 . S
C423 C421 1.327 . S
C424 C412 1.349 . S
C424 H418 0.950 . S
C424 C425 1.327 . S
C425 H419 0.950 . S
C425 C424 1.327 . S
C425 C429 1.429 . S
C426 C409 1.574 . S
C426 H420 0.949 . S
C426 C430 1.368 . S
C427 C408 1.429 . S
C427 C421 1.429 . S
C427 C428 1.523 . S
C428 C409 1.368 . S
C428 C422 1.368 . S
C428 C427 1.523 . S
C429 C413 1.429 . S
C429 C425 1.429 . S
C429 C430 1.523 . S
C430 C414 1.368 . S
C430 C426 1.368 . S
C430 C429 1.523 . S
H431 C406 0.950 . S
H432 C408 0.950 . S
H433 C409 0.949 . S
H434 C411 0.950 . S
H435 C413 0.950 . S
C436 C437 1.349 . S
C436 C438 1.327 . S
C436 H461 0.950 . S
C437 C436 1.349 . S
C437 C453 1.349 . S
C438 C436 1.327 . S
C438 C457 1.429 . S
C438 H462 0.950 . S
C439 C456 1.574 . S
C439 C458 1.368 . S
C439 H463 0.949 . S
H440 C444 0.949 . S
C441 C442 1.349 . S
C441 C443 1.327 . S
C441 H464 0.950 . S
C442 C441 1.349 . S
C442 C454 1.349 . S
C443 C441 1.327 . S
C443 C459 1.429 . S
C443 H465 0.950 . S
C444 H440 0.949 . S
C444 C452 1.574 . S
C444 C460 1.368 . S
H445 C453 0.950 . S
H446 C451 0.950 . S
H447 C452 0.949 . S
H448 C454 0.950 . S
H449 C455 0.950 . S
H450 C456 0.949 . S
C451 H446 0.950 . S
C451 C453 1.327 . S
C451 C457 1.429 . S
C452 C444 1.574 . S
C452 H447 0.949 . S
C452 C458 1.368 . S
C453 C437 1.349 . S
C453 H445 0.950 . S
C453 C451 1.327 . S
C454 C442 1.349 . S
C454 H448 0.950 . S
C454 C455 1.327 . S
C455 H449 0.950 . S
C455 C454 1.327 . S
C455 C459 1.429 . S
C456 C439 1.574 . S
C456 H450 0.949 . S
C456 C460 1.368 . S
C457 C438 1.429 . S
C457 C451 1.429 . S
C457 C458 1.523 . S
C458 C439 1.368 . S
C458 C452 1.368 . S
C458 C457 1.523 . S
C459 C443 1.429 . S
C459 C455 1.429 . S
C459 C460 1.523 . S
C460 C444 1.368 . S
C460 C456 1.368 . S
C460 C459 1.523 . S
H461 C436 0.950 . S
H462 C438 0.950 . S
H463 C439 0.949 . S
H464 C441 0.950 . S
H465 C443 0.950 . S
C466 C467 1.349 . S
C466 C468 1.327 . S
C466 H491 0.950 . S
C467 C466 1.349 . S
C467 C483 1.349 . S
C468 C466 1.327 . S
C468 C487 1.429 . S
C468 H492 0.950 . S
C469 C486 1.574 . S
C469 C488 1.368 . S
C469 H493 0.949 . S
H470 C474 0.949 . S
C471 C472 1.349 . S
C471 C473 1.327 . S
C471 H494 0.950 . S
C472 C471 1.349 . S
C472 C484 1.349 . S
C473 C471 1.327 . S
C473 C489 1.429 . S
C473 H495 0.950 . S
C474 H470 0.949 . S
C474 C482 1.574 . S
C474 C490 1.368 . S
H475 C483 0.950 . S
H476 C481 0.950 . S
H477 C482 0.949 . S
H478 C484 0.950 . S
H479 C485 0.950 . S
H480 C486 0.949 . S
C481 H476 0.950 . S
C481 C483 1.327 . S
C481 C487 1.429 . S
C482 C474 1.574 . S
C482 H477 0.949 . S
C482 C488 1.368 . S
C483 C467 1.349 . S
C483 H475 0.950 . S
C483 C481 1.327 . S
C484 C472 1.349 . S
C484 H478 0.950 . S
C484 C485 1.327 . S
C485 H479 0.950 . S
C485 C484 1.327 . S
C485 C489 1.429 . S
C486 C469 1.574 . S
C486 H480 0.949 . S
C486 C490 1.368 . S
C487 C468 1.429 . S
C487 C481 1.429 . S
C487 C488 1.523 . S
C488 C469 1.368 . S
C488 C482 1.368 . S
C488 C487 1.523 . S
C489 C473 1.429 . S
C489 C485 1.429 . S
C489 C490 1.523 . S
C490 C474 1.368 . S
C490 C486 1.368 . S
C490 C489 1.523 . S
H491 C466 0.950 . S
H492 C468 0.950 . S
H493 C469 0.949 . S
H494 C471 0.950 . S
H495 C473 0.950 . S
C496 C497 1.349 . S
C496 C498 1.327 . S
C496 H521 0.950 . S
C497 C496 1.349 . S
C497 C513 1.349 . S
C498 C496 1.327 . S
C498 C517 1.429 . S
C498 H522 0.950 . S
C499 C516 1.574 . S
C499 C518 1.368 . S
C499 H523 0.949 . S
H500 C504 0.949 . S
C501 C502 1.349 . S
C501 C503 1.327 . S
C501 H524 0.950 . S
C502 C501 1.349 . S
C502 C514 1.349 . S
C503 C501 1.327 . S
C503 C519 1.429 . S
C503 H525 0.950 . S
C504 H500 0.949 . S
C504 C512 1.574 . S
C504 C520 1.368 . S
H505 C513 0.950 . S
H506 C511 0.950 . S
H507 C512 0.949 . S
H508 C514 0.950 . S
H509 C515 0.950 . S
H510 C516 0.949 . S
C511 H506 0.950 . S
C511 C513 1.327 . S
C511 C517 1.429 . S
C512 C504 1.574 . S
C512 H507 0.949 . S
C512 C518 1.368 . S
C513 C497 1.349 . S
C513 H505 0.950 . S
C513 C511 1.327 . S
C514 C502 1.349 . S
C514 H508 0.950 . S
C514 C515 1.327 . S
C515 H509 0.950 . S
C515 C514 1.327 . S
C515 C519 1.429 . S
C516 C499 1.574 . S
C516 H510 0.949 . S
C516 C520 1.368 . S
C517 C498 1.429 . S
C517 C511 1.429 . S
C517 C518 1.523 . S
C518 C499 1.368 . S
C518 C512 1.368 . S
C518 C517 1.523 . S
C519 C503 1.429 . S
C519 C515 1.429 . S
C519 C520 1.523 . S
C520 C504 1.368 . S
C520 C516 1.368 . S
C520 C519 1.523 . S
H521 C496 0.950 . S
H522 C498 0.950 . S
H523 C499 0.949 . S
H524 C501 0.950 . S
H525 C503 0.950 . S
C526 C527 1.349 . S
C526 C528 1.327 . S
C526 H551 0.950 . S
C527 C526 1.349 . S
C527 C543 1.349 . S
C528 C526 1.327 . S
C528 C547 1.429 . S
C528 H552 0.950 . S
C529 C546 1.574 . S
C529 C548 1.368 . S
C529 H553 0.949 . S
H530 C534 0.949 . S
C531 C532 1.349 . S
C531 C533 1.327 . S
C531 H554 0.950 . S
C532 C531 1.349 . S
C532 C544 1.349 . S
C533 C531 1.327 . S
C533 C549 1.429 . S
C533 H555 0.950 . S
C534 H530 0.949 . S
C534 C542 1.574 . S
C534 C550 1.368 . S
H535 C543 0.950 . S
H536 C541 0.950 . S
H537 C542 0.949 . S
H538 C544 0.950 . S
H539 C545 0.950 . S
H540 C546 0.949 . S
C541 H536 0.950 . S
C541 C543 1.327 . S
C541 C547 1.429 . S
C542 C534 1.574 . S
C542 H537 0.949 . S
C542 C548 1.368 . S
C543 C527 1.349 . S
C543 H535 0.950 . S
C543 C541 1.327 . S
C544 C532 1.349 . S
C544 H538 0.950 . S
C544 C545 1.327 . S
C545 H539 0.950 . S
C545 C544 1.327 . S
C545 C549 1.429 . S
C546 C529 1.574 . S
C546 H540 0.949 . S
C546 C550 1.368 . S
C547 C528 1.429 . S
C547 C541 1.429 . S
C547 C548 1.523 . S
C548 C529 1.368 . S
C548 C542 1.368 . S
C548 C547 1.523 . S
C549 C533 1.429 . S
C549 C545 1.429 . S
C549 C550 1.523 . S
C550 C534 1.368 . S
C550 C546 1.368 . S
C550 C549 1.523 . S
H551 C526 0.950 . S
H552 C528 0.950 . S
H553 C529 0.949 . S
H554 C531 0.950 . S
H555 C533 0.950 . S
C556 C557 1.349 . S
C556 C558 1.327 . S
C556 H581 0.950 . S
C557 C556 1.349 . S
C557 C573 1.349 . S
C558 C556 1.327 . S
C558 C577 1.429 . S
C558 H582 0.950 . S
C559 C576 1.574 . S
C559 C578 1.368 . S
C559 H583 0.949 . S
H560 C564 0.949 . S
C561 C562 1.349 . S
C561 C563 1.327 . S
C561 H584 0.950 . S
C562 C561 1.349 . S
C562 C574 1.349 . S
C563 C561 1.327 . S
C563 C579 1.429 . S
C563 H585 0.950 . S
C564 H560 0.949 . S
C564 C572 1.574 . S
C564 C580 1.368 . S
H565 C573 0.950 . S
H566 C571 0.950 . S
H567 C572 0.949 . S
H568 C574 0.950 . S
H569 C575 0.950 . S
H570 C576 0.949 . S
C571 H566 0.950 . S
C571 C573 1.327 . S
C571 C577 1.429 . S
C572 C564 1.574 . S
C572 H567 0.949 . S
C572 C578 1.368 . S
C573 C557 1.349 . S
C573 H565 0.950 . S
C573 C571 1.327 . S
C574 C562 1.349 . S
C574 H568 0.950 . S
C574 C575 1.327 . S
C575 H569 0.950 . S
C575 C574 1.327 . S
C575 C579 1.429 . S
C576 C559 1.574 . S
C576 H570 0.949 . S
C576 C580 1.368 . S
C577 C558 1.429 . S
C577 C571 1.429 . S
C577 C578 1.523 . S
C578 C559 1.368 . S
C578 C572 1.368 . S
C578 C577 1.523 . S
C579 C563 1.429 . S
C579 C575 1.429 . S
C579 C580 1.523 . S
C580 C564 1.368 . S
C580 C576 1.368 . S
C580 C579 1.523 . S
H581 C556 0.950 . S
H582 C558 0.950 . S
H583 C559 0.949 . S
H584 C561 0.950 . S
H585 C563 0.950 . S
C586 C587 1.349 . S
C586 C588 1.327 . S
C586 H611 0.950 . S
C587 C586 1.349 . S
C587 C603 1.349 . S
C588 C586 1.327 . S
C588 C607 1.429 . S
C588 H612 0.950 . S
C589 C606 1.574 . S
C589 C608 1.368 . S
C589 H613 0.949 . S
H590 C594 0.949 . S
C591 C592 1.349 . S
C591 C593 1.327 . S
C591 H614 0.950 . S
C592 C591 1.349 . S
C592 C604 1.349 . S
C593 C591 1.327 . S
C593 C609 1.429 . S
C593 H615 0.950 . S
C594 H590 0.949 . S
C594 C602 1.574 . S
C594 C610 1.368 . S
H595 C603 0.950 . S
H596 C601 0.950 . S
H597 C602 0.949 . S
H598 C604 0.950 . S
H599 C605 0.950 . S
H600 C606 0.949 . S
C601 H596 0.950 . S
C601 C603 1.327 . S
C601 C607 1.429 . S
C602 C594 1.574 . S
C602 H597 0.949 . S
C602 C608 1.368 . S
C603 C587 1.349 . S
C603 H595 0.950 . S
C603 C601 1.327 . S
C604 C592 1.349 . S
C604 H598 0.950 . S
C604 C605 1.327 . S
C605 H599 0.950 . S
C605 C604 1.327 . S
C605 C609 1.429 . S
C606 C589 1.574 . S
C606 H600 0.949 . S
C606 C610 1.368 . S
C607 C588 1.429 . S
C607 C601 1.429 . S
C607 C608 1.523 . S
C608 C589 1.368 . S
C608 C602 1.368 . S
C608 C607 1.523 . S
C609 C593 1.429 . S
C609 C605 1.429 . S
C609 C610 1.523 . S
C610 C594 1.368 . S
C610 C606 1.368 . S
C610 C609 1.523 . S
H611 C586 0.950 . S
H612 C588 0.950 . S
H613 C589 0.949 . S
H614 C591 0.950 . S
H615 C593 0.950 . S
C616 C617 1.349 . S
C616 C618 1.327 . S
C616 H641 0.950 . S
C617 C616 1.349 . S
C617 C633 1.349 . S
C618 C616 1.327 . S
C618 C637 1.429 . S
C618 H642 0.950 . S
C619 C636 1.574 . S
C619 C638 1.368 . S
C619 H643 0.949 . S
H620 C624 0.949 . S
C621 C622 1.349 . S
C621 C623 1.327 . S
C621 H644 0.950 . S
C622 C621 1.349 . S
C622 C634 1.349 . S
C623 C621 1.327 . S
C623 C639 1.429 . S
C623 H645 0.950 . S
C624 H620 0.949 . S
C624 C632 1.574 . S
C624 C640 1.368 . S
H625 C633 0.950 . S
H626 C631 0.950 . S
H627 C632 0.949 . S
H628 C634 0.950 . S
H629 C635 0.950 . S
H630 C636 0.949 . S
C631 H626 0.950 . S
C631 C633 1.327 . S
C631 C637 1.429 . S
C632 C624 1.574 . S
C632 H627 0.949 . S
C632 C638 1.368 . S
C633 C617 1.349 . S
C633 H625 0.950 . S
C633 C631 1.327 . S
C634 C622 1.349 . S
C634 H628 0.950 . S
C634 C635 1.327 . S
C635 H629 0.950 . S
C635 C634 1.327 . S
C635 C639 1.429 . S
C636 C619 1.574 . S
C636 H630 0.949 . S
C636 C640 1.368 . S
C637 C618 1.429 . S
C637 C631 1.429 . S
C637 C638 1.523 . S
C638 C619 1.368 . S
C638 C632 1.368 . S
C638 C637 1.523 . S
C639 C623 1.429 . S
C639 C635 1.429 . S
C639 C640 1.523 . S
C640 C624 1.368 . S
C640 C636 1.368 . S
C640 C639 1.523 . S
H641 C616 0.950 . S
H642 C618 0.950 . S
H643 C619 0.949 . S
H644 C621 0.950 . S
H645 C623 0.950 . S
C646 C647 1.349 . S
C646 C648 1.327 . S
C646 H671 0.950 . S
C647 C646 1.349 . S
C647 C663 1.349 . S
C648 C646 1.327 . S
C648 C667 1.429 . S
C648 H672 0.950 . S
C649 C666 1.574 . S
C649 C668 1.368 . S
C649 H673 0.949 . S
H650 C654 0.949 . S
C651 C652 1.349 . S
C651 C653 1.327 . S
C651 H674 0.950 . S
C652 C651 1.349 . S
C652 C664 1.349 . S
C653 C651 1.327 . S
C653 C669 1.429 . S
C653 H675 0.950 . S
C654 H650 0.949 . S
C654 C662 1.574 . S
C654 C670 1.368 . S
H655 C663 0.950 . S
H656 C661 0.950 . S
H657 C662 0.949 . S
H658 C664 0.950 . S
H659 C665 0.950 . S
H660 C666 0.949 . S
C661 H656 0.950 . S
C661 C663 1.327 . S
C661 C667 1.429 . S
C662 C654 1.574 . S
C662 H657 0.949 . S
C662 C668 1.368 . S
C663 C647 1.349 . S
C663 H655 0.950 . S
C663 C661 1.327 . S
C664 C652 1.349 . S
C664 H658 0.950 . S
C664 C665 1.327 . S
C665 H659 0.950 . S
C665 C664 1.327 . S
C665 C669 1.429 . S
C666 C649 1.574 . S
C666 H660 0.949 . S
C666 C670 1.368 . S
C667 C648 1.429 . S
C667 C661 1.429 . S
C667 C668 1.523 . S
C668 C649 1.368 . S
C668 C662 1.368 . S
C668 C667 1.523 . S
C669 C653 1.429 . S
C669 C665 1.429 . S
C669 C670 1.523 . S
C670 C654 1.368 . S
C670 C666 1.368 . S
C670 C669 1.523 . S
H671 C646 0.950 . S
H672 C648 0.950 . S
H673 C649 0.949 . S
H674 C651 0.950 . S
H675 C653 0.950 . S
C676 C677 1.349 . S
C676 C678 1.327 . S
C676 H701 0.950 . S
C677 C676 1.349 . S
C677 C693 1.349 . S
C678 C676 1.327 . S
C678 C697 1.429 . S
C678 H702 0.950 . S
C679 C696 1.574 . S
C679 C698 1.368 . S
C679 H703 0.949 . S
H680 C684 0.949 . S
C681 C682 1.349 . S
C681 C683 1.327 . S
C681 H704 0.950 . S
C682 C681 1.349 . S
C682 C694 1.349 . S
C683 C681 1.327 . S
C683 C699 1.429 . S
C683 H705 0.950 . S
C684 H680 0.949 . S
C684 C692 1.574 . S
C684 C700 1.368 . S
H685 C693 0.950 . S
H686 C691 0.950 . S
H687 C692 0.949 . S
H688 C694 0.950 . S
H689 C695 0.950 . S
H690 C696 0.949 . S
C691 H686 0.950 . S
C691 C693 1.327 . S
C691 C697 1.429 . S
C692 C684 1.574 . S
C692 H687 0.949 . S
C692 C698 1.368 . S
C693 C677 1.349 . S
C693 H685 0.950 . S
C693 C691 1.327 . S
C694 C682 1.349 . S
C694 H688 0.950 . S
C694 C695 1.327 . S
C695 H689 0.950 . S
C695 C694 1.327 . S
C695 C699 1.429 . S
C696 C679 1.574 . S
C696 H690 0.949 . S
C696 C700 1.368 . S
C697 C678 1.429 . S
C697 C691 1.429 . S
C697 C698 1.523 . S
C698 C679 1.368 . S
C698 C692 1.368 . S
C698 C697 1.523 . S
C699 C683 1.429 . S
C699 C695 1.429 . S
C699 C700 1.523 . S
C700 C684 1.368 . S
C700 C696 1.368 . S
C700 C699 1.523 . S
H701 C676 0.950 . S
H702 C678 0.950 . S
H703 C679 0.949 . S
H704 C681 0.950 . S
H705 C683 0.950 . S
C706 C707 1.349 . S
C706 C708 1.327 . S
C706 H731 0.950 . S
C707 C706 1.349 . S
C707 C723 1.349 . S
C708 C706 1.327 . S
C708 C727 1.429 . S
C708 H732 0.950 . S
C709 C726 1.574 . S
C709 C728 1.368 . S
C709 H733 0.949 . S
H710 C714 0.949 . S
C711 C712 1.349 . S
C711 C713 1.327 . S
C711 H734 0.950 . S
C712 C711 1.349 . S
C712 C724 1.349 . S
C713 C711 1.327 . S
C713 C729 1.429 . S
C713 H735 0.950 . S
C714 H710 0.949 . S
C714 C722 1.574 . S
C714 C730 1.368 . S
H715 C723 0.950 . S
H716 C721 0.950 . S
H717 C722 0.949 . S
H718 C724 0.950 . S
H719 C725 0.950 . S
H720 C726 0.949 . S
C721 H716 0.950 . S
C721 C723 1.327 . S
C721 C727 1.429 . S
C722 C714 1.574 . S
C722 H717 0.949 . S
C722 C728 1.368 . S
C723 C707 1.349 . S
C723 H715 0.950 . S
C723 C721 1.327 . S
C724 C712 1.349 . S
C724 H718 0.950 . S
C724 C725 1.327 . S
C725 H719 0.950 . S
C725 C724 1.327 . S
C725 C729 1.429 . S
C726 C709 1.574 . S
C726 H720 0.949 . S
C726 C730 1.368 . S
C727 C708 1.429 . S
C727 C721 1.429 . S
C727 C728 1.523 . S
C728 C709 1.368 . S
C728 C722 1.368 . S
C728 C727 1.523 . S
C729 C713 1.429 . S
C729 C725 1.429 . S
C729 C730 1.523 . S
C730 C714 1.368 . S
C730 C726 1.368 . S
C730 C729 1.523 . S
H731 C706 0.950 . S
H732 C708 0.950 . S
H733 C709 0.949 . S
H734 C711 0.950 . S
H735 C713 0.950 . S
C736 C737 1.349 . S
C736 C738 1.327 . S
C736 H761 0.950 . S
C737 C736 1.349 . S
C737 C753 1.349 . S
C738 C736 1.327 . S
C738 C757 1.429 . S
C738 H762 0.950 . S
C739 C756 1.574 . S
C739 C758 1.368 . S
C739 H763 0.949 . S
H740 C744 0.949 . S
C741 C742 1.349 . S
C741 C743 1.327 . S
C741 H764 0.950 . S
C742 C741 1.349 . S
C742 C754 1.349 . S
C743 C741 1.327 . S
C743 C759 1.429 . S
C743 H765 0.950 . S
C744 H740 0.949 . S
C744 C752 1.574 . S
C744 C760 1.368 . S
H745 C753 0.950 . S
H746 C751 0.950 . S
H747 C752 0.949 . S
H748 C754 0.950 . S
H749 C755 0.950 . S
H750 C756 0.949 . S
C751 H746 0.950 . S
C751 C753 1.327 . S
C751 C757 1.429 . S
C752 C744 1.574 . S
C752 H747 0.949 . S
C752 C758 1.368 . S
C753 C737 1.349 . S
C753 H745 0.950 . S
C753 C751 1.327 . S
C754 C742 1.349 . S
C754 H748 0.950 . S
C754 C755 1.327 . S
C755 H749 0.950 . S
C755 C754 1.327 . S
C755 C759 1.429 . S
C756 C739 1.574 . S
C756 H750 0.949 . S
C756 C760 1.368 . S
C757 C738 1.429 . S
C757 C751 1.429 . S
C757 C758 1.523 . S
C758 C739 1.368 . S
C758 C752 1.368 . S
C758 C757 1.523 . S
C759 C743 1.429 . S
C759 C755 1.429 . S
C759 C760 1.523 . S
C760 C744 1.368 . S
C760 C756 1.368 . S
C760 C759 1.523 . S
H761 C736 0.950 . S
H762 C738 0.950 . S
H763 C739 0.949 . S
H764 C741 0.950 . S
H765 C743 0.950 . S
C766 C767 1.349 . S
C766 C768 1.327 . S
C766 H791 0.950 . S
C767 C766 1.349 . S
C767 C783 1.349 . S
C768 C766 1.327 . S
C768 C787 1.429 . S
C768 H792 0.950 . S
C769 C786 1.574 . S
C769 C788 1.368 . S
C769 H793 0.949 . S
H770 C774 0.949 . S
C771 C772 1.349 . S
C771 C773 1.327 . S
C771 H794 0.950 . S
C772 C771 1.349 . S
C772 C784 1.349 . S
C773 C771 1.327 . S
C773 C789 1.429 . S
C773 H795 0.950 . S
C774 H770 0.949 . S
C774 C782 1.574 . S
C774 C790 1.368 . S
H775 C783 0.950 . S
H776 C781 0.950 . S
H777 C782 0.949 . S
H778 C784 0.950 . S
H779 C785 0.950 . S
H780 C786 0.949 . S
C781 H776 0.950 . S
C781 C783 1.327 . S
C781 C787 1.429 . S
C782 C774 1.574 . S
C782 H777 0.949 . S
C782 C788 1.368 . S
C783 C767 1.349 . S
C783 H775 0.950 . S
C783 C781 1.327 . S
C784 C772 1.349 . S
C784 H778 0.950 . S
C784 C785 1.327 . S
C785 H779 0.950 . S
C785 C784 1.327 . S
C785 C789 1.429 . S
C786 C769 1.574 . S
C786 H780 0.949 . S
C786 C790 1.368 . S
C787 C768 1.429 . S
C787 C781 1.429 . S
C787 C788 1.523 . S
C788 C769 1.368 . S
C788 C782 1.368 . S
C788 C787 1.523 . S
C789 C773 1.429 . S
C789 C785 1.429 . S
C789 C790 1.523 . S
C790 C774 1.368 . S
C790 C786 1.368 . S
C790 C789 1.523 . S
H791 C766 0.950 . S
H792 C768 0.950 . S
H793 C769 0.949 . S
H794 C771 0.950 . S
H795 C773 0.950 . S
C796 C797 1.349 . S
C796 C798 1.327 . S
C796 H821 0.950 . S
C797 C796 1.349 . S
C797 C813 1.349 . S
C798 C796 1.327 . S
C798 C817 1.429 . S
C798 H822 0.950 . S
C799 C816 1.574 . S
C799 C818 1.368 . S
C799 H823 0.949 . S
H800 C804 0.949 . S
C801 C802 1.349 . S
C801 C803 1.327 . S
C801 H824 0.950 . S
C802 C801 1.349 . S
C802 C814 1.349 . S
C803 C801 1.327 . S
C803 C819 1.429 . S
C803 H825 0.950 . S
C804 H800 0.949 . S
C804 C812 1.574 . S
C804 C820 1.368 . S
H805 C813 0.950 . S
H806 C811 0.950 . S
H807 C812 0.949 . S
H808 C814 0.950 . S
H809 C815 0.950 . S
H810 C816 0.949 . S
C811 H806 0.950 . S
C811 C813 1.327 . S
C811 C817 1.429 . S
C812 C804 1.574 . S
C812 H807 0.949 . S
C812 C818 1.368 . S
C813 C797 1.349 . S
C813 H805 0.950 . S
C813 C811 1.327 . S
C814 C802 1.349 . S
C814 H808 0.950 . S
C814 C815 1.327 . S
C815 H809 0.950 . S
C815 C814 1.327 . S
C815 C819 1.429 . S
C816 C799 1.574 . S
C816 H810 0.949 . S
C816 C820 1.368 . S
C817 C798 1.429 . S
C817 C811 1.429 . S
C817 C818 1.523 . S
C818 C799 1.368 . S
C818 C812 1.368 . S
C818 C817 1.523 . S
C819 C803 1.429 . S
C819 C815 1.429 . S
C819 C820 1.523 . S
C820 C804 1.368 . S
C820 C816 1.368 . S
C820 C819 1.523 . S
H821 C796 0.950 . S
H822 C798 0.950 . S
H823 C799 0.949 . S
H824 C801 0.950 . S
H825 C803 0.950 . S
C826 C827 1.349 . S
C826 C828 1.327 . S
C826 H851 0.950 . S
C827 C826 1.349 . S
C827 C843 1.349 . S
C828 C826 1.327 . S
C828 C847 1.429 . S
C828 H852 0.950 . S
C829 C846 1.574 . S
C829 C848 1.368 . S
C829 H853 0.949 . S
H830 C834 0.949 . S
C831 C832 1.349 . S
C831 C833 1.327 . S
C831 H854 0.950 . S
C832 C831 1.349 . S
C832 C844 1.349 . S
C833 C831 1.327 . S
C833 C849 1.429 . S
C833 H855 0.950 . S
C834 H830 0.949 . S
C834 C842 1.574 . S
C834 C850 1.368 . S
H835 C843 0.950 . S
H836 C841 0.950 . S
H837 C842 0.949 . S
H838 C844 0.950 . S
H839 C845 0.950 . S
H840 C846 0.949 . S
C841 H836 0.950 . S
C841 C843 1.327 . S
C841 C847 1.429 . S
C842 C834 1.574 . S
C842 H837 0.949 . S
C842 C848 1.368 . S
C843 C827 1.349 . S
C843 H835 0.950 . S
C843 C841 1.327 . S
C844 C832 1.349 . S
C844 H838 0.950 . S
C844 C845 1.327 . S
C845 H839 0.950 . S
C845 C844 1.327 . S
C845 C849 1.429 . S
C846 C829 1.574 . S
C846 H840 0.949 . S
C846 C850 1.368 . S
C847 C828 1.429 . S
C847 C841 1.429 . S
C847 C848 1.523 . S
C848 C829 1.368 . S
C848 C842 1.368 . S
C848 C847 1.523 . S
C849 C833 1.429 . S
C849 C845 1.429 . S
C849 C850 1.523 . S
C850 C834 1.368 . S
C850 C846 1.368 . S
C850 C849 1.523 . S
H851 C826 0.950 . S
H852 C828 0.950 . S
H853 C829 0.949 . S
H854 C831 0.950 . S
H855 C833 0.950 . S
C856 C857 1.349 . S
C856 C858 1.327 . S
C856 H881 0.950 . S
C857 C856 1.349 . S
C857 C873 1.349 . S
C858 C856 1.327 . S
C858 C877 1.429 . S
C858 H882 0.950 . S
C859 C876 1.574 . S
C859 C878 1.368 . S
C859 H883 0.949 . S
H860 C864 0.949 . S
C861 C862 1.349 . S
C861 C863 1.327 . S
C861 H884 0.950 . S
C862 C861 1.349 . S
C862 C874 1.349 . S
C863 C861 1.327 . S
C863 C879 1.429 . S
C863 H885 0.950 . S
C864 H860 0.949 . S
C864 C872 1.574 . S
C864 C880 1.368 . S
H865 C873 0.950 . S
H866 C871 0.950 . S
H867 C872 0.949 . S
H868 C874 0.950 . S
H869 C875 0.950 . S
H870 C876 0.949 . S
C871 H866 0.950 . S
C871 C873 1.327 . S
C871 C877 1.429 . S
C872 C864 1.574 . S
C872 H867 0.949 . S
C872 C878 1.368 . S
C873 C857 1.349 . S
C873 H865 0.950 . S
C873 C871 1.327 . S
C874 C862 1.349 . S
C874 H868 0.950 . S
C874 C875 1.327 . S
C875 H869 0.950 . S
C875 C874 1.327 . S
C875 C879 1.429 . S
C876 C859 1.574 . S
C876 H870 0.949 . S
C876 C880 1.368 . S
C877 C858 1.429 . S
C877 C871 1.429 . S
C877 C878 1.523 . S
C878 C859 1.368 . S
C878 C872 1.368 . S
C878 C877 1.523 . S
C879 C863 1.429 . S
C879 C875 1.429 . S
C879 C880 1.523 . S
C880 C864 1.368 . S
C880 C876 1.368 . S
C880 C879 1.523 . S
H881 C856 0.950 . S
H882 C858 0.950 . S
H883 C859 0.949 . S
H884 C861 0.950 . S
H885 C863 0.950 . S
C886 C887 1.349 . S
C886 C888 1.327 . S
C886 H911 0.950 . S
C887 C886 1.349 . S
C887 C903 1.349 . S
C888 C886 1.327 . S
C888 C907 1.429 . S
C888 H912 0.950 . S
C889 C906 1.574 . S
C889 C908 1.368 . S
C889 H913 0.949 . S
H890 C894 0.949 . S
C891 C892 1.349 . S
C891 C893 1.327 . S
C891 H914 0.950 . S
C892 C891 1.349 . S
C892 C904 1.349 . S
C893 C891 1.327 . S
C893 C909 1.429 . S
C893 H915 0.950 . S
C894 H890 0.949 . S
C894 C902 1.574 . S
C894 C910 1.368 . S
H895 C903 0.950 . S
H896 C901 0.950 . S
H897 C902 0.949 . S
H898 C904 0.950 . S
H899 C905 0.950 . S
H900 C906 0.949 . S
C901 H896 0.950 . S
C901 C903 1.327 . S
C901 C907 1.429 . S
C902 C894 1.574 . S
C902 H897 0.949 . S
C902 C908 1.368 . S
C903 C887 1.349 . S
C903 H895 0.950 . S
C903 C901 1.327 . S
C904 C892 1.349 . S
C904 H898 0.950 . S
C904 C905 1.327 . S
C905 H899 0.950 . S
C905 C904 1.327 . S
C905 C909 1.429 . S
C906 C889 1.574 . S
C906 H900 0.949 . S
C906 C910 1.368 . S
C907 C888 1.429 . S
C907 C901 1.429 . S
C907 C908 1.523 . S
C908 C889 1.368 . S
C908 C902 1.368 . S
C908 C907 1.523 . S
C909 C893 1.429 . S
C909 C905 1.429 . S
C909 C910 1.523 . S
C910 C894 1.368 . S
C910 C906 1.368 . S
C910 C909 1.523 . S
H911 C886 0.950 . S
H912 C888 0.950 . S
H913 C889 0.949 . S
H914 C891 0.950 . S
H915 C893 0.950 . S
C916 C917 1.349 . S
C916 C918 1.327 . S
C916 H941 0.950 . S
C917 C916 1.349 . S
C917 C933 1.349 . S
C918 C916 1.327 . S
C918 C937 1.429 . S
C918 H942 0.950 . S
C919 C936 1.574 . S
C919 C938 1.368 . S
C919 H943 0.949 . S
H920 C924 0.949 . S
C921 C922 1.349 . S
C921 C923 1.327 . S
C921 H944 0.950 . S
C922 C921 1.349 . S
C922 C934 1.349 . S
C923 C921 1.327 . S
C923 C939 1.429 . S
C923 H945 0.950 . S
C924 H920 0.949 . S
C924 C932 1.574 . S
C924 C940 1.368 . S
H925 C933 0.950 . S
H926 C931 0.950 . S
H927 C932 0.949 . S
H928 C934 0.950 . S
H929 C935 0.950 . S
H930 C936 0.949 . S
C931 H926 0.950 . S
C931 C933 1.327 . S
C931 C937 1.429 . S
C932 C924 1.574 . S
C932 H927 0.949 . S
C932 C938 1.368 . S
C933 C917 1.349 . S
C933 H925 0.950 . S
C933 C931 1.327 . S
C934 C922 1.349 . S
C934 H928 0.950 . S
C934 C935 1.327 . S
C935 H929 0.950 . S
C935 C934 1.327 . S
C935 C939 1.429 . S
C936 C919 1.574 . S
C936 H930 0.949 . S
C936 C940 1.368 . S
C937 C918 1.429 . S
C937 C931 1.429 . S
C937 C938 1.523 . S
C938 C919 1.368 . S
C938 C932 1.368 . S
C938 C937 1.523 . S
C939 C923 1.429 . S
C939 C935 1.429 . S
C939 C940 1.523 . S
C940 C924 1.368 . S
C940 C936 1.368 . S
C940 C939 1.523 . S
H941 C916 0.950 . S
H942 C918 0.950 . S
H943 C919 0.949 . S
H944 C921 0.950 . S
H945 C923 0.950 . S
C946 C947 1.349 . S
C946 C948 1.327 . S
C946 H971 0.950 . S
C947 C946 1.349 . S
C947 C963 1.349 . S
C948 C946 1.327 . S
C948 C967 1.429 . S
C948 H972 0.950 . S
C949 C966 1.574 . S
C949 C968 1.368 . S
C949 H973 0.949 . S
H950 C954 0.949 . S
C951 C952 1.349 . S
C951 C953 1.327 . S
C951 H974 0.950 . S
C952 C951 1.349 . S
C952 C964 1.349 . S
C953 C951 1.327 . S
C953 C969 1.429 . S
C953 H975 0.950 . S
C954 H950 0.949 . S
C954 C962 1.574 . S
C954 C970 1.368 . S
H955 C963 0.950 . S
H956 C961 0.950 . S
H957 C962 0.949 . S
H958 C964 0.950 . S
H959 C965 0.950 . S
H960 C966 0.949 . S
C961 H956 0.950 . S
C961 C963 1.327 . S
C961 C967 1.429 . S
C962 C954 1.574 . S
C962 H957 0.949 . S
C962 C968 1.368 . S
C963 C947 1.349 . S
C963 H955 0.950 . S
C963 C961 1.327 . S
C964 C952 1.349 . S
C964 H958 0.950 . S
C964 C965 1.327 . S
C965 H959 0.950 . S
C965 C964 1.327 . S
C965 C969 1.429 . S
C966 C949 1.574 . S
C966 H960 0.949 . S
C966 C970 1.368 . S
C967 C948 1.429 . S
C967 C961 1.429 . S
C967 C968 1.523 . S
C968 C949 1.368 . S
C968 C962 1.368 . S
C968 C967 1.523 . S
C969 C953 1.429 . S
C969 C965 1.429 . S
C969 C970 1.523 . S
C970 C954 1.368 . S
C970 C966 1.368 . S
C970 C969 1.523 . S
H971 C946 0.950 . S
H972 C948 0.950 . S
H973 C949 0.949 . S
H974 C951 0.950 . S
H975 C953 0.950 . S
C976 C977 1.349 . S
C976 C978 1.327 . S
C976 H1001 0.950 . S
C977 C976 1.349 . S
C977 C993 1.349 . S
C978 C976 1.327 . S
C978 C997 1.429 . S
C978 H1002 0.950 . S
C979 C996 1.574 . S
C979 C998 1.368 . S
C979 H1003 0.949 . S
H980 C984 0.949 . S
C981 C982 1.349 . S
C981 C983 1.327 . S
C981 H1004 0.950 . S
C982 C981 1.349 . S
C982 C994 1.349 . S
C983 C981 1.327 . S
C983 C999 1.429 . S
C983 H1005 0.950 . S
C984 H980 0.949 . S
C984 C992 1.574 . S
C984 C1000 1.368 . S
H985 C993 0.950 . S
H986 C991 0.950 . S
H987 C992 0.949 . S
H988 C994 0.950 . S
H989 C995 0.950 . S
H990 C996 0.949 . S
C991 H986 0.950 . S
C991 C993 1.327 . S
C991 C997 1.429 . S
C992 C984 1.574 . S
C992 H987 0.949 . S
C992 C998 1.368 . S
C993 C977 1.349 . S
C993 H985 0.950 . S
C993 C991 1.327 . S
C994 C982 1.349 . S
C994 H988 0.950 . S
C994 C995 1.327 . S
C995 H989 0.950 . S
C995 C994 1.327 . S
C995 C999 1.429 . S
C996 C979 1.574 . S
C996 H990 0.949 . S
C996 C1000 1.368 . S
C997 C978 1.429 . S
C997 C991 1.429 . S
C997 C998 1.523 . S
C998 C979 1.368 . S
C998 C992 1.368 . S
C998 C997 1.523 . S
C999 C983 1.429 . S
C999 C995 1.429 . S
C999 C1000 1.523 . S
C1000 C984 1.368 . S
C1000 C996 1.368 . S
C1000 C999 1.523 . S
H1001 C976 0.950 . S
H1002 C978 0.950 . S
H1003 C979 0.949 . S
H1004 C981 0.950 . S
H1005 C983 0.950 . S
C1006 C1007 1.349 . S
C1006 C1008 1.327 . S
C1006 H1031 0.950 . S
C1007 C1006 1.349 . S
C1007 C1023 1.349 . S
C1008 C1006 1.327 . S
C1008 C1027 1.429 . S
C1008 H1032 0.950 . S
C1009 C1026 1.574 . S
C1009 C1028 1.368 . S
C1009 H1033 0.949 . S
H1010 C1014 0.949 . S
C1011 C1012 1.349 . S
C1011 C1013 1.327 . S
C1011 H1034 0.950 . S
C1012 C1011 1.349 . S
C1012 C1024 1.349 . S
C1013 C1011 1.327 . S
C1013 C1029 1.429 . S
C1013 H1035 0.950 . S
C1014 H1010 0.949 . S
C1014 C1022 1.574 . S
C1014 C1030 1.368 . S
H1015 C1023 0.950 . S
H1016 C1021 0.950 . S
H1017 C1022 0.949 . S
H1018 C1024 0.950 . S
H1019 C1025 0.950 . S
H1020 C1026 0.949 . S
C1021 H1016 0.950 . S
C1021 C1023 1.327 . S
C1021 C1027 1.429 . S
C1022 C1014 1.574 . S
C1022 H1017 0.949 . S
C1022 C1028 1.368 . S
C1023 C1007 1.349 . S
C1023 H1015 0.950 . S
C1023 C1021 1.327 . S
C1024 C1012 1.349 . S
C1024 H1018 0.950 . S
C1024 C1025 1.327 . S
C1025 H1019 0.950 . S
C1025 C1024 1.327 . S
C1025 C1029 1.429 . S
C1026 C1009 1.574 . S
C1026 H1020 0.949 . S
C1026 C1030 1.368 . S
C1027 C1008 1.429 . S
C1027 C1021 1.429 . S
C1027 C1028 1.523 . S
C1028 C1009 1.368 . S
C1028 C1022 1.368 . S
C1028 C1027 1.523 . S
C1029 C1013 1.429 . S
C1029 C1025 1.429 . S
C1029 C1030 1.523 . S
C1030 C1014 1.368 . S
C1030 C1026 1.368 . S
C1030 C1029 1.523 . S
H1031 C1006 0.950 . S
H1032 C1008 0.950 . S
H1033 C1009 0.949 . S
H1034 C1011 0.950 . S
H1035 C1013 0.950 . S
C1036 C1037 1.349 . S
C1036 C1038 1.327 . S
C1036 H1061 0.950 . S
C1037 C1036 1.349 . S
C1037 C1053 1.349 . S
C1038 C1036 1.327 . S
C1038 C1057 1.429 . S
C1038 H1062 0.950 . S
C1039 C1056 1.574 . S
C1039 C1058 1.368 . S
C1039 H1063 0.949 . S
H1040 C1044 0.949 . S
C1041 C1042 1.349 . S
C1041 C1043 1.327 . S
C1041 H1064 0.950 . S
C1042 C1041 1.349 . S
C1042 C1054 1.349 . S
C1043 C1041 1.327 . S
C1043 C1059 1.429 . S
C1043 H1065 0.950 . S
C1044 H1040 0.949 . S
C1044 C1052 1.574 . S
C1044 C1060 1.368 . S
H1045 C1053 0.950 . S
H1046 C1051 0.950 . S
H1047 C1052 0.949 . S
H1048 C1054 0.950 . S
H1049 C1055 0.950 . S
H1050 C1056 0.949 . S
C1051 H1046 0.950 . S
C1051 C1053 1.327 . S
C1051 C1057 1.429 . S
C1052 C1044 1.574 . S
C1052 H1047 0.949 . S
C1052 C1058 1.368 . S
C1053 C1037 1.349 . S
C1053 H1045 0.950 . S
C1053 C1051 1.327 . S
C1054 C1042 1.349 . S
C1054 H1048 0.950 . S
C1054 C1055 1.327 . S
C1055 H1049 0.950 . S
C1055 C1054 1.327 . S
C1055 C1059 1.429 . S
C1056 C1039 1.574 . S
C1056 H1050 0.949 . S
C1056 C1060 1.368 . S
C1057 C1038 1.429 . S
C1057 C1051 1.429 . S
C1057 C1058 1.523 . S
C1058 C1039 1.368 . S
C1058 C1052 1.368 . S
C1058 C1057 1.523 . S
C1059 C1043 1.429 . S
C1059 C1055 1.429 . S
C1059 C1060 1.523 . S
C1060 C1044 1.368 . S
C1060 C1056 1.368 . S
C1060 C1059 1.523 . S
H1061 C1036 0.950 . S
H1062 C1038 0.950 . S
H1063 C1039 0.949 . S
H1064 C1041 0.950 . S
H1065 C1043 0.950 . S
C1066 C1067 1.349 . S
C1066 C1068 1.327 . S
C1066 H1091 0.950 . S
C1067 C1066 1.349 . S
C1067 C1083 1.349 . S
C1068 C1066 1.327 . S
C1068 C1087 1.429 . S
C1068 H1092 0.950 . S
C1069 C1086 1.574 . S
C1069 C1088 1.368 . S
C1069 H1093 0.949 . S
H1070 C1074 0.949 . S
C1071 C1072 1.349 . S
C1071 C1073 1.327 . S
C1071 H1094 0.950 . S
C1072 C1071 1.349 . S
C1072 C1084 1.349 . S
C1073 C1071 1.327 . S
C1073 C1089 1.429 . S
C1073 H1095 0.950 . S
C1074 H1070 0.949 . S
C1074 C1082 1.574 . S
C1074 C1090 1.368 . S
H1075 C1083 0.950 . S
H1076 C1081 0.950 . S
H1077 C1082 0.949 . S
H1078 C1084 0.950 . S
H1079 C1085 0.950 . S
H1080 C1086 0.949 . S
C1081 H1076 0.950 . S
C1081 C1083 1.327 . S
C1081 C1087 1.429 . S
C1082 C1074 1.574 . S
C1082 H1077 0.949 . S
C1082 C1088 1.368 . S
C1083 C1067 1.349 . S
C1083 H1075 0.950 . S
C1083 C1081 1.327 . S
C1084 C1072 1.349 . S
C1084 H1078 0.950 . S
C1084 C1085 1.327 . S
C1085 H1079 0.950 . S
C1085 C1084 1.327 . S
C1085 C1089 1.429 . S
C1086 C1069 1.574 . S
C1086 H1080 0.949 . S
C1086 C1090 1.368 . S
C1087 C1068 1.429 . S
C1087 C1081 1.429 . S
C1087 C1088 1.523 . S
C1088 C1069 1.368 . S
C1088 C1082 1.368 . S
C1088 C1087 1.523 . S
C1089 C1073 1.429 . S
C1089 C1085 1.429 . S
C1089 C1090 1.523 . S
C1090 C1074 1.368 . S
C1090 C1086 1.368 . S
C1090 C1089 1.523 . S
H1091 C1066 0.950 . S
H1092 C1068 0.950 . S
H1093 C1069 0.949 . S
H1094 C1071 0.950 . S
H1095 C1073 0.950 . S
C1096 C1097 1.349 . S
C1096 C1098 1.327 . S
C1096 H1121 0.950 . S
C1097 C1096 1.349 . S
C1097 C1113 1.349 . S
C1098 C1096 1.327 . S
C1098 C1117 1.429 . S
C1098 H1122 0.950 . S
C1099 C1116 1.574 . S
C1099 C1118 1.368 . S
C1099 H1123 0.949 . S
H1100 C1104 0.949 . S
C1101 C1102 1.349 . S
C1101 C1103 1.327 . S
C1101 H1124 0.950 . S
C1102 C1101 1.349 . S
C1102 C1114 1.349 . S
C1103 C1101 1.327 . S
C1103 C1119 1.429 . S
C1103 H1125 0.950 . S
C1104 H1100 0.949 . S
C1104 C1112 1.574 . S
C1104 C1120 1.368 . S
H1105 C1113 0.950 . S
H1106 C1111 0.950 . S
H1107 C1112 0.949 . S
H1108 C1114 0.950 . S
H1109 C1115 0.950 . S
H1110 C1116 0.949 . S
C1111 H1106 0.950 . S
C1111 C1113 1.327 . S
C1111 C1117 1.429 . S
C1112 C1104 1.574 . S
C1112 H1107 0.949 . S
C1112 C1118 1.368 . S
C1113 C1097 1.349 . S
C1113 H1105 0.950 . S
C1113 C1111 1.327 . S
C1114 C1102 1.349 . S
C1114 H1108 0.950 . S
C1114 C1115 1.327 . S
C1115 H1109 0.950 . S
C1115 C1114 1.327 . S
C1115 C1119 1.429 . S
C1116 C1099 1.574 . S
C1116 H1110 0.949 . S
C1116 C1120 1.368 . S
C1117 C1098 1.429 . S
C1117 C1111 1.429 . S
C1117 C1118 1.523 . S
C1118 C1099 1.368 . S
C1118 C1112 1.368 . S
C1118 C1117 1.523 . S
C1119 C1103 1.429 . S
C1119 C1115 1.429 . S
C1119 C1120 1.523 . S
C1120 C1104 1.368 . S
C1120 C1116 1.368 . S
C1120 C1119 1.523 . S
H1121 C1096 0.950 . S
H1122 C1098 0.950 . S
H1123 C1099 0.949 . S
H1124 C1101 0.950 . S
H1125 C1103 0.950 . S
C1126 C1127 1.349 . S
C1126 C1128 1.327 . S
C1126 H1151 0.950 . S
C1127 C1126 1.349 . S
C1127 C1143 1.349 . S
C1128 C1126 1.327 . S
C1128 C1147 1.429 . S
C1128 H1152 0.950 . S
C1129 C1146 1.574 . S
C1129 C1148 1.368 . S
C1129 H1153 0.949 . S
H1130 C1134 0.949 . S
C1131 C1132 1.349 . S
C1131 C1133 1.327 . S
C1131 H1154 0.950 . S
C1132 C1131 1.349 . S
C1132 C1144 1.349 . S
C1133 C1131 1.327 . S
C1133 C1149 1.429 . S
C1133 H1155 0.950 . S
C1134 H1130 0.949 . S
C1134 C1142 1.574 . S
C1134 C1150 1.368 . S
H1135 C1143 0.950 . S
H1136 C1141 0.950 . S
H1137 C1142 0.949 . S
H1138 C1144 0.950 . S
H1139 C1145 0.950 . S
H1140 C1146 0.949 . S
C1141 H1136 0.950 . S
C1141 C1143 1.327 . S
C1141 C1147 1.429 . S
C1142 C1134 1.574 . S
C1142 H1137 0.949 . S
C1142 C1148 1.368 . S
C1143 C1127 1.349 . S
C1143 H1135 0.950 . S
C1143 C1141 1.327 . S
C1144 C1132 1.349 . S
C1144 H1138 0.950 . S
C1144 C1145 1.327 . S
C1145 H1139 0.950 . S
C1145 C1144 1.327 . S
C1145 C1149 1.429 . S
C1146 C1129 1.574 . S
C1146 H1140 0.949 . S
C1146 C1150 1.368 . S
C1147 C1128 1.429 . S
C1147 C1141 1.429 . S
C1147 C1148 1.523 . S
C1148 C1129 1.368 . S
C1148 C1142 1.368 . S
C1148 C1147 1.523 . S
C1149 C1133 1.429 . S
C1149 C1145 1.429 . S
C1149 C1150 1.523 . S
C1150 C1134 1.368 . S
C1150 C1146 1.368 . S
C1150 C1149 1.523 . S
H1151 C1126 0.950 . S
H1152 C1128 0.950 . S
H1153 C1129 0.949 . S
H1154 C1131 0.950 . S
H1155 C1133 0.950 . S
C1156 C1157 1.349 . S
C1156 C1158 1.327 . S
C1156 H1181 0.950 . S
C1157 C1156 1.349 . S
C1157 C1173 1.349 . S
C1158 C1156 1.327 . S
C1158 C1177 1.429 . S
C1158 H1182 0.950 . S
C1159 C1176 1.574 . S
C1159 C1178 1.368 . S
C1159 H1183 0.949 . S
H1160 C1164 0.949 . S
C1161 C1162 1.349 . S
C1161 C1163 1.327 . S
C1161 H1184 0.950 . S
C1162 C1161 1.349 . S
C1162 C1174 1.349 . S
C1163 C1161 1.327 . S
C1163 C1179 1.429 . S
C1163 H1185 0.950 . S
C1164 H1160 0.949 . S
C1164 C1172 1.574 . S
C1164 C1180 1.368 . S
H1165 C1173 0.950 . S
H1166 C1171 0.950 . S
H1167 C1172 0.949 . S
H1168 C1174 0.950 . S
H1169 C1175 0.950 . S
H1170 C1176 0.949 . S
C1171 H1166 0.950 . S
C1171 C1173 1.327 . S
C1171 C1177 1.429 . S
C1172 C1164 1.574 . S
C1172 H1167 0.949 . S
C1172 C1178 1.368 . S
C1173 C1157 1.349 . S
C1173 H1165 0.950 . S
C1173 C1171 1.327 . S
C1174 C1162 1.349 . S
C1174 H1168 0.950 . S
C1174 C1175 1.327 . S
C1175 H1169 0.950 . S
C1175 C1174 1.327 . S
C1175 C1179 1.429 . S
C1176 C1159 1.574 . S
C1176 H1170 0.949 . S
C1176 C1180 1.368 . S
C1177 C1158 1.429 . S
C1177 C1171 1.429 . S
C1177 C1178 1.523 . S
C1178 C1159 1.368 . S
C1178 C1172 1.368 . S
C1178 C1177 1.523 . S
C1179 C1163 1.429 . S
C1179 C1175 1.429 . S
C1179 C1180 1.523 . S
C1180 C1164 1.368 . S
C1180 C1176 1.368 . S
C1180 C1179 1.523 . S
H1181 C1156 0.950 . S
H1182 C1158 0.950 . S
H1183 C1159 0.949 . S
H1184 C1161 0.950 . S
H1185 C1163 0.950 . S
C1186 C1187 1.349 . S
C1186 C1188 1.327 . S
C1186 H1211 0.950 . S
C1187 C1186 1.349 . S
C1187 C1203 1.349 . S
C1188 C1186 1.327 . S
C1188 C1207 1.429 . S
C1188 H1212 0.950 . S
C1189 C1206 1.574 . S
C1189 C1208 1.368 . S
C1189 H1213 0.949 . S
H1190 C1194 0.949 . S
C1191 C1192 1.349 . S
C1191 C1193 1.327 . S
C1191 H1214 0.950 . S
C1192 C1191 1.349 . S
C1192 C1204 1.349 . S
C1193 C1191 1.327 . S
C1193 C1209 1.429 . S
C1193 H1215 0.950 . S
C1194 H1190 0.949 . S
C1194 C1202 1.574 . S
C1194 C1210 1.368 . S
H1195 C1203 0.950 . S
H1196 C1201 0.950 . S
H1197 C1202 0.949 . S
H1198 C1204 0.950 . S
H1199 C1205 0.950 . S
H1200 C1206 0.949 . S
C1201 H1196 0.950 . S
C1201 C1203 1.327 . S
C1201 C1207 1.429 . S
C1202 C1194 1.574 . S
C1202 H1197 0.949 . S
C1202 C1208 1.368 . S
C1203 C1187 1.349 . S
C1203 H1195 0.950 . S
C1203 C1201 1.327 . S
C1204 C1192 1.349 . S
C1204 H1198 0.950 . S
C1204 C1205 1.327 . S
C1205 H1199 0.950 . S
C1205 C1204 1.327 . S
C1205 C1209 1.429 . S
C1206 C1189 1.574 . S
C1206 H1200 0.949 . S
C1206 C1210 1.368 . S
C1207 C1188 1.429 . S
C1207 C1201 1.429 . S
C1207 C1208 1.523 . S
C1208 C1189 1.368 . S
C1208 C1202 1.368 . S
C1208 C1207 1.523 . S
C1209 C1193 1.429 . S
C1209 C1205 1.429 . S
C1209 C1210 1.523 . S
C1210 C1194 1.368 . S
C1210 C1206 1.368 . S
C1210 C1209 1.523 . S
H1211 C1186 0.950 . S
H1212 C1188 0.950 . S
H1213 C1189 0.949 . S
H1214 C1191 0.950 . S
H1215 C1193 0.950 . S
C1216 C1217 1.349 . S
C1216 C1218 1.327 . S
C1216 H1241 0.950 . S
C1217 C1216 1.349 . S
C1217 C1233 1.349 . S
C1218 C1216 1.327 . S
C1218 C1237 1.429 . S
C1218 H1242 0.950 . S
C1219 C1236 1.574 . S
C1219 C1238 1.368 . S
C1219 H1243 0.949 . S
H1220 C1224 0.949 . S
C1221 C1222 1.349 . S
C1221 C1223 1.327 . S
C1221 H1244 0.950 . S
C1222 C1221 1.349 . S
C1222 C1234 1.349 . S
C1223 C1221 1.327 . S
C1223 C1239 1.429 . S
C1223 H1245 0.950 . S
C1224 H1220 0.949 . S
C1224 C1232 1.574 . S
C1224 C1240 1.368 . S
H1225 C1233 0.950 . S
H1226 C1231 0.950 . S
H1227 C1232 0.949 . S
H1228 C1234 0.950 . S
H1229 C1235 0.950 . S
H1230 C1236 0.949 . S
C1231 H1226 0.950 . S
C1231 C1233 1.327 . S
C1231 C1237 1.429 . S
C1232 C1224 1.574 . S
C1232 H1227 0.949 . S
C1232 C1238 1.368 . S
C1233 C1217 1.349 . S
C1233 H1225 0.950 . S
C1233 C1231 1.327 . S
C1234 C1222 1.349 . S
C1234 H1228 0.950 . S
C1234 C1235 1.327 . S
C1235 H1229 0.950 . S
C1235 C1234 1.327 . S
C1235 C1239 1.429 . S
C1236 C1219 1.574 . S
C1236 H1230 0.949 . S
C1236 C1240 1.368 . S
C1237 C1218 1.429 . S
C1237 C1231 1.429 . S
C1237 C1238 1.523 . S
C1238 C1219 1.368 . S
C1238 C1232 1.368 . S
C1238 C1237 1.523 . S
C1239 C1223 1.429 . S
C1239 C1235 1.429 . S
C1239 C1240 1.523 . S
C1240 C1224 1.368 . S
C1240 C1236 1.368 . S
C1240 C1239 1.523 . S
H1241 C1216 0.950 . S
H1242 C1218 0.950 . S
H1243 C1219 0.949 . S
H1244 C1221 0.950 . S
H1245 C1223 0.950 . S
C1246 C1247 1.349 . S
C1246 C1248 1.327 . S
C1246 H1271 0.950 . S
C1247 C1246 1.349 . S
C1247 C1263 1.349 . S
C1248 C1246 1.327 . S
C1248 C1267 1.429 . S
C1248 H1272 0.950 . S
C1249 C1266 1.574 . S
C1249 C1268 1.368 . S
C1249 H1273 0.949 . S
H1250 C1254 0.949 . S
C1251 C1252 1.349 . S
C1251 C1253 1.327 . S
C1251 H1274 0.950 . S
C1252 C1251 1.349 . S
C1252 C1264 1.349 . S
C1253 C1251 1.327 . S
C1253 C1269 1.429 . S
C1253 H1275 0.950 . S
C1254 H1250 0.949 . S
C1254 C1262 1.574 . S
C1254 C1270 1.368 . S
H1255 C1263 0.950 . S
H1256 C1261 0.950 . S
H1257 C1262 0.949 . S
H1258 C1264 0.950 . S
H1259 C1265 0.950 . S
H1260 C1266 0.949 . S
C1261 H1256 0.950 . S
C1261 C1263 1.327 . S
C1261 C1267 1.429 . S
C1262 C1254 1.574 . S
C1262 H1257 0.949 . S
C1262 C1268 1.368 . S
C1263 C1247 1.349 . S
C1263 H1255 0.950 . S
C1263 C1261 1.327 . S
C1264 C1252 1.349 . S
C1264 H1258 0.950 . S
C1264 C1265 1.327 . S
C1265 H1259 0.950 . S
C1265 C1264 1.327 . S
C1265 C1269 1.429 . S
C1266 C1249 1.574 . S
C1266 H1260 0.949 . S
C1266 C1270 1.368 . S
C1267 C1248 1.429 . S
C1267 C1261 1.429 . S
C1267 C1268 1.523 . S
C1268 C1249 1.368 . S
C1268 C1262 1.368 . S
C1268 C1267 1.523 . S
C1269 C1253 1.429 . S
C1269 C1265 1.429 . S
C1269 C1270 1.523 . S
C1270 C1254 1.368 . S
C1270 C1266 1.368 . S
C1270 C1269 1.523 . S
H1271 C1246 0.950 . S
H1272 C1248 0.950 . S
H1273 C1249 0.949 . S
H1274 C1251 0.950 . S
H1275 C1253 0.950 . S
C1276 C1277 1.349 . S
C1276 C1278 1.327 . S
C1276 H1301 0.950 . S
C1277 C1276 1.349 . S
C1277 C1293 1.349 . S
C1278 C1276 1.327 . S
C1278 C1297 1.429 . S
C1278 H1302 0.950 . S
C1279 C1296 1.574 . S
C1279 C1298 1.368 . S
C1279 H1303 0.949 . S
H1280 C1284 0.949 . S
C1281 C1282 1.349 . S
C1281 C1283 1.327 . S
C1281 H1304 0.950 . S
C1282 C1281 1.349 . S
C1282 C1294 1.349 . S
C1283 C1281 1.327 . S
C1283 C1299 1.429 . S
C1283 H1305 0.950 . S
C1284 H1280 0.949 . S
C1284 C1292 1.574 . S
C1284 C1300 1.368 . S
H1285 C1293 0.950 . S
H1286 C1291 0.950 . S
H1287 C1292 0.949 . S
H1288 C1294 0.950 . S
H1289 C1295 0.950 . S
H1290 C1296 0.949 . S
C1291 H1286 0.950 . S
C1291 C1293 1.327 . S
C1291 C1297 1.429 . S
C1292 C1284 1.574 . S
C1292 H1287 0.949 . S
C1292 C1298 1.368 . S
C1293 C1277 1.349 . S
C1293 H1285 0.950 . S
C1293 C1291 1.327 . S
C1294 C1282 1.349 . S
C1294 H1288 0.950 . S
C1294 C1295 1.327 . S
C1295 H1289 0.950 . S
C1295 C1294 1.327 . S
C1295 C1299 1.429 . S
C1296 C1279 1.574 . S
C1296 H1290 0.949 . S
C1296 C1300 1.368 . S
C1297 C1278 1.429 . S
C1297 C1291 1.429 . S
C1297 C1298 1.523 . S
C1298 C1279 1.368 . S
C1298 C1292 1.368 . S
C1298 C1297 1.523 . S
C1299 C1283 1.429 . S
C1299 C1295 1.429 . S
C1299 C1300 1.523 . S
C1300 C1284 1.368 . S
C1300 C1296 1.368 . S
C1300 C1299 1.523 . S
H1301 C1276 0.950 . S
H1302 C1278 0.950 . S
H1303 C1279 0.949 . S
H1304 C1281 0.950 . S
H1305 C1283 0.950 . S
C1306 C1307 1.349 . S
C1306 C1308 1.327 . S
C1306 H1331 0.950 . S
C1307 C1306 1.349 . S
C1307 C1323 1.349 . S
C1308 C1306 1.327 . S
C1308 C1327 1.429 . S
C1308 H1332 0.950 . S
C1309 C1326 1.574 . S
C1309 C1328 1.368 . S
C1309 H1333 0.949 . S
H1310 C1314 0.949 . S
C1311 C1312 1.349 . S
C1311 C1313 1.327 . S
C1311 H1334 0.950 . S
C1312 C1311 1.349 . S
C1312 C1324 1.349 . S
C1313 C1311 1.327 . S
C1313 C1329 1.429 . S
C1313 H1335 0.950 . S
C1314 H1310 0.949 . S
C1314 C1322 1.574 . S
C1314 C1330 1.368 . S
H1315 C1323 0.950 . S
H1316 C1321 0.950 . S
H1317 C1322 0.949 . S
H1318 C1324 0.950 . S
H1319 C1325 0.950 . S
H1320 C1326 0.949 . S
C1321 H1316 0.950 . S
C1321 C1323 1.327 . S
C1321 C1327 1.429 . S
C1322 C1314 1.574 . S
C1322 H1317 0.949 . S
C1322 C1328 1.368 . S
C1323 C1307 1.349 . S
C1323 H1315 0.950 . S
C1323 C1321 1.327 . S
C1324 C1312 1.349 . S
C1324 H1318 0.950 . S
C1324 C1325 1.327 . S
C1325 H1319 0.950 . S
C1325 C1324 1.327 . S
C1325 C1329 1.429 . S
C1326 C1309 1.574 . S
C1326 H1320 0.949 . S
C1326 C1330 1.368 . S
C1327 C1308 1.429 . S
C1327 C1321 1.429 . S
C1327 C1328 1.523 . S
C1328 C1309 1.368 . S
C1328 C1322 1.368 . S
C1328 C1327 1.523 . S
C1329 C1313 1.429 . S
C1329 C1325 1.429 . S
C1329 C1330 1.523 . S
C1330 C1314 1.368 . S
C1330 C1326 1.368 . S
C1330 C1329 1.523 . S
H1331 C1306 0.950 . S
H1332 C1308 0.950 . S
H1333 C1309 0.949 . S
H1334 C1311 0.950 . S
H1335 C1313 0.950 . S
C1336 C1337 1.349 . S
C1336 C1338 1.327 . S
C1336 H1361 0.950 . S
C1337 C1336 1.349 . S
C1337 C1353 1.349 . S
C1338 C1336 1.327 . S
C1338 C1357 1.429 . S
C1338 H1362 0.950 . S
C1339 C1356 1.574 . S
C1339 C1358 1.368 . S
C1339 H1363 0.949 . S
H1340 C1344 0.949 . S
C1341 C1342 1.349 . S
C1341 C1343 1.327 . S
C1341 H1364 0.950 . S
C1342 C1341 1.349 . S
C1342 C1354 1.349 . S
C1343 C1341 1.327 . S
C1343 C1359 1.429 . S
C1343 H1365 0.950 . S
C1344 H1340 0.949 . S
C1344 C1352 1.574 . S
C1344 C1360 1.368 . S
H1345 C1353 0.950 . S
H1346 C1351 0.950 . S
H1347 C1352 0.949 . S
H1348 C1354 0.950 . S
H1349 C1355 0.950 . S
H1350 C1356 0.949 . S
C1351 H1346 0.950 . S
C1351 C1353 1.327 . S
C1351 C1357 1.429 . S
C1352 C1344 1.574 . S
C1352 H1347 0.949 . S
C1352 C1358 1.368 . S
C1353 C1337 1.349 . S
C1353 H1345 0.950 . S
C1353 C1351 1.327 . S
C1354 C1342 1.349 . S
C1354 H1348 0.950 . S
C1354 C1355 1.327 . S
C1355 H1349 0.950 . S
C1355 C1354 1.327 . S
C1355 C1359 1.429 . S
C1356 C1339 1.574 . S
C1356 H1350 0.949 . S
C1356 C1360 1.368 . S
C1357 C1338 1.429 . S
C1357 C1351 1.429 . S
C1357 C1358 1.523 . S
C1358 C1339 1.368 . S
C1358 C1352 1.368 . S
C1358 C1357 1.523 . S
C1359 C1343 1.429 . S
C1359 C1355 1.429 . S
C1359 C1360 1.523 . S
C1360 C1344 1.368 . S
C1360 C1356 1.368 . S
C1360 C1359 1.523 . S
H1361 C1336 0.950 . S
H1362 C1338 0.950 . S
H1363 C1339 0.949 . S
H1364 C1341 0.950 . S
H1365 C1343 0.950 . S
C1366 C1367 1.349 . S
C1366 C1368 1.327 . S
C1366 H1391 0.950 . S
C1367 C1366 1.349 . S
C1367 C1383 1.349 . S
C1368 C1366 1.327 . S
C1368 C1387 1.429 . S
C1368 H1392 0.950 . S
C1369 C1386 1.574 . S
C1369 C1388 1.368 . S
C1369 H1393 0.949 . S
H1370 C1374 0.949 . S
C1371 C1372 1.349 . S
C1371 C1373 1.327 . S
C1371 H1394 0.950 . S
C1372 C1371 1.349 . S
C1372 C1384 1.349 . S
C1373 C1371 1.327 . S
C1373 C1389 1.429 . S
C1373 H1395 0.950 . S
C1374 H1370 0.949 . S
C1374 C1382 1.574 . S
C1374 C1390 1.368 . S
H1375 C1383 0.950 . S
H1376 C1381 0.950 . S
H1377 C1382 0.949 . S
H1378 C1384 0.950 . S
H1379 C1385 0.950 . S
H1380 C1386 0.949 . S
C1381 H1376 0.950 . S
C1381 C1383 1.327 . S
C1381 C1387 1.429 . S
C1382 C1374 1.574 . S
C1382 H1377 0.949 . S
C1382 C1388 1.368 . S
C1383 C1367 1.349 . S
C1383 H1375 0.950 . S
C1383 C1381 1.327 . S
C1384 C1372 1.349 . S
C1384 H1378 0.950 . S
C1384 C1385 1.327 . S
C1385 H1379 0.950 . S
C1385 C1384 1.327 . S
C1385 C1389 1.429 . S
C1386 C1369 1.574 . S
C1386 H1380 0.949 . S
C1386 C1390 1.368 . S
C1387 C1368 1.429 . S
C1387 C1381 1.429 . S
C1387 C1388 1.523 . S
C1388 C1369 1.368 . S
C1388 C1382 1.368 . S
C1388 C1387 1.523 . S
C1389 C1373 1.429 . S
C1389 C1385 1.429 . S
C1389 C1390 1.523 . S
C1390 C1374 1.368 . S
C1390 C1386 1.368 . S
C1390 C1389 1.523 . S
H1391 C1366 0.950 . S
H1392 C1368 0.950 . S
H1393 C1369 0.949 . S
H1394 C1371 0.950 . S
H1395 C1373 0.950 . S
C1396 C1397 1.349 . S
C1396 C1398 1.327 . S
C1396 H1421 0.950 . S
C1397 C1396 1.349 . S
C1397 C1413 1.349 . S
C1398 C1396 1.327 . S
C1398 C1417 1.429 . S
C1398 H1422 0.950 . S
C1399 C1416 1.574 . S
C1399 C1418 1.368 . S
C1399 H1423 0.949 . S
H1400 C1404 0.949 . S
C1401 C1402 1.349 . S
C1401 C1403 1.327 . S
C1401 H1424 0.950 . S
C1402 C1401 1.349 . S
C1402 C1414 1.349 . S
C1403 C1401 1.327 . S
C1403 C1419 1.429 . S
C1403 H1425 0.950 . S
C1404 H1400 0.949 . S
C1404 C1412 1.574 . S
C1404 C1420 1.368 . S
H1405 C1413 0.950 . S
H1406 C1411 0.950 . S
H1407 C1412 0.949 . S
H1408 C1414 0.950 . S
H1409 C1415 0.950 . S
H1410 C1416 0.949 . S
C1411 H1406 0.950 . S
C1411 C1413 1.327 . S
C1411 C1417 1.429 . S
C1412 C1404 1.574 . S
C1412 H1407 0.949 . S
C1412 C1418 1.368 . S
C1413 C1397 1.349 . S
C1413 H1405 0.950 . S
C1413 C1411 1.327 . S
C1414 C1402 1.349 . S
C1414 H1408 0.950 . S
C1414 C1415 1.327 . S
C1415 H1409 0.950 . S
C1415 C1414 1.327 . S
C1415 C1419 1.429 . S
C1416 C1399 1.574 . S
C1416 H1410 0.949 . S
C1416 C1420 1.368 . S
C1417 C1398 1.429 . S
C1417 C1411 1.429 . S
C1417 C1418 1.523 . S
C1418 C1399 1.368 . S
C1418 C1412 1.368 . S
C1418 C1417 1.523 . S
C1419 C1403 1.429 . S
C1419 C1415 1.429 . S
C1419 C1420 1.523 . S
C1420 C1404 1.368 . S
C1420 C1416 1.368 . S
C1420 C1419 1.523 . S
H1421 C1396 0.950 . S
H1422 C1398 0.950 . S
H1423 C1399 0.949 . S
H1424 C1401 0.950 . S
H1425 C1403 0.950 . S
C1426 C1427 1.349 . S
C1426 C1428 1.327 . S
C1426 H1451 0.950 . S
C1427 C1426 1.349 . S
C1427 C1443 1.349 . S
C1428 C1426 1.327 . S
C1428 C1447 1.429 . S
C1428 H1452 0.950 . S
C1429 C1446 1.574 . S
C1429 C1448 1.368 . S
C1429 H1453 0.949 . S
H1430 C1434 0.949 . S
C1431 C1432 1.349 . S
C1431 C1433 1.327 . S
C1431 H1454 0.950 . S
C1432 C1431 1.349 . S
C1432 C1444 1.349 . S
C1433 C1431 1.327 . S
C1433 C1449 1.429 . S
C1433 H1455 0.950 . S
C1434 H1430 0.949 . S
C1434 C1442 1.574 . S
C1434 C1450 1.368 . S
H1435 C1443 0.950 . S
H1436 C1441 0.950 . S
H1437 C1442 0.949 . S
H1438 C1444 0.950 . S
H1439 C1445 0.950 . S
H1440 C1446 0.949 . S
C1441 H1436 0.950 . S
C1441 C1443 1.327 . S
C1441 C1447 1.429 . S
C1442 C1434 1.574 . S
C1442 H1437 0.949 . S
C1442 C1448 1.368 . S
C1443 C1427 1.349 . S
C1443 H1435 0.950 . S
C1443 C1441 1.327 . S
C1444 C1432 1.349 . S
C1444 H1438 0.950 . S
C1444 C1445 1.327 . S
C1445 H1439 0.950 . S
C1445 C1444 1.327 . S
C1445 C1449 1.429 . S
C1446 C1429 1.574 . S
C1446 H1440 0.949 . S
C1446 C1450 1.368 . S
C1447 C1428 1.429 . S
C1447 C1441 1.429 . S
C1447 C1448 1.523 . S
C1448 C1429 1.368 . S
C1448 C1442 1.368 . S
C1448 C1447 1.523 . S
C1449 C1433 1.429 . S
C1449 C1445 1.429 . S
C1449 C1450 1.523 . S
C1450 C1434 1.368 . S
C1450 C1446 1.368 . S
C1450 C1449 1.523 . S
H1451 C1426 0.950 . S
H1452 C1428 0.950 . S
H1453 C1429 0.949 . S
H1454 C1431 0.950 . S
H1455 C1433 0.950 . S
C1456 C1457 1.349 . S
C1456 C1458 1.327 . S
C1456 H1481 0.950 . S
C1457 C1456 1.349 . S
C1457 C1473 1.349 . S
C1458 C1456 1.327 . S
C1458 C1477 1.429 . S
C1458 H1482 0.950 . S
C1459 C1476 1.574 . S
C1459 C1478 1.368 . S
C1459 H1483 0.949 . S
H1460 C1464 0.949 . S
C1461 C1462 1.349 . S
C1461 C1463 1.327 . S
C1461 H1484 0.950 . S
C1462 C1461 1.349 . S
C1462 C1474 1.349 . S
C1463 C1461 1.327 . S
C1463 C1479 1.429 . S
C1463 H1485 0.950 . S
C1464 H1460 0.949 . S
C1464 C1472 1.574 . S
C1464 C1480 1.368 . S
H1465 C1473 0.950 . S
H1466 C1471 0.950 . S
H1467 C1472 0.949 . S
H1468 C1474 0.950 . S
H1469 C1475 0.950 . S
H1470 C1476 0.949 . S
C1471 H1466 0.950 . S
C1471 C1473 1.327 . S
C1471 C1477 1.429 . S
C1472 C1464 1.574 . S
C1472 H1467 0.949 . S
C1472 C1478 1.368 . S
C1473 C1457 1.349 . S
C1473 H1465 0.950 . S
C1473 C1471 1.327 . S
C1474 C1462 1.349 . S
C1474 H1468 0.950 . S
C1474 C1475 1.327 . S
C1475 H1469 0.950 . S
C1475 C1474 1.327 . S
C1475 C1479 1.429 . S
C1476 C1459 1.574 . S
C1476 H1470 0.949 . S
C1476 C1480 1.368 . S
C1477 C1458 1.429 . S
C1477 C1471 1.429 . S
C1477 C1478 1.523 . S
C1478 C1459 1.368 . S
C1478 C1472 1.368 . S
C1478 C1477 1.523 . S
C1479 C1463 1.429 . S
C1479 C1475 1.429 . S
C1479 C1480 1.523 . S
C1480 C1464 1.368 . S
C1480 C1476 1.368 . S
C1480 C1479 1.523 . S
H1481 C1456 0.950 . S
H1482 C1458 0.950 . S
H1483 C1459 0.949 . S
H1484 C1461 0.950 . S
H1485 C1463 0.950 . S
C1486 C1487 1.349 . S
C1486 C1488 1.327 . S
C1486 H1511 0.950 . S
C1487 C1486 1.349 . S
C1487 C1503 1.349 . S
C1488 C1486 1.327 . S
C1488 C1507 1.429 . S
C1488 H1512 0.950 . S
C1489 C1506 1.574 . S
C1489 C1508 1.368 . S
C1489 H1513 0.949 . S
H1490 C1494 0.949 . S
C1491 C1492 1.349 . S
C1491 C1493 1.327 . S
C1491 H1514 0.950 . S
C1492 C1491 1.349 . S
C1492 C1504 1.349 . S
C1493 C1491 1.327 . S
C1493 C1509 1.429 . S
C1493 H1515 0.950 . S
C1494 H1490 0.949 . S
C1494 C1502 1.574 . S
C1494 C1510 1.368 . S
H1495 C1503 0.950 . S
H1496 C1501 0.950 . S
H1497 C1502 0.949 . S
H1498 C1504 0.950 . S
H1499 C1505 0.950 . S
H1500 C1506 0.949 . S
C1501 H1496 0.950 . S
C1501 C1503 1.327 . S
C1501 C1507 1.429 . S
C1502 C1494 1.574 . S
C1502 H1497 0.949 . S
C1502 C1508 1.368 . S
C1503 C1487 1.349 . S
C1503 H1495 0.950 . S
C1503 C1501 1.327 . S
C1504 C1492 1.349 . S
C1504 H1498 0.950 . S
C1504 C1505 1.327 . S
C1505 H1499 0.950 . S
C1505 C1504 1.327 . S
C1505 C1509 1.429 . S
C1506 C1489 1.574 . S
C1506 H1500 0.949 . S
C1506 C1510 1.368 . S
C1507 C1488 1.429 . S
C1507 C1501 1.429 . S
C1507 C1508 1.523 . S
C1508 C1489 1.368 . S
C1508 C1502 1.368 . S
C1508 C1507 1.523 . S
C1509 C1493 1.429 . S
C1509 C1505 1.429 . S
C1509 C1510 1.523 . S
C1510 C1494 1.368 . S
C1510 C1506 1.368 . S
C1510 C1509 1.523 . S
H1511 C1486 0.950 . S
H1512 C1488 0.950 . S
H1513 C1489 0.949 . S
H1514 C1491 0.950 . S
H1515 C1493 0.950 . S
C1516 C1517 1.349 . S
C1516 C1518 1.327 . S
C1516 H1541 0.950 . S
C1517 C1516 1.349 . S
C1517 C1533 1.349 . S
C1518 C1516 1.327 . S
C1518 C1537 1.429 . S
C1518 H1542 0.950 . S
C1519 C1536 1.574 . S
C1519 C1538 1.368 . S
C1519 H1543 0.949 . S
H1520 C1524 0.949 . S
C1521 C1522 1.349 . S
C1521 C1523 1.327 . S
C1521 H1544 0.950 . S
C1522 C1521 1.349 . S
C1522 C1534 1.349 . S
C1523 C1521 1.327 . S
C1523 C1539 1.429 . S
C1523 H1545 0.950 . S
C1524 H1520 0.949 . S
C1524 C1532 1.574 . S
C1524 C1540 1.368 . S
H1525 C1533 0.950 . S
H1526 C1531 0.950 . S
H1527 C1532 0.949 . S
H1528 C1534 0.950 . S
H1529 C1535 0.950 . S
H1530 C1536 0.949 . S
C1531 H1526 0.950 . S
C1531 C1533 1.327 . S
C1531 C1537 1.429 . S
C1532 C1524 1.574 . S
C1532 H1527 0.949 . S
C1532 C1538 1.368 . S
C1533 C1517 1.349 . S
C1533 H1525 0.950 . S
C1533 C1531 1.327 . S
C1534 C1522 1.349 . S
C1534 H1528 0.950 . S
C1534 C1535 1.327 . S
C1535 H1529 0.950 . S
C1535 C1534 1.327 . S
C1535 C1539 1.429 . S
C1536 C1519 1.574 . S
C1536 H1530 0.949 . S
C1536 C1540 1.368 . S
C1537 C1518 1.429 . S
C1537 C1531 1.429 . S
C1537 C1538 1.523 . S
C1538 C1519 1.368 . S
C1538 C1532 1.368 . S
C1538 C1537 1.523 . S
C1539 C1523 1.429 . S
C1539 C1535 1.429 . S
C1539 C1540 1.523 . S
C1540 C1524 1.368 . S
C1540 C1536 1.368 . S
C1540 C1539 1.523 . S
H1541 C1516 0.950 . S
H1542 C1518 0.950 . S
H1543 C1519 0.949 . S
H1544 C1521 0.950 . S
H1545 C1523 0.950 . S
C1546 C1547 1.349 . S
C1546 C1548 1.327 . S
C1546 H1571 0.950 . S
C1547 C1546 1.349 . S
C1547 C1563 1.349 . S
C1548 C1546 1.327 . S
C1548 C1567 1.429 . S
C1548 H1572 0.950 . S
C1549 C1566 1.574 . S
C1549 C1568 1.368 . S
C1549 H1573 0.949 . S
H1550 C1554 0.949 . S
C1551 C1552 1.349 . S
C1551 C1553 1.327 . S
C1551 H1574 0.950 . S
C1552 C1551 1.349 . S
C1552 C1564 1.349 . S
C1553 C1551 1.327 . S
C1553 C1569 1.429 . S
C1553 H1575 0.950 . S
C1554 H1550 0.949 . S
C1554 C1562 1.574 . S
C1554 C1570 1.368 . S
H1555 C1563 0.950 . S
H1556 C1561 0.950 . S
H1557 C1562 0.949 . S
H1558 C1564 0.950 . S
H1559 C1565 0.950 . S
H1560 C1566 0.949 . S
C1561 H1556 0.950 . S
C1561 C1563 1.327 . S
C1561 C1567 1.429 . S
C1562 C1554 1.574 . S
C1562 H1557 0.949 . S
C1562 C1568 1.368 . S
C1563 C1547 1.349 . S
C1563 H1555 0.950 . S
C1563 C1561 1.327 . S
C1564 C1552 1.349 . S
C1564 H1558 0.950 . S
C1564 C1565 1.327 . S
C1565 H1559 0.950 . S
C1565 C1564 1.327 . S
C1565 C1569 1.429 . S
C1566 C1549 1.574 . S
C1566 H1560 0.949 . S
C1566 C1570 1.368 . S
C1567 C1548 1.429 . S
C1567 C1561 1.429 . S
C1567 C1568 1.523 . S
C1568 C1549 1.368 . S
C1568 C1562 1.368 . S
C1568 C1567 1.523 . S
C1569 C1553 1.429 . S
C1569 C1565 1.429 . S
C1569 C1570 1.523 . S
C1570 C1554 1.368 . S
C1570 C1566 1.368 . S
C1570 C1569 1.523 . S
H1571 C1546 0.950 . S
H1572 C1548 0.950 . S
H1573 C1549 0.949 . S
H1574 C1551 0.950 . S
H1575 C1553 0.950 . S
C1576 C1577 1.349 . S
C1576 C1578 1.327 . S
C1576 H1601 0.950 . S
C1577 C1576 1.349 . S
C1577 C1593 1.349 . S
C1578 C1576 1.327 . S
C1578 C1597 1.429 . S
C1578 H1602 0.950 . S
C1579 C1596 1.574 . S
C1579 C1598 1.368 . S
C1579 H1603 0.949 . S
H1580 C1584 0.949 . S
C1581 C1582 1.349 . S
C1581 C1583 1.327 . S
C1581 H1604 0.950 . S
C1582 C1581 1.349 . S
C1582 C1594 1.349 . S
C1583 C1581 1.327 . S
C1583 C1599 1.429 . S
C1583 H1605 0.950 . S
C1584 H1580 0.949 . S
C1584 C1592 1.574 . S
C1584 C1600 1.368 . S
H1585 C1593 0.950 . S
H1586 C1591 0.950 . S
H1587 C1592 0.949 . S
H1588 C1594 0.950 . S
H1589 C1595 0.950 . S
H1590 C1596 0.949 . S
C1591 H1586 0.950 . S
C1591 C1593 1.327 . S
C1591 C1597 1.429 . S
C1592 C1584 1.574 . S
C1592 H1587 0.949 . S
C1592 C1598 1.368 . S
C1593 C1577 1.349 . S
C1593 H1585 0.950 . S
C1593 C1591 1.327 . S
C1594 C1582 1.349 . S
C1594 H1588 0.950 . S
C1594 C1595 1.327 . S
C1595 H1589 0.950 . S
C1595 C1594 1.327 . S
C1595 C1599 1.429 . S
C1596 C1579 1.574 . S
C1596 H1590 0.949 . S
C1596 C1600 1.368 . S
C1597 C1578 1.429 . S
C1597 C1591 1.429 . S
C1597 C1598 1.523 . S
C1598 C1579 1.368 . S
C1598 C1592 1.368 . S
C1598 C1597 1.523 . S
C1599 C1583 1.429 . S
C1599 C1595 1.429 . S
C1599 C1600 1.523 . S
C1600 C1584 1.368 . S
C1600 C1596 1.368 . S
C1600 C1599 1.523 . S
H1601 C1576 0.950 . S
H1602 C1578 0.950 . S
H1603 C1579 0.949 . S
H1604 C1581 0.950 . S
H1605 C1583 0.950 . S
C1606 C1607 1.349 . S
C1606 C1608 1.327 . S
C1606 H1631 0.950 . S
C1607 C1606 1.349 . S
C1607 C1623 1.349 . S
C1608 C1606 1.327 . S
C1608 C1627 1.429 . S
C1608 H1632 0.950 . S
C1609 C1626 1.574 . S
C1609 C1628 1.368 . S
C1609 H1633 0.949 . S
H1610 C1614 0.949 . S
C1611 C1612 1.349 . S
C1611 C1613 1.327 . S
C1611 H1634 0.950 . S
C1612 C1611 1.349 . S
C1612 C1624 1.349 . S
C1613 C1611 1.327 . S
C1613 C1629 1.429 . S
C1613 H1635 0.950 . S
C1614 H1610 0.949 . S
C1614 C1622 1.574 . S
C1614 C1630 1.368 . S
H1615 C1623 0.950 . S
H1616 C1621 0.950 . S
H1617 C1622 0.949 . S
H1618 C1624 0.950 . S
H1619 C1625 0.950 . S
H1620 C1626 0.949 . S
C1621 H1616 0.950 . S
C1621 C1623 1.327 . S
C1621 C1627 1.429 . S
C1622 C1614 1.574 . S
C1622 H1617 0.949 . S
C1622 C1628 1.368 . S
C1623 C1607 1.349 . S
C1623 H1615 0.950 . S
C1623 C1621 1.327 . S
C1624 C1612 1.349 . S
C1624 H1618 0.950 . S
C1624 C1625 1.327 . S
C1625 H1619 0.950 . S
C1625 C1624 1.327 . S
C1625 C1629 1.429 . S
C1626 C1609 1.574 . S
C1626 H1620 0.949 . S
C1626 C1630 1.368 . S
C1627 C1608 1.429 . S
C1627 C1621 1.429 . S
C1627 C1628 1.523 . S
C1628 C1609 1.368 . S
C1628 C1622 1.368 . S
C1628 C1627 1.523 . S
C1629 C1613 1.429 . S
C1629 C1625 1.429 . S
C1629 C1630 1.523 . S
C1630 C1614 1.368 . S
C1630 C1626 1.368 . S
C1630 C1629 1.523 . S
H1631 C1606 0.950 . S
H1632 C1608 0.950 . S
H1633 C1609 0.949 . S
H1634 C1611 0.950 . S
H1635 C1613 0.950 . S
C1636 C1637 1.349 . S
C1636 C1638 1.327 . S
C1636 H1661 0.950 . S
C1637 C1636 1.349 . S
C1637 C1653 1.349 . S
C1638 C1636 1.327 . S
C1638 C1657 1.429 . S
C1638 H1662 0.950 . S
C1639 C1656 1.574 . S
C1639 C1658 1.368 . S
C1639 H1663 0.949 . S
H1640 C1644 0.949 . S
C1641 C1642 1.349 . S
C1641 C1643 1.327 . S
C1641 H1664 0.950 . S
C1642 C1641 1.349 . S
C1642 C1654 1.349 . S
C1643 C1641 1.327 . S
C1643 C1659 1.429 . S
C1643 H1665 0.950 . S
C1644 H1640 0.949 . S
C1644 C1652 1.574 . S
C1644 C1660 1.368 . S
H1645 C1653 0.950 . S
H1646 C1651 0.950 . S
H1647 C1652 0.949 . S
H1648 C1654 0.950 . S
H1649 C1655 0.950 . S
H1650 C1656 0.949 . S
C1651 H1646 0.950 . S
C1651 C1653 1.327 . S
C1651 C1657 1.429 . S
C1652 C1644 1.574 . S
C1652 H1647 0.949 . S
C1652 C1658 1.368 . S
C1653 C1637 1.349 . S
C1653 H1645 0.950 . S
C1653 C1651 1.327 . S
C1654 C1642 1.349 . S
C1654 H1648 0.950 . S
C1654 C1655 1.327 . S
C1655 H1649 0.950 . S
C1655 C1654 1.327 . S
C1655 C1659 1.429 . S
C1656 C1639 1.574 . S
C1656 H1650 0.949 . S
C1656 C1660 1.368 . S
C1657 C1638 1.429 . S
C1657 C1651 1.429 . S
C1657 C1658 1.523 . S
C1658 C1639 1.368 . S
C1658 C1652 1.368 . S
C1658 C1657 1.523 . S
C1659 C1643 1.429 . S
C1659 C1655 1.429 . S
C1659 C1660 1.523 . S
C1660 C1644 1.368 . S
C1660 C1656 1.368 . S
C1660 C1659 1.523 . S
H1661 C1636 0.950 . S
H1662 C1638 0.950 . S
H1663 C1639 0.949 . S
H1664 C1641 0.950 . S
H1665 C1643 0.950 . S
C1666 C1667 1.349 . S
C1666 C1668 1.327 . S
C1666 H1691 0.950 . S
C1667 C1666 1.349 . S
C1667 C1683 1.349 . S
C1668 C1666 1.327 . S
C1668 C1687 1.429 . S
C1668 H1692 0.950 . S
C1669 C1686 1.574 . S
C1669 C1688 1.368 . S
C1669 H1693 0.949 . S
H1670 C1674 0.949 . S
C1671 C1672 1.349 . S
C1671 C1673 1.327 . S
C1671 H1694 0.950 . S
C1672 C1671 1.349 . S
C1672 C1684 1.349 . S
C1673 C1671 1.327 . S
C1673 C1689 1.429 . S
C1673 H1695 0.950 . S
C1674 H1670 0.949 . S
C1674 C1682 1.574 . S
C1674 C1690 1.368 . S
H1675 C1683 0.950 . S
H1676 C1681 0.950 . S
H1677 C1682 0.949 . S
H1678 C1684 0.950 . S
H1679 C1685 0.950 . S
H1680 C1686 0.949 . S
C1681 H1676 0.950 . S
C1681 C1683 1.327 . S
C1681 C1687 1.429 . S
C1682 C1674 1.574 . S
C1682 H1677 0.949 . S
C1682 C1688 1.368 . S
C1683 C1667 1.349 . S
C1683 H1675 0.950 . S
C1683 C1681 1.327 . S
C1684 C1672 1.349 . S
C1684 H1678 0.950 . S
C1684 C1685 1.327 . S
C1685 H1679 0.950 . S
C1685 C1684 1.327 . S
C1685 C1689 1.429 . S
C1686 C1669 1.574 . S
C1686 H1680 0.949 . S
C1686 C1690 1.368 . S
C1687 C1668 1.429 . S
C1687 C1681 1.429 . S
C1687 C1688 1.523 . S
C1688 C1669 1.368 . S
C1688 C1682 1.368 . S
C1688 C1687 1.523 . S
C1689 C1673 1.429 . S
C1689 C1685 1.429 . S
C1689 C1690 1.523 . S
C1690 C1674 1.368 . S
C1690 C1686 1.368 . S
C1690 C1689 1.523 . S
H1691 C1666 0.950 . S
H1692 C1668 0.950 . S
H1693 C1669 0.949 . S
H1694 C1671 0.950 . S
H1695 C1673 0.950 . S
C1696 C1697 1.349 . S
C1696 C1698 1.327 . S
C1696 H1721 0.950 . S
C1697 C1696 1.349 . S
C1697 C1713 1.349 . S
C1698 C1696 1.327 . S
C1698 C1717 1.429 . S
C1698 H1722 0.950 . S
C1699 C1716 1.574 . S
C1699 C1718 1.368 . S
C1699 H1723 0.949 . S
H1700 C1704 0.949 . S
C1701 C1702 1.349 . S
C1701 C1703 1.327 . S
C1701 H1724 0.950 . S
C1702 C1701 1.349 . S
C1702 C1714 1.349 . S
C1703 C1701 1.327 . S
C1703 C1719 1.429 . S
C1703 H1725 0.950 . S
C1704 H1700 0.949 . S
C1704 C1712 1.574 . S
C1704 C1720 1.368 . S
H1705 C1713 0.950 . S
H1706 C1711 0.950 . S
H1707 C1712 0.949 . S
H1708 C1714 0.950 . S
H1709 C1715 0.950 . S
H1710 C1716 0.949 . S
C1711 H1706 0.950 . S
C1711 C1713 1.327 . S
C1711 C1717 1.429 . S
C1712 C1704 1.574 . S
C1712 H1707 0.949 . S
C1712 C1718 1.368 . S
C1713 C1697 1.349 . S
C1713 H1705 0.950 . S
C1713 C1711 1.327 . S
C1714 C1702 1.349 . S
C1714 H1708 0.950 . S
C1714 C1715 1.327 . S
C1715 H1709 0.950 . S
C1715 C1714 1.327 . S
C1715 C1719 1.429 . S
C1716 C1699 1.574 . S
C1716 H1710 0.949 . S
C1716 C1720 1.368 . S
C1717 C1698 1.429 . S
C1717 C1711 1.429 . S
C1717 C1718 1.523 . S
C1718 C1699 1.368 . S
C1718 C1712 1.368 . S
C1718 C1717 1.523 . S
C1719 C1703 1.429 . S
C1719 C1715 1.429 . S
C1719 C1720 1.523 . S
C1720 C1704 1.368 . S
C1720 C1716 1.368 . S
C1720 C1719 1.523 . S
H1721 C1696 0.950 . S
H1722 C1698 0.950 . S
H1723 C1699 0.949 . S
H1724 C1701 0.950 . S
H1725 C1703 0.950 . S
C1726 C1727 1.349 . S
C1726 C1728 1.327 . S
C1726 H1751 0.950 . S
C1727 C1726 1.349 . S
C1727 C1743 1.349 . S
C1728 C1726 1.327 . S
C1728 C1747 1.429 . S
C1728 H1752 0.950 . S
C1729 C1746 1.574 . S
C1729 C1748 1.368 . S
C1729 H1753 0.949 . S
H1730 C1734 0.949 . S
C1731 C1732 1.349 . S
C1731 C1733 1.327 . S
C1731 H1754 0.950 . S
C1732 C1731 1.349 . S
C1732 C1744 1.349 . S
C1733 C1731 1.327 . S
C1733 C1749 1.429 . S
C1733 H1755 0.950 . S
C1734 H1730 0.949 . S
C1734 C1742 1.574 . S
C1734 C1750 1.368 . S
H1735 C1743 0.950 . S
H1736 C1741 0.950 . S
H1737 C1742 0.949 . S
H1738 C1744 0.950 . S
H1739 C1745 0.950 . S
H1740 C1746 0.949 . S
C1741 H1736 0.950 . S
C1741 C1743 1.327 . S
C1741 C1747 1.429 . S
C1742 C1734 1.574 . S
C1742 H1737 0.949 . S
C1742 C1748 1.368 . S
C1743 C1727 1.349 . S
C1743 H1735 0.950 . S
C1743 C1741 1.327 . S
C1744 C1732 1.349 . S
C1744 H1738 0.950 . S
C1744 C1745 1.327 . S
C1745 H1739 0.950 . S
C1745 C1744 1.327 . S
C1745 C1749 1.429 . S
C1746 C1729 1.574 . S
C1746 H1740 0.949 . S
C1746 C1750 1.368 . S
C1747 C1728 1.429 . S
C1747 C1741 1.429 . S
C1747 C1748 1.523 . S
C1748 C1729 1.368 . S
C1748 C1742 1.368 . S
C1748 C1747 1.523 . S
C1749 C1733 1.429 . S
C1749 C1745 1.429 . S
C1749 C1750 1.523 . S
C1750 C1734 1.368 . S
C1750 C1746 1.368 . S
C1750 C1749 1.523 . S
H1751 C1726 0.950 . S
H1752 C1728 0.950 . S
H1753 C1729 0.949 . S
H1754 C1731 0.950 . S
H1755 C1733 0.950 . S
C1756 C1757 1.349 . S
C1756 C1758 1.327 . S
C1756 H1781 0.950 . S
C1757 C1756 1.349 . S
C1757 C1773 1.349 . S
C1758 C1756 1.327 . S
C1758 C1777 1.429 . S
C1758 H1782 0.950 . S
C1759 C1776 1.574 . S
C1759 C1778 1.368 . S
C1759 H1783 0.949 . S
H1760 C1764 0.949 . S
C1761 C1762 1.349 . S
C1761 C1763 1.327 . S
C1761 H1784 0.950 . S
C1762 C1761 1.349 . S
C1762 C1774 1.349 . S
C1763 C1761 1.327 . S
C1763 C1779 1.429 . S
C1763 H1785 0.950 . S
C1764 H1760 0.949 . S
C1764 C1772 1.574 . S
C1764 C1780 1.368 . S
H1765 C1773 0.950 . S
H1766 C1771 0.950 . S
H1767 C1772 0.949 . S
H1768 C1774 0.950 . S
H1769 C1775 0.950 . S
H1770 C1776 0.949 . S
C1771 H1766 0.950 . S
C1771 C1773 1.327 . S
C1771 C1777 1.429 . S
C1772 C1764 1.574 . S
C1772 H1767 0.949 . S
C1772 C1778 1.368 . S
C1773 C1757 1.349 . S
C1773 H1765 0.950 . S
C1773 C1771 1.327 . S
C1774 C1762 1.349 . S
C1774 H1768 0.950 . S
C1774 C1775 1.327 . S
C1775 H1769 0.950 . S
C1775 C1774 1.327 . S
C1775 C1779 1.429 . S
C1776 C1759 1.574 . S
C1776 H1770 0.949 . S
C1776 C1780 1.368 . S
C1777 C1758 1.429 . S
C1777 C1771 1.429 . S
C1777 C1778 1.523 . S
C1778 C1759 1.368 . S
C1778 C1772 1.368 . S
C1778 C1777 1.523 . S
C1779 C1763 1.429 . S
C1779 C1775 1.429 . S
C1779 C1780 1.523 . S
C1780 C1764 1.368 . S
C1780 C1776 1.368 . S
C1780 C1779 1.523 . S
H1781 C1756 0.950 . S
H1782 C1758 0.950 . S
H1783 C1759 0.949 . S
H1784 C1761 0.950 . S
H1785 C1763 0.950 . S
C352 C171 1.479 . S
C347 C9 1.509 . S
C382 C161 1.400 . S
C377 C22 1.410 . S
C412 C162 0.662 . S
C407 C49 0.655 . S
C437 C61 1.337 . S
C442 C184 1.314 . S
C467 C81 1.410 . S
C472 C187 1.400 . S
C502 C170 0.662 . S
C497 C108 0.652 . S
C527 C122 1.337 . S
C532 C160 1.314 . S
C557 C148 1.512 . S
C562 C178 1.482 . S
C592 C191 2.202 . S
C587 C18 2.190 . S
C617 C39 1.378 . S
C622 C240 1.351 . S
C652 C218 2.278 . S
C647 C58 2.268 . S
C682 C232 0.654 . S
C677 C69 0.635 . S
C707 C89 0.635 . S
C712 C193 0.650 . S
C742 C246 1.331 . S
C737 C102 1.362 . S
C767 C139 1.377 . S
C772 C202 1.350 . S
C797 C142 1.429 . S
C802 C223 1.412 . S
C827 C1 1.429 . S
C832 C249 1.407 . S
C857 C98 1.378 . S
C862 C233 1.352 . S
C892 C192 2.278 . S
C887 C119 2.265 . S
C922 C224 0.654 . S
C917 C128 0.637 . S
C947 C159 2.193 . S
C952 C215 2.205 . S
C977 C41 1.363 . S
C982 C222 1.331 . S
C1012 C209 1.350 . S
C1007 C78 1.376 . S
C1037 C28 0.635 . S
C1042 C201 0.648 . S
C1067 C149 1.512 . S
C1072 C264 1.481 . S
C1097 C82 1.410 . S
C1102 C254 1.401 . S
C1132 C255 0.662 . S
C1127 C109 0.655 . S
C1162 C277 1.314 . S
C1157 C121 1.339 . S
C1187 C21 1.410 . S
C1192 C280 1.398 . S
C1222 C263 0.662 . S
C1217 C48 0.652 . S
C1247 C62 1.337 . S
C1252 C253 1.312 . S
C1277 C8 1.512 . S
C1282 C271 1.478 . S
C1307 C158 2.193 . S
C1312 C284 2.204 . S
C1342 C333 1.351 . S
C1337 C99 1.380 . S
C1367 C118 2.267 . S
C1372 C311 2.276 . S
C1397 C129 0.636 . S
C1402 C325 0.654 . S
C1432 C286 0.649 . S
C1427 C29 0.637 . S
C1457 C42 1.363 . S
C1462 C339 1.332 . S
C1492 C295 1.350 . S
C1487 C79 1.375 . S
C1522 C316 1.409 . S
C1517 C2 1.426 . S
C1552 C342 1.409 . S
C1547 C141 1.431 . S
C1577 C38 1.378 . S
C1582 C326 1.350 . S
C1607 C59 2.267 . S
C1612 C285 2.279 . S
C1642 C317 0.654 . S
C1637 C68 0.638 . S
C1667 C19 2.193 . S
C1672 C308 2.200 . S
C1697 C101 1.363 . S
C1702 C315 1.330 . S
C1732 C302 1.350 . S
C1727 C138 1.378 . S
C1762 C294 0.649 . S
C1757 C88 0.633 . S
