# Generated by pormake.
# Topology ctn, (3,4)-cn, num edge types: 1
# Building blocks:
#     Node 0, Type 0, BuildingBlock: OLANEW_clean_sbu_2, # of connection points: 3
#     Node 1, Type 0, BuildingBlock: OLANEW_clean_sbu_2, # of connection points: 3
#     Node 2, Type 0, BuildingBlock: OLANEW_clean_sbu_2, # of connection points: 3
#     Node 3, Type 0, BuildingBlock: OLANEW_clean_sbu_2, # of connection points: 3
#     Node 4, Type 0, BuildingBlock: OLANEW_clean_sbu_2, # of connection points: 3
#     Node 5, Type 0, BuildingBlock: OLANEW_clean_sbu_2, # of connection points: 3
#     Node 6, Type 0, BuildingBlock: OLANEW_clean_sbu_2, # of connection points: 3
#     Node 7, Type 0, BuildingBlock: OLANEW_clean_sbu_2, # of connection points: 3
#     Node 8, Type 0, BuildingBlock: OLANEW_clean_sbu_2, # of connection points: 3
#     Node 9, Type 0, BuildingBlock: OLANEW_clean_sbu_2, # of connection points: 3
#     Node 10, Type 0, BuildingBlock: OLANEW_clean_sbu_2, # of connection points: 3
#     Node 11, Type 0, BuildingBlock: OLANEW_clean_sbu_2, # of connection points: 3
#     Node 12, Type 0, BuildingBlock: OLANEW_clean_sbu_2, # of connection points: 3
#     Node 13, Type 0, BuildingBlock: OLANEW_clean_sbu_2, # of connection points: 3
#     Node 14, Type 0, BuildingBlock: OLANEW_clean_sbu_2, # of connection points: 3
#     Node 15, Type 0, BuildingBlock: OLANEW_clean_sbu_2, # of connection points: 3
#     Node 16, Type 1, BuildingBlock: KUFVIS_clean_sbu_0, # of connection points: 4
#     Node 17, Type 1, BuildingBlock: KUFVIS_clean_sbu_0, # of connection points: 4
#     Node 18, Type 1, BuildingBlock: KUFVIS_clean_sbu_0, # of connection points: 4
#     Node 19, Type 1, BuildingBlock: KUFVIS_clean_sbu_0, # of connection points: 4
#     Node 20, Type 1, BuildingBlock: KUFVIS_clean_sbu_0, # of connection points: 4
#     Node 21, Type 1, BuildingBlock: KUFVIS_clean_sbu_0, # of connection points: 4
#     Node 22, Type 1, BuildingBlock: KUFVIS_clean_sbu_0, # of connection points: 4
#     Node 23, Type 1, BuildingBlock: KUFVIS_clean_sbu_0, # of connection points: 4
#     Node 24, Type 1, BuildingBlock: KUFVIS_clean_sbu_0, # of connection points: 4
#     Node 25, Type 1, BuildingBlock: KUFVIS_clean_sbu_0, # of connection points: 4
#     Node 26, Type 1, BuildingBlock: KUFVIS_clean_sbu_0, # of connection points: 4
#     Node 27, Type 1, BuildingBlock: KUFVIS_clean_sbu_0, # of connection points: 4
#     Edge 28, Type (0, 1), BuildingBlock: OJICUG_clean_linker_0, # of connection points: 2
#     Edge 29, Type (0, 1), BuildingBlock: OJICUG_clean_linker_0, # of connection points: 2
#     Edge 30, Type (0, 1), BuildingBlock: OJICUG_clean_linker_0, # of connection points: 2
#     Edge 31, Type (0, 1), BuildingBlock: OJICUG_clean_linker_0, # of connection points: 2
#     Edge 32, Type (0, 1), BuildingBlock: OJICUG_clean_linker_0, # of connection points: 2
#     Edge 33, Type (0, 1), BuildingBlock: OJICUG_clean_linker_0, # of connection points: 2
#     Edge 34, Type (0, 1), BuildingBlock: OJICUG_clean_linker_0, # of connection points: 2
#     Edge 35, Type (0, 1), BuildingBlock: OJICUG_clean_linker_0, # of connection points: 2
#     Edge 36, Type (0, 1), BuildingBlock: OJICUG_clean_linker_0, # of connection points: 2
#     Edge 37, Type (0, 1), BuildingBlock: OJICUG_clean_linker_0, # of connection points: 2
#     Edge 38, Type (0, 1), BuildingBlock: OJICUG_clean_linker_0, # of connection points: 2
#     Edge 39, Type (0, 1), BuildingBlock: OJICUG_clean_linker_0, # of connection points: 2
#     Edge 40, Type (0, 1), BuildingBlock: OJICUG_clean_linker_0, # of connection points: 2
#     Edge 41, Type (0, 1), BuildingBlock: OJICUG_clean_linker_0, # of connection points: 2
#     Edge 42, Type (0, 1), BuildingBlock: OJICUG_clean_linker_0, # of connection points: 2
#     Edge 43, Type (0, 1), BuildingBlock: OJICUG_clean_linker_0, # of connection points: 2
#     Edge 44, Type (0, 1), BuildingBlock: OJICUG_clean_linker_0, # of connection points: 2
#     Edge 45, Type (0, 1), BuildingBlock: OJICUG_clean_linker_0, # of connection points: 2
#     Edge 46, Type (0, 1), BuildingBlock: OJICUG_clean_linker_0, # of connection points: 2
#     Edge 47, Type (0, 1), BuildingBlock: OJICUG_clean_linker_0, # of connection points: 2
#     Edge 48, Type (0, 1), BuildingBlock: OJICUG_clean_linker_0, # of connection points: 2
#     Edge 49, Type (0, 1), BuildingBlock: OJICUG_clean_linker_0, # of connection points: 2
#     Edge 50, Type (0, 1), BuildingBlock: OJICUG_clean_linker_0, # of connection points: 2
#     Edge 51, Type (0, 1), BuildingBlock: OJICUG_clean_linker_0, # of connection points: 2
#     Edge 52, Type (0, 1), BuildingBlock: OJICUG_clean_linker_0, # of connection points: 2
#     Edge 53, Type (0, 1), BuildingBlock: OJICUG_clean_linker_0, # of connection points: 2
#     Edge 54, Type (0, 1), BuildingBlock: OJICUG_clean_linker_0, # of connection points: 2
#     Edge 55, Type (0, 1), BuildingBlock: OJICUG_clean_linker_0, # of connection points: 2
#     Edge 56, Type (0, 1), BuildingBlock: OJICUG_clean_linker_0, # of connection points: 2
#     Edge 57, Type (0, 1), BuildingBlock: OJICUG_clean_linker_0, # of connection points: 2
#     Edge 58, Type (0, 1), BuildingBlock: OJICUG_clean_linker_0, # of connection points: 2
#     Edge 59, Type (0, 1), BuildingBlock: OJICUG_clean_linker_0, # of connection points: 2
#     Edge 60, Type (0, 1), BuildingBlock: OJICUG_clean_linker_0, # of connection points: 2
#     Edge 61, Type (0, 1), BuildingBlock: OJICUG_clean_linker_0, # of connection points: 2
#     Edge 62, Type (0, 1), BuildingBlock: OJICUG_clean_linker_0, # of connection points: 2
#     Edge 63, Type (0, 1), BuildingBlock: OJICUG_clean_linker_0, # of connection points: 2
#     Edge 64, Type (0, 1), BuildingBlock: OJICUG_clean_linker_0, # of connection points: 2
#     Edge 65, Type (0, 1), BuildingBlock: OJICUG_clean_linker_0, # of connection points: 2
#     Edge 66, Type (0, 1), BuildingBlock: OJICUG_clean_linker_0, # of connection points: 2
#     Edge 67, Type (0, 1), BuildingBlock: OJICUG_clean_linker_0, # of connection points: 2
#     Edge 68, Type (0, 1), BuildingBlock: OJICUG_clean_linker_0, # of connection points: 2
#     Edge 69, Type (0, 1), BuildingBlock: OJICUG_clean_linker_0, # of connection points: 2
#     Edge 70, Type (0, 1), BuildingBlock: OJICUG_clean_linker_0, # of connection points: 2
#     Edge 71, Type (0, 1), BuildingBlock: OJICUG_clean_linker_0, # of connection points: 2
#     Edge 72, Type (0, 1), BuildingBlock: OJICUG_clean_linker_0, # of connection points: 2
#     Edge 73, Type (0, 1), BuildingBlock: OJICUG_clean_linker_0, # of connection points: 2
#     Edge 74, Type (0, 1), BuildingBlock: OJICUG_clean_linker_0, # of connection points: 2
#     Edge 75, Type (0, 1), BuildingBlock: OJICUG_clean_linker_0, # of connection points: 2
# Relax obj value: 0.067
# Max RMSD: 0.170
# Mean RMSD: 0.101
data_MOF--net-ctn--node1-OLANEW_clean_sbu_2--node2-KUFVIS_clean_sbu_0--edge1-OJICUG_clean_linker_0
_symmetry_space_group_name_H-M    P1
_symmetry_Int_Tables_number       1
_symmetry_cell_setting            triclinic
loop_
_symmetry_equiv_pos_as_xyz
'x, y, z'
_cell_length_a     42.34432
_cell_length_b     43.189596
_cell_length_c     41.22146
_cell_angle_alpha  92.251907
_cell_angle_beta   95.756502
_cell_angle_gamma 97.789644
loop_
_atom_site_label
_atom_site_type_symbol
_atom_site_fract_x
_atom_site_fract_y
_atom_site_fract_z
_atom_type_partial_charge
O0 O 0.06079 0.09384 0.01692 0.0
Cd1 Cd 0.06978 0.04882 0.04997 0.0
O2 O 0.01811 0.09886 0.04204 0.0
Cd3 Cd 0.0225 0.06361 0.07806 0.0
O4 O 0.00661 0.04222 0.1218 0.0
C5 C 0.99465 0.06013 0.14095 0.0
O6 O 0.99404 0.08941 0.13368 0.0
C7 C 0.03641 0.1075 0.02045 0.0
C8 C 0.11754 0.01331 0.03471 0.0
O9 O 0.08981 0.00925 0.01829 0.0
O10 O 0.12313 0.03482 0.05771 0.0
O11 O 0.35249 0.71937 0.24248 0.0
Cd12 Cd 0.30819 0.71849 0.1997 0.0
O13 O 0.36256 0.67153 0.2318 0.0
Cd14 Cd 0.31833 0.6589 0.19976 0.0
O15 O 0.27402 0.62933 0.20694 0.0
C16 C 0.27076 0.62558 0.23691 0.0
O17 O 0.29277 0.64023 0.25906 0.0
C18 C 0.36946 0.69761 0.24802 0.0
C19 C 0.31172 0.77398 0.16649 0.0
O20 O 0.29664 0.77096 0.19189 0.0
O21 O 0.32534 0.75093 0.15708 0.0
O22 O 0.99302 0.53026 0.11091 0.0
Cd23 Cd 0.96859 0.52704 0.05422 0.0
O24 O 1.00068 0.48084 0.11312 0.0
Cd25 Cd 0.98075 0.46311 0.06426 0.0
O26 O 0.97659 0.42172 0.03128 0.0
C27 C 1.00161 0.40877 0.02919 0.0
O28 O 0.0288 0.42176 0.04536 0.0
C29 C 0.00323 0.50816 0.12658 0.0
C30 C 0.91709 0.56124 0.04482 0.0
O31 O 0.91243 0.53157 0.04768 0.0
O32 O 0.94607 0.57491 0.04665 0.0
O33 O 0.7262 0.88036 0.19695 0.0
Cd34 Cd 0.68242 0.83745 0.18362 0.0
O35 O 0.73161 0.86617 0.24767 0.0
Cd36 Cd 0.69053 0.83001 0.24573 0.0
O37 O 0.65542 0.80818 0.27582 0.0
C38 C 0.63487 0.82431 0.28553 0.0
O39 O 0.63409 0.85263 0.27522 0.0
C40 C 0.74074 0.88402 0.22563 0.0
C41 C 0.6969 0.79471 0.13681 0.0
O42 O 0.68134 0.81715 0.12858 0.0
O43 O 0.70567 0.79251 0.16721 0.0
O44 O 0.11588 0.99017 0.50011 0.0
Cd45 Cd 0.0708 0.94735 0.48966 0.0
O46 O 0.09535 0.01996 0.53455 0.0
Cd47 Cd 0.04908 0.99245 0.51992 0.0
O48 O 0.01521 0.98518 0.47615 0.0
C49 C 0.01117 0.00942 0.46059 0.0
O50 O 0.0259 0.0368 0.47265 0.0
C51 C 0.11877 0.01444 0.51928 0.0
C52 C 0.05842 0.90771 0.54049 0.0
O53 O 0.08259 0.90609 0.52444 0.0
O54 O 0.04045 0.92856 0.53323 0.0
O55 O 0.20865 0.72826 0.90481 0.0
Cd56 Cd 0.19383 0.68423 0.86441 0.0
O57 O 0.16308 0.72116 0.92674 0.0
Cd58 Cd 0.14235 0.68477 0.89001 0.0
O59 O 0.1148 0.68051 0.84236 0.0
C60 C 0.12135 0.70332 0.82447 0.0
O61 O 0.14478 0.72565 0.83513 0.0
C62 C 0.19086 0.73631 0.92588 0.0
C63 C 0.24228 0.64777 0.85528 0.0
O64 O 0.24023 0.67274 0.83985 0.0
O65 O 0.22183 0.64039 0.87558 0.0
O66 O 0.98142 0.55692 0.44333 0.0
Cd67 Cd 0.94997 0.57134 0.48712 0.0
O68 O 0.00861 0.52412 0.46985 0.0
Cd69 Cd 0.99052 0.54001 0.51407 0.0
O70 O 0.98855 0.5824 0.54362 0.0
C71 C 0.01513 0.59907 0.55331 0.0
O72 O 0.04193 0.58883 0.54739 0.0
C73 C 1.00165 0.5376 0.44375 0.0
C74 C 0.8962 0.52793 0.49395 0.0
O75 O 0.89509 0.54939 0.47342 0.0
O76 O 0.92287 0.52683 0.51127 0.0
O77 O 0.85741 0.79162 0.88745 0.0
Cd78 Cd 0.87915 0.83623 0.85729 0.0
O79 O 0.81363 0.81282 0.87952 0.0
Cd80 Cd 0.76481 0.82378 0.88186 0.0
O81 O 0.72735 0.85341 0.87137 0.0
C82 C 0.73248 0.88143 0.88339 0.0
O83 O 0.75882 0.8905 0.903 0.0
C84 C 0.82792 0.79099 0.89123 0.0
C85 C 0.9071 0.81916 0.80201 0.0
O86 O 0.92436 0.8279 0.82899 0.0
O87 O 0.87666 0.81835 0.80119 0.0
O88 O 0.35274 0.29514 0.37928 0.0
Cd89 Cd 0.36887 0.34288 0.35111 0.0
O90 O 0.30566 0.30995 0.37012 0.0
Cd91 Cd 0.2548 0.31463 0.37088 0.0
O92 O 0.2166 0.34369 0.36127 0.0
C93 C 0.2212 0.37096 0.3752 0.0
O94 O 0.24706 0.37903 0.39577 0.0
C95 C 0.32285 0.2902 0.38184 0.0
C96 C 0.39654 0.33079 0.29422 0.0
O97 O 0.41397 0.33986 0.32103 0.0
O98 O 0.36601 0.32756 0.29427 0.0
O99 O 0.48973 0.01462 0.61378 0.0
Cd100 Cd 0.4495 1.0012 0.56666 0.0
O101 O 0.506 0.96817 0.61542 0.0
Cd102 Cd 0.48055 0.94427 0.5709 0.0
O103 O 0.47381 0.90237 0.53799 0.0
C104 C 0.4984 0.89015 0.53177 0.0
O105 O 0.52691 0.90384 0.54415 0.0
C106 C 0.50696 0.99588 0.6275 0.0
C107 C 0.41293 0.0494 0.55239 0.0
O108 O 0.408 0.03216 0.57646 0.0
O109 O 0.43531 0.04419 0.53503 0.0
O110 O 0.22254 0.39273 0.6564 0.0
Cd111 Cd 0.17782 0.35355 0.63415 0.0
O112 O 0.20436 0.37821 0.70171 0.0
Cd113 Cd 0.1954 0.37421 0.75277 0.0
O114 O 0.17283 0.35848 0.79544 0.0
C115 C 0.14708 0.36884 0.80083 0.0
O116 O 0.13669 0.38989 0.78186 0.0
C117 C 0.22463 0.39572 0.68734 0.0
C118 C 0.19591 0.30355 0.59938 0.0
O119 O 0.18672 0.32698 0.58481 0.0
O120 O 0.19704 0.30394 0.63058 0.0
O121 O 0.86699 0.22599 0.74311 0.0
Cd122 Cd 0.81943 0.21868 0.70346 0.0
O123 O 0.87928 0.1784 0.7363 0.0
Cd124 Cd 0.83407 0.16144 0.70711 0.0
O125 O 0.78864 0.13244 0.71171 0.0
C126 C 0.78194 0.13098 0.74103 0.0
O127 O 0.80153 0.14742 0.76411 0.0
C128 C 0.88572 0.20586 0.74965 0.0
C129 C 0.81456 0.27084 0.66601 0.0
O130 O 0.80175 0.26839 0.69285 0.0
O131 O 0.82987 0.24884 0.65716 0.0
O132 O 0.54072 0.57172 0.51491 0.0
Cd133 Cd 0.55026 0.52566 0.546 0.0
O134 O 0.50143 0.58008 0.54391 0.0
Cd135 Cd 0.50648 0.54522 0.58032 0.0
O136 O 0.4899 0.5274 0.62547 0.0
C137 C 0.48088 0.54762 0.64445 0.0
O138 O 0.48369 0.57692 0.63635 0.0
C139 C 0.51806 0.58713 0.52054 0.0
C140 C 0.60029 0.49342 0.52981 0.0
O141 O 0.5728 0.48877 0.51291 0.0
O142 O 0.60448 0.5139 0.55377 0.0
O143 O 0.60077 0.50196 0.99505 0.0
Cd144 Cd 0.55452 0.46088 0.9822 0.0
O145 O 0.58018 0.53089 0.03026 0.0
Cd146 Cd 0.53311 0.50536 0.01372 0.0
O147 O 0.4946 0.49596 0.9739 0.0
C148 C 0.48695 0.51939 0.95876 0.0
O149 O 0.50133 0.54751 0.96884 0.0
C150 C 0.6039 0.52528 0.01551 0.0
C151 C 0.54393 0.41894 0.03132 0.0
O152 O 0.56707 0.41778 0.01376 0.0
O153 O 0.52588 0.44014 0.02614 0.0
O154 O 0.72913 0.20099 0.4403 0.0
Cd155 Cd 0.71798 0.14736 0.41673 0.0
O156 O 0.68081 0.20344 0.41748 0.0
Cd157 Cd 0.64028 0.22603 0.39894 0.0
O158 O 0.60517 0.23374 0.35892 0.0
C159 C 0.61598 0.23945 0.3318 0.0
O160 O 0.64699 0.24151 0.33006 0.0
C161 C 0.70613 0.21671 0.43431 0.0
C162 C 0.76935 0.12309 0.39283 0.0
O163 O 0.7533 0.14101 0.3758 0.0
O164 O 0.7617 0.11737 0.42153 0.0
O165 O 0.49073 0.06528 0.94157 0.0
Cd166 Cd 0.46033 0.08006 0.98605 0.0
O167 O 0.52163 0.03698 0.97019 0.0
Cd168 Cd 0.50406 0.05443 0.01424 0.0
O169 O 0.49792 0.09528 0.04452 0.0
C170 C 0.52294 0.11154 0.05905 0.0
O171 O 0.55085 0.10186 0.05723 0.0
C172 C 0.51253 0.04761 0.94301 0.0
C173 C 0.40742 0.03592 0.99387 0.0
O174 O 0.40562 0.05733 0.97336 0.0
O175 O 0.43439 0.03526 0.0108 0.0
Mn176 Mn 0.26069 0.89076 0.03618 0.0
Mn177 Mn 0.24392 0.90218 0.95624 0.0
C178 C 0.22966 0.85225 0.00205 0.0
C179 C 0.29077 0.87051 0.07874 0.0
C180 C 0.21116 0.93163 0.00912 0.0
O181 O 0.29529 0.92669 0.02899 0.0
O182 O 0.28133 0.93267 0.97546 0.0
C183 C 0.30275 0.88343 0.93273 0.0
N184 N 0.2702 0.87961 0.93166 0.0
C185 C 0.2649 0.83765 0.89044 0.0
C186 C 0.29836 0.84128 0.89096 0.0
C187 C 0.31736 0.86425 0.91223 0.0
C188 C 0.25168 0.85763 0.91122 0.0
H189 H 0.31748 0.90093 0.94916 0.0
C190 C 0.2992 0.94034 0.00239 0.0
O191 O 0.27287 0.89189 0.08441 0.0
O192 O 0.29315 0.86305 0.04843 0.0
N193 N 0.20862 0.87373 0.93497 0.0
C194 C 0.17689 0.87182 0.93905 0.0
C195 C 0.15469 0.84929 0.92035 0.0
C196 C 0.16532 0.82901 0.89764 0.0
C197 C 0.19808 0.83148 0.89379 0.0
C198 C 0.21905 0.85458 0.9129 0.0
H199 H 0.16862 0.88713 0.9567 0.0
O200 O 0.22685 0.85339 0.03307 0.0
O201 O 0.24965 0.87431 0.99186 0.0
O202 O 0.2267 0.92063 0.03316 0.0
O203 O 0.21521 0.92564 0.97935 0.0
C204 C 0.21081 0.81147 0.8723 0.0
C205 C 0.24419 0.81454 0.87063 0.0
H206 H 0.30973 0.82636 0.87537 0.0
H207 H 0.34321 0.86707 0.9129 0.0
H208 H 0.12947 0.84743 0.92358 0.0
H209 H 0.14817 0.81143 0.88353 0.0
H210 H 0.19518 0.79331 0.85732 0.0
H211 H 0.25373 0.79872 0.85436 0.0
Mn212 Mn 0.12898 0.5081 0.3006 0.0
Mn213 Mn 0.11788 0.5841 0.29751 0.0
C214 C 0.165 0.54325 0.27745 0.0
C215 C 0.14935 0.46738 0.32761 0.0
C216 C 0.08172 0.53332 0.25012 0.0
O217 O 0.09639 0.51166 0.33302 0.0
O218 O 0.091 0.56259 0.32903 0.0
C219 C 0.14759 0.60419 0.36443 0.0
N220 N 0.14618 0.60746 0.33161 0.0
C221 C 0.18972 0.65001 0.33853 0.0
C222 C 0.1915 0.64723 0.37242 0.0
C223 C 0.17038 0.62417 0.38541 0.0
C224 C 0.1665 0.62944 0.31884 0.0
H225 H 0.1315 0.58641 0.3745 0.0
C226 C 0.08396 0.53582 0.34081 0.0
O227 O 0.12561 0.4619 0.30468 0.0
O228 O 0.16052 0.49647 0.33542 0.0
N229 N 0.14217 0.60828 0.26822 0.0
C230 C 0.13758 0.60761 0.23499 0.0
C231 C 0.15686 0.62914 0.21813 0.0
C232 C 0.18037 0.65135 0.2356 0.0
C233 C 0.18419 0.65202 0.26982 0.0
C234 C 0.16407 0.63016 0.28529 0.0
H235 H 0.11949 0.59066 0.22142 0.0
O236 O 0.16306 0.51348 0.27046 0.0
O237 O 0.14627 0.55168 0.29836 0.0
O238 O 0.09452 0.51074 0.26253 0.0
O239 O 0.08874 0.56173 0.2612 0.0
C240 C 0.20747 0.67321 0.28916 0.0
C241 C 0.21032 0.67212 0.32348 0.0
H242 H 0.2091 0.66254 0.38868 0.0
H243 H 0.17171 0.62179 0.41153 0.0
H244 H 0.15368 0.62855 0.19172 0.0
H245 H 0.19542 0.6677 0.2225 0.0
H246 H 0.22353 0.69022 0.27788 0.0
H247 H 0.22855 0.6883 0.33807 0.0
Mn248 Mn 0.76195 0.65229 0.02072 0.0
Mn249 Mn 0.69391 0.66633 0.97711 0.0
C250 C 0.71467 0.61944 0.02354 0.0
C251 C 0.80895 0.62941 0.02451 0.0
C252 C 0.72143 0.7022 0.04058 0.0
O253 O 0.77838 0.68337 0.98824 0.0
O254 O 0.73181 0.68942 0.95939 0.0
C255 C 0.70329 0.63349 0.91516 0.0
N256 N 0.68508 0.63731 0.94006 0.0
C257 C 0.64392 0.5964 0.91651 0.0
C258 C 0.66214 0.59216 0.89051 0.0
C259 C 0.69199 0.61074 0.88989 0.0
C260 C 0.65646 0.61939 0.94104 0.0
H261 H 0.72627 0.64768 0.91465 0.0
C262 C 0.76238 0.69539 0.96527 0.0
O263 O 0.80611 0.65345 0.0434 0.0
O264 O 0.78503 0.61946 0.00282 0.0
N265 N 0.65501 0.64579 0.99105 0.0
C266 C 0.64047 0.65277 0.01792 0.0
C267 C 0.61033 0.63635 0.02221 0.0
C268 C 0.59529 0.61321 0.99867 0.0
C269 C 0.61042 0.60687 0.9709 0.0
C270 C 0.64033 0.62418 0.96782 0.0
H271 H 0.65182 0.67067 0.03599 0.0
O272 O 0.73826 0.62025 0.04633 0.0
O273 O 0.71967 0.63742 0.99943 0.0
O274 O 0.74546 0.68748 0.0462 0.0
O275 O 0.70099 0.69646 0.01531 0.0
C276 C 0.59715 0.58387 0.94631 0.0
C277 C 0.61396 0.57854 0.91921 0.0
H278 H 0.65353 0.57462 0.87097 0.0
H279 H 0.70625 0.60751 0.86997 0.0
H280 H 0.59874 0.64147 0.04364 0.0
H281 H 0.57217 0.6004 0.0022 0.0
H282 H 0.57417 0.56996 0.94815 0.0
H283 H 0.60365 0.56059 0.90062 0.0
Mn284 Mn 0.87848 0.02147 0.29513 0.0
Mn285 Mn 0.90322 0.95183 0.27991 0.0
C286 C 0.84517 0.98251 0.26355 0.0
C287 C 0.85407 0.05383 0.32832 0.0
C288 C 0.92641 0.01101 0.24673 0.0
O289 O 0.91645 0.0214 0.3295 0.0
O290 O 0.92763 0.97232 0.32064 0.0
C291 C 0.88078 0.91828 0.33645 0.0
N292 N 0.88073 0.92025 0.30355 0.0
C293 C 0.8446 0.87201 0.29348 0.0
C294 C 0.84452 0.86933 0.32726 0.0
C295 C 0.86264 0.89261 0.34883 0.0
C296 C 0.86333 0.89801 0.28257 0.0
H297 H 0.89444 0.93624 0.35313 0.0
C298 C 0.93167 0.99865 0.33709 0.0
O299 O 0.87354 0.0654 0.30805 0.0
O300 O 0.84941 0.02364 0.32978 0.0
N301 N 0.88068 0.92955 0.24153 0.0
C302 C 0.88148 0.93676 0.2097 0.0
C303 C 0.86363 0.91643 0.18503 0.0
C304 C 0.84521 0.8889 0.1933 0.0
C305 C 0.84484 0.88191 0.2262 0.0
C306 C 0.86335 0.9029 0.24972 0.0
H307 H 0.89548 0.95793 0.20317 0.0
O308 O 0.84046 0.01147 0.2615 0.0
O309 O 0.86907 0.97748 0.28396 0.0
O310 O 0.90853 0.02845 0.25959 0.0
O311 O 0.92716 0.9825 0.25363 0.0
C312 C 0.82631 0.85527 0.23661 0.0
C313 C 0.82617 0.85033 0.27022 0.0
H314 H 0.83035 0.8497 0.3369 0.0
H315 H 0.8625 0.89083 0.37493 0.0
H316 H 0.86395 0.92205 0.1597 0.0
H317 H 0.83122 0.87344 0.17422 0.0
H318 H 0.81168 0.83869 0.21898 0.0
H319 H 0.81141 0.83004 0.27794 0.0
Mn320 Mn 0.26913 0.14866 0.51229 0.0
Mn321 Mn 0.20046 0.15374 0.46473 0.0
C322 C 0.2242 0.11298 0.51652 0.0
C323 C 0.31816 0.12957 0.51974 0.0
C324 C 0.22398 0.19631 0.52503 0.0
O325 O 0.28376 0.17871 0.47804 0.0
O326 O 0.23728 0.17741 0.44585 0.0
C327 C 0.21354 0.11672 0.4069 0.0
N328 N 0.19442 0.12146 0.43076 0.0
C329 C 0.1563 0.07675 0.41047 0.0
C330 C 0.17549 0.07149 0.38554 0.0
C331 C 0.20428 0.09151 0.38382 0.0
C332 C 0.16681 0.1022 0.43281 0.0
H333 H 0.2357 0.13206 0.40557 0.0
C334 C 0.26724 0.18708 0.45305 0.0
O335 O 0.31281 0.15382 0.53694 0.0
O336 O 0.29572 0.11744 0.49737 0.0
N337 N 0.1625 0.13236 0.47975 0.0
C338 C 0.14687 0.1406 0.5054 0.0
C339 C 0.11763 0.12293 0.51064 0.0
C340 C 0.10456 0.09725 0.48924 0.0
C341 C 0.12075 0.08962 0.46262 0.0
C342 C 0.14968 0.10823 0.4585 0.0
H343 H 0.15671 0.16044 0.52181 0.0
O344 O 0.24754 0.11707 0.53978 0.0
O345 O 0.22821 0.12925 0.49094 0.0
O346 O 0.2487 0.1835 0.53405 0.0
O347 O 0.20476 0.18723 0.49947 0.0
C348 C 0.10948 0.0641 0.44019 0.0
C349 C 0.12732 0.0576 0.41421 0.0
H350 H 0.16844 0.05206 0.3677 0.0
H351 H 0.21927 0.08752 0.36473 0.0
H352 H 0.10521 0.12905 0.53116 0.0
H353 H 0.08215 0.08351 0.49353 0.0
H354 H 0.08729 0.04916 0.44286 0.0
H355 H 0.11857 0.03774 0.39731 0.0
Mn356 Mn 0.35346 0.52617 0.79051 0.0
Mn357 Mn 0.37479 0.45375 0.78291 0.0
C358 C 0.32174 0.48811 0.7565 0.0
C359 C 0.32747 0.56276 0.81664 0.0
C360 C 0.4055 0.50939 0.74907 0.0
O361 O 0.38664 0.52559 0.82959 0.0
O362 O 0.39709 0.47599 0.82382 0.0
C363 C 0.34504 0.42638 0.83922 0.0
N364 N 0.34834 0.42543 0.80668 0.0
C365 C 0.3113 0.37773 0.79745 0.0
C366 C 0.30769 0.37807 0.8309 0.0
C367 C 0.32458 0.40255 0.85185 0.0
C368 C 0.33214 0.40204 0.78629 0.0
H369 H 0.35788 0.44521 0.85539 0.0
C370 C 0.4007 0.50277 0.83932 0.0
O371 O 0.35091 0.57137 0.79947 0.0
O372 O 0.31992 0.53294 0.81957 0.0
N373 N 0.35484 0.42925 0.74477 0.0
C374 C 0.35954 0.43333 0.7129 0.0
C375 C 0.34366 0.41132 0.68866 0.0
C376 C 0.32334 0.38522 0.69743 0.0
C377 C 0.31917 0.38132 0.73041 0.0
C378 C 0.33581 0.40391 0.75353 0.0
H379 H 0.37507 0.45335 0.70598 0.0
O380 O 0.31987 0.51748 0.7526 0.0
O381 O 0.34178 0.48175 0.78055 0.0
O382 O 0.38861 0.52909 0.75973 0.0
O383 O 0.40276 0.48086 0.75678 0.0
C384 C 0.29857 0.3563 0.74118 0.0
C385 C 0.29458 0.35455 0.77467 0.0
H386 H 0.29181 0.35983 0.84072 0.0
H387 H 0.32179 0.40307 0.87767 0.0
H388 H 0.34697 0.41452 0.66326 0.0
H389 H 0.31087 0.36847 0.67863 0.0
H390 H 0.28528 0.33856 0.72386 0.0
H391 H 0.2783 0.33547 0.78258 0.0
Mn392 Mn 0.75057 0.37963 0.53067 0.0
Mn393 Mn 0.73567 0.39246 0.45098 0.0
C394 C 0.72254 0.34073 0.49463 0.0
C395 C 0.78099 0.36039 0.57371 0.0
C396 C 0.69916 0.4182 0.50293 0.0
O397 O 0.78381 0.41733 0.52545 0.0
O398 O 0.77085 0.42448 0.472 0.0
C399 C 0.79727 0.37847 0.42983 0.0
N400 N 0.76468 0.37234 0.42756 0.0
C401 C 0.76392 0.33011 0.38752 0.0
C402 C 0.79744 0.3361 0.38929 0.0
C403 C 0.81418 0.36039 0.41054 0.0
C404 C 0.74833 0.3491 0.40709 0.0
H405 H 0.81031 0.39693 0.44631 0.0
C406 C 0.78778 0.43203 0.49949 0.0
O407 O 0.76134 0.38021 0.57909 0.0
O408 O 0.78448 0.35364 0.5435 0.0
N409 N 0.7027 0.36242 0.42818 0.0
C410 C 0.67057 0.35856 0.43065 0.0
C411 C 0.65045 0.3347 0.41154 0.0
C412 C 0.66356 0.31504 0.39016 0.0
C413 C 0.69668 0.31951 0.38797 0.0
C414 C 0.7155 0.34391 0.40733 0.0
H415 H 0.66043 0.37337 0.44734 0.0
O416 O 0.71851 0.34072 0.52539 0.0
O417 O 0.74185 0.36415 0.48595 0.0
O418 O 0.71485 0.40748 0.52704 0.0
O419 O 0.70429 0.4133 0.47324 0.0
C420 C 0.71185 0.30037 0.36779 0.0
C421 C 0.74542 0.30565 0.36757 0.0
H422 H 0.81059 0.32204 0.37465 0.0
H423 H 0.84007 0.36506 0.41218 0.0
H424 H 0.62493 0.3313 0.41348 0.0
H425 H 0.648 0.29645 0.37574 0.0
H426 H 0.69799 0.2813 0.3526 0.0
H427 H 0.75682 0.29054 0.35221 0.0
Mn428 Mn 0.63821 0.0131 0.80001 0.0
Mn429 Mn 0.62356 0.08757 0.7915 0.0
C430 C 0.67372 0.04835 0.77634 0.0
C431 C 0.65947 0.97458 0.82991 0.0
C432 C 0.59078 0.03341 0.74631 0.0
O433 O 0.60445 0.01704 0.8311 0.0
O434 O 0.59685 0.06706 0.8238 0.0
C435 C 0.65084 0.11272 0.85776 0.0
N436 N 0.65016 0.11385 0.82473 0.0
C437 C 0.69193 0.15802 0.8299 0.0
C438 C 0.69293 0.15747 0.86397 0.0
C439 C 0.67234 0.13468 0.87795 0.0
C440 C 0.66995 0.13559 0.81102 0.0
H441 H 0.63516 0.09517 0.86862 0.0
C442 C 0.59087 0.04092 0.83721 0.0
O443 O 0.63638 0.96747 0.80654 0.0
O444 O 0.66952 0.00412 0.83653 0.0
N445 N 0.64776 0.11057 0.76131 0.0
C446 C 0.64441 0.10736 0.72807 0.0
C447 C 0.66358 0.12812 0.71031 0.0
C448 C 0.68576 0.15211 0.72686 0.0
C449 C 0.68838 0.15528 0.76104 0.0
C450 C 0.66843 0.13407 0.77742 0.0
H451 H 0.62738 0.08899 0.7152 0.0
O452 O 0.67322 0.01849 0.77091 0.0
O453 O 0.65372 0.05678 0.79584 0.0
O454 O 0.60457 0.01241 0.76065 0.0
O455 O 0.59594 0.06232 0.75586 0.0
C456 C 0.71036 0.17833 0.77953 0.0
C457 C 0.71221 0.17964 0.81393 0.0
H458 H 0.70956 0.17428 0.87964 0.0
H459 H 0.67307 0.134 0.90423 0.0
H460 H 0.66137 0.12555 0.68392 0.0
H461 H 0.70074 0.16787 0.71309 0.0
H462 H 0.72623 0.19494 0.76755 0.0
H463 H 0.72947 0.19723 0.82789 0.0
Mn464 Mn 0.02211 0.26089 0.89636 0.0
Mn465 Mn 0.9466 0.24063 0.91443 0.0
C466 C 0.9839 0.23423 0.85747 0.0
C467 C 0.06032 0.29759 0.87738 0.0
C468 C 0.00293 0.20823 0.94027 0.0
O469 O 0.01951 0.28876 0.93682 0.0
O470 O 0.96668 0.27816 0.94221 0.0
C471 C 0.91704 0.29553 0.89221 0.0
N472 N 0.9177 0.26406 0.89065 0.0
C473 C 0.87118 0.2556 0.85104 0.0
C474 C 0.86986 0.28788 0.85243 0.0
C475 C 0.89296 0.30793 0.87303 0.0
C476 C 0.89569 0.24457 0.8708 0.0
H477 H 0.93482 0.31106 0.90788 0.0
C478 C 0.99444 0.29415 0.94975 0.0
O479 O 0.06867 0.27585 0.896 0.0
O480 O 0.02989 0.29834 0.8705 0.0
N481 N 0.9246 0.20506 0.8883 0.0
C482 C 0.93055 0.17482 0.88808 0.0
C483 C 0.91034 0.15194 0.86776 0.0
C484 C 0.88415 0.16032 0.84803 0.0
C485 C 0.87844 0.19155 0.84876 0.0
C486 C 0.89932 0.21332 0.86958 0.0
H487 H 0.95058 0.1682 0.90322 0.0
O488 O 0.01412 0.23373 0.85488 0.0
O489 O 0.9773 0.25 0.88271 0.0
O490 O 0.02369 0.2226 0.9238 0.0
O491 O 0.9742 0.21447 0.93968 0.0
C492 C 0.85318 0.20202 0.82921 0.0
C493 C 0.84958 0.23402 0.8303 0.0
H494 H 0.85142 0.29756 0.83754 0.0
H495 H 0.89223 0.3329 0.87407 0.0
H496 H 0.91496 0.1279 0.86728 0.0
H497 H 0.86874 0.14264 0.83223 0.0
H498 H 0.83668 0.18574 0.81288 0.0
H499 H 0.83039 0.24185 0.81474 0.0
Mn500 Mn 0.50658 0.73942 0.39529 0.0
Mn501 Mn 0.4316 0.72448 0.41671 0.0
C502 C 0.46562 0.71422 0.35847 0.0
C503 C 0.54628 0.77095 0.37224 0.0
C504 C 0.48567 0.68867 0.44105 0.0
O505 O 0.50747 0.76969 0.43485 0.0
O506 O 0.45535 0.76085 0.44402 0.0
C507 C 0.40595 0.78199 0.39622 0.0
N508 N 0.40427 0.75025 0.39413 0.0
C509 C 0.3573 0.74526 0.35519 0.0
C510 C 0.35842 0.77788 0.35711 0.0
C511 C 0.38289 0.79632 0.37767 0.0
C512 C 0.38081 0.73228 0.37442 0.0
H513 H 0.42481 0.7963 0.41184 0.0
C514 C 0.48374 0.77606 0.44964 0.0
O515 O 0.5533 0.74992 0.3924 0.0
O516 O 0.51639 0.77486 0.36699 0.0
N517 N 0.40642 0.69026 0.39097 0.0
C518 C 0.41005 0.65937 0.39013 0.0
C519 C 0.38822 0.63788 0.36975 0.0
C520 C 0.36286 0.64832 0.35051 0.0
C521 C 0.35958 0.6802 0.35182 0.0
C522 C 0.38195 0.70051 0.37273 0.0
H523 H 0.42953 0.6512 0.40477 0.0
O524 O 0.49511 0.71076 0.35517 0.0
O525 O 0.46124 0.73151 0.38358 0.0
O526 O 0.5066 0.70221 0.42429 0.0
O527 O 0.45742 0.69605 0.44087 0.0
C528 C 0.33534 0.69268 0.33272 0.0
C529 C 0.3342 0.72519 0.33439 0.0
H530 H 0.34082 0.78904 0.34267 0.0
H531 H 0.38403 0.82152 0.37914 0.0
H532 H 0.39099 0.61333 0.36879 0.0
H533 H 0.34622 0.6317 0.33463 0.0
H534 H 0.3177 0.67755 0.31635 0.0
H535 H 0.31574 0.73455 0.31922 0.0
Mn536 Mn 0.01962 0.76307 0.65464 0.0
Mn537 Mn 0.97056 0.69924 0.67397 0.0
C538 C 0.01687 0.7165 0.62439 0.0
C539 C 0.02794 0.80949 0.62765 0.0
C540 C 0.03571 0.72192 0.711 0.0
O541 O 0.99179 0.78123 0.68597 0.0
O542 O 0.95756 0.73792 0.69298 0.0
C543 C 0.91142 0.71192 0.63523 0.0
N544 N 0.93327 0.69228 0.64303 0.0
C545 C 0.90406 0.6514 0.60606 0.0
C546 C 0.88109 0.6711 0.59779 0.0
C547 C 0.88487 0.70154 0.61234 0.0
C548 C 0.93008 0.6631 0.6289 0.0
H549 H 0.91429 0.73532 0.64639 0.0
C550 C 0.96739 0.76723 0.69781 0.0
O551 O 0.04677 0.80432 0.65308 0.0
O552 O 0.00361 0.78822 0.61854 0.0
N553 N 0.97938 0.65948 0.65792 0.0
C554 C 0.00396 0.64363 0.66815 0.0
C555 C 0.00388 0.61281 0.65589 0.0
C556 C 0.97827 0.5984 0.63371 0.0
C557 C 0.95288 0.61491 0.62409 0.0
C558 C 0.95419 0.6455 0.63729 0.0
H559 H 0.02354 0.65443 0.68548 0.0
O560 O 0.04065 0.73862 0.62337 0.0
O561 O 0.99428 0.72269 0.64189 0.0
O562 O 0.04362 0.74456 0.6931 0.0
O563 O 0.00871 0.70422 0.7065 0.0
C564 C 0.92662 0.60243 0.60147 0.0
C565 C 0.90232 0.62073 0.59233 0.0
H566 H 0.86056 0.66318 0.58017 0.0
H567 H 0.86733 0.71694 0.60597 0.0
H568 H 0.02351 0.60019 0.66353 0.0
H569 H 0.97843 0.57473 0.62409 0.0
H570 H 0.92509 0.57894 0.59065 0.0
H571 H 0.88246 0.61102 0.57462 0.0
Mn572 Mn 0.51501 0.27758 0.1521 0.0
Mn573 Mn 0.46904 0.21388 0.17554 0.0
C574 C 0.51613 0.22946 0.12622 0.0
C575 C 0.52049 0.32183 0.12147 0.0
C576 C 0.53112 0.24451 0.21402 0.0
O577 O 0.48479 0.29564 0.18087 0.0
O578 O 0.45068 0.25209 0.18769 0.0
C579 C 0.4102 0.216 0.13093 0.0
N580 N 0.43415 0.20016 0.14289 0.0
C581 C 0.41193 0.15411 0.10914 0.0
C582 C 0.38689 0.16985 0.09659 0.0
C583 C 0.38609 0.20097 0.10746 0.0
C584 C 0.43528 0.17032 0.13245 0.0
H585 H 0.40956 0.23991 0.13927 0.0
C586 C 0.45961 0.28166 0.19142 0.0
O587 O 0.53941 0.31968 0.14782 0.0
O588 O 0.49776 0.29869 0.11335 0.0
N589 N 0.4836 0.17486 0.16574 0.0
C590 C 0.50997 0.1634 0.17948 0.0
C591 C 0.51466 0.1327 0.17085 0.0
C592 C 0.49199 0.11396 0.14858 0.0
C593 C 0.46473 0.12606 0.13525 0.0
C594 C 0.46125 0.15676 0.14491 0.0
H595 H 0.52735 0.17759 0.1968 0.0
O596 O 0.53866 0.25251 0.12379 0.0
O597 O 0.49265 0.23562 0.14244 0.0
O598 O 0.53964 0.26391 0.19293 0.0
O599 O 0.50467 0.22591 0.21053 0.0
C600 C 0.44119 0.10909 0.11227 0.0
C601 C 0.41488 0.12315 0.09912 0.0
H602 H 0.36828 0.15836 0.07845 0.0
H603 H 0.36692 0.21331 0.09778 0.0
H604 H 0.53571 0.1235 0.18131 0.0
H605 H 0.49583 0.09039 0.14176 0.0
H606 H 0.44333 0.08537 0.10418 0.0
H607 H 0.39718 0.11002 0.08114 0.0
C608 C 0.23284 0.78025 0.94865 0.0
C609 C 0.20131 0.76481 0.9474 0.0
H610 H 0.26641 0.82006 0.96733 0.0
C611 C 0.17929 0.77803 0.96524 0.0
H612 H 0.25045 0.77061 0.93545 0.0
C613 C 0.1884 0.80661 0.98307 0.0
C614 C 0.21945 0.82256 0.98293 0.0
H615 H 0.15481 0.76669 0.96483 0.0
H616 H 0.17103 0.81658 0.99635 0.0
C617 C 0.24188 0.80871 0.96653 0.0
C618 C 0.04106 0.5117 0.41421 0.0
C619 C 0.01967 0.53389 0.4152 0.0
H620 H 0.07807 0.49461 0.38956 0.0
C621 C 0.01786 0.55478 0.39001 0.0
H622 H 0.04296 0.49523 0.43323 0.0
C623 C 0.03821 0.55472 0.36546 0.0
C624 C 0.06052 0.53345 0.36516 0.0
H625 H 1.00166 0.57215 0.38994 0.0
H626 H 0.03685 0.5718 0.34698 0.0
C627 C 0.06115 0.51132 0.38923 0.0
C628 C 0.77793 0.75741 0.90373 0.0
C629 C 0.81126 0.7659 0.90943 0.0
H630 H 0.73647 0.72844 0.91641 0.0
C631 C 0.82874 0.7499 0.93251 0.0
H632 H 0.76389 0.76845 0.88537 0.0
C633 C 0.81306 0.72664 0.95028 0.0
C634 C 0.77954 0.71863 0.94515 0.0
H635 H 0.85453 0.75576 0.93728 0.0
H636 H 0.8272 0.71523 0.9683 0.0
C637 C 0.76226 0.73409 0.92133 0.0
C638 C 0.98202 0.03368 0.41448 0.0
C639 C 0.99126 0.00683 0.42879 0.0
H640 H 0.95593 0.05225 0.37429 0.0
C641 C 0.98179 0.97754 0.41216 0.0
H642 H 0.98905 0.05661 0.42668 0.0
C643 C 0.96328 0.97509 0.38195 0.0
C644 C 0.95343 1.00184 0.36786 0.0
H645 H 0.98876 0.95645 0.42242 0.0
H646 H 0.95618 0.95207 0.36999 0.0
C647 C 0.96309 0.03119 0.38443 0.0
C648 C 0.22157 0.25463 0.59573 0.0
C649 C 0.20396 0.27642 0.58054 0.0
H650 H 0.24216 0.21224 0.58997 0.0
C651 C 0.19336 0.27177 0.54712 0.0
H652 H 0.23009 0.25768 0.62148 0.0
C653 C 0.19975 0.24562 0.52933 0.0
C654 C 0.2174 0.2238 0.54439 0.0
H655 H 0.17964 0.28809 0.53476 0.0
H656 H 0.19106 0.24267 0.50361 0.0
C657 C 0.22854 0.22869 0.57772 0.0
C658 C 0.4602 0.50674 0.68174 0.0
C659 C 0.46456 0.53815 0.67339 0.0
H660 H 0.43847 0.47302 0.71237 0.0
C661 C 0.45151 0.56036 0.69187 0.0
H662 H 0.47007 0.48908 0.66809 0.0
C663 C 0.43329 0.55118 0.71717 0.0
C664 C 0.4278 0.51958 0.72474 0.0
H665 H 0.45455 0.58479 0.68623 0.0
H666 H 0.42289 0.56883 0.73026 0.0
C667 C 0.4421 0.49756 0.7072 0.0
C668 C 0.79095 0.31987 0.65305 0.0
C669 C 0.81014 0.2972 0.64478 0.0
H670 H 0.76705 0.35821 0.63718 0.0
C671 C 0.82326 0.29863 0.6148 0.0
H672 H 0.78067 0.31957 0.67608 0.0
C673 C 0.81557 0.3208 0.59264 0.0
C674 C 0.79463 0.3421 0.59995 0.0
H675 H 0.83841 0.28176 0.60779 0.0
H676 H 0.82484 0.32022 0.5691 0.0
C677 C 0.78329 0.34215 0.63084 0.0
C678 C 0.53189 0.03682 0.67106 0.0
C679 C 0.52802 0.0058 0.65805 0.0
H680 H 0.55468 0.06995 0.70909 0.0
C681 C 0.54444 0.98394 0.67467 0.0
H682 H 0.51955 0.05422 0.65889 0.0
C683 C 0.56436 0.99284 0.70347 0.0
C684 C 0.56854 0.0239 0.7164 0.0
H685 H 0.54195 0.9598 0.66547 0.0
H686 H 0.57672 0.97532 0.71541 0.0
C687 C 0.552 0.0458 0.69988 0.0
C688 C 0.92014 0.24386 0.78997 0.0
C689 C 0.91338 0.21363 0.77489 0.0
H690 H 0.94787 0.27375 0.82812 0.0
C691 C 0.93172 0.19047 0.78596 0.0
H692 H 0.90672 0.26231 0.78194 0.0
C693 C 0.95531 0.19714 0.81255 0.0
C694 C 0.96039 0.22681 0.82869 0.0
H695 H 0.9272 0.16697 0.77477 0.0
H696 H 0.96871 0.1789 0.82124 0.0
C697 C 0.94348 0.25037 0.81655 0.0
C698 C 0.522 0.84929 0.5007 0.0
C699 C 0.495 0.86049 0.51161 0.0
H700 H 0.53981 0.81384 0.47268 0.0
C701 C 0.46466 0.84294 0.5033 0.0
H702 H 0.54575 0.86224 0.50678 0.0
C703 C 0.46131 0.81505 0.48418 0.0
C704 C 0.48817 0.80411 0.47254 0.0
H705 H 0.4434 0.85075 0.5115 0.0
H706 H 0.43741 0.80246 0.47796 0.0
C707 C 0.51862 0.82148 0.48123 0.0
C708 C 0.13709 0.33049 0.84403 0.0
C709 C 0.12667 0.35394 0.82456 0.0
H710 H 0.12426 0.29439 0.87643 0.0
C711 C 0.09538 0.36102 0.82575 0.0
H712 H 0.16115 0.32465 0.84383 0.0
C713 C 0.07426 0.3436 0.84426 0.0
C714 C 0.08409 0.31893 0.86216 0.0
H715 H 0.08665 0.37908 0.81124 0.0
H716 H 0.04988 0.34876 0.84357 0.0
C717 C 0.11599 0.3132 0.86276 0.0
C718 C 0.48197 0.62622 0.50329 0.0
C719 C 0.51024 0.61313 0.50001 0.0
H720 H 0.45203 0.65995 0.48739 0.0
C721 C 0.53052 0.62517 0.47717 0.0
H722 H 0.46568 0.61751 0.52056 0.0
C723 C 0.52274 0.64985 0.45819 0.0
C724 C 0.49434 0.66282 0.46142 0.0
H725 H 0.55248 0.61566 0.47405 0.0
H726 H 0.53889 0.65858 0.44081 0.0
C727 C 0.47405 0.6506 0.48417 0.0
C728 C 0.90354 0.78852 0.74877 0.0
C729 C 0.92177 0.80903 0.77305 0.0
H730 H 0.90386 0.75912 0.70575 0.0
C731 C 0.95444 0.81843 0.7702 0.0
H732 H 0.87831 0.7809 0.7503 0.0
C733 C 0.96888 0.80659 0.74419 0.0
C734 C 0.95104 0.78458 0.72107 0.0
H735 H 0.96899 0.83441 0.78846 0.0
H736 H 0.99436 0.81326 0.74325 0.0
C737 C 0.91813 0.7761 0.72325 0.0
C738 C 0.07506 0.87263 0.58398 0.0
C739 C 0.05057 0.88494 0.56531 0.0
H740 H 0.08693 0.83971 0.61925 0.0
C741 C 0.01846 0.87376 0.569 0.0
H742 H 0.1 0.88088 0.5816 0.0
C743 C 0.01098 0.84957 0.58979 0.0
C744 C 0.03549 0.83694 0.60809 0.0
H745 H 0.99913 0.88274 0.55473 0.0
H746 H 0.98606 0.84049 0.59128 0.0
C747 C 0.06757 0.8492 0.60559 0.0
C748 C 0.07317 0.68504 0.78466 0.0
C749 C 0.10088 0.70654 0.79392 0.0
H750 H 0.03088 0.67297 0.75132 0.0
C751 C 0.10785 0.7323 0.77477 0.0
H752 H 0.06715 0.66491 0.79887 0.0
C753 C 0.08705 0.73697 0.74747 0.0
C754 C 0.05874 0.71604 0.73879 0.0
H755 H 0.12907 0.74926 0.7812 0.0
H756 H 0.09287 0.75739 0.73361 0.0
C757 C 0.0523 0.68975 0.75743 0.0
C758 C 0.04309 0.64279 0.59137 0.0
C759 C 0.01595 0.62981 0.57039 0.0
H760 H 0.0642 0.68051 0.62541 0.0
C761 C 0.98971 0.64652 0.56582 0.0
H762 H 0.06381 0.63061 0.59498 0.0
C763 C 0.9901 0.67511 0.58308 0.0
C764 C 0.01636 0.68689 0.60562 0.0
H765 H 0.96881 0.63738 0.54915 0.0
H766 H 0.96971 0.68771 0.57928 0.0
C767 C 0.04332 0.6712 0.60878 0.0
C768 C 0.78129 0.91415 0.267 0.0
C769 C 0.76767 0.90947 0.23436 0.0
H770 H 0.81629 0.9412 0.30147 0.0
C771 C 0.77961 0.92959 0.211 0.0
H772 H 0.77254 0.89941 0.28576 0.0
C773 C 0.80499 0.95368 0.22023 0.0
C774 C 0.81897 0.95741 0.2527 0.0
H775 H 0.76941 0.92673 0.18572 0.0
H776 H 0.81401 0.96899 0.20204 0.0
C777 C 0.80647 0.93799 0.27606 0.0
C778 C 0.80255 0.07957 0.39113 0.0
C779 C 0.79431 0.10759 0.37877 0.0
H780 H 0.82781 0.04042 0.38457 0.0
C781 C 0.80827 0.11924 0.35137 0.0
H782 H 0.79213 0.06998 0.41216 0.0
C783 C 0.82923 0.10259 0.33596 0.0
C784 C 0.83597 0.07369 0.34725 0.0
H785 H 0.80244 0.14085 0.34141 0.0
H786 H 0.83892 0.11162 0.31432 0.0
C787 C 0.82289 0.0626 0.37529 0.0
C788 C 0.35214 0.00977 0.9743 0.0
C789 C 0.3793 0.01233 0.99728 0.0
H790 H 0.30571 0.98517 0.95795 0.0
C791 C 0.37943 0.99186 0.02299 0.0
H792 H 0.35122 0.02519 0.95424 0.0
C793 C 0.35305 0.96898 0.02536 0.0
C794 C 0.32625 0.9659 0.0018 0.0
H795 H 0.39998 0.99337 0.04117 0.0
H796 H 0.35401 0.95323 0.04514 0.0
C797 C 0.32604 0.98674 0.97642 0.0
C798 C 0.17402 0.3873 0.34138 0.0
C799 C 0.20008 0.39456 0.36567 0.0
H800 H 0.13727 0.4046 0.31043 0.0
C801 C 0.2073 0.42538 0.37926 0.0
H802 H 0.16773 0.36376 0.33047 0.0
C803 C 0.18994 0.44873 0.36774 0.0
C804 C 0.16484 0.4418 0.34244 0.0
H805 H 0.22708 0.4318 0.39814 0.0
H806 H 0.19684 0.47242 0.37806 0.0
C807 C 0.15653 0.41069 0.32991 0.0
C808 C 0.16793 0.03806 0.49552 0.0
C809 C 0.1478 0.03792 0.5207 0.0
H810 H 0.20755 0.06266 0.47415 0.0
C811 C 0.15409 0.06201 0.54538 0.0
H812 H 0.16374 0.01986 0.47612 0.0
C813 C 0.17934 0.0863 0.54425 0.0
C814 C 0.19784 0.08743 0.51785 0.0
H815 H 0.13915 0.06242 0.56519 0.0
H816 H 0.18368 0.10481 0.56334 0.0
C817 C 0.1927 0.06269 0.49408 0.0
C818 C 0.74656 0.10953 0.78218 0.0
C819 C 0.75365 0.11016 0.74958 0.0
H820 H 0.71551 0.08926 0.81602 0.0
C821 C 0.73408 0.09009 0.72574 0.0
H822 H 0.76129 0.12445 0.80121 0.0
C823 C 0.70788 0.06992 0.73438 0.0
C824 C 0.70043 0.07015 0.76676 0.0
H825 H 0.73911 0.08978 0.7005 0.0
H826 H 0.69318 0.05448 0.71575 0.0
C827 C 0.72029 0.08958 0.79068 0.0
C828 C 0.3797 0.08993 0.56865 0.0
C829 C 0.39216 0.0734 0.54399 0.0
H830 H 0.34731 0.12192 0.58009 0.0
C831 C 0.38267 0.07827 0.51117 0.0
H832 H 0.38672 0.08662 0.59414 0.0
C833 C 0.3595 0.09775 0.50316 0.0
C834 C 0.34636 0.11357 0.52783 0.0
H835 H 0.39182 0.06569 0.49171 0.0
H836 H 0.35119 0.09978 0.47771 0.0
C837 C 0.35739 0.11028 0.56062 0.0
C838 C 0.65139 0.47215 0.54655 0.0
C839 C 0.62602 0.47488 0.52256 0.0
H840 H 0.69401 0.45173 0.55938 0.0
C841 C 0.62496 0.45895 0.49199 0.0
H842 H 0.65279 0.48401 0.57041 0.0
C843 C 0.64885 0.44081 0.4855 0.0
C844 C 0.67394 0.43762 0.50968 0.0
H845 H 0.60574 0.46061 0.473 0.0
H846 H 0.64739 0.42893 0.46165 0.0
C847 C 0.67489 0.45348 0.5403 0.0
C848 C 0.73905 0.26852 0.4492 0.0
C849 C 0.70913 0.24965 0.44652 0.0
H850 H 0.76637 0.31257 0.46607 0.0
C851 C 0.6828 0.26185 0.45777 0.0
H852 H 0.75971 0.25966 0.44078 0.0
C853 C 0.68671 0.29205 0.47261 0.0
C854 C 0.71672 0.31075 0.47539 0.0
H855 H 0.65961 0.24754 0.45655 0.0
H856 H 0.66652 0.30063 0.48237 0.0
C857 C 0.74277 0.29882 0.46339 0.0
C858 C 0.52563 0.06108 0.88707 0.0
C859 C 0.52948 0.04242 0.91397 0.0
H860 H 0.54207 0.07524 0.84184 0.0
C861 C 0.55172 0.02099 0.9139 0.0
H862 H 0.50872 0.0778 0.88627 0.0
C863 C 0.57066 0.01926 0.88809 0.0
C864 C 0.56805 0.03931 0.8622 0.0
H865 H 0.55516 0.00621 0.93423 0.0
H866 H 0.58835 0.00331 0.88919 0.0
C867 C 0.54487 0.05972 0.86164 0.0
C868 C 0.32833 0.24869 0.42208 0.0
C869 C 0.30904 0.26276 0.39881 0.0
H870 H 0.33046 0.21377 0.45747 0.0
C871 C 0.27663 0.25019 0.39182 0.0
H872 H 0.3535 0.2577 0.4278 0.0
C873 C 0.26349 0.22482 0.40849 0.0
C874 C 0.28241 0.21145 0.43277 0.0
H875 H 0.26138 0.25981 0.37332 0.0
H876 H 0.23823 0.21621 0.40279 0.0
C877 C 0.31513 0.22344 0.43902 0.0
C878 C 0.45326 0.54108 0.91406 0.0
C879 C 0.46381 0.51507 0.92901 0.0
H880 H 0.42501 0.55769 0.87414 0.0
C881 C 0.45295 0.48501 0.91461 0.0
H882 H 0.46117 0.56456 0.92458 0.0
C883 C 0.43247 0.48108 0.88555 0.0
C884 C 0.42213 0.5071 0.87037 0.0
H885 H 0.46066 0.46448 0.92548 0.0
H886 H 0.42474 0.45757 0.87503 0.0
C887 C 0.43252 0.53714 0.88514 0.0
C888 C 0.72569 0.75057 0.12018 0.0
C889 C 0.70409 0.77173 0.11199 0.0
H890 H 0.74843 0.71224 0.10403 0.0
C891 C 0.68898 0.77044 0.07993 0.0
H892 H 0.7378 0.75106 0.14466 0.0
C893 C 0.69485 0.74805 0.05673 0.0
C894 C 0.71628 0.72669 0.06493 0.0
H895 H 0.6722 0.78641 0.07285 0.0
H896 H 0.68249 0.74748 0.03235 0.0
C897 C 0.73188 0.7284 0.09685 0.0
C898 C 0.96421 0.06759 0.18894 0.0
C899 C 0.97943 0.04791 0.16954 0.0
H900 H 0.93575 0.07153 0.22847 0.0
C901 C 0.97866 0.01635 0.17691 0.0
H902 H 0.96443 0.09206 0.18403 0.0
C903 C 0.96221 0.00452 0.20256 0.0
C904 C 0.94609 0.024 0.22132 0.0
H905 H 0.99022 1.00059 0.16249 0.0
H906 H 0.96151 0.97992 0.20712 0.0
C907 C 0.9477 0.05577 0.21447 0.0
C908 C 0.2943 0.82639 0.15599 0.0
C909 C 0.31147 0.80222 0.14717 0.0
H910 H 0.27483 0.86765 0.14145 0.0
C911 C 0.32625 0.80404 0.11814 0.0
H912 H 0.28288 0.82586 0.17837 0.0
C913 C 0.32176 0.82802 0.09711 0.0
C914 C 0.30246 0.85079 0.10466 0.0
H915 H 0.33998 0.78604 0.11077 0.0
H916 H 0.33191 0.82766 0.07402 0.0
C917 C 0.28988 0.85051 0.13495 0.0
C918 C 0.03158 0.4898 0.17689 0.0
C919 C 0.02029 0.51438 0.15983 0.0
H920 H 0.05954 0.47637 0.21868 0.0
C921 C 0.02736 0.54499 0.17395 0.0
H922 H 0.02642 0.46589 0.16684 0.0
C923 C 0.04645 0.55103 0.20381 0.0
C924 C 0.05888 0.52658 0.2202 0.0
H925 H 0.01898 0.56444 0.16151 0.0
H926 H 0.05218 0.57502 0.21354 0.0
C927 C 0.05063 0.49582 0.20668 0.0
C928 C 0.40429 0.73121 0.29181 0.0
C929 C 0.39581 0.70196 0.27485 0.0
H930 H 0.43322 0.7577 0.33158 0.0
C931 C 0.41148 0.67667 0.28504 0.0
H932 H 0.3929 0.75121 0.28453 0.0
C933 C 0.4345 0.68045 0.31227 0.0
C934 C 0.44167 0.70936 0.32987 0.0
H935 H 0.40551 0.65383 0.27244 0.0
H936 H 0.44607 0.6607 0.32004 0.0
C937 C 0.42713 0.73488 0.31891 0.0
C938 C 0.9702 0.3614 0.9988 0.0
C939 C 0.99998 0.37894 0.00981 0.0
H940 H 0.94511 0.32066 0.972 0.0
C941 C 0.02815 0.36751 0.00249 0.0
H942 H 0.94807 0.36941 0.0043 0.0
C943 C 0.02652 0.33951 0.98374 0.0
C944 C 0.99667 0.32217 0.97228 0.0
H945 H 0.05149 0.38046 0.01076 0.0
H946 H 0.04863 0.33171 0.97787 0.0
C947 C 0.96856 0.33327 0.98045 0.0
C948 C 0.61994 0.7866 0.32774 0.0
C949 C 0.61296 0.81182 0.30905 0.0
H950 H 0.60468 0.7545 0.36314 0.0
C951 C 0.58501 0.82505 0.31321 0.0
H952 H 0.64151 0.77617 0.32533 0.0
C953 C 0.56378 0.81247 0.33471 0.0
C954 C 0.57045 0.78683 0.35286 0.0
H955 H 0.5791 0.8446 0.29924 0.0
H956 H 0.54187 0.82245 0.33666 0.0
C957 C 0.59902 0.77441 0.34964 0.0
C958 C 0.99924 0.14496 0.00149 0.0
C959 C 0.02851 0.13331 0.99967 0.0
H960 H 0.96831 0.17733 0.98444 0.0
C961 C 0.04961 0.14666 0.97814 0.0
H962 H 0.98231 0.13527 0.01771 0.0
C963 C 0.04156 0.17119 0.959 0.0
C964 C 0.01215 0.18269 0.96082 0.0
H965 H 0.07234 0.13827 0.97617 0.0
H966 H 0.0583 0.18095 0.94263 0.0
C967 C 0.99115 0.16918 0.9823 0.0
C968 C 0.44357 0.33345 0.26169 0.0
C969 C 0.41127 0.32241 0.26469 0.0
H970 H 0.48402 0.32988 0.23513 0.0
C971 C 0.39385 0.30133 0.24041 0.0
H972 H 0.45748 0.34992 0.27992 0.0
C973 C 0.40913 0.28957 0.21505 0.0
C974 C 0.44188 0.29928 0.21308 0.0
H975 H 0.3689 0.29248 0.24204 0.0
H976 H 0.39567 0.27184 0.19779 0.0
C977 C 0.45866 0.32224 0.23587 0.0
C978 C 0.50619 0.38312 0.0605 0.0
C979 C 0.53773 0.39576 0.0561 0.0
H980 H 0.47596 0.34905 0.08425 0.0
C981 C 0.56339 0.38499 0.07448 0.0
H982 H 0.48602 0.39096 0.04644 0.0
C983 C 0.55761 0.36187 0.09682 0.0
C984 C 0.52613 0.34833 0.10028 0.0
H985 H 0.58791 0.39442 0.07153 0.0
H986 H 0.57784 0.35375 0.11048 0.0
C987 C 0.50044 0.35916 0.08199 0.0
C988 C 0.60591 0.25457 0.27419 0.0
C989 C 0.59403 0.24183 0.30213 0.0
H990 H 0.59533 0.2656 0.22446 0.0
C991 C 0.56127 0.23033 0.30102 0.0
H992 H 0.63106 0.26366 0.27435 0.0
C993 C 0.54089 0.23101 0.27232 0.0
C994 C 0.55277 0.24368 0.24431 0.0
H995 H 0.55146 0.22025 0.32215 0.0
H996 H 0.51578 0.22177 0.27216 0.0
C997 C 0.58544 0.25571 0.24564 0.0
C998 C 0.54677 0.15614 0.09827 0.0
C999 C 0.521 0.14175 0.07625 0.0
H1000 H 0.56505 0.19529 0.13166 0.0
C1001 C 0.49381 0.15695 0.07017 0.0
H1002 H 0.56818 0.14519 0.10316 0.0
C1003 C 0.49218 0.18564 0.08641 0.0
C1004 C 0.51734 0.19913 0.10945 0.0
H1005 H 0.47385 0.14675 0.05282 0.0
H1006 H 0.47121 0.19718 0.08116 0.0
C1007 C 0.54502 0.18471 0.11457 0.0
C1008 C 0.25589 0.41996 0.73948 0.0
C1009 C 0.24946 0.41948 0.70534 0.0
H1010 H 0.28341 0.44263 0.78243 0.0
C1011 C 0.26722 0.44214 0.68819 0.0
H1012 H 0.24367 0.40267 0.75361 0.0
C1013 C 0.29088 0.46451 0.70481 0.0
C1014 C 0.29756 0.46426 0.73875 0.0
H1015 H 0.26285 0.44264 0.66189 0.0
H1016 H 0.30428 0.48169 0.69112 0.0
C1017 C 0.2793 0.44248 0.75605 0.0
C1018 C 0.264 0.59673 0.85968 0.0
C1019 C 0.26638 0.62718 0.84843 0.0
H1020 H 0.28148 0.55246 0.85848 0.0
C1021 C 0.29083 0.63705 0.82889 0.0
H1022 H 0.24546 0.5884 0.87481 0.0
C1023 C 0.31169 0.61654 0.81982 0.0
C1024 C 0.3083 0.58562 0.82979 0.0
H1025 H 0.29342 0.66042 0.81997 0.0
H1026 H 0.32968 0.62458 0.80398 0.0
C1027 C 0.28463 0.57611 0.85031 0.0
C1028 C 0.86739 0.48383 0.52231 0.0
C1029 C 0.8677 0.50468 0.49693 0.0
H1030 H 0.84166 0.44476 0.54341 0.0
C1031 C 0.8407 0.50265 0.47379 0.0
H1032 H 0.88778 0.48494 0.54063 0.0
C1033 C 0.81446 0.47961 0.47527 0.0
C1034 C 0.81438 0.45823 0.50015 0.0
H1035 H 0.8401 0.51841 0.454 0.0
H1036 H 0.79436 0.47831 0.45657 0.0
C1037 C 0.8409 0.46095 0.52403 0.0
C1038 C 0.68467 0.89583 0.84914 0.0
C1039 C 0.71125 0.90451 0.87255 0.0
H1040 H 0.64727 0.91115 0.81745 0.0
C1041 C 0.71875 0.93605 0.88387 0.0
H1042 H 0.67815 0.87172 0.83999 0.0
C1043 C 0.70108 0.95863 0.87093 0.0
C1044 C 0.67546 0.95017 0.84644 0.0
H1045 H 0.73894 0.94355 0.90202 0.0
H1046 H 0.70816 0.98286 0.87945 0.0
C1047 C 0.66695 0.91843 0.83623 0.0
C1048 C 0.65455 0.54901 0.99467 0.0
C1049 C 0.63401 0.54745 0.01952 0.0
H1050 H 0.69585 0.57378 0.97629 0.0
C1051 C 0.64135 0.56882 0.04674 0.0
H1052 H 0.64958 0.5329 0.97339 0.0
C1053 C 0.66813 0.59194 0.04848 0.0
C1054 C 0.68712 0.59471 0.02249 0.0
H1055 H 0.6261 0.56801 0.06636 0.0
H1056 H 0.67325 0.60842 0.06946 0.0
C1057 C 0.68079 0.57255 0.99609 0.0
C1058 C 0.2392 0.60248 0.28031 0.0
C1059 C 0.24344 0.60446 0.24701 0.0
H1060 H 0.21067 0.58146 0.31589 0.0
C1061 C 0.22179 0.58567 0.22378 0.0
H1062 H 0.25561 0.61639 0.29886 0.0
C1063 C 0.19619 0.56559 0.23369 0.0
C1064 C 0.19138 0.56471 0.26681 0.0
H1065 H 0.22465 0.58637 0.19799 0.0
H1066 H 0.17977 0.55122 0.21548 0.0
C1067 C 0.21342 0.58269 0.2901 0.0
C1068 C 0.89302 0.6111 0.0486 0.0
C1069 C 0.88976 0.57908 0.03919 0.0
H1070 H 0.86973 0.65215 0.05184 0.0
C1071 C 0.86006 0.5641 0.02428 0.0
H1072 H 0.91565 0.62321 0.0602 0.0
C1073 C 0.83415 0.58079 0.01876 0.0
C1074 C 0.83715 0.61262 0.0288 0.0
H1075 H 0.8569 0.5395 0.01661 0.0
H1076 H 0.81152 0.56855 0.00728 0.0
C1077 C 0.86679 0.62763 0.04387 0.0
C1078 C 0.13967 0.97602 0.99787 0.0
C1079 C 0.14196 0.99304 0.02796 0.0
H1080 H 0.15987 0.94368 0.96819 0.0
C1081 C 0.1672 0.98972 0.0519 0.0
H1082 H 0.12051 0.97809 0.97894 0.0
C1083 C 0.18942 0.96945 0.04602 0.0
C1084 C 0.18726 0.95257 0.01582 0.0
H1085 H 0.16948 1.00239 0.07541 0.0
H1086 H 0.2085 0.96729 0.065 0.0
C1087 C 0.16225 0.9563 0.99174 0.0
loop_
_geom_bond_atom_site_label_1
_geom_bond_atom_site_label_2
_geom_bond_distance
_geom_bond_site_symmetry_2
_ccdc_geom_bond_type
O0 Cd1 2.300 . S
O0 C7 1.275 . S
Cd1 O0 2.300 . S
Cd1 O9 2.378 1_545 S
Cd1 O10 2.378 1_545 S
O2 Cd3 2.385 . S
O2 C7 1.255 . S
Cd3 O2 2.385 . S
Cd3 O4 2.317 . S
O4 Cd3 2.317 . S
O4 C5 1.232 1_455 S
C5 O4 1.232 1_655 S
C5 O6 1.218 . S
O6 C5 1.218 . S
C7 O0 1.275 . S
C7 O2 1.255 . S
C8 O9 1.260 . S
C8 O10 1.256 . S
O9 Cd1 2.378 1_565 S
O9 C8 1.260 . S
O10 Cd1 2.378 1_565 S
O10 C8 1.256 . S
O11 Cd12 2.300 . S
O11 C18 1.275 . S
Cd12 O11 2.300 . S
Cd12 O20 2.381 . S
Cd12 O21 2.378 . S
O13 Cd14 2.385 . S
O13 C18 1.255 . S
Cd14 O13 2.385 . S
Cd14 O15 2.317 . S
O15 Cd14 2.317 . S
O15 C16 1.232 . S
C16 O15 1.232 . S
C16 O17 1.218 . S
O17 C16 1.218 . S
C18 O11 1.275 . S
C18 O13 1.255 . S
C19 O20 1.258 . S
C19 O21 1.256 . S
O20 Cd12 2.381 . S
O20 C19 1.258 . S
O21 Cd12 2.378 . S
O21 C19 1.256 . S
O22 Cd23 2.300 . S
O22 C29 1.275 . S
Cd23 O22 2.300 . S
Cd23 O31 2.381 . S
Cd23 O32 2.378 . S
O24 Cd25 2.385 . S
O24 C29 1.255 1_455 S
Cd25 O24 2.385 . S
Cd25 O26 2.317 1_455 S
O26 Cd25 2.317 1_655 S
O26 C27 1.232 . S
C27 O26 1.232 . S
C27 O28 1.218 1_655 S
O28 C27 1.218 1_455 S
C29 O22 1.275 . S
C29 O24 1.255 1_655 S
C30 O31 1.258 . S
C30 O32 1.256 . S
O31 Cd23 2.381 . S
O31 C30 1.258 . S
O32 Cd23 2.378 . S
O32 C30 1.256 . S
O33 Cd34 2.300 . S
O33 C40 1.275 . S
Cd34 O33 2.300 . S
Cd34 O42 2.381 . S
Cd34 O43 2.378 . S
O35 Cd36 2.385 . S
O35 C40 1.255 . S
Cd36 O35 2.385 . S
Cd36 O37 2.317 . S
O37 Cd36 2.317 . S
O37 C38 1.232 . S
C38 O37 1.232 . S
C38 O39 1.218 . S
O39 C38 1.218 . S
C40 O33 1.275 . S
C40 O35 1.255 . S
C41 O42 1.258 . S
C41 O43 1.256 . S
O42 Cd34 2.381 . S
O42 C41 1.258 . S
O43 Cd34 2.378 . S
O43 C41 1.256 . S
O44 Cd45 2.294 1_545 S
O44 C51 1.299 . S
Cd45 O44 2.294 1_565 S
Cd45 O53 2.381 . S
Cd45 O54 2.378 . S
O46 Cd47 2.385 . S
O46 C51 1.255 . S
Cd47 O46 2.385 . S
Cd47 O48 2.317 1_455 S
O48 Cd47 2.317 1_655 S
O48 C49 1.232 . S
C49 O48 1.232 . S
C49 O50 1.218 1_655 S
O50 C49 1.218 1_455 S
C51 O44 1.299 . S
C51 O46 1.255 . S
C52 O53 1.258 . S
C52 O54 1.256 . S
O53 Cd45 2.381 . S
O53 C52 1.258 . S
O54 Cd45 2.378 . S
O54 C52 1.256 . S
O55 Cd56 2.300 . S
O55 C62 1.275 . S
Cd56 O55 2.300 . S
Cd56 O64 2.381 . S
Cd56 O65 2.378 . S
O57 Cd58 2.385 . S
O57 C62 1.255 . S
Cd58 O57 2.385 . S
Cd58 O59 2.317 . S
O59 Cd58 2.317 . S
O59 C60 1.232 . S
C60 O59 1.232 . S
C60 O61 1.218 . S
O61 C60 1.218 . S
C62 O55 1.275 . S
C62 O57 1.255 . S
C63 O64 1.258 . S
C63 O65 1.256 . S
O64 Cd56 2.381 . S
O64 C63 1.258 . S
O65 Cd56 2.378 . S
O65 C63 1.256 . S
O66 Cd67 2.300 . S
O66 C73 1.275 1_655 S
Cd67 O66 2.300 . S
Cd67 O75 2.381 . S
Cd67 O76 2.378 . S
O68 Cd69 2.385 . S
O68 C73 1.255 . S
Cd69 O68 2.385 . S
Cd69 O70 2.317 . S
O70 Cd69 2.317 . S
O70 C71 1.232 . S
C71 O70 1.232 . S
C71 O72 1.218 . S
O72 C71 1.218 . S
C73 O66 1.275 1_455 S
C73 O68 1.255 . S
C74 O75 1.258 . S
C74 O76 1.256 . S
O75 Cd67 2.381 . S
O75 C74 1.258 . S
O76 Cd67 2.378 . S
O76 C74 1.256 . S
O77 Cd78 2.300 . S
O77 C84 1.275 . S
Cd78 O77 2.300 . S
Cd78 O86 2.381 . S
Cd78 O87 2.378 . S
O79 Cd80 2.385 . S
O79 C84 1.255 . S
Cd80 O79 2.385 . S
Cd80 O81 2.317 . S
O81 Cd80 2.317 . S
O81 C82 1.232 . S
C82 O81 1.232 . S
C82 O83 1.218 . S
O83 C82 1.218 . S
C84 O77 1.275 . S
C84 O79 1.255 . S
C85 O86 1.258 . S
C85 O87 1.256 . S
O86 Cd78 2.381 . S
O86 C85 1.258 . S
O87 Cd78 2.378 . S
O87 C85 1.256 . S
O88 Cd89 2.300 . S
O88 C95 1.275 . S
Cd89 O88 2.300 . S
Cd89 O97 2.381 . S
Cd89 O98 2.378 . S
O90 Cd91 2.385 . S
O90 C95 1.255 . S
Cd91 O90 2.385 . S
Cd91 O92 2.317 . S
O92 Cd91 2.317 . S
O92 C93 1.232 . S
C93 O92 1.232 . S
C93 O94 1.218 . S
O94 C93 1.218 . S
C95 O88 1.275 . S
C95 O90 1.255 . S
C96 O97 1.258 . S
C96 O98 1.256 . S
O97 Cd89 2.381 . S
O97 C96 1.258 . S
O98 Cd89 2.378 . S
O98 C96 1.256 . S
O99 Cd100 2.300 . S
O99 C106 1.275 1_545 S
Cd100 O99 2.300 . S
Cd100 O108 2.381 . S
Cd100 O109 2.378 . S
O101 Cd102 2.385 . S
O101 C106 1.255 . S
Cd102 O101 2.385 . S
Cd102 O103 2.317 . S
O103 Cd102 2.317 . S
O103 C104 1.232 . S
C104 O103 1.232 . S
C104 O105 1.218 . S
O105 C104 1.218 . S
C106 O99 1.275 1_565 S
C106 O101 1.255 . S
C107 O108 1.258 . S
C107 O109 1.256 . S
O108 Cd100 2.381 . S
O108 C107 1.258 . S
O109 Cd100 2.378 . S
O109 C107 1.256 . S
O110 Cd111 2.300 . S
O110 C117 1.275 . S
Cd111 O110 2.300 . S
Cd111 O119 2.381 . S
Cd111 O120 2.378 . S
O112 Cd113 2.385 . S
O112 C117 1.255 . S
Cd113 O112 2.385 . S
Cd113 O114 2.317 . S
O114 Cd113 2.317 . S
O114 C115 1.232 . S
C115 O114 1.232 . S
C115 O116 1.218 . S
O116 C115 1.218 . S
C117 O110 1.275 . S
C117 O112 1.255 . S
C118 O119 1.258 . S
C118 O120 1.256 . S
O119 Cd111 2.381 . S
O119 C118 1.258 . S
O120 Cd111 2.378 . S
O120 C118 1.256 . S
O121 Cd122 2.300 . S
O121 C128 1.275 . S
Cd122 O121 2.300 . S
Cd122 O130 2.381 . S
Cd122 O131 2.378 . S
O123 Cd124 2.385 . S
O123 C128 1.255 . S
Cd124 O123 2.385 . S
Cd124 O125 2.317 . S
O125 Cd124 2.317 . S
O125 C126 1.232 . S
C126 O125 1.232 . S
C126 O127 1.218 . S
O127 C126 1.218 . S
C128 O121 1.275 . S
C128 O123 1.255 . S
C129 O130 1.258 . S
C129 O131 1.256 . S
O130 Cd122 2.381 . S
O130 C129 1.258 . S
O131 Cd122 2.378 . S
O131 C129 1.256 . S
O132 Cd133 2.300 . S
O132 C139 1.275 . S
Cd133 O132 2.300 . S
Cd133 O141 2.381 . S
Cd133 O142 2.378 . S
O134 Cd135 2.385 . S
O134 C139 1.255 . S
Cd135 O134 2.385 . S
Cd135 O136 2.317 . S
O136 Cd135 2.317 . S
O136 C137 1.232 . S
C137 O136 1.232 . S
C137 O138 1.218 . S
O138 C137 1.218 . S
C139 O132 1.275 . S
C139 O134 1.255 . S
C140 O141 1.258 . S
C140 O142 1.256 . S
O141 Cd133 2.381 . S
O141 C140 1.258 . S
O142 Cd133 2.378 . S
O142 C140 1.256 . S
O143 Cd144 2.300 . S
O143 C150 1.275 1_554 S
Cd144 O143 2.300 . S
Cd144 O152 2.381 . S
Cd144 O153 2.378 . S
O145 Cd146 2.385 . S
O145 C150 1.255 . S
Cd146 O145 2.385 . S
Cd146 O147 2.317 . S
O147 Cd146 2.317 . S
O147 C148 1.232 . S
C148 O147 1.232 . S
C148 O149 1.218 . S
O149 C148 1.218 . S
C150 O143 1.275 1_556 S
C150 O145 1.255 . S
C151 O152 1.258 . S
C151 O153 1.256 . S
O152 Cd144 2.381 . S
O152 C151 1.258 . S
O153 Cd144 2.378 . S
O153 C151 1.256 . S
O154 Cd155 2.300 . S
O154 C161 1.275 . S
Cd155 O154 2.300 . S
Cd155 O163 2.381 . S
Cd155 O164 2.378 . S
O156 Cd157 2.385 . S
O156 C161 1.255 . S
Cd157 O156 2.385 . S
Cd157 O158 2.317 . S
O158 Cd157 2.317 . S
O158 C159 1.232 . S
C159 O158 1.232 . S
C159 O160 1.218 . S
O160 C159 1.218 . S
C161 O154 1.275 . S
C161 O156 1.255 . S
C162 O163 1.258 . S
C162 O164 1.256 . S
O163 Cd155 2.381 . S
O163 C162 1.258 . S
O164 Cd155 2.378 . S
O164 C162 1.256 . S
O165 Cd166 2.300 1_556 S
O165 C172 1.275 . S
Cd166 O165 2.300 1_554 S
Cd166 O174 2.381 1_544 S
Cd166 O175 2.378 1_545 S
O167 Cd168 2.385 1_556 S
O167 C172 1.255 . S
Cd168 O167 2.385 1_554 S
Cd168 O169 2.317 . S
O169 Cd168 2.317 . S
O169 C170 1.232 . S
C170 O169 1.232 . S
C170 O171 1.218 . S
O171 C170 1.218 . S
C172 O165 1.275 . S
C172 O167 1.255 . S
C173 O174 1.247 1_554 S
C173 O175 1.266 . S
O174 Cd166 2.381 1_566 S
O174 C173 1.247 1_556 S
O175 Cd166 2.378 1_565 S
O175 C173 1.266 . S
Mn176 O181 2.095 . S
Mn176 O191 2.162 . S
Mn176 O192 2.297 . S
Mn176 O200 2.385 1_554 S
Mn176 O201 2.209 1_554 S
Mn176 O202 2.094 . S
Mn177 O182 2.121 . S
Mn177 N184 2.257 . S
Mn177 N193 2.282 . S
Mn177 O201 2.215 . S
Mn177 O203 2.117 . S
C178 O200 1.234 . S
C178 O201 1.283 . S
C179 O191 1.281 . S
C179 O192 1.236 . S
C180 O202 1.240 . S
C180 O203 1.264 1_554 S
O181 Mn176 2.095 . S
O181 C190 1.250 . S
O182 Mn177 2.121 . S
O182 C190 1.258 1_556 S
C183 N184 1.326 . S
C183 C187 1.460 . S
C183 H189 0.929 . S
N184 Mn177 2.257 . S
N184 C183 1.326 . S
N184 C188 1.362 . S
C185 C186 1.258 . S
C185 C188 1.431 . S
C185 C205 1.449 . S
C186 C185 1.258 . S
C186 C187 1.477 . S
C186 H206 0.931 . S
C187 C183 1.460 . S
C187 C186 1.477 . S
C187 H207 0.930 . S
C188 N184 1.362 . S
C188 C185 1.431 . S
C188 C198 1.476 . S
H189 C183 0.929 . S
C190 O181 1.250 . S
C190 O182 1.258 1_554 S
O191 Mn176 2.162 . S
O191 C179 1.281 . S
O192 Mn176 2.297 . S
O192 C179 1.236 . S
N193 Mn177 2.282 . S
N193 C194 1.328 . S
N193 C198 1.318 . S
C194 N193 1.328 . S
C194 C195 1.457 . S
C194 H199 0.929 . S
C195 C194 1.457 . S
C195 C196 1.291 . S
C195 H208 0.931 . S
C196 C195 1.291 . S
C196 C197 1.373 . S
C196 H209 0.929 . S
C197 C196 1.373 . S
C197 C198 1.396 . S
C197 C204 1.403 . S
C198 C188 1.476 . S
C198 N193 1.318 . S
C198 C197 1.396 . S
H199 C194 0.929 . S
O200 Mn176 2.385 1_556 S
O200 C178 1.234 . S
O201 Mn176 2.209 1_556 S
O201 Mn177 2.215 . S
O201 C178 1.283 . S
O202 Mn176 2.094 . S
O202 C180 1.240 . S
O203 Mn177 2.117 . S
O203 C180 1.264 1_556 S
C204 C197 1.403 . S
C204 C205 1.399 . S
C204 H210 0.929 . S
C205 C185 1.449 . S
C205 C204 1.399 . S
C205 H211 0.930 . S
H206 C186 0.931 . S
H207 C187 0.930 . S
H208 C195 0.931 . S
H209 C196 0.929 . S
H210 C204 0.929 . S
H211 C205 0.930 . S
Mn212 O217 2.095 . S
Mn212 O227 2.162 . S
Mn212 O228 2.297 . S
Mn212 O236 2.385 . S
Mn212 O237 2.209 . S
Mn212 O238 2.094 . S
Mn213 O218 2.121 . S
Mn213 N220 2.257 . S
Mn213 N229 2.282 . S
Mn213 O237 2.215 . S
Mn213 O239 2.117 . S
C214 O236 1.234 . S
C214 O237 1.283 . S
C215 O227 1.281 . S
C215 O228 1.236 . S
C216 O238 1.240 . S
C216 O239 1.264 . S
O217 Mn212 2.095 . S
O217 C226 1.250 . S
O218 Mn213 2.121 . S
O218 C226 1.258 . S
C219 N220 1.326 . S
C219 C223 1.460 . S
C219 H225 0.929 . S
N220 Mn213 2.257 . S
N220 C219 1.326 . S
N220 C224 1.362 . S
C221 C222 1.258 . S
C221 C224 1.431 . S
C221 C241 1.449 . S
C222 C221 1.258 . S
C222 C223 1.477 . S
C222 H242 0.931 . S
C223 C219 1.460 . S
C223 C222 1.477 . S
C223 H243 0.930 . S
C224 N220 1.362 . S
C224 C221 1.431 . S
C224 C234 1.476 . S
H225 C219 0.929 . S
C226 O217 1.250 . S
C226 O218 1.258 . S
O227 Mn212 2.162 . S
O227 C215 1.281 . S
O228 Mn212 2.297 . S
O228 C215 1.236 . S
N229 Mn213 2.282 . S
N229 C230 1.328 . S
N229 C234 1.318 . S
C230 N229 1.328 . S
C230 C231 1.457 . S
C230 H235 0.929 . S
C231 C230 1.457 . S
C231 C232 1.291 . S
C231 H244 0.931 . S
C232 C231 1.291 . S
C232 C233 1.373 . S
C232 H245 0.929 . S
C233 C232 1.373 . S
C233 C234 1.396 . S
C233 C240 1.403 . S
C234 C224 1.476 . S
C234 N229 1.318 . S
C234 C233 1.396 . S
H235 C230 0.929 . S
O236 Mn212 2.385 . S
O236 C214 1.234 . S
O237 Mn212 2.209 . S
O237 Mn213 2.215 . S
O237 C214 1.283 . S
O238 Mn212 2.094 . S
O238 C216 1.240 . S
O239 Mn213 2.117 . S
O239 C216 1.264 . S
C240 C233 1.403 . S
C240 C241 1.399 . S
C240 H246 0.929 . S
C241 C221 1.449 . S
C241 C240 1.399 . S
C241 H247 0.930 . S
H242 C222 0.931 . S
H243 C223 0.930 . S
H244 C231 0.931 . S
H245 C232 0.929 . S
H246 C240 0.929 . S
H247 C241 0.930 . S
Mn248 O253 2.095 1_554 S
Mn248 O263 2.162 . S
Mn248 O264 2.297 1_554 S
Mn248 O272 2.385 . S
Mn248 O273 2.209 1_554 S
Mn248 O274 2.094 . S
Mn249 O254 2.121 . S
Mn249 N256 2.257 . S
Mn249 N265 2.282 . S
Mn249 O273 2.215 . S
Mn249 O275 2.117 1_556 S
C250 O272 1.234 1_556 S
C250 O273 1.283 . S
C251 O263 1.281 . S
C251 O264 1.236 1_554 S
C252 O274 1.240 . S
C252 O275 1.264 . S
O253 Mn248 2.095 1_556 S
O253 C262 1.250 . S
O254 Mn249 2.121 . S
O254 C262 1.258 . S
C255 N256 1.326 . S
C255 C259 1.460 . S
C255 H261 0.929 . S
N256 Mn249 2.257 . S
N256 C255 1.326 . S
N256 C260 1.362 . S
C257 C258 1.258 . S
C257 C260 1.431 . S
C257 C277 1.449 . S
C258 C257 1.258 . S
C258 C259 1.477 . S
C258 H278 0.931 . S
C259 C255 1.460 . S
C259 C258 1.477 . S
C259 H279 0.930 . S
C260 N256 1.362 . S
C260 C257 1.431 . S
C260 C270 1.476 . S
H261 C255 0.929 . S
C262 O253 1.250 . S
C262 O254 1.258 . S
O263 Mn248 2.162 . S
O263 C251 1.281 . S
O264 Mn248 2.297 1_556 S
O264 C251 1.236 1_556 S
N265 Mn249 2.282 . S
N265 C266 1.328 1_556 S
N265 C270 1.318 . S
C266 N265 1.328 1_554 S
C266 C267 1.457 . S
C266 H271 0.929 . S
C267 C266 1.457 . S
C267 C268 1.291 . S
C267 H280 0.931 . S
C268 C267 1.291 . S
C268 C269 1.373 1_554 S
C268 H281 0.929 . S
C269 C268 1.373 1_556 S
C269 C270 1.396 . S
C269 C276 1.403 . S
C270 C260 1.476 . S
C270 N265 1.318 . S
C270 C269 1.396 . S
H271 C266 0.929 . S
O272 Mn248 2.385 . S
O272 C250 1.234 1_554 S
O273 Mn248 2.209 1_556 S
O273 Mn249 2.215 . S
O273 C250 1.283 . S
O274 Mn248 2.094 . S
O274 C252 1.240 . S
O275 Mn249 2.117 1_554 S
O275 C252 1.264 . S
C276 C269 1.403 . S
C276 C277 1.399 . S
C276 H282 0.929 . S
C277 C257 1.449 . S
C277 C276 1.399 . S
C277 H283 0.930 . S
H278 C258 0.931 . S
H279 C259 0.930 . S
H280 C267 0.931 . S
H281 C268 0.929 . S
H282 C276 0.929 . S
H283 C277 0.930 . S
Mn284 O289 2.095 . S
Mn284 O299 2.162 . S
Mn284 O300 2.297 . S
Mn284 O308 2.385 . S
Mn284 O309 2.209 1_545 S
Mn284 O310 2.094 . S
Mn285 O290 2.121 . S
Mn285 N292 2.257 . S
Mn285 N301 2.282 . S
Mn285 O309 2.215 . S
Mn285 O311 2.117 . S
C286 O308 1.234 1_565 S
C286 O309 1.283 . S
C287 O299 1.281 . S
C287 O300 1.236 . S
C288 O310 1.240 . S
C288 O311 1.264 1_545 S
O289 Mn284 2.095 . S
O289 C298 1.250 . S
O290 Mn285 2.121 . S
O290 C298 1.258 1_565 S
C291 N292 1.326 . S
C291 C295 1.460 . S
C291 H297 0.929 . S
N292 Mn285 2.257 . S
N292 C291 1.326 . S
N292 C296 1.362 . S
C293 C294 1.258 . S
C293 C296 1.431 . S
C293 C313 1.449 . S
C294 C293 1.258 . S
C294 C295 1.477 . S
C294 H314 0.931 . S
C295 C291 1.460 . S
C295 C294 1.477 . S
C295 H315 0.930 . S
C296 N292 1.362 . S
C296 C293 1.431 . S
C296 C306 1.476 . S
H297 C291 0.929 . S
C298 O289 1.250 . S
C298 O290 1.258 1_545 S
O299 Mn284 2.162 . S
O299 C287 1.281 . S
O300 Mn284 2.297 . S
O300 C287 1.236 . S
N301 Mn285 2.282 . S
N301 C302 1.328 . S
N301 C306 1.318 . S
C302 N301 1.328 . S
C302 C303 1.457 . S
C302 H307 0.929 . S
C303 C302 1.457 . S
C303 C304 1.291 . S
C303 H316 0.931 . S
C304 C303 1.291 . S
C304 C305 1.373 . S
C304 H317 0.929 . S
C305 C304 1.373 . S
C305 C306 1.396 . S
C305 C312 1.403 . S
C306 C296 1.476 . S
C306 N301 1.318 . S
C306 C305 1.396 . S
H307 C302 0.929 . S
O308 Mn284 2.385 . S
O308 C286 1.234 1_545 S
O309 Mn284 2.209 1_565 S
O309 Mn285 2.215 . S
O309 C286 1.283 . S
O310 Mn284 2.094 . S
O310 C288 1.240 . S
O311 Mn285 2.117 . S
O311 C288 1.264 1_565 S
C312 C305 1.403 . S
C312 C313 1.399 . S
C312 H318 0.929 . S
C313 C293 1.449 . S
C313 C312 1.399 . S
C313 H319 0.930 . S
H314 C294 0.931 . S
H315 C295 0.930 . S
H316 C303 0.931 . S
H317 C304 0.929 . S
H318 C312 0.929 . S
H319 C313 0.930 . S
Mn320 O325 2.095 . S
Mn320 O335 2.162 . S
Mn320 O336 2.297 . S
Mn320 O344 2.385 . S
Mn320 O345 2.209 . S
Mn320 O346 2.094 . S
Mn321 O326 2.121 . S
Mn321 N328 2.257 . S
Mn321 N337 2.282 . S
Mn321 O345 2.215 . S
Mn321 O347 2.117 . S
C322 O344 1.234 . S
C322 O345 1.283 . S
C323 O335 1.281 . S
C323 O336 1.236 . S
C324 O346 1.240 . S
C324 O347 1.264 . S
O325 Mn320 2.095 . S
O325 C334 1.250 . S
O326 Mn321 2.121 . S
O326 C334 1.258 . S
C327 N328 1.326 . S
C327 C331 1.460 . S
C327 H333 0.929 . S
N328 Mn321 2.257 . S
N328 C327 1.326 . S
N328 C332 1.362 . S
C329 C330 1.258 . S
C329 C332 1.431 . S
C329 C349 1.449 . S
C330 C329 1.258 . S
C330 C331 1.477 . S
C330 H350 0.931 . S
C331 C327 1.460 . S
C331 C330 1.477 . S
C331 H351 0.930 . S
C332 N328 1.362 . S
C332 C329 1.431 . S
C332 C342 1.476 . S
H333 C327 0.929 . S
C334 O325 1.250 . S
C334 O326 1.258 . S
O335 Mn320 2.162 . S
O335 C323 1.281 . S
O336 Mn320 2.297 . S
O336 C323 1.236 . S
N337 Mn321 2.282 . S
N337 C338 1.328 . S
N337 C342 1.318 . S
C338 N337 1.328 . S
C338 C339 1.457 . S
C338 H343 0.929 . S
C339 C338 1.457 . S
C339 C340 1.291 . S
C339 H352 0.931 . S
C340 C339 1.291 . S
C340 C341 1.373 . S
C340 H353 0.929 . S
C341 C340 1.373 . S
C341 C342 1.396 . S
C341 C348 1.403 . S
C342 C332 1.476 . S
C342 N337 1.318 . S
C342 C341 1.396 . S
H343 C338 0.929 . S
O344 Mn320 2.385 . S
O344 C322 1.234 . S
O345 Mn320 2.209 . S
O345 Mn321 2.215 . S
O345 C322 1.283 . S
O346 Mn320 2.094 . S
O346 C324 1.240 . S
O347 Mn321 2.117 . S
O347 C324 1.264 . S
C348 C341 1.403 . S
C348 C349 1.399 . S
C348 H354 0.929 . S
C349 C329 1.449 . S
C349 C348 1.399 . S
C349 H355 0.930 . S
H350 C330 0.931 . S
H351 C331 0.930 . S
H352 C339 0.931 . S
H353 C340 0.929 . S
H354 C348 0.929 . S
H355 C349 0.930 . S
Mn356 O361 2.095 . S
Mn356 O371 2.162 . S
Mn356 O372 2.297 . S
Mn356 O380 2.385 . S
Mn356 O381 2.209 . S
Mn356 O382 2.094 . S
Mn357 O362 2.121 . S
Mn357 N364 2.257 . S
Mn357 N373 2.282 . S
Mn357 O381 2.215 . S
Mn357 O383 2.117 . S
C358 O380 1.234 . S
C358 O381 1.283 . S
C359 O371 1.281 . S
C359 O372 1.236 . S
C360 O382 1.240 . S
C360 O383 1.264 . S
O361 Mn356 2.095 . S
O361 C370 1.250 . S
O362 Mn357 2.121 . S
O362 C370 1.258 . S
C363 N364 1.326 . S
C363 C367 1.460 . S
C363 H369 0.929 . S
N364 Mn357 2.257 . S
N364 C363 1.326 . S
N364 C368 1.362 . S
C365 C366 1.258 . S
C365 C368 1.431 . S
C365 C385 1.449 . S
C366 C365 1.258 . S
C366 C367 1.477 . S
C366 H386 0.931 . S
C367 C363 1.460 . S
C367 C366 1.477 . S
C367 H387 0.930 . S
C368 N364 1.362 . S
C368 C365 1.431 . S
C368 C378 1.476 . S
H369 C363 0.929 . S
C370 O361 1.250 . S
C370 O362 1.258 . S
O371 Mn356 2.162 . S
O371 C359 1.281 . S
O372 Mn356 2.297 . S
O372 C359 1.236 . S
N373 Mn357 2.282 . S
N373 C374 1.328 . S
N373 C378 1.318 . S
C374 N373 1.328 . S
C374 C375 1.457 . S
C374 H379 0.929 . S
C375 C374 1.457 . S
C375 C376 1.291 . S
C375 H388 0.931 . S
C376 C375 1.291 . S
C376 C377 1.373 . S
C376 H389 0.929 . S
C377 C376 1.373 . S
C377 C378 1.396 . S
C377 C384 1.403 . S
C378 C368 1.476 . S
C378 N373 1.318 . S
C378 C377 1.396 . S
H379 C374 0.929 . S
O380 Mn356 2.385 . S
O380 C358 1.234 . S
O381 Mn356 2.209 . S
O381 Mn357 2.215 . S
O381 C358 1.283 . S
O382 Mn356 2.094 . S
O382 C360 1.240 . S
O383 Mn357 2.117 . S
O383 C360 1.264 . S
C384 C377 1.403 . S
C384 C385 1.399 . S
C384 H390 0.929 . S
C385 C365 1.449 . S
C385 C384 1.399 . S
C385 H391 0.930 . S
H386 C366 0.931 . S
H387 C367 0.930 . S
H388 C375 0.931 . S
H389 C376 0.929 . S
H390 C384 0.929 . S
H391 C385 0.930 . S
Mn392 O397 2.095 . S
Mn392 O407 2.162 . S
Mn392 O408 2.297 . S
Mn392 O416 2.385 . S
Mn392 O417 2.209 . S
Mn392 O418 2.094 . S
Mn393 O398 2.121 . S
Mn393 N400 2.257 . S
Mn393 N409 2.282 . S
Mn393 O417 2.215 . S
Mn393 O419 2.117 . S
C394 O416 1.234 . S
C394 O417 1.283 . S
C395 O407 1.281 . S
C395 O408 1.236 . S
C396 O418 1.240 . S
C396 O419 1.264 . S
O397 Mn392 2.095 . S
O397 C406 1.250 . S
O398 Mn393 2.121 . S
O398 C406 1.258 . S
C399 N400 1.326 . S
C399 C403 1.460 . S
C399 H405 0.929 . S
N400 Mn393 2.257 . S
N400 C399 1.326 . S
N400 C404 1.362 . S
C401 C402 1.258 . S
C401 C404 1.431 . S
C401 C421 1.449 . S
C402 C401 1.258 . S
C402 C403 1.477 . S
C402 H422 0.931 . S
C403 C399 1.460 . S
C403 C402 1.477 . S
C403 H423 0.930 . S
C404 N400 1.362 . S
C404 C401 1.431 . S
C404 C414 1.476 . S
H405 C399 0.929 . S
C406 O397 1.250 . S
C406 O398 1.258 . S
O407 Mn392 2.162 . S
O407 C395 1.281 . S
O408 Mn392 2.297 . S
O408 C395 1.236 . S
N409 Mn393 2.282 . S
N409 C410 1.328 . S
N409 C414 1.318 . S
C410 N409 1.328 . S
C410 C411 1.457 . S
C410 H415 0.929 . S
C411 C410 1.457 . S
C411 C412 1.291 . S
C411 H424 0.931 . S
C412 C411 1.291 . S
C412 C413 1.373 . S
C412 H425 0.929 . S
C413 C412 1.373 . S
C413 C414 1.396 . S
C413 C420 1.403 . S
C414 C404 1.476 . S
C414 N409 1.318 . S
C414 C413 1.396 . S
H415 C410 0.929 . S
O416 Mn392 2.385 . S
O416 C394 1.234 . S
O417 Mn392 2.209 . S
O417 Mn393 2.215 . S
O417 C394 1.283 . S
O418 Mn392 2.094 . S
O418 C396 1.240 . S
O419 Mn393 2.117 . S
O419 C396 1.264 . S
C420 C413 1.403 . S
C420 C421 1.399 . S
C420 H426 0.929 . S
C421 C401 1.449 . S
C421 C420 1.399 . S
C421 H427 0.930 . S
H422 C402 0.931 . S
H423 C403 0.930 . S
H424 C411 0.931 . S
H425 C412 0.929 . S
H426 C420 0.929 . S
H427 C421 0.930 . S
Mn428 O433 2.095 . S
Mn428 O443 2.162 . S
Mn428 O444 2.297 . S
Mn428 O452 2.385 1_565 S
Mn428 O453 2.209 1_565 S
Mn428 O454 2.094 . S
Mn429 O434 2.121 . S
Mn429 N436 2.257 . S
Mn429 N445 2.282 . S
Mn429 O453 2.215 . S
Mn429 O455 2.117 . S
C430 O452 1.234 . S
C430 O453 1.283 . S
C431 O443 1.281 . S
C431 O444 1.236 . S
C432 O454 1.240 1_545 S
C432 O455 1.264 . S
O433 Mn428 2.095 . S
O433 C442 1.250 1_565 S
O434 Mn429 2.121 . S
O434 C442 1.258 . S
C435 N436 1.326 . S
C435 C439 1.460 . S
C435 H441 0.929 . S
N436 Mn429 2.257 . S
N436 C435 1.326 . S
N436 C440 1.362 . S
C437 C438 1.258 . S
C437 C440 1.431 . S
C437 C457 1.449 . S
C438 C437 1.258 . S
C438 C439 1.477 . S
C438 H458 0.931 . S
C439 C435 1.460 . S
C439 C438 1.477 . S
C439 H459 0.930 . S
C440 N436 1.362 . S
C440 C437 1.431 . S
C440 C450 1.476 . S
H441 C435 0.929 . S
C442 O433 1.250 1_545 S
C442 O434 1.258 . S
O443 Mn428 2.162 . S
O443 C431 1.281 . S
O444 Mn428 2.297 . S
O444 C431 1.236 . S
N445 Mn429 2.282 . S
N445 C446 1.328 . S
N445 C450 1.318 . S
C446 N445 1.328 . S
C446 C447 1.457 . S
C446 H451 0.929 . S
C447 C446 1.457 . S
C447 C448 1.291 . S
C447 H460 0.931 . S
C448 C447 1.291 . S
C448 C449 1.373 . S
C448 H461 0.929 . S
C449 C448 1.373 . S
C449 C450 1.396 . S
C449 C456 1.403 . S
C450 C440 1.476 . S
C450 N445 1.318 . S
C450 C449 1.396 . S
H451 C446 0.929 . S
O452 Mn428 2.385 1_545 S
O452 C430 1.234 . S
O453 Mn428 2.209 1_545 S
O453 Mn429 2.215 . S
O453 C430 1.283 . S
O454 Mn428 2.094 . S
O454 C432 1.240 1_565 S
O455 Mn429 2.117 . S
O455 C432 1.264 . S
C456 C449 1.403 . S
C456 C457 1.399 . S
C456 H462 0.929 . S
C457 C437 1.449 . S
C457 C456 1.399 . S
C457 H463 0.930 . S
H458 C438 0.931 . S
H459 C439 0.930 . S
H460 C447 0.931 . S
H461 C448 0.929 . S
H462 C456 0.929 . S
H463 C457 0.930 . S
Mn464 O469 2.095 . S
Mn464 O479 2.162 . S
Mn464 O480 2.297 . S
Mn464 O488 2.385 1_455 S
Mn464 O489 2.209 1_455 S
Mn464 O490 2.094 . S
Mn465 O470 2.121 . S
Mn465 N472 2.257 . S
Mn465 N481 2.282 . S
Mn465 O489 2.215 . S
Mn465 O491 2.117 . S
C466 O488 1.234 . S
C466 O489 1.283 . S
C467 O479 1.281 . S
C467 O480 1.236 . S
C468 O490 1.240 . S
C468 O491 1.264 1_455 S
O469 Mn464 2.095 . S
O469 C478 1.264 . S
O470 Mn465 2.121 . S
O470 C478 1.242 1_655 S
C471 N472 1.326 . S
C471 C475 1.460 . S
C471 H477 0.929 . S
N472 Mn465 2.257 . S
N472 C471 1.326 . S
N472 C476 1.362 . S
C473 C474 1.258 . S
C473 C476 1.431 . S
C473 C493 1.449 . S
C474 C473 1.258 . S
C474 C475 1.477 . S
C474 H494 0.931 . S
C475 C471 1.460 . S
C475 C474 1.477 . S
C475 H495 0.930 . S
C476 N472 1.362 . S
C476 C473 1.431 . S
C476 C486 1.476 . S
H477 C471 0.929 . S
C478 O469 1.264 . S
C478 O470 1.242 1_455 S
O479 Mn464 2.162 . S
O479 C467 1.281 . S
O480 Mn464 2.297 . S
O480 C467 1.236 . S
N481 Mn465 2.282 . S
N481 C482 1.328 . S
N481 C486 1.318 . S
C482 N481 1.328 . S
C482 C483 1.457 . S
C482 H487 0.929 . S
C483 C482 1.457 . S
C483 C484 1.291 . S
C483 H496 0.931 . S
C484 C483 1.291 . S
C484 C485 1.373 . S
C484 H497 0.929 . S
C485 C484 1.373 . S
C485 C486 1.396 . S
C485 C492 1.403 . S
C486 C476 1.476 . S
C486 N481 1.318 . S
C486 C485 1.396 . S
H487 C482 0.929 . S
O488 Mn464 2.385 1_655 S
O488 C466 1.234 . S
O489 Mn464 2.209 1_655 S
O489 Mn465 2.215 . S
O489 C466 1.283 . S
O490 Mn464 2.094 . S
O490 C468 1.240 . S
O491 Mn465 2.117 . S
O491 C468 1.264 1_655 S
C492 C485 1.403 . S
C492 C493 1.399 . S
C492 H498 0.929 . S
C493 C473 1.449 . S
C493 C492 1.399 . S
C493 H499 0.930 . S
H494 C474 0.931 . S
H495 C475 0.930 . S
H496 C483 0.931 . S
H497 C484 0.929 . S
H498 C492 0.929 . S
H499 C493 0.930 . S
Mn500 O505 2.095 . S
Mn500 O515 2.162 . S
Mn500 O516 2.297 . S
Mn500 O524 2.385 . S
Mn500 O525 2.209 . S
Mn500 O526 2.094 . S
Mn501 O506 2.121 . S
Mn501 N508 2.257 . S
Mn501 N517 2.282 . S
Mn501 O525 2.215 . S
Mn501 O527 2.117 . S
C502 O524 1.234 . S
C502 O525 1.283 . S
C503 O515 1.281 . S
C503 O516 1.236 . S
C504 O526 1.240 . S
C504 O527 1.264 . S
O505 Mn500 2.095 . S
O505 C514 1.250 . S
O506 Mn501 2.121 . S
O506 C514 1.258 . S
C507 N508 1.326 . S
C507 C511 1.460 . S
C507 H513 0.929 . S
N508 Mn501 2.257 . S
N508 C507 1.326 . S
N508 C512 1.362 . S
C509 C510 1.258 . S
C509 C512 1.431 . S
C509 C529 1.449 . S
C510 C509 1.258 . S
C510 C511 1.477 . S
C510 H530 0.931 . S
C511 C507 1.460 . S
C511 C510 1.477 . S
C511 H531 0.930 . S
C512 N508 1.362 . S
C512 C509 1.431 . S
C512 C522 1.476 . S
H513 C507 0.929 . S
C514 O505 1.250 . S
C514 O506 1.258 . S
O515 Mn500 2.162 . S
O515 C503 1.281 . S
O516 Mn500 2.297 . S
O516 C503 1.236 . S
N517 Mn501 2.282 . S
N517 C518 1.328 . S
N517 C522 1.318 . S
C518 N517 1.328 . S
C518 C519 1.457 . S
C518 H523 0.929 . S
C519 C518 1.457 . S
C519 C520 1.291 . S
C519 H532 0.931 . S
C520 C519 1.291 . S
C520 C521 1.373 . S
C520 H533 0.929 . S
C521 C520 1.373 . S
C521 C522 1.396 . S
C521 C528 1.403 . S
C522 C512 1.476 . S
C522 N517 1.318 . S
C522 C521 1.396 . S
H523 C518 0.929 . S
O524 Mn500 2.385 . S
O524 C502 1.234 . S
O525 Mn500 2.209 . S
O525 Mn501 2.215 . S
O525 C502 1.283 . S
O526 Mn500 2.094 . S
O526 C504 1.240 . S
O527 Mn501 2.117 . S
O527 C504 1.264 . S
C528 C521 1.403 . S
C528 C529 1.399 . S
C528 H534 0.929 . S
C529 C509 1.449 . S
C529 C528 1.399 . S
C529 H535 0.930 . S
H530 C510 0.931 . S
H531 C511 0.930 . S
H532 C519 0.931 . S
H533 C520 0.929 . S
H534 C528 0.929 . S
H535 C529 0.930 . S
Mn536 O541 2.095 . S
Mn536 O551 2.162 . S
Mn536 O552 2.297 . S
Mn536 O560 2.385 . S
Mn536 O561 2.209 . S
Mn536 O562 2.094 . S
Mn537 O542 2.121 1_455 S
Mn537 N544 2.257 1_455 S
Mn537 N553 2.282 . S
Mn537 O561 2.215 . S
Mn537 O563 2.117 . S
C538 O560 1.234 . S
C538 O561 1.283 . S
C539 O551 1.281 . S
C539 O552 1.236 . S
C540 O562 1.240 . S
C540 O563 1.264 . S
O541 Mn536 2.095 . S
O541 C550 1.250 1_455 S
O542 Mn537 2.121 1_655 S
O542 C550 1.258 . S
C543 N544 1.326 . S
C543 C547 1.460 . S
C543 H549 0.929 . S
N544 Mn537 2.257 1_655 S
N544 C543 1.326 . S
N544 C548 1.362 . S
C545 C546 1.258 . S
C545 C548 1.431 . S
C545 C565 1.449 . S
C546 C545 1.258 . S
C546 C547 1.477 . S
C546 H566 0.931 . S
C547 C543 1.460 . S
C547 C546 1.477 . S
C547 H567 0.930 . S
C548 N544 1.362 . S
C548 C545 1.431 . S
C548 C558 1.476 . S
H549 C543 0.929 . S
C550 O541 1.250 1_655 S
C550 O542 1.258 . S
O551 Mn536 2.162 . S
O551 C539 1.281 . S
O552 Mn536 2.297 . S
O552 C539 1.236 . S
N553 Mn537 2.282 . S
N553 C554 1.328 . S
N553 C558 1.318 1_455 S
C554 N553 1.328 . S
C554 C555 1.457 . S
C554 H559 0.929 . S
C555 C554 1.457 . S
C555 C556 1.291 . S
C555 H568 0.931 . S
C556 C555 1.291 . S
C556 C557 1.373 . S
C556 H569 0.929 . S
C557 C556 1.373 . S
C557 C558 1.396 1_455 S
C557 C564 1.403 1_455 S
C558 C548 1.476 . S
C558 N553 1.318 1_655 S
C558 C557 1.396 1_655 S
H559 C554 0.929 . S
O560 Mn536 2.385 . S
O560 C538 1.234 . S
O561 Mn536 2.209 . S
O561 Mn537 2.215 . S
O561 C538 1.283 . S
O562 Mn536 2.094 . S
O562 C540 1.240 . S
O563 Mn537 2.117 . S
O563 C540 1.264 . S
C564 C557 1.403 1_655 S
C564 C565 1.399 . S
C564 H570 0.929 . S
C565 C545 1.449 . S
C565 C564 1.399 . S
C565 H571 0.930 . S
H566 C546 0.931 . S
H567 C547 0.930 . S
H568 C555 0.931 . S
H569 C556 0.929 . S
H570 C564 0.929 . S
H571 C565 0.930 . S
Mn572 O577 2.095 . S
Mn572 O587 2.162 . S
Mn572 O588 2.297 . S
Mn572 O596 2.385 . S
Mn572 O597 2.209 . S
Mn572 O598 2.094 . S
Mn573 O578 2.121 . S
Mn573 N580 2.257 . S
Mn573 N589 2.282 . S
Mn573 O597 2.215 . S
Mn573 O599 2.117 . S
C574 O596 1.234 . S
C574 O597 1.283 . S
C575 O587 1.281 . S
C575 O588 1.236 . S
C576 O598 1.240 . S
C576 O599 1.264 . S
O577 Mn572 2.095 . S
O577 C586 1.250 . S
O578 Mn573 2.121 . S
O578 C586 1.258 . S
C579 N580 1.326 . S
C579 C583 1.460 . S
C579 H585 0.929 . S
N580 Mn573 2.257 . S
N580 C579 1.326 . S
N580 C584 1.362 . S
C581 C582 1.258 . S
C581 C584 1.431 . S
C581 C601 1.449 . S
C582 C581 1.258 . S
C582 C583 1.477 . S
C582 H602 0.931 . S
C583 C579 1.460 . S
C583 C582 1.477 . S
C583 H603 0.930 . S
C584 N580 1.362 . S
C584 C581 1.431 . S
C584 C594 1.476 . S
H585 C579 0.929 . S
C586 O577 1.250 . S
C586 O578 1.258 . S
O587 Mn572 2.162 . S
O587 C575 1.281 . S
O588 Mn572 2.297 . S
O588 C575 1.236 . S
N589 Mn573 2.282 . S
N589 C590 1.328 . S
N589 C594 1.318 . S
C590 N589 1.328 . S
C590 C591 1.457 . S
C590 H595 0.929 . S
C591 C590 1.457 . S
C591 C592 1.291 . S
C591 H604 0.931 . S
C592 C591 1.291 . S
C592 C593 1.373 . S
C592 H605 0.929 . S
C593 C592 1.373 . S
C593 C594 1.396 . S
C593 C600 1.403 . S
C594 C584 1.476 . S
C594 N589 1.318 . S
C594 C593 1.396 . S
H595 C590 0.929 . S
O596 Mn572 2.385 . S
O596 C574 1.234 . S
O597 Mn572 2.209 . S
O597 Mn573 2.215 . S
O597 C574 1.283 . S
O598 Mn572 2.094 . S
O598 C576 1.240 . S
O599 Mn573 2.117 . S
O599 C576 1.264 . S
C600 C593 1.403 . S
C600 C601 1.399 . S
C600 H606 0.929 . S
C601 C581 1.449 . S
C601 C600 1.399 . S
C601 H607 0.930 . S
H602 C582 0.931 . S
H603 C583 0.930 . S
H604 C591 0.931 . S
H605 C592 0.929 . S
H606 C600 0.929 . S
H607 C601 0.930 . S
C608 C609 1.387 . S
C608 H612 0.950 . S
C608 C617 1.390 . S
C609 C608 1.387 . S
C609 C611 1.387 . S
H610 C617 0.950 . S
C611 C609 1.387 . S
C611 C613 1.390 . S
C611 H615 0.950 . S
H612 C608 0.950 . S
C613 C611 1.390 . S
C613 C614 1.387 . S
C613 H616 0.950 . S
C614 C613 1.387 . S
C614 C617 1.387 . S
H615 C611 0.950 . S
H616 C613 0.950 . S
C617 C608 1.390 . S
C617 H610 0.950 . S
C617 C614 1.387 . S
C618 C619 1.387 . S
C618 H622 0.950 . S
C618 C627 1.390 . S
C619 C618 1.387 . S
C619 C621 1.387 . S
H620 C627 0.950 . S
C621 C619 1.387 . S
C621 C623 1.390 . S
C621 H625 0.950 . S
H622 C618 0.950 . S
C623 C621 1.390 . S
C623 C624 1.387 . S
C623 H626 0.950 . S
C624 C623 1.387 . S
C624 C627 1.387 . S
H625 C621 0.950 . S
H626 C623 0.950 . S
C627 C618 1.390 . S
C627 H620 0.950 . S
C627 C624 1.387 . S
C628 C629 1.387 . S
C628 H632 0.950 . S
C628 C637 1.390 . S
C629 C628 1.387 . S
C629 C631 1.387 . S
H630 C637 0.950 . S
C631 C629 1.387 . S
C631 C633 1.390 . S
C631 H635 0.950 . S
H632 C628 0.950 . S
C633 C631 1.390 . S
C633 C634 1.387 . S
C633 H636 0.950 . S
C634 C633 1.387 . S
C634 C637 1.387 . S
H635 C631 0.950 . S
H636 C633 0.950 . S
C637 C628 1.390 . S
C637 H630 0.950 . S
C637 C634 1.387 . S
C638 C639 1.387 . S
C638 H642 0.950 1_655 S
C638 C647 1.390 . S
C639 C638 1.387 . S
C639 C641 1.387 1_545 S
H640 C647 0.950 . S
C641 C639 1.387 1_565 S
C641 C643 1.387 1_565 S
C641 H645 0.950 . S
H642 C638 0.950 1_455 S
C643 C641 1.387 1_545 S
C643 C644 1.395 . S
C643 H646 0.945 1_545 S
C644 C643 1.395 . S
C644 C647 1.387 . S
H645 C641 0.950 . S
H646 C643 0.945 1_565 S
C647 C638 1.390 . S
C647 H640 0.950 . S
C647 C644 1.387 . S
C648 C649 1.387 . S
C648 H652 0.950 . S
C648 C657 1.390 . S
C649 C648 1.387 . S
C649 C651 1.387 . S
H650 C657 0.950 . S
C651 C649 1.387 . S
C651 C653 1.390 . S
C651 H655 0.950 . S
H652 C648 0.950 . S
C653 C651 1.390 . S
C653 C654 1.387 . S
C653 H656 0.950 . S
C654 C653 1.387 . S
C654 C657 1.387 . S
H655 C651 0.950 . S
H656 C653 0.950 . S
C657 C648 1.390 . S
C657 H650 0.950 . S
C657 C654 1.387 . S
C658 C659 1.387 . S
C658 H662 0.950 . S
C658 C667 1.390 . S
C659 C658 1.387 . S
C659 C661 1.387 . S
H660 C667 0.950 . S
C661 C659 1.387 . S
C661 C663 1.390 . S
C661 H665 0.950 . S
H662 C658 0.950 . S
C663 C661 1.390 . S
C663 C664 1.387 . S
C663 H666 0.950 . S
C664 C663 1.387 . S
C664 C667 1.387 . S
H665 C661 0.950 . S
H666 C663 0.950 . S
C667 C658 1.390 . S
C667 H660 0.950 . S
C667 C664 1.387 . S
C668 C669 1.387 . S
C668 H672 0.950 . S
C668 C677 1.390 . S
C669 C668 1.387 . S
C669 C671 1.387 . S
H670 C677 0.950 . S
C671 C669 1.387 . S
C671 C673 1.390 . S
C671 H675 0.950 . S
H672 C668 0.950 . S
C673 C671 1.390 . S
C673 C674 1.387 . S
C673 H676 0.950 . S
C674 C673 1.387 . S
C674 C677 1.387 . S
H675 C671 0.950 . S
H676 C673 0.950 . S
C677 C668 1.390 . S
C677 H670 0.950 . S
C677 C674 1.387 . S
C678 C679 1.387 1_545 S
C678 H682 0.950 . S
C678 C687 1.390 . S
C679 C678 1.387 1_565 S
C679 C681 1.387 . S
H680 C687 0.950 . S
C681 C679 1.387 . S
C681 C683 1.390 . S
C681 H685 0.950 . S
H682 C678 0.950 . S
C683 C681 1.390 . S
C683 C684 1.387 . S
C683 H686 0.950 . S
C684 C683 1.387 . S
C684 C687 1.387 1_565 S
H685 C681 0.950 . S
H686 C683 0.950 . S
C687 C678 1.390 . S
C687 H680 0.950 . S
C687 C684 1.387 1_545 S
C688 C689 1.387 . S
C688 H692 0.950 . S
C688 C697 1.390 . S
C689 C688 1.387 . S
C689 C691 1.387 . S
H690 C697 0.950 . S
C691 C689 1.387 . S
C691 C693 1.390 . S
C691 H695 0.950 . S
H692 C688 0.950 . S
C693 C691 1.390 . S
C693 C694 1.387 . S
C693 H696 0.950 . S
C694 C693 1.387 . S
C694 C697 1.387 . S
H695 C691 0.950 . S
H696 C693 0.950 . S
C697 C688 1.390 . S
C697 H690 0.950 . S
C697 C694 1.387 . S
C698 C699 1.387 . S
C698 H702 0.950 . S
C698 C707 1.390 . S
C699 C698 1.387 . S
C699 C701 1.387 . S
H700 C707 0.950 . S
C701 C699 1.387 . S
C701 C703 1.390 . S
C701 H705 0.950 . S
H702 C698 0.950 . S
C703 C701 1.390 . S
C703 C704 1.387 . S
C703 H706 0.950 . S
C704 C703 1.387 . S
C704 C707 1.387 . S
H705 C701 0.950 . S
H706 C703 0.950 . S
C707 C698 1.390 . S
C707 H700 0.950 . S
C707 C704 1.387 . S
C708 C709 1.387 . S
C708 H712 0.950 . S
C708 C717 1.390 . S
C709 C708 1.387 . S
C709 C711 1.387 . S
H710 C717 0.950 . S
C711 C709 1.387 . S
C711 C713 1.390 . S
C711 H715 0.950 . S
H712 C708 0.950 . S
C713 C711 1.390 . S
C713 C714 1.387 . S
C713 H716 0.950 . S
C714 C713 1.387 . S
C714 C717 1.387 . S
H715 C711 0.950 . S
H716 C713 0.950 . S
C717 C708 1.390 . S
C717 H710 0.950 . S
C717 C714 1.387 . S
C718 C719 1.387 . S
C718 H722 0.950 . S
C718 C727 1.390 . S
C719 C718 1.387 . S
C719 C721 1.387 . S
H720 C727 0.950 . S
C721 C719 1.387 . S
C721 C723 1.390 . S
C721 H725 0.950 . S
H722 C718 0.950 . S
C723 C721 1.390 . S
C723 C724 1.387 . S
C723 H726 0.950 . S
C724 C723 1.387 . S
C724 C727 1.387 . S
H725 C721 0.950 . S
H726 C723 0.950 . S
C727 C718 1.390 . S
C727 H720 0.950 . S
C727 C724 1.387 . S
C728 C729 1.387 . S
C728 H732 0.950 . S
C728 C737 1.390 . S
C729 C728 1.387 . S
C729 C731 1.387 . S
H730 C737 0.950 . S
C731 C729 1.387 . S
C731 C733 1.390 . S
C731 H735 0.950 . S
H732 C728 0.950 . S
C733 C731 1.390 . S
C733 C734 1.387 . S
C733 H736 0.950 . S
C734 C733 1.387 . S
C734 C737 1.387 . S
H735 C731 0.950 . S
H736 C733 0.950 . S
C737 C728 1.390 . S
C737 H730 0.950 . S
C737 C734 1.387 . S
C738 C739 1.387 . S
C738 H742 0.950 . S
C738 C747 1.390 . S
C739 C738 1.387 . S
C739 C741 1.387 . S
H740 C747 0.950 . S
C741 C739 1.387 . S
C741 C743 1.390 . S
C741 H745 0.950 1_455 S
H742 C738 0.950 . S
C743 C741 1.390 . S
C743 C744 1.387 . S
C743 H746 0.950 1_455 S
C744 C743 1.387 . S
C744 C747 1.387 . S
H745 C741 0.950 1_655 S
H746 C743 0.950 1_655 S
C747 C738 1.390 . S
C747 H740 0.950 . S
C747 C744 1.387 . S
C748 C749 1.387 . S
C748 H752 0.950 . S
C748 C757 1.390 . S
C749 C748 1.387 . S
C749 C751 1.387 . S
H750 C757 0.950 . S
C751 C749 1.387 . S
C751 C753 1.390 . S
C751 H755 0.950 . S
H752 C748 0.950 . S
C753 C751 1.390 . S
C753 C754 1.387 . S
C753 H756 0.950 . S
C754 C753 1.387 . S
C754 C757 1.387 . S
H755 C751 0.950 . S
H756 C753 0.950 . S
C757 C748 1.390 . S
C757 H750 0.950 . S
C757 C754 1.387 . S
C758 C759 1.387 . S
C758 H762 0.950 . S
C758 C767 1.390 . S
C759 C758 1.387 . S
C759 C761 1.387 1_455 S
H760 C767 0.950 . S
C761 C759 1.387 1_655 S
C761 C763 1.390 . S
C761 H765 0.950 . S
H762 C758 0.950 . S
C763 C761 1.390 . S
C763 C764 1.387 1_655 S
C763 H766 0.950 . S
C764 C763 1.387 1_455 S
C764 C767 1.387 . S
H765 C761 0.950 . S
H766 C763 0.950 . S
C767 C758 1.390 . S
C767 H760 0.950 . S
C767 C764 1.387 . S
C768 C769 1.387 . S
C768 H772 0.950 . S
C768 C777 1.390 . S
C769 C768 1.387 . S
C769 C771 1.387 . S
H770 C777 0.950 . S
C771 C769 1.387 . S
C771 C773 1.390 . S
C771 H775 0.950 . S
H772 C768 0.950 . S
C773 C771 1.390 . S
C773 C774 1.387 . S
C773 H776 0.950 . S
C774 C773 1.387 . S
C774 C777 1.387 . S
H775 C771 0.950 . S
H776 C773 0.950 . S
C777 C768 1.390 . S
C777 H770 0.950 . S
C777 C774 1.387 . S
C778 C779 1.387 . S
C778 H782 0.950 . S
C778 C787 1.390 . S
C779 C778 1.387 . S
C779 C781 1.387 . S
H780 C787 0.950 . S
C781 C779 1.387 . S
C781 C783 1.390 . S
C781 H785 0.950 . S
H782 C778 0.950 . S
C783 C781 1.390 . S
C783 C784 1.387 . S
C783 H786 0.950 . S
C784 C783 1.387 . S
C784 C787 1.387 . S
H785 C781 0.950 . S
H786 C783 0.950 . S
C787 C778 1.390 . S
C787 H780 0.950 . S
C787 C784 1.387 . S
C788 C789 1.380 1_556 S
C788 H792 0.950 . S
C788 C797 1.390 . S
C789 C788 1.380 1_554 S
C789 C791 1.397 . S
H790 C797 0.950 . S
C791 C789 1.397 . S
C791 C793 1.390 . S
C791 H795 0.950 . S
H792 C788 0.950 . S
C793 C791 1.390 . S
C793 C794 1.387 . S
C793 H796 0.950 . S
C794 C793 1.387 . S
C794 C797 1.387 1_554 S
H795 C791 0.950 . S
H796 C793 0.950 . S
C797 C788 1.390 . S
C797 H790 0.950 . S
C797 C794 1.387 1_556 S
C798 C799 1.387 . S
C798 H802 0.950 . S
C798 C807 1.390 . S
C799 C798 1.387 . S
C799 C801 1.387 . S
H800 C807 0.950 . S
C801 C799 1.387 . S
C801 C803 1.390 . S
C801 H805 0.950 . S
H802 C798 0.950 . S
C803 C801 1.390 . S
C803 C804 1.387 . S
C803 H806 0.950 . S
C804 C803 1.387 . S
C804 C807 1.387 . S
H805 C801 0.950 . S
H806 C803 0.950 . S
C807 C798 1.390 . S
C807 H800 0.950 . S
C807 C804 1.387 . S
C808 C809 1.387 . S
C808 H812 0.950 . S
C808 C817 1.390 . S
C809 C808 1.387 . S
C809 C811 1.387 . S
H810 C817 0.950 . S
C811 C809 1.387 . S
C811 C813 1.390 . S
C811 H815 0.950 . S
H812 C808 0.950 . S
C813 C811 1.390 . S
C813 C814 1.387 . S
C813 H816 0.950 . S
C814 C813 1.387 . S
C814 C817 1.387 . S
H815 C811 0.950 . S
H816 C813 0.950 . S
C817 C808 1.390 . S
C817 H810 0.950 . S
C817 C814 1.387 . S
C818 C819 1.387 . S
C818 H822 0.950 . S
C818 C827 1.390 . S
C819 C818 1.387 . S
C819 C821 1.387 . S
H820 C827 0.950 . S
C821 C819 1.387 . S
C821 C823 1.390 . S
C821 H825 0.950 . S
H822 C818 0.950 . S
C823 C821 1.390 . S
C823 C824 1.387 . S
C823 H826 0.950 . S
C824 C823 1.387 . S
C824 C827 1.387 . S
H825 C821 0.950 . S
H826 C823 0.950 . S
C827 C818 1.390 . S
C827 H820 0.950 . S
C827 C824 1.387 . S
C828 C829 1.387 . S
C828 H832 0.950 . S
C828 C837 1.390 . S
C829 C828 1.387 . S
C829 C831 1.387 . S
H830 C837 0.950 . S
C831 C829 1.387 . S
C831 C833 1.390 . S
C831 H835 0.950 . S
H832 C828 0.950 . S
C833 C831 1.390 . S
C833 C834 1.387 . S
C833 H836 0.950 . S
C834 C833 1.387 . S
C834 C837 1.387 . S
H835 C831 0.950 . S
H836 C833 0.950 . S
C837 C828 1.390 . S
C837 H830 0.950 . S
C837 C834 1.387 . S
C838 C839 1.387 . S
C838 H842 0.950 . S
C838 C847 1.390 . S
C839 C838 1.387 . S
C839 C841 1.387 . S
H840 C847 0.950 . S
C841 C839 1.387 . S
C841 C843 1.390 . S
C841 H845 0.950 . S
H842 C838 0.950 . S
C843 C841 1.390 . S
C843 C844 1.387 . S
C843 H846 0.950 . S
C844 C843 1.387 . S
C844 C847 1.387 . S
H845 C841 0.950 . S
H846 C843 0.950 . S
C847 C838 1.390 . S
C847 H840 0.950 . S
C847 C844 1.387 . S
C848 C849 1.387 . S
C848 H852 0.950 . S
C848 C857 1.390 . S
C849 C848 1.387 . S
C849 C851 1.387 . S
H850 C857 0.950 . S
C851 C849 1.387 . S
C851 C853 1.390 . S
C851 H855 0.950 . S
H852 C848 0.950 . S
C853 C851 1.390 . S
C853 C854 1.387 . S
C853 H856 0.950 . S
C854 C853 1.387 . S
C854 C857 1.387 . S
H855 C851 0.950 . S
H856 C853 0.950 . S
C857 C848 1.390 . S
C857 H850 0.950 . S
C857 C854 1.387 . S
C858 C859 1.387 . S
C858 H862 0.950 . S
C858 C867 1.390 . S
C859 C858 1.387 . S
C859 C861 1.387 . S
H860 C867 0.950 . S
C861 C859 1.387 . S
C861 C863 1.390 1_545 S
C861 H865 0.950 1_545 S
H862 C858 0.950 . S
C863 C861 1.390 1_565 S
C863 C864 1.387 1_565 S
C863 H866 0.950 . S
C864 C863 1.387 1_545 S
C864 C867 1.387 . S
H865 C861 0.950 1_565 S
H866 C863 0.950 . S
C867 C858 1.390 . S
C867 H860 0.950 . S
C867 C864 1.387 . S
C868 C869 1.387 . S
C868 H872 0.950 . S
C868 C877 1.390 . S
C869 C868 1.387 . S
C869 C871 1.387 . S
H870 C877 0.950 . S
C871 C869 1.387 . S
C871 C873 1.390 . S
C871 H875 0.950 . S
H872 C868 0.950 . S
C873 C871 1.390 . S
C873 C874 1.387 . S
C873 H876 0.950 . S
C874 C873 1.387 . S
C874 C877 1.387 . S
H875 C871 0.950 . S
H876 C873 0.950 . S
C877 C868 1.390 . S
C877 H870 0.950 . S
C877 C874 1.387 . S
C878 C879 1.387 . S
C878 H882 0.950 . S
C878 C887 1.390 . S
C879 C878 1.387 . S
C879 C881 1.387 . S
H880 C887 0.950 . S
C881 C879 1.387 . S
C881 C883 1.390 . S
C881 H885 0.950 . S
H882 C878 0.950 . S
C883 C881 1.390 . S
C883 C884 1.387 . S
C883 H886 0.950 . S
C884 C883 1.387 . S
C884 C887 1.387 . S
H885 C881 0.950 . S
H886 C883 0.950 . S
C887 C878 1.390 . S
C887 H880 0.950 . S
C887 C884 1.387 . S
C888 C889 1.387 . S
C888 H892 0.950 . S
C888 C897 1.390 . S
C889 C888 1.387 . S
C889 C891 1.387 . S
H890 C897 0.950 . S
C891 C889 1.387 . S
C891 C893 1.390 . S
C891 H895 0.950 . S
H892 C888 0.950 . S
C893 C891 1.390 . S
C893 C894 1.387 . S
C893 H896 0.950 . S
C894 C893 1.387 . S
C894 C897 1.387 . S
H895 C891 0.950 . S
H896 C893 0.950 . S
C897 C888 1.390 . S
C897 H890 0.950 . S
C897 C894 1.387 . S
C898 C899 1.387 . S
C898 H902 0.950 . S
C898 C907 1.390 . S
C899 C898 1.387 . S
C899 C901 1.387 . S
H900 C907 0.950 . S
C901 C899 1.387 . S
C901 C903 1.390 . S
C901 H905 0.950 1_545 S
H902 C898 0.950 . S
C903 C901 1.390 . S
C903 C904 1.387 . S
C903 H906 0.950 1_545 S
C904 C903 1.387 . S
C904 C907 1.387 . S
H905 C901 0.950 1_565 S
H906 C903 0.950 1_565 S
C907 C898 1.390 . S
C907 H900 0.950 . S
C907 C904 1.387 . S
C908 C909 1.387 . S
C908 H912 0.950 . S
C908 C917 1.390 . S
C909 C908 1.387 . S
C909 C911 1.387 . S
H910 C917 0.950 . S
C911 C909 1.387 . S
C911 C913 1.390 . S
C911 H915 0.950 . S
H912 C908 0.950 . S
C913 C911 1.390 . S
C913 C914 1.387 . S
C913 H916 0.950 . S
C914 C913 1.387 . S
C914 C917 1.387 . S
H915 C911 0.950 . S
H916 C913 0.950 . S
C917 C908 1.390 . S
C917 H910 0.950 . S
C917 C914 1.387 . S
C918 C919 1.387 . S
C918 H922 0.950 . S
C918 C927 1.390 . S
C919 C918 1.387 . S
C919 C921 1.387 . S
H920 C927 0.950 . S
C921 C919 1.387 . S
C921 C923 1.390 . S
C921 H925 0.950 . S
H922 C918 0.950 . S
C923 C921 1.390 . S
C923 C924 1.387 . S
C923 H926 0.950 . S
C924 C923 1.387 . S
C924 C927 1.387 . S
H925 C921 0.950 . S
H926 C923 0.950 . S
C927 C918 1.390 . S
C927 H920 0.950 . S
C927 C924 1.387 . S
C928 C929 1.387 . S
C928 H932 0.950 . S
C928 C937 1.390 . S
C929 C928 1.387 . S
C929 C931 1.387 . S
H930 C937 0.950 . S
C931 C929 1.387 . S
C931 C933 1.390 . S
C931 H935 0.950 . S
H932 C928 0.950 . S
C933 C931 1.390 . S
C933 C934 1.387 . S
C933 H936 0.950 . S
C934 C933 1.387 . S
C934 C937 1.387 . S
H935 C931 0.950 . S
H936 C933 0.950 . S
C937 C928 1.390 . S
C937 H930 0.950 . S
C937 C934 1.387 . S
C938 C939 1.387 1_556 S
C938 H942 0.950 . S
C938 C947 1.390 . S
C939 C938 1.387 1_554 S
C939 C941 1.387 1_655 S
H940 C947 0.950 . S
C941 C939 1.387 1_455 S
C941 C943 1.390 . S
C941 H945 0.950 . S
H942 C938 0.950 . S
C943 C941 1.390 . S
C943 C944 1.387 1_554 S
C943 H946 0.950 . S
C944 C943 1.387 1_556 S
C944 C947 1.387 1_455 S
H945 C941 0.950 . S
H946 C943 0.950 . S
C947 C938 1.390 . S
C947 H940 0.950 . S
C947 C944 1.387 1_655 S
C948 C949 1.387 . S
C948 H952 0.950 . S
C948 C957 1.390 . S
C949 C948 1.387 . S
C949 C951 1.387 . S
H950 C957 0.950 . S
C951 C949 1.387 . S
C951 C953 1.390 . S
C951 H955 0.950 . S
H952 C948 0.950 . S
C953 C951 1.390 . S
C953 C954 1.387 . S
C953 H956 0.950 . S
C954 C953 1.387 . S
C954 C957 1.387 . S
H955 C951 0.950 . S
H956 C953 0.950 . S
C957 C948 1.390 . S
C957 H950 0.950 . S
C957 C954 1.387 . S
C958 C959 1.387 1_655 S
C958 H962 0.950 . S
C958 C967 1.379 1_554 S
C959 C958 1.387 1_455 S
C959 C961 1.387 1_554 S
H960 C967 0.943 1_554 S
C961 C959 1.387 1_556 S
C961 C963 1.390 . S
C961 H965 0.950 . S
H962 C958 0.950 . S
C963 C961 1.390 . S
C963 C964 1.387 . S
C963 H966 0.950 . S
C964 C963 1.387 . S
C964 C967 1.406 1_455 S
H965 C961 0.950 . S
H966 C963 0.950 . S
C967 C958 1.379 1_556 S
C967 H960 0.943 1_556 S
C967 C964 1.406 1_655 S
C968 C969 1.387 . S
C968 H972 0.950 . S
C968 C977 1.390 . S
C969 C968 1.387 . S
C969 C971 1.387 . S
H970 C977 0.950 . S
C971 C969 1.387 . S
C971 C973 1.390 . S
C971 H975 0.950 . S
H972 C968 0.950 . S
C973 C971 1.390 . S
C973 C974 1.387 . S
C973 H976 0.950 . S
C974 C973 1.387 . S
C974 C977 1.387 . S
H975 C971 0.950 . S
H976 C973 0.950 . S
C977 C968 1.390 . S
C977 H970 0.950 . S
C977 C974 1.387 . S
C978 C979 1.387 . S
C978 H982 0.950 . S
C978 C987 1.390 . S
C979 C978 1.387 . S
C979 C981 1.387 . S
H980 C987 0.950 . S
C981 C979 1.387 . S
C981 C983 1.390 . S
C981 H985 0.950 . S
H982 C978 0.950 . S
C983 C981 1.390 . S
C983 C984 1.387 . S
C983 H986 0.950 . S
C984 C983 1.387 . S
C984 C987 1.387 . S
H985 C981 0.950 . S
H986 C983 0.950 . S
C987 C978 1.390 . S
C987 H980 0.950 . S
C987 C984 1.387 . S
C988 C989 1.387 . S
C988 H992 0.950 . S
C988 C997 1.390 . S
C989 C988 1.387 . S
C989 C991 1.387 . S
H990 C997 0.950 . S
C991 C989 1.387 . S
C991 C993 1.390 . S
C991 H995 0.950 . S
H992 C988 0.950 . S
C993 C991 1.390 . S
C993 C994 1.387 . S
C993 H996 0.950 . S
C994 C993 1.387 . S
C994 C997 1.387 . S
H995 C991 0.950 . S
H996 C993 0.950 . S
C997 C988 1.390 . S
C997 H990 0.950 . S
C997 C994 1.387 . S
C998 C999 1.387 . S
C998 H1002 0.950 . S
C998 C1007 1.390 . S
C999 C998 1.387 . S
C999 C1001 1.387 . S
H1000 C1007 0.950 . S
C1001 C999 1.387 . S
C1001 C1003 1.390 . S
C1001 H1005 0.950 . S
H1002 C998 0.950 . S
C1003 C1001 1.390 . S
C1003 C1004 1.387 . S
C1003 H1006 0.950 . S
C1004 C1003 1.387 . S
C1004 C1007 1.387 . S
H1005 C1001 0.950 . S
H1006 C1003 0.950 . S
C1007 C998 1.390 . S
C1007 H1000 0.950 . S
C1007 C1004 1.387 . S
C1008 C1009 1.387 . S
C1008 H1012 0.950 . S
C1008 C1017 1.390 . S
C1009 C1008 1.387 . S
C1009 C1011 1.387 . S
H1010 C1017 0.950 . S
C1011 C1009 1.387 . S
C1011 C1013 1.390 . S
C1011 H1015 0.950 . S
H1012 C1008 0.950 . S
C1013 C1011 1.390 . S
C1013 C1014 1.387 . S
C1013 H1016 0.950 . S
C1014 C1013 1.387 . S
C1014 C1017 1.387 . S
H1015 C1011 0.950 . S
H1016 C1013 0.950 . S
C1017 C1008 1.390 . S
C1017 H1010 0.950 . S
C1017 C1014 1.387 . S
C1018 C1019 1.387 . S
C1018 H1022 0.950 . S
C1018 C1027 1.390 . S
C1019 C1018 1.387 . S
C1019 C1021 1.387 . S
H1020 C1027 0.950 . S
C1021 C1019 1.387 . S
C1021 C1023 1.390 . S
C1021 H1025 0.950 . S
H1022 C1018 0.950 . S
C1023 C1021 1.390 . S
C1023 C1024 1.387 . S
C1023 H1026 0.950 . S
C1024 C1023 1.387 . S
C1024 C1027 1.387 . S
H1025 C1021 0.950 . S
H1026 C1023 0.950 . S
C1027 C1018 1.390 . S
C1027 H1020 0.950 . S
C1027 C1024 1.387 . S
C1028 C1029 1.387 . S
C1028 H1032 0.950 . S
C1028 C1037 1.390 . S
C1029 C1028 1.387 . S
C1029 C1031 1.387 . S
H1030 C1037 0.950 . S
C1031 C1029 1.387 . S
C1031 C1033 1.390 . S
C1031 H1035 0.950 . S
H1032 C1028 0.950 . S
C1033 C1031 1.390 . S
C1033 C1034 1.387 . S
C1033 H1036 0.950 . S
C1034 C1033 1.387 . S
C1034 C1037 1.387 . S
H1035 C1031 0.950 . S
H1036 C1033 0.950 . S
C1037 C1028 1.390 . S
C1037 H1030 0.950 . S
C1037 C1034 1.387 . S
C1038 C1039 1.387 . S
C1038 H1042 0.950 . S
C1038 C1047 1.390 . S
C1039 C1038 1.387 . S
C1039 C1041 1.387 . S
H1040 C1047 0.950 . S
C1041 C1039 1.387 . S
C1041 C1043 1.390 . S
C1041 H1045 0.950 . S
H1042 C1038 0.950 . S
C1043 C1041 1.390 . S
C1043 C1044 1.387 . S
C1043 H1046 0.950 . S
C1044 C1043 1.387 . S
C1044 C1047 1.387 . S
H1045 C1041 0.950 . S
H1046 C1043 0.950 . S
C1047 C1038 1.390 . S
C1047 H1040 0.950 . S
C1047 C1044 1.387 . S
C1048 C1049 1.387 . S
C1048 H1052 0.950 . S
C1048 C1057 1.390 . S
C1049 C1048 1.387 . S
C1049 C1051 1.387 1_556 S
H1050 C1057 0.950 . S
C1051 C1049 1.387 1_554 S
C1051 C1053 1.390 . S
C1051 H1055 0.950 . S
H1052 C1048 0.950 . S
C1053 C1051 1.390 . S
C1053 C1054 1.387 1_554 S
C1053 H1056 0.950 . S
C1054 C1053 1.387 1_556 S
C1054 C1057 1.387 . S
H1055 C1051 0.950 . S
H1056 C1053 0.950 . S
C1057 C1048 1.390 . S
C1057 H1050 0.950 . S
C1057 C1054 1.387 . S
C1058 C1059 1.387 . S
C1058 H1062 0.950 . S
C1058 C1067 1.390 . S
C1059 C1058 1.387 . S
C1059 C1061 1.387 . S
H1060 C1067 0.950 . S
C1061 C1059 1.387 . S
C1061 C1063 1.390 . S
C1061 H1065 0.950 . S
H1062 C1058 0.950 . S
C1063 C1061 1.390 . S
C1063 C1064 1.387 . S
C1063 H1066 0.950 . S
C1064 C1063 1.387 . S
C1064 C1067 1.387 . S
H1065 C1061 0.950 . S
H1066 C1063 0.950 . S
C1067 C1058 1.390 . S
C1067 H1060 0.950 . S
C1067 C1064 1.387 . S
C1068 C1069 1.387 . S
C1068 H1072 0.950 . S
C1068 C1077 1.390 . S
C1069 C1068 1.387 . S
C1069 C1071 1.387 . S
H1070 C1077 0.950 . S
C1071 C1069 1.387 . S
C1071 C1073 1.390 . S
C1071 H1075 0.950 . S
H1072 C1068 0.950 . S
C1073 C1071 1.390 . S
C1073 C1074 1.387 . S
C1073 H1076 0.950 . S
C1074 C1073 1.387 . S
C1074 C1077 1.387 . S
H1075 C1071 0.950 . S
H1076 C1073 0.950 . S
C1077 C1068 1.390 . S
C1077 H1070 0.950 . S
C1077 C1074 1.387 . S
C1078 C1079 1.387 1_556 S
C1078 H1082 0.950 . S
C1078 C1087 1.390 . S
C1079 C1078 1.387 1_554 S
C1079 C1081 1.387 . S
H1080 C1087 0.950 . S
C1081 C1079 1.387 . S
C1081 C1083 1.390 . S
C1081 H1085 0.950 . S
H1082 C1078 0.950 . S
C1083 C1081 1.390 . S
C1083 C1084 1.387 . S
C1083 H1086 0.950 . S
C1084 C1083 1.387 . S
C1084 C1087 1.387 1_554 S
H1085 C1081 0.950 . S
H1086 C1083 0.950 . S
C1087 C1078 1.390 . S
C1087 H1080 0.950 . S
C1087 C1084 1.387 1_556 S
C614 C178 1.254 . S
C609 C62 1.284 . S
C624 C226 1.586 . S
C619 C73 1.589 . S
C629 C84 1.418 . S
C634 C262 1.440 . S
C644 C298 1.369 . S
C639 C49 1.257 . S
C654 C324 1.405 . S
C649 C118 1.368 . S
C664 C360 1.656 . S
C659 C137 1.407 . S
C669 C129 1.545 . S
C674 C395 1.547 . S
C684 C432 1.871 1_565 S
C679 C106 1.827 . S
C689 C128 1.699 . S
C694 C466 1.714 . S
C704 C514 1.629 . S
C699 C104 1.492 . S
C709 C115 1.417 . S
C714 C467 1.763 . S
C724 C504 1.800 . S
C719 C139 1.740 . S
C729 C85 1.527 . S
C734 C550 1.474 . S
C739 C52 1.329 . S
C744 C539 1.327 . S
C749 C60 1.221 . S
C754 C540 1.199 . S
C759 C71 1.571 . S
C764 C538 1.692 . S
C769 C40 1.540 . S
C774 C286 1.685 . S
C779 C162 1.305 . S
C784 C287 1.307 . S
C794 C190 1.297 . S
C789 C173 1.326 . S
C804 C215 1.685 . S
C799 C93 1.442 . S
C809 C51 1.502 . S
C814 C322 1.529 . S
C824 C430 1.517 . S
C819 C126 1.456 . S
C834 C323 1.763 . S
C829 C107 1.765 . S
C844 C396 1.683 . S
C839 C140 1.663 . S
C854 C394 1.253 . S
C849 C161 1.283 . S
C859 C172 1.587 . S
C864 C442 1.582 . S
C869 C95 1.414 . S
C874 C334 1.437 . S
C884 C370 1.370 . S
C879 C148 1.259 . S
C889 C41 1.368 . S
C894 C252 1.405 . S
C904 C288 1.656 . S
C899 C5 1.403 . S
C914 C179 1.547 . S
C909 C19 1.545 . S
C924 C216 1.870 . S
C919 C29 1.827 1_455 S
C929 C18 1.699 . S
C934 C502 1.714 . S
C939 C27 1.495 . S
C944 C478 1.628 . S
C949 C38 1.416 . S
C954 C503 1.763 . S
C959 C7 1.740 . S
C964 C468 1.800 . S
C974 C586 1.472 . S
C969 C96 1.526 . S
C984 C575 1.328 . S
C979 C151 1.328 . S
C994 C576 1.202 . S
C989 C159 1.218 . S
C999 C170 1.572 . S
C1004 C574 1.695 . S
C1009 C117 1.538 . S
C1014 C358 1.684 . S
C1024 C359 1.307 . S
C1019 C63 1.305 . S
C1034 C406 1.295 . S
C1029 C74 1.325 . S
C1044 C431 1.685 . S
C1039 C82 1.441 . S
C1049 C150 1.502 . S
C1054 C250 1.529 . S
C1064 C214 1.517 . S
C1059 C16 1.456 . S
C1069 C30 1.765 . S
C1074 C251 1.764 . S
C1084 C180 1.683 . S
C1079 C8 1.664 . S
