# Generated by pormake.
# Topology soc, (4,6)-cn, num edge types: 1
# Building blocks:
#     Node 0, Type 0, BuildingBlock: ESEHIV_clean_sbu_0, # of connection points: 4
#     Node 1, Type 0, BuildingBlock: ESEHIV_clean_sbu_0, # of connection points: 4
#     Node 2, Type 0, BuildingBlock: ESEHIV_clean_sbu_0, # of connection points: 4
#     Node 3, Type 0, BuildingBlock: ESEHIV_clean_sbu_0, # of connection points: 4
#     Node 4, Type 0, BuildingBlock: ESEHIV_clean_sbu_0, # of connection points: 4
#     Node 5, Type 0, BuildingBlock: ESEHIV_clean_sbu_0, # of connection points: 4
#     Node 6, Type 0, BuildingBlock: ESEHIV_clean_sbu_0, # of connection points: 4
#     Node 7, Type 0, BuildingBlock: ESEHIV_clean_sbu_0, # of connection points: 4
#     Node 8, Type 0, BuildingBlock: ESEHIV_clean_sbu_0, # of connection points: 4
#     Node 9, Type 0, BuildingBlock: ESEHIV_clean_sbu_0, # of connection points: 4
#     Node 10, Type 0, BuildingBlock: ESEHIV_clean_sbu_0, # of connection points: 4
#     Node 11, Type 0, BuildingBlock: ESEHIV_clean_sbu_0, # of connection points: 4
#     Node 12, Type 1, BuildingBlock: BETGAK_clean_sbu_0, # of connection points: 6
#     Node 13, Type 1, BuildingBlock: BETGAK_clean_sbu_0, # of connection points: 6
#     Node 14, Type 1, BuildingBlock: BETGAK_clean_sbu_0, # of connection points: 6
#     Node 15, Type 1, BuildingBlock: BETGAK_clean_sbu_0, # of connection points: 6
#     Node 16, Type 1, BuildingBlock: BETGAK_clean_sbu_0, # of connection points: 6
#     Node 17, Type 1, BuildingBlock: BETGAK_clean_sbu_0, # of connection points: 6
#     Node 18, Type 1, BuildingBlock: BETGAK_clean_sbu_0, # of connection points: 6
#     Node 19, Type 1, BuildingBlock: BETGAK_clean_sbu_0, # of connection points: 6
#     Edge 20, Type (0, 1), BuildingBlock: XIVTED_clean_linker_0, # of connection points: 2
#     Edge 21, Type (0, 1), BuildingBlock: XIVTED_clean_linker_0, # of connection points: 2
#     Edge 22, Type (0, 1), BuildingBlock: XIVTED_clean_linker_0, # of connection points: 2
#     Edge 23, Type (0, 1), BuildingBlock: XIVTED_clean_linker_0, # of connection points: 2
#     Edge 24, Type (0, 1), BuildingBlock: XIVTED_clean_linker_0, # of connection points: 2
#     Edge 25, Type (0, 1), BuildingBlock: XIVTED_clean_linker_0, # of connection points: 2
#     Edge 26, Type (0, 1), BuildingBlock: XIVTED_clean_linker_0, # of connection points: 2
#     Edge 27, Type (0, 1), BuildingBlock: XIVTED_clean_linker_0, # of connection points: 2
#     Edge 28, Type (0, 1), BuildingBlock: XIVTED_clean_linker_0, # of connection points: 2
#     Edge 29, Type (0, 1), BuildingBlock: XIVTED_clean_linker_0, # of connection points: 2
#     Edge 30, Type (0, 1), BuildingBlock: XIVTED_clean_linker_0, # of connection points: 2
#     Edge 31, Type (0, 1), BuildingBlock: XIVTED_clean_linker_0, # of connection points: 2
#     Edge 32, Type (0, 1), BuildingBlock: XIVTED_clean_linker_0, # of connection points: 2
#     Edge 33, Type (0, 1), BuildingBlock: XIVTED_clean_linker_0, # of connection points: 2
#     Edge 34, Type (0, 1), BuildingBlock: XIVTED_clean_linker_0, # of connection points: 2
#     Edge 35, Type (0, 1), BuildingBlock: XIVTED_clean_linker_0, # of connection points: 2
#     Edge 36, Type (0, 1), BuildingBlock: XIVTED_clean_linker_0, # of connection points: 2
#     Edge 37, Type (0, 1), BuildingBlock: XIVTED_clean_linker_0, # of connection points: 2
#     Edge 38, Type (0, 1), BuildingBlock: XIVTED_clean_linker_0, # of connection points: 2
#     Edge 39, Type (0, 1), BuildingBlock: XIVTED_clean_linker_0, # of connection points: 2
#     Edge 40, Type (0, 1), BuildingBlock: XIVTED_clean_linker_0, # of connection points: 2
#     Edge 41, Type (0, 1), BuildingBlock: XIVTED_clean_linker_0, # of connection points: 2
#     Edge 42, Type (0, 1), BuildingBlock: XIVTED_clean_linker_0, # of connection points: 2
#     Edge 43, Type (0, 1), BuildingBlock: XIVTED_clean_linker_0, # of connection points: 2
#     Edge 44, Type (0, 1), BuildingBlock: XIVTED_clean_linker_0, # of connection points: 2
#     Edge 45, Type (0, 1), BuildingBlock: XIVTED_clean_linker_0, # of connection points: 2
#     Edge 46, Type (0, 1), BuildingBlock: XIVTED_clean_linker_0, # of connection points: 2
#     Edge 47, Type (0, 1), BuildingBlock: XIVTED_clean_linker_0, # of connection points: 2
#     Edge 48, Type (0, 1), BuildingBlock: XIVTED_clean_linker_0, # of connection points: 2
#     Edge 49, Type (0, 1), BuildingBlock: XIVTED_clean_linker_0, # of connection points: 2
#     Edge 50, Type (0, 1), BuildingBlock: XIVTED_clean_linker_0, # of connection points: 2
#     Edge 51, Type (0, 1), BuildingBlock: XIVTED_clean_linker_0, # of connection points: 2
#     Edge 52, Type (0, 1), BuildingBlock: XIVTED_clean_linker_0, # of connection points: 2
#     Edge 53, Type (0, 1), BuildingBlock: XIVTED_clean_linker_0, # of connection points: 2
#     Edge 54, Type (0, 1), BuildingBlock: XIVTED_clean_linker_0, # of connection points: 2
#     Edge 55, Type (0, 1), BuildingBlock: XIVTED_clean_linker_0, # of connection points: 2
#     Edge 56, Type (0, 1), BuildingBlock: XIVTED_clean_linker_0, # of connection points: 2
#     Edge 57, Type (0, 1), BuildingBlock: XIVTED_clean_linker_0, # of connection points: 2
#     Edge 58, Type (0, 1), BuildingBlock: XIVTED_clean_linker_0, # of connection points: 2
#     Edge 59, Type (0, 1), BuildingBlock: XIVTED_clean_linker_0, # of connection points: 2
#     Edge 60, Type (0, 1), BuildingBlock: XIVTED_clean_linker_0, # of connection points: 2
#     Edge 61, Type (0, 1), BuildingBlock: XIVTED_clean_linker_0, # of connection points: 2
#     Edge 62, Type (0, 1), BuildingBlock: XIVTED_clean_linker_0, # of connection points: 2
#     Edge 63, Type (0, 1), BuildingBlock: XIVTED_clean_linker_0, # of connection points: 2
#     Edge 64, Type (0, 1), BuildingBlock: XIVTED_clean_linker_0, # of connection points: 2
#     Edge 65, Type (0, 1), BuildingBlock: XIVTED_clean_linker_0, # of connection points: 2
#     Edge 66, Type (0, 1), BuildingBlock: XIVTED_clean_linker_0, # of connection points: 2
#     Edge 67, Type (0, 1), BuildingBlock: XIVTED_clean_linker_0, # of connection points: 2
# Relax obj value: 0.185
# Max RMSD: 0.280
# Mean RMSD: 0.174
data_MOF--net-soc--node1-ESEHIV_clean_sbu_0--node2-BETGAK_clean_sbu_0--edge1-XIVTED_clean_linker_0
_symmetry_space_group_name_H-M    P1
_symmetry_Int_Tables_number       1
_symmetry_cell_setting            triclinic
loop_
_symmetry_equiv_pos_as_xyz
'x, y, z'
_cell_length_a     50.703052
_cell_length_b     49.991552
_cell_length_c     43.626808
_cell_angle_alpha  81.942091
_cell_angle_beta   83.503194
_cell_angle_gamma 69.021611
loop_
_atom_site_label
_atom_site_type_symbol
_atom_site_fract_x
_atom_site_fract_y
_atom_site_fract_z
_atom_type_partial_charge
Cu0 Cu 0.04833 0.03765 0.39163 0.0
N1 N 0.0711 0.05011 0.41287 0.0
N2 N 0.09865 0.07468 0.42036 0.0
C3 C 0.08209 0.07045 0.40074 0.0
C4 C 0.09777 0.05644 0.44607 0.0
C5 C 0.08078 0.04131 0.44138 0.0
O6 O 0.07319 1.0092 0.36536 0.0
C7 C 1.00483 0.07522 0.35106 0.0
O8 O 1.00301 0.05224 0.34142 0.0
H9 H 0.07783 0.08203 0.37792 0.0
H10 H 0.07615 0.02495 0.45762 0.0
N11 N 1.02721 0.01918 0.41863 0.0
N12 N 0.99445 0.99864 0.43336 0.0
C13 C 1.00144 0.01902 0.414 0.0
C14 C 0.03681 0.99825 0.44189 0.0
C15 C 1.01662 0.98572 0.45117 0.0
C16 C 0.09262 1.01346 0.34641 0.0
O17 O 0.09371 0.03956 0.34066 0.0
H18 H 0.98915 0.03183 0.39504 0.0
H19 H 0.05791 0.99086 0.44982 0.0
O20 O 1.02304 0.07249 0.37015 0.0
H21 H 0.10906 0.05369 0.46655 0.0
H22 H 1.01893 0.96736 0.4684 0.0
Cu23 Cu 0.0619 0.0599 0.74708 0.0
N24 N 0.04407 0.04298 0.7247 0.0
N25 N 1.01897 0.01651 0.71565 0.0
C26 C 1.02749 0.0279 0.7373 0.0
C27 C 1.03071 0.02485 0.68833 0.0
C28 C 0.04621 0.04115 0.69401 0.0
O29 O 1.03235 0.08533 0.7732 0.0
C30 C 0.11223 1.01408 0.75251 0.0
O31 O 0.1137 0.02192 0.72253 0.0
H32 H 1.02264 0.02458 0.76203 0.0
H33 H 0.05863 0.05048 0.67705 0.0
N34 N 0.07958 0.08208 0.72055 0.0
N35 N 0.11013 0.10489 0.70443 0.0
C36 C 0.10408 0.08502 0.7254 0.0
C37 C 0.06965 0.1008 0.69564 0.0
C38 C 0.08848 0.11498 0.68565 0.0
C39 C 1.03224 0.10982 0.77853 0.0
O40 O 0.05482 0.11684 0.7702 0.0
H41 H 0.11634 0.07398 0.74509 0.0
H42 H 0.04961 0.10468 0.68623 0.0
O43 O 0.09075 0.02818 0.76919 0.0
H44 H 1.02841 0.01948 0.66583 0.0
H45 H 0.08605 0.13189 0.66661 0.0
Cu46 Cu 0.36905 0.04957 0.10604 0.0
N47 N 0.39504 0.02192 0.08238 0.0
N48 N 0.41023 0.993 0.04452 0.0
C49 C 0.38933 0.01577 0.05539 0.0
C50 C 0.43012 0.98463 0.06543 0.0
C51 C 0.42073 1.00261 0.08873 0.0
O52 O 0.34602 0.03031 0.13296 0.0
C53 C 0.36577 0.09068 0.05544 0.0
O54 O 0.39324 0.07701 0.05549 0.0
H55 H 0.36935 0.0268 0.04497 0.0
H56 H 0.43149 1.001 0.10926 0.0
N57 N 0.38684 0.06146 0.13387 0.0
N58 N 0.3894 0.08784 0.17001 0.0
C59 C 0.37819 0.088 0.14331 0.0
C60 C 0.40412 0.04404 0.15532 0.0
C61 C 0.40581 0.06025 0.17758 0.0
C62 C 0.33899 1.0101 0.1256 0.0
O63 O 0.34211 1.00509 0.09643 0.0
H64 H 0.36185 0.1064 0.13259 0.0
H65 H 0.41268 0.0208 0.1564 0.0
O66 O 0.34967 0.08289 0.07674 0.0
H67 H 0.44966 0.96636 0.06445 0.0
H68 H 0.41682 0.05213 0.19867 0.0
Cu69 Cu 0.07335 0.32974 0.12027 0.0
N70 N 0.0867 0.35242 0.08909 0.0
N71 N 0.11569 0.36165 0.04981 0.0
C72 C 0.11329 0.34451 0.07597 0.0
C73 C 0.08969 0.38185 0.04693 0.0
C74 C 0.0718 0.37603 0.07118 0.0
O75 O 0.10031 0.31635 0.15291 0.0
C76 C 0.07089 0.29559 0.07312 0.0
O77 O 0.0913 0.30335 0.05792 0.0
H78 H 0.13003 0.32514 0.0841 0.0
H79 H 0.04916 0.38692 0.0742 0.0
N80 N 0.0388 0.35159 0.13867 0.0
N81 N 0.99563 0.36079 0.16271 0.0
C82 C 1.01816 0.34105 0.14937 0.0
C83 C 1.02919 0.37904 0.1454 0.0
C84 C 1.0025 0.38479 0.16033 0.0
C85 C 0.1252 0.29772 0.15113 0.0
O86 O 0.13334 0.28284 0.12707 0.0
H87 H 1.02011 0.31894 0.14817 0.0
H88 H 0.04087 0.39367 0.14016 0.0
O89 O 0.06367 0.30127 0.10115 0.0
H90 H 0.08348 0.39809 0.02735 0.0
H91 H 0.98926 0.40502 0.16875 0.0
Cu92 Cu 0.80793 1.01162 1.01569 0.0
N93 N 0.83203 0.02648 0.98921 0.0
N94 N 0.84513 0.06041 0.95972 0.0
C95 C 0.8291 0.05454 0.98464 0.0
C96 C 0.85863 0.03509 0.94789 0.0
C97 C 0.85055 1.0141 0.96626 0.0
O98 O 0.78687 0.04188 0.04237 0.0
C99 C 0.77936 0.97807 0.99413 0.0
O100 O 0.78039 0.96519 0.02257 0.0
H101 H 0.81351 0.07086 0.99747 0.0
H102 H 0.8561 0.99193 0.96184 0.0
N103 N 0.82845 0.97933 0.04106 0.0
N104 N 0.83773 0.94482 0.08089 0.0
C105 C 0.81908 0.97001 0.06914 0.0
C106 C 0.85406 0.95964 0.03491 0.0
C107 C 0.85982 0.93823 0.05944 0.0
C108 C 0.80303 0.04799 0.05853 0.0
O109 O 0.83028 0.03308 0.05666 0.0
H110 H 0.79831 0.98075 0.07991 0.0
H111 H 0.86723 0.96036 1.01374 0.0
O112 O 0.78711 0.99997 0.98801 0.0
H113 H 0.87208 0.03232 0.92659 0.0
H114 H 0.87854 0.91901 0.06104 0.0
Cu115 Cu 0.0472 0.74322 0.02476 0.0
N116 N 1.03082 0.72654 1.00002 0.0
N117 N 1.00141 0.72255 0.96779 0.0
C118 C 1.01002 0.74077 0.98076 0.0
C119 C 1.01749 0.69586 0.97925 0.0
C120 C 0.0357 0.69839 0.99899 0.0
O121 O 1.01544 0.76616 0.05159 0.0
C122 C 0.08557 0.77559 1.0018 0.0
O123 O 0.08225 0.78448 0.0294 0.0
H124 H 1.00069 0.76403 0.97726 0.0
H125 H 0.05104 0.68092 1.01211 0.0
N126 N 0.07097 0.71459 0.05162 0.0
N127 N 0.10386 0.69606 0.08628 0.0
C128 C 0.09532 0.7148 0.06087 0.0
C129 C 0.06405 0.69466 0.07158 0.0
C130 C 0.08431 0.68318 0.09301 0.0
C131 C 1.01801 0.77028 0.0792 0.0
O132 O 0.04344 0.76494 0.08816 0.0
H133 H 0.10501 0.73043 0.05117 0.0
H134 H 0.04445 0.69055 0.07208 0.0
O135 O 0.07105 0.76086 0.99598 0.0
H136 H 1.01606 0.67594 0.97392 0.0
H137 H 0.08369 0.66797 0.1131 0.0
Cu138 Cu 0.54501 0.53195 0.88928 0.0
N139 N 0.56732 0.54788 0.9063 0.0
N140 N 0.59402 0.57426 0.91004 0.0
C141 C 0.57782 0.56786 0.89174 0.0
C142 C 0.59352 0.55774 0.93723 0.0
C143 C 0.5771 0.5414 0.9348 0.0
O144 O 0.57029 0.50012 0.86738 0.0
C145 C 0.49385 0.56335 0.85988 0.0
O146 O 0.48725 0.54023 0.86898 0.0
H147 H 0.57352 0.57758 0.86823 0.0
H148 H 0.57284 0.52567 0.95241 0.0
N149 N 0.52434 0.51746 0.9209 0.0
N150 N 0.4978 0.49209 0.9438 0.0
C151 C 0.51703 0.4942 0.92041 0.0
C152 C 0.50956 0.53038 0.94564 0.0
C153 C 0.49307 0.51479 0.95981 0.0
C154 C 0.58878 0.50339 0.84641 0.0
O155 O 0.58829 0.52958 0.83634 0.0
H156 H 0.52387 0.48053 0.90175 0.0
H157 H 0.50954 0.5506 0.95181 0.0
O158 O 0.51848 0.56292 0.864 0.0
H159 H 0.60471 0.55702 0.95721 0.0
H160 H 0.47788 0.52041 0.97948 0.0
Cu161 Cu 0.55893 0.56303 0.26136 0.0
N162 N 0.53834 0.55191 0.23606 0.0
N163 N 0.50872 0.53161 0.22391 0.0
C164 C 0.5202 0.53818 0.24696 0.0
C165 C 0.52019 0.54165 0.19736 0.0
C166 C 0.53844 0.55427 0.20495 0.0
O167 O 0.53074 0.58491 0.29125 0.0
C168 C 0.60472 0.51403 0.25713 0.0
O169 O 0.60081 0.52458 0.22799 0.0
H170 H 0.5162 0.5324 0.27144 0.0
H171 H 0.55117 0.56403 0.18896 0.0
N172 N 0.57726 0.5867 0.23901 0.0
N173 N 0.60807 0.61005 0.23014 0.0
C174 C 0.60171 0.58793 0.24661 0.0
C175 C 0.56782 0.60851 0.21658 0.0
C176 C 0.58688 0.62291 0.21094 0.0
C177 C 0.52986 0.60904 0.29855 0.0
O178 O 0.55196 0.61709 0.2913 0.0
H179 H 0.61383 0.57356 0.26498 0.0
H180 H 0.54776 0.61449 0.20637 0.0
O181 O 0.58799 0.528 0.27813 0.0
H182 H 0.51579 0.53997 0.17414 0.0
H183 H 0.58438 0.64236 0.19532 0.0
Cu184 Cu 0.82494 0.58021 0.5881 0.0
N185 N 0.80755 0.60822 0.55686 0.0
N186 N 0.80555 0.63995 0.51498 0.0
C187 C 0.81876 0.62718 0.54111 0.0
C188 C 0.7851 0.62869 0.51432 0.0
C189 C 0.7864 0.60906 0.54026 0.0
O190 O 0.84174 0.59845 0.61357 0.0
C191 C 0.86281 0.52267 0.57528 0.0
O192 O 0.86467 0.5153 0.60529 0.0
H193 H 0.83771 0.62978 0.54737 0.0
H194 H 0.77414 0.59499 0.54553 0.0
N195 N 0.79801 0.56778 0.61293 0.0
N196 N 0.78183 0.53694 0.6444 0.0
C197 C 0.79849 0.54044 0.61894 0.0
C198 C 0.77944 0.58235 0.6346 0.0
C199 C 0.76963 0.56331 0.65425 0.0
C200 C 0.84341 0.59167 0.64275 0.0
O201 O 0.83874 0.56821 0.65544 0.0
H202 H 0.81272 0.52282 0.60683 0.0
H203 H 0.77556 0.60455 0.63776 0.0
O204 O 0.85026 0.54889 0.56525 0.0
H205 H 0.77103 0.63345 0.49583 0.0
H206 H 0.75632 0.56801 0.67545 0.0
Cu207 Cu 0.5847 0.81708 0.60018 0.0
N208 N 0.61784 0.7963 0.57677 0.0
N209 N 0.65436 0.78892 0.54052 0.0
C210 C 0.62723 0.80515 0.54817 0.0
C211 C 0.6624 0.76918 0.5653 0.0
C212 C 0.63995 0.77376 0.58751 0.0
O213 O 0.5986 0.83624 0.62757 0.0
C214 C 0.55426 0.83 0.54937 0.0
O215 O 0.56796 0.8022 0.54908 0.0
H216 H 0.61507 0.82428 0.53406 0.0
H217 H 0.64028 0.76252 0.61061 0.0
N218 N 0.5647 0.79459 0.62363 0.0
N219 N 0.52937 0.78352 0.65241 0.0
C220 C 0.53874 0.80485 0.63861 0.0
C221 C 0.57202 0.76576 0.62803 0.0
C222 C 0.55043 0.7589 0.64569 0.0
C223 C 0.60192 0.82718 0.65622 0.0
O224 O 0.59143 0.80749 0.66921 0.0
H225 H 0.52677 0.82762 0.63886 0.0
H226 H 0.5916 0.75075 0.61887 0.0
O227 O 0.55829 0.84277 0.57076 0.0
H228 H 0.68332 0.75308 0.56756 0.0
H229 H 0.55045 0.73732 0.65315 0.0
Cu230 Cu 0.27747 0.51874 0.54536 0.0
N231 N 0.29823 0.5391 0.51981 0.0
N232 N 0.307 0.57462 0.48785 0.0
C233 C 0.28777 0.56691 0.50755 0.0
C234 C 0.33049 0.55086 0.4877 0.0
C235 C 0.32512 0.52907 0.50759 0.0
O236 O 0.24824 0.5468 0.56873 0.0
C237 C 0.28248 0.48135 0.50287 0.0
O238 O 0.30906 0.4755 0.50811 0.0
H239 H 0.26617 0.58096 0.5122 0.0
H240 H 0.33969 0.5073 0.51233 0.0
N241 N 0.29908 0.49092 0.5751 0.0
N242 N 0.30877 0.45769 0.6165 0.0
C243 C 0.29033 0.47174 0.59451 0.0
C244 C 0.32399 0.48882 0.58506 0.0
C245 C 0.33 0.4684 0.61056 0.0
C246 C 0.25816 0.561 0.58337 0.0
O247 O 0.28557 0.55563 0.5813 0.0
H248 H 0.27012 0.46921 0.59347 0.0
H249 H 0.33633 0.50207 0.57529 0.0
O250 O 0.26331 0.49975 0.51821 0.0
H251 H 0.35012 0.54937 0.47412 0.0
H252 H 0.34836 0.46224 0.62397 0.0
Cu253 Cu 0.52501 0.26314 0.53508 0.0
N254 N 0.5579 0.2423 0.51266 0.0
N255 N 0.5999 0.23445 0.48625 0.0
C256 C 0.57619 0.25429 0.4975 0.0
C257 C 0.59625 0.20887 0.49448 0.0
C258 C 0.57036 0.21376 0.51101 0.0
O259 O 0.53842 0.28561 0.55927 0.0
C260 C 0.49424 0.2717 0.48287 0.0
O261 O 0.51389 0.24673 0.47837 0.0
H262 H 0.57232 0.27718 0.49547 0.0
H263 H 0.56181 0.19758 0.52198 0.0
N264 N 0.51065 0.23902 0.56302 0.0
N265 N 0.48759 0.22504 0.60538 0.0
C266 C 0.49916 0.24464 0.59179 0.0
C267 C 0.50613 0.21511 0.55802 0.0
C268 C 0.49199 0.20636 0.58416 0.0
C269 C 0.55871 0.26943 0.57573 0.0
O270 O 0.56563 0.24137 0.57662 0.0
H271 H 0.49809 0.26363 0.60185 0.0
H272 H 0.51171 0.20538 0.53649 0.0
O273 O 0.49534 0.28418 0.50613 0.0
H274 H 0.61165 0.18804 0.49006 0.0
H275 H 0.48502 0.18803 0.58699 0.0
La276 La 0.28205 0.29548 0.34257 0.0
La277 La 0.31825 0.31899 0.29601 0.0
C278 C 0.24765 0.27321 0.3714 0.0
C279 C 0.23608 0.24992 0.37132 0.0
C280 C 0.2431 0.22663 0.39465 0.0
C281 C 0.22972 0.20627 0.39789 0.0
C282 C 0.20877 0.20882 0.37803 0.0
C283 C 0.20244 0.23157 0.35392 0.0
C284 C 0.2159 0.25198 0.35064 0.0
C285 C 0.32663 0.29933 0.36528 0.0
C286 C 0.32613 0.2549 0.29551 0.0
C287 C 0.35193 0.34088 0.2649 0.0
C288 C 0.36651 0.36166 0.26438 0.0
C289 C 0.35281 0.38925 0.27405 0.0
C290 C 0.36682 0.40924 0.27013 0.0
C291 C 0.39463 0.40196 0.25634 0.0
C292 C 0.40844 0.37398 0.24772 0.0
C293 C 0.39451 0.35409 0.25168 0.0
C294 C 0.27442 0.31337 0.27333 0.0
C295 C 0.27761 0.35857 0.34575 0.0
O296 O 0.27419 0.26544 0.3776 0.0
O297 O 0.24051 0.2951 0.34984 0.0
O298 O 0.3025 0.30261 0.3806 0.0
O299 O 0.32594 0.29198 0.3389 0.0
O300 O 0.30236 0.25982 0.31352 0.0
O301 O 0.33878 0.27411 0.2893 0.0
O302 O 0.32448 0.35104 0.26258 0.0
O303 O 0.36005 0.31764 0.28456 0.0
O304 O 0.29871 0.30997 0.25848 0.0
O305 O 0.27446 0.32182 0.2993 0.0
O306 O 0.30077 0.35298 0.32681 0.0
O307 O 0.26374 0.34031 0.35212 0.0
H308 H 0.25839 0.2246 0.41108 0.0
H309 H 0.2355 0.18875 0.41634 0.0
H310 H 0.18626 0.2343 0.33835 0.0
H311 H 0.20983 0.26981 0.33255 0.0
H312 H 0.33115 0.39554 0.28391 0.0
H313 H 0.35559 0.43065 0.27695 0.0
H314 H 0.43003 0.36747 0.23765 0.0
H315 H 0.40546 0.33289 0.24413 0.0
La316 La 0.80298 0.31376 0.351 0.0
La317 La 0.801 0.27149 0.30389 0.0
C318 C 0.79427 0.35076 0.38821 0.0
C319 C 0.80917 0.36577 0.403 0.0
C320 C 0.83172 0.35067 0.42194 0.0
C321 C 0.84336 0.36559 0.43823 0.0
C322 C 0.83279 0.39591 0.43589 0.0
C323 C 0.81073 0.4109 0.41627 0.0
C324 C 0.79904 0.396 0.40013 0.0
C325 C 0.84574 0.26425 0.34911 0.0
C326 C 0.76337 0.27625 0.36637 0.0
C327 C 0.81027 0.22745 0.27643 0.0
C328 C 0.80394 0.2176 0.24846 0.0
C329 C 0.77641 0.21874 0.24422 0.0
C330 C 0.77158 0.20515 0.22054 0.0
C331 C 0.7941 0.19016 0.20047 0.0
C332 C 0.82143 0.18998 0.20403 0.0
C333 C 0.82629 0.20343 0.22782 0.0
C334 C 0.76143 0.32361 0.29452 0.0
C335 C 0.83715 0.31297 0.28674 0.0
O336 O 0.79122 0.35737 0.35827 0.0
O337 O 0.79998 0.32313 0.39684 0.0
O338 O 0.84782 0.28757 0.35663 0.0
O339 O 0.82023 0.26864 0.34579 0.0
O340 O 0.76687 0.30077 0.36933 0.0
O341 O 0.77866 0.25893 0.34566 0.0
O342 O 0.7892 0.23694 0.29704 0.0
O343 O 0.82742 0.24224 0.27315 0.0
O344 O 0.7656 0.30289 0.2776 0.0
O345 O 0.7795 0.31395 0.31422 0.0
O346 O 0.83449 0.28801 0.28329 0.0
O347 O 0.82307 0.32901 0.30915 0.0
H348 H 0.84004 0.32733 0.42467 0.0
H349 H 0.86054 0.35335 0.45282 0.0
H350 H 0.80173 0.4342 0.4142 0.0
H351 H 0.78149 0.40817 0.38598 0.0
H352 H 0.75866 0.22934 0.25979 0.0
H353 H 0.75023 0.20603 0.21824 0.0
H354 H 0.83936 0.17836 0.18926 0.0
H355 H 0.84776 0.2018 0.23079 0.0
La356 La 0.82198 0.76663 0.29655 0.0
La357 La 0.82995 0.82199 0.30974 0.0
C358 C 0.81842 0.71721 0.29922 0.0
C359 C 0.79739 0.70595 0.29115 0.0
C360 C 0.77313 0.72428 0.2765 0.0
C361 C 0.75324 0.71329 0.26884 0.0
C362 C 0.75727 0.68381 0.27585 0.0
C363 C 0.78171 0.66557 0.29049 0.0
C364 C 0.8016 0.67658 0.29805 0.0
C365 C 0.79713 0.81236 0.25776 0.0
C366 C 0.78243 0.8035 0.35022 0.0
C367 C 0.83581 0.87027 0.30709 0.0
C368 C 0.84159 0.88778 0.32802 0.0
C369 C 0.84608 0.8777 0.35933 0.0
C370 C 0.85634 0.89229 0.37753 0.0
C371 C 0.86239 0.91709 0.36464 0.0
C372 C 0.85643 0.9278 0.33362 0.0
C373 C 0.84616 0.91324 0.31552 0.0
C374 C 0.85358 0.77597 0.34863 0.0
C375 C 0.86871 0.7855 0.25708 0.0
O376 O 0.83082 0.72863 0.2759 0.0
O377 O 0.81075 0.73304 0.32232 0.0
O378 O 0.80251 0.78595 0.25288 0.0
O379 O 0.80092 0.81196 0.28588 0.0
O380 O 0.79093 0.7798 0.3359 0.0
O381 O 0.79315 0.82439 0.34241 0.0
O382 O 0.81113 0.86687 0.31107 0.0
O383 O 0.85661 0.84621 0.30242 0.0
O384 O 0.84632 0.80234 0.35481 0.0
O385 O 0.8512 0.77659 0.32006 0.0
O386 O 0.85478 0.81142 0.26584 0.0
O387 O 0.86282 0.76269 0.27085 0.0
H388 H 0.76955 0.74709 0.27112 0.0
H389 H 0.73449 0.72795 0.25795 0.0
H390 H 0.78559 0.64272 0.29586 0.0
H391 H 0.82028 0.66215 0.30929 0.0
H392 H 0.84274 0.85798 0.36932 0.0
H393 H 0.86031 0.88368 0.40143 0.0
H394 H 0.86117 0.94654 0.32273 0.0
H395 H 0.84306 0.92113 0.29128 0.0
La396 La 0.28741 0.79991 0.29672 0.0
La397 La 0.32371 0.80882 0.34208 0.0
C398 C 0.25201 0.80547 0.25807 0.0
C399 C 0.2404 0.78793 0.2431 0.0
C400 C 0.23661 0.7628 0.25849 0.0
C401 C 0.22579 0.7466 0.24302 0.0
C402 C 0.21898 0.75516 0.2119 0.0
C403 C 0.22293 0.78032 0.19676 0.0
C404 C 0.2335 0.79651 0.21222 0.0
C405 C 0.33875 0.76131 0.29874 0.0
C406 C 0.31655 0.84816 0.27974 0.0
C407 C 0.35909 0.80392 0.38054 0.0
C408 C 0.3734 0.82058 0.39314 0.0
C409 C 0.38791 0.83655 0.37392 0.0
C410 C 0.404 0.84924 0.38689 0.0
C411 C 0.4058 0.84623 0.41926 0.0
C412 C 0.39015 0.83132 0.43835 0.0
C413 C 0.37419 0.81863 0.42541 0.0
C414 C 0.27261 0.84771 0.33941 0.0
C415 C 0.29498 0.75982 0.35829 0.0
O416 O 0.24526 0.80791 0.28774 0.0
O417 O 0.27869 0.80187 0.25051 0.0
O418 O 0.3169 0.75621 0.29196 0.0
O419 O 0.33195 0.78783 0.30108 0.0
O420 O 0.29575 0.83897 0.27604 0.0
O421 O 0.33328 0.83703 0.30298 0.0
O422 O 0.3661 0.79791 0.35177 0.0
O423 O 0.33187 0.81075 0.38769 0.0
O424 O 0.29468 0.8528 0.3455 0.0
O425 O 0.27911 0.8211 0.33767 0.0
O426 O 0.31475 0.76998 0.36343 0.0
O427 O 0.27881 0.77051 0.33461 0.0
H428 H 0.24206 0.75569 0.28231 0.0
H429 H 0.22307 0.72725 0.25523 0.0
H430 H 0.21742 0.78779 0.17301 0.0
H431 H 0.23629 0.81584 0.19999 0.0
H432 H 0.38748 0.83856 0.34892 0.0
H433 H 0.41558 0.86082 0.37156 0.0
H434 H 0.39136 0.82812 0.46329 0.0
H435 H 0.36325 0.80632 0.44065 0.0
La436 La 0.30462 0.80986 0.83718 0.0
La437 La 0.29638 0.76794 0.79903 0.0
C438 C 0.30062 0.85051 0.86765 0.0
C439 C 0.31952 0.86312 0.87908 0.0
C440 C 0.3293 0.85383 0.90899 0.0
C441 C 0.34529 0.86702 0.92105 0.0
C442 C 0.3518 0.88999 0.90361 0.0
C443 C 0.34243 0.89902 0.87347 0.0
C444 C 0.32641 0.88576 0.86135 0.0
C445 C 0.34133 0.75708 0.84554 0.0
C446 C 0.25504 0.78321 0.85742 0.0
C447 C 0.30023 0.72767 0.76806 0.0
C448 C 0.28198 0.71436 0.75688 0.0
C449 C 0.25641 0.73106 0.74354 0.0
C450 C 0.2415 0.7179 0.7294 0.0
C451 C 0.2518 0.68786 0.72855 0.0
C452 C 0.27661 0.67118 0.74342 0.0
C453 C 0.29155 0.68433 0.75737 0.0
C454 C 0.26017 0.82115 0.79097 0.0
C455 C 0.34696 0.79327 0.77964 0.0
O456 O 0.29792 0.85383 0.83766 0.0
O457 O 0.30222 0.82466 0.88027 0.0
O458 O 0.34668 0.78004 0.84833 0.0
O459 O 0.31545 0.76399 0.84119 0.0
O460 O 0.26458 0.80467 0.858 0.0
O461 O 0.26684 0.76339 0.83801 0.0
O462 O 0.3031 0.72401 0.79798 0.0
O463 O 0.29773 0.75385 0.75575 0.0
O464 O 0.25403 0.79848 0.78894 0.0
O465 O 0.28614 0.81364 0.79481 0.0
O466 O 0.33694 0.77217 0.77903 0.0
O467 O 0.33506 0.81353 0.79858 0.0
H468 H 0.32401 0.83677 0.92349 0.0
H469 H 0.35162 0.85989 0.94457 0.0
H470 H 0.34722 0.91655 0.85937 0.0
H471 H 0.31899 0.89361 0.83833 0.0
H472 H 0.24845 0.7543 0.74312 0.0
H473 H 0.22232 0.7313 0.71842 0.0
H474 H 0.28538 0.64805 0.74284 0.0
H475 H 0.31124 0.67108 0.76749 0.0
La476 La 0.29873 0.26112 0.82987 0.0
La477 La 0.32602 0.30079 0.84641 0.0
C478 C 0.27428 0.22527 0.82986 0.0
C479 C 0.2668 0.2098 0.80792 0.0
C480 C 0.26087 0.22191 0.77733 0.0
C481 C 0.25003 0.20855 0.7583 0.0
C482 C 0.24511 0.18284 0.76954 0.0
C483 C 0.25243 0.17015 0.7997 0.0
C484 C 0.26313 0.18355 0.8187 0.0
C485 C 0.29411 0.30586 0.78781 0.0
C486 C 0.2684 0.30534 0.88004 0.0
C487 C 0.35173 0.33535 0.84794 0.0
C488 C 0.36083 0.34971 0.86987 0.0
C489 C 0.35487 0.37952 0.86429 0.0
C490 C 0.36686 0.39317 0.8816 0.0
C491 C 0.38524 0.37718 0.90471 0.0
C492 C 0.39006 0.34752 0.91134 0.0
C493 C 0.3779 0.3339 0.89414 0.0
C494 C 0.33029 0.25548 0.88779 0.0
C495 C 0.35574 0.25763 0.79497 0.0
O496 O 0.30115 0.21781 0.83455 0.0
O497 O 0.26127 0.25322 0.82764 0.0
O498 O 0.29443 0.28107 0.78197 0.0
O499 O 0.29328 0.30596 0.81688 0.0
O500 O 0.27315 0.27992 0.87056 0.0
O501 O 0.28479 0.32055 0.8698 0.0
O502 O 0.32459 0.34364 0.84431 0.0
O503 O 0.3642 0.30743 0.84832 0.0
O504 O 0.32879 0.2804 0.8945 0.0
O505 O 0.33186 0.25596 0.85869 0.0
O506 O 0.35145 0.28264 0.80524 0.0
O507 O 0.3392 0.24249 0.80472 0.0
H508 H 0.26371 0.24213 0.76852 0.0
H509 H 0.24489 0.21867 0.73506 0.0
H510 H 0.24858 0.15058 0.80925 0.0
H511 H 0.26752 0.17397 0.84228 0.0
H512 H 0.34191 0.39209 0.84558 0.0
H513 H 0.36297 0.41597 0.87568 0.0
H514 H 0.40388 0.33472 0.92924 0.0
H515 H 0.38275 0.31086 0.89908 0.0
La516 La 0.78855 0.29806 0.79852 0.0
La517 La 0.82951 0.31175 0.83522 0.0
C518 C 0.74807 0.29626 0.77091 0.0
C519 C 0.72672 0.30798 0.74725 0.0
C520 C 0.73488 0.30874 0.71533 0.0
C521 C 0.71514 0.31261 0.69355 0.0
C522 C 0.68679 0.31569 0.70312 0.0
C523 C 0.67827 0.3171 0.73487 0.0
C524 C 0.69803 0.3132 0.75665 0.0
C525 C 0.84118 0.26177 0.79601 0.0
C526 C 0.81351 0.34744 0.7711 0.0
C527 C 0.8682 0.31415 0.86556 0.0
C528 C 0.88843 0.3012 0.89037 0.0
C529 C 0.88196 0.31223 0.91933 0.0
C530 C 0.90254 0.30484 0.94093 0.0
C531 C 0.93035 0.28623 0.93424 0.0
C532 C 0.93648 0.27413 0.90579 0.0
C533 C 0.91584 0.28162 0.88408 0.0
C534 C 0.77656 0.34743 0.83747 0.0
C535 C 0.80589 0.26123 0.86141 0.0
O536 O 0.77482 0.28515 0.76148 0.0
O537 O 0.7444 0.30872 0.79637 0.0
O538 O 0.81909 0.25494 0.79451 0.0
O539 O 0.83369 0.28873 0.79626 0.0
O540 O 0.79344 0.33627 0.77086 0.0
O541 O 0.83283 0.3381 0.79191 0.0
O542 O 0.84114 0.32435 0.874 0.0
O543 O 0.87305 0.30283 0.83918 0.0
O544 O 0.79837 0.35495 0.83802 0.0
O545 O 0.78466 0.32046 0.83768 0.0
O546 O 0.82598 0.27236 0.8615 0.0
O547 O 0.78577 0.27149 0.84162 0.0
H548 H 0.7568 0.30475 0.70722 0.0
H549 H 0.72239 0.31198 0.66925 0.0
H550 H 0.65675 0.31923 0.74322 0.0
H551 H 0.69117 0.3124 0.7811 0.0
H552 H 0.86128 0.32782 0.92476 0.0
H553 H 0.89693 0.31502 0.96222 0.0
H554 H 0.95746 0.25936 0.89989 0.0
H555 H 0.92171 0.27293 0.86191 0.0
La556 La 0.7808 0.78984 0.825 0.0
La557 La 0.81978 0.81159 0.78127 0.0
C558 C 0.74276 0.77207 0.85274 0.0
C559 C 0.72633 0.75327 0.85161 0.0
C560 C 0.7383 0.72636 0.83996 0.0
C561 C 0.72318 0.70738 0.84352 0.0
C562 C 0.69601 0.715 0.85897 0.0
C563 C 0.68371 0.74252 0.86917 0.0
C564 C 0.69873 0.76143 0.86551 0.0
C565 C 0.82954 0.78193 0.84763 0.0
C566 C 0.8173 0.75205 0.77157 0.0
C567 C 0.85627 0.83079 0.75197 0.0
C568 C 0.87124 0.85122 0.75155 0.0
C569 C 0.87592 0.86604 0.72297 0.0
C570 C 0.8917 0.88413 0.72061 0.0
C571 C 0.9033 0.88776 0.74685 0.0
C572 C 0.89787 0.87354 0.7758 0.0
C573 C 0.88198 0.85531 0.77815 0.0
C574 C 0.77114 0.81872 0.75888 0.0
C575 C 0.78509 0.84813 0.83645 0.0
O576 O 0.76975 0.7596 0.857 0.0
O577 O 0.73753 0.79526 0.83299 0.0
O578 O 0.80558 0.78686 0.86367 0.0
O579 O 0.82622 0.77932 0.82006 0.0
O580 O 0.7943 0.75823 0.79086 0.0
O581 O 0.83317 0.76844 0.76699 0.0
O582 O 0.82922 0.84187 0.74769 0.0
O583 O 0.86244 0.80814 0.7726 0.0
O584 O 0.79522 0.81273 0.74299 0.0
O585 O 0.77443 0.82202 0.78621 0.0
O586 O 0.80752 0.84231 0.81635 0.0
O587 O 0.76878 0.83222 0.84067 0.0
H588 H 0.75963 0.71964 0.82915 0.0
H589 H 0.73322 0.68629 0.83547 0.0
H590 H 0.66264 0.74922 0.88064 0.0
H591 H 0.68914 0.78212 0.87461 0.0
H592 H 0.86771 0.86326 0.70221 0.0
H593 H 0.89493 0.89521 0.69811 0.0
H594 H 0.90657 0.87586 0.79643 0.0
H595 H 0.87853 0.84412 0.8005 0.0
H596 H 0.11641 0.09818 0.46296 0.0
H597 H 0.19139 0.18432 0.33502 0.0
H598 H 0.11751 0.0953 0.3644 0.0
H599 H 0.18914 0.18752 0.43368 0.0
H600 H 0.16437 0.15168 0.34511 0.0
H601 H 0.14355 0.13053 0.45257 0.0
C602 C 0.12243 0.10422 0.43914 0.0
C603 C 0.11455 0.09397 0.41456 0.0
C604 C 0.16985 0.15949 0.36454 0.0
C605 C 0.14553 0.1313 0.40241 0.0
C606 C 0.18518 0.17823 0.35878 0.0
C607 C 0.19271 0.18861 0.38352 0.0
C608 C 0.1619 0.15111 0.39527 0.0
C609 C 0.18429 0.17971 0.41387 0.0
C610 C 0.13783 0.12284 0.43319 0.0
C611 C 0.12269 0.10294 0.38411 0.0
N612 N 0.16937 0.16153 0.41886 0.0
N613 N 0.13773 0.12103 0.37891 0.0
H614 H 1.00764 0.12747 0.35819 0.0
H615 H 0.84357 0.21355 0.33477 0.0
H616 H 0.95256 0.08875 0.32848 0.0
H617 H 0.90186 0.25317 0.35407 0.0
H618 H 0.8833 0.16821 0.32975 0.0
H619 H 0.96966 0.1742 0.35368 0.0
C620 C 0.98762 0.12885 0.35036 0.0
C621 C 0.98324 0.10408 0.34389 0.0
C622 C 0.88744 0.18686 0.33487 0.0
C623 C 0.93934 0.15767 0.3391 0.0
C624 C 0.86478 0.21272 0.33773 0.0
C625 C 0.8695 0.23705 0.34493 0.0
C626 C 0.91497 0.18531 0.33949 0.0
C627 C 0.89732 0.23485 0.34865 0.0
C628 C 0.96588 0.15559 0.34783 0.0
C629 C 0.95688 0.10726 0.33368 0.0
N630 N 0.91896 0.2094 0.34608 0.0
N631 N 0.9358 0.13351 0.33195 0.0
H632 H 0.94348 0.02993 0.41026 0.0
H633 H 0.90504 0.88945 0.40367 0.0
H634 H 0.99261 0.94465 0.44952 0.0
H635 H 0.8545 0.97452 0.36517 0.0
H636 H 0.93365 0.91051 0.42663 0.0
H637 H 0.90752 1.01128 0.39906 0.0
C638 C 0.94664 1.00735 0.41675 0.0
C639 C 0.97137 0.98882 0.43052 0.0
C640 C 0.91611 0.92465 0.41345 0.0
C641 C 0.93019 0.96729 0.41784 0.0
C642 C 0.89956 0.91264 0.40051 0.0
C643 C 0.87738 0.93018 0.38218 0.0
C644 C 0.91067 0.95444 0.40793 0.0
C645 C 0.8717 0.96007 0.37859 0.0
C646 C 0.92603 0.99673 0.41045 0.0
C647 C 0.97398 0.95985 0.43898 0.0
N648 N 0.88839 0.97121 0.39106 0.0
N649 N 0.95384 0.94996 0.4322 0.0
H650 H 0.14192 1.01375 0.3137 0.0
H651 H 0.22009 0.84252 0.34137 0.0
H652 H 0.09906 0.95598 0.35675 0.0
H653 H 0.26252 0.90462 0.3247 0.0
H654 H 0.17433 0.88237 0.33625 0.0
H655 H 0.18483 0.97227 0.30579 0.0
C656 C 0.14134 0.99234 0.32104 0.0
C657 C 0.1169 0.98843 0.33634 0.0
C658 C 0.19373 0.88715 0.33344 0.0
C659 C 0.16619 0.94074 0.32756 0.0
C660 C 0.21975 0.86448 0.33629 0.0
C661 C 0.24495 0.87044 0.33385 0.0
C662 C 0.19316 0.91576 0.32764 0.0
C663 C 0.24349 0.89917 0.3272 0.0
C664 C 0.16594 0.96864 0.31665 0.0
C665 C 0.11749 0.96006 0.34515 0.0
N666 N 0.21808 0.92072 0.32441 0.0
N667 N 0.14183 0.9373 0.34094 0.0
H668 H 0.10734 0.97244 0.79881 0.0
H669 H 0.27039 0.87191 0.77887 0.0
H670 H 0.16822 0.99651 0.73457 0.0
H671 H 0.20298 0.83753 0.80194 0.0
H672 H 0.23494 0.92085 0.77499 0.0
H673 H 0.14443 0.92581 0.81296 0.0
C674 C 0.12863 0.96816 0.78826 0.0
C675 C 0.13478 0.98818 0.76541 0.0
C676 C 0.22799 0.90256 0.78115 0.0
C677 C 0.17705 0.93534 0.78148 0.0
C678 C 0.24815 0.87472 0.7834 0.0
C679 C 0.23948 0.85078 0.79035 0.0
C680 C 0.19907 0.90639 0.78652 0.0
C681 C 0.21045 0.8555 0.7961 0.0
C682 C 0.14967 0.94155 0.79612 0.0
C683 C 0.16262 0.98151 0.75214 0.0
N684 N 0.19124 0.88278 0.79408 0.0
N685 N 0.18272 0.95566 0.76034 0.0
H686 H 0.1101 0.15922 0.68656 0.0
H687 H 0.25603 0.12595 0.76303 0.0
H688 H 0.16228 0.07471 0.72434 0.0
H689 H 0.19947 0.21171 0.73489 0.0
H690 H 0.22625 0.1061 0.74001 0.0
H691 H 0.14693 0.17791 0.69488 0.0
C692 C 0.12951 0.1445 0.69608 0.0
C693 C 0.13298 0.11545 0.7052 0.0
C694 C 0.22053 0.12927 0.73852 0.0
C695 C 0.17506 0.13669 0.71508 0.0
C696 C 0.2375 0.14061 0.75173 0.0
C697 C 0.23004 0.17054 0.75128 0.0
C698 C 0.19581 0.14797 0.72487 0.0
C699 C 0.2061 0.1885 0.73574 0.0
C700 C 0.15046 0.1552 0.70102 0.0
C701 C 0.15851 0.09737 0.71762 0.0
N702 N 0.18965 0.17694 0.72351 0.0
N703 N 0.17844 0.10832 0.72245 0.0
H704 H 1.02205 0.16699 0.7829 0.0
H705 H 0.85461 0.20441 0.8107 0.0
H706 H 0.98085 0.10375 0.79652 0.0
H707 H 0.89289 0.26975 0.78891 0.0
H708 H 0.90147 0.16749 0.81245 0.0
H709 H 0.97611 0.20466 0.79204 0.0
C710 C 1.00344 0.16091 0.78827 0.0
C711 C 1.00536 0.13209 0.78867 0.0
C712 C 0.89979 0.18986 0.80742 0.0
C713 C 0.95262 0.17528 0.79895 0.0
C714 C 0.87298 0.211 0.80636 0.0
C715 C 0.86989 0.24017 0.79929 0.0
C716 C 0.92392 0.19778 0.80116 0.0
C717 C 0.8944 0.24748 0.79437 0.0
C718 C 0.97718 0.18251 0.79335 0.0
C719 C 0.98046 0.12563 0.79576 0.0
N720 N 0.92047 0.22636 0.7951 0.0
N721 N 0.95518 0.14704 0.80038 0.0
H722 H 0.98097 1.01383 0.76429 0.0
H723 H 0.9441 0.88952 0.70077 0.0
H724 H 1.01844 0.97684 0.67919 0.0
H725 H 0.90427 0.92687 0.78504 0.0
H726 H 0.97225 0.92075 0.6935 0.0
H727 H 0.95352 0.98168 0.77324 0.0
C728 C 0.98355 0.9989 0.74753 0.0
C729 C 1.00213 0.9981 0.72091 0.0
C730 C 0.95739 0.92218 0.71362 0.0
C731 C 0.97055 0.96131 0.73096 0.0
C732 C 0.94118 0.90441 0.71772 0.0
C733 C 0.92153 0.90577 0.7434 0.0
C734 C 0.95406 0.94157 0.73533 0.0
C735 C 0.91922 0.92501 0.76497 0.0
C736 C 0.96775 0.98062 0.75261 0.0
C737 C 1.00419 0.97855 0.69981 0.0
N738 N 0.93519 0.94226 0.76038 0.0
N739 N 0.98866 0.96096 0.70532 0.0
H740 H 0.37876 0.08459 0.23243 0.0
H741 H 0.36125 0.24724 0.24298 0.0
H742 H 0.38112 0.1439 0.15124 0.0
H743 H 0.31604 0.20369 0.30915 0.0
H744 H 0.37714 0.20604 0.2129 0.0
H745 H 0.36374 0.12481 0.26456 0.0
C746 C 0.37637 0.10607 0.22146 0.0
C747 C 0.38131 0.11105 0.1892 0.0
C748 C 0.36384 0.20547 0.23407 0.0
C749 C 0.36438 0.15684 0.22568 0.0
C750 C 0.35492 0.22886 0.25144 0.0
C751 C 0.33732 0.22889 0.27874 0.0
C752 C 0.3556 0.1816 0.24425 0.0
C753 C 0.32957 0.20455 0.28826 0.0
C754 C 0.3676 0.12895 0.23973 0.0
C755 C 0.37747 0.13929 0.17602 0.0
N756 N 0.33892 0.18173 0.2711 0.0
N757 N 0.36947 0.16112 0.19434 0.0
H758 H 0.97329 0.32149 0.15126 0.0
H759 H 0.85144 0.36073 0.2884 0.0
H760 H 0.96017 0.38952 0.20849 0.0
H761 H 0.87085 0.287 0.23764 0.0
H762 H 0.8881 0.37441 0.25613 0.0
H763 H 0.93298 0.31142 0.17948 0.0
C764 C 0.962 0.33432 0.16979 0.0
C765 C 0.97047 0.35619 0.17771 0.0
C766 C 0.88425 0.35532 0.25195 0.0
C767 C 0.92387 0.34491 0.21001 0.0
C768 C 0.86324 0.34748 0.27035 0.0
C769 C 0.85805 0.32254 0.26589 0.0
C770 C 0.90024 0.33817 0.22881 0.0
C771 C 0.8741 0.30632 0.24206 0.0
C772 C 0.93884 0.32862 0.18582 0.0
C773 C 0.95444 0.37254 0.20146 0.0
N774 N 0.89451 0.31437 0.22452 0.0
N775 N 0.93204 0.36645 0.21688 0.0
H776 H 0.8065 0.9623 0.13405 0.0
H777 H 0.81404 0.80306 0.19804 0.0
H778 H 0.85787 0.88655 0.09032 0.0
H779 H 0.7887 0.87009 0.25905 0.0
H780 H 0.82488 0.83585 0.15642 0.0
H781 H 0.79565 0.93113 0.1787 0.0
C782 C 0.81557 0.93915 0.13391 0.0
C783 C 0.83305 0.92699 0.10837 0.0
C784 C 0.81698 0.84351 0.17887 0.0
C785 C 0.82058 0.89142 0.15903 0.0
C786 C 0.81051 0.82486 0.20267 0.0
C787 C 0.80066 0.83382 0.23221 0.0
C788 C 0.81322 0.87166 0.18429 0.0
C789 C 0.7966 0.8623 0.23672 0.0
C790 C 0.80948 0.92144 0.1594 0.0
C791 C 0.84452 0.89688 0.10952 0.0
N792 N 0.80286 0.88036 0.21291 0.0
N793 N 0.83787 0.88019 0.13425 0.0
H794 H 0.10291 0.687 0.1493 0.0
H795 H 0.23302 0.74086 0.15247 0.0
H796 H 0.15296 0.70523 0.06788 0.0
H797 H 0.17781 0.73196 0.23302 0.0
H798 H 0.20903 0.71953 0.12289 0.0
H799 H 0.13532 0.69462 0.1818 0.0
C800 C 0.12107 0.69197 0.13826 0.0
C801 C 0.12511 0.69576 0.10578 0.0
C802 C 0.20229 0.72197 0.14711 0.0
C803 C 0.16202 0.70494 0.14284 0.0
C804 C 0.21593 0.73424 0.16399 0.0
C805 C 0.20709 0.73864 0.19513 0.0
C806 C 0.1795 0.7141 0.16137 0.0
C807 C 0.18528 0.72901 0.20907 0.0
C808 C 0.13943 0.69657 0.15684 0.0
C809 C 0.14884 0.70255 0.09279 0.0
N810 N 0.17198 0.71751 0.19198 0.0
N811 N 0.16623 0.70718 0.11132 0.0
H812 H 0.43532 0.93593 0.0376 0.0
H813 H 0.34045 0.94827 0.89902 0.0
H814 H 0.3817 0.01658 0.99279 0.0
H815 H 0.3963 0.86746 0.94124 0.0
H816 H 0.36045 0.97382 0.92814 0.0
H817 H 0.42662 0.91081 0.9978 0.0
C818 C 0.42214 0.94844 1.0191 0.0
C819 C 0.40884 0.97838 1.01884 0.0
C820 C 0.36859 0.95049 0.93079 0.0
C821 C 0.39842 0.9497 0.97343 0.0
C822 C 0.3573 0.93585 0.91397 0.0
C823 C 0.36645 0.90563 0.91793 0.0
C824 C 0.38909 0.93484 0.95191 0.0
C825 C 0.38814 0.89077 0.93796 0.0
C826 C 0.41702 0.93405 0.99645 0.0
C827 C 0.39182 0.99341 0.99433 0.0
N828 N 0.39849 0.90552 0.95444 0.0
N829 N 0.38685 0.97889 0.97284 0.0
H830 H 0.13183 0.39961 1.00779 0.0
H831 H 0.24046 0.27346 0.91563 0.0
H832 H 0.15201 0.30891 0.03744 0.0
H833 H 0.24477 0.35909 0.90136 0.0
H834 H 0.20408 0.28829 0.95714 0.0
H835 H 0.16973 0.38734 0.96592 0.0
C836 C 0.14431 0.37721 1.00563 0.0
C837 C 0.13886 0.35529 0.02632 0.0
C838 C 0.21293 0.30392 0.94503 0.0
C839 C 0.18174 0.34117 0.97856 0.0
C840 C 0.23368 0.29551 0.9211 0.0
C841 C 0.24574 0.31508 0.90486 0.0
C842 C 0.20377 0.33226 0.95286 0.0
C843 C 0.23607 0.3433 0.91332 0.0
C844 C 0.16592 0.37025 0.98187 0.0
C845 C 0.15567 0.3266 0.02253 0.0
N846 N 0.2155 0.35114 0.93672 0.0
N847 N 0.17611 0.32043 0.99907 0.0
H848 H 0.84077 0.07998 0.8989 0.0
H849 H 0.8344 0.23816 0.91421 0.0
H850 H 0.84297 0.10556 0.98859 0.0
H851 H 0.78624 0.22002 0.84944 0.0
H852 H 0.8456 0.18846 0.93913 0.0
H853 H 0.83029 0.13019 0.87633 0.0
C854 C 0.8396 0.09612 0.91366 0.0
C855 C 0.84277 0.08881 0.94555 0.0
C856 C 0.83233 0.19562 0.91967 0.0
C857 C 0.83069 0.14595 0.92013 0.0
C858 C 0.82584 0.2239 0.90556 0.0
C859 C 0.80916 0.23329 0.87991 0.0
C860 C 0.82273 0.17652 0.90739 0.0
C861 C 0.79886 0.21384 0.8694 0.0
C862 C 0.8333 0.12472 0.90091 0.0
C863 C 0.84057 0.11055 0.96389 0.0
N864 N 0.80614 0.18627 0.8829 0.0
N865 N 0.83475 0.13823 0.9509 0.0
H866 H 0.98515 0.76803 0.92339 0.0
H867 H 0.8411 0.74722 0.90143 0.0
H868 H 0.96493 0.69423 0.96698 0.0
H869 H 0.87922 0.79186 0.82844 0.0
H870 H 0.88448 0.73129 0.9288 0.0
H871 H 0.94464 0.78107 0.89114 0.0
C872 C 0.9722 0.75459 0.92613 0.0
C873 C 0.97837 0.73002 0.94789 0.0
C874 C 0.88352 0.74433 0.90664 0.0
C875 C 0.93206 0.74489 0.91143 0.0
C876 C 0.85876 0.75347 0.89104 0.0
C877 C 0.85674 0.77064 0.86248 0.0
C878 C 0.90625 0.75303 0.89407 0.0
C879 C 0.88016 0.77826 0.85014 0.0
C880 C 0.94927 0.76191 0.90761 0.0
C881 C 0.96108 0.71319 0.95033 0.0
N882 N 0.90391 0.7697 0.86621 0.0
N883 N 0.93857 0.72111 0.93261 0.0
H884 H 0.18138 0.26395 0.15122 0.0
H885 H 0.21692 0.33159 0.29155 0.0
H886 H 0.11701 0.32754 0.20223 0.0
H887 H 0.27892 0.2831 0.22522 0.0
H888 H 0.17936 0.32498 0.26516 0.0
H889 H 0.21657 0.26501 0.18438 0.0
C890 C 0.17452 0.27794 0.1696 0.0
C891 C 0.14609 0.29582 0.17366 0.0
C892 C 0.20123 0.31568 0.25657 0.0
C893 C 0.18665 0.29731 0.21191 0.0
C894 C 0.22263 0.31936 0.27169 0.0
C895 C 0.25104 0.30814 0.26035 0.0
C896 C 0.20845 0.30036 0.23026 0.0
C897 C 0.25728 0.29244 0.23456 0.0
C898 C 0.19472 0.27863 0.18853 0.0
C899 C 0.13866 0.31345 0.19807 0.0
N900 N 0.23628 0.28909 0.22045 0.0
N901 N 0.1588 0.31388 0.21612 0.0
H902 H 0.11915 0.80791 1.00468 0.0
H903 H 0.22379 0.74792 0.85756 0.0
H904 H 0.10587 0.75101 0.94713 0.0
H905 H 0.22783 0.81652 0.90473 0.0
H906 H 0.18186 0.74736 0.89127 0.0
H907 H 0.15964 0.81035 0.96943 0.0
C908 C 0.12454 0.79608 0.98453 0.0
C909 C 0.10882 0.77928 0.979 0.0
C910 C 0.19189 0.76256 0.89425 0.0
C911 C 0.15579 0.78167 0.93849 0.0
C912 C 0.21599 0.76283 0.87503 0.0
C913 C 0.22962 0.78226 0.87818 0.0
C914 C 0.18125 0.78169 0.91716 0.0
C915 C 0.21819 0.80112 0.90129 0.0
C916 C 0.14778 0.79746 0.96438 0.0
C917 C 0.11713 0.76438 0.95241 0.0
N918 N 0.19487 0.80028 0.91985 0.0
N919 N 0.14003 0.76578 0.93338 0.0
H920 H 0.32134 0.14261 0.05768 0.0
H921 H 0.34838 0.19814 0.87888 0.0
H922 H 0.38605 0.09176 0.99531 0.0
H923 H 0.31453 0.256 0.94957 0.0
H924 H 0.35292 0.15716 0.91896 0.0
H925 H 0.30908 0.18277 1.01572 0.0
C926 C 0.33255 0.13972 0.03504 0.0
C927 C 0.35482 0.11391 0.02998 0.0
C928 C 0.34431 0.17886 0.92563 0.0
C929 C 0.34089 0.15942 0.98203 0.0
C930 C 0.34167 0.2022 0.90277 0.0
C931 C 0.3314 0.23044 0.911 0.0
C932 C 0.3361 0.18382 0.95685 0.0
C933 C 0.3229 0.23452 0.94232 0.0
C934 C 0.32573 0.16265 1.01122 0.0
C935 C 0.36888 0.11138 1.00027 0.0
N936 N 0.32542 0.21152 0.96409 0.0
N937 N 0.36169 0.13376 0.9775 0.0
H938 H 1.01938 0.28929 0.09223 0.0
H939 H 0.98634 0.28034 0.91944 0.0
H940 H 0.08005 0.28197 1.01323 0.0
H941 H 0.9266 0.28155 0.99851 0.0
H942 H 1.02197 0.27688 0.95436 0.0
H943 H 0.98648 0.28238 0.05961 0.0
C944 C 1.02605 0.28569 0.06822 0.0
C945 C 0.05259 0.28638 0.05552 0.0
C946 C 1.00114 0.27767 0.96416 0.0
C947 C 1.01471 0.27889 1.0178 0.0
C948 C 0.98072 0.27942 0.94415 0.0
C949 C 0.95313 0.28139 0.9558 0.0
C950 C 0.99412 0.27804 0.99625 0.0
C951 C 0.9473 0.28064 0.98821 0.0
C952 C 1.00714 0.28192 0.04952 0.0
C953 C 0.05983 0.28178 0.02411 0.0
N954 N 0.96748 0.27925 1.00719 0.0
N955 N 0.04098 0.27853 1.00637 0.0
H956 H 0.79339 0.98662 0.93169 0.0
H957 H 0.74831 0.8591 0.88813 0.0
H958 H 0.7553 0.93641 0.99822 0.0
H959 H 0.80982 0.88957 0.83225 0.0
H960 H 0.74306 0.89383 0.92466 0.0
H961 H 0.79168 0.9579 0.89127 0.0
C962 C 0.78418 0.96993 0.93773 0.0
C963 C 0.77453 0.96391 0.96852 0.0
C964 C 0.75754 0.89307 0.90428 0.0
C965 C 0.77263 0.93086 0.92224 0.0
C966 C 0.76048 0.87331 0.88326 0.0
C967 C 0.77965 0.87123 0.85701 0.0
C968 C 0.77364 0.91122 0.899 0.0
C969 C 0.79487 0.89027 0.85218 0.0
C970 C 0.78343 0.9534 0.91465 0.0
C971 C 0.76307 0.94179 0.97489 0.0
N972 N 0.79158 0.9094 0.87297 0.0
N973 N 0.7625 0.92607 0.95203 0.0
H974 H 0.97039 0.75552 0.08083 0.0
H975 H 0.90002 0.82024 0.23986 0.0
H976 H 1.01053 0.79582 0.13272 0.0
H977 H 0.88765 0.74562 0.21406 0.0
H978 H 0.93488 0.81797 0.19573 0.0
H979 H 0.93396 0.75857 0.12396 0.0
C980 C 0.97127 0.76553 0.10099 0.0
C981 C 0.99354 0.77562 0.10299 0.0
C982 C 0.92462 0.80202 0.19974 0.0
C983 C 0.95187 0.7791 0.15248 0.0
C984 C 0.90467 0.80328 0.22495 0.0
C985 C 0.89099 0.7829 0.23097 0.0
C986 C 0.93064 0.78066 0.17964 0.0
C987 C 0.89791 0.76154 0.21061 0.0
C988 C 0.95064 0.76693 0.12574 0.0
C989 C 0.99377 0.78786 0.13003 0.0
N990 N 0.91704 0.76112 0.18573 0.0
N991 N 0.97326 0.7894 0.15352 0.0
H992 H 0.3475 1.00222 0.18798 0.0
H993 H 0.29396 0.86775 0.22356 0.0
H994 H 0.3163 0.96923 0.119 0.0
H995 H 0.34598 0.88437 0.285 0.0
H996 H 0.29742 0.90838 0.18754 0.0
H997 H 0.34196 0.96331 0.22629 0.0
C998 C 0.33907 0.98711 0.18097 0.0
C999 C 0.33231 0.9891 0.15012 0.0
C1000 C 0.30815 0.90319 0.20884 0.0
C1001 C 0.32614 0.94435 0.19391 0.0
C1002 C 0.30618 0.87992 0.22955 0.0
C1003 C 0.31978 0.87245 0.25747 0.0
C1004 C 0.32362 0.91956 0.21599 0.0
C1005 C 0.33531 0.88917 0.26371 0.0
C1006 C 0.33617 0.96474 0.20281 0.0
C1007 C 0.3218 0.96862 0.14241 0.0
N1008 N 0.33671 0.91202 0.24321 0.0
N1009 N 0.31905 0.9472 0.16409 0.0
H1010 H 0.82243 0.09204 0.04559 0.0
H1011 H 0.76069 0.15647 0.20672 0.0
H1012 H 0.76399 0.06279 0.10827 0.0
H1013 H 0.81724 0.18562 0.14055 0.0
H1014 H 0.75683 0.12613 0.16917 0.0
H1015 H 0.81548 0.13066 0.07745 0.0
C1016 C 0.80758 0.09425 0.0658 0.0
C1017 C 0.79358 0.07444 0.07425 0.0
C1018 C 0.76984 0.13939 0.16276 0.0
C1019 C 0.78623 0.11806 0.1117 0.0
C1020 C 0.77198 0.15685 0.18414 0.0
C1021 C 0.78953 0.17353 0.17693 0.0
C1022 C 0.78536 0.13855 0.1339 0.0
C1023 C 0.80387 0.1728 0.14741 0.0
C1024 C 0.80375 0.11619 0.08415 0.0
C1025 C 0.77486 0.07794 0.10083 0.0
N1026 N 0.80159 0.15552 0.12716 0.0
N1027 N 0.77201 0.09913 0.11893 0.0
H1028 H 0.61493 0.58951 0.85279 0.0
H1029 H 0.6685 0.70355 0.91385 0.0
H1030 H 0.60758 0.60449 0.9489 0.0
H1031 H 0.68995 0.67814 0.82112 0.0
H1032 H 0.64378 0.66918 0.92609 0.0
H1033 H 0.64011 0.62365 0.83975 0.0
C1034 C 0.61848 0.60008 0.87113 0.0
C1035 C 0.60906 0.59417 0.90201 0.0
C1036 C 0.65387 0.67106 0.90305 0.0
C1037 C 0.63801 0.63314 0.88726 0.0
C1038 C 0.66783 0.69084 0.89596 0.0
C1039 C 0.68113 0.69389 0.86632 0.0
C1040 C 0.653 0.65417 0.88032 0.0
C1041 C 0.68007 0.67641 0.84429 0.0
C1042 C 0.63303 0.61941 0.86369 0.0
C1043 C 0.61467 0.60816 0.92488 0.0
N1044 N 0.66611 0.65738 0.85168 0.0
N1045 N 0.62865 0.62706 0.91702 0.0
H1046 H 0.43729 0.57384 0.85575 0.0
H1047 H 0.398 0.74483 0.83809 0.0
H1048 H 0.4989 0.61641 0.84364 0.0
H1049 H 0.33497 0.70428 0.84824 0.0
H1050 H 0.43507 0.69773 0.83611 0.0
H1051 H 0.39964 0.62085 0.84833 0.0
C1052 C 0.44298 0.59301 0.85108 0.0
C1053 C 0.47136 0.59111 0.8506 0.0
C1054 C 0.41318 0.699 0.83861 0.0
C1055 C 0.42823 0.64507 0.84241 0.0
C1056 C 0.39198 0.72592 0.83988 0.0
C1057 C 0.3634 0.72839 0.8435 0.0
C1058 C 0.40586 0.67417 0.84126 0.0
C1059 C 0.35678 0.70325 0.84533 0.0
C1060 C 0.42142 0.61987 0.84697 0.0
C1061 C 0.47737 0.61674 0.84441 0.0
N1062 N 0.37789 0.6771 0.84442 0.0
N1063 N 0.456 0.6426 0.84085 0.0
H1064 H 0.44253 0.50369 0.96376 0.0
H1065 H 0.44155 0.35574 0.91501 0.0
H1066 H 0.51681 0.43696 0.93012 0.0
H1067 H 0.36614 0.4301 0.92696 0.0
H1068 H 0.46941 0.38122 0.93205 0.0
H1069 H 0.41463 0.47295 0.96172 0.0
C1070 C 0.45308 0.48235 0.95654 0.0
C1071 C 0.48199 0.47291 0.94683 0.0
C1072 C 0.44672 0.39184 0.93131 0.0
C1073 C 0.45019 0.4378 0.94418 0.0
C1074 C 0.43075 0.37722 0.92184 0.0
C1075 C 0.40148 0.39091 0.91934 0.0
C1076 C 0.43336 0.42034 0.93842 0.0
C1077 C 0.38871 0.41892 0.92812 0.0
C1078 C 0.43711 0.46491 0.95516 0.0
C1079 C 0.4945 0.44517 0.93736 0.0
N1080 N 0.40476 0.43281 0.93705 0.0
N1081 N 0.47851 0.42866 0.93608 0.0
H1082 H 0.59907 0.44598 0.866 0.0
H1083 H 0.76253 0.40289 0.81261 0.0
H1084 H 0.63556 0.50309 0.80825 0.0
H1085 H 0.72535 0.33938 0.8517 0.0
H1086 H 0.71536 0.43909 0.80875 0.0
H1087 H 0.64368 0.4059 0.8587 0.0
C1088 C 0.61627 0.45005 0.85138 0.0
C1089 C 0.61362 0.47809 0.83803 0.0
C1090 C 0.71734 0.41722 0.81792 0.0
C1091 C 0.66483 0.43234 0.82992 0.0
C1092 C 0.74431 0.39656 0.82026 0.0
C1093 C 0.74776 0.36822 0.83277 0.0
C1094 C 0.69348 0.40972 0.82872 0.0
C1095 C 0.72349 0.36107 0.84197 0.0
C1096 C 0.64175 0.42713 0.84727 0.0
C1097 C 0.63662 0.48197 0.81924 0.0
N1098 N 0.69729 0.38182 0.84018 0.0
N1099 N 0.6613 0.45947 0.8161 0.0
H1100 H 0.63601 0.47683 0.21621 0.0
H1101 H 0.74167 0.36475 0.33567 0.0
H1102 H 0.6266 0.48782 0.31373 0.0
H1103 H 0.73051 0.34751 0.24486 0.0
H1104 H 0.7033 0.41188 0.3281 0.0
H1105 H 0.67442 0.43155 0.22623 0.0
C1106 C 0.64202 0.46974 0.23985 0.0
C1107 C 0.62792 0.48624 0.26418 0.0
C1108 C 0.70937 0.39774 0.30987 0.0
C1109 C 0.6724 0.43387 0.27587 0.0
C1110 C 0.73136 0.37104 0.31407 0.0
C1111 C 0.73937 0.35245 0.2907 0.0
C1112 C 0.69566 0.4058 0.282 0.0
C1113 C 0.72505 0.36126 0.26341 0.0
C1114 C 0.66401 0.44372 0.24556 0.0
C1115 C 0.63679 0.47572 0.29431 0.0
N1116 N 0.70404 0.38727 0.25978 0.0
N1117 N 0.65859 0.45017 0.29934 0.0
H1118 H 0.6309 0.64409 0.18991 0.0
H1119 H 0.7374 0.64482 0.31195 0.0
H1120 H 0.63647 0.59931 0.28241 0.0
H1121 H 0.7282 0.69635 0.2231 0.0
H1122 H 0.70205 0.62599 0.29984 0.0
H1123 H 0.66782 0.66198 0.20014 0.0
C1124 C 0.63982 0.63799 0.21231 0.0
C1125 C 0.6305 0.62002 0.23523 0.0
C1126 C 0.70774 0.6414 0.28293 0.0
C1127 C 0.67289 0.64026 0.24702 0.0
C1128 C 0.72808 0.65203 0.28977 0.0
C1129 C 0.73583 0.67217 0.26849 0.0
C1130 C 0.69498 0.65089 0.25455 0.0
C1131 C 0.72264 0.68109 0.24032 0.0
C1132 C 0.66097 0.64813 0.2181 0.0
C1133 C 0.64314 0.61261 0.26374 0.0
N1134 N 0.70287 0.67037 0.23414 0.0
N1135 N 0.66357 0.62277 0.26878 0.0
H1136 H 0.51812 0.6655 0.30762 0.0
H1137 H 0.35095 0.7035 0.30711 0.0
H1138 H 0.47817 0.60211 0.30945 0.0
H1139 H 0.38983 0.76796 0.30243 0.0
H1140 H 0.39716 0.66589 0.31382 0.0
H1141 H 0.47134 0.70277 0.31257 0.0
C1142 C 0.49956 0.65928 0.30963 0.0
C1143 C 0.50217 0.63059 0.30777 0.0
C1144 C 0.39567 0.68823 0.31154 0.0
C1145 C 0.44845 0.67334 0.31304 0.0
C1146 C 0.36928 0.70972 0.3076 0.0
C1147 C 0.36665 0.73885 0.30408 0.0
C1148 C 0.41974 0.69585 0.31176 0.0
C1149 C 0.39099 0.74573 0.3052 0.0
C1150 C 0.47282 0.68065 0.31228 0.0
C1151 C 0.47729 0.62392 0.31056 0.0
N1152 N 0.4166 0.72436 0.30872 0.0
N1153 N 0.45153 0.64515 0.31271 0.0
H1154 H 0.47133 0.52839 0.27282 0.0
H1155 H 0.42676 0.41165 0.2042 0.0
H1156 H 0.50221 0.4984 0.18304 0.0
H1157 H 0.39552 0.44134 0.29406 0.0
H1158 H 0.45262 0.44514 0.19507 0.0
H1159 H 0.44155 0.49866 0.27997 0.0
C1160 C 0.47189 0.51554 0.25459 0.0
C1161 C 0.48956 0.51572 0.22739 0.0
C1162 C 0.44006 0.44444 0.21676 0.0
C1163 C 0.45525 0.48172 0.23535 0.0
C1164 C 0.4254 0.42518 0.22208 0.0
C1165 C 0.40918 0.42343 0.25011 0.0
C1166 C 0.4386 0.46215 0.23963 0.0
C1167 C 0.40768 0.44201 0.27209 0.0
C1168 C 0.45474 0.49867 0.25864 0.0
C1169 C 0.48887 0.49909 0.2043 0.0
N1170 N 0.42236 0.46046 0.26647 0.0
N1171 N 0.47216 0.48263 0.2089 0.0
H1172 H 0.83334 0.59056 0.70582 0.0
H1173 H 0.85155 0.74125 0.71792 0.0
H1174 H 0.85579 0.64141 0.6258 0.0
H1175 H 0.79952 0.70561 0.78383 0.0
H1176 H 0.86122 0.70085 0.68714 0.0
H1177 H 0.82944 0.62829 0.73793 0.0
C1178 C 0.83789 0.60944 0.69501 0.0
C1179 C 0.84484 0.61276 0.66292 0.0
C1180 C 0.84781 0.70185 0.70842 0.0
C1181 C 0.8403 0.65623 0.69982 0.0
C1182 C 0.84236 0.72482 0.7261 0.0
C1183 C 0.82463 0.7269 0.75354 0.0
C1184 C 0.83584 0.68049 0.71847 0.0
C1185 C 0.81319 0.70502 0.76281 0.0
C1186 C 0.83544 0.63109 0.71339 0.0
C1187 C 0.85032 0.6379 0.65037 0.0
N1188 N 0.81906 0.68273 0.7454 0.0
N1189 N 0.8479 0.65866 0.66882 0.0
H1190 H 0.49458 0.82877 0.68337 0.0
H1191 H 0.38014 0.75203 0.74245 0.0
H1192 H 0.50228 0.74437 0.66247 0.0
H1193 H 0.37458 0.83295 0.77166 0.0
H1194 H 0.42377 0.75031 0.71141 0.0
H1195 H 0.44988 0.83212 0.71373 0.0
C1196 C 0.48692 0.81098 0.68495 0.0
C1197 C 0.50259 0.78618 0.67021 0.0
C1198 C 0.41306 0.76852 0.72452 0.0
C1199 C 0.45109 0.78989 0.7053 0.0
C1200 C 0.38795 0.76959 0.7423 0.0
C1201 C 0.37334 0.79274 0.75985 0.0
C1202 C 0.42398 0.7908 0.72394 0.0
C1203 C 0.38492 0.81466 0.75859 0.0
C1204 C 0.46138 0.81287 0.70249 0.0
C1205 C 0.49143 0.76377 0.67359 0.0
N1206 N 0.40943 0.81317 0.741 0.0
N1207 N 0.46654 0.7662 0.69061 0.0
H1208 H 0.32674 0.45003 0.67461 0.0
H1209 H 0.28911 0.30785 0.7262 0.0
H1210 H 0.28365 0.41791 0.61693 0.0
H1211 H 0.29973 0.35808 0.79334 0.0
H1212 H 0.29148 0.34557 0.68498 0.0
H1213 H 0.32176 0.41421 0.71737 0.0
C1214 C 0.31633 0.43538 0.67089 0.0
C1215 C 0.30567 0.43694 0.64205 0.0
C1216 C 0.29321 0.34845 0.70873 0.0
C1217 C 0.3 0.39579 0.69092 0.0
C1218 C 0.2919 0.32688 0.73233 0.0
C1219 C 0.29434 0.32972 0.76336 0.0
C1220 C 0.29749 0.37301 0.71596 0.0
C1221 C 0.29795 0.35489 0.7698 0.0
C1222 C 0.31331 0.41509 0.69539 0.0
C1223 C 0.29202 0.41761 0.63875 0.0
N1224 N 0.29967 0.37547 0.74629 0.0
N1225 N 0.28982 0.39772 0.66274 0.0
H1226 H 0.61425 0.24259 0.58397 0.0
H1227 H 0.62922 0.34586 0.69906 0.0
H1228 H 0.54534 0.32088 0.60205 0.0
H1229 H 0.6995 0.28072 0.65659 0.0
H1230 H 0.59741 0.33808 0.66535 0.0
H1231 H 0.64483 0.25695 0.61188 0.0
C1232 C 0.60552 0.26297 0.59379 0.0
C1233 C 0.57707 0.28045 0.59079 0.0
C1234 C 0.61985 0.32582 0.66321 0.0
C1235 C 0.61236 0.29714 0.62338 0.0
C1236 C 0.63804 0.33013 0.68253 0.0
C1237 C 0.66723 0.31395 0.68077 0.0
C1238 C 0.63085 0.30489 0.64228 0.0
C1239 C 0.67736 0.29405 0.65867 0.0
C1240 C 0.62313 0.27124 0.60969 0.0
C1241 C 0.56715 0.30678 0.60378 0.0
N1242 N 0.65925 0.28996 0.64065 0.0
N1243 N 0.58471 0.3142 0.6199 0.0
H1244 H 0.87166 0.46484 0.58981 0.0
H1245 H 0.84311 0.44649 0.41841 0.0
H1246 H 0.86388 0.53001 0.51181 0.0
H1247 H 0.84719 0.38219 0.4966 0.0
H1248 H 0.85664 0.47471 0.45104 0.0
H1249 H 0.86959 0.43149 0.5548 0.0
C1250 C 0.87017 0.47198 0.56525 0.0
C1251 C 0.86773 0.50042 0.55384 0.0
C1252 C 0.85481 0.45432 0.46105 0.0
C1253 C 0.86487 0.46241 0.51364 0.0
C1254 C 0.84693 0.43823 0.44242 0.0
C1255 C 0.84369 0.41198 0.45476 0.0
C1256 C 0.85943 0.44428 0.49242 0.0
C1257 C 0.84954 0.40218 0.48595 0.0
C1258 C 0.86876 0.45296 0.54528 0.0
C1259 C 0.86563 0.5084 0.52176 0.0
N1260 N 0.85685 0.41842 0.50374 0.0
N1261 N 0.86396 0.48965 0.50292 0.0
H1262 H 0.7092 0.78563 0.53763 0.0
H1263 H 0.73634 0.78648 0.3556 0.0
H1264 H 0.63987 0.80209 0.48067 0.0
H1265 H 0.78047 0.82344 0.40639 0.0
H1266 H 0.70385 0.78517 0.40165 0.0
H1267 H 0.7391 0.79219 0.49073 0.0
C1268 C 0.70031 0.79056 0.51523 0.0
C1269 C 0.67198 0.7933 0.51307 0.0
C1270 C 0.72045 0.79384 0.40261 0.0
C1271 C 0.70626 0.80038 0.45921 0.0
C1272 C 0.739 0.79461 0.37635 0.0
C1273 C 0.76095 0.80547 0.37697 0.0
C1274 C 0.72439 0.80303 0.43018 0.0
C1275 C 0.76357 0.81538 0.40469 0.0
C1276 C 0.71731 0.79448 0.48852 0.0
C1277 C 0.66151 0.79994 0.48339 0.0
N1278 N 0.74582 0.81352 0.43029 0.0
N1279 N 0.67872 0.80285 0.45763 0.0
H1280 H 0.28315 0.62762 0.50762 0.0
H1281 H 0.28357 0.71486 0.34086 0.0
H1282 H 0.32187 0.58401 0.42689 0.0
H1283 H 0.303 0.74508 0.42035 0.0
H1284 H 0.28514 0.66971 0.37273 0.0
H1285 H 0.27817 0.67417 0.47645 0.0
C1286 C 0.29036 0.62795 0.48329 0.0
C1287 C 0.30306 0.60206 0.46975 0.0
C1288 C 0.28878 0.68639 0.38319 0.0
C1289 C 0.29685 0.65489 0.434 0.0
C1290 C 0.28767 0.7122 0.36514 0.0
C1291 C 0.29308 0.73377 0.37803 0.0
C1292 C 0.29455 0.68244 0.41457 0.0
C1293 C 0.29872 0.72899 0.40953 0.0
C1294 C 0.28764 0.65437 0.46562 0.0
C1295 C 0.3122 0.60352 0.43816 0.0
N1296 N 0.29909 0.70394 0.42681 0.0
N1297 N 0.30868 0.62949 0.42126 0.0
H1298 H 0.43991 0.30942 0.49501 0.0
H1299 H 0.38238 0.28126 0.34226 0.0
H1300 H 0.49314 0.2581 0.42487 0.0
H1301 H 0.32802 0.31898 0.41991 0.0
H1302 H 0.42357 0.27946 0.36838 0.0
H1303 H 0.39906 0.32032 0.46388 0.0
C1304 C 0.44312 0.3009 0.47285 0.0
C1305 C 0.46997 0.28265 0.46269 0.0
C1306 C 0.4026 0.2883 0.37963 0.0
C1307 C 0.42335 0.29481 0.42703 0.0
C1308 C 0.37911 0.28937 0.36466 0.0
C1309 C 0.35181 0.29996 0.3791 0.0
C1310 C 0.39873 0.29807 0.40915 0.0
C1311 C 0.34876 0.31031 0.40811 0.0
C1312 C 0.41977 0.30693 0.45517 0.0
C1313 C 0.4728 0.27205 0.43382 0.0
N1314 N 0.37188 0.30899 0.42222 0.0
N1315 N 0.44985 0.27813 0.41717 0.0
H1316 H 0.60751 0.81993 0.71891 0.0
H1317 H 0.76392 0.81959 0.69823 0.0
H1318 H 0.64382 0.84817 0.63175 0.0
H1319 H 0.71671 0.83169 0.78692 0.0
H1320 H 0.72038 0.8274 0.67406 0.0
H1321 H 0.64681 0.82229 0.74516 0.0
C1322 C 0.62346 0.82713 0.70536 0.0
C1323 C 0.62238 0.83377 0.67302 0.0
C1324 C 0.71944 0.82849 0.69881 0.0
C1325 C 0.6677 0.83585 0.70286 0.0
C1326 C 0.74435 0.82389 0.7127 0.0
C1327 C 0.74407 0.82456 0.7448 0.0
C1328 C 0.69393 0.83331 0.71711 0.0
C1329 C 0.718 0.8304 0.76226 0.0
C1330 C 0.64587 0.82846 0.72039 0.0
C1331 C 0.64367 0.84293 0.65669 0.0
N1332 N 0.69396 0.83417 0.74826 0.0
N1333 N 0.66567 0.84321 0.67169 0.0
H1334 H 0.61776 0.27866 0.49149 0.0
H1335 H 0.74911 0.22824 0.36661 0.0
H1336 H 0.6387 0.20189 0.44559 0.0
H1337 H 0.72626 0.30624 0.41092 0.0
H1338 H 0.71035 0.2169 0.39716 0.0
H1339 H 0.65862 0.2879 0.46376 0.0
C1340 C 0.63083 0.26381 0.47541 0.0
C1341 C 0.62454 0.23959 0.47062 0.0
C1342 C 0.71388 0.23644 0.40029 0.0
C1343 C 0.6718 0.24989 0.43901 0.0
C1344 C 0.73607 0.24294 0.38287 0.0
C1345 C 0.74096 0.26832 0.38609 0.0
C1346 C 0.69637 0.25543 0.42111 0.0
C1347 C 0.7233 0.28647 0.40758 0.0
C1348 C 0.65433 0.26901 0.45973 0.0
C1349 C 0.64278 0.22073 0.4501 0.0
N1350 N 0.70176 0.27972 0.42417 0.0
N1351 N 0.6655 0.22635 0.43494 0.0
H1352 H 0.82616 0.68111 0.52302 0.0
H1353 H 0.86078 0.7196 0.34238 0.0
H1354 H 0.80523 0.64098 0.45261 0.0
H1355 H 0.84371 0.77945 0.4105 0.0
H1356 H 0.85008 0.68471 0.38312 0.0
H1357 H 0.84208 0.71205 0.48228 0.0
C1358 C 0.82499 0.67883 0.49895 0.0
C1359 C 0.81418 0.6587 0.49112 0.0
C1360 C 0.84884 0.70548 0.38902 0.0
C1361 C 0.83269 0.6936 0.44445 0.0
C1362 C 0.85487 0.72531 0.36586 0.0
C1363 C 0.85223 0.75268 0.37293 0.0
C1364 C 0.84103 0.71293 0.41949 0.0
C1365 C 0.8456 0.75872 0.40391 0.0
C1366 C 0.83402 0.69645 0.47575 0.0
C1367 C 0.81303 0.65658 0.45956 0.0
N1368 N 0.84012 0.73909 0.426 0.0
N1369 N 0.8223 0.67375 0.4373 0.0
H1370 H 0.50088 0.8698 0.5579 0.0
H1371 H 0.4597 0.84189 0.39697 0.0
H1372 H 0.55972 0.8221 0.48875 0.0
H1373 H 0.39873 0.87124 0.47346 0.0
H1374 H 0.49579 0.84842 0.42454 0.0
H1375 H 0.46313 0.88365 0.52169 0.0
C1376 C 0.506 0.86306 0.53476 0.0
C1377 C 0.53325 0.84463 0.52624 0.0
C1378 C 0.4744 0.85388 0.43512 0.0
C1379 C 0.49053 0.86005 0.48509 0.0
C1380 C 0.45367 0.85038 0.41924 0.0
C1381 C 0.42619 0.85554 0.43311 0.0
C1382 C 0.46773 0.86247 0.46519 0.0
C1383 C 0.41982 0.86631 0.4622 0.0
C1384 C 0.48447 0.87073 0.51424 0.0
C1385 C 0.53884 0.83613 0.49621 0.0
N1386 N 0.44053 0.86901 0.47749 0.0
N1387 N 0.51763 0.84368 0.47684 0.0
H1388 H 0.23527 0.46717 0.4975 0.0
H1389 H 0.29901 0.40218 0.33639 0.0
H1390 H 0.31533 0.46562 0.45068 0.0
H1391 H 0.24069 0.37114 0.39773 0.0
H1392 H 0.29531 0.43657 0.3724 0.0
H1393 H 0.22835 0.44173 0.45606 0.0
C1394 C 0.25115 0.4618 0.47838 0.0
C1395 C 0.27603 0.46821 0.47762 0.0
C1396 C 0.28302 0.42249 0.37783 0.0
C1397 C 0.26808 0.43988 0.43027 0.0
C1398 C 0.28501 0.40288 0.35718 0.0
C1399 C 0.27047 0.38335 0.36419 0.0
C1400 C 0.26635 0.42276 0.40584 0.0
C1401 C 0.25242 0.38565 0.39144 0.0
C1402 C 0.24726 0.44727 0.45488 0.0
C1403 C 0.29601 0.46077 0.45241 0.0
N1404 N 0.25112 0.40476 0.41152 0.0
N1405 N 0.29158 0.4471 0.42982 0.0
H1406 H 0.49174 0.25047 0.65481 0.0
H1407 H 0.36305 0.21648 0.75583 0.0
H1408 H 0.44682 0.20133 0.62413 0.0
H1409 H 0.39913 0.27762 0.7764 0.0
H1410 H 0.39769 0.20505 0.71122 0.0
H1411 H 0.46197 0.2551 0.7031 0.0
C1412 C 0.47562 0.24065 0.65816 0.0
C1413 C 0.47162 0.22581 0.63505 0.0
C1414 C 0.39811 0.22081 0.72567 0.0
C1415 C 0.4375 0.23078 0.69069 0.0
C1416 C 0.37844 0.22724 0.75122 0.0
C1417 C 0.37806 0.24818 0.76978 0.0
C1418 C 0.41763 0.23526 0.71883 0.0
C1419 C 0.39844 0.26152 0.76261 0.0
C1420 C 0.45868 0.24319 0.68586 0.0
C1421 C 0.4508 0.21289 0.6412 0.0
N1422 N 0.41728 0.2549 0.73771 0.0
N1423 N 0.4344 0.21584 0.66833 0.0
H1424 H 0.78385 0.48837 0.62204 0.0
H1425 H 0.83348 0.38978 0.77902 0.0
H1426 H 0.78601 0.52319 0.70626 0.0
H1427 H 0.7887 0.36548 0.71559 0.0
H1428 H 0.82481 0.43621 0.74749 0.0
H1429 H 0.7928 0.4406 0.65165 0.0
C1430 C 0.78589 0.48594 0.6468 0.0
C1431 C 0.78385 0.50971 0.66186 0.0
C1432 C 0.81709 0.42059 0.74038 0.0
C1433 C 0.79492 0.45539 0.69546 0.0
C1434 C 0.8223 0.39397 0.75814 0.0
C1435 C 0.81186 0.3737 0.74986 0.0
C1436 C 0.80177 0.42681 0.71385 0.0
C1437 C 0.7971 0.38052 0.72279 0.0
C1438 C 0.79103 0.45881 0.66361 0.0
C1439 C 0.78691 0.50553 0.69392 0.0
N1440 N 0.79256 0.40651 0.70565 0.0
N1441 N 0.79261 0.47882 0.7096 0.0
H1442 H 0.23609 0.55275 0.64205 0.0
H1443 H 0.2322 0.70765 0.67071 0.0
H1444 H 0.24295 0.61863 0.56995 0.0
H1445 H 0.2425 0.6364 0.74227 0.0
H1446 H 0.22032 0.6805 0.63545 0.0
H1447 H 0.22247 0.58816 0.67992 0.0
C1448 C 0.23342 0.57503 0.63405 0.0
C1449 C 0.24029 0.58305 0.60299 0.0
C1450 C 0.22464 0.671 0.65905 0.0
C1451 C 0.22586 0.62323 0.64598 0.0
C1452 C 0.23125 0.68659 0.67931 0.0
C1453 C 0.23889 0.67407 0.70937 0.0
C1454 C 0.22577 0.64265 0.66882 0.0
C1455 C 0.23744 0.6466 0.71905 0.0
C1456 C 0.22602 0.59513 0.65565 0.0
C1457 C 0.23744 0.61185 0.59374 0.0
N1458 N 0.23149 0.63162 0.6987 0.0
N1459 N 0.23082 0.63086 0.61523 0.0
loop_
_geom_bond_atom_site_label_1
_geom_bond_atom_site_label_2
_geom_bond_distance
_geom_bond_site_symmetry_2
_ccdc_geom_bond_type
Cu0 N1 1.999 . S
Cu0 O6 1.974 1_545 S
Cu0 N11 1.985 1_545 S
Cu0 O20 1.969 . S
N1 Cu0 1.999 . S
N1 C3 1.263 . S
N1 C5 1.389 . S
N2 C3 1.358 . S
N2 C4 1.400 . S
C3 N1 1.263 . S
C3 N2 1.358 . S
C3 H9 0.930 . S
C4 N2 1.400 . S
C4 C5 1.351 . S
C4 H21 0.930 . S
C5 N1 1.389 . S
C5 C4 1.351 . S
C5 H10 0.930 . S
O6 Cu0 1.974 1_565 S
O6 C16 1.282 . S
C7 O8 1.261 1_655 S
C7 O20 1.247 1_655 S
O8 C7 1.261 1_455 S
H9 C3 0.930 . S
H10 C5 0.930 . S
N11 Cu0 1.985 1_565 S
N11 C13 1.335 1_455 S
N11 C14 1.390 . S
N12 C13 1.345 . S
N12 C15 1.336 1_655 S
C13 N11 1.335 1_655 S
C13 N12 1.345 . S
C13 H18 0.930 . S
C14 N11 1.390 . S
C14 C15 1.346 . S
C14 H19 0.930 . S
C15 N12 1.336 1_455 S
C15 C14 1.346 . S
C15 H22 0.929 . S
C16 O6 1.282 . S
C16 O17 1.216 . S
O17 C16 1.216 . S
H18 C13 0.930 . S
H19 C14 0.930 . S
O20 Cu0 1.969 . S
O20 C7 1.247 1_455 S
H21 C4 0.930 . S
H22 C15 0.929 . S
Cu23 N24 2.036 . S
Cu23 O29 1.974 1_455 S
Cu23 N34 1.985 . S
Cu23 O43 1.959 . S
N24 Cu23 2.036 . S
N24 C26 1.221 1_455 S
N24 C28 1.390 1_545 S
N25 C26 1.358 . S
N25 C27 1.400 1_545 S
C26 N24 1.221 1_655 S
C26 N25 1.358 . S
C26 H32 0.930 . S
C27 N25 1.400 1_565 S
C27 C28 1.351 1_655 S
C27 H44 0.930 . S
C28 N24 1.390 1_565 S
C28 C27 1.351 1_455 S
C28 H33 0.930 . S
O29 Cu23 1.974 1_655 S
O29 C39 1.282 . S
C30 O31 1.261 . S
C30 O43 1.251 . S
O31 C30 1.261 . S
H32 C26 0.930 . S
H33 C28 0.930 . S
N34 Cu23 1.985 . S
N34 C36 1.335 . S
N34 C37 1.390 . S
N35 C36 1.345 . S
N35 C38 1.336 . S
C36 N34 1.335 . S
C36 N35 1.345 . S
C36 H41 0.930 . S
C37 N34 1.390 . S
C37 C38 1.346 . S
C37 H42 0.930 . S
C38 N35 1.336 . S
C38 C37 1.346 . S
C38 H45 0.929 . S
C39 O29 1.282 . S
C39 O40 1.216 . S
O40 C39 1.216 . S
H41 C36 0.930 . S
H42 C37 0.930 . S
O43 Cu23 1.959 . S
O43 C30 1.251 . S
H44 C27 0.930 . S
H45 C38 0.929 . S
Cu46 N47 1.999 . S
Cu46 O52 1.974 . S
Cu46 N57 1.985 . S
Cu46 O66 1.959 . S
N47 Cu46 1.999 . S
N47 C49 1.263 . S
N47 C51 1.389 . S
N48 C49 1.358 1_565 S
N48 C50 1.400 1_565 S
C49 N47 1.263 . S
C49 N48 1.358 1_545 S
C49 H55 0.930 . S
C50 N48 1.400 1_545 S
C50 C51 1.351 . S
C50 H67 0.930 1_554 S
C51 N47 1.389 . S
C51 C50 1.351 . S
C51 H56 0.930 . S
O52 Cu46 1.974 . S
O52 C62 1.282 . S
C53 O54 1.261 . S
C53 O66 1.251 . S
O54 C53 1.261 . S
H55 C49 0.930 . S
H56 C51 0.930 . S
N57 Cu46 1.985 . S
N57 C59 1.335 . S
N57 C60 1.390 . S
N58 C59 1.345 . S
N58 C61 1.336 . S
C59 N57 1.335 . S
C59 N58 1.345 . S
C59 H64 0.930 . S
C60 N57 1.390 . S
C60 C61 1.346 . S
C60 H65 0.930 . S
C61 N58 1.336 . S
C61 C60 1.346 . S
C61 H68 0.929 . S
C62 O52 1.282 . S
C62 O63 1.216 . S
O63 C62 1.216 . S
H64 C59 0.930 . S
H65 C60 0.930 . S
O66 Cu46 1.959 . S
O66 C53 1.251 . S
H67 C50 0.930 1_556 S
H68 C61 0.929 . S
Cu69 N70 1.999 . S
Cu69 O75 1.974 . S
Cu69 N80 1.985 . S
Cu69 O89 1.959 . S
N70 Cu69 1.999 . S
N70 C72 1.263 . S
N70 C74 1.389 . S
N71 C72 1.358 . S
N71 C73 1.400 1_554 S
C72 N70 1.263 . S
C72 N71 1.358 . S
C72 H78 0.930 . S
C73 N71 1.400 1_556 S
C73 C74 1.351 1_556 S
C73 H90 0.930 . S
C74 N70 1.389 . S
C74 C73 1.351 1_554 S
C74 H79 0.930 . S
O75 Cu69 1.974 . S
O75 C85 1.282 . S
C76 O77 1.261 . S
C76 O89 1.251 . S
O77 C76 1.261 . S
H78 C72 0.930 . S
H79 C74 0.930 . S
N80 Cu69 1.985 . S
N80 C82 1.335 1_455 S
N80 C83 1.390 . S
N81 C82 1.345 . S
N81 C84 1.336 1_655 S
C82 N80 1.335 1_655 S
C82 N81 1.345 . S
C82 H87 0.930 . S
C83 N80 1.390 . S
C83 C84 1.346 . S
C83 H88 0.930 . S
C84 N81 1.336 1_455 S
C84 C83 1.346 . S
C84 H91 0.929 . S
C85 O75 1.282 . S
C85 O86 1.216 . S
O86 C85 1.216 . S
H87 C82 0.930 . S
H88 C83 0.930 . S
O89 Cu69 1.959 . S
O89 C76 1.251 . S
H90 C73 0.930 . S
H91 C84 0.929 . S
Cu92 N93 1.999 1_554 S
Cu92 O98 1.974 . S
Cu92 N103 1.985 1_545 S
Cu92 O112 1.959 1_544 S
N93 Cu92 1.999 1_556 S
N93 C95 1.263 . S
N93 C97 1.389 . S
N94 C95 1.358 . S
N94 C96 1.400 . S
C95 N93 1.263 . S
C95 N94 1.358 . S
C95 H101 0.930 . S
C96 N94 1.400 . S
C96 C97 1.351 . S
C96 H113 0.930 . S
C97 N93 1.389 . S
C97 C96 1.351 . S
C97 H102 0.930 . S
O98 Cu92 1.974 . S
O98 C108 1.282 . S
C99 O100 1.261 . S
C99 O112 1.251 . S
O100 C99 1.261 . S
H101 C95 0.930 . S
H102 C97 0.930 . S
N103 Cu92 1.985 1_565 S
N103 C105 1.335 . S
N103 C106 1.390 . S
N104 C105 1.345 . S
N104 C107 1.336 . S
C105 N103 1.335 . S
C105 N104 1.345 . S
C105 H110 0.930 . S
C106 N103 1.390 . S
C106 C107 1.346 . S
C106 H111 0.930 . S
C107 N104 1.336 . S
C107 C106 1.346 . S
C107 H114 0.929 . S
C108 O98 1.282 . S
C108 O109 1.216 . S
O109 C108 1.216 . S
H110 C105 0.930 . S
H111 C106 0.930 . S
O112 Cu92 1.959 1_566 S
O112 C99 1.251 . S
H113 C96 0.930 . S
H114 C107 0.929 . S
Cu115 N116 1.999 1_454 S
Cu115 O121 1.974 1_455 S
Cu115 N126 1.985 . S
Cu115 O135 1.959 1_554 S
N116 Cu115 1.999 1_656 S
N116 C118 1.263 . S
N116 C120 1.389 . S
N117 C118 1.358 . S
N117 C119 1.400 . S
C118 N116 1.263 . S
C118 N117 1.358 . S
C118 H124 0.926 1_556 S
C119 N117 1.400 . S
C119 C120 1.351 . S
C119 H136 0.930 . S
C120 N116 1.389 . S
C120 C119 1.351 . S
C120 H125 0.929 1_655 S
O121 Cu115 1.974 1_655 S
O121 C131 1.282 . S
C122 O123 1.261 . S
C122 O135 1.251 . S
O123 C122 1.261 . S
H124 C118 0.926 1_554 S
H125 C120 0.929 1_455 S
N126 Cu115 1.985 . S
N126 C128 1.335 . S
N126 C129 1.390 . S
N127 C128 1.345 . S
N127 C130 1.336 . S
C128 N126 1.335 . S
C128 N127 1.345 . S
C128 H133 0.930 . S
C129 N126 1.390 . S
C129 C130 1.346 . S
C129 H134 0.930 . S
C130 N127 1.336 . S
C130 C129 1.346 . S
C130 H137 0.929 . S
C131 O121 1.282 . S
C131 O132 1.216 . S
O132 C131 1.216 . S
H133 C128 0.930 . S
H134 C129 0.930 . S
O135 Cu115 1.959 1_556 S
O135 C122 1.251 . S
H136 C119 0.930 . S
H137 C130 0.929 . S
Cu138 N139 1.999 . S
Cu138 O144 1.974 . S
Cu138 N149 1.985 . S
Cu138 O158 1.959 . S
N139 Cu138 1.999 . S
N139 C141 1.263 . S
N139 C143 1.389 . S
N140 C141 1.358 . S
N140 C142 1.400 . S
C141 N139 1.263 . S
C141 N140 1.358 . S
C141 H147 0.930 . S
C142 N140 1.400 . S
C142 C143 1.351 . S
C142 H159 0.930 . S
C143 N139 1.389 . S
C143 C142 1.351 . S
C143 H148 0.930 . S
O144 Cu138 1.974 . S
O144 C154 1.282 . S
C145 O146 1.261 . S
C145 O158 1.251 . S
O146 C145 1.261 . S
H147 C141 0.930 . S
H148 C143 0.930 . S
N149 Cu138 1.985 . S
N149 C151 1.335 . S
N149 C152 1.390 . S
N150 C151 1.345 . S
N150 C153 1.336 . S
C151 N149 1.335 . S
C151 N150 1.345 . S
C151 H156 0.930 . S
C152 N149 1.390 . S
C152 C153 1.346 . S
C152 H157 0.930 . S
C153 N150 1.336 . S
C153 C152 1.346 . S
C153 H160 0.929 . S
C154 O144 1.282 . S
C154 O155 1.216 . S
O155 C154 1.216 . S
H156 C151 0.930 . S
H157 C152 0.930 . S
O158 Cu138 1.959 . S
O158 C145 1.251 . S
H159 C142 0.930 . S
H160 C153 0.929 . S
Cu161 N162 1.999 . S
Cu161 O167 1.974 . S
Cu161 N172 1.985 . S
Cu161 O181 1.959 . S
N162 Cu161 1.999 . S
N162 C164 1.263 . S
N162 C166 1.389 . S
N163 C164 1.358 . S
N163 C165 1.400 . S
C164 N162 1.263 . S
C164 N163 1.358 . S
C164 H170 0.930 . S
C165 N163 1.400 . S
C165 C166 1.351 . S
C165 H182 0.930 . S
C166 N162 1.389 . S
C166 C165 1.351 . S
C166 H171 0.930 . S
O167 Cu161 1.974 . S
O167 C177 1.282 . S
C168 O169 1.261 . S
C168 O181 1.251 . S
O169 C168 1.261 . S
H170 C164 0.930 . S
H171 C166 0.930 . S
N172 Cu161 1.985 . S
N172 C174 1.335 . S
N172 C175 1.390 . S
N173 C174 1.345 . S
N173 C176 1.336 . S
C174 N172 1.335 . S
C174 N173 1.345 . S
C174 H179 0.930 . S
C175 N172 1.390 . S
C175 C176 1.346 . S
C175 H180 0.930 . S
C176 N173 1.336 . S
C176 C175 1.346 . S
C176 H183 0.929 . S
C177 O167 1.282 . S
C177 O178 1.216 . S
O178 C177 1.216 . S
H179 C174 0.930 . S
H180 C175 0.930 . S
O181 Cu161 1.959 . S
O181 C168 1.251 . S
H182 C165 0.930 . S
H183 C176 0.929 . S
Cu184 N185 1.999 . S
Cu184 O190 1.974 . S
Cu184 N195 1.985 . S
Cu184 O204 1.959 . S
N185 Cu184 1.999 . S
N185 C187 1.263 . S
N185 C189 1.389 . S
N186 C187 1.358 . S
N186 C188 1.400 . S
C187 N185 1.263 . S
C187 N186 1.358 . S
C187 H193 0.930 . S
C188 N186 1.400 . S
C188 C189 1.351 . S
C188 H205 0.930 . S
C189 N185 1.389 . S
C189 C188 1.351 . S
C189 H194 0.930 . S
O190 Cu184 1.974 . S
O190 C200 1.282 . S
C191 O192 1.261 . S
C191 O204 1.251 . S
O192 C191 1.261 . S
H193 C187 0.930 . S
H194 C189 0.930 . S
N195 Cu184 1.985 . S
N195 C197 1.335 . S
N195 C198 1.390 . S
N196 C197 1.345 . S
N196 C199 1.336 . S
C197 N195 1.335 . S
C197 N196 1.345 . S
C197 H202 0.930 . S
C198 N195 1.390 . S
C198 C199 1.346 . S
C198 H203 0.930 . S
C199 N196 1.336 . S
C199 C198 1.346 . S
C199 H206 0.929 . S
C200 O190 1.282 . S
C200 O201 1.216 . S
O201 C200 1.216 . S
H202 C197 0.930 . S
H203 C198 0.930 . S
O204 Cu184 1.959 . S
O204 C191 1.251 . S
H205 C188 0.930 . S
H206 C199 0.929 . S
Cu207 N208 1.999 . S
Cu207 O213 1.974 . S
Cu207 N218 1.985 . S
Cu207 O227 1.959 . S
N208 Cu207 1.999 . S
N208 C210 1.263 . S
N208 C212 1.389 . S
N209 C210 1.358 . S
N209 C211 1.400 . S
C210 N208 1.263 . S
C210 N209 1.358 . S
C210 H216 0.930 . S
C211 N209 1.400 . S
C211 C212 1.351 . S
C211 H228 0.930 . S
C212 N208 1.389 . S
C212 C211 1.351 . S
C212 H217 0.930 . S
O213 Cu207 1.974 . S
O213 C223 1.282 . S
C214 O215 1.261 . S
C214 O227 1.251 . S
O215 C214 1.261 . S
H216 C210 0.930 . S
H217 C212 0.930 . S
N218 Cu207 1.985 . S
N218 C220 1.335 . S
N218 C221 1.390 . S
N219 C220 1.345 . S
N219 C222 1.336 . S
C220 N218 1.335 . S
C220 N219 1.345 . S
C220 H225 0.930 . S
C221 N218 1.390 . S
C221 C222 1.346 . S
C221 H226 0.930 . S
C222 N219 1.336 . S
C222 C221 1.346 . S
C222 H229 0.929 . S
C223 O213 1.282 . S
C223 O224 1.216 . S
O224 C223 1.216 . S
H225 C220 0.930 . S
H226 C221 0.930 . S
O227 Cu207 1.959 . S
O227 C214 1.251 . S
H228 C211 0.930 . S
H229 C222 0.929 . S
Cu230 N231 1.999 . S
Cu230 O236 1.974 . S
Cu230 N241 1.985 . S
Cu230 O250 1.959 . S
N231 Cu230 1.999 . S
N231 C233 1.263 . S
N231 C235 1.389 . S
N232 C233 1.358 . S
N232 C234 1.400 . S
C233 N231 1.263 . S
C233 N232 1.358 . S
C233 H239 0.930 . S
C234 N232 1.400 . S
C234 C235 1.351 . S
C234 H251 0.930 . S
C235 N231 1.389 . S
C235 C234 1.351 . S
C235 H240 0.930 . S
O236 Cu230 1.974 . S
O236 C246 1.282 . S
C237 O238 1.261 . S
C237 O250 1.251 . S
O238 C237 1.261 . S
H239 C233 0.930 . S
H240 C235 0.930 . S
N241 Cu230 1.985 . S
N241 C243 1.335 . S
N241 C244 1.390 . S
N242 C243 1.345 . S
N242 C245 1.336 . S
C243 N241 1.335 . S
C243 N242 1.345 . S
C243 H248 0.930 . S
C244 N241 1.390 . S
C244 C245 1.346 . S
C244 H249 0.930 . S
C245 N242 1.336 . S
C245 C244 1.346 . S
C245 H252 0.929 . S
C246 O236 1.282 . S
C246 O247 1.216 . S
O247 C246 1.216 . S
H248 C243 0.930 . S
H249 C244 0.930 . S
O250 Cu230 1.959 . S
O250 C237 1.251 . S
H251 C234 0.930 . S
H252 C245 0.929 . S
Cu253 N254 1.999 . S
Cu253 O259 1.974 . S
Cu253 N264 1.985 . S
Cu253 O273 1.959 . S
N254 Cu253 1.999 . S
N254 C256 1.263 . S
N254 C258 1.389 . S
N255 C256 1.358 . S
N255 C257 1.400 . S
C256 N254 1.263 . S
C256 N255 1.358 . S
C256 H262 0.930 . S
C257 N255 1.400 . S
C257 C258 1.351 . S
C257 H274 0.930 . S
C258 N254 1.389 . S
C258 C257 1.351 . S
C258 H263 0.930 . S
O259 Cu253 1.974 . S
O259 C269 1.282 . S
C260 O261 1.261 . S
C260 O273 1.251 . S
O261 C260 1.261 . S
H262 C256 0.930 . S
H263 C258 0.930 . S
N264 Cu253 1.985 . S
N264 C266 1.335 . S
N264 C267 1.390 . S
N265 C266 1.345 . S
N265 C268 1.336 . S
C266 N264 1.335 . S
C266 N265 1.345 . S
C266 H271 0.930 . S
C267 N264 1.390 . S
C267 C268 1.346 . S
C267 H272 0.930 . S
C268 N265 1.336 . S
C268 C267 1.346 . S
C268 H275 0.929 . S
C269 O259 1.282 . S
C269 O270 1.216 . S
O270 C269 1.216 . S
H271 C266 0.930 . S
H272 C267 0.930 . S
O273 Cu253 1.959 . S
O273 C260 1.251 . S
H274 C257 0.930 . S
H275 C268 0.929 . S
La276 C278 2.928 . S
La276 O296 2.521 . S
La276 O297 2.628 . S
La276 O298 2.554 . S
La276 O299 2.757 . S
La276 O300 2.470 . S
La276 O305 2.482 . S
La276 O307 2.503 . S
La277 C287 2.928 . S
La277 O299 2.482 . S
La277 O301 2.503 . S
La277 O302 2.521 . S
La277 O303 2.628 . S
La277 O304 2.554 . S
La277 O305 2.757 . S
La277 O306 2.470 . S
C278 La276 2.928 . S
C278 C279 1.503 . S
C278 O296 1.261 . S
C278 O297 1.243 . S
C279 C278 1.503 . S
C279 C280 1.394 . S
C279 C284 1.373 . S
C280 C279 1.394 . S
C280 C281 1.380 . S
C280 H308 0.930 . S
C281 C280 1.380 . S
C281 C282 1.376 . S
C281 H309 0.930 . S
C282 C281 1.376 . S
C282 C283 1.370 . S
C283 C282 1.370 . S
C283 C284 1.396 . S
C283 H310 0.929 . S
C284 C279 1.373 . S
C284 C283 1.396 . S
C284 H311 0.929 . S
C285 O298 1.240 . S
C285 O299 1.289 . S
C286 O300 1.258 . S
C286 O301 1.256 . S
C287 La277 2.928 . S
C287 C288 1.503 . S
C287 O302 1.261 . S
C287 O303 1.243 . S
C288 C287 1.503 . S
C288 C289 1.394 . S
C288 C293 1.373 . S
C289 C288 1.394 . S
C289 C290 1.380 . S
C289 H312 0.930 . S
C290 C289 1.380 . S
C290 C291 1.376 . S
C290 H313 0.930 . S
C291 C290 1.376 . S
C291 C292 1.370 . S
C292 C291 1.370 . S
C292 C293 1.396 . S
C292 H314 0.929 . S
C293 C288 1.373 . S
C293 C292 1.396 . S
C293 H315 0.929 . S
C294 O304 1.240 . S
C294 O305 1.289 . S
C295 O306 1.258 . S
C295 O307 1.256 . S
O296 La276 2.521 . S
O296 C278 1.261 . S
O297 La276 2.628 . S
O297 C278 1.243 . S
O298 La276 2.554 . S
O298 C285 1.240 . S
O299 La276 2.757 . S
O299 La277 2.482 . S
O299 C285 1.289 . S
O300 La276 2.470 . S
O300 C286 1.258 . S
O301 La277 2.503 . S
O301 C286 1.256 . S
O302 La277 2.521 . S
O302 C287 1.261 . S
O303 La277 2.628 . S
O303 C287 1.243 . S
O304 La277 2.554 . S
O304 C294 1.240 . S
O305 La276 2.482 . S
O305 La277 2.757 . S
O305 C294 1.289 . S
O306 La277 2.470 . S
O306 C295 1.258 . S
O307 La276 2.503 . S
O307 C295 1.256 . S
H308 C280 0.930 . S
H309 C281 0.930 . S
H310 C283 0.929 . S
H311 C284 0.929 . S
H312 C289 0.930 . S
H313 C290 0.930 . S
H314 C292 0.929 . S
H315 C293 0.929 . S
La316 C318 2.928 . S
La316 O336 2.521 . S
La316 O337 2.628 . S
La316 O338 2.554 . S
La316 O339 2.757 . S
La316 O340 2.470 . S
La316 O345 2.482 . S
La316 O347 2.503 . S
La317 C327 2.928 . S
La317 O339 2.482 . S
La317 O341 2.503 . S
La317 O342 2.521 . S
La317 O343 2.628 . S
La317 O344 2.554 . S
La317 O345 2.757 . S
La317 O346 2.470 . S
C318 La316 2.928 . S
C318 C319 1.503 . S
C318 O336 1.261 . S
C318 O337 1.243 . S
C319 C318 1.503 . S
C319 C320 1.394 . S
C319 C324 1.373 . S
C320 C319 1.394 . S
C320 C321 1.380 . S
C320 H348 0.930 . S
C321 C320 1.380 . S
C321 C322 1.376 . S
C321 H349 0.930 . S
C322 C321 1.376 . S
C322 C323 1.370 . S
C323 C322 1.370 . S
C323 C324 1.396 . S
C323 H350 0.929 . S
C324 C319 1.373 . S
C324 C323 1.396 . S
C324 H351 0.929 . S
C325 O338 1.240 . S
C325 O339 1.289 . S
C326 O340 1.258 . S
C326 O341 1.256 . S
C327 La317 2.928 . S
C327 C328 1.503 . S
C327 O342 1.261 . S
C327 O343 1.243 . S
C328 C327 1.503 . S
C328 C329 1.394 . S
C328 C333 1.373 . S
C329 C328 1.394 . S
C329 C330 1.380 . S
C329 H352 0.930 . S
C330 C329 1.380 . S
C330 C331 1.376 . S
C330 H353 0.930 . S
C331 C330 1.376 . S
C331 C332 1.370 . S
C332 C331 1.370 . S
C332 C333 1.396 . S
C332 H354 0.929 . S
C333 C328 1.373 . S
C333 C332 1.396 . S
C333 H355 0.929 . S
C334 O344 1.240 . S
C334 O345 1.289 . S
C335 O346 1.258 . S
C335 O347 1.256 . S
O336 La316 2.521 . S
O336 C318 1.261 . S
O337 La316 2.628 . S
O337 C318 1.243 . S
O338 La316 2.554 . S
O338 C325 1.240 . S
O339 La316 2.757 . S
O339 La317 2.482 . S
O339 C325 1.289 . S
O340 La316 2.470 . S
O340 C326 1.258 . S
O341 La317 2.503 . S
O341 C326 1.256 . S
O342 La317 2.521 . S
O342 C327 1.261 . S
O343 La317 2.628 . S
O343 C327 1.243 . S
O344 La317 2.554 . S
O344 C334 1.240 . S
O345 La316 2.482 . S
O345 La317 2.757 . S
O345 C334 1.289 . S
O346 La317 2.470 . S
O346 C335 1.258 . S
O347 La316 2.503 . S
O347 C335 1.256 . S
H348 C320 0.930 . S
H349 C321 0.930 . S
H350 C323 0.929 . S
H351 C324 0.929 . S
H352 C329 0.930 . S
H353 C330 0.930 . S
H354 C332 0.929 . S
H355 C333 0.929 . S
La356 C358 2.928 . S
La356 O376 2.521 . S
La356 O377 2.628 . S
La356 O378 2.554 . S
La356 O379 2.757 . S
La356 O380 2.470 . S
La356 O385 2.482 . S
La356 O387 2.503 . S
La357 C367 2.928 . S
La357 O379 2.482 . S
La357 O381 2.503 . S
La357 O382 2.521 . S
La357 O383 2.628 . S
La357 O384 2.554 . S
La357 O385 2.757 . S
La357 O386 2.470 . S
C358 La356 2.928 . S
C358 C359 1.503 . S
C358 O376 1.261 . S
C358 O377 1.243 . S
C359 C358 1.503 . S
C359 C360 1.394 . S
C359 C364 1.373 . S
C360 C359 1.394 . S
C360 C361 1.380 . S
C360 H388 0.930 . S
C361 C360 1.380 . S
C361 C362 1.376 . S
C361 H389 0.930 . S
C362 C361 1.376 . S
C362 C363 1.370 . S
C363 C362 1.370 . S
C363 C364 1.396 . S
C363 H390 0.929 . S
C364 C359 1.373 . S
C364 C363 1.396 . S
C364 H391 0.929 . S
C365 O378 1.240 . S
C365 O379 1.289 . S
C366 O380 1.258 . S
C366 O381 1.256 . S
C367 La357 2.928 . S
C367 C368 1.503 . S
C367 O382 1.261 . S
C367 O383 1.243 . S
C368 C367 1.503 . S
C368 C369 1.394 . S
C368 C373 1.373 . S
C369 C368 1.394 . S
C369 C370 1.380 . S
C369 H392 0.930 . S
C370 C369 1.380 . S
C370 C371 1.376 . S
C370 H393 0.930 . S
C371 C370 1.376 . S
C371 C372 1.370 . S
C372 C371 1.370 . S
C372 C373 1.396 . S
C372 H394 0.929 . S
C373 C368 1.373 . S
C373 C372 1.396 . S
C373 H395 0.929 . S
C374 O384 1.240 . S
C374 O385 1.289 . S
C375 O386 1.258 . S
C375 O387 1.256 . S
O376 La356 2.521 . S
O376 C358 1.261 . S
O377 La356 2.628 . S
O377 C358 1.243 . S
O378 La356 2.554 . S
O378 C365 1.240 . S
O379 La356 2.757 . S
O379 La357 2.482 . S
O379 C365 1.289 . S
O380 La356 2.470 . S
O380 C366 1.258 . S
O381 La357 2.503 . S
O381 C366 1.256 . S
O382 La357 2.521 . S
O382 C367 1.261 . S
O383 La357 2.628 . S
O383 C367 1.243 . S
O384 La357 2.554 . S
O384 C374 1.240 . S
O385 La356 2.482 . S
O385 La357 2.757 . S
O385 C374 1.289 . S
O386 La357 2.470 . S
O386 C375 1.258 . S
O387 La356 2.503 . S
O387 C375 1.256 . S
H388 C360 0.930 . S
H389 C361 0.930 . S
H390 C363 0.929 . S
H391 C364 0.929 . S
H392 C369 0.930 . S
H393 C370 0.930 . S
H394 C372 0.929 . S
H395 C373 0.929 . S
La396 C398 2.928 . S
La396 O416 2.521 . S
La396 O417 2.628 . S
La396 O418 2.554 . S
La396 O419 2.757 . S
La396 O420 2.470 . S
La396 O425 2.482 . S
La396 O427 2.503 . S
La397 C407 2.928 . S
La397 O419 2.482 . S
La397 O421 2.503 . S
La397 O422 2.521 . S
La397 O423 2.628 . S
La397 O424 2.554 . S
La397 O425 2.757 . S
La397 O426 2.470 . S
C398 La396 2.928 . S
C398 C399 1.503 . S
C398 O416 1.261 . S
C398 O417 1.243 . S
C399 C398 1.503 . S
C399 C400 1.394 . S
C399 C404 1.373 . S
C400 C399 1.394 . S
C400 C401 1.380 . S
C400 H428 0.930 . S
C401 C400 1.380 . S
C401 C402 1.376 . S
C401 H429 0.930 . S
C402 C401 1.376 . S
C402 C403 1.370 . S
C403 C402 1.370 . S
C403 C404 1.396 . S
C403 H430 0.929 . S
C404 C399 1.373 . S
C404 C403 1.396 . S
C404 H431 0.929 . S
C405 O418 1.240 . S
C405 O419 1.289 . S
C406 O420 1.258 . S
C406 O421 1.256 . S
C407 La397 2.928 . S
C407 C408 1.503 . S
C407 O422 1.261 . S
C407 O423 1.243 . S
C408 C407 1.503 . S
C408 C409 1.394 . S
C408 C413 1.373 . S
C409 C408 1.394 . S
C409 C410 1.380 . S
C409 H432 0.930 . S
C410 C409 1.380 . S
C410 C411 1.376 . S
C410 H433 0.930 . S
C411 C410 1.376 . S
C411 C412 1.370 . S
C412 C411 1.370 . S
C412 C413 1.396 . S
C412 H434 0.929 . S
C413 C408 1.373 . S
C413 C412 1.396 . S
C413 H435 0.929 . S
C414 O424 1.240 . S
C414 O425 1.289 . S
C415 O426 1.258 . S
C415 O427 1.256 . S
O416 La396 2.521 . S
O416 C398 1.261 . S
O417 La396 2.628 . S
O417 C398 1.243 . S
O418 La396 2.554 . S
O418 C405 1.240 . S
O419 La396 2.757 . S
O419 La397 2.482 . S
O419 C405 1.289 . S
O420 La396 2.470 . S
O420 C406 1.258 . S
O421 La397 2.503 . S
O421 C406 1.256 . S
O422 La397 2.521 . S
O422 C407 1.261 . S
O423 La397 2.628 . S
O423 C407 1.243 . S
O424 La397 2.554 . S
O424 C414 1.240 . S
O425 La396 2.482 . S
O425 La397 2.757 . S
O425 C414 1.289 . S
O426 La397 2.470 . S
O426 C415 1.258 . S
O427 La396 2.503 . S
O427 C415 1.256 . S
H428 C400 0.930 . S
H429 C401 0.930 . S
H430 C403 0.929 . S
H431 C404 0.929 . S
H432 C409 0.930 . S
H433 C410 0.930 . S
H434 C412 0.929 . S
H435 C413 0.929 . S
La436 C438 2.928 . S
La436 O456 2.521 . S
La436 O457 2.628 . S
La436 O458 2.554 . S
La436 O459 2.757 . S
La436 O460 2.470 . S
La436 O465 2.482 . S
La436 O467 2.503 . S
La437 C447 2.928 . S
La437 O459 2.482 . S
La437 O461 2.503 . S
La437 O462 2.521 . S
La437 O463 2.628 . S
La437 O464 2.554 . S
La437 O465 2.757 . S
La437 O466 2.470 . S
C438 La436 2.928 . S
C438 C439 1.503 . S
C438 O456 1.261 . S
C438 O457 1.243 . S
C439 C438 1.503 . S
C439 C440 1.394 . S
C439 C444 1.373 . S
C440 C439 1.394 . S
C440 C441 1.380 . S
C440 H468 0.930 . S
C441 C440 1.380 . S
C441 C442 1.376 . S
C441 H469 0.930 . S
C442 C441 1.376 . S
C442 C443 1.370 . S
C443 C442 1.370 . S
C443 C444 1.396 . S
C443 H470 0.929 . S
C444 C439 1.373 . S
C444 C443 1.396 . S
C444 H471 0.929 . S
C445 O458 1.240 . S
C445 O459 1.289 . S
C446 O460 1.258 . S
C446 O461 1.256 . S
C447 La437 2.928 . S
C447 C448 1.503 . S
C447 O462 1.261 . S
C447 O463 1.243 . S
C448 C447 1.503 . S
C448 C449 1.394 . S
C448 C453 1.373 . S
C449 C448 1.394 . S
C449 C450 1.380 . S
C449 H472 0.930 . S
C450 C449 1.380 . S
C450 C451 1.376 . S
C450 H473 0.930 . S
C451 C450 1.376 . S
C451 C452 1.370 . S
C452 C451 1.370 . S
C452 C453 1.396 . S
C452 H474 0.929 . S
C453 C448 1.373 . S
C453 C452 1.396 . S
C453 H475 0.929 . S
C454 O464 1.240 . S
C454 O465 1.289 . S
C455 O466 1.258 . S
C455 O467 1.256 . S
O456 La436 2.521 . S
O456 C438 1.261 . S
O457 La436 2.628 . S
O457 C438 1.243 . S
O458 La436 2.554 . S
O458 C445 1.240 . S
O459 La436 2.757 . S
O459 La437 2.482 . S
O459 C445 1.289 . S
O460 La436 2.470 . S
O460 C446 1.258 . S
O461 La437 2.503 . S
O461 C446 1.256 . S
O462 La437 2.521 . S
O462 C447 1.261 . S
O463 La437 2.628 . S
O463 C447 1.243 . S
O464 La437 2.554 . S
O464 C454 1.240 . S
O465 La436 2.482 . S
O465 La437 2.757 . S
O465 C454 1.289 . S
O466 La437 2.470 . S
O466 C455 1.258 . S
O467 La436 2.503 . S
O467 C455 1.256 . S
H468 C440 0.930 . S
H469 C441 0.930 . S
H470 C443 0.929 . S
H471 C444 0.929 . S
H472 C449 0.930 . S
H473 C450 0.930 . S
H474 C452 0.929 . S
H475 C453 0.929 . S
La476 C478 2.928 . S
La476 O496 2.521 . S
La476 O497 2.628 . S
La476 O498 2.554 . S
La476 O499 2.757 . S
La476 O500 2.470 . S
La476 O505 2.482 . S
La476 O507 2.503 . S
La477 C487 2.928 . S
La477 O499 2.482 . S
La477 O501 2.503 . S
La477 O502 2.521 . S
La477 O503 2.628 . S
La477 O504 2.554 . S
La477 O505 2.757 . S
La477 O506 2.470 . S
C478 La476 2.928 . S
C478 C479 1.503 . S
C478 O496 1.261 . S
C478 O497 1.243 . S
C479 C478 1.503 . S
C479 C480 1.394 . S
C479 C484 1.373 . S
C480 C479 1.394 . S
C480 C481 1.380 . S
C480 H508 0.930 . S
C481 C480 1.380 . S
C481 C482 1.376 . S
C481 H509 0.930 . S
C482 C481 1.376 . S
C482 C483 1.370 . S
C483 C482 1.370 . S
C483 C484 1.396 . S
C483 H510 0.929 . S
C484 C479 1.373 . S
C484 C483 1.396 . S
C484 H511 0.929 . S
C485 O498 1.240 . S
C485 O499 1.289 . S
C486 O500 1.258 . S
C486 O501 1.256 . S
C487 La477 2.928 . S
C487 C488 1.503 . S
C487 O502 1.261 . S
C487 O503 1.243 . S
C488 C487 1.503 . S
C488 C489 1.394 . S
C488 C493 1.373 . S
C489 C488 1.394 . S
C489 C490 1.380 . S
C489 H512 0.930 . S
C490 C489 1.380 . S
C490 C491 1.376 . S
C490 H513 0.930 . S
C491 C490 1.376 . S
C491 C492 1.370 . S
C492 C491 1.370 . S
C492 C493 1.396 . S
C492 H514 0.929 . S
C493 C488 1.373 . S
C493 C492 1.396 . S
C493 H515 0.929 . S
C494 O504 1.240 . S
C494 O505 1.289 . S
C495 O506 1.258 . S
C495 O507 1.256 . S
O496 La476 2.521 . S
O496 C478 1.261 . S
O497 La476 2.628 . S
O497 C478 1.243 . S
O498 La476 2.554 . S
O498 C485 1.240 . S
O499 La476 2.757 . S
O499 La477 2.482 . S
O499 C485 1.289 . S
O500 La476 2.470 . S
O500 C486 1.258 . S
O501 La477 2.503 . S
O501 C486 1.256 . S
O502 La477 2.521 . S
O502 C487 1.261 . S
O503 La477 2.628 . S
O503 C487 1.243 . S
O504 La477 2.554 . S
O504 C494 1.240 . S
O505 La476 2.482 . S
O505 La477 2.757 . S
O505 C494 1.289 . S
O506 La477 2.470 . S
O506 C495 1.258 . S
O507 La476 2.503 . S
O507 C495 1.256 . S
H508 C480 0.930 . S
H509 C481 0.930 . S
H510 C483 0.929 . S
H511 C484 0.929 . S
H512 C489 0.930 . S
H513 C490 0.930 . S
H514 C492 0.929 . S
H515 C493 0.929 . S
La516 C518 2.928 . S
La516 O536 2.521 . S
La516 O537 2.628 . S
La516 O538 2.554 . S
La516 O539 2.757 . S
La516 O540 2.470 . S
La516 O545 2.482 . S
La516 O547 2.503 . S
La517 C527 2.928 . S
La517 O539 2.482 . S
La517 O541 2.503 . S
La517 O542 2.521 . S
La517 O543 2.628 . S
La517 O544 2.554 . S
La517 O545 2.757 . S
La517 O546 2.470 . S
C518 La516 2.928 . S
C518 C519 1.503 . S
C518 O536 1.261 . S
C518 O537 1.243 . S
C519 C518 1.503 . S
C519 C520 1.394 . S
C519 C524 1.373 . S
C520 C519 1.394 . S
C520 C521 1.380 . S
C520 H548 0.930 . S
C521 C520 1.380 . S
C521 C522 1.376 . S
C521 H549 0.930 . S
C522 C521 1.376 . S
C522 C523 1.370 . S
C523 C522 1.370 . S
C523 C524 1.396 . S
C523 H550 0.929 . S
C524 C519 1.373 . S
C524 C523 1.396 . S
C524 H551 0.929 . S
C525 O538 1.240 . S
C525 O539 1.289 . S
C526 O540 1.258 . S
C526 O541 1.256 . S
C527 La517 2.928 . S
C527 C528 1.503 . S
C527 O542 1.261 . S
C527 O543 1.243 . S
C528 C527 1.503 . S
C528 C529 1.394 . S
C528 C533 1.373 . S
C529 C528 1.394 . S
C529 C530 1.380 . S
C529 H552 0.930 . S
C530 C529 1.380 . S
C530 C531 1.376 . S
C530 H553 0.930 . S
C531 C530 1.376 . S
C531 C532 1.370 . S
C532 C531 1.370 . S
C532 C533 1.396 . S
C532 H554 0.929 . S
C533 C528 1.373 . S
C533 C532 1.396 . S
C533 H555 0.929 . S
C534 O544 1.240 . S
C534 O545 1.289 . S
C535 O546 1.258 . S
C535 O547 1.256 . S
O536 La516 2.521 . S
O536 C518 1.261 . S
O537 La516 2.628 . S
O537 C518 1.243 . S
O538 La516 2.554 . S
O538 C525 1.240 . S
O539 La516 2.757 . S
O539 La517 2.482 . S
O539 C525 1.289 . S
O540 La516 2.470 . S
O540 C526 1.258 . S
O541 La517 2.503 . S
O541 C526 1.256 . S
O542 La517 2.521 . S
O542 C527 1.261 . S
O543 La517 2.628 . S
O543 C527 1.243 . S
O544 La517 2.554 . S
O544 C534 1.240 . S
O545 La516 2.482 . S
O545 La517 2.757 . S
O545 C534 1.289 . S
O546 La517 2.470 . S
O546 C535 1.258 . S
O547 La516 2.503 . S
O547 C535 1.256 . S
H548 C520 0.930 . S
H549 C521 0.930 . S
H550 C523 0.929 . S
H551 C524 0.929 . S
H552 C529 0.930 . S
H553 C530 0.930 . S
H554 C532 0.929 . S
H555 C533 0.929 . S
La556 C558 2.928 . S
La556 O576 2.521 . S
La556 O577 2.628 . S
La556 O578 2.554 . S
La556 O579 2.757 . S
La556 O580 2.470 . S
La556 O585 2.482 . S
La556 O587 2.503 . S
La557 C567 2.928 . S
La557 O579 2.482 . S
La557 O581 2.503 . S
La557 O582 2.521 . S
La557 O583 2.628 . S
La557 O584 2.554 . S
La557 O585 2.757 . S
La557 O586 2.470 . S
C558 La556 2.928 . S
C558 C559 1.503 . S
C558 O576 1.261 . S
C558 O577 1.243 . S
C559 C558 1.503 . S
C559 C560 1.394 . S
C559 C564 1.373 . S
C560 C559 1.394 . S
C560 C561 1.380 . S
C560 H588 0.930 . S
C561 C560 1.380 . S
C561 C562 1.376 . S
C561 H589 0.930 . S
C562 C561 1.376 . S
C562 C563 1.370 . S
C563 C562 1.370 . S
C563 C564 1.396 . S
C563 H590 0.929 . S
C564 C559 1.373 . S
C564 C563 1.396 . S
C564 H591 0.929 . S
C565 O578 1.240 . S
C565 O579 1.289 . S
C566 O580 1.258 . S
C566 O581 1.256 . S
C567 La557 2.928 . S
C567 C568 1.503 . S
C567 O582 1.261 . S
C567 O583 1.243 . S
C568 C567 1.503 . S
C568 C569 1.394 . S
C568 C573 1.373 . S
C569 C568 1.394 . S
C569 C570 1.380 . S
C569 H592 0.930 . S
C570 C569 1.380 . S
C570 C571 1.376 . S
C570 H593 0.930 . S
C571 C570 1.376 . S
C571 C572 1.370 . S
C572 C571 1.370 . S
C572 C573 1.396 . S
C572 H594 0.929 . S
C573 C568 1.373 . S
C573 C572 1.396 . S
C573 H595 0.929 . S
C574 O584 1.240 . S
C574 O585 1.289 . S
C575 O586 1.258 . S
C575 O587 1.256 . S
O576 La556 2.521 . S
O576 C558 1.261 . S
O577 La556 2.628 . S
O577 C558 1.243 . S
O578 La556 2.554 . S
O578 C565 1.240 . S
O579 La556 2.757 . S
O579 La557 2.482 . S
O579 C565 1.289 . S
O580 La556 2.470 . S
O580 C566 1.258 . S
O581 La557 2.503 . S
O581 C566 1.256 . S
O582 La557 2.521 . S
O582 C567 1.261 . S
O583 La557 2.628 . S
O583 C567 1.243 . S
O584 La557 2.554 . S
O584 C574 1.240 . S
O585 La556 2.482 . S
O585 La557 2.757 . S
O585 C574 1.289 . S
O586 La557 2.470 . S
O586 C575 1.258 . S
O587 La556 2.503 . S
O587 C575 1.256 . S
H588 C560 0.930 . S
H589 C561 0.930 . S
H590 C563 0.929 . S
H591 C564 0.929 . S
H592 C569 0.930 . S
H593 C570 0.930 . S
H594 C572 0.929 . S
H595 C573 0.929 . S
H596 C602 0.930 . S
H597 C606 0.930 . S
H598 C611 0.929 . S
H599 C609 0.929 . S
H600 C604 0.929 . S
H601 C610 0.929 . S
C602 H596 0.930 . S
C602 C603 1.367 . S
C602 C610 1.378 . S
C603 C602 1.367 . S
C603 C611 1.433 . S
C604 H600 0.929 . S
C604 C606 1.378 . S
C604 C608 1.350 . S
C605 C608 1.463 . S
C605 C610 1.350 . S
C605 N613 1.427 . S
C606 H597 0.930 . S
C606 C604 1.378 . S
C606 C607 1.367 . S
C607 C606 1.367 . S
C607 C609 1.433 . S
C608 C604 1.350 . S
C608 C605 1.463 . S
C608 N612 1.427 . S
C609 H599 0.929 . S
C609 C607 1.433 . S
C609 N612 1.384 . S
C610 H601 0.929 . S
C610 C602 1.378 . S
C610 C605 1.350 . S
C611 H598 0.929 . S
C611 C603 1.433 . S
C611 N613 1.384 . S
N612 C608 1.427 . S
N612 C609 1.384 . S
N613 C605 1.427 . S
N613 C611 1.384 . S
H614 C620 0.930 . S
H615 C624 0.930 . S
H616 C629 0.929 . S
H617 C627 0.929 . S
H618 C622 0.929 . S
H619 C628 0.929 . S
C620 H614 0.930 . S
C620 C621 1.367 . S
C620 C628 1.378 . S
C621 C620 1.367 . S
C621 C629 1.433 . S
C622 H618 0.929 . S
C622 C624 1.378 . S
C622 C626 1.350 . S
C623 C626 1.463 . S
C623 C628 1.350 . S
C623 N631 1.427 . S
C624 H615 0.930 . S
C624 C622 1.378 . S
C624 C625 1.367 . S
C625 C624 1.367 . S
C625 C627 1.433 . S
C626 C622 1.350 . S
C626 C623 1.463 . S
C626 N630 1.427 . S
C627 H617 0.929 . S
C627 C625 1.433 . S
C627 N630 1.384 . S
C628 H619 0.929 . S
C628 C620 1.378 . S
C628 C623 1.350 . S
C629 H616 0.929 . S
C629 C621 1.433 . S
C629 N631 1.384 . S
N630 C626 1.427 . S
N630 C627 1.384 . S
N631 C623 1.427 . S
N631 C629 1.384 . S
H632 C638 0.930 . S
H633 C642 0.930 . S
H634 C647 0.929 . S
H635 C645 0.929 . S
H636 C640 0.929 . S
H637 C646 0.929 . S
C638 H632 0.930 . S
C638 C639 1.367 . S
C638 C646 1.378 . S
C639 C638 1.367 . S
C639 C647 1.433 . S
C640 H636 0.929 . S
C640 C642 1.378 . S
C640 C644 1.350 . S
C641 C644 1.463 . S
C641 C646 1.350 . S
C641 N649 1.427 . S
C642 H633 0.930 . S
C642 C640 1.378 . S
C642 C643 1.367 . S
C643 C642 1.367 . S
C643 C645 1.433 . S
C644 C640 1.350 . S
C644 C641 1.463 . S
C644 N648 1.427 . S
C645 H635 0.929 . S
C645 C643 1.433 . S
C645 N648 1.384 . S
C646 H637 0.929 . S
C646 C638 1.378 . S
C646 C641 1.350 . S
C647 H634 0.929 . S
C647 C639 1.433 . S
C647 N649 1.384 . S
N648 C644 1.427 . S
N648 C645 1.384 . S
N649 C641 1.427 . S
N649 C647 1.384 . S
H650 C656 0.930 . S
H651 C660 0.930 . S
H652 C665 0.929 . S
H653 C663 0.929 . S
H654 C658 0.929 . S
H655 C664 0.929 . S
C656 H650 0.930 . S
C656 C657 1.367 . S
C656 C664 1.378 . S
C657 C656 1.367 . S
C657 C665 1.433 . S
C658 H654 0.929 . S
C658 C660 1.378 . S
C658 C662 1.350 . S
C659 C662 1.463 . S
C659 C664 1.350 . S
C659 N667 1.427 . S
C660 H651 0.930 . S
C660 C658 1.378 . S
C660 C661 1.367 . S
C661 C660 1.367 . S
C661 C663 1.433 . S
C662 C658 1.350 . S
C662 C659 1.463 . S
C662 N666 1.427 . S
C663 H653 0.929 . S
C663 C661 1.433 . S
C663 N666 1.384 . S
C664 H655 0.929 . S
C664 C656 1.378 . S
C664 C659 1.350 . S
C665 H652 0.929 . S
C665 C657 1.433 . S
C665 N667 1.384 . S
N666 C662 1.427 . S
N666 C663 1.384 . S
N667 C659 1.427 . S
N667 C665 1.384 . S
H668 C674 0.930 . S
H669 C678 0.930 . S
H670 C683 0.929 . S
H671 C681 0.929 . S
H672 C676 0.929 . S
H673 C682 0.929 . S
C674 H668 0.930 . S
C674 C675 1.367 . S
C674 C682 1.378 . S
C675 C674 1.367 . S
C675 C683 1.433 . S
C676 H672 0.929 . S
C676 C678 1.378 . S
C676 C680 1.350 . S
C677 C680 1.463 . S
C677 C682 1.350 . S
C677 N685 1.427 . S
C678 H669 0.930 . S
C678 C676 1.378 . S
C678 C679 1.367 . S
C679 C678 1.367 . S
C679 C681 1.433 . S
C680 C676 1.350 . S
C680 C677 1.463 . S
C680 N684 1.427 . S
C681 H671 0.929 . S
C681 C679 1.433 . S
C681 N684 1.384 . S
C682 H673 0.929 . S
C682 C674 1.378 . S
C682 C677 1.350 . S
C683 H670 0.929 . S
C683 C675 1.433 . S
C683 N685 1.384 . S
N684 C680 1.427 . S
N684 C681 1.384 . S
N685 C677 1.427 . S
N685 C683 1.384 . S
H686 C692 0.930 . S
H687 C696 0.930 . S
H688 C701 0.929 . S
H689 C699 0.929 . S
H690 C694 0.929 . S
H691 C700 0.929 . S
C692 H686 0.930 . S
C692 C693 1.367 . S
C692 C700 1.378 . S
C693 C692 1.367 . S
C693 C701 1.433 . S
C694 H690 0.929 . S
C694 C696 1.378 . S
C694 C698 1.350 . S
C695 C698 1.463 . S
C695 C700 1.350 . S
C695 N703 1.427 . S
C696 H687 0.930 . S
C696 C694 1.378 . S
C696 C697 1.367 . S
C697 C696 1.367 . S
C697 C699 1.433 . S
C698 C694 1.350 . S
C698 C695 1.463 . S
C698 N702 1.427 . S
C699 H689 0.929 . S
C699 C697 1.433 . S
C699 N702 1.384 . S
C700 H691 0.929 . S
C700 C692 1.378 . S
C700 C695 1.350 . S
C701 H688 0.929 . S
C701 C693 1.433 . S
C701 N703 1.384 . S
N702 C698 1.427 . S
N702 C699 1.384 . S
N703 C695 1.427 . S
N703 C701 1.384 . S
H704 C710 0.930 . S
H705 C714 0.930 . S
H706 C719 0.929 . S
H707 C717 0.929 . S
H708 C712 0.929 . S
H709 C718 0.929 . S
C710 H704 0.930 . S
C710 C711 1.367 . S
C710 C718 1.378 . S
C711 C710 1.367 . S
C711 C719 1.433 . S
C712 H708 0.929 . S
C712 C714 1.378 . S
C712 C716 1.350 . S
C713 C716 1.463 . S
C713 C718 1.350 . S
C713 N721 1.427 . S
C714 H705 0.930 . S
C714 C712 1.378 . S
C714 C715 1.367 . S
C715 C714 1.367 . S
C715 C717 1.433 . S
C716 C712 1.350 . S
C716 C713 1.463 . S
C716 N720 1.427 . S
C717 H707 0.929 . S
C717 C715 1.433 . S
C717 N720 1.384 . S
C718 H709 0.929 . S
C718 C710 1.378 . S
C718 C713 1.350 . S
C719 H706 0.929 . S
C719 C711 1.433 . S
C719 N721 1.384 . S
N720 C716 1.427 . S
N720 C717 1.384 . S
N721 C713 1.427 . S
N721 C719 1.384 . S
H722 C728 0.930 . S
H723 C732 0.930 . S
H724 C737 0.929 . S
H725 C735 0.929 . S
H726 C730 0.929 . S
H727 C736 0.929 . S
C728 H722 0.930 . S
C728 C729 1.367 1_545 S
C728 C736 1.378 1_545 S
C729 C728 1.367 1_565 S
C729 C737 1.433 . S
C730 H726 0.929 . S
C730 C732 1.378 . S
C730 C734 1.350 . S
C731 C734 1.463 . S
C731 C736 1.350 . S
C731 N739 1.427 . S
C732 H723 0.930 . S
C732 C730 1.378 . S
C732 C733 1.367 . S
C733 C732 1.367 . S
C733 C735 1.433 . S
C734 C730 1.350 . S
C734 C731 1.463 . S
C734 N738 1.427 . S
C735 H725 0.929 . S
C735 C733 1.433 . S
C735 N738 1.384 . S
C736 H727 0.929 . S
C736 C728 1.378 1_565 S
C736 C731 1.350 . S
C737 H724 0.929 . S
C737 C729 1.433 . S
C737 N739 1.384 . S
N738 C734 1.427 . S
N738 C735 1.384 . S
N739 C731 1.427 . S
N739 C737 1.384 . S
H740 C746 0.930 . S
H741 C750 0.930 . S
H742 C755 0.929 . S
H743 C753 0.929 . S
H744 C748 0.929 . S
H745 C754 0.929 . S
C746 H740 0.930 . S
C746 C747 1.367 . S
C746 C754 1.378 . S
C747 C746 1.367 . S
C747 C755 1.433 . S
C748 H744 0.929 . S
C748 C750 1.378 . S
C748 C752 1.350 . S
C749 C752 1.463 . S
C749 C754 1.350 . S
C749 N757 1.427 . S
C750 H741 0.930 . S
C750 C748 1.378 . S
C750 C751 1.367 . S
C751 C750 1.367 . S
C751 C753 1.433 . S
C752 C748 1.350 . S
C752 C749 1.463 . S
C752 N756 1.427 . S
C753 H743 0.929 . S
C753 C751 1.433 . S
C753 N756 1.384 . S
C754 H745 0.929 . S
C754 C746 1.378 . S
C754 C749 1.350 . S
C755 H742 0.929 . S
C755 C747 1.433 . S
C755 N757 1.384 . S
N756 C752 1.427 . S
N756 C753 1.384 . S
N757 C749 1.427 . S
N757 C755 1.384 . S
H758 C764 0.930 . S
H759 C768 0.930 . S
H760 C773 0.929 . S
H761 C771 0.929 . S
H762 C766 0.929 . S
H763 C772 0.929 . S
C764 H758 0.930 . S
C764 C765 1.367 . S
C764 C772 1.378 . S
C765 C764 1.367 . S
C765 C773 1.433 . S
C766 H762 0.929 . S
C766 C768 1.378 . S
C766 C770 1.350 . S
C767 C770 1.463 . S
C767 C772 1.350 . S
C767 N775 1.427 . S
C768 H759 0.930 . S
C768 C766 1.378 . S
C768 C769 1.367 . S
C769 C768 1.367 . S
C769 C771 1.433 . S
C770 C766 1.350 . S
C770 C767 1.463 . S
C770 N774 1.427 . S
C771 H761 0.929 . S
C771 C769 1.433 . S
C771 N774 1.384 . S
C772 H763 0.929 . S
C772 C764 1.378 . S
C772 C767 1.350 . S
C773 H760 0.929 . S
C773 C765 1.433 . S
C773 N775 1.384 . S
N774 C770 1.427 . S
N774 C771 1.384 . S
N775 C767 1.427 . S
N775 C773 1.384 . S
H776 C782 0.930 . S
H777 C786 0.930 . S
H778 C791 0.929 . S
H779 C789 0.929 . S
H780 C784 0.929 . S
H781 C790 0.929 . S
C782 H776 0.930 . S
C782 C783 1.367 . S
C782 C790 1.378 . S
C783 C782 1.367 . S
C783 C791 1.433 . S
C784 H780 0.929 . S
C784 C786 1.378 . S
C784 C788 1.350 . S
C785 C788 1.463 . S
C785 C790 1.350 . S
C785 N793 1.427 . S
C786 H777 0.930 . S
C786 C784 1.378 . S
C786 C787 1.367 . S
C787 C786 1.367 . S
C787 C789 1.433 . S
C788 C784 1.350 . S
C788 C785 1.463 . S
C788 N792 1.427 . S
C789 H779 0.929 . S
C789 C787 1.433 . S
C789 N792 1.384 . S
C790 H781 0.929 . S
C790 C782 1.378 . S
C790 C785 1.350 . S
C791 H778 0.929 . S
C791 C783 1.433 . S
C791 N793 1.384 . S
N792 C788 1.427 . S
N792 C789 1.384 . S
N793 C785 1.427 . S
N793 C791 1.384 . S
H794 C800 0.930 . S
H795 C804 0.930 . S
H796 C809 0.929 . S
H797 C807 0.929 . S
H798 C802 0.929 . S
H799 C808 0.929 . S
C800 H794 0.930 . S
C800 C801 1.367 . S
C800 C808 1.378 . S
C801 C800 1.367 . S
C801 C809 1.433 . S
C802 H798 0.929 . S
C802 C804 1.378 . S
C802 C806 1.350 . S
C803 C806 1.463 . S
C803 C808 1.350 . S
C803 N811 1.427 . S
C804 H795 0.930 . S
C804 C802 1.378 . S
C804 C805 1.367 . S
C805 C804 1.367 . S
C805 C807 1.433 . S
C806 C802 1.350 . S
C806 C803 1.463 . S
C806 N810 1.427 . S
C807 H797 0.929 . S
C807 C805 1.433 . S
C807 N810 1.384 . S
C808 H799 0.929 . S
C808 C800 1.378 . S
C808 C803 1.350 . S
C809 H796 0.929 . S
C809 C801 1.433 . S
C809 N811 1.384 . S
N810 C806 1.427 . S
N810 C807 1.384 . S
N811 C803 1.427 . S
N811 C809 1.384 . S
H812 C818 0.930 . S
H813 C822 0.930 . S
H814 C827 0.929 1_545 S
H815 C825 0.929 . S
H816 C820 0.929 . S
H817 C826 0.929 1_556 S
C818 H812 0.930 . S
C818 C819 1.367 . S
C818 C826 1.378 . S
C819 C818 1.367 . S
C819 C827 1.433 . S
C820 H816 0.929 . S
C820 C822 1.378 . S
C820 C824 1.350 . S
C821 C824 1.463 1_554 S
C821 C826 1.350 . S
C821 N829 1.427 . S
C822 H813 0.930 . S
C822 C820 1.378 . S
C822 C823 1.367 . S
C823 C822 1.367 . S
C823 C825 1.433 . S
C824 C820 1.350 . S
C824 C821 1.463 1_556 S
C824 N828 1.427 . S
C825 H815 0.929 . S
C825 C823 1.433 . S
C825 N828 1.384 . S
C826 H817 0.929 1_554 S
C826 C818 1.378 . S
C826 C821 1.350 . S
C827 H814 0.929 1_565 S
C827 C819 1.433 . S
C827 N829 1.384 . S
N828 C824 1.427 . S
N828 C825 1.384 . S
N829 C821 1.427 . S
N829 C827 1.384 . S
H830 C836 0.930 . S
H831 C840 0.930 . S
H832 C845 0.929 . S
H833 C843 0.929 . S
H834 C838 0.929 . S
H835 C844 0.929 . S
C836 H830 0.930 . S
C836 C837 1.367 . S
C836 C844 1.378 . S
C837 C836 1.367 . S
C837 C845 1.433 . S
C838 H834 0.929 . S
C838 C840 1.378 . S
C838 C842 1.350 . S
C839 C842 1.463 . S
C839 C844 1.350 . S
C839 N847 1.427 . S
C840 H831 0.930 . S
C840 C838 1.378 . S
C840 C841 1.367 . S
C841 C840 1.367 . S
C841 C843 1.433 . S
C842 C838 1.350 . S
C842 C839 1.463 . S
C842 N846 1.427 . S
C843 H833 0.929 . S
C843 C841 1.433 . S
C843 N846 1.384 . S
C844 H835 0.929 . S
C844 C836 1.378 . S
C844 C839 1.350 . S
C845 H832 0.929 . S
C845 C837 1.433 . S
C845 N847 1.384 . S
N846 C842 1.427 . S
N846 C843 1.384 . S
N847 C839 1.427 . S
N847 C845 1.384 . S
H848 C854 0.930 . S
H849 C858 0.930 . S
H850 C863 0.929 . S
H851 C861 0.929 . S
H852 C856 0.929 . S
H853 C862 0.929 . S
C854 H848 0.930 . S
C854 C855 1.367 . S
C854 C862 1.378 . S
C855 C854 1.367 . S
C855 C863 1.433 . S
C856 H852 0.929 . S
C856 C858 1.378 . S
C856 C860 1.350 . S
C857 C860 1.463 . S
C857 C862 1.350 . S
C857 N865 1.427 . S
C858 H849 0.930 . S
C858 C856 1.378 . S
C858 C859 1.367 . S
C859 C858 1.367 . S
C859 C861 1.433 . S
C860 C856 1.350 . S
C860 C857 1.463 . S
C860 N864 1.427 . S
C861 H851 0.929 . S
C861 C859 1.433 . S
C861 N864 1.384 . S
C862 H853 0.929 . S
C862 C854 1.378 . S
C862 C857 1.350 . S
C863 H850 0.929 . S
C863 C855 1.433 . S
C863 N865 1.384 . S
N864 C860 1.427 . S
N864 C861 1.384 . S
N865 C857 1.427 . S
N865 C863 1.384 . S
H866 C872 0.930 . S
H867 C876 0.930 . S
H868 C881 0.929 . S
H869 C879 0.929 . S
H870 C874 0.929 . S
H871 C880 0.929 . S
C872 H866 0.930 . S
C872 C873 1.367 . S
C872 C880 1.378 . S
C873 C872 1.367 . S
C873 C881 1.433 . S
C874 H870 0.929 . S
C874 C876 1.378 . S
C874 C878 1.350 . S
C875 C878 1.463 . S
C875 C880 1.350 . S
C875 N883 1.427 . S
C876 H867 0.930 . S
C876 C874 1.378 . S
C876 C877 1.367 . S
C877 C876 1.367 . S
C877 C879 1.433 . S
C878 C874 1.350 . S
C878 C875 1.463 . S
C878 N882 1.427 . S
C879 H869 0.929 . S
C879 C877 1.433 . S
C879 N882 1.384 . S
C880 H871 0.929 . S
C880 C872 1.378 . S
C880 C875 1.350 . S
C881 H868 0.929 . S
C881 C873 1.433 . S
C881 N883 1.384 . S
N882 C878 1.427 . S
N882 C879 1.384 . S
N883 C875 1.427 . S
N883 C881 1.384 . S
H884 C890 0.930 . S
H885 C894 0.930 . S
H886 C899 0.929 . S
H887 C897 0.929 . S
H888 C892 0.929 . S
H889 C898 0.929 . S
C890 H884 0.930 . S
C890 C891 1.367 . S
C890 C898 1.378 . S
C891 C890 1.367 . S
C891 C899 1.433 . S
C892 H888 0.929 . S
C892 C894 1.378 . S
C892 C896 1.350 . S
C893 C896 1.463 . S
C893 C898 1.350 . S
C893 N901 1.427 . S
C894 H885 0.930 . S
C894 C892 1.378 . S
C894 C895 1.367 . S
C895 C894 1.367 . S
C895 C897 1.433 . S
C896 C892 1.350 . S
C896 C893 1.463 . S
C896 N900 1.427 . S
C897 H887 0.929 . S
C897 C895 1.433 . S
C897 N900 1.384 . S
C898 H889 0.929 . S
C898 C890 1.378 . S
C898 C893 1.350 . S
C899 H886 0.929 . S
C899 C891 1.433 . S
C899 N901 1.384 . S
N900 C896 1.427 . S
N900 C897 1.384 . S
N901 C893 1.427 . S
N901 C899 1.384 . S
H902 C908 0.930 . S
H903 C912 0.930 . S
H904 C917 0.929 . S
H905 C915 0.929 . S
H906 C910 0.929 . S
H907 C916 0.929 . S
C908 H902 0.930 . S
C908 C909 1.367 . S
C908 C916 1.378 . S
C909 C908 1.367 . S
C909 C917 1.433 . S
C910 H906 0.929 . S
C910 C912 1.378 . S
C910 C914 1.350 . S
C911 C914 1.463 . S
C911 C916 1.350 . S
C911 N919 1.427 . S
C912 H903 0.930 . S
C912 C910 1.378 . S
C912 C913 1.367 . S
C913 C912 1.367 . S
C913 C915 1.433 . S
C914 C910 1.350 . S
C914 C911 1.463 . S
C914 N918 1.427 . S
C915 H905 0.929 . S
C915 C913 1.433 . S
C915 N918 1.384 . S
C916 H907 0.929 . S
C916 C908 1.378 . S
C916 C911 1.350 . S
C917 H904 0.929 . S
C917 C909 1.433 . S
C917 N919 1.384 . S
N918 C914 1.427 . S
N918 C915 1.384 . S
N919 C911 1.427 . S
N919 C917 1.384 . S
H920 C926 0.930 . S
H921 C930 0.930 . S
H922 C935 0.929 . S
H923 C933 0.929 . S
H924 C928 0.929 . S
H925 C934 0.929 . S
C926 H920 0.930 . S
C926 C927 1.367 . S
C926 C934 1.378 1_554 S
C927 C926 1.367 . S
C927 C935 1.433 1_554 S
C928 H924 0.929 . S
C928 C930 1.378 . S
C928 C932 1.350 . S
C929 C932 1.463 . S
C929 C934 1.350 . S
C929 N937 1.427 . S
C930 H921 0.930 . S
C930 C928 1.378 . S
C930 C931 1.367 . S
C931 C930 1.367 . S
C931 C933 1.433 . S
C932 C928 1.350 . S
C932 C929 1.463 . S
C932 N936 1.427 . S
C933 H923 0.929 . S
C933 C931 1.433 . S
C933 N936 1.384 . S
C934 H925 0.929 . S
C934 C926 1.378 1_556 S
C934 C929 1.350 . S
C935 H922 0.929 . S
C935 C927 1.433 1_556 S
C935 N937 1.384 . S
N936 C932 1.427 . S
N936 C933 1.384 . S
N937 C929 1.427 . S
N937 C935 1.384 . S
H938 C944 0.930 . S
H939 C948 0.930 . S
H940 C953 0.929 1_455 S
H941 C951 0.929 . S
H942 C946 0.929 . S
H943 C952 0.929 . S
C944 H938 0.930 . S
C944 C945 1.367 . S
C944 C952 1.378 . S
C945 C944 1.367 . S
C945 C953 1.433 1_554 S
C946 H942 0.929 . S
C946 C948 1.378 . S
C946 C950 1.350 . S
C947 C950 1.463 . S
C947 C952 1.350 1_556 S
C947 N955 1.427 . S
C948 H939 0.930 . S
C948 C946 1.378 . S
C948 C949 1.367 . S
C949 C948 1.367 . S
C949 C951 1.433 . S
C950 C946 1.350 . S
C950 C947 1.463 . S
C950 N954 1.428 . S
C951 H941 0.929 . S
C951 C949 1.433 . S
C951 N954 1.384 . S
C952 H943 0.929 . S
C952 C944 1.378 . S
C952 C947 1.350 1_554 S
C953 H940 0.929 1_655 S
C953 C945 1.433 1_556 S
C953 N955 1.384 . S
N954 C950 1.428 . S
N954 C951 1.384 . S
N955 C947 1.427 . S
N955 C953 1.384 . S
H956 C962 0.930 . S
H957 C966 0.930 . S
H958 C971 0.929 . S
H959 C969 0.929 . S
H960 C964 0.929 . S
H961 C970 0.929 . S
C962 H956 0.930 . S
C962 C963 1.367 . S
C962 C970 1.378 . S
C963 C962 1.367 . S
C963 C971 1.433 . S
C964 H960 0.929 . S
C964 C966 1.378 . S
C964 C968 1.350 . S
C965 C968 1.463 . S
C965 C970 1.350 . S
C965 N973 1.427 . S
C966 H957 0.930 . S
C966 C964 1.378 . S
C966 C967 1.367 . S
C967 C966 1.367 . S
C967 C969 1.433 . S
C968 C964 1.350 . S
C968 C965 1.463 . S
C968 N972 1.427 . S
C969 H959 0.929 . S
C969 C967 1.433 . S
C969 N972 1.384 . S
C970 H961 0.929 . S
C970 C962 1.378 . S
C970 C965 1.350 . S
C971 H958 0.929 . S
C971 C963 1.433 . S
C971 N973 1.384 . S
N972 C968 1.427 . S
N972 C969 1.384 . S
N973 C965 1.427 . S
N973 C971 1.384 . S
H974 C980 0.930 . S
H975 C984 0.930 . S
H976 C989 0.929 . S
H977 C987 0.929 . S
H978 C982 0.929 . S
H979 C988 0.929 . S
C980 H974 0.930 . S
C980 C981 1.367 . S
C980 C988 1.378 . S
C981 C980 1.367 . S
C981 C989 1.433 . S
C982 H978 0.929 . S
C982 C984 1.378 . S
C982 C986 1.350 . S
C983 C986 1.463 . S
C983 C988 1.350 . S
C983 N991 1.427 . S
C984 H975 0.930 . S
C984 C982 1.378 . S
C984 C985 1.367 . S
C985 C984 1.367 . S
C985 C987 1.433 . S
C986 C982 1.350 . S
C986 C983 1.463 . S
C986 N990 1.427 . S
C987 H977 0.929 . S
C987 C985 1.433 . S
C987 N990 1.384 . S
C988 H979 0.929 . S
C988 C980 1.378 . S
C988 C983 1.350 . S
C989 H976 0.929 . S
C989 C981 1.433 . S
C989 N991 1.384 . S
N990 C986 1.427 . S
N990 C987 1.384 . S
N991 C983 1.427 . S
N991 C989 1.384 . S
H992 C998 0.930 . S
H993 C1002 0.930 . S
H994 C1007 0.929 . S
H995 C1005 0.929 . S
H996 C1000 0.929 . S
H997 C1006 0.929 . S
C998 H992 0.930 . S
C998 C999 1.367 . S
C998 C1006 1.378 . S
C999 C998 1.367 . S
C999 C1007 1.433 . S
C1000 H996 0.929 . S
C1000 C1002 1.378 . S
C1000 C1004 1.350 . S
C1001 C1004 1.463 . S
C1001 C1006 1.350 . S
C1001 N1009 1.427 . S
C1002 H993 0.930 . S
C1002 C1000 1.378 . S
C1002 C1003 1.367 . S
C1003 C1002 1.367 . S
C1003 C1005 1.433 . S
C1004 C1000 1.350 . S
C1004 C1001 1.463 . S
C1004 N1008 1.427 . S
C1005 H995 0.929 . S
C1005 C1003 1.433 . S
C1005 N1008 1.384 . S
C1006 H997 0.929 . S
C1006 C998 1.378 . S
C1006 C1001 1.350 . S
C1007 H994 0.929 . S
C1007 C999 1.433 . S
C1007 N1009 1.384 . S
N1008 C1004 1.427 . S
N1008 C1005 1.384 . S
N1009 C1001 1.427 . S
N1009 C1007 1.384 . S
H1010 C1016 0.930 . S
H1011 C1020 0.930 . S
H1012 C1025 0.929 . S
H1013 C1023 0.929 . S
H1014 C1018 0.929 . S
H1015 C1024 0.929 . S
C1016 H1010 0.930 . S
C1016 C1017 1.367 . S
C1016 C1024 1.378 . S
C1017 C1016 1.367 . S
C1017 C1025 1.433 . S
C1018 H1014 0.929 . S
C1018 C1020 1.378 . S
C1018 C1022 1.350 . S
C1019 C1022 1.463 . S
C1019 C1024 1.350 . S
C1019 N1027 1.427 . S
C1020 H1011 0.930 . S
C1020 C1018 1.378 . S
C1020 C1021 1.367 . S
C1021 C1020 1.367 . S
C1021 C1023 1.433 . S
C1022 C1018 1.350 . S
C1022 C1019 1.463 . S
C1022 N1026 1.427 . S
C1023 H1013 0.929 . S
C1023 C1021 1.433 . S
C1023 N1026 1.384 . S
C1024 H1015 0.929 . S
C1024 C1016 1.378 . S
C1024 C1019 1.350 . S
C1025 H1012 0.929 . S
C1025 C1017 1.433 . S
C1025 N1027 1.384 . S
N1026 C1022 1.427 . S
N1026 C1023 1.384 . S
N1027 C1019 1.427 . S
N1027 C1025 1.384 . S
H1028 C1034 0.930 . S
H1029 C1038 0.930 . S
H1030 C1043 0.929 . S
H1031 C1041 0.929 . S
H1032 C1036 0.929 . S
H1033 C1042 0.929 . S
C1034 H1028 0.930 . S
C1034 C1035 1.367 . S
C1034 C1042 1.378 . S
C1035 C1034 1.367 . S
C1035 C1043 1.433 . S
C1036 H1032 0.929 . S
C1036 C1038 1.378 . S
C1036 C1040 1.350 . S
C1037 C1040 1.463 . S
C1037 C1042 1.350 . S
C1037 N1045 1.427 . S
C1038 H1029 0.930 . S
C1038 C1036 1.378 . S
C1038 C1039 1.367 . S
C1039 C1038 1.367 . S
C1039 C1041 1.433 . S
C1040 C1036 1.350 . S
C1040 C1037 1.463 . S
C1040 N1044 1.427 . S
C1041 H1031 0.929 . S
C1041 C1039 1.433 . S
C1041 N1044 1.384 . S
C1042 H1033 0.929 . S
C1042 C1034 1.378 . S
C1042 C1037 1.350 . S
C1043 H1030 0.929 . S
C1043 C1035 1.433 . S
C1043 N1045 1.384 . S
N1044 C1040 1.427 . S
N1044 C1041 1.384 . S
N1045 C1037 1.427 . S
N1045 C1043 1.384 . S
H1046 C1052 0.930 . S
H1047 C1056 0.930 . S
H1048 C1061 0.929 . S
H1049 C1059 0.929 . S
H1050 C1054 0.929 . S
H1051 C1060 0.929 . S
C1052 H1046 0.930 . S
C1052 C1053 1.367 . S
C1052 C1060 1.378 . S
C1053 C1052 1.367 . S
C1053 C1061 1.433 . S
C1054 H1050 0.929 . S
C1054 C1056 1.378 . S
C1054 C1058 1.350 . S
C1055 C1058 1.463 . S
C1055 C1060 1.350 . S
C1055 N1063 1.427 . S
C1056 H1047 0.930 . S
C1056 C1054 1.378 . S
C1056 C1057 1.367 . S
C1057 C1056 1.367 . S
C1057 C1059 1.433 . S
C1058 C1054 1.350 . S
C1058 C1055 1.463 . S
C1058 N1062 1.427 . S
C1059 H1049 0.929 . S
C1059 C1057 1.433 . S
C1059 N1062 1.384 . S
C1060 H1051 0.929 . S
C1060 C1052 1.378 . S
C1060 C1055 1.350 . S
C1061 H1048 0.929 . S
C1061 C1053 1.433 . S
C1061 N1063 1.384 . S
N1062 C1058 1.427 . S
N1062 C1059 1.384 . S
N1063 C1055 1.427 . S
N1063 C1061 1.384 . S
H1064 C1070 0.930 . S
H1065 C1074 0.930 . S
H1066 C1079 0.929 . S
H1067 C1077 0.929 . S
H1068 C1072 0.929 . S
H1069 C1078 0.929 . S
C1070 H1064 0.930 . S
C1070 C1071 1.367 . S
C1070 C1078 1.378 . S
C1071 C1070 1.367 . S
C1071 C1079 1.433 . S
C1072 H1068 0.929 . S
C1072 C1074 1.378 . S
C1072 C1076 1.350 . S
C1073 C1076 1.463 . S
C1073 C1078 1.350 . S
C1073 N1081 1.427 . S
C1074 H1065 0.930 . S
C1074 C1072 1.378 . S
C1074 C1075 1.367 . S
C1075 C1074 1.367 . S
C1075 C1077 1.433 . S
C1076 C1072 1.350 . S
C1076 C1073 1.463 . S
C1076 N1080 1.427 . S
C1077 H1067 0.929 . S
C1077 C1075 1.433 . S
C1077 N1080 1.384 . S
C1078 H1069 0.929 . S
C1078 C1070 1.378 . S
C1078 C1073 1.350 . S
C1079 H1066 0.929 . S
C1079 C1071 1.433 . S
C1079 N1081 1.384 . S
N1080 C1076 1.427 . S
N1080 C1077 1.384 . S
N1081 C1073 1.427 . S
N1081 C1079 1.384 . S
H1082 C1088 0.930 . S
H1083 C1092 0.930 . S
H1084 C1097 0.929 . S
H1085 C1095 0.929 . S
H1086 C1090 0.929 . S
H1087 C1096 0.929 . S
C1088 H1082 0.930 . S
C1088 C1089 1.367 . S
C1088 C1096 1.378 . S
C1089 C1088 1.367 . S
C1089 C1097 1.433 . S
C1090 H1086 0.929 . S
C1090 C1092 1.378 . S
C1090 C1094 1.350 . S
C1091 C1094 1.463 . S
C1091 C1096 1.350 . S
C1091 N1099 1.427 . S
C1092 H1083 0.930 . S
C1092 C1090 1.378 . S
C1092 C1093 1.367 . S
C1093 C1092 1.367 . S
C1093 C1095 1.433 . S
C1094 C1090 1.350 . S
C1094 C1091 1.463 . S
C1094 N1098 1.427 . S
C1095 H1085 0.929 . S
C1095 C1093 1.433 . S
C1095 N1098 1.384 . S
C1096 H1087 0.929 . S
C1096 C1088 1.378 . S
C1096 C1091 1.350 . S
C1097 H1084 0.929 . S
C1097 C1089 1.433 . S
C1097 N1099 1.384 . S
N1098 C1094 1.427 . S
N1098 C1095 1.384 . S
N1099 C1091 1.427 . S
N1099 C1097 1.384 . S
H1100 C1106 0.930 . S
H1101 C1110 0.930 . S
H1102 C1115 0.929 . S
H1103 C1113 0.929 . S
H1104 C1108 0.929 . S
H1105 C1114 0.929 . S
C1106 H1100 0.930 . S
C1106 C1107 1.367 . S
C1106 C1114 1.378 . S
C1107 C1106 1.367 . S
C1107 C1115 1.433 . S
C1108 H1104 0.929 . S
C1108 C1110 1.378 . S
C1108 C1112 1.350 . S
C1109 C1112 1.463 . S
C1109 C1114 1.350 . S
C1109 N1117 1.427 . S
C1110 H1101 0.930 . S
C1110 C1108 1.378 . S
C1110 C1111 1.367 . S
C1111 C1110 1.367 . S
C1111 C1113 1.433 . S
C1112 C1108 1.350 . S
C1112 C1109 1.463 . S
C1112 N1116 1.427 . S
C1113 H1103 0.929 . S
C1113 C1111 1.433 . S
C1113 N1116 1.384 . S
C1114 H1105 0.929 . S
C1114 C1106 1.378 . S
C1114 C1109 1.350 . S
C1115 H1102 0.929 . S
C1115 C1107 1.433 . S
C1115 N1117 1.384 . S
N1116 C1112 1.427 . S
N1116 C1113 1.384 . S
N1117 C1109 1.427 . S
N1117 C1115 1.384 . S
H1118 C1124 0.930 . S
H1119 C1128 0.930 . S
H1120 C1133 0.929 . S
H1121 C1131 0.929 . S
H1122 C1126 0.929 . S
H1123 C1132 0.929 . S
C1124 H1118 0.930 . S
C1124 C1125 1.367 . S
C1124 C1132 1.378 . S
C1125 C1124 1.367 . S
C1125 C1133 1.433 . S
C1126 H1122 0.929 . S
C1126 C1128 1.378 . S
C1126 C1130 1.350 . S
C1127 C1130 1.463 . S
C1127 C1132 1.350 . S
C1127 N1135 1.427 . S
C1128 H1119 0.930 . S
C1128 C1126 1.378 . S
C1128 C1129 1.367 . S
C1129 C1128 1.367 . S
C1129 C1131 1.433 . S
C1130 C1126 1.350 . S
C1130 C1127 1.463 . S
C1130 N1134 1.427 . S
C1131 H1121 0.929 . S
C1131 C1129 1.433 . S
C1131 N1134 1.384 . S
C1132 H1123 0.929 . S
C1132 C1124 1.378 . S
C1132 C1127 1.350 . S
C1133 H1120 0.929 . S
C1133 C1125 1.433 . S
C1133 N1135 1.384 . S
N1134 C1130 1.427 . S
N1134 C1131 1.384 . S
N1135 C1127 1.427 . S
N1135 C1133 1.384 . S
H1136 C1142 0.930 . S
H1137 C1146 0.930 . S
H1138 C1151 0.929 . S
H1139 C1149 0.929 . S
H1140 C1144 0.929 . S
H1141 C1150 0.929 . S
C1142 H1136 0.930 . S
C1142 C1143 1.367 . S
C1142 C1150 1.378 . S
C1143 C1142 1.367 . S
C1143 C1151 1.433 . S
C1144 H1140 0.929 . S
C1144 C1146 1.378 . S
C1144 C1148 1.350 . S
C1145 C1148 1.463 . S
C1145 C1150 1.350 . S
C1145 N1153 1.427 . S
C1146 H1137 0.930 . S
C1146 C1144 1.378 . S
C1146 C1147 1.367 . S
C1147 C1146 1.367 . S
C1147 C1149 1.433 . S
C1148 C1144 1.350 . S
C1148 C1145 1.463 . S
C1148 N1152 1.427 . S
C1149 H1139 0.929 . S
C1149 C1147 1.433 . S
C1149 N1152 1.384 . S
C1150 H1141 0.929 . S
C1150 C1142 1.378 . S
C1150 C1145 1.350 . S
C1151 H1138 0.929 . S
C1151 C1143 1.433 . S
C1151 N1153 1.384 . S
N1152 C1148 1.427 . S
N1152 C1149 1.384 . S
N1153 C1145 1.427 . S
N1153 C1151 1.384 . S
H1154 C1160 0.930 . S
H1155 C1164 0.930 . S
H1156 C1169 0.929 . S
H1157 C1167 0.929 . S
H1158 C1162 0.929 . S
H1159 C1168 0.929 . S
C1160 H1154 0.930 . S
C1160 C1161 1.367 . S
C1160 C1168 1.378 . S
C1161 C1160 1.367 . S
C1161 C1169 1.433 . S
C1162 H1158 0.929 . S
C1162 C1164 1.378 . S
C1162 C1166 1.350 . S
C1163 C1166 1.463 . S
C1163 C1168 1.350 . S
C1163 N1171 1.427 . S
C1164 H1155 0.930 . S
C1164 C1162 1.378 . S
C1164 C1165 1.367 . S
C1165 C1164 1.367 . S
C1165 C1167 1.433 . S
C1166 C1162 1.350 . S
C1166 C1163 1.463 . S
C1166 N1170 1.427 . S
C1167 H1157 0.929 . S
C1167 C1165 1.433 . S
C1167 N1170 1.384 . S
C1168 H1159 0.929 . S
C1168 C1160 1.378 . S
C1168 C1163 1.350 . S
C1169 H1156 0.929 . S
C1169 C1161 1.433 . S
C1169 N1171 1.384 . S
N1170 C1166 1.427 . S
N1170 C1167 1.384 . S
N1171 C1163 1.427 . S
N1171 C1169 1.384 . S
H1172 C1178 0.930 . S
H1173 C1182 0.930 . S
H1174 C1187 0.929 . S
H1175 C1185 0.929 . S
H1176 C1180 0.929 . S
H1177 C1186 0.929 . S
C1178 H1172 0.930 . S
C1178 C1179 1.367 . S
C1178 C1186 1.378 . S
C1179 C1178 1.367 . S
C1179 C1187 1.433 . S
C1180 H1176 0.929 . S
C1180 C1182 1.378 . S
C1180 C1184 1.350 . S
C1181 C1184 1.463 . S
C1181 C1186 1.350 . S
C1181 N1189 1.427 . S
C1182 H1173 0.930 . S
C1182 C1180 1.378 . S
C1182 C1183 1.367 . S
C1183 C1182 1.367 . S
C1183 C1185 1.433 . S
C1184 C1180 1.350 . S
C1184 C1181 1.463 . S
C1184 N1188 1.427 . S
C1185 H1175 0.929 . S
C1185 C1183 1.433 . S
C1185 N1188 1.384 . S
C1186 H1177 0.929 . S
C1186 C1178 1.378 . S
C1186 C1181 1.350 . S
C1187 H1174 0.929 . S
C1187 C1179 1.433 . S
C1187 N1189 1.384 . S
N1188 C1184 1.427 . S
N1188 C1185 1.384 . S
N1189 C1181 1.427 . S
N1189 C1187 1.384 . S
H1190 C1196 0.930 . S
H1191 C1200 0.930 . S
H1192 C1205 0.929 . S
H1193 C1203 0.929 . S
H1194 C1198 0.929 . S
H1195 C1204 0.929 . S
C1196 H1190 0.930 . S
C1196 C1197 1.367 . S
C1196 C1204 1.378 . S
C1197 C1196 1.367 . S
C1197 C1205 1.433 . S
C1198 H1194 0.929 . S
C1198 C1200 1.378 . S
C1198 C1202 1.350 . S
C1199 C1202 1.463 . S
C1199 C1204 1.350 . S
C1199 N1207 1.427 . S
C1200 H1191 0.930 . S
C1200 C1198 1.378 . S
C1200 C1201 1.367 . S
C1201 C1200 1.367 . S
C1201 C1203 1.433 . S
C1202 C1198 1.350 . S
C1202 C1199 1.463 . S
C1202 N1206 1.427 . S
C1203 H1193 0.929 . S
C1203 C1201 1.433 . S
C1203 N1206 1.384 . S
C1204 H1195 0.929 . S
C1204 C1196 1.378 . S
C1204 C1199 1.350 . S
C1205 H1192 0.929 . S
C1205 C1197 1.433 . S
C1205 N1207 1.384 . S
N1206 C1202 1.427 . S
N1206 C1203 1.384 . S
N1207 C1199 1.427 . S
N1207 C1205 1.384 . S
H1208 C1214 0.930 . S
H1209 C1218 0.930 . S
H1210 C1223 0.929 . S
H1211 C1221 0.929 . S
H1212 C1216 0.929 . S
H1213 C1222 0.929 . S
C1214 H1208 0.930 . S
C1214 C1215 1.367 . S
C1214 C1222 1.378 . S
C1215 C1214 1.367 . S
C1215 C1223 1.433 . S
C1216 H1212 0.929 . S
C1216 C1218 1.378 . S
C1216 C1220 1.350 . S
C1217 C1220 1.463 . S
C1217 C1222 1.350 . S
C1217 N1225 1.427 . S
C1218 H1209 0.930 . S
C1218 C1216 1.378 . S
C1218 C1219 1.367 . S
C1219 C1218 1.367 . S
C1219 C1221 1.433 . S
C1220 C1216 1.350 . S
C1220 C1217 1.463 . S
C1220 N1224 1.427 . S
C1221 H1211 0.929 . S
C1221 C1219 1.433 . S
C1221 N1224 1.384 . S
C1222 H1213 0.929 . S
C1222 C1214 1.378 . S
C1222 C1217 1.350 . S
C1223 H1210 0.929 . S
C1223 C1215 1.433 . S
C1223 N1225 1.384 . S
N1224 C1220 1.427 . S
N1224 C1221 1.384 . S
N1225 C1217 1.427 . S
N1225 C1223 1.384 . S
H1226 C1232 0.930 . S
H1227 C1236 0.930 . S
H1228 C1241 0.929 . S
H1229 C1239 0.929 . S
H1230 C1234 0.929 . S
H1231 C1240 0.929 . S
C1232 H1226 0.930 . S
C1232 C1233 1.367 . S
C1232 C1240 1.378 . S
C1233 C1232 1.367 . S
C1233 C1241 1.433 . S
C1234 H1230 0.929 . S
C1234 C1236 1.378 . S
C1234 C1238 1.350 . S
C1235 C1238 1.463 . S
C1235 C1240 1.350 . S
C1235 N1243 1.427 . S
C1236 H1227 0.930 . S
C1236 C1234 1.378 . S
C1236 C1237 1.367 . S
C1237 C1236 1.367 . S
C1237 C1239 1.433 . S
C1238 C1234 1.350 . S
C1238 C1235 1.463 . S
C1238 N1242 1.427 . S
C1239 H1229 0.929 . S
C1239 C1237 1.433 . S
C1239 N1242 1.384 . S
C1240 H1231 0.929 . S
C1240 C1232 1.378 . S
C1240 C1235 1.350 . S
C1241 H1228 0.929 . S
C1241 C1233 1.433 . S
C1241 N1243 1.384 . S
N1242 C1238 1.427 . S
N1242 C1239 1.384 . S
N1243 C1235 1.427 . S
N1243 C1241 1.384 . S
H1244 C1250 0.930 . S
H1245 C1254 0.930 . S
H1246 C1259 0.929 . S
H1247 C1257 0.929 . S
H1248 C1252 0.929 . S
H1249 C1258 0.929 . S
C1250 H1244 0.930 . S
C1250 C1251 1.367 . S
C1250 C1258 1.378 . S
C1251 C1250 1.367 . S
C1251 C1259 1.433 . S
C1252 H1248 0.929 . S
C1252 C1254 1.378 . S
C1252 C1256 1.350 . S
C1253 C1256 1.463 . S
C1253 C1258 1.350 . S
C1253 N1261 1.427 . S
C1254 H1245 0.930 . S
C1254 C1252 1.378 . S
C1254 C1255 1.367 . S
C1255 C1254 1.367 . S
C1255 C1257 1.433 . S
C1256 C1252 1.350 . S
C1256 C1253 1.463 . S
C1256 N1260 1.427 . S
C1257 H1247 0.929 . S
C1257 C1255 1.433 . S
C1257 N1260 1.384 . S
C1258 H1249 0.929 . S
C1258 C1250 1.378 . S
C1258 C1253 1.350 . S
C1259 H1246 0.929 . S
C1259 C1251 1.433 . S
C1259 N1261 1.384 . S
N1260 C1256 1.427 . S
N1260 C1257 1.384 . S
N1261 C1253 1.427 . S
N1261 C1259 1.384 . S
H1262 C1268 0.930 . S
H1263 C1272 0.930 . S
H1264 C1277 0.929 . S
H1265 C1275 0.929 . S
H1266 C1270 0.929 . S
H1267 C1276 0.929 . S
C1268 H1262 0.930 . S
C1268 C1269 1.367 . S
C1268 C1276 1.378 . S
C1269 C1268 1.367 . S
C1269 C1277 1.433 . S
C1270 H1266 0.929 . S
C1270 C1272 1.378 . S
C1270 C1274 1.350 . S
C1271 C1274 1.463 . S
C1271 C1276 1.350 . S
C1271 N1279 1.427 . S
C1272 H1263 0.930 . S
C1272 C1270 1.378 . S
C1272 C1273 1.367 . S
C1273 C1272 1.367 . S
C1273 C1275 1.433 . S
C1274 C1270 1.350 . S
C1274 C1271 1.463 . S
C1274 N1278 1.427 . S
C1275 H1265 0.929 . S
C1275 C1273 1.433 . S
C1275 N1278 1.384 . S
C1276 H1267 0.929 . S
C1276 C1268 1.378 . S
C1276 C1271 1.350 . S
C1277 H1264 0.929 . S
C1277 C1269 1.433 . S
C1277 N1279 1.384 . S
N1278 C1274 1.427 . S
N1278 C1275 1.384 . S
N1279 C1271 1.427 . S
N1279 C1277 1.384 . S
H1280 C1286 0.930 . S
H1281 C1290 0.930 . S
H1282 C1295 0.929 . S
H1283 C1293 0.929 . S
H1284 C1288 0.929 . S
H1285 C1294 0.929 . S
C1286 H1280 0.930 . S
C1286 C1287 1.367 . S
C1286 C1294 1.378 . S
C1287 C1286 1.367 . S
C1287 C1295 1.433 . S
C1288 H1284 0.929 . S
C1288 C1290 1.378 . S
C1288 C1292 1.350 . S
C1289 C1292 1.463 . S
C1289 C1294 1.350 . S
C1289 N1297 1.427 . S
C1290 H1281 0.930 . S
C1290 C1288 1.378 . S
C1290 C1291 1.367 . S
C1291 C1290 1.367 . S
C1291 C1293 1.433 . S
C1292 C1288 1.350 . S
C1292 C1289 1.463 . S
C1292 N1296 1.427 . S
C1293 H1283 0.929 . S
C1293 C1291 1.433 . S
C1293 N1296 1.384 . S
C1294 H1285 0.929 . S
C1294 C1286 1.378 . S
C1294 C1289 1.350 . S
C1295 H1282 0.929 . S
C1295 C1287 1.433 . S
C1295 N1297 1.384 . S
N1296 C1292 1.427 . S
N1296 C1293 1.384 . S
N1297 C1289 1.427 . S
N1297 C1295 1.384 . S
H1298 C1304 0.930 . S
H1299 C1308 0.930 . S
H1300 C1313 0.929 . S
H1301 C1311 0.929 . S
H1302 C1306 0.929 . S
H1303 C1312 0.929 . S
C1304 H1298 0.930 . S
C1304 C1305 1.367 . S
C1304 C1312 1.378 . S
C1305 C1304 1.367 . S
C1305 C1313 1.433 . S
C1306 H1302 0.929 . S
C1306 C1308 1.378 . S
C1306 C1310 1.350 . S
C1307 C1310 1.463 . S
C1307 C1312 1.350 . S
C1307 N1315 1.427 . S
C1308 H1299 0.930 . S
C1308 C1306 1.378 . S
C1308 C1309 1.367 . S
C1309 C1308 1.367 . S
C1309 C1311 1.433 . S
C1310 C1306 1.350 . S
C1310 C1307 1.463 . S
C1310 N1314 1.427 . S
C1311 H1301 0.929 . S
C1311 C1309 1.433 . S
C1311 N1314 1.384 . S
C1312 H1303 0.929 . S
C1312 C1304 1.378 . S
C1312 C1307 1.350 . S
C1313 H1300 0.929 . S
C1313 C1305 1.433 . S
C1313 N1315 1.384 . S
N1314 C1310 1.427 . S
N1314 C1311 1.384 . S
N1315 C1307 1.427 . S
N1315 C1313 1.384 . S
H1316 C1322 0.930 . S
H1317 C1326 0.930 . S
H1318 C1331 0.929 . S
H1319 C1329 0.929 . S
H1320 C1324 0.929 . S
H1321 C1330 0.929 . S
C1322 H1316 0.930 . S
C1322 C1323 1.367 . S
C1322 C1330 1.378 . S
C1323 C1322 1.367 . S
C1323 C1331 1.433 . S
C1324 H1320 0.929 . S
C1324 C1326 1.378 . S
C1324 C1328 1.350 . S
C1325 C1328 1.463 . S
C1325 C1330 1.350 . S
C1325 N1333 1.427 . S
C1326 H1317 0.930 . S
C1326 C1324 1.378 . S
C1326 C1327 1.367 . S
C1327 C1326 1.367 . S
C1327 C1329 1.433 . S
C1328 C1324 1.350 . S
C1328 C1325 1.463 . S
C1328 N1332 1.427 . S
C1329 H1319 0.929 . S
C1329 C1327 1.433 . S
C1329 N1332 1.384 . S
C1330 H1321 0.929 . S
C1330 C1322 1.378 . S
C1330 C1325 1.350 . S
C1331 H1318 0.929 . S
C1331 C1323 1.433 . S
C1331 N1333 1.384 . S
N1332 C1328 1.427 . S
N1332 C1329 1.384 . S
N1333 C1325 1.427 . S
N1333 C1331 1.384 . S
H1334 C1340 0.930 . S
H1335 C1344 0.930 . S
H1336 C1349 0.929 . S
H1337 C1347 0.929 . S
H1338 C1342 0.929 . S
H1339 C1348 0.929 . S
C1340 H1334 0.930 . S
C1340 C1341 1.367 . S
C1340 C1348 1.378 . S
C1341 C1340 1.367 . S
C1341 C1349 1.433 . S
C1342 H1338 0.929 . S
C1342 C1344 1.378 . S
C1342 C1346 1.350 . S
C1343 C1346 1.463 . S
C1343 C1348 1.350 . S
C1343 N1351 1.427 . S
C1344 H1335 0.930 . S
C1344 C1342 1.378 . S
C1344 C1345 1.367 . S
C1345 C1344 1.367 . S
C1345 C1347 1.433 . S
C1346 C1342 1.350 . S
C1346 C1343 1.463 . S
C1346 N1350 1.427 . S
C1347 H1337 0.929 . S
C1347 C1345 1.433 . S
C1347 N1350 1.384 . S
C1348 H1339 0.929 . S
C1348 C1340 1.378 . S
C1348 C1343 1.350 . S
C1349 H1336 0.929 . S
C1349 C1341 1.433 . S
C1349 N1351 1.384 . S
N1350 C1346 1.427 . S
N1350 C1347 1.384 . S
N1351 C1343 1.427 . S
N1351 C1349 1.384 . S
H1352 C1358 0.930 . S
H1353 C1362 0.930 . S
H1354 C1367 0.929 . S
H1355 C1365 0.929 . S
H1356 C1360 0.929 . S
H1357 C1366 0.929 . S
C1358 H1352 0.930 . S
C1358 C1359 1.367 . S
C1358 C1366 1.378 . S
C1359 C1358 1.367 . S
C1359 C1367 1.433 . S
C1360 H1356 0.929 . S
C1360 C1362 1.378 . S
C1360 C1364 1.350 . S
C1361 C1364 1.463 . S
C1361 C1366 1.350 . S
C1361 N1369 1.427 . S
C1362 H1353 0.930 . S
C1362 C1360 1.378 . S
C1362 C1363 1.367 . S
C1363 C1362 1.367 . S
C1363 C1365 1.433 . S
C1364 C1360 1.350 . S
C1364 C1361 1.463 . S
C1364 N1368 1.427 . S
C1365 H1355 0.929 . S
C1365 C1363 1.433 . S
C1365 N1368 1.384 . S
C1366 H1357 0.929 . S
C1366 C1358 1.378 . S
C1366 C1361 1.350 . S
C1367 H1354 0.929 . S
C1367 C1359 1.433 . S
C1367 N1369 1.384 . S
N1368 C1364 1.427 . S
N1368 C1365 1.384 . S
N1369 C1361 1.427 . S
N1369 C1367 1.384 . S
H1370 C1376 0.930 . S
H1371 C1380 0.930 . S
H1372 C1385 0.929 . S
H1373 C1383 0.929 . S
H1374 C1378 0.929 . S
H1375 C1384 0.929 . S
C1376 H1370 0.930 . S
C1376 C1377 1.367 . S
C1376 C1384 1.378 . S
C1377 C1376 1.367 . S
C1377 C1385 1.433 . S
C1378 H1374 0.929 . S
C1378 C1380 1.378 . S
C1378 C1382 1.350 . S
C1379 C1382 1.463 . S
C1379 C1384 1.350 . S
C1379 N1387 1.427 . S
C1380 H1371 0.930 . S
C1380 C1378 1.378 . S
C1380 C1381 1.367 . S
C1381 C1380 1.367 . S
C1381 C1383 1.433 . S
C1382 C1378 1.350 . S
C1382 C1379 1.463 . S
C1382 N1386 1.427 . S
C1383 H1373 0.929 . S
C1383 C1381 1.433 . S
C1383 N1386 1.384 . S
C1384 H1375 0.929 . S
C1384 C1376 1.378 . S
C1384 C1379 1.350 . S
C1385 H1372 0.929 . S
C1385 C1377 1.433 . S
C1385 N1387 1.384 . S
N1386 C1382 1.427 . S
N1386 C1383 1.384 . S
N1387 C1379 1.427 . S
N1387 C1385 1.384 . S
H1388 C1394 0.930 . S
H1389 C1398 0.930 . S
H1390 C1403 0.929 . S
H1391 C1401 0.929 . S
H1392 C1396 0.929 . S
H1393 C1402 0.929 . S
C1394 H1388 0.930 . S
C1394 C1395 1.367 . S
C1394 C1402 1.378 . S
C1395 C1394 1.367 . S
C1395 C1403 1.433 . S
C1396 H1392 0.929 . S
C1396 C1398 1.378 . S
C1396 C1400 1.350 . S
C1397 C1400 1.463 . S
C1397 C1402 1.350 . S
C1397 N1405 1.427 . S
C1398 H1389 0.930 . S
C1398 C1396 1.378 . S
C1398 C1399 1.367 . S
C1399 C1398 1.367 . S
C1399 C1401 1.433 . S
C1400 C1396 1.350 . S
C1400 C1397 1.463 . S
C1400 N1404 1.427 . S
C1401 H1391 0.929 . S
C1401 C1399 1.433 . S
C1401 N1404 1.384 . S
C1402 H1393 0.929 . S
C1402 C1394 1.378 . S
C1402 C1397 1.350 . S
C1403 H1390 0.929 . S
C1403 C1395 1.433 . S
C1403 N1405 1.384 . S
N1404 C1400 1.427 . S
N1404 C1401 1.384 . S
N1405 C1397 1.427 . S
N1405 C1403 1.384 . S
H1406 C1412 0.930 . S
H1407 C1416 0.930 . S
H1408 C1421 0.929 . S
H1409 C1419 0.929 . S
H1410 C1414 0.929 . S
H1411 C1420 0.929 . S
C1412 H1406 0.930 . S
C1412 C1413 1.367 . S
C1412 C1420 1.378 . S
C1413 C1412 1.367 . S
C1413 C1421 1.433 . S
C1414 H1410 0.929 . S
C1414 C1416 1.378 . S
C1414 C1418 1.350 . S
C1415 C1418 1.463 . S
C1415 C1420 1.350 . S
C1415 N1423 1.427 . S
C1416 H1407 0.930 . S
C1416 C1414 1.378 . S
C1416 C1417 1.367 . S
C1417 C1416 1.367 . S
C1417 C1419 1.433 . S
C1418 C1414 1.350 . S
C1418 C1415 1.463 . S
C1418 N1422 1.427 . S
C1419 H1409 0.929 . S
C1419 C1417 1.433 . S
C1419 N1422 1.384 . S
C1420 H1411 0.929 . S
C1420 C1412 1.378 . S
C1420 C1415 1.350 . S
C1421 H1408 0.929 . S
C1421 C1413 1.433 . S
C1421 N1423 1.384 . S
N1422 C1418 1.427 . S
N1422 C1419 1.384 . S
N1423 C1415 1.427 . S
N1423 C1421 1.384 . S
H1424 C1430 0.930 . S
H1425 C1434 0.930 . S
H1426 C1439 0.929 . S
H1427 C1437 0.929 . S
H1428 C1432 0.929 . S
H1429 C1438 0.929 . S
C1430 H1424 0.930 . S
C1430 C1431 1.367 . S
C1430 C1438 1.378 . S
C1431 C1430 1.367 . S
C1431 C1439 1.433 . S
C1432 H1428 0.929 . S
C1432 C1434 1.378 . S
C1432 C1436 1.350 . S
C1433 C1436 1.463 . S
C1433 C1438 1.350 . S
C1433 N1441 1.427 . S
C1434 H1425 0.930 . S
C1434 C1432 1.378 . S
C1434 C1435 1.367 . S
C1435 C1434 1.367 . S
C1435 C1437 1.433 . S
C1436 C1432 1.350 . S
C1436 C1433 1.463 . S
C1436 N1440 1.427 . S
C1437 H1427 0.929 . S
C1437 C1435 1.433 . S
C1437 N1440 1.384 . S
C1438 H1429 0.929 . S
C1438 C1430 1.378 . S
C1438 C1433 1.350 . S
C1439 H1426 0.929 . S
C1439 C1431 1.433 . S
C1439 N1441 1.384 . S
N1440 C1436 1.427 . S
N1440 C1437 1.384 . S
N1441 C1433 1.427 . S
N1441 C1439 1.384 . S
H1442 C1448 0.930 . S
H1443 C1452 0.930 . S
H1444 C1457 0.929 . S
H1445 C1455 0.929 . S
H1446 C1450 0.929 . S
H1447 C1456 0.929 . S
C1448 H1442 0.930 . S
C1448 C1449 1.367 . S
C1448 C1456 1.378 . S
C1449 C1448 1.367 . S
C1449 C1457 1.433 . S
C1450 H1446 0.929 . S
C1450 C1452 1.378 . S
C1450 C1454 1.350 . S
C1451 C1454 1.463 . S
C1451 C1456 1.350 . S
C1451 N1459 1.427 . S
C1452 H1443 0.930 . S
C1452 C1450 1.378 . S
C1452 C1453 1.367 . S
C1453 C1452 1.367 . S
C1453 C1455 1.433 . S
C1454 C1450 1.350 . S
C1454 C1451 1.463 . S
C1454 N1458 1.427 . S
C1455 H1445 0.929 . S
C1455 C1453 1.433 . S
C1455 N1458 1.384 . S
C1456 H1447 0.929 . S
C1456 C1448 1.378 . S
C1456 C1451 1.350 . S
C1457 H1444 0.929 . S
C1457 C1449 1.433 . S
C1457 N1459 1.384 . S
N1458 C1454 1.427 . S
N1458 C1455 1.384 . S
N1459 C1451 1.427 . S
N1459 C1457 1.384 . S
C607 C282 1.333 . S
C603 N2 1.309 . S
C625 C325 2.621 . S
C621 C7 2.654 . S
C643 C371 1.734 . S
C639 N12 1.618 . S
C657 C16 1.861 . S
C661 C414 1.893 . S
C679 C454 2.724 . S
C675 C30 2.732 1_565 S
C697 C482 1.494 . S
C693 N35 1.446 . S
C711 C39 2.069 . S
C715 C525 2.014 . S
C733 C571 1.195 . S
C729 N25 1.134 1_565 S
C751 C286 1.230 . S
C747 N58 1.186 . S
C765 N81 1.985 . S
C769 C335 1.945 . S
C787 C365 1.418 . S
C783 N104 1.410 . S
C801 N127 1.245 . S
C805 C402 1.222 . S
C823 C442 0.910 . S
C819 N48 0.923 . S
C841 C486 1.566 . S
C837 N71 1.522 1_556 S
C855 N94 1.357 . S
C859 C535 1.320 . S
C877 C565 1.920 . S
C873 N117 1.944 . S
C891 C85 2.553 . S
C895 C294 2.463 . S
C909 C122 2.459 . S
C913 C446 2.411 . S
C927 C53 2.105 . S
C931 C494 2.018 . S
C949 C531 1.386 . S
C945 C76 1.436 1_655 S
C967 C575 1.870 . S
C963 C99 1.868 . S
C985 C375 2.003 . S
C981 C131 1.996 . S
C1003 C406 1.717 . S
C999 C62 1.749 1_565 S
C1017 C108 1.140 . S
C1021 C331 1.118 . S
C1039 C562 1.391 . S
C1035 N140 1.388 . S
C1053 C145 2.645 . S
C1057 C445 2.607 . S
C1075 C491 1.611 . S
C1071 N150 1.495 . S
C1089 C154 1.876 . S
C1093 C534 1.899 . S
C1111 C334 2.733 . S
C1107 C168 2.747 . S
C1125 N173 1.329 . S
C1129 C362 1.376 . S
C1147 C405 2.017 . S
C1143 C177 2.074 . S
C1165 C291 1.257 . S
C1161 N163 1.191 . S
C1183 C566 1.693 . S
C1179 C200 1.684 . S
C1201 C455 2.234 . S
C1197 N219 2.265 . S
C1215 N242 1.656 . S
C1219 C485 1.669 . S
C1237 C522 1.444 . S
C1233 C269 1.515 . S
C1255 C322 1.164 . S
C1251 C191 1.217 . S
C1269 N209 1.773 . S
C1273 C366 1.821 . S
C1287 N232 1.659 . S
C1291 C415 1.605 . S
C1305 C260 2.504 . S
C1309 C285 2.441 . S
C1323 C223 2.253 . S
C1327 C574 2.163 . S
C1341 N255 1.998 . S
C1345 C326 1.987 . S
C1359 N186 1.606 . S
C1363 C374 1.560 . S
C1381 C411 1.105 . S
C1377 C214 1.142 . S
C1399 C295 1.556 . S
C1395 C237 1.549 . S
C1417 C495 1.586 . S
C1413 N265 1.507 . S
C1435 C526 1.341 . S
C1431 N196 1.360 . S
C1453 C451 0.853 . S
C1449 C246 0.855 . S
