# Generated by pormake.
# Topology myd, (4,6)-cn, num edge types: 1
# Building blocks:
#     Node 0, Type 0, BuildingBlock: NAWXER_clean_sbu_0, # of connection points: 4
#     Node 1, Type 0, BuildingBlock: NAWXER_clean_sbu_0, # of connection points: 4
#     Node 2, Type 0, BuildingBlock: NAWXER_clean_sbu_0, # of connection points: 4
#     Node 3, Type 0, BuildingBlock: NAWXER_clean_sbu_0, # of connection points: 4
#     Node 4, Type 0, BuildingBlock: NAWXER_clean_sbu_0, # of connection points: 4
#     Node 5, Type 0, BuildingBlock: NAWXER_clean_sbu_0, # of connection points: 4
#     Node 6, Type 0, BuildingBlock: NAWXER_clean_sbu_0, # of connection points: 4
#     Node 7, Type 0, BuildingBlock: NAWXER_clean_sbu_0, # of connection points: 4
#     Node 8, Type 0, BuildingBlock: NAWXER_clean_sbu_0, # of connection points: 4
#     Node 9, Type 0, BuildingBlock: NAWXER_clean_sbu_0, # of connection points: 4
#     Node 10, Type 0, BuildingBlock: NAWXER_clean_sbu_0, # of connection points: 4
#     Node 11, Type 0, BuildingBlock: NAWXER_clean_sbu_0, # of connection points: 4
#     Node 12, Type 1, BuildingBlock: VOLQOD_clean_sbu_1, # of connection points: 6
#     Node 13, Type 1, BuildingBlock: VOLQOD_clean_sbu_1, # of connection points: 6
#     Node 14, Type 1, BuildingBlock: VOLQOD_clean_sbu_1, # of connection points: 6
#     Node 15, Type 1, BuildingBlock: VOLQOD_clean_sbu_1, # of connection points: 6
#     Node 16, Type 1, BuildingBlock: VOLQOD_clean_sbu_1, # of connection points: 6
#     Node 17, Type 1, BuildingBlock: VOLQOD_clean_sbu_1, # of connection points: 6
#     Node 18, Type 1, BuildingBlock: VOLQOD_clean_sbu_1, # of connection points: 6
#     Node 19, Type 1, BuildingBlock: VOLQOD_clean_sbu_1, # of connection points: 6
#     Edge 20, Type (0, 1), BuildingBlock: XIVTED_clean_linker_0, # of connection points: 2
#     Edge 21, Type (0, 1), BuildingBlock: XIVTED_clean_linker_0, # of connection points: 2
#     Edge 22, Type (0, 1), BuildingBlock: XIVTED_clean_linker_0, # of connection points: 2
#     Edge 23, Type (0, 1), BuildingBlock: XIVTED_clean_linker_0, # of connection points: 2
#     Edge 24, Type (0, 1), BuildingBlock: XIVTED_clean_linker_0, # of connection points: 2
#     Edge 25, Type (0, 1), BuildingBlock: XIVTED_clean_linker_0, # of connection points: 2
#     Edge 26, Type (0, 1), BuildingBlock: XIVTED_clean_linker_0, # of connection points: 2
#     Edge 27, Type (0, 1), BuildingBlock: XIVTED_clean_linker_0, # of connection points: 2
#     Edge 28, Type (0, 1), BuildingBlock: XIVTED_clean_linker_0, # of connection points: 2
#     Edge 29, Type (0, 1), BuildingBlock: XIVTED_clean_linker_0, # of connection points: 2
#     Edge 30, Type (0, 1), BuildingBlock: XIVTED_clean_linker_0, # of connection points: 2
#     Edge 31, Type (0, 1), BuildingBlock: XIVTED_clean_linker_0, # of connection points: 2
#     Edge 32, Type (0, 1), BuildingBlock: XIVTED_clean_linker_0, # of connection points: 2
#     Edge 33, Type (0, 1), BuildingBlock: XIVTED_clean_linker_0, # of connection points: 2
#     Edge 34, Type (0, 1), BuildingBlock: XIVTED_clean_linker_0, # of connection points: 2
#     Edge 35, Type (0, 1), BuildingBlock: XIVTED_clean_linker_0, # of connection points: 2
#     Edge 36, Type (0, 1), BuildingBlock: XIVTED_clean_linker_0, # of connection points: 2
#     Edge 37, Type (0, 1), BuildingBlock: XIVTED_clean_linker_0, # of connection points: 2
#     Edge 38, Type (0, 1), BuildingBlock: XIVTED_clean_linker_0, # of connection points: 2
#     Edge 39, Type (0, 1), BuildingBlock: XIVTED_clean_linker_0, # of connection points: 2
#     Edge 40, Type (0, 1), BuildingBlock: XIVTED_clean_linker_0, # of connection points: 2
#     Edge 41, Type (0, 1), BuildingBlock: XIVTED_clean_linker_0, # of connection points: 2
#     Edge 42, Type (0, 1), BuildingBlock: XIVTED_clean_linker_0, # of connection points: 2
#     Edge 43, Type (0, 1), BuildingBlock: XIVTED_clean_linker_0, # of connection points: 2
#     Edge 44, Type (0, 1), BuildingBlock: XIVTED_clean_linker_0, # of connection points: 2
#     Edge 45, Type (0, 1), BuildingBlock: XIVTED_clean_linker_0, # of connection points: 2
#     Edge 46, Type (0, 1), BuildingBlock: XIVTED_clean_linker_0, # of connection points: 2
#     Edge 47, Type (0, 1), BuildingBlock: XIVTED_clean_linker_0, # of connection points: 2
#     Edge 48, Type (0, 1), BuildingBlock: XIVTED_clean_linker_0, # of connection points: 2
#     Edge 49, Type (0, 1), BuildingBlock: XIVTED_clean_linker_0, # of connection points: 2
#     Edge 50, Type (0, 1), BuildingBlock: XIVTED_clean_linker_0, # of connection points: 2
#     Edge 51, Type (0, 1), BuildingBlock: XIVTED_clean_linker_0, # of connection points: 2
#     Edge 52, Type (0, 1), BuildingBlock: XIVTED_clean_linker_0, # of connection points: 2
#     Edge 53, Type (0, 1), BuildingBlock: XIVTED_clean_linker_0, # of connection points: 2
#     Edge 54, Type (0, 1), BuildingBlock: XIVTED_clean_linker_0, # of connection points: 2
#     Edge 55, Type (0, 1), BuildingBlock: XIVTED_clean_linker_0, # of connection points: 2
#     Edge 56, Type (0, 1), BuildingBlock: XIVTED_clean_linker_0, # of connection points: 2
#     Edge 57, Type (0, 1), BuildingBlock: XIVTED_clean_linker_0, # of connection points: 2
#     Edge 58, Type (0, 1), BuildingBlock: XIVTED_clean_linker_0, # of connection points: 2
#     Edge 59, Type (0, 1), BuildingBlock: XIVTED_clean_linker_0, # of connection points: 2
#     Edge 60, Type (0, 1), BuildingBlock: XIVTED_clean_linker_0, # of connection points: 2
#     Edge 61, Type (0, 1), BuildingBlock: XIVTED_clean_linker_0, # of connection points: 2
#     Edge 62, Type (0, 1), BuildingBlock: XIVTED_clean_linker_0, # of connection points: 2
#     Edge 63, Type (0, 1), BuildingBlock: XIVTED_clean_linker_0, # of connection points: 2
#     Edge 64, Type (0, 1), BuildingBlock: XIVTED_clean_linker_0, # of connection points: 2
#     Edge 65, Type (0, 1), BuildingBlock: XIVTED_clean_linker_0, # of connection points: 2
#     Edge 66, Type (0, 1), BuildingBlock: XIVTED_clean_linker_0, # of connection points: 2
#     Edge 67, Type (0, 1), BuildingBlock: XIVTED_clean_linker_0, # of connection points: 2
# Relax obj value: 0.200
# Max RMSD: 0.165
# Mean RMSD: 0.125
data_MOF--net-myd--node1-NAWXER_clean_sbu_0--node2-VOLQOD_clean_sbu_1--edge1-XIVTED_clean_linker_0
_symmetry_space_group_name_H-M    P1
_symmetry_Int_Tables_number       1
_symmetry_cell_setting            triclinic
loop_
_symmetry_equiv_pos_as_xyz
'x, y, z'
_cell_length_a     46.902732
_cell_length_b     47.030355
_cell_length_c     46.98483
_cell_angle_alpha  91.165892
_cell_angle_beta   89.985747
_cell_angle_gamma 91.149911
loop_
_atom_site_label
_atom_site_type_symbol
_atom_site_fract_x
_atom_site_fract_y
_atom_site_fract_z
_atom_type_partial_charge
C0 C 0.03236 0.2177 0.28274 0.0
C1 C 0.03223 0.28455 0.36255 0.0
O2 O 0.0536 0.22703 0.29715 0.0
Zn3 Zn 0.03239 0.25073 0.32315 0.0
O4 O 0.00718 0.22558 0.28936 0.0
Zn5 Zn 0.98736 0.25221 0.32073 0.0
O6 O 0.96898 0.27917 0.2971 0.0
O7 O 0.016 0.28291 0.29584 0.0
O8 O 0.00688 0.27861 0.35363 0.0
O9 O 0.05348 0.27282 0.3508 0.0
O10 O 0.00974 0.21985 0.3479 0.0
O11 O 0.96362 0.22522 0.34055 0.0
C12 C 0.99147 0.29127 0.28778 0.0
C13 C 0.98376 0.21218 0.35231 0.0
C14 C 0.98661 0.78078 0.23064 0.0
C15 C 0.98085 0.71798 0.14661 0.0
O16 O 0.01078 0.77179 0.22211 0.0
Zn17 Zn 0.02796 0.74703 0.18817 0.0
O18 O 0.96413 0.77425 0.21667 0.0
Zn19 Zn 0.9824 0.75052 0.18759 0.0
O20 O 0.99869 0.71567 0.21112 0.0
O21 O 0.0458 0.71697 0.20902 0.0
O22 O 0.96001 0.72976 0.15923 0.0
O23 O 0.00639 0.72308 0.15526 0.0
O24 O 0.0509 0.77446 0.16761 0.0
O25 O 0.00469 0.78104 0.16281 0.0
C26 C 0.02279 0.70508 0.21749 0.0
C27 C 0.0305 0.78816 0.157 0.0
C28 C 0.36458 0.03896 0.2212 0.0
C29 C 0.28227 0.02844 0.2841 0.0
O30 O 0.35914 0.01312 0.2278 0.0
Zn31 Zn 0.32966 0.98986 0.25349 0.0
O32 O 0.35004 0.05885 0.23234 0.0
Zn33 Zn 0.3241 0.0351 0.25388 0.0
O34 O 0.34954 0.01981 0.28793 0.0
O35 O 0.35393 0.9734 0.28193 0.0
O36 O 0.29168 0.05152 0.27362 0.0
O37 O 0.29471 0.00499 0.27837 0.0
O38 O 0.30985 0.96599 0.2248 0.0
O39 O 0.30332 0.01209 0.22014 0.0
C40 C 0.35936 0.99612 0.29623 0.0
C41 C 0.29936 0.98645 0.2112 0.0
C42 C 0.7351 0.49651 0.22325 0.0
C43 C 0.66635 0.49054 0.30142 0.0
O44 O 0.72821 0.47103 0.22993 0.0
Zn45 Zn 0.7019 0.44918 0.25979 0.0
O46 O 0.72452 0.51741 0.23694 0.0
Zn47 Zn 0.6999 0.49464 0.26163 0.0
O48 O 0.73064 0.47613 0.2889 0.0
O49 O 0.73041 0.42949 0.28143 0.0
O50 O 0.67459 0.51283 0.28867 0.0
O51 O 0.67483 0.46612 0.29262 0.0
O52 O 0.6768 0.42784 0.23431 0.0
O53 O 0.6717 0.47426 0.23156 0.0
C54 C 0.74035 0.45155 0.29435 0.0
C55 C 0.66517 0.44896 0.22288 0.0
C56 C 0.22438 0.36274 0.97683 0.0
C57 C 0.30039 0.2925 0.97283 0.0
O58 O 0.23338 0.34966 0.95473 0.0
Zn59 Zn 0.26306 0.32813 0.97273 0.0
O60 O 0.23652 0.35908 0.00088 0.0
Zn61 Zn 0.26987 0.33433 0.01801 0.0
O62 O 0.29942 0.36171 0.03072 0.0
O63 O 0.29594 0.35815 0.98398 0.0
O64 O 0.29572 0.30369 0.99739 0.0
O65 O 0.28579 0.30015 0.95152 0.0
O66 O 0.23823 0.30109 0.99926 0.0
O67 O 0.24933 0.30951 0.04441 0.0
C68 C 0.30846 0.36858 0.00618 0.0
C69 C 0.23481 0.29569 0.02564 0.0
C70 C 0.23692 0.74416 0.48955 0.0
C71 C 0.30377 0.66733 0.50089 0.0
O72 O 0.24434 0.7329 0.46567 0.0
Zn73 Zn 0.26982 0.69823 0.45087 0.0
O74 O 0.24608 0.73411 0.51262 0.0
Zn75 Zn 0.26921 0.70451 0.49591 0.0
O76 O 0.302 0.72692 0.47331 0.0
O77 O 0.29735 0.71756 0.42705 0.0
O78 O 0.29194 0.68209 0.52039 0.0
O79 O 0.29711 0.67099 0.47474 0.0
O80 O 0.24248 0.67234 0.43331 0.0
O81 O 0.23856 0.67457 0.48011 0.0
C82 C 0.31054 0.7299 0.44761 0.0
C83 C 0.23039 0.66423 0.45601 0.0
C84 C 0.73309 0.84441 0.49429 0.0
C85 C 0.80458 0.77188 0.49039 0.0
O86 O 0.74414 0.83263 0.47253 0.0
Zn87 Zn 0.76985 0.80908 0.49237 0.0
O88 O 0.74138 0.83783 0.5193 0.0
Zn89 Zn 0.771 0.80894 0.53744 0.0
O90 O 0.79828 0.83276 0.55807 0.0
O91 O 0.80005 0.83819 0.5115 0.0
O92 O 0.79791 0.77868 0.51608 0.0
O93 O 0.79375 0.78501 0.46979 0.0
O94 O 0.74174 0.77861 0.51213 0.0
O95 O 0.74599 0.78417 0.55877 0.0
C96 C 0.80903 0.84484 0.53655 0.0
C97 C 0.73471 0.77134 0.53738 0.0
C98 C 0.52167 0.77497 0.78268 0.0
C99 C 0.52191 0.70931 0.86272 0.0
O100 O 0.49686 0.76682 0.79085 0.0
Zn101 Zn 0.47758 0.74271 0.82379 0.0
O102 O 0.54356 0.76808 0.79678 0.0
Zn103 Zn 0.52329 0.74512 0.82522 0.0
O104 O 0.50454 0.71151 0.79904 0.0
O105 O 0.45743 0.7144 0.80035 0.0
O106 O 0.5436 0.72242 0.85271 0.0
O107 O 0.49694 0.71563 0.85408 0.0
O108 O 0.4567 0.77076 0.84588 0.0
O109 O 0.50316 0.77678 0.8507 0.0
C110 C 0.47978 0.70207 0.79146 0.0
C111 C 0.47779 0.78456 0.85659 0.0
C112 C 0.49501 0.21916 0.71991 0.0
C113 C 0.48435 0.28594 0.643 0.0
O114 O 0.47219 0.23077 0.71188 0.0
Zn115 Zn 0.48899 0.2523 0.68135 0.0
O116 O 0.51859 0.22485 0.70724 0.0
Zn117 Zn 0.53349 0.24997 0.67236 0.0
O118 O 0.56031 0.27561 0.69162 0.0
O119 O 0.51544 0.28294 0.70364 0.0
O120 O 0.51015 0.27785 0.64577 0.0
O121 O 0.46498 0.2759 0.65905 0.0
O122 O 0.50088 0.21858 0.65316 0.0
O123 O 0.5474 0.22083 0.64629 0.0
C124 C 0.542 0.28958 0.7058 0.0
C125 C 0.52343 0.20843 0.64179 0.0
C126 C 0.78377 0.4807 0.72139 0.0
C127 C 0.86627 0.47241 0.78354 0.0
O128 O 0.79587 0.5047 0.72765 0.0
Zn129 Zn 0.83286 0.52062 0.75016 0.0
O130 O 0.79481 0.45774 0.72944 0.0
Zn131 Zn 0.8267 0.47536 0.74992 0.0
O132 O 0.80586 0.49869 0.78335 0.0
O133 O 0.81434 0.54486 0.77841 0.0
O134 O 0.85163 0.45225 0.772 0.0
O135 O 0.86161 0.49817 0.77674 0.0
O136 O 0.85705 0.53709 0.72083 0.0
O137 O 0.85257 0.49048 0.71632 0.0
C138 C 0.8028 0.52447 0.79197 0.0
C139 C 0.86258 0.51417 0.70734 0.0
C140 C 0.23231 0.98666 0.70842 0.0
C141 C 0.15449 -0.00084 0.77642 0.0
O142 O 0.21553 0.96729 0.7175 0.0
Zn143 Zn 0.19117 0.99191 0.74032 0.0
O144 O 0.22783 0.01272 0.71512 0.0
Zn145 Zn 0.19816 0.03703 0.73938 0.0
O146 O 0.22325 0.0564 0.76625 0.0
O147 O 0.22052 0.00974 0.77123 0.0
O148 O 0.16565 0.0226 0.76788 0.0
O149 O 0.16253 0.9757 0.76542 0.0
O150 O 0.16675 0.01319 0.7094 0.0
O151 O 0.17879 0.05886 0.71122 0.0
C152 C 0.23063 0.03418 0.77916 0.0
C153 C 0.16413 0.03848 0.70025 0.0
C154 C 0.73004 0.12986 0.01333 0.0
C155 C 0.80171 0.20584 0.02006 0.0
O156 O 0.73997 0.14191 0.03576 0.0
Zn157 Zn 0.76753 0.16643 0.01772 0.0
O158 O 0.74057 0.13611 0.98898 0.0
Zn159 Zn 0.77241 0.16482 0.97258 0.0
O160 O 0.80216 0.14143 0.95614 0.0
O161 O 0.80059 0.13904 0.00293 0.0
O162 O 0.79696 0.19683 0.99458 0.0
O163 O 0.78934 0.19383 0.04085 0.0
O164 O 0.74023 0.19411 0.99431 0.0
O165 O 0.74996 0.18906 0.9485 0.0
C166 C 0.81206 0.13188 0.97915 0.0
C167 C 0.73576 0.20091 0.9684 0.0
O168 O 0.12213 0.02531 0.09503 0.0
Zn169 Zn 0.08221 0.0362 0.08677 0.0
O170 O 0.07844 0.04977 0.04857 0.0
Zn171 Zn 0.06101 0.08696 0.04903 0.0
Zn172 Zn 0.11648 0.05323 0.03252 0.0
Zn173 Zn 0.05454 0.02295 0.02656 0.0
O174 O 0.02446 0.08648 0.02603 0.0
O175 O 0.01579 0.04014 0.01888 0.0
O176 O 0.06978 0.06492 0.11594 0.0
O177 O 0.05109 0.09833 0.08933 0.0
O178 O 0.089 0.11789 0.037 0.0
O179 O 0.12958 0.09442 0.03383 0.0
O180 O 0.11463 0.0395 0.9917 0.0
O181 O 0.06138 -0.00052 0.09142 0.0
O182 O 0.0731 0.01573 0.98822 0.0
O183 O 0.04957 0.9856 0.04742 0.0
C184 C 0.14456 0.02249 0.08015 0.0
C185 C 0.0081 0.06599 0.01761 0.0
C186 C 0.11607 0.11768 0.03438 0.0
C187 C 0.05699 0.08836 0.11358 0.0
C188 C 0.09651 0.02454 0.97734 0.0
C189 C 0.05221 0.98051 0.07386 0.0
O190 O 0.14573 0.03096 0.05456 0.0
O191 O 0.91903 0.47318 0.1026 0.0
Zn192 Zn 0.95952 0.46582 0.09111 0.0
O193 O 0.96106 0.44912 0.0531 0.0
Zn194 Zn 0.97858 0.41217 0.05409 0.0
Zn195 Zn 0.92246 0.44507 0.03871 0.0
Zn196 Zn 0.98319 0.47381 0.02825 0.0
O197 O 0.01551 0.41215 0.03171 0.0
O198 O 0.02277 0.45791 0.02192 0.0
O199 O 0.97627 0.44058 0.12098 0.0
O200 O 0.98692 0.40261 0.09448 0.0
O201 O 0.95134 0.38062 0.0414 0.0
O202 O 0.91094 0.40414 0.03739 0.0
O203 O 0.921 0.45679 0.99812 0.0
O204 O 0.97645 0.50493 0.09125 0.0
O205 O 0.96428 0.47464 0.98935 0.0
O206 O 0.98489 0.51379 0.04559 0.0
C207 C 0.89543 0.47375 0.08929 0.0
C208 C 0.03122 0.43226 0.0221 0.0
C209 C 0.92449 0.381 0.03744 0.0
C210 C 0.98517 0.41521 0.11863 0.0
C211 C 0.93933 0.46708 0.98098 0.0
C212 C 0.98249 0.52218 0.07148 0.0
O213 O 0.89346 0.46525 0.06342 0.0
O214 O 0.11139 0.93048 0.47042 0.0
Zn215 Zn 0.09302 0.96778 0.46275 0.0
O216 O 0.05366 0.96203 0.45076 0.0
Zn217 Zn 0.04934 0.97363 0.41096 0.0
Zn218 Zn 0.04285 0.922 0.45536 0.0
Zn219 Zn 0.02948 0.98511 0.47522 0.0
O220 O 0.02382 0.00779 0.40865 0.0
O221 O 0.01343 0.01738 0.45393 0.0
O222 O 0.11614 0.98547 0.43204 0.0
O223 O 0.08778 0.98601 0.39422 0.0
O224 O 0.03241 0.94106 0.38694 0.0
O225 O 0.02983 0.90559 0.41751 0.0
O226 O 0.00965 0.91751 0.48247 0.0
O227 O 0.09625 0.99221 0.49833 0.0
O228 O 0.997 0.96214 0.49099 0.0
O229 O 0.05123 0.0019 0.5084 0.0
C230 C 0.10216 0.90499 0.47261 0.0
C231 C 0.01206 0.02331 0.42768 0.0
C232 C 0.02628 0.91523 0.39262 0.0
C233 C 0.11207 0.99055 0.40588 0.0
C234 C 0.99278 0.93552 0.49358 0.0
C235 C 0.07766 0.00371 0.51434 0.0
O236 O 0.07596 0.89848 0.46854 0.0
O237 O 0.99195 0.58495 0.39286 0.0
Zn238 Zn 0.98227 0.57983 0.43351 0.0
O239 O 0.97101 0.54099 0.44063 0.0
Zn240 Zn 0.93246 0.53982 0.45527 0.0
Zn241 Zn 0.97372 0.51874 0.40515 0.0
Zn242 Zn 0.99619 0.52633 0.46966 0.0
O243 O 0.93136 0.52649 0.4955 0.0
O244 O 0.97696 0.5255 0.50831 0.0
O245 O 0.95196 0.60735 0.4437 0.0
O246 O 0.91599 0.57901 0.45664 0.0
O247 O 0.90733 0.51457 0.43079 0.0
O248 O 0.9351 0.50143 0.39472 0.0
O249 O -7e-05 0.48612 0.41142 0.0
O250 O 0.01861 0.59021 0.45273 0.0
O251 O 0.00767 0.4867 0.45829 0.0
O252 O 0.03238 0.55013 0.47215 0.0
C253 C 0.99413 0.56889 0.37098 0.0
C254 C 0.95051 0.52385 0.5144 0.0
C255 C 0.911 0.50114 0.4073 0.0
C256 C 0.92638 0.60371 0.45203 0.0
C257 C 0.00991 0.47496 0.43374 0.0
C258 C 0.03737 0.57574 0.46506 0.0
O259 O 0.98796 0.54239 0.37178 0.0
O260 O 0.4316 0.9521 0.60414 0.0
Zn261 Zn 0.47235 0.94936 0.59046 0.0
O262 O 0.47311 0.93716 0.55078 0.0
Zn263 Zn 0.48874 0.89922 0.54774 0.0
Zn264 Zn 0.4348 0.93749 0.53525 0.0
Zn265 Zn 0.49609 0.96326 0.52839 0.0
O266 O 0.52713 0.901 0.52876 0.0
O267 O 0.53403 0.9467 0.51899 0.0
O268 O 0.49174 0.92095 0.61582 0.0
O269 O 0.49486 0.88308 0.58691 0.0
O270 O 0.46351 0.87305 0.52371 0.0
O271 O 0.42659 0.9005 0.51527 0.0
O272 O 0.43074 0.96595 0.50416 0.0
O273 O 0.48981 0.98874 0.5945 0.0
O274 O 0.47605 0.97171 0.49141 0.0
O275 O 0.50329 -0.0003 0.55055 0.0
C276 C 0.40729 0.94905 0.59221 0.0
C277 C 0.54264 0.92125 0.51932 0.0
C278 C 0.43954 0.87718 0.51191 0.0
C279 C 0.49731 0.89474 0.61159 0.0
C280 C 0.44951 0.97403 0.48632 0.0
C281 C 0.50033 0.0063 0.57681 0.0
O282 O 0.40506 0.94331 0.56568 0.0
O283 O 0.5855 0.51137 0.61573 0.0
Zn284 Zn 0.5474 0.52329 0.60037 0.0
O285 O 0.55258 0.54223 0.5641 0.0
Zn286 Zn 0.54195 0.58167 0.56905 0.0
Zn287 Zn 0.5922 0.53993 0.55198 0.0
Zn288 Zn 0.52847 0.5244 0.53462 0.0
O289 O 0.50831 0.59052 0.54515 0.0
O290 O 0.49413 0.54853 0.52721 0.0
O291 O 0.5288 0.54837 0.63043 0.0
O292 O 0.5276 0.58953 0.60832 0.0
O293 O 0.57483 0.60859 0.562 0.0
O294 O 0.60992 0.57935 0.55071 0.0
O295 O 0.59541 0.52327 0.51223 0.0
O296 O 0.52311 0.48805 0.59423 0.0
O297 O 0.55034 0.51935 0.4977 0.0
O298 O 0.51426 0.48588 0.54762 0.0
C299 C 0.61024 0.50921 0.60475 0.0
C300 C 0.49007 0.57493 0.53182 0.0
C301 C 0.60068 0.60435 0.55511 0.0
C302 C 0.52265 0.57461 0.63008 0.0
C303 C 0.57702 0.51805 0.49277 0.0
C304 C 0.51248 0.47534 0.57236 0.0
O305 O 0.61553 0.51769 0.57966 0.0
O306 O 0.63283 0.39823 0.95219 0.0
Zn307 Zn 0.62149 0.43879 0.96002 0.0
O308 O 0.58313 0.44474 0.94702 0.0
Zn309 Zn 0.58357 0.46575 0.91199 0.0
Zn310 Zn 0.56585 0.4074 0.94125 0.0
Zn311 Zn 0.56219 0.4668 0.975 0.0
O312 O 0.55884 0.50024 0.91489 0.0
O313 O 0.55819 0.50769 0.96185 0.0
O314 O 0.64953 0.46523 0.94063 0.0
O315 O 0.6231 0.48167 0.90557 0.0
O316 O 0.57336 0.44027 0.87803 0.0
O317 O 0.56367 0.39932 0.89926 0.0
O318 O 0.52576 0.4068 0.95766 0.0
O319 O 0.62266 0.44433 0.00257 0.0
O320 O 0.52279 0.44903 0.97978 0.0
O321 O 0.58173 0.46517 0.01319 0.0
C322 C 0.61813 0.37529 0.95433 0.0
C323 C 0.55438 0.51631 0.93656 0.0
C324 C 0.56694 0.4138 0.87684 0.0
C325 C 0.64681 0.48045 0.91867 0.0
C326 C 0.51167 0.42511 0.97205 0.0
C327 C 0.60542 0.45482 0.02075 0.0
O328 O 0.59093 0.37571 0.95567 0.0
O329 O 0.49212 0.09814 0.90386 0.0
Zn330 Zn 0.48235 0.09368 0.94509 0.0
O331 O 0.45867 0.05948 0.95026 0.0
Zn332 Zn 0.42253 0.07041 0.96696 0.0
Zn333 Zn 0.45125 0.04111 0.91371 0.0
Zn334 Zn 0.47771 0.03285 0.97521 0.0
O335 O 0.42075 0.05937 0.00743 0.0
O336 O 0.45939 0.03393 0.01473 0.0
O337 O 0.46129 0.13003 0.95485 0.0
O338 O 0.41913 0.11226 0.96775 0.0
O339 O 0.3883 0.05596 0.9448 0.0
O340 O 0.40962 0.0388 0.90612 0.0
O341 O 0.46284 0.00051 0.9136 0.0
O342 O 0.51903 0.0908 0.96721 0.0
O343 O 0.47636 0.99244 0.95805 0.0
O344 O 0.51885 0.04561 0.98076 0.0
C345 C 0.4844 0.0853 0.88095 0.0
C346 C 0.43684 0.04581 0.02392 0.0
C347 C 0.38719 0.04457 0.92004 0.0
C348 C 0.43562 0.1333 0.96289 0.0
C349 C 0.47067 0.98357 0.93276 0.0
C350 C 0.53132 0.06982 0.97844 0.0
O351 O 0.46856 0.063 0.88132 0.0
H352 H 0.94781 0.16809 0.33789 0.0
H353 H 0.00253 0.06974 0.46179 0.0
H354 H 0.00813 0.19696 0.40192 0.0
H355 H 0.99219 0.03849 0.37526 0.0
H356 H 0.9875 0.11664 0.44689 0.0
H357 H 0.94724 0.12061 0.35904 0.0
C358 C 0.96016 0.16463 0.35695 0.0
C359 C 0.97809 0.18621 0.36829 0.0
C360 C 0.98805 0.09931 0.43135 0.0
C361 C 0.97734 0.13264 0.3924 0.0
C362 C 0.99655 0.07255 0.43977 0.0
C363 C 0.999 0.05029 0.4196 0.0
C364 C 0.98144 0.10367 0.40273 0.0
C365 C 0.99096 0.0552 0.39138 0.0
C366 C 0.96 0.13762 0.36878 0.0
C367 C 0.9941 0.18073 0.39263 0.0
N368 N 0.98265 0.08149 0.3837 0.0
N369 N 0.99341 0.15439 0.4039 0.0
H370 H 0.9958 0.3021 0.40428 0.0
H371 H 0.04469 0.45556 0.39177 0.0
H372 H 0.07805 0.32086 0.36721 0.0
H373 H 0.00261 0.43016 0.46907 0.0
H374 H 0.05834 0.40622 0.38298 0.0
H375 H 0.99828 0.34778 0.43017 0.0
C376 C 0.01469 0.31554 0.40219 0.0
C377 C 0.03657 0.308 0.38335 0.0
C378 C 0.04673 0.41156 0.40224 0.0
C379 C 0.03919 0.36025 0.41217 0.0
C380 C 0.03882 0.4396 0.40713 0.0
C381 C 0.02236 0.44667 0.431 0.0
C382 C 0.03722 0.39041 0.42084 0.0
C383 C 0.01531 0.42538 0.4504 0.0
C384 C 0.01614 0.3415 0.41702 0.0
C385 C 0.06066 0.32602 0.38145 0.0
N386 N 0.02212 0.39793 0.4445 0.0
N387 N 0.06098 0.35178 0.39505 0.0
H388 H 0.995 0.8111 0.11809 0.0
H389 H 0.07592 0.95885 0.12116 0.0
H390 H 0.07775 0.82323 0.1571 0.0
H391 H 0.02138 0.93526 0.05011 0.0
H392 H 0.07288 0.91025 0.13758 0.0
H393 H 0.00111 0.85694 0.09477 0.0
C394 C 0.01461 0.82327 0.12146 0.0
C395 C 0.03586 0.81351 0.13971 0.0
C396 C 0.06162 0.91565 0.11837 0.0
C397 C 0.04262 0.86597 0.11359 0.0
C398 C 0.06302 0.9435 0.10911 0.0
C399 C 0.04863 0.95123 0.0843 0.0
C400 C 0.04529 0.89531 0.1031 0.0
C401 C 0.03268 0.93021 0.06939 0.0
C402 C 0.01806 0.84933 0.10809 0.0
C403 C 0.06088 0.82997 0.14321 0.0
N404 N 0.03118 0.90315 0.0792 0.0
N405 N 0.06337 0.85567 0.13064 0.0
H406 H 0.01772 0.69932 0.10573 0.0
H407 H 0.9535 0.54676 0.1149 0.0
H408 H 0.93413 0.68277 0.14076 0.0
H409 H 0.00761 0.5675 0.04358 0.0
H410 H 0.9485 0.59707 0.12564 0.0
H411 H 0.01571 0.65268 0.08159 0.0
C412 C 0.99859 0.6862 0.10766 0.0
C413 C 0.9762 0.69468 0.12558 0.0
C414 C 0.96136 0.5907 0.10754 0.0
C415 C 0.97419 0.64128 0.09874 0.0
C416 C 0.96464 0.56193 0.10162 0.0
C417 C 0.98141 0.55288 0.07853 0.0
C418 C 0.9754 0.61081 0.09068 0.0
C419 C 0.99472 0.57362 0.06173 0.0
C420 C 0.99752 0.65962 0.09391 0.0
C421 C 0.9519 0.677 0.12726 0.0
N422 N 0.9918 0.60176 0.0684 0.0
N423 N 0.95183 0.65078 0.1146 0.0
H424 H 0.40457 0.00355 0.19869 0.0
H425 H 0.40093 0.08156 0.05168 0.0
H426 H 0.36777 0.086 0.18784 0.0
H427 H 0.45785 0.01234 0.06649 0.0
H428 H 0.38991 0.08368 0.10211 0.0
H429 H 0.42699 0.0073 0.15194 0.0
C430 C 0.40175 0.02275 0.18676 0.0
C431 C 0.38394 0.04435 0.19701 0.0
C432 C 0.40494 0.0681 0.09447 0.0
C433 C 0.40906 0.04846 0.14329 0.0
C434 C 0.41106 0.06664 0.06553 0.0
C435 C 0.4301 0.04644 0.0547 0.0
C436 C 0.41758 0.04898 0.11291 0.0
C437 C 0.44289 0.02808 0.07389 0.0
C438 C 0.4145 0.02482 0.16002 0.0
C439 C 0.3812 0.06879 0.18074 0.0
N440 N 0.43614 0.02957 0.10208 0.0
N441 N 0.39316 0.06994 0.15444 0.0
H442 H 0.62695 0.48558 0.20095 0.0
H443 H 0.64502 0.42144 0.04553 0.0
H444 H 0.66662 0.40501 0.18396 0.0
H445 H 0.58036 0.4827 0.06588 0.0
H446 H 0.65421 0.41632 0.09625 0.0
H447 H 0.609 0.48517 0.15209 0.0
C448 C 0.63131 0.46747 0.18711 0.0
C449 C 0.64843 0.44536 0.19643 0.0
C450 C 0.63791 0.43078 0.08963 0.0
C451 C 0.6287 0.44519 0.14037 0.0
C452 C 0.63286 0.43398 0.06065 0.0
C453 C 0.61203 0.45272 0.05141 0.0
C454 C 0.62234 0.44674 0.10958 0.0
C455 C 0.59669 0.46809 0.07205 0.0
C456 C 0.62116 0.46732 0.15921 0.0
C457 C 0.65345 0.42245 0.17766 0.0
N458 N 0.60233 0.46495 0.10019 0.0
N459 N 0.64409 0.42321 0.15031 0.0
H460 H 0.35604 0.03351 0.34097 0.0
H461 H 0.47604 0.96461 0.43536 0.0
H462 H 0.39862 0.95727 0.31332 0.0
H463 H 0.40071 0.00129 0.47242 0.0
H464 H 0.45606 0.97172 0.38775 0.0
H465 H 0.38052 0.03137 0.38683 0.0
C466 C 0.37079 0.01647 0.34443 0.0
C467 C 0.37526 0.99544 0.32335 0.0
C468 C 0.44416 0.9785 0.40637 0.0
C469 C 0.40355 0.99323 0.37557 0.0
C470 C 0.45561 0.97475 0.43346 0.0
C471 C 0.43996 0.98242 0.45781 0.0
C472 C 0.41724 0.99062 0.4037 0.0
C473 C 0.41341 0.99506 0.45417 0.0
C474 C 0.38461 0.01526 0.37062 0.0
C475 C 0.39445 0.97377 0.32909 0.0
N476 N 0.40289 -0.00115 0.42759 0.0
N477 N 0.40805 0.97328 0.35467 0.0
H478 H 0.66419 0.45247 0.34419 0.0
H479 H 0.5524 0.53234 0.44234 0.0
H480 H 0.63104 0.53333 0.31961 0.0
H481 H 0.62486 0.4898 0.47696 0.0
H482 H 0.57189 0.52468 0.39419 0.0
H483 H 0.6402 0.45757 0.39017 0.0
C484 C 0.6515 0.47112 0.34828 0.0
C485 C 0.64964 0.49257 0.32806 0.0
C486 C 0.58331 0.51691 0.4124 0.0
C487 C 0.62199 0.49828 0.38051 0.0
C488 C 0.57218 0.52107 0.43976 0.0
C489 C 0.58711 0.51169 0.46359 0.0
C490 C 0.60907 0.5026 0.40893 0.0
C491 C 0.61278 0.49746 0.45914 0.0
C492 C 0.638 0.47404 0.37457 0.0
C493 C 0.63311 0.51638 0.33467 0.0
N494 N 0.62286 0.49316 0.43232 0.0
N495 N 0.61977 0.51858 0.36037 0.0
H496 H 0.17734 0.35212 0.94367 0.0
H497 H 0.07927 0.46649 0.02208 0.0
H498 H 0.20996 0.40854 0.01001 0.0
H499 H 0.04846 0.38265 0.99697 0.0
H500 H 0.12731 0.45344 0.00612 0.0
H501 H 0.12976 0.37199 0.95086 0.0
C502 C 0.17467 0.36927 0.95913 0.0
C503 C 0.19755 0.3787 0.97632 0.0
C504 C 0.1099 0.43808 0.0039 0.0
C505 C 0.14343 0.40138 0.98458 0.0
C506 C 0.08254 0.44548 0.01292 0.0
C507 C 0.05994 0.42551 0.01108 0.0
C508 C 0.11444 0.41081 0.99227 0.0
C509 C 0.06536 0.39857 0.99908 0.0
C510 C 0.14751 0.38035 0.96341 0.0
C511 C 0.19282 0.40065 0.99639 0.0
N512 N 0.09203 0.39203 0.99004 0.0
N513 N 0.16626 0.41123 3e-05 0.0
H514 H 0.19348 0.65479 0.41177 0.0
H515 H 0.08297 0.55744 0.49631 0.0
H516 H 0.20983 0.63095 0.49842 0.0
H517 H 0.05878 0.62008 0.43523 0.0
H518 H 0.13273 0.57471 0.4926 0.0
H519 H 0.14706 0.6302 0.4141 0.0
C520 C 0.18755 0.64387 0.43104 0.0
C521 C 0.2052 0.64518 0.45507 0.0
C522 C 0.11633 0.58457 0.48018 0.0
C523 C 0.15247 0.61732 0.45789 0.0
C524 C 0.08805 0.57491 0.4824 0.0
C525 C 0.0667 0.5875 0.46627 0.0
C526 C 0.12313 0.60634 0.46118 0.0
C527 C 0.07442 0.60992 0.44834 0.0
C528 C 0.16105 0.6301 0.43244 0.0
C529 C 0.19655 0.63072 0.47957 0.0
N530 N 0.10203 0.61843 0.4461 0.0
N531 N 0.17061 0.61746 0.48045 0.0
H532 H 0.81864 0.89401 0.5087 0.0
H533 H 0.98234 0.8835 0.51717 0.0
H534 H 0.85615 0.83844 0.56951 0.0
H535 H 0.94357 0.96438 0.50243 0.0
H536 H 0.93674 0.86561 0.53587 0.0
H537 H 0.8641 0.92023 0.50551 0.0
C538 C 0.83634 0.88782 0.52188 0.0
C539 C 0.83384 0.86419 0.53941 0.0
C540 C 0.93845 0.88743 0.52901 0.0
C541 C 0.88591 0.89323 0.53512 0.0
C542 C 0.96434 0.89757 0.51816 0.0
C543 C 0.96662 0.92535 0.50796 0.0
C544 C 0.9146 0.90498 0.52892 0.0
C545 C 0.94272 0.94278 0.50996 0.0
C546 C 0.86221 0.90273 0.52007 0.0
C547 C 0.85733 0.85675 0.55593 0.0
N548 N 0.91751 0.93212 0.51968 0.0
N549 N 0.88272 0.87082 0.55286 0.0
H550 H 0.33485 0.66669 0.55 0.0
H551 H 0.44813 0.55375 0.49568 0.0
H552 H 0.32791 0.62657 0.46673 0.0
H553 H 0.46796 0.62359 0.55395 0.0
H554 H 0.40025 0.57307 0.48922 0.0
H555 H 0.37957 0.64213 0.55742 0.0
C556 C 0.34243 0.6523 0.5335 0.0
C557 C 0.3278 0.64886 0.50761 0.0
C558 C 0.41526 0.58408 0.5033 0.0
C559 C 0.37895 0.62093 0.5159 0.0
C560 C 0.44252 0.57318 0.50692 0.0
C561 C 0.46213 0.58718 0.52522 0.0
C562 C 0.40751 0.60869 0.51861 0.0
C563 C 0.4537 0.6122 0.5394 0.0
C564 C 0.36806 0.63852 0.53764 0.0
C565 C 0.33869 0.63 0.48692 0.0
N566 N 0.42698 0.622 0.53598 0.0
N567 N 0.36375 0.61679 0.49144 0.0
H568 H 0.48082 0.66992 0.87552 0.0
H569 H 0.57607 0.56452 0.96284 0.0
H570 H 0.56996 0.69005 0.89004 0.0
H571 H 0.51628 0.53568 0.8983 0.0
H572 H 0.56752 0.61409 0.94939 0.0
H573 H 0.48706 0.62419 0.89791 0.0
C574 C 0.50163 0.66505 0.88392 0.0
C575 C 0.525 0.68389 0.88063 0.0
C576 C 0.55608 0.59683 0.93853 0.0
C577 C 0.53202 0.63141 0.90656 0.0
C578 C 0.56071 0.56869 0.9463 0.0
C579 C 0.54674 0.54612 0.93167 0.0
C580 C 0.53674 0.60226 0.91661 0.0
C581 C 0.52743 0.55252 0.91008 0.0
C582 C 0.50512 0.63883 0.89656 0.0
C583 C 0.55141 0.67614 0.89196 0.0
N584 N 0.52286 0.58001 0.90332 0.0
N585 N 0.55426 0.65038 0.9044 0.0
H586 H 0.43066 0.81804 0.85874 0.0
H587 H 0.50204 0.9412 0.95687 0.0
H588 H 0.51585 0.81183 0.89242 0.0
H589 H 0.43895 0.95583 0.89222 0.0
H590 H 0.50172 0.89046 0.94255 0.0
H591 H 0.42728 0.86538 0.88106 0.0
C592 C 0.44844 0.82639 0.87125 0.0
C593 C 0.47367 0.81109 0.87349 0.0
C594 C 0.48791 0.90489 0.93168 0.0
C595 C 0.46994 0.86516 0.89903 0.0
C596 C 0.48807 0.93374 0.93983 0.0
C597 C 0.47079 0.95279 0.92546 0.0
C598 C 0.46983 0.89508 0.90955 0.0
C599 C 0.45297 0.942 0.90359 0.0
C600 C 0.44658 0.85347 0.88381 0.0
C601 C 0.49611 0.82304 0.88991 0.0
N602 N 0.4529 0.91392 0.89638 0.0
N603 N 0.49378 0.84943 0.90198 0.0
H604 H 0.44275 0.32542 0.6489 0.0
H605 H 0.51423 0.42938 0.53584 0.0
H606 H 0.51343 0.30155 0.5953 0.0
H607 H 0.48118 0.45691 0.6173 0.0
H608 H 0.49896 0.38036 0.54636 0.0
H609 H 0.44151 0.37134 0.62522 0.0
C610 C 0.45739 0.32946 0.63154 0.0
C611 C 0.47853 0.30993 0.6243 0.0
C612 C 0.49454 0.39733 0.56157 0.0
C613 C 0.47711 0.36209 0.59727 0.0
C614 C 0.50314 0.42519 0.55559 0.0
C615 C 0.49927 0.44699 0.57596 0.0
C616 C 0.48148 0.39154 0.58776 0.0
C617 C 0.4849 0.44054 0.60126 0.0
C618 C 0.45676 0.35569 0.6182 0.0
C619 C 0.49707 0.31627 0.60175 0.0
N620 N 0.47664 0.41334 0.60653 0.0
N621 N 0.49615 0.342 0.5892 0.0
H622 H 0.56535 0.17882 0.61306 0.0
H623 H 0.47972 0.03372 0.62379 0.0
H624 H 0.47687 0.17334 0.63844 0.0
H625 H 0.53558 0.04597 0.55178 0.0
H626 H 0.48677 0.08374 0.63721 0.0
H627 H 0.56184 0.12891 0.59599 0.0
C628 C 0.54518 0.16734 0.6147 0.0
C629 C 0.52142 0.18025 0.62734 0.0
C630 C 0.49759 0.07539 0.61856 0.0
C631 C 0.51767 0.12352 0.60881 0.0
C632 C 0.49377 0.04683 0.611 0.0
C633 C 0.50694 0.03574 0.58653 0.0
C634 C 0.51509 0.0929 0.60186 0.0
C635 C 0.52485 0.05381 0.57069 0.0
C636 C 0.54326 0.13898 0.60506 0.0
C637 C 0.49581 0.16437 0.62898 0.0
N638 N 0.52851 0.08164 0.57868 0.0
N639 N 0.49477 0.13677 0.62026 0.0
H640 H 0.86331 0.47248 0.66655 0.0
H641 H 0.97584 0.54515 0.56316 0.0
H642 H 0.89853 0.55605 0.68651 0.0
H643 H 0.90388 0.49457 0.53293 0.0
H644 H 0.95674 0.54234 0.61194 0.0
H645 H 0.88762 0.47324 0.62072 0.0
C646 C 0.8764 0.49092 0.66143 0.0
C647 C 0.87877 0.51434 0.68034 0.0
C648 C 0.94537 0.53174 0.59455 0.0
C649 C 0.90685 0.5151 0.62793 0.0
C650 C 0.95631 0.5331 0.56688 0.0
C651 C 0.94133 0.52006 0.54411 0.0
C652 C 0.91979 0.5166 0.59935 0.0
C653 C 0.91598 0.505 0.54991 0.0
C654 C 0.89015 0.49133 0.63522 0.0
C655 C 0.89598 0.53766 0.67244 0.0
N656 N 0.90609 0.50355 0.57698 0.0
N657 N 0.90949 0.53745 0.64676 0.0
H658 H 0.11238 0.01399 0.68971 0.0
H659 H 0.04437 0.01825 0.56 0.0
H660 H 0.17509 0.07141 0.65424 0.0
H661 H 0.13154 0.02103 0.53034 0.0
H662 H 0.06072 0.0352 0.60689 0.0
H663 H 0.08662 0.01331 0.64451 0.0
C664 C 0.12025 0.02705 0.67255 0.0
C665 C 0.14575 0.04281 0.67552 0.0
C666 C 0.07616 0.03227 0.59 0.0
C667 C 0.1168 0.04186 0.6238 0.0
C668 C 0.06689 0.02275 0.56321 0.0
C669 C 0.08673 0.0176 0.54141 0.0
C670 C 0.10541 0.03683 0.5949 0.0
C671 C 0.1156 0.02414 0.54673 0.0
C672 C 0.10549 0.02681 0.64685 0.0
C673 C 0.15532 0.0592 0.6527 0.0
N674 N 0.12413 0.03324 0.57305 0.0
N675 N 0.1412 0.0577 0.62742 0.0
H676 H 0.86717 0.42526 0.81667 0.0
H677 H 0.965 0.49793 0.9384 0.0
H678 H 0.90654 0.50833 0.80753 0.0
H679 H 0.89774 0.43605 0.95362 0.0
H680 H 0.95275 0.49621 0.88746 0.0
H681 H 0.88903 0.42218 0.86371 0.0
C682 C 0.881 0.44253 0.8242 0.0
C683 C 0.88475 0.46724 0.8083 0.0
C684 C 0.94082 0.48301 0.90207 0.0
C685 C 0.90949 0.46398 0.86219 0.0
C686 C 0.9477 0.48404 0.93107 0.0
C687 C 0.93213 0.4674 0.95034 0.0
C688 C 0.91866 0.46476 0.89233 0.0
C689 C 0.91006 0.44959 0.93965 0.0
C690 C 0.89322 0.44088 0.85118 0.0
C691 C 0.90284 0.48901 0.81924 0.0
N692 N 0.90407 0.44869 0.91141 0.0
N693 N 0.91434 0.48701 0.84566 0.0
H694 H 0.13715 0.95487 0.81052 0.0
H695 H 0.12744 0.05771 0.94172 0.0
H696 H 0.13163 0.04584 0.80186 0.0
H697 H 0.07762 0.97959 0.94341 0.0
H698 H 0.13508 0.05022 0.89081 0.0
H699 H 0.11848 0.95981 0.85931 0.0
C700 C 0.13134 0.97572 0.81852 0.0
C701 C 0.13647 5e-05 0.80226 0.0
C702 C 0.1224 0.03475 0.90231 0.0
C703 C 0.11601 0.00576 0.85785 0.0
C704 C 0.11827 0.03885 0.93139 0.0
C705 C 0.10193 0.0192 0.94677 0.0
C706 C 0.11068 0.0105 0.88852 0.0
C707 C 0.09031 0.99526 0.93221 0.0
C708 C 0.12084 0.97849 0.84635 0.0
C709 C 0.12856 0.02654 0.81374 0.0
N710 N 0.09519 0.99134 0.90382 0.0
N711 N 0.11934 0.02875 0.84101 0.0
H712 H 0.69337 0.84255 0.45203 0.0
H713 H 0.59048 0.95468 0.5257 0.0
H714 H 0.71625 0.88726 0.5301 0.0
H715 H 0.56054 0.87379 0.49115 0.0
H716 H 0.63963 0.94144 0.51391 0.0
H717 H 0.64733 0.86638 0.45262 0.0
C718 C 0.68902 0.85798 0.46883 0.0
C719 C 0.70836 0.8628 0.49125 0.0
C720 C 0.62214 0.92691 0.50853 0.0
C721 C 0.65629 0.89007 0.49178 0.0
C722 C 0.59425 0.9344 0.51515 0.0
C723 C 0.57167 0.91509 0.50961 0.0
C724 C 0.62716 0.90036 0.49561 0.0
C725 C 0.57752 0.88905 0.49604 0.0
C726 C 0.66278 0.87137 0.4692 0.0
C727 C 0.70168 0.88281 0.51262 0.0
N728 N 0.60478 0.8824 0.48947 0.0
N729 N 0.67603 0.89568 0.51247 0.0
H730 H 0.71307 0.0866 0.97715 0.0
H731 H 0.57329 0.0302 0.97921 0.0
H732 H 0.68605 0.13535 0.05072 0.0
H733 H 0.55676 0.11806 0.00028 0.0
H734 H 0.62361 0.03843 0.99231 0.0
H735 H 0.66472 0.06611 0.97281 0.0
C736 C 0.69714 0.09236 0.99283 0.0
C737 C 0.70349 0.1126 0.01436 0.0
C738 C 0.60882 0.05576 0.99419 0.0
C739 C 0.6483 0.08989 0.00914 0.0
C740 C 0.5802 0.0511 0.98689 0.0
C741 C 0.56102 0.07362 0.98835 0.0
C742 C 0.61801 0.08294 0.00358 0.0
C743 C 0.57098 0.10027 0.99846 0.0
C744 C 0.66965 0.08064 0.99039 0.0
C745 C 0.68207 0.11962 0.03397 0.0
N746 N 0.59881 0.10417 0.00579 0.0
N747 N 0.65517 0.10885 0.03043 0.0
H748 H 0.33365 0.38307 0.95618 0.0
H749 H 0.48017 0.44558 0.01709 0.0
H750 H 0.34689 0.38858 0.04712 0.0
H751 H 0.47404 0.39099 0.94232 0.0
H752 H 0.42932 0.43579 0.02681 0.0
H753 H 0.38276 0.39888 0.94893 0.0
C754 C 0.34666 0.3881 0.97472 0.0
C755 C 0.33607 0.38409 0.00238 0.0
C756 C 0.43925 0.42601 0.00835 0.0
C757 C 0.39261 0.40231 0.99396 0.0
C758 C 0.46814 0.43158 0.00273 0.0
C759 C 0.48136 0.41897 0.97889 0.0
C760 C 0.42338 0.40842 0.98951 0.0
C761 C 0.46482 0.40098 0.96103 0.0
C762 C 0.37481 0.39693 0.97047 0.0
C763 C 0.35414 0.39123 0.02544 0.0
N764 N 0.43667 0.39649 0.96655 0.0
N765 N 0.38167 0.39988 0.02073 0.0
H766 H 0.82794 0.09133 0.01647 0.0
H767 H 0.99114 0.1135 0.99021 0.0
H768 H 0.85785 0.13742 0.94352 0.0
H769 H 0.95916 0.03348 0.02171 0.0
H770 H 0.94252 0.1254 0.97614 0.0
H771 H 0.87566 0.07166 0.02192 0.0
C772 C 0.84443 0.09687 0.00129 0.0
C773 C 0.83894 0.11593 0.97944 0.0
C774 C 0.94624 0.10511 0.98584 0.0
C775 C 0.89366 0.09433 0.98616 0.0
C776 C 0.9739 0.09837 0.99401 0.0
C777 C 0.97917 0.07248 0.00719 0.0
C778 C 0.92354 0.0862 0.99163 0.0
C779 C 0.95604 0.05361 0.01152 0.0
C780 C 0.8716 0.08567 0.00442 0.0
C781 C 0.86112 0.12259 0.96048 0.0
N782 N 0.92914 0.06105 0.00421 0.0
N783 N 0.88769 0.11226 0.96462 0.0
H784 H 0.07838 0.18457 0.27032 0.0
H785 H 0.01916 0.13153 0.11965 0.0
H786 H 0.99486 0.20595 0.23973 0.0
H787 H 0.08171 0.08478 0.16601 0.0
H788 H 0.01273 0.16251 0.1615 0.0
H789 H 0.08329 0.1514 0.22971 0.0
C790 C 0.06116 0.18234 0.25504 0.0
C791 C 0.03619 0.19797 0.25835 0.0
C792 C 0.02769 0.14531 0.16254 0.0
C793 C 0.04169 0.1604 0.21206 0.0
C794 C 0.03138 0.12767 0.13869 0.0
C795 C 0.05097 0.10556 0.13939 0.0
C796 C 0.04409 0.14113 0.18703 0.0
C797 C 0.06626 0.10148 0.16463 0.0
C798 C 0.06389 0.16333 0.23203 0.0
C799 C 0.01443 0.19421 0.23804 0.0
N800 N 0.06271 0.11932 0.18739 0.0
N801 N 0.01776 0.17593 0.21564 0.0
H802 H 0.02859 0.33573 0.27848 0.0
H803 H 0.97891 0.35805 0.12295 0.0
H804 H 0.95086 0.29591 0.2469 0.0
H805 H -0.00062 0.43373 0.17304 0.0
H806 H 0.9796 0.33023 0.16617 0.0
H807 H 0.02786 0.36853 0.23827 0.0
C808 C 0.01126 0.33411 0.26325 0.0
C809 C 0.98973 0.31316 0.2659 0.0
C810 C 0.98413 0.3529 0.16759 0.0
C811 C 0.98934 0.34971 0.21995 0.0
C812 C 0.98406 0.36878 0.14297 0.0
C813 C 0.98916 0.39829 0.14441 0.0
C814 C 0.99003 0.36641 0.19379 0.0
C815 C 0.99533 0.41103 0.17107 0.0
C816 C 0.01087 0.3528 0.2405 0.0
C817 C 0.96775 0.31187 0.24568 0.0
N818 N 0.99582 0.39493 0.19485 0.0
N819 N 0.96841 0.32957 0.22321 0.0
H820 H 0.01355 0.77091 0.28001 0.0
H821 H 0.00547 0.9282 0.3397 0.0
H822 H 0.95928 0.83126 0.24005 0.0
H823 H 0.02275 0.85722 0.39351 0.0
H824 H 0.99036 0.89451 0.30174 0.0
H825 H 0.01896 0.80327 0.32104 0.0
C826 C 0.00242 0.79088 0.28016 0.0
C827 C 0.98586 0.79847 0.25682 0.0
C828 C 0.99717 0.88643 0.322 0.0
C829 C 0.99261 0.836 0.30325 0.0
C830 C 0.00598 0.9056 0.34359 0.0
C831 C 0.01562 0.89554 0.36979 0.0
C832 C 0.99854 0.85707 0.3265 0.0
C833 C 0.01559 0.86601 0.3737 0.0
C834 C 0.0055 0.80934 0.30354 0.0
C835 C 0.97199 0.82462 0.25787 0.0
N836 N 0.00755 0.84787 0.3522 0.0
N837 N 0.97607 0.84277 0.28057 0.0
H838 H 0.98127 0.66419 0.22144 0.0
H839 H 0.03683 0.60791 0.36611 0.0
H840 H 0.06474 0.68776 0.25368 0.0
H841 H 0.97425 0.56044 0.31639 0.0
H842 H 0.04864 0.6361 0.32451 0.0
H843 H 0.97893 0.62507 0.25483 0.0
C844 C -0.00075 0.66093 0.2354 0.0
C845 C 0.0231 0.67944 0.2351 0.0
C846 C 0.03271 0.61919 0.32246 0.0
C847 C 0.0204 0.63489 0.27353 0.0
C848 C 0.02591 0.60316 0.34619 0.0
C849 C 0.00441 0.58203 0.3446 0.0
C850 C 0.01735 0.6146 0.29712 0.0
C851 C 0.99098 0.57656 0.31837 0.0
C852 C 0.99796 0.63848 0.25431 0.0
C853 C 0.04592 0.67404 0.25334 0.0
N854 N 0.99725 0.5932 0.29573 0.0
N855 N 0.04379 0.65255 0.27223 0.0
H856 H 0.30446 0.01471 0.16204 0.0
H857 H 0.14418 0.98502 0.1235 0.0
H858 H 0.2543 0.94926 0.20244 0.0
H859 H 0.20145 0.02988 0.06739 0.0
H860 H 0.18505 0.96801 0.1498 0.0
H861 H 0.26903 0.01652 0.12409 0.0
C862 C 0.28625 0.00017 0.16243 0.0
C863 C 0.28211 0.98188 0.18533 0.0
C864 C 0.18878 0.98118 0.13148 0.0
C865 C 0.24101 0.98446 0.14255 0.0
C866 C 0.16543 0.99108 0.11655 0.0
C867 C 0.16945 0.00931 0.09352 0.0
C868 C 0.2164 0.99001 0.12373 0.0
C869 C 0.19743 0.01605 0.08515 0.0
C870 C 0.26601 0.00124 0.14081 0.0
C871 C 0.25823 0.96354 0.18502 0.0
N872 N 0.21986 0.00684 0.10061 0.0
N873 N 0.23818 0.96574 0.16426 0.0
H874 H 0.77891 0.53595 0.21886 0.0
H875 H 0.83925 0.46304 0.07596 0.0
H876 H 0.73756 0.46546 0.17433 0.0
H877 H 0.89319 0.50627 0.13817 0.0
H878 H 0.7976 0.47458 0.10516 0.0
H879 H 0.8168 0.53586 0.18247 0.0
C880 C 0.77751 0.52095 0.20109 0.0
C881 C 0.75535 0.50053 0.19961 0.0
C882 C 0.81856 0.4818 0.1122 0.0
C883 C 0.79812 0.50036 0.15819 0.0
C884 C 0.84231 0.47529 0.09553 0.0
C885 C 0.86977 0.48333 0.10485 0.0
C886 C 0.82226 0.49674 0.13819 0.0
C887 C 0.87244 0.49926 0.1304 0.0
C888 C 0.79913 0.52076 0.18051 0.0
C889 C 0.75452 0.48136 0.17634 0.0
N890 N 0.849 0.50532 0.14626 0.0
N891 N 0.77563 0.48167 0.15661 0.0
H892 H 0.23294 0.05909 0.28119 0.0
H893 H 0.168 0.9908 0.42127 0.0
H894 H 0.27514 0.9958 0.3302 0.0
H895 H 0.11287 0.01271 0.35176 0.0
H896 H 0.2092 0.00408 0.39275 0.0
H897 H 0.19026 0.05309 0.31152 0.0
C898 C 0.23332 0.04431 0.29856 0.0
C899 C 0.25743 0.02784 0.30328 0.0
C900 C 0.18808 0.00614 0.38379 0.0
C901 C 0.20938 0.0212 0.33782 0.0
C902 C 0.16446 -0.00137 0.40007 0.0
C903 C 0.13683 0.00038 0.38882 0.0
C904 C 0.18425 0.01582 0.35608 0.0
C905 C 0.13379 0.01078 0.36116 0.0
C906 C 0.20902 0.04076 0.31561 0.0
C907 C 0.2569 0.00877 0.3258 0.0
N908 N 0.15729 0.01812 0.34563 0.0
N909 N 0.23333 0.00607 0.34229 0.0
H910 H 0.74248 0.47772 0.34584 0.0
H911 H 0.90936 0.46945 0.35736 0.0
H912 H 0.79052 0.42289 0.28997 0.0
H913 H 0.85597 0.49895 0.42638 0.0
H914 H 0.86683 0.44983 0.33321 0.0
H915 H 0.7839 0.48317 0.37695 0.0
C916 C 0.76172 0.46638 0.3405 0.0
C917 C 0.76329 0.4499 0.31544 0.0
C918 C 0.86456 0.46023 0.35385 0.0
C919 C 0.81106 0.45667 0.35037 0.0
C920 C 0.88879 0.47155 0.3676 0.0
C921 C 0.88622 0.48632 0.39374 0.0
C922 C 0.83759 0.464 0.36621 0.0
C923 C 0.85904 0.4881 0.4061 0.0
C924 C 0.78536 0.46948 0.35821 0.0
C925 C 0.78859 0.43566 0.30929 0.0
N926 N 0.8358 0.47745 0.39205 0.0
N927 N 0.81181 0.43983 0.32639 0.0
H928 H 0.24178 0.25335 0.06428 0.0
H929 H 0.09684 0.17057 0.02128 0.0
H930 H 0.18289 0.28466 0.00244 0.0
H931 H 0.1722 0.12726 0.04815 0.0
H932 H 0.12393 0.21572 0.02325 0.0
H933 H 0.21159 0.21014 0.06853 0.0
C934 C 0.22214 0.25143 0.0522 0.0
C935 C 0.21471 0.27247 0.03301 0.0
C936 C 0.13447 0.19629 0.02872 0.0
C937 C 0.18039 0.22346 0.03761 0.0
C938 C 0.11907 0.17053 0.02754 0.0
C939 C 0.13234 0.14504 0.03425 0.0
C940 C 0.16318 0.19666 0.03724 0.0
C941 C 0.16119 0.14633 0.04242 0.0
C942 C 0.20514 0.22672 0.05437 0.0
C943 C 0.18932 0.26882 0.01744 0.0
N944 N 0.17561 0.17171 0.04382 0.0
N945 N 0.17307 0.24479 0.02006 0.0
H946 H 0.19637 0.75835 0.52917 0.0
H947 H 0.15885 0.90535 0.46011 0.0
H948 H 0.23405 0.78558 0.45027 0.0
H949 H 0.09247 0.8531 0.49717 0.0
H950 H 0.19239 0.86677 0.46622 0.0
H951 H 0.1633 0.79835 0.52716 0.0
C952 C 0.19783 0.7729 0.51163 0.0
C953 C 0.21783 0.76872 0.48979 0.0
C954 C 0.17051 0.86389 0.47317 0.0
C955 C 0.18074 0.81436 0.4877 0.0
C956 C 0.1514 0.88589 0.46984 0.0
C957 C 0.12279 0.88236 0.47805 0.0
C958 C 0.16116 0.83841 0.48539 0.0
C959 C 0.1143 0.85658 0.49039 0.0
C960 C 0.17893 0.79549 0.51043 0.0
C961 C 0.2188 0.788 0.46741 0.0
N962 N 0.13347 0.83556 0.49385 0.0
N963 N 0.20066 0.81013 0.46705 0.0
H964 H 0.81598 0.72875 0.52608 0.0
H965 H 0.93255 0.65607 0.42843 0.0
H966 H 0.83588 0.7601 0.4425 0.0
H967 H 0.87988 0.60832 0.48663 0.0
H968 H 0.90313 0.69777 0.43753 0.0
H969 H 0.8458 0.68767 0.51637 0.0
C970 C 0.82681 0.72709 0.50576 0.0
C971 C 0.8235 0.74779 0.48501 0.0
C972 C 0.89804 0.6781 0.44818 0.0
C973 C 0.8576 0.70104 0.47393 0.0
C974 C 0.91482 0.65439 0.44313 0.0
C975 C 0.90856 0.62877 0.45681 0.0
C976 C 0.87532 0.67624 0.46748 0.0
C977 C 0.88531 0.62765 0.47554 0.0
C978 C 0.84362 0.70358 0.5002 0.0
C979 C 0.83783 0.7445 0.45898 0.0
N980 N 0.86964 0.65118 0.48053 0.0
N981 N 0.85446 0.72157 0.4542 0.0
H982 H 0.36326 0.71925 0.46644 0.0
H983 H 0.39694 0.88305 0.47316 0.0
H984 H 0.31502 0.78049 0.42073 0.0
H985 H 0.45227 0.82049 0.50841 0.0
H986 H 0.37196 0.84545 0.4463 0.0
H987 H 0.40167 0.75452 0.47316 0.0
C988 C 0.36134 0.73994 0.45694 0.0
C989 C 0.3362 0.74724 0.44308 0.0
C990 C 0.38979 0.83992 0.45959 0.0
C991 C 0.37919 0.788 0.45175 0.0
C992 C 0.40394 0.86137 0.47515 0.0
C993 C 0.42625 0.85476 0.49364 0.0
C994 C 0.39769 0.81156 0.46284 0.0
C995 C 0.43487 0.82644 0.49478 0.0
C996 C 0.38312 0.76013 0.46093 0.0
C997 C 0.3343 0.77422 0.43141 0.0
N998 N 0.42022 0.80578 0.47998 0.0
N999 N 0.35531 0.79396 0.43658 0.0
H1000 H 0.51255 0.65545 0.79225 0.0
H1001 H 0.48835 0.6206 0.63092 0.0
H1002 H 0.44449 0.69332 0.7455 0.0
H1003 H 0.52722 0.56038 0.68627 0.0
H1004 H 0.47087 0.64671 0.67263 0.0
H1005 H 0.51693 0.61919 0.7546 0.0
C1006 C 0.49815 0.65573 0.77422 0.0
C1007 C 0.47825 0.67739 0.77175 0.0
C1008 C 0.48284 0.62755 0.67568 0.0
C1009 C 0.4836 0.63651 0.72834 0.0
C1010 C 0.49302 0.61275 0.6519 0.0
C1011 C 0.50961 0.58852 0.65521 0.0
C1012 C 0.48982 0.61844 0.703 0.0
C1013 C 0.51465 0.57905 0.68283 0.0
C1014 C 0.50062 0.63503 0.75279 0.0
C1015 C 0.46004 0.67688 0.74812 0.0
N1016 N 0.50524 0.59436 0.70573 0.0
N1017 N 0.46357 0.65708 0.72694 0.0
H1018 H 0.49493 0.76193 0.73327 0.0
H1019 H 0.51648 0.91243 0.66461 0.0
H1020 H 0.55222 0.82433 0.77175 0.0
H1021 H 0.49701 0.83667 0.61436 0.0
H1022 H 0.52726 0.88243 0.70529 0.0
H1023 H 0.49293 0.79049 0.69051 0.0
C1024 C 0.50738 0.78157 0.7325 0.0
C1025 C 0.52386 0.79079 0.75592 0.0
C1026 C 0.52092 0.87246 0.68523 0.0
C1027 C 0.52108 0.82402 0.70731 0.0
C1028 C 0.51461 0.88953 0.66206 0.0
C1029 C 0.50565 0.87709 0.63601 0.0
C1030 C 0.51769 0.84278 0.68251 0.0
C1031 C 0.50379 0.84727 0.63395 0.0
C1032 C 0.50625 0.79784 0.7081 0.0
C1033 C 0.53949 0.81643 0.75395 0.0
N1034 N 0.50938 0.83121 0.65695 0.0
N1035 N 0.53736 0.83246 0.73017 0.0
H1036 H 0.59006 0.29253 0.73873 0.0
H1037 H 0.54796 0.43318 0.82551 0.0
H1038 H 0.51326 0.33748 0.71992 0.0
H1039 H 0.58402 0.36016 0.86512 0.0
H1040 H 0.54571 0.40608 0.78003 0.0
H1041 H 0.59946 0.32612 0.77855 0.0
C1042 C 0.57559 0.30987 0.74257 0.0
C1043 C 0.55075 0.31219 0.72631 0.0
C1044 C 0.55428 0.39623 0.79874 0.0
C1045 C 0.56143 0.35051 0.7713 0.0
C1046 C 0.55554 0.41158 0.82455 0.0
C1047 C 0.56577 0.39866 0.84907 0.0
C1048 C 0.56417 0.36824 0.79745 0.0
C1049 C 0.57552 0.37069 0.84678 0.0
C1050 C 0.58084 0.32883 0.76532 0.0
C1051 C 0.53251 0.33488 0.73223 0.0
N1052 N 0.57459 0.35644 0.82139 0.0
N1053 N 0.53817 0.35318 0.75434 0.0
H1054 H 0.53982 0.20331 0.75243 0.0
H1055 H 0.45341 0.08056 0.83176 0.0
H1056 H 0.44984 0.18706 0.73927 0.0
H1057 H 0.52718 0.12346 0.86871 0.0
H1058 H 0.45697 0.11182 0.7908 0.0
H1059 H 0.53979 0.1672 0.78916 0.0
C1060 C 0.52004 0.19214 0.75729 0.0
C1061 C 0.49473 0.1983 0.74295 0.0
C1062 C 0.47256 0.11408 0.80774 0.0
C1063 C 0.49475 0.15665 0.78446 0.0
C1064 C 0.47078 0.09606 0.83094 0.0
C1065 C 0.48997 0.09954 0.85373 0.0
C1066 C 0.49393 0.13536 0.80717 0.0
C1067 C 0.51186 0.12018 0.85166 0.0
C1068 C 0.52008 0.17156 0.77821 0.0
C1069 C 0.46974 0.18316 0.75005 0.0
N1070 N 0.5132 0.1374 0.82883 0.0
N1071 N 0.4704 0.16288 0.77025 0.0
H1072 H 0.74012 0.51646 0.73001 0.0
H1073 H 0.66041 0.48557 0.58694 0.0
H1074 H 0.7656 0.44494 0.67777 0.0
H1075 H 0.61423 0.5102 0.6627 0.0
H1076 H 0.7014 0.4739 0.6168 0.0
H1077 H 0.69582 0.51872 0.70272 0.0
C1078 C 0.73625 0.50115 0.71282 0.0
C1079 C 0.7564 0.48049 0.70602 0.0
C1080 C 0.68209 0.48146 0.6268 0.0
C1081 C 0.7062 0.48333 0.67446 0.0
C1082 C 0.65879 0.48824 0.60984 0.0
C1083 C 0.63393 0.49899 0.62237 0.0
C1084 C 0.68072 0.48625 0.65633 0.0
C1085 C 0.63294 0.50194 0.65214 0.0
C1086 C 0.71097 0.50236 0.6974 0.0
C1087 C 0.75042 0.46107 0.68366 0.0
N1088 N 0.65619 0.49611 0.66807 0.0
N1089 N 0.72597 0.46325 0.66825 0.0
H1090 H 0.28114 0.01816 0.70472 0.0
H1091 H 0.35311 0.92873 0.58078 0.0
H1092 H 0.24194 0.93964 0.67388 0.0
H1093 H 0.40204 0.97768 0.64302 0.0
H1094 H 0.31009 0.9361 0.60966 0.0
H1095 H 0.32366 0.00759 0.67694 0.0
C1096 C 0.28144 -0.0013 0.69199 0.0
C1097 C 0.25794 0.97975 0.69155 0.0
C1098 C 0.33032 0.94504 0.61697 0.0
C1099 C 0.30659 0.96768 0.6595 0.0
C1100 C 0.3548 0.94101 0.60048 0.0
C1101 C 0.38119 0.95268 0.60949 0.0
C1102 C 0.33219 0.96136 0.64225 0.0
C1103 C 0.38219 0.96824 0.63528 0.0
C1104 C 0.3058 0.99263 0.67629 0.0
C1105 C 0.25966 0.95474 0.67485 0.0
N1106 N 0.35801 0.97237 0.65059 0.0
N1107 N 0.28354 0.94952 0.6592 0.0
H1108 H 0.75855 0.56112 0.79873 0.0
H1109 H 0.703 0.47555 0.93373 0.0
H1110 H 0.80614 0.49746 0.84184 0.0
H1111 H 0.64808 0.51997 0.87661 0.0
H1112 H 0.74445 0.49546 0.90903 0.0
H1113 H 0.7219 0.55833 0.83613 0.0
C1114 C 0.76171 0.54735 0.81661 0.0
C1115 C 0.7851 0.52935 0.8173 0.0
C1116 C 0.72331 0.50117 0.9022 0.0
C1117 C 0.74355 0.52576 0.85961 0.0
C1118 C 0.69962 0.48981 0.91629 0.0
C1119 C 0.672 0.49557 0.90683 0.0
C1120 C 0.71936 0.51844 0.87853 0.0
C1121 C 0.66898 0.51447 0.88428 0.0
C1122 C 0.74075 0.54554 0.83775 0.0
C1123 C 0.78819 0.51152 0.84059 0.0
N1124 N 0.69237 0.52495 0.87066 0.0
N1125 N 0.76749 0.50995 0.86068 0.0
H1126 H 0.24976 0.08156 0.80943 0.0
H1127 H 0.37155 -0.00022 0.88618 0.0
H1128 H 0.25706 0.99019 0.80396 0.0
H1129 H 0.34141 0.07955 0.92021 0.0
H1130 H 0.32996 0.9964 0.85501 0.0
H1131 H 0.28417 0.08264 0.84889 0.0
C1132 C 0.25853 0.06179 0.81654 0.0
C1133 C 0.25076 0.03579 0.80325 0.0
C1134 C 0.33212 0.01443 0.86963 0.0
C1135 C 0.28981 0.03689 0.84807 0.0
C1136 C 0.35579 0.0163 0.8874 0.0
C1137 C 0.35971 0.03993 0.90567 0.0
C1138 C 0.31269 0.03673 0.86959 0.0
C1139 C 0.33887 0.06089 0.90648 0.0
C1140 C 0.27791 0.06239 0.83915 0.0
C1141 C 0.26252 0.01075 0.81346 0.0
N1142 N 0.31639 0.0591 0.88821 0.0
N1143 N 0.28165 0.01197 0.83504 0.0
H1144 H 0.70067 0.75956 0.58345 0.0
H1145 H 0.6499 0.6075 0.52418 0.0
H1146 H 0.7233 0.72806 0.4997 0.0
H1147 H 0.59673 0.65698 0.58059 0.0
H1148 H 0.68267 0.64844 0.5205 0.0
H1149 H 0.66752 0.71872 0.5883 0.0
C1150 C 0.69869 0.74405 0.56617 0.0
C1151 C 0.71458 0.7472 0.5411 0.0
C1152 C 0.66379 0.65028 0.53365 0.0
C1153 C 0.67736 0.70057 0.54667 0.0
C1154 C 0.64517 0.62696 0.53583 0.0
C1155 C 0.62052 0.62894 0.55259 0.0
C1156 C 0.65803 0.67555 0.54879 0.0
C1157 C 0.61539 0.65467 0.56723 0.0
C1158 C 0.67976 0.72091 0.56889 0.0
C1159 C 0.71125 0.72656 0.51929 0.0
N1160 N 0.63412 0.67697 0.56516 0.0
N1161 N 0.69318 0.70401 0.52267 0.0
H1162 H 0.736 0.23785 0.9239 0.0
H1163 H 0.60009 0.32445 0.97685 0.0
H1164 H 0.6896 0.21637 3e-05 0.0
H1165 H 0.67036 0.36354 0.93188 0.0
H1166 H 0.62654 0.27984 0.97775 0.0
H1167 H 0.70541 0.2792 0.91837 0.0
C1168 C 0.71909 0.24155 0.93915 0.0
C1169 C 0.71542 0.22376 0.96253 0.0
C1170 C 0.63603 0.29821 0.9676 0.0
C1171 C 0.68037 0.27078 0.95626 0.0
C1172 C 0.62096 0.3236 0.96703 0.0
C1173 C 0.63314 0.34782 0.95451 0.0
C1174 C 0.66315 0.29687 0.95497 0.0
C1175 C 0.66028 0.3455 0.94207 0.0
C1176 C 0.70181 0.26522 0.93611 0.0
C1177 C 0.69329 0.22968 0.98181 0.0
N1178 N 0.6743 0.32049 0.94251 0.0
N1179 N 0.67658 0.25265 0.97824 0.0
H1180 H 0.32838 0.26851 0.01634 0.0
H1181 H 0.43312 0.17379 0.92206 0.0
H1182 H 0.32472 0.26817 0.92445 0.0
H1183 H 0.40827 0.1557 0.00821 0.0
H1184 H 0.40208 0.21556 0.9233 0.0
H1185 H 0.36598 0.23414 0.014 0.0
C1186 C 0.33546 0.26123 0.99554 0.0
C1187 C 0.32308 0.27114 0.97049 0.0
C1188 C 0.40391 0.20269 0.94204 0.0
C1189 C 0.36663 0.23145 0.96781 0.0
C1190 C 0.42185 0.17922 0.94149 0.0
C1191 C 0.42332 0.16168 0.96522 0.0
C1192 C 0.38786 0.2086 0.96662 0.0
C1193 C 0.40781 0.16894 0.98962 0.0
C1194 C 0.35704 0.24153 0.99429 0.0
C1195 C 0.33344 0.26086 0.94426 0.0
N1196 N 0.39072 0.19182 0.98969 0.0
N1197 N 0.35469 0.24143 0.94357 0.0
H1198 H 0.83452 0.22146 0.06677 0.0
H1199 H 0.87661 0.37222 0.00601 0.0
H1200 H 0.81144 0.24745 0.98239 0.0
H1201 H 0.93465 0.32941 0.06119 0.0
H1202 H 0.84711 0.32894 0.00276 0.0
H1203 H 0.86649 0.2637 0.07102 0.0
C1204 C 0.8361 0.23607 0.04929 0.0
C1205 C 0.82046 0.23104 0.02419 0.0
C1206 C 0.86639 0.32896 0.01546 0.0
C1207 C 0.85629 0.27891 0.02898 0.0
C1208 C 0.88319 0.3536 0.01732 0.0
C1209 C 0.90812 0.35421 0.03373 0.0
C1210 C 0.87423 0.30495 0.0306 0.0
C1211 C 0.9157 0.32956 0.04804 0.0
C1212 C 0.8544 0.25991 0.05163 0.0
C1213 C 0.82328 0.25044 0.00204 0.0
N1214 N 0.8986 0.30586 0.0464 0.0
N1215 N 0.84067 0.27361 0.00505 0.0
loop_
_geom_bond_atom_site_label_1
_geom_bond_atom_site_label_2
_geom_bond_distance
_geom_bond_site_symmetry_2
_ccdc_geom_bond_type
C0 O2 1.247 . S
C0 O4 1.258 1_455 S
C1 O8 1.247 . S
C1 O9 1.258 1_655 S
O2 C0 1.247 . S
O2 Zn3 2.028 . S
Zn3 O2 2.028 . S
Zn3 O7 2.035 . S
Zn3 O9 2.035 . S
Zn3 O10 2.028 . S
O4 C0 1.258 1_655 S
O4 Zn5 2.035 . S
Zn5 O4 2.035 . S
Zn5 O6 2.028 . S
Zn5 O8 2.028 . S
Zn5 O11 2.035 . S
O6 Zn5 2.028 . S
O6 C12 1.247 . S
O7 Zn3 2.035 . S
O7 C12 1.258 1_455 S
O8 C1 1.247 . S
O8 Zn5 2.028 . S
O9 C1 1.258 1_455 S
O9 Zn3 2.035 . S
O10 Zn3 2.028 . S
O10 C13 1.247 . S
O11 Zn5 2.035 . S
O11 C13 1.258 1_655 S
C12 O6 1.247 . S
C12 O7 1.258 1_655 S
C13 O10 1.247 . S
C13 O11 1.258 1_455 S
C14 O16 1.247 . S
C14 O18 1.258 . S
C15 O22 1.264 . S
C15 O23 1.258 . S
O16 C14 1.247 . S
O16 Zn17 2.028 . S
Zn17 O16 2.028 . S
Zn17 O21 2.035 . S
Zn17 O23 2.035 . S
Zn17 O24 2.028 . S
O18 C14 1.258 . S
O18 Zn19 2.028 1_455 S
Zn19 O18 2.028 1_655 S
Zn19 O20 2.026 1_655 S
Zn19 O22 2.026 1_655 S
Zn19 O25 2.028 1_655 S
O20 Zn19 2.026 1_455 S
O20 C26 1.276 . S
O21 Zn17 2.035 . S
O21 C26 1.258 . S
O22 C15 1.264 . S
O22 Zn19 2.026 1_455 S
O23 C15 1.258 . S
O23 Zn17 2.035 . S
O24 Zn17 2.028 . S
O24 C27 1.247 . S
O25 Zn19 2.028 1_455 S
O25 C27 1.258 . S
C26 O20 1.276 . S
C26 O21 1.258 . S
C27 O24 1.247 . S
C27 O25 1.258 . S
C28 O30 1.247 1_545 S
C28 O32 1.258 . S
C29 O36 1.247 1_565 S
C29 O37 1.258 . S
O30 C28 1.247 1_565 S
O30 Zn31 2.028 . S
Zn31 O30 2.028 . S
Zn31 O35 2.035 . S
Zn31 O37 2.035 . S
Zn31 O38 2.028 . S
O32 C28 1.258 . S
O32 Zn33 2.035 . S
Zn33 O32 2.035 . S
Zn33 O34 2.028 . S
Zn33 O36 2.028 . S
Zn33 O39 2.035 . S
O34 Zn33 2.028 . S
O34 C40 1.247 1_545 S
O35 Zn31 2.035 . S
O35 C40 1.258 . S
O36 C29 1.247 1_545 S
O36 Zn33 2.028 . S
O37 C29 1.258 . S
O37 Zn31 2.035 . S
O38 Zn31 2.028 . S
O38 C41 1.247 1_565 S
O39 Zn33 2.035 . S
O39 C41 1.258 . S
C40 O34 1.247 1_565 S
C40 O35 1.258 . S
C41 O38 1.247 1_545 S
C41 O39 1.258 . S
C42 O44 1.247 . S
C42 O46 1.258 . S
C43 O50 1.247 . S
C43 O51 1.258 . S
O44 C42 1.247 . S
O44 Zn45 2.028 . S
Zn45 O44 2.028 . S
Zn45 O49 2.035 . S
Zn45 O51 2.035 . S
Zn45 O52 2.028 . S
O46 C42 1.258 . S
O46 Zn47 2.035 . S
Zn47 O46 2.035 . S
Zn47 O48 2.028 . S
Zn47 O50 2.028 . S
Zn47 O53 2.035 . S
O48 Zn47 2.028 . S
O48 C54 1.247 . S
O49 Zn45 2.035 . S
O49 C54 1.258 . S
O50 C43 1.247 . S
O50 Zn47 2.028 . S
O51 C43 1.258 . S
O51 Zn45 2.035 . S
O52 Zn45 2.028 . S
O52 C55 1.247 . S
O53 Zn47 2.035 . S
O53 C55 1.258 . S
C54 O48 1.247 . S
C54 O49 1.258 . S
C55 O52 1.247 . S
C55 O53 1.258 . S
C56 O58 1.262 . S
C56 O60 1.258 . S
C57 O64 1.247 . S
C57 O65 1.258 1_554 S
O58 C56 1.262 . S
O58 Zn59 2.023 1_554 S
Zn59 O58 2.023 1_556 S
Zn59 O63 2.035 . S
Zn59 O65 2.035 . S
Zn59 O66 2.020 1_556 S
O60 C56 1.258 . S
O60 Zn61 2.035 . S
Zn61 O60 2.035 . S
Zn61 O62 2.028 . S
Zn61 O64 2.028 . S
Zn61 O67 2.035 . S
O62 Zn61 2.028 . S
O62 C68 1.247 . S
O63 Zn59 2.035 . S
O63 C68 1.258 1_556 S
O64 C57 1.247 . S
O64 Zn61 2.028 . S
O65 C57 1.258 1_556 S
O65 Zn59 2.035 . S
O66 Zn59 2.020 1_554 S
O66 C69 1.271 . S
O67 Zn61 2.035 . S
O67 C69 1.258 . S
C68 O62 1.247 . S
C68 O63 1.258 1_554 S
C69 O66 1.271 . S
C69 O67 1.258 . S
C70 O72 1.247 . S
C70 O74 1.258 . S
C71 O78 1.247 . S
C71 O79 1.258 . S
O72 C70 1.247 . S
O72 Zn73 2.028 . S
Zn73 O72 2.028 . S
Zn73 O77 2.035 . S
Zn73 O79 2.035 . S
Zn73 O80 2.028 . S
O74 C70 1.258 . S
O74 Zn75 2.035 . S
Zn75 O74 2.035 . S
Zn75 O76 2.028 . S
Zn75 O78 2.028 . S
Zn75 O81 2.035 . S
O76 Zn75 2.028 . S
O76 C82 1.247 . S
O77 Zn73 2.035 . S
O77 C82 1.258 . S
O78 C71 1.247 . S
O78 Zn75 2.028 . S
O79 C71 1.258 . S
O79 Zn73 2.035 . S
O80 Zn73 2.028 . S
O80 C83 1.247 . S
O81 Zn75 2.035 . S
O81 C83 1.258 . S
C82 O76 1.247 . S
C82 O77 1.258 . S
C83 O80 1.247 . S
C83 O81 1.258 . S
C84 O86 1.247 . S
C84 O88 1.258 . S
C85 O92 1.247 . S
C85 O93 1.258 . S
O86 C84 1.247 . S
O86 Zn87 2.028 . S
Zn87 O86 2.028 . S
Zn87 O91 2.035 . S
Zn87 O93 2.035 . S
Zn87 O94 2.028 . S
O88 C84 1.258 . S
O88 Zn89 2.035 . S
Zn89 O88 2.035 . S
Zn89 O90 2.028 . S
Zn89 O92 2.028 . S
Zn89 O95 2.035 . S
O90 Zn89 2.028 . S
O90 C96 1.247 . S
O91 Zn87 2.035 . S
O91 C96 1.258 . S
O92 C85 1.247 . S
O92 Zn89 2.028 . S
O93 C85 1.258 . S
O93 Zn87 2.035 . S
O94 Zn87 2.028 . S
O94 C97 1.247 . S
O95 Zn89 2.035 . S
O95 C97 1.258 . S
C96 O90 1.247 . S
C96 O91 1.258 . S
C97 O94 1.247 . S
C97 O95 1.258 . S
C98 O100 1.247 . S
C98 O102 1.258 . S
C99 O106 1.247 . S
C99 O107 1.258 . S
O100 C98 1.247 . S
O100 Zn101 2.028 . S
Zn101 O100 2.028 . S
Zn101 O105 2.035 . S
Zn101 O107 2.035 . S
Zn101 O108 2.028 . S
O102 C98 1.258 . S
O102 Zn103 2.035 . S
Zn103 O102 2.035 . S
Zn103 O104 2.028 . S
Zn103 O106 2.028 . S
Zn103 O109 2.035 . S
O104 Zn103 2.028 . S
O104 C110 1.247 . S
O105 Zn101 2.035 . S
O105 C110 1.258 . S
O106 C99 1.247 . S
O106 Zn103 2.028 . S
O107 C99 1.258 . S
O107 Zn101 2.035 . S
O108 Zn101 2.028 . S
O108 C111 1.247 . S
O109 Zn103 2.035 . S
O109 C111 1.258 . S
C110 O104 1.247 . S
C110 O105 1.258 . S
C111 O108 1.247 . S
C111 O109 1.258 . S
C112 O114 1.247 . S
C112 O116 1.258 . S
C113 O120 1.247 . S
C113 O121 1.258 . S
O114 C112 1.247 . S
O114 Zn115 2.028 . S
Zn115 O114 2.028 . S
Zn115 O119 2.035 . S
Zn115 O121 2.035 . S
Zn115 O122 2.028 . S
O116 C112 1.258 . S
O116 Zn117 2.035 . S
Zn117 O116 2.035 . S
Zn117 O118 2.028 . S
Zn117 O120 2.028 . S
Zn117 O123 2.035 . S
O118 Zn117 2.028 . S
O118 C124 1.247 . S
O119 Zn115 2.035 . S
O119 C124 1.258 . S
O120 C113 1.247 . S
O120 Zn117 2.028 . S
O121 C113 1.258 . S
O121 Zn115 2.035 . S
O122 Zn115 2.028 . S
O122 C125 1.247 . S
O123 Zn117 2.035 . S
O123 C125 1.258 . S
C124 O118 1.247 . S
C124 O119 1.258 . S
C125 O122 1.247 . S
C125 O123 1.258 . S
C126 O128 1.247 . S
C126 O130 1.258 . S
C127 O134 1.247 . S
C127 O135 1.258 . S
O128 C126 1.247 . S
O128 Zn129 2.028 . S
Zn129 O128 2.028 . S
Zn129 O133 2.035 . S
Zn129 O135 2.035 . S
Zn129 O136 2.028 . S
O130 C126 1.258 . S
O130 Zn131 2.035 . S
Zn131 O130 2.035 . S
Zn131 O132 2.028 . S
Zn131 O134 2.028 . S
Zn131 O137 2.035 . S
O132 Zn131 2.028 . S
O132 C138 1.247 . S
O133 Zn129 2.035 . S
O133 C138 1.258 . S
O134 C127 1.247 . S
O134 Zn131 2.028 . S
O135 C127 1.258 . S
O135 Zn129 2.035 . S
O136 Zn129 2.028 . S
O136 C139 1.247 . S
O137 Zn131 2.035 . S
O137 C139 1.258 . S
C138 O132 1.247 . S
C138 O133 1.258 . S
C139 O136 1.247 . S
C139 O137 1.258 . S
C140 O142 1.247 1_545 S
C140 O144 1.258 . S
C141 O148 1.247 . S
C141 O149 1.258 1_545 S
O142 C140 1.247 1_565 S
O142 Zn143 2.028 . S
Zn143 O142 2.028 . S
Zn143 O147 2.035 . S
Zn143 O149 2.035 . S
Zn143 O150 2.028 . S
O144 C140 1.258 . S
O144 Zn145 2.035 . S
Zn145 O144 2.035 . S
Zn145 O146 2.028 . S
Zn145 O148 2.028 . S
Zn145 O151 2.035 . S
O146 Zn145 2.028 . S
O146 C152 1.247 . S
O147 Zn143 2.035 . S
O147 C152 1.258 1_565 S
O148 C141 1.247 . S
O148 Zn145 2.028 . S
O149 C141 1.258 1_565 S
O149 Zn143 2.035 . S
O150 Zn143 2.028 . S
O150 C153 1.247 1_565 S
O151 Zn145 2.035 . S
O151 C153 1.258 . S
C152 O146 1.247 . S
C152 O147 1.258 1_545 S
C153 O150 1.247 1_545 S
C153 O151 1.258 . S
C154 O156 1.247 1_556 S
C154 O158 1.258 . S
C155 O162 1.247 1_554 S
C155 O163 1.258 . S
O156 C154 1.247 1_554 S
O156 Zn157 2.028 . S
Zn157 O156 2.028 . S
Zn157 O161 2.035 . S
Zn157 O163 2.035 . S
Zn157 O164 2.028 . S
O158 C154 1.258 . S
O158 Zn159 2.035 . S
Zn159 O158 2.035 . S
Zn159 O160 2.028 . S
Zn159 O162 2.028 . S
Zn159 O165 2.035 . S
O160 Zn159 2.028 . S
O160 C166 1.247 1_556 S
O161 Zn157 2.035 . S
O161 C166 1.258 . S
O162 C155 1.247 1_556 S
O162 Zn159 2.028 . S
O163 C155 1.258 . S
O163 Zn157 2.035 . S
O164 Zn157 2.028 . S
O164 C167 1.247 1_554 S
O165 Zn159 2.035 . S
O165 C167 1.258 . S
C166 O160 1.247 1_554 S
C166 O161 1.258 . S
C167 O164 1.247 1_556 S
C167 O165 1.258 . S
O168 Zn169 1.953 . S
O168 C184 1.225 . S
Zn169 O168 1.953 . S
Zn169 O170 1.949 . S
Zn169 O176 1.919 . S
Zn169 O181 1.924 1_545 S
O170 Zn169 1.949 . S
O170 Zn171 1.923 . S
O170 Zn172 1.950 . S
O170 Zn173 1.945 . S
Zn171 O170 1.923 . S
Zn171 O174 1.933 . S
Zn171 O177 1.941 . S
Zn171 O178 1.965 . S
Zn172 O170 1.950 . S
Zn172 O179 1.938 . S
Zn172 O180 1.906 1_554 S
Zn172 O190 1.953 . S
Zn173 O170 1.945 . S
Zn173 O175 1.932 . S
Zn173 O182 1.977 1_554 S
Zn173 O183 1.910 1_545 S
O174 Zn171 1.933 . S
O174 C185 1.226 1_455 S
O175 Zn173 1.932 . S
O175 C185 1.307 1_455 S
O176 Zn169 1.919 . S
O176 C187 1.253 . S
O177 Zn171 1.941 . S
O177 C187 1.283 . S
O178 Zn171 1.965 . S
O178 C186 1.303 . S
O179 Zn172 1.938 . S
O179 C186 1.247 . S
O180 Zn172 1.906 1_556 S
O180 C188 1.304 . S
O181 Zn169 1.924 1_565 S
O181 C189 1.311 . S
O182 Zn173 1.977 1_556 S
O182 C188 1.272 . S
O183 Zn173 1.910 1_565 S
O183 C189 1.231 . S
C184 O168 1.225 . S
C184 O190 1.298 . S
C185 O174 1.226 1_655 S
C185 O175 1.307 1_655 S
C186 O178 1.303 . S
C186 O179 1.247 . S
C187 O176 1.253 . S
C187 O177 1.283 . S
C188 O180 1.304 . S
C188 O182 1.272 . S
C189 O181 1.311 . S
C189 O183 1.231 . S
O190 Zn172 1.953 . S
O190 C184 1.298 . S
O191 Zn192 1.953 . S
O191 C207 1.225 . S
Zn192 O191 1.953 . S
Zn192 O193 1.949 . S
Zn192 O199 1.919 . S
Zn192 O204 1.924 . S
O193 Zn192 1.949 . S
O193 Zn194 1.923 . S
O193 Zn195 1.950 . S
O193 Zn196 1.945 . S
Zn194 O193 1.923 . S
Zn194 O197 1.933 1_655 S
Zn194 O200 1.941 . S
Zn194 O201 1.965 . S
Zn195 O193 1.950 . S
Zn195 O202 1.938 . S
Zn195 O203 1.906 1_554 S
Zn195 O213 1.953 . S
Zn196 O193 1.945 . S
Zn196 O198 1.932 1_655 S
Zn196 O205 1.977 1_554 S
Zn196 O206 1.910 1_655 S
O197 Zn194 1.933 1_455 S
O197 C208 1.226 . S
O198 Zn196 1.932 1_455 S
O198 C208 1.307 . S
O199 Zn192 1.919 . S
O199 C210 1.253 . S
O200 Zn194 1.941 . S
O200 C210 1.283 . S
O201 Zn194 1.965 . S
O201 C209 1.303 . S
O202 Zn195 1.938 . S
O202 C209 1.247 . S
O203 Zn195 1.906 1_556 S
O203 C211 1.304 . S
O204 Zn192 1.924 . S
O204 C212 1.311 . S
O205 Zn196 1.977 1_556 S
O205 C211 1.272 . S
O206 Zn196 1.910 1_455 S
O206 C212 1.231 1_455 S
C207 O191 1.225 . S
C207 O213 1.298 . S
C208 O197 1.226 . S
C208 O198 1.307 . S
C209 O201 1.303 . S
C209 O202 1.247 . S
C210 O199 1.253 . S
C210 O200 1.283 . S
C211 O203 1.304 . S
C211 O205 1.272 . S
C212 O204 1.311 . S
C212 O206 1.231 1_655 S
O213 Zn195 1.953 . S
O213 C207 1.298 . S
O214 Zn215 1.953 . S
O214 C230 1.225 . S
Zn215 O214 1.953 . S
Zn215 O216 1.949 . S
Zn215 O222 1.919 . S
Zn215 O227 1.924 . S
O216 Zn215 1.949 . S
O216 Zn217 1.923 . S
O216 Zn218 1.950 . S
O216 Zn219 1.945 . S
Zn217 O216 1.923 . S
Zn217 O220 1.943 . S
Zn217 O223 1.941 . S
Zn217 O224 1.965 . S
Zn218 O216 1.950 . S
Zn218 O225 1.938 . S
Zn218 O226 1.906 . S
Zn218 O236 1.953 . S
Zn219 O216 1.945 . S
Zn219 O221 1.932 1_565 S
Zn219 O228 1.977 . S
Zn219 O229 1.910 . S
O220 Zn217 1.943 . S
O220 C231 1.220 1_565 S
O221 Zn219 1.932 1_545 S
O221 C231 1.307 . S
O222 Zn215 1.919 . S
O222 C233 1.253 . S
O223 Zn217 1.941 . S
O223 C233 1.283 . S
O224 Zn217 1.965 . S
O224 C232 1.303 . S
O225 Zn218 1.938 . S
O225 C232 1.247 . S
O226 Zn218 1.906 . S
O226 C234 1.293 1_455 S
O227 Zn215 1.924 . S
O227 C235 1.311 . S
O228 Zn219 1.977 . S
O228 C234 1.258 1_455 S
O229 Zn219 1.910 . S
O229 C235 1.231 . S
C230 O214 1.225 . S
C230 O236 1.298 . S
C231 O220 1.220 1_545 S
C231 O221 1.307 . S
C232 O224 1.303 . S
C232 O225 1.247 . S
C233 O222 1.253 . S
C233 O223 1.283 . S
C234 O226 1.293 1_655 S
C234 O228 1.258 1_655 S
C235 O227 1.311 . S
C235 O229 1.231 . S
O236 Zn218 1.953 . S
O236 C230 1.298 . S
O237 Zn238 1.953 . S
O237 C253 1.225 . S
Zn238 O237 1.953 . S
Zn238 O239 1.949 . S
Zn238 O245 1.919 . S
Zn238 O250 1.924 1_655 S
O239 Zn238 1.949 . S
O239 Zn240 1.923 . S
O239 Zn241 1.950 . S
O239 Zn242 1.945 . S
Zn240 O239 1.923 . S
Zn240 O243 1.933 . S
Zn240 O246 1.941 . S
Zn240 O247 1.965 . S
Zn241 O239 1.950 . S
Zn241 O248 1.938 . S
Zn241 O249 1.906 . S
Zn241 O259 1.953 . S
Zn242 O239 1.945 . S
Zn242 O244 1.932 . S
Zn242 O251 1.966 1_655 S
Zn242 O252 1.910 1_655 S
O243 Zn240 1.933 . S
O243 C254 1.226 . S
O244 Zn242 1.932 . S
O244 C254 1.307 . S
O245 Zn238 1.919 . S
O245 C256 1.253 . S
O246 Zn240 1.941 . S
O246 C256 1.283 . S
O247 Zn240 1.965 . S
O247 C255 1.303 . S
O248 Zn241 1.938 . S
O248 C255 1.247 . S
O249 Zn241 1.906 . S
O249 C257 1.304 . S
O250 Zn238 1.924 1_455 S
O250 C258 1.311 . S
O251 Zn242 1.966 1_455 S
O251 C257 1.261 1_455 S
O252 Zn242 1.910 1_455 S
O252 C258 1.231 . S
C253 O237 1.225 . S
C253 O259 1.298 . S
C254 O243 1.226 . S
C254 O244 1.307 . S
C255 O247 1.303 . S
C255 O248 1.247 . S
C256 O245 1.253 . S
C256 O246 1.283 . S
C257 O249 1.304 . S
C257 O251 1.261 1_655 S
C258 O250 1.311 . S
C258 O252 1.231 . S
O259 Zn241 1.953 . S
O259 C253 1.298 . S
O260 Zn261 1.953 . S
O260 C276 1.225 . S
Zn261 O260 1.953 . S
Zn261 O262 1.949 . S
Zn261 O268 1.919 . S
Zn261 O273 1.924 . S
O262 Zn261 1.949 . S
O262 Zn263 1.923 . S
O262 Zn264 1.950 . S
O262 Zn265 1.945 . S
Zn263 O262 1.923 . S
Zn263 O266 1.933 . S
Zn263 O269 1.941 . S
Zn263 O270 1.965 . S
Zn264 O262 1.950 . S
Zn264 O271 1.938 . S
Zn264 O272 1.906 . S
Zn264 O282 1.953 . S
Zn265 O262 1.945 . S
Zn265 O267 1.932 . S
Zn265 O274 1.977 . S
Zn265 O275 1.910 1_565 S
O266 Zn263 1.933 . S
O266 C277 1.226 . S
O267 Zn265 1.932 . S
O267 C277 1.307 . S
O268 Zn261 1.919 . S
O268 C279 1.253 . S
O269 Zn263 1.941 . S
O269 C279 1.283 . S
O270 Zn263 1.965 . S
O270 C278 1.303 . S
O271 Zn264 1.938 . S
O271 C278 1.247 . S
O272 Zn264 1.906 . S
O272 C280 1.304 . S
O273 Zn261 1.924 . S
O273 C281 1.311 1_565 S
O274 Zn265 1.977 . S
O274 C280 1.272 . S
O275 Zn265 1.910 1_545 S
O275 C281 1.231 . S
C276 O260 1.225 . S
C276 O282 1.298 . S
C277 O266 1.226 . S
C277 O267 1.307 . S
C278 O270 1.303 . S
C278 O271 1.247 . S
C279 O268 1.253 . S
C279 O269 1.283 . S
C280 O272 1.304 . S
C280 O274 1.272 . S
C281 O273 1.311 1_545 S
C281 O275 1.231 . S
O282 Zn264 1.953 . S
O282 C276 1.298 . S
O283 Zn284 1.953 . S
O283 C299 1.225 . S
Zn284 O283 1.953 . S
Zn284 O285 1.949 . S
Zn284 O291 1.919 . S
Zn284 O296 1.924 . S
O285 Zn284 1.949 . S
O285 Zn286 1.923 . S
O285 Zn287 1.950 . S
O285 Zn288 1.945 . S
Zn286 O285 1.923 . S
Zn286 O289 1.933 . S
Zn286 O292 1.941 . S
Zn286 O293 1.965 . S
Zn287 O285 1.950 . S
Zn287 O294 1.938 . S
Zn287 O295 1.906 . S
Zn287 O305 1.953 . S
Zn288 O285 1.945 . S
Zn288 O290 1.932 . S
Zn288 O297 1.977 . S
Zn288 O298 1.910 . S
O289 Zn286 1.933 . S
O289 C300 1.226 . S
O290 Zn288 1.932 . S
O290 C300 1.307 . S
O291 Zn284 1.919 . S
O291 C302 1.253 . S
O292 Zn286 1.941 . S
O292 C302 1.283 . S
O293 Zn286 1.965 . S
O293 C301 1.303 . S
O294 Zn287 1.938 . S
O294 C301 1.247 . S
O295 Zn287 1.906 . S
O295 C303 1.304 . S
O296 Zn284 1.924 . S
O296 C304 1.311 . S
O297 Zn288 1.977 . S
O297 C303 1.272 . S
O298 Zn288 1.910 . S
O298 C304 1.231 . S
C299 O283 1.225 . S
C299 O305 1.298 . S
C300 O289 1.226 . S
C300 O290 1.307 . S
C301 O293 1.303 . S
C301 O294 1.247 . S
C302 O291 1.253 . S
C302 O292 1.283 . S
C303 O295 1.304 . S
C303 O297 1.272 . S
C304 O296 1.311 . S
C304 O298 1.231 . S
O305 Zn287 1.953 . S
O305 C299 1.298 . S
O306 Zn307 1.953 . S
O306 C322 1.225 . S
Zn307 O306 1.953 . S
Zn307 O308 1.949 . S
Zn307 O314 1.919 . S
Zn307 O319 1.924 . S
O308 Zn307 1.949 . S
O308 Zn309 1.923 . S
O308 Zn310 1.950 . S
O308 Zn311 1.945 . S
Zn309 O308 1.923 . S
Zn309 O312 1.933 . S
Zn309 O315 1.941 . S
Zn309 O316 1.965 . S
Zn310 O308 1.950 . S
Zn310 O317 1.938 . S
Zn310 O318 1.906 . S
Zn310 O328 1.953 . S
Zn311 O308 1.945 . S
Zn311 O313 1.932 . S
Zn311 O320 1.977 . S
Zn311 O321 1.910 1_556 S
O312 Zn309 1.933 . S
O312 C323 1.226 . S
O313 Zn311 1.932 . S
O313 C323 1.307 . S
O314 Zn307 1.919 . S
O314 C325 1.253 . S
O315 Zn309 1.941 . S
O315 C325 1.283 . S
O316 Zn309 1.965 . S
O316 C324 1.303 . S
O317 Zn310 1.938 . S
O317 C324 1.247 . S
O318 Zn310 1.906 . S
O318 C326 1.304 . S
O319 Zn307 1.924 . S
O319 C327 1.311 1_556 S
O320 Zn311 1.977 . S
O320 C326 1.272 . S
O321 Zn311 1.910 1_554 S
O321 C327 1.231 . S
C322 O306 1.225 . S
C322 O328 1.298 . S
C323 O312 1.226 . S
C323 O313 1.307 . S
C324 O316 1.303 . S
C324 O317 1.247 . S
C325 O314 1.253 . S
C325 O315 1.283 . S
C326 O318 1.304 . S
C326 O320 1.272 . S
C327 O319 1.311 1_554 S
C327 O321 1.231 . S
O328 Zn310 1.953 . S
O328 C322 1.298 . S
O329 Zn330 1.953 . S
O329 C345 1.225 . S
Zn330 O329 1.953 . S
Zn330 O331 1.949 . S
Zn330 O337 1.919 . S
Zn330 O342 1.924 . S
O331 Zn330 1.949 . S
O331 Zn332 1.923 . S
O331 Zn333 1.950 . S
O331 Zn334 1.945 . S
Zn332 O331 1.923 . S
Zn332 O335 1.931 . S
Zn332 O338 1.941 . S
Zn332 O339 1.965 . S
Zn333 O331 1.950 . S
Zn333 O340 1.938 . S
Zn333 O341 1.906 1_545 S
Zn333 O351 1.953 . S
Zn334 O331 1.945 . S
Zn334 O336 1.932 1_556 S
Zn334 O343 1.977 1_545 S
Zn334 O344 1.910 . S
O335 Zn332 1.931 . S
O335 C346 1.228 1_556 S
O336 Zn334 1.932 1_554 S
O336 C346 1.307 . S
O337 Zn330 1.919 . S
O337 C348 1.253 . S
O338 Zn332 1.941 . S
O338 C348 1.283 . S
O339 Zn332 1.965 . S
O339 C347 1.303 . S
O340 Zn333 1.938 . S
O340 C347 1.247 . S
O341 Zn333 1.906 1_565 S
O341 C349 1.304 . S
O342 Zn330 1.924 . S
O342 C350 1.311 . S
O343 Zn334 1.977 1_565 S
O343 C349 1.272 . S
O344 Zn334 1.910 . S
O344 C350 1.231 . S
C345 O329 1.225 . S
C345 O351 1.298 . S
C346 O335 1.228 1_554 S
C346 O336 1.307 . S
C347 O339 1.303 . S
C347 O340 1.247 . S
C348 O337 1.253 . S
C348 O338 1.283 . S
C349 O341 1.304 . S
C349 O343 1.272 . S
C350 O342 1.311 . S
C350 O344 1.231 . S
O351 Zn333 1.953 . S
O351 C345 1.298 . S
H352 C358 0.930 . S
H353 C362 0.930 1_655 S
H354 C367 0.929 . S
H355 C365 0.929 . S
H356 C360 0.929 1_655 S
H357 C366 0.929 . S
C358 H352 0.930 . S
C358 C359 1.367 . S
C358 C366 1.378 . S
C359 C358 1.367 . S
C359 C367 1.433 1_455 S
C360 H356 0.929 1_455 S
C360 C362 1.378 . S
C360 C364 1.350 . S
C361 C364 1.463 . S
C361 C366 1.350 . S
C361 N369 1.415 1_455 S
C362 H353 0.930 1_455 S
C362 C360 1.378 . S
C362 C363 1.367 . S
C363 C362 1.367 . S
C363 C365 1.433 . S
C364 C360 1.350 . S
C364 C361 1.463 . S
C364 N368 1.427 . S
C365 H355 0.929 . S
C365 C363 1.433 . S
C365 N368 1.384 . S
C366 H357 0.929 . S
C366 C358 1.378 . S
C366 C361 1.350 . S
C367 H354 0.929 . S
C367 C359 1.433 1_655 S
C367 N369 1.386 . S
N368 C364 1.427 . S
N368 C365 1.384 . S
N369 C361 1.415 1_655 S
N369 C367 1.386 . S
H370 C376 0.930 . S
H371 C380 0.930 . S
H372 C385 0.929 . S
H373 C383 0.929 . S
H374 C378 0.929 . S
H375 C384 0.929 . S
C376 H370 0.930 . S
C376 C377 1.367 . S
C376 C384 1.378 . S
C377 C376 1.367 . S
C377 C385 1.433 1_655 S
C378 H374 0.929 . S
C378 C380 1.378 . S
C378 C382 1.350 1_455 S
C379 C382 1.463 . S
C379 C384 1.350 . S
C379 N387 1.427 1_655 S
C380 H371 0.930 . S
C380 C378 1.378 . S
C380 C381 1.367 1_455 S
C381 C380 1.367 1_655 S
C381 C383 1.433 . S
C382 C378 1.350 1_655 S
C382 C379 1.463 . S
C382 N386 1.427 . S
C383 H373 0.929 . S
C383 C381 1.433 . S
C383 N386 1.384 . S
C384 H375 0.929 . S
C384 C376 1.378 . S
C384 C379 1.350 . S
C385 H372 0.929 . S
C385 C377 1.433 1_455 S
C385 N387 1.384 . S
N386 C382 1.427 . S
N386 C383 1.384 . S
N387 C379 1.427 1_455 S
N387 C385 1.384 . S
H388 C394 0.930 . S
H389 C398 0.930 . S
H390 C403 0.929 . S
H391 C401 0.929 . S
H392 C396 0.929 . S
H393 C402 0.929 . S
C394 H388 0.930 . S
C394 C395 1.367 . S
C394 C402 1.378 . S
C395 C394 1.367 . S
C395 C403 1.433 . S
C396 H392 0.929 . S
C396 C398 1.378 . S
C396 C400 1.350 . S
C397 C400 1.463 . S
C397 C402 1.350 . S
C397 N405 1.427 . S
C398 H389 0.930 . S
C398 C396 1.378 . S
C398 C399 1.367 . S
C399 C398 1.367 . S
C399 C401 1.433 . S
C400 C396 1.350 . S
C400 C397 1.463 . S
C400 N404 1.427 . S
C401 H391 0.929 . S
C401 C399 1.433 . S
C401 N404 1.384 . S
C402 H393 0.929 . S
C402 C394 1.378 . S
C402 C397 1.350 . S
C403 H390 0.929 . S
C403 C395 1.433 . S
C403 N405 1.384 . S
N404 C400 1.427 . S
N404 C401 1.384 . S
N405 C397 1.427 . S
N405 C403 1.384 . S
H406 C412 0.930 . S
H407 C416 0.930 . S
H408 C421 0.929 . S
H409 C419 0.929 . S
H410 C414 0.929 . S
H411 C420 0.929 . S
C412 H406 0.930 . S
C412 C413 1.367 . S
C412 C420 1.378 . S
C413 C412 1.367 . S
C413 C421 1.433 1_455 S
C414 H410 0.929 . S
C414 C416 1.378 . S
C414 C418 1.350 1_655 S
C415 C418 1.463 . S
C415 C420 1.350 . S
C415 N423 1.427 1_455 S
C416 H407 0.930 . S
C416 C414 1.378 . S
C416 C417 1.367 . S
C417 C416 1.367 . S
C417 C419 1.433 1_655 S
C418 C414 1.350 1_455 S
C418 C415 1.463 . S
C418 N422 1.427 . S
C419 H409 0.929 . S
C419 C417 1.433 1_455 S
C419 N422 1.384 . S
C420 H411 0.929 . S
C420 C412 1.378 . S
C420 C415 1.350 . S
C421 H408 0.929 . S
C421 C413 1.433 1_655 S
C421 N423 1.384 . S
N422 C418 1.427 . S
N422 C419 1.384 . S
N423 C415 1.427 1_655 S
N423 C421 1.384 . S
H424 C430 0.930 . S
H425 C434 0.930 . S
H426 C439 0.929 . S
H427 C437 0.929 . S
H428 C432 0.929 . S
H429 C438 0.929 . S
C430 H424 0.930 . S
C430 C431 1.367 . S
C430 C438 1.378 . S
C431 C430 1.367 . S
C431 C439 1.433 . S
C432 H428 0.929 . S
C432 C434 1.378 . S
C432 C436 1.350 . S
C433 C436 1.463 . S
C433 C438 1.350 . S
C433 N441 1.427 . S
C434 H425 0.930 . S
C434 C432 1.378 . S
C434 C435 1.367 . S
C435 C434 1.367 . S
C435 C437 1.433 . S
C436 C432 1.350 . S
C436 C433 1.463 . S
C436 N440 1.427 . S
C437 H427 0.929 . S
C437 C435 1.433 . S
C437 N440 1.384 . S
C438 H429 0.929 . S
C438 C430 1.378 . S
C438 C433 1.350 . S
C439 H426 0.929 . S
C439 C431 1.433 . S
C439 N441 1.384 . S
N440 C436 1.427 . S
N440 C437 1.384 . S
N441 C433 1.427 . S
N441 C439 1.384 . S
H442 C448 0.930 . S
H443 C452 0.930 . S
H444 C457 0.929 . S
H445 C455 0.929 . S
H446 C450 0.929 . S
H447 C456 0.929 . S
C448 H442 0.930 . S
C448 C449 1.367 . S
C448 C456 1.378 . S
C449 C448 1.367 . S
C449 C457 1.433 . S
C450 H446 0.929 . S
C450 C452 1.378 . S
C450 C454 1.350 . S
C451 C454 1.463 . S
C451 C456 1.350 . S
C451 N459 1.427 . S
C452 H443 0.930 . S
C452 C450 1.378 . S
C452 C453 1.367 . S
C453 C452 1.367 . S
C453 C455 1.433 . S
C454 C450 1.350 . S
C454 C451 1.463 . S
C454 N458 1.427 . S
C455 H445 0.929 . S
C455 C453 1.433 . S
C455 N458 1.384 . S
C456 H447 0.929 . S
C456 C448 1.378 . S
C456 C451 1.350 . S
C457 H444 0.929 . S
C457 C449 1.433 . S
C457 N459 1.384 . S
N458 C454 1.427 . S
N458 C455 1.384 . S
N459 C451 1.427 . S
N459 C457 1.384 . S
H460 C466 0.930 . S
H461 C470 0.930 . S
H462 C475 0.929 . S
H463 C473 0.929 . S
H464 C468 0.929 . S
H465 C474 0.929 . S
C466 H460 0.930 . S
C466 C467 1.367 1_545 S
C466 C474 1.378 . S
C467 C466 1.367 1_565 S
C467 C475 1.433 . S
C468 H464 0.929 . S
C468 C470 1.378 . S
C468 C472 1.350 . S
C469 C472 1.463 . S
C469 C474 1.350 1_565 S
C469 N477 1.427 . S
C470 H461 0.930 . S
C470 C468 1.378 . S
C470 C471 1.367 . S
C471 C470 1.367 . S
C471 C473 1.433 1_565 S
C472 C468 1.350 . S
C472 C469 1.463 . S
C472 N476 1.427 1_565 S
C473 H463 0.929 . S
C473 C471 1.433 1_545 S
C473 N476 1.384 . S
C474 H465 0.929 . S
C474 C466 1.378 . S
C474 C469 1.350 1_545 S
C475 H462 0.929 . S
C475 C467 1.433 . S
C475 N477 1.384 . S
N476 C472 1.427 1_545 S
N476 C473 1.384 . S
N477 C469 1.427 . S
N477 C475 1.384 . S
H478 C484 0.930 . S
H479 C488 0.930 . S
H480 C493 0.929 . S
H481 C491 0.929 . S
H482 C486 0.929 . S
H483 C492 0.929 . S
C484 H478 0.930 . S
C484 C485 1.367 . S
C484 C492 1.378 . S
C485 C484 1.367 . S
C485 C493 1.433 . S
C486 H482 0.929 . S
C486 C488 1.378 . S
C486 C490 1.350 . S
C487 C490 1.463 . S
C487 C492 1.350 . S
C487 N495 1.427 . S
C488 H479 0.930 . S
C488 C486 1.378 . S
C488 C489 1.367 . S
C489 C488 1.367 . S
C489 C491 1.433 . S
C490 C486 1.350 . S
C490 C487 1.463 . S
C490 N494 1.427 . S
C491 H481 0.929 . S
C491 C489 1.433 . S
C491 N494 1.384 . S
C492 H483 0.929 . S
C492 C484 1.378 . S
C492 C487 1.350 . S
C493 H480 0.929 . S
C493 C485 1.433 . S
C493 N495 1.384 . S
N494 C490 1.427 . S
N494 C491 1.384 . S
N495 C487 1.427 . S
N495 C493 1.384 . S
H496 C502 0.930 . S
H497 C506 0.930 . S
H498 C511 0.929 . S
H499 C509 0.929 1_556 S
H500 C504 0.929 . S
H501 C510 0.929 . S
C502 H496 0.930 . S
C502 C503 1.367 . S
C502 C510 1.378 . S
C503 C502 1.367 . S
C503 C511 1.433 . S
C504 H500 0.929 . S
C504 C506 1.378 . S
C504 C508 1.350 . S
C505 C508 1.463 . S
C505 C510 1.350 . S
C505 N513 1.427 . S
C506 H497 0.930 . S
C506 C504 1.378 . S
C506 C507 1.367 . S
C507 C506 1.367 . S
C507 C509 1.433 . S
C508 C504 1.350 . S
C508 C505 1.463 . S
C508 N512 1.427 . S
C509 H499 0.929 1_554 S
C509 C507 1.433 . S
C509 N512 1.384 . S
C510 H501 0.929 . S
C510 C502 1.378 . S
C510 C505 1.350 . S
C511 H498 0.929 . S
C511 C503 1.433 . S
C511 N513 1.384 . S
N512 C508 1.427 . S
N512 C509 1.384 . S
N513 C505 1.427 . S
N513 C511 1.384 . S
H514 C520 0.930 . S
H515 C524 0.930 . S
H516 C529 0.929 . S
H517 C527 0.929 . S
H518 C522 0.929 . S
H519 C528 0.929 . S
C520 H514 0.930 . S
C520 C521 1.367 . S
C520 C528 1.378 . S
C521 C520 1.367 . S
C521 C529 1.433 . S
C522 H518 0.929 . S
C522 C524 1.378 . S
C522 C526 1.350 . S
C523 C526 1.463 . S
C523 C528 1.350 . S
C523 N531 1.427 . S
C524 H515 0.930 . S
C524 C522 1.378 . S
C524 C525 1.367 . S
C525 C524 1.367 . S
C525 C527 1.433 . S
C526 C522 1.350 . S
C526 C523 1.463 . S
C526 N530 1.427 . S
C527 H517 0.929 . S
C527 C525 1.433 . S
C527 N530 1.384 . S
C528 H519 0.929 . S
C528 C520 1.378 . S
C528 C523 1.350 . S
C529 H516 0.929 . S
C529 C521 1.433 . S
C529 N531 1.384 . S
N530 C526 1.427 . S
N530 C527 1.384 . S
N531 C523 1.427 . S
N531 C529 1.384 . S
H532 C538 0.930 . S
H533 C542 0.930 . S
H534 C547 0.929 . S
H535 C545 0.929 . S
H536 C540 0.929 . S
H537 C546 0.929 . S
C538 H532 0.930 . S
C538 C539 1.367 . S
C538 C546 1.378 . S
C539 C538 1.367 . S
C539 C547 1.433 . S
C540 H536 0.929 . S
C540 C542 1.378 . S
C540 C544 1.350 . S
C541 C544 1.463 . S
C541 C546 1.350 . S
C541 N549 1.427 . S
C542 H533 0.930 . S
C542 C540 1.378 . S
C542 C543 1.367 . S
C543 C542 1.367 . S
C543 C545 1.433 . S
C544 C540 1.350 . S
C544 C541 1.463 . S
C544 N548 1.427 . S
C545 H535 0.929 . S
C545 C543 1.433 . S
C545 N548 1.384 . S
C546 H537 0.929 . S
C546 C538 1.378 . S
C546 C541 1.350 . S
C547 H534 0.929 . S
C547 C539 1.433 . S
C547 N549 1.384 . S
N548 C544 1.427 . S
N548 C545 1.384 . S
N549 C541 1.427 . S
N549 C547 1.384 . S
H550 C556 0.930 . S
H551 C560 0.930 . S
H552 C565 0.929 . S
H553 C563 0.929 . S
H554 C558 0.929 . S
H555 C564 0.929 . S
C556 H550 0.930 . S
C556 C557 1.367 . S
C556 C564 1.378 . S
C557 C556 1.367 . S
C557 C565 1.433 . S
C558 H554 0.929 . S
C558 C560 1.378 . S
C558 C562 1.350 . S
C559 C562 1.463 . S
C559 C564 1.350 . S
C559 N567 1.427 . S
C560 H551 0.930 . S
C560 C558 1.378 . S
C560 C561 1.367 . S
C561 C560 1.367 . S
C561 C563 1.433 . S
C562 C558 1.350 . S
C562 C559 1.463 . S
C562 N566 1.427 . S
C563 H553 0.929 . S
C563 C561 1.433 . S
C563 N566 1.384 . S
C564 H555 0.929 . S
C564 C556 1.378 . S
C564 C559 1.350 . S
C565 H552 0.929 . S
C565 C557 1.433 . S
C565 N567 1.384 . S
N566 C562 1.427 . S
N566 C563 1.384 . S
N567 C559 1.427 . S
N567 C565 1.384 . S
H568 C574 0.930 . S
H569 C578 0.930 . S
H570 C583 0.929 . S
H571 C581 0.929 . S
H572 C576 0.929 . S
H573 C582 0.929 . S
C574 H568 0.930 . S
C574 C575 1.367 . S
C574 C582 1.378 . S
C575 C574 1.367 . S
C575 C583 1.433 . S
C576 H572 0.929 . S
C576 C578 1.378 . S
C576 C580 1.350 . S
C577 C580 1.463 . S
C577 C582 1.350 . S
C577 N585 1.427 . S
C578 H569 0.930 . S
C578 C576 1.378 . S
C578 C579 1.367 . S
C579 C578 1.367 . S
C579 C581 1.433 . S
C580 C576 1.350 . S
C580 C577 1.463 . S
C580 N584 1.427 . S
C581 H571 0.929 . S
C581 C579 1.433 . S
C581 N584 1.384 . S
C582 H573 0.929 . S
C582 C574 1.378 . S
C582 C577 1.350 . S
C583 H570 0.929 . S
C583 C575 1.433 . S
C583 N585 1.384 . S
N584 C580 1.427 . S
N584 C581 1.384 . S
N585 C577 1.427 . S
N585 C583 1.384 . S
H586 C592 0.930 . S
H587 C596 0.930 . S
H588 C601 0.929 . S
H589 C599 0.929 . S
H590 C594 0.929 . S
H591 C600 0.929 . S
C592 H586 0.930 . S
C592 C593 1.367 . S
C592 C600 1.378 . S
C593 C592 1.367 . S
C593 C601 1.433 . S
C594 H590 0.929 . S
C594 C596 1.378 . S
C594 C598 1.350 . S
C595 C598 1.463 . S
C595 C600 1.350 . S
C595 N603 1.427 . S
C596 H587 0.930 . S
C596 C594 1.378 . S
C596 C597 1.367 . S
C597 C596 1.367 . S
C597 C599 1.433 . S
C598 C594 1.350 . S
C598 C595 1.463 . S
C598 N602 1.427 . S
C599 H589 0.929 . S
C599 C597 1.433 . S
C599 N602 1.384 . S
C600 H591 0.929 . S
C600 C592 1.378 . S
C600 C595 1.350 . S
C601 H588 0.929 . S
C601 C593 1.433 . S
C601 N603 1.384 . S
N602 C598 1.427 . S
N602 C599 1.384 . S
N603 C595 1.427 . S
N603 C601 1.384 . S
H604 C610 0.930 . S
H605 C614 0.930 . S
H606 C619 0.929 . S
H607 C617 0.929 . S
H608 C612 0.929 . S
H609 C618 0.929 . S
C610 H604 0.930 . S
C610 C611 1.367 . S
C610 C618 1.378 . S
C611 C610 1.367 . S
C611 C619 1.433 . S
C612 H608 0.929 . S
C612 C614 1.378 . S
C612 C616 1.350 . S
C613 C616 1.463 . S
C613 C618 1.350 . S
C613 N621 1.427 . S
C614 H605 0.930 . S
C614 C612 1.378 . S
C614 C615 1.367 . S
C615 C614 1.367 . S
C615 C617 1.433 . S
C616 C612 1.350 . S
C616 C613 1.463 . S
C616 N620 1.427 . S
C617 H607 0.929 . S
C617 C615 1.433 . S
C617 N620 1.384 . S
C618 H609 0.929 . S
C618 C610 1.378 . S
C618 C613 1.350 . S
C619 H606 0.929 . S
C619 C611 1.433 . S
C619 N621 1.384 . S
N620 C616 1.427 . S
N620 C617 1.384 . S
N621 C613 1.427 . S
N621 C619 1.384 . S
H622 C628 0.930 . S
H623 C632 0.930 . S
H624 C637 0.929 . S
H625 C635 0.929 . S
H626 C630 0.929 . S
H627 C636 0.929 . S
C628 H622 0.930 . S
C628 C629 1.367 . S
C628 C636 1.378 . S
C629 C628 1.367 . S
C629 C637 1.433 . S
C630 H626 0.929 . S
C630 C632 1.378 . S
C630 C634 1.350 . S
C631 C634 1.463 . S
C631 C636 1.350 . S
C631 N639 1.427 . S
C632 H623 0.930 . S
C632 C630 1.378 . S
C632 C633 1.367 . S
C633 C632 1.367 . S
C633 C635 1.433 . S
C634 C630 1.350 . S
C634 C631 1.463 . S
C634 N638 1.427 . S
C635 H625 0.929 . S
C635 C633 1.433 . S
C635 N638 1.384 . S
C636 H627 0.929 . S
C636 C628 1.378 . S
C636 C631 1.350 . S
C637 H624 0.929 . S
C637 C629 1.433 . S
C637 N639 1.384 . S
N638 C634 1.427 . S
N638 C635 1.384 . S
N639 C631 1.427 . S
N639 C637 1.384 . S
H640 C646 0.930 . S
H641 C650 0.930 . S
H642 C655 0.929 . S
H643 C653 0.929 . S
H644 C648 0.929 . S
H645 C654 0.929 . S
C646 H640 0.930 . S
C646 C647 1.367 . S
C646 C654 1.378 . S
C647 C646 1.367 . S
C647 C655 1.433 . S
C648 H644 0.929 . S
C648 C650 1.378 . S
C648 C652 1.350 . S
C649 C652 1.463 . S
C649 C654 1.350 . S
C649 N657 1.427 . S
C650 H641 0.930 . S
C650 C648 1.378 . S
C650 C651 1.367 . S
C651 C650 1.367 . S
C651 C653 1.433 . S
C652 C648 1.350 . S
C652 C649 1.463 . S
C652 N656 1.427 . S
C653 H643 0.929 . S
C653 C651 1.433 . S
C653 N656 1.384 . S
C654 H645 0.929 . S
C654 C646 1.378 . S
C654 C649 1.350 . S
C655 H642 0.929 . S
C655 C647 1.433 . S
C655 N657 1.384 . S
N656 C652 1.427 . S
N656 C653 1.384 . S
N657 C649 1.427 . S
N657 C655 1.384 . S
H658 C664 0.930 . S
H659 C668 0.930 . S
H660 C673 0.929 . S
H661 C671 0.929 . S
H662 C666 0.929 . S
H663 C672 0.929 . S
C664 H658 0.930 . S
C664 C665 1.367 1_565 S
C664 C672 1.378 . S
C665 C664 1.367 1_545 S
C665 C673 1.433 . S
C666 H662 0.929 . S
C666 C668 1.378 . S
C666 C670 1.350 1_545 S
C667 C670 1.463 . S
C667 C672 1.350 . S
C667 N675 1.427 1_565 S
C668 H659 0.930 . S
C668 C666 1.378 . S
C668 C669 1.367 1_545 S
C669 C668 1.367 1_565 S
C669 C671 1.433 . S
C670 C666 1.350 1_565 S
C670 C667 1.463 . S
C670 N674 1.427 . S
C671 H661 0.929 . S
C671 C669 1.433 . S
C671 N674 1.384 . S
C672 H663 0.929 . S
C672 C664 1.378 . S
C672 C667 1.350 . S
C673 H660 0.929 . S
C673 C665 1.433 . S
C673 N675 1.384 . S
N674 C670 1.427 . S
N674 C671 1.384 . S
N675 C667 1.427 1_545 S
N675 C673 1.384 . S
H676 C682 0.930 . S
H677 C686 0.930 . S
H678 C691 0.929 . S
H679 C689 0.929 . S
H680 C684 0.929 . S
H681 C690 0.929 . S
C682 H676 0.930 . S
C682 C683 1.367 . S
C682 C690 1.378 . S
C683 C682 1.367 . S
C683 C691 1.433 . S
C684 H680 0.929 . S
C684 C686 1.378 . S
C684 C688 1.350 . S
C685 C688 1.463 . S
C685 C690 1.350 . S
C685 N693 1.427 . S
C686 H677 0.930 . S
C686 C684 1.378 . S
C686 C687 1.367 . S
C687 C686 1.367 . S
C687 C689 1.433 . S
C688 C684 1.350 . S
C688 C685 1.463 . S
C688 N692 1.427 . S
C689 H679 0.929 . S
C689 C687 1.433 . S
C689 N692 1.384 . S
C690 H681 0.929 . S
C690 C682 1.378 . S
C690 C685 1.350 . S
C691 H678 0.929 . S
C691 C683 1.433 . S
C691 N693 1.384 . S
N692 C688 1.427 . S
N692 C689 1.384 . S
N693 C685 1.427 . S
N693 C691 1.384 . S
H694 C700 0.928 . S
H695 C704 0.930 . S
H696 C709 0.929 . S
H697 C707 0.929 . S
H698 C702 0.929 . S
H699 C708 0.929 . S
C700 H694 0.928 . S
C700 C701 1.369 1_565 S
C700 C708 1.378 . S
C701 C700 1.369 1_545 S
C701 C709 1.433 . S
C702 H698 0.929 . S
C702 C704 1.378 . S
C702 C706 1.350 . S
C703 C706 1.463 . S
C703 C708 1.350 1_545 S
C703 N711 1.427 . S
C704 H695 0.930 . S
C704 C702 1.378 . S
C704 C705 1.367 . S
C705 C704 1.367 . S
C705 C707 1.433 1_545 S
C706 C702 1.350 . S
C706 C703 1.463 . S
C706 N710 1.427 1_545 S
C707 H697 0.929 . S
C707 C705 1.433 1_565 S
C707 N710 1.384 . S
C708 H699 0.929 . S
C708 C700 1.378 . S
C708 C703 1.350 1_565 S
C709 H696 0.929 . S
C709 C701 1.433 . S
C709 N711 1.384 . S
N710 C706 1.427 1_565 S
N710 C707 1.384 . S
N711 C703 1.427 . S
N711 C709 1.384 . S
H712 C718 0.930 . S
H713 C722 0.930 . S
H714 C727 0.929 . S
H715 C725 0.929 . S
H716 C720 0.929 . S
H717 C726 0.929 . S
C718 H712 0.930 . S
C718 C719 1.367 . S
C718 C726 1.378 . S
C719 C718 1.367 . S
C719 C727 1.433 . S
C720 H716 0.929 . S
C720 C722 1.378 . S
C720 C724 1.350 . S
C721 C724 1.463 . S
C721 C726 1.350 . S
C721 N729 1.427 . S
C722 H713 0.930 . S
C722 C720 1.378 . S
C722 C723 1.367 . S
C723 C722 1.367 . S
C723 C725 1.433 . S
C724 C720 1.350 . S
C724 C721 1.463 . S
C724 N728 1.427 . S
C725 H715 0.929 . S
C725 C723 1.433 . S
C725 N728 1.384 . S
C726 H717 0.929 . S
C726 C718 1.378 . S
C726 C721 1.350 . S
C727 H714 0.929 . S
C727 C719 1.433 . S
C727 N729 1.384 . S
N728 C724 1.427 . S
N728 C725 1.384 . S
N729 C721 1.427 . S
N729 C727 1.384 . S
H730 C736 0.930 . S
H731 C740 0.930 . S
H732 C745 0.929 1_554 S
H733 C743 0.929 . S
H734 C738 0.936 . S
H735 C744 0.929 . S
C736 H730 0.930 . S
C736 C737 1.367 . S
C736 C744 1.378 . S
C737 C736 1.367 . S
C737 C745 1.433 . S
C738 H734 0.936 . S
C738 C740 1.378 . S
C738 C742 1.350 . S
C739 C742 1.463 . S
C739 C744 1.350 . S
C739 N747 1.427 . S
C740 H731 0.930 . S
C740 C738 1.378 . S
C740 C741 1.367 . S
C741 C740 1.367 . S
C741 C743 1.433 . S
C742 C738 1.350 . S
C742 C739 1.463 . S
C742 N746 1.427 . S
C743 H733 0.929 . S
C743 C741 1.433 . S
C743 N746 1.384 . S
C744 H735 0.929 . S
C744 C736 1.378 . S
C744 C739 1.350 . S
C745 H732 0.929 1_556 S
C745 C737 1.433 . S
C745 N747 1.384 . S
N746 C742 1.427 . S
N746 C743 1.384 . S
N747 C739 1.427 . S
N747 C745 1.384 . S
H748 C754 0.930 . S
H749 C758 0.930 . S
H750 C763 0.929 . S
H751 C761 0.929 . S
H752 C756 0.929 . S
H753 C762 0.929 . S
C754 H748 0.930 . S
C754 C755 1.367 1_556 S
C754 C762 1.378 . S
C755 C754 1.367 1_554 S
C755 C763 1.433 . S
C756 H752 0.929 . S
C756 C758 1.378 . S
C756 C760 1.350 1_554 S
C757 C760 1.463 . S
C757 C762 1.350 . S
C757 N765 1.427 1_556 S
C758 H749 0.930 . S
C758 C756 1.378 . S
C758 C759 1.367 1_554 S
C759 C758 1.367 1_556 S
C759 C761 1.433 . S
C760 C756 1.350 1_556 S
C760 C757 1.463 . S
C760 N764 1.427 . S
C761 H751 0.929 . S
C761 C759 1.433 . S
C761 N764 1.384 . S
C762 H753 0.929 . S
C762 C754 1.378 . S
C762 C757 1.350 . S
C763 H750 0.929 . S
C763 C755 1.433 . S
C763 N765 1.384 . S
N764 C760 1.427 . S
N764 C761 1.384 . S
N765 C757 1.427 1_554 S
N765 C763 1.384 . S
H766 C772 0.930 . S
H767 C776 0.930 . S
H768 C781 0.929 . S
H769 C779 0.929 . S
H770 C774 0.929 . S
H771 C780 0.929 . S
C772 H766 0.930 . S
C772 C773 1.367 . S
C772 C780 1.378 . S
C773 C772 1.367 . S
C773 C781 1.433 1_554 S
C774 H770 0.929 . S
C774 C776 1.378 . S
C774 C778 1.350 1_556 S
C775 C778 1.463 . S
C775 C780 1.350 . S
C775 N783 1.427 1_554 S
C776 H767 0.930 . S
C776 C774 1.378 . S
C776 C777 1.367 1_556 S
C777 C776 1.367 1_554 S
C777 C779 1.433 . S
C778 C774 1.350 1_554 S
C778 C775 1.463 . S
C778 N782 1.427 . S
C779 H769 0.929 . S
C779 C777 1.433 . S
C779 N782 1.384 . S
C780 H771 0.929 . S
C780 C772 1.378 . S
C780 C775 1.350 . S
C781 H768 0.929 . S
C781 C773 1.433 1_556 S
C781 N783 1.384 . S
N782 C778 1.427 . S
N782 C779 1.384 . S
N783 C775 1.427 1_556 S
N783 C781 1.384 . S
H784 C790 0.930 . S
H785 C794 0.930 . S
H786 C799 0.929 . S
H787 C797 0.929 . S
H788 C792 0.929 . S
H789 C798 0.929 . S
C790 H784 0.930 . S
C790 C791 1.367 . S
C790 C798 1.378 . S
C791 C790 1.367 . S
C791 C799 1.433 . S
C792 H788 0.929 . S
C792 C794 1.378 . S
C792 C796 1.350 . S
C793 C796 1.463 . S
C793 C798 1.350 . S
C793 N801 1.427 . S
C794 H785 0.930 . S
C794 C792 1.378 . S
C794 C795 1.367 . S
C795 C794 1.367 . S
C795 C797 1.433 . S
C796 C792 1.350 . S
C796 C793 1.463 . S
C796 N800 1.427 . S
C797 H787 0.929 . S
C797 C795 1.433 . S
C797 N800 1.384 . S
C798 H789 0.929 . S
C798 C790 1.378 . S
C798 C793 1.350 . S
C799 H786 0.929 . S
C799 C791 1.433 . S
C799 N801 1.384 . S
N800 C796 1.427 . S
N800 C797 1.384 . S
N801 C793 1.427 . S
N801 C799 1.384 . S
H802 C808 0.930 1_455 S
H803 C812 0.930 . S
H804 C817 0.929 . S
H805 C815 0.929 . S
H806 C810 0.929 . S
H807 C816 0.928 . S
C808 H802 0.930 1_655 S
C808 C809 1.367 . S
C808 C816 1.378 1_655 S
C809 C808 1.367 . S
C809 C817 1.433 . S
C810 H806 0.929 . S
C810 C812 1.378 . S
C810 C814 1.350 . S
C811 C814 1.463 . S
C811 C816 1.350 1_655 S
C811 N819 1.427 . S
C812 H803 0.930 . S
C812 C810 1.378 . S
C812 C813 1.367 . S
C813 C812 1.367 . S
C813 C815 1.433 1_655 S
C814 C810 1.350 . S
C814 C811 1.463 . S
C814 N818 1.427 1_655 S
C815 H805 0.929 . S
C815 C813 1.433 1_455 S
C815 N818 1.384 . S
C816 H807 0.928 . S
C816 C808 1.378 1_455 S
C816 C811 1.350 1_455 S
C817 H804 0.929 . S
C817 C809 1.433 . S
C817 N819 1.384 . S
N818 C814 1.427 1_455 S
N818 C815 1.384 . S
N819 C811 1.427 . S
N819 C817 1.384 . S
H820 C826 0.930 . S
H821 C830 0.930 . S
H822 C835 0.929 . S
H823 C833 0.929 . S
H824 C828 0.929 . S
H825 C834 0.929 . S
C826 H820 0.930 . S
C826 C827 1.367 . S
C826 C834 1.378 . S
C827 C826 1.367 . S
C827 C835 1.433 . S
C828 H824 0.929 . S
C828 C830 1.378 . S
C828 C832 1.350 . S
C829 C832 1.463 . S
C829 C834 1.350 . S
C829 N837 1.427 . S
C830 H821 0.930 . S
C830 C828 1.378 . S
C830 C831 1.367 . S
C831 C830 1.367 . S
C831 C833 1.433 . S
C832 C828 1.350 . S
C832 C829 1.463 . S
C832 N836 1.427 . S
C833 H823 0.929 . S
C833 C831 1.433 . S
C833 N836 1.384 . S
C834 H825 0.929 . S
C834 C826 1.378 . S
C834 C829 1.350 . S
C835 H822 0.929 . S
C835 C827 1.433 . S
C835 N837 1.384 . S
N836 C832 1.427 . S
N836 C833 1.384 . S
N837 C829 1.427 . S
N837 C835 1.384 . S
H838 C844 0.930 . S
H839 C848 0.930 . S
H840 C853 0.929 . S
H841 C851 0.929 . S
H842 C846 0.929 . S
H843 C852 0.929 . S
C844 H838 0.930 . S
C844 C845 1.367 1_655 S
C844 C852 1.378 . S
C845 C844 1.367 1_455 S
C845 C853 1.433 . S
C846 H842 0.929 . S
C846 C848 1.378 . S
C846 C850 1.350 . S
C847 C850 1.463 . S
C847 C852 1.350 1_455 S
C847 N855 1.427 . S
C848 H839 0.930 . S
C848 C846 1.378 . S
C848 C849 1.367 1_455 S
C849 C848 1.367 1_655 S
C849 C851 1.433 . S
C850 C846 1.350 . S
C850 C847 1.463 . S
C850 N854 1.427 1_455 S
C851 H841 0.929 . S
C851 C849 1.433 . S
C851 N854 1.384 . S
C852 H843 0.929 . S
C852 C844 1.378 . S
C852 C847 1.350 1_655 S
C853 H840 0.929 . S
C853 C845 1.433 . S
C853 N855 1.384 . S
N854 C850 1.427 1_655 S
N854 C851 1.384 . S
N855 C847 1.427 . S
N855 C853 1.384 . S
H856 C862 0.930 . S
H857 C866 0.930 . S
H858 C871 0.929 . S
H859 C869 0.929 . S
H860 C864 0.929 . S
H861 C870 0.929 . S
C862 H856 0.930 . S
C862 C863 1.367 1_565 S
C862 C870 1.378 . S
C863 C862 1.367 1_545 S
C863 C871 1.433 . S
C864 H860 0.929 . S
C864 C866 1.378 . S
C864 C868 1.350 . S
C865 C868 1.463 . S
C865 C870 1.350 1_545 S
C865 N873 1.427 . S
C866 H857 0.930 . S
C866 C864 1.378 . S
C866 C867 1.367 . S
C867 C866 1.367 . S
C867 C869 1.433 1_545 S
C868 C864 1.350 . S
C868 C865 1.463 . S
C868 N872 1.427 1_545 S
C869 H859 0.929 . S
C869 C867 1.433 1_565 S
C869 N872 1.384 . S
C870 H861 0.929 . S
C870 C862 1.378 . S
C870 C865 1.350 1_565 S
C871 H858 0.929 . S
C871 C863 1.433 . S
C871 N873 1.384 . S
N872 C868 1.427 1_565 S
N872 C869 1.384 . S
N873 C865 1.427 . S
N873 C871 1.384 . S
H874 C880 0.930 . S
H875 C884 0.930 . S
H876 C889 0.929 . S
H877 C887 0.929 . S
H878 C882 0.929 . S
H879 C888 0.929 . S
C880 H874 0.930 . S
C880 C881 1.367 . S
C880 C888 1.378 . S
C881 C880 1.367 . S
C881 C889 1.433 . S
C882 H878 0.929 . S
C882 C884 1.378 . S
C882 C886 1.350 . S
C883 C886 1.463 . S
C883 C888 1.350 . S
C883 N891 1.427 . S
C884 H875 0.930 . S
C884 C882 1.378 . S
C884 C885 1.367 . S
C885 C884 1.367 . S
C885 C887 1.433 . S
C886 C882 1.350 . S
C886 C883 1.463 . S
C886 N890 1.427 . S
C887 H877 0.929 . S
C887 C885 1.433 . S
C887 N890 1.384 . S
C888 H879 0.929 . S
C888 C880 1.378 . S
C888 C883 1.350 . S
C889 H876 0.929 . S
C889 C881 1.433 . S
C889 N891 1.384 . S
N890 C886 1.427 . S
N890 C887 1.384 . S
N891 C883 1.427 . S
N891 C889 1.384 . S
H892 C898 0.930 . S
H893 C902 0.930 . S
H894 C907 0.929 . S
H895 C905 0.929 . S
H896 C900 0.929 . S
H897 C906 0.929 . S
C898 H892 0.930 . S
C898 C899 1.367 1_545 S
C898 C906 1.378 . S
C899 C898 1.367 1_565 S
C899 C907 1.433 . S
C900 H896 0.929 . S
C900 C902 1.378 . S
C900 C904 1.350 . S
C901 C904 1.463 . S
C901 C906 1.350 1_565 S
C901 N909 1.427 . S
C902 H893 0.930 . S
C902 C900 1.378 . S
C902 C903 1.367 . S
C903 C902 1.367 . S
C903 C905 1.433 1_565 S
C904 C900 1.350 . S
C904 C901 1.463 . S
C904 N908 1.427 1_565 S
C905 H895 0.929 . S
C905 C903 1.433 1_545 S
C905 N908 1.384 . S
C906 H897 0.929 . S
C906 C898 1.378 . S
C906 C901 1.350 1_545 S
C907 H894 0.929 . S
C907 C899 1.433 . S
C907 N909 1.384 . S
N908 C904 1.427 1_545 S
N908 C905 1.384 . S
N909 C901 1.427 . S
N909 C907 1.384 . S
H910 C916 0.930 . S
H911 C920 0.930 . S
H912 C925 0.929 . S
H913 C923 0.929 . S
H914 C918 0.929 . S
H915 C924 0.929 . S
C916 H910 0.930 . S
C916 C917 1.367 . S
C916 C924 1.378 . S
C917 C916 1.367 . S
C917 C925 1.433 . S
C918 H914 0.929 . S
C918 C920 1.378 . S
C918 C922 1.350 . S
C919 C922 1.463 . S
C919 C924 1.350 . S
C919 N927 1.427 . S
C920 H911 0.930 . S
C920 C918 1.378 . S
C920 C921 1.367 . S
C921 C920 1.367 . S
C921 C923 1.433 . S
C922 C918 1.350 . S
C922 C919 1.463 . S
C922 N926 1.427 . S
C923 H913 0.929 . S
C923 C921 1.433 . S
C923 N926 1.384 . S
C924 H915 0.929 . S
C924 C916 1.378 . S
C924 C919 1.350 . S
C925 H912 0.929 . S
C925 C917 1.433 . S
C925 N927 1.384 . S
N926 C922 1.427 . S
N926 C923 1.384 . S
N927 C919 1.427 . S
N927 C925 1.384 . S
H928 C934 0.930 1_556 S
H929 C938 0.930 . S
H930 C943 0.929 . S
H931 C941 0.929 1_556 S
H932 C936 0.929 . S
H933 C942 0.929 1_556 S
C934 H928 0.930 1_554 S
C934 C935 1.367 . S
C934 C942 1.378 . S
C935 C934 1.367 . S
C935 C943 1.433 . S
C936 H932 0.929 . S
C936 C938 1.378 . S
C936 C940 1.350 . S
C937 C940 1.463 . S
C937 C942 1.350 . S
C937 N945 1.427 . S
C938 H929 0.930 . S
C938 C936 1.378 . S
C938 C939 1.367 . S
C939 C938 1.367 . S
C939 C941 1.433 . S
C940 C936 1.350 . S
C940 C937 1.463 . S
C940 N944 1.427 . S
C941 H931 0.929 1_554 S
C941 C939 1.433 . S
C941 N944 1.384 . S
C942 H933 0.929 1_554 S
C942 C934 1.378 . S
C942 C937 1.350 . S
C943 H930 0.929 . S
C943 C935 1.433 . S
C943 N945 1.384 . S
N944 C940 1.427 . S
N944 C941 1.384 . S
N945 C937 1.427 . S
N945 C943 1.384 . S
H946 C952 0.930 . S
H947 C956 0.930 . S
H948 C961 0.929 . S
H949 C959 0.929 . S
H950 C954 0.929 . S
H951 C960 0.929 . S
C952 H946 0.930 . S
C952 C953 1.367 . S
C952 C960 1.378 . S
C953 C952 1.367 . S
C953 C961 1.433 . S
C954 H950 0.929 . S
C954 C956 1.378 . S
C954 C958 1.350 . S
C955 C958 1.463 . S
C955 C960 1.350 . S
C955 N963 1.427 . S
C956 H947 0.930 . S
C956 C954 1.378 . S
C956 C957 1.367 . S
C957 C956 1.367 . S
C957 C959 1.433 . S
C958 C954 1.350 . S
C958 C955 1.463 . S
C958 N962 1.427 . S
C959 H949 0.929 . S
C959 C957 1.433 . S
C959 N962 1.384 . S
C960 H951 0.929 . S
C960 C952 1.378 . S
C960 C955 1.350 . S
C961 H948 0.929 . S
C961 C953 1.433 . S
C961 N963 1.384 . S
N962 C958 1.427 . S
N962 C959 1.384 . S
N963 C955 1.427 . S
N963 C961 1.384 . S
H964 C970 0.930 . S
H965 C974 0.930 . S
H966 C979 0.929 . S
H967 C977 0.929 . S
H968 C972 0.929 . S
H969 C978 0.929 . S
C970 H964 0.930 . S
C970 C971 1.367 . S
C970 C978 1.378 . S
C971 C970 1.367 . S
C971 C979 1.433 . S
C972 H968 0.929 . S
C972 C974 1.378 . S
C972 C976 1.350 . S
C973 C976 1.463 . S
C973 C978 1.350 . S
C973 N981 1.427 . S
C974 H965 0.930 . S
C974 C972 1.378 . S
C974 C975 1.367 . S
C975 C974 1.367 . S
C975 C977 1.433 . S
C976 C972 1.350 . S
C976 C973 1.463 . S
C976 N980 1.427 . S
C977 H967 0.929 . S
C977 C975 1.433 . S
C977 N980 1.384 . S
C978 H969 0.929 . S
C978 C970 1.378 . S
C978 C973 1.350 . S
C979 H966 0.929 . S
C979 C971 1.433 . S
C979 N981 1.384 . S
N980 C976 1.427 . S
N980 C977 1.384 . S
N981 C973 1.427 . S
N981 C979 1.384 . S
H982 C988 0.930 . S
H983 C992 0.930 . S
H984 C997 0.929 . S
H985 C995 0.929 . S
H986 C990 0.929 . S
H987 C996 0.929 . S
C988 H982 0.930 . S
C988 C989 1.367 . S
C988 C996 1.378 . S
C989 C988 1.367 . S
C989 C997 1.433 . S
C990 H986 0.929 . S
C990 C992 1.378 . S
C990 C994 1.350 . S
C991 C994 1.463 . S
C991 C996 1.350 . S
C991 N999 1.427 . S
C992 H983 0.930 . S
C992 C990 1.378 . S
C992 C993 1.367 . S
C993 C992 1.367 . S
C993 C995 1.433 . S
C994 C990 1.350 . S
C994 C991 1.463 . S
C994 N998 1.427 . S
C995 H985 0.929 . S
C995 C993 1.433 . S
C995 N998 1.384 . S
C996 H987 0.929 . S
C996 C988 1.378 . S
C996 C991 1.350 . S
C997 H984 0.929 . S
C997 C989 1.433 . S
C997 N999 1.384 . S
N998 C994 1.427 . S
N998 C995 1.384 . S
N999 C991 1.427 . S
N999 C997 1.384 . S
H1000 C1006 0.930 . S
H1001 C1010 0.930 . S
H1002 C1015 0.929 . S
H1003 C1013 0.929 . S
H1004 C1008 0.929 . S
H1005 C1014 0.929 . S
C1006 H1000 0.930 . S
C1006 C1007 1.367 . S
C1006 C1014 1.378 . S
C1007 C1006 1.367 . S
C1007 C1015 1.433 . S
C1008 H1004 0.929 . S
C1008 C1010 1.378 . S
C1008 C1012 1.350 . S
C1009 C1012 1.463 . S
C1009 C1014 1.350 . S
C1009 N1017 1.427 . S
C1010 H1001 0.930 . S
C1010 C1008 1.378 . S
C1010 C1011 1.367 . S
C1011 C1010 1.367 . S
C1011 C1013 1.433 . S
C1012 C1008 1.350 . S
C1012 C1009 1.463 . S
C1012 N1016 1.427 . S
C1013 H1003 0.929 . S
C1013 C1011 1.433 . S
C1013 N1016 1.384 . S
C1014 H1005 0.929 . S
C1014 C1006 1.378 . S
C1014 C1009 1.350 . S
C1015 H1002 0.929 . S
C1015 C1007 1.433 . S
C1015 N1017 1.384 . S
N1016 C1012 1.427 . S
N1016 C1013 1.384 . S
N1017 C1009 1.427 . S
N1017 C1015 1.384 . S
H1018 C1024 0.930 . S
H1019 C1028 0.930 . S
H1020 C1033 0.929 . S
H1021 C1031 0.929 . S
H1022 C1026 0.929 . S
H1023 C1032 0.929 . S
C1024 H1018 0.930 . S
C1024 C1025 1.367 . S
C1024 C1032 1.378 . S
C1025 C1024 1.367 . S
C1025 C1033 1.433 . S
C1026 H1022 0.929 . S
C1026 C1028 1.378 . S
C1026 C1030 1.350 . S
C1027 C1030 1.463 . S
C1027 C1032 1.350 . S
C1027 N1035 1.427 . S
C1028 H1019 0.930 . S
C1028 C1026 1.378 . S
C1028 C1029 1.367 . S
C1029 C1028 1.367 . S
C1029 C1031 1.433 . S
C1030 C1026 1.350 . S
C1030 C1027 1.463 . S
C1030 N1034 1.427 . S
C1031 H1021 0.929 . S
C1031 C1029 1.433 . S
C1031 N1034 1.384 . S
C1032 H1023 0.929 . S
C1032 C1024 1.378 . S
C1032 C1027 1.350 . S
C1033 H1020 0.929 . S
C1033 C1025 1.433 . S
C1033 N1035 1.384 . S
N1034 C1030 1.427 . S
N1034 C1031 1.384 . S
N1035 C1027 1.427 . S
N1035 C1033 1.384 . S
H1036 C1042 0.930 . S
H1037 C1046 0.930 . S
H1038 C1051 0.929 . S
H1039 C1049 0.929 . S
H1040 C1044 0.929 . S
H1041 C1050 0.929 . S
C1042 H1036 0.930 . S
C1042 C1043 1.367 . S
C1042 C1050 1.378 . S
C1043 C1042 1.367 . S
C1043 C1051 1.433 . S
C1044 H1040 0.929 . S
C1044 C1046 1.378 . S
C1044 C1048 1.350 . S
C1045 C1048 1.463 . S
C1045 C1050 1.350 . S
C1045 N1053 1.427 . S
C1046 H1037 0.930 . S
C1046 C1044 1.378 . S
C1046 C1047 1.367 . S
C1047 C1046 1.367 . S
C1047 C1049 1.433 . S
C1048 C1044 1.350 . S
C1048 C1045 1.463 . S
C1048 N1052 1.427 . S
C1049 H1039 0.929 . S
C1049 C1047 1.433 . S
C1049 N1052 1.384 . S
C1050 H1041 0.929 . S
C1050 C1042 1.378 . S
C1050 C1045 1.350 . S
C1051 H1038 0.929 . S
C1051 C1043 1.433 . S
C1051 N1053 1.384 . S
N1052 C1048 1.427 . S
N1052 C1049 1.384 . S
N1053 C1045 1.427 . S
N1053 C1051 1.384 . S
H1054 C1060 0.930 . S
H1055 C1064 0.930 . S
H1056 C1069 0.929 . S
H1057 C1067 0.929 . S
H1058 C1062 0.929 . S
H1059 C1068 0.929 . S
C1060 H1054 0.930 . S
C1060 C1061 1.367 . S
C1060 C1068 1.378 . S
C1061 C1060 1.367 . S
C1061 C1069 1.433 . S
C1062 H1058 0.929 . S
C1062 C1064 1.378 . S
C1062 C1066 1.350 . S
C1063 C1066 1.463 . S
C1063 C1068 1.350 . S
C1063 N1071 1.427 . S
C1064 H1055 0.930 . S
C1064 C1062 1.378 . S
C1064 C1065 1.367 . S
C1065 C1064 1.367 . S
C1065 C1067 1.433 . S
C1066 C1062 1.350 . S
C1066 C1063 1.463 . S
C1066 N1070 1.427 . S
C1067 H1057 0.929 . S
C1067 C1065 1.433 . S
C1067 N1070 1.384 . S
C1068 H1059 0.929 . S
C1068 C1060 1.378 . S
C1068 C1063 1.350 . S
C1069 H1056 0.929 . S
C1069 C1061 1.433 . S
C1069 N1071 1.384 . S
N1070 C1066 1.427 . S
N1070 C1067 1.384 . S
N1071 C1063 1.427 . S
N1071 C1069 1.384 . S
H1072 C1078 0.930 . S
H1073 C1082 0.930 . S
H1074 C1087 0.929 . S
H1075 C1085 0.929 . S
H1076 C1080 0.929 . S
H1077 C1086 0.929 . S
C1078 H1072 0.930 . S
C1078 C1079 1.367 . S
C1078 C1086 1.378 . S
C1079 C1078 1.367 . S
C1079 C1087 1.433 . S
C1080 H1076 0.929 . S
C1080 C1082 1.378 . S
C1080 C1084 1.350 . S
C1081 C1084 1.463 . S
C1081 C1086 1.350 . S
C1081 N1089 1.427 . S
C1082 H1073 0.930 . S
C1082 C1080 1.378 . S
C1082 C1083 1.367 . S
C1083 C1082 1.367 . S
C1083 C1085 1.433 . S
C1084 C1080 1.350 . S
C1084 C1081 1.463 . S
C1084 N1088 1.427 . S
C1085 H1075 0.929 . S
C1085 C1083 1.433 . S
C1085 N1088 1.384 . S
C1086 H1077 0.929 . S
C1086 C1078 1.378 . S
C1086 C1081 1.350 . S
C1087 H1074 0.929 . S
C1087 C1079 1.433 . S
C1087 N1089 1.384 . S
N1088 C1084 1.427 . S
N1088 C1085 1.384 . S
N1089 C1081 1.427 . S
N1089 C1087 1.384 . S
H1090 C1096 0.930 . S
H1091 C1100 0.930 . S
H1092 C1105 0.929 . S
H1093 C1103 0.929 . S
H1094 C1098 0.929 . S
H1095 C1104 0.929 . S
C1096 H1090 0.930 . S
C1096 C1097 1.367 . S
C1096 C1104 1.378 . S
C1097 C1096 1.367 . S
C1097 C1105 1.433 1_545 S
C1098 H1094 0.929 . S
C1098 C1100 1.378 . S
C1098 C1102 1.350 . S
C1099 C1102 1.463 . S
C1099 C1104 1.350 1_565 S
C1099 N1107 1.427 . S
C1100 H1091 0.930 . S
C1100 C1098 1.378 . S
C1100 C1101 1.367 . S
C1101 C1100 1.367 . S
C1101 C1103 1.433 . S
C1102 C1098 1.350 . S
C1102 C1099 1.463 . S
C1102 N1106 1.427 . S
C1103 H1093 0.929 . S
C1103 C1101 1.433 . S
C1103 N1106 1.384 . S
C1104 H1095 0.929 . S
C1104 C1096 1.378 . S
C1104 C1099 1.350 1_545 S
C1105 H1092 0.929 . S
C1105 C1097 1.433 1_565 S
C1105 N1107 1.384 . S
N1106 C1102 1.427 . S
N1106 C1103 1.384 . S
N1107 C1099 1.427 . S
N1107 C1105 1.384 . S
H1108 C1114 0.930 . S
H1109 C1118 0.930 . S
H1110 C1123 0.929 . S
H1111 C1121 0.929 . S
H1112 C1116 0.929 . S
H1113 C1122 0.929 . S
C1114 H1108 0.930 . S
C1114 C1115 1.367 . S
C1114 C1122 1.378 . S
C1115 C1114 1.367 . S
C1115 C1123 1.433 . S
C1116 H1112 0.929 . S
C1116 C1118 1.378 . S
C1116 C1120 1.350 . S
C1117 C1120 1.463 . S
C1117 C1122 1.350 . S
C1117 N1125 1.427 . S
C1118 H1109 0.930 . S
C1118 C1116 1.378 . S
C1118 C1119 1.367 . S
C1119 C1118 1.367 . S
C1119 C1121 1.433 . S
C1120 C1116 1.350 . S
C1120 C1117 1.463 . S
C1120 N1124 1.427 . S
C1121 H1111 0.929 . S
C1121 C1119 1.433 . S
C1121 N1124 1.384 . S
C1122 H1113 0.929 . S
C1122 C1114 1.378 . S
C1122 C1117 1.350 . S
C1123 H1110 0.929 . S
C1123 C1115 1.433 . S
C1123 N1125 1.384 . S
N1124 C1120 1.427 . S
N1124 C1121 1.384 . S
N1125 C1117 1.427 . S
N1125 C1123 1.384 . S
H1126 C1132 0.930 . S
H1127 C1136 0.930 1_565 S
H1128 C1141 0.929 1_565 S
H1129 C1139 0.929 . S
H1130 C1134 0.929 1_565 S
H1131 C1140 0.929 . S
C1132 H1126 0.930 . S
C1132 C1133 1.367 . S
C1132 C1140 1.378 . S
C1133 C1132 1.367 . S
C1133 C1141 1.433 . S
C1134 H1130 0.929 1_545 S
C1134 C1136 1.378 . S
C1134 C1138 1.350 . S
C1135 C1138 1.463 . S
C1135 C1140 1.350 . S
C1135 N1143 1.427 . S
C1136 H1127 0.930 1_545 S
C1136 C1134 1.378 . S
C1136 C1137 1.367 . S
C1137 C1136 1.367 . S
C1137 C1139 1.433 . S
C1138 C1134 1.350 . S
C1138 C1135 1.463 . S
C1138 N1142 1.427 . S
C1139 H1129 0.929 . S
C1139 C1137 1.433 . S
C1139 N1142 1.384 . S
C1140 H1131 0.929 . S
C1140 C1132 1.378 . S
C1140 C1135 1.350 . S
C1141 H1128 0.929 1_545 S
C1141 C1133 1.433 . S
C1141 N1143 1.384 . S
N1142 C1138 1.427 . S
N1142 C1139 1.384 . S
N1143 C1135 1.427 . S
N1143 C1141 1.384 . S
H1144 C1150 0.930 . S
H1145 C1154 0.930 . S
H1146 C1159 0.929 . S
H1147 C1157 0.929 . S
H1148 C1152 0.929 . S
H1149 C1158 0.929 . S
C1150 H1144 0.930 . S
C1150 C1151 1.367 . S
C1150 C1158 1.378 . S
C1151 C1150 1.367 . S
C1151 C1159 1.433 . S
C1152 H1148 0.929 . S
C1152 C1154 1.378 . S
C1152 C1156 1.350 . S
C1153 C1156 1.463 . S
C1153 C1158 1.350 . S
C1153 N1161 1.427 . S
C1154 H1145 0.930 . S
C1154 C1152 1.378 . S
C1154 C1155 1.367 . S
C1155 C1154 1.367 . S
C1155 C1157 1.433 . S
C1156 C1152 1.350 . S
C1156 C1153 1.463 . S
C1156 N1160 1.427 . S
C1157 H1147 0.929 . S
C1157 C1155 1.433 . S
C1157 N1160 1.384 . S
C1158 H1149 0.929 . S
C1158 C1150 1.378 . S
C1158 C1153 1.350 . S
C1159 H1146 0.929 . S
C1159 C1151 1.433 . S
C1159 N1161 1.384 . S
N1160 C1156 1.427 . S
N1160 C1157 1.384 . S
N1161 C1153 1.427 . S
N1161 C1159 1.384 . S
H1162 C1168 0.930 . S
H1163 C1172 0.930 . S
H1164 C1177 0.929 . S
H1165 C1175 0.929 . S
H1166 C1170 0.929 . S
H1167 C1176 0.929 . S
C1168 H1162 0.930 . S
C1168 C1169 1.367 . S
C1168 C1176 1.378 . S
C1169 C1168 1.367 . S
C1169 C1177 1.433 1_556 S
C1170 H1166 0.929 . S
C1170 C1172 1.378 . S
C1170 C1174 1.350 1_554 S
C1171 C1174 1.463 . S
C1171 C1176 1.350 . S
C1171 N1179 1.427 1_556 S
C1172 H1163 0.930 . S
C1172 C1170 1.378 . S
C1172 C1173 1.367 1_554 S
C1173 C1172 1.367 1_556 S
C1173 C1175 1.433 . S
C1174 C1170 1.350 1_556 S
C1174 C1171 1.463 . S
C1174 N1178 1.427 . S
C1175 H1165 0.929 . S
C1175 C1173 1.433 . S
C1175 N1178 1.384 . S
C1176 H1167 0.929 . S
C1176 C1168 1.378 . S
C1176 C1171 1.350 . S
C1177 H1164 0.929 . S
C1177 C1169 1.433 1_554 S
C1177 N1179 1.384 . S
N1178 C1174 1.427 . S
N1178 C1175 1.384 . S
N1179 C1171 1.427 1_554 S
N1179 C1177 1.384 . S
H1180 C1186 0.930 . S
H1181 C1190 0.930 . S
H1182 C1195 0.929 . S
H1183 C1193 0.929 . S
H1184 C1188 0.929 . S
H1185 C1194 0.929 . S
C1186 H1180 0.930 . S
C1186 C1187 1.367 . S
C1186 C1194 1.378 . S
C1187 C1186 1.367 . S
C1187 C1195 1.433 1_554 S
C1188 H1184 0.929 . S
C1188 C1190 1.378 . S
C1188 C1192 1.350 . S
C1189 C1192 1.462 . S
C1189 C1194 1.353 1_556 S
C1189 N1197 1.424 . S
C1190 H1181 0.930 . S
C1190 C1188 1.378 . S
C1190 C1191 1.367 . S
C1191 C1190 1.367 . S
C1191 C1193 1.433 1_556 S
C1192 C1188 1.350 . S
C1192 C1189 1.462 . S
C1192 N1196 1.427 1_556 S
C1193 H1183 0.929 . S
C1193 C1191 1.433 1_554 S
C1193 N1196 1.384 . S
C1194 H1185 0.929 . S
C1194 C1186 1.378 . S
C1194 C1189 1.353 1_554 S
C1195 H1182 0.929 . S
C1195 C1187 1.433 1_556 S
C1195 N1197 1.384 . S
N1196 C1192 1.427 1_554 S
N1196 C1193 1.384 . S
N1197 C1189 1.424 . S
N1197 C1195 1.384 . S
H1198 C1204 0.930 . S
H1199 C1208 0.930 1_556 S
H1200 C1213 0.929 . S
H1201 C1211 0.929 . S
H1202 C1206 0.929 1_556 S
H1203 C1212 0.929 . S
C1204 H1198 0.930 . S
C1204 C1205 1.367 . S
C1204 C1212 1.378 . S
C1205 C1204 1.367 . S
C1205 C1213 1.433 1_554 S
C1206 H1202 0.929 1_554 S
C1206 C1208 1.378 . S
C1206 C1210 1.350 . S
C1207 C1210 1.463 . S
C1207 C1212 1.350 . S
C1207 N1215 1.427 1_554 S
C1208 H1199 0.930 1_554 S
C1208 C1206 1.378 . S
C1208 C1209 1.367 . S
C1209 C1208 1.367 . S
C1209 C1211 1.433 . S
C1210 C1206 1.350 . S
C1210 C1207 1.463 . S
C1210 N1214 1.427 . S
C1211 H1201 0.929 . S
C1211 C1209 1.433 . S
C1211 N1214 1.384 . S
C1212 H1203 0.929 . S
C1212 C1204 1.378 . S
C1212 C1207 1.350 . S
C1213 H1200 0.929 . S
C1213 C1205 1.433 1_556 S
C1213 N1215 1.384 . S
N1214 C1210 1.427 . S
N1214 C1211 1.384 . S
N1215 C1207 1.427 1_556 S
N1215 C1213 1.384 . S
C359 C13 1.575 . S
C363 C231 1.573 . S
C381 C257 1.607 . S
C377 C1 1.629 . S
C399 C189 1.625 . S
C395 C27 1.617 . S
C413 C15 1.383 . S
C417 C212 1.392 . S
C431 C28 1.476 . S
C435 C346 1.466 . S
C449 C55 1.376 . S
C453 C327 1.381 . S
C471 C280 1.622 . S
C467 C40 1.655 . S
C485 C43 1.682 . S
C489 C303 1.663 . S
C507 C208 1.631 . S
C503 C56 1.640 . S
C525 C258 1.404 . S
C521 C83 1.391 . S
C539 C96 1.587 . S
C543 C234 1.572 . S
C557 C71 1.676 . S
C561 C300 1.665 . S
C579 C323 1.567 . S
C575 C99 1.575 . S
C597 C349 1.608 . S
C593 C111 1.626 . S
C611 C113 1.614 . S
C615 C304 1.626 . S
C633 C281 1.392 . S
C629 C125 1.384 . S
C647 C139 1.469 . S
C651 C254 1.462 . S
C665 C153 1.372 . S
C669 C235 1.380 . S
C687 C211 1.618 . S
C683 C127 1.660 . S
C701 C141 1.684 . S
C705 C188 1.658 . S
C723 C277 1.635 . S
C719 C84 1.642 . S
C741 C350 1.403 . S
C737 C154 1.392 . S
C755 C68 1.585 . S
C759 C326 1.555 . S
C773 C166 1.679 . S
C777 C185 1.662 . S
C795 C187 1.274 . S
C791 C0 1.339 . S
C809 C12 1.475 . S
C813 C210 1.386 . S
C831 C232 1.222 . S
C827 C14 1.214 . S
C849 C253 1.327 . S
C845 C26 1.324 . S
C863 C41 1.406 . S
C867 C184 1.395 . S
C881 C42 1.396 . S
C885 C207 1.398 . S
C903 C233 1.362 . S
C899 C29 1.447 . S
C917 C54 1.345 . S
C921 C255 1.346 . S
C935 C69 1.267 . S
C939 C186 1.278 . S
C957 C230 1.331 . S
C953 C70 1.342 . S
C971 C85 1.410 . S
C975 C256 1.344 . S
C989 C82 1.190 . S
C993 C278 1.196 . S
C1011 C302 1.268 . S
C1007 C110 1.338 . S
C1025 C98 1.472 . S
C1029 C279 1.397 . S
C1043 C124 1.213 . S
C1047 C324 1.224 . S
C1061 C112 1.324 . S
C1065 C345 1.323 . S
C1079 C126 1.406 . S
C1083 C299 1.405 . S
C1101 C276 1.396 . S
C1097 C140 1.395 . S
C1115 C138 1.447 . S
C1119 C325 1.362 . S
C1137 C347 1.343 . S
C1133 C152 1.343 . S
C1155 C301 1.272 . S
C1151 C97 1.275 . S
C1173 C322 1.340 . S
C1169 C167 1.342 . S
C1191 C348 1.342 . S
C1187 C57 1.411 . S
C1205 C155 1.191 . S
C1209 C209 1.187 . S
