# Generated by pormake.
# Topology gar, (4,6)-cn, num edge types: 1
# Building blocks:
#     Node 0, Type 0, BuildingBlock: UXUYUI_clean_sbu_0, # of connection points: 4
#     Node 1, Type 0, BuildingBlock: UXUYUI_clean_sbu_0, # of connection points: 4
#     Node 2, Type 0, BuildingBlock: UXUYUI_clean_sbu_0, # of connection points: 4
#     Node 3, Type 0, BuildingBlock: UXUYUI_clean_sbu_0, # of connection points: 4
#     Node 4, Type 0, BuildingBlock: UXUYUI_clean_sbu_0, # of connection points: 4
#     Node 5, Type 0, BuildingBlock: UXUYUI_clean_sbu_0, # of connection points: 4
#     Node 6, Type 0, BuildingBlock: UXUYUI_clean_sbu_0, # of connection points: 4
#     Node 7, Type 0, BuildingBlock: UXUYUI_clean_sbu_0, # of connection points: 4
#     Node 8, Type 0, BuildingBlock: UXUYUI_clean_sbu_0, # of connection points: 4
#     Node 9, Type 0, BuildingBlock: UXUYUI_clean_sbu_0, # of connection points: 4
#     Node 10, Type 0, BuildingBlock: UXUYUI_clean_sbu_0, # of connection points: 4
#     Node 11, Type 0, BuildingBlock: UXUYUI_clean_sbu_0, # of connection points: 4
#     Node 12, Type 0, BuildingBlock: UXUYUI_clean_sbu_0, # of connection points: 4
#     Node 13, Type 0, BuildingBlock: UXUYUI_clean_sbu_0, # of connection points: 4
#     Node 14, Type 0, BuildingBlock: UXUYUI_clean_sbu_0, # of connection points: 4
#     Node 15, Type 0, BuildingBlock: UXUYUI_clean_sbu_0, # of connection points: 4
#     Node 16, Type 0, BuildingBlock: UXUYUI_clean_sbu_0, # of connection points: 4
#     Node 17, Type 0, BuildingBlock: UXUYUI_clean_sbu_0, # of connection points: 4
#     Node 18, Type 0, BuildingBlock: UXUYUI_clean_sbu_0, # of connection points: 4
#     Node 19, Type 0, BuildingBlock: UXUYUI_clean_sbu_0, # of connection points: 4
#     Node 20, Type 0, BuildingBlock: UXUYUI_clean_sbu_0, # of connection points: 4
#     Node 21, Type 0, BuildingBlock: UXUYUI_clean_sbu_0, # of connection points: 4
#     Node 22, Type 0, BuildingBlock: UXUYUI_clean_sbu_0, # of connection points: 4
#     Node 23, Type 0, BuildingBlock: UXUYUI_clean_sbu_0, # of connection points: 4
#     Node 24, Type 1, BuildingBlock: NUHQIS_clean_sbu_0, # of connection points: 6
#     Node 25, Type 1, BuildingBlock: NUHQIS_clean_sbu_0, # of connection points: 6
#     Node 26, Type 1, BuildingBlock: NUHQIS_clean_sbu_0, # of connection points: 6
#     Node 27, Type 1, BuildingBlock: NUHQIS_clean_sbu_0, # of connection points: 6
#     Node 28, Type 1, BuildingBlock: NUHQIS_clean_sbu_0, # of connection points: 6
#     Node 29, Type 1, BuildingBlock: NUHQIS_clean_sbu_0, # of connection points: 6
#     Node 30, Type 1, BuildingBlock: NUHQIS_clean_sbu_0, # of connection points: 6
#     Node 31, Type 1, BuildingBlock: NUHQIS_clean_sbu_0, # of connection points: 6
#     Node 32, Type 1, BuildingBlock: NUHQIS_clean_sbu_0, # of connection points: 6
#     Node 33, Type 1, BuildingBlock: NUHQIS_clean_sbu_0, # of connection points: 6
#     Node 34, Type 1, BuildingBlock: NUHQIS_clean_sbu_0, # of connection points: 6
#     Node 35, Type 1, BuildingBlock: NUHQIS_clean_sbu_0, # of connection points: 6
#     Node 36, Type 1, BuildingBlock: NUHQIS_clean_sbu_0, # of connection points: 6
#     Node 37, Type 1, BuildingBlock: NUHQIS_clean_sbu_0, # of connection points: 6
#     Node 38, Type 1, BuildingBlock: NUHQIS_clean_sbu_0, # of connection points: 6
#     Node 39, Type 1, BuildingBlock: NUHQIS_clean_sbu_0, # of connection points: 6
#     Edge 40, Type (0, 1), None
#     Edge 41, Type (0, 1), None
#     Edge 42, Type (0, 1), None
#     Edge 43, Type (0, 1), None
#     Edge 44, Type (0, 1), None
#     Edge 45, Type (0, 1), None
#     Edge 46, Type (0, 1), None
#     Edge 47, Type (0, 1), None
#     Edge 48, Type (0, 1), None
#     Edge 49, Type (0, 1), None
#     Edge 50, Type (0, 1), None
#     Edge 51, Type (0, 1), None
#     Edge 52, Type (0, 1), None
#     Edge 53, Type (0, 1), None
#     Edge 54, Type (0, 1), None
#     Edge 55, Type (0, 1), None
#     Edge 56, Type (0, 1), None
#     Edge 57, Type (0, 1), None
#     Edge 58, Type (0, 1), None
#     Edge 59, Type (0, 1), None
#     Edge 60, Type (0, 1), None
#     Edge 61, Type (0, 1), None
#     Edge 62, Type (0, 1), None
#     Edge 63, Type (0, 1), None
#     Edge 64, Type (0, 1), None
#     Edge 65, Type (0, 1), None
#     Edge 66, Type (0, 1), None
#     Edge 67, Type (0, 1), None
#     Edge 68, Type (0, 1), None
#     Edge 69, Type (0, 1), None
#     Edge 70, Type (0, 1), None
#     Edge 71, Type (0, 1), None
#     Edge 72, Type (0, 1), None
#     Edge 73, Type (0, 1), None
#     Edge 74, Type (0, 1), None
#     Edge 75, Type (0, 1), None
#     Edge 76, Type (0, 1), None
#     Edge 77, Type (0, 1), None
#     Edge 78, Type (0, 1), None
#     Edge 79, Type (0, 1), None
#     Edge 80, Type (0, 1), None
#     Edge 81, Type (0, 1), None
#     Edge 82, Type (0, 1), None
#     Edge 83, Type (0, 1), None
#     Edge 84, Type (0, 1), None
#     Edge 85, Type (0, 1), None
#     Edge 86, Type (0, 1), None
#     Edge 87, Type (0, 1), None
#     Edge 88, Type (0, 1), None
#     Edge 89, Type (0, 1), None
#     Edge 90, Type (0, 1), None
#     Edge 91, Type (0, 1), None
#     Edge 92, Type (0, 1), None
#     Edge 93, Type (0, 1), None
#     Edge 94, Type (0, 1), None
#     Edge 95, Type (0, 1), None
#     Edge 96, Type (0, 1), None
#     Edge 97, Type (0, 1), None
#     Edge 98, Type (0, 1), None
#     Edge 99, Type (0, 1), None
#     Edge 100, Type (0, 1), None
#     Edge 101, Type (0, 1), None
#     Edge 102, Type (0, 1), None
#     Edge 103, Type (0, 1), None
#     Edge 104, Type (0, 1), None
#     Edge 105, Type (0, 1), None
#     Edge 106, Type (0, 1), None
#     Edge 107, Type (0, 1), None
#     Edge 108, Type (0, 1), None
#     Edge 109, Type (0, 1), None
#     Edge 110, Type (0, 1), None
#     Edge 111, Type (0, 1), None
#     Edge 112, Type (0, 1), None
#     Edge 113, Type (0, 1), None
#     Edge 114, Type (0, 1), None
#     Edge 115, Type (0, 1), None
#     Edge 116, Type (0, 1), None
#     Edge 117, Type (0, 1), None
#     Edge 118, Type (0, 1), None
#     Edge 119, Type (0, 1), None
#     Edge 120, Type (0, 1), None
#     Edge 121, Type (0, 1), None
#     Edge 122, Type (0, 1), None
#     Edge 123, Type (0, 1), None
#     Edge 124, Type (0, 1), None
#     Edge 125, Type (0, 1), None
#     Edge 126, Type (0, 1), None
#     Edge 127, Type (0, 1), None
#     Edge 128, Type (0, 1), None
#     Edge 129, Type (0, 1), None
#     Edge 130, Type (0, 1), None
#     Edge 131, Type (0, 1), None
#     Edge 132, Type (0, 1), None
#     Edge 133, Type (0, 1), None
#     Edge 134, Type (0, 1), None
#     Edge 135, Type (0, 1), None
# Relax obj value: 0.346
# Max RMSD: 0.387
# Mean RMSD: 0.199
data_MOF--net-gar--node1-UXUYUI_clean_sbu_0--node2-NUHQIS_clean_sbu_0--edge1-none
_symmetry_space_group_name_H-M    P1
_symmetry_Int_Tables_number       1
_symmetry_cell_setting            triclinic
loop_
_symmetry_equiv_pos_as_xyz
'x, y, z'
_cell_length_a     41.361894
_cell_length_b     43.041888
_cell_length_c     40.548865
_cell_angle_alpha  92.85449
_cell_angle_beta   98.126156
_cell_angle_gamma 101.4708
loop_
_atom_site_label
_atom_site_type_symbol
_atom_site_fract_x
_atom_site_fract_y
_atom_site_fract_z
_atom_type_partial_charge
Li0 Li 0.05639 0.31805 0.39296 0.0
Li1 Li 0.09642 0.35988 0.441 0.0
Li2 Li 0.12596 0.32275 0.39397 0.0
Li3 Li 0.09141 0.28442 0.4401 0.0
C4 C 0.08373 0.3631 0.35697 0.0
N5 N 0.05383 0.36781 0.29255 0.0
C6 C 0.06023 0.38217 0.35114 0.0
C7 C 0.09273 0.34711 0.32995 0.0
C8 C 0.0448 0.38363 0.31845 0.0
C9 C 0.07754 0.35 0.29755 0.0
C10 C 1.02549 0.31285 0.44769 0.0
C11 C 0.97279 0.27643 0.44646 0.0
N12 N 0.95777 0.30153 0.45003 0.0
C13 C 1.00964 0.3383 0.45167 0.0
C14 C 1.00701 0.28167 0.44516 0.0
C15 C 0.97531 0.33206 0.45261 0.0
C16 C 0.9845 0.29108 0.34629 0.0
N17 N 1.00475 0.31687 0.36556 0.0
C18 C 0.95824 0.34486 0.35288 0.0
C19 C 0.99099 0.34324 0.36908 0.0
C20 C 0.9368 0.31884 0.3328 0.0
C21 C 0.95106 0.29149 0.33027 0.0
H22 H 0.99384 0.26951 0.34334 0.0
H23 H 1.00519 0.3636 0.3851 0.0
C24 C 0.10708 0.42125 0.50058 0.0
N25 N 0.09702 0.41123 0.46698 0.0
C26 C 0.1065 0.45297 0.51509 0.0
C27 C 0.08528 0.46603 0.46163 0.0
C28 C 0.08623 0.43422 0.44807 0.0
C29 C 0.09547 0.47717 0.49611 0.0
H30 H 0.11579 0.40467 0.51712 0.0
H31 H 0.0779 0.42828 0.42164 0.0
C32 C 0.08633 0.261 0.36317 0.0
N33 N 0.08943 0.21703 0.31236 0.0
C34 C 0.10661 0.23885 0.36893 0.0
C35 C 0.06786 0.26102 0.33154 0.0
C36 C 0.10774 0.21672 0.34293 0.0
C37 C 0.06972 0.23855 0.30618 0.0
C38 C 0.16562 0.33006 0.45777 0.0
C39 C 0.17997 0.30327 0.45772 0.0
C40 C 0.18576 0.36015 0.46732 0.0
C41 C 0.21442 0.30708 0.46732 0.0
C42 C 0.2201 0.36295 0.47682 0.0
N43 N 0.23359 0.33659 0.4766 0.0
C44 C 0.20126 0.34807 0.37351 0.0
C45 C 0.17426 0.3013 0.34174 0.0
C46 C 0.23056 0.34924 0.35703 0.0
N47 N 0.17277 0.32424 0.36635 0.0
C48 C 0.20316 0.30158 0.32485 0.0
C49 C 0.23295 0.32578 0.33175 0.0
H50 H 0.20191 0.36684 0.39251 0.0
H51 H 0.15286 0.28202 0.33465 0.0
C52 C 0.08025 0.20541 0.44592 0.0
N53 N 0.08826 0.23437 0.46504 0.0
C54 C 0.07832 0.17439 0.45973 0.0
C55 C 0.09196 0.20062 0.51382 0.0
C56 C 0.09401 0.2312 0.4991 0.0
C57 C 0.08401 0.17035 0.49475 0.0
H58 H 0.07497 0.20563 0.41907 0.0
H59 H 0.10037 0.25259 0.51589 0.0
O60 O 0.09541 0.35731 0.38886 0.0
O61 O 0.05861 0.31834 0.44474 0.0
O62 O 0.08509 0.28298 0.38821 0.0
O63 O 0.13216 0.3269 0.44736 0.0
H64 H 0.05316 0.39489 0.3717 0.0
H65 H 0.11061 0.33193 0.33402 0.0
H66 H 1.02555 0.39726 0.31371 0.0
H67 H 0.0841 0.33758 0.27644 0.0
H68 H 0.95813 0.25243 0.4444 0.0
H69 H 1.02359 0.3626 0.45335 0.0
H70 H 1.01894 0.26174 0.44182 0.0
H71 H 0.96252 0.35146 0.45503 0.0
H72 H 0.94947 0.36662 0.35691 0.0
H73 H 0.9365 0.27026 0.31575 0.0
H74 H 0.11474 0.45834 0.54167 0.0
H75 H 0.07621 0.48202 0.44453 0.0
H76 H 0.12146 0.2389 0.39317 0.0
H77 H 0.05233 0.27827 0.32663 0.0
H78 H 0.12328 0.19938 0.34703 0.0
H79 H 0.05553 0.23824 0.28157 0.0
H80 H 0.16467 0.27984 0.45009 0.0
H81 H 0.17499 0.38112 0.4672 0.0
H82 H 0.22594 0.28662 0.46725 0.0
H83 H 0.23605 0.38609 0.48424 0.0
H84 H 0.25169 0.3688 0.36459 0.0
H85 H 0.20195 0.28233 0.30621 0.0
H86 H 0.07206 0.15334 0.44243 0.0
H87 H 0.09695 0.20096 0.54078 0.0
Li88 Li 0.0751 0.86386 0.64516 0.0
Li89 Li 0.1073 0.82958 0.69221 0.0
Li90 Li 0.06848 0.78801 0.64298 0.0
Li91 Li 0.03831 0.82515 0.69142 0.0
C92 C 0.14034 0.83312 0.63902 0.0
N93 N 0.20817 0.84088 0.63852 0.0
C94 C 0.15937 0.86308 0.6354 0.0
C95 C 0.15572 0.80706 0.64227 0.0
C96 C 0.19364 0.8665 0.63513 0.0
C97 C 0.19009 0.81151 0.64209 0.0
C98 C 0.09766 0.88705 0.7214 0.0
C99 C 0.11335 0.90733 0.77917 0.0
N100 N 0.13755 0.93035 0.77043 0.0
C101 C 0.12277 0.9108 0.71298 0.0
C102 C 0.09296 0.88516 0.75474 0.0
C103 C 0.14264 0.93252 0.73813 0.0
C104 C 0.07881 0.942 0.63957 0.0
N105 N 0.0778 0.91405 0.62045 0.0
C106 C 0.08074 0.94934 0.57272 0.0
C107 C 0.0788 0.91847 0.58691 0.0
C108 C 0.08206 0.97864 0.59188 0.0
C109 C 0.08097 0.97327 0.62632 0.0
H110 H 0.07793 0.94071 0.66601 0.0
H111 H 0.0781 0.89791 0.57016 0.0
C112 C 0.16586 0.80431 0.73537 0.0
N113 N 0.15771 0.83068 0.72109 0.0
C114 C 0.199 0.80383 0.7518 0.0
C115 C 0.21672 0.85733 0.73903 0.0
C116 C 0.18324 0.85698 0.72317 0.0
C117 C 0.22589 0.83052 0.75401 0.0
H118 H 0.14683 0.78282 0.73363 0.0
H119 H 0.17819 0.87802 0.71175 0.0
C120 C 1.0004 0.81737 0.62435 0.0
N121 N 0.93327 0.80837 0.59939 0.0
C122 C 0.98158 0.78669 0.615 0.0
C123 C 0.98516 0.8435 0.62106 0.0
C124 C 0.94765 0.78263 0.6024 0.0
C125 C 0.95115 0.83843 0.60837 0.0
C126 C 0.07209 0.77246 0.72092 0.0
C127 C 0.06469 0.73928 0.71609 0.0
C128 C 0.08256 0.78722 0.75322 0.0
C129 C 0.06855 0.72138 0.74365 0.0
C130 C 0.08599 0.76849 0.78015 0.0
N131 N 0.07901 0.73624 0.77482 0.0
C132 C 0.08743 0.71687 0.63395 0.0
C133 C 0.05418 0.72479 0.58533 0.0
C134 C 0.08915 0.6853 0.62027 0.0
N135 N 0.06982 0.73711 0.61714 0.0
C136 C 0.05581 0.6935 0.57058 0.0
C137 C 0.07334 0.6719 0.58758 0.0
H138 H 0.10085 0.72492 0.65874 0.0
H139 H 0.04003 0.73916 0.57045 0.0
C140 C 0.99124 0.84411 0.74634 0.0
N141 N 0.99127 0.82407 0.71851 0.0
C142 C 0.96214 0.84395 0.76296 0.0
C143 C 0.93137 0.80283 0.72331 0.0
C144 C 0.96094 0.80359 0.70744 0.0
C145 C 0.93057 0.82297 0.75219 0.0
H146 H 1.01397 0.86103 0.75625 0.0
H147 H 0.95895 0.78741 0.68561 0.0
O148 O 0.10707 0.82955 0.64074 0.0
O149 O 0.0785 0.86522 0.69717 0.0
O150 O 1.03341 0.82172 0.63751 0.0
O151 O 0.06872 0.79044 0.69427 0.0
H152 H 0.14781 0.8835 0.63313 0.0
H153 H 0.14133 0.78378 0.64543 0.0
H154 H 0.20873 0.88956 0.63244 0.0
H155 H 0.20243 0.79166 0.64492 0.0
H156 H 0.10999 0.90617 0.8051 0.0
H157 H 0.12704 0.91224 0.68732 0.0
H158 H 0.07392 0.86667 0.76171 0.0
H159 H 0.16219 0.95101 0.73199 0.0
H160 H 0.08124 0.95 0.54615 0.0
H161 H 0.08158 0.99345 0.64359 0.0
H162 H 0.20358 0.78211 0.7621 0.0
H163 H 0.23555 0.87878 0.73916 0.0
H164 H 0.99306 0.76624 0.61761 0.0
H165 H 0.99942 0.8674 0.6284 0.0
H166 H 0.93272 0.75902 0.59509 0.0
H167 H 0.93895 0.85837 0.60575 0.0
H168 H 0.05576 0.72747 0.69137 0.0
H169 H 0.0883 0.81288 0.75736 0.0
H170 H 0.06306 0.69567 0.74029 0.0
H171 H 0.09427 0.77956 0.80527 0.0
H172 H 0.10359 0.67149 0.63564 0.0
H173 H 0.04288 0.68626 0.54542 0.0
H174 H 0.96462 0.86068 0.78445 0.0
H175 H 0.90863 0.78645 0.71222 0.0
Li176 Li 0.55652 0.81875 0.89313 0.0
Li177 Li 0.59639 0.86071 0.9412 0.0
Li178 Li 0.62629 0.82339 0.89454 0.0
Li179 Li 0.59176 0.78534 0.94062 0.0
C180 C 0.58412 0.86314 0.85686 0.0
N181 N 0.55452 0.86623 0.79195 0.0
C182 C 0.55993 0.88137 0.85028 0.0
C183 C 0.59396 0.84721 0.83033 0.0
C184 C 0.54469 0.88203 0.81734 0.0
C185 C 0.57889 0.84926 0.79767 0.0
C186 C 0.52563 0.81311 0.94804 0.0
C187 C 0.47342 0.77599 0.94694 0.0
N188 N 0.45799 0.80075 0.9508 0.0
C189 C 0.50938 0.83822 0.95233 0.0
C190 C 0.50761 0.78175 0.94541 0.0
C191 C 0.47508 0.83145 0.95348 0.0
C192 C 0.48467 0.79226 0.84572 0.0
N193 N 0.50475 0.8177 0.86569 0.0
C194 C 0.45806 0.84564 0.85375 0.0
C195 C 0.49082 0.84387 0.86987 0.0
C196 C 0.43675 0.81997 0.83302 0.0
C197 C 0.45121 0.7928 0.82976 0.0
H198 H 0.49418 0.77087 0.84211 0.0
H199 H 0.50493 0.864 0.8863 0.0
C200 C 0.60775 0.92261 1.0004 0.0
N201 N 0.59655 0.91205 0.96707 0.0
C202 C 0.6069 0.95429 1.01484 0.0
C203 C 0.58315 0.96627 0.96184 0.0
C204 C 0.58433 0.93448 0.94837 0.0
C205 C 0.59447 0.97795 0.99605 0.0
H206 H 0.61762 0.9065 0.01678 0.0
H207 H 0.57498 0.92804 0.92216 0.0
C208 C 0.5882 0.76199 0.86403 0.0
N209 N 0.59566 0.71962 0.81368 0.0
C210 C 0.60909 0.7405 0.87076 0.0
C211 C 0.57116 0.76203 0.83174 0.0
C212 C 0.6124 0.71914 0.84497 0.0
C213 C 0.57531 0.74045 0.80659 0.0
C214 C 0.66591 0.83177 0.95808 0.0
C215 C 0.68127 0.80576 0.95595 0.0
C216 C 0.68518 0.8619 0.9693 0.0
C217 C 0.71585 0.81038 0.96511 0.0
C218 C 0.71967 0.86549 0.97838 0.0
N219 N 0.73416 0.83989 0.97606 0.0
C220 C 0.70277 0.84712 0.87561 0.0
C221 C 0.67421 0.80238 0.84138 0.0
C222 C 0.73218 0.84792 0.85933 0.0
N223 N 0.67343 0.82446 0.86714 0.0
C224 C 0.70317 0.80232 0.82464 0.0
C225 C 0.73383 0.82528 0.83288 0.0
H226 H 0.70405 0.8652 0.89553 0.0
H227 H 0.65215 0.78407 0.83315 0.0
C228 C 0.5805 0.70641 0.94679 0.0
N229 N 0.58873 0.73544 0.96579 0.0
C230 C 0.57863 0.67545 0.96073 0.0
C231 C 0.59285 0.70191 1.01471 0.0
C232 C 0.59479 0.73241 0.99986 0.0
C233 C 0.58465 0.67157 0.99578 0.0
H234 H 0.57504 0.70653 0.91993 0.0
H235 H 0.60135 0.75387 0.01654 0.0
O236 O 0.59564 0.85796 0.889 0.0
O237 O 0.55872 0.8191 0.94492 0.0
O238 O 0.58531 0.78358 0.88873 0.0
O239 O 0.63233 0.82794 0.94791 0.0
H240 H 0.55229 0.89411 0.87046 0.0
H241 H 0.61238 0.83266 0.83497 0.0
H242 H 0.52499 0.89508 0.81197 0.0
H243 H 0.58609 0.83683 0.77695 0.0
H244 H 0.45911 0.75184 0.94481 0.0
H245 H 0.52297 0.86264 0.9541 0.0
H246 H 0.51986 0.76209 0.94185 0.0
H247 H 0.46196 0.85056 0.95613 0.0
H248 H 0.44918 0.86725 0.85834 0.0
H249 H 0.43681 0.77184 0.81466 0.0
H250 H 0.61612 0.96009 0.04121 0.0
H251 H 0.57295 0.9818 0.94491 0.0
H252 H 0.62283 0.74055 0.89556 0.0
H253 H 0.55508 0.77869 0.82613 0.0
H254 H 0.62846 0.70235 0.84978 0.0
H255 H 0.56236 0.74023 0.78143 0.0
H256 H 0.66666 0.78234 0.94696 0.0
H257 H 0.67361 0.88229 0.9708 0.0
H258 H 0.72816 0.79055 0.96333 0.0
H259 H 0.73494 0.88867 0.9871 0.0
H260 H 0.75396 0.86654 0.86795 0.0
H261 H 0.7013 0.78379 0.80501 0.0
H262 H 0.57221 0.65433 0.94353 0.0
H263 H 0.59811 0.70237 0.04167 0.0
Li264 Li 0.57502 0.36448 0.14553 0.0
Li265 Li 0.60714 0.32994 0.19268 0.0
Li266 Li 0.568 0.28857 0.14361 0.0
Li267 Li 0.53808 0.32578 0.19176 0.0
C268 C 0.63999 0.33311 0.13936 0.0
N269 N 0.70771 0.34012 0.13863 0.0
C270 C 0.65937 0.36299 0.13608 0.0
C271 C 0.65494 0.30677 0.14217 0.0
C272 C 0.69359 0.36603 0.13569 0.0
C273 C 0.68927 0.31083 0.14187 0.0
C274 C 0.59644 0.38784 0.22205 0.0
C275 C 0.60847 0.40958 0.27945 0.0
N276 N 0.63381 0.43201 0.27169 0.0
C277 C 0.62261 0.41104 0.21462 0.0
C278 C 0.5893 0.38699 0.25469 0.0
C279 C 0.64121 0.43319 0.24007 0.0
C280 C 0.5798 0.44289 0.14004 0.0
N281 N 0.57805 0.4148 0.12082 0.0
C282 C 0.58059 0.45005 0.07299 0.0
C283 C 0.57849 0.41916 0.08719 0.0
C284 C 0.58262 0.47948 0.09224 0.0
C285 C 0.58208 0.47417 0.12678 0.0
H286 H 0.57944 0.44168 0.16657 0.0
H287 H 0.5772 0.3985 0.07033 0.0
C288 C 0.66557 0.30357 0.23487 0.0
N289 N 0.65759 0.33035 0.22136 0.0
C290 C 0.69868 0.30261 0.25107 0.0
C291 C 0.71669 0.35648 0.23972 0.0
C292 C 0.68327 0.35659 0.22403 0.0
C293 C 0.72572 0.32924 0.25389 0.0
H294 H 0.64641 0.28212 0.23267 0.0
H295 H 0.67836 0.37796 0.21323 0.0
C296 C 0.49998 0.3179 0.12529 0.0
N297 N 0.43257 0.30862 0.10151 0.0
C298 C 0.48048 0.28711 0.11956 0.0
C299 C 0.48527 0.344 0.11901 0.0
C300 C 0.44641 0.28292 0.10751 0.0
C301 C 0.45112 0.33879 0.10694 0.0
C302 C 0.57207 0.27475 0.22289 0.0
C303 C 0.56435 0.24153 0.22041 0.0
C304 C 0.58322 0.29144 0.25421 0.0
C305 C 0.56837 0.22553 0.24937 0.0
C306 C 0.58693 0.27456 0.28258 0.0
N307 N 0.57952 0.24222 0.27957 0.0
C308 C 0.58493 0.2166 0.13527 0.0
C309 C 0.55488 0.22612 0.08535 0.0
C310 C 0.58654 0.18503 0.1215 0.0
N311 N 0.56901 0.23765 0.11781 0.0
C312 C 0.55637 0.19481 0.07057 0.0
C313 C 0.57227 0.17243 0.08814 0.0
H314 H 0.5971 0.22401 0.16062 0.0
H315 H 0.54211 0.24116 0.06997 0.0
C316 C 0.48813 0.34909 0.24107 0.0
N317 N 0.49102 0.32465 0.21882 0.0
C318 C 0.459 0.34894 0.25762 0.0
C319 C 0.43405 0.29867 0.2294 0.0
C320 C 0.46362 0.2996 0.21345 0.0
C321 C 0.43029 0.3235 0.25246 0.0
H322 H 0.50849 0.3696 0.24632 0.0
H323 H 0.46404 0.27967 0.19628 0.0
O324 O 0.60676 0.32989 0.14119 0.0
O325 O 0.57839 0.36566 0.19755 0.0
O326 O 0.53315 0.32247 0.1379 0.0
O327 O 0.56839 0.291 0.19492 0.0
H328 H 0.64814 0.38364 0.13416 0.0
H329 H 0.64027 0.28354 0.14509 0.0
H330 H 0.70896 0.38902 0.13327 0.0
H331 H 0.70128 0.29075 0.14438 0.0
H332 H 0.60325 0.40923 0.30484 0.0
H333 H 0.62862 0.41177 0.1895 0.0
H334 H 0.56926 0.36902 0.26087 0.0
H335 H 0.66158 0.45127 0.23471 0.0
H336 H 0.58063 0.45064 0.04635 0.0
H337 H 0.58328 0.49444 0.14415 0.0
H338 H 0.7031 0.28058 0.26074 0.0
H339 H 0.73562 0.37795 0.24035 0.0
H340 H 0.49154 0.26671 0.12455 0.0
H341 H 0.50007 0.36799 0.12354 0.0
H342 H 0.43097 0.25923 0.103 0.0
H343 H 0.43933 0.3587 0.10198 0.0
H344 H 0.55506 0.22826 0.19645 0.0
H345 H 0.58928 0.31716 0.25652 0.0
H346 H 0.56259 0.19986 0.24787 0.0
H347 H 0.59575 0.28714 0.30697 0.0
H348 H 0.59962 0.17054 0.13737 0.0
H349 H 0.54473 0.18822 0.04489 0.0
H350 H 0.45903 0.36934 0.27435 0.0
H351 H 0.41381 0.27809 0.22327 0.0
Li352 Li 0.1391 0.93538 0.19166 0.0
Li353 Li 0.18474 0.91965 0.22516 0.0
Li354 Li 0.13787 0.88072 0.19288 0.0
Li355 Li 0.12996 0.90974 0.24473 0.0
C356 C 0.18208 0.92948 0.15135 0.0
N357 N 0.20375 0.96565 0.10135 0.0
C358 C 0.21148 0.95261 0.15803 0.0
C359 C 0.16351 0.92469 0.11926 0.0
C360 C 0.22218 0.97037 0.13242 0.0
C361 C 0.17476 0.94347 0.09436 0.0
C362 C 0.18316 0.97075 0.26282 0.0
C363 C 0.20573 0.98959 0.32006 0.0
N364 N 0.23197 1.00873 0.30952 0.0
C365 C 0.21022 0.99075 0.25252 0.0
C366 C 0.18077 0.97022 0.29683 0.0
C367 C 0.23471 1.00969 0.27653 0.0
C368 C 0.09527 0.95896 0.14217 0.0
N369 N 0.12517 0.96574 0.16288 0.0
C370 C 0.13884 1.01653 0.14171 0.0
C371 C 0.14668 0.994 0.16321 0.0
C372 C 0.10838 1.01017 0.11947 0.0
C373 C 0.08629 0.98098 0.12011 0.0
H374 H 0.07842 0.9364 0.14253 0.0
H375 H 0.1702 0.99883 0.17992 0.0
C376 C 0.24764 0.90781 0.22066 0.0
N377 N 0.23094 0.9204 0.24273 0.0
C378 C 0.27386 0.89325 0.23206 0.0
C379 C 0.26784 0.90752 0.28887 0.0
C380 C 0.24147 0.92187 0.27633 0.0
C381 C 0.28287 0.89138 0.26647 0.0
H382 H 0.23796 0.90527 0.19427 0.0
H383 H 0.22688 0.93036 0.29353 0.0
C384 C 0.07376 0.8799 0.18526 0.0
N385 N 1.01919 0.8341 0.15581 0.0
C386 C 0.04977 0.86624 0.20427 0.0
C387 C 0.0697 0.8706 0.15113 0.0
C388 C 1.02242 0.84306 0.18895 0.0
C389 C 0.04205 0.84729 0.13675 0.0
C390 C 0.17819 0.86134 0.25223 0.0
C391 C 0.19281 0.84349 0.23127 0.0
C392 C 0.18391 0.85923 0.28678 0.0
C393 C 0.21232 0.82316 0.2451 0.0
C394 C 0.20384 0.83873 0.29973 0.0
N395 N 0.21742 0.82122 0.27876 0.0
C396 C 0.14036 0.83182 0.14472 0.0
C397 C 0.1133 0.81592 0.19087 0.0
C398 C 0.13971 0.80019 0.13472 0.0
N399 N 0.12789 0.83892 0.17274 0.0
C400 C 0.11233 0.78406 0.18194 0.0
C401 C 0.12647 0.77599 0.15407 0.0
H402 H 0.15256 0.85077 0.13138 0.0
H403 H 0.10418 0.8225 0.21337 0.0
C404 C 0.09045 0.91941 0.29612 0.0
N405 N 0.1066 0.90002 0.28028 0.0
C406 C 0.0662 0.90625 0.31513 0.0
C407 C 0.07826 0.85446 0.30314 0.0
C408 C 0.10185 0.86841 0.28444 0.0
C409 C 0.05869 0.87311 0.31685 0.0
H410 H 0.0944 0.9444 0.29185 0.0
H411 H 0.11399 0.85333 0.27062 0.0
O412 O 0.17186 0.91141 0.17614 0.0
O413 O 0.15886 0.95213 0.23972 0.0
O414 O 0.10075 0.90264 0.19984 0.0
O415 O 0.15838 0.88088 0.23895 0.0
H416 H 0.22602 0.95681 0.18276 0.0
H417 H 0.14061 0.90684 0.11372 0.0
H418 H 0.24519 0.98786 0.13754 0.0
H419 H 0.16062 0.94023 0.06942 0.0
H420 H 0.20427 0.98936 0.34648 0.0
H421 H 0.21238 0.99155 0.2263 0.0
H422 H 0.16 0.9549 0.30524 0.0
H423 H 0.25587 0.02517 0.26893 0.0
H424 H 0.15682 0.03869 0.1425 0.0
H425 H 0.06253 0.97511 0.10367 0.0
H426 H 0.2847 0.88072 0.21404 0.0
H427 H 0.27365 0.90589 0.31554 0.0
H428 H 0.05201 0.87364 0.2305 0.0
H429 H 0.08798 0.88099 0.13602 0.0
H430 H 1.00372 0.83225 0.20341 0.0
H431 H 0.03878 0.83966 0.11045 0.0
H432 H 0.18958 0.84561 0.20463 0.0
H433 H 0.17328 0.87343 0.30342 0.0
H434 H 0.22367 0.80923 0.22895 0.0
H435 H 0.20856 0.83678 0.32639 0.0
H436 H 0.15109 0.79487 0.11322 0.0
H437 H 0.10156 0.76602 0.19721 0.0
H438 H 0.05149 0.92123 0.32568 0.0
H439 H 0.07315 0.82886 0.30415 0.0
Li440 Li 0.52632 0.77363 0.42147 0.0
Li441 Li 0.48638 0.73532 0.38097 0.0
Li442 Li 0.5283 0.71903 0.4268 0.0
Li443 Li 0.5454 0.74506 0.37814 0.0
C444 C 0.4765 0.744 0.46001 0.0
N445 N 0.45014 0.75031 0.51836 0.0
C446 C 0.44369 0.74818 0.45879 0.0
C447 C 0.496 0.74342 0.49098 0.0
C448 C 0.4308 0.75124 0.48853 0.0
C449 C 0.48222 0.7466 0.52019 0.0
C450 C 0.50118 0.79991 0.36672 0.0
C451 C 0.50073 0.85026 0.34352 0.0
N452 N 0.47352 0.85267 0.35796 0.0
C453 C 0.47313 0.8029 0.38128 0.0
C454 C 0.51513 0.82376 0.34769 0.0
C455 C 0.45944 0.82972 0.37646 0.0
C456 C 0.55395 0.83733 0.42767 0.0
N457 N 0.53252 0.81566 0.44173 0.0
C458 C 0.51314 0.85711 0.46929 0.0
C459 C 0.51276 0.82487 0.46283 0.0
C460 C 0.5337 0.8798 0.45349 0.0
C461 C 0.55494 0.86966 0.4332 0.0
H462 H 0.56841 0.82939 0.41 0.0
H463 H 0.49526 0.80743 0.47307 0.0
C464 C 0.41501 0.72733 0.36092 0.0
N465 N 0.44552 0.73138 0.35101 0.0
C466 C 0.38934 0.73879 0.34224 0.0
C467 C 0.42634 0.75593 0.30253 0.0
C468 C 0.45084 0.74338 0.32136 0.0
C469 C 0.39573 0.75499 0.31379 0.0
H470 H 0.4115 0.71798 0.38469 0.0
H471 H 0.47552 0.74683 0.31438 0.0
C472 C 0.59193 0.77446 0.44439 0.0
N473 N 0.64509 0.81517 0.48366 0.0
C474 C 0.61572 0.79449 0.42955 0.0
C475 C 0.59543 0.77489 0.47921 0.0
C476 C 0.64234 0.81497 0.44983 0.0
C477 C 0.62241 0.79571 0.49863 0.0
C478 C 0.52629 0.68507 0.35561 0.0
C479 C 0.55167 0.66907 0.36632 0.0
C480 C 0.51305 0.68291 0.32172 0.0
C481 C 0.5634 0.65109 0.34282 0.0
C482 C 0.52545 0.66469 0.29901 0.0
N483 N 0.55009 0.64925 0.30997 0.0
C484 C 0.5193 0.67365 0.47561 0.0
C485 C 0.57405 0.69002 0.4629 0.0
C486 C 0.53086 0.65492 0.49985 0.0
N487 N 0.54097 0.69071 0.45781 0.0
C488 C 0.58672 0.67147 0.48673 0.0
C489 C 0.56501 0.65357 0.50556 0.0
H490 H 0.49316 0.67479 0.47116 0.0
H491 H 0.59061 0.70393 0.44831 0.0
C492 C 0.60531 0.74084 0.356 0.0
N493 N 0.57542 0.74908 0.34762 0.0
C494 C 0.63103 0.75087 0.33776 0.0
C495 C 0.59355 0.77533 0.30114 0.0
C496 C 0.56855 0.76469 0.32006 0.0
C497 C 0.62564 0.76966 0.31095 0.0
H498 H 0.60971 0.72835 0.37809 0.0
H499 H 0.54429 0.77057 0.31403 0.0
O500 O 0.48899 0.73965 0.43097 0.0
O501 O 0.51627 0.77481 0.37291 0.0
O502 O 0.56595 0.75388 0.42491 0.0
O503 O 0.5142 0.70249 0.37825 0.0
H504 H 0.42828 0.7491 0.43516 0.0
H505 H 0.52142 0.74036 0.49247 0.0
H506 H 0.40537 0.75421 0.48788 0.0
H507 H 0.49699 0.74602 0.54431 0.0
H508 H 0.51134 0.86905 0.32905 0.0
H509 H 0.46247 0.78504 0.39671 0.0
H510 H 0.53723 0.82215 0.33683 0.0
H511 H 0.43782 0.83246 0.38765 0.0
H512 H 0.49624 0.86409 0.48498 0.0
H513 H 0.57136 0.88649 0.42084 0.0
H514 H 0.36601 0.73783 0.35178 0.0
H515 H 0.4321 0.76822 0.28074 0.0
H516 H 0.61347 0.7945 0.40265 0.0
H517 H 0.57767 0.75919 0.49115 0.0
H518 H 0.66081 0.83072 0.43867 0.0
H519 H 0.62538 0.79633 0.52561 0.0
H520 H 0.56219 0.67051 0.39245 0.0
H521 H 0.49332 0.69506 0.31309 0.0
H522 H 0.58303 0.63855 0.3507 0.0
H523 H 0.51541 0.66272 0.27269 0.0
H524 H 0.51304 0.64128 0.51355 0.0
H525 H 0.61299 0.67073 0.4899 0.0
H526 H 0.65531 0.74546 0.34562 0.0
H527 H 0.58846 0.78971 0.28063 0.0
Li528 Li 0.63224 0.42818 0.68693 0.0
Li529 Li 0.67737 0.41324 0.72149 0.0
Li530 Li 0.63074 0.37381 0.68978 0.0
Li531 Li 0.62277 0.40404 0.74095 0.0
C532 C 0.67162 0.41772 0.64391 0.0
N533 N 0.6842 0.44628 0.58618 0.0
C534 C 0.70044 0.44108 0.64424 0.0
C535 C 0.64941 0.40859 0.61409 0.0
C536 C 0.70636 0.45513 0.61479 0.0
C537 C 0.65606 0.4235 0.58525 0.0
C538 C 0.67744 0.46608 0.75505 0.0
C539 C 0.70339 0.49045 0.80975 0.0
N540 N 0.7295 0.50638 0.79619 0.0
C541 C 0.70447 0.48279 0.74164 0.0
C542 C 0.67683 0.46996 0.78937 0.0
C543 C 0.73058 0.50299 0.76286 0.0
C544 C 0.58826 0.45243 0.63747 0.0
N545 N 0.61893 0.45772 0.6568 0.0
C546 C 0.63617 0.50573 0.63163 0.0
C547 C 0.64249 0.48396 0.65454 0.0
C548 C 0.60491 0.50106 0.61094 0.0
C549 C 0.58056 0.47411 0.61433 0.0
H550 H 0.56983 0.43136 0.63985 0.0
H551 H 0.66649 0.48772 0.67024 0.0
C552 C 0.74188 0.40425 0.71876 0.0
N553 N 0.72328 0.41494 0.74015 0.0
C554 C 0.76879 0.39088 0.73099 0.0
C555 C 0.75934 0.4027 0.78727 0.0
C556 C 0.73231 0.41576 0.77392 0.0
C557 C 0.77658 0.38848 0.76548 0.0
H558 H 0.73342 0.40237 0.69215 0.0
H559 H 0.71623 0.42278 0.79041 0.0
C560 C 0.56609 0.3732 0.68247 0.0
N561 N 0.51087 0.32691 0.65545 0.0
C562 C 0.54255 0.36054 0.70243 0.0
C563 C 0.56101 0.36285 0.64856 0.0
C564 C 0.51491 0.33706 0.68836 0.0
C565 C 0.53315 0.33925 0.63543 0.0
C566 C 0.67035 0.35487 0.74928 0.0
C567 C 0.68657 0.33849 0.72848 0.0
C568 C 0.67432 0.35105 0.78355 0.0
C569 C 0.70605 0.31802 0.74219 0.0
C570 C 0.69423 0.33046 0.79637 0.0
N571 N 0.70947 0.31447 0.77557 0.0
C572 C 0.63475 0.3239 0.64405 0.0
C573 C 0.60482 0.30932 0.68867 0.0
C574 C 0.6341 0.29209 0.63509 0.0
N575 N 0.62077 0.33175 0.67078 0.0
C576 C 0.60369 0.27726 0.68068 0.0
C577 C 0.61924 0.26844 0.65413 0.0
H578 H 0.64827 0.34236 0.63109 0.0
H579 H 0.59466 0.31649 0.71028 0.0
C580 C 0.58893 0.41777 0.79558 0.0
N581 N 0.6002 0.39601 0.77742 0.0
C582 C 0.56656 0.40763 0.81759 0.0
C583 C 0.57026 0.35333 0.80324 0.0
C584 C 0.59235 0.3645 0.78173 0.0
C585 C 0.55586 0.37482 0.82042 0.0
H586 H 0.59595 0.44262 0.79162 0.0
H587 H 0.60122 0.34772 0.76643 0.0
O588 O 0.66532 0.40374 0.67257 0.0
O589 O 0.65159 0.44622 0.73469 0.0
O590 O 0.59352 0.39604 0.6959 0.0
O591 O 0.65093 0.37483 0.7362 0.0
H592 H 0.718 0.44843 0.66699 0.0
H593 H 0.62721 0.39033 0.61321 0.0
H594 H 0.72866 0.47291 0.6147 0.0
H595 H 0.63893 0.41684 0.56209 0.0
H596 H 0.70328 0.49361 0.83636 0.0
H597 H 0.70554 0.47987 0.71523 0.0
H598 H 0.65625 0.45713 0.80023 0.0
H599 H 0.75174 0.51591 0.75283 0.0
H600 H 0.65575 0.52633 0.63062 0.0
H601 H 0.55607 0.46977 0.59926 0.0
H602 H 0.78132 0.37969 0.71346 0.0
H603 H 0.76414 0.40051 0.81392 0.0
H604 H 0.5453 0.36897 0.72841 0.0
H605 H 0.57855 0.37272 0.6326 0.0
H606 H 0.49661 0.32698 0.70359 0.0
H607 H 0.52925 0.33077 0.60933 0.0
H608 H 0.68457 0.34188 0.7021 0.0
H609 H 0.66242 0.36403 0.80009 0.0
H610 H 0.71866 0.30521 0.72624 0.0
H611 H 0.69762 0.32724 0.82283 0.0
H612 H 0.64673 0.28623 0.61471 0.0
H613 H 0.59169 0.25965 0.69569 0.0
H614 H 0.5563 0.42503 0.83067 0.0
H615 H 0.56236 0.32786 0.8039 0.0
Li616 Li 1.02877 0.27992 0.91758 0.0
Li617 Li 0.98859 0.24116 0.8785 0.0
Li618 Li 1.03206 0.22577 0.92346 0.0
Li619 Li 0.04772 0.25169 0.87425 0.0
C620 C 0.97929 0.2522 0.95651 0.0
N621 N 0.9528 0.26607 1.01302 0.0
C622 C 0.94808 0.26063 0.95355 0.0
C623 C 0.99671 0.25032 0.98825 0.0
C624 C 0.93517 0.26763 0.98242 0.0
C625 C 0.98296 0.25754 0.01651 0.0
C626 C 1.00488 0.30688 0.86258 0.0
C627 C 1.00888 0.35793 0.83984 0.0
N628 N 0.98068 0.36137 0.85194 0.0
C629 C 0.97601 0.31104 0.87491 0.0
C630 C 1.02156 0.33055 0.845 0.0
C631 C 0.96411 0.33872 0.86921 0.0
C632 C 0.05795 0.34358 0.92449 0.0
N633 N 0.0353 0.32223 0.93754 0.0
C634 C 1.01618 0.36425 0.96436 0.0
C635 C 1.01515 0.33193 0.95789 0.0
C636 C 0.03811 0.38671 0.94969 0.0
C637 C 0.05986 0.37607 0.93031 0.0
H638 H 0.07293 0.33531 0.90754 0.0
H639 H 0.99698 0.3149 0.96768 0.0
C640 C 0.91712 0.23099 0.86065 0.0
N641 N 0.94722 0.23593 0.84985 0.0
C642 C 0.89045 0.24136 0.84245 0.0
C643 C 0.92581 0.25925 0.80152 0.0
C644 C 0.95136 0.24779 0.81991 0.0
C645 C 0.89553 0.2574 0.81363 0.0
H646 H 0.91469 0.22189 0.88475 0.0
H647 H 0.97578 0.25193 0.8123 0.0
C648 C 0.09424 0.28076 0.94182 0.0
N649 N 0.14584 0.32006 0.98445 0.0
C650 C 0.1201 0.30008 0.92895 0.0
C651 C 0.09484 0.28119 0.97638 0.0
C652 C 0.14592 0.31984 0.95092 0.0
C653 C 0.12108 0.30129 0.99752 0.0
C654 C 1.02821 0.19083 0.85251 0.0
C655 C 0.05316 0.17432 0.86312 0.0
C656 C 1.01419 0.18808 0.81881 0.0
C657 C 0.06358 0.15511 0.83975 0.0
C658 C 1.02534 0.16867 0.79618 0.0
N659 N 0.04951 0.15267 0.80707 0.0
C660 C 1.02242 0.17761 0.96798 0.0
C661 C 0.07817 0.19585 0.95866 0.0
C662 C 1.03269 0.15584 0.98923 0.0
N663 N 0.04513 0.19677 0.95301 0.0
C664 C 0.08955 0.17429 0.97971 0.0
C665 C 0.06648 0.15362 0.99477 0.0
H666 H 0.9964 0.17916 0.96325 0.0
H667 H 0.09559 0.21147 0.94626 0.0
C668 C 0.10698 0.24732 0.85226 0.0
N669 N 0.07709 0.25542 0.84348 0.0
C670 C 0.1329 0.25751 0.83441 0.0
C671 C 0.09559 0.28168 0.79721 0.0
C672 C 0.07034 0.27083 0.81575 0.0
C673 C 0.1277 0.27634 0.8076 0.0
H674 H 0.11118 0.2349 0.87444 0.0
H675 H 0.04602 0.27652 0.80941 0.0
O676 O 0.99236 0.24531 0.92849 0.0
O677 O 1.01757 0.28038 0.86894 0.0
O678 O 0.06896 0.26096 0.92068 0.0
O679 O 1.01709 0.20912 0.87515 0.0
H680 H 0.93413 0.26222 0.92929 0.0
H681 H 1.02056 0.24336 0.99108 0.0
H682 H 0.91118 0.27435 0.98051 0.0
H683 H 0.99624 0.25632 0.04123 0.0
H684 H 1.02154 0.37654 0.82641 0.0
H685 H 0.96322 0.29329 0.88916 0.0
H686 H 0.04434 0.32806 0.8359 0.0
H687 H 0.94184 0.34229 0.87868 0.0
H688 H 0.99879 0.37146 0.97928 0.0
H689 H 0.07745 0.39262 0.91889 0.0
H690 H 0.86736 0.23979 0.85262 0.0
H691 H 0.93052 0.27148 0.77941 0.0
H692 H 0.1201 0.30001 0.90227 0.0
H693 H 0.07535 0.26608 0.98678 0.0
H694 H 0.166 0.33503 0.9413 0.0
H695 H 0.12181 0.30192 0.02432 0.0
H696 H 0.06427 0.1762 0.88911 0.0
H697 H 0.99477 0.20063 0.81025 0.0
H698 H 0.08276 0.14206 0.84762 0.0
H699 H 1.01468 0.16621 0.77001 0.0
H700 H 1.01435 0.14085 1.00118 0.0
H701 H 0.11573 0.17312 0.98327 0.0
H702 H 0.15721 0.25231 0.84261 0.0
H703 H 0.09068 0.296 0.77659 0.0
Li704 Li 0.56945 0.16952 0.37535 0.0
Li705 Li 0.53377 0.12435 0.34027 0.0
Li706 Li 0.57796 0.16341 0.31838 0.0
Li707 Li 0.52519 0.17837 0.33392 0.0
C708 C 0.60804 0.11792 0.3582 0.0
N709 N 0.66026 0.08634 0.36837 0.0
C710 C 0.60294 0.08747 0.36965 0.0
C711 C 0.63987 0.13235 0.35218 0.0
C712 C 0.62962 0.0719 0.3746 0.0
C713 C 0.66588 0.11598 0.35737 0.0
C714 C 0.51225 0.13918 0.4008 0.0
C715 C 0.48073 0.13458 0.44665 0.0
N716 N 0.49512 0.11023 0.45694 0.0
C717 C 0.52701 0.11437 0.41209 0.0
C718 C 0.489 0.14948 0.41829 0.0
C719 C 0.51785 0.09989 0.44038 0.0
C720 C 0.57384 0.18294 0.44519 0.0
N721 N 0.59203 0.17775 0.42079 0.0
C722 C 0.62405 0.14885 0.45629 0.0
C723 C 0.6192 0.16451 0.42732 0.0
C724 C 0.60201 0.14911 0.47941 0.0
C725 C 0.57851 0.1686 0.47523 0.0
H726 H 0.55259 0.19397 0.43958 0.0
H727 H 0.63458 0.16254 0.40839 0.0
C728 C 0.52562 0.0601 0.32008 0.0
N729 N 0.51119 0.08172 0.33473 0.0
C730 C 0.51013 0.02806 0.31647 0.0
C731 C 0.46435 0.04156 0.34139 0.0
C732 C 0.48087 0.0733 0.34475 0.0
C733 C 0.47933 1.01853 0.32761 0.0
H734 H 0.54939 0.06771 0.31168 0.0
H735 H 0.46966 0.09121 0.35558 0.0
C736 C 0.59317 0.22619 0.36535 0.0
N737 N 0.63401 0.26978 0.41341 0.0
C738 C 0.57922 0.24469 0.38643 0.0
C739 C 0.62782 0.22986 0.36857 0.0
C740 C 0.60033 0.2666 0.41062 0.0
C741 C 0.64806 0.25204 0.39306 0.0
C742 C 0.50658 0.1347 0.27274 0.0
C743 C 0.51449 0.13501 0.24034 0.0
C744 C 0.47387 0.12222 0.27753 0.0
C745 C 0.48941 0.12324 0.21326 0.0
C746 C 0.44948 0.1107 0.24983 0.0
N747 N 0.45768 0.11146 0.21852 0.0
C748 C 0.59863 0.12859 0.27599 0.0
C749 C 0.63102 0.18072 0.276 0.0
C750 C 0.61656 0.1167 0.25398 0.0
N751 N 0.60612 0.15985 0.28671 0.0
C752 C 0.64947 0.16979 0.25299 0.0
C753 C 0.64243 0.13721 0.24221 0.0
H754 H 0.5786 0.11277 0.28496 0.0
H755 H 0.63653 0.20552 0.28523 0.0
C756 C 0.45954 0.17788 0.33138 0.0
N757 N 0.48644 0.19411 0.31933 0.0
C758 C 0.42741 0.17964 0.31744 0.0
C759 C 0.4509 0.21658 0.27986 0.0
C760 C 0.48289 0.2134 0.29411 0.0
C761 C 0.42251 0.199 0.29115 0.0
H762 H 0.46279 0.16144 0.35016 0.0
H763 H 0.50463 0.22521 0.28418 0.0
O764 O 0.582 0.13337 0.35274 0.0
O765 O 0.52021 0.1533 0.37268 0.0
O766 O 0.57296 0.2042 0.342 0.0
O767 O 0.53085 0.14634 0.29953 0.0
H768 H 0.57869 0.07589 0.37476 0.0
H769 H 0.6446 0.15617 0.34408 0.0
H770 H 0.62595 0.04833 0.38341 0.0
H771 H 0.69057 0.12691 0.35279 0.0
H772 H 0.46283 0.14236 0.46043 0.0
H773 H 0.54529 0.10636 0.39916 0.0
H774 H 0.47763 0.16894 0.41021 0.0
H775 H 0.52884 0.0805 0.4492 0.0
H776 H 0.64288 0.13452 0.45919 0.0
H777 H 0.56113 0.16927 0.49277 0.0
H778 H 0.52215 1.0109 0.30533 0.0
H779 H 0.44067 0.035 0.35037 0.0
H780 H 0.55239 0.24194 0.38426 0.0
H781 H 0.63891 0.21559 0.35245 0.0
H782 H 0.58992 0.28102 0.42722 0.0
H783 H 0.67494 0.25511 0.39594 0.0
H784 H 0.53973 0.14419 0.2361 0.0
H785 H 0.46734 0.12134 0.30237 0.0
H786 H 0.49519 0.12343 0.18806 0.0
H787 H 0.42404 0.1011 0.25322 0.0
H788 H 0.60938 0.0917 0.24537 0.0
H789 H 0.66879 0.18636 0.24375 0.0
H790 H 0.40666 0.16485 0.32649 0.0
H791 H 0.4485 0.23226 0.26 0.0
Li792 Li 0.35343 0.22271 0.57867 0.0
Li793 Li 0.38379 0.1763 0.5409 0.0
Li794 Li 0.34995 0.22041 0.50285 0.0
Li795 Li 0.31373 0.1758 0.53773 0.0
C796 C 0.42044 0.24768 0.54488 0.0
N797 N 0.4809 0.28901 0.54562 0.0
C798 C 0.4428 0.24056 0.52428 0.0
C799 C 0.42877 0.27575 0.56587 0.0
C800 C 0.47329 0.26177 0.52505 0.0
C801 C 0.45945 0.29638 0.56584 0.0
C802 C 0.33836 0.15014 0.59635 0.0
C803 C 0.3291 0.09513 0.60863 0.0
N804 N 0.31102 0.10173 0.63264 0.0
C805 C 0.31983 0.15643 0.62122 0.0
C806 C 0.34316 0.11931 0.59001 0.0
C807 C 0.30615 0.13161 0.63927 0.0
C808 C 0.32249 0.24988 0.63965 0.0
N809 N 0.35262 0.24789 0.62969 0.0
C810 C 0.37867 0.27444 0.68585 0.0
C811 C 0.38049 0.26022 0.65311 0.0
C812 C 0.34787 0.27717 0.69654 0.0
C813 C 0.3197 0.26432 0.67181 0.0
H814 H 0.29973 0.23971 0.62283 0.0
H815 H 0.40482 0.25895 0.64691 0.0
C816 C 0.42994 0.12398 0.52329 0.0
N817 N 0.43039 0.15207 0.54177 0.0
C818 C 0.45882 0.10922 0.52357 0.0
C819 C 0.4904 0.15133 0.56161 0.0
C820 C 0.46101 0.16534 0.56075 0.0
C821 C 0.49075 0.1224 0.54283 0.0
H822 H 0.40698 0.11228 0.50762 0.0
H823 H 0.46334 0.18741 0.57573 0.0
C824 C 0.28484 0.22943 0.53052 0.0
N825 N 0.22034 0.23897 0.51661 0.0
C826 C 0.26335 0.21344 0.50244 0.0
C827 C 0.27374 0.2507 0.55119 0.0
C828 C 0.23076 0.21842 0.49594 0.0
C829 C 0.24101 0.25514 0.54379 0.0
C830 C 0.32683 0.14471 0.47939 0.0
C831 C 0.30378 0.14815 0.45181 0.0
C832 C 0.33159 0.11439 0.48661 0.0
C833 C 0.2863 0.12117 0.43149 0.0
C834 C 0.31358 0.08798 0.46574 0.0
N835 N 0.29153 0.09189 0.43881 0.0
C836 C 0.34378 0.22965 0.42275 0.0
C837 C 0.35671 0.27923 0.45259 0.0
C838 C 0.34246 0.24445 0.39132 0.0
N839 N 0.35041 0.24653 0.45372 0.0
C840 C 0.35618 0.29495 0.42159 0.0
C841 C 0.34871 0.27804 0.38928 0.0
H842 H 0.33929 0.20401 0.42171 0.0
H843 H 0.36218 0.29392 0.47594 0.0
C844 C 0.24595 0.15532 0.5656 0.0
N845 N 0.26165 0.14874 0.53909 0.0
C846 C 0.2121 0.14027 0.56797 0.0
C847 C 0.20871 0.1115 0.51558 0.0
C848 C 0.24284 0.12681 0.5143 0.0
C849 C 0.19199 0.1177 0.54277 0.0
H850 H 0.25947 0.17289 0.58532 0.0
H851 H 0.25389 0.12107 0.4928 0.0
O852 O 0.39068 0.22709 0.54478 0.0
O853 O 0.35143 0.17396 0.57799 0.0
O854 O 0.3166 0.22428 0.53758 0.0
O855 O 0.34408 0.17075 0.49976 0.0
H856 H 0.43669 0.21883 0.50798 0.0
H857 H 0.41169 0.28151 0.58201 0.0
H858 H 0.4909 0.25656 0.5093 0.0
H859 H 0.4662 0.31824 0.58189 0.0
H860 H 0.33255 0.07113 0.60397 0.0
H861 H 0.31588 0.18018 0.62637 0.0
H862 H 0.35757 0.11412 0.5709 0.0
H863 H 0.29162 0.13609 0.6585 0.0
H864 H 0.40174 0.28346 0.70274 0.0
H865 H 0.29498 0.2649 0.67737 0.0
H866 H 0.45585 0.08717 0.50833 0.0
H867 H 0.51319 0.16365 0.57727 0.0
H868 H 0.27162 0.19701 0.48611 0.0
H869 H 0.29032 0.26391 0.57249 0.0
H870 H 0.21376 0.20595 0.47448 0.0
H871 H 0.23205 0.2715 0.5596 0.0
H872 H 0.29913 0.17132 0.44633 0.0
H873 H 0.34884 0.11129 0.50823 0.0
H874 H 0.26842 0.12348 0.41003 0.0
H875 H 0.31706 0.06437 0.47101 0.0
H876 H 0.33652 0.22912 0.36836 0.0
H877 H 0.36112 0.32068 0.42317 0.0
H878 H 0.20156 0.14687 0.58959 0.0
H879 H 0.19544 0.09475 0.49497 0.0
Li880 Li 0.23102 0.14853 0.87648 0.0
Li881 Li 0.19807 0.10982 0.90758 0.0
Li882 Li 0.2325 0.09207 0.86757 0.0
Li883 Li 0.17975 0.11364 0.85053 0.0
C884 C 0.27801 0.12476 0.92969 0.0
N885 N 0.33922 0.1329 0.97015 0.0
C886 C 0.28 0.12695 0.96445 0.0
C887 C 0.30714 0.12647 0.91552 0.0
C888 C 0.31116 0.13112 0.98449 0.0
C889 C 0.33785 0.13068 0.93638 0.0
C890 C 0.18576 0.17147 0.90988 0.0
C891 C 0.16572 0.21738 0.92826 0.0
N892 N 0.18755 0.22053 0.95723 0.0
C893 C 0.20797 0.17521 0.93985 0.0
C894 C 0.16432 0.19264 0.90406 0.0
C895 C 0.20847 0.20011 0.96348 0.0
C896 C 0.23788 0.21105 0.85643 0.0
N897 N 0.256 0.19037 0.87006 0.0
C898 C 0.30609 0.22199 0.85625 0.0
C899 C 0.28966 0.19582 0.8709 0.0
C900 C 0.2878 0.24295 0.84067 0.0
C901 C 0.25336 0.23774 0.84183 0.0
H902 H 0.21101 0.20567 0.85473 0.0
H903 H 0.30353 0.17876 0.88078 0.0
C904 C 0.18601 0.07894 0.96729 0.0
N905 N 0.17499 0.09729 0.94367 0.0
C906 C 0.16405 0.06341 0.98736 0.0
C907 C 0.12002 0.08588 0.95831 0.0
C908 C 0.14285 0.10123 0.93909 0.0
C909 C 0.1305 0.06652 0.98266 0.0
H910 H 0.21126 0.07511 0.96943 0.0
H911 H 0.13444 0.11493 0.9192 0.0
C912 C 0.24238 0.13817 0.81284 0.0
N913 N 0.28221 0.17244 0.7722 0.0
C914 C 0.22945 0.15846 0.79109 0.0
C915 C 0.27546 0.13501 0.81354 0.0
C916 C 0.25002 0.17569 0.77088 0.0
C917 C 0.2952 0.15258 0.79288 0.0
C918 C 0.17313 0.04797 0.88729 0.0
C919 C 0.19517 0.03053 0.90295 0.0
C920 C 0.13898 0.03884 0.88868 0.0
C921 C 0.18272 1.00427 0.91975 0.0
C922 C 0.1275 1.01245 0.90576 0.0
N923 N 0.14942 0.99585 0.92081 0.0
C924 C 0.2813 0.05242 0.87527 0.0
C925 C 0.2506 0.05208 0.8212 0.0
C926 C 0.29931 0.0312 0.86327 0.0
N927 N 0.25764 0.0625 0.85411 0.0
C928 C 0.26785 0.03081 0.80819 0.0
C929 C 0.29259 1.0201 0.82929 0.0
H930 H 0.28597 0.06056 0.90148 0.0
H931 H 0.23163 0.06051 0.805 0.0
C932 C 0.1382 0.13882 0.80715 0.0
N933 N 0.14185 0.11104 0.81986 0.0
C934 C 0.11312 0.139 0.78067 0.0
C935 C 0.09299 0.08268 0.78449 0.0
C936 C 0.11945 0.08341 0.8101 0.0
C937 C 0.09088 0.11033 0.76791 0.0
H938 H 0.156 0.16053 0.81645 0.0
H939 H 0.123 0.06174 0.82103 0.0
O940 O 0.24748 0.11967 0.90987 0.0
O941 O 0.18457 0.14711 0.88637 0.0
O942 O 0.22285 0.12165 0.83344 0.0
O943 O 0.18503 0.07418 0.87131 0.0
H944 H 0.25767 0.1253 0.97584 0.0
H945 H 0.30603 0.12418 0.8887 0.0
H946 H 0.31302 0.13282 1.01143 0.0
H947 H 0.36059 0.13202 0.92572 0.0
H948 H 0.1495 0.23408 0.92411 0.0
H949 H 0.22449 0.159 0.945 0.0
H950 H 0.14687 0.19002 0.88102 0.0
H951 H 0.22551 0.20319 0.9868 0.0
H952 H 0.33272 0.22514 0.85623 0.0
H953 H 0.23822 0.25323 0.83019 0.0
H954 H 0.17312 0.04891 1.00621 0.0
H955 H 0.09458 0.08937 0.95431 0.0
H956 H 0.20394 0.16118 0.79004 0.0
H957 H 0.28594 0.11942 0.83009 0.0
H958 H 0.24041 0.1917 0.75419 0.0
H959 H 0.3209 0.15051 0.79337 0.0
H960 H 0.22168 0.03751 0.90269 0.0
H961 H 0.12156 0.05238 0.87736 0.0
H962 H 0.19956 0.9907 0.93214 0.0
H963 H 0.10119 1.00531 0.90726 0.0
H964 H 0.31779 0.02308 0.88049 0.0
H965 H 0.26206 0.02302 0.78182 0.0
H966 H 0.11303 0.16104 0.76896 0.0
H967 H 0.07604 0.06023 0.77612 0.0
Li968 Li 0.33549 0.94012 0.05391 0.0
Li969 Li 0.35729 0.89601 0.08361 0.0
Li970 Li 0.39284 0.93687 0.05231 0.0
Li971 Li 0.34819 0.89736 1.01356 0.0
C972 C 0.37946 0.97039 0.11258 0.0
N973 N 0.39385 0.02661 0.15297 0.0
C974 C 0.37631 0.97002 0.14647 0.0
C975 C 0.38979 0.99941 0.09929 0.0
C976 C 0.38373 0.99868 0.16646 0.0
C977 C 0.39702 0.02755 0.12009 0.0
C978 C 0.28311 0.89431 0.05198 0.0
C979 C 0.22713 0.89735 0.02825 0.0
N980 N 0.21903 0.8994 0.05955 0.0
C981 C 0.27433 0.89667 0.08392 0.0
C982 C 0.25943 0.89476 0.02389 0.0
C983 C 0.24176 0.89914 0.08722 0.0
C984 C 0.29129 0.98152 0.03005 0.0
N985 N 0.30645 0.97059 0.05786 0.0
C986 C 0.28905 1.00885 0.09269 0.0
C987 C 0.30437 0.98301 0.08881 0.0
C988 C 0.27368 1.02116 0.06456 0.0
C989 C 0.2746 1.00673 0.03283 0.0
H990 H 0.29287 0.9712 1.0056 0.0
H991 H 0.31532 0.97344 0.11072 0.0
C992 C 0.37893 0.88556 0.15392 0.0
N993 N 0.3556 0.8728 0.12683 0.0
C994 C 0.37721 0.87417 0.18592 0.0
C995 C 0.32859 0.835 0.1622 0.0
C996 C 0.3308 0.84758 0.13066 0.0
C997 C 0.35167 0.84857 0.19084 0.0
H998 H 0.39861 0.90548 0.15104 0.0
H999 H 0.31201 0.8376 0.10944 0.0
C1000 C 0.36762 0.96708 0.99384 0.0
N1001 N 0.38336 1.01307 0.95004 0.0
C1002 C 0.3772 0.95898 0.96334 0.0
C1003 C 0.36601 0.99865 1.00193 0.0
C1004 C 0.3851 0.98255 0.94159 0.0
C1005 C 0.37406 1.02152 0.9795 0.0
C1006 C 0.42033 0.88862 0.0488 0.0
C1007 C 0.43451 0.89026 0.01946 0.0
C1008 C 0.4406 0.88923 0.07956 0.0
C1009 C 0.46899 0.89292 0.0215 0.0
C1010 C 0.47491 0.89163 0.0805 0.0
N1011 N 0.48828 0.89351 0.0517 0.0
C1012 C 0.45663 0.97799 0.08315 0.0
C1013 C 0.44821 0.97038 0.02423 0.0
C1014 C 0.48594 1.0011 0.08297 0.0
N1015 N 0.43772 0.96389 0.0539 0.0
C1016 C 0.47693 0.9934 0.02285 0.0
C1017 C 0.49594 1.00976 0.05239 0.0
H1018 H 0.44855 0.97203 0.10669 0.0
H1019 H 0.43412 0.9579 1.0014 0.0
C1020 C 0.3197 0.89097 0.94158 0.0
N1021 N 0.33645 0.87603 0.96537 0.0
C1022 C 0.31508 0.88067 0.90716 0.0
C1023 C 0.34259 0.83801 0.92153 0.0
C1024 C 0.34755 0.84964 0.95566 0.0
C1025 C 0.32669 0.85384 0.8963 0.0
H1026 H 0.31101 0.91196 0.94909 0.0
H1027 H 0.36118 0.83794 0.97424 0.0
O1028 O 0.3719 0.94256 0.09249 0.0
O1029 O 0.31497 0.89226 0.04835 0.0
O1030 O 0.3589 0.94403 1.01504 0.0
O1031 O 0.38704 0.88806 0.04763 0.0
H1032 H 0.36763 0.94795 0.15713 0.0
H1033 H 0.39258 1.00015 0.07327 0.0
H1034 H 0.38128 0.99873 0.19267 0.0
H1035 H 0.40517 0.05012 0.11009 0.0
H1036 H 0.2085 0.89775 1.00677 0.0
H1037 H 0.29255 0.89681 0.10592 0.0
H1038 H 0.266 0.89324 0.99903 0.0
H1039 H 0.23457 0.90091 0.11177 0.0
H1040 H 0.28982 1.01944 0.11763 0.0
H1041 H 0.26264 1.01485 1.01033 0.0
H1042 H 0.39575 0.88566 0.20679 0.0
H1043 H 0.30819 0.81545 0.1643 0.0
H1044 H 0.37926 0.93487 0.95682 0.0
H1045 H 0.35832 1.0055 0.02511 0.0
H1046 H 0.3927 0.97657 0.91802 0.0
H1047 H 0.37281 0.04599 0.98547 0.0
H1048 H 0.41916 0.89021 0.99549 0.0
H1049 H 0.42998 0.88826 0.10249 0.0
H1050 H 0.48048 0.89487 0.99913 0.0
H1051 H 0.49094 0.89226 0.10414 0.0
H1052 H 0.50012 1.01254 0.10644 0.0
H1053 H 0.48409 0.99829 0.99864 0.0
H1054 H 0.30277 0.89394 0.88912 0.0
H1055 H 0.35242 0.81745 0.91487 0.0
Li1056 Li 0.28019 0.47472 0.04463 0.0
Li1057 Li 0.31382 0.43185 0.08155 0.0
Li1058 Li 0.35238 0.47648 0.04823 0.0
Li1059 Li 0.31195 0.42843 1.00796 0.0
C1060 C 0.31866 0.49243 0.11666 0.0
N1061 N 0.31383 0.51238 0.18126 0.0
C1062 C 0.28751 0.48798 0.12739 0.0
C1063 C 0.34734 0.50708 0.13871 0.0
C1064 C 0.28559 0.49821 0.16017 0.0
C1065 C 0.34438 0.51701 0.17129 0.0
C1066 C 0.2469 0.40118 0.04547 0.0
C1067 C 0.21777 0.34635 0.03977 0.0
N1068 N 0.19424 0.35452 0.05682 0.0
C1069 C 0.22246 0.40907 0.06292 0.0
C1070 C 0.24461 0.36961 0.03376 0.0
C1071 C 0.196 0.38512 0.06839 0.0
C1072 C 0.20409 0.48946 0.02363 0.0
N1073 N 0.23473 0.5009 0.04344 0.0
C1074 C 0.20831 0.54484 0.06283 0.0
C1075 C 0.2362 0.52868 0.06291 0.0
C1076 C 0.17637 0.53362 0.04268 0.0
C1077 C 0.17567 0.50496 0.02287 0.0
H1078 H 0.20095 0.46772 1.00784 0.0
H1079 H 0.25931 0.539 0.07919 0.0
C1080 C 0.32981 0.42061 0.16077 0.0
N1081 N 0.31335 0.4056 0.13035 0.0
C1082 C 0.33054 0.40533 0.1919 0.0
C1083 C 0.29771 0.35816 0.16233 0.0
C1084 C 0.29732 0.37436 0.13167 0.0
C1085 C 0.31448 0.37311 0.19409 0.0
H1086 H 0.34313 0.44497 0.1615 0.0
H1087 H 0.28397 0.36121 0.1087 0.0
C1088 C 0.32421 0.4984 0.98578 0.0
N1089 N 0.34493 0.54134 0.9408 0.0
C1090 C 0.34214 0.48994 0.96125 0.0
C1091 C 0.3167 0.52863 0.98743 0.0
C1092 C 0.35244 0.51201 0.93874 0.0
C1093 C 0.32743 0.55003 0.96445 0.0
C1094 C 0.38123 0.42521 0.05661 0.0
C1095 C 0.40021 0.42206 0.03122 0.0
C1096 C 0.39604 0.42697 0.09002 0.0
C1097 C 0.43379 0.4206 0.0397 0.0
C1098 C 0.4297 0.42546 0.09748 0.0
N1099 N 0.44772 0.42233 0.07238 0.0
C1100 C 0.42447 0.52204 0.07309 0.0
C1101 C 0.4195 0.49918 0.01867 0.0
C1102 C 0.4587 0.53712 0.07219 0.0
N1103 N 0.40464 0.50304 0.04656 0.0
C1104 C 0.45368 0.51376 0.01684 0.0
C1105 C 0.47474 0.53339 0.04382 0.0
H1106 H 0.41412 0.52554 0.09568 0.0
H1107 H 0.40515 0.48404 0.99739 0.0
C1108 C 0.29647 0.40763 0.92812 0.0
N1109 N 0.31368 0.40193 0.9582 0.0
C1110 C 0.29957 0.39255 0.89627 0.0
C1111 C 0.3383 0.36533 0.92475 0.0
C1112 C 0.33425 0.38055 0.95606 0.0
C1113 C 0.32106 0.3708 0.8933 0.0
H1114 H 0.28024 0.42446 0.92826 0.0
H1115 H 0.34832 0.37512 0.97882 0.0
O1116 O 0.32092 0.48195 0.08484 0.0
O1117 O 0.27315 0.42422 0.0402 0.0
O1118 O 0.31399 0.47717 1.00808 0.0
O1119 O 0.34866 0.42781 0.04896 0.0
H1120 H 0.26508 0.4766 0.1106 0.0
H1121 H 0.37164 0.51045 0.13085 0.0
H1122 H 0.26166 0.49484 0.16885 0.0
H1123 H 0.36637 0.52829 0.1887 0.0
H1124 H 0.21563 0.3218 0.03088 0.0
H1125 H 0.22392 0.43343 0.07213 0.0
H1126 H 0.26341 0.36317 0.02026 0.0
H1127 H 0.17689 0.39087 0.08186 0.0
H1128 H 0.21209 0.56647 0.07895 0.0
H1129 H 0.15279 0.494 1.00653 0.0
H1130 H 0.34435 0.41902 0.21439 0.0
H1131 H 0.28477 0.33355 0.16087 0.0
H1132 H 0.3482 0.46663 0.95973 0.0
H1133 H 0.30278 0.53547 1.00629 0.0
H1134 H 0.36642 0.50582 0.91966 0.0
H1135 H 0.32184 0.57353 0.96541 0.0
H1136 H 0.38932 0.42137 1.00525 0.0
H1137 H 0.38173 0.42974 0.10996 0.0
H1138 H 0.44884 0.41833 0.02031 0.0
H1139 H 0.44151 0.42681 0.12323 0.0
H1140 H 0.4727 0.55153 0.09418 0.0
H1141 H 0.46358 0.50927 0.99416 0.0
H1142 H 0.28528 0.39844 0.87384 0.0
H1143 H 0.35523 0.34908 0.92541 0.0
Li1144 Li 0.81909 0.25511 0.07043 0.0
Li1145 Li 0.83559 0.2126 0.03544 0.0
Li1146 Li 0.81312 0.25482 1.0016 0.0
Li1147 Li 0.77671 0.21252 0.0317 0.0
C1148 C 0.88257 0.28021 0.05329 0.0
N1149 N 0.93921 0.32269 0.08403 0.0
C1150 C 0.90645 0.26977 0.07548 0.0
C1151 C 0.88742 0.31223 0.04677 0.0
C1152 C 0.93493 0.29162 0.09078 0.0
C1153 C 0.91626 0.33335 0.06254 0.0
C1154 C 0.81936 0.1899 0.0951 0.0
C1155 C 0.81346 0.14072 0.12196 0.0
N1156 N 0.84249 0.15262 0.14292 0.0
C1157 C 0.84906 0.20166 0.117 0.0
C1158 C 0.80129 0.15924 0.0977 0.0
C1159 C 0.86036 0.18244 0.14097 0.0
C1160 C 0.80974 0.259 0.14024 0.0
N1161 N 0.82696 0.27667 0.1188 0.0
C1162 C 0.85215 0.31585 0.16562 0.0
C1163 C 0.84804 0.30487 0.13118 0.0
C1164 C 0.83505 0.29756 0.18834 0.0
C1165 C 0.81362 0.26869 0.17463 0.0
H1166 H 0.79286 0.23682 0.13074 0.0
H1167 H 0.86196 0.31901 0.11452 0.0
C1168 C 0.89684 0.19017 0.02928 0.0
N1169 N 0.8645 0.18199 0.03429 0.0
C1170 C 0.91605 0.16686 0.02721 0.0
C1171 C 0.86836 0.12713 0.03532 0.0
C1172 C 0.85005 0.15106 0.03679 0.0
C1173 C 0.90188 0.13478 0.03045 0.0
H1174 H 0.90762 0.2147 0.02652 0.0
H1175 H 0.82395 0.14481 0.03926 0.0
C1176 C 0.74718 0.26041 0.0345 0.0
N1177 N 0.67948 0.25515 0.03416 0.0
C1178 C 0.72548 0.25684 1.00422 0.0
C1179 C 0.73451 0.26143 0.06463 0.0
C1180 C 0.69132 0.25424 1.00457 0.0
C1181 C 0.70017 0.25867 0.06392 0.0
C1182 C 0.81333 0.18944 0.97239 0.0
C1183 C 0.84095 0.20305 0.95783 0.0
C1184 C 0.79927 0.15705 0.96555 0.0
C1185 C 0.85407 0.18395 0.9366 0.0
C1186 C 0.81311 0.13876 0.94415 0.0
N1187 N 0.83999 0.15247 0.93025 0.0
C1188 C 0.84266 0.29529 0.94974 0.0
C1189 C 0.78894 0.26444 0.93062 0.0
C1190 C 0.84515 0.30546 0.91727 0.0
N1191 N 0.81484 0.27494 0.95623 0.0
C1192 C 0.79036 0.27417 0.89778 0.0
C1193 C 0.8189 0.29488 0.89025 0.0
H1194 H 0.8636 0.30309 0.96954 0.0
H1195 H 0.76726 0.24758 0.93527 0.0
C1196 C 0.72199 0.17865 0.05882 0.0
N1197 N 0.73328 0.18393 0.02927 0.0
C1198 C 0.69281 0.15613 0.06014 0.0
C1199 C 0.68653 0.14496 1.00041 0.0
C1200 C 0.71608 0.16777 1.00025 0.0
C1201 C 0.67466 0.1386 0.03076 0.0
H1202 H 0.73613 0.19153 0.08161 0.0
H1203 H 0.72559 0.17215 0.97703 0.0
O1204 O 0.85459 0.25919 0.03793 0.0
O1205 O 0.80775 0.20847 0.07158 0.0
O1206 O 0.78047 0.26158 0.03466 0.0
O1207 O 0.80091 0.20758 0.99411 0.0
H1208 H 0.90319 0.24503 0.08065 0.0
H1209 H 0.86904 0.32071 0.02983 0.0
H1210 H 0.95367 0.28386 0.10794 0.0
H1211 H 0.92036 0.35821 0.05773 0.0
H1212 H 0.79985 0.11688 0.12411 0.0
H1213 H 0.86312 0.22546 0.11566 0.0
H1214 H 0.77827 0.1497 0.08094 0.0
H1215 H 0.88331 0.19126 0.15808 0.0
H1216 H 0.86887 0.33834 0.17439 0.0
H1217 H 0.79934 0.25357 0.19034 0.0
H1218 H 0.94183 0.17396 0.02349 0.0
H1219 H 0.85612 0.10273 0.03725 0.0
H1220 H 0.7349 0.25576 0.98071 0.0
H1221 H 0.75097 0.26392 0.08828 0.0
H1222 H 0.6742 0.25133 0.98132 0.0
H1223 H 0.68994 0.25911 0.087 0.0
H1224 H 0.85252 0.22796 0.96336 0.0
H1225 H 0.77813 0.14611 0.97694 0.0
H1226 H 0.87555 0.19412 0.92533 0.0
H1227 H 0.80257 0.11363 0.9387 0.0
H1228 H 0.86795 0.32118 0.91332 0.0
H1229 H 0.76945 0.26485 0.87826 0.0
H1230 H 0.68475 0.15238 0.08417 0.0
H1231 H 0.67339 0.13222 0.97712 0.0
Li1232 Li 0.11958 0.52171 0.25078 0.0
Li1233 Li 0.08729 0.4721 0.265 0.0
Li1234 Li 0.13949 0.47219 0.24476 0.0
Li1235 Li 0.09026 0.48026 0.20834 0.0
C1236 C 0.16286 0.50851 0.30518 0.0
N1237 N 0.22422 0.53533 0.3427 0.0
C1238 C 0.16874 0.5048 0.33943 0.0
C1239 C 0.18821 0.52613 0.29015 0.0
C1240 C 0.1999 0.51848 0.35794 0.0
C1241 C 0.21904 0.53942 0.30949 0.0
C1242 C 0.05549 0.52332 0.2595 0.0
C1243 C 1.00808 0.54604 0.26803 0.0
N1244 N 1.02525 0.56097 0.29749 0.0
C1245 C 0.07213 0.53804 0.29048 0.0
C1246 C 1.02295 0.52707 0.24841 0.0
C1247 C 0.05674 0.55751 0.30891 0.0
C1248 C 0.12983 0.58115 0.22877 0.0
N1249 N 0.13376 0.5664 0.25741 0.0
C1250 C 0.16683 0.61405 0.28682 0.0
C1251 C 0.15021 0.58252 0.28662 0.0
C1252 C 0.16597 0.62891 0.25675 0.0
C1253 C 0.14586 0.61262 0.22781 0.0
H1254 H 0.1156 0.56784 0.20626 0.0
H1255 H 0.15215 0.57052 0.30936 0.0
C1256 C 0.07926 0.4568 0.32754 0.0
N1257 N 0.06058 0.45742 0.29741 0.0
C1258 C 0.0695 0.46867 0.35623 0.0
C1259 C 1.01888 0.47623 0.32276 0.0
C1260 C 1.02923 0.46327 0.29479 0.0
C1261 C 0.04102 0.48214 0.35305 0.0
H1262 H 0.10378 0.45137 0.32873 0.0
H1263 H 1.01483 0.46337 0.27041 0.0
C1264 C 0.14898 0.50124 0.18326 0.0
N1265 N 0.17352 0.49479 0.12386 0.0
C1266 C 0.15504 0.47192 0.17218 0.0
C1267 C 0.15544 0.52722 0.1641 0.0
C1268 C 0.16757 0.46919 0.14214 0.0
C1269 C 0.1677 0.52346 0.13413 0.0
C1270 C 0.06731 0.41789 0.22103 0.0
C1271 C 0.06892 0.3858 0.21746 0.0
C1272 C 0.03638 0.42667 0.21471 0.0
C1273 C 0.03949 0.36295 0.20788 0.0
C1274 C 1.00751 0.40311 0.20524 0.0
N1275 N 1.00964 0.372 0.20206 0.0
C1276 C 0.18395 0.43742 0.27623 0.0
C1277 C 0.20833 0.47582 0.24215 0.0
C1278 C 0.21553 0.43361 0.29061 0.0
N1279 N 0.18099 0.45868 0.25292 0.0
C1280 C 0.2403 0.47293 0.25598 0.0
C1281 C 0.2443 0.45222 0.2812 0.0
H1282 H 0.16188 0.42483 0.28509 0.0
H1283 H 0.20567 0.49381 0.22495 0.0
C1284 C 0.04869 0.50248 0.16249 0.0
N1285 N 0.06763 0.48005 0.16382 0.0
C1286 C 0.04467 0.51903 0.13427 0.0
C1287 C 0.07508 0.4856 0.10692 0.0
C1288 C 0.07841 0.46944 0.13599 0.0
C1289 C 0.06027 0.51229 0.10719 0.0
H1290 H 0.04036 0.5106 0.18461 0.0
H1291 H 0.09298 0.4512 0.13745 0.0
O1292 O 0.13261 0.49467 0.28656 0.0
O1293 O 0.07098 0.50594 0.23973 0.0
O1294 O 0.13709 0.50465 0.21281 0.0
O1295 O 0.09603 0.44036 0.23058 0.0
H1296 H 0.14949 0.49156 0.35174 0.0
H1297 H 0.18411 0.52973 0.26382 0.0
H1298 H 0.20475 0.51572 0.38444 0.0
H1299 H 0.23883 0.55302 0.29808 0.0
H1300 H 0.98295 0.54906 0.25971 0.0
H1301 H 0.09671 0.53465 0.30026 0.0
H1302 H 1.00903 0.51523 0.22508 0.0
H1303 H 0.06986 0.56992 0.33229 0.0
H1304 H 0.18189 0.62587 0.30972 0.0
H1305 H 0.14374 0.62359 0.20436 0.0
H1306 H 0.08665 0.47183 0.37952 0.0
H1307 H 0.9965 0.48592 0.31936 0.0
H1308 H 0.14985 0.45143 0.18647 0.0
H1309 H 0.15112 0.55013 0.17221 0.0
H1310 H 0.17237 0.44667 0.13327 0.0
H1311 H 0.17263 0.54342 0.11914 0.0
H1312 H 0.09269 0.37862 0.22223 0.0
H1313 H 0.03458 0.45134 0.21703 0.0
H1314 H 0.04037 0.33801 0.20519 0.0
H1315 H 0.98341 0.40957 0.20037 0.0
H1316 H 0.21734 0.41677 0.30942 0.0
H1317 H 0.26164 0.48805 0.24819 0.0
H1318 H 1.03254 0.53913 0.13506 0.0
H1319 H 0.08721 0.47962 0.0862 0.0
Li1320 Li 0.7788 0.97301 0.54661 0.0
Li1321 Li 0.81323 0.9304 0.5828 0.0
Li1322 Li 0.85132 0.97561 0.54965 0.0
Li1323 Li 0.8107 0.9278 0.50926 0.0
C1324 C 0.81838 0.98991 0.61893 0.0
N1325 N 0.81508 1.00764 0.68459 0.0
C1326 C 0.78775 0.98398 0.63075 0.0
C1327 C 0.84732 1.00483 0.64046 0.0
C1328 C 0.7866 0.99313 0.66404 0.0
C1329 C 0.84513 1.01364 0.67359 0.0
C1330 C 0.74645 0.89888 0.54625 0.0
C1331 C 0.71836 0.84372 0.53844 0.0
N1332 N 0.6945 0.85062 0.55581 0.0
C1333 C 0.72168 0.90546 0.56401 0.0
C1334 C 0.74485 0.86781 0.53333 0.0
C1335 C 0.69559 0.88071 0.56857 0.0
C1336 C 0.70479 0.99027 0.52121 0.0
N1337 N 0.7328 0.99823 0.54554 0.0
C1338 C 0.7027 0.03715 0.56939 0.0
C1339 C 0.73114 1.02178 0.56943 0.0
C1340 C 0.67349 0.02952 0.54456 0.0
C1341 C 0.67594 1.00513 0.52031 0.0
H1342 H 0.70419 0.97191 0.50178 0.0
H1343 H 0.75206 0.0292 0.58935 0.0
C1344 C 0.83205 0.91832 0.66134 0.0
N1345 N 0.81335 0.90405 0.63152 0.0
C1346 C 0.83318 0.90307 0.69248 0.0
C1347 C 0.79614 0.85745 0.66416 0.0
C1348 C 0.79545 0.8736 0.63347 0.0
C1349 C 0.81518 0.87167 0.69532 0.0
H1350 H 0.8469 0.94203 0.66153 0.0
H1351 H 0.78027 0.86106 0.61099 0.0
C1352 C 0.82151 0.99757 0.48725 0.0
N1353 N 0.83973 0.0404 0.44128 0.0
C1354 C 0.83931 0.98952 0.46241 0.0
C1355 C 0.81286 0.02732 0.48869 0.0
C1356 C 0.84834 1.01153 0.43942 0.0
C1357 C 0.82233 0.04867 0.46521 0.0
C1358 C 0.88056 0.92458 0.55713 0.0
C1359 C 0.89956 0.92246 0.53154 0.0
C1360 C 0.89546 0.92556 0.59042 0.0
C1361 C 0.93322 0.9212 0.53971 0.0
C1362 C 0.9292 0.92429 0.59757 0.0
N1363 N 0.94722 0.92215 0.57228 0.0
C1364 C 0.92392 1.02043 0.57455 0.0
C1365 C 0.91785 0.99944 0.51927 0.0
C1366 C 0.95812 0.03548 0.57343 0.0
N1367 N 0.90354 1.00236 0.54771 0.0
C1368 C 0.95198 1.014 0.51722 0.0
C1369 C 0.97359 0.03269 0.54451 0.0
H1370 H 0.91407 0.02314 0.59758 0.0
H1371 H 0.90309 0.98502 0.49771 0.0
C1372 C 0.79316 0.90735 0.42959 0.0
N1373 N 0.81179 0.90219 0.45908 0.0
C1374 C 0.79588 0.89287 0.39734 0.0
C1375 C 0.83713 0.86745 0.42426 0.0
C1376 C 0.83339 0.88198 0.45599 0.0
C1377 C 0.81846 0.87241 0.39339 0.0
H1378 H 0.77606 0.92328 0.43053 0.0
H1379 H 0.84851 0.87697 0.47829 0.0
O1380 O 0.81994 0.98044 0.58661 0.0
O1381 O 0.77231 0.92271 0.54176 0.0
O1382 O 0.81246 0.97639 0.50998 0.0
O1383 O 0.84788 0.92695 0.54982 0.0
H1384 H 0.76516 0.97227 0.61439 0.0
H1385 H 0.87123 1.0093 0.63178 0.0
H1386 H 0.76308 0.98865 0.67355 0.0
H1387 H 0.86734 0.02513 0.69059 0.0
H1388 H 0.71675 0.81954 0.52859 0.0
H1389 H 0.72262 0.92944 0.57413 0.0
H1390 H 0.76391 0.86239 0.51955 0.0
H1391 H 0.67622 0.88543 0.58226 0.0
H1392 H 0.70383 0.05524 0.58928 0.0
H1393 H 0.65528 0.99716 0.5002 0.0
H1394 H 0.84885 0.91612 0.71443 0.0
H1395 H 0.78158 0.83347 0.66322 0.0
H1396 H 0.84621 0.96658 0.46102 0.0
H1397 H 0.79899 0.03383 0.50776 0.0
H1398 H 0.86219 1.00566 0.4201 0.0
H1399 H 0.81584 0.07181 0.46602 0.0
H1400 H 0.88862 0.92244 0.50568 0.0
H1401 H 0.88116 0.92756 0.61052 0.0
H1402 H 0.94828 0.91973 0.52016 0.0
H1403 H 0.94107 0.92506 0.62323 0.0
H1404 H 0.97256 0.04911 0.5957 0.0
H1405 H 0.96143 1.01025 0.4941 0.0
H1406 H 0.78047 0.89826 0.37538 0.0
H1407 H 0.85495 0.85214 0.42414 0.0
Li1408 Li 0.98271 0.04856 0.24767 0.0
Li1409 Li 0.93427 1.00684 0.21953 0.0
Li1410 Li 0.96873 0.04868 0.1886 0.0
Li1411 Li 0.92799 0.0621 0.22255 0.0
C1412 C 1.00011 0.99121 0.22364 0.0
N1413 N 0.03442 0.94463 0.24314 0.0
C1414 C 1.00147 0.98189 0.25623 0.0
C1415 C 1.01646 0.97704 0.20101 0.0
C1416 C 1.01885 0.95827 0.26558 0.0
C1417 C 1.03366 0.9535 0.21136 0.0
C1418 C 0.92021 0.02458 0.28451 0.0
C1419 C 0.86894 1.01396 0.30778 0.0
N1420 N 0.88486 1.0021 0.33443 0.0
C1421 C 0.93616 1.01263 0.31233 0.0
C1422 C 0.88642 0.0256 0.28239 0.0
C1423 C 0.91782 1.00124 0.33722 0.0
C1424 C 1.01692 0.07328 0.30992 0.0
N1425 N 1.02016 0.05946 0.28018 0.0
C1426 C 0.07602 0.05534 0.3001 0.0
C1427 C 0.04947 0.05232 0.27411 0.0
C1428 C 0.07225 0.06676 0.33195 0.0
C1429 C 0.04307 0.07752 0.33636 0.0
H1430 H 0.99336 0.07915 0.31355 0.0
H1431 H 0.0515 0.04238 0.24968 0.0
C1432 C 0.92499 0.93894 0.22808 0.0
N1433 N 0.90959 0.96406 0.22492 0.0
C1434 C 0.90964 0.91115 0.24095 0.0
C1435 C 0.86107 0.93372 0.2434 0.0
C1436 C 0.87764 0.96135 0.23106 0.0
C1437 C 0.87761 0.90861 0.24973 0.0
H1438 H 0.94962 0.94058 0.22172 0.0
H1439 H 0.86548 0.98124 0.22784 0.0
C1440 C 0.99038 0.11157 0.21157 0.0
N1441 N 1.02331 0.16617 0.1878 0.0
C1442 C 0.97224 0.13184 0.19496 0.0
C1443 C 1.02526 0.11935 0.21662 0.0
C1444 C 0.98935 0.15927 0.18301 0.0
C1445 C 0.04145 0.14698 0.20425 0.0
C1446 C 0.89143 0.03769 0.16148 0.0
C1447 C 0.89345 0.06649 0.14664 0.0
C1448 C 0.86137 1.0152 0.15597 0.0
C1449 C 0.86523 0.07249 0.12678 0.0
C1450 C 0.83372 1.02205 0.13587 0.0
N1451 N 0.8362 0.05033 0.12185 0.0
C1452 C 1.02922 0.0587 0.16528 0.0
C1453 C 0.98899 0.08138 0.13272 0.0
C1454 C 0.05466 0.07455 0.14914 0.0
N1455 N 0.99714 0.06221 0.15675 0.0
C1456 C 1.01361 0.09772 0.11604 0.0
C1457 C 0.04688 0.09428 0.12411 0.0
H1458 H 0.0354 0.04469 0.18571 0.0
H1459 H 0.96376 0.08496 0.12734 0.0
C1460 C 0.91477 0.11316 0.25621 0.0
N1461 N 0.89943 0.08988 0.23198 0.0
C1462 C 0.89727 0.1347 0.26808 0.0
C1463 C 0.84833 0.10831 0.22952 0.0
C1464 C 0.86672 0.08686 0.21872 0.0
C1465 C 0.86361 0.13235 0.25479 0.0
H1466 H 0.94065 0.11466 0.26665 0.0
H1467 H 0.85459 0.06752 0.20042 0.0
O1468 O 0.98307 1.01424 0.21397 0.0
O1469 O 0.93783 0.03609 0.26 0.0
O1470 O 0.97407 0.08429 0.2229 0.0
O1471 O 0.91876 0.03127 0.18097 0.0
H1472 H 0.98894 0.99258 0.27397 0.0
H1473 H 1.0157 0.984 0.17567 0.0
H1474 H 1.01978 0.95073 0.29065 0.0
H1475 H 0.04631 0.94222 0.19411 0.0
H1476 H 0.8427 1.01436 0.3063 0.0
H1477 H 0.96247 1.01235 0.31487 0.0
H1478 H 0.87369 0.03492 0.26117 0.0
H1479 H 0.92983 0.99184 0.35882 0.0
H1480 H 0.09809 0.0466 0.29606 0.0
H1481 H 0.0391 0.08595 0.36079 0.0
H1482 H 0.92297 0.89201 0.24445 0.0
H1483 H 0.83618 0.93266 0.24935 0.0
H1484 H 0.94524 0.12645 0.1913 0.0
H1485 H 0.03968 0.104 0.22957 0.0
H1486 H 0.97563 0.17506 0.16992 0.0
H1487 H 0.06844 0.15312 0.20766 0.0
H1488 H 0.91635 0.08423 0.15084 0.0
H1489 H 0.85945 0.99266 0.167 0.0
H1490 H 0.86639 0.09479 0.11535 0.0
H1491 H 0.81029 1.00488 0.13143 0.0
H1492 H 0.07988 0.07098 0.15578 0.0
H1493 H 1.0066 0.11257 0.09657 0.0
H1494 H 0.90999 0.15312 0.28739 0.0
H1495 H 0.82229 0.10564 0.21893 0.0
Li1496 Li 0.31708 0.75906 0.57035 0.0
Li1497 Li 0.33724 0.71681 0.53613 0.0
Li1498 Li 0.31175 0.75766 0.50079 0.0
Li1499 Li 0.27704 0.71535 0.53088 0.0
C1500 C 0.3846 0.77719 0.55479 0.0
N1501 N 0.44842 0.8022 0.58761 0.0
C1502 C 0.39758 0.76338 0.58277 0.0
C1503 C 0.40396 0.80386 0.5436 0.0
C1504 C 0.42992 0.77634 0.59901 0.0
C1505 C 0.43621 0.81611 0.5605 0.0
C1506 C 0.31159 0.69063 0.59431 0.0
C1507 C 0.29912 0.637 0.61088 0.0
N1508 N 0.31806 0.64687 0.64121 0.0
C1509 C 0.3311 0.70015 0.6256 0.0
C1510 C 0.2955 0.65875 0.58686 0.0
C1511 C 0.33394 0.67774 0.64897 0.0
C1512 C 0.30315 0.76617 0.63864 0.0
N1513 N 0.32419 0.78089 0.61839 0.0
C1514 C 0.35381 0.81666 0.6665 0.0
C1515 C 0.34926 0.806 0.63195 0.0
C1516 C 0.33304 0.80101 0.68809 0.0
C1517 C 0.30734 0.77547 0.67315 0.0
H1518 H 0.28348 0.74616 0.62822 0.0
H1519 H 0.3663 0.8176 0.61624 0.0
C1520 C 0.37792 0.68077 0.50552 0.0
N1521 N 0.36925 0.68902 0.53541 0.0
C1522 C 0.39703 0.65747 0.50288 0.0
C1523 C 0.39858 0.6519 0.5619 0.0
C1524 C 0.37995 0.67557 0.56346 0.0
C1525 C 0.4072 0.64213 0.53124 0.0
H1526 H 0.36928 0.69172 0.48344 0.0
H1527 H 0.3735 0.68253 0.58711 0.0
C1528 C 0.24463 0.76081 0.53283 0.0
N1529 N 0.17653 0.75196 0.5323 0.0
C1530 C 0.22262 0.75161 0.50293 0.0
C1531 C 0.23203 0.76565 0.56246 0.0
C1532 C 0.18827 0.74725 0.50317 0.0
C1533 C 0.1975 0.76101 0.56167 0.0
C1534 C 0.29355 0.68324 0.47437 0.0
C1535 C 0.28213 0.68434 0.44041 0.0
C1536 C 0.29448 0.65389 0.48733 0.0
C1537 C 0.27152 0.65596 0.42001 0.0
C1538 C 0.28369 0.62605 0.46612 0.0
N1539 N 0.2725 0.62765 0.43318 0.0
C1540 C 0.34553 0.79055 0.44759 0.0
C1541 C 0.28734 0.77465 0.43173 0.0
C1542 C 0.34912 0.80053 0.41526 0.0
N1543 N 0.31495 0.77772 0.45564 0.0
C1544 C 0.28987 0.78409 0.39896 0.0
C1545 C 0.32115 0.79717 0.3899 0.0
H1546 H 0.36758 0.79228 0.46597 0.0
H1547 H 0.26315 0.76379 0.43751 0.0
C1548 C 0.22282 0.67976 0.55821 0.0
N1549 N 0.23377 0.68522 0.5285 0.0
C1550 C 0.19409 0.65671 0.55992 0.0
C1551 C 0.18705 0.64573 0.50018 0.0
C1552 C 0.21614 0.66903 0.49963 0.0
C1553 C 0.17581 0.63896 0.53072 0.0
H1554 H 0.23687 0.69297 0.58087 0.0
H1555 H 0.22466 0.67391 0.47608 0.0
O1556 O 0.35302 0.76476 0.53855 0.0
O1557 O 0.30816 0.71249 0.57131 0.0
O1558 O 0.27826 0.76384 0.5333 0.0
O1559 O 0.30389 0.71077 0.49475 0.0
H1560 H 0.38282 0.74289 0.59183 0.0
H1561 H 0.3942 0.81498 0.52211 0.0
H1562 H 0.4403 0.76584 0.62066 0.0
H1563 H 0.45154 0.83665 0.55204 0.0
H1564 H 0.28678 0.61227 0.60544 0.0
H1565 H 0.34442 0.72447 0.63168 0.0
H1566 H 0.28023 0.65084 0.56289 0.0
H1567 H 0.34891 0.68498 0.67323 0.0
H1568 H 0.37394 0.83653 0.67631 0.0
H1569 H 0.29022 0.76258 0.68805 0.0
H1570 H 0.40359 0.65152 0.47879 0.0
H1571 H 0.40532 0.64083 0.58454 0.0
H1572 H 0.23192 0.74719 0.47992 0.0
H1573 H 0.24871 0.77272 0.58583 0.0
H1574 H 0.17094 0.73988 0.48025 0.0
H1575 H 0.18735 0.76443 0.58441 0.0
H1576 H 0.28136 0.70684 0.42994 0.0
H1577 H 0.30361 0.65264 0.51344 0.0
H1578 H 0.26252 0.65645 0.3937 0.0
H1579 H 0.28426 0.60318 0.47584 0.0
H1580 H 0.37397 0.81011 0.41002 0.0
H1581 H 0.26741 0.78067 0.38072 0.0
H1582 H 0.18639 0.6528 0.58409 0.0
H1583 H 0.17366 0.63306 0.47695 0.0
Li1584 Li 0.44017 0.50891 0.73666 0.0
Li1585 Li 0.48273 0.55412 0.76137 0.0
Li1586 Li 0.4283 0.56124 0.73725 0.0
Li1587 Li 0.47259 0.55044 0.70356 0.0
C1588 C 0.42052 0.52022 0.79646 0.0
N1589 N 0.38165 0.48386 0.83648 0.0
C1590 C 0.43502 0.51225 0.82734 0.0
C1591 C 0.38609 0.51018 0.78635 0.0
C1592 C 0.415 0.49372 0.8471 0.0
C1593 C 0.36691 0.49169 0.8068 0.0
C1594 C 0.51323 0.50734 0.75178 0.0
C1595 C 0.56788 0.49459 0.76213 0.0
N1596 N 0.56281 0.48763 0.79356 0.0
C1597 C 0.50875 0.49992 0.78421 0.0
C1598 C 0.54312 0.50447 0.7406 0.0
C1599 C 0.53397 0.48996 0.80492 0.0
C1600 C 0.43616 0.44469 0.75482 0.0
N1601 N 0.41834 0.46493 0.73992 0.0
C1602 C 0.36725 0.42715 0.74054 0.0
C1603 C 0.38456 0.45603 0.73133 0.0
C1604 C 0.38496 0.40712 0.75853 0.0
C1605 C 0.41997 0.41576 0.76457 0.0
H1606 H 0.46293 0.45115 0.76017 0.0
H1607 H 0.37079 0.47216 0.71904 0.0
C1608 C 0.51637 0.57784 0.82558 0.0
N1609 N 0.52045 0.57113 0.79365 0.0
C1610 C 0.544 0.58431 0.85056 0.0
C1611 C 0.57955 0.57938 0.8088 0.0
C1612 C 0.55129 0.57426 0.78448 0.0
C1613 C 0.57564 0.58288 0.84236 0.0
H1614 H 0.49154 0.57606 0.83183 0.0
H1615 H 0.55364 0.57013 0.75849 0.0
C1616 C 0.39882 0.53968 0.67475 0.0
N1617 N 0.35065 0.5598 0.63151 0.0
C1618 C 0.40739 0.55545 0.6469 0.0
C1619 C 0.36563 0.53373 0.68032 0.0
C1620 C 0.38271 0.56554 0.6254 0.0
C1621 C 0.34167 0.54421 0.65825 0.0
C1622 C 0.48974 0.61466 0.75043 0.0
C1623 C 0.47705 0.62842 0.77642 0.0
C1624 C 0.52123 0.62864 0.74324 0.0
C1625 C 0.49603 0.65595 0.79475 0.0
C1626 C 0.53945 0.65616 0.76217 0.0
N1627 N 0.52657 0.66912 0.78731 0.0
C1628 C 0.38515 0.58763 0.77228 0.0
C1629 C 0.38778 0.60583 0.71835 0.0
C1630 C 0.36505 0.60868 0.7793 0.0
N1631 N 0.39603 0.58647 0.74222 0.0
C1632 C 0.36761 0.6273 0.72433 0.0
C1633 C 0.35646 0.62927 0.7554 0.0
H1634 H 0.39372 0.57372 0.79173 0.0
H1635 H 0.39784 0.60547 0.69518 0.0
C1636 C 0.5209 0.54559 0.66288 0.0
N1637 N 0.49876 0.56334 0.67013 0.0
C1638 C 0.54716 0.55836 0.64619 0.0
C1639 C 0.5257 0.60654 0.64235 0.0
C1640 C 0.50059 0.5933 0.66026 0.0
C1641 C 0.54972 0.58919 0.63574 0.0
H1642 H 0.51829 0.52165 0.67035 0.0
H1643 H 0.48307 0.60718 0.66706 0.0
O1644 O 0.43975 0.53827 0.77657 0.0
O1645 O 0.48868 0.51768 0.73146 0.0
O1646 O 0.42277 0.5299 0.69621 0.0
O1647 O 0.47174 0.5873 0.73264 0.0
H1648 H 0.46144 0.52038 0.83616 0.0
H1649 H 0.37432 0.51652 0.76281 0.0
H1650 H 0.42596 0.48728 0.87095 0.0
H1651 H 0.34031 0.48355 0.79906 0.0
H1652 H 0.59117 0.49248 0.75386 0.0
H1653 H 0.48593 0.50186 0.79322 0.0
H1654 H 0.54764 0.51012 0.71587 0.0
H1655 H 0.53071 0.48425 0.83008 0.0
H1656 H 0.34026 0.42126 0.73486 0.0
H1657 H 0.43482 0.40064 0.77733 0.0
H1658 H 0.54008 0.58657 0.87637 0.0
H1659 H 0.60354 0.57785 0.80179 0.0
H1660 H 0.43278 0.55981 0.64186 0.0
H1661 H 0.35851 0.52165 0.70175 0.0
H1662 H 0.38905 0.57791 0.60386 0.0
H1663 H 0.31597 0.54006 0.66245 0.0
H1664 H 0.45307 0.61772 0.78278 0.0
H1665 H 0.53181 0.61807 0.72369 0.0
H1666 H 0.48656 0.66677 0.81501 0.0
H1667 H 0.5639 0.66712 0.75699 0.0
H1668 H 0.35806 0.61011 0.804 0.0
H1669 H 0.36173 0.64284 0.70528 0.0
H1670 H 0.56429 0.54373 0.64017 0.0
H1671 H 0.52611 0.62986 0.63332 0.0
Li1672 Li 0.58628 0.97092 0.76621 0.0
Li1673 Li 0.62646 1.01555 0.75332 0.0
Li1674 Li 0.59322 0.97772 0.70962 0.0
Li1675 Li 0.63923 0.96333 0.74811 0.0
C1676 C 0.56486 0.0278 0.75898 0.0
N1677 N 0.54031 0.07062 0.7967 0.0
C1678 C 0.58059 0.03862 0.79153 0.0
C1679 C 0.53653 0.03889 0.74572 0.0
C1680 C 0.56799 0.06041 0.81005 0.0
C1681 C 0.5244 0.06031 0.76524 0.0
C1682 C 0.6577 0.99768 0.81582 0.0
C1683 C 0.71601 1.01085 0.84027 0.0
N1684 N 0.70727 1.01765 0.87047 0.0
C1685 C 0.64945 1.00513 0.84714 0.0
C1686 C 0.69138 1.00095 0.8124 0.0
C1687 C 0.67478 1.01511 0.87441 0.0
C1688 C 0.56995 0.95587 0.8273 0.0
N1689 N 0.55547 0.96018 0.79623 0.0
C1690 C 0.51444 0.98331 0.81814 0.0
C1691 C 0.52611 0.97024 0.7911 0.0
C1692 C 0.53304 0.98494 0.85014 0.0
C1693 C 0.55834 0.96738 0.85503 0.0
H1694 H 0.59321 0.94769 0.83055 0.0
H1695 H 0.51504 0.97344 0.76607 0.0
C1696 C 0.63195 0.07841 0.73975 0.0
N1697 N 0.64556 0.05991 0.76165 0.0
C1698 C 0.6472 0.11016 0.73898 0.0
C1699 C 0.68874 0.10401 0.78512 0.0
C1700 C 0.67272 0.07233 0.7849 0.0
C1701 C 0.67659 0.12295 0.76119 0.0
H1702 H 0.61023 0.06799 0.72161 0.0
H1703 H 0.68304 0.05769 0.80236 0.0
C1704 C 0.5632 0.91595 0.72214 0.0
N1705 N 0.50397 0.87272 0.70098 0.0
C1706 C 0.56316 0.88358 0.7173 0.0
C1707 C 0.53319 0.92638 0.71589 0.0
C1708 C 0.53294 0.86207 0.70668 0.0
C1709 C 0.50349 0.90416 0.7053 0.0
C1710 C 0.66081 1.02114 0.70307 0.0
C1711 C 0.64673 0.03701 0.67725 0.0
C1712 C 0.69423 0.03233 0.71733 0.0
C1713 C 0.66631 0.06343 0.66592 0.0
C1714 C 0.71296 0.05891 0.70538 0.0
N1715 N 0.69875 0.07375 0.68011 0.0
C1716 C 0.54688 0.99216 0.66144 0.0
C1717 C 0.58851 0.9703 0.63956 0.0
C1718 C 0.54092 1.00776 0.63271 0.0
N1719 N 0.57207 0.97608 0.6652 0.0
C1720 C 0.58274 0.98485 0.60986 0.0
C1721 C 0.56058 1.0058 0.60761 0.0
H1722 H 0.53429 0.99615 0.68226 0.0
H1723 H 0.60911 0.95819 0.64372 0.0
C1724 C 0.68162 0.92813 0.78236 0.0
N1725 N 0.67617 0.9434 0.75425 0.0
C1726 C 0.71404 0.92566 0.79535 0.0
C1727 C 0.73389 0.95272 0.74893 0.0
C1728 C 0.701 0.95372 0.73632 0.0
C1729 C 0.74105 0.93982 0.7797 0.0
H1730 H 0.6614 0.92062 0.79636 0.0
H1731 H 0.69583 0.96575 0.71403 0.0
O1732 O 0.57745 1.0072 0.73981 0.0
O1733 O 0.63292 0.98666 0.7891 0.0
O1734 O 0.59261 0.9372 0.73269 0.0
O1735 O 0.64188 0.99527 0.71472 0.0
H1736 H 0.60252 0.03068 0.80235 0.0
H1737 H 0.52388 0.03112 0.72065 0.0
H1738 H 0.58034 0.06933 0.83499 0.0
H1739 H 0.50243 0.0689 0.75527 0.0
H1740 H 0.7421 1.01339 0.83781 0.0
H1741 H 0.62379 1.00348 0.85042 0.0
H1742 H 0.69865 0.99691 0.78837 0.0
H1743 H 0.66857 1.02085 0.89871 0.0
H1744 H 0.49455 0.99626 0.81331 0.0
H1745 H 0.57265 0.96732 0.87953 0.0
H1746 H 0.63676 0.1242 0.72048 0.0
H1747 H 0.71141 0.11304 0.80262 0.0
H1748 H 0.58625 0.87515 0.72193 0.0
H1749 H 0.53286 0.95136 0.71906 0.0
H1750 H 0.53252 0.83692 0.70302 0.0
H1751 H 0.48006 0.91192 0.70046 0.0
H1752 H 0.62073 0.02967 0.66661 0.0
H1753 H 0.70557 1.02096 0.73773 0.0
H1754 H 0.65562 0.0759 0.64604 0.0
H1755 H 0.73878 0.0678 0.71631 0.0
H1756 H 0.52345 0.02354 0.63152 0.0
H1757 H 0.59848 0.98307 0.59094 0.0
H1758 H 0.7179 0.91412 0.81827 0.0
H1759 H 0.75344 0.9639 0.73565 0.0
Li1760 Li 0.8549 0.72579 0.07945 0.0
Li1761 Li 0.88715 0.68106 0.04158 0.0
Li1762 Li 0.85248 0.72277 1.00529 0.0
Li1763 Li 0.81463 0.67749 0.03823 0.0
C1764 C 0.92213 0.75231 0.04529 0.0
N1765 N 0.98159 0.79432 0.04331 0.0
C1766 C 0.94196 0.74701 0.02127 0.0
C1767 C 0.93249 0.77892 0.06834 0.0
C1768 C 0.97195 0.76855 0.02067 0.0
C1769 C 0.96265 0.79989 0.06692 0.0
C1770 C 0.84318 0.65439 0.09908 0.0
C1771 C 0.83989 0.60135 0.11674 0.0
N1772 N 0.82159 0.60817 0.14048 0.0
C1773 C 0.82442 0.66092 0.12366 0.0
C1774 C 0.85104 0.62443 0.09554 0.0
C1775 C 0.8137 0.63721 0.14433 0.0
C1776 C 0.82295 0.75458 0.13882 0.0
N1777 N 0.85313 0.75098 0.13006 0.0
C1778 C 0.87832 0.77635 0.18684 0.0
C1779 C 0.88058 0.76193 0.15437 0.0
C1780 C 0.84751 0.78072 0.19633 0.0
C1781 C 0.81976 0.76927 0.17072 0.0
H1782 H 0.80046 0.74554 0.12122 0.0
H1783 H 0.90487 0.75936 0.1491 0.0
C1784 C 0.93386 0.63005 0.02213 0.0
N1785 N 0.93385 0.65708 0.04217 0.0
C1786 C 0.96282 0.61542 0.02208 0.0
C1787 C 0.99345 0.6555 0.06297 0.0
C1788 C 0.96403 0.66943 0.06236 0.0
C1789 C 0.9943 0.62762 0.04265 0.0
H1790 H 0.91115 0.61914 1.00553 0.0
H1791 H 0.96597 0.69068 0.07855 0.0
C1792 C 0.78631 0.73082 0.02764 0.0
N1793 N 0.72241 0.73928 1.00632 0.0
C1794 C 0.76807 0.71507 0.99776 0.0
C1795 C 0.77228 0.75125 0.04643 0.0
C1796 C 0.73574 0.71954 0.98748 0.0
C1797 C 0.73989 0.75516 0.03525 0.0
C1798 C 0.84525 0.66337 0.96878 0.0
C1799 C 0.81483 0.64992 0.94878 0.0
C1800 C 0.87468 0.66805 0.95478 0.0
C1801 C 0.81432 0.64139 0.91498 0.0
C1802 C 0.8731 0.65945 0.9208 0.0
N1803 N 0.84321 0.64638 0.90179 0.0
C1804 C 0.83013 0.73443 0.92772 0.0
C1805 C 0.87183 0.77711 0.95237 0.0
C1806 C 0.8286 0.74859 0.89602 0.0
N1807 N 0.85165 0.74818 0.95619 0.0
C1808 C 0.8707 0.79229 0.92107 0.0
C1809 C 0.8489 0.77842 0.89122 0.0
H1810 H 0.81339 0.71198 0.92911 0.0
H1811 H 0.88929 0.78914 0.97376 0.0
C1812 C 0.74739 0.65683 0.06705 0.0
N1813 N 0.76277 0.65039 0.04025 0.0
C1814 C 0.71356 0.64182 0.06967 0.0
C1815 C 0.70967 0.61332 0.01701 0.0
C1816 C 0.74373 0.62858 1.01548 0.0
C1817 C 0.69323 0.61943 0.04444 0.0
H1818 H 0.76114 0.67424 0.08682 0.0
H1819 H 0.75456 0.62284 0.99383 0.0
O1820 O 0.8929 0.73134 0.04654 0.0
O1821 O 0.85358 0.67714 0.07836 0.0
O1822 O 0.81763 0.7259 0.03838 0.0
O1823 O 0.84619 0.67286 1.00165 0.0
H1824 H 0.9343 0.72645 1.00335 0.0
H1825 H 0.9174 0.78325 0.08714 0.0
H1826 H 0.98759 0.76476 1.00223 0.0
H1827 H 0.97102 0.82059 0.08459 0.0
H1828 H 0.84574 0.57803 0.1143 0.0
H1829 H 0.8181 0.684 0.12663 0.0
H1830 H 0.86554 0.61906 0.07657 0.0
H1831 H 0.79908 0.64188 0.16343 0.0
H1832 H 0.90107 0.78419 0.20451 0.0
H1833 H 0.79505 0.77114 0.17537 0.0
H1834 H 0.9602 0.59415 1.0057 0.0
H1835 H 1.01588 0.66703 0.07968 0.0
H1836 H 0.77867 0.69926 0.98288 0.0
H1837 H 0.78631 0.76416 0.0692 0.0
H1838 H 0.72123 0.70728 0.96455 0.0
H1839 H 0.72867 0.77087 0.04955 0.0
H1840 H 0.79181 0.64651 0.95912 0.0
H1841 H 0.89844 0.67851 0.96992 0.0
H1842 H 0.79092 0.63106 0.89917 0.0
H1843 H 0.89558 0.66329 0.90949 0.0
H1844 H 0.81083 0.73596 0.87513 0.0
H1845 H 0.88721 0.8151 0.92044 0.0
H1846 H 0.70324 0.6483 0.09148 0.0
H1847 H 0.6962 0.59669 0.99639 0.0
Li1848 Li 1.0311 0.62476 0.83669 0.0
Li1849 Li 0.06517 0.6691 0.87195 0.0
Li1850 Li 1.02626 0.67854 0.82565 0.0
Li1851 Li 0.07953 0.65881 0.81751 0.0
C1852 C 1.003 0.64118 0.89136 0.0
N1853 N 0.97819 0.61109 0.94397 0.0
C1854 C 1.01956 0.61988 0.90811 0.0
C1855 C 0.97357 0.647 0.9013 0.0
C1856 C 1.00671 0.60494 0.93464 0.0
C1857 C 0.96152 0.63164 0.92805 0.0
C1858 C 0.10255 0.6155 0.86717 0.0
C1859 C 0.16038 0.61116 0.87803 0.0
N1860 N 0.15146 0.58424 0.89365 0.0
C1861 C 0.09399 0.58748 0.88297 0.0
C1862 C 0.13606 0.62718 0.86438 0.0
C1863 C 0.11905 0.57218 0.89635 0.0
C1864 C 1.0235 0.5597 0.82327 0.0
N1865 N 1.00726 0.58248 0.83228 0.0
C1866 C 0.95793 0.54366 0.83473 0.0
C1867 C 0.97492 0.57527 0.83739 0.0
C1868 C 0.97465 0.5196 0.82698 0.0
C1869 C 1.00765 0.52782 0.82076 0.0
H1870 H 0.04894 0.56634 0.81857 0.0
H1871 H 0.96242 0.59404 0.84371 0.0
C1872 C 0.06602 0.68234 0.94159 0.0
N1873 N 0.08566 0.67996 0.91777 0.0
C1874 C 0.07284 0.66932 0.97205 0.0
C1875 C 0.12286 0.65727 0.95474 0.0
C1876 C 0.11571 0.67172 0.92536 0.0
C1877 C 0.09995 0.65411 0.97723 0.0
H1878 H 0.04261 0.68983 0.93529 0.0
H1879 H 0.13203 0.67253 0.90685 0.0
C1880 C 1.01048 0.62368 0.77103 0.0
N1881 N 0.96518 0.5808 0.72543 0.0
C1882 C 1.02155 0.6069 0.74598 0.0
C1883 C 0.97633 0.61878 0.77274 0.0
C1884 C 0.99827 0.5853 0.72319 0.0
C1885 C 0.95384 0.59697 0.74951 0.0
C1886 C 0.09429 0.7246 0.85975 0.0
C1887 C 0.07954 0.74455 0.87832 0.0
C1888 C 0.12901 0.72849 0.8642 0.0
C1889 C 0.09991 0.76811 0.90133 0.0
C1890 C 0.14851 0.75233 0.88744 0.0
N1891 N 0.13368 0.77147 0.90537 0.0
C1892 C 0.97026 0.70456 0.82628 0.0
C1893 C 0.9845 0.69673 0.7723 0.0
C1894 C 0.93827 0.70742 0.81241 0.0
N1895 N 0.9921 0.69822 0.80617 0.0
C1896 C 0.95271 0.69944 0.75731 0.0
C1897 C 0.92869 0.70352 0.77751 0.0
H1898 H 0.97689 0.70515 0.8531 0.0
H1899 H 1.00199 0.69059 0.75694 0.0
C1900 C 0.11015 0.62211 0.78461 0.0
N1901 N 0.11152 0.65365 0.79037 0.0
C1902 C 0.12935 0.61135 0.76309 0.0
C1903 C 0.15198 0.66597 0.75382 0.0
C1904 C 0.13241 0.6758 0.77627 0.0
C1905 C 0.14994 0.63321 0.74648 0.0
H1906 H 0.09284 0.60514 0.79577 0.0
H1907 H 0.13294 0.70081 0.78137 0.0
O1908 O 1.01491 0.65561 0.86482 0.0
O1909 O 0.07826 0.63084 0.85359 0.0
O1910 O 1.03292 0.64465 0.79388 0.0
O1911 O 0.0748 0.70124 0.8374 0.0
H1912 H 0.04245 0.6155 0.90114 0.0
H1913 H 0.96011 0.66313 0.88849 0.0
H1914 H 1.01954 0.58861 0.94791 0.0
H1915 H 0.93891 0.63599 0.93617 0.0
H1916 H 0.18638 0.62017 0.87628 0.0
H1917 H 0.06829 0.57735 0.88483 0.0
H1918 H 0.14335 0.64881 0.85236 0.0
H1919 H 0.11271 0.55061 0.90876 0.0
H1920 H 0.93247 0.53804 0.83976 0.0
H1921 H 1.0211 0.50975 0.81438 0.0
H1922 H 0.05483 0.66745 0.98922 0.0
H1923 H 0.14447 0.64643 0.95848 0.0
H1924 H 0.04781 0.61058 0.744 0.0
H1925 H 0.96731 0.63136 0.79214 0.0
H1926 H 1.0065 0.57213 0.7037 0.0
H1927 H 0.92738 0.59282 0.7507 0.0
H1928 H 0.05265 0.74172 0.87511 0.0
H1929 H 0.14071 0.71312 0.84998 0.0
H1930 H 0.08888 0.78369 0.91599 0.0
H1931 H 0.17543 0.75559 0.89125 0.0
H1932 H 0.92087 0.71158 0.8289 0.0
H1933 H 0.94642 0.6964 0.73034 0.0
H1934 H 0.12587 0.58591 0.75761 0.0
H1935 H 0.16731 0.68358 0.74131 0.0
Li1936 Li 0.8588 0.39453 0.58412 0.0
Li1937 Li 0.83684 0.43814 0.55454 0.0
Li1938 Li 0.85005 0.39595 0.51387 0.0
Li1939 Li 0.89433 0.43567 0.55279 0.0
C1940 C 0.78425 0.39169 0.54962 0.0
N1941 N 0.71863 0.39495 0.55196 0.0
C1942 C 0.77226 0.39112 0.58017 0.0
C1943 C 0.76301 0.39414 0.52029 0.0
C1944 C 0.73894 0.39264 0.58081 0.0
C1945 C 0.72989 0.39581 0.52201 0.0
C1946 C 0.87988 0.4695 0.61212 0.0
C1947 C 0.89539 0.52683 0.61738 0.0
N1948 N 0.89238 0.52687 0.65034 0.0
C1949 C 0.87685 0.47014 0.64606 0.0
C1950 C 0.88913 0.4981 0.59767 0.0
C1951 C 0.8833 0.49936 0.66495 0.0
C1952 C 0.87873 0.38518 0.65508 0.0
N1953 N 0.8564 0.37166 0.62753 0.0
C1954 C 0.82881 0.33398 0.66264 0.0
C1955 C 0.83184 0.34612 0.63101 0.0
C1956 C 0.85074 0.34836 0.69171 0.0
C1957 C 0.87612 0.37427 0.68717 0.0
H1958 H 0.89826 0.40531 0.65247 0.0
H1959 H 0.81383 0.33553 0.60941 0.0
C1960 C 0.79341 0.48066 0.53251 0.0
N1961 N 0.8073 0.46771 0.55954 0.0
C1962 C 0.77631 0.50532 0.53666 0.0
C1963 C 0.78748 0.50254 0.59629 0.0
C1964 C 0.80336 0.47734 0.59092 0.0
C1965 C 0.77367 0.51719 0.56901 0.0
H1966 H 0.79626 0.47234 0.50768 0.0
H1967 H 0.81329 0.466 0.61205 0.0
C1968 C 0.92228 0.38753 0.55016 0.0
N1969 N 0.99037 0.39248 0.55451 0.0
C1970 C 0.93698 0.38825 0.52114 0.0
C1971 C 0.9421 0.38909 0.58134 0.0
C1972 C 0.97152 0.39094 0.5239 0.0
C1973 C 0.97649 0.39152 0.58301 0.0
C1974 C 0.86981 0.46497 0.49384 0.0
C1975 C 0.88061 0.45585 0.46434 0.0
C1976 C 0.8679 0.49673 0.50032 0.0
C1977 C 0.88955 0.4786 0.44205 0.0
C1978 C 0.87703 0.51878 0.4774 0.0
N1979 N 0.88757 0.50934 0.44898 0.0
C1980 C 0.82165 0.3899 0.44179 0.0
C1981 C 0.84883 0.34808 0.45562 0.0
C1982 C 0.81673 0.37961 0.40734 0.0
N1983 N 0.83819 0.37469 0.46549 0.0
C1984 C 0.84356 0.33647 0.42145 0.0
C1985 C 0.82782 0.35252 0.39632 0.0
H1986 H 0.81331 0.41106 0.44939 0.0
H1987 H 0.86228 0.33613 0.4741 0.0
C1988 C 0.95748 0.47831 0.5835 0.0
N1989 N 0.93927 0.46305 0.55441 0.0
C1990 C 0.98671 0.50151 0.58316 0.0
C1991 C 0.97916 0.49155 0.52329 0.0
C1992 C 0.95051 0.46846 0.52486 0.0
C1993 C 0.99739 0.50908 0.55258 0.0
H1994 H 0.94894 0.47318 0.60702 0.0
H1995 H 0.93711 0.45504 0.50225 0.0
O1996 O 0.8168 0.39031 0.54852 0.0
O1997 O 0.87333 0.44111 0.59307 0.0
O1998 O 0.88889 0.38686 0.54823 0.0
O1999 O 0.86012 0.44273 0.51554 0.0
H2000 H 0.78854 0.38961 0.60314 0.0
H2001 H 0.77206 0.39486 0.4965 0.0
H2002 H 0.72923 0.39203 0.60423 0.0
H2003 H 0.71313 0.39776 0.49954 0.0
H2004 H 0.90271 0.5491 0.60647 0.0
H2005 H 0.86903 0.44839 0.65763 0.0
H2006 H 0.89184 0.49806 0.5716 0.0
H2007 H 0.88095 0.50018 0.6912 0.0
H2008 H 0.80861 0.31413 0.66442 0.0
H2009 H 0.89384 0.38634 0.70838 0.0
H2010 H 0.76538 0.51498 0.51465 0.0
H2011 H 0.78647 0.51061 0.62175 0.0
H2012 H 0.92197 0.38743 0.49684 0.0
H2013 H 0.93107 0.38884 0.60402 0.0
H2014 H 0.98341 0.39215 0.50178 0.0
H2015 H 0.99218 0.3929 0.60698 0.0
H2016 H 0.88285 0.43156 0.45906 0.0
H2017 H 0.85919 0.50435 0.52264 0.0
H2018 H 0.89815 0.47184 0.41929 0.0
H2019 H 0.87561 0.54339 0.48215 0.0
H2020 H 0.80457 0.39308 0.3894 0.0
H2021 H 0.85301 0.3157 0.41467 0.0
H2022 H 1.00029 0.51385 0.60647 0.0
H2023 H 0.9869 0.49558 0.49916 0.0
Li2024 Li 0.70081 0.61192 0.40624 0.0
Li2025 Li 0.73404 0.6494 0.37513 0.0
Li2026 Li 0.68219 0.61532 0.34938 0.0
Li2027 Li 0.73469 0.59298 0.36599 0.0
C2028 C 0.68887 0.67338 0.40849 0.0
N2029 N 0.69075 0.72311 0.4551 0.0
C2030 C 0.71704 0.68397 0.43272 0.0
C2031 C 0.66164 0.68821 0.40789 0.0
C2032 C 0.71748 0.70902 0.45614 0.0
C2033 C 0.66313 0.71336 0.43164 0.0
C2034 C 0.78036 0.62918 0.42871 0.0
C2035 C 0.8405 0.63859 0.43702 0.0
N2036 N 0.84115 0.64555 0.47023 0.0
C2037 C 0.7816 0.63614 0.46297 0.0
C2038 C 0.81 0.6301 0.41566 0.0
C2039 C 0.81258 0.64448 0.48353 0.0
C2040 C 0.68786 0.58216 0.46619 0.0
N2041 N 0.67738 0.60032 0.44212 0.0
C2042 C 0.62207 0.58977 0.45594 0.0
C2043 C 0.64534 0.60451 0.43687 0.0
C2044 C 0.63188 0.57045 0.48066 0.0
C2045 C 0.66537 0.56696 0.48592 0.0
H2046 H 0.71308 0.57817 0.46889 0.0
H2047 H 0.63732 0.61789 0.41652 0.0
C2048 C 0.74066 0.71207 0.35667 0.0
N2049 N 0.75923 0.69114 0.3688 0.0
C2050 C 0.75548 0.73937 0.34271 0.0
C2051 C 0.80856 0.72373 0.35458 0.0
C2052 C 0.79275 0.69684 0.3686 0.0
C2053 C 0.78974 0.74506 0.34066 0.0
H2054 H 0.71387 0.70654 0.35575 0.0
H2055 H 0.80693 0.67952 0.37711 0.0
C2056 C 0.67557 0.54988 0.38675 0.0
N2057 N 0.65262 0.49817 0.42117 0.0
C2058 C 0.69791 0.5328 0.40253 0.0
C2059 C 0.64151 0.54062 0.38852 0.0
C2060 C 0.68584 0.50673 0.41977 0.0
C2061 C 0.63041 0.51443 0.40604 0.0
C2062 C 0.74492 0.63911 0.31155 0.0
C2063 C 0.73244 0.65996 0.29023 0.0
C2064 C 0.77782 0.63543 0.31215 0.0
C2065 C 0.75328 0.67718 0.27024 0.0
C2066 C 0.79784 0.65301 0.29171 0.0
N2067 N 0.78528 0.67339 0.27141 0.0
C2068 C 0.63993 0.64052 0.30644 0.0
C2069 C 0.62142 0.58517 0.31005 0.0
C2070 C 0.61422 0.64052 0.28052 0.0
N2071 N 0.64394 0.61283 0.31919 0.0
C2072 C 0.59443 0.58425 0.285 0.0
C2073 C 0.59185 0.61174 0.26831 0.0
H2074 H 0.65789 0.66226 0.31523 0.0
H2075 H 0.62526 0.5636 0.32103 0.0
C2076 C 0.78388 0.5539 0.37319 0.0
N2077 N 0.75917 0.56286 0.3524 0.0
C2078 C 0.80148 0.53224 0.36131 0.0
C2079 C 0.76753 0.52922 0.3071 0.0
C2080 C 0.75075 0.55099 0.31996 0.0
C2081 C 0.79329 0.51957 0.32784 0.0
H2082 H 0.78976 0.56335 0.39903 0.0
H2083 H 0.73103 0.55866 0.30403 0.0
O2084 O 0.68806 0.64922 0.38486 0.0
O2085 O 0.75013 0.62 0.40849 0.0
O2086 O 0.6871 0.5759 0.37032 0.0
O2087 O 0.72515 0.62259 0.33191 0.0
H2088 H 0.73857 0.67337 0.43319 0.0
H2089 H 0.6397 0.68048 0.38913 0.0
H2090 H 0.73918 0.71742 0.47499 0.0
H2091 H 0.64247 0.72529 0.43138 0.0
H2092 H 0.86365 0.63952 0.42722 0.0
H2093 H 0.75883 0.63497 0.47359 0.0
H2094 H 0.80947 0.62427 0.3893 0.0
H2095 H 0.8139 0.64998 0.51008 0.0
H2096 H 0.59675 0.59355 0.45137 0.0
H2097 H 0.67404 0.55246 0.50497 0.0
H2098 H 0.73992 0.75507 0.33229 0.0
H2099 H 0.83507 0.72716 0.35368 0.0
H2100 H 0.72437 0.5399 0.402 0.0
H2101 H 0.62386 0.55389 0.37713 0.0
H2102 H 0.70291 0.49343 0.43224 0.0
H2103 H 0.60417 0.50719 0.40782 0.0
H2104 H 0.70707 0.66309 0.28936 0.0
H2105 H 0.78797 0.61949 0.32851 0.0
H2106 H 0.74404 0.69362 0.25387 0.0
H2107 H 0.82341 0.65055 0.29211 0.0
H2108 H 0.61376 0.66245 0.26873 0.0
H2109 H 0.57737 0.56175 0.27711 0.0
H2110 H 0.82081 0.52503 0.37827 0.0
H2111 H 0.76062 0.52025 0.28109 0.0
Tb2112 Tb 0.04952 0.0601 0.04075 0.0
Eu2113 Eu 0.13102 0.1017 0.06759 0.0
C2114 C 0.10822 0.05305 1.00609 0.0
C2115 C 0.10083 0.03428 0.09619 0.0
C2116 C 0.96187 0.06296 0.02805 0.0
C2117 C 0.94363 0.1092 1.00526 0.0
C2118 C 0.96332 0.08619 1.00478 0.0
C2119 C 0.9392 0.06245 0.05085 0.0
C2120 C 0.91936 0.08533 0.05121 0.0
C2121 C 0.92178 0.10942 0.02886 0.0
C2122 C 0.98706 0.04255 0.03211 0.0
O2123 O 0.06016 0.10481 0.07061 0.0
O2124 O 0.10344 0.11004 0.11074 0.0
O2125 O 0.10592 0.13367 0.03383 0.0
O2126 O 0.05317 0.10238 1.01378 0.0
C2127 C 0.07115 0.10702 0.1023 0.0
O2128 O 0.17943 0.12001 0.09903 0.0
O2129 O 0.17587 0.11643 0.04504 0.0
O2130 O 0.12113 0.05519 0.03735 0.0
O2131 O 0.07596 0.0513 0.99945 0.0
O2132 O 0.07279 0.02873 0.07423 0.0
O2133 O 0.12427 0.06014 0.09804 0.0
C2134 C 0.07639 0.12838 1.01457 0.0
O2135 O 1.00486 0.04073 1.00809 0.0
O2136 O 1.00558 0.04641 0.06145 0.0
C2137 C 0.21988 0.0973 0.07462 0.0
C2138 C 0.25626 0.04827 0.06855 0.0
C2139 C 0.23849 0.05069 0.09544 0.0
C2140 C 0.22043 0.07466 0.09833 0.0
C2141 C 0.23882 0.09595 0.04856 0.0
C2142 C 0.25665 0.07167 0.04543 0.0
C2143 C 0.19557 0.11859 0.07356 0.0
H2144 H 0.94575 0.12702 0.9873 0.0
H2145 H 0.98049 0.08729 0.98683 0.0
H2146 H 0.93778 0.04509 0.06933 0.0
H2147 H 0.90298 0.08482 0.06984 0.0
H2148 H 0.23736 0.03342 0.11379 0.0
H2149 H 0.20583 0.07459 0.1185 0.0
H2150 H 0.23866 0.11296 0.02977 0.0
H2151 H 0.27047 0.07111 0.02471 0.0
Tb2152 Tb 0.36839 0.84674 0.3052 0.0
Eu2153 Eu 0.30428 0.79247 0.27382 0.0
C2154 C 0.30123 0.86663 0.27723 0.0
C2155 C 0.32511 0.80629 0.3545 0.0
C2156 C 0.43447 0.92037 0.32893 0.0
C2157 C 0.42957 0.97357 0.3154 0.0
C2158 C 0.41495 0.94153 0.31629 0.0
C2159 C 0.46866 0.93124 0.33994 0.0
C2160 C 0.48333 0.96307 0.33869 0.0
C2161 C 0.46387 0.98455 0.32674 0.0
C2162 C 0.41972 0.88699 0.33122 0.0
O2163 O 0.38612 0.80382 0.29213 0.0
O2164 O 0.34115 0.76643 0.29945 0.0
O2165 O 0.32993 0.80931 0.2291 0.0
O2166 O 0.36228 0.85717 0.25216 0.0
C2167 C 0.37319 0.77516 0.29964 0.0
O2168 O 0.28328 0.74936 0.24069 0.0
O2169 O 0.25126 0.77302 0.26674 0.0
O2170 O 0.29066 0.83854 0.26123 0.0
O2171 O 0.32775 0.87295 0.30045 0.0
O2172 O 0.3548 0.82046 0.34846 0.0
O2173 O 0.29983 0.7986 0.32962 0.0
C2174 C 0.34823 0.83757 0.2256 0.0
O2175 O 0.39211 0.8812 0.34395 0.0
O2176 O 0.41859 0.86794 0.30492 0.0
C2177 C 0.23215 0.71805 0.25102 0.0
C2178 C 0.18827 0.65992 0.2548 0.0
C2179 C 0.20587 0.66468 0.22763 0.0
C2180 C 0.2274 0.69357 0.22566 0.0
C2181 C 0.21503 0.71328 0.27853 0.0
C2182 C 0.19323 0.68439 0.28039 0.0
C2183 C 0.25298 0.74892 0.24675 0.0
H2184 H 0.41416 0.98974 0.30587 0.0
H2185 H 0.38847 0.93334 0.30747 0.0
H2186 H 0.48404 0.91525 0.34988 0.0
H2187 H 0.50975 0.97105 0.34787 0.0
H2188 H 0.2031 0.64602 0.20787 0.0
H2189 H 0.24015 0.6969 0.20411 0.0
H2190 H 0.2181 0.73194 0.29835 0.0
H2191 H 0.17995 0.68136 0.30158 0.0
Tb2192 Tb 0.56524 0.05388 0.51322 0.0
Eu2193 Eu 0.60011 0.09986 0.57622 0.0
C2194 C 0.56346 0.0303 0.58377 0.0
C2195 C 0.52334 0.1069 0.54381 0.0
C2196 C 0.53079 0.97877 0.46392 0.0
C2197 C 0.53248 0.92871 0.4886 0.0
C2198 C 0.532 0.96097 0.49206 0.0
C2199 C 0.52989 0.96381 0.43225 0.0
C2200 C 0.53058 0.9315 0.42879 0.0
C2201 C 0.53214 0.91376 0.45701 0.0
C2202 C 0.53245 1.01318 0.46791 0.0
O2203 O 0.59029 0.09461 0.49047 0.0
O2204 O 0.59962 0.13221 0.53455 0.0
O2205 O 0.6405 0.06873 0.56759 0.0
O2206 O 0.61497 0.03769 0.52005 0.0
C2207 C 0.59844 0.12428 0.50289 0.0
O2208 O 0.64432 0.13346 0.60114 0.0
O2209 O 0.60291 0.11817 0.62797 0.0
O2210 O 0.56612 0.05971 0.59498 0.0
O2211 O 0.5704 0.02391 0.55422 0.0
O2212 O 0.52444 0.08168 0.52318 0.0
O2213 O 0.55069 0.1189 0.56564 0.0
C2214 C 0.64164 0.04614 0.544 0.0
O2215 O 0.52016 0.02291 0.4935 0.0
O2216 O 0.5611 0.03123 0.46511 0.0
C2217 C 0.62843 0.17212 0.63438 0.0
C2218 C 0.62163 0.235 0.64743 0.0
C2219 C 0.61621 0.22139 0.61445 0.0
C2220 C 0.61947 0.1902 0.608 0.0
C2221 C 0.63347 0.18542 0.66736 0.0
C2222 C 0.63025 0.21674 0.67388 0.0
C2223 C 0.63039 0.13893 0.6272 0.0
H2224 H 0.53391 0.91563 0.51073 0.0
H2225 H 0.533 0.97202 0.51686 0.0
H2226 H 0.52914 0.97722 0.41035 0.0
H2227 H 0.52985 0.92037 0.40407 0.0
H2228 H 0.60914 0.23477 0.59366 0.0
H2229 H 0.61478 0.18014 0.58235 0.0
H2230 H 0.63964 0.17159 0.68798 0.0
H2231 H 0.63491 0.22679 0.69956 0.0
Tb2232 Tb 0.3014 0.32881 0.77949 0.0
Eu2233 Eu 0.37097 0.31622 0.81344 0.0
C2234 C 0.36747 0.3779 0.77173 0.0
C2235 C 0.34473 0.29292 0.73206 0.0
C2236 C 0.21229 0.32349 0.76677 0.0
C2237 C 0.18564 0.30815 0.81453 0.0
C2238 C 0.21341 0.32309 0.80145 0.0
C2239 C 0.18271 0.30977 0.74532 0.0
C2240 C 0.15474 0.29476 0.75846 0.0
C2241 C 0.15636 0.29313 0.79316 0.0
C2242 C 0.24347 0.33203 0.75333 0.0
O2243 O 0.28899 0.29246 0.8143 0.0
O2244 O 0.33521 0.27091 0.818 0.0
O2245 O 0.34945 0.33743 0.85806 0.0
O2246 O 0.30668 0.35655 0.82995 0.0
C2247 C 0.30456 0.26972 0.82315 0.0
O2248 O 0.41497 0.29491 0.81587 0.0
O2249 O 0.4087 0.32454 0.85796 0.0
O2250 O 0.38444 0.36441 0.7945 0.0
O2251 O 0.33571 0.36657 0.76075 0.0
O2252 O 0.31586 0.29984 0.73769 0.0
O2253 O 0.37034 0.29948 0.75707 0.0
C2254 C 0.32584 0.35429 0.85882 0.0
O2255 O 0.26527 0.35652 0.76857 0.0
O2256 O 0.25701 0.30776 0.74822 0.0
C2257 C 0.46252 0.32933 0.84512 0.0
C2258 C 0.52562 0.36232 0.83524 0.0
C2259 C 0.52216 0.33315 0.85009 0.0
C2260 C 0.49068 0.31659 0.85468 0.0
C2261 C 0.46633 0.35976 0.83348 0.0
C2262 C 0.49758 0.37613 0.82848 0.0
C2263 C 0.429 0.31017 0.8445 0.0
H2264 H 0.18726 0.30791 0.84142 0.0
H2265 H 0.23625 0.33303 0.8184 0.0
H2266 H 0.18178 0.30931 0.71845 0.0
H2267 H 0.13237 0.28341 0.74153 0.0
H2268 H 0.54344 0.3222 0.85617 0.0
H2269 H 0.48813 0.29327 0.86416 0.0
H2270 H 0.44484 0.37015 0.82653 0.0
H2271 H 0.49911 0.39835 0.81678 0.0
Tb2272 Tb 0.08088 0.05821 0.51095 0.0
Eu2273 Eu 0.08516 0.09228 0.57849 0.0
C2274 C 0.15445 0.10192 0.5445 0.0
C2275 C 0.08378 1.01308 0.57638 0.0
C2276 C 0.09503 0.03898 0.42588 0.0
C2277 C 0.09021 0.02654 0.3666 0.0
C2278 C 0.09091 1.0165 0.39875 0.0
C2279 C 0.104 0.07153 0.42149 0.0
C2280 C 0.1027 0.08158 0.38932 0.0
C2281 C 0.09261 0.05899 0.36176 0.0
C2282 C 0.0824 0.02901 0.45621 0.0
O2283 O 1.02626 0.04417 0.5171 0.0
O2284 O 1.02958 0.06582 0.56993 0.0
O2285 O 0.08499 0.13524 0.54429 0.0
O2286 O 0.07837 0.10832 0.49354 0.0
C2287 C 1.01138 0.04828 0.54358 0.0
O2288 O 0.06111 0.12185 0.60829 0.0
O2289 O 0.10879 0.11071 0.62856 0.0
O2290 O 0.14102 0.10626 0.57169 0.0
O2291 O 0.13496 0.08439 0.51856 0.0
O2292 O 0.08212 1.01595 0.54348 0.0
O2293 O 0.08659 0.04014 0.59535 0.0
C2294 C 0.08225 0.13643 0.5113 0.0
O2295 O 0.10473 0.03018 0.48256 0.0
O2296 O 0.05727 0.04121 0.46267 0.0
C2297 C 0.07138 0.11552 0.66568 0.0
C2298 C 0.07236 0.10819 0.73352 0.0
C2299 C 0.0642 0.1357 0.7201 0.0
C2300 C 0.06459 0.13967 0.68626 0.0
C2301 C 0.07197 0.08562 0.67753 0.0
C2302 C 0.07257 0.08194 0.71143 0.0
C2303 C 0.08366 0.12323 0.63455 0.0
H2304 H 0.0825 1.00869 0.34564 0.0
H2305 H 0.08438 0.9913 0.40197 0.0
H2306 H 0.10786 0.08911 0.44249 0.0
H2307 H 0.10482 0.10669 0.386 0.0
H2308 H 0.06205 0.15576 0.73622 0.0
H2309 H 0.0629 0.16257 0.677 0.0
H2310 H 0.07601 0.06631 0.66146 0.0
H2311 H 0.07793 0.05996 0.72037 0.0
Tb2312 Tb 0.32042 0.79133 0.79868 0.0
Eu2313 Eu 0.34373 0.8639 0.7876 0.0
C2314 C 0.3245 0.84376 0.85929 0.0
C2315 C 0.26288 0.83024 0.76977 0.0
C2316 C 0.31395 0.70553 0.78988 0.0
C2317 C 0.31404 0.64925 0.7847 0.0
C2318 C 0.30142 0.67445 0.7973 0.0
C2319 C 0.33822 0.71114 0.76876 0.0
C2320 C 0.35086 0.68606 0.75621 0.0
C2321 C 0.33941 0.65491 0.7646 0.0
C2322 C 0.30276 0.7324 0.80482 0.0
O2323 O 0.32305 0.7897 0.74468 0.0
O2324 O 0.3512 0.83984 0.73812 0.0
O2325 O 0.39231 0.85022 0.81372 0.0
O2326 O 0.37666 0.79621 0.80587 0.0
C2327 C 0.3367 0.81072 0.72545 0.0
O2328 O 0.34527 0.90515 0.75812 0.0
O2329 O 0.37215 0.91083 0.80839 0.0
O2330 O 0.32281 0.86468 0.83686 0.0
O2331 O 0.32652 0.81458 0.84982 0.0
O2332 O 0.27069 0.80614 0.78652 0.0
O2333 O 0.2873 0.85425 0.76608 0.0
C2334 C 0.40034 0.82202 0.81653 0.0
O2335 O 0.32534 0.75173 0.82584 0.0
O2336 O 0.28672 0.74787 0.78382 0.0
C2337 C 0.34368 0.95094 0.79229 0.0
C2338 C 0.31048 0.99675 0.81604 0.0
C2339 C 0.29273 0.97054 0.79433 0.0
C2340 C 0.3091 0.9478 0.78272 0.0
C2341 C 0.36161 0.97739 0.81346 0.0
C2342 C 0.34514 1.00007 0.82533 0.0
C2343 C 0.36042 0.9252 0.78334 0.0
H2344 H 0.30449 0.62545 0.79128 0.0
H2345 H 0.28248 0.66977 0.81337 0.0
H2346 H 0.34812 0.73508 0.76278 0.0
H2347 H 0.3707 0.69134 0.74126 0.0
H2348 H 0.26594 0.96708 0.78711 0.0
H2349 H 0.29446 0.92733 0.76695 0.0
H2350 H 0.38821 0.98009 0.82145 0.0
H2351 H 0.3595 1.02015 0.84183 0.0
Tb2352 Tb 0.60043 0.06884 0.07594 0.0
Eu2353 Eu 0.56896 0.08363 1.00549 0.0
C2354 C 0.59242 1.0131 1.01116 0.0
C2355 C 0.64361 0.11443 0.03253 0.0
C2356 C 0.65198 0.08411 0.15756 0.0
C2357 C 0.66503 0.09365 0.21757 0.0
C2358 C 0.66157 0.07347 0.18872 0.0
C2359 C 0.65117 0.11641 0.15505 0.0
C2360 C 0.65391 0.13641 0.18393 0.0
C2361 C 0.65765 0.12411 0.21529 0.0
C2362 C 0.63457 0.06086 0.13002 0.0
O2363 O 0.58695 0.11651 0.09063 0.0
O2364 O 0.5657 0.12954 0.03923 0.0
O2365 O 0.52997 0.04534 0.02119 0.0
O2366 O 0.54882 0.04489 0.07679 0.0
C2367 C 0.57486 0.13788 0.07203 0.0
O2368 O 0.57188 0.10505 0.95813 0.0
O2369 O 0.52388 0.0816 0.96917 0.0
O2370 O 0.5803 0.03339 0.99149 0.0
O2371 O 0.60214 0.02324 0.0437 0.0
O2372 O 0.63418 0.1099 0.06162 0.0
O2373 O 0.62445 0.09958 1.0057 0.0
C2374 C 0.52613 0.03484 0.05042 0.0
O2375 O 0.60218 0.0578 0.12568 0.0
O2376 O 0.64636 0.063 0.10184 0.0
C2377 C 0.53816 0.06663 0.91755 0.0
C2378 C 0.53373 1.01186 0.87459 0.0
C2379 C 0.50454 1.02122 0.88152 0.0
C2380 C 0.50676 0.0483 0.90318 0.0
C2381 C 0.56709 0.0578 0.90929 0.0
C2382 C 0.56488 0.03081 0.88839 0.0
C2383 C 0.54143 0.09064 0.94576 0.0
H2384 H 0.66859 0.08391 0.24164 0.0
H2385 H 0.66263 0.04871 0.19105 0.0
H2386 H 0.64443 0.12517 0.13103 0.0
H2387 H 0.64847 0.15987 0.18148 0.0
H2388 H 0.48018 1.00735 0.87073 0.0
H2389 H 0.48407 0.05432 0.90956 0.0
H2390 H 0.59179 0.07105 0.91987 0.0
H2391 H 0.58792 0.02519 0.88261 0.0
Tb2392 Tb 0.34662 0.356 0.30954 0.0
Eu2393 Eu 0.31504 0.29213 0.27191 0.0
C2394 C 0.34565 0.29448 0.35462 0.0
C2395 C 0.39683 0.3232 0.26879 0.0
C2396 C 0.33873 0.43422 0.32554 0.0
C2397 C 0.28418 0.44481 0.33166 0.0
C2398 C 0.31421 0.43715 0.34556 0.0
C2399 C 0.33448 0.44363 0.2927 0.0
C2400 C 0.30439 0.45102 0.27873 0.0
C2401 C 0.27818 0.44991 0.29753 0.0
C2402 C 0.36156 0.41238 0.33451 0.0
O2403 O 0.33248 0.37104 0.25701 0.0
O2404 O 0.30418 0.32465 0.22863 0.0
O2405 O 0.26736 0.30211 0.29257 0.0
O2406 O 0.29315 0.34887 0.32191 0.0
C2407 C 0.31677 0.3555 0.22804 0.0
O2408 O 0.31046 0.2589 0.22799 0.0
O2409 O 0.28704 0.24299 0.26979 0.0
O2410 O 0.33086 0.27748 0.32625 0.0
O2411 O 0.35678 0.32557 0.35271 0.0
O2412 O 0.39386 0.3459 0.29134 0.0
O2413 O 0.37002 0.30008 0.25951 0.0
C2414 C 0.26576 0.32568 0.31442 0.0
O2415 O 0.34945 0.38871 0.35086 0.0
O2416 O 0.37558 0.40241 0.31045 0.0
C2417 C 0.32504 0.21401 0.25163 0.0
C2418 C 0.38797 0.20108 0.27638 0.0
C2419 C 0.38003 0.20643 0.24251 0.0
C2420 C 0.34885 0.21281 0.23025 0.0
C2421 C 0.33151 0.2046 0.2842 0.0
C2422 C 0.36272 0.19882 0.29659 0.0
C2423 C 0.30052 0.23457 0.24452 0.0
H2424 H 0.265 0.44508 0.34724 0.0
H2425 H 0.31682 0.43045 0.37106 0.0
H2426 H 0.35297 0.44211 0.27659 0.0
H2427 H 0.30091 0.45519 0.25247 0.0
H2428 H 0.39837 0.20715 0.22582 0.0
H2429 H 0.3446 0.21972 0.20493 0.0
H2430 H 0.31379 0.20497 0.30143 0.0
H2431 H 0.36755 0.19482 0.3228 0.0
Tb2432 Tb 0.58252 0.55963 1.01173 0.0
Eu2433 Eu 0.58604 0.59334 0.07928 0.0
C2434 C 0.65571 0.60364 0.04621 0.0
C2435 C 0.58454 0.514 0.07677 0.0
C2436 C 0.60198 0.54695 0.92883 0.0
C2437 C 0.60884 0.59416 0.89848 0.0
C2438 C 0.61027 0.58023 0.92876 0.0
C2439 C 0.6001 0.52797 0.89941 0.0
C2440 C 0.60026 0.54206 0.86924 0.0
C2441 C 0.5999 0.57462 0.8686 0.0
C2442 C 0.58734 0.53306 0.95676 0.0
O2443 O 0.52788 0.54436 0.01716 0.0
O2444 O 0.53029 0.56722 0.06937 0.0
O2445 O 0.58682 0.63664 0.04545 0.0
O2446 O 0.57829 0.60951 0.9947 0.0
C2447 C 0.51254 0.54905 0.04318 0.0
O2448 O 0.56129 0.6225 0.10877 0.0
O2449 O 0.60883 0.61147 0.12965 0.0
O2450 O 0.64213 0.60772 0.07334 0.0
O2451 O 0.63636 0.58627 0.02016 0.0
O2452 O 0.58295 0.51696 0.04386 0.0
O2453 O 0.58745 0.54105 0.09583 0.0
C2454 C 0.58306 0.63772 1.01244 0.0
O2455 O 0.60821 0.53296 0.98397 0.0
O2456 O 0.56083 0.54325 0.96265 0.0
C2457 C 0.57093 0.61622 0.16626 0.0
C2458 C 0.57258 0.6093 0.23422 0.0
C2459 C 0.56424 0.63673 0.22073 0.0
C2460 C 0.56432 0.6405 0.18682 0.0
C2461 C 0.57146 0.58635 0.17822 0.0
C2462 C 0.57236 0.58287 0.21218 0.0
C2463 C 0.58354 0.62391 0.13528 0.0
H2464 H 0.60918 0.6194 0.89849 0.0
H2465 H 0.61313 0.59524 0.9516 0.0
H2466 H 0.59451 0.50226 0.8992 0.0
H2467 H 0.59437 0.52675 0.84633 0.0
H2468 H 0.56232 0.65689 0.23684 0.0
H2469 H 0.56268 0.66338 0.17749 0.0
H2470 H 0.57535 0.56696 0.16217 0.0
H2471 H 0.57776 0.56092 0.22117 0.0
Tb2472 Tb 0.82055 0.28949 0.29868 0.0
Eu2473 Eu 0.84355 0.36228 0.28707 0.0
C2474 C 0.82522 0.34237 0.35923 0.0
C2475 C 0.76272 0.32861 0.26946 0.0
C2476 C 0.81506 0.20296 0.29235 0.0
C2477 C 0.84689 0.1617 0.30215 0.0
C2478 C 0.83197 0.18532 0.31442 0.0
C2479 C 0.8119 0.19543 0.25768 0.0
C2480 C 0.82653 0.17152 0.24541 0.0
C2481 C 0.84485 0.15503 0.26755 0.0
C2482 C 0.8036 0.2307 0.3058 0.0
O2483 O 0.82544 0.2868 0.24522 0.0
O2484 O 0.8501 0.33786 0.2373 0.0
O2485 O 0.89235 0.3488 0.31283 0.0
O2486 O 0.87676 0.29469 0.30627 0.0
C2487 C 0.83768 0.30805 0.22546 0.0
O2488 O 0.84478 0.40336 0.25734 0.0
O2489 O 0.87204 0.40932 0.30745 0.0
O2490 O 0.82346 0.36329 0.33679 0.0
O2491 O 0.82692 0.3131 0.34971 0.0
O2492 O 0.77064 0.30394 0.28519 0.0
O2493 O 0.787 0.35303 0.26659 0.0
C2494 C 0.90039 0.32067 0.31629 0.0
O2495 O 0.82562 0.25052 0.3269 0.0
O2496 O 0.7872 0.24568 0.28448 0.0
C2497 C 0.84347 0.44937 0.29128 0.0
C2498 C 0.81082 0.49579 0.31476 0.0
C2499 C 0.79256 0.46873 0.2946 0.0
C2500 C 0.80867 0.44569 0.28313 0.0
C2501 C 0.86187 0.4766 0.31094 0.0
C2502 C 0.84568 0.49959 0.32267 0.0
C2503 C 0.86013 0.42355 0.28237 0.0
H2504 H 0.86057 0.14901 0.31972 0.0
H2505 H 0.83464 0.19059 0.3412 0.0
H2506 H 0.79909 0.20864 0.23996 0.0
H2507 H 0.82475 0.16689 0.21863 0.0
H2508 H 0.76564 0.46488 0.28848 0.0
H2509 H 0.79372 0.42462 0.26857 0.0
H2510 H 0.88866 0.47973 0.31784 0.0
H2511 H 0.86043 0.52031 0.33795 0.0
Tb2512 Tb 0.10175 0.56832 0.57583 0.0
Eu2513 Eu 0.07037 0.58282 0.50535 0.0
C2514 C 0.09363 0.51236 0.51121 0.0
C2515 C 0.14505 0.61438 0.5327 0.0
C2516 C 0.15364 0.58252 0.65756 0.0
C2517 C 0.17135 0.59083 0.71723 0.0
C2518 C 0.16608 0.5714 0.68755 0.0
C2519 C 0.15156 0.61462 0.65663 0.0
C2520 C 0.15583 0.63374 0.68636 0.0
C2521 C 0.16259 0.62085 0.71712 0.0
C2522 C 0.13562 0.55974 0.62986 0.0
O2523 O 0.08865 0.61626 0.59019 0.0
O2524 O 0.06638 0.62864 0.53886 0.0
O2525 O 1.03164 0.54412 0.52096 0.0
O2526 O 0.04991 0.54498 0.57681 0.0
C2527 C 0.07602 0.63732 0.57156 0.0
O2528 O 0.07389 0.60362 0.45779 0.0
O2529 O 1.02562 0.5806 0.46851 0.0
O2530 O 0.082 0.53277 0.49143 0.0
O2531 O 0.10299 0.52242 0.54379 0.0
O2532 O 0.136 0.60933 0.56189 0.0
O2533 O 0.12583 0.59959 0.50587 0.0
C2534 C 1.0275 0.53424 0.55038 0.0
O2535 O 0.10332 0.55742 0.62559 0.0
O2536 O 0.14741 0.56178 0.60167 0.0
C2537 C 0.04085 0.56454 0.41745 0.0
C2538 C 0.04028 0.50936 0.37653 0.0
C2539 C 1.0105 0.51488 0.38629 0.0
C2540 C 1.01085 0.54215 0.4069 0.0
C2541 C 0.07009 0.55959 0.40604 0.0
C2542 C 0.06987 0.5323 0.38629 0.0
C2543 C 0.04357 0.58902 0.44519 0.0
H2544 H 0.17781 0.58073 0.7406 0.0
H2545 H 0.16841 0.54682 0.68857 0.0
H2546 H 0.14283 0.62382 0.63343 0.0
H2547 H 0.14942 0.6569 0.68521 0.0
H2548 H 0.98722 0.49787 0.37857 0.0
H2549 H 0.98797 0.54516 0.41555 0.0
H2550 H 0.09371 0.57621 0.41336 0.0
H2551 H 0.09302 0.52962 0.37799 0.0
Tb2552 Tb 0.79859 0.8308 0.27959 0.0
Eu2553 Eu 0.86977 0.82134 0.31207 0.0
C2554 C 0.86211 0.88032 0.26593 0.0
C2555 C 0.84412 0.79656 0.23169 0.0
C2556 C 0.70874 0.81816 0.2684 0.0
C2557 C 0.68385 0.80096 0.31671 0.0
C2558 C 0.71094 0.81671 0.30308 0.0
C2559 C 0.67888 0.80421 0.24749 0.0
C2560 C 0.65158 0.78844 0.26118 0.0
C2561 C 0.6541 0.78621 0.29589 0.0
C2562 C 0.73914 0.82913 0.25418 0.0
O2563 O 0.78877 0.79447 0.31488 0.0
O2564 O 0.83632 0.77514 0.31838 0.0
O2565 O 0.84814 0.84191 0.35687 0.0
O2566 O 0.80241 0.85753 0.33026 0.0
C2567 C 0.80555 0.77258 0.3236 0.0
O2568 O 0.90979 0.79563 0.32426 0.0
O2569 O 0.91272 0.84205 0.3493 0.0
O2570 O 0.88174 0.86392 0.28237 0.0
O2571 O 0.82948 0.87268 0.26359 0.0
O2572 O 0.81564 0.80495 0.23677 0.0
O2573 O 0.8693 0.80172 0.25705 0.0
C2574 C 0.82307 0.85671 0.35851 0.0
O2575 O 0.75925 0.85488 0.26893 0.0
O2576 O 0.75504 0.80661 0.24882 0.0
C2577 C 0.96301 0.82996 0.33915 0.0
C2578 C 1.02678 0.85725 0.32611 0.0
C2579 C 1.0164 0.86659 0.35577 0.0
C2580 C 0.98472 0.85276 0.36239 0.0
C2581 C 0.97376 0.82019 0.30983 0.0
C2582 C 1.0054 0.83369 0.30342 0.0
C2583 C 0.92834 0.8192 0.34428 0.0
H2584 H 0.68625 0.80026 0.34361 0.0
H2585 H 0.734 0.82684 0.3196 0.0
H2586 H 0.67711 0.80454 0.2206 0.0
H2587 H 0.62889 0.77726 0.24462 0.0
H2588 H 1.03251 0.88479 0.37346 0.0
H2589 H 0.97669 0.86068 0.3851 0.0
H2590 H 0.9574 0.80299 0.29127 0.0
H2591 H 1.01265 0.82659 0.27998 0.0
Tb2592 Tb 0.8643 0.3475 0.80607 0.0
Eu2593 Eu 0.80223 0.29126 0.77362 0.0
C2594 C 0.79603 0.36471 0.77667 0.0
C2595 C 0.82227 0.3044 0.85481 0.0
C2596 C 0.92887 0.42217 0.83135 0.0
C2597 C 0.92649 0.47353 0.81036 0.0
C2598 C 0.91171 0.44159 0.81189 0.0
C2599 C 0.96073 0.43471 0.84905 0.0
C2600 C 0.97569 0.4663 0.84699 0.0
C2601 C 0.9587 0.48598 0.82778 0.0
C2602 C 0.91423 0.38878 0.83348 0.0
O2603 O 0.88384 0.30575 0.79278 0.0
O2604 O 0.84011 0.26669 0.7996 0.0
O2605 O 0.8289 0.30901 0.72981 0.0
O2606 O 0.85905 0.35776 0.75298 0.0
C2607 C 0.872 0.27672 0.79998 0.0
O2608 O 0.78369 0.24824 0.73998 0.0
O2609 O 0.74952 0.26991 0.76506 0.0
O2610 O 0.78636 0.33637 0.76112 0.0
O2611 O 0.82252 0.37217 0.79987 0.0
O2612 O 0.85119 0.32092 0.84925 0.0
O2613 O 0.7975 0.29495 0.82962 0.0
C2614 C 0.84638 0.33768 0.72643 0.0
O2615 O 0.88581 0.38285 0.84469 0.0
O2616 O 0.91449 0.36965 0.80766 0.0
C2617 C 0.73417 0.21492 0.75013 0.0
C2618 C 0.69594 0.15494 0.75762 0.0
C2619 C 0.7012 0.16409 0.72571 0.0
C2620 C 0.72 0.19397 0.722 0.0
C2621 C 0.72949 0.20581 0.78214 0.0
C2622 C 0.71039 0.17595 0.78586 0.0
C2623 C 0.75293 0.24637 0.74521 0.0
H2624 H 0.91303 0.48839 0.79536 0.0
H2625 H 0.88701 0.43207 0.79807 0.0
H2626 H 0.97406 0.42019 0.86462 0.0
H2627 H 1.00037 0.47555 0.86082 0.0
H2628 H 0.69108 0.148 0.70362 0.0
H2629 H 0.72349 0.20073 0.69715 0.0
H2630 H 0.74039 0.22179 0.80414 0.0
H2631 H 0.70673 0.16939 0.81072 0.0
Tb2632 Tb 0.84827 0.85462 0.81088 0.0
Eu2633 Eu 0.81545 0.79134 0.77338 0.0
C2634 C 0.84604 0.79448 0.85641 0.0
C2635 C 0.89744 0.8226 0.76909 0.0
C2636 C 0.83952 0.93228 0.8246 0.0
C2637 C 0.78469 0.94208 0.83058 0.0
C2638 C 0.81597 0.93742 0.84493 0.0
C2639 C 0.83312 0.93717 0.79044 0.0
C2640 C 0.80161 0.94082 0.77593 0.0
C2641 C 0.77625 0.94136 0.79557 0.0
C2642 C 0.86249 0.91107 0.83533 0.0
O2643 O 0.83496 0.86918 0.75787 0.0
O2644 O 0.80363 0.82363 0.73028 0.0
O2645 O 0.7674 0.80188 0.79253 0.0
O2646 O 0.79492 0.84679 0.82431 0.0
C2647 C 0.81764 0.85408 0.72928 0.0
O2648 O 0.80287 0.75798 0.72846 0.0
O2649 O 0.79738 0.74044 0.77634 0.0
O2650 O 0.82708 0.77851 0.8292 0.0
O2651 O 0.8613 0.82424 0.85304 0.0
O2652 O 0.89542 0.84431 0.79307 0.0
O2653 O 0.8699 0.80044 0.75897 0.0
C2654 C 0.76663 0.82476 0.81557 0.0
O2655 O 0.84958 0.8876 0.85153 0.0
O2656 O 0.87783 0.90089 0.81247 0.0
C2657 C 0.82932 0.71565 0.74438 0.0
C2658 C 0.89372 0.7036 0.76274 0.0
C2659 C 0.88688 0.72046 0.73473 0.0
C2660 C 0.85495 0.72651 0.72563 0.0
C2661 C 0.83503 0.6947 0.76902 0.0
C2662 C 0.867 0.68897 0.77833 0.0
C2663 C 0.80233 0.73349 0.74614 0.0
H2664 H 0.76657 0.94437 0.84689 0.0
H2665 H 0.82032 0.93436 0.87145 0.0
H2666 H 0.85101 0.9343 0.77405 0.0
H2667 H 0.79671 0.94069 0.749 0.0
H2668 H 0.90677 0.73121 0.7216 0.0
H2669 H 0.85141 0.74233 0.7061 0.0
H2670 H 0.81572 0.68555 0.78361 0.0
H2671 H 0.87122 0.67466 0.79913 0.0
Tb2672 Tb 0.54933 0.5614 0.54125 0.0
Eu2673 Eu 0.63059 0.5965 0.56992 0.0
C2674 C 0.60898 0.55744 0.50381 0.0
C2675 C 0.5986 0.52575 0.58797 0.0
C2676 C 0.46427 0.56787 0.52557 0.0
C2677 C 0.42161 0.59503 0.50029 0.0
C2678 C 0.44037 0.57126 0.49848 0.0
C2679 C 0.46876 0.5886 0.55455 0.0
C2680 C 0.45041 0.61245 0.55626 0.0
C2681 C 0.4266 0.61625 0.52914 0.0
C2682 C 0.48763 0.54608 0.52242 0.0
O2683 O 0.55385 0.59879 0.58025 0.0
O2684 O 0.60219 0.5978 0.61383 0.0
O2685 O 0.60793 0.6283 0.53389 0.0
O2686 O 0.55365 0.61201 0.54126 0.0
C2687 C 0.57035 0.59879 0.61001 0.0
O2688 O 0.67673 0.6122 0.60561 0.0
O2689 O 0.6777 0.61514 0.55255 0.0
O2690 O 0.62263 0.55433 0.53382 0.0
O2691 O 0.57819 0.56171 0.49977 0.0
O2692 O 0.56794 0.52676 0.57366 0.0
O2693 O 0.62511 0.54716 0.58472 0.0
C2694 C 0.57648 0.63096 0.52843 0.0
O2695 O 0.50888 0.55399 0.50175 0.0
O2696 O 0.50221 0.53788 0.55048 0.0
C2697 C 0.71958 0.59277 0.58199 0.0
C2698 C 0.75624 0.54413 0.57428 0.0
C2699 C 0.73843 0.54566 0.60132 0.0
C2700 C 0.72036 0.56952 0.60507 0.0
C2701 C 0.73863 0.59233 0.55591 0.0
C2702 C 0.75669 0.56837 0.55208 0.0
C2703 C 0.69518 0.61399 0.58174 0.0
H2704 H 0.4032 0.59672 0.47902 0.0
H2705 H 0.43668 0.55593 0.47567 0.0
H2706 H 0.48727 0.58706 0.57574 0.0
H2707 H 0.45571 0.62845 0.5787 0.0
H2708 H 0.73729 0.52783 0.61917 0.0
H2709 H 0.70593 0.56893 0.62541 0.0
H2710 H 0.7385 0.60984 0.53762 0.0
H2711 H 0.77072 0.56875 0.53145 0.0
Tb2712 Tb 0.06879 0.55959 1.0121 0.0
Eu2713 Eu 0.10495 0.60634 0.07423 0.0
C2714 C 0.06687 0.53676 0.08364 0.0
C2715 C 1.02694 0.61218 0.04332 0.0
C2716 C 0.03559 0.48586 0.96076 0.0
C2717 C 1.03409 0.43497 0.98447 0.0
C2718 C 1.03326 0.46712 0.9881 0.0
C2719 C 0.03896 0.47199 0.92982 0.0
C2720 C 0.0396 0.43969 0.92609 0.0
C2721 C 0.03735 0.42091 0.95348 0.0
C2722 C 0.03712 0.52022 0.9652 0.0
O2723 O 0.09549 0.60024 0.99019 0.0
O2724 O 0.09921 0.63795 0.03264 0.0
O2725 O 0.14546 0.5757 0.06396 0.0
O2726 O 0.11692 0.5408 0.02039 0.0
C2727 C 0.10001 0.63003 1.00147 0.0
O2728 O 0.14923 0.64157 0.09591 0.0
O2729 O 0.1107 0.62562 0.12608 0.0
O2730 O 0.07331 0.56645 0.09546 0.0
O2731 O 0.07035 0.52899 0.05306 0.0
O2732 O 1.02824 0.58774 0.02176 0.0
O2733 O 0.05418 0.6236 0.06563 0.0
C2734 C 0.14492 0.55088 0.04232 0.0
O2735 O 1.0238 0.52957 0.99024 0.0
O2736 O 0.06605 0.53833 0.96363 0.0
C2737 C 0.13524 0.67994 0.13127 0.0
C2738 C 0.12901 0.74273 0.14627 0.0
C2739 C 0.12115 0.72919 0.1132 0.0
C2740 C 0.12407 0.698 0.10579 0.0
C2741 C 0.14298 0.69328 0.16433 0.0
C2742 C 0.13994 0.72451 0.17182 0.0
C2743 C 0.13728 0.64685 0.12333 0.0
H2744 H 1.03278 0.42125 1.0061 0.0
H2745 H 1.03131 0.47736 1.0125 0.0
H2746 H 0.04162 0.48629 0.90876 0.0
H2747 H 0.0417 0.4294 0.90175 0.0
H2748 H 0.11236 0.74259 0.09313 0.0
H2749 H 0.11743 0.68794 0.08013 0.0
H2750 H 0.15118 0.67954 0.18429 0.0
H2751 H 0.14654 0.73452 0.19751 0.0
loop_
_geom_bond_atom_site_label_1
_geom_bond_atom_site_label_2
_geom_bond_distance
_geom_bond_site_symmetry_2
_ccdc_geom_bond_type
Li0 N17 1.990 1_455 S
Li0 O60 1.956 . S
Li0 O61 1.970 . S
Li0 O62 1.961 . S
Li1 N25 1.990 . S
Li1 O60 1.970 . S
Li1 O61 1.956 . S
Li1 O63 1.961 . S
Li2 N47 1.990 . S
Li2 O60 1.961 . S
Li2 O62 1.956 . S
Li2 O63 1.970 . S
Li3 N53 1.990 . S
Li3 O61 1.961 . S
Li3 O62 1.970 . S
Li3 O63 1.956 . S
C4 C6 1.348 . S
C4 C7 1.356 . S
C4 O60 1.325 . S
N5 C8 1.314 . S
N5 C9 1.279 . S
C6 C4 1.348 . S
C6 C8 1.353 . S
C6 H64 0.929 . S
C7 C4 1.356 . S
C7 C9 1.358 . S
C7 H65 0.930 . S
C8 N5 1.314 . S
C8 C6 1.353 . S
C8 H66 0.930 . S
C9 N5 1.279 . S
C9 C7 1.358 . S
C9 H67 0.930 . S
C10 C13 1.348 . S
C10 C14 1.356 1_655 S
C10 O61 1.325 1_655 S
C11 N12 1.279 . S
C11 C14 1.358 1_655 S
C11 H68 0.930 . S
N12 C11 1.279 . S
N12 C15 1.314 . S
C13 C10 1.348 . S
C13 C15 1.353 . S
C13 H69 0.929 . S
C14 C10 1.356 1_455 S
C14 C11 1.358 1_455 S
C14 H70 0.930 . S
C15 N12 1.314 . S
C15 C13 1.353 . S
C15 H71 0.930 . S
C16 N17 1.314 . S
C16 C21 1.353 . S
C16 H22 0.930 . S
N17 Li0 1.990 1_655 S
N17 C16 1.314 . S
N17 C19 1.279 . S
C18 C19 1.358 . S
C18 C20 1.356 . S
C18 H72 0.930 . S
C19 N17 1.279 . S
C19 C18 1.358 . S
C19 H23 0.930 . S
C20 C18 1.356 . S
C20 C21 1.348 . S
C21 C16 1.353 . S
C21 C20 1.348 . S
C21 H73 0.929 . S
H22 C16 0.930 . S
H23 C19 0.930 . S
C24 N25 1.314 . S
C24 C26 1.353 . S
C24 H30 0.930 . S
N25 Li1 1.990 . S
N25 C24 1.314 . S
N25 C28 1.279 . S
C26 C24 1.353 . S
C26 C29 1.348 . S
C26 H74 0.929 . S
C27 C28 1.358 . S
C27 C29 1.356 . S
C27 H75 0.930 . S
C28 N25 1.279 . S
C28 C27 1.358 . S
C28 H31 0.930 . S
C29 C26 1.348 . S
C29 C27 1.356 . S
H30 C24 0.930 . S
H31 C28 0.930 . S
C32 C34 1.348 . S
C32 C35 1.356 . S
C32 O62 1.325 . S
N33 C36 1.314 . S
N33 C37 1.279 . S
C34 C32 1.348 . S
C34 C36 1.353 . S
C34 H76 0.929 . S
C35 C32 1.356 . S
C35 C37 1.358 . S
C35 H77 0.930 . S
C36 N33 1.314 . S
C36 C34 1.353 . S
C36 H78 0.930 . S
C37 N33 1.279 . S
C37 C35 1.358 . S
C37 H79 0.930 . S
C38 C39 1.348 . S
C38 C40 1.356 . S
C38 O63 1.325 . S
C39 C38 1.348 . S
C39 C41 1.353 . S
C39 H80 0.929 . S
C40 C38 1.356 . S
C40 C42 1.358 . S
C40 H81 0.930 . S
C41 C39 1.353 . S
C41 N43 1.314 . S
C41 H82 0.930 . S
C42 C40 1.358 . S
C42 N43 1.279 . S
C42 H83 0.930 . S
N43 C41 1.314 . S
N43 C42 1.279 . S
C44 C46 1.353 . S
C44 N47 1.314 . S
C44 H50 0.930 . S
C45 N47 1.279 . S
C45 C48 1.358 . S
C45 H51 0.930 . S
C46 C44 1.353 . S
C46 C49 1.348 . S
C46 H84 0.929 . S
N47 Li2 1.990 . S
N47 C44 1.314 . S
N47 C45 1.279 . S
C48 C45 1.358 . S
C48 C49 1.356 . S
C48 H85 0.930 . S
C49 C46 1.348 . S
C49 C48 1.356 . S
H50 C44 0.930 . S
H51 C45 0.930 . S
C52 N53 1.314 . S
C52 C54 1.353 . S
C52 H58 0.930 . S
N53 Li3 1.990 . S
N53 C52 1.314 . S
N53 C56 1.279 . S
C54 C52 1.353 . S
C54 C57 1.348 . S
C54 H86 0.929 . S
C55 C56 1.358 . S
C55 C57 1.356 . S
C55 H87 0.930 . S
C56 N53 1.279 . S
C56 C55 1.358 . S
C56 H59 0.930 . S
C57 C54 1.348 . S
C57 C55 1.356 . S
H58 C52 0.930 . S
H59 C56 0.930 . S
O60 Li0 1.956 . S
O60 Li1 1.970 . S
O60 Li2 1.961 . S
O60 C4 1.325 . S
O61 Li0 1.970 . S
O61 Li1 1.956 . S
O61 Li3 1.961 . S
O61 C10 1.325 1_455 S
O62 Li0 1.961 . S
O62 Li2 1.956 . S
O62 Li3 1.970 . S
O62 C32 1.325 . S
O63 Li1 1.961 . S
O63 Li2 1.970 . S
O63 Li3 1.956 . S
O63 C38 1.325 . S
H64 C6 0.929 . S
H65 C7 0.930 . S
H66 C8 0.930 . S
H67 C9 0.930 . S
H68 C11 0.930 . S
H69 C13 0.929 . S
H70 C14 0.930 . S
H71 C15 0.930 . S
H72 C18 0.930 . S
H73 C21 0.929 . S
H74 C26 0.929 . S
H75 C27 0.930 . S
H76 C34 0.929 . S
H77 C35 0.930 . S
H78 C36 0.930 . S
H79 C37 0.930 . S
H80 C39 0.929 . S
H81 C40 0.930 . S
H82 C41 0.930 . S
H83 C42 0.930 . S
H84 C46 0.929 . S
H85 C48 0.930 . S
H86 C54 0.929 . S
H87 C55 0.930 . S
Li88 N105 1.990 . S
Li88 O148 1.956 . S
Li88 O149 1.970 . S
Li88 O150 1.961 . S
Li89 N113 1.990 . S
Li89 O148 1.970 . S
Li89 O149 1.956 . S
Li89 O151 1.961 . S
Li90 N135 1.990 . S
Li90 O148 1.961 . S
Li90 O150 1.956 . S
Li90 O151 1.970 . S
Li91 N141 1.990 1_455 S
Li91 O149 1.961 . S
Li91 O150 1.970 . S
Li91 O151 1.956 . S
C92 C94 1.348 . S
C92 C95 1.356 . S
C92 O148 1.325 . S
N93 C96 1.314 . S
N93 C97 1.279 . S
C94 C92 1.348 . S
C94 C96 1.353 . S
C94 H152 0.929 . S
C95 C92 1.356 . S
C95 C97 1.358 . S
C95 H153 0.930 . S
C96 N93 1.314 . S
C96 C94 1.353 . S
C96 H154 0.930 . S
C97 N93 1.279 . S
C97 C95 1.358 . S
C97 H155 0.930 . S
C98 C101 1.348 . S
C98 C102 1.356 . S
C98 O149 1.325 . S
C99 N100 1.279 . S
C99 C102 1.358 . S
C99 H156 0.930 . S
N100 C99 1.279 . S
N100 C103 1.314 . S
C101 C98 1.348 . S
C101 C103 1.353 . S
C101 H157 0.929 . S
C102 C98 1.356 . S
C102 C99 1.358 . S
C102 H158 0.930 . S
C103 N100 1.314 . S
C103 C101 1.353 . S
C103 H159 0.930 . S
C104 N105 1.314 . S
C104 C109 1.353 . S
C104 H110 0.930 . S
N105 Li88 1.990 . S
N105 C104 1.314 . S
N105 C107 1.279 . S
C106 C107 1.358 . S
C106 C108 1.356 . S
C106 H160 0.930 . S
C107 N105 1.279 . S
C107 C106 1.358 . S
C107 H111 0.930 . S
C108 C106 1.356 . S
C108 C109 1.348 . S
C109 C104 1.353 . S
C109 C108 1.348 . S
C109 H161 0.929 . S
H110 C104 0.930 . S
H111 C107 0.930 . S
C112 N113 1.314 . S
C112 C114 1.353 . S
C112 H118 0.930 . S
N113 Li89 1.990 . S
N113 C112 1.314 . S
N113 C116 1.279 . S
C114 C112 1.353 . S
C114 C117 1.348 . S
C114 H162 0.929 . S
C115 C116 1.358 . S
C115 C117 1.356 . S
C115 H163 0.930 . S
C116 N113 1.279 . S
C116 C115 1.358 . S
C116 H119 0.930 . S
C117 C114 1.348 . S
C117 C115 1.356 . S
H118 C112 0.930 . S
H119 C116 0.930 . S
C120 C122 1.348 . S
C120 C123 1.356 . S
C120 O150 1.325 1_655 S
N121 C124 1.314 . S
N121 C125 1.279 . S
C122 C120 1.348 . S
C122 C124 1.353 . S
C122 H164 0.929 . S
C123 C120 1.356 . S
C123 C125 1.358 . S
C123 H165 0.930 . S
C124 N121 1.314 . S
C124 C122 1.353 . S
C124 H166 0.930 . S
C125 N121 1.279 . S
C125 C123 1.358 . S
C125 H167 0.930 . S
C126 C127 1.348 . S
C126 C128 1.356 . S
C126 O151 1.325 . S
C127 C126 1.348 . S
C127 C129 1.353 . S
C127 H168 0.929 . S
C128 C126 1.356 . S
C128 C130 1.358 . S
C128 H169 0.930 . S
C129 C127 1.353 . S
C129 N131 1.314 . S
C129 H170 0.930 . S
C130 C128 1.358 . S
C130 N131 1.279 . S
C130 H171 0.930 . S
N131 C129 1.314 . S
N131 C130 1.279 . S
C132 C134 1.353 . S
C132 N135 1.314 . S
C132 H138 0.930 . S
C133 N135 1.279 . S
C133 C136 1.358 1_455 S
C133 H139 0.930 1_455 S
C134 C132 1.353 . S
C134 C137 1.348 . S
C134 H172 0.929 . S
N135 Li90 1.990 . S
N135 C132 1.314 . S
N135 C133 1.279 . S
C136 C133 1.358 1_655 S
C136 C137 1.356 1_655 S
C136 H173 0.930 . S
C137 C134 1.348 . S
C137 C136 1.356 1_455 S
H138 C132 0.930 . S
H139 C133 0.930 1_655 S
C140 N141 1.314 . S
C140 C142 1.353 . S
C140 H146 0.930 . S
N141 Li91 1.990 1_655 S
N141 C140 1.314 . S
N141 C144 1.279 . S
C142 C140 1.353 . S
C142 C145 1.348 . S
C142 H174 0.929 . S
C143 C144 1.358 . S
C143 C145 1.356 . S
C143 H175 0.930 . S
C144 N141 1.279 . S
C144 C143 1.358 . S
C144 H147 0.930 . S
C145 C142 1.348 . S
C145 C143 1.356 . S
H146 C140 0.930 . S
H147 C144 0.930 . S
O148 Li88 1.956 . S
O148 Li89 1.970 . S
O148 Li90 1.961 . S
O148 C92 1.325 . S
O149 Li88 1.970 . S
O149 Li89 1.956 . S
O149 Li91 1.961 . S
O149 C98 1.325 . S
O150 Li88 1.961 . S
O150 Li90 1.956 . S
O150 Li91 1.970 . S
O150 C120 1.325 1_455 S
O151 Li89 1.961 . S
O151 Li90 1.970 . S
O151 Li91 1.956 . S
O151 C126 1.325 . S
H152 C94 0.929 . S
H153 C95 0.930 . S
H154 C96 0.930 . S
H155 C97 0.930 . S
H156 C99 0.930 . S
H157 C101 0.929 . S
H158 C102 0.930 . S
H159 C103 0.930 . S
H160 C106 0.930 . S
H161 C109 0.929 . S
H162 C114 0.929 . S
H163 C115 0.930 . S
H164 C122 0.929 . S
H165 C123 0.930 . S
H166 C124 0.930 . S
H167 C125 0.930 . S
H168 C127 0.929 . S
H169 C128 0.930 . S
H170 C129 0.930 . S
H171 C130 0.930 . S
H172 C134 0.929 . S
H173 C136 0.930 . S
H174 C142 0.929 . S
H175 C143 0.930 . S
Li176 N193 1.990 . S
Li176 O236 1.956 . S
Li176 O237 1.970 . S
Li176 O238 1.961 . S
Li177 N201 1.990 . S
Li177 O236 1.970 . S
Li177 O237 1.956 . S
Li177 O239 1.961 . S
Li178 N223 1.990 . S
Li178 O236 1.961 . S
Li178 O238 1.956 . S
Li178 O239 1.970 . S
Li179 N229 1.990 . S
Li179 O237 1.961 . S
Li179 O238 1.970 . S
Li179 O239 1.956 . S
C180 C182 1.348 . S
C180 C183 1.356 . S
C180 O236 1.325 . S
N181 C184 1.314 . S
N181 C185 1.279 . S
C182 C180 1.348 . S
C182 C184 1.353 . S
C182 H240 0.929 . S
C183 C180 1.356 . S
C183 C185 1.358 . S
C183 H241 0.930 . S
C184 N181 1.314 . S
C184 C182 1.353 . S
C184 H242 0.930 . S
C185 N181 1.279 . S
C185 C183 1.358 . S
C185 H243 0.930 . S
C186 C189 1.348 . S
C186 C190 1.356 . S
C186 O237 1.325 . S
C187 N188 1.279 . S
C187 C190 1.358 . S
C187 H244 0.930 1_556 S
N188 C187 1.279 . S
N188 C191 1.314 . S
C189 C186 1.348 . S
C189 C191 1.353 . S
C189 H245 0.929 . S
C190 C186 1.356 . S
C190 C187 1.358 . S
C190 H246 0.930 . S
C191 N188 1.314 . S
C191 C189 1.353 . S
C191 H247 0.930 . S
C192 N193 1.314 . S
C192 C197 1.353 . S
C192 H198 0.930 . S
N193 Li176 1.990 . S
N193 C192 1.314 . S
N193 C195 1.279 . S
C194 C195 1.358 . S
C194 C196 1.356 . S
C194 H248 0.930 . S
C195 N193 1.279 . S
C195 C194 1.358 . S
C195 H199 0.930 . S
C196 C194 1.356 . S
C196 C197 1.348 . S
C197 C192 1.353 . S
C197 C196 1.348 . S
C197 H249 0.929 . S
H198 C192 0.930 . S
H199 C195 0.930 . S
C200 N201 1.314 . S
C200 C202 1.353 . S
C200 H206 0.930 . S
N201 Li177 1.990 . S
N201 C200 1.314 . S
N201 C204 1.279 . S
C202 C200 1.353 . S
C202 C205 1.348 . S
C202 H250 0.929 . S
C203 C204 1.358 . S
C203 C205 1.356 . S
C203 H251 0.930 . S
C204 N201 1.279 . S
C204 C203 1.358 . S
C204 H207 0.930 . S
C205 C202 1.348 . S
C205 C203 1.356 . S
H206 C200 0.930 . S
H207 C204 0.930 . S
C208 C210 1.348 . S
C208 C211 1.356 . S
C208 O238 1.325 . S
N209 C212 1.314 . S
N209 C213 1.279 . S
C210 C208 1.348 . S
C210 C212 1.353 . S
C210 H252 0.929 . S
C211 C208 1.356 . S
C211 C213 1.358 . S
C211 H253 0.930 . S
C212 N209 1.314 . S
C212 C210 1.353 . S
C212 H254 0.930 . S
C213 N209 1.279 . S
C213 C211 1.358 . S
C213 H255 0.930 . S
C214 C215 1.348 . S
C214 C216 1.356 . S
C214 O239 1.325 . S
C215 C214 1.348 . S
C215 C217 1.353 . S
C215 H256 0.929 . S
C216 C214 1.356 . S
C216 C218 1.358 . S
C216 H257 0.930 . S
C217 C215 1.353 . S
C217 N219 1.314 . S
C217 H258 0.930 . S
C218 C216 1.358 . S
C218 N219 1.279 . S
C218 H259 0.930 1_556 S
N219 C217 1.314 . S
N219 C218 1.279 . S
C220 C222 1.353 . S
C220 N223 1.314 . S
C220 H226 0.930 . S
C221 N223 1.279 . S
C221 C224 1.358 . S
C221 H227 0.930 . S
C222 C220 1.353 . S
C222 C225 1.348 . S
C222 H260 0.929 . S
N223 Li178 1.990 . S
N223 C220 1.314 . S
N223 C221 1.279 . S
C224 C221 1.358 . S
C224 C225 1.356 . S
C224 H261 0.930 . S
C225 C222 1.348 . S
C225 C224 1.356 . S
H226 C220 0.930 . S
H227 C221 0.930 . S
C228 N229 1.314 . S
C228 C230 1.353 . S
C228 H234 0.930 . S
N229 Li179 1.990 . S
N229 C228 1.314 . S
N229 C232 1.279 . S
C230 C228 1.353 . S
C230 C233 1.348 . S
C230 H262 0.929 . S
C231 C232 1.358 . S
C231 C233 1.356 . S
C231 H263 0.930 . S
C232 N229 1.279 . S
C232 C231 1.358 . S
C232 H235 0.930 . S
C233 C230 1.348 . S
C233 C231 1.356 . S
H234 C228 0.930 . S
H235 C232 0.930 . S
O236 Li176 1.956 . S
O236 Li177 1.970 . S
O236 Li178 1.961 . S
O236 C180 1.325 . S
O237 Li176 1.970 . S
O237 Li177 1.956 . S
O237 Li179 1.961 . S
O237 C186 1.325 . S
O238 Li176 1.961 . S
O238 Li178 1.956 . S
O238 Li179 1.970 . S
O238 C208 1.325 . S
O239 Li177 1.961 . S
O239 Li178 1.970 . S
O239 Li179 1.956 . S
O239 C214 1.325 . S
H240 C182 0.929 . S
H241 C183 0.930 . S
H242 C184 0.930 . S
H243 C185 0.930 . S
H244 C187 0.930 1_554 S
H245 C189 0.929 . S
H246 C190 0.930 . S
H247 C191 0.930 . S
H248 C194 0.930 . S
H249 C197 0.929 . S
H250 C202 0.929 . S
H251 C203 0.930 . S
H252 C210 0.929 . S
H253 C211 0.930 . S
H254 C212 0.930 . S
H255 C213 0.930 . S
H256 C215 0.929 . S
H257 C216 0.930 . S
H258 C217 0.930 . S
H259 C218 0.930 1_554 S
H260 C222 0.929 . S
H261 C224 0.930 . S
H262 C230 0.929 . S
H263 C231 0.930 . S
Li264 N281 1.990 . S
Li264 O324 1.956 . S
Li264 O325 1.970 . S
Li264 O326 1.961 . S
Li265 N289 1.990 . S
Li265 O324 1.970 . S
Li265 O325 1.956 . S
Li265 O327 1.961 . S
Li266 N311 1.990 . S
Li266 O324 1.961 . S
Li266 O326 1.956 . S
Li266 O327 1.970 . S
Li267 N317 1.990 . S
Li267 O325 1.961 . S
Li267 O326 1.970 . S
Li267 O327 1.956 . S
C268 C270 1.348 . S
C268 C271 1.356 . S
C268 O324 1.325 . S
N269 C272 1.314 . S
N269 C273 1.279 . S
C270 C268 1.348 . S
C270 C272 1.353 . S
C270 H328 0.929 . S
C271 C268 1.356 . S
C271 C273 1.358 . S
C271 H329 0.930 . S
C272 N269 1.314 . S
C272 C270 1.353 . S
C272 H330 0.930 . S
C273 N269 1.279 . S
C273 C271 1.358 . S
C273 H331 0.930 . S
C274 C277 1.348 . S
C274 C278 1.356 . S
C274 O325 1.325 . S
C275 N276 1.279 . S
C275 C278 1.358 . S
C275 H332 0.930 . S
N276 C275 1.279 . S
N276 C279 1.314 . S
C277 C274 1.348 . S
C277 C279 1.353 . S
C277 H333 0.929 . S
C278 C274 1.356 . S
C278 C275 1.358 . S
C278 H334 0.930 . S
C279 N276 1.314 . S
C279 C277 1.353 . S
C279 H335 0.930 . S
C280 N281 1.314 . S
C280 C285 1.353 . S
C280 H286 0.930 . S
N281 Li264 1.990 . S
N281 C280 1.314 . S
N281 C283 1.279 . S
C282 C283 1.358 . S
C282 C284 1.356 . S
C282 H336 0.930 . S
C283 N281 1.279 . S
C283 C282 1.358 . S
C283 H287 0.930 . S
C284 C282 1.356 . S
C284 C285 1.348 . S
C285 C280 1.353 . S
C285 C284 1.348 . S
C285 H337 0.929 . S
H286 C280 0.930 . S
H287 C283 0.930 . S
C288 N289 1.314 . S
C288 C290 1.353 . S
C288 H294 0.930 . S
N289 Li265 1.990 . S
N289 C288 1.314 . S
N289 C292 1.279 . S
C290 C288 1.353 . S
C290 C293 1.348 . S
C290 H338 0.929 . S
C291 C292 1.358 . S
C291 C293 1.356 . S
C291 H339 0.930 . S
C292 N289 1.279 . S
C292 C291 1.358 . S
C292 H295 0.930 . S
C293 C290 1.348 . S
C293 C291 1.356 . S
H294 C288 0.930 . S
H295 C292 0.930 . S
C296 C298 1.348 . S
C296 C299 1.356 . S
C296 O326 1.325 . S
N297 C300 1.314 . S
N297 C301 1.279 . S
C298 C296 1.348 . S
C298 C300 1.353 . S
C298 H340 0.929 . S
C299 C296 1.356 . S
C299 C301 1.358 . S
C299 H341 0.930 . S
C300 N297 1.314 . S
C300 C298 1.353 . S
C300 H342 0.930 . S
C301 N297 1.279 . S
C301 C299 1.358 . S
C301 H343 0.930 . S
C302 C303 1.348 . S
C302 C304 1.356 . S
C302 O327 1.325 . S
C303 C302 1.348 . S
C303 C305 1.353 . S
C303 H344 0.929 . S
C304 C302 1.356 . S
C304 C306 1.358 . S
C304 H345 0.930 . S
C305 C303 1.353 . S
C305 N307 1.314 . S
C305 H346 0.930 . S
C306 C304 1.358 . S
C306 N307 1.279 . S
C306 H347 0.930 . S
N307 C305 1.314 . S
N307 C306 1.279 . S
C308 C310 1.353 . S
C308 N311 1.314 . S
C308 H314 0.930 . S
C309 N311 1.279 . S
C309 C312 1.358 . S
C309 H315 0.930 . S
C310 C308 1.353 . S
C310 C313 1.348 . S
C310 H348 0.929 . S
N311 Li266 1.990 . S
N311 C308 1.314 . S
N311 C309 1.279 . S
C312 C309 1.358 . S
C312 C313 1.356 . S
C312 H349 0.930 . S
C313 C310 1.348 . S
C313 C312 1.356 . S
H314 C308 0.930 . S
H315 C309 0.930 . S
C316 N317 1.314 . S
C316 C318 1.353 . S
C316 H322 0.930 . S
N317 Li267 1.990 . S
N317 C316 1.314 . S
N317 C320 1.279 . S
C318 C316 1.353 . S
C318 C321 1.348 . S
C318 H350 0.929 . S
C319 C320 1.358 . S
C319 C321 1.356 . S
C319 H351 0.930 . S
C320 N317 1.279 . S
C320 C319 1.358 . S
C320 H323 0.930 . S
C321 C318 1.348 . S
C321 C319 1.356 . S
H322 C316 0.930 . S
H323 C320 0.930 . S
O324 Li264 1.956 . S
O324 Li265 1.970 . S
O324 Li266 1.961 . S
O324 C268 1.325 . S
O325 Li264 1.970 . S
O325 Li265 1.956 . S
O325 Li267 1.961 . S
O325 C274 1.325 . S
O326 Li264 1.961 . S
O326 Li266 1.956 . S
O326 Li267 1.970 . S
O326 C296 1.325 . S
O327 Li265 1.961 . S
O327 Li266 1.970 . S
O327 Li267 1.956 . S
O327 C302 1.325 . S
H328 C270 0.929 . S
H329 C271 0.930 . S
H330 C272 0.930 . S
H331 C273 0.930 . S
H332 C275 0.930 . S
H333 C277 0.929 . S
H334 C278 0.930 . S
H335 C279 0.930 . S
H336 C282 0.930 . S
H337 C285 0.929 . S
H338 C290 0.929 . S
H339 C291 0.930 . S
H340 C298 0.929 . S
H341 C299 0.930 . S
H342 C300 0.930 . S
H343 C301 0.930 . S
H344 C303 0.929 . S
H345 C304 0.930 . S
H346 C305 0.930 . S
H347 C306 0.930 . S
H348 C310 0.929 . S
H349 C312 0.930 . S
H350 C318 0.929 . S
H351 C319 0.930 . S
Li352 N369 1.990 . S
Li352 O412 1.956 . S
Li352 O413 1.970 . S
Li352 O414 1.961 . S
Li353 N377 1.990 . S
Li353 O412 1.970 . S
Li353 O413 1.956 . S
Li353 O415 1.961 . S
Li354 N399 1.990 . S
Li354 O412 1.961 . S
Li354 O414 1.956 . S
Li354 O415 1.970 . S
Li355 N405 1.990 . S
Li355 O413 1.961 . S
Li355 O414 1.970 . S
Li355 O415 1.956 . S
C356 C358 1.348 . S
C356 C359 1.356 . S
C356 O412 1.325 . S
N357 C360 1.314 . S
N357 C361 1.279 . S
C358 C356 1.348 . S
C358 C360 1.353 . S
C358 H416 0.929 . S
C359 C356 1.356 . S
C359 C361 1.358 . S
C359 H417 0.930 . S
C360 N357 1.314 . S
C360 C358 1.353 . S
C360 H418 0.930 . S
C361 N357 1.279 . S
C361 C359 1.358 . S
C361 H419 0.930 . S
C362 C365 1.348 . S
C362 C366 1.356 . S
C362 O413 1.325 . S
C363 N364 1.279 . S
C363 C366 1.358 . S
C363 H420 0.930 . S
N364 C363 1.279 . S
N364 C367 1.314 . S
C365 C362 1.348 . S
C365 C367 1.353 . S
C365 H421 0.929 . S
C366 C362 1.356 . S
C366 C363 1.358 . S
C366 H422 0.930 . S
C367 N364 1.314 . S
C367 C365 1.353 . S
C367 H423 0.930 1_565 S
C368 N369 1.314 . S
C368 C373 1.353 . S
C368 H374 0.930 . S
N369 Li352 1.990 . S
N369 C368 1.314 . S
N369 C371 1.279 . S
C370 C371 1.358 . S
C370 C372 1.356 1_565 S
C370 H424 0.930 . S
C371 N369 1.279 . S
C371 C370 1.358 . S
C371 H375 0.930 . S
C372 C370 1.356 1_545 S
C372 C373 1.348 1_545 S
C373 C368 1.353 . S
C373 C372 1.348 1_565 S
C373 H425 0.929 . S
H374 C368 0.930 . S
H375 C371 0.930 . S
C376 N377 1.314 . S
C376 C378 1.353 . S
C376 H382 0.930 . S
N377 Li353 1.990 . S
N377 C376 1.314 . S
N377 C380 1.279 . S
C378 C376 1.353 . S
C378 C381 1.348 . S
C378 H426 0.929 . S
C379 C380 1.358 . S
C379 C381 1.356 . S
C379 H427 0.930 . S
C380 N377 1.279 . S
C380 C379 1.358 . S
C380 H383 0.930 . S
C381 C378 1.348 . S
C381 C379 1.356 . S
H382 C376 0.930 . S
H383 C380 0.930 . S
C384 C386 1.348 . S
C384 C387 1.356 . S
C384 O414 1.325 . S
N385 C388 1.314 . S
N385 C389 1.279 . S
C386 C384 1.348 . S
C386 C388 1.353 . S
C386 H428 0.929 . S
C387 C384 1.356 . S
C387 C389 1.358 . S
C387 H429 0.930 . S
C388 N385 1.314 . S
C388 C386 1.353 . S
C388 H430 0.930 1_455 S
C389 N385 1.279 . S
C389 C387 1.358 . S
C389 H431 0.930 . S
C390 C391 1.348 . S
C390 C392 1.356 . S
C390 O415 1.325 . S
C391 C390 1.348 . S
C391 C393 1.353 . S
C391 H432 0.929 . S
C392 C390 1.356 . S
C392 C394 1.358 . S
C392 H433 0.930 . S
C393 C391 1.353 . S
C393 N395 1.314 . S
C393 H434 0.930 . S
C394 C392 1.358 . S
C394 N395 1.279 . S
C394 H435 0.930 . S
N395 C393 1.314 . S
N395 C394 1.279 . S
C396 C398 1.353 . S
C396 N399 1.314 . S
C396 H402 0.930 . S
C397 N399 1.279 . S
C397 C400 1.358 . S
C397 H403 0.930 . S
C398 C396 1.353 . S
C398 C401 1.348 . S
C398 H436 0.929 . S
N399 Li354 1.990 . S
N399 C396 1.314 . S
N399 C397 1.279 . S
C400 C397 1.358 . S
C400 C401 1.356 . S
C400 H437 0.930 . S
C401 C398 1.348 . S
C401 C400 1.356 . S
H402 C396 0.930 . S
H403 C397 0.930 . S
C404 N405 1.314 . S
C404 C406 1.353 . S
C404 H410 0.930 . S
N405 Li355 1.990 . S
N405 C404 1.314 . S
N405 C408 1.279 . S
C406 C404 1.353 . S
C406 C409 1.348 . S
C406 H438 0.929 . S
C407 C408 1.358 . S
C407 C409 1.356 . S
C407 H439 0.930 . S
C408 N405 1.279 . S
C408 C407 1.358 . S
C408 H411 0.930 . S
C409 C406 1.348 . S
C409 C407 1.356 . S
H410 C404 0.930 . S
H411 C408 0.930 . S
O412 Li352 1.956 . S
O412 Li353 1.970 . S
O412 Li354 1.961 . S
O412 C356 1.325 . S
O413 Li352 1.970 . S
O413 Li353 1.956 . S
O413 Li355 1.961 . S
O413 C362 1.325 . S
O414 Li352 1.961 . S
O414 Li354 1.956 . S
O414 Li355 1.970 . S
O414 C384 1.325 . S
O415 Li353 1.961 . S
O415 Li354 1.970 . S
O415 Li355 1.956 . S
O415 C390 1.325 . S
H416 C358 0.929 . S
H417 C359 0.930 . S
H418 C360 0.930 . S
H419 C361 0.930 . S
H420 C363 0.930 . S
H421 C365 0.929 . S
H422 C366 0.930 . S
H423 C367 0.930 1_545 S
H424 C370 0.930 . S
H425 C373 0.929 . S
H426 C378 0.929 . S
H427 C379 0.930 . S
H428 C386 0.929 . S
H429 C387 0.930 . S
H430 C388 0.930 1_655 S
H431 C389 0.930 . S
H432 C391 0.929 . S
H433 C392 0.930 . S
H434 C393 0.930 . S
H435 C394 0.930 . S
H436 C398 0.929 . S
H437 C400 0.930 . S
H438 C406 0.929 . S
H439 C407 0.930 . S
Li440 N457 1.990 . S
Li440 O500 1.956 . S
Li440 O501 1.970 . S
Li440 O502 1.961 . S
Li441 N465 1.990 . S
Li441 O500 1.970 . S
Li441 O501 1.956 . S
Li441 O503 1.961 . S
Li442 N487 1.990 . S
Li442 O500 1.961 . S
Li442 O502 1.956 . S
Li442 O503 1.970 . S
Li443 N493 1.990 . S
Li443 O501 1.961 . S
Li443 O502 1.970 . S
Li443 O503 1.956 . S
C444 C446 1.348 . S
C444 C447 1.356 . S
C444 O500 1.325 . S
N445 C448 1.314 . S
N445 C449 1.279 . S
C446 C444 1.348 . S
C446 C448 1.353 . S
C446 H504 0.929 . S
C447 C444 1.356 . S
C447 C449 1.358 . S
C447 H505 0.930 . S
C448 N445 1.314 . S
C448 C446 1.353 . S
C448 H506 0.930 . S
C449 N445 1.279 . S
C449 C447 1.358 . S
C449 H507 0.930 . S
C450 C453 1.348 . S
C450 C454 1.356 . S
C450 O501 1.325 . S
C451 N452 1.279 . S
C451 C454 1.358 . S
C451 H508 0.930 . S
N452 C451 1.279 . S
N452 C455 1.314 . S
C453 C450 1.348 . S
C453 C455 1.353 . S
C453 H509 0.929 . S
C454 C450 1.356 . S
C454 C451 1.358 . S
C454 H510 0.930 . S
C455 N452 1.314 . S
C455 C453 1.353 . S
C455 H511 0.930 . S
C456 N457 1.314 . S
C456 C461 1.353 . S
C456 H462 0.930 . S
N457 Li440 1.990 . S
N457 C456 1.314 . S
N457 C459 1.279 . S
C458 C459 1.358 . S
C458 C460 1.356 . S
C458 H512 0.930 . S
C459 N457 1.279 . S
C459 C458 1.358 . S
C459 H463 0.930 . S
C460 C458 1.356 . S
C460 C461 1.348 . S
C461 C456 1.353 . S
C461 C460 1.348 . S
C461 H513 0.929 . S
H462 C456 0.930 . S
H463 C459 0.930 . S
C464 N465 1.314 . S
C464 C466 1.353 . S
C464 H470 0.930 . S
N465 Li441 1.990 . S
N465 C464 1.314 . S
N465 C468 1.279 . S
C466 C464 1.353 . S
C466 C469 1.348 . S
C466 H514 0.929 . S
C467 C468 1.358 . S
C467 C469 1.356 . S
C467 H515 0.930 . S
C468 N465 1.279 . S
C468 C467 1.358 . S
C468 H471 0.930 . S
C469 C466 1.348 . S
C469 C467 1.356 . S
H470 C464 0.930 . S
H471 C468 0.930 . S
C472 C474 1.348 . S
C472 C475 1.356 . S
C472 O502 1.325 . S
N473 C476 1.314 . S
N473 C477 1.279 . S
C474 C472 1.348 . S
C474 C476 1.353 . S
C474 H516 0.929 . S
C475 C472 1.356 . S
C475 C477 1.358 . S
C475 H517 0.930 . S
C476 N473 1.314 . S
C476 C474 1.353 . S
C476 H518 0.930 . S
C477 N473 1.279 . S
C477 C475 1.358 . S
C477 H519 0.930 . S
C478 C479 1.348 . S
C478 C480 1.356 . S
C478 O503 1.325 . S
C479 C478 1.348 . S
C479 C481 1.353 . S
C479 H520 0.929 . S
C480 C478 1.356 . S
C480 C482 1.358 . S
C480 H521 0.930 . S
C481 C479 1.353 . S
C481 N483 1.314 . S
C481 H522 0.930 . S
C482 C480 1.358 . S
C482 N483 1.279 . S
C482 H523 0.930 . S
N483 C481 1.314 . S
N483 C482 1.279 . S
C484 C486 1.353 . S
C484 N487 1.314 . S
C484 H490 0.930 . S
C485 N487 1.279 . S
C485 C488 1.358 . S
C485 H491 0.930 . S
C486 C484 1.353 . S
C486 C489 1.348 . S
C486 H524 0.929 . S
N487 Li442 1.990 . S
N487 C484 1.314 . S
N487 C485 1.279 . S
C488 C485 1.358 . S
C488 C489 1.356 . S
C488 H525 0.930 . S
C489 C486 1.348 . S
C489 C488 1.356 . S
H490 C484 0.930 . S
H491 C485 0.930 . S
C492 N493 1.314 . S
C492 C494 1.353 . S
C492 H498 0.930 . S
N493 Li443 1.990 . S
N493 C492 1.314 . S
N493 C496 1.279 . S
C494 C492 1.353 . S
C494 C497 1.348 . S
C494 H526 0.929 . S
C495 C496 1.358 . S
C495 C497 1.356 . S
C495 H527 0.930 . S
C496 N493 1.279 . S
C496 C495 1.358 . S
C496 H499 0.930 . S
C497 C494 1.348 . S
C497 C495 1.356 . S
H498 C492 0.930 . S
H499 C496 0.930 . S
O500 Li440 1.956 . S
O500 Li441 1.970 . S
O500 Li442 1.961 . S
O500 C444 1.325 . S
O501 Li440 1.970 . S
O501 Li441 1.956 . S
O501 Li443 1.961 . S
O501 C450 1.325 . S
O502 Li440 1.961 . S
O502 Li442 1.956 . S
O502 Li443 1.970 . S
O502 C472 1.325 . S
O503 Li441 1.961 . S
O503 Li442 1.970 . S
O503 Li443 1.956 . S
O503 C478 1.325 . S
H504 C446 0.929 . S
H505 C447 0.930 . S
H506 C448 0.930 . S
H507 C449 0.930 . S
H508 C451 0.930 . S
H509 C453 0.929 . S
H510 C454 0.930 . S
H511 C455 0.930 . S
H512 C458 0.930 . S
H513 C461 0.929 . S
H514 C466 0.929 . S
H515 C467 0.930 . S
H516 C474 0.929 . S
H517 C475 0.930 . S
H518 C476 0.930 . S
H519 C477 0.930 . S
H520 C479 0.929 . S
H521 C480 0.930 . S
H522 C481 0.930 . S
H523 C482 0.930 . S
H524 C486 0.929 . S
H525 C488 0.930 . S
H526 C494 0.929 . S
H527 C495 0.930 . S
Li528 N545 1.990 . S
Li528 O588 1.956 . S
Li528 O589 1.970 . S
Li528 O590 1.961 . S
Li529 N553 1.990 . S
Li529 O588 1.970 . S
Li529 O589 1.956 . S
Li529 O591 1.961 . S
Li530 N575 1.990 . S
Li530 O588 1.961 . S
Li530 O590 1.956 . S
Li530 O591 1.970 . S
Li531 N581 1.990 . S
Li531 O589 1.961 . S
Li531 O590 1.970 . S
Li531 O591 1.956 . S
C532 C534 1.348 . S
C532 C535 1.356 . S
C532 O588 1.325 . S
N533 C536 1.314 . S
N533 C537 1.279 . S
C534 C532 1.348 . S
C534 C536 1.353 . S
C534 H592 0.929 . S
C535 C532 1.356 . S
C535 C537 1.358 . S
C535 H593 0.930 . S
C536 N533 1.314 . S
C536 C534 1.353 . S
C536 H594 0.930 . S
C537 N533 1.279 . S
C537 C535 1.358 . S
C537 H595 0.930 . S
C538 C541 1.348 . S
C538 C542 1.356 . S
C538 O589 1.325 . S
C539 N540 1.279 . S
C539 C542 1.358 . S
C539 H596 0.930 . S
N540 C539 1.279 . S
N540 C543 1.314 . S
C541 C538 1.348 . S
C541 C543 1.353 . S
C541 H597 0.929 . S
C542 C538 1.356 . S
C542 C539 1.358 . S
C542 H598 0.930 . S
C543 N540 1.314 . S
C543 C541 1.353 . S
C543 H599 0.930 . S
C544 N545 1.314 . S
C544 C549 1.353 . S
C544 H550 0.930 . S
N545 Li528 1.990 . S
N545 C544 1.314 . S
N545 C547 1.279 . S
C546 C547 1.358 . S
C546 C548 1.356 . S
C546 H600 0.930 . S
C547 N545 1.279 . S
C547 C546 1.358 . S
C547 H551 0.930 . S
C548 C546 1.356 . S
C548 C549 1.348 . S
C549 C544 1.353 . S
C549 C548 1.348 . S
C549 H601 0.929 . S
H550 C544 0.930 . S
H551 C547 0.930 . S
C552 N553 1.314 . S
C552 C554 1.353 . S
C552 H558 0.930 . S
N553 Li529 1.990 . S
N553 C552 1.314 . S
N553 C556 1.279 . S
C554 C552 1.353 . S
C554 C557 1.348 . S
C554 H602 0.929 . S
C555 C556 1.358 . S
C555 C557 1.356 . S
C555 H603 0.930 . S
C556 N553 1.279 . S
C556 C555 1.358 . S
C556 H559 0.930 . S
C557 C554 1.348 . S
C557 C555 1.356 . S
H558 C552 0.930 . S
H559 C556 0.930 . S
C560 C562 1.348 . S
C560 C563 1.356 . S
C560 O590 1.325 . S
N561 C564 1.314 . S
N561 C565 1.279 . S
C562 C560 1.348 . S
C562 C564 1.353 . S
C562 H604 0.929 . S
C563 C560 1.356 . S
C563 C565 1.358 . S
C563 H605 0.930 . S
C564 N561 1.314 . S
C564 C562 1.353 . S
C564 H606 0.930 . S
C565 N561 1.279 . S
C565 C563 1.358 . S
C565 H607 0.930 . S
C566 C567 1.348 . S
C566 C568 1.356 . S
C566 O591 1.325 . S
C567 C566 1.348 . S
C567 C569 1.353 . S
C567 H608 0.929 . S
C568 C566 1.356 . S
C568 C570 1.358 . S
C568 H609 0.930 . S
C569 C567 1.353 . S
C569 N571 1.314 . S
C569 H610 0.930 . S
C570 C568 1.358 . S
C570 N571 1.279 . S
C570 H611 0.930 . S
N571 C569 1.314 . S
N571 C570 1.279 . S
C572 C574 1.353 . S
C572 N575 1.314 . S
C572 H578 0.930 . S
C573 N575 1.279 . S
C573 C576 1.358 . S
C573 H579 0.930 . S
C574 C572 1.353 . S
C574 C577 1.348 . S
C574 H612 0.929 . S
N575 Li530 1.990 . S
N575 C572 1.314 . S
N575 C573 1.279 . S
C576 C573 1.358 . S
C576 C577 1.356 . S
C576 H613 0.930 . S
C577 C574 1.348 . S
C577 C576 1.356 . S
H578 C572 0.930 . S
H579 C573 0.930 . S
C580 N581 1.314 . S
C580 C582 1.353 . S
C580 H586 0.930 . S
N581 Li531 1.990 . S
N581 C580 1.314 . S
N581 C584 1.279 . S
C582 C580 1.353 . S
C582 C585 1.348 . S
C582 H614 0.929 . S
C583 C584 1.358 . S
C583 C585 1.356 . S
C583 H615 0.930 . S
C584 N581 1.279 . S
C584 C583 1.358 . S
C584 H587 0.930 . S
C585 C582 1.348 . S
C585 C583 1.356 . S
H586 C580 0.930 . S
H587 C584 0.930 . S
O588 Li528 1.956 . S
O588 Li529 1.970 . S
O588 Li530 1.961 . S
O588 C532 1.325 . S
O589 Li528 1.970 . S
O589 Li529 1.956 . S
O589 Li531 1.961 . S
O589 C538 1.325 . S
O590 Li528 1.961 . S
O590 Li530 1.956 . S
O590 Li531 1.970 . S
O590 C560 1.325 . S
O591 Li529 1.961 . S
O591 Li530 1.970 . S
O591 Li531 1.956 . S
O591 C566 1.325 . S
H592 C534 0.929 . S
H593 C535 0.930 . S
H594 C536 0.930 . S
H595 C537 0.930 . S
H596 C539 0.930 . S
H597 C541 0.929 . S
H598 C542 0.930 . S
H599 C543 0.930 . S
H600 C546 0.930 . S
H601 C549 0.929 . S
H602 C554 0.929 . S
H603 C555 0.930 . S
H604 C562 0.929 . S
H605 C563 0.930 . S
H606 C564 0.930 . S
H607 C565 0.930 . S
H608 C567 0.929 . S
H609 C568 0.930 . S
H610 C569 0.930 . S
H611 C570 0.930 . S
H612 C574 0.929 . S
H613 C576 0.930 . S
H614 C582 0.929 . S
H615 C583 0.930 . S
Li616 N633 1.990 . S
Li616 O676 1.956 1_455 S
Li616 O677 1.970 . S
Li616 O678 1.961 . S
Li617 N641 1.990 . S
Li617 O676 1.970 . S
Li617 O677 1.956 1_655 S
Li617 O679 1.961 . S
Li618 N663 1.990 . S
Li618 O676 1.950 1_455 S
Li618 O678 1.964 . S
Li618 O679 1.971 1_455 S
Li619 N669 1.990 . S
Li619 O677 1.961 . S
Li619 O678 1.970 . S
Li619 O679 1.956 1_455 S
C620 C622 1.348 . S
C620 C623 1.356 . S
C620 O676 1.325 . S
N621 C624 1.314 . S
N621 C625 1.279 . S
C622 C620 1.348 . S
C622 C624 1.353 . S
C622 H680 0.929 . S
C623 C620 1.356 . S
C623 C625 1.358 . S
C623 H681 0.930 . S
C624 N621 1.314 . S
C624 C622 1.353 . S
C624 H682 0.930 . S
C625 N621 1.279 . S
C625 C623 1.358 . S
C625 H683 0.930 1_556 S
C626 C629 1.348 1_455 S
C626 C630 1.356 . S
C626 O677 1.325 . S
C627 N628 1.279 . S
C627 C630 1.358 . S
C627 H684 0.930 . S
N628 C627 1.279 . S
N628 C631 1.315 1_455 S
C629 C626 1.348 1_655 S
C629 C631 1.353 . S
C629 H685 0.929 . S
C630 C626 1.356 . S
C630 C627 1.358 . S
C630 H686 0.930 . S
C631 N628 1.315 1_655 S
C631 C629 1.353 . S
C631 H687 0.930 . S
C632 N633 1.314 . S
C632 C637 1.353 . S
C632 H638 0.930 . S
N633 Li616 1.990 . S
N633 C632 1.314 . S
N633 C635 1.279 1_455 S
C634 C635 1.358 . S
C634 C636 1.356 1_655 S
C634 H688 0.930 . S
C635 N633 1.279 1_655 S
C635 C634 1.358 . S
C635 H639 0.930 . S
C636 C634 1.356 1_455 S
C636 C637 1.348 . S
C637 C632 1.353 . S
C637 C636 1.348 . S
C637 H689 0.929 . S
H638 C632 0.930 . S
H639 C635 0.930 . S
C640 N641 1.314 . S
C640 C642 1.353 . S
C640 H646 0.930 . S
N641 Li617 1.990 . S
N641 C640 1.314 . S
N641 C644 1.279 . S
C642 C640 1.353 . S
C642 C645 1.348 . S
C642 H690 0.929 . S
C643 C644 1.358 . S
C643 C645 1.356 . S
C643 H691 0.930 . S
C644 N641 1.279 . S
C644 C643 1.358 . S
C644 H647 0.930 . S
C645 C642 1.348 . S
C645 C643 1.356 . S
H646 C640 0.930 . S
H647 C644 0.930 . S
C648 C650 1.348 . S
C648 C651 1.356 . S
C648 O678 1.325 . S
N649 C652 1.314 . S
N649 C653 1.279 . S
C650 C648 1.348 . S
C650 C652 1.353 . S
C650 H692 0.929 . S
C651 C648 1.356 . S
C651 C653 1.358 . S
C651 H693 0.930 . S
C652 N649 1.314 . S
C652 C650 1.353 . S
C652 H694 0.930 . S
C653 N649 1.279 . S
C653 C651 1.358 . S
C653 H695 0.930 1_556 S
C654 C655 1.348 . S
C654 C656 1.356 . S
C654 O679 1.325 . S
C655 C654 1.348 . S
C655 C657 1.353 . S
C655 H696 0.929 1_655 S
C656 C654 1.356 . S
C656 C658 1.358 . S
C656 H697 0.930 . S
C657 C655 1.353 . S
C657 N659 1.314 . S
C657 H698 0.930 . S
C658 C656 1.358 . S
C658 N659 1.279 . S
C658 H699 0.930 . S
N659 C657 1.314 . S
N659 C658 1.279 . S
C660 C662 1.353 . S
C660 N663 1.307 1_655 S
C660 H666 0.930 . S
C661 N663 1.288 . S
C661 C664 1.358 . S
C661 H667 0.930 . S
C662 C660 1.353 . S
C662 C665 1.348 . S
C662 H700 0.929 . S
N663 Li618 1.990 . S
N663 C660 1.307 1_455 S
N663 C661 1.288 . S
C664 C661 1.358 . S
C664 C665 1.356 1_455 S
C664 H701 0.930 . S
C665 C662 1.348 . S
C665 C664 1.356 1_655 S
H666 C660 0.930 . S
H667 C661 0.930 . S
C668 N669 1.314 . S
C668 C670 1.353 . S
C668 H674 0.930 . S
N669 Li619 1.990 . S
N669 C668 1.314 . S
N669 C672 1.279 . S
C670 C668 1.353 . S
C670 C673 1.348 . S
C670 H702 0.929 . S
C671 C672 1.358 . S
C671 C673 1.356 . S
C671 H703 0.930 . S
C672 N669 1.279 . S
C672 C671 1.358 . S
C672 H675 0.930 . S
C673 C670 1.348 . S
C673 C671 1.356 . S
H674 C668 0.930 . S
H675 C672 0.930 . S
O676 Li616 1.956 1_655 S
O676 Li617 1.970 . S
O676 Li618 1.950 1_655 S
O676 C620 1.325 . S
O677 Li616 1.970 . S
O677 Li617 1.956 1_455 S
O677 Li619 1.961 . S
O677 C626 1.325 . S
O678 Li616 1.961 . S
O678 Li618 1.964 . S
O678 Li619 1.970 . S
O678 C648 1.325 . S
O679 Li617 1.961 . S
O679 Li618 1.971 1_655 S
O679 Li619 1.956 1_655 S
O679 C654 1.325 . S
H680 C622 0.929 . S
H681 C623 0.930 . S
H682 C624 0.930 . S
H683 C625 0.930 1_554 S
H684 C627 0.930 . S
H685 C629 0.929 . S
H686 C630 0.930 . S
H687 C631 0.930 . S
H688 C634 0.930 . S
H689 C637 0.929 . S
H690 C642 0.929 . S
H691 C643 0.930 . S
H692 C650 0.929 . S
H693 C651 0.930 . S
H694 C652 0.930 . S
H695 C653 0.930 1_554 S
H696 C655 0.929 1_455 S
H697 C656 0.930 . S
H698 C657 0.930 . S
H699 C658 0.930 . S
H700 C662 0.929 . S
H701 C664 0.930 . S
H702 C670 0.929 . S
H703 C671 0.930 . S
Li704 N721 1.990 . S
Li704 O764 1.956 . S
Li704 O765 1.970 . S
Li704 O766 1.961 . S
Li705 N729 1.990 . S
Li705 O764 1.970 . S
Li705 O765 1.956 . S
Li705 O767 1.961 . S
Li706 N751 1.990 . S
Li706 O764 1.961 . S
Li706 O766 1.956 . S
Li706 O767 1.970 . S
Li707 N757 1.990 . S
Li707 O765 1.961 . S
Li707 O766 1.970 . S
Li707 O767 1.956 . S
C708 C710 1.348 . S
C708 C711 1.356 . S
C708 O764 1.325 . S
N709 C712 1.314 1_545 S
N709 C713 1.279 . S
C710 C708 1.348 . S
C710 C712 1.353 1_545 S
C710 H768 0.929 . S
C711 C708 1.356 . S
C711 C713 1.358 . S
C711 H769 0.930 . S
C712 N709 1.314 1_565 S
C712 C710 1.353 1_565 S
C712 H770 0.930 . S
C713 N709 1.279 . S
C713 C711 1.358 . S
C713 H771 0.930 . S
C714 C717 1.348 . S
C714 C718 1.356 . S
C714 O765 1.325 . S
C715 N716 1.279 . S
C715 C718 1.358 . S
C715 H772 0.930 . S
N716 C715 1.279 . S
N716 C719 1.314 . S
C717 C714 1.348 . S
C717 C719 1.353 . S
C717 H773 0.929 . S
C718 C714 1.356 . S
C718 C715 1.358 . S
C718 H774 0.930 . S
C719 N716 1.314 . S
C719 C717 1.353 . S
C719 H775 0.930 . S
C720 N721 1.314 . S
C720 C725 1.353 . S
C720 H726 0.930 . S
N721 Li704 1.990 . S
N721 C720 1.314 . S
N721 C723 1.279 . S
C722 C723 1.358 . S
C722 C724 1.356 . S
C722 H776 0.930 . S
C723 N721 1.279 . S
C723 C722 1.358 . S
C723 H727 0.930 . S
C724 C722 1.356 . S
C724 C725 1.348 . S
C725 C720 1.353 . S
C725 C724 1.348 . S
C725 H777 0.929 . S
H726 C720 0.930 . S
H727 C723 0.930 . S
C728 N729 1.314 . S
C728 C730 1.353 1_545 S
C728 H734 0.930 . S
N729 Li705 1.990 . S
N729 C728 1.314 . S
N729 C732 1.279 . S
C730 C728 1.353 1_565 S
C730 C733 1.348 . S
C730 H778 0.929 . S
C731 C732 1.358 1_565 S
C731 C733 1.356 . S
C731 H779 0.930 . S
C732 N729 1.279 . S
C732 C731 1.358 1_545 S
C732 H735 0.930 . S
C733 C730 1.348 . S
C733 C731 1.356 . S
H734 C728 0.930 . S
H735 C732 0.930 . S
C736 C738 1.348 . S
C736 C739 1.356 . S
C736 O766 1.325 . S
N737 C740 1.314 . S
N737 C741 1.279 . S
C738 C736 1.348 . S
C738 C740 1.353 . S
C738 H780 0.929 . S
C739 C736 1.356 . S
C739 C741 1.358 . S
C739 H781 0.930 . S
C740 N737 1.314 . S
C740 C738 1.353 . S
C740 H782 0.930 . S
C741 N737 1.279 . S
C741 C739 1.358 . S
C741 H783 0.930 . S
C742 C743 1.348 . S
C742 C744 1.356 . S
C742 O767 1.325 . S
C743 C742 1.348 . S
C743 C745 1.353 . S
C743 H784 0.929 . S
C744 C742 1.356 . S
C744 C746 1.358 . S
C744 H785 0.930 . S
C745 C743 1.353 . S
C745 N747 1.314 . S
C745 H786 0.930 . S
C746 C744 1.358 . S
C746 N747 1.279 . S
C746 H787 0.930 . S
N747 C745 1.314 . S
N747 C746 1.279 . S
C748 C750 1.353 . S
C748 N751 1.314 . S
C748 H754 0.930 . S
C749 N751 1.279 . S
C749 C752 1.358 . S
C749 H755 0.930 . S
C750 C748 1.353 . S
C750 C753 1.348 . S
C750 H788 0.929 . S
N751 Li706 1.990 . S
N751 C748 1.314 . S
N751 C749 1.279 . S
C752 C749 1.358 . S
C752 C753 1.356 . S
C752 H789 0.930 . S
C753 C750 1.348 . S
C753 C752 1.356 . S
H754 C748 0.930 . S
H755 C749 0.930 . S
C756 N757 1.314 . S
C756 C758 1.353 . S
C756 H762 0.930 . S
N757 Li707 1.990 . S
N757 C756 1.314 . S
N757 C760 1.279 . S
C758 C756 1.353 . S
C758 C761 1.348 . S
C758 H790 0.929 . S
C759 C760 1.358 . S
C759 C761 1.356 . S
C759 H791 0.930 . S
C760 N757 1.279 . S
C760 C759 1.358 . S
C760 H763 0.930 . S
C761 C758 1.348 . S
C761 C759 1.356 . S
H762 C756 0.930 . S
H763 C760 0.930 . S
O764 Li704 1.956 . S
O764 Li705 1.970 . S
O764 Li706 1.961 . S
O764 C708 1.325 . S
O765 Li704 1.970 . S
O765 Li705 1.956 . S
O765 Li707 1.961 . S
O765 C714 1.325 . S
O766 Li704 1.961 . S
O766 Li706 1.956 . S
O766 Li707 1.970 . S
O766 C736 1.325 . S
O767 Li705 1.961 . S
O767 Li706 1.970 . S
O767 Li707 1.956 . S
O767 C742 1.325 . S
H768 C710 0.929 . S
H769 C711 0.930 . S
H770 C712 0.930 . S
H771 C713 0.930 . S
H772 C715 0.930 . S
H773 C717 0.929 . S
H774 C718 0.930 . S
H775 C719 0.930 . S
H776 C722 0.930 . S
H777 C725 0.929 . S
H778 C730 0.929 . S
H779 C731 0.930 . S
H780 C738 0.929 . S
H781 C739 0.930 . S
H782 C740 0.930 . S
H783 C741 0.930 . S
H784 C743 0.929 . S
H785 C744 0.930 . S
H786 C745 0.930 . S
H787 C746 0.930 . S
H788 C750 0.929 . S
H789 C752 0.930 . S
H790 C758 0.929 . S
H791 C759 0.930 . S
Li792 N809 1.990 . S
Li792 O852 1.956 . S
Li792 O853 1.970 . S
Li792 O854 1.961 . S
Li793 N817 1.990 . S
Li793 O852 1.970 . S
Li793 O853 1.956 . S
Li793 O855 1.961 . S
Li794 N839 1.990 . S
Li794 O852 1.961 . S
Li794 O854 1.956 . S
Li794 O855 1.970 . S
Li795 N845 1.990 . S
Li795 O853 1.961 . S
Li795 O854 1.970 . S
Li795 O855 1.956 . S
C796 C798 1.348 . S
C796 C799 1.356 . S
C796 O852 1.325 . S
N797 C800 1.314 . S
N797 C801 1.279 . S
C798 C796 1.348 . S
C798 C800 1.353 . S
C798 H856 0.929 . S
C799 C796 1.356 . S
C799 C801 1.358 . S
C799 H857 0.930 . S
C800 N797 1.314 . S
C800 C798 1.353 . S
C800 H858 0.930 . S
C801 N797 1.279 . S
C801 C799 1.358 . S
C801 H859 0.930 . S
C802 C805 1.348 . S
C802 C806 1.356 . S
C802 O853 1.325 . S
C803 N804 1.279 . S
C803 C806 1.358 . S
C803 H860 0.930 . S
N804 C803 1.279 . S
N804 C807 1.314 . S
C805 C802 1.348 . S
C805 C807 1.353 . S
C805 H861 0.929 . S
C806 C802 1.356 . S
C806 C803 1.358 . S
C806 H862 0.930 . S
C807 N804 1.314 . S
C807 C805 1.353 . S
C807 H863 0.930 . S
C808 N809 1.314 . S
C808 C813 1.353 . S
C808 H814 0.930 . S
N809 Li792 1.990 . S
N809 C808 1.314 . S
N809 C811 1.279 . S
C810 C811 1.358 . S
C810 C812 1.356 . S
C810 H864 0.930 . S
C811 N809 1.279 . S
C811 C810 1.358 . S
C811 H815 0.930 . S
C812 C810 1.356 . S
C812 C813 1.348 . S
C813 C808 1.353 . S
C813 C812 1.348 . S
C813 H865 0.929 . S
H814 C808 0.930 . S
H815 C811 0.930 . S
C816 N817 1.314 . S
C816 C818 1.353 . S
C816 H822 0.930 . S
N817 Li793 1.990 . S
N817 C816 1.314 . S
N817 C820 1.279 . S
C818 C816 1.353 . S
C818 C821 1.348 . S
C818 H866 0.929 . S
C819 C820 1.358 . S
C819 C821 1.356 . S
C819 H867 0.930 . S
C820 N817 1.279 . S
C820 C819 1.358 . S
C820 H823 0.930 . S
C821 C818 1.348 . S
C821 C819 1.356 . S
H822 C816 0.930 . S
H823 C820 0.930 . S
C824 C826 1.348 . S
C824 C827 1.356 . S
C824 O854 1.325 . S
N825 C828 1.314 . S
N825 C829 1.279 . S
C826 C824 1.348 . S
C826 C828 1.353 . S
C826 H868 0.929 . S
C827 C824 1.356 . S
C827 C829 1.358 . S
C827 H869 0.930 . S
C828 N825 1.314 . S
C828 C826 1.353 . S
C828 H870 0.930 . S
C829 N825 1.279 . S
C829 C827 1.358 . S
C829 H871 0.930 . S
C830 C831 1.348 . S
C830 C832 1.356 . S
C830 O855 1.325 . S
C831 C830 1.348 . S
C831 C833 1.353 . S
C831 H872 0.929 . S
C832 C830 1.356 . S
C832 C834 1.358 . S
C832 H873 0.930 . S
C833 C831 1.353 . S
C833 N835 1.314 . S
C833 H874 0.930 . S
C834 C832 1.358 . S
C834 N835 1.279 . S
C834 H875 0.930 . S
N835 C833 1.314 . S
N835 C834 1.279 . S
C836 C838 1.353 . S
C836 N839 1.314 . S
C836 H842 0.930 . S
C837 N839 1.279 . S
C837 C840 1.358 . S
C837 H843 0.930 . S
C838 C836 1.353 . S
C838 C841 1.348 . S
C838 H876 0.929 . S
N839 Li794 1.990 . S
N839 C836 1.314 . S
N839 C837 1.279 . S
C840 C837 1.358 . S
C840 C841 1.356 . S
C840 H877 0.930 . S
C841 C838 1.348 . S
C841 C840 1.356 . S
H842 C836 0.930 . S
H843 C837 0.930 . S
C844 N845 1.314 . S
C844 C846 1.353 . S
C844 H850 0.930 . S
N845 Li795 1.990 . S
N845 C844 1.314 . S
N845 C848 1.279 . S
C846 C844 1.353 . S
C846 C849 1.348 . S
C846 H878 0.929 . S
C847 C848 1.358 . S
C847 C849 1.356 . S
C847 H879 0.930 . S
C848 N845 1.279 . S
C848 C847 1.358 . S
C848 H851 0.930 . S
C849 C846 1.348 . S
C849 C847 1.356 . S
H850 C844 0.930 . S
H851 C848 0.930 . S
O852 Li792 1.956 . S
O852 Li793 1.970 . S
O852 Li794 1.961 . S
O852 C796 1.325 . S
O853 Li792 1.970 . S
O853 Li793 1.956 . S
O853 Li795 1.961 . S
O853 C802 1.325 . S
O854 Li792 1.961 . S
O854 Li794 1.956 . S
O854 Li795 1.970 . S
O854 C824 1.325 . S
O855 Li793 1.961 . S
O855 Li794 1.970 . S
O855 Li795 1.956 . S
O855 C830 1.325 . S
H856 C798 0.929 . S
H857 C799 0.930 . S
H858 C800 0.930 . S
H859 C801 0.930 . S
H860 C803 0.930 . S
H861 C805 0.929 . S
H862 C806 0.930 . S
H863 C807 0.930 . S
H864 C810 0.930 . S
H865 C813 0.929 . S
H866 C818 0.929 . S
H867 C819 0.930 . S
H868 C826 0.929 . S
H869 C827 0.930 . S
H870 C828 0.930 . S
H871 C829 0.930 . S
H872 C831 0.929 . S
H873 C832 0.930 . S
H874 C833 0.930 . S
H875 C834 0.930 . S
H876 C838 0.929 . S
H877 C840 0.930 . S
H878 C846 0.929 . S
H879 C847 0.930 . S
Li880 N897 1.990 . S
Li880 O940 1.956 . S
Li880 O941 1.970 . S
Li880 O942 1.961 . S
Li881 N905 1.990 . S
Li881 O940 1.970 . S
Li881 O941 1.956 . S
Li881 O943 1.961 . S
Li882 N927 1.990 . S
Li882 O940 1.961 . S
Li882 O942 1.956 . S
Li882 O943 1.970 . S
Li883 N933 1.990 . S
Li883 O941 1.961 . S
Li883 O942 1.970 . S
Li883 O943 1.956 . S
C884 C886 1.348 . S
C884 C887 1.356 . S
C884 O940 1.325 . S
N885 C888 1.314 . S
N885 C889 1.279 . S
C886 C884 1.348 . S
C886 C888 1.353 . S
C886 H944 0.929 . S
C887 C884 1.356 . S
C887 C889 1.358 . S
C887 H945 0.930 . S
C888 N885 1.314 . S
C888 C886 1.353 . S
C888 H946 0.930 1_556 S
C889 N885 1.279 . S
C889 C887 1.358 . S
C889 H947 0.930 . S
C890 C893 1.348 . S
C890 C894 1.356 . S
C890 O941 1.325 . S
C891 N892 1.279 . S
C891 C894 1.358 . S
C891 H948 0.930 . S
N892 C891 1.279 . S
N892 C895 1.314 . S
C893 C890 1.348 . S
C893 C895 1.353 . S
C893 H949 0.929 . S
C894 C890 1.356 . S
C894 C891 1.358 . S
C894 H950 0.930 . S
C895 N892 1.314 . S
C895 C893 1.353 . S
C895 H951 0.930 . S
C896 N897 1.314 . S
C896 C901 1.353 . S
C896 H902 0.930 . S
N897 Li880 1.990 . S
N897 C896 1.314 . S
N897 C899 1.279 . S
C898 C899 1.358 . S
C898 C900 1.356 . S
C898 H952 0.930 . S
C899 N897 1.279 . S
C899 C898 1.358 . S
C899 H903 0.930 . S
C900 C898 1.356 . S
C900 C901 1.348 . S
C901 C896 1.353 . S
C901 C900 1.348 . S
C901 H953 0.929 . S
H902 C896 0.930 . S
H903 C899 0.930 . S
C904 N905 1.314 . S
C904 C906 1.353 . S
C904 H910 0.930 . S
N905 Li881 1.990 . S
N905 C904 1.314 . S
N905 C908 1.279 . S
C906 C904 1.353 . S
C906 C909 1.348 . S
C906 H954 0.929 . S
C907 C908 1.358 . S
C907 C909 1.356 . S
C907 H955 0.930 . S
C908 N905 1.279 . S
C908 C907 1.358 . S
C908 H911 0.930 . S
C909 C906 1.348 . S
C909 C907 1.356 . S
H910 C904 0.930 . S
H911 C908 0.930 . S
C912 C914 1.348 . S
C912 C915 1.356 . S
C912 O942 1.325 . S
N913 C916 1.314 . S
N913 C917 1.279 . S
C914 C912 1.348 . S
C914 C916 1.353 . S
C914 H956 0.929 . S
C915 C912 1.356 . S
C915 C917 1.358 . S
C915 H957 0.930 . S
C916 N913 1.314 . S
C916 C914 1.353 . S
C916 H958 0.930 . S
C917 N913 1.279 . S
C917 C915 1.358 . S
C917 H959 0.930 . S
C918 C919 1.348 . S
C918 C920 1.356 . S
C918 O943 1.325 . S
C919 C918 1.348 . S
C919 C921 1.353 1_545 S
C919 H960 0.929 . S
C920 C918 1.356 . S
C920 C922 1.358 . S
C920 H961 0.930 . S
C921 C919 1.353 1_565 S
C921 N923 1.314 . S
C921 H962 0.930 . S
C922 C920 1.358 . S
C922 N923 1.279 1_545 S
C922 H963 0.930 . S
N923 C921 1.314 . S
N923 C922 1.279 1_565 S
C924 C926 1.353 . S
C924 N927 1.314 . S
C924 H930 0.930 . S
C925 N927 1.279 . S
C925 C928 1.358 . S
C925 H931 0.930 . S
C926 C924 1.353 . S
C926 C929 1.348 . S
C926 H964 0.929 . S
N927 Li882 1.990 . S
N927 C924 1.314 . S
N927 C925 1.279 . S
C928 C925 1.358 . S
C928 C929 1.356 . S
C928 H965 0.930 . S
C929 C926 1.348 . S
C929 C928 1.356 . S
H930 C924 0.930 . S
H931 C925 0.930 . S
C932 N933 1.314 . S
C932 C934 1.353 . S
C932 H938 0.930 . S
N933 Li883 1.990 . S
N933 C932 1.314 . S
N933 C936 1.279 . S
C934 C932 1.353 . S
C934 C937 1.348 . S
C934 H966 0.929 . S
C935 C936 1.358 . S
C935 C937 1.356 . S
C935 H967 0.930 . S
C936 N933 1.279 . S
C936 C935 1.358 . S
C936 H939 0.930 . S
C937 C934 1.348 . S
C937 C935 1.356 . S
H938 C932 0.930 . S
H939 C936 0.930 . S
O940 Li880 1.956 . S
O940 Li881 1.970 . S
O940 Li882 1.961 . S
O940 C884 1.325 . S
O941 Li880 1.970 . S
O941 Li881 1.956 . S
O941 Li883 1.961 . S
O941 C890 1.325 . S
O942 Li880 1.961 . S
O942 Li882 1.956 . S
O942 Li883 1.970 . S
O942 C912 1.325 . S
O943 Li881 1.961 . S
O943 Li882 1.970 . S
O943 Li883 1.956 . S
O943 C918 1.325 . S
H944 C886 0.929 . S
H945 C887 0.930 . S
H946 C888 0.930 1_554 S
H947 C889 0.930 . S
H948 C891 0.930 . S
H949 C893 0.929 . S
H950 C894 0.930 . S
H951 C895 0.930 . S
H952 C898 0.930 . S
H953 C901 0.929 . S
H954 C906 0.929 . S
H955 C907 0.930 . S
H956 C914 0.929 . S
H957 C915 0.930 . S
H958 C916 0.930 . S
H959 C917 0.930 . S
H960 C919 0.929 . S
H961 C920 0.930 . S
H962 C921 0.930 . S
H963 C922 0.930 . S
H964 C926 0.929 . S
H965 C928 0.930 . S
H966 C934 0.929 . S
H967 C935 0.930 . S
Li968 N985 1.990 . S
Li968 O1028 1.956 . S
Li968 O1029 1.970 . S
Li968 O1030 1.961 . S
Li969 N993 1.990 . S
Li969 O1028 1.970 . S
Li969 O1029 1.956 . S
Li969 O1031 1.961 . S
Li970 N1015 1.990 . S
Li970 O1028 1.961 . S
Li970 O1030 1.956 . S
Li970 O1031 1.970 . S
Li971 N1021 1.990 1_554 S
Li971 O1029 1.961 . S
Li971 O1030 1.970 . S
Li971 O1031 1.956 . S
C972 C974 1.348 . S
C972 C975 1.356 . S
C972 O1028 1.325 . S
N973 C976 1.314 . S
N973 C977 1.279 . S
C974 C972 1.348 . S
C974 C976 1.353 . S
C974 H1032 0.929 . S
C975 C972 1.356 . S
C975 C977 1.358 . S
C975 H1033 0.930 . S
C976 N973 1.314 . S
C976 C974 1.353 . S
C976 H1034 0.930 . S
C977 N973 1.279 . S
C977 C975 1.358 . S
C977 H1035 0.930 1_565 S
C978 C981 1.348 . S
C978 C982 1.356 . S
C978 O1029 1.325 . S
C979 N980 1.279 . S
C979 C982 1.358 . S
C979 H1036 0.930 . S
N980 C979 1.279 . S
N980 C983 1.314 . S
C981 C978 1.348 . S
C981 C983 1.353 . S
C981 H1037 0.929 . S
C982 C978 1.356 . S
C982 C979 1.358 . S
C982 H1038 0.930 . S
C983 N980 1.314 . S
C983 C981 1.353 . S
C983 H1039 0.930 . S
C984 N985 1.314 . S
C984 C989 1.353 . S
C984 H990 0.930 . S
N985 Li968 1.990 . S
N985 C984 1.314 . S
N985 C987 1.279 . S
C986 C987 1.358 . S
C986 C988 1.356 . S
C986 H1040 0.930 . S
C987 N985 1.279 . S
C987 C986 1.358 . S
C987 H991 0.930 . S
C988 C986 1.356 . S
C988 C989 1.348 . S
C989 C984 1.353 . S
C989 C988 1.348 . S
C989 H1041 0.929 . S
H990 C984 0.930 . S
H991 C987 0.930 . S
C992 N993 1.314 . S
C992 C994 1.353 . S
C992 H998 0.930 . S
N993 Li969 1.990 . S
N993 C992 1.314 . S
N993 C996 1.279 . S
C994 C992 1.353 . S
C994 C997 1.348 . S
C994 H1042 0.929 . S
C995 C996 1.358 . S
C995 C997 1.356 . S
C995 H1043 0.930 . S
C996 N993 1.279 . S
C996 C995 1.358 . S
C996 H999 0.930 . S
C997 C994 1.348 . S
C997 C995 1.356 . S
H998 C992 0.930 . S
H999 C996 0.930 . S
C1000 C1002 1.348 1_554 S
C1000 C1003 1.356 . S
C1000 O1030 1.325 . S
N1001 C1004 1.314 . S
N1001 C1005 1.279 . S
C1002 C1000 1.348 1_556 S
C1002 C1004 1.353 . S
C1002 H1044 0.929 . S
C1003 C1000 1.356 . S
C1003 C1005 1.358 1_554 S
C1003 H1045 0.930 . S
C1004 N1001 1.314 . S
C1004 C1002 1.353 . S
C1004 H1046 0.930 . S
C1005 N1001 1.279 . S
C1005 C1003 1.358 1_556 S
C1005 H1047 0.930 . S
C1006 C1007 1.348 . S
C1006 C1008 1.356 . S
C1006 O1031 1.325 . S
C1007 C1006 1.348 . S
C1007 C1009 1.353 . S
C1007 H1048 0.929 . S
C1008 C1006 1.356 . S
C1008 C1010 1.358 . S
C1008 H1049 0.930 . S
C1009 C1007 1.353 . S
C1009 N1011 1.314 . S
C1009 H1050 0.930 . S
C1010 C1008 1.358 . S
C1010 N1011 1.279 . S
C1010 H1051 0.930 . S
N1011 C1009 1.314 . S
N1011 C1010 1.279 . S
C1012 C1014 1.353 . S
C1012 N1015 1.314 . S
C1012 H1018 0.930 . S
C1013 N1015 1.279 . S
C1013 C1016 1.358 . S
C1013 H1019 0.930 . S
C1014 C1012 1.353 . S
C1014 C1017 1.348 . S
C1014 H1052 0.929 . S
N1015 Li970 1.990 . S
N1015 C1012 1.314 . S
N1015 C1013 1.279 . S
C1016 C1013 1.358 . S
C1016 C1017 1.356 . S
C1016 H1053 0.930 . S
C1017 C1014 1.348 . S
C1017 C1016 1.356 . S
H1018 C1012 0.930 . S
H1019 C1013 0.930 . S
C1020 N1021 1.314 . S
C1020 C1022 1.353 . S
C1020 H1026 0.930 . S
N1021 Li971 1.990 1_556 S
N1021 C1020 1.314 . S
N1021 C1024 1.279 . S
C1022 C1020 1.353 . S
C1022 C1025 1.348 . S
C1022 H1054 0.929 . S
C1023 C1024 1.358 . S
C1023 C1025 1.356 . S
C1023 H1055 0.930 . S
C1024 N1021 1.279 . S
C1024 C1023 1.358 . S
C1024 H1027 0.930 . S
C1025 C1022 1.348 . S
C1025 C1023 1.356 . S
H1026 C1020 0.930 . S
H1027 C1024 0.930 . S
O1028 Li968 1.956 . S
O1028 Li969 1.970 . S
O1028 Li970 1.961 . S
O1028 C972 1.325 . S
O1029 Li968 1.970 . S
O1029 Li969 1.956 . S
O1029 Li971 1.961 . S
O1029 C978 1.325 . S
O1030 Li968 1.961 . S
O1030 Li970 1.956 . S
O1030 Li971 1.970 . S
O1030 C1000 1.325 . S
O1031 Li969 1.961 . S
O1031 Li970 1.970 . S
O1031 Li971 1.956 . S
O1031 C1006 1.325 . S
H1032 C974 0.929 . S
H1033 C975 0.930 . S
H1034 C976 0.930 . S
H1035 C977 0.930 1_545 S
H1036 C979 0.930 . S
H1037 C981 0.929 . S
H1038 C982 0.930 . S
H1039 C983 0.930 . S
H1040 C986 0.930 . S
H1041 C989 0.929 . S
H1042 C994 0.929 . S
H1043 C995 0.930 . S
H1044 C1002 0.929 . S
H1045 C1003 0.930 . S
H1046 C1004 0.930 . S
H1047 C1005 0.930 . S
H1048 C1007 0.929 . S
H1049 C1008 0.930 . S
H1050 C1009 0.930 . S
H1051 C1010 0.930 . S
H1052 C1014 0.929 . S
H1053 C1016 0.930 . S
H1054 C1022 0.929 . S
H1055 C1023 0.930 . S
Li1056 N1073 1.990 . S
Li1056 O1116 1.956 . S
Li1056 O1117 1.970 . S
Li1056 O1118 1.961 . S
Li1057 N1081 1.990 . S
Li1057 O1116 1.970 . S
Li1057 O1117 1.956 . S
Li1057 O1119 1.961 . S
Li1058 N1103 1.990 . S
Li1058 O1116 1.961 . S
Li1058 O1118 1.956 . S
Li1058 O1119 1.970 . S
Li1059 N1109 1.990 1_554 S
Li1059 O1117 1.961 . S
Li1059 O1118 1.970 . S
Li1059 O1119 1.956 . S
C1060 C1062 1.348 . S
C1060 C1063 1.356 . S
C1060 O1116 1.325 . S
N1061 C1064 1.314 . S
N1061 C1065 1.279 . S
C1062 C1060 1.348 . S
C1062 C1064 1.353 . S
C1062 H1120 0.929 . S
C1063 C1060 1.356 . S
C1063 C1065 1.358 . S
C1063 H1121 0.930 . S
C1064 N1061 1.314 . S
C1064 C1062 1.353 . S
C1064 H1122 0.930 . S
C1065 N1061 1.279 . S
C1065 C1063 1.358 . S
C1065 H1123 0.930 . S
C1066 C1069 1.348 . S
C1066 C1070 1.356 . S
C1066 O1117 1.325 . S
C1067 N1068 1.279 . S
C1067 C1070 1.358 . S
C1067 H1124 0.930 . S
N1068 C1067 1.279 . S
N1068 C1071 1.314 . S
C1069 C1066 1.348 . S
C1069 C1071 1.353 . S
C1069 H1125 0.929 . S
C1070 C1066 1.356 . S
C1070 C1067 1.358 . S
C1070 H1126 0.930 . S
C1071 N1068 1.314 . S
C1071 C1069 1.353 . S
C1071 H1127 0.930 . S
C1072 N1073 1.314 . S
C1072 C1077 1.353 . S
C1072 H1078 0.930 1_554 S
N1073 Li1056 1.990 . S
N1073 C1072 1.314 . S
N1073 C1075 1.279 . S
C1074 C1075 1.358 . S
C1074 C1076 1.356 . S
C1074 H1128 0.930 . S
C1075 N1073 1.279 . S
C1075 C1074 1.358 . S
C1075 H1079 0.930 . S
C1076 C1074 1.356 . S
C1076 C1077 1.348 . S
C1077 C1072 1.353 . S
C1077 C1076 1.348 . S
C1077 H1129 0.929 1_554 S
H1078 C1072 0.930 1_556 S
H1079 C1075 0.930 . S
C1080 N1081 1.314 . S
C1080 C1082 1.353 . S
C1080 H1086 0.930 . S
N1081 Li1057 1.990 . S
N1081 C1080 1.314 . S
N1081 C1084 1.279 . S
C1082 C1080 1.353 . S
C1082 C1085 1.348 . S
C1082 H1130 0.929 . S
C1083 C1084 1.358 . S
C1083 C1085 1.356 . S
C1083 H1131 0.930 . S
C1084 N1081 1.279 . S
C1084 C1083 1.358 . S
C1084 H1087 0.930 . S
C1085 C1082 1.348 . S
C1085 C1083 1.356 . S
H1086 C1080 0.930 . S
H1087 C1084 0.930 . S
C1088 C1090 1.348 . S
C1088 C1091 1.356 . S
C1088 O1118 1.325 1_556 S
N1089 C1092 1.314 . S
N1089 C1093 1.279 . S
C1090 C1088 1.348 . S
C1090 C1092 1.353 . S
C1090 H1132 0.929 . S
C1091 C1088 1.356 . S
C1091 C1093 1.358 . S
C1091 H1133 0.930 1_556 S
C1092 N1089 1.314 . S
C1092 C1090 1.353 . S
C1092 H1134 0.930 . S
C1093 N1089 1.279 . S
C1093 C1091 1.358 . S
C1093 H1135 0.930 . S
C1094 C1095 1.348 . S
C1094 C1096 1.356 . S
C1094 O1119 1.325 . S
C1095 C1094 1.348 . S
C1095 C1097 1.353 . S
C1095 H1136 0.929 . S
C1096 C1094 1.356 . S
C1096 C1098 1.358 . S
C1096 H1137 0.930 . S
C1097 C1095 1.353 . S
C1097 N1099 1.314 . S
C1097 H1138 0.930 . S
C1098 C1096 1.358 . S
C1098 N1099 1.279 . S
C1098 H1139 0.930 . S
N1099 C1097 1.314 . S
N1099 C1098 1.279 . S
C1100 C1102 1.353 . S
C1100 N1103 1.314 . S
C1100 H1106 0.930 . S
C1101 N1103 1.279 . S
C1101 C1104 1.358 . S
C1101 H1107 0.930 . S
C1102 C1100 1.353 . S
C1102 C1105 1.348 . S
C1102 H1140 0.929 . S
N1103 Li1058 1.990 . S
N1103 C1100 1.314 . S
N1103 C1101 1.279 . S
C1104 C1101 1.358 . S
C1104 C1105 1.356 . S
C1104 H1141 0.930 . S
C1105 C1102 1.348 . S
C1105 C1104 1.356 . S
H1106 C1100 0.930 . S
H1107 C1101 0.930 . S
C1108 N1109 1.314 . S
C1108 C1110 1.353 . S
C1108 H1114 0.930 . S
N1109 Li1059 1.990 1_556 S
N1109 C1108 1.314 . S
N1109 C1112 1.279 . S
C1110 C1108 1.353 . S
C1110 C1113 1.348 . S
C1110 H1142 0.929 . S
C1111 C1112 1.358 . S
C1111 C1113 1.356 . S
C1111 H1143 0.930 . S
C1112 N1109 1.279 . S
C1112 C1111 1.358 . S
C1112 H1115 0.930 . S
C1113 C1110 1.348 . S
C1113 C1111 1.356 . S
H1114 C1108 0.930 . S
H1115 C1112 0.930 . S
O1116 Li1056 1.956 . S
O1116 Li1057 1.970 . S
O1116 Li1058 1.961 . S
O1116 C1060 1.325 . S
O1117 Li1056 1.970 . S
O1117 Li1057 1.956 . S
O1117 Li1059 1.961 . S
O1117 C1066 1.325 . S
O1118 Li1056 1.961 . S
O1118 Li1058 1.956 . S
O1118 Li1059 1.970 . S
O1118 C1088 1.325 1_554 S
O1119 Li1057 1.961 . S
O1119 Li1058 1.970 . S
O1119 Li1059 1.956 . S
O1119 C1094 1.325 . S
H1120 C1062 0.929 . S
H1121 C1063 0.930 . S
H1122 C1064 0.930 . S
H1123 C1065 0.930 . S
H1124 C1067 0.930 . S
H1125 C1069 0.929 . S
H1126 C1070 0.930 . S
H1127 C1071 0.930 . S
H1128 C1074 0.930 . S
H1129 C1077 0.929 1_556 S
H1130 C1082 0.929 . S
H1131 C1083 0.930 . S
H1132 C1090 0.929 . S
H1133 C1091 0.930 1_554 S
H1134 C1092 0.930 . S
H1135 C1093 0.930 . S
H1136 C1095 0.929 . S
H1137 C1096 0.930 . S
H1138 C1097 0.930 . S
H1139 C1098 0.930 . S
H1140 C1102 0.929 . S
H1141 C1104 0.930 . S
H1142 C1110 0.929 . S
H1143 C1111 0.930 . S
Li1144 N1161 1.990 . S
Li1144 O1204 1.956 . S
Li1144 O1205 1.970 . S
Li1144 O1206 1.961 1_554 S
Li1145 N1169 1.990 . S
Li1145 O1204 1.970 . S
Li1145 O1205 1.956 . S
Li1145 O1207 1.961 1_554 S
Li1146 N1191 1.990 . S
Li1146 O1204 1.961 1_556 S
Li1146 O1206 1.956 . S
Li1146 O1207 1.970 . S
Li1147 N1197 1.990 . S
Li1147 O1205 1.961 1_556 S
Li1147 O1206 1.970 . S
Li1147 O1207 1.956 . S
C1148 C1150 1.348 . S
C1148 C1151 1.356 . S
C1148 O1204 1.325 . S
N1149 C1152 1.314 . S
N1149 C1153 1.279 . S
C1150 C1148 1.348 . S
C1150 C1152 1.353 . S
C1150 H1208 0.929 . S
C1151 C1148 1.356 . S
C1151 C1153 1.358 . S
C1151 H1209 0.930 1_554 S
C1152 N1149 1.314 . S
C1152 C1150 1.353 . S
C1152 H1210 0.930 . S
C1153 N1149 1.279 . S
C1153 C1151 1.358 . S
C1153 H1211 0.930 . S
C1154 C1157 1.348 . S
C1154 C1158 1.356 . S
C1154 O1205 1.325 . S
C1155 N1156 1.279 . S
C1155 C1158 1.358 . S
C1155 H1212 0.930 . S
N1156 C1155 1.279 . S
N1156 C1159 1.314 . S
C1157 C1154 1.348 . S
C1157 C1159 1.353 . S
C1157 H1213 0.929 . S
C1158 C1154 1.356 . S
C1158 C1155 1.358 . S
C1158 H1214 0.930 . S
C1159 N1156 1.314 . S
C1159 C1157 1.353 . S
C1159 H1215 0.930 . S
C1160 N1161 1.314 . S
C1160 C1165 1.353 . S
C1160 H1166 0.930 . S
N1161 Li1144 1.990 . S
N1161 C1160 1.314 . S
N1161 C1163 1.279 . S
C1162 C1163 1.358 . S
C1162 C1164 1.356 . S
C1162 H1216 0.930 . S
C1163 N1161 1.279 . S
C1163 C1162 1.358 . S
C1163 H1167 0.930 . S
C1164 C1162 1.356 . S
C1164 C1165 1.348 . S
C1165 C1160 1.353 . S
C1165 C1164 1.348 . S
C1165 H1217 0.929 . S
H1166 C1160 0.930 . S
H1167 C1163 0.930 . S
C1168 N1169 1.314 1_556 S
C1168 C1170 1.353 . S
C1168 H1174 0.930 . S
N1169 Li1145 1.990 . S
N1169 C1168 1.314 1_554 S
N1169 C1172 1.279 . S
C1170 C1168 1.353 . S
C1170 C1173 1.348 1_556 S
C1170 H1218 0.929 . S
C1171 C1172 1.358 . S
C1171 C1173 1.356 . S
C1171 H1219 0.930 . S
C1172 N1169 1.279 . S
C1172 C1171 1.358 . S
C1172 H1175 0.930 . S
C1173 C1170 1.348 1_554 S
C1173 C1171 1.356 . S
H1174 C1168 0.930 . S
H1175 C1172 0.930 . S
C1176 C1178 1.348 . S
C1176 C1179 1.356 1_556 S
C1176 O1206 1.325 . S
N1177 C1180 1.314 . S
N1177 C1181 1.278 1_556 S
C1178 C1176 1.348 . S
C1178 C1180 1.353 . S
C1178 H1220 0.929 . S
C1179 C1176 1.356 1_554 S
C1179 C1181 1.358 . S
C1179 H1221 0.930 . S
C1180 N1177 1.314 . S
C1180 C1178 1.353 . S
C1180 H1222 0.930 . S
C1181 N1177 1.278 1_554 S
C1181 C1179 1.358 . S
C1181 H1223 0.931 . S
C1182 C1183 1.348 . S
C1182 C1184 1.356 . S
C1182 O1207 1.325 . S
C1183 C1182 1.348 . S
C1183 C1185 1.353 . S
C1183 H1224 0.929 . S
C1184 C1182 1.356 . S
C1184 C1186 1.358 . S
C1184 H1225 0.930 . S
C1185 C1183 1.353 . S
C1185 N1187 1.314 . S
C1185 H1226 0.930 . S
C1186 C1184 1.358 . S
C1186 N1187 1.279 . S
C1186 H1227 0.930 . S
N1187 C1185 1.314 . S
N1187 C1186 1.279 . S
C1188 C1190 1.353 . S
C1188 N1191 1.314 . S
C1188 H1194 0.930 . S
C1189 N1191 1.279 . S
C1189 C1192 1.358 . S
C1189 H1195 0.930 . S
C1190 C1188 1.353 . S
C1190 C1193 1.348 . S
C1190 H1228 0.929 . S
N1191 Li1146 1.990 . S
N1191 C1188 1.314 . S
N1191 C1189 1.279 . S
C1192 C1189 1.358 . S
C1192 C1193 1.356 . S
C1192 H1229 0.930 . S
C1193 C1190 1.348 . S
C1193 C1192 1.356 . S
H1194 C1188 0.930 . S
H1195 C1189 0.930 . S
C1196 N1197 1.314 1_554 S
C1196 C1198 1.353 . S
C1196 H1202 0.930 . S
N1197 Li1147 1.990 . S
N1197 C1196 1.314 1_556 S
N1197 C1200 1.279 . S
C1198 C1196 1.353 . S
C1198 C1201 1.348 1_554 S
C1198 H1230 0.929 . S
C1199 C1200 1.358 . S
C1199 C1201 1.356 . S
C1199 H1231 0.930 . S
C1200 N1197 1.279 . S
C1200 C1199 1.358 . S
C1200 H1203 0.930 . S
C1201 C1198 1.348 1_556 S
C1201 C1199 1.356 . S
H1202 C1196 0.930 . S
H1203 C1200 0.930 . S
O1204 Li1144 1.956 . S
O1204 Li1145 1.970 . S
O1204 Li1146 1.961 1_554 S
O1204 C1148 1.325 . S
O1205 Li1144 1.970 . S
O1205 Li1145 1.956 . S
O1205 Li1147 1.961 1_554 S
O1205 C1154 1.325 . S
O1206 Li1144 1.961 1_556 S
O1206 Li1146 1.956 . S
O1206 Li1147 1.970 . S
O1206 C1176 1.325 . S
O1207 Li1145 1.961 1_556 S
O1207 Li1146 1.970 . S
O1207 Li1147 1.956 . S
O1207 C1182 1.325 . S
H1208 C1150 0.929 . S
H1209 C1151 0.930 1_556 S
H1210 C1152 0.930 . S
H1211 C1153 0.930 . S
H1212 C1155 0.930 . S
H1213 C1157 0.929 . S
H1214 C1158 0.930 . S
H1215 C1159 0.930 . S
H1216 C1162 0.930 . S
H1217 C1165 0.929 . S
H1218 C1170 0.929 . S
H1219 C1171 0.930 . S
H1220 C1178 0.929 . S
H1221 C1179 0.930 . S
H1222 C1180 0.930 . S
H1223 C1181 0.931 . S
H1224 C1183 0.929 . S
H1225 C1184 0.930 . S
H1226 C1185 0.930 . S
H1227 C1186 0.930 . S
H1228 C1190 0.929 . S
H1229 C1192 0.930 . S
H1230 C1198 0.929 . S
H1231 C1199 0.930 . S
Li1232 N1249 1.990 . S
Li1232 O1292 1.956 . S
Li1232 O1293 1.970 . S
Li1232 O1294 1.961 . S
Li1233 N1257 1.990 . S
Li1233 O1292 1.970 . S
Li1233 O1293 1.956 . S
Li1233 O1295 1.961 . S
Li1234 N1279 1.990 . S
Li1234 O1292 1.961 . S
Li1234 O1294 1.956 . S
Li1234 O1295 1.970 . S
Li1235 N1285 1.990 . S
Li1235 O1293 1.961 . S
Li1235 O1294 1.970 . S
Li1235 O1295 1.956 . S
C1236 C1238 1.348 . S
C1236 C1239 1.356 . S
C1236 O1292 1.325 . S
N1237 C1240 1.314 . S
N1237 C1241 1.279 . S
C1238 C1236 1.348 . S
C1238 C1240 1.353 . S
C1238 H1296 0.929 . S
C1239 C1236 1.356 . S
C1239 C1241 1.358 . S
C1239 H1297 0.930 . S
C1240 N1237 1.314 . S
C1240 C1238 1.353 . S
C1240 H1298 0.930 . S
C1241 N1237 1.279 . S
C1241 C1239 1.358 . S
C1241 H1299 0.930 . S
C1242 C1245 1.348 . S
C1242 C1246 1.356 . S
C1242 O1293 1.325 . S
C1243 N1244 1.281 . S
C1243 C1246 1.358 1_655 S
C1243 H1300 0.930 . S
N1244 C1243 1.281 . S
N1244 C1247 1.305 1_655 S
C1245 C1242 1.348 . S
C1245 C1247 1.353 . S
C1245 H1301 0.929 . S
C1246 C1242 1.356 . S
C1246 C1243 1.358 1_455 S
C1246 H1302 0.930 1_455 S
C1247 N1244 1.305 1_455 S
C1247 C1245 1.353 . S
C1247 H1303 0.930 . S
C1248 N1249 1.314 . S
C1248 C1253 1.353 . S
C1248 H1254 0.930 . S
N1249 Li1232 1.990 . S
N1249 C1248 1.314 . S
N1249 C1251 1.279 . S
C1250 C1251 1.358 . S
C1250 C1252 1.356 . S
C1250 H1304 0.930 . S
C1251 N1249 1.279 . S
C1251 C1250 1.358 . S
C1251 H1255 0.930 . S
C1252 C1250 1.356 . S
C1252 C1253 1.348 . S
C1253 C1248 1.353 . S
C1253 C1252 1.348 . S
C1253 H1305 0.929 . S
H1254 C1248 0.930 . S
H1255 C1251 0.930 . S
C1256 N1257 1.314 . S
C1256 C1258 1.353 . S
C1256 H1262 0.930 . S
N1257 Li1233 1.990 . S
N1257 C1256 1.314 . S
N1257 C1260 1.279 . S
C1258 C1256 1.353 . S
C1258 C1261 1.348 1_455 S
C1258 H1306 0.929 1_455 S
C1259 C1260 1.358 1_655 S
C1259 C1261 1.356 . S
C1259 H1307 0.930 . S
C1260 N1257 1.279 . S
C1260 C1259 1.358 1_455 S
C1260 H1263 0.930 . S
C1261 C1258 1.348 1_655 S
C1261 C1259 1.356 . S
H1262 C1256 0.930 . S
H1263 C1260 0.930 . S
C1264 C1266 1.348 . S
C1264 C1267 1.356 . S
C1264 O1294 1.325 . S
N1265 C1268 1.314 . S
N1265 C1269 1.279 . S
C1266 C1264 1.348 . S
C1266 C1268 1.353 . S
C1266 H1308 0.929 . S
C1267 C1264 1.356 . S
C1267 C1269 1.358 . S
C1267 H1309 0.930 . S
C1268 N1265 1.314 . S
C1268 C1266 1.353 . S
C1268 H1310 0.930 . S
C1269 N1265 1.279 . S
C1269 C1267 1.358 . S
C1269 H1311 0.930 . S
C1270 C1271 1.348 . S
C1270 C1272 1.356 1_455 S
C1270 O1295 1.325 . S
C1271 C1270 1.348 . S
C1271 C1273 1.353 . S
C1271 H1312 0.929 . S
C1272 C1270 1.356 1_655 S
C1272 C1274 1.358 . S
C1272 H1313 0.930 . S
C1273 C1271 1.353 . S
C1273 N1275 1.314 1_455 S
C1273 H1314 0.930 . S
C1274 C1272 1.358 . S
C1274 N1275 1.279 . S
C1274 H1315 0.930 . S
N1275 C1273 1.314 1_655 S
N1275 C1274 1.279 . S
C1276 C1278 1.353 . S
C1276 N1279 1.314 . S
C1276 H1282 0.930 . S
C1277 N1279 1.279 . S
C1277 C1280 1.358 . S
C1277 H1283 0.930 . S
C1278 C1276 1.353 . S
C1278 C1281 1.348 . S
C1278 H1316 0.929 . S
N1279 Li1234 1.990 . S
N1279 C1276 1.314 . S
N1279 C1277 1.279 . S
C1280 C1277 1.358 . S
C1280 C1281 1.356 . S
C1280 H1317 0.930 . S
C1281 C1278 1.348 . S
C1281 C1280 1.356 . S
H1282 C1276 0.930 . S
H1283 C1277 0.930 . S
C1284 N1285 1.314 . S
C1284 C1286 1.353 1_455 S
C1284 H1290 0.930 . S
N1285 Li1235 1.990 . S
N1285 C1284 1.314 . S
N1285 C1288 1.279 1_455 S
C1286 C1284 1.353 1_655 S
C1286 C1289 1.348 . S
C1286 H1318 0.929 . S
C1287 C1288 1.358 . S
C1287 C1289 1.356 . S
C1287 H1319 0.930 . S
C1288 N1285 1.279 1_655 S
C1288 C1287 1.358 . S
C1288 H1291 0.933 . S
C1289 C1286 1.348 . S
C1289 C1287 1.356 . S
H1290 C1284 0.930 . S
H1291 C1288 0.933 . S
O1292 Li1232 1.956 . S
O1292 Li1233 1.970 . S
O1292 Li1234 1.961 . S
O1292 C1236 1.325 . S
O1293 Li1232 1.970 . S
O1293 Li1233 1.956 . S
O1293 Li1235 1.961 . S
O1293 C1242 1.325 . S
O1294 Li1232 1.961 . S
O1294 Li1234 1.956 . S
O1294 Li1235 1.970 . S
O1294 C1264 1.325 . S
O1295 Li1233 1.961 . S
O1295 Li1234 1.970 . S
O1295 Li1235 1.956 . S
O1295 C1270 1.325 . S
H1296 C1238 0.929 . S
H1297 C1239 0.930 . S
H1298 C1240 0.930 . S
H1299 C1241 0.930 . S
H1300 C1243 0.930 . S
H1301 C1245 0.929 . S
H1302 C1246 0.930 1_655 S
H1303 C1247 0.930 . S
H1304 C1250 0.930 . S
H1305 C1253 0.929 . S
H1306 C1258 0.929 1_655 S
H1307 C1259 0.930 . S
H1308 C1266 0.929 . S
H1309 C1267 0.930 . S
H1310 C1268 0.930 . S
H1311 C1269 0.930 . S
H1312 C1271 0.929 . S
H1313 C1272 0.930 . S
H1314 C1273 0.930 . S
H1315 C1274 0.930 . S
H1316 C1278 0.929 . S
H1317 C1280 0.930 . S
H1318 C1286 0.929 . S
H1319 C1287 0.930 . S
Li1320 N1337 1.990 . S
Li1320 O1380 1.956 . S
Li1320 O1381 1.970 . S
Li1320 O1382 1.961 . S
Li1321 N1345 1.990 . S
Li1321 O1380 1.970 . S
Li1321 O1381 1.956 . S
Li1321 O1383 1.961 . S
Li1322 N1367 1.990 . S
Li1322 O1380 1.961 . S
Li1322 O1382 1.956 . S
Li1322 O1383 1.970 . S
Li1323 N1373 1.990 . S
Li1323 O1381 1.961 . S
Li1323 O1382 1.970 . S
Li1323 O1383 1.956 . S
C1324 C1326 1.348 . S
C1324 C1327 1.374 . S
C1324 O1380 1.325 . S
N1325 C1328 1.314 1_545 S
N1325 C1329 1.279 . S
C1326 C1324 1.348 . S
C1326 C1328 1.353 . S
C1326 H1384 0.929 . S
C1327 C1324 1.374 . S
C1327 C1329 1.349 1_565 S
C1327 H1385 0.922 1_565 S
C1328 N1325 1.314 1_565 S
C1328 C1326 1.353 . S
C1328 H1386 0.930 . S
C1329 N1325 1.279 . S
C1329 C1327 1.349 1_545 S
C1329 H1387 0.930 . S
C1330 C1333 1.348 . S
C1330 C1334 1.356 . S
C1330 O1381 1.325 . S
C1331 N1332 1.279 . S
C1331 C1334 1.358 . S
C1331 H1388 0.930 . S
N1332 C1331 1.279 . S
N1332 C1335 1.314 . S
C1333 C1330 1.348 . S
C1333 C1335 1.353 . S
C1333 H1389 0.929 . S
C1334 C1330 1.356 . S
C1334 C1331 1.358 . S
C1334 H1390 0.930 . S
C1335 N1332 1.314 . S
C1335 C1333 1.353 . S
C1335 H1391 0.930 . S
C1336 N1337 1.314 . S
C1336 C1341 1.353 . S
C1336 H1342 0.930 . S
N1337 Li1320 1.990 . S
N1337 C1336 1.314 . S
N1337 C1339 1.279 . S
C1338 C1339 1.359 . S
C1338 C1340 1.355 1_565 S
C1338 H1392 0.929 1_565 S
C1339 N1337 1.279 . S
C1339 C1338 1.359 . S
C1339 H1343 0.930 . S
C1340 C1338 1.355 1_545 S
C1340 C1341 1.345 1_545 S
C1341 C1336 1.353 . S
C1341 C1340 1.345 1_565 S
C1341 H1393 0.929 . S
H1342 C1336 0.930 . S
H1343 C1339 0.930 . S
C1344 N1345 1.314 . S
C1344 C1346 1.353 . S
C1344 H1350 0.930 . S
N1345 Li1321 1.990 . S
N1345 C1344 1.314 . S
N1345 C1348 1.279 . S
C1346 C1344 1.353 . S
C1346 C1349 1.348 . S
C1346 H1394 0.929 . S
C1347 C1348 1.358 . S
C1347 C1349 1.356 . S
C1347 H1395 0.930 . S
C1348 N1345 1.279 . S
C1348 C1347 1.358 . S
C1348 H1351 0.930 . S
C1349 C1346 1.348 . S
C1349 C1347 1.356 . S
H1350 C1344 0.930 . S
H1351 C1348 0.930 . S
C1352 C1354 1.348 . S
C1352 C1355 1.356 . S
C1352 O1382 1.325 . S
N1353 C1356 1.314 1_545 S
N1353 C1357 1.279 . S
C1354 C1352 1.348 . S
C1354 C1356 1.353 . S
C1354 H1396 0.929 . S
C1355 C1352 1.356 . S
C1355 C1357 1.358 1_565 S
C1355 H1397 0.930 1_565 S
C1356 N1353 1.314 1_565 S
C1356 C1354 1.353 . S
C1356 H1398 0.930 . S
C1357 N1353 1.279 . S
C1357 C1355 1.358 1_545 S
C1357 H1399 0.930 . S
C1358 C1359 1.348 . S
C1358 C1360 1.356 . S
C1358 O1383 1.325 . S
C1359 C1358 1.348 . S
C1359 C1361 1.353 . S
C1359 H1400 0.929 . S
C1360 C1358 1.356 . S
C1360 C1362 1.358 . S
C1360 H1401 0.930 . S
C1361 C1359 1.353 . S
C1361 N1363 1.314 . S
C1361 H1402 0.930 . S
C1362 C1360 1.358 . S
C1362 N1363 1.279 . S
C1362 H1403 0.930 . S
N1363 C1361 1.314 . S
N1363 C1362 1.279 . S
C1364 C1366 1.353 1_565 S
C1364 N1367 1.314 . S
C1364 H1370 0.930 . S
C1365 N1367 1.279 . S
C1365 C1368 1.358 1_565 S
C1365 H1371 0.930 . S
C1366 C1364 1.353 1_545 S
C1366 C1369 1.348 . S
C1366 H1404 0.929 . S
N1367 Li1322 1.990 . S
N1367 C1364 1.314 . S
N1367 C1365 1.279 . S
C1368 C1365 1.358 1_545 S
C1368 C1369 1.356 . S
C1368 H1405 0.930 . S
C1369 C1366 1.348 . S
C1369 C1368 1.356 . S
H1370 C1364 0.930 . S
H1371 C1365 0.930 . S
C1372 N1373 1.314 . S
C1372 C1374 1.353 . S
C1372 H1378 0.930 . S
N1373 Li1323 1.990 . S
N1373 C1372 1.314 . S
N1373 C1376 1.279 . S
C1374 C1372 1.353 . S
C1374 C1377 1.348 . S
C1374 H1406 0.929 . S
C1375 C1376 1.358 . S
C1375 C1377 1.356 . S
C1375 H1407 0.930 . S
C1376 N1373 1.279 . S
C1376 C1375 1.358 . S
C1376 H1379 0.930 . S
C1377 C1374 1.348 . S
C1377 C1375 1.356 . S
H1378 C1372 0.930 . S
H1379 C1376 0.930 . S
O1380 Li1320 1.956 . S
O1380 Li1321 1.970 . S
O1380 Li1322 1.961 . S
O1380 C1324 1.325 . S
O1381 Li1320 1.970 . S
O1381 Li1321 1.956 . S
O1381 Li1323 1.961 . S
O1381 C1330 1.325 . S
O1382 Li1320 1.961 . S
O1382 Li1322 1.956 . S
O1382 Li1323 1.970 . S
O1382 C1352 1.325 . S
O1383 Li1321 1.961 . S
O1383 Li1322 1.970 . S
O1383 Li1323 1.956 . S
O1383 C1358 1.325 . S
H1384 C1326 0.929 . S
H1385 C1327 0.922 1_545 S
H1386 C1328 0.930 . S
H1387 C1329 0.930 . S
H1388 C1331 0.930 . S
H1389 C1333 0.929 . S
H1390 C1334 0.930 . S
H1391 C1335 0.930 . S
H1392 C1338 0.929 1_545 S
H1393 C1341 0.929 . S
H1394 C1346 0.929 . S
H1395 C1347 0.930 . S
H1396 C1354 0.929 . S
H1397 C1355 0.930 1_545 S
H1398 C1356 0.930 . S
H1399 C1357 0.930 . S
H1400 C1359 0.929 . S
H1401 C1360 0.930 . S
H1402 C1361 0.930 . S
H1403 C1362 0.930 . S
H1404 C1366 0.929 . S
H1405 C1368 0.930 . S
H1406 C1374 0.929 . S
H1407 C1375 0.930 . S
Li1408 N1425 1.990 . S
Li1408 O1468 1.956 1_545 S
Li1408 O1469 1.970 1_545 S
Li1408 O1470 1.961 . S
Li1409 N1433 1.990 . S
Li1409 O1468 1.970 . S
Li1409 O1469 1.956 . S
Li1409 O1471 1.961 . S
Li1410 N1455 1.990 . S
Li1410 O1468 1.961 1_545 S
Li1410 O1470 1.956 . S
Li1410 O1471 1.970 1_545 S
Li1411 N1461 1.990 . S
Li1411 O1469 1.961 1_545 S
Li1411 O1470 1.970 . S
Li1411 O1471 1.956 1_545 S
C1412 C1414 1.348 . S
C1412 C1415 1.356 . S
C1412 O1468 1.325 . S
N1413 C1416 1.314 . S
N1413 C1417 1.279 . S
C1414 C1412 1.348 . S
C1414 C1416 1.353 . S
C1414 H1472 0.929 . S
C1415 C1412 1.356 . S
C1415 C1417 1.358 . S
C1415 H1473 0.930 . S
C1416 N1413 1.314 . S
C1416 C1414 1.353 . S
C1416 H1474 0.930 . S
C1417 N1413 1.279 . S
C1417 C1415 1.358 . S
C1417 H1475 0.893 1_655 S
C1418 C1421 1.348 . S
C1418 C1422 1.356 . S
C1418 O1469 1.325 . S
C1419 N1420 1.279 . S
C1419 C1422 1.358 . S
C1419 H1476 0.930 . S
N1420 C1419 1.279 . S
N1420 C1423 1.314 . S
C1421 C1418 1.348 . S
C1421 C1423 1.353 . S
C1421 H1477 0.929 . S
C1422 C1418 1.356 . S
C1422 C1419 1.358 . S
C1422 H1478 0.930 . S
C1423 N1420 1.314 . S
C1423 C1421 1.353 . S
C1423 H1479 0.930 . S
C1424 N1425 1.314 . S
C1424 C1429 1.353 . S
C1424 H1430 0.930 . S
N1425 Li1408 1.990 . S
N1425 C1424 1.314 . S
N1425 C1427 1.279 1_545 S
C1426 C1427 1.358 . S
C1426 C1428 1.356 1_565 S
C1426 H1480 0.930 . S
C1427 N1425 1.279 1_565 S
C1427 C1426 1.358 . S
C1427 H1431 0.930 . S
C1428 C1426 1.356 1_545 S
C1428 C1429 1.348 . S
C1429 C1424 1.353 . S
C1429 C1428 1.348 . S
C1429 H1481 0.929 . S
H1430 C1424 0.930 . S
H1431 C1427 0.930 . S
C1432 N1433 1.314 . S
C1432 C1434 1.353 . S
C1432 H1438 0.930 . S
N1433 Li1409 1.990 . S
N1433 C1432 1.314 . S
N1433 C1436 1.279 . S
C1434 C1432 1.353 . S
C1434 C1437 1.348 . S
C1434 H1482 0.929 . S
C1435 C1436 1.358 . S
C1435 C1437 1.356 . S
C1435 H1483 0.930 . S
C1436 N1433 1.279 . S
C1436 C1435 1.358 . S
C1436 H1439 0.930 . S
C1437 C1434 1.348 . S
C1437 C1435 1.356 . S
H1438 C1432 0.930 . S
H1439 C1436 0.930 . S
C1440 C1442 1.348 . S
C1440 C1443 1.356 . S
C1440 O1470 1.325 . S
N1441 C1444 1.314 . S
N1441 C1445 1.279 . S
C1442 C1440 1.348 . S
C1442 C1444 1.353 . S
C1442 H1484 0.929 . S
C1443 C1440 1.356 . S
C1443 C1445 1.358 . S
C1443 H1485 0.930 . S
C1444 N1441 1.314 . S
C1444 C1442 1.353 . S
C1444 H1486 0.930 . S
C1445 N1441 1.279 . S
C1445 C1443 1.358 . S
C1445 H1487 0.930 1_655 S
C1446 C1447 1.341 1_565 S
C1446 C1448 1.356 . S
C1446 O1471 1.325 . S
C1447 C1446 1.341 1_545 S
C1447 C1449 1.355 1_545 S
C1447 H1488 0.934 . S
C1448 C1446 1.356 . S
C1448 C1450 1.358 . S
C1448 H1489 0.930 . S
C1449 C1447 1.355 1_565 S
C1449 N1451 1.314 . S
C1449 H1490 0.930 1_565 S
C1450 C1448 1.358 . S
C1450 N1451 1.279 . S
C1450 H1491 0.930 . S
N1451 C1449 1.314 . S
N1451 C1450 1.279 . S
C1452 C1454 1.353 . S
C1452 N1455 1.314 1_565 S
C1452 H1458 0.930 . S
C1453 N1455 1.279 . S
C1453 C1456 1.358 . S
C1453 H1459 0.930 . S
C1454 C1452 1.353 . S
C1454 C1457 1.348 1_565 S
C1454 H1492 0.929 . S
N1455 Li1410 1.990 . S
N1455 C1452 1.314 1_545 S
N1455 C1453 1.279 . S
C1456 C1453 1.358 . S
C1456 C1457 1.356 . S
C1456 H1493 0.930 . S
C1457 C1454 1.348 1_545 S
C1457 C1456 1.356 . S
H1458 C1452 0.930 . S
H1459 C1453 0.930 . S
C1460 N1461 1.314 . S
C1460 C1462 1.353 . S
C1460 H1466 0.930 . S
N1461 Li1411 1.990 . S
N1461 C1460 1.314 . S
N1461 C1464 1.279 . S
C1462 C1460 1.353 . S
C1462 C1465 1.348 . S
C1462 H1494 0.929 . S
C1463 C1464 1.358 . S
C1463 C1465 1.356 . S
C1463 H1495 0.930 . S
C1464 N1461 1.279 . S
C1464 C1463 1.358 . S
C1464 H1467 0.930 . S
C1465 C1462 1.348 . S
C1465 C1463 1.356 . S
H1466 C1460 0.930 . S
H1467 C1464 0.930 . S
O1468 Li1408 1.956 1_565 S
O1468 Li1409 1.970 . S
O1468 Li1410 1.961 1_565 S
O1468 C1412 1.325 . S
O1469 Li1408 1.970 1_565 S
O1469 Li1409 1.956 . S
O1469 Li1411 1.961 1_565 S
O1469 C1418 1.325 . S
O1470 Li1408 1.961 . S
O1470 Li1410 1.956 . S
O1470 Li1411 1.970 . S
O1470 C1440 1.325 . S
O1471 Li1409 1.961 . S
O1471 Li1410 1.970 1_565 S
O1471 Li1411 1.956 1_565 S
O1471 C1446 1.325 . S
H1472 C1414 0.929 . S
H1473 C1415 0.930 . S
H1474 C1416 0.930 . S
H1475 C1417 0.893 1_455 S
H1476 C1419 0.930 . S
H1477 C1421 0.929 . S
H1478 C1422 0.930 . S
H1479 C1423 0.930 . S
H1480 C1426 0.930 . S
H1481 C1429 0.929 . S
H1482 C1434 0.929 . S
H1483 C1435 0.930 . S
H1484 C1442 0.929 . S
H1485 C1443 0.930 . S
H1486 C1444 0.930 . S
H1487 C1445 0.930 1_455 S
H1488 C1447 0.934 . S
H1489 C1448 0.930 . S
H1490 C1449 0.930 1_545 S
H1491 C1450 0.930 . S
H1492 C1454 0.929 . S
H1493 C1456 0.930 . S
H1494 C1462 0.929 . S
H1495 C1463 0.930 . S
Li1496 N1513 1.990 . S
Li1496 O1556 1.956 . S
Li1496 O1557 1.970 . S
Li1496 O1558 1.961 . S
Li1497 N1521 1.990 . S
Li1497 O1556 1.970 . S
Li1497 O1557 1.956 . S
Li1497 O1559 1.961 . S
Li1498 N1543 1.990 . S
Li1498 O1556 1.961 . S
Li1498 O1558 1.956 . S
Li1498 O1559 1.970 . S
Li1499 N1549 1.990 . S
Li1499 O1557 1.961 . S
Li1499 O1558 1.970 . S
Li1499 O1559 1.956 . S
C1500 C1502 1.348 . S
C1500 C1503 1.356 . S
C1500 O1556 1.325 . S
N1501 C1504 1.314 . S
N1501 C1505 1.279 . S
C1502 C1500 1.348 . S
C1502 C1504 1.353 . S
C1502 H1560 0.929 . S
C1503 C1500 1.356 . S
C1503 C1505 1.358 . S
C1503 H1561 0.930 . S
C1504 N1501 1.314 . S
C1504 C1502 1.353 . S
C1504 H1562 0.930 . S
C1505 N1501 1.279 . S
C1505 C1503 1.358 . S
C1505 H1563 0.930 . S
C1506 C1509 1.348 . S
C1506 C1510 1.356 . S
C1506 O1557 1.325 . S
C1507 N1508 1.279 . S
C1507 C1510 1.358 . S
C1507 H1564 0.930 . S
N1508 C1507 1.279 . S
N1508 C1511 1.314 . S
C1509 C1506 1.348 . S
C1509 C1511 1.353 . S
C1509 H1565 0.929 . S
C1510 C1506 1.356 . S
C1510 C1507 1.358 . S
C1510 H1566 0.930 . S
C1511 N1508 1.314 . S
C1511 C1509 1.353 . S
C1511 H1567 0.930 . S
C1512 N1513 1.314 . S
C1512 C1517 1.353 . S
C1512 H1518 0.930 . S
N1513 Li1496 1.990 . S
N1513 C1512 1.314 . S
N1513 C1515 1.279 . S
C1514 C1515 1.358 . S
C1514 C1516 1.356 . S
C1514 H1568 0.930 . S
C1515 N1513 1.279 . S
C1515 C1514 1.358 . S
C1515 H1519 0.930 . S
C1516 C1514 1.356 . S
C1516 C1517 1.348 . S
C1517 C1512 1.353 . S
C1517 C1516 1.348 . S
C1517 H1569 0.929 . S
H1518 C1512 0.930 . S
H1519 C1515 0.930 . S
C1520 N1521 1.314 . S
C1520 C1522 1.353 . S
C1520 H1526 0.930 . S
N1521 Li1497 1.990 . S
N1521 C1520 1.314 . S
N1521 C1524 1.279 . S
C1522 C1520 1.353 . S
C1522 C1525 1.348 . S
C1522 H1570 0.929 . S
C1523 C1524 1.358 . S
C1523 C1525 1.356 . S
C1523 H1571 0.930 . S
C1524 N1521 1.279 . S
C1524 C1523 1.358 . S
C1524 H1527 0.930 . S
C1525 C1522 1.348 . S
C1525 C1523 1.356 . S
H1526 C1520 0.930 . S
H1527 C1524 0.930 . S
C1528 C1530 1.348 . S
C1528 C1531 1.356 . S
C1528 O1558 1.325 . S
N1529 C1532 1.314 . S
N1529 C1533 1.279 . S
C1530 C1528 1.348 . S
C1530 C1532 1.353 . S
C1530 H1572 0.929 . S
C1531 C1528 1.356 . S
C1531 C1533 1.358 . S
C1531 H1573 0.930 . S
C1532 N1529 1.314 . S
C1532 C1530 1.353 . S
C1532 H1574 0.930 . S
C1533 N1529 1.279 . S
C1533 C1531 1.358 . S
C1533 H1575 0.930 . S
C1534 C1535 1.348 . S
C1534 C1536 1.356 . S
C1534 O1559 1.325 . S
C1535 C1534 1.348 . S
C1535 C1537 1.353 . S
C1535 H1576 0.929 . S
C1536 C1534 1.356 . S
C1536 C1538 1.358 . S
C1536 H1577 0.930 . S
C1537 C1535 1.353 . S
C1537 N1539 1.314 . S
C1537 H1578 0.930 . S
C1538 C1536 1.358 . S
C1538 N1539 1.279 . S
C1538 H1579 0.930 . S
N1539 C1537 1.314 . S
N1539 C1538 1.279 . S
C1540 C1542 1.353 . S
C1540 N1543 1.314 . S
C1540 H1546 0.930 . S
C1541 N1543 1.279 . S
C1541 C1544 1.358 . S
C1541 H1547 0.930 . S
C1542 C1540 1.353 . S
C1542 C1545 1.348 . S
C1542 H1580 0.929 . S
N1543 Li1498 1.990 . S
N1543 C1540 1.314 . S
N1543 C1541 1.279 . S
C1544 C1541 1.358 . S
C1544 C1545 1.356 . S
C1544 H1581 0.930 . S
C1545 C1542 1.348 . S
C1545 C1544 1.356 . S
H1546 C1540 0.930 . S
H1547 C1541 0.930 . S
C1548 N1549 1.314 . S
C1548 C1550 1.353 . S
C1548 H1554 0.930 . S
N1549 Li1499 1.990 . S
N1549 C1548 1.314 . S
N1549 C1552 1.279 . S
C1550 C1548 1.353 . S
C1550 C1553 1.348 . S
C1550 H1582 0.929 . S
C1551 C1552 1.358 . S
C1551 C1553 1.356 . S
C1551 H1583 0.930 . S
C1552 N1549 1.279 . S
C1552 C1551 1.358 . S
C1552 H1555 0.930 . S
C1553 C1550 1.348 . S
C1553 C1551 1.356 . S
H1554 C1548 0.930 . S
H1555 C1552 0.930 . S
O1556 Li1496 1.956 . S
O1556 Li1497 1.970 . S
O1556 Li1498 1.961 . S
O1556 C1500 1.325 . S
O1557 Li1496 1.970 . S
O1557 Li1497 1.956 . S
O1557 Li1499 1.961 . S
O1557 C1506 1.325 . S
O1558 Li1496 1.961 . S
O1558 Li1498 1.956 . S
O1558 Li1499 1.970 . S
O1558 C1528 1.325 . S
O1559 Li1497 1.961 . S
O1559 Li1498 1.970 . S
O1559 Li1499 1.956 . S
O1559 C1534 1.325 . S
H1560 C1502 0.929 . S
H1561 C1503 0.930 . S
H1562 C1504 0.930 . S
H1563 C1505 0.930 . S
H1564 C1507 0.930 . S
H1565 C1509 0.929 . S
H1566 C1510 0.930 . S
H1567 C1511 0.930 . S
H1568 C1514 0.930 . S
H1569 C1517 0.929 . S
H1570 C1522 0.929 . S
H1571 C1523 0.930 . S
H1572 C1530 0.929 . S
H1573 C1531 0.930 . S
H1574 C1532 0.930 . S
H1575 C1533 0.930 . S
H1576 C1535 0.929 . S
H1577 C1536 0.930 . S
H1578 C1537 0.930 . S
H1579 C1538 0.930 . S
H1580 C1542 0.929 . S
H1581 C1544 0.930 . S
H1582 C1550 0.929 . S
H1583 C1551 0.930 . S
Li1584 N1601 1.990 . S
Li1584 O1644 1.956 . S
Li1584 O1645 1.970 . S
Li1584 O1646 1.961 . S
Li1585 N1609 1.990 . S
Li1585 O1644 1.970 . S
Li1585 O1645 1.956 . S
Li1585 O1647 1.961 . S
Li1586 N1631 1.990 . S
Li1586 O1644 1.961 . S
Li1586 O1646 1.956 . S
Li1586 O1647 1.970 . S
Li1587 N1637 1.990 . S
Li1587 O1645 1.961 . S
Li1587 O1646 1.970 . S
Li1587 O1647 1.956 . S
C1588 C1590 1.348 . S
C1588 C1591 1.356 . S
C1588 O1644 1.325 . S
N1589 C1592 1.314 . S
N1589 C1593 1.279 . S
C1590 C1588 1.348 . S
C1590 C1592 1.353 . S
C1590 H1648 0.929 . S
C1591 C1588 1.356 . S
C1591 C1593 1.358 . S
C1591 H1649 0.930 . S
C1592 N1589 1.314 . S
C1592 C1590 1.353 . S
C1592 H1650 0.930 . S
C1593 N1589 1.279 . S
C1593 C1591 1.358 . S
C1593 H1651 0.930 . S
C1594 C1597 1.348 . S
C1594 C1598 1.356 . S
C1594 O1645 1.325 . S
C1595 N1596 1.279 . S
C1595 C1598 1.358 . S
C1595 H1652 0.930 . S
N1596 C1595 1.279 . S
N1596 C1599 1.314 . S
C1597 C1594 1.348 . S
C1597 C1599 1.353 . S
C1597 H1653 0.929 . S
C1598 C1594 1.356 . S
C1598 C1595 1.358 . S
C1598 H1654 0.930 . S
C1599 N1596 1.314 . S
C1599 C1597 1.353 . S
C1599 H1655 0.930 . S
C1600 N1601 1.314 . S
C1600 C1605 1.353 . S
C1600 H1606 0.930 . S
N1601 Li1584 1.990 . S
N1601 C1600 1.314 . S
N1601 C1603 1.279 . S
C1602 C1603 1.358 . S
C1602 C1604 1.356 . S
C1602 H1656 0.930 . S
C1603 N1601 1.279 . S
C1603 C1602 1.358 . S
C1603 H1607 0.930 . S
C1604 C1602 1.356 . S
C1604 C1605 1.348 . S
C1605 C1600 1.353 . S
C1605 C1604 1.348 . S
C1605 H1657 0.929 . S
H1606 C1600 0.930 . S
H1607 C1603 0.930 . S
C1608 N1609 1.314 . S
C1608 C1610 1.353 . S
C1608 H1614 0.930 . S
N1609 Li1585 1.990 . S
N1609 C1608 1.314 . S
N1609 C1612 1.279 . S
C1610 C1608 1.353 . S
C1610 C1613 1.348 . S
C1610 H1658 0.929 . S
C1611 C1612 1.358 . S
C1611 C1613 1.356 . S
C1611 H1659 0.930 . S
C1612 N1609 1.279 . S
C1612 C1611 1.358 . S
C1612 H1615 0.930 . S
C1613 C1610 1.348 . S
C1613 C1611 1.356 . S
H1614 C1608 0.930 . S
H1615 C1612 0.930 . S
C1616 C1618 1.348 . S
C1616 C1619 1.356 . S
C1616 O1646 1.325 . S
N1617 C1620 1.314 . S
N1617 C1621 1.279 . S
C1618 C1616 1.348 . S
C1618 C1620 1.353 . S
C1618 H1660 0.929 . S
C1619 C1616 1.356 . S
C1619 C1621 1.358 . S
C1619 H1661 0.930 . S
C1620 N1617 1.314 . S
C1620 C1618 1.353 . S
C1620 H1662 0.930 . S
C1621 N1617 1.279 . S
C1621 C1619 1.358 . S
C1621 H1663 0.930 . S
C1622 C1623 1.348 . S
C1622 C1624 1.356 . S
C1622 O1647 1.325 . S
C1623 C1622 1.348 . S
C1623 C1625 1.353 . S
C1623 H1664 0.929 . S
C1624 C1622 1.356 . S
C1624 C1626 1.358 . S
C1624 H1665 0.930 . S
C1625 C1623 1.353 . S
C1625 N1627 1.314 . S
C1625 H1666 0.930 . S
C1626 C1624 1.358 . S
C1626 N1627 1.279 . S
C1626 H1667 0.930 . S
N1627 C1625 1.314 . S
N1627 C1626 1.279 . S
C1628 C1630 1.353 . S
C1628 N1631 1.314 . S
C1628 H1634 0.930 . S
C1629 N1631 1.279 . S
C1629 C1632 1.358 . S
C1629 H1635 0.930 . S
C1630 C1628 1.353 . S
C1630 C1633 1.348 . S
C1630 H1668 0.929 . S
N1631 Li1586 1.990 . S
N1631 C1628 1.314 . S
N1631 C1629 1.279 . S
C1632 C1629 1.358 . S
C1632 C1633 1.356 . S
C1632 H1669 0.930 . S
C1633 C1630 1.348 . S
C1633 C1632 1.356 . S
H1634 C1628 0.930 . S
H1635 C1629 0.930 . S
C1636 N1637 1.314 . S
C1636 C1638 1.353 . S
C1636 H1642 0.930 . S
N1637 Li1587 1.990 . S
N1637 C1636 1.314 . S
N1637 C1640 1.279 . S
C1638 C1636 1.353 . S
C1638 C1641 1.348 . S
C1638 H1670 0.929 . S
C1639 C1640 1.358 . S
C1639 C1641 1.356 . S
C1639 H1671 0.930 . S
C1640 N1637 1.279 . S
C1640 C1639 1.358 . S
C1640 H1643 0.930 . S
C1641 C1638 1.348 . S
C1641 C1639 1.356 . S
H1642 C1636 0.930 . S
H1643 C1640 0.930 . S
O1644 Li1584 1.956 . S
O1644 Li1585 1.970 . S
O1644 Li1586 1.961 . S
O1644 C1588 1.325 . S
O1645 Li1584 1.970 . S
O1645 Li1585 1.956 . S
O1645 Li1587 1.961 . S
O1645 C1594 1.325 . S
O1646 Li1584 1.961 . S
O1646 Li1586 1.956 . S
O1646 Li1587 1.970 . S
O1646 C1616 1.325 . S
O1647 Li1585 1.961 . S
O1647 Li1586 1.970 . S
O1647 Li1587 1.956 . S
O1647 C1622 1.325 . S
H1648 C1590 0.929 . S
H1649 C1591 0.930 . S
H1650 C1592 0.930 . S
H1651 C1593 0.930 . S
H1652 C1595 0.930 . S
H1653 C1597 0.929 . S
H1654 C1598 0.930 . S
H1655 C1599 0.930 . S
H1656 C1602 0.930 . S
H1657 C1605 0.929 . S
H1658 C1610 0.929 . S
H1659 C1611 0.930 . S
H1660 C1618 0.929 . S
H1661 C1619 0.930 . S
H1662 C1620 0.930 . S
H1663 C1621 0.930 . S
H1664 C1623 0.929 . S
H1665 C1624 0.930 . S
H1666 C1625 0.930 . S
H1667 C1626 0.930 . S
H1668 C1630 0.929 . S
H1669 C1632 0.930 . S
H1670 C1638 0.929 . S
H1671 C1639 0.930 . S
Li1672 N1689 1.990 . S
Li1672 O1732 1.956 . S
Li1672 O1733 1.970 . S
Li1672 O1734 1.961 1_545 S
Li1673 N1697 1.990 . S
Li1673 O1732 1.970 . S
Li1673 O1733 1.956 . S
Li1673 O1735 1.961 . S
Li1674 N1719 1.991 1_545 S
Li1674 O1732 1.961 . S
Li1674 O1734 1.956 1_545 S
Li1674 O1735 1.970 . S
Li1675 N1725 1.990 . S
Li1675 O1733 1.961 1_565 S
Li1675 O1734 1.970 . S
Li1675 O1735 1.956 1_565 S
C1676 C1678 1.348 . S
C1676 C1679 1.356 . S
C1676 O1732 1.325 . S
N1677 C1680 1.314 . S
N1677 C1681 1.279 . S
C1678 C1676 1.348 . S
C1678 C1680 1.353 . S
C1678 H1736 0.929 . S
C1679 C1676 1.356 . S
C1679 C1681 1.358 . S
C1679 H1737 0.930 . S
C1680 N1677 1.314 . S
C1680 C1678 1.353 . S
C1680 H1738 0.930 . S
C1681 N1677 1.279 . S
C1681 C1679 1.358 . S
C1681 H1739 0.930 . S
C1682 C1685 1.348 . S
C1682 C1686 1.356 . S
C1682 O1733 1.325 . S
C1683 N1684 1.279 . S
C1683 C1686 1.358 . S
C1683 H1740 0.930 . S
N1684 C1683 1.279 . S
N1684 C1687 1.314 . S
C1685 C1682 1.348 . S
C1685 C1687 1.353 . S
C1685 H1741 0.929 . S
C1686 C1682 1.356 . S
C1686 C1683 1.358 . S
C1686 H1742 0.930 . S
C1687 N1684 1.314 . S
C1687 C1685 1.353 . S
C1687 H1743 0.930 . S
C1688 N1689 1.314 1_565 S
C1688 C1693 1.353 . S
C1688 H1694 0.930 . S
N1689 Li1672 1.990 . S
N1689 C1688 1.314 1_545 S
N1689 C1691 1.279 . S
C1690 C1691 1.358 . S
C1690 C1692 1.356 . S
C1690 H1744 0.930 . S
C1691 N1689 1.279 . S
C1691 C1690 1.358 . S
C1691 H1695 0.930 . S
C1692 C1690 1.356 . S
C1692 C1693 1.348 1_545 S
C1693 C1688 1.353 . S
C1693 C1692 1.348 1_565 S
C1693 H1745 0.929 . S
H1694 C1688 0.930 . S
H1695 C1691 0.930 . S
C1696 N1697 1.314 . S
C1696 C1698 1.353 . S
C1696 H1702 0.930 . S
N1697 Li1673 1.990 . S
N1697 C1696 1.314 . S
N1697 C1700 1.279 . S
C1698 C1696 1.353 . S
C1698 C1701 1.348 . S
C1698 H1746 0.929 . S
C1699 C1700 1.358 . S
C1699 C1701 1.356 . S
C1699 H1747 0.930 . S
C1700 N1697 1.279 . S
C1700 C1699 1.358 . S
C1700 H1703 0.930 . S
C1701 C1698 1.348 . S
C1701 C1699 1.356 . S
H1702 C1696 0.930 . S
H1703 C1700 0.930 . S
C1704 C1706 1.348 . S
C1704 C1707 1.356 . S
C1704 O1734 1.325 . S
N1705 C1708 1.314 . S
N1705 C1709 1.279 . S
C1706 C1704 1.348 . S
C1706 C1708 1.353 . S
C1706 H1748 0.929 . S
C1707 C1704 1.356 . S
C1707 C1709 1.358 . S
C1707 H1749 0.930 . S
C1708 N1705 1.314 . S
C1708 C1706 1.353 . S
C1708 H1750 0.930 . S
C1709 N1705 1.279 . S
C1709 C1707 1.358 . S
C1709 H1751 0.930 . S
C1710 C1711 1.348 . S
C1710 C1712 1.356 . S
C1710 O1735 1.325 . S
C1711 C1710 1.348 . S
C1711 C1713 1.353 . S
C1711 H1752 0.929 1_545 S
C1712 C1710 1.356 . S
C1712 C1714 1.358 . S
C1712 H1753 0.930 . S
C1713 C1711 1.353 . S
C1713 N1715 1.314 . S
C1713 H1754 0.930 1_545 S
C1714 C1712 1.358 . S
C1714 N1715 1.279 . S
C1714 H1755 0.930 . S
N1715 C1713 1.314 . S
N1715 C1714 1.279 . S
C1716 C1718 1.353 . S
C1716 N1719 1.308 1_545 S
C1716 H1722 0.930 . S
C1717 N1719 1.285 . S
C1717 C1720 1.358 . S
C1717 H1723 0.930 . S
C1718 C1716 1.353 . S
C1718 C1721 1.348 1_545 S
C1718 H1756 0.929 . S
N1719 Li1674 1.991 1_565 S
N1719 C1716 1.308 1_565 S
N1719 C1717 1.285 . S
C1720 C1717 1.358 . S
C1720 C1721 1.356 . S
C1720 H1757 0.930 . S
C1721 C1718 1.348 1_565 S
C1721 C1720 1.356 . S
H1722 C1716 0.930 . S
H1723 C1717 0.930 . S
C1724 N1725 1.314 . S
C1724 C1726 1.353 . S
C1724 H1730 0.930 . S
N1725 Li1675 1.990 . S
N1725 C1724 1.314 . S
N1725 C1728 1.279 . S
C1726 C1724 1.353 . S
C1726 C1729 1.348 . S
C1726 H1758 0.929 . S
C1727 C1728 1.358 . S
C1727 C1729 1.356 . S
C1727 H1759 0.930 . S
C1728 N1725 1.279 . S
C1728 C1727 1.358 . S
C1728 H1731 0.930 . S
C1729 C1726 1.348 . S
C1729 C1727 1.356 . S
H1730 C1724 0.930 . S
H1731 C1728 0.930 . S
O1732 Li1672 1.956 . S
O1732 Li1673 1.970 . S
O1732 Li1674 1.961 . S
O1732 C1676 1.325 . S
O1733 Li1672 1.970 . S
O1733 Li1673 1.956 . S
O1733 Li1675 1.961 1_545 S
O1733 C1682 1.325 . S
O1734 Li1672 1.961 1_565 S
O1734 Li1674 1.956 1_565 S
O1734 Li1675 1.970 . S
O1734 C1704 1.325 . S
O1735 Li1673 1.961 . S
O1735 Li1674 1.970 . S
O1735 Li1675 1.956 1_545 S
O1735 C1710 1.325 . S
H1736 C1678 0.929 . S
H1737 C1679 0.930 . S
H1738 C1680 0.930 . S
H1739 C1681 0.930 . S
H1740 C1683 0.930 . S
H1741 C1685 0.929 . S
H1742 C1686 0.930 . S
H1743 C1687 0.930 . S
H1744 C1690 0.930 . S
H1745 C1693 0.929 . S
H1746 C1698 0.929 . S
H1747 C1699 0.930 . S
H1748 C1706 0.929 . S
H1749 C1707 0.930 . S
H1750 C1708 0.930 . S
H1751 C1709 0.930 . S
H1752 C1711 0.929 1_565 S
H1753 C1712 0.930 . S
H1754 C1713 0.930 1_565 S
H1755 C1714 0.930 . S
H1756 C1718 0.929 . S
H1757 C1720 0.930 . S
H1758 C1726 0.929 . S
H1759 C1727 0.930 . S
Li1760 N1777 1.990 . S
Li1760 O1820 1.956 . S
Li1760 O1821 1.970 . S
Li1760 O1822 1.961 . S
Li1761 N1785 1.990 . S
Li1761 O1820 1.970 . S
Li1761 O1821 1.956 . S
Li1761 O1823 1.961 1_554 S
Li1762 N1807 1.990 . S
Li1762 O1820 1.961 1_556 S
Li1762 O1822 1.956 1_556 S
Li1762 O1823 1.970 . S
Li1763 N1813 1.990 . S
Li1763 O1821 1.961 . S
Li1763 O1822 1.970 . S
Li1763 O1823 1.956 1_554 S
C1764 C1766 1.348 . S
C1764 C1767 1.356 . S
C1764 O1820 1.325 . S
N1765 C1768 1.314 . S
N1765 C1769 1.279 . S
C1766 C1764 1.348 . S
C1766 C1768 1.353 . S
C1766 H1824 0.929 . S
C1767 C1764 1.356 . S
C1767 C1769 1.358 . S
C1767 H1825 0.930 . S
C1768 N1765 1.314 . S
C1768 C1766 1.353 . S
C1768 H1826 0.930 . S
C1769 N1765 1.279 . S
C1769 C1767 1.358 . S
C1769 H1827 0.930 . S
C1770 C1773 1.348 . S
C1770 C1774 1.356 . S
C1770 O1821 1.325 . S
C1771 N1772 1.279 . S
C1771 C1774 1.358 . S
C1771 H1828 0.930 . S
N1772 C1771 1.279 . S
N1772 C1775 1.314 . S
C1773 C1770 1.348 . S
C1773 C1775 1.353 . S
C1773 H1829 0.929 . S
C1774 C1770 1.356 . S
C1774 C1771 1.358 . S
C1774 H1830 0.930 . S
C1775 N1772 1.314 . S
C1775 C1773 1.353 . S
C1775 H1831 0.930 . S
C1776 N1777 1.314 . S
C1776 C1781 1.353 . S
C1776 H1782 0.930 . S
N1777 Li1760 1.990 . S
N1777 C1776 1.314 . S
N1777 C1779 1.279 . S
C1778 C1779 1.358 . S
C1778 C1780 1.356 . S
C1778 H1832 0.930 . S
C1779 N1777 1.279 . S
C1779 C1778 1.358 . S
C1779 H1783 0.930 . S
C1780 C1778 1.356 . S
C1780 C1781 1.348 . S
C1781 C1776 1.353 . S
C1781 C1780 1.348 . S
C1781 H1833 0.929 . S
H1782 C1776 0.930 . S
H1783 C1779 0.930 . S
C1784 N1785 1.314 . S
C1784 C1786 1.353 . S
C1784 H1790 0.930 1_554 S
N1785 Li1761 1.990 . S
N1785 C1784 1.314 . S
N1785 C1788 1.279 . S
C1786 C1784 1.353 . S
C1786 C1789 1.348 . S
C1786 H1834 0.929 1_554 S
C1787 C1788 1.358 . S
C1787 C1789 1.356 . S
C1787 H1835 0.930 . S
C1788 N1785 1.279 . S
C1788 C1787 1.358 . S
C1788 H1791 0.930 . S
C1789 C1786 1.348 . S
C1789 C1787 1.356 . S
H1790 C1784 0.930 1_556 S
H1791 C1788 0.930 . S
C1792 C1794 1.348 . S
C1792 C1795 1.356 . S
C1792 O1822 1.325 . S
N1793 C1796 1.314 . S
N1793 C1797 1.279 . S
C1794 C1792 1.348 . S
C1794 C1796 1.353 . S
C1794 H1836 0.936 . S
C1795 C1792 1.356 . S
C1795 C1797 1.358 . S
C1795 H1837 0.930 . S
C1796 N1793 1.314 . S
C1796 C1794 1.353 . S
C1796 H1838 0.929 1_554 S
C1797 N1793 1.279 . S
C1797 C1795 1.358 . S
C1797 H1839 0.930 . S
C1798 C1799 1.348 . S
C1798 C1800 1.356 . S
C1798 O1823 1.325 . S
C1799 C1798 1.348 . S
C1799 C1801 1.353 . S
C1799 H1840 0.929 . S
C1800 C1798 1.356 . S
C1800 C1802 1.358 . S
C1800 H1841 0.930 . S
C1801 C1799 1.353 . S
C1801 N1803 1.314 . S
C1801 H1842 0.930 . S
C1802 C1800 1.358 . S
C1802 N1803 1.279 . S
C1802 H1843 0.930 . S
N1803 C1801 1.314 . S
N1803 C1802 1.279 . S
C1804 C1806 1.353 . S
C1804 N1807 1.314 . S
C1804 H1810 0.930 . S
C1805 N1807 1.279 . S
C1805 C1808 1.358 . S
C1805 H1811 0.930 . S
C1806 C1804 1.353 . S
C1806 C1809 1.348 . S
C1806 H1844 0.929 . S
N1807 Li1762 1.990 . S
N1807 C1804 1.314 . S
N1807 C1805 1.279 . S
C1808 C1805 1.358 . S
C1808 C1809 1.356 . S
C1808 H1845 0.930 . S
C1809 C1806 1.348 . S
C1809 C1808 1.356 . S
H1810 C1804 0.930 . S
H1811 C1805 0.930 . S
C1812 N1813 1.314 . S
C1812 C1814 1.353 . S
C1812 H1818 0.930 . S
N1813 Li1763 1.990 . S
N1813 C1812 1.314 . S
N1813 C1816 1.279 1_554 S
C1814 C1812 1.353 . S
C1814 C1817 1.348 . S
C1814 H1846 0.929 . S
C1815 C1816 1.358 . S
C1815 C1817 1.356 1_556 S
C1815 H1847 0.930 . S
C1816 N1813 1.279 1_556 S
C1816 C1815 1.358 . S
C1816 H1819 0.930 . S
C1817 C1814 1.348 . S
C1817 C1815 1.356 1_554 S
H1818 C1812 0.930 . S
H1819 C1816 0.930 . S
O1820 Li1760 1.956 . S
O1820 Li1761 1.970 . S
O1820 Li1762 1.961 1_554 S
O1820 C1764 1.325 . S
O1821 Li1760 1.970 . S
O1821 Li1761 1.956 . S
O1821 Li1763 1.961 . S
O1821 C1770 1.325 . S
O1822 Li1760 1.961 . S
O1822 Li1762 1.956 1_554 S
O1822 Li1763 1.970 . S
O1822 C1792 1.325 . S
O1823 Li1761 1.961 1_556 S
O1823 Li1762 1.970 . S
O1823 Li1763 1.956 1_556 S
O1823 C1798 1.325 . S
H1824 C1766 0.929 . S
H1825 C1767 0.930 . S
H1826 C1768 0.930 . S
H1827 C1769 0.930 . S
H1828 C1771 0.930 . S
H1829 C1773 0.929 . S
H1830 C1774 0.930 . S
H1831 C1775 0.930 . S
H1832 C1778 0.930 . S
H1833 C1781 0.929 . S
H1834 C1786 0.929 1_556 S
H1835 C1787 0.930 . S
H1836 C1794 0.936 . S
H1837 C1795 0.930 . S
H1838 C1796 0.929 1_556 S
H1839 C1797 0.930 . S
H1840 C1799 0.929 . S
H1841 C1800 0.930 . S
H1842 C1801 0.930 . S
H1843 C1802 0.930 . S
H1844 C1806 0.929 . S
H1845 C1808 0.930 . S
H1846 C1814 0.929 . S
H1847 C1815 0.930 . S
Li1848 N1865 1.990 . S
Li1848 O1908 1.956 . S
Li1848 O1909 1.970 1_655 S
Li1848 O1910 1.961 . S
Li1849 N1873 1.990 . S
Li1849 O1908 1.970 1_455 S
Li1849 O1909 1.956 . S
Li1849 O1911 1.961 . S
Li1850 N1895 1.990 . S
Li1850 O1908 1.961 . S
Li1850 O1910 1.956 . S
Li1850 O1911 1.970 1_655 S
Li1851 N1901 1.990 . S
Li1851 O1909 1.961 . S
Li1851 O1910 1.970 1_455 S
Li1851 O1911 1.956 . S
C1852 C1854 1.348 . S
C1852 C1855 1.356 . S
C1852 O1908 1.325 . S
N1853 C1856 1.314 . S
N1853 C1857 1.279 . S
C1854 C1852 1.348 . S
C1854 C1856 1.353 . S
C1854 H1912 0.929 . S
C1855 C1852 1.356 . S
C1855 C1857 1.358 . S
C1855 H1913 0.930 . S
C1856 N1853 1.314 . S
C1856 C1854 1.353 . S
C1856 H1914 0.930 . S
C1857 N1853 1.279 . S
C1857 C1855 1.358 . S
C1857 H1915 0.930 . S
C1858 C1861 1.348 . S
C1858 C1862 1.356 . S
C1858 O1909 1.325 . S
C1859 N1860 1.279 . S
C1859 C1862 1.358 . S
C1859 H1916 0.930 . S
N1860 C1859 1.279 . S
N1860 C1863 1.314 . S
C1861 C1858 1.348 . S
C1861 C1863 1.353 . S
C1861 H1917 0.929 . S
C1862 C1858 1.356 . S
C1862 C1859 1.358 . S
C1862 H1918 0.930 . S
C1863 N1860 1.314 . S
C1863 C1861 1.353 . S
C1863 H1919 0.930 . S
C1864 N1865 1.314 . S
C1864 C1869 1.353 . S
C1864 H1870 0.930 . S
N1865 Li1848 1.990 . S
N1865 C1864 1.314 . S
N1865 C1867 1.279 . S
C1866 C1867 1.358 . S
C1866 C1868 1.356 . S
C1866 H1920 0.930 . S
C1867 N1865 1.279 . S
C1867 C1866 1.358 . S
C1867 H1871 0.930 . S
C1868 C1866 1.356 . S
C1868 C1869 1.348 . S
C1869 C1864 1.353 . S
C1869 C1868 1.348 . S
C1869 H1921 0.929 . S
H1870 C1864 0.930 . S
H1871 C1867 0.930 . S
C1872 N1873 1.314 . S
C1872 C1874 1.353 . S
C1872 H1878 0.930 . S
N1873 Li1849 1.990 . S
N1873 C1872 1.314 . S
N1873 C1876 1.279 . S
C1874 C1872 1.353 . S
C1874 C1877 1.348 . S
C1874 H1922 0.929 . S
C1875 C1876 1.358 . S
C1875 C1877 1.356 . S
C1875 H1923 0.930 . S
C1876 N1873 1.279 . S
C1876 C1875 1.358 . S
C1876 H1879 0.930 . S
C1877 C1874 1.348 . S
C1877 C1875 1.356 . S
H1878 C1872 0.930 . S
H1879 C1876 0.930 . S
C1880 C1882 1.348 . S
C1880 C1883 1.356 . S
C1880 O1910 1.325 . S
N1881 C1884 1.314 . S
N1881 C1885 1.279 . S
C1882 C1880 1.348 . S
C1882 C1884 1.353 . S
C1882 H1924 0.929 . S
C1883 C1880 1.356 . S
C1883 C1885 1.358 . S
C1883 H1925 0.930 . S
C1884 N1881 1.314 . S
C1884 C1882 1.353 . S
C1884 H1926 0.930 . S
C1885 N1881 1.279 . S
C1885 C1883 1.358 . S
C1885 H1927 0.930 . S
C1886 C1887 1.348 . S
C1886 C1888 1.356 . S
C1886 O1911 1.325 . S
C1887 C1886 1.348 . S
C1887 C1889 1.353 . S
C1887 H1928 0.929 . S
C1888 C1886 1.356 . S
C1888 C1890 1.358 . S
C1888 H1929 0.930 . S
C1889 C1887 1.353 . S
C1889 N1891 1.314 . S
C1889 H1930 0.930 . S
C1890 C1888 1.358 . S
C1890 N1891 1.279 . S
C1890 H1931 0.930 . S
N1891 C1889 1.314 . S
N1891 C1890 1.279 . S
C1892 C1894 1.353 . S
C1892 N1895 1.314 . S
C1892 H1898 0.930 . S
C1893 N1895 1.279 . S
C1893 C1896 1.358 . S
C1893 H1899 0.930 . S
C1894 C1892 1.353 . S
C1894 C1897 1.348 . S
C1894 H1932 0.929 . S
N1895 Li1850 1.990 . S
N1895 C1892 1.314 . S
N1895 C1893 1.279 . S
C1896 C1893 1.358 . S
C1896 C1897 1.356 . S
C1896 H1933 0.930 . S
C1897 C1894 1.348 . S
C1897 C1896 1.356 . S
H1898 C1892 0.930 . S
H1899 C1893 0.930 . S
C1900 N1901 1.314 . S
C1900 C1902 1.353 . S
C1900 H1906 0.930 . S
N1901 Li1851 1.990 . S
N1901 C1900 1.314 . S
N1901 C1904 1.279 . S
C1902 C1900 1.353 . S
C1902 C1905 1.348 . S
C1902 H1934 0.929 . S
C1903 C1904 1.358 . S
C1903 C1905 1.356 . S
C1903 H1935 0.930 . S
C1904 N1901 1.279 . S
C1904 C1903 1.358 . S
C1904 H1907 0.930 . S
C1905 C1902 1.348 . S
C1905 C1903 1.356 . S
H1906 C1900 0.930 . S
H1907 C1904 0.930 . S
O1908 Li1848 1.956 . S
O1908 Li1849 1.970 1_655 S
O1908 Li1850 1.961 . S
O1908 C1852 1.325 . S
O1909 Li1848 1.970 1_455 S
O1909 Li1849 1.956 . S
O1909 Li1851 1.961 . S
O1909 C1858 1.325 . S
O1910 Li1848 1.961 . S
O1910 Li1850 1.956 . S
O1910 Li1851 1.970 1_655 S
O1910 C1880 1.325 . S
O1911 Li1849 1.961 . S
O1911 Li1850 1.970 1_455 S
O1911 Li1851 1.956 . S
O1911 C1886 1.325 . S
H1912 C1854 0.929 . S
H1913 C1855 0.930 . S
H1914 C1856 0.930 . S
H1915 C1857 0.930 . S
H1916 C1859 0.930 . S
H1917 C1861 0.929 . S
H1918 C1862 0.930 . S
H1919 C1863 0.930 . S
H1920 C1866 0.930 . S
H1921 C1869 0.929 . S
H1922 C1874 0.929 . S
H1923 C1875 0.930 . S
H1924 C1882 0.929 . S
H1925 C1883 0.930 . S
H1926 C1884 0.930 . S
H1927 C1885 0.930 . S
H1928 C1887 0.929 . S
H1929 C1888 0.930 . S
H1930 C1889 0.930 . S
H1931 C1890 0.930 . S
H1932 C1894 0.929 . S
H1933 C1896 0.930 . S
H1934 C1902 0.929 . S
H1935 C1903 0.930 . S
Li1936 N1953 1.990 . S
Li1936 O1996 1.956 . S
Li1936 O1997 1.970 . S
Li1936 O1998 1.961 . S
Li1937 N1961 1.990 . S
Li1937 O1996 1.970 . S
Li1937 O1997 1.956 . S
Li1937 O1999 1.961 . S
Li1938 N1983 1.990 . S
Li1938 O1996 1.961 . S
Li1938 O1998 1.956 . S
Li1938 O1999 1.970 . S
Li1939 N1989 1.990 . S
Li1939 O1997 1.961 . S
Li1939 O1998 1.970 . S
Li1939 O1999 1.956 . S
C1940 C1942 1.348 . S
C1940 C1943 1.356 . S
C1940 O1996 1.325 . S
N1941 C1944 1.314 . S
N1941 C1945 1.279 . S
C1942 C1940 1.348 . S
C1942 C1944 1.353 . S
C1942 H2000 0.929 . S
C1943 C1940 1.356 . S
C1943 C1945 1.358 . S
C1943 H2001 0.930 . S
C1944 N1941 1.314 . S
C1944 C1942 1.353 . S
C1944 H2002 0.930 . S
C1945 N1941 1.279 . S
C1945 C1943 1.358 . S
C1945 H2003 0.930 . S
C1946 C1949 1.348 . S
C1946 C1950 1.356 . S
C1946 O1997 1.325 . S
C1947 N1948 1.279 . S
C1947 C1950 1.358 . S
C1947 H2004 0.930 . S
N1948 C1947 1.279 . S
N1948 C1951 1.314 . S
C1949 C1946 1.348 . S
C1949 C1951 1.353 . S
C1949 H2005 0.929 . S
C1950 C1946 1.356 . S
C1950 C1947 1.358 . S
C1950 H2006 0.930 . S
C1951 N1948 1.314 . S
C1951 C1949 1.353 . S
C1951 H2007 0.930 . S
C1952 N1953 1.314 . S
C1952 C1957 1.353 . S
C1952 H1958 0.930 . S
N1953 Li1936 1.990 . S
N1953 C1952 1.314 . S
N1953 C1955 1.279 . S
C1954 C1955 1.358 . S
C1954 C1956 1.356 . S
C1954 H2008 0.930 . S
C1955 N1953 1.279 . S
C1955 C1954 1.358 . S
C1955 H1959 0.930 . S
C1956 C1954 1.356 . S
C1956 C1957 1.348 . S
C1957 C1952 1.353 . S
C1957 C1956 1.348 . S
C1957 H2009 0.929 . S
H1958 C1952 0.930 . S
H1959 C1955 0.930 . S
C1960 N1961 1.314 . S
C1960 C1962 1.353 . S
C1960 H1966 0.930 . S
N1961 Li1937 1.990 . S
N1961 C1960 1.314 . S
N1961 C1964 1.279 . S
C1962 C1960 1.353 . S
C1962 C1965 1.348 . S
C1962 H2010 0.929 . S
C1963 C1964 1.358 . S
C1963 C1965 1.356 . S
C1963 H2011 0.930 . S
C1964 N1961 1.279 . S
C1964 C1963 1.358 . S
C1964 H1967 0.930 . S
C1965 C1962 1.348 . S
C1965 C1963 1.356 . S
H1966 C1960 0.930 . S
H1967 C1964 0.930 . S
C1968 C1970 1.348 . S
C1968 C1971 1.356 . S
C1968 O1998 1.325 . S
N1969 C1972 1.314 . S
N1969 C1973 1.279 . S
C1970 C1968 1.348 . S
C1970 C1972 1.353 . S
C1970 H2012 0.929 . S
C1971 C1968 1.356 . S
C1971 C1973 1.358 . S
C1971 H2013 0.930 . S
C1972 N1969 1.314 . S
C1972 C1970 1.353 . S
C1972 H2014 0.930 . S
C1973 N1969 1.279 . S
C1973 C1971 1.358 . S
C1973 H2015 0.930 . S
C1974 C1975 1.348 . S
C1974 C1976 1.356 . S
C1974 O1999 1.325 . S
C1975 C1974 1.348 . S
C1975 C1977 1.353 . S
C1975 H2016 0.929 . S
C1976 C1974 1.356 . S
C1976 C1978 1.358 . S
C1976 H2017 0.930 . S
C1977 C1975 1.353 . S
C1977 N1979 1.314 . S
C1977 H2018 0.930 . S
C1978 C1976 1.358 . S
C1978 N1979 1.279 . S
C1978 H2019 0.930 . S
N1979 C1977 1.314 . S
N1979 C1978 1.279 . S
C1980 C1982 1.353 . S
C1980 N1983 1.314 . S
C1980 H1986 0.930 . S
C1981 N1983 1.279 . S
C1981 C1984 1.358 . S
C1981 H1987 0.930 . S
C1982 C1980 1.353 . S
C1982 C1985 1.348 . S
C1982 H2020 0.929 . S
N1983 Li1938 1.990 . S
N1983 C1980 1.314 . S
N1983 C1981 1.279 . S
C1984 C1981 1.358 . S
C1984 C1985 1.356 . S
C1984 H2021 0.930 . S
C1985 C1982 1.348 . S
C1985 C1984 1.356 . S
H1986 C1980 0.930 . S
H1987 C1981 0.930 . S
C1988 N1989 1.314 . S
C1988 C1990 1.353 . S
C1988 H1994 0.930 . S
N1989 Li1939 1.990 . S
N1989 C1988 1.314 . S
N1989 C1992 1.279 . S
C1990 C1988 1.353 . S
C1990 C1993 1.348 . S
C1990 H2022 0.929 . S
C1991 C1992 1.358 . S
C1991 C1993 1.356 . S
C1991 H2023 0.930 . S
C1992 N1989 1.279 . S
C1992 C1991 1.358 . S
C1992 H1995 0.930 . S
C1993 C1990 1.348 . S
C1993 C1991 1.356 . S
H1994 C1988 0.930 . S
H1995 C1992 0.930 . S
O1996 Li1936 1.956 . S
O1996 Li1937 1.970 . S
O1996 Li1938 1.961 . S
O1996 C1940 1.325 . S
O1997 Li1936 1.970 . S
O1997 Li1937 1.956 . S
O1997 Li1939 1.961 . S
O1997 C1946 1.325 . S
O1998 Li1936 1.961 . S
O1998 Li1938 1.956 . S
O1998 Li1939 1.970 . S
O1998 C1968 1.325 . S
O1999 Li1937 1.961 . S
O1999 Li1938 1.970 . S
O1999 Li1939 1.956 . S
O1999 C1974 1.325 . S
H2000 C1942 0.929 . S
H2001 C1943 0.930 . S
H2002 C1944 0.930 . S
H2003 C1945 0.930 . S
H2004 C1947 0.930 . S
H2005 C1949 0.929 . S
H2006 C1950 0.930 . S
H2007 C1951 0.930 . S
H2008 C1954 0.930 . S
H2009 C1957 0.929 . S
H2010 C1962 0.929 . S
H2011 C1963 0.930 . S
H2012 C1970 0.929 . S
H2013 C1971 0.930 . S
H2014 C1972 0.930 . S
H2015 C1973 0.930 . S
H2016 C1975 0.929 . S
H2017 C1976 0.930 . S
H2018 C1977 0.930 . S
H2019 C1978 0.930 . S
H2020 C1982 0.929 . S
H2021 C1984 0.930 . S
H2022 C1990 0.929 . S
H2023 C1991 0.930 . S
Li2024 N2041 1.990 . S
Li2024 O2084 1.956 . S
Li2024 O2085 1.970 . S
Li2024 O2086 1.961 . S
Li2025 N2049 1.990 . S
Li2025 O2084 1.970 . S
Li2025 O2085 1.956 . S
Li2025 O2087 1.961 . S
Li2026 N2071 1.990 . S
Li2026 O2084 1.961 . S
Li2026 O2086 1.956 . S
Li2026 O2087 1.970 . S
Li2027 N2077 1.990 . S
Li2027 O2085 1.961 . S
Li2027 O2086 1.970 . S
Li2027 O2087 1.956 . S
C2028 C2030 1.348 . S
C2028 C2031 1.356 . S
C2028 O2084 1.325 . S
N2029 C2032 1.314 . S
N2029 C2033 1.279 . S
C2030 C2028 1.348 . S
C2030 C2032 1.353 . S
C2030 H2088 0.929 . S
C2031 C2028 1.356 . S
C2031 C2033 1.358 . S
C2031 H2089 0.930 . S
C2032 N2029 1.314 . S
C2032 C2030 1.353 . S
C2032 H2090 0.930 . S
C2033 N2029 1.279 . S
C2033 C2031 1.358 . S
C2033 H2091 0.930 . S
C2034 C2037 1.348 . S
C2034 C2038 1.356 . S
C2034 O2085 1.325 . S
C2035 N2036 1.279 . S
C2035 C2038 1.358 . S
C2035 H2092 0.930 . S
N2036 C2035 1.279 . S
N2036 C2039 1.314 . S
C2037 C2034 1.348 . S
C2037 C2039 1.353 . S
C2037 H2093 0.929 . S
C2038 C2034 1.356 . S
C2038 C2035 1.358 . S
C2038 H2094 0.930 . S
C2039 N2036 1.314 . S
C2039 C2037 1.353 . S
C2039 H2095 0.930 . S
C2040 N2041 1.314 . S
C2040 C2045 1.353 . S
C2040 H2046 0.930 . S
N2041 Li2024 1.990 . S
N2041 C2040 1.314 . S
N2041 C2043 1.279 . S
C2042 C2043 1.358 . S
C2042 C2044 1.356 . S
C2042 H2096 0.930 . S
C2043 N2041 1.279 . S
C2043 C2042 1.358 . S
C2043 H2047 0.930 . S
C2044 C2042 1.356 . S
C2044 C2045 1.348 . S
C2045 C2040 1.353 . S
C2045 C2044 1.348 . S
C2045 H2097 0.929 . S
H2046 C2040 0.930 . S
H2047 C2043 0.930 . S
C2048 N2049 1.314 . S
C2048 C2050 1.353 . S
C2048 H2054 0.930 . S
N2049 Li2025 1.990 . S
N2049 C2048 1.314 . S
N2049 C2052 1.279 . S
C2050 C2048 1.353 . S
C2050 C2053 1.348 . S
C2050 H2098 0.929 . S
C2051 C2052 1.358 . S
C2051 C2053 1.356 . S
C2051 H2099 0.930 . S
C2052 N2049 1.279 . S
C2052 C2051 1.358 . S
C2052 H2055 0.930 . S
C2053 C2050 1.348 . S
C2053 C2051 1.356 . S
H2054 C2048 0.930 . S
H2055 C2052 0.930 . S
C2056 C2058 1.348 . S
C2056 C2059 1.356 . S
C2056 O2086 1.325 . S
N2057 C2060 1.314 . S
N2057 C2061 1.279 . S
C2058 C2056 1.348 . S
C2058 C2060 1.353 . S
C2058 H2100 0.929 . S
C2059 C2056 1.356 . S
C2059 C2061 1.358 . S
C2059 H2101 0.930 . S
C2060 N2057 1.314 . S
C2060 C2058 1.353 . S
C2060 H2102 0.930 . S
C2061 N2057 1.279 . S
C2061 C2059 1.358 . S
C2061 H2103 0.930 . S
C2062 C2063 1.348 . S
C2062 C2064 1.356 . S
C2062 O2087 1.325 . S
C2063 C2062 1.348 . S
C2063 C2065 1.353 . S
C2063 H2104 0.929 . S
C2064 C2062 1.356 . S
C2064 C2066 1.358 . S
C2064 H2105 0.930 . S
C2065 C2063 1.353 . S
C2065 N2067 1.314 . S
C2065 H2106 0.930 . S
C2066 C2064 1.358 . S
C2066 N2067 1.279 . S
C2066 H2107 0.930 . S
N2067 C2065 1.314 . S
N2067 C2066 1.279 . S
C2068 C2070 1.353 . S
C2068 N2071 1.314 . S
C2068 H2074 0.930 . S
C2069 N2071 1.279 . S
C2069 C2072 1.358 . S
C2069 H2075 0.930 . S
C2070 C2068 1.353 . S
C2070 C2073 1.348 . S
C2070 H2108 0.929 . S
N2071 Li2026 1.990 . S
N2071 C2068 1.314 . S
N2071 C2069 1.279 . S
C2072 C2069 1.358 . S
C2072 C2073 1.356 . S
C2072 H2109 0.930 . S
C2073 C2070 1.348 . S
C2073 C2072 1.356 . S
H2074 C2068 0.930 . S
H2075 C2069 0.930 . S
C2076 N2077 1.314 . S
C2076 C2078 1.353 . S
C2076 H2082 0.930 . S
N2077 Li2027 1.990 . S
N2077 C2076 1.314 . S
N2077 C2080 1.279 . S
C2078 C2076 1.353 . S
C2078 C2081 1.348 . S
C2078 H2110 0.929 . S
C2079 C2080 1.358 . S
C2079 C2081 1.356 . S
C2079 H2111 0.930 . S
C2080 N2077 1.279 . S
C2080 C2079 1.358 . S
C2080 H2083 0.930 . S
C2081 C2078 1.348 . S
C2081 C2079 1.356 . S
H2082 C2076 0.930 . S
H2083 C2080 0.930 . S
O2084 Li2024 1.956 . S
O2084 Li2025 1.970 . S
O2084 Li2026 1.961 . S
O2084 C2028 1.325 . S
O2085 Li2024 1.970 . S
O2085 Li2025 1.956 . S
O2085 Li2027 1.961 . S
O2085 C2034 1.325 . S
O2086 Li2024 1.961 . S
O2086 Li2026 1.956 . S
O2086 Li2027 1.970 . S
O2086 C2056 1.325 . S
O2087 Li2025 1.961 . S
O2087 Li2026 1.970 . S
O2087 Li2027 1.956 . S
O2087 C2062 1.325 . S
H2088 C2030 0.929 . S
H2089 C2031 0.930 . S
H2090 C2032 0.930 . S
H2091 C2033 0.930 . S
H2092 C2035 0.930 . S
H2093 C2037 0.929 . S
H2094 C2038 0.930 . S
H2095 C2039 0.930 . S
H2096 C2042 0.930 . S
H2097 C2045 0.929 . S
H2098 C2050 0.929 . S
H2099 C2051 0.930 . S
H2100 C2058 0.929 . S
H2101 C2059 0.930 . S
H2102 C2060 0.930 . S
H2103 C2061 0.930 . S
H2104 C2063 0.929 . S
H2105 C2064 0.930 . S
H2106 C2065 0.930 . S
H2107 C2066 0.930 . S
H2108 C2070 0.929 . S
H2109 C2072 0.930 . S
H2110 C2078 0.929 . S
H2111 C2079 0.930 . S
Tb2112 C2122 2.825 1_454 S
Tb2112 O2123 2.347 . S
Tb2112 O2126 2.366 . S
Tb2112 O2131 2.418 1_554 S
Tb2112 O2132 2.384 . S
Tb2112 O2135 2.479 1_454 S
Tb2112 O2136 2.471 1_455 S
Eu2113 O2124 2.418 . S
Eu2113 O2125 2.384 . S
Eu2113 O2128 2.479 . S
Eu2113 O2129 2.471 . S
Eu2113 O2130 2.347 . S
Eu2113 O2133 2.366 . S
Eu2113 C2143 2.825 . S
C2114 O2130 1.259 1_556 S
C2114 O2131 1.265 . S
C2115 O2132 1.255 . S
C2115 O2133 1.265 . S
C2116 C2118 1.380 . S
C2116 C2119 1.374 . S
C2116 C2122 1.507 . S
C2117 C2118 1.384 . S
C2117 C2121 1.387 . S
C2117 H2144 0.930 . S
C2118 C2116 1.380 . S
C2118 C2117 1.384 . S
C2118 H2145 0.931 . S
C2119 C2116 1.374 . S
C2119 C2120 1.390 . S
C2119 H2146 0.930 1_556 S
C2120 C2119 1.390 . S
C2120 C2121 1.391 . S
C2120 H2147 0.930 . S
C2121 C2117 1.387 . S
C2121 C2120 1.391 . S
C2122 Tb2112 2.825 1_656 S
C2122 C2116 1.507 . S
C2122 O2135 1.238 . S
C2122 O2136 1.247 1_556 S
O2123 Tb2112 2.347 . S
O2123 C2127 1.259 . S
O2124 Eu2113 2.418 . S
O2124 C2127 1.265 . S
O2125 Eu2113 2.384 . S
O2125 C2134 1.255 . S
O2126 Tb2112 2.366 . S
O2126 C2134 1.265 . S
C2127 O2123 1.259 . S
C2127 O2124 1.265 . S
O2128 Eu2113 2.479 . S
O2128 C2143 1.238 . S
O2129 Eu2113 2.471 . S
O2129 C2143 1.247 . S
O2130 Eu2113 2.347 . S
O2130 C2114 1.259 1_554 S
O2131 Tb2112 2.418 1_556 S
O2131 C2114 1.265 . S
O2132 Tb2112 2.384 . S
O2132 C2115 1.255 . S
O2133 Eu2113 2.366 . S
O2133 C2115 1.265 . S
C2134 O2125 1.255 . S
C2134 O2126 1.265 . S
O2135 Tb2112 2.479 1_656 S
O2135 C2122 1.238 . S
O2136 Tb2112 2.471 1_655 S
O2136 C2122 1.247 1_554 S
C2137 C2140 1.380 . S
C2137 C2141 1.374 . S
C2137 C2143 1.507 . S
C2138 C2139 1.387 . S
C2138 C2142 1.391 . S
C2139 C2138 1.387 . S
C2139 C2140 1.384 . S
C2139 H2148 0.930 . S
C2140 C2137 1.380 . S
C2140 C2139 1.384 . S
C2140 H2149 0.931 . S
C2141 C2137 1.374 . S
C2141 C2142 1.390 . S
C2141 H2150 0.930 . S
C2142 C2138 1.391 . S
C2142 C2141 1.390 . S
C2142 H2151 0.930 . S
C2143 Eu2113 2.825 . S
C2143 O2128 1.238 . S
C2143 O2129 1.247 . S
C2143 C2137 1.507 . S
H2144 C2117 0.930 . S
H2145 C2118 0.931 . S
H2146 C2119 0.930 1_554 S
H2147 C2120 0.930 . S
H2148 C2139 0.930 . S
H2149 C2140 0.931 . S
H2150 C2141 0.930 . S
H2151 C2142 0.930 . S
Tb2152 C2162 2.825 . S
Tb2152 O2163 2.347 . S
Tb2152 O2166 2.366 . S
Tb2152 O2171 2.418 . S
Tb2152 O2172 2.384 . S
Tb2152 O2175 2.479 . S
Tb2152 O2176 2.471 . S
Eu2153 O2164 2.418 . S
Eu2153 O2165 2.384 . S
Eu2153 O2168 2.479 . S
Eu2153 O2169 2.471 . S
Eu2153 O2170 2.347 . S
Eu2153 O2173 2.366 . S
Eu2153 C2183 2.825 . S
C2154 O2170 1.259 . S
C2154 O2171 1.265 . S
C2155 O2172 1.255 . S
C2155 O2173 1.265 . S
C2156 C2158 1.380 . S
C2156 C2159 1.374 . S
C2156 C2162 1.507 . S
C2157 C2158 1.384 . S
C2157 C2161 1.387 . S
C2157 H2184 0.930 1_565 S
C2158 C2156 1.380 . S
C2158 C2157 1.384 . S
C2158 H2185 0.931 . S
C2159 C2156 1.374 . S
C2159 C2160 1.390 . S
C2159 H2186 0.930 . S
C2160 C2159 1.390 . S
C2160 C2161 1.391 . S
C2160 H2187 0.930 . S
C2161 C2157 1.387 . S
C2161 C2160 1.391 . S
C2162 Tb2152 2.825 . S
C2162 C2156 1.507 . S
C2162 O2175 1.238 . S
C2162 O2176 1.247 . S
O2163 Tb2152 2.347 . S
O2163 C2167 1.259 . S
O2164 Eu2153 2.418 . S
O2164 C2167 1.265 . S
O2165 Eu2153 2.384 . S
O2165 C2174 1.255 . S
O2166 Tb2152 2.366 . S
O2166 C2174 1.265 . S
C2167 O2163 1.259 . S
C2167 O2164 1.265 . S
O2168 Eu2153 2.479 . S
O2168 C2183 1.238 . S
O2169 Eu2153 2.471 . S
O2169 C2183 1.247 . S
O2170 Eu2153 2.347 . S
O2170 C2154 1.259 . S
O2171 Tb2152 2.418 . S
O2171 C2154 1.265 . S
O2172 Tb2152 2.384 . S
O2172 C2155 1.255 . S
O2173 Eu2153 2.366 . S
O2173 C2155 1.265 . S
C2174 O2165 1.255 . S
C2174 O2166 1.265 . S
O2175 Tb2152 2.479 . S
O2175 C2162 1.238 . S
O2176 Tb2152 2.471 . S
O2176 C2162 1.247 . S
C2177 C2180 1.380 . S
C2177 C2181 1.374 . S
C2177 C2183 1.507 . S
C2178 C2179 1.387 . S
C2178 C2182 1.391 . S
C2179 C2178 1.387 . S
C2179 C2180 1.384 . S
C2179 H2188 0.930 . S
C2180 C2177 1.380 . S
C2180 C2179 1.384 . S
C2180 H2189 0.931 . S
C2181 C2177 1.374 . S
C2181 C2182 1.390 . S
C2181 H2190 0.930 . S
C2182 C2178 1.391 . S
C2182 C2181 1.390 . S
C2182 H2191 0.930 . S
C2183 Eu2153 2.825 . S
C2183 O2168 1.238 . S
C2183 O2169 1.247 . S
C2183 C2177 1.507 . S
H2184 C2157 0.930 1_545 S
H2185 C2158 0.931 . S
H2186 C2159 0.930 . S
H2187 C2160 0.930 . S
H2188 C2179 0.930 . S
H2189 C2180 0.931 . S
H2190 C2181 0.930 . S
H2191 C2182 0.930 . S
Tb2192 C2202 2.825 1_545 S
Tb2192 O2203 2.347 . S
Tb2192 O2206 2.366 . S
Tb2192 O2211 2.418 . S
Tb2192 O2212 2.384 . S
Tb2192 O2215 2.479 1_545 S
Tb2192 O2216 2.471 1_545 S
Eu2193 O2204 2.418 . S
Eu2193 O2205 2.384 . S
Eu2193 O2208 2.479 . S
Eu2193 O2209 2.471 . S
Eu2193 O2210 2.347 . S
Eu2193 O2213 2.366 . S
Eu2193 C2223 2.825 . S
C2194 O2210 1.259 . S
C2194 O2211 1.265 . S
C2195 O2212 1.255 . S
C2195 O2213 1.265 . S
C2196 C2198 1.380 . S
C2196 C2199 1.374 . S
C2196 C2202 1.507 . S
C2197 C2198 1.384 . S
C2197 C2201 1.387 . S
C2197 H2224 0.930 . S
C2198 C2196 1.380 . S
C2198 C2197 1.384 . S
C2198 H2225 0.931 . S
C2199 C2196 1.374 . S
C2199 C2200 1.390 . S
C2199 H2226 0.930 . S
C2200 C2199 1.390 . S
C2200 C2201 1.391 . S
C2200 H2227 0.930 . S
C2201 C2197 1.387 . S
C2201 C2200 1.391 . S
C2202 Tb2192 2.825 1_565 S
C2202 C2196 1.507 . S
C2202 O2215 1.238 . S
C2202 O2216 1.247 . S
O2203 Tb2192 2.347 . S
O2203 C2207 1.259 . S
O2204 Eu2193 2.418 . S
O2204 C2207 1.265 . S
O2205 Eu2193 2.384 . S
O2205 C2214 1.255 . S
O2206 Tb2192 2.366 . S
O2206 C2214 1.265 . S
C2207 O2203 1.259 . S
C2207 O2204 1.265 . S
O2208 Eu2193 2.479 . S
O2208 C2223 1.238 . S
O2209 Eu2193 2.471 . S
O2209 C2223 1.247 . S
O2210 Eu2193 2.347 . S
O2210 C2194 1.259 . S
O2211 Tb2192 2.418 . S
O2211 C2194 1.265 . S
O2212 Tb2192 2.384 . S
O2212 C2195 1.255 . S
O2213 Eu2193 2.366 . S
O2213 C2195 1.265 . S
C2214 O2205 1.255 . S
C2214 O2206 1.265 . S
O2215 Tb2192 2.479 1_565 S
O2215 C2202 1.238 . S
O2216 Tb2192 2.471 1_565 S
O2216 C2202 1.247 . S
C2217 C2220 1.380 . S
C2217 C2221 1.374 . S
C2217 C2223 1.507 . S
C2218 C2219 1.387 . S
C2218 C2222 1.391 . S
C2219 C2218 1.387 . S
C2219 C2220 1.384 . S
C2219 H2228 0.930 . S
C2220 C2217 1.380 . S
C2220 C2219 1.384 . S
C2220 H2229 0.931 . S
C2221 C2217 1.374 . S
C2221 C2222 1.390 . S
C2221 H2230 0.930 . S
C2222 C2218 1.391 . S
C2222 C2221 1.390 . S
C2222 H2231 0.930 . S
C2223 Eu2193 2.825 . S
C2223 O2208 1.238 . S
C2223 O2209 1.247 . S
C2223 C2217 1.507 . S
H2224 C2197 0.930 . S
H2225 C2198 0.931 . S
H2226 C2199 0.930 . S
H2227 C2200 0.930 . S
H2228 C2219 0.930 . S
H2229 C2220 0.931 . S
H2230 C2221 0.930 . S
H2231 C2222 0.930 . S
Tb2232 C2242 2.825 . S
Tb2232 O2243 2.347 . S
Tb2232 O2246 2.366 . S
Tb2232 O2251 2.418 . S
Tb2232 O2252 2.384 . S
Tb2232 O2255 2.479 . S
Tb2232 O2256 2.471 . S
Eu2233 O2244 2.418 . S
Eu2233 O2245 2.384 . S
Eu2233 O2248 2.479 . S
Eu2233 O2249 2.471 . S
Eu2233 O2250 2.347 . S
Eu2233 O2253 2.366 . S
Eu2233 C2263 2.825 . S
C2234 O2250 1.259 . S
C2234 O2251 1.265 . S
C2235 O2252 1.255 . S
C2235 O2253 1.265 . S
C2236 C2238 1.380 . S
C2236 C2239 1.374 . S
C2236 C2242 1.507 . S
C2237 C2238 1.384 . S
C2237 C2241 1.387 . S
C2237 H2264 0.930 . S
C2238 C2236 1.380 . S
C2238 C2237 1.384 . S
C2238 H2265 0.931 . S
C2239 C2236 1.374 . S
C2239 C2240 1.390 . S
C2239 H2266 0.930 . S
C2240 C2239 1.390 . S
C2240 C2241 1.391 . S
C2240 H2267 0.930 . S
C2241 C2237 1.387 . S
C2241 C2240 1.391 . S
C2242 Tb2232 2.825 . S
C2242 C2236 1.507 . S
C2242 O2255 1.238 . S
C2242 O2256 1.247 . S
O2243 Tb2232 2.347 . S
O2243 C2247 1.259 . S
O2244 Eu2233 2.418 . S
O2244 C2247 1.265 . S
O2245 Eu2233 2.384 . S
O2245 C2254 1.255 . S
O2246 Tb2232 2.366 . S
O2246 C2254 1.265 . S
C2247 O2243 1.259 . S
C2247 O2244 1.265 . S
O2248 Eu2233 2.479 . S
O2248 C2263 1.238 . S
O2249 Eu2233 2.471 . S
O2249 C2263 1.247 . S
O2250 Eu2233 2.347 . S
O2250 C2234 1.259 . S
O2251 Tb2232 2.418 . S
O2251 C2234 1.265 . S
O2252 Tb2232 2.384 . S
O2252 C2235 1.255 . S
O2253 Eu2233 2.366 . S
O2253 C2235 1.265 . S
C2254 O2245 1.255 . S
C2254 O2246 1.265 . S
O2255 Tb2232 2.479 . S
O2255 C2242 1.238 . S
O2256 Tb2232 2.471 . S
O2256 C2242 1.247 . S
C2257 C2260 1.380 . S
C2257 C2261 1.374 . S
C2257 C2263 1.507 . S
C2258 C2259 1.387 . S
C2258 C2262 1.391 . S
C2259 C2258 1.387 . S
C2259 C2260 1.384 . S
C2259 H2268 0.930 . S
C2260 C2257 1.380 . S
C2260 C2259 1.384 . S
C2260 H2269 0.931 . S
C2261 C2257 1.374 . S
C2261 C2262 1.390 . S
C2261 H2270 0.930 . S
C2262 C2258 1.391 . S
C2262 C2261 1.390 . S
C2262 H2271 0.930 . S
C2263 Eu2233 2.825 . S
C2263 O2248 1.238 . S
C2263 O2249 1.247 . S
C2263 C2257 1.507 . S
H2264 C2237 0.930 . S
H2265 C2238 0.931 . S
H2266 C2239 0.930 . S
H2267 C2240 0.930 . S
H2268 C2259 0.930 . S
H2269 C2260 0.931 . S
H2270 C2261 0.930 . S
H2271 C2262 0.930 . S
Tb2272 C2282 2.825 . S
Tb2272 O2283 2.347 . S
Tb2272 O2286 2.366 . S
Tb2272 O2291 2.418 . S
Tb2272 O2292 2.384 . S
Tb2272 O2295 2.479 . S
Tb2272 O2296 2.493 . S
Eu2273 O2284 2.418 1_455 S
Eu2273 O2285 2.384 . S
Eu2273 O2288 2.479 . S
Eu2273 O2289 2.471 . S
Eu2273 O2290 2.347 . S
Eu2273 O2293 2.366 . S
Eu2273 C2303 2.825 . S
C2274 O2290 1.259 . S
C2274 O2291 1.265 . S
C2275 O2292 1.255 . S
C2275 O2293 1.265 . S
C2276 C2278 1.380 . S
C2276 C2279 1.374 1_455 S
C2276 C2282 1.507 . S
C2277 C2278 1.384 . S
C2277 C2281 1.387 1_455 S
C2277 H2304 0.930 . S
C2278 C2276 1.380 . S
C2278 C2277 1.384 . S
C2278 H2305 0.931 . S
C2279 C2276 1.374 1_655 S
C2279 C2280 1.390 . S
C2279 H2306 0.930 . S
C2280 C2279 1.390 . S
C2280 C2281 1.391 . S
C2280 H2307 0.930 . S
C2281 C2277 1.387 1_655 S
C2281 C2280 1.391 . S
C2282 Tb2272 2.825 . S
C2282 C2276 1.507 . S
C2282 O2295 1.238 . S
C2282 O2296 1.270 . S
O2283 Tb2272 2.347 . S
O2283 C2287 1.259 1_455 S
O2284 Eu2273 2.418 1_655 S
O2284 C2287 1.265 . S
O2285 Eu2273 2.384 . S
O2285 C2294 1.255 . S
O2286 Tb2272 2.366 . S
O2286 C2294 1.265 . S
C2287 O2283 1.259 1_655 S
C2287 O2284 1.265 . S
O2288 Eu2273 2.479 . S
O2288 C2303 1.238 . S
O2289 Eu2273 2.471 . S
O2289 C2303 1.247 . S
O2290 Eu2273 2.347 . S
O2290 C2274 1.259 . S
O2291 Tb2272 2.418 . S
O2291 C2274 1.265 . S
O2292 Tb2272 2.384 . S
O2292 C2275 1.255 . S
O2293 Eu2273 2.366 . S
O2293 C2275 1.265 . S
C2294 O2285 1.255 . S
C2294 O2286 1.265 . S
O2295 Tb2272 2.479 . S
O2295 C2282 1.238 . S
O2296 Tb2272 2.493 . S
O2296 C2282 1.270 . S
C2297 C2300 1.380 . S
C2297 C2301 1.374 . S
C2297 C2303 1.507 . S
C2298 C2299 1.387 . S
C2298 C2302 1.391 . S
C2299 C2298 1.387 . S
C2299 C2300 1.384 . S
C2299 H2308 0.930 . S
C2300 C2297 1.380 . S
C2300 C2299 1.384 . S
C2300 H2309 0.931 . S
C2301 C2297 1.374 . S
C2301 C2302 1.390 . S
C2301 H2310 0.930 . S
C2302 C2298 1.391 . S
C2302 C2301 1.390 . S
C2302 H2311 0.930 . S
C2303 Eu2273 2.825 . S
C2303 O2288 1.238 . S
C2303 O2289 1.247 . S
C2303 C2297 1.507 . S
H2304 C2277 0.930 . S
H2305 C2278 0.931 . S
H2306 C2279 0.930 . S
H2307 C2280 0.930 . S
H2308 C2299 0.930 . S
H2309 C2300 0.931 . S
H2310 C2301 0.930 . S
H2311 C2302 0.930 . S
Tb2312 C2322 2.825 . S
Tb2312 O2323 2.347 . S
Tb2312 O2326 2.366 . S
Tb2312 O2331 2.418 . S
Tb2312 O2332 2.384 . S
Tb2312 O2335 2.479 . S
Tb2312 O2336 2.471 . S
Eu2313 O2324 2.418 . S
Eu2313 O2325 2.384 . S
Eu2313 O2328 2.479 . S
Eu2313 O2329 2.471 . S
Eu2313 O2330 2.347 . S
Eu2313 O2333 2.366 . S
Eu2313 C2343 2.825 . S
C2314 O2330 1.259 . S
C2314 O2331 1.265 . S
C2315 O2332 1.255 . S
C2315 O2333 1.265 . S
C2316 C2318 1.380 . S
C2316 C2319 1.374 . S
C2316 C2322 1.507 . S
C2317 C2318 1.384 . S
C2317 C2321 1.387 . S
C2317 H2344 0.930 . S
C2318 C2316 1.380 . S
C2318 C2317 1.384 . S
C2318 H2345 0.931 . S
C2319 C2316 1.374 . S
C2319 C2320 1.390 . S
C2319 H2346 0.930 . S
C2320 C2319 1.390 . S
C2320 C2321 1.391 . S
C2320 H2347 0.930 . S
C2321 C2317 1.387 . S
C2321 C2320 1.391 . S
C2322 Tb2312 2.825 . S
C2322 C2316 1.507 . S
C2322 O2335 1.238 . S
C2322 O2336 1.247 . S
O2323 Tb2312 2.347 . S
O2323 C2327 1.259 . S
O2324 Eu2313 2.418 . S
O2324 C2327 1.265 . S
O2325 Eu2313 2.384 . S
O2325 C2334 1.255 . S
O2326 Tb2312 2.366 . S
O2326 C2334 1.265 . S
C2327 O2323 1.259 . S
C2327 O2324 1.265 . S
O2328 Eu2313 2.479 . S
O2328 C2343 1.238 . S
O2329 Eu2313 2.471 . S
O2329 C2343 1.247 . S
O2330 Eu2313 2.347 . S
O2330 C2314 1.259 . S
O2331 Tb2312 2.418 . S
O2331 C2314 1.265 . S
O2332 Tb2312 2.384 . S
O2332 C2315 1.255 . S
O2333 Eu2313 2.366 . S
O2333 C2315 1.265 . S
C2334 O2325 1.255 . S
C2334 O2326 1.265 . S
O2335 Tb2312 2.479 . S
O2335 C2322 1.238 . S
O2336 Tb2312 2.471 . S
O2336 C2322 1.247 . S
C2337 C2340 1.380 . S
C2337 C2341 1.374 . S
C2337 C2343 1.507 . S
C2338 C2339 1.387 . S
C2338 C2342 1.391 . S
C2339 C2338 1.387 . S
C2339 C2340 1.384 . S
C2339 H2348 0.930 . S
C2340 C2337 1.380 . S
C2340 C2339 1.384 . S
C2340 H2349 0.931 . S
C2341 C2337 1.374 . S
C2341 C2342 1.390 . S
C2341 H2350 0.930 . S
C2342 C2338 1.391 . S
C2342 C2341 1.390 . S
C2342 H2351 0.930 . S
C2343 Eu2313 2.825 . S
C2343 O2328 1.238 . S
C2343 O2329 1.247 . S
C2343 C2337 1.507 . S
H2344 C2317 0.930 . S
H2345 C2318 0.931 . S
H2346 C2319 0.930 . S
H2347 C2320 0.930 . S
H2348 C2339 0.930 . S
H2349 C2340 0.931 . S
H2350 C2341 0.930 . S
H2351 C2342 0.930 . S
Tb2352 C2362 2.825 . S
Tb2352 O2363 2.347 . S
Tb2352 O2366 2.366 . S
Tb2352 O2371 2.418 . S
Tb2352 O2372 2.384 . S
Tb2352 O2375 2.479 . S
Tb2352 O2376 2.471 . S
Eu2353 O2364 2.418 1_556 S
Eu2353 O2365 2.384 1_556 S
Eu2353 O2368 2.479 . S
Eu2353 O2369 2.471 . S
Eu2353 O2370 2.347 1_556 S
Eu2353 O2373 2.366 . S
Eu2353 C2383 2.825 . S
C2354 O2370 1.259 . S
C2354 O2371 1.265 . S
C2355 O2372 1.255 . S
C2355 O2373 1.265 1_554 S
C2356 C2358 1.380 . S
C2356 C2359 1.374 . S
C2356 C2362 1.507 . S
C2357 C2358 1.384 . S
C2357 C2361 1.387 . S
C2357 H2384 0.930 1_545 S
C2358 C2356 1.380 . S
C2358 C2357 1.384 . S
C2358 H2385 0.931 . S
C2359 C2356 1.374 . S
C2359 C2360 1.390 . S
C2359 H2386 0.930 . S
C2360 C2359 1.390 . S
C2360 C2361 1.391 . S
C2360 H2387 0.930 . S
C2361 C2357 1.387 . S
C2361 C2360 1.391 . S
C2362 Tb2352 2.825 . S
C2362 C2356 1.507 . S
C2362 O2375 1.238 . S
C2362 O2376 1.247 . S
O2363 Tb2352 2.347 . S
O2363 C2367 1.259 . S
O2364 Eu2353 2.418 1_554 S
O2364 C2367 1.265 . S
O2365 Eu2353 2.384 1_554 S
O2365 C2374 1.255 . S
O2366 Tb2352 2.366 . S
O2366 C2374 1.265 . S
C2367 O2363 1.259 . S
C2367 O2364 1.265 . S
O2368 Eu2353 2.479 . S
O2368 C2383 1.238 . S
O2369 Eu2353 2.471 . S
O2369 C2383 1.247 . S
O2370 Eu2353 2.347 1_554 S
O2370 C2354 1.259 . S
O2371 Tb2352 2.418 . S
O2371 C2354 1.265 . S
O2372 Tb2352 2.384 . S
O2372 C2355 1.255 . S
O2373 Eu2353 2.366 . S
O2373 C2355 1.265 1_556 S
C2374 O2365 1.255 . S
C2374 O2366 1.265 . S
O2375 Tb2352 2.479 . S
O2375 C2362 1.238 . S
O2376 Tb2352 2.471 . S
O2376 C2362 1.247 . S
C2377 C2380 1.380 . S
C2377 C2381 1.374 . S
C2377 C2383 1.507 . S
C2378 C2379 1.387 . S
C2378 C2382 1.391 . S
C2379 C2378 1.387 . S
C2379 C2380 1.384 . S
C2379 H2388 0.930 . S
C2380 C2377 1.380 . S
C2380 C2379 1.384 . S
C2380 H2389 0.931 . S
C2381 C2377 1.374 . S
C2381 C2382 1.390 . S
C2381 H2390 0.930 . S
C2382 C2378 1.391 . S
C2382 C2381 1.390 . S
C2382 H2391 0.930 . S
C2383 Eu2353 2.825 . S
C2383 O2368 1.238 . S
C2383 O2369 1.247 . S
C2383 C2377 1.507 . S
H2384 C2357 0.930 1_565 S
H2385 C2358 0.931 . S
H2386 C2359 0.930 . S
H2387 C2360 0.930 . S
H2388 C2379 0.930 . S
H2389 C2380 0.931 . S
H2390 C2381 0.930 . S
H2391 C2382 0.930 . S
Tb2392 C2402 2.825 . S
Tb2392 O2403 2.347 . S
Tb2392 O2406 2.366 . S
Tb2392 O2411 2.418 . S
Tb2392 O2412 2.384 . S
Tb2392 O2415 2.479 . S
Tb2392 O2416 2.471 . S
Eu2393 O2404 2.418 . S
Eu2393 O2405 2.384 . S
Eu2393 O2408 2.479 . S
Eu2393 O2409 2.471 . S
Eu2393 O2410 2.347 . S
Eu2393 O2413 2.366 . S
Eu2393 C2423 2.825 . S
C2394 O2410 1.259 . S
C2394 O2411 1.265 . S
C2395 O2412 1.255 . S
C2395 O2413 1.265 . S
C2396 C2398 1.380 . S
C2396 C2399 1.374 . S
C2396 C2402 1.507 . S
C2397 C2398 1.384 . S
C2397 C2401 1.387 . S
C2397 H2424 0.930 . S
C2398 C2396 1.380 . S
C2398 C2397 1.384 . S
C2398 H2425 0.931 . S
C2399 C2396 1.374 . S
C2399 C2400 1.390 . S
C2399 H2426 0.930 . S
C2400 C2399 1.390 . S
C2400 C2401 1.391 . S
C2400 H2427 0.930 . S
C2401 C2397 1.387 . S
C2401 C2400 1.391 . S
C2402 Tb2392 2.825 . S
C2402 C2396 1.507 . S
C2402 O2415 1.238 . S
C2402 O2416 1.247 . S
O2403 Tb2392 2.347 . S
O2403 C2407 1.259 . S
O2404 Eu2393 2.418 . S
O2404 C2407 1.265 . S
O2405 Eu2393 2.384 . S
O2405 C2414 1.255 . S
O2406 Tb2392 2.366 . S
O2406 C2414 1.265 . S
C2407 O2403 1.259 . S
C2407 O2404 1.265 . S
O2408 Eu2393 2.479 . S
O2408 C2423 1.238 . S
O2409 Eu2393 2.471 . S
O2409 C2423 1.247 . S
O2410 Eu2393 2.347 . S
O2410 C2394 1.259 . S
O2411 Tb2392 2.418 . S
O2411 C2394 1.265 . S
O2412 Tb2392 2.384 . S
O2412 C2395 1.255 . S
O2413 Eu2393 2.366 . S
O2413 C2395 1.265 . S
C2414 O2405 1.255 . S
C2414 O2406 1.265 . S
O2415 Tb2392 2.479 . S
O2415 C2402 1.238 . S
O2416 Tb2392 2.471 . S
O2416 C2402 1.247 . S
C2417 C2420 1.380 . S
C2417 C2421 1.374 . S
C2417 C2423 1.507 . S
C2418 C2419 1.387 . S
C2418 C2422 1.391 . S
C2419 C2418 1.387 . S
C2419 C2420 1.384 . S
C2419 H2428 0.930 . S
C2420 C2417 1.380 . S
C2420 C2419 1.384 . S
C2420 H2429 0.931 . S
C2421 C2417 1.374 . S
C2421 C2422 1.390 . S
C2421 H2430 0.930 . S
C2422 C2418 1.391 . S
C2422 C2421 1.390 . S
C2422 H2431 0.930 . S
C2423 Eu2393 2.825 . S
C2423 O2408 1.238 . S
C2423 O2409 1.247 . S
C2423 C2417 1.507 . S
H2424 C2397 0.930 . S
H2425 C2398 0.931 . S
H2426 C2399 0.930 . S
H2427 C2400 0.930 . S
H2428 C2419 0.930 . S
H2429 C2420 0.931 . S
H2430 C2421 0.930 . S
H2431 C2422 0.930 . S
Tb2432 C2442 2.825 . S
Tb2432 O2443 2.347 1_556 S
Tb2432 O2446 2.366 . S
Tb2432 O2451 2.418 . S
Tb2432 O2452 2.384 1_556 S
Tb2432 O2455 2.479 . S
Tb2432 O2456 2.471 . S
Eu2433 O2444 2.418 . S
Eu2433 O2445 2.384 . S
Eu2433 O2448 2.479 . S
Eu2433 O2449 2.471 . S
Eu2433 O2450 2.347 . S
Eu2433 O2453 2.366 . S
Eu2433 C2463 2.825 . S
C2434 O2450 1.259 . S
C2434 O2451 1.265 1_554 S
C2435 O2452 1.255 . S
C2435 O2453 1.265 . S
C2436 C2438 1.380 . S
C2436 C2439 1.374 . S
C2436 C2442 1.507 . S
C2437 C2438 1.384 . S
C2437 C2441 1.387 . S
C2437 H2464 0.930 . S
C2438 C2436 1.380 . S
C2438 C2437 1.384 . S
C2438 H2465 0.931 . S
C2439 C2436 1.374 . S
C2439 C2440 1.390 . S
C2439 H2466 0.930 . S
C2440 C2439 1.390 . S
C2440 C2441 1.391 . S
C2440 H2467 0.930 . S
C2441 C2437 1.387 . S
C2441 C2440 1.391 . S
C2442 Tb2432 2.825 . S
C2442 C2436 1.507 . S
C2442 O2455 1.238 . S
C2442 O2456 1.247 . S
O2443 Tb2432 2.347 1_554 S
O2443 C2447 1.259 . S
O2444 Eu2433 2.418 . S
O2444 C2447 1.265 . S
O2445 Eu2433 2.384 . S
O2445 C2454 1.233 1_554 S
O2446 Tb2432 2.366 . S
O2446 C2454 1.276 . S
C2447 O2443 1.259 . S
C2447 O2444 1.265 . S
O2448 Eu2433 2.479 . S
O2448 C2463 1.238 . S
O2449 Eu2433 2.471 . S
O2449 C2463 1.247 . S
O2450 Eu2433 2.347 . S
O2450 C2434 1.259 . S
O2451 Tb2432 2.418 . S
O2451 C2434 1.265 1_556 S
O2452 Tb2432 2.384 1_554 S
O2452 C2435 1.255 . S
O2453 Eu2433 2.366 . S
O2453 C2435 1.265 . S
C2454 O2445 1.233 1_556 S
C2454 O2446 1.276 . S
O2455 Tb2432 2.479 . S
O2455 C2442 1.238 . S
O2456 Tb2432 2.471 . S
O2456 C2442 1.247 . S
C2457 C2460 1.380 . S
C2457 C2461 1.374 . S
C2457 C2463 1.507 . S
C2458 C2459 1.387 . S
C2458 C2462 1.391 . S
C2459 C2458 1.387 . S
C2459 C2460 1.384 . S
C2459 H2468 0.930 . S
C2460 C2457 1.380 . S
C2460 C2459 1.384 . S
C2460 H2469 0.931 . S
C2461 C2457 1.374 . S
C2461 C2462 1.390 . S
C2461 H2470 0.930 . S
C2462 C2458 1.391 . S
C2462 C2461 1.390 . S
C2462 H2471 0.930 . S
C2463 Eu2433 2.825 . S
C2463 O2448 1.238 . S
C2463 O2449 1.247 . S
C2463 C2457 1.507 . S
H2464 C2437 0.930 . S
H2465 C2438 0.931 . S
H2466 C2439 0.930 . S
H2467 C2440 0.930 . S
H2468 C2459 0.930 . S
H2469 C2460 0.931 . S
H2470 C2461 0.930 . S
H2471 C2462 0.930 . S
Tb2472 C2482 2.825 . S
Tb2472 O2483 2.347 . S
Tb2472 O2486 2.366 . S
Tb2472 O2491 2.418 . S
Tb2472 O2492 2.384 . S
Tb2472 O2495 2.479 . S
Tb2472 O2496 2.471 . S
Eu2473 O2484 2.418 . S
Eu2473 O2485 2.384 . S
Eu2473 O2488 2.479 . S
Eu2473 O2489 2.471 . S
Eu2473 O2490 2.347 . S
Eu2473 O2493 2.366 . S
Eu2473 C2503 2.825 . S
C2474 O2490 1.259 . S
C2474 O2491 1.265 . S
C2475 O2492 1.255 . S
C2475 O2493 1.265 . S
C2476 C2478 1.380 . S
C2476 C2479 1.374 . S
C2476 C2482 1.507 . S
C2477 C2478 1.384 . S
C2477 C2481 1.387 . S
C2477 H2504 0.930 . S
C2478 C2476 1.380 . S
C2478 C2477 1.384 . S
C2478 H2505 0.931 . S
C2479 C2476 1.374 . S
C2479 C2480 1.390 . S
C2479 H2506 0.930 . S
C2480 C2479 1.390 . S
C2480 C2481 1.391 . S
C2480 H2507 0.930 . S
C2481 C2477 1.387 . S
C2481 C2480 1.391 . S
C2482 Tb2472 2.825 . S
C2482 C2476 1.507 . S
C2482 O2495 1.238 . S
C2482 O2496 1.247 . S
O2483 Tb2472 2.347 . S
O2483 C2487 1.259 . S
O2484 Eu2473 2.418 . S
O2484 C2487 1.265 . S
O2485 Eu2473 2.384 . S
O2485 C2494 1.255 . S
O2486 Tb2472 2.366 . S
O2486 C2494 1.265 . S
C2487 O2483 1.259 . S
C2487 O2484 1.265 . S
O2488 Eu2473 2.479 . S
O2488 C2503 1.238 . S
O2489 Eu2473 2.471 . S
O2489 C2503 1.247 . S
O2490 Eu2473 2.347 . S
O2490 C2474 1.259 . S
O2491 Tb2472 2.418 . S
O2491 C2474 1.265 . S
O2492 Tb2472 2.384 . S
O2492 C2475 1.255 . S
O2493 Eu2473 2.366 . S
O2493 C2475 1.265 . S
C2494 O2485 1.255 . S
C2494 O2486 1.265 . S
O2495 Tb2472 2.479 . S
O2495 C2482 1.238 . S
O2496 Tb2472 2.471 . S
O2496 C2482 1.247 . S
C2497 C2500 1.380 . S
C2497 C2501 1.374 . S
C2497 C2503 1.507 . S
C2498 C2499 1.387 . S
C2498 C2502 1.391 . S
C2499 C2498 1.387 . S
C2499 C2500 1.384 . S
C2499 H2508 0.930 . S
C2500 C2497 1.380 . S
C2500 C2499 1.384 . S
C2500 H2509 0.931 . S
C2501 C2497 1.374 . S
C2501 C2502 1.390 . S
C2501 H2510 0.930 . S
C2502 C2498 1.391 . S
C2502 C2501 1.390 . S
C2502 H2511 0.930 . S
C2503 Eu2473 2.825 . S
C2503 O2488 1.238 . S
C2503 O2489 1.247 . S
C2503 C2497 1.507 . S
H2504 C2477 0.930 . S
H2505 C2478 0.931 . S
H2506 C2479 0.930 . S
H2507 C2480 0.930 . S
H2508 C2499 0.930 . S
H2509 C2500 0.931 . S
H2510 C2501 0.930 . S
H2511 C2502 0.930 . S
Tb2512 C2522 2.825 . S
Tb2512 O2523 2.347 . S
Tb2512 O2526 2.366 . S
Tb2512 O2531 2.418 . S
Tb2512 O2532 2.384 . S
Tb2512 O2535 2.479 . S
Tb2512 O2536 2.471 . S
Eu2513 O2524 2.418 . S
Eu2513 O2525 2.384 1_455 S
Eu2513 O2528 2.479 . S
Eu2513 O2529 2.471 . S
Eu2513 O2530 2.347 . S
Eu2513 O2533 2.366 . S
Eu2513 C2543 2.825 . S
C2514 O2530 1.259 . S
C2514 O2531 1.265 . S
C2515 O2532 1.255 . S
C2515 O2533 1.265 . S
C2516 C2518 1.380 . S
C2516 C2519 1.374 . S
C2516 C2522 1.507 . S
C2517 C2518 1.384 . S
C2517 C2521 1.387 . S
C2517 H2544 0.930 . S
C2518 C2516 1.380 . S
C2518 C2517 1.384 . S
C2518 H2545 0.931 . S
C2519 C2516 1.374 . S
C2519 C2520 1.390 . S
C2519 H2546 0.930 . S
C2520 C2519 1.390 . S
C2520 C2521 1.391 . S
C2520 H2547 0.930 1_455 S
C2521 C2517 1.387 . S
C2521 C2520 1.391 . S
C2522 Tb2512 2.825 . S
C2522 C2516 1.507 . S
C2522 O2535 1.238 . S
C2522 O2536 1.247 . S
O2523 Tb2512 2.347 . S
O2523 C2527 1.259 . S
O2524 Eu2513 2.418 . S
O2524 C2527 1.265 . S
O2525 Eu2513 2.384 1_655 S
O2525 C2534 1.255 . S
O2526 Tb2512 2.366 . S
O2526 C2534 1.265 1_455 S
C2527 O2523 1.259 . S
C2527 O2524 1.265 . S
O2528 Eu2513 2.479 . S
O2528 C2543 1.238 . S
O2529 Eu2513 2.471 . S
O2529 C2543 1.247 . S
O2530 Eu2513 2.347 . S
O2530 C2514 1.259 . S
O2531 Tb2512 2.418 . S
O2531 C2514 1.265 . S
O2532 Tb2512 2.384 . S
O2532 C2515 1.255 . S
O2533 Eu2513 2.366 . S
O2533 C2515 1.265 . S
C2534 O2525 1.255 . S
C2534 O2526 1.265 1_655 S
O2535 Tb2512 2.479 . S
O2535 C2522 1.238 . S
O2536 Tb2512 2.471 . S
O2536 C2522 1.247 . S
C2537 C2540 1.380 . S
C2537 C2541 1.374 . S
C2537 C2543 1.507 . S
C2538 C2539 1.387 . S
C2538 C2542 1.391 . S
C2539 C2538 1.387 . S
C2539 C2540 1.384 . S
C2539 H2548 0.930 . S
C2540 C2537 1.380 . S
C2540 C2539 1.384 . S
C2540 H2549 0.931 . S
C2541 C2537 1.374 . S
C2541 C2542 1.390 . S
C2541 H2550 0.930 . S
C2542 C2538 1.391 . S
C2542 C2541 1.390 . S
C2542 H2551 0.930 . S
C2543 Eu2513 2.825 . S
C2543 O2528 1.238 . S
C2543 O2529 1.247 . S
C2543 C2537 1.507 . S
H2544 C2517 0.930 . S
H2545 C2518 0.931 . S
H2546 C2519 0.930 . S
H2547 C2520 0.930 1_655 S
H2548 C2539 0.930 . S
H2549 C2540 0.931 . S
H2550 C2541 0.930 . S
H2551 C2542 0.930 . S
Tb2552 C2562 2.825 . S
Tb2552 O2563 2.347 . S
Tb2552 O2566 2.366 . S
Tb2552 O2571 2.418 . S
Tb2552 O2572 2.384 . S
Tb2552 O2575 2.479 . S
Tb2552 O2576 2.471 . S
Eu2553 O2564 2.418 . S
Eu2553 O2565 2.384 . S
Eu2553 O2568 2.479 . S
Eu2553 O2569 2.471 . S
Eu2553 O2570 2.347 . S
Eu2553 O2573 2.366 . S
Eu2553 C2583 2.825 . S
C2554 O2570 1.259 . S
C2554 O2571 1.265 . S
C2555 O2572 1.255 . S
C2555 O2573 1.265 . S
C2556 C2558 1.380 . S
C2556 C2559 1.374 . S
C2556 C2562 1.507 . S
C2557 C2558 1.384 . S
C2557 C2561 1.387 . S
C2557 H2584 0.930 . S
C2558 C2556 1.380 . S
C2558 C2557 1.384 . S
C2558 H2585 0.931 . S
C2559 C2556 1.374 . S
C2559 C2560 1.390 . S
C2559 H2586 0.930 . S
C2560 C2559 1.390 . S
C2560 C2561 1.391 . S
C2560 H2587 0.930 . S
C2561 C2557 1.387 . S
C2561 C2560 1.391 . S
C2562 Tb2552 2.825 . S
C2562 C2556 1.507 . S
C2562 O2575 1.238 . S
C2562 O2576 1.247 . S
O2563 Tb2552 2.347 . S
O2563 C2567 1.259 . S
O2564 Eu2553 2.418 . S
O2564 C2567 1.265 . S
O2565 Eu2553 2.384 . S
O2565 C2574 1.255 . S
O2566 Tb2552 2.366 . S
O2566 C2574 1.265 . S
C2567 O2563 1.259 . S
C2567 O2564 1.265 . S
O2568 Eu2553 2.479 . S
O2568 C2583 1.238 . S
O2569 Eu2553 2.471 . S
O2569 C2583 1.247 . S
O2570 Eu2553 2.347 . S
O2570 C2554 1.259 . S
O2571 Tb2552 2.418 . S
O2571 C2554 1.265 . S
O2572 Tb2552 2.384 . S
O2572 C2555 1.255 . S
O2573 Eu2553 2.366 . S
O2573 C2555 1.265 . S
C2574 O2565 1.255 . S
C2574 O2566 1.265 . S
O2575 Tb2552 2.479 . S
O2575 C2562 1.238 . S
O2576 Tb2552 2.471 . S
O2576 C2562 1.247 . S
C2577 C2580 1.380 . S
C2577 C2581 1.374 . S
C2577 C2583 1.507 . S
C2578 C2579 1.387 . S
C2578 C2582 1.391 . S
C2579 C2578 1.387 . S
C2579 C2580 1.384 . S
C2579 H2588 0.930 . S
C2580 C2577 1.380 . S
C2580 C2579 1.384 . S
C2580 H2589 0.931 . S
C2581 C2577 1.374 . S
C2581 C2582 1.390 . S
C2581 H2590 0.930 . S
C2582 C2578 1.391 . S
C2582 C2581 1.390 . S
C2582 H2591 0.930 . S
C2583 Eu2553 2.825 . S
C2583 O2568 1.238 . S
C2583 O2569 1.247 . S
C2583 C2577 1.507 . S
H2584 C2557 0.930 . S
H2585 C2558 0.931 . S
H2586 C2559 0.930 . S
H2587 C2560 0.930 . S
H2588 C2579 0.930 . S
H2589 C2580 0.931 . S
H2590 C2581 0.930 . S
H2591 C2582 0.930 . S
Tb2592 C2602 2.825 . S
Tb2592 O2603 2.347 . S
Tb2592 O2606 2.366 . S
Tb2592 O2611 2.418 . S
Tb2592 O2612 2.384 . S
Tb2592 O2615 2.479 . S
Tb2592 O2616 2.471 . S
Eu2593 O2604 2.418 . S
Eu2593 O2605 2.384 . S
Eu2593 O2608 2.479 . S
Eu2593 O2609 2.471 . S
Eu2593 O2610 2.347 . S
Eu2593 O2613 2.366 . S
Eu2593 C2623 2.825 . S
C2594 O2610 1.259 . S
C2594 O2611 1.265 . S
C2595 O2612 1.255 . S
C2595 O2613 1.265 . S
C2596 C2598 1.380 . S
C2596 C2599 1.374 . S
C2596 C2602 1.507 . S
C2597 C2598 1.384 . S
C2597 C2601 1.387 . S
C2597 H2624 0.930 . S
C2598 C2596 1.380 . S
C2598 C2597 1.384 . S
C2598 H2625 0.931 . S
C2599 C2596 1.374 . S
C2599 C2600 1.390 . S
C2599 H2626 0.930 . S
C2600 C2599 1.390 . S
C2600 C2601 1.391 . S
C2600 H2627 0.930 . S
C2601 C2597 1.387 . S
C2601 C2600 1.391 . S
C2602 Tb2592 2.825 . S
C2602 C2596 1.507 . S
C2602 O2615 1.238 . S
C2602 O2616 1.247 . S
O2603 Tb2592 2.347 . S
O2603 C2607 1.259 . S
O2604 Eu2593 2.418 . S
O2604 C2607 1.265 . S
O2605 Eu2593 2.384 . S
O2605 C2614 1.255 . S
O2606 Tb2592 2.366 . S
O2606 C2614 1.265 . S
C2607 O2603 1.259 . S
C2607 O2604 1.265 . S
O2608 Eu2593 2.479 . S
O2608 C2623 1.238 . S
O2609 Eu2593 2.471 . S
O2609 C2623 1.247 . S
O2610 Eu2593 2.347 . S
O2610 C2594 1.259 . S
O2611 Tb2592 2.418 . S
O2611 C2594 1.265 . S
O2612 Tb2592 2.384 . S
O2612 C2595 1.255 . S
O2613 Eu2593 2.366 . S
O2613 C2595 1.265 . S
C2614 O2605 1.255 . S
C2614 O2606 1.265 . S
O2615 Tb2592 2.479 . S
O2615 C2602 1.238 . S
O2616 Tb2592 2.471 . S
O2616 C2602 1.247 . S
C2617 C2620 1.380 . S
C2617 C2621 1.374 . S
C2617 C2623 1.507 . S
C2618 C2619 1.387 . S
C2618 C2622 1.391 . S
C2619 C2618 1.387 . S
C2619 C2620 1.384 . S
C2619 H2628 0.930 . S
C2620 C2617 1.380 . S
C2620 C2619 1.384 . S
C2620 H2629 0.931 . S
C2621 C2617 1.374 . S
C2621 C2622 1.390 . S
C2621 H2630 0.930 . S
C2622 C2618 1.391 . S
C2622 C2621 1.390 . S
C2622 H2631 0.930 . S
C2623 Eu2593 2.825 . S
C2623 O2608 1.238 . S
C2623 O2609 1.247 . S
C2623 C2617 1.507 . S
H2624 C2597 0.930 . S
H2625 C2598 0.931 . S
H2626 C2599 0.930 . S
H2627 C2600 0.930 . S
H2628 C2619 0.930 . S
H2629 C2620 0.931 . S
H2630 C2621 0.930 . S
H2631 C2622 0.930 . S
Tb2632 C2642 2.825 . S
Tb2632 O2643 2.347 . S
Tb2632 O2646 2.366 . S
Tb2632 O2651 2.418 . S
Tb2632 O2652 2.384 . S
Tb2632 O2655 2.479 . S
Tb2632 O2656 2.471 . S
Eu2633 O2644 2.418 . S
Eu2633 O2645 2.384 . S
Eu2633 O2648 2.479 . S
Eu2633 O2649 2.471 . S
Eu2633 O2650 2.347 . S
Eu2633 O2653 2.366 . S
Eu2633 C2663 2.825 . S
C2634 O2650 1.259 . S
C2634 O2651 1.265 . S
C2635 O2652 1.255 . S
C2635 O2653 1.265 . S
C2636 C2638 1.380 . S
C2636 C2639 1.374 . S
C2636 C2642 1.507 . S
C2637 C2638 1.384 . S
C2637 C2641 1.387 . S
C2637 H2664 0.930 . S
C2638 C2636 1.380 . S
C2638 C2637 1.384 . S
C2638 H2665 0.931 . S
C2639 C2636 1.374 . S
C2639 C2640 1.390 . S
C2639 H2666 0.930 . S
C2640 C2639 1.390 . S
C2640 C2641 1.391 . S
C2640 H2667 0.930 . S
C2641 C2637 1.387 . S
C2641 C2640 1.391 . S
C2642 Tb2632 2.825 . S
C2642 C2636 1.507 . S
C2642 O2655 1.238 . S
C2642 O2656 1.247 . S
O2643 Tb2632 2.347 . S
O2643 C2647 1.259 . S
O2644 Eu2633 2.418 . S
O2644 C2647 1.265 . S
O2645 Eu2633 2.384 . S
O2645 C2654 1.255 . S
O2646 Tb2632 2.366 . S
O2646 C2654 1.265 . S
C2647 O2643 1.259 . S
C2647 O2644 1.265 . S
O2648 Eu2633 2.479 . S
O2648 C2663 1.238 . S
O2649 Eu2633 2.471 . S
O2649 C2663 1.247 . S
O2650 Eu2633 2.347 . S
O2650 C2634 1.259 . S
O2651 Tb2632 2.418 . S
O2651 C2634 1.265 . S
O2652 Tb2632 2.384 . S
O2652 C2635 1.255 . S
O2653 Eu2633 2.366 . S
O2653 C2635 1.265 . S
C2654 O2645 1.255 . S
C2654 O2646 1.265 . S
O2655 Tb2632 2.479 . S
O2655 C2642 1.238 . S
O2656 Tb2632 2.471 . S
O2656 C2642 1.247 . S
C2657 C2660 1.380 . S
C2657 C2661 1.374 . S
C2657 C2663 1.507 . S
C2658 C2659 1.387 . S
C2658 C2662 1.391 . S
C2659 C2658 1.387 . S
C2659 C2660 1.384 . S
C2659 H2668 0.930 . S
C2660 C2657 1.380 . S
C2660 C2659 1.384 . S
C2660 H2669 0.931 . S
C2661 C2657 1.374 . S
C2661 C2662 1.390 . S
C2661 H2670 0.930 . S
C2662 C2658 1.391 . S
C2662 C2661 1.390 . S
C2662 H2671 0.930 . S
C2663 Eu2633 2.825 . S
C2663 O2648 1.238 . S
C2663 O2649 1.247 . S
C2663 C2657 1.507 . S
H2664 C2637 0.930 . S
H2665 C2638 0.931 . S
H2666 C2639 0.930 . S
H2667 C2640 0.930 . S
H2668 C2659 0.930 . S
H2669 C2660 0.931 . S
H2670 C2661 0.930 . S
H2671 C2662 0.930 . S
Tb2672 C2682 2.825 . S
Tb2672 O2683 2.347 . S
Tb2672 O2686 2.366 . S
Tb2672 O2691 2.418 . S
Tb2672 O2692 2.384 . S
Tb2672 O2695 2.479 . S
Tb2672 O2696 2.471 . S
Eu2673 O2684 2.418 . S
Eu2673 O2685 2.384 . S
Eu2673 O2688 2.479 . S
Eu2673 O2689 2.471 . S
Eu2673 O2690 2.347 . S
Eu2673 O2693 2.366 . S
Eu2673 C2703 2.825 . S
C2674 O2690 1.259 . S
C2674 O2691 1.265 . S
C2675 O2692 1.255 . S
C2675 O2693 1.265 . S
C2676 C2678 1.380 . S
C2676 C2679 1.374 . S
C2676 C2682 1.507 . S
C2677 C2678 1.384 . S
C2677 C2681 1.387 . S
C2677 H2704 0.930 . S
C2678 C2676 1.380 . S
C2678 C2677 1.384 . S
C2678 H2705 0.931 . S
C2679 C2676 1.374 . S
C2679 C2680 1.390 . S
C2679 H2706 0.930 . S
C2680 C2679 1.390 . S
C2680 C2681 1.391 . S
C2680 H2707 0.930 . S
C2681 C2677 1.387 . S
C2681 C2680 1.391 . S
C2682 Tb2672 2.825 . S
C2682 C2676 1.507 . S
C2682 O2695 1.238 . S
C2682 O2696 1.247 . S
O2683 Tb2672 2.347 . S
O2683 C2687 1.259 . S
O2684 Eu2673 2.418 . S
O2684 C2687 1.265 . S
O2685 Eu2673 2.384 . S
O2685 C2694 1.255 . S
O2686 Tb2672 2.366 . S
O2686 C2694 1.265 . S
C2687 O2683 1.259 . S
C2687 O2684 1.265 . S
O2688 Eu2673 2.479 . S
O2688 C2703 1.238 . S
O2689 Eu2673 2.471 . S
O2689 C2703 1.247 . S
O2690 Eu2673 2.347 . S
O2690 C2674 1.259 . S
O2691 Tb2672 2.418 . S
O2691 C2674 1.265 . S
O2692 Tb2672 2.384 . S
O2692 C2675 1.255 . S
O2693 Eu2673 2.366 . S
O2693 C2675 1.265 . S
C2694 O2685 1.255 . S
C2694 O2686 1.265 . S
O2695 Tb2672 2.479 . S
O2695 C2682 1.238 . S
O2696 Tb2672 2.471 . S
O2696 C2682 1.247 . S
C2697 C2700 1.380 . S
C2697 C2701 1.374 . S
C2697 C2703 1.507 . S
C2698 C2699 1.387 . S
C2698 C2702 1.391 . S
C2699 C2698 1.387 . S
C2699 C2700 1.384 . S
C2699 H2708 0.930 . S
C2700 C2697 1.380 . S
C2700 C2699 1.384 . S
C2700 H2709 0.931 . S
C2701 C2697 1.374 . S
C2701 C2702 1.390 . S
C2701 H2710 0.930 . S
C2702 C2698 1.391 . S
C2702 C2701 1.390 . S
C2702 H2711 0.930 . S
C2703 Eu2673 2.825 . S
C2703 O2688 1.238 . S
C2703 O2689 1.247 . S
C2703 C2697 1.507 . S
H2704 C2677 0.930 . S
H2705 C2678 0.931 . S
H2706 C2679 0.930 . S
H2707 C2680 0.930 . S
H2708 C2699 0.930 . S
H2709 C2700 0.931 . S
H2710 C2701 0.930 . S
H2711 C2702 0.930 . S
Tb2712 C2722 2.825 1_554 S
Tb2712 O2723 2.347 1_554 S
Tb2712 O2726 2.366 . S
Tb2712 O2731 2.418 . S
Tb2712 O2732 2.384 1_455 S
Tb2712 O2735 2.479 . S
Tb2712 O2736 2.471 1_554 S
Eu2713 O2724 2.418 1_554 S
Eu2713 O2725 2.384 . S
Eu2713 O2728 2.479 . S
Eu2713 O2729 2.471 . S
Eu2713 O2730 2.347 . S
Eu2713 O2733 2.366 . S
Eu2713 C2743 2.825 . S
C2714 O2730 1.259 . S
C2714 O2731 1.265 . S
C2715 O2732 1.255 1_455 S
C2715 O2733 1.265 . S
C2716 C2718 1.380 . S
C2716 C2719 1.374 . S
C2716 C2722 1.507 . S
C2717 C2718 1.384 . S
C2717 C2721 1.387 . S
C2717 H2744 0.930 . S
C2718 C2716 1.380 . S
C2718 C2717 1.384 . S
C2718 H2745 0.931 1_556 S
C2719 C2716 1.374 . S
C2719 C2720 1.390 . S
C2719 H2746 0.930 . S
C2720 C2719 1.390 . S
C2720 C2721 1.391 . S
C2720 H2747 0.930 . S
C2721 C2717 1.387 . S
C2721 C2720 1.391 . S
C2722 Tb2712 2.825 1_556 S
C2722 C2716 1.507 . S
C2722 O2735 1.238 1_556 S
C2722 O2736 1.247 . S
O2723 Tb2712 2.347 1_556 S
O2723 C2727 1.259 . S
O2724 Eu2713 2.418 1_556 S
O2724 C2727 1.265 . S
O2725 Eu2713 2.384 . S
O2725 C2734 1.255 . S
O2726 Tb2712 2.366 . S
O2726 C2734 1.265 . S
C2727 O2723 1.259 . S
C2727 O2724 1.265 . S
O2728 Eu2713 2.479 . S
O2728 C2743 1.238 . S
O2729 Eu2713 2.471 . S
O2729 C2743 1.247 . S
O2730 Eu2713 2.347 . S
O2730 C2714 1.259 . S
O2731 Tb2712 2.418 . S
O2731 C2714 1.265 . S
O2732 Tb2712 2.384 1_655 S
O2732 C2715 1.255 1_655 S
O2733 Eu2713 2.366 . S
O2733 C2715 1.265 . S
C2734 O2725 1.255 . S
C2734 O2726 1.265 . S
O2735 Tb2712 2.479 . S
O2735 C2722 1.238 1_554 S
O2736 Tb2712 2.471 1_556 S
O2736 C2722 1.247 . S
C2737 C2740 1.380 . S
C2737 C2741 1.374 . S
C2737 C2743 1.507 . S
C2738 C2739 1.387 . S
C2738 C2742 1.391 . S
C2739 C2738 1.387 . S
C2739 C2740 1.384 . S
C2739 H2748 0.930 . S
C2740 C2737 1.380 . S
C2740 C2739 1.384 . S
C2740 H2749 0.931 . S
C2741 C2737 1.374 . S
C2741 C2742 1.390 . S
C2741 H2750 0.930 . S
C2742 C2738 1.391 . S
C2742 C2741 1.390 . S
C2742 H2751 0.930 . S
C2743 Eu2713 2.825 . S
C2743 O2728 1.238 . S
C2743 O2729 1.247 . S
C2743 C2737 1.507 . S
H2744 C2717 0.930 . S
H2745 C2718 0.931 1_554 S
H2746 C2719 0.930 . S
H2747 C2720 0.930 . S
H2748 C2739 0.930 . S
H2749 C2740 0.931 . S
H2750 C2741 0.930 . S
H2751 C2742 0.930 . S
C665 C2134 2.709 1_656 S
C381 C2154 3.247 . S
C460 C2201 1.784 . S
C2258 C585 3.234 . S
C108 C2275 3.750 1_565 S
C2334 C196 2.714 . S
C2367 C313 3.986 . S
C49 C2414 3.598 . S
C2127 C1457 3.097 1_455 S
C1545 C2155 2.433 . S
C2194 C1721 3.609 1_545 S
C2254 C1113 3.474 . S
C1428 C2281 1.224 . S
C2327 C1516 3.482 . S
C2378 C1692 4.465 . S
C2407 C1085 3.143 . S
C2138 C988 3.806 1_545 S
C1817 C2434 3.070 . S
C2498 C2081 4.075 . S
C2534 C1993 2.066 . S
C761 C2418 4.492 . S
C821 C2195 3.699 . S
C2053 C2567 3.442 . S
C2601 C1868 2.164 . S
C2115 C372 3.268 . S
C2607 C645 3.068 . S
C577 C2218 1.860 . S
C497 C2561 3.318 . S
C2294 C57 3.689 . S
C293 C2475 2.848 . S
C2354 C205 3.877 1_544 S
C2635 C145 3.692 . S
C2114 C909 2.805 . S
C2614 C1956 2.324 . S
C724 C2207 3.549 . S
C1780 C2555 3.430 . S
C937 C2298 1.171 . S
C2474 C1985 3.474 . S
C753 C2361 4.339 . S
C1809 C2634 3.119 . S
C1173 C2121 3.499 1_554 S
C1105 C2447 3.006 . S
C1633 C2321 4.041 . S
C1553 C2515 2.086 . S
C2641 C1729 4.459 . S
C1340 C2214 3.674 . S
C2234 C1604 3.431 . S
C2178 C1252 1.714 . S
C489 C2694 3.386 . S
C2594 C557 3.532 . S
C636 C2721 1.617 . S
C409 C2578 3.313 1_455 S
C284 C2435 3.744 . S
C2494 C20 2.843 . S
C2527 C137 3.978 . S
C2654 C225 3.439 . S
C2687 C1641 2.848 . S
C1193 C2595 2.497 . S
C2714 C1289 3.522 1_455 S
C2574 C1377 3.415 . S
C2441 C1613 1.250 . S
C1164 C2487 3.625 . S
C2538 C1261 4.428 1_455 S
C1349 C2647 3.086 . S
C2698 C1965 3.857 . S
C849 C2274 3.128 . S
C2338 C929 3.904 1_565 S
C2374 C1017 2.072 1_545 S
C2658 C1897 4.072 . S
C1789 C2715 3.759 1_655 S
C2247 C900 3.305 . S
C2161 C733 1.551 . S
C548 C2675 3.407 . S
C2167 C469 3.384 . S
C401 C2738 1.474 . S
C673 C2241 3.094 . S
C233 C2454 3.697 . S
C2315 C117 2.930 . S
C29 C2514 3.959 . S
C321 C2395 3.553 . S
C2674 C2044 2.962 . S
C997 C2174 2.434 . S
C2727 C1877 2.117 . S
C812 C2235 3.389 . S
C2073 C2458 1.195 . S
C2314 C1025 3.600 . S
C1905 C2521 3.688 . S
C2394 C841 3.084 . S
C2681 C1525 3.833 . S
C2287 C1369 3.119 . S
C1465 C2481 3.929 . S
C2355 C1201 1.954 1_554 S
C1281 C2401 4.385 . S
C1076 C2734 3.734 . S
C2554 C1437 3.420 . S
C2618 C1701 1.775 . S
