# Generated by pormake.
# Topology ssa, (4,4)-cn, num edge types: 1
# Building blocks:
#     Node 0, Type 0, BuildingBlock: KOZSID_clean_sbu_0, # of connection points: 4
#     Node 1, Type 0, BuildingBlock: KOZSID_clean_sbu_0, # of connection points: 4
#     Node 2, Type 0, BuildingBlock: KOZSID_clean_sbu_0, # of connection points: 4
#     Node 3, Type 0, BuildingBlock: KOZSID_clean_sbu_0, # of connection points: 4
#     Node 4, Type 0, BuildingBlock: KOZSID_clean_sbu_0, # of connection points: 4
#     Node 5, Type 0, BuildingBlock: KOZSID_clean_sbu_0, # of connection points: 4
#     Node 6, Type 1, BuildingBlock: ESEHIV_clean_sbu_0, # of connection points: 4
#     Node 7, Type 1, BuildingBlock: ESEHIV_clean_sbu_0, # of connection points: 4
#     Node 8, Type 1, BuildingBlock: ESEHIV_clean_sbu_0, # of connection points: 4
#     Node 9, Type 1, BuildingBlock: ESEHIV_clean_sbu_0, # of connection points: 4
#     Node 10, Type 1, BuildingBlock: ESEHIV_clean_sbu_0, # of connection points: 4
#     Node 11, Type 1, BuildingBlock: ESEHIV_clean_sbu_0, # of connection points: 4
#     Edge 12, Type (0, 1), BuildingBlock: XIVTED_clean_linker_0, # of connection points: 2
#     Edge 13, Type (0, 1), BuildingBlock: XIVTED_clean_linker_0, # of connection points: 2
#     Edge 14, Type (0, 1), BuildingBlock: XIVTED_clean_linker_0, # of connection points: 2
#     Edge 15, Type (0, 1), BuildingBlock: XIVTED_clean_linker_0, # of connection points: 2
#     Edge 16, Type (0, 1), BuildingBlock: XIVTED_clean_linker_0, # of connection points: 2
#     Edge 17, Type (0, 1), BuildingBlock: XIVTED_clean_linker_0, # of connection points: 2
#     Edge 18, Type (0, 1), BuildingBlock: XIVTED_clean_linker_0, # of connection points: 2
#     Edge 19, Type (0, 1), BuildingBlock: XIVTED_clean_linker_0, # of connection points: 2
#     Edge 20, Type (0, 1), BuildingBlock: XIVTED_clean_linker_0, # of connection points: 2
#     Edge 21, Type (0, 1), BuildingBlock: XIVTED_clean_linker_0, # of connection points: 2
#     Edge 22, Type (0, 1), BuildingBlock: XIVTED_clean_linker_0, # of connection points: 2
#     Edge 23, Type (0, 1), BuildingBlock: XIVTED_clean_linker_0, # of connection points: 2
#     Edge 24, Type (0, 1), BuildingBlock: XIVTED_clean_linker_0, # of connection points: 2
#     Edge 25, Type (0, 1), BuildingBlock: XIVTED_clean_linker_0, # of connection points: 2
#     Edge 26, Type (0, 1), BuildingBlock: XIVTED_clean_linker_0, # of connection points: 2
#     Edge 27, Type (0, 1), BuildingBlock: XIVTED_clean_linker_0, # of connection points: 2
#     Edge 28, Type (0, 1), BuildingBlock: XIVTED_clean_linker_0, # of connection points: 2
#     Edge 29, Type (0, 1), BuildingBlock: XIVTED_clean_linker_0, # of connection points: 2
#     Edge 30, Type (0, 1), BuildingBlock: XIVTED_clean_linker_0, # of connection points: 2
#     Edge 31, Type (0, 1), BuildingBlock: XIVTED_clean_linker_0, # of connection points: 2
#     Edge 32, Type (0, 1), BuildingBlock: XIVTED_clean_linker_0, # of connection points: 2
#     Edge 33, Type (0, 1), BuildingBlock: XIVTED_clean_linker_0, # of connection points: 2
#     Edge 34, Type (0, 1), BuildingBlock: XIVTED_clean_linker_0, # of connection points: 2
#     Edge 35, Type (0, 1), BuildingBlock: XIVTED_clean_linker_0, # of connection points: 2
# Relax obj value: 0.020
# Max RMSD: 0.096
# Mean RMSD: 0.055
data_MOF--net-ssa--node1-KOZSID_clean_sbu_0--node2-ESEHIV_clean_sbu_0--edge1-XIVTED_clean_linker_0
_symmetry_space_group_name_H-M    P1
_symmetry_Int_Tables_number       1
_symmetry_cell_setting            triclinic
loop_
_symmetry_equiv_pos_as_xyz
'x, y, z'
_cell_length_a     53.758966
_cell_length_b     55.09234
_cell_length_c     40.592559
_cell_angle_alpha  87.21985
_cell_angle_beta   90.145659
_cell_angle_gamma 122.18048
loop_
_atom_site_label
_atom_site_type_symbol
_atom_site_fract_x
_atom_site_fract_y
_atom_site_fract_z
_atom_type_partial_charge
C0 C 0.9626 0.49847 1.00072 0.0
C1 C 0.934 0.48407 0.01348 0.0
C2 C 0.93399 0.47134 0.04318 0.0
C3 C 0.9624 0.47841 0.04685 0.0
N4 N 0.98074 0.49522 0.02152 0.0
Co5 Co 0.02318 0.50765 0.01601 0.0
N6 N 0.02338 0.48968 0.06036 0.0
C7 C 1.00049 0.47575 0.08228 0.0
C8 C 1.00709 0.46684 0.11125 0.0
C9 C 0.03611 0.47596 0.10792 0.0
C10 C 0.04564 0.49 0.07696 0.0
N11 N 0.06518 0.51885 0.00978 0.0
C12 C 0.08327 0.5153 0.03031 0.0
C13 C 0.11086 0.52655 0.01566 0.0
C14 C 0.11022 0.53751 0.98501 0.0
C15 C 0.08243 0.53245 0.98256 0.0
N16 N 0.02357 0.52712 0.97257 0.0
C17 C 0.04701 0.54259 0.95163 0.0
C18 C 0.04129 0.55406 0.92412 0.0
C19 C 0.01238 0.54531 0.92755 0.0
C20 C 1.00194 0.52864 0.95692 0.0
N21 N 0.03612 0.54377 0.0378 0.0
C22 C 0.05785 0.59341 0.07345 0.0
C23 C 0.07252 0.59379 0.04489 0.0
C24 C 0.06133 0.56892 0.02754 0.0
C25 C 0.03131 0.56822 0.08284 0.0
C26 C 0.02083 0.54389 0.06468 0.0
N27 N 1.00994 0.47128 0.99413 0.0
C28 C 1.00261 0.44665 0.94387 0.0
C29 C 0.98254 0.42013 0.95998 0.0
C30 C 0.97848 0.41954 0.99411 0.0
C31 C 0.99211 0.44509 0.01048 0.0
C32 C 0.01636 0.4716 0.96138 0.0
H33 H 0.98721 0.44298 0.03623 0.0
H34 H 0.03141 0.49098 0.94753 0.0
H35 H 0.07387 0.57034 1.00642 0.0
H36 H 1.00064 0.52523 0.07331 0.0
C37 C 0.9728 0.47049 0.07428 0.0
C38 C 0.97112 0.51411 0.96828 0.0
C39 C 0.07588 0.50265 0.06428 0.0
C40 C 0.07313 0.5434 0.95696 0.0
H41 H 0.91496 0.48258 1.00234 0.0
H42 H 0.91543 0.45835 0.06004 0.0
H43 H 0.99251 0.455 0.13225 0.0
H44 H 0.04877 0.47251 0.12619 0.0
H45 H 0.12979 0.52748 0.02634 0.0
H46 H 0.12827 0.54889 0.96715 0.0
H47 H 0.05614 0.56662 0.90356 0.0
H48 H 1.00023 0.55022 0.91007 0.0
H49 H 0.09323 0.61281 0.03669 0.0
H50 H 0.01888 0.56711 0.10444 0.0
H51 H 1.00696 0.4486 0.91755 0.0
H52 H 0.9643 0.39953 0.00825 0.0
C53 C 0.56255 0.01675 0.56181 0.0
C54 C 0.56431 1.00309 0.59054 0.0
C55 C 0.5366 0.98021 0.59783 0.0
C56 C 0.51957 0.98127 0.57331 0.0
N57 N 0.53483 1.00308 0.55039 0.0
Co58 Co 0.51857 0.01386 0.51182 0.0
N59 N 0.47726 0.98286 0.52521 0.0
C60 C 0.46849 0.96427 0.55194 0.0
C61 C 0.43881 0.94454 0.55375 0.0
C62 C 0.42802 0.95051 0.52618 0.0
C63 C 0.45187 0.97369 0.50915 0.0
N64 N 0.50243 0.02471 0.47326 0.0
C65 C 0.47461 0.01153 0.46236 0.0
C66 C 0.47269 0.02545 0.43397 0.0
C67 C 0.50052 0.0479 0.42616 0.0
C68 C 0.5177 0.04642 0.4502 0.0
N69 N 0.55984 0.04491 0.49848 0.0
C70 C 0.56875 0.06333 0.47157 0.0
C71 C 0.59845 0.08302 0.46987 0.0
C72 C 0.60908 0.07727 0.49775 0.0
C73 C 0.5851 0.05438 0.51488 0.0
N74 N 0.52159 0.98613 0.48418 0.0
C75 C 0.52471 0.94664 0.44395 0.0
C76 C 0.53467 0.97483 0.43231 0.0
C77 C 0.53293 0.9939 0.45249 0.0
C78 C 0.51288 0.93864 0.47623 0.0
C79 C 0.51161 0.95848 0.4957 0.0
N80 N 0.51549 0.04156 0.53936 0.0
C81 C 0.52375 0.08892 0.54651 0.0
C82 C 0.51265 0.08141 0.57909 0.0
C83 C 0.50286 0.05336 0.59118 0.0
C84 C 0.50441 0.03404 0.57117 0.0
C85 C 0.52503 0.06898 0.52738 0.0
H86 H 0.4966 0.01311 0.58207 0.0
H87 H 0.53412 0.07638 0.50301 0.0
H88 H 0.54079 0.01485 0.44175 0.0
H89 H 0.50243 0.95091 0.52004 0.0
C90 C 0.48893 0.96419 0.57316 0.0
C91 C 0.58706 0.04396 0.54782 0.0
C92 C 0.44983 0.98467 0.47655 0.0
C93 C 0.54838 0.06344 0.45022 0.0
H94 H 0.58336 0.00955 0.60542 0.0
H95 H 0.52945 0.96544 0.61934 0.0
H96 H 0.42666 0.9271 0.57215 0.0
H97 H 0.40534 0.93847 0.51889 0.0
H98 H 0.4533 0.01935 0.41983 0.0
H99 H 0.50756 0.06282 0.4048 0.0
H100 H 0.61071 0.10033 0.45136 0.0
H101 H 0.63169 0.08922 0.50535 0.0
H102 H 0.54356 0.98226 0.4074 0.0
H103 H 0.50506 0.91727 0.48682 0.0
H104 H 0.53204 0.11036 0.53584 0.0
H105 H 0.49365 0.04607 0.616 0.0
C106 C 0.56375 0.55631 0.95819 0.0
C107 C 0.56927 0.57553 0.9317 0.0
C108 C 0.54287 0.57198 0.92376 0.0
C109 C 0.52287 0.55095 0.94587 0.0
N110 N 0.53499 0.54119 0.96778 0.0
Co111 Co 0.51401 0.51011 1.00347 0.0
N112 N 0.47481 0.50226 0.98915 0.0
C113 C 0.46931 0.5145 0.96278 0.0
C114 C 0.44021 0.50548 0.96021 0.0
C115 C 0.42642 0.48686 0.98693 0.0
C116 C 0.44805 0.48572 1.00431 0.0
N117 N 0.49302 0.47946 0.03967 0.0
C118 C 0.46453 0.46547 0.05019 0.0
C119 C 0.45925 0.44741 0.07789 0.0
C120 C 0.48548 0.4505 0.08551 0.0
C121 C 0.50519 0.47026 0.06224 0.0
N122 N 0.55322 0.51757 0.0174 0.0
C123 C 0.55845 0.50403 0.0426 0.0
C124 C 0.58741 0.51262 0.04502 0.0
C125 C 0.60149 0.5324 0.01938 0.0
C126 C 0.58019 0.53479 1.00283 0.0
N127 N 0.51705 0.53915 0.03407 0.0
C128 C 0.51817 0.57816 0.07894 0.0
C129 C 0.52911 0.56057 0.08737 0.0
C130 C 0.52818 0.5414 0.06501 0.0
C131 C 0.50706 0.57588 0.04714 0.0
C132 C 0.50695 0.55674 0.02536 0.0
N133 N 0.51083 0.48101 0.97278 0.0
C134 C 0.51426 0.43978 0.96183 0.0
C135 C 0.50817 0.44104 0.92838 0.0
C136 C 0.50325 0.46271 0.91786 0.0
C137 C 0.5046 0.48212 0.94012 0.0
C138 C 0.51552 0.45973 0.98329 0.0
H139 H 0.50062 0.49796 0.93018 0.0
H140 H 0.52061 0.45763 0.00825 0.0
H141 H 0.53644 0.52843 0.07342 0.0
H142 H 0.49818 0.5563 1.00165 0.0
C143 C 0.49236 0.53746 0.94407 0.0
C144 C 0.58615 0.55186 0.97196 0.0
C145 C 0.44262 0.47071 0.0365 0.0
C146 C 0.53551 0.48236 0.06256 0.0
H147 H 0.59009 0.5899 0.9188 0.0
H148 H 0.53857 0.5825 0.90334 0.0
H149 H 0.43047 0.51288 0.94219 0.0
H150 H 0.40335 0.47631 0.99377 0.0
H151 H 0.43887 0.43419 0.09194 0.0
H152 H 0.48992 0.44054 0.10642 0.0
H153 H 0.59698 0.50475 0.06266 0.0
H154 H 0.62466 0.54313 0.01303 0.0
H155 H 0.53866 0.56158 0.11115 0.0
H156 H 0.49788 0.58842 0.03899 0.0
H157 H 0.51861 0.42377 0.97148 0.0
H158 H 0.49795 0.4646 0.89249 0.0
C159 C 0.95775 0.46392 0.53753 0.0
C160 C 0.92922 0.44951 0.52621 0.0
C161 C 0.93009 0.46241 0.49631 0.0
C162 C 0.95892 0.48399 0.49102 0.0
N163 N 0.97669 0.48563 0.51564 0.0
Co164 Co 0.02007 0.51497 0.51801 0.0
N165 N 0.02084 0.53519 0.47498 0.0
C166 C 0.99753 0.52815 0.45587 0.0
C167 C 1.00444 0.54559 0.42777 0.0
C168 C 0.034 0.5649 0.4288 0.0
C169 C 0.04356 0.55805 0.45751 0.0
N170 N 0.06352 0.54408 0.5202 0.0
C171 C 0.08235 0.56604 0.49852 0.0
C172 C 0.11101 0.58003 0.50939 0.0
C173 C 0.11035 0.56661 0.53882 0.0
C174 C 0.08149 0.54514 0.54426 0.0
N175 N 0.01921 0.49499 0.56127 0.0
C176 C 0.04245 0.50224 0.58061 0.0
C177 C 0.0354 0.48523 0.60909 0.0
C178 C 1.00579 0.46611 0.60819 0.0
C179 C 0.99635 0.47263 0.57914 0.0
N180 N 0.02891 0.48986 0.49372 0.0
C181 C 0.04782 0.46165 0.45433 0.0
C182 C 0.05965 0.47077 0.48526 0.0
C183 C 0.04984 0.48455 0.50445 0.0
C184 C 0.02492 0.46511 0.4445 0.0
C185 C 0.01574 0.47897 0.46452 0.0
N186 N 0.01132 0.54011 0.54228 0.0
C187 C 0.01863 0.56814 0.58947 0.0
C188 C 0.9945 0.57017 0.58142 0.0
C189 C 0.98 0.55829 0.55237 0.0
C190 C 0.9888 0.54362 0.53325 0.0
C191 C 0.02665 0.55324 0.56968 0.0
H192 H 0.97654 0.53466 0.51175 0.0
H193 H 0.04492 0.55211 0.57748 0.0
H194 H 0.06021 0.49147 0.52739 0.0
H195 H 0.9985 0.48127 0.45541 0.0
C196 C 0.96963 0.50426 0.46431 0.0
C197 C 0.96539 0.45689 0.56984 0.0
C198 C 0.07445 0.57402 0.46698 0.0
C199 C 0.07059 0.52545 0.57154 0.0
H200 H 0.90962 0.4319 0.53858 0.0
H201 H 0.91171 0.45718 0.48071 0.0
H202 H 0.98978 0.5442 0.40859 0.0
H203 H 0.04706 0.582 0.41035 0.0
H204 H 0.1305 0.59788 0.49711 0.0
H205 H 0.12879 0.57169 0.55424 0.0
H206 H 0.05001 0.48671 0.62837 0.0
H207 H 0.99263 0.44934 0.62691 0.0
H208 H 0.07741 0.46855 0.49409 0.0
H209 H 0.01448 0.45769 0.42111 0.0
H210 H 0.03107 0.57762 0.61128 0.0
H211 H 0.96112 0.55921 0.54503 0.0
C212 C 0.48102 0.99274 0.07624 0.0
C213 C 0.4802 1.00072 0.10793 0.0
C214 C 0.50403 0.02792 0.11018 0.0
C215 C 0.51796 0.03513 0.07982 0.0
N216 N 0.50441 0.01427 0.05813 0.0
Co217 Co 0.5178 0.01629 0.01123 0.0
N218 N 0.55409 0.05552 0.01539 0.0
C219 C 0.56281 0.07038 0.04307 0.0
C220 C 0.58888 0.09629 0.03913 0.0
C221 C 0.59722 0.09836 1.00688 0.0
C222 C 0.57545 0.07366 0.99269 0.0
N223 N 0.53084 0.01862 0.96407 0.0
C224 C 0.55333 0.04077 0.94548 0.0
C225 C 0.55213 0.03387 0.91279 0.0
C226 C 0.52858 0.00654 0.91071 0.0
C227 C 0.51639 0.99831 0.94192 0.0
N228 N 0.48182 0.97674 1.00733 0.0
C229 C 0.47414 0.96098 0.98038 0.0
C230 C 0.4494 0.93408 0.98516 0.0
C231 C 0.44082 0.93232 0.01724 0.0
C232 C 0.4608 0.95844 0.03025 0.0
N233 N 0.49568 0.03421 0.99623 0.0
C234 C 0.47058 0.06409 0.96862 0.0
C235 C 0.46463 0.03836 0.95613 0.0
C236 C 0.47708 0.02382 0.97032 0.0
C237 C 0.48796 0.07365 0.99647 0.0
C238 C 0.50007 0.05844 0.00986 0.0
N239 N 0.53988 0.9983 0.02621 0.0
C240 C 0.55001 0.96071 0.02199 0.0
C241 C 0.56287 0.96626 0.05289 0.0
C242 C 0.56598 0.98951 0.06903 0.0
C243 C 0.55457 1.0052 0.05528 0.0
C244 C 0.53898 0.97701 0.00911 0.0
H245 H 0.55704 0.02218 0.06921 0.0
H246 H 0.52909 0.97141 0.9857 0.0
H247 H 0.47199 1.00464 0.95925 0.0
H248 H 0.51345 0.06706 0.03075 0.0
C249 C 0.54503 0.06026 0.07174 0.0
C250 C 0.45919 0.96437 0.06477 0.0
C251 C 0.57578 0.0689 0.95738 0.0
C252 C 0.49068 0.97211 0.9509 0.0
H253 H 0.46424 0.98804 0.12758 0.0
H254 H 0.5108 0.04065 0.13167 0.0
H255 H 0.60019 0.11208 0.05737 0.0
H256 H 0.61694 0.1163 0.99511 0.0
H257 H 0.5663 0.0473 0.89222 0.0
H258 H 0.52079 0.9944 0.88879 0.0
H259 H 0.43902 0.91758 0.96752 0.0
H260 H 0.42216 0.91374 0.02976 0.0
H261 H 0.45138 0.02995 0.93456 0.0
H262 H 0.4926 0.09304 0.00768 0.0
H263 H 0.54786 0.94344 0.00806 0.0
H264 H 0.57589 0.9948 0.09298 0.0
C265 C 0.53861 0.56764 0.51937 0.0
C266 C 0.54011 0.58945 0.53676 0.0
C267 C 0.53188 0.5788 0.56887 0.0
C268 C 0.52563 0.55114 0.56915 0.0
N269 N 0.52932 0.54386 0.53934 0.0
Co270 Co 0.52179 0.50605 0.52829 0.0
N271 N 0.49487 0.48667 0.56716 0.0
C272 C 0.49723 0.50003 0.59505 0.0
C273 C 0.484 0.48145 0.62193 0.0
C274 C 0.47262 0.45476 0.61028 0.0
C275 C 0.47792 0.45824 0.57621 0.0
N276 N 0.51474 0.46833 0.51694 0.0
C277 C 0.49512 0.44159 0.53033 0.0
C278 C 0.50453 0.4231 0.52351 0.0
C279 C 0.529 0.43808 0.50324 0.0
C280 C 0.53439 0.46529 0.50001 0.0
N281 N 0.54919 0.52588 0.4902 0.0
C282 C 0.56411 0.51653 0.47433 0.0
C283 C 0.58125 0.53503 0.44846 0.0
C284 C 0.57671 0.55737 0.44832 0.0
C285 C 0.557 0.55111 0.47418 0.0
N286 N 0.55495 0.51189 0.55614 0.0
C287 C 0.60024 0.51893 0.5985 0.0
C288 C 0.57352 0.49258 0.59723 0.0
C289 C 0.55153 0.48957 0.5763 0.0
C290 C 0.60409 0.5417 0.57713 0.0
C291 C 0.58122 0.53776 0.55625 0.0
N292 N 0.48885 0.50019 0.50063 0.0
C293 C 0.46575 0.49113 0.44751 0.0
C294 C 0.44516 0.49739 0.45874 0.0
C295 C 0.44674 0.50448 0.49185 0.0
C296 C 0.46866 0.50586 0.51221 0.0
C297 C 0.48707 0.49235 0.46879 0.0
H298 H 0.46969 0.51212 0.53722 0.0
H299 H 0.50253 0.48743 0.45927 0.0
H300 H 0.53158 0.46885 0.57693 0.0
H301 H 0.58466 0.5557 0.54045 0.0
C302 C 0.51194 0.53007 0.59489 0.0
C303 C 0.54761 0.57017 0.48464 0.0
C304 C 0.47092 0.43477 0.55411 0.0
C305 C 0.55729 0.48841 0.48097 0.0
H306 H 0.54648 0.61077 0.52741 0.0
H307 H 0.52958 0.58956 0.58917 0.0
H308 H 0.4839 0.48669 0.64727 0.0
H309 H 0.46367 0.43539 0.626 0.0
H310 H 0.49638 0.40168 0.53393 0.0
H311 H 0.54204 0.43034 0.49329 0.0
H312 H 0.59449 0.53212 0.43098 0.0
H313 H 0.5868 0.57612 0.43137 0.0
H314 H 0.56945 0.474 0.61234 0.0
H315 H 0.62431 0.56257 0.57701 0.0
H316 H 0.46529 0.48505 0.42244 0.0
H317 H 0.43156 0.50964 0.50186 0.0
Cu318 Cu 0.24597 0.46425 0.25452 0.0
N319 N 0.25484 0.4437 0.22663 0.0
N320 N 0.27977 0.43535 0.1896 0.0
C321 C 0.28 0.45485 0.20877 0.0
C322 C 0.25336 0.41092 0.19586 0.0
C323 C 0.23805 0.41615 0.21866 0.0
O324 O 0.2807 0.48509 0.28336 0.0
C325 C 0.21069 0.46912 0.2076 0.0
O326 O 0.20043 0.44147 0.20946 0.0
H327 H 0.29804 0.47691 0.20992 0.0
H328 H 0.21592 0.40109 0.228 0.0
N329 N 0.21347 0.43925 0.28202 0.0
N330 N 0.17379 0.42448 0.31424 0.0
C331 C 0.1951 0.44613 0.29474 0.0
C332 C 0.20339 0.41219 0.29376 0.0
C333 C 0.17896 0.40307 0.31384 0.0
C334 C 0.28592 0.46903 0.30235 0.0
O335 O 0.26848 0.44109 0.30119 0.0
H336 H 0.19779 0.46695 0.29031 0.0
H337 H 0.21322 0.40001 0.28846 0.0
O338 O 0.23234 0.48532 0.22584 0.0
H339 H 0.24525 0.39089 0.18417 0.0
H340 H 0.166 0.38233 0.327 0.0
Cu341 Cu 0.78203 0.23925 0.7554 0.0
N342 N 0.77428 0.21003 0.72806 0.0
N343 N 0.75006 0.17577 0.6924 0.0
C344 C 0.74974 0.19541 0.71071 0.0
C345 C 0.77593 0.17811 0.69871 0.0
C346 C 0.79088 0.19935 0.7207 0.0
O347 O 0.74356 0.22401 0.77836 0.0
C348 C 0.814 0.3009 0.73156 0.0
O349 O 0.81249 0.30776 0.76171 0.0
H350 H 0.7319 0.19909 0.71184 0.0
H351 H 0.81236 0.20665 0.73044 0.0
N352 N 0.80848 0.24159 0.78688 0.0
N353 N 0.84372 0.2591 0.82408 0.0
C354 C 0.83272 0.26521 0.79726 0.0
C355 C 0.80432 0.21978 0.8075 0.0
C356 C 0.82594 0.23054 0.83062 0.0
C357 C 0.74003 0.2256 0.80918 0.0
O358 O 0.76271 0.24396 0.82599 0.0
H359 H 0.84111 0.28666 0.78677 0.0
H360 H 0.78589 0.19786 0.80678 0.0
O361 O 0.80077 0.27438 0.72522 0.0
H362 H 0.78378 0.16578 0.68781 0.0
H363 H 0.8278 0.21853 0.85134 0.0
Cu364 Cu 0.55503 0.77304 0.27044 0.0
N365 N 0.58056 0.80141 0.23899 0.0
N366 N 0.59458 0.83491 0.1979 0.0
C367 C 0.57207 0.81473 0.21744 0.0
C368 C 0.6183 0.8343 0.20749 0.0
C369 C 0.60951 0.81337 0.23276 0.0
O370 O 0.53606 0.79003 0.2946 0.0
C371 C 0.54585 0.72743 0.23431 0.0
O372 O 0.57375 0.73973 0.2413 0.0
H373 H 0.54982 0.81012 0.21672 0.0
H374 H 0.62327 0.8074 0.24561 0.0
N375 N 0.57517 0.76433 0.30173 0.0
N376 N 0.58348 0.73814 0.33872 0.0
C377 C 0.56414 0.73848 0.31768 0.0
C378 C 0.60238 0.78111 0.31321 0.0
C379 C 0.60758 0.76502 0.336 0.0
C380 C 0.55439 0.81489 0.30519 0.0
O381 O 0.58251 0.82576 0.29928 0.0
H382 H 0.54218 0.72038 0.31398 0.0
H383 H 0.61742 0.80345 0.30562 0.0
O384 O 0.53146 0.73812 0.2451 0.0
H385 H 0.64029 0.8478 0.19686 0.0
H386 H 0.62773 0.77251 0.34916 0.0
Cu387 Cu 0.80681 0.56508 0.79049 0.0
N388 N 0.84009 0.59305 0.76609 0.0
N389 N 0.88019 0.6121 0.73327 0.0
C390 C 0.86259 0.59092 0.75583 0.0
C391 C 0.86842 0.62839 0.72934 0.0
C392 C 0.84368 0.61657 0.74964 0.0
O393 O 0.81931 0.54439 0.82098 0.0
C394 C 0.74902 0.52767 0.76048 0.0
O395 O 0.73878 0.51374 0.78927 0.0
H396 H 0.86478 0.573 0.76275 0.0
H397 H 0.82837 0.62358 0.75081 0.0
N398 N 0.79453 0.58386 0.81695 0.0
N399 N 0.76534 0.59216 0.84718 0.0
C400 C 0.76751 0.57274 0.83047 0.0
C401 C 0.81022 0.61126 0.82577 0.0
C402 C 0.79227 0.61645 0.84444 0.0
C403 C 0.83012 0.52936 0.81414 0.0
O404 O 0.82892 0.52166 0.78376 0.0
H405 H 0.74984 0.55073 0.82851 0.0
H406 H 0.83302 0.62649 0.81882 0.0
O407 O 0.77652 0.54624 0.75667 0.0
H408 H 0.87629 0.64668 0.71195 0.0
H409 H 0.79843 0.63668 0.85455 0.0
Cu410 Cu 0.24975 0.79027 0.27099 0.0
N411 N 0.21789 0.78256 0.24503 0.0
N412 N 0.17917 0.7573 0.21356 0.0
C413 C 0.19921 0.75679 0.23309 0.0
C414 C 0.18543 0.78449 0.21312 0.0
C415 C 0.20927 0.80003 0.23279 0.0
O416 O 0.23532 0.75455 0.29969 0.0
C417 C 0.29147 0.82893 0.22405 0.0
O418 O 0.27555 0.84001 0.2294 0.0
H419 H 0.20096 0.73825 0.23779 0.0
H420 H 0.21981 0.82257 0.2373 0.0
N421 N 0.25899 0.81984 0.29874 0.0
N422 N 0.28549 0.85502 0.33263 0.0
C423 C 0.28448 0.83466 0.31443 0.0
C424 C 0.24318 0.83112 0.30721 0.0
C425 C 0.25946 0.85281 0.32823 0.0
C426 C 0.21418 0.74869 0.31978 0.0
O427 O 0.20494 0.76647 0.3197 0.0
H428 H 0.30178 0.83026 0.31272 0.0
H429 H 0.22134 0.82404 0.29886 0.0
O430 O 0.28468 0.80558 0.24047 0.0
H431 H 0.17374 0.79256 0.19946 0.0
H432 H 0.25279 0.86612 0.33903 0.0
Cu433 Cu 0.45887 0.24073 0.74146 0.0
N434 N 0.43488 0.24399 0.71015 0.0
N435 N 0.41618 0.26134 0.67344 0.0
C436 C 0.43253 0.26652 0.70069 0.0
C437 C 0.40774 0.2345 0.66579 0.0
C438 C 0.4193 0.22395 0.68833 0.0
O439 O 0.47736 0.27405 0.76996 0.0
C440 C 0.49183 0.21415 0.72564 0.0
O441 O 0.49011 0.20745 0.75736 0.0
H442 H 0.44389 0.28684 0.71226 0.0
H443 H 0.41764 0.20352 0.68797 0.0
N444 N 0.43475 0.20906 0.77036 0.0
N445 N 0.42172 0.1765 0.81259 0.0
C446 C 0.44312 0.20209 0.7987 0.0
C447 C 0.40674 0.18759 0.76657 0.0
C448 C 0.39867 0.16747 0.79249 0.0
C449 C 0.49098 0.30091 0.7619 0.0
O450 O 0.49768 0.30952 0.73065 0.0
H451 H 0.46511 0.21492 0.80789 0.0
H452 H 0.39335 0.1862 0.74598 0.0
O453 O 0.4833 0.23083 0.71539 0.0
H454 H 0.39496 0.2236 0.64471 0.0
H455 H 0.37765 0.14744 0.79571 0.0
H456 H 0.10263 0.53051 0.1207 0.0
H457 H 0.18755 0.44765 0.14896 0.0
H458 H 0.09986 0.47017 0.05499 0.0
H459 H 0.1993 0.5129 0.21302 0.0
H460 H 0.15699 0.45767 0.11384 0.0
H461 H 0.13842 0.52599 0.15442 0.0
C462 C 0.10966 0.51639 0.11334 0.0
C463 C 0.09826 0.50072 0.08491 0.0
C464 C 0.16635 0.4701 0.13533 0.0
C465 C 0.13925 0.49537 0.12343 0.0
C466 C 0.18401 0.46444 0.15548 0.0
C467 C 0.19626 0.47947 0.1841 0.0
C468 C 0.16016 0.49082 0.14373 0.0
C469 C 0.19067 0.50096 0.19106 0.0
C470 C 0.13013 0.51385 0.13255 0.0
C471 C 0.10809 0.48271 0.07658 0.0
N472 N 0.17281 0.50579 0.17124 0.0
N473 N 0.12782 0.48051 0.09567 0.0
H474 H 0.59681 0.09285 0.5729 0.0
H475 H 0.73973 0.12497 0.67143 0.0
H476 H 0.63271 0.0393 0.56983 0.0
H477 H 0.70869 0.18289 0.66307 0.0
H478 H 0.70054 0.09271 0.63536 0.0
H479 H 0.63726 0.12545 0.6075 0.0
C480 C 0.61333 0.08806 0.57966 0.0
C481 C 0.61154 0.06344 0.56893 0.0
C482 C 0.70238 0.11252 0.64145 0.0
C483 C 0.6578 0.10043 0.60832 0.0
C484 C 0.72485 0.13103 0.66194 0.0
C485 C 0.72751 0.15669 0.67059 0.0
C486 C 0.6824 0.11968 0.62954 0.0
C487 C 0.70729 0.16318 0.65772 0.0
C488 C 0.63639 0.1066 0.59933 0.0
C489 C 0.63337 0.05803 0.57804 0.0
N490 N 0.68563 0.1448 0.63798 0.0
N491 N 0.65563 0.07637 0.59736 0.0
H492 H 0.51456 0.57301 0.14745 0.0
H493 H 0.51949 0.71927 0.17395 0.0
H494 H 0.52174 0.63014 0.06608 0.0
H495 H 0.54558 0.67859 0.24729 0.0
H496 H 0.5098 0.68161 0.136 0.0
H497 H 0.51666 0.60679 0.18572 0.0
C498 C 0.51675 0.59261 0.13736 0.0
C499 C 0.51831 0.59846 0.10296 0.0
C500 C 0.51712 0.68065 0.16063 0.0
C501 C 0.51973 0.63726 0.14749 0.0
C502 C 0.52222 0.7019 0.18244 0.0
C503 C 0.53287 0.70178 0.21405 0.0
C504 C 0.5224 0.65896 0.17064 0.0
C505 C 0.537 0.67928 0.22333 0.0
C506 C 0.51766 0.61186 0.15946 0.0
C507 C 0.52012 0.62414 0.0921 0.0
N508 N 0.53176 0.65887 0.20187 0.0
N509 N 0.52078 0.64245 0.11416 0.0
H510 H 0.97214 0.60402 0.56609 0.0
H511 H 0.91663 0.59431 0.75148 0.0
H512 H 0.9908 0.56449 0.64887 0.0
H513 H 0.89509 0.63168 0.66916 0.0
H514 H 0.94955 0.58923 0.71517 0.0
H515 H 0.94904 0.61986 0.60417 0.0
C516 C 0.97155 0.59882 0.59227 0.0
C517 C 0.98326 0.5827 0.60423 0.0
C518 C 0.93789 0.59884 0.70507 0.0
C519 C 0.95701 0.6009 0.64796 0.0
C520 C 0.91906 0.60169 0.7258 0.0
C521 C 0.90284 0.61311 0.71326 0.0
C522 C 0.94038 0.60728 0.67142 0.0
C523 C 0.90721 0.62283 0.67991 0.0
C524 C 0.95849 0.60799 0.614 0.0
C525 C 0.98233 0.57705 0.63847 0.0
N526 N 0.92529 0.61935 0.66003 0.0
N527 N 0.96921 0.58591 0.65904 0.0
H528 H 0.40104 0.94643 0.06233 0.0
H529 H 0.34576 0.83321 0.22033 0.0
H530 H 0.46067 0.93238 0.11854 0.0
H531 H 0.29343 0.86068 0.17006 0.0
H532 H 0.38702 0.86482 0.18097 0.0
H533 H 0.36044 0.91104 0.0992 0.0
C534 C 0.40552 0.93578 0.08248 0.0
C535 C 0.43425 0.9424 0.08738 0.0
C536 C 0.36637 0.86367 0.17849 0.0
C537 C 0.38768 0.90152 0.13009 0.0
C538 C 0.34274 0.84542 0.2008 0.0
C539 C 0.31598 0.84422 0.19865 0.0
C540 C 0.36309 0.88057 0.15368 0.0
C541 C 0.31358 0.86092 0.17297 0.0
C542 C 0.38234 0.91554 0.10361 0.0
C543 C 0.43881 0.92792 0.11396 0.0
N544 N 0.3366 0.87821 0.15177 0.0
N545 N 0.41584 0.90821 0.1343 0.0
H546 H 0.44999 0.38386 0.51939 0.0
H547 H 0.41231 0.30524 0.6946 0.0
H548 H 0.42202 0.41161 0.59975 0.0
H549 H 0.412 0.26402 0.60684 0.0
H550 H 0.41117 0.34229 0.65991 0.0
H551 H 0.42819 0.33649 0.54753 0.0
C552 C 0.44117 0.38076 0.54418 0.0
C553 C 0.44528 0.404 0.56178 0.0
C554 C 0.41075 0.32481 0.64825 0.0
C555 C 0.41643 0.34889 0.59212 0.0
C556 C 0.4117 0.30384 0.66807 0.0
C557 C 0.41252 0.28165 0.65364 0.0
C558 C 0.41123 0.32393 0.61369 0.0
C559 C 0.4113 0.28065 0.61908 0.0
C560 C 0.42772 0.35329 0.55976 0.0
C561 C 0.42597 0.39634 0.58919 0.0
N562 N 0.41127 0.30176 0.6003 0.0
N563 N 0.41385 0.36988 0.6048 0.0
H564 H 0.56935 0.95904 0.39999 0.0
H565 H 0.50264 0.79835 0.34119 0.0
H566 H 0.48663 0.88755 0.4394 0.0
H567 H 0.58748 0.87234 0.31169 0.0
H568 H 0.49371 0.82949 0.37477 0.0
H569 H 0.57384 0.92674 0.36534 0.0
C570 C 0.5519 0.93657 0.40125 0.0
C571 C 0.52745 0.92633 0.42278 0.0
C572 C 0.51419 0.83881 0.36077 0.0
C573 C 0.53274 0.88846 0.3828 0.0
C574 C 0.51921 0.82105 0.34143 0.0
C575 C 0.54594 0.83256 0.32358 0.0
C576 C 0.53595 0.8683 0.36201 0.0
C577 C 0.56663 0.8622 0.32512 0.0
C578 C 0.55459 0.91795 0.38146 0.0
C579 C 0.50603 0.89659 0.42351 0.0
N580 N 0.56123 0.87879 0.34383 0.0
N581 N 0.50912 0.87878 0.40385 0.0
H582 H 0.64264 0.59593 0.98122 0.0
H583 H 0.70842 0.55326 0.83369 0.0
H584 H 0.58992 0.52701 0.91775 0.0
H585 H 0.76266 0.62109 0.89822 0.0
H586 H 0.66481 0.54497 0.86279 0.0
H587 H 0.68692 0.6075 0.94951 0.0
C588 C 0.64054 0.58343 0.96041 0.0
C589 C 0.61292 0.56049 0.95196 0.0
C590 C 0.68623 0.56171 0.8706 0.0
C591 C 0.66299 0.57333 0.91578 0.0
C592 C 0.71123 0.56634 0.85411 0.0
C593 C 0.73938 0.58775 0.86368 0.0
C594 C 0.68924 0.57857 0.89698 0.0
C595 C 0.74146 0.60446 0.88986 0.0
C596 C 0.66567 0.58994 0.94238 0.0
C597 C 0.61099 0.54485 0.92489 0.0
N598 N 0.71673 0.59944 0.90569 0.0
N599 N 0.63573 0.55147 0.90782 0.0
H600 H 0.09724 0.57397 0.4061 0.0
H601 H 0.19373 0.74604 0.38143 0.0
H602 H 0.10394 0.63127 0.4789 0.0
H603 H 0.19871 0.69222 0.31162 0.0
H604 H 0.16198 0.70376 0.41746 0.0
H605 H 0.13433 0.61576 0.37116 0.0
C606 C 0.1066 0.59537 0.41473 0.0
C607 C 0.09747 0.59916 0.44546 0.0
C608 C 0.17014 0.70098 0.39449 0.0
C609 C 0.13995 0.64716 0.40561 0.0
C610 C 0.18847 0.72526 0.37385 0.0
C611 C 0.19917 0.72286 0.3434 0.0
C612 C 0.16167 0.67355 0.38472 0.0
C613 C 0.19135 0.69521 0.335 0.0
C614 C 0.12783 0.61921 0.39483 0.0
C615 C 0.11033 0.62734 0.45544 0.0
N616 N 0.17283 0.67162 0.35535 0.0
N617 N 0.13069 0.65011 0.43564 0.0
H618 H 0.49988 0.12279 0.95922 0.0
H619 H 0.38837 0.11867 0.82711 0.0
H620 H 0.41799 0.04534 0.93809 0.0
H621 H 0.46202 0.19743 0.86109 0.0
H622 H 0.39724 0.09176 0.86975 0.0
H623 H 0.48498 0.15071 0.92589 0.0
C624 C 0.47854 0.11163 0.94807 0.0
C625 C 0.4603 0.08154 0.95136 0.0
C626 C 0.41131 0.11497 0.86806 0.0
C627 C 0.44336 0.1135 0.9124 0.0
C628 C 0.40616 0.13046 0.84372 0.0
C629 C 0.42469 0.16051 0.83999 0.0
C630 C 0.43528 0.12951 0.8888 0.0
C631 C 0.44755 0.17432 0.86235 0.0
C632 C 0.47012 0.12763 0.92881 0.0
C633 C 0.43309 0.06839 0.93575 0.0
N634 N 0.45236 0.15871 0.88552 0.0
N635 N 0.42559 0.0844 0.91673 0.0
H636 H 0.38673 0.4762 0.47325 0.0
H637 H 0.34543 0.51102 0.29312 0.0
H638 H 0.45056 0.51591 0.39281 0.0
H639 H 0.282 0.4502 0.36607 0.0
H640 H 0.38515 0.52033 0.33139 0.0
H641 H 0.34927 0.47351 0.43653 0.0
C642 C 0.39303 0.48459 0.44795 0.0
C643 C 0.42207 0.4962 0.43633 0.0
C644 C 0.36249 0.50526 0.33915 0.0
C645 C 0.37877 0.4932 0.39365 0.0
C646 C 0.33979 0.50024 0.31745 0.0
C647 C 0.31024 0.48001 0.32648 0.0
C648 C 0.35556 0.49022 0.37027 0.0
C649 C 0.30439 0.4661 0.35807 0.0
C650 C 0.37149 0.48292 0.42685 0.0
C651 C 0.42849 0.50642 0.40294 0.0
N652 N 0.32664 0.47145 0.37864 0.0
N653 N 0.40715 0.50474 0.38291 0.0
H654 H 0.99761 0.40512 0.90253 0.0
H655 H 0.84435 0.25684 0.89076 0.0
H656 H 0.92606 0.3747 0.97388 0.0
H657 H 0.89419 0.30827 0.80408 0.0
H658 H 0.88062 0.29425 0.9253 0.0
H659 H 0.96561 0.36417 0.86962 0.0
C660 C 0.97533 0.38996 0.91146 0.0
C661 C 0.96465 0.39378 0.94115 0.0
C662 C 0.88375 0.29718 0.89872 0.0
C663 C 0.92834 0.34636 0.9039 0.0
C664 C 0.86323 0.27579 0.87906 0.0
C665 C 0.86633 0.27959 0.84457 0.0
C666 C 0.90776 0.3223 0.8838 0.0
C667 C 0.89097 0.30474 0.8306 0.0
C668 C 0.95718 0.3665 0.89268 0.0
C669 C 0.9357 0.37271 0.95162 0.0
N670 N 0.91083 0.3252 0.85028 0.0
N671 N 0.91862 0.34998 0.93304 0.0
H672 H 0.95201 0.49004 0.90854 0.0
H673 H 0.84296 0.54718 0.87791 0.0
H674 H 0.93911 0.5392 0.97803 0.0
H675 H 0.85863 0.50046 0.80724 0.0
H676 H 0.87579 0.54239 0.91599 0.0
H677 H 0.91627 0.49185 0.87228 0.0
C678 C 0.94155 0.50116 0.91618 0.0
C679 C 0.94856 0.51446 0.94638 0.0
C680 C 0.87193 0.53302 0.89224 0.0
C681 C 0.9074 0.51668 0.9049 0.0
C682 C 0.853 0.53564 0.87044 0.0
C683 C 0.84778 0.5242 0.83909 0.0
C684 C 0.88596 0.51884 0.88286 0.0
C685 C 0.86178 0.50964 0.83102 0.0
C686 C 0.92111 0.5022 0.89548 0.0
C687 C 0.93429 0.52856 0.95503 0.0
N688 N 0.88016 0.50749 0.85258 0.0
N689 N 0.9145 0.52933 0.93447 0.0
H690 H 0.39322 0.97189 0.48053 0.0
H691 H 0.34323 0.87362 0.32489 0.0
H692 H 0.45071 0.9562 0.4245 0.0
H693 H 0.28268 0.88186 0.38578 0.0
H694 H 0.38318 0.90568 0.35974 0.0
H695 H 0.35261 0.94084 0.44475 0.0
C696 C 0.39711 0.96178 0.46066 0.0
C697 C 0.42499 0.9662 0.45537 0.0
C698 C 0.36116 0.9005 0.36553 0.0
C699 C 0.37921 0.93114 0.4144 0.0
C700 C 0.33825 0.88202 0.3457 0.0
C701 C 0.30942 0.87477 0.35251 0.0
C702 C 0.35533 0.91197 0.39245 0.0
C703 C 0.30454 0.88697 0.37942 0.0
C704 C 0.37409 0.94417 0.44027 0.0
C705 C 0.42934 0.95307 0.42926 0.0
N706 N 0.32726 0.90491 0.39847 0.0
N707 N 0.40666 0.93608 0.40974 0.0
H708 H 0.48763 0.38321 0.93965 0.0
H709 H 0.51703 0.35951 0.75292 0.0
H710 H 0.52601 0.45076 0.86259 0.0
H711 H 0.47674 0.29101 0.82873 0.0
H712 H 0.52231 0.39337 0.79338 0.0
H713 H 0.48532 0.34968 0.90042 0.0
C714 C 0.49579 0.39117 0.91461 0.0
C715 C 0.50697 0.42012 0.90469 0.0
C716 C 0.51243 0.37097 0.80128 0.0
C717 C 0.50409 0.38134 0.85915 0.0
C718 C 0.50947 0.35153 0.77811 0.0
C719 C 0.49639 0.32215 0.78719 0.0
C720 C 0.50225 0.3612 0.83406 0.0
C721 C 0.487 0.31335 0.8204 0.0
C722 C 0.49428 0.37185 0.89208 0.0
C723 C 0.51675 0.4287 0.87154 0.0
N724 N 0.49002 0.33268 0.84246 0.0
N725 N 0.51507 0.40952 0.85016 0.0
H726 H 0.05875 0.47395 0.38794 0.0
H727 H 0.1482 0.39625 0.373 0.0
H728 H 0.06734 0.42531 0.46884 0.0
H729 H 0.14797 0.45402 0.29757 0.0
H730 H 0.1128 0.40073 0.40581 0.0
H731 H 0.08521 0.4606 0.35189 0.0
C732 C 0.06575 0.46004 0.39803 0.0
C733 C 0.06093 0.45087 0.43157 0.0
C734 C 0.12037 0.41227 0.38197 0.0
C735 C 0.09184 0.43593 0.39044 0.0
C736 C 0.14043 0.40959 0.36318 0.0
C737 C 0.15128 0.42504 0.33269 0.0
C738 C 0.11098 0.4304 0.37006 0.0
C739 C 0.14063 0.44219 0.32123 0.0
C740 C 0.08111 0.45262 0.37746 0.0
C741 C 0.07097 0.43324 0.44329 0.0
N742 N 0.12119 0.4445 0.33997 0.0
N743 N 0.08612 0.42649 0.4228 0.0
H744 H 0.58774 0.12381 0.94489 0.0
H745 H 0.70288 0.16894 0.79558 0.0
H746 H 0.61658 0.06807 0.9168 0.0
H747 H 0.71524 0.23051 0.8657 0.0
H748 H 0.66224 0.13077 0.83073 0.0
H749 H 0.62609 0.16239 0.90778 0.0
C750 C 0.60203 0.11963 0.93082 0.0
C751 C 0.59876 0.09251 0.93398 0.0
C752 C 0.67364 0.15271 0.83816 0.0
C753 C 0.64217 0.13641 0.89061 0.0
C754 C 0.69665 0.17458 0.81795 0.0
C755 C 0.71248 0.20312 0.82752 0.0
C756 C 0.66576 0.1594 0.86782 0.0
C757 C 0.70364 0.2089 0.85723 0.0
C758 C 0.62386 0.14164 0.90963 0.0
C759 C 0.61795 0.08841 0.91491 0.0
N760 N 0.68082 0.18736 0.87615 0.0
N761 N 0.63853 0.10992 0.89388 0.0
H762 H 0.51682 0.56903 0.43097 0.0
H763 H 0.6124 0.73976 0.39456 0.0
H764 H 0.59122 0.62667 0.48781 0.0
H765 H 0.54469 0.6812 0.33065 0.0
H766 H 0.60438 0.6988 0.42956 0.0
H767 H 0.52589 0.60997 0.39439 0.0
C768 C 0.535 0.59042 0.43569 0.0
C769 C 0.55301 0.5948 0.46257 0.0
C770 C 0.5913 0.69492 0.40784 0.0
C771 C 0.56371 0.64154 0.42107 0.0
C772 C 0.59597 0.71835 0.3877 0.0
C773 C 0.57917 0.71409 0.35954 0.0
C774 C 0.56961 0.66693 0.39989 0.0
C775 C 0.55787 0.6857 0.35232 0.0
C776 C 0.54023 0.61373 0.41489 0.0
C777 C 0.57655 0.62268 0.46761 0.0
N778 N 0.55369 0.66326 0.37237 0.0
N779 N 0.58116 0.64506 0.44715 0.0
H780 H 0.52233 0.08835 0.64579 0.0
H781 H 0.48765 0.21309 0.65747 0.0
H782 H 0.50057 0.12328 0.56114 0.0
H783 H 0.51185 0.17842 0.74015 0.0
H784 H 0.49418 0.18229 0.62118 0.0
H785 H 0.51966 0.12219 0.68002 0.0
C786 C 0.51681 0.10297 0.6343 0.0
C787 C 0.51152 0.10258 0.6003 0.0
C788 C 0.49829 0.18161 0.64723 0.0
C789 C 0.50874 0.14211 0.6398 0.0
C790 C 0.49473 0.19936 0.66799 0.0
C791 C 0.49918 0.19852 0.70211 0.0
C792 C 0.50632 0.16272 0.66056 0.0
C793 C 0.50808 0.17995 0.71414 0.0
C794 C 0.5155 0.12255 0.65394 0.0
C795 C 0.5051 0.12275 0.58706 0.0
N796 N 0.51118 0.16284 0.69356 0.0
N797 N 0.50378 0.1415 0.60676 0.0
H798 H 0.4358 0.51054 0.06456 0.0
H799 H 0.28788 0.39492 0.16474 0.0
H800 H 0.39296 0.41929 0.05567 0.0
H801 H 0.32399 0.48629 0.16147 0.0
H802 H 0.32652 0.40322 0.12585 0.0
H803 H 0.39537 0.50205 0.10112 0.0
C804 C 0.4177 0.48871 0.07033 0.0
C805 C 0.41757 0.46551 0.05753 0.0
C806 C 0.32593 0.42144 0.13362 0.0
C807 C 0.37147 0.45553 0.09923 0.0
C808 C 0.30376 0.41671 0.15579 0.0
C809 C 0.30255 0.43991 0.16662 0.0
C810 C 0.34719 0.44959 0.12222 0.0
C811 C 0.32415 0.46772 0.15438 0.0
C812 C 0.39469 0.48384 0.09115 0.0
C813 C 0.39378 0.43763 0.06545 0.0
N814 N 0.34556 0.47175 0.13293 0.0
N815 N 0.3717 0.43337 0.086 0.0
H816 H 0.94707 0.46343 0.63005 0.0
H817 H 0.8272 0.29482 0.66786 0.0
H818 H 0.93044 0.39844 0.56313 0.0
H819 H 0.84719 0.35966 0.73677 0.0
H820 H 0.8629 0.33241 0.62827 0.0
H821 H 0.90927 0.42604 0.66845 0.0
C822 C 0.93538 0.44125 0.62345 0.0
C823 C 0.94189 0.43408 0.59329 0.0
C824 C 0.8594 0.33847 0.65199 0.0
C825 C 0.89836 0.39089 0.63721 0.0
C826 C 0.83885 0.31695 0.67466 0.0
C827 C 0.83394 0.32386 0.70595 0.0
C828 C 0.8754 0.36736 0.66039 0.0
C829 C 0.85003 0.35309 0.71309 0.0
C830 C 0.91376 0.41986 0.64536 0.0
C831 C 0.92604 0.40494 0.58602 0.0
N832 N 0.86994 0.37359 0.69067 0.0
N833 N 0.9051 0.38451 0.60772 0.0
H834 H 0.53199 0.90764 0.05386 0.0
H835 H 0.63684 0.89024 0.18029 0.0
H836 H 0.61124 0.97996 0.09002 0.0
H837 H 0.54899 0.82212 0.15862 0.0
H838 H 0.63193 0.92258 0.14077 0.0
H839 H 0.54229 0.87526 0.0852 0.0
C840 C 0.55184 0.91675 0.06796 0.0
C841 C 0.57073 0.94662 0.06935 0.0
C842 C 0.61382 0.9005 0.14456 0.0
C843 C 0.5824 0.90951 0.10589 0.0
C844 C 0.61669 0.88204 0.16691 0.0
C845 C 0.59317 0.85358 0.17292 0.0
C846 C 0.58737 0.89026 0.12789 0.0
C847 C 0.56745 0.84403 0.15513 0.0
C848 C 0.55757 0.89821 0.08612 0.0
C849 C 0.59587 0.95709 0.08857 0.0
N850 N 0.56521 0.86232 0.13352 0.0
N851 N 0.60092 0.93856 0.10621 0.0
H852 H 0.59158 0.49539 0.66186 0.0
H853 H 0.76133 0.55571 0.69858 0.0
H854 H 0.66127 0.54929 0.59053 0.0
H855 H 0.68858 0.49461 0.76284 0.0
H856 H 0.72617 0.55463 0.6589 0.0
H857 H 0.62761 0.49659 0.69926 0.0
C858 C 0.61448 0.50743 0.65385 0.0
C859 C 0.62309 0.52192 0.62248 0.0
C860 C 0.71792 0.54134 0.68159 0.0
C861 C 0.66513 0.52368 0.66611 0.0
C862 C 0.73801 0.54182 0.70428 0.0
C863 C 0.72809 0.52514 0.7343 0.0
C864 C 0.68754 0.5242 0.6889 0.0
C865 C 0.69749 0.50779 0.74016 0.0
C866 C 0.63517 0.50818 0.67545 0.0
C867 C 0.65341 0.53781 0.61434 0.0
N868 N 0.6785 0.5079 0.71789 0.0
N869 N 0.67325 0.53817 0.63589 0.0
H870 H 0.08565 0.65078 0.05444 0.0
H871 H 0.14905 0.70093 0.23265 0.0
H872 H 0.06109 0.59276 0.14056 0.0
H873 H 0.15967 0.76044 0.15274 0.0
H874 H 0.11556 0.66104 0.19935 0.0
H875 H 0.1118 0.69144 0.08982 0.0
C876 C 0.0856 0.64662 0.0808 0.0
C877 C 0.07127 0.61835 0.09457 0.0
C878 C 0.12496 0.6828 0.18913 0.0
C879 C 0.10114 0.66465 0.13509 0.0
C880 C 0.14417 0.70554 0.20809 0.0
C881 C 0.15728 0.73394 0.19529 0.0
C882 C 0.11909 0.68847 0.1569 0.0
C883 C 0.1499 0.73882 0.16353 0.0
C884 C 0.10038 0.6698 0.10098 0.0
C885 C 0.0716 0.61417 0.12891 0.0
N886 N 0.13154 0.71627 0.14522 0.0
N887 N 0.08654 0.63704 0.14792 0.0
loop_
_geom_bond_atom_site_label_1
_geom_bond_atom_site_label_2
_geom_bond_distance
_geom_bond_site_symmetry_2
_ccdc_geom_bond_type
C0 C1 1.441 1_556 S
C0 N4 1.376 1_556 S
C0 C38 1.389 . S
C1 C0 1.441 1_554 S
C1 C2 1.348 . S
C1 H41 0.947 1_554 S
C2 C1 1.348 . S
C2 C3 1.439 . S
C2 H42 0.950 . S
C3 C2 1.439 . S
C3 N4 1.374 . S
C3 C37 1.395 . S
N4 C0 1.376 1_554 S
N4 C3 1.374 . S
N4 Co5 2.008 1_655 S
Co5 N4 2.008 1_455 S
Co5 N6 1.995 . S
Co5 N11 2.009 1_554 S
Co5 N16 1.995 1_554 S
Co5 N21 2.282 . S
Co5 N27 2.282 1_454 S
N6 Co5 1.995 . S
N6 C7 1.376 1_455 S
N6 C10 1.383 . S
C7 N6 1.376 1_655 S
C7 C8 1.446 . S
C7 C37 1.391 . S
C8 C7 1.446 . S
C8 C9 1.339 1_655 S
C8 H43 0.949 . S
C9 C8 1.339 1_455 S
C9 C10 1.439 . S
C9 H44 0.950 . S
C10 N6 1.383 . S
C10 C9 1.439 . S
C10 C39 1.392 . S
N11 Co5 2.009 1_556 S
N11 C12 1.378 1_556 S
N11 C15 1.372 . S
C12 N11 1.378 1_554 S
C12 C13 1.443 . S
C12 C39 1.389 . S
C13 C12 1.443 . S
C13 C14 1.340 1_554 S
C13 H45 0.951 . S
C14 C13 1.340 1_556 S
C14 C15 1.439 . S
C14 H46 0.950 . S
C15 N11 1.372 . S
C15 C14 1.439 . S
C15 C40 1.395 . S
N16 Co5 1.995 1_556 S
N16 C17 1.376 . S
N16 C20 1.383 1_455 S
C17 N16 1.376 . S
C17 C18 1.446 . S
C17 C40 1.391 . S
C18 C17 1.446 . S
C18 C19 1.339 . S
C18 H47 0.949 . S
C19 C18 1.339 . S
C19 C20 1.439 1_455 S
C19 H48 0.937 1_455 S
C20 N16 1.383 1_655 S
C20 C19 1.439 1_655 S
C20 C38 1.392 . S
N21 Co5 2.282 . S
N21 C24 1.332 . S
N21 C26 1.332 . S
C22 C23 1.386 . S
C22 C25 1.388 . S
C23 C22 1.386 . S
C23 C24 1.382 . S
C23 H49 0.950 . S
C24 N21 1.332 . S
C24 C23 1.382 . S
C24 H35 0.952 . S
C25 C22 1.388 . S
C25 C26 1.382 . S
C25 H50 0.950 . S
C26 N21 1.332 . S
C26 C25 1.382 . S
C26 H36 0.948 . S
N27 Co5 2.282 1_656 S
N27 C31 1.332 . S
N27 C32 1.332 . S
C28 C29 1.388 . S
C28 C32 1.382 . S
C28 H51 0.950 . S
C29 C28 1.388 . S
C29 C30 1.386 . S
C30 C29 1.386 . S
C30 C31 1.382 . S
C30 H52 0.950 . S
C31 N27 1.332 . S
C31 C30 1.382 . S
C31 H33 0.952 1_556 S
C32 N27 1.332 . S
C32 C28 1.382 . S
C32 H34 0.948 1_655 S
H33 C31 0.952 1_554 S
H34 C32 0.948 1_455 S
H35 C24 0.952 . S
H36 C26 0.948 . S
C37 C3 1.395 . S
C37 C7 1.391 . S
C38 C0 1.389 . S
C38 C20 1.392 . S
C39 C10 1.392 . S
C39 C12 1.389 . S
C40 C15 1.395 . S
C40 C17 1.391 . S
H41 C1 0.947 1_556 S
H42 C2 0.950 . S
H43 C8 0.949 . S
H44 C9 0.950 . S
H45 C13 0.951 . S
H46 C14 0.950 . S
H47 C18 0.949 . S
H48 C19 0.937 1_655 S
H49 C23 0.950 . S
H50 C25 0.950 . S
H51 C28 0.950 . S
H52 C30 0.950 . S
C53 C54 1.443 . S
C53 N57 1.376 . S
C53 C91 1.389 . S
C54 C53 1.443 . S
C54 C55 1.340 1_545 S
C54 H94 0.951 . S
C55 C54 1.340 1_565 S
C55 C56 1.439 . S
C55 H95 0.950 . S
C56 C55 1.439 . S
C56 N57 1.374 1_565 S
C56 C90 1.395 . S
N57 C53 1.376 . S
N57 C56 1.374 1_545 S
N57 Co58 2.008 . S
Co58 N57 2.008 . S
Co58 N59 1.995 1_545 S
Co58 N64 2.008 . S
Co58 N69 1.995 . S
Co58 N74 2.282 1_545 S
Co58 N80 2.282 . S
N59 Co58 1.995 1_565 S
N59 C60 1.376 . S
N59 C63 1.383 . S
C60 N59 1.376 . S
C60 C61 1.446 . S
C60 C90 1.391 . S
C61 C60 1.446 . S
C61 C62 1.339 . S
C61 H96 0.949 . S
C62 C61 1.339 . S
C62 C63 1.439 . S
C62 H97 0.950 . S
C63 N59 1.383 . S
C63 C62 1.439 . S
C63 C92 1.392 . S
N64 Co58 2.008 . S
N64 C65 1.376 1_545 S
N64 C68 1.374 . S
C65 N64 1.376 1_565 S
C65 C66 1.443 1_565 S
C65 C92 1.389 . S
C66 C65 1.443 1_545 S
C66 C67 1.340 . S
C66 H98 0.951 1_545 S
C67 C66 1.340 . S
C67 C68 1.439 . S
C67 H99 0.950 . S
C68 N64 1.374 . S
C68 C67 1.439 . S
C68 C93 1.395 . S
N69 Co58 1.995 . S
N69 C70 1.376 . S
N69 C73 1.383 . S
C70 N69 1.376 . S
C70 C71 1.446 . S
C70 C93 1.391 . S
C71 C70 1.446 . S
C71 C72 1.339 . S
C71 H100 0.949 . S
C72 C71 1.339 . S
C72 C73 1.439 . S
C72 H101 0.950 . S
C73 N69 1.383 . S
C73 C72 1.439 . S
C73 C91 1.392 . S
N74 Co58 2.282 1_565 S
N74 C77 1.332 . S
N74 C79 1.332 . S
C75 C76 1.386 . S
C75 C78 1.388 . S
C76 C75 1.386 . S
C76 C77 1.382 . S
C76 H102 0.950 . S
C77 N74 1.332 . S
C77 C76 1.382 . S
C77 H88 0.952 1_565 S
C78 C75 1.388 . S
C78 C79 1.382 . S
C78 H103 0.950 . S
C79 N74 1.332 . S
C79 C78 1.382 . S
C79 H89 0.948 . S
N80 Co58 2.282 . S
N80 C84 1.332 . S
N80 C85 1.332 . S
C81 C82 1.388 . S
C81 C85 1.382 . S
C81 H104 0.950 . S
C82 C81 1.388 . S
C82 C83 1.386 . S
C83 C82 1.386 . S
C83 C84 1.382 . S
C83 H105 0.950 . S
C84 N80 1.332 . S
C84 C83 1.382 . S
C84 H86 0.952 . S
C85 N80 1.332 . S
C85 C81 1.382 . S
C85 H87 0.948 . S
H86 C84 0.952 . S
H87 C85 0.948 . S
H88 C77 0.952 1_545 S
H89 C79 0.948 . S
C90 C56 1.395 . S
C90 C60 1.391 . S
C91 C53 1.389 . S
C91 C73 1.392 . S
C92 C63 1.392 . S
C92 C65 1.389 . S
C93 C68 1.395 . S
C93 C70 1.391 . S
H94 C54 0.951 . S
H95 C55 0.950 . S
H96 C61 0.949 . S
H97 C62 0.950 . S
H98 C66 0.951 1_565 S
H99 C67 0.950 . S
H100 C71 0.949 . S
H101 C72 0.950 . S
H102 C76 0.950 . S
H103 C78 0.950 . S
H104 C81 0.950 . S
H105 C83 0.950 . S
C106 C107 1.443 . S
C106 N110 1.376 . S
C106 C144 1.389 . S
C107 C106 1.443 . S
C107 C108 1.340 . S
C107 H147 0.951 . S
C108 C107 1.340 . S
C108 C109 1.439 . S
C108 H148 0.950 . S
C109 C108 1.439 . S
C109 N110 1.374 . S
C109 C143 1.395 . S
N110 C106 1.376 . S
N110 C109 1.374 . S
N110 Co111 2.008 1_556 S
Co111 N110 2.008 1_554 S
Co111 N112 1.995 1_554 S
Co111 N117 2.008 . S
Co111 N122 1.995 . S
Co111 N127 2.282 . S
Co111 N133 2.282 1_554 S
N112 Co111 1.995 1_556 S
N112 C113 1.376 . S
N112 C116 1.383 1_556 S
C113 N112 1.376 . S
C113 C114 1.446 . S
C113 C143 1.391 . S
C114 C113 1.446 . S
C114 C115 1.339 1_556 S
C114 H149 0.949 . S
C115 C114 1.339 1_554 S
C115 C116 1.439 . S
C115 H150 0.950 . S
C116 N112 1.383 1_554 S
C116 C115 1.439 . S
C116 C145 1.392 . S
N117 Co111 2.008 . S
N117 C118 1.376 . S
N117 C121 1.374 . S
C118 N117 1.376 . S
C118 C119 1.443 . S
C118 C145 1.389 . S
C119 C118 1.443 . S
C119 C120 1.340 . S
C119 H151 0.951 . S
C120 C119 1.340 . S
C120 C121 1.439 . S
C120 H152 0.950 . S
C121 N117 1.374 . S
C121 C120 1.439 . S
C121 C146 1.395 . S
N122 Co111 1.995 . S
N122 C123 1.376 . S
N122 C126 1.383 1_554 S
C123 N122 1.376 . S
C123 C124 1.446 . S
C123 C146 1.391 . S
C124 C123 1.446 . S
C124 C125 1.339 . S
C124 H153 0.949 . S
C125 C124 1.339 . S
C125 C126 1.439 1_554 S
C125 H154 0.950 1_554 S
C126 N122 1.383 1_556 S
C126 C125 1.439 1_556 S
C126 C144 1.392 . S
N127 Co111 2.282 . S
N127 C130 1.332 . S
N127 C132 1.332 . S
C128 C129 1.386 . S
C128 C131 1.388 . S
C129 C128 1.386 . S
C129 C130 1.382 . S
C129 H155 0.950 . S
C130 N127 1.332 . S
C130 C129 1.382 . S
C130 H141 0.952 . S
C131 C128 1.388 . S
C131 C132 1.382 . S
C131 H156 0.950 . S
C132 N127 1.332 . S
C132 C131 1.382 . S
C132 H142 0.948 . S
N133 Co111 2.282 1_556 S
N133 C137 1.332 . S
N133 C138 1.332 . S
C134 C135 1.388 . S
C134 C138 1.382 . S
C134 H157 0.950 . S
C135 C134 1.388 . S
C135 C136 1.386 . S
C136 C135 1.386 . S
C136 C137 1.382 . S
C136 H158 0.950 . S
C137 N133 1.332 . S
C137 C136 1.382 . S
C137 H139 0.952 . S
C138 N133 1.332 . S
C138 C134 1.382 . S
C138 H140 0.948 1_556 S
H139 C137 0.952 . S
H140 C138 0.948 1_554 S
H141 C130 0.952 . S
H142 C132 0.948 . S
C143 C109 1.395 . S
C143 C113 1.391 . S
C144 C106 1.389 . S
C144 C126 1.392 . S
C145 C116 1.392 . S
C145 C118 1.389 . S
C146 C121 1.395 . S
C146 C123 1.391 . S
H147 C107 0.951 . S
H148 C108 0.950 . S
H149 C114 0.949 . S
H150 C115 0.950 . S
H151 C119 0.951 . S
H152 C120 0.950 . S
H153 C124 0.949 . S
H154 C125 0.950 1_556 S
H155 C129 0.950 . S
H156 C131 0.950 . S
H157 C134 0.950 . S
H158 C136 0.950 . S
C159 C160 1.443 . S
C159 N163 1.376 . S
C159 C197 1.389 . S
C160 C159 1.443 . S
C160 C161 1.340 . S
C160 H200 0.951 . S
C161 C160 1.340 . S
C161 C162 1.439 . S
C161 H201 0.950 . S
C162 C161 1.439 . S
C162 N163 1.374 . S
C162 C196 1.395 . S
N163 C159 1.376 . S
N163 C162 1.374 . S
N163 Co164 2.008 1_655 S
Co164 N163 2.008 1_455 S
Co164 N165 1.995 1_455 S
Co164 N170 2.008 . S
Co164 N175 1.995 . S
Co164 N180 2.282 . S
Co164 N186 2.282 1_455 S
N165 Co164 1.995 1_655 S
N165 C166 1.376 . S
N165 C169 1.383 1_655 S
C166 N165 1.376 . S
C166 C167 1.446 . S
C166 C196 1.391 . S
C167 C166 1.446 . S
C167 C168 1.339 1_655 S
C167 H202 0.949 . S
C168 C167 1.339 1_455 S
C168 C169 1.439 . S
C168 H203 0.950 . S
C169 N165 1.383 1_455 S
C169 C168 1.439 . S
C169 C198 1.392 . S
N170 Co164 2.008 . S
N170 C171 1.376 . S
N170 C174 1.374 . S
C171 N170 1.376 . S
C171 C172 1.443 . S
C171 C198 1.389 . S
C172 C171 1.443 . S
C172 C173 1.340 . S
C172 H204 0.951 . S
C173 C172 1.340 . S
C173 C174 1.439 . S
C173 H205 0.950 . S
C174 N170 1.374 . S
C174 C173 1.439 . S
C174 C199 1.395 . S
N175 Co164 1.995 . S
N175 C176 1.376 . S
N175 C179 1.383 1_455 S
C176 N175 1.376 . S
C176 C177 1.446 . S
C176 C199 1.391 . S
C177 C176 1.446 . S
C177 C178 1.339 1_455 S
C177 H206 0.949 . S
C178 C177 1.339 1_655 S
C178 C179 1.439 . S
C178 H207 0.950 . S
C179 N175 1.383 1_655 S
C179 C178 1.439 . S
C179 C197 1.392 . S
N180 Co164 2.282 . S
N180 C183 1.332 . S
N180 C185 1.332 . S
C181 C182 1.386 . S
C181 C184 1.388 . S
C182 C181 1.386 . S
C182 C183 1.382 . S
C182 H208 0.950 . S
C183 N180 1.332 . S
C183 C182 1.382 . S
C183 H194 0.952 . S
C184 C181 1.388 . S
C184 C185 1.382 . S
C184 H209 0.950 . S
C185 N180 1.332 . S
C185 C184 1.382 . S
C185 H195 0.948 . S
N186 Co164 2.282 1_655 S
N186 C190 1.332 . S
N186 C191 1.332 . S
C187 C188 1.388 . S
C187 C191 1.382 . S
C187 H210 0.950 . S
C188 C187 1.388 . S
C188 C189 1.386 . S
C189 C188 1.386 . S
C189 C190 1.382 . S
C189 H211 0.950 . S
C190 N186 1.332 . S
C190 C189 1.382 . S
C190 H192 0.952 . S
C191 N186 1.332 . S
C191 C187 1.382 . S
C191 H193 0.948 1_655 S
H192 C190 0.952 . S
H193 C191 0.948 1_455 S
H194 C183 0.952 . S
H195 C185 0.948 . S
C196 C162 1.395 . S
C196 C166 1.391 . S
C197 C159 1.389 . S
C197 C179 1.392 . S
C198 C169 1.392 . S
C198 C171 1.389 . S
C199 C174 1.395 . S
C199 C176 1.391 . S
H200 C160 0.951 . S
H201 C161 0.950 . S
H202 C167 0.949 . S
H203 C168 0.950 . S
H204 C172 0.951 . S
H205 C173 0.950 . S
H206 C177 0.949 . S
H207 C178 0.950 . S
H208 C182 0.950 . S
H209 C184 0.950 . S
H210 C187 0.950 . S
H211 C189 0.950 . S
C212 C213 1.443 . S
C212 N216 1.376 1_565 S
C212 C250 1.389 . S
C213 C212 1.443 . S
C213 C214 1.340 1_565 S
C213 H253 0.951 . S
C214 C213 1.340 1_545 S
C214 C215 1.439 . S
C214 H254 0.950 . S
C215 C214 1.439 . S
C215 N216 1.374 . S
C215 C249 1.395 . S
N216 C212 1.376 1_545 S
N216 C215 1.374 . S
N216 Co217 2.008 . S
Co217 N216 2.008 . S
Co217 N218 1.995 . S
Co217 N223 2.008 1_544 S
Co217 N228 1.995 1_545 S
Co217 N233 2.282 1_554 S
Co217 N239 2.282 1_545 S
N218 Co217 1.995 . S
N218 C219 1.376 . S
N218 C222 1.383 1_554 S
C219 N218 1.376 . S
C219 C220 1.446 . S
C219 C249 1.391 . S
C220 C219 1.446 . S
C220 C221 1.339 1_554 S
C220 H255 0.949 . S
C221 C220 1.339 1_556 S
C221 C222 1.439 . S
C221 H256 0.950 . S
C222 N218 1.383 1_556 S
C222 C221 1.439 . S
C222 C251 1.392 . S
N223 Co217 2.008 1_566 S
N223 C224 1.376 1_565 S
N223 C227 1.374 . S
C224 N223 1.376 1_545 S
C224 C225 1.443 . S
C224 C251 1.389 . S
C225 C224 1.443 . S
C225 C226 1.340 1_545 S
C225 H257 0.951 . S
C226 C225 1.340 1_565 S
C226 C227 1.439 . S
C226 H258 0.950 . S
C227 N223 1.374 . S
C227 C226 1.439 . S
C227 C252 1.395 . S
N228 Co217 1.995 1_565 S
N228 C229 1.376 1_554 S
N228 C232 1.383 . S
C229 N228 1.376 1_556 S
C229 C230 1.446 . S
C229 C252 1.391 . S
C230 C229 1.446 . S
C230 C231 1.339 1_556 S
C230 H259 0.949 . S
C231 C230 1.339 1_554 S
C231 C232 1.439 . S
C231 H260 0.950 . S
C232 N228 1.383 . S
C232 C231 1.439 . S
C232 C250 1.392 . S
N233 Co217 2.282 1_556 S
N233 C236 1.332 . S
N233 C238 1.332 . S
C234 C235 1.386 . S
C234 C237 1.388 . S
C235 C234 1.386 . S
C235 C236 1.382 . S
C235 H261 0.950 . S
C236 N233 1.332 . S
C236 C235 1.382 . S
C236 H247 0.952 1_545 S
C237 C234 1.388 . S
C237 C238 1.382 . S
C237 H262 0.950 . S
C238 N233 1.332 . S
C238 C237 1.382 . S
C238 H248 0.948 . S
N239 Co217 2.282 1_565 S
N239 C243 1.332 . S
N239 C244 1.332 . S
C240 C241 1.388 . S
C240 C244 1.382 . S
C240 H263 0.950 . S
C241 C240 1.388 . S
C241 C242 1.386 . S
C242 C241 1.386 . S
C242 C243 1.382 . S
C242 H264 0.950 . S
C243 N239 1.332 . S
C243 C242 1.382 . S
C243 H245 0.952 1_565 S
C244 N239 1.332 . S
C244 C240 1.382 . S
C244 H246 0.948 . S
H245 C243 0.952 1_545 S
H246 C244 0.948 . S
H247 C236 0.952 1_565 S
H248 C238 0.948 . S
C249 C215 1.395 . S
C249 C219 1.391 . S
C250 C212 1.389 . S
C250 C232 1.392 . S
C251 C222 1.392 . S
C251 C224 1.389 . S
C252 C227 1.395 . S
C252 C229 1.391 . S
H253 C213 0.951 . S
H254 C214 0.950 . S
H255 C220 0.949 . S
H256 C221 0.950 . S
H257 C225 0.951 . S
H258 C226 0.950 . S
H259 C230 0.949 . S
H260 C231 0.950 . S
H261 C235 0.950 . S
H262 C237 0.950 . S
H263 C240 0.950 . S
H264 C242 0.950 . S
C265 C266 1.443 . S
C265 N269 1.376 . S
C265 C303 1.389 . S
C266 C265 1.443 . S
C266 C267 1.340 . S
C266 H306 0.951 . S
C267 C266 1.340 . S
C267 C268 1.439 . S
C267 H307 0.950 . S
C268 C267 1.439 . S
C268 N269 1.374 . S
C268 C302 1.395 . S
N269 C265 1.376 . S
N269 C268 1.374 . S
N269 Co270 2.008 . S
Co270 N269 2.008 . S
Co270 N271 1.995 . S
Co270 N276 2.008 . S
Co270 N281 1.995 . S
Co270 N286 2.282 . S
Co270 N292 2.282 . S
N271 Co270 1.995 . S
N271 C272 1.376 . S
N271 C275 1.383 . S
C272 N271 1.376 . S
C272 C273 1.446 . S
C272 C302 1.391 . S
C273 C272 1.446 . S
C273 C274 1.339 . S
C273 H308 0.949 . S
C274 C273 1.339 . S
C274 C275 1.439 . S
C274 H309 0.950 . S
C275 N271 1.383 . S
C275 C274 1.439 . S
C275 C304 1.392 . S
N276 Co270 2.008 . S
N276 C277 1.376 . S
N276 C280 1.374 . S
C277 N276 1.376 . S
C277 C278 1.443 . S
C277 C304 1.389 . S
C278 C277 1.443 . S
C278 C279 1.340 . S
C278 H310 0.951 . S
C279 C278 1.340 . S
C279 C280 1.439 . S
C279 H311 0.950 . S
C280 N276 1.374 . S
C280 C279 1.439 . S
C280 C305 1.395 . S
N281 Co270 1.995 . S
N281 C282 1.376 . S
N281 C285 1.383 . S
C282 N281 1.376 . S
C282 C283 1.446 . S
C282 C305 1.391 . S
C283 C282 1.446 . S
C283 C284 1.339 . S
C283 H312 0.949 . S
C284 C283 1.339 . S
C284 C285 1.439 . S
C284 H313 0.950 . S
C285 N281 1.383 . S
C285 C284 1.439 . S
C285 C303 1.392 . S
N286 Co270 2.282 . S
N286 C289 1.332 . S
N286 C291 1.332 . S
C287 C288 1.386 . S
C287 C290 1.388 . S
C288 C287 1.386 . S
C288 C289 1.382 . S
C288 H314 0.950 . S
C289 N286 1.332 . S
C289 C288 1.382 . S
C289 H300 0.952 . S
C290 C287 1.388 . S
C290 C291 1.382 . S
C290 H315 0.950 . S
C291 N286 1.332 . S
C291 C290 1.382 . S
C291 H301 0.948 . S
N292 Co270 2.282 . S
N292 C296 1.332 . S
N292 C297 1.332 . S
C293 C294 1.388 . S
C293 C297 1.382 . S
C293 H316 0.950 . S
C294 C293 1.388 . S
C294 C295 1.386 . S
C295 C294 1.386 . S
C295 C296 1.382 . S
C295 H317 0.950 . S
C296 N292 1.332 . S
C296 C295 1.382 . S
C296 H298 0.952 . S
C297 N292 1.332 . S
C297 C293 1.382 . S
C297 H299 0.948 . S
H298 C296 0.952 . S
H299 C297 0.948 . S
H300 C289 0.952 . S
H301 C291 0.948 . S
C302 C268 1.395 . S
C302 C272 1.391 . S
C303 C265 1.389 . S
C303 C285 1.392 . S
C304 C275 1.392 . S
C304 C277 1.389 . S
C305 C280 1.395 . S
C305 C282 1.391 . S
H306 C266 0.951 . S
H307 C267 0.950 . S
H308 C273 0.949 . S
H309 C274 0.950 . S
H310 C278 0.951 . S
H311 C279 0.950 . S
H312 C283 0.949 . S
H313 C284 0.950 . S
H314 C288 0.950 . S
H315 C290 0.950 . S
H316 C293 0.950 . S
H317 C295 0.950 . S
Cu318 N319 1.999 . S
Cu318 O324 1.974 . S
Cu318 N329 1.985 . S
Cu318 O338 1.959 . S
N319 Cu318 1.999 . S
N319 C321 1.263 . S
N319 C323 1.389 . S
N320 C321 1.358 . S
N320 C322 1.400 . S
C321 N319 1.263 . S
C321 N320 1.358 . S
C321 H327 0.930 . S
C322 N320 1.400 . S
C322 C323 1.351 . S
C322 H339 0.930 . S
C323 N319 1.389 . S
C323 C322 1.351 . S
C323 H328 0.930 . S
O324 Cu318 1.974 . S
O324 C334 1.282 . S
C325 O326 1.261 . S
C325 O338 1.251 . S
O326 C325 1.261 . S
H327 C321 0.930 . S
H328 C323 0.930 . S
N329 Cu318 1.985 . S
N329 C331 1.335 . S
N329 C332 1.390 . S
N330 C331 1.345 . S
N330 C333 1.336 . S
C331 N329 1.335 . S
C331 N330 1.345 . S
C331 H336 0.930 . S
C332 N329 1.390 . S
C332 C333 1.346 . S
C332 H337 0.930 . S
C333 N330 1.336 . S
C333 C332 1.346 . S
C333 H340 0.929 . S
C334 O324 1.282 . S
C334 O335 1.216 . S
O335 C334 1.216 . S
H336 C331 0.930 . S
H337 C332 0.930 . S
O338 Cu318 1.959 . S
O338 C325 1.251 . S
H339 C322 0.930 . S
H340 C333 0.929 . S
Cu341 N342 1.999 . S
Cu341 O347 1.974 . S
Cu341 N352 1.985 . S
Cu341 O361 1.959 . S
N342 Cu341 1.999 . S
N342 C344 1.263 . S
N342 C346 1.389 . S
N343 C344 1.358 . S
N343 C345 1.400 . S
C344 N342 1.263 . S
C344 N343 1.358 . S
C344 H350 0.930 . S
C345 N343 1.400 . S
C345 C346 1.351 . S
C345 H362 0.930 . S
C346 N342 1.389 . S
C346 C345 1.351 . S
C346 H351 0.930 . S
O347 Cu341 1.974 . S
O347 C357 1.282 . S
C348 O349 1.261 . S
C348 O361 1.251 . S
O349 C348 1.261 . S
H350 C344 0.930 . S
H351 C346 0.930 . S
N352 Cu341 1.985 . S
N352 C354 1.335 . S
N352 C355 1.390 . S
N353 C354 1.345 . S
N353 C356 1.336 . S
C354 N352 1.335 . S
C354 N353 1.345 . S
C354 H359 0.930 . S
C355 N352 1.390 . S
C355 C356 1.346 . S
C355 H360 0.930 . S
C356 N353 1.336 . S
C356 C355 1.346 . S
C356 H363 0.929 . S
C357 O347 1.282 . S
C357 O358 1.216 . S
O358 C357 1.216 . S
H359 C354 0.930 . S
H360 C355 0.930 . S
O361 Cu341 1.959 . S
O361 C348 1.251 . S
H362 C345 0.930 . S
H363 C356 0.929 . S
Cu364 N365 1.999 . S
Cu364 O370 1.974 . S
Cu364 N375 1.985 . S
Cu364 O384 1.959 . S
N365 Cu364 1.999 . S
N365 C367 1.263 . S
N365 C369 1.389 . S
N366 C367 1.358 . S
N366 C368 1.400 . S
C367 N365 1.263 . S
C367 N366 1.358 . S
C367 H373 0.930 . S
C368 N366 1.400 . S
C368 C369 1.351 . S
C368 H385 0.930 . S
C369 N365 1.389 . S
C369 C368 1.351 . S
C369 H374 0.930 . S
O370 Cu364 1.974 . S
O370 C380 1.282 . S
C371 O372 1.261 . S
C371 O384 1.251 . S
O372 C371 1.261 . S
H373 C367 0.930 . S
H374 C369 0.930 . S
N375 Cu364 1.985 . S
N375 C377 1.335 . S
N375 C378 1.390 . S
N376 C377 1.345 . S
N376 C379 1.336 . S
C377 N375 1.335 . S
C377 N376 1.345 . S
C377 H382 0.930 . S
C378 N375 1.390 . S
C378 C379 1.346 . S
C378 H383 0.930 . S
C379 N376 1.336 . S
C379 C378 1.346 . S
C379 H386 0.929 . S
C380 O370 1.282 . S
C380 O381 1.216 . S
O381 C380 1.216 . S
H382 C377 0.930 . S
H383 C378 0.930 . S
O384 Cu364 1.959 . S
O384 C371 1.251 . S
H385 C368 0.930 . S
H386 C379 0.929 . S
Cu387 N388 1.999 . S
Cu387 O393 1.974 . S
Cu387 N398 1.985 . S
Cu387 O407 1.959 . S
N388 Cu387 1.999 . S
N388 C390 1.263 . S
N388 C392 1.389 . S
N389 C390 1.358 . S
N389 C391 1.400 . S
C390 N388 1.263 . S
C390 N389 1.358 . S
C390 H396 0.930 . S
C391 N389 1.400 . S
C391 C392 1.351 . S
C391 H408 0.930 . S
C392 N388 1.389 . S
C392 C391 1.351 . S
C392 H397 0.930 . S
O393 Cu387 1.974 . S
O393 C403 1.282 . S
C394 O395 1.261 . S
C394 O407 1.251 . S
O395 C394 1.261 . S
H396 C390 0.930 . S
H397 C392 0.930 . S
N398 Cu387 1.985 . S
N398 C400 1.335 . S
N398 C401 1.390 . S
N399 C400 1.345 . S
N399 C402 1.336 . S
C400 N398 1.335 . S
C400 N399 1.345 . S
C400 H405 0.930 . S
C401 N398 1.390 . S
C401 C402 1.346 . S
C401 H406 0.930 . S
C402 N399 1.336 . S
C402 C401 1.346 . S
C402 H409 0.929 . S
C403 O393 1.282 . S
C403 O404 1.216 . S
O404 C403 1.216 . S
H405 C400 0.930 . S
H406 C401 0.930 . S
O407 Cu387 1.959 . S
O407 C394 1.251 . S
H408 C391 0.930 . S
H409 C402 0.929 . S
Cu410 N411 1.999 . S
Cu410 O416 1.974 . S
Cu410 N421 1.985 . S
Cu410 O430 1.959 . S
N411 Cu410 1.999 . S
N411 C413 1.263 . S
N411 C415 1.389 . S
N412 C413 1.358 . S
N412 C414 1.400 . S
C413 N411 1.263 . S
C413 N412 1.358 . S
C413 H419 0.930 . S
C414 N412 1.400 . S
C414 C415 1.351 . S
C414 H431 0.930 . S
C415 N411 1.389 . S
C415 C414 1.351 . S
C415 H420 0.930 . S
O416 Cu410 1.974 . S
O416 C426 1.282 . S
C417 O418 1.261 . S
C417 O430 1.251 . S
O418 C417 1.261 . S
H419 C413 0.930 . S
H420 C415 0.930 . S
N421 Cu410 1.985 . S
N421 C423 1.335 . S
N421 C424 1.390 . S
N422 C423 1.345 . S
N422 C425 1.336 . S
C423 N421 1.335 . S
C423 N422 1.345 . S
C423 H428 0.930 . S
C424 N421 1.390 . S
C424 C425 1.346 . S
C424 H429 0.930 . S
C425 N422 1.336 . S
C425 C424 1.346 . S
C425 H432 0.929 . S
C426 O416 1.282 . S
C426 O427 1.216 . S
O427 C426 1.216 . S
H428 C423 0.930 . S
H429 C424 0.930 . S
O430 Cu410 1.959 . S
O430 C417 1.251 . S
H431 C414 0.930 . S
H432 C425 0.929 . S
Cu433 N434 1.999 . S
Cu433 O439 1.974 . S
Cu433 N444 1.985 . S
Cu433 O453 1.959 . S
N434 Cu433 1.999 . S
N434 C436 1.263 . S
N434 C438 1.389 . S
N435 C436 1.358 . S
N435 C437 1.400 . S
C436 N434 1.263 . S
C436 N435 1.358 . S
C436 H442 0.930 . S
C437 N435 1.400 . S
C437 C438 1.351 . S
C437 H454 0.930 . S
C438 N434 1.389 . S
C438 C437 1.351 . S
C438 H443 0.930 . S
O439 Cu433 1.974 . S
O439 C449 1.282 . S
C440 O441 1.261 . S
C440 O453 1.251 . S
O441 C440 1.261 . S
H442 C436 0.930 . S
H443 C438 0.930 . S
N444 Cu433 1.985 . S
N444 C446 1.335 . S
N444 C447 1.390 . S
N445 C446 1.345 . S
N445 C448 1.336 . S
C446 N444 1.335 . S
C446 N445 1.345 . S
C446 H451 0.930 . S
C447 N444 1.390 . S
C447 C448 1.346 . S
C447 H452 0.930 . S
C448 N445 1.336 . S
C448 C447 1.346 . S
C448 H455 0.929 . S
C449 O439 1.282 . S
C449 O450 1.216 . S
O450 C449 1.216 . S
H451 C446 0.930 . S
H452 C447 0.930 . S
O453 Cu433 1.959 . S
O453 C440 1.251 . S
H454 C437 0.930 . S
H455 C448 0.929 . S
H456 C462 0.930 . S
H457 C466 0.930 . S
H458 C471 0.929 . S
H459 C469 0.929 . S
H460 C464 0.929 . S
H461 C470 0.929 . S
C462 H456 0.930 . S
C462 C463 1.367 . S
C462 C470 1.378 . S
C463 C462 1.367 . S
C463 C471 1.433 . S
C464 H460 0.929 . S
C464 C466 1.378 . S
C464 C468 1.350 . S
C465 C468 1.463 . S
C465 C470 1.350 . S
C465 N473 1.427 . S
C466 H457 0.930 . S
C466 C464 1.378 . S
C466 C467 1.367 . S
C467 C466 1.367 . S
C467 C469 1.433 . S
C468 C464 1.350 . S
C468 C465 1.463 . S
C468 N472 1.427 . S
C469 H459 0.929 . S
C469 C467 1.433 . S
C469 N472 1.384 . S
C470 H461 0.929 . S
C470 C462 1.378 . S
C470 C465 1.350 . S
C471 H458 0.929 . S
C471 C463 1.433 . S
C471 N473 1.384 . S
N472 C468 1.427 . S
N472 C469 1.384 . S
N473 C465 1.427 . S
N473 C471 1.384 . S
H474 C480 0.930 . S
H475 C484 0.930 . S
H476 C489 0.929 . S
H477 C487 0.929 . S
H478 C482 0.929 . S
H479 C488 0.929 . S
C480 H474 0.930 . S
C480 C481 1.367 . S
C480 C488 1.378 . S
C481 C480 1.367 . S
C481 C489 1.433 . S
C482 H478 0.929 . S
C482 C484 1.378 . S
C482 C486 1.350 . S
C483 C486 1.463 . S
C483 C488 1.350 . S
C483 N491 1.427 . S
C484 H475 0.930 . S
C484 C482 1.378 . S
C484 C485 1.367 . S
C485 C484 1.367 . S
C485 C487 1.433 . S
C486 C482 1.350 . S
C486 C483 1.463 . S
C486 N490 1.427 . S
C487 H477 0.929 . S
C487 C485 1.433 . S
C487 N490 1.384 . S
C488 H479 0.929 . S
C488 C480 1.378 . S
C488 C483 1.350 . S
C489 H476 0.929 . S
C489 C481 1.433 . S
C489 N491 1.384 . S
N490 C486 1.427 . S
N490 C487 1.384 . S
N491 C483 1.427 . S
N491 C489 1.384 . S
H492 C498 0.930 . S
H493 C502 0.930 . S
H494 C507 0.929 . S
H495 C505 0.929 . S
H496 C500 0.929 . S
H497 C506 0.929 . S
C498 H492 0.930 . S
C498 C499 1.367 . S
C498 C506 1.378 . S
C499 C498 1.367 . S
C499 C507 1.433 . S
C500 H496 0.929 . S
C500 C502 1.378 . S
C500 C504 1.350 . S
C501 C504 1.463 . S
C501 C506 1.350 . S
C501 N509 1.427 . S
C502 H493 0.930 . S
C502 C500 1.378 . S
C502 C503 1.367 . S
C503 C502 1.367 . S
C503 C505 1.433 . S
C504 C500 1.350 . S
C504 C501 1.463 . S
C504 N508 1.427 . S
C505 H495 0.929 . S
C505 C503 1.433 . S
C505 N508 1.384 . S
C506 H497 0.929 . S
C506 C498 1.378 . S
C506 C501 1.350 . S
C507 H494 0.929 . S
C507 C499 1.433 . S
C507 N509 1.384 . S
N508 C504 1.427 . S
N508 C505 1.384 . S
N509 C501 1.427 . S
N509 C507 1.384 . S
H510 C516 0.930 . S
H511 C520 0.930 . S
H512 C525 0.929 . S
H513 C523 0.929 . S
H514 C518 0.929 . S
H515 C524 0.929 . S
C516 H510 0.930 . S
C516 C517 1.367 . S
C516 C524 1.378 . S
C517 C516 1.367 . S
C517 C525 1.433 . S
C518 H514 0.929 . S
C518 C520 1.378 . S
C518 C522 1.350 . S
C519 C522 1.463 . S
C519 C524 1.350 . S
C519 N527 1.427 . S
C520 H511 0.930 . S
C520 C518 1.378 . S
C520 C521 1.367 . S
C521 C520 1.367 . S
C521 C523 1.433 . S
C522 C518 1.350 . S
C522 C519 1.463 . S
C522 N526 1.427 . S
C523 H513 0.929 . S
C523 C521 1.433 . S
C523 N526 1.384 . S
C524 H515 0.929 . S
C524 C516 1.378 . S
C524 C519 1.350 . S
C525 H512 0.929 . S
C525 C517 1.433 . S
C525 N527 1.384 . S
N526 C522 1.427 . S
N526 C523 1.384 . S
N527 C519 1.427 . S
N527 C525 1.384 . S
H528 C534 0.930 . S
H529 C538 0.930 . S
H530 C543 0.929 . S
H531 C541 0.929 . S
H532 C536 0.929 . S
H533 C542 0.929 . S
C534 H528 0.930 . S
C534 C535 1.367 . S
C534 C542 1.378 . S
C535 C534 1.367 . S
C535 C543 1.433 . S
C536 H532 0.929 . S
C536 C538 1.378 . S
C536 C540 1.350 . S
C537 C540 1.463 . S
C537 C542 1.350 . S
C537 N545 1.427 . S
C538 H529 0.930 . S
C538 C536 1.378 . S
C538 C539 1.367 . S
C539 C538 1.367 . S
C539 C541 1.433 . S
C540 C536 1.350 . S
C540 C537 1.463 . S
C540 N544 1.427 . S
C541 H531 0.929 . S
C541 C539 1.433 . S
C541 N544 1.384 . S
C542 H533 0.929 . S
C542 C534 1.378 . S
C542 C537 1.350 . S
C543 H530 0.929 . S
C543 C535 1.433 . S
C543 N545 1.384 . S
N544 C540 1.427 . S
N544 C541 1.384 . S
N545 C537 1.427 . S
N545 C543 1.384 . S
H546 C552 0.930 . S
H547 C556 0.930 . S
H548 C561 0.929 . S
H549 C559 0.929 . S
H550 C554 0.929 . S
H551 C560 0.929 . S
C552 H546 0.930 . S
C552 C553 1.367 . S
C552 C560 1.378 . S
C553 C552 1.367 . S
C553 C561 1.433 . S
C554 H550 0.929 . S
C554 C556 1.378 . S
C554 C558 1.350 . S
C555 C558 1.463 . S
C555 C560 1.350 . S
C555 N563 1.427 . S
C556 H547 0.930 . S
C556 C554 1.378 . S
C556 C557 1.367 . S
C557 C556 1.367 . S
C557 C559 1.433 . S
C558 C554 1.350 . S
C558 C555 1.463 . S
C558 N562 1.427 . S
C559 H549 0.929 . S
C559 C557 1.433 . S
C559 N562 1.384 . S
C560 H551 0.929 . S
C560 C552 1.378 . S
C560 C555 1.350 . S
C561 H548 0.929 . S
C561 C553 1.433 . S
C561 N563 1.384 . S
N562 C558 1.427 . S
N562 C559 1.384 . S
N563 C555 1.427 . S
N563 C561 1.384 . S
H564 C570 0.930 . S
H565 C574 0.930 . S
H566 C579 0.929 . S
H567 C577 0.929 . S
H568 C572 0.929 . S
H569 C578 0.929 . S
C570 H564 0.930 . S
C570 C571 1.367 . S
C570 C578 1.378 . S
C571 C570 1.367 . S
C571 C579 1.433 . S
C572 H568 0.929 . S
C572 C574 1.378 . S
C572 C576 1.350 . S
C573 C576 1.463 . S
C573 C578 1.350 . S
C573 N581 1.427 . S
C574 H565 0.930 . S
C574 C572 1.378 . S
C574 C575 1.367 . S
C575 C574 1.367 . S
C575 C577 1.433 . S
C576 C572 1.350 . S
C576 C573 1.463 . S
C576 N580 1.427 . S
C577 H567 0.929 . S
C577 C575 1.433 . S
C577 N580 1.384 . S
C578 H569 0.929 . S
C578 C570 1.378 . S
C578 C573 1.350 . S
C579 H566 0.929 . S
C579 C571 1.433 . S
C579 N581 1.384 . S
N580 C576 1.427 . S
N580 C577 1.384 . S
N581 C573 1.427 . S
N581 C579 1.384 . S
H582 C588 0.930 . S
H583 C592 0.930 . S
H584 C597 0.929 . S
H585 C595 0.929 . S
H586 C590 0.929 . S
H587 C596 0.929 . S
C588 H582 0.930 . S
C588 C589 1.367 . S
C588 C596 1.378 . S
C589 C588 1.367 . S
C589 C597 1.433 . S
C590 H586 0.929 . S
C590 C592 1.378 . S
C590 C594 1.350 . S
C591 C594 1.463 . S
C591 C596 1.350 . S
C591 N599 1.427 . S
C592 H583 0.930 . S
C592 C590 1.378 . S
C592 C593 1.367 . S
C593 C592 1.367 . S
C593 C595 1.433 . S
C594 C590 1.350 . S
C594 C591 1.463 . S
C594 N598 1.427 . S
C595 H585 0.929 . S
C595 C593 1.433 . S
C595 N598 1.384 . S
C596 H587 0.929 . S
C596 C588 1.378 . S
C596 C591 1.350 . S
C597 H584 0.929 . S
C597 C589 1.433 . S
C597 N599 1.384 . S
N598 C594 1.427 . S
N598 C595 1.384 . S
N599 C591 1.427 . S
N599 C597 1.384 . S
H600 C606 0.930 . S
H601 C610 0.930 . S
H602 C615 0.929 . S
H603 C613 0.929 . S
H604 C608 0.929 . S
H605 C614 0.929 . S
C606 H600 0.930 . S
C606 C607 1.367 . S
C606 C614 1.378 . S
C607 C606 1.367 . S
C607 C615 1.433 . S
C608 H604 0.929 . S
C608 C610 1.378 . S
C608 C612 1.350 . S
C609 C612 1.463 . S
C609 C614 1.350 . S
C609 N617 1.427 . S
C610 H601 0.930 . S
C610 C608 1.378 . S
C610 C611 1.367 . S
C611 C610 1.367 . S
C611 C613 1.433 . S
C612 C608 1.350 . S
C612 C609 1.463 . S
C612 N616 1.427 . S
C613 H603 0.929 . S
C613 C611 1.433 . S
C613 N616 1.384 . S
C614 H605 0.929 . S
C614 C606 1.378 . S
C614 C609 1.350 . S
C615 H602 0.929 . S
C615 C607 1.433 . S
C615 N617 1.384 . S
N616 C612 1.427 . S
N616 C613 1.384 . S
N617 C609 1.427 . S
N617 C615 1.384 . S
H618 C624 0.930 . S
H619 C628 0.930 . S
H620 C633 0.929 . S
H621 C631 0.929 . S
H622 C626 0.929 . S
H623 C632 0.929 . S
C624 H618 0.930 . S
C624 C625 1.367 . S
C624 C632 1.378 . S
C625 C624 1.367 . S
C625 C633 1.433 . S
C626 H622 0.929 . S
C626 C628 1.378 . S
C626 C630 1.350 . S
C627 C630 1.463 . S
C627 C632 1.350 . S
C627 N635 1.427 . S
C628 H619 0.930 . S
C628 C626 1.378 . S
C628 C629 1.367 . S
C629 C628 1.367 . S
C629 C631 1.433 . S
C630 C626 1.350 . S
C630 C627 1.463 . S
C630 N634 1.427 . S
C631 H621 0.929 . S
C631 C629 1.433 . S
C631 N634 1.384 . S
C632 H623 0.929 . S
C632 C624 1.378 . S
C632 C627 1.350 . S
C633 H620 0.929 . S
C633 C625 1.433 . S
C633 N635 1.384 . S
N634 C630 1.427 . S
N634 C631 1.384 . S
N635 C627 1.427 . S
N635 C633 1.384 . S
H636 C642 0.930 . S
H637 C646 0.930 . S
H638 C651 0.929 . S
H639 C649 0.929 . S
H640 C644 0.929 . S
H641 C650 0.929 . S
C642 H636 0.930 . S
C642 C643 1.367 . S
C642 C650 1.378 . S
C643 C642 1.367 . S
C643 C651 1.433 . S
C644 H640 0.929 . S
C644 C646 1.378 . S
C644 C648 1.350 . S
C645 C648 1.463 . S
C645 C650 1.350 . S
C645 N653 1.427 . S
C646 H637 0.930 . S
C646 C644 1.378 . S
C646 C647 1.367 . S
C647 C646 1.367 . S
C647 C649 1.433 . S
C648 C644 1.350 . S
C648 C645 1.463 . S
C648 N652 1.427 . S
C649 H639 0.929 . S
C649 C647 1.433 . S
C649 N652 1.384 . S
C650 H641 0.929 . S
C650 C642 1.378 . S
C650 C645 1.350 . S
C651 H638 0.929 . S
C651 C643 1.433 . S
C651 N653 1.384 . S
N652 C648 1.427 . S
N652 C649 1.384 . S
N653 C645 1.427 . S
N653 C651 1.384 . S
H654 C660 0.930 . S
H655 C664 0.930 . S
H656 C669 0.929 . S
H657 C667 0.929 . S
H658 C662 0.929 . S
H659 C668 0.929 . S
C660 H654 0.930 . S
C660 C661 1.367 . S
C660 C668 1.378 . S
C661 C660 1.367 . S
C661 C669 1.433 . S
C662 H658 0.929 . S
C662 C664 1.378 . S
C662 C666 1.350 . S
C663 C666 1.463 . S
C663 C668 1.350 . S
C663 N671 1.427 . S
C664 H655 0.930 . S
C664 C662 1.378 . S
C664 C665 1.367 . S
C665 C664 1.367 . S
C665 C667 1.433 . S
C666 C662 1.350 . S
C666 C663 1.463 . S
C666 N670 1.427 . S
C667 H657 0.929 . S
C667 C665 1.433 . S
C667 N670 1.384 . S
C668 H659 0.929 . S
C668 C660 1.378 . S
C668 C663 1.350 . S
C669 H656 0.929 . S
C669 C661 1.433 . S
C669 N671 1.384 . S
N670 C666 1.427 . S
N670 C667 1.384 . S
N671 C663 1.427 . S
N671 C669 1.384 . S
H672 C678 0.930 . S
H673 C682 0.930 . S
H674 C687 0.929 . S
H675 C685 0.929 . S
H676 C680 0.929 . S
H677 C686 0.929 . S
C678 H672 0.930 . S
C678 C679 1.367 . S
C678 C686 1.378 . S
C679 C678 1.367 . S
C679 C687 1.433 . S
C680 H676 0.929 . S
C680 C682 1.378 . S
C680 C684 1.350 . S
C681 C684 1.463 . S
C681 C686 1.350 . S
C681 N689 1.427 . S
C682 H673 0.930 . S
C682 C680 1.378 . S
C682 C683 1.367 . S
C683 C682 1.367 . S
C683 C685 1.433 . S
C684 C680 1.350 . S
C684 C681 1.463 . S
C684 N688 1.427 . S
C685 H675 0.929 . S
C685 C683 1.433 . S
C685 N688 1.384 . S
C686 H677 0.929 . S
C686 C678 1.378 . S
C686 C681 1.350 . S
C687 H674 0.929 . S
C687 C679 1.433 . S
C687 N689 1.384 . S
N688 C684 1.427 . S
N688 C685 1.384 . S
N689 C681 1.427 . S
N689 C687 1.384 . S
H690 C696 0.930 . S
H691 C700 0.930 . S
H692 C705 0.929 . S
H693 C703 0.929 . S
H694 C698 0.929 . S
H695 C704 0.929 . S
C696 H690 0.930 . S
C696 C697 1.367 . S
C696 C704 1.378 . S
C697 C696 1.367 . S
C697 C705 1.433 . S
C698 H694 0.929 . S
C698 C700 1.378 . S
C698 C702 1.350 . S
C699 C702 1.463 . S
C699 C704 1.350 . S
C699 N707 1.427 . S
C700 H691 0.930 . S
C700 C698 1.378 . S
C700 C701 1.367 . S
C701 C700 1.367 . S
C701 C703 1.433 . S
C702 C698 1.350 . S
C702 C699 1.463 . S
C702 N706 1.427 . S
C703 H693 0.929 . S
C703 C701 1.433 . S
C703 N706 1.384 . S
C704 H695 0.929 . S
C704 C696 1.378 . S
C704 C699 1.350 . S
C705 H692 0.929 . S
C705 C697 1.433 . S
C705 N707 1.384 . S
N706 C702 1.427 . S
N706 C703 1.384 . S
N707 C699 1.427 . S
N707 C705 1.384 . S
H708 C714 0.930 . S
H709 C718 0.930 . S
H710 C723 0.929 . S
H711 C721 0.929 . S
H712 C716 0.929 . S
H713 C722 0.929 . S
C714 H708 0.930 . S
C714 C715 1.367 . S
C714 C722 1.378 . S
C715 C714 1.367 . S
C715 C723 1.433 . S
C716 H712 0.929 . S
C716 C718 1.378 . S
C716 C720 1.350 . S
C717 C720 1.463 . S
C717 C722 1.350 . S
C717 N725 1.427 . S
C718 H709 0.930 . S
C718 C716 1.378 . S
C718 C719 1.367 . S
C719 C718 1.367 . S
C719 C721 1.433 . S
C720 C716 1.350 . S
C720 C717 1.463 . S
C720 N724 1.427 . S
C721 H711 0.929 . S
C721 C719 1.433 . S
C721 N724 1.384 . S
C722 H713 0.929 . S
C722 C714 1.378 . S
C722 C717 1.350 . S
C723 H710 0.929 . S
C723 C715 1.433 . S
C723 N725 1.384 . S
N724 C720 1.427 . S
N724 C721 1.384 . S
N725 C717 1.427 . S
N725 C723 1.384 . S
H726 C732 0.930 . S
H727 C736 0.930 . S
H728 C741 0.929 . S
H729 C739 0.929 . S
H730 C734 0.929 . S
H731 C740 0.929 . S
C732 H726 0.930 . S
C732 C733 1.367 . S
C732 C740 1.378 . S
C733 C732 1.367 . S
C733 C741 1.433 . S
C734 H730 0.929 . S
C734 C736 1.378 . S
C734 C738 1.350 . S
C735 C738 1.463 . S
C735 C740 1.350 . S
C735 N743 1.427 . S
C736 H727 0.930 . S
C736 C734 1.378 . S
C736 C737 1.367 . S
C737 C736 1.367 . S
C737 C739 1.433 . S
C738 C734 1.350 . S
C738 C735 1.463 . S
C738 N742 1.427 . S
C739 H729 0.929 . S
C739 C737 1.433 . S
C739 N742 1.384 . S
C740 H731 0.929 . S
C740 C732 1.378 . S
C740 C735 1.350 . S
C741 H728 0.929 . S
C741 C733 1.433 . S
C741 N743 1.384 . S
N742 C738 1.427 . S
N742 C739 1.384 . S
N743 C735 1.427 . S
N743 C741 1.384 . S
H744 C750 0.930 . S
H745 C754 0.930 . S
H746 C759 0.929 . S
H747 C757 0.929 . S
H748 C752 0.929 . S
H749 C758 0.929 . S
C750 H744 0.930 . S
C750 C751 1.367 . S
C750 C758 1.378 . S
C751 C750 1.367 . S
C751 C759 1.433 . S
C752 H748 0.929 . S
C752 C754 1.378 . S
C752 C756 1.350 . S
C753 C756 1.463 . S
C753 C758 1.350 . S
C753 N761 1.427 . S
C754 H745 0.930 . S
C754 C752 1.378 . S
C754 C755 1.367 . S
C755 C754 1.367 . S
C755 C757 1.433 . S
C756 C752 1.350 . S
C756 C753 1.463 . S
C756 N760 1.427 . S
C757 H747 0.929 . S
C757 C755 1.433 . S
C757 N760 1.384 . S
C758 H749 0.929 . S
C758 C750 1.378 . S
C758 C753 1.350 . S
C759 H746 0.929 . S
C759 C751 1.433 . S
C759 N761 1.384 . S
N760 C756 1.427 . S
N760 C757 1.384 . S
N761 C753 1.427 . S
N761 C759 1.384 . S
H762 C768 0.930 . S
H763 C772 0.930 . S
H764 C777 0.929 . S
H765 C775 0.929 . S
H766 C770 0.929 . S
H767 C776 0.929 . S
C768 H762 0.930 . S
C768 C769 1.367 . S
C768 C776 1.378 . S
C769 C768 1.367 . S
C769 C777 1.433 . S
C770 H766 0.929 . S
C770 C772 1.378 . S
C770 C774 1.350 . S
C771 C774 1.463 . S
C771 C776 1.350 . S
C771 N779 1.427 . S
C772 H763 0.930 . S
C772 C770 1.378 . S
C772 C773 1.367 . S
C773 C772 1.367 . S
C773 C775 1.433 . S
C774 C770 1.350 . S
C774 C771 1.463 . S
C774 N778 1.427 . S
C775 H765 0.929 . S
C775 C773 1.433 . S
C775 N778 1.384 . S
C776 H767 0.929 . S
C776 C768 1.378 . S
C776 C771 1.350 . S
C777 H764 0.929 . S
C777 C769 1.433 . S
C777 N779 1.384 . S
N778 C774 1.427 . S
N778 C775 1.384 . S
N779 C771 1.427 . S
N779 C777 1.384 . S
H780 C786 0.930 . S
H781 C790 0.930 . S
H782 C795 0.929 . S
H783 C793 0.929 . S
H784 C788 0.929 . S
H785 C794 0.929 . S
C786 H780 0.930 . S
C786 C787 1.367 . S
C786 C794 1.378 . S
C787 C786 1.367 . S
C787 C795 1.433 . S
C788 H784 0.929 . S
C788 C790 1.378 . S
C788 C792 1.350 . S
C789 C792 1.463 . S
C789 C794 1.350 . S
C789 N797 1.427 . S
C790 H781 0.930 . S
C790 C788 1.378 . S
C790 C791 1.367 . S
C791 C790 1.367 . S
C791 C793 1.433 . S
C792 C788 1.350 . S
C792 C789 1.463 . S
C792 N796 1.427 . S
C793 H783 0.929 . S
C793 C791 1.433 . S
C793 N796 1.384 . S
C794 H785 0.929 . S
C794 C786 1.378 . S
C794 C789 1.350 . S
C795 H782 0.929 . S
C795 C787 1.433 . S
C795 N797 1.384 . S
N796 C792 1.427 . S
N796 C793 1.384 . S
N797 C789 1.427 . S
N797 C795 1.384 . S
H798 C804 0.930 . S
H799 C808 0.930 . S
H800 C813 0.929 . S
H801 C811 0.929 . S
H802 C806 0.929 . S
H803 C812 0.929 . S
C804 H798 0.930 . S
C804 C805 1.367 . S
C804 C812 1.378 . S
C805 C804 1.367 . S
C805 C813 1.433 . S
C806 H802 0.929 . S
C806 C808 1.378 . S
C806 C810 1.350 . S
C807 C810 1.463 . S
C807 C812 1.350 . S
C807 N815 1.427 . S
C808 H799 0.930 . S
C808 C806 1.378 . S
C808 C809 1.367 . S
C809 C808 1.367 . S
C809 C811 1.433 . S
C810 C806 1.350 . S
C810 C807 1.463 . S
C810 N814 1.427 . S
C811 H801 0.929 . S
C811 C809 1.433 . S
C811 N814 1.384 . S
C812 H803 0.929 . S
C812 C804 1.378 . S
C812 C807 1.350 . S
C813 H800 0.929 . S
C813 C805 1.433 . S
C813 N815 1.384 . S
N814 C810 1.427 . S
N814 C811 1.384 . S
N815 C807 1.427 . S
N815 C813 1.384 . S
H816 C822 0.930 . S
H817 C826 0.930 . S
H818 C831 0.929 . S
H819 C829 0.929 . S
H820 C824 0.929 . S
H821 C830 0.929 . S
C822 H816 0.930 . S
C822 C823 1.367 . S
C822 C830 1.378 . S
C823 C822 1.367 . S
C823 C831 1.433 . S
C824 H820 0.929 . S
C824 C826 1.378 . S
C824 C828 1.350 . S
C825 C828 1.463 . S
C825 C830 1.350 . S
C825 N833 1.427 . S
C826 H817 0.930 . S
C826 C824 1.378 . S
C826 C827 1.367 . S
C827 C826 1.367 . S
C827 C829 1.433 . S
C828 C824 1.350 . S
C828 C825 1.463 . S
C828 N832 1.427 . S
C829 H819 0.929 . S
C829 C827 1.433 . S
C829 N832 1.384 . S
C830 H821 0.929 . S
C830 C822 1.378 . S
C830 C825 1.350 . S
C831 H818 0.929 . S
C831 C823 1.433 . S
C831 N833 1.384 . S
N832 C828 1.427 . S
N832 C829 1.384 . S
N833 C825 1.427 . S
N833 C831 1.384 . S
H834 C840 0.930 . S
H835 C844 0.930 . S
H836 C849 0.929 . S
H837 C847 0.929 . S
H838 C842 0.929 . S
H839 C848 0.929 . S
C840 H834 0.930 . S
C840 C841 1.367 . S
C840 C848 1.378 . S
C841 C840 1.367 . S
C841 C849 1.433 . S
C842 H838 0.929 . S
C842 C844 1.378 . S
C842 C846 1.350 . S
C843 C846 1.463 . S
C843 C848 1.350 . S
C843 N851 1.427 . S
C844 H835 0.930 . S
C844 C842 1.378 . S
C844 C845 1.367 . S
C845 C844 1.367 . S
C845 C847 1.433 . S
C846 C842 1.350 . S
C846 C843 1.463 . S
C846 N850 1.427 . S
C847 H837 0.929 . S
C847 C845 1.433 . S
C847 N850 1.384 . S
C848 H839 0.929 . S
C848 C840 1.378 . S
C848 C843 1.350 . S
C849 H836 0.929 . S
C849 C841 1.433 . S
C849 N851 1.384 . S
N850 C846 1.427 . S
N850 C847 1.384 . S
N851 C843 1.427 . S
N851 C849 1.384 . S
H852 C858 0.930 . S
H853 C862 0.930 . S
H854 C867 0.929 . S
H855 C865 0.929 . S
H856 C860 0.929 . S
H857 C866 0.929 . S
C858 H852 0.930 . S
C858 C859 1.367 . S
C858 C866 1.378 . S
C859 C858 1.367 . S
C859 C867 1.433 . S
C860 H856 0.929 . S
C860 C862 1.378 . S
C860 C864 1.350 . S
C861 C864 1.463 . S
C861 C866 1.350 . S
C861 N869 1.427 . S
C862 H853 0.930 . S
C862 C860 1.378 . S
C862 C863 1.367 . S
C863 C862 1.367 . S
C863 C865 1.433 . S
C864 C860 1.350 . S
C864 C861 1.463 . S
C864 N868 1.427 . S
C865 H855 0.929 . S
C865 C863 1.433 . S
C865 N868 1.384 . S
C866 H857 0.929 . S
C866 C858 1.378 . S
C866 C861 1.350 . S
C867 H854 0.929 . S
C867 C859 1.433 . S
C867 N869 1.384 . S
N868 C864 1.427 . S
N868 C865 1.384 . S
N869 C861 1.427 . S
N869 C867 1.384 . S
H870 C876 0.930 . S
H871 C880 0.930 . S
H872 C885 0.929 . S
H873 C883 0.929 . S
H874 C878 0.929 . S
H875 C884 0.929 . S
C876 H870 0.930 . S
C876 C877 1.367 . S
C876 C884 1.378 . S
C877 C876 1.367 . S
C877 C885 1.433 . S
C878 H874 0.929 . S
C878 C880 1.378 . S
C878 C882 1.350 . S
C879 C882 1.463 . S
C879 C884 1.350 . S
C879 N887 1.427 . S
C880 H871 0.930 . S
C880 C878 1.378 . S
C880 C881 1.367 . S
C881 C880 1.367 . S
C881 C883 1.433 . S
C882 C878 1.350 . S
C882 C879 1.463 . S
C882 N886 1.427 . S
C883 H873 0.929 . S
C883 C881 1.433 . S
C883 N886 1.384 . S
C884 H875 0.929 . S
C884 C876 1.378 . S
C884 C879 1.350 . S
C885 H872 0.929 . S
C885 C877 1.433 . S
C885 N887 1.384 . S
N886 C882 1.427 . S
N886 C883 1.384 . S
N887 C879 1.427 . S
N887 C885 1.384 . S
C463 C39 2.138 . S
C467 C325 2.115 . S
C481 C91 1.424 . S
C485 N343 1.417 . S
C503 C371 1.917 . S
C499 C128 1.947 . S
C521 N389 1.252 . S
C517 C188 1.261 . S
C539 C417 2.015 . S
C535 C250 2.041 . S
C557 N435 1.417 . S
C553 C304 1.420 . S
C571 C75 1.981 . S
C575 C380 1.978 . S
C589 C144 1.429 . S
C593 N399 1.372 . S
C611 C426 2.073 . S
C607 C198 2.073 . S
C629 N445 1.217 . S
C625 C234 1.269 . S
C643 C294 1.889 . S
C647 C334 1.884 . S
C665 N353 1.210 . S
C661 C29 1.275 . S
C683 C403 1.977 . S
C679 C38 2.021 . S
C697 C92 1.310 . S
C701 N422 1.290 . S
C719 C449 1.782 . S
C715 C135 1.832 . S
C733 C181 1.148 . S
C737 N330 1.119 . S
C751 C251 1.935 . S
C755 C357 1.893 . S
C769 C303 1.283 . S
C773 N376 1.257 . S
C787 C82 1.884 . S
C791 C440 1.871 . S
C809 N320 1.252 . S
C805 C145 1.314 . S
C823 C197 1.985 . S
C827 C348 1.973 . S
C841 C241 1.143 . S
C845 N366 1.090 . S
C859 C287 1.802 . S
C863 C394 1.789 . S
C877 C22 1.167 . S
C881 N412 1.104 . S
