# Generated by pormake.
# Topology iac, (4,6)-cn, num edge types: 1
# Building blocks:
#     Node 0, Type 0, BuildingBlock: KUFVIS_clean_sbu_0, # of connection points: 4
#     Node 1, Type 0, BuildingBlock: KUFVIS_clean_sbu_0, # of connection points: 4
#     Node 2, Type 0, BuildingBlock: KUFVIS_clean_sbu_0, # of connection points: 4
#     Node 3, Type 0, BuildingBlock: KUFVIS_clean_sbu_0, # of connection points: 4
#     Node 4, Type 0, BuildingBlock: KUFVIS_clean_sbu_0, # of connection points: 4
#     Node 5, Type 0, BuildingBlock: KUFVIS_clean_sbu_0, # of connection points: 4
#     Node 6, Type 0, BuildingBlock: KUFVIS_clean_sbu_0, # of connection points: 4
#     Node 7, Type 0, BuildingBlock: KUFVIS_clean_sbu_0, # of connection points: 4
#     Node 8, Type 0, BuildingBlock: KUFVIS_clean_sbu_0, # of connection points: 4
#     Node 9, Type 0, BuildingBlock: KUFVIS_clean_sbu_0, # of connection points: 4
#     Node 10, Type 0, BuildingBlock: KUFVIS_clean_sbu_0, # of connection points: 4
#     Node 11, Type 0, BuildingBlock: KUFVIS_clean_sbu_0, # of connection points: 4
#     Node 12, Type 0, BuildingBlock: KUFVIS_clean_sbu_0, # of connection points: 4
#     Node 13, Type 0, BuildingBlock: KUFVIS_clean_sbu_0, # of connection points: 4
#     Node 14, Type 0, BuildingBlock: KUFVIS_clean_sbu_0, # of connection points: 4
#     Node 15, Type 0, BuildingBlock: KUFVIS_clean_sbu_0, # of connection points: 4
#     Node 16, Type 0, BuildingBlock: KUFVIS_clean_sbu_0, # of connection points: 4
#     Node 17, Type 0, BuildingBlock: KUFVIS_clean_sbu_0, # of connection points: 4
#     Node 18, Type 0, BuildingBlock: KUFVIS_clean_sbu_0, # of connection points: 4
#     Node 19, Type 0, BuildingBlock: KUFVIS_clean_sbu_0, # of connection points: 4
#     Node 20, Type 0, BuildingBlock: KUFVIS_clean_sbu_0, # of connection points: 4
#     Node 21, Type 0, BuildingBlock: KUFVIS_clean_sbu_0, # of connection points: 4
#     Node 22, Type 0, BuildingBlock: KUFVIS_clean_sbu_0, # of connection points: 4
#     Node 23, Type 0, BuildingBlock: KUFVIS_clean_sbu_0, # of connection points: 4
#     Node 24, Type 1, BuildingBlock: FUNLAD_clean_sbu_0, # of connection points: 6
#     Node 25, Type 1, BuildingBlock: FUNLAD_clean_sbu_0, # of connection points: 6
#     Node 26, Type 1, BuildingBlock: FUNLAD_clean_sbu_0, # of connection points: 6
#     Node 27, Type 1, BuildingBlock: FUNLAD_clean_sbu_0, # of connection points: 6
#     Node 28, Type 1, BuildingBlock: FUNLAD_clean_sbu_0, # of connection points: 6
#     Node 29, Type 1, BuildingBlock: FUNLAD_clean_sbu_0, # of connection points: 6
#     Node 30, Type 1, BuildingBlock: FUNLAD_clean_sbu_0, # of connection points: 6
#     Node 31, Type 1, BuildingBlock: FUNLAD_clean_sbu_0, # of connection points: 6
#     Node 32, Type 1, BuildingBlock: FUNLAD_clean_sbu_0, # of connection points: 6
#     Node 33, Type 1, BuildingBlock: FUNLAD_clean_sbu_0, # of connection points: 6
#     Node 34, Type 1, BuildingBlock: FUNLAD_clean_sbu_0, # of connection points: 6
#     Node 35, Type 1, BuildingBlock: FUNLAD_clean_sbu_0, # of connection points: 6
#     Node 36, Type 1, BuildingBlock: FUNLAD_clean_sbu_0, # of connection points: 6
#     Node 37, Type 1, BuildingBlock: FUNLAD_clean_sbu_0, # of connection points: 6
#     Node 38, Type 1, BuildingBlock: FUNLAD_clean_sbu_0, # of connection points: 6
#     Node 39, Type 1, BuildingBlock: FUNLAD_clean_sbu_0, # of connection points: 6
#     Edge 40, Type (0, 1), BuildingBlock: KIFKEQ_clean_linker_1, # of connection points: 2
#     Edge 41, Type (0, 1), BuildingBlock: KIFKEQ_clean_linker_1, # of connection points: 2
#     Edge 42, Type (0, 1), BuildingBlock: KIFKEQ_clean_linker_1, # of connection points: 2
#     Edge 43, Type (0, 1), BuildingBlock: KIFKEQ_clean_linker_1, # of connection points: 2
#     Edge 44, Type (0, 1), BuildingBlock: KIFKEQ_clean_linker_1, # of connection points: 2
#     Edge 45, Type (0, 1), BuildingBlock: KIFKEQ_clean_linker_1, # of connection points: 2
#     Edge 46, Type (0, 1), BuildingBlock: KIFKEQ_clean_linker_1, # of connection points: 2
#     Edge 47, Type (0, 1), BuildingBlock: KIFKEQ_clean_linker_1, # of connection points: 2
#     Edge 48, Type (0, 1), BuildingBlock: KIFKEQ_clean_linker_1, # of connection points: 2
#     Edge 49, Type (0, 1), BuildingBlock: KIFKEQ_clean_linker_1, # of connection points: 2
#     Edge 50, Type (0, 1), BuildingBlock: KIFKEQ_clean_linker_1, # of connection points: 2
#     Edge 51, Type (0, 1), BuildingBlock: KIFKEQ_clean_linker_1, # of connection points: 2
#     Edge 52, Type (0, 1), BuildingBlock: KIFKEQ_clean_linker_1, # of connection points: 2
#     Edge 53, Type (0, 1), BuildingBlock: KIFKEQ_clean_linker_1, # of connection points: 2
#     Edge 54, Type (0, 1), BuildingBlock: KIFKEQ_clean_linker_1, # of connection points: 2
#     Edge 55, Type (0, 1), BuildingBlock: KIFKEQ_clean_linker_1, # of connection points: 2
#     Edge 56, Type (0, 1), BuildingBlock: KIFKEQ_clean_linker_1, # of connection points: 2
#     Edge 57, Type (0, 1), BuildingBlock: KIFKEQ_clean_linker_1, # of connection points: 2
#     Edge 58, Type (0, 1), BuildingBlock: KIFKEQ_clean_linker_1, # of connection points: 2
#     Edge 59, Type (0, 1), BuildingBlock: KIFKEQ_clean_linker_1, # of connection points: 2
#     Edge 60, Type (0, 1), BuildingBlock: KIFKEQ_clean_linker_1, # of connection points: 2
#     Edge 61, Type (0, 1), BuildingBlock: KIFKEQ_clean_linker_1, # of connection points: 2
#     Edge 62, Type (0, 1), BuildingBlock: KIFKEQ_clean_linker_1, # of connection points: 2
#     Edge 63, Type (0, 1), BuildingBlock: KIFKEQ_clean_linker_1, # of connection points: 2
#     Edge 64, Type (0, 1), BuildingBlock: KIFKEQ_clean_linker_1, # of connection points: 2
#     Edge 65, Type (0, 1), BuildingBlock: KIFKEQ_clean_linker_1, # of connection points: 2
#     Edge 66, Type (0, 1), BuildingBlock: KIFKEQ_clean_linker_1, # of connection points: 2
#     Edge 67, Type (0, 1), BuildingBlock: KIFKEQ_clean_linker_1, # of connection points: 2
#     Edge 68, Type (0, 1), BuildingBlock: KIFKEQ_clean_linker_1, # of connection points: 2
#     Edge 69, Type (0, 1), BuildingBlock: KIFKEQ_clean_linker_1, # of connection points: 2
#     Edge 70, Type (0, 1), BuildingBlock: KIFKEQ_clean_linker_1, # of connection points: 2
#     Edge 71, Type (0, 1), BuildingBlock: KIFKEQ_clean_linker_1, # of connection points: 2
#     Edge 72, Type (0, 1), BuildingBlock: KIFKEQ_clean_linker_1, # of connection points: 2
#     Edge 73, Type (0, 1), BuildingBlock: KIFKEQ_clean_linker_1, # of connection points: 2
#     Edge 74, Type (0, 1), BuildingBlock: KIFKEQ_clean_linker_1, # of connection points: 2
#     Edge 75, Type (0, 1), BuildingBlock: KIFKEQ_clean_linker_1, # of connection points: 2
#     Edge 76, Type (0, 1), BuildingBlock: KIFKEQ_clean_linker_1, # of connection points: 2
#     Edge 77, Type (0, 1), BuildingBlock: KIFKEQ_clean_linker_1, # of connection points: 2
#     Edge 78, Type (0, 1), BuildingBlock: KIFKEQ_clean_linker_1, # of connection points: 2
#     Edge 79, Type (0, 1), BuildingBlock: KIFKEQ_clean_linker_1, # of connection points: 2
#     Edge 80, Type (0, 1), BuildingBlock: KIFKEQ_clean_linker_1, # of connection points: 2
#     Edge 81, Type (0, 1), BuildingBlock: KIFKEQ_clean_linker_1, # of connection points: 2
#     Edge 82, Type (0, 1), BuildingBlock: KIFKEQ_clean_linker_1, # of connection points: 2
#     Edge 83, Type (0, 1), BuildingBlock: KIFKEQ_clean_linker_1, # of connection points: 2
#     Edge 84, Type (0, 1), BuildingBlock: KIFKEQ_clean_linker_1, # of connection points: 2
#     Edge 85, Type (0, 1), BuildingBlock: KIFKEQ_clean_linker_1, # of connection points: 2
#     Edge 86, Type (0, 1), BuildingBlock: KIFKEQ_clean_linker_1, # of connection points: 2
#     Edge 87, Type (0, 1), BuildingBlock: KIFKEQ_clean_linker_1, # of connection points: 2
#     Edge 88, Type (0, 1), BuildingBlock: KIFKEQ_clean_linker_1, # of connection points: 2
#     Edge 89, Type (0, 1), BuildingBlock: KIFKEQ_clean_linker_1, # of connection points: 2
#     Edge 90, Type (0, 1), BuildingBlock: KIFKEQ_clean_linker_1, # of connection points: 2
#     Edge 91, Type (0, 1), BuildingBlock: KIFKEQ_clean_linker_1, # of connection points: 2
#     Edge 92, Type (0, 1), BuildingBlock: KIFKEQ_clean_linker_1, # of connection points: 2
#     Edge 93, Type (0, 1), BuildingBlock: KIFKEQ_clean_linker_1, # of connection points: 2
#     Edge 94, Type (0, 1), BuildingBlock: KIFKEQ_clean_linker_1, # of connection points: 2
#     Edge 95, Type (0, 1), BuildingBlock: KIFKEQ_clean_linker_1, # of connection points: 2
#     Edge 96, Type (0, 1), BuildingBlock: KIFKEQ_clean_linker_1, # of connection points: 2
#     Edge 97, Type (0, 1), BuildingBlock: KIFKEQ_clean_linker_1, # of connection points: 2
#     Edge 98, Type (0, 1), BuildingBlock: KIFKEQ_clean_linker_1, # of connection points: 2
#     Edge 99, Type (0, 1), BuildingBlock: KIFKEQ_clean_linker_1, # of connection points: 2
#     Edge 100, Type (0, 1), BuildingBlock: KIFKEQ_clean_linker_1, # of connection points: 2
#     Edge 101, Type (0, 1), BuildingBlock: KIFKEQ_clean_linker_1, # of connection points: 2
#     Edge 102, Type (0, 1), BuildingBlock: KIFKEQ_clean_linker_1, # of connection points: 2
#     Edge 103, Type (0, 1), BuildingBlock: KIFKEQ_clean_linker_1, # of connection points: 2
#     Edge 104, Type (0, 1), BuildingBlock: KIFKEQ_clean_linker_1, # of connection points: 2
#     Edge 105, Type (0, 1), BuildingBlock: KIFKEQ_clean_linker_1, # of connection points: 2
#     Edge 106, Type (0, 1), BuildingBlock: KIFKEQ_clean_linker_1, # of connection points: 2
#     Edge 107, Type (0, 1), BuildingBlock: KIFKEQ_clean_linker_1, # of connection points: 2
#     Edge 108, Type (0, 1), BuildingBlock: KIFKEQ_clean_linker_1, # of connection points: 2
#     Edge 109, Type (0, 1), BuildingBlock: KIFKEQ_clean_linker_1, # of connection points: 2
#     Edge 110, Type (0, 1), BuildingBlock: KIFKEQ_clean_linker_1, # of connection points: 2
#     Edge 111, Type (0, 1), BuildingBlock: KIFKEQ_clean_linker_1, # of connection points: 2
#     Edge 112, Type (0, 1), BuildingBlock: KIFKEQ_clean_linker_1, # of connection points: 2
#     Edge 113, Type (0, 1), BuildingBlock: KIFKEQ_clean_linker_1, # of connection points: 2
#     Edge 114, Type (0, 1), BuildingBlock: KIFKEQ_clean_linker_1, # of connection points: 2
#     Edge 115, Type (0, 1), BuildingBlock: KIFKEQ_clean_linker_1, # of connection points: 2
#     Edge 116, Type (0, 1), BuildingBlock: KIFKEQ_clean_linker_1, # of connection points: 2
#     Edge 117, Type (0, 1), BuildingBlock: KIFKEQ_clean_linker_1, # of connection points: 2
#     Edge 118, Type (0, 1), BuildingBlock: KIFKEQ_clean_linker_1, # of connection points: 2
#     Edge 119, Type (0, 1), BuildingBlock: KIFKEQ_clean_linker_1, # of connection points: 2
#     Edge 120, Type (0, 1), BuildingBlock: KIFKEQ_clean_linker_1, # of connection points: 2
#     Edge 121, Type (0, 1), BuildingBlock: KIFKEQ_clean_linker_1, # of connection points: 2
#     Edge 122, Type (0, 1), BuildingBlock: KIFKEQ_clean_linker_1, # of connection points: 2
#     Edge 123, Type (0, 1), BuildingBlock: KIFKEQ_clean_linker_1, # of connection points: 2
#     Edge 124, Type (0, 1), BuildingBlock: KIFKEQ_clean_linker_1, # of connection points: 2
#     Edge 125, Type (0, 1), BuildingBlock: KIFKEQ_clean_linker_1, # of connection points: 2
#     Edge 126, Type (0, 1), BuildingBlock: KIFKEQ_clean_linker_1, # of connection points: 2
#     Edge 127, Type (0, 1), BuildingBlock: KIFKEQ_clean_linker_1, # of connection points: 2
#     Edge 128, Type (0, 1), BuildingBlock: KIFKEQ_clean_linker_1, # of connection points: 2
#     Edge 129, Type (0, 1), BuildingBlock: KIFKEQ_clean_linker_1, # of connection points: 2
#     Edge 130, Type (0, 1), BuildingBlock: KIFKEQ_clean_linker_1, # of connection points: 2
#     Edge 131, Type (0, 1), BuildingBlock: KIFKEQ_clean_linker_1, # of connection points: 2
#     Edge 132, Type (0, 1), BuildingBlock: KIFKEQ_clean_linker_1, # of connection points: 2
#     Edge 133, Type (0, 1), BuildingBlock: KIFKEQ_clean_linker_1, # of connection points: 2
#     Edge 134, Type (0, 1), BuildingBlock: KIFKEQ_clean_linker_1, # of connection points: 2
#     Edge 135, Type (0, 1), BuildingBlock: KIFKEQ_clean_linker_1, # of connection points: 2
# Relax obj value: 0.319
# Max RMSD: 0.285
# Mean RMSD: 0.124
data_MOF--net-iac--node1-KUFVIS_clean_sbu_0--node2-FUNLAD_clean_sbu_0--edge1-KIFKEQ_clean_linker_1
_symmetry_space_group_name_H-M    P1
_symmetry_Int_Tables_number       1
_symmetry_cell_setting            triclinic
loop_
_symmetry_equiv_pos_as_xyz
'x, y, z'
_cell_length_a     55.552892
_cell_length_b     52.837359
_cell_length_c     60.857467
_cell_angle_alpha  90.101067
_cell_angle_beta   92.036962
_cell_angle_gamma 90.42565
loop_
_atom_site_label
_atom_site_type_symbol
_atom_site_fract_x
_atom_site_fract_y
_atom_site_fract_z
_atom_type_partial_charge
Mn0 Mn 0.06241 0.22677 0.16169 0.0
Mn1 Mn 0.01987 0.23535 0.12167 0.0
C2 C 0.05672 0.19607 0.13534 0.0
C3 C 0.10072 0.23706 0.17489 0.0
C4 C 0.00901 0.22013 0.16845 0.0
O5 O 0.05397 0.26364 0.16413 0.0
O6 O 0.03088 0.26876 0.13342 0.0
C7 C 0.0498 0.26043 0.08869 0.0
N8 N 0.03453 0.24138 0.09422 0.0
C9 C 0.03455 0.22406 0.05764 0.0
C10 C 0.05017 0.24357 0.05149 0.0
C11 C 0.05791 0.26176 0.06712 0.0
C12 C 0.02725 0.22358 0.07942 0.0
H13 H 0.05574 0.27448 0.10064 0.0
C14 C 0.04282 0.27748 0.15019 0.0
O15 O 0.08395 0.23041 0.18814 0.0
O16 O 0.09548 0.23649 0.15395 0.0
N17 N 0.00752 0.20483 0.10839 0.0
C18 C 0.9927 0.18704 0.11702 0.0
C19 C 0.98286 0.16785 0.10341 0.0
C20 C 0.98818 0.16725 0.08104 0.0
C21 C 0.00363 0.18558 0.07255 0.0
C22 C 0.0126 0.20448 0.08682 0.0
H23 H 0.98829 0.18755 0.13412 0.0
O24 O 0.06841 0.19096 0.15364 0.0
O25 O 0.04957 0.21926 0.13268 0.0
O26 O 0.03071 0.21698 0.17541 0.0
O27 O 0.00327 0.22842 0.14924 0.0
C28 C 0.01041 0.18589 0.05046 0.0
C29 C 0.02602 0.205 0.04305 0.0
H30 H 0.05639 0.24471 0.03486 0.0
H31 H 0.07003 0.27683 0.06252 0.0
H32 H 0.97102 0.15369 0.1101 0.0
H33 H 0.98021 0.1527 0.0705 0.0
H34 H 0.00388 0.1714 0.03908 0.0
H35 H 0.03131 0.2049 0.02609 0.0
Mn36 Mn 0.04247 0.77299 0.39473 0.0
Mn37 Mn 0.00363 0.7791 0.43642 0.0
C38 C 0.03607 0.81279 0.41114 0.0
C39 C 0.08078 0.76467 0.37974 0.0
C40 C 0.98695 0.77209 0.38861 0.0
O41 O 0.03936 0.73623 0.40669 0.0
O42 O 0.01588 0.74415 0.43531 0.0
C43 C 0.03716 0.77091 0.47464 0.0
N44 N 0.02042 0.78544 0.46384 0.0
C45 C 0.02051 0.81548 0.49362 0.0
C46 C 0.03768 0.80079 0.50511 0.0
C47 C 0.04611 0.77847 0.49553 0.0
C48 C 0.01231 0.80704 0.47283 0.0
H49 H 0.04359 0.75368 0.4674 0.0
C50 C 0.02881 0.72922 0.42418 0.0
O51 O 0.06069 0.76139 0.36866 0.0
O52 O 0.07882 0.77241 0.3999 0.0
N53 N 0.99056 0.81224 0.43978 0.0
C54 C 0.97522 0.82511 0.42594 0.0
C55 C 0.96571 0.84828 0.43274 0.0
C56 C 0.97179 0.85781 0.45379 0.0
C57 C 0.98744 0.84414 0.46782 0.0
C58 C 0.99635 0.82115 0.46014 0.0
H59 H 0.97028 0.81778 0.40982 0.0
O60 O 0.0441 0.81121 0.39139 0.0
O61 O 0.03188 0.79131 0.42058 0.0
O62 O 0.00791 0.77237 0.38065 0.0
O63 O 0.98364 0.77313 0.40923 0.0
C64 C 0.99495 0.85267 0.48894 0.0
C65 C 0.01154 0.8384 0.5018 0.0
H66 H 0.04465 0.80656 0.52121 0.0
H67 H 0.05942 0.76708 0.50426 0.0
H68 H 0.95367 0.85875 0.4218 0.0
H69 H 0.96452 0.87575 0.45893 0.0
H70 H 0.98846 0.87044 0.49527 0.0
H71 H 0.01753 0.8454 0.51783 0.0
Mn72 Mn 0.55052 0.70673 0.6568 0.0
Mn73 Mn 0.51621 0.68875 0.61319 0.0
C74 C 0.5605 0.67058 0.63824 0.0
C75 C 0.5806 0.7334 0.67036 0.0
C76 C 0.50056 0.68571 0.66053 0.0
O77 O 0.5308 0.73749 0.64859 0.0
O78 O 0.51585 0.72637 0.61502 0.0
C79 C 0.5426 0.71008 0.57602 0.0
N80 N 0.53338 0.68967 0.58657 0.0
C81 C 0.5448 0.66167 0.55762 0.0
C82 C 0.55431 0.68239 0.54638 0.0
C83 C 0.55333 0.70669 0.55569 0.0
C84 C 0.5345 0.66618 0.5779 0.0
H85 H 0.54171 0.72883 0.58303 0.0
C86 C 0.52106 0.74286 0.62995 0.0
O87 O 0.56396 0.72497 0.68299 0.0
O88 O 0.58025 0.72553 0.65015 0.0
N89 N 0.51615 0.65271 0.60968 0.0
C90 C 0.5074 0.63452 0.62316 0.0
C91 C 0.50833 0.60899 0.61679 0.0
C92 C 0.51804 0.60243 0.59658 0.0
C93 C 0.52676 0.62149 0.58292 0.0
C94 C 0.52549 0.64659 0.59017 0.0
H95 H 0.49978 0.63941 0.63864 0.0
O96 O 0.56889 0.6743 0.65821 0.0
O97 O 0.54685 0.68823 0.63001 0.0
O98 O 0.52119 0.68996 0.66958 0.0
O99 O 0.49654 0.68668 0.63974 0.0
C100 C 0.53683 0.61658 0.56247 0.0
C101 C 0.54542 0.63668 0.54964 0.0
H102 H 0.56257 0.67984 0.53068 0.0
H103 H 0.56072 0.72277 0.54717 0.0
H104 H 0.50152 0.59439 0.62742 0.0
H105 H 0.51874 0.58272 0.59174 0.0
H106 H 0.53848 0.59738 0.55661 0.0
H107 H 0.55306 0.63263 0.5339 0.0
Mn108 Mn 0.54125 0.27247 0.89325 0.0
Mn109 Mn 0.50256 0.27329 0.93527 0.0
C110 C 0.53309 0.31055 0.91164 0.0
C111 C 0.57985 0.26716 0.87805 0.0
C112 C 0.48551 0.27036 0.88722 0.0
O113 O 0.54018 0.23503 0.90307 0.0
O114 O 0.51487 0.23845 0.93108 0.0
C115 C 0.53715 0.26131 0.97188 0.0
N116 N 0.52003 0.27674 0.96274 0.0
C117 C 0.521 0.3035 0.99479 0.0
C118 C 0.53855 0.28782 0.00461 0.0
C119 C 0.54676 0.26671 0.99305 0.0
C120 C 0.51225 0.29729 0.9736 0.0
H121 H 0.54341 0.24497 0.96312 0.0
C122 C 0.52888 0.22557 0.91918 0.0
O123 O 0.55995 0.26374 0.86667 0.0
O124 O 0.57752 0.27352 0.89851 0.0
N125 N 0.48922 0.30564 0.94178 0.0
C126 C 0.47306 0.31952 0.9296 0.0
C127 C 0.46353 0.34164 0.93858 0.0
C128 C 0.47036 0.349 0.96011 0.0
C129 C 0.48674 0.33421 0.97243 0.0
C130 C 0.49574 0.31244 0.96258 0.0
H131 H 0.46752 0.31384 0.91313 0.0
O132 O 0.54093 0.31072 0.89176 0.0
O133 O 0.53014 0.28825 0.92015 0.0
O134 O 0.50652 0.27071 0.87927 0.0
O135 O 0.48231 0.27045 0.9079 0.0
C136 C 0.49464 0.34033 0.99405 0.0
C137 C 0.51193 0.32513 0.00515 0.0
H138 H 0.54594 0.29188 0.02096 0.0
H139 H 0.56036 0.25457 1.00048 0.0
H140 H 0.45087 0.35293 0.92896 0.0
H141 H 0.46302 0.3661 0.96697 0.0
H142 H 0.48782 0.35693 0.00217 0.0
H143 H 0.51822 0.33033 0.02161 0.0
Mn144 Mn 0.15132 0.0121 0.25517 0.0
Mn145 Mn 0.20089 0.02363 0.28786 0.0
C146 C 0.16755 0.05241 0.25739 0.0
C147 C 0.13297 -0.0006 0.22186 0.0
C148 C 0.15071 0.01866 0.30529 0.0
O149 O 0.16454 0.97675 0.2608 0.0
O150 O 0.19766 0.98699 0.28146 0.0
C151 C 0.23754 0.00958 0.25593 0.0
N152 N 0.22847 0.02668 0.27014 0.0
C153 C 0.26085 0.056 0.26388 0.0
C154 C 0.27062 0.03864 0.24926 0.0
C155 C 0.25885 0.01538 0.24519 0.0
C156 C 0.23948 0.04924 0.27396 0.0
H157 H 0.22858 0.99165 0.25282 0.0
C158 C 0.18384 0.97088 0.27152 0.0
O159 O 0.12175 0.99813 0.24016 0.0
O160 O 0.15508 0.0076 0.22292 0.0
N161 N 0.20698 0.05824 0.2957 0.0
C162 C 0.19486 0.07316 0.3098 0.0
C163 C 0.20434 0.09702 0.31575 0.0
C164 C 0.22632 0.10514 0.30739 0.0
C165 C 0.23854 0.08944 0.293 0.0
C166 C 0.22833 0.06576 0.28783 0.0
H167 H 0.17812 0.0669 0.31652 0.0
O168 O 0.14533 0.04895 0.25069 0.0
O169 O 0.17988 0.03221 0.26222 0.0
O170 O 0.13983 0.0147 0.28677 0.0
O171 O 0.1735 0.02158 0.30749 0.0
C172 C 0.26029 0.09646 0.28338 0.0
C173 C 0.27135 0.07983 0.26871 0.0
H174 H 0.28708 0.04302 0.24098 0.0
H175 H 0.26623 0.00192 0.23387 0.0
H176 H 0.19478 0.10906 0.32683 0.0
H177 H 0.23363 0.12351 0.31208 0.0
H178 H 0.26849 0.11476 0.28691 0.0
H179 H 0.2879 0.08557 0.26118 0.0
Mn180 Mn 0.28233 0.90069 0.5575 0.0
Mn181 Mn 0.28841 0.95264 0.52531 0.0
C182 C 0.32037 0.91779 0.55225 0.0
C183 C 0.27407 0.88122 0.59108 0.0
C184 C 0.28213 0.89955 0.50707 0.0
O185 O 0.24771 0.91384 0.55424 0.0
O186 O 0.25509 0.94916 0.53511 0.0
C187 C 0.28024 0.99085 0.55986 0.0
N188 N 0.29394 0.98169 0.54356 0.0
C189 C 0.32139 0.01697 0.54705 0.0
C190 C 0.30748 0.02694 0.56374 0.0
C191 C 0.28691 0.01371 0.57029 0.0
C192 C 0.31409 0.99389 0.53755 0.0
H193 H 0.26433 0.98082 0.56483 0.0
C194 C 0.24092 0.93459 0.54537 0.0
O195 O 0.27089 0.86958 0.57242 0.0
O196 O 0.2818 0.90448 0.5903 0.0
N197 N 0.31953 0.95963 0.51417 0.0
C198 C 0.33103 0.94743 0.49786 0.0
C199 C 0.35197 0.95816 0.48942 0.0
C200 C 0.36049 0.98166 0.49736 0.0
C201 C 0.34804 0.99418 0.51376 0.0
C202 C 0.32738 0.98247 0.52166 0.0
H203 H 0.32426 0.92967 0.49127 0.0
O204 O 0.31784 0.89482 0.55936 0.0
O205 O 0.30067 0.93077 0.54943 0.0
O206 O 0.28151 0.88828 0.52556 0.0
O207 O 0.28346 0.92358 0.50504 0.0
C208 C 0.35526 0.01786 0.52254 0.0
C209 C 0.34215 0.02907 0.53939 0.0
H210 H 0.31244 0.04469 0.57167 0.0
H211 H 0.27613 0.02121 0.58322 0.0
H212 H 0.3614 0.94845 0.47667 0.0
H213 H 0.3766 0.98991 0.49075 0.0
H214 H 0.37099 0.02753 0.51659 0.0
H215 H 0.3481 0.04709 0.54624 0.0
Mn216 Mn 0.40768 0.01579 0.74464 0.0
Mn217 Mn 0.35805 0.01365 0.77555 0.0
C218 C 0.38863 0.97743 0.75059 0.0
C219 C 0.42709 0.02252 0.71172 0.0
C220 C 0.40864 0.01528 0.79517 0.0
O221 O 0.39787 0.05296 0.74592 0.0
O222 O 0.36514 0.04862 0.76625 0.0
C223 C 0.32309 0.02785 0.7399 0.0
N224 N 0.3302 0.01172 0.75628 0.0
C225 C 0.29414 0.98665 0.75115 0.0
C226 C 0.28635 0.00303 0.73428 0.0
C227 C 0.30098 0.02363 0.72854 0.0
C228 C 0.31655 0.99154 0.76158 0.0
H229 H 0.33418 0.04384 0.7356 0.0
C230 C 0.37984 0.06208 0.75551 0.0
O231 O 0.43819 0.02519 0.73068 0.0
O232 O 0.40442 0.0162 0.71178 0.0
N233 N 0.34795 0.98143 0.7863 0.0
C234 C 0.35796 0.96761 0.80312 0.0
C235 C 0.34545 0.94657 0.81112 0.0
C236 C 0.32251 0.94036 0.80219 0.0
C237 C 0.31235 0.95513 0.78518 0.0
C238 C 0.32571 0.97582 0.77783 0.0
H239 H 0.37532 0.97267 0.81046 0.0
O240 O 0.4107 0.97828 0.74435 0.0
O241 O 0.37765 0.99906 0.75222 0.0
O242 O 0.41929 0.01616 0.77696 0.0
O243 O 0.38578 0.01492 0.79666 0.0
C244 C 0.28944 0.95022 0.77531 0.0
C245 C 0.28048 0.96577 0.75812 0.0
H246 H 0.26919 -1e-05 0.72564 0.0
H247 H 0.29512 0.03633 0.71552 0.0
H248 H 0.35335 0.93533 0.82432 0.0
H249 H 0.31284 0.92424 0.80856 0.0
H250 H 0.27861 0.93445 0.78073 0.0
H251 H 0.26298 0.96162 0.75049 0.0
Mn252 Mn 0.29383 0.10158 0.01633 0.0
Mn253 Mn 0.30049 0.05261 0.98103 0.0
C254 C 0.26368 0.07201 0.01214 0.0
C255 C 0.30231 0.12025 0.05013 0.0
C256 C 0.28608 0.10527 0.96658 0.0
O257 O 0.32919 0.10278 0.0103 0.0
O258 O 0.33211 0.06803 0.98933 0.0
C259 C 0.32666 0.01851 0.012 0.0
N260 N 0.30793 0.0227 0.99744 0.0
C261 C 0.2934 0.98 0.00135 0.0
C262 C 0.31262 0.97516 0.01629 0.0
C263 C 0.32926 0.99454 0.0217 0.0
C264 C 0.29164 0.00431 0.99234 0.0
H265 H 0.33952 0.03333 0.01617 0.0
C266 C 0.3414 0.08685 0.99989 0.0
O267 O 0.29731 0.13374 0.03277 0.0
O268 O 0.30168 0.09578 0.04796 0.0
N269 N 0.27182 0.03497 0.97126 0.0
C270 C 0.25423 0.04271 0.95664 0.0
C271 C 0.23629 0.0255 0.94933 0.0
C272 C 0.23679 0.00039 0.95684 0.0
C273 C 0.2553 0.9927 0.97155 0.0
C274 C 0.27281 0.01065 0.97811 0.0
H275 H 0.25374 0.06194 0.95076 0.0
O276 O 0.25942 0.09393 0.02078 0.0
O277 O 0.2858 0.06736 0.00711 0.0
O278 O 0.28564 0.11505 0.98571 0.0
O279 O 0.29213 0.0824 0.96291 0.0
C280 C 0.2569 0.96801 0.98015 0.0
C281 C 0.27585 0.96171 0.99515 0.0
H282 H 0.31473 0.95668 0.02375 0.0
H283 H 0.34409 0.99099 0.03326 0.0
H284 H 0.22207 0.03159 0.93798 0.0
H285 H 0.22279 0.98723 0.95133 0.0
H286 H 0.24352 0.95379 0.9755 0.0
H287 H 0.27676 0.94273 0.00182 0.0
Mn288 Mn 0.78794 0.40056 0.06178 0.0
Mn289 Mn 0.7975 0.45368 0.03205 0.0
C290 C 0.82706 0.41495 0.05729 0.0
C291 C 0.7786 0.38061 0.09483 0.0
C292 C 0.7887 0.40211 0.01133 0.0
O293 O 0.75417 0.4159 0.05863 0.0
O294 O 0.76342 0.4515 0.04066 0.0
C295 C 0.79013 0.48977 0.06844 0.0
N296 N 0.80413 0.48076 0.05229 0.0
C297 C 0.83512 0.5116 0.06095 0.0
C298 C 0.82097 0.52132 0.07758 0.0
C299 C 0.79842 0.51028 0.08139 0.0
C300 C 0.82602 0.49094 0.04874 0.0
H301 H 0.7728 0.48133 0.07145 0.0
C302 C 0.74832 0.43711 0.05006 0.0
O303 O 0.77464 0.36968 0.07593 0.0
O304 O 0.78749 0.40341 0.09454 0.0
N305 N 0.82939 0.45951 0.0222 0.0
C306 C 0.84025 0.44875 0.00478 0.0
C307 C 0.86256 0.45824 0.99823 0.0
C308 C 0.87324 0.47899 0.00935 0.0
C309 C 0.86149 0.49014 0.02686 0.0
C310 C 0.83916 0.48005 0.03249 0.0
H311 H 0.83195 0.43309 0.99589 0.0
O312 O 0.82288 0.392 0.06367 0.0
O313 O 0.80828 0.42952 0.05494 0.0
O314 O 0.78675 0.38993 0.02932 0.0
O315 O 0.79167 0.42613 0.0103 0.0
C316 C 0.87095 0.51102 0.03882 0.0
C317 C 0.85786 0.52162 0.05598 0.0
H318 H 0.82725 0.53723 0.08753 0.0
H319 H 0.78744 0.51761 0.09425 0.0
H320 H 0.87144 0.44967 0.98457 0.0
H321 H 0.89037 0.48638 0.00419 0.0
H322 H 0.88829 0.51907 0.03497 0.0
H323 H 0.86536 0.5376 0.06512 0.0
Mn324 Mn 0.90968 0.51705 0.24409 0.0
Mn325 Mn 0.85787 0.51271 0.27186 0.0
C326 C 0.89204 0.47785 0.24971 0.0
C327 C 0.92986 0.52473 0.2115 0.0
C328 C 0.90692 0.5164 0.29476 0.0
O329 O 0.89843 0.55367 0.24452 0.0
O330 O 0.86516 0.548 0.26381 0.0
C331 C 0.82645 0.52668 0.23352 0.0
N332 N 0.83209 0.51047 0.25027 0.0
C333 C 0.79808 0.48372 0.2407 0.0
C334 C 0.79181 0.50019 0.22341 0.0
C335 C 0.80614 0.52169 0.21974 0.0
C336 C 0.81877 0.48944 0.25362 0.0
H337 H 0.83736 0.54327 0.23068 0.0
C338 C 0.87998 0.56205 0.25385 0.0
O339 O 0.94037 0.528 0.2307 0.0
O340 O 0.90766 0.51687 0.21123 0.0
N341 N 0.8471 0.48026 0.28153 0.0
C342 C 0.85452 0.46745 0.29994 0.0
C343 C 0.84128 0.44636 0.30681 0.0
C344 C 0.82032 0.43883 0.2949 0.0
C345 C 0.81262 0.45268 0.27638 0.0
C346 C 0.82633 0.47383 0.27056 0.0
H347 H 0.87033 0.4734 0.30945 0.0
O348 O 0.91441 0.47966 0.24448 0.0
O349 O 0.88001 0.4989 0.25034 0.0
O350 O 0.91899 0.51867 0.27729 0.0
O351 O 0.88397 0.51408 0.29459 0.0
C352 C 0.79167 0.4466 0.26369 0.0
C353 C 0.78454 0.46196 0.24571 0.0
H354 H 0.77604 0.49653 0.21288 0.0
H355 H 0.80146 0.53446 0.2064 0.0
H356 H 0.84714 0.43601 0.32135 0.0
H357 H 0.81013 0.42255 0.30025 0.0
H358 H 0.78087 0.43018 0.26765 0.0
H359 H 0.76843 0.45707 0.23603 0.0
Mn360 Mn 0.7791 0.59588 0.50618 0.0
Mn361 Mn 0.79847 0.53922 0.48791 0.0
C362 C 0.75188 0.56665 0.4916 0.0
C363 C 0.769 0.6229 0.53434 0.0
C364 C 0.80398 0.58836 0.46296 0.0
O365 O 0.81317 0.59387 0.51927 0.0
O366 O 0.82228 0.55394 0.50949 0.0
C367 C 0.79526 0.51123 0.52984 0.0
N368 N 0.78978 0.51315 0.50794 0.0
C369 C 0.76845 0.47334 0.50787 0.0
C370 C 0.77436 0.47066 0.53033 0.0
C371 C 0.78766 0.4898 0.5414 0.0
C372 C 0.77649 0.49514 0.49725 0.0
H373 H 0.80513 0.52607 0.53844 0.0
C374 C 0.82681 0.57462 0.51989 0.0
O375 O 0.77683 0.63137 0.51593 0.0
O376 O 0.7662 0.59853 0.53622 0.0
N377 N 0.77716 0.52224 0.4672 0.0
C378 C 0.77128 0.52865 0.44603 0.0
C379 C 0.7573 0.51196 0.4328 0.0
C380 C 0.74961 0.48876 0.44143 0.0
C381 C 0.75592 0.48251 0.46324 0.0
C382 C 0.77006 0.49982 0.47557 0.0
H383 H 0.77687 0.54652 0.43943 0.0
O384 O 0.74599 0.59033 0.49294 0.0
O385 O 0.77307 0.56065 0.49951 0.0
O386 O 0.79246 0.60178 0.47629 0.0
O387 O 0.80783 0.56471 0.46557 0.0
C388 C 0.74837 0.45999 0.47336 0.0
C389 C 0.75448 0.45549 0.4957 0.0
H390 H 0.76848 0.45418 0.53931 0.0
H391 H 0.79199 0.48806 0.55881 0.0
H392 H 0.75235 0.51703 0.41603 0.0
H393 H 0.73862 0.47604 0.43125 0.0
H394 H 0.73744 0.44624 0.46422 0.0
H395 H 0.74808 0.43838 0.50344 0.0
Mn396 Mn 0.64618 0.51284 0.75261 0.0
Mn397 Mn 0.69612 0.53584 0.77929 0.0
C398 C 0.65553 0.55531 0.75028 0.0
C399 C 0.62762 0.49383 0.72206 0.0
C400 C 0.64982 0.52298 0.80194 0.0
O401 O 0.66545 0.48112 0.75991 0.0
O402 O 0.69954 0.49912 0.77387 0.0
C403 C 0.73124 0.52853 0.74439 0.0
N404 N 0.72043 0.54395 0.75896 0.0
C405 C 0.74558 0.57919 0.74926 0.0
C406 C 0.75708 0.56366 0.73421 0.0
C407 C 0.7498 0.53826 0.73169 0.0
C408 C 0.72709 0.56849 0.76132 0.0
H409 H 0.72576 0.50897 0.74249 0.0
C410 C 0.68726 0.47985 0.76715 0.0
O411 O 0.61812 0.49262 0.7412 0.0
O412 O 0.64814 0.50551 0.72073 0.0
N413 N 0.69576 0.57134 0.78558 0.0
C414 C 0.68215 0.58406 0.8001 0.0
C415 C 0.68718 0.60966 0.8046 0.0
C416 C 0.70629 0.62185 0.79433 0.0
C417 C 0.71995 0.60845 0.77934 0.0
C418 C 0.71426 0.58289 0.77568 0.0
H419 H 0.66769 0.57472 0.80834 0.0
O420 O 0.63375 0.5474 0.74581 0.0
O421 O 0.67136 0.53816 0.75553 0.0
O422 O 0.6374 0.517 0.78467 0.0
O423 O 0.67214 0.5289 0.80177 0.0
C424 C 0.73886 0.6195 0.76775 0.0
C425 C 0.75154 0.60492 0.7526 0.0
H426 H 0.77143 0.57107 0.72442 0.0
H427 H 0.75853 0.52618 0.72006 0.0
H428 H 0.67648 0.61993 0.81611 0.0
H429 H 0.71028 0.64152 0.79803 0.0
H430 H 0.74353 0.63928 0.77011 0.0
H431 H 0.76579 0.61372 0.74353 0.0
Mn432 Mn 0.98394 0.79652 0.88512 0.0
Mn433 Mn 0.95126 0.77113 0.92518 0.0
C434 C 0.96931 0.82181 0.91258 0.0
C435 C 0.02135 0.80745 0.8719 0.0
C436 C 0.93388 0.77529 0.87749 0.0
O437 O 0.99142 0.75883 0.88369 0.0
O438 O 0.9738 0.74532 0.91475 0.0
C439 C 0.98807 0.76232 0.96061 0.0
N440 N 0.96747 0.77388 0.95331 0.0
C441 C 0.963 0.7944 0.98826 0.0
C442 C 0.98417 0.78272 0.99615 0.0
C443 C 0.99675 0.76662 0.98226 0.0
C444 C 0.95506 0.78918 0.96662 0.0
H445 H 0.99782 0.75002 0.94994 0.0
C446 C 0.98684 0.74196 0.89801 0.0
O447 O 0.00283 0.80363 0.85864 0.0
O448 O 0.01814 0.80467 0.89276 0.0
N449 N 0.92925 0.79542 0.93619 0.0
C450 C 0.91022 0.80669 0.92551 0.0
C451 C 0.89632 0.82424 0.93679 0.0
C452 C 0.90216 0.83005 0.95888 0.0
C453 C 0.92185 0.81823 0.96952 0.0
C454 C 0.93491 0.80074 0.9575 0.0
H455 H 0.90577 0.80242 0.90849 0.0
O456 O 0.97489 0.83185 0.89394 0.0
O457 O 0.97184 0.79759 0.91391 0.0
O458 O 0.9508 0.78949 0.87097 0.0
O459 O 0.93277 0.76711 0.89715 0.0
C460 C 0.92936 0.82358 0.9914 0.0
C461 C 0.94989 0.81162 1.00079 0.0
H462 H 0.99109 0.78622 0.01275 0.0
H463 H 0.01316 0.75762 0.98821 0.0
H464 H 0.88121 0.83336 0.92844 0.0
H465 H 0.89153 0.84379 0.96745 0.0
H466 H 0.91968 0.83712 0.00107 0.0
H467 H 0.95568 0.81616 0.01752 0.0
Mn468 Mn 0.03336 0.26166 0.6591 0.0
Mn469 Mn 0.99086 0.25152 0.61876 0.0
C470 C 0.02683 0.22093 0.64434 0.0
C471 C 0.07351 0.27074 0.67154 0.0
C472 C 0.9787 0.26249 0.66644 0.0
O473 O 0.02786 0.29746 0.64596 0.0
O474 O 0.00252 0.28703 0.61739 0.0
C475 C 0.02023 0.25724 0.57936 0.0
N476 N 0.00499 0.24316 0.59151 0.0
C477 C 0.00435 0.20951 0.56477 0.0
C478 C 0.01971 0.22385 0.5518 0.0
C479 C 0.02777 0.24776 0.55918 0.0
C480 C 0.99728 0.22003 0.58466 0.0
H481 H 0.02671 0.27546 0.5851 0.0
C482 C 0.01581 0.30305 0.62819 0.0
O483 O 0.05519 0.27456 0.68372 0.0
O484 O 0.0685 0.26272 0.65172 0.0
N485 N 0.97871 0.2175 0.61827 0.0
C486 C 0.966 0.20509 0.63373 0.0
C487 C 0.95789 0.18025 0.62956 0.0
C488 C 0.96283 0.16847 0.60953 0.0
C489 C 0.97589 0.18163 0.59384 0.0
C490 C 0.98342 0.20639 0.59887 0.0
H491 H 0.96216 0.21403 0.64917 0.0
O492 O 0.0364 0.22381 0.66397 0.0
O493 O 0.02073 0.24173 0.63446 0.0
O494 O 1.00039 0.26255 0.67422 0.0
O495 O 0.97364 0.2595 0.64595 0.0
C496 C 0.98225 0.17092 0.57365 0.0
C497 C 0.99645 0.18486 0.55912 0.0
H498 H 0.02576 0.2165 0.53633 0.0
H499 H 0.03987 0.2588 0.54939 0.0
H500 H 0.94791 0.17017 0.64179 0.0
H501 H 0.95674 0.14922 0.60646 0.0
H502 H 0.97673 0.15179 0.56935 0.0
H503 H 0.00167 0.17621 0.54388 0.0
Mn504 Mn 0.49927 0.3079 0.40139 0.0
Mn505 Mn 0.47111 0.3401 0.36043 0.0
C506 C 0.46266 0.29401 0.38758 0.0
C507 C 0.52522 0.27667 0.41392 0.0
C508 C 0.47243 0.35702 0.40792 0.0
O509 O 0.52581 0.33005 0.38963 0.0
O510 O 0.50648 0.34733 0.36012 0.0
C511 C 0.49142 0.31361 0.32243 0.0
N512 N 0.47194 0.32087 0.3338 0.0
C513 C 0.44478 0.30019 0.30767 0.0
C514 C 0.46454 0.29278 0.29555 0.0
C515 C 0.48796 0.29945 0.30301 0.0
C516 C 0.44933 0.31432 0.32688 0.0
H517 H 0.50946 0.31847 0.32819 0.0
C518 C 0.52559 0.34329 0.3721 0.0
O519 O 0.52018 0.2959 0.42622 0.0
O520 O 0.51671 0.27677 0.39378 0.0
N521 N 0.437 0.33407 0.35874 0.0
C522 C 0.41988 0.34184 0.37273 0.0
C523 C 0.39555 0.33595 0.36797 0.0
C524 C 0.38902 0.32242 0.34878 0.0
C525 C 0.40686 0.31502 0.33442 0.0
C526 C 0.43082 0.32144 0.34001 0.0
H527 H 0.42471 0.35228 0.38751 0.0
O528 O 0.47023 0.28702 0.40702 0.0
O529 O 0.47689 0.30871 0.37682 0.0
O530 O 0.48366 0.33789 0.41548 0.0
O531 O 0.46834 0.36104 0.38743 0.0
C532 C 0.40183 0.3012 0.31497 0.0
C533 C 0.42078 0.29378 0.30161 0.0
H534 H 0.46196 0.28177 0.28061 0.0
H535 H 0.50332 0.29362 0.29384 0.0
H536 H 0.38188 0.34165 0.37916 0.0
H537 H 0.37027 0.31761 0.34534 0.0
H538 H 0.3835 0.29587 0.31028 0.0
H539 H 0.41671 0.28288 0.28683 0.0
Mn540 Mn 0.53416 0.76155 0.16074 0.0
Mn541 Mn 0.49281 0.75413 0.11892 0.0
C542 C 0.527 0.72158 0.14474 0.0
C543 C 0.57381 0.76853 0.17548 0.0
C544 C 0.47894 0.76283 0.1664 0.0
O545 O 0.53094 0.79788 0.14809 0.0
O546 O 0.50453 0.78978 0.11978 0.0
C547 C 0.52327 0.76305 0.08067 0.0
N548 N 0.50804 0.7478 0.09179 0.0
C549 C 0.50897 0.71588 0.06356 0.0
C550 C 0.52457 0.7313 0.05177 0.0
C551 C 0.53178 0.75496 0.06039 0.0
C552 C 0.50091 0.72503 0.0836 0.0
H553 H 0.52889 0.78124 0.08723 0.0
C554 C 0.51861 0.80481 0.13086 0.0
O555 O 0.55486 0.77284 0.18669 0.0
O556 O 0.5698 0.7613 0.15526 0.0
N557 N 0.48065 0.72022 0.11617 0.0
C558 C 0.46723 0.70677 0.13045 0.0
C559 C 0.45953 0.68215 0.12481 0.0
C560 C 0.46561 0.67167 0.10453 0.0
C561 C 0.47937 0.68591 0.09008 0.0
C562 C 0.48644 0.71039 0.09654 0.0
H563 H 0.46258 0.71469 0.14609 0.0
O564 O 0.53547 0.72356 0.16484 0.0
O565 O 0.5221 0.74287 0.13504 0.0
O566 O 0.50046 0.76327 0.17459 0.0
O567 O 0.47444 0.76009 0.14581 0.0
C568 C 0.48686 0.67653 0.06975 0.0
C569 C 0.50161 0.69152 0.05649 0.0
H570 H 0.53134 0.72506 0.03621 0.0
H571 H 0.54392 0.76692 0.05144 0.0
H572 H 0.44901 0.67124 0.1361 0.0
H573 H 0.45984 0.65259 0.10034 0.0
H574 H 0.48173 0.65763 0.06436 0.0
H575 H 0.50759 0.68392 0.04108 0.0
Mn576 Mn 0.90553 0.00056 0.80023 0.0
Mn577 Mn 0.85583 0.98834 0.82864 0.0
C578 C 0.89039 0.95985 0.80221 0.0
C579 C 0.92304 0.01012 0.76703 0.0
C580 C 0.90488 -0.00018 0.8503 0.0
O581 O 0.89055 0.03556 0.80358 0.0
O582 O 0.85588 0.02427 0.81944 0.0
C583 C 0.81861 0.99489 0.79311 0.0
N584 N 0.82942 0.98013 0.80886 0.0
C585 C 0.80234 0.94545 0.80028 0.0
C586 C 0.7908 0.96036 0.78411 0.0
C587 C 0.79902 0.98515 0.78047 0.0
C588 C 0.82174 0.9562 0.81241 0.0
H589 H 0.82496 0.0139 0.79017 0.0
C590 C 0.86975 0.0407 0.81079 0.0
O591 O 0.93468 0.01393 0.78566 0.0
O592 O 0.90097 0.00226 0.76777 0.0
N593 N 0.85381 0.95381 0.83796 0.0
C594 C 0.86792 0.94138 0.85314 0.0
C595 C 0.8626 0.91606 0.85819 0.0
C596 C 0.8428 0.90385 0.84768 0.0
C597 C 0.8285 0.91706 0.83218 0.0
C598 C 0.83461 0.94228 0.82788 0.0
H599 H 0.88313 0.95068 0.86129 0.0
O600 O 0.91276 0.96356 0.7977 0.0
O601 O 0.87796 0.97999 0.80572 0.0
O602 O 0.91668 0.00081 0.83269 0.0
O603 O 0.88212 0.99608 0.85048 0.0
C604 C 0.80864 0.90608 0.82059 0.0
C605 C 0.79565 0.92021 0.80457 0.0
H606 H 0.77576 0.95288 0.77425 0.0
H607 H 0.79031 0.99671 0.76791 0.0
H608 H 0.87376 0.90598 0.87014 0.0
H609 H 0.83885 0.88427 0.85152 0.0
H610 H 0.80337 0.88666 0.82367 0.0
H611 H 0.78069 0.9114 0.79549 0.0
Mn612 Mn 0.76945 0.13443 0.50716 0.0
Mn613 Mn 0.76098 0.08856 0.46913 0.0
C614 C 0.73121 0.1187 0.49905 0.0
C615 C 0.77616 0.14766 0.54344 0.0
C616 C 0.77128 0.1434 0.45751 0.0
O617 O 0.80307 0.11957 0.50486 0.0
O618 O 0.79514 0.08801 0.48046 0.0
C619 C 0.7677 0.04358 0.49759 0.0
N620 N 0.75359 0.05736 0.48338 0.0
C621 C 0.72077 0.02766 0.4861 0.0
C622 C 0.73501 0.01307 0.50065 0.0
C623 C 0.75857 0.02108 0.50642 0.0
C624 C 0.73091 0.04978 0.47765 0.0
H625 H 0.78574 0.04976 0.50222 0.0
C626 C 0.80949 0.10038 0.49366 0.0
O627 O 0.78113 0.16225 0.52703 0.0
O628 O 0.76853 0.12497 0.53873 0.0
N629 N 0.72849 0.08712 0.45751 0.0
C630 C 0.71661 0.10411 0.44434 0.0
C631 C 0.6926 0.09927 0.43756 0.0
C632 C 0.68105 0.07702 0.44432 0.0
C633 C 0.69365 0.05979 0.45784 0.0
C634 C 0.71764 0.0655 0.4639 0.0
H635 H 0.72532 0.12133 0.43918 0.0
O636 O 0.73405 0.14123 0.5073 0.0
O637 O 0.75087 0.10656 0.49527 0.0
O638 O 0.77199 0.15169 0.47721 0.0
O639 O 0.76781 0.12006 0.45272 0.0
C640 C 0.68318 0.03745 0.46591 0.0
C641 C 0.69673 0.0214 0.48004 0.0
H642 H 0.72796 0.99582 0.50766 0.0
H643 H 0.76962 0.01 0.51774 0.0
H644 H 0.68294 0.11277 0.4273 0.0
H645 H 0.66245 0.07347 0.43921 0.0
H646 H 0.66464 0.03258 0.46157 0.0
H647 H 0.68838 0.00445 0.48637 0.0
Mn648 Mn 0.65293 0.02816 0.30521 0.0
Mn649 Mn 0.69547 0.03801 0.34509 0.0
C650 C 0.66501 0.06882 0.3145 0.0
C651 C 0.64312 0.02224 0.26793 0.0
C652 C 0.64402 0.02232 0.3542 0.0
O653 O 0.66901 0.9938 0.30821 0.0
O654 O 0.69877 0.00304 0.33331 0.0
C655 C 0.73882 0.03652 0.31822 0.0
N656 N 0.72453 0.04924 0.33215 0.0
C657 C 0.74999 0.08626 0.331 0.0
C658 C 0.76505 0.07348 0.31675 0.0
C659 C 0.75942 0.04852 0.31032 0.0
C660 C 0.72979 0.07327 0.33846 0.0
H661 H 0.73445 0.0174 0.31309 0.0
C662 C 0.68771 0.9878 0.31987 0.0
O663 O 0.62835 0.01534 0.28296 0.0
O664 O 0.66374 0.03146 0.27467 0.0
N665 N 0.69409 0.0714 0.35729 0.0
C666 C 0.67697 0.08156 0.37007 0.0
C667 C 0.67958 0.10665 0.37746 0.0
C668 C 0.69978 0.12101 0.37172 0.0
C669 C 0.71719 0.11014 0.35857 0.0
C670 C 0.71373 0.08497 0.35184 0.0
H671 H 0.66137 0.07066 0.3745 0.0
O672 O 0.6441 0.06486 0.30491 0.0
O673 O 0.67762 0.04876 0.31872 0.0
O674 O 0.63598 0.02267 0.33426 0.0
O675 O 0.66597 0.0272 0.35983 0.0
C676 C 0.73759 0.12345 0.35154 0.0
C677 C 0.75395 0.11153 0.33774 0.0
H678 H 0.78085 0.08273 0.31048 0.0
H679 H 0.77089 0.03859 0.29923 0.0
H680 H 0.66599 0.11495 0.38748 0.0
H681 H 0.70164 0.14042 0.37733 0.0
H682 H 0.7407 0.14296 0.35643 0.0
H683 H 0.76939 0.12206 0.3322 0.0
Mn684 Mn 0.77451 0.89759 0.02354 0.0
Mn685 Mn 0.80747 0.93356 0.99091 0.0
C686 C 0.81153 0.91225 0.03612 0.0
C687 C 0.74713 0.89398 0.05115 0.0
C688 C 0.79573 0.87804 0.98251 0.0
O689 O 0.75061 0.91089 1.00055 0.0
O690 O 0.77285 0.9415 0.98457 0.0
C691 C 0.7985 0.98554 0.00677 0.0
N692 N 0.81405 0.96622 0.00344 0.0
C693 C 0.84752 0.99091 0.01809 0.0
C694 C 0.83187 0.01115 0.02147 0.0
C695 C 0.80724 0.0084 0.01588 0.0
C696 C 0.83777 0.96861 0.00891 0.0
H697 H 0.77956 0.98344 0.00265 0.0
C698 C 0.75275 0.93013 0.98798 0.0
O699 O 0.75042 0.87553 0.03744 0.0
O700 O 0.75797 0.91525 0.04731 0.0
N701 N 0.84098 0.92698 0.99691 0.0
C702 C 0.85357 0.90542 0.99328 0.0
C703 C 0.87834 0.90475 0.99872 0.0
C704 C 0.88995 0.92626 0.00777 0.0
C705 C 0.87665 0.94825 0.01131 0.0
C706 C 0.85201 0.94781 0.00555 0.0
H707 H 0.84483 0.88883 0.98627 0.0
O708 O 0.80253 0.89186 0.04455 0.0
O709 O 0.79915 0.92173 0.01979 0.0
O710 O 0.78774 0.87338 0.00136 0.0
O711 O 0.8022 0.90015 0.9765 0.0
C712 C 0.88688 0.97057 0.02039 0.0
C713 C 0.87235 0.99193 0.02367 0.0
H714 H 0.83854 0.0288 0.02852 0.0
H715 H 0.79502 0.02385 0.01862 0.0
H716 H 0.88849 0.8877 0.9959 0.0
H717 H 0.90906 0.92566 0.01194 0.0
H718 H 0.9059 0.97152 0.02495 0.0
H719 H 0.88043 0.00898 0.03064 0.0
Mn720 Mn 0.27357 0.63296 0.00401 0.0
Mn721 Mn 0.26494 0.58743 0.96573 0.0
C722 C 0.23499 0.61873 0.99509 0.0
C723 C 0.27977 0.64544 0.04059 0.0
C724 C 0.27627 0.64216 0.95443 0.0
O725 O 0.3069 0.61732 0.00228 0.0
O726 O 0.29906 0.58621 0.97751 0.0
C727 C 0.2707 0.54186 0.99362 0.0
N728 N 0.257 0.55605 0.97939 0.0
C729 C 0.22424 0.52604 0.98034 0.0
C730 C 0.23806 0.51103 0.99489 0.0
C731 C 0.26138 0.51899 0.00156 0.0
C732 C 0.23459 0.54848 0.97273 0.0
H733 H 0.28857 0.54797 0.9989 0.0
C734 C 0.31334 0.59818 0.99107 0.0
O735 O 0.28546 0.66021 0.0245 0.0
O736 O 0.27171 0.62306 0.03538 0.0
N737 N 0.23265 0.58656 0.95364 0.0
C738 C 0.22083 0.60441 0.94136 0.0
C739 C 0.19678 0.60011 0.93445 0.0
C740 C 0.1852 0.5774 0.93997 0.0
C741 C 0.19771 0.55933 0.95266 0.0
C742 C 0.22166 0.56467 0.95913 0.0
H743 H 0.22955 0.62199 0.93717 0.0
O744 O 0.23856 0.64106 0.00353 0.0
O745 O 0.25427 0.60559 0.99174 0.0
O746 O 0.27713 0.65047 0.97414 0.0
O747 O 0.27234 0.61891 0.94967 0.0
C748 C 0.1871 0.53661 0.95976 0.0
C749 C 0.20036 0.51995 0.97355 0.0
H750 H 0.23086 0.49351 0.00124 0.0
H751 H 0.27211 0.50758 0.01288 0.0
H752 H 0.18711 0.61444 0.92515 0.0
H753 H 0.16658 0.57424 0.93471 0.0
H754 H 0.1686 0.53199 0.95505 0.0
H755 H 0.19187 0.50274 0.97919 0.0
Mn756 Mn 0.15547 0.52501 0.80948 0.0
Mn757 Mn 0.19925 0.53731 0.84772 0.0
C758 C 0.16651 0.56638 0.81742 0.0
C759 C 0.14386 0.51829 0.77262 0.0
C760 C 0.14915 0.5184 0.85873 0.0
O761 O 0.17318 0.49154 0.81228 0.0
O762 O 0.20438 0.50291 0.83525 0.0
C763 C 0.24251 0.53902 0.82067 0.0
N764 N 0.22751 0.55059 0.83471 0.0
C765 C 0.25152 0.58873 0.83482 0.0
C766 C 0.2673 0.57714 0.82048 0.0
C767 C 0.26275 0.55219 0.81336 0.0
C768 C 0.2318 0.57455 0.84179 0.0
H769 H 0.23897 0.51995 0.81499 0.0
C770 C 0.1932 0.48694 0.82252 0.0
O771 O 0.13031 0.51085 0.7884 0.0
O772 O 0.16446 0.52835 0.77835 0.0
N773 N 0.19592 0.5704 0.86008 0.0
C774 C 0.17763 0.57968 0.87198 0.0
C775 C 0.17852 0.60495 0.87911 0.0
C776 C 0.19831 0.62035 0.87417 0.0
C777 C 0.21687 0.61043 0.86182 0.0
C778 C 0.21496 0.58511 0.85508 0.0
H779 H 0.16232 0.56797 0.87578 0.0
O780 O 0.1452 0.56124 0.8091 0.0
O781 O 0.18007 0.54697 0.82165 0.0
O782 O 0.14001 0.51894 0.8392 0.0
O783 O 0.17111 0.52423 0.86331 0.0
C784 C 0.23684 0.62488 0.8554 0.0
C785 C 0.25418 0.61402 0.84195 0.0
H786 H 0.28278 0.58732 0.8146 0.0
H787 H 0.27476 0.54319 0.80217 0.0
H788 H 0.16396 0.61255 0.88839 0.0
H789 H 0.19889 0.63986 0.87968 0.0
H790 H 0.23883 0.64449 0.86041 0.0
H791 H 0.26924 0.62545 0.83683 0.0
Mn792 Mn 0.3031 0.44961 0.50979 0.0
Mn793 Mn 0.29173 0.49731 0.47419 0.0
C794 C 0.33021 0.48228 0.50649 0.0
C795 C 0.30078 0.43031 0.54393 0.0
C796 C 0.30512 0.4445 0.46002 0.0
O797 O 0.26693 0.44702 0.50387 0.0
O798 O 0.26087 0.48153 0.48242 0.0
C799 C 0.26693 0.53283 0.50329 0.0
N800 N 0.28544 0.52775 0.48992 0.0
C801 C 0.30243 0.56935 0.49579 0.0
C802 C 0.28347 0.57508 0.50953 0.0
C803 C 0.26566 0.55673 0.51331 0.0
C804 C 0.30263 0.54529 0.48611 0.0
H805 H 0.2533 0.51871 0.50634 0.0
C806 C 0.25326 0.46225 0.49302 0.0
O807 O 0.30364 0.41733 0.52613 0.0
O808 O 0.29868 0.45469 0.5419 0.0
N809 N 0.32058 0.51397 0.4655 0.0
C810 C 0.33842 0.50488 0.45293 0.0
C811 C 0.35801 0.52063 0.44812 0.0
C812 C 0.35905 0.54552 0.45626 0.0
C813 C 0.34043 0.55448 0.46909 0.0
C814 C 0.32122 0.53801 0.47313 0.0
H815 H 0.33776 0.48572 0.44673 0.0
O816 O 0.33749 0.46048 0.51391 0.0
O817 O 0.30761 0.48393 0.50088 0.0
O818 O 0.30903 0.43596 0.47931 0.0
O819 O 0.29817 0.46707 0.45617 0.0
C820 C 0.34042 0.57891 0.47841 0.0
C821 C 0.32144 0.58634 0.49174 0.0
H822 H 0.28254 0.59341 0.51743 0.0
H823 H 0.25105 0.56096 0.52398 0.0
H824 H 0.37234 0.51355 0.43826 0.0
H825 H 0.37433 0.55751 0.45273 0.0
H826 H 0.35509 0.59201 0.47566 0.0
H827 H 0.3218 0.60505 0.49905 0.0
Mn828 Mn 0.41803 0.50056 0.30243 0.0
Mn829 Mn 0.37554 0.48893 0.33924 0.0
C830 C 0.40697 0.45947 0.31033 0.0
C831 C 0.4289 0.50751 0.26633 0.0
C832 C 0.42632 0.50633 0.35189 0.0
O833 O 0.40087 0.53447 0.3048 0.0
O834 O 0.37094 0.52365 0.3273 0.0
C835 C 0.33215 0.48845 0.30956 0.0
N836 N 0.34693 0.47642 0.32444 0.0
C837 C 0.32229 0.43875 0.32252 0.0
C838 C 0.30674 0.45079 0.30726 0.0
C839 C 0.31173 0.47572 0.30072 0.0
C840 C 0.34235 0.45239 0.33077 0.0
H841 H 0.33597 0.50758 0.30445 0.0
C842 C 0.38172 0.53954 0.31502 0.0
O843 O 0.4428 0.51462 0.28286 0.0
O844 O 0.40823 0.49762 0.27084 0.0
N845 N 0.37823 0.45566 0.35153 0.0
C846 C 0.39577 0.44624 0.36538 0.0
C847 C 0.39379 0.42129 0.37308 0.0
C848 C 0.37376 0.40634 0.36655 0.0
C849 C 0.35596 0.41643 0.35227 0.0
C850 C 0.35886 0.44144 0.3452 0.0
H851 H 0.41117 0.45766 0.37048 0.0
O852 O 0.42782 0.46415 0.30222 0.0
O853 O 0.39373 0.47905 0.31386 0.0
O854 O 0.4346 0.50576 0.33265 0.0
O855 O 0.40445 0.50124 0.3561 0.0
C856 C 0.3356 0.40254 0.34459 0.0
C857 C 0.31884 0.41365 0.32964 0.0
H858 H 0.29101 0.44102 0.30035 0.0
H859 H 0.29987 0.48509 0.28888 0.0
H860 H 0.40766 0.41359 0.38402 0.0
H861 H 0.37228 0.38713 0.37251 0.0
H862 H 0.33278 0.38322 0.34992 0.0
H863 H 0.30344 0.40266 0.3236 0.0
C864 C 0.99401 0.00649 0.99773 0.0
N865 N 0.9736 0.00305 0.06365 0.0
C866 C 0.96125 0.02515 0.06236 0.0
C867 C 0.94102 0.02868 0.07495 0.0
C868 C 0.93295 0.00889 0.08836 0.0
C869 C 0.94729 0.98708 0.09044 0.0
C870 C 0.96761 0.98465 0.07802 0.0
Zn871 Zn 0.0026 0.99666 0.04541 0.0
C872 C 0.00647 0.9459 0.02936 0.0
N873 N 0.06605 0.98709 0.01062 0.0
C874 C 0.0747 0.00444 0.99642 0.0
C875 C 0.07845 0.96568 0.01582 0.0
C876 C 0.10149 0.96217 0.00823 0.0
C877 C 0.11192 0.98112 0.99553 0.0
C878 C 0.0978 0.0018 0.98859 0.0
Zn879 Zn 0.03615 0.99421 0.02735 0.0
O880 O 0.98308 0.00563 0.01576 0.0
C881 C 0.03115 0.04537 0.04232 0.0
O882 O 0.01662 0.00286 0.99783 0.0
H883 H 0.0712 0.9521 0.02714 0.0
H884 H 0.96667 0.0398 0.05115 0.0
H885 H 0.06438 0.0212 0.99243 0.0
O886 O 0.01268 0.03441 0.04954 0.0
O887 O 0.04608 0.03276 0.03152 0.0
H888 H 0.97812 0.96755 0.07929 0.0
O889 O 0.05572 0.98599 0.05701 0.0
O890 O 0.02233 0.98735 0.07493 0.0
O891 O 0.02582 0.95605 0.02308 0.0
O892 O 0.9921 0.95882 0.04044 0.0
C893 C 0.04498 0.98439 0.075 0.0
H894 H 0.93113 0.04617 0.07318 0.0
H895 H 0.94213 0.97097 0.1002 0.0
H896 H 0.11177 0.94589 0.01376 0.0
H897 H 0.10526 0.01701 0.97898 0.0
C898 C 0.32911 0.76401 0.26041 0.0
N899 N 0.26333 0.7353 0.23553 0.0
C900 C 0.26811 0.75005 0.21787 0.0
C901 C 0.26611 0.7402 0.19663 0.0
C902 C 0.25929 0.71481 0.19339 0.0
C903 C 0.25311 0.70037 0.21178 0.0
C904 C 0.25523 0.71107 0.23284 0.0
Zn905 Zn 0.27545 0.74871 0.26563 0.0
C906 C 0.30069 0.70817 0.29182 0.0
N907 N 0.30629 0.7775 0.32595 0.0
C908 C 0.31752 0.80042 0.3277 0.0
C909 C 0.29843 0.76535 0.34405 0.0
C910 C 0.29977 0.77712 0.36458 0.0
C911 C 0.3098 0.80157 0.3668 0.0
C912 C 0.31972 0.81271 0.34809 0.0
Zn913 Zn 0.29412 0.76353 0.29605 0.0
O914 O 0.30971 0.75591 0.25098 0.0
C915 C 0.26875 0.80393 0.27015 0.0
O916 O 0.32874 0.76979 0.28078 0.0
H917 H 0.28944 0.74719 0.34235 0.0
H918 H 0.27511 0.76903 0.22028 0.0
H919 H 0.32353 0.80984 0.31308 0.0
O920 O 0.26298 0.78543 0.25767 0.0
O921 O 0.28253 0.80024 0.28693 0.0
H922 H 0.25174 0.69957 0.24707 0.0
O923 O 0.2592 0.75722 0.31048 0.0
O924 O 0.24119 0.74189 0.28069 0.0
O925 O 0.30549 0.72655 0.3048 0.0
O926 O 0.28807 0.71208 0.27433 0.0
C927 C 0.24015 0.74857 0.3008 0.0
H928 H 0.2714 0.75195 0.18303 0.0
H929 H 0.24752 0.68078 0.20999 0.0
H930 H 0.29153 0.76765 0.37818 0.0
H931 H 0.32826 0.83117 0.34892 0.0
C932 C 0.51392 0.0268 0.56935 0.0
N933 N 0.54675 0.96239 0.54399 0.0
C934 C 0.55343 0.95995 0.56558 0.0
C935 C 0.55314 0.93625 0.57556 0.0
C936 C 0.54692 0.91459 0.56301 0.0
C937 C 0.54307 0.91754 0.54017 0.0
C938 C 0.54247 0.94172 0.53107 0.0
Zn939 Zn 0.53603 0.99689 0.53262 0.0
C940 C 0.48246 0.99382 0.52096 0.0
N941 N 0.5091 0.06754 0.51069 0.0
C942 C 0.51656 0.08798 0.52283 0.0
C943 C 0.50057 0.07007 0.48959 0.0
C944 C 0.50171 0.09353 0.47919 0.0
C945 C 0.51135 0.11444 0.49081 0.0
C946 C 0.51768 0.11181 0.51318 0.0
Zn947 Zn 0.51943 0.033 0.52193 0.0
O948 O 0.52552 0.0069 0.56497 0.0
C949 C 0.57317 0.03578 0.53347 0.0
O950 O 0.5092 0.04248 0.55406 0.0
H951 H 0.49474 0.05356 0.48025 0.0
H952 H 0.55722 0.97655 0.57554 0.0
H953 H 0.52372 0.08549 0.53942 0.0
O954 O 0.5709 0.01245 0.53806 0.0
O955 O 0.55464 0.04832 0.52752 0.0
H956 H 0.53704 0.94394 0.51396 0.0
O957 O 0.52957 0.02321 0.48959 0.0
O958 O 0.54628 0.98774 0.50033 0.0
O959 O 0.48459 0.01725 0.51656 0.0
O960 O 0.50104 0.98134 0.52687 0.0
C961 C 0.54131 0.00345 0.4851 0.0
H962 H 0.55625 0.93547 0.59317 0.0
H963 H 0.53933 0.90155 0.52943 0.0
H964 H 0.49637 0.09503 0.46195 0.0
H965 H 0.52531 0.12751 0.52261 0.0
C966 C 0.30356 0.23217 0.74944 0.0
N967 N 0.26463 0.24939 0.80421 0.0
C968 C 0.25256 0.22736 0.79987 0.0
C969 C 0.24619 0.21156 0.817 0.0
C970 C 0.25219 0.21871 0.8387 0.0
C971 C 0.26299 0.24241 0.84281 0.0
C972 C 0.26923 0.25754 0.82515 0.0
Zn973 Zn 0.2787 0.26835 0.77891 0.0
C974 C 0.33162 0.28169 0.78956 0.0
N975 N 0.30914 0.30635 0.725 0.0
C976 C 0.30535 0.29488 0.70514 0.0
C977 C 0.31658 0.33092 0.72646 0.0
C978 C 0.3186 0.34549 0.70741 0.0
C979 C 0.313 0.33452 0.68678 0.0
C980 C 0.30745 0.30857 0.68579 0.0
Zn981 Zn 0.29644 0.28754 0.75157 0.0
O982 O 0.2902 0.23382 0.76584 0.0
C983 C 0.24311 0.27345 0.74179 0.0
O984 O 0.30941 0.25221 0.73936 0.0
H985 H 0.31939 0.33974 0.7424 0.0
H986 H 0.249 0.22137 0.78306 0.0
H987 H 0.29905 0.2755 0.70424 0.0
O988 O 0.24523 0.2652 0.76132 0.0
O989 O 0.26165 0.28311 0.73315 0.0
H990 H 0.27888 0.27513 0.82814 0.0
O991 O 0.28376 0.32247 0.76464 0.0
O992 O 0.26715 0.30271 0.79194 0.0
O993 O 0.33056 0.29156 0.77039 0.0
O994 O 0.31266 0.27143 0.7968 0.0
C995 C 0.27162 0.32316 0.78196 0.0
H996 H 0.2378 0.1934 0.81332 0.0
H997 H 0.26813 0.24834 0.85938 0.0
H998 H 0.32294 0.36544 0.70895 0.0
H999 H 0.30357 0.29916 0.67022 0.0
C1000 C 0.07081 0.00073 0.53829 0.0
N1001 N 0.03965 0.03953 0.48477 0.0
C1002 C 0.06217 0.04939 0.48283 0.0
C1003 C 0.07186 0.05223 0.46208 0.0
C1004 C 0.05816 0.04501 0.44318 0.0
C1005 C 0.03422 0.0371 0.44567 0.0
C1006 C 0.02536 0.03429 0.46668 0.0
Zn1007 Zn 0.02929 0.02515 0.51422 0.0
C1008 C 0.01779 0.96864 0.50702 0.0
N1009 N 0.00813 0.99068 0.57401 0.0
C1010 C 0.02233 0.99891 0.59128 0.0
C1011 C 0.98689 0.97855 0.57735 0.0
C1012 C 0.97866 0.97563 0.59874 0.0
C1013 C 0.99215 0.98583 0.61681 0.0
C1014 C 0.01461 0.99695 0.6127 0.0
Zn1015 Zn 0.01787 0.00443 0.544 0.0
O1016 O 0.06514 0.01386 0.52146 0.0
C1017 C 0.0297 0.06101 0.55112 0.0
O1018 O 0.05455 0.99468 0.55151 0.0
H1019 H 0.97574 0.97234 0.56341 0.0
H1020 H 0.07329 0.05334 0.49739 0.0
H1021 H 0.03898 0.00886 0.5884 0.0
O1022 O 0.03565 0.0608 0.53109 0.0
O1023 O 0.02207 0.04066 0.5596 0.0
H1024 H 0.00761 0.02621 0.46851 0.0
O1025 O 0.98127 0.0143 0.5359 0.0
O1026 O 0.99315 0.0359 0.50741 0.0
O1027 O 0.01398 0.96834 0.52757 0.0
O1028 O 0.0232 0.98944 0.49789 0.0
C1029 C 0.97629 0.02853 0.51952 0.0
H1030 H 0.09044 0.0583 0.46104 0.0
H1031 H 0.02281 0.03186 0.43157 0.0
H1032 H 0.9615 0.96633 0.60092 0.0
H1033 H 0.02566 0.00567 0.62564 0.0
C1034 C 0.26278 0.78999 0.73624 0.0
N1035 N 0.31532 0.74104 0.7623 0.0
C1036 C 0.31329 0.72821 0.74293 0.0
C1037 C 0.33322 0.71595 0.73463 0.0
C1038 C 0.35538 0.7167 0.74652 0.0
C1039 C 0.35659 0.72915 0.76696 0.0
C1040 C 0.33633 0.74142 0.77447 0.0
Zn1041 Zn 0.28703 0.76144 0.77289 0.0
C1042 C 0.30182 0.81496 0.78361 0.0
N1043 N 0.22854 0.80457 0.79565 0.0
C1044 C 0.20769 0.8031 0.78329 0.0
C1045 C 0.22934 0.81596 0.81574 0.0
C1046 C 0.20822 0.82493 0.82472 0.0
C1047 C 0.18623 0.8223 0.81279 0.0
C1048 C 0.18627 0.81202 0.79152 0.0
Zn1049 Zn 0.25731 0.78485 0.78503 0.0
O1050 O 0.27924 0.77392 0.74027 0.0
C1051 C 0.24225 0.73158 0.7746 0.0
O1052 O 0.24996 0.79744 0.75188 0.0
H1053 H 0.24613 0.81692 0.82527 0.0
H1054 H 0.29638 0.72808 0.73357 0.0
H1055 H 0.20737 0.79364 0.76752 0.0
O1056 O 0.26386 0.72958 0.76868 0.0
O1057 O 0.23475 0.75285 0.78108 0.0
H1058 H 0.33754 0.75174 0.78983 0.0
O1059 O 0.26526 0.77199 0.81795 0.0
O1060 O 0.29447 0.74898 0.80556 0.0
O1061 O 0.28001 0.81646 0.7891 0.0
O1062 O 0.30991 0.79382 0.77723 0.0
C1063 C 0.28187 0.7559 0.82149 0.0
H1064 H 0.33146 0.70689 0.71868 0.0
H1065 H 0.37314 0.72986 0.77689 0.0
H1066 H 0.20893 0.8329 0.84114 0.0
H1067 H 0.16966 0.80928 0.78191 0.0
C1068 C 0.54404 0.96641 0.04332 0.0
N1069 N 0.57083 0.03623 0.06599 0.0
C1070 C 0.55637 0.0317 0.08318 0.0
C1071 C 0.56506 0.03457 0.10474 0.0
C1072 C 0.58908 0.04184 0.10897 0.0
C1073 C 0.60353 0.04731 0.09102 0.0
C1074 C 0.59395 0.04445 0.0695 0.0
Zn1075 Zn 0.55736 0.02327 0.03606 0.0
C1076 C 0.5939 -9e-05 0.00847 0.0
N1077 N 0.52629 0.98944 0.97821 0.0
C1078 C 0.50514 0.97629 0.97685 0.0
C1079 C 0.53685 0.99812 0.95983 0.0
C1080 C 0.52531 0.99547 0.9393 0.0
C1081 C 0.50271 0.98337 0.93739 0.0
C1082 C 0.49306 0.97285 0.95646 0.0
Zn1083 Zn 0.54074 0.00263 0.00743 0.0
O1084 O 0.55197 0.98688 0.0521 0.0
C1085 C 0.50398 0.02666 0.03323 0.0
O1086 O 0.538 0.96649 0.02294 0.0
H1087 H 0.55356 0.0087 0.96121 0.0
H1088 H 0.53841 0.02417 0.08034 0.0
H1089 H 0.497 0.96963 0.99168 0.0
O1090 O 0.52224 0.03531 0.04395 0.0
O1091 O 0.50678 0.01139 0.01749 0.0
H1092 H 0.60534 0.04754 0.05569 0.0
O1093 O 0.54303 0.03946 0.99251 0.0
O1094 O 0.56218 0.05924 0.01965 0.0
O1095 O 0.57498 0.99391 0.99738 0.0
O1096 O 0.59218 0.0118 0.02655 0.0
C1097 C 0.55259 0.05969 1.00028 0.0
H1098 H 0.55341 0.02955 0.11798 0.0
H1099 H 0.62219 0.05302 0.09359 0.0
H1100 H 0.53345 0.00434 0.92535 0.0
H1101 H 0.47595 0.9629 0.95582 0.0
C1102 C 0.26312 0.21297 0.27177 0.0
N1103 N 0.3187 0.23512 0.2313 0.0
C1104 C 0.32559 0.21052 0.23288 0.0
C1105 C 0.33213 0.19731 0.21426 0.0
C1106 C 0.33112 0.20937 0.19374 0.0
C1107 C 0.32573 0.23531 0.19283 0.0
C1108 C 0.31958 0.24793 0.21198 0.0
Zn1109 Zn 0.30232 0.2503 0.25748 0.0
C1110 C 0.25799 0.27696 0.24445 0.0
N1111 N 0.26645 0.27688 0.31333 0.0
C1112 C 0.27077 0.26743 0.33389 0.0
C1113 C 0.25914 0.30122 0.31035 0.0
C1114 C 0.25874 0.31784 0.32806 0.0
C1115 C 0.26629 0.30944 0.34898 0.0
C1116 C 0.27104 0.2836 0.35209 0.0
Zn1117 Zn 0.28176 0.26038 0.28681 0.0
O1118 O 0.27969 0.21761 0.2584 0.0
C1119 C 0.32615 0.23343 0.29942 0.0
O1120 O 0.2595 0.22835 0.28738 0.0
H1121 H 0.25642 0.30883 0.29402 0.0
H1122 H 0.32459 0.20061 0.24835 0.0
H1123 H 0.27645 0.24804 0.33603 0.0
O1124 O 0.3282 0.23371 0.27874 0.0
O1125 O 0.30751 0.24274 0.30762 0.0
H1126 H 0.31402 0.26749 0.21114 0.0
O1127 O 0.30454 0.2922 0.28641 0.0
O1128 O 0.32442 0.28321 0.25695 0.0
O1129 O 0.25616 0.27742 0.26518 0.0
O1130 O 0.27641 0.26705 0.23633 0.0
C1131 C 0.32096 0.29764 0.27325 0.0
H1132 H 0.33659 0.17745 0.21573 0.0
H1133 H 0.32457 0.24531 0.17732 0.0
H1134 H 0.25513 0.33766 0.32495 0.0
H1135 H 0.27663 0.27642 0.36812 0.0
C1136 C 0.57641 0.50088 0.03853 0.0
N1137 N 0.54569 0.54109 0.98555 0.0
C1138 C 0.56825 0.55094 0.98385 0.0
C1139 C 0.57816 0.55382 0.96319 0.0
C1140 C 0.56461 0.54659 0.94423 0.0
C1141 C 0.5406 0.53885 0.94646 0.0
C1142 C 0.53153 0.53603 0.96735 0.0
Zn1143 Zn 0.53491 0.52607 0.01452 0.0
C1144 C 0.52297 0.46967 0.00586 0.0
N1145 N 0.51236 0.48996 0.07295 0.0
C1146 C 0.52722 0.49521 0.09066 0.0
C1147 C 0.48952 0.48122 0.07558 0.0
C1148 C 0.48023 0.47959 0.09664 0.0
C1149 C 0.49464 0.48708 0.115 0.0
C1150 C 0.51876 0.49372 0.11187 0.0
Zn1151 Zn 0.52301 0.5045 0.04358 0.0
O1152 O 0.57095 0.51485 0.02215 0.0
C1153 C 0.53487 0.56094 0.05213 0.0
O1154 O 0.55982 0.49392 0.05112 0.0
H1155 H 0.47788 0.47738 0.06132 0.0
H1156 H 0.57925 0.55474 0.99852 0.0
H1157 H 0.5451 0.50269 0.0884 0.0
O1158 O 0.54067 0.56132 0.03206 0.0
O1159 O 0.52761 0.54022 0.06029 0.0
H1160 H 0.51377 0.52791 0.96898 0.0
O1161 O 0.48651 0.51526 0.03535 0.0
O1162 O 0.49864 0.53696 0.00711 0.0
O1163 O 0.51836 0.46899 0.02625 0.0
O1164 O 0.52923 0.49067 0.9975 0.0
C1165 C 0.48163 0.52956 0.01902 0.0
H1166 H 0.59677 0.55982 0.96224 0.0
H1167 H 0.52936 0.53359 0.93225 0.0
H1168 H 0.4615 0.47436 0.09835 0.0
H1169 H 0.53061 0.49918 0.12561 0.0
C1170 C 0.76823 0.29099 0.24068 0.0
N1171 N 0.82093 0.24466 0.27034 0.0
C1172 C 0.82117 0.23208 0.25085 0.0
C1173 C 0.84247 0.22141 0.2438 0.0
C1174 C 0.86364 0.2234 0.25711 0.0
C1175 C 0.86236 0.23504 0.27779 0.0
C1176 C 0.84085 0.24588 0.28397 0.0
Zn1177 Zn 0.79137 0.26445 0.27875 0.0
C1178 C 0.80501 0.31814 0.28839 0.0
N1179 N 0.73072 0.3073 0.29817 0.0
C1180 C 0.71141 0.30765 0.2838 0.0
C1181 C 0.72964 0.31817 0.3184 0.0
C1182 C 0.70816 0.32882 0.32522 0.0
C1183 C 0.68765 0.32875 0.31095 0.0
C1184 C 0.68984 0.31868 0.28971 0.0
Zn1185 Zn 0.76058 0.28746 0.28949 0.0
O1186 O 0.78464 0.27507 0.24537 0.0
C1187 C 0.74784 0.23313 0.27967 0.0
O1188 O 0.75509 0.29892 0.2559 0.0
H1189 H 0.74518 0.31781 0.3296 0.0
H1190 H 0.80508 0.23122 0.24032 0.0
H1191 H 0.71241 0.29872 0.26788 0.0
O1192 O 0.76994 0.23231 0.27512 0.0
O1193 O 0.7386 0.2542 0.28485 0.0
H1194 H 0.84036 0.25608 0.29935 0.0
O1195 O 0.76671 0.27552 0.32283 0.0
O1196 O 0.79752 0.25374 0.31206 0.0
O1197 O 0.78323 0.32015 0.29397 0.0
O1198 O 0.81282 0.2969 0.28223 0.0
C1199 C 0.78373 0.26019 0.32727 0.0
H1200 H 0.84254 0.21292 0.2276 0.0
H1201 H 0.87804 0.23661 0.28881 0.0
H1202 H 0.70748 0.33603 0.34184 0.0
H1203 H 0.6749 0.31871 0.27781 0.0
C1204 C 0.02935 0.47239 0.5496 0.0
N1205 N 0.06016 0.53937 0.57395 0.0
C1206 C 0.04594 0.53493 0.59133 0.0
C1207 C 0.05538 0.5363 0.61281 0.0
C1208 C 0.07985 0.54209 0.61668 0.0
C1209 C 0.09392 0.5479 0.59854 0.0
C1210 C 0.08364 0.54645 0.57719 0.0
Zn1211 Zn 0.04628 0.52751 0.5438 0.0
C1212 C 0.08302 0.49964 0.51863 0.0
N1213 N 0.01679 0.49643 0.48359 0.0
C1214 C 0.99355 0.48811 0.48185 0.0
C1215 C 0.02955 0.50127 0.46535 0.0
C1216 C 0.01854 0.4994 0.44443 0.0
C1217 C 0.99408 0.49274 0.44223 0.0
C1218 C 0.98176 0.48622 0.46121 0.0
Zn1219 Zn 0.03121 0.5087 0.51331 0.0
O1220 O 0.03863 0.49179 0.55908 0.0
C1221 C 0.99422 0.5357 0.53861 0.0
O1222 O 0.02348 0.47357 0.52921 0.0
H1223 H 0.04786 0.50827 0.46704 0.0
H1224 H 0.02756 0.52854 0.58859 0.0
H1225 H 0.98367 0.48441 0.49651 0.0
O1226 O 0.01193 0.54155 0.55137 0.0
O1227 O 0.99751 0.52226 0.52171 0.0
H1228 H 0.09478 0.54959 0.56322 0.0
O1229 O 0.03897 0.54414 0.49793 0.0
O1230 O 0.05373 0.56301 0.52766 0.0
O1231 O 0.06514 0.49496 0.50565 0.0
O1232 O 0.0802 0.51319 0.53562 0.0
C1233 C 0.04798 0.56382 0.50717 0.0
H1234 H 0.04391 0.53122 0.62615 0.0
H1235 H 0.11283 0.55269 0.60078 0.0
H1236 H 0.02865 0.5048 0.43026 0.0
H1237 H 0.96294 0.48071 0.46018 0.0
C1238 C 0.80268 0.73145 0.2583 0.0
N1239 N 0.76746 0.74732 0.31519 0.0
C1240 C 0.75852 0.7236 0.31145 0.0
C1241 C 0.76177 0.70487 0.32734 0.0
C1242 C 0.77413 0.71084 0.34721 0.0
C1243 C 0.78019 0.73624 0.35168 0.0
C1244 C 0.77669 0.75434 0.33528 0.0
Zn1245 Zn 0.77713 0.76756 0.28861 0.0
C1246 C 0.83041 0.7839 0.29574 0.0
N1247 N 0.80237 0.80409 0.23202 0.0
C1248 C 0.79781 0.79115 0.21297 0.0
C1249 C 0.80563 0.82966 0.23206 0.0
C1250 C 0.80164 0.84343 0.21268 0.0
C1251 C 0.79467 0.83057 0.19324 0.0
C1252 C 0.79405 0.80404 0.19332 0.0
Zn1253 Zn 0.79345 0.78535 0.25981 0.0
O1254 O 0.78991 0.73336 0.27508 0.0
C1255 C 0.74009 0.76876 0.25282 0.0
O1256 O 0.80764 0.75121 0.24757 0.0
H1257 H 0.80916 0.83964 0.24737 0.0
H1258 H 0.75138 0.71842 0.29528 0.0
H1259 H 0.79442 0.77102 0.2132 0.0
O1260 O 0.74239 0.76179 0.27277 0.0
O1261 O 0.75839 0.77809 0.24365 0.0
H1262 H 0.78368 0.77332 0.33785 0.0
O1263 O 0.77925 0.81938 0.27275 0.0
O1264 O 0.7645 0.80168 0.30199 0.0
O1265 O 0.82825 0.7922 0.2761 0.0
O1266 O 0.81218 0.77365 0.3043 0.0
C1267 C 0.76782 0.82129 0.2904 0.0
H1268 H 0.75674 0.68555 0.32323 0.0
H1269 H 0.78915 0.74171 0.36708 0.0
H1270 H 0.80257 0.86391 0.21317 0.0
H1271 H 0.7884 0.79336 0.17881 0.0
C1272 C 0.83043 0.27006 0.76178 0.0
N1273 N 0.76401 0.24364 0.73655 0.0
C1274 C 0.76969 0.25766 0.7187 0.0
C1275 C 0.76724 0.24743 0.69761 0.0
C1276 C 0.75902 0.22241 0.69476 0.0
C1277 C 0.75192 0.20885 0.71334 0.0
C1278 C 0.75453 0.21991 0.73421 0.0
Zn1279 Zn 0.7764 0.25675 0.76663 0.0
C1280 C 0.80031 0.21522 0.79266 0.0
N1281 N 0.80776 0.28368 0.82742 0.0
C1282 C 0.81952 0.30628 0.82945 0.0
C1283 C 0.79957 0.27149 0.84538 0.0
C1284 C 0.8012 0.28292 0.86605 0.0
C1285 C 0.81188 0.30704 0.86859 0.0
C1286 C 0.82204 0.3182 0.85 0.0
Zn1287 Zn 0.7954 0.27034 0.79734 0.0
O1288 O 0.81091 0.2623 0.7524 0.0
C1289 C 0.77158 0.31193 0.77163 0.0
O1290 O 0.83015 0.27622 0.78208 0.0
H1291 H 0.79017 0.25359 0.84347 0.0
H1292 H 0.77767 0.27625 0.72087 0.0
H1293 H 0.82577 0.31576 0.81495 0.0
O1294 O 0.76578 0.29405 0.75845 0.0
O1295 O 0.78441 0.30716 0.78879 0.0
H1296 H 0.75027 0.20901 0.74861 0.0
O1297 O 0.76022 0.26423 0.81168 0.0
O1298 O 0.74194 0.25138 0.78114 0.0
O1299 O 0.80635 0.23333 0.80551 0.0
O1300 O 0.7872 0.21966 0.77557 0.0
C1301 C 0.74096 0.25687 0.80149 0.0
H1302 H 0.77323 0.25848 0.68383 0.0
H1303 H 0.74523 0.1896 0.71184 0.0
H1304 H 0.79273 0.27346 0.87953 0.0
H1305 H 0.83107 0.3364 0.85105 0.0
C1306 C 0.73377 0.72363 0.75255 0.0
N1307 N 0.78065 0.75465 0.70842 0.0
C1308 C 0.78816 0.73042 0.70586 0.0
C1309 C 0.79055 0.72025 0.68503 0.0
C1310 C 0.78502 0.735 0.66642 0.0
C1311 C 0.77848 0.76041 0.66941 0.0
C1312 C 0.77643 0.76995 0.69075 0.0
Zn1313 Zn 0.77039 0.76355 0.73931 0.0
C1314 C 0.72479 0.79329 0.73875 0.0
N1315 N 0.74547 0.77459 0.80346 0.0
C1316 C 0.74786 0.75529 0.81815 0.0
C1317 C 0.74183 0.79879 0.81016 0.0
C1318 C 0.74272 0.80466 0.83251 0.0
C1319 C 0.74778 0.78547 0.84783 0.0
C1320 C 0.7494 0.7604 0.84061 0.0
Zn1321 Zn 0.75509 0.76813 0.77212 0.0
O1322 O 0.7487 0.73006 0.73822 0.0
C1323 C 0.8007 0.73891 0.77349 0.0
O1324 O 0.73222 0.73683 0.76984 0.0
H1325 H 0.74024 0.81383 0.79817 0.0
H1326 H 0.7907 0.71823 0.71997 0.0
H1327 H 0.75066 0.73618 0.81244 0.0
O1328 O 0.8006 0.74388 0.75311 0.0
O1329 O 0.78305 0.74572 0.78461 0.0
H1330 H 0.7702 0.78907 0.69314 0.0
O1331 O 0.77858 0.79956 0.7743 0.0
O1332 O 0.79154 0.79678 0.74067 0.0
O1333 O 0.72705 0.7905 0.75944 0.0
O1334 O 0.74047 0.78392 0.72642 0.0
C1335 C 0.79193 0.80773 0.7593 0.0
H1336 H 0.79508 0.70043 0.68362 0.0
H1337 H 0.77416 0.77246 0.65546 0.0
H1338 H 0.7416 0.82425 0.83764 0.0
H1339 H 0.75329 0.74522 0.85211 0.0
C1340 C 0.52546 0.52319 0.4914 0.0
N1341 N 0.50028 0.53959 0.55283 0.0
C1342 C 0.49958 0.56383 0.54537 0.0
C1343 C 0.47969 0.57894 0.54909 0.0
C1344 C 0.45989 0.56843 0.5596 0.0
C1345 C 0.46268 0.54461 0.56978 0.0
C1346 C 0.48315 0.53039 0.56606 0.0
Zn1347 Zn 0.5244 0.5158 0.53975 0.0
C1348 C 0.50372 0.46799 0.52413 0.0
N1349 N 0.57715 0.46984 0.51067 0.0
C1350 C 0.57392 0.46292 0.48919 0.0
C1351 C 0.59872 0.46681 0.52155 0.0
C1352 C 0.61882 0.45979 0.5101 0.0
C1353 C 0.61677 0.45673 0.48717 0.0
C1354 C 0.59375 0.45649 0.47693 0.0
Zn1355 Zn 0.55248 0.49236 0.52487 0.0
O1356 O 0.51531 0.53061 0.50856 0.0
C1357 C 0.57309 0.54047 0.54007 0.0
O1358 O 0.54294 0.50792 0.49333 0.0
H1359 H 0.60104 0.47256 0.53854 0.0
H1360 H 0.51339 0.57072 0.53479 0.0
H1361 H 0.55648 0.46496 0.48095 0.0
O1362 O 0.55133 0.54311 0.5452 0.0
O1363 O 0.57959 0.5204 0.5306 0.0
H1364 H 0.48421 0.5111 0.57192 0.0
O1365 O 0.56125 0.47748 0.55623 0.0
O1366 O 0.53318 0.50027 0.57113 0.0
O1367 O 0.52564 0.46467 0.51961 0.0
O1368 O 0.49745 0.48825 0.53352 0.0
C1369 C 0.55033 0.48456 0.57314 0.0
H1370 H 0.47862 0.59743 0.54147 0.0
H1371 H 0.44806 0.53553 0.57811 0.0
H1372 H 0.63627 0.4604 0.51864 0.0
H1373 H 0.59151 0.45416 0.45928 0.0
C1374 C 0.01636 0.53225 0.06915 0.0
N1375 N 0.0628 0.47297 0.05751 0.0
C1376 C 0.07323 0.48114 0.07685 0.0
C1377 C 0.08063 0.46376 0.09282 0.0
C1378 C 0.07776 0.4379 0.08847 0.0
C1379 C 0.06918 0.42995 0.06759 0.0
C1380 C 0.06152 0.44799 0.05226 0.0
Zn1381 Zn 0.04431 0.49839 0.03894 0.0
C1382 C 0.99299 0.48113 0.02973 0.0
N1383 N 0.00432 0.55264 0.00263 0.0
C1384 C 0.0096 0.5775 0.00615 0.0
C1385 C 0.99299 0.54452 0.98366 0.0
C1386 C 0.98885 0.56135 0.96634 0.0
C1387 C 0.99666 0.58644 0.96878 0.0
C1388 C 0.00606 0.59486 0.9892 0.0
Zn1389 Zn 0.02198 0.52684 0.02153 0.0
O1390 O 0.03151 0.51445 0.06819 0.0
C1391 C 0.07353 0.54373 0.03045 0.0
O1392 O 0.00894 0.54274 0.05137 0.0
H1393 H 0.9893 0.52458 0.98114 0.0
H1394 H 0.07419 0.50114 0.08058 0.0
H1395 H 0.01866 0.58344 0.02134 0.0
O1396 O 0.07479 0.52236 0.03984 0.0
O1397 O 0.05341 0.55092 0.02218 0.0
H1398 H 0.053 0.44202 0.03684 0.0
O1399 O 0.03471 0.51096 0.99232 0.0
O1400 O 0.05729 0.48268 0.00907 0.0
O1401 O 0.99153 0.50258 0.02044 0.0
O1402 O 0.01304 0.47412 0.03838 0.0
C1403 C 0.04997 0.4933 0.99134 0.0
H1404 H 0.0871 0.4704 0.10883 0.0
H1405 H 0.06644 0.41005 0.06388 0.0
H1406 H 0.98155 0.55443 0.95069 0.0
H1407 H 0.01207 0.61427 0.9915 0.0
H1408 H 0.07275 0.19667 0.09364 0.0
H1409 H 0.03513 0.15105 0.14028 0.0
H1410 H 0.0678 0.16269 0.06597 0.0
H1411 H 0.03003 0.11741 0.1129 0.0
H1412 H 0.99791 0.07873 0.05483 0.0
H1413 H 0.00538 0.11766 0.07486 0.0
H1414 H 0.08145 0.11188 0.06403 0.0
H1415 H 0.07415 0.07165 0.04438 0.0
C1416 C 0.06326 0.17943 0.09778 0.0
C1417 C 0.05351 0.17649 0.11859 0.0
C1418 C 0.06067 0.16007 0.08216 0.0
C1419 C 0.04826 0.13778 0.08734 0.0
C1420 C 0.03931 0.13468 0.10847 0.0
C1421 C 0.04219 0.15378 0.12407 0.0
C1422 C 0.01621 0.08596 0.0562 0.0
C1423 C 0.03555 0.07191 0.04853 0.0
C1424 C 0.02041 0.10841 0.06752 0.0
C1425 C 0.04392 0.11758 0.07103 0.0
C1426 C 0.06313 0.10505 0.06142 0.0
C1427 C 0.05896 0.08215 0.05021 0.0
H1428 H 0.0894 0.73828 0.34213 0.0
H1429 H 0.12608 0.78159 0.39337 0.0
H1430 H 0.12722 0.73234 0.32398 0.0
H1431 H 0.16396 0.77701 0.37464 0.0
H1432 H 0.23367 0.75139 0.34526 0.0
H1433 H 0.19619 0.75349 0.36468 0.0
H1434 H 0.15608 0.74909 0.30257 0.0
H1435 H 0.19369 0.74557 0.28342 0.0
C1436 C 0.10559 0.7467 0.34951 0.0
C1437 C 0.10454 0.76041 0.36931 0.0
C1438 C 0.12746 0.7435 0.3389 0.0
C1439 C 0.14916 0.75431 0.34746 0.0
C1440 C 0.14804 0.76791 0.36745 0.0
C1441 C 0.12616 0.77073 0.37826 0.0
C1442 C 0.21683 0.75057 0.33574 0.0
C1443 C 0.21688 0.74814 0.31268 0.0
C1444 C 0.19513 0.75208 0.34693 0.0
C1445 C 0.17257 0.75167 0.33547 0.0
C1446 C 0.17274 0.74902 0.31233 0.0
C1447 C 0.19447 0.74708 0.30118 0.0
H1448 H 0.48735 0.7691 0.60524 0.0
H1449 H 0.55637 0.77633 0.63952 0.0
H1450 H 0.49154 0.81216 0.59131 0.0
H1451 H 0.56205 0.81759 0.624 0.0
H1452 H 0.56625 0.89659 0.60246 0.0
H1453 H 0.55569 0.85862 0.6215 0.0
H1454 H 0.5095 0.83574 0.56606 0.0
H1455 H 0.51674 0.87569 0.54875 0.0
C1456 C 0.50332 0.78003 0.60983 0.0
C1457 C 0.52135 0.76965 0.62362 0.0
C1458 C 0.50602 0.80457 0.60159 0.0
C1459 C 0.52733 0.81867 0.60619 0.0
C1460 C 0.54507 0.80808 0.62039 0.0
C1461 C 0.5419 0.78414 0.62929 0.0
C1462 C 0.5533 0.88394 0.59446 0.0
C1463 C 0.54249 0.8897 0.57384 0.0
C1464 C 0.54759 0.86157 0.60529 0.0
C1465 C 0.53183 0.84355 0.59541 0.0
C1466 C 0.52134 0.84909 0.57462 0.0
C1467 C 0.52619 0.87198 0.56423 0.0
H1468 H 0.48227 0.26972 0.84152 0.0
H1469 H 0.4383 0.27393 0.89848 0.0
H1470 H 0.44597 0.27269 0.81759 0.0
H1471 H 0.40253 0.2777 0.87487 0.0
H1472 H 0.33921 0.25866 0.82934 0.0
H1473 H 0.37615 0.25517 0.85147 0.0
H1474 H 0.41387 0.29917 0.80364 0.0
H1475 H 0.3766 0.30196 0.78091 0.0
C1476 C 0.46494 0.27124 0.849 0.0
C1477 C 0.46347 0.27131 0.87209 0.0
C1478 C 0.44403 0.27319 0.83523 0.0
C1479 C 0.42098 0.27532 0.84409 0.0
C1480 C 0.41967 0.27553 0.86718 0.0
C1481 C 0.44042 0.27347 0.88086 0.0
C1482 C 0.35529 0.26773 0.82345 0.0
C1483 C 0.35466 0.28076 0.80326 0.0
C1484 C 0.37665 0.26583 0.83632 0.0
C1485 C 0.3983 0.27705 0.82966 0.0
C1486 C 0.39776 0.29004 0.80937 0.0
C1487 C 0.37627 0.29185 0.79636 0.0
H1488 H 0.01644 0.8585 0.39874 0.0
H1489 H 0.05716 0.82223 0.45107 0.0
H1490 H 0.01352 0.8967 0.42119 0.0
H1491 H 0.05321 0.85917 0.47415 0.0
H1492 H 0.05212 0.9328 0.51135 0.0
H1493 H 0.05978 0.89782 0.4867 0.0
H1494 H 0.99475 0.91587 0.44872 0.0
H1495 H 0.98875 0.95232 0.47254 0.0
C1496 C 0.02478 0.85878 0.4151 0.0
C1497 C 0.0362 0.83709 0.42352 0.0
C1498 C 0.02286 0.8806 0.42823 0.0
C1499 C 0.03239 0.88131 0.45012 0.0
C1500 C 0.04549 0.86002 0.45762 0.0
C1501 C 0.04754 0.83843 0.44444 0.0
C1502 C 0.03933 0.92895 0.49787 0.0
C1503 C 0.01958 0.94492 0.49412 0.0
C1504 C 0.04366 0.90875 0.48357 0.0
C1505 C 0.02799 0.90345 0.46528 0.0
C1506 C 0.00778 0.9193 0.46203 0.0
C1507 C 0.00392 0.94001 0.47599 0.0
H1508 H 0.50083 0.68632 0.70553 0.0
H1509 H 0.45333 0.67673 0.64818 0.0
H1510 H 0.46607 0.68798 0.72871 0.0
H1511 H 0.41863 0.6787 0.67147 0.0
H1512 H 0.40081 0.73682 0.7492 0.0
H1513 H 0.43623 0.72266 0.73077 0.0
H1514 H 0.39572 0.65983 0.70246 0.0
H1515 H 0.36006 0.67363 0.72152 0.0
C1516 C 0.48304 0.68411 0.69787 0.0
C1517 C 0.47988 0.68192 0.6749 0.0
C1518 C 0.46314 0.68513 0.71119 0.0
C1519 C 0.43968 0.68386 0.70185 0.0
C1520 C 0.43652 0.67965 0.67913 0.0
C1521 C 0.45643 0.6787 0.66578 0.0
C1522 C 0.39949 0.71954 0.73962 0.0
C1523 C 0.37749 0.7064 0.73687 0.0
C1524 C 0.41987 0.71144 0.729 0.0
C1525 C 0.41875 0.69011 0.71521 0.0
C1526 C 0.39702 0.67645 0.7129 0.0
C1527 C 0.37661 0.68444 0.72372 0.0
H1528 H 0.49584 0.19111 0.93233 0.0
H1529 H 0.57211 0.20085 0.92412 0.0
H1530 H 0.50316 0.15069 0.95074 0.0
H1531 H 0.57958 0.16042 0.94319 0.0
H1532 H 0.57737 0.10513 0.00626 0.0
H1533 H 0.57318 0.14388 0.98408 0.0
H1534 H 0.51982 0.10658 0.94198 0.0
H1535 H 0.5242 0.06806 0.9636 0.0
C1536 C 0.51416 0.18433 0.93406 0.0
C1537 C 0.53334 0.19901 0.9264 0.0
C1538 C 0.51838 0.16121 0.94473 0.0
C1539 C 0.54197 0.15234 0.94859 0.0
C1540 C 0.56121 0.16678 0.94059 0.0
C1541 C 0.55691 0.18973 0.92939 0.0
C1542 C 0.56488 0.10517 0.99219 0.0
C1543 C 0.55112 0.08338 0.98684 0.0
C1544 C 0.56259 0.12731 0.97939 0.0
C1545 C 0.54613 0.12835 0.96124 0.0
C1546 C 0.53256 0.10652 0.95587 0.0
C1547 C 0.53516 0.08436 0.96832 0.0
H1548 H 0.13663 0.25792 0.15127 0.0
H1549 H 0.11722 0.2393 0.2175 0.0
H1550 H 0.1746 0.27616 0.16541 0.0
H1551 H 0.15527 0.25694 0.23154 0.0
H1552 H 0.21672 0.3005 0.25589 0.0
H1553 H 0.17771 0.29637 0.23662 0.0
H1554 H 0.21174 0.26015 0.18222 0.0
H1555 H 0.25073 0.26492 0.20112 0.0
C1556 C 0.14054 0.2576 0.16883 0.0
C1557 C 0.12408 0.24701 0.1833 0.0
C1558 C 0.16222 0.26814 0.1769 0.0
C1559 C 0.16781 0.26825 0.19959 0.0
C1560 C 0.15125 0.25772 0.21401 0.0
C1561 C 0.12959 0.24727 0.20596 0.0
C1562 C 0.21597 0.29248 0.23948 0.0
C1563 C 0.23666 0.28244 0.23025 0.0
C1564 C 0.19361 0.28991 0.22854 0.0
C1565 C 0.19161 0.27717 0.20827 0.0
C1566 C 0.21267 0.26994 0.19788 0.0
C1567 C 0.23507 0.27268 0.20875 0.0
H1568 H 0.15329 0.9862 0.18327 0.0
H1569 H 0.08476 0.99872 0.21252 0.0
H1570 H 0.1328 0.97788 0.14788 0.0
H1571 H 0.06427 0.99221 0.17706 0.0
H1572 H 0.02921 0.96629 0.11401 0.0
H1573 H 0.05118 0.96554 0.14937 0.0
H1574 H 0.11354 0.99782 0.11886 0.0
H1575 H 0.09203 0.9968 0.08346 0.0
C1576 C 0.13382 0.98725 0.18207 0.0
C1577 C 0.12062 0.99312 0.20062 0.0
C1578 C 0.12202 0.98269 0.16172 0.0
C1579 C 0.09675 0.9845 0.15933 0.0
C1580 C 0.08364 0.99006 0.17812 0.0
C1581 C 0.09541 0.99402 0.19853 0.0
C1582 C 0.04776 0.97281 0.1149 0.0
C1583 C 0.0589 0.98161 0.096 0.0
C1584 C 0.06034 0.97265 0.13522 0.0
C1585 C 0.08418 0.98195 0.13727 0.0
C1586 C 0.09543 0.9901 0.11811 0.0
C1587 C 0.08303 0.98967 0.09772 0.0
H1588 H 0.26489 0.90983 0.46542 0.0
H1589 H 0.30526 0.85474 0.50342 0.0
H1590 H 0.27162 0.88583 0.43201 0.0
H1591 H 0.31372 0.83172 0.47008 0.0
H1592 H 0.30985 0.78305 0.40923 0.0
H1593 H 0.30095 0.80555 0.44251 0.0
H1594 H 0.29893 0.87596 0.40634 0.0
H1595 H 0.30492 0.85303 0.37261 0.0
C1596 C 0.27521 0.89254 0.46657 0.0
C1597 C 0.28428 0.88399 0.48702 0.0
C1598 C 0.27942 0.87889 0.44736 0.0
C1599 C 0.29348 0.85676 0.44804 0.0
C1600 C 0.30239 0.84825 0.46868 0.0
C1601 C 0.29759 0.86151 0.48791 0.0
C1602 C 0.30712 0.80328 0.40819 0.0
C1603 C 0.30786 0.81597 0.38789 0.0
C1604 C 0.30241 0.81638 0.42754 0.0
C1605 C 0.29897 0.84276 0.42738 0.0
C1606 C 0.30078 0.85561 0.40725 0.0
C1607 C 0.30486 0.84241 0.3878 0.0
H1608 H 0.47548 0.02806 0.70743 0.0
H1609 H 0.40835 0.0243 0.66943 0.0
H1610 H 0.49754 0.03171 0.67363 0.0
H1611 H 0.43056 0.02809 0.63552 0.0
H1612 H 0.52575 0.0012 0.60712 0.0
H1613 H 0.50504 0.00229 0.64182 0.0
H1614 H 0.45721 0.05971 0.61566 0.0
H1615 H 0.47801 0.05881 0.58093 0.0
C1616 C 0.4654 0.02817 0.69186 0.0
C1617 C 0.44015 0.0258 0.6911 0.0
C1618 C 0.47808 0.03017 0.67251 0.0
C1619 C 0.46579 0.03015 0.65195 0.0
C1620 C 0.44049 0.02837 0.65116 0.0
C1621 C 0.42779 0.02606 0.67055 0.0
C1622 C 0.51107 0.01436 0.60888 0.0
C1623 C 0.50356 0.02994 0.59127 0.0
C1624 C 0.49923 0.01499 0.62876 0.0
C1625 C 0.47941 0.03097 0.63139 0.0
C1626 C 0.47228 0.04704 0.61401 0.0
C1627 C 0.48435 0.04667 0.59421 0.0
H1628 H 0.28217 0.15668 0.96527 0.0
H1629 H 0.27232 0.08945 0.92523 0.0
H1630 H 0.26962 0.18267 0.93412 0.0
H1631 H 0.2582 0.11524 0.89456 0.0
H1632 H 0.26939 0.17114 0.83835 0.0
H1633 H 0.27469 0.14278 0.86931 0.0
H1634 H 0.23766 0.19571 0.91042 0.0
H1635 H 0.23345 0.22475 0.87929 0.0
C1636 C 0.277 0.14742 0.94991 0.0
C1637 C 0.27834 0.12102 0.94771 0.0
C1638 C 0.26949 0.1623 0.9321 0.0
C1639 C 0.26278 0.15106 0.91183 0.0
C1640 C 0.26359 0.12458 0.90982 0.0
C1641 C 0.27159 0.10975 0.92747 0.0
C1642 C 0.26186 0.17641 0.85387 0.0
C1643 C 0.25102 0.20005 0.85653 0.0
C1644 C 0.26485 0.16013 0.87166 0.0
C1645 C 0.25675 0.16701 0.89244 0.0
C1646 C 0.24458 0.19009 0.89475 0.0
C1647 C 0.24196 0.2066 0.87696 0.0
H1648 H 0.16678 0.03208 0.34672 0.0
H1649 H 0.1018 0.01274 0.30891 0.0
H1650 H 0.14307 0.0398 0.3788 0.0
H1651 H 0.07807 0.02067 0.34121 0.0
H1652 H 0.05113 0.00797 0.4121 0.0
H1653 H 0.07231 0.00214 0.37822 0.0
H1654 H 0.11301 0.07077 0.39137 0.0
H1655 H 0.09148 0.07696 0.42524 0.0
C1656 C 0.14745 0.02937 0.34521 0.0
C1657 C 0.13624 0.02174 0.32514 0.0
C1658 C 0.13384 0.03406 0.3636 0.0
C1659 C 0.10869 0.03109 0.36247 0.0
C1660 C 0.09745 0.02304 0.34258 0.0
C1661 C 0.11106 0.01851 0.32408 0.0
C1662 C 0.06414 0.02222 0.40757 0.0
C1663 C 0.06954 0.043 0.42146 0.0
C1664 C 0.07636 0.01877 0.38815 0.0
C1665 C 0.09442 0.03589 0.3822 0.0
C1666 C 0.09942 0.05703 0.39572 0.0
C1667 C 0.08709 0.06058 0.41512 0.0
H1668 H 0.27597 0.90102 0.63292 0.0
H1669 H 0.26246 0.83149 0.59699 0.0
H1670 H 0.2706 0.87844 0.66753 0.0
H1671 H 0.25707 0.80906 0.63145 0.0
H1672 H 0.28258 0.77407 0.69819 0.0
H1673 H 0.28336 0.79623 0.66311 0.0
H1674 H 0.23957 0.85556 0.6892 0.0
H1675 H 0.23877 0.83335 0.72442 0.0
C1676 C 0.27171 0.88099 0.63238 0.0
C1677 C 0.26975 0.86807 0.61217 0.0
C1678 C 0.2685 0.86807 0.65221 0.0
C1679 C 0.26347 0.84191 0.65227 0.0
C1680 C 0.26118 0.82913 0.63202 0.0
C1681 C 0.26418 0.84205 0.61224 0.0
C1682 C 0.27281 0.79165 0.69638 0.0
C1683 C 0.26057 0.80188 0.71414 0.0
C1684 C 0.27323 0.80435 0.67623 0.0
C1685 C 0.26162 0.82775 0.67336 0.0
C1686 C 0.2489 0.83771 0.69094 0.0
C1687 C 0.24825 0.82484 0.71106 0.0
H1688 H 0.39995 0.03278 0.83632 0.0
H1689 H 0.44992 0.98848 0.79991 0.0
H1690 H 0.42271 0.02371 0.87031 0.0
H1691 H 0.4717 0.97769 0.83385 0.0
H1692 H 0.51957 0.9817 0.89543 0.0
H1693 H 0.4976 0.99077 0.86142 0.0
H1694 H 0.43121 0.99346 0.8964 0.0
H1695 H 0.45364 0.98727 0.93079 0.0
C1696 C 0.41584 0.02108 0.83566 0.0
C1697 C 0.42339 0.01162 0.81551 0.0
C1698 C 0.42874 0.01551 0.85518 0.0
C1699 C 0.44908 -0.00029 0.85506 0.0
C1700 C 0.45653 0.99033 0.83474 0.0
C1701 C 0.44402 0.99648 0.8152 0.0
C1702 C 0.50032 0.98451 0.89598 0.0
C1703 C 0.48857 0.98418 0.91609 0.0
C1704 C 0.48755 0.98933 0.87628 0.0
C1705 C 0.46251 0.99322 0.87597 0.0
C1706 C 0.45055 0.99134 0.89592 0.0
C1707 C 0.46342 0.98715 0.91572 0.0
H1708 H 0.30407 0.17069 0.0593 0.0
H1709 H 0.31704 0.09723 0.08835 0.0
H1710 H 0.3154 0.19089 0.09415 0.0
H1711 H 0.3289 0.11752 0.12316 0.0
H1712 H 0.31098 0.16306 0.18573 0.0
H1713 H 0.30757 0.14051 0.15108 0.0
H1714 H 0.34924 0.19908 0.12027 0.0
H1715 H 0.35278 0.22184 0.15529 0.0
C1716 C 0.30949 0.15886 0.07311 0.0
C1717 C 0.30941 0.13237 0.0712 0.0
C1718 C 0.31625 0.17046 0.093 0.0
C1719 C 0.32311 0.15579 0.11136 0.0
C1720 C 0.32348 0.12929 0.10933 0.0
C1721 C 0.31667 0.11768 0.08942 0.0
C1722 C 0.32006 0.17084 0.17178 0.0
C1723 C 0.33219 0.19427 0.17328 0.0
C1724 C 0.31805 0.15789 0.15186 0.0
C1725 C 0.32804 0.16808 0.13294 0.0
C1726 C 0.34107 0.19097 0.13457 0.0
C1727 C 0.34311 0.20397 0.15457 0.0
H1728 H 0.26069 0.02389 0.0274 0.0
H1729 H 0.22205 0.08081 0.99005 0.0
H1730 H 0.22744 0.99376 0.02033 0.0
H1731 H 0.18874 0.05125 0.98326 0.0
H1732 H 0.1382 0.9951 0.96019 0.0
H1733 H 0.17918 0.0122 0.96259 0.0
H1734 H 0.18561 0.98911 0.03061 0.0
H1735 H 0.14518 0.97189 0.02818 0.0
C1736 C 0.24509 0.02974 0.01755 0.0
C1737 C 0.24398 0.05406 0.0085 0.0
C1738 C 0.22612 0.01267 0.01359 0.0
C1739 C 0.2059 0.01993 1.00063 0.0
C1740 C 0.20453 0.04479 0.99253 0.0
C1741 C 0.22335 0.06179 0.99661 0.0
C1742 C 0.14876 0.99288 0.97536 0.0
C1743 C 0.13834 0.98273 0.9941 0.0
C1744 C 0.1721 0.00274 0.97679 0.0
C1745 C 0.18515 0.0027 0.99701 0.0
C1746 C 0.17594 0.9895 0.01485 0.0
C1747 C 0.15269 0.97954 0.01339 0.0
H1748 H 0.70712 0.41038 0.06021 0.0
H1749 H 0.73199 0.48475 0.04165 0.0
H1750 H 0.66551 0.42567 0.05873 0.0
H1751 H 0.69097 0.49995 0.0407 0.0
H1752 H 0.61502 0.51147 0.01355 0.0
H1753 H 0.65575 0.49544 0.0176 0.0
H1754 H 0.63616 0.45372 0.07535 0.0
H1755 H 0.59488 0.46943 0.07096 0.0
C1756 C 0.70379 0.42998 0.05602 0.0
C1757 C 0.72298 0.44617 0.05075 0.0
C1758 C 0.67993 0.4388 0.05526 0.0
C1759 C 0.67476 0.46401 0.04928 0.0
C1760 C 0.69409 0.48028 0.0448 0.0
C1761 C 0.71775 0.47151 0.04545 0.0
C1762 C 0.61933 0.49899 0.02722 0.0
C1763 C 0.60161 0.49188 0.04199 0.0
C1764 C 0.64282 0.48984 0.02961 0.0
C1765 C 0.64942 0.47336 0.04691 0.0
C1766 C 0.63171 0.4662 0.06173 0.0
C1767 C 0.60809 0.47538 0.05932 0.0
H1768 H 0.90749 0.44386 0.28026 0.0
H1769 H 0.85373 0.45556 0.22852 0.0
H1770 H 0.88828 0.40344 0.28953 0.0
H1771 H 0.83455 0.41523 0.23754 0.0
H1772 H 0.81777 0.33206 0.24831 0.0
H1773 H 0.84132 0.36902 0.23786 0.0
H1774 H 0.84876 0.39116 0.30616 0.0
H1775 H 0.82428 0.35437 0.31647 0.0
C1776 C 0.89166 0.43756 0.2708 0.0
C1777 C 0.88147 0.45294 0.25421 0.0
C1778 C 0.88066 0.41458 0.27613 0.0
C1779 C 0.85973 0.40636 0.26448 0.0
C1780 C 0.85066 0.42104 0.24681 0.0
C1781 C 0.86144 0.44418 0.24175 0.0
C1782 C 0.82439 0.34498 0.26105 0.0
C1783 C 0.81916 0.34072 0.28313 0.0
C1784 C 0.83782 0.36608 0.25508 0.0
C1785 C 0.84671 0.38313 0.27114 0.0
C1786 C 0.84205 0.37841 0.2934 0.0
C1787 C 0.82799 0.35754 0.29933 0.0
H1788 H 0.8421 0.54172 0.55112 0.0
H1789 H 0.8627 0.60972 0.51719 0.0
H1790 H 0.88357 0.53583 0.56416 0.0
H1791 H 0.90465 0.6035 0.52992 0.0
H1792 H 0.98015 0.57959 0.55838 0.0
H1793 H 0.93842 0.59409 0.56218 0.0
H1794 H 0.91227 0.52403 0.53308 0.0
H1795 H 0.95331 0.50999 0.52893 0.0
C1796 C 0.8554 0.55584 0.54707 0.0
C1797 C 0.84951 0.57584 0.53282 0.0
C1798 C 0.87907 0.55256 0.55463 0.0
C1799 C 0.89723 0.56895 0.54766 0.0
C1800 C 0.89088 0.59068 0.53555 0.0
C1801 C 0.86699 0.59416 0.5282 0.0
C1802 C 0.96534 0.56727 0.55317 0.0
C1803 C 0.96975 0.5438 0.54325 0.0
C1804 C 0.94164 0.57554 0.55532 0.0
C1805 C 0.92228 0.56002 0.54816 0.0
C1806 C 0.92688 0.53617 0.5391 0.0
C1807 C 0.95035 0.52822 0.53653 0.0
H1808 H 0.1509 0.09642 0.27402 0.0
H1809 H 0.20807 0.06502 0.23675 0.0
H1810 H 0.17132 0.13762 0.27457 0.0
H1811 H 0.2292 0.10546 0.238 0.0
H1812 H 0.25965 0.18326 0.23524 0.0
H1813 H 0.23312 0.14726 0.22832 0.0
H1814 H 0.20455 0.15598 0.2931 0.0
H1815 H 0.23049 0.19273 0.29959 0.0
C1816 C 0.16786 0.09849 0.26592 0.0
C1817 C 0.17863 0.07757 0.25623 0.0
C1818 C 0.17966 0.12195 0.26634 0.0
C1819 C 0.20228 0.12483 0.25685 0.0
C1820 C 0.21184 0.10418 0.24548 0.0
C1821 C 0.2 0.08083 0.24505 0.0
C1822 C 0.24773 0.17745 0.24803 0.0
C1823 C 0.24736 0.19065 0.26809 0.0
C1824 C 0.2325 0.15673 0.24407 0.0
C1825 C 0.21675 0.14843 0.26019 0.0
C1826 C 0.21616 0.16194 0.28014 0.0
C1827 C 0.23124 0.18287 0.28401 0.0
H1828 H 0.35424 0.89691 0.52715 0.0
H1829 H 0.3412 0.96057 0.56933 0.0
H1830 H 0.39361 0.91457 0.51861 0.0
H1831 H 0.3809 0.97808 0.56148 0.0
H1832 H 0.43892 0.01722 0.52289 0.0
H1833 H 0.4006 0.99803 0.53176 0.0
H1834 H 0.43333 0.92416 0.53264 0.0
H1835 H 0.47184 0.9434 0.52395 0.0
C1836 C 0.36002 0.91461 0.53473 0.0
C1837 C 0.34454 0.92793 0.54822 0.0
C1838 C 0.3826 0.92467 0.52998 0.0
C1839 C 0.39034 0.94799 0.53906 0.0
C1840 C 0.37529 0.96046 0.5537 0.0
C1841 C 0.35261 0.95048 0.55825 0.0
C1842 C 0.43785 0.99683 0.52451 0.0
C1843 C 0.45841 0.98184 0.52256 0.0
C1844 C 0.41586 0.98582 0.52983 0.0
C1845 C 0.41374 0.95953 0.53292 0.0
C1846 C 0.43416 0.94444 0.53017 0.0
C1847 C 0.45626 0.95547 0.52516 0.0
H1848 H 0.86588 0.59024 0.28771 0.0
H1849 H 0.88061 0.59451 0.21866 0.0
H1850 H 0.84814 0.6321 0.28618 0.0
H1851 H 0.86206 0.63666 0.21688 0.0
H1852 H 0.84168 0.72214 0.23307 0.0
H1853 H 0.86353 0.68213 0.23048 0.0
H1854 H 0.80978 0.64549 0.26926 0.0
H1855 H 0.78845 0.6852 0.27226 0.0
C1856 C 0.86562 0.60042 0.27225 0.0
C1857 C 0.87441 0.5892 0.25328 0.0
C1858 C 0.85525 0.62426 0.2713 0.0
C1859 C 0.85305 0.63732 0.25126 0.0
C1860 C 0.8634 0.62693 0.23252 0.0
C1861 C 0.87409 0.60294 0.23354 0.0
C1862 C 0.83437 0.70538 0.24068 0.0
C1863 C 0.81355 0.70684 0.25312 0.0
C1864 C 0.84689 0.68253 0.23922 0.0
C1865 C 0.83869 0.66087 0.25014 0.0
C1866 C 0.81695 0.66205 0.26123 0.0
C1867 C 0.80461 0.68477 0.2628 0.0
H1868 H 0.66813 0.43267 0.75786 0.0
H1869 H 0.73505 0.47133 0.77529 0.0
H1870 H 0.68959 0.39246 0.7572 0.0
H1871 H 0.75632 0.43158 0.77403 0.0
H1872 H 0.77974 0.35336 0.79752 0.0
H1873 H 0.75922 0.39369 0.79555 0.0
H1874 H 0.71964 0.36892 0.73688 0.0
H1875 H 0.73985 0.32803 0.73916 0.0
C1876 C 0.68736 0.43264 0.76149 0.0
C1877 C 0.69977 0.45522 0.76688 0.0
C1878 C 0.69968 0.40965 0.76092 0.0
C1879 C 0.72465 0.40885 0.76564 0.0
C1880 C 0.73703 0.43147 0.7707 0.0
C1881 C 0.72477 0.45432 0.77139 0.0
C1882 C 0.76689 0.35655 0.78403 0.0
C1883 C 0.76141 0.33746 0.76851 0.0
C1884 C 0.75515 0.37974 0.78286 0.0
C1885 C 0.73773 0.38448 0.7661 0.0
C1886 C 0.73273 0.36568 0.75017 0.0
C1887 C 0.74449 0.34238 0.75135 0.0
H1888 H 1.00067 0.81426 0.94599 0.0
H1889 H 0.94359 0.86393 0.92376 0.0
H1890 H 0.00603 0.83837 0.97965 0.0
H1891 H 0.95012 0.88973 0.95716 0.0
H1892 H 0.03549 0.91023 0.0131 0.0
H1893 H 0.02371 0.87753 0.98709 0.0
H1894 H 0.94859 0.89344 0.99709 0.0
H1895 H 0.96066 0.92727 0.02281 0.0
C1896 C 0.98909 0.83034 0.94851 0.0
C1897 C 0.97132 0.83698 0.9327 0.0
C1898 C 0.99234 0.84434 0.96769 0.0
C1899 C 0.97861 0.86605 0.9711 0.0
C1900 C 0.9607 0.8728 0.9552 0.0
C1901 C 0.95715 0.85836 0.936 0.0
C1902 C 0.01646 0.90627 0.01027 0.0
C1903 C 0.99903 0.92143 0.01976 0.0
C1904 C 0.00963 0.88742 0.99536 0.0
C1905 C 0.98516 0.88308 0.98976 0.0
C1906 C 0.96759 0.89671 1.00077 0.0
C1907 C 0.97449 0.91576 0.01575 0.0
H1908 H 0.93174 0.2731 0.65516 0.0
H1909 H 0.97835 0.25923 0.71204 0.0
H1910 H 0.89756 0.27679 0.67853 0.0
H1911 H 0.9436 0.262 0.73567 0.0
H1912 H 0.87658 0.28708 0.7742 0.0
H1913 H 0.91284 0.28672 0.75219 0.0
H1914 H 0.8716 0.25221 0.69845 0.0
H1915 H 0.83581 0.25344 0.71983 0.0
C1916 C 0.93476 0.27067 0.67271 0.0
C1917 C 0.95802 0.26565 0.68153 0.0
C1918 C 0.91493 0.27261 0.68624 0.0
C1919 C 0.91738 0.26929 0.70919 0.0
C1920 C 0.94078 0.26484 0.71816 0.0
C1921 C 0.9608 0.26312 0.70455 0.0
C1922 C 0.87529 0.27961 0.75762 0.0
C1923 C 0.85303 0.27053 0.74886 0.0
C1924 C 0.89618 0.27922 0.74498 0.0
C1925 C 0.89542 0.26967 0.72324 0.0
C1926 C 0.87313 0.26038 0.71476 0.0
C1927 C 0.85241 0.26092 0.72723 0.0
H1928 H 0.5279 0.2304 0.39452 0.0
H1929 H 0.54305 0.26966 0.45587 0.0
H1930 H 0.52918 0.19024 0.41362 0.0
H1931 H 0.54536 0.22921 0.47498 0.0
H1932 H 0.50168 0.16288 0.50299 0.0
H1933 H 0.513 0.20175 0.48438 0.0
H1934 H 0.54776 0.15779 0.43472 0.0
H1935 H 0.53565 0.11895 0.45306 0.0
C1936 C 0.53251 0.23041 0.41197 0.0
C1937 C 0.53474 0.25319 0.4238 0.0
C1938 C 0.53327 0.20729 0.42297 0.0
C1939 C 0.53662 0.20656 0.44596 0.0
C1940 C 0.54192 0.22922 0.45735 0.0
C1941 C 0.5409 0.25238 0.44636 0.0
C1942 C 0.51172 0.16163 0.48809 0.0
C1943 C 0.51745 0.13802 0.47923 0.0
C1944 C 0.51852 0.18386 0.47756 0.0
C1945 C 0.53149 0.18292 0.45812 0.0
C1946 C 0.53757 0.1592 0.44951 0.0
C1947 C 0.53051 0.13698 0.45991 0.0
H1948 H 0.58667 0.78131 0.21796 0.0
H1949 H 0.61727 0.75844 0.15691 0.0
H1950 H 0.62659 0.78102 0.23591 0.0
H1951 H 0.65732 0.75775 0.17497 0.0
H1952 H 0.72892 0.78286 0.21018 0.0
H1953 H 0.68944 0.78345 0.19122 0.0
H1954 H 0.65725 0.75244 0.24894 0.0
H1955 H 0.69665 0.75225 0.26799 0.0
C1956 C 0.60193 0.7763 0.20829 0.0
C1957 C 0.59862 0.76994 0.18591 0.0
C1958 C 0.62491 0.77589 0.21869 0.0
C1959 C 0.6454 0.76914 0.20706 0.0
C1960 C 0.64213 0.76325 0.18452 0.0
C1961 C 0.61908 0.76359 0.17412 0.0
C1962 C 0.71346 0.77601 0.21882 0.0
C1963 C 0.71612 0.76751 0.24071 0.0
C1964 C 0.69073 0.77627 0.20787 0.0
C1965 C 0.6699 0.76814 0.21847 0.0
C1966 C 0.67268 0.75928 0.24026 0.0
C1967 C 0.6954 0.75896 0.25119 0.0
H1968 H 0.0138 0.1728 0.65653 0.0
H1969 H 0.04713 0.21459 0.60499 0.0
H1970 H 0.01673 0.1339 0.63501 0.0
H1971 H 0.0487 0.1766 0.5827 0.0
H1972 H 0.06103 0.10156 0.54917 0.0
H1973 H 0.06305 0.13871 0.57307 0.0
H1974 H 1.0005 0.11137 0.60651 0.0
H1975 H 1.00001 0.07359 0.58383 0.0
C1976 C 0.02159 0.17363 0.64048 0.0
C1977 C 0.02933 0.19685 0.63204 0.0
C1978 C 0.02308 0.15136 0.62791 0.0
C1979 C 0.03242 0.15175 0.60657 0.0
C1980 C 0.04146 0.17499 0.5989 0.0
C1981 C 0.04019 0.19706 0.61156 0.0
C1982 C 0.04782 0.10358 0.56171 0.0
C1983 C 0.03047 0.08455 0.56466 0.0
C1984 C 0.04881 0.12503 0.57545 0.0
C1985 C 0.03202 0.12843 0.59215 0.0
C1986 C 0.01433 0.10946 0.59456 0.0
C1987 C 0.01381 0.08777 0.58128 0.0
H1988 H 0.53562 0.35808 0.33027 0.0
H1989 H 0.56919 0.34581 0.39454 0.0
H1990 H 0.57531 0.36057 0.31446 0.0
H1991 H 0.60882 0.34875 0.37862 0.0
H1992 H 0.67777 0.36655 0.34082 0.0
H1993 H 0.6387 0.37703 0.35563 0.0
H1994 H 0.60424 0.32161 0.31272 0.0
H1995 H 0.64292 0.30992 0.29889 0.0
C1996 C 0.5514 0.35664 0.34116 0.0
C1997 C 0.54918 0.35122 0.36362 0.0
C1998 C 0.57411 0.35803 0.33205 0.0
C1999 C 0.59504 0.35455 0.3453 0.0
C2000 C 0.59295 0.35155 0.36806 0.0
C2001 C 0.57023 0.34975 0.37713 0.0
C2002 C 0.66193 0.35648 0.33456 0.0
C2003 C 0.66375 0.3373 0.31858 0.0
C2004 C 0.63955 0.36271 0.34294 0.0
C2005 C 0.61849 0.35031 0.33513 0.0
C2006 C 0.62014 0.33185 0.31869 0.0
C2007 C 0.64244 0.32525 0.31068 0.0
H2008 H 0.55593 0.83951 0.13784 0.0
H2009 H 0.48823 0.82899 0.10181 0.0
H2010 H 0.56284 0.87878 0.11738 0.0
H2011 H 0.49494 0.86787 0.08179 0.0
H2012 H 0.52585 0.91992 0.03061 0.0
H2013 H 0.52016 0.88241 0.05318 0.0
H2014 H 0.54994 0.9224 0.10992 0.0
H2015 H 0.55597 0.95989 0.08722 0.0
C2016 C 0.54231 0.84576 0.12593 0.0
C2017 C 0.52159 0.83083 0.12148 0.0
C2018 C 0.5463 0.86827 0.1141 0.0
C2019 C 0.52968 0.87639 0.09752 0.0
C2020 C 0.50851 0.86201 0.09392 0.0
C2021 C 0.50455 0.83969 0.10564 0.0
C2022 C 0.53129 0.92075 0.04787 0.0
C2023 C 0.54132 0.94309 0.057 0.0
C2024 C 0.52786 0.89922 0.06092 0.0
C2025 C 0.53435 0.89927 0.08355 0.0
C2026 C 0.54483 0.92147 0.0926 0.0
C2027 C 0.54819 0.94307 0.07954 0.0
H2028 H 0.92102 0.79565 0.83749 0.0
H2029 H 0.90702 0.7323 0.88014 0.0
H2030 H 0.89208 0.77853 0.81022 0.0
H2031 H 0.87895 0.71464 0.85259 0.0
H2032 H 0.80467 0.72019 0.81488 0.0
H2033 H 0.83985 0.72455 0.83918 0.0
H2034 H 0.88263 0.74547 0.78397 0.0
H2035 H 0.8469 0.74198 0.75963 0.0
C2036 C 0.91187 0.77801 0.84096 0.0
C2037 C 0.91591 0.76561 0.86111 0.0
C2038 C 0.89557 0.76795 0.82521 0.0
C2039 C 0.88328 0.74509 0.82917 0.0
C2040 C 0.88786 0.73242 0.84912 0.0
C2041 C 0.90385 0.74265 0.86497 0.0
C2042 C 0.82177 0.72481 0.80777 0.0
C2043 C 0.82294 0.73136 0.78549 0.0
C2044 C 0.84203 0.72731 0.82174 0.0
C2045 C 0.86391 0.73612 0.81361 0.0
C2046 C 0.86581 0.73938 0.7908 0.0
C2047 C 0.84544 0.73698 0.77679 0.0
H2048 H 0.8868 0.01525 0.88918 0.0
H2049 H 0.9527 0.99166 0.85993 0.0
H2050 H 0.90803 0.02006 0.92457 0.0
H2051 H 0.97379 0.99514 0.89557 0.0
H2052 H 0.01124 0.02125 0.95827 0.0
H2053 H 0.98967 0.02218 0.92274 0.0
H2054 H 0.92479 0.99707 0.95369 0.0
H2055 H 0.94613 0.99754 0.98928 0.0
C2056 C 0.90583 0.01089 0.89036 0.0
C2057 C 0.91806 0.00303 0.87174 0.0
C2058 C 0.91802 0.01351 0.91073 0.0
C2059 C 0.9427 0.0079 0.91314 0.0
C2060 C 0.95492 0.00013 0.8944 0.0
C2061 C 0.9428 0.99794 0.87393 0.0
C2062 C 0.99228 0.01629 0.95747 0.0
C2063 C 0.98038 0.00937 0.97657 0.0
C2064 C 0.97993 0.01655 0.93705 0.0
C2065 C 0.95546 0.00945 0.93514 0.0
C2066 C 0.94348 0.00306 0.95442 0.0
C2067 C 0.95574 0.00324 0.97489 0.0
H2068 H 0.76346 0.12228 0.58036 0.0
H2069 H 0.78888 0.195 0.55812 0.0
H2070 H 0.75875 0.13964 0.61707 0.0
H2071 H 0.78465 0.21224 0.59498 0.0
H2072 H 0.74627 0.24229 0.6545 0.0
H2073 H 0.75187 0.22355 0.61841 0.0
H2074 H 0.78043 0.15609 0.64935 0.0
H2075 H 0.77474 0.1748 0.68542 0.0
C2076 C 0.76844 0.14187 0.5834 0.0
C2077 C 0.77647 0.15729 0.5663 0.0
C2078 C 0.76576 0.15181 0.60447 0.0
C2079 C 0.77106 0.17741 0.60892 0.0
C2080 C 0.77993 0.19258 0.59199 0.0
C2081 C 0.7826 0.18263 0.57092 0.0
C2082 C 0.75368 0.22344 0.65359 0.0
C2083 C 0.76004 0.21005 0.67285 0.0
C2084 C 0.75703 0.21274 0.63291 0.0
C2085 C 0.76685 0.18841 0.63097 0.0
C2086 C 0.77263 0.17477 0.65024 0.0
C2087 C 0.76926 0.18546 0.67093 0.0
H2088 H 0.65533 0.01269 0.39744 0.0
H2089 H 0.59459 0.01833 0.35129 0.0
H2090 H 0.62805 0.00433 0.42694 0.0
H2091 H 0.56723 0.00984 0.38108 0.0
H2092 H 0.57565 0.96996 0.47276 0.0
H2093 H 0.59886 0.97145 0.43947 0.0
H2094 H 0.55526 0.03334 0.4151 0.0
H2095 H 0.53198 0.03188 0.44832 0.0
C2096 C 0.63617 0.01198 0.3935 0.0
C2097 C 0.6272 0.01625 0.37192 0.0
C2098 C 0.62053 0.00696 0.41044 0.0
C2099 C 0.5955 0.00625 0.40631 0.0
C2100 C 0.58645 0.01032 0.38474 0.0
C2101 C 0.60214 0.01512 0.36769 0.0
C2102 C 0.57063 0.9835 0.46009 0.0
C2103 C 0.55208 0.00093 0.46328 0.0
C2104 C 0.58406 0.98447 0.4411 0.0
C2105 C 0.57907 0.00271 0.42481 0.0
C2106 C 0.55948 0.019 0.42732 0.0
C2107 C 0.54618 0.0182 0.44639 0.0
H2108 H 0.72943 0.84941 0.06666 0.0
H2109 H 0.74689 0.92625 0.08626 0.0
H2110 H 0.73599 0.83565 0.10454 0.0
H2111 H 0.75366 0.9123 0.12405 0.0
H2112 H 0.7634 0.87041 0.19222 0.0
H2113 H 0.74181 0.88765 0.15979 0.0
H2114 H 0.78101 0.83744 0.11822 0.0
H2115 H 0.80294 0.82078 0.15026 0.0
C2116 C 0.7335 0.86358 0.07917 0.0
C2117 C 0.73868 0.88869 0.07337 0.0
C2118 C 0.73744 0.85565 0.10082 0.0
C2119 C 0.74629 0.87281 0.11686 0.0
C2120 C 0.74719 0.89867 0.11185 0.0
C2121 C 0.74325 0.90663 0.09017 0.0
C2122 C 0.76777 0.86351 0.17609 0.0
C2123 C 0.78479 0.84415 0.17374 0.0
C2124 C 0.75516 0.8731 0.15765 0.0
C2125 C 0.75919 0.8632 0.13671 0.0
C2126 C 0.77695 0.84472 0.13431 0.0
C2127 C 0.78969 0.83539 0.1526 0.0
H2128 H 0.90529 0.02749 0.72771 0.0
H2129 H 0.96726 0.99205 0.75869 0.0
H2130 H 0.92261 0.02206 0.69186 0.0
H2131 H 0.98372 0.9841 0.72296 0.0
H2132 H 0.01706 0.98624 0.65695 0.0
H2133 H 0.00186 0.99577 0.69252 0.0
H2134 H 0.92908 0.99449 0.66465 0.0
H2135 H 0.94463 0.98861 0.6285 0.0
C2136 C 0.92277 0.01865 0.72675 0.0
C2137 C 0.93514 0.01051 0.74589 0.0
C2138 C 0.93257 0.01501 0.70613 0.0
C2139 C 0.95455 0.00213 0.70407 0.0
C2140 C 0.96707 0.99451 0.72351 0.0
C2141 C 0.95764 0.99902 0.74416 0.0
C2142 C 0.99782 0.98853 0.65818 0.0
C2143 C 0.98228 0.98715 0.6394 0.0
C2144 C 0.98894 0.99353 0.67893 0.0
C2145 C 0.96407 0.99631 0.68185 0.0
C2146 C 0.9484 0.99341 0.66326 0.0
C2147 C 0.95736 0.9893 0.64236 0.0
H2148 H 0.77328 0.19533 0.45984 0.0
H2149 H 0.77588 0.13323 0.41364 0.0
H2150 H 0.77799 0.22534 0.42978 0.0
H2151 H 0.78058 0.16328 0.38373 0.0
H2152 H 0.81389 0.22165 0.33925 0.0
H2153 H 0.81172 0.19447 0.3714 0.0
H2154 H 0.75427 0.24003 0.3958 0.0
H2155 H 0.75628 0.26735 0.36346 0.0
C2156 C 0.77492 0.18802 0.44333 0.0
C2157 C 0.77431 0.16176 0.43926 0.0
C2158 C 0.77751 0.20527 0.4261 0.0
C2159 C 0.77982 0.1967 0.40441 0.0
C2160 C 0.77921 0.17049 0.40032 0.0
C2161 C 0.77639 0.15325 0.41748 0.0
C2162 C 0.80104 0.22622 0.35161 0.0
C2163 C 0.78519 0.2467 0.34869 0.0
C2164 C 0.79967 0.21045 0.36996 0.0
C2165 C 0.78262 0.21489 0.38599 0.0
C2166 C 0.76764 0.23615 0.38373 0.0
C2167 C 0.76882 0.25182 0.36522 0.0
H2168 H 0.59888 0.01187 0.24847 0.0
H2169 H 0.6718 0.03314 0.23379 0.0
H2170 H 0.58688 0.01696 0.20969 0.0
H2171 H 0.65977 0.0386 0.19525 0.0
H2172 H 0.63219 0.02241 0.12389 0.0
H2173 H 0.64582 0.01592 0.16205 0.0
H2174 H 0.58181 0.05267 0.18417 0.0
H2175 H 0.56825 0.0592 0.14608 0.0
C2176 C 0.61239 0.01734 0.23695 0.0
C2177 C 0.63625 0.02216 0.24421 0.0
C2178 C 0.60548 0.02052 0.21478 0.0
C2179 C 0.62233 0.02848 0.19942 0.0
C2180 C 0.64638 0.03233 0.2066 0.0
C2181 C 0.65325 0.02926 0.22873 0.0
C2182 C 0.62129 0.02958 0.1369 0.0
C2183 C 0.59909 0.04124 0.13195 0.0
C2184 C 0.62902 0.02571 0.15877 0.0
C2185 C 0.6147 0.03341 0.17615 0.0
C2186 C 0.59296 0.04593 0.17117 0.0
C2187 C 0.58528 0.04983 0.14935 0.0
H2188 H 0.76744 0.83583 0.98332 0.0
H2189 H 0.81922 0.8748 0.94381 0.0
H2190 H 0.75712 0.80783 0.9525 0.0
H2191 H 0.80909 0.84617 0.91312 0.0
H2192 H 0.72166 0.81016 0.87807 0.0
H2193 H 0.73662 0.8269 0.91366 0.0
H2194 H 0.80637 0.79451 0.90303 0.0
H2195 H 0.79118 0.7771 0.86775 0.0
C2196 C 0.7772 0.83792 0.96833 0.0
C2197 C 0.79394 0.85775 0.96586 0.0
C2198 C 0.77118 0.82193 0.95072 0.0
C2199 C 0.78221 0.82511 0.93058 0.0
C2200 C 0.80044 0.84343 0.92862 0.0
C2201 C 0.80615 0.8598 0.94611 0.0
C2202 C 0.73994 0.8061 0.8837 0.0
C2203 C 0.75526 0.79227 0.87048 0.0
C2204 C 0.74848 0.81557 0.90394 0.0
C2205 C 0.77257 0.81183 0.9109 0.0
C2206 C 0.78771 0.79744 0.89794 0.0
C2207 C 0.77901 0.78746 0.87794 0.0
H2208 H 0.79665 0.95779 0.04926 0.0
H2209 H 0.85475 0.90458 0.0577 0.0
H2210 H 0.81753 0.98747 0.07416 0.0
H2211 H 0.87595 0.93438 0.08264 0.0
H2212 H 0.91397 0.98333 0.12377 0.0
H2213 H 0.87602 0.96032 0.11871 0.0
H2214 H 0.85473 0.01131 0.06644 0.0
H2215 H 0.89297 0.0324 0.06967 0.0
C2216 C 0.81403 0.95258 0.05644 0.0
C2217 C 0.82477 0.92952 0.05099 0.0
C2218 C 0.82567 0.96932 0.07099 0.0
C2219 C 0.84818 0.96316 0.08049 0.0
C2220 C 0.85831 0.9394 0.07592 0.0
C2221 C 0.84655 0.92257 0.06136 0.0
C2222 C 0.90097 0.99002 0.11148 0.0
C2223 C 0.90761 0.00785 0.09555 0.0
C2224 C 0.87914 0.97697 0.1088 0.0
C2225 C 0.86339 0.98299 0.09111 0.0
C2226 C 0.86714 0.00551 0.07954 0.0
C2227 C 0.88931 0.01784 0.08158 0.0
H2228 H 0.3385 0.56702 0.96417 0.0
H2229 H 0.34475 0.60721 0.02603 0.0
H2230 H 0.37894 0.54996 0.97064 0.0
H2231 H 0.38504 0.58987 0.03253 0.0
H2232 H 0.44372 0.52908 0.04661 0.0
H2233 H 0.40322 0.54586 0.03958 0.0
H2234 H 0.42242 0.56691 0.97397 0.0
H2235 H 0.463 0.55047 0.98103 0.0
C2236 C 0.34848 0.57227 0.97912 0.0
C2237 C 0.33833 0.58858 0.99454 0.0
C2238 C 0.37169 0.56254 0.98278 0.0
C2239 C 0.38514 0.56849 0.00213 0.0
C2240 C 0.37503 0.58476 0.01755 0.0
C2241 C 0.35201 0.59485 0.01372 0.0
C2242 C 0.43927 0.53716 0.03064 0.0
C2243 C 0.45662 0.53843 0.01439 0.0
C2244 C 0.41613 0.54692 0.02668 0.0
C2245 C 0.40965 0.55778 0.00624 0.0
C2246 C 0.42682 0.55855 0.98983 0.0
C2247 C 0.45009 0.5492 0.99392 0.0
H2248 H 0.14674 0.61292 0.82361 0.0
H2249 H 0.20884 0.57563 0.79864 0.0
H2250 H 0.1623 0.65357 0.81098 0.0
H2251 H 0.22583 0.61594 0.78831 0.0
H2252 H 0.24362 0.68631 0.75282 0.0
H2253 H 0.22341 0.64706 0.76264 0.0
H2254 H 0.18988 0.68572 0.81625 0.0
H2255 H 0.2085 0.72507 0.80517 0.0
C2256 C 0.16412 0.61361 0.81609 0.0
C2257 C 0.17714 0.59136 0.81301 0.0
C2258 C 0.17315 0.63688 0.80889 0.0
C2259 C 0.19544 0.63829 0.79851 0.0
C2260 C 0.20842 0.61583 0.79573 0.0
C2261 C 0.19907 0.59267 0.80235 0.0
C2262 C 0.23144 0.68641 0.76634 0.0
C2263 C 0.22753 0.70871 0.77813 0.0
C2264 C 0.22012 0.66384 0.77227 0.0
C2265 C 0.20528 0.66289 0.79062 0.0
C2266 C 0.20083 0.68554 0.80189 0.0
C2267 C 0.21157 0.70821 0.79554 0.0
H2268 H 0.21909 0.47888 0.46357 0.0
H2269 H 0.22823 0.43921 0.52534 0.0
H2270 H 0.17609 0.48212 0.46917 0.0
H2271 H 0.18498 0.44241 0.53088 0.0
H2272 H 0.12267 0.49919 0.54623 0.0
H2273 H 0.16238 0.48278 0.53874 0.0
H2274 H 0.13675 0.45906 0.47405 0.0
H2275 H 0.09687 0.47557 0.48145 0.0
C2276 C 0.21179 0.47033 0.47809 0.0
C2277 C 0.227 0.45916 0.49419 0.0
C2278 C 0.18716 0.47202 0.48121 0.0
C2279 C 0.17735 0.46276 0.50057 0.0
C2280 C 0.19224 0.44992 0.51592 0.0
C2281 C 0.21691 0.44797 0.51268 0.0
C2282 C 0.12544 0.49034 0.53046 0.0
C2283 C 0.10677 0.48892 0.51432 0.0
C2284 C 0.14808 0.48065 0.52629 0.0
C2285 C 0.15252 0.46955 0.50587 0.0
C2286 C 0.13372 0.46757 0.48991 0.0
C2287 C 0.11098 0.47707 0.49414 0.0
H2288 H 0.8999 0.91189 0.81659 0.0
H2289 H 0.85505 0.95507 0.77138 0.0
H2290 H 0.8787 0.8729 0.80466 0.0
H2291 H 0.83397 0.91654 0.75945 0.0
H2292 H 0.81372 0.8397 0.73059 0.0
H2293 H 0.8409 0.87518 0.73997 0.0
H2294 H 0.83586 0.85751 0.80892 0.0
H2295 H 0.80853 0.8226 0.79971 0.0
C2296 C 0.88557 0.9129 0.80409 0.0
C2297 C 0.87846 0.93626 0.79531 0.0
C2298 C 0.87351 0.89077 0.79725 0.0
C2299 C 0.85474 0.8918 0.78113 0.0
C2300 C 0.84853 0.91516 0.7717 0.0
C2301 C 0.86033 0.93719 0.77873 0.0
C2302 C 0.8185 0.84344 0.74771 0.0
C2303 C 0.80877 0.82871 0.76442 0.0
C2304 C 0.83401 0.86365 0.75307 0.0
C2305 C 0.84036 0.86905 0.77517 0.0
C2306 C 0.83133 0.85369 0.79177 0.0
C2307 C 0.8155 0.83389 0.78647 0.0
H2308 H 0.72524 0.07568 0.52194 0.0
H2309 H 0.68599 0.13233 0.48489 0.0
H2310 H 0.68761 0.05534 0.53152 0.0
H2311 H 0.64799 0.11153 0.4937 0.0
H2312 H 0.58434 0.08609 0.5326 0.0
H2313 H 0.62268 0.10546 0.52369 0.0
H2314 H 0.65424 0.03119 0.51872 0.0
H2315 H 0.61615 0.01197 0.52864 0.0
C2316 C 0.70844 0.08336 0.51539 0.0
C2317 C 0.70839 0.10516 0.50227 0.0
C2318 C 0.68684 0.07173 0.52088 0.0
C2319 C 0.66463 0.08176 0.51347 0.0
C2320 C 0.6647 0.10351 0.50005 0.0
C2321 C 0.68639 0.1153 0.49477 0.0
C2322 C 0.59962 0.07395 0.53002 0.0
C2323 C 0.59727 0.04751 0.5315 0.0
C2324 C 0.62153 0.08502 0.52458 0.0
C2325 C 0.64157 0.06993 0.52016 0.0
C2326 C 0.63934 0.04348 0.52224 0.0
C2327 C 0.61749 0.03242 0.528 0.0
H2328 H 0.2407 0.47499 0.82919 0.0
H2329 H 0.17217 0.44325 0.8067 0.0
H2330 H 0.26044 0.43532 0.82029 0.0
H2331 H 0.19203 0.40343 0.79825 0.0
H2332 H 0.23494 0.32915 0.80997 0.0
H2333 H 0.21614 0.36861 0.82096 0.0
H2334 H 0.26635 0.41095 0.7826 0.0
H2335 H 0.28501 0.3714 0.77118 0.0
C2336 C 0.2298 0.45951 0.82255 0.0
C2337 C 0.20484 0.46232 0.81858 0.0
C2338 C 0.24116 0.43689 0.81737 0.0
C2339 C 0.22773 0.41645 0.80856 0.0
C2340 C 0.20273 0.41894 0.80513 0.0
C2341 C 0.19142 0.44173 0.8099 0.0
C2342 C 0.24211 0.34687 0.80399 0.0
C2343 C 0.26145 0.3472 0.78969 0.0
C2344 C 0.23125 0.36939 0.8102 0.0
C2345 C 0.2398 0.3927 0.80258 0.0
C2346 C 0.25953 0.39316 0.78877 0.0
C2347 C 0.27014 0.37057 0.7822 0.0
H2348 H 0.35046 0.56266 0.34207 0.0
H2349 H 0.38799 0.57369 0.28177 0.0
H2350 H 0.33067 0.60336 0.33686 0.0
H2351 H 0.36794 0.61446 0.27656 0.0
H2352 H 0.30381 0.66879 0.26299 0.0
H2353 H 0.32421 0.62847 0.26895 0.0
H2354 H 0.3424 0.65026 0.33593 0.0
H2355 H 0.32217 0.69077 0.32999 0.0
C2356 C 0.35455 0.57379 0.32773 0.0
C2357 C 0.37079 0.5649 0.31231 0.0
C2358 C 0.34328 0.59715 0.32483 0.0
C2359 C 0.3477 0.61199 0.30628 0.0
C2360 C 0.36406 0.60326 0.29092 0.0
C2361 C 0.37565 0.58003 0.29399 0.0
C2362 C 0.31199 0.66493 0.27906 0.0
C2363 C 0.31135 0.68297 0.29604 0.0
C2364 C 0.32385 0.64194 0.28238 0.0
C2365 C 0.33501 0.63634 0.30284 0.0
C2366 C 0.33388 0.65408 0.32 0.0
C2367 C 0.32232 0.67725 0.31659 0.0
H2368 H 0.56136 0.61962 0.64346 0.0
H2369 H 0.58639 0.68011 0.60256 0.0
H2370 H 0.57874 0.58871 0.61909 0.0
H2371 H 0.60545 0.64956 0.57876 0.0
H2372 H 0.60082 0.53344 0.57648 0.0
H2373 H 0.60977 0.56752 0.60256 0.0
H2374 H 0.5927 0.62221 0.55173 0.0
H2375 H 0.5827 0.58809 0.52626 0.0
C2376 C 0.57101 0.62618 0.62937 0.0
C2377 C 0.57186 0.65191 0.62426 0.0
C2378 C 0.58146 0.60857 0.61556 0.0
C2379 C 0.59364 0.61649 0.59675 0.0
C2380 C 0.59589 0.64261 0.59275 0.0
C2381 C 0.58491 0.66012 0.60628 0.0
C2382 C 0.60023 0.55282 0.57068 0.0
C2383 C 0.59061 0.55836 0.54965 0.0
C2384 C 0.60492 0.57237 0.58571 0.0
C2385 C 0.59998 0.59757 0.57973 0.0
C2386 C 0.59542 0.60303 0.55733 0.0
C2387 C 0.59008 0.58347 0.54247 0.0
H2388 H 0.58964 0.24323 0.83953 0.0
H2389 H 0.62448 0.2845 0.89305 0.0
H2390 H 0.62799 0.23893 0.82195 0.0
H2391 H 0.66288 0.28161 0.87492 0.0
H2392 H 0.73367 0.2579 0.84594 0.0
H2393 H 0.6957 0.25888 0.86475 0.0
H2394 H 0.65695 0.2576 0.80186 0.0
H2395 H 0.69494 0.25517 0.78331 0.0
C2396 C 0.60553 0.25159 0.84751 0.0
C2397 C 0.60383 0.26423 0.86777 0.0
C2398 C 0.6277 0.24934 0.83726 0.0
C2399 C 0.64903 0.26008 0.84665 0.0
C2400 C 0.64725 0.27263 0.86708 0.0
C2401 C 0.62507 0.27448 0.87754 0.0
C2402 C 0.71701 0.25757 0.83614 0.0
C2403 C 0.71752 0.25629 0.81304 0.0
C2404 C 0.69504 0.25841 0.84697 0.0
C2405 C 0.67273 0.25843 0.83508 0.0
C2406 C 0.6734 0.25709 0.8119 0.0
C2407 C 0.69535 0.25582 0.80111 0.0
H2408 H 0.01368 0.3153 0.13491 0.0
H2409 H 0.08284 0.30118 0.16721 0.0
H2410 H 0.02582 0.35917 0.12862 0.0
H2411 H 0.09512 0.34482 0.16022 0.0
H2412 H 0.10459 0.39505 0.09125 0.0
H2413 H 0.09756 0.35933 0.11584 0.0
H2414 H 0.04464 0.40286 0.14944 0.0
H2415 H 0.05221 0.43886 0.12532 0.0
C2416 C 0.03113 0.3218 0.14125 0.0
C2417 C 0.04737 0.30488 0.15135 0.0
C2418 C 0.03801 0.34685 0.13778 0.0
C2419 C 0.06137 0.35509 0.14396 0.0
C2420 C 0.07698 0.33877 0.1555 0.0
C2421 C 0.06989 0.31388 0.15947 0.0
C2422 C 0.09231 0.39728 0.10454 0.0
C2423 C 0.07893 0.41949 0.10651 0.0
C2424 C 0.08833 0.37699 0.11861 0.0
C2425 C 0.07056 0.37858 0.13439 0.0
C2426 C 0.05854 0.40144 0.13746 0.0
C2427 C 0.06292 0.42193 0.12373 0.0
H2428 H 0.9421 0.75324 0.39641 0.0
H2429 H 0.9819 0.79169 0.34676 0.0
H2430 H 0.90558 0.75604 0.37351 0.0
H2431 H 0.94495 0.79615 0.32418 0.0
H2432 H 0.87649 0.78472 0.2802 0.0
H2433 H 0.91448 0.78058 0.30138 0.0
H2434 H 0.87532 0.78132 0.36155 0.0
H2435 H 0.83768 0.78372 0.34027 0.0
C2436 C 0.94303 0.76241 0.38055 0.0
C2437 C 0.96506 0.77216 0.37349 0.0
C2438 C 0.92186 0.76438 0.3674 0.0
C2439 C 0.92172 0.77682 0.34687 0.0
C2440 C 0.94398 0.78618 0.33964 0.0
C2441 C 0.96534 0.78368 0.35266 0.0
C2442 C 0.87611 0.78416 0.29798 0.0
C2443 C 0.85395 0.7845 0.30848 0.0
C2444 C 0.898 0.78183 0.31025 0.0
C2445 C 0.89844 0.7802 0.33345 0.0
C2446 C 0.87614 0.78158 0.34383 0.0
C2447 C 0.85435 0.78335 0.33157 0.0
H2448 H 0.51031 0.35484 0.90072 0.0
H2449 H 0.55423 0.32015 0.95183 0.0
H2450 H 0.50691 0.39296 0.92332 0.0
H2451 H 0.55163 0.35833 0.9743 0.0
H2452 H 0.52257 0.4198 0.01904 0.0
H2453 H 0.52586 0.38209 0.99621 0.0
H2454 H 0.52688 0.42891 0.93815 0.0
H2455 H 0.52383 0.46651 0.961 0.0
C2456 C 0.5194 0.3555 0.91675 0.0
C2457 C 0.5319 0.33426 0.9248 0.0
C2458 C 0.51759 0.37741 0.92974 0.0
C2459 C 0.52874 0.37889 0.95094 0.0
C2460 C 0.54222 0.35789 0.95842 0.0
C2461 C 0.54381 0.33596 0.94551 0.0
C2462 C 0.52316 0.42202 0.00138 0.0
C2463 C 0.52276 0.44629 0.99195 0.0
C2464 C 0.52518 0.40031 0.98819 0.0
C2465 C 0.52639 0.40212 0.96511 0.0
C2466 C 0.52558 0.42646 0.95572 0.0
C2467 C 0.52392 0.44816 0.96891 0.0
H2468 H 0.96149 0.21276 0.15735 0.0
H2469 H 0.01183 0.21448 0.21323 0.0
H2470 H 0.9284 0.20681 0.1819 0.0
H2471 H 0.97835 0.2088 0.23787 0.0
H2472 H 0.87387 0.18323 0.23019 0.0
H2473 H 0.91099 0.17661 0.21065 0.0
H2474 H 0.94408 0.24004 0.24512 0.0
H2475 H 0.90705 0.24745 0.26389 0.0
C2476 C 0.96556 0.21153 0.17485 0.0
C2477 C 0.9893 0.21431 0.18335 0.0
C2478 C 0.94659 0.20787 0.18888 0.0
C2479 C 0.95088 0.20727 0.21173 0.0
C2480 C 0.97464 0.20919 0.22027 0.0
C2481 C 0.99374 0.21246 0.20618 0.0
C2482 C 0.88911 0.19565 0.23374 0.0
C2483 C 0.88727 0.21609 0.24842 0.0
C2484 C 0.91037 0.19171 0.22268 0.0
C2485 C 0.93027 0.20789 0.22637 0.0
C2486 C 0.92908 0.2271 0.2422 0.0
C2487 C 0.90778 0.23127 0.25301 0.0
H2488 H 0.05732 0.6893 0.41008 0.0
H2489 H 0.00926 0.71043 0.46128 0.0
H2490 H 0.06528 0.64905 0.42939 0.0
H2491 H 0.01747 0.67123 0.48018 0.0
H2492 H 0.05489 0.61259 0.5222 0.0
H2493 H 0.05255 0.65172 0.5008 0.0
H2494 H 0.04258 0.60829 0.44103 0.0
H2495 H 0.04483 0.56915 0.46237 0.0
C2496 C 0.04834 0.68544 0.42523 0.0
C2497 C 0.03267 0.70342 0.43396 0.0
C2498 C 0.05296 0.66241 0.43635 0.0
C2499 C 0.04236 0.65711 0.4566 0.0
C2500 C 0.02641 0.67485 0.46495 0.0
C2501 C 0.02155 0.69741 0.45384 0.0
C2502 C 0.0526 0.61133 0.50448 0.0
C2503 C 0.04987 0.58765 0.49411 0.0
C2504 C 0.05113 0.63378 0.49219 0.0
C2505 C 0.04717 0.63318 0.46916 0.0
C2506 C 0.04575 0.60949 0.45867 0.0
C2507 C 0.04691 0.58704 0.47098 0.0
H2508 H 0.62471 0.74141 0.65411 0.0
H2509 H 0.57741 0.76688 0.70421 0.0
H2510 H 0.65657 0.76838 0.66915 0.0
H2511 H 0.60882 0.79553 0.71862 0.0
H2512 H 0.68185 0.79515 0.75858 0.0
H2513 H 0.64323 0.79009 0.73982 0.0
H2514 H 0.67579 0.80603 0.67771 0.0
H2515 H 0.71508 0.80912 0.69663 0.0
C2516 C 0.62103 0.7533 0.6681 0.0
C2517 C 0.59894 0.75162 0.6784 0.0
C2518 C 0.63919 0.76918 0.67658 0.0
C2519 C 0.63548 0.7842 0.69531 0.0
C2520 C 0.6126 0.78383 0.70455 0.0
C2521 C 0.59461 0.76741 0.69636 0.0
C2522 C 0.68069 0.79847 0.74101 0.0
C2523 C 0.70156 0.80147 0.72892 0.0
C2524 C 0.65834 0.79566 0.73013 0.0
C2525 C 0.65648 0.79642 0.70702 0.0
C2526 C 0.67678 0.80404 0.69542 0.0
C2527 C 0.69927 0.80615 0.70626 0.0
H2528 H 0.64543 0.46673 0.68841 0.0
H2529 H 0.5807 0.50116 0.71095 0.0
H2530 H 0.62503 0.45645 0.65342 0.0
H2531 H 0.56082 0.49358 0.6754 0.0
H2532 H 0.52575 0.47679 0.61073 0.0
H2533 H 0.54299 0.47128 0.64782 0.0
H2534 H 0.61456 0.47546 0.62182 0.0
H2535 H 0.59711 0.47839 0.58507 0.0
C2536 C 0.62674 0.47203 0.68576 0.0
C2537 C 0.61457 0.48474 0.70216 0.0
C2538 C 0.61505 0.46649 0.6656 0.0
C2539 C 0.59127 0.47468 0.66104 0.0
C2540 C 0.57891 0.48652 0.67806 0.0
C2541 C 0.59034 0.4911 0.6985 0.0
C2542 C 0.54515 0.47581 0.61311 0.0
C2543 C 0.56012 0.4779 0.59514 0.0
C2544 C 0.55514 0.47299 0.63439 0.0
C2545 C 0.58035 0.47327 0.63822 0.0
C2546 C 0.59515 0.47454 0.6199 0.0
C2547 C 0.58514 0.47642 0.59865 0.0
H2548 H 0.77235 0.41497 0.96992 0.0
H2549 H 0.81 0.35657 0.00633 0.0
H2550 H 0.77797 0.3918 0.93584 0.0
H2551 H 0.81748 0.33435 0.97239 0.0
H2552 H 0.81142 0.28762 0.9107 0.0
H2553 H 0.80363 0.30968 0.9444 0.0
H2554 H 0.80413 0.38098 0.90957 0.0
H2555 H 0.8089 0.35858 0.87537 0.0
C2556 C 0.78186 0.39714 0.97057 0.0
C2557 C 0.79042 0.38738 0.99077 0.0
C2558 C 0.78544 0.38395 0.95098 0.0
C2559 C 0.79838 0.36106 0.95103 0.0
C2560 C 0.80693 0.35146 0.97143 0.0
C2561 C 0.80271 0.36427 0.99102 0.0
C2562 C 0.80945 0.30797 0.91002 0.0
C2563 C 0.81053 0.32106 0.88995 0.0
C2564 C 0.8054 0.32081 0.92964 0.0
C2565 C 0.80306 0.34734 0.93003 0.0
C2566 C 0.80517 0.36055 0.9101 0.0
C2567 C 0.80854 0.34762 0.89036 0.0
H2568 H 0.91209 0.52038 0.16908 0.0
H2569 H 0.97654 0.54036 0.20715 0.0
H2570 H 0.93357 0.52674 0.1352 0.0
H2571 H 0.99792 0.54712 0.17329 0.0
H2572 H 0.03387 0.51946 0.10993 0.0
H2573 H 0.01304 0.52079 0.14434 0.0
H2574 H 0.95285 0.55801 0.1116 0.0
H2575 H 0.97373 0.55634 0.07684 0.0
C2576 C 0.93079 0.52633 0.17023 0.0
C2577 C 0.94263 0.52966 0.19086 0.0
C2578 C 0.94306 0.5302 0.15078 0.0
C2579 C 0.96752 0.53744 0.15145 0.0
C2580 C 0.97919 0.54127 0.17212 0.0
C2581 C 0.9669 0.53746 0.19156 0.0
C2582 C 0.01639 0.52839 0.1101 0.0
C2583 C 0.00547 0.53776 0.09057 0.0
C2584 C 0.00444 0.52922 0.12991 0.0
C2585 C 0.98115 0.53933 0.13078 0.0
C2586 C 0.97064 0.54978 0.11146 0.0
C2587 C 0.98272 0.54911 0.09158 0.0
H2588 H 0.80104 0.57163 0.42007 0.0
H2589 H 0.82334 0.63506 0.46091 0.0
H2590 H 0.79865 0.59953 0.38805 0.0
H2591 H 0.8216 0.66265 0.42907 0.0
H2592 H 0.81858 0.70776 0.36739 0.0
H2593 H 0.83405 0.67438 0.39147 0.0
H2594 H 0.76661 0.63372 0.38306 0.0
H2595 H 0.75094 0.66728 0.35918 0.0
C2596 C 0.80623 0.59126 0.4221 0.0
C2597 C 0.81154 0.60144 0.44303 0.0
C2598 C 0.80481 0.60723 0.40379 0.0
C2599 C 0.80936 0.63331 0.40624 0.0
C2600 C 0.8179 0.64265 0.42667 0.0
C2601 C 0.81888 0.62686 0.44493 0.0
C2602 C 0.80696 0.6918 0.37082 0.0
C2603 C 0.78331 0.69041 0.36181 0.0
C2604 C 0.81598 0.67255 0.38433 0.0
C2605 C 0.8016 0.65143 0.38899 0.0
C2606 C 0.77827 0.64957 0.37938 0.0
C2607 C 0.76919 0.6689 0.36592 0.0
H2608 H 0.60233 0.51325 0.80959 0.0
H2609 H 0.66901 0.53792 0.84203 0.0
H2610 H 0.58132 0.52003 0.84349 0.0
H2611 H 0.64797 0.54425 0.87598 0.0
H2612 H 0.59718 0.57878 0.92558 0.0
H2613 H 0.6178 0.57271 0.89113 0.0
H2614 H 0.57916 0.50228 0.8803 0.0
H2615 H 0.55875 0.50822 0.91453 0.0
C2616 C 0.61259 0.51986 0.82398 0.0
C2617 C 0.6374 0.52501 0.82302 0.0
C2618 C 0.60052 0.52371 0.84343 0.0
C2619 C 0.61296 0.53282 0.86238 0.0
C2620 C 0.63781 0.53762 0.86155 0.0
C2621 C 0.64991 0.53372 0.84212 0.0
C2622 C 0.5931 0.56205 0.9158 0.0
C2623 C 0.57615 0.54414 0.9227 0.0
C2624 C 0.60493 0.55853 0.89612 0.0
C2625 C 0.60008 0.53701 0.883 0.0
C2626 C 0.583 0.51926 0.88984 0.0
C2627 C 0.57122 0.52275 0.90944 0.0
H2628 H 0.77972 0.40031 0.13651 0.0
H2629 H 0.76788 0.33051 0.10058 0.0
H2630 H 0.77476 0.3777 0.17109 0.0
H2631 H 0.76301 0.30791 0.13518 0.0
H2632 H 0.78962 0.27502 0.20326 0.0
H2633 H 0.78998 0.29632 0.16768 0.0
H2634 H 0.74334 0.35419 0.19202 0.0
H2635 H 0.74285 0.33288 0.22759 0.0
C2636 C 0.77589 0.38019 0.13598 0.0
C2637 C 0.77423 0.36723 0.11578 0.0
C2638 C 0.77294 0.36725 0.15579 0.0
C2639 C 0.76852 0.34099 0.15589 0.0
C2640 C 0.76659 0.32809 0.13567 0.0
C2641 C 0.76925 0.34108 0.11584 0.0
C2642 C 0.77915 0.29209 0.20094 0.0
C2643 C 0.76619 0.3022 0.21831 0.0
C2644 C 0.77932 0.30427 0.18052 0.0
C2645 C 0.76679 0.32704 0.17705 0.0
C2646 C 0.75337 0.33683 0.19424 0.0
C2647 C 0.75295 0.32448 0.21457 0.0
H2648 H 0.88782 0.50782 0.33487 0.0
H2649 H 0.95575 0.52046 0.30395 0.0
H2650 H 0.90885 0.50122 0.36982 0.0
H2651 H 0.97688 0.51488 0.33947 0.0
H2652 H 0.00829 0.47678 0.40178 0.0
H2653 H 0.98763 0.48327 0.36613 0.0
H2654 H 0.93047 0.52225 0.39833 0.0
H2655 H 0.95077 0.51511 0.43379 0.0
C2656 C 0.90727 0.50953 0.33551 0.0
C2657 C 0.92004 0.51464 0.31643 0.0
C2658 C 0.91937 0.50587 0.35572 0.0
C2659 C 0.94462 0.5075 0.35759 0.0
C2660 C 0.95744 0.51307 0.33861 0.0
C2661 C 0.9453 0.51653 0.31826 0.0
C2662 C 0.99123 0.4866 0.40117 0.0
C2663 C 0.98102 0.49517 0.42061 0.0
C2664 C 0.97947 0.49051 0.38074 0.0
C2665 C 0.95733 0.50331 0.37927 0.0
C2666 C 0.94721 0.51188 0.39878 0.0
C2667 C 0.95884 0.50775 0.41917 0.0
H2668 H 0.76971 0.61102 0.5779 0.0
H2669 H 0.76354 0.67403 0.53293 0.0
H2670 H 0.77329 0.64063 0.60881 0.0
H2671 H 0.7668 0.70356 0.56393 0.0
H2672 H 0.75057 0.74134 0.63356 0.0
H2673 H 0.74416 0.71507 0.60067 0.0
H2674 H 0.80872 0.67349 0.6176 0.0
H2675 H 0.81575 0.7002 0.64992 0.0
C2676 C 0.76853 0.63114 0.57467 0.0
C2677 C 0.76648 0.64026 0.55306 0.0
C2678 C 0.7708 0.64804 0.5923 0.0
C2679 C 0.77064 0.67428 0.5886 0.0
C2680 C 0.76702 0.6834 0.56713 0.0
C2681 C 0.76516 0.66651 0.54946 0.0
C2682 C 0.76379 0.72711 0.62992 0.0
C2683 C 0.78354 0.72266 0.64449 0.0
C2684 C 0.75996 0.71195 0.61124 0.0
C2685 C 0.77564 0.69196 0.60703 0.0
C2686 C 0.79607 0.68843 0.62086 0.0
C2687 C 0.8001 0.70376 0.63928 0.0
H2688 H 0.73764 0.52773 0.51629 0.0
H2689 H 0.72514 0.56332 0.4533 0.0
H2690 H 0.70802 0.49522 0.50663 0.0
H2691 H 0.69603 0.52992 0.44281 0.0
H2692 H 0.62072 0.49276 0.45607 0.0
H2693 H 0.65706 0.51711 0.45133 0.0
H2694 H 0.69837 0.45915 0.48526 0.0
H2695 H 0.66149 0.43522 0.49079 0.0
C2696 C 0.72871 0.5282 0.50017 0.0
C2697 C 0.73387 0.54744 0.48529 0.0
C2698 C 0.71197 0.50941 0.49445 0.0
C2699 C 0.70004 0.50944 0.47364 0.0
C2700 C 0.70495 0.5292 0.4589 0.0
C2701 C 0.7215 0.54831 0.46485 0.0
C2702 C 0.63771 0.48447 0.46143 0.0
C2703 C 0.63825 0.46251 0.47444 0.0
C2704 C 0.65869 0.4986 0.45882 0.0
C2705 C 0.68052 0.49067 0.46884 0.0
C2706 C 0.68166 0.46628 0.4781 0.0
C2707 C 0.6606 0.45232 0.481 0.0
H2708 H 0.22489 0.98253 0.5397 0.0
H2709 H 0.2 0.90723 0.55551 0.0
H2710 H 0.18414 0.99796 0.54017 0.0
H2711 H 0.15841 0.92292 0.55546 0.0
H2712 H 0.08901 0.96907 0.57058 0.0
H2713 H 0.12991 0.95207 0.57416 0.0
H2714 H 0.14918 0.993 0.5159 0.0
H2715 H 0.10891 0.01025 0.51259 0.0
C2716 C 0.21068 0.96914 0.5432 0.0
C2717 C 0.21576 0.94346 0.5472 0.0
C2718 C 0.18721 0.97806 0.5434 0.0
C2719 C 0.16793 0.96161 0.54741 0.0
C2720 C 0.17292 0.93608 0.5523 0.0
C2721 C 0.19668 0.92707 0.55225 0.0
C2722 C 0.10209 0.97459 0.55868 0.0
C2723 C 0.09574 0.99123 0.54142 0.0
C2724 C 0.12542 0.96465 0.56062 0.0
C2725 C 0.14285 0.97128 0.5454 0.0
C2726 C 0.13636 0.98784 0.52815 0.0
C2727 C 0.11319 0.99771 0.52622 0.0
H2728 H 0.40595 0.93958 0.7764 0.0
H2729 H 0.34643 0.95945 0.73261 0.0
H2730 H 0.38629 0.8992 0.78449 0.0
H2731 H 0.32684 0.91891 0.74018 0.0
H2732 H 0.28516 0.86301 0.78111 0.0
H2733 H 0.30707 0.90075 0.77112 0.0
H2734 H 0.37295 0.85809 0.76961 0.0
H2735 H 0.35067 0.81964 0.77899 0.0
C2736 C 0.3887 0.93511 0.76841 0.0
C2737 C 0.37713 0.95282 0.7546 0.0
C2738 C 0.37753 0.91197 0.77289 0.0
C2739 C 0.3548 0.90599 0.76327 0.0
C2740 C 0.34405 0.92319 0.74831 0.0
C2741 C 0.35517 0.94638 0.74397 0.0
C2742 C 0.3044 0.86165 0.77904 0.0
C2743 C 0.31621 0.83834 0.78105 0.0
C2744 C 0.31695 0.88335 0.77311 0.0
C2745 C 0.34178 0.88257 0.76961 0.0
C2746 C 0.35385 0.8594 0.77235 0.0
C2747 C 0.34112 0.83742 0.77778 0.0
H2748 H 0.36729 0.10787 0.03436 0.0
H2749 H 0.37461 0.06539 0.97416 0.0
H2750 H 0.40804 0.09575 0.04633 0.0
H2751 H 0.41527 0.05368 0.98607 0.0
H2752 H 0.49297 0.07487 0.045 0.0
H2753 H 0.45421 0.09546 0.03695 0.0
H2754 H 0.42295 0.02307 0.01849 0.0
H2755 H 0.46144 0.00269 0.02617 0.0
C2756 C 0.37791 0.09679 0.02331 0.0
C2757 C 0.36766 0.08703 0.00354 0.0
C2758 C 0.40113 0.08979 0.03026 0.0
C2759 C 0.41422 0.07314 0.01742 0.0
C2760 C 0.40507 0.06596 0.99651 0.0
C2761 C 0.38193 0.07281 0.98963 0.0
C2762 C 0.47752 0.06332 0.04002 0.0
C2763 C 0.48006 0.03732 0.03588 0.0
C2764 C 0.45552 0.07511 0.03523 0.0
C2765 C 0.43608 0.06088 0.02639 0.0
C2766 C 0.43802 0.0345 0.02464 0.0
C2767 C 0.45988 0.02281 0.02928 0.0
H2768 H 0.69117 0.5719 0.72497 0.0
H2769 H 0.63346 0.59757 0.76465 0.0
H2770 H 0.70578 0.61507 0.72151 0.0
H2771 H 0.64701 0.64134 0.76032 0.0
H2772 H 0.70227 0.70301 0.78093 0.0
H2773 H 0.67815 0.66501 0.77584 0.0
H2774 H 0.70464 0.6564 0.71023 0.0
H2775 H 0.72938 0.69418 0.7157 0.0
C2776 C 0.68152 0.58704 0.73275 0.0
C2777 C 0.66217 0.58163 0.74608 0.0
C2778 C 0.68953 0.6119 0.73042 0.0
C2779 C 0.67799 0.63183 0.74115 0.0
C2780 C 0.65692 0.62643 0.75255 0.0
C2781 C 0.64905 0.60146 0.75497 0.0
C2782 C 0.70288 0.69304 0.76539 0.0
C2783 C 0.71812 0.70126 0.74892 0.0
C2784 C 0.68878 0.67133 0.76232 0.0
C2785 C 0.68966 0.65722 0.74272 0.0
C2786 C 0.70398 0.6663 0.72579 0.0
C2787 C 0.71816 0.688 0.7289 0.0
H2788 H 0.85746 0.39442 0.02856 0.0
H2789 H 0.85317 0.45216 0.07836 0.0
H2790 H 0.8992 0.4071 0.02198 0.0
H2791 H 0.89514 0.46451 0.07223 0.0
H2792 H 0.97834 0.46124 0.06808 0.0
H2793 H 0.93857 0.44336 0.07554 0.0
H2794 H 0.91802 0.44976 0.00674 0.0
H2795 H 0.95719 0.46922 0.99958 0.0
C2796 C 0.86555 0.40981 0.03809 0.0
C2797 C 0.85201 0.42297 0.05339 0.0
C2798 C 0.88937 0.417 0.03437 0.0
C2799 C 0.90034 0.43684 0.04652 0.0
C2800 C 0.88713 0.44911 0.06267 0.0
C2801 C 0.86311 0.44227 0.06603 0.0
C2802 C 0.9654 0.45847 0.05453 0.0
C2803 C 0.97077 0.46644 0.03324 0.0
C2804 C 0.94263 0.44846 0.05883 0.0
C2805 C 0.92512 0.4455 0.04177 0.0
C2806 C 0.93106 0.4521 0.02024 0.0
C2807 C 0.95348 0.46305 0.0161 0.0
H2808 H 0.38572 0.09374 0.72014 0.0
H2809 H 0.36011 0.0914 0.78627 0.0
H2810 H 0.36756 0.1358 0.71503 0.0
H2811 H 0.34255 0.13301 0.78137 0.0
H2812 H 0.28584 0.18586 0.75928 0.0
H2813 H 0.30692 0.14577 0.75865 0.0
H2814 H 0.36737 0.18213 0.72867 0.0
H2815 H 0.34586 0.22259 0.72891 0.0
C2816 C 0.37682 0.1025 0.73373 0.0
C2817 C 0.37405 0.08924 0.75351 0.0
C2818 C 0.36634 0.12645 0.73078 0.0
C2819 C 0.35305 0.13733 0.74759 0.0
C2820 C 0.35201 0.12478 0.76786 0.0
C2821 C 0.36226 0.10103 0.77074 0.0
C2822 C 0.30341 0.18527 0.75212 0.0
C2823 C 0.31431 0.20741 0.74438 0.0
C2824 C 0.31559 0.16233 0.75192 0.0
C2825 C 0.33909 0.16097 0.74418 0.0
C2826 C 0.34934 0.18267 0.73485 0.0
C2827 C 0.337 0.20577 0.73493 0.0
H2828 H 0.18 0.93672 0.23776 0.0
H2829 H 0.20753 0.94611 0.3045 0.0
H2830 H 0.20107 0.89638 0.23532 0.0
H2831 H 0.22755 0.90549 0.30259 0.0
H2832 H 0.28369 0.84941 0.287 0.0
H2833 H 0.26169 0.88903 0.28626 0.0
H2834 H 0.20451 0.85362 0.24682 0.0
H2835 H 0.22719 0.81431 0.24671 0.0
C2836 C 0.18999 0.92977 0.25209 0.0
C2837 C 0.19228 0.94451 0.27128 0.0
C2838 C 0.20214 0.90671 0.25071 0.0
C2839 C 0.2165 0.89789 0.2686 0.0
C2840 C 0.21739 0.91204 0.28822 0.0
C2841 C 0.20565 0.93518 0.28945 0.0
C2842 C 0.26661 0.85023 0.27787 0.0
C2843 C 0.25714 0.82876 0.26698 0.0
C2844 C 0.25381 0.87286 0.27765 0.0
C2845 C 0.23099 0.87442 0.26691 0.0
C2846 C 0.22202 0.85319 0.2552 0.0
C2847 C 0.23504 0.83063 0.25512 0.0
H2848 H 0.4729 0.40889 0.40692 0.0
H2849 H 0.45183 0.34477 0.44585 0.0
H2850 H 0.46826 0.43664 0.43877 0.0
H2851 H 0.44671 0.37237 0.47741 0.0
H2852 H 0.46466 0.48171 0.49931 0.0
H2853 H 0.445 0.45524 0.47076 0.0
H2854 H 0.48399 0.39041 0.49601 0.0
H2855 H 0.50387 0.41691 0.52394 0.0
C2856 C 0.46637 0.40096 0.42201 0.0
C2857 C 0.46346 0.37475 0.42428 0.0
C2858 C 0.46353 0.4168 0.44019 0.0
C2859 C 0.45756 0.40648 0.46065 0.0
C2860 C 0.45168 0.3807 0.46194 0.0
C2861 C 0.45475 0.36494 0.44394 0.0
C2862 C 0.46799 0.46152 0.49938 0.0
C2863 C 0.48567 0.45116 0.51372 0.0
C2864 C 0.45695 0.44649 0.48293 0.0
C2865 C 0.46311 0.42088 0.48108 0.0
C2866 C 0.47868 0.41004 0.49714 0.0
C2867 C 0.49008 0.42514 0.51318 0.0
H2868 H 0.47787 0.75931 0.21194 0.0
H2869 H 0.43167 0.77141 0.15449 0.0
H2870 H 0.44267 0.76043 0.23508 0.0
H2871 H 0.39695 0.77348 0.17739 0.0
H2872 H 0.33519 0.7482 0.21824 0.0
H2873 H 0.3712 0.74845 0.19703 0.0
H2874 H 0.41103 0.78349 0.25137 0.0
H2875 H 0.37465 0.78233 0.27313 0.0
C2876 C 0.4603 0.76248 0.20422 0.0
C2877 C 0.45783 0.76503 0.18118 0.0
C2878 C 0.43999 0.76325 0.21755 0.0
C2879 C 0.41655 0.76674 0.20831 0.0
C2880 C 0.41436 0.77003 0.18532 0.0
C2881 C 0.4345 0.76904 0.17206 0.0
C2882 C 0.35153 0.75609 0.22579 0.0
C2883 C 0.35172 0.76538 0.24752 0.0
C2884 C 0.37238 0.75641 0.21343 0.0
C2885 C 0.39437 0.76627 0.22214 0.0
C2886 C 0.39466 0.77553 0.24397 0.0
C2887 C 0.37367 0.77506 0.25647 0.0
H2888 H 0.96763 0.70333 0.87409 0.0
H2889 H 0.0265 0.72398 0.91869 0.0
H2890 H 0.97394 0.65861 0.88278 0.0
H2891 H 0.03268 0.67978 0.92784 0.0
H2892 H 0.03701 0.60294 0.95002 0.0
H2893 H 0.04024 0.63581 0.92206 0.0
H2894 H 0.9625 0.64054 0.91744 0.0
H2895 H 0.95954 0.60694 0.94473 0.0
C2896 C 0.98274 0.69808 0.88485 0.0
C2897 C 0.99672 0.71672 0.89573 0.0
C2898 C 0.98618 0.6726 0.89003 0.0
C2899 C 0.00344 0.66569 0.90635 0.0
C2900 C 0.01932 0.68432 0.9151 0.0
C2901 C 0.01586 0.7097 0.90989 0.0
C2902 C 0.0207 0.61069 0.9425 0.0
C2903 C 0.99804 0.60306 0.94961 0.0
C2904 C 0.02251 0.62938 0.92652 0.0
C2905 C 0.00167 0.64104 0.91775 0.0
C2906 C 0.97893 0.63179 0.92366 0.0
C2907 C 0.97714 0.61281 0.93945 0.0
H2908 H 0.08871 0.28451 0.71319 0.0
H2909 H 0.11594 0.2628 0.65042 0.0
H2910 H 0.12965 0.28577 0.72893 0.0
H2911 H 0.15711 0.26381 0.66628 0.0
H2912 H 0.23041 0.28998 0.69978 0.0
H2913 H 0.19005 0.29068 0.682 0.0
H2914 H 0.16073 0.25614 0.73954 0.0
H2915 H 0.20062 0.25564 0.75722 0.0
C2916 C 0.10344 0.28014 0.70266 0.0
C2917 C 0.09887 0.27349 0.6805 0.0
C2918 C 0.12701 0.28067 0.71177 0.0
C2919 C 0.14688 0.27462 0.69902 0.0
C2920 C 0.14239 0.26872 0.67664 0.0
C2921 C 0.11871 0.26807 0.66753 0.0
C2922 C 0.21535 0.28243 0.70858 0.0
C2923 C 0.21893 0.27282 0.73002 0.0
C2924 C 0.19217 0.28277 0.69835 0.0
C2925 C 0.1719 0.27371 0.70935 0.0
C2926 C 0.17567 0.26377 0.73064 0.0
C2927 C 0.19873 0.2633 0.74076 0.0
H2928 H 0.54758 0.71544 0.10537 0.0
H2929 H 0.51385 0.67336 0.15649 0.0
H2930 H 0.54989 0.67743 0.08318 0.0
H2931 H 0.51776 0.63445 0.13526 0.0
H2932 H 0.50494 0.57219 0.0851 0.0
H2933 H 0.50361 0.61026 0.10729 0.0
H2934 H 0.56504 0.64016 0.0737 0.0
H2935 H 0.56472 0.60271 0.05023 0.0
C2936 C 0.54062 0.69787 0.11184 0.0
C2937 C 0.52946 0.69759 0.13218 0.0
C2938 C 0.54236 0.67575 0.09925 0.0
C2939 C 0.53366 0.65234 0.10692 0.0
C2940 C 0.52387 0.65197 0.12809 0.0
C2941 C 0.52183 0.67428 0.14053 0.0
C2942 C 0.51814 0.58697 0.08244 0.0
C2943 C 0.53495 0.58436 0.06586 0.0
C2944 C 0.51759 0.60889 0.09543 0.0
C2945 C 0.53436 0.62875 0.0928 0.0
C2946 C 0.5514 0.62587 0.07624 0.0
C2947 C 0.55144 0.60419 0.06276 0.0
H2948 H 0.06113 0.82296 0.89589 0.0
H2949 H 0.03539 0.8075 0.82937 0.0
H2950 H 0.10109 0.83235 0.88264 0.0
H2951 H 0.07552 0.816 0.81616 0.0
H2952 H 0.14638 0.84611 0.79522 0.0
H2953 H 0.10621 0.84709 0.81026 0.0
H2954 H 0.13343 0.80867 0.86857 0.0
H2955 H 0.17343 0.8082 0.85374 0.0
C2956 C 0.06402 0.82158 0.87843 0.0
C2957 C 0.0452 0.8143 0.86368 0.0
C2958 C 0.08694 0.82688 0.87084 0.0
C2959 C 0.09159 0.82481 0.84835 0.0
C2960 C 0.07253 0.81817 0.83355 0.0
C2961 C 0.04956 0.81307 0.84113 0.0
C2962 C 0.14378 0.83829 0.81141 0.0
C2963 C 0.16301 0.82702 0.82328 0.0
C2964 C 0.12077 0.83871 0.81998 0.0
C2965 C 0.1165 0.82769 0.84051 0.0
C2966 C 0.13606 0.81762 0.85284 0.0
C2967 C 0.15906 0.81736 0.84434 0.0
H2968 H 0.00631 0.31571 0.58553 0.0
H2969 H 0.03001 0.34876 0.6476 0.0
H2970 H 0.00974 0.35606 0.56782 0.0
H2971 H 0.03182 0.39039 0.62996 0.0
H2972 H 0.05429 0.45756 0.58686 0.0
H2973 H 0.05115 0.41769 0.60663 0.0
H2974 H 0.99307 0.3943 0.56168 0.0
H2975 H 0.99759 0.43339 0.54114 0.0
C2976 C 0.012 0.33173 0.59559 0.0
C2977 C 0.01787 0.32876 0.61814 0.0
C2978 C 0.01368 0.35524 0.58534 0.0
C2979 C 0.02067 0.37704 0.5973 0.0
C2980 C 0.02658 0.37417 0.61997 0.0
C2981 C 0.02542 0.35028 0.63021 0.0
C2982 C 0.04087 0.44381 0.58121 0.0
C2983 C 0.02636 0.44855 0.56225 0.0
C2984 C 0.03892 0.42092 0.5927 0.0
C2985 C 0.02202 0.40225 0.58583 0.0
C2986 C 0.0069 0.40758 0.56726 0.0
C2987 C 0.00929 0.43019 0.55547 0.0
H2988 H 0.46784 0.26252 0.35356 0.0
H2989 H 0.41574 0.29087 0.398 0.0
H2990 H 0.43717 0.23595 0.33558 0.0
H2991 H 0.38409 0.26678 0.37865 0.0
H2992 H 0.3725 0.23111 0.28727 0.0
H2993 H 0.40717 0.23944 0.31078 0.0
H2994 H 0.36341 0.23169 0.36798 0.0
H2995 H 0.328 0.22541 0.34385 0.0
C2996 C 0.44953 0.26333 0.35909 0.0
C2997 C 0.44365 0.27925 0.37644 0.0
C2998 C 0.43189 0.24817 0.34881 0.0
C2999 C 0.4078 0.24938 0.3552 0.0
C3000 C 0.40234 0.26477 0.37332 0.0
C3001 C 0.42029 0.2791 0.38418 0.0
C3002 C 0.37034 0.23044 0.30488 0.0
C3003 C 0.34744 0.22844 0.31372 0.0
C3004 C 0.39043 0.2352 0.31857 0.0
C3005 C 0.38813 0.2374 0.34147 0.0
C3006 C 0.36572 0.2315 0.3504 0.0
C3007 C 0.34545 0.22744 0.33661 0.0
H3008 H 0.41945 0.54134 0.38358 0.0
H3009 H 0.47022 0.48621 0.36183 0.0
H3010 H 0.44588 0.55147 0.41516 0.0
H3011 H 0.49589 0.49437 0.39441 0.0
H3012 H 0.54444 0.51787 0.45058 0.0
H3013 H 0.52237 0.51841 0.41518 0.0
H3014 H 0.45706 0.53648 0.44851 0.0
H3015 H 0.47944 0.53795 0.4831 0.0
C3016 C 0.43629 0.53128 0.38576 0.0
C3017 C 0.44286 0.51299 0.37045 0.0
C3018 C 0.45143 0.53687 0.40397 0.0
C3019 C 0.47309 0.52355 0.40778 0.0
C3020 C 0.47972 0.50547 0.39205 0.0
C3021 C 0.46492 0.50054 0.37343 0.0
C3022 C 0.52551 0.5227 0.45011 0.0
C3023 C 0.51374 0.52796 0.46962 0.0
C3024 C 0.5127 0.52264 0.42985 0.0
C3025 C 0.48767 0.52713 0.42874 0.0
C3026 C 0.47628 0.53341 0.4483 0.0
C3027 C 0.48919 0.53416 0.46836 0.0
H3028 H 0.2908 0.69287 0.05625 0.0
H3029 H 0.26801 0.61855 0.07695 0.0
H3030 H 0.28584 0.70884 0.09348 0.0
H3031 H 0.26265 0.63459 0.11398 0.0
H3032 H 0.2773 0.66838 0.18309 0.0
H3033 H 0.28394 0.6511 0.14664 0.0
H3034 H 0.2522 0.7178 0.11705 0.0
H3035 H 0.24554 0.73507 0.1535 0.0
C3036 C 0.28498 0.67989 0.06879 0.0
C3037 C 0.27976 0.65447 0.06363 0.0
C3038 C 0.28189 0.68909 0.09007 0.0
C3039 C 0.27356 0.67306 0.10666 0.0
C3040 C 0.26922 0.64742 0.10166 0.0
C3041 C 0.27226 0.63824 0.08039 0.0
C3042 C 0.27132 0.67915 0.16881 0.0
C3043 C 0.26088 0.70312 0.17123 0.0
C3044 C 0.27525 0.66929 0.14791 0.0
C3045 C 0.26886 0.68319 0.12892 0.0
C3046 C 0.25784 0.70686 0.13134 0.0
C3047 C 0.2539 0.7167 0.15223 0.0
H3048 H 0.10193 0.50201 0.85691 0.0
H3049 H 0.16155 0.51745 0.9027 0.0
H3050 H 0.07699 0.49011 0.88754 0.0
H3051 H 0.13659 0.50594 0.93311 0.0
H3052 H 0.0345 0.5085 0.95052 0.0
H3053 H 0.05796 0.51098 0.91765 0.0
H3054 H 0.11623 0.47143 0.9512 0.0
H3055 H 0.0928 0.4694 0.98443 0.0
C3056 C 0.10976 0.50286 0.87345 0.0
C3057 C 0.1338 0.51078 0.87722 0.0
C3058 C 0.09543 0.49604 0.89104 0.0
C3059 C 0.10478 0.49694 0.91284 0.0
C3060 C 0.12889 0.50454 0.91655 0.0
C3061 C 0.14317 0.51137 0.89903 0.0
C3062 C 0.05209 0.49976 0.95077 0.0
C3063 C 0.06182 0.4889 0.9702 0.0
C3064 C 0.06556 0.50114 0.93183 0.0
C3065 C 0.08916 0.49174 0.93181 0.0
C3066 C 0.09827 0.47929 0.95077 0.0
C3067 C 0.08472 0.47782 0.96975 0.0
H3068 H 0.29675 0.37995 0.55174 0.0
H3069 H 0.30573 0.45201 0.58483 0.0
H3070 H 0.29942 0.35831 0.58697 0.0
H3071 H 0.30842 0.43012 0.62036 0.0
H3072 H 0.34178 0.37419 0.674 0.0
H3073 H 0.33758 0.39913 0.64015 0.0
H3074 H 0.27453 0.35532 0.62045 0.0
H3075 H 0.27832 0.3309 0.65414 0.0
C3076 C 0.29915 0.39119 0.56657 0.0
C3077 C 0.30097 0.41767 0.56554 0.0
C3078 C 0.30061 0.37879 0.58675 0.0
C3079 C 0.30411 0.39255 0.60637 0.0
C3080 C 0.30588 0.41908 0.60543 0.0
C3081 C 0.30414 0.43157 0.58516 0.0
C3082 C 0.32692 0.37007 0.66252 0.0
C3083 C 0.31068 0.35021 0.66658 0.0
C3084 C 0.3245 0.38436 0.6432 0.0
C3085 C 0.30587 0.37895 0.62762 0.0
C3086 C 0.28933 0.35958 0.63198 0.0
C3087 C 0.29163 0.34548 0.65124 0.0
H3088 H 0.47307 0.5219 0.25219 0.0
H3089 H 0.40368 0.49324 0.22898 0.0
H3090 H 0.4883 0.51724 0.21536 0.0
H3091 H 0.41875 0.48912 0.19201 0.0
H3092 H 0.46338 0.45586 0.13642 0.0
H3093 H 0.44655 0.46253 0.17257 0.0
H3094 H 0.48488 0.53381 0.17858 0.0
H3095 H 0.50176 0.52704 0.14278 0.0
C3096 C 0.46094 0.51504 0.23914 0.0
C3097 C 0.43719 0.50791 0.24351 0.0
C3098 C 0.46966 0.51239 0.218 0.0
C3099 C 0.45479 0.50262 0.20075 0.0
C3100 C 0.43079 0.49626 0.205 0.0
C3101 C 0.42209 0.49888 0.22615 0.0
C3102 C 0.46812 0.47295 0.14549 0.0
C3103 C 0.48418 0.4907 0.1369 0.0
C3104 C 0.45842 0.47685 0.16614 0.0
C3105 C 0.46447 0.49867 0.17854 0.0
C3106 C 0.48023 0.51657 0.16972 0.0
C3107 C 0.48994 0.51264 0.14918 0.0
H3108 H 0.2788 0.69424 0.95604 0.0
H3109 H 0.27985 0.63123 0.91066 0.0
H3110 H 0.28214 0.72365 0.92524 0.0
H3111 H 0.28311 0.66055 0.88014 0.0
H3112 H 0.31248 0.71738 0.83255 0.0
H3113 H 0.31264 0.69128 0.86549 0.0
H3114 H 0.25695 0.73758 0.89206 0.0
H3115 H 0.2567 0.76387 0.85897 0.0
C3116 C 0.27988 0.68661 0.93957 0.0
C3117 C 0.27917 0.66028 0.93594 0.0
C3118 C 0.28166 0.7035 0.92192 0.0
C3119 C 0.28304 0.69445 0.90026 0.0
C3120 C 0.28248 0.66816 0.89665 0.0
C3121 C 0.28048 0.65133 0.91421 0.0
C3122 C 0.30049 0.72232 0.84552 0.0
C3123 C 0.28449 0.74272 0.84301 0.0
C3124 C 0.30048 0.70719 0.86435 0.0
C3125 C 0.28462 0.71215 0.88129 0.0
C3126 C 0.26946 0.73331 0.87934 0.0
C3127 C 0.26931 0.74837 0.86037 0.0
H3128 H 0.09866 0.50717 0.75556 0.0
H3129 H 0.16991 0.52992 0.73687 0.0
H3130 H 0.08388 0.51266 0.71755 0.0
H3131 H 0.15512 0.53571 0.69909 0.0
H3132 H 0.12331 0.52137 0.62913 0.0
H3133 H 0.13914 0.51346 0.66637 0.0
H3134 H 0.07652 0.5488 0.69277 0.0
H3135 H 0.06077 0.55689 0.65557 0.0
C3136 C 0.11122 0.513 0.74331 0.0
C3137 C 0.13543 0.51816 0.74925 0.0
C3138 C 0.10272 0.51641 0.72158 0.0
C3139 C 0.11827 0.5249 0.70532 0.0
C3140 C 0.14268 0.52903 0.71114 0.0
C3141 C 0.15114 0.52575 0.73284 0.0
C3142 C 0.11312 0.5279 0.64286 0.0
C3143 C 0.09074 0.53976 0.63931 0.0
C3144 C 0.12213 0.52321 0.66423 0.0
C3145 C 0.10895 0.53021 0.68256 0.0
C3146 C 0.08687 0.54263 0.67902 0.0
C3147 C 0.0779 0.54739 0.65768 0.0
H3148 H 0.32045 0.39551 0.46146 0.0
H3149 H 0.29062 0.45178 0.41692 0.0
H3150 H 0.3128 0.36297 0.4339 0.0
H3151 H 0.28358 0.41907 0.38904 0.0
H3152 H 0.24046 0.3503 0.36192 0.0
H3153 H 0.25405 0.38428 0.38672 0.0
H3154 H 0.32183 0.34598 0.39808 0.0
H3155 H 0.30805 0.31189 0.37355 0.0
C3156 C 0.31278 0.40109 0.44561 0.0
C3157 C 0.30568 0.42622 0.44159 0.0
C3158 C 0.30848 0.38238 0.42975 0.0
C3159 C 0.2971 0.38838 0.40949 0.0
C3160 C 0.29181 0.41382 0.40476 0.0
C3161 C 0.29608 0.43258 0.42066 0.0
C3162 C 0.25814 0.34908 0.36992 0.0
C3163 C 0.27304 0.32831 0.36611 0.0
C3164 C 0.26607 0.36866 0.38386 0.0
C3165 C 0.28912 0.36792 0.39417 0.0
C3166 C 0.30391 0.34698 0.39054 0.0
C3167 C 0.29593 0.32735 0.37667 0.0
H3168 H 0.31712 0.52179 0.53127 0.0
H3169 H 0.37556 0.49283 0.49404 0.0
H3170 H 0.34208 0.55811 0.54309 0.0
H3171 H 0.40049 0.52908 0.50558 0.0
H3172 H 0.44349 0.58854 0.52045 0.0
H3173 H 0.40425 0.57806 0.50464 0.0
H3174 H 0.38028 0.55635 0.5686 0.0
H3175 H 0.41952 0.5677 0.58484 0.0
C3176 C 0.33515 0.52365 0.52521 0.0
C3177 C 0.3445 0.505 0.51149 0.0
C3178 C 0.3493 0.54437 0.53191 0.0
C3179 C 0.37296 0.54666 0.5249 0.0
C3180 C 0.38203 0.52818 0.51072 0.0
C3181 C 0.368 0.5073 0.50432 0.0
C3182 C 0.42959 0.58316 0.53158 0.0
C3183 C 0.43514 0.57728 0.55378 0.0
C3184 C 0.40702 0.57698 0.52234 0.0
C3185 C 0.38988 0.56513 0.53523 0.0
C3186 C 0.3935 0.56489 0.55819 0.0
C3187 C 0.41608 0.57127 0.5675 0.0
H3188 H 0.83401 0.06946 0.4663 0.0
H3189 H 0.84145 0.10939 0.52824 0.0
H3190 H 0.87408 0.05162 0.47241 0.0
H3191 H 0.88154 0.09129 0.53435 0.0
H3192 H 0.93883 0.02871 0.54759 0.0
H3193 H 0.89874 0.04675 0.54112 0.0
H3194 H 0.91757 0.06746 0.47531 0.0
H3195 H 0.95766 0.04969 0.48177 0.0
C3196 C 0.84422 0.07454 0.48117 0.0
C3197 C 0.83449 0.09092 0.49676 0.0
C3198 C 0.8672 0.06435 0.48463 0.0
C3199 C 0.88089 0.06996 0.5039 0.0
C3200 C 0.87129 0.08644 0.51944 0.0
C3201 C 0.84842 0.09698 0.51583 0.0
C3202 C 0.93435 0.03694 0.53169 0.0
C3203 C 0.95143 0.03774 0.51519 0.0
C3204 C 0.91148 0.04745 0.52806 0.0
C3205 C 0.90508 0.05861 0.50774 0.0
C3206 C 0.92196 0.05889 0.49109 0.0
C3207 C 0.94493 0.04875 0.49482 0.0
H3208 H 0.65205 0.11586 0.3288 0.0
H3209 H 0.70394 0.07629 0.29079 0.0
H3210 H 0.67168 0.15629 0.32017 0.0
H3211 H 0.7226 0.11607 0.28104 0.0
H3212 H 0.69901 0.22576 0.28289 0.0
H3213 H 0.67837 0.1862 0.29188 0.0
H3214 H 0.74696 0.14791 0.29515 0.0
H3215 H 0.76702 0.18653 0.28486 0.0
C3216 C 0.6677 0.11594 0.31868 0.0
C3217 C 0.67705 0.09316 0.31098 0.0
C3218 C 0.67878 0.13899 0.3135 0.0
C3219 C 0.69889 0.13953 0.3 0.0
C3220 C 0.70766 0.11652 0.29197 0.0
C3221 C 0.69695 0.09366 0.2975 0.0
C3222 C 0.70949 0.20868 0.2851 0.0
C3223 C 0.73455 0.20917 0.28276 0.0
C3224 C 0.69775 0.18611 0.29057 0.0
C3225 C 0.71095 0.16374 0.29419 0.0
C3226 C 0.73603 0.16446 0.29192 0.0
C3227 C 0.7476 0.18673 0.286 0.0
H3228 H 0.70956 0.90695 0.97968 0.0
H3229 H 0.74475 0.98016 0.97921 0.0
H3230 H 0.67051 0.92746 0.97882 0.0
H3231 H 0.70551 0.0007 0.97875 0.0
H3232 H 0.60234 0.97118 0.97246 0.0
H3233 H 0.64106 0.95741 0.95945 0.0
H3234 H 0.67746 0.99926 0.01198 0.0
H3235 H 0.63866 0.01316 0.02514 0.0
C3236 C 0.70893 0.92741 0.97868 0.0
C3237 C 0.73017 0.94198 0.98012 0.0
C3238 C 0.68657 0.93915 0.97813 0.0
C3239 C 0.68514 0.96562 0.9792 0.0
C3240 C 0.70628 0.98023 0.97826 0.0
C3241 C 0.72869 0.96845 0.97843 0.0
C3242 C 0.61859 0.97769 0.98115 0.0
C3243 C 0.61749 0.99295 1.00006 0.0
C3244 C 0.64071 0.96988 0.97359 0.0
C3245 C 0.66213 0.97737 0.98466 0.0
C3246 C 0.66114 0.99354 0.00297 0.0
C3247 C 0.63897 0.00122 0.01067 0.0
H3248 H 0.4215 0.4134 0.32635 0.0
H3249 H 0.36821 0.4499 0.28419 0.0
H3250 H 0.40319 0.37187 0.31699 0.0
H3251 H 0.35058 0.40874 0.27438 0.0
H3252 H 0.34703 0.3266 0.24498 0.0
H3253 H 0.37061 0.36498 0.25441 0.0
H3254 H 0.35426 0.35568 0.32265 0.0
H3255 H 0.33037 0.31803 0.31344 0.0
C3256 C 0.40591 0.41244 0.31516 0.0
C3257 C 0.39582 0.43461 0.30632 0.0
C3258 C 0.3956 0.38888 0.30974 0.0
C3259 C 0.37581 0.38736 0.29474 0.0
C3260 C 0.36606 0.40955 0.28571 0.0
C3261 C 0.37593 0.43299 0.29153 0.0
C3262 C 0.34868 0.33269 0.26198 0.0
C3263 C 0.33662 0.31963 0.2784 0.0
C3264 C 0.36214 0.35448 0.26735 0.0
C3265 C 0.3642 0.36295 0.28926 0.0
C3266 C 0.35302 0.34929 0.30573 0.0
C3267 C 0.33919 0.32795 0.30035 0.0
H3268 H 0.2245 0.57296 0.01246 0.0
H3269 H 0.19148 0.63934 0.98404 0.0
H3270 H 0.18503 0.55545 0.01982 0.0
H3271 H 0.15176 0.62304 0.99307 0.0
H3272 H 0.08184 0.57661 0.99695 0.0
H3273 H 0.12052 0.59395 0.98638 0.0
H3274 H 0.15457 0.56052 0.04429 0.0
H3275 H 0.11616 0.54206 0.05399 0.0
C3276 C 0.20866 0.58351 0.00728 0.0
C3277 C 0.21095 0.60697 0.99682 0.0
C3278 C 0.18598 0.57383 0.01207 0.0
C3279 C 0.16498 0.5879 0.00736 0.0
C3280 C 0.16735 0.61141 0.9967 0.0
C3281 C 0.1901 0.62084 0.99156 0.0
C3282 C 0.09756 0.57333 0.00758 0.0
C3283 C 0.09596 0.55799 0.02632 0.0
C3284 C 0.11982 0.58325 0.0015 0.0
C3285 C 0.14095 0.5784 0.01424 0.0
C3286 C 0.13897 0.56407 0.03361 0.0
C3287 C 0.11684 0.55377 0.03942 0.0
H3288 H 0.6795 0.95488 0.28562 0.0
H3289 H 0.71944 0.96299 0.34755 0.0
H3290 H 0.69891 0.91428 0.2796 0.0
H3291 H 0.73868 0.92225 0.34147 0.0
H3292 H 0.74752 0.8348 0.32916 0.0
H3293 H 0.72722 0.8746 0.33734 0.0
H3294 H 0.7428 0.90245 0.2727 0.0
H3295 H 0.76319 0.86308 0.26456 0.0
C3296 C 0.69219 0.94791 0.29806 0.0
C3297 C 0.69799 0.96225 0.31702 0.0
C3298 C 0.70341 0.92474 0.29454 0.0
C3299 C 0.72038 0.91525 0.31002 0.0
C3300 C 0.72559 0.92911 0.32933 0.0
C3301 C 0.71464 0.95247 0.33272 0.0
C3302 C 0.74675 0.84951 0.31678 0.0
C3303 C 0.75696 0.84579 0.29622 0.0
C3304 C 0.73518 0.87225 0.32148 0.0
C3305 C 0.73327 0.89144 0.30556 0.0
C3306 C 0.74373 0.88782 0.28515 0.0
C3307 C 0.75558 0.86533 0.28058 0.0
H3308 H 0.82313 0.0554 0.81346 0.0
H3309 H 0.89468 0.08487 0.80298 0.0
H3310 H 0.80675 0.09765 0.80956 0.0
H3311 H 0.87794 0.12757 0.79922 0.0
H3312 H 0.83792 0.2016 0.82018 0.0
H3313 H 0.85571 0.15959 0.82442 0.0
H3314 H 0.80269 0.12921 0.77776 0.0
H3315 H 0.78499 0.17111 0.77333 0.0
C3316 C 0.83544 0.07089 0.81039 0.0
C3317 C 0.86028 0.06672 0.80853 0.0
C3318 C 0.82596 0.09508 0.80805 0.0
C3319 C 0.84107 0.11578 0.80405 0.0
C3320 C 0.86595 0.11185 0.80242 0.0
C3321 C 0.87548 0.08745 0.80446 0.0
C3322 C 0.82995 0.18591 0.81096 0.0
C3323 C 0.80997 0.1896 0.7965 0.0
C3324 C 0.84029 0.16198 0.81323 0.0
C3325 C 0.83061 0.14128 0.80136 0.0
C3326 C 0.81043 0.14488 0.78718 0.0
C3327 C 0.8003 0.16884 0.78466 0.0
loop_
_geom_bond_atom_site_label_1
_geom_bond_atom_site_label_2
_geom_bond_distance
_geom_bond_site_symmetry_2
_ccdc_geom_bond_type
Mn0 O5 2.095 . S
Mn0 O15 2.162 . S
Mn0 O16 2.297 . S
Mn0 O24 2.385 . S
Mn0 O25 2.209 . S
Mn0 O26 2.094 . S
Mn1 O6 2.121 . S
Mn1 N8 2.257 . S
Mn1 N17 2.282 . S
Mn1 O25 2.215 . S
Mn1 O27 2.117 . S
C2 O24 1.234 . S
C2 O25 1.283 . S
C3 O15 1.281 . S
C3 O16 1.236 . S
C4 O26 1.240 . S
C4 O27 1.264 . S
O5 Mn0 2.095 . S
O5 C14 1.250 . S
O6 Mn1 2.121 . S
O6 C14 1.258 . S
C7 N8 1.326 . S
C7 C11 1.460 . S
C7 H13 0.929 . S
N8 Mn1 2.257 . S
N8 C7 1.326 . S
N8 C12 1.362 . S
C9 C10 1.258 . S
C9 C12 1.431 . S
C9 C29 1.449 . S
C10 C9 1.258 . S
C10 C11 1.477 . S
C10 H30 0.931 . S
C11 C7 1.460 . S
C11 C10 1.477 . S
C11 H31 0.930 . S
C12 N8 1.362 . S
C12 C9 1.431 . S
C12 C22 1.476 . S
H13 C7 0.929 . S
C14 O5 1.250 . S
C14 O6 1.258 . S
O15 Mn0 2.162 . S
O15 C3 1.281 . S
O16 Mn0 2.297 . S
O16 C3 1.236 . S
N17 Mn1 2.282 . S
N17 C18 1.328 1_455 S
N17 C22 1.318 . S
C18 N17 1.328 1_655 S
C18 C19 1.457 . S
C18 H23 0.929 . S
C19 C18 1.457 . S
C19 C20 1.291 . S
C19 H32 0.931 . S
C20 C19 1.291 . S
C20 C21 1.373 . S
C20 H33 0.929 . S
C21 C20 1.373 . S
C21 C22 1.396 1_655 S
C21 C28 1.403 . S
C22 C12 1.476 . S
C22 N17 1.318 . S
C22 C21 1.396 1_455 S
H23 C18 0.929 . S
O24 Mn0 2.385 . S
O24 C2 1.234 . S
O25 Mn0 2.209 . S
O25 Mn1 2.215 . S
O25 C2 1.283 . S
O26 Mn0 2.094 . S
O26 C4 1.240 . S
O27 Mn1 2.117 . S
O27 C4 1.264 . S
C28 C21 1.403 . S
C28 C29 1.399 1_655 S
C28 H34 0.929 . S
C29 C9 1.449 . S
C29 C28 1.399 1_455 S
C29 H35 0.930 . S
H30 C10 0.931 . S
H31 C11 0.930 . S
H32 C19 0.931 . S
H33 C20 0.929 . S
H34 C28 0.929 . S
H35 C29 0.930 . S
Mn36 O41 2.095 . S
Mn36 O51 2.162 . S
Mn36 O52 2.297 . S
Mn36 O60 2.385 . S
Mn36 O61 2.209 . S
Mn36 O62 2.094 . S
Mn37 O42 2.121 1_655 S
Mn37 N44 2.255 1_655 S
Mn37 N53 2.282 . S
Mn37 O61 2.215 1_655 S
Mn37 O63 2.117 . S
C38 O60 1.234 . S
C38 O61 1.283 . S
C39 O51 1.281 . S
C39 O52 1.236 . S
C40 O62 1.240 1_655 S
C40 O63 1.264 . S
O41 Mn36 2.095 . S
O41 C50 1.250 . S
O42 Mn37 2.121 1_455 S
O42 C50 1.258 . S
C43 N44 1.332 . S
C43 C47 1.460 . S
C43 H49 0.929 . S
N44 Mn37 2.255 1_455 S
N44 C43 1.332 . S
N44 C48 1.357 1_455 S
C45 C46 1.258 1_655 S
C45 C48 1.431 . S
C45 C65 1.449 . S
C46 C45 1.258 1_455 S
C46 C47 1.477 . S
C46 H66 0.931 . S
C47 C43 1.460 . S
C47 C46 1.477 . S
C47 H67 0.930 . S
C48 N44 1.357 1_655 S
C48 C45 1.431 . S
C48 C58 1.476 . S
H49 C43 0.929 . S
C50 O41 1.250 . S
C50 O42 1.258 . S
O51 Mn36 2.162 . S
O51 C39 1.281 . S
O52 Mn36 2.297 . S
O52 C39 1.236 . S
N53 Mn37 2.282 . S
N53 C54 1.328 . S
N53 C58 1.318 . S
C54 N53 1.328 . S
C54 C55 1.457 . S
C54 H59 0.929 . S
C55 C54 1.457 . S
C55 C56 1.291 . S
C55 H68 0.931 . S
C56 C55 1.291 . S
C56 C57 1.373 . S
C56 H69 0.929 . S
C57 C56 1.373 . S
C57 C58 1.396 . S
C57 C64 1.403 . S
C58 C48 1.476 . S
C58 N53 1.318 . S
C58 C57 1.396 . S
H59 C54 0.929 . S
O60 Mn36 2.385 . S
O60 C38 1.234 . S
O61 Mn36 2.209 . S
O61 Mn37 2.215 1_455 S
O61 C38 1.283 . S
O62 Mn36 2.094 . S
O62 C40 1.240 1_455 S
O63 Mn37 2.117 . S
O63 C40 1.264 . S
C64 C57 1.403 . S
C64 C65 1.399 . S
C64 H70 0.929 . S
C65 C45 1.449 . S
C65 C64 1.399 . S
C65 H71 0.930 . S
H66 C46 0.931 . S
H67 C47 0.930 . S
H68 C55 0.931 . S
H69 C56 0.929 . S
H70 C64 0.929 . S
H71 C65 0.930 . S
Mn72 O77 2.095 . S
Mn72 O87 2.162 . S
Mn72 O88 2.297 . S
Mn72 O96 2.385 . S
Mn72 O97 2.209 . S
Mn72 O98 2.094 . S
Mn73 O78 2.121 . S
Mn73 N80 2.257 . S
Mn73 N89 2.282 . S
Mn73 O97 2.215 . S
Mn73 O99 2.117 . S
C74 O96 1.234 . S
C74 O97 1.283 . S
C75 O87 1.281 . S
C75 O88 1.236 . S
C76 O98 1.240 . S
C76 O99 1.264 . S
O77 Mn72 2.095 . S
O77 C86 1.250 . S
O78 Mn73 2.121 . S
O78 C86 1.258 . S
C79 N80 1.326 . S
C79 C83 1.460 . S
C79 H85 0.929 . S
N80 Mn73 2.257 . S
N80 C79 1.326 . S
N80 C84 1.362 . S
C81 C82 1.258 . S
C81 C84 1.431 . S
C81 C101 1.449 . S
C82 C81 1.258 . S
C82 C83 1.477 . S
C82 H102 0.931 . S
C83 C79 1.460 . S
C83 C82 1.477 . S
C83 H103 0.930 . S
C84 N80 1.362 . S
C84 C81 1.431 . S
C84 C94 1.476 . S
H85 C79 0.929 . S
C86 O77 1.250 . S
C86 O78 1.258 . S
O87 Mn72 2.162 . S
O87 C75 1.281 . S
O88 Mn72 2.297 . S
O88 C75 1.236 . S
N89 Mn73 2.282 . S
N89 C90 1.328 . S
N89 C94 1.318 . S
C90 N89 1.328 . S
C90 C91 1.457 . S
C90 H95 0.929 . S
C91 C90 1.457 . S
C91 C92 1.291 . S
C91 H104 0.931 . S
C92 C91 1.291 . S
C92 C93 1.373 . S
C92 H105 0.929 . S
C93 C92 1.373 . S
C93 C94 1.396 . S
C93 C100 1.403 . S
C94 C84 1.476 . S
C94 N89 1.318 . S
C94 C93 1.396 . S
H95 C90 0.929 . S
O96 Mn72 2.385 . S
O96 C74 1.234 . S
O97 Mn72 2.209 . S
O97 Mn73 2.215 . S
O97 C74 1.283 . S
O98 Mn72 2.094 . S
O98 C76 1.240 . S
O99 Mn73 2.117 . S
O99 C76 1.264 . S
C100 C93 1.403 . S
C100 C101 1.399 . S
C100 H106 0.929 . S
C101 C81 1.449 . S
C101 C100 1.399 . S
C101 H107 0.930 . S
H102 C82 0.931 . S
H103 C83 0.930 . S
H104 C91 0.931 . S
H105 C92 0.929 . S
H106 C100 0.929 . S
H107 C101 0.930 . S
Mn108 O113 2.095 . S
Mn108 O123 2.162 . S
Mn108 O124 2.297 . S
Mn108 O132 2.385 . S
Mn108 O133 2.209 . S
Mn108 O134 2.094 . S
Mn109 O114 2.121 . S
Mn109 N116 2.257 . S
Mn109 N125 2.282 . S
Mn109 O133 2.215 . S
Mn109 O135 2.117 . S
C110 O132 1.234 . S
C110 O133 1.283 . S
C111 O123 1.281 . S
C111 O124 1.236 . S
C112 O134 1.240 . S
C112 O135 1.264 . S
O113 Mn108 2.095 . S
O113 C122 1.250 . S
O114 Mn109 2.121 . S
O114 C122 1.258 . S
C115 N116 1.326 . S
C115 C119 1.460 1_556 S
C115 H121 0.929 . S
N116 Mn109 2.257 . S
N116 C115 1.326 . S
N116 C120 1.362 . S
C117 C118 1.258 1_556 S
C117 C120 1.431 . S
C117 C137 1.440 1_556 S
C118 C117 1.258 1_554 S
C118 C119 1.477 . S
C118 H138 0.931 . S
C119 C115 1.460 1_554 S
C119 C118 1.477 . S
C119 H139 0.930 . S
C120 N116 1.362 . S
C120 C117 1.431 . S
C120 C130 1.476 . S
H121 C115 0.929 . S
C122 O113 1.250 . S
C122 O114 1.258 . S
O123 Mn108 2.162 . S
O123 C111 1.281 . S
O124 Mn108 2.297 . S
O124 C111 1.236 . S
N125 Mn109 2.282 . S
N125 C126 1.328 . S
N125 C130 1.318 . S
C126 N125 1.328 . S
C126 C127 1.457 . S
C126 H131 0.929 . S
C127 C126 1.457 . S
C127 C128 1.291 . S
C127 H140 0.931 . S
C128 C127 1.291 . S
C128 C129 1.373 . S
C128 H141 0.929 . S
C129 C128 1.373 . S
C129 C130 1.396 . S
C129 C136 1.403 . S
C130 C120 1.476 . S
C130 N125 1.318 . S
C130 C129 1.396 . S
H131 C126 0.929 . S
O132 Mn108 2.385 . S
O132 C110 1.234 . S
O133 Mn108 2.209 . S
O133 Mn109 2.215 . S
O133 C110 1.283 . S
O134 Mn108 2.094 . S
O134 C112 1.240 . S
O135 Mn109 2.117 . S
O135 C112 1.264 . S
C136 C129 1.403 . S
C136 C137 1.370 1_556 S
C136 H142 0.929 . S
C137 C117 1.440 1_554 S
C137 C136 1.370 1_554 S
C137 H143 0.970 . S
H138 C118 0.931 . S
H139 C119 0.930 . S
H140 C127 0.931 . S
H141 C128 0.929 . S
H142 C136 0.929 . S
H143 C137 0.970 . S
Mn144 O149 2.095 1_545 S
Mn144 O159 2.162 . S
Mn144 O160 2.297 . S
Mn144 O168 2.385 . S
Mn144 O169 2.209 . S
Mn144 O170 2.094 . S
Mn145 O150 2.121 1_545 S
Mn145 N152 2.257 . S
Mn145 N161 2.282 . S
Mn145 O169 2.215 . S
Mn145 O171 2.117 . S
C146 O168 1.234 . S
C146 O169 1.283 . S
C147 O159 1.281 . S
C147 O160 1.236 . S
C148 O170 1.240 . S
C148 O171 1.264 . S
O149 Mn144 2.095 1_565 S
O149 C158 1.250 . S
O150 Mn145 2.121 1_565 S
O150 C158 1.258 . S
C151 N152 1.326 . S
C151 C155 1.460 . S
C151 H157 0.929 . S
N152 Mn145 2.257 . S
N152 C151 1.326 . S
N152 C156 1.362 . S
C153 C154 1.258 . S
C153 C156 1.431 . S
C153 C173 1.449 . S
C154 C153 1.258 . S
C154 C155 1.477 . S
C154 H174 0.931 . S
C155 C151 1.460 . S
C155 C154 1.477 . S
C155 H175 0.930 . S
C156 N152 1.362 . S
C156 C153 1.431 . S
C156 C166 1.476 . S
H157 C151 0.929 . S
C158 O149 1.250 . S
C158 O150 1.258 . S
O159 Mn144 2.162 . S
O159 C147 1.281 . S
O160 Mn144 2.297 . S
O160 C147 1.236 . S
N161 Mn145 2.282 . S
N161 C162 1.328 . S
N161 C166 1.318 . S
C162 N161 1.328 . S
C162 C163 1.457 . S
C162 H167 0.929 . S
C163 C162 1.457 . S
C163 C164 1.291 . S
C163 H176 0.931 . S
C164 C163 1.291 . S
C164 C165 1.373 . S
C164 H177 0.929 . S
C165 C164 1.373 . S
C165 C166 1.396 . S
C165 C172 1.403 . S
C166 C156 1.476 . S
C166 N161 1.318 . S
C166 C165 1.396 . S
H167 C162 0.929 . S
O168 Mn144 2.385 . S
O168 C146 1.234 . S
O169 Mn144 2.209 . S
O169 Mn145 2.215 . S
O169 C146 1.283 . S
O170 Mn144 2.094 . S
O170 C148 1.240 . S
O171 Mn145 2.117 . S
O171 C148 1.264 . S
C172 C165 1.403 . S
C172 C173 1.399 . S
C172 H178 0.929 . S
C173 C153 1.449 . S
C173 C172 1.399 . S
C173 H179 0.930 . S
H174 C154 0.931 . S
H175 C155 0.930 . S
H176 C163 0.931 . S
H177 C164 0.929 . S
H178 C172 0.929 . S
H179 C173 0.930 . S
Mn180 O185 2.095 . S
Mn180 O195 2.162 . S
Mn180 O196 2.297 . S
Mn180 O204 2.385 . S
Mn180 O205 2.209 . S
Mn180 O206 2.094 . S
Mn181 O186 2.121 . S
Mn181 N188 2.257 . S
Mn181 N197 2.282 . S
Mn181 O205 2.215 . S
Mn181 O207 2.117 . S
C182 O204 1.234 . S
C182 O205 1.283 . S
C183 O195 1.281 . S
C183 O196 1.236 . S
C184 O206 1.240 . S
C184 O207 1.264 . S
O185 Mn180 2.095 . S
O185 C194 1.250 . S
O186 Mn181 2.121 . S
O186 C194 1.258 . S
C187 N188 1.320 1_545 S
C187 C191 1.469 . S
C187 H193 0.927 1_545 S
N188 Mn181 2.257 . S
N188 C187 1.320 1_565 S
N188 C192 1.362 . S
C189 C190 1.258 . S
C189 C192 1.431 1_545 S
C189 C209 1.449 . S
C190 C189 1.258 . S
C190 C191 1.477 . S
C190 H210 0.931 . S
C191 C187 1.469 . S
C191 C190 1.477 . S
C191 H211 0.930 . S
C192 N188 1.362 . S
C192 C189 1.431 1_565 S
C192 C202 1.476 . S
H193 C187 0.927 1_565 S
C194 O185 1.250 . S
C194 O186 1.258 . S
O195 Mn180 2.162 . S
O195 C183 1.281 . S
O196 Mn180 2.297 . S
O196 C183 1.236 . S
N197 Mn181 2.282 . S
N197 C198 1.328 . S
N197 C202 1.318 . S
C198 N197 1.328 . S
C198 C199 1.457 . S
C198 H203 0.929 . S
C199 C198 1.457 . S
C199 C200 1.291 . S
C199 H212 0.931 . S
C200 C199 1.291 . S
C200 C201 1.373 . S
C200 H213 0.929 . S
C201 C200 1.373 . S
C201 C202 1.396 . S
C201 C208 1.403 1_565 S
C202 C192 1.476 . S
C202 N197 1.318 . S
C202 C201 1.396 . S
H203 C198 0.929 . S
O204 Mn180 2.385 . S
O204 C182 1.234 . S
O205 Mn180 2.209 . S
O205 Mn181 2.215 . S
O205 C182 1.283 . S
O206 Mn180 2.094 . S
O206 C184 1.240 . S
O207 Mn181 2.117 . S
O207 C184 1.264 . S
C208 C201 1.403 1_545 S
C208 C209 1.399 . S
C208 H214 0.929 . S
C209 C189 1.449 . S
C209 C208 1.399 . S
C209 H215 0.930 . S
H210 C190 0.931 . S
H211 C191 0.930 . S
H212 C199 0.931 . S
H213 C200 0.929 . S
H214 C208 0.929 . S
H215 C209 0.930 . S
Mn216 O221 2.095 . S
Mn216 O231 2.162 . S
Mn216 O232 2.297 . S
Mn216 O240 2.385 1_545 S
Mn216 O241 2.209 1_545 S
Mn216 O242 2.094 . S
Mn217 O222 2.121 . S
Mn217 N224 2.251 1_545 S
Mn217 N233 2.282 1_545 S
Mn217 O241 2.215 1_545 S
Mn217 O243 2.117 . S
C218 O240 1.234 . S
C218 O241 1.283 . S
C219 O231 1.281 . S
C219 O232 1.236 . S
C220 O242 1.240 . S
C220 O243 1.264 . S
O221 Mn216 2.095 . S
O221 C230 1.250 . S
O222 Mn217 2.121 . S
O222 C230 1.258 . S
C223 N224 1.312 1_545 S
C223 C227 1.460 . S
C223 H229 0.929 . S
N224 Mn217 2.251 1_565 S
N224 C223 1.312 1_565 S
N224 C228 1.384 . S
C225 C226 1.258 . S
C225 C228 1.431 . S
C225 C245 1.449 . S
C226 C225 1.258 . S
C226 C227 1.477 1_565 S
C226 H246 0.931 . S
C227 C223 1.460 . S
C227 C226 1.477 1_545 S
C227 H247 0.930 . S
C228 N224 1.384 . S
C228 C225 1.431 . S
C228 C238 1.476 . S
H229 C223 0.929 . S
C230 O221 1.250 . S
C230 O222 1.258 . S
O231 Mn216 2.162 . S
O231 C219 1.281 . S
O232 Mn216 2.297 . S
O232 C219 1.236 . S
N233 Mn217 2.282 1_565 S
N233 C234 1.328 . S
N233 C238 1.318 . S
C234 N233 1.328 . S
C234 C235 1.457 . S
C234 H239 0.929 . S
C235 C234 1.457 . S
C235 C236 1.291 . S
C235 H248 0.931 . S
C236 C235 1.291 . S
C236 C237 1.373 . S
C236 H249 0.929 . S
C237 C236 1.373 . S
C237 C238 1.396 . S
C237 C244 1.403 . S
C238 C228 1.476 . S
C238 N233 1.318 . S
C238 C237 1.396 . S
H239 C234 0.929 . S
O240 Mn216 2.385 1_565 S
O240 C218 1.234 . S
O241 Mn216 2.209 1_565 S
O241 Mn217 2.215 1_565 S
O241 C218 1.283 . S
O242 Mn216 2.094 . S
O242 C220 1.240 . S
O243 Mn217 2.117 . S
O243 C220 1.264 . S
C244 C237 1.403 . S
C244 C245 1.399 . S
C244 H250 0.929 . S
C245 C225 1.449 . S
C245 C244 1.399 . S
C245 H251 0.930 . S
H246 C226 0.931 . S
H247 C227 0.930 . S
H248 C235 0.931 . S
H249 C236 0.929 . S
H250 C244 0.929 . S
H251 C245 0.930 . S
Mn252 O257 2.095 . S
Mn252 O267 2.162 . S
Mn252 O268 2.297 . S
Mn252 O276 2.385 . S
Mn252 O277 2.209 . S
Mn252 O278 2.094 1_554 S
Mn253 O258 2.121 1_556 S
Mn253 N260 2.257 . S
Mn253 N269 2.282 . S
Mn253 O277 2.215 1_556 S
Mn253 O279 2.117 . S
C254 O276 1.234 . S
C254 O277 1.283 . S
C255 O267 1.281 . S
C255 O268 1.236 . S
C256 O278 1.240 . S
C256 O279 1.264 . S
O257 Mn252 2.095 . S
O257 C266 1.250 . S
O258 Mn253 2.121 1_554 S
O258 C266 1.258 . S
C259 N260 1.326 1_554 S
C259 C263 1.460 1_545 S
C259 H265 0.929 . S
N260 Mn253 2.257 . S
N260 C259 1.326 1_556 S
N260 C264 1.362 . S
C261 C262 1.258 1_545 S
C261 C264 1.431 . S
C261 C281 1.459 . S
C262 C261 1.258 1_565 S
C262 C263 1.477 1_556 S
C262 H282 0.931 . S
C263 C259 1.460 1_565 S
C263 C262 1.477 1_554 S
C263 H283 0.930 . S
C264 N260 1.362 . S
C264 C261 1.431 . S
C264 C274 1.476 . S
H265 C259 0.929 . S
C266 O257 1.250 . S
C266 O258 1.258 . S
O267 Mn252 2.162 . S
O267 C255 1.281 . S
O268 Mn252 2.297 . S
O268 C255 1.236 . S
N269 Mn253 2.282 . S
N269 C270 1.328 . S
N269 C274 1.318 . S
C270 N269 1.328 . S
C270 C271 1.457 . S
C270 H275 0.929 . S
C271 C270 1.457 . S
C271 C272 1.291 . S
C271 H284 0.931 . S
C272 C271 1.291 . S
C272 C273 1.373 . S
C272 H285 0.929 . S
C273 C272 1.373 . S
C273 C274 1.396 . S
C273 C280 1.403 . S
C274 C264 1.476 . S
C274 N269 1.318 . S
C274 C273 1.396 . S
H275 C270 0.929 . S
O276 Mn252 2.385 . S
O276 C254 1.234 . S
O277 Mn252 2.209 . S
O277 Mn253 2.215 1_554 S
O277 C254 1.283 . S
O278 Mn252 2.094 1_556 S
O278 C256 1.240 . S
O279 Mn253 2.117 . S
O279 C256 1.264 . S
C280 C273 1.403 . S
C280 C281 1.433 . S
C280 H286 0.929 . S
C281 C261 1.459 . S
C281 C280 1.433 . S
C281 H287 0.887 1_545 S
H282 C262 0.931 . S
H283 C263 0.930 . S
H284 C271 0.931 . S
H285 C272 0.929 . S
H286 C280 0.929 . S
H287 C281 0.887 1_565 S
Mn288 O293 2.095 . S
Mn288 O303 2.162 . S
Mn288 O304 2.297 . S
Mn288 O312 2.385 . S
Mn288 O313 2.209 . S
Mn288 O314 2.094 . S
Mn289 O294 2.121 . S
Mn289 N296 2.257 . S
Mn289 N305 2.269 1_554 S
Mn289 O313 2.215 . S
Mn289 O315 2.117 . S
C290 O312 1.234 . S
C290 O313 1.283 . S
C291 O303 1.281 . S
C291 O304 1.236 . S
C292 O314 1.240 . S
C292 O315 1.264 . S
O293 Mn288 2.095 . S
O293 C302 1.250 . S
O294 Mn289 2.121 . S
O294 C302 1.258 . S
C295 N296 1.326 . S
C295 C299 1.460 . S
C295 H301 0.929 . S
N296 Mn289 2.257 . S
N296 C295 1.326 . S
N296 C300 1.362 . S
C297 C298 1.258 . S
C297 C300 1.431 . S
C297 C317 1.449 . S
C298 C297 1.258 . S
C298 C299 1.477 . S
C298 H318 0.931 . S
C299 C295 1.460 . S
C299 C298 1.477 . S
C299 H319 0.930 . S
C300 N296 1.362 . S
C300 C297 1.431 . S
C300 C310 1.491 . S
H301 C295 0.929 . S
C302 O293 1.250 . S
C302 O294 1.258 . S
O303 Mn288 2.162 . S
O303 C291 1.281 . S
O304 Mn288 2.297 . S
O304 C291 1.236 . S
N305 Mn289 2.269 1_556 S
N305 C306 1.340 . S
N305 C310 1.317 1_556 S
C306 N305 1.340 . S
C306 C307 1.457 . S
C306 H311 0.929 . S
C307 C306 1.457 . S
C307 C308 1.291 . S
C307 H320 0.931 . S
C308 C307 1.291 . S
C308 C309 1.373 . S
C308 H321 0.929 . S
C309 C308 1.373 . S
C309 C310 1.383 1_556 S
C309 C316 1.403 . S
C310 C300 1.491 . S
C310 N305 1.317 1_554 S
C310 C309 1.383 1_554 S
H311 C306 0.929 . S
O312 Mn288 2.385 . S
O312 C290 1.234 . S
O313 Mn288 2.209 . S
O313 Mn289 2.215 . S
O313 C290 1.283 . S
O314 Mn288 2.094 . S
O314 C292 1.240 . S
O315 Mn289 2.117 . S
O315 C292 1.264 . S
C316 C309 1.403 . S
C316 C317 1.399 1_556 S
C316 H322 0.929 . S
C317 C297 1.449 . S
C317 C316 1.399 1_554 S
C317 H323 0.930 . S
H318 C298 0.931 . S
H319 C299 0.930 . S
H320 C307 0.931 . S
H321 C308 0.929 . S
H322 C316 0.929 . S
H323 C317 0.930 . S
Mn324 O329 2.095 . S
Mn324 O339 2.162 . S
Mn324 O340 2.297 . S
Mn324 O348 2.385 . S
Mn324 O349 2.209 . S
Mn324 O350 2.094 . S
Mn325 O330 2.121 . S
Mn325 N332 2.257 . S
Mn325 N341 2.282 . S
Mn325 O349 2.215 . S
Mn325 O351 2.117 . S
C326 O348 1.234 . S
C326 O349 1.283 . S
C327 O339 1.281 . S
C327 O340 1.236 . S
C328 O350 1.240 . S
C328 O351 1.264 . S
O329 Mn324 2.095 . S
O329 C338 1.250 . S
O330 Mn325 2.121 . S
O330 C338 1.258 . S
C331 N332 1.326 . S
C331 C335 1.460 . S
C331 H337 0.929 . S
N332 Mn325 2.257 . S
N332 C331 1.326 . S
N332 C336 1.362 . S
C333 C334 1.258 . S
C333 C336 1.431 . S
C333 C353 1.449 . S
C334 C333 1.258 . S
C334 C335 1.477 . S
C334 H354 0.931 . S
C335 C331 1.460 . S
C335 C334 1.477 . S
C335 H355 0.930 . S
C336 N332 1.362 . S
C336 C333 1.431 . S
C336 C346 1.476 . S
H337 C331 0.929 . S
C338 O329 1.250 . S
C338 O330 1.258 . S
O339 Mn324 2.162 . S
O339 C327 1.281 . S
O340 Mn324 2.297 . S
O340 C327 1.236 . S
N341 Mn325 2.282 . S
N341 C342 1.328 . S
N341 C346 1.318 . S
C342 N341 1.328 . S
C342 C343 1.457 . S
C342 H347 0.929 . S
C343 C342 1.457 . S
C343 C344 1.291 . S
C343 H356 0.931 . S
C344 C343 1.291 . S
C344 C345 1.373 . S
C344 H357 0.929 . S
C345 C344 1.373 . S
C345 C346 1.396 . S
C345 C352 1.403 . S
C346 C336 1.476 . S
C346 N341 1.318 . S
C346 C345 1.396 . S
H347 C342 0.929 . S
O348 Mn324 2.385 . S
O348 C326 1.234 . S
O349 Mn324 2.209 . S
O349 Mn325 2.215 . S
O349 C326 1.283 . S
O350 Mn324 2.094 . S
O350 C328 1.240 . S
O351 Mn325 2.117 . S
O351 C328 1.264 . S
C352 C345 1.403 . S
C352 C353 1.399 . S
C352 H358 0.929 . S
C353 C333 1.449 . S
C353 C352 1.399 . S
C353 H359 0.930 . S
H354 C334 0.931 . S
H355 C335 0.930 . S
H356 C343 0.931 . S
H357 C344 0.929 . S
H358 C352 0.929 . S
H359 C353 0.930 . S
Mn360 O365 2.095 . S
Mn360 O375 2.162 . S
Mn360 O376 2.297 . S
Mn360 O384 2.385 . S
Mn360 O385 2.209 . S
Mn360 O386 2.094 . S
Mn361 O366 2.121 . S
Mn361 N368 2.257 . S
Mn361 N377 2.282 . S
Mn361 O385 2.215 . S
Mn361 O387 2.117 . S
C362 O384 1.234 . S
C362 O385 1.283 . S
C363 O375 1.281 . S
C363 O376 1.236 . S
C364 O386 1.240 . S
C364 O387 1.264 . S
O365 Mn360 2.095 . S
O365 C374 1.250 . S
O366 Mn361 2.121 . S
O366 C374 1.258 . S
C367 N368 1.326 . S
C367 C371 1.460 . S
C367 H373 0.929 . S
N368 Mn361 2.257 . S
N368 C367 1.326 . S
N368 C372 1.362 . S
C369 C370 1.258 . S
C369 C372 1.431 . S
C369 C389 1.449 . S
C370 C369 1.258 . S
C370 C371 1.477 . S
C370 H390 0.931 . S
C371 C367 1.460 . S
C371 C370 1.477 . S
C371 H391 0.930 . S
C372 N368 1.362 . S
C372 C369 1.431 . S
C372 C382 1.476 . S
H373 C367 0.929 . S
C374 O365 1.250 . S
C374 O366 1.258 . S
O375 Mn360 2.162 . S
O375 C363 1.281 . S
O376 Mn360 2.297 . S
O376 C363 1.236 . S
N377 Mn361 2.282 . S
N377 C378 1.328 . S
N377 C382 1.318 . S
C378 N377 1.328 . S
C378 C379 1.457 . S
C378 H383 0.929 . S
C379 C378 1.457 . S
C379 C380 1.291 . S
C379 H392 0.931 . S
C380 C379 1.291 . S
C380 C381 1.373 . S
C380 H393 0.929 . S
C381 C380 1.373 . S
C381 C382 1.396 . S
C381 C388 1.403 . S
C382 C372 1.476 . S
C382 N377 1.318 . S
C382 C381 1.396 . S
H383 C378 0.929 . S
O384 Mn360 2.385 . S
O384 C362 1.234 . S
O385 Mn360 2.209 . S
O385 Mn361 2.215 . S
O385 C362 1.283 . S
O386 Mn360 2.094 . S
O386 C364 1.240 . S
O387 Mn361 2.117 . S
O387 C364 1.264 . S
C388 C381 1.403 . S
C388 C389 1.399 . S
C388 H394 0.929 . S
C389 C369 1.449 . S
C389 C388 1.399 . S
C389 H395 0.930 . S
H390 C370 0.931 . S
H391 C371 0.930 . S
H392 C379 0.931 . S
H393 C380 0.929 . S
H394 C388 0.929 . S
H395 C389 0.930 . S
Mn396 O401 2.095 . S
Mn396 O411 2.162 . S
Mn396 O412 2.297 . S
Mn396 O420 2.385 . S
Mn396 O421 2.209 . S
Mn396 O422 2.094 . S
Mn397 O402 2.121 . S
Mn397 N404 2.257 . S
Mn397 N413 2.282 . S
Mn397 O421 2.215 . S
Mn397 O423 2.117 . S
C398 O420 1.234 . S
C398 O421 1.283 . S
C399 O411 1.281 . S
C399 O412 1.236 . S
C400 O422 1.240 . S
C400 O423 1.264 . S
O401 Mn396 2.095 . S
O401 C410 1.250 . S
O402 Mn397 2.121 . S
O402 C410 1.258 . S
C403 N404 1.326 . S
C403 C407 1.460 . S
C403 H409 0.929 . S
N404 Mn397 2.257 . S
N404 C403 1.326 . S
N404 C408 1.362 . S
C405 C406 1.258 . S
C405 C408 1.431 . S
C405 C425 1.449 . S
C406 C405 1.258 . S
C406 C407 1.477 . S
C406 H426 0.931 . S
C407 C403 1.460 . S
C407 C406 1.477 . S
C407 H427 0.930 . S
C408 N404 1.362 . S
C408 C405 1.431 . S
C408 C418 1.476 . S
H409 C403 0.929 . S
C410 O401 1.250 . S
C410 O402 1.258 . S
O411 Mn396 2.162 . S
O411 C399 1.281 . S
O412 Mn396 2.297 . S
O412 C399 1.236 . S
N413 Mn397 2.282 . S
N413 C414 1.328 . S
N413 C418 1.318 . S
C414 N413 1.328 . S
C414 C415 1.457 . S
C414 H419 0.929 . S
C415 C414 1.457 . S
C415 C416 1.291 . S
C415 H428 0.931 . S
C416 C415 1.291 . S
C416 C417 1.373 . S
C416 H429 0.929 . S
C417 C416 1.373 . S
C417 C418 1.396 . S
C417 C424 1.403 . S
C418 C408 1.476 . S
C418 N413 1.318 . S
C418 C417 1.396 . S
H419 C414 0.929 . S
O420 Mn396 2.385 . S
O420 C398 1.234 . S
O421 Mn396 2.209 . S
O421 Mn397 2.215 . S
O421 C398 1.283 . S
O422 Mn396 2.094 . S
O422 C400 1.240 . S
O423 Mn397 2.117 . S
O423 C400 1.264 . S
C424 C417 1.403 . S
C424 C425 1.399 . S
C424 H430 0.929 . S
C425 C405 1.449 . S
C425 C424 1.399 . S
C425 H431 0.930 . S
H426 C406 0.931 . S
H427 C407 0.930 . S
H428 C415 0.931 . S
H429 C416 0.929 . S
H430 C424 0.929 . S
H431 C425 0.930 . S
Mn432 O437 2.095 1_455 S
Mn432 O447 2.162 . S
Mn432 O448 2.297 . S
Mn432 O456 2.385 . S
Mn432 O457 2.209 1_455 S
Mn432 O458 2.094 1_455 S
Mn433 O438 2.121 . S
Mn433 N440 2.257 . S
Mn433 N449 2.282 . S
Mn433 O457 2.215 . S
Mn433 O459 2.117 . S
C434 O456 1.234 . S
C434 O457 1.283 1_455 S
C435 O447 1.281 . S
C435 O448 1.236 . S
C436 O458 1.240 . S
C436 O459 1.264 . S
O437 Mn432 2.095 1_655 S
O437 C446 1.250 . S
O438 Mn433 2.121 . S
O438 C446 1.258 . S
C439 N440 1.326 . S
C439 C443 1.460 . S
C439 H445 0.929 . S
N440 Mn433 2.257 . S
N440 C439 1.326 . S
N440 C444 1.362 . S
C441 C442 1.258 1_556 S
C441 C444 1.431 . S
C441 C461 1.449 . S
C442 C441 1.258 1_554 S
C442 C443 1.477 1_554 S
C442 H462 0.931 . S
C443 C439 1.460 . S
C443 C442 1.477 1_556 S
C443 H463 0.930 1_556 S
C444 N440 1.362 . S
C444 C441 1.431 . S
C444 C454 1.476 . S
H445 C439 0.929 . S
C446 O437 1.250 . S
C446 O438 1.258 . S
O447 Mn432 2.162 . S
O447 C435 1.281 . S
O448 Mn432 2.297 . S
O448 C435 1.236 . S
N449 Mn433 2.282 . S
N449 C450 1.328 . S
N449 C454 1.318 . S
C450 N449 1.328 . S
C450 C451 1.457 . S
C450 H455 0.929 . S
C451 C450 1.457 . S
C451 C452 1.291 . S
C451 H464 0.931 . S
C452 C451 1.291 . S
C452 C453 1.373 . S
C452 H465 0.929 . S
C453 C452 1.373 . S
C453 C454 1.396 . S
C453 C460 1.403 . S
C454 C444 1.476 . S
C454 N449 1.318 . S
C454 C453 1.396 . S
H455 C450 0.929 . S
O456 Mn432 2.385 . S
O456 C434 1.234 . S
O457 Mn432 2.209 1_655 S
O457 Mn433 2.215 . S
O457 C434 1.283 1_655 S
O458 Mn432 2.094 1_655 S
O458 C436 1.240 . S
O459 Mn433 2.117 . S
O459 C436 1.264 . S
C460 C453 1.403 . S
C460 C461 1.399 . S
C460 H466 0.929 . S
C461 C441 1.449 . S
C461 C460 1.399 . S
C461 H467 0.930 1_556 S
H462 C442 0.931 . S
H463 C443 0.930 1_554 S
H464 C451 0.931 . S
H465 C452 0.929 . S
H466 C460 0.929 . S
H467 C461 0.930 1_554 S
Mn468 O473 2.095 . S
Mn468 O483 2.162 . S
Mn468 O484 2.297 . S
Mn468 O492 2.385 . S
Mn468 O493 2.209 . S
Mn468 O494 2.094 . S
Mn469 O474 2.121 1_655 S
Mn469 N476 2.257 . S
Mn469 N485 2.282 . S
Mn469 O493 2.215 1_655 S
Mn469 O495 2.117 . S
C470 O492 1.234 . S
C470 O493 1.283 . S
C471 O483 1.281 . S
C471 O484 1.236 . S
C472 O494 1.240 1_655 S
C472 O495 1.264 . S
O473 Mn468 2.095 . S
O473 C482 1.250 . S
O474 Mn469 2.121 1_455 S
O474 C482 1.258 . S
C475 N476 1.326 1_455 S
C475 C479 1.460 . S
C475 H481 0.929 . S
N476 Mn469 2.257 . S
N476 C475 1.326 1_655 S
N476 C480 1.362 . S
C477 C478 1.258 . S
C477 C480 1.431 . S
C477 C497 1.449 . S
C478 C477 1.258 . S
C478 C479 1.477 1_655 S
C478 H498 0.931 . S
C479 C475 1.460 . S
C479 C478 1.477 1_455 S
C479 H499 0.930 . S
C480 N476 1.362 . S
C480 C477 1.431 . S
C480 C490 1.476 . S
H481 C475 0.929 . S
C482 O473 1.250 . S
C482 O474 1.258 . S
O483 Mn468 2.162 . S
O483 C471 1.281 . S
O484 Mn468 2.297 . S
O484 C471 1.236 . S
N485 Mn469 2.282 . S
N485 C486 1.328 . S
N485 C490 1.318 . S
C486 N485 1.328 . S
C486 C487 1.457 . S
C486 H491 0.929 . S
C487 C486 1.457 . S
C487 C488 1.291 . S
C487 H500 0.931 . S
C488 C487 1.291 . S
C488 C489 1.373 . S
C488 H501 0.929 . S
C489 C488 1.373 . S
C489 C490 1.396 . S
C489 C496 1.403 . S
C490 C480 1.476 . S
C490 N485 1.318 . S
C490 C489 1.396 . S
H491 C486 0.929 . S
O492 Mn468 2.385 . S
O492 C470 1.234 . S
O493 Mn468 2.209 . S
O493 Mn469 2.215 1_455 S
O493 C470 1.283 . S
O494 Mn468 2.094 . S
O494 C472 1.240 1_455 S
O495 Mn469 2.117 . S
O495 C472 1.264 . S
C496 C489 1.403 . S
C496 C497 1.399 . S
C496 H502 0.929 . S
C497 C477 1.449 . S
C497 C496 1.399 . S
C497 H503 0.930 . S
H498 C478 0.931 . S
H499 C479 0.930 . S
H500 C487 0.931 . S
H501 C488 0.929 . S
H502 C496 0.929 . S
H503 C497 0.930 . S
Mn504 O509 2.095 . S
Mn504 O519 2.162 . S
Mn504 O520 2.297 . S
Mn504 O528 2.385 . S
Mn504 O529 2.209 . S
Mn504 O530 2.094 . S
Mn505 O510 2.121 . S
Mn505 N512 2.257 . S
Mn505 N521 2.282 . S
Mn505 O529 2.215 . S
Mn505 O531 2.117 . S
C506 O528 1.234 . S
C506 O529 1.283 . S
C507 O519 1.281 . S
C507 O520 1.236 . S
C508 O530 1.240 . S
C508 O531 1.264 . S
O509 Mn504 2.095 . S
O509 C518 1.250 . S
O510 Mn505 2.121 . S
O510 C518 1.258 . S
C511 N512 1.326 . S
C511 C515 1.460 . S
C511 H517 0.929 . S
N512 Mn505 2.257 . S
N512 C511 1.326 . S
N512 C516 1.362 . S
C513 C514 1.258 . S
C513 C516 1.431 . S
C513 C533 1.449 . S
C514 C513 1.258 . S
C514 C515 1.477 . S
C514 H534 0.931 . S
C515 C511 1.460 . S
C515 C514 1.477 . S
C515 H535 0.930 . S
C516 N512 1.362 . S
C516 C513 1.431 . S
C516 C526 1.476 . S
H517 C511 0.929 . S
C518 O509 1.250 . S
C518 O510 1.258 . S
O519 Mn504 2.162 . S
O519 C507 1.281 . S
O520 Mn504 2.297 . S
O520 C507 1.236 . S
N521 Mn505 2.282 . S
N521 C522 1.328 . S
N521 C526 1.318 . S
C522 N521 1.328 . S
C522 C523 1.457 . S
C522 H527 0.929 . S
C523 C522 1.457 . S
C523 C524 1.291 . S
C523 H536 0.931 . S
C524 C523 1.291 . S
C524 C525 1.373 . S
C524 H537 0.929 . S
C525 C524 1.373 . S
C525 C526 1.396 . S
C525 C532 1.403 . S
C526 C516 1.476 . S
C526 N521 1.318 . S
C526 C525 1.396 . S
H527 C522 0.929 . S
O528 Mn504 2.385 . S
O528 C506 1.234 . S
O529 Mn504 2.209 . S
O529 Mn505 2.215 . S
O529 C506 1.283 . S
O530 Mn504 2.094 . S
O530 C508 1.240 . S
O531 Mn505 2.117 . S
O531 C508 1.264 . S
C532 C525 1.403 . S
C532 C533 1.399 . S
C532 H538 0.929 . S
C533 C513 1.449 . S
C533 C532 1.399 . S
C533 H539 0.930 . S
H534 C514 0.931 . S
H535 C515 0.930 . S
H536 C523 0.931 . S
H537 C524 0.929 . S
H538 C532 0.929 . S
H539 C533 0.930 . S
Mn540 O545 2.095 . S
Mn540 O555 2.162 . S
Mn540 O556 2.297 . S
Mn540 O564 2.385 . S
Mn540 O565 2.209 . S
Mn540 O566 2.094 . S
Mn541 O546 2.121 . S
Mn541 N548 2.257 . S
Mn541 N557 2.282 . S
Mn541 O565 2.215 . S
Mn541 O567 2.117 . S
C542 O564 1.234 . S
C542 O565 1.283 . S
C543 O555 1.281 . S
C543 O556 1.236 . S
C544 O566 1.240 . S
C544 O567 1.264 . S
O545 Mn540 2.095 . S
O545 C554 1.250 . S
O546 Mn541 2.121 . S
O546 C554 1.258 . S
C547 N548 1.326 . S
C547 C551 1.460 . S
C547 H553 0.929 . S
N548 Mn541 2.257 . S
N548 C547 1.326 . S
N548 C552 1.362 . S
C549 C550 1.258 . S
C549 C552 1.431 . S
C549 C569 1.449 . S
C550 C549 1.258 . S
C550 C551 1.477 . S
C550 H570 0.931 . S
C551 C547 1.460 . S
C551 C550 1.477 . S
C551 H571 0.930 . S
C552 N548 1.362 . S
C552 C549 1.431 . S
C552 C562 1.476 . S
H553 C547 0.929 . S
C554 O545 1.250 . S
C554 O546 1.258 . S
O555 Mn540 2.162 . S
O555 C543 1.281 . S
O556 Mn540 2.297 . S
O556 C543 1.236 . S
N557 Mn541 2.282 . S
N557 C558 1.328 . S
N557 C562 1.318 . S
C558 N557 1.328 . S
C558 C559 1.457 . S
C558 H563 0.929 . S
C559 C558 1.457 . S
C559 C560 1.291 . S
C559 H572 0.931 . S
C560 C559 1.291 . S
C560 C561 1.373 . S
C560 H573 0.929 . S
C561 C560 1.373 . S
C561 C562 1.396 . S
C561 C568 1.403 . S
C562 C552 1.476 . S
C562 N557 1.318 . S
C562 C561 1.396 . S
H563 C558 0.929 . S
O564 Mn540 2.385 . S
O564 C542 1.234 . S
O565 Mn540 2.209 . S
O565 Mn541 2.215 . S
O565 C542 1.283 . S
O566 Mn540 2.094 . S
O566 C544 1.240 . S
O567 Mn541 2.117 . S
O567 C544 1.264 . S
C568 C561 1.403 . S
C568 C569 1.399 . S
C568 H574 0.929 . S
C569 C549 1.449 . S
C569 C568 1.399 . S
C569 H575 0.930 . S
H570 C550 0.931 . S
H571 C551 0.930 . S
H572 C559 0.931 . S
H573 C560 0.929 . S
H574 C568 0.929 . S
H575 C569 0.930 . S
Mn576 O581 2.095 . S
Mn576 O591 2.162 . S
Mn576 O592 2.297 . S
Mn576 O600 2.385 1_545 S
Mn576 O601 2.209 1_545 S
Mn576 O602 2.094 . S
Mn577 O582 2.121 . S
Mn577 N584 2.257 1_545 S
Mn577 N593 2.282 1_545 S
Mn577 O601 2.215 1_545 S
Mn577 O603 2.117 . S
C578 O600 1.234 . S
C578 O601 1.283 . S
C579 O591 1.281 . S
C579 O592 1.236 . S
C580 O602 1.240 . S
C580 O603 1.264 . S
O581 Mn576 2.095 . S
O581 C590 1.250 . S
O582 Mn577 2.121 . S
O582 C590 1.258 . S
C583 N584 1.326 1_545 S
C583 C587 1.460 . S
C583 H589 0.929 . S
N584 Mn577 2.257 1_565 S
N584 C583 1.326 1_565 S
N584 C588 1.362 . S
C585 C586 1.258 . S
C585 C588 1.431 . S
C585 C605 1.449 . S
C586 C585 1.258 . S
C586 C587 1.477 1_565 S
C586 H606 0.931 . S
C587 C583 1.460 . S
C587 C586 1.477 1_545 S
C587 H607 0.930 . S
C588 N584 1.362 . S
C588 C585 1.431 . S
C588 C598 1.476 . S
H589 C583 0.929 . S
C590 O581 1.250 . S
C590 O582 1.258 . S
O591 Mn576 2.162 . S
O591 C579 1.281 . S
O592 Mn576 2.297 . S
O592 C579 1.236 . S
N593 Mn577 2.282 1_565 S
N593 C594 1.328 . S
N593 C598 1.318 . S
C594 N593 1.328 . S
C594 C595 1.457 . S
C594 H599 0.929 . S
C595 C594 1.457 . S
C595 C596 1.291 . S
C595 H608 0.931 . S
C596 C595 1.291 . S
C596 C597 1.373 . S
C596 H609 0.929 . S
C597 C596 1.373 . S
C597 C598 1.396 . S
C597 C604 1.403 . S
C598 C588 1.476 . S
C598 N593 1.318 . S
C598 C597 1.396 . S
H599 C594 0.929 . S
O600 Mn576 2.385 1_565 S
O600 C578 1.234 . S
O601 Mn576 2.209 1_565 S
O601 Mn577 2.215 1_565 S
O601 C578 1.283 . S
O602 Mn576 2.094 . S
O602 C580 1.240 . S
O603 Mn577 2.117 . S
O603 C580 1.264 . S
C604 C597 1.403 . S
C604 C605 1.399 . S
C604 H610 0.929 . S
C605 C585 1.449 . S
C605 C604 1.399 . S
C605 H611 0.930 . S
H606 C586 0.931 . S
H607 C587 0.930 . S
H608 C595 0.931 . S
H609 C596 0.929 . S
H610 C604 0.929 . S
H611 C605 0.930 . S
Mn612 O617 2.095 . S
Mn612 O627 2.162 . S
Mn612 O628 2.297 . S
Mn612 O636 2.385 . S
Mn612 O637 2.209 . S
Mn612 O638 2.094 . S
Mn613 O618 2.121 . S
Mn613 N620 2.257 . S
Mn613 N629 2.282 . S
Mn613 O637 2.215 . S
Mn613 O639 2.117 . S
C614 O636 1.234 . S
C614 O637 1.283 . S
C615 O627 1.281 . S
C615 O628 1.236 . S
C616 O638 1.240 . S
C616 O639 1.264 . S
O617 Mn612 2.095 . S
O617 C626 1.250 . S
O618 Mn613 2.121 . S
O618 C626 1.258 . S
C619 N620 1.326 . S
C619 C623 1.463 1_545 S
C619 H625 0.929 . S
N620 Mn613 2.257 . S
N620 C619 1.326 . S
N620 C624 1.362 . S
C621 C622 1.258 1_545 S
C621 C624 1.431 . S
C621 C641 1.449 . S
C622 C621 1.258 1_565 S
C622 C623 1.476 . S
C622 H642 0.931 . S
C623 C619 1.463 1_565 S
C623 C622 1.476 . S
C623 H643 0.927 . S
C624 N620 1.362 . S
C624 C621 1.431 . S
C624 C634 1.476 . S
H625 C619 0.929 . S
C626 O617 1.250 . S
C626 O618 1.258 . S
O627 Mn612 2.162 . S
O627 C615 1.281 . S
O628 Mn612 2.297 . S
O628 C615 1.236 . S
N629 Mn613 2.282 . S
N629 C630 1.328 . S
N629 C634 1.318 . S
C630 N629 1.328 . S
C630 C631 1.457 . S
C630 H635 0.929 . S
C631 C630 1.457 . S
C631 C632 1.291 . S
C631 H644 0.931 . S
C632 C631 1.291 . S
C632 C633 1.373 . S
C632 H645 0.929 . S
C633 C632 1.373 . S
C633 C634 1.396 . S
C633 C640 1.403 . S
C634 C624 1.476 . S
C634 N629 1.318 . S
C634 C633 1.396 . S
H635 C630 0.929 . S
O636 Mn612 2.385 . S
O636 C614 1.234 . S
O637 Mn612 2.209 . S
O637 Mn613 2.215 . S
O637 C614 1.283 . S
O638 Mn612 2.094 . S
O638 C616 1.240 . S
O639 Mn613 2.117 . S
O639 C616 1.264 . S
C640 C633 1.403 . S
C640 C641 1.399 . S
C640 H646 0.929 . S
C641 C621 1.449 . S
C641 C640 1.399 . S
C641 H647 0.930 1_545 S
H642 C622 0.931 . S
H643 C623 0.927 . S
H644 C631 0.931 . S
H645 C632 0.929 . S
H646 C640 0.929 . S
H647 C641 0.930 1_565 S
Mn648 O653 2.095 1_545 S
Mn648 O663 2.162 . S
Mn648 O664 2.297 . S
Mn648 O672 2.385 . S
Mn648 O673 2.209 . S
Mn648 O674 2.094 . S
Mn649 O654 2.121 1_545 S
Mn649 N656 2.257 . S
Mn649 N665 2.282 . S
Mn649 O673 2.215 . S
Mn649 O675 2.117 . S
C650 O672 1.234 . S
C650 O673 1.283 . S
C651 O663 1.281 . S
C651 O664 1.236 . S
C652 O674 1.240 . S
C652 O675 1.264 . S
O653 Mn648 2.095 1_565 S
O653 C662 1.250 . S
O654 Mn649 2.121 1_565 S
O654 C662 1.258 . S
C655 N656 1.326 . S
C655 C659 1.460 . S
C655 H661 0.929 1_545 S
N656 Mn649 2.257 . S
N656 C655 1.326 . S
N656 C660 1.362 . S
C657 C658 1.258 . S
C657 C660 1.431 . S
C657 C677 1.449 . S
C658 C657 1.258 . S
C658 C659 1.477 . S
C658 H678 0.931 . S
C659 C655 1.460 . S
C659 C658 1.477 . S
C659 H679 0.930 . S
C660 N656 1.362 . S
C660 C657 1.431 . S
C660 C670 1.476 . S
H661 C655 0.929 1_565 S
C662 O653 1.250 . S
C662 O654 1.258 . S
O663 Mn648 2.162 . S
O663 C651 1.281 . S
O664 Mn648 2.297 . S
O664 C651 1.236 . S
N665 Mn649 2.282 . S
N665 C666 1.328 . S
N665 C670 1.318 . S
C666 N665 1.328 . S
C666 C667 1.457 . S
C666 H671 0.929 . S
C667 C666 1.457 . S
C667 C668 1.291 . S
C667 H680 0.931 . S
C668 C667 1.291 . S
C668 C669 1.373 . S
C668 H681 0.929 . S
C669 C668 1.373 . S
C669 C670 1.396 . S
C669 C676 1.403 . S
C670 C660 1.476 . S
C670 N665 1.318 . S
C670 C669 1.396 . S
H671 C666 0.929 . S
O672 Mn648 2.385 . S
O672 C650 1.234 . S
O673 Mn648 2.209 . S
O673 Mn649 2.215 . S
O673 C650 1.283 . S
O674 Mn648 2.094 . S
O674 C652 1.240 . S
O675 Mn649 2.117 . S
O675 C652 1.264 . S
C676 C669 1.403 . S
C676 C677 1.399 . S
C676 H682 0.929 . S
C677 C657 1.449 . S
C677 C676 1.399 . S
C677 H683 0.930 . S
H678 C658 0.931 . S
H679 C659 0.930 . S
H680 C667 0.931 . S
H681 C668 0.929 . S
H682 C676 0.929 . S
H683 C677 0.930 . S
Mn684 O689 2.095 . S
Mn684 O699 2.162 . S
Mn684 O700 2.297 . S
Mn684 O708 2.385 . S
Mn684 O709 2.209 . S
Mn684 O710 2.094 1_554 S
Mn685 O690 2.121 1_556 S
Mn685 N692 2.257 . S
Mn685 N701 2.282 . S
Mn685 O709 2.215 1_556 S
Mn685 O711 2.117 . S
C686 O708 1.234 . S
C686 O709 1.283 . S
C687 O699 1.281 . S
C687 O700 1.236 . S
C688 O710 1.240 . S
C688 O711 1.264 . S
O689 Mn684 2.095 . S
O689 C698 1.250 . S
O690 Mn685 2.121 1_554 S
O690 C698 1.258 . S
C691 N692 1.326 1_544 S
C691 C695 1.460 . S
C691 H697 0.929 . S
N692 Mn685 2.257 . S
N692 C691 1.326 1_566 S
N692 C696 1.362 . S
C693 C694 1.258 . S
C693 C696 1.431 1_545 S
C693 C713 1.449 . S
C694 C693 1.258 . S
C694 C695 1.477 1_556 S
C694 H714 0.931 . S
C695 C691 1.460 . S
C695 C694 1.477 1_554 S
C695 H715 0.930 . S
C696 N692 1.362 . S
C696 C693 1.431 1_565 S
C696 C706 1.476 . S
H697 C691 0.929 . S
C698 O689 1.250 . S
C698 O690 1.258 . S
O699 Mn684 2.162 . S
O699 C687 1.281 . S
O700 Mn684 2.297 . S
O700 C687 1.236 . S
N701 Mn685 2.282 . S
N701 C702 1.328 . S
N701 C706 1.318 . S
C702 N701 1.328 . S
C702 C703 1.457 . S
C702 H707 0.929 . S
C703 C702 1.457 . S
C703 C704 1.291 . S
C703 H716 0.931 . S
C704 C703 1.291 . S
C704 C705 1.373 . S
C704 H717 0.929 . S
C705 C704 1.373 . S
C705 C706 1.396 . S
C705 C712 1.403 1_565 S
C706 C696 1.476 . S
C706 N701 1.318 . S
C706 C705 1.396 . S
H707 C702 0.929 . S
O708 Mn684 2.385 . S
O708 C686 1.234 . S
O709 Mn684 2.209 . S
O709 Mn685 2.215 1_554 S
O709 C686 1.283 . S
O710 Mn684 2.094 1_556 S
O710 C688 1.240 . S
O711 Mn685 2.117 . S
O711 C688 1.264 . S
C712 C705 1.403 1_545 S
C712 C713 1.399 . S
C712 H718 0.929 . S
C713 C693 1.449 . S
C713 C712 1.399 . S
C713 H719 0.930 . S
H714 C694 0.931 . S
H715 C695 0.930 . S
H716 C703 0.931 . S
H717 C704 0.929 . S
H718 C712 0.929 . S
H719 C713 0.930 . S
Mn720 O725 2.095 1_554 S
Mn720 O735 2.162 . S
Mn720 O736 2.297 . S
Mn720 O744 2.385 . S
Mn720 O745 2.209 1_554 S
Mn720 O746 2.094 1_554 S
Mn721 O726 2.121 . S
Mn721 N728 2.257 . S
Mn721 N737 2.282 . S
Mn721 O745 2.215 . S
Mn721 O747 2.117 . S
C722 O744 1.236 . S
C722 O745 1.280 1_554 S
C723 O735 1.281 . S
C723 O736 1.236 . S
C724 O746 1.240 . S
C724 O747 1.264 . S
O725 Mn720 2.095 1_556 S
O725 C734 1.250 . S
O726 Mn721 2.121 . S
O726 C734 1.258 . S
C727 N728 1.326 . S
C727 C731 1.460 . S
C727 H733 0.929 . S
N728 Mn721 2.257 . S
N728 C727 1.326 . S
N728 C732 1.362 . S
C729 C730 1.258 . S
C729 C732 1.431 . S
C729 C749 1.449 . S
C730 C729 1.258 . S
C730 C731 1.477 . S
C730 H750 0.931 . S
C731 C727 1.460 . S
C731 C730 1.477 . S
C731 H751 0.930 . S
C732 N728 1.362 . S
C732 C729 1.431 . S
C732 C742 1.476 . S
H733 C727 0.929 . S
C734 O725 1.250 . S
C734 O726 1.258 . S
O735 Mn720 2.162 . S
O735 C723 1.281 . S
O736 Mn720 2.297 . S
O736 C723 1.236 . S
N737 Mn721 2.282 . S
N737 C738 1.328 . S
N737 C742 1.318 . S
C738 N737 1.328 . S
C738 C739 1.457 . S
C738 H743 0.929 . S
C739 C738 1.457 . S
C739 C740 1.291 . S
C739 H752 0.931 . S
C740 C739 1.291 . S
C740 C741 1.373 . S
C740 H753 0.929 . S
C741 C740 1.373 . S
C741 C742 1.396 . S
C741 C748 1.403 . S
C742 C732 1.476 . S
C742 N737 1.318 . S
C742 C741 1.396 . S
H743 C738 0.929 . S
O744 Mn720 2.385 . S
O744 C722 1.236 . S
O745 Mn720 2.209 1_556 S
O745 Mn721 2.215 . S
O745 C722 1.280 1_556 S
O746 Mn720 2.094 1_556 S
O746 C724 1.240 . S
O747 Mn721 2.117 . S
O747 C724 1.264 . S
C748 C741 1.403 . S
C748 C749 1.399 . S
C748 H754 0.929 . S
C749 C729 1.449 . S
C749 C748 1.399 . S
C749 H755 0.930 . S
H750 C730 0.931 . S
H751 C731 0.930 . S
H752 C739 0.931 . S
H753 C740 0.929 . S
H754 C748 0.929 . S
H755 C749 0.930 . S
Mn756 O761 2.095 . S
Mn756 O771 2.162 . S
Mn756 O772 2.297 . S
Mn756 O780 2.385 . S
Mn756 O781 2.209 . S
Mn756 O782 2.094 . S
Mn757 O762 2.121 . S
Mn757 N764 2.257 . S
Mn757 N773 2.282 . S
Mn757 O781 2.215 . S
Mn757 O783 2.117 . S
C758 O780 1.234 . S
C758 O781 1.283 . S
C759 O771 1.281 . S
C759 O772 1.236 . S
C760 O782 1.240 . S
C760 O783 1.264 . S
O761 Mn756 2.095 . S
O761 C770 1.250 . S
O762 Mn757 2.121 . S
O762 C770 1.258 . S
C763 N764 1.326 . S
C763 C767 1.460 . S
C763 H769 0.929 . S
N764 Mn757 2.257 . S
N764 C763 1.326 . S
N764 C768 1.362 . S
C765 C766 1.258 . S
C765 C768 1.431 . S
C765 C785 1.449 . S
C766 C765 1.258 . S
C766 C767 1.477 . S
C766 H786 0.931 . S
C767 C763 1.460 . S
C767 C766 1.477 . S
C767 H787 0.930 . S
C768 N764 1.362 . S
C768 C765 1.431 . S
C768 C778 1.476 . S
H769 C763 0.929 . S
C770 O761 1.250 . S
C770 O762 1.258 . S
O771 Mn756 2.162 . S
O771 C759 1.281 . S
O772 Mn756 2.297 . S
O772 C759 1.236 . S
N773 Mn757 2.282 . S
N773 C774 1.328 . S
N773 C778 1.318 . S
C774 N773 1.328 . S
C774 C775 1.457 . S
C774 H779 0.929 . S
C775 C774 1.457 . S
C775 C776 1.291 . S
C775 H788 0.931 . S
C776 C775 1.291 . S
C776 C777 1.373 . S
C776 H789 0.929 . S
C777 C776 1.373 . S
C777 C778 1.396 . S
C777 C784 1.403 . S
C778 C768 1.476 . S
C778 N773 1.318 . S
C778 C777 1.396 . S
H779 C774 0.929 . S
O780 Mn756 2.385 . S
O780 C758 1.234 . S
O781 Mn756 2.209 . S
O781 Mn757 2.215 . S
O781 C758 1.283 . S
O782 Mn756 2.094 . S
O782 C760 1.240 . S
O783 Mn757 2.117 . S
O783 C760 1.264 . S
C784 C777 1.403 . S
C784 C785 1.399 . S
C784 H790 0.929 . S
C785 C765 1.449 . S
C785 C784 1.399 . S
C785 H791 0.930 . S
H786 C766 0.931 . S
H787 C767 0.930 . S
H788 C775 0.931 . S
H789 C776 0.929 . S
H790 C784 0.929 . S
H791 C785 0.930 . S
Mn792 O797 2.095 . S
Mn792 O807 2.162 . S
Mn792 O808 2.297 . S
Mn792 O816 2.385 . S
Mn792 O817 2.209 . S
Mn792 O818 2.094 . S
Mn793 O798 2.121 . S
Mn793 N800 2.257 . S
Mn793 N809 2.282 . S
Mn793 O817 2.215 . S
Mn793 O819 2.117 . S
C794 O816 1.234 . S
C794 O817 1.283 . S
C795 O807 1.281 . S
C795 O808 1.236 . S
C796 O818 1.240 . S
C796 O819 1.264 . S
O797 Mn792 2.095 . S
O797 C806 1.250 . S
O798 Mn793 2.121 . S
O798 C806 1.258 . S
C799 N800 1.326 . S
C799 C803 1.460 . S
C799 H805 0.929 . S
N800 Mn793 2.257 . S
N800 C799 1.326 . S
N800 C804 1.362 . S
C801 C802 1.258 . S
C801 C804 1.431 . S
C801 C821 1.449 . S
C802 C801 1.258 . S
C802 C803 1.477 . S
C802 H822 0.931 . S
C803 C799 1.460 . S
C803 C802 1.477 . S
C803 H823 0.930 . S
C804 N800 1.362 . S
C804 C801 1.431 . S
C804 C814 1.476 . S
H805 C799 0.929 . S
C806 O797 1.250 . S
C806 O798 1.258 . S
O807 Mn792 2.162 . S
O807 C795 1.281 . S
O808 Mn792 2.297 . S
O808 C795 1.236 . S
N809 Mn793 2.282 . S
N809 C810 1.328 . S
N809 C814 1.318 . S
C810 N809 1.328 . S
C810 C811 1.457 . S
C810 H815 0.929 . S
C811 C810 1.457 . S
C811 C812 1.291 . S
C811 H824 0.931 . S
C812 C811 1.291 . S
C812 C813 1.373 . S
C812 H825 0.929 . S
C813 C812 1.373 . S
C813 C814 1.396 . S
C813 C820 1.403 . S
C814 C804 1.476 . S
C814 N809 1.318 . S
C814 C813 1.396 . S
H815 C810 0.929 . S
O816 Mn792 2.385 . S
O816 C794 1.234 . S
O817 Mn792 2.209 . S
O817 Mn793 2.215 . S
O817 C794 1.283 . S
O818 Mn792 2.094 . S
O818 C796 1.240 . S
O819 Mn793 2.117 . S
O819 C796 1.264 . S
C820 C813 1.403 . S
C820 C821 1.399 . S
C820 H826 0.929 . S
C821 C801 1.449 . S
C821 C820 1.399 . S
C821 H827 0.930 . S
H822 C802 0.931 . S
H823 C803 0.930 . S
H824 C811 0.931 . S
H825 C812 0.929 . S
H826 C820 0.929 . S
H827 C821 0.930 . S
Mn828 O833 2.095 . S
Mn828 O843 2.162 . S
Mn828 O844 2.297 . S
Mn828 O852 2.385 . S
Mn828 O853 2.209 . S
Mn828 O854 2.094 . S
Mn829 O834 2.121 . S
Mn829 N836 2.257 . S
Mn829 N845 2.282 . S
Mn829 O853 2.215 . S
Mn829 O855 2.117 . S
C830 O852 1.234 . S
C830 O853 1.283 . S
C831 O843 1.281 . S
C831 O844 1.236 . S
C832 O854 1.240 . S
C832 O855 1.264 . S
O833 Mn828 2.095 . S
O833 C842 1.250 . S
O834 Mn829 2.121 . S
O834 C842 1.258 . S
C835 N836 1.326 . S
C835 C839 1.460 . S
C835 H841 0.929 . S
N836 Mn829 2.257 . S
N836 C835 1.326 . S
N836 C840 1.362 . S
C837 C838 1.258 . S
C837 C840 1.431 . S
C837 C857 1.449 . S
C838 C837 1.258 . S
C838 C839 1.477 . S
C838 H858 0.931 . S
C839 C835 1.460 . S
C839 C838 1.477 . S
C839 H859 0.930 . S
C840 N836 1.362 . S
C840 C837 1.431 . S
C840 C850 1.476 . S
H841 C835 0.929 . S
C842 O833 1.250 . S
C842 O834 1.258 . S
O843 Mn828 2.162 . S
O843 C831 1.281 . S
O844 Mn828 2.297 . S
O844 C831 1.236 . S
N845 Mn829 2.282 . S
N845 C846 1.328 . S
N845 C850 1.318 . S
C846 N845 1.328 . S
C846 C847 1.457 . S
C846 H851 0.929 . S
C847 C846 1.457 . S
C847 C848 1.291 . S
C847 H860 0.931 . S
C848 C847 1.291 . S
C848 C849 1.373 . S
C848 H861 0.929 . S
C849 C848 1.373 . S
C849 C850 1.396 . S
C849 C856 1.403 . S
C850 C840 1.476 . S
C850 N845 1.318 . S
C850 C849 1.396 . S
H851 C846 0.929 . S
O852 Mn828 2.385 . S
O852 C830 1.234 . S
O853 Mn828 2.209 . S
O853 Mn829 2.215 . S
O853 C830 1.283 . S
O854 Mn828 2.094 . S
O854 C832 1.240 . S
O855 Mn829 2.117 . S
O855 C832 1.264 . S
C856 C849 1.403 . S
C856 C857 1.399 . S
C856 H862 0.929 . S
C857 C837 1.449 . S
C857 C856 1.399 . S
C857 H863 0.930 . S
H858 C838 0.931 . S
H859 C839 0.930 . S
H860 C847 0.931 . S
H861 C848 0.929 . S
H862 C856 0.929 . S
H863 C857 0.930 . S
C864 O880 1.262 1_556 S
C864 O882 1.254 . S
N865 C866 1.333 1_565 S
N865 C870 1.307 . S
N865 Zn871 2.020 1_665 S
C866 N865 1.333 1_545 S
C866 C867 1.379 . S
C866 H884 0.952 . S
C867 C866 1.379 . S
C867 C868 1.390 1_545 S
C867 H894 0.949 . S
C868 C867 1.390 1_565 S
C868 C869 1.357 . S
C869 C868 1.357 . S
C869 C870 1.370 . S
C869 H895 0.950 . S
C870 N865 1.307 . S
C870 C869 1.370 . S
C870 H888 0.948 . S
Zn871 N865 2.020 1_445 S
Zn871 O880 2.042 . S
Zn871 O886 2.034 . S
Zn871 O890 2.025 1_545 S
Zn871 O892 2.024 1_545 S
C872 O891 1.246 . S
C872 O892 1.249 . S
N873 C874 1.307 1_554 S
N873 C875 1.333 . S
N873 Zn879 2.020 . S
C874 N873 1.307 1_556 S
C874 C878 1.370 . S
C874 H885 0.948 . S
C875 N873 1.333 . S
C875 C876 1.379 . S
C875 H883 0.952 . S
C876 C875 1.379 . S
C876 C877 1.390 . S
C876 H896 0.949 . S
C877 C876 1.390 . S
C877 C878 1.357 1_554 S
C878 C874 1.370 . S
C878 C877 1.357 1_556 S
C878 H897 0.950 . S
Zn879 N873 2.020 . S
Zn879 O882 2.025 1_554 S
Zn879 O887 2.024 . S
Zn879 O889 2.039 . S
Zn879 O891 2.034 1_545 S
O880 C864 1.262 1_554 S
O880 Zn871 2.042 . S
C881 O886 1.246 . S
C881 O887 1.249 . S
O882 C864 1.254 . S
O882 Zn879 2.025 1_556 S
H883 C875 0.952 . S
H884 C866 0.952 . S
H885 C874 0.948 . S
O886 Zn871 2.034 . S
O886 C881 1.246 . S
O887 Zn879 2.024 . S
O887 C881 1.249 . S
H888 C870 0.948 . S
O889 Zn879 2.039 . S
O889 C893 1.251 . S
O890 Zn871 2.025 1_565 S
O890 C893 1.254 1_565 S
O891 C872 1.246 . S
O891 Zn879 2.034 1_565 S
O892 Zn871 2.024 1_565 S
O892 C872 1.249 . S
C893 O889 1.251 . S
C893 O890 1.254 1_545 S
H894 C867 0.949 . S
H895 C869 0.950 . S
H896 C876 0.949 . S
H897 C878 0.950 . S
C898 O914 1.251 . S
C898 O916 1.254 . S
N899 C900 1.333 . S
N899 C904 1.307 . S
N899 Zn905 2.020 . S
C900 N899 1.333 . S
C900 C901 1.379 . S
C900 H918 0.952 . S
C901 C900 1.379 . S
C901 C902 1.390 . S
C901 H928 0.949 . S
C902 C901 1.390 . S
C902 C903 1.357 . S
C903 C902 1.357 . S
C903 C904 1.370 . S
C903 H929 0.950 . S
C904 N899 1.307 . S
C904 C903 1.370 . S
C904 H922 0.948 . S
Zn905 N899 2.020 . S
Zn905 O914 2.039 . S
Zn905 O920 2.034 . S
Zn905 O924 2.025 . S
Zn905 O926 2.024 . S
C906 O925 1.246 . S
C906 O926 1.249 . S
N907 C908 1.307 . S
N907 C909 1.333 . S
N907 Zn913 2.020 . S
C908 N907 1.307 . S
C908 C912 1.370 . S
C908 H919 0.948 . S
C909 N907 1.333 . S
C909 C910 1.379 . S
C909 H917 0.952 . S
C910 C909 1.379 . S
C910 C911 1.390 . S
C910 H930 0.949 . S
C911 C910 1.390 . S
C911 C912 1.357 . S
C912 C908 1.370 . S
C912 C911 1.357 . S
C912 H931 0.950 . S
Zn913 N907 2.020 . S
Zn913 O916 2.025 . S
Zn913 O921 2.024 . S
Zn913 O923 2.039 . S
Zn913 O925 2.034 . S
O914 C898 1.251 . S
O914 Zn905 2.039 . S
C915 O920 1.246 . S
C915 O921 1.249 . S
O916 C898 1.254 . S
O916 Zn913 2.025 . S
H917 C909 0.952 . S
H918 C900 0.952 . S
H919 C908 0.948 . S
O920 Zn905 2.034 . S
O920 C915 1.246 . S
O921 Zn913 2.024 . S
O921 C915 1.249 . S
H922 C904 0.948 . S
O923 Zn913 2.039 . S
O923 C927 1.251 . S
O924 Zn905 2.025 . S
O924 C927 1.254 . S
O925 C906 1.246 . S
O925 Zn913 2.034 . S
O926 Zn905 2.024 . S
O926 C906 1.249 . S
C927 O923 1.251 . S
C927 O924 1.254 . S
H928 C901 0.949 . S
H929 C903 0.950 . S
H930 C910 0.949 . S
H931 C912 0.950 . S
C932 O948 1.232 1_545 S
C932 O950 1.254 . S
N933 C934 1.333 . S
N933 C938 1.307 . S
N933 Zn939 2.020 . S
C934 N933 1.333 . S
C934 C935 1.379 . S
C934 H952 0.952 . S
C935 C934 1.379 . S
C935 C936 1.390 . S
C935 H962 0.949 . S
C936 C935 1.390 . S
C936 C937 1.357 . S
C937 C936 1.357 . S
C937 C938 1.370 . S
C937 H963 0.950 . S
C938 N933 1.307 . S
C938 C937 1.370 . S
C938 H956 0.948 . S
Zn939 N933 2.020 . S
Zn939 O948 2.047 . S
Zn939 O954 2.034 1_565 S
Zn939 O958 2.025 . S
Zn939 O960 2.024 . S
C940 O959 1.246 1_565 S
C940 O960 1.249 . S
N941 C942 1.307 . S
N941 C943 1.333 . S
N941 Zn947 2.020 . S
C942 N941 1.307 . S
C942 C946 1.370 . S
C942 H953 0.948 . S
C943 N941 1.333 . S
C943 C944 1.379 . S
C943 H951 0.952 . S
C944 C943 1.379 . S
C944 C945 1.390 . S
C944 H964 0.949 . S
C945 C944 1.390 . S
C945 C946 1.357 . S
C946 C942 1.370 . S
C946 C945 1.357 . S
C946 H965 0.950 . S
Zn947 N941 2.020 . S
Zn947 O950 2.025 . S
Zn947 O955 2.024 . S
Zn947 O957 2.039 . S
Zn947 O959 2.034 . S
O948 C932 1.232 1_565 S
O948 Zn939 2.047 . S
C949 O954 1.246 . S
C949 O955 1.249 . S
O950 C932 1.254 . S
O950 Zn947 2.025 . S
H951 C943 0.952 . S
H952 C934 0.952 . S
H953 C942 0.948 . S
O954 Zn939 2.034 1_545 S
O954 C949 1.246 . S
O955 Zn947 2.024 . S
O955 C949 1.249 . S
H956 C938 0.948 . S
O957 Zn947 2.039 . S
O957 C961 1.231 1_545 S
O958 Zn939 2.025 . S
O958 C961 1.270 . S
O959 C940 1.246 1_545 S
O959 Zn947 2.034 . S
O960 Zn939 2.024 . S
O960 C940 1.249 . S
C961 O957 1.231 1_565 S
C961 O958 1.270 . S
H962 C935 0.949 . S
H963 C937 0.950 . S
H964 C944 0.949 . S
H965 C946 0.950 . S
C966 O982 1.251 . S
C966 O984 1.254 . S
N967 C968 1.333 . S
N967 C972 1.307 . S
N967 Zn973 2.020 . S
C968 N967 1.333 . S
C968 C969 1.379 . S
C968 H986 0.952 . S
C969 C968 1.379 . S
C969 C970 1.390 . S
C969 H996 0.949 . S
C970 C969 1.390 . S
C970 C971 1.357 . S
C971 C970 1.357 . S
C971 C972 1.370 . S
C971 H997 0.950 . S
C972 N967 1.307 . S
C972 C971 1.370 . S
C972 H990 0.948 . S
Zn973 N967 2.020 . S
Zn973 O982 2.039 . S
Zn973 O988 2.034 . S
Zn973 O992 2.025 . S
Zn973 O994 2.024 . S
C974 O993 1.246 . S
C974 O994 1.249 . S
N975 C976 1.307 . S
N975 C977 1.333 . S
N975 Zn981 2.020 . S
C976 N975 1.307 . S
C976 C980 1.370 . S
C976 H987 0.948 . S
C977 N975 1.333 . S
C977 C978 1.379 . S
C977 H985 0.952 . S
C978 C977 1.379 . S
C978 C979 1.390 . S
C978 H998 0.949 . S
C979 C978 1.390 . S
C979 C980 1.357 . S
C980 C976 1.370 . S
C980 C979 1.357 . S
C980 H999 0.950 . S
Zn981 N975 2.020 . S
Zn981 O984 2.025 . S
Zn981 O989 2.024 . S
Zn981 O991 2.039 . S
Zn981 O993 2.034 . S
O982 C966 1.251 . S
O982 Zn973 2.039 . S
C983 O988 1.246 . S
C983 O989 1.249 . S
O984 C966 1.254 . S
O984 Zn981 2.025 . S
H985 C977 0.952 . S
H986 C968 0.952 . S
H987 C976 0.948 . S
O988 Zn973 2.034 . S
O988 C983 1.246 . S
O989 Zn981 2.024 . S
O989 C983 1.249 . S
H990 C972 0.948 . S
O991 Zn981 2.039 . S
O991 C995 1.251 . S
O992 Zn973 2.025 . S
O992 C995 1.254 . S
O993 C974 1.246 . S
O993 Zn981 2.034 . S
O994 Zn973 2.024 . S
O994 C974 1.249 . S
C995 O991 1.251 . S
C995 O992 1.254 . S
H996 C969 0.949 . S
H997 C971 0.950 . S
H998 C978 0.949 . S
H999 C980 0.950 . S
C1000 O1016 1.251 1_565 S
C1000 O1018 1.254 . S
N1001 C1002 1.333 . S
N1001 C1006 1.307 . S
N1001 Zn1007 2.020 . S
C1002 N1001 1.333 . S
C1002 C1003 1.379 . S
C1002 H1020 0.952 . S
C1003 C1002 1.379 . S
C1003 C1004 1.390 . S
C1003 H1030 0.949 . S
C1004 C1003 1.390 . S
C1004 C1005 1.357 . S
C1005 C1004 1.357 . S
C1005 C1006 1.370 . S
C1005 H1031 0.950 . S
C1006 N1001 1.307 . S
C1006 C1005 1.370 . S
C1006 H1024 0.948 . S
Zn1007 N1001 2.020 . S
Zn1007 O1016 2.039 . S
Zn1007 O1022 2.034 . S
Zn1007 O1026 2.025 . S
Zn1007 O1028 2.024 1_545 S
C1008 O1027 1.246 . S
C1008 O1028 1.249 . S
N1009 C1010 1.307 . S
N1009 C1011 1.333 1_455 S
N1009 Zn1015 2.020 1_565 S
C1010 N1009 1.307 . S
C1010 C1014 1.370 . S
C1010 H1021 0.937 1_565 S
C1011 N1009 1.333 1_655 S
C1011 C1012 1.379 . S
C1011 H1019 0.952 . S
C1012 C1011 1.379 . S
C1012 C1013 1.390 . S
C1012 H1032 0.949 . S
C1013 C1012 1.390 . S
C1013 C1014 1.357 1_655 S
C1014 C1010 1.370 . S
C1014 C1013 1.357 1_455 S
C1014 H1033 0.950 . S
Zn1015 N1009 2.020 1_545 S
Zn1015 O1018 2.025 1_545 S
Zn1015 O1023 2.024 . S
Zn1015 O1025 2.039 1_455 S
Zn1015 O1027 2.034 1_545 S
O1016 C1000 1.251 1_545 S
O1016 Zn1007 2.039 . S
C1017 O1022 1.246 . S
C1017 O1023 1.249 . S
O1018 C1000 1.254 . S
O1018 Zn1015 2.025 1_565 S
H1019 C1011 0.952 . S
H1020 C1002 0.952 . S
H1021 C1010 0.937 1_545 S
O1022 Zn1007 2.034 . S
O1022 C1017 1.246 . S
O1023 Zn1015 2.024 . S
O1023 C1017 1.249 . S
H1024 C1006 0.948 . S
O1025 Zn1015 2.039 1_655 S
O1025 C1029 1.251 . S
O1026 Zn1007 2.025 . S
O1026 C1029 1.254 1_455 S
O1027 C1008 1.246 . S
O1027 Zn1015 2.034 1_565 S
O1028 Zn1007 2.024 1_565 S
O1028 C1008 1.249 . S
C1029 O1025 1.251 . S
C1029 O1026 1.254 1_655 S
H1030 C1003 0.949 . S
H1031 C1005 0.950 . S
H1032 C1012 0.949 . S
H1033 C1014 0.950 . S
C1034 O1050 1.251 . S
C1034 O1052 1.254 . S
N1035 C1036 1.333 . S
N1035 C1040 1.307 . S
N1035 Zn1041 2.020 . S
C1036 N1035 1.333 . S
C1036 C1037 1.379 . S
C1036 H1054 0.952 . S
C1037 C1036 1.379 . S
C1037 C1038 1.390 . S
C1037 H1064 0.949 . S
C1038 C1037 1.390 . S
C1038 C1039 1.357 . S
C1039 C1038 1.357 . S
C1039 C1040 1.370 . S
C1039 H1065 0.950 . S
C1040 N1035 1.307 . S
C1040 C1039 1.370 . S
C1040 H1058 0.948 . S
Zn1041 N1035 2.020 . S
Zn1041 O1050 2.039 . S
Zn1041 O1056 2.034 . S
Zn1041 O1060 2.025 . S
Zn1041 O1062 2.024 . S
C1042 O1061 1.246 . S
C1042 O1062 1.249 . S
N1043 C1044 1.307 . S
N1043 C1045 1.333 . S
N1043 Zn1049 2.020 . S
C1044 N1043 1.307 . S
C1044 C1048 1.370 . S
C1044 H1055 0.948 . S
C1045 N1043 1.333 . S
C1045 C1046 1.379 . S
C1045 H1053 0.952 . S
C1046 C1045 1.379 . S
C1046 C1047 1.390 . S
C1046 H1066 0.949 . S
C1047 C1046 1.390 . S
C1047 C1048 1.357 . S
C1048 C1044 1.370 . S
C1048 C1047 1.357 . S
C1048 H1067 0.950 . S
Zn1049 N1043 2.020 . S
Zn1049 O1052 2.025 . S
Zn1049 O1057 2.024 . S
Zn1049 O1059 2.039 . S
Zn1049 O1061 2.034 . S
O1050 C1034 1.251 . S
O1050 Zn1041 2.039 . S
C1051 O1056 1.246 . S
C1051 O1057 1.249 . S
O1052 C1034 1.254 . S
O1052 Zn1049 2.025 . S
H1053 C1045 0.952 . S
H1054 C1036 0.952 . S
H1055 C1044 0.948 . S
O1056 Zn1041 2.034 . S
O1056 C1051 1.246 . S
O1057 Zn1049 2.024 . S
O1057 C1051 1.249 . S
H1058 C1040 0.948 . S
O1059 Zn1049 2.039 . S
O1059 C1063 1.251 . S
O1060 Zn1041 2.025 . S
O1060 C1063 1.254 . S
O1061 C1042 1.246 . S
O1061 Zn1049 2.034 . S
O1062 Zn1041 2.024 . S
O1062 C1042 1.249 . S
C1063 O1059 1.251 . S
C1063 O1060 1.254 . S
H1064 C1037 0.949 . S
H1065 C1039 0.950 . S
H1066 C1046 0.949 . S
H1067 C1048 0.950 . S
C1068 O1084 1.251 . S
C1068 O1086 1.254 . S
N1069 C1070 1.333 . S
N1069 C1074 1.307 . S
N1069 Zn1075 2.020 . S
C1070 N1069 1.333 . S
C1070 C1071 1.379 . S
C1070 H1088 0.952 . S
C1071 C1070 1.379 . S
C1071 C1072 1.390 . S
C1071 H1098 0.949 . S
C1072 C1071 1.390 . S
C1072 C1073 1.357 . S
C1073 C1072 1.357 . S
C1073 C1074 1.370 . S
C1073 H1099 0.950 . S
C1074 N1069 1.307 . S
C1074 C1073 1.370 . S
C1074 H1092 0.948 . S
Zn1075 N1069 2.020 . S
Zn1075 O1084 2.039 1_545 S
Zn1075 O1090 2.034 . S
Zn1075 O1094 2.025 . S
Zn1075 O1096 2.024 . S
C1076 O1095 1.280 . S
C1076 O1096 1.249 1_565 S
N1077 C1078 1.307 . S
N1077 C1079 1.333 1_565 S
N1077 Zn1083 2.020 1_566 S
C1078 N1077 1.307 . S
C1078 C1082 1.370 . S
C1078 H1089 0.948 . S
C1079 N1077 1.333 1_545 S
C1079 C1080 1.379 . S
C1079 H1087 0.952 . S
C1080 C1079 1.379 . S
C1080 C1081 1.390 1_545 S
C1080 H1100 0.949 . S
C1081 C1080 1.390 1_565 S
C1081 C1082 1.357 . S
C1082 C1078 1.370 . S
C1082 C1081 1.357 . S
C1082 H1101 0.950 . S
Zn1083 N1077 2.020 1_544 S
Zn1083 O1086 2.025 1_545 S
Zn1083 O1091 2.024 . S
Zn1083 O1093 2.039 1_554 S
Zn1083 O1095 2.038 1_545 S
O1084 C1068 1.251 . S
O1084 Zn1075 2.039 1_565 S
C1085 O1090 1.246 . S
C1085 O1091 1.249 . S
O1086 C1068 1.254 . S
O1086 Zn1083 2.025 1_565 S
H1087 C1079 0.952 . S
H1088 C1070 0.952 . S
H1089 C1078 0.948 . S
O1090 Zn1075 2.034 . S
O1090 C1085 1.246 . S
O1091 Zn1083 2.024 . S
O1091 C1085 1.249 . S
H1092 C1074 0.948 . S
O1093 Zn1083 2.039 1_556 S
O1093 C1097 1.251 1_556 S
O1094 Zn1075 2.025 . S
O1094 C1097 1.254 . S
O1095 C1076 1.280 . S
O1095 Zn1083 2.038 1_565 S
O1096 Zn1075 2.024 . S
O1096 C1076 1.249 1_545 S
C1097 O1093 1.251 1_554 S
C1097 O1094 1.254 . S
H1098 C1071 0.949 . S
H1099 C1073 0.950 . S
H1100 C1080 0.949 . S
H1101 C1082 0.950 . S
C1102 O1118 1.251 . S
C1102 O1120 1.254 . S
N1103 C1104 1.333 . S
N1103 C1108 1.307 . S
N1103 Zn1109 2.020 . S
C1104 N1103 1.333 . S
C1104 C1105 1.379 . S
C1104 H1122 0.952 . S
C1105 C1104 1.379 . S
C1105 C1106 1.390 . S
C1105 H1132 0.949 . S
C1106 C1105 1.390 . S
C1106 C1107 1.357 . S
C1107 C1106 1.357 . S
C1107 C1108 1.370 . S
C1107 H1133 0.950 . S
C1108 N1103 1.307 . S
C1108 C1107 1.370 . S
C1108 H1126 0.948 . S
Zn1109 N1103 2.020 . S
Zn1109 O1118 2.039 . S
Zn1109 O1124 2.034 . S
Zn1109 O1128 2.025 . S
Zn1109 O1130 2.024 . S
C1110 O1129 1.246 . S
C1110 O1130 1.249 . S
N1111 C1112 1.307 . S
N1111 C1113 1.333 . S
N1111 Zn1117 2.020 . S
C1112 N1111 1.307 . S
C1112 C1116 1.370 . S
C1112 H1123 0.948 . S
C1113 N1111 1.333 . S
C1113 C1114 1.379 . S
C1113 H1121 0.952 . S
C1114 C1113 1.379 . S
C1114 C1115 1.390 . S
C1114 H1134 0.949 . S
C1115 C1114 1.390 . S
C1115 C1116 1.357 . S
C1116 C1112 1.370 . S
C1116 C1115 1.357 . S
C1116 H1135 0.950 . S
Zn1117 N1111 2.020 . S
Zn1117 O1120 2.025 . S
Zn1117 O1125 2.024 . S
Zn1117 O1127 2.039 . S
Zn1117 O1129 2.034 . S
O1118 C1102 1.251 . S
O1118 Zn1109 2.039 . S
C1119 O1124 1.246 . S
C1119 O1125 1.249 . S
O1120 C1102 1.254 . S
O1120 Zn1117 2.025 . S
H1121 C1113 0.952 . S
H1122 C1104 0.952 . S
H1123 C1112 0.948 . S
O1124 Zn1109 2.034 . S
O1124 C1119 1.246 . S
O1125 Zn1117 2.024 . S
O1125 C1119 1.249 . S
H1126 C1108 0.948 . S
O1127 Zn1117 2.039 . S
O1127 C1131 1.251 . S
O1128 Zn1109 2.025 . S
O1128 C1131 1.254 . S
O1129 C1110 1.246 . S
O1129 Zn1117 2.034 . S
O1130 Zn1109 2.024 . S
O1130 C1110 1.249 . S
C1131 O1127 1.251 . S
C1131 O1128 1.254 . S
H1132 C1105 0.949 . S
H1133 C1107 0.950 . S
H1134 C1114 0.949 . S
H1135 C1116 0.950 . S
C1136 O1152 1.251 . S
C1136 O1154 1.254 . S
N1137 C1138 1.333 . S
N1137 C1142 1.307 . S
N1137 Zn1143 2.020 1_556 S
C1138 N1137 1.333 . S
C1138 C1139 1.379 . S
C1138 H1156 0.952 . S
C1139 C1138 1.379 . S
C1139 C1140 1.390 . S
C1139 H1166 0.949 . S
C1140 C1139 1.390 . S
C1140 C1141 1.357 . S
C1141 C1140 1.357 . S
C1141 C1142 1.370 . S
C1141 H1167 0.950 . S
C1142 N1137 1.307 . S
C1142 C1141 1.370 . S
C1142 H1160 0.948 . S
Zn1143 N1137 2.020 1_554 S
Zn1143 O1152 2.039 . S
Zn1143 O1158 2.034 . S
Zn1143 O1162 2.025 1_554 S
Zn1143 O1164 2.024 1_554 S
C1144 O1163 1.246 . S
C1144 O1164 1.249 1_554 S
N1145 C1146 1.307 . S
N1145 C1147 1.333 . S
N1145 Zn1151 2.020 . S
C1146 N1145 1.307 . S
C1146 C1150 1.370 . S
C1146 H1157 0.948 . S
C1147 N1145 1.333 . S
C1147 C1148 1.379 . S
C1147 H1155 0.952 . S
C1148 C1147 1.379 . S
C1148 C1149 1.390 . S
C1148 H1168 0.949 . S
C1149 C1148 1.390 . S
C1149 C1150 1.357 . S
C1150 C1146 1.370 . S
C1150 C1149 1.357 . S
C1150 H1169 0.950 . S
Zn1151 N1145 2.020 . S
Zn1151 O1154 2.025 . S
Zn1151 O1159 2.024 . S
Zn1151 O1161 2.039 . S
Zn1151 O1163 2.034 . S
O1152 C1136 1.251 . S
O1152 Zn1143 2.039 . S
C1153 O1158 1.246 . S
C1153 O1159 1.249 . S
O1154 C1136 1.254 . S
O1154 Zn1151 2.025 . S
H1155 C1147 0.952 . S
H1156 C1138 0.952 . S
H1157 C1146 0.948 . S
O1158 Zn1143 2.034 . S
O1158 C1153 1.246 . S
O1159 Zn1151 2.024 . S
O1159 C1153 1.249 . S
H1160 C1142 0.948 . S
O1161 Zn1151 2.039 . S
O1161 C1165 1.251 . S
O1162 Zn1143 2.025 1_556 S
O1162 C1165 1.254 1_556 S
O1163 C1144 1.246 . S
O1163 Zn1151 2.034 . S
O1164 Zn1143 2.024 1_556 S
O1164 C1144 1.249 1_556 S
C1165 O1161 1.251 . S
C1165 O1162 1.254 1_554 S
H1166 C1139 0.949 . S
H1167 C1141 0.950 . S
H1168 C1148 0.949 . S
H1169 C1150 0.950 . S
C1170 O1186 1.251 . S
C1170 O1188 1.254 . S
N1171 C1172 1.333 . S
N1171 C1176 1.307 . S
N1171 Zn1177 2.020 . S
C1172 N1171 1.333 . S
C1172 C1173 1.379 . S
C1172 H1190 0.952 . S
C1173 C1172 1.379 . S
C1173 C1174 1.390 . S
C1173 H1200 0.949 . S
C1174 C1173 1.390 . S
C1174 C1175 1.357 . S
C1175 C1174 1.357 . S
C1175 C1176 1.370 . S
C1175 H1201 0.950 . S
C1176 N1171 1.307 . S
C1176 C1175 1.370 . S
C1176 H1194 0.948 . S
Zn1177 N1171 2.020 . S
Zn1177 O1186 2.039 . S
Zn1177 O1192 2.034 . S
Zn1177 O1196 2.025 . S
Zn1177 O1198 2.024 . S
C1178 O1197 1.246 . S
C1178 O1198 1.249 . S
N1179 C1180 1.307 . S
N1179 C1181 1.333 . S
N1179 Zn1185 2.020 . S
C1180 N1179 1.307 . S
C1180 C1184 1.370 . S
C1180 H1191 0.948 . S
C1181 N1179 1.333 . S
C1181 C1182 1.379 . S
C1181 H1189 0.952 . S
C1182 C1181 1.379 . S
C1182 C1183 1.390 . S
C1182 H1202 0.949 . S
C1183 C1182 1.390 . S
C1183 C1184 1.357 . S
C1184 C1180 1.370 . S
C1184 C1183 1.357 . S
C1184 H1203 0.950 . S
Zn1185 N1179 2.020 . S
Zn1185 O1188 2.025 . S
Zn1185 O1193 2.024 . S
Zn1185 O1195 2.039 . S
Zn1185 O1197 2.034 . S
O1186 C1170 1.251 . S
O1186 Zn1177 2.039 . S
C1187 O1192 1.246 . S
C1187 O1193 1.249 . S
O1188 C1170 1.254 . S
O1188 Zn1185 2.025 . S
H1189 C1181 0.952 . S
H1190 C1172 0.952 . S
H1191 C1180 0.948 . S
O1192 Zn1177 2.034 . S
O1192 C1187 1.246 . S
O1193 Zn1185 2.024 . S
O1193 C1187 1.249 . S
H1194 C1176 0.948 . S
O1195 Zn1185 2.039 . S
O1195 C1199 1.251 . S
O1196 Zn1177 2.025 . S
O1196 C1199 1.254 . S
O1197 C1178 1.246 . S
O1197 Zn1185 2.034 . S
O1198 Zn1177 2.024 . S
O1198 C1178 1.249 . S
C1199 O1195 1.251 . S
C1199 O1196 1.254 . S
H1200 C1173 0.949 . S
H1201 C1175 0.950 . S
H1202 C1182 0.949 . S
H1203 C1184 0.950 . S
C1204 O1220 1.251 . S
C1204 O1222 1.254 . S
N1205 C1206 1.333 . S
N1205 C1210 1.307 . S
N1205 Zn1211 2.020 . S
C1206 N1205 1.333 . S
C1206 C1207 1.379 . S
C1206 H1224 0.952 . S
C1207 C1206 1.379 . S
C1207 C1208 1.390 . S
C1207 H1234 0.949 . S
C1208 C1207 1.390 . S
C1208 C1209 1.357 . S
C1209 C1208 1.357 . S
C1209 C1210 1.370 . S
C1209 H1235 0.950 . S
C1210 N1205 1.307 . S
C1210 C1209 1.370 . S
C1210 H1228 0.948 . S
Zn1211 N1205 2.020 . S
Zn1211 O1220 2.039 . S
Zn1211 O1226 2.034 . S
Zn1211 O1230 2.025 . S
Zn1211 O1232 2.024 . S
C1212 O1231 1.246 . S
C1212 O1232 1.249 . S
N1213 C1214 1.307 1_455 S
N1213 C1215 1.333 . S
N1213 Zn1219 2.020 . S
C1214 N1213 1.307 1_655 S
C1214 C1218 1.370 . S
C1214 H1225 0.948 . S
C1215 N1213 1.333 . S
C1215 C1216 1.379 . S
C1215 H1223 0.952 . S
C1216 C1215 1.379 . S
C1216 C1217 1.390 1_455 S
C1216 H1236 0.949 . S
C1217 C1216 1.390 1_655 S
C1217 C1218 1.357 . S
C1218 C1214 1.370 . S
C1218 C1217 1.357 . S
C1218 H1237 0.950 . S
Zn1219 N1213 2.020 . S
Zn1219 O1222 2.025 . S
Zn1219 O1227 2.024 1_455 S
Zn1219 O1229 2.039 . S
Zn1219 O1231 2.034 . S
O1220 C1204 1.251 . S
O1220 Zn1211 2.039 . S
C1221 O1226 1.246 1_655 S
C1221 O1227 1.249 . S
O1222 C1204 1.254 . S
O1222 Zn1219 2.025 . S
H1223 C1215 0.952 . S
H1224 C1206 0.952 . S
H1225 C1214 0.948 . S
O1226 Zn1211 2.034 . S
O1226 C1221 1.246 1_455 S
O1227 Zn1219 2.024 1_655 S
O1227 C1221 1.249 . S
H1228 C1210 0.948 . S
O1229 Zn1219 2.039 . S
O1229 C1233 1.251 . S
O1230 Zn1211 2.025 . S
O1230 C1233 1.254 . S
O1231 C1212 1.246 . S
O1231 Zn1219 2.034 . S
O1232 Zn1211 2.024 . S
O1232 C1212 1.249 . S
C1233 O1229 1.251 . S
C1233 O1230 1.254 . S
H1234 C1207 0.949 . S
H1235 C1209 0.950 . S
H1236 C1216 0.949 . S
H1237 C1218 0.950 . S
C1238 O1254 1.251 . S
C1238 O1256 1.254 . S
N1239 C1240 1.333 . S
N1239 C1244 1.307 . S
N1239 Zn1245 2.020 . S
C1240 N1239 1.333 . S
C1240 C1241 1.379 . S
C1240 H1258 0.952 . S
C1241 C1240 1.379 . S
C1241 C1242 1.390 . S
C1241 H1268 0.949 . S
C1242 C1241 1.390 . S
C1242 C1243 1.357 . S
C1243 C1242 1.357 . S
C1243 C1244 1.370 . S
C1243 H1269 0.950 . S
C1244 N1239 1.307 . S
C1244 C1243 1.370 . S
C1244 H1262 0.948 . S
Zn1245 N1239 2.020 . S
Zn1245 O1254 2.039 . S
Zn1245 O1260 2.034 . S
Zn1245 O1264 2.025 . S
Zn1245 O1266 2.024 . S
C1246 O1265 1.246 . S
C1246 O1266 1.249 . S
N1247 C1248 1.307 . S
N1247 C1249 1.333 . S
N1247 Zn1253 2.020 . S
C1248 N1247 1.307 . S
C1248 C1252 1.370 . S
C1248 H1259 0.948 . S
C1249 N1247 1.333 . S
C1249 C1250 1.379 . S
C1249 H1257 0.952 . S
C1250 C1249 1.379 . S
C1250 C1251 1.390 . S
C1250 H1270 0.949 . S
C1251 C1250 1.390 . S
C1251 C1252 1.357 . S
C1252 C1248 1.370 . S
C1252 C1251 1.357 . S
C1252 H1271 0.950 . S
Zn1253 N1247 2.020 . S
Zn1253 O1256 2.025 . S
Zn1253 O1261 2.024 . S
Zn1253 O1263 2.039 . S
Zn1253 O1265 2.034 . S
O1254 C1238 1.251 . S
O1254 Zn1245 2.039 . S
C1255 O1260 1.246 . S
C1255 O1261 1.249 . S
O1256 C1238 1.254 . S
O1256 Zn1253 2.025 . S
H1257 C1249 0.952 . S
H1258 C1240 0.952 . S
H1259 C1248 0.948 . S
O1260 Zn1245 2.034 . S
O1260 C1255 1.246 . S
O1261 Zn1253 2.024 . S
O1261 C1255 1.249 . S
H1262 C1244 0.948 . S
O1263 Zn1253 2.039 . S
O1263 C1267 1.251 . S
O1264 Zn1245 2.025 . S
O1264 C1267 1.254 . S
O1265 C1246 1.246 . S
O1265 Zn1253 2.034 . S
O1266 Zn1245 2.024 . S
O1266 C1246 1.249 . S
C1267 O1263 1.251 . S
C1267 O1264 1.254 . S
H1268 C1241 0.949 . S
H1269 C1243 0.950 . S
H1270 C1250 0.949 . S
H1271 C1252 0.950 . S
C1272 O1288 1.251 . S
C1272 O1290 1.254 . S
N1273 C1274 1.333 . S
N1273 C1278 1.307 . S
N1273 Zn1279 2.020 . S
C1274 N1273 1.333 . S
C1274 C1275 1.379 . S
C1274 H1292 0.952 . S
C1275 C1274 1.379 . S
C1275 C1276 1.390 . S
C1275 H1302 0.949 . S
C1276 C1275 1.390 . S
C1276 C1277 1.357 . S
C1277 C1276 1.357 . S
C1277 C1278 1.370 . S
C1277 H1303 0.950 . S
C1278 N1273 1.307 . S
C1278 C1277 1.370 . S
C1278 H1296 0.948 . S
Zn1279 N1273 2.020 . S
Zn1279 O1288 2.039 . S
Zn1279 O1294 2.034 . S
Zn1279 O1298 2.025 . S
Zn1279 O1300 2.024 . S
C1280 O1299 1.246 . S
C1280 O1300 1.249 . S
N1281 C1282 1.307 . S
N1281 C1283 1.333 . S
N1281 Zn1287 2.020 . S
C1282 N1281 1.307 . S
C1282 C1286 1.370 . S
C1282 H1293 0.948 . S
C1283 N1281 1.333 . S
C1283 C1284 1.379 . S
C1283 H1291 0.952 . S
C1284 C1283 1.379 . S
C1284 C1285 1.390 . S
C1284 H1304 0.949 . S
C1285 C1284 1.390 . S
C1285 C1286 1.357 . S
C1286 C1282 1.370 . S
C1286 C1285 1.357 . S
C1286 H1305 0.950 . S
Zn1287 N1281 2.020 . S
Zn1287 O1290 2.025 . S
Zn1287 O1295 2.024 . S
Zn1287 O1297 2.039 . S
Zn1287 O1299 2.034 . S
O1288 C1272 1.251 . S
O1288 Zn1279 2.039 . S
C1289 O1294 1.246 . S
C1289 O1295 1.249 . S
O1290 C1272 1.254 . S
O1290 Zn1287 2.025 . S
H1291 C1283 0.952 . S
H1292 C1274 0.952 . S
H1293 C1282 0.948 . S
O1294 Zn1279 2.034 . S
O1294 C1289 1.246 . S
O1295 Zn1287 2.024 . S
O1295 C1289 1.249 . S
H1296 C1278 0.948 . S
O1297 Zn1287 2.039 . S
O1297 C1301 1.251 . S
O1298 Zn1279 2.025 . S
O1298 C1301 1.254 . S
O1299 C1280 1.246 . S
O1299 Zn1287 2.034 . S
O1300 Zn1279 2.024 . S
O1300 C1280 1.249 . S
C1301 O1297 1.251 . S
C1301 O1298 1.254 . S
H1302 C1275 0.949 . S
H1303 C1277 0.950 . S
H1304 C1284 0.949 . S
H1305 C1286 0.950 . S
C1306 O1322 1.251 . S
C1306 O1324 1.254 . S
N1307 C1308 1.333 . S
N1307 C1312 1.307 . S
N1307 Zn1313 2.020 . S
C1308 N1307 1.333 . S
C1308 C1309 1.379 . S
C1308 H1326 0.952 . S
C1309 C1308 1.379 . S
C1309 C1310 1.390 . S
C1309 H1336 0.949 . S
C1310 C1309 1.390 . S
C1310 C1311 1.357 . S
C1311 C1310 1.357 . S
C1311 C1312 1.370 . S
C1311 H1337 0.950 . S
C1312 N1307 1.307 . S
C1312 C1311 1.370 . S
C1312 H1330 0.948 . S
Zn1313 N1307 2.020 . S
Zn1313 O1322 2.039 . S
Zn1313 O1328 2.034 . S
Zn1313 O1332 2.025 . S
Zn1313 O1334 2.024 . S
C1314 O1333 1.246 . S
C1314 O1334 1.249 . S
N1315 C1316 1.307 . S
N1315 C1317 1.333 . S
N1315 Zn1321 2.020 . S
C1316 N1315 1.307 . S
C1316 C1320 1.370 . S
C1316 H1327 0.948 . S
C1317 N1315 1.333 . S
C1317 C1318 1.379 . S
C1317 H1325 0.952 . S
C1318 C1317 1.379 . S
C1318 C1319 1.390 . S
C1318 H1338 0.949 . S
C1319 C1318 1.390 . S
C1319 C1320 1.357 . S
C1320 C1316 1.370 . S
C1320 C1319 1.357 . S
C1320 H1339 0.950 . S
Zn1321 N1315 2.020 . S
Zn1321 O1324 2.025 . S
Zn1321 O1329 2.024 . S
Zn1321 O1331 2.039 . S
Zn1321 O1333 2.034 . S
O1322 C1306 1.251 . S
O1322 Zn1313 2.039 . S
C1323 O1328 1.246 . S
C1323 O1329 1.249 . S
O1324 C1306 1.254 . S
O1324 Zn1321 2.025 . S
H1325 C1317 0.952 . S
H1326 C1308 0.952 . S
H1327 C1316 0.948 . S
O1328 Zn1313 2.034 . S
O1328 C1323 1.246 . S
O1329 Zn1321 2.024 . S
O1329 C1323 1.249 . S
H1330 C1312 0.948 . S
O1331 Zn1321 2.039 . S
O1331 C1335 1.251 . S
O1332 Zn1313 2.025 . S
O1332 C1335 1.254 . S
O1333 C1314 1.246 . S
O1333 Zn1321 2.034 . S
O1334 Zn1313 2.024 . S
O1334 C1314 1.249 . S
C1335 O1331 1.251 . S
C1335 O1332 1.254 . S
H1336 C1309 0.949 . S
H1337 C1311 0.950 . S
H1338 C1318 0.949 . S
H1339 C1320 0.950 . S
C1340 O1356 1.251 . S
C1340 O1358 1.254 . S
N1341 C1342 1.333 . S
N1341 C1346 1.307 . S
N1341 Zn1347 2.020 . S
C1342 N1341 1.333 . S
C1342 C1343 1.379 . S
C1342 H1360 0.952 . S
C1343 C1342 1.379 . S
C1343 C1344 1.390 . S
C1343 H1370 0.949 . S
C1344 C1343 1.390 . S
C1344 C1345 1.357 . S
C1345 C1344 1.357 . S
C1345 C1346 1.370 . S
C1345 H1371 0.950 . S
C1346 N1341 1.307 . S
C1346 C1345 1.370 . S
C1346 H1364 0.948 . S
Zn1347 N1341 2.020 . S
Zn1347 O1356 2.039 . S
Zn1347 O1362 2.034 . S
Zn1347 O1366 2.025 . S
Zn1347 O1368 2.024 . S
C1348 O1367 1.246 . S
C1348 O1368 1.249 . S
N1349 C1350 1.307 . S
N1349 C1351 1.333 . S
N1349 Zn1355 2.020 . S
C1350 N1349 1.307 . S
C1350 C1354 1.370 . S
C1350 H1361 0.948 . S
C1351 N1349 1.333 . S
C1351 C1352 1.379 . S
C1351 H1359 0.952 . S
C1352 C1351 1.379 . S
C1352 C1353 1.390 . S
C1352 H1372 0.949 . S
C1353 C1352 1.390 . S
C1353 C1354 1.357 . S
C1354 C1350 1.370 . S
C1354 C1353 1.357 . S
C1354 H1373 0.950 . S
Zn1355 N1349 2.020 . S
Zn1355 O1358 2.025 . S
Zn1355 O1363 2.024 . S
Zn1355 O1365 2.039 . S
Zn1355 O1367 2.034 . S
O1356 C1340 1.251 . S
O1356 Zn1347 2.039 . S
C1357 O1362 1.246 . S
C1357 O1363 1.249 . S
O1358 C1340 1.254 . S
O1358 Zn1355 2.025 . S
H1359 C1351 0.952 . S
H1360 C1342 0.952 . S
H1361 C1350 0.948 . S
O1362 Zn1347 2.034 . S
O1362 C1357 1.246 . S
O1363 Zn1355 2.024 . S
O1363 C1357 1.249 . S
H1364 C1346 0.948 . S
O1365 Zn1355 2.039 . S
O1365 C1369 1.251 . S
O1366 Zn1347 2.025 . S
O1366 C1369 1.254 . S
O1367 C1348 1.246 . S
O1367 Zn1355 2.034 . S
O1368 Zn1347 2.024 . S
O1368 C1348 1.249 . S
C1369 O1365 1.251 . S
C1369 O1366 1.254 . S
H1370 C1343 0.949 . S
H1371 C1345 0.950 . S
H1372 C1352 0.949 . S
H1373 C1354 0.950 . S
C1374 O1390 1.251 . S
C1374 O1392 1.254 . S
N1375 C1376 1.333 . S
N1375 C1380 1.307 . S
N1375 Zn1381 2.020 . S
C1376 N1375 1.333 . S
C1376 C1377 1.379 . S
C1376 H1394 0.952 . S
C1377 C1376 1.379 . S
C1377 C1378 1.390 . S
C1377 H1404 0.949 . S
C1378 C1377 1.390 . S
C1378 C1379 1.357 . S
C1379 C1378 1.357 . S
C1379 C1380 1.370 . S
C1379 H1405 0.950 . S
C1380 N1375 1.307 . S
C1380 C1379 1.370 . S
C1380 H1398 0.948 . S
Zn1381 N1375 2.020 . S
Zn1381 O1390 2.039 . S
Zn1381 O1396 2.034 . S
Zn1381 O1400 2.025 . S
Zn1381 O1402 2.024 . S
C1382 O1401 1.246 . S
C1382 O1402 1.249 1_655 S
N1383 C1384 1.307 . S
N1383 C1385 1.333 1_554 S
N1383 Zn1389 2.020 . S
C1384 N1383 1.307 . S
C1384 C1388 1.370 . S
C1384 H1395 0.948 . S
C1385 N1383 1.333 1_556 S
C1385 C1386 1.373 1_455 S
C1385 H1393 0.952 . S
C1386 C1385 1.373 1_655 S
C1386 C1387 1.392 . S
C1386 H1406 0.954 . S
C1387 C1386 1.392 . S
C1387 C1388 1.357 1_656 S
C1388 C1384 1.370 . S
C1388 C1387 1.357 1_454 S
C1388 H1407 0.950 . S
Zn1389 N1383 2.020 . S
Zn1389 O1392 2.025 . S
Zn1389 O1397 2.024 . S
Zn1389 O1399 2.039 1_554 S
Zn1389 O1401 2.034 1_455 S
O1390 C1374 1.251 . S
O1390 Zn1381 2.039 . S
C1391 O1396 1.246 . S
C1391 O1397 1.249 . S
O1392 C1374 1.254 . S
O1392 Zn1389 2.025 . S
H1393 C1385 0.952 . S
H1394 C1376 0.952 . S
H1395 C1384 0.948 . S
O1396 Zn1381 2.034 . S
O1396 C1391 1.246 . S
O1397 Zn1389 2.024 . S
O1397 C1391 1.249 . S
H1398 C1380 0.948 . S
O1399 Zn1389 2.039 1_556 S
O1399 C1403 1.251 . S
O1400 Zn1381 2.025 . S
O1400 C1403 1.254 1_554 S
O1401 C1382 1.246 . S
O1401 Zn1389 2.034 1_655 S
O1402 Zn1381 2.024 . S
O1402 C1382 1.249 1_455 S
C1403 O1399 1.251 . S
C1403 O1400 1.254 1_556 S
H1404 C1377 0.949 . S
H1405 C1379 0.950 . S
H1406 C1386 0.954 . S
H1407 C1388 0.950 . S
H1408 C1416 0.950 . S
H1409 C1421 0.950 . S
H1410 C1418 0.950 . S
H1411 C1420 0.950 . S
H1412 C1422 0.950 . S
H1413 C1424 0.950 . S
H1414 C1426 0.950 . S
H1415 C1427 0.950 . S
C1416 H1408 0.950 . S
C1416 C1417 1.386 . S
C1416 C1418 1.391 . S
C1417 C1416 1.386 . S
C1417 C1421 1.393 . S
C1418 H1410 0.950 . S
C1418 C1416 1.391 . S
C1418 C1419 1.400 . S
C1419 C1418 1.400 . S
C1419 C1420 1.398 . S
C1419 C1425 1.491 . S
C1420 H1411 0.950 . S
C1420 C1419 1.398 . S
C1420 C1421 1.391 . S
C1421 H1409 0.950 . S
C1421 C1417 1.393 . S
C1421 C1420 1.391 . S
C1422 H1412 0.950 . S
C1422 C1423 1.386 . S
C1422 C1424 1.391 . S
C1423 C1422 1.386 . S
C1423 C1427 1.393 . S
C1424 H1413 0.950 . S
C1424 C1422 1.391 . S
C1424 C1425 1.400 . S
C1425 C1419 1.491 . S
C1425 C1424 1.400 . S
C1425 C1426 1.398 . S
C1426 H1414 0.950 . S
C1426 C1425 1.398 . S
C1426 C1427 1.391 . S
C1427 H1415 0.950 . S
C1427 C1423 1.393 . S
C1427 C1426 1.391 . S
H1428 C1436 0.950 . S
H1429 C1441 0.950 . S
H1430 C1438 0.950 . S
H1431 C1440 0.950 . S
H1432 C1442 0.950 . S
H1433 C1444 0.950 . S
H1434 C1446 0.950 . S
H1435 C1447 0.950 . S
C1436 H1428 0.950 . S
C1436 C1437 1.386 . S
C1436 C1438 1.391 . S
C1437 C1436 1.386 . S
C1437 C1441 1.393 . S
C1438 H1430 0.950 . S
C1438 C1436 1.391 . S
C1438 C1439 1.400 . S
C1439 C1438 1.400 . S
C1439 C1440 1.398 . S
C1439 C1445 1.491 . S
C1440 H1431 0.950 . S
C1440 C1439 1.398 . S
C1440 C1441 1.391 . S
C1441 H1429 0.950 . S
C1441 C1437 1.393 . S
C1441 C1440 1.391 . S
C1442 H1432 0.950 . S
C1442 C1443 1.386 . S
C1442 C1444 1.391 . S
C1443 C1442 1.386 . S
C1443 C1447 1.393 . S
C1444 H1433 0.950 . S
C1444 C1442 1.391 . S
C1444 C1445 1.400 . S
C1445 C1439 1.491 . S
C1445 C1444 1.400 . S
C1445 C1446 1.398 . S
C1446 H1434 0.950 . S
C1446 C1445 1.398 . S
C1446 C1447 1.391 . S
C1447 H1435 0.950 . S
C1447 C1443 1.393 . S
C1447 C1446 1.391 . S
H1448 C1456 0.950 . S
H1449 C1461 0.950 . S
H1450 C1458 0.950 . S
H1451 C1460 0.950 . S
H1452 C1462 0.950 . S
H1453 C1464 0.950 . S
H1454 C1466 0.950 . S
H1455 C1467 0.950 . S
C1456 H1448 0.950 . S
C1456 C1457 1.386 . S
C1456 C1458 1.391 . S
C1457 C1456 1.386 . S
C1457 C1461 1.393 . S
C1458 H1450 0.950 . S
C1458 C1456 1.391 . S
C1458 C1459 1.400 . S
C1459 C1458 1.400 . S
C1459 C1460 1.398 . S
C1459 C1465 1.491 . S
C1460 H1451 0.950 . S
C1460 C1459 1.398 . S
C1460 C1461 1.391 . S
C1461 H1449 0.950 . S
C1461 C1457 1.393 . S
C1461 C1460 1.391 . S
C1462 H1452 0.950 . S
C1462 C1463 1.386 . S
C1462 C1464 1.391 . S
C1463 C1462 1.386 . S
C1463 C1467 1.393 . S
C1464 H1453 0.950 . S
C1464 C1462 1.391 . S
C1464 C1465 1.400 . S
C1465 C1459 1.491 . S
C1465 C1464 1.400 . S
C1465 C1466 1.398 . S
C1466 H1454 0.950 . S
C1466 C1465 1.398 . S
C1466 C1467 1.391 . S
C1467 H1455 0.950 . S
C1467 C1463 1.393 . S
C1467 C1466 1.391 . S
H1468 C1476 0.950 . S
H1469 C1481 0.950 . S
H1470 C1478 0.950 . S
H1471 C1480 0.950 . S
H1472 C1482 0.950 . S
H1473 C1484 0.950 . S
H1474 C1486 0.950 . S
H1475 C1487 0.950 . S
C1476 H1468 0.950 . S
C1476 C1477 1.386 . S
C1476 C1478 1.391 . S
C1477 C1476 1.386 . S
C1477 C1481 1.393 . S
C1478 H1470 0.950 . S
C1478 C1476 1.391 . S
C1478 C1479 1.400 . S
C1479 C1478 1.400 . S
C1479 C1480 1.398 . S
C1479 C1485 1.491 . S
C1480 H1471 0.950 . S
C1480 C1479 1.398 . S
C1480 C1481 1.391 . S
C1481 H1469 0.950 . S
C1481 C1477 1.393 . S
C1481 C1480 1.391 . S
C1482 H1472 0.950 . S
C1482 C1483 1.386 . S
C1482 C1484 1.391 . S
C1483 C1482 1.386 . S
C1483 C1487 1.393 . S
C1484 H1473 0.950 . S
C1484 C1482 1.391 . S
C1484 C1485 1.400 . S
C1485 C1479 1.491 . S
C1485 C1484 1.400 . S
C1485 C1486 1.398 . S
C1486 H1474 0.950 . S
C1486 C1485 1.398 . S
C1486 C1487 1.391 . S
C1487 H1475 0.950 . S
C1487 C1483 1.393 . S
C1487 C1486 1.391 . S
H1488 C1496 0.950 . S
H1489 C1501 0.950 . S
H1490 C1498 0.950 . S
H1491 C1500 0.950 . S
H1492 C1502 0.950 . S
H1493 C1504 0.950 . S
H1494 C1506 0.950 . S
H1495 C1507 0.950 1_655 S
C1496 H1488 0.950 . S
C1496 C1497 1.386 . S
C1496 C1498 1.391 . S
C1497 C1496 1.386 . S
C1497 C1501 1.393 . S
C1498 H1490 0.950 . S
C1498 C1496 1.391 . S
C1498 C1499 1.400 . S
C1499 C1498 1.400 . S
C1499 C1500 1.398 . S
C1499 C1505 1.491 . S
C1500 H1491 0.950 . S
C1500 C1499 1.398 . S
C1500 C1501 1.391 . S
C1501 H1489 0.950 . S
C1501 C1497 1.393 . S
C1501 C1500 1.391 . S
C1502 H1492 0.950 . S
C1502 C1503 1.386 . S
C1502 C1504 1.391 . S
C1503 C1502 1.386 . S
C1503 C1507 1.393 . S
C1504 H1493 0.950 . S
C1504 C1502 1.391 . S
C1504 C1505 1.400 . S
C1505 C1499 1.491 . S
C1505 C1504 1.400 . S
C1505 C1506 1.398 . S
C1506 H1494 0.950 . S
C1506 C1505 1.398 . S
C1506 C1507 1.391 . S
C1507 H1495 0.950 1_455 S
C1507 C1503 1.393 . S
C1507 C1506 1.391 . S
H1508 C1516 0.950 . S
H1509 C1521 0.950 . S
H1510 C1518 0.950 . S
H1511 C1520 0.950 . S
H1512 C1522 0.950 . S
H1513 C1524 0.950 . S
H1514 C1526 0.950 . S
H1515 C1527 0.950 . S
C1516 H1508 0.950 . S
C1516 C1517 1.386 . S
C1516 C1518 1.391 . S
C1517 C1516 1.386 . S
C1517 C1521 1.393 . S
C1518 H1510 0.950 . S
C1518 C1516 1.391 . S
C1518 C1519 1.400 . S
C1519 C1518 1.400 . S
C1519 C1520 1.398 . S
C1519 C1525 1.491 . S
C1520 H1511 0.950 . S
C1520 C1519 1.398 . S
C1520 C1521 1.391 . S
C1521 H1509 0.950 . S
C1521 C1517 1.393 . S
C1521 C1520 1.391 . S
C1522 H1512 0.950 . S
C1522 C1523 1.386 . S
C1522 C1524 1.391 . S
C1523 C1522 1.386 . S
C1523 C1527 1.393 . S
C1524 H1513 0.950 . S
C1524 C1522 1.391 . S
C1524 C1525 1.400 . S
C1525 C1519 1.491 . S
C1525 C1524 1.400 . S
C1525 C1526 1.398 . S
C1526 H1514 0.950 . S
C1526 C1525 1.398 . S
C1526 C1527 1.391 . S
C1527 H1515 0.950 . S
C1527 C1523 1.393 . S
C1527 C1526 1.391 . S
H1528 C1536 0.950 . S
H1529 C1541 0.950 . S
H1530 C1538 0.950 . S
H1531 C1540 0.950 . S
H1532 C1542 0.950 1_554 S
H1533 C1544 0.950 . S
H1534 C1546 0.950 . S
H1535 C1547 0.950 . S
C1536 H1528 0.950 . S
C1536 C1537 1.386 . S
C1536 C1538 1.391 . S
C1537 C1536 1.386 . S
C1537 C1541 1.393 . S
C1538 H1530 0.950 . S
C1538 C1536 1.391 . S
C1538 C1539 1.400 . S
C1539 C1538 1.400 . S
C1539 C1540 1.398 . S
C1539 C1545 1.491 . S
C1540 H1531 0.950 . S
C1540 C1539 1.398 . S
C1540 C1541 1.391 . S
C1541 H1529 0.950 . S
C1541 C1537 1.393 . S
C1541 C1540 1.391 . S
C1542 H1532 0.950 1_556 S
C1542 C1543 1.386 . S
C1542 C1544 1.391 . S
C1543 C1542 1.386 . S
C1543 C1547 1.393 . S
C1544 H1533 0.950 . S
C1544 C1542 1.391 . S
C1544 C1545 1.400 . S
C1545 C1539 1.491 . S
C1545 C1544 1.400 . S
C1545 C1546 1.398 . S
C1546 H1534 0.950 . S
C1546 C1545 1.398 . S
C1546 C1547 1.391 . S
C1547 H1535 0.950 . S
C1547 C1543 1.393 . S
C1547 C1546 1.391 . S
H1548 C1556 0.950 . S
H1549 C1561 0.950 . S
H1550 C1558 0.950 . S
H1551 C1560 0.950 . S
H1552 C1562 0.950 . S
H1553 C1564 0.950 . S
H1554 C1566 0.950 . S
H1555 C1567 0.950 . S
C1556 H1548 0.950 . S
C1556 C1557 1.386 . S
C1556 C1558 1.391 . S
C1557 C1556 1.386 . S
C1557 C1561 1.393 . S
C1558 H1550 0.950 . S
C1558 C1556 1.391 . S
C1558 C1559 1.400 . S
C1559 C1558 1.400 . S
C1559 C1560 1.398 . S
C1559 C1565 1.491 . S
C1560 H1551 0.950 . S
C1560 C1559 1.398 . S
C1560 C1561 1.391 . S
C1561 H1549 0.950 . S
C1561 C1557 1.393 . S
C1561 C1560 1.391 . S
C1562 H1552 0.950 . S
C1562 C1563 1.386 . S
C1562 C1564 1.391 . S
C1563 C1562 1.386 . S
C1563 C1567 1.393 . S
C1564 H1553 0.950 . S
C1564 C1562 1.391 . S
C1564 C1565 1.400 . S
C1565 C1559 1.491 . S
C1565 C1564 1.400 . S
C1565 C1566 1.398 . S
C1566 H1554 0.950 . S
C1566 C1565 1.398 . S
C1566 C1567 1.391 . S
C1567 H1555 0.950 . S
C1567 C1563 1.393 . S
C1567 C1566 1.391 . S
H1568 C1576 0.946 1_565 S
H1569 C1581 0.950 . S
H1570 C1578 0.950 . S
H1571 C1580 0.950 . S
H1572 C1582 0.950 . S
H1573 C1584 0.950 . S
H1574 C1586 0.950 . S
H1575 C1587 0.950 . S
C1576 H1568 0.946 1_545 S
C1576 C1577 1.389 . S
C1576 C1578 1.391 1_545 S
C1577 C1576 1.389 . S
C1577 C1581 1.393 . S
C1578 H1570 0.950 . S
C1578 C1576 1.391 1_565 S
C1578 C1579 1.400 1_565 S
C1579 C1578 1.400 1_545 S
C1579 C1580 1.398 . S
C1579 C1585 1.491 . S
C1580 H1571 0.950 . S
C1580 C1579 1.398 . S
C1580 C1581 1.391 . S
C1581 H1569 0.950 . S
C1581 C1577 1.393 . S
C1581 C1580 1.391 . S
C1582 H1572 0.950 . S
C1582 C1583 1.386 . S
C1582 C1584 1.391 . S
C1583 C1582 1.386 . S
C1583 C1587 1.393 1_545 S
C1584 H1573 0.950 . S
C1584 C1582 1.391 . S
C1584 C1585 1.400 . S
C1585 C1579 1.491 . S
C1585 C1584 1.400 . S
C1585 C1586 1.398 1_545 S
C1586 H1574 0.950 . S
C1586 C1585 1.398 1_565 S
C1586 C1587 1.391 . S
C1587 H1575 0.950 . S
C1587 C1583 1.393 1_565 S
C1587 C1586 1.391 . S
H1588 C1596 0.950 . S
H1589 C1601 0.950 . S
H1590 C1598 0.950 . S
H1591 C1600 0.950 . S
H1592 C1602 0.950 . S
H1593 C1604 0.950 . S
H1594 C1606 0.950 . S
H1595 C1607 0.950 . S
C1596 H1588 0.950 . S
C1596 C1597 1.386 . S
C1596 C1598 1.391 . S
C1597 C1596 1.386 . S
C1597 C1601 1.393 . S
C1598 H1590 0.950 . S
C1598 C1596 1.391 . S
C1598 C1599 1.400 . S
C1599 C1598 1.400 . S
C1599 C1600 1.398 . S
C1599 C1605 1.491 . S
C1600 H1591 0.950 . S
C1600 C1599 1.398 . S
C1600 C1601 1.391 . S
C1601 H1589 0.950 . S
C1601 C1597 1.393 . S
C1601 C1600 1.391 . S
C1602 H1592 0.950 . S
C1602 C1603 1.386 . S
C1602 C1604 1.391 . S
C1603 C1602 1.386 . S
C1603 C1607 1.393 . S
C1604 H1593 0.950 . S
C1604 C1602 1.391 . S
C1604 C1605 1.400 . S
C1605 C1599 1.491 . S
C1605 C1604 1.400 . S
C1605 C1606 1.398 . S
C1606 H1594 0.950 . S
C1606 C1605 1.398 . S
C1606 C1607 1.391 . S
C1607 H1595 0.950 . S
C1607 C1603 1.393 . S
C1607 C1606 1.391 . S
H1608 C1616 0.950 . S
H1609 C1621 0.950 . S
H1610 C1618 0.950 . S
H1611 C1620 0.950 . S
H1612 C1622 0.950 . S
H1613 C1624 0.950 . S
H1614 C1626 0.950 . S
H1615 C1627 0.950 . S
C1616 H1608 0.950 . S
C1616 C1617 1.386 . S
C1616 C1618 1.391 . S
C1617 C1616 1.386 . S
C1617 C1621 1.393 1_545 S
C1618 H1610 0.950 . S
C1618 C1616 1.391 . S
C1618 C1619 1.400 . S
C1619 C1618 1.400 . S
C1619 C1620 1.398 1_545 S
C1619 C1625 1.491 . S
C1620 H1611 0.950 . S
C1620 C1619 1.398 1_565 S
C1620 C1621 1.391 . S
C1621 H1609 0.950 . S
C1621 C1617 1.393 1_565 S
C1621 C1620 1.391 . S
C1622 H1612 0.950 . S
C1622 C1623 1.386 1_565 S
C1622 C1624 1.391 . S
C1623 C1622 1.386 1_545 S
C1623 C1627 1.393 . S
C1624 H1613 0.950 . S
C1624 C1622 1.391 . S
C1624 C1625 1.400 1_565 S
C1625 C1619 1.491 . S
C1625 C1624 1.400 1_545 S
C1625 C1626 1.398 . S
C1626 H1614 0.950 . S
C1626 C1625 1.398 . S
C1626 C1627 1.391 . S
C1627 H1615 0.950 . S
C1627 C1623 1.393 . S
C1627 C1626 1.391 . S
H1628 C1636 0.950 . S
H1629 C1641 0.950 . S
H1630 C1638 0.950 . S
H1631 C1640 0.950 . S
H1632 C1642 0.950 . S
H1633 C1644 0.950 . S
H1634 C1646 0.950 . S
H1635 C1647 0.950 . S
C1636 H1628 0.950 . S
C1636 C1637 1.386 . S
C1636 C1638 1.391 . S
C1637 C1636 1.386 . S
C1637 C1641 1.393 . S
C1638 H1630 0.950 . S
C1638 C1636 1.391 . S
C1638 C1639 1.400 . S
C1639 C1638 1.400 . S
C1639 C1640 1.398 . S
C1639 C1645 1.491 . S
C1640 H1631 0.950 . S
C1640 C1639 1.398 . S
C1640 C1641 1.391 . S
C1641 H1629 0.950 . S
C1641 C1637 1.393 . S
C1641 C1640 1.391 . S
C1642 H1632 0.950 . S
C1642 C1643 1.386 . S
C1642 C1644 1.391 . S
C1643 C1642 1.386 . S
C1643 C1647 1.393 . S
C1644 H1633 0.950 . S
C1644 C1642 1.391 . S
C1644 C1645 1.400 . S
C1645 C1639 1.491 . S
C1645 C1644 1.400 . S
C1645 C1646 1.398 . S
C1646 H1634 0.950 . S
C1646 C1645 1.398 . S
C1646 C1647 1.391 . S
C1647 H1635 0.950 . S
C1647 C1643 1.393 . S
C1647 C1646 1.391 . S
H1648 C1656 0.950 . S
H1649 C1661 0.950 1_565 S
H1650 C1658 0.950 . S
H1651 C1660 0.950 . S
H1652 C1662 0.950 . S
H1653 C1664 0.950 . S
H1654 C1666 0.950 . S
H1655 C1667 0.950 . S
C1656 H1648 0.950 . S
C1656 C1657 1.386 . S
C1656 C1658 1.391 . S
C1657 C1656 1.386 . S
C1657 C1661 1.393 . S
C1658 H1650 0.950 . S
C1658 C1656 1.391 . S
C1658 C1659 1.400 . S
C1659 C1658 1.400 . S
C1659 C1660 1.398 . S
C1659 C1665 1.491 . S
C1660 H1651 0.950 . S
C1660 C1659 1.398 . S
C1660 C1661 1.391 . S
C1661 H1649 0.950 1_545 S
C1661 C1657 1.393 . S
C1661 C1660 1.391 . S
C1662 H1652 0.950 . S
C1662 C1663 1.386 . S
C1662 C1664 1.391 . S
C1663 C1662 1.386 . S
C1663 C1667 1.393 . S
C1664 H1653 0.950 . S
C1664 C1662 1.391 . S
C1664 C1665 1.400 . S
C1665 C1659 1.491 . S
C1665 C1664 1.400 . S
C1665 C1666 1.398 . S
C1666 H1654 0.950 . S
C1666 C1665 1.398 . S
C1666 C1667 1.391 . S
C1667 H1655 0.950 . S
C1667 C1663 1.393 . S
C1667 C1666 1.391 . S
H1668 C1676 0.950 . S
H1669 C1681 0.950 . S
H1670 C1678 0.950 . S
H1671 C1680 0.950 . S
H1672 C1682 0.950 . S
H1673 C1684 0.950 . S
H1674 C1686 0.950 . S
H1675 C1687 0.950 . S
C1676 H1668 0.950 . S
C1676 C1677 1.386 . S
C1676 C1678 1.391 . S
C1677 C1676 1.386 . S
C1677 C1681 1.393 . S
C1678 H1670 0.950 . S
C1678 C1676 1.391 . S
C1678 C1679 1.400 . S
C1679 C1678 1.400 . S
C1679 C1680 1.398 . S
C1679 C1685 1.491 . S
C1680 H1671 0.950 . S
C1680 C1679 1.398 . S
C1680 C1681 1.391 . S
C1681 H1669 0.950 . S
C1681 C1677 1.393 . S
C1681 C1680 1.391 . S
C1682 H1672 0.950 . S
C1682 C1683 1.386 . S
C1682 C1684 1.391 . S
C1683 C1682 1.386 . S
C1683 C1687 1.393 . S
C1684 H1673 0.950 . S
C1684 C1682 1.391 . S
C1684 C1685 1.400 . S
C1685 C1679 1.491 . S
C1685 C1684 1.400 . S
C1685 C1686 1.398 . S
C1686 H1674 0.950 . S
C1686 C1685 1.398 . S
C1686 C1687 1.391 . S
C1687 H1675 0.950 . S
C1687 C1683 1.393 . S
C1687 C1686 1.391 . S
H1688 C1696 0.950 . S
H1689 C1701 0.950 . S
H1690 C1698 0.945 1_565 S
H1691 C1700 0.953 . S
H1692 C1702 0.950 . S
H1693 C1704 0.950 . S
H1694 C1706 0.950 . S
H1695 C1707 0.950 . S
C1696 H1688 0.950 . S
C1696 C1697 1.386 . S
C1696 C1698 1.391 . S
C1697 C1696 1.386 . S
C1697 C1701 1.393 . S
C1698 H1690 0.945 1_545 S
C1698 C1696 1.391 . S
C1698 C1699 1.399 1_545 S
C1699 C1698 1.399 1_565 S
C1699 C1700 1.397 1_565 S
C1699 C1705 1.493 . S
C1700 H1691 0.953 . S
C1700 C1699 1.397 1_545 S
C1700 C1701 1.391 . S
C1701 H1689 0.950 . S
C1701 C1697 1.393 . S
C1701 C1700 1.391 . S
C1702 H1692 0.950 . S
C1702 C1703 1.386 . S
C1702 C1704 1.391 . S
C1703 C1702 1.386 . S
C1703 C1707 1.393 . S
C1704 H1693 0.950 . S
C1704 C1702 1.391 . S
C1704 C1705 1.400 . S
C1705 C1699 1.493 . S
C1705 C1704 1.400 . S
C1705 C1706 1.398 . S
C1706 H1694 0.950 . S
C1706 C1705 1.398 . S
C1706 C1707 1.391 . S
C1707 H1695 0.950 . S
C1707 C1703 1.393 . S
C1707 C1706 1.391 . S
H1708 C1716 0.950 . S
H1709 C1721 0.950 . S
H1710 C1718 0.950 . S
H1711 C1720 0.950 . S
H1712 C1722 0.950 . S
H1713 C1724 0.950 . S
H1714 C1726 0.950 . S
H1715 C1727 0.950 . S
C1716 H1708 0.950 . S
C1716 C1717 1.386 . S
C1716 C1718 1.391 . S
C1717 C1716 1.386 . S
C1717 C1721 1.393 . S
C1718 H1710 0.950 . S
C1718 C1716 1.391 . S
C1718 C1719 1.400 . S
C1719 C1718 1.400 . S
C1719 C1720 1.398 . S
C1719 C1725 1.491 . S
C1720 H1711 0.950 . S
C1720 C1719 1.398 . S
C1720 C1721 1.391 . S
C1721 H1709 0.950 . S
C1721 C1717 1.393 . S
C1721 C1720 1.391 . S
C1722 H1712 0.950 . S
C1722 C1723 1.386 . S
C1722 C1724 1.391 . S
C1723 C1722 1.386 . S
C1723 C1727 1.393 . S
C1724 H1713 0.950 . S
C1724 C1722 1.391 . S
C1724 C1725 1.400 . S
C1725 C1719 1.491 . S
C1725 C1724 1.400 . S
C1725 C1726 1.398 . S
C1726 H1714 0.950 . S
C1726 C1725 1.398 . S
C1726 C1727 1.391 . S
C1727 H1715 0.950 . S
C1727 C1723 1.393 . S
C1727 C1726 1.391 . S
H1728 C1736 0.950 . S
H1729 C1741 0.950 . S
H1730 C1738 0.950 . S
H1731 C1740 0.950 . S
H1732 C1742 0.950 . S
H1733 C1744 0.950 . S
H1734 C1746 0.950 . S
H1735 C1747 0.950 . S
C1736 H1728 0.950 . S
C1736 C1737 1.386 . S
C1736 C1738 1.391 . S
C1737 C1736 1.386 . S
C1737 C1741 1.393 . S
C1738 H1730 0.950 . S
C1738 C1736 1.391 . S
C1738 C1739 1.400 . S
C1739 C1738 1.400 . S
C1739 C1740 1.398 . S
C1739 C1745 1.491 . S
C1740 H1731 0.950 . S
C1740 C1739 1.398 . S
C1740 C1741 1.391 . S
C1741 H1729 0.950 . S
C1741 C1737 1.393 . S
C1741 C1740 1.391 . S
C1742 H1732 0.950 . S
C1742 C1743 1.388 . S
C1742 C1744 1.391 . S
C1743 C1742 1.388 . S
C1743 C1747 1.392 1_554 S
C1744 H1733 0.950 . S
C1744 C1742 1.391 . S
C1744 C1745 1.400 . S
C1745 C1739 1.491 . S
C1745 C1744 1.400 . S
C1745 C1746 1.398 1_554 S
C1746 H1734 0.950 . S
C1746 C1745 1.398 1_556 S
C1746 C1747 1.391 . S
C1747 H1735 0.950 . S
C1747 C1743 1.392 1_556 S
C1747 C1746 1.391 . S
H1748 C1756 0.950 . S
H1749 C1761 0.950 . S
H1750 C1758 0.950 . S
H1751 C1760 0.950 . S
H1752 C1762 0.950 . S
H1753 C1764 0.950 . S
H1754 C1766 0.950 . S
H1755 C1767 0.950 . S
C1756 H1748 0.950 . S
C1756 C1757 1.386 . S
C1756 C1758 1.391 . S
C1757 C1756 1.386 . S
C1757 C1761 1.393 . S
C1758 H1750 0.950 . S
C1758 C1756 1.391 . S
C1758 C1759 1.400 . S
C1759 C1758 1.400 . S
C1759 C1760 1.398 . S
C1759 C1765 1.491 . S
C1760 H1751 0.950 . S
C1760 C1759 1.398 . S
C1760 C1761 1.391 . S
C1761 H1749 0.950 . S
C1761 C1757 1.393 . S
C1761 C1760 1.391 . S
C1762 H1752 0.950 . S
C1762 C1763 1.386 . S
C1762 C1764 1.391 . S
C1763 C1762 1.386 . S
C1763 C1767 1.393 . S
C1764 H1753 0.950 . S
C1764 C1762 1.391 . S
C1764 C1765 1.400 . S
C1765 C1759 1.491 . S
C1765 C1764 1.400 . S
C1765 C1766 1.398 . S
C1766 H1754 0.950 . S
C1766 C1765 1.398 . S
C1766 C1767 1.391 . S
C1767 H1755 0.950 . S
C1767 C1763 1.393 . S
C1767 C1766 1.391 . S
H1768 C1776 0.950 . S
H1769 C1781 0.950 . S
H1770 C1778 0.950 . S
H1771 C1780 0.950 . S
H1772 C1782 0.950 . S
H1773 C1784 0.950 . S
H1774 C1786 0.950 . S
H1775 C1787 0.950 . S
C1776 H1768 0.950 . S
C1776 C1777 1.386 . S
C1776 C1778 1.391 . S
C1777 C1776 1.386 . S
C1777 C1781 1.393 . S
C1778 H1770 0.950 . S
C1778 C1776 1.391 . S
C1778 C1779 1.400 . S
C1779 C1778 1.400 . S
C1779 C1780 1.398 . S
C1779 C1785 1.491 . S
C1780 H1771 0.950 . S
C1780 C1779 1.398 . S
C1780 C1781 1.391 . S
C1781 H1769 0.950 . S
C1781 C1777 1.393 . S
C1781 C1780 1.391 . S
C1782 H1772 0.950 . S
C1782 C1783 1.386 . S
C1782 C1784 1.391 . S
C1783 C1782 1.386 . S
C1783 C1787 1.393 . S
C1784 H1773 0.950 . S
C1784 C1782 1.391 . S
C1784 C1785 1.400 . S
C1785 C1779 1.491 . S
C1785 C1784 1.400 . S
C1785 C1786 1.398 . S
C1786 H1774 0.950 . S
C1786 C1785 1.398 . S
C1786 C1787 1.391 . S
C1787 H1775 0.950 . S
C1787 C1783 1.393 . S
C1787 C1786 1.391 . S
H1788 C1796 0.950 . S
H1789 C1801 0.950 . S
H1790 C1798 0.950 . S
H1791 C1800 0.950 . S
H1792 C1802 0.950 . S
H1793 C1804 0.950 . S
H1794 C1806 0.950 . S
H1795 C1807 0.950 . S
C1796 H1788 0.950 . S
C1796 C1797 1.386 . S
C1796 C1798 1.391 . S
C1797 C1796 1.386 . S
C1797 C1801 1.393 . S
C1798 H1790 0.950 . S
C1798 C1796 1.391 . S
C1798 C1799 1.400 . S
C1799 C1798 1.400 . S
C1799 C1800 1.398 . S
C1799 C1805 1.491 . S
C1800 H1791 0.950 . S
C1800 C1799 1.398 . S
C1800 C1801 1.391 . S
C1801 H1789 0.950 . S
C1801 C1797 1.393 . S
C1801 C1800 1.391 . S
C1802 H1792 0.950 . S
C1802 C1803 1.386 . S
C1802 C1804 1.391 . S
C1803 C1802 1.386 . S
C1803 C1807 1.393 . S
C1804 H1793 0.950 . S
C1804 C1802 1.391 . S
C1804 C1805 1.400 . S
C1805 C1799 1.491 . S
C1805 C1804 1.400 . S
C1805 C1806 1.398 . S
C1806 H1794 0.950 . S
C1806 C1805 1.398 . S
C1806 C1807 1.391 . S
C1807 H1795 0.950 . S
C1807 C1803 1.393 . S
C1807 C1806 1.391 . S
H1808 C1816 0.950 . S
H1809 C1821 0.950 . S
H1810 C1818 0.950 . S
H1811 C1820 0.950 . S
H1812 C1822 0.950 . S
H1813 C1824 0.950 . S
H1814 C1826 0.950 . S
H1815 C1827 0.950 . S
C1816 H1808 0.950 . S
C1816 C1817 1.386 . S
C1816 C1818 1.391 . S
C1817 C1816 1.386 . S
C1817 C1821 1.393 . S
C1818 H1810 0.950 . S
C1818 C1816 1.391 . S
C1818 C1819 1.400 . S
C1819 C1818 1.400 . S
C1819 C1820 1.398 . S
C1819 C1825 1.491 . S
C1820 H1811 0.950 . S
C1820 C1819 1.398 . S
C1820 C1821 1.391 . S
C1821 H1809 0.950 . S
C1821 C1817 1.393 . S
C1821 C1820 1.391 . S
C1822 H1812 0.950 . S
C1822 C1823 1.386 . S
C1822 C1824 1.391 . S
C1823 C1822 1.386 . S
C1823 C1827 1.393 . S
C1824 H1813 0.950 . S
C1824 C1822 1.391 . S
C1824 C1825 1.400 . S
C1825 C1819 1.491 . S
C1825 C1824 1.400 . S
C1825 C1826 1.398 . S
C1826 H1814 0.950 . S
C1826 C1825 1.398 . S
C1826 C1827 1.391 . S
C1827 H1815 0.950 . S
C1827 C1823 1.393 . S
C1827 C1826 1.391 . S
H1828 C1836 0.950 . S
H1829 C1841 0.950 . S
H1830 C1838 0.950 . S
H1831 C1840 0.950 . S
H1832 C1842 0.950 . S
H1833 C1844 0.950 . S
H1834 C1846 0.950 . S
H1835 C1847 0.950 . S
C1836 H1828 0.950 . S
C1836 C1837 1.386 . S
C1836 C1838 1.391 . S
C1837 C1836 1.386 . S
C1837 C1841 1.393 . S
C1838 H1830 0.950 . S
C1838 C1836 1.391 . S
C1838 C1839 1.400 . S
C1839 C1838 1.400 . S
C1839 C1840 1.398 . S
C1839 C1845 1.491 . S
C1840 H1831 0.950 . S
C1840 C1839 1.398 . S
C1840 C1841 1.391 . S
C1841 H1829 0.950 . S
C1841 C1837 1.393 . S
C1841 C1840 1.391 . S
C1842 H1832 0.950 . S
C1842 C1843 1.386 . S
C1842 C1844 1.391 . S
C1843 C1842 1.386 . S
C1843 C1847 1.393 . S
C1844 H1833 0.950 . S
C1844 C1842 1.391 . S
C1844 C1845 1.400 . S
C1845 C1839 1.491 . S
C1845 C1844 1.400 . S
C1845 C1846 1.398 . S
C1846 H1834 0.950 . S
C1846 C1845 1.398 . S
C1846 C1847 1.391 . S
C1847 H1835 0.950 . S
C1847 C1843 1.393 . S
C1847 C1846 1.391 . S
H1848 C1856 0.950 . S
H1849 C1861 0.950 . S
H1850 C1858 0.950 . S
H1851 C1860 0.950 . S
H1852 C1862 0.950 . S
H1853 C1864 0.950 . S
H1854 C1866 0.950 . S
H1855 C1867 0.950 . S
C1856 H1848 0.950 . S
C1856 C1857 1.386 . S
C1856 C1858 1.391 . S
C1857 C1856 1.386 . S
C1857 C1861 1.393 . S
C1858 H1850 0.950 . S
C1858 C1856 1.391 . S
C1858 C1859 1.400 . S
C1859 C1858 1.400 . S
C1859 C1860 1.398 . S
C1859 C1865 1.491 . S
C1860 H1851 0.950 . S
C1860 C1859 1.398 . S
C1860 C1861 1.391 . S
C1861 H1849 0.950 . S
C1861 C1857 1.393 . S
C1861 C1860 1.391 . S
C1862 H1852 0.950 . S
C1862 C1863 1.386 . S
C1862 C1864 1.391 . S
C1863 C1862 1.386 . S
C1863 C1867 1.393 . S
C1864 H1853 0.950 . S
C1864 C1862 1.391 . S
C1864 C1865 1.400 . S
C1865 C1859 1.491 . S
C1865 C1864 1.400 . S
C1865 C1866 1.398 . S
C1866 H1854 0.950 . S
C1866 C1865 1.398 . S
C1866 C1867 1.391 . S
C1867 H1855 0.950 . S
C1867 C1863 1.393 . S
C1867 C1866 1.391 . S
H1868 C1876 0.950 . S
H1869 C1881 0.950 . S
H1870 C1878 0.950 . S
H1871 C1880 0.950 . S
H1872 C1882 0.950 . S
H1873 C1884 0.950 . S
H1874 C1886 0.950 . S
H1875 C1887 0.950 . S
C1876 H1868 0.950 . S
C1876 C1877 1.386 . S
C1876 C1878 1.391 . S
C1877 C1876 1.386 . S
C1877 C1881 1.393 . S
C1878 H1870 0.950 . S
C1878 C1876 1.391 . S
C1878 C1879 1.400 . S
C1879 C1878 1.400 . S
C1879 C1880 1.398 . S
C1879 C1885 1.491 . S
C1880 H1871 0.950 . S
C1880 C1879 1.398 . S
C1880 C1881 1.391 . S
C1881 H1869 0.950 . S
C1881 C1877 1.393 . S
C1881 C1880 1.391 . S
C1882 H1872 0.950 . S
C1882 C1883 1.386 . S
C1882 C1884 1.391 . S
C1883 C1882 1.386 . S
C1883 C1887 1.393 . S
C1884 H1873 0.950 . S
C1884 C1882 1.391 . S
C1884 C1885 1.400 . S
C1885 C1879 1.491 . S
C1885 C1884 1.400 . S
C1885 C1886 1.398 . S
C1886 H1874 0.950 . S
C1886 C1885 1.398 . S
C1886 C1887 1.391 . S
C1887 H1875 0.950 . S
C1887 C1883 1.393 . S
C1887 C1886 1.391 . S
H1888 C1896 0.950 . S
H1889 C1901 0.934 1_655 S
H1890 C1898 0.950 . S
H1891 C1900 0.950 . S
H1892 C1902 0.950 . S
H1893 C1904 0.950 . S
H1894 C1906 0.950 . S
H1895 C1907 0.950 . S
C1896 H1888 0.950 . S
C1896 C1897 1.386 . S
C1896 C1898 1.391 . S
C1897 C1896 1.386 . S
C1897 C1901 1.399 . S
C1898 H1890 0.950 . S
C1898 C1896 1.391 . S
C1898 C1899 1.400 . S
C1899 C1898 1.400 . S
C1899 C1900 1.398 . S
C1899 C1905 1.491 . S
C1900 H1891 0.950 . S
C1900 C1899 1.398 . S
C1900 C1901 1.402 . S
C1901 H1889 0.934 1_455 S
C1901 C1897 1.399 . S
C1901 C1900 1.402 . S
C1902 H1892 0.950 . S
C1902 C1903 1.407 . S
C1902 C1904 1.391 . S
C1903 C1902 1.407 . S
C1903 C1907 1.388 1_556 S
C1904 H1893 0.950 . S
C1904 C1902 1.391 . S
C1904 C1905 1.400 . S
C1905 C1899 1.491 . S
C1905 C1904 1.400 . S
C1905 C1906 1.398 . S
C1906 H1894 0.950 . S
C1906 C1905 1.398 . S
C1906 C1907 1.391 1_556 S
C1907 H1895 0.950 . S
C1907 C1903 1.388 1_554 S
C1907 C1906 1.391 1_554 S
H1908 C1916 0.950 . S
H1909 C1921 0.950 . S
H1910 C1918 0.950 . S
H1911 C1920 0.950 . S
H1912 C1922 0.950 . S
H1913 C1924 0.950 . S
H1914 C1926 0.950 . S
H1915 C1927 0.950 . S
C1916 H1908 0.950 . S
C1916 C1917 1.386 . S
C1916 C1918 1.391 . S
C1917 C1916 1.386 . S
C1917 C1921 1.393 . S
C1918 H1910 0.950 . S
C1918 C1916 1.391 . S
C1918 C1919 1.400 . S
C1919 C1918 1.400 . S
C1919 C1920 1.398 . S
C1919 C1925 1.491 . S
C1920 H1911 0.950 . S
C1920 C1919 1.398 . S
C1920 C1921 1.391 . S
C1921 H1909 0.950 . S
C1921 C1917 1.393 . S
C1921 C1920 1.391 . S
C1922 H1912 0.950 . S
C1922 C1923 1.386 . S
C1922 C1924 1.391 . S
C1923 C1922 1.386 . S
C1923 C1927 1.393 . S
C1924 H1913 0.950 . S
C1924 C1922 1.391 . S
C1924 C1925 1.400 . S
C1925 C1919 1.491 . S
C1925 C1924 1.400 . S
C1925 C1926 1.398 . S
C1926 H1914 0.950 . S
C1926 C1925 1.398 . S
C1926 C1927 1.391 . S
C1927 H1915 0.950 . S
C1927 C1923 1.393 . S
C1927 C1926 1.391 . S
H1928 C1936 0.950 . S
H1929 C1941 0.950 . S
H1930 C1938 0.950 . S
H1931 C1940 0.950 . S
H1932 C1942 0.950 . S
H1933 C1944 0.950 . S
H1934 C1946 0.950 . S
H1935 C1947 0.950 . S
C1936 H1928 0.950 . S
C1936 C1937 1.386 . S
C1936 C1938 1.391 . S
C1937 C1936 1.386 . S
C1937 C1941 1.393 . S
C1938 H1930 0.950 . S
C1938 C1936 1.391 . S
C1938 C1939 1.400 . S
C1939 C1938 1.400 . S
C1939 C1940 1.398 . S
C1939 C1945 1.491 . S
C1940 H1931 0.950 . S
C1940 C1939 1.398 . S
C1940 C1941 1.391 . S
C1941 H1929 0.950 . S
C1941 C1937 1.393 . S
C1941 C1940 1.391 . S
C1942 H1932 0.950 . S
C1942 C1943 1.386 . S
C1942 C1944 1.391 . S
C1943 C1942 1.386 . S
C1943 C1947 1.393 . S
C1944 H1933 0.950 . S
C1944 C1942 1.391 . S
C1944 C1945 1.400 . S
C1945 C1939 1.491 . S
C1945 C1944 1.400 . S
C1945 C1946 1.398 . S
C1946 H1934 0.950 . S
C1946 C1945 1.398 . S
C1946 C1947 1.391 . S
C1947 H1935 0.950 . S
C1947 C1943 1.393 . S
C1947 C1946 1.391 . S
H1948 C1956 0.950 . S
H1949 C1961 0.950 . S
H1950 C1958 0.950 . S
H1951 C1960 0.950 . S
H1952 C1962 0.950 . S
H1953 C1964 0.950 . S
H1954 C1966 0.950 . S
H1955 C1967 0.950 . S
C1956 H1948 0.950 . S
C1956 C1957 1.386 . S
C1956 C1958 1.391 . S
C1957 C1956 1.386 . S
C1957 C1961 1.393 . S
C1958 H1950 0.950 . S
C1958 C1956 1.391 . S
C1958 C1959 1.400 . S
C1959 C1958 1.400 . S
C1959 C1960 1.398 . S
C1959 C1965 1.491 . S
C1960 H1951 0.950 . S
C1960 C1959 1.398 . S
C1960 C1961 1.391 . S
C1961 H1949 0.950 . S
C1961 C1957 1.393 . S
C1961 C1960 1.391 . S
C1962 H1952 0.950 . S
C1962 C1963 1.386 . S
C1962 C1964 1.391 . S
C1963 C1962 1.386 . S
C1963 C1967 1.393 . S
C1964 H1953 0.950 . S
C1964 C1962 1.391 . S
C1964 C1965 1.400 . S
C1965 C1959 1.491 . S
C1965 C1964 1.400 . S
C1965 C1966 1.398 . S
C1966 H1954 0.950 . S
C1966 C1965 1.398 . S
C1966 C1967 1.391 . S
C1967 H1955 0.950 . S
C1967 C1963 1.393 . S
C1967 C1966 1.391 . S
H1968 C1976 0.950 1_655 S
H1969 C1981 0.950 . S
H1970 C1978 0.946 . S
H1971 C1980 0.950 . S
H1972 C1982 0.950 . S
H1973 C1984 0.950 . S
H1974 C1986 0.950 . S
H1975 C1987 0.950 . S
C1976 H1968 0.950 1_455 S
C1976 C1977 1.386 . S
C1976 C1978 1.391 . S
C1977 C1976 1.386 . S
C1977 C1981 1.393 . S
C1978 H1970 0.946 . S
C1978 C1976 1.391 . S
C1978 C1979 1.400 . S
C1979 C1978 1.400 . S
C1979 C1980 1.398 . S
C1979 C1985 1.491 . S
C1980 H1971 0.950 . S
C1980 C1979 1.398 . S
C1980 C1981 1.391 . S
C1981 H1969 0.950 . S
C1981 C1977 1.393 . S
C1981 C1980 1.391 . S
C1982 H1972 0.950 . S
C1982 C1983 1.386 . S
C1982 C1984 1.391 . S
C1983 C1982 1.386 . S
C1983 C1987 1.393 . S
C1984 H1973 0.950 . S
C1984 C1982 1.391 . S
C1984 C1985 1.400 . S
C1985 C1979 1.491 . S
C1985 C1984 1.400 . S
C1985 C1986 1.398 . S
C1986 H1974 0.950 . S
C1986 C1985 1.398 . S
C1986 C1987 1.391 . S
C1987 H1975 0.950 . S
C1987 C1983 1.393 . S
C1987 C1986 1.391 . S
H1988 C1996 0.950 . S
H1989 C2001 0.950 . S
H1990 C1998 0.950 . S
H1991 C2000 0.950 . S
H1992 C2002 0.950 . S
H1993 C2004 0.950 . S
H1994 C2006 0.950 . S
H1995 C2007 0.950 . S
C1996 H1988 0.950 . S
C1996 C1997 1.386 . S
C1996 C1998 1.391 . S
C1997 C1996 1.386 . S
C1997 C2001 1.393 . S
C1998 H1990 0.950 . S
C1998 C1996 1.391 . S
C1998 C1999 1.400 . S
C1999 C1998 1.400 . S
C1999 C2000 1.398 . S
C1999 C2005 1.491 . S
C2000 H1991 0.950 . S
C2000 C1999 1.398 . S
C2000 C2001 1.391 . S
C2001 H1989 0.950 . S
C2001 C1997 1.393 . S
C2001 C2000 1.391 . S
C2002 H1992 0.950 . S
C2002 C2003 1.386 . S
C2002 C2004 1.391 . S
C2003 C2002 1.386 . S
C2003 C2007 1.393 . S
C2004 H1993 0.950 . S
C2004 C2002 1.391 . S
C2004 C2005 1.400 . S
C2005 C1999 1.491 . S
C2005 C2004 1.400 . S
C2005 C2006 1.398 . S
C2006 H1994 0.950 . S
C2006 C2005 1.398 . S
C2006 C2007 1.391 . S
C2007 H1995 0.950 . S
C2007 C2003 1.393 . S
C2007 C2006 1.391 . S
H2008 C2016 0.950 . S
H2009 C2021 0.950 . S
H2010 C2018 0.950 . S
H2011 C2020 0.950 . S
H2012 C2022 0.950 . S
H2013 C2024 0.950 . S
H2014 C2026 0.950 . S
H2015 C2027 0.950 . S
C2016 H2008 0.950 . S
C2016 C2017 1.386 . S
C2016 C2018 1.391 . S
C2017 C2016 1.386 . S
C2017 C2021 1.393 . S
C2018 H2010 0.950 . S
C2018 C2016 1.391 . S
C2018 C2019 1.400 . S
C2019 C2018 1.400 . S
C2019 C2020 1.398 . S
C2019 C2025 1.491 . S
C2020 H2011 0.950 . S
C2020 C2019 1.398 . S
C2020 C2021 1.391 . S
C2021 H2009 0.950 . S
C2021 C2017 1.393 . S
C2021 C2020 1.391 . S
C2022 H2012 0.950 . S
C2022 C2023 1.386 . S
C2022 C2024 1.391 . S
C2023 C2022 1.386 . S
C2023 C2027 1.393 . S
C2024 H2013 0.950 . S
C2024 C2022 1.391 . S
C2024 C2025 1.400 . S
C2025 C2019 1.491 . S
C2025 C2024 1.400 . S
C2025 C2026 1.398 . S
C2026 H2014 0.950 . S
C2026 C2025 1.398 . S
C2026 C2027 1.391 . S
C2027 H2015 0.950 . S
C2027 C2023 1.393 . S
C2027 C2026 1.391 . S
H2028 C2036 0.950 . S
H2029 C2041 0.950 . S
H2030 C2038 0.950 . S
H2031 C2040 0.950 . S
H2032 C2042 0.950 . S
H2033 C2044 0.950 . S
H2034 C2046 0.950 . S
H2035 C2047 0.950 . S
C2036 H2028 0.950 . S
C2036 C2037 1.386 . S
C2036 C2038 1.391 . S
C2037 C2036 1.386 . S
C2037 C2041 1.393 . S
C2038 H2030 0.950 . S
C2038 C2036 1.391 . S
C2038 C2039 1.400 . S
C2039 C2038 1.400 . S
C2039 C2040 1.398 . S
C2039 C2045 1.491 . S
C2040 H2031 0.950 . S
C2040 C2039 1.398 . S
C2040 C2041 1.391 . S
C2041 H2029 0.950 . S
C2041 C2037 1.393 . S
C2041 C2040 1.391 . S
C2042 H2032 0.950 . S
C2042 C2043 1.386 . S
C2042 C2044 1.391 . S
C2043 C2042 1.386 . S
C2043 C2047 1.393 . S
C2044 H2033 0.950 . S
C2044 C2042 1.391 . S
C2044 C2045 1.400 . S
C2045 C2039 1.491 . S
C2045 C2044 1.400 . S
C2045 C2046 1.398 . S
C2046 H2034 0.950 . S
C2046 C2045 1.398 . S
C2046 C2047 1.391 . S
C2047 H2035 0.950 . S
C2047 C2043 1.393 . S
C2047 C2046 1.391 . S
H2048 C2056 0.950 . S
H2049 C2061 0.950 . S
H2050 C2058 0.950 . S
H2051 C2060 0.950 1_565 S
H2052 C2062 0.950 . S
H2053 C2064 0.965 . S
H2054 C2066 0.950 . S
H2055 C2067 0.950 . S
C2056 H2048 0.950 . S
C2056 C2057 1.386 . S
C2056 C2058 1.391 . S
C2057 C2056 1.386 . S
C2057 C2061 1.393 1_545 S
C2058 H2050 0.950 . S
C2058 C2056 1.391 . S
C2058 C2059 1.400 . S
C2059 C2058 1.400 . S
C2059 C2060 1.398 . S
C2059 C2065 1.491 . S
C2060 H2051 0.950 1_545 S
C2060 C2059 1.398 . S
C2060 C2061 1.391 1_545 S
C2061 H2049 0.950 . S
C2061 C2057 1.393 1_565 S
C2061 C2060 1.391 1_565 S
C2062 H2052 0.950 . S
C2062 C2063 1.386 . S
C2062 C2064 1.400 . S
C2063 C2062 1.386 . S
C2063 C2067 1.393 1_455 S
C2064 H2053 0.965 . S
C2064 C2062 1.400 . S
C2064 C2065 1.384 1_455 S
C2065 C2059 1.491 . S
C2065 C2064 1.384 1_655 S
C2065 C2066 1.398 . S
C2066 H2054 0.950 . S
C2066 C2065 1.398 . S
C2066 C2067 1.391 . S
C2067 H2055 0.950 . S
C2067 C2063 1.393 1_655 S
C2067 C2066 1.391 . S
H2068 C2076 0.950 . S
H2069 C2081 0.950 . S
H2070 C2078 0.950 . S
H2071 C2080 0.950 . S
H2072 C2082 0.950 . S
H2073 C2084 0.950 . S
H2074 C2086 0.950 . S
H2075 C2087 0.950 . S
C2076 H2068 0.950 . S
C2076 C2077 1.386 . S
C2076 C2078 1.391 . S
C2077 C2076 1.386 . S
C2077 C2081 1.393 . S
C2078 H2070 0.950 . S
C2078 C2076 1.391 . S
C2078 C2079 1.400 . S
C2079 C2078 1.400 . S
C2079 C2080 1.398 . S
C2079 C2085 1.491 . S
C2080 H2071 0.950 . S
C2080 C2079 1.398 . S
C2080 C2081 1.391 . S
C2081 H2069 0.950 . S
C2081 C2077 1.393 . S
C2081 C2080 1.391 . S
C2082 H2072 0.950 . S
C2082 C2083 1.386 . S
C2082 C2084 1.391 . S
C2083 C2082 1.386 . S
C2083 C2087 1.393 . S
C2084 H2073 0.950 . S
C2084 C2082 1.391 . S
C2084 C2085 1.400 . S
C2085 C2079 1.491 . S
C2085 C2084 1.400 . S
C2085 C2086 1.398 . S
C2086 H2074 0.950 . S
C2086 C2085 1.398 . S
C2086 C2087 1.391 . S
C2087 H2075 0.950 . S
C2087 C2083 1.393 . S
C2087 C2086 1.391 . S
H2088 C2096 0.950 . S
H2089 C2101 0.950 . S
H2090 C2098 0.950 . S
H2091 C2100 0.950 . S
H2092 C2102 0.950 . S
H2093 C2104 0.950 . S
H2094 C2106 0.950 . S
H2095 C2107 0.950 . S
C2096 H2088 0.950 . S
C2096 C2097 1.386 . S
C2096 C2098 1.391 . S
C2097 C2096 1.386 . S
C2097 C2101 1.393 1_545 S
C2098 H2090 0.950 . S
C2098 C2096 1.391 . S
C2098 C2099 1.400 . S
C2099 C2098 1.400 . S
C2099 C2100 1.398 1_545 S
C2099 C2105 1.491 . S
C2100 H2091 0.950 . S
C2100 C2099 1.398 1_565 S
C2100 C2101 1.391 . S
C2101 H2089 0.950 . S
C2101 C2097 1.393 1_565 S
C2101 C2100 1.391 . S
C2102 H2092 0.950 . S
C2102 C2103 1.386 . S
C2102 C2104 1.391 . S
C2103 C2102 1.386 . S
C2103 C2107 1.393 1_565 S
C2104 H2093 0.950 . S
C2104 C2102 1.391 . S
C2104 C2105 1.400 1_565 S
C2105 C2099 1.491 . S
C2105 C2104 1.400 1_545 S
C2105 C2106 1.398 . S
C2106 H2094 0.950 . S
C2106 C2105 1.398 . S
C2106 C2107 1.391 . S
C2107 H2095 0.950 . S
C2107 C2103 1.393 1_545 S
C2107 C2106 1.391 . S
H2108 C2116 0.950 . S
H2109 C2121 0.950 . S
H2110 C2118 0.950 . S
H2111 C2120 0.950 . S
H2112 C2122 0.950 . S
H2113 C2124 0.950 . S
H2114 C2126 0.950 . S
H2115 C2127 0.950 . S
C2116 H2108 0.950 . S
C2116 C2117 1.386 . S
C2116 C2118 1.391 . S
C2117 C2116 1.386 . S
C2117 C2121 1.393 . S
C2118 H2110 0.950 . S
C2118 C2116 1.391 . S
C2118 C2119 1.400 . S
C2119 C2118 1.400 . S
C2119 C2120 1.398 . S
C2119 C2125 1.491 . S
C2120 H2111 0.950 . S
C2120 C2119 1.398 . S
C2120 C2121 1.391 . S
C2121 H2109 0.950 . S
C2121 C2117 1.393 . S
C2121 C2120 1.391 . S
C2122 H2112 0.950 . S
C2122 C2123 1.386 . S
C2122 C2124 1.391 . S
C2123 C2122 1.386 . S
C2123 C2127 1.393 . S
C2124 H2113 0.950 . S
C2124 C2122 1.391 . S
C2124 C2125 1.400 . S
C2125 C2119 1.491 . S
C2125 C2124 1.400 . S
C2125 C2126 1.398 . S
C2126 H2114 0.950 . S
C2126 C2125 1.398 . S
C2126 C2127 1.391 . S
C2127 H2115 0.950 . S
C2127 C2123 1.393 . S
C2127 C2126 1.391 . S
H2128 C2136 0.950 . S
H2129 C2141 0.950 . S
H2130 C2138 0.950 . S
H2131 C2140 0.950 . S
H2132 C2142 0.950 . S
H2133 C2144 0.950 . S
H2134 C2146 0.950 . S
H2135 C2147 0.950 . S
C2136 H2128 0.950 . S
C2136 C2137 1.386 . S
C2136 C2138 1.391 . S
C2137 C2136 1.386 . S
C2137 C2141 1.393 1_545 S
C2138 H2130 0.950 . S
C2138 C2136 1.391 . S
C2138 C2139 1.400 1_545 S
C2139 C2138 1.400 1_565 S
C2139 C2140 1.398 . S
C2139 C2145 1.491 . S
C2140 H2131 0.950 . S
C2140 C2139 1.398 . S
C2140 C2141 1.391 . S
C2141 H2129 0.950 . S
C2141 C2137 1.393 1_565 S
C2141 C2140 1.391 . S
C2142 H2132 0.950 . S
C2142 C2143 1.386 . S
C2142 C2144 1.391 . S
C2143 C2142 1.386 . S
C2143 C2147 1.392 1_565 S
C2144 H2133 0.950 . S
C2144 C2142 1.391 . S
C2144 C2145 1.400 . S
C2145 C2139 1.491 . S
C2145 C2144 1.400 . S
C2145 C2146 1.398 1_565 S
C2146 H2134 0.950 . S
C2146 C2145 1.398 1_545 S
C2146 C2147 1.391 . S
C2147 H2135 0.950 . S
C2147 C2143 1.392 1_545 S
C2147 C2146 1.391 . S
H2148 C2156 0.950 . S
H2149 C2161 0.950 . S
H2150 C2158 0.950 . S
H2151 C2160 0.950 . S
H2152 C2162 0.950 . S
H2153 C2164 0.950 . S
H2154 C2166 0.950 . S
H2155 C2167 0.950 . S
C2156 H2148 0.950 . S
C2156 C2157 1.386 . S
C2156 C2158 1.391 . S
C2157 C2156 1.386 . S
C2157 C2161 1.393 . S
C2158 H2150 0.950 . S
C2158 C2156 1.391 . S
C2158 C2159 1.400 . S
C2159 C2158 1.400 . S
C2159 C2160 1.398 . S
C2159 C2165 1.491 . S
C2160 H2151 0.950 . S
C2160 C2159 1.398 . S
C2160 C2161 1.391 . S
C2161 H2149 0.950 . S
C2161 C2157 1.393 . S
C2161 C2160 1.391 . S
C2162 H2152 0.950 . S
C2162 C2163 1.386 . S
C2162 C2164 1.391 . S
C2163 C2162 1.386 . S
C2163 C2167 1.393 . S
C2164 H2153 0.950 . S
C2164 C2162 1.391 . S
C2164 C2165 1.400 . S
C2165 C2159 1.491 . S
C2165 C2164 1.400 . S
C2165 C2166 1.398 . S
C2166 H2154 0.950 . S
C2166 C2165 1.398 . S
C2166 C2167 1.391 . S
C2167 H2155 0.950 . S
C2167 C2163 1.393 . S
C2167 C2166 1.391 . S
H2168 C2176 0.950 . S
H2169 C2181 0.950 . S
H2170 C2178 0.950 . S
H2171 C2180 0.950 . S
H2172 C2182 0.950 . S
H2173 C2184 0.950 . S
H2174 C2186 0.950 . S
H2175 C2187 0.950 . S
C2176 H2168 0.950 . S
C2176 C2177 1.386 . S
C2176 C2178 1.391 . S
C2177 C2176 1.386 . S
C2177 C2181 1.393 . S
C2178 H2170 0.950 . S
C2178 C2176 1.391 . S
C2178 C2179 1.400 . S
C2179 C2178 1.400 . S
C2179 C2180 1.398 . S
C2179 C2185 1.491 . S
C2180 H2171 0.950 . S
C2180 C2179 1.398 . S
C2180 C2181 1.391 . S
C2181 H2169 0.950 . S
C2181 C2177 1.393 . S
C2181 C2180 1.391 . S
C2182 H2172 0.950 . S
C2182 C2183 1.386 . S
C2182 C2184 1.391 . S
C2183 C2182 1.386 . S
C2183 C2187 1.393 . S
C2184 H2173 0.950 . S
C2184 C2182 1.391 . S
C2184 C2185 1.400 . S
C2185 C2179 1.491 . S
C2185 C2184 1.400 . S
C2185 C2186 1.398 . S
C2186 H2174 0.950 . S
C2186 C2185 1.398 . S
C2186 C2187 1.391 . S
C2187 H2175 0.950 . S
C2187 C2183 1.393 . S
C2187 C2186 1.391 . S
H2188 C2196 0.950 . S
H2189 C2201 0.950 . S
H2190 C2198 0.950 . S
H2191 C2200 0.950 . S
H2192 C2202 0.950 . S
H2193 C2204 0.950 . S
H2194 C2206 0.950 . S
H2195 C2207 0.950 . S
C2196 H2188 0.950 . S
C2196 C2197 1.386 . S
C2196 C2198 1.391 . S
C2197 C2196 1.386 . S
C2197 C2201 1.393 . S
C2198 H2190 0.950 . S
C2198 C2196 1.391 . S
C2198 C2199 1.400 . S
C2199 C2198 1.400 . S
C2199 C2200 1.398 . S
C2199 C2205 1.491 . S
C2200 H2191 0.950 . S
C2200 C2199 1.398 . S
C2200 C2201 1.391 . S
C2201 H2189 0.950 . S
C2201 C2197 1.393 . S
C2201 C2200 1.391 . S
C2202 H2192 0.950 . S
C2202 C2203 1.386 . S
C2202 C2204 1.391 . S
C2203 C2202 1.386 . S
C2203 C2207 1.393 . S
C2204 H2193 0.950 . S
C2204 C2202 1.391 . S
C2204 C2205 1.400 . S
C2205 C2199 1.491 . S
C2205 C2204 1.400 . S
C2205 C2206 1.398 . S
C2206 H2194 0.950 . S
C2206 C2205 1.398 . S
C2206 C2207 1.391 . S
C2207 H2195 0.950 . S
C2207 C2203 1.393 . S
C2207 C2206 1.391 . S
H2208 C2216 0.921 1_556 S
H2209 C2221 0.950 . S
H2210 C2218 0.950 . S
H2211 C2220 0.950 . S
H2212 C2222 0.950 . S
H2213 C2224 0.950 . S
H2214 C2226 0.950 . S
H2215 C2227 0.950 1_545 S
C2216 H2208 0.921 1_554 S
C2216 C2217 1.386 . S
C2216 C2218 1.391 . S
C2217 C2216 1.386 . S
C2217 C2221 1.393 . S
C2218 H2210 0.950 . S
C2218 C2216 1.391 . S
C2218 C2219 1.400 . S
C2219 C2218 1.400 . S
C2219 C2220 1.398 . S
C2219 C2225 1.491 . S
C2220 H2211 0.950 . S
C2220 C2219 1.398 . S
C2220 C2221 1.391 . S
C2221 H2209 0.950 . S
C2221 C2217 1.393 . S
C2221 C2220 1.391 . S
C2222 H2212 0.950 . S
C2222 C2223 1.386 . S
C2222 C2224 1.391 . S
C2223 C2222 1.386 . S
C2223 C2227 1.393 . S
C2224 H2213 0.950 . S
C2224 C2222 1.391 . S
C2224 C2225 1.400 . S
C2225 C2219 1.491 . S
C2225 C2224 1.400 . S
C2225 C2226 1.398 . S
C2226 H2214 0.950 . S
C2226 C2225 1.398 . S
C2226 C2227 1.391 . S
C2227 H2215 0.950 1_565 S
C2227 C2223 1.393 . S
C2227 C2226 1.391 . S
H2228 C2236 0.950 . S
H2229 C2241 0.950 . S
H2230 C2238 0.950 . S
H2231 C2240 0.950 . S
H2232 C2242 0.950 . S
H2233 C2244 0.950 . S
H2234 C2246 0.950 . S
H2235 C2247 0.965 . S
C2236 H2228 0.950 . S
C2236 C2237 1.386 1_556 S
C2236 C2238 1.391 . S
C2237 C2236 1.386 1_554 S
C2237 C2241 1.393 . S
C2238 H2230 0.950 . S
C2238 C2236 1.391 . S
C2238 C2239 1.400 1_556 S
C2239 C2238 1.400 1_554 S
C2239 C2240 1.398 . S
C2239 C2245 1.491 . S
C2240 H2231 0.950 . S
C2240 C2239 1.398 . S
C2240 C2241 1.391 . S
C2241 H2229 0.950 . S
C2241 C2237 1.393 . S
C2241 C2240 1.391 . S
C2242 H2232 0.950 . S
C2242 C2243 1.386 . S
C2242 C2244 1.391 . S
C2243 C2242 1.386 . S
C2243 C2247 1.378 1_554 S
C2244 H2233 0.950 . S
C2244 C2242 1.391 . S
C2244 C2245 1.400 . S
C2245 C2239 1.491 . S
C2245 C2244 1.400 . S
C2245 C2246 1.398 1_554 S
C2246 H2234 0.950 . S
C2246 C2245 1.398 1_556 S
C2246 C2247 1.392 . S
C2247 H2235 0.965 . S
C2247 C2243 1.378 1_556 S
C2247 C2246 1.392 . S
H2248 C2256 0.950 . S
H2249 C2261 0.950 . S
H2250 C2258 0.950 . S
H2251 C2260 0.950 . S
H2252 C2262 0.950 . S
H2253 C2264 0.950 . S
H2254 C2266 0.950 . S
H2255 C2267 0.950 . S
C2256 H2248 0.950 . S
C2256 C2257 1.386 . S
C2256 C2258 1.391 . S
C2257 C2256 1.386 . S
C2257 C2261 1.393 . S
C2258 H2250 0.950 . S
C2258 C2256 1.391 . S
C2258 C2259 1.400 . S
C2259 C2258 1.400 . S
C2259 C2260 1.398 . S
C2259 C2265 1.491 . S
C2260 H2251 0.950 . S
C2260 C2259 1.398 . S
C2260 C2261 1.391 . S
C2261 H2249 0.950 . S
C2261 C2257 1.393 . S
C2261 C2260 1.391 . S
C2262 H2252 0.950 . S
C2262 C2263 1.386 . S
C2262 C2264 1.391 . S
C2263 C2262 1.386 . S
C2263 C2267 1.393 . S
C2264 H2253 0.950 . S
C2264 C2262 1.391 . S
C2264 C2265 1.400 . S
C2265 C2259 1.491 . S
C2265 C2264 1.400 . S
C2265 C2266 1.398 . S
C2266 H2254 0.950 . S
C2266 C2265 1.398 . S
C2266 C2267 1.391 . S
C2267 H2255 0.950 . S
C2267 C2263 1.393 . S
C2267 C2266 1.391 . S
H2268 C2276 0.950 . S
H2269 C2281 0.950 . S
H2270 C2278 0.950 . S
H2271 C2280 0.950 . S
H2272 C2282 0.950 . S
H2273 C2284 0.950 . S
H2274 C2286 0.950 . S
H2275 C2287 0.950 . S
C2276 H2268 0.950 . S
C2276 C2277 1.386 . S
C2276 C2278 1.391 . S
C2277 C2276 1.386 . S
C2277 C2281 1.393 . S
C2278 H2270 0.950 . S
C2278 C2276 1.391 . S
C2278 C2279 1.400 . S
C2279 C2278 1.400 . S
C2279 C2280 1.398 . S
C2279 C2285 1.491 . S
C2280 H2271 0.950 . S
C2280 C2279 1.398 . S
C2280 C2281 1.391 . S
C2281 H2269 0.950 . S
C2281 C2277 1.393 . S
C2281 C2280 1.391 . S
C2282 H2272 0.950 . S
C2282 C2283 1.386 . S
C2282 C2284 1.391 . S
C2283 C2282 1.386 . S
C2283 C2287 1.393 . S
C2284 H2273 0.950 . S
C2284 C2282 1.391 . S
C2284 C2285 1.400 . S
C2285 C2279 1.491 . S
C2285 C2284 1.400 . S
C2285 C2286 1.398 . S
C2286 H2274 0.950 . S
C2286 C2285 1.398 . S
C2286 C2287 1.391 . S
C2287 H2275 0.950 . S
C2287 C2283 1.393 . S
C2287 C2286 1.391 . S
H2288 C2296 0.950 . S
H2289 C2301 0.950 . S
H2290 C2298 0.950 . S
H2291 C2300 0.950 . S
H2292 C2302 0.950 . S
H2293 C2304 0.950 . S
H2294 C2306 0.950 . S
H2295 C2307 0.950 . S
C2296 H2288 0.950 . S
C2296 C2297 1.386 . S
C2296 C2298 1.391 . S
C2297 C2296 1.386 . S
C2297 C2301 1.393 . S
C2298 H2290 0.950 . S
C2298 C2296 1.391 . S
C2298 C2299 1.400 . S
C2299 C2298 1.400 . S
C2299 C2300 1.398 . S
C2299 C2305 1.491 . S
C2300 H2291 0.950 . S
C2300 C2299 1.398 . S
C2300 C2301 1.391 . S
C2301 H2289 0.950 . S
C2301 C2297 1.393 . S
C2301 C2300 1.391 . S
C2302 H2292 0.950 . S
C2302 C2303 1.386 . S
C2302 C2304 1.391 . S
C2303 C2302 1.386 . S
C2303 C2307 1.393 . S
C2304 H2293 0.950 . S
C2304 C2302 1.391 . S
C2304 C2305 1.400 . S
C2305 C2299 1.491 . S
C2305 C2304 1.400 . S
C2305 C2306 1.398 . S
C2306 H2294 0.950 . S
C2306 C2305 1.398 . S
C2306 C2307 1.391 . S
C2307 H2295 0.950 . S
C2307 C2303 1.393 . S
C2307 C2306 1.391 . S
H2308 C2316 0.950 . S
H2309 C2321 0.950 . S
H2310 C2318 0.950 . S
H2311 C2320 0.950 . S
H2312 C2322 0.950 . S
H2313 C2324 0.950 . S
H2314 C2326 0.950 . S
H2315 C2327 0.950 . S
C2316 H2308 0.950 . S
C2316 C2317 1.386 . S
C2316 C2318 1.391 . S
C2317 C2316 1.386 . S
C2317 C2321 1.393 . S
C2318 H2310 0.950 . S
C2318 C2316 1.391 . S
C2318 C2319 1.400 . S
C2319 C2318 1.400 . S
C2319 C2320 1.398 . S
C2319 C2325 1.491 . S
C2320 H2311 0.950 . S
C2320 C2319 1.398 . S
C2320 C2321 1.391 . S
C2321 H2309 0.950 . S
C2321 C2317 1.393 . S
C2321 C2320 1.391 . S
C2322 H2312 0.950 . S
C2322 C2323 1.386 . S
C2322 C2324 1.391 . S
C2323 C2322 1.386 . S
C2323 C2327 1.393 . S
C2324 H2313 0.950 . S
C2324 C2322 1.391 . S
C2324 C2325 1.400 . S
C2325 C2319 1.491 . S
C2325 C2324 1.400 . S
C2325 C2326 1.398 . S
C2326 H2314 0.950 . S
C2326 C2325 1.398 . S
C2326 C2327 1.391 . S
C2327 H2315 0.950 . S
C2327 C2323 1.393 . S
C2327 C2326 1.391 . S
H2328 C2336 0.950 . S
H2329 C2341 0.950 . S
H2330 C2338 0.950 . S
H2331 C2340 0.950 . S
H2332 C2342 0.950 . S
H2333 C2344 0.950 . S
H2334 C2346 0.950 . S
H2335 C2347 0.950 . S
C2336 H2328 0.950 . S
C2336 C2337 1.386 . S
C2336 C2338 1.391 . S
C2337 C2336 1.386 . S
C2337 C2341 1.393 . S
C2338 H2330 0.950 . S
C2338 C2336 1.391 . S
C2338 C2339 1.400 . S
C2339 C2338 1.400 . S
C2339 C2340 1.398 . S
C2339 C2345 1.491 . S
C2340 H2331 0.950 . S
C2340 C2339 1.398 . S
C2340 C2341 1.391 . S
C2341 H2329 0.950 . S
C2341 C2337 1.393 . S
C2341 C2340 1.391 . S
C2342 H2332 0.950 . S
C2342 C2343 1.386 . S
C2342 C2344 1.391 . S
C2343 C2342 1.386 . S
C2343 C2347 1.393 . S
C2344 H2333 0.950 . S
C2344 C2342 1.391 . S
C2344 C2345 1.400 . S
C2345 C2339 1.491 . S
C2345 C2344 1.400 . S
C2345 C2346 1.398 . S
C2346 H2334 0.950 . S
C2346 C2345 1.398 . S
C2346 C2347 1.391 . S
C2347 H2335 0.950 . S
C2347 C2343 1.393 . S
C2347 C2346 1.391 . S
H2348 C2356 0.950 . S
H2349 C2361 0.950 . S
H2350 C2358 0.950 . S
H2351 C2360 0.950 . S
H2352 C2362 0.950 . S
H2353 C2364 0.950 . S
H2354 C2366 0.950 . S
H2355 C2367 0.950 . S
C2356 H2348 0.950 . S
C2356 C2357 1.386 . S
C2356 C2358 1.391 . S
C2357 C2356 1.386 . S
C2357 C2361 1.393 . S
C2358 H2350 0.950 . S
C2358 C2356 1.391 . S
C2358 C2359 1.400 . S
C2359 C2358 1.400 . S
C2359 C2360 1.398 . S
C2359 C2365 1.491 . S
C2360 H2351 0.950 . S
C2360 C2359 1.398 . S
C2360 C2361 1.391 . S
C2361 H2349 0.950 . S
C2361 C2357 1.393 . S
C2361 C2360 1.391 . S
C2362 H2352 0.950 . S
C2362 C2363 1.386 . S
C2362 C2364 1.391 . S
C2363 C2362 1.386 . S
C2363 C2367 1.393 . S
C2364 H2353 0.950 . S
C2364 C2362 1.391 . S
C2364 C2365 1.400 . S
C2365 C2359 1.491 . S
C2365 C2364 1.400 . S
C2365 C2366 1.398 . S
C2366 H2354 0.950 . S
C2366 C2365 1.398 . S
C2366 C2367 1.391 . S
C2367 H2355 0.950 . S
C2367 C2363 1.393 . S
C2367 C2366 1.391 . S
H2368 C2376 0.950 . S
H2369 C2381 0.950 . S
H2370 C2378 0.950 . S
H2371 C2380 0.950 . S
H2372 C2382 0.950 . S
H2373 C2384 0.950 . S
H2374 C2386 0.950 . S
H2375 C2387 0.950 . S
C2376 H2368 0.950 . S
C2376 C2377 1.386 . S
C2376 C2378 1.391 . S
C2377 C2376 1.386 . S
C2377 C2381 1.393 . S
C2378 H2370 0.950 . S
C2378 C2376 1.391 . S
C2378 C2379 1.400 . S
C2379 C2378 1.400 . S
C2379 C2380 1.398 . S
C2379 C2385 1.491 . S
C2380 H2371 0.950 . S
C2380 C2379 1.398 . S
C2380 C2381 1.391 . S
C2381 H2369 0.950 . S
C2381 C2377 1.393 . S
C2381 C2380 1.391 . S
C2382 H2372 0.950 . S
C2382 C2383 1.386 . S
C2382 C2384 1.391 . S
C2383 C2382 1.386 . S
C2383 C2387 1.393 . S
C2384 H2373 0.950 . S
C2384 C2382 1.391 . S
C2384 C2385 1.400 . S
C2385 C2379 1.491 . S
C2385 C2384 1.400 . S
C2385 C2386 1.398 . S
C2386 H2374 0.950 . S
C2386 C2385 1.398 . S
C2386 C2387 1.391 . S
C2387 H2375 0.950 . S
C2387 C2383 1.393 . S
C2387 C2386 1.391 . S
H2388 C2396 0.950 . S
H2389 C2401 0.950 . S
H2390 C2398 0.950 . S
H2391 C2400 0.950 . S
H2392 C2402 0.950 . S
H2393 C2404 0.950 . S
H2394 C2406 0.950 . S
H2395 C2407 0.950 . S
C2396 H2388 0.950 . S
C2396 C2397 1.386 . S
C2396 C2398 1.391 . S
C2397 C2396 1.386 . S
C2397 C2401 1.393 . S
C2398 H2390 0.950 . S
C2398 C2396 1.391 . S
C2398 C2399 1.400 . S
C2399 C2398 1.400 . S
C2399 C2400 1.398 . S
C2399 C2405 1.491 . S
C2400 H2391 0.950 . S
C2400 C2399 1.398 . S
C2400 C2401 1.391 . S
C2401 H2389 0.950 . S
C2401 C2397 1.393 . S
C2401 C2400 1.391 . S
C2402 H2392 0.950 . S
C2402 C2403 1.386 . S
C2402 C2404 1.391 . S
C2403 C2402 1.386 . S
C2403 C2407 1.393 . S
C2404 H2393 0.950 . S
C2404 C2402 1.391 . S
C2404 C2405 1.400 . S
C2405 C2399 1.491 . S
C2405 C2404 1.400 . S
C2405 C2406 1.398 . S
C2406 H2394 0.950 . S
C2406 C2405 1.398 . S
C2406 C2407 1.391 . S
C2407 H2395 0.950 . S
C2407 C2403 1.393 . S
C2407 C2406 1.391 . S
H2408 C2416 0.950 . S
H2409 C2421 0.950 . S
H2410 C2418 0.950 . S
H2411 C2420 0.950 . S
H2412 C2422 0.950 . S
H2413 C2424 0.950 . S
H2414 C2426 0.950 . S
H2415 C2427 0.950 . S
C2416 H2408 0.950 . S
C2416 C2417 1.386 . S
C2416 C2418 1.391 . S
C2417 C2416 1.386 . S
C2417 C2421 1.393 . S
C2418 H2410 0.950 . S
C2418 C2416 1.391 . S
C2418 C2419 1.400 . S
C2419 C2418 1.400 . S
C2419 C2420 1.398 . S
C2419 C2425 1.491 . S
C2420 H2411 0.950 . S
C2420 C2419 1.398 . S
C2420 C2421 1.391 . S
C2421 H2409 0.950 . S
C2421 C2417 1.393 . S
C2421 C2420 1.391 . S
C2422 H2412 0.950 . S
C2422 C2423 1.386 . S
C2422 C2424 1.391 . S
C2423 C2422 1.386 . S
C2423 C2427 1.393 . S
C2424 H2413 0.950 . S
C2424 C2422 1.391 . S
C2424 C2425 1.400 . S
C2425 C2419 1.491 . S
C2425 C2424 1.400 . S
C2425 C2426 1.398 . S
C2426 H2414 0.950 . S
C2426 C2425 1.398 . S
C2426 C2427 1.391 . S
C2427 H2415 0.950 . S
C2427 C2423 1.393 . S
C2427 C2426 1.391 . S
H2428 C2436 0.950 . S
H2429 C2441 0.950 . S
H2430 C2438 0.950 . S
H2431 C2440 0.950 . S
H2432 C2442 0.950 . S
H2433 C2444 0.950 . S
H2434 C2446 0.950 . S
H2435 C2447 0.950 . S
C2436 H2428 0.950 . S
C2436 C2437 1.386 . S
C2436 C2438 1.391 . S
C2437 C2436 1.386 . S
C2437 C2441 1.393 . S
C2438 H2430 0.950 . S
C2438 C2436 1.391 . S
C2438 C2439 1.400 . S
C2439 C2438 1.400 . S
C2439 C2440 1.398 . S
C2439 C2445 1.491 . S
C2440 H2431 0.950 . S
C2440 C2439 1.398 . S
C2440 C2441 1.391 . S
C2441 H2429 0.950 . S
C2441 C2437 1.393 . S
C2441 C2440 1.391 . S
C2442 H2432 0.950 . S
C2442 C2443 1.386 . S
C2442 C2444 1.391 . S
C2443 C2442 1.386 . S
C2443 C2447 1.393 . S
C2444 H2433 0.950 . S
C2444 C2442 1.391 . S
C2444 C2445 1.400 . S
C2445 C2439 1.491 . S
C2445 C2444 1.400 . S
C2445 C2446 1.398 . S
C2446 H2434 0.950 . S
C2446 C2445 1.398 . S
C2446 C2447 1.391 . S
C2447 H2435 0.950 . S
C2447 C2443 1.393 . S
C2447 C2446 1.391 . S
H2448 C2456 0.950 . S
H2449 C2461 0.950 . S
H2450 C2458 0.950 . S
H2451 C2460 0.950 . S
H2452 C2462 0.942 1_554 S
H2453 C2464 0.950 . S
H2454 C2466 0.950 . S
H2455 C2467 0.950 . S
C2456 H2448 0.950 . S
C2456 C2457 1.386 . S
C2456 C2458 1.391 . S
C2457 C2456 1.386 . S
C2457 C2461 1.393 . S
C2458 H2450 0.950 . S
C2458 C2456 1.391 . S
C2458 C2459 1.400 . S
C2459 C2458 1.400 . S
C2459 C2460 1.398 . S
C2459 C2465 1.491 . S
C2460 H2451 0.950 . S
C2460 C2459 1.398 . S
C2460 C2461 1.391 . S
C2461 H2449 0.950 . S
C2461 C2457 1.393 . S
C2461 C2460 1.391 . S
C2462 H2452 0.942 1_556 S
C2462 C2463 1.387 . S
C2462 C2464 1.397 . S
C2463 C2462 1.387 . S
C2463 C2467 1.393 . S
C2464 H2453 0.950 . S
C2464 C2462 1.397 . S
C2464 C2465 1.400 . S
C2465 C2459 1.491 . S
C2465 C2464 1.400 . S
C2465 C2466 1.398 . S
C2466 H2454 0.950 . S
C2466 C2465 1.398 . S
C2466 C2467 1.391 . S
C2467 H2455 0.950 . S
C2467 C2463 1.393 . S
C2467 C2466 1.391 . S
H2468 C2476 0.950 . S
H2469 C2481 0.980 . S
H2470 C2478 0.950 . S
H2471 C2480 0.950 . S
H2472 C2482 0.950 . S
H2473 C2484 0.950 . S
H2474 C2486 0.950 . S
H2475 C2487 0.950 . S
C2476 H2468 0.950 . S
C2476 C2477 1.386 1_655 S
C2476 C2478 1.391 . S
C2477 C2476 1.386 1_455 S
C2477 C2481 1.397 . S
C2478 H2470 0.950 . S
C2478 C2476 1.391 . S
C2478 C2479 1.400 . S
C2479 C2478 1.400 . S
C2479 C2480 1.398 . S
C2479 C2485 1.491 . S
C2480 H2471 0.950 . S
C2480 C2479 1.398 . S
C2480 C2481 1.357 1_655 S
C2481 H2469 0.980 . S
C2481 C2477 1.397 . S
C2481 C2480 1.357 1_455 S
C2482 H2472 0.950 . S
C2482 C2483 1.386 . S
C2482 C2484 1.391 . S
C2483 C2482 1.386 . S
C2483 C2487 1.393 . S
C2484 H2473 0.950 . S
C2484 C2482 1.391 . S
C2484 C2485 1.400 . S
C2485 C2479 1.491 . S
C2485 C2484 1.400 . S
C2485 C2486 1.398 . S
C2486 H2474 0.950 . S
C2486 C2485 1.398 . S
C2486 C2487 1.391 . S
C2487 H2475 0.950 . S
C2487 C2483 1.393 . S
C2487 C2486 1.391 . S
H2488 C2496 0.950 . S
H2489 C2501 0.950 . S
H2490 C2498 0.950 . S
H2491 C2500 0.950 . S
H2492 C2502 0.950 . S
H2493 C2504 0.950 . S
H2494 C2506 0.950 . S
H2495 C2507 0.950 . S
C2496 H2488 0.950 . S
C2496 C2497 1.386 . S
C2496 C2498 1.391 . S
C2497 C2496 1.386 . S
C2497 C2501 1.393 . S
C2498 H2490 0.950 . S
C2498 C2496 1.391 . S
C2498 C2499 1.400 . S
C2499 C2498 1.400 . S
C2499 C2500 1.398 . S
C2499 C2505 1.491 . S
C2500 H2491 0.950 . S
C2500 C2499 1.398 . S
C2500 C2501 1.391 . S
C2501 H2489 0.950 . S
C2501 C2497 1.393 . S
C2501 C2500 1.391 . S
C2502 H2492 0.950 . S
C2502 C2503 1.386 . S
C2502 C2504 1.391 . S
C2503 C2502 1.386 . S
C2503 C2507 1.393 . S
C2504 H2493 0.950 . S
C2504 C2502 1.391 . S
C2504 C2505 1.400 . S
C2505 C2499 1.491 . S
C2505 C2504 1.400 . S
C2505 C2506 1.398 . S
C2506 H2494 0.950 . S
C2506 C2505 1.398 . S
C2506 C2507 1.391 . S
C2507 H2495 0.950 . S
C2507 C2503 1.393 . S
C2507 C2506 1.391 . S
H2508 C2516 0.950 . S
H2509 C2521 0.950 . S
H2510 C2518 0.950 . S
H2511 C2520 0.950 . S
H2512 C2522 0.950 . S
H2513 C2524 0.950 . S
H2514 C2526 0.950 . S
H2515 C2527 0.950 . S
C2516 H2508 0.950 . S
C2516 C2517 1.386 . S
C2516 C2518 1.391 . S
C2517 C2516 1.386 . S
C2517 C2521 1.393 . S
C2518 H2510 0.950 . S
C2518 C2516 1.391 . S
C2518 C2519 1.400 . S
C2519 C2518 1.400 . S
C2519 C2520 1.398 . S
C2519 C2525 1.491 . S
C2520 H2511 0.950 . S
C2520 C2519 1.398 . S
C2520 C2521 1.391 . S
C2521 H2509 0.950 . S
C2521 C2517 1.393 . S
C2521 C2520 1.391 . S
C2522 H2512 0.950 . S
C2522 C2523 1.386 . S
C2522 C2524 1.391 . S
C2523 C2522 1.386 . S
C2523 C2527 1.393 . S
C2524 H2513 0.950 . S
C2524 C2522 1.391 . S
C2524 C2525 1.400 . S
C2525 C2519 1.491 . S
C2525 C2524 1.400 . S
C2525 C2526 1.398 . S
C2526 H2514 0.950 . S
C2526 C2525 1.398 . S
C2526 C2527 1.391 . S
C2527 H2515 0.950 . S
C2527 C2523 1.393 . S
C2527 C2526 1.391 . S
H2528 C2536 0.950 . S
H2529 C2541 0.950 . S
H2530 C2538 0.950 . S
H2531 C2540 0.950 . S
H2532 C2542 0.950 . S
H2533 C2544 0.950 . S
H2534 C2546 0.950 . S
H2535 C2547 0.950 . S
C2536 H2528 0.950 . S
C2536 C2537 1.386 . S
C2536 C2538 1.391 . S
C2537 C2536 1.386 . S
C2537 C2541 1.393 . S
C2538 H2530 0.950 . S
C2538 C2536 1.391 . S
C2538 C2539 1.400 . S
C2539 C2538 1.400 . S
C2539 C2540 1.398 . S
C2539 C2545 1.491 . S
C2540 H2531 0.950 . S
C2540 C2539 1.398 . S
C2540 C2541 1.391 . S
C2541 H2529 0.950 . S
C2541 C2537 1.393 . S
C2541 C2540 1.391 . S
C2542 H2532 0.950 . S
C2542 C2543 1.386 . S
C2542 C2544 1.391 . S
C2543 C2542 1.386 . S
C2543 C2547 1.393 . S
C2544 H2533 0.950 . S
C2544 C2542 1.391 . S
C2544 C2545 1.400 . S
C2545 C2539 1.491 . S
C2545 C2544 1.400 . S
C2545 C2546 1.398 . S
C2546 H2534 0.950 . S
C2546 C2545 1.398 . S
C2546 C2547 1.391 . S
C2547 H2535 0.950 . S
C2547 C2543 1.393 . S
C2547 C2546 1.391 . S
H2548 C2556 0.950 . S
H2549 C2561 0.950 . S
H2550 C2558 0.950 . S
H2551 C2560 0.950 . S
H2552 C2562 0.950 . S
H2553 C2564 0.950 . S
H2554 C2566 0.950 . S
H2555 C2567 0.950 . S
C2556 H2548 0.950 . S
C2556 C2557 1.386 . S
C2556 C2558 1.391 . S
C2557 C2556 1.386 . S
C2557 C2561 1.393 . S
C2558 H2550 0.950 . S
C2558 C2556 1.391 . S
C2558 C2559 1.400 . S
C2559 C2558 1.400 . S
C2559 C2560 1.398 . S
C2559 C2565 1.491 . S
C2560 H2551 0.950 . S
C2560 C2559 1.398 . S
C2560 C2561 1.391 . S
C2561 H2549 0.950 . S
C2561 C2557 1.393 . S
C2561 C2560 1.391 . S
C2562 H2552 0.950 . S
C2562 C2563 1.386 . S
C2562 C2564 1.391 . S
C2563 C2562 1.386 . S
C2563 C2567 1.393 . S
C2564 H2553 0.950 . S
C2564 C2562 1.391 . S
C2564 C2565 1.400 . S
C2565 C2559 1.491 . S
C2565 C2564 1.400 . S
C2565 C2566 1.398 . S
C2566 H2554 0.950 . S
C2566 C2565 1.398 . S
C2566 C2567 1.391 . S
C2567 H2555 0.950 . S
C2567 C2563 1.393 . S
C2567 C2566 1.391 . S
H2568 C2576 0.950 . S
H2569 C2581 0.950 . S
H2570 C2578 0.950 . S
H2571 C2580 0.950 . S
H2572 C2582 0.950 . S
H2573 C2584 0.950 1_455 S
H2574 C2586 0.950 . S
H2575 C2587 0.950 . S
C2576 H2568 0.950 . S
C2576 C2577 1.386 . S
C2576 C2578 1.391 . S
C2577 C2576 1.386 . S
C2577 C2581 1.393 . S
C2578 H2570 0.950 . S
C2578 C2576 1.391 . S
C2578 C2579 1.400 . S
C2579 C2578 1.400 . S
C2579 C2580 1.398 . S
C2579 C2585 1.491 . S
C2580 H2571 0.950 . S
C2580 C2579 1.398 . S
C2580 C2581 1.391 . S
C2581 H2569 0.950 . S
C2581 C2577 1.393 . S
C2581 C2580 1.391 . S
C2582 H2572 0.950 . S
C2582 C2583 1.386 . S
C2582 C2584 1.391 1_455 S
C2583 C2582 1.386 . S
C2583 C2587 1.393 1_455 S
C2584 H2573 0.950 1_655 S
C2584 C2582 1.391 1_655 S
C2584 C2585 1.400 . S
C2585 C2579 1.491 . S
C2585 C2584 1.400 . S
C2585 C2586 1.398 . S
C2586 H2574 0.950 . S
C2586 C2585 1.398 . S
C2586 C2587 1.391 . S
C2587 H2575 0.950 . S
C2587 C2583 1.393 1_655 S
C2587 C2586 1.391 . S
H2588 C2596 0.950 . S
H2589 C2601 0.950 . S
H2590 C2598 0.950 . S
H2591 C2600 0.950 . S
H2592 C2602 0.950 . S
H2593 C2604 0.950 . S
H2594 C2606 0.950 . S
H2595 C2607 0.950 . S
C2596 H2588 0.950 . S
C2596 C2597 1.386 . S
C2596 C2598 1.391 . S
C2597 C2596 1.386 . S
C2597 C2601 1.393 . S
C2598 H2590 0.950 . S
C2598 C2596 1.391 . S
C2598 C2599 1.400 . S
C2599 C2598 1.400 . S
C2599 C2600 1.398 . S
C2599 C2605 1.491 . S
C2600 H2591 0.950 . S
C2600 C2599 1.398 . S
C2600 C2601 1.391 . S
C2601 H2589 0.950 . S
C2601 C2597 1.393 . S
C2601 C2600 1.391 . S
C2602 H2592 0.950 . S
C2602 C2603 1.386 . S
C2602 C2604 1.391 . S
C2603 C2602 1.386 . S
C2603 C2607 1.393 . S
C2604 H2593 0.950 . S
C2604 C2602 1.391 . S
C2604 C2605 1.400 . S
C2605 C2599 1.491 . S
C2605 C2604 1.400 . S
C2605 C2606 1.398 . S
C2606 H2594 0.950 . S
C2606 C2605 1.398 . S
C2606 C2607 1.391 . S
C2607 H2595 0.950 . S
C2607 C2603 1.393 . S
C2607 C2606 1.391 . S
H2608 C2616 0.950 . S
H2609 C2621 0.950 . S
H2610 C2618 0.950 . S
H2611 C2620 0.950 . S
H2612 C2622 0.950 . S
H2613 C2624 0.950 . S
H2614 C2626 0.950 . S
H2615 C2627 0.950 . S
C2616 H2608 0.950 . S
C2616 C2617 1.386 . S
C2616 C2618 1.391 . S
C2617 C2616 1.386 . S
C2617 C2621 1.393 . S
C2618 H2610 0.950 . S
C2618 C2616 1.391 . S
C2618 C2619 1.400 . S
C2619 C2618 1.400 . S
C2619 C2620 1.398 . S
C2619 C2625 1.491 . S
C2620 H2611 0.950 . S
C2620 C2619 1.398 . S
C2620 C2621 1.391 . S
C2621 H2609 0.950 . S
C2621 C2617 1.393 . S
C2621 C2620 1.391 . S
C2622 H2612 0.950 . S
C2622 C2623 1.386 . S
C2622 C2624 1.391 . S
C2623 C2622 1.386 . S
C2623 C2627 1.393 . S
C2624 H2613 0.950 . S
C2624 C2622 1.391 . S
C2624 C2625 1.400 . S
C2625 C2619 1.491 . S
C2625 C2624 1.400 . S
C2625 C2626 1.398 . S
C2626 H2614 0.950 . S
C2626 C2625 1.398 . S
C2626 C2627 1.391 . S
C2627 H2615 0.950 . S
C2627 C2623 1.393 . S
C2627 C2626 1.391 . S
H2628 C2636 0.950 . S
H2629 C2641 0.950 . S
H2630 C2638 0.950 . S
H2631 C2640 0.950 . S
H2632 C2642 0.950 . S
H2633 C2644 0.950 . S
H2634 C2646 0.950 . S
H2635 C2647 0.950 . S
C2636 H2628 0.950 . S
C2636 C2637 1.386 . S
C2636 C2638 1.391 . S
C2637 C2636 1.386 . S
C2637 C2641 1.393 . S
C2638 H2630 0.950 . S
C2638 C2636 1.391 . S
C2638 C2639 1.400 . S
C2639 C2638 1.400 . S
C2639 C2640 1.398 . S
C2639 C2645 1.491 . S
C2640 H2631 0.950 . S
C2640 C2639 1.398 . S
C2640 C2641 1.391 . S
C2641 H2629 0.950 . S
C2641 C2637 1.393 . S
C2641 C2640 1.391 . S
C2642 H2632 0.950 . S
C2642 C2643 1.386 . S
C2642 C2644 1.391 . S
C2643 C2642 1.386 . S
C2643 C2647 1.393 . S
C2644 H2633 0.950 . S
C2644 C2642 1.391 . S
C2644 C2645 1.400 . S
C2645 C2639 1.491 . S
C2645 C2644 1.400 . S
C2645 C2646 1.398 . S
C2646 H2634 0.950 . S
C2646 C2645 1.398 . S
C2646 C2647 1.391 . S
C2647 H2635 0.950 . S
C2647 C2643 1.393 . S
C2647 C2646 1.391 . S
H2648 C2656 0.950 . S
H2649 C2661 0.950 . S
H2650 C2658 0.950 . S
H2651 C2660 0.950 . S
H2652 C2662 0.950 . S
H2653 C2664 0.950 . S
H2654 C2666 0.950 . S
H2655 C2667 0.950 1_455 S
C2656 H2648 0.950 . S
C2656 C2657 1.386 . S
C2656 C2658 1.391 . S
C2657 C2656 1.386 . S
C2657 C2661 1.393 . S
C2658 H2650 0.950 . S
C2658 C2656 1.391 . S
C2658 C2659 1.400 . S
C2659 C2658 1.400 . S
C2659 C2660 1.398 . S
C2659 C2665 1.491 . S
C2660 H2651 0.950 . S
C2660 C2659 1.398 . S
C2660 C2661 1.391 . S
C2661 H2649 0.950 . S
C2661 C2657 1.393 . S
C2661 C2660 1.391 . S
C2662 H2652 0.950 . S
C2662 C2663 1.386 . S
C2662 C2664 1.391 . S
C2663 C2662 1.386 . S
C2663 C2667 1.393 . S
C2664 H2653 0.950 . S
C2664 C2662 1.391 . S
C2664 C2665 1.400 . S
C2665 C2659 1.491 . S
C2665 C2664 1.400 . S
C2665 C2666 1.398 . S
C2666 H2654 0.950 . S
C2666 C2665 1.398 . S
C2666 C2667 1.391 . S
C2667 H2655 0.950 1_655 S
C2667 C2663 1.393 . S
C2667 C2666 1.391 . S
H2668 C2676 0.950 . S
H2669 C2681 0.950 . S
H2670 C2678 0.950 . S
H2671 C2680 0.950 . S
H2672 C2682 0.950 . S
H2673 C2684 0.950 . S
H2674 C2686 0.950 . S
H2675 C2687 0.950 . S
C2676 H2668 0.950 . S
C2676 C2677 1.386 . S
C2676 C2678 1.391 . S
C2677 C2676 1.386 . S
C2677 C2681 1.393 . S
C2678 H2670 0.950 . S
C2678 C2676 1.391 . S
C2678 C2679 1.400 . S
C2679 C2678 1.400 . S
C2679 C2680 1.398 . S
C2679 C2685 1.491 . S
C2680 H2671 0.950 . S
C2680 C2679 1.398 . S
C2680 C2681 1.391 . S
C2681 H2669 0.950 . S
C2681 C2677 1.393 . S
C2681 C2680 1.391 . S
C2682 H2672 0.950 . S
C2682 C2683 1.386 . S
C2682 C2684 1.391 . S
C2683 C2682 1.386 . S
C2683 C2687 1.393 . S
C2684 H2673 0.950 . S
C2684 C2682 1.391 . S
C2684 C2685 1.400 . S
C2685 C2679 1.491 . S
C2685 C2684 1.400 . S
C2685 C2686 1.398 . S
C2686 H2674 0.950 . S
C2686 C2685 1.398 . S
C2686 C2687 1.391 . S
C2687 H2675 0.950 . S
C2687 C2683 1.393 . S
C2687 C2686 1.391 . S
H2688 C2696 0.950 . S
H2689 C2701 0.950 . S
H2690 C2698 0.950 . S
H2691 C2700 0.950 . S
H2692 C2702 0.950 . S
H2693 C2704 0.950 . S
H2694 C2706 0.950 . S
H2695 C2707 0.950 . S
C2696 H2688 0.950 . S
C2696 C2697 1.386 . S
C2696 C2698 1.391 . S
C2697 C2696 1.386 . S
C2697 C2701 1.393 . S
C2698 H2690 0.950 . S
C2698 C2696 1.391 . S
C2698 C2699 1.400 . S
C2699 C2698 1.400 . S
C2699 C2700 1.398 . S
C2699 C2705 1.491 . S
C2700 H2691 0.950 . S
C2700 C2699 1.398 . S
C2700 C2701 1.391 . S
C2701 H2689 0.950 . S
C2701 C2697 1.393 . S
C2701 C2700 1.391 . S
C2702 H2692 0.950 . S
C2702 C2703 1.386 . S
C2702 C2704 1.391 . S
C2703 C2702 1.386 . S
C2703 C2707 1.393 . S
C2704 H2693 0.950 . S
C2704 C2702 1.391 . S
C2704 C2705 1.400 . S
C2705 C2699 1.491 . S
C2705 C2704 1.400 . S
C2705 C2706 1.398 . S
C2706 H2694 0.950 . S
C2706 C2705 1.398 . S
C2706 C2707 1.391 . S
C2707 H2695 0.950 . S
C2707 C2703 1.393 . S
C2707 C2706 1.391 . S
H2708 C2716 0.950 . S
H2709 C2721 0.950 . S
H2710 C2718 0.950 . S
H2711 C2720 0.950 . S
H2712 C2722 0.950 . S
H2713 C2724 0.950 . S
H2714 C2726 0.950 1_545 S
H2715 C2727 0.950 . S
C2716 H2708 0.950 . S
C2716 C2717 1.386 . S
C2716 C2718 1.391 . S
C2717 C2716 1.386 . S
C2717 C2721 1.393 . S
C2718 H2710 0.950 . S
C2718 C2716 1.391 . S
C2718 C2719 1.400 . S
C2719 C2718 1.400 . S
C2719 C2720 1.398 . S
C2719 C2725 1.491 . S
C2720 H2711 0.950 . S
C2720 C2719 1.398 . S
C2720 C2721 1.391 . S
C2721 H2709 0.950 . S
C2721 C2717 1.393 . S
C2721 C2720 1.391 . S
C2722 H2712 0.950 . S
C2722 C2723 1.386 . S
C2722 C2724 1.391 . S
C2723 C2722 1.386 . S
C2723 C2727 1.393 1_565 S
C2724 H2713 0.950 . S
C2724 C2722 1.391 . S
C2724 C2725 1.400 . S
C2725 C2719 1.491 . S
C2725 C2724 1.400 . S
C2725 C2726 1.398 . S
C2726 H2714 0.950 1_565 S
C2726 C2725 1.398 . S
C2726 C2727 1.391 1_565 S
C2727 H2715 0.950 . S
C2727 C2723 1.393 1_545 S
C2727 C2726 1.391 1_545 S
H2728 C2736 0.950 . S
H2729 C2741 0.950 . S
H2730 C2738 0.950 . S
H2731 C2740 0.950 . S
H2732 C2742 0.950 . S
H2733 C2744 0.950 . S
H2734 C2746 0.950 . S
H2735 C2747 0.950 . S
C2736 H2728 0.950 . S
C2736 C2737 1.386 . S
C2736 C2738 1.391 . S
C2737 C2736 1.386 . S
C2737 C2741 1.393 . S
C2738 H2730 0.950 . S
C2738 C2736 1.391 . S
C2738 C2739 1.400 . S
C2739 C2738 1.400 . S
C2739 C2740 1.398 . S
C2739 C2745 1.491 . S
C2740 H2731 0.950 . S
C2740 C2739 1.398 . S
C2740 C2741 1.391 . S
C2741 H2729 0.950 . S
C2741 C2737 1.393 . S
C2741 C2740 1.391 . S
C2742 H2732 0.950 . S
C2742 C2743 1.386 . S
C2742 C2744 1.391 . S
C2743 C2742 1.386 . S
C2743 C2747 1.393 . S
C2744 H2733 0.950 . S
C2744 C2742 1.391 . S
C2744 C2745 1.400 . S
C2745 C2739 1.491 . S
C2745 C2744 1.400 . S
C2745 C2746 1.398 . S
C2746 H2734 0.950 . S
C2746 C2745 1.398 . S
C2746 C2747 1.391 . S
C2747 H2735 0.950 . S
C2747 C2743 1.393 . S
C2747 C2746 1.391 . S
H2748 C2756 0.950 . S
H2749 C2761 0.950 . S
H2750 C2758 0.950 . S
H2751 C2760 0.950 . S
H2752 C2762 0.950 . S
H2753 C2764 0.950 . S
H2754 C2766 0.950 . S
H2755 C2767 0.950 . S
C2756 H2748 0.950 . S
C2756 C2757 1.386 . S
C2756 C2758 1.391 . S
C2757 C2756 1.386 . S
C2757 C2761 1.393 . S
C2758 H2750 0.950 . S
C2758 C2756 1.391 . S
C2758 C2759 1.400 . S
C2759 C2758 1.400 . S
C2759 C2760 1.398 . S
C2759 C2765 1.491 . S
C2760 H2751 0.950 . S
C2760 C2759 1.398 . S
C2760 C2761 1.391 . S
C2761 H2749 0.950 . S
C2761 C2757 1.393 . S
C2761 C2760 1.391 . S
C2762 H2752 0.950 . S
C2762 C2763 1.386 . S
C2762 C2764 1.391 . S
C2763 C2762 1.386 . S
C2763 C2767 1.393 . S
C2764 H2753 0.950 . S
C2764 C2762 1.391 . S
C2764 C2765 1.400 . S
C2765 C2759 1.491 . S
C2765 C2764 1.400 . S
C2765 C2766 1.398 . S
C2766 H2754 0.950 . S
C2766 C2765 1.398 . S
C2766 C2767 1.391 . S
C2767 H2755 0.950 . S
C2767 C2763 1.393 . S
C2767 C2766 1.391 . S
H2768 C2776 0.950 . S
H2769 C2781 0.950 . S
H2770 C2778 0.950 . S
H2771 C2780 0.950 . S
H2772 C2782 0.950 . S
H2773 C2784 0.950 . S
H2774 C2786 0.950 . S
H2775 C2787 0.950 . S
C2776 H2768 0.950 . S
C2776 C2777 1.386 . S
C2776 C2778 1.391 . S
C2777 C2776 1.386 . S
C2777 C2781 1.393 . S
C2778 H2770 0.950 . S
C2778 C2776 1.391 . S
C2778 C2779 1.400 . S
C2779 C2778 1.400 . S
C2779 C2780 1.398 . S
C2779 C2785 1.491 . S
C2780 H2771 0.950 . S
C2780 C2779 1.398 . S
C2780 C2781 1.391 . S
C2781 H2769 0.950 . S
C2781 C2777 1.393 . S
C2781 C2780 1.391 . S
C2782 H2772 0.950 . S
C2782 C2783 1.386 . S
C2782 C2784 1.391 . S
C2783 C2782 1.386 . S
C2783 C2787 1.393 . S
C2784 H2773 0.950 . S
C2784 C2782 1.391 . S
C2784 C2785 1.400 . S
C2785 C2779 1.491 . S
C2785 C2784 1.400 . S
C2785 C2786 1.398 . S
C2786 H2774 0.950 . S
C2786 C2785 1.398 . S
C2786 C2787 1.391 . S
C2787 H2775 0.950 . S
C2787 C2783 1.393 . S
C2787 C2786 1.391 . S
H2788 C2796 0.950 . S
H2789 C2801 0.950 . S
H2790 C2798 0.950 . S
H2791 C2800 0.950 . S
H2792 C2802 0.950 . S
H2793 C2804 0.950 . S
H2794 C2806 0.950 . S
H2795 C2807 0.950 1_556 S
C2796 H2788 0.950 . S
C2796 C2797 1.386 . S
C2796 C2798 1.391 . S
C2797 C2796 1.386 . S
C2797 C2801 1.393 . S
C2798 H2790 0.950 . S
C2798 C2796 1.391 . S
C2798 C2799 1.400 . S
C2799 C2798 1.400 . S
C2799 C2800 1.398 . S
C2799 C2805 1.491 . S
C2800 H2791 0.950 . S
C2800 C2799 1.398 . S
C2800 C2801 1.391 . S
C2801 H2789 0.950 . S
C2801 C2797 1.393 . S
C2801 C2800 1.391 . S
C2802 H2792 0.950 . S
C2802 C2803 1.386 . S
C2802 C2804 1.391 . S
C2803 C2802 1.386 . S
C2803 C2807 1.393 . S
C2804 H2793 0.950 . S
C2804 C2802 1.391 . S
C2804 C2805 1.400 . S
C2805 C2799 1.491 . S
C2805 C2804 1.400 . S
C2805 C2806 1.398 . S
C2806 H2794 0.950 . S
C2806 C2805 1.398 . S
C2806 C2807 1.391 . S
C2807 H2795 0.950 1_554 S
C2807 C2803 1.393 . S
C2807 C2806 1.391 . S
H2808 C2816 0.950 . S
H2809 C2821 0.950 . S
H2810 C2818 0.950 . S
H2811 C2820 0.950 . S
H2812 C2822 0.950 . S
H2813 C2824 0.950 . S
H2814 C2826 0.950 . S
H2815 C2827 0.950 . S
C2816 H2808 0.950 . S
C2816 C2817 1.386 . S
C2816 C2818 1.391 . S
C2817 C2816 1.386 . S
C2817 C2821 1.393 . S
C2818 H2810 0.950 . S
C2818 C2816 1.391 . S
C2818 C2819 1.400 . S
C2819 C2818 1.400 . S
C2819 C2820 1.398 . S
C2819 C2825 1.491 . S
C2820 H2811 0.950 . S
C2820 C2819 1.398 . S
C2820 C2821 1.391 . S
C2821 H2809 0.950 . S
C2821 C2817 1.393 . S
C2821 C2820 1.391 . S
C2822 H2812 0.950 . S
C2822 C2823 1.386 . S
C2822 C2824 1.391 . S
C2823 C2822 1.386 . S
C2823 C2827 1.393 . S
C2824 H2813 0.950 . S
C2824 C2822 1.391 . S
C2824 C2825 1.400 . S
C2825 C2819 1.491 . S
C2825 C2824 1.400 . S
C2825 C2826 1.398 . S
C2826 H2814 0.950 . S
C2826 C2825 1.398 . S
C2826 C2827 1.391 . S
C2827 H2815 0.950 . S
C2827 C2823 1.393 . S
C2827 C2826 1.391 . S
H2828 C2836 0.950 . S
H2829 C2841 0.950 . S
H2830 C2838 0.950 . S
H2831 C2840 0.950 . S
H2832 C2842 0.950 . S
H2833 C2844 0.950 . S
H2834 C2846 0.950 . S
H2835 C2847 0.950 . S
C2836 H2828 0.950 . S
C2836 C2837 1.386 . S
C2836 C2838 1.391 . S
C2837 C2836 1.386 . S
C2837 C2841 1.393 . S
C2838 H2830 0.950 . S
C2838 C2836 1.391 . S
C2838 C2839 1.400 . S
C2839 C2838 1.400 . S
C2839 C2840 1.398 . S
C2839 C2845 1.491 . S
C2840 H2831 0.950 . S
C2840 C2839 1.398 . S
C2840 C2841 1.391 . S
C2841 H2829 0.950 . S
C2841 C2837 1.393 . S
C2841 C2840 1.391 . S
C2842 H2832 0.950 . S
C2842 C2843 1.386 . S
C2842 C2844 1.391 . S
C2843 C2842 1.386 . S
C2843 C2847 1.393 . S
C2844 H2833 0.950 . S
C2844 C2842 1.391 . S
C2844 C2845 1.400 . S
C2845 C2839 1.491 . S
C2845 C2844 1.400 . S
C2845 C2846 1.398 . S
C2846 H2834 0.950 . S
C2846 C2845 1.398 . S
C2846 C2847 1.391 . S
C2847 H2835 0.950 . S
C2847 C2843 1.393 . S
C2847 C2846 1.391 . S
H2848 C2856 0.950 . S
H2849 C2861 0.950 . S
H2850 C2858 0.950 . S
H2851 C2860 0.950 . S
H2852 C2862 0.950 . S
H2853 C2864 0.950 . S
H2854 C2866 0.950 . S
H2855 C2867 0.950 . S
C2856 H2848 0.950 . S
C2856 C2857 1.386 . S
C2856 C2858 1.391 . S
C2857 C2856 1.386 . S
C2857 C2861 1.393 . S
C2858 H2850 0.950 . S
C2858 C2856 1.391 . S
C2858 C2859 1.400 . S
C2859 C2858 1.400 . S
C2859 C2860 1.398 . S
C2859 C2865 1.491 . S
C2860 H2851 0.950 . S
C2860 C2859 1.398 . S
C2860 C2861 1.391 . S
C2861 H2849 0.950 . S
C2861 C2857 1.393 . S
C2861 C2860 1.391 . S
C2862 H2852 0.950 . S
C2862 C2863 1.386 . S
C2862 C2864 1.391 . S
C2863 C2862 1.386 . S
C2863 C2867 1.393 . S
C2864 H2853 0.950 . S
C2864 C2862 1.391 . S
C2864 C2865 1.400 . S
C2865 C2859 1.491 . S
C2865 C2864 1.400 . S
C2865 C2866 1.398 . S
C2866 H2854 0.950 . S
C2866 C2865 1.398 . S
C2866 C2867 1.391 . S
C2867 H2855 0.950 . S
C2867 C2863 1.393 . S
C2867 C2866 1.391 . S
H2868 C2876 0.950 . S
H2869 C2881 0.950 . S
H2870 C2878 0.950 . S
H2871 C2880 0.950 . S
H2872 C2882 0.950 . S
H2873 C2884 0.950 . S
H2874 C2886 0.950 . S
H2875 C2887 0.950 . S
C2876 H2868 0.950 . S
C2876 C2877 1.386 . S
C2876 C2878 1.391 . S
C2877 C2876 1.386 . S
C2877 C2881 1.393 . S
C2878 H2870 0.950 . S
C2878 C2876 1.391 . S
C2878 C2879 1.400 . S
C2879 C2878 1.400 . S
C2879 C2880 1.398 . S
C2879 C2885 1.491 . S
C2880 H2871 0.950 . S
C2880 C2879 1.398 . S
C2880 C2881 1.391 . S
C2881 H2869 0.950 . S
C2881 C2877 1.393 . S
C2881 C2880 1.391 . S
C2882 H2872 0.950 . S
C2882 C2883 1.386 . S
C2882 C2884 1.391 . S
C2883 C2882 1.386 . S
C2883 C2887 1.393 . S
C2884 H2873 0.950 . S
C2884 C2882 1.391 . S
C2884 C2885 1.400 . S
C2885 C2879 1.491 . S
C2885 C2884 1.400 . S
C2885 C2886 1.398 . S
C2886 H2874 0.950 . S
C2886 C2885 1.398 . S
C2886 C2887 1.391 . S
C2887 H2875 0.950 . S
C2887 C2883 1.393 . S
C2887 C2886 1.391 . S
H2888 C2896 0.950 . S
H2889 C2901 0.950 . S
H2890 C2898 0.950 . S
H2891 C2900 0.950 . S
H2892 C2902 0.950 1_454 S
H2893 C2904 0.949 . S
H2894 C2906 0.950 . S
H2895 C2907 0.950 . S
C2896 H2888 0.950 . S
C2896 C2897 1.383 1_655 S
C2896 C2898 1.391 . S
C2897 C2896 1.383 1_455 S
C2897 C2901 1.395 . S
C2898 H2890 0.950 . S
C2898 C2896 1.391 . S
C2898 C2899 1.400 . S
C2899 C2898 1.400 . S
C2899 C2900 1.398 1_655 S
C2899 C2905 1.491 . S
C2900 H2891 0.950 . S
C2900 C2899 1.398 1_455 S
C2900 C2901 1.391 . S
C2901 H2889 0.950 . S
C2901 C2897 1.395 . S
C2901 C2900 1.391 . S
C2902 H2892 0.950 1_656 S
C2902 C2903 1.386 . S
C2902 C2904 1.391 1_655 S
C2903 C2902 1.386 . S
C2903 C2907 1.393 . S
C2904 H2893 0.949 . S
C2904 C2902 1.391 1_455 S
C2904 C2905 1.400 1_455 S
C2905 C2899 1.491 . S
C2905 C2904 1.400 1_655 S
C2905 C2906 1.398 . S
C2906 H2894 0.950 . S
C2906 C2905 1.398 . S
C2906 C2907 1.391 . S
C2907 H2895 0.950 . S
C2907 C2903 1.393 . S
C2907 C2906 1.391 . S
H2908 C2916 0.950 . S
H2909 C2921 0.950 . S
H2910 C2918 0.950 . S
H2911 C2920 0.950 . S
H2912 C2922 0.950 . S
H2913 C2924 0.950 . S
H2914 C2926 0.950 . S
H2915 C2927 0.950 . S
C2916 H2908 0.950 . S
C2916 C2917 1.386 . S
C2916 C2918 1.391 . S
C2917 C2916 1.386 . S
C2917 C2921 1.393 . S
C2918 H2910 0.950 . S
C2918 C2916 1.391 . S
C2918 C2919 1.400 . S
C2919 C2918 1.400 . S
C2919 C2920 1.398 . S
C2919 C2925 1.491 . S
C2920 H2911 0.950 . S
C2920 C2919 1.398 . S
C2920 C2921 1.391 . S
C2921 H2909 0.950 . S
C2921 C2917 1.393 . S
C2921 C2920 1.391 . S
C2922 H2912 0.950 . S
C2922 C2923 1.386 . S
C2922 C2924 1.391 . S
C2923 C2922 1.386 . S
C2923 C2927 1.393 . S
C2924 H2913 0.950 . S
C2924 C2922 1.391 . S
C2924 C2925 1.400 . S
C2925 C2919 1.491 . S
C2925 C2924 1.400 . S
C2925 C2926 1.398 . S
C2926 H2914 0.950 . S
C2926 C2925 1.398 . S
C2926 C2927 1.391 . S
C2927 H2915 0.950 . S
C2927 C2923 1.393 . S
C2927 C2926 1.391 . S
H2928 C2936 0.950 . S
H2929 C2941 0.950 . S
H2930 C2938 0.950 . S
H2931 C2940 0.950 . S
H2932 C2942 0.950 . S
H2933 C2944 0.950 . S
H2934 C2946 0.950 . S
H2935 C2947 0.950 . S
C2936 H2928 0.950 . S
C2936 C2937 1.386 . S
C2936 C2938 1.391 . S
C2937 C2936 1.386 . S
C2937 C2941 1.393 . S
C2938 H2930 0.950 . S
C2938 C2936 1.391 . S
C2938 C2939 1.400 . S
C2939 C2938 1.400 . S
C2939 C2940 1.398 . S
C2939 C2945 1.491 . S
C2940 H2931 0.950 . S
C2940 C2939 1.398 . S
C2940 C2941 1.391 . S
C2941 H2929 0.950 . S
C2941 C2937 1.393 . S
C2941 C2940 1.391 . S
C2942 H2932 0.950 . S
C2942 C2943 1.386 . S
C2942 C2944 1.391 . S
C2943 C2942 1.386 . S
C2943 C2947 1.393 . S
C2944 H2933 0.950 . S
C2944 C2942 1.391 . S
C2944 C2945 1.400 . S
C2945 C2939 1.491 . S
C2945 C2944 1.400 . S
C2945 C2946 1.398 . S
C2946 H2934 0.950 . S
C2946 C2945 1.398 . S
C2946 C2947 1.391 . S
C2947 H2935 0.950 . S
C2947 C2943 1.393 . S
C2947 C2946 1.391 . S
H2948 C2956 0.950 . S
H2949 C2961 0.950 . S
H2950 C2958 0.950 . S
H2951 C2960 0.950 . S
H2952 C2962 0.950 . S
H2953 C2964 0.950 . S
H2954 C2966 0.950 . S
H2955 C2967 0.950 . S
C2956 H2948 0.950 . S
C2956 C2957 1.386 . S
C2956 C2958 1.391 . S
C2957 C2956 1.386 . S
C2957 C2961 1.393 . S
C2958 H2950 0.950 . S
C2958 C2956 1.391 . S
C2958 C2959 1.400 . S
C2959 C2958 1.400 . S
C2959 C2960 1.398 . S
C2959 C2965 1.491 . S
C2960 H2951 0.950 . S
C2960 C2959 1.398 . S
C2960 C2961 1.391 . S
C2961 H2949 0.950 . S
C2961 C2957 1.393 . S
C2961 C2960 1.391 . S
C2962 H2952 0.950 . S
C2962 C2963 1.386 . S
C2962 C2964 1.391 . S
C2963 C2962 1.386 . S
C2963 C2967 1.393 . S
C2964 H2953 0.950 . S
C2964 C2962 1.391 . S
C2964 C2965 1.400 . S
C2965 C2959 1.491 . S
C2965 C2964 1.400 . S
C2965 C2966 1.398 . S
C2966 H2954 0.950 . S
C2966 C2965 1.398 . S
C2966 C2967 1.391 . S
C2967 H2955 0.950 . S
C2967 C2963 1.393 . S
C2967 C2966 1.391 . S
H2968 C2976 0.950 . S
H2969 C2981 0.950 . S
H2970 C2978 0.950 . S
H2971 C2980 0.950 . S
H2972 C2982 0.950 . S
H2973 C2984 0.950 . S
H2974 C2986 0.950 . S
H2975 C2987 0.950 . S
C2976 H2968 0.950 . S
C2976 C2977 1.386 . S
C2976 C2978 1.391 . S
C2977 C2976 1.386 . S
C2977 C2981 1.393 . S
C2978 H2970 0.950 . S
C2978 C2976 1.391 . S
C2978 C2979 1.400 . S
C2979 C2978 1.400 . S
C2979 C2980 1.398 . S
C2979 C2985 1.491 . S
C2980 H2971 0.950 . S
C2980 C2979 1.398 . S
C2980 C2981 1.391 . S
C2981 H2969 0.950 . S
C2981 C2977 1.393 . S
C2981 C2980 1.391 . S
C2982 H2972 0.950 . S
C2982 C2983 1.386 . S
C2982 C2984 1.391 . S
C2983 C2982 1.386 . S
C2983 C2987 1.393 . S
C2984 H2973 0.950 . S
C2984 C2982 1.391 . S
C2984 C2985 1.400 . S
C2985 C2979 1.491 . S
C2985 C2984 1.400 . S
C2985 C2986 1.398 . S
C2986 H2974 0.950 . S
C2986 C2985 1.398 . S
C2986 C2987 1.391 . S
C2987 H2975 0.950 . S
C2987 C2983 1.393 . S
C2987 C2986 1.391 . S
H2988 C2996 0.950 . S
H2989 C3001 0.950 . S
H2990 C2998 0.950 . S
H2991 C3000 0.950 . S
H2992 C3002 0.950 . S
H2993 C3004 0.950 . S
H2994 C3006 0.950 . S
H2995 C3007 0.950 . S
C2996 H2988 0.950 . S
C2996 C2997 1.386 . S
C2996 C2998 1.391 . S
C2997 C2996 1.386 . S
C2997 C3001 1.393 . S
C2998 H2990 0.950 . S
C2998 C2996 1.391 . S
C2998 C2999 1.400 . S
C2999 C2998 1.400 . S
C2999 C3000 1.398 . S
C2999 C3005 1.491 . S
C3000 H2991 0.950 . S
C3000 C2999 1.398 . S
C3000 C3001 1.391 . S
C3001 H2989 0.950 . S
C3001 C2997 1.393 . S
C3001 C3000 1.391 . S
C3002 H2992 0.950 . S
C3002 C3003 1.386 . S
C3002 C3004 1.391 . S
C3003 C3002 1.386 . S
C3003 C3007 1.393 . S
C3004 H2993 0.950 . S
C3004 C3002 1.391 . S
C3004 C3005 1.400 . S
C3005 C2999 1.491 . S
C3005 C3004 1.400 . S
C3005 C3006 1.398 . S
C3006 H2994 0.950 . S
C3006 C3005 1.398 . S
C3006 C3007 1.391 . S
C3007 H2995 0.950 . S
C3007 C3003 1.393 . S
C3007 C3006 1.391 . S
H3008 C3016 0.950 . S
H3009 C3021 0.950 . S
H3010 C3018 0.950 . S
H3011 C3020 0.950 . S
H3012 C3022 0.950 . S
H3013 C3024 0.950 . S
H3014 C3026 0.950 . S
H3015 C3027 0.950 . S
C3016 H3008 0.950 . S
C3016 C3017 1.386 . S
C3016 C3018 1.391 . S
C3017 C3016 1.386 . S
C3017 C3021 1.393 . S
C3018 H3010 0.950 . S
C3018 C3016 1.391 . S
C3018 C3019 1.400 . S
C3019 C3018 1.400 . S
C3019 C3020 1.398 . S
C3019 C3025 1.491 . S
C3020 H3011 0.950 . S
C3020 C3019 1.398 . S
C3020 C3021 1.391 . S
C3021 H3009 0.950 . S
C3021 C3017 1.393 . S
C3021 C3020 1.391 . S
C3022 H3012 0.950 . S
C3022 C3023 1.386 . S
C3022 C3024 1.391 . S
C3023 C3022 1.386 . S
C3023 C3027 1.393 . S
C3024 H3013 0.950 . S
C3024 C3022 1.391 . S
C3024 C3025 1.400 . S
C3025 C3019 1.491 . S
C3025 C3024 1.400 . S
C3025 C3026 1.398 . S
C3026 H3014 0.950 . S
C3026 C3025 1.398 . S
C3026 C3027 1.391 . S
C3027 H3015 0.950 . S
C3027 C3023 1.393 . S
C3027 C3026 1.391 . S
H3028 C3036 0.950 . S
H3029 C3041 0.950 . S
H3030 C3038 0.950 . S
H3031 C3040 0.950 . S
H3032 C3042 0.950 . S
H3033 C3044 0.950 . S
H3034 C3046 0.950 . S
H3035 C3047 0.950 . S
C3036 H3028 0.950 . S
C3036 C3037 1.386 . S
C3036 C3038 1.391 . S
C3037 C3036 1.386 . S
C3037 C3041 1.393 . S
C3038 H3030 0.950 . S
C3038 C3036 1.391 . S
C3038 C3039 1.400 . S
C3039 C3038 1.400 . S
C3039 C3040 1.398 . S
C3039 C3045 1.491 . S
C3040 H3031 0.950 . S
C3040 C3039 1.398 . S
C3040 C3041 1.391 . S
C3041 H3029 0.950 . S
C3041 C3037 1.393 . S
C3041 C3040 1.391 . S
C3042 H3032 0.950 . S
C3042 C3043 1.386 . S
C3042 C3044 1.391 . S
C3043 C3042 1.386 . S
C3043 C3047 1.393 . S
C3044 H3033 0.950 . S
C3044 C3042 1.391 . S
C3044 C3045 1.400 . S
C3045 C3039 1.491 . S
C3045 C3044 1.400 . S
C3045 C3046 1.398 . S
C3046 H3034 0.950 . S
C3046 C3045 1.398 . S
C3046 C3047 1.391 . S
C3047 H3035 0.950 . S
C3047 C3043 1.393 . S
C3047 C3046 1.391 . S
H3048 C3056 0.950 . S
H3049 C3061 0.950 . S
H3050 C3058 0.950 . S
H3051 C3060 0.950 . S
H3052 C3062 0.950 . S
H3053 C3064 0.950 . S
H3054 C3066 0.950 . S
H3055 C3067 0.950 . S
C3056 H3048 0.950 . S
C3056 C3057 1.386 . S
C3056 C3058 1.391 . S
C3057 C3056 1.386 . S
C3057 C3061 1.393 . S
C3058 H3050 0.950 . S
C3058 C3056 1.391 . S
C3058 C3059 1.400 . S
C3059 C3058 1.400 . S
C3059 C3060 1.398 . S
C3059 C3065 1.491 . S
C3060 H3051 0.950 . S
C3060 C3059 1.398 . S
C3060 C3061 1.391 . S
C3061 H3049 0.950 . S
C3061 C3057 1.393 . S
C3061 C3060 1.391 . S
C3062 H3052 0.950 . S
C3062 C3063 1.386 . S
C3062 C3064 1.391 . S
C3063 C3062 1.386 . S
C3063 C3067 1.393 . S
C3064 H3053 0.950 . S
C3064 C3062 1.391 . S
C3064 C3065 1.400 . S
C3065 C3059 1.491 . S
C3065 C3064 1.400 . S
C3065 C3066 1.398 . S
C3066 H3054 0.950 . S
C3066 C3065 1.398 . S
C3066 C3067 1.391 . S
C3067 H3055 0.950 . S
C3067 C3063 1.393 . S
C3067 C3066 1.391 . S
H3068 C3076 0.950 . S
H3069 C3081 0.950 . S
H3070 C3078 0.950 . S
H3071 C3080 0.950 . S
H3072 C3082 0.950 . S
H3073 C3084 0.950 . S
H3074 C3086 0.950 . S
H3075 C3087 0.950 . S
C3076 H3068 0.950 . S
C3076 C3077 1.386 . S
C3076 C3078 1.391 . S
C3077 C3076 1.386 . S
C3077 C3081 1.393 . S
C3078 H3070 0.950 . S
C3078 C3076 1.391 . S
C3078 C3079 1.400 . S
C3079 C3078 1.400 . S
C3079 C3080 1.398 . S
C3079 C3085 1.491 . S
C3080 H3071 0.950 . S
C3080 C3079 1.398 . S
C3080 C3081 1.391 . S
C3081 H3069 0.950 . S
C3081 C3077 1.393 . S
C3081 C3080 1.391 . S
C3082 H3072 0.950 . S
C3082 C3083 1.386 . S
C3082 C3084 1.391 . S
C3083 C3082 1.386 . S
C3083 C3087 1.393 . S
C3084 H3073 0.950 . S
C3084 C3082 1.391 . S
C3084 C3085 1.400 . S
C3085 C3079 1.491 . S
C3085 C3084 1.400 . S
C3085 C3086 1.398 . S
C3086 H3074 0.950 . S
C3086 C3085 1.398 . S
C3086 C3087 1.391 . S
C3087 H3075 0.950 . S
C3087 C3083 1.393 . S
C3087 C3086 1.391 . S
H3088 C3096 0.950 . S
H3089 C3101 0.950 . S
H3090 C3098 0.950 . S
H3091 C3100 0.950 . S
H3092 C3102 0.950 . S
H3093 C3104 0.950 . S
H3094 C3106 0.950 . S
H3095 C3107 0.950 . S
C3096 H3088 0.950 . S
C3096 C3097 1.386 . S
C3096 C3098 1.391 . S
C3097 C3096 1.386 . S
C3097 C3101 1.393 . S
C3098 H3090 0.950 . S
C3098 C3096 1.391 . S
C3098 C3099 1.400 . S
C3099 C3098 1.400 . S
C3099 C3100 1.398 . S
C3099 C3105 1.491 . S
C3100 H3091 0.950 . S
C3100 C3099 1.398 . S
C3100 C3101 1.391 . S
C3101 H3089 0.950 . S
C3101 C3097 1.393 . S
C3101 C3100 1.391 . S
C3102 H3092 0.950 . S
C3102 C3103 1.386 . S
C3102 C3104 1.391 . S
C3103 C3102 1.386 . S
C3103 C3107 1.393 . S
C3104 H3093 0.950 . S
C3104 C3102 1.391 . S
C3104 C3105 1.400 . S
C3105 C3099 1.491 . S
C3105 C3104 1.400 . S
C3105 C3106 1.398 . S
C3106 H3094 0.950 . S
C3106 C3105 1.398 . S
C3106 C3107 1.391 . S
C3107 H3095 0.950 . S
C3107 C3103 1.393 . S
C3107 C3106 1.391 . S
H3108 C3116 0.950 . S
H3109 C3121 0.950 . S
H3110 C3118 0.950 . S
H3111 C3120 0.950 . S
H3112 C3122 0.950 . S
H3113 C3124 0.950 . S
H3114 C3126 0.950 . S
H3115 C3127 0.950 . S
C3116 H3108 0.950 . S
C3116 C3117 1.386 . S
C3116 C3118 1.391 . S
C3117 C3116 1.386 . S
C3117 C3121 1.393 . S
C3118 H3110 0.950 . S
C3118 C3116 1.391 . S
C3118 C3119 1.400 . S
C3119 C3118 1.400 . S
C3119 C3120 1.398 . S
C3119 C3125 1.491 . S
C3120 H3111 0.950 . S
C3120 C3119 1.398 . S
C3120 C3121 1.391 . S
C3121 H3109 0.950 . S
C3121 C3117 1.393 . S
C3121 C3120 1.391 . S
C3122 H3112 0.950 . S
C3122 C3123 1.386 . S
C3122 C3124 1.391 . S
C3123 C3122 1.386 . S
C3123 C3127 1.393 . S
C3124 H3113 0.950 . S
C3124 C3122 1.391 . S
C3124 C3125 1.400 . S
C3125 C3119 1.491 . S
C3125 C3124 1.400 . S
C3125 C3126 1.398 . S
C3126 H3114 0.950 . S
C3126 C3125 1.398 . S
C3126 C3127 1.391 . S
C3127 H3115 0.950 . S
C3127 C3123 1.393 . S
C3127 C3126 1.391 . S
H3128 C3136 0.950 . S
H3129 C3141 0.950 . S
H3130 C3138 0.950 . S
H3131 C3140 0.950 . S
H3132 C3142 0.950 . S
H3133 C3144 0.950 . S
H3134 C3146 0.950 . S
H3135 C3147 0.950 . S
C3136 H3128 0.950 . S
C3136 C3137 1.386 . S
C3136 C3138 1.391 . S
C3137 C3136 1.386 . S
C3137 C3141 1.393 . S
C3138 H3130 0.950 . S
C3138 C3136 1.391 . S
C3138 C3139 1.400 . S
C3139 C3138 1.400 . S
C3139 C3140 1.398 . S
C3139 C3145 1.491 . S
C3140 H3131 0.950 . S
C3140 C3139 1.398 . S
C3140 C3141 1.391 . S
C3141 H3129 0.950 . S
C3141 C3137 1.393 . S
C3141 C3140 1.391 . S
C3142 H3132 0.950 . S
C3142 C3143 1.386 . S
C3142 C3144 1.391 . S
C3143 C3142 1.386 . S
C3143 C3147 1.393 . S
C3144 H3133 0.950 . S
C3144 C3142 1.391 . S
C3144 C3145 1.400 . S
C3145 C3139 1.491 . S
C3145 C3144 1.400 . S
C3145 C3146 1.398 . S
C3146 H3134 0.950 . S
C3146 C3145 1.398 . S
C3146 C3147 1.391 . S
C3147 H3135 0.950 . S
C3147 C3143 1.393 . S
C3147 C3146 1.391 . S
H3148 C3156 0.950 . S
H3149 C3161 0.950 . S
H3150 C3158 0.950 . S
H3151 C3160 0.950 . S
H3152 C3162 0.950 . S
H3153 C3164 0.950 . S
H3154 C3166 0.950 . S
H3155 C3167 0.950 . S
C3156 H3148 0.950 . S
C3156 C3157 1.386 . S
C3156 C3158 1.391 . S
C3157 C3156 1.386 . S
C3157 C3161 1.393 . S
C3158 H3150 0.950 . S
C3158 C3156 1.391 . S
C3158 C3159 1.400 . S
C3159 C3158 1.400 . S
C3159 C3160 1.398 . S
C3159 C3165 1.491 . S
C3160 H3151 0.950 . S
C3160 C3159 1.398 . S
C3160 C3161 1.391 . S
C3161 H3149 0.950 . S
C3161 C3157 1.393 . S
C3161 C3160 1.391 . S
C3162 H3152 0.950 . S
C3162 C3163 1.386 . S
C3162 C3164 1.391 . S
C3163 C3162 1.386 . S
C3163 C3167 1.393 . S
C3164 H3153 0.950 . S
C3164 C3162 1.391 . S
C3164 C3165 1.400 . S
C3165 C3159 1.491 . S
C3165 C3164 1.400 . S
C3165 C3166 1.398 . S
C3166 H3154 0.950 . S
C3166 C3165 1.398 . S
C3166 C3167 1.391 . S
C3167 H3155 0.950 . S
C3167 C3163 1.393 . S
C3167 C3166 1.391 . S
H3168 C3176 0.950 . S
H3169 C3181 0.950 . S
H3170 C3178 0.950 . S
H3171 C3180 0.950 . S
H3172 C3182 0.950 . S
H3173 C3184 0.950 . S
H3174 C3186 0.950 . S
H3175 C3187 0.950 . S
C3176 H3168 0.950 . S
C3176 C3177 1.386 . S
C3176 C3178 1.391 . S
C3177 C3176 1.386 . S
C3177 C3181 1.393 . S
C3178 H3170 0.950 . S
C3178 C3176 1.391 . S
C3178 C3179 1.400 . S
C3179 C3178 1.400 . S
C3179 C3180 1.398 . S
C3179 C3185 1.491 . S
C3180 H3171 0.950 . S
C3180 C3179 1.398 . S
C3180 C3181 1.391 . S
C3181 H3169 0.950 . S
C3181 C3177 1.393 . S
C3181 C3180 1.391 . S
C3182 H3172 0.950 . S
C3182 C3183 1.386 . S
C3182 C3184 1.391 . S
C3183 C3182 1.386 . S
C3183 C3187 1.393 . S
C3184 H3173 0.950 . S
C3184 C3182 1.391 . S
C3184 C3185 1.400 . S
C3185 C3179 1.491 . S
C3185 C3184 1.400 . S
C3185 C3186 1.398 . S
C3186 H3174 0.950 . S
C3186 C3185 1.398 . S
C3186 C3187 1.391 . S
C3187 H3175 0.950 . S
C3187 C3183 1.393 . S
C3187 C3186 1.391 . S
H3188 C3196 0.950 . S
H3189 C3201 0.950 . S
H3190 C3198 0.950 . S
H3191 C3200 0.950 . S
H3192 C3202 0.950 . S
H3193 C3204 0.950 . S
H3194 C3206 0.950 . S
H3195 C3207 0.950 . S
C3196 H3188 0.950 . S
C3196 C3197 1.386 . S
C3196 C3198 1.391 . S
C3197 C3196 1.386 . S
C3197 C3201 1.393 . S
C3198 H3190 0.950 . S
C3198 C3196 1.391 . S
C3198 C3199 1.400 . S
C3199 C3198 1.400 . S
C3199 C3200 1.398 . S
C3199 C3205 1.491 . S
C3200 H3191 0.950 . S
C3200 C3199 1.398 . S
C3200 C3201 1.391 . S
C3201 H3189 0.950 . S
C3201 C3197 1.393 . S
C3201 C3200 1.391 . S
C3202 H3192 0.950 . S
C3202 C3203 1.386 . S
C3202 C3204 1.391 . S
C3203 C3202 1.386 . S
C3203 C3207 1.393 . S
C3204 H3193 0.950 . S
C3204 C3202 1.391 . S
C3204 C3205 1.400 . S
C3205 C3199 1.491 . S
C3205 C3204 1.400 . S
C3205 C3206 1.398 . S
C3206 H3194 0.950 . S
C3206 C3205 1.398 . S
C3206 C3207 1.391 . S
C3207 H3195 0.950 . S
C3207 C3203 1.393 . S
C3207 C3206 1.391 . S
H3208 C3216 0.950 . S
H3209 C3221 0.950 . S
H3210 C3218 0.950 . S
H3211 C3220 0.950 . S
H3212 C3222 0.950 . S
H3213 C3224 0.950 . S
H3214 C3226 0.950 . S
H3215 C3227 0.950 . S
C3216 H3208 0.950 . S
C3216 C3217 1.386 . S
C3216 C3218 1.391 . S
C3217 C3216 1.386 . S
C3217 C3221 1.393 . S
C3218 H3210 0.950 . S
C3218 C3216 1.391 . S
C3218 C3219 1.400 . S
C3219 C3218 1.400 . S
C3219 C3220 1.398 . S
C3219 C3225 1.491 . S
C3220 H3211 0.950 . S
C3220 C3219 1.398 . S
C3220 C3221 1.391 . S
C3221 H3209 0.950 . S
C3221 C3217 1.393 . S
C3221 C3220 1.391 . S
C3222 H3212 0.950 . S
C3222 C3223 1.386 . S
C3222 C3224 1.391 . S
C3223 C3222 1.386 . S
C3223 C3227 1.393 . S
C3224 H3213 0.950 . S
C3224 C3222 1.391 . S
C3224 C3225 1.400 . S
C3225 C3219 1.491 . S
C3225 C3224 1.400 . S
C3225 C3226 1.398 . S
C3226 H3214 0.950 . S
C3226 C3225 1.398 . S
C3226 C3227 1.391 . S
C3227 H3215 0.950 . S
C3227 C3223 1.393 . S
C3227 C3226 1.391 . S
H3228 C3236 0.950 . S
H3229 C3241 0.962 . S
H3230 C3238 0.950 . S
H3231 C3240 0.950 1_556 S
H3232 C3242 0.950 1_556 S
H3233 C3244 0.950 1_556 S
H3234 C3246 0.953 . S
H3235 C3247 0.950 . S
C3236 H3228 0.950 . S
C3236 C3237 1.386 . S
C3236 C3238 1.391 . S
C3237 C3236 1.386 . S
C3237 C3241 1.393 . S
C3238 H3230 0.950 . S
C3238 C3236 1.391 . S
C3238 C3239 1.400 . S
C3239 C3238 1.400 . S
C3239 C3240 1.398 . S
C3239 C3245 1.491 . S
C3240 H3231 0.950 1_554 S
C3240 C3239 1.398 . S
C3240 C3241 1.391 . S
C3241 H3229 0.962 . S
C3241 C3237 1.393 . S
C3241 C3240 1.391 . S
C3242 H3232 0.950 1_554 S
C3242 C3243 1.386 . S
C3242 C3244 1.391 . S
C3243 C3242 1.386 . S
C3243 C3247 1.393 1_565 S
C3244 H3233 0.950 1_554 S
C3244 C3242 1.391 . S
C3244 C3245 1.400 . S
C3245 C3239 1.491 . S
C3245 C3244 1.400 . S
C3245 C3246 1.398 . S
C3246 H3234 0.953 . S
C3246 C3245 1.398 . S
C3246 C3247 1.391 1_565 S
C3247 H3235 0.950 . S
C3247 C3243 1.393 1_545 S
C3247 C3246 1.391 1_545 S
H3248 C3256 0.950 . S
H3249 C3261 0.950 . S
H3250 C3258 0.950 . S
H3251 C3260 0.950 . S
H3252 C3262 0.950 . S
H3253 C3264 0.950 . S
H3254 C3266 0.950 . S
H3255 C3267 0.950 . S
C3256 H3248 0.950 . S
C3256 C3257 1.386 . S
C3256 C3258 1.391 . S
C3257 C3256 1.386 . S
C3257 C3261 1.393 . S
C3258 H3250 0.950 . S
C3258 C3256 1.391 . S
C3258 C3259 1.400 . S
C3259 C3258 1.400 . S
C3259 C3260 1.398 . S
C3259 C3265 1.491 . S
C3260 H3251 0.950 . S
C3260 C3259 1.398 . S
C3260 C3261 1.391 . S
C3261 H3249 0.950 . S
C3261 C3257 1.393 . S
C3261 C3260 1.391 . S
C3262 H3252 0.950 . S
C3262 C3263 1.386 . S
C3262 C3264 1.391 . S
C3263 C3262 1.386 . S
C3263 C3267 1.393 . S
C3264 H3253 0.950 . S
C3264 C3262 1.391 . S
C3264 C3265 1.400 . S
C3265 C3259 1.491 . S
C3265 C3264 1.400 . S
C3265 C3266 1.398 . S
C3266 H3254 0.950 . S
C3266 C3265 1.398 . S
C3266 C3267 1.391 . S
C3267 H3255 0.950 . S
C3267 C3263 1.393 . S
C3267 C3266 1.391 . S
H3268 C3276 0.950 . S
H3269 C3281 0.950 . S
H3270 C3278 0.950 . S
H3271 C3280 0.950 . S
H3272 C3282 0.950 . S
H3273 C3284 0.950 1_556 S
H3274 C3286 0.950 . S
H3275 C3287 0.950 . S
C3276 H3268 0.950 . S
C3276 C3277 1.386 . S
C3276 C3278 1.391 . S
C3277 C3276 1.386 . S
C3277 C3281 1.393 1_554 S
C3278 H3270 0.950 . S
C3278 C3276 1.391 . S
C3278 C3279 1.400 . S
C3279 C3278 1.400 . S
C3279 C3280 1.398 1_554 S
C3279 C3285 1.491 . S
C3280 H3271 0.950 . S
C3280 C3279 1.398 1_556 S
C3280 C3281 1.391 . S
C3281 H3269 0.950 . S
C3281 C3277 1.393 1_556 S
C3281 C3280 1.391 . S
C3282 H3272 0.950 . S
C3282 C3283 1.386 . S
C3282 C3284 1.391 . S
C3283 C3282 1.386 . S
C3283 C3287 1.393 . S
C3284 H3273 0.950 1_554 S
C3284 C3282 1.391 . S
C3284 C3285 1.400 . S
C3285 C3279 1.491 . S
C3285 C3284 1.400 . S
C3285 C3286 1.398 . S
C3286 H3274 0.950 . S
C3286 C3285 1.398 . S
C3286 C3287 1.391 . S
C3287 H3275 0.950 . S
C3287 C3283 1.393 . S
C3287 C3286 1.391 . S
H3288 C3296 0.950 . S
H3289 C3301 0.950 . S
H3290 C3298 0.950 . S
H3291 C3300 0.950 . S
H3292 C3302 0.950 . S
H3293 C3304 0.950 . S
H3294 C3306 0.950 . S
H3295 C3307 0.950 . S
C3296 H3288 0.950 . S
C3296 C3297 1.386 . S
C3296 C3298 1.391 . S
C3297 C3296 1.386 . S
C3297 C3301 1.393 . S
C3298 H3290 0.950 . S
C3298 C3296 1.391 . S
C3298 C3299 1.400 . S
C3299 C3298 1.400 . S
C3299 C3300 1.398 . S
C3299 C3305 1.491 . S
C3300 H3291 0.950 . S
C3300 C3299 1.398 . S
C3300 C3301 1.391 . S
C3301 H3289 0.950 . S
C3301 C3297 1.393 . S
C3301 C3300 1.391 . S
C3302 H3292 0.950 . S
C3302 C3303 1.386 . S
C3302 C3304 1.391 . S
C3303 C3302 1.386 . S
C3303 C3307 1.393 . S
C3304 H3293 0.950 . S
C3304 C3302 1.391 . S
C3304 C3305 1.400 . S
C3305 C3299 1.491 . S
C3305 C3304 1.400 . S
C3305 C3306 1.398 . S
C3306 H3294 0.950 . S
C3306 C3305 1.398 . S
C3306 C3307 1.391 . S
C3307 H3295 0.950 . S
C3307 C3303 1.393 . S
C3307 C3306 1.391 . S
H3308 C3316 0.950 . S
H3309 C3321 0.950 . S
H3310 C3318 0.950 . S
H3311 C3320 0.950 . S
H3312 C3322 0.950 . S
H3313 C3324 0.950 . S
H3314 C3326 0.950 . S
H3315 C3327 0.950 . S
C3316 H3308 0.950 . S
C3316 C3317 1.386 . S
C3316 C3318 1.391 . S
C3317 C3316 1.386 . S
C3317 C3321 1.393 . S
C3318 H3310 0.950 . S
C3318 C3316 1.391 . S
C3318 C3319 1.400 . S
C3319 C3318 1.400 . S
C3319 C3320 1.398 . S
C3319 C3325 1.491 . S
C3320 H3311 0.950 . S
C3320 C3319 1.398 . S
C3320 C3321 1.391 . S
C3321 H3309 0.950 . S
C3321 C3317 1.393 . S
C3321 C3320 1.391 . S
C3322 H3312 0.950 . S
C3322 C3323 1.386 . S
C3322 C3324 1.391 . S
C3323 C3322 1.386 . S
C3323 C3327 1.393 . S
C3324 H3313 0.950 . S
C3324 C3322 1.391 . S
C3324 C3325 1.400 . S
C3325 C3319 1.491 . S
C3325 C3324 1.400 . S
C3325 C3326 1.398 . S
C3326 H3314 0.950 . S
C3326 C3325 1.398 . S
C3326 C3327 1.391 . S
C3327 H3315 0.950 . S
C3327 C3323 1.393 . S
C3327 C3326 1.391 . S
C1423 C881 1.028 . S
C1417 C2 1.034 . S
C1437 C39 1.769 . S
C1443 C927 1.761 . S
C1457 C86 0.836 . S
C1463 C936 0.850 . S
C1483 C974 1.527 . S
C1477 C112 1.566 . S
C1497 C38 1.626 . S
C1503 C1008 1.592 . S
C1523 C1038 0.737 . S
C1517 C76 0.744 . S
C1543 C1097 1.563 1_556 S
C1537 C122 1.540 . S
C1557 C3 0.933 . S
C1563 C1110 0.933 . S
C1577 C147 1.362 . S
C1583 C893 1.343 . S
C1597 C184 1.123 . S
C1603 C911 1.117 . S
C1623 C932 1.629 . S
C1617 C219 1.641 . S
C1643 C970 0.786 . S
C1637 C256 0.790 . S
C1657 C148 1.248 . S
C1663 C1004 1.230 . S
C1683 C1034 1.567 . S
C1677 C183 1.579 . S
C1703 C1081 1.178 . S
C1697 C220 1.192 . S
C1723 C1106 0.672 . S
C1717 C255 0.653 . S
C1743 C877 0.697 . S
C1737 C254 0.701 . S
C1763 C1136 1.583 . S
C1757 C302 1.541 . S
C1777 C326 1.390 . S
C1783 C1178 1.382 . S
C1803 C1221 0.562 . S
C1797 C374 0.528 . S
C1817 C146 1.341 . S
C1823 C1102 1.314 . S
C1843 C940 1.466 . S
C1837 C182 1.445 . S
C1857 C338 1.279 . S
C1863 C1238 1.322 . S
C1883 C1289 1.556 . S
C1877 C410 1.514 . S
C1897 C434 1.054 . S
C1903 C872 1.021 1_556 S
C1923 C1272 1.811 . S
C1917 C472 1.830 . S
C1937 C507 0.847 . S
C1943 C945 0.857 . S
C1957 C543 1.619 . S
C1963 C1255 1.590 . S
C1983 C1017 1.629 . S
C1977 C470 1.666 . S
C2003 C1183 0.826 . S
C1997 C518 0.811 . S
C2023 C1068 1.597 . S
C2017 C554 1.549 . S
C2043 C1323 0.891 . S
C2037 C436 0.917 . S
C2063 C864 1.412 . S
C2057 C580 1.427 . S
C2077 C615 1.178 . S
C2083 C1276 1.170 . S
C2103 C961 1.651 . S
C2097 C652 1.681 . S
C2117 C687 0.779 . S
C2123 C1251 0.764 . S
C2137 C579 1.295 . S
C2143 C1013 1.273 . S
C2157 C616 1.653 . S
C2163 C1199 1.623 . S
C2183 C1072 1.201 . S
C2177 C651 1.228 . S
C2197 C688 0.655 . S
C2203 C1319 0.648 . S
C2217 C686 0.717 . S
C2223 C868 0.691 . S
C2237 C734 1.598 1_554 S
C2243 C1165 1.630 . S
C2257 C758 1.426 . S
C2263 C1051 1.413 . S
C2277 C806 0.637 . S
C2283 C1212 0.599 . S
C2303 C1335 1.340 . S
C2297 C578 1.365 . S
C2323 C949 1.532 . S
C2317 C614 1.517 . S
C2343 C995 1.356 . S
C2337 C770 1.332 . S
C2363 C906 1.565 . S
C2357 C842 1.541 . S
C2377 C74 0.928 . S
C2383 C1357 0.912 . S
C2403 C1301 1.770 . S
C2397 C111 1.777 . S
C2423 C1378 0.873 . S
C2417 C14 0.891 . S
C2437 C40 1.561 . S
C2443 C1246 1.529 . S
C2457 C110 1.622 . S
C2463 C1144 1.604 1_556 S
C2483 C1174 0.782 . S
C2477 C4 0.791 . S
C2503 C1233 1.554 . S
C2497 C50 1.528 . S
C2523 C1314 0.861 . S
C2517 C75 0.859 . S
C2543 C1369 1.345 . S
C2537 C399 1.362 . S
C2557 C292 1.127 1_556 S
C2563 C1285 1.117 . S
C2577 C327 1.634 . S
C2583 C1374 1.619 . S
C2603 C1242 0.754 . S
C2597 C364 0.760 . S
C2623 C1140 1.240 . S
C2617 C400 1.244 . S
C2637 C291 1.571 . S
C2643 C1170 1.558 . S
C2663 C1217 1.199 . S
C2657 C328 1.199 . S
C2677 C363 0.625 . S
C2683 C1310 0.623 . S
C2703 C1353 0.684 . S
C2697 C362 0.664 . S
C2723 C1000 1.596 . S
C2717 C194 1.536 . S
C2743 C1042 1.368 . S
C2737 C218 1.357 . S
C2757 C266 0.511 . S
C2763 C1085 0.541 . S
C2783 C1306 1.308 . S
C2777 C398 1.311 . S
C2797 C290 1.482 . S
C2803 C1382 1.485 . S
C2823 C966 1.339 . S
C2817 C230 1.266 . S
C2843 C915 1.538 . S
C2837 C158 1.481 . S
C2857 C508 1.011 . S
C2863 C1348 1.000 . S
C2883 C898 1.812 . S
C2877 C544 1.833 . S
C2903 C1387 0.914 . S
C2897 C446 0.900 1_455 S
C2917 C471 1.623 . S
C2923 C983 1.594 . S
C2937 C542 1.655 . S
C2943 C1153 1.637 . S
C2957 C435 0.760 . S
C2963 C1047 0.770 . S
C2977 C482 1.524 . S
C2983 C1204 1.583 . S
C2997 C506 0.996 . S
C3003 C1119 0.999 . S
C3023 C1340 1.384 . S
C3017 C832 1.402 . S
C3037 C723 1.162 . S
C3043 C902 1.148 . S
C3063 C1403 1.671 . S
C3057 C760 1.699 . S
C3077 C795 0.781 . S
C3083 C979 0.769 . S
C3097 C831 1.288 . S
C3103 C1149 1.256 . S
C3123 C1063 1.599 . S
C3117 C724 1.630 . S
C3137 C759 1.239 . S
C3143 C1208 1.211 . S
C3163 C1115 0.665 . S
C3157 C796 0.674 . S
C3183 C1344 0.718 . S
C3177 C794 0.690 . S
C3203 C1029 1.646 . S
C3197 C626 1.621 . S
C3217 C650 1.415 . S
C3223 C1187 1.402 . S
C3243 C1076 0.562 . S
C3237 C698 0.568 . S
C3263 C1131 1.341 . S
C3257 C830 1.366 . S
C3277 C722 1.510 . S
C3283 C1391 1.520 . S
C3303 C1267 1.347 . S
C3297 C662 1.326 . S
C3323 C1280 1.576 . S
C3317 C590 1.539 . S
