# Generated by pormake.
# Topology fgl, (4,4)-cn, num edge types: 1
# Building blocks:
#     Node 0, Type 0, BuildingBlock: ESEHIV_clean_sbu_0, # of connection points: 4
#     Node 1, Type 0, BuildingBlock: ESEHIV_clean_sbu_0, # of connection points: 4
#     Node 2, Type 0, BuildingBlock: ESEHIV_clean_sbu_0, # of connection points: 4
#     Node 3, Type 0, BuildingBlock: ESEHIV_clean_sbu_0, # of connection points: 4
#     Node 4, Type 0, BuildingBlock: ESEHIV_clean_sbu_0, # of connection points: 4
#     Node 5, Type 0, BuildingBlock: ESEHIV_clean_sbu_0, # of connection points: 4
#     Node 6, Type 0, BuildingBlock: ESEHIV_clean_sbu_0, # of connection points: 4
#     Node 7, Type 0, BuildingBlock: ESEHIV_clean_sbu_0, # of connection points: 4
#     Node 8, Type 0, BuildingBlock: ESEHIV_clean_sbu_0, # of connection points: 4
#     Node 9, Type 0, BuildingBlock: ESEHIV_clean_sbu_0, # of connection points: 4
#     Node 10, Type 0, BuildingBlock: ESEHIV_clean_sbu_0, # of connection points: 4
#     Node 11, Type 0, BuildingBlock: ESEHIV_clean_sbu_0, # of connection points: 4
#     Node 12, Type 0, BuildingBlock: ESEHIV_clean_sbu_0, # of connection points: 4
#     Node 13, Type 0, BuildingBlock: ESEHIV_clean_sbu_0, # of connection points: 4
#     Node 14, Type 0, BuildingBlock: ESEHIV_clean_sbu_0, # of connection points: 4
#     Node 15, Type 0, BuildingBlock: ESEHIV_clean_sbu_0, # of connection points: 4
#     Node 16, Type 0, BuildingBlock: ESEHIV_clean_sbu_0, # of connection points: 4
#     Node 17, Type 0, BuildingBlock: ESEHIV_clean_sbu_0, # of connection points: 4
#     Node 18, Type 1, BuildingBlock: TATPOV_clean_sbu_0, # of connection points: 4
#     Node 19, Type 1, BuildingBlock: TATPOV_clean_sbu_0, # of connection points: 4
#     Node 20, Type 1, BuildingBlock: TATPOV_clean_sbu_0, # of connection points: 4
#     Node 21, Type 1, BuildingBlock: TATPOV_clean_sbu_0, # of connection points: 4
#     Node 22, Type 1, BuildingBlock: TATPOV_clean_sbu_0, # of connection points: 4
#     Node 23, Type 1, BuildingBlock: TATPOV_clean_sbu_0, # of connection points: 4
#     Node 24, Type 1, BuildingBlock: TATPOV_clean_sbu_0, # of connection points: 4
#     Node 25, Type 1, BuildingBlock: TATPOV_clean_sbu_0, # of connection points: 4
#     Node 26, Type 1, BuildingBlock: TATPOV_clean_sbu_0, # of connection points: 4
#     Node 27, Type 1, BuildingBlock: TATPOV_clean_sbu_0, # of connection points: 4
#     Node 28, Type 1, BuildingBlock: TATPOV_clean_sbu_0, # of connection points: 4
#     Node 29, Type 1, BuildingBlock: TATPOV_clean_sbu_0, # of connection points: 4
#     Node 30, Type 1, BuildingBlock: TATPOV_clean_sbu_0, # of connection points: 4
#     Node 31, Type 1, BuildingBlock: TATPOV_clean_sbu_0, # of connection points: 4
#     Node 32, Type 1, BuildingBlock: TATPOV_clean_sbu_0, # of connection points: 4
#     Node 33, Type 1, BuildingBlock: TATPOV_clean_sbu_0, # of connection points: 4
#     Node 34, Type 1, BuildingBlock: TATPOV_clean_sbu_0, # of connection points: 4
#     Node 35, Type 1, BuildingBlock: TATPOV_clean_sbu_0, # of connection points: 4
#     Edge 36, Type (0, 1), BuildingBlock: XUDNAN_clean_linker_2, # of connection points: 2
#     Edge 37, Type (0, 1), BuildingBlock: XUDNAN_clean_linker_2, # of connection points: 2
#     Edge 38, Type (0, 1), BuildingBlock: XUDNAN_clean_linker_2, # of connection points: 2
#     Edge 39, Type (0, 1), BuildingBlock: XUDNAN_clean_linker_2, # of connection points: 2
#     Edge 40, Type (0, 1), BuildingBlock: XUDNAN_clean_linker_2, # of connection points: 2
#     Edge 41, Type (0, 1), BuildingBlock: XUDNAN_clean_linker_2, # of connection points: 2
#     Edge 42, Type (0, 1), BuildingBlock: XUDNAN_clean_linker_2, # of connection points: 2
#     Edge 43, Type (0, 1), BuildingBlock: XUDNAN_clean_linker_2, # of connection points: 2
#     Edge 44, Type (0, 1), BuildingBlock: XUDNAN_clean_linker_2, # of connection points: 2
#     Edge 45, Type (0, 1), BuildingBlock: XUDNAN_clean_linker_2, # of connection points: 2
#     Edge 46, Type (0, 1), BuildingBlock: XUDNAN_clean_linker_2, # of connection points: 2
#     Edge 47, Type (0, 1), BuildingBlock: XUDNAN_clean_linker_2, # of connection points: 2
#     Edge 48, Type (0, 1), BuildingBlock: XUDNAN_clean_linker_2, # of connection points: 2
#     Edge 49, Type (0, 1), BuildingBlock: XUDNAN_clean_linker_2, # of connection points: 2
#     Edge 50, Type (0, 1), BuildingBlock: XUDNAN_clean_linker_2, # of connection points: 2
#     Edge 51, Type (0, 1), BuildingBlock: XUDNAN_clean_linker_2, # of connection points: 2
#     Edge 52, Type (0, 1), BuildingBlock: XUDNAN_clean_linker_2, # of connection points: 2
#     Edge 53, Type (0, 1), BuildingBlock: XUDNAN_clean_linker_2, # of connection points: 2
#     Edge 54, Type (0, 1), BuildingBlock: XUDNAN_clean_linker_2, # of connection points: 2
#     Edge 55, Type (0, 1), BuildingBlock: XUDNAN_clean_linker_2, # of connection points: 2
#     Edge 56, Type (0, 1), BuildingBlock: XUDNAN_clean_linker_2, # of connection points: 2
#     Edge 57, Type (0, 1), BuildingBlock: XUDNAN_clean_linker_2, # of connection points: 2
#     Edge 58, Type (0, 1), BuildingBlock: XUDNAN_clean_linker_2, # of connection points: 2
#     Edge 59, Type (0, 1), BuildingBlock: XUDNAN_clean_linker_2, # of connection points: 2
#     Edge 60, Type (0, 1), BuildingBlock: XUDNAN_clean_linker_2, # of connection points: 2
#     Edge 61, Type (0, 1), BuildingBlock: XUDNAN_clean_linker_2, # of connection points: 2
#     Edge 62, Type (0, 1), BuildingBlock: XUDNAN_clean_linker_2, # of connection points: 2
#     Edge 63, Type (0, 1), BuildingBlock: XUDNAN_clean_linker_2, # of connection points: 2
#     Edge 64, Type (0, 1), BuildingBlock: XUDNAN_clean_linker_2, # of connection points: 2
#     Edge 65, Type (0, 1), BuildingBlock: XUDNAN_clean_linker_2, # of connection points: 2
#     Edge 66, Type (0, 1), BuildingBlock: XUDNAN_clean_linker_2, # of connection points: 2
#     Edge 67, Type (0, 1), BuildingBlock: XUDNAN_clean_linker_2, # of connection points: 2
#     Edge 68, Type (0, 1), BuildingBlock: XUDNAN_clean_linker_2, # of connection points: 2
#     Edge 69, Type (0, 1), BuildingBlock: XUDNAN_clean_linker_2, # of connection points: 2
#     Edge 70, Type (0, 1), BuildingBlock: XUDNAN_clean_linker_2, # of connection points: 2
#     Edge 71, Type (0, 1), BuildingBlock: XUDNAN_clean_linker_2, # of connection points: 2
#     Edge 72, Type (0, 1), BuildingBlock: XUDNAN_clean_linker_2, # of connection points: 2
#     Edge 73, Type (0, 1), BuildingBlock: XUDNAN_clean_linker_2, # of connection points: 2
#     Edge 74, Type (0, 1), BuildingBlock: XUDNAN_clean_linker_2, # of connection points: 2
#     Edge 75, Type (0, 1), BuildingBlock: XUDNAN_clean_linker_2, # of connection points: 2
#     Edge 76, Type (0, 1), BuildingBlock: XUDNAN_clean_linker_2, # of connection points: 2
#     Edge 77, Type (0, 1), BuildingBlock: XUDNAN_clean_linker_2, # of connection points: 2
#     Edge 78, Type (0, 1), BuildingBlock: XUDNAN_clean_linker_2, # of connection points: 2
#     Edge 79, Type (0, 1), BuildingBlock: XUDNAN_clean_linker_2, # of connection points: 2
#     Edge 80, Type (0, 1), BuildingBlock: XUDNAN_clean_linker_2, # of connection points: 2
#     Edge 81, Type (0, 1), BuildingBlock: XUDNAN_clean_linker_2, # of connection points: 2
#     Edge 82, Type (0, 1), BuildingBlock: XUDNAN_clean_linker_2, # of connection points: 2
#     Edge 83, Type (0, 1), BuildingBlock: XUDNAN_clean_linker_2, # of connection points: 2
#     Edge 84, Type (0, 1), BuildingBlock: XUDNAN_clean_linker_2, # of connection points: 2
#     Edge 85, Type (0, 1), BuildingBlock: XUDNAN_clean_linker_2, # of connection points: 2
#     Edge 86, Type (0, 1), BuildingBlock: XUDNAN_clean_linker_2, # of connection points: 2
#     Edge 87, Type (0, 1), BuildingBlock: XUDNAN_clean_linker_2, # of connection points: 2
#     Edge 88, Type (0, 1), BuildingBlock: XUDNAN_clean_linker_2, # of connection points: 2
#     Edge 89, Type (0, 1), BuildingBlock: XUDNAN_clean_linker_2, # of connection points: 2
#     Edge 90, Type (0, 1), BuildingBlock: XUDNAN_clean_linker_2, # of connection points: 2
#     Edge 91, Type (0, 1), BuildingBlock: XUDNAN_clean_linker_2, # of connection points: 2
#     Edge 92, Type (0, 1), BuildingBlock: XUDNAN_clean_linker_2, # of connection points: 2
#     Edge 93, Type (0, 1), BuildingBlock: XUDNAN_clean_linker_2, # of connection points: 2
#     Edge 94, Type (0, 1), BuildingBlock: XUDNAN_clean_linker_2, # of connection points: 2
#     Edge 95, Type (0, 1), BuildingBlock: XUDNAN_clean_linker_2, # of connection points: 2
#     Edge 96, Type (0, 1), BuildingBlock: XUDNAN_clean_linker_2, # of connection points: 2
#     Edge 97, Type (0, 1), BuildingBlock: XUDNAN_clean_linker_2, # of connection points: 2
#     Edge 98, Type (0, 1), BuildingBlock: XUDNAN_clean_linker_2, # of connection points: 2
#     Edge 99, Type (0, 1), BuildingBlock: XUDNAN_clean_linker_2, # of connection points: 2
#     Edge 100, Type (0, 1), BuildingBlock: XUDNAN_clean_linker_2, # of connection points: 2
#     Edge 101, Type (0, 1), BuildingBlock: XUDNAN_clean_linker_2, # of connection points: 2
#     Edge 102, Type (0, 1), BuildingBlock: XUDNAN_clean_linker_2, # of connection points: 2
#     Edge 103, Type (0, 1), BuildingBlock: XUDNAN_clean_linker_2, # of connection points: 2
#     Edge 104, Type (0, 1), BuildingBlock: XUDNAN_clean_linker_2, # of connection points: 2
#     Edge 105, Type (0, 1), BuildingBlock: XUDNAN_clean_linker_2, # of connection points: 2
#     Edge 106, Type (0, 1), BuildingBlock: XUDNAN_clean_linker_2, # of connection points: 2
#     Edge 107, Type (0, 1), BuildingBlock: XUDNAN_clean_linker_2, # of connection points: 2
# Relax obj value: 0.032
# Max RMSD: 0.135
# Mean RMSD: 0.102
data_MOF--net-fgl--node1-ESEHIV_clean_sbu_0--node2-TATPOV_clean_sbu_0--edge1-XUDNAN_clean_linker_2
_symmetry_space_group_name_H-M    P1
_symmetry_Int_Tables_number       1
_symmetry_cell_setting            triclinic
loop_
_symmetry_equiv_pos_as_xyz
'x, y, z'
_cell_length_a     73.796136
_cell_length_b     76.612241
_cell_length_c     51.693775
_cell_angle_alpha  90.487381
_cell_angle_beta   90.427286
_cell_angle_gamma 120.01126
loop_
_atom_site_label
_atom_site_type_symbol
_atom_site_fract_x
_atom_site_fract_y
_atom_site_fract_z
_atom_type_partial_charge
Cu0 Cu 0.04265 0.54957 0.99595 0.0
N1 N 0.05828 0.56784 0.02275 0.0
N2 N 0.06544 0.58591 0.05958 0.0
C3 C 0.0523 0.57793 0.03897 0.0
C4 C 0.08034 0.58086 0.05603 0.0
C5 C 0.0759 0.56977 0.03338 0.0
O6 O 0.01917 0.55286 0.98648 0.0
C7 C 0.02451 0.50664 0.9949 0.0
O8 O 0.01534 0.50689 0.97317 0.0
H9 H 0.03786 0.5782 0.03679 0.0
H10 H 0.08416 0.56246 0.02604 0.0
N11 N 0.05838 0.55363 0.96597 0.0
N12 N 0.06575 0.54695 0.92638 0.0
C13 C 0.05062 0.54331 0.94357 0.0
C14 C 0.07922 0.56459 0.96267 0.0
C15 C 0.08381 0.56054 0.9382 0.0
C16 C 1.00451 0.55063 1.00129 0.0
O17 O 1.00354 0.54386 0.0248 0.0
H18 H 0.03418 0.5329 0.94009 0.0
H19 H 0.09037 0.57411 0.97739 0.0
O20 O 0.03495 0.52286 1.00804 0.0
H21 H 0.09303 0.58419 0.06946 0.0
H22 H 0.09929 0.56622 0.93035 0.0
Cu23 Cu 0.53016 0.5657 0.03455 0.0
N24 N 0.5348 0.57148 0.99744 0.0
N25 N 0.54917 0.57959 0.9583 0.0
C26 C 0.55287 0.58058 0.98411 0.0
C27 C 0.52818 0.56956 0.95538 0.0
C28 C 0.51937 0.5647 0.9795 0.0
O29 O 0.54694 0.59615 0.04299 0.0
C30 C 0.51649 0.52207 0.03433 0.0
O31 O 0.53238 0.52756 0.05037 0.0
H32 H 0.56827 0.58694 0.99294 0.0
H33 H 0.50285 0.55615 0.98369 0.0
N34 N 0.52489 0.55955 0.07166 0.0
N35 N 0.50844 0.54562 0.10867 0.0
C36 C 0.5062 0.54843 0.08323 0.0
C37 C 0.53937 0.5639 0.09035 0.0
C38 C 0.52933 0.55545 0.1131 0.0
C39 C 0.56636 0.60537 0.04904 0.0
O40 O 0.57633 0.5952 0.05001 0.0
H41 H 0.49136 0.54192 0.07295 0.0
H42 H 0.55608 0.57216 0.0876 0.0
O43 O 0.51273 0.53544 0.02545 0.0
H44 H 0.51983 0.56566 0.93701 0.0
H45 H 0.53692 0.55642 0.13147 0.0
Cu46 Cu 0.54042 0.07672 0.02875 0.0
N47 N 0.53674 0.09076 1.00197 0.0
N48 N 0.53049 0.09673 0.96171 0.0
C49 C 0.53202 0.08368 0.97756 0.0
C50 C 0.53479 0.11293 0.97663 0.0
C51 C 0.53871 0.10919 1.0016 0.0
O52 O 0.51352 0.05692 0.04294 0.0
C53 C 0.57322 0.07739 1.00293 0.0
O54 O 0.57886 0.0966 1.00279 0.0
H55 H 0.52952 0.06904 0.9716 0.0
H56 H 0.54249 0.11908 0.01829 0.0
N57 N 0.55562 0.094 0.05596 0.0
N58 N 0.57799 0.10565 0.08939 0.0
C59 C 0.57326 0.09589 0.06637 0.0
C60 C 0.54897 0.10294 0.07293 0.0
C61 C 0.56274 0.11009 0.09373 0.0
C62 C 0.49634 0.04863 0.03019 0.0
O63 O 0.49654 0.05169 1.00523 0.0
H64 H 0.58137 0.0886 0.05843 0.0
H65 H 0.53433 0.1029 0.07119 0.0
O66 O 0.55636 0.06511 0.01428 0.0
H67 H 0.53436 0.12612 0.97018 0.0
H68 H 0.56108 0.11696 0.11127 0.0
Cu69 Cu 0.53176 0.0482 0.5321 0.0
N70 N 0.53284 0.03727 0.50013 0.0
N71 N 0.54384 0.03708 0.46 0.0
C72 C 0.54219 0.04828 0.47912 0.0
C73 C 0.53517 0.01822 0.46937 0.0
C74 C 0.52839 0.01839 0.49418 0.0
O75 O 0.55731 0.05289 0.55054 0.0
C76 C 0.51249 0.06736 0.51026 0.0
O77 O 0.50099 0.04884 0.50136 0.0
H78 H 0.54878 0.06446 0.47849 0.0
H79 H 0.52161 0.00587 0.50734 0.0
N80 N 0.50812 0.03054 0.55101 0.0
N81 N 0.4812 0.02148 0.57762 0.0
C82 C 0.49538 0.03605 0.56246 0.0
C83 C 0.50175 0.01172 0.55923 0.0
C84 C 0.48516 0.00613 0.57586 0.0
C85 C 0.55765 0.0476 0.57382 0.0
O86 O 0.54123 0.04231 0.58834 0.0
H87 H 0.49725 0.05093 0.56094 0.0
H88 H 0.50925 1.00309 0.55449 0.0
O89 O 0.52826 0.07152 0.52484 0.0
H90 H 0.53428 0.00537 0.4593 0.0
H91 H 0.47695 0.9921 0.58621 0.0
Cu92 Cu 0.0401 0.55672 0.50843 0.0
N93 N 0.05655 0.54593 0.52015 0.0
N94 N 0.06615 0.52834 0.54592 0.0
C95 C 0.05313 0.53583 0.54252 0.0
C96 C 0.07829 0.53411 0.52465 0.0
C97 C 0.07231 0.54488 0.50882 0.0
O98 O 0.01179 0.53512 0.51471 0.0
C99 C 0.06628 0.596 0.52267 0.0
O100 O 0.07815 0.59284 0.5067 0.0
H101 H 0.04114 0.53397 0.55595 0.0
H102 H 0.0787 0.55112 0.49017 0.0
N103 N 0.04294 0.56358 0.47306 0.0
N104 N 0.04005 0.5786 0.43721 0.0
C105 C 0.04002 0.57834 0.46342 0.0
C106 C 0.04508 0.55415 0.45223 0.0
C107 C 0.04339 0.56341 0.43014 0.0
C108 C 0.99753 0.52831 0.49732 0.0
O109 O 0.99923 0.53984 0.47777 0.0
H110 H 0.03729 0.58827 0.47566 0.0
H111 H 0.0468 0.54095 0.45299 0.0
O112 O 0.04813 0.5814 0.52767 0.0
H113 H 0.09032 0.53042 0.52037 0.0
H114 H 0.04366 0.55865 0.41045 0.0
Cu115 Cu 0.50337 0.55641 0.52527 0.0
N116 N 0.51848 0.57875 0.50459 0.0
N117 N 0.54643 0.60079 0.48272 0.0
C118 C 0.53947 0.58935 0.50398 0.0
C119 C 0.5291 0.59751 0.46959 0.0
C120 C 0.51181 0.58385 0.48319 0.0
O121 O 0.51921 0.55964 0.55701 0.0
C122 C 0.50958 0.53356 0.48638 0.0
O123 O 0.52887 0.5487 0.48584 0.0
H124 H 0.54936 0.58701 0.51741 0.0
H125 H 0.49564 0.57689 0.47688 0.0
N126 N 0.47747 0.55341 0.5333 0.0
N127 N 0.44308 0.53722 0.54012 0.0
C128 C 0.45958 0.53562 0.53235 0.0
C129 C 0.4722 0.56689 0.54189 0.0
C130 C 0.4509 0.55687 0.54631 0.0
C131 C 0.52607 0.57644 0.56892 0.0
O132 O 0.52171 0.5898 0.55944 0.0
H133 H 0.45886 0.52161 0.52689 0.0
H134 H 0.48306 0.58278 0.54505 0.0
O135 O 0.49747 0.53302 0.50417 0.0
H136 H 0.52891 0.60364 0.45087 0.0
H137 H 0.44192 0.56346 0.55359 0.0
Cu138 Cu 0.66745 0.88155 0.36204 0.0
N139 N 0.64267 0.88138 0.35496 0.0
N140 N 0.62105 0.89181 0.34121 0.0
C141 C 0.64065 0.8974 0.34932 0.0
C142 C 0.61032 0.8715 0.3418 0.0
C143 C 0.62371 0.86509 0.35045 0.0
O144 O 0.68296 0.90298 0.3885 0.0
C145 C 0.69445 0.87919 0.32227 0.0
O146 O 0.70584 0.87799 0.34107 0.0
H147 H 0.65365 0.91273 0.3493 0.0
H148 H 0.6202 0.84964 0.35198 0.0
N149 N 0.65968 0.85676 0.37687 0.0
N150 N 0.66006 0.82886 0.38779 0.0
C151 C 0.66621 0.84378 0.37051 0.0
C152 C 0.64842 0.84947 0.39846 0.0
C153 C 0.64871 0.83228 0.40535 0.0
C154 C 0.69225 0.90017 0.40764 0.0
O155 O 0.69494 0.88447 0.40693 0.0
H156 H 0.67633 0.84581 0.35453 0.0
H157 H 0.64149 0.8568 0.4092 0.0
O158 O 0.6798 0.88281 0.32776 0.0
H159 H 0.59427 0.86201 0.33535 0.0
H160 H 0.64192 0.82356 0.42256 0.0
Cu161 Cu 0.19632 0.89831 0.36952 0.0
N162 N 0.17104 0.88095 0.35225 0.0
N163 N 0.14637 0.85187 0.33444 0.0
C164 C 0.16341 0.86094 0.35009 0.0
C165 C 0.14307 0.86678 0.32643 0.0
C166 C 0.15829 0.88472 0.33751 0.0
O167 O 0.19621 0.88351 0.4002 0.0
C168 C 0.21695 0.91509 0.32533 0.0
O169 O 0.20183 0.91941 0.32579 0.0
H170 H 0.17085 0.85333 0.35893 0.0
H171 H 0.16027 0.89949 0.33425 0.0
N172 N 0.19913 0.92303 0.38028 0.0
N173 N 0.21587 0.95585 0.39091 0.0
C174 C 0.21745 0.93916 0.38778 0.0
C175 C 0.18538 0.9297 0.37891 0.0
C176 C 0.19572 0.95 0.38533 0.0
C177 C 0.18051 0.87855 0.41479 0.0
O178 O 0.16745 0.88489 0.40878 0.0
H179 H 0.23194 0.93889 0.38952 0.0
H180 H 0.1692 0.92066 0.37283 0.0
O181 O 0.21841 0.90511 0.34411 0.0
H182 H 0.13075 0.86492 0.31325 0.0
H183 H 0.18903 0.95976 0.38549 0.0
Cu184 Cu 0.16769 0.36814 0.35124 0.0
N185 N 0.16107 0.361 0.31643 0.0
N186 N 0.15427 0.36369 0.27498 0.0
C187 C 0.15528 0.37052 0.29939 0.0
C188 C 0.15919 0.34899 0.27676 0.0
C189 C 0.16353 0.34746 0.3024 0.0
O190 O 0.14704 0.37428 0.36555 0.0
C191 C 0.20439 0.40488 0.33741 0.0
O192 O 0.19198 0.40742 0.32151 0.0
H193 H 0.1525 0.38266 0.30472 0.0
H194 H 0.16895 0.33777 0.3101 0.0
N195 N 0.16681 0.34662 0.36897 0.0
N196 N 0.1751 0.32989 0.39741 0.0
C197 C 0.17953 0.34814 0.38871 0.0
C198 C 0.15386 0.32674 0.36502 0.0
C199 C 0.15904 0.31635 0.38248 0.0
C200 C 0.14066 0.37006 0.38873 0.0
O201 O 0.14978 0.36335 0.40446 0.0
H202 H 0.19197 0.36238 0.39631 0.0
H203 H 0.14158 0.32028 0.35043 0.0
O204 O 0.19655 0.39021 0.35304 0.0
H205 H 0.16057 0.34069 0.26057 0.0
H206 H 0.15147 0.30013 0.38422 0.0
Cu207 Cu 0.19034 0.35024 0.86016 0.0
N208 N 0.19364 0.33903 0.82955 0.0
N209 N 0.20205 0.33747 0.78844 0.0
C210 C 0.19792 0.34793 0.8063 0.0
C211 C 0.20033 0.32134 0.80102 0.0
C212 C 0.19518 0.32237 0.8264 0.0
O213 O 0.21549 0.35775 0.88163 0.0
C214 C 0.16782 0.36535 0.83747 0.0
O215 O 0.15627 0.34589 0.83291 0.0
H216 H 0.19902 0.36234 0.80291 0.0
H217 H 0.19342 0.31211 0.8417 0.0
N218 N 0.16614 0.33192 0.8777 0.0
N219 N 0.13823 0.32091 0.90319 0.0
C220 C 0.15611 0.33705 0.89522 0.0
C221 C 0.15423 0.31183 0.87441 0.0
C222 C 0.13701 0.305 0.89013 0.0
C223 C 0.21461 0.34781 0.90179 0.0
O224 O 0.19626 0.33395 0.91005 0.0
H225 H 0.16151 0.35246 0.90124 0.0
H226 H 0.15759 0.30285 0.86117 0.0
O227 O 0.1852 0.37195 0.84969 0.0
H228 H 0.20294 0.30981 0.79263 0.0
H229 H 0.12453 0.28952 0.89169 0.0
Cu230 Cu 0.71519 0.88824 0.84528 0.0
N231 N 0.72155 0.86892 0.83319 0.0
N232 N 0.71581 0.83922 0.8177 0.0
C233 C 0.70865 0.85233 0.81915 0.0
C234 C 0.73413 0.84811 0.83103 0.0
C235 C 0.73761 0.86642 0.84059 0.0
O236 O 0.70385 0.87977 0.88062 0.0
C237 C 0.69479 0.90618 0.81476 0.0
O238 O 0.69887 0.91893 0.83406 0.0
H239 H 0.69353 0.84929 0.81191 0.0
H240 H 0.75035 0.87668 0.85319 0.0
N241 N 0.7401 0.91289 0.8495 0.0
N242 N 0.7605 0.94648 0.85042 0.0
C243 C 0.74499 0.93033 0.83784 0.0
C244 C 0.75369 0.91809 0.86948 0.0
C245 C 0.76631 0.93878 0.87008 0.0
C246 C 0.69543 0.86149 0.88816 0.0
O247 O 0.6899 0.84709 0.87072 0.0
H248 H 0.73626 0.93143 0.82171 0.0
H249 H 0.75302 0.90778 0.88411 0.0
O250 O 0.69826 0.89151 0.81765 0.0
H251 H 0.74402 0.84162 0.83432 0.0
H252 H 0.77713 0.94756 0.88553 0.0
Cu253 Cu 0.1881 0.87701 0.86688 0.0
N254 N 0.17558 0.88018 0.8373 0.0
N255 N 0.1628 0.87346 0.79685 0.0
C256 C 0.16704 0.86619 0.81834 0.0
C257 C 0.1689 0.89287 0.80264 0.0
C258 C 0.17688 0.89701 0.82759 0.0
O259 O 0.17197 0.84888 0.87663 0.0
C260 C 0.22925 0.90494 0.85759 0.0
O261 O 0.22218 0.91684 0.86505 0.0
H262 H 0.16544 0.85139 0.8197 0.0
H263 H 0.18428 0.91154 0.8373 0.0
N264 N 0.188 0.89259 0.89489 0.0
N265 N 0.19611 0.9078 0.93368 0.0
C266 C 0.19781 0.89468 0.91773 0.0
C267 C 0.17957 0.9046 0.89654 0.0
C268 C 0.18471 0.91415 0.92043 0.0
C269 C 0.15392 0.84334 0.88575 0.0
O270 O 0.14783 0.85673 0.88797 0.0
H271 H 0.20673 0.88734 0.92212 0.0
H272 H 0.17062 0.90654 0.88135 0.0
O273 O 0.21694 0.88594 0.85743 0.0
H274 H 0.16835 0.90354 0.78952 0.0
H275 H 0.18056 0.92503 0.92744 0.0
Cu276 Cu 0.39455 0.24061 0.70315 0.0
N277 N 0.4057 0.26652 0.68988 0.0
N278 N 0.40368 0.29294 0.67595 0.0
C279 C 0.39406 0.27546 0.68871 0.0
C280 C 0.42228 0.29527 0.66871 0.0
C281 C 0.42364 0.27897 0.67772 0.0
O282 O 0.38239 0.24221 0.73632 0.0
C283 C 0.3838 0.22492 0.65343 0.0
O284 O 0.40248 0.24049 0.64995 0.0
H285 H 0.37823 0.26861 0.69585 0.0
H286 H 0.43629 0.27595 0.67451 0.0
N287 N 0.41394 0.23253 0.71059 0.0
N288 N 0.42223 0.21021 0.72602 0.0
C289 C 0.40995 0.21851 0.72849 0.0
C290 C 0.42945 0.23332 0.69618 0.0
C291 C 0.43464 0.21954 0.70572 0.0
C292 C 0.39561 0.2566 0.75096 0.0
O293 O 0.41504 0.26721 0.74317 0.0
H294 H 0.39675 0.21304 0.74134 0.0
H295 H 0.43531 0.24196 0.67872 0.0
O296 O 0.37604 0.22158 0.67612 0.0
H297 H 0.43373 0.30751 0.65721 0.0
H298 H 0.4458 0.21589 0.69748 0.0
Cu299 Cu 0.85113 0.21917 0.67053 0.0
N300 N 0.84781 0.22986 0.63953 0.0
N301 N 0.85419 0.24498 0.60111 0.0
C302 C 0.8626 0.24183 0.62262 0.0
C303 C 0.83331 0.23466 0.60464 0.0
C304 C 0.82945 0.22539 0.6283 0.0
O305 O 0.87669 0.23954 0.6884 0.0
C306 C 0.84766 0.17992 0.67764 0.0
O307 O 0.85543 0.18605 0.70107 0.0
H308 H 0.87911 0.24743 0.62539 0.0
H309 H 0.81426 0.21561 0.63651 0.0
N310 N 0.82942 0.21504 0.69284 0.0
N311 N 0.80757 0.20399 0.72637 0.0
C312 C 0.8207 0.20099 0.71134 0.0
C313 C 0.82141 0.22727 0.69619 0.0
C314 C 0.80794 0.22051 0.71683 0.0
C315 C 0.89559 0.25001 0.68097 0.0
O316 O 0.90139 0.24525 0.65934 0.0
H317 H 0.82465 0.18941 0.71465 0.0
H318 H 0.82569 0.24063 0.68502 0.0
O319 O 0.84716 0.19246 0.66203 0.0
H320 H 0.82165 0.23369 0.59097 0.0
H321 H 0.79944 0.22748 0.72452 0.0
Cu322 Cu 0.87278 0.72507 0.68395 0.0
N323 N 0.86751 0.74139 0.66232 0.0
N324 N 0.8586 0.7506 0.62575 0.0
C325 C 0.86043 0.73606 0.63787 0.0
C326 C 0.8647 0.76571 0.64332 0.0
C327 C 0.87037 0.76004 0.66588 0.0
O328 O 0.84549 0.70124 0.68913 0.0
C329 C 0.90872 0.73666 0.65688 0.0
O330 O 0.90951 0.75401 0.66053 0.0
H331 H 0.85646 0.72162 0.62931 0.0
H332 H 0.87644 0.76901 0.68338 0.0
N333 N 0.88365 0.73725 0.71604 0.0
N334 N 0.89769 0.74053 0.75553 0.0
C335 C 0.89545 0.73271 0.73141 0.0
C336 C 0.87833 0.74851 0.73073 0.0
C337 C 0.88709 0.75069 0.75504 0.0
C338 C 0.83953 0.69174 0.71033 0.0
O339 O 0.85342 0.69526 0.72862 0.0
H340 H 0.90065 0.72236 0.72554 0.0
H341 H 0.86768 0.75359 0.7248 0.0
O342 O 0.8936 0.72079 0.66643 0.0
H343 H 0.86524 0.77989 0.64002 0.0
H344 H 0.88492 0.75839 0.77133 0.0
Cu345 Cu 0.84843 0.70783 0.17318 0.0
N346 N 0.85006 0.69436 0.14384 0.0
N347 N 0.86585 0.68803 0.11128 0.0
C348 C 0.86815 0.70025 0.1315 0.0
C349 C 0.84533 0.67385 0.11084 0.0
C350 C 0.83562 0.67777 0.13104 0.0
O351 O 0.87431 0.71485 0.19256 0.0
C352 C 0.82602 0.72337 0.15059 0.0
O353 O 0.81455 0.7039 0.14594 0.0
H354 H 0.88271 0.71346 0.13729 0.0
H355 H 0.81928 0.66908 0.13607 0.0
N356 N 0.82563 0.69188 0.19428 0.0
N357 N 0.80297 0.68556 0.22616 0.0
C358 C 0.81903 0.69983 0.21268 0.0
C359 C 0.81316 0.67175 0.19598 0.0
C360 C 0.79923 0.6678 0.21588 0.0
C361 C 0.87427 0.70022 0.20436 0.0
O362 O 0.85705 0.68262 0.20428 0.0
H363 H 0.82629 0.71588 0.21647 0.0
H364 H 0.81439 0.66075 0.18402 0.0
O365 O 0.84367 0.7298 0.16211 0.0
H366 H 0.83789 0.66136 0.09721 0.0
H367 H 0.78729 0.65308 0.22221 0.0
Cu368 Cu 0.35248 0.21875 0.20871 0.0
N369 N 0.33104 0.19286 0.19943 0.0
N370 N 0.31611 0.15995 0.19042 0.0
C371 C 0.33423 0.17756 0.19308 0.0
C372 C 0.30085 0.1643 0.19513 0.0
C373 C 0.31011 0.1847 0.20055 0.0
O374 O 0.36884 0.21455 0.2361 0.0
C375 C 0.35356 0.23406 0.16046 0.0
O376 O 0.33359 0.22488 0.16617 0.0
H377 H 0.34962 0.17915 0.19164 0.0
H378 H 0.30214 0.19283 0.20555 0.0
N379 N 0.34222 0.23454 0.22308 0.0
N380 N 0.34173 0.26262 0.23371 0.0
C381 C 0.35186 0.25471 0.22094 0.0
C382 C 0.3253 0.22945 0.23769 0.0
C383 C 0.32501 0.24678 0.24436 0.0
C384 C 0.3577 0.20448 0.25527 0.0
O385 O 0.33766 0.19858 0.25455 0.0
H386 H 0.3664 0.26346 0.21076 0.0
H387 H 0.31411 0.21431 0.24345 0.0
O388 O 0.36616 0.2329 0.17662 0.0
H389 H 0.28424 0.1535 0.19488 0.0
H390 H 0.31341 0.24765 0.25615 0.0
Cu391 Cu 0.84214 0.2203 0.18373 0.0
N392 N 0.82623 0.21223 0.15318 0.0
N393 N 0.81011 0.19293 0.11831 0.0
C394 C 0.81953 0.19429 0.14137 0.0
C395 C 0.81101 0.21088 0.11558 0.0
C396 C 0.82106 0.22277 0.13705 0.0
O397 O 0.83122 0.19724 0.20644 0.0
C398 C 0.87959 0.24735 0.16314 0.0
O399 O 0.86843 0.25608 0.1588 0.0
H400 H 0.82237 0.18282 0.14923 0.0
H401 H 0.82491 0.23823 0.14019 0.0
N402 N 0.84099 0.24124 0.20112 0.0
N403 N 0.85021 0.26689 0.22885 0.0
C404 C 0.85408 0.25237 0.22048 0.0
C405 C 0.82824 0.24884 0.19721 0.0
C406 C 0.83399 0.26478 0.21423 0.0
C407 C 0.81459 0.19304 0.21857 0.0
O408 O 0.80624 0.20452 0.21532 0.0
H409 H 0.86663 0.25023 0.22772 0.0
H410 H 0.81567 0.24323 0.18303 0.0
O411 O 0.87106 0.23037 0.17429 0.0
H412 H 0.8051 0.21528 0.09918 0.0
H413 H 0.8268 0.27407 0.21576 0.0
Zn414 Zn 0.03887 0.69806 0.20694 0.0
Zn415 Zn 0.03016 0.67416 0.24834 0.0
O416 O 0.03697 0.66 0.21806 0.0
O417 O 0.04356 0.67922 0.184 0.0
O418 O 0.0265 0.65588 0.27933 0.0
O419 O 0.06225 0.72139 0.22707 0.0
O420 O 0.05435 0.70187 0.26102 0.0
C421 C 0.04169 0.66343 0.19416 0.0
C422 C 0.9976 0.68502 0.22713 0.0
O423 O 1.00261 0.67572 0.24369 0.0
O424 O 0.0102 0.69495 0.20935 0.0
C425 C 0.02291 0.65987 0.30205 0.0
O426 O 0.02023 0.67545 0.30542 0.0
C427 C 0.0652 0.71908 0.25067 0.0
Zn428 Zn 0.37471 0.4206 0.33307 0.0
Zn429 Zn 0.39014 0.44341 0.29282 0.0
O430 O 0.41319 0.45741 0.32201 0.0
O431 O 0.39926 0.43772 0.3555 0.0
O432 O 0.40309 0.46108 0.26093 0.0
O433 O 0.3721 0.39652 0.31478 0.0
O434 O 0.38483 0.41519 0.28025 0.0
C435 C 0.4142 0.45327 0.34572 0.0
C436 C 0.34832 0.43556 0.31699 0.0
O437 O 0.36223 0.44393 0.29958 0.0
O438 O 0.35032 0.42477 0.33386 0.0
C439 C 0.42174 0.46647 0.25418 0.0
O440 O 0.43274 0.46083 0.2683 0.0
C441 C 0.37749 0.39818 0.29137 0.0
Zn442 Zn 0.66496 0.04242 0.23321 0.0
Zn443 Zn 0.65048 0.05487 0.2711 0.0
O444 O 0.64079 0.06438 0.23924 0.0
O445 O 0.65715 0.05776 0.20858 0.0
O446 O 0.63704 0.05976 0.30226 0.0
O447 O 0.64544 0.01299 0.23935 0.0
O448 O 0.63849 0.02432 0.27494 0.0
C449 C 0.64624 0.06543 0.2157 0.0
C450 C 0.69743 0.07068 0.26697 0.0
O451 O 0.68243 0.0724 0.27637 0.0
O452 O 0.69369 0.05726 0.24996 0.0
C453 C 0.62811 0.07028 0.3032 0.0
O454 O 0.62857 0.08069 0.2829 0.0
C455 C 0.6366 0.0097 0.26102 0.0
Zn456 Zn 0.0319 0.4063 0.78943 0.0
Zn457 Zn 0.04563 0.42341 0.74565 0.0
O458 O 0.01698 0.39626 0.73651 0.0
O459 O 0.00536 0.38396 0.77506 0.0
O460 O 0.05469 0.4385 0.71103 0.0
O461 O 0.03223 0.42972 0.8068 0.0
O462 O 0.0452 0.44541 0.77032 0.0
C463 C 1.00298 0.38264 0.75076 0.0
C464 C 0.07126 0.40918 0.77708 0.0
O465 O 0.06987 0.41803 0.7569 0.0
O466 O 0.05676 0.40253 0.79353 0.0
C467 C 0.04364 0.44489 0.69991 0.0
O468 O 0.02595 0.44113 0.71054 0.0
C469 C 0.0396 0.4456 0.79366 0.0
Zn470 Zn 0.67021 0.67829 0.71569 0.0
Zn471 Zn 0.65615 0.65825 0.75887 0.0
O472 O 0.66059 0.68703 0.7674 0.0
O473 O 0.67147 0.70291 0.73042 0.0
O474 O 0.64262 0.6417 0.7914 0.0
O475 O 0.64509 0.65942 0.69516 0.0
O476 O 0.63318 0.64142 0.73041 0.0
C477 C 0.66649 0.70277 0.75378 0.0
C478 C 0.69761 0.66505 0.73576 0.0
O479 O 0.68421 0.65798 0.7539 0.0
O480 O 0.69497 0.67429 0.71725 0.0
C481 C 0.64147 0.64852 0.81358 0.0
O482 O 0.65053 0.6681 0.81735 0.0
C483 C 0.63105 0.6441 0.70644 0.0
Zn484 Zn 0.39658 0.05026 0.82171 0.0
Zn485 Zn 0.40434 0.04353 0.77584 0.0
O486 O 0.40158 0.06927 0.77094 0.0
O487 O 0.39528 0.07444 0.81095 0.0
O488 O 0.41145 0.03721 0.7403 0.0
O489 O 0.4229 0.05351 0.83659 0.0
O490 O 0.4315 0.05068 0.7967 0.0
C491 C 0.39816 0.07971 0.78754 0.0
C492 C 0.36572 0.01165 0.80662 0.0
O493 O 0.37685 0.01657 0.7862 0.0
O494 O 0.37086 0.0242 0.82508 0.0
C495 C 0.40627 0.04186 0.71905 0.0
O496 O 0.39508 0.05085 0.71954 0.0
C497 C 0.43596 0.05372 0.82079 0.0
Zn498 Zn 0.7113 0.02562 0.57329 0.0
Zn499 Zn 0.70241 1.00229 0.61412 0.0
O500 O 0.7037 0.98512 0.5818 0.0
O501 O 0.71077 0.00516 0.54848 0.0
O502 O 0.69757 0.98454 0.64706 0.0
O503 O 0.73801 0.04777 0.58919 0.0
O504 O 0.73048 0.02914 0.62394 0.0
C505 C 0.70677 0.98831 0.55742 0.0
C506 C 0.67265 0.01794 0.59575 0.0
O507 O 0.67679 0.00767 0.61181 0.0
O508 O 0.68508 0.02692 0.57747 0.0
C509 C 0.69022 0.96549 0.64608 0.0
O510 O 0.68479 0.9564 0.62335 0.0
C511 C 0.7424 0.0456 0.61222 0.0
Zn512 Zn 0.07164 0.73911 0.63704 0.0
Zn513 Zn 0.08594 0.76291 0.5957 0.0
O514 O 0.10292 0.78115 0.62681 0.0
O515 O 0.09233 0.76129 0.66052 0.0
O516 O 0.10032 0.78115 0.56487 0.0
O517 O 0.07714 0.71829 0.62152 0.0
O518 O 0.08864 0.73769 0.58737 0.0
C519 C 0.10378 0.77854 0.65103 0.0
C520 C 0.0403 0.74557 0.61179 0.0
O521 O 0.05499 0.75651 0.59627 0.0
O522 O 0.04373 0.73679 0.63025 0.0
C523 C 0.11883 0.78483 0.56013 0.0
O524 O 0.12709 0.77669 0.57494 0.0
C525 C 0.08447 0.72146 0.59893 0.0
Zn526 Zn 0.31604 0.36086 0.54283 0.0
Zn527 Zn 0.29464 0.36371 0.58298 0.0
O528 O 0.27228 0.34921 0.55412 0.0
O529 O 0.28903 0.34327 0.52325 0.0
O530 O 0.27798 0.36206 0.61474 0.0
O531 O 0.32964 0.34874 0.56444 0.0
O532 O 0.31143 0.3507 0.59665 0.0
C533 C 0.2723 0.34163 0.53207 0.0
C534 C 0.3267 0.40208 0.55755 0.0
O535 O 0.31356 0.39372 0.57563 0.0
O536 O 0.32986 0.39139 0.54134 0.0
C537 C 0.26577 0.3692 0.61683 0.0
O538 O 0.26357 0.37884 0.59725 0.0
C539 C 0.32463 0.34604 0.58802 0.0
Zn540 Zn 0.69226 0.76618 0.15122 0.0
Zn541 Zn 0.69865 0.78886 0.11083 0.0
O542 O 0.67195 0.76055 0.10122 0.0
O543 O 0.66651 0.74246 0.13619 0.0
O544 O 0.70166 0.80674 0.07888 0.0
O545 O 0.69163 0.78595 0.17643 0.0
O546 O 0.69623 0.80537 0.1431 0.0
C547 C 0.66154 0.74386 0.11315 0.0
C548 C 0.73111 0.77628 0.1275 0.0
O549 O 0.72619 0.78642 0.11223 0.0
O550 O 0.71903 0.76633 0.14562 0.0
C551 C 0.69507 0.79972 0.05604 0.0
O552 O 0.68645 0.7802 0.05198 0.0
C553 C 0.69393 0.80226 0.16755 0.0
Zn554 Zn 0.32688 0.02338 0.08378 0.0
Zn555 Zn 0.31795 0.99977 0.12418 0.0
O556 O 0.31681 0.02504 0.13718 0.0
O557 O 0.32803 0.04607 0.10466 0.0
O558 O 0.30963 0.98253 0.15652 0.0
O559 O 0.30011 1.00325 0.06601 0.0
O560 O 0.29483 0.9819 0.09721 0.0
C561 C 0.32175 0.04216 0.1277 0.0
C562 C 0.35867 0.01315 0.09455 0.0
O563 O 0.34752 0.00468 0.11434 0.0
O564 O 0.35276 0.0216 0.07827 0.0
C565 C 0.29201 0.97829 0.16589 0.0
O566 O 0.28078 0.98475 0.15384 0.0
C567 C 0.28948 0.98586 0.07547 0.0
Zn568 Zn 0.05296 0.38829 0.11854 0.0
Zn569 Zn 0.06104 0.37021 0.08054 0.0
O570 O 0.05703 0.39279 0.0632 0.0
O571 O 0.05198 0.40846 0.09581 0.0
O572 O 0.07054 0.35934 0.05071 0.0
O573 O 0.07923 0.39536 0.13782 0.0
O574 O 0.08502 0.37826 0.10775 0.0
C575 C 0.05372 0.40664 0.07179 0.0
C576 C 0.02144 0.34613 0.11128 0.0
O577 O 0.03322 0.34637 0.0932 0.0
O578 O 0.02651 0.36196 0.12449 0.0
C579 C 0.05818 0.34497 0.03567 0.0
O580 O 0.03791 0.33631 0.03929 0.0
C581 C 0.09023 0.38836 0.12894 0.0
Zn582 Zn 0.38897 0.36585 0.91958 0.0
Zn583 Zn 0.38102 0.34219 0.95979 0.0
O584 O 0.38345 0.32587 0.92804 0.0
O585 O 0.39375 0.34743 0.89609 0.0
O586 O 0.3803 0.32565 0.99175 0.0
O587 O 0.41262 0.39044 0.93668 0.0
O588 O 0.40673 0.37074 0.97 0.0
C589 C 0.38891 0.33017 0.90444 0.0
C590 C 0.34736 0.3515 0.9404 0.0
O591 O 0.35297 0.34293 0.95733 0.0
O592 O 0.35979 0.36158 0.92255 0.0
C593 C 0.36468 0.3117 1.0035 0.0
O594 O 0.34568 0.3062 0.99513 0.0
C595 C 0.41701 0.38809 0.95961 0.0
Zn596 Zn 0.72144 0.05733 0.94868 0.0
Zn597 Zn 0.73445 0.08971 0.91929 0.0
O598 O 0.75012 0.10294 0.95364 0.0
O599 O 0.74023 0.07591 0.97724 0.0
O600 O 0.74417 0.11292 0.89382 0.0
O601 O 0.7313 0.04354 0.92452 0.0
O602 O 0.74412 0.07115 0.90141 0.0
C603 C 0.75056 0.0949 0.97499 0.0
C604 C 0.68781 0.06346 0.93469 0.0
O605 O 0.70242 0.07883 0.92349 0.0
O606 O 0.69182 0.05128 0.94628 0.0
C607 C 0.74497 0.10991 0.86966 0.0
O608 O 0.73874 0.09153 0.8612 0.0
C609 C 0.74142 0.05359 0.90522 0.0
Zn610 Zn 0.99232 0.67919 0.88891 0.0
Zn611 Zn 0.98397 0.69301 0.93295 0.0
O612 O 0.96636 0.69681 0.90507 0.0
O613 O 0.97323 0.68629 0.8687 0.0
O614 O 0.97416 0.69995 0.96597 0.0
O615 O 0.98188 0.65166 0.90426 0.0
O616 O 0.97732 0.66406 0.94054 0.0
C617 C 0.96389 0.69391 0.8807 0.0
C618 C 0.0286 0.7139 0.91285 0.0
O619 O 0.01549 0.71352 0.92915 0.0
O620 O 0.02266 0.7007 0.89493 0.0
C621 C 0.95446 0.69023 0.9694 0.0
O622 O 0.94237 0.67724 0.95149 0.0
C623 C 0.97687 0.6495 0.92787 0.0
Zn624 Zn 0.36687 0.09756 0.49813 0.0
Zn625 Zn 0.37885 0.12227 0.45832 0.0
O626 O 0.35142 0.09615 0.44588 0.0
O627 O 0.34244 0.07539 0.47864 0.0
O628 O 0.38617 0.14031 0.42592 0.0
O629 O 0.36358 0.1173 0.52062 0.0
O630 O 0.37416 0.1385 0.48819 0.0
C631 C 0.33913 0.07901 0.4558 0.0
C632 C 0.40824 0.10809 0.4824 0.0
O633 O 0.40496 0.11823 0.46525 0.0
O634 O 0.39419 0.09804 0.49868 0.0
C635 C 0.37222 0.14355 0.41607 0.0
O636 O 0.35403 0.1359 0.42754 0.0
C637 C 0.3681 0.1343 0.51164 0.0
Zn638 Zn 0.9837 0.38786 0.38562 0.0
Zn639 Zn 0.96293 0.35838 0.41975 0.0
O640 O 0.9632 0.38309 0.4369 0.0
O641 O 0.98009 0.40712 0.40864 0.0
O642 O 0.94507 0.33565 0.44417 0.0
O643 O 0.96184 0.37308 0.35819 0.0
O644 O 0.94548 0.34817 0.38549 0.0
C645 C 0.97043 0.40125 0.42977 0.0
C646 C 0.0083 0.37095 0.40543 0.0
O647 O 0.99202 0.36024 0.41884 0.0
O648 O 0.00851 0.38359 0.3896 0.0
C649 C 0.94723 0.33627 0.46868 0.0
O650 O 0.9628 0.35232 0.47977 0.0
C651 C 0.94675 0.35577 0.36324 0.0
Zn652 Zn 0.72314 0.72377 0.47988 0.0
Zn653 Zn 0.73547 0.71607 0.43587 0.0
O654 O 0.72921 0.73875 0.42747 0.0
O655 O 0.71778 0.7444 0.46395 0.0
O656 O 0.74549 0.7125 0.40101 0.0
O657 O 0.75045 0.73221 0.49681 0.0
O658 O 0.76039 0.72327 0.46145 0.0
C659 C 0.72184 0.74804 0.44024 0.0
C660 C 0.69551 0.68377 0.46124 0.0
O661 O 0.70779 0.6896 0.44198 0.0
O662 O 0.69958 0.69522 0.48082 0.0
C663 C 0.74741 0.69791 0.39244 0.0
O664 O 0.74291 0.68254 0.40743 0.0
C665 C 0.76403 0.73007 0.4847 0.0
H666 H 0.03748 0.49926 0.04108 0.0
H667 H 0.01527 0.47365 0.96432 0.0
H668 H 0.02169 0.44569 0.97462 0.0
H669 H 0.07859 0.48818 0.04581 0.0
H670 H 0.07481 0.48217 0.07969 0.0
H671 H 0.06786 0.49974 0.06648 0.0
H672 H 0.03004 0.47821 0.08333 0.0
H673 H 0.03697 0.46076 0.09696 0.0
H674 H 0.01512 0.45182 0.07469 0.0
H675 H 0.03227 0.42114 0.99325 0.0
H676 H 0.04232 0.40053 0.02011 0.0
H677 H 0.057 0.44266 0.08418 0.0
C678 C 0.03374 0.48767 0.0265 0.0
C679 C 0.02583 0.48862 1.00194 0.0
C680 C 0.02116 0.47314 0.98339 0.0
C681 C 0.02491 0.45728 0.98898 0.0
C682 C 0.03319 0.45707 0.01324 0.0
C683 C 0.03725 0.47174 0.03179 0.0
C684 C 0.04588 0.46811 0.05646 0.0
C685 C 0.0681 0.48559 0.06245 0.0
C686 C 0.03112 0.4645 0.0792 0.0
C687 C 0.04612 0.44912 0.04896 0.0
C688 C 0.03893 0.443 0.02391 0.0
C689 C 0.03785 0.42577 0.01292 0.0
C690 C 0.04373 0.41425 0.02822 0.0
C691 C 0.0504 0.41997 0.05422 0.0
C692 C 0.0519 0.43783 0.06439 0.0
H693 H 0.59881 0.62548 0.08343 0.0
H694 H 0.55961 0.63486 0.02907 0.0
H695 H 0.57978 0.67164 0.0386 0.0
H696 H 0.60211 0.66194 0.13079 0.0
H697 H 0.62866 0.6696 0.14013 0.0
H698 H 0.61154 0.64437 0.12815 0.0
H699 H 0.63838 0.64943 0.09276 0.0
H700 H 0.65556 0.6747 0.10459 0.0
H701 H 0.64722 0.67041 0.07114 0.0
H702 H 0.60652 0.7084 0.05287 0.0
H703 H 0.63386 0.74015 0.07402 0.0
H704 H 0.65264 0.70544 0.12157 0.0
C705 C 0.59449 0.63528 0.07348 0.0
C706 C 0.57776 0.62733 0.05533 0.0
C707 C 0.57237 0.64062 0.04306 0.0
C708 C 0.58381 0.66155 0.04829 0.0
C709 C 0.60034 0.66892 0.06624 0.0
C710 C 0.60537 0.65606 0.07895 0.0
C711 C 0.62312 0.66745 0.09823 0.0
C712 C 0.61592 0.66042 0.12597 0.0
C713 C 0.64219 0.66537 0.09125 0.0
C714 C 0.62752 0.68878 0.09428 0.0
C715 C 0.6145 0.6895 0.07551 0.0
C716 C 0.61655 0.70789 0.06786 0.0
C717 C 0.63214 0.72587 0.07991 0.0
C718 C 0.64513 0.72527 0.09976 0.0
C719 C 0.64267 0.70641 0.10686 0.0
H720 H 0.45763 0.03784 0.01065 0.0
H721 H 0.48949 0.03708 0.08113 0.0
H722 H 0.45632 0.02404 0.10497 0.0
H723 H 0.42887 0.05688 0.0387 0.0
H724 H 0.40578 0.04262 0.01879 0.0
H725 H 0.43098 0.04863 1.00666 0.0
H726 H 0.4176 0.01071 0.99791 0.0
H727 H 0.39224 1.00456 0.0099 0.0
H728 H 0.40608 0.993 0.02381 0.0
H729 H 0.41989 0.014 0.12186 0.0
H730 H 0.38465 0.0094 0.13006 0.0
H731 H 0.37805 0.01825 0.04852 0.0
C732 C 0.45757 0.03442 0.03094 0.0
C733 C 0.47614 0.03831 0.04395 0.0
C734 C 0.47542 0.03408 0.07069 0.0
C735 C 0.45663 0.02663 0.08439 0.0
C736 C 0.43871 0.0235 0.07107 0.0
C737 C 0.43909 0.02723 0.04488 0.0
C738 C 0.41842 0.0246 0.03544 0.0
C739 C 0.42119 0.04435 0.02426 0.0
C740 C 0.40797 0.00718 0.01559 0.0
C741 C 0.4065 0.01935 0.06049 0.0
C742 C 0.41821 0.01839 0.08081 0.0
C743 C 0.41053 0.01453 0.106 0.0
C744 C 0.39051 0.01191 0.1105 0.0
C745 C 0.37866 0.01355 0.08997 0.0
C746 C 0.38674 0.01697 0.06467 0.0
H747 H 0.47928 0.06482 0.53477 0.0
H748 H 0.52508 0.0989 0.4768 0.0
H749 H 0.5047 0.1155 0.46453 0.0
H750 H 0.43588 0.05398 0.49824 0.0
H751 H 0.4208 0.05577 0.52433 0.0
H752 H 0.44059 0.04924 0.531 0.0
H753 H 0.45887 0.07909 0.56362 0.0
H754 H 0.43886 0.08551 0.55745 0.0
H755 H 0.46603 0.10417 0.55348 0.0
H756 H 0.47597 0.12494 0.45528 0.0
H757 H 0.44376 0.12752 0.45198 0.0
H758 H 0.41774 0.08681 0.51653 0.0
C759 C 0.48547 0.07644 0.5203 0.0
C760 C 0.50406 0.08113 0.50732 0.0
C761 C 0.51123 0.09567 0.48757 0.0
C762 C 0.49963 0.105 0.48035 0.0
C763 C 0.48093 0.09958 0.49313 0.0
C764 C 0.47414 0.08581 0.51299 0.0
C765 C 0.4529 0.08123 0.52252 0.0
C766 C 0.4366 0.05873 0.51878 0.0
C767 C 0.45426 0.08791 0.55095 0.0
C768 C 0.44847 0.09423 0.50464 0.0
C769 C 0.46473 0.1048 0.48781 0.0
C770 C 0.46333 0.11691 0.46867 0.0
C771 C 0.44493 0.11825 0.46685 0.0
C772 C 0.42814 0.10746 0.484 0.0
C773 C 0.43022 0.09544 0.50314 0.0
H774 H 0.98056 0.50716 0.45267 0.0
H775 H 0.98702 0.49958 0.5346 0.0
H776 H 0.97429 0.46337 0.52682 0.0
H777 H 0.93521 0.45458 0.43749 0.0
H778 H 0.94682 0.45423 0.40708 0.0
H779 H 0.95034 0.47765 0.42009 0.0
H780 H 0.99053 0.49325 0.417 0.0
H781 H 0.98723 0.4699 0.40453 0.0
H782 H 1.00301 0.48122 0.43321 0.0
H783 H 0.9671 0.42956 0.50892 0.0
H784 H 0.96706 0.40225 0.4827 0.0
H785 H 0.96809 0.43342 0.41265 0.0
C786 C 0.97829 0.49772 0.46919 0.0
C787 C 0.98448 0.50615 0.49429 0.0
C788 C 0.98206 0.49337 0.51524 0.0
C789 C 0.97485 0.47277 0.51098 0.0
C790 C 0.97013 0.46519 0.48568 0.0
C791 C 0.9716 0.47731 0.46516 0.0
C792 C 0.96915 0.46671 0.43947 0.0
C793 C 0.94919 0.46307 0.4252 0.0
C794 C 0.98864 0.47847 0.4226 0.0
C795 C 0.9671 0.44713 0.44862 0.0
C796 C 0.96708 0.4462 0.47531 0.0
C797 C 0.96674 0.43 0.48801 0.0
C798 C 0.96675 0.41459 0.47302 0.0
C799 C 0.96767 0.41583 0.44572 0.0
C800 C 0.96741 0.43211 0.43351 0.0
H801 H 0.58114 0.61937 0.5129 0.0
H802 H 0.55993 0.60518 0.43306 0.0
H803 H 0.5967 0.62098 0.4189 0.0
H804 H 0.62451 0.66725 0.50167 0.0
H805 H 0.64087 0.66508 0.526 0.0
H806 H 0.61291 0.65145 0.52932 0.0
H807 H 0.61375 0.61815 0.53305 0.0
H808 H 0.64174 0.63166 0.52921 0.0
H809 H 0.62543 0.6109 0.5077 0.0
H810 H 0.63606 0.63956 0.41364 0.0
H811 H 0.67416 0.6632 0.41726 0.0
H812 H 0.66904 0.66439 0.50074 0.0
C813 C 0.58424 0.61942 0.49246 0.0
C814 C 0.56773 0.61103 0.47409 0.0
C815 C 0.57237 0.61172 0.44745 0.0
C816 C 0.59319 0.6204 0.43927 0.0
C817 C 0.6091 0.62824 0.458 0.0
C818 C 0.60483 0.628 0.48402 0.0
C819 C 0.62464 0.63866 0.50021 0.0
C820 C 0.6258 0.65668 0.51516 0.0
C821 C 0.62649 0.62396 0.51863 0.0
C822 C 0.64081 0.64545 0.47918 0.0
C823 C 0.63162 0.63898 0.45498 0.0
C824 C 0.64345 0.64454 0.4325 0.0
C825 C 0.66512 0.65784 0.43475 0.0
C826 C 0.67456 0.6656 0.45928 0.0
C827 C 0.66231 0.65859 0.48174 0.0
H828 H 0.9993 0.56107 0.95274 0.0
H829 H 0.98167 0.56146 0.0325 0.0
H830 H 0.96686 0.58298 0.0205 0.0
H831 H 0.01792 0.61017 0.94185 0.0
H832 H 0.00889 0.60771 0.9088 0.0
H833 H 0.01363 0.58882 0.92225 0.0
H834 H 0.97566 0.56112 0.91067 0.0
H835 H 0.97082 0.57997 0.89687 0.0
H836 H 0.95402 0.56372 0.92176 0.0
H837 H 0.96062 0.60974 1.00155 0.0
H838 H 0.96214 0.638 0.97709 0.0
H839 H 0.98333 0.61952 0.90962 0.0
C840 C 0.99165 0.56508 0.96753 0.0
C841 C 0.99158 0.55954 0.99353 0.0
C842 C 0.98169 0.56532 0.01239 0.0
C843 C 0.97325 0.57757 1.00574 0.0
C844 C 0.9745 0.58358 0.98009 0.0
C845 C 0.98313 0.5772 0.96119 0.0
C846 C 0.9848 0.58748 0.93574 0.0
C847 C 0.00766 0.59924 0.92666 0.0
C848 C 0.97047 0.57216 0.91504 0.0
C849 C 0.97688 0.60151 0.94359 0.0
C850 C 0.97067 0.59884 0.96911 0.0
C851 C 0.96492 0.6116 0.98138 0.0
C852 C 0.96591 0.62767 0.96735 0.0
C853 C 0.9727 0.63089 0.94136 0.0
C854 C 0.97768 0.61725 0.92926 0.0
H855 H 0.4893 0.50584 0.99264 0.0
H856 H 0.51288 0.48922 0.05957 0.0
H857 H 0.49024 0.45321 0.04799 0.0
H858 H 0.43615 0.46489 0.99485 0.0
H859 H 0.43324 0.46162 0.96021 0.0
H860 H 0.45104 0.48603 0.97408 0.0
H861 H 0.4813 0.48747 0.94734 0.0
H862 H 0.4636 0.46305 0.9334 0.0
H863 H 0.48713 0.46733 0.94984 0.0
H864 H 0.46384 0.41855 0.0296 0.0
H865 H 0.43753 0.38862 1.00467 0.0
H866 H 0.43279 0.42805 0.94864 0.0
C867 C 0.48965 0.49463 1.00492 0.0
C868 C 0.50284 0.50041 0.02711 0.0
C869 C 0.50297 0.48522 0.04246 0.0
C870 C 0.49011 0.46469 0.03606 0.0
C871 C 0.47733 0.45949 0.01405 0.0
C872 C 0.47714 0.47405 0.99859 0.0
C873 C 0.46236 0.46451 0.97564 0.0
C874 C 0.44465 0.46956 0.97625 0.0
C875 C 0.47431 0.47098 0.95004 0.0
C876 C 0.45415 0.44233 0.98067 0.0
C877 C 0.46283 0.43969 1.00301 0.0
C878 C 0.45709 0.42047 0.01195 0.0
C879 C 0.44211 0.40354 0.99769 0.0
C880 C 0.43321 0.4059 0.97454 0.0
C881 C 0.43947 0.42564 0.96603 0.0
H882 H 0.61062 0.10086 0.97934 0.0
H883 H 0.56589 0.03863 0.99709 0.0
H884 H 0.58868 0.02784 0.9758 0.0
H885 H 0.62695 0.09122 0.91632 0.0
H886 H 0.65384 0.11053 0.92157 0.0
H887 H 0.6331 0.11311 0.93594 0.0
H888 H 0.65005 0.11724 0.98134 0.0
H889 H 0.67089 0.11487 0.9671 0.0
H890 H 0.65566 0.09821 0.99263 0.0
H891 H 0.6177 0.02428 0.95604 0.0
H892 H 0.65135 0.02826 0.94165 0.0
H893 H 0.67693 0.09282 0.93616 0.0
C894 C 0.60543 0.08491 0.9785 0.0
C895 C 0.58641 0.07056 0.98983 0.0
C896 C 0.58036 0.04988 0.98852 0.0
C897 C 0.59316 0.04361 0.97633 0.0
C898 C 0.61184 0.0582 0.96543 0.0
C899 C 0.61796 0.07843 0.96644 0.0
C900 C 0.63945 0.09125 0.95496 0.0
C901 C 0.63825 0.10217 0.93075 0.0
C902 C 0.65492 0.10627 0.97522 0.0
C903 C 0.64479 0.07514 0.94795 0.0
C904 C 0.62853 0.05615 0.95384 0.0
C905 C 0.63039 0.03903 0.95099 0.0
C906 C 0.64956 0.04144 0.94277 0.0
C907 C 0.66665 0.06082 0.93749 0.0
C908 C 0.66397 0.07778 0.93937 0.0
H909 H 0.59204 0.05211 0.5471 0.0
H910 H 0.56165 0.03431 0.6215 0.0
H911 H 0.58732 0.02449 0.63549 0.0
H912 H 0.60306 0.01231 0.54027 0.0
H913 H 0.62817 0.0275 0.52553 0.0
H914 H 0.60808 0.03411 0.5218 0.0
H915 H 0.63313 0.06982 0.54059 0.0
H916 H 0.65339 0.06339 0.54409 0.0
H917 H 0.64553 0.07244 0.57168 0.0
H918 H 0.61567 0.01465 0.64052 0.0
H919 H 0.6455 0.00839 0.63689 0.0
H920 H 0.65711 0.03301 0.55956 0.0
C921 C 0.59095 0.04646 0.5665 0.0
C922 C 0.57476 0.04409 0.58317 0.0
C923 C 0.57389 0.0364 0.60831 0.0
C924 C 0.58839 0.03068 0.61645 0.0
C925 C 0.60384 0.03278 0.59933 0.0
C926 C 0.60533 0.04071 0.57497 0.0
C927 C 0.62321 0.04122 0.56012 0.0
C928 C 0.61514 0.02799 0.53548 0.0
C929 C 0.6398 0.06301 0.55376 0.0
C930 C 0.63146 0.03224 0.57982 0.0
C931 C 0.62009 0.02736 0.60231 0.0
C932 C 0.62476 0.01855 0.62301 0.0
C933 C 0.64166 0.01494 0.62077 0.0
C934 C 0.65378 0.02023 0.59803 0.0
C935 C 0.64833 0.02885 0.57733 0.0
H936 H 0.0507 0.60777 0.56323 0.0
H937 H 0.09752 0.63101 0.50319 0.0
H938 H 0.10825 0.66577 0.51696 0.0
H939 H 0.03539 0.64476 0.55862 0.0
H940 H 0.03233 0.64647 0.59295 0.0
H941 H 0.02871 0.62336 0.57884 0.0
H942 H 0.05667 0.62427 0.61036 0.0
H943 H 0.06036 0.64739 0.6246 0.0
H944 H 0.08241 0.6463 0.61175 0.0
H945 H 0.112 0.69808 0.53503 0.0
H946 H 0.11014 0.72548 0.55849 0.0
H947 H 0.06262 0.6812 0.60834 0.0
C948 C 0.06329 0.62019 0.55312 0.0
C949 C 0.07325 0.61669 0.53214 0.0
C950 C 0.08973 0.63332 0.51943 0.0
C951 C 0.09592 0.65314 0.52704 0.0
C952 C 0.08569 0.6561 0.54766 0.0
C953 C 0.06992 0.6401 0.56075 0.0
C954 C 0.06149 0.64742 0.58228 0.0
C955 C 0.0381 0.64007 0.5779 0.0
C956 C 0.06548 0.64096 0.60882 0.0
C957 C 0.07474 0.67 0.57895 0.0
C958 C 0.08853 0.67473 0.55879 0.0
C959 C 0.1015 0.6946 0.55113 0.0
C960 C 0.10032 0.71004 0.56448 0.0
C961 C 0.08648 0.70547 0.58541 0.0
C962 C 0.07368 0.68519 0.59275 0.0
H963 H 0.42382 0.50332 0.51072 0.0
H964 H 0.41509 0.53355 0.5766 0.0
H965 H 0.38117 0.50293 0.58531 0.0
H966 H 0.36747 0.47225 0.49126 0.0
H967 H 0.37076 0.4512 0.48244 0.0
H968 H 0.3922 0.47659 0.47912 0.0
H969 H 0.41552 0.46776 0.50752 0.0
H970 H 0.39411 0.44252 0.51122 0.0
H971 H 0.40697 0.4579 0.53944 0.0
H972 H 0.35088 0.46732 0.59035 0.0
H973 H 0.32671 0.43045 0.59069 0.0
H974 H 0.35597 0.42404 0.52147 0.0
C975 C 0.41459 0.50362 0.52669 0.0
C976 C 0.42206 0.52075 0.54303 0.0
C977 C 0.40951 0.52065 0.56368 0.0
C978 C 0.39027 0.50331 0.56878 0.0
C979 C 0.38374 0.48637 0.55282 0.0
C980 C 0.39545 0.48653 0.53197 0.0
C981 C 0.38607 0.46601 0.51904 0.0
C982 C 0.37868 0.46655 0.49132 0.0
C983 C 0.40159 0.45809 0.51935 0.0
C984 C 0.36775 0.45399 0.53657 0.0
C985 C 0.3664 0.46599 0.5557 0.0
C986 C 0.35156 0.45785 0.57518 0.0
C987 C 0.33792 0.43689 0.57525 0.0
C988 C 0.33939 0.42433 0.55609 0.0
C989 C 0.35427 0.43317 0.53629 0.0
H990 H 0.66767 0.81476 0.432 0.0
H991 H 0.67158 0.81293 0.34841 0.0
H992 H 0.68959 0.79317 0.35248 0.0
H993 H 0.71744 0.82086 0.44613 0.0
H994 H 0.70902 0.80517 0.47432 0.0
H995 H 0.69579 0.81852 0.46475 0.0
H996 H 0.6603 0.785 0.46278 0.0
H997 H 0.67335 0.77161 0.47284 0.0
H998 H 0.6579 0.76425 0.44341 0.0
H999 H 0.70794 0.77417 0.36616 0.0
H1000 H 0.72268 0.75537 0.38813 0.0
H1001 H 0.70661 0.77038 0.46251 0.0
C1002 C 0.67185 0.80984 0.4145 0.0
C1003 C 0.66815 0.81531 0.38989 0.0
C1004 C 0.67438 0.80897 0.36748 0.0
C1005 C 0.68462 0.79778 0.3696 0.0
C1006 C 0.68849 0.79309 0.39426 0.0
C1007 C 0.68212 0.79878 0.41627 0.0
C1008 C 0.68826 0.79206 0.44053 0.0
C1009 C 0.70354 0.81024 0.45741 0.0
C1010 C 0.66879 0.77735 0.45578 0.0
C1011 C 0.69899 0.78156 0.42875 0.0
C1012 C 0.6991 0.78238 0.40206 0.0
C1013 C 0.70794 0.77342 0.38706 0.0
C1014 C 0.71637 0.76289 0.39971 0.0
C1015 C 0.71579 0.76141 0.42703 0.0
C1016 C 0.70735 0.77125 0.44161 0.0
H1017 H 0.24796 0.96638 0.42488 0.0
H1018 H 0.22183 0.9908 0.37043 0.0
H1019 H 0.25138 0.02522 0.3796 0.0
H1020 H 0.26502 0.00665 0.47182 0.0
H1021 H 0.28832 0.006 0.48083 0.0
H1022 H 0.26556 0.98344 0.46907 0.0
H1023 H 0.28784 0.97959 0.43337 0.0
H1024 H 0.31065 1.00221 0.44494 0.0
H1025 H 0.30241 1.0001 0.4116 0.0
H1026 H 0.28491 0.05713 0.39408 0.0
H1027 H 0.31709 0.0838 0.41596 0.0
H1028 H 0.31968 0.03833 0.4627 0.0
C1029 C 0.24855 0.979 0.41483 0.0
C1030 C 0.2327 0.97596 0.39686 0.0
C1031 C 0.23377 0.99284 0.38438 0.0
C1032 C 0.25056 0.01241 0.38935 0.0
C1033 C 0.26602 0.01488 0.40712 0.0
C1034 C 0.26498 0.99862 0.41993 0.0
C1035 C 0.283 0.00535 0.43899 0.0
C1036 C 0.27499 1.00005 0.46682 0.0
C1037 C 0.29679 0.99627 0.43178 0.0
C1038 C 0.29441 0.02791 0.43493 0.0
C1039 C 0.28459 0.03315 0.41622 0.0
C1040 C 0.29263 0.05318 0.40889 0.0
C1041 C 0.31094 0.06822 0.42131 0.0
C1042 C 0.3208 0.06318 0.44114 0.0
C1043 C 0.3124 0.04271 0.44778 0.0
H1044 H 0.11824 0.38429 0.3622 0.0
H1045 H 0.1194 0.35572 0.43389 0.0
H1046 H 0.08585 0.35294 0.44622 0.0
H1047 H 0.09562 0.4132 0.38949 0.0
H1048 H 0.08009 0.41007 0.3609 0.0
H1049 H 0.10458 0.4104 0.3582 0.0
H1050 H 0.08553 0.37572 0.33453 0.0
H1051 H 0.06096 0.3752 0.33735 0.0
H1052 H 0.06371 0.35473 0.3498 0.0
H1053 H 0.05075 0.35119 0.44947 0.0
H1054 H 0.01849 0.35333 0.44483 0.0
H1055 H 0.04097 0.38407 0.37191 0.0
C1056 C 0.11157 0.37766 0.38063 0.0
C1057 C 0.12151 0.37022 0.39704 0.0
C1058 C 0.11218 0.3616 0.42097 0.0
C1059 C 0.09305 0.35988 0.42815 0.0
C1060 C 0.08348 0.36702 0.41133 0.0
C1061 C 0.09256 0.37598 0.38822 0.0
C1062 C 0.07902 0.38237 0.37358 0.0
C1063 C 0.09052 0.40537 0.37036 0.0
C1064 C 0.07189 0.37134 0.34726 0.0
C1065 C 0.06083 0.37541 0.39192 0.0
C1066 C 0.06361 0.36649 0.41352 0.0
C1067 C 0.0485 0.35833 0.43273 0.0
C1068 C 0.03019 0.35952 0.42989 0.0
C1069 C 0.02723 0.36896 0.40812 0.0
C1070 C 0.04282 0.37693 0.38894 0.0
H1071 H 0.12918 0.35858 0.84707 0.0
H1072 H 0.1866 0.40024 0.80895 0.0
H1073 H 0.16856 0.417 0.78889 0.0
H1074 H 0.09494 0.35117 0.79665 0.0
H1075 H 0.07442 0.34993 0.81663 0.0
H1076 H 0.09247 0.34285 0.82963 0.0
H1077 H 0.10249 0.36885 0.86716 0.0
H1078 H 0.08413 0.37574 0.85461 0.0
H1079 H 0.11111 0.39481 0.8599 0.0
H1080 H 0.14187 0.42644 0.76929 0.0
H1081 H 0.11129 0.43009 0.7569 0.0
H1082 H 0.07268 0.38226 0.80959 0.0
C1083 C 0.1381 0.37159 0.83503 0.0
C1084 C 0.15927 0.37832 0.82971 0.0
C1085 C 0.17044 0.39517 0.81361 0.0
C1086 C 0.16024 0.4046 0.80199 0.0
C1087 C 0.13902 0.39711 0.80702 0.0
C1088 C 0.12829 0.38122 0.82367 0.0
C1089 C 0.10558 0.37548 0.82575 0.0
C1090 C 0.09101 0.35356 0.81661 0.0
C1091 C 0.10054 0.37894 0.8535 0.0
C1092 C 0.1049 0.39028 0.80724 0.0
C1093 C 0.1242 0.40266 0.79643 0.0
C1094 C 0.12679 0.41696 0.77796 0.0
C1095 C 0.10932 0.41884 0.77087 0.0
C1096 C 0.0896 0.40657 0.78236 0.0
C1097 C 0.08754 0.39206 0.80059 0.0
H1098 H 0.71919 0.8067 0.83215 0.0
H1099 H 0.68775 0.82605 0.77796 0.0
H1100 H 0.66856 0.79169 0.75928 0.0
H1101 H 0.72651 0.77505 0.78811 0.0
H1102 H 0.72206 0.75608 0.81157 0.0
H1103 H 0.7322 0.78184 0.82189 0.0
H1104 H 0.7016 0.77036 0.85395 0.0
H1105 H 0.69122 0.74454 0.8435 0.0
H1106 H 0.67501 0.75596 0.84208 0.0
H1107 H 0.65496 0.75644 0.74421 0.0
H1108 H 0.64851 0.72246 0.73265 0.0
H1109 H 0.68783 0.72503 0.79694 0.0
C1110 C 0.70831 0.80375 0.81633 0.0
C1111 C 0.70494 0.81914 0.80659 0.0
C1112 C 0.6904 0.8145 0.786 0.0
C1113 C 0.67942 0.79502 0.77525 0.0
C1114 C 0.68303 0.78023 0.78539 0.0
C1115 C 0.69713 0.78431 0.80543 0.0
C1116 C 0.69874 0.76583 0.8119 0.0
C1117 C 0.72121 0.76995 0.80813 0.0
C1118 C 0.69119 0.75876 0.8395 0.0
C1119 C 0.68376 0.75088 0.79187 0.0
C1120 C 0.67476 0.75953 0.77697 0.0
C1121 C 0.6616 0.74938 0.756 0.0
C1122 C 0.65799 0.7301 0.74962 0.0
C1123 C 0.66731 0.72108 0.76427 0.0
C1124 C 0.67999 0.73139 0.78601 0.0
H1125 H 0.26311 0.9361 0.8798 0.0
H1126 H 0.24345 0.89571 0.81339 0.0
H1127 H 0.27817 0.91714 0.79339 0.0
H1128 H 0.28811 0.97997 0.84757 0.0
H1129 H 0.30921 0.9932 0.87065 0.0
H1130 H 0.2845 0.97298 0.88115 0.0
H1131 H 0.30275 0.95442 0.90017 0.0
H1132 H 0.32768 0.97481 0.89014 0.0
H1133 H 0.31939 0.94933 0.8799 0.0
H1134 H 0.31374 0.94687 0.7782 0.0
H1135 H 0.34658 0.97944 0.77152 0.0
H1136 H 0.34159 0.99844 0.84919 0.0
C1137 C 0.26641 0.9314 0.86145 0.0
C1138 C 0.25086 0.91426 0.84819 0.0
C1139 C 0.25544 0.90865 0.82402 0.0
C1140 C 0.27504 0.9208 0.81249 0.0
C1141 C 0.28987 0.9382 0.82572 0.0
C1142 C 0.28582 0.94312 0.85 0.0
C1143 C 0.30345 0.96308 0.85976 0.0
C1144 C 0.29585 0.97818 0.86507 0.0
C1145 C 0.31394 0.96023 0.88392 0.0
C1146 C 0.31774 0.96917 0.8368 0.0
C1147 C 0.30993 0.95472 0.8173 0.0
C1148 C 0.32014 0.95808 0.7936 0.0
C1149 C 0.33873 0.97663 0.7899 0.0
C1150 C 0.34675 0.99155 0.80978 0.0
C1151 C 0.33608 0.98745 0.83351 0.0
H1152 H 0.63075 0.92898 0.3576 0.0
H1153 H 0.59795 0.88413 0.2974 0.0
H1154 H 0.59286 0.90882 0.27262 0.0
H1155 H 0.59907 0.95571 0.35025 0.0
H1156 H 0.62201 0.97986 0.35673 0.0
H1157 H 0.61923 0.95756 0.37192 0.0
H1158 H 0.65503 0.96524 0.35359 0.0
H1159 H 0.65785 0.98737 0.33822 0.0
H1160 H 0.65919 0.96823 0.3192 0.0
H1161 H 0.5989 0.93995 0.2504 0.0
H1162 H 0.6123 0.97455 0.23432 0.0
H1163 H 0.63858 0.99883 0.31021 0.0
C1164 C 0.62187 0.92427 0.33962 0.0
C1165 C 0.61464 0.90475 0.32937 0.0
C1166 C 0.6033 0.89897 0.30569 0.0
C1167 C 0.60039 0.9129 0.2915 0.0
C1168 C 0.60845 0.93234 0.30165 0.0
C1169 C 0.61852 0.93789 0.3255 0.0
C1170 C 0.62744 0.96016 0.33098 0.0
C1171 C 0.61626 0.96351 0.35383 0.0
C1172 C 0.65128 0.97086 0.33576 0.0
C1173 C 0.62206 0.96652 0.30579 0.0
C1174 C 0.61094 0.95023 0.28919 0.0
C1175 C 0.6069 0.95273 0.2635 0.0
C1176 C 0.61464 0.97239 0.25449 0.0
C1177 C 0.62601 0.98916 0.27125 0.0
C1178 C 0.62927 0.98614 0.29733 0.0
H1179 H 0.12758 0.83625 0.28782 0.0
H1180 H 0.14005 0.81996 0.36326 0.0
H1181 H 0.12188 0.78407 0.34961 0.0
H1182 H 0.07619 0.79327 0.27838 0.0
H1183 H 0.07954 0.79101 0.24425 0.0
H1184 H 0.09352 0.81527 0.26018 0.0
H1185 H 0.12856 0.8194 0.24384 0.0
H1186 H 0.11469 0.79505 0.22805 0.0
H1187 H 0.13529 0.80035 0.25114 0.0
H1188 H 0.1012 0.74967 0.32792 0.0
H1189 H 0.07997 0.71975 0.2999 0.0
H1190 H 0.0823 0.7589 0.23822 0.0
C1191 C 0.12632 0.82512 0.30153 0.0
C1192 C 0.13519 0.8309 0.32664 0.0
C1193 C 0.13351 0.81588 0.34387 0.0
C1194 C 0.12318 0.79546 0.33631 0.0
C1195 C 0.11476 0.7903 0.31133 0.0
C1196 C 0.11627 0.80471 0.29419 0.0
C1197 C 0.106 0.79523 0.26842 0.0
C1198 C 0.08773 0.79891 0.26247 0.0
C1199 C 0.1221 0.80297 0.24658 0.0
C1200 C 0.09827 0.77322 0.27382 0.0
C1201 C 0.10343 0.77065 0.29868 0.0
C1202 C 0.09723 0.75154 0.30833 0.0
C1203 C 0.0852 0.73462 0.29227 0.0
C1204 C 0.07963 0.73693 0.26675 0.0
C1205 C 0.08655 0.75657 0.25745 0.0
H1206 H 0.23452 0.40265 0.36604 0.0
H1207 H 0.2262 0.43226 0.29956 0.0
H1208 H 0.26355 0.44658 0.28903 0.0
H1209 H 0.28902 0.4427 0.38275 0.0
H1210 H 0.2962 0.42428 0.39187 0.0
H1211 H 0.26972 0.41899 0.39608 0.0
H1212 H 0.25612 0.38615 0.36882 0.0
H1213 H 0.28249 0.3914 0.3643 0.0
H1214 H 0.26585 0.38747 0.33658 0.0
H1215 H 0.30107 0.45384 0.28253 0.0
H1216 H 0.33492 0.45424 0.28213 0.0
H1217 H 0.31787 0.42019 0.35324 0.0
C1218 C 0.24063 0.4126 0.34967 0.0
C1219 C 0.22739 0.41636 0.33371 0.0
C1220 C 0.23603 0.42926 0.31225 0.0
C1221 C 0.25726 0.43745 0.30606 0.0
C1222 C 0.26972 0.43283 0.3217 0.0
C1223 C 0.26173 0.42092 0.3433 0.0
C1224 C 0.27778 0.41689 0.35593 0.0
C1225 C 0.28352 0.42628 0.38328 0.0
C1226 C 0.2701 0.39414 0.35641 0.0
C1227 C 0.29583 0.42779 0.33762 0.0
C1228 C 0.29109 0.43708 0.31808 0.0
C1229 C 0.30506 0.4469 0.29802 0.0
C1230 C 0.32424 0.44704 0.2979 0.0
C1231 C 0.32916 0.43732 0.31764 0.0
C1232 C 0.31478 0.42791 0.33787 0.0
H1233 H 0.25496 0.36624 0.883 0.0
H1234 H 0.21739 0.33241 0.94811 0.0
H1235 H 0.24747 0.33078 0.96626 0.0
H1236 H 0.28116 0.33902 0.87503 0.0
H1237 H 0.30604 0.3604 0.86681 0.0
H1238 H 0.28223 0.36069 0.86009 0.0
H1239 H 0.29612 0.39388 0.88666 0.0
H1240 H 0.32009 0.39379 0.89327 0.0
H1241 H 0.30488 0.39501 0.91961 0.0
H1242 H 0.28109 0.33037 0.97571 0.0
H1243 H 0.31585 0.33271 0.9762 0.0
H1244 H 0.33127 0.36683 0.90518 0.0
C1245 C 0.25321 0.35892 0.90138 0.0
C1246 C 0.23376 0.34954 0.91413 0.0
C1247 C 0.23209 0.33976 0.93793 0.0
C1248 C 0.24912 0.33873 0.94845 0.0
C1249 C 0.26788 0.34762 0.93507 0.0
C1250 C 0.27009 0.35771 0.91217 0.0
C1251 C 0.29165 0.36519 0.90105 0.0
C1252 C 0.29017 0.35575 0.87416 0.0
C1253 C 0.30391 0.38834 0.9001 0.0
C1254 C 0.30101 0.35742 0.92096 0.0
C1255 C 0.28714 0.3474 0.94052 0.0
C1256 C 0.29217 0.33837 0.9606 0.0
C1257 C 0.31193 0.33972 0.96071 0.0
C1258 C 0.32642 0.34999 0.94084 0.0
C1259 C 0.32071 0.35895 0.92082 0.0
H1260 H 0.73158 0.95739 0.84059 0.0
H1261 H 0.79688 0.98115 0.86063 0.0
H1262 H 0.80088 0.01496 0.86766 0.0
H1263 H 0.73602 0.00475 0.81172 0.0
H1264 H 0.71173 0.99954 0.82631 0.0
H1265 H 0.71549 0.97905 0.81597 0.0
H1266 H 0.70671 0.9641 0.86181 0.0
H1267 H 0.70294 0.98437 0.87247 0.0
H1268 H 0.72145 0.97953 0.88924 0.0
H1269 H 0.7961 0.04431 0.87976 0.0
H1270 H 0.78247 0.06503 0.89941 0.0
H1271 H 0.71981 0.02091 0.87424 0.0
C1272 C 0.74698 0.96988 0.84518 0.0
C1273 C 0.76406 0.96676 0.84954 0.0
C1274 C 0.78371 0.98334 0.85685 0.0
C1275 C 0.7861 1.00258 0.86074 0.0
C1276 C 0.76866 0.00494 0.85728 0.0
C1277 C 0.74945 0.98895 0.84961 0.0
C1278 C 0.73228 0.9942 0.85171 0.0
C1279 C 0.72336 0.99441 0.82482 0.0
C1280 C 0.71485 0.9797 0.8699 0.0
C1281 C 0.74453 0.01524 0.86321 0.0
C1282 C 0.76564 0.02151 0.86539 0.0
C1283 C 0.77971 0.03974 0.87759 0.0
C1284 C 0.7719 0.05146 0.88861 0.0
C1285 C 0.75023 0.04462 0.88777 0.0
C1286 C 0.73652 0.02661 0.8744 0.0
H1287 H 0.11695 0.82878 0.91113 0.0
H1288 H 0.15745 0.8099 0.87521 0.0
H1289 H 0.13103 0.77427 0.8832 0.0
H1290 H 0.09501 0.78907 0.96081 0.0
H1291 H 0.06948 0.78665 0.95822 0.0
H1292 H 0.09257 0.8106 0.95238 0.0
H1293 H 0.07782 0.81184 0.90721 0.0
H1294 H 0.05475 0.78796 0.91288 0.0
H1295 H 0.07027 0.79117 0.88468 0.0
H1296 H 0.09843 0.74087 0.89004 0.0
H1297 H 0.06264 0.71233 0.89595 0.0
H1298 H 0.0439 0.75306 0.92886 0.0
C1299 C 0.12047 0.8172 0.90532 0.0
C1300 C 0.13928 0.82211 0.89254 0.0
C1301 C 0.14321 0.80649 0.88516 0.0
C1302 C 0.1283 0.78622 0.88965 0.0
C1303 C 0.10973 0.78191 0.90186 0.0
C1304 C 0.10588 0.79699 0.90982 0.0
C1305 C 0.08418 0.78839 0.92099 0.0
C1306 C 0.08539 0.79401 0.94981 0.0
C1307 C 0.07098 0.79525 0.90551 0.0
C1308 C 0.07608 0.76606 0.91727 0.0
C1309 C 0.09112 0.76263 0.90639 0.0
C1310 C 0.0867 0.74335 0.89904 0.0
C1311 C 0.06631 0.72725 0.90242 0.0
C1312 C 0.05061 0.73047 0.91318 0.0
C1313 C 0.05574 0.75008 0.92124 0.0
H1314 H 0.42907 0.1803 0.70779 0.0
H1315 H 0.40862 0.20007 0.77481 0.0
H1316 H 0.39902 0.16815 0.79639 0.0
H1317 H 0.38947 0.12863 0.70891 0.0
H1318 H 0.4063 0.11882 0.70016 0.0
H1319 H 0.41234 0.14351 0.68971 0.0
H1320 H 0.44912 0.15916 0.71113 0.0
H1321 H 0.44332 0.13447 0.72128 0.0
H1322 H 0.45144 0.1546 0.74482 0.0
H1323 H 0.38983 0.13412 0.80983 0.0
H1324 H 0.38527 0.10063 0.81735 0.0
H1325 H 0.41274 0.10219 0.74269 0.0
C1326 C 0.42297 0.17807 0.72719 0.0
C1327 C 0.41941 0.19265 0.73954 0.0
C1328 C 0.41116 0.18901 0.76483 0.0
C1329 C 0.40568 0.17094 0.77726 0.0
C1330 C 0.40872 0.15665 0.76427 0.0
C1331 C 0.41748 0.16004 0.74003 0.0
C1332 C 0.41913 0.142 0.73071 0.0
C1333 C 0.40603 0.13269 0.7059 0.0
C1334 C 0.44212 0.14791 0.72676 0.0
C1335 C 0.40979 0.12799 0.7535 0.0
C1336 C 0.40379 0.13682 0.77246 0.0
C1337 C 0.39464 0.12708 0.79528 0.0
C1338 C 0.39208 0.10799 0.7993 0.0
C1339 C 0.39876 0.09875 0.7807 0.0
C1340 C 0.40741 0.10879 0.75723 0.0
H1341 H 0.93589 0.27983 0.66811 0.0
H1342 H 0.88744 0.26435 0.72524 0.0
H1343 H 0.90873 0.29748 0.74627 0.0
H1344 H 0.97985 0.30723 0.71281 0.0
H1345 H 0.99576 0.3261 0.68969 0.0
H1346 H 0.97669 0.30109 0.67872 0.0
H1347 H 0.95985 0.31623 0.64895 0.0
H1348 H 0.97869 0.34128 0.66012 0.0
H1349 H 0.95108 0.33238 0.66273 0.0
H1350 H 0.93425 0.33192 0.76103 0.0
H1351 H 0.96479 0.36484 0.77206 0.0
H1352 H 0.99812 0.35939 0.70652 0.0
C1353 C 0.92986 0.28333 0.68519 0.0
C1354 C 0.90985 0.26932 0.69492 0.0
C1355 C 0.9026 0.27466 0.7173 0.0
C1356 C 0.91456 0.29355 0.72936 0.0
C1357 C 0.93388 0.30711 0.71899 0.0
C1358 C 0.94171 0.30225 0.69767 0.0
C1359 C 0.96333 0.31964 0.69111 0.0
C1360 C 0.97989 0.31312 0.69322 0.0
C1361 C 0.96322 0.32786 0.66412 0.0
C1362 C 0.9664 0.33492 0.71224 0.0
C1363 C 0.949 0.32729 0.72782 0.0
C1364 C 0.94796 0.33806 0.74899 0.0
C1365 C 0.9654 0.35682 0.75504 0.0
C1366 C 0.98382 0.36481 0.7401 0.0
C1367 C 0.98414 0.35388 0.71799 0.0
H1368 H 0.80698 0.68811 0.68045 0.0
H1369 H 0.82097 0.67138 0.75479 0.0
H1370 H 0.78449 0.65893 0.76818 0.0
H1371 H 0.77808 0.70807 0.70389 0.0
H1372 H 0.75925 0.69957 0.67762 0.0
H1373 H 0.7851 0.70366 0.67216 0.0
H1374 H 0.76948 0.66698 0.655 0.0
H1375 H 0.74349 0.66281 0.66011 0.0
H1376 H 0.75141 0.64633 0.67466 0.0
H1377 H 0.74744 0.65256 0.77548 0.0
H1378 H 0.71375 0.65245 0.7753 0.0
H1379 H 0.72503 0.67387 0.69636 0.0
C1380 C 0.80225 0.68123 0.69924 0.0
C1381 C 0.81688 0.68064 0.71648 0.0
C1382 C 0.81006 0.67188 0.74112 0.0
C1383 C 0.78933 0.66477 0.74892 0.0
C1384 C 0.77554 0.66637 0.73182 0.0
C1385 C 0.78172 0.67419 0.70735 0.0
C1386 C 0.7647 0.67609 0.69345 0.0
C1387 C 0.77224 0.69815 0.68639 0.0
C1388 C 0.7568 0.66222 0.66938 0.0
C1389 C 0.74825 0.6688 0.71419 0.0
C1390 C 0.75455 0.66296 0.7361 0.0
C1391 C 0.74224 0.65681 0.75825 0.0
C1392 C 0.72314 0.65681 0.75802 0.0
C1393 C 0.71669 0.66315 0.73586 0.0
C1394 C 0.72939 0.66888 0.71365 0.0
H1395 H 0.78577 0.7109 0.13676 0.0
H1396 H 0.84525 0.76534 0.15114 0.0
H1397 H 0.82841 0.78584 0.1417 0.0
H1398 H 0.76649 0.72913 0.08515 0.0
H1399 H 0.73997 0.7156 0.09654 0.0
H1400 H 0.75734 0.70583 0.10221 0.0
H1401 H 0.75064 0.70485 0.1515 0.0
H1402 H 0.73312 0.71439 0.14595 0.0
H1403 H 0.75499 0.72746 0.16804 0.0
H1404 H 0.80325 0.80011 0.13201 0.0
H1405 H 0.77297 0.80584 0.12772 0.0
H1406 H 0.73106 0.74143 0.1214 0.0
C1407 C 0.7955 0.72715 0.1376 0.0
C1408 C 0.81697 0.73648 0.14443 0.0
C1409 C 0.82881 0.75782 0.1458 0.0
C1410 C 0.81936 0.76956 0.14036 0.0
C1411 C 0.79804 0.75974 0.13371 0.0
C1412 C 0.78634 0.73894 0.13257 0.0
C1413 C 0.76348 0.7316 0.12702 0.0
C1414 C 0.75642 0.71985 0.10119 0.0
C1415 C 0.74976 0.71884 0.14946 0.0
C1416 C 0.76389 0.75147 0.12533 0.0
C1417 C 0.78391 0.76766 0.12886 0.0
C1418 C 0.78761 0.78747 0.129 0.0
C1419 C 0.77038 0.79065 0.12629 0.0
C1420 C 0.74977 0.77409 0.12376 0.0
C1421 C 0.74671 0.75438 0.1228 0.0
H1422 H 0.33887 0.15161 0.1571 0.0
H1423 H 0.2883 0.12441 0.21183 0.0
H1424 H 0.28538 0.09113 0.20379 0.0
H1425 H 0.31664 0.11066 0.11133 0.0
H1426 H 0.34152 0.11346 0.10243 0.0
H1427 H 0.34006 0.13502 0.11365 0.0
H1428 H 0.36768 0.14164 0.14941 0.0
H1429 H 0.36911 0.11999 0.1384 0.0
H1430 H 0.36305 0.12188 0.17166 0.0
H1431 H 0.28878 0.06087 0.19006 0.0
H1432 H 0.29532 0.03565 0.16821 0.0
H1433 H 0.34237 0.08283 0.12092 0.0
C1434 C 0.32729 0.13864 0.16748 0.0
C1435 C 0.31388 0.1405 0.18518 0.0
C1436 C 0.29862 0.12319 0.19809 0.0
C1437 C 0.29699 0.10431 0.19379 0.0
C1438 C 0.31057 0.10301 0.17628 0.0
C1439 C 0.32523 0.1197 0.16307 0.0
C1440 C 0.33721 0.11418 0.14424 0.0
C1441 C 0.33364 0.11859 0.11626 0.0
C1442 C 0.36065 0.12507 0.15137 0.0
C1443 C 0.327 0.09177 0.14883 0.0
C1444 C 0.3119 0.08561 0.16765 0.0
C1445 C 0.30052 0.06553 0.17523 0.0
C1446 C 0.30441 0.05134 0.16283 0.0
C1447 C 0.31927 0.05729 0.14282 0.0
C1448 C 0.33082 0.07782 0.13605 0.0
H1449 H 0.90551 0.28757 0.16298 0.0
H1450 H 0.90359 0.23104 0.14702 0.0
H1451 H 0.94021 0.24995 0.13138 0.0
H1452 H 0.93479 0.31442 0.10922 0.0
H1453 H 0.94956 0.33796 0.1267 0.0
H1454 H 0.92365 0.31982 0.13696 0.0
H1455 H 0.93801 0.31966 0.18286 0.0
H1456 H 0.96395 0.33796 0.17282 0.0
H1457 H 0.95918 0.31448 0.18644 0.0
H1458 H 0.97666 0.27606 0.11425 0.0
H1459 H 0.0102 0.30633 0.10242 0.0
H1460 H 0.98737 0.34464 0.13266 0.0
C1461 C 0.91282 0.27914 0.15631 0.0
C1462 C 0.90181 0.25792 0.15595 0.0
C1463 C 0.9119 0.24737 0.14745 0.0
C1464 C 0.9326 0.25797 0.13844 0.0
C1465 C 0.94292 0.27903 0.1386 0.0
C1466 C 0.93339 0.28941 0.1478 0.0
C1467 C 0.94765 0.31193 0.14654 0.0
C1468 C 0.93836 0.32159 0.12879 0.0
C1469 C 0.95249 0.32157 0.17378 0.0
C1470 C 0.96669 0.31274 0.13478 0.0
C1471 C 0.96376 0.29371 0.13005 0.0
C1472 C 0.97916 0.29101 0.1182 0.0
C1473 C 0.99809 0.30823 0.11143 0.0
C1474 C 1.00142 0.32777 0.11689 0.0
C1475 C 0.98542 0.3299 0.12859 0.0
H1476 H 0.40352 0.30773 0.62857 0.0
H1477 H 0.38104 0.30295 0.70677 0.0
H1478 H 0.3592 0.31744 0.69309 0.0
H1479 H 0.40369 0.35497 0.61171 0.0
H1480 H 0.39472 0.34631 0.57908 0.0
H1481 H 0.41054 0.33806 0.59585 0.0
H1482 H 0.3819 0.3009 0.58725 0.0
H1483 H 0.36584 0.30901 0.57087 0.0
H1484 H 0.35558 0.29226 0.59791 0.0
H1485 H 0.33748 0.32935 0.67024 0.0
H1486 H 0.31863 0.33975 0.64014 0.0
H1487 H 0.3547 0.33617 0.57637 0.0
C1488 C 0.39454 0.31043 0.64289 0.0
C1489 C 0.39407 0.30453 0.66876 0.0
C1490 C 0.38161 0.30756 0.6869 0.0
C1491 C 0.36918 0.31573 0.67931 0.0
C1492 C 0.36937 0.32074 0.65345 0.0
C1493 C 0.38186 0.3184 0.63552 0.0
C1494 C 0.37803 0.32366 0.60861 0.0
C1495 C 0.39793 0.34184 0.59821 0.0
C1496 C 0.36985 0.30537 0.59008 0.0
C1497 C 0.36126 0.32902 0.61417 0.0
C1498 C 0.35656 0.32732 0.64016 0.0
C1499 C 0.34116 0.33093 0.64987 0.0
C1500 C 0.33045 0.33672 0.63258 0.0
C1501 C 0.33516 0.33879 0.60587 0.0
C1502 C 0.35072 0.33476 0.59665 0.0
H1503 H 0.82797 0.16181 0.63157 0.0
H1504 H 0.8394 0.14809 0.7092 0.0
H1505 H 0.81551 0.11181 0.70027 0.0
H1506 H 0.77448 0.12696 0.62909 0.0
H1507 H 0.77379 0.12022 0.59546 0.0
H1508 H 0.79339 0.14477 0.60706 0.0
H1509 H 0.82262 0.13868 0.58957 0.0
H1510 H 0.80308 0.11412 0.57773 0.0
H1511 H 0.82354 0.1166 0.59933 0.0
H1512 H 0.78728 0.07686 0.68387 0.0
H1513 H 0.75881 0.04701 0.66103 0.0
H1514 H 0.7667 0.08395 0.59419 0.0
C1515 C 0.82587 0.15119 0.64655 0.0
C1516 C 0.83577 0.15793 0.67107 0.0
C1517 C 0.83223 0.1434 0.69017 0.0
C1518 C 0.8186 0.1227 0.6853 0.0
C1519 C 0.8087 0.11664 0.66112 0.0
C1520 C 0.81238 0.13049 0.64198 0.0
C1521 C 0.79909 0.12031 0.61808 0.0
C1522 C 0.78432 0.12855 0.61209 0.0
C1523 C 0.81291 0.12256 0.5948 0.0
C1524 C 0.78704 0.09862 0.62687 0.0
C1525 C 0.79278 0.09671 0.65171 0.0
C1526 C 0.7829 0.07819 0.66427 0.0
C1527 C 0.7667 0.06128 0.65115 0.0
C1528 C 0.76053 0.06295 0.62569 0.0
C1529 C 0.77111 0.08194 0.61349 0.0
H1530 H 0.9276 0.71401 0.66524 0.0
H1531 H 0.92831 0.75964 0.61561 0.0
H1532 H 0.95988 0.76365 0.59413 0.0
H1533 H 0.9806 0.73904 0.67711 0.0
H1534 H 0.98362 0.71711 0.67764 0.0
H1535 H 0.95889 0.71485 0.68566 0.0
H1536 H 0.94044 0.68729 0.65007 0.0
H1537 H 0.96518 0.68939 0.64201 0.0
H1538 H 0.9497 0.6925 0.6173 0.0
H1539 H 0.9938 0.76596 0.58188 0.0
H1540 H 0.02775 0.76679 0.58074 0.0
H1541 H 0.00545 0.72031 0.63901 0.0
C1542 C 0.93401 0.72427 0.64922 0.0
C1543 C 0.92544 0.73632 0.6418 0.0
C1544 C 0.93464 0.75018 0.62142 0.0
C1545 C 0.95251 0.75251 0.60903 0.0
C1546 C 0.96108 0.74091 0.6173 0.0
C1547 C 0.95211 0.727 0.63688 0.0
C1548 C 0.96579 0.71822 0.64417 0.0
C1549 C 0.97263 0.72258 0.67283 0.0
C1550 C 0.95461 0.6955 0.63801 0.0
C1551 C 0.9841 0.72987 0.62634 0.0
C1552 C 0.98095 0.74261 0.61064 0.0
C1553 C 0.99633 0.75581 0.59378 0.0
C1554 C 0.01557 0.7562 0.59326 0.0
C1555 C 0.01931 0.74364 0.60973 0.0
C1556 C 1.00312 0.73007 0.62604 0.0
H1557 H 0.91295 0.71541 0.18215 0.0
H1558 H 0.87758 0.68534 0.25021 0.0
H1559 H 0.90583 0.67912 0.2646 0.0
H1560 H 0.93004 0.68154 0.16943 0.0
H1561 H 0.95577 0.6997 0.15847 0.0
H1562 H 0.93457 0.70481 0.15534 0.0
H1563 H 0.9557 0.73823 0.18125 0.0
H1564 H 0.97723 0.7335 0.18399 0.0
H1565 H 0.96634 0.738 0.21268 0.0
H1566 H 0.93628 0.67293 0.2693 0.0
H1567 H 0.96776 0.66944 0.26526 0.0
H1568 H 0.98276 0.70263 0.19349 0.0
C1569 C 0.91165 0.70835 0.20063 0.0
C1570 C 0.89337 0.70134 0.21548 0.0
C1571 C 0.89169 0.69121 0.2389 0.0
C1572 C 0.9076 0.68749 0.24714 0.0
C1573 C 0.9251 0.69386 0.23163 0.0
C1574 C 0.92735 0.70428 0.209 0.0
C1575 C 0.94692 0.70807 0.19492 0.0
C1576 C 0.94149 0.69792 0.16795 0.0
C1577 C 0.96247 0.7308 0.19311 0.0
C1578 C 0.95509 0.69793 0.21293 0.0
C1579 C 0.94235 0.68989 0.23405 0.0
C1580 C 0.94649 0.67935 0.25295 0.0
C1581 C 0.96434 0.67732 0.25042 0.0
C1582 C 0.97782 0.68571 0.22911 0.0
C1583 C 0.97289 0.69602 0.21011 0.0
H1584 H 0.33539 0.28074 0.27511 0.0
H1585 H 0.36311 0.29227 0.19906 0.0
H1586 H 0.37538 0.32864 0.20486 0.0
H1587 H 0.31774 0.317 0.27278 0.0
H1588 H 0.32376 0.32396 0.30646 0.0
H1589 H 0.3168 0.29894 0.29566 0.0
H1590 H 0.3514 0.30364 0.31542 0.0
H1591 H 0.35851 0.32871 0.32616 0.0
H1592 H 0.37598 0.32483 0.30587 0.0
H1593 H 0.38469 0.36419 0.21962 0.0
H1594 H 0.39059 0.39532 0.24232 0.0
H1595 H 0.35707 0.35958 0.30857 0.0
C1596 C 0.34377 0.29085 0.25952 0.0
C1597 C 0.34822 0.28368 0.2366 0.0
C1598 C 0.35966 0.29749 0.21687 0.0
C1599 C 0.36661 0.31814 0.21995 0.0
C1600 C 0.36207 0.32474 0.24293 0.0
C1601 C 0.35093 0.31145 0.26236 0.0
C1602 C 0.34854 0.32227 0.28549 0.0
C1603 C 0.32533 0.31512 0.29037 0.0
C1604 C 0.35925 0.31971 0.30965 0.0
C1605 C 0.36004 0.34373 0.27609 0.0
C1606 C 0.3677 0.34495 0.25148 0.0
C1607 C 0.37877 0.36339 0.23893 0.0
C1608 C 0.38206 0.38098 0.25194 0.0
C1609 C 0.3744 0.37995 0.27726 0.0
C1610 C 0.36328 0.36101 0.2893 0.0
H1611 H 0.78098 0.18252 0.2492 0.0
H1612 H 0.82209 0.16134 0.22167 0.0
H1613 H 0.79922 0.12825 0.24148 0.0
H1614 H 0.76354 0.15142 0.31056 0.0
H1615 H 0.73741 0.14733 0.30646 0.0
H1616 H 0.75957 0.17057 0.29601 0.0
H1617 H 0.74317 0.16464 0.24998 0.0
H1618 H 0.72108 0.14156 0.26027 0.0
H1619 H 0.73605 0.14139 0.23297 0.0
H1620 H 0.76845 0.09603 0.25539 0.0
H1621 H 0.73256 0.0677 0.26103 0.0
H1622 H 0.71166 0.10987 0.28049 0.0
C1623 C 0.78558 0.17115 0.24805 0.0
C1624 C 0.80332 0.17449 0.23392 0.0
C1625 C 0.80865 0.15916 0.23258 0.0
C1626 C 0.79579 0.14034 0.24388 0.0
C1627 C 0.77789 0.13727 0.25681 0.0
C1628 C 0.77294 0.15238 0.25921 0.0
C1629 C 0.75146 0.14459 0.27065 0.0
C1630 C 0.7531 0.15404 0.29753 0.0
C1631 C 0.73711 0.14825 0.25237 0.0
C1632 C 0.74441 0.12241 0.27262 0.0
C1633 C 0.76008 0.11855 0.2652 0.0
C1634 C 0.75629 0.09891 0.26196 0.0
C1635 C 0.73583 0.0829 0.2652 0.0
C1636 C 0.7194 0.08661 0.2715 0.0
C1637 C 0.72403 0.10656 0.27648 0.0
H1638 H 0.03759 0.50773 0.91602 0.0
H1639 H 0.08888 0.56125 0.88287 0.0
H1640 H 0.08551 0.54192 0.8426 0.0
H1641 H 0.05245 0.47395 0.89215 0.0
H1642 H 0.0261 0.45356 0.88662 0.0
H1643 H 0.03132 0.47223 0.91131 0.0
H1644 H 1.00405 0.47972 0.89013 0.0
H1645 H 0.99877 0.46109 0.86526 0.0
H1646 H 0.0065 0.48659 0.85653 0.0
H1647 H 0.07712 0.51569 0.80639 0.0
H1648 H 0.0668 0.48491 0.77989 0.0
H1649 H 0.02171 0.44896 0.83803 0.0
C1650 C 0.04779 0.51554 0.90007 0.0
C1651 C 0.0633 0.5361 0.90242 0.0
C1652 C 0.07685 0.54554 0.88142 0.0
C1653 C 0.07495 0.5347 0.85845 0.0
C1654 C 0.05949 0.51438 0.85684 0.0
C1655 C 0.04624 0.50492 0.87724 0.0
C1656 C 0.03205 0.48265 0.8717 0.0
C1657 C 0.03572 0.46985 0.89162 0.0
C1658 C 0.00898 0.4772 0.87085 0.0
C1659 C 0.03954 0.4809 0.84513 0.0
C1660 C 0.05513 0.49937 0.83661 0.0
C1661 C 0.06482 0.5012 0.81286 0.0
C1662 C 0.05879 0.48365 0.79784 0.0
C1663 C 0.04343 0.46451 0.80681 0.0
C1664 C 0.03345 0.46334 0.83052 0.0
H1665 H 0.58142 0.61731 0.94909 0.0
H1666 H 0.54926 0.55587 0.91989 0.0
H1667 H 0.5716 0.56647 0.88115 0.0
H1668 H 0.58428 0.63965 0.88887 0.0
H1669 H 0.60972 0.66152 0.89435 0.0
H1670 H 0.59324 0.64882 0.92136 0.0
H1671 H 0.62271 0.64428 0.94188 0.0
H1672 H 0.63934 0.65708 0.91496 0.0
H1673 H 0.63408 0.63219 0.92336 0.0
H1674 H 0.59556 0.58397 0.84432 0.0
H1675 H 0.61875 0.60722 0.81117 0.0
H1676 H 0.63482 0.65795 0.86301 0.0
C1677 C 0.57959 0.60611 0.9348 0.0
C1678 C 0.56393 0.58571 0.93753 0.0
C1679 C 0.56136 0.57149 0.91813 0.0
C1680 C 0.57398 0.57739 0.89613 0.0
C1681 C 0.58902 0.59767 0.89365 0.0
C1682 C 0.5919 0.61186 0.91241 0.0
C1683 C 0.60797 0.63291 0.90387 0.0
C1684 C 0.59821 0.64652 0.902 0.0
C1685 C 0.62717 0.64216 0.9221 0.0
C1686 C 0.6134 0.62834 0.87729 0.0
C1687 C 0.60246 0.60788 0.87196 0.0
C1688 C 0.60433 0.60001 0.84836 0.0
C1689 C 0.61756 0.61337 0.8296 0.0
C1690 C 0.6287 0.63446 0.83437 0.0
C1691 C 0.62666 0.64193 0.85872 0.0
H1692 H 0.50053 0.06109 0.94243 0.0
H1693 H 0.54229 0.12328 0.92223 0.0
H1694 H 0.52694 0.11614 0.87787 0.0
H1695 H 0.4972 0.03742 0.87731 0.0
H1696 H 0.46975 0.01971 0.88133 0.0
H1697 H 0.4871 0.02865 0.90914 0.0
H1698 H 0.46355 0.04061 0.93095 0.0
H1699 H 0.44612 0.03148 0.9035 0.0
H1700 H 0.45742 0.05744 0.9138 0.0
H1701 H 0.50396 0.1031 0.83791 0.0
H1702 H 0.47254 0.08734 0.80934 0.0
H1703 H 0.44518 0.03432 0.85704 0.0
C1704 C 0.50697 0.07302 0.92837 0.0
C1705 C 0.52282 0.09263 0.93546 0.0
C1706 C 0.53022 0.10813 0.91698 0.0
C1707 C 0.52175 0.10412 0.89173 0.0
C1708 C 0.50591 0.08456 0.88542 0.0
C1709 C 0.4985 0.06932 0.90339 0.0
C1710 C 0.47922 0.05055 0.89355 0.0
C1711 C 0.48359 0.03305 0.89013 0.0
C1712 C 0.46049 0.04471 0.9115 0.0
C1713 C 0.47621 0.05786 0.8677 0.0
C1714 C 0.49218 0.07725 0.86284 0.0
C1715 C 0.49165 0.08778 0.84122 0.0
C1716 C 0.47386 0.07868 0.82496 0.0
C1717 C 0.45684 0.05952 0.83087 0.0
C1718 C 0.45839 0.04873 0.85182 0.0
H1719 H 0.47175 0.0094 0.62742 0.0
H1720 H 0.45783 0.03814 0.56473 0.0
H1721 H 0.43503 0.04447 0.59347 0.0
H1722 H 0.41984 0.98614 0.65825 0.0
H1723 H 0.4309 0.99098 0.6905 0.0
H1724 H 0.4443 0.98684 0.66423 0.0
H1725 H 0.4776 0.02099 0.67492 0.0
H1726 H 0.46429 0.02528 0.70109 0.0
H1727 H 0.47595 0.04369 0.67597 0.0
H1728 H 0.41549 0.04941 0.62963 0.0
H1729 H 0.40128 0.0535 0.67083 0.0
H1730 H 0.42862 0.02236 0.71075 0.0
C1731 C 0.46345 0.01656 0.61968 0.0
C1732 C 0.46636 0.02319 0.59383 0.0
C1733 C 0.45578 0.03303 0.58449 0.0
C1734 C 0.44275 0.03659 0.60064 0.0
C1735 C 0.44052 0.03025 0.62619 0.0
C1736 C 0.45056 0.02044 0.6357 0.0
C1737 C 0.4467 0.01652 0.66441 0.0
C1738 C 0.43472 0.99377 0.66965 0.0
C1739 C 0.46736 0.02727 0.68001 0.0
C1740 C 0.43321 0.02592 0.66961 0.0
C1741 C 0.42963 0.03353 0.64723 0.0
C1742 C 0.41807 0.04338 0.64725 0.0
C1743 C 0.41006 0.04564 0.67079 0.0
C1744 C 0.41379 0.03826 0.69409 0.0
C1745 C 0.42541 0.02813 0.69331 0.0
H1746 H 0.03538 0.5075 0.5814 0.0
H1747 H 0.09803 0.52175 0.55977 0.0
H1748 H 0.09884 0.50138 0.59591 0.0
H1749 H 0.04426 0.51032 0.65019 0.0
H1750 H 0.01843 0.4898 0.65696 0.0
H1751 H 0.02261 0.5051 0.62892 0.0
H1752 H 0.00648 0.47311 0.59962 0.0
H1753 H 1.0023 0.45771 0.62756 0.0
H1754 H 0.01714 0.45648 0.60078 0.0
H1755 H 0.09289 0.47933 0.63523 0.0
H1756 H 0.08087 0.45831 0.67437 0.0
H1757 H 0.02256 0.4592 0.67079 0.0
C1758 C 0.04939 0.50655 0.58421 0.0
C1759 C 0.06664 0.51638 0.56736 0.0
C1760 C 0.08446 0.51429 0.57194 0.0
C1761 C 0.08513 0.50277 0.5926 0.0
C1762 C 0.06788 0.49334 0.60874 0.0
C1763 C 0.05036 0.49515 0.6048 0.0
C1764 C 0.03397 0.4837 0.62509 0.0
C1765 C 0.02957 0.49809 0.64125 0.0
C1766 C 0.01378 0.46675 0.61251 0.0
C1767 C 0.04503 0.47523 0.64115 0.0
C1768 C 0.06454 0.48088 0.63137 0.0
C1769 C 0.07763 0.47485 0.64302 0.0
C1770 C 0.07065 0.46286 0.66527 0.0
C1771 C 0.05076 0.45703 0.67581 0.0
C1772 C 0.03785 0.46333 0.66336 0.0
H1773 H 0.55376 0.61408 0.58623 0.0
H1774 H 0.52956 0.55106 0.60378 0.0
H1775 H 0.55227 0.56116 0.64319 0.0
H1776 H 0.60643 0.63047 0.6046 0.0
H1777 H 0.6111 0.65445 0.61703 0.0
H1778 H 0.59215 0.64185 0.59144 0.0
H1779 H 0.5638 0.64337 0.61917 0.0
H1780 H 0.58263 0.65583 0.64496 0.0
H1781 H 0.55855 0.63285 0.65114 0.0
H1782 H 0.57802 0.57918 0.68166 0.0
H1783 H 0.60649 0.60281 0.71166 0.0
H1784 H 0.61386 0.65315 0.66613 0.0
C1785 C 0.55306 0.60234 0.59843 0.0
C1786 C 0.53974 0.58179 0.59216 0.0
C1787 C 0.53965 0.56692 0.60833 0.0
C1788 C 0.5524 0.57252 0.63078 0.0
C1789 C 0.56528 0.59303 0.6365 0.0
C1790 C 0.56581 0.60764 0.62048 0.0
C1791 C 0.58167 0.62861 0.62972 0.0
C1792 C 0.59885 0.63947 0.60951 0.0
C1793 C 0.57102 0.64088 0.63666 0.0
C1794 C 0.59007 0.62367 0.65355 0.0
C1795 C 0.58034 0.60313 0.65752 0.0
C1796 C 0.58574 0.59527 0.67862 0.0
C1797 C 0.6018 0.60876 0.69564 0.0
C1798 C 0.61239 0.62975 0.6911 0.0
C1799 C 0.60614 0.63716 0.67 0.0
H1800 H 0.05203 0.61316 0.06226 0.0
H1801 H 0.07205 0.57907 0.10905 0.0
H1802 H 0.06701 0.59428 0.14874 0.0
H1803 H 0.07807 0.65858 0.101 0.0
H1804 H 0.05777 0.6649 0.09678 0.0
H1805 H 0.06191 0.65055 0.07214 0.0
H1806 H 0.02309 0.6224 0.07503 0.0
H1807 H 0.01884 0.63667 0.09971 0.0
H1808 H 0.0127 0.61118 0.10586 0.0
H1809 H 0.05915 0.61282 0.18357 0.0
H1810 H 0.05195 0.63544 0.2106 0.0
H1811 H 0.03915 0.65914 0.14121 0.0
C1812 C 0.0552 0.60886 0.0809 0.0
C1813 C 0.06241 0.59493 0.0826 0.0
C1814 C 0.06668 0.58983 0.10731 0.0
C1815 C 0.06374 0.5983 0.12996 0.0
C1816 C 0.05672 0.61207 0.12766 0.0
C1817 C 0.05271 0.61749 0.10375 0.0
C1818 C 0.04626 0.63335 0.10666 0.0
C1819 C 0.06194 0.65301 0.09336 0.0
C1820 C 0.02389 0.62542 0.09619 0.0
C1821 C 0.0473 0.636 0.13588 0.0
C1822 C 0.05308 0.62338 0.14766 0.0
C1823 C 0.05471 0.62286 0.17454 0.0
C1824 C 0.05054 0.63572 0.18975 0.0
C1825 C 0.04513 0.64917 0.17808 0.0
C1826 C 0.04344 0.64918 0.15075 0.0
H1827 H 0.51217 0.52777 0.15231 0.0
H1828 H 0.46775 0.53683 0.10735 0.0
H1829 H 0.44045 0.51756 0.13956 0.0
H1830 H 0.47629 0.47735 0.17212 0.0
H1831 H 0.48791 0.48087 0.2039 0.0
H1832 H 0.5037 0.49522 0.17719 0.0
H1833 H 0.5147 0.52839 0.20265 0.0
H1834 H 0.49893 0.51415 0.22945 0.0
H1835 H 0.49481 0.53323 0.21497 0.0
H1836 H 0.41803 0.49759 0.17793 0.0
H1837 H 0.40255 0.47805 0.21762 0.0
H1838 H 0.462 0.48237 0.23694 0.0
C1839 C 0.49679 0.52591 0.14922 0.0
C1840 C 0.49224 0.534 0.12719 0.0
C1841 C 0.47167 0.53071 0.12386 0.0
C1842 C 0.45606 0.51986 0.14217 0.0
C1843 C 0.46119 0.51226 0.16374 0.0
C1844 C 0.48107 0.5151 0.16723 0.0
C1845 C 0.48266 0.50535 0.19189 0.0
C1846 C 0.48795 0.48871 0.18591 0.0
C1847 C 0.49872 0.52123 0.21086 0.0
C1848 C 0.46057 0.49658 0.20185 0.0
C1849 C 0.44839 0.50074 0.18543 0.0
C1850 C 0.42746 0.49424 0.19085 0.0
C1851 C 0.4188 0.48316 0.21349 0.0
C1852 C 0.43098 0.47859 0.23049 0.0
C1853 C 0.45217 0.48551 0.22442 0.0
H1854 H 0.57267 0.0968 0.14038 0.0
H1855 H 0.61742 0.11546 0.07834 0.0
H1856 H 0.64198 0.11127 0.10682 0.0
H1857 H 0.61208 0.11853 0.19581 0.0
H1858 H 0.59621 0.09721 0.21588 0.0
H1859 H 0.58397 0.10553 0.19253 0.0
H1860 H 0.56444 0.06961 0.17229 0.0
H1861 H 0.57679 0.06124 0.19525 0.0
H1862 H 0.57928 0.05822 0.16107 0.0
H1863 H 0.65873 0.09995 0.13848 0.0
H1864 H 0.66788 0.08338 0.17251 0.0
H1865 H 0.61257 0.0718 0.21515 0.0
C1866 C 0.58802 0.10081 0.13328 0.0
C1867 C 0.59342 0.10674 0.10738 0.0
C1868 C 0.61323 0.11108 0.09824 0.0
C1869 C 0.62722 0.10879 0.11427 0.0
C1870 C 0.62115 0.10217 0.13942 0.0
C1871 C 0.60212 0.09842 0.14905 0.0
C1872 C 0.59849 0.08924 0.17575 0.0
C1873 C 0.59765 0.10348 0.19621 0.0
C1874 C 0.57858 0.06834 0.17608 0.0
C1875 C 0.61804 0.08766 0.1791 0.0
C1876 C 0.63096 0.09546 0.158 0.0
C1877 C 0.64899 0.09417 0.15536 0.0
C1878 C 0.65395 0.08457 0.1747 0.0
C1879 C 0.64095 0.07636 0.19647 0.0
C1880 C 0.62294 0.07823 0.1989 0.0
H1881 H 0.5662 0.0233 0.43389 0.0
H1882 H 0.54622 0.06773 0.43174 0.0
H1883 H 0.56607 0.08155 0.39154 0.0
H1884 H 0.61825 0.05583 0.41186 0.0
H1885 H 0.61941 0.03656 0.39291 0.0
H1886 H 0.60312 0.02977 0.42104 0.0
H1887 H 0.57087 0.00508 0.39318 0.0
H1888 H 0.58711 0.01168 0.36502 0.0
H1889 H 0.5641 0.0142 0.36477 0.0
H1890 H 0.58804 0.09039 0.35134 0.0
H1891 H 0.61054 0.09363 0.31436 0.0
H1892 H 0.61689 0.04397 0.34359 0.0
C1893 C 0.56577 0.03575 0.42477 0.0
C1894 C 0.5546 0.04441 0.43589 0.0
C1895 C 0.55479 0.06097 0.42363 0.0
C1896 C 0.56596 0.06887 0.40077 0.0
C1897 C 0.577 0.06013 0.39047 0.0
C1898 C 0.57701 0.04395 0.40208 0.0
C1899 C 0.59051 0.03759 0.38738 0.0
C1900 C 0.60891 0.04009 0.40431 0.0
C1901 C 0.57736 0.01585 0.37697 0.0
C1902 C 0.59801 0.05267 0.36564 0.0
C1903 C 0.59001 0.06551 0.36771 0.0
C1904 C 0.59445 0.08045 0.34957 0.0
C1905 C 0.60727 0.0822 0.32865 0.0
C1906 C 0.6156 0.06916 0.32611 0.0
C1907 C 0.61097 0.05433 0.34506 0.0
H1908 H 0.04813 0.58577 0.38522 0.0
H1909 H 0.02134 0.60033 0.45083 0.0
H1910 H 0.01387 0.62187 0.42325 0.0
H1911 H 0.07207 0.63467 0.35612 0.0
H1912 H 0.06616 0.62508 0.32334 0.0
H1913 H 0.06962 0.61062 0.34818 0.0
H1914 H 0.03305 0.5802 0.33713 0.0
H1915 H 0.02946 0.59459 0.31226 0.0
H1916 H 0.01047 0.58343 0.33753 0.0
H1917 H 0.00958 0.64244 0.3891 0.0
H1918 H 0.00869 0.66053 0.35039 0.0
H1919 H 0.03694 0.63234 0.30565 0.0
C1920 C 0.04058 0.59335 0.39384 0.0
C1921 C 0.03558 0.59127 0.42057 0.0
C1922 C 0.02581 0.60174 0.43077 0.0
C1923 C 0.0213 0.61399 0.41513 0.0
C1924 C 0.02646 0.61571 0.38907 0.0
C1925 C 0.03584 0.60566 0.3784 0.0
C1926 C 0.03977 0.61026 0.34972 0.0
C1927 C 0.0633 0.62078 0.34401 0.0
C1928 C 0.02745 0.59097 0.33319 0.0
C1929 C 0.0312 0.6245 0.34605 0.0
C1930 C 0.02363 0.6274 0.36908 0.0
C1931 C 0.01538 0.64021 0.37092 0.0
C1932 C 0.01496 0.65046 0.34875 0.0
C1933 C 0.02264 0.64787 0.32482 0.0
C1934 C 0.03074 0.63453 0.32352 0.0
H1935 H 0.47015 0.50091 0.48062 0.0
H1936 H 0.52781 0.53734 0.43917 0.0
H1937 H 0.51017 0.51997 0.39836 0.0
H1938 H 0.45208 0.45419 0.44169 0.0
H1939 H 0.4251 0.44795 0.44345 0.0
H1940 H 0.44303 0.46181 0.46957 0.0
H1941 H 0.43354 0.48994 0.4652 0.0
H1942 H 0.41581 0.47633 0.43888 0.0
H1943 H 0.43652 0.50193 0.43444 0.0
H1944 H 0.4847 0.50156 0.36107 0.0
H1945 H 0.45462 0.48061 0.3316 0.0
H1946 H 0.41452 0.45596 0.39815 0.0
C1947 C 0.47925 0.50488 0.46311 0.0
C1948 C 0.50038 0.52047 0.46316 0.0
C1949 C 0.51165 0.52533 0.43971 0.0
C1950 C 0.50173 0.51563 0.41636 0.0
C1951 C 0.48063 0.50091 0.41684 0.0
C1952 C 0.46965 0.49528 0.43972 0.0
C1953 C 0.44694 0.47964 0.435 0.0
C1954 C 0.44148 0.45971 0.4482 0.0
C1955 C 0.43236 0.48744 0.4439 0.0
C1956 C 0.44674 0.47763 0.40584 0.0
C1957 C 0.46624 0.49004 0.39561 0.0
C1958 C 0.46943 0.4915 0.36891 0.0
C1959 C 0.45228 0.47969 0.35232 0.0
C1960 C 0.43233 0.46652 0.36258 0.0
C1961 C 0.42966 0.46562 0.38969 0.0
H1962 H 0.70639 0.85187 0.30819 0.0
H1963 H 0.68411 0.88988 0.27603 0.0
H1964 H 0.68336 0.87599 0.23223 0.0
H1965 H 0.73839 0.85297 0.25393 0.0
H1966 H 0.73082 0.82679 0.25719 0.0
H1967 H 0.7316 0.84132 0.2852 0.0
H1968 H 0.69296 0.81513 0.29464 0.0
H1969 H 0.69203 0.80057 0.26663 0.0
H1970 H 0.67328 0.80897 0.26986 0.0
H1971 H 0.68468 0.85688 0.19122 0.0
H1972 H 0.68529 0.83306 0.15874 0.0
H1973 H 0.70402 0.80614 0.2191 0.0
C1974 C 0.70183 0.85766 0.29187 0.0
C1975 C 0.69575 0.87234 0.29554 0.0
C1976 C 0.68912 0.87887 0.2737 0.0
C1977 C 0.68864 0.87104 0.24872 0.0
C1978 C 0.6945 0.85638 0.24583 0.0
C1979 C 0.70081 0.84967 0.26696 0.0
C1980 C 0.70475 0.83272 0.25925 0.0
C1981 C 0.72776 0.83882 0.26418 0.0
C1982 C 0.68986 0.81319 0.27343 0.0
C1983 C 0.69968 0.83086 0.2305 0.0
C1984 C 0.69409 0.84479 0.22292 0.0
C1985 C 0.68898 0.8459 0.19707 0.0
C1986 C 0.68941 0.83234 0.17869 0.0
C1987 C 0.69453 0.81758 0.18627 0.0
C1988 C 0.69983 0.81707 0.21258 0.0
H1989 H 0.21291 0.93244 0.28191 0.0
H1990 H 0.25365 0.91381 0.31807 0.0
H1991 H 0.27755 0.92722 0.28055 0.0
H1992 H 0.21872 0.9205 0.21638 0.0
H1993 H 0.21786 0.94191 0.20367 0.0
H1994 H 0.20424 0.93032 0.23295 0.0
H1995 H 0.22431 0.96479 0.25708 0.0
H1996 H 0.23802 0.97648 0.22792 0.0
H1997 H 0.25252 0.97848 0.25708 0.0
H1998 H 0.29753 0.94431 0.23831 0.0
H1999 H 0.31075 0.96232 0.19693 0.0
H2000 H 0.25575 0.96877 0.19044 0.0
C2001 C 0.2268 0.93103 0.28211 0.0
C2002 C 0.23141 0.92208 0.30304 0.0
C2003 C 0.24977 0.92058 0.30224 0.0
C2004 C 0.26341 0.92818 0.28102 0.0
C2005 C 0.25837 0.93711 0.2608 0.0
C2006 C 0.24038 0.93842 0.26131 0.0
C2007 C 0.23828 0.94883 0.23775 0.0
C2008 C 0.21861 0.93454 0.22174 0.0
C2009 C 0.23829 0.9683 0.24543 0.0
C2010 C 0.25799 0.95339 0.22371 0.0
C2011 C 0.26948 0.94657 0.23711 0.0
C2012 C 0.28853 0.94959 0.22772 0.0
C2013 C 0.29593 0.95984 0.20419 0.0
C2014 C 0.28429 0.96695 0.19034 0.0
C2015 C 0.26506 0.96351 0.20037 0.0
H2016 H 0.13438 0.34324 0.23095 0.0
H2017 H 0.16605 0.40272 0.26674 0.0
H2018 H 0.15811 0.41669 0.22835 0.0
H2019 H 0.14907 0.36025 0.16239 0.0
H2020 H 0.12385 0.34127 0.14998 0.0
H2021 H 0.13482 0.33639 0.17843 0.0
H2022 H 0.10148 0.32817 0.20405 0.0
H2023 H 0.09041 0.33287 0.17572 0.0
H2024 H 0.0929 0.34645 0.20542 0.0
H2025 H 0.14267 0.42331 0.18988 0.0
H2026 H 0.11939 0.42186 0.15437 0.0
H2027 H 0.09844 0.35856 0.14184 0.0
C2028 C 0.14009 0.35927 0.23032 0.0
C2029 C 0.15079 0.3719 0.25178 0.0
C2030 C 0.15761 0.39275 0.25062 0.0
C2031 C 0.15341 0.40086 0.22877 0.0
C2032 C 0.14248 0.38796 0.20811 0.0
C2033 C 0.13592 0.36761 0.20862 0.0
C2034 C 0.12247 0.35672 0.18506 0.0
C2035 C 0.1332 0.34815 0.16795 0.0
C2036 C 0.10052 0.34008 0.19305 0.0
C2037 C 0.12173 0.37397 0.17188 0.0
C2038 C 0.13373 0.39193 0.18531 0.0
C2039 C 0.13367 0.4095 0.17878 0.0
C2040 C 0.12045 0.40856 0.1586 0.0
C2041 C 0.10761 0.39024 0.1451 0.0
C2042 C 0.10876 0.37291 0.15125 0.0
H2043 H 0.14576 0.34765 0.94263 0.0
H2044 H 0.09641 0.2943 0.90395 0.0
H2045 H 0.07058 0.29454 0.93379 0.0
H2046 H 0.12598 0.33417 1.00715 0.0
H2047 H 0.13353 0.35961 0.0168 0.0
H2048 H 0.14815 0.35518 0.99244 0.0
H2049 H 0.14206 0.37776 0.96064 0.0
H2050 H 0.12742 0.38227 0.9849 0.0
H2051 H 0.11573 0.37221 0.9536 0.0
H2052 H 0.04995 0.30099 0.9674 0.0
H2053 H 0.03622 0.31261 1.00292 0.0
H2054 H 0.09906 0.36171 0.0199 0.0
C2055 C 0.12952 0.33608 0.94031 0.0
C2056 C 0.12317 0.32092 0.92089 0.0
C2057 C 0.10175 0.3059 0.91882 0.0
C2058 C 0.08692 0.30599 0.9356 0.0
C2059 C 0.09372 0.32116 0.95446 0.0
C2060 C 0.11452 0.33589 0.95697 0.0
C2061 C 0.11776 0.35042 0.97897 0.0
C2062 C 0.13221 0.3498 1.00009 0.0
C2063 C 0.12624 0.37194 0.96892 0.0
C2064 C 0.09551 0.3416 0.98841 0.0
C2065 C 0.08188 0.32475 0.97397 0.0
C2066 C 0.06049 0.31413 0.97888 0.0
C2067 C 0.05284 0.32088 0.99911 0.0
C2068 C 0.06652 0.33806 0.0143 0.0
C2069 C 0.08816 0.34849 1.00876 0.0
H2070 H 0.68079 0.82404 0.90923 0.0
H2071 H 0.70974 0.88732 0.93078 0.0
H2072 H 0.71228 0.87869 0.9763 0.0
H2073 H 0.65074 0.80371 0.96804 0.0
H2074 H 0.65486 0.78242 0.96823 0.0
H2075 H 0.65423 0.79367 0.93802 0.0
H2076 H 0.69075 0.79881 0.92697 0.0
H2077 H 0.69158 0.78774 0.95721 0.0
H2078 H 0.71233 0.81262 0.94927 0.0
H2079 H 0.71312 0.86264 0.01996 0.0
H2080 H 0.71125 0.84107 0.05652 0.0
H2081 H 0.6821 0.78863 1.00548 0.0
C2082 C 0.68738 0.83614 0.9235 0.0
C2083 C 0.69491 0.85642 0.91622 0.0
C2084 C 0.70365 0.87167 0.93572 0.0
C2085 C 0.70523 0.86689 0.96168 0.0
C2086 C 0.69801 0.84677 0.96801 0.0
C2087 C 0.68913 0.83165 0.94939 0.0
C2088 C 0.6831 0.81128 0.96077 0.0
C2089 C 0.65932 0.79692 0.95864 0.0
C2090 C 0.69516 0.80208 0.94778 0.0
C2091 C 0.69008 0.81719 0.98872 0.0
C2092 C 0.69861 0.83771 0.99265 0.0
C2093 C 0.70637 0.84656 0.01698 0.0
C2094 C 0.70527 0.83416 0.0377 0.0
C2095 C 0.69653 0.81306 0.0341 0.0
C2096 C 0.68888 0.80465 1.00912 0.0
H2097 H 0.21397 0.94594 0.95255 0.0
H2098 H 0.20173 0.88591 0.97044 0.0
H2099 H 0.22135 0.89874 0.01186 0.0
H2100 H 0.26572 0.97094 0.97454 0.0
H2101 H 0.26531 0.99276 0.98712 0.0
H2102 H 0.24802 0.97829 0.96087 0.0
H2103 H 0.21613 0.97327 0.98742 0.0
H2104 H 0.23336 0.98776 0.01382 0.0
H2105 H 0.21208 0.9626 0.01925 0.0
H2106 H 0.24429 0.91883 0.05016 0.0
H2107 H 0.27067 0.94468 0.08 0.0
H2108 H 0.26863 0.99151 0.03563 0.0
C2109 C 0.21497 0.93543 0.96553 0.0
C2110 C 0.20616 0.91492 0.95854 0.0
C2111 C 0.20837 0.90169 0.97556 0.0
C2112 C 0.21935 0.90882 0.99915 0.0
C2113 C 0.22811 0.92925 1.00533 0.0
C2114 C 0.2261 0.94236 0.98891 0.0
C2115 C 0.23862 0.9639 0.99871 0.0
C2116 C 0.25541 0.97725 0.97915 0.0
C2117 C 0.22418 0.97238 1.00519 0.0
C2118 C 0.24834 0.96094 0.02293 0.0
C2119 C 0.24183 0.94084 0.02675 0.0
C2120 C 0.24938 0.93461 0.04745 0.0
C2121 C 0.2643 0.94937 0.06435 0.0
C2122 C 0.27173 0.97009 0.06011 0.0
C2123 C 0.26327 0.97579 0.0394 0.0
H2124 H 0.69073 0.93528 0.41756 0.0
H2125 H 0.70405 0.89205 0.45415 0.0
H2126 H 0.70879 0.90929 0.49613 0.0
H2127 H 0.72906 0.97885 0.45587 0.0
H2128 H 0.71272 0.99013 0.45754 0.0
H2129 H 0.71056 0.97447 0.43015 0.0
H2130 H 0.6709 0.95193 0.43839 0.0
H2131 H 0.67298 0.96742 0.46592 0.0
H2132 H 0.66226 0.94068 0.46965 0.0
H2133 H 0.70992 0.93013 0.53543 0.0
H2134 H 0.71097 0.95506 0.56729 0.0
H2135 H 0.69902 0.98583 0.50515 0.0
C2136 C 0.69486 0.92956 0.43433 0.0
C2137 C 0.69699 0.9122 0.43229 0.0
C2138 C 0.70238 0.9053 0.45491 0.0
C2139 C 0.70503 0.91497 0.47902 0.0
C2140 C 0.70252 0.93179 0.48046 0.0
C2141 C 0.69787 0.93924 0.45864 0.0
C2142 C 0.69637 0.95779 0.46551 0.0
C2143 C 0.71318 0.97641 0.45143 0.0
C2144 C 0.67431 0.95423 0.45951 0.0
C2145 C 0.70069 0.95945 0.49451 0.0
C2146 C 0.70399 0.9442 0.50286 0.0
C2147 C 0.70757 0.94228 0.52903 0.0
C2148 C 0.70806 0.95645 0.54706 0.0
C2149 C 0.70529 0.97256 0.53884 0.0
C2150 C 0.70148 0.97388 0.51214 0.0
H2151 H 0.1457 0.86286 0.44492 0.0
H2152 H 0.20386 0.86254 0.43468 0.0
H2153 H 0.19443 0.83858 0.47086 0.0
H2154 H 0.14436 0.86025 0.51443 0.0
H2155 H 0.11636 0.844 0.5153 0.0
H2156 H 0.12803 0.86136 0.48913 0.0
H2157 H 0.10989 0.83179 0.45606 0.0
H2158 H 0.09822 0.81432 0.48212 0.0
H2159 H 0.11391 0.81051 0.45865 0.0
H2160 H 0.17824 0.81443 0.50823 0.0
H2161 H 0.15699 0.79211 0.54327 0.0
H2162 H 0.10901 0.80787 0.52828 0.0
C2163 C 0.1566 0.8579 0.4503 0.0
C2164 C 0.17563 0.86471 0.43696 0.0
C2165 C 0.18926 0.85763 0.44462 0.0
C2166 C 0.184 0.844 0.46513 0.0
C2167 C 0.16503 0.83755 0.47771 0.0
C2168 C 0.15155 0.84428 0.47054 0.0
C2169 C 0.13196 0.83487 0.4868 0.0
C2170 C 0.13008 0.85109 0.50234 0.0
C2171 C 0.11234 0.82211 0.46989 0.0
C2172 C 0.13645 0.82173 0.50438 0.0
C2173 C 0.15563 0.82352 0.49887 0.0
C2174 C 0.16322 0.81293 0.51265 0.0
C2175 C 0.15099 0.80027 0.53257 0.0
C2176 C 0.13126 0.79815 0.53861 0.0
C2177 C 0.12395 0.80905 0.52416 0.0
H2178 H 0.19176 0.352 0.44134 0.0
H2179 H 0.18291 0.29895 0.39958 0.0
H2180 H 0.20367 0.29358 0.4331 0.0
H2181 H 0.2437 0.37043 0.45975 0.0
H2182 H 0.24156 0.37933 0.49134 0.0
H2183 H 0.22427 0.37766 0.46553 0.0
H2184 H 0.19223 0.35496 0.49371 0.0
H2185 H 0.20947 0.35651 0.51964 0.0
H2186 H 0.18973 0.33224 0.50718 0.0
H2187 H 0.22955 0.29704 0.46746 0.0
H2188 H 0.25704 0.30798 0.50148 0.0
H2189 H 0.24697 0.35725 0.52283 0.0
C2190 C 0.19401 0.33913 0.43945 0.0
C2191 C 0.18579 0.32589 0.41789 0.0
C2192 C 0.18892 0.30914 0.4161 0.0
C2193 C 0.2007 0.306 0.43501 0.0
C2194 C 0.20887 0.31953 0.45585 0.0
C2195 C 0.20543 0.33562 0.45837 0.0
C2196 C 0.21674 0.3485 0.48193 0.0
C2197 C 0.2325 0.37026 0.47416 0.0
C2198 C 0.2011 0.34802 0.50179 0.0
C2199 C 0.22772 0.33759 0.49177 0.0
C2200 C 0.22294 0.32088 0.47648 0.0
C2201 C 0.23297 0.30973 0.48001 0.0
C2202 C 0.24852 0.31602 0.49933 0.0
C2203 C 0.25362 0.33308 0.5151 0.0
C2204 C 0.24275 0.3437 0.51164 0.0
H2205 H 0.22746 0.32889 0.75959 0.0
H2206 H 0.19144 0.35951 0.75755 0.0
H2207 H 0.20358 0.37081 0.71318 0.0
H2208 H 0.27151 0.3661 0.7255 0.0
H2209 H 0.27608 0.34818 0.70815 0.0
H2210 H 0.26402 0.34196 0.73942 0.0
H2211 H 0.2324 0.30974 0.71991 0.0
H2212 H 0.24441 0.31582 0.68859 0.0
H2213 H 0.21836 0.31184 0.69253 0.0
H2214 H 0.22006 0.37914 0.66908 0.0
H2215 H 0.23971 0.38395 0.62876 0.0
H2216 H 0.2651 0.348 0.6598 0.0
C2217 C 0.22188 0.33772 0.7497 0.0
C2218 C 0.20846 0.34329 0.7621 0.0
C2219 C 0.20187 0.35522 0.74858 0.0
C2220 C 0.2086 0.36163 0.72332 0.0
C2221 C 0.22198 0.35603 0.71179 0.0
C2222 C 0.22854 0.34434 0.72453 0.0
C2223 C 0.24331 0.34079 0.70801 0.0
C2224 C 0.26501 0.3498 0.72105 0.0
C2225 C 0.23406 0.31821 0.7019 0.0
C2226 C 0.24405 0.35234 0.68401 0.0
C2227 C 0.2316 0.36098 0.68653 0.0
C2228 C 0.22984 0.37242 0.66688 0.0
C2229 C 0.24108 0.37507 0.64404 0.0
C2230 C 0.25398 0.36638 0.64105 0.0
C2231 C 0.25541 0.35488 0.66142 0.0
H2232 H 0.70168 0.94287 0.79643 0.0
H2233 H 0.67824 0.88067 0.77274 0.0
H2234 H 0.67348 0.88907 0.72807 0.0
H2235 H 0.66779 0.95284 0.75386 0.0
H2236 H 0.6881 0.97816 0.74694 0.0
H2237 H 0.6882 0.967 0.77745 0.0
H2238 H 0.72584 0.97414 0.76888 0.0
H2239 H 0.72574 0.98524 0.73835 0.0
H2240 H 0.7311 0.96474 0.73949 0.0
H2241 H 0.67239 0.90429 0.68561 0.0
H2242 H 0.67535 0.925 0.64811 0.0
H2243 H 0.70052 0.97819 0.69793 0.0
C2244 C 0.69513 0.93091 0.78197 0.0
C2245 C 0.69004 0.91095 0.78835 0.0
C2246 C 0.68208 0.89597 0.76855 0.0
C2247 C 0.67934 0.90063 0.74305 0.0
C2248 C 0.68477 0.92044 0.73737 0.0
C2249 C 0.69252 0.93538 0.75624 0.0
C2250 C 0.69808 0.95568 0.74458 0.0
C2251 C 0.68475 0.9639 0.75641 0.0
C2252 C 0.72158 0.97084 0.74803 0.0
C2253 C 0.69232 0.94982 0.71618 0.0
C2254 C 0.68457 0.92937 0.71262 0.0
C2255 C 0.67838 0.92029 0.68823 0.0
C2256 C 0.68016 0.93229 0.66694 0.0
C2257 C 0.68816 0.95337 0.66976 0.0
C2258 C 0.69428 0.96217 0.69493 0.0
H2259 H 0.13928 0.8331 0.78853 0.0
H2260 H 0.17054 0.89035 0.74905 0.0
H2261 H 0.16005 0.87233 0.70691 0.0
H2262 H 0.15389 0.80606 0.74427 0.0
H2263 H 0.12929 0.78286 0.74665 0.0
H2264 H 0.13902 0.80037 0.7736 0.0
H2265 H 0.10459 0.80167 0.77392 0.0
H2266 H 0.09468 0.78404 0.74715 0.0
H2267 H 0.0958 0.80802 0.74471 0.0
H2268 H 0.14616 0.84759 0.66883 0.0
H2269 H 0.12839 0.81852 0.63851 0.0
H2270 H 0.10733 0.7779 0.70365 0.0
C2271 C 0.14406 0.84189 0.77107 0.0
C2272 C 0.1558 0.86317 0.77218 0.0
C2273 C 0.16136 0.87407 0.74877 0.0
C2274 C 0.15562 0.86395 0.72472 0.0
C2275 C 0.14435 0.84293 0.7244 0.0
C2276 C 0.13854 0.83207 0.747 0.0
C2277 C 0.12624 0.80963 0.74155 0.0
C2278 C 0.13781 0.79912 0.75215 0.0
C2279 C 0.10401 0.8003 0.75247 0.0
C2280 C 0.12593 0.80952 0.71231 0.0
C2281 C 0.13651 0.82883 0.70269 0.0
C2282 C 0.13788 0.8324 0.67617 0.0
C2283 C 0.1278 0.81579 0.65908 0.0
C2284 C 0.11649 0.7959 0.66864 0.0
C2285 C 0.11592 0.79286 0.69562 0.0
H2286 H 0.37047 0.18452 0.64863 0.0
H2287 H 0.37682 0.23594 0.60675 0.0
H2288 H 0.37001 0.21703 0.56553 0.0
H2289 H 0.3979 0.17263 0.60623 0.0
H2290 H 0.38232 0.14559 0.60834 0.0
H2291 H 0.38322 0.16122 0.63502 0.0
H2292 H 0.34286 0.14463 0.63366 0.0
H2293 H 0.34175 0.1286 0.60724 0.0
H2294 H 0.32981 0.14403 0.60375 0.0
H2295 H 0.36859 0.19487 0.52847 0.0
H2296 H 0.36968 0.16991 0.49873 0.0
H2297 H 0.3642 0.13273 0.56442 0.0
C2298 C 0.36926 0.19131 0.63089 0.0
C2299 C 0.37349 0.21145 0.63088 0.0
C2300 C 0.37303 0.22033 0.60716 0.0
C2301 C 0.36931 0.20974 0.58363 0.0
C2302 C 0.36612 0.19022 0.58406 0.0
C2303 C 0.36571 0.18093 0.6071 0.0
C2304 C 0.36408 0.16065 0.60197 0.0
C2305 C 0.38301 0.16 0.61358 0.0
C2306 C 0.34339 0.14346 0.61226 0.0
C2307 C 0.36433 0.16034 0.57259 0.0
C2308 C 0.36538 0.17747 0.5626 0.0
C2309 C 0.36732 0.18119 0.53605 0.0
C2310 C 0.36806 0.16699 0.51929 0.0
C2311 C 0.36684 0.14924 0.52909 0.0
C2312 C 0.36483 0.14595 0.55615 0.0
H2313 H 0.89317 0.27807 0.59906 0.0
H2314 H 0.84003 0.23642 0.55151 0.0
H2315 H 0.85862 0.25464 0.51239 0.0
H2316 H 0.90544 0.32232 0.56288 0.0
H2317 H 0.93337 0.33344 0.56675 0.0
H2318 H 0.91617 0.31675 0.59098 0.0
H2319 H 0.93292 0.29424 0.58598 0.0
H2320 H 0.95016 0.31082 0.56167 0.0
H2321 H 0.93362 0.28433 0.55448 0.0
H2322 H 0.88294 0.27715 0.47843 0.0
H2323 H 0.91047 0.30365 0.45201 0.0
H2324 H 0.94778 0.33143 0.52148 0.0
C2325 C 0.88554 0.27272 0.58039 0.0
C2326 C 0.86512 0.2558 0.57834 0.0
C2327 C 0.85553 0.24945 0.55358 0.0
C2328 C 0.86604 0.25962 0.53123 0.0
C2329 C 0.88612 0.27622 0.53392 0.0
C2330 C 0.89575 0.28284 0.55786 0.0
C2331 C 0.91715 0.30151 0.55539 0.0
C2332 C 0.91807 0.31957 0.56985 0.0
C2333 C 0.93449 0.29748 0.56494 0.0
C2334 C 0.91801 0.30436 0.52632 0.0
C2335 C 0.90001 0.28949 0.51432 0.0
C2336 C 0.8971 0.28889 0.4876 0.0
C2337 C 0.91288 0.30402 0.47274 0.0
C2338 C 0.93133 0.31969 0.4846 0.0
C2339 C 0.9339 0.31969 0.51178 0.0
H2340 H 0.836 0.76736 0.60915 0.0
H2341 H 0.8621 0.73044 0.58441 0.0
H2342 H 0.84437 0.72491 0.54188 0.0
H2343 H 0.78725 0.73733 0.58329 0.0
H2344 H 0.78273 0.75741 0.5737 0.0
H2345 H 0.80035 0.76131 0.60013 0.0
H2346 H 0.82995 0.79236 0.57718 0.0
H2347 H 0.81233 0.78858 0.55061 0.0
H2348 H 0.83691 0.78969 0.54463 0.0
H2349 H 0.8202 0.72009 0.504 0.0
H2350 H 0.79083 0.71544 0.47555 0.0
H2351 H 0.78095 0.75546 0.52581 0.0
C2352 C 0.83856 0.7587 0.59448 0.0
C2353 C 0.85046 0.74941 0.60001 0.0
C2354 C 0.85292 0.7376 0.58058 0.0
C2355 C 0.84307 0.73453 0.5563 0.0
C2356 C 0.83092 0.74346 0.55171 0.0
C2357 C 0.82875 0.75539 0.57027 0.0
C2358 C 0.81306 0.76145 0.5618 0.0
C2359 C 0.79477 0.75391 0.58085 0.0
C2360 C 0.82371 0.78439 0.55835 0.0
C2361 C 0.80613 0.75042 0.53607 0.0
C2362 C 0.81685 0.74045 0.53021 0.0
C2363 C 0.81194 0.72811 0.50819 0.0
C2364 C 0.79528 0.72556 0.49212 0.0
C2365 C 0.78364 0.73505 0.49854 0.0
C2366 C 0.7896 0.74802 0.52039 0.0
H2367 H 0.78787 0.66304 0.26953 0.0
H2368 H 0.79519 0.71626 0.23118 0.0
H2369 H 0.78041 0.72432 0.26905 0.0
H2370 H 0.73865 0.65001 0.30255 0.0
H2371 H 0.74605 0.64205 0.33153 0.0
H2372 H 0.75576 0.63959 0.30063 0.0
H2373 H 0.79378 0.66036 0.31832 0.0
H2374 H 0.7842 0.663 0.34919 0.0
H2375 H 0.80275 0.6851 0.33207 0.0
H2376 H 0.76691 0.72777 0.31148 0.0
H2377 H 0.75483 0.72627 0.35606 0.0
H2378 H 0.75609 0.67079 0.36781 0.0
C2379 C 0.78594 0.67614 0.26898 0.0
C2380 C 0.79266 0.68906 0.24745 0.0
C2381 C 0.79031 0.7063 0.24758 0.0
C2382 C 0.78184 0.71093 0.26893 0.0
C2383 C 0.77579 0.69817 0.29007 0.0
C2384 C 0.77762 0.68108 0.2903 0.0
C2385 C 0.7708 0.67048 0.31606 0.0
C2386 C 0.75167 0.64927 0.31247 0.0
C2387 C 0.78897 0.6697 0.32971 0.0
C2388 C 0.76509 0.68444 0.3303 0.0
C2389 C 0.76802 0.70023 0.31483 0.0
C2390 C 0.76441 0.7154 0.32375 0.0
C2391 C 0.75759 0.71442 0.34917 0.0
C2392 C 0.75446 0.6984 0.36552 0.0
C2393 C 0.75823 0.68318 0.35581 0.0
H2394 H 0.33726 0.18821 0.29994 0.0
H2395 H 0.39649 0.20694 0.26253 0.0
H2396 H 0.40778 0.19448 0.30023 0.0
H2397 H 0.35726 0.20112 0.3655 0.0
H2398 H 0.33457 0.17972 0.37873 0.0
H2399 H 0.33216 0.191 0.34944 0.0
H2400 H 0.31609 0.15636 0.3258 0.0
H2401 H 0.31851 0.14498 0.35495 0.0
H2402 H 0.33027 0.14285 0.32554 0.0
H2403 H 0.41134 0.1779 0.34291 0.0
H2404 H 0.40696 0.1601 0.38435 0.0
H2405 H 0.3451 0.15287 0.39189 0.0
C2406 C 0.35272 0.18989 0.29953 0.0
C2407 C 0.36597 0.1986 0.27808 0.0
C2408 C 0.38606 0.20043 0.2787 0.0
C2409 C 0.39255 0.19333 0.30006 0.0
C2410 C 0.37883 0.18454 0.32072 0.0
C2411 C 0.35936 0.18298 0.32049 0.0
C2412 C 0.3471 0.17266 0.34443 0.0
C2413 C 0.34251 0.18698 0.36047 0.0
C2414 C 0.3268 0.15305 0.33724 0.0
C2415 C 0.36251 0.16834 0.35829 0.0
C2416 C 0.38081 0.17531 0.34454 0.0
C2417 C 0.39706 0.17253 0.35374 0.0
C2418 C 0.39445 0.16239 0.37736 0.0
C2419 C 0.3757 0.15504 0.39157 0.0
C2420 C 0.35968 0.15827 0.38172 0.0
H2421 H 0.86886 0.26306 0.27225 0.0
H2422 H 0.85847 0.3055 0.22879 0.0
H2423 H 0.88058 0.3325 0.2602 0.0
H2424 H 0.86865 0.28369 0.33661 0.0
H2425 H 0.88881 0.27926 0.34926 0.0
H2426 H 0.87126 0.26303 0.32412 0.0
H2427 H 0.90297 0.27044 0.29556 0.0
H2428 H 0.92059 0.28671 0.32055 0.0
H2429 H 0.92199 0.2962 0.2884 0.0
H2430 H 0.90637 0.35536 0.29346 0.0
H2431 H 0.93238 0.37245 0.32858 0.0
H2432 H 0.92474 0.31502 0.3524 0.0
C2433 C 0.87116 0.27802 0.26949 0.0
C2434 C 0.86198 0.28224 0.2481 0.0
C2435 C 0.86517 0.30193 0.24519 0.0
C2436 C 0.87776 0.31735 0.26286 0.0
C2437 C 0.88678 0.31275 0.28355 0.0
C2438 C 0.88345 0.29352 0.28717 0.0
C2439 C 0.89528 0.29271 0.31083 0.0
C2440 C 0.88009 0.27885 0.33142 0.0
C2441 C 0.91115 0.28613 0.30338 0.0
C2442 C 0.90618 0.3146 0.3196 0.0
C2443 C 0.90108 0.32587 0.30349 0.0
C2444 C 0.91022 0.34667 0.30647 0.0
C2445 C 0.92502 0.35623 0.32638 0.0
C2446 C 0.93036 0.345 0.34328 0.0
C2447 C 0.92061 0.32388 0.34003 0.0
H2448 H 0.41299 0.2946 0.77027 0.0
H2449 H 0.3656 0.23317 0.78693 0.0
H2450 H 0.35948 0.24473 0.82949 0.0
H2451 H 0.43482 0.30955 0.83337 0.0
H2452 H 0.4388 0.33469 0.831 0.0
H2453 H 0.4391 0.32138 0.80227 0.0
H2454 H 0.40991 0.32627 0.78144 0.0
H2455 H 0.40975 0.33986 0.80993 0.0
H2456 H 0.38586 0.3182 0.79856 0.0
H2457 H 0.36048 0.26393 0.87203 0.0
H2458 H 0.36494 0.28864 0.90647 0.0
H2459 H 0.41056 0.33711 0.85951 0.0
C2460 C 0.40125 0.28352 0.78281 0.0
C2461 C 0.38986 0.26294 0.77538 0.0
C2462 C 0.37445 0.24901 0.7922 0.0
C2463 C 0.37101 0.25546 0.81646 0.0
C2464 C 0.3829 0.27591 0.82338 0.0
C2465 C 0.39744 0.28972 0.80667 0.0
C2466 C 0.40782 0.31092 0.81784 0.0
C2467 C 0.43154 0.31964 0.82132 0.0
C2468 C 0.40304 0.32462 0.80094 0.0
C2469 C 0.39708 0.30705 0.84367 0.0
C2470 C 0.3829 0.28678 0.84681 0.0
C2471 C 0.37146 0.27981 0.86956 0.0
C2472 C 0.37421 0.29394 0.88914 0.0
C2473 C 0.38809 0.31484 0.88575 0.0
C2474 C 0.39978 0.32128 0.86275 0.0
H2475 H 0.79367 0.16445 0.73611 0.0
H2476 H 0.79815 0.21876 0.76903 0.0
H2477 H 0.78195 0.20051 0.80916 0.0
H2478 H 0.74363 0.12938 0.76397 0.0
H2479 H 0.7507 0.11034 0.76951 0.0
H2480 H 0.76219 0.12762 0.74321 0.0
H2481 H 0.79924 0.13821 0.76099 0.0
H2482 H 0.78789 0.12101 0.78738 0.0
H2483 H 0.80606 0.1473 0.79391 0.0
H2484 H 0.76687 0.1766 0.84682 0.0
H2485 H 0.75241 0.14849 0.87782 0.0
H2486 H 0.75707 0.10972 0.81974 0.0
C2487 C 0.79124 0.17251 0.75175 0.0
C2488 C 0.79719 0.19306 0.74936 0.0
C2489 C 0.79351 0.20297 0.77022 0.0
C2490 C 0.78442 0.19276 0.79318 0.0
C2491 C 0.77893 0.17256 0.79497 0.0
C2492 C 0.78204 0.1625 0.77471 0.0
C2493 C 0.77477 0.1408 0.78151 0.0
C2494 C 0.75675 0.12617 0.76348 0.0
C2495 C 0.79308 0.13659 0.78092 0.0
C2496 C 0.76726 0.14026 0.80886 0.0
C2497 C 0.76985 0.15874 0.81634 0.0
C2498 C 0.76461 0.16202 0.84108 0.0
C2499 C 0.75645 0.14598 0.85858 0.0
C2500 C 0.75346 0.12686 0.8512 0.0
C2501 C 0.75893 0.12407 0.82594 0.0
H2502 H 0.92565 0.72711 0.7556 0.0
H2503 H 0.88941 0.7431 0.80643 0.0
H2504 H 0.90239 0.73289 0.84403 0.0
H2505 H 0.91551 0.68265 0.78891 0.0
H2506 H 0.94122 0.68612 0.78371 0.0
H2507 H 0.9301 0.69584 0.76081 0.0
H2508 H 0.96244 0.73158 0.76632 0.0
H2509 H 0.97376 0.72196 0.78908 0.0
H2510 H 0.97012 0.74275 0.79823 0.0
H2511 H 0.91866 0.72002 0.87621 0.0
H2512 H 0.93778 0.70641 0.90038 0.0
H2513 H 0.96191 0.69744 0.82816 0.0
C2514 C 0.92034 0.72847 0.77456 0.0
C2515 C 0.90642 0.73595 0.77783 0.0
C2516 C 0.90024 0.73771 0.80321 0.0
C2517 C 0.90741 0.73178 0.82477 0.0
C2518 C 0.92072 0.72407 0.8207 0.0
C2519 C 0.92718 0.72247 0.79623 0.0
C2520 C 0.94123 0.71335 0.797 0.0
C2521 C 0.93142 0.6933 0.7817 0.0
C2522 C 0.96319 0.7283 0.78708 0.0
C2523 C 0.94163 0.71 0.82576 0.0
C2524 C 0.92976 0.71633 0.83912 0.0
C2525 C 0.928 0.715 0.86595 0.0
C2526 C 0.93888 0.70722 0.87949 0.0
C2527 C 0.95127 0.70077 0.86617 0.0
C2528 C 0.95243 0.70205 0.83892 0.0
H2529 H 0.861 0.67336 0.06186 0.0
H2530 H 0.90777 0.70706 0.12143 0.0
H2531 H 0.93562 0.71188 0.09147 0.0
H2532 H 0.88684 0.6475 0.03591 0.0
H2533 H 0.87923 0.64847 1.00297 0.0
H2534 H 0.86297 0.64777 0.0292 0.0
H2535 H 0.86495 0.6805 0.0126 0.0
H2536 H 0.88133 0.68137 0.98642 0.0
H2537 H 0.89017 0.70267 1.00821 0.0
H2538 H 0.95866 0.71379 0.0544 0.0
H2539 H 0.97474 0.71094 0.01391 0.0
H2540 H 0.91288 0.67506 0.97924 0.0
C2541 C 0.87705 0.68158 0.06874 0.0
C2542 C 0.88208 0.69 0.09402 0.0
C2543 C 0.90341 0.7008 0.10205 0.0
C2544 C 0.9194 0.70354 0.08519 0.0
C2545 C 0.91389 0.6953 0.06032 0.0
C2546 C 0.89322 0.68439 0.05219 0.0
C2547 C 0.8915 0.67698 0.02453 0.0
C2548 C 0.87942 0.65381 0.02308 0.0
C2549 C 0.88139 0.68592 1.00691 0.0
C2550 C 0.91441 0.68545 0.01838 0.0
C2551 C 0.9271 0.69605 0.03922 0.0
C2552 C 0.94886 0.70545 0.03798 0.0
C2553 C 0.95786 0.7038 0.01488 0.0
C2554 C 0.9451 0.69274 0.99342 0.0
C2555 C 0.9231 0.68356 0.99531 0.0
H2556 H 0.32868 0.2367 0.1232 0.0
H2557 H 0.39399 0.26005 0.14368 0.0
H2558 H 0.40431 0.28214 0.10524 0.0
H2559 H 0.33417 0.23649 0.05374 0.0
H2560 H 0.31483 0.24383 0.04774 0.0
H2561 H 0.31306 0.22954 0.07606 0.0
H2562 H 0.31263 0.25707 0.10508 0.0
H2563 H 0.31451 0.2715 0.0769 0.0
H2564 H 0.33355 0.28282 0.10277 0.0
H2565 H 0.40698 0.3028 0.06448 0.0
H2566 H 0.40192 0.3191 0.02611 0.0
H2567 H 0.33463 0.28179 0.03345 0.0
C2568 C 0.34522 0.2463 0.11963 0.0
C2569 C 0.36053 0.24653 0.13659 0.0
C2570 C 0.38195 0.25946 0.131 0.0
C2571 C 0.38793 0.2721 0.10921 0.0
C2572 C 0.37232 0.27163 0.09313 0.0
C2573 C 0.35139 0.25893 0.09814 0.0
C2574 C 0.33749 0.26136 0.07846 0.0
C2575 C 0.3241 0.24163 0.06309 0.0
C2576 C 0.32374 0.26862 0.09159 0.0
C2577 C 0.35378 0.27754 0.0615 0.0
C2578 C 0.37381 0.2833 0.07016 0.0
C2579 C 0.39133 0.29827 0.0576 0.0
C2580 C 0.38829 0.30748 0.03576 0.0
C2581 C 0.36786 0.30179 0.02657 0.0
C2582 C 0.35047 0.28655 0.03978 0.0
H2583 H 0.80179 0.19325 0.06652 0.0
H2584 H 0.79918 0.15409 0.12851 0.0
H2585 H 0.78627 0.12575 0.09764 0.0
H2586 H 0.75409 0.15654 0.03508 0.0
H2587 H 0.76351 0.16473 1.00287 0.0
H2588 H 0.7737 0.18242 0.02958 0.0
H2589 H 0.81135 0.19103 0.01795 0.0
H2590 H 0.80124 0.17323 0.9913 0.0
H2591 H 0.81753 0.17109 0.01576 0.0
H2592 H 0.77311 0.10144 0.06078 0.0
H2593 H 0.75816 0.08193 0.02055 0.0
H2594 H 0.76787 0.13609 0.98206 0.0
C2595 C 0.79846 0.17875 0.07374 0.0
C2596 C 0.80187 0.17616 0.10012 0.0
C2597 C 0.79726 0.15678 0.10845 0.0
C2598 C 0.7898 0.14048 0.09103 0.0
C2599 C 0.78686 0.14364 0.06526 0.0
C2600 C 0.79085 0.16222 0.05661 0.0
C2601 C 0.78549 0.16124 0.02802 0.0
C2602 C 0.76816 0.16654 0.02364 0.0
C2603 C 0.80507 0.17496 0.01234 0.0
C2604 C 0.77768 0.13916 0.02208 0.0
C2605 C 0.77882 0.12939 0.04386 0.0
C2606 C 0.77216 0.1089 0.04357 0.0
C2607 C 0.76368 0.09795 0.02056 0.0
C2608 C 0.76181 0.10744 0.99806 0.0
C2609 C 0.76925 0.12842 0.99881 0.0
loop_
_geom_bond_atom_site_label_1
_geom_bond_atom_site_label_2
_geom_bond_distance
_geom_bond_site_symmetry_2
_ccdc_geom_bond_type
Cu0 N1 1.999 . S
Cu0 O6 1.974 1_554 S
Cu0 N11 1.985 1_554 S
Cu0 O20 1.959 . S
N1 Cu0 1.999 . S
N1 C3 1.263 . S
N1 C5 1.389 . S
N2 C3 1.358 . S
N2 C4 1.400 . S
C3 N1 1.263 . S
C3 N2 1.358 . S
C3 H9 0.930 . S
C4 N2 1.400 . S
C4 C5 1.351 . S
C4 H21 0.930 . S
C5 N1 1.389 . S
C5 C4 1.351 . S
C5 H10 0.930 . S
O6 Cu0 1.974 1_556 S
O6 C16 1.282 . S
C7 O8 1.261 . S
C7 O20 1.251 . S
O8 C7 1.261 . S
H9 C3 0.930 . S
H10 C5 0.930 . S
N11 Cu0 1.985 1_556 S
N11 C13 1.335 . S
N11 C14 1.390 . S
N12 C13 1.345 . S
N12 C15 1.336 . S
C13 N11 1.335 . S
C13 N12 1.345 . S
C13 H18 0.930 . S
C14 N11 1.390 . S
C14 C15 1.346 . S
C14 H19 0.930 . S
C15 N12 1.336 . S
C15 C14 1.346 . S
C15 H22 0.929 . S
C16 O6 1.282 . S
C16 O17 1.216 1_455 S
O17 C16 1.216 1_655 S
H18 C13 0.930 . S
H19 C14 0.930 . S
O20 Cu0 1.959 . S
O20 C7 1.251 . S
H21 C4 0.930 . S
H22 C15 0.929 . S
Cu23 N24 1.999 1_554 S
Cu23 O29 1.974 . S
Cu23 N34 1.985 . S
Cu23 O43 1.959 1_554 S
N24 Cu23 1.999 1_556 S
N24 C26 1.263 . S
N24 C28 1.389 . S
N25 C26 1.358 . S
N25 C27 1.400 . S
C26 N24 1.263 . S
C26 N25 1.358 . S
C26 H32 0.930 . S
C27 N25 1.400 . S
C27 C28 1.351 . S
C27 H44 0.930 . S
C28 N24 1.389 . S
C28 C27 1.351 . S
C28 H33 0.930 . S
O29 Cu23 1.974 . S
O29 C39 1.282 . S
C30 O31 1.261 . S
C30 O43 1.251 . S
O31 C30 1.261 . S
H32 C26 0.930 . S
H33 C28 0.930 . S
N34 Cu23 1.985 . S
N34 C36 1.335 . S
N34 C37 1.390 . S
N35 C36 1.345 . S
N35 C38 1.336 . S
C36 N34 1.335 . S
C36 N35 1.345 . S
C36 H41 0.930 . S
C37 N34 1.390 . S
C37 C38 1.346 . S
C37 H42 0.930 . S
C38 N35 1.336 . S
C38 C37 1.346 . S
C38 H45 0.929 . S
C39 O29 1.282 . S
C39 O40 1.216 . S
O40 C39 1.216 . S
H41 C36 0.930 . S
H42 C37 0.930 . S
O43 Cu23 1.959 1_556 S
O43 C30 1.251 . S
H44 C27 0.930 . S
H45 C38 0.929 . S
Cu46 N47 1.999 1_554 S
Cu46 O52 1.974 . S
Cu46 N57 1.985 . S
Cu46 O66 1.959 . S
N47 Cu46 1.999 1_556 S
N47 C49 1.263 . S
N47 C51 1.389 . S
N48 C49 1.358 . S
N48 C50 1.400 . S
C49 N47 1.263 . S
C49 N48 1.358 . S
C49 H55 0.930 . S
C50 N48 1.400 . S
C50 C51 1.351 . S
C50 H67 0.930 . S
C51 N47 1.389 . S
C51 C50 1.351 . S
C51 H56 0.930 . S
O52 Cu46 1.974 . S
O52 C62 1.282 . S
C53 O54 1.259 1_556 S
C53 O66 1.248 1_556 S
O54 C53 1.259 1_554 S
H55 C49 0.930 . S
H56 C51 0.930 . S
N57 Cu46 1.985 . S
N57 C59 1.335 . S
N57 C60 1.390 . S
N58 C59 1.345 . S
N58 C61 1.336 . S
C59 N57 1.335 . S
C59 N58 1.345 . S
C59 H64 0.930 . S
C60 N57 1.390 . S
C60 C61 1.346 . S
C60 H65 0.930 . S
C61 N58 1.336 . S
C61 C60 1.346 . S
C61 H68 0.929 . S
C62 O52 1.282 . S
C62 O63 1.216 . S
O63 C62 1.216 . S
H64 C59 0.930 . S
H65 C60 0.930 . S
O66 Cu46 1.959 . S
O66 C53 1.248 1_554 S
H67 C50 0.930 . S
H68 C61 0.929 . S
Cu69 N70 1.999 . S
Cu69 O75 1.974 . S
Cu69 N80 1.985 . S
Cu69 O89 1.959 . S
N70 Cu69 1.999 . S
N70 C72 1.263 . S
N70 C74 1.389 . S
N71 C72 1.358 . S
N71 C73 1.400 . S
C72 N70 1.263 . S
C72 N71 1.358 . S
C72 H78 0.930 . S
C73 N71 1.400 . S
C73 C74 1.351 . S
C73 H90 0.930 . S
C74 N70 1.389 . S
C74 C73 1.351 . S
C74 H79 0.930 . S
O75 Cu69 1.974 . S
O75 C85 1.282 . S
C76 O77 1.261 . S
C76 O89 1.251 . S
O77 C76 1.261 . S
H78 C72 0.930 . S
H79 C74 0.930 . S
N80 Cu69 1.985 . S
N80 C82 1.335 . S
N80 C83 1.390 . S
N81 C82 1.345 . S
N81 C84 1.336 . S
C82 N80 1.335 . S
C82 N81 1.345 . S
C82 H87 0.930 . S
C83 N80 1.390 . S
C83 C84 1.346 . S
C83 H88 0.930 . S
C84 N81 1.336 . S
C84 C83 1.346 . S
C84 H91 0.929 . S
C85 O75 1.282 . S
C85 O86 1.216 1_545 S
O86 C85 1.216 1_565 S
H87 C82 0.930 . S
H88 C83 0.930 . S
O89 Cu69 1.959 . S
O89 C76 1.251 . S
H90 C73 0.930 . S
H91 C84 0.929 . S
Cu92 N93 1.999 . S
Cu92 O98 1.974 . S
Cu92 N103 1.985 . S
Cu92 O112 1.959 . S
N93 Cu92 1.999 . S
N93 C95 1.263 . S
N93 C97 1.389 . S
N94 C95 1.358 . S
N94 C96 1.400 . S
C95 N93 1.263 . S
C95 N94 1.358 . S
C95 H101 0.930 . S
C96 N94 1.400 . S
C96 C97 1.351 . S
C96 H113 0.930 . S
C97 N93 1.389 . S
C97 C96 1.351 . S
C97 H102 0.930 . S
O98 Cu92 1.974 . S
O98 C108 1.282 . S
C99 O100 1.261 . S
C99 O112 1.251 . S
O100 C99 1.261 . S
H101 C95 0.930 . S
H102 C97 0.930 . S
N103 Cu92 1.985 . S
N103 C105 1.335 . S
N103 C106 1.390 . S
N104 C105 1.345 . S
N104 C107 1.336 . S
C105 N103 1.335 . S
C105 N104 1.345 . S
C105 H110 0.930 . S
C106 N103 1.390 . S
C106 C107 1.346 . S
C106 H111 0.930 . S
C107 N104 1.336 . S
C107 C106 1.346 . S
C107 H114 0.929 . S
C108 O98 1.282 . S
C108 O109 1.216 . S
O109 C108 1.216 . S
H110 C105 0.930 . S
H111 C106 0.930 . S
O112 Cu92 1.959 . S
O112 C99 1.251 . S
H113 C96 0.930 . S
H114 C107 0.929 . S
Cu115 N116 1.999 . S
Cu115 O121 1.974 . S
Cu115 N126 1.985 . S
Cu115 O135 1.959 . S
N116 Cu115 1.999 . S
N116 C118 1.263 . S
N116 C120 1.389 . S
N117 C118 1.358 . S
N117 C119 1.400 . S
C118 N116 1.263 . S
C118 N117 1.358 . S
C118 H124 0.930 . S
C119 N117 1.400 . S
C119 C120 1.351 . S
C119 H136 0.930 . S
C120 N116 1.389 . S
C120 C119 1.351 . S
C120 H125 0.930 . S
O121 Cu115 1.974 . S
O121 C131 1.282 . S
C122 O123 1.261 . S
C122 O135 1.251 . S
O123 C122 1.261 . S
H124 C118 0.930 . S
H125 C120 0.930 . S
N126 Cu115 1.985 . S
N126 C128 1.335 . S
N126 C129 1.390 . S
N127 C128 1.345 . S
N127 C130 1.336 . S
C128 N126 1.335 . S
C128 N127 1.345 . S
C128 H133 0.930 . S
C129 N126 1.390 . S
C129 C130 1.346 . S
C129 H134 0.930 . S
C130 N127 1.336 . S
C130 C129 1.346 . S
C130 H137 0.929 . S
C131 O121 1.282 . S
C131 O132 1.216 . S
O132 C131 1.216 . S
H133 C128 0.930 . S
H134 C129 0.930 . S
O135 Cu115 1.959 . S
O135 C122 1.251 . S
H136 C119 0.930 . S
H137 C130 0.929 . S
Cu138 N139 1.999 . S
Cu138 O144 1.974 . S
Cu138 N149 1.985 . S
Cu138 O158 1.959 . S
N139 Cu138 1.999 . S
N139 C141 1.263 . S
N139 C143 1.389 . S
N140 C141 1.358 . S
N140 C142 1.400 . S
C141 N139 1.263 . S
C141 N140 1.358 . S
C141 H147 0.930 . S
C142 N140 1.400 . S
C142 C143 1.351 . S
C142 H159 0.930 . S
C143 N139 1.389 . S
C143 C142 1.351 . S
C143 H148 0.930 . S
O144 Cu138 1.974 . S
O144 C154 1.282 . S
C145 O146 1.261 . S
C145 O158 1.251 . S
O146 C145 1.261 . S
H147 C141 0.930 . S
H148 C143 0.930 . S
N149 Cu138 1.985 . S
N149 C151 1.335 . S
N149 C152 1.390 . S
N150 C151 1.345 . S
N150 C153 1.336 . S
C151 N149 1.335 . S
C151 N150 1.345 . S
C151 H156 0.930 . S
C152 N149 1.390 . S
C152 C153 1.346 . S
C152 H157 0.930 . S
C153 N150 1.336 . S
C153 C152 1.346 . S
C153 H160 0.929 . S
C154 O144 1.282 . S
C154 O155 1.216 . S
O155 C154 1.216 . S
H156 C151 0.930 . S
H157 C152 0.930 . S
O158 Cu138 1.959 . S
O158 C145 1.251 . S
H159 C142 0.930 . S
H160 C153 0.929 . S
Cu161 N162 1.999 . S
Cu161 O167 1.974 . S
Cu161 N172 1.985 . S
Cu161 O181 1.959 . S
N162 Cu161 1.999 . S
N162 C164 1.263 . S
N162 C166 1.389 . S
N163 C164 1.358 . S
N163 C165 1.400 . S
C164 N162 1.263 . S
C164 N163 1.358 . S
C164 H170 0.930 . S
C165 N163 1.400 . S
C165 C166 1.351 . S
C165 H182 0.930 . S
C166 N162 1.389 . S
C166 C165 1.351 . S
C166 H171 0.930 . S
O167 Cu161 1.974 . S
O167 C177 1.282 . S
C168 O169 1.261 . S
C168 O181 1.251 . S
O169 C168 1.261 . S
H170 C164 0.930 . S
H171 C166 0.930 . S
N172 Cu161 1.985 . S
N172 C174 1.335 . S
N172 C175 1.390 . S
N173 C174 1.345 . S
N173 C176 1.336 . S
C174 N172 1.335 . S
C174 N173 1.345 . S
C174 H179 0.930 . S
C175 N172 1.390 . S
C175 C176 1.346 . S
C175 H180 0.930 . S
C176 N173 1.336 . S
C176 C175 1.346 . S
C176 H183 0.929 . S
C177 O167 1.282 . S
C177 O178 1.216 . S
O178 C177 1.216 . S
H179 C174 0.930 . S
H180 C175 0.930 . S
O181 Cu161 1.959 . S
O181 C168 1.251 . S
H182 C165 0.930 . S
H183 C176 0.929 . S
Cu184 N185 1.999 . S
Cu184 O190 1.974 . S
Cu184 N195 1.985 . S
Cu184 O204 1.959 . S
N185 Cu184 1.999 . S
N185 C187 1.263 . S
N185 C189 1.389 . S
N186 C187 1.358 . S
N186 C188 1.400 . S
C187 N185 1.263 . S
C187 N186 1.358 . S
C187 H193 0.930 . S
C188 N186 1.400 . S
C188 C189 1.351 . S
C188 H205 0.930 . S
C189 N185 1.389 . S
C189 C188 1.351 . S
C189 H194 0.930 . S
O190 Cu184 1.974 . S
O190 C200 1.282 . S
C191 O192 1.261 . S
C191 O204 1.251 . S
O192 C191 1.261 . S
H193 C187 0.930 . S
H194 C189 0.930 . S
N195 Cu184 1.985 . S
N195 C197 1.335 . S
N195 C198 1.390 . S
N196 C197 1.345 . S
N196 C199 1.336 . S
C197 N195 1.335 . S
C197 N196 1.345 . S
C197 H202 0.930 . S
C198 N195 1.390 . S
C198 C199 1.346 . S
C198 H203 0.930 . S
C199 N196 1.336 . S
C199 C198 1.346 . S
C199 H206 0.929 . S
C200 O190 1.282 . S
C200 O201 1.216 . S
O201 C200 1.216 . S
H202 C197 0.930 . S
H203 C198 0.930 . S
O204 Cu184 1.959 . S
O204 C191 1.251 . S
H205 C188 0.930 . S
H206 C199 0.929 . S
Cu207 N208 1.999 . S
Cu207 O213 1.974 . S
Cu207 N218 1.985 . S
Cu207 O227 1.959 . S
N208 Cu207 1.999 . S
N208 C210 1.263 . S
N208 C212 1.389 . S
N209 C210 1.358 . S
N209 C211 1.400 . S
C210 N208 1.263 . S
C210 N209 1.358 . S
C210 H216 0.930 . S
C211 N209 1.400 . S
C211 C212 1.351 . S
C211 H228 0.930 . S
C212 N208 1.389 . S
C212 C211 1.351 . S
C212 H217 0.930 . S
O213 Cu207 1.974 . S
O213 C223 1.282 . S
C214 O215 1.261 . S
C214 O227 1.251 . S
O215 C214 1.261 . S
H216 C210 0.930 . S
H217 C212 0.930 . S
N218 Cu207 1.985 . S
N218 C220 1.335 . S
N218 C221 1.390 . S
N219 C220 1.345 . S
N219 C222 1.336 . S
C220 N218 1.335 . S
C220 N219 1.345 . S
C220 H225 0.930 . S
C221 N218 1.390 . S
C221 C222 1.346 . S
C221 H226 0.930 . S
C222 N219 1.336 . S
C222 C221 1.346 . S
C222 H229 0.929 . S
C223 O213 1.282 . S
C223 O224 1.216 . S
O224 C223 1.216 . S
H225 C220 0.930 . S
H226 C221 0.930 . S
O227 Cu207 1.959 . S
O227 C214 1.251 . S
H228 C211 0.930 . S
H229 C222 0.929 . S
Cu230 N231 1.999 . S
Cu230 O236 1.974 . S
Cu230 N241 1.985 . S
Cu230 O250 1.959 . S
N231 Cu230 1.999 . S
N231 C233 1.263 . S
N231 C235 1.389 . S
N232 C233 1.358 . S
N232 C234 1.400 . S
C233 N231 1.263 . S
C233 N232 1.358 . S
C233 H239 0.930 . S
C234 N232 1.400 . S
C234 C235 1.351 . S
C234 H251 0.930 . S
C235 N231 1.389 . S
C235 C234 1.351 . S
C235 H240 0.930 . S
O236 Cu230 1.974 . S
O236 C246 1.282 . S
C237 O238 1.261 . S
C237 O250 1.251 . S
O238 C237 1.261 . S
H239 C233 0.930 . S
H240 C235 0.930 . S
N241 Cu230 1.985 . S
N241 C243 1.335 . S
N241 C244 1.390 . S
N242 C243 1.345 . S
N242 C245 1.336 . S
C243 N241 1.335 . S
C243 N242 1.345 . S
C243 H248 0.930 . S
C244 N241 1.390 . S
C244 C245 1.346 . S
C244 H249 0.930 . S
C245 N242 1.336 . S
C245 C244 1.346 . S
C245 H252 0.929 . S
C246 O236 1.282 . S
C246 O247 1.216 . S
O247 C246 1.216 . S
H248 C243 0.930 . S
H249 C244 0.930 . S
O250 Cu230 1.959 . S
O250 C237 1.251 . S
H251 C234 0.930 . S
H252 C245 0.929 . S
Cu253 N254 1.999 . S
Cu253 O259 1.974 . S
Cu253 N264 1.985 . S
Cu253 O273 1.959 . S
N254 Cu253 1.999 . S
N254 C256 1.263 . S
N254 C258 1.389 . S
N255 C256 1.358 . S
N255 C257 1.400 . S
C256 N254 1.263 . S
C256 N255 1.358 . S
C256 H262 0.930 . S
C257 N255 1.400 . S
C257 C258 1.351 . S
C257 H274 0.930 . S
C258 N254 1.389 . S
C258 C257 1.351 . S
C258 H263 0.930 . S
O259 Cu253 1.974 . S
O259 C269 1.282 . S
C260 O261 1.261 . S
C260 O273 1.251 . S
O261 C260 1.261 . S
H262 C256 0.930 . S
H263 C258 0.930 . S
N264 Cu253 1.985 . S
N264 C266 1.335 . S
N264 C267 1.390 . S
N265 C266 1.345 . S
N265 C268 1.336 . S
C266 N264 1.335 . S
C266 N265 1.345 . S
C266 H271 0.930 . S
C267 N264 1.390 . S
C267 C268 1.346 . S
C267 H272 0.930 . S
C268 N265 1.336 . S
C268 C267 1.346 . S
C268 H275 0.929 . S
C269 O259 1.282 . S
C269 O270 1.216 . S
O270 C269 1.216 . S
H271 C266 0.930 . S
H272 C267 0.930 . S
O273 Cu253 1.959 . S
O273 C260 1.251 . S
H274 C257 0.930 . S
H275 C268 0.929 . S
Cu276 N277 1.999 . S
Cu276 O282 1.974 . S
Cu276 N287 1.985 . S
Cu276 O296 1.959 . S
N277 Cu276 1.999 . S
N277 C279 1.263 . S
N277 C281 1.389 . S
N278 C279 1.358 . S
N278 C280 1.400 . S
C279 N277 1.263 . S
C279 N278 1.358 . S
C279 H285 0.930 . S
C280 N278 1.400 . S
C280 C281 1.351 . S
C280 H297 0.930 . S
C281 N277 1.389 . S
C281 C280 1.351 . S
C281 H286 0.930 . S
O282 Cu276 1.974 . S
O282 C292 1.282 . S
C283 O284 1.261 . S
C283 O296 1.251 . S
O284 C283 1.261 . S
H285 C279 0.930 . S
H286 C281 0.930 . S
N287 Cu276 1.985 . S
N287 C289 1.335 . S
N287 C290 1.390 . S
N288 C289 1.345 . S
N288 C291 1.336 . S
C289 N287 1.335 . S
C289 N288 1.345 . S
C289 H294 0.930 . S
C290 N287 1.390 . S
C290 C291 1.346 . S
C290 H295 0.930 . S
C291 N288 1.336 . S
C291 C290 1.346 . S
C291 H298 0.929 . S
C292 O282 1.282 . S
C292 O293 1.216 . S
O293 C292 1.216 . S
H294 C289 0.930 . S
H295 C290 0.930 . S
O296 Cu276 1.959 . S
O296 C283 1.251 . S
H297 C280 0.930 . S
H298 C291 0.929 . S
Cu299 N300 1.999 . S
Cu299 O305 1.974 . S
Cu299 N310 1.985 . S
Cu299 O319 1.959 . S
N300 Cu299 1.999 . S
N300 C302 1.263 . S
N300 C304 1.389 . S
N301 C302 1.358 . S
N301 C303 1.400 . S
C302 N300 1.263 . S
C302 N301 1.358 . S
C302 H308 0.930 . S
C303 N301 1.400 . S
C303 C304 1.351 . S
C303 H320 0.930 . S
C304 N300 1.389 . S
C304 C303 1.351 . S
C304 H309 0.930 . S
O305 Cu299 1.974 . S
O305 C315 1.282 . S
C306 O307 1.261 . S
C306 O319 1.251 . S
O307 C306 1.261 . S
H308 C302 0.930 . S
H309 C304 0.930 . S
N310 Cu299 1.985 . S
N310 C312 1.335 . S
N310 C313 1.390 . S
N311 C312 1.345 . S
N311 C314 1.336 . S
C312 N310 1.335 . S
C312 N311 1.345 . S
C312 H317 0.930 . S
C313 N310 1.390 . S
C313 C314 1.346 . S
C313 H318 0.930 . S
C314 N311 1.336 . S
C314 C313 1.346 . S
C314 H321 0.929 . S
C315 O305 1.282 . S
C315 O316 1.216 . S
O316 C315 1.216 . S
H317 C312 0.930 . S
H318 C313 0.930 . S
O319 Cu299 1.959 . S
O319 C306 1.251 . S
H320 C303 0.930 . S
H321 C314 0.929 . S
Cu322 N323 1.999 . S
Cu322 O328 1.974 . S
Cu322 N333 1.985 . S
Cu322 O342 1.959 . S
N323 Cu322 1.999 . S
N323 C325 1.263 . S
N323 C327 1.389 . S
N324 C325 1.358 . S
N324 C326 1.400 . S
C325 N323 1.263 . S
C325 N324 1.358 . S
C325 H331 0.930 . S
C326 N324 1.400 . S
C326 C327 1.351 . S
C326 H343 0.930 . S
C327 N323 1.389 . S
C327 C326 1.351 . S
C327 H332 0.930 . S
O328 Cu322 1.974 . S
O328 C338 1.282 . S
C329 O330 1.261 . S
C329 O342 1.251 . S
O330 C329 1.261 . S
H331 C325 0.930 . S
H332 C327 0.930 . S
N333 Cu322 1.985 . S
N333 C335 1.335 . S
N333 C336 1.390 . S
N334 C335 1.345 . S
N334 C337 1.336 . S
C335 N333 1.335 . S
C335 N334 1.345 . S
C335 H340 0.930 . S
C336 N333 1.390 . S
C336 C337 1.346 . S
C336 H341 0.930 . S
C337 N334 1.336 . S
C337 C336 1.346 . S
C337 H344 0.929 . S
C338 O328 1.282 . S
C338 O339 1.216 . S
O339 C338 1.216 . S
H340 C335 0.930 . S
H341 C336 0.930 . S
O342 Cu322 1.959 . S
O342 C329 1.251 . S
H343 C326 0.930 . S
H344 C337 0.929 . S
Cu345 N346 1.999 . S
Cu345 O351 1.974 . S
Cu345 N356 1.985 . S
Cu345 O365 1.959 . S
N346 Cu345 1.999 . S
N346 C348 1.263 . S
N346 C350 1.389 . S
N347 C348 1.358 . S
N347 C349 1.400 . S
C348 N346 1.263 . S
C348 N347 1.358 . S
C348 H354 0.930 . S
C349 N347 1.400 . S
C349 C350 1.351 . S
C349 H366 0.930 . S
C350 N346 1.389 . S
C350 C349 1.351 . S
C350 H355 0.930 . S
O351 Cu345 1.974 . S
O351 C361 1.282 . S
C352 O353 1.261 . S
C352 O365 1.251 . S
O353 C352 1.261 . S
H354 C348 0.930 . S
H355 C350 0.930 . S
N356 Cu345 1.985 . S
N356 C358 1.335 . S
N356 C359 1.390 . S
N357 C358 1.345 . S
N357 C360 1.336 . S
C358 N356 1.335 . S
C358 N357 1.345 . S
C358 H363 0.930 . S
C359 N356 1.390 . S
C359 C360 1.346 . S
C359 H364 0.930 . S
C360 N357 1.336 . S
C360 C359 1.346 . S
C360 H367 0.929 . S
C361 O351 1.282 . S
C361 O362 1.216 . S
O362 C361 1.216 . S
H363 C358 0.930 . S
H364 C359 0.930 . S
O365 Cu345 1.959 . S
O365 C352 1.251 . S
H366 C349 0.930 . S
H367 C360 0.929 . S
Cu368 N369 1.999 . S
Cu368 O374 1.974 . S
Cu368 N379 1.985 . S
Cu368 O388 1.959 . S
N369 Cu368 1.999 . S
N369 C371 1.263 . S
N369 C373 1.389 . S
N370 C371 1.358 . S
N370 C372 1.400 . S
C371 N369 1.263 . S
C371 N370 1.358 . S
C371 H377 0.930 . S
C372 N370 1.400 . S
C372 C373 1.351 . S
C372 H389 0.930 . S
C373 N369 1.389 . S
C373 C372 1.351 . S
C373 H378 0.930 . S
O374 Cu368 1.974 . S
O374 C384 1.282 . S
C375 O376 1.261 . S
C375 O388 1.251 . S
O376 C375 1.261 . S
H377 C371 0.930 . S
H378 C373 0.930 . S
N379 Cu368 1.985 . S
N379 C381 1.335 . S
N379 C382 1.390 . S
N380 C381 1.345 . S
N380 C383 1.336 . S
C381 N379 1.335 . S
C381 N380 1.345 . S
C381 H386 0.930 . S
C382 N379 1.390 . S
C382 C383 1.346 . S
C382 H387 0.930 . S
C383 N380 1.336 . S
C383 C382 1.346 . S
C383 H390 0.929 . S
C384 O374 1.282 . S
C384 O385 1.216 . S
O385 C384 1.216 . S
H386 C381 0.930 . S
H387 C382 0.930 . S
O388 Cu368 1.959 . S
O388 C375 1.251 . S
H389 C372 0.930 . S
H390 C383 0.929 . S
Cu391 N392 1.999 . S
Cu391 O397 1.974 . S
Cu391 N402 1.985 . S
Cu391 O411 1.959 . S
N392 Cu391 1.999 . S
N392 C394 1.263 . S
N392 C396 1.389 . S
N393 C394 1.358 . S
N393 C395 1.400 . S
C394 N392 1.263 . S
C394 N393 1.358 . S
C394 H400 0.930 . S
C395 N393 1.400 . S
C395 C396 1.351 . S
C395 H412 0.930 . S
C396 N392 1.389 . S
C396 C395 1.351 . S
C396 H401 0.930 . S
O397 Cu391 1.974 . S
O397 C407 1.282 . S
C398 O399 1.261 . S
C398 O411 1.251 . S
O399 C398 1.261 . S
H400 C394 0.930 . S
H401 C396 0.930 . S
N402 Cu391 1.985 . S
N402 C404 1.335 . S
N402 C405 1.390 . S
N403 C404 1.345 . S
N403 C406 1.336 . S
C404 N402 1.335 . S
C404 N403 1.345 . S
C404 H409 0.930 . S
C405 N402 1.390 . S
C405 C406 1.346 . S
C405 H410 0.930 . S
C406 N403 1.336 . S
C406 C405 1.346 . S
C406 H413 0.929 . S
C407 O397 1.282 . S
C407 O408 1.216 . S
O408 C407 1.216 . S
H409 C404 0.930 . S
H410 C405 0.930 . S
O411 Cu391 1.959 . S
O411 C398 1.251 . S
H412 C395 0.930 . S
H413 C406 0.929 . S
Zn414 O417 2.031 . S
Zn414 O419 2.049 . S
Zn414 O424 2.067 1_455 S
Zn415 O416 1.962 . S
Zn415 O418 1.986 . S
Zn415 O420 1.996 . S
Zn415 O423 1.943 1_455 S
O416 Zn415 1.962 . S
O416 C421 1.254 . S
O417 Zn414 2.031 . S
O417 C421 1.269 . S
O418 Zn415 1.986 . S
O418 C425 1.262 . S
O419 Zn414 2.049 . S
O419 C427 1.260 . S
O420 Zn415 1.996 . S
O420 C427 1.257 . S
C421 O416 1.254 . S
C421 O417 1.269 . S
C422 O423 1.249 . S
C422 O424 1.270 . S
O423 Zn415 1.943 1_655 S
O423 C422 1.249 . S
O424 Zn414 2.067 1_655 S
O424 C422 1.270 . S
C425 O418 1.262 . S
C425 O426 1.232 . S
O426 C425 1.232 . S
C427 O419 1.260 . S
C427 O420 1.257 . S
Zn428 O431 2.031 . S
Zn428 O433 2.049 . S
Zn428 O438 2.067 . S
Zn429 O430 1.962 . S
Zn429 O432 1.986 . S
Zn429 O434 1.996 . S
Zn429 O437 1.943 . S
O430 Zn429 1.962 . S
O430 C435 1.254 . S
O431 Zn428 2.031 . S
O431 C435 1.269 . S
O432 Zn429 1.986 . S
O432 C439 1.262 . S
O433 Zn428 2.049 . S
O433 C441 1.260 . S
O434 Zn429 1.996 . S
O434 C441 1.257 . S
C435 O430 1.254 . S
C435 O431 1.269 . S
C436 O437 1.249 . S
C436 O438 1.270 . S
O437 Zn429 1.943 . S
O437 C436 1.249 . S
O438 Zn428 2.067 . S
O438 C436 1.270 . S
C439 O432 1.262 . S
C439 O440 1.232 . S
O440 C439 1.232 . S
C441 O433 1.260 . S
C441 O434 1.257 . S
Zn442 O445 2.031 . S
Zn442 O447 2.049 . S
Zn442 O452 2.067 . S
Zn443 O444 1.962 . S
Zn443 O446 1.986 . S
Zn443 O448 1.996 . S
Zn443 O451 1.943 . S
O444 Zn443 1.962 . S
O444 C449 1.254 . S
O445 Zn442 2.031 . S
O445 C449 1.269 . S
O446 Zn443 1.986 . S
O446 C453 1.262 . S
O447 Zn442 2.049 . S
O447 C455 1.260 . S
O448 Zn443 1.996 . S
O448 C455 1.257 . S
C449 O444 1.254 . S
C449 O445 1.269 . S
C450 O451 1.249 . S
C450 O452 1.270 . S
O451 Zn443 1.943 . S
O451 C450 1.249 . S
O452 Zn442 2.067 . S
O452 C450 1.270 . S
C453 O446 1.262 . S
C453 O454 1.232 . S
O454 C453 1.232 . S
C455 O447 1.260 . S
C455 O448 1.257 . S
Zn456 O459 2.031 . S
Zn456 O461 2.049 . S
Zn456 O466 2.067 . S
Zn457 O458 1.962 1_455 S
Zn457 O460 1.986 . S
Zn457 O462 1.996 . S
Zn457 O465 1.943 . S
O458 Zn457 1.962 1_655 S
O458 C463 1.254 . S
O459 Zn456 2.031 . S
O459 C463 1.252 1_455 S
O460 Zn457 1.986 . S
O460 C467 1.262 . S
O461 Zn456 2.049 . S
O461 C469 1.260 . S
O462 Zn457 1.996 . S
O462 C469 1.257 . S
C463 O458 1.254 . S
C463 O459 1.252 1_655 S
C464 O465 1.249 . S
C464 O466 1.270 . S
O465 Zn457 1.943 . S
O465 C464 1.249 . S
O466 Zn456 2.067 . S
O466 C464 1.270 . S
C467 O460 1.262 . S
C467 O468 1.232 . S
O468 C467 1.232 . S
C469 O461 1.260 . S
C469 O462 1.257 . S
Zn470 O473 2.031 . S
Zn470 O475 2.049 . S
Zn470 O480 2.067 . S
Zn471 O472 1.962 . S
Zn471 O474 1.986 . S
Zn471 O476 1.996 . S
Zn471 O479 1.943 . S
O472 Zn471 1.962 . S
O472 C477 1.254 . S
O473 Zn470 2.031 . S
O473 C477 1.269 . S
O474 Zn471 1.986 . S
O474 C481 1.262 . S
O475 Zn470 2.049 . S
O475 C483 1.260 . S
O476 Zn471 1.996 . S
O476 C483 1.257 . S
C477 O472 1.254 . S
C477 O473 1.269 . S
C478 O479 1.249 . S
C478 O480 1.270 . S
O479 Zn471 1.943 . S
O479 C478 1.249 . S
O480 Zn470 2.067 . S
O480 C478 1.270 . S
C481 O474 1.262 . S
C481 O482 1.232 . S
O482 C481 1.232 . S
C483 O475 1.260 . S
C483 O476 1.257 . S
Zn484 O487 2.031 . S
Zn484 O489 2.049 . S
Zn484 O494 2.067 . S
Zn485 O486 1.962 . S
Zn485 O488 1.986 . S
Zn485 O490 1.996 . S
Zn485 O493 1.943 . S
O486 Zn485 1.962 . S
O486 C491 1.254 . S
O487 Zn484 2.031 . S
O487 C491 1.269 . S
O488 Zn485 1.986 . S
O488 C495 1.262 . S
O489 Zn484 2.049 . S
O489 C497 1.260 . S
O490 Zn485 1.996 . S
O490 C497 1.257 . S
C491 O486 1.254 . S
C491 O487 1.269 . S
C492 O493 1.249 . S
C492 O494 1.270 . S
O493 Zn485 1.943 . S
O493 C492 1.249 . S
O494 Zn484 2.067 . S
O494 C492 1.270 . S
C495 O488 1.262 . S
C495 O496 1.232 . S
O496 C495 1.232 . S
C497 O489 1.260 . S
C497 O490 1.257 . S
Zn498 O501 2.031 1_545 S
Zn498 O503 2.049 . S
Zn498 O508 2.067 . S
Zn499 O500 1.962 . S
Zn499 O502 1.986 . S
Zn499 O504 1.996 1_565 S
Zn499 O507 1.943 . S
O500 Zn499 1.962 . S
O500 C505 1.254 . S
O501 Zn498 2.031 1_565 S
O501 C505 1.269 . S
O502 Zn499 1.986 . S
O502 C509 1.262 . S
O503 Zn498 2.049 . S
O503 C511 1.260 . S
O504 Zn499 1.996 1_545 S
O504 C511 1.257 . S
C505 O500 1.254 . S
C505 O501 1.269 . S
C506 O507 1.249 1_545 S
C506 O508 1.270 . S
O507 Zn499 1.943 . S
O507 C506 1.249 1_565 S
O508 Zn498 2.067 . S
O508 C506 1.270 . S
C509 O502 1.262 . S
C509 O510 1.232 . S
O510 C509 1.232 . S
C511 O503 1.260 . S
C511 O504 1.257 . S
Zn512 O515 2.031 . S
Zn512 O517 2.049 . S
Zn512 O522 2.067 . S
Zn513 O514 1.962 . S
Zn513 O516 1.986 . S
Zn513 O518 1.996 . S
Zn513 O521 1.943 . S
O514 Zn513 1.962 . S
O514 C519 1.254 . S
O515 Zn512 2.031 . S
O515 C519 1.269 . S
O516 Zn513 1.986 . S
O516 C523 1.262 . S
O517 Zn512 2.049 . S
O517 C525 1.260 . S
O518 Zn513 1.996 . S
O518 C525 1.257 . S
C519 O514 1.254 . S
C519 O515 1.269 . S
C520 O521 1.249 . S
C520 O522 1.270 . S
O521 Zn513 1.943 . S
O521 C520 1.249 . S
O522 Zn512 2.067 . S
O522 C520 1.270 . S
C523 O516 1.262 . S
C523 O524 1.232 . S
O524 C523 1.232 . S
C525 O517 1.260 . S
C525 O518 1.257 . S
Zn526 O529 2.031 . S
Zn526 O531 2.049 . S
Zn526 O536 2.067 . S
Zn527 O528 1.962 . S
Zn527 O530 1.986 . S
Zn527 O532 1.996 . S
Zn527 O535 1.943 . S
O528 Zn527 1.962 . S
O528 C533 1.254 . S
O529 Zn526 2.031 . S
O529 C533 1.269 . S
O530 Zn527 1.986 . S
O530 C537 1.262 . S
O531 Zn526 2.049 . S
O531 C539 1.260 . S
O532 Zn527 1.996 . S
O532 C539 1.257 . S
C533 O528 1.254 . S
C533 O529 1.269 . S
C534 O535 1.249 . S
C534 O536 1.270 . S
O535 Zn527 1.943 . S
O535 C534 1.249 . S
O536 Zn526 2.067 . S
O536 C534 1.270 . S
C537 O530 1.262 . S
C537 O538 1.232 . S
O538 C537 1.232 . S
C539 O531 1.260 . S
C539 O532 1.257 . S
Zn540 O543 2.031 . S
Zn540 O545 2.049 . S
Zn540 O550 2.067 . S
Zn541 O542 1.962 . S
Zn541 O544 1.986 . S
Zn541 O546 1.996 . S
Zn541 O549 1.943 . S
O542 Zn541 1.962 . S
O542 C547 1.254 . S
O543 Zn540 2.031 . S
O543 C547 1.269 . S
O544 Zn541 1.986 . S
O544 C551 1.262 . S
O545 Zn540 2.049 . S
O545 C553 1.260 . S
O546 Zn541 1.996 . S
O546 C553 1.257 . S
C547 O542 1.254 . S
C547 O543 1.269 . S
C548 O549 1.249 . S
C548 O550 1.270 . S
O549 Zn541 1.943 . S
O549 C548 1.249 . S
O550 Zn540 2.067 . S
O550 C548 1.270 . S
C551 O544 1.262 . S
C551 O552 1.232 . S
O552 C551 1.232 . S
C553 O545 1.260 . S
C553 O546 1.257 . S
Zn554 O557 2.031 . S
Zn554 O559 2.049 1_545 S
Zn554 O564 2.067 . S
Zn555 O556 1.962 1_565 S
Zn555 O558 1.986 . S
Zn555 O560 1.996 . S
Zn555 O563 1.943 . S
O556 Zn555 1.962 1_545 S
O556 C561 1.254 . S
O557 Zn554 2.031 . S
O557 C561 1.269 . S
O558 Zn555 1.986 . S
O558 C565 1.262 . S
O559 Zn554 2.049 1_565 S
O559 C567 1.260 . S
O560 Zn555 1.996 . S
O560 C567 1.257 . S
C561 O556 1.254 . S
C561 O557 1.269 . S
C562 O563 1.248 1_545 S
C562 O564 1.273 . S
O563 Zn555 1.943 . S
O563 C562 1.248 1_565 S
O564 Zn554 2.067 . S
O564 C562 1.273 . S
C565 O558 1.262 . S
C565 O566 1.232 . S
O566 C565 1.232 . S
C567 O559 1.260 . S
C567 O560 1.257 . S
Zn568 O571 2.031 . S
Zn568 O573 2.049 . S
Zn568 O578 2.067 . S
Zn569 O570 1.962 . S
Zn569 O572 1.986 . S
Zn569 O574 1.996 . S
Zn569 O577 1.943 . S
O570 Zn569 1.962 . S
O570 C575 1.254 . S
O571 Zn568 2.031 . S
O571 C575 1.269 . S
O572 Zn569 1.986 . S
O572 C579 1.262 . S
O573 Zn568 2.049 . S
O573 C581 1.260 . S
O574 Zn569 1.996 . S
O574 C581 1.257 . S
C575 O570 1.254 . S
C575 O571 1.269 . S
C576 O577 1.249 . S
C576 O578 1.270 . S
O577 Zn569 1.943 . S
O577 C576 1.249 . S
O578 Zn568 2.067 . S
O578 C576 1.270 . S
C579 O572 1.262 . S
C579 O580 1.232 . S
O580 C579 1.232 . S
C581 O573 1.260 . S
C581 O574 1.257 . S
Zn582 O585 2.031 . S
Zn582 O587 2.049 . S
Zn582 O592 2.067 . S
Zn583 O584 1.962 . S
Zn583 O586 1.986 . S
Zn583 O588 1.996 . S
Zn583 O591 1.943 . S
O584 Zn583 1.962 . S
O584 C589 1.254 . S
O585 Zn582 2.031 . S
O585 C589 1.269 . S
O586 Zn583 1.986 . S
O586 C593 1.262 . S
O587 Zn582 2.049 . S
O587 C595 1.260 . S
O588 Zn583 1.996 . S
O588 C595 1.257 . S
C589 O584 1.254 . S
C589 O585 1.269 . S
C590 O591 1.249 . S
C590 O592 1.270 . S
O591 Zn583 1.943 . S
O591 C590 1.249 . S
O592 Zn582 2.067 . S
O592 C590 1.270 . S
C593 O586 1.262 . S
C593 O594 1.232 . S
O594 C593 1.232 . S
C595 O587 1.260 . S
C595 O588 1.257 . S
Zn596 O599 2.031 . S
Zn596 O601 2.049 . S
Zn596 O606 2.067 . S
Zn597 O598 1.962 . S
Zn597 O600 1.986 . S
Zn597 O602 1.996 . S
Zn597 O605 1.943 . S
O598 Zn597 1.962 . S
O598 C603 1.254 . S
O599 Zn596 2.031 . S
O599 C603 1.269 . S
O600 Zn597 1.986 . S
O600 C607 1.262 . S
O601 Zn596 2.049 . S
O601 C609 1.260 . S
O602 Zn597 1.996 . S
O602 C609 1.257 . S
C603 O598 1.254 . S
C603 O599 1.269 . S
C604 O605 1.249 . S
C604 O606 1.270 . S
O605 Zn597 1.943 . S
O605 C604 1.249 . S
O606 Zn596 2.067 . S
O606 C604 1.270 . S
C607 O600 1.262 . S
C607 O608 1.232 . S
O608 C607 1.232 . S
C609 O601 1.260 . S
C609 O602 1.257 . S
Zn610 O613 2.031 . S
Zn610 O615 2.049 1_655 S
Zn610 O620 2.067 1_655 S
Zn611 O612 1.962 . S
Zn611 O614 1.986 . S
Zn611 O616 1.996 . S
Zn611 O619 1.943 . S
O612 Zn611 1.962 . S
O612 C617 1.254 . S
O613 Zn610 2.031 . S
O613 C617 1.269 . S
O614 Zn611 1.986 . S
O614 C621 1.262 . S
O615 Zn610 2.049 1_455 S
O615 C623 1.260 1_455 S
O616 Zn611 1.996 . S
O616 C623 1.257 . S
C617 O612 1.254 . S
C617 O613 1.269 . S
C618 O619 1.249 1_455 S
C618 O620 1.270 . S
O619 Zn611 1.943 . S
O619 C618 1.249 1_655 S
O620 Zn610 2.067 1_455 S
O620 C618 1.270 . S
C621 O614 1.262 . S
C621 O622 1.232 . S
O622 C621 1.232 . S
C623 O615 1.260 1_655 S
C623 O616 1.257 . S
Zn624 O627 2.031 . S
Zn624 O629 2.049 . S
Zn624 O634 2.067 . S
Zn625 O626 1.962 . S
Zn625 O628 1.986 . S
Zn625 O630 1.996 . S
Zn625 O633 1.943 . S
O626 Zn625 1.962 . S
O626 C631 1.254 . S
O627 Zn624 2.031 . S
O627 C631 1.269 . S
O628 Zn625 1.986 . S
O628 C635 1.262 . S
O629 Zn624 2.049 . S
O629 C637 1.260 . S
O630 Zn625 1.996 . S
O630 C637 1.257 . S
C631 O626 1.254 . S
C631 O627 1.269 . S
C632 O633 1.249 . S
C632 O634 1.270 . S
O633 Zn625 1.943 . S
O633 C632 1.249 . S
O634 Zn624 2.067 . S
O634 C632 1.270 . S
C635 O628 1.262 . S
C635 O636 1.232 . S
O636 C635 1.232 . S
C637 O629 1.260 . S
C637 O630 1.257 . S
Zn638 O641 2.028 1_655 S
Zn638 O643 2.049 . S
Zn638 O648 2.067 1_655 S
Zn639 O640 1.962 . S
Zn639 O642 1.986 . S
Zn639 O644 1.996 . S
Zn639 O647 1.943 . S
O640 Zn639 1.962 . S
O640 C645 1.254 . S
O641 Zn638 2.028 1_455 S
O641 C645 1.245 1_455 S
O642 Zn639 1.986 . S
O642 C649 1.262 . S
O643 Zn638 2.049 . S
O643 C651 1.260 . S
O644 Zn639 1.996 . S
O644 C651 1.257 . S
C645 O640 1.254 . S
C645 O641 1.245 1_655 S
C646 O647 1.249 1_455 S
C646 O648 1.270 . S
O647 Zn639 1.943 . S
O647 C646 1.249 1_655 S
O648 Zn638 2.067 1_455 S
O648 C646 1.270 . S
C649 O642 1.262 . S
C649 O650 1.232 . S
O650 C649 1.232 . S
C651 O643 1.260 . S
C651 O644 1.257 . S
Zn652 O655 2.031 . S
Zn652 O657 2.049 . S
Zn652 O662 2.067 . S
Zn653 O654 1.962 . S
Zn653 O656 1.986 . S
Zn653 O658 1.996 . S
Zn653 O661 1.943 . S
O654 Zn653 1.962 . S
O654 C659 1.254 . S
O655 Zn652 2.031 . S
O655 C659 1.269 . S
O656 Zn653 1.986 . S
O656 C663 1.262 . S
O657 Zn652 2.049 . S
O657 C665 1.260 . S
O658 Zn653 1.996 . S
O658 C665 1.257 . S
C659 O654 1.254 . S
C659 O655 1.269 . S
C660 O661 1.249 . S
C660 O662 1.270 . S
O661 Zn653 1.943 . S
O661 C660 1.249 . S
O662 Zn652 2.067 . S
O662 C660 1.270 . S
C663 O656 1.262 . S
C663 O664 1.232 . S
O664 C663 1.232 . S
C665 O657 1.260 . S
C665 O658 1.257 . S
H666 C678 0.930 . S
H667 C680 0.930 1_655 S
H668 C681 0.930 1_655 S
H669 C685 0.959 . S
H670 C685 0.959 . S
H671 C685 0.961 . S
H672 C686 0.960 . S
H673 C686 0.961 . S
H674 C686 0.959 . S
H675 C689 0.927 1_655 S
H676 C690 0.931 . S
H677 C692 0.930 . S
C678 H666 0.930 . S
C678 C679 1.399 . S
C678 C683 1.399 . S
C679 C678 1.399 . S
C679 C680 1.376 . S
C680 H667 0.930 1_455 S
C680 C679 1.376 . S
C680 C681 1.388 . S
C681 H668 0.930 1_455 S
C681 C680 1.388 . S
C681 C682 1.390 . S
C682 C681 1.390 . S
C682 C683 1.394 . S
C682 C688 1.465 . S
C683 C678 1.399 . S
C683 C682 1.394 . S
C683 C684 1.516 . S
C684 C683 1.516 . S
C684 C685 1.502 . S
C684 C686 1.561 . S
C684 C687 1.526 . S
C685 H669 0.959 . S
C685 H670 0.959 . S
C685 H671 0.961 . S
C685 C684 1.502 . S
C686 H672 0.960 . S
C686 H673 0.961 . S
C686 H674 0.959 . S
C686 C684 1.561 . S
C687 C684 1.526 . S
C687 C688 1.396 . S
C687 C692 1.390 . S
C688 C682 1.465 . S
C688 C687 1.396 . S
C688 C689 1.399 . S
C689 H675 0.927 1_455 S
C689 C688 1.399 . S
C689 C690 1.385 . S
C690 H676 0.931 . S
C690 C689 1.385 . S
C690 C691 1.389 . S
C691 C690 1.389 . S
C691 C692 1.387 . S
C692 H677 0.930 . S
C692 C687 1.390 . S
C692 C691 1.387 . S
H693 C705 0.930 . S
H694 C707 0.930 1_556 S
H695 C708 0.930 1_556 S
H696 C712 0.959 . S
H697 C712 0.959 . S
H698 C712 0.961 . S
H699 C713 0.960 . S
H700 C713 0.961 . S
H701 C713 0.959 . S
H702 C716 0.929 . S
H703 C717 0.931 . S
H704 C719 0.930 . S
C705 H693 0.930 . S
C705 C706 1.399 . S
C705 C710 1.399 . S
C706 C705 1.399 . S
C706 C707 1.376 . S
C707 H694 0.930 1_554 S
C707 C706 1.376 . S
C707 C708 1.388 . S
C708 H695 0.930 1_554 S
C708 C707 1.388 . S
C708 C709 1.390 . S
C709 C708 1.390 . S
C709 C710 1.394 . S
C709 C715 1.465 . S
C710 C705 1.399 . S
C710 C709 1.394 . S
C710 C711 1.516 . S
C711 C710 1.516 . S
C711 C712 1.502 . S
C711 C713 1.561 . S
C711 C714 1.526 . S
C712 H696 0.959 . S
C712 H697 0.959 . S
C712 H698 0.961 . S
C712 C711 1.502 . S
C713 H699 0.960 . S
C713 H700 0.961 . S
C713 H701 0.959 . S
C713 C711 1.561 . S
C714 C711 1.526 . S
C714 C715 1.396 . S
C714 C719 1.390 . S
C715 C709 1.465 . S
C715 C714 1.396 . S
C715 C716 1.399 . S
C716 H702 0.929 . S
C716 C715 1.399 . S
C716 C717 1.385 . S
C717 H703 0.931 . S
C717 C716 1.385 . S
C717 C718 1.389 . S
C718 C717 1.389 . S
C718 C719 1.387 . S
C719 H704 0.930 . S
C719 C714 1.390 . S
C719 C718 1.387 . S
H720 C732 0.873 1_565 S
H721 C734 0.930 . S
H722 C735 0.930 . S
H723 C739 0.959 . S
H724 C739 0.959 . S
H725 C739 0.961 . S
H726 C740 0.960 . S
H727 C740 0.961 . S
H728 C740 0.959 . S
H729 C743 0.929 . S
H730 C744 0.931 . S
H731 C746 0.930 . S
C732 H720 0.873 1_545 S
C732 C733 1.399 . S
C732 C737 1.399 . S
C733 C732 1.399 . S
C733 C734 1.376 . S
C734 H721 0.930 . S
C734 C733 1.376 . S
C734 C735 1.388 . S
C735 H722 0.930 . S
C735 C734 1.388 . S
C735 C736 1.390 . S
C736 C735 1.390 . S
C736 C737 1.394 . S
C736 C742 1.465 . S
C737 C732 1.399 . S
C737 C736 1.394 . S
C737 C738 1.516 1_545 S
C738 C737 1.516 1_565 S
C738 C739 1.502 . S
C738 C740 1.561 . S
C738 C741 1.526 1_565 S
C739 H723 0.959 . S
C739 H724 0.959 . S
C739 H725 0.961 . S
C739 C738 1.502 . S
C740 H726 0.960 . S
C740 H727 0.961 . S
C740 H728 0.959 . S
C740 C738 1.561 . S
C741 C738 1.526 1_545 S
C741 C742 1.396 . S
C741 C746 1.390 1_545 S
C742 C736 1.465 . S
C742 C741 1.396 . S
C742 C743 1.399 . S
C743 H729 0.929 . S
C743 C742 1.399 . S
C743 C744 1.385 . S
C744 H730 0.931 . S
C744 C743 1.385 . S
C744 C745 1.389 . S
C745 C744 1.389 . S
C745 C746 1.387 1_545 S
C746 H731 0.930 . S
C746 C741 1.390 1_565 S
C746 C745 1.387 1_565 S
H747 C759 0.930 . S
H748 C761 0.930 . S
H749 C762 0.930 . S
H750 C766 0.959 . S
H751 C766 0.959 . S
H752 C766 0.961 . S
H753 C767 0.960 . S
H754 C767 0.961 . S
H755 C767 0.959 . S
H756 C770 0.929 . S
H757 C771 0.931 . S
H758 C773 0.930 . S
C759 H747 0.930 . S
C759 C760 1.399 . S
C759 C764 1.399 . S
C760 C759 1.399 . S
C760 C761 1.376 . S
C761 H748 0.930 . S
C761 C760 1.376 . S
C761 C762 1.388 . S
C762 H749 0.930 . S
C762 C761 1.388 . S
C762 C763 1.390 . S
C763 C762 1.390 . S
C763 C764 1.394 . S
C763 C769 1.465 . S
C764 C759 1.399 . S
C764 C763 1.394 . S
C764 C765 1.516 . S
C765 C764 1.516 . S
C765 C766 1.502 . S
C765 C767 1.561 . S
C765 C768 1.526 . S
C766 H750 0.959 . S
C766 H751 0.959 . S
C766 H752 0.961 . S
C766 C765 1.502 . S
C767 H753 0.960 . S
C767 H754 0.961 . S
C767 H755 0.959 . S
C767 C765 1.561 . S
C768 C765 1.526 . S
C768 C769 1.396 . S
C768 C773 1.390 . S
C769 C763 1.465 . S
C769 C768 1.396 . S
C769 C770 1.399 . S
C770 H756 0.929 . S
C770 C769 1.399 . S
C770 C771 1.385 . S
C771 H757 0.931 . S
C771 C770 1.385 . S
C771 C772 1.389 . S
C772 C771 1.389 . S
C772 C773 1.387 . S
C773 H758 0.930 . S
C773 C768 1.390 . S
C773 C772 1.387 . S
H774 C786 0.930 . S
H775 C788 0.930 . S
H776 C789 0.930 . S
H777 C793 0.959 . S
H778 C793 0.959 . S
H779 C793 0.961 . S
H780 C794 0.960 . S
H781 C794 0.982 . S
H782 C794 0.959 . S
H783 C797 0.929 . S
H784 C798 0.931 . S
H785 C800 0.930 . S
C786 H774 0.930 . S
C786 C787 1.399 . S
C786 C791 1.399 . S
C787 C786 1.399 . S
C787 C788 1.376 . S
C788 H775 0.930 . S
C788 C787 1.376 . S
C788 C789 1.388 . S
C789 H776 0.930 . S
C789 C788 1.388 . S
C789 C790 1.390 . S
C790 C789 1.390 . S
C790 C791 1.394 . S
C790 C796 1.465 . S
C791 C786 1.399 . S
C791 C790 1.394 . S
C791 C792 1.516 . S
C792 C791 1.516 . S
C792 C793 1.502 1_455 S
C792 C794 1.561 . S
C792 C795 1.526 . S
C793 H777 0.959 . S
C793 H778 0.959 . S
C793 H779 0.961 . S
C793 C792 1.502 1_655 S
C794 H780 0.960 . S
C794 H781 0.982 . S
C794 H782 0.959 . S
C794 C792 1.561 . S
C795 C792 1.526 . S
C795 C796 1.396 . S
C795 C800 1.390 1_455 S
C796 C790 1.465 . S
C796 C795 1.396 . S
C796 C797 1.399 . S
C797 H783 0.929 . S
C797 C796 1.399 . S
C797 C798 1.385 . S
C798 H784 0.931 . S
C798 C797 1.385 . S
C798 C799 1.389 1_455 S
C799 C798 1.389 1_655 S
C799 C800 1.387 . S
C800 H785 0.930 . S
C800 C795 1.390 1_655 S
C800 C799 1.387 . S
H801 C813 0.930 . S
H802 C815 0.930 . S
H803 C816 0.930 . S
H804 C820 0.959 . S
H805 C820 0.959 . S
H806 C820 0.961 . S
H807 C821 0.960 . S
H808 C821 0.961 . S
H809 C821 0.959 . S
H810 C824 0.929 . S
H811 C825 0.931 . S
H812 C827 0.930 . S
C813 H801 0.930 . S
C813 C814 1.399 . S
C813 C818 1.399 . S
C814 C813 1.399 . S
C814 C815 1.376 . S
C815 H802 0.930 . S
C815 C814 1.376 . S
C815 C816 1.388 . S
C816 H803 0.930 . S
C816 C815 1.388 . S
C816 C817 1.390 . S
C817 C816 1.390 . S
C817 C818 1.394 . S
C817 C823 1.465 . S
C818 C813 1.399 . S
C818 C817 1.394 . S
C818 C819 1.516 . S
C819 C818 1.516 . S
C819 C820 1.502 . S
C819 C821 1.561 . S
C819 C822 1.526 . S
C820 H804 0.959 . S
C820 H805 0.959 . S
C820 H806 0.961 . S
C820 C819 1.502 . S
C821 H807 0.960 . S
C821 H808 0.961 . S
C821 H809 0.959 . S
C821 C819 1.561 . S
C822 C819 1.526 . S
C822 C823 1.396 . S
C822 C827 1.390 . S
C823 C817 1.465 . S
C823 C822 1.396 . S
C823 C824 1.399 . S
C824 H810 0.929 . S
C824 C823 1.399 . S
C824 C825 1.385 . S
C825 H811 0.931 . S
C825 C824 1.385 . S
C825 C826 1.389 . S
C826 C825 1.389 . S
C826 C827 1.387 . S
C827 H812 0.930 . S
C827 C822 1.390 . S
C827 C826 1.387 . S
H828 C840 0.930 . S
H829 C842 0.930 . S
H830 C843 0.932 1_654 S
H831 C847 0.959 . S
H832 C847 0.959 . S
H833 C847 0.961 . S
H834 C848 0.960 . S
H835 C848 0.961 . S
H836 C848 0.959 . S
H837 C851 0.929 . S
H838 C852 0.931 . S
H839 C854 0.929 1_455 S
C840 H828 0.930 . S
C840 C841 1.399 . S
C840 C845 1.399 . S
C841 C840 1.399 . S
C841 C842 1.376 1_556 S
C842 H829 0.930 . S
C842 C841 1.376 1_554 S
C842 C843 1.386 1_554 S
C843 H830 0.932 1_456 S
C843 C842 1.386 1_556 S
C843 C844 1.401 . S
C844 C843 1.401 . S
C844 C845 1.427 . S
C844 C850 1.429 1_455 S
C845 C840 1.399 . S
C845 C844 1.427 . S
C845 C846 1.516 . S
C846 C845 1.516 . S
C846 C847 1.502 . S
C846 C848 1.561 1_455 S
C846 C849 1.536 . S
C847 H831 0.959 . S
C847 H832 0.959 . S
C847 H833 0.961 . S
C847 C846 1.502 . S
C848 H834 0.960 . S
C848 H835 0.961 . S
C848 H836 0.959 . S
C848 C846 1.561 1_655 S
C849 C846 1.536 . S
C849 C850 1.394 1_455 S
C849 C854 1.381 1_455 S
C850 C844 1.429 1_655 S
C850 C849 1.394 1_655 S
C850 C851 1.399 . S
C851 H837 0.929 . S
C851 C850 1.399 . S
C851 C852 1.385 . S
C852 H838 0.931 . S
C852 C851 1.385 . S
C852 C853 1.389 . S
C853 C852 1.389 . S
C853 C854 1.387 . S
C854 H839 0.929 1_655 S
C854 C849 1.381 1_655 S
C854 C853 1.387 . S
H855 C867 0.930 . S
H856 C869 0.931 1_554 S
H857 C870 0.930 1_554 S
H858 C874 0.959 . S
H859 C874 0.959 . S
H860 C874 0.961 . S
H861 C875 0.960 . S
H862 C875 0.961 . S
H863 C875 0.959 . S
H864 C878 0.929 . S
H865 C879 0.931 . S
H866 C881 0.930 . S
C867 H855 0.930 . S
C867 C868 1.399 . S
C867 C872 1.399 . S
C868 C867 1.399 . S
C868 C869 1.376 . S
C869 H856 0.931 1_556 S
C869 C868 1.376 . S
C869 C870 1.388 . S
C870 H857 0.930 1_556 S
C870 C869 1.388 . S
C870 C871 1.390 . S
C871 C870 1.390 . S
C871 C872 1.394 . S
C871 C877 1.465 . S
C872 C867 1.399 . S
C872 C871 1.394 . S
C872 C873 1.516 . S
C873 C872 1.516 . S
C873 C874 1.502 . S
C873 C875 1.561 . S
C873 C876 1.526 . S
C874 H858 0.959 . S
C874 H859 0.959 . S
C874 H860 0.961 . S
C874 C873 1.502 . S
C875 H861 0.960 . S
C875 H862 0.961 . S
C875 H863 0.959 . S
C875 C873 1.561 . S
C876 C873 1.526 . S
C876 C877 1.396 . S
C876 C881 1.390 . S
C877 C871 1.465 . S
C877 C876 1.396 . S
C877 C878 1.399 . S
C878 H864 0.929 . S
C878 C877 1.399 . S
C878 C879 1.385 . S
C879 H865 0.931 . S
C879 C878 1.385 . S
C879 C880 1.389 . S
C880 C879 1.389 . S
C880 C881 1.387 . S
C881 H866 0.930 . S
C881 C876 1.390 . S
C881 C880 1.387 . S
H882 C894 0.930 1_554 S
H883 C896 0.930 . S
H884 C897 0.930 . S
H885 C901 0.959 . S
H886 C901 0.959 . S
H887 C901 0.961 . S
H888 C902 0.960 . S
H889 C902 0.961 . S
H890 C902 0.959 . S
H891 C905 0.929 . S
H892 C906 0.931 . S
H893 C908 0.930 . S
C894 H882 0.930 1_556 S
C894 C895 1.399 . S
C894 C899 1.399 . S
C895 C894 1.399 . S
C895 C896 1.376 . S
C896 H883 0.930 . S
C896 C895 1.376 . S
C896 C897 1.388 . S
C897 H884 0.930 . S
C897 C896 1.388 . S
C897 C898 1.390 . S
C898 C897 1.390 . S
C898 C899 1.394 . S
C898 C904 1.465 . S
C899 C894 1.399 . S
C899 C898 1.394 . S
C899 C900 1.516 . S
C900 C899 1.516 . S
C900 C901 1.502 . S
C900 C902 1.561 1_556 S
C900 C903 1.526 . S
C901 H885 0.959 . S
C901 H886 0.959 . S
C901 H887 0.961 . S
C901 C900 1.502 . S
C902 H888 0.960 . S
C902 H889 0.961 . S
C902 H890 0.959 . S
C902 C900 1.561 1_554 S
C903 C900 1.526 . S
C903 C904 1.396 . S
C903 C908 1.390 . S
C904 C898 1.465 . S
C904 C903 1.396 . S
C904 C905 1.399 . S
C905 H891 0.929 . S
C905 C904 1.399 . S
C905 C906 1.385 . S
C906 H892 0.931 . S
C906 C905 1.385 . S
C906 C907 1.389 . S
C907 C906 1.389 . S
C907 C908 1.387 . S
C908 H893 0.930 . S
C908 C903 1.390 . S
C908 C907 1.387 . S
H909 C921 0.930 . S
H910 C923 0.930 . S
H911 C924 0.930 . S
H912 C928 0.959 . S
H913 C928 0.959 . S
H914 C928 0.961 . S
H915 C929 0.960 . S
H916 C929 0.961 . S
H917 C929 0.959 . S
H918 C932 0.929 . S
H919 C933 0.931 . S
H920 C935 0.930 . S
C921 H909 0.930 . S
C921 C922 1.399 . S
C921 C926 1.399 . S
C922 C921 1.399 . S
C922 C923 1.376 1_545 S
C923 H910 0.930 . S
C923 C922 1.376 1_565 S
C923 C924 1.388 . S
C924 H911 0.930 . S
C924 C923 1.388 . S
C924 C925 1.390 . S
C925 C924 1.390 . S
C925 C926 1.394 1_565 S
C925 C931 1.465 . S
C926 C921 1.399 . S
C926 C925 1.394 1_545 S
C926 C927 1.516 . S
C927 C926 1.516 . S
C927 C928 1.502 . S
C927 C929 1.561 . S
C927 C930 1.526 . S
C928 H912 0.959 . S
C928 H913 0.959 . S
C928 H914 0.961 . S
C928 C927 1.502 . S
C929 H915 0.960 . S
C929 H916 0.961 . S
C929 H917 0.959 . S
C929 C927 1.561 . S
C930 C927 1.526 . S
C930 C931 1.396 1_545 S
C930 C935 1.390 . S
C931 C925 1.465 . S
C931 C930 1.396 1_565 S
C931 C932 1.399 . S
C932 H918 0.929 . S
C932 C931 1.399 . S
C932 C933 1.385 . S
C933 H919 0.931 . S
C933 C932 1.385 . S
C933 C934 1.389 . S
C934 C933 1.389 . S
C934 C935 1.387 1_565 S
C935 H920 0.930 . S
C935 C930 1.390 . S
C935 C934 1.387 1_545 S
H936 C948 0.930 . S
H937 C950 0.930 . S
H938 C951 0.930 . S
H939 C955 0.959 . S
H940 C955 0.959 . S
H941 C955 0.961 . S
H942 C956 0.960 . S
H943 C956 0.961 . S
H944 C956 0.959 . S
H945 C959 0.929 . S
H946 C960 0.931 . S
H947 C962 0.930 . S
C948 H936 0.930 . S
C948 C949 1.399 . S
C948 C953 1.399 . S
C949 C948 1.399 . S
C949 C950 1.376 . S
C950 H937 0.930 . S
C950 C949 1.376 . S
C950 C951 1.388 . S
C951 H938 0.930 . S
C951 C950 1.388 . S
C951 C952 1.390 . S
C952 C951 1.390 . S
C952 C953 1.394 . S
C952 C958 1.465 . S
C953 C948 1.399 . S
C953 C952 1.394 . S
C953 C954 1.516 . S
C954 C953 1.516 . S
C954 C955 1.502 . S
C954 C956 1.561 . S
C954 C957 1.526 . S
C955 H939 0.959 . S
C955 H940 0.959 . S
C955 H941 0.961 . S
C955 C954 1.502 . S
C956 H942 0.960 . S
C956 H943 0.961 . S
C956 H944 0.959 . S
C956 C954 1.561 . S
C957 C954 1.526 . S
C957 C958 1.396 . S
C957 C962 1.390 . S
C958 C952 1.465 . S
C958 C957 1.396 . S
C958 C959 1.399 . S
C959 H945 0.929 . S
C959 C958 1.399 . S
C959 C960 1.385 . S
C960 H946 0.931 . S
C960 C959 1.385 . S
C960 C961 1.389 . S
C961 C960 1.389 . S
C961 C962 1.387 . S
C962 H947 0.930 . S
C962 C957 1.390 . S
C962 C961 1.387 . S
H963 C975 0.930 . S
H964 C977 0.930 . S
H965 C978 0.930 . S
H966 C982 0.959 . S
H967 C982 0.959 . S
H968 C982 0.961 . S
H969 C983 0.960 . S
H970 C983 0.961 . S
H971 C983 0.959 . S
H972 C986 0.929 . S
H973 C987 0.931 . S
H974 C989 0.930 . S
C975 H963 0.930 . S
C975 C976 1.399 . S
C975 C980 1.399 . S
C976 C975 1.399 . S
C976 C977 1.376 . S
C977 H964 0.930 . S
C977 C976 1.376 . S
C977 C978 1.388 . S
C978 H965 0.930 . S
C978 C977 1.388 . S
C978 C979 1.390 . S
C979 C978 1.390 . S
C979 C980 1.394 . S
C979 C985 1.465 . S
C980 C975 1.399 . S
C980 C979 1.394 . S
C980 C981 1.516 . S
C981 C980 1.516 . S
C981 C982 1.502 . S
C981 C983 1.561 . S
C981 C984 1.526 . S
C982 H966 0.959 . S
C982 H967 0.959 . S
C982 H968 0.961 . S
C982 C981 1.502 . S
C983 H969 0.960 . S
C983 H970 0.961 . S
C983 H971 0.959 . S
C983 C981 1.561 . S
C984 C981 1.526 . S
C984 C985 1.396 . S
C984 C989 1.390 . S
C985 C979 1.465 . S
C985 C984 1.396 . S
C985 C986 1.399 . S
C986 H972 0.929 . S
C986 C985 1.399 . S
C986 C987 1.385 . S
C987 H973 0.931 . S
C987 C986 1.385 . S
C987 C988 1.389 . S
C988 C987 1.389 . S
C988 C989 1.387 . S
C989 H974 0.930 . S
C989 C984 1.390 . S
C989 C988 1.387 . S
H990 C1002 0.930 . S
H991 C1004 0.930 . S
H992 C1005 0.930 . S
H993 C1009 0.959 . S
H994 C1009 0.959 . S
H995 C1009 0.961 . S
H996 C1010 0.960 . S
H997 C1010 0.961 . S
H998 C1010 0.959 . S
H999 C1013 0.929 . S
H1000 C1014 0.931 . S
H1001 C1016 0.930 . S
C1002 H990 0.930 . S
C1002 C1003 1.399 . S
C1002 C1007 1.399 . S
C1003 C1002 1.399 . S
C1003 C1004 1.376 . S
C1004 H991 0.930 . S
C1004 C1003 1.376 . S
C1004 C1005 1.388 . S
C1005 H992 0.930 . S
C1005 C1004 1.388 . S
C1005 C1006 1.390 . S
C1006 C1005 1.390 . S
C1006 C1007 1.394 . S
C1006 C1012 1.465 . S
C1007 C1002 1.399 . S
C1007 C1006 1.394 . S
C1007 C1008 1.516 . S
C1008 C1007 1.516 . S
C1008 C1009 1.502 . S
C1008 C1010 1.561 . S
C1008 C1011 1.526 . S
C1009 H993 0.959 . S
C1009 H994 0.959 . S
C1009 H995 0.961 . S
C1009 C1008 1.502 . S
C1010 H996 0.960 . S
C1010 H997 0.961 . S
C1010 H998 0.959 . S
C1010 C1008 1.561 . S
C1011 C1008 1.526 . S
C1011 C1012 1.396 . S
C1011 C1016 1.390 . S
C1012 C1006 1.465 . S
C1012 C1011 1.396 . S
C1012 C1013 1.399 . S
C1013 H999 0.929 . S
C1013 C1012 1.399 . S
C1013 C1014 1.385 . S
C1014 H1000 0.931 . S
C1014 C1013 1.385 . S
C1014 C1015 1.389 . S
C1015 C1014 1.389 . S
C1015 C1016 1.387 . S
C1016 H1001 0.930 . S
C1016 C1011 1.390 . S
C1016 C1015 1.387 . S
H1017 C1029 0.930 . S
H1018 C1031 0.930 . S
H1019 C1032 0.930 . S
H1020 C1036 0.959 . S
H1021 C1036 0.959 . S
H1022 C1036 0.961 . S
H1023 C1037 0.960 . S
H1024 C1037 0.961 . S
H1025 C1037 0.959 . S
H1026 C1040 0.929 . S
H1027 C1041 0.931 . S
H1028 C1043 0.930 . S
C1029 H1017 0.930 . S
C1029 C1030 1.399 . S
C1029 C1034 1.399 . S
C1030 C1029 1.399 . S
C1030 C1031 1.376 . S
C1031 H1018 0.930 . S
C1031 C1030 1.376 . S
C1031 C1032 1.388 . S
C1032 H1019 0.930 . S
C1032 C1031 1.388 . S
C1032 C1033 1.390 . S
C1033 C1032 1.390 . S
C1033 C1034 1.394 . S
C1033 C1039 1.465 1_565 S
C1034 C1029 1.399 . S
C1034 C1033 1.394 . S
C1034 C1035 1.516 1_565 S
C1035 C1034 1.516 1_545 S
C1035 C1036 1.502 . S
C1035 C1037 1.561 . S
C1035 C1038 1.526 . S
C1036 H1020 0.959 . S
C1036 H1021 0.959 . S
C1036 H1022 0.961 . S
C1036 C1035 1.502 . S
C1037 H1023 0.960 . S
C1037 H1024 0.961 . S
C1037 H1025 0.959 . S
C1037 C1035 1.561 . S
C1038 C1035 1.526 . S
C1038 C1039 1.396 . S
C1038 C1043 1.390 . S
C1039 C1033 1.465 1_545 S
C1039 C1038 1.396 . S
C1039 C1040 1.399 . S
C1040 H1026 0.929 . S
C1040 C1039 1.399 . S
C1040 C1041 1.385 . S
C1041 H1027 0.931 . S
C1041 C1040 1.385 . S
C1041 C1042 1.389 . S
C1042 C1041 1.389 . S
C1042 C1043 1.387 . S
C1043 H1028 0.930 . S
C1043 C1038 1.390 . S
C1043 C1042 1.387 . S
H1044 C1056 0.930 . S
H1045 C1058 0.930 . S
H1046 C1059 0.930 . S
H1047 C1063 0.959 . S
H1048 C1063 0.959 . S
H1049 C1063 0.961 . S
H1050 C1064 0.960 . S
H1051 C1064 0.961 . S
H1052 C1064 0.959 . S
H1053 C1067 0.929 . S
H1054 C1068 0.931 . S
H1055 C1070 0.930 . S
C1056 H1044 0.930 . S
C1056 C1057 1.399 . S
C1056 C1061 1.399 . S
C1057 C1056 1.399 . S
C1057 C1058 1.376 . S
C1058 H1045 0.930 . S
C1058 C1057 1.376 . S
C1058 C1059 1.388 . S
C1059 H1046 0.930 . S
C1059 C1058 1.388 . S
C1059 C1060 1.390 . S
C1060 C1059 1.390 . S
C1060 C1061 1.394 . S
C1060 C1066 1.465 . S
C1061 C1056 1.399 . S
C1061 C1060 1.394 . S
C1061 C1062 1.516 . S
C1062 C1061 1.516 . S
C1062 C1063 1.502 . S
C1062 C1064 1.561 . S
C1062 C1065 1.526 . S
C1063 H1047 0.959 . S
C1063 H1048 0.959 . S
C1063 H1049 0.961 . S
C1063 C1062 1.502 . S
C1064 H1050 0.960 . S
C1064 H1051 0.961 . S
C1064 H1052 0.959 . S
C1064 C1062 1.561 . S
C1065 C1062 1.526 . S
C1065 C1066 1.396 . S
C1065 C1070 1.390 . S
C1066 C1060 1.465 . S
C1066 C1065 1.396 . S
C1066 C1067 1.399 . S
C1067 H1053 0.929 . S
C1067 C1066 1.399 . S
C1067 C1068 1.385 . S
C1068 H1054 0.931 . S
C1068 C1067 1.385 . S
C1068 C1069 1.389 . S
C1069 C1068 1.389 . S
C1069 C1070 1.387 . S
C1070 H1055 0.930 . S
C1070 C1065 1.390 . S
C1070 C1069 1.387 . S
H1071 C1083 0.930 . S
H1072 C1085 0.930 . S
H1073 C1086 0.930 . S
H1074 C1090 0.959 . S
H1075 C1090 0.959 . S
H1076 C1090 0.961 . S
H1077 C1091 0.960 . S
H1078 C1091 0.961 . S
H1079 C1091 0.959 . S
H1080 C1094 0.929 . S
H1081 C1095 0.931 . S
H1082 C1097 0.930 . S
C1083 H1071 0.930 . S
C1083 C1084 1.399 . S
C1083 C1088 1.399 . S
C1084 C1083 1.399 . S
C1084 C1085 1.376 . S
C1085 H1072 0.930 . S
C1085 C1084 1.376 . S
C1085 C1086 1.388 . S
C1086 H1073 0.930 . S
C1086 C1085 1.388 . S
C1086 C1087 1.390 . S
C1087 C1086 1.390 . S
C1087 C1088 1.394 . S
C1087 C1093 1.465 . S
C1088 C1083 1.399 . S
C1088 C1087 1.394 . S
C1088 C1089 1.516 . S
C1089 C1088 1.516 . S
C1089 C1090 1.502 . S
C1089 C1091 1.561 . S
C1089 C1092 1.526 . S
C1090 H1074 0.959 . S
C1090 H1075 0.959 . S
C1090 H1076 0.961 . S
C1090 C1089 1.502 . S
C1091 H1077 0.960 . S
C1091 H1078 0.961 . S
C1091 H1079 0.959 . S
C1091 C1089 1.561 . S
C1092 C1089 1.526 . S
C1092 C1093 1.396 . S
C1092 C1097 1.390 . S
C1093 C1087 1.465 . S
C1093 C1092 1.396 . S
C1093 C1094 1.399 . S
C1094 H1080 0.929 . S
C1094 C1093 1.399 . S
C1094 C1095 1.385 . S
C1095 H1081 0.931 . S
C1095 C1094 1.385 . S
C1095 C1096 1.389 . S
C1096 C1095 1.389 . S
C1096 C1097 1.387 . S
C1097 H1082 0.930 . S
C1097 C1092 1.390 . S
C1097 C1096 1.387 . S
H1098 C1110 0.930 . S
H1099 C1112 0.930 . S
H1100 C1113 0.930 . S
H1101 C1117 0.959 . S
H1102 C1117 0.959 . S
H1103 C1117 0.961 . S
H1104 C1118 0.960 . S
H1105 C1118 0.961 . S
H1106 C1118 0.959 . S
H1107 C1121 0.929 . S
H1108 C1122 0.931 . S
H1109 C1124 0.930 . S
C1110 H1098 0.930 . S
C1110 C1111 1.399 . S
C1110 C1115 1.399 . S
C1111 C1110 1.399 . S
C1111 C1112 1.376 . S
C1112 H1099 0.930 . S
C1112 C1111 1.376 . S
C1112 C1113 1.388 . S
C1113 H1100 0.930 . S
C1113 C1112 1.388 . S
C1113 C1114 1.390 . S
C1114 C1113 1.390 . S
C1114 C1115 1.394 . S
C1114 C1120 1.465 . S
C1115 C1110 1.399 . S
C1115 C1114 1.394 . S
C1115 C1116 1.516 . S
C1116 C1115 1.516 . S
C1116 C1117 1.502 . S
C1116 C1118 1.561 . S
C1116 C1119 1.526 . S
C1117 H1101 0.959 . S
C1117 H1102 0.959 . S
C1117 H1103 0.961 . S
C1117 C1116 1.502 . S
C1118 H1104 0.960 . S
C1118 H1105 0.961 . S
C1118 H1106 0.959 . S
C1118 C1116 1.561 . S
C1119 C1116 1.526 . S
C1119 C1120 1.396 . S
C1119 C1124 1.390 . S
C1120 C1114 1.465 . S
C1120 C1119 1.396 . S
C1120 C1121 1.399 . S
C1121 H1107 0.929 . S
C1121 C1120 1.399 . S
C1121 C1122 1.385 . S
C1122 H1108 0.931 . S
C1122 C1121 1.385 . S
C1122 C1123 1.389 . S
C1123 C1122 1.389 . S
C1123 C1124 1.387 . S
C1124 H1109 0.930 . S
C1124 C1119 1.390 . S
C1124 C1123 1.387 . S
H1125 C1137 0.930 . S
H1126 C1139 0.930 . S
H1127 C1140 0.930 . S
H1128 C1144 0.959 . S
H1129 C1144 0.959 . S
H1130 C1144 0.961 . S
H1131 C1145 0.960 . S
H1132 C1145 0.961 . S
H1133 C1145 0.959 . S
H1134 C1148 0.929 . S
H1135 C1149 0.931 . S
H1136 C1151 0.930 . S
C1137 H1125 0.930 . S
C1137 C1138 1.399 . S
C1137 C1142 1.399 . S
C1138 C1137 1.399 . S
C1138 C1139 1.376 . S
C1139 H1126 0.930 . S
C1139 C1138 1.376 . S
C1139 C1140 1.388 . S
C1140 H1127 0.930 . S
C1140 C1139 1.388 . S
C1140 C1141 1.390 . S
C1141 C1140 1.390 . S
C1141 C1142 1.394 . S
C1141 C1147 1.465 . S
C1142 C1137 1.399 . S
C1142 C1141 1.394 . S
C1142 C1143 1.516 . S
C1143 C1142 1.516 . S
C1143 C1144 1.502 . S
C1143 C1145 1.561 . S
C1143 C1146 1.526 . S
C1144 H1128 0.959 . S
C1144 H1129 0.959 . S
C1144 H1130 0.961 . S
C1144 C1143 1.502 . S
C1145 H1131 0.960 . S
C1145 H1132 0.961 . S
C1145 H1133 0.959 . S
C1145 C1143 1.561 . S
C1146 C1143 1.526 . S
C1146 C1147 1.396 . S
C1146 C1151 1.390 . S
C1147 C1141 1.465 . S
C1147 C1146 1.396 . S
C1147 C1148 1.399 . S
C1148 H1134 0.929 . S
C1148 C1147 1.399 . S
C1148 C1149 1.385 . S
C1149 H1135 0.931 . S
C1149 C1148 1.385 . S
C1149 C1150 1.389 . S
C1150 C1149 1.389 . S
C1150 C1151 1.387 . S
C1151 H1136 0.930 . S
C1151 C1146 1.390 . S
C1151 C1150 1.387 . S
H1152 C1164 0.930 . S
H1153 C1166 0.930 . S
H1154 C1167 0.930 . S
H1155 C1171 0.959 . S
H1156 C1171 0.959 . S
H1157 C1171 0.961 . S
H1158 C1172 0.960 . S
H1159 C1172 0.961 . S
H1160 C1172 0.959 . S
H1161 C1175 0.929 . S
H1162 C1176 0.931 . S
H1163 C1178 0.930 . S
C1164 H1152 0.930 . S
C1164 C1165 1.399 . S
C1164 C1169 1.399 . S
C1165 C1164 1.399 . S
C1165 C1166 1.376 . S
C1166 H1153 0.930 . S
C1166 C1165 1.376 . S
C1166 C1167 1.388 . S
C1167 H1154 0.930 . S
C1167 C1166 1.388 . S
C1167 C1168 1.390 . S
C1168 C1167 1.390 . S
C1168 C1169 1.394 . S
C1168 C1174 1.465 . S
C1169 C1164 1.399 . S
C1169 C1168 1.394 . S
C1169 C1170 1.516 . S
C1170 C1169 1.516 . S
C1170 C1171 1.502 . S
C1170 C1172 1.561 1_565 S
C1170 C1173 1.526 . S
C1171 H1155 0.959 . S
C1171 H1156 0.959 . S
C1171 H1157 0.961 . S
C1171 C1170 1.502 . S
C1172 H1158 0.960 . S
C1172 H1159 0.961 . S
C1172 H1160 0.959 . S
C1172 C1170 1.561 1_545 S
C1173 C1170 1.526 . S
C1173 C1174 1.396 . S
C1173 C1178 1.390 1_565 S
C1174 C1168 1.465 . S
C1174 C1173 1.396 . S
C1174 C1175 1.399 . S
C1175 H1161 0.929 . S
C1175 C1174 1.399 . S
C1175 C1176 1.385 1_565 S
C1176 H1162 0.931 . S
C1176 C1175 1.385 1_545 S
C1176 C1177 1.389 . S
C1177 C1176 1.389 . S
C1177 C1178 1.387 . S
C1178 H1163 0.930 . S
C1178 C1173 1.390 1_545 S
C1178 C1177 1.387 . S
H1179 C1191 0.930 . S
H1180 C1193 0.930 . S
H1181 C1194 0.930 . S
H1182 C1198 0.959 . S
H1183 C1198 0.959 . S
H1184 C1198 0.961 . S
H1185 C1199 0.960 . S
H1186 C1199 0.961 . S
H1187 C1199 0.959 . S
H1188 C1202 0.929 . S
H1189 C1203 0.931 . S
H1190 C1205 0.930 . S
C1191 H1179 0.930 . S
C1191 C1192 1.399 . S
C1191 C1196 1.399 . S
C1192 C1191 1.399 . S
C1192 C1193 1.376 . S
C1193 H1180 0.930 . S
C1193 C1192 1.376 . S
C1193 C1194 1.388 . S
C1194 H1181 0.930 . S
C1194 C1193 1.388 . S
C1194 C1195 1.390 . S
C1195 C1194 1.390 . S
C1195 C1196 1.394 . S
C1195 C1201 1.465 . S
C1196 C1191 1.399 . S
C1196 C1195 1.394 . S
C1196 C1197 1.516 . S
C1197 C1196 1.516 . S
C1197 C1198 1.502 . S
C1197 C1199 1.561 . S
C1197 C1200 1.526 . S
C1198 H1182 0.959 . S
C1198 H1183 0.959 . S
C1198 H1184 0.961 . S
C1198 C1197 1.502 . S
C1199 H1185 0.960 . S
C1199 H1186 0.961 . S
C1199 H1187 0.959 . S
C1199 C1197 1.561 . S
C1200 C1197 1.526 . S
C1200 C1201 1.396 . S
C1200 C1205 1.390 . S
C1201 C1195 1.465 . S
C1201 C1200 1.396 . S
C1201 C1202 1.399 . S
C1202 H1188 0.929 . S
C1202 C1201 1.399 . S
C1202 C1203 1.385 . S
C1203 H1189 0.931 . S
C1203 C1202 1.385 . S
C1203 C1204 1.389 . S
C1204 C1203 1.389 . S
C1204 C1205 1.387 . S
C1205 H1190 0.930 . S
C1205 C1200 1.390 . S
C1205 C1204 1.387 . S
H1206 C1218 0.930 . S
H1207 C1220 0.930 . S
H1208 C1221 0.930 . S
H1209 C1225 0.959 . S
H1210 C1225 0.959 . S
H1211 C1225 0.961 . S
H1212 C1226 0.960 . S
H1213 C1226 0.961 . S
H1214 C1226 0.959 . S
H1215 C1229 0.929 . S
H1216 C1230 0.931 . S
H1217 C1232 0.930 . S
C1218 H1206 0.930 . S
C1218 C1219 1.399 . S
C1218 C1223 1.399 . S
C1219 C1218 1.399 . S
C1219 C1220 1.376 . S
C1220 H1207 0.930 . S
C1220 C1219 1.376 . S
C1220 C1221 1.388 . S
C1221 H1208 0.930 . S
C1221 C1220 1.388 . S
C1221 C1222 1.390 . S
C1222 C1221 1.390 . S
C1222 C1223 1.394 . S
C1222 C1228 1.465 . S
C1223 C1218 1.399 . S
C1223 C1222 1.394 . S
C1223 C1224 1.516 . S
C1224 C1223 1.516 . S
C1224 C1225 1.502 . S
C1224 C1226 1.561 . S
C1224 C1227 1.526 . S
C1225 H1209 0.959 . S
C1225 H1210 0.959 . S
C1225 H1211 0.961 . S
C1225 C1224 1.502 . S
C1226 H1212 0.960 . S
C1226 H1213 0.961 . S
C1226 H1214 0.959 . S
C1226 C1224 1.561 . S
C1227 C1224 1.526 . S
C1227 C1228 1.396 . S
C1227 C1232 1.390 . S
C1228 C1222 1.465 . S
C1228 C1227 1.396 . S
C1228 C1229 1.399 . S
C1229 H1215 0.929 . S
C1229 C1228 1.399 . S
C1229 C1230 1.385 . S
C1230 H1216 0.931 . S
C1230 C1229 1.385 . S
C1230 C1231 1.389 . S
C1231 C1230 1.389 . S
C1231 C1232 1.387 . S
C1232 H1217 0.930 . S
C1232 C1227 1.390 . S
C1232 C1231 1.387 . S
H1233 C1245 0.930 . S
H1234 C1247 0.930 . S
H1235 C1248 0.930 . S
H1236 C1252 0.959 . S
H1237 C1252 0.959 . S
H1238 C1252 0.961 . S
H1239 C1253 0.960 . S
H1240 C1253 0.961 . S
H1241 C1253 0.959 . S
H1242 C1256 0.929 . S
H1243 C1257 0.931 . S
H1244 C1259 0.930 . S
C1245 H1233 0.930 . S
C1245 C1246 1.399 . S
C1245 C1250 1.399 . S
C1246 C1245 1.399 . S
C1246 C1247 1.376 . S
C1247 H1234 0.930 . S
C1247 C1246 1.376 . S
C1247 C1248 1.388 . S
C1248 H1235 0.930 . S
C1248 C1247 1.388 . S
C1248 C1249 1.390 . S
C1249 C1248 1.390 . S
C1249 C1250 1.394 . S
C1249 C1255 1.465 . S
C1250 C1245 1.399 . S
C1250 C1249 1.394 . S
C1250 C1251 1.516 . S
C1251 C1250 1.516 . S
C1251 C1252 1.502 . S
C1251 C1253 1.561 . S
C1251 C1254 1.526 . S
C1252 H1236 0.959 . S
C1252 H1237 0.959 . S
C1252 H1238 0.961 . S
C1252 C1251 1.502 . S
C1253 H1239 0.960 . S
C1253 H1240 0.961 . S
C1253 H1241 0.959 . S
C1253 C1251 1.561 . S
C1254 C1251 1.526 . S
C1254 C1255 1.396 . S
C1254 C1259 1.390 . S
C1255 C1249 1.465 . S
C1255 C1254 1.396 . S
C1255 C1256 1.399 . S
C1256 H1242 0.929 . S
C1256 C1255 1.399 . S
C1256 C1257 1.385 . S
C1257 H1243 0.931 . S
C1257 C1256 1.385 . S
C1257 C1258 1.389 . S
C1258 C1257 1.389 . S
C1258 C1259 1.387 . S
C1259 H1244 0.930 . S
C1259 C1254 1.390 . S
C1259 C1258 1.387 . S
H1260 C1272 0.930 . S
H1261 C1274 0.930 . S
H1262 C1275 0.930 . S
H1263 C1279 0.959 . S
H1264 C1279 0.959 . S
H1265 C1279 0.961 1_565 S
H1266 C1280 0.960 . S
H1267 C1280 0.961 . S
H1268 C1280 0.959 . S
H1269 C1283 0.929 . S
H1270 C1284 0.931 . S
H1271 C1286 0.930 . S
C1272 H1260 0.930 . S
C1272 C1273 1.399 . S
C1272 C1277 1.399 . S
C1273 C1272 1.399 . S
C1273 C1274 1.376 . S
C1274 H1261 0.930 . S
C1274 C1273 1.376 . S
C1274 C1275 1.388 . S
C1275 H1262 0.930 . S
C1275 C1274 1.388 . S
C1275 C1276 1.390 . S
C1276 C1275 1.390 . S
C1276 C1277 1.394 . S
C1276 C1282 1.465 1_565 S
C1277 C1272 1.399 . S
C1277 C1276 1.394 . S
C1277 C1278 1.516 . S
C1278 C1277 1.516 . S
C1278 C1279 1.502 1_565 S
C1278 C1280 1.561 . S
C1278 C1281 1.526 1_565 S
C1279 H1263 0.959 . S
C1279 H1264 0.959 . S
C1279 H1265 0.961 1_545 S
C1279 C1278 1.502 1_545 S
C1280 H1266 0.960 . S
C1280 H1267 0.961 . S
C1280 H1268 0.959 . S
C1280 C1278 1.561 . S
C1281 C1278 1.526 1_545 S
C1281 C1282 1.396 . S
C1281 C1286 1.390 . S
C1282 C1276 1.465 1_545 S
C1282 C1281 1.396 . S
C1282 C1283 1.399 . S
C1283 H1269 0.929 . S
C1283 C1282 1.399 . S
C1283 C1284 1.385 . S
C1284 H1270 0.931 . S
C1284 C1283 1.385 . S
C1284 C1285 1.389 . S
C1285 C1284 1.389 . S
C1285 C1286 1.387 . S
C1286 H1271 0.930 . S
C1286 C1281 1.390 . S
C1286 C1285 1.387 . S
H1287 C1299 0.930 . S
H1288 C1301 0.930 . S
H1289 C1302 0.930 . S
H1290 C1306 0.959 . S
H1291 C1306 0.959 . S
H1292 C1306 0.961 . S
H1293 C1307 0.960 . S
H1294 C1307 0.961 . S
H1295 C1307 0.959 . S
H1296 C1310 0.929 . S
H1297 C1311 0.931 . S
H1298 C1313 0.930 . S
C1299 H1287 0.930 . S
C1299 C1300 1.399 . S
C1299 C1304 1.399 . S
C1300 C1299 1.399 . S
C1300 C1301 1.376 . S
C1301 H1288 0.930 . S
C1301 C1300 1.376 . S
C1301 C1302 1.388 . S
C1302 H1289 0.930 . S
C1302 C1301 1.388 . S
C1302 C1303 1.390 . S
C1303 C1302 1.390 . S
C1303 C1304 1.394 . S
C1303 C1309 1.465 . S
C1304 C1299 1.399 . S
C1304 C1303 1.394 . S
C1304 C1305 1.516 . S
C1305 C1304 1.516 . S
C1305 C1306 1.502 . S
C1305 C1307 1.561 . S
C1305 C1308 1.526 . S
C1306 H1290 0.959 . S
C1306 H1291 0.959 . S
C1306 H1292 0.961 . S
C1306 C1305 1.502 . S
C1307 H1293 0.960 . S
C1307 H1294 0.961 . S
C1307 H1295 0.959 . S
C1307 C1305 1.561 . S
C1308 C1305 1.526 . S
C1308 C1309 1.396 . S
C1308 C1313 1.390 . S
C1309 C1303 1.465 . S
C1309 C1308 1.396 . S
C1309 C1310 1.399 . S
C1310 H1296 0.929 . S
C1310 C1309 1.399 . S
C1310 C1311 1.385 . S
C1311 H1297 0.931 . S
C1311 C1310 1.385 . S
C1311 C1312 1.389 . S
C1312 C1311 1.389 . S
C1312 C1313 1.387 . S
C1313 H1298 0.930 . S
C1313 C1308 1.390 . S
C1313 C1312 1.387 . S
H1314 C1326 0.930 . S
H1315 C1328 0.930 . S
H1316 C1329 0.930 . S
H1317 C1333 0.959 . S
H1318 C1333 0.959 . S
H1319 C1333 0.961 . S
H1320 C1334 0.960 . S
H1321 C1334 0.961 . S
H1322 C1334 0.959 . S
H1323 C1337 0.929 . S
H1324 C1338 0.931 . S
H1325 C1340 0.930 . S
C1326 H1314 0.930 . S
C1326 C1327 1.399 . S
C1326 C1331 1.399 . S
C1327 C1326 1.399 . S
C1327 C1328 1.376 . S
C1328 H1315 0.930 . S
C1328 C1327 1.376 . S
C1328 C1329 1.388 . S
C1329 H1316 0.930 . S
C1329 C1328 1.388 . S
C1329 C1330 1.390 . S
C1330 C1329 1.390 . S
C1330 C1331 1.394 . S
C1330 C1336 1.465 . S
C1331 C1326 1.399 . S
C1331 C1330 1.394 . S
C1331 C1332 1.516 . S
C1332 C1331 1.516 . S
C1332 C1333 1.502 . S
C1332 C1334 1.561 . S
C1332 C1335 1.526 . S
C1333 H1317 0.959 . S
C1333 H1318 0.959 . S
C1333 H1319 0.961 . S
C1333 C1332 1.502 . S
C1334 H1320 0.960 . S
C1334 H1321 0.961 . S
C1334 H1322 0.959 . S
C1334 C1332 1.561 . S
C1335 C1332 1.526 . S
C1335 C1336 1.396 . S
C1335 C1340 1.390 . S
C1336 C1330 1.465 . S
C1336 C1335 1.396 . S
C1336 C1337 1.399 . S
C1337 H1323 0.929 . S
C1337 C1336 1.399 . S
C1337 C1338 1.385 . S
C1338 H1324 0.931 . S
C1338 C1337 1.385 . S
C1338 C1339 1.389 . S
C1339 C1338 1.389 . S
C1339 C1340 1.387 . S
C1340 H1325 0.930 . S
C1340 C1335 1.390 . S
C1340 C1339 1.387 . S
H1341 C1353 0.930 . S
H1342 C1355 0.930 . S
H1343 C1356 0.930 . S
H1344 C1360 0.959 . S
H1345 C1360 0.959 . S
H1346 C1360 0.961 . S
H1347 C1361 0.960 . S
H1348 C1361 0.961 . S
H1349 C1361 0.959 . S
H1350 C1364 0.929 . S
H1351 C1365 0.931 . S
H1352 C1367 0.930 . S
C1353 H1341 0.930 . S
C1353 C1354 1.399 . S
C1353 C1358 1.399 . S
C1354 C1353 1.399 . S
C1354 C1355 1.376 . S
C1355 H1342 0.930 . S
C1355 C1354 1.376 . S
C1355 C1356 1.388 . S
C1356 H1343 0.930 . S
C1356 C1355 1.388 . S
C1356 C1357 1.390 . S
C1357 C1356 1.390 . S
C1357 C1358 1.394 . S
C1357 C1363 1.465 . S
C1358 C1353 1.399 . S
C1358 C1357 1.394 . S
C1358 C1359 1.516 . S
C1359 C1358 1.516 . S
C1359 C1360 1.502 . S
C1359 C1361 1.561 . S
C1359 C1362 1.526 . S
C1360 H1344 0.959 . S
C1360 H1345 0.959 . S
C1360 H1346 0.961 . S
C1360 C1359 1.502 . S
C1361 H1347 0.960 . S
C1361 H1348 0.961 . S
C1361 H1349 0.959 . S
C1361 C1359 1.561 . S
C1362 C1359 1.526 . S
C1362 C1363 1.396 . S
C1362 C1367 1.390 . S
C1363 C1357 1.465 . S
C1363 C1362 1.396 . S
C1363 C1364 1.399 . S
C1364 H1350 0.929 . S
C1364 C1363 1.399 . S
C1364 C1365 1.385 . S
C1365 H1351 0.931 . S
C1365 C1364 1.385 . S
C1365 C1366 1.389 . S
C1366 C1365 1.389 . S
C1366 C1367 1.387 . S
C1367 H1352 0.930 . S
C1367 C1362 1.390 . S
C1367 C1366 1.387 . S
H1368 C1380 0.930 . S
H1369 C1382 0.930 . S
H1370 C1383 0.930 . S
H1371 C1387 0.959 . S
H1372 C1387 0.959 . S
H1373 C1387 0.961 . S
H1374 C1388 0.960 . S
H1375 C1388 0.961 . S
H1376 C1388 0.959 . S
H1377 C1391 0.929 . S
H1378 C1392 0.931 . S
H1379 C1394 0.930 . S
C1380 H1368 0.930 . S
C1380 C1381 1.399 . S
C1380 C1385 1.399 . S
C1381 C1380 1.399 . S
C1381 C1382 1.376 . S
C1382 H1369 0.930 . S
C1382 C1381 1.376 . S
C1382 C1383 1.388 . S
C1383 H1370 0.930 . S
C1383 C1382 1.388 . S
C1383 C1384 1.390 . S
C1384 C1383 1.390 . S
C1384 C1385 1.394 . S
C1384 C1390 1.465 . S
C1385 C1380 1.399 . S
C1385 C1384 1.394 . S
C1385 C1386 1.516 . S
C1386 C1385 1.516 . S
C1386 C1387 1.502 . S
C1386 C1388 1.561 . S
C1386 C1389 1.526 . S
C1387 H1371 0.959 . S
C1387 H1372 0.959 . S
C1387 H1373 0.961 . S
C1387 C1386 1.502 . S
C1388 H1374 0.960 . S
C1388 H1375 0.961 . S
C1388 H1376 0.959 . S
C1388 C1386 1.561 . S
C1389 C1386 1.526 . S
C1389 C1390 1.396 . S
C1389 C1394 1.390 . S
C1390 C1384 1.465 . S
C1390 C1389 1.396 . S
C1390 C1391 1.399 . S
C1391 H1377 0.929 . S
C1391 C1390 1.399 . S
C1391 C1392 1.385 . S
C1392 H1378 0.931 . S
C1392 C1391 1.385 . S
C1392 C1393 1.389 . S
C1393 C1392 1.389 . S
C1393 C1394 1.387 . S
C1394 H1379 0.930 . S
C1394 C1389 1.390 . S
C1394 C1393 1.387 . S
H1395 C1407 0.930 . S
H1396 C1409 0.930 . S
H1397 C1410 0.930 . S
H1398 C1414 0.959 . S
H1399 C1414 0.959 . S
H1400 C1414 0.961 . S
H1401 C1415 0.960 . S
H1402 C1415 0.961 . S
H1403 C1415 0.959 . S
H1404 C1418 0.929 . S
H1405 C1419 0.931 . S
H1406 C1421 0.930 . S
C1407 H1395 0.930 . S
C1407 C1408 1.399 . S
C1407 C1412 1.399 . S
C1408 C1407 1.399 . S
C1408 C1409 1.376 . S
C1409 H1396 0.930 . S
C1409 C1408 1.376 . S
C1409 C1410 1.388 . S
C1410 H1397 0.930 . S
C1410 C1409 1.388 . S
C1410 C1411 1.390 . S
C1411 C1410 1.390 . S
C1411 C1412 1.394 . S
C1411 C1417 1.465 . S
C1412 C1407 1.399 . S
C1412 C1411 1.394 . S
C1412 C1413 1.516 . S
C1413 C1412 1.516 . S
C1413 C1414 1.502 . S
C1413 C1415 1.561 . S
C1413 C1416 1.526 . S
C1414 H1398 0.959 . S
C1414 H1399 0.959 . S
C1414 H1400 0.961 . S
C1414 C1413 1.502 . S
C1415 H1401 0.960 . S
C1415 H1402 0.961 . S
C1415 H1403 0.959 . S
C1415 C1413 1.561 . S
C1416 C1413 1.526 . S
C1416 C1417 1.396 . S
C1416 C1421 1.390 . S
C1417 C1411 1.465 . S
C1417 C1416 1.396 . S
C1417 C1418 1.399 . S
C1418 H1404 0.929 . S
C1418 C1417 1.399 . S
C1418 C1419 1.385 . S
C1419 H1405 0.931 . S
C1419 C1418 1.385 . S
C1419 C1420 1.389 . S
C1420 C1419 1.389 . S
C1420 C1421 1.387 . S
C1421 H1406 0.930 . S
C1421 C1416 1.390 . S
C1421 C1420 1.387 . S
H1422 C1434 0.930 . S
H1423 C1436 0.930 . S
H1424 C1437 0.930 . S
H1425 C1441 0.959 . S
H1426 C1441 0.959 . S
H1427 C1441 0.961 . S
H1428 C1442 0.960 . S
H1429 C1442 0.961 . S
H1430 C1442 0.959 . S
H1431 C1445 0.929 . S
H1432 C1446 0.931 . S
H1433 C1448 0.930 . S
C1434 H1422 0.930 . S
C1434 C1435 1.399 . S
C1434 C1439 1.399 . S
C1435 C1434 1.399 . S
C1435 C1436 1.376 . S
C1436 H1423 0.930 . S
C1436 C1435 1.376 . S
C1436 C1437 1.388 . S
C1437 H1424 0.930 . S
C1437 C1436 1.388 . S
C1437 C1438 1.390 . S
C1438 C1437 1.390 . S
C1438 C1439 1.394 . S
C1438 C1444 1.465 . S
C1439 C1434 1.399 . S
C1439 C1438 1.394 . S
C1439 C1440 1.516 . S
C1440 C1439 1.516 . S
C1440 C1441 1.502 . S
C1440 C1442 1.561 . S
C1440 C1443 1.526 . S
C1441 H1425 0.959 . S
C1441 H1426 0.959 . S
C1441 H1427 0.961 . S
C1441 C1440 1.502 . S
C1442 H1428 0.960 . S
C1442 H1429 0.961 . S
C1442 H1430 0.959 . S
C1442 C1440 1.561 . S
C1443 C1440 1.526 . S
C1443 C1444 1.396 . S
C1443 C1448 1.390 . S
C1444 C1438 1.465 . S
C1444 C1443 1.396 . S
C1444 C1445 1.399 . S
C1445 H1431 0.929 . S
C1445 C1444 1.399 . S
C1445 C1446 1.385 . S
C1446 H1432 0.931 . S
C1446 C1445 1.385 . S
C1446 C1447 1.389 . S
C1447 C1446 1.389 . S
C1447 C1448 1.387 . S
C1448 H1433 0.930 . S
C1448 C1443 1.390 . S
C1448 C1447 1.387 . S
H1449 C1461 0.930 . S
H1450 C1463 0.930 . S
H1451 C1464 0.930 . S
H1452 C1468 0.959 . S
H1453 C1468 0.959 . S
H1454 C1468 0.961 . S
H1455 C1469 0.960 . S
H1456 C1469 0.961 . S
H1457 C1469 0.959 . S
H1458 C1472 0.929 . S
H1459 C1473 0.931 . S
H1460 C1475 0.930 . S
C1461 H1449 0.930 . S
C1461 C1462 1.399 . S
C1461 C1466 1.399 . S
C1462 C1461 1.399 . S
C1462 C1463 1.376 . S
C1463 H1450 0.930 . S
C1463 C1462 1.376 . S
C1463 C1464 1.388 . S
C1464 H1451 0.930 . S
C1464 C1463 1.388 . S
C1464 C1465 1.390 . S
C1465 C1464 1.390 . S
C1465 C1466 1.394 . S
C1465 C1471 1.465 . S
C1466 C1461 1.399 . S
C1466 C1465 1.394 . S
C1466 C1467 1.516 . S
C1467 C1466 1.516 . S
C1467 C1468 1.502 . S
C1467 C1469 1.561 . S
C1467 C1470 1.526 . S
C1468 H1452 0.959 . S
C1468 H1453 0.959 . S
C1468 H1454 0.961 . S
C1468 C1467 1.502 . S
C1469 H1455 0.960 . S
C1469 H1456 0.961 . S
C1469 H1457 0.959 . S
C1469 C1467 1.561 . S
C1470 C1467 1.526 . S
C1470 C1471 1.396 . S
C1470 C1475 1.390 . S
C1471 C1465 1.465 . S
C1471 C1470 1.396 . S
C1471 C1472 1.399 . S
C1472 H1458 0.929 . S
C1472 C1471 1.399 . S
C1472 C1473 1.385 . S
C1473 H1459 0.931 . S
C1473 C1472 1.385 . S
C1473 C1474 1.389 . S
C1474 C1473 1.389 . S
C1474 C1475 1.387 . S
C1475 H1460 0.930 . S
C1475 C1470 1.390 . S
C1475 C1474 1.387 . S
H1476 C1488 0.930 . S
H1477 C1490 0.930 . S
H1478 C1491 0.930 . S
H1479 C1495 0.959 . S
H1480 C1495 0.959 . S
H1481 C1495 0.961 . S
H1482 C1496 0.960 . S
H1483 C1496 0.961 . S
H1484 C1496 0.959 . S
H1485 C1499 0.929 . S
H1486 C1500 0.931 . S
H1487 C1502 0.930 . S
C1488 H1476 0.930 . S
C1488 C1489 1.399 . S
C1488 C1493 1.399 . S
C1489 C1488 1.399 . S
C1489 C1490 1.376 . S
C1490 H1477 0.930 . S
C1490 C1489 1.376 . S
C1490 C1491 1.388 . S
C1491 H1478 0.930 . S
C1491 C1490 1.388 . S
C1491 C1492 1.390 . S
C1492 C1491 1.390 . S
C1492 C1493 1.394 . S
C1492 C1498 1.465 . S
C1493 C1488 1.399 . S
C1493 C1492 1.394 . S
C1493 C1494 1.516 . S
C1494 C1493 1.516 . S
C1494 C1495 1.502 . S
C1494 C1496 1.561 . S
C1494 C1497 1.526 . S
C1495 H1479 0.959 . S
C1495 H1480 0.959 . S
C1495 H1481 0.961 . S
C1495 C1494 1.502 . S
C1496 H1482 0.960 . S
C1496 H1483 0.961 . S
C1496 H1484 0.959 . S
C1496 C1494 1.561 . S
C1497 C1494 1.526 . S
C1497 C1498 1.396 . S
C1497 C1502 1.390 . S
C1498 C1492 1.465 . S
C1498 C1497 1.396 . S
C1498 C1499 1.399 . S
C1499 H1485 0.929 . S
C1499 C1498 1.399 . S
C1499 C1500 1.385 . S
C1500 H1486 0.931 . S
C1500 C1499 1.385 . S
C1500 C1501 1.389 . S
C1501 C1500 1.389 . S
C1501 C1502 1.387 . S
C1502 H1487 0.930 . S
C1502 C1497 1.390 . S
C1502 C1501 1.387 . S
H1503 C1515 0.930 . S
H1504 C1517 0.930 . S
H1505 C1518 0.930 . S
H1506 C1522 0.959 . S
H1507 C1522 0.959 . S
H1508 C1522 0.961 . S
H1509 C1523 0.960 . S
H1510 C1523 0.961 . S
H1511 C1523 0.959 . S
H1512 C1526 0.929 . S
H1513 C1527 0.931 . S
H1514 C1529 0.930 . S
C1515 H1503 0.930 . S
C1515 C1516 1.399 . S
C1515 C1520 1.399 . S
C1516 C1515 1.399 . S
C1516 C1517 1.376 . S
C1517 H1504 0.930 . S
C1517 C1516 1.376 . S
C1517 C1518 1.388 . S
C1518 H1505 0.930 . S
C1518 C1517 1.388 . S
C1518 C1519 1.390 . S
C1519 C1518 1.390 . S
C1519 C1520 1.394 . S
C1519 C1525 1.465 . S
C1520 C1515 1.399 . S
C1520 C1519 1.394 . S
C1520 C1521 1.516 . S
C1521 C1520 1.516 . S
C1521 C1522 1.502 . S
C1521 C1523 1.561 . S
C1521 C1524 1.526 . S
C1522 H1506 0.959 . S
C1522 H1507 0.959 . S
C1522 H1508 0.961 . S
C1522 C1521 1.502 . S
C1523 H1509 0.960 . S
C1523 H1510 0.961 . S
C1523 H1511 0.959 . S
C1523 C1521 1.561 . S
C1524 C1521 1.526 . S
C1524 C1525 1.396 . S
C1524 C1529 1.390 . S
C1525 C1519 1.465 . S
C1525 C1524 1.396 . S
C1525 C1526 1.399 . S
C1526 H1512 0.929 . S
C1526 C1525 1.399 . S
C1526 C1527 1.385 . S
C1527 H1513 0.931 . S
C1527 C1526 1.385 . S
C1527 C1528 1.389 . S
C1528 C1527 1.389 . S
C1528 C1529 1.387 . S
C1529 H1514 0.930 . S
C1529 C1524 1.390 . S
C1529 C1528 1.387 . S
H1530 C1542 0.930 . S
H1531 C1544 0.930 . S
H1532 C1545 0.930 . S
H1533 C1549 0.959 . S
H1534 C1549 0.959 . S
H1535 C1549 0.961 . S
H1536 C1550 0.960 . S
H1537 C1550 0.961 . S
H1538 C1550 0.959 . S
H1539 C1553 0.929 . S
H1540 C1554 0.931 . S
H1541 C1556 0.930 . S
C1542 H1530 0.930 . S
C1542 C1543 1.399 . S
C1542 C1547 1.399 . S
C1543 C1542 1.399 . S
C1543 C1544 1.376 . S
C1544 H1531 0.930 . S
C1544 C1543 1.376 . S
C1544 C1545 1.388 . S
C1545 H1532 0.930 . S
C1545 C1544 1.388 . S
C1545 C1546 1.390 . S
C1546 C1545 1.390 . S
C1546 C1547 1.394 . S
C1546 C1552 1.465 . S
C1547 C1542 1.399 . S
C1547 C1546 1.394 . S
C1547 C1548 1.516 . S
C1548 C1547 1.516 . S
C1548 C1549 1.502 . S
C1548 C1550 1.561 . S
C1548 C1551 1.526 . S
C1549 H1533 0.959 . S
C1549 H1534 0.959 . S
C1549 H1535 0.961 . S
C1549 C1548 1.502 . S
C1550 H1536 0.960 . S
C1550 H1537 0.961 . S
C1550 H1538 0.959 . S
C1550 C1548 1.561 . S
C1551 C1548 1.526 . S
C1551 C1552 1.396 . S
C1551 C1556 1.390 . S
C1552 C1546 1.465 . S
C1552 C1551 1.396 . S
C1552 C1553 1.399 . S
C1553 H1539 0.929 . S
C1553 C1552 1.399 . S
C1553 C1554 1.385 1_655 S
C1554 H1540 0.931 . S
C1554 C1553 1.385 1_455 S
C1554 C1555 1.389 . S
C1555 C1554 1.389 . S
C1555 C1556 1.387 1_455 S
C1556 H1541 0.930 . S
C1556 C1551 1.390 . S
C1556 C1555 1.387 1_655 S
H1557 C1569 0.930 . S
H1558 C1571 0.930 . S
H1559 C1572 0.930 . S
H1560 C1576 0.959 . S
H1561 C1576 0.959 . S
H1562 C1576 0.961 . S
H1563 C1577 0.960 . S
H1564 C1577 0.961 . S
H1565 C1577 0.959 . S
H1566 C1580 0.929 . S
H1567 C1581 0.931 . S
H1568 C1583 0.930 . S
C1569 H1557 0.930 . S
C1569 C1570 1.399 . S
C1569 C1574 1.399 . S
C1570 C1569 1.399 . S
C1570 C1571 1.376 . S
C1571 H1558 0.930 . S
C1571 C1570 1.376 . S
C1571 C1572 1.388 . S
C1572 H1559 0.930 . S
C1572 C1571 1.388 . S
C1572 C1573 1.390 . S
C1573 C1572 1.390 . S
C1573 C1574 1.394 . S
C1573 C1579 1.465 . S
C1574 C1569 1.399 . S
C1574 C1573 1.394 . S
C1574 C1575 1.516 . S
C1575 C1574 1.516 . S
C1575 C1576 1.502 . S
C1575 C1577 1.561 . S
C1575 C1578 1.526 . S
C1576 H1560 0.959 . S
C1576 H1561 0.959 . S
C1576 H1562 0.961 . S
C1576 C1575 1.502 . S
C1577 H1563 0.960 . S
C1577 H1564 0.961 . S
C1577 H1565 0.959 . S
C1577 C1575 1.561 . S
C1578 C1575 1.526 . S
C1578 C1579 1.396 . S
C1578 C1583 1.390 . S
C1579 C1573 1.465 . S
C1579 C1578 1.396 . S
C1579 C1580 1.399 . S
C1580 H1566 0.929 . S
C1580 C1579 1.399 . S
C1580 C1581 1.385 . S
C1581 H1567 0.931 . S
C1581 C1580 1.385 . S
C1581 C1582 1.389 . S
C1582 C1581 1.389 . S
C1582 C1583 1.387 . S
C1583 H1568 0.930 . S
C1583 C1578 1.390 . S
C1583 C1582 1.387 . S
H1584 C1596 0.930 . S
H1585 C1598 0.930 . S
H1586 C1599 0.930 . S
H1587 C1603 0.959 . S
H1588 C1603 0.959 . S
H1589 C1603 0.961 . S
H1590 C1604 0.960 . S
H1591 C1604 0.961 . S
H1592 C1604 0.959 . S
H1593 C1607 0.929 . S
H1594 C1608 0.931 . S
H1595 C1610 0.930 . S
C1596 H1584 0.930 . S
C1596 C1597 1.399 . S
C1596 C1601 1.399 . S
C1597 C1596 1.399 . S
C1597 C1598 1.376 . S
C1598 H1585 0.930 . S
C1598 C1597 1.376 . S
C1598 C1599 1.388 . S
C1599 H1586 0.930 . S
C1599 C1598 1.388 . S
C1599 C1600 1.390 . S
C1600 C1599 1.390 . S
C1600 C1601 1.394 . S
C1600 C1606 1.465 . S
C1601 C1596 1.399 . S
C1601 C1600 1.394 . S
C1601 C1602 1.516 . S
C1602 C1601 1.516 . S
C1602 C1603 1.502 . S
C1602 C1604 1.561 . S
C1602 C1605 1.526 . S
C1603 H1587 0.959 . S
C1603 H1588 0.959 . S
C1603 H1589 0.961 . S
C1603 C1602 1.502 . S
C1604 H1590 0.960 . S
C1604 H1591 0.961 . S
C1604 H1592 0.959 . S
C1604 C1602 1.561 . S
C1605 C1602 1.526 . S
C1605 C1606 1.396 . S
C1605 C1610 1.390 . S
C1606 C1600 1.465 . S
C1606 C1605 1.396 . S
C1606 C1607 1.399 . S
C1607 H1593 0.929 . S
C1607 C1606 1.399 . S
C1607 C1608 1.385 . S
C1608 H1594 0.931 . S
C1608 C1607 1.385 . S
C1608 C1609 1.389 . S
C1609 C1608 1.389 . S
C1609 C1610 1.387 . S
C1610 H1595 0.930 . S
C1610 C1605 1.390 . S
C1610 C1609 1.387 . S
H1611 C1623 0.930 . S
H1612 C1625 0.930 . S
H1613 C1626 0.930 . S
H1614 C1630 0.959 . S
H1615 C1630 0.959 . S
H1616 C1630 0.961 . S
H1617 C1631 0.960 . S
H1618 C1631 0.961 . S
H1619 C1631 0.959 . S
H1620 C1634 0.929 . S
H1621 C1635 0.931 . S
H1622 C1637 0.930 . S
C1623 H1611 0.930 . S
C1623 C1624 1.399 . S
C1623 C1628 1.399 . S
C1624 C1623 1.399 . S
C1624 C1625 1.376 . S
C1625 H1612 0.930 . S
C1625 C1624 1.376 . S
C1625 C1626 1.388 . S
C1626 H1613 0.930 . S
C1626 C1625 1.388 . S
C1626 C1627 1.390 . S
C1627 C1626 1.390 . S
C1627 C1628 1.394 . S
C1627 C1633 1.465 . S
C1628 C1623 1.399 . S
C1628 C1627 1.394 . S
C1628 C1629 1.516 . S
C1629 C1628 1.516 . S
C1629 C1630 1.502 . S
C1629 C1631 1.561 . S
C1629 C1632 1.526 . S
C1630 H1614 0.959 . S
C1630 H1615 0.959 . S
C1630 H1616 0.961 . S
C1630 C1629 1.502 . S
C1631 H1617 0.960 . S
C1631 H1618 0.961 . S
C1631 H1619 0.959 . S
C1631 C1629 1.561 . S
C1632 C1629 1.526 . S
C1632 C1633 1.396 . S
C1632 C1637 1.390 . S
C1633 C1627 1.465 . S
C1633 C1632 1.396 . S
C1633 C1634 1.399 . S
C1634 H1620 0.929 . S
C1634 C1633 1.399 . S
C1634 C1635 1.385 . S
C1635 H1621 0.931 . S
C1635 C1634 1.385 . S
C1635 C1636 1.389 . S
C1636 C1635 1.389 . S
C1636 C1637 1.387 . S
C1637 H1622 0.930 . S
C1637 C1632 1.390 . S
C1637 C1636 1.387 . S
H1638 C1650 0.930 . S
H1639 C1652 0.930 . S
H1640 C1653 0.930 . S
H1641 C1657 0.959 . S
H1642 C1657 0.959 . S
H1643 C1657 0.961 . S
H1644 C1658 0.960 . S
H1645 C1658 0.961 . S
H1646 C1658 0.959 . S
H1647 C1661 0.929 . S
H1648 C1662 0.931 . S
H1649 C1664 0.930 . S
C1650 H1638 0.930 . S
C1650 C1651 1.399 . S
C1650 C1655 1.399 . S
C1651 C1650 1.399 . S
C1651 C1652 1.376 . S
C1652 H1639 0.930 . S
C1652 C1651 1.376 . S
C1652 C1653 1.388 . S
C1653 H1640 0.930 . S
C1653 C1652 1.388 . S
C1653 C1654 1.390 . S
C1654 C1653 1.390 . S
C1654 C1655 1.394 . S
C1654 C1660 1.465 . S
C1655 C1650 1.399 . S
C1655 C1654 1.394 . S
C1655 C1656 1.516 . S
C1656 C1655 1.516 . S
C1656 C1657 1.502 . S
C1656 C1658 1.561 . S
C1656 C1659 1.526 . S
C1657 H1641 0.959 . S
C1657 H1642 0.959 . S
C1657 H1643 0.961 . S
C1657 C1656 1.502 . S
C1658 H1644 0.960 . S
C1658 H1645 0.961 . S
C1658 H1646 0.959 . S
C1658 C1656 1.561 . S
C1659 C1656 1.526 . S
C1659 C1660 1.396 . S
C1659 C1664 1.390 . S
C1660 C1654 1.465 . S
C1660 C1659 1.396 . S
C1660 C1661 1.399 . S
C1661 H1647 0.929 . S
C1661 C1660 1.399 . S
C1661 C1662 1.385 . S
C1662 H1648 0.931 . S
C1662 C1661 1.385 . S
C1662 C1663 1.389 . S
C1663 C1662 1.389 . S
C1663 C1664 1.387 . S
C1664 H1649 0.930 . S
C1664 C1659 1.390 . S
C1664 C1663 1.387 . S
H1665 C1677 0.930 . S
H1666 C1679 0.930 . S
H1667 C1680 0.930 . S
H1668 C1684 0.959 . S
H1669 C1684 0.959 . S
H1670 C1684 0.961 . S
H1671 C1685 0.960 . S
H1672 C1685 0.961 . S
H1673 C1685 0.959 . S
H1674 C1688 0.929 . S
H1675 C1689 0.931 . S
H1676 C1691 0.930 . S
C1677 H1665 0.930 . S
C1677 C1678 1.399 . S
C1677 C1682 1.399 . S
C1678 C1677 1.399 . S
C1678 C1679 1.376 . S
C1679 H1666 0.930 . S
C1679 C1678 1.376 . S
C1679 C1680 1.388 . S
C1680 H1667 0.930 . S
C1680 C1679 1.388 . S
C1680 C1681 1.390 . S
C1681 C1680 1.390 . S
C1681 C1682 1.394 . S
C1681 C1687 1.465 . S
C1682 C1677 1.399 . S
C1682 C1681 1.394 . S
C1682 C1683 1.516 . S
C1683 C1682 1.516 . S
C1683 C1684 1.502 . S
C1683 C1685 1.561 . S
C1683 C1686 1.526 . S
C1684 H1668 0.959 . S
C1684 H1669 0.959 . S
C1684 H1670 0.961 . S
C1684 C1683 1.502 . S
C1685 H1671 0.960 . S
C1685 H1672 0.961 . S
C1685 H1673 0.959 . S
C1685 C1683 1.561 . S
C1686 C1683 1.526 . S
C1686 C1687 1.396 . S
C1686 C1691 1.390 . S
C1687 C1681 1.465 . S
C1687 C1686 1.396 . S
C1687 C1688 1.399 . S
C1688 H1674 0.929 . S
C1688 C1687 1.399 . S
C1688 C1689 1.385 . S
C1689 H1675 0.931 . S
C1689 C1688 1.385 . S
C1689 C1690 1.389 . S
C1690 C1689 1.389 . S
C1690 C1691 1.387 . S
C1691 H1676 0.930 . S
C1691 C1686 1.390 . S
C1691 C1690 1.387 . S
H1692 C1704 0.930 . S
H1693 C1706 0.930 . S
H1694 C1707 0.930 . S
H1695 C1711 0.959 . S
H1696 C1711 0.959 . S
H1697 C1711 0.961 . S
H1698 C1712 0.960 . S
H1699 C1712 0.961 . S
H1700 C1712 0.959 . S
H1701 C1715 0.929 . S
H1702 C1716 0.931 . S
H1703 C1718 0.930 . S
C1704 H1692 0.930 . S
C1704 C1705 1.399 . S
C1704 C1709 1.399 . S
C1705 C1704 1.399 . S
C1705 C1706 1.376 . S
C1706 H1693 0.930 . S
C1706 C1705 1.376 . S
C1706 C1707 1.388 . S
C1707 H1694 0.930 . S
C1707 C1706 1.388 . S
C1707 C1708 1.390 . S
C1708 C1707 1.390 . S
C1708 C1709 1.394 . S
C1708 C1714 1.465 . S
C1709 C1704 1.399 . S
C1709 C1708 1.394 . S
C1709 C1710 1.516 . S
C1710 C1709 1.516 . S
C1710 C1711 1.502 . S
C1710 C1712 1.561 1_545 S
C1710 C1713 1.526 . S
C1711 H1695 0.959 . S
C1711 H1696 0.959 . S
C1711 H1697 0.961 . S
C1711 C1710 1.502 . S
C1712 H1698 0.960 . S
C1712 H1699 0.961 . S
C1712 H1700 0.959 . S
C1712 C1710 1.561 1_565 S
C1713 C1710 1.526 . S
C1713 C1714 1.396 . S
C1713 C1718 1.390 . S
C1714 C1708 1.465 . S
C1714 C1713 1.396 . S
C1714 C1715 1.399 . S
C1715 H1701 0.929 . S
C1715 C1714 1.399 . S
C1715 C1716 1.385 . S
C1716 H1702 0.931 . S
C1716 C1715 1.385 . S
C1716 C1717 1.389 . S
C1717 C1716 1.389 . S
C1717 C1718 1.387 . S
C1718 H1703 0.930 . S
C1718 C1713 1.390 . S
C1718 C1717 1.387 . S
H1719 C1731 0.930 . S
H1720 C1733 0.930 . S
H1721 C1734 0.930 . S
H1722 C1738 0.959 . S
H1723 C1738 0.959 . S
H1724 C1738 0.961 . S
H1725 C1739 0.960 . S
H1726 C1739 0.944 1_565 S
H1727 C1739 0.959 . S
H1728 C1742 0.929 . S
H1729 C1743 0.931 . S
H1730 C1745 0.930 1_565 S
C1731 H1719 0.930 . S
C1731 C1732 1.399 . S
C1731 C1736 1.399 . S
C1732 C1731 1.399 . S
C1732 C1733 1.376 . S
C1733 H1720 0.930 . S
C1733 C1732 1.376 . S
C1733 C1734 1.388 . S
C1734 H1721 0.930 . S
C1734 C1733 1.388 . S
C1734 C1735 1.390 . S
C1735 C1734 1.390 . S
C1735 C1736 1.394 . S
C1735 C1741 1.465 . S
C1736 C1731 1.399 . S
C1736 C1735 1.394 . S
C1736 C1737 1.516 . S
C1737 C1736 1.516 . S
C1737 C1738 1.502 1_545 S
C1737 C1739 1.561 . S
C1737 C1740 1.526 . S
C1738 H1722 0.959 . S
C1738 H1723 0.959 . S
C1738 H1724 0.961 . S
C1738 C1737 1.502 1_565 S
C1739 H1725 0.960 . S
C1739 H1726 0.944 1_545 S
C1739 H1727 0.959 . S
C1739 C1737 1.561 . S
C1740 C1737 1.526 . S
C1740 C1741 1.396 . S
C1740 C1745 1.390 . S
C1741 C1735 1.465 . S
C1741 C1740 1.396 . S
C1741 C1742 1.399 . S
C1742 H1728 0.929 . S
C1742 C1741 1.399 . S
C1742 C1743 1.385 . S
C1743 H1729 0.931 . S
C1743 C1742 1.385 . S
C1743 C1744 1.389 . S
C1744 C1743 1.389 . S
C1744 C1745 1.387 . S
C1745 H1730 0.930 1_545 S
C1745 C1740 1.390 . S
C1745 C1744 1.387 . S
H1746 C1758 0.930 . S
H1747 C1760 0.930 . S
H1748 C1761 0.930 . S
H1749 C1765 0.959 . S
H1750 C1765 0.959 . S
H1751 C1765 0.961 . S
H1752 C1766 0.960 . S
H1753 C1766 0.961 . S
H1754 C1766 0.959 . S
H1755 C1769 0.929 . S
H1756 C1770 0.931 . S
H1757 C1772 0.930 . S
C1758 H1746 0.930 . S
C1758 C1759 1.399 . S
C1758 C1763 1.399 . S
C1759 C1758 1.399 . S
C1759 C1760 1.376 . S
C1760 H1747 0.930 . S
C1760 C1759 1.376 . S
C1760 C1761 1.388 . S
C1761 H1748 0.930 . S
C1761 C1760 1.388 . S
C1761 C1762 1.390 . S
C1762 C1761 1.390 . S
C1762 C1763 1.394 . S
C1762 C1768 1.465 . S
C1763 C1758 1.399 . S
C1763 C1762 1.394 . S
C1763 C1764 1.516 . S
C1764 C1763 1.516 . S
C1764 C1765 1.502 1_455 S
C1764 C1766 1.561 . S
C1764 C1767 1.526 . S
C1765 H1749 0.959 . S
C1765 H1750 0.959 . S
C1765 H1751 0.961 . S
C1765 C1764 1.502 1_655 S
C1766 H1752 0.960 . S
C1766 H1753 0.961 . S
C1766 H1754 0.959 . S
C1766 C1764 1.561 . S
C1767 C1764 1.526 . S
C1767 C1768 1.396 . S
C1767 C1772 1.390 . S
C1768 C1762 1.465 . S
C1768 C1767 1.396 . S
C1768 C1769 1.399 . S
C1769 H1755 0.929 . S
C1769 C1768 1.399 . S
C1769 C1770 1.385 . S
C1770 H1756 0.931 . S
C1770 C1769 1.385 . S
C1770 C1771 1.389 . S
C1771 C1770 1.389 . S
C1771 C1772 1.387 . S
C1772 H1757 0.930 . S
C1772 C1767 1.390 . S
C1772 C1771 1.387 . S
H1773 C1785 0.930 . S
H1774 C1787 0.930 . S
H1775 C1788 0.930 . S
H1776 C1792 0.959 . S
H1777 C1792 0.959 . S
H1778 C1792 0.961 . S
H1779 C1793 0.960 . S
H1780 C1793 0.961 . S
H1781 C1793 0.959 . S
H1782 C1796 0.929 . S
H1783 C1797 0.931 . S
H1784 C1799 0.930 . S
C1785 H1773 0.930 . S
C1785 C1786 1.399 . S
C1785 C1790 1.399 . S
C1786 C1785 1.399 . S
C1786 C1787 1.376 . S
C1787 H1774 0.930 . S
C1787 C1786 1.376 . S
C1787 C1788 1.388 . S
C1788 H1775 0.930 . S
C1788 C1787 1.388 . S
C1788 C1789 1.390 . S
C1789 C1788 1.390 . S
C1789 C1790 1.394 . S
C1789 C1795 1.465 . S
C1790 C1785 1.399 . S
C1790 C1789 1.394 . S
C1790 C1791 1.516 . S
C1791 C1790 1.516 . S
C1791 C1792 1.502 . S
C1791 C1793 1.561 . S
C1791 C1794 1.526 . S
C1792 H1776 0.959 . S
C1792 H1777 0.959 . S
C1792 H1778 0.961 . S
C1792 C1791 1.502 . S
C1793 H1779 0.960 . S
C1793 H1780 0.961 . S
C1793 H1781 0.959 . S
C1793 C1791 1.561 . S
C1794 C1791 1.526 . S
C1794 C1795 1.396 . S
C1794 C1799 1.390 . S
C1795 C1789 1.465 . S
C1795 C1794 1.396 . S
C1795 C1796 1.399 . S
C1796 H1782 0.929 . S
C1796 C1795 1.399 . S
C1796 C1797 1.385 . S
C1797 H1783 0.931 . S
C1797 C1796 1.385 . S
C1797 C1798 1.389 . S
C1798 C1797 1.389 . S
C1798 C1799 1.387 . S
C1799 H1784 0.930 . S
C1799 C1794 1.390 . S
C1799 C1798 1.387 . S
H1800 C1812 0.930 . S
H1801 C1814 0.930 . S
H1802 C1815 0.930 . S
H1803 C1819 0.959 . S
H1804 C1819 0.959 . S
H1805 C1819 0.961 . S
H1806 C1820 0.960 . S
H1807 C1820 0.961 . S
H1808 C1820 0.947 1_655 S
H1809 C1823 0.929 . S
H1810 C1824 0.931 . S
H1811 C1826 0.930 . S
C1812 H1800 0.930 . S
C1812 C1813 1.399 . S
C1812 C1817 1.399 . S
C1813 C1812 1.399 . S
C1813 C1814 1.376 . S
C1814 H1801 0.930 . S
C1814 C1813 1.376 . S
C1814 C1815 1.388 . S
C1815 H1802 0.930 . S
C1815 C1814 1.388 . S
C1815 C1816 1.390 . S
C1816 C1815 1.390 . S
C1816 C1817 1.394 . S
C1816 C1822 1.465 . S
C1817 C1812 1.399 . S
C1817 C1816 1.394 . S
C1817 C1818 1.516 . S
C1818 C1817 1.516 . S
C1818 C1819 1.502 . S
C1818 C1820 1.561 . S
C1818 C1821 1.526 . S
C1819 H1803 0.959 . S
C1819 H1804 0.959 . S
C1819 H1805 0.961 . S
C1819 C1818 1.502 . S
C1820 H1806 0.960 . S
C1820 H1807 0.961 . S
C1820 H1808 0.947 1_455 S
C1820 C1818 1.561 . S
C1821 C1818 1.526 . S
C1821 C1822 1.396 . S
C1821 C1826 1.390 . S
C1822 C1816 1.465 . S
C1822 C1821 1.396 . S
C1822 C1823 1.399 . S
C1823 H1809 0.929 . S
C1823 C1822 1.399 . S
C1823 C1824 1.385 . S
C1824 H1810 0.931 . S
C1824 C1823 1.385 . S
C1824 C1825 1.389 . S
C1825 C1824 1.389 . S
C1825 C1826 1.387 . S
C1826 H1811 0.930 . S
C1826 C1821 1.390 . S
C1826 C1825 1.387 . S
H1827 C1839 0.930 . S
H1828 C1841 0.930 . S
H1829 C1842 0.930 . S
H1830 C1846 0.959 . S
H1831 C1846 0.959 . S
H1832 C1846 0.961 . S
H1833 C1847 0.960 . S
H1834 C1847 0.961 . S
H1835 C1847 0.959 . S
H1836 C1850 0.929 . S
H1837 C1851 0.931 . S
H1838 C1853 0.930 . S
C1839 H1827 0.930 . S
C1839 C1840 1.399 . S
C1839 C1844 1.399 . S
C1840 C1839 1.399 . S
C1840 C1841 1.376 . S
C1841 H1828 0.930 . S
C1841 C1840 1.376 . S
C1841 C1842 1.388 . S
C1842 H1829 0.930 . S
C1842 C1841 1.388 . S
C1842 C1843 1.390 . S
C1843 C1842 1.390 . S
C1843 C1844 1.394 . S
C1843 C1849 1.465 . S
C1844 C1839 1.399 . S
C1844 C1843 1.394 . S
C1844 C1845 1.516 . S
C1845 C1844 1.516 . S
C1845 C1846 1.502 . S
C1845 C1847 1.561 . S
C1845 C1848 1.526 . S
C1846 H1830 0.959 . S
C1846 H1831 0.959 . S
C1846 H1832 0.961 . S
C1846 C1845 1.502 . S
C1847 H1833 0.960 . S
C1847 H1834 0.961 . S
C1847 H1835 0.959 . S
C1847 C1845 1.561 . S
C1848 C1845 1.526 . S
C1848 C1849 1.396 . S
C1848 C1853 1.390 . S
C1849 C1843 1.465 . S
C1849 C1848 1.396 . S
C1849 C1850 1.399 . S
C1850 H1836 0.929 . S
C1850 C1849 1.399 . S
C1850 C1851 1.385 . S
C1851 H1837 0.931 . S
C1851 C1850 1.385 . S
C1851 C1852 1.389 . S
C1852 C1851 1.389 . S
C1852 C1853 1.387 . S
C1853 H1838 0.930 . S
C1853 C1848 1.390 . S
C1853 C1852 1.387 . S
H1854 C1866 0.930 . S
H1855 C1868 0.930 . S
H1856 C1869 0.930 . S
H1857 C1873 0.959 . S
H1858 C1873 0.959 . S
H1859 C1873 0.961 . S
H1860 C1874 0.960 . S
H1861 C1874 0.961 . S
H1862 C1874 0.959 . S
H1863 C1877 0.929 . S
H1864 C1878 0.931 . S
H1865 C1880 0.930 . S
C1866 H1854 0.930 . S
C1866 C1867 1.399 . S
C1866 C1871 1.399 . S
C1867 C1866 1.399 . S
C1867 C1868 1.376 . S
C1868 H1855 0.930 . S
C1868 C1867 1.376 . S
C1868 C1869 1.388 . S
C1869 H1856 0.930 . S
C1869 C1868 1.388 . S
C1869 C1870 1.390 . S
C1870 C1869 1.390 . S
C1870 C1871 1.394 . S
C1870 C1876 1.465 . S
C1871 C1866 1.399 . S
C1871 C1870 1.394 . S
C1871 C1872 1.516 . S
C1872 C1871 1.516 . S
C1872 C1873 1.502 . S
C1872 C1874 1.561 . S
C1872 C1875 1.526 . S
C1873 H1857 0.959 . S
C1873 H1858 0.959 . S
C1873 H1859 0.961 . S
C1873 C1872 1.502 . S
C1874 H1860 0.960 . S
C1874 H1861 0.961 . S
C1874 H1862 0.959 . S
C1874 C1872 1.561 . S
C1875 C1872 1.526 . S
C1875 C1876 1.396 . S
C1875 C1880 1.390 . S
C1876 C1870 1.465 . S
C1876 C1875 1.396 . S
C1876 C1877 1.399 . S
C1877 H1863 0.929 . S
C1877 C1876 1.399 . S
C1877 C1878 1.385 . S
C1878 H1864 0.931 . S
C1878 C1877 1.385 . S
C1878 C1879 1.389 . S
C1879 C1878 1.389 . S
C1879 C1880 1.387 . S
C1880 H1865 0.930 . S
C1880 C1875 1.390 . S
C1880 C1879 1.387 . S
H1881 C1893 0.930 . S
H1882 C1895 0.930 . S
H1883 C1896 0.930 . S
H1884 C1900 0.959 . S
H1885 C1900 0.959 . S
H1886 C1900 0.961 . S
H1887 C1901 0.960 1_565 S
H1888 C1901 0.961 . S
H1889 C1901 0.959 . S
H1890 C1904 0.929 . S
H1891 C1905 0.931 . S
H1892 C1907 0.930 . S
C1893 H1881 0.930 . S
C1893 C1894 1.399 . S
C1893 C1898 1.399 . S
C1894 C1893 1.399 . S
C1894 C1895 1.376 . S
C1895 H1882 0.930 . S
C1895 C1894 1.376 . S
C1895 C1896 1.388 . S
C1896 H1883 0.930 . S
C1896 C1895 1.388 . S
C1896 C1897 1.390 . S
C1897 C1896 1.390 . S
C1897 C1898 1.394 . S
C1897 C1903 1.465 . S
C1898 C1893 1.399 . S
C1898 C1897 1.394 . S
C1898 C1899 1.516 . S
C1899 C1898 1.516 . S
C1899 C1900 1.502 . S
C1899 C1901 1.561 . S
C1899 C1902 1.526 . S
C1900 H1884 0.959 . S
C1900 H1885 0.959 . S
C1900 H1886 0.961 . S
C1900 C1899 1.502 . S
C1901 H1887 0.960 1_545 S
C1901 H1888 0.961 . S
C1901 H1889 0.959 . S
C1901 C1899 1.561 . S
C1902 C1899 1.526 . S
C1902 C1903 1.396 . S
C1902 C1907 1.390 . S
C1903 C1897 1.465 . S
C1903 C1902 1.396 . S
C1903 C1904 1.399 . S
C1904 H1890 0.929 . S
C1904 C1903 1.399 . S
C1904 C1905 1.385 . S
C1905 H1891 0.931 . S
C1905 C1904 1.385 . S
C1905 C1906 1.389 . S
C1906 C1905 1.389 . S
C1906 C1907 1.387 . S
C1907 H1892 0.930 . S
C1907 C1902 1.390 . S
C1907 C1906 1.387 . S
H1908 C1920 0.930 . S
H1909 C1922 0.930 . S
H1910 C1923 0.872 1_655 S
H1911 C1927 0.959 . S
H1912 C1927 0.959 . S
H1913 C1927 0.961 . S
H1914 C1928 0.960 . S
H1915 C1928 0.961 . S
H1916 C1928 0.959 . S
H1917 C1931 0.952 . S
H1918 C1932 0.931 . S
H1919 C1934 0.930 . S
C1920 H1908 0.930 . S
C1920 C1921 1.399 . S
C1920 C1925 1.399 . S
C1921 C1920 1.399 . S
C1921 C1922 1.376 . S
C1922 H1909 0.930 . S
C1922 C1921 1.376 . S
C1922 C1923 1.388 . S
C1923 H1910 0.872 1_455 S
C1923 C1922 1.388 . S
C1923 C1924 1.390 . S
C1924 C1923 1.390 . S
C1924 C1925 1.394 . S
C1924 C1930 1.465 . S
C1925 C1920 1.399 . S
C1925 C1924 1.394 . S
C1925 C1926 1.516 . S
C1926 C1925 1.516 . S
C1926 C1927 1.502 . S
C1926 C1928 1.561 . S
C1926 C1929 1.526 . S
C1927 H1911 0.959 . S
C1927 H1912 0.959 . S
C1927 H1913 0.961 . S
C1927 C1926 1.502 . S
C1928 H1914 0.960 . S
C1928 H1915 0.961 . S
C1928 H1916 0.959 . S
C1928 C1926 1.561 . S
C1929 C1926 1.526 . S
C1929 C1930 1.396 . S
C1929 C1934 1.390 . S
C1930 C1924 1.465 . S
C1930 C1929 1.396 . S
C1930 C1931 1.367 1_455 S
C1931 H1917 0.952 . S
C1931 C1930 1.367 1_655 S
C1931 C1932 1.395 . S
C1932 H1918 0.931 . S
C1932 C1931 1.395 . S
C1932 C1933 1.389 1_655 S
C1933 C1932 1.389 1_455 S
C1933 C1934 1.387 . S
C1934 H1919 0.930 . S
C1934 C1929 1.390 . S
C1934 C1933 1.387 . S
H1935 C1947 0.930 . S
H1936 C1949 0.930 . S
H1937 C1950 0.930 . S
H1938 C1954 0.959 . S
H1939 C1954 0.959 . S
H1940 C1954 0.961 . S
H1941 C1955 0.960 . S
H1942 C1955 0.961 . S
H1943 C1955 0.959 . S
H1944 C1958 0.929 . S
H1945 C1959 0.931 . S
H1946 C1961 0.930 . S
C1947 H1935 0.930 . S
C1947 C1948 1.399 . S
C1947 C1952 1.399 . S
C1948 C1947 1.399 . S
C1948 C1949 1.376 . S
C1949 H1936 0.930 . S
C1949 C1948 1.376 . S
C1949 C1950 1.388 . S
C1950 H1937 0.930 . S
C1950 C1949 1.388 . S
C1950 C1951 1.390 . S
C1951 C1950 1.390 . S
C1951 C1952 1.394 . S
C1951 C1957 1.465 . S
C1952 C1947 1.399 . S
C1952 C1951 1.394 . S
C1952 C1953 1.516 . S
C1953 C1952 1.516 . S
C1953 C1954 1.502 . S
C1953 C1955 1.561 . S
C1953 C1956 1.526 . S
C1954 H1938 0.959 . S
C1954 H1939 0.959 . S
C1954 H1940 0.961 . S
C1954 C1953 1.502 . S
C1955 H1941 0.960 . S
C1955 H1942 0.961 . S
C1955 H1943 0.959 . S
C1955 C1953 1.561 . S
C1956 C1953 1.526 . S
C1956 C1957 1.396 . S
C1956 C1961 1.390 . S
C1957 C1951 1.465 . S
C1957 C1956 1.396 . S
C1957 C1958 1.399 . S
C1958 H1944 0.929 . S
C1958 C1957 1.399 . S
C1958 C1959 1.385 . S
C1959 H1945 0.931 . S
C1959 C1958 1.385 . S
C1959 C1960 1.389 . S
C1960 C1959 1.389 . S
C1960 C1961 1.387 . S
C1961 H1946 0.930 . S
C1961 C1956 1.390 . S
C1961 C1960 1.387 . S
H1962 C1974 0.930 . S
H1963 C1976 0.930 . S
H1964 C1977 0.930 . S
H1965 C1981 0.959 . S
H1966 C1981 0.959 . S
H1967 C1981 0.961 . S
H1968 C1982 0.960 . S
H1969 C1982 0.961 . S
H1970 C1982 0.959 . S
H1971 C1985 0.929 . S
H1972 C1986 0.931 . S
H1973 C1988 0.930 . S
C1974 H1962 0.930 . S
C1974 C1975 1.399 . S
C1974 C1979 1.399 . S
C1975 C1974 1.399 . S
C1975 C1976 1.376 . S
C1976 H1963 0.930 . S
C1976 C1975 1.376 . S
C1976 C1977 1.388 . S
C1977 H1964 0.930 . S
C1977 C1976 1.388 . S
C1977 C1978 1.390 . S
C1978 C1977 1.390 . S
C1978 C1979 1.394 . S
C1978 C1984 1.465 . S
C1979 C1974 1.399 . S
C1979 C1978 1.394 . S
C1979 C1980 1.516 . S
C1980 C1979 1.516 . S
C1980 C1981 1.502 . S
C1980 C1982 1.561 . S
C1980 C1983 1.526 . S
C1981 H1965 0.959 . S
C1981 H1966 0.959 . S
C1981 H1967 0.961 . S
C1981 C1980 1.502 . S
C1982 H1968 0.960 . S
C1982 H1969 0.961 . S
C1982 H1970 0.959 . S
C1982 C1980 1.561 . S
C1983 C1980 1.526 . S
C1983 C1984 1.396 . S
C1983 C1988 1.390 . S
C1984 C1978 1.465 . S
C1984 C1983 1.396 . S
C1984 C1985 1.399 . S
C1985 H1971 0.929 . S
C1985 C1984 1.399 . S
C1985 C1986 1.385 . S
C1986 H1972 0.931 . S
C1986 C1985 1.385 . S
C1986 C1987 1.389 . S
C1987 C1986 1.389 . S
C1987 C1988 1.387 . S
C1988 H1973 0.930 . S
C1988 C1983 1.390 . S
C1988 C1987 1.387 . S
H1989 C2001 0.930 . S
H1990 C2003 0.930 . S
H1991 C2004 0.930 . S
H1992 C2008 0.959 . S
H1993 C2008 0.959 . S
H1994 C2008 0.961 . S
H1995 C2009 0.960 . S
H1996 C2009 0.961 . S
H1997 C2009 0.959 . S
H1998 C2012 0.929 . S
H1999 C2013 0.931 . S
H2000 C2015 0.930 . S
C2001 H1989 0.930 . S
C2001 C2002 1.399 . S
C2001 C2006 1.399 . S
C2002 C2001 1.399 . S
C2002 C2003 1.376 . S
C2003 H1990 0.930 . S
C2003 C2002 1.376 . S
C2003 C2004 1.388 . S
C2004 H1991 0.930 . S
C2004 C2003 1.388 . S
C2004 C2005 1.390 . S
C2005 C2004 1.390 . S
C2005 C2006 1.394 . S
C2005 C2011 1.465 . S
C2006 C2001 1.399 . S
C2006 C2005 1.394 . S
C2006 C2007 1.516 . S
C2007 C2006 1.516 . S
C2007 C2008 1.502 . S
C2007 C2009 1.561 . S
C2007 C2010 1.526 . S
C2008 H1992 0.959 . S
C2008 H1993 0.959 . S
C2008 H1994 0.961 . S
C2008 C2007 1.502 . S
C2009 H1995 0.960 . S
C2009 H1996 0.961 . S
C2009 H1997 0.959 . S
C2009 C2007 1.561 . S
C2010 C2007 1.526 . S
C2010 C2011 1.396 . S
C2010 C2015 1.390 . S
C2011 C2005 1.465 . S
C2011 C2010 1.396 . S
C2011 C2012 1.399 . S
C2012 H1998 0.929 . S
C2012 C2011 1.399 . S
C2012 C2013 1.385 . S
C2013 H1999 0.931 . S
C2013 C2012 1.385 . S
C2013 C2014 1.389 . S
C2014 C2013 1.389 . S
C2014 C2015 1.387 . S
C2015 H2000 0.930 . S
C2015 C2010 1.390 . S
C2015 C2014 1.387 . S
H2016 C2028 0.930 . S
H2017 C2030 0.930 . S
H2018 C2031 0.930 . S
H2019 C2035 0.959 . S
H2020 C2035 0.959 . S
H2021 C2035 0.961 . S
H2022 C2036 0.960 . S
H2023 C2036 0.961 . S
H2024 C2036 0.959 . S
H2025 C2039 0.929 . S
H2026 C2040 0.931 . S
H2027 C2042 0.930 . S
C2028 H2016 0.930 . S
C2028 C2029 1.399 . S
C2028 C2033 1.399 . S
C2029 C2028 1.399 . S
C2029 C2030 1.376 . S
C2030 H2017 0.930 . S
C2030 C2029 1.376 . S
C2030 C2031 1.388 . S
C2031 H2018 0.930 . S
C2031 C2030 1.388 . S
C2031 C2032 1.390 . S
C2032 C2031 1.390 . S
C2032 C2033 1.394 . S
C2032 C2038 1.465 . S
C2033 C2028 1.399 . S
C2033 C2032 1.394 . S
C2033 C2034 1.516 . S
C2034 C2033 1.516 . S
C2034 C2035 1.502 . S
C2034 C2036 1.561 . S
C2034 C2037 1.526 . S
C2035 H2019 0.959 . S
C2035 H2020 0.959 . S
C2035 H2021 0.961 . S
C2035 C2034 1.502 . S
C2036 H2022 0.960 . S
C2036 H2023 0.961 . S
C2036 H2024 0.959 . S
C2036 C2034 1.561 . S
C2037 C2034 1.526 . S
C2037 C2038 1.396 . S
C2037 C2042 1.390 . S
C2038 C2032 1.465 . S
C2038 C2037 1.396 . S
C2038 C2039 1.399 . S
C2039 H2025 0.929 . S
C2039 C2038 1.399 . S
C2039 C2040 1.385 . S
C2040 H2026 0.931 . S
C2040 C2039 1.385 . S
C2040 C2041 1.389 . S
C2041 C2040 1.389 . S
C2041 C2042 1.387 . S
C2042 H2027 0.930 . S
C2042 C2037 1.390 . S
C2042 C2041 1.387 . S
H2043 C2055 0.930 . S
H2044 C2057 0.930 . S
H2045 C2058 0.930 . S
H2046 C2062 0.959 . S
H2047 C2062 0.959 . S
H2048 C2062 0.961 1_556 S
H2049 C2063 0.960 . S
H2050 C2063 0.961 . S
H2051 C2063 0.959 . S
H2052 C2066 0.929 1_556 S
H2053 C2067 0.931 . S
H2054 C2069 0.930 . S
C2055 H2043 0.930 . S
C2055 C2056 1.399 . S
C2055 C2060 1.399 . S
C2056 C2055 1.399 . S
C2056 C2057 1.376 . S
C2057 H2044 0.930 . S
C2057 C2056 1.376 . S
C2057 C2058 1.388 . S
C2058 H2045 0.930 . S
C2058 C2057 1.388 . S
C2058 C2059 1.390 . S
C2059 C2058 1.390 . S
C2059 C2060 1.394 . S
C2059 C2065 1.465 . S
C2060 C2055 1.399 . S
C2060 C2059 1.394 . S
C2060 C2061 1.516 . S
C2061 C2060 1.516 . S
C2061 C2062 1.502 1_556 S
C2061 C2063 1.561 . S
C2061 C2064 1.526 1_556 S
C2062 H2046 0.959 . S
C2062 H2047 0.959 . S
C2062 H2048 0.961 1_554 S
C2062 C2061 1.502 1_554 S
C2063 H2049 0.960 . S
C2063 H2050 0.961 . S
C2063 H2051 0.959 . S
C2063 C2061 1.561 . S
C2064 C2061 1.526 1_554 S
C2064 C2065 1.396 1_554 S
C2064 C2069 1.390 . S
C2065 C2059 1.465 . S
C2065 C2064 1.396 1_556 S
C2065 C2066 1.399 1_556 S
C2066 H2052 0.929 1_554 S
C2066 C2065 1.399 1_554 S
C2066 C2067 1.385 . S
C2067 H2053 0.931 . S
C2067 C2066 1.385 . S
C2067 C2068 1.389 . S
C2068 C2067 1.389 . S
C2068 C2069 1.387 . S
C2069 H2054 0.930 . S
C2069 C2064 1.390 . S
C2069 C2068 1.387 . S
H2070 C2082 0.930 . S
H2071 C2084 0.930 . S
H2072 C2085 0.930 . S
H2073 C2089 0.959 . S
H2074 C2089 0.959 . S
H2075 C2089 0.961 . S
H2076 C2090 0.960 . S
H2077 C2090 0.961 . S
H2078 C2090 0.959 . S
H2079 C2093 0.929 . S
H2080 C2094 0.931 . S
H2081 C2096 0.930 . S
C2082 H2070 0.930 . S
C2082 C2083 1.399 . S
C2082 C2087 1.399 . S
C2083 C2082 1.399 . S
C2083 C2084 1.376 . S
C2084 H2071 0.930 . S
C2084 C2083 1.376 . S
C2084 C2085 1.388 . S
C2085 H2072 0.930 . S
C2085 C2084 1.388 . S
C2085 C2086 1.390 . S
C2086 C2085 1.390 . S
C2086 C2087 1.394 . S
C2086 C2092 1.465 . S
C2087 C2082 1.399 . S
C2087 C2086 1.394 . S
C2087 C2088 1.516 . S
C2088 C2087 1.516 . S
C2088 C2089 1.502 . S
C2088 C2090 1.561 . S
C2088 C2091 1.526 . S
C2089 H2073 0.959 . S
C2089 H2074 0.959 . S
C2089 H2075 0.961 . S
C2089 C2088 1.502 . S
C2090 H2076 0.960 . S
C2090 H2077 0.961 . S
C2090 H2078 0.959 . S
C2090 C2088 1.561 . S
C2091 C2088 1.526 . S
C2091 C2092 1.396 . S
C2091 C2096 1.390 . S
C2092 C2086 1.465 . S
C2092 C2091 1.396 . S
C2092 C2093 1.399 . S
C2093 H2079 0.929 . S
C2093 C2092 1.399 . S
C2093 C2094 1.385 1_556 S
C2094 H2080 0.931 . S
C2094 C2093 1.385 1_554 S
C2094 C2095 1.389 . S
C2095 C2094 1.389 . S
C2095 C2096 1.387 1_554 S
C2096 H2081 0.930 . S
C2096 C2091 1.390 . S
C2096 C2095 1.387 1_556 S
H2097 C2109 0.930 . S
H2098 C2111 0.930 . S
H2099 C2112 0.930 . S
H2100 C2116 0.959 1_556 S
H2101 C2116 0.959 . S
H2102 C2116 0.961 1_556 S
H2103 C2117 0.960 . S
H2104 C2117 0.961 . S
H2105 C2117 0.959 . S
H2106 C2120 0.925 1_556 S
H2107 C2121 0.931 . S
H2108 C2123 0.930 . S
C2109 H2097 0.930 . S
C2109 C2110 1.399 . S
C2109 C2114 1.399 . S
C2110 C2109 1.399 . S
C2110 C2111 1.376 . S
C2111 H2098 0.930 . S
C2111 C2110 1.376 . S
C2111 C2112 1.388 . S
C2112 H2099 0.930 . S
C2112 C2111 1.388 . S
C2112 C2113 1.390 . S
C2113 C2112 1.390 . S
C2113 C2114 1.394 . S
C2113 C2119 1.465 . S
C2114 C2109 1.399 . S
C2114 C2113 1.394 . S
C2114 C2115 1.516 1_556 S
C2115 C2114 1.516 1_554 S
C2115 C2116 1.502 . S
C2115 C2117 1.561 . S
C2115 C2118 1.526 . S
C2116 H2100 0.959 1_554 S
C2116 H2101 0.959 . S
C2116 H2102 0.961 1_554 S
C2116 C2115 1.502 . S
C2117 H2103 0.960 . S
C2117 H2104 0.961 . S
C2117 H2105 0.959 . S
C2117 C2115 1.561 . S
C2118 C2115 1.526 . S
C2118 C2119 1.396 1_554 S
C2118 C2123 1.390 . S
C2119 C2113 1.465 . S
C2119 C2118 1.396 1_556 S
C2119 C2120 1.397 1_556 S
C2120 H2106 0.925 1_554 S
C2120 C2119 1.397 1_554 S
C2120 C2121 1.392 . S
C2121 H2107 0.931 . S
C2121 C2120 1.392 . S
C2121 C2122 1.389 . S
C2122 C2121 1.389 . S
C2122 C2123 1.387 . S
C2123 H2108 0.930 . S
C2123 C2118 1.390 . S
C2123 C2122 1.387 . S
H2124 C2136 0.930 . S
H2125 C2138 0.930 . S
H2126 C2139 0.930 . S
H2127 C2143 0.959 . S
H2128 C2143 0.959 . S
H2129 C2143 0.961 . S
H2130 C2144 0.960 . S
H2131 C2144 0.961 . S
H2132 C2144 0.959 . S
H2133 C2147 0.929 . S
H2134 C2148 0.931 . S
H2135 C2150 0.930 . S
C2136 H2124 0.930 . S
C2136 C2137 1.399 . S
C2136 C2141 1.399 . S
C2137 C2136 1.399 . S
C2137 C2138 1.376 . S
C2138 H2125 0.930 . S
C2138 C2137 1.376 . S
C2138 C2139 1.388 . S
C2139 H2126 0.930 . S
C2139 C2138 1.388 . S
C2139 C2140 1.390 . S
C2140 C2139 1.390 . S
C2140 C2141 1.394 . S
C2140 C2146 1.465 . S
C2141 C2136 1.399 . S
C2141 C2140 1.394 . S
C2141 C2142 1.516 . S
C2142 C2141 1.516 . S
C2142 C2143 1.502 . S
C2142 C2144 1.561 . S
C2142 C2145 1.526 . S
C2143 H2127 0.959 . S
C2143 H2128 0.959 . S
C2143 H2129 0.961 . S
C2143 C2142 1.502 . S
C2144 H2130 0.960 . S
C2144 H2131 0.961 . S
C2144 H2132 0.959 . S
C2144 C2142 1.561 . S
C2145 C2142 1.526 . S
C2145 C2146 1.396 . S
C2145 C2150 1.390 . S
C2146 C2140 1.465 . S
C2146 C2145 1.396 . S
C2146 C2147 1.399 . S
C2147 H2133 0.929 . S
C2147 C2146 1.399 . S
C2147 C2148 1.385 . S
C2148 H2134 0.931 . S
C2148 C2147 1.385 . S
C2148 C2149 1.389 . S
C2149 C2148 1.389 . S
C2149 C2150 1.387 . S
C2150 H2135 0.930 . S
C2150 C2145 1.390 . S
C2150 C2149 1.387 . S
H2151 C2163 0.930 . S
H2152 C2165 0.930 . S
H2153 C2166 0.930 . S
H2154 C2170 0.959 . S
H2155 C2170 0.959 . S
H2156 C2170 0.961 . S
H2157 C2171 0.960 . S
H2158 C2171 0.961 . S
H2159 C2171 0.959 . S
H2160 C2174 0.929 . S
H2161 C2175 0.931 . S
H2162 C2177 0.930 . S
C2163 H2151 0.930 . S
C2163 C2164 1.399 . S
C2163 C2168 1.399 . S
C2164 C2163 1.399 . S
C2164 C2165 1.376 . S
C2165 H2152 0.930 . S
C2165 C2164 1.376 . S
C2165 C2166 1.388 . S
C2166 H2153 0.930 . S
C2166 C2165 1.388 . S
C2166 C2167 1.390 . S
C2167 C2166 1.390 . S
C2167 C2168 1.394 . S
C2167 C2173 1.465 . S
C2168 C2163 1.399 . S
C2168 C2167 1.394 . S
C2168 C2169 1.516 . S
C2169 C2168 1.516 . S
C2169 C2170 1.502 . S
C2169 C2171 1.561 . S
C2169 C2172 1.526 . S
C2170 H2154 0.959 . S
C2170 H2155 0.959 . S
C2170 H2156 0.961 . S
C2170 C2169 1.502 . S
C2171 H2157 0.960 . S
C2171 H2158 0.961 . S
C2171 H2159 0.959 . S
C2171 C2169 1.561 . S
C2172 C2169 1.526 . S
C2172 C2173 1.396 . S
C2172 C2177 1.390 . S
C2173 C2167 1.465 . S
C2173 C2172 1.396 . S
C2173 C2174 1.399 . S
C2174 H2160 0.929 . S
C2174 C2173 1.399 . S
C2174 C2175 1.385 . S
C2175 H2161 0.931 . S
C2175 C2174 1.385 . S
C2175 C2176 1.389 . S
C2176 C2175 1.389 . S
C2176 C2177 1.387 . S
C2177 H2162 0.930 . S
C2177 C2172 1.390 . S
C2177 C2176 1.387 . S
H2178 C2190 0.930 . S
H2179 C2192 0.930 . S
H2180 C2193 0.930 . S
H2181 C2197 0.959 . S
H2182 C2197 0.959 . S
H2183 C2197 0.961 . S
H2184 C2198 0.960 . S
H2185 C2198 0.961 . S
H2186 C2198 0.959 . S
H2187 C2201 0.929 . S
H2188 C2202 0.931 . S
H2189 C2204 0.930 . S
C2190 H2178 0.930 . S
C2190 C2191 1.399 . S
C2190 C2195 1.399 . S
C2191 C2190 1.399 . S
C2191 C2192 1.376 . S
C2192 H2179 0.930 . S
C2192 C2191 1.376 . S
C2192 C2193 1.388 . S
C2193 H2180 0.930 . S
C2193 C2192 1.388 . S
C2193 C2194 1.390 . S
C2194 C2193 1.390 . S
C2194 C2195 1.394 . S
C2194 C2200 1.465 . S
C2195 C2190 1.399 . S
C2195 C2194 1.394 . S
C2195 C2196 1.516 . S
C2196 C2195 1.516 . S
C2196 C2197 1.502 . S
C2196 C2198 1.561 . S
C2196 C2199 1.526 . S
C2197 H2181 0.959 . S
C2197 H2182 0.959 . S
C2197 H2183 0.961 . S
C2197 C2196 1.502 . S
C2198 H2184 0.960 . S
C2198 H2185 0.961 . S
C2198 H2186 0.959 . S
C2198 C2196 1.561 . S
C2199 C2196 1.526 . S
C2199 C2200 1.396 . S
C2199 C2204 1.390 . S
C2200 C2194 1.465 . S
C2200 C2199 1.396 . S
C2200 C2201 1.399 . S
C2201 H2187 0.929 . S
C2201 C2200 1.399 . S
C2201 C2202 1.385 . S
C2202 H2188 0.931 . S
C2202 C2201 1.385 . S
C2202 C2203 1.389 . S
C2203 C2202 1.389 . S
C2203 C2204 1.387 . S
C2204 H2189 0.930 . S
C2204 C2199 1.390 . S
C2204 C2203 1.387 . S
H2205 C2217 0.930 . S
H2206 C2219 0.930 . S
H2207 C2220 0.930 . S
H2208 C2224 0.959 . S
H2209 C2224 0.959 . S
H2210 C2224 0.961 . S
H2211 C2225 0.960 . S
H2212 C2225 0.961 . S
H2213 C2225 0.959 . S
H2214 C2228 0.929 . S
H2215 C2229 0.931 . S
H2216 C2231 0.930 . S
C2217 H2205 0.930 . S
C2217 C2218 1.399 . S
C2217 C2222 1.399 . S
C2218 C2217 1.399 . S
C2218 C2219 1.376 . S
C2219 H2206 0.930 . S
C2219 C2218 1.376 . S
C2219 C2220 1.388 . S
C2220 H2207 0.930 . S
C2220 C2219 1.388 . S
C2220 C2221 1.390 . S
C2221 C2220 1.390 . S
C2221 C2222 1.394 . S
C2221 C2227 1.465 . S
C2222 C2217 1.399 . S
C2222 C2221 1.394 . S
C2222 C2223 1.516 . S
C2223 C2222 1.516 . S
C2223 C2224 1.502 . S
C2223 C2225 1.561 . S
C2223 C2226 1.526 . S
C2224 H2208 0.959 . S
C2224 H2209 0.959 . S
C2224 H2210 0.961 . S
C2224 C2223 1.502 . S
C2225 H2211 0.960 . S
C2225 H2212 0.961 . S
C2225 H2213 0.959 . S
C2225 C2223 1.561 . S
C2226 C2223 1.526 . S
C2226 C2227 1.396 . S
C2226 C2231 1.390 . S
C2227 C2221 1.465 . S
C2227 C2226 1.396 . S
C2227 C2228 1.399 . S
C2228 H2214 0.929 . S
C2228 C2227 1.399 . S
C2228 C2229 1.385 . S
C2229 H2215 0.931 . S
C2229 C2228 1.385 . S
C2229 C2230 1.389 . S
C2230 C2229 1.389 . S
C2230 C2231 1.387 . S
C2231 H2216 0.930 . S
C2231 C2226 1.390 . S
C2231 C2230 1.387 . S
H2232 C2244 0.930 . S
H2233 C2246 0.930 . S
H2234 C2247 0.930 . S
H2235 C2251 0.959 . S
H2236 C2251 0.959 . S
H2237 C2251 0.961 . S
H2238 C2252 0.960 . S
H2239 C2252 0.961 . S
H2240 C2252 0.959 . S
H2241 C2255 0.929 . S
H2242 C2256 0.931 . S
H2243 C2258 0.930 . S
C2244 H2232 0.930 . S
C2244 C2245 1.399 . S
C2244 C2249 1.399 . S
C2245 C2244 1.399 . S
C2245 C2246 1.376 . S
C2246 H2233 0.930 . S
C2246 C2245 1.376 . S
C2246 C2247 1.388 . S
C2247 H2234 0.930 . S
C2247 C2246 1.388 . S
C2247 C2248 1.390 . S
C2248 C2247 1.390 . S
C2248 C2249 1.394 . S
C2248 C2254 1.465 . S
C2249 C2244 1.399 . S
C2249 C2248 1.394 . S
C2249 C2250 1.516 . S
C2250 C2249 1.516 . S
C2250 C2251 1.502 . S
C2250 C2252 1.561 . S
C2250 C2253 1.526 . S
C2251 H2235 0.959 . S
C2251 H2236 0.959 . S
C2251 H2237 0.961 . S
C2251 C2250 1.502 . S
C2252 H2238 0.960 . S
C2252 H2239 0.961 . S
C2252 H2240 0.959 . S
C2252 C2250 1.561 . S
C2253 C2250 1.526 . S
C2253 C2254 1.396 . S
C2253 C2258 1.390 . S
C2254 C2248 1.465 . S
C2254 C2253 1.396 . S
C2254 C2255 1.399 . S
C2255 H2241 0.929 . S
C2255 C2254 1.399 . S
C2255 C2256 1.385 . S
C2256 H2242 0.931 . S
C2256 C2255 1.385 . S
C2256 C2257 1.389 . S
C2257 C2256 1.389 . S
C2257 C2258 1.387 . S
C2258 H2243 0.930 . S
C2258 C2253 1.390 . S
C2258 C2257 1.387 . S
H2259 C2271 0.930 . S
H2260 C2273 0.930 . S
H2261 C2274 0.930 . S
H2262 C2278 0.959 . S
H2263 C2278 0.959 . S
H2264 C2278 0.961 . S
H2265 C2279 0.960 . S
H2266 C2279 0.961 . S
H2267 C2279 0.959 . S
H2268 C2282 0.929 . S
H2269 C2283 0.931 . S
H2270 C2285 0.930 . S
C2271 H2259 0.930 . S
C2271 C2272 1.399 . S
C2271 C2276 1.399 . S
C2272 C2271 1.399 . S
C2272 C2273 1.376 . S
C2273 H2260 0.930 . S
C2273 C2272 1.376 . S
C2273 C2274 1.388 . S
C2274 H2261 0.930 . S
C2274 C2273 1.388 . S
C2274 C2275 1.390 . S
C2275 C2274 1.390 . S
C2275 C2276 1.394 . S
C2275 C2281 1.465 . S
C2276 C2271 1.399 . S
C2276 C2275 1.394 . S
C2276 C2277 1.516 . S
C2277 C2276 1.516 . S
C2277 C2278 1.502 . S
C2277 C2279 1.561 . S
C2277 C2280 1.526 . S
C2278 H2262 0.959 . S
C2278 H2263 0.959 . S
C2278 H2264 0.961 . S
C2278 C2277 1.502 . S
C2279 H2265 0.960 . S
C2279 H2266 0.961 . S
C2279 H2267 0.959 . S
C2279 C2277 1.561 . S
C2280 C2277 1.526 . S
C2280 C2281 1.396 . S
C2280 C2285 1.390 . S
C2281 C2275 1.465 . S
C2281 C2280 1.396 . S
C2281 C2282 1.399 . S
C2282 H2268 0.929 . S
C2282 C2281 1.399 . S
C2282 C2283 1.385 . S
C2283 H2269 0.931 . S
C2283 C2282 1.385 . S
C2283 C2284 1.389 . S
C2284 C2283 1.389 . S
C2284 C2285 1.387 . S
C2285 H2270 0.930 . S
C2285 C2280 1.390 . S
C2285 C2284 1.387 . S
H2286 C2298 0.930 . S
H2287 C2300 0.930 . S
H2288 C2301 0.930 . S
H2289 C2305 0.959 . S
H2290 C2305 0.959 . S
H2291 C2305 0.961 . S
H2292 C2306 0.960 . S
H2293 C2306 0.961 . S
H2294 C2306 0.959 . S
H2295 C2309 0.929 . S
H2296 C2310 0.931 . S
H2297 C2312 0.930 . S
C2298 H2286 0.930 . S
C2298 C2299 1.399 . S
C2298 C2303 1.399 . S
C2299 C2298 1.399 . S
C2299 C2300 1.376 . S
C2300 H2287 0.930 . S
C2300 C2299 1.376 . S
C2300 C2301 1.388 . S
C2301 H2288 0.930 . S
C2301 C2300 1.388 . S
C2301 C2302 1.390 . S
C2302 C2301 1.390 . S
C2302 C2303 1.394 . S
C2302 C2308 1.465 . S
C2303 C2298 1.399 . S
C2303 C2302 1.394 . S
C2303 C2304 1.516 . S
C2304 C2303 1.516 . S
C2304 C2305 1.502 . S
C2304 C2306 1.561 . S
C2304 C2307 1.526 . S
C2305 H2289 0.959 . S
C2305 H2290 0.959 . S
C2305 H2291 0.961 . S
C2305 C2304 1.502 . S
C2306 H2292 0.960 . S
C2306 H2293 0.961 . S
C2306 H2294 0.959 . S
C2306 C2304 1.561 . S
C2307 C2304 1.526 . S
C2307 C2308 1.396 . S
C2307 C2312 1.390 . S
C2308 C2302 1.465 . S
C2308 C2307 1.396 . S
C2308 C2309 1.399 . S
C2309 H2295 0.929 . S
C2309 C2308 1.399 . S
C2309 C2310 1.385 . S
C2310 H2296 0.931 . S
C2310 C2309 1.385 . S
C2310 C2311 1.389 . S
C2311 C2310 1.389 . S
C2311 C2312 1.387 . S
C2312 H2297 0.930 . S
C2312 C2307 1.390 . S
C2312 C2311 1.387 . S
H2313 C2325 0.930 . S
H2314 C2327 0.930 . S
H2315 C2328 0.930 . S
H2316 C2332 0.959 . S
H2317 C2332 0.959 . S
H2318 C2332 0.961 . S
H2319 C2333 0.960 . S
H2320 C2333 0.961 . S
H2321 C2333 0.959 . S
H2322 C2336 0.929 . S
H2323 C2337 0.931 . S
H2324 C2339 0.930 . S
C2325 H2313 0.930 . S
C2325 C2326 1.399 . S
C2325 C2330 1.399 . S
C2326 C2325 1.399 . S
C2326 C2327 1.376 . S
C2327 H2314 0.930 . S
C2327 C2326 1.376 . S
C2327 C2328 1.388 . S
C2328 H2315 0.930 . S
C2328 C2327 1.388 . S
C2328 C2329 1.390 . S
C2329 C2328 1.390 . S
C2329 C2330 1.394 . S
C2329 C2335 1.465 . S
C2330 C2325 1.399 . S
C2330 C2329 1.394 . S
C2330 C2331 1.516 . S
C2331 C2330 1.516 . S
C2331 C2332 1.502 . S
C2331 C2333 1.561 . S
C2331 C2334 1.526 . S
C2332 H2316 0.959 . S
C2332 H2317 0.959 . S
C2332 H2318 0.961 . S
C2332 C2331 1.502 . S
C2333 H2319 0.960 . S
C2333 H2320 0.961 . S
C2333 H2321 0.959 . S
C2333 C2331 1.561 . S
C2334 C2331 1.526 . S
C2334 C2335 1.396 . S
C2334 C2339 1.390 . S
C2335 C2329 1.465 . S
C2335 C2334 1.396 . S
C2335 C2336 1.399 . S
C2336 H2322 0.929 . S
C2336 C2335 1.399 . S
C2336 C2337 1.385 . S
C2337 H2323 0.931 . S
C2337 C2336 1.385 . S
C2337 C2338 1.389 . S
C2338 C2337 1.389 . S
C2338 C2339 1.387 . S
C2339 H2324 0.930 . S
C2339 C2334 1.390 . S
C2339 C2338 1.387 . S
H2340 C2352 0.930 . S
H2341 C2354 0.930 . S
H2342 C2355 0.930 . S
H2343 C2359 0.959 . S
H2344 C2359 0.959 . S
H2345 C2359 0.961 . S
H2346 C2360 0.960 . S
H2347 C2360 0.961 . S
H2348 C2360 0.959 . S
H2349 C2363 0.929 . S
H2350 C2364 0.931 . S
H2351 C2366 0.930 . S
C2352 H2340 0.930 . S
C2352 C2353 1.399 . S
C2352 C2357 1.399 . S
C2353 C2352 1.399 . S
C2353 C2354 1.376 . S
C2354 H2341 0.930 . S
C2354 C2353 1.376 . S
C2354 C2355 1.388 . S
C2355 H2342 0.930 . S
C2355 C2354 1.388 . S
C2355 C2356 1.390 . S
C2356 C2355 1.390 . S
C2356 C2357 1.394 . S
C2356 C2362 1.465 . S
C2357 C2352 1.399 . S
C2357 C2356 1.394 . S
C2357 C2358 1.516 . S
C2358 C2357 1.516 . S
C2358 C2359 1.502 . S
C2358 C2360 1.561 . S
C2358 C2361 1.526 . S
C2359 H2343 0.959 . S
C2359 H2344 0.959 . S
C2359 H2345 0.961 . S
C2359 C2358 1.502 . S
C2360 H2346 0.960 . S
C2360 H2347 0.961 . S
C2360 H2348 0.959 . S
C2360 C2358 1.561 . S
C2361 C2358 1.526 . S
C2361 C2362 1.396 . S
C2361 C2366 1.390 . S
C2362 C2356 1.465 . S
C2362 C2361 1.396 . S
C2362 C2363 1.399 . S
C2363 H2349 0.929 . S
C2363 C2362 1.399 . S
C2363 C2364 1.385 . S
C2364 H2350 0.931 . S
C2364 C2363 1.385 . S
C2364 C2365 1.389 . S
C2365 C2364 1.389 . S
C2365 C2366 1.387 . S
C2366 H2351 0.930 . S
C2366 C2361 1.390 . S
C2366 C2365 1.387 . S
H2367 C2379 0.930 . S
H2368 C2381 0.930 . S
H2369 C2382 0.930 . S
H2370 C2386 0.959 . S
H2371 C2386 0.959 . S
H2372 C2386 0.961 . S
H2373 C2387 0.960 . S
H2374 C2387 0.961 . S
H2375 C2387 0.959 . S
H2376 C2390 0.929 . S
H2377 C2391 0.931 . S
H2378 C2393 0.930 . S
C2379 H2367 0.930 . S
C2379 C2380 1.399 . S
C2379 C2384 1.399 . S
C2380 C2379 1.399 . S
C2380 C2381 1.376 . S
C2381 H2368 0.930 . S
C2381 C2380 1.376 . S
C2381 C2382 1.388 . S
C2382 H2369 0.930 . S
C2382 C2381 1.388 . S
C2382 C2383 1.390 . S
C2383 C2382 1.390 . S
C2383 C2384 1.394 . S
C2383 C2389 1.465 . S
C2384 C2379 1.399 . S
C2384 C2383 1.394 . S
C2384 C2385 1.516 . S
C2385 C2384 1.516 . S
C2385 C2386 1.502 . S
C2385 C2387 1.561 . S
C2385 C2388 1.526 . S
C2386 H2370 0.959 . S
C2386 H2371 0.959 . S
C2386 H2372 0.961 . S
C2386 C2385 1.502 . S
C2387 H2373 0.960 . S
C2387 H2374 0.961 . S
C2387 H2375 0.959 . S
C2387 C2385 1.561 . S
C2388 C2385 1.526 . S
C2388 C2389 1.396 . S
C2388 C2393 1.390 . S
C2389 C2383 1.465 . S
C2389 C2388 1.396 . S
C2389 C2390 1.399 . S
C2390 H2376 0.929 . S
C2390 C2389 1.399 . S
C2390 C2391 1.385 . S
C2391 H2377 0.931 . S
C2391 C2390 1.385 . S
C2391 C2392 1.389 . S
C2392 C2391 1.389 . S
C2392 C2393 1.387 . S
C2393 H2378 0.930 . S
C2393 C2388 1.390 . S
C2393 C2392 1.387 . S
H2394 C2406 0.930 . S
H2395 C2408 0.930 . S
H2396 C2409 0.930 . S
H2397 C2413 0.959 . S
H2398 C2413 0.959 . S
H2399 C2413 0.961 . S
H2400 C2414 0.960 . S
H2401 C2414 0.961 . S
H2402 C2414 0.959 . S
H2403 C2417 0.929 . S
H2404 C2418 0.931 . S
H2405 C2420 0.930 . S
C2406 H2394 0.930 . S
C2406 C2407 1.399 . S
C2406 C2411 1.399 . S
C2407 C2406 1.399 . S
C2407 C2408 1.376 . S
C2408 H2395 0.930 . S
C2408 C2407 1.376 . S
C2408 C2409 1.388 . S
C2409 H2396 0.930 . S
C2409 C2408 1.388 . S
C2409 C2410 1.390 . S
C2410 C2409 1.390 . S
C2410 C2411 1.394 . S
C2410 C2416 1.465 . S
C2411 C2406 1.399 . S
C2411 C2410 1.394 . S
C2411 C2412 1.516 . S
C2412 C2411 1.516 . S
C2412 C2413 1.502 . S
C2412 C2414 1.561 . S
C2412 C2415 1.526 . S
C2413 H2397 0.959 . S
C2413 H2398 0.959 . S
C2413 H2399 0.961 . S
C2413 C2412 1.502 . S
C2414 H2400 0.960 . S
C2414 H2401 0.961 . S
C2414 H2402 0.959 . S
C2414 C2412 1.561 . S
C2415 C2412 1.526 . S
C2415 C2416 1.396 . S
C2415 C2420 1.390 . S
C2416 C2410 1.465 . S
C2416 C2415 1.396 . S
C2416 C2417 1.399 . S
C2417 H2403 0.929 . S
C2417 C2416 1.399 . S
C2417 C2418 1.385 . S
C2418 H2404 0.931 . S
C2418 C2417 1.385 . S
C2418 C2419 1.389 . S
C2419 C2418 1.389 . S
C2419 C2420 1.387 . S
C2420 H2405 0.930 . S
C2420 C2415 1.390 . S
C2420 C2419 1.387 . S
H2421 C2433 0.930 . S
H2422 C2435 0.930 . S
H2423 C2436 0.930 . S
H2424 C2440 0.959 . S
H2425 C2440 0.959 . S
H2426 C2440 0.961 . S
H2427 C2441 0.960 . S
H2428 C2441 0.961 . S
H2429 C2441 0.959 . S
H2430 C2444 0.929 . S
H2431 C2445 0.931 . S
H2432 C2447 0.930 . S
C2433 H2421 0.930 . S
C2433 C2434 1.399 . S
C2433 C2438 1.399 . S
C2434 C2433 1.399 . S
C2434 C2435 1.376 . S
C2435 H2422 0.930 . S
C2435 C2434 1.376 . S
C2435 C2436 1.388 . S
C2436 H2423 0.930 . S
C2436 C2435 1.388 . S
C2436 C2437 1.390 . S
C2437 C2436 1.390 . S
C2437 C2438 1.394 . S
C2437 C2443 1.465 . S
C2438 C2433 1.399 . S
C2438 C2437 1.394 . S
C2438 C2439 1.516 . S
C2439 C2438 1.516 . S
C2439 C2440 1.502 . S
C2439 C2441 1.561 . S
C2439 C2442 1.526 . S
C2440 H2424 0.959 . S
C2440 H2425 0.959 . S
C2440 H2426 0.961 . S
C2440 C2439 1.502 . S
C2441 H2427 0.960 . S
C2441 H2428 0.961 . S
C2441 H2429 0.959 . S
C2441 C2439 1.561 . S
C2442 C2439 1.526 . S
C2442 C2443 1.396 . S
C2442 C2447 1.390 . S
C2443 C2437 1.465 . S
C2443 C2442 1.396 . S
C2443 C2444 1.399 . S
C2444 H2430 0.929 . S
C2444 C2443 1.399 . S
C2444 C2445 1.385 . S
C2445 H2431 0.931 . S
C2445 C2444 1.385 . S
C2445 C2446 1.389 . S
C2446 C2445 1.389 . S
C2446 C2447 1.387 . S
C2447 H2432 0.930 . S
C2447 C2442 1.390 . S
C2447 C2446 1.387 . S
H2448 C2460 0.930 . S
H2449 C2462 0.930 . S
H2450 C2463 0.930 . S
H2451 C2467 0.959 . S
H2452 C2467 0.959 . S
H2453 C2467 0.961 . S
H2454 C2468 0.960 . S
H2455 C2468 0.961 . S
H2456 C2468 0.959 . S
H2457 C2471 0.929 . S
H2458 C2472 0.931 . S
H2459 C2474 0.930 . S
C2460 H2448 0.930 . S
C2460 C2461 1.399 . S
C2460 C2465 1.399 . S
C2461 C2460 1.399 . S
C2461 C2462 1.376 . S
C2462 H2449 0.930 . S
C2462 C2461 1.376 . S
C2462 C2463 1.388 . S
C2463 H2450 0.930 . S
C2463 C2462 1.388 . S
C2463 C2464 1.390 . S
C2464 C2463 1.390 . S
C2464 C2465 1.394 . S
C2464 C2470 1.465 . S
C2465 C2460 1.399 . S
C2465 C2464 1.394 . S
C2465 C2466 1.516 . S
C2466 C2465 1.516 . S
C2466 C2467 1.502 . S
C2466 C2468 1.561 . S
C2466 C2469 1.526 . S
C2467 H2451 0.959 . S
C2467 H2452 0.959 . S
C2467 H2453 0.961 . S
C2467 C2466 1.502 . S
C2468 H2454 0.960 . S
C2468 H2455 0.961 . S
C2468 H2456 0.959 . S
C2468 C2466 1.561 . S
C2469 C2466 1.526 . S
C2469 C2470 1.396 . S
C2469 C2474 1.390 . S
C2470 C2464 1.465 . S
C2470 C2469 1.396 . S
C2470 C2471 1.399 . S
C2471 H2457 0.929 . S
C2471 C2470 1.399 . S
C2471 C2472 1.385 . S
C2472 H2458 0.931 . S
C2472 C2471 1.385 . S
C2472 C2473 1.389 . S
C2473 C2472 1.389 . S
C2473 C2474 1.387 . S
C2474 H2459 0.930 . S
C2474 C2469 1.390 . S
C2474 C2473 1.387 . S
H2475 C2487 0.930 . S
H2476 C2489 0.930 . S
H2477 C2490 0.930 . S
H2478 C2494 0.959 . S
H2479 C2494 0.959 . S
H2480 C2494 0.961 . S
H2481 C2495 0.960 . S
H2482 C2495 0.961 . S
H2483 C2495 0.959 . S
H2484 C2498 0.929 . S
H2485 C2499 0.931 . S
H2486 C2501 0.930 . S
C2487 H2475 0.930 . S
C2487 C2488 1.399 . S
C2487 C2492 1.399 . S
C2488 C2487 1.399 . S
C2488 C2489 1.376 . S
C2489 H2476 0.930 . S
C2489 C2488 1.376 . S
C2489 C2490 1.388 . S
C2490 H2477 0.930 . S
C2490 C2489 1.388 . S
C2490 C2491 1.390 . S
C2491 C2490 1.390 . S
C2491 C2492 1.394 . S
C2491 C2497 1.465 . S
C2492 C2487 1.399 . S
C2492 C2491 1.394 . S
C2492 C2493 1.516 . S
C2493 C2492 1.516 . S
C2493 C2494 1.502 . S
C2493 C2495 1.561 . S
C2493 C2496 1.526 . S
C2494 H2478 0.959 . S
C2494 H2479 0.959 . S
C2494 H2480 0.961 . S
C2494 C2493 1.502 . S
C2495 H2481 0.960 . S
C2495 H2482 0.961 . S
C2495 H2483 0.959 . S
C2495 C2493 1.561 . S
C2496 C2493 1.526 . S
C2496 C2497 1.396 . S
C2496 C2501 1.390 . S
C2497 C2491 1.465 . S
C2497 C2496 1.396 . S
C2497 C2498 1.399 . S
C2498 H2484 0.929 . S
C2498 C2497 1.399 . S
C2498 C2499 1.385 . S
C2499 H2485 0.931 . S
C2499 C2498 1.385 . S
C2499 C2500 1.389 . S
C2500 C2499 1.389 . S
C2500 C2501 1.387 . S
C2501 H2486 0.930 . S
C2501 C2496 1.390 . S
C2501 C2500 1.387 . S
H2502 C2514 0.930 . S
H2503 C2516 0.930 . S
H2504 C2517 0.930 . S
H2505 C2521 0.959 . S
H2506 C2521 0.959 . S
H2507 C2521 0.961 . S
H2508 C2522 0.960 . S
H2509 C2522 0.961 . S
H2510 C2522 0.959 . S
H2511 C2525 0.929 . S
H2512 C2526 0.931 . S
H2513 C2528 0.930 . S
C2514 H2502 0.930 . S
C2514 C2515 1.399 . S
C2514 C2519 1.399 . S
C2515 C2514 1.399 . S
C2515 C2516 1.376 . S
C2516 H2503 0.930 . S
C2516 C2515 1.376 . S
C2516 C2517 1.388 . S
C2517 H2504 0.930 . S
C2517 C2516 1.388 . S
C2517 C2518 1.390 . S
C2518 C2517 1.390 . S
C2518 C2519 1.394 . S
C2518 C2524 1.465 . S
C2519 C2514 1.399 . S
C2519 C2518 1.394 . S
C2519 C2520 1.516 . S
C2520 C2519 1.516 . S
C2520 C2521 1.502 . S
C2520 C2522 1.561 . S
C2520 C2523 1.526 . S
C2521 H2505 0.959 . S
C2521 H2506 0.959 . S
C2521 H2507 0.961 . S
C2521 C2520 1.502 . S
C2522 H2508 0.960 . S
C2522 H2509 0.961 . S
C2522 H2510 0.959 . S
C2522 C2520 1.561 . S
C2523 C2520 1.526 . S
C2523 C2524 1.396 . S
C2523 C2528 1.390 . S
C2524 C2518 1.465 . S
C2524 C2523 1.396 . S
C2524 C2525 1.399 . S
C2525 H2511 0.929 . S
C2525 C2524 1.399 . S
C2525 C2526 1.385 . S
C2526 H2512 0.931 . S
C2526 C2525 1.385 . S
C2526 C2527 1.389 . S
C2527 C2526 1.389 . S
C2527 C2528 1.387 . S
C2528 H2513 0.930 . S
C2528 C2523 1.390 . S
C2528 C2527 1.387 . S
H2529 C2541 0.930 . S
H2530 C2543 0.930 . S
H2531 C2544 0.930 . S
H2532 C2548 0.961 . S
H2533 C2548 0.973 . S
H2534 C2548 0.955 1_554 S
H2535 C2549 0.960 . S
H2536 C2549 0.961 . S
H2537 C2549 0.959 . S
H2538 C2552 0.929 . S
H2539 C2553 0.931 . S
H2540 C2555 0.930 . S
C2541 H2529 0.930 . S
C2541 C2542 1.399 . S
C2541 C2546 1.399 . S
C2542 C2541 1.399 . S
C2542 C2543 1.376 . S
C2543 H2530 0.930 . S
C2543 C2542 1.376 . S
C2543 C2544 1.388 . S
C2544 H2531 0.930 . S
C2544 C2543 1.388 . S
C2544 C2545 1.390 . S
C2545 C2544 1.390 . S
C2545 C2546 1.394 . S
C2545 C2551 1.465 . S
C2546 C2541 1.399 . S
C2546 C2545 1.394 . S
C2546 C2547 1.516 . S
C2547 C2546 1.516 . S
C2547 C2548 1.492 1_554 S
C2547 C2549 1.561 . S
C2547 C2550 1.526 . S
C2548 H2532 0.961 . S
C2548 H2533 0.973 . S
C2548 H2534 0.955 1_556 S
C2548 C2547 1.492 1_556 S
C2549 H2535 0.960 . S
C2549 H2536 0.961 . S
C2549 H2537 0.959 . S
C2549 C2547 1.561 . S
C2550 C2547 1.526 . S
C2550 C2551 1.396 . S
C2550 C2555 1.390 1_554 S
C2551 C2545 1.465 . S
C2551 C2550 1.396 . S
C2551 C2552 1.399 . S
C2552 H2538 0.929 . S
C2552 C2551 1.399 . S
C2552 C2553 1.385 . S
C2553 H2539 0.931 . S
C2553 C2552 1.385 . S
C2553 C2554 1.389 1_554 S
C2554 C2553 1.389 1_556 S
C2554 C2555 1.387 . S
C2555 H2540 0.930 . S
C2555 C2550 1.390 1_556 S
C2555 C2554 1.387 . S
H2556 C2568 0.930 . S
H2557 C2570 0.930 . S
H2558 C2571 0.930 . S
H2559 C2575 0.959 . S
H2560 C2575 0.959 . S
H2561 C2575 0.961 . S
H2562 C2576 0.960 . S
H2563 C2576 0.961 . S
H2564 C2576 0.959 . S
H2565 C2579 0.929 . S
H2566 C2580 0.931 . S
H2567 C2582 0.930 . S
C2568 H2556 0.930 . S
C2568 C2569 1.399 . S
C2568 C2573 1.399 . S
C2569 C2568 1.399 . S
C2569 C2570 1.376 . S
C2570 H2557 0.930 . S
C2570 C2569 1.376 . S
C2570 C2571 1.388 . S
C2571 H2558 0.930 . S
C2571 C2570 1.388 . S
C2571 C2572 1.390 . S
C2572 C2571 1.390 . S
C2572 C2573 1.394 . S
C2572 C2578 1.465 . S
C2573 C2568 1.399 . S
C2573 C2572 1.394 . S
C2573 C2574 1.516 . S
C2574 C2573 1.516 . S
C2574 C2575 1.502 . S
C2574 C2576 1.561 . S
C2574 C2577 1.526 . S
C2575 H2559 0.959 . S
C2575 H2560 0.959 . S
C2575 H2561 0.961 . S
C2575 C2574 1.502 . S
C2576 H2562 0.960 . S
C2576 H2563 0.961 . S
C2576 H2564 0.959 . S
C2576 C2574 1.561 . S
C2577 C2574 1.526 . S
C2577 C2578 1.396 . S
C2577 C2582 1.390 . S
C2578 C2572 1.465 . S
C2578 C2577 1.396 . S
C2578 C2579 1.399 . S
C2579 H2565 0.929 . S
C2579 C2578 1.399 . S
C2579 C2580 1.385 . S
C2580 H2566 0.931 . S
C2580 C2579 1.385 . S
C2580 C2581 1.389 . S
C2581 C2580 1.389 . S
C2581 C2582 1.387 . S
C2582 H2567 0.930 . S
C2582 C2577 1.390 . S
C2582 C2581 1.387 . S
H2583 C2595 0.930 . S
H2584 C2597 0.930 . S
H2585 C2598 0.930 . S
H2586 C2602 0.959 . S
H2587 C2602 0.959 . S
H2588 C2602 0.961 . S
H2589 C2603 0.960 . S
H2590 C2603 0.961 1_556 S
H2591 C2603 0.959 . S
H2592 C2606 0.929 . S
H2593 C2607 0.931 . S
H2594 C2609 0.930 . S
C2595 H2583 0.930 . S
C2595 C2596 1.399 . S
C2595 C2600 1.399 . S
C2596 C2595 1.399 . S
C2596 C2597 1.376 . S
C2597 H2584 0.930 . S
C2597 C2596 1.376 . S
C2597 C2598 1.388 . S
C2598 H2585 0.930 . S
C2598 C2597 1.388 . S
C2598 C2599 1.390 . S
C2599 C2598 1.390 . S
C2599 C2600 1.394 . S
C2599 C2605 1.465 . S
C2600 C2595 1.399 . S
C2600 C2599 1.394 . S
C2600 C2601 1.516 . S
C2601 C2600 1.516 . S
C2601 C2602 1.502 . S
C2601 C2603 1.561 . S
C2601 C2604 1.526 . S
C2602 H2586 0.959 . S
C2602 H2587 0.959 . S
C2602 H2588 0.961 . S
C2602 C2601 1.502 . S
C2603 H2589 0.960 . S
C2603 H2590 0.961 1_554 S
C2603 H2591 0.959 . S
C2603 C2601 1.561 . S
C2604 C2601 1.526 . S
C2604 C2605 1.396 . S
C2604 C2609 1.390 1_554 S
C2605 C2599 1.465 . S
C2605 C2604 1.396 . S
C2605 C2606 1.399 . S
C2606 H2592 0.929 . S
C2606 C2605 1.399 . S
C2606 C2607 1.385 . S
C2607 H2593 0.931 . S
C2607 C2606 1.385 . S
C2607 C2608 1.389 1_554 S
C2608 C2607 1.389 1_556 S
C2608 C2609 1.387 . S
C2609 H2594 0.930 . S
C2609 C2604 1.390 1_556 S
C2609 C2608 1.387 . S
C679 C7 1.425 . S
C691 C575 1.433 . S
C718 C547 1.724 . S
C706 C39 1.712 . S
C745 C562 1.512 . S
C733 C62 1.549 . S
C760 C76 1.849 . S
C772 C632 1.826 . S
C787 C108 1.415 . S
C799 C645 1.405 . S
C814 N117 1.352 . S
C826 C660 1.300 . S
C853 C623 1.298 . S
C841 C16 1.289 . S
C868 C30 1.707 . S
C880 C595 1.663 . S
C907 C604 1.375 . S
C895 C53 1.461 . S
C922 C85 1.820 . S
C934 C506 1.793 1_565 S
C961 C525 1.554 . S
C949 C99 1.593 . S
C976 N127 1.238 . S
C988 C534 1.308 . S
C1003 N150 1.106 . S
C1015 C659 1.140 . S
C1042 C631 1.480 . S
C1030 N173 1.424 . S
C1069 C646 1.388 . S
C1057 C200 1.384 . S
C1084 C214 1.664 . S
C1096 C464 1.616 . S
C1111 N232 1.443 . S
C1123 C477 1.480 . S
C1138 C260 1.509 . S
C1150 C492 1.515 1_565 S
C1177 C455 1.046 . S
C1165 N140 1.106 . S
C1192 N163 1.177 . S
C1204 C427 1.221 . S
C1231 C436 1.492 . S
C1219 C191 1.522 . S
C1258 C590 1.866 . S
C1246 C223 1.891 . S
C1285 C609 1.317 . S
C1273 N242 1.311 . S
C1312 C618 1.473 . S
C1300 C269 1.530 . S
C1327 N288 1.211 . S
C1339 C491 1.263 . S
C1354 C315 1.443 . S
C1366 C463 1.449 . S
C1381 C338 1.649 . S
C1393 C478 1.604 . S
C1408 C352 1.869 . S
C1420 C548 1.860 . S
C1447 C561 1.528 . S
C1435 N370 1.525 . S
C1474 C576 1.545 1_655 S
C1462 C398 1.559 . S
C1501 C539 1.111 . S
C1489 N278 1.046 . S
C1516 C306 1.615 . S
C1528 C511 1.582 . S
C1543 C329 1.556 . S
C1555 C520 1.541 . S
C1582 C422 1.552 . S
C1570 C361 1.561 . S
C1597 N380 1.415 . S
C1609 C441 1.417 . S
C1636 C450 1.442 . S
C1624 C407 1.453 . S
C1663 C469 1.315 . S
C1651 N12 1.269 . S
C1678 N25 1.438 . S
C1690 C481 1.465 . S
C1717 C497 1.096 . S
C1705 N48 1.228 . S
C1744 C495 1.228 . S
C1732 N81 1.284 . S
C1771 C467 1.454 . S
C1759 N94 1.438 . S
C1798 C483 1.376 . S
C1786 C131 1.493 . S
C1825 C421 1.330 . S
C1813 N2 1.303 . S
C1840 N35 1.374 . S
C1852 C439 1.379 . S
C1867 N58 1.182 . S
C1879 C449 1.147 . S
C1906 C453 1.228 . S
C1894 N71 1.134 . S
C1933 C425 1.341 . S
C1921 N104 1.301 . S
C1960 C435 1.526 . S
C1948 C122 1.518 . S
C1975 C145 1.920 . S
C1987 C553 1.848 . S
C2002 C168 1.570 . S
C2014 C565 1.586 . S
C2029 N186 1.351 . S
C2041 C581 1.254 . S
C2068 C579 1.275 . S
C2056 N219 1.268 . S
C2095 C551 1.719 . S
C2083 C246 1.721 . S
C2122 C567 1.311 . S
C2110 N265 1.425 . S
C2149 C505 1.820 . S
C2137 C154 1.820 . S
C2164 C177 1.642 . S
C2176 C523 1.629 . S
C2191 N196 1.190 . S
C2203 C533 1.175 . S
C2218 N209 1.012 . S
C2230 C537 1.143 . S
C2245 C237 1.753 . S
C2257 C509 1.755 . S
C2284 C519 1.411 . S
C2272 N255 1.384 . S
C2299 C283 1.707 . S
C2311 C637 1.649 . S
C2326 N301 1.342 . S
C2338 C649 1.360 . S
C2353 N324 1.160 . S
C2365 C665 1.165 . S
C2392 C663 1.062 . S
C2380 N357 1.077 . S
C2419 C635 1.636 . S
C2407 C384 1.675 . S
C2434 N403 1.280 . S
C2446 C651 1.146 . S
C2461 C292 1.820 . S
C2473 C589 1.812 . S
C2500 C607 1.209 . S
C2488 N311 1.185 . S
C2515 N334 1.248 . S
C2527 C617 1.274 . S
C2542 N347 1.233 . S
C2554 C621 1.272 . S
C2581 C593 1.809 1_554 S
C2569 C375 1.814 . S
C2596 N393 1.249 . S
C2608 C603 1.331 . S
