# Generated by pormake.
# Topology gar, (4,6)-cn, num edge types: 1
# Building blocks:
#     Node 0, Type 0, BuildingBlock: TATPOV_clean_sbu_0, # of connection points: 4
#     Node 1, Type 0, BuildingBlock: TATPOV_clean_sbu_0, # of connection points: 4
#     Node 2, Type 0, BuildingBlock: TATPOV_clean_sbu_0, # of connection points: 4
#     Node 3, Type 0, BuildingBlock: TATPOV_clean_sbu_0, # of connection points: 4
#     Node 4, Type 0, BuildingBlock: TATPOV_clean_sbu_0, # of connection points: 4
#     Node 5, Type 0, BuildingBlock: TATPOV_clean_sbu_0, # of connection points: 4
#     Node 6, Type 0, BuildingBlock: TATPOV_clean_sbu_0, # of connection points: 4
#     Node 7, Type 0, BuildingBlock: TATPOV_clean_sbu_0, # of connection points: 4
#     Node 8, Type 0, BuildingBlock: TATPOV_clean_sbu_0, # of connection points: 4
#     Node 9, Type 0, BuildingBlock: TATPOV_clean_sbu_0, # of connection points: 4
#     Node 10, Type 0, BuildingBlock: TATPOV_clean_sbu_0, # of connection points: 4
#     Node 11, Type 0, BuildingBlock: TATPOV_clean_sbu_0, # of connection points: 4
#     Node 12, Type 0, BuildingBlock: TATPOV_clean_sbu_0, # of connection points: 4
#     Node 13, Type 0, BuildingBlock: TATPOV_clean_sbu_0, # of connection points: 4
#     Node 14, Type 0, BuildingBlock: TATPOV_clean_sbu_0, # of connection points: 4
#     Node 15, Type 0, BuildingBlock: TATPOV_clean_sbu_0, # of connection points: 4
#     Node 16, Type 0, BuildingBlock: TATPOV_clean_sbu_0, # of connection points: 4
#     Node 17, Type 0, BuildingBlock: TATPOV_clean_sbu_0, # of connection points: 4
#     Node 18, Type 0, BuildingBlock: TATPOV_clean_sbu_0, # of connection points: 4
#     Node 19, Type 0, BuildingBlock: TATPOV_clean_sbu_0, # of connection points: 4
#     Node 20, Type 0, BuildingBlock: TATPOV_clean_sbu_0, # of connection points: 4
#     Node 21, Type 0, BuildingBlock: TATPOV_clean_sbu_0, # of connection points: 4
#     Node 22, Type 0, BuildingBlock: TATPOV_clean_sbu_0, # of connection points: 4
#     Node 23, Type 0, BuildingBlock: TATPOV_clean_sbu_0, # of connection points: 4
#     Node 24, Type 1, BuildingBlock: MIFKUJ_clean_sbu_0, # of connection points: 6
#     Node 25, Type 1, BuildingBlock: MIFKUJ_clean_sbu_0, # of connection points: 6
#     Node 26, Type 1, BuildingBlock: MIFKUJ_clean_sbu_0, # of connection points: 6
#     Node 27, Type 1, BuildingBlock: MIFKUJ_clean_sbu_0, # of connection points: 6
#     Node 28, Type 1, BuildingBlock: MIFKUJ_clean_sbu_0, # of connection points: 6
#     Node 29, Type 1, BuildingBlock: MIFKUJ_clean_sbu_0, # of connection points: 6
#     Node 30, Type 1, BuildingBlock: MIFKUJ_clean_sbu_0, # of connection points: 6
#     Node 31, Type 1, BuildingBlock: MIFKUJ_clean_sbu_0, # of connection points: 6
#     Node 32, Type 1, BuildingBlock: MIFKUJ_clean_sbu_0, # of connection points: 6
#     Node 33, Type 1, BuildingBlock: MIFKUJ_clean_sbu_0, # of connection points: 6
#     Node 34, Type 1, BuildingBlock: MIFKUJ_clean_sbu_0, # of connection points: 6
#     Node 35, Type 1, BuildingBlock: MIFKUJ_clean_sbu_0, # of connection points: 6
#     Node 36, Type 1, BuildingBlock: MIFKUJ_clean_sbu_0, # of connection points: 6
#     Node 37, Type 1, BuildingBlock: MIFKUJ_clean_sbu_0, # of connection points: 6
#     Node 38, Type 1, BuildingBlock: MIFKUJ_clean_sbu_0, # of connection points: 6
#     Node 39, Type 1, BuildingBlock: MIFKUJ_clean_sbu_0, # of connection points: 6
#     Edge 40, Type (0, 1), BuildingBlock: OJICUG_clean_linker_0, # of connection points: 2
#     Edge 41, Type (0, 1), BuildingBlock: OJICUG_clean_linker_0, # of connection points: 2
#     Edge 42, Type (0, 1), BuildingBlock: OJICUG_clean_linker_0, # of connection points: 2
#     Edge 43, Type (0, 1), BuildingBlock: OJICUG_clean_linker_0, # of connection points: 2
#     Edge 44, Type (0, 1), BuildingBlock: OJICUG_clean_linker_0, # of connection points: 2
#     Edge 45, Type (0, 1), BuildingBlock: OJICUG_clean_linker_0, # of connection points: 2
#     Edge 46, Type (0, 1), BuildingBlock: OJICUG_clean_linker_0, # of connection points: 2
#     Edge 47, Type (0, 1), BuildingBlock: OJICUG_clean_linker_0, # of connection points: 2
#     Edge 48, Type (0, 1), BuildingBlock: OJICUG_clean_linker_0, # of connection points: 2
#     Edge 49, Type (0, 1), BuildingBlock: OJICUG_clean_linker_0, # of connection points: 2
#     Edge 50, Type (0, 1), BuildingBlock: OJICUG_clean_linker_0, # of connection points: 2
#     Edge 51, Type (0, 1), BuildingBlock: OJICUG_clean_linker_0, # of connection points: 2
#     Edge 52, Type (0, 1), BuildingBlock: OJICUG_clean_linker_0, # of connection points: 2
#     Edge 53, Type (0, 1), BuildingBlock: OJICUG_clean_linker_0, # of connection points: 2
#     Edge 54, Type (0, 1), BuildingBlock: OJICUG_clean_linker_0, # of connection points: 2
#     Edge 55, Type (0, 1), BuildingBlock: OJICUG_clean_linker_0, # of connection points: 2
#     Edge 56, Type (0, 1), BuildingBlock: OJICUG_clean_linker_0, # of connection points: 2
#     Edge 57, Type (0, 1), BuildingBlock: OJICUG_clean_linker_0, # of connection points: 2
#     Edge 58, Type (0, 1), BuildingBlock: OJICUG_clean_linker_0, # of connection points: 2
#     Edge 59, Type (0, 1), BuildingBlock: OJICUG_clean_linker_0, # of connection points: 2
#     Edge 60, Type (0, 1), BuildingBlock: OJICUG_clean_linker_0, # of connection points: 2
#     Edge 61, Type (0, 1), BuildingBlock: OJICUG_clean_linker_0, # of connection points: 2
#     Edge 62, Type (0, 1), BuildingBlock: OJICUG_clean_linker_0, # of connection points: 2
#     Edge 63, Type (0, 1), BuildingBlock: OJICUG_clean_linker_0, # of connection points: 2
#     Edge 64, Type (0, 1), BuildingBlock: OJICUG_clean_linker_0, # of connection points: 2
#     Edge 65, Type (0, 1), BuildingBlock: OJICUG_clean_linker_0, # of connection points: 2
#     Edge 66, Type (0, 1), BuildingBlock: OJICUG_clean_linker_0, # of connection points: 2
#     Edge 67, Type (0, 1), BuildingBlock: OJICUG_clean_linker_0, # of connection points: 2
#     Edge 68, Type (0, 1), BuildingBlock: OJICUG_clean_linker_0, # of connection points: 2
#     Edge 69, Type (0, 1), BuildingBlock: OJICUG_clean_linker_0, # of connection points: 2
#     Edge 70, Type (0, 1), BuildingBlock: OJICUG_clean_linker_0, # of connection points: 2
#     Edge 71, Type (0, 1), BuildingBlock: OJICUG_clean_linker_0, # of connection points: 2
#     Edge 72, Type (0, 1), BuildingBlock: OJICUG_clean_linker_0, # of connection points: 2
#     Edge 73, Type (0, 1), BuildingBlock: OJICUG_clean_linker_0, # of connection points: 2
#     Edge 74, Type (0, 1), BuildingBlock: OJICUG_clean_linker_0, # of connection points: 2
#     Edge 75, Type (0, 1), BuildingBlock: OJICUG_clean_linker_0, # of connection points: 2
#     Edge 76, Type (0, 1), BuildingBlock: OJICUG_clean_linker_0, # of connection points: 2
#     Edge 77, Type (0, 1), BuildingBlock: OJICUG_clean_linker_0, # of connection points: 2
#     Edge 78, Type (0, 1), BuildingBlock: OJICUG_clean_linker_0, # of connection points: 2
#     Edge 79, Type (0, 1), BuildingBlock: OJICUG_clean_linker_0, # of connection points: 2
#     Edge 80, Type (0, 1), BuildingBlock: OJICUG_clean_linker_0, # of connection points: 2
#     Edge 81, Type (0, 1), BuildingBlock: OJICUG_clean_linker_0, # of connection points: 2
#     Edge 82, Type (0, 1), BuildingBlock: OJICUG_clean_linker_0, # of connection points: 2
#     Edge 83, Type (0, 1), BuildingBlock: OJICUG_clean_linker_0, # of connection points: 2
#     Edge 84, Type (0, 1), BuildingBlock: OJICUG_clean_linker_0, # of connection points: 2
#     Edge 85, Type (0, 1), BuildingBlock: OJICUG_clean_linker_0, # of connection points: 2
#     Edge 86, Type (0, 1), BuildingBlock: OJICUG_clean_linker_0, # of connection points: 2
#     Edge 87, Type (0, 1), BuildingBlock: OJICUG_clean_linker_0, # of connection points: 2
#     Edge 88, Type (0, 1), BuildingBlock: OJICUG_clean_linker_0, # of connection points: 2
#     Edge 89, Type (0, 1), BuildingBlock: OJICUG_clean_linker_0, # of connection points: 2
#     Edge 90, Type (0, 1), BuildingBlock: OJICUG_clean_linker_0, # of connection points: 2
#     Edge 91, Type (0, 1), BuildingBlock: OJICUG_clean_linker_0, # of connection points: 2
#     Edge 92, Type (0, 1), BuildingBlock: OJICUG_clean_linker_0, # of connection points: 2
#     Edge 93, Type (0, 1), BuildingBlock: OJICUG_clean_linker_0, # of connection points: 2
#     Edge 94, Type (0, 1), BuildingBlock: OJICUG_clean_linker_0, # of connection points: 2
#     Edge 95, Type (0, 1), BuildingBlock: OJICUG_clean_linker_0, # of connection points: 2
#     Edge 96, Type (0, 1), BuildingBlock: OJICUG_clean_linker_0, # of connection points: 2
#     Edge 97, Type (0, 1), BuildingBlock: OJICUG_clean_linker_0, # of connection points: 2
#     Edge 98, Type (0, 1), BuildingBlock: OJICUG_clean_linker_0, # of connection points: 2
#     Edge 99, Type (0, 1), BuildingBlock: OJICUG_clean_linker_0, # of connection points: 2
#     Edge 100, Type (0, 1), BuildingBlock: OJICUG_clean_linker_0, # of connection points: 2
#     Edge 101, Type (0, 1), BuildingBlock: OJICUG_clean_linker_0, # of connection points: 2
#     Edge 102, Type (0, 1), BuildingBlock: OJICUG_clean_linker_0, # of connection points: 2
#     Edge 103, Type (0, 1), BuildingBlock: OJICUG_clean_linker_0, # of connection points: 2
#     Edge 104, Type (0, 1), BuildingBlock: OJICUG_clean_linker_0, # of connection points: 2
#     Edge 105, Type (0, 1), BuildingBlock: OJICUG_clean_linker_0, # of connection points: 2
#     Edge 106, Type (0, 1), BuildingBlock: OJICUG_clean_linker_0, # of connection points: 2
#     Edge 107, Type (0, 1), BuildingBlock: OJICUG_clean_linker_0, # of connection points: 2
#     Edge 108, Type (0, 1), BuildingBlock: OJICUG_clean_linker_0, # of connection points: 2
#     Edge 109, Type (0, 1), BuildingBlock: OJICUG_clean_linker_0, # of connection points: 2
#     Edge 110, Type (0, 1), BuildingBlock: OJICUG_clean_linker_0, # of connection points: 2
#     Edge 111, Type (0, 1), BuildingBlock: OJICUG_clean_linker_0, # of connection points: 2
#     Edge 112, Type (0, 1), BuildingBlock: OJICUG_clean_linker_0, # of connection points: 2
#     Edge 113, Type (0, 1), BuildingBlock: OJICUG_clean_linker_0, # of connection points: 2
#     Edge 114, Type (0, 1), BuildingBlock: OJICUG_clean_linker_0, # of connection points: 2
#     Edge 115, Type (0, 1), BuildingBlock: OJICUG_clean_linker_0, # of connection points: 2
#     Edge 116, Type (0, 1), BuildingBlock: OJICUG_clean_linker_0, # of connection points: 2
#     Edge 117, Type (0, 1), BuildingBlock: OJICUG_clean_linker_0, # of connection points: 2
#     Edge 118, Type (0, 1), BuildingBlock: OJICUG_clean_linker_0, # of connection points: 2
#     Edge 119, Type (0, 1), BuildingBlock: OJICUG_clean_linker_0, # of connection points: 2
#     Edge 120, Type (0, 1), BuildingBlock: OJICUG_clean_linker_0, # of connection points: 2
#     Edge 121, Type (0, 1), BuildingBlock: OJICUG_clean_linker_0, # of connection points: 2
#     Edge 122, Type (0, 1), BuildingBlock: OJICUG_clean_linker_0, # of connection points: 2
#     Edge 123, Type (0, 1), BuildingBlock: OJICUG_clean_linker_0, # of connection points: 2
#     Edge 124, Type (0, 1), BuildingBlock: OJICUG_clean_linker_0, # of connection points: 2
#     Edge 125, Type (0, 1), BuildingBlock: OJICUG_clean_linker_0, # of connection points: 2
#     Edge 126, Type (0, 1), BuildingBlock: OJICUG_clean_linker_0, # of connection points: 2
#     Edge 127, Type (0, 1), BuildingBlock: OJICUG_clean_linker_0, # of connection points: 2
#     Edge 128, Type (0, 1), BuildingBlock: OJICUG_clean_linker_0, # of connection points: 2
#     Edge 129, Type (0, 1), BuildingBlock: OJICUG_clean_linker_0, # of connection points: 2
#     Edge 130, Type (0, 1), BuildingBlock: OJICUG_clean_linker_0, # of connection points: 2
#     Edge 131, Type (0, 1), BuildingBlock: OJICUG_clean_linker_0, # of connection points: 2
#     Edge 132, Type (0, 1), BuildingBlock: OJICUG_clean_linker_0, # of connection points: 2
#     Edge 133, Type (0, 1), BuildingBlock: OJICUG_clean_linker_0, # of connection points: 2
#     Edge 134, Type (0, 1), BuildingBlock: OJICUG_clean_linker_0, # of connection points: 2
#     Edge 135, Type (0, 1), BuildingBlock: OJICUG_clean_linker_0, # of connection points: 2
# Relax obj value: 0.120
# Max RMSD: 0.321
# Mean RMSD: 0.158
data_MOF--net-gar--node1-TATPOV_clean_sbu_0--node2-MIFKUJ_clean_sbu_0--edge1-OJICUG_clean_linker_0
_symmetry_space_group_name_H-M    P1
_symmetry_Int_Tables_number       1
_symmetry_cell_setting            triclinic
loop_
_symmetry_equiv_pos_as_xyz
'x, y, z'
_cell_length_a     41.416584
_cell_length_b     41.767656
_cell_length_c     40.544397
_cell_angle_alpha  95.518849
_cell_angle_beta   95.867547
_cell_angle_gamma 102.11037
loop_
_atom_site_label
_atom_site_type_symbol
_atom_site_fract_x
_atom_site_fract_y
_atom_site_fract_z
_atom_type_partial_charge
Zn0 Zn 0.98756 0.29218 0.48781 0.0
Zn1 Zn 0.03891 0.29726 0.45209 0.0
O2 O 0.05052 0.34098 0.48411 0.0
O3 O 0.01084 0.33402 0.51668 0.0
O4 O 0.07816 0.29894 0.42602 0.0
O5 O 0.99413 0.24876 0.50165 0.0
O6 O 0.03816 0.25522 0.47479 0.0
C7 C 0.03727 0.35136 0.50894 0.0
C8 C 0.96936 0.29546 0.41746 0.0
O9 O 0.99976 0.29493 0.41562 0.0
O10 O 0.95819 0.29515 0.44541 0.0
C11 C 0.07673 0.27961 0.39936 0.0
O12 O 0.04878 0.25821 0.38809 0.0
C13 C 0.01926 0.23884 0.49312 0.0
Zn14 Zn 0.98673 0.6949 0.66086 0.0
Zn15 Zn 0.98915 0.74616 0.62515 0.0
O16 O 0.95454 0.75057 0.65705 0.0
O17 O 0.95458 0.71088 0.68898 0.0
O18 O 0.98617 0.78283 0.5976 0.0
O19 O 0.03639 0.71265 0.67471 0.0
O20 O 0.03683 0.75627 0.64802 0.0
C21 C 0.94421 0.73598 0.6814 0.0
C22 C 0.97195 0.67541 0.59021 0.0
O23 O 0.97987 0.70641 0.58962 0.0
O24 O 0.97051 0.66373 0.61785 0.0
C25 C 0.00507 0.79139 0.5757 0.0
O26 O 0.02954 0.77657 0.57104 0.0
C27 C 0.05195 0.73969 0.66657 0.0
Zn28 Zn 0.4921 0.7802 -0.00552 0.0
Zn29 Zn 0.53716 0.78068 0.95082 0.0
O30 O 0.55008 0.82652 0.97819 0.0
O31 O 0.51754 0.82442 0.01794 0.0
O32 O 0.57409 0.78143 0.922 0.0
O33 O 0.50144 0.73821 0.0103 0.0
O34 O 0.53977 0.74101 0.97627 0.0
C35 C 0.54097 0.84016 0.0041 0.0
C36 C 0.46569 0.77746 0.92385 0.0
O37 O 0.49495 0.77576 0.91804 0.0
O38 O 0.45874 0.77983 0.95363 0.0
C39 C 0.5725 0.76338 0.89449 0.0
O40 O 0.54454 0.74239 0.88238 0.0
C41 C 0.52444 0.72686 -0.00154 0.0
Zn42 Zn 0.49431 0.19013 0.17577 0.0
Zn43 Zn 0.49727 0.24056 0.13773 0.0
O44 O 0.46229 0.24614 0.16854 0.0
O45 O 0.46058 0.2072 0.20158 0.0
O46 O 0.49486 0.27634 0.10886 0.0
O47 O 0.5441 0.20883 0.19054 0.0
O48 O 0.54486 0.25038 0.16074 0.0
C49 C 0.45074 0.23219 0.19274 0.0
C50 C 0.48003 0.16922 0.10462 0.0
O51 O 0.48727 0.20013 0.10336 0.0
O52 O 0.47938 0.1581 0.13262 0.0
C53 C 0.51298 0.28319 0.08592 0.0
O54 O 0.53663 0.26729 0.08108 0.0
C55 C 0.55984 0.23497 0.18075 0.0
Zn56 Zn 0.10136 0.77824 0.1302 0.0
Zn57 Zn 0.05117 0.77078 0.1684 0.0
O58 O 0.04234 0.80668 0.13948 0.0
O59 O 0.07972 0.80872 0.10434 0.0
O60 O 0.01322 0.76455 0.19579 0.0
O61 O 0.08867 0.729 0.11421 0.0
O62 O 0.04633 0.72492 0.14344 0.0
C63 C 0.05485 0.81805 0.11441 0.0
C64 C 0.12237 0.79513 0.20163 0.0
O65 O 0.09166 0.78433 0.2036 0.0
O66 O 0.13278 0.79646 0.17333 0.0
C67 C 0.0095 0.78871 0.21543 0.0
O68 O 0.03071 0.81724 0.21734 0.0
C69 C 0.06297 0.71173 0.12348 0.0
Zn70 Zn 0.46063 0.73612 0.40574 0.0
Zn71 Zn 0.50923 0.74064 0.36645 0.0
O72 O 0.51685 0.7881 0.38911 0.0
O73 O 0.47461 0.78566 0.41839 0.0
O74 O 0.54637 0.74046 0.33842 0.0
O75 O 0.48091 0.7066 0.43392 0.0
O76 O 0.51653 0.70578 0.39729 0.0
C77 C 0.50029 0.80225 0.40845 0.0
C78 C 0.4372 0.71781 0.33536 0.0
O79 O 0.46775 0.72817 0.33228 0.0
O80 O 0.42786 0.71669 0.36412 0.0
C81 C 0.55895 0.76277 0.32132 0.0
O82 O 0.54755 0.78984 0.32105 0.0
C83 C 0.50481 0.69592 0.42332 0.0
Zn84 Zn 0.5998 0.28846 0.63517 0.0
Zn85 Zn 0.5514 0.28271 0.67459 0.0
O86 O 0.54454 0.32051 0.64715 0.0
O87 O 0.58004 0.32041 0.61025 0.0
O88 O 0.51386 0.27831 0.70308 0.0
O89 O 0.58503 0.23992 0.6179 0.0
O90 O 0.54277 0.23706 0.64714 0.0
C91 C 0.55661 0.33134 0.62162 0.0
C92 C 0.62414 0.30234 0.70557 0.0
O93 O 0.59349 0.29247 0.7087 0.0
O94 O 0.63326 0.30469 0.67683 0.0
C95 C 0.51019 0.30245 0.72286 0.0
O96 O 0.53165 0.33086 0.72511 0.0
C97 C 0.55846 0.22352 0.62635 0.0
Zn98 Zn 0.95127 0.23153 0.90626 0.0
Zn99 Zn 0.00513 0.23398 0.87489 0.0
O100 O 0.01166 0.28207 0.89518 0.0
O101 O 0.96565 0.28114 0.91838 0.0
O102 O 0.04528 0.23264 0.85115 0.0
O103 O 0.9667 0.20264 0.93833 0.0
O104 O 0.00897 0.20132 0.90985 0.0
C105 C 0.99314 0.29701 0.91124 0.0
C106 C 0.93524 0.2129 0.83574 0.0
O107 O 0.96666 0.22194 0.83664 0.0
O108 O 0.92216 0.21221 0.86263 0.0
C109 C 0.0547 0.25077 0.8289 0.0
O110 O 0.03794 0.27282 0.82051 0.0
C111 C 0.99283 0.19252 0.93386 0.0
Zn112 Zn 0.45482 0.98444 0.26938 0.0
Zn113 Zn 0.41231 0.02155 0.26448 0.0
O114 O 0.43443 0.03531 0.31347 0.0
O115 O 0.47482 0.00833 0.31365 0.0
O116 O 0.37969 0.05096 0.25816 0.0
O117 O 0.47708 0.00015 0.23148 0.0
O118 O 0.44539 0.03635 0.23108 0.0
C119 C 0.46083 0.02899 0.32784 0.0
C120 C 0.38937 0.94561 0.25689 0.0
O121 O 0.38275 0.97389 0.25462 0.0
O122 O 0.41913 0.94333 0.26443 0.0
C123 C 0.3626 0.05739 0.28122 0.0
O124 O 0.36565 0.04382 0.30897 0.0
C125 C 0.46954 0.02538 0.22077 0.0
Zn126 Zn 0.22066 0.1835 0.50512 0.0
Zn127 Zn 0.2649 0.14524 0.50118 0.0
O128 O 0.26815 0.17167 0.45997 0.0
O129 O 0.23757 0.20832 0.46803 0.0
O130 O 0.30033 0.11815 0.49963 0.0
O131 O 0.23963 0.20056 0.553 0.0
O132 O 0.27816 0.17193 0.54787 0.0
C133 C 0.25726 0.19641 0.45116 0.0
C134 C 0.19118 0.11344 0.49556 0.0
O135 O 0.22134 0.11071 0.49949 0.0
O136 O 0.18426 0.14152 0.49482 0.0
C137 C 0.31747 0.11565 0.4756 0.0
O138 O 0.31179 0.13051 0.44918 0.0
C139 C 0.26536 0.19191 0.56532 0.0
Zn140 Zn 0.10785 0.06102 0.78645 0.0
Zn141 Zn 0.14546 0.0161 0.7874 0.0
O142 O 0.11777 0.00893 0.82745 0.0
O143 O 0.08349 0.04252 0.8233 0.0
O144 O 0.17263 0.98083 0.78736 0.0
O145 O 0.08966 0.04369 0.73821 0.0
O146 O 0.1184 0.00507 0.74054 0.0
C147 C 0.09371 0.02027 0.83766 0.0
C148 C 0.17835 0.08986 0.79618 0.0
O149 O 0.18063 0.05986 0.79129 0.0
O150 O 0.15019 0.09699 0.79724 0.0
C151 C 0.1788 0.96602 0.81247 0.0
O152 O 0.16808 0.97425 0.84078 0.0
C153 C 0.09795 0.01862 0.72439 0.0
Zn154 Zn 0.3163 0.83117 0.02496 0.0
Zn155 Zn 0.2771 0.87181 0.0224 0.0
O156 O 0.26745 0.84814 0.97349 0.0
O157 O 0.30168 0.8143 0.97724 0.0
O158 O 0.24465 0.90205 0.02593 0.0
O159 O 0.29337 0.80492 0.05689 0.0
O160 O 0.26006 0.83955 0.05635 0.0
C161 C 0.27955 0.82487 0.96049 0.0
C162 C 0.35348 0.89663 0.04183 0.0
O163 O 0.32481 0.90295 0.03491 0.0
O164 O 0.35652 0.86705 0.04031 0.0
C165 C 0.24737 0.93078 0.01702 0.0
O166 O 0.27341 0.9436 0.00281 0.0
C167 C 0.26827 0.81399 0.06643 0.0
Zn168 Zn 0.31411 0.33197 0.04232 0.0
Zn169 Zn 0.27075 0.37032 0.04285 0.0
O170 O 0.26166 0.34721 -0.00539 0.0
O171 O 0.29986 0.31781 -0.00718 0.0
O172 O 0.23566 0.39736 0.04377 0.0
O173 O 0.29241 0.30521 0.07604 0.0
O174 O 0.26007 0.34053 0.08088 0.0
C175 C 0.27606 0.32794 0.97822 0.0
C176 C 0.34543 0.401 0.05578 0.0
O177 O 0.3156 0.40435 0.04961 0.0
O178 O 0.35141 0.37256 0.05681 0.0
C179 C 0.23065 0.41684 0.02246 0.0
O180 O 0.25008 0.42118 -0.00115 0.0
C181 C 0.26975 0.31524 0.08993 0.0
Zn182 Zn 0.76574 0.20588 0.03061 0.0
Zn183 Zn 0.80213 0.16183 0.03033 0.0
O184 O 0.8191 0.19208 -0.00539 0.0
O185 O 0.78647 0.2274 -0.00571 0.0
O186 O 0.83085 0.12774 0.02913 0.0
O187 O 0.78452 0.22476 0.07697 0.0
O188 O 0.8115 0.18467 0.07982 0.0
C189 C 0.81028 0.21688 0.98334 0.0
C190 C 0.72565 0.1405 0.01599 0.0
O191 O 0.75412 0.13313 0.01781 0.0
O192 O 0.72376 0.17038 0.02114 0.0
C193 C 0.84158 0.11775 0.00252 0.0
O194 O 0.83412 0.12987 0.97473 0.0
C195 C 0.80342 0.21027 0.09344 0.0
Zn196 Zn 0.08508 0.54687 0.26868 0.0
Zn197 Zn 0.12586 0.50499 0.26588 0.0
O198 O 0.09665 0.48817 0.30139 0.0
O199 O 0.06292 0.5225 0.30298 0.0
O200 O 0.15442 0.47173 0.2616 0.0
O201 O 0.06506 0.53222 0.22153 0.0
O202 O 0.09988 0.49902 0.21853 0.0
C203 C 0.07203 0.49746 0.31254 0.0
C204 C 0.15472 0.57906 0.28419 0.0
O205 O 0.15913 0.54972 0.27986 0.0
O206 O 0.12555 0.58421 0.28061 0.0
C207 C 0.17601 0.46743 0.28442 0.0
O208 O 0.18165 0.48652 0.31306 0.0
C209 C 0.07623 0.51057 0.20511 0.0
Zn210 Zn 0.81529 0.83583 0.54299 0.0
Zn211 Zn 0.769 0.87132 0.54259 0.0
O212 O 0.76106 0.84773 0.49449 0.0
O213 O 0.8011 0.82047 0.49358 0.0
O214 O 0.7327 0.89706 0.54317 0.0
O215 O 0.79453 0.80866 0.57696 0.0
O216 O 0.75908 0.84102 0.5804 0.0
C217 C 0.77651 0.82909 0.4786 0.0
C218 C 0.84315 0.90558 0.55547 0.0
O219 O 0.81272 0.90701 0.54934 0.0
O220 O 0.85098 0.87796 0.55684 0.0
C221 C 0.73135 0.9215 0.52698 0.0
O222 O 0.75518 0.93177 0.5089 0.0
C223 C 0.77046 0.81679 0.58995 0.0
Zn224 Zn 0.96961 0.97592 0.26126 0.0
Zn225 Zn 0.92473 0.01178 0.25181 0.0
O226 O 0.94728 0.02658 0.30065 0.0
O227 O 0.98703 -0.00067 0.30718 0.0
O228 O 0.89592 0.04476 0.24563 0.0
O229 O 0.99196 0.98958 0.22129 0.0
O230 O 0.95358 0.01812 0.21251 0.0
C231 C 0.97117 0.01963 0.31901 0.0
C232 C 0.89997 0.9389 0.25356 0.0
O233 O 0.89251 0.96637 0.24892 0.0
O234 O 0.93023 0.93701 0.2584 0.0
C235 C 0.87696 0.05163 0.26677 0.0
O236 O 0.8742 0.03524 0.2928 0.0
C237 C 0.97915 0.00844 0.20397 0.0
Zn238 Zn 0.26156 0.70099 0.53606 0.0
Zn239 Zn 0.29802 0.65778 0.53495 0.0
O240 O 0.3146 0.68804 0.49915 0.0
O241 O 0.2821 0.72347 0.50027 0.0
O242 O 0.32911 0.6262 0.53507 0.0
O243 O 0.27955 0.72009 0.58249 0.0
O244 O 0.30748 0.68074 0.58453 0.0
C245 C 0.30571 0.71316 0.48867 0.0
C246 C 0.22192 0.63533 0.51972 0.0
O247 O 0.2504 0.62792 0.52165 0.0
O248 O 0.22005 0.66516 0.52559 0.0
C249 C 0.33439 0.60816 0.5099 0.0
O250 O 0.31782 0.60831 0.48052 0.0
C251 C 0.29913 0.706 0.59853 0.0
Zn252 Zn 0.46054 0.46688 0.76078 0.0
Zn253 Zn 0.42116 0.50944 0.75744 0.0
O254 O 0.44296 0.5192 0.80665 0.0
O255 O 0.47391 0.48248 0.81005 0.0
O256 O 0.39488 0.54467 0.75267 0.0
O257 O 0.48846 0.48712 0.7269 0.0
O258 O 0.45211 0.51828 0.72045 0.0
C259 C 0.46279 0.50574 0.82386 0.0
C260 C 0.39007 0.43592 0.74477 0.0
O261 O 0.38634 0.46548 0.74936 0.0
O262 O 0.41907 0.43026 0.74634 0.0
C263 C 0.36941 0.54738 0.76684 0.0
O264 O 0.35788 0.52549 0.78639 0.0
C265 C 0.47781 0.50884 0.71204 0.0
Zn266 Zn 0.59985 0.0495 0.74405 0.0
Zn267 Zn 0.63525 0.00525 0.74846 0.0
O268 O 0.60404 0.9966 0.78464 0.0
O269 O 0.57864 0.03788 0.78403 0.0
O270 O 0.6603 0.96895 0.75016 0.0
O271 O 0.57537 0.02752 0.70066 0.0
O272 O 0.61068 0.99475 0.70014 0.0
C273 C 0.58338 0.01219 0.79602 0.0
C274 C 0.66925 0.0784 0.75633 0.0
O275 O 0.67126 0.04874 0.75929 0.0
O276 O 0.64135 0.08493 0.74762 0.0
C277 C 0.6811 0.96479 0.77382 0.0
O278 O 0.68888 0.98636 0.80076 0.0
C279 C 0.58597 0.00436 0.68625 0.0
Zn280 Zn 0.72197 0.67482 0.00309 0.0
Zn281 Zn 0.76848 0.6396 -0.0011 0.0
O282 O 0.76921 0.66508 0.95691 0.0
O283 O 0.73571 0.69897 0.96443 0.0
O284 O 0.80636 0.61612 -0.0048 0.0
O285 O 0.74195 0.69427 0.05021 0.0
O286 O 0.78173 0.66717 0.04526 0.0
C287 C 0.75612 0.68835 0.94752 0.0
C288 C 0.69613 0.60392 -0.0039 0.0
O289 O 0.72676 0.60275 -0.00117 0.0
O290 O 0.68758 0.63128 -0.00467 0.0
C291 C 0.81294 0.59526 0.01433 0.0
O292 O 0.79374 0.58725 0.03747 0.0
C293 C 0.76846 0.68696 0.06244 0.0
Zn294 Zn 0.96443 0.48152 0.75081 0.0
Zn295 Zn 0.92051 0.51948 0.75807 0.0
O296 O 0.94619 0.52363 0.80522 0.0
O297 O 0.98344 0.49358 0.79867 0.0
O298 O 0.88884 0.54964 0.76428 0.0
O299 O 0.98565 0.5099 0.71886 0.0
O300 O 0.94969 0.54153 0.72462 0.0
C301 C 0.97084 0.51255 0.8171 0.0
C302 C 0.89651 0.44502 0.73579 0.0
O303 O 0.89005 0.4733 0.74259 0.0
O304 O 0.92645 0.4422 0.73694 0.0
C305 C 0.86836 0.55478 0.74084 0.0
O306 O 0.86653 0.53901 0.71083 0.0
C307 C 0.97513 0.5352 0.71243 0.0
Zn308 Zn 0.8322 0.34803 0.53931 0.0
Zn309 Zn 0.78899 0.38314 0.52888 0.0
O310 O 0.78823 0.35811 0.48178 0.0
O311 O 0.83008 0.33379 0.49057 0.0
O312 O 0.75467 0.41106 0.52307 0.0
O313 O 0.80263 0.31782 0.56375 0.0
O314 O 0.76787 0.35094 0.56074 0.0
C315 C 0.80681 0.33963 0.47095 0.0
C316 C 0.86163 0.41437 0.56079 0.0
O317 O 0.83353 0.41736 0.54675 0.0
O318 O 0.86706 0.38599 0.56335 0.0
C319 C 0.74777 0.42824 0.548 0.0
O320 O 0.76434 0.42891 0.57756 0.0
C321 C 0.77563 0.32501 0.57022 0.0
Zn322 Zn 0.59966 0.55258 0.28675 0.0
Zn323 Zn 0.64184 0.51389 0.29425 0.0
O324 O 0.61595 0.51056 0.33589 0.0
O325 O 0.58414 0.5465 0.33173 0.0
O326 O 0.66972 0.48001 0.30018 0.0
O327 O 0.57555 0.52499 0.24438 0.0
O328 O 0.61488 0.49692 0.24756 0.0
C329 C 0.59475 0.52533 0.3475 0.0
C330 C 0.66886 0.58571 0.28622 0.0
O331 O 0.67538 0.55843 0.29328 0.0
O332 O 0.63897 0.58874 0.28191 0.0
C333 C 0.69001 0.47355 0.28033 0.0
O334 O 0.69477 0.49071 0.25505 0.0
C335 C 0.58924 0.50325 0.23154 0.0
Zn336 Zn 0.06781 0.99148 0.03479 0.0
Zn337 Zn 1.00115 0.02414 0.00286 0.0
C338 C 0.03982 0.93828 0.06793 0.0
O339 O 0.05074 0.96171 0.0929 0.0
C340 C 0.01898 0.09254 0.0139 0.0
O341 O 1.00002 0.08625 0.03763 0.0
O342 O 0.1152 0.98581 0.0457 0.0
O343 O 0.06574 0.00058 0.98672 0.0
O344 O 0.0127 0.99333 0.96663 0.0
C345 C 0.13859 0.99691 0.02894 0.0
O346 O 0.13376 0.01743 0.00729 0.0
O347 O 0.04202 0.94536 0.03829 0.0
C348 C 0.93265 0.02999 0.00884 0.0
O349 O 0.93635 0.01512 0.0356 0.0
O350 O 0.95516 0.03266 0.98947 0.0
O351 O 1.00244 0.01526 0.05118 0.0
O352 O 0.05573 0.02315 0.07077 0.0
O353 O 0.02878 0.06881 -0.00094 0.0
C354 C 0.04298 0.9954 0.96209 0.0
C355 C 0.02564 0.02237 0.07556 0.0
Zn356 Zn 0.28968 0.76526 0.30759 0.0
Zn357 Zn 0.26732 0.75158 0.23735 0.0
C358 C 0.26453 0.69278 0.31442 0.0
O359 O 0.29192 0.69242 0.33363 0.0
C360 C 0.29006 0.82328 0.22907 0.0
O361 O 0.26329 0.82038 0.20772 0.0
O362 O 0.30813 0.77416 0.35604 0.0
O363 O 0.32784 0.76525 0.28062 0.0
O364 O 0.29872 0.7217 0.24814 0.0
C365 C 0.33272 0.76256 0.36685 0.0
O366 O 0.34921 0.7492 0.34539 0.0
O367 O 0.26089 0.71908 0.3026 0.0
C368 C 0.22482 0.75224 0.17661 0.0
O369 O 0.20586 0.76349 0.19685 0.0
O370 O 0.24989 0.74219 0.18883 0.0
O371 O 0.22899 0.75123 0.26379 0.0
O372 O 0.25774 0.79489 0.29652 0.0
O373 O 0.29527 0.79844 0.24288 0.0
C374 C 0.32669 0.73839 0.26252 0.0
C375 C 0.22991 0.77821 0.28158 0.0
Zn376 Zn 0.48567 0.03327 0.51909 0.0
Zn377 Zn 0.55917 0.00073 0.49611 0.0
C378 C 0.50326 0.08991 0.56434 0.0
O379 O 0.47855 0.07153 0.57653 0.0
C380 C 0.54371 0.94183 0.45345 0.0
O381 O 0.56792 0.95978 0.44022 0.0
O382 O 0.4379 0.03868 0.51132 0.0
O383 O 0.49921 0.01526 0.47625 0.0
O384 O 0.54889 0.03003 0.46176 0.0
C385 C 0.43494 0.06232 0.4944 0.0
O386 O 0.46157 0.07924 0.48385 0.0
O387 O 0.51285 0.07849 0.5377 0.0
C388 C 0.61114 0.9717 0.51853 0.0
O389 O 0.5849 0.95342 0.52846 0.0
O390 O 0.60745 0.99644 0.50357 0.0
O391 O 0.54504 0.0184 0.53884 0.0
O392 O 0.49516 0.00325 0.55288 0.0
O393 O 0.53318 0.95473 0.47879 0.0
C394 C 0.51849 0.03206 0.45876 0.0
C395 C 0.5256 0.00133 0.55605 0.0
Zn396 Zn 0.31625 0.26361 0.77189 0.0
Zn397 Zn 0.24424 0.26694 0.76866 0.0
C398 C 0.3128 0.23122 0.70558 0.0
O399 O 0.3342 0.21669 0.72091 0.0
C400 C 0.24597 0.29939 0.83448 0.0
O401 O 0.22636 0.31499 0.81798 0.0
O402 O 0.36575 0.26562 0.77505 0.0
O403 O 0.30999 0.30929 0.78519 0.0
O404 O 0.26857 0.30409 0.74543 0.0
C405 C 0.3876 0.29256 0.7811 0.0
O406 O 0.37856 0.31988 0.79099 0.0
O407 O 0.30107 0.25239 0.72244 0.0
C408 C 0.17937 0.24308 0.78044 0.0
O409 O 0.19595 0.22309 0.79401 0.0
O410 O 0.19473 0.26499 0.76441 0.0
O411 O 0.25009 0.22057 0.75568 0.0
O412 O 0.29232 0.22618 0.79495 0.0
O413 O 0.25807 0.27798 0.81842 0.0
C414 C 0.29486 0.32161 0.76251 0.0
C415 C 0.26656 0.20818 0.77734 0.0
Zn416 Zn 0.01641 0.97667 0.51916 0.0
Zn417 Zn 0.01603 0.04582 0.53048 0.0
C418 C 0.05117 0.97524 0.58442 0.0
O419 O 0.06559 0.95516 0.56727 0.0
C420 C 0.98715 0.05104 0.46251 0.0
O421 O 0.9714 0.07144 0.47729 0.0
O422 O 0.01522 0.9281 0.51125 0.0
O423 O 0.96958 0.98339 0.50808 0.0
O424 O 0.97848 0.02004 0.55226 0.0
C425 C 0.99 0.90898 0.51951 0.0
O426 O 0.96483 0.92136 0.52747 0.0
O427 O 0.02907 0.98744 0.56923 0.0
C428 C 0.03931 0.11252 0.52524 0.0
O429 O 0.06019 0.09911 0.50935 0.0
O430 O 0.01789 0.09421 0.53959 0.0
O431 O 0.06267 0.03913 0.54142 0.0
O432 O 0.05373 0.00224 0.49721 0.0
O433 O 0.00565 0.03673 0.48016 0.0
C434 C 0.95875 0.99697 0.53276 0.0
C435 C 0.07349 0.02514 0.51695 0.0
Zn436 Zn 0.25095 0.79543 0.76062 0.0
Zn437 Zn 0.30052 0.72339 0.78649 0.0
C438 C 0.19107 0.78836 0.71681 0.0
O439 O 0.20789 0.81598 0.70823 0.0
C440 C 0.35745 0.77192 0.8207 0.0
O441 O 0.33512 0.7894 0.82574 0.0
O442 O 0.25 0.84338 0.77272 0.0
O443 O 0.25951 0.77348 0.80213 0.0
O444 O 0.2782 0.73495 0.82669 0.0
C445 C 0.22832 0.84747 0.79189 0.0
O446 O 0.21094 0.82155 0.80302 0.0
O447 O 0.20488 0.77401 0.73868 0.0
C448 C 0.32312 0.66815 0.76205 0.0
O449 O 0.34259 0.69237 0.75037 0.0
O450 O 0.29989 0.67463 0.77803 0.0
O451 O 0.27767 0.74087 0.74832 0.0
O452 O 0.28284 0.78731 0.72764 0.0
O453 O 0.34912 0.74544 0.80061 0.0
C454 C 0.26482 0.75985 0.82828 0.0
C455 C 0.29111 0.7597 0.72845 0.0
Zn456 Zn 0.52809 0.02193 0.9803 0.0
Zn457 Zn 0.53778 0.03479 0.05216 0.0
C458 C 0.60213 0.04191 0.9841 0.0
O459 O 0.60128 0.01203 0.97002 0.0
C460 C 0.48076 0.98884 0.06686 0.0
O461 O 0.50309 0.98531 0.09089 0.0
O462 O 0.52062 0.0121 0.9308 0.0
O463 O 0.52693 0.97924 -0.001 0.0
O464 O 0.56553 0.00182 0.0409 0.0
C465 C 0.52828 0.98683 0.9164 0.0
O466 O 0.53674 0.9647 0.93438 0.0
O467 O 0.57516 0.04994 0.99013 0.0
C468 C 0.53858 0.07257 0.11518 0.0
O469 O 0.52936 0.09422 0.09704 0.0
O470 O 0.54815 0.04838 0.10104 0.0
O471 O 0.53959 0.07582 0.02948 0.0
O472 O 0.49599 0.04923 -0.00447 0.0
O473 O 0.48952 0.00915 0.04629 0.0
C474 C 0.55048 0.97689 0.02057 0.0
C475 C 0.51144 0.07552 0.01369 0.0
Zn476 Zn 0.27363 0.21938 0.25615 0.0
Zn477 Zn 0.23799 0.28858 0.28495 0.0
C478 C 0.33425 0.26181 0.24166 0.0
O479 O 0.31458 0.27154 0.21913 0.0
C480 C 0.19359 0.28733 0.33065 0.0
O481 O 0.22171 0.30629 0.34556 0.0
O482 O 0.28071 0.17274 0.24954 0.0
O483 O 0.25109 0.22163 0.29764 0.0
O484 O 0.27027 0.27353 0.31842 0.0
C485 C 0.29882 0.16677 0.27453 0.0
O486 O 0.30932 0.18988 0.29995 0.0
O487 O 0.32145 0.24485 0.26336 0.0
C488 C 0.22063 0.34593 0.27062 0.0
O489 O 0.20041 0.32242 0.24985 0.0
O490 O 0.24288 0.33821 0.29044 0.0
O491 O 0.23823 0.27699 0.23477 0.0
O492 O 0.25093 0.23085 0.21413 0.0
O493 O 0.19294 0.27364 0.301 0.0
C494 C 0.26415 0.24305 0.32234 0.0
C495 C 0.24133 0.25733 0.20987 0.0
Zn496 Zn 0.52379 0.4648 0.02303 0.0
Zn497 Zn 0.52394 0.53398 0.03421 0.0
C498 C 0.5549 0.46106 0.09002 0.0
O499 O 0.57012 0.44083 0.07417 0.0
C500 C 0.49208 0.53774 0.96757 0.0
O501 O 0.47697 0.55779 0.98384 0.0
O502 O 0.52224 0.41619 0.01503 0.0
O503 O 0.47714 0.47196 0.01164 0.0
O504 O 0.48615 0.50873 0.05585 0.0
C505 C 0.49722 0.39774 0.02442 0.0
O506 O 0.47265 0.41086 0.03288 0.0
O507 O 0.53486 0.47456 0.07334 0.0
C508 C 0.54688 0.60085 0.02869 0.0
O509 O 0.56723 0.5875 0.01189 0.0
O510 O 0.52598 0.58242 0.04346 0.0
O511 O 0.57047 0.52716 0.04568 0.0
O512 O 0.56168 0.49037 0.00155 0.0
O513 O 0.51251 0.52437 0.98386 0.0
C514 C 0.46626 0.48606 0.03601 0.0
C515 C 0.5814 0.51337 0.02119 0.0
Zn516 Zn 0.76219 0.29799 0.2656 0.0
Zn517 Zn 0.81124 0.23051 0.28704 0.0
C518 C 0.70083 0.28325 0.22379 0.0
O519 O 0.71764 0.30762 0.20997 0.0
C520 C 0.86829 0.28374 0.30655 0.0
O521 O 0.8458 0.30166 0.30742 0.0
O522 O 0.75926 0.34603 0.26771 0.0
O523 O 0.77408 0.28937 0.31319 0.0
O524 O 0.79547 0.2478 0.32922 0.0
C525 C 0.73874 0.35402 0.28658 0.0
O526 O 0.72322 0.33169 0.30366 0.0
O527 O 0.71536 0.27282 0.24841 0.0
C528 C 0.83146 0.17305 0.26485 0.0
O529 O 0.84633 0.19468 0.24667 0.0
O530 O 0.81286 0.18217 0.28535 0.0
O531 O 0.78382 0.23722 0.24592 0.0
O532 O 0.79289 0.28725 0.2324 0.0
O533 O 0.85964 0.25428 0.29227 0.0
C534 C 0.78401 0.27341 0.33599 0.0
C535 C 0.79691 0.25791 0.22759 0.0
Zn536 Zn 0.02315 0.51996 0.48701 0.0
Zn537 Zn 0.04035 0.54996 0.55451 0.0
C538 C 0.0975 0.53841 0.48436 0.0
O539 O 0.09617 0.50843 0.47029 0.0
C540 C 0.98469 0.511 0.58141 0.0
O541 O 0.00805 0.50991 0.60551 0.0
O542 O 0.01289 0.49817 0.44033 0.0
O543 O 0.02023 0.48462 0.51673 0.0
O544 O 0.06556 0.51303 0.54786 0.0
C545 C 0.02168 0.47153 0.43162 0.0
O546 O 0.03428 0.45589 0.45455 0.0
O547 O 0.07098 0.54653 0.49186 0.0
C548 C 0.03986 0.5944 0.61085 0.0
O549 O 0.02393 0.60861 0.589 0.0
O550 O 0.05603 0.5737 0.60021 0.0
O551 O 0.03782 0.58364 0.52209 0.0
O552 O 0.99289 0.55106 0.49499 0.0
O553 O 0.99252 0.52699 0.5572 0.0
C554 C 0.04638 0.48544 0.53625 0.0
C555 C 0.00852 0.57994 0.50718 0.0
Zn556 Zn 0.81711 0.75541 0.26967 0.0
Zn557 Zn 0.74896 0.77061 0.26835 0.0
C558 C 0.81394 0.72695 0.20287 0.0
O559 O 0.83173 0.70935 0.21888 0.0
C560 C 0.74903 0.79911 0.3348 0.0
O561 O 0.73317 0.81767 0.31788 0.0
O562 O 0.86584 0.75408 0.27427 0.0
O563 O 0.81616 0.80139 0.2897 0.0
O564 O 0.77867 0.80874 0.25086 0.0
C565 C 0.88248 0.77801 0.26163 0.0
O566 O 0.86689 0.79898 0.2486 0.0
O567 O 0.80394 0.74961 0.21952 0.0
C568 C 0.68205 0.75085 0.27343 0.0
O569 O 0.69502 0.72751 0.28521 0.0
O570 O 0.7009 0.77394 0.26161 0.0
O571 O 0.74937 0.72384 0.2501 0.0
O572 O 0.78862 0.71679 0.28752 0.0
O573 O 0.75958 0.7764 0.31887 0.0
C574 C 0.80558 0.82012 0.27029 0.0
C575 C 0.76113 0.70527 0.26897 0.0
Zn576 Zn 0.79655 0.26765 0.80002 0.0
Zn577 Zn 0.77287 0.25411 0.72976 0.0
C578 C 0.77237 0.1941 0.803 0.0
O579 O 0.79668 0.19432 0.82654 0.0
C580 C 0.79327 0.32577 0.72045 0.0
O581 O 0.76327 0.32392 0.70535 0.0
O582 O 0.81392 0.27473 0.84878 0.0
O583 O 0.83485 0.26955 0.77291 0.0
O584 O 0.80604 0.22578 0.74043 0.0
C585 C 0.83825 0.26313 0.86024 0.0
O586 O 0.85529 0.24977 0.83936 0.0
O587 O 0.76939 0.22071 0.79147 0.0
C588 C 0.72764 0.2537 0.67128 0.0
O589 O 0.70967 0.26454 0.69287 0.0
O590 O 0.75298 0.24317 0.68197 0.0
O591 O 0.73523 0.2542 0.75743 0.0
O592 O 0.76423 0.29739 0.7905 0.0
O593 O 0.80062 0.30062 0.73207 0.0
C594 C 0.83391 0.24238 0.75535 0.0
C595 C 0.73625 0.28071 0.77599 0.0
Zn596 Zn 0.77229 0.71465 0.75126 0.0
Zn597 Zn 0.73523 0.7814 0.78171 0.0
C598 C 0.83111 0.76225 0.73948 0.0
O599 O 0.81062 0.7745 0.72015 0.0
C600 C 0.69002 0.77743 0.82643 0.0
O601 O 0.71751 0.79717 0.8418 0.0
O602 O 0.78119 0.66911 0.74098 0.0
O603 O 0.7512 0.71372 0.79377 0.0
O604 O 0.7678 0.76602 0.81469 0.0
C605 C 0.80154 0.66186 0.76326 0.0
O606 O 0.81242 0.68283 0.79037 0.0
O607 O 0.81932 0.74187 0.75887 0.0
C608 C 0.71693 0.83847 0.76883 0.0
O609 O 0.69618 0.8147 0.74882 0.0
O610 O 0.73959 0.831 0.78834 0.0
O611 O 0.73594 0.77221 0.73153 0.0
O612 O 0.74877 0.72665 0.70989 0.0
O613 O 0.69008 0.76458 0.79664 0.0
C614 C 0.76254 0.73553 0.81863 0.0
C615 C 0.73918 0.75321 0.70623 0.0
Zn616 Zn 0.57584 0.50883 0.54836 0.0
Zn617 Zn 0.50649 0.52906 0.51486 0.0
C618 C 0.5499 0.4543 0.57817 0.0
O619 O 0.56546 0.4763 0.60307 0.0
C620 C 0.52367 0.57946 0.47646 0.0
O621 O 0.50898 0.55417 0.45436 0.0
O622 O 0.62309 0.50247 0.55822 0.0
O623 O 0.57429 0.52453 0.50283 0.0
O624 O 0.5236 0.49804 0.48206 0.0
C625 C 0.63074 0.48358 0.53508 0.0
O626 O 0.60883 0.47222 0.50856 0.0
O627 O 0.54909 0.46238 0.54865 0.0
C628 C 0.45047 0.55229 0.52312 0.0
O629 O 0.47365 0.56876 0.54683 0.0
O630 O 0.45769 0.53024 0.50292 0.0
O631 O 0.50978 0.52406 0.56433 0.0
O632 O 0.56272 0.53708 0.58605 0.0
O633 O 0.52809 0.57513 0.50708 0.0
C634 C 0.55375 0.50949 0.47799 0.0
C635 C 0.53196 0.53302 0.58953 0.0
Zn636 Zn 0.98917 0.52008 0.02227 0.0
Zn637 Zn 0.05663 0.49392 0.00081 0.0
C638 C 0.01208 0.57537 0.06913 0.0
O639 O 0.98967 0.55666 0.08385 0.0
C640 C 0.03751 0.43638 0.95616 0.0
O641 O 0.06028 0.45467 0.94149 0.0
O642 O 0.94218 0.52656 0.02507 0.0
O643 O 0.99124 0.51052 0.9733 0.0
O644 O 0.04502 0.52492 0.9689 0.0
C645 C 0.93512 0.54925 0.00868 0.0
O646 O 0.95778 0.56503 0.99203 0.0
O647 O 0.01821 0.56445 0.0406 0.0
C648 C 0.11018 0.46639 0.01793 0.0
O649 O 0.08631 0.45106 0.03351 0.0
O650 O 0.10416 0.48847 0.0001 0.0
O651 O 0.05379 0.50472 0.0494 0.0
O652 O 1.00026 0.48782 0.05306 0.0
O653 O 0.02926 0.44862 0.98318 0.0
C654 C 0.01476 0.52138 0.95671 0.0
C655 C 0.03052 0.4925 0.06563 0.0
C656 C 0.99097 0.16719 0.98712 0.0
C657 C 0.00397 0.17019 0.95659 0.0
H658 H 0.98655 0.14115 0.02979 0.0
C659 C 0.02625 0.15069 0.94764 0.0
H660 H 0.97421 0.18228 -0.00493 0.0
C661 C 0.03333 0.12687 0.96765 0.0
C662 C 0.01848 0.12241 -0.0029 0.0
H663 H 0.03691 0.15268 0.92442 0.0
H664 H 0.04903 0.11086 0.95914 0.0
C665 C 0.99832 0.14375 0.00724 0.0
C666 C 0.14223 0.77712 0.25499 0.0
C667 C 0.14675 0.79999 0.23175 0.0
H668 H 0.16656 0.75241 0.29048 0.0
C669 C 0.17739 0.8227 0.23402 0.0
H670 H 0.11878 0.75943 0.25386 0.0
C671 C 0.20434 0.81972 0.25637 0.0
C672 C 0.20115 0.79297 0.27516 0.0
H673 H 0.18128 0.84083 0.21658 0.0
H674 H 0.22853 0.83541 0.2555 0.0
C675 C 0.16947 0.77328 0.27624 0.0
C676 C 0.53685 0.85769 0.40572 0.0
C677 C 0.51086 0.83813 0.41938 0.0
H678 H 0.5673 0.90578 0.40549 0.0
C679 C 0.49502 0.85319 0.44365 0.0
H680 H 0.54948 0.84692 0.38689 0.0
C681 C 0.50528 0.88697 0.45439 0.0
C682 C 0.53147 0.90645 0.44095 0.0
H683 H 0.47487 0.83883 0.45466 0.0
H684 H 0.49288 0.89774 0.47343 0.0
C685 C 0.54696 0.89149 0.41631 0.0
C686 C 0.45831 0.26858 0.73961 0.0
C687 C 0.4807 0.29923 0.74118 0.0
H688 H 0.41166 0.24229 0.75151 0.0
C689 C 0.47372 0.32703 0.75901 0.0
H690 H 0.46304 0.24662 0.7263 0.0
C691 C 0.44419 0.32455 0.7735 0.0
C692 C 0.42108 0.29418 0.7706 0.0
H693 H 0.4905 0.35099 0.76083 0.0
H694 H 0.43897 0.34671 0.78592 0.0
C695 C 0.42888 0.26607 0.75422 0.0
C696 C 0.96969 0.82898 0.55632 0.0
C697 C 0.99992 0.81875 0.55678 0.0
H698 H 0.94251 0.86495 0.54322 0.0
C699 C 0.0254 0.83597 0.54063 0.0
H700 H 0.94935 0.81583 0.56803 0.0
C701 C 0.02153 0.86438 0.52641 0.0
C702 C 0.992 0.87577 0.52792 0.0
H703 H 0.04887 0.82846 0.54038 0.0
H704 H 0.04222 0.87824 0.51572 0.0
C705 C 0.9657 0.85706 0.54189 0.0
C706 C 0.41439 0.79476 0.90203 0.0
C707 C 0.43983 0.7782 0.89614 0.0
H708 H 0.36916 0.80678 0.88249 0.0
C709 C 0.43993 0.76238 0.86396 0.0
H710 H 0.41395 0.8076 0.92646 0.0
C711 C 0.41388 0.76153 0.83869 0.0
C712 C 0.38784 0.77725 0.84498 0.0
H713 H 0.45939 0.7496 0.85871 0.0
H714 H 0.41364 0.74786 0.81453 0.0
C715 C 0.38891 0.79462 0.87667 0.0
C716 C 0.46194 0.11347 0.0711 0.0
C717 C 0.47914 0.14659 0.07411 0.0
H718 H 0.45768 0.06439 0.04728 0.0
C719 C 0.50058 0.15674 0.05051 0.0
H720 H 0.44518 0.1051 0.0889 0.0
C721 C 0.50828 0.13344 0.02737 0.0
C722 C 0.49371 0.09991 0.02668 0.0
H723 H 0.51417 0.18213 0.05221 0.0
H724 H 0.52783 0.14125 0.01212 0.0
C725 C 0.46881 0.09027 0.04707 0.0
C726 C 0.13716 0.30106 0.39583 0.0
C727 C 0.10642 0.28095 0.38155 0.0
H728 H 0.18848 0.3185 0.39122 0.0
C729 C 0.10452 0.26221 0.35032 0.0
H730 H 0.1396 0.3157 0.41987 0.0
C731 C 0.13277 0.2639 0.33362 0.0
C732 C 0.16345 0.28418 0.34798 0.0
H733 H 0.08117 0.24643 0.33864 0.0
H734 H 0.13055 0.24947 0.30951 0.0
C735 C 0.16528 0.30256 0.37934 0.0
C736 C 0.97291 0.0259 0.14652 0.0
C737 C 0.99293 0.01735 0.17284 0.0
H738 H 0.96777 0.03464 0.09535 0.0
C739 C 0.02565 0.01508 0.16822 0.0
H740 H 0.94775 0.02825 0.14935 0.0
C741 C 0.03738 0.01932 0.13735 0.0
C742 C 0.01625 0.0248 0.11007 0.0
H743 H 0.04196 0.00916 0.18825 0.0
H744 H 0.06238 0.01653 0.13446 0.0
C745 C 0.98437 0.02937 0.11546 0.0
C746 C 0.33799 0.71345 0.43941 0.0
C747 C 0.32077 0.7295 0.46144 0.0
H748 H 0.35614 0.71203 0.39178 0.0
C749 C 0.31437 0.76025 0.45504 0.0
H750 H 0.34357 0.68992 0.44389 0.0
C751 C 0.32143 0.77281 0.42538 0.0
C752 C 0.33525 0.75501 0.40163 0.0
H753 H 0.3019 0.77369 0.47198 0.0
H754 H 0.31392 0.7953 0.42002 0.0
C755 C 0.34531 0.72623 0.40966 0.0
C756 C 0.53617 0.98308 0.64495 0.0
C757 C 0.571 0.99151 0.65208 0.0
H758 H 0.49404 0.97839 0.60817 0.0
C759 C 0.59051 0.9961 0.62606 0.0
H760 H 0.52078 0.97948 0.66493 0.0
C761 C 0.57535 0.99656 0.59386 0.0
C762 C 0.54047 0.99166 0.58719 0.0
H763 H 0.61742 0.00305 0.6312 0.0
H764 H 0.5912 0.00384 0.57505 0.0
C765 C 0.52093 0.9827 0.61255 0.0
C766 C 0.24438 0.3344 0.92398 0.0
C767 C 0.26672 0.31915 0.94168 0.0
H768 H 0.22052 0.34033 0.87629 0.0
C769 C 0.28161 0.29678 0.92382 0.0
H770 H 0.23255 0.35183 0.93691 0.0
C771 C 0.27475 0.29023 0.88906 0.0
C772 C 0.25296 0.30599 0.87132 0.0
H773 H 0.29892 0.28456 0.93664 0.0
H774 H 0.2868 0.27302 0.87608 0.0
C775 C 0.23763 0.32794 0.88918 0.0
C776 C 0.95724 0.04991 0.37055 0.0
C777 C 0.97772 0.03157 0.35526 0.0
H778 H 0.94403 0.07039 0.41652 0.0
C779 C 1.00248 0.0215 0.37553 0.0
H780 H 0.93789 0.058 0.3557 0.0
C781 C 0.00569 0.0282 0.41024 0.0
C782 C 0.98439 0.04536 0.42562 0.0
H783 H 0.01881 0.00745 0.36469 0.0
H784 H 0.02463 0.01947 0.42503 0.0
C785 C 0.96062 0.05683 0.40541 0.0
C786 C 0.30086 0.69747 0.6585 0.0
C787 C 0.30933 0.71825 0.63411 0.0
H788 H 0.28792 0.69452 0.70798 0.0
C789 C 0.31919 0.75247 0.64347 0.0
H790 H 0.29277 0.67104 0.65172 0.0
C791 C 0.31698 0.766 0.6758 0.0
C792 C 0.30431 0.74552 0.69913 0.0
H793 H 0.32582 0.76895 0.62496 0.0
H794 H 0.32227 0.7926 0.6815 0.0
C795 C 0.29812 0.71104 0.69078 0.0
C796 C 0.57315 0.97606 0.84146 0.0
C797 C 0.56524 0.00124 0.82376 0.0
H798 H 0.56683 0.95107 0.88479 0.0
C799 C 0.54071 0.01743 0.83385 0.0
H800 H 0.5916 0.96285 0.83395 0.0
C801 C 0.52647 0.01062 0.86269 0.0
C802 C 0.53646 0.9875 0.88201 0.0
H803 H 0.53348 0.03645 0.82029 0.0
H804 H 0.50901 0.02481 0.87083 0.0
C805 C 0.55876 0.96916 0.8704 0.0
C806 C 0.24167 0.3144 0.14227 0.0
C807 C 0.25624 0.2982 0.11776 0.0
H808 H 0.22509 0.31407 0.19061 0.0
C809 C 0.26055 0.26617 0.12154 0.0
H810 H 0.23781 0.339 0.14002 0.0
C811 C 0.25283 0.25164 0.15024 0.0
C812 C 0.241 0.26895 0.17621 0.0
H813 H 0.27119 0.25274 0.10285 0.0
H814 H 0.25818 0.22766 0.15291 0.0
C815 C 0.23429 0.3 0.17128 0.0
C816 C 0.19544 0.93754 0.04137 0.0
C817 C 0.22092 0.94925 0.0222 0.0
H818 H 0.14991 0.94368 0.05912 0.0
C819 C 0.22041 0.97832 0.00753 0.0
H820 H 0.19518 0.91536 0.05327 0.0
C821 C 0.19435 0.99457 0.01086 0.0
C822 C 0.16836 0.9823 0.02919 0.0
H823 H 0.23968 0.98811 -0.00728 0.0
H824 H 0.1942 0.01632 -0.00165 0.0
C825 C 0.16956 0.95393 0.04495 0.0
C826 C 0.67022 0.56075 0.02907 0.0
C827 C 0.67038 0.57454 -0.00114 0.0
H828 H 0.64109 0.5305 0.06009 0.0
C829 C 0.64274 0.56423 0.97423 0.0
H830 H 0.6911 0.56885 0.04858 0.0
C831 C 0.61467 0.54147 0.98035 0.0
C832 C 0.61348 0.52984 0.01167 0.0
H833 H 0.64225 0.57501 0.95097 0.0
H834 H 0.59292 0.53514 0.96171 0.0
C835 C 0.6417 0.53897 0.03567 0.0
C836 C 0.72705 0.43655 0.26148 0.0
C837 C 0.70548 0.44487 0.2839 0.0
H838 H 0.75482 0.40143 0.24486 0.0
C839 C 0.69723 0.42436 0.30871 0.0
H840 H 0.73402 0.45188 0.24215 0.0
C841 C 0.70904 0.39551 0.31017 0.0
C842 C 0.72956 0.38649 0.28699 0.0
H843 H 0.68082 0.43005 0.3265 0.0
H844 H 0.70143 0.37987 0.32909 0.0
C845 C 0.73905 0.40768 0.26307 0.0
C846 C 0.8946 0.46936 0.55106 0.0
C847 C 0.88968 0.4432 0.57061 0.0
H848 H 0.92889 0.51123 0.5388 0.0
C849 C 0.9146 0.44213 0.59649 0.0
H850 H 0.87589 0.47065 0.53081 0.0
C851 C 0.94472 0.46553 0.60138 0.0
C852 C 0.95082 0.4901 0.58002 0.0
H853 H 0.91136 0.42228 0.61204 0.0
H854 H 0.96389 0.46316 0.62069 0.0
C855 C 0.92505 0.49245 0.55551 0.0
C856 C 0.33418 0.09337 0.24743 0.0
C857 C 0.34247 0.08263 0.27842 0.0
H858 H 0.3129 0.12818 0.22169 0.0
C859 C 0.33316 0.09774 0.30732 0.0
H860 H 0.34091 0.08207 0.22471 0.0
C861 C 0.31766 0.12423 0.3056 0.0
C862 C 0.31046 0.13576 0.27488 0.0
H863 H 0.33914 0.09007 0.33155 0.0
H864 H 0.31203 0.13628 0.32852 0.0
C865 C 0.31797 0.11955 0.24563 0.0
C866 C 0.36949 0.1033 0.45628 0.0
C867 C 0.34565 0.09885 0.47867 0.0
H868 H 0.41629 0.09515 0.44378 0.0
C869 C 0.35007 0.07976 0.50489 0.0
H870 H 0.36685 0.11773 0.43575 0.0
C871 C 0.37834 0.06637 0.50922 0.0
C872 C 0.40292 0.07232 0.48775 0.0
H873 H 0.33203 0.07572 0.52246 0.0
H874 H 0.38162 0.05258 0.53015 0.0
C875 C 0.3979 0.09041 0.46092 0.0
C876 C 0.68783 0.63256 0.25478 0.0
C877 C 0.69517 0.61362 0.28012 0.0
H878 H 0.70311 0.67532 0.23078 0.0
C879 C 0.72629 0.62306 0.29995 0.0
H880 H 0.66427 0.62557 0.23873 0.0
C881 C 0.74874 0.65232 0.29574 0.0
C882 C 0.74048 0.67208 0.27129 0.0
H883 H 0.73254 0.60878 0.31962 0.0
H884 H 0.7719 0.66002 0.31231 0.0
C885 C 0.71024 0.66112 0.25019 0.0
C886 C 0.83591 0.41605 0.72308 0.0
C887 C 0.8696 0.41474 0.72961 0.0
H888 H 0.7851 0.3887 0.71464 0.0
C889 C 0.87768 0.38394 0.73217 0.0
H890 H 0.8289 0.43941 0.72099 0.0
C891 C 0.85282 0.35527 0.72919 0.0
C892 C 0.81917 0.35649 0.723 0.0
H893 H 0.90332 0.38195 0.73733 0.0
H894 H 0.86005 0.33207 0.73174 0.0
C895 C 0.81089 0.38708 0.71947 0.0
C896 C 0.04982 0.8511 0.06672 0.0
C897 C 0.04295 0.84475 0.09902 0.0
H898 H 0.05295 0.88565 0.03081 0.0
C899 C 0.02858 0.86666 0.11799 0.0
H900 H 0.06056 0.83438 0.05142 0.0
C901 C 0.0246 0.89617 0.10633 0.0
C902 C 0.03426 0.90385 0.07528 0.0
H903 H 0.02291 0.86232 0.1429 0.0
H904 H 0.01604 0.91396 0.12256 0.0
C905 C 0.04518 0.8803 0.05478 0.0
C906 C 0.92024 0.23819 0.78544 0.0
C907 C 0.91346 0.21172 0.80442 0.0
H908 H 0.89913 0.26903 0.75423 0.0
C909 C 0.88206 0.18999 0.79842 0.0
H910 H 0.94423 0.25538 0.78973 0.0
C911 C 0.85661 0.19704 0.7768 0.0
C912 C 0.86202 0.22672 0.76251 0.0
H913 H 0.87633 0.1694 0.81278 0.0
H914 H 0.8318 0.18165 0.77493 0.0
C915 C 0.89447 0.24601 0.76505 0.0
C916 C 0.55941 0.17533 0.5847 0.0
C917 C 0.54518 0.18891 0.61126 0.0
H918 H 0.5573 0.13345 0.54891 0.0
C919 C 0.51765 0.16936 0.62268 0.0
H920 H 0.58064 0.18974 0.57525 0.0
C921 C 0.50443 0.13709 0.60769 0.0
C922 C 0.51829 0.12369 0.58079 0.0
H923 H 0.50613 0.179 0.64312 0.0
H924 H 0.48303 0.12281 0.61699 0.0
C925 C 0.54603 0.14309 0.56954 0.0
C926 C 0.60749 0.7856 0.29149 0.0
C927 C 0.58802 0.75891 0.30421 0.0
H928 H 0.65276 0.80399 0.2713 0.0
C929 C 0.59777 0.7286 0.30248 0.0
H930 H 0.6005 0.80921 0.29229 0.0
C931 C 0.6274 0.7256 0.29039 0.0
C932 C 0.64803 0.75282 0.27976 0.0
H933 H 0.58309 0.70738 0.31156 0.0
H934 H 0.63478 0.70221 0.29066 0.0
C935 C 0.63733 0.78258 0.27934 0.0
C936 C 0.00541 0.18968 0.5241 0.0
C937 C 0.02622 0.2079 0.50395 0.0
H938 H 0.99349 0.1454 0.54712 0.0
C939 C 0.05323 0.19583 0.49359 0.0
H940 H 0.98455 0.19843 0.53278 0.0
C941 C 0.05843 0.16551 0.50196 0.0
C942 C 0.03673 0.14661 0.52085 0.0
H943 H 0.06991 0.20939 0.47829 0.0
H944 H 0.07886 0.15643 0.49269 0.0
C945 C 0.01062 0.15935 0.53249 0.0
C946 C 0.6125 0.23207 0.21593 0.0
C947 C 0.59592 0.24716 0.19191 0.0
H948 H 0.65866 0.23154 0.24483 0.0
C949 C 0.61428 0.27378 0.17819 0.0
H950 H 0.5991 0.21149 0.22699 0.0
C951 C 0.64838 0.28506 0.18822 0.0
C952 C 0.66495 0.27014 0.21236 0.0
H953 H 0.60235 0.28591 0.15956 0.0
H954 H 0.66168 0.30573 0.1772 0.0
C955 C 0.64665 0.24351 0.22611 0.0
C956 C 0.54291 0.89127 0.04265 0.0
C957 C 0.55294 0.87604 0.01411 0.0
H958 H 0.53506 0.93623 0.06743 0.0
C959 C 0.56905 0.89596 0.99197 0.0
H960 H 0.53066 0.87662 0.06033 0.0
C961 C 0.57132 0.92994 -0.00395 0.0
C962 C 0.55821 0.94452 0.02265 0.0
H963 H 0.57721 0.88509 0.96984 0.0
H964 H 0.58117 0.94444 0.97711 0.0
C965 C 0.54556 0.92536 0.04688 0.0
C966 C 0.90258 0.77103 0.68818 0.0
C967 C 0.91905 0.7474 0.69999 0.0
H968 H 0.86204 0.79498 0.69205 0.0
C969 C 0.90993 0.7334 0.72876 0.0
H970 H 0.90935 0.78263 0.66635 0.0
C971 C 0.88312 0.74081 0.74377 0.0
C972 C 0.86465 0.76211 0.73009 0.0
H973 H 0.92257 0.7156 0.73889 0.0
H974 H 0.87557 0.72807 0.76473 0.0
C975 C 0.87558 0.77829 0.70307 0.0
C976 C 0.09623 0.99517 0.89149 0.0
C977 C 0.07856 0.00909 0.86736 0.0
H978 H 0.09868 0.97988 0.94047 0.0
C979 C 0.0471 0.01465 0.87309 0.0
H980 H 0.12044 0.99049 0.88781 0.0
C981 C 0.03436 0.00807 0.90301 0.0
C982 C 0.05309 0.99632 0.92809 0.0
H983 H 0.0327 0.02505 0.85482 0.0
H984 H 0.01073 0.01394 0.90721 0.0
C985 C 0.08376 0.98915 0.92166 0.0
C986 C 0.7331 0.31527 0.61015 0.0
C987 C 0.75432 0.30326 0.58966 0.0
H988 H 0.70635 0.30774 0.65224 0.0
C989 C 0.75819 0.27071 0.59059 0.0
H990 H 0.72922 0.34007 0.60946 0.0
C991 C 0.74505 0.2522 0.61476 0.0
C992 C 0.72796 0.26601 0.63848 0.0
H993 H 0.7735 0.26038 0.57423 0.0
H994 H 0.75115 0.22844 0.61697 0.0
C995 C 0.71978 0.29659 0.63443 0.0
C996 C 0.50871 0.05279 0.37069 0.0
C997 C 0.47408 0.04224 0.36239 0.0
H998 H 0.55027 0.05874 0.40844 0.0
C999 C 0.45392 0.03556 0.38761 0.0
H1000 H 0.52462 0.0581 0.35137 0.0
C1001 C 0.46856 0.03492 0.41999 0.0
C1002 C 0.50349 0.04168 0.42764 0.0
H1003 H 0.42719 0.02705 0.38161 0.0
H1004 H 0.45244 0.02613 0.43813 0.0
C1005 C 0.52337 0.05285 0.40324 0.0
C1006 C 0.76942 0.72336 0.11569 0.0
C1007 C 0.78249 0.69964 0.09754 0.0
H1008 H 0.76923 0.75081 0.1631 0.0
C1009 C 0.8075 0.68664 0.11394 0.0
H1010 H 0.75022 0.734 0.1038 0.0
C1011 C 0.81821 0.69614 0.14798 0.0
C1012 C 0.80433 0.71902 0.16635 0.0
H1013 H 0.81813 0.66835 0.10075 0.0
H1014 H 0.83698 0.68506 0.16002 0.0
C1015 C 0.78031 0.73304 0.14969 0.0
C1016 C 0.09693 0.9813 0.67159 0.0
C1017 C 0.08467 0.00601 0.68906 0.0
H1018 H 0.09601 0.95221 0.62487 0.0
C1019 C 0.06032 0.0195 0.67208 0.0
H1020 H 0.11568 0.97037 0.68388 0.0
C1021 C 0.04898 0.00903 0.63831 0.0
C1022 C 0.06184 0.98494 0.62064 0.0
H1023 H 0.05021 0.03848 0.68476 0.0
H1024 H 0.03052 0.02027 0.62594 0.0
C1025 C 0.08569 0.97094 0.63773 0.0
C1026 C 0.77631 0.32972 0.41262 0.0
C1027 C 0.80006 0.32254 0.43638 0.0
H1028 H 0.75219 0.31943 0.36225 0.0
C1029 C 0.81674 0.29754 0.42733 0.0
H1030 H 0.76284 0.34862 0.41886 0.0
C1031 C 0.81021 0.28044 0.39523 0.0
C1032 C 0.7871 0.28815 0.37118 0.0
H1033 H 0.83501 0.29109 0.44505 0.0
H1034 H 0.82418 0.26197 0.38899 0.0
C1035 C 0.77006 0.31284 0.38026 0.0
C1036 C 0.52036 0.03401 0.19221 0.0
C1037 C 0.48994 0.04236 0.19729 0.0
H1038 H 0.5606 0.03842 0.16281 0.0
C1039 C 0.4794 0.06627 0.17942 0.0
H1040 H 0.5297 0.01639 0.20631 0.0
C1041 C 0.49748 0.07923 0.15463 0.0
C1042 C 0.52622 0.06838 0.14751 0.0
H1043 H 0.45635 0.07361 0.1833 0.0
H1044 H 0.48747 0.0956 0.13935 0.0
C1045 C 0.53837 0.04697 0.16763 0.0
C1046 C 0.76131 0.73462 0.91205 0.0
C1047 C 0.76258 0.70173 0.91573 0.0
H1048 H 0.76154 0.77155 0.87877 0.0
C1049 C 0.76677 0.68102 0.8879 0.0
H1050 H 0.75822 0.75116 0.93318 0.0
C1051 C 0.76758 0.69238 0.85656 0.0
C1052 C 0.76522 0.72498 0.85256 0.0
H1053 H 0.76762 0.65554 0.88996 0.0
H1054 H 0.7692 0.6753 0.83529 0.0
C1055 C 0.76317 0.74629 0.88089 0.0
C1056 C 0.88137 0.08836 0.9763 0.0
C1057 C 0.86306 0.09343 0.00297 0.0
H1058 H 0.91762 0.06429 0.95708 0.0
C1059 C 0.86601 0.07553 0.03032 0.0
H1060 H 0.87967 0.10176 0.95483 0.0
C1061 C 0.88737 0.05367 0.03136 0.0
C1062 C 0.90661 0.04946 0.00526 0.0
H1063 H 0.8521 0.07868 0.05115 0.0
H1064 H 0.88959 0.0409 0.05322 0.0
C1065 C 0.90305 0.06677 0.97752 0.0
C1066 C 0.40212 0.43382 0.07899 0.0
C1067 C 0.37369 0.42899 0.05545 0.0
H1068 H 0.45384 0.45724 0.09174 0.0
C1069 C 0.3749 0.44679 0.02775 0.0
H1070 H 0.40183 0.41996 0.10026 0.0
C1071 C 0.40487 0.46699 0.02221 0.0
C1072 C 0.4336 0.47066 0.045 0.0
H1073 H 0.35344 0.44296 0.00896 0.0
H1074 H 0.40598 0.47859 -0.00055 0.0
C1075 C 0.43174 0.45506 0.07412 0.0
C1076 C 0.36745 0.59967 0.74217 0.0
C1077 C 0.35462 0.57643 0.76304 0.0
H1078 H 0.36718 0.64644 0.72514 0.0
C1079 C 0.32883 0.58218 0.78129 0.0
H1080 H 0.38708 0.59594 0.72749 0.0
C1081 C 0.31727 0.61131 0.77986 0.0
C1082 C 0.33136 0.63523 0.7602 0.0
H1083 H 0.31827 0.56467 0.79747 0.0
H1084 H 0.29826 0.61563 0.79511 0.0
C1085 C 0.35598 0.62868 0.74078 0.0
C1086 C 0.15994 0.61858 0.51361 0.0
C1087 C 0.19057 0.60977 0.51067 0.0
H1088 H 0.10702 0.60331 0.50767 0.0
C1089 C 0.19046 0.57699 0.4987 0.0
H1090 H 0.15894 0.64354 0.52279 0.0
C1091 C 0.16026 0.55367 0.48972 0.0
C1092 C 0.1297 0.56269 0.49283 0.0
H1093 H 0.21362 0.56942 0.49606 0.0
H1094 H 0.16086 0.52859 0.4806 0.0
C1095 C 0.13 0.59541 0.50491 0.0
C1096 C 0.68376 0.91088 0.74321 0.0
C1097 C 0.69386 0.93415 0.77176 0.0
H1098 H 0.6835 0.8628 0.71996 0.0
C1099 C 0.71447 0.92685 0.79853 0.0
H1100 H 0.66817 0.91571 0.72198 0.0
C1101 C 0.72351 0.89623 0.79725 0.0
C1102 C 0.71186 0.87246 0.76929 0.0
H1103 H 0.72279 0.94433 0.82082 0.0
H1104 H 0.7384 0.89068 0.81861 0.0
C1105 C 0.69255 0.88044 0.74205 0.0
C1106 C 0.69899 0.96256 0.50772 0.0
C1107 C 0.70199 0.93668 0.52685 0.0
H1108 H 0.66799 0.99428 0.49021 0.0
C1109 C 0.67589 0.92434 0.54494 0.0
H1110 H 0.71872 0.97275 0.4936 0.0
C1111 C 0.647 0.93663 0.54296 0.0
C1112 C 0.64342 0.96165 0.52293 0.0
H1113 H 0.67738 0.9046 0.56011 0.0
H1114 H 0.62715 0.92596 0.55672 0.0
C1115 C 0.66999 0.97499 0.50584 0.0
C1116 C 0.36397 0.37622 0.72859 0.0
C1117 C 0.36118 0.40768 0.74202 0.0
H1118 H 0.34406 0.3241 0.72393 0.0
C1119 C 0.33276 0.41077 0.75729 0.0
H1120 H 0.38547 0.37307 0.71657 0.0
C1121 C 0.30921 0.38258 0.7618 0.0
C1122 C 0.31352 0.35116 0.75046 0.0
H1123 H 0.33005 0.43468 0.76805 0.0
H1124 H 0.28892 0.38522 0.77597 0.0
C1125 C 0.34025 0.34823 0.73266 0.0
C1126 C 0.17861 0.63937 0.28782 0.0
C1127 C 0.18334 0.60766 0.29234 0.0
H1128 H 0.20037 0.69072 0.29102 0.0
C1129 C 0.21527 0.60398 0.30441 0.0
H1130 H 0.15441 0.64313 0.27844 0.0
C1131 C 0.24185 0.63163 0.31203 0.0
C1132 C 0.23696 0.66324 0.30714 0.0
H1133 H 0.21964 0.57984 0.3082 0.0
H1134 H 0.26621 0.62823 0.32136 0.0
C1135 C 0.20508 0.66672 0.29491 0.0
C1136 C 0.51209 0.66563 0.47277 0.0
C1137 C 0.51678 0.6697 0.43945 0.0
H1138 H 0.5119 0.63385 0.51124 0.0
C1139 C 0.52954 0.64635 0.42058 0.0
H1140 H 0.50254 0.68346 0.48793 0.0
C1141 C 0.5344 0.61781 0.43376 0.0
C1142 C 0.52743 0.61268 0.46625 0.0
H1143 H 0.53343 0.64891 0.39486 0.0
H1144 H 0.54182 0.59891 0.41792 0.0
C1145 C 0.51776 0.63746 0.48623 0.0
C1146 C 0.68027 0.32797 0.73653 0.0
C1147 C 0.64988 0.30483 0.73416 0.0
H1148 H 0.73221 0.33988 0.75525 0.0
C1149 C 0.64708 0.27936 0.75458 0.0
H1150 H 0.6829 0.34795 0.72114 0.0
C1151 C 0.67548 0.27405 0.77292 0.0
C1152 C 0.70668 0.29479 0.7719 0.0
H1153 H 0.62393 0.26118 0.75315 0.0
H1154 H 0.67365 0.25172 0.78486 0.0
C1155 C 0.70843 0.32341 0.75608 0.0
C1156 C 0.98753 0.34824 0.94564 0.0
C1157 C 0.00369 0.33291 0.92186 0.0
H1158 H 0.98556 0.39298 0.97522 0.0
C1159 C 0.03009 0.35218 0.90853 0.0
H1160 H 0.96706 0.33406 0.95638 0.0
C1161 C 0.04037 0.38598 0.91902 0.0
C1162 C 0.02474 0.40116 0.94338 0.0
H1163 H 0.0429 0.34117 0.89002 0.0
H1164 H 0.06107 0.40005 0.90851 0.0
C1165 C 0.99809 0.38199 0.95645 0.0
C1166 C 0.95985 0.75455 0.23569 0.0
C1167 C 0.97952 0.78574 0.23271 0.0
H1168 H 0.91358 0.7276 0.24833 0.0
C1169 C 0.96888 0.81417 0.24399 0.0
H1170 H 0.96762 0.73222 0.22744 0.0
C1171 C 0.93796 0.81146 0.25552 0.0
C1172 C 0.91748 0.78032 0.25667 0.0
H1173 H 0.98352 0.83852 0.24213 0.0
H1174 H 0.92942 0.83376 0.26221 0.0
C1175 C 0.92912 0.75186 0.24791 0.0
C1176 C 0.53275 0.32568 0.04841 0.0
C1177 C 0.50759 0.30954 0.06565 0.0
H1178 H 0.54916 0.36646 0.02134 0.0
C1179 C 0.47742 0.31988 0.06487 0.0
H1180 H 0.55616 0.31802 0.04837 0.0
C1181 C 0.4732 0.34713 0.04905 0.0
C1182 C 0.49924 0.36493 0.03402 0.0
H1183 H 0.45731 0.3075 0.07737 0.0
H1184 H 0.45008 0.35521 0.05017 0.0
C1185 C 0.52866 0.3533 0.03281 0.0
C1186 C 0.92061 0.31295 0.38962 0.0
C1187 C 0.94667 0.29644 0.38719 0.0
H1188 H 0.87615 0.32299 0.36551 0.0
C1189 C 0.9494 0.27948 0.35631 0.0
H1190 H 0.91814 0.3265 0.41306 0.0
C1191 C 0.92491 0.27696 0.32904 0.0
C1192 C 0.89793 0.29221 0.33201 0.0
H1193 H 0.96934 0.26662 0.3538 0.0
H1194 H 0.9263 0.262 0.30609 0.0
C1195 C 0.89676 0.31123 0.36222 0.0
C1196 C 0.99592 0.66244 0.53831 0.0
C1197 C 0.97203 0.65305 0.55985 0.0
H1198 H 0.02662 0.64565 0.50401 0.0
C1199 C 0.95406 0.62018 0.55628 0.0
H1200 H 0.01014 0.68764 0.54055 0.0
C1201 C 0.96266 0.59637 0.53431 0.0
C1202 C 0.9901 0.60509 0.51672 0.0
H1203 H 0.93548 0.61241 0.57257 0.0
H1204 H 0.95072 0.57072 0.53444 0.0
C1205 C 0.00532 0.63848 0.51728 0.0
C1206 C 0.63291 0.78556 0.89216 0.0
C1207 C 0.60233 0.76594 0.87676 0.0
H1208 H 0.68423 0.80417 0.8886 0.0
C1209 C 0.60081 0.74912 0.84463 0.0
H1210 H 0.6351 0.7987 0.91694 0.0
C1211 C 0.62928 0.75236 0.82811 0.0
C1212 C 0.65974 0.77234 0.84354 0.0
H1213 H 0.57759 0.73373 0.83212 0.0
H1214 H 0.62738 0.73949 0.80325 0.0
C1215 C 0.6612 0.78863 0.87584 0.0
C1216 C 0.47476 0.53052 0.65668 0.0
C1217 C 0.49371 0.521 0.68316 0.0
H1218 H 0.47206 0.5417 0.60625 0.0
C1219 C 0.52716 0.52032 0.68036 0.0
H1220 H 0.44899 0.53145 0.65814 0.0
C1221 C 0.54078 0.52716 0.65087 0.0
C1222 C 0.52081 0.5336 0.62321 0.0
H1223 H 0.54251 0.51352 0.70061 0.0
H1224 H 0.56627 0.52541 0.64914 0.0
C1225 C 0.48803 0.53637 0.62691 0.0
C1226 C 0.84264 0.21566 0.93423 0.0
C1227 C 0.82555 0.23244 0.95579 0.0
H1228 H 0.86068 0.21275 0.8866 0.0
C1229 C 0.81938 0.26302 0.94849 0.0
H1230 H 0.848 0.19221 0.93938 0.0
C1231 C 0.8266 0.27474 0.91848 0.0
C1232 C 0.84034 0.25622 0.89525 0.0
H1233 H 0.80699 0.27699 0.96503 0.0
H1234 H 0.81933 0.29716 0.91247 0.0
C1235 C 0.85006 0.22754 0.90411 0.0
C1236 C 0.0298 0.50251 0.15872 0.0
C1237 C 0.06238 0.50004 0.16992 0.0
H1238 H 0.99352 0.5008 0.11658 0.0
C1239 C 0.08233 0.49015 0.14678 0.0
H1240 H 0.01373 0.50963 0.17623 0.0
C1241 C 0.07099 0.48571 0.11271 0.0
C1242 C 0.03922 0.49031 0.10133 0.0
H1243 H 0.10744 0.48788 0.1548 0.0
H1244 H 0.08769 0.48016 0.09522 0.0
C1245 C 0.01813 0.49725 0.12466 0.0
C1246 C 0.74516 0.83413 0.42372 0.0
C1247 C 0.76739 0.81932 0.44212 0.0
H1248 H 0.72211 0.83948 0.3755 0.0
C1249 C 0.78243 0.79658 0.42498 0.0
H1250 H 0.73317 0.85177 0.43606 0.0
C1251 C 0.77601 0.78944 0.39019 0.0
C1252 C 0.75464 0.8051 0.37175 0.0
H1253 H 0.79962 0.78464 0.43839 0.0
H1254 H 0.78836 0.7722 0.37771 0.0
C1255 C 0.73896 0.8272 0.38894 0.0
C1256 C 0.49451 0.50155 0.87874 0.0
C1257 C 0.47161 0.51573 0.86037 0.0
H1258 H 0.5189 0.49734 0.92671 0.0
C1259 C 0.4562 0.53807 0.87754 0.0
H1260 H 0.50693 0.48431 0.86639 0.0
C1261 C 0.46302 0.54545 0.91233 0.0
C1262 C 0.48542 0.53071 0.93068 0.0
H1263 H 0.43842 0.5494 0.8642 0.0
H1264 H 0.45045 0.56246 0.92485 0.0
C1265 C 0.50135 0.50897 0.91342 0.0
C1266 C 0.80525 0.19978 0.15288 0.0
C1267 C 0.81223 0.22185 0.12931 0.0
H1268 H 0.79402 0.19392 0.20251 0.0
C1269 C 0.81979 0.25594 0.13979 0.0
H1270 H 0.79891 0.1734 0.14528 0.0
C1271 C 0.81744 0.26783 0.17264 0.0
C1272 C 0.80689 0.24579 0.19544 0.0
H1273 H 0.82525 0.27342 0.12193 0.0
H1274 H 0.82164 0.29423 0.17945 0.0
C1275 C 0.8023 0.21165 0.18564 0.0
C1276 C 0.02278 0.4852 0.34285 0.0
C1277 C 0.05475 0.48076 0.33816 0.0
H1278 H 0.98633 0.48439 0.37657 0.0
C1279 C 0.07125 0.46434 0.3608 0.0
H1280 H 0.00907 0.49689 0.32518 0.0
C1281 C 0.05793 0.45679 0.39017 0.0
C1282 C 0.0282 0.4658 0.39694 0.0
H1283 H 0.09573 0.46019 0.35744 0.0
H1284 H 0.0727 0.4474 0.409 0.0
C1285 C 0.00957 0.47775 0.37206 0.0
C1286 C 0.76224 0.7666 0.61995 0.0
C1287 C 0.75669 0.79833 0.61683 0.0
H1288 H 0.75998 0.72694 0.64983 0.0
C1289 C 0.74018 0.81271 0.64088 0.0
H1290 H 0.77439 0.75454 0.60156 0.0
C1291 C 0.73199 0.79685 0.66888 0.0
C1292 C 0.73975 0.76608 0.67319 0.0
H1293 H 0.73533 0.83702 0.63908 0.0
H1294 H 0.72122 0.80955 0.68799 0.0
C1295 C 0.75366 0.75058 0.64758 0.0
C1296 C 0.71134 0.46356 0.57183 0.0
C1297 C 0.71955 0.445 0.54429 0.0
H1298 H 0.67697 0.49063 0.5906 0.0
C1299 C 0.69949 0.44122 0.51347 0.0
H1300 H 0.72632 0.46704 0.59595 0.0
C1301 C 0.67129 0.45461 0.51049 0.0
C1302 C 0.66245 0.4723 0.5382 0.0
H1303 H 0.70508 0.4272 0.49172 0.0
H1304 H 0.65606 0.45055 0.48646 0.0
C1305 C 0.68311 0.47716 0.56879 0.0
C1306 C 0.13595 0.07759 0.47268 0.0
C1307 C 0.16401 0.08488 0.49691 0.0
H1308 H 0.08518 0.0512 0.45962 0.0
C1309 C 0.16351 0.0685 0.52555 0.0
H1310 H 0.13579 0.0903 0.45062 0.0
C1311 C 0.13433 0.04719 0.53125 0.0
C1312 C 0.1058 0.04107 0.50776 0.0
H1313 H 0.18478 0.07422 0.54474 0.0
H1314 H 0.13353 0.03671 0.55467 0.0
C1315 C 0.10717 0.05525 0.47778 0.0
C1316 C 0.21138 0.9317 0.78093 0.0
C1317 C 0.19503 0.93765 0.80891 0.0
H1318 H 0.2355 0.89869 0.75392 0.0
C1319 C 0.1926 0.91513 0.83264 0.0
H1320 H 0.21381 0.94869 0.76231 0.0
C1321 C 0.20463 0.88642 0.82761 0.0
C1322 C 0.21991 0.87989 0.79909 0.0
H1323 H 0.18024 0.91898 0.85449 0.0
H1324 H 0.2013 0.86893 0.84573 0.0
C1325 C 0.22399 0.9032 0.77622 0.0
C1326 C 0.40984 0.91726 0.07345 0.0
C1327 C 0.38397 0.92301 0.05117 0.0
H1328 H 0.46024 0.93358 0.09609 0.0
C1329 C 0.38928 0.95201 0.03566 0.0
H1330 H 0.40642 0.89516 0.08586 0.0
C1331 C 0.42062 0.97394 0.04105 0.0
C1332 C 0.44682 0.96746 0.06255 0.0
H1333 H 0.36981 0.9569 0.0182 0.0
H1334 H 0.42452 0.99559 0.02798 0.0
C1335 C 0.44074 0.93932 0.0793 0.0
C1336 C 0.85263 0.59841 0.77862 0.0
C1337 C 0.84872 0.58016 0.74695 0.0
H1338 H 0.84062 0.63815 0.80856 0.0
C1339 C 0.82713 0.58749 0.72105 0.0
H1340 H 0.86892 0.59337 0.79919 0.0
C1341 C 0.81069 0.61329 0.72649 0.0
C1342 C 0.81566 0.63228 0.75789 0.0
H1343 H 0.82347 0.57382 0.69637 0.0
H1344 H 0.79493 0.61896 0.70586 0.0
C1345 C 0.83636 0.62415 0.784 0.0
C1346 C 0.86535 0.59301 0.98924 0.0
C1347 C 0.84315 0.58176 0.01177 0.0
H1348 H 0.91148 0.59154 0.97061 0.0
C1349 C 0.85075 0.55846 0.03248 0.0
H1350 H 0.86032 0.61088 0.97288 0.0
C1351 C 0.88025 0.54719 0.03109 0.0
C1352 C 0.9028 0.55915 0.00911 0.0
H1353 H 0.83415 0.54921 0.05007 0.0
H1354 H 0.88569 0.52964 0.04768 0.0
C1355 C 0.8948 0.58192 0.98799 0.0
C1356 C 0.21532 0.14387 0.82057 0.0
C1357 C 0.20744 0.11686 0.79548 0.0
H1358 H 0.24213 0.19398 0.83498 0.0
C1359 C 0.22343 0.11858 0.7666 0.0
H1360 H 0.20291 0.14316 0.84284 0.0
C1361 C 0.24477 0.14795 0.76156 0.0
C1362 C 0.25138 0.17547 0.78593 0.0
H1363 H 0.21726 0.09821 0.74671 0.0
H1364 H 0.25474 0.14972 0.73795 0.0
C1365 C 0.23773 0.1728 0.81611 0.0
C1366 C 0.36951 0.88589 0.26178 0.0
C1367 C 0.36289 0.91504 0.25076 0.0
H1368 H 0.35184 0.83443 0.2638 0.0
C1369 C 0.33155 0.91409 0.23322 0.0
H1370 H 0.3933 0.88578 0.27558 0.0
C1371 C 0.30767 0.88428 0.22613 0.0
C1372 C 0.31462 0.85511 0.23687 0.0
H1373 H 0.32576 0.93615 0.2244 0.0
H1374 H 0.28386 0.88409 0.2122 0.0
C1375 C 0.34566 0.85638 0.25508 0.0
C1376 C 0.53405 0.38223 0.62693 0.0
C1377 C 0.54606 0.35909 0.60702 0.0
H1378 H 0.52556 0.43118 0.63285 0.0
C1379 C 0.55227 0.3651 0.57443 0.0
H1380 H 0.52893 0.37818 0.65206 0.0
C1381 C 0.5496 0.39512 0.56315 0.0
C1382 C 0.54132 0.4197 0.58459 0.0
H1383 H 0.56116 0.34742 0.55841 0.0
H1384 H 0.5571 0.4002 0.53901 0.0
C1385 C 0.53204 0.41249 0.61591 0.0
C1386 C 0.38108 0.69165 0.30488 0.0
C1387 C 0.41178 0.71408 0.30635 0.0
H1388 H 0.32913 0.68044 0.28644 0.0
C1389 C 0.41522 0.73825 0.2844 0.0
H1390 H 0.37798 0.67268 0.32147 0.0
C1391 C 0.38714 0.74343 0.26547 0.0
C1392 C 0.35568 0.72374 0.26745 0.0
H1393 H 0.43866 0.75584 0.28507 0.0
H1394 H 0.38946 0.76504 0.25231 0.0
C1395 C 0.35321 0.69601 0.28478 0.0
C1396 C 0.06436 0.6628 0.08293 0.0
C1397 C 0.05171 0.67633 0.11064 0.0
H1398 H 0.06168 0.62017 0.0479 0.0
C1399 C 0.02736 0.65589 0.12552 0.0
H1400 H 0.08318 0.67792 0.07093 0.0
C1401 C 0.01534 0.62287 0.11257 0.0
C1402 C 0.02713 0.60958 0.08421 0.0
H1403 H 0.01728 0.66547 0.14706 0.0
H1404 H 0.9962 0.608 0.12441 0.0
C1405 C 0.05204 0.62975 0.06972 0.0
C1406 C 0.10031 0.22139 0.82002 0.0
C1407 C 0.08496 0.24748 0.81354 0.0
H1408 H 0.14161 0.19922 0.81404 0.0
C1409 C 0.09941 0.27064 0.79327 0.0
H1410 H 0.08967 0.20289 0.83518 0.0
C1411 C 0.12946 0.26856 0.78106 0.0
C1412 C 0.14545 0.24319 0.78882 0.0
H1413 H 0.08807 0.29094 0.78767 0.0
H1414 H 0.14069 0.28741 0.76656 0.0
C1415 C 0.1301 0.21923 0.80775 0.0
C1416 C 0.51372 0.67864 0.0313 0.0
C1417 C 0.5326 0.69638 0.00935 0.0
H1418 H 0.50366 0.6346 0.055 0.0
C1419 C 0.55847 0.68394 -0.00326 0.0
H1420 H 0.49379 0.68768 0.0417 0.0
C1421 C 0.56425 0.65364 0.00454 0.0
C1422 C 0.5442 0.63507 0.02501 0.0
H1423 H 0.57372 0.69714 0.98006 0.0
H1424 H 0.58366 0.64426 -0.00653 0.0
C1425 C 0.51945 0.64826 0.03903 0.0
C1426 C 0.10575 0.7813 0.66936 0.0
C1427 C 0.08775 0.75186 0.67873 0.0
H1428 H 0.15257 0.81582 0.67386 0.0
C1429 C 0.10427 0.73411 0.69999 0.0
H1430 H 0.09379 0.79552 0.65294 0.0
C1431 C 0.13793 0.74573 0.71195 0.0
C1432 C 0.15585 0.77532 0.70288 0.0
H1433 H 0.09117 0.71129 0.70765 0.0
H1434 H 0.14982 0.7316 0.72854 0.0
C1435 C 0.13947 0.79289 0.68128 0.0
C1436 C 0.07338 0.40832 0.51269 0.0
C1437 C 0.04879 0.38578 0.52524 0.0
H1438 H 0.0931 0.45918 0.50806 0.0
C1439 C 0.0308 0.39775 0.5495 0.0
H1440 H 0.08792 0.39992 0.49428 0.0
C1441 C 0.0336 0.43157 0.55701 0.0
C1442 C 0.05504 0.4539 0.54112 0.0
H1443 H 0.01207 0.38111 0.56019 0.0
H1444 H 0.01655 0.44009 0.57255 0.0
C1445 C 0.07657 0.44228 0.52076 0.0
C1446 C 0.40967 0.26827 0.19605 0.0
C1447 C 0.4245 0.24412 0.20924 0.0
H1448 H 0.36971 0.29342 0.19654 0.0
C1449 C 0.4126 0.23013 0.23704 0.0
H1450 H 0.41851 0.27987 0.1749 0.0
C1451 C 0.38487 0.23826 0.24976 0.0
C1452 C 0.36828 0.2603 0.23468 0.0
H1453 H 0.4238 0.21183 0.24813 0.0
H1454 H 0.37518 0.22556 0.26995 0.0
C1455 C 0.38179 0.27621 0.20859 0.0
C1456 C 0.56572 0.48979 0.38704 0.0
C1457 C 0.58451 0.52023 0.38072 0.0
H1458 H 0.54009 0.46268 0.42288 0.0
C1459 C 0.59247 0.54682 0.40615 0.0
H1460 H 0.55909 0.46904 0.36757 0.0
C1461 C 0.58253 0.54299 0.43766 0.0
C1462 C 0.56331 0.5128 0.44409 0.0
H1463 H 0.60672 0.57057 0.40172 0.0
H1464 H 0.58945 0.5639 0.45694 0.0
C1465 C 0.55469 0.48624 0.41844 0.0
C1466 C 0.22891 0.80845 0.10987 0.0
C1467 C 0.24951 0.79482 0.08979 0.0
H1468 H 0.20362 0.80465 0.15334 0.0
C1469 C 0.25454 0.76313 0.09403 0.0
H1470 H 0.22415 0.83258 0.10675 0.0
C1471 C 0.24269 0.74713 0.12036 0.0
C1472 C 0.2256 0.7625 0.14294 0.0
H1473 H 0.26944 0.75148 0.07825 0.0
H1474 H 0.24932 0.72398 0.12466 0.0
C1475 C 0.21687 0.79227 0.1363 0.0
C1476 C 0.0163 0.51657 0.86369 0.0
C1477 C 0.98406 0.52021 0.85276 0.0
H1478 H 0.05174 0.51486 0.90547 0.0
C1479 C 0.96383 0.52855 0.87641 0.0
H1480 H 0.0326 0.51057 0.84591 0.0
C1481 C 0.97465 0.53058 0.91043 0.0
C1482 C 0.00611 0.52497 0.92134 0.0
H1483 H 0.93897 0.53167 0.86867 0.0
H1484 H 0.95787 0.53533 0.92817 0.0
C1485 C 0.02737 0.51923 0.89774 0.0
C1486 C 0.26597 0.22674 0.61939 0.0
C1487 C 0.27922 0.20361 0.60063 0.0
H1488 H 0.26619 0.25366 0.66709 0.0
C1489 C 0.30455 0.1906 0.61646 0.0
H1490 H 0.24649 0.23734 0.60799 0.0
C1491 C 0.31573 0.19987 0.65046 0.0
C1492 C 0.30192 0.22243 0.66933 0.0
H1493 H 0.31529 0.17272 0.60278 0.0
H1494 H 0.33494 0.18902 0.66201 0.0
C1495 C 0.27723 0.23609 0.65332 0.0
C1496 C 0.55095 0.49756 0.17829 0.0
C1497 C 0.57779 0.48849 0.19639 0.0
H1498 H 0.52277 0.49612 0.13071 0.0
C1499 C 0.59548 0.46813 0.17954 0.0
H1500 H 0.53663 0.51307 0.19042 0.0
C1501 C 0.58748 0.45839 0.14511 0.0
C1502 C 0.56174 0.46895 0.12682 0.0
H1503 H 0.61627 0.46065 0.19268 0.0
H1504 H 0.60215 0.44346 0.13269 0.0
C1505 C 0.54308 0.48798 0.14395 0.0
C1506 C 0.26562 0.82609 0.89907 0.0
C1507 C 0.26755 0.80825 0.92646 0.0
H1508 H 0.26409 0.82457 0.84603 0.0
C1509 C 0.26312 0.77379 0.92093 0.0
H1510 H 0.26936 0.85271 0.9028 0.0
C1511 C 0.25948 0.75761 0.88864 0.0
C1512 C 0.2604 0.77563 0.86121 0.0
H1513 H 0.26428 0.75949 0.94179 0.0
H1514 H 0.25788 0.73125 0.88531 0.0
C1515 C 0.26234 0.80988 0.86659 0.0
C1516 C 0.02746 0.55847 0.69022 0.0
C1517 C 0.99348 0.55744 0.69135 0.0
H1518 H 0.06962 0.57286 0.66443 0.0
C1519 C 0.97732 0.57581 0.67066 0.0
H1520 H 0.04077 0.54528 0.70666 0.0
C1521 C 0.99397 0.59177 0.64645 0.0
C1522 C 0.02694 0.58957 0.64291 0.0
H1523 H 0.95123 0.57573 0.67143 0.0
H1524 H 0.97998 0.60296 0.62859 0.0
C1525 C 0.04413 0.57462 0.66638 0.0
C1526 C 0.26476 0.18759 0.39103 0.0
C1527 C 0.26443 0.20938 0.41944 0.0
H1528 H 0.26341 0.18089 0.33807 0.0
C1529 C 0.26683 0.24302 0.41626 0.0
H1530 H 0.2625 0.1615 0.3927 0.0
C1531 C 0.26859 0.25451 0.38499 0.0
C1532 C 0.26683 0.23232 0.35618 0.0
H1533 H 0.26655 0.26032 0.43788 0.0
H1534 H 0.26976 0.28042 0.38323 0.0
C1535 C 0.26531 0.19881 0.35969 0.0
C1536 C 0.38046 0.59208 0.54459 0.0
C1537 C 0.36144 0.58986 0.5134 0.0
H1538 H 0.42303 0.58154 0.57195 0.0
C1539 C 0.36997 0.57183 0.48565 0.0
H1540 H 0.37454 0.60545 0.56658 0.0
C1541 C 0.39795 0.55775 0.48883 0.0
C1542 C 0.4179 0.56174 0.51976 0.0
H1543 H 0.35572 0.56952 0.46127 0.0
H1544 H 0.40482 0.5452 0.46688 0.0
C1545 C 0.40834 0.57832 0.54768 0.0
C1546 C 0.89899 0.94136 0.57738 0.0
C1547 C 0.86987 0.93489 0.55455 0.0
H1548 H 0.94996 0.96771 0.58891 0.0
C1549 C 0.86893 0.9528 0.52698 0.0
H1550 H 0.90038 0.92752 0.59856 0.0
C1551 C 0.89757 0.97473 0.52078 0.0
C1552 C 0.92708 0.98005 0.54281 0.0
H1553 H 0.84693 0.94781 0.50873 0.0
H1554 H 0.89713 0.98636 0.49803 0.0
C1555 C 0.92723 0.96432 0.5719 0.0
C1556 C 0.84247 0.08992 0.28862 0.0
C1557 C 0.86157 0.08047 0.26416 0.0
H1558 H 0.81761 0.12651 0.30795 0.0
C1559 C 0.8679 0.10026 0.23839 0.0
H1560 H 0.83701 0.07514 0.30873 0.0
C1561 C 0.85691 0.12964 0.23804 0.0
C1562 C 0.83919 0.13992 0.26335 0.0
H1563 H 0.88233 0.09367 0.21902 0.0
H1564 H 0.86313 0.14475 0.21834 0.0
C1565 C 0.8313 0.11932 0.28816 0.0
C1566 C 0.6947 0.08172 -0.00294 0.0
C1567 C 0.69446 0.11462 0.00819 0.0
H1568 H 0.66564 0.03283 0.98046 0.0
C1569 C 0.66374 0.12303 0.01171 0.0
H1570 H 0.71794 0.07444 -0.0059 0.0
C1571 C 0.63401 0.09934 0.00415 0.0
C1572 C 0.63408 0.06655 -0.00738 0.0
H1573 H 0.66255 0.14806 0.02039 0.0
H1574 H 0.6109 0.1069 0.00714 0.0
C1575 C 0.66475 0.05793 0.9892 0.0
C1576 C 0.18366 0.41757 0.24964 0.0
C1577 C 0.19169 0.4388 0.27976 0.0
H1578 H 0.18696 0.37191 0.22314 0.0
C1579 C 0.2128 0.43098 0.3058 0.0
H1580 H 0.16776 0.42293 0.22892 0.0
C1581 C 0.22408 0.40158 0.30235 0.0
C1582 C 0.21422 0.37951 0.27289 0.0
H1583 H 0.2196 0.44692 0.32927 0.0
H1584 H 0.23904 0.39538 0.32328 0.0
C1585 C 0.1947 0.38827 0.2463 0.0
C1586 C 0.19472 0.4531 -0.00105 0.0
C1587 C 0.20139 0.4321 0.02271 0.0
H1588 H 0.16067 0.48077 0.97885 0.0
C1589 C 0.17885 0.42438 0.04591 0.0
H1590 H 0.21164 0.45962 0.98077 0.0
C1591 C 0.14978 0.43631 0.04468 0.0
C1592 C 0.14253 0.45645 0.02036 0.0
H1593 H 0.1832 0.40842 0.06464 0.0
H1594 H 0.1327 0.42926 0.0626 0.0
C1595 C 0.16558 0.46528 -0.00213 0.0
C1596 C 0.84242 0.90185 0.2394 0.0
C1597 C 0.87414 0.90991 0.25812 0.0
H1598 H 0.79556 0.86656 0.22815 0.0
C1599 C 0.8817 0.88989 0.28235 0.0
H1600 H 0.83591 0.91712 0.22078 0.0
C1601 C 0.85859 0.86198 0.28733 0.0
C1602 C 0.8275 0.85255 0.26747 0.0
H1603 H 0.90569 0.89585 0.29767 0.0
H1604 H 0.86574 0.84711 0.30608 0.0
C1605 C 0.81936 0.87307 0.24375 0.0
C1606 C 0.7248 0.10459 0.78944 0.0
C1607 C 0.69848 0.1061 0.76525 0.0
H1608 H 0.76889 0.13158 0.8209 0.0
C1609 C 0.69824 0.13586 0.75198 0.0
H1610 H 0.72548 0.08193 0.80016 0.0
C1611 C 0.72281 0.16398 0.7637 0.0
C1612 C 0.74816 0.1632 0.78924 0.0
H1613 H 0.67847 0.13768 0.73305 0.0
H1614 H 0.72131 0.18657 0.75319 0.0
C1615 C 0.74944 0.13303 0.80148 0.0
loop_
_geom_bond_atom_site_label_1
_geom_bond_atom_site_label_2
_geom_bond_distance
_geom_bond_site_symmetry_2
_ccdc_geom_bond_type
Zn0 O3 2.031 1_655 S
Zn0 O5 2.049 . S
Zn0 O10 2.067 . S
Zn1 O2 1.962 . S
Zn1 O4 1.986 . S
Zn1 O6 1.996 . S
Zn1 O9 1.943 . S
O2 Zn1 1.962 . S
O2 C7 1.254 . S
O3 Zn0 2.031 1_455 S
O3 C7 1.269 . S
O4 Zn1 1.986 . S
O4 C11 1.262 . S
O5 Zn0 2.049 . S
O5 C13 1.260 1_655 S
O6 Zn1 1.996 . S
O6 C13 1.257 . S
C7 O2 1.254 . S
C7 O3 1.269 . S
C8 O9 1.249 1_655 S
C8 O10 1.270 . S
O9 Zn1 1.943 . S
O9 C8 1.249 1_455 S
O10 Zn0 2.067 . S
O10 C8 1.270 . S
C11 O4 1.262 . S
C11 O12 1.232 . S
O12 C11 1.232 . S
C13 O5 1.260 1_455 S
C13 O6 1.257 . S
Zn14 O17 2.031 1_455 S
Zn14 O19 2.049 . S
Zn14 O24 2.067 . S
Zn15 O16 1.962 1_455 S
Zn15 O18 1.986 . S
Zn15 O20 1.996 . S
Zn15 O23 1.943 . S
O16 Zn15 1.962 1_655 S
O16 C21 1.254 . S
O17 Zn14 2.031 1_655 S
O17 C21 1.269 . S
O18 Zn15 1.986 . S
O18 C25 1.262 . S
O19 Zn14 2.049 . S
O19 C27 1.260 . S
O20 Zn15 1.996 . S
O20 C27 1.257 . S
C21 O16 1.254 . S
C21 O17 1.269 . S
C22 O23 1.249 . S
C22 O24 1.270 . S
O23 Zn15 1.943 . S
O23 C22 1.249 . S
O24 Zn14 2.067 . S
O24 C22 1.270 . S
C25 O18 1.262 . S
C25 O26 1.232 1_455 S
O26 C25 1.232 1_655 S
C27 O19 1.260 . S
C27 O20 1.257 . S
Zn28 O31 2.031 . S
Zn28 O33 2.049 . S
Zn28 O38 2.067 . S
Zn29 O30 1.962 . S
Zn29 O32 1.986 . S
Zn29 O34 1.996 . S
Zn29 O37 1.943 . S
O30 Zn29 1.962 . S
O30 C35 1.254 . S
O31 Zn28 2.031 . S
O31 C35 1.269 . S
O32 Zn29 1.986 . S
O32 C39 1.262 . S
O33 Zn28 2.049 . S
O33 C41 1.260 . S
O34 Zn29 1.996 . S
O34 C41 1.257 . S
C35 O30 1.254 . S
C35 O31 1.269 . S
C36 O37 1.249 . S
C36 O38 1.270 . S
O37 Zn29 1.943 . S
O37 C36 1.249 . S
O38 Zn28 2.067 . S
O38 C36 1.270 . S
C39 O32 1.262 . S
C39 O40 1.232 . S
O40 C39 1.232 . S
C41 O33 1.260 . S
C41 O34 1.257 . S
Zn42 O45 2.031 . S
Zn42 O47 2.049 . S
Zn42 O52 2.067 . S
Zn43 O44 1.962 . S
Zn43 O46 1.986 . S
Zn43 O48 1.996 . S
Zn43 O51 1.943 . S
O44 Zn43 1.962 . S
O44 C49 1.254 . S
O45 Zn42 2.031 . S
O45 C49 1.269 . S
O46 Zn43 1.986 . S
O46 C53 1.262 . S
O47 Zn42 2.049 . S
O47 C55 1.260 . S
O48 Zn43 1.996 . S
O48 C55 1.257 . S
C49 O44 1.254 . S
C49 O45 1.269 . S
C50 O51 1.249 . S
C50 O52 1.270 . S
O51 Zn43 1.943 . S
O51 C50 1.249 . S
O52 Zn42 2.067 . S
O52 C50 1.270 . S
C53 O46 1.262 . S
C53 O54 1.232 . S
O54 C53 1.232 . S
C55 O47 1.260 . S
C55 O48 1.257 . S
Zn56 O59 2.031 . S
Zn56 O61 2.049 . S
Zn56 O66 2.067 . S
Zn57 O58 1.962 . S
Zn57 O60 1.986 1_455 S
Zn57 O62 1.996 . S
Zn57 O65 1.943 . S
O58 Zn57 1.962 . S
O58 C63 1.254 . S
O59 Zn56 2.031 . S
O59 C63 1.269 . S
O60 Zn57 1.986 1_655 S
O60 C67 1.262 . S
O61 Zn56 2.049 . S
O61 C69 1.260 . S
O62 Zn57 1.996 . S
O62 C69 1.257 . S
C63 O58 1.254 . S
C63 O59 1.269 . S
C64 O65 1.249 . S
C64 O66 1.270 . S
O65 Zn57 1.943 . S
O65 C64 1.249 . S
O66 Zn56 2.067 . S
O66 C64 1.270 . S
C67 O60 1.262 . S
C67 O68 1.232 1_655 S
O68 C67 1.232 1_455 S
C69 O61 1.260 . S
C69 O62 1.257 . S
Zn70 O73 2.031 . S
Zn70 O75 2.049 . S
Zn70 O80 2.067 . S
Zn71 O72 1.962 . S
Zn71 O74 1.986 . S
Zn71 O76 1.996 . S
Zn71 O79 1.943 . S
O72 Zn71 1.962 . S
O72 C77 1.254 . S
O73 Zn70 2.031 . S
O73 C77 1.269 . S
O74 Zn71 1.986 . S
O74 C81 1.262 . S
O75 Zn70 2.049 . S
O75 C83 1.260 . S
O76 Zn71 1.996 . S
O76 C83 1.257 . S
C77 O72 1.254 . S
C77 O73 1.269 . S
C78 O79 1.249 . S
C78 O80 1.270 . S
O79 Zn71 1.943 . S
O79 C78 1.249 . S
O80 Zn70 2.067 . S
O80 C78 1.270 . S
C81 O74 1.262 . S
C81 O82 1.232 . S
O82 C81 1.232 . S
C83 O75 1.260 . S
C83 O76 1.257 . S
Zn84 O87 2.031 . S
Zn84 O89 2.049 . S
Zn84 O94 2.067 . S
Zn85 O86 1.962 . S
Zn85 O88 1.986 . S
Zn85 O90 1.996 . S
Zn85 O93 1.943 . S
O86 Zn85 1.962 . S
O86 C91 1.254 . S
O87 Zn84 2.031 . S
O87 C91 1.269 . S
O88 Zn85 1.986 . S
O88 C95 1.262 . S
O89 Zn84 2.049 . S
O89 C97 1.260 . S
O90 Zn85 1.996 . S
O90 C97 1.257 . S
C91 O86 1.254 . S
C91 O87 1.269 . S
C92 O93 1.249 . S
C92 O94 1.270 . S
O93 Zn85 1.943 . S
O93 C92 1.249 . S
O94 Zn84 2.067 . S
O94 C92 1.270 . S
C95 O88 1.262 . S
C95 O96 1.232 . S
O96 C95 1.232 . S
C97 O89 1.260 . S
C97 O90 1.257 . S
Zn98 O101 2.031 . S
Zn98 O103 2.049 . S
Zn98 O108 2.067 . S
Zn99 O100 1.962 . S
Zn99 O102 1.986 . S
Zn99 O104 1.996 . S
Zn99 O107 1.943 1_455 S
O100 Zn99 1.962 . S
O100 C105 1.268 . S
O101 Zn98 2.031 . S
O101 C105 1.257 1_655 S
O102 Zn99 1.986 . S
O102 C109 1.262 . S
O103 Zn98 2.049 . S
O103 C111 1.260 . S
O104 Zn99 1.996 . S
O104 C111 1.257 1_455 S
C105 O100 1.268 . S
C105 O101 1.257 1_455 S
C106 O107 1.249 . S
C106 O108 1.270 . S
O107 Zn99 1.943 1_655 S
O107 C106 1.249 . S
O108 Zn98 2.067 . S
O108 C106 1.270 . S
C109 O102 1.262 . S
C109 O110 1.232 . S
O110 C109 1.232 . S
C111 O103 1.260 . S
C111 O104 1.257 1_655 S
Zn112 O115 2.040 . S
Zn112 O117 2.049 . S
Zn112 O122 2.067 . S
Zn113 O114 1.962 . S
Zn113 O116 1.986 . S
Zn113 O118 1.996 . S
Zn113 O121 1.946 . S
O114 Zn113 1.962 . S
O114 C119 1.254 . S
O115 Zn112 2.040 . S
O115 C119 1.240 1_565 S
O116 Zn113 1.986 . S
O116 C123 1.262 . S
O117 Zn112 2.049 . S
O117 C125 1.260 1_565 S
O118 Zn113 1.996 . S
O118 C125 1.257 . S
C119 O114 1.254 . S
C119 O115 1.240 1_545 S
C120 O121 1.244 1_565 S
C120 O122 1.270 . S
O121 Zn113 1.946 . S
O121 C120 1.244 1_545 S
O122 Zn112 2.067 . S
O122 C120 1.270 . S
C123 O116 1.262 . S
C123 O124 1.232 . S
O124 C123 1.232 . S
C125 O117 1.260 1_545 S
C125 O118 1.257 . S
Zn126 O129 2.031 . S
Zn126 O131 2.049 . S
Zn126 O136 2.067 . S
Zn127 O128 1.962 . S
Zn127 O130 1.986 . S
Zn127 O132 1.996 . S
Zn127 O135 1.943 . S
O128 Zn127 1.962 . S
O128 C133 1.254 . S
O129 Zn126 2.031 . S
O129 C133 1.269 . S
O130 Zn127 1.986 . S
O130 C137 1.262 . S
O131 Zn126 2.049 . S
O131 C139 1.260 . S
O132 Zn127 1.996 . S
O132 C139 1.257 . S
C133 O128 1.254 . S
C133 O129 1.269 . S
C134 O135 1.249 . S
C134 O136 1.270 . S
O135 Zn127 1.943 . S
O135 C134 1.249 . S
O136 Zn126 2.067 . S
O136 C134 1.270 . S
C137 O130 1.262 . S
C137 O138 1.232 . S
O138 C137 1.232 . S
C139 O131 1.260 . S
C139 O132 1.257 . S
Zn140 O143 2.031 . S
Zn140 O145 2.049 . S
Zn140 O150 2.067 . S
Zn141 O142 1.962 . S
Zn141 O144 1.986 1_545 S
Zn141 O146 1.996 . S
Zn141 O149 1.943 . S
O142 Zn141 1.962 . S
O142 C147 1.254 . S
O143 Zn140 2.031 . S
O143 C147 1.269 . S
O144 Zn141 1.986 1_565 S
O144 C151 1.262 . S
O145 Zn140 2.049 . S
O145 C153 1.260 . S
O146 Zn141 1.996 . S
O146 C153 1.257 . S
C147 O142 1.254 . S
C147 O143 1.269 . S
C148 O149 1.249 . S
C148 O150 1.270 . S
O149 Zn141 1.943 . S
O149 C148 1.249 . S
O150 Zn140 2.067 . S
O150 C148 1.270 . S
C151 O144 1.262 . S
C151 O152 1.232 . S
O152 C151 1.232 . S
C153 O145 1.260 . S
C153 O146 1.257 . S
Zn154 O157 2.031 1_554 S
Zn154 O159 2.049 . S
Zn154 O164 2.067 . S
Zn155 O156 1.962 1_554 S
Zn155 O158 1.986 . S
Zn155 O160 1.996 . S
Zn155 O163 1.943 . S
O156 Zn155 1.962 1_556 S
O156 C161 1.254 . S
O157 Zn154 2.031 1_556 S
O157 C161 1.269 . S
O158 Zn155 1.986 . S
O158 C165 1.262 . S
O159 Zn154 2.049 . S
O159 C167 1.260 . S
O160 Zn155 1.996 . S
O160 C167 1.257 . S
C161 O156 1.254 . S
C161 O157 1.269 . S
C162 O163 1.249 . S
C162 O164 1.270 . S
O163 Zn155 1.943 . S
O163 C162 1.249 . S
O164 Zn154 2.067 . S
O164 C162 1.270 . S
C165 O158 1.262 . S
C165 O166 1.232 1_554 S
O166 C165 1.232 1_556 S
C167 O159 1.260 . S
C167 O160 1.257 . S
Zn168 O171 2.031 . S
Zn168 O173 2.049 . S
Zn168 O178 2.067 . S
Zn169 O170 1.962 . S
Zn169 O172 1.986 . S
Zn169 O174 1.996 . S
Zn169 O177 1.943 . S
O170 Zn169 1.962 . S
O170 C175 1.254 . S
O171 Zn168 2.031 . S
O171 C175 1.269 . S
O172 Zn169 1.986 . S
O172 C179 1.262 . S
O173 Zn168 2.049 . S
O173 C181 1.260 . S
O174 Zn169 1.996 . S
O174 C181 1.257 . S
C175 O170 1.254 . S
C175 O171 1.269 . S
C176 O177 1.249 . S
C176 O178 1.270 . S
O177 Zn169 1.943 . S
O177 C176 1.249 . S
O178 Zn168 2.067 . S
O178 C176 1.270 . S
C179 O172 1.262 . S
C179 O180 1.232 . S
O180 C179 1.232 . S
C181 O173 1.260 . S
C181 O174 1.257 . S
Zn182 O185 2.031 . S
Zn182 O187 2.049 . S
Zn182 O192 2.067 . S
Zn183 O184 1.962 . S
Zn183 O186 1.986 . S
Zn183 O188 1.996 . S
Zn183 O191 1.943 . S
O184 Zn183 1.962 . S
O184 C189 1.254 1_554 S
O185 Zn182 2.031 . S
O185 C189 1.269 1_554 S
O186 Zn183 1.986 . S
O186 C193 1.262 . S
O187 Zn182 2.049 . S
O187 C195 1.260 . S
O188 Zn183 1.996 . S
O188 C195 1.257 . S
C189 O184 1.254 1_556 S
C189 O185 1.269 1_556 S
C190 O191 1.249 . S
C190 O192 1.270 . S
O191 Zn183 1.943 . S
O191 C190 1.249 . S
O192 Zn182 2.067 . S
O192 C190 1.270 . S
C193 O186 1.262 . S
C193 O194 1.232 . S
O194 C193 1.232 . S
C195 O187 1.260 . S
C195 O188 1.257 . S
Zn196 O199 2.031 . S
Zn196 O201 2.049 . S
Zn196 O206 2.067 . S
Zn197 O198 1.962 . S
Zn197 O200 1.986 . S
Zn197 O202 1.996 . S
Zn197 O205 1.943 . S
O198 Zn197 1.962 . S
O198 C203 1.254 . S
O199 Zn196 2.031 . S
O199 C203 1.269 . S
O200 Zn197 1.986 . S
O200 C207 1.262 . S
O201 Zn196 2.049 . S
O201 C209 1.260 . S
O202 Zn197 1.996 . S
O202 C209 1.257 . S
C203 O198 1.254 . S
C203 O199 1.269 . S
C204 O205 1.249 . S
C204 O206 1.270 . S
O205 Zn197 1.943 . S
O205 C204 1.249 . S
O206 Zn196 2.067 . S
O206 C204 1.270 . S
C207 O200 1.262 . S
C207 O208 1.232 . S
O208 C207 1.232 . S
C209 O201 1.260 . S
C209 O202 1.257 . S
Zn210 O213 2.031 . S
Zn210 O215 2.049 . S
Zn210 O220 2.067 . S
Zn211 O212 1.962 . S
Zn211 O214 1.986 . S
Zn211 O216 1.996 . S
Zn211 O219 1.943 . S
O212 Zn211 1.962 . S
O212 C217 1.254 . S
O213 Zn210 2.031 . S
O213 C217 1.269 . S
O214 Zn211 1.986 . S
O214 C221 1.262 . S
O215 Zn210 2.049 . S
O215 C223 1.260 . S
O216 Zn211 1.996 . S
O216 C223 1.257 . S
C217 O212 1.254 . S
C217 O213 1.269 . S
C218 O219 1.249 . S
C218 O220 1.270 . S
O219 Zn211 1.943 . S
O219 C218 1.249 . S
O220 Zn210 2.067 . S
O220 C218 1.270 . S
C221 O214 1.262 . S
C221 O222 1.232 . S
O222 C221 1.232 . S
C223 O215 1.260 . S
C223 O216 1.257 . S
Zn224 O227 2.031 . S
Zn224 O229 2.049 . S
Zn224 O234 2.067 . S
Zn225 O226 1.962 . S
Zn225 O228 1.986 . S
Zn225 O230 1.996 . S
Zn225 O233 1.943 1_545 S
O226 Zn225 1.962 . S
O226 C231 1.254 . S
O227 Zn224 2.031 . S
O227 C231 1.269 1_565 S
O228 Zn225 1.986 . S
O228 C235 1.262 . S
O229 Zn224 2.049 . S
O229 C237 1.243 1_565 S
O230 Zn225 1.996 . S
O230 C237 1.265 . S
C231 O226 1.254 . S
C231 O227 1.269 1_545 S
C232 O233 1.249 . S
C232 O234 1.270 . S
O233 Zn225 1.943 1_565 S
O233 C232 1.249 . S
O234 Zn224 2.067 . S
O234 C232 1.270 . S
C235 O228 1.262 . S
C235 O236 1.232 . S
O236 C235 1.232 . S
C237 O229 1.243 1_545 S
C237 O230 1.265 . S
Zn238 O241 2.031 . S
Zn238 O243 2.049 . S
Zn238 O248 2.067 . S
Zn239 O240 1.962 . S
Zn239 O242 1.986 . S
Zn239 O244 1.996 . S
Zn239 O247 1.943 . S
O240 Zn239 1.962 . S
O240 C245 1.254 . S
O241 Zn238 2.031 . S
O241 C245 1.269 . S
O242 Zn239 1.986 . S
O242 C249 1.262 . S
O243 Zn238 2.049 . S
O243 C251 1.260 . S
O244 Zn239 1.996 . S
O244 C251 1.257 . S
C245 O240 1.254 . S
C245 O241 1.269 . S
C246 O247 1.249 . S
C246 O248 1.270 . S
O247 Zn239 1.943 . S
O247 C246 1.249 . S
O248 Zn238 2.067 . S
O248 C246 1.270 . S
C249 O242 1.262 . S
C249 O250 1.232 . S
O250 C249 1.232 . S
C251 O243 1.260 . S
C251 O244 1.257 . S
Zn252 O255 2.031 . S
Zn252 O257 2.049 . S
Zn252 O262 2.067 . S
Zn253 O254 1.962 . S
Zn253 O256 1.986 . S
Zn253 O258 1.996 . S
Zn253 O261 1.943 . S
O254 Zn253 1.962 . S
O254 C259 1.254 . S
O255 Zn252 2.031 . S
O255 C259 1.269 . S
O256 Zn253 1.986 . S
O256 C263 1.262 . S
O257 Zn252 2.049 . S
O257 C265 1.260 . S
O258 Zn253 1.996 . S
O258 C265 1.257 . S
C259 O254 1.254 . S
C259 O255 1.269 . S
C260 O261 1.249 . S
C260 O262 1.270 . S
O261 Zn253 1.943 . S
O261 C260 1.249 . S
O262 Zn252 2.067 . S
O262 C260 1.270 . S
C263 O256 1.262 . S
C263 O264 1.232 . S
O264 C263 1.232 . S
C265 O257 1.260 . S
C265 O258 1.257 . S
Zn266 O269 2.031 . S
Zn266 O271 2.049 . S
Zn266 O276 2.067 . S
Zn267 O268 1.962 . S
Zn267 O270 1.986 . S
Zn267 O272 1.996 . S
Zn267 O275 1.943 1_565 S
O268 Zn267 1.962 . S
O268 C273 1.254 1_565 S
O269 Zn266 2.031 . S
O269 C273 1.269 . S
O270 Zn267 1.986 . S
O270 C277 1.262 . S
O271 Zn266 2.049 . S
O271 C279 1.260 . S
O272 Zn267 1.996 . S
O272 C279 1.257 1_565 S
C273 O268 1.254 1_545 S
C273 O269 1.269 . S
C274 O275 1.249 . S
C274 O276 1.270 . S
O275 Zn267 1.943 1_545 S
O275 C274 1.249 . S
O276 Zn266 2.067 . S
O276 C274 1.270 . S
C277 O270 1.262 . S
C277 O278 1.232 . S
O278 C277 1.232 . S
C279 O271 1.260 . S
C279 O272 1.257 1_545 S
Zn280 O283 2.031 1_554 S
Zn280 O285 2.049 . S
Zn280 O290 2.067 . S
Zn281 O282 1.984 . S
Zn281 O284 1.975 1_556 S
Zn281 O286 1.979 1_556 S
Zn281 O289 1.940 . S
O282 Zn281 1.984 . S
O282 C287 1.254 . S
O283 Zn280 2.031 1_556 S
O283 C287 1.269 . S
O284 Zn281 1.975 1_554 S
O284 C291 1.262 1_554 S
O285 Zn280 2.049 . S
O285 C293 1.260 . S
O286 Zn281 1.979 1_554 S
O286 C293 1.257 . S
C287 O282 1.254 . S
C287 O283 1.269 . S
C288 O289 1.249 . S
C288 O290 1.270 1_556 S
O289 Zn281 1.940 . S
O289 C288 1.249 . S
O290 Zn280 2.067 . S
O290 C288 1.270 1_554 S
C291 O284 1.262 1_556 S
C291 O292 1.232 . S
O292 C291 1.232 . S
C293 O285 1.260 . S
C293 O286 1.257 . S
Zn294 O297 2.031 . S
Zn294 O299 2.049 . S
Zn294 O304 2.067 . S
Zn295 O296 1.962 . S
Zn295 O298 1.986 . S
Zn295 O300 1.996 . S
Zn295 O303 1.943 . S
O296 Zn295 1.962 . S
O296 C301 1.254 . S
O297 Zn294 2.031 . S
O297 C301 1.269 . S
O298 Zn295 1.986 . S
O298 C305 1.262 . S
O299 Zn294 2.049 . S
O299 C307 1.260 . S
O300 Zn295 1.996 . S
O300 C307 1.257 . S
C301 O296 1.254 . S
C301 O297 1.269 . S
C302 O303 1.249 . S
C302 O304 1.270 . S
O303 Zn295 1.943 . S
O303 C302 1.249 . S
O304 Zn294 2.067 . S
O304 C302 1.270 . S
C305 O298 1.262 . S
C305 O306 1.232 . S
O306 C305 1.232 . S
C307 O299 1.260 . S
C307 O300 1.257 . S
Zn308 O311 2.031 . S
Zn308 O313 2.049 . S
Zn308 O318 2.067 . S
Zn309 O310 1.962 . S
Zn309 O312 1.986 . S
Zn309 O314 1.996 . S
Zn309 O317 1.943 . S
O310 Zn309 1.962 . S
O310 C315 1.254 . S
O311 Zn308 2.031 . S
O311 C315 1.269 . S
O312 Zn309 1.986 . S
O312 C319 1.262 . S
O313 Zn308 2.049 . S
O313 C321 1.260 . S
O314 Zn309 1.996 . S
O314 C321 1.257 . S
C315 O310 1.254 . S
C315 O311 1.269 . S
C316 O317 1.249 . S
C316 O318 1.270 . S
O317 Zn309 1.943 . S
O317 C316 1.249 . S
O318 Zn308 2.067 . S
O318 C316 1.270 . S
C319 O312 1.262 . S
C319 O320 1.232 . S
O320 C319 1.232 . S
C321 O313 1.260 . S
C321 O314 1.257 . S
Zn322 O325 2.031 . S
Zn322 O327 2.049 . S
Zn322 O332 2.067 . S
Zn323 O324 1.962 . S
Zn323 O326 1.986 . S
Zn323 O328 1.996 . S
Zn323 O331 1.943 . S
O324 Zn323 1.962 . S
O324 C329 1.254 . S
O325 Zn322 2.031 . S
O325 C329 1.269 . S
O326 Zn323 1.986 . S
O326 C333 1.262 . S
O327 Zn322 2.049 . S
O327 C335 1.260 . S
O328 Zn323 1.996 . S
O328 C335 1.257 . S
C329 O324 1.254 . S
C329 O325 1.269 . S
C330 O331 1.249 . S
C330 O332 1.270 . S
O331 Zn323 1.943 . S
O331 C330 1.249 . S
O332 Zn322 2.067 . S
O332 C330 1.270 . S
C333 O326 1.262 . S
C333 O334 1.232 . S
O334 C333 1.232 . S
C335 O327 1.260 . S
C335 O328 1.257 . S
Zn336 O342 1.970 . S
Zn336 O343 1.965 1_565 S
Zn336 O347 2.024 . S
Zn336 O352 1.969 1_565 S
Zn337 O344 1.948 1_654 S
Zn337 O350 1.999 1_554 S
Zn337 O351 1.963 . S
Zn337 O353 2.011 1_655 S
C338 O339 1.229 . S
C338 O347 1.058 . S
O339 C338 1.229 . S
C340 O341 1.229 1_554 S
C340 O353 1.058 . S
O341 C340 1.229 1_556 S
O342 Zn336 1.970 . S
O342 C345 1.273 . S
O343 Zn336 1.965 1_545 S
O343 C354 1.260 1_554 S
O344 Zn337 1.948 1_456 S
O344 C354 1.258 . S
C345 O342 1.273 . S
C345 O346 1.228 . S
O346 C345 1.228 . S
O347 Zn336 2.024 . S
O347 C338 1.058 . S
C348 O349 1.228 . S
C348 O350 1.267 1_554 S
O349 C348 1.228 . S
O350 Zn337 1.999 1_556 S
O350 C348 1.267 1_556 S
O351 Zn337 1.963 . S
O351 C355 1.261 1_655 S
O352 Zn336 1.969 1_545 S
O352 C355 1.258 . S
O353 Zn337 2.011 1_455 S
O353 C340 1.058 . S
C354 O343 1.260 1_556 S
C354 O344 1.258 . S
C355 O351 1.261 1_455 S
C355 O352 1.258 . S
Zn356 O362 1.969 . S
Zn356 O363 1.965 . S
Zn356 O367 2.024 . S
Zn356 O372 1.969 . S
Zn357 O364 1.969 . S
Zn357 O370 1.969 . S
Zn357 O371 1.965 . S
Zn357 O373 2.024 . S
C358 O359 1.229 . S
C358 O367 1.058 . S
O359 C358 1.229 . S
C360 O361 1.229 . S
C360 O373 1.058 . S
O361 C360 1.229 . S
O362 Zn356 1.969 . S
O362 C365 1.267 . S
O363 Zn356 1.965 . S
O363 C374 1.260 . S
O364 Zn357 1.969 . S
O364 C374 1.258 . S
C365 O362 1.267 . S
C365 O366 1.228 . S
O366 C365 1.228 . S
O367 Zn356 2.024 . S
O367 C358 1.058 . S
C368 O369 1.228 . S
C368 O370 1.267 . S
O369 C368 1.228 . S
O370 Zn357 1.969 . S
O370 C368 1.267 . S
O371 Zn357 1.965 . S
O371 C375 1.260 . S
O372 Zn356 1.969 . S
O372 C375 1.258 . S
O373 Zn357 2.024 . S
O373 C360 1.058 . S
C374 O363 1.260 . S
C374 O364 1.258 . S
C375 O371 1.260 . S
C375 O372 1.258 . S
Zn376 O382 1.969 . S
Zn376 O383 1.965 . S
Zn376 O387 2.024 . S
Zn376 O392 1.969 . S
Zn377 O384 1.969 . S
Zn377 O390 1.969 . S
Zn377 O391 1.965 1_565 S
Zn377 O393 2.024 . S
C378 O379 1.229 . S
C378 O387 1.058 . S
O379 C378 1.229 . S
C380 O381 1.229 . S
C380 O393 1.058 . S
O381 C380 1.229 . S
O382 Zn376 1.969 . S
O382 C385 1.267 . S
O383 Zn376 1.965 . S
O383 C394 1.260 . S
O384 Zn377 1.969 . S
O384 C394 1.258 1_565 S
C385 O382 1.267 . S
C385 O386 1.228 . S
O386 C385 1.228 . S
O387 Zn376 2.024 . S
O387 C378 1.058 . S
C388 O389 1.228 . S
C388 O390 1.267 . S
O389 C388 1.228 . S
O390 Zn377 1.969 . S
O390 C388 1.267 . S
O391 Zn377 1.965 1_545 S
O391 C395 1.260 . S
O392 Zn376 1.969 . S
O392 C395 1.258 . S
O393 Zn377 2.024 . S
O393 C380 1.058 . S
C394 O383 1.260 . S
C394 O384 1.258 1_545 S
C395 O391 1.260 . S
C395 O392 1.258 . S
Zn396 O402 1.969 . S
Zn396 O403 1.965 . S
Zn396 O407 2.024 . S
Zn396 O412 1.969 . S
Zn397 O404 1.969 . S
Zn397 O410 1.969 . S
Zn397 O411 1.965 . S
Zn397 O413 2.024 . S
C398 O399 1.229 . S
C398 O407 1.058 . S
O399 C398 1.229 . S
C400 O401 1.229 . S
C400 O413 1.058 . S
O401 C400 1.229 . S
O402 Zn396 1.969 . S
O402 C405 1.267 . S
O403 Zn396 1.965 . S
O403 C414 1.260 . S
O404 Zn397 1.969 . S
O404 C414 1.258 . S
C405 O402 1.267 . S
C405 O406 1.228 . S
O406 C405 1.228 . S
O407 Zn396 2.024 . S
O407 C398 1.058 . S
C408 O409 1.228 . S
C408 O410 1.267 . S
O409 C408 1.228 . S
O410 Zn397 1.969 . S
O410 C408 1.267 . S
O411 Zn397 1.965 . S
O411 C415 1.260 . S
O412 Zn396 1.969 . S
O412 C415 1.258 . S
O413 Zn397 2.024 . S
O413 C400 1.058 . S
C414 O403 1.260 . S
C414 O404 1.258 . S
C415 O411 1.260 . S
C415 O412 1.258 . S
Zn416 O422 1.969 . S
Zn416 O423 1.965 1_455 S
Zn416 O427 2.024 1_565 S
Zn416 O432 1.969 1_565 S
Zn417 O424 1.969 1_455 S
Zn417 O430 1.969 1_455 S
Zn417 O431 1.965 . S
Zn417 O433 2.024 . S
C418 O419 1.229 1_545 S
C418 O427 1.058 . S
O419 C418 1.229 1_565 S
C420 O421 1.229 . S
C420 O433 1.058 1_655 S
O421 C420 1.229 . S
O422 Zn416 1.969 . S
O422 C425 1.267 . S
O423 Zn416 1.965 1_655 S
O423 C434 1.260 . S
O424 Zn417 1.969 1_655 S
O424 C434 1.258 1_545 S
C425 O422 1.267 . S
C425 O426 1.228 . S
O426 C425 1.228 . S
O427 Zn416 2.024 1_545 S
O427 C418 1.058 . S
C428 O429 1.228 . S
C428 O430 1.267 1_455 S
O429 C428 1.228 . S
O430 Zn417 1.969 1_655 S
O430 C428 1.267 1_655 S
O431 Zn417 1.965 . S
O431 C435 1.260 . S
O432 Zn416 1.969 1_545 S
O432 C435 1.258 . S
O433 Zn417 2.024 . S
O433 C420 1.058 1_455 S
C434 O423 1.260 . S
C434 O424 1.258 1_565 S
C435 O431 1.260 . S
C435 O432 1.258 . S
Zn436 O442 1.969 . S
Zn436 O443 1.965 . S
Zn436 O447 2.024 . S
Zn436 O452 1.969 . S
Zn437 O444 1.969 . S
Zn437 O450 1.969 . S
Zn437 O451 1.965 . S
Zn437 O453 2.024 . S
C438 O439 1.229 . S
C438 O447 1.058 . S
O439 C438 1.229 . S
C440 O441 1.229 . S
C440 O453 1.058 . S
O441 C440 1.229 . S
O442 Zn436 1.969 . S
O442 C445 1.267 . S
O443 Zn436 1.965 . S
O443 C454 1.260 . S
O444 Zn437 1.969 . S
O444 C454 1.258 . S
C445 O442 1.267 . S
C445 O446 1.228 . S
O446 C445 1.228 . S
O447 Zn436 2.024 . S
O447 C438 1.058 . S
C448 O449 1.228 . S
C448 O450 1.267 . S
O449 C448 1.228 . S
O450 Zn437 1.969 . S
O450 C448 1.267 . S
O451 Zn437 1.965 . S
O451 C455 1.260 . S
O452 Zn436 1.969 . S
O452 C455 1.258 . S
O453 Zn437 2.024 . S
O453 C440 1.058 . S
C454 O443 1.260 . S
C454 O444 1.258 . S
C455 O451 1.260 . S
C455 O452 1.258 . S
Zn456 O462 1.969 . S
Zn456 O463 1.965 1_545 S
Zn456 O467 2.024 1_556 S
Zn456 O472 1.969 1_556 S
Zn457 O464 1.969 1_545 S
Zn457 O470 1.969 1_545 S
Zn457 O471 1.965 . S
Zn457 O473 2.024 . S
C458 O459 1.242 . S
C458 O467 1.058 . S
O459 C458 1.242 . S
C460 O461 1.229 . S
C460 O473 1.058 1_565 S
O461 C460 1.229 . S
O462 Zn456 1.969 . S
O462 C465 1.267 . S
O463 Zn456 1.965 1_565 S
O463 C474 1.260 1_556 S
O464 Zn457 1.969 1_565 S
O464 C474 1.258 . S
C465 O462 1.267 . S
C465 O466 1.228 . S
O466 C465 1.228 . S
O467 Zn456 2.024 1_554 S
O467 C458 1.058 . S
C468 O469 1.228 . S
C468 O470 1.267 1_545 S
O469 C468 1.228 . S
O470 Zn457 1.969 1_565 S
O470 C468 1.267 1_565 S
O471 Zn457 1.965 . S
O471 C475 1.260 . S
O472 Zn456 1.969 1_554 S
O472 C475 1.258 . S
O473 Zn457 2.024 . S
O473 C460 1.058 1_545 S
C474 O463 1.260 1_554 S
C474 O464 1.258 . S
C475 O471 1.260 . S
C475 O472 1.258 . S
Zn476 O482 1.969 . S
Zn476 O483 1.965 . S
Zn476 O487 2.024 . S
Zn476 O492 1.969 . S
Zn477 O484 1.969 . S
Zn477 O490 1.969 . S
Zn477 O491 1.965 . S
Zn477 O493 2.024 . S
C478 O479 1.229 . S
C478 O487 1.058 . S
O479 C478 1.229 . S
C480 O481 1.229 . S
C480 O493 1.058 . S
O481 C480 1.229 . S
O482 Zn476 1.969 . S
O482 C485 1.267 . S
O483 Zn476 1.965 . S
O483 C494 1.260 . S
O484 Zn477 1.969 . S
O484 C494 1.258 . S
C485 O482 1.267 . S
C485 O486 1.228 . S
O486 C485 1.228 . S
O487 Zn476 2.024 . S
O487 C478 1.058 . S
C488 O489 1.228 . S
C488 O490 1.267 . S
O489 C488 1.228 . S
O490 Zn477 1.969 . S
O490 C488 1.267 . S
O491 Zn477 1.965 . S
O491 C495 1.260 . S
O492 Zn476 1.969 . S
O492 C495 1.258 . S
O493 Zn477 2.024 . S
O493 C480 1.058 . S
C494 O483 1.260 . S
C494 O484 1.258 . S
C495 O491 1.260 . S
C495 O492 1.258 . S
Zn496 O502 1.969 . S
Zn496 O503 1.965 . S
Zn496 O507 2.024 . S
Zn496 O512 1.969 . S
Zn497 O504 1.969 1_556 S
Zn497 O510 1.969 1_556 S
Zn497 O511 1.965 1_556 S
Zn497 O513 2.024 . S
C498 O499 1.229 . S
C498 O507 1.058 . S
O499 C498 1.229 . S
C500 O501 1.229 . S
C500 O513 1.058 . S
O501 C500 1.229 . S
O502 Zn496 1.969 . S
O502 C505 1.267 . S
O503 Zn496 1.965 . S
O503 C514 1.260 . S
O504 Zn497 1.969 1_554 S
O504 C514 1.258 . S
C505 O502 1.267 . S
C505 O506 1.228 . S
O506 C505 1.228 . S
O507 Zn496 2.024 . S
O507 C498 1.058 . S
C508 O509 1.228 . S
C508 O510 1.267 1_556 S
O509 C508 1.228 . S
O510 Zn497 1.969 1_554 S
O510 C508 1.267 1_554 S
O511 Zn497 1.965 1_554 S
O511 C515 1.260 . S
O512 Zn496 1.969 . S
O512 C515 1.258 . S
O513 Zn497 2.024 . S
O513 C500 1.058 . S
C514 O503 1.260 . S
C514 O504 1.258 . S
C515 O511 1.260 . S
C515 O512 1.258 . S
Zn516 O522 1.969 . S
Zn516 O523 1.965 . S
Zn516 O527 2.024 . S
Zn516 O532 1.969 . S
Zn517 O524 1.969 . S
Zn517 O530 1.969 . S
Zn517 O531 1.965 . S
Zn517 O533 2.024 . S
C518 O519 1.229 . S
C518 O527 1.058 . S
O519 C518 1.229 . S
C520 O521 1.229 . S
C520 O533 1.058 . S
O521 C520 1.229 . S
O522 Zn516 1.969 . S
O522 C525 1.267 . S
O523 Zn516 1.965 . S
O523 C534 1.260 . S
O524 Zn517 1.969 . S
O524 C534 1.258 . S
C525 O522 1.267 . S
C525 O526 1.228 . S
O526 C525 1.228 . S
O527 Zn516 2.024 . S
O527 C518 1.058 . S
C528 O529 1.228 . S
C528 O530 1.267 . S
O529 C528 1.228 . S
O530 Zn517 1.969 . S
O530 C528 1.267 . S
O531 Zn517 1.965 . S
O531 C535 1.260 . S
O532 Zn516 1.969 . S
O532 C535 1.258 . S
O533 Zn517 2.024 . S
O533 C520 1.058 . S
C534 O523 1.260 . S
C534 O524 1.258 . S
C535 O531 1.260 . S
C535 O532 1.258 . S
Zn536 O542 1.969 . S
Zn536 O543 1.965 . S
Zn536 O547 2.024 . S
Zn536 O552 1.969 . S
Zn537 O544 1.969 1_655 S
Zn537 O550 1.969 . S
Zn537 O551 1.965 1_655 S
Zn537 O553 2.024 . S
C538 O539 1.229 . S
C538 O547 1.058 . S
O539 C538 1.229 . S
C540 O541 1.229 . S
C540 O553 1.058 . S
O541 C540 1.229 . S
O542 Zn536 1.969 . S
O542 C545 1.267 . S
O543 Zn536 1.965 . S
O543 C554 1.260 . S
O544 Zn537 1.969 1_455 S
O544 C554 1.258 . S
C545 O542 1.267 . S
C545 O546 1.228 . S
O546 C545 1.228 . S
O547 Zn536 2.024 . S
O547 C538 1.058 . S
C548 O549 1.228 . S
C548 O550 1.267 . S
O549 C548 1.228 . S
O550 Zn537 1.969 . S
O550 C548 1.267 . S
O551 Zn537 1.965 1_455 S
O551 C555 1.260 . S
O552 Zn536 1.969 . S
O552 C555 1.258 . S
O553 Zn537 2.024 . S
O553 C540 1.058 . S
C554 O543 1.260 . S
C554 O544 1.258 . S
C555 O551 1.260 . S
C555 O552 1.258 . S
Zn556 O562 1.969 . S
Zn556 O563 1.965 . S
Zn556 O567 2.024 . S
Zn556 O572 1.969 . S
Zn557 O564 1.969 . S
Zn557 O570 1.969 . S
Zn557 O571 1.965 . S
Zn557 O573 2.024 . S
C558 O559 1.229 . S
C558 O567 1.058 . S
O559 C558 1.229 . S
C560 O561 1.229 . S
C560 O573 1.058 . S
O561 C560 1.229 . S
O562 Zn556 1.969 . S
O562 C565 1.267 . S
O563 Zn556 1.965 . S
O563 C574 1.260 . S
O564 Zn557 1.969 . S
O564 C574 1.258 . S
C565 O562 1.267 . S
C565 O566 1.228 . S
O566 C565 1.228 . S
O567 Zn556 2.024 . S
O567 C558 1.058 . S
C568 O569 1.228 . S
C568 O570 1.267 . S
O569 C568 1.228 . S
O570 Zn557 1.969 . S
O570 C568 1.267 . S
O571 Zn557 1.965 . S
O571 C575 1.260 . S
O572 Zn556 1.969 . S
O572 C575 1.258 . S
O573 Zn557 2.024 . S
O573 C560 1.058 . S
C574 O563 1.260 . S
C574 O564 1.258 . S
C575 O571 1.260 . S
C575 O572 1.258 . S
Zn576 O582 1.969 . S
Zn576 O583 1.965 . S
Zn576 O587 2.024 . S
Zn576 O592 1.969 . S
Zn577 O584 1.969 . S
Zn577 O590 1.969 . S
Zn577 O591 1.965 . S
Zn577 O593 2.024 . S
C578 O579 1.229 . S
C578 O587 1.058 . S
O579 C578 1.229 . S
C580 O581 1.229 . S
C580 O593 1.058 . S
O581 C580 1.229 . S
O582 Zn576 1.969 . S
O582 C585 1.267 . S
O583 Zn576 1.965 . S
O583 C594 1.260 . S
O584 Zn577 1.969 . S
O584 C594 1.258 . S
C585 O582 1.267 . S
C585 O586 1.228 . S
O586 C585 1.228 . S
O587 Zn576 2.024 . S
O587 C578 1.058 . S
C588 O589 1.228 . S
C588 O590 1.267 . S
O589 C588 1.228 . S
O590 Zn577 1.969 . S
O590 C588 1.267 . S
O591 Zn577 1.965 . S
O591 C595 1.260 . S
O592 Zn576 1.969 . S
O592 C595 1.258 . S
O593 Zn577 2.024 . S
O593 C580 1.058 . S
C594 O583 1.260 . S
C594 O584 1.258 . S
C595 O591 1.260 . S
C595 O592 1.258 . S
Zn596 O602 1.969 . S
Zn596 O603 1.965 . S
Zn596 O607 2.024 . S
Zn596 O612 1.969 . S
Zn597 O604 1.969 . S
Zn597 O610 1.969 . S
Zn597 O611 1.965 . S
Zn597 O613 2.024 . S
C598 O599 1.229 . S
C598 O607 1.058 . S
O599 C598 1.229 . S
C600 O601 1.229 . S
C600 O613 1.058 . S
O601 C600 1.229 . S
O602 Zn596 1.969 . S
O602 C605 1.267 . S
O603 Zn596 1.965 . S
O603 C614 1.260 . S
O604 Zn597 1.969 . S
O604 C614 1.258 . S
C605 O602 1.267 . S
C605 O606 1.228 . S
O606 C605 1.228 . S
O607 Zn596 2.024 . S
O607 C598 1.058 . S
C608 O609 1.228 . S
C608 O610 1.267 . S
O609 C608 1.228 . S
O610 Zn597 1.969 . S
O610 C608 1.267 . S
O611 Zn597 1.965 . S
O611 C615 1.260 . S
O612 Zn596 1.969 . S
O612 C615 1.258 . S
O613 Zn597 2.024 . S
O613 C600 1.058 . S
C614 O603 1.260 . S
C614 O604 1.258 . S
C615 O611 1.260 . S
C615 O612 1.258 . S
Zn616 O622 1.969 . S
Zn616 O623 1.965 . S
Zn616 O627 2.024 . S
Zn616 O632 1.969 . S
Zn617 O624 1.969 . S
Zn617 O630 1.969 . S
Zn617 O631 1.965 . S
Zn617 O633 2.024 . S
C618 O619 1.229 . S
C618 O627 1.058 . S
O619 C618 1.229 . S
C620 O621 1.229 . S
C620 O633 1.058 . S
O621 C620 1.229 . S
O622 Zn616 1.969 . S
O622 C625 1.267 . S
O623 Zn616 1.965 . S
O623 C634 1.260 . S
O624 Zn617 1.969 . S
O624 C634 1.258 . S
C625 O622 1.267 . S
C625 O626 1.228 . S
O626 C625 1.228 . S
O627 Zn616 2.024 . S
O627 C618 1.058 . S
C628 O629 1.228 . S
C628 O630 1.267 . S
O629 C628 1.228 . S
O630 Zn617 1.969 . S
O630 C628 1.267 . S
O631 Zn617 1.965 . S
O631 C635 1.260 . S
O632 Zn616 1.969 . S
O632 C635 1.258 . S
O633 Zn617 2.024 . S
O633 C620 1.058 . S
C634 O623 1.260 . S
C634 O624 1.258 . S
C635 O631 1.260 . S
C635 O632 1.258 . S
Zn636 O642 1.969 . S
Zn636 O643 1.965 . S
Zn636 O647 2.024 1_655 S
Zn636 O652 1.969 1_655 S
Zn637 O644 1.969 1_554 S
Zn637 O650 1.969 . S
Zn637 O651 1.965 . S
Zn637 O653 2.024 . S
C638 O639 1.229 . S
C638 O647 1.058 . S
O639 C638 1.229 . S
C640 O641 1.229 . S
C640 O653 1.058 1_556 S
O641 C640 1.229 . S
O642 Zn636 1.969 . S
O642 C645 1.267 . S
O643 Zn636 1.965 . S
O643 C654 1.260 1_654 S
O644 Zn637 1.969 1_556 S
O644 C654 1.258 . S
C645 O642 1.267 . S
C645 O646 1.228 . S
O646 C645 1.228 . S
O647 Zn636 2.024 1_455 S
O647 C638 1.058 . S
C648 O649 1.228 . S
C648 O650 1.267 . S
O649 C648 1.228 . S
O650 Zn637 1.969 . S
O650 C648 1.267 . S
O651 Zn637 1.965 . S
O651 C655 1.260 . S
O652 Zn636 1.969 1_455 S
O652 C655 1.258 . S
O653 Zn637 2.024 . S
O653 C640 1.058 1_554 S
C654 O643 1.260 1_456 S
C654 O644 1.258 . S
C655 O651 1.260 . S
C655 O652 1.258 . S
C656 C657 1.387 . S
C656 H660 0.950 . S
C656 C665 1.390 1_556 S
C657 C656 1.387 . S
C657 C659 1.387 1_455 S
H658 C665 0.950 . S
C659 C657 1.387 1_655 S
C659 C661 1.390 1_655 S
C659 H663 0.950 . S
H660 C656 0.950 . S
C661 C659 1.390 1_455 S
C661 C662 1.387 1_556 S
C661 H664 0.950 . S
C662 C661 1.387 1_554 S
C662 C665 1.387 . S
H663 C659 0.950 . S
H664 C661 0.950 . S
C665 C656 1.390 1_554 S
C665 H658 0.950 . S
C665 C662 1.387 . S
C666 C667 1.387 . S
C666 H670 0.950 . S
C666 C675 1.390 . S
C667 C666 1.387 . S
C667 C669 1.387 . S
H668 C675 0.950 . S
C669 C667 1.387 . S
C669 C671 1.390 . S
C669 H673 0.950 . S
H670 C666 0.950 . S
C671 C669 1.390 . S
C671 C672 1.387 . S
C671 H674 0.950 . S
C672 C671 1.387 . S
C672 C675 1.387 . S
H673 C669 0.950 . S
H674 C671 0.950 . S
C675 C666 1.390 . S
C675 H668 0.950 . S
C675 C672 1.387 . S
C676 C677 1.387 . S
C676 H680 0.950 . S
C676 C685 1.390 . S
C677 C676 1.387 . S
C677 C679 1.387 . S
H678 C685 0.950 . S
C679 C677 1.387 . S
C679 C681 1.390 . S
C679 H683 0.950 . S
H680 C676 0.950 . S
C681 C679 1.390 . S
C681 C682 1.387 . S
C681 H684 0.950 . S
C682 C681 1.387 . S
C682 C685 1.387 . S
H683 C679 0.950 . S
H684 C681 0.950 . S
C685 C676 1.390 . S
C685 H678 0.950 . S
C685 C682 1.387 . S
C686 C687 1.387 . S
C686 H690 0.950 . S
C686 C695 1.390 . S
C687 C686 1.387 . S
C687 C689 1.387 . S
H688 C695 0.950 . S
C689 C687 1.387 . S
C689 C691 1.390 . S
C689 H693 0.950 . S
H690 C686 0.950 . S
C691 C689 1.390 . S
C691 C692 1.387 . S
C691 H694 0.950 . S
C692 C691 1.387 . S
C692 C695 1.387 . S
H693 C689 0.950 . S
H694 C691 0.950 . S
C695 C686 1.390 . S
C695 H688 0.950 . S
C695 C692 1.387 . S
C696 C697 1.387 . S
C696 H700 0.950 1_455 S
C696 C705 1.390 . S
C697 C696 1.387 . S
C697 C699 1.387 . S
H698 C705 0.950 1_655 S
C699 C697 1.387 . S
C699 C701 1.390 . S
C699 H703 0.950 . S
H700 C696 0.950 1_655 S
C701 C699 1.390 . S
C701 C702 1.387 . S
C701 H704 0.950 . S
C702 C701 1.387 . S
C702 C705 1.387 . S
H703 C699 0.950 . S
H704 C701 0.950 . S
C705 C696 1.390 . S
C705 H698 0.950 1_455 S
C705 C702 1.387 . S
C706 C707 1.387 . S
C706 H710 0.950 . S
C706 C715 1.390 . S
C707 C706 1.387 . S
C707 C709 1.387 . S
H708 C715 0.950 . S
C709 C707 1.387 . S
C709 C711 1.390 . S
C709 H713 0.950 . S
H710 C706 0.950 . S
C711 C709 1.390 . S
C711 C712 1.387 . S
C711 H714 0.950 . S
C712 C711 1.387 . S
C712 C715 1.387 . S
H713 C709 0.950 . S
H714 C711 0.950 . S
C715 C706 1.390 . S
C715 H708 0.950 . S
C715 C712 1.387 . S
C716 C717 1.387 . S
C716 H720 0.950 . S
C716 C725 1.390 . S
C717 C716 1.387 . S
C717 C719 1.387 . S
H718 C725 0.950 . S
C719 C717 1.387 . S
C719 C721 1.390 . S
C719 H723 0.950 . S
H720 C716 0.950 . S
C721 C719 1.390 . S
C721 C722 1.387 . S
C721 H724 0.950 . S
C722 C721 1.387 . S
C722 C725 1.387 . S
H723 C719 0.950 . S
H724 C721 0.950 . S
C725 C716 1.390 . S
C725 H718 0.950 . S
C725 C722 1.387 . S
C726 C727 1.387 . S
C726 H730 0.950 . S
C726 C735 1.390 . S
C727 C726 1.387 . S
C727 C729 1.387 . S
H728 C735 0.950 . S
C729 C727 1.387 . S
C729 C731 1.390 . S
C729 H733 0.950 . S
H730 C726 0.950 . S
C731 C729 1.390 . S
C731 C732 1.387 . S
C731 H734 0.950 . S
C732 C731 1.387 . S
C732 C735 1.387 . S
H733 C729 0.950 . S
H734 C731 0.950 . S
C735 C726 1.390 . S
C735 H728 0.950 . S
C735 C732 1.387 . S
C736 C737 1.387 1_565 S
C736 H740 0.950 . S
C736 C745 1.390 . S
C737 C736 1.387 1_545 S
C737 C739 1.387 . S
H738 C745 0.950 . S
C739 C737 1.387 . S
C739 C741 1.390 . S
C739 H743 0.950 . S
H740 C736 0.950 . S
C741 C739 1.390 . S
C741 C742 1.387 . S
C741 H744 0.950 . S
C742 C741 1.387 . S
C742 C745 1.387 1_545 S
H743 C739 0.950 . S
H744 C741 0.950 . S
C745 C736 1.390 . S
C745 H738 0.950 . S
C745 C742 1.387 1_565 S
C746 C747 1.387 . S
C746 H750 0.950 . S
C746 C755 1.390 . S
C747 C746 1.387 . S
C747 C749 1.387 . S
H748 C755 0.950 . S
C749 C747 1.387 . S
C749 C751 1.390 . S
C749 H753 0.950 . S
H750 C746 0.950 . S
C751 C749 1.390 . S
C751 C752 1.387 . S
C751 H754 0.950 . S
C752 C751 1.387 . S
C752 C755 1.387 . S
H753 C749 0.950 . S
H754 C751 0.950 . S
C755 C746 1.390 . S
C755 H748 0.950 . S
C755 C752 1.387 . S
C756 C757 1.387 . S
C756 H760 0.950 . S
C756 C765 1.390 . S
C757 C756 1.387 . S
C757 C759 1.387 1_565 S
H758 C765 0.950 . S
C759 C757 1.387 1_545 S
C759 C761 1.390 . S
C759 H763 0.950 . S
H760 C756 0.950 . S
C761 C759 1.390 . S
C761 C762 1.387 1_545 S
C761 H764 0.950 . S
C762 C761 1.387 1_565 S
C762 C765 1.387 . S
H763 C759 0.950 . S
H764 C761 0.950 . S
C765 C756 1.390 . S
C765 H758 0.950 . S
C765 C762 1.387 . S
C766 C767 1.387 . S
C766 H770 0.950 . S
C766 C775 1.390 . S
C767 C766 1.387 . S
C767 C769 1.387 . S
H768 C775 0.950 . S
C769 C767 1.387 . S
C769 C771 1.390 . S
C769 H773 0.950 . S
H770 C766 0.950 . S
C771 C769 1.390 . S
C771 C772 1.387 . S
C771 H774 0.950 . S
C772 C771 1.387 . S
C772 C775 1.387 . S
H773 C769 0.950 . S
H774 C771 0.950 . S
C775 C766 1.390 . S
C775 H768 0.950 . S
C775 C772 1.387 . S
C776 C777 1.387 . S
C776 H780 0.950 . S
C776 C785 1.390 . S
C777 C776 1.387 . S
C777 C779 1.387 1_545 S
H778 C785 0.950 . S
C779 C777 1.387 1_565 S
C779 C781 1.390 . S
C779 H783 0.950 . S
H780 C776 0.950 . S
C781 C779 1.390 . S
C781 C782 1.387 1_565 S
C781 H784 0.950 . S
C782 C781 1.387 1_545 S
C782 C785 1.387 . S
H783 C779 0.950 . S
H784 C781 0.950 . S
C785 C776 1.390 . S
C785 H778 0.950 . S
C785 C782 1.387 . S
C786 C787 1.387 . S
C786 H790 0.950 . S
C786 C795 1.390 . S
C787 C786 1.387 . S
C787 C789 1.387 . S
H788 C795 0.950 . S
C789 C787 1.387 . S
C789 C791 1.390 . S
C789 H793 0.950 . S
H790 C786 0.950 . S
C791 C789 1.390 . S
C791 C792 1.387 . S
C791 H794 0.950 . S
C792 C791 1.387 . S
C792 C795 1.387 . S
H793 C789 0.950 . S
H794 C791 0.950 . S
C795 C786 1.390 . S
C795 H788 0.950 . S
C795 C792 1.387 . S
C796 C797 1.387 1_565 S
C796 H800 0.950 . S
C796 C805 1.390 1_565 S
C797 C796 1.387 1_545 S
C797 C799 1.387 . S
H798 C805 0.950 1_565 S
C799 C797 1.387 . S
C799 C801 1.390 . S
C799 H803 0.950 . S
H800 C796 0.950 . S
C801 C799 1.390 . S
C801 C802 1.387 . S
C801 H804 0.950 . S
C802 C801 1.387 . S
C802 C805 1.387 . S
H803 C799 0.950 . S
H804 C801 0.950 . S
C805 C796 1.390 1_545 S
C805 H798 0.950 1_545 S
C805 C802 1.387 . S
C806 C807 1.387 . S
C806 H810 0.950 . S
C806 C815 1.390 . S
C807 C806 1.387 . S
C807 C809 1.387 . S
H808 C815 0.950 . S
C809 C807 1.387 . S
C809 C811 1.390 . S
C809 H813 0.950 . S
H810 C806 0.950 . S
C811 C809 1.390 . S
C811 C812 1.387 . S
C811 H814 0.950 . S
C812 C811 1.387 . S
C812 C815 1.387 . S
H813 C809 0.950 . S
H814 C811 0.950 . S
C815 C806 1.390 . S
C815 H808 0.950 . S
C815 C812 1.387 . S
C816 C817 1.387 . S
C816 H820 0.950 . S
C816 C825 1.390 . S
C817 C816 1.387 . S
C817 C819 1.387 . S
H818 C825 0.950 . S
C819 C817 1.387 . S
C819 C821 1.390 . S
C819 H823 0.962 . S
H820 C816 0.950 . S
C821 C819 1.390 . S
C821 C822 1.387 . S
C821 H824 0.950 1_565 S
C822 C821 1.387 . S
C822 C825 1.387 . S
H823 C819 0.962 . S
H824 C821 0.950 1_545 S
C825 C816 1.390 . S
C825 H818 0.950 . S
C825 C822 1.387 . S
C826 C827 1.387 1_554 S
C826 H830 0.950 . S
C826 C835 1.390 . S
C827 C826 1.387 1_556 S
C827 C829 1.387 . S
H828 C835 0.950 . S
C829 C827 1.387 . S
C829 C831 1.390 . S
C829 H833 0.950 . S
H830 C826 0.950 . S
C831 C829 1.390 . S
C831 C832 1.387 1_556 S
C831 H834 0.950 . S
C832 C831 1.387 1_554 S
C832 C835 1.387 . S
H833 C829 0.950 . S
H834 C831 0.950 . S
C835 C826 1.390 . S
C835 H828 0.950 . S
C835 C832 1.387 . S
C836 C837 1.387 . S
C836 H840 0.950 . S
C836 C845 1.390 . S
C837 C836 1.387 . S
C837 C839 1.387 . S
H838 C845 0.950 . S
C839 C837 1.387 . S
C839 C841 1.390 . S
C839 H843 0.950 . S
H840 C836 0.950 . S
C841 C839 1.390 . S
C841 C842 1.387 . S
C841 H844 0.950 . S
C842 C841 1.387 . S
C842 C845 1.387 . S
H843 C839 0.950 . S
H844 C841 0.950 . S
C845 C836 1.390 . S
C845 H838 0.950 . S
C845 C842 1.387 . S
C846 C847 1.387 . S
C846 H850 0.950 . S
C846 C855 1.390 . S
C847 C846 1.387 . S
C847 C849 1.387 . S
H848 C855 0.950 . S
C849 C847 1.387 . S
C849 C851 1.390 . S
C849 H853 0.950 . S
H850 C846 0.950 . S
C851 C849 1.390 . S
C851 C852 1.387 . S
C851 H854 0.950 . S
C852 C851 1.387 . S
C852 C855 1.387 . S
H853 C849 0.950 . S
H854 C851 0.950 . S
C855 C846 1.390 . S
C855 H848 0.950 . S
C855 C852 1.387 . S
C856 C857 1.387 . S
C856 H860 0.950 . S
C856 C865 1.390 . S
C857 C856 1.387 . S
C857 C859 1.387 . S
H858 C865 0.950 . S
C859 C857 1.387 . S
C859 C861 1.390 . S
C859 H863 0.950 . S
H860 C856 0.950 . S
C861 C859 1.390 . S
C861 C862 1.387 . S
C861 H864 0.950 . S
C862 C861 1.387 . S
C862 C865 1.387 . S
H863 C859 0.950 . S
H864 C861 0.950 . S
C865 C856 1.390 . S
C865 H858 0.950 . S
C865 C862 1.387 . S
C866 C867 1.387 . S
C866 H870 0.950 . S
C866 C875 1.390 . S
C867 C866 1.387 . S
C867 C869 1.387 . S
H868 C875 0.950 . S
C869 C867 1.387 . S
C869 C871 1.390 . S
C869 H873 0.950 . S
H870 C866 0.950 . S
C871 C869 1.390 . S
C871 C872 1.387 . S
C871 H874 0.950 . S
C872 C871 1.387 . S
C872 C875 1.387 . S
H873 C869 0.950 . S
H874 C871 0.950 . S
C875 C866 1.390 . S
C875 H868 0.950 . S
C875 C872 1.387 . S
C876 C877 1.387 . S
C876 H880 0.950 . S
C876 C885 1.390 . S
C877 C876 1.387 . S
C877 C879 1.387 . S
H878 C885 0.950 . S
C879 C877 1.387 . S
C879 C881 1.390 . S
C879 H883 0.950 . S
H880 C876 0.950 . S
C881 C879 1.390 . S
C881 C882 1.387 . S
C881 H884 0.950 . S
C882 C881 1.387 . S
C882 C885 1.387 . S
H883 C879 0.950 . S
H884 C881 0.950 . S
C885 C876 1.390 . S
C885 H878 0.950 . S
C885 C882 1.387 . S
C886 C887 1.387 . S
C886 H890 0.950 . S
C886 C895 1.390 . S
C887 C886 1.387 . S
C887 C889 1.387 . S
H888 C895 0.950 . S
C889 C887 1.387 . S
C889 C891 1.390 . S
C889 H893 0.950 . S
H890 C886 0.950 . S
C891 C889 1.390 . S
C891 C892 1.387 . S
C891 H894 0.950 . S
C892 C891 1.387 . S
C892 C895 1.387 . S
H893 C889 0.950 . S
H894 C891 0.950 . S
C895 C886 1.390 . S
C895 H888 0.950 . S
C895 C892 1.387 . S
C896 C897 1.387 . S
C896 H900 0.950 . S
C896 C905 1.390 . S
C897 C896 1.387 . S
C897 C899 1.387 . S
H898 C905 0.950 . S
C899 C897 1.387 . S
C899 C901 1.390 . S
C899 H903 0.950 . S
H900 C896 0.950 . S
C901 C899 1.390 . S
C901 C902 1.387 . S
C901 H904 0.950 1_455 S
C902 C901 1.387 . S
C902 C905 1.387 . S
H903 C899 0.950 . S
H904 C901 0.950 1_655 S
C905 C896 1.390 . S
C905 H898 0.950 . S
C905 C902 1.387 . S
C906 C907 1.387 . S
C906 H910 0.950 . S
C906 C915 1.390 . S
C907 C906 1.387 . S
C907 C909 1.387 . S
H908 C915 0.950 . S
C909 C907 1.387 . S
C909 C911 1.390 . S
C909 H913 0.950 . S
H910 C906 0.950 . S
C911 C909 1.390 . S
C911 C912 1.387 . S
C911 H914 0.950 . S
C912 C911 1.387 . S
C912 C915 1.387 . S
H913 C909 0.950 . S
H914 C911 0.950 . S
C915 C906 1.390 . S
C915 H908 0.950 . S
C915 C912 1.387 . S
C916 C917 1.387 . S
C916 H920 0.950 . S
C916 C925 1.390 . S
C917 C916 1.387 . S
C917 C919 1.387 . S
H918 C925 0.950 . S
C919 C917 1.387 . S
C919 C921 1.390 . S
C919 H923 0.950 . S
H920 C916 0.950 . S
C921 C919 1.390 . S
C921 C922 1.387 . S
C921 H924 0.950 . S
C922 C921 1.387 . S
C922 C925 1.387 . S
H923 C919 0.950 . S
H924 C921 0.950 . S
C925 C916 1.390 . S
C925 H918 0.950 . S
C925 C922 1.387 . S
C926 C927 1.387 . S
C926 H930 0.950 . S
C926 C935 1.390 . S
C927 C926 1.387 . S
C927 C929 1.387 . S
H928 C935 0.950 . S
C929 C927 1.387 . S
C929 C931 1.390 . S
C929 H933 0.950 . S
H930 C926 0.950 . S
C931 C929 1.390 . S
C931 C932 1.387 . S
C931 H934 0.950 . S
C932 C931 1.387 . S
C932 C935 1.387 . S
H933 C929 0.950 . S
H934 C931 0.950 . S
C935 C926 1.390 . S
C935 H928 0.950 . S
C935 C932 1.387 . S
C936 C937 1.387 . S
C936 H940 0.950 1_455 S
C936 C945 1.390 . S
C937 C936 1.387 . S
C937 C939 1.387 . S
H938 C945 0.938 1_655 S
C939 C937 1.387 . S
C939 C941 1.390 . S
C939 H943 0.950 . S
H940 C936 0.950 1_655 S
C941 C939 1.390 . S
C941 C942 1.387 . S
C941 H944 0.950 . S
C942 C941 1.387 . S
C942 C945 1.400 . S
H943 C939 0.950 . S
H944 C941 0.950 . S
C945 C936 1.390 . S
C945 H938 0.938 1_455 S
C945 C942 1.400 . S
C946 C947 1.387 . S
C946 H950 0.950 . S
C946 C955 1.390 . S
C947 C946 1.387 . S
C947 C949 1.387 . S
H948 C955 0.950 . S
C949 C947 1.387 . S
C949 C951 1.390 . S
C949 H953 0.950 . S
H950 C946 0.950 . S
C951 C949 1.390 . S
C951 C952 1.387 . S
C951 H954 0.950 . S
C952 C951 1.387 . S
C952 C955 1.387 . S
H953 C949 0.950 . S
H954 C951 0.950 . S
C955 C946 1.390 . S
C955 H948 0.950 . S
C955 C952 1.387 . S
C956 C957 1.387 . S
C956 H960 0.950 . S
C956 C965 1.390 1_556 S
C957 C956 1.387 . S
C957 C959 1.387 . S
H958 C965 0.950 . S
C959 C957 1.387 . S
C959 C961 1.390 . S
C959 H963 0.950 . S
H960 C956 0.950 . S
C961 C959 1.390 . S
C961 C962 1.387 . S
C961 H964 0.950 . S
C962 C961 1.387 . S
C962 C965 1.387 1_556 S
H963 C959 0.950 . S
H964 C961 0.950 . S
C965 C956 1.390 1_554 S
C965 H958 0.950 . S
C965 C962 1.387 1_554 S
C966 C967 1.387 . S
C966 H970 0.950 . S
C966 C975 1.390 . S
C967 C966 1.387 . S
C967 C969 1.387 . S
H968 C975 0.950 . S
C969 C967 1.387 . S
C969 C971 1.390 . S
C969 H973 0.950 . S
H970 C966 0.950 . S
C971 C969 1.390 . S
C971 C972 1.387 . S
C971 H974 0.950 . S
C972 C971 1.387 . S
C972 C975 1.387 . S
H973 C969 0.950 . S
H974 C971 0.950 . S
C975 C966 1.390 . S
C975 H968 0.950 . S
C975 C972 1.387 . S
C976 C977 1.387 1_565 S
C976 H980 0.950 . S
C976 C985 1.390 . S
C977 C976 1.387 1_545 S
C977 C979 1.387 . S
H978 C985 0.950 . S
C979 C977 1.387 . S
C979 C981 1.390 . S
C979 H983 0.950 . S
H980 C976 0.950 . S
C981 C979 1.390 . S
C981 C982 1.387 . S
C981 H984 0.950 . S
C982 C981 1.387 . S
C982 C985 1.387 1_545 S
H983 C979 0.950 . S
H984 C981 0.950 . S
C985 C976 1.390 . S
C985 H978 0.950 . S
C985 C982 1.387 1_565 S
C986 C987 1.387 . S
C986 H990 0.950 . S
C986 C995 1.390 . S
C987 C986 1.387 . S
C987 C989 1.387 . S
H988 C995 0.950 . S
C989 C987 1.387 . S
C989 C991 1.390 . S
C989 H993 0.950 . S
H990 C986 0.950 . S
C991 C989 1.390 . S
C991 C992 1.387 . S
C991 H994 0.950 . S
C992 C991 1.387 . S
C992 C995 1.387 . S
H993 C989 0.950 . S
H994 C991 0.950 . S
C995 C986 1.390 . S
C995 H988 0.950 . S
C995 C992 1.387 . S
C996 C997 1.387 . S
C996 H1000 0.950 . S
C996 C1005 1.390 . S
C997 C996 1.387 . S
C997 C999 1.387 1_545 S
H998 C1005 0.950 . S
C999 C997 1.387 1_565 S
C999 C1001 1.390 . S
C999 H1003 0.950 . S
H1000 C996 0.950 . S
C1001 C999 1.390 . S
C1001 C1002 1.387 1_565 S
C1001 H1004 0.950 . S
C1002 C1001 1.387 1_545 S
C1002 C1005 1.387 . S
H1003 C999 0.950 . S
H1004 C1001 0.950 . S
C1005 C996 1.390 . S
C1005 H998 0.950 . S
C1005 C1002 1.387 . S
C1006 C1007 1.387 . S
C1006 H1010 0.950 . S
C1006 C1015 1.390 . S
C1007 C1006 1.387 . S
C1007 C1009 1.387 . S
H1008 C1015 0.950 . S
C1009 C1007 1.387 . S
C1009 C1011 1.390 . S
C1009 H1013 0.950 . S
H1010 C1006 0.950 . S
C1011 C1009 1.390 . S
C1011 C1012 1.387 . S
C1011 H1014 0.950 . S
C1012 C1011 1.387 . S
C1012 C1015 1.387 . S
H1013 C1009 0.950 . S
H1014 C1011 0.950 . S
C1015 C1006 1.390 . S
C1015 H1008 0.950 . S
C1015 C1012 1.387 . S
C1016 C1017 1.387 1_565 S
C1016 H1020 0.950 . S
C1016 C1025 1.390 . S
C1017 C1016 1.387 1_545 S
C1017 C1019 1.387 . S
H1018 C1025 0.950 . S
C1019 C1017 1.387 . S
C1019 C1021 1.390 . S
C1019 H1023 0.950 . S
H1020 C1016 0.950 . S
C1021 C1019 1.390 . S
C1021 C1022 1.387 . S
C1021 H1024 0.950 . S
C1022 C1021 1.387 . S
C1022 C1025 1.387 1_545 S
H1023 C1019 0.950 . S
H1024 C1021 0.950 . S
C1025 C1016 1.390 . S
C1025 H1018 0.950 . S
C1025 C1022 1.387 1_565 S
C1026 C1027 1.387 . S
C1026 H1030 0.950 . S
C1026 C1035 1.390 . S
C1027 C1026 1.387 . S
C1027 C1029 1.387 . S
H1028 C1035 0.950 . S
C1029 C1027 1.387 . S
C1029 C1031 1.390 . S
C1029 H1033 0.950 . S
H1030 C1026 0.950 . S
C1031 C1029 1.390 . S
C1031 C1032 1.387 . S
C1031 H1034 0.950 . S
C1032 C1031 1.387 . S
C1032 C1035 1.387 . S
H1033 C1029 0.950 . S
H1034 C1031 0.950 . S
C1035 C1026 1.390 . S
C1035 H1028 0.950 . S
C1035 C1032 1.387 . S
C1036 C1037 1.387 1_565 S
C1036 H1040 0.950 . S
C1036 C1045 1.390 . S
C1037 C1036 1.387 1_545 S
C1037 C1039 1.387 . S
H1038 C1045 0.950 . S
C1039 C1037 1.387 . S
C1039 C1041 1.390 . S
C1039 H1043 0.950 . S
H1040 C1036 0.950 . S
C1041 C1039 1.390 . S
C1041 C1042 1.387 . S
C1041 H1044 0.950 . S
C1042 C1041 1.387 . S
C1042 C1045 1.387 1_545 S
H1043 C1039 0.950 . S
H1044 C1041 0.950 . S
C1045 C1036 1.390 . S
C1045 H1038 0.950 . S
C1045 C1042 1.387 1_565 S
C1046 C1047 1.387 . S
C1046 H1050 0.950 . S
C1046 C1055 1.390 . S
C1047 C1046 1.387 . S
C1047 C1049 1.387 . S
H1048 C1055 0.950 . S
C1049 C1047 1.387 . S
C1049 C1051 1.390 . S
C1049 H1053 0.950 . S
H1050 C1046 0.950 . S
C1051 C1049 1.390 . S
C1051 C1052 1.387 . S
C1051 H1054 0.950 . S
C1052 C1051 1.387 . S
C1052 C1055 1.387 . S
H1053 C1049 0.950 . S
H1054 C1051 0.950 . S
C1055 C1046 1.390 . S
C1055 H1048 0.950 . S
C1055 C1052 1.387 . S
C1056 C1057 1.387 . S
C1056 H1060 0.950 1_554 S
C1056 C1065 1.390 1_554 S
C1057 C1056 1.387 . S
C1057 C1059 1.387 . S
H1058 C1065 0.950 . S
C1059 C1057 1.387 . S
C1059 C1061 1.390 . S
C1059 H1063 0.950 . S
H1060 C1056 0.950 1_556 S
C1061 C1059 1.390 . S
C1061 C1062 1.387 . S
C1061 H1064 0.950 . S
C1062 C1061 1.387 . S
C1062 C1065 1.387 1_554 S
H1063 C1059 0.950 . S
H1064 C1061 0.950 . S
C1065 C1056 1.390 1_556 S
C1065 H1058 0.950 . S
C1065 C1062 1.387 1_556 S
C1066 C1067 1.387 . S
C1066 H1070 0.950 . S
C1066 C1075 1.390 . S
C1067 C1066 1.387 . S
C1067 C1069 1.387 . S
H1068 C1075 0.950 . S
C1069 C1067 1.387 . S
C1069 C1071 1.390 . S
C1069 H1073 0.950 . S
H1070 C1066 0.950 . S
C1071 C1069 1.390 . S
C1071 C1072 1.387 . S
C1071 H1074 0.950 1_554 S
C1072 C1071 1.387 . S
C1072 C1075 1.387 . S
H1073 C1069 0.950 . S
H1074 C1071 0.950 1_556 S
C1075 C1066 1.390 . S
C1075 H1068 0.950 . S
C1075 C1072 1.387 . S
C1076 C1077 1.387 . S
C1076 H1080 0.950 . S
C1076 C1085 1.390 . S
C1077 C1076 1.387 . S
C1077 C1079 1.387 . S
H1078 C1085 0.950 . S
C1079 C1077 1.387 . S
C1079 C1081 1.390 . S
C1079 H1083 0.950 . S
H1080 C1076 0.950 . S
C1081 C1079 1.390 . S
C1081 C1082 1.387 . S
C1081 H1084 0.950 . S
C1082 C1081 1.387 . S
C1082 C1085 1.387 . S
H1083 C1079 0.950 . S
H1084 C1081 0.950 . S
C1085 C1076 1.390 . S
C1085 H1078 0.950 . S
C1085 C1082 1.387 . S
C1086 C1087 1.387 . S
C1086 H1090 0.950 . S
C1086 C1095 1.390 . S
C1087 C1086 1.387 . S
C1087 C1089 1.387 . S
H1088 C1095 0.950 . S
C1089 C1087 1.387 . S
C1089 C1091 1.390 . S
C1089 H1093 0.950 . S
H1090 C1086 0.950 . S
C1091 C1089 1.390 . S
C1091 C1092 1.387 . S
C1091 H1094 0.950 . S
C1092 C1091 1.387 . S
C1092 C1095 1.387 . S
H1093 C1089 0.950 . S
H1094 C1091 0.950 . S
C1095 C1086 1.390 . S
C1095 H1088 0.950 . S
C1095 C1092 1.387 . S
C1096 C1097 1.387 . S
C1096 H1100 0.950 . S
C1096 C1105 1.390 . S
C1097 C1096 1.387 . S
C1097 C1099 1.387 . S
H1098 C1105 0.950 . S
C1099 C1097 1.387 . S
C1099 C1101 1.390 . S
C1099 H1103 0.950 . S
H1100 C1096 0.950 . S
C1101 C1099 1.390 . S
C1101 C1102 1.387 . S
C1101 H1104 0.950 . S
C1102 C1101 1.387 . S
C1102 C1105 1.387 . S
H1103 C1099 0.950 . S
H1104 C1101 0.950 . S
C1105 C1096 1.390 . S
C1105 H1098 0.950 . S
C1105 C1102 1.387 . S
C1106 C1107 1.387 . S
C1106 H1110 0.950 . S
C1106 C1115 1.390 . S
C1107 C1106 1.387 . S
C1107 C1109 1.387 . S
H1108 C1115 0.950 1_545 S
C1109 C1107 1.387 . S
C1109 C1111 1.390 . S
C1109 H1113 0.950 . S
H1110 C1106 0.950 . S
C1111 C1109 1.390 . S
C1111 C1112 1.387 . S
C1111 H1114 0.950 . S
C1112 C1111 1.387 . S
C1112 C1115 1.387 . S
H1113 C1109 0.950 . S
H1114 C1111 0.950 . S
C1115 C1106 1.390 . S
C1115 H1108 0.950 1_565 S
C1115 C1112 1.387 . S
C1116 C1117 1.387 . S
C1116 H1120 0.950 . S
C1116 C1125 1.390 . S
C1117 C1116 1.387 . S
C1117 C1119 1.387 . S
H1118 C1125 0.950 . S
C1119 C1117 1.387 . S
C1119 C1121 1.390 . S
C1119 H1123 0.950 . S
H1120 C1116 0.950 . S
C1121 C1119 1.390 . S
C1121 C1122 1.387 . S
C1121 H1124 0.950 . S
C1122 C1121 1.387 . S
C1122 C1125 1.387 . S
H1123 C1119 0.950 . S
H1124 C1121 0.950 . S
C1125 C1116 1.390 . S
C1125 H1118 0.950 . S
C1125 C1122 1.387 . S
C1126 C1127 1.387 . S
C1126 H1130 0.950 . S
C1126 C1135 1.390 . S
C1127 C1126 1.387 . S
C1127 C1129 1.387 . S
H1128 C1135 0.950 . S
C1129 C1127 1.387 . S
C1129 C1131 1.390 . S
C1129 H1133 0.950 . S
H1130 C1126 0.950 . S
C1131 C1129 1.390 . S
C1131 C1132 1.387 . S
C1131 H1134 0.950 . S
C1132 C1131 1.387 . S
C1132 C1135 1.387 . S
H1133 C1129 0.950 . S
H1134 C1131 0.950 . S
C1135 C1126 1.390 . S
C1135 H1128 0.950 . S
C1135 C1132 1.387 . S
C1136 C1137 1.387 . S
C1136 H1140 0.950 . S
C1136 C1145 1.390 . S
C1137 C1136 1.387 . S
C1137 C1139 1.387 . S
H1138 C1145 0.950 . S
C1139 C1137 1.387 . S
C1139 C1141 1.390 . S
C1139 H1143 0.950 . S
H1140 C1136 0.950 . S
C1141 C1139 1.390 . S
C1141 C1142 1.387 . S
C1141 H1144 0.950 . S
C1142 C1141 1.387 . S
C1142 C1145 1.387 . S
H1143 C1139 0.950 . S
H1144 C1141 0.950 . S
C1145 C1136 1.390 . S
C1145 H1138 0.950 . S
C1145 C1142 1.387 . S
C1146 C1147 1.387 . S
C1146 H1150 0.950 . S
C1146 C1155 1.390 . S
C1147 C1146 1.387 . S
C1147 C1149 1.387 . S
H1148 C1155 0.950 . S
C1149 C1147 1.387 . S
C1149 C1151 1.390 . S
C1149 H1153 0.950 . S
H1150 C1146 0.950 . S
C1151 C1149 1.390 . S
C1151 C1152 1.387 . S
C1151 H1154 0.950 . S
C1152 C1151 1.387 . S
C1152 C1155 1.387 . S
H1153 C1149 0.950 . S
H1154 C1151 0.950 . S
C1155 C1146 1.390 . S
C1155 H1148 0.950 . S
C1155 C1152 1.387 . S
C1156 C1157 1.387 1_655 S
C1156 H1160 0.950 . S
C1156 C1165 1.390 . S
C1157 C1156 1.387 1_455 S
C1157 C1159 1.387 . S
H1158 C1165 0.950 . S
C1159 C1157 1.387 . S
C1159 C1161 1.390 . S
C1159 H1163 0.950 . S
H1160 C1156 0.950 . S
C1161 C1159 1.390 . S
C1161 C1162 1.387 . S
C1161 H1164 0.950 1_556 S
C1162 C1161 1.387 . S
C1162 C1165 1.387 1_455 S
H1163 C1159 0.950 . S
H1164 C1161 0.950 1_554 S
C1165 C1156 1.390 . S
C1165 H1158 0.950 . S
C1165 C1162 1.387 1_655 S
C1166 C1167 1.387 . S
C1166 H1170 0.950 . S
C1166 C1175 1.390 . S
C1167 C1166 1.387 . S
C1167 C1169 1.387 . S
H1168 C1175 0.950 . S
C1169 C1167 1.387 . S
C1169 C1171 1.390 . S
C1169 H1173 0.950 . S
H1170 C1166 0.950 . S
C1171 C1169 1.390 . S
C1171 C1172 1.387 . S
C1171 H1174 0.950 . S
C1172 C1171 1.387 . S
C1172 C1175 1.387 . S
H1173 C1169 0.950 . S
H1174 C1171 0.950 . S
C1175 C1166 1.390 . S
C1175 H1168 0.950 . S
C1175 C1172 1.387 . S
C1176 C1177 1.387 . S
C1176 H1180 0.950 . S
C1176 C1185 1.390 . S
C1177 C1176 1.387 . S
C1177 C1179 1.387 . S
H1178 C1185 0.950 . S
C1179 C1177 1.387 . S
C1179 C1181 1.390 . S
C1179 H1183 0.950 . S
H1180 C1176 0.950 . S
C1181 C1179 1.390 . S
C1181 C1182 1.387 . S
C1181 H1184 0.950 . S
C1182 C1181 1.387 . S
C1182 C1185 1.387 . S
H1183 C1179 0.950 . S
H1184 C1181 0.950 . S
C1185 C1176 1.390 . S
C1185 H1178 0.950 . S
C1185 C1182 1.387 . S
C1186 C1187 1.387 . S
C1186 H1190 0.950 . S
C1186 C1195 1.390 . S
C1187 C1186 1.387 . S
C1187 C1189 1.387 . S
H1188 C1195 0.950 . S
C1189 C1187 1.387 . S
C1189 C1191 1.390 . S
C1189 H1193 0.950 . S
H1190 C1186 0.950 . S
C1191 C1189 1.390 . S
C1191 C1192 1.387 . S
C1191 H1194 0.950 . S
C1192 C1191 1.387 . S
C1192 C1195 1.387 . S
H1193 C1189 0.950 . S
H1194 C1191 0.950 . S
C1195 C1186 1.390 . S
C1195 H1188 0.950 . S
C1195 C1192 1.387 . S
C1196 C1197 1.401 . S
C1196 H1200 0.950 . S
C1196 C1205 1.390 . S
C1197 C1196 1.401 . S
C1197 C1199 1.384 1_455 S
H1198 C1205 0.950 . S
C1199 C1197 1.384 1_655 S
C1199 C1201 1.390 . S
C1199 H1203 0.950 . S
H1200 C1196 0.950 . S
C1201 C1199 1.390 . S
C1201 C1202 1.387 1_655 S
C1201 H1204 0.950 . S
C1202 C1201 1.387 1_455 S
C1202 C1205 1.387 . S
H1203 C1199 0.950 . S
H1204 C1201 0.950 . S
C1205 C1196 1.390 . S
C1205 H1198 0.950 . S
C1205 C1202 1.387 . S
C1206 C1207 1.387 . S
C1206 H1210 0.950 . S
C1206 C1215 1.390 . S
C1207 C1206 1.387 . S
C1207 C1209 1.387 . S
H1208 C1215 0.950 . S
C1209 C1207 1.387 . S
C1209 C1211 1.390 . S
C1209 H1213 0.950 . S
H1210 C1206 0.950 . S
C1211 C1209 1.390 . S
C1211 C1212 1.387 . S
C1211 H1214 0.950 . S
C1212 C1211 1.387 . S
C1212 C1215 1.387 . S
H1213 C1209 0.950 . S
H1214 C1211 0.950 . S
C1215 C1206 1.390 . S
C1215 H1208 0.950 . S
C1215 C1212 1.387 . S
C1216 C1217 1.387 . S
C1216 H1220 0.950 . S
C1216 C1225 1.390 . S
C1217 C1216 1.387 . S
C1217 C1219 1.387 . S
H1218 C1225 0.950 . S
C1219 C1217 1.387 . S
C1219 C1221 1.390 . S
C1219 H1223 0.950 . S
H1220 C1216 0.950 . S
C1221 C1219 1.390 . S
C1221 C1222 1.387 . S
C1221 H1224 0.950 . S
C1222 C1221 1.387 . S
C1222 C1225 1.387 . S
H1223 C1219 0.950 . S
H1224 C1221 0.950 . S
C1225 C1216 1.390 . S
C1225 H1218 0.950 . S
C1225 C1222 1.387 . S
C1226 C1227 1.387 . S
C1226 H1230 0.950 . S
C1226 C1235 1.390 . S
C1227 C1226 1.387 . S
C1227 C1229 1.387 . S
H1228 C1235 0.950 . S
C1229 C1227 1.387 . S
C1229 C1231 1.390 . S
C1229 H1233 0.950 . S
H1230 C1226 0.950 . S
C1231 C1229 1.390 . S
C1231 C1232 1.387 . S
C1231 H1234 0.950 . S
C1232 C1231 1.387 . S
C1232 C1235 1.387 . S
H1233 C1229 0.950 . S
H1234 C1231 0.950 . S
C1235 C1226 1.390 . S
C1235 H1228 0.950 . S
C1235 C1232 1.387 . S
C1236 C1237 1.387 . S
C1236 H1240 0.950 . S
C1236 C1245 1.390 . S
C1237 C1236 1.387 . S
C1237 C1239 1.387 . S
H1238 C1245 0.950 . S
C1239 C1237 1.387 . S
C1239 C1241 1.390 . S
C1239 H1243 0.950 . S
H1240 C1236 0.950 . S
C1241 C1239 1.390 . S
C1241 C1242 1.387 . S
C1241 H1244 0.950 . S
C1242 C1241 1.387 . S
C1242 C1245 1.387 . S
H1243 C1239 0.950 . S
H1244 C1241 0.950 . S
C1245 C1236 1.390 . S
C1245 H1238 0.950 . S
C1245 C1242 1.387 . S
C1246 C1247 1.387 . S
C1246 H1250 0.950 . S
C1246 C1255 1.390 . S
C1247 C1246 1.387 . S
C1247 C1249 1.387 . S
H1248 C1255 0.950 . S
C1249 C1247 1.387 . S
C1249 C1251 1.390 . S
C1249 H1253 0.950 . S
H1250 C1246 0.950 . S
C1251 C1249 1.390 . S
C1251 C1252 1.387 . S
C1251 H1254 0.950 . S
C1252 C1251 1.387 . S
C1252 C1255 1.387 . S
H1253 C1249 0.950 . S
H1254 C1251 0.950 . S
C1255 C1246 1.390 . S
C1255 H1248 0.950 . S
C1255 C1252 1.387 . S
C1256 C1257 1.387 . S
C1256 H1260 0.950 . S
C1256 C1265 1.390 . S
C1257 C1256 1.387 . S
C1257 C1259 1.387 . S
H1258 C1265 0.950 . S
C1259 C1257 1.387 . S
C1259 C1261 1.390 . S
C1259 H1263 0.950 . S
H1260 C1256 0.950 . S
C1261 C1259 1.390 . S
C1261 C1262 1.387 . S
C1261 H1264 0.950 . S
C1262 C1261 1.387 . S
C1262 C1265 1.387 . S
H1263 C1259 0.950 . S
H1264 C1261 0.950 . S
C1265 C1256 1.390 . S
C1265 H1258 0.950 . S
C1265 C1262 1.387 . S
C1266 C1267 1.387 . S
C1266 H1270 0.950 . S
C1266 C1275 1.390 . S
C1267 C1266 1.387 . S
C1267 C1269 1.387 . S
H1268 C1275 0.950 . S
C1269 C1267 1.387 . S
C1269 C1271 1.390 . S
C1269 H1273 0.950 . S
H1270 C1266 0.950 . S
C1271 C1269 1.390 . S
C1271 C1272 1.387 . S
C1271 H1274 0.950 . S
C1272 C1271 1.387 . S
C1272 C1275 1.387 . S
H1273 C1269 0.950 . S
H1274 C1271 0.950 . S
C1275 C1266 1.390 . S
C1275 H1268 0.950 . S
C1275 C1272 1.387 . S
C1276 C1277 1.387 . S
C1276 H1280 0.950 . S
C1276 C1285 1.390 . S
C1277 C1276 1.387 . S
C1277 C1279 1.387 . S
H1278 C1285 0.950 . S
C1279 C1277 1.387 . S
C1279 C1281 1.390 . S
C1279 H1283 0.950 . S
H1280 C1276 0.950 . S
C1281 C1279 1.390 . S
C1281 C1282 1.387 . S
C1281 H1284 0.950 . S
C1282 C1281 1.387 . S
C1282 C1285 1.387 . S
H1283 C1279 0.950 . S
H1284 C1281 0.950 . S
C1285 C1276 1.390 . S
C1285 H1278 0.950 . S
C1285 C1282 1.387 . S
C1286 C1287 1.387 . S
C1286 H1290 0.950 . S
C1286 C1295 1.390 . S
C1287 C1286 1.387 . S
C1287 C1289 1.387 . S
H1288 C1295 0.950 . S
C1289 C1287 1.387 . S
C1289 C1291 1.390 . S
C1289 H1293 0.950 . S
H1290 C1286 0.950 . S
C1291 C1289 1.390 . S
C1291 C1292 1.387 . S
C1291 H1294 0.950 . S
C1292 C1291 1.387 . S
C1292 C1295 1.387 . S
H1293 C1289 0.950 . S
H1294 C1291 0.950 . S
C1295 C1286 1.390 . S
C1295 H1288 0.950 . S
C1295 C1292 1.387 . S
C1296 C1297 1.387 . S
C1296 H1300 0.950 . S
C1296 C1305 1.390 . S
C1297 C1296 1.387 . S
C1297 C1299 1.387 . S
H1298 C1305 0.950 . S
C1299 C1297 1.387 . S
C1299 C1301 1.390 . S
C1299 H1303 0.950 . S
H1300 C1296 0.950 . S
C1301 C1299 1.390 . S
C1301 C1302 1.387 . S
C1301 H1304 0.950 . S
C1302 C1301 1.387 . S
C1302 C1305 1.387 . S
H1303 C1299 0.950 . S
H1304 C1301 0.950 . S
C1305 C1296 1.390 . S
C1305 H1298 0.950 . S
C1305 C1302 1.387 . S
C1306 C1307 1.387 . S
C1306 H1310 0.950 . S
C1306 C1315 1.390 . S
C1307 C1306 1.387 . S
C1307 C1309 1.387 . S
H1308 C1315 0.950 . S
C1309 C1307 1.387 . S
C1309 C1311 1.390 . S
C1309 H1313 0.950 . S
H1310 C1306 0.950 . S
C1311 C1309 1.390 . S
C1311 C1312 1.387 . S
C1311 H1314 0.950 . S
C1312 C1311 1.387 . S
C1312 C1315 1.387 . S
H1313 C1309 0.950 . S
H1314 C1311 0.950 . S
C1315 C1306 1.390 . S
C1315 H1308 0.950 . S
C1315 C1312 1.387 . S
C1316 C1317 1.387 . S
C1316 H1320 0.950 . S
C1316 C1325 1.390 . S
C1317 C1316 1.387 . S
C1317 C1319 1.387 . S
H1318 C1325 0.950 . S
C1319 C1317 1.387 . S
C1319 C1321 1.390 . S
C1319 H1323 0.950 . S
H1320 C1316 0.950 . S
C1321 C1319 1.390 . S
C1321 C1322 1.387 . S
C1321 H1324 0.950 . S
C1322 C1321 1.387 . S
C1322 C1325 1.387 . S
H1323 C1319 0.950 . S
H1324 C1321 0.950 . S
C1325 C1316 1.390 . S
C1325 H1318 0.950 . S
C1325 C1322 1.387 . S
C1326 C1327 1.387 1_556 S
C1326 H1330 0.950 . S
C1326 C1335 1.390 . S
C1327 C1326 1.387 1_554 S
C1327 C1329 1.387 . S
H1328 C1335 0.950 . S
C1329 C1327 1.387 . S
C1329 C1331 1.390 . S
C1329 H1333 0.950 . S
H1330 C1326 0.950 . S
C1331 C1329 1.390 . S
C1331 C1332 1.387 . S
C1331 H1334 0.950 . S
C1332 C1331 1.387 . S
C1332 C1335 1.387 1_554 S
H1333 C1329 0.950 . S
H1334 C1331 0.950 . S
C1335 C1326 1.390 . S
C1335 H1328 0.950 . S
C1335 C1332 1.387 1_556 S
C1336 C1337 1.387 . S
C1336 H1340 0.950 . S
C1336 C1345 1.390 . S
C1337 C1336 1.387 . S
C1337 C1339 1.387 . S
H1338 C1345 0.950 . S
C1339 C1337 1.387 . S
C1339 C1341 1.390 . S
C1339 H1343 0.950 . S
H1340 C1336 0.950 . S
C1341 C1339 1.390 . S
C1341 C1342 1.387 . S
C1341 H1344 0.950 . S
C1342 C1341 1.387 . S
C1342 C1345 1.387 . S
H1343 C1339 0.950 . S
H1344 C1341 0.950 . S
C1345 C1336 1.390 . S
C1345 H1338 0.950 . S
C1345 C1342 1.387 . S
C1346 C1347 1.387 . S
C1346 H1350 0.950 . S
C1346 C1355 1.390 . S
C1347 C1346 1.387 . S
C1347 C1349 1.387 1_554 S
H1348 C1355 0.950 . S
C1349 C1347 1.387 1_556 S
C1349 C1351 1.382 1_556 S
C1349 H1353 0.950 . S
H1350 C1346 0.950 . S
C1351 C1349 1.382 1_554 S
C1351 C1352 1.411 . S
C1351 H1354 0.935 1_554 S
C1352 C1351 1.411 . S
C1352 C1355 1.387 . S
H1353 C1349 0.950 . S
H1354 C1351 0.935 1_556 S
C1355 C1346 1.390 . S
C1355 H1348 0.950 . S
C1355 C1352 1.387 . S
C1356 C1357 1.387 . S
C1356 H1360 0.950 . S
C1356 C1365 1.390 . S
C1357 C1356 1.387 . S
C1357 C1359 1.387 . S
H1358 C1365 0.950 . S
C1359 C1357 1.387 . S
C1359 C1361 1.390 . S
C1359 H1363 0.950 . S
H1360 C1356 0.950 . S
C1361 C1359 1.390 . S
C1361 C1362 1.387 . S
C1361 H1364 0.950 . S
C1362 C1361 1.387 . S
C1362 C1365 1.387 . S
H1363 C1359 0.950 . S
H1364 C1361 0.950 . S
C1365 C1356 1.390 . S
C1365 H1358 0.950 . S
C1365 C1362 1.387 . S
C1366 C1367 1.387 . S
C1366 H1370 0.950 . S
C1366 C1375 1.390 . S
C1367 C1366 1.387 . S
C1367 C1369 1.387 . S
H1368 C1375 0.950 . S
C1369 C1367 1.387 . S
C1369 C1371 1.390 . S
C1369 H1373 0.950 . S
H1370 C1366 0.950 . S
C1371 C1369 1.390 . S
C1371 C1372 1.387 . S
C1371 H1374 0.950 . S
C1372 C1371 1.387 . S
C1372 C1375 1.387 . S
H1373 C1369 0.950 . S
H1374 C1371 0.950 . S
C1375 C1366 1.390 . S
C1375 H1368 0.950 . S
C1375 C1372 1.387 . S
C1376 C1377 1.387 . S
C1376 H1380 0.950 . S
C1376 C1385 1.390 . S
C1377 C1376 1.387 . S
C1377 C1379 1.387 . S
H1378 C1385 0.950 . S
C1379 C1377 1.387 . S
C1379 C1381 1.390 . S
C1379 H1383 0.950 . S
H1380 C1376 0.950 . S
C1381 C1379 1.390 . S
C1381 C1382 1.387 . S
C1381 H1384 0.950 . S
C1382 C1381 1.387 . S
C1382 C1385 1.387 . S
H1383 C1379 0.950 . S
H1384 C1381 0.950 . S
C1385 C1376 1.390 . S
C1385 H1378 0.950 . S
C1385 C1382 1.387 . S
C1386 C1387 1.387 . S
C1386 H1390 0.950 . S
C1386 C1395 1.390 . S
C1387 C1386 1.387 . S
C1387 C1389 1.387 . S
H1388 C1395 0.950 . S
C1389 C1387 1.387 . S
C1389 C1391 1.390 . S
C1389 H1393 0.950 . S
H1390 C1386 0.950 . S
C1391 C1389 1.390 . S
C1391 C1392 1.387 . S
C1391 H1394 0.950 . S
C1392 C1391 1.387 . S
C1392 C1395 1.387 . S
H1393 C1389 0.950 . S
H1394 C1391 0.950 . S
C1395 C1386 1.390 . S
C1395 H1388 0.950 . S
C1395 C1392 1.387 . S
C1396 C1397 1.387 . S
C1396 H1400 0.950 . S
C1396 C1405 1.390 . S
C1397 C1396 1.387 . S
C1397 C1399 1.387 . S
H1398 C1405 0.950 . S
C1399 C1397 1.387 . S
C1399 C1401 1.390 . S
C1399 H1403 0.950 1_455 S
H1400 C1396 0.950 . S
C1401 C1399 1.390 . S
C1401 C1402 1.387 . S
C1401 H1404 0.950 1_455 S
C1402 C1401 1.387 . S
C1402 C1405 1.387 . S
H1403 C1399 0.950 1_655 S
H1404 C1401 0.950 1_655 S
C1405 C1396 1.390 . S
C1405 H1398 0.950 . S
C1405 C1402 1.387 . S
C1406 C1407 1.387 . S
C1406 H1410 0.950 . S
C1406 C1415 1.390 . S
C1407 C1406 1.387 . S
C1407 C1409 1.387 . S
H1408 C1415 0.950 . S
C1409 C1407 1.387 . S
C1409 C1411 1.390 . S
C1409 H1413 0.950 . S
H1410 C1406 0.950 . S
C1411 C1409 1.390 . S
C1411 C1412 1.387 . S
C1411 H1414 0.950 . S
C1412 C1411 1.387 . S
C1412 C1415 1.387 . S
H1413 C1409 0.950 . S
H1414 C1411 0.950 . S
C1415 C1406 1.390 . S
C1415 H1408 0.950 . S
C1415 C1412 1.387 . S
C1416 C1417 1.387 . S
C1416 H1420 0.950 . S
C1416 C1425 1.390 . S
C1417 C1416 1.387 . S
C1417 C1419 1.387 . S
H1418 C1425 0.950 1_554 S
C1419 C1417 1.387 . S
C1419 C1421 1.390 . S
C1419 H1423 0.950 . S
H1420 C1416 0.950 . S
C1421 C1419 1.390 . S
C1421 C1422 1.387 . S
C1421 H1424 0.950 . S
C1422 C1421 1.387 . S
C1422 C1425 1.387 . S
H1423 C1419 0.950 . S
H1424 C1421 0.950 . S
C1425 C1416 1.390 . S
C1425 H1418 0.950 1_556 S
C1425 C1422 1.387 . S
C1426 C1427 1.387 . S
C1426 H1430 0.950 . S
C1426 C1435 1.390 . S
C1427 C1426 1.387 . S
C1427 C1429 1.387 . S
H1428 C1435 0.950 . S
C1429 C1427 1.387 . S
C1429 C1431 1.390 . S
C1429 H1433 0.950 . S
H1430 C1426 0.950 . S
C1431 C1429 1.390 . S
C1431 C1432 1.387 . S
C1431 H1434 0.950 . S
C1432 C1431 1.387 . S
C1432 C1435 1.387 . S
H1433 C1429 0.950 . S
H1434 C1431 0.950 . S
C1435 C1426 1.390 . S
C1435 H1428 0.950 . S
C1435 C1432 1.387 . S
C1436 C1437 1.387 . S
C1436 H1440 0.950 . S
C1436 C1445 1.390 . S
C1437 C1436 1.387 . S
C1437 C1439 1.387 . S
H1438 C1445 0.950 . S
C1439 C1437 1.387 . S
C1439 C1441 1.390 . S
C1439 H1443 0.950 1_455 S
H1440 C1436 0.950 . S
C1441 C1439 1.390 . S
C1441 C1442 1.387 . S
C1441 H1444 0.950 1_455 S
C1442 C1441 1.387 . S
C1442 C1445 1.387 . S
H1443 C1439 0.950 1_655 S
H1444 C1441 0.950 1_655 S
C1445 C1436 1.390 . S
C1445 H1438 0.950 . S
C1445 C1442 1.387 . S
C1446 C1447 1.387 . S
C1446 H1450 0.950 . S
C1446 C1455 1.390 . S
C1447 C1446 1.387 . S
C1447 C1449 1.387 . S
H1448 C1455 0.950 . S
C1449 C1447 1.387 . S
C1449 C1451 1.390 . S
C1449 H1453 0.950 . S
H1450 C1446 0.950 . S
C1451 C1449 1.390 . S
C1451 C1452 1.387 . S
C1451 H1454 0.950 . S
C1452 C1451 1.387 . S
C1452 C1455 1.387 . S
H1453 C1449 0.950 . S
H1454 C1451 0.950 . S
C1455 C1446 1.390 . S
C1455 H1448 0.950 . S
C1455 C1452 1.387 . S
C1456 C1457 1.387 . S
C1456 H1460 0.950 . S
C1456 C1465 1.390 . S
C1457 C1456 1.387 . S
C1457 C1459 1.387 . S
H1458 C1465 0.950 . S
C1459 C1457 1.387 . S
C1459 C1461 1.390 . S
C1459 H1463 0.950 . S
H1460 C1456 0.950 . S
C1461 C1459 1.390 . S
C1461 C1462 1.387 . S
C1461 H1464 0.950 . S
C1462 C1461 1.387 . S
C1462 C1465 1.387 . S
H1463 C1459 0.950 . S
H1464 C1461 0.950 . S
C1465 C1456 1.390 . S
C1465 H1458 0.950 . S
C1465 C1462 1.387 . S
C1466 C1467 1.387 . S
C1466 H1470 0.950 . S
C1466 C1475 1.390 . S
C1467 C1466 1.387 . S
C1467 C1469 1.387 . S
H1468 C1475 0.950 . S
C1469 C1467 1.387 . S
C1469 C1471 1.390 . S
C1469 H1473 0.950 . S
H1470 C1466 0.950 . S
C1471 C1469 1.390 . S
C1471 C1472 1.387 . S
C1471 H1474 0.950 . S
C1472 C1471 1.387 . S
C1472 C1475 1.387 . S
H1473 C1469 0.950 . S
H1474 C1471 0.950 . S
C1475 C1466 1.390 . S
C1475 H1468 0.950 . S
C1475 C1472 1.387 . S
C1476 C1477 1.387 . S
C1476 H1480 0.950 . S
C1476 C1485 1.390 . S
C1477 C1476 1.387 . S
C1477 C1479 1.387 . S
H1478 C1485 0.950 1_455 S
C1479 C1477 1.387 . S
C1479 C1481 1.390 . S
C1479 H1483 0.950 . S
H1480 C1476 0.950 . S
C1481 C1479 1.390 . S
C1481 C1482 1.387 . S
C1481 H1484 0.950 . S
C1482 C1481 1.387 . S
C1482 C1485 1.387 . S
H1483 C1479 0.950 . S
H1484 C1481 0.950 . S
C1485 C1476 1.390 . S
C1485 H1478 0.950 1_655 S
C1485 C1482 1.387 . S
C1486 C1487 1.387 . S
C1486 H1490 0.950 . S
C1486 C1495 1.390 . S
C1487 C1486 1.387 . S
C1487 C1489 1.387 . S
H1488 C1495 0.950 . S
C1489 C1487 1.387 . S
C1489 C1491 1.390 . S
C1489 H1493 0.950 . S
H1490 C1486 0.950 . S
C1491 C1489 1.390 . S
C1491 C1492 1.387 . S
C1491 H1494 0.950 . S
C1492 C1491 1.387 . S
C1492 C1495 1.387 . S
H1493 C1489 0.950 . S
H1494 C1491 0.950 . S
C1495 C1486 1.390 . S
C1495 H1488 0.950 . S
C1495 C1492 1.387 . S
C1496 C1497 1.387 . S
C1496 H1500 0.950 . S
C1496 C1505 1.390 . S
C1497 C1496 1.387 . S
C1497 C1499 1.387 . S
H1498 C1505 0.950 . S
C1499 C1497 1.387 . S
C1499 C1501 1.390 . S
C1499 H1503 0.950 . S
H1500 C1496 0.950 . S
C1501 C1499 1.390 . S
C1501 C1502 1.387 . S
C1501 H1504 0.950 . S
C1502 C1501 1.387 . S
C1502 C1505 1.387 . S
H1503 C1499 0.950 . S
H1504 C1501 0.950 . S
C1505 C1496 1.390 . S
C1505 H1498 0.950 . S
C1505 C1502 1.387 . S
C1506 C1507 1.387 . S
C1506 H1510 0.950 . S
C1506 C1515 1.390 . S
C1507 C1506 1.387 . S
C1507 C1509 1.387 . S
H1508 C1515 0.950 . S
C1509 C1507 1.387 . S
C1509 C1511 1.390 . S
C1509 H1513 0.950 . S
H1510 C1506 0.950 . S
C1511 C1509 1.390 . S
C1511 C1512 1.387 . S
C1511 H1514 0.950 . S
C1512 C1511 1.387 . S
C1512 C1515 1.387 . S
H1513 C1509 0.950 . S
H1514 C1511 0.950 . S
C1515 C1506 1.390 . S
C1515 H1508 0.950 . S
C1515 C1512 1.387 . S
C1516 C1517 1.387 . S
C1516 H1520 0.950 . S
C1516 C1525 1.390 . S
C1517 C1516 1.387 . S
C1517 C1519 1.387 . S
H1518 C1525 0.950 . S
C1519 C1517 1.387 . S
C1519 C1521 1.390 . S
C1519 H1523 0.950 . S
H1520 C1516 0.950 . S
C1521 C1519 1.390 . S
C1521 C1522 1.387 . S
C1521 H1524 0.950 . S
C1522 C1521 1.387 . S
C1522 C1525 1.387 . S
H1523 C1519 0.950 . S
H1524 C1521 0.950 . S
C1525 C1516 1.390 . S
C1525 H1518 0.950 . S
C1525 C1522 1.387 . S
C1526 C1527 1.387 . S
C1526 H1530 0.950 . S
C1526 C1535 1.390 . S
C1527 C1526 1.387 . S
C1527 C1529 1.387 . S
H1528 C1535 0.950 . S
C1529 C1527 1.387 . S
C1529 C1531 1.390 . S
C1529 H1533 0.950 . S
H1530 C1526 0.950 . S
C1531 C1529 1.390 . S
C1531 C1532 1.387 . S
C1531 H1534 0.950 . S
C1532 C1531 1.387 . S
C1532 C1535 1.387 . S
H1533 C1529 0.950 . S
H1534 C1531 0.950 . S
C1535 C1526 1.390 . S
C1535 H1528 0.950 . S
C1535 C1532 1.387 . S
C1536 C1537 1.387 . S
C1536 H1540 0.950 . S
C1536 C1545 1.390 . S
C1537 C1536 1.387 . S
C1537 C1539 1.387 . S
H1538 C1545 0.950 . S
C1539 C1537 1.387 . S
C1539 C1541 1.390 . S
C1539 H1543 0.950 . S
H1540 C1536 0.950 . S
C1541 C1539 1.390 . S
C1541 C1542 1.387 . S
C1541 H1544 0.950 . S
C1542 C1541 1.387 . S
C1542 C1545 1.387 . S
H1543 C1539 0.950 . S
H1544 C1541 0.950 . S
C1545 C1536 1.390 . S
C1545 H1538 0.950 . S
C1545 C1542 1.387 . S
C1546 C1547 1.387 . S
C1546 H1550 0.950 . S
C1546 C1555 1.390 . S
C1547 C1546 1.387 . S
C1547 C1549 1.387 . S
H1548 C1555 0.950 1_545 S
C1549 C1547 1.387 . S
C1549 C1551 1.390 . S
C1549 H1553 0.950 . S
H1550 C1546 0.950 . S
C1551 C1549 1.390 . S
C1551 C1552 1.387 . S
C1551 H1554 0.950 . S
C1552 C1551 1.387 . S
C1552 C1555 1.387 . S
H1553 C1549 0.950 . S
H1554 C1551 0.950 . S
C1555 C1546 1.390 . S
C1555 H1548 0.950 1_565 S
C1555 C1552 1.387 . S
C1556 C1557 1.387 . S
C1556 H1560 0.950 . S
C1556 C1565 1.390 . S
C1557 C1556 1.387 . S
C1557 C1559 1.387 . S
H1558 C1565 0.950 . S
C1559 C1557 1.387 . S
C1559 C1561 1.390 . S
C1559 H1563 0.950 . S
H1560 C1556 0.950 . S
C1561 C1559 1.390 . S
C1561 C1562 1.387 . S
C1561 H1564 0.950 . S
C1562 C1561 1.387 . S
C1562 C1565 1.387 . S
H1563 C1559 0.950 . S
H1564 C1561 0.950 . S
C1565 C1556 1.390 . S
C1565 H1558 0.950 . S
C1565 C1562 1.387 . S
C1566 C1567 1.387 . S
C1566 H1570 0.950 1_554 S
C1566 C1575 1.390 . S
C1567 C1566 1.387 . S
C1567 C1569 1.387 . S
H1568 C1575 0.950 1_556 S
C1569 C1567 1.387 . S
C1569 C1571 1.390 . S
C1569 H1573 0.950 . S
H1570 C1566 0.950 1_556 S
C1571 C1569 1.390 . S
C1571 C1572 1.387 . S
C1571 H1574 0.950 . S
C1572 C1571 1.387 . S
C1572 C1575 1.387 . S
H1573 C1569 0.950 . S
H1574 C1571 0.950 . S
C1575 C1566 1.390 . S
C1575 H1568 0.950 1_554 S
C1575 C1572 1.387 . S
C1576 C1577 1.387 . S
C1576 H1580 0.950 . S
C1576 C1585 1.390 . S
C1577 C1576 1.387 . S
C1577 C1579 1.387 . S
H1578 C1585 0.950 . S
C1579 C1577 1.387 . S
C1579 C1581 1.390 . S
C1579 H1583 0.950 . S
H1580 C1576 0.950 . S
C1581 C1579 1.390 . S
C1581 C1582 1.387 . S
C1581 H1584 0.950 . S
C1582 C1581 1.387 . S
C1582 C1585 1.387 . S
H1583 C1579 0.950 . S
H1584 C1581 0.950 . S
C1585 C1576 1.390 . S
C1585 H1578 0.950 . S
C1585 C1582 1.387 . S
C1586 C1587 1.387 . S
C1586 H1590 0.950 . S
C1586 C1595 1.390 . S
C1587 C1586 1.387 . S
C1587 C1589 1.387 . S
H1588 C1595 0.950 1_556 S
C1589 C1587 1.387 . S
C1589 C1591 1.390 . S
C1589 H1593 0.950 . S
H1590 C1586 0.950 . S
C1591 C1589 1.390 . S
C1591 C1592 1.387 . S
C1591 H1594 0.950 . S
C1592 C1591 1.387 . S
C1592 C1595 1.387 . S
H1593 C1589 0.950 . S
H1594 C1591 0.950 . S
C1595 C1586 1.390 . S
C1595 H1588 0.950 1_554 S
C1595 C1592 1.387 . S
C1596 C1597 1.387 . S
C1596 H1600 0.950 . S
C1596 C1605 1.390 . S
C1597 C1596 1.387 . S
C1597 C1599 1.387 . S
H1598 C1605 0.950 . S
C1599 C1597 1.387 . S
C1599 C1601 1.390 . S
C1599 H1603 0.950 . S
H1600 C1596 0.950 . S
C1601 C1599 1.390 . S
C1601 C1602 1.387 . S
C1601 H1604 0.950 . S
C1602 C1601 1.387 . S
C1602 C1605 1.387 . S
H1603 C1599 0.950 . S
H1604 C1601 0.950 . S
C1605 C1596 1.390 . S
C1605 H1598 0.950 . S
C1605 C1602 1.387 . S
C1606 C1607 1.387 . S
C1606 H1610 0.950 . S
C1606 C1615 1.390 . S
C1607 C1606 1.387 . S
C1607 C1609 1.387 . S
H1608 C1615 0.950 . S
C1609 C1607 1.387 . S
C1609 C1611 1.390 . S
C1609 H1613 0.950 . S
H1610 C1606 0.950 . S
C1611 C1609 1.390 . S
C1611 C1612 1.387 . S
C1611 H1614 0.950 . S
C1612 C1611 1.387 . S
C1612 C1615 1.387 . S
H1613 C1609 0.950 . S
H1614 C1611 0.950 . S
C1615 C1606 1.390 . S
C1615 H1608 0.950 . S
C1615 C1612 1.387 . S
C657 C111 1.505 1_455 S
C662 C340 1.260 . S
C667 C64 1.521 . S
C672 C375 1.580 . S
C677 C77 1.152 . S
C682 C380 1.055 . S
C692 C405 1.273 . S
C687 C95 1.320 . S
C697 C25 1.325 . S
C702 C425 1.275 . S
C712 C440 1.109 . S
C707 C36 1.208 . S
C722 C475 1.560 . S
C717 C50 1.510 . S
C727 C11 1.519 . S
C732 C480 1.208 . S
C742 C355 1.568 1_655 S
C737 C237 1.594 . S
C747 C245 1.110 . S
C752 C365 1.055 . S
C762 C395 1.360 1_565 S
C757 C279 1.289 1_565 S
C772 C400 1.150 . S
C767 C175 1.243 1_556 S
C777 C231 1.208 . S
C782 C420 1.126 . S
C792 C455 1.367 . S
C787 C251 1.287 . S
C802 C465 1.083 . S
C797 C273 1.149 . S
C812 C495 1.568 . S
C807 C181 1.593 . S
C822 C345 1.304 . S
C817 C165 1.553 . S
C827 C288 1.696 . S
C832 C515 1.786 . S
C842 C525 1.430 . S
C837 C333 1.562 . S
C852 C540 1.071 . S
C847 C316 1.166 . S
C857 C123 1.538 . S
C862 C485 1.287 . S
C867 C137 1.534 . S
C872 C385 1.399 . S
C877 C330 1.691 . S
C882 C575 1.779 . S
C892 C580 1.070 . S
C887 C302 1.162 . S
C902 C338 1.333 . S
C897 C63 1.598 . S
C912 C594 1.604 . S
C907 C106 1.588 . S
C917 C97 1.125 . S
C922 C378 1.101 . S
C927 C81 1.367 . S
C932 C568 1.346 . S
C942 C428 1.387 . S
C937 C13 1.375 . S
C947 C55 1.126 . S
C952 C518 1.101 . S
C962 C474 1.524 1_556 S
C957 C35 1.533 . S
C972 C598 1.330 . S
C967 C21 1.587 . S
C982 C354 1.653 . S
C977 C147 1.755 . S
C992 C588 1.086 . S
C987 C321 1.055 . S
C997 C119 1.422 . S
C1002 C394 1.401 . S
C1007 C293 1.244 . S
C1012 C558 1.225 . S
C1017 C153 1.243 . S
C1022 C418 1.226 . S
C1032 C534 1.415 . S
C1027 C315 1.436 . S
C1037 C125 1.061 . S
C1042 C468 1.091 . S
C1047 C287 1.737 . S
C1052 C614 1.639 . S
C1057 C193 1.513 . S
C1062 C348 1.336 . S
C1067 C176 1.776 . S
C1072 C514 1.793 . S
C1077 C263 1.523 . S
C1082 C448 1.463 . S
C1087 C246 1.203 . S
C1092 C538 1.156 . S
C1102 C608 1.337 . S
C1097 C277 1.506 . S
C1107 C221 1.518 . S
C1112 C388 1.455 . S
C1122 C414 1.806 . S
C1117 C260 1.786 . S
C1132 C358 1.147 . S
C1127 C204 1.196 . S
C1137 C83 1.503 . S
C1142 C620 1.258 . S
C1152 C595 1.580 . S
C1147 C92 1.521 . S
C1157 C105 1.151 . S
C1162 C640 1.056 . S
C1167 C67 1.320 . S
C1172 C565 1.272 . S
C1177 C53 1.325 . S
C1182 C505 1.275 . S
C1192 C520 1.107 . S
C1187 C8 1.209 . S
C1202 C555 1.562 . S
C1197 C22 1.505 . S
C1212 C600 1.207 . S
C1207 C39 1.519 . S
C1222 C635 1.569 . S
C1217 C265 1.588 . S
C1227 C189 1.111 . S
C1232 C585 1.057 . S
C1242 C655 1.359 . S
C1237 C209 1.285 . S
C1252 C560 1.146 . S
C1247 C217 1.242 . S
C1262 C500 1.127 . S
C1257 C259 1.208 . S
C1267 C195 1.288 . S
C1272 C535 1.365 . S
C1282 C545 1.085 . S
C1277 C203 1.148 . S
C1287 C223 1.592 . S
C1292 C615 1.565 . S
C1302 C625 1.298 . S
C1297 C319 1.551 . S
C1307 C134 1.695 . S
C1312 C435 1.788 . S
C1322 C445 1.432 . S
C1317 C151 1.562 . S
C1332 C460 1.071 . S
C1327 C162 1.166 . S
C1342 C605 1.286 . S
C1337 C305 1.537 . S
C1347 C291 1.534 1_554 S
C1352 C645 1.404 . S
C1362 C415 1.780 . S
C1357 C148 1.689 . S
C1372 C360 1.074 . S
C1367 C120 1.160 . S
C1377 C91 1.597 . S
C1382 C618 1.332 . S
C1392 C374 1.604 . S
C1387 C78 1.588 . S
C1397 C69 1.125 . S
C1402 C638 1.101 . S
C1407 C109 1.366 . S
C1412 C408 1.348 . S
C1417 C41 1.374 . S
C1422 C508 1.386 . S
C1432 C438 1.105 . S
C1427 C27 1.130 . S
C1437 C7 1.534 . S
C1442 C554 1.523 . S
C1447 C49 1.586 . S
C1452 C478 1.328 . S
C1462 C634 1.653 . S
C1457 C329 1.755 . S
C1467 C167 1.055 . S
C1472 C368 1.086 . S
C1482 C654 1.402 1_655 S
C1477 C301 1.422 . S
C1487 C139 1.244 . S
C1492 C398 1.228 . S
C1497 C335 1.243 . S
C1502 C498 1.227 . S
C1512 C454 1.415 . S
C1507 C161 1.436 . S
C1517 C307 1.060 . S
C1522 C548 1.090 . S
C1532 C494 1.632 . S
C1527 C133 1.735 . S
C1542 C628 1.342 . S
C1537 C249 1.514 . S
C1552 C434 1.793 . S
C1547 C218 1.776 . S
C1557 C235 1.524 . S
C1562 C528 1.461 . S
C1572 C458 1.159 . S
C1567 C190 1.201 . S
C1577 C207 1.500 . S
C1582 C488 1.333 . S
C1587 C179 1.517 . S
C1592 C648 1.451 . S
C1602 C574 1.807 . S
C1597 C232 1.786 . S
C1612 C578 1.146 . S
C1607 C274 1.189 . S
