# Generated by pormake.
# Topology csq, (4,8)-cn, num edge types: 1
# Building blocks:
#     Node 0, Type 0, BuildingBlock: MUDLON_clean_sbu_0, # of connection points: 4
#     Node 1, Type 0, BuildingBlock: MUDLON_clean_sbu_0, # of connection points: 4
#     Node 2, Type 0, BuildingBlock: MUDLON_clean_sbu_0, # of connection points: 4
#     Node 3, Type 0, BuildingBlock: MUDLON_clean_sbu_0, # of connection points: 4
#     Node 4, Type 0, BuildingBlock: MUDLON_clean_sbu_0, # of connection points: 4
#     Node 5, Type 0, BuildingBlock: MUDLON_clean_sbu_0, # of connection points: 4
#     Node 6, Type 1, BuildingBlock: TAGTUT_clean_sbu_3, # of connection points: 8
#     Node 7, Type 1, BuildingBlock: TAGTUT_clean_sbu_3, # of connection points: 8
#     Node 8, Type 1, BuildingBlock: TAGTUT_clean_sbu_3, # of connection points: 8
#     Edge 9, Type (0, 1), BuildingBlock: CIFDUS_clean_linker_0, # of connection points: 2
#     Edge 10, Type (0, 1), BuildingBlock: CIFDUS_clean_linker_0, # of connection points: 2
#     Edge 11, Type (0, 1), BuildingBlock: CIFDUS_clean_linker_0, # of connection points: 2
#     Edge 12, Type (0, 1), BuildingBlock: CIFDUS_clean_linker_0, # of connection points: 2
#     Edge 13, Type (0, 1), BuildingBlock: CIFDUS_clean_linker_0, # of connection points: 2
#     Edge 14, Type (0, 1), BuildingBlock: CIFDUS_clean_linker_0, # of connection points: 2
#     Edge 15, Type (0, 1), BuildingBlock: CIFDUS_clean_linker_0, # of connection points: 2
#     Edge 16, Type (0, 1), BuildingBlock: CIFDUS_clean_linker_0, # of connection points: 2
#     Edge 17, Type (0, 1), BuildingBlock: CIFDUS_clean_linker_0, # of connection points: 2
#     Edge 18, Type (0, 1), BuildingBlock: CIFDUS_clean_linker_0, # of connection points: 2
#     Edge 19, Type (0, 1), BuildingBlock: CIFDUS_clean_linker_0, # of connection points: 2
#     Edge 20, Type (0, 1), BuildingBlock: CIFDUS_clean_linker_0, # of connection points: 2
#     Edge 21, Type (0, 1), BuildingBlock: CIFDUS_clean_linker_0, # of connection points: 2
#     Edge 22, Type (0, 1), BuildingBlock: CIFDUS_clean_linker_0, # of connection points: 2
#     Edge 23, Type (0, 1), BuildingBlock: CIFDUS_clean_linker_0, # of connection points: 2
#     Edge 24, Type (0, 1), BuildingBlock: CIFDUS_clean_linker_0, # of connection points: 2
#     Edge 25, Type (0, 1), BuildingBlock: CIFDUS_clean_linker_0, # of connection points: 2
#     Edge 26, Type (0, 1), BuildingBlock: CIFDUS_clean_linker_0, # of connection points: 2
#     Edge 27, Type (0, 1), BuildingBlock: CIFDUS_clean_linker_0, # of connection points: 2
#     Edge 28, Type (0, 1), BuildingBlock: CIFDUS_clean_linker_0, # of connection points: 2
#     Edge 29, Type (0, 1), BuildingBlock: CIFDUS_clean_linker_0, # of connection points: 2
#     Edge 30, Type (0, 1), BuildingBlock: CIFDUS_clean_linker_0, # of connection points: 2
#     Edge 31, Type (0, 1), BuildingBlock: CIFDUS_clean_linker_0, # of connection points: 2
#     Edge 32, Type (0, 1), BuildingBlock: CIFDUS_clean_linker_0, # of connection points: 2
# Relax obj value: 0.067
# Max RMSD: 0.126
# Mean RMSD: 0.103
data_MOF--net-csq--node1-MUDLON_clean_sbu_0--node2-TAGTUT_clean_sbu_3--edge1-CIFDUS_clean_linker_0
_symmetry_space_group_name_H-M    P1
_symmetry_Int_Tables_number       1
_symmetry_cell_setting            triclinic
loop_
_symmetry_equiv_pos_as_xyz
'x, y, z'
_cell_length_a     44.385453
_cell_length_b     43.793886
_cell_length_c     17.681809
_cell_angle_alpha  92.690677
_cell_angle_beta   92.666941
_cell_angle_gamma 119.63802
loop_
_atom_site_label
_atom_site_type_symbol
_atom_site_fract_x
_atom_site_fract_y
_atom_site_fract_z
_atom_type_partial_charge
Mg0 Mg 0.23822 0.46957 0.13877 0.0
C1 C 0.20942 0.43367 0.97884 0.0
O2 O 0.24177 0.45454 0.96399 0.0
C3 C 0.28262 0.44133 0.21005 0.0
O4 O 0.29303 0.44329 0.14118 0.0
C5 C 0.17765 0.46077 0.20929 0.0
O6 O 0.17198 0.42943 0.18476 0.0
O7 O 0.20687 0.48739 0.19884 0.0
O8 O 0.20179 0.43205 0.04762 0.0
O9 O 0.28256 0.50779 0.08229 0.0
C10 C 0.31397 0.52071 0.10913 0.0
O11 O 0.32034 0.51853 0.18137 0.0
O12 O 0.25822 0.44774 0.22251 0.0
Mg13 Mg 0.76284 0.25833 0.12369 0.0
C14 C 0.80321 0.31507 0.03152 0.0
O15 O 0.78897 0.32733 0.07872 0.0
C16 C 0.76774 0.20155 0.20645 0.0
O17 O 0.79537 0.22829 0.24288 0.0
C18 C 0.78876 0.29443 0.29254 0.0
O19 O 0.76314 0.26697 0.31985 0.0
O20 O 0.79054 0.296 0.2211 0.0
O21 O 0.79627 0.28326 0.03413 0.0
O22 O 0.71157 0.2462 0.07909 0.0
C23 C 0.68574 0.21809 0.09795 0.0
O24 O 0.68789 0.20714 0.16481 0.0
O25 O 0.75405 0.20683 0.14757 0.0
Mg26 Mg 0.54457 0.76652 0.06125 0.0
C27 C 0.56341 0.81414 0.22168 0.0
O28 O 0.58911 0.80766 0.23277 0.0
C29 C 0.56589 0.73257 0.92207 0.0
O30 O 0.59777 0.75837 0.94038 0.0
C31 C 0.56503 0.83345 0.97128 0.0
O32 O 0.59357 0.84565 0.01651 0.0
O33 O 0.54032 0.80229 0.97668 0.0
O34 O 0.54358 0.80179 0.16049 0.0
O35 O 0.54861 0.73027 0.14505 0.0
C36 C 0.52489 0.69823 0.14569 0.0
O37 O 0.49743 0.68574 0.09692 0.0
O38 O 0.54136 0.72976 0.96097 0.0
Mg39 Mg 0.80123 0.54111 0.05677 0.0
C40 C 0.73681 0.52469 0.96563 0.0
O41 O 0.72606 0.49803 0.0082 0.0
C42 C 0.86122 0.60312 0.14324 0.0
O43 O 0.83615 0.60275 0.18061 0.0
C44 C 0.75037 0.50861 0.18406 0.0
O45 O 0.74051 0.47787 0.14775 0.0
O46 O 0.77543 0.53614 0.16141 0.0
O47 O 0.76891 0.54797 0.97145 0.0
O48 O 0.81297 0.50113 0.01193 0.0
C49 C 0.84174 0.50437 0.03783 0.0
O50 O 0.85635 0.52336 0.10243 0.0
O51 O 0.85318 0.58586 0.07884 0.0
Mg52 Mg 0.25075 0.78505 0.1469 0.0
C53 C 0.20047 0.72686 0.04134 0.0
O54 O 0.18658 0.74711 0.05024 0.0
C55 C 0.32686 0.82688 0.20737 0.0
O56 O 0.32991 0.84431 0.14707 0.0
C57 C 0.21694 0.75379 0.28124 0.0
O58 O 0.24142 0.74557 0.27331 0.0
O59 O 0.21346 0.77287 0.23311 0.0
O60 O 0.22978 0.73622 0.07622 0.0
O61 O 0.26304 0.82876 0.07553 0.0
C62 C 0.26187 0.82385 1.00354 0.0
O63 O 0.24895 0.79162 0.97245 0.0
O64 O 0.29824 0.79916 0.21504 0.0
Mg65 Mg 0.42786 0.22201 0.21427 0.0
C66 C 0.3688 0.21936 0.31517 0.0
O67 O 0.33598 0.20292 0.33013 0.0
C68 C 0.45392 0.19545 0.09725 0.0
O69 O 0.48168 0.22176 0.13443 0.0
C70 C 0.43219 0.26971 0.09871 0.0
O71 O 0.40562 0.23886 0.07411 0.0
O72 O 0.44795 0.27247 0.16308 0.0
O73 O 0.37775 0.20583 0.26117 0.0
O74 O 0.46169 0.21391 0.29512 0.0
C75 C 0.44804 0.1927 0.34637 0.0
O76 O 0.41502 0.18059 0.35644 0.0
O77 O 0.42413 0.18761 0.11859 0.0
C78 C 0.05877 0.48472 0.50035 0.0
C79 C 0.05009 0.41792 0.75335 0.0
C80 C 0.95398 0.41938 0.76213 0.0
Mg81 Mg 0.02643 0.53604 0.46534 0.0
Mg82 Mg 0.01555 0.58077 0.60732 0.0
O83 O 0.00477 0.53623 0.56258 0.0
Mg84 Mg 0.01901 0.50718 0.62153 0.0
O85 O 0.03365 0.47686 0.67468 0.0
Mg86 Mg 1.00345 0.43052 0.61383 0.0
Mg87 Mg 0.02964 0.47586 0.77939 0.0
C88 C 0.98006 0.53258 0.7427 0.0
O89 O 0.06205 0.55499 0.69684 0.0
O90 O 0.9959 0.56324 0.41754 0.0
O91 O 0.06129 0.53193 0.8089 0.0
O92 O 0.07371 0.59104 0.49311 0.0
O93 O 0.98726 0.59031 0.51919 0.0
O94 O 0.06942 0.61959 0.59616 0.0
O95 O 0.97595 0.45746 0.55297 0.0
O96 O 0.98011 0.48046 0.4409 0.0
C97 C 0.96625 0.45431 0.48212 0.0
C98 C 0.98358 0.58181 0.44757 0.0
O99 O 0.9832 0.50707 0.71268 0.0
O100 O 0.03564 0.40994 0.68487 0.0
O101 O 0.99344 0.56314 0.71633 0.0
O102 O 0.96103 0.40898 0.70003 0.0
O103 O 0.05017 0.44177 0.79816 0.0
O104 O 0.97589 0.44819 0.79947 0.0
O105 O 0.0541 0.50968 0.52751 0.0
O106 O 0.0442 0.45427 0.52692 0.0
C107 C 0.08621 0.61786 0.54105 0.0
C108 C 0.0722 0.55814 0.76759 0.0
C109 C 0.50384 0.06325 0.52718 0.0
C110 C 0.61593 0.06161 0.42886 0.0
C111 C 0.56916 0.96046 0.51376 0.0
Mg112 Mg 0.45602 0.01963 0.6656 0.0
Mg113 Mg 0.49862 0.01313 0.81374 0.0
O114 O 0.48524 1.0004 0.71011 0.0
Mg115 Mg 0.52472 0.01965 0.64298 0.0
O116 O 0.56204 0.03818 0.56966 0.0
Mg117 Mg 0.53346 0.01124 0.47325 0.0
Mg118 Mg 0.60222 0.03487 0.5916 0.0
C119 C 0.54606 0.98055 0.77121 0.0
O120 O 0.565 0.06294 0.73134 0.0
O121 O 0.4144 0.98503 0.74878 0.0
O122 O 0.61528 0.06522 0.70256 0.0
O123 O 0.47566 0.06617 0.75638 0.0
O124 O 0.44701 0.98488 0.85058 0.0
O125 O 0.51589 0.06781 0.83888 0.0
O126 O 0.48907 0.97953 0.54916 0.0
O127 O 0.43758 0.97368 0.57283 0.0
C128 C 0.45632 0.96529 0.5334 0.0
C129 C 0.4175 0.97655 0.81648 0.0
O130 O 0.54275 0.98401 0.69981 0.0
O131 O 0.58296 0.04562 0.4103 0.0
O132 O 0.53432 0.99271 0.8225 0.0
O133 O 0.54975 0.96949 0.47718 0.0
O134 O 0.62853 0.0613 0.4954 0.0
O135 O 0.5905 0.9804 0.56924 0.0
O136 O 0.50314 0.0531 0.5943 0.0
O137 O 0.51623 0.05294 0.47393 0.0
C138 C 0.4983 0.08129 0.81278 0.0
C139 C 0.5979 0.07491 0.74424 0.0
C140 C 0.54554 0.56911 0.69162 0.0
C141 C 0.44317 0.49649 0.85449 0.0
C142 C 0.46105 0.41012 0.79603 0.0
Mg143 Mg 0.57287 0.54604 0.54202 0.0
Mg144 Mg 0.51812 0.47891 0.42623 0.0
O145 O 0.53707 0.49464 0.52617 0.0
Mg146 Mg 0.50613 0.48967 0.60888 0.0
O147 O 0.47878 0.48794 0.69699 0.0
Mg148 Mg 0.51384 0.49806 0.78519 0.0
Mg149 Mg 0.43365 0.45098 0.70484 0.0
C150 C 0.46907 0.41194 0.51327 0.0
O151 O 0.46054 0.4846 0.52853 0.0
O152 O 0.60509 0.5327 0.45519 0.0
O153 O 0.41303 0.44916 0.58891 0.0
O154 O 0.54876 0.56284 0.44466 0.0
O155 O 0.5645 0.48483 0.38318 0.0
O156 O 0.50596 0.51594 0.37755 0.0
O157 O 0.54764 0.49152 0.69552 0.0
O158 O 0.59483 0.52988 0.64097 0.0
C159 C 0.58084 0.51002 0.69462 0.0
C160 C 0.59632 0.50766 0.40251 0.0
O161 O 0.47774 0.42888 0.57951 0.0
O162 O 0.47555 0.50528 0.86245 0.0
O163 O 0.47923 0.42685 0.45138 0.0
O164 O 0.48849 0.43982 0.81418 0.0
O165 O 0.42285 0.47687 0.7972 0.0
O166 O 0.4371 0.40729 0.74827 0.0
O167 O 0.53588 0.55076 0.6273 0.0
O168 O 0.53846 0.55466 0.75446 0.0
C169 C 0.52409 0.54922 0.39185 0.0
C170 C 0.42728 0.4654 0.53052 0.0
H171 H 0.18226 0.51792 0.29438 0.0
H172 H 0.11122 0.40918 0.21548 0.0
H173 H 0.06716 0.40874 0.29191 0.0
H174 H 0.05033 0.43651 0.39015 0.0
H175 H 0.11924 0.54472 0.47297 0.0
H176 H 0.16213 0.54838 0.38515 0.0
C177 C 0.15699 0.49435 0.29331 0.0
C178 C 0.15044 0.46344 0.25013 0.0
C179 C 0.13134 0.49409 0.33827 0.0
C180 C 0.11738 0.43319 0.24899 0.0
C181 C 0.09198 0.43286 0.29263 0.0
C182 C 0.07457 0.46109 0.38832 0.0
C183 C 0.08187 0.49011 0.43853 0.0
C184 C 0.09897 0.46275 0.33888 0.0
C185 C 0.11307 0.52198 0.43473 0.0
C186 C 0.13768 0.52394 0.38499 0.0
H187 H 0.70065 0.15094 0.16716 0.0
H188 H 0.78579 0.18117 0.33683 0.0
H189 H 0.74614 0.13776 0.41822 0.0
H190 H 0.68659 0.0974 0.4479 0.0
H191 H 0.60085 0.07065 0.28217 0.0
H192 H 0.64161 0.10715 0.19288 0.0
C193 C 0.71077 0.14771 0.22138 0.0
C194 C 0.74613 0.16974 0.24636 0.0
C195 C 0.68758 0.12394 0.26931 0.0
C196 C 0.7587 0.16478 0.31642 0.0
C197 C 0.73597 0.14017 0.36327 0.0
C198 C 0.67669 0.09927 0.3921 0.0
C199 C 0.64057 0.08164 0.37236 0.0
C200 C 0.70019 0.12067 0.3415 0.0
C201 C 0.62843 0.08417 0.29934 0.0
C202 C 0.65174 0.10497 0.24812 0.0
H203 H 0.48123 0.62796 0.15598 0.0
H204 H 0.57684 0.71668 0.25742 0.0
H205 H 0.58399 0.67874 0.34446 0.0
H206 H 0.5643 0.62025 0.3892 0.0
H207 H 0.46935 0.53105 0.28664 0.0
H208 H 0.46062 0.5695 0.20346 0.0
C209 C 0.50358 0.63905 0.19728 0.0
C210 C 0.52852 0.67515 0.1998 0.0
C211 C 0.50769 0.61701 0.24707 0.0
C212 C 0.5573 0.68901 0.25385 0.0
C213 C 0.56142 0.66732 0.30378 0.0
C214 C 0.54155 0.60915 0.34901 0.0
C215 C 0.5176 0.57273 0.34421 0.0
C216 C 0.53693 0.63126 0.30052 0.0
C217 C 0.48833 0.55892 0.29147 0.0
C218 C 0.48333 0.58088 0.24368 0.0
H219 H 0.87943 0.62264 0.29358 0.0
H220 H 0.91562 0.5976 0.09023 0.0
H221 H 0.95844 0.59017 0.16683 0.0
H222 H 0.97984 0.58275 0.29248 0.0
H223 H 0.94227 0.6074 0.49449 0.0
H224 H 0.9058 0.62275 0.4174 0.0
C225 C 0.89719 0.61639 0.2657 0.0
C226 C 0.89361 0.60973 0.18637 0.0
C227 C 0.92109 0.61127 0.31005 0.0
C228 C 0.91737 0.60228 0.15138 0.0
C229 C 0.9417 0.59772 0.1952 0.0
C230 C 0.96382 0.59166 0.31956 0.0
C231 C 0.96342 0.59325 0.39918 0.0
C232 C 0.94272 0.60062 0.27475 0.0
C233 C 0.94297 0.60555 0.43336 0.0
C234 C 0.92206 0.61445 0.38933 0.0
H235 H 0.39197 0.88421 0.21319 0.0
H236 H 0.31788 0.80873 0.35338 0.0
H237 H 0.35266 0.84439 0.46736 0.0
H238 H 0.40021 0.90054 0.52719 0.0
H239 H 0.47602 0.97486 0.3892 0.0
H240 H 0.4446 0.93623 0.27442 0.0
C241 C 0.38382 0.87522 0.26868 0.0
C242 C 0.35205 0.84418 0.27455 0.0
C243 C 0.40397 0.89592 0.33441 0.0
C244 C 0.34209 0.83263 0.34694 0.0
C245 C 0.36183 0.85313 0.41238 0.0
C246 C 0.40995 0.90793 0.4719 0.0
C247 C 0.43991 0.94044 0.46589 0.0
C248 C 0.39211 0.88539 0.40671 0.0
C249 C 0.45288 0.94981 0.39466 0.0
C250 C 0.43488 0.92782 0.32918 0.0
H251 H 0.35336 0.25728 0.41709 0.0
H252 H 0.44049 0.25783 0.31754 0.0
H253 H 0.47946 0.31541 0.37934 0.0
H254 H 0.48829 0.36862 0.45064 0.0
H255 H 0.40266 0.36996 0.55229 0.0
H256 H 0.36377 0.30827 0.50335 0.0
C257 C 0.38092 0.26978 0.40926 0.0
C258 C 0.39351 0.25325 0.35943 0.0
C259 C 0.40355 0.30326 0.4464 0.0
C260 C 0.42942 0.26986 0.35188 0.0
C261 C 0.45203 0.30295 0.38844 0.0
C262 C 0.46129 0.35496 0.46386 0.0
C263 C 0.44816 0.37337 0.5049 0.0
C264 C 0.43924 0.32022 0.43405 0.0
C265 C 0.41325 0.35589 0.52159 0.0
C266 C 0.39103 0.32088 0.4927 0.0
H267 H 0.60499 0.90451 0.96814 0.0
H268 H 0.51556 0.81346 0.85308 0.0
H269 H 0.50563 0.85132 0.77054 0.0
H270 H 0.51846 0.91074 0.74069 0.0
H271 H 0.60415 0.00169 0.86424 0.0
H272 H 0.62012 0.96367 0.93246 0.0
C273 C 0.58359 0.89291 0.92439 0.0
C274 C 0.56087 0.85624 0.91732 0.0
C275 C 0.57753 0.91491 0.87831 0.0
C276 C 0.53323 0.84164 0.86034 0.0
C277 C 0.52757 0.86327 0.81293 0.0
C278 C 0.54126 0.92208 0.78082 0.0
C279 C 0.56058 0.95876 0.79681 0.0
C280 C 0.54906 0.89998 0.82253 0.0
C281 C 0.5894 0.97344 0.85049 0.0
C282 C 0.59825 0.95171 0.88994 0.0
H283 H 0.66637 0.48306 0.95223 0.0
H284 H 0.75064 0.57289 0.86107 0.0
H285 H 0.70923 0.57698 0.77247 0.0
H286 H 0.65001 0.55426 0.71869 0.0
H287 H 0.56498 0.46428 0.8074 0.0
H288 H 0.60603 0.46137 0.90049 0.0
C289 C 0.67571 0.50354 0.91297 0.0
C290 C 0.71163 0.5275 0.91286 0.0
C291 C 0.65172 0.50577 0.86219 0.0
C292 C 0.72321 0.55406 0.86216 0.0
C293 C 0.69955 0.55642 0.81152 0.0
C294 C 0.64024 0.53394 0.75833 0.0
C295 C 0.60444 0.50926 0.75553 0.0
C296 C 0.66386 0.53228 0.81075 0.0
C297 C 0.59238 0.48353 0.80822 0.0
C298 C 0.61586 0.48179 0.86117 0.0
H299 H 0.15349 0.71248 0.92299 0.0
H300 H 0.20657 0.66802 0.04705 0.0
H301 H 0.17242 0.61198 0.97004 0.0
H302 H 0.12499 0.57476 0.87284 0.0
H303 H 0.07312 0.6197 0.74653 0.0
H304 H 0.10965 0.67679 0.81834 0.0
C305 C 0.15766 0.69054 0.93287 0.0
C306 C 0.18211 0.69409 0.99108 0.0
C307 C 0.13827 0.65867 0.88792 0.0
C308 C 0.1878 0.66578 1.00258 0.0
C309 C 0.16824 0.63377 0.95877 0.0
C310 C 0.122 0.59722 0.86071 0.0
C311 C 0.09659 0.59329 0.80461 0.0
C312 C 0.14305 0.62979 0.90214 0.0
C313 C 0.09296 0.62243 0.78867 0.0
C314 C 0.11357 0.65489 0.83021 0.0
H315 H 0.51243 0.19463 0.06372 0.0
H316 H 0.40409 0.15071 0.98767 0.0
H317 H 0.41019 0.11533 0.88487 0.0
H318 H 0.44487 0.09353 0.82373 0.0
H319 H 0.55175 0.13338 0.90599 0.0
H320 H 0.54797 0.17444 0.99878 0.0
C321 C 0.49022 0.17754 0.02424 0.0
C322 C 0.45779 0.17509 0.03341 0.0
C323 C 0.49375 0.15675 0.96646 0.0
C324 C 0.42922 0.15275 0.98213 0.0
C325 C 0.43273 0.13266 0.92325 0.0
C326 C 0.46761 0.11179 0.86072 0.0
C327 C 0.49863 0.11058 0.85809 0.0
C328 C 0.46471 0.13406 0.9157 0.0
C329 C 0.52765 0.13389 0.90726 0.0
C330 C 0.5254 0.15718 0.96041 0.0
H331 H 0.37701 0.52476 0.13781 0.0
H332 H 0.31075 0.53019 0.95841 0.0
H333 H 0.34724 0.5263 0.86402 0.0
H334 H 0.39293 0.51336 0.83126 0.0
H335 H 0.45939 0.50739 0.00858 0.0
H336 H 0.4278 0.51938 0.10502 0.0
C337 C 0.37104 0.52603 0.07826 0.0
C338 C 0.34084 0.52733 0.05526 0.0
C339 C 0.3918 0.52303 0.02382 0.0
C340 C 0.3336 0.52892 0.97775 0.0
C341 C 0.35436 0.52649 0.92359 0.0
C342 C 0.4008 0.51516 0.89109 0.0
C343 C 0.42803 0.50893 0.91293 0.0
C344 C 0.38266 0.52217 0.9458 0.0
C345 C 0.43843 0.51199 0.99046 0.0
C346 C 0.42032 0.5188 0.04554 0.0
H347 H 0.82608 0.29777 0.90477 0.0
H348 H 0.83813 0.38659 0.04697 0.0
H349 H 0.88409 0.427 0.97243 0.0
H350 H 0.92377 0.43693 0.87304 0.0
H351 H 0.91091 0.34873 0.72735 0.0
H352 H 0.86203 0.30841 0.79615 0.0
C353 C 0.83865 0.32597 0.91899 0.0
C354 C 0.82905 0.3391 0.98185 0.0
C355 C 0.86486 0.34922 0.87522 0.0
C356 C 0.84513 0.37575 0.99901 0.0
C357 C 0.87146 0.39894 0.95646 0.0
C358 C 0.90997 0.40895 0.8556 0.0
C359 C 0.92121 0.39586 0.79573 0.0
C360 C 0.88193 0.38594 0.8953 0.0
C361 C 0.90283 0.35954 0.77336 0.0
C362 C 0.87499 0.33641 0.81297 0.0
H363 H 0.91181 0.54055 0.04035 0.0
H364 H 0.82086 0.45562 0.91488 0.0
H365 H 0.85702 0.45369 0.81592 0.0
H366 H 0.91361 0.48135 0.75798 0.0
H367 H 1.00195 0.5716 0.87733 0.0
H368 H 0.96786 0.56647 0.98579 0.0
C369 C 0.89987 0.52114 0.99212 0.0
C370 C 0.86363 0.49824 0.98506 0.0
C371 C 0.92043 0.52163 0.9337 0.0
C372 C 0.84867 0.47354 0.92162 0.0
C373 C 0.86932 0.47262 0.86483 0.0
C374 C 0.92535 0.4995 0.80833 0.0
C375 C 0.96014 0.52682 0.81017 0.0
C376 C 0.90506 0.49732 0.86908 0.0
C377 C 0.97516 0.5505 0.87497 0.0
C378 C 0.95569 0.54754 0.93682 0.0
H379 H 0.31298 0.89014 0.05261 0.0
H380 H 0.25616 0.82416 0.84934 0.0
H381 H 0.29699 0.86851 0.77117 0.0
H382 H 0.35376 0.92221 0.76164 0.0
H383 H 0.41236 0.98519 0.96657 0.0
H384 H 0.36602 0.9463 0.04255 0.0
C385 C 0.309 0.88582 0.99118 0.0
C386 C 0.28174 0.85375 0.95697 0.0
C387 C 0.33332 0.91083 0.94667 0.0
C388 C 0.27712 0.84854 0.87719 0.0
C389 C 0.30056 0.87384 0.83237 0.0
C390 C 0.35589 0.92777 0.82269 0.0
C391 C 0.38649 0.95628 0.85855 0.0
C392 C 0.32953 0.90452 0.86656 0.0
C393 C 0.38915 0.96311 0.93781 0.0
C394 C 0.36268 0.94089 0.98135 0.0
H395 H 0.40521 0.26862 0.95709 0.0
H396 H 0.48519 0.33818 0.12982 0.0
H397 H 0.50316 0.38705 0.04825 0.0
H398 H 0.49438 0.41044 0.93006 0.0
H399 H 0.41309 0.34065 0.7597 0.0
H400 H 0.39781 0.29129 0.83795 0.0
C401 C 0.42663 0.29444 0.97719 0.0
C402 C 0.44366 0.2997 0.04995 0.0
C403 C 0.43671 0.32234 0.93013 0.0
C404 C 0.47149 0.33337 0.07439 0.0
C405 C 0.48181 0.36131 0.02764 0.0
C406 C 0.47365 0.38434 0.9094 0.0
C407 C 0.45492 0.37935 0.8388 0.0
C408 C 0.46444 0.35615 0.95557 0.0
C409 C 0.42792 0.34534 0.81362 0.0
C410 C 0.41907 0.3171 0.85853 0.0
H411 H 0.13958 0.393 0.98948 0.0
H412 H 0.21569 0.44398 0.82761 0.0
H413 H 0.16985 0.43542 0.73303 0.0
H414 H 0.11027 0.42516 0.70672 0.0
H415 H 0.03541 0.37776 0.87189 0.0
H416 H 0.0781 0.37221 0.95353 0.0
C417 C 0.14609 0.40142 0.93289 0.0
C418 C 0.18118 0.41993 0.91652 0.0
C419 C 0.11965 0.39715 0.87916 0.0
C420 C 0.189 0.43014 0.84241 0.0
C421 C 0.16275 0.42537 0.78815 0.0
C422 C 0.10293 0.41203 0.7588 0.0
C423 C 0.06978 0.40159 0.7832 0.0
C424 C 0.12823 0.41053 0.80717 0.0
C425 C 0.06071 0.38551 0.85173 0.0
C426 C 0.08528 0.38282 0.89889 0.0
H427 H 0.69909 0.21238 0.95208 0.0
H428 H 0.62011 0.16283 0.10853 0.0
H429 H 0.5851 0.11387 0.01227 0.0
H430 H 0.57888 0.0836 0.88533 0.0
H431 H 0.66113 0.13191 0.73563 0.0
H432 H 0.69331 0.18256 0.82811 0.0
C433 C 0.67385 0.1913 0.96474 0.0
C434 C 0.66188 0.19159 0.03689 0.0
C435 C 0.65482 0.16262 0.91072 0.0
C436 C 0.62962 0.16345 0.05298 0.0
C437 C 0.6098 0.13532 0.99824 0.0
C438 C 0.60368 0.10539 0.873 0.0
C439 C 0.61754 0.10412 0.80366 0.0
C440 C 0.6224 0.13434 0.92722 0.0
C441 C 0.65009 0.13212 0.78891 0.0
C442 C 0.66838 0.16124 0.84147 0.0
H443 H 0.61156 0.71748 0.85365 0.0
H444 H 0.50292 0.68713 0.84841 0.0
H445 H 0.48837 0.6378 0.75624 0.0
H446 H 0.50499 0.5977 0.69518 0.0
H447 H 0.61208 0.62344 0.7116 0.0
H448 H 0.62913 0.68072 0.77824 0.0
C449 C 0.58481 0.70044 0.83122 0.0
C450 C 0.55831 0.70565 0.85893 0.0
C451 C 0.57644 0.67139 0.77949 0.0
C452 C 0.52376 0.68337 0.82914 0.0
C453 C 0.5154 0.6552 0.7761 0.0
C454 C 0.53224 0.61672 0.71002 0.0
C455 C 0.5574 0.60694 0.69723 0.0
C456 C 0.54132 0.64823 0.75301 0.0
C457 C 0.59249 0.63098 0.71911 0.0
C458 C 0.60207 0.66336 0.75862 0.0
H459 H 0.42962 0.15223 0.46706 0.0
H460 H 0.50771 0.19503 0.30586 0.0
H461 H 0.53238 0.1595 0.34996 0.0
H462 H 0.52875 0.11262 0.42608 0.0
H463 H 0.45243 0.07084 0.59076 0.0
H464 H 0.43007 0.10967 0.55364 0.0
C465 C 0.45235 0.15417 0.44235 0.0
C466 C 0.46655 0.17606 0.38263 0.0
C467 C 0.46643 0.13353 0.46792 0.0
C468 C 0.49622 0.17849 0.35182 0.0
C469 C 0.51022 0.15796 0.37665 0.0
C470 C 0.50727 0.11208 0.45406 0.0
C471 C 0.49181 0.08844 0.51009 0.0
C472 C 0.49499 0.13475 0.43319 0.0
C473 C 0.46459 0.08863 0.54714 0.0
C474 C 0.4518 0.11079 0.5258 0.0
H475 H 0.3492 0.45411 0.21312 0.0
H476 H 0.2639 0.4259 0.35424 0.0
H477 H 0.301 0.4303 0.4656 0.0
H478 H 0.35842 0.44519 0.52401 0.0
H479 H 0.44361 0.47367 0.38315 0.0
H480 H 0.40606 0.46682 0.27084 0.0
C481 C 0.33853 0.44834 0.26799 0.0
C482 C 0.30375 0.43951 0.27524 0.0
C483 C 0.36022 0.45172 0.33212 0.0
C484 C 0.29055 0.43267 0.34706 0.0
C485 C 0.31179 0.43534 0.41084 0.0
C486 C 0.36879 0.44983 0.46873 0.0
C487 C 0.40418 0.46087 0.46234 0.0
C488 C 0.34682 0.4454 0.40426 0.0
C489 C 0.41697 0.46649 0.39012 0.0
C490 C 0.3953 0.46206 0.32568 0.0
H491 H 0.85386 0.33514 0.25306 0.0
H492 H 0.79204 0.31265 0.44557 0.0
H493 H 0.84305 0.35782 0.52558 0.0
H494 H 0.90481 0.40683 0.53736 0.0
H495 H 0.96455 0.42737 0.34149 0.0
H496 H 0.91493 0.37925 0.26667 0.0
C497 C 0.85134 0.34009 0.3125 0.0
C498 C 0.819 0.32107 0.34294 0.0
C499 C 0.8806 0.36555 0.35774 0.0
C500 C 0.81658 0.32725 0.42056 0.0
C501 C 0.84575 0.353 0.46628 0.0
C502 C 0.90703 0.40009 0.47886 0.0
C503 C 0.93819 0.42065 0.44473 0.0
C504 C 0.8779 0.37265 0.43522 0.0
C505 C 0.94075 0.41201 0.36871 0.0
C506 C 0.91235 0.38463 0.32577 0.0
H507 H 0.60527 0.85321 0.34909 0.0
H508 H 0.50775 0.82426 0.22381 0.0
H509 H 0.49867 0.86287 0.31148 0.0
H510 H 0.52043 0.90858 0.41539 0.0
H511 H 0.61928 0.94133 0.53813 0.0
H512 H 0.62519 0.89665 0.4616 0.0
C513 C 0.58191 0.85514 0.3414 0.0
C514 C 0.55746 0.83611 0.2791 0.0
C515 C 0.57696 0.87793 0.39184 0.0
C516 C 0.52725 0.83884 0.27041 0.0
C517 C 0.52193 0.86086 0.32076 0.0
C518 C 0.54313 0.90572 0.42643 0.0
C519 C 0.56957 0.92864 0.48197 0.0
C520 C 0.54692 0.88106 0.38053 0.0
C521 C 0.59849 0.92407 0.49593 0.0
C522 C 0.60205 0.89877 0.45151 0.0
H523 H 0.68474 0.46011 0.21176 0.0
H524 H 0.76579 0.56656 0.2795 0.0
H525 H 0.7261 0.57577 0.35645 0.0
H526 H 0.66657 0.55463 0.3974 0.0
H527 H 0.58599 0.44854 0.32247 0.0
H528 H 0.6271 0.43849 0.25595 0.0
C529 C 0.69398 0.48516 0.2443 0.0
C530 C 0.7282 0.51253 0.2397 0.0
C531 C 0.67082 0.49063 0.28662 0.0
C532 C 0.73953 0.54496 0.28189 0.0
C533 C 0.71678 0.55033 0.32569 0.0
C534 C 0.65812 0.52933 0.3668 0.0
C535 C 0.62299 0.50267 0.36452 0.0
C536 C 0.68205 0.52357 0.32726 0.0
C537 C 0.61262 0.46992 0.3246 0.0
C538 C 0.63619 0.46393 0.28657 0.0
H539 H 0.22161 0.71546 0.39206 0.0
H540 H 0.1567 0.75536 0.30336 0.0
H541 H 0.11258 0.72114 0.38977 0.0
H542 H 0.08924 0.67342 0.47678 0.0
H543 H 0.15232 0.62991 0.55477 0.0
H544 H 0.20084 0.67251 0.48755 0.0
C545 C 0.19803 0.71711 0.3921 0.0
C546 C 0.19226 0.73758 0.34038 0.0
C547 C 0.17255 0.69674 0.44041 0.0
C548 C 0.16171 0.73965 0.3421 0.0
C549 C 0.13645 0.72002 0.39143 0.0
C550 C 0.11415 0.67435 0.48127 0.0
C551 C 0.11776 0.64932 0.52188 0.0
C552 C 0.14116 0.69766 0.43913 0.0
C553 C 0.14948 0.64959 0.52528 0.0
C554 C 0.17696 0.67361 0.48605 0.0
loop_
_geom_bond_atom_site_label_1
_geom_bond_atom_site_label_2
_geom_bond_distance
_geom_bond_site_symmetry_2
_ccdc_geom_bond_type
Mg0 O7 2.141 . S
Mg0 O8 2.048 . S
Mg0 O9 2.048 . S
Mg0 O12 2.141 . S
C1 O2 1.313 . S
C1 O8 1.195 . S
O2 C1 1.313 . S
C3 O4 1.245 . S
C3 O12 1.289 . S
O4 C3 1.245 . S
C5 O6 1.245 . S
C5 O7 1.289 . S
O6 C5 1.245 . S
O7 Mg0 2.141 . S
O7 C5 1.289 . S
O8 Mg0 2.048 . S
O8 C1 1.195 . S
O9 Mg0 2.048 . S
O9 C10 1.195 . S
C10 O9 1.195 . S
C10 O11 1.313 . S
O11 C10 1.313 . S
O12 Mg0 2.141 . S
O12 C3 1.289 . S
Mg13 O20 2.141 . S
Mg13 O21 2.048 . S
Mg13 O22 2.048 . S
Mg13 O25 2.141 . S
C14 O15 1.313 . S
C14 O21 1.193 1_556 S
O15 C14 1.313 . S
C16 O17 1.245 . S
C16 O25 1.289 . S
O17 C16 1.245 . S
C18 O19 1.245 . S
C18 O20 1.289 . S
O19 C18 1.245 . S
O20 Mg13 2.141 . S
O20 C18 1.289 . S
O21 Mg13 2.048 . S
O21 C14 1.193 1_554 S
O22 Mg13 2.048 . S
O22 C23 1.195 1_554 S
C23 O22 1.195 1_556 S
C23 O24 1.313 . S
O24 C23 1.313 . S
O25 Mg13 2.141 . S
O25 C16 1.289 . S
Mg26 O33 2.141 1_554 S
Mg26 O34 2.048 . S
Mg26 O35 2.048 . S
Mg26 O38 2.141 1_554 S
C27 O28 1.313 . S
C27 O34 1.195 . S
O28 C27 1.313 . S
C29 O30 1.245 . S
C29 O38 1.289 . S
O30 C29 1.245 . S
C31 O32 1.245 . S
C31 O33 1.289 . S
O32 C31 1.245 . S
O33 Mg26 2.141 1_556 S
O33 C31 1.289 . S
O34 Mg26 2.048 . S
O34 C27 1.195 . S
O35 Mg26 2.048 . S
O35 C36 1.195 . S
C36 O35 1.195 . S
C36 O37 1.313 . S
O37 C36 1.313 . S
O38 Mg26 2.141 1_556 S
O38 C29 1.289 . S
Mg39 O46 2.141 . S
Mg39 O47 2.048 1_554 S
Mg39 O48 2.048 1_554 S
Mg39 O51 2.141 . S
C40 O41 1.313 . S
C40 O47 1.195 . S
O41 C40 1.313 . S
C42 O43 1.245 . S
C42 O51 1.289 . S
O43 C42 1.245 . S
C44 O45 1.245 . S
C44 O46 1.289 . S
O45 C44 1.245 . S
O46 Mg39 2.141 . S
O46 C44 1.289 . S
O47 Mg39 2.048 1_556 S
O47 C40 1.195 . S
O48 Mg39 2.048 1_556 S
O48 C49 1.195 . S
C49 O48 1.195 . S
C49 O50 1.313 . S
O50 C49 1.313 . S
O51 Mg39 2.141 . S
O51 C42 1.289 . S
Mg52 O59 2.141 . S
Mg52 O60 2.048 . S
Mg52 O61 2.048 . S
Mg52 O64 2.141 . S
C53 O54 1.313 . S
C53 O60 1.195 . S
O54 C53 1.313 . S
C55 O56 1.245 . S
C55 O64 1.289 . S
O56 C55 1.245 . S
C57 O58 1.245 . S
C57 O59 1.289 . S
O58 C57 1.245 . S
O59 Mg52 2.141 . S
O59 C57 1.289 . S
O60 Mg52 2.048 . S
O60 C53 1.195 . S
O61 Mg52 2.048 . S
O61 C62 1.195 . S
C62 O61 1.195 . S
C62 O63 1.313 . S
O63 C62 1.313 . S
O64 Mg52 2.141 . S
O64 C55 1.289 . S
Mg65 O72 2.141 . S
Mg65 O73 2.048 . S
Mg65 O74 2.048 . S
Mg65 O77 2.141 . S
C66 O67 1.313 . S
C66 O73 1.195 . S
O67 C66 1.313 . S
C68 O69 1.245 . S
C68 O77 1.289 . S
O69 C68 1.245 . S
C70 O71 1.245 . S
C70 O72 1.289 . S
O71 C70 1.245 . S
O72 Mg65 2.141 . S
O72 C70 1.289 . S
O73 Mg65 2.048 . S
O73 C66 1.195 . S
O74 Mg65 2.048 . S
O74 C75 1.195 . S
C75 O74 1.195 . S
C75 O76 1.313 . S
O76 C75 1.313 . S
O77 Mg65 2.141 . S
O77 C68 1.289 . S
C78 O105 1.312 . S
C78 O106 1.208 . S
C79 O100 1.331 . S
C79 O103 1.244 . S
C80 O102 1.264 . S
C80 O104 1.273 . S
Mg81 O83 1.936 1_455 S
Mg81 O90 2.081 1_455 S
Mg81 O92 2.023 . S
Mg81 O96 2.031 1_455 S
Mg81 O105 2.291 . S
Mg82 O83 1.963 . S
Mg82 O93 1.942 . S
Mg82 O94 1.955 1_655 S
Mg82 O101 1.986 . S
O83 Mg81 1.936 1_655 S
O83 Mg82 1.963 . S
O83 Mg84 1.915 1_655 S
Mg84 O83 1.915 1_455 S
Mg84 O85 1.915 . S
Mg84 O89 2.013 . S
Mg84 O95 2.114 1_455 S
Mg84 O99 2.013 1_455 S
Mg84 O105 2.114 . S
O85 Mg84 1.915 . S
O85 Mg86 1.936 . S
O85 Mg87 1.963 . S
Mg86 O85 1.936 . S
Mg86 O95 2.291 1_455 S
Mg86 O100 2.081 . S
Mg86 O102 2.023 1_455 S
Mg86 O106 2.031 . S
Mg87 O85 1.963 . S
Mg87 O91 1.986 . S
Mg87 O103 1.942 . S
Mg87 O104 1.955 1_455 S
C88 O99 1.191 . S
C88 O101 1.307 . S
O89 Mg84 2.013 . S
O89 C108 1.191 . S
O90 Mg81 2.081 1_655 S
O90 C98 1.331 . S
O91 Mg87 1.986 . S
O91 C108 1.307 . S
O92 Mg81 2.023 . S
O92 C107 1.264 . S
O93 Mg82 1.942 . S
O93 C98 1.244 . S
O94 Mg82 1.955 1_455 S
O94 C107 1.273 . S
O95 Mg84 2.114 1_655 S
O95 Mg86 2.291 1_655 S
O95 C97 1.312 . S
O96 Mg81 2.031 1_655 S
O96 C97 1.208 . S
C97 O95 1.312 . S
C97 O96 1.208 . S
C98 O90 1.331 . S
C98 O93 1.244 . S
O99 Mg84 2.013 1_655 S
O99 C88 1.191 . S
O100 C79 1.331 . S
O100 Mg86 2.081 . S
O101 Mg82 1.986 . S
O101 C88 1.307 . S
O102 C80 1.264 . S
O102 Mg86 2.023 1_655 S
O103 C79 1.244 . S
O103 Mg87 1.942 . S
O104 C80 1.273 . S
O104 Mg87 1.955 1_655 S
O105 C78 1.312 . S
O105 Mg81 2.291 . S
O105 Mg84 2.114 . S
O106 C78 1.208 . S
O106 Mg86 2.031 . S
C107 O92 1.264 . S
C107 O94 1.273 . S
C108 O89 1.191 . S
C108 O91 1.307 . S
C109 O136 1.312 . S
C109 O137 1.208 . S
C110 O131 1.331 . S
C110 O134 1.244 . S
C111 O133 1.264 . S
C111 O135 1.273 . S
Mg112 O114 1.936 1_545 S
Mg112 O121 2.081 1_545 S
Mg112 O123 2.023 . S
Mg112 O127 2.031 1_545 S
Mg112 O136 2.291 . S
Mg113 O114 1.963 . S
Mg113 O124 1.942 . S
Mg113 O125 1.955 1_565 S
Mg113 O132 1.986 . S
O114 Mg112 1.936 1_565 S
O114 Mg113 1.963 . S
O114 Mg115 1.915 1_565 S
Mg115 O114 1.915 1_545 S
Mg115 O116 1.915 . S
Mg115 O120 2.013 . S
Mg115 O126 2.114 1_545 S
Mg115 O130 2.013 1_545 S
Mg115 O136 2.114 . S
O116 Mg115 1.915 . S
O116 Mg117 1.936 . S
O116 Mg118 1.963 . S
Mg117 O116 1.936 . S
Mg117 O126 2.291 1_545 S
Mg117 O131 2.081 . S
Mg117 O133 2.023 1_545 S
Mg117 O137 2.031 . S
Mg118 O116 1.963 . S
Mg118 O122 1.986 . S
Mg118 O134 1.942 . S
Mg118 O135 1.955 1_545 S
C119 O130 1.191 . S
C119 O132 1.307 . S
O120 Mg115 2.013 . S
O120 C139 1.191 . S
O121 Mg112 2.081 1_565 S
O121 C129 1.331 . S
O122 Mg118 1.986 . S
O122 C139 1.307 . S
O123 Mg112 2.023 . S
O123 C138 1.264 . S
O124 Mg113 1.942 . S
O124 C129 1.244 . S
O125 Mg113 1.955 1_545 S
O125 C138 1.273 . S
O126 Mg115 2.114 1_565 S
O126 Mg117 2.291 1_565 S
O126 C128 1.312 . S
O127 Mg112 2.031 1_565 S
O127 C128 1.208 . S
C128 O126 1.312 . S
C128 O127 1.208 . S
C129 O121 1.331 . S
C129 O124 1.244 . S
O130 Mg115 2.013 1_565 S
O130 C119 1.191 . S
O131 C110 1.331 . S
O131 Mg117 2.081 . S
O132 Mg113 1.986 . S
O132 C119 1.307 . S
O133 C111 1.264 . S
O133 Mg117 2.023 1_565 S
O134 C110 1.244 . S
O134 Mg118 1.942 . S
O135 C111 1.273 . S
O135 Mg118 1.955 1_565 S
O136 C109 1.312 . S
O136 Mg112 2.291 . S
O136 Mg115 2.114 . S
O137 C109 1.208 . S
O137 Mg117 2.031 . S
C138 O123 1.264 . S
C138 O125 1.273 . S
C139 O120 1.191 . S
C139 O122 1.307 . S
C140 O167 1.312 . S
C140 O168 1.208 . S
C141 O162 1.331 . S
C141 O165 1.244 . S
C142 O164 1.264 . S
C142 O166 1.273 . S
Mg143 O145 1.936 . S
Mg143 O152 2.081 . S
Mg143 O154 2.023 . S
Mg143 O158 2.031 . S
Mg143 O167 2.291 . S
Mg144 O145 1.963 . S
Mg144 O155 1.942 . S
Mg144 O156 1.955 . S
Mg144 O163 1.986 . S
O145 Mg143 1.936 . S
O145 Mg144 1.963 . S
O145 Mg146 1.915 . S
Mg146 O145 1.915 . S
Mg146 O147 1.915 . S
Mg146 O151 2.013 . S
Mg146 O157 2.114 . S
Mg146 O161 2.013 . S
Mg146 O167 2.114 . S
O147 Mg146 1.915 . S
O147 Mg148 1.936 . S
O147 Mg149 1.963 . S
Mg148 O147 1.936 . S
Mg148 O157 2.291 . S
Mg148 O162 2.081 . S
Mg148 O164 2.023 . S
Mg148 O168 2.031 . S
Mg149 O147 1.963 . S
Mg149 O153 1.986 . S
Mg149 O165 1.942 . S
Mg149 O166 1.955 . S
C150 O161 1.191 . S
C150 O163 1.307 . S
O151 Mg146 2.013 . S
O151 C170 1.191 . S
O152 Mg143 2.081 . S
O152 C160 1.331 . S
O153 Mg149 1.986 . S
O153 C170 1.307 . S
O154 Mg143 2.023 . S
O154 C169 1.264 . S
O155 Mg144 1.942 . S
O155 C160 1.244 . S
O156 Mg144 1.955 . S
O156 C169 1.273 . S
O157 Mg146 2.114 . S
O157 Mg148 2.291 . S
O157 C159 1.312 . S
O158 Mg143 2.031 . S
O158 C159 1.208 . S
C159 O157 1.312 . S
C159 O158 1.208 . S
C160 O152 1.331 . S
C160 O155 1.244 . S
O161 Mg146 2.013 . S
O161 C150 1.191 . S
O162 C141 1.331 . S
O162 Mg148 2.081 . S
O163 Mg144 1.986 . S
O163 C150 1.307 . S
O164 C142 1.264 . S
O164 Mg148 2.023 . S
O165 C141 1.244 . S
O165 Mg149 1.942 . S
O166 C142 1.273 . S
O166 Mg149 1.955 . S
O167 C140 1.312 . S
O167 Mg143 2.291 . S
O167 Mg146 2.114 . S
O168 C140 1.208 . S
O168 Mg148 2.031 . S
C169 O154 1.264 . S
C169 O156 1.273 . S
C170 O151 1.191 . S
C170 O153 1.307 . S
H171 C177 0.930 . S
H172 C180 0.930 . S
H173 C181 0.930 . S
H174 C182 0.930 . S
H175 C185 0.930 . S
H176 C186 0.930 . S
C177 H171 0.930 . S
C177 C178 1.355 . S
C177 C179 1.415 . S
C178 C177 1.355 . S
C178 C180 1.419 . S
C179 C177 1.415 . S
C179 C184 1.425 . S
C179 C186 1.409 . S
C180 H172 0.930 . S
C180 C178 1.419 . S
C180 C181 1.362 . S
C181 H173 0.930 . S
C181 C180 1.362 . S
C181 C184 1.409 . S
C182 H174 0.930 . S
C182 C183 1.355 . S
C182 C184 1.415 . S
C183 C182 1.355 . S
C183 C185 1.419 . S
C184 C179 1.425 . S
C184 C181 1.409 . S
C184 C182 1.415 . S
C185 H175 0.930 . S
C185 C183 1.419 . S
C185 C186 1.362 . S
C186 H176 0.930 . S
C186 C179 1.409 . S
C186 C185 1.362 . S
H187 C193 0.930 . S
H188 C196 0.930 . S
H189 C197 0.930 . S
H190 C198 0.930 . S
H191 C201 0.930 . S
H192 C202 0.930 . S
C193 H187 0.930 . S
C193 C194 1.355 . S
C193 C195 1.415 . S
C194 C193 1.355 . S
C194 C196 1.419 . S
C195 C193 1.415 . S
C195 C200 1.425 . S
C195 C202 1.409 . S
C196 H188 0.930 . S
C196 C194 1.419 . S
C196 C197 1.362 . S
C197 H189 0.930 . S
C197 C196 1.362 . S
C197 C200 1.409 . S
C198 H190 0.930 . S
C198 C199 1.355 . S
C198 C200 1.415 . S
C199 C198 1.355 . S
C199 C201 1.419 . S
C200 C195 1.425 . S
C200 C197 1.409 . S
C200 C198 1.415 . S
C201 H191 0.930 . S
C201 C199 1.419 . S
C201 C202 1.362 . S
C202 H192 0.930 . S
C202 C195 1.409 . S
C202 C201 1.362 . S
H203 C209 0.930 . S
H204 C212 0.930 . S
H205 C213 0.930 . S
H206 C214 0.930 . S
H207 C217 0.930 . S
H208 C218 0.930 . S
C209 H203 0.930 . S
C209 C210 1.355 . S
C209 C211 1.415 . S
C210 C209 1.355 . S
C210 C212 1.419 . S
C211 C209 1.415 . S
C211 C216 1.425 . S
C211 C218 1.409 . S
C212 H204 0.930 . S
C212 C210 1.419 . S
C212 C213 1.362 . S
C213 H205 0.930 . S
C213 C212 1.362 . S
C213 C216 1.409 . S
C214 H206 0.930 . S
C214 C215 1.355 . S
C214 C216 1.415 . S
C215 C214 1.355 . S
C215 C217 1.419 . S
C216 C211 1.425 . S
C216 C213 1.409 . S
C216 C214 1.415 . S
C217 H207 0.930 . S
C217 C215 1.419 . S
C217 C218 1.362 . S
C218 H208 0.930 . S
C218 C211 1.409 . S
C218 C217 1.362 . S
H219 C225 0.930 . S
H220 C228 0.930 . S
H221 C229 0.930 . S
H222 C230 0.930 . S
H223 C233 0.930 . S
H224 C234 0.930 . S
C225 H219 0.930 . S
C225 C226 1.355 . S
C225 C227 1.415 . S
C226 C225 1.355 . S
C226 C228 1.419 . S
C227 C225 1.415 . S
C227 C232 1.425 . S
C227 C234 1.409 . S
C228 H220 0.930 . S
C228 C226 1.419 . S
C228 C229 1.362 . S
C229 H221 0.930 . S
C229 C228 1.362 . S
C229 C232 1.409 . S
C230 H222 0.930 . S
C230 C231 1.355 . S
C230 C232 1.415 . S
C231 C230 1.355 . S
C231 C233 1.419 . S
C232 C227 1.425 . S
C232 C229 1.409 . S
C232 C230 1.415 . S
C233 H223 0.930 . S
C233 C231 1.419 . S
C233 C234 1.362 . S
C234 H224 0.930 . S
C234 C227 1.409 . S
C234 C233 1.362 . S
H235 C241 0.930 . S
H236 C244 0.930 . S
H237 C245 0.930 . S
H238 C246 0.930 . S
H239 C249 0.930 . S
H240 C250 0.930 . S
C241 H235 0.930 . S
C241 C242 1.355 . S
C241 C243 1.415 . S
C242 C241 1.355 . S
C242 C244 1.419 . S
C243 C241 1.415 . S
C243 C248 1.425 . S
C243 C250 1.409 . S
C244 H236 0.930 . S
C244 C242 1.419 . S
C244 C245 1.362 . S
C245 H237 0.930 . S
C245 C244 1.362 . S
C245 C248 1.409 . S
C246 H238 0.930 . S
C246 C247 1.355 . S
C246 C248 1.415 . S
C247 C246 1.355 . S
C247 C249 1.419 . S
C248 C243 1.425 . S
C248 C245 1.409 . S
C248 C246 1.415 . S
C249 H239 0.930 . S
C249 C247 1.419 . S
C249 C250 1.362 . S
C250 H240 0.930 . S
C250 C243 1.409 . S
C250 C249 1.362 . S
H251 C257 0.930 . S
H252 C260 0.930 . S
H253 C261 0.930 . S
H254 C262 0.930 . S
H255 C265 0.930 . S
H256 C266 0.930 . S
C257 H251 0.930 . S
C257 C258 1.355 . S
C257 C259 1.415 . S
C258 C257 1.355 . S
C258 C260 1.419 . S
C259 C257 1.415 . S
C259 C264 1.425 . S
C259 C266 1.409 . S
C260 H252 0.930 . S
C260 C258 1.419 . S
C260 C261 1.362 . S
C261 H253 0.930 . S
C261 C260 1.362 . S
C261 C264 1.409 . S
C262 H254 0.930 . S
C262 C263 1.355 . S
C262 C264 1.415 . S
C263 C262 1.355 . S
C263 C265 1.419 . S
C264 C259 1.425 . S
C264 C261 1.409 . S
C264 C262 1.415 . S
C265 H255 0.930 . S
C265 C263 1.419 . S
C265 C266 1.362 . S
C266 H256 0.930 . S
C266 C259 1.409 . S
C266 C265 1.362 . S
H267 C273 0.930 . S
H268 C276 0.930 . S
H269 C277 0.930 . S
H270 C278 0.930 . S
H271 C281 0.930 . S
H272 C282 0.930 . S
C273 H267 0.930 . S
C273 C274 1.355 . S
C273 C275 1.415 . S
C274 C273 1.355 . S
C274 C276 1.419 . S
C275 C273 1.415 . S
C275 C280 1.425 . S
C275 C282 1.409 . S
C276 H268 0.930 . S
C276 C274 1.419 . S
C276 C277 1.362 . S
C277 H269 0.930 . S
C277 C276 1.362 . S
C277 C280 1.409 . S
C278 H270 0.930 . S
C278 C279 1.355 . S
C278 C280 1.415 . S
C279 C278 1.355 . S
C279 C281 1.419 . S
C280 C275 1.425 . S
C280 C277 1.409 . S
C280 C278 1.415 . S
C281 H271 0.930 . S
C281 C279 1.419 . S
C281 C282 1.362 . S
C282 H272 0.930 . S
C282 C275 1.409 . S
C282 C281 1.362 . S
H283 C289 0.930 . S
H284 C292 0.930 . S
H285 C293 0.930 . S
H286 C294 0.930 . S
H287 C297 0.930 . S
H288 C298 0.930 . S
C289 H283 0.930 . S
C289 C290 1.355 . S
C289 C291 1.415 . S
C290 C289 1.355 . S
C290 C292 1.419 . S
C291 C289 1.415 . S
C291 C296 1.425 . S
C291 C298 1.409 . S
C292 H284 0.930 . S
C292 C290 1.419 . S
C292 C293 1.362 . S
C293 H285 0.930 . S
C293 C292 1.362 . S
C293 C296 1.409 . S
C294 H286 0.930 . S
C294 C295 1.355 . S
C294 C296 1.415 . S
C295 C294 1.355 . S
C295 C297 1.419 . S
C296 C291 1.425 . S
C296 C293 1.409 . S
C296 C294 1.415 . S
C297 H287 0.930 . S
C297 C295 1.419 . S
C297 C298 1.362 . S
C298 H288 0.930 . S
C298 C291 1.409 . S
C298 C297 1.362 . S
H299 C305 0.930 . S
H300 C308 0.930 1_554 S
H301 C309 0.930 . S
H302 C310 0.930 . S
H303 C313 0.930 . S
H304 C314 0.930 . S
C305 H299 0.930 . S
C305 C306 1.355 . S
C305 C307 1.415 . S
C306 C305 1.355 . S
C306 C308 1.419 . S
C307 C305 1.415 . S
C307 C312 1.425 . S
C307 C314 1.409 . S
C308 H300 0.930 1_556 S
C308 C306 1.419 . S
C308 C309 1.362 . S
C309 H301 0.930 . S
C309 C308 1.362 . S
C309 C312 1.409 . S
C310 H302 0.930 . S
C310 C311 1.355 . S
C310 C312 1.415 . S
C311 C310 1.355 . S
C311 C313 1.419 . S
C312 C307 1.425 . S
C312 C309 1.409 . S
C312 C310 1.415 . S
C313 H303 0.930 . S
C313 C311 1.419 . S
C313 C314 1.362 . S
C314 H304 0.930 . S
C314 C307 1.409 . S
C314 C313 1.362 . S
H315 C321 0.930 . S
H316 C324 0.930 . S
H317 C325 0.930 1_554 S
H318 C326 0.930 . S
H319 C329 0.930 . S
H320 C330 0.930 . S
C321 H315 0.930 . S
C321 C322 1.355 1_556 S
C321 C323 1.415 . S
C322 C321 1.355 1_554 S
C322 C324 1.419 . S
C323 C321 1.415 . S
C323 C328 1.425 . S
C323 C330 1.409 . S
C324 H316 0.930 . S
C324 C322 1.419 . S
C324 C325 1.362 1_554 S
C325 H317 0.930 1_556 S
C325 C324 1.362 1_556 S
C325 C328 1.409 . S
C326 H318 0.930 . S
C326 C327 1.355 . S
C326 C328 1.415 . S
C327 C326 1.355 . S
C327 C329 1.419 . S
C328 C323 1.425 . S
C328 C325 1.409 . S
C328 C326 1.415 . S
C329 H319 0.930 . S
C329 C327 1.419 . S
C329 C330 1.362 . S
C330 H320 0.930 . S
C330 C323 1.409 . S
C330 C329 1.362 . S
H331 C337 0.930 . S
H332 C340 0.930 . S
H333 C341 0.930 . S
H334 C342 0.930 . S
H335 C345 0.930 . S
H336 C346 0.930 1_554 S
C337 H331 0.930 . S
C337 C338 1.355 . S
C337 C339 1.415 1_554 S
C338 C337 1.355 . S
C338 C340 1.419 1_554 S
C339 C337 1.415 1_556 S
C339 C344 1.425 . S
C339 C346 1.409 . S
C340 H332 0.930 . S
C340 C338 1.419 1_556 S
C340 C341 1.362 . S
C341 H333 0.930 . S
C341 C340 1.362 . S
C341 C344 1.409 . S
C342 H334 0.930 . S
C342 C343 1.355 . S
C342 C344 1.415 . S
C343 C342 1.355 . S
C343 C345 1.419 . S
C344 C339 1.425 . S
C344 C341 1.409 . S
C344 C342 1.415 . S
C345 H335 0.930 . S
C345 C343 1.419 . S
C345 C346 1.362 . S
C346 H336 0.930 1_556 S
C346 C339 1.409 . S
C346 C345 1.362 . S
H347 C353 0.930 . S
H348 C356 0.930 . S
H349 C357 0.930 . S
H350 C358 0.930 . S
H351 C361 0.930 . S
H352 C362 0.930 . S
C353 H347 0.930 . S
C353 C354 1.355 . S
C353 C355 1.415 . S
C354 C353 1.355 . S
C354 C356 1.419 . S
C355 C353 1.415 . S
C355 C360 1.425 . S
C355 C362 1.409 . S
C356 H348 0.930 . S
C356 C354 1.419 . S
C356 C357 1.362 . S
C357 H349 0.930 . S
C357 C356 1.362 . S
C357 C360 1.409 . S
C358 H350 0.930 . S
C358 C359 1.355 . S
C358 C360 1.415 . S
C359 C358 1.355 . S
C359 C361 1.419 . S
C360 C355 1.425 . S
C360 C357 1.409 . S
C360 C358 1.415 . S
C361 H351 0.930 . S
C361 C359 1.419 . S
C361 C362 1.362 . S
C362 H352 0.930 . S
C362 C355 1.409 . S
C362 C361 1.362 . S
H363 C369 0.930 . S
H364 C372 0.930 . S
H365 C373 0.930 . S
H366 C374 0.930 . S
H367 C377 0.930 . S
H368 C378 0.930 . S
C369 H363 0.930 . S
C369 C370 1.355 . S
C369 C371 1.415 . S
C370 C369 1.355 . S
C370 C372 1.419 . S
C371 C369 1.415 . S
C371 C376 1.425 . S
C371 C378 1.409 . S
C372 H364 0.930 . S
C372 C370 1.419 . S
C372 C373 1.362 . S
C373 H365 0.930 . S
C373 C372 1.362 . S
C373 C376 1.409 . S
C374 H366 0.930 . S
C374 C375 1.355 . S
C374 C376 1.415 . S
C375 C374 1.355 . S
C375 C377 1.419 . S
C376 C371 1.425 . S
C376 C373 1.409 . S
C376 C374 1.415 . S
C377 H367 0.930 . S
C377 C375 1.419 . S
C377 C378 1.362 . S
C378 H368 0.930 . S
C378 C371 1.409 . S
C378 C377 1.362 . S
H379 C385 0.930 1_554 S
H380 C388 0.930 . S
H381 C389 0.930 . S
H382 C390 0.930 . S
H383 C393 0.930 . S
H384 C394 0.930 . S
C385 H379 0.930 1_556 S
C385 C386 1.355 . S
C385 C387 1.415 . S
C386 C385 1.355 . S
C386 C388 1.419 . S
C387 C385 1.415 . S
C387 C392 1.425 . S
C387 C394 1.409 . S
C388 H380 0.930 . S
C388 C386 1.419 . S
C388 C389 1.362 . S
C389 H381 0.930 . S
C389 C388 1.362 . S
C389 C392 1.409 . S
C390 H382 0.930 . S
C390 C391 1.355 . S
C390 C392 1.415 . S
C391 C390 1.355 . S
C391 C393 1.419 . S
C392 C387 1.425 . S
C392 C389 1.409 . S
C392 C390 1.415 . S
C393 H383 0.930 . S
C393 C391 1.419 . S
C393 C394 1.362 . S
C394 H384 0.930 . S
C394 C387 1.409 . S
C394 C393 1.362 . S
H395 C401 0.930 . S
H396 C404 0.930 . S
H397 C405 0.930 . S
H398 C406 0.930 . S
H399 C409 0.930 . S
H400 C410 0.930 1_554 S
C401 H395 0.930 . S
C401 C402 1.355 . S
C401 C403 1.415 1_554 S
C402 C401 1.355 . S
C402 C404 1.419 1_554 S
C403 C401 1.415 1_556 S
C403 C408 1.425 . S
C403 C410 1.409 . S
C404 H396 0.930 . S
C404 C402 1.419 1_556 S
C404 C405 1.362 . S
C405 H397 0.930 . S
C405 C404 1.362 . S
C405 C408 1.409 . S
C406 H398 0.930 . S
C406 C407 1.355 . S
C406 C408 1.415 . S
C407 C406 1.355 . S
C407 C409 1.419 . S
C408 C403 1.425 . S
C408 C405 1.409 . S
C408 C406 1.415 . S
C409 H399 0.930 . S
C409 C407 1.419 . S
C409 C410 1.362 . S
C410 H400 0.930 1_556 S
C410 C403 1.409 . S
C410 C409 1.362 . S
H411 C417 0.930 . S
H412 C420 0.930 . S
H413 C421 0.930 . S
H414 C422 0.930 . S
H415 C425 0.930 . S
H416 C426 0.930 1_554 S
C417 H411 0.930 . S
C417 C418 1.355 . S
C417 C419 1.415 1_554 S
C418 C417 1.355 . S
C418 C420 1.419 1_554 S
C419 C417 1.415 1_556 S
C419 C424 1.425 . S
C419 C426 1.409 . S
C420 H412 0.930 . S
C420 C418 1.419 1_556 S
C420 C421 1.362 . S
C421 H413 0.930 . S
C421 C420 1.362 . S
C421 C424 1.409 . S
C422 H414 0.930 . S
C422 C423 1.355 . S
C422 C424 1.415 . S
C423 C422 1.355 . S
C423 C425 1.419 . S
C424 C419 1.425 . S
C424 C421 1.409 . S
C424 C422 1.415 . S
C425 H415 0.930 . S
C425 C423 1.419 . S
C425 C426 1.362 . S
C426 H416 0.930 1_556 S
C426 C419 1.409 . S
C426 C425 1.362 . S
H427 C433 0.930 . S
H428 C436 0.930 1_554 S
H429 C437 0.930 . S
H430 C438 0.930 . S
H431 C441 0.930 . S
H432 C442 0.930 . S
C433 H427 0.930 . S
C433 C434 1.355 . S
C433 C435 1.415 . S
C434 C433 1.355 . S
C434 C436 1.419 . S
C435 C433 1.415 . S
C435 C440 1.425 . S
C435 C442 1.409 . S
C436 H428 0.930 1_556 S
C436 C434 1.419 . S
C436 C437 1.362 . S
C437 H429 0.930 . S
C437 C436 1.362 . S
C437 C440 1.409 . S
C438 H430 0.930 . S
C438 C439 1.355 . S
C438 C440 1.415 . S
C439 C438 1.355 . S
C439 C441 1.419 . S
C440 C435 1.425 . S
C440 C437 1.409 . S
C440 C438 1.415 . S
C441 H431 0.930 . S
C441 C439 1.419 . S
C441 C442 1.362 . S
C442 H432 0.930 . S
C442 C435 1.409 . S
C442 C441 1.362 . S
H443 C449 0.930 . S
H444 C452 0.930 . S
H445 C453 0.930 . S
H446 C454 0.930 . S
H447 C457 0.930 . S
H448 C458 0.930 . S
C449 H443 0.930 . S
C449 C450 1.355 . S
C449 C451 1.415 . S
C450 C449 1.355 . S
C450 C452 1.419 . S
C451 C449 1.415 . S
C451 C456 1.425 . S
C451 C458 1.409 . S
C452 H444 0.930 . S
C452 C450 1.419 . S
C452 C453 1.362 . S
C453 H445 0.930 . S
C453 C452 1.362 . S
C453 C456 1.409 . S
C454 H446 0.930 . S
C454 C455 1.355 . S
C454 C456 1.415 . S
C455 C454 1.355 . S
C455 C457 1.419 . S
C456 C451 1.425 . S
C456 C453 1.409 . S
C456 C454 1.415 . S
C457 H447 0.930 . S
C457 C455 1.419 . S
C457 C458 1.362 . S
C458 H448 0.930 . S
C458 C451 1.409 . S
C458 C457 1.362 . S
H459 C465 0.930 . S
H460 C468 0.930 . S
H461 C469 0.930 . S
H462 C470 0.930 . S
H463 C473 0.930 . S
H464 C474 0.930 . S
C465 H459 0.930 . S
C465 C466 1.355 . S
C465 C467 1.415 . S
C466 C465 1.355 . S
C466 C468 1.419 . S
C467 C465 1.415 . S
C467 C472 1.425 . S
C467 C474 1.409 . S
C468 H460 0.930 . S
C468 C466 1.419 . S
C468 C469 1.362 . S
C469 H461 0.930 . S
C469 C468 1.362 . S
C469 C472 1.409 . S
C470 H462 0.930 . S
C470 C471 1.355 . S
C470 C472 1.415 . S
C471 C470 1.355 . S
C471 C473 1.419 . S
C472 C467 1.425 . S
C472 C469 1.409 . S
C472 C470 1.415 . S
C473 H463 0.930 . S
C473 C471 1.419 . S
C473 C474 1.362 . S
C474 H464 0.930 . S
C474 C467 1.409 . S
C474 C473 1.362 . S
H475 C481 0.930 . S
H476 C484 0.930 . S
H477 C485 0.930 . S
H478 C486 0.930 . S
H479 C489 0.930 . S
H480 C490 0.930 . S
C481 H475 0.930 . S
C481 C482 1.355 . S
C481 C483 1.415 . S
C482 C481 1.355 . S
C482 C484 1.419 . S
C483 C481 1.415 . S
C483 C488 1.425 . S
C483 C490 1.409 . S
C484 H476 0.930 . S
C484 C482 1.419 . S
C484 C485 1.362 . S
C485 H477 0.930 . S
C485 C484 1.362 . S
C485 C488 1.409 . S
C486 H478 0.930 . S
C486 C487 1.355 . S
C486 C488 1.415 . S
C487 C486 1.355 . S
C487 C489 1.419 . S
C488 C483 1.425 . S
C488 C485 1.409 . S
C488 C486 1.415 . S
C489 H479 0.930 . S
C489 C487 1.419 . S
C489 C490 1.362 . S
C490 H480 0.930 . S
C490 C483 1.409 . S
C490 C489 1.362 . S
H491 C497 0.930 . S
H492 C500 0.930 . S
H493 C501 0.930 . S
H494 C502 0.930 . S
H495 C505 0.930 . S
H496 C506 0.930 . S
C497 H491 0.930 . S
C497 C498 1.355 . S
C497 C499 1.415 . S
C498 C497 1.355 . S
C498 C500 1.419 . S
C499 C497 1.415 . S
C499 C504 1.425 . S
C499 C506 1.409 . S
C500 H492 0.930 . S
C500 C498 1.419 . S
C500 C501 1.362 . S
C501 H493 0.930 . S
C501 C500 1.362 . S
C501 C504 1.409 . S
C502 H494 0.930 . S
C502 C503 1.355 . S
C502 C504 1.415 . S
C503 C502 1.355 . S
C503 C505 1.419 . S
C504 C499 1.425 . S
C504 C501 1.409 . S
C504 C502 1.415 . S
C505 H495 0.930 . S
C505 C503 1.419 . S
C505 C506 1.362 . S
C506 H496 0.930 . S
C506 C499 1.409 . S
C506 C505 1.362 . S
H507 C513 0.930 . S
H508 C516 0.930 . S
H509 C517 0.930 . S
H510 C518 0.930 . S
H511 C521 0.930 . S
H512 C522 0.930 . S
C513 H507 0.930 . S
C513 C514 1.355 . S
C513 C515 1.415 . S
C514 C513 1.355 . S
C514 C516 1.419 . S
C515 C513 1.415 . S
C515 C520 1.425 . S
C515 C522 1.409 . S
C516 H508 0.930 . S
C516 C514 1.419 . S
C516 C517 1.362 . S
C517 H509 0.930 . S
C517 C516 1.362 . S
C517 C520 1.409 . S
C518 H510 0.930 . S
C518 C519 1.355 . S
C518 C520 1.415 . S
C519 C518 1.355 . S
C519 C521 1.419 . S
C520 C515 1.425 . S
C520 C517 1.409 . S
C520 C518 1.415 . S
C521 H511 0.930 . S
C521 C519 1.419 . S
C521 C522 1.362 . S
C522 H512 0.930 . S
C522 C515 1.409 . S
C522 C521 1.362 . S
H523 C529 0.930 . S
H524 C532 0.930 . S
H525 C533 0.930 . S
H526 C534 0.930 . S
H527 C537 0.930 . S
H528 C538 0.930 . S
C529 H523 0.930 . S
C529 C530 1.355 . S
C529 C531 1.415 . S
C530 C529 1.355 . S
C530 C532 1.419 . S
C531 C529 1.415 . S
C531 C536 1.425 . S
C531 C538 1.409 . S
C532 H524 0.930 . S
C532 C530 1.419 . S
C532 C533 1.362 . S
C533 H525 0.930 . S
C533 C532 1.362 . S
C533 C536 1.409 . S
C534 H526 0.930 . S
C534 C535 1.355 . S
C534 C536 1.415 . S
C535 C534 1.355 . S
C535 C537 1.419 . S
C536 C531 1.425 . S
C536 C533 1.409 . S
C536 C534 1.415 . S
C537 H527 0.930 . S
C537 C535 1.419 . S
C537 C538 1.362 . S
C538 H528 0.930 . S
C538 C531 1.409 . S
C538 C537 1.362 . S
H539 C545 0.930 . S
H540 C548 0.930 . S
H541 C549 0.930 . S
H542 C550 0.930 . S
H543 C553 0.930 . S
H544 C554 0.930 . S
C545 H539 0.930 . S
C545 C546 1.355 . S
C545 C547 1.415 . S
C546 C545 1.355 . S
C546 C548 1.419 . S
C547 C545 1.415 . S
C547 C552 1.425 . S
C547 C554 1.409 . S
C548 H540 0.930 . S
C548 C546 1.419 . S
C548 C549 1.362 . S
C549 H541 0.930 . S
C549 C548 1.362 . S
C549 C552 1.409 . S
C550 H542 0.930 . S
C550 C551 1.355 . S
C550 C552 1.415 . S
C551 C550 1.355 . S
C551 C553 1.419 . S
C552 C547 1.425 . S
C552 C549 1.409 . S
C552 C550 1.415 . S
C553 H543 0.930 . S
C553 C551 1.419 . S
C553 C554 1.362 . S
C554 H544 0.930 . S
C554 C547 1.409 . S
C554 C553 1.362 . S
C178 C5 1.668 . S
C183 C78 1.608 . S
C194 C16 1.406 . S
C199 C110 1.417 . S
C215 C169 1.735 . S
C210 C36 1.820 . S
C231 C98 1.341 . S
C226 C42 1.336 . S
C242 C55 1.573 . S
C247 C128 1.534 . S
C263 C150 1.253 . S
C258 C66 1.191 . S
C279 C119 1.529 . S
C274 C31 1.608 . S
C290 C40 1.285 . S
C295 C159 1.242 . S
C311 C108 1.603 . S
C306 C53 1.575 1_556 S
C322 C68 1.397 . S
C327 C138 1.396 . S
C338 C10 1.748 . S
C343 C141 1.669 . S
C359 C80 1.498 . S
C354 C14 1.490 . S
C375 C88 1.632 . S
C370 C49 1.647 . S
C391 C129 1.432 . S
C386 C62 1.475 1_556 S
C407 C142 1.704 . S
C402 C70 1.754 . S
C423 C79 1.370 . S
C418 C1 1.430 . S
C439 C139 1.524 . S
C434 C23 1.539 . S
C450 C29 1.221 . S
C455 C140 1.107 . S
C471 C109 1.627 . S
C466 C75 1.636 . S
C487 C170 1.116 . S
C482 C3 1.191 . S
C503 C97 1.432 . S
C498 C18 1.505 . S
C519 C111 1.440 . S
C514 C27 1.507 . S
C530 C44 1.694 . S
C535 C160 1.681 . S
C546 C57 1.466 . S
C551 C107 1.434 . S
