# Generated by pormake.
# Topology hwx, (6,3)-cn, num edge types: 1
# Building blocks:
#     Node 0, Type 0, BuildingBlock: IZENUY_clean_sbu_0, # of connection points: 6
#     Node 1, Type 0, BuildingBlock: IZENUY_clean_sbu_0, # of connection points: 6
#     Node 2, Type 0, BuildingBlock: IZENUY_clean_sbu_0, # of connection points: 6
#     Node 3, Type 0, BuildingBlock: IZENUY_clean_sbu_0, # of connection points: 6
#     Node 4, Type 1, BuildingBlock: WUSLED_clean_sbu_0, # of connection points: 3
#     Node 5, Type 1, BuildingBlock: WUSLED_clean_sbu_0, # of connection points: 3
#     Node 6, Type 1, BuildingBlock: WUSLED_clean_sbu_0, # of connection points: 3
#     Node 7, Type 1, BuildingBlock: WUSLED_clean_sbu_0, # of connection points: 3
#     Node 8, Type 1, BuildingBlock: WUSLED_clean_sbu_0, # of connection points: 3
#     Node 9, Type 1, BuildingBlock: WUSLED_clean_sbu_0, # of connection points: 3
#     Node 10, Type 1, BuildingBlock: WUSLED_clean_sbu_0, # of connection points: 3
#     Node 11, Type 1, BuildingBlock: WUSLED_clean_sbu_0, # of connection points: 3
#     Edge 12, Type (0, 1), BuildingBlock: KIFKEQ_clean_linker_1, # of connection points: 2
#     Edge 13, Type (0, 1), BuildingBlock: KIFKEQ_clean_linker_1, # of connection points: 2
#     Edge 14, Type (0, 1), BuildingBlock: KIFKEQ_clean_linker_1, # of connection points: 2
#     Edge 15, Type (0, 1), BuildingBlock: KIFKEQ_clean_linker_1, # of connection points: 2
#     Edge 16, Type (0, 1), BuildingBlock: KIFKEQ_clean_linker_1, # of connection points: 2
#     Edge 17, Type (0, 1), BuildingBlock: KIFKEQ_clean_linker_1, # of connection points: 2
#     Edge 18, Type (0, 1), BuildingBlock: KIFKEQ_clean_linker_1, # of connection points: 2
#     Edge 19, Type (0, 1), BuildingBlock: KIFKEQ_clean_linker_1, # of connection points: 2
#     Edge 20, Type (0, 1), BuildingBlock: KIFKEQ_clean_linker_1, # of connection points: 2
#     Edge 21, Type (0, 1), BuildingBlock: KIFKEQ_clean_linker_1, # of connection points: 2
#     Edge 22, Type (0, 1), BuildingBlock: KIFKEQ_clean_linker_1, # of connection points: 2
#     Edge 23, Type (0, 1), BuildingBlock: KIFKEQ_clean_linker_1, # of connection points: 2
#     Edge 24, Type (0, 1), BuildingBlock: KIFKEQ_clean_linker_1, # of connection points: 2
#     Edge 25, Type (0, 1), BuildingBlock: KIFKEQ_clean_linker_1, # of connection points: 2
#     Edge 26, Type (0, 1), BuildingBlock: KIFKEQ_clean_linker_1, # of connection points: 2
#     Edge 27, Type (0, 1), BuildingBlock: KIFKEQ_clean_linker_1, # of connection points: 2
#     Edge 28, Type (0, 1), BuildingBlock: KIFKEQ_clean_linker_1, # of connection points: 2
#     Edge 29, Type (0, 1), BuildingBlock: KIFKEQ_clean_linker_1, # of connection points: 2
#     Edge 30, Type (0, 1), BuildingBlock: KIFKEQ_clean_linker_1, # of connection points: 2
#     Edge 31, Type (0, 1), BuildingBlock: KIFKEQ_clean_linker_1, # of connection points: 2
#     Edge 32, Type (0, 1), BuildingBlock: KIFKEQ_clean_linker_1, # of connection points: 2
#     Edge 33, Type (0, 1), BuildingBlock: KIFKEQ_clean_linker_1, # of connection points: 2
#     Edge 34, Type (0, 1), BuildingBlock: KIFKEQ_clean_linker_1, # of connection points: 2
#     Edge 35, Type (0, 1), BuildingBlock: KIFKEQ_clean_linker_1, # of connection points: 2
# Relax obj value: 0.048
# Max RMSD: 0.074
# Mean RMSD: 0.065
data_MOF--net-hwx--node1-IZENUY_clean_sbu_0--node2-WUSLED_clean_sbu_0--edge1-KIFKEQ_clean_linker_1
_symmetry_space_group_name_H-M    P1
_symmetry_Int_Tables_number       1
_symmetry_cell_setting            triclinic
loop_
_symmetry_equiv_pos_as_xyz
'x, y, z'
_cell_length_a     62.615376
_cell_length_b     62.834063
_cell_length_c     30.051816
_cell_angle_alpha  90.401763
_cell_angle_beta   90.435593
_cell_angle_gamma 89.947714
loop_
_atom_site_label
_atom_site_type_symbol
_atom_site_fract_x
_atom_site_fract_y
_atom_site_fract_z
_atom_type_partial_charge
Fe0 Fe 0.24546 0.22916 0.06571 0.0
Fe1 Fe 0.24614 0.2311 0.96371 0.0
O2 O 0.23665 0.21934 0.01324 0.0
Fe3 Fe 0.2183 0.19783 0.01047 0.0
O4 O 0.19839 0.21263 0.04188 0.0
O5 O 0.22044 0.22342 0.09451 0.0
O6 O 0.23478 0.25547 0.05437 0.0
C7 C 0.23952 0.26656 0.02102 0.0
C8 C 0.24606 0.18643 0.08189 0.0
O9 O 0.24813 0.25811 0.98721 0.0
C10 C 0.24523 0.18693 0.94257 0.0
O11 O 0.27217 0.23677 0.04677 0.0
O12 O 0.27372 0.22507 0.97792 0.0
O13 O 0.2285 0.18475 0.06089 0.0
O14 O 0.25668 0.20349 0.08072 0.0
C15 C 0.20432 0.22478 0.94024 0.0
O16 O 0.24584 0.2063 0.9313 0.0
O17 O 0.23677 0.18143 0.97873 0.0
C18 C 0.28294 0.23101 0.01331 0.0
O19 O 0.21932 0.23797 0.94552 0.0
O20 O 0.20484 0.20692 0.95952 0.0
C21 C 0.20161 0.22044 0.08016 0.0
Fe22 Fe 0.25888 0.72952 0.56244 0.0
Fe23 Fe 0.28617 0.69712 0.51079 0.0
O24 O 0.26838 0.71916 0.51122 0.0
Fe25 Fe 0.26005 0.73094 0.4605 0.0
O26 O 0.2711 0.75659 0.47664 0.0
O27 O 0.25713 0.75719 0.54339 0.0
O28 O 0.28575 0.73549 0.58163 0.0
C29 C 0.30058 0.72196 0.58485 0.0
C30 C 0.22232 0.73145 0.51241 0.0
O31 O 0.29977 0.7046 0.5631 0.0
C32 C 0.25854 0.68884 0.43687 0.0
O33 O 0.25894 0.70387 0.59122 0.0
O34 O 0.26724 0.68035 0.53982 0.0
O35 O 0.23334 0.73827 0.48034 0.0
O36 O 0.23129 0.72423 0.54689 0.0
C37 C 0.30375 0.72136 0.44508 0.0
O38 O 0.27574 0.68573 0.45844 0.0
O39 O 0.2485 0.70617 0.44055 0.0
C40 C 0.25928 0.68484 0.57718 0.0
O41 O 0.30656 0.71207 0.48175 0.0
O42 O 0.28513 0.72577 0.43127 0.0
C43 C 0.26606 0.76666 0.51146 0.0
Fe44 Fe 0.75894 0.78891 0.95871 0.0
Fe45 Fe 0.75783 0.78811 0.06068 0.0
O46 O 0.76724 0.7996 0.0108 0.0
Fe47 Fe 0.78492 0.82167 0.0129 0.0
O48 O 0.76652 0.83819 0.98129 0.0
O49 O 0.7596 0.81441 0.92932 0.0
O50 O 0.73108 0.79433 0.9706 0.0
C51 C 0.72131 0.78744 1.0041 0.0
C52 C 0.80107 0.79639 0.94159 0.0
O53 O 0.73155 0.78067 0.03769 0.0
C54 C 0.80113 0.79778 0.08121 0.0
O55 O 0.75677 0.76134 0.97823 0.0
O56 O 0.76934 0.76246 0.04653 0.0
O57 O 0.79963 0.81395 0.96247 0.0
O58 O 0.78624 0.78284 0.94325 0.0
C59 C 0.7558 0.83029 0.08323 0.0
O60 O 0.78224 0.79346 0.0928 0.0
O61 O 0.80473 0.80694 0.04479 0.0
C62 C 0.76519 0.75216 0.0114 0.0
O63 O 0.74582 0.81297 0.07864 0.0
O64 O 0.7734 0.8333 0.06364 0.0
C65 C 0.75935 0.83349 0.94312 0.0
Fe66 Fe 0.71962 0.31943 0.51414 0.0
Fe67 Fe 0.74605 0.28548 0.56333 0.0
O68 O 0.7381 0.29794 0.51306 0.0
Fe69 Fe 0.74861 0.28889 0.46163 0.0
O70 O 0.75993 0.31487 0.44962 0.0
O71 O 0.73109 0.33312 0.46622 0.0
O72 O 0.73712 0.3354 0.54963 0.0
C73 C 0.74466 0.32933 0.58653 0.0
C74 C 0.70519 0.29751 0.44081 0.0
O75 O 0.74469 0.30984 0.59691 0.0
C76 C 0.74156 0.25081 0.50304 0.0
O77 O 0.70476 0.3097 0.5623 0.0
O78 O 0.7187 0.27838 0.57661 0.0
O79 O 0.72442 0.29472 0.42949 0.0
O80 O 0.70068 0.30511 0.47864 0.0
C81 C 0.78437 0.28652 0.51998 0.0
O82 O 0.74889 0.25881 0.53879 0.0
O83 O 0.73794 0.26235 0.46963 0.0
C84 C 0.70359 0.29157 0.58023 0.0
O85 O 0.77398 0.2917 0.55416 0.0
O86 O 0.7748 0.28129 0.48432 0.0
C87 C 0.7491 0.3318 0.44748 0.0
C88 C 0.23161 0.54139 0.87766 0.0
C89 C 0.22776 0.56301 0.88633 0.0
C90 C 0.23535 0.57165 0.80904 0.0
C91 C 0.22953 0.57798 0.85235 0.0
C92 C 0.23901 0.54988 0.80051 0.0
C93 C 0.23716 0.53491 0.83457 0.0
U94 U 0.22926 0.52911 1.00078 0.0
O95 O 0.21082 0.5053 0.03771 0.0
O96 O 0.24585 0.5049 0.04064 0.0
C97 C 0.22803 0.49525 0.05149 0.0
C98 C 0.23052 0.52571 0.91372 0.0
C99 C 0.22786 0.472 0.04558 0.0
C100 C 0.23363 0.44025 1.00056 0.0
C101 C 0.23338 0.46246 1.00491 0.0
C102 C 0.22249 0.43697 0.07725 0.0
C103 C 0.22825 0.42724 0.03677 0.0
C104 C 0.22232 0.45913 0.08157 0.0
C105 C 0.22963 0.57629 0.08283 0.0
C106 C 0.24179 0.57635 0.1599 0.0
C107 C 0.22004 0.60541 0.13246 0.0
C108 C 0.21911 0.59565 0.09054 0.0
C109 C 0.23166 0.59604 0.16745 0.0
C110 C 0.2407 0.56651 0.11801 0.0
C111 C 0.22959 0.56714 0.03752 0.0
O112 O 0.24762 0.52472 0.93922 0.0
O113 O 0.21263 0.52566 0.93638 0.0
O114 O 0.21194 0.55747 0.02485 0.0
O115 O 0.247 0.55691 0.02574 0.0
H116 H 0.22349 0.56833 0.91948 0.0
H117 H 0.22627 0.59452 0.86003 0.0
H118 H 0.24377 0.54446 0.76777 0.0
H119 H 0.24032 0.51828 0.82737 0.0
H120 H 0.2379 0.43328 0.9688 0.0
H121 H 0.23759 0.47218 0.97666 0.0
H122 H 0.21854 0.42745 0.10594 0.0
H123 H 0.21805 0.46624 0.11324 0.0
H124 H 0.25065 0.56861 0.18633 0.0
H125 H 0.21226 0.62066 0.13705 0.0
H126 H 0.2105 0.60346 0.06381 0.0
H127 H 0.24881 0.55145 0.11294 0.0
C128 C 0.94622 0.77573 0.64024 0.0
C129 C 0.92634 0.78511 0.63104 0.0
C130 C 0.91523 0.77942 0.7076 0.0
C131 C 0.91101 0.78701 0.66446 0.0
C132 C 0.93514 0.76988 0.71649 0.0
C133 C 0.95051 0.7681 0.68309 0.0
U134 U 0.96156 0.77571 0.51812 0.0
O135 O 0.98949 0.78918 0.48441 0.0
O136 O 0.98331 0.75482 0.48076 0.0
C137 C 0.99648 0.77043 0.47145 0.0
C138 C 0.96244 0.77359 0.60532 0.0
C139 C 0.01928 0.76631 0.47984 0.0
C140 C 0.04849 0.75472 0.52769 0.0
C141 C 0.02665 0.7585 0.52083 0.0
C142 C 0.0557 0.76672 0.45283 0.0
C143 C 0.06328 0.75887 0.49375 0.0
C144 C 0.03392 0.77039 0.446 0.0
C145 C 0.91756 0.7855 0.43075 0.0
C146 C 0.91596 0.77339 0.35369 0.0
C147 C 0.89348 0.80254 0.37811 0.0
C148 C 0.90211 0.80096 0.421 0.0
C149 C 0.90006 0.78856 0.34411 0.0
C150 C 0.92472 0.77193 0.39657 0.0
C151 C 0.92524 0.78329 0.47703 0.0
O152 O 0.96039 0.75677 0.57942 0.0
O153 O 0.96671 0.79107 0.58329 0.0
O154 O 0.93787 0.79848 0.49192 0.0
O155 O 0.93142 0.76415 0.48903 0.0
H156 H 0.92267 0.79092 0.59798 0.0
H157 H 0.89574 0.79417 0.65637 0.0
H158 H 0.93897 0.76406 0.74945 0.0
H159 H 0.96576 0.76077 0.69073 0.0
H160 H 0.05384 0.74885 0.55968 0.0
H161 H 0.01554 0.75536 0.54746 0.0
H162 H 0.06658 0.76978 0.42578 0.0
H163 H 0.0285 0.77639 0.41413 0.0
H164 H 0.92151 0.76255 0.32809 0.0
H165 H 0.88109 0.81422 0.372 0.0
H166 H 0.89637 0.81156 0.44688 0.0
H167 H 0.93679 0.75998 0.40315 0.0
C168 C 0.78044 0.47305 0.14551 0.0
C169 C 0.7707 0.45341 0.13595 0.0
C170 C 0.77745 0.44161 0.21178 0.0
C171 C 0.76912 0.43789 0.16884 0.0
C172 C 0.78771 0.46109 0.22089 0.0
C173 C 0.78912 0.47671 0.18802 0.0
U174 U 0.78093 0.48876 0.02411 0.0
O175 O 0.76425 0.51413 0.98793 0.0
O176 O 0.79934 0.51327 0.98887 0.0
C177 C 0.78207 0.52403 0.97795 0.0
C178 C 0.78152 0.48973 0.11139 0.0
C179 C 0.78265 0.54718 0.98685 0.0
C180 C 0.76807 0.57915 0.02133 0.0
C181 C 0.76823 0.557 0.01615 0.0
C182 C 0.79727 0.58194 0.96934 0.0
C183 C 0.78242 0.59195 0.99754 0.0
C184 C 0.79731 0.55982 0.96395 0.0
C185 C 0.77788 0.44242 0.93885 0.0
C186 C 0.76435 0.44209 0.86268 0.0
C187 C 0.78521 0.41239 0.89012 0.0
C188 C 0.78745 0.42259 0.93126 0.0
C189 C 0.77323 0.42177 0.85564 0.0
C190 C 0.76663 0.45235 0.90405 0.0
C191 C 0.77889 0.45155 0.98408 0.0
O192 O 0.79898 0.48974 0.08738 0.0
O193 O 0.76403 0.49232 0.08753 0.0
O194 O 0.76196 0.46213 0.99749 0.0
O195 O 0.79701 0.4606 0.99579 0.0
H196 H 0.76414 0.45015 0.10313 0.0
H197 H 0.76137 0.42294 0.16066 0.0
H198 H 0.79415 0.46446 0.25374 0.0
H199 H 0.79679 0.49173 0.19593 0.0
H200 H 0.75626 0.58627 0.04297 0.0
H201 H 0.75676 0.54764 0.0344 0.0
H202 H 0.80882 0.59121 0.95113 0.0
H203 H 0.80863 0.55259 0.94131 0.0
H204 H 0.75499 0.4497 0.83684 0.0
H205 H 0.79261 0.39695 0.88551 0.0
H206 H 0.79628 0.41473 0.9576 0.0
H207 H 0.75918 0.46772 0.90918 0.0
C208 C 0.0557 0.24338 0.37851 0.0
C209 C 0.07762 0.2463 0.38645 0.0
C210 C 0.08514 0.23929 0.30829 0.0
C211 C 0.09218 0.24436 0.35166 0.0
C212 C 0.06319 0.23598 0.30064 0.0
C213 C 0.04858 0.23808 0.33549 0.0
U214 U 0.04447 0.24595 0.50197 0.0
O215 O 0.02415 0.26753 0.54113 0.0
O216 O 0.01812 0.23313 0.54163 0.0
C217 C 0.01151 0.25211 0.55405 0.0
C218 C 0.04032 0.24584 0.415 0.0
C219 C 0.98851 0.25618 0.54871 0.0
C220 C 0.95642 0.25812 0.50293 0.0
C221 C 0.97836 0.25417 0.50712 0.0
C222 C 0.95469 0.2663 0.58175 0.0
C223 C 0.94433 0.26426 0.54023 0.0
C224 C 0.97657 0.26228 0.58589 0.0
C225 C 0.0922 0.23874 0.58158 0.0
C226 C 0.09332 0.24863 0.65997 0.0
C227 C 0.12053 0.22542 0.62947 0.0
C228 C 0.11073 0.22657 0.58765 0.0
C229 C 0.112 0.23649 0.66611 0.0
C230 C 0.08343 0.24967 0.61806 0.0
C231 C 0.08255 0.23991 0.53686 0.0
O232 O 0.0374 0.22881 0.43934 0.0
O233 O 0.04248 0.26333 0.43888 0.0
O234 O 0.0754 0.25868 0.52466 0.0
O235 O 0.06961 0.22424 0.52596 0.0
H236 H 0.08345 0.25016 0.41957 0.0
H237 H 0.10901 0.24665 0.3588 0.0
H238 H 0.05728 0.23216 0.26758 0.0
H239 H 0.03172 0.2357 0.32882 0.0
H240 H 0.94898 0.25663 0.47041 0.0
H241 H 0.98739 0.24957 0.47798 0.0
H242 H 0.94583 0.2707 0.61123 0.0
H243 H 0.98418 0.26389 0.61826 0.0
H244 H 0.08625 0.25716 0.68763 0.0
H245 H 0.13504 0.21616 0.63291 0.0
H246 H 0.11773 0.21805 0.55987 0.0
H247 H 0.06903 0.25905 0.6141 0.0
C248 C 0.7305 0.97683 0.64191 0.0
C249 C 0.72717 0.95517 0.63281 0.0
C250 C 0.73444 0.94652 0.71043 0.0
C251 C 0.72905 0.94016 0.66674 0.0
C252 C 0.73752 0.96833 0.71942 0.0
C253 C 0.73559 0.98335 0.6854 0.0
U254 U 0.72777 0.98881 0.51883 0.0
O255 O 0.70963 0.01282 0.48117 0.0
O256 O 0.74466 0.01248 0.4787 0.0
C257 C 0.72697 0.02242 0.46735 0.0
C258 C 0.72945 0.99251 0.60584 0.0
C259 C 0.72728 0.04569 0.47262 0.0
C260 C 0.73336 0.07757 0.51717 0.0
C261 C 0.73262 0.05535 0.51342 0.0
C262 C 0.72309 0.0806 0.43956 0.0
C263 C 0.72873 0.09047 0.48016 0.0
C264 C 0.7224 0.05844 0.43588 0.0
C265 C 0.72714 0.94159 0.43736 0.0
C266 C 0.73848 0.94204 0.36017 0.0
C267 C 0.71761 0.91248 0.38742 0.0
C268 C 0.71692 0.92208 0.42951 0.0
C269 C 0.72867 0.9222 0.35245 0.0
C270 C 0.73763 0.95171 0.4022 0.0
C271 C 0.72734 0.95066 0.4827 0.0
O272 O 0.74645 0.99319 0.58053 0.0
O273 O 0.71146 0.99278 0.58296 0.0
O274 O 0.7099 0.9607 0.49492 0.0
O275 O 0.74496 0.96058 0.49478 0.0
H276 H 0.72327 0.94984 0.59935 0.0
H277 H 0.72623 0.92357 0.65871 0.0
H278 H 0.74193 0.97376 0.75251 0.0
H279 H 0.73834 1.00001 0.69293 0.0
H280 H 0.73795 0.08462 0.54879 0.0
H281 H 0.73643 0.04571 0.54218 0.0
H282 H 0.71908 0.09002 0.41062 0.0
H283 H 0.71814 0.05122 0.40418 0.0
H284 H 0.74691 0.95002 0.33374 0.0
H285 H 0.71008 0.89711 0.38267 0.0
H286 H 0.70874 0.91404 0.45623 0.0
H287 H 0.74547 0.9669 0.40741 0.0
C288 C 0.55915 0.26991 0.8817 0.0
C289 C 0.57892 0.27958 0.89076 0.0
C290 C 0.59041 0.27256 0.81475 0.0
C291 C 0.59437 0.28096 0.85756 0.0
C292 C 0.57066 0.26262 0.80605 0.0
C293 C 0.55516 0.26135 0.83926 0.0
U294 U 0.54366 0.27346 1.0032 0.0
O295 O 0.51573 0.28781 0.03573 0.0
O296 O 0.52217 0.25366 0.04304 0.0
C297 C 0.50894 0.26948 0.05089 0.0
C298 C 0.54277 0.26855 0.91641 0.0
C299 C 0.48617 0.265 0.0433 0.0
C300 C 0.45658 0.25413 0.99547 0.0
C301 C 0.47844 0.25799 1.00175 0.0
C302 C 0.45009 0.26432 0.07212 0.0
C303 C 0.44213 0.25738 0.03058 0.0
C304 C 0.47188 0.26809 0.07835 0.0
C305 C 0.58829 0.28661 0.0881 0.0
C306 C 0.59257 0.27636 0.16564 0.0
C307 C 0.61297 0.3058 0.13648 0.0
C308 C 0.60316 0.30298 0.09496 0.0
C309 C 0.60823 0.29217 0.17203 0.0
C310 C 0.58267 0.27361 0.12404 0.0
C311 C 0.58005 0.28269 0.04265 0.0
O312 O 0.54502 0.2526 0.9441 0.0
O313 O 0.53813 0.28661 0.93649 0.0
O314 O 0.56717 0.29726 0.02634 0.0
O315 O 0.57397 0.26313 0.03326 0.0
H316 H 0.58237 0.28609 0.92351 0.0
H317 H 0.60951 0.28845 0.86551 0.0
H318 H 0.56704 0.25617 0.77334 0.0
H319 H 0.54 0.25378 0.83174 0.0
H320 H 0.45093 0.24896 0.96301 0.0
H321 H 0.48929 0.25562 0.97424 0.0
H322 H 0.43949 0.26664 0.10004 0.0
H323 H 0.47759 0.27346 0.11066 0.0
H324 H 0.58863 0.26552 0.1922 0.0
H325 H 0.62463 0.3184 0.14047 0.0
H326 H 0.60762 0.31328 0.0678 0.0
H327 H 0.57112 0.26092 0.11967 0.0
C328 C 0.27696 0.0444 0.38406 0.0
C329 C 0.26995 0.06519 0.39308 0.0
C330 C 0.27539 0.07498 0.31558 0.0
C331 C 0.2691 0.08031 0.35916 0.0
C332 C 0.28283 0.05419 0.30704 0.0
C333 C 0.28356 0.03905 0.34097 0.0
U334 U 0.27675 0.02977 0.50646 0.0
O335 O 0.2588 0.00521 0.54216 0.0
O336 O 0.29386 0.0047 0.543 0.0
C337 C 0.27616 0.99486 0.55397 0.0
C338 C 0.27721 0.02818 0.41918 0.0
C339 C 0.27571 0.97174 0.54609 0.0
C340 C 0.28005 0.94075 0.49805 0.0
C341 C 0.28084 0.96285 0.50453 0.0
C342 C 0.26891 0.93635 0.57447 0.0
C343 C 0.27396 0.92726 0.53294 0.0
C344 C 0.26979 0.95836 0.58093 0.0
C345 C 0.27595 0.0753 0.59245 0.0
C346 C 0.26533 0.07258 0.66992 0.0
C347 C 0.28371 0.10408 0.64436 0.0
C348 C 0.28471 0.09537 0.60155 0.0
C349 C 0.27386 0.09289 0.67902 0.0
C350 C 0.26645 0.06381 0.62699 0.0
C351 C 0.27646 0.06703 0.54651 0.0
O352 O 0.29465 0.02752 0.44374 0.0
O353 O 0.25962 0.02686 0.44263 0.0
O354 O 0.25906 0.05737 0.53229 0.0
O355 O 0.29412 0.05722 0.53484 0.0
H356 H 0.26486 0.06965 0.42624 0.0
H357 H 0.26302 0.09603 0.36694 0.0
H358 H 0.28813 0.0496 0.27413 0.0
H359 H 0.28917 0.02311 0.33349 0.0
H360 H 0.28386 0.93426 0.46558 0.0
H361 H 0.28535 0.973 0.47715 0.0
H362 H 0.26447 0.92641 0.60221 0.0
H363 H 0.26581 0.96495 0.61324 0.0
H364 H 0.25781 0.06349 0.69596 0.0
H365 H 0.29014 0.11987 0.65 0.0
H366 H 0.29206 0.10447 0.57529 0.0
H367 H 0.2597 0.04819 0.62068 0.0
C368 C 0.45004 0.73993 0.14586 0.0
C369 C 0.43196 0.72707 0.13933 0.0
C370 C 0.41991 0.73505 0.21464 0.0
C371 C 0.41712 0.72456 0.17343 0.0
C372 C 0.4382 0.74778 0.22108 0.0
C373 C 0.45312 0.75016 0.187 0.0
U374 U 0.46162 0.74318 0.02243 0.0
O375 O 0.48111 0.76583 0.98465 0.0
O376 O 0.48874 0.73173 0.98287 0.0
C377 C 0.49455 0.75104 0.97149 0.0
C378 C 0.46526 0.74346 0.10948 0.0
C379 C 0.51733 0.75602 0.97767 0.0
C380 C 0.54956 0.757 0.02324 0.0
C381 C 0.52772 0.75265 0.01855 0.0
C382 C 0.5507 0.76845 0.94647 0.0
C383 C 0.56132 0.7649 0.98717 0.0
C384 C 0.52892 0.76402 0.9418 0.0
C385 C 0.41471 0.73339 0.94161 0.0
C386 C 0.41375 0.7428 0.86325 0.0
C387 C 0.38639 0.71994 0.89351 0.0
C388 C 0.39616 0.72126 0.93538 0.0
C389 C 0.39498 0.73079 0.85697 0.0
C390 C 0.42359 0.74402 0.90522 0.0
C391 C 0.42412 0.73505 0.98651 0.0
O392 O 0.46967 0.72672 0.08469 0.0
O393 O 0.46184 0.76075 0.08611 0.0
O394 O 0.43017 0.75419 0.99925 0.0
O395 O 0.43788 0.7201 0.99726 0.0
H396 H 0.4292 0.71911 0.10772 0.0
H397 H 0.40345 0.71437 0.16743 0.0
H398 H 0.44075 0.75635 0.25205 0.0
H399 H 0.46689 0.76029 0.19253 0.0
H400 H 0.5572 0.75432 0.05516 0.0
H401 H 0.51897 0.74657 0.04671 0.0
H402 H 0.55931 0.77425 0.91789 0.0
H403 H 0.52115 0.76668 0.90998 0.0
H404 H 0.42088 0.75115 0.83569 0.0
H405 H 0.37181 0.7108 0.89001 0.0
H406 H 0.38906 0.71298 0.96311 0.0
H407 H 0.438 0.75338 0.90935 0.0
H408 H 0.20362 0.23513 0.16559 0.0
H409 H 0.15859 0.21416 0.06478 0.0
H410 H 0.1747 0.24011 0.21768 0.0
H411 H 0.12932 0.21972 0.11715 0.0
H412 H 0.08747 0.20871 0.24285 0.0
H413 H 0.11461 0.20497 0.18523 0.0
H414 H 0.14489 0.26273 0.23238 0.0
H415 H 0.11804 0.26621 0.29014 0.0
C416 C 0.18751 0.23174 0.15432 0.0
C417 C 0.18349 0.22419 0.11088 0.0
C418 C 0.17084 0.23476 0.18424 0.0
C419 C 0.14961 0.23045 0.17163 0.0
C420 C 0.1455 0.22301 0.12809 0.0
C421 C 0.16227 0.21994 0.098 0.0
C422 C 0.09981 0.2207 0.24053 0.0
C423 C 0.10076 0.23762 0.27138 0.0
C424 C 0.11534 0.2186 0.20745 0.0
C425 C 0.13208 0.23343 0.20439 0.0
C426 C 0.13253 0.25073 0.23435 0.0
C427 C 0.11713 0.25275 0.26748 0.0
H428 H 0.26305 0.6415 0.56515 0.0
H429 H 0.24169 0.68902 0.65955 0.0
H430 H 0.2564 0.6137 0.61991 0.0
H431 H 0.23487 0.66134 0.71365 0.0
H432 H 0.25319 0.61125 0.81635 0.0
H433 H 0.25728 0.63789 0.75875 0.0
H434 H 0.22815 0.59528 0.6627 0.0
H435 H 0.22381 0.56855 0.72067 0.0
C436 C 0.25669 0.64601 0.59728 0.0
C437 C 0.25313 0.66755 0.60804 0.0
C438 C 0.25283 0.63007 0.62862 0.0
C439 C 0.24537 0.63534 0.67136 0.0
C440 C 0.24104 0.65678 0.68138 0.0
C441 C 0.24484 0.67266 0.65017 0.0
C442 C 0.24738 0.6076 0.78313 0.0
C443 C 0.23801 0.58777 0.77334 0.0
C444 C 0.24976 0.62289 0.75004 0.0
C445 C 0.24289 0.61879 0.70616 0.0
C446 C 0.23376 0.59888 0.69609 0.0
C447 C 0.2313 0.58356 0.72933 0.0
H448 H 0.84047 0.81715 0.08508 0.0
H449 H 0.80126 0.77077 0.15144 0.0
H450 H 0.86742 0.81395 0.14424 0.0
H451 H 0.82801 0.76764 0.21015 0.0
H452 H 0.88602 0.75477 0.29426 0.0
H453 H 0.86511 0.75557 0.22542 0.0
H454 H 0.86835 0.82421 0.22552 0.0
H455 H 0.88963 0.8234 0.29402 0.0
C456 C 0.83774 0.80606 0.11187 0.0
C457 C 0.81867 0.79432 0.11374 0.0
C458 C 0.8531 0.80433 0.14585 0.0
C459 C 0.84981 0.79058 0.1819 0.0
C460 C 0.83114 0.77822 0.18265 0.0
C461 C 0.81573 0.78013 0.14912 0.0
C462 C 0.88267 0.77001 0.27911 0.0
C463 C 0.88937 0.78903 0.29976 0.0
C464 C 0.87054 0.77047 0.23987 0.0
C465 C 0.86496 0.78996 0.2202 0.0
C466 C 0.8725 0.80894 0.23969 0.0
C467 C 0.8845 0.80849 0.27915 0.0
H468 H 0.77089 0.32234 0.657 0.0
H469 H 0.73353 0.37166 0.59403 0.0
H470 H 0.7787 0.34607 0.71908 0.0
H471 H 0.74101 0.39549 0.65728 0.0
H472 H 0.77415 0.43631 0.76932 0.0
H473 H 0.76859 0.41549 0.7008 0.0
H474 H 0.75711 0.35942 0.77944 0.0
H475 H 0.76268 0.37998 0.84713 0.0
C476 C 0.76439 0.33833 0.65636 0.0
C477 C 0.75132 0.34501 0.62092 0.0
C478 C 0.76879 0.35191 0.69209 0.0
C479 C 0.76009 0.37252 0.69365 0.0
C480 C 0.74794 0.37969 0.65708 0.0
C481 C 0.74364 0.36606 0.62092 0.0
C482 C 0.77033 0.41955 0.77179 0.0
C483 C 0.76921 0.40971 0.81364 0.0
C484 C 0.76714 0.40765 0.7326 0.0
C485 C 0.76277 0.38572 0.73462 0.0
C486 C 0.76106 0.37614 0.77657 0.0
C487 C 0.76425 0.38794 0.81546 0.0
H488 H 0.6643 0.31399 0.43801 0.0
H489 H 0.70823 0.27395 0.36529 0.0
H490 H 0.6392 0.31245 0.37486 0.0
H491 H 0.6833 0.27225 0.30318 0.0
H492 H 0.65105 0.29852 0.18109 0.0
H493 H 0.67237 0.29918 0.24881 0.0
H494 H 0.6158 0.28827 0.3267 0.0
H495 H 0.5941 0.28827 0.25835 0.0
C496 C 0.66843 0.30458 0.40898 0.0
C497 C 0.68841 0.2944 0.40635 0.0
C498 C 0.65407 0.30369 0.37288 0.0
C499 C 0.65949 0.2926 0.3337 0.0
C500 C 0.67889 0.2814 0.33239 0.0
C501 C 0.69315 0.28232 0.36814 0.0
C502 C 0.64301 0.29661 0.21259 0.0
C503 C 0.62082 0.29341 0.2142 0.0
C504 C 0.6553 0.2967 0.25145 0.0
C505 C 0.64581 0.29351 0.2931 0.0
C506 C 0.62356 0.29078 0.29508 0.0
C507 C 0.61118 0.29062 0.25594 0.0
H508 H 0.23596 0.14409 0.94048 0.0
H509 H 0.27023 0.19298 0.87022 0.0
H510 H 0.24482 0.11848 0.88156 0.0
H511 H 0.27878 0.16767 0.81165 0.0
H512 H 0.30401 0.11554 0.7256 0.0
H513 H 0.29926 0.13572 0.79442 0.0
H514 H 0.23423 0.11332 0.80248 0.0
H515 H 0.23899 0.09309 0.73361 0.0
C516 C 0.24558 0.14931 0.91283 0.0
C517 C 0.25226 0.17062 0.9099 0.0
C518 C 0.25054 0.13469 0.87897 0.0
C519 C 0.26248 0.14104 0.84186 0.0
C520 C 0.26979 0.16214 0.83996 0.0
C521 C 0.26473 0.17673 0.87345 0.0
C522 C 0.28873 0.11482 0.7422 0.0
C523 C 0.27179 0.10293 0.72378 0.0
C524 C 0.28602 0.12636 0.78166 0.0
C525 C 0.26629 0.12633 0.80369 0.0
C526 C 0.24969 0.11354 0.78658 0.0
C527 C 0.25241 0.10197 0.74705 0.0
H528 H 0.34399 0.70386 0.44914 0.0
H529 H 0.30481 0.74703 0.37254 0.0
H530 H 0.37253 0.70736 0.39468 0.0
H531 H 0.33343 0.75105 0.31914 0.0
H532 H 0.37643 0.73379 0.20456 0.0
H533 H 0.34951 0.73069 0.26178 0.0
H534 H 0.39891 0.73046 0.36297 0.0
H535 H 0.42604 0.73233 0.30525 0.0
C536 C 0.34158 0.71433 0.42107 0.0
C537 C 0.32203 0.72498 0.41495 0.0
C538 C 0.35798 0.7164 0.38988 0.0
C539 C 0.35522 0.72928 0.35209 0.0
C540 C 0.33595 0.74056 0.34712 0.0
C541 C 0.31956 0.73836 0.37798 0.0
C542 C 0.38164 0.73275 0.23891 0.0
C543 C 0.40348 0.73324 0.25012 0.0
C544 C 0.36614 0.73132 0.27191 0.0
C545 C 0.37197 0.73051 0.31717 0.0
C546 C 0.39381 0.7309 0.32848 0.0
C547 C 0.40938 0.73223 0.29536 0.0
H548 H 0.74335 0.82888 0.8589 0.0
H549 H 0.76175 0.87687 0.95555 0.0
H550 H 0.73631 0.85646 0.80443 0.0
H551 H 0.75493 0.90455 0.90044 0.0
H552 H 0.72204 0.94897 0.79795 0.0
H553 H 0.72671 0.92216 0.85582 0.0
H554 H 0.75807 0.88081 0.76127 0.0
H555 H 0.75358 0.90751 0.70377 0.0
C556 C 0.74583 0.84532 0.86865 0.0
C557 C 0.75333 0.8506 0.91158 0.0
C558 C 0.7419 0.86115 0.83725 0.0
C559 C 0.74532 0.8827 0.84785 0.0
C560 C 0.75206 0.8881 0.89126 0.0
C561 C 0.75603 0.87222 0.92279 0.0
C562 C 0.73007 0.93422 0.78963 0.0
C563 C 0.73729 0.93036 0.74606 0.0
C564 C 0.73273 0.91885 0.82279 0.0
C565 C 0.7426 0.89927 0.8131 0.0
C566 C 0.74998 0.89553 0.76967 0.0
C567 C 0.74738 0.91086 0.73664 0.0
H568 H 0.80978 0.76095 0.89096 0.0
H569 H 0.83298 0.82427 0.92091 0.0
H570 H 0.83777 0.75658 0.83555 0.0
H571 H 0.86102 0.81976 0.86591 0.0
H572 H 0.8901 0.81389 0.72648 0.0
H573 H 0.86317 0.81734 0.78432 0.0
H574 H 0.87696 0.7534 0.82791 0.0
H575 H 0.90357 0.74976 0.76926 0.0
C576 C 0.82093 0.77387 0.88604 0.0
C577 C 0.81901 0.79301 0.91027 0.0
C578 C 0.83704 0.77132 0.85439 0.0
C579 C 0.85154 0.78788 0.84609 0.0
C580 C 0.84991 0.80682 0.87101 0.0
C581 C 0.83389 0.80933 0.90278 0.0
C582 C 0.88728 0.80051 0.74819 0.0
C583 C 0.89896 0.78154 0.7432 0.0
C584 C 0.87202 0.80257 0.78166 0.0
C585 C 0.86797 0.78567 0.81084 0.0
C586 C 0.8796 0.76666 0.80579 0.0
C587 C 0.89498 0.76465 0.77246 0.0
H588 H 0.72747 0.36847 0.42956 0.0
H589 H 0.78524 0.3344 0.39593 0.0
H590 H 0.7356 0.39511 0.37404 0.0
H591 H 0.79334 0.36137 0.33999 0.0
H592 H 0.8072 0.42724 0.2721 0.0
H593 H 0.80194 0.40119 0.3315 0.0
H594 H 0.7361 0.39379 0.29056 0.0
H595 H 0.74127 0.41978 0.2318 0.0
C596 C 0.74203 0.36671 0.41063 0.0
C597 C 0.75559 0.34911 0.417 0.0
C598 C 0.7466 0.38197 0.3786 0.0
C599 C 0.76494 0.38017 0.35227 0.0
C600 C 0.77908 0.36316 0.35987 0.0
C601 C 0.77441 0.34771 0.39182 0.0
C602 C 0.79162 0.42005 0.27597 0.0
C603 C 0.77464 0.42554 0.24731 0.0
C604 C 0.78866 0.40506 0.3097 0.0
C605 C 0.76859 0.39556 0.3158 0.0
C606 C 0.75169 0.40102 0.28699 0.0
C607 C 0.7547 0.41576 0.25308 0.0
H608 H 0.16994 0.19977 0.91924 0.0
H609 H 0.20114 0.25837 0.88254 0.0
H610 H 0.1453 0.20359 0.85678 0.0
H611 H 0.17664 0.26194 0.81954 0.0
H612 H 0.11985 0.26919 0.72489 0.0
H613 H 0.13953 0.26769 0.79541 0.0
H614 H 0.1489 0.2001 0.77658 0.0
H615 H 0.12878 0.20152 0.70704 0.0
C616 C 0.17145 0.21358 0.89811 0.0
C617 C 0.18771 0.22864 0.90569 0.0
C618 C 0.15737 0.21569 0.86212 0.0
C619 C 0.15916 0.23291 0.8328 0.0
C620 C 0.17473 0.24854 0.84162 0.0
C621 C 0.18885 0.24644 0.87768 0.0
C622 C 0.12583 0.25397 0.73622 0.0
C623 C 0.12284 0.23549 0.71027 0.0
C624 C 0.13728 0.25315 0.7764 0.0
C625 C 0.14583 0.23379 0.79163 0.0
C626 C 0.14234 0.21524 0.76614 0.0
C627 C 0.13101 0.21608 0.72599 0.0
H628 H 0.27381 0.64849 0.4238 0.0
H629 H 0.2285 0.69384 0.37095 0.0
H630 H 0.26564 0.62418 0.36254 0.0
H631 H 0.22086 0.66987 0.30894 0.0
H632 H 0.20083 0.61668 0.21561 0.0
H633 H 0.20541 0.63715 0.28437 0.0
H634 H 0.27275 0.6219 0.28508 0.0
H635 H 0.26801 0.60116 0.21707 0.0
C636 C 0.26203 0.65325 0.39921 0.0
C637 C 0.25195 0.67321 0.40215 0.0
C638 C 0.25744 0.63936 0.36387 0.0
C639 C 0.24276 0.64511 0.33037 0.0
C640 C 0.23209 0.66476 0.33427 0.0
C641 C 0.23656 0.67859 0.36981 0.0
C642 C 0.21658 0.61765 0.23065 0.0
C643 C 0.23406 0.60732 0.21087 0.0
C644 C 0.21923 0.62943 0.27 0.0
C645 C 0.23947 0.63128 0.29036 0.0
C646 C 0.25685 0.62056 0.27093 0.0
C647 C 0.25416 0.60867 0.2318 0.0
H648 H 0.30528 0.75513 0.64397 0.0
H649 H 0.33392 0.69534 0.60456 0.0
H650 H 0.33027 0.75772 0.7063 0.0
H651 H 0.35914 0.69818 0.66642 0.0
H652 H 0.3773 0.69606 0.8156 0.0
H653 H 0.35665 0.69502 0.74665 0.0
H654 H 0.36753 0.7623 0.72888 0.0
H655 H 0.38766 0.76347 0.79883 0.0
C656 C 0.3171 0.74269 0.64815 0.0
C657 C 0.31739 0.7249 0.61947 0.0
C658 C 0.33152 0.74424 0.68381 0.0
C659 C 0.3466 0.72806 0.69163 0.0
C660 C 0.34748 0.71074 0.66182 0.0
C661 C 0.33308 0.70918 0.62617 0.0
C662 C 0.37529 0.71064 0.797 0.0
C663 C 0.384 0.72988 0.81291 0.0
C664 C 0.36365 0.71 0.75716 0.0
C665 C 0.36039 0.72859 0.7322 0.0
C666 C 0.36956 0.74774 0.74752 0.0
C667 C 0.38128 0.74837 0.78736 0.0
H668 H 0.72568 0.82497 0.14788 0.0
H669 H 0.77014 0.87096 0.09608 0.0
H670 H 0.71776 0.84883 0.20971 0.0
H671 H 0.76167 0.89517 0.15707 0.0
H672 H 0.76469 0.91774 0.30274 0.0
H673 H 0.76921 0.89732 0.23442 0.0
H674 H 0.7021 0.88123 0.23489 0.0
H675 H 0.69776 0.90135 0.30405 0.0
C676 C 0.73345 0.84036 0.14916 0.0
C677 C 0.74874 0.84594 0.11727 0.0
C678 C 0.72883 0.85413 0.1846 0.0
C679 C 0.73924 0.87389 0.18879 0.0
C680 C 0.75371 0.87989 0.15555 0.0
C681 C 0.75846 0.86605 0.12036 0.0
C682 C 0.75083 0.91011 0.28789 0.0
C683 C 0.73088 0.91112 0.30886 0.0
C684 C 0.75339 0.89842 0.24857 0.0
C685 C 0.73602 0.88756 0.22896 0.0
C686 C 0.71591 0.88907 0.24937 0.0
C687 C 0.71339 0.90065 0.28894 0.0
H688 H 0.67002 0.31762 0.60011 0.0
H689 H 0.69654 0.25579 0.63038 0.0
H690 H 0.64233 0.31223 0.65514 0.0
H691 H 0.66875 0.25052 0.68599 0.0
H692 H 0.60296 0.2423 0.75405 0.0
H693 H 0.62943 0.24591 0.69506 0.0
H694 H 0.6413 0.31076 0.73683 0.0
H695 H 0.61461 0.30732 0.79492 0.0
C696 C 0.66991 0.3028 0.61829 0.0
C697 C 0.68566 0.28721 0.61096 0.0
C698 C 0.65408 0.29978 0.65009 0.0
C699 C 0.65348 0.28106 0.67532 0.0
C700 C 0.66873 0.2651 0.66696 0.0
C701 C 0.68469 0.26816 0.63518 0.0
C702 C 0.61114 0.25736 0.75039 0.0
C703 C 0.60667 0.27453 0.77916 0.0
C704 C 0.62642 0.25936 0.71688 0.0
C705 C 0.63741 0.27864 0.71115 0.0
C706 C 0.63294 0.29577 0.73999 0.0
C707 C 0.6178 0.29373 0.7736 0.0
H708 H 0.22526 0.14908 0.09767 0.0
H709 H 0.28148 0.18472 0.13646 0.0
H710 H 0.23404 0.12209 0.1522 0.0
H711 H 0.29061 0.15726 0.19049 0.0
H712 H 0.28373 0.1179 0.3191 0.0
H713 H 0.27813 0.14412 0.26083 0.0
H714 H 0.25829 0.09411 0.17023 0.0
H715 H 0.26278 0.06808 0.22909 0.0
C716 C 0.23967 0.15106 0.11745 0.0
C717 C 0.25258 0.1692 0.11276 0.0
C718 C 0.24479 0.13545 0.14862 0.0
C719 C 0.26303 0.13745 0.17589 0.0
C720 C 0.27627 0.15534 0.17051 0.0
C721 C 0.27111 0.17103 0.1393 0.0
C722 C 0.27805 0.1125 0.28684 0.0
C723 C 0.27356 0.09084 0.27904 0.0
C724 C 0.27512 0.12752 0.25317 0.0
C725 C 0.26767 0.12128 0.21077 0.0
C726 C 0.26375 0.09955 0.20263 0.0
C727 C 0.2666 0.08455 0.23631 0.0
H728 H 0.24735 0.29511 0.9549 0.0
H729 H 0.22545 0.29126 0.09067 0.0
H730 H 0.24371 0.33364 0.95759 0.0
H731 H 0.22228 0.32994 0.09363 0.0
H732 H 0.19974 0.39819 0.06901 0.0
H733 H 0.20168 0.35945 0.06462 0.0
H734 H 0.26068 0.36411 0.99169 0.0
H735 H 0.25864 0.4028 0.99587 0.0
C736 C 0.24182 0.30247 0.98543 0.0
C737 C 0.2368 0.29004 0.02266 0.0
C738 C 0.23985 0.32462 0.98702 0.0
C739 C 0.23282 0.33495 0.02589 0.0
C740 C 0.22752 0.32251 0.06297 0.0
C741 C 0.22946 0.30032 0.06137 0.0
C742 C 0.21317 0.39093 0.05219 0.0
C743 C 0.22904 0.40361 0.0328 0.0
C744 C 0.2143 0.36872 0.04973 0.0
C745 C 0.23135 0.35862 0.02787 0.0
C746 C 0.24713 0.37132 0.00819 0.0
C747 C 0.24597 0.39353 0.01056 0.0
H748 H 0.19811 0.74658 0.44371 0.0
H749 H 0.19311 0.7228 0.57786 0.0
H750 H 0.15985 0.75287 0.44173 0.0
H751 H 0.15462 0.72949 0.57603 0.0
H752 H 0.08282 0.72483 0.53402 0.0
H753 H 0.12112 0.71764 0.54028 0.0
H754 H 0.13449 0.77719 0.4752 0.0
H755 H 0.09639 0.7843 0.46886 0.0
C756 C 0.18887 0.74271 0.47288 0.0
C757 C 0.19877 0.73431 0.51107 0.0
C758 C 0.1669 0.74646 0.47183 0.0
C759 C 0.15418 0.74193 0.50891 0.0
C760 C 0.16395 0.73307 0.54682 0.0
C761 C 0.18602 0.72931 0.54792 0.0
C762 C 0.09397 0.73649 0.52156 0.0
C763 C 0.08654 0.75503 0.5005 0.0
C764 C 0.11591 0.73237 0.52513 0.0
C765 C 0.13088 0.74671 0.50775 0.0
C766 C 0.12341 0.76555 0.48799 0.0
C767 C 0.10155 0.76965 0.48439 0.0
H768 H 0.75314 0.72432 0.94565 0.0
H769 H 0.78466 0.72697 0.07401 0.0
H770 H 0.75792 0.68596 0.94345 0.0
H771 H 0.79 0.6885 0.07121 0.0
H772 H 0.77469 0.6168 0.07144 0.0
H773 H 0.77081 0.65538 0.07516 0.0
H774 H 0.78476 0.65938 0.93488 0.0
H775 H 0.78745 0.62085 0.93062 0.0
C776 C 0.76123 0.71674 0.97332 0.0
C777 C 0.76847 0.72877 0.01006 0.0
C778 C 0.76411 0.6947 0.97192 0.0
C779 C 0.77444 0.68408 0.00706 0.0
C780 C 0.78175 0.69611 0.0438 0.0
C781 C 0.77878 0.71819 0.0453 0.0
C782 C 0.77676 0.62589 0.0413 0.0
C783 C 0.78131 0.61562 1.00069 0.0
C784 C 0.7748 0.64807 0.04356 0.0
C785 C 0.77739 0.66054 1.00529 0.0
C786 C 0.78234 0.65029 0.96491 0.0
C787 C 0.7842 0.62815 0.96261 0.0
H788 H 0.81175 0.27619 0.45276 0.0
H789 H 0.81056 0.29234 0.59277 0.0
H790 H 0.85031 0.27173 0.45691 0.0
H791 H 0.84916 0.2874 0.59708 0.0
H792 H 0.9211 0.29637 0.57866 0.0
H793 H 0.88271 0.30257 0.57338 0.0
H794 H 0.87629 0.24745 0.48759 0.0
H795 H 0.91467 0.24134 0.49269 0.0
C796 C 0.81969 0.27876 0.48451 0.0
C797 C 0.80798 0.28454 0.5225 0.0
C798 C 0.84182 0.27607 0.48691 0.0
C799 C 0.85286 0.27906 0.52737 0.0
C800 C 0.84122 0.28516 0.56525 0.0
C801 C 0.81904 0.28789 0.56285 0.0
C802 C 0.91147 0.28551 0.55885 0.0
C803 C 0.92097 0.26834 0.53612 0.0
C804 C 0.88945 0.28906 0.55587 0.0
C805 C 0.87637 0.27551 0.5301 0.0
C806 C 0.8859 0.25841 0.50716 0.0
C807 C 0.90793 0.25489 0.51009 0.0
H808 H 0.7285 0.22727 0.4305 0.0
H809 H 0.74831 0.22123 0.56795 0.0
H810 H 0.72458 0.18869 0.42513 0.0
H811 H 0.74473 0.18275 0.56227 0.0
H812 H 0.71558 0.11624 0.5488 0.0
H813 H 0.71786 0.15494 0.55417 0.0
H814 H 0.74705 0.15689 0.4245 0.0
H815 H 0.74486 0.11825 0.41918 0.0
C816 C 0.73205 0.21775 0.45955 0.0
C817 C 0.73881 0.22739 0.4996 0.0
C818 C 0.7299 0.19561 0.45639 0.0
C819 C 0.73438 0.18261 0.49325 0.0
C820 C 0.7409 0.19229 0.5334 0.0
C821 C 0.7431 0.21438 0.53654 0.0
C822 C 0.72263 0.12491 0.52159 0.0
C823 C 0.73001 0.1141 0.48355 0.0
C824 C 0.72392 0.1471 0.52464 0.0
C825 C 0.73261 0.15904 0.48972 0.0
C826 C 0.73993 0.14823 0.45167 0.0
C827 C 0.73868 0.12606 0.44864 0.0
H828 H 0.30769 0.2439 0.08355 0.0
H829 H 0.31166 0.22397 0.94588 0.0
H830 H 0.346 0.24987 0.08536 0.0
H831 H 0.35019 0.23034 0.94762 0.0
H832 H 0.42228 0.22435 0.9865 0.0
H833 H 0.38393 0.21733 0.98066 0.0
H834 H 0.3711 0.2751 0.05453 0.0
H835 H 0.40924 0.28206 0.06039 0.0
C836 C 0.31672 0.2408 0.05359 0.0
C837 C 0.30651 0.23359 0.01447 0.0
C838 C 0.33871 0.24437 0.05457 0.0
C839 C 0.35115 0.24084 0.01648 0.0
C840 C 0.34108 0.23313 0.97759 0.0
C841 C 0.31899 0.22956 0.97657 0.0
C842 C 0.41123 0.23566 1.00102 0.0
C843 C 0.41883 0.25364 0.02435 0.0
C844 C 0.38926 0.23163 0.99769 0.0
C845 C 0.37445 0.24552 0.0176 0.0
C846 C 0.38208 0.26381 0.03972 0.0
C847 C 0.40396 0.26781 0.04306 0.0
H848 H 0.27971 0.79363 0.4458 0.0
H849 H 0.25782 0.79298 0.58185 0.0
H850 H 0.28162 0.83247 0.44876 0.0
H851 H 0.26015 0.83154 0.585 0.0
H852 H 0.24279 0.90037 0.56146 0.0
H853 H 0.24146 0.86178 0.55474 0.0
H854 H 0.301 0.86225 0.48303 0.0
H855 H 0.30223 0.90106 0.48957 0.0
C856 C 0.27545 0.80173 0.47641 0.0
C857 C 0.26842 0.79016 0.51346 0.0
C858 C 0.27663 0.82399 0.47815 0.0
C859 C 0.27083 0.83516 0.51697 0.0
C860 C 0.26429 0.82351 0.55425 0.0
C861 C 0.26309 0.80134 0.55251 0.0
C862 C 0.25565 0.89225 0.54442 0.0
C863 C 0.27272 0.90378 0.52644 0.0
C864 C 0.25491 0.8701 0.54061 0.0
C865 C 0.27125 0.85886 0.51881 0.0
C866 C 0.28807 0.87042 0.49976 0.0
C867 C 0.28879 0.89265 0.5035 0.0
H868 H 0.695 0.77379 0.07031 0.0
H869 H 0.69405 0.79616 0.93463 0.0
H870 H 0.65641 0.76931 0.06761 0.0
H871 H 0.65546 0.79119 0.93164 0.0
H872 H 0.58391 0.7988 0.95533 0.0
H873 H 0.62229 0.80505 0.96036 0.0
H874 H 0.62994 0.74654 0.03347 0.0
H875 H 0.59156 0.7404 0.02869 0.0
C876 C 0.68659 0.77771 0.03983 0.0
C877 C 0.6977 0.78526 1.00262 0.0
C878 C 0.66443 0.77502 0.03822 0.0
C879 C 0.65279 0.77978 0.99934 0.0
C880 C 0.66386 0.78759 0.9623 0.0
C881 C 0.68604 0.79033 0.96394 0.0
C882 C 0.5938 0.78724 0.97234 0.0
C883 C 0.58465 0.76908 0.99156 0.0
C884 C 0.61582 0.7908 0.97517 0.0
C885 C 0.62926 0.77628 0.99723 0.0
C886 C 0.62006 0.75823 0.01682 0.0
C887 C 0.59803 0.7547 0.01408 0.0
loop_
_geom_bond_atom_site_label_1
_geom_bond_atom_site_label_2
_geom_bond_distance
_geom_bond_site_symmetry_2
_ccdc_geom_bond_type
Fe0 O2 1.918 . S
Fe0 O5 1.997 . S
Fe0 O6 2.002 . S
Fe0 O11 1.976 . S
Fe0 O14 1.996 . S
Fe1 O2 1.918 1_556 S
Fe1 O9 1.997 . S
Fe1 O12 1.996 . S
Fe1 O16 1.976 . S
Fe1 O19 2.002 . S
O2 Fe0 1.918 . S
O2 Fe1 1.918 1_554 S
O2 Fe3 1.918 . S
Fe3 O2 1.918 . S
Fe3 O4 2.002 . S
Fe3 O13 1.976 . S
Fe3 O17 1.996 1_554 S
Fe3 O20 1.997 1_554 S
O4 Fe3 2.002 . S
O4 C21 1.295 . S
O5 Fe0 1.997 . S
O5 C21 1.235 . S
O6 Fe0 2.002 . S
O6 C7 1.295 . S
C7 O6 1.295 . S
C7 O9 1.235 1_554 S
C8 O13 1.287 . S
C8 O14 1.255 . S
O9 Fe1 1.997 . S
O9 C7 1.235 1_556 S
C10 O16 1.287 . S
C10 O17 1.255 . S
O11 Fe0 1.976 . S
O11 C18 1.287 . S
O12 Fe1 1.996 . S
O12 C18 1.255 1_556 S
O13 Fe3 1.976 . S
O13 C8 1.287 . S
O14 Fe0 1.996 . S
O14 C8 1.255 . S
C15 O19 1.295 . S
C15 O20 1.235 . S
O16 Fe1 1.976 . S
O16 C10 1.287 . S
O17 Fe3 1.996 1_556 S
O17 C10 1.255 . S
C18 O11 1.287 . S
C18 O12 1.255 1_554 S
O19 Fe1 2.002 . S
O19 C15 1.295 . S
O20 Fe3 1.997 1_556 S
O20 C15 1.235 . S
C21 O4 1.295 . S
C21 O5 1.235 . S
Fe22 O24 1.918 . S
Fe22 O27 1.997 . S
Fe22 O28 2.002 . S
Fe22 O33 1.976 . S
Fe22 O36 1.996 . S
Fe23 O24 1.918 . S
Fe23 O31 1.997 . S
Fe23 O34 1.996 . S
Fe23 O38 1.976 . S
Fe23 O41 2.002 . S
O24 Fe22 1.918 . S
O24 Fe23 1.918 . S
O24 Fe25 1.918 . S
Fe25 O24 1.918 . S
Fe25 O26 2.002 . S
Fe25 O35 1.976 . S
Fe25 O39 1.996 . S
Fe25 O42 1.997 . S
O26 Fe25 2.002 . S
O26 C43 1.295 . S
O27 Fe22 1.997 . S
O27 C43 1.235 . S
O28 Fe22 2.002 . S
O28 C29 1.295 . S
C29 O28 1.295 . S
C29 O31 1.235 . S
C30 O35 1.287 . S
C30 O36 1.255 . S
O31 Fe23 1.997 . S
O31 C29 1.235 . S
C32 O38 1.287 . S
C32 O39 1.255 . S
O33 Fe22 1.976 . S
O33 C40 1.287 . S
O34 Fe23 1.996 . S
O34 C40 1.255 . S
O35 Fe25 1.976 . S
O35 C30 1.287 . S
O36 Fe22 1.996 . S
O36 C30 1.255 . S
C37 O41 1.295 . S
C37 O42 1.235 . S
O38 Fe23 1.976 . S
O38 C32 1.287 . S
O39 Fe25 1.996 . S
O39 C32 1.255 . S
C40 O33 1.287 . S
C40 O34 1.255 . S
O41 Fe23 2.002 . S
O41 C37 1.295 . S
O42 Fe25 1.997 . S
O42 C37 1.235 . S
C43 O26 1.295 . S
C43 O27 1.235 . S
Fe44 O46 1.918 1_556 S
Fe44 O49 1.997 . S
Fe44 O50 2.002 . S
Fe44 O55 1.976 . S
Fe44 O58 1.996 . S
Fe45 O46 1.918 . S
Fe45 O53 1.997 . S
Fe45 O56 1.996 . S
Fe45 O60 1.976 . S
Fe45 O63 2.002 . S
O46 Fe44 1.918 1_554 S
O46 Fe45 1.918 . S
O46 Fe47 1.918 . S
Fe47 O46 1.918 . S
Fe47 O48 2.002 1_554 S
Fe47 O57 1.976 1_554 S
Fe47 O61 1.996 . S
Fe47 O64 1.997 . S
O48 Fe47 2.002 1_556 S
O48 C65 1.295 . S
O49 Fe44 1.997 . S
O49 C65 1.235 . S
O50 Fe44 2.002 . S
O50 C51 1.295 1_556 S
C51 O50 1.295 1_554 S
C51 O53 1.235 . S
C52 O57 1.287 . S
C52 O58 1.255 . S
O53 Fe45 1.997 . S
O53 C51 1.235 . S
C54 O60 1.287 . S
C54 O61 1.255 . S
O55 Fe44 1.976 . S
O55 C62 1.287 1_556 S
O56 Fe45 1.996 . S
O56 C62 1.255 . S
O57 Fe47 1.976 1_556 S
O57 C52 1.287 . S
O58 Fe44 1.996 . S
O58 C52 1.255 . S
C59 O63 1.295 . S
C59 O64 1.235 . S
O60 Fe45 1.976 . S
O60 C54 1.287 . S
O61 Fe47 1.996 . S
O61 C54 1.255 . S
C62 O55 1.287 1_554 S
C62 O56 1.255 . S
O63 Fe45 2.002 . S
O63 C59 1.295 . S
O64 Fe47 1.997 . S
O64 C59 1.235 . S
C65 O48 1.295 . S
C65 O49 1.235 . S
Fe66 O68 1.918 . S
Fe66 O71 1.997 . S
Fe66 O72 2.002 . S
Fe66 O77 1.976 . S
Fe66 O80 1.996 . S
Fe67 O68 1.918 . S
Fe67 O75 1.997 . S
Fe67 O78 1.996 . S
Fe67 O82 1.976 . S
Fe67 O85 2.002 . S
O68 Fe66 1.918 . S
O68 Fe67 1.918 . S
O68 Fe69 1.918 . S
Fe69 O68 1.918 . S
Fe69 O70 2.002 . S
Fe69 O79 1.976 . S
Fe69 O83 1.996 . S
Fe69 O86 1.997 . S
O70 Fe69 2.002 . S
O70 C87 1.295 . S
O71 Fe66 1.997 . S
O71 C87 1.235 . S
O72 Fe66 2.002 . S
O72 C73 1.295 . S
C73 O72 1.295 . S
C73 O75 1.235 . S
C74 O79 1.287 . S
C74 O80 1.255 . S
O75 Fe67 1.997 . S
O75 C73 1.235 . S
C76 O82 1.287 . S
C76 O83 1.255 . S
O77 Fe66 1.976 . S
O77 C84 1.287 . S
O78 Fe67 1.996 . S
O78 C84 1.255 . S
O79 Fe69 1.976 . S
O79 C74 1.287 . S
O80 Fe66 1.996 . S
O80 C74 1.255 . S
C81 O85 1.295 . S
C81 O86 1.235 . S
O82 Fe67 1.976 . S
O82 C76 1.287 . S
O83 Fe69 1.996 . S
O83 C76 1.255 . S
C84 O77 1.287 . S
C84 O78 1.255 . S
O85 Fe67 2.002 . S
O85 C81 1.295 . S
O86 Fe69 1.997 . S
O86 C81 1.235 . S
C87 O70 1.295 . S
C87 O71 1.235 . S
C88 C89 1.264 . S
C88 C93 1.479 . S
C88 C98 1.465 . S
C89 C88 1.264 . S
C89 C91 1.339 . S
C89 H116 0.931 . S
C90 C91 1.395 . S
C90 C92 1.320 . S
C91 C89 1.339 . S
C91 C90 1.395 . S
C91 H117 0.929 . S
C92 C90 1.320 . S
C92 C93 1.405 . S
C92 H118 0.930 . S
C93 C88 1.479 . S
C93 C92 1.405 . S
C93 H119 0.931 . S
U94 O95 2.454 . S
U94 O96 2.458 1_556 S
U94 C97 2.984 1_556 S
U94 C98 2.847 . S
U94 C111 2.882 1_556 S
U94 O112 2.441 . S
U94 O113 2.420 . S
U94 O114 2.455 1_556 S
U94 O115 2.449 1_556 S
O95 U94 2.454 . S
O95 C97 1.341 1_556 S
O96 U94 2.458 1_554 S
O96 C97 1.298 . S
C97 U94 2.984 1_554 S
C97 O95 1.341 1_554 S
C97 O96 1.298 . S
C97 C99 1.364 . S
C98 C88 1.465 . S
C98 U94 2.847 . S
C98 O112 1.249 . S
C98 O113 1.202 . S
C99 C97 1.364 . S
C99 C101 1.408 1_554 S
C99 C104 1.342 . S
C100 C101 1.310 . S
C100 C103 1.461 1_556 S
C100 H120 0.932 . S
C101 C99 1.408 1_556 S
C101 C100 1.310 . S
C101 H121 0.930 . S
C102 C103 1.474 . S
C102 C104 1.285 . S
C102 H122 0.929 . S
C103 C100 1.461 1_554 S
C103 C102 1.474 . S
C104 C99 1.342 . S
C104 C102 1.285 . S
C104 H123 0.930 . S
C105 C108 1.424 . S
C105 C110 1.245 . S
C105 C111 1.428 . S
C106 C109 1.260 . S
C106 C110 1.477 . S
C106 H124 0.932 . S
C107 C108 1.384 . S
C107 C109 1.479 . S
C107 H125 0.929 . S
C108 C105 1.424 . S
C108 C107 1.384 . S
C108 H126 0.928 . S
C109 C106 1.260 . S
C109 C107 1.479 . S
C110 C105 1.245 . S
C110 C106 1.477 . S
C110 H127 0.932 . S
C111 U94 2.882 1_554 S
C111 C105 1.428 . S
C111 O114 1.301 . S
C111 O115 1.282 . S
O112 U94 2.441 . S
O112 C98 1.249 . S
O113 U94 2.420 . S
O113 C98 1.202 . S
O114 U94 2.455 1_554 S
O114 C111 1.301 . S
O115 U94 2.449 1_554 S
O115 C111 1.282 . S
H116 C89 0.931 . S
H117 C91 0.929 . S
H118 C92 0.930 . S
H119 C93 0.931 . S
H120 C100 0.932 . S
H121 C101 0.930 . S
H122 C102 0.929 . S
H123 C104 0.930 . S
H124 C106 0.932 . S
H125 C107 0.929 . S
H126 C108 0.928 . S
H127 C110 0.932 . S
C128 C129 1.264 . S
C128 C133 1.479 . S
C128 C138 1.465 . S
C129 C128 1.264 . S
C129 C131 1.339 . S
C129 H156 0.931 . S
C130 C131 1.395 . S
C130 C132 1.320 . S
C131 C129 1.339 . S
C131 C130 1.395 . S
C131 H157 0.929 . S
C132 C130 1.320 . S
C132 C133 1.405 . S
C132 H158 0.930 . S
C133 C128 1.479 . S
C133 C132 1.405 . S
C133 H159 0.931 . S
U134 O135 2.454 1_655 S
U134 O136 2.458 1_655 S
U134 C137 2.984 1_655 S
U134 C138 2.847 . S
U134 C151 2.882 . S
U134 O152 2.441 . S
U134 O153 2.420 . S
U134 O154 2.455 . S
U134 O155 2.449 . S
O135 U134 2.454 1_455 S
O135 C137 1.353 . S
O136 U134 2.458 1_455 S
O136 C137 1.286 . S
C137 U134 2.984 1_455 S
C137 O135 1.353 . S
C137 O136 1.286 . S
C137 C139 1.363 . S
C138 C128 1.465 . S
C138 U134 2.847 . S
C138 O152 1.249 . S
C138 O153 1.202 . S
C139 C137 1.363 . S
C139 C141 1.408 . S
C139 C144 1.342 . S
C140 C141 1.310 . S
C140 C143 1.461 . S
C140 H160 0.932 . S
C141 C139 1.408 . S
C141 C140 1.310 . S
C141 H161 0.930 . S
C142 C143 1.474 . S
C142 C144 1.285 . S
C142 H162 0.929 . S
C143 C140 1.461 . S
C143 C142 1.474 . S
C144 C139 1.342 . S
C144 C142 1.285 . S
C144 H163 0.930 . S
C145 C148 1.424 . S
C145 C150 1.245 . S
C145 C151 1.428 . S
C146 C149 1.260 . S
C146 C150 1.477 . S
C146 H164 0.932 . S
C147 C148 1.384 . S
C147 C149 1.479 . S
C147 H165 0.929 . S
C148 C145 1.424 . S
C148 C147 1.384 . S
C148 H166 0.928 . S
C149 C146 1.260 . S
C149 C147 1.479 . S
C150 C145 1.245 . S
C150 C146 1.477 . S
C150 H167 0.932 . S
C151 U134 2.882 . S
C151 C145 1.428 . S
C151 O154 1.301 . S
C151 O155 1.282 . S
O152 U134 2.441 . S
O152 C138 1.249 . S
O153 U134 2.420 . S
O153 C138 1.202 . S
O154 U134 2.455 . S
O154 C151 1.301 . S
O155 U134 2.449 . S
O155 C151 1.282 . S
H156 C129 0.931 . S
H157 C131 0.929 . S
H158 C132 0.930 . S
H159 C133 0.931 . S
H160 C140 0.932 . S
H161 C141 0.930 . S
H162 C142 0.929 . S
H163 C144 0.930 . S
H164 C146 0.932 . S
H165 C147 0.929 . S
H166 C148 0.928 . S
H167 C150 0.932 . S
C168 C169 1.264 . S
C168 C173 1.479 . S
C168 C178 1.465 . S
C169 C168 1.264 . S
C169 C171 1.339 . S
C169 H196 0.931 . S
C170 C171 1.395 . S
C170 C172 1.320 . S
C171 C169 1.339 . S
C171 C170 1.395 . S
C171 H197 0.929 . S
C172 C170 1.320 . S
C172 C173 1.405 . S
C172 H198 0.930 . S
C173 C168 1.479 . S
C173 C172 1.405 . S
C173 H199 0.931 . S
U174 O175 2.454 . S
U174 O176 2.458 1_554 S
U174 C177 2.984 . S
U174 C178 2.847 . S
U174 C191 2.882 1_554 S
U174 O192 2.441 . S
U174 O193 2.420 . S
U174 O194 2.455 1_554 S
U174 O195 2.449 1_554 S
O175 U174 2.454 . S
O175 C177 1.353 . S
O176 U174 2.458 1_556 S
O176 C177 1.286 1_556 S
C177 U174 2.984 . S
C177 O175 1.353 . S
C177 O176 1.286 1_554 S
C177 C179 1.363 . S
C178 C168 1.465 . S
C178 U174 2.847 . S
C178 O192 1.249 . S
C178 O193 1.202 . S
C179 C177 1.363 . S
C179 C181 1.408 . S
C179 C184 1.342 1_554 S
C180 C181 1.310 . S
C180 C183 1.461 . S
C180 H200 0.932 . S
C181 C179 1.408 . S
C181 C180 1.310 . S
C181 H201 0.930 . S
C182 C183 1.474 1_556 S
C182 C184 1.285 . S
C182 H202 0.929 . S
C183 C180 1.461 . S
C183 C182 1.474 1_554 S
C184 C179 1.342 1_556 S
C184 C182 1.285 . S
C184 H203 0.930 . S
C185 C188 1.424 . S
C185 C190 1.245 . S
C185 C191 1.428 . S
C186 C189 1.260 . S
C186 C190 1.477 . S
C186 H204 0.932 . S
C187 C188 1.384 . S
C187 C189 1.479 . S
C187 H205 0.929 . S
C188 C185 1.424 . S
C188 C187 1.384 . S
C188 H206 0.928 . S
C189 C186 1.260 . S
C189 C187 1.479 . S
C190 C185 1.245 . S
C190 C186 1.477 . S
C190 H207 0.932 . S
C191 U174 2.882 1_556 S
C191 C185 1.428 . S
C191 O194 1.301 . S
C191 O195 1.282 . S
O192 U174 2.441 . S
O192 C178 1.249 . S
O193 U174 2.420 . S
O193 C178 1.202 . S
O194 U174 2.455 1_556 S
O194 C191 1.301 . S
O195 U174 2.449 1_556 S
O195 C191 1.282 . S
H196 C169 0.931 . S
H197 C171 0.929 . S
H198 C172 0.930 . S
H199 C173 0.931 . S
H200 C180 0.932 . S
H201 C181 0.930 . S
H202 C182 0.929 . S
H203 C184 0.930 . S
H204 C186 0.932 . S
H205 C187 0.929 . S
H206 C188 0.928 . S
H207 C190 0.932 . S
C208 C209 1.264 . S
C208 C213 1.479 . S
C208 C218 1.465 . S
C209 C208 1.264 . S
C209 C211 1.339 . S
C209 H236 0.931 . S
C210 C211 1.395 . S
C210 C212 1.320 . S
C211 C209 1.339 . S
C211 C210 1.395 . S
C211 H237 0.929 . S
C212 C210 1.320 . S
C212 C213 1.405 . S
C212 H238 0.930 . S
C213 C208 1.479 . S
C213 C212 1.405 . S
C213 H239 0.931 . S
U214 O215 2.454 1_455 S
U214 O216 2.458 1_455 S
U214 C217 2.984 1_455 S
U214 C218 2.847 . S
U214 C231 2.882 . S
U214 O232 2.441 . S
U214 O233 2.420 . S
U214 O234 2.455 . S
U214 O235 2.449 . S
O215 U214 2.454 1_655 S
O215 C217 1.353 . S
O216 U214 2.458 1_655 S
O216 C217 1.286 . S
C217 U214 2.984 1_655 S
C217 O215 1.353 . S
C217 O216 1.286 . S
C217 C219 1.363 . S
C218 C208 1.465 . S
C218 U214 2.847 . S
C218 O232 1.249 . S
C218 O233 1.202 . S
C219 C217 1.363 . S
C219 C221 1.408 . S
C219 C224 1.342 . S
C220 C221 1.310 . S
C220 C223 1.461 . S
C220 H240 0.932 . S
C221 C219 1.408 . S
C221 C220 1.310 . S
C221 H241 0.930 . S
C222 C223 1.474 . S
C222 C224 1.285 . S
C222 H242 0.929 . S
C223 C220 1.461 . S
C223 C222 1.474 . S
C224 C219 1.342 . S
C224 C222 1.285 . S
C224 H243 0.930 . S
C225 C228 1.424 . S
C225 C230 1.245 . S
C225 C231 1.428 . S
C226 C229 1.260 . S
C226 C230 1.477 . S
C226 H244 0.932 . S
C227 C228 1.384 . S
C227 C229 1.479 . S
C227 H245 0.929 . S
C228 C225 1.424 . S
C228 C227 1.384 . S
C228 H246 0.928 . S
C229 C226 1.260 . S
C229 C227 1.479 . S
C230 C225 1.245 . S
C230 C226 1.477 . S
C230 H247 0.932 . S
C231 U214 2.882 . S
C231 C225 1.428 . S
C231 O234 1.301 . S
C231 O235 1.282 . S
O232 U214 2.441 . S
O232 C218 1.249 . S
O233 U214 2.420 . S
O233 C218 1.202 . S
O234 U214 2.455 . S
O234 C231 1.301 . S
O235 U214 2.449 . S
O235 C231 1.282 . S
H236 C209 0.931 . S
H237 C211 0.929 . S
H238 C212 0.930 . S
H239 C213 0.931 . S
H240 C220 0.932 . S
H241 C221 0.930 . S
H242 C222 0.929 . S
H243 C224 0.930 . S
H244 C226 0.932 . S
H245 C227 0.929 . S
H246 C228 0.928 . S
H247 C230 0.932 . S
C248 C249 1.264 . S
C248 C253 1.479 . S
C248 C258 1.465 . S
C249 C248 1.264 . S
C249 C251 1.339 . S
C249 H276 0.931 . S
C250 C251 1.395 . S
C250 C252 1.320 . S
C251 C249 1.339 . S
C251 C250 1.395 . S
C251 H277 0.929 . S
C252 C250 1.320 . S
C252 C253 1.405 . S
C252 H278 0.930 . S
C253 C248 1.479 . S
C253 C252 1.405 . S
C253 H279 0.931 . S
U254 O255 2.454 1_565 S
U254 O256 2.458 1_565 S
U254 C257 2.984 1_565 S
U254 C258 2.847 . S
U254 C271 2.882 . S
U254 O272 2.441 . S
U254 O273 2.420 . S
U254 O274 2.455 . S
U254 O275 2.449 . S
O255 U254 2.454 1_545 S
O255 C257 1.353 . S
O256 U254 2.458 1_545 S
O256 C257 1.286 . S
C257 U254 2.984 1_545 S
C257 O255 1.353 . S
C257 O256 1.286 . S
C257 C259 1.363 . S
C258 C248 1.465 . S
C258 U254 2.847 . S
C258 O272 1.249 . S
C258 O273 1.202 . S
C259 C257 1.363 . S
C259 C261 1.408 . S
C259 C264 1.342 . S
C260 C261 1.310 . S
C260 C263 1.461 . S
C260 H280 0.932 . S
C261 C259 1.408 . S
C261 C260 1.310 . S
C261 H281 0.930 . S
C262 C263 1.474 . S
C262 C264 1.285 . S
C262 H282 0.929 . S
C263 C260 1.461 . S
C263 C262 1.474 . S
C264 C259 1.342 . S
C264 C262 1.285 . S
C264 H283 0.930 . S
C265 C268 1.424 . S
C265 C270 1.245 . S
C265 C271 1.428 . S
C266 C269 1.260 . S
C266 C270 1.477 . S
C266 H284 0.932 . S
C267 C268 1.384 . S
C267 C269 1.479 . S
C267 H285 0.929 . S
C268 C265 1.424 . S
C268 C267 1.384 . S
C268 H286 0.928 . S
C269 C266 1.260 . S
C269 C267 1.479 . S
C270 C265 1.245 . S
C270 C266 1.477 . S
C270 H287 0.932 . S
C271 U254 2.882 . S
C271 C265 1.428 . S
C271 O274 1.301 . S
C271 O275 1.282 . S
O272 U254 2.441 . S
O272 C258 1.249 . S
O273 U254 2.420 . S
O273 C258 1.202 . S
O274 U254 2.455 . S
O274 C271 1.301 . S
O275 U254 2.449 . S
O275 C271 1.282 . S
H276 C249 0.931 . S
H277 C251 0.929 . S
H278 C252 0.930 . S
H279 C253 0.931 . S
H280 C260 0.932 . S
H281 C261 0.930 . S
H282 C262 0.929 . S
H283 C264 0.930 . S
H284 C266 0.932 . S
H285 C267 0.929 . S
H286 C268 0.928 . S
H287 C270 0.932 . S
C288 C289 1.264 . S
C288 C293 1.479 . S
C288 C298 1.465 . S
C289 C288 1.264 . S
C289 C291 1.339 . S
C289 H316 0.931 . S
C290 C291 1.395 . S
C290 C292 1.320 . S
C291 C289 1.339 . S
C291 C290 1.395 . S
C291 H317 0.929 . S
C292 C290 1.320 . S
C292 C293 1.405 . S
C292 H318 0.930 . S
C293 C288 1.479 . S
C293 C292 1.405 . S
C293 H319 0.931 . S
U294 O295 2.454 1_554 S
U294 O296 2.458 . S
U294 C297 2.984 . S
U294 C298 2.847 1_554 S
U294 C311 2.882 . S
U294 O312 2.441 1_554 S
U294 O313 2.420 1_554 S
U294 O314 2.455 . S
U294 O315 2.449 . S
O295 U294 2.454 1_556 S
O295 C297 1.353 1_556 S
O296 U294 2.458 . S
O296 C297 1.286 . S
C297 U294 2.984 . S
C297 O295 1.353 1_554 S
C297 O296 1.286 . S
C297 C299 1.363 . S
C298 C288 1.465 . S
C298 U294 2.847 1_556 S
C298 O312 1.249 . S
C298 O313 1.202 . S
C299 C297 1.363 . S
C299 C301 1.408 1_554 S
C299 C304 1.342 . S
C300 C301 1.310 . S
C300 C303 1.461 1_556 S
C300 H320 0.932 . S
C301 C299 1.408 1_556 S
C301 C300 1.310 . S
C301 H321 0.930 . S
C302 C303 1.474 . S
C302 C304 1.285 . S
C302 H322 0.929 . S
C303 C300 1.461 1_554 S
C303 C302 1.474 . S
C304 C299 1.342 . S
C304 C302 1.285 . S
C304 H323 0.930 . S
C305 C308 1.424 . S
C305 C310 1.245 . S
C305 C311 1.428 . S
C306 C309 1.260 . S
C306 C310 1.477 . S
C306 H324 0.932 . S
C307 C308 1.384 . S
C307 C309 1.479 . S
C307 H325 0.929 . S
C308 C305 1.424 . S
C308 C307 1.384 . S
C308 H326 0.928 . S
C309 C306 1.260 . S
C309 C307 1.479 . S
C310 C305 1.245 . S
C310 C306 1.477 . S
C310 H327 0.932 . S
C311 U294 2.882 . S
C311 C305 1.428 . S
C311 O314 1.301 . S
C311 O315 1.282 . S
O312 U294 2.441 1_556 S
O312 C298 1.249 . S
O313 U294 2.420 1_556 S
O313 C298 1.202 . S
O314 U294 2.455 . S
O314 C311 1.301 . S
O315 U294 2.449 . S
O315 C311 1.282 . S
H316 C289 0.931 . S
H317 C291 0.929 . S
H318 C292 0.930 . S
H319 C293 0.931 . S
H320 C300 0.932 . S
H321 C301 0.930 . S
H322 C302 0.929 . S
H323 C304 0.930 . S
H324 C306 0.932 . S
H325 C307 0.929 . S
H326 C308 0.928 . S
H327 C310 0.932 . S
C328 C329 1.264 . S
C328 C333 1.479 . S
C328 C338 1.465 . S
C329 C328 1.264 . S
C329 C331 1.339 . S
C329 H356 0.931 . S
C330 C331 1.395 . S
C330 C332 1.320 . S
C331 C329 1.339 . S
C331 C330 1.395 . S
C331 H357 0.929 . S
C332 C330 1.320 . S
C332 C333 1.405 . S
C332 H358 0.930 . S
C333 C328 1.479 . S
C333 C332 1.405 . S
C333 H359 0.931 . S
U334 O335 2.454 1_545 S
U334 O336 2.458 1_545 S
U334 C337 2.984 1_545 S
U334 C338 2.847 . S
U334 C351 2.882 . S
U334 O352 2.441 . S
U334 O353 2.420 . S
U334 O354 2.455 . S
U334 O355 2.449 . S
O335 U334 2.454 1_565 S
O335 C337 1.353 . S
O336 U334 2.458 1_565 S
O336 C337 1.286 . S
C337 U334 2.984 1_565 S
C337 O335 1.353 . S
C337 O336 1.286 . S
C337 C339 1.363 . S
C338 C328 1.465 . S
C338 U334 2.847 . S
C338 O352 1.249 . S
C338 O353 1.202 . S
C339 C337 1.363 . S
C339 C341 1.408 . S
C339 C344 1.342 . S
C340 C341 1.310 . S
C340 C343 1.461 . S
C340 H360 0.932 . S
C341 C339 1.408 . S
C341 C340 1.310 . S
C341 H361 0.930 . S
C342 C343 1.474 . S
C342 C344 1.285 . S
C342 H362 0.929 . S
C343 C340 1.461 . S
C343 C342 1.474 . S
C344 C339 1.342 . S
C344 C342 1.285 . S
C344 H363 0.930 . S
C345 C348 1.424 . S
C345 C350 1.245 . S
C345 C351 1.428 . S
C346 C349 1.260 . S
C346 C350 1.477 . S
C346 H364 0.932 . S
C347 C348 1.384 . S
C347 C349 1.479 . S
C347 H365 0.929 . S
C348 C345 1.424 . S
C348 C347 1.384 . S
C348 H366 0.928 . S
C349 C346 1.260 . S
C349 C347 1.479 . S
C350 C345 1.245 . S
C350 C346 1.477 . S
C350 H367 0.932 . S
C351 U334 2.882 . S
C351 C345 1.428 . S
C351 O354 1.301 . S
C351 O355 1.282 . S
O352 U334 2.441 . S
O352 C338 1.249 . S
O353 U334 2.420 . S
O353 C338 1.202 . S
O354 U334 2.455 . S
O354 C351 1.301 . S
O355 U334 2.449 . S
O355 C351 1.282 . S
H356 C329 0.931 . S
H357 C331 0.929 . S
H358 C332 0.930 . S
H359 C333 0.931 . S
H360 C340 0.932 . S
H361 C341 0.930 . S
H362 C342 0.929 . S
H363 C344 0.930 . S
H364 C346 0.932 . S
H365 C347 0.929 . S
H366 C348 0.928 . S
H367 C350 0.932 . S
C368 C369 1.264 . S
C368 C373 1.479 . S
C368 C378 1.465 . S
C369 C368 1.264 . S
C369 C371 1.339 . S
C369 H396 0.931 . S
C370 C371 1.395 . S
C370 C372 1.320 . S
C371 C369 1.339 . S
C371 C370 1.395 . S
C371 H397 0.929 . S
C372 C370 1.320 . S
C372 C373 1.405 . S
C372 H398 0.930 . S
C373 C368 1.479 . S
C373 C372 1.405 . S
C373 H399 0.931 . S
U374 O375 2.454 . S
U374 O376 2.458 1_554 S
U374 C377 2.984 . S
U374 C378 2.847 . S
U374 C391 2.882 1_554 S
U374 O392 2.441 . S
U374 O393 2.420 . S
U374 O394 2.455 1_554 S
U374 O395 2.449 1_554 S
O375 U374 2.454 . S
O375 C377 1.353 . S
O376 U374 2.458 1_556 S
O376 C377 1.286 1_556 S
C377 U374 2.984 . S
C377 O375 1.353 . S
C377 O376 1.286 1_554 S
C377 C379 1.363 . S
C378 C368 1.465 . S
C378 U374 2.847 . S
C378 O392 1.249 . S
C378 O393 1.202 . S
C379 C377 1.363 . S
C379 C381 1.408 . S
C379 C384 1.342 1_554 S
C380 C381 1.310 . S
C380 C383 1.461 . S
C380 H400 0.932 . S
C381 C379 1.408 . S
C381 C380 1.310 . S
C381 H401 0.930 . S
C382 C383 1.474 1_556 S
C382 C384 1.285 . S
C382 H402 0.929 . S
C383 C380 1.461 . S
C383 C382 1.474 1_554 S
C384 C379 1.342 1_556 S
C384 C382 1.285 . S
C384 H403 0.930 . S
C385 C388 1.424 . S
C385 C390 1.245 . S
C385 C391 1.428 . S
C386 C389 1.260 . S
C386 C390 1.477 . S
C386 H404 0.932 . S
C387 C388 1.384 . S
C387 C389 1.479 . S
C387 H405 0.929 . S
C388 C385 1.424 . S
C388 C387 1.384 . S
C388 H406 0.928 . S
C389 C386 1.260 . S
C389 C387 1.479 . S
C390 C385 1.245 . S
C390 C386 1.477 . S
C390 H407 0.932 . S
C391 U374 2.882 1_556 S
C391 C385 1.428 . S
C391 O394 1.301 . S
C391 O395 1.282 . S
O392 U374 2.441 . S
O392 C378 1.249 . S
O393 U374 2.420 . S
O393 C378 1.202 . S
O394 U374 2.455 1_556 S
O394 C391 1.301 . S
O395 U374 2.449 1_556 S
O395 C391 1.282 . S
H396 C369 0.931 . S
H397 C371 0.929 . S
H398 C372 0.930 . S
H399 C373 0.931 . S
H400 C380 0.932 . S
H401 C381 0.930 . S
H402 C382 0.929 . S
H403 C384 0.930 . S
H404 C386 0.932 . S
H405 C387 0.929 . S
H406 C388 0.928 . S
H407 C390 0.932 . S
H408 C416 0.950 . S
H409 C421 0.950 . S
H410 C418 0.950 . S
H411 C420 0.950 . S
H412 C422 0.950 . S
H413 C424 0.950 . S
H414 C426 0.950 . S
H415 C427 0.950 . S
C416 H408 0.950 . S
C416 C417 1.386 . S
C416 C418 1.391 . S
C417 C416 1.386 . S
C417 C421 1.393 . S
C418 H410 0.950 . S
C418 C416 1.391 . S
C418 C419 1.400 . S
C419 C418 1.400 . S
C419 C420 1.398 . S
C419 C425 1.491 . S
C420 H411 0.950 . S
C420 C419 1.398 . S
C420 C421 1.391 . S
C421 H409 0.950 . S
C421 C417 1.393 . S
C421 C420 1.391 . S
C422 H412 0.950 . S
C422 C423 1.386 . S
C422 C424 1.391 . S
C423 C422 1.386 . S
C423 C427 1.393 . S
C424 H413 0.950 . S
C424 C422 1.391 . S
C424 C425 1.400 . S
C425 C419 1.491 . S
C425 C424 1.400 . S
C425 C426 1.398 . S
C426 H414 0.950 . S
C426 C425 1.398 . S
C426 C427 1.391 . S
C427 H415 0.950 . S
C427 C423 1.393 . S
C427 C426 1.391 . S
H428 C436 0.950 . S
H429 C441 0.950 . S
H430 C438 0.950 . S
H431 C440 0.950 . S
H432 C442 0.950 . S
H433 C444 0.950 . S
H434 C446 0.950 . S
H435 C447 0.950 . S
C436 H428 0.950 . S
C436 C437 1.386 . S
C436 C438 1.391 . S
C437 C436 1.386 . S
C437 C441 1.393 . S
C438 H430 0.950 . S
C438 C436 1.391 . S
C438 C439 1.400 . S
C439 C438 1.400 . S
C439 C440 1.398 . S
C439 C445 1.491 . S
C440 H431 0.950 . S
C440 C439 1.398 . S
C440 C441 1.391 . S
C441 H429 0.950 . S
C441 C437 1.393 . S
C441 C440 1.391 . S
C442 H432 0.950 . S
C442 C443 1.386 . S
C442 C444 1.391 . S
C443 C442 1.386 . S
C443 C447 1.393 . S
C444 H433 0.950 . S
C444 C442 1.391 . S
C444 C445 1.400 . S
C445 C439 1.491 . S
C445 C444 1.400 . S
C445 C446 1.398 . S
C446 H434 0.950 . S
C446 C445 1.398 . S
C446 C447 1.391 . S
C447 H435 0.950 . S
C447 C443 1.393 . S
C447 C446 1.391 . S
H448 C456 0.950 . S
H449 C461 0.950 . S
H450 C458 0.950 . S
H451 C460 0.950 . S
H452 C462 0.950 . S
H453 C464 0.950 . S
H454 C466 0.950 . S
H455 C467 0.950 . S
C456 H448 0.950 . S
C456 C457 1.386 . S
C456 C458 1.391 . S
C457 C456 1.386 . S
C457 C461 1.393 . S
C458 H450 0.950 . S
C458 C456 1.391 . S
C458 C459 1.400 . S
C459 C458 1.400 . S
C459 C460 1.398 . S
C459 C465 1.491 . S
C460 H451 0.950 . S
C460 C459 1.398 . S
C460 C461 1.391 . S
C461 H449 0.950 . S
C461 C457 1.393 . S
C461 C460 1.391 . S
C462 H452 0.950 . S
C462 C463 1.386 . S
C462 C464 1.391 . S
C463 C462 1.386 . S
C463 C467 1.393 . S
C464 H453 0.950 . S
C464 C462 1.391 . S
C464 C465 1.400 . S
C465 C459 1.491 . S
C465 C464 1.400 . S
C465 C466 1.398 . S
C466 H454 0.950 . S
C466 C465 1.398 . S
C466 C467 1.391 . S
C467 H455 0.950 . S
C467 C463 1.393 . S
C467 C466 1.391 . S
H468 C476 0.950 . S
H469 C481 0.950 . S
H470 C478 0.950 . S
H471 C480 0.950 . S
H472 C482 0.950 . S
H473 C484 0.950 . S
H474 C486 0.950 . S
H475 C487 0.950 . S
C476 H468 0.950 . S
C476 C477 1.386 . S
C476 C478 1.391 . S
C477 C476 1.386 . S
C477 C481 1.393 . S
C478 H470 0.950 . S
C478 C476 1.391 . S
C478 C479 1.400 . S
C479 C478 1.400 . S
C479 C480 1.398 . S
C479 C485 1.491 . S
C480 H471 0.950 . S
C480 C479 1.398 . S
C480 C481 1.391 . S
C481 H469 0.950 . S
C481 C477 1.393 . S
C481 C480 1.391 . S
C482 H472 0.950 . S
C482 C483 1.386 . S
C482 C484 1.391 . S
C483 C482 1.386 . S
C483 C487 1.393 . S
C484 H473 0.950 . S
C484 C482 1.391 . S
C484 C485 1.400 . S
C485 C479 1.491 . S
C485 C484 1.400 . S
C485 C486 1.398 . S
C486 H474 0.950 . S
C486 C485 1.398 . S
C486 C487 1.391 . S
C487 H475 0.950 . S
C487 C483 1.393 . S
C487 C486 1.391 . S
H488 C496 0.950 . S
H489 C501 0.950 . S
H490 C498 0.950 . S
H491 C500 0.950 . S
H492 C502 0.950 . S
H493 C504 0.950 . S
H494 C506 0.950 . S
H495 C507 0.950 . S
C496 H488 0.950 . S
C496 C497 1.386 . S
C496 C498 1.391 . S
C497 C496 1.386 . S
C497 C501 1.393 . S
C498 H490 0.950 . S
C498 C496 1.391 . S
C498 C499 1.400 . S
C499 C498 1.400 . S
C499 C500 1.398 . S
C499 C505 1.491 . S
C500 H491 0.950 . S
C500 C499 1.398 . S
C500 C501 1.391 . S
C501 H489 0.950 . S
C501 C497 1.393 . S
C501 C500 1.391 . S
C502 H492 0.950 . S
C502 C503 1.386 . S
C502 C504 1.391 . S
C503 C502 1.386 . S
C503 C507 1.393 . S
C504 H493 0.950 . S
C504 C502 1.391 . S
C504 C505 1.400 . S
C505 C499 1.491 . S
C505 C504 1.400 . S
C505 C506 1.398 . S
C506 H494 0.950 . S
C506 C505 1.398 . S
C506 C507 1.391 . S
C507 H495 0.950 . S
C507 C503 1.393 . S
C507 C506 1.391 . S
H508 C516 0.950 . S
H509 C521 0.950 . S
H510 C518 0.950 . S
H511 C520 0.950 . S
H512 C522 0.950 . S
H513 C524 0.950 . S
H514 C526 0.950 . S
H515 C527 0.950 . S
C516 H508 0.950 . S
C516 C517 1.386 . S
C516 C518 1.391 . S
C517 C516 1.386 . S
C517 C521 1.393 . S
C518 H510 0.950 . S
C518 C516 1.391 . S
C518 C519 1.400 . S
C519 C518 1.400 . S
C519 C520 1.398 . S
C519 C525 1.491 . S
C520 H511 0.950 . S
C520 C519 1.398 . S
C520 C521 1.391 . S
C521 H509 0.950 . S
C521 C517 1.393 . S
C521 C520 1.391 . S
C522 H512 0.950 . S
C522 C523 1.386 . S
C522 C524 1.391 . S
C523 C522 1.386 . S
C523 C527 1.393 . S
C524 H513 0.950 . S
C524 C522 1.391 . S
C524 C525 1.400 . S
C525 C519 1.491 . S
C525 C524 1.400 . S
C525 C526 1.398 . S
C526 H514 0.950 . S
C526 C525 1.398 . S
C526 C527 1.391 . S
C527 H515 0.950 . S
C527 C523 1.393 . S
C527 C526 1.391 . S
H528 C536 0.950 . S
H529 C541 0.950 . S
H530 C538 0.950 . S
H531 C540 0.950 . S
H532 C542 0.950 . S
H533 C544 0.950 . S
H534 C546 0.950 . S
H535 C547 0.950 . S
C536 H528 0.950 . S
C536 C537 1.386 . S
C536 C538 1.391 . S
C537 C536 1.386 . S
C537 C541 1.393 . S
C538 H530 0.950 . S
C538 C536 1.391 . S
C538 C539 1.400 . S
C539 C538 1.400 . S
C539 C540 1.398 . S
C539 C545 1.491 . S
C540 H531 0.950 . S
C540 C539 1.398 . S
C540 C541 1.391 . S
C541 H529 0.950 . S
C541 C537 1.393 . S
C541 C540 1.391 . S
C542 H532 0.950 . S
C542 C543 1.386 . S
C542 C544 1.391 . S
C543 C542 1.386 . S
C543 C547 1.393 . S
C544 H533 0.950 . S
C544 C542 1.391 . S
C544 C545 1.400 . S
C545 C539 1.491 . S
C545 C544 1.400 . S
C545 C546 1.398 . S
C546 H534 0.950 . S
C546 C545 1.398 . S
C546 C547 1.391 . S
C547 H535 0.950 . S
C547 C543 1.393 . S
C547 C546 1.391 . S
H548 C556 0.950 . S
H549 C561 0.950 . S
H550 C558 0.950 . S
H551 C560 0.950 . S
H552 C562 0.950 . S
H553 C564 0.950 . S
H554 C566 0.950 . S
H555 C567 0.950 . S
C556 H548 0.950 . S
C556 C557 1.386 . S
C556 C558 1.391 . S
C557 C556 1.386 . S
C557 C561 1.393 . S
C558 H550 0.950 . S
C558 C556 1.391 . S
C558 C559 1.400 . S
C559 C558 1.400 . S
C559 C560 1.398 . S
C559 C565 1.491 . S
C560 H551 0.950 . S
C560 C559 1.398 . S
C560 C561 1.391 . S
C561 H549 0.950 . S
C561 C557 1.393 . S
C561 C560 1.391 . S
C562 H552 0.950 . S
C562 C563 1.386 . S
C562 C564 1.391 . S
C563 C562 1.386 . S
C563 C567 1.393 . S
C564 H553 0.950 . S
C564 C562 1.391 . S
C564 C565 1.400 . S
C565 C559 1.491 . S
C565 C564 1.400 . S
C565 C566 1.398 . S
C566 H554 0.950 . S
C566 C565 1.398 . S
C566 C567 1.391 . S
C567 H555 0.950 . S
C567 C563 1.393 . S
C567 C566 1.391 . S
H568 C576 0.950 . S
H569 C581 0.950 . S
H570 C578 0.950 . S
H571 C580 0.950 . S
H572 C582 0.950 . S
H573 C584 0.950 . S
H574 C586 0.950 . S
H575 C587 0.950 . S
C576 H568 0.950 . S
C576 C577 1.386 . S
C576 C578 1.391 . S
C577 C576 1.386 . S
C577 C581 1.393 . S
C578 H570 0.950 . S
C578 C576 1.391 . S
C578 C579 1.400 . S
C579 C578 1.400 . S
C579 C580 1.398 . S
C579 C585 1.491 . S
C580 H571 0.950 . S
C580 C579 1.398 . S
C580 C581 1.391 . S
C581 H569 0.950 . S
C581 C577 1.393 . S
C581 C580 1.391 . S
C582 H572 0.950 . S
C582 C583 1.386 . S
C582 C584 1.391 . S
C583 C582 1.386 . S
C583 C587 1.393 . S
C584 H573 0.950 . S
C584 C582 1.391 . S
C584 C585 1.400 . S
C585 C579 1.491 . S
C585 C584 1.400 . S
C585 C586 1.398 . S
C586 H574 0.950 . S
C586 C585 1.398 . S
C586 C587 1.391 . S
C587 H575 0.950 . S
C587 C583 1.393 . S
C587 C586 1.391 . S
H588 C596 0.950 . S
H589 C601 0.950 . S
H590 C598 0.950 . S
H591 C600 0.950 . S
H592 C602 0.950 . S
H593 C604 0.950 . S
H594 C606 0.950 . S
H595 C607 0.950 . S
C596 H588 0.950 . S
C596 C597 1.386 . S
C596 C598 1.391 . S
C597 C596 1.386 . S
C597 C601 1.393 . S
C598 H590 0.950 . S
C598 C596 1.391 . S
C598 C599 1.400 . S
C599 C598 1.400 . S
C599 C600 1.398 . S
C599 C605 1.491 . S
C600 H591 0.950 . S
C600 C599 1.398 . S
C600 C601 1.391 . S
C601 H589 0.950 . S
C601 C597 1.393 . S
C601 C600 1.391 . S
C602 H592 0.950 . S
C602 C603 1.386 . S
C602 C604 1.391 . S
C603 C602 1.386 . S
C603 C607 1.393 . S
C604 H593 0.950 . S
C604 C602 1.391 . S
C604 C605 1.400 . S
C605 C599 1.491 . S
C605 C604 1.400 . S
C605 C606 1.398 . S
C606 H594 0.950 . S
C606 C605 1.398 . S
C606 C607 1.391 . S
C607 H595 0.950 . S
C607 C603 1.393 . S
C607 C606 1.391 . S
H608 C616 0.950 . S
H609 C621 0.950 . S
H610 C618 0.950 . S
H611 C620 0.950 . S
H612 C622 0.950 . S
H613 C624 0.950 . S
H614 C626 0.950 . S
H615 C627 0.950 . S
C616 H608 0.950 . S
C616 C617 1.386 . S
C616 C618 1.391 . S
C617 C616 1.386 . S
C617 C621 1.393 . S
C618 H610 0.950 . S
C618 C616 1.391 . S
C618 C619 1.400 . S
C619 C618 1.400 . S
C619 C620 1.398 . S
C619 C625 1.491 . S
C620 H611 0.950 . S
C620 C619 1.398 . S
C620 C621 1.391 . S
C621 H609 0.950 . S
C621 C617 1.393 . S
C621 C620 1.391 . S
C622 H612 0.950 . S
C622 C623 1.386 . S
C622 C624 1.391 . S
C623 C622 1.386 . S
C623 C627 1.393 . S
C624 H613 0.950 . S
C624 C622 1.391 . S
C624 C625 1.400 . S
C625 C619 1.491 . S
C625 C624 1.400 . S
C625 C626 1.398 . S
C626 H614 0.950 . S
C626 C625 1.398 . S
C626 C627 1.391 . S
C627 H615 0.950 . S
C627 C623 1.393 . S
C627 C626 1.391 . S
H628 C636 0.950 . S
H629 C641 0.950 . S
H630 C638 0.950 . S
H631 C640 0.950 . S
H632 C642 0.950 . S
H633 C644 0.950 . S
H634 C646 0.950 . S
H635 C647 0.950 . S
C636 H628 0.950 . S
C636 C637 1.386 . S
C636 C638 1.391 . S
C637 C636 1.386 . S
C637 C641 1.393 . S
C638 H630 0.950 . S
C638 C636 1.391 . S
C638 C639 1.400 . S
C639 C638 1.400 . S
C639 C640 1.398 . S
C639 C645 1.491 . S
C640 H631 0.950 . S
C640 C639 1.398 . S
C640 C641 1.391 . S
C641 H629 0.950 . S
C641 C637 1.393 . S
C641 C640 1.391 . S
C642 H632 0.950 . S
C642 C643 1.386 . S
C642 C644 1.391 . S
C643 C642 1.386 . S
C643 C647 1.393 . S
C644 H633 0.950 . S
C644 C642 1.391 . S
C644 C645 1.400 . S
C645 C639 1.491 . S
C645 C644 1.400 . S
C645 C646 1.398 . S
C646 H634 0.950 . S
C646 C645 1.398 . S
C646 C647 1.391 . S
C647 H635 0.950 . S
C647 C643 1.393 . S
C647 C646 1.391 . S
H648 C656 0.950 . S
H649 C661 0.950 . S
H650 C658 0.950 . S
H651 C660 0.950 . S
H652 C662 0.950 . S
H653 C664 0.950 . S
H654 C666 0.950 . S
H655 C667 0.950 . S
C656 H648 0.950 . S
C656 C657 1.386 . S
C656 C658 1.391 . S
C657 C656 1.386 . S
C657 C661 1.393 . S
C658 H650 0.950 . S
C658 C656 1.391 . S
C658 C659 1.400 . S
C659 C658 1.400 . S
C659 C660 1.398 . S
C659 C665 1.491 . S
C660 H651 0.950 . S
C660 C659 1.398 . S
C660 C661 1.391 . S
C661 H649 0.950 . S
C661 C657 1.393 . S
C661 C660 1.391 . S
C662 H652 0.950 . S
C662 C663 1.386 . S
C662 C664 1.391 . S
C663 C662 1.386 . S
C663 C667 1.393 . S
C664 H653 0.950 . S
C664 C662 1.391 . S
C664 C665 1.400 . S
C665 C659 1.491 . S
C665 C664 1.400 . S
C665 C666 1.398 . S
C666 H654 0.950 . S
C666 C665 1.398 . S
C666 C667 1.391 . S
C667 H655 0.950 . S
C667 C663 1.393 . S
C667 C666 1.391 . S
H668 C676 0.950 . S
H669 C681 0.950 . S
H670 C678 0.950 . S
H671 C680 0.950 . S
H672 C682 0.950 . S
H673 C684 0.950 . S
H674 C686 0.950 . S
H675 C687 0.950 . S
C676 H668 0.950 . S
C676 C677 1.386 . S
C676 C678 1.391 . S
C677 C676 1.386 . S
C677 C681 1.393 . S
C678 H670 0.950 . S
C678 C676 1.391 . S
C678 C679 1.400 . S
C679 C678 1.400 . S
C679 C680 1.398 . S
C679 C685 1.491 . S
C680 H671 0.950 . S
C680 C679 1.398 . S
C680 C681 1.391 . S
C681 H669 0.950 . S
C681 C677 1.393 . S
C681 C680 1.391 . S
C682 H672 0.950 . S
C682 C683 1.386 . S
C682 C684 1.391 . S
C683 C682 1.386 . S
C683 C687 1.393 . S
C684 H673 0.950 . S
C684 C682 1.391 . S
C684 C685 1.400 . S
C685 C679 1.491 . S
C685 C684 1.400 . S
C685 C686 1.398 . S
C686 H674 0.950 . S
C686 C685 1.398 . S
C686 C687 1.391 . S
C687 H675 0.950 . S
C687 C683 1.393 . S
C687 C686 1.391 . S
H688 C696 0.950 . S
H689 C701 0.950 . S
H690 C698 0.950 . S
H691 C700 0.950 . S
H692 C702 0.950 . S
H693 C704 0.950 . S
H694 C706 0.950 . S
H695 C707 0.950 . S
C696 H688 0.950 . S
C696 C697 1.386 . S
C696 C698 1.391 . S
C697 C696 1.386 . S
C697 C701 1.393 . S
C698 H690 0.950 . S
C698 C696 1.391 . S
C698 C699 1.400 . S
C699 C698 1.400 . S
C699 C700 1.398 . S
C699 C705 1.491 . S
C700 H691 0.950 . S
C700 C699 1.398 . S
C700 C701 1.391 . S
C701 H689 0.950 . S
C701 C697 1.393 . S
C701 C700 1.391 . S
C702 H692 0.950 . S
C702 C703 1.386 . S
C702 C704 1.391 . S
C703 C702 1.386 . S
C703 C707 1.393 . S
C704 H693 0.950 . S
C704 C702 1.391 . S
C704 C705 1.400 . S
C705 C699 1.491 . S
C705 C704 1.400 . S
C705 C706 1.398 . S
C706 H694 0.950 . S
C706 C705 1.398 . S
C706 C707 1.391 . S
C707 H695 0.950 . S
C707 C703 1.393 . S
C707 C706 1.391 . S
H708 C716 0.950 . S
H709 C721 0.950 . S
H710 C718 0.950 . S
H711 C720 0.950 . S
H712 C722 0.950 . S
H713 C724 0.950 . S
H714 C726 0.950 . S
H715 C727 0.950 . S
C716 H708 0.950 . S
C716 C717 1.386 . S
C716 C718 1.391 . S
C717 C716 1.386 . S
C717 C721 1.393 . S
C718 H710 0.950 . S
C718 C716 1.391 . S
C718 C719 1.400 . S
C719 C718 1.400 . S
C719 C720 1.398 . S
C719 C725 1.491 . S
C720 H711 0.950 . S
C720 C719 1.398 . S
C720 C721 1.391 . S
C721 H709 0.950 . S
C721 C717 1.393 . S
C721 C720 1.391 . S
C722 H712 0.950 . S
C722 C723 1.386 . S
C722 C724 1.391 . S
C723 C722 1.386 . S
C723 C727 1.393 . S
C724 H713 0.950 . S
C724 C722 1.391 . S
C724 C725 1.400 . S
C725 C719 1.491 . S
C725 C724 1.400 . S
C725 C726 1.398 . S
C726 H714 0.950 . S
C726 C725 1.398 . S
C726 C727 1.391 . S
C727 H715 0.950 . S
C727 C723 1.393 . S
C727 C726 1.391 . S
H728 C736 0.950 . S
H729 C741 0.950 . S
H730 C738 0.950 . S
H731 C740 0.950 . S
H732 C742 0.950 . S
H733 C744 0.950 . S
H734 C746 0.950 . S
H735 C747 0.950 . S
C736 H728 0.950 . S
C736 C737 1.386 1_556 S
C736 C738 1.391 . S
C737 C736 1.386 1_554 S
C737 C741 1.393 . S
C738 H730 0.950 . S
C738 C736 1.391 . S
C738 C739 1.400 1_556 S
C739 C738 1.400 1_554 S
C739 C740 1.398 . S
C739 C745 1.491 . S
C740 H731 0.950 . S
C740 C739 1.398 . S
C740 C741 1.391 . S
C741 H729 0.950 . S
C741 C737 1.393 . S
C741 C740 1.391 . S
C742 H732 0.950 . S
C742 C743 1.386 . S
C742 C744 1.391 . S
C743 C742 1.386 . S
C743 C747 1.393 1_554 S
C744 H733 0.950 . S
C744 C742 1.391 . S
C744 C745 1.400 . S
C745 C739 1.491 . S
C745 C744 1.400 . S
C745 C746 1.398 1_554 S
C746 H734 0.950 . S
C746 C745 1.398 1_556 S
C746 C747 1.391 . S
C747 H735 0.950 . S
C747 C743 1.393 1_556 S
C747 C746 1.391 . S
H748 C756 0.950 . S
H749 C761 0.950 . S
H750 C758 0.950 . S
H751 C760 0.950 . S
H752 C762 0.950 . S
H753 C764 0.950 . S
H754 C766 0.950 . S
H755 C767 0.950 . S
C756 H748 0.950 . S
C756 C757 1.386 . S
C756 C758 1.391 . S
C757 C756 1.386 . S
C757 C761 1.393 . S
C758 H750 0.950 . S
C758 C756 1.391 . S
C758 C759 1.400 . S
C759 C758 1.400 . S
C759 C760 1.398 . S
C759 C765 1.491 . S
C760 H751 0.950 . S
C760 C759 1.398 . S
C760 C761 1.391 . S
C761 H749 0.950 . S
C761 C757 1.393 . S
C761 C760 1.391 . S
C762 H752 0.950 . S
C762 C763 1.386 . S
C762 C764 1.391 . S
C763 C762 1.386 . S
C763 C767 1.393 . S
C764 H753 0.950 . S
C764 C762 1.391 . S
C764 C765 1.400 . S
C765 C759 1.491 . S
C765 C764 1.400 . S
C765 C766 1.398 . S
C766 H754 0.950 . S
C766 C765 1.398 . S
C766 C767 1.391 . S
C767 H755 0.950 . S
C767 C763 1.393 . S
C767 C766 1.391 . S
H768 C776 0.950 . S
H769 C781 0.950 . S
H770 C778 0.950 . S
H771 C780 0.950 . S
H772 C782 0.950 . S
H773 C784 0.950 . S
H774 C786 0.950 . S
H775 C787 0.950 . S
C776 H768 0.950 . S
C776 C777 1.386 1_556 S
C776 C778 1.391 . S
C777 C776 1.386 1_554 S
C777 C781 1.393 . S
C778 H770 0.950 . S
C778 C776 1.391 . S
C778 C779 1.400 1_556 S
C779 C778 1.400 1_554 S
C779 C780 1.398 . S
C779 C785 1.491 . S
C780 H771 0.950 . S
C780 C779 1.398 . S
C780 C781 1.391 . S
C781 H769 0.950 . S
C781 C777 1.393 . S
C781 C780 1.391 . S
C782 H772 0.950 . S
C782 C783 1.386 . S
C782 C784 1.391 . S
C783 C782 1.386 . S
C783 C787 1.393 1_554 S
C784 H773 0.950 . S
C784 C782 1.391 . S
C784 C785 1.400 . S
C785 C779 1.491 . S
C785 C784 1.400 . S
C785 C786 1.398 1_554 S
C786 H774 0.950 . S
C786 C785 1.398 1_556 S
C786 C787 1.391 . S
C787 H775 0.950 . S
C787 C783 1.393 1_556 S
C787 C786 1.391 . S
H788 C796 0.950 . S
H789 C801 0.950 . S
H790 C798 0.950 . S
H791 C800 0.950 . S
H792 C802 0.950 . S
H793 C804 0.950 . S
H794 C806 0.950 . S
H795 C807 0.950 . S
C796 H788 0.950 . S
C796 C797 1.386 . S
C796 C798 1.391 . S
C797 C796 1.386 . S
C797 C801 1.393 . S
C798 H790 0.950 . S
C798 C796 1.391 . S
C798 C799 1.400 . S
C799 C798 1.400 . S
C799 C800 1.398 . S
C799 C805 1.491 . S
C800 H791 0.950 . S
C800 C799 1.398 . S
C800 C801 1.391 . S
C801 H789 0.950 . S
C801 C797 1.393 . S
C801 C800 1.391 . S
C802 H792 0.950 . S
C802 C803 1.386 . S
C802 C804 1.391 . S
C803 C802 1.386 . S
C803 C807 1.393 . S
C804 H793 0.950 . S
C804 C802 1.391 . S
C804 C805 1.400 . S
C805 C799 1.491 . S
C805 C804 1.400 . S
C805 C806 1.398 . S
C806 H794 0.950 . S
C806 C805 1.398 . S
C806 C807 1.391 . S
C807 H795 0.950 . S
C807 C803 1.393 . S
C807 C806 1.391 . S
H808 C816 0.950 . S
H809 C821 0.950 . S
H810 C818 0.950 . S
H811 C820 0.950 . S
H812 C822 0.950 . S
H813 C824 0.950 . S
H814 C826 0.950 . S
H815 C827 0.950 . S
C816 H808 0.950 . S
C816 C817 1.386 . S
C816 C818 1.391 . S
C817 C816 1.386 . S
C817 C821 1.393 . S
C818 H810 0.950 . S
C818 C816 1.391 . S
C818 C819 1.400 . S
C819 C818 1.400 . S
C819 C820 1.398 . S
C819 C825 1.491 . S
C820 H811 0.950 . S
C820 C819 1.398 . S
C820 C821 1.391 . S
C821 H809 0.950 . S
C821 C817 1.393 . S
C821 C820 1.391 . S
C822 H812 0.950 . S
C822 C823 1.386 . S
C822 C824 1.391 . S
C823 C822 1.386 . S
C823 C827 1.393 . S
C824 H813 0.950 . S
C824 C822 1.391 . S
C824 C825 1.400 . S
C825 C819 1.491 . S
C825 C824 1.400 . S
C825 C826 1.398 . S
C826 H814 0.950 . S
C826 C825 1.398 . S
C826 C827 1.391 . S
C827 H815 0.950 . S
C827 C823 1.393 . S
C827 C826 1.391 . S
H828 C836 0.950 . S
H829 C841 0.950 . S
H830 C838 0.950 . S
H831 C840 0.950 . S
H832 C842 0.950 . S
H833 C844 0.950 . S
H834 C846 0.950 . S
H835 C847 0.950 . S
C836 H828 0.950 . S
C836 C837 1.386 . S
C836 C838 1.391 . S
C837 C836 1.386 . S
C837 C841 1.393 1_554 S
C838 H830 0.950 . S
C838 C836 1.391 . S
C838 C839 1.400 . S
C839 C838 1.400 . S
C839 C840 1.398 1_554 S
C839 C845 1.491 . S
C840 H831 0.950 . S
C840 C839 1.398 1_556 S
C840 C841 1.391 . S
C841 H829 0.950 . S
C841 C837 1.393 1_556 S
C841 C840 1.391 . S
C842 H832 0.950 . S
C842 C843 1.386 1_556 S
C842 C844 1.391 . S
C843 C842 1.386 1_554 S
C843 C847 1.393 . S
C844 H833 0.950 . S
C844 C842 1.391 . S
C844 C845 1.400 1_556 S
C845 C839 1.491 . S
C845 C844 1.400 1_554 S
C845 C846 1.398 . S
C846 H834 0.950 . S
C846 C845 1.398 . S
C846 C847 1.391 . S
C847 H835 0.950 . S
C847 C843 1.393 . S
C847 C846 1.391 . S
H848 C856 0.950 . S
H849 C861 0.950 . S
H850 C858 0.950 . S
H851 C860 0.950 . S
H852 C862 0.950 . S
H853 C864 0.950 . S
H854 C866 0.950 . S
H855 C867 0.950 . S
C856 H848 0.950 . S
C856 C857 1.386 . S
C856 C858 1.391 . S
C857 C856 1.386 . S
C857 C861 1.393 . S
C858 H850 0.950 . S
C858 C856 1.391 . S
C858 C859 1.400 . S
C859 C858 1.400 . S
C859 C860 1.398 . S
C859 C865 1.491 . S
C860 H851 0.950 . S
C860 C859 1.398 . S
C860 C861 1.391 . S
C861 H849 0.950 . S
C861 C857 1.393 . S
C861 C860 1.391 . S
C862 H852 0.950 . S
C862 C863 1.386 . S
C862 C864 1.391 . S
C863 C862 1.386 . S
C863 C867 1.393 . S
C864 H853 0.950 . S
C864 C862 1.391 . S
C864 C865 1.400 . S
C865 C859 1.491 . S
C865 C864 1.400 . S
C865 C866 1.398 . S
C866 H854 0.950 . S
C866 C865 1.398 . S
C866 C867 1.391 . S
C867 H855 0.950 . S
C867 C863 1.393 . S
C867 C866 1.391 . S
H868 C876 0.950 . S
H869 C881 0.950 . S
H870 C878 0.950 . S
H871 C880 0.950 . S
H872 C882 0.950 . S
H873 C884 0.950 . S
H874 C886 0.950 . S
H875 C887 0.950 . S
C876 H868 0.950 . S
C876 C877 1.386 . S
C876 C878 1.391 . S
C877 C876 1.386 . S
C877 C881 1.393 1_554 S
C878 H870 0.950 . S
C878 C876 1.391 . S
C878 C879 1.400 . S
C879 C878 1.400 . S
C879 C880 1.398 1_554 S
C879 C885 1.491 . S
C880 H871 0.950 . S
C880 C879 1.398 1_556 S
C880 C881 1.391 . S
C881 H869 0.950 . S
C881 C877 1.393 1_556 S
C881 C880 1.391 . S
C882 H872 0.950 . S
C882 C883 1.386 1_556 S
C882 C884 1.391 . S
C883 C882 1.386 1_554 S
C883 C887 1.393 . S
C884 H873 0.950 . S
C884 C882 1.391 . S
C884 C885 1.400 1_556 S
C885 C879 1.491 . S
C885 C884 1.400 1_554 S
C885 C886 1.398 . S
C886 H874 0.950 . S
C886 C885 1.398 . S
C886 C887 1.391 . S
C887 H875 0.950 . S
C887 C883 1.393 . S
C887 C886 1.391 . S
C417 C21 1.656 . S
C423 C210 1.595 . S
C437 C40 1.806 . S
C443 C90 1.790 . S
C463 C149 1.640 . S
C457 C54 1.642 . S
C477 C73 1.851 . S
C483 C189 1.702 . S
C503 C309 1.629 . S
C497 C74 1.632 . S
C523 C349 1.683 . S
C517 C10 1.813 . S
C543 C370 1.591 . S
C537 C37 1.647 . S
C563 C250 1.820 . S
C557 C65 1.843 . S
C577 C52 1.633 . S
C583 C130 1.636 . S
C597 C87 1.848 . S
C603 C170 1.722 . S
C617 C15 1.672 . S
C623 C229 1.581 . S
C643 C109 1.770 . S
C637 C32 1.801 . S
C657 C29 1.661 . S
C663 C389 1.594 . S
C683 C269 1.836 . S
C677 C59 1.853 . S
C703 C290 1.631 . S
C697 C84 1.636 . S
C717 C8 1.791 . S
C723 C330 1.659 . S
C743 C103 1.852 . S
C737 C7 1.919 . S
C763 C143 1.712 . S
C757 C30 1.726 . S
C777 C62 1.935 . S
C783 C183 1.862 . S
C797 C81 1.702 . S
C803 C223 1.702 . S
C823 C263 1.885 . S
C817 C76 1.938 . S
C837 C18 1.726 . S
C843 C303 1.712 . S
C857 C43 1.919 . S
C863 C343 1.860 . S
C877 C51 1.703 . S
C883 C383 1.703 . S
