# Generated by pormake.
# Topology gar, (4,6)-cn, num edge types: 1
# Building blocks:
#     Node 0, Type 0, BuildingBlock: GALJAG_clean_sbu_0, # of connection points: 4
#     Node 1, Type 0, BuildingBlock: GALJAG_clean_sbu_0, # of connection points: 4
#     Node 2, Type 0, BuildingBlock: GALJAG_clean_sbu_0, # of connection points: 4
#     Node 3, Type 0, BuildingBlock: GALJAG_clean_sbu_0, # of connection points: 4
#     Node 4, Type 0, BuildingBlock: GALJAG_clean_sbu_0, # of connection points: 4
#     Node 5, Type 0, BuildingBlock: GALJAG_clean_sbu_0, # of connection points: 4
#     Node 6, Type 0, BuildingBlock: GALJAG_clean_sbu_0, # of connection points: 4
#     Node 7, Type 0, BuildingBlock: GALJAG_clean_sbu_0, # of connection points: 4
#     Node 8, Type 0, BuildingBlock: GALJAG_clean_sbu_0, # of connection points: 4
#     Node 9, Type 0, BuildingBlock: GALJAG_clean_sbu_0, # of connection points: 4
#     Node 10, Type 0, BuildingBlock: GALJAG_clean_sbu_0, # of connection points: 4
#     Node 11, Type 0, BuildingBlock: GALJAG_clean_sbu_0, # of connection points: 4
#     Node 12, Type 0, BuildingBlock: GALJAG_clean_sbu_0, # of connection points: 4
#     Node 13, Type 0, BuildingBlock: GALJAG_clean_sbu_0, # of connection points: 4
#     Node 14, Type 0, BuildingBlock: GALJAG_clean_sbu_0, # of connection points: 4
#     Node 15, Type 0, BuildingBlock: GALJAG_clean_sbu_0, # of connection points: 4
#     Node 16, Type 0, BuildingBlock: GALJAG_clean_sbu_0, # of connection points: 4
#     Node 17, Type 0, BuildingBlock: GALJAG_clean_sbu_0, # of connection points: 4
#     Node 18, Type 0, BuildingBlock: GALJAG_clean_sbu_0, # of connection points: 4
#     Node 19, Type 0, BuildingBlock: GALJAG_clean_sbu_0, # of connection points: 4
#     Node 20, Type 0, BuildingBlock: GALJAG_clean_sbu_0, # of connection points: 4
#     Node 21, Type 0, BuildingBlock: GALJAG_clean_sbu_0, # of connection points: 4
#     Node 22, Type 0, BuildingBlock: GALJAG_clean_sbu_0, # of connection points: 4
#     Node 23, Type 0, BuildingBlock: GALJAG_clean_sbu_0, # of connection points: 4
#     Node 24, Type 1, BuildingBlock: BETDAH_clean_sbu_0, # of connection points: 6
#     Node 25, Type 1, BuildingBlock: BETDAH_clean_sbu_0, # of connection points: 6
#     Node 26, Type 1, BuildingBlock: BETDAH_clean_sbu_0, # of connection points: 6
#     Node 27, Type 1, BuildingBlock: BETDAH_clean_sbu_0, # of connection points: 6
#     Node 28, Type 1, BuildingBlock: BETDAH_clean_sbu_0, # of connection points: 6
#     Node 29, Type 1, BuildingBlock: BETDAH_clean_sbu_0, # of connection points: 6
#     Node 30, Type 1, BuildingBlock: BETDAH_clean_sbu_0, # of connection points: 6
#     Node 31, Type 1, BuildingBlock: BETDAH_clean_sbu_0, # of connection points: 6
#     Node 32, Type 1, BuildingBlock: BETDAH_clean_sbu_0, # of connection points: 6
#     Node 33, Type 1, BuildingBlock: BETDAH_clean_sbu_0, # of connection points: 6
#     Node 34, Type 1, BuildingBlock: BETDAH_clean_sbu_0, # of connection points: 6
#     Node 35, Type 1, BuildingBlock: BETDAH_clean_sbu_0, # of connection points: 6
#     Node 36, Type 1, BuildingBlock: BETDAH_clean_sbu_0, # of connection points: 6
#     Node 37, Type 1, BuildingBlock: BETDAH_clean_sbu_0, # of connection points: 6
#     Node 38, Type 1, BuildingBlock: BETDAH_clean_sbu_0, # of connection points: 6
#     Node 39, Type 1, BuildingBlock: BETDAH_clean_sbu_0, # of connection points: 6
#     Edge 40, Type (0, 1), BuildingBlock: AJUNOK_clean_linker_0, # of connection points: 2
#     Edge 41, Type (0, 1), BuildingBlock: AJUNOK_clean_linker_0, # of connection points: 2
#     Edge 42, Type (0, 1), BuildingBlock: AJUNOK_clean_linker_0, # of connection points: 2
#     Edge 43, Type (0, 1), BuildingBlock: AJUNOK_clean_linker_0, # of connection points: 2
#     Edge 44, Type (0, 1), BuildingBlock: AJUNOK_clean_linker_0, # of connection points: 2
#     Edge 45, Type (0, 1), BuildingBlock: AJUNOK_clean_linker_0, # of connection points: 2
#     Edge 46, Type (0, 1), BuildingBlock: AJUNOK_clean_linker_0, # of connection points: 2
#     Edge 47, Type (0, 1), BuildingBlock: AJUNOK_clean_linker_0, # of connection points: 2
#     Edge 48, Type (0, 1), BuildingBlock: AJUNOK_clean_linker_0, # of connection points: 2
#     Edge 49, Type (0, 1), BuildingBlock: AJUNOK_clean_linker_0, # of connection points: 2
#     Edge 50, Type (0, 1), BuildingBlock: AJUNOK_clean_linker_0, # of connection points: 2
#     Edge 51, Type (0, 1), BuildingBlock: AJUNOK_clean_linker_0, # of connection points: 2
#     Edge 52, Type (0, 1), BuildingBlock: AJUNOK_clean_linker_0, # of connection points: 2
#     Edge 53, Type (0, 1), BuildingBlock: AJUNOK_clean_linker_0, # of connection points: 2
#     Edge 54, Type (0, 1), BuildingBlock: AJUNOK_clean_linker_0, # of connection points: 2
#     Edge 55, Type (0, 1), BuildingBlock: AJUNOK_clean_linker_0, # of connection points: 2
#     Edge 56, Type (0, 1), BuildingBlock: AJUNOK_clean_linker_0, # of connection points: 2
#     Edge 57, Type (0, 1), BuildingBlock: AJUNOK_clean_linker_0, # of connection points: 2
#     Edge 58, Type (0, 1), BuildingBlock: AJUNOK_clean_linker_0, # of connection points: 2
#     Edge 59, Type (0, 1), BuildingBlock: AJUNOK_clean_linker_0, # of connection points: 2
#     Edge 60, Type (0, 1), BuildingBlock: AJUNOK_clean_linker_0, # of connection points: 2
#     Edge 61, Type (0, 1), BuildingBlock: AJUNOK_clean_linker_0, # of connection points: 2
#     Edge 62, Type (0, 1), BuildingBlock: AJUNOK_clean_linker_0, # of connection points: 2
#     Edge 63, Type (0, 1), BuildingBlock: AJUNOK_clean_linker_0, # of connection points: 2
#     Edge 64, Type (0, 1), BuildingBlock: AJUNOK_clean_linker_0, # of connection points: 2
#     Edge 65, Type (0, 1), BuildingBlock: AJUNOK_clean_linker_0, # of connection points: 2
#     Edge 66, Type (0, 1), BuildingBlock: AJUNOK_clean_linker_0, # of connection points: 2
#     Edge 67, Type (0, 1), BuildingBlock: AJUNOK_clean_linker_0, # of connection points: 2
#     Edge 68, Type (0, 1), BuildingBlock: AJUNOK_clean_linker_0, # of connection points: 2
#     Edge 69, Type (0, 1), BuildingBlock: AJUNOK_clean_linker_0, # of connection points: 2
#     Edge 70, Type (0, 1), BuildingBlock: AJUNOK_clean_linker_0, # of connection points: 2
#     Edge 71, Type (0, 1), BuildingBlock: AJUNOK_clean_linker_0, # of connection points: 2
#     Edge 72, Type (0, 1), BuildingBlock: AJUNOK_clean_linker_0, # of connection points: 2
#     Edge 73, Type (0, 1), BuildingBlock: AJUNOK_clean_linker_0, # of connection points: 2
#     Edge 74, Type (0, 1), BuildingBlock: AJUNOK_clean_linker_0, # of connection points: 2
#     Edge 75, Type (0, 1), BuildingBlock: AJUNOK_clean_linker_0, # of connection points: 2
#     Edge 76, Type (0, 1), BuildingBlock: AJUNOK_clean_linker_0, # of connection points: 2
#     Edge 77, Type (0, 1), BuildingBlock: AJUNOK_clean_linker_0, # of connection points: 2
#     Edge 78, Type (0, 1), BuildingBlock: AJUNOK_clean_linker_0, # of connection points: 2
#     Edge 79, Type (0, 1), BuildingBlock: AJUNOK_clean_linker_0, # of connection points: 2
#     Edge 80, Type (0, 1), BuildingBlock: AJUNOK_clean_linker_0, # of connection points: 2
#     Edge 81, Type (0, 1), BuildingBlock: AJUNOK_clean_linker_0, # of connection points: 2
#     Edge 82, Type (0, 1), BuildingBlock: AJUNOK_clean_linker_0, # of connection points: 2
#     Edge 83, Type (0, 1), BuildingBlock: AJUNOK_clean_linker_0, # of connection points: 2
#     Edge 84, Type (0, 1), BuildingBlock: AJUNOK_clean_linker_0, # of connection points: 2
#     Edge 85, Type (0, 1), BuildingBlock: AJUNOK_clean_linker_0, # of connection points: 2
#     Edge 86, Type (0, 1), BuildingBlock: AJUNOK_clean_linker_0, # of connection points: 2
#     Edge 87, Type (0, 1), BuildingBlock: AJUNOK_clean_linker_0, # of connection points: 2
#     Edge 88, Type (0, 1), BuildingBlock: AJUNOK_clean_linker_0, # of connection points: 2
#     Edge 89, Type (0, 1), BuildingBlock: AJUNOK_clean_linker_0, # of connection points: 2
#     Edge 90, Type (0, 1), BuildingBlock: AJUNOK_clean_linker_0, # of connection points: 2
#     Edge 91, Type (0, 1), BuildingBlock: AJUNOK_clean_linker_0, # of connection points: 2
#     Edge 92, Type (0, 1), BuildingBlock: AJUNOK_clean_linker_0, # of connection points: 2
#     Edge 93, Type (0, 1), BuildingBlock: AJUNOK_clean_linker_0, # of connection points: 2
#     Edge 94, Type (0, 1), BuildingBlock: AJUNOK_clean_linker_0, # of connection points: 2
#     Edge 95, Type (0, 1), BuildingBlock: AJUNOK_clean_linker_0, # of connection points: 2
#     Edge 96, Type (0, 1), BuildingBlock: AJUNOK_clean_linker_0, # of connection points: 2
#     Edge 97, Type (0, 1), BuildingBlock: AJUNOK_clean_linker_0, # of connection points: 2
#     Edge 98, Type (0, 1), BuildingBlock: AJUNOK_clean_linker_0, # of connection points: 2
#     Edge 99, Type (0, 1), BuildingBlock: AJUNOK_clean_linker_0, # of connection points: 2
#     Edge 100, Type (0, 1), BuildingBlock: AJUNOK_clean_linker_0, # of connection points: 2
#     Edge 101, Type (0, 1), BuildingBlock: AJUNOK_clean_linker_0, # of connection points: 2
#     Edge 102, Type (0, 1), BuildingBlock: AJUNOK_clean_linker_0, # of connection points: 2
#     Edge 103, Type (0, 1), BuildingBlock: AJUNOK_clean_linker_0, # of connection points: 2
#     Edge 104, Type (0, 1), BuildingBlock: AJUNOK_clean_linker_0, # of connection points: 2
#     Edge 105, Type (0, 1), BuildingBlock: AJUNOK_clean_linker_0, # of connection points: 2
#     Edge 106, Type (0, 1), BuildingBlock: AJUNOK_clean_linker_0, # of connection points: 2
#     Edge 107, Type (0, 1), BuildingBlock: AJUNOK_clean_linker_0, # of connection points: 2
#     Edge 108, Type (0, 1), BuildingBlock: AJUNOK_clean_linker_0, # of connection points: 2
#     Edge 109, Type (0, 1), BuildingBlock: AJUNOK_clean_linker_0, # of connection points: 2
#     Edge 110, Type (0, 1), BuildingBlock: AJUNOK_clean_linker_0, # of connection points: 2
#     Edge 111, Type (0, 1), BuildingBlock: AJUNOK_clean_linker_0, # of connection points: 2
#     Edge 112, Type (0, 1), BuildingBlock: AJUNOK_clean_linker_0, # of connection points: 2
#     Edge 113, Type (0, 1), BuildingBlock: AJUNOK_clean_linker_0, # of connection points: 2
#     Edge 114, Type (0, 1), BuildingBlock: AJUNOK_clean_linker_0, # of connection points: 2
#     Edge 115, Type (0, 1), BuildingBlock: AJUNOK_clean_linker_0, # of connection points: 2
#     Edge 116, Type (0, 1), BuildingBlock: AJUNOK_clean_linker_0, # of connection points: 2
#     Edge 117, Type (0, 1), BuildingBlock: AJUNOK_clean_linker_0, # of connection points: 2
#     Edge 118, Type (0, 1), BuildingBlock: AJUNOK_clean_linker_0, # of connection points: 2
#     Edge 119, Type (0, 1), BuildingBlock: AJUNOK_clean_linker_0, # of connection points: 2
#     Edge 120, Type (0, 1), BuildingBlock: AJUNOK_clean_linker_0, # of connection points: 2
#     Edge 121, Type (0, 1), BuildingBlock: AJUNOK_clean_linker_0, # of connection points: 2
#     Edge 122, Type (0, 1), BuildingBlock: AJUNOK_clean_linker_0, # of connection points: 2
#     Edge 123, Type (0, 1), BuildingBlock: AJUNOK_clean_linker_0, # of connection points: 2
#     Edge 124, Type (0, 1), BuildingBlock: AJUNOK_clean_linker_0, # of connection points: 2
#     Edge 125, Type (0, 1), BuildingBlock: AJUNOK_clean_linker_0, # of connection points: 2
#     Edge 126, Type (0, 1), BuildingBlock: AJUNOK_clean_linker_0, # of connection points: 2
#     Edge 127, Type (0, 1), BuildingBlock: AJUNOK_clean_linker_0, # of connection points: 2
#     Edge 128, Type (0, 1), BuildingBlock: AJUNOK_clean_linker_0, # of connection points: 2
#     Edge 129, Type (0, 1), BuildingBlock: AJUNOK_clean_linker_0, # of connection points: 2
#     Edge 130, Type (0, 1), BuildingBlock: AJUNOK_clean_linker_0, # of connection points: 2
#     Edge 131, Type (0, 1), BuildingBlock: AJUNOK_clean_linker_0, # of connection points: 2
#     Edge 132, Type (0, 1), BuildingBlock: AJUNOK_clean_linker_0, # of connection points: 2
#     Edge 133, Type (0, 1), BuildingBlock: AJUNOK_clean_linker_0, # of connection points: 2
#     Edge 134, Type (0, 1), BuildingBlock: AJUNOK_clean_linker_0, # of connection points: 2
#     Edge 135, Type (0, 1), BuildingBlock: AJUNOK_clean_linker_0, # of connection points: 2
# Relax obj value: 0.258
# Max RMSD: 0.339
# Mean RMSD: 0.185
data_MOF--net-gar--node1-GALJAG_clean_sbu_0--node2-BETDAH_clean_sbu_0--edge1-AJUNOK_clean_linker_0
_symmetry_space_group_name_H-M    P1
_symmetry_Int_Tables_number       1
_symmetry_cell_setting            triclinic
loop_
_symmetry_equiv_pos_as_xyz
'x, y, z'
_cell_length_a     48.127459
_cell_length_b     41.596044
_cell_length_c     41.79144
_cell_angle_alpha  98.529494
_cell_angle_beta   95.373229
_cell_angle_gamma 101.2048
loop_
_atom_site_label
_atom_site_type_symbol
_atom_site_fract_x
_atom_site_fract_y
_atom_site_fract_z
_atom_type_partial_charge
In0 In 0.15917 0.39326 0.40301 0.0
O1 O 0.17496 0.37467 0.35741 0.0
O2 O 0.20648 0.39654 0.39776 0.0
C3 C 0.1103 0.38704 0.36564 0.0
C4 C 0.14809 0.34439 0.43767 0.0
C5 C 0.15911 0.45113 0.44014 0.0
O6 O 0.1315 0.40995 0.36483 0.0
O7 O 0.1134 0.3688 0.38662 0.0
O8 O 0.16227 0.42561 0.45166 0.0
O9 O 0.15896 0.44859 0.40969 0.0
C10 C 0.20083 0.38196 0.36844 0.0
O11 O 0.15981 0.37385 0.45064 0.0
O12 O 0.14351 0.33914 0.40695 0.0
In13 In 0.02401 0.7713 0.68217 0.0
O14 O 0.02559 0.7896 0.63447 0.0
O15 O 0.04034 0.82489 0.67822 0.0
C16 C 1.01952 0.71428 0.64235 0.0
C17 C 0.07376 0.78786 0.71946 0.0
C18 C 0.97722 0.77427 0.70921 0.0
O19 O 1.00453 0.73499 0.63688 0.0
O20 O 0.03408 0.72059 0.67014 0.0
O21 O 0.99199 0.75347 0.71544 0.0
O22 O 0.98642 0.79302 0.68983 0.0
C23 C 0.03764 0.81892 0.64748 0.0
O24 O 0.05077 0.78453 0.73214 0.0
O25 O 0.07117 0.78064 0.68887 0.0
In26 In 0.65742 0.90112 0.90611 0.0
O27 O 0.67306 0.86355 0.87296 0.0
O28 O 0.70049 0.91147 0.88739 0.0
C29 C 0.61249 0.90042 0.86418 0.0
C30 C 0.64193 0.85339 0.94122 0.0
C31 C 0.66457 0.96021 0.94448 0.0
O32 O 0.63602 0.89727 0.85457 0.0
O33 O 0.61198 0.9042 0.89458 0.0
O34 O 0.6717 0.9354 0.95437 0.0
O35 O 0.65846 0.95657 0.914 0.0
C36 C 0.69627 0.88255 0.87072 0.0
O37 O 0.66773 0.86766 0.94206 0.0
O38 O 0.62436 0.8633 0.92286 0.0
In39 In 0.52036 0.26621 0.17964 0.0
O40 O 0.50231 0.2329 0.13185 0.0
O41 O 0.52342 0.21278 0.16885 0.0
C42 C 0.53458 0.31452 0.14532 0.0
C43 C 0.47687 0.26872 0.21301 0.0
C44 C 0.57233 0.27698 0.21239 0.0
O45 O 0.51895 0.28669 0.13283 0.0
O46 O 0.54128 0.31883 0.17576 0.0
O47 O 0.55257 0.2885 0.22471 0.0
O48 O 0.56522 0.25924 0.18458 0.0
C49 C 0.51266 0.20904 0.13946 0.0
O50 O 0.49236 0.24812 0.21677 0.0
O51 O 0.48262 0.2864 0.19158 0.0
In52 In 0.14183 0.85806 0.1459 0.0
O53 O 0.14544 0.81623 0.10334 0.0
O54 O 0.12313 0.80334 0.14257 0.0
C55 C 0.13975 0.911 0.11373 0.0
C56 C 0.09249 0.85102 0.17329 0.0
C57 C 0.19334 0.86696 0.18446 0.0
O58 O 0.13243 0.88105 0.09958 0.0
O59 O 0.14954 0.91421 0.14338 0.0
O60 O 0.17355 0.88109 0.19291 0.0
O61 O 0.18772 0.84966 0.15623 0.0
C62 C 0.13087 0.7934 0.11561 0.0
O63 O 0.11594 0.8488 0.18816 0.0
O64 O 0.09425 0.85888 0.14547 0.0
In65 In 0.53234 0.80688 0.44355 0.0
O66 O 0.55579 0.79951 0.39776 0.0
O67 O 0.58096 0.81782 0.44353 0.0
C68 C 0.47902 0.80753 0.41149 0.0
C69 C 0.53789 0.75273 0.47289 0.0
C70 C 0.544 0.87015 0.47667 0.0
O71 O 0.50155 0.80885 0.398 0.0
O72 O 0.48271 0.80361 0.44091 0.0
O73 O 0.53032 0.84639 0.48836 0.0
O74 O 0.55079 0.86186 0.44877 0.0
C75 C 0.58067 0.80981 0.41319 0.0
O76 O 0.54447 0.78239 0.4877 0.0
O77 O 0.52672 0.74996 0.44371 0.0
In78 In 0.64163 0.35732 0.64365 0.0
O79 O 0.64601 0.31539 0.60158 0.0
O80 O 0.61986 0.30312 0.63794 0.0
C81 C 0.63918 0.41032 0.61145 0.0
C82 C 0.59243 0.35073 0.67122 0.0
C83 C 0.69226 0.36624 0.68429 0.0
O84 O 0.6339 0.38044 0.59711 0.0
O85 O 0.64757 0.4137 0.64153 0.0
O86 O 0.67129 0.37847 0.69197 0.0
O87 O 0.68833 0.35034 0.65544 0.0
C88 C 0.62899 0.29308 0.61193 0.0
O89 O 0.61559 0.34683 0.68537 0.0
O90 O 0.59441 0.35984 0.64392 0.0
In91 In 0.03286 0.30938 0.94454 0.0
O92 O 0.03882 0.28212 0.98825 0.0
O93 O 0.03177 0.25273 0.94134 0.0
C94 C 0.04277 0.37252 0.97752 0.0
C95 C 0.08222 0.31599 0.91588 0.0
C96 C 0.97871 0.30854 0.91377 0.0
O97 O 0.03756 0.34779 0.99195 0.0
O98 O 0.04335 0.36518 0.94732 0.0
O99 O 1.00018 0.30604 0.89907 0.0
O100 O 0.98363 0.30855 0.94402 0.0
C101 C 0.03765 0.25381 0.9717 0.0
O102 O 0.05769 0.30968 0.89965 0.0
O103 O 0.08188 0.31832 0.94624 0.0
In104 In 0.47391 0.06647 0.33905 0.0
O105 O 0.50613 0.06368 0.30472 0.0
O106 O 0.46717 1.02723 0.29338 0.0
C107 C 0.50929 0.10591 0.38799 0.0
C108 C 0.43333 0.09162 0.31026 0.0
C109 C 0.45916 1.01405 0.36775 0.0
O110 O 0.51768 0.09519 0.36162 0.0
O111 O 0.4826 0.10011 0.38781 0.0
O112 O 0.44696 0.03833 0.37066 0.0
O113 O 0.48086 1.01804 0.35289 0.0
C114 C 0.49118 0.03893 0.28522 0.0
O115 O 0.42809 0.06885 0.32689 0.0
O116 O 0.45944 0.10337 0.30955 0.0
In117 In 0.29732 0.23144 0.52028 0.0
O118 O 0.29667 0.27694 0.56032 0.0
O119 O 0.30342 0.23199 0.57476 0.0
C120 C 0.30388 0.25768 0.46402 0.0
C121 C 0.34756 0.21203 0.52737 0.0
C122 C 0.24529 0.19011 0.51739 0.0
O123 O 0.30452 0.27511 0.49173 0.0
O124 O 0.29852 0.22683 0.46428 0.0
O125 O 0.26868 0.18073 0.51945 0.0
O126 O 0.24773 0.22046 0.51506 0.0
C127 C 0.30165 0.26173 0.58373 0.0
O128 O 0.3254 0.19324 0.511 0.0
O129 O 0.34467 0.24073 0.539 0.0
In130 In 0.21293 0.05994 0.80301 0.0
O131 O 0.17011 0.05903 0.76557 0.0
O132 O 0.20646 0.05626 0.74357 0.0
C133 C 0.183 0.06267 0.86343 0.0
C134 C 0.24352 1.00236 0.79998 0.0
C135 C 0.24742 0.12666 0.80499 0.0
O136 O 0.17456 0.04219 0.83689 0.0
O137 O 0.20638 0.08127 0.86 0.0
O138 O 0.2572 0.10107 0.80897 0.0
O139 O 0.22044 0.11909 0.8006 0.0
C140 C 0.18041 0.05791 0.7386 0.0
O141 O 0.25328 0.03197 0.81497 0.0
O142 O 0.21837 1.00122 0.78667 0.0
In143 In 0.35667 0.97654 1.01671 0.0
O144 O 0.36751 0.94167 0.04943 0.0
O145 O 0.38336 0.99372 0.06623 0.0
C146 C 0.33681 0.93013 0.96478 0.0
C147 C 0.31465 1.00709 0.03157 0.0
C148 C 0.40557 1.0047 0.99856 0.0
O149 O 0.33781 0.9231 0.99318 0.0
O150 O 0.34297 0.96068 0.9633 0.0
O151 O 0.38819 1.02137 1.0096 0.0
O152 O 0.39774 0.97364 0.99571 0.0
C153 C 0.38263 0.96437 0.07109 0.0
O154 O 0.33013 1.01448 1.00995 0.0
O155 O 0.31987 0.9836 0.0454 0.0
In156 In 0.38075 0.42649 0.06411 0.0
O157 O 0.38315 0.38584 0.09734 0.0
O158 O 0.36311 0.42507 0.11331 0.0
C159 C 0.37432 0.39595 1.00069 0.0
C160 C 0.3335 0.45242 0.05544 0.0
C161 C 0.43544 0.46511 0.07199 0.0
O162 O 0.37345 0.3795 0.02394 0.0
O163 O 0.37866 0.42696 1.00975 0.0
O164 O 0.41391 0.47584 0.08027 0.0
O165 O 0.42989 0.43427 0.06122 0.0
C166 C 0.3696 0.39838 0.11878 0.0
O167 O 0.35812 0.47023 0.06554 0.0
O168 O 0.33281 0.42158 0.04954 0.0
In169 In 0.81096 0.17241 0.05587 0.0
O170 O 0.84075 0.1381 0.06696 0.0
O171 O 0.84539 0.16148 0.02529 0.0
C172 C 0.75867 0.14202 0.06452 0.0
C173 C 0.82728 0.21969 0.10842 0.0
C174 C 0.79252 0.19835 1.00636 0.0
O175 O 0.77261 0.12897 0.04389 0.0
O176 O 0.77271 0.16778 0.08306 0.0
O177 O 0.81462 0.21292 0.02578 0.0
O178 O 0.78095 0.1697 1.01063 0.0
C179 C 0.85428 0.14284 0.04309 0.0
O180 O 0.82073 0.2265 0.08066 0.0
O181 O 0.82694 0.18934 0.10896 0.0
In182 In 0.21034 0.58958 0.25564 0.0
O183 O 0.24418 0.56103 0.25404 0.0
O184 O 0.21841 0.55698 0.29296 0.0
C185 C 0.24644 0.64501 0.2523 0.0
C186 C 0.17938 0.5572 0.20095 0.0
C187 C 0.18292 0.62651 0.29349 0.0
O188 O 0.25352 0.62251 0.26615 0.0
O189 O 0.22186 0.63795 0.23639 0.0
O190 O 0.17176 0.61144 0.26545 0.0
O191 O 0.20609 0.6195 0.30374 0.0
C192 C 0.24028 0.55095 0.28059 0.0
O193 O 0.17192 0.55235 0.22837 0.0
O194 O 0.204 0.57498 0.20181 0.0
In195 In 0.87768 0.92521 0.56393 0.0
O196 O 0.87037 0.87958 0.59098 0.0
O197 O 0.87191 0.92665 0.61866 0.0
C198 C 0.87421 0.89621 0.50043 0.0
C199 C 0.82943 0.95014 0.5568 0.0
C200 C 0.93222 0.96386 0.57066 0.0
O201 O 0.87062 0.87917 0.52302 0.0
O202 O 0.87968 0.92722 0.51 0.0
O203 O 0.9099 0.97491 0.57447 0.0
O204 O 0.92759 0.93241 0.56502 0.0
C205 C 0.86766 0.89571 0.61825 0.0
O206 O 0.85329 0.96766 0.57013 0.0
O207 O 0.82992 0.92015 0.54703 0.0
In208 In 0.96903 0.09832 0.28148 0.0
O209 O 1.0066 0.11849 0.24782 0.0
O210 O 0.977 0.07706 0.22494 0.0
C211 C 1.00146 0.09873 0.34524 0.0
C212 C 0.93986 0.15698 0.28558 0.0
C213 C 0.93333 0.03176 0.27909 0.0
O214 O 1.01046 0.09313 0.31781 0.0
O215 O 0.97719 0.10608 0.34098 0.0
O216 O 0.92404 0.05689 0.27223 0.0
O217 O 0.96018 0.0397 0.28606 0.0
C218 C 0.99946 0.09742 0.22158 0.0
O219 O 0.92769 0.12629 0.27926 0.0
O220 O 0.96667 0.1586 0.28978 0.0
In221 In 0.31839 0.67916 0.56086 0.0
O222 O 0.33388 0.63197 0.54366 0.0
O223 O 0.36491 0.67665 0.56052 0.0
C224 C 0.26294 0.65879 0.56541 0.0
C225 C 0.33062 0.72133 0.61621 0.0
C226 C 0.30851 0.70614 0.50906 0.0
O227 O 0.27959 0.63857 0.56502 0.0
O228 O 0.27488 0.68847 0.56568 0.0
O229 O 0.32764 0.7204 0.53222 0.0
O230 O 0.29822 0.67601 0.50964 0.0
C231 C 0.35991 0.64629 0.54815 0.0
O232 O 0.32919 0.73031 0.58882 0.0
O233 O 0.32747 0.69033 0.6162 0.0
In234 In 0.4683 0.59708 0.78045 0.0
O235 O 0.42756 0.62464 0.76898 0.0
O236 O 0.4626 0.65538 0.79686 0.0
C237 C 0.43182 0.53148 0.77899 0.0
C238 C 0.49993 0.5952 0.72141 0.0
C239 C 0.50171 0.5943 0.84289 0.0
O240 O 0.42975 0.55842 0.79652 0.0
O241 O 0.45109 0.53749 0.76056 0.0
O242 O 0.50971 0.6146 0.82398 0.0
O243 O 0.47797 0.57608 0.83046 0.0
C244 C 0.43748 0.65426 0.78381 0.0
O245 O 0.50831 0.61433 0.74871 0.0
O246 O 0.47597 0.57695 0.72354 0.0
In247 In 0.71886 0.09856 0.74796 0.0
O248 O 0.75224 0.06902 0.74653 0.0
O249 O 0.72193 0.06073 0.78056 0.0
C250 C 0.75023 0.15232 0.73367 0.0
C251 C 0.67902 0.06625 0.70011 0.0
C252 C 0.71072 0.14013 0.79951 0.0
O253 O 0.761 0.12838 0.74037 0.0
O254 O 0.72338 0.14579 0.72789 0.0
O255 O 0.69238 0.13067 0.77449 0.0
O256 O 0.73164 0.1261 0.79962 0.0
C257 C 0.74475 0.05532 0.77028 0.0
O258 O 0.67454 0.06879 0.72956 0.0
O259 O 0.70413 0.07827 0.69537 0.0
In260 In 0.79703 0.73303 1.0202 0.0
O261 O 0.82241 0.69332 0.02643 0.0
O262 O 0.84606 0.74242 0.02766 0.0
C263 C 0.74511 0.69077 1.01378 0.0
C264 C 0.80142 0.76187 0.08423 0.0
C265 C 0.80266 0.75624 0.96216 0.0
O266 O 0.76802 0.68188 1.00812 0.0
O267 O 0.74775 0.72197 1.02083 0.0
O268 O 0.80286 0.77511 0.989 0.0
O269 O 0.79854 0.72584 0.96442 0.0
C270 C 0.84657 0.71276 0.03058 0.0
O271 O 0.79728 0.7782 0.06147 0.0
O272 O 0.80245 0.73217 0.0742 0.0
In273 In 0.97582 0.56423 0.8367 0.0
O274 O 0.9307 0.57013 0.82639 0.0
O275 O 0.96394 0.6067 0.81437 0.0
C276 C 0.96097 0.5088 0.86094 0.0
C277 C 0.98513 0.53494 0.7792 0.0
C278 C 1.0122 0.59952 0.88633 0.0
O279 O 0.95114 0.53437 0.86894 0.0
O280 O 0.98094 0.51283 0.84359 0.0
O281 O 1.02019 0.59142 0.85885 0.0
O282 O 0.9856 0.59351 0.88696 0.0
C283 C 0.93741 0.5955 0.81331 0.0
O284 O 1.00535 0.55257 0.79986 0.0
O285 O 0.96044 0.53358 0.78724 0.0
In286 In 0.85649 0.47969 0.52051 0.0
O287 O 0.85306 0.448 0.55993 0.0
O288 O 0.88298 0.49475 0.56981 0.0
C289 C 0.84415 0.43393 0.46676 0.0
C290 C 0.81622 0.5132 0.53559 0.0
C291 C 0.90827 0.50144 0.50571 0.0
O292 O 0.84657 0.42639 0.49487 0.0
O293 O 0.84452 0.46427 0.46611 0.0
O294 O 0.88878 0.51744 0.50107 0.0
O295 O 0.90119 0.47532 0.5175 0.0
C296 C 0.87228 0.46842 0.57959 0.0
O297 O 0.8407 0.52745 0.53067 0.0
O298 O 0.81149 0.48184 0.53052 0.0
In299 In 0.71289 0.56071 0.301 0.0
O300 O 0.75303 0.5323 0.28921 0.0
O301 O 0.72005 0.50348 0.30613 0.0
C302 C 0.7463 0.62812 0.30524 0.0
C303 C 0.67957 0.557 0.23673 0.0
C304 C 0.68301 0.56449 0.36153 0.0
O305 O 0.75524 0.6053 0.31777 0.0
O306 O 0.72085 0.61742 0.2918 0.0
O307 O 0.67683 0.54133 0.33677 0.0
O308 O 0.70406 0.58587 0.35622 0.0
C309 C 0.74423 0.50365 0.29622 0.0
O310 O 0.66876 0.55405 0.26305 0.0
O311 O 0.70627 0.55982 0.24233 0.0
Ho312 Ho 0.07255 0.06449 0.02432 0.0
Ho313 Ho 0.11133 0.1035 0.06207 0.0
C314 C 0.07454 0.14301 0.02487 0.0
C315 C 1.02093 0.03866 0.99761 0.0
C316 C 0.99659 0.05403 1.00316 0.0
C317 C 1.00058 0.08232 0.02739 0.0
C318 C 0.97841 0.09852 0.0327 0.0
C319 C 0.95129 0.08563 1.01514 0.0
C320 C 0.94725 0.0573 0.99071 0.0
C321 C 0.96993 0.0417 0.98456 0.0
C322 C 0.11812 0.06688 0.98659 0.0
C323 C 0.10961 1.02455 0.05986 0.0
C324 C 0.16234 0.13012 0.09045 0.0
C325 C 0.18672 0.1154 0.08327 0.0
C326 C 0.18231 0.0895 0.05656 0.0
C327 C 0.20341 0.07216 0.05003 0.0
C328 C 0.23019 0.08164 0.06884 0.0
C329 C 0.23492 0.10768 0.09575 0.0
C330 C 0.21305 0.1244 0.10315 0.0
C331 C 0.06537 0.09912 0.09953 0.0
O332 O 0.06097 0.11245 1.01328 0.0
O333 O 0.09709 0.14767 0.04634 0.0
O334 O 0.03993 0.05516 0.98264 0.0
O335 O 0.03255 1.02972 1.0233 0.0
O336 O 0.0994 0.04073 0.98941 0.0
O337 O 0.11268 0.09154 1.00633 0.0
O338 O 0.12414 0.05509 0.06993 0.0
O339 O 0.08597 1.02019 0.0402 0.0
O340 O 0.14351 0.11171 0.1041 0.0
O341 O 0.15045 0.14069 0.0659 0.0
O342 O 0.08314 0.12593 0.09654 0.0
O343 O 0.07203 0.07525 0.08008 0.0
H344 H 1.02086 0.09186 0.04251 0.0
H345 H 0.98248 0.12092 0.05085 0.0
H346 H 0.92648 0.0469 0.97681 0.0
H347 H 0.96658 1.01995 0.96572 0.0
H348 H 0.16227 0.08232 0.04075 0.0
H349 H 0.19873 0.05138 0.02998 0.0
H350 H 0.25547 0.11519 0.11074 0.0
H351 H 0.21665 0.14413 0.1241 0.0
Ho352 Ho 0.34907 0.84098 0.28557 0.0
Ho353 Ho 0.31463 0.8533 0.33471 0.0
C354 C 0.36373 0.91083 0.33032 0.0
C355 C 0.37935 0.84436 0.23803 0.0
C356 C 0.39254 0.87299 0.22428 0.0
C357 C 0.37833 0.89909 0.22169 0.0
C358 C 0.38876 0.9237 0.20416 0.0
C359 C 0.4135 0.92243 0.18911 0.0
C360 C 0.43004 0.89943 0.19627 0.0
C361 C 0.41929 0.87434 0.21334 0.0
C362 C 0.37041 0.82122 0.341 0.0
C363 C 0.30425 0.78062 0.2932 0.0
C364 C 0.28129 0.85678 0.37995 0.0
C365 C 0.26517 0.83251 0.39669 0.0
C366 C 0.2616 0.79864 0.38436 0.0
C367 C 0.25481 0.77539 0.40449 0.0
C368 C 0.2517 0.78591 0.43722 0.0
C369 C 0.25063 0.8193 0.44779 0.0
C370 C 0.25773 0.84271 0.42759 0.0
C371 C 0.29436 0.86969 0.27712 0.0
O372 O 0.35909 0.89638 0.29966 0.0
O373 O 0.34932 0.89729 0.35158 0.0
O374 O 0.38996 0.84361 0.26754 0.0
O375 O 0.35149 0.83688 0.23386 0.0
O376 O 0.36634 0.80432 0.31173 0.0
O377 O 0.36048 0.84738 0.33969 0.0
O378 O 0.30492 0.79733 0.32277 0.0
O379 O 0.3174 0.79446 0.27119 0.0
O380 O 0.27272 0.85406 0.34906 0.0
O381 O 0.30894 0.86077 0.38581 0.0
O382 O 0.2989 0.88928 0.30507 0.0
O383 O 0.30366 0.84402 0.28097 0.0
H384 H 0.35818 0.89923 0.23124 0.0
H385 H 0.3757 0.94135 0.19935 0.0
H386 H 0.44964 0.89869 0.18564 0.0
H387 H 0.43105 0.85506 0.21643 0.0
H388 H 0.26672 0.79035 0.3603 0.0
H389 H 0.25597 0.74995 0.39562 0.0
H390 H 0.24798 0.82785 0.47288 0.0
H391 H 0.26 0.86889 0.43715 0.0
Ho392 Ho 0.61754 0.08166 0.54691 0.0
Ho393 Ho 0.5528 0.07914 0.55542 0.0
C394 C 0.57086 1.01025 0.53441 0.0
C395 C 0.66949 0.07304 0.55326 0.0
C396 C 0.68653 0.04674 0.55045 0.0
C397 C 0.69459 0.03333 0.57804 0.0
C398 C 0.715 1.0135 0.57719 0.0
C399 C 0.72759 1.00645 0.54873 0.0
C400 C 0.71842 1.01807 0.52058 0.0
C401 C 0.69817 0.03818 0.52146 0.0
C402 C 0.58521 0.09055 0.49507 0.0
C403 C 0.59861 0.15068 0.56326 0.0
C404 C 0.50094 0.08655 0.55883 0.0
C405 C 0.48394 0.11239 0.55992 0.0
C406 C 0.48905 0.13801 0.54141 0.0
C407 C 0.47 0.15934 0.53938 0.0
C408 C 0.44591 0.15558 0.55617 0.0
C409 C 0.44192 0.13131 0.57629 0.0
C410 C 0.46077 0.10981 0.57805 0.0
C411 C 0.58758 0.07227 0.60617 0.0
O412 O 0.59789 1.02667 0.54085 0.0
O413 O 0.54904 1.02531 0.53541 0.0
O414 O 0.6568 0.07902 0.52632 0.0
O415 O 0.65413 0.07509 0.57749 0.0
O416 O 0.61231 0.10369 0.50165 0.0
O417 O 0.57737 0.07093 0.51437 0.0
O418 O 0.57161 0.13393 0.55597 0.0
O419 O 0.6204 0.13559 0.56529 0.0
O420 O 0.51926 0.08827 0.58448 0.0
O421 O 0.51087 0.07823 0.53141 0.0
O422 O 0.56178 0.05471 0.59906 0.0
O423 O 0.59295 0.09199 0.58673 0.0
H424 H 0.68622 0.03951 0.60083 0.0
H425 H 0.72187 1.00481 0.5992 0.0
H426 H 0.72809 1.01318 0.49847 0.0
H427 H 0.69269 0.04831 0.49986 0.0
H428 H 0.50703 0.14066 0.52752 0.0
H429 H 0.47348 0.17798 0.5238 0.0
H430 H 0.42332 0.12771 0.58915 0.0
H431 H 0.45655 0.09023 0.59251 0.0
Ho432 Ho 0.31229 0.34408 0.79467 0.0
Ho433 Ho 0.3651 0.31546 0.79055 0.0
C434 C 0.35183 0.34351 0.86138 0.0
C435 C 0.26137 0.35339 0.80335 0.0
C436 C 0.23796 0.34744 0.82403 0.0
C437 C 0.22618 0.31574 0.83059 0.0
C438 C 0.20223 0.31106 0.84769 0.0
C439 C 0.18946 0.33788 0.85819 0.0
C440 C 0.20215 0.36972 0.85286 0.0
C441 C 0.22603 0.37439 0.83598 0.0
C442 C 0.35622 0.39671 0.78579 0.0
C443 C 0.32566 0.31564 0.72342 0.0
C444 C 0.41568 0.30578 0.78204 0.0
C445 C 0.43793 0.31146 0.76024 0.0
C446 C 0.45092 0.34349 0.75581 0.0
C447 C 0.47388 0.34789 0.73751 0.0
C448 C 0.48425 0.3204 0.72345 0.0
C449 C 0.47011 0.28829 0.72635 0.0
C450 C 0.44732 0.28391 0.74477 0.0
C451 C 0.3229 0.26247 0.80024 0.0
O452 O 0.3264 0.34491 0.84768 0.0
O453 O 0.37174 0.33532 0.8442 0.0
O454 O 0.2849 0.37404 0.81703 0.0
O455 O 0.26613 0.3284 0.78312 0.0
O456 O 0.32988 0.39783 0.7885 0.0
O457 O 0.35774 0.36641 0.78757 0.0
O458 O 0.35062 0.31298 0.73744 0.0
O459 O 0.30621 0.32568 0.74042 0.0
O460 O 0.39214 0.28476 0.76914 0.0
O461 O 0.41116 0.33124 0.80182 0.0
O462 O 0.34963 0.26319 0.79885 0.0
O463 O 0.3195 0.29233 0.79818 0.0
H464 H 0.23502 0.2945 0.8219 0.0
H465 H 0.19303 0.28626 0.8516 0.0
H466 H 0.19325 0.39101 0.86122 0.0
H467 H 0.23478 0.39913 0.8315 0.0
H468 H 0.44392 0.36517 0.76718 0.0
H469 H 0.48432 0.37293 0.73556 0.0
H470 H 0.47712 0.26658 0.71508 0.0
H471 H 0.43746 0.25892 0.74761 0.0
Ho472 Ho 0.08307 0.10868 0.5578 0.0
Ho473 Ho 0.09742 0.04291 0.5241 0.0
C474 C 0.06238 0.08319 0.47677 0.0
C475 C 0.08677 0.17132 0.57399 0.0
C476 C 0.09505 0.19804 0.55528 0.0
C477 C 0.12107 0.2018 0.54216 0.0
C478 C 0.12732 0.22429 0.52102 0.0
C479 C 0.10783 0.24372 0.51308 0.0
C480 C 0.08183 0.2402 0.5262 0.0
C481 C 0.07545 0.2174 0.54716 0.0
C482 C 0.04046 0.05792 0.56559 0.0
C483 C 0.11876 0.06879 0.6052 0.0
C484 C 0.09646 0.98115 0.50584 0.0
C485 C 0.09307 0.95602 0.52654 0.0
C486 C 0.08453 0.96442 0.55726 0.0
C487 C 0.08199 0.94175 0.57841 0.0
C488 C 0.08784 0.9103 0.56904 0.0
C489 C 0.09724 0.9021 0.53864 0.0
C490 C 0.10011 0.92516 0.51743 0.0
C491 C 0.13877 0.09545 0.51726 0.0
O492 O 0.06485 0.10654 0.50341 0.0
O493 O 0.07298 0.05601 0.47895 0.0
O494 O 0.0627 0.15063 0.56187 0.0
O495 O 0.10693 0.15633 0.58348 0.0
O496 O 0.04296 0.08902 0.57747 0.0
O497 O 0.06229 0.05514 0.5511 0.0
O498 O 0.11632 0.04526 0.57863 0.0
O499 O 0.10796 0.0958 0.60278 0.0
O500 O 0.12015 1.00349 0.51446 0.0
O501 O 0.07401 0.99413 0.50068 0.0
O502 O 0.13882 0.0648 0.50608 0.0
O503 O 0.11634 0.09549 0.53054 0.0
H504 H 0.13652 0.18715 0.54797 0.0
H505 H 0.14761 0.22699 0.51134 0.0
H506 H 0.06652 0.25501 0.52016 0.0
H507 H 0.05506 0.21445 0.5566 0.0
H508 H 0.07933 0.98839 0.56469 0.0
H509 H 0.07404 0.94822 0.60141 0.0
H510 H 0.10158 0.87769 0.5311 0.0
H511 H 0.10736 0.91883 0.494 0.0
Ho512 Ho 0.36754 0.85313 0.78946 0.0
Ho513 Ho 0.31539 0.80405 0.79164 0.0
C514 C 0.37368 0.77277 0.79285 0.0
C515 C 0.41748 0.89054 0.79802 0.0
C516 C 0.44567 0.88448 0.79238 0.0
C517 C 0.45543 0.85787 0.80345 0.0
C518 C 0.48393 0.85595 0.8031 0.0
C519 C 0.50272 0.88057 0.79168 0.0
C520 C 0.49226 0.90478 0.7771 0.0
C521 C 0.46373 0.90672 0.77743 0.0
C522 C 0.34251 0.81855 0.73112 0.0
C523 C 0.30906 0.88467 0.79099 0.0
C524 C 0.26583 0.76628 0.77695 0.0
C525 C 0.23763 0.77389 0.77627 0.0
C526 C 0.21776 0.7598 0.74887 0.0
C527 C 0.19236 0.77052 0.74488 0.0
C528 C 0.18653 0.79528 0.76838 0.0
C529 C 0.20605 0.80899 0.79624 0.0
C530 C 0.23178 0.79854 0.80005 0.0
C531 C 0.34024 0.83665 0.85054 0.0
O532 O 0.38689 0.80523 0.79649 0.0
O533 O 0.34512 0.76606 0.78863 0.0
O534 O 0.39955 0.88772 0.77176 0.0
O535 O 0.4059 0.8772 0.82147 0.0
O536 O 0.35365 0.85008 0.7357 0.0
O537 O 0.34598 0.80788 0.75722 0.0
O538 O 0.29596 0.8521 0.78577 0.0
O539 O 0.3377 0.89137 0.79572 0.0
O540 O 0.28058 0.77032 0.80577 0.0
O541 O 0.28062 0.77854 0.75514 0.0
O542 O 0.32815 0.80527 0.8449 0.0
O543 O 0.33749 0.84865 0.82489 0.0
H544 H 0.44169 0.83999 0.81453 0.0
H545 H 0.49189 0.8375 0.81501 0.0
H546 H 0.50674 0.92417 0.76863 0.0
H547 H 0.45631 0.92695 0.76816 0.0
H548 H 0.22232 0.74131 0.73008 0.0
H549 H 0.17721 0.75954 0.72335 0.0
H550 H 0.20162 0.82806 0.8145 0.0
H551 H 0.24732 0.81028 0.82101 0.0
Ho552 Ho 0.58167 0.08715 0.05774 0.0
Ho553 Ho 0.57717 0.10299 0.98634 0.0
C554 C 0.52529 0.05548 1.00409 0.0
C555 C 0.56689 0.08156 0.11352 0.0
C556 C 0.54835 0.05279 0.1227 0.0
C557 C 0.51905 0.05202 0.12317 0.0
C558 C 0.50263 1.02854 0.13804 0.0
C559 C 0.51613 1.00769 0.15457 0.0
C560 C 0.54292 1.00284 0.14682 0.0
C561 C 0.55947 1.02611 0.13169 0.0
C562 C 0.59914 0.03988 1.01796 0.0
C563 C 0.63687 0.1246 0.03605 0.0
C564 C 0.58567 0.12391 0.93283 0.0
C565 C 0.6117 0.14067 0.92167 0.0
C566 C 0.63157 0.12249 0.9108 0.0
C567 C 0.6566 0.13864 0.90128 0.0
C568 C 0.66232 0.17333 0.90235 0.0
C569 C 0.6429 0.19176 0.91421 0.0
C570 C 0.61765 0.17549 0.92371 0.0
C571 C 0.55694 0.1411 0.03257 0.0
O572 O 0.53712 0.06471 0.03469 0.0
O573 O 0.53854 0.0626 0.97903 0.0
O574 O 0.59231 0.07801 0.10647 0.0
O575 O 0.55398 0.09704 0.09357 0.0
O576 O 0.59854 0.04045 0.04893 0.0
O577 O 0.58902 0.06382 1.01034 0.0
O578 O 0.62435 0.11514 1.00543 0.0
O579 O 0.62276 0.12254 0.06149 0.0
O580 O 0.57762 0.14147 0.95745 0.0
O581 O 0.58353 0.09248 0.93569 0.0
O582 O 0.54338 0.13007 1.0036 0.0
O583 O 0.57956 0.13064 0.03534 0.0
H584 H 0.50939 0.07122 0.11476 0.0
H585 H 0.48141 0.03163 0.14258 0.0
H586 H 0.55326 0.98588 0.15843 0.0
H587 H 0.58159 1.02496 0.13001 0.0
H588 H 0.62768 0.09571 0.90908 0.0
H589 H 0.67072 0.12354 0.89123 0.0
H590 H 0.64674 0.2184 0.91489 0.0
H591 H 0.60265 0.19009 0.9323 0.0
Ho592 Ho 0.35381 0.35245 0.30318 0.0
Ho593 Ho 0.31947 0.28789 0.2661 0.0
C594 C 0.2863 0.33918 0.29652 0.0
C595 C 0.37598 0.41489 0.31499 0.0
C596 C 0.35937 0.44083 0.3178 0.0
C597 C 0.33301 0.43499 0.2982 0.0
C598 C 0.3145 0.45616 0.30366 0.0
C599 C 0.32263 0.48465 0.32757 0.0
C600 C 0.34908 0.49118 0.34707 0.0
C601 C 0.36723 0.46878 0.34265 0.0
C602 C 0.33871 0.31595 0.34978 0.0
C603 C 0.38808 0.29797 0.28543 0.0
C604 C 0.29977 0.22649 0.24063 0.0
C605 C 0.31274 0.19889 0.24757 0.0
C606 C 0.3278 0.20164 0.27859 0.0
C607 C 0.34477 0.17937 0.28455 0.0
C608 C 0.34713 0.1539 0.25966 0.0
C609 C 0.3319 0.15062 0.22861 0.0
C610 C 0.31468 0.17316 0.22256 0.0
C611 C 0.33195 0.33653 0.22955 0.0
O612 O 0.3098 0.36112 0.29647 0.0
O613 O 0.28463 0.30716 0.2881 0.0
O614 O 0.37356 0.39679 0.33789 0.0
O615 O 0.37339 0.39695 0.28595 0.0
O616 O 0.35515 0.34509 0.35445 0.0
O617 O 0.33162 0.3056 0.31917 0.0
O618 O 0.36346 0.27695 0.27479 0.0
O619 O 0.3898 0.32874 0.29905 0.0
O620 O 0.31549 0.24734 0.22585 0.0
O621 O 0.28944 0.24156 0.26507 0.0
O622 O 0.30689 0.31745 0.22781 0.0
O623 O 0.34848 0.32925 0.25135 0.0
H624 H 0.32659 0.4141 0.2784 0.0
H625 H 0.29448 0.45143 0.28774 0.0
H626 H 0.35584 0.51373 0.36498 0.0
H627 H 0.38732 0.4733 0.35832 0.0
H628 H 0.32748 0.22195 0.29798 0.0
H629 H 0.35683 0.1827 0.30848 0.0
H630 H 0.33363 0.13107 0.20913 0.0
H631 H 0.30377 0.17128 0.19826 0.0
Ho632 Ho 0.58513 0.60995 0.05555 0.0
Ho633 Ho 0.59698 0.54149 1.02314 0.0
C634 C 0.56301 0.58196 0.97521 0.0
C635 C 0.58918 0.67281 0.07175 0.0
C636 C 0.5955 0.69918 0.05252 0.0
C637 C 0.60161 0.69125 1.02049 0.0
C638 C 0.60837 0.71614 1.00199 0.0
C639 C 0.6082 0.74905 1.01504 0.0
C640 C 0.60104 0.7569 0.04663 0.0
C641 C 0.59485 0.73198 0.06545 0.0
C642 C 0.54223 0.55968 0.06511 0.0
C643 C 0.61868 0.56876 0.10371 0.0
C644 C 0.59571 0.47949 1.00629 0.0
C645 C 0.59212 0.45451 0.0271 0.0
C646 C 0.58236 0.46245 0.05723 0.0
C647 C 0.57918 0.4395 0.07811 0.0
C648 C 0.58547 0.40826 0.0689 0.0
C649 C 0.59672 0.40085 0.03951 0.0
C650 C 0.60019 0.42414 1.01862 0.0
C651 C 0.64016 0.59214 1.01561 0.0
O652 O 0.56895 0.60753 1.0003 0.0
O653 O 0.57005 0.55308 0.97915 0.0
O654 O 0.56487 0.65188 0.06147 0.0
O655 O 0.6103 0.65809 0.07829 0.0
O656 O 0.5444 0.59101 0.07574 0.0
O657 O 0.56382 0.55714 0.05044 0.0
O658 O 0.61385 0.54374 0.07812 0.0
O659 O 0.61068 0.59733 0.10031 0.0
O660 O 0.61947 0.50171 1.0149 0.0
O661 O 0.57336 0.49252 1.00067 0.0
O662 O 0.63813 0.56118 1.00378 0.0
O663 O 0.61792 0.59387 0.02892 0.0
H664 H 0.60141 0.66585 1.0099 0.0
H665 H 0.61361 0.70975 0.9775 0.0
H666 H 0.60076 0.78233 0.05685 0.0
H667 H 0.58968 0.73826 0.08997 0.0
H668 H 0.57656 0.48616 0.06427 0.0
H669 H 0.57021 0.44541 0.10055 0.0
H670 H 0.60167 0.3767 0.03227 0.0
H671 H 0.60855 0.41829 0.99577 0.0
Ho672 Ho 0.86688 0.35397 0.27994 0.0
Ho673 Ho 0.81897 0.30828 0.29627 0.0
C674 C 0.87657 0.27666 0.29337 0.0
C675 C 0.91561 0.39252 0.28061 0.0
C676 C 0.94459 0.38741 0.28683 0.0
C677 C 0.95231 0.37321 0.31385 0.0
C678 C 0.97984 0.36852 0.31999 0.0
C679 C 0.99993 0.37714 0.29882 0.0
C680 C 0.99208 0.39058 0.27131 0.0
C681 C 0.96443 0.39573 0.26534 0.0
C682 C 0.83532 0.3139 0.22742 0.0
C683 C 0.80938 0.38598 0.28563 0.0
C684 C 0.76867 0.27293 0.29226 0.0
C685 C 0.74152 0.283 0.28594 0.0
C686 C 0.73782 0.30243 0.26166 0.0
C687 C 0.71143 0.3099 0.25383 0.0
C688 C 0.6886 0.29845 0.27046 0.0
C689 C 0.6928 0.2814 0.29645 0.0
C690 C 0.71925 0.27361 0.30413 0.0
C691 C 0.85134 0.34599 0.34896 0.0
O692 O 0.88856 0.30807 0.28962 0.0
O693 O 0.84864 0.27052 0.2961 0.0
O694 O 0.9007 0.37508 0.25377 0.0
O695 O 0.90122 0.39281 0.30566 0.0
O696 O 0.84486 0.34553 0.22842 0.0
O697 O 0.84252 0.30638 0.25448 0.0
O698 O 0.79799 0.35512 0.29075 0.0
O699 O 0.83673 0.39165 0.28034 0.0
O700 O 0.78377 0.28662 0.32033 0.0
O701 O 0.78384 0.27243 0.26784 0.0
O702 O 0.84107 0.31429 0.34685 0.0
O703 O 0.84411 0.35522 0.32259 0.0
H704 H 0.93728 0.36619 0.33062 0.0
H705 H 0.98564 0.35922 0.34201 0.0
H706 H 1.00745 0.39763 0.25489 0.0
H707 H 0.95859 0.40637 0.2442 0.0
H708 H 0.75494 0.31068 0.24774 0.0
H709 H 0.70831 0.32278 0.23348 0.0
H710 H 0.67511 0.27203 0.30912 0.0
H711 H 0.722 0.25921 0.32333 0.0
Ho712 Ho 0.08446 0.58201 0.55645 0.0
Ho713 Ho 0.08056 0.60182 0.49078 0.0
C714 C 0.02659 0.55627 0.50646 0.0
C715 C 0.07329 0.56483 0.6109 0.0
C716 C 0.04857 0.54258 0.61955 0.0
C717 C 0.02432 0.55465 0.62725 0.0
C718 C 1.00403 0.53609 0.64254 0.0
C719 C 1.00831 0.50582 0.651 0.0
C720 C 0.02917 0.4909 0.63732 0.0
C721 C 0.04974 0.5096 0.62231 0.0
C722 C 0.106 0.54467 0.51218 0.0
C723 C 0.14018 0.62392 0.54022 0.0
C724 C 0.08512 0.62001 0.43527 0.0
C725 C 0.10372 0.64747 0.42464 0.0
C726 C 0.13321 0.64969 0.42721 0.0
C727 C 0.14959 0.67072 0.41015 0.0
C728 C 0.1366 0.68939 0.39 0.0
C729 C 0.1085 0.69255 0.39358 0.0
C730 C 0.09178 0.6708 0.41006 0.0
C731 C 0.06203 0.6412 0.5371 0.0
O732 O 0.03827 0.56543 0.537 0.0
O733 O 0.0409 0.56254 0.48206 0.0
O734 O 0.08936 0.55065 0.59235 0.0
O735 O 0.06893 0.59271 0.6027 0.0
O736 O 0.11583 0.55186 0.54272 0.0
O737 O 0.08306 0.55444 0.50645 0.0
O738 O 0.12776 0.61823 0.50965 0.0
O739 O 0.12605 0.61743 0.56477 0.0
O740 O 0.067 0.62885 0.45425 0.0
O741 O 0.09689 0.59642 0.44443 0.0
O742 O 0.04936 0.63193 0.50771 0.0
O743 O 0.0841 0.62955 0.54056 0.0
H744 H 1.02221 0.57952 0.62421 0.0
H745 H 0.98762 0.54786 0.65213 0.0
H746 H 0.03224 0.46706 0.64276 0.0
H747 H 0.06773 0.49922 0.61544 0.0
H748 H 0.14326 0.63309 0.43973 0.0
H749 H 0.17128 0.66791 0.40871 0.0
H750 H 0.09832 0.70807 0.37972 0.0
H751 H 0.06915 0.67045 0.40921 0.0
Ho752 Ho 0.81173 0.84472 0.29512 0.0
Ho753 Ho 0.86409 0.81583 0.29052 0.0
C754 C 0.85223 0.84501 0.361 0.0
C755 C 0.76133 0.85535 0.30446 0.0
C756 C 0.73652 0.84742 0.32255 0.0
C757 C 0.73155 0.8196 0.3383 0.0
C758 C 0.70712 0.81291 0.35439 0.0
C759 C 0.68725 0.83373 0.3546 0.0
C760 C 0.69284 0.86195 0.33957 0.0
C761 C 0.7172 0.86873 0.32385 0.0
C762 C 0.8551 0.89777 0.28594 0.0
C763 C 0.82417 0.8158 0.224 0.0
C764 C 0.91345 0.8028 0.28048 0.0
C765 C 0.93656 0.80879 0.25985 0.0
C766 C 0.94899 0.84081 0.25502 0.0
C767 C 0.97252 0.84572 0.23763 0.0
C768 C 0.98394 0.81864 0.22464 0.0
C769 C 0.97031 0.78638 0.22785 0.0
C770 C 0.94701 0.78157 0.24551 0.0
C771 C 0.82126 0.76349 0.30092 0.0
O772 O 0.82581 0.84272 0.34773 0.0
O773 O 0.87248 0.83958 0.34312 0.0
O774 O 0.78504 0.87286 0.32135 0.0
O775 O 0.76571 0.83235 0.28163 0.0
O776 O 0.82849 0.89787 0.28775 0.0
O777 O 0.85747 0.8676 0.28769 0.0
O778 O 0.84986 0.81536 0.23768 0.0
O779 O 0.80431 0.82387 0.24141 0.0
O780 O 0.88918 0.78468 0.26568 0.0
O781 O 0.91023 0.82733 0.30243 0.0
O782 O 0.84797 0.76356 0.30044 0.0
O783 O 0.81874 0.79344 0.29871 0.0
H784 H 0.74629 0.80295 0.33785 0.0
H785 H 0.70334 0.79104 0.36588 0.0
H786 H 0.67813 0.87864 0.33973 0.0
H787 H 0.72078 0.89055 0.31224 0.0
H788 H 0.94095 0.86206 0.26524 0.0
H789 H 0.98243 0.87086 0.23541 0.0
H790 H 0.97798 0.76489 0.21725 0.0
H791 H 0.93745 0.75654 0.24852 0.0
Ho792 Ho 0.84691 0.34451 0.7889 0.0
Ho793 Ho 0.81275 0.35366 0.8379 0.0
C794 C 0.85777 0.41412 0.83094 0.0
C795 C 0.87002 0.33585 0.73581 0.0
C796 C 0.88951 0.359 0.72107 0.0
C797 C 0.89749 0.39243 0.73614 0.0
C798 C 0.90646 0.41695 0.71777 0.0
C799 C 0.90792 0.40786 0.68441 0.0
C800 C 0.90427 0.3741 0.67081 0.0
C801 C 0.89475 0.34966 0.68907 0.0
C802 C 0.87939 0.34736 0.84633 0.0
C803 C 0.80791 0.27976 0.80236 0.0
C804 C 0.7799 0.35758 0.88344 0.0
C805 C 0.76125 0.33369 0.89827 0.0
C806 C 0.74987 0.30149 0.88097 0.0
C807 C 0.74083 0.27581 0.8979 0.0
C808 C 0.74368 0.28241 0.93201 0.0
C809 C 0.74988 0.31541 0.94845 0.0
C810 C 0.75904 0.34113 0.93155 0.0
C811 C 0.79092 0.36965 0.78095 0.0
O812 O 0.85201 0.39955 0.80024 0.0
O813 O 0.84657 0.39864 0.85307 0.0
O814 O 0.88023 0.32859 0.76315 0.0
O815 O 0.84484 0.34294 0.73698 0.0
O816 O 0.88645 0.36374 0.82333 0.0
O817 O 0.85302 0.33216 0.83948 0.0
O818 O 0.79716 0.29885 0.82364 0.0
O819 O 0.82895 0.29155 0.78701 0.0
O820 O 0.77186 0.3581 0.85302 0.0
O821 O 0.80716 0.35806 0.8891 0.0
O822 O 0.79608 0.38918 0.80888 0.0
O823 O 0.80074 0.34406 0.78406 0.0
H824 H 0.89381 0.39968 0.76104 0.0
H825 H 0.90914 0.44288 0.72861 0.0
H826 H 0.9051 0.36665 0.64501 0.0
H827 H 0.88874 0.32387 0.67724 0.0
H828 H 0.75087 0.29549 0.85506 0.0
H829 H 0.73617 0.25041 0.88495 0.0
H830 H 0.75224 0.32074 0.97486 0.0
H831 H 0.76737 0.36603 0.94504 0.0
Ho832 Ho 0.85213 0.85339 0.80416 0.0
Ho833 Ho 0.81258 0.78344 0.76629 0.0
C834 C 0.78227 0.83837 0.79906 0.0
C835 C 0.87354 0.91567 0.82065 0.0
C836 C 0.8564 0.94092 0.8214 0.0
C837 C 0.83011 0.933 0.80153 0.0
C838 C 0.81106 0.9537 0.80445 0.0
C839 C 0.8181 0.98316 0.82704 0.0
C840 C 0.84419 0.99131 0.84754 0.0
C841 C 0.86323 0.96985 0.84502 0.0
C842 C 0.84042 0.81058 0.84722 0.0
C843 C 0.88213 0.79842 0.77307 0.0
C844 C 0.79285 0.72056 0.75091 0.0
C845 C 0.80982 0.69596 0.75696 0.0
C846 C 0.83354 0.7061 0.78101 0.0
C847 C 0.85366 0.68678 0.78374 0.0
C848 C 0.85065 0.6568 0.76236 0.0
C849 C 0.82663 0.64576 0.73862 0.0
C850 C 0.80636 0.66561 0.73564 0.0
C851 C 0.82381 0.828 0.72401 0.0
O852 O 0.807 0.85997 0.80345 0.0
O853 O 0.77891 0.8067 0.78618 0.0
O854 O 0.86775 0.8962 0.84195 0.0
O855 O 0.87469 0.89922 0.79168 0.0
O856 O 0.85781 0.83927 0.85378 0.0
O857 O 0.83299 0.80479 0.81649 0.0
O858 O 0.85783 0.77629 0.76924 0.0
O859 O 0.8852 0.83029 0.78412 0.0
O860 O 0.8027 0.7388 0.72994 0.0
O861 O 0.78681 0.73839 0.77695 0.0
O862 O 0.80731 0.79869 0.71636 0.0
O863 O 0.83116 0.83218 0.75457 0.0
H864 H 0.82399 0.91058 0.7837 0.0
H865 H 0.79136 0.94748 0.78781 0.0
H866 H 0.85005 1.01456 0.86457 0.0
H867 H 0.88311 0.97577 0.86125 0.0
H868 H 0.83735 0.72983 0.79694 0.0
H869 H 0.87185 0.69545 0.80251 0.0
H870 H 0.82401 0.62242 0.72208 0.0
H871 H 0.78864 0.65787 0.71626 0.0
Ho872 Ho 0.57277 0.5649 0.52346 0.0
Ho873 Ho 0.61108 0.60159 0.56097 0.0
C874 C 0.57369 0.64193 0.52714 0.0
C875 C 0.52335 0.5406 0.49013 0.0
C876 C 0.4971 0.55183 0.4968 0.0
C877 C 0.49365 0.56365 0.52916 0.0
C878 C 0.47123 0.57915 0.53585 0.0
C879 C 0.45189 0.58333 0.51034 0.0
C880 C 0.45535 0.57168 0.47791 0.0
C881 C 0.47788 0.55601 0.47119 0.0
C882 C 0.61917 0.56788 0.48597 0.0
C883 C 0.60819 0.52351 0.55783 0.0
C884 C 0.66043 0.62771 0.59432 0.0
C885 C 0.6864 0.61541 0.58939 0.0
C886 C 0.68671 0.59443 0.55993 0.0
C887 C 0.70883 0.57793 0.55586 0.0
C888 C 0.7313 0.58256 0.58095 0.0
C889 C 0.7316 0.60414 0.61028 0.0
C890 C 0.70892 0.6203 0.61465 0.0
C891 C 0.56484 0.5971 0.59857 0.0
O892 O 0.55674 0.61279 0.52485 0.0
O893 O 0.60015 0.64477 0.53947 0.0
O894 O 0.54248 0.56291 0.48111 0.0
O895 O 0.53436 0.52604 0.51219 0.0
O896 O 0.60123 0.54167 0.48991 0.0
O897 O 0.61307 0.59225 0.50531 0.0
O898 O 0.62565 0.55265 0.56176 0.0
O899 O 0.5821 0.52132 0.54467 0.0
O900 O 0.64097 0.60675 0.60446 0.0
O901 O 0.64992 0.6399 0.57011 0.0
O902 O 0.58238 0.62387 0.59511 0.0
O903 O 0.57128 0.57331 0.57891 0.0
H904 H 0.50876 0.56175 0.54934 0.0
H905 H 0.46904 0.58796 0.56103 0.0
H906 H 0.44106 0.57536 0.45781 0.0
H907 H 0.48084 0.54815 0.44606 0.0
H908 H 0.66939 0.59008 0.54025 0.0
H909 H 0.70848 0.56162 0.53298 0.0
H910 H 0.74902 0.60797 0.62978 0.0
H911 H 0.70866 0.63595 0.63772 0.0
Ho912 Ho 0.11886 0.58009 0.04963 0.0
Ho913 Ho 0.05503 0.58232 0.05928 0.0
C914 C 0.06915 0.51129 0.03813 0.0
C915 C 0.17002 0.56871 0.05579 0.0
C916 C 0.18732 0.54322 0.04853 0.0
C917 C 0.1906 0.52071 0.07001 0.0
C918 C 0.21166 0.50181 0.06721 0.0
C919 C 0.22998 0.50533 0.04316 0.0
C920 C 0.22551 0.52605 1.0204 0.0
C921 C 0.20437 0.54478 1.02302 0.0
C922 C 0.08688 0.58844 0.99715 0.0
C923 C 0.10257 0.65098 0.0653 0.0
C924 C 1.00433 0.59345 0.0637 0.0
C925 C 0.98785 0.61984 0.06236 0.0
C926 C 0.97911 0.62888 0.03251 0.0
C927 C 0.95948 0.64949 0.03088 0.0
C928 C 0.9481 0.66134 0.05897 0.0
C929 C 0.95838 0.65424 0.08917 0.0
C930 C 0.97792 0.6335 0.0908 0.0
C931 C 0.08964 0.5741 0.10997 0.0
O932 O 0.09677 0.52552 0.04373 0.0
O933 O 0.04869 0.52841 0.03897 0.0
O934 O 0.15987 0.58162 0.03165 0.0
O935 O 0.15232 0.56438 0.07741 0.0
O936 O 0.11433 0.59933 1.00262 0.0
O937 O 0.0784 0.57072 1.01775 0.0
O938 O 0.07546 0.63548 0.05653 0.0
O939 O 0.12342 0.63458 0.0688 0.0
O940 O 0.02365 0.59724 0.08891 0.0
O941 O 1.01244 0.58055 0.03656 0.0
O942 O 0.06325 0.55823 0.10344 0.0
O943 O 0.09555 0.59309 0.08995 0.0
H944 H 0.17806 0.51907 0.09015 0.0
H945 H 0.2149 0.48617 0.08518 0.0
H946 H 0.23945 0.52912 1.00167 0.0
H947 H 0.20256 0.56197 1.00623 0.0
H948 H 0.98636 0.61884 1.01012 0.0
H949 H 0.95191 0.65453 1.00727 0.0
H950 H 0.95043 0.66362 0.11133 0.0
H951 H 0.98431 0.62697 0.11414 0.0
C952 C 0.04485 0.19458 0.96645 0.0
C953 C 0.04548 0.22528 0.98638 0.0
C954 C 0.05391 0.1682 0.97922 0.0
C955 C 0.06466 0.17144 1.01239 0.0
H956 H 0.03754 0.19091 0.9406 0.0
H957 H 0.05308 0.14523 0.96273 0.0
S958 S 0.06962 0.24569 0.07561 0.0
N959 N 0.05666 0.2565 0.04172 0.0
N960 N 0.07431 0.20741 0.06517 0.0
C961 C 0.06524 0.20179 0.03267 0.0
C962 C 0.0555 0.22848 1.01984 0.0
C963 C 0.2336 0.89717 0.22872 0.0
C964 C 0.21984 0.86803 0.20688 0.0
C965 C 0.25814 0.89785 0.25057 0.0
C966 C 0.26976 0.86931 0.25183 0.0
H967 H 0.22539 0.91965 0.2289 0.0
H968 H 0.26784 0.92085 0.26692 0.0
S969 S 0.23947 0.78572 0.20225 0.0
N970 N 0.21853 0.80947 0.18942 0.0
N971 N 0.2639 0.81041 0.23029 0.0
C972 C 0.25577 0.83992 0.23035 0.0
C973 C 0.23105 0.83936 0.208 0.0
C974 C 0.53539 0.91806 0.51626 0.0
C975 C 0.5521 0.90512 0.49375 0.0
C976 C 0.54164 0.95215 0.52984 0.0
C977 C 0.56526 0.97407 0.52201 0.0
H978 H 0.51685 0.90205 0.52252 0.0
H979 H 0.52787 0.96144 0.54639 0.0
S980 S 0.61663 0.95205 0.46597 0.0
N981 N 0.59383 0.91669 0.46532 0.0
N982 N 0.60584 0.98011 0.49126 0.0
C983 C 0.58267 0.96107 0.50055 0.0
C984 C 0.57603 0.92675 0.48631 0.0
C985 C 0.54145 0.35524 0.67336 0.0
C986 C 0.56471 0.34181 0.6838 0.0
C987 C 0.51519 0.34755 0.68559 0.0
C988 C 0.51111 0.32564 0.70819 0.0
H989 H 0.54371 0.37237 0.65615 0.0
H990 H 0.49803 0.35903 0.67752 0.0
S991 S 0.56428 0.28069 0.74014 0.0
N992 N 0.5812 0.30333 0.71581 0.0
N993 N 0.53204 0.28892 0.73881 0.0
C994 C 0.53381 0.31082 0.71758 0.0
C995 C 0.56057 0.31893 0.70542 0.0
C996 C 0.04394 0.83627 0.59422 0.0
C997 C 0.05135 0.8425 0.62819 0.0
C998 C 0.0576 0.8572 0.5748 0.0
C999 C 0.07912 0.88488 0.58881 0.0
H1000 H 0.02713 0.81537 0.58255 0.0
H1001 H 0.05033 0.85261 0.54888 0.0
S1002 S 0.10895 0.90969 0.67595 0.0
N1003 N 0.08339 0.87654 0.6748 0.0
N1004 N 0.10908 0.91615 0.6379 0.0
C1005 C 0.0877 0.89062 0.62252 0.0
C1006 C 0.07373 0.86937 0.64238 0.0
C1007 C 0.56659 0.91618 0.85292 0.0
C1008 C 0.58678 0.89837 0.84208 0.0
C1009 C 0.53991 0.91131 0.83497 0.0
C1010 C 0.53252 0.88817 0.80592 0.0
H1011 H 0.57112 0.93326 0.87594 0.0
H1012 H 0.5244 0.92458 0.84466 0.0
S1013 S 0.57804 0.83589 0.76683 0.0
N1014 N 0.59834 0.8577 0.80005 0.0
N1015 N 0.54717 0.84775 0.76652 0.0
C1016 C 0.55264 0.87077 0.79424 0.0
C1017 C 0.58019 0.8762 0.81229 0.0
C1018 C 0.50594 0.17784 0.08299 0.0
C1019 C 0.52184 0.18675 0.11408 0.0
C1020 C 0.51753 0.16336 0.05638 0.0
C1021 C 0.5454 0.15775 0.06013 0.0
H1022 H 0.48476 0.18293 0.07908 0.0
H1023 H 0.50463 0.15667 0.03276 0.0
S1024 S 0.59707 0.18071 0.13569 0.0
N1025 N 0.56744 0.19073 0.14674 0.0
N1026 N 0.58958 0.16526 0.09647 0.0
C1027 C 0.56181 0.16765 0.09087 0.0
C1028 C 0.54982 0.18139 0.11804 0.0
C1029 C 0.2512 0.38469 0.35947 0.0
C1030 C 0.22217 0.37203 0.34872 0.0
C1031 C 0.27179 0.37446 0.34152 0.0
C1032 C 0.26389 0.35093 0.31266 0.0
H1033 H 0.25807 0.40238 0.38193 0.0
H1034 H 0.2941 0.3843 0.35086 0.0
S1035 S 0.19081 0.31057 0.27387 0.0
N1036 N 0.18639 0.33522 0.30693 0.0
N1037 N 0.22568 0.31548 0.27376 0.0
C1038 C 0.23507 0.33809 0.30152 0.0
C1039 C 0.214 0.34888 0.31943 0.0
C1040 C 0.03541 0.12512 0.18388 0.0
C1041 C 1.01589 0.09682 0.18999 0.0
C1042 C 0.05041 0.12534 0.15535 0.0
C1043 C 0.04799 0.09713 0.13023 0.0
H1044 H 0.03908 0.14795 0.20137 0.0
H1045 H 0.06448 0.14841 0.15318 0.0
S1046 S 1.00082 1.01538 0.1332 0.0
N1047 N 0.99578 0.03894 0.16675 0.0
N1048 N 0.02385 0.03921 0.11514 0.0
C1049 C 0.02882 0.06848 0.13614 0.0
C1050 C 1.01308 0.06839 0.165 0.0
C1051 C 0.30043 0.7606 0.49832 0.0
C1052 C 0.29282 0.72574 0.49066 0.0
C1053 C 0.28437 0.78024 0.48386 0.0
C1054 C 0.26025 0.76573 0.46095 0.0
H1055 H 0.31912 0.77298 0.5154 0.0
H1056 H 0.29231 0.80693 0.48886 0.0
S1057 S 0.22864 0.6758 0.43685 0.0
N1058 N 0.25765 0.67748 0.4619 0.0
N1059 N 0.22721 0.71478 0.43475 0.0
C1060 C 0.25107 0.73101 0.45513 0.0
C1061 C 0.26756 0.71091 0.46973 0.0
C1062 C 0.6532 0.09556 0.66595 0.0
C1063 C 0.65577 0.06519 0.67526 0.0
C1064 C 0.63021 0.09743 0.64431 0.0
C1065 C 0.60921 0.06895 0.63125 0.0
H1066 H 0.66888 0.11817 0.6759 0.0
H1067 H 0.62898 0.12136 0.63758 0.0
S1068 S 0.6075 0.98325 0.64653 0.0
N1069 N 0.63646 1.00597 0.66969 0.0
N1070 N 0.5928 1.00927 0.62773 0.0
C1071 C 0.61152 0.0383 0.64016 0.0
C1072 C 0.63507 0.03646 0.66257 0.0
C1073 C 0.37141 0.4023 0.94196 0.0
C1074 C 0.36976 0.38102 0.96538 0.0
C1075 C 0.36603 0.38974 0.90843 0.0
C1076 C 0.359 0.3554 0.89684 0.0
H1077 H 0.37657 0.42905 0.94952 0.0
H1078 H 0.36714 0.40709 0.8914 0.0
S1079 S 0.35187 0.28872 0.94709 0.0
N1080 N 0.36054 0.32351 0.97407 0.0
N1081 N 0.35066 0.30008 0.9108 0.0
C1082 C 0.35757 0.33368 0.91963 0.0
C1083 C 0.36291 0.34645 0.95395 0.0
C1084 C 0.04218 0.08193 0.38191 0.0
C1085 C 1.01723 0.09554 0.37907 0.0
C1086 C 0.05621 0.07775 0.41268 0.0
C1087 C 0.04689 0.0876 0.44333 0.0
H1088 H 0.05097 0.07392 0.35991 0.0
H1089 H 0.07494 0.06696 0.41236 0.0
S1090 S 0.98208 0.12323 0.45102 0.0
N1091 N 0.98354 0.11747 0.41129 0.0
N1092 N 1.00985 0.11093 0.46764 0.0
C1093 C 1.02206 0.10127 0.44084 0.0
C1094 C 1.00743 0.10483 0.40952 0.0
C1095 C 0.31674 0.76958 0.64732 0.0
C1096 C 0.33403 0.74584 0.64562 0.0
C1097 C 0.32033 0.7945 0.67469 0.0
C1098 C 0.34168 0.79648 0.70044 0.0
H1099 H 0.30004 0.76844 0.62764 0.0
H1100 H 0.30594 0.81158 0.67613 0.0
S1101 S 0.39468 0.7428 0.70521 0.0
N1102 N 0.37405 0.72692 0.67043 0.0
N1103 N 0.38206 0.7749 0.72128 0.0
C1104 C 0.35985 0.77372 0.69822 0.0
C1105 C 0.35566 0.74794 0.67088 0.0
C1106 C 0.72096 0.16327 0.8586 0.0
C1107 C 0.70685 0.16359 0.82768 0.0
C1108 C 0.7104 0.17598 0.88671 0.0
C1109 C 0.68484 0.18755 0.88394 0.0
H1110 H 0.73785 0.14966 0.86117 0.0
H1111 H 0.71867 0.17044 0.90983 0.0
S1112 S 0.65019 0.20943 0.80974 0.0
N1113 N 0.67395 0.18852 0.79665 0.0
N1114 N 0.65373 0.21176 0.84976 0.0
C1115 C 0.67561 0.19588 0.85402 0.0
C1116 C 0.68628 0.18309 0.8254 0.0
C1117 C 0.37834 0.3682 0.16608 0.0
C1118 C 0.36002 0.38246 0.1469 0.0
C1119 C 0.36951 0.35441 0.1934 0.0
C1120 C 0.34169 0.35337 0.20202 0.0
H1121 H 0.39981 0.3682 0.16029 0.0
H1122 H 0.38442 0.34384 0.20746 0.0
S1123 S 0.28511 0.38609 0.1589 0.0
N1124 N 0.31267 0.39441 0.13848 0.0
N1125 N 0.29582 0.36731 0.1885 0.0
C1126 C 0.3231 0.36707 0.18268 0.0
C1127 C 0.33231 0.38189 0.15552 0.0
C1128 C 0.28806 0.03198 0.07347 0.0
C1129 C 0.29293 1.02563 0.04072 0.0
C1130 C 0.26837 0.05121 0.08278 0.0
C1131 C 0.25286 0.06421 0.05948 0.0
H1132 H 0.29978 1.0224 0.09201 0.0
H1133 H 0.26479 0.05527 0.10814 0.0
S1134 S 0.2578 0.05388 0.97051 0.0
N1135 N 0.28066 0.03311 0.98501 0.0
N1136 N 0.24402 0.06974 1.00237 0.0
C1137 C 0.25779 0.05807 0.02667 0.0
C1138 C 0.27775 0.0386 1.01731 0.0
C1139 C 0.69219 0.67588 1.01945 0.0
C1140 C 0.71815 0.66602 1.01442 0.0
C1141 C 0.66699 0.65231 1.02081 0.0
C1142 C 0.66671 0.61805 1.01673 0.0
H1143 H 0.69131 0.70196 1.02236 0.0
H1144 H 0.64766 0.6609 0.0247 0.0
S1145 S 0.72968 0.57954 1.00719 0.0
N1146 N 0.74223 0.61956 1.00841 0.0
N1147 N 0.69539 0.57591 1.0105 0.0
C1148 C 0.69274 0.60812 1.01276 0.0
C1149 C 0.71825 0.63189 1.01165 0.0
C1150 C 0.75433 0.44531 0.30941 0.0
C1151 C 0.76056 0.47324 0.29289 0.0
C1152 C 0.76922 0.41781 0.30671 0.0
C1153 C 0.79193 0.41536 0.28722 0.0
H1154 H 0.73771 0.44471 0.3252 0.0
H1155 H 0.76299 0.39832 0.32076 0.0
S1156 S 0.81546 0.47883 0.23528 0.0
N1157 N 0.79069 0.49383 0.25382 0.0
N1158 N 0.8178 0.44408 0.24903 0.0
C1159 C 0.7979 0.44274 0.27005 0.0
C1160 C 0.78272 0.47064 0.27274 0.0
C1161 C 0.95902 0.50315 0.52117 0.0
C1162 C 0.93813 0.51358 0.50184 0.0
C1163 C 0.98783 0.51589 0.52091 0.0
C1164 C 0.99679 0.539 0.50084 0.0
H1165 H 0.95314 0.48605 0.53778 0.0
H1166 H 1.0032 0.50842 0.53739 0.0
S1167 S 0.95082 0.57246 0.44378 0.0
N1168 N 0.92818 0.54703 0.46082 0.0
N1169 N 0.98311 0.57082 0.4599 0.0
C1170 C 0.97636 0.54854 0.48012 0.0
C1171 C 0.94674 0.53592 0.48081 0.0
C1172 C 0.38476 0.10257 0.30771 0.0
C1173 C 0.41034 0.10391 0.29393 0.0
C1174 C 0.36322 0.11656 0.29459 0.0
C1175 C 0.36646 0.13199 0.26709 0.0
H1176 H 0.38188 0.09208 0.32971 0.0
H1177 H 0.34447 0.11687 0.30703 0.0
S1178 S 0.42743 0.13671 0.21876 0.0
N1179 N 0.43647 0.11784 0.24905 0.0
N1180 N 0.39567 0.14454 0.22424 0.0
C1181 C 0.39101 0.13123 0.25155 0.0
C1182 C 0.41314 0.11717 0.26513 0.0
C1183 C 0.38507 0.18193 0.51008 0.0
C1184 C 0.37406 0.20043 0.53482 0.0
C1185 C 0.40936 0.16907 0.51711 0.0
C1186 C 0.42293 0.17351 0.54925 0.0
H1187 H 0.37473 0.1772 0.48518 0.0
H1188 H 0.41691 0.15438 0.49744 0.0
S1189 S 0.40214 0.21994 0.62279 0.0
N1190 N 0.37866 0.2232 0.59259 0.0
N1191 N 0.42374 0.19786 0.606 0.0
C1192 C 0.41224 0.19222 0.5742 0.0
C1193 C 0.38794 0.20602 0.56691 0.0
C1194 C 0.79184 0.67559 0.32269 0.0
C1195 C 0.76402 0.66401 0.30543 0.0
C1196 C 0.80891 0.70782 0.32207 0.0
C1197 C 0.79955 0.73154 0.30463 0.0
H1198 H 0.80092 0.65929 0.33659 0.0
H1199 H 0.83023 0.71407 0.33527 0.0
S1200 S 0.72906 0.71443 0.25364 0.0
N1201 N 0.72849 0.68 0.26913 0.0
N1202 N 0.76007 0.73955 0.26847 0.0
C1203 C 0.77169 0.72056 0.28745 0.0
C1204 C 0.75428 0.68745 0.28776 0.0
C1205 C 0.92547 0.47076 0.82211 0.0
C1206 C 0.94023 0.47789 0.85372 0.0
C1207 C 0.89776 0.45247 0.81591 0.0
C1208 C 0.88465 0.43836 0.84051 0.0
H1209 H 0.93434 0.48186 0.80251 0.0
H1210 H 0.8866 0.44934 0.79154 0.0
S1211 S 0.91758 0.44376 0.92591 0.0
N1212 N 0.94184 0.46737 0.90917 0.0
N1213 N 0.89031 0.42885 0.89702 0.0
C1214 C 0.90026 0.44294 0.87184 0.0
C1215 C 0.92814 0.46332 0.87845 0.0
C1216 C 0.1121 0.93537 0.07237 0.0
C1217 C 0.13441 0.93982 0.09807 0.0
C1218 C 0.10459 0.96266 0.05978 0.0
C1219 C 0.11932 0.99567 0.07194 0.0
H1220 H 0.0996 0.91066 0.06264 0.0
H1221 H 0.08673 0.95779 0.04068 0.0
S1222 S 0.18127 1.02056 0.13724 0.0
N1223 N 0.17216 0.97973 0.13401 0.0
N1224 N 0.15875 1.03065 0.1101 0.0
C1225 C 0.14246 1.00025 0.09679 0.0
C1226 C 0.14978 0.97251 0.1099 0.0
C1227 C 0.95304 0.32823 0.86772 0.0
C1228 C 0.95181 0.31583 0.89721 0.0
C1229 C 0.92958 0.33792 0.85214 0.0
C1230 C 0.903 0.33528 0.86458 0.0
H1231 H 0.97269 0.33135 0.85674 0.0
H1232 H 0.93258 0.34766 0.82978 0.0
S1233 S 0.88772 0.30384 0.94101 0.0
N1234 N 0.9214 0.30148 0.93855 0.0
N1235 N 0.87698 0.31872 0.90852 0.0
C1236 C 0.90111 0.32239 0.89383 0.0
C1237 C 0.92547 0.31303 0.91027 0.0
C1238 C 0.63831 0.24145 0.57855 0.0
C1239 C 0.61984 0.25774 0.59575 0.0
C1240 C 0.63097 0.20687 0.56724 0.0
C1241 C 0.60462 0.18755 0.57202 0.0
H1242 H 0.65905 0.25517 0.5751 0.0
H1243 H 0.64626 0.19508 0.55515 0.0
S1244 S 0.54766 0.21904 0.61299 0.0
N1245 N 0.57335 0.2523 0.61527 0.0
N1246 N 0.55941 0.18789 0.59342 0.0
C1247 C 0.5854 0.20396 0.58764 0.0
C1248 C 0.59306 0.23888 0.59967 0.0
C1249 C 0.63435 0.81929 0.41649 0.0
C1250 C 0.6075 0.81394 0.3974 0.0
C1251 C 0.66007 0.82473 0.40252 0.0
C1252 C 0.66 0.82565 0.369 0.0
H1253 H 0.63555 0.81945 0.44253 0.0
H1254 H 0.68016 0.82906 0.41818 0.0
S1255 S 0.59595 0.81324 0.30822 0.0
N1256 N 0.58285 0.80966 0.34297 0.0
N1257 N 0.631 0.82047 0.31707 0.0
C1258 C 0.63343 0.82027 0.34969 0.0
C1259 C 0.60728 0.81424 0.36375 0.0
C1260 C 0.13412 0.28512 0.44392 0.0
C1261 C 0.13751 0.31899 0.45694 0.0
C1262 C 0.12378 0.26059 0.46193 0.0
C1263 C 0.11588 0.26932 0.49305 0.0
H1264 H 0.13999 0.27759 0.41996 0.0
H1265 H 0.12213 0.2347 0.45164 0.0
S1266 S 0.11837 0.35424 0.53671 0.0
N1267 N 0.13072 0.35991 0.50197 0.0
N1268 N 0.11085 0.31361 0.53555 0.0
C1269 C 0.11818 0.30295 0.50579 0.0
C1270 C 0.12917 0.3279 0.48779 0.0
C1271 C 0.62179 0.26942 0.21209 0.0
C1272 C 0.60197 0.2846 0.2279 0.0
C1273 C 0.65013 0.27541 0.22569 0.0
C1274 C 0.6596 0.29667 0.2556 0.0
H1275 H 0.6154 0.25236 0.18917 0.0
H1276 H 0.6646 0.2625 0.21321 0.0
S1277 S 0.61738 0.34526 0.30526 0.0
N1278 N 0.59433 0.32397 0.27391 0.0
N1279 N 0.6482 0.33471 0.29983 0.0
C1280 C 0.6405 0.3129 0.27134 0.0
C1281 C 0.61146 0.30701 0.25734 0.0
C1282 C 0.64443 1.01135 0.9542 0.0
C1283 C 0.65307 0.9844 0.96617 0.0
C1284 C 0.62661 1.02932 0.97068 0.0
C1285 C 0.61668 1.02055 0.99939 0.0
H1286 H 0.65058 1.0178 0.9313 0.0
H1287 H 0.62044 0.0499 0.96078 0.0
S1288 S 0.63315 0.95236 0.04114 0.0
N1289 N 0.65087 0.95072 1.00924 0.0
N1290 N 0.61692 0.9836 0.03938 0.0
C1291 C 0.62569 0.99421 1.01197 0.0
C1292 C 0.64413 0.97645 0.99567 0.0
C1293 C 0.94685 0.76576 0.75331 0.0
C1294 C 0.95158 0.77764 0.72407 0.0
C1295 C 0.92333 0.77113 0.76898 0.0
C1296 C 0.90478 0.78924 0.75596 0.0
H1297 H 0.962 0.75354 0.76474 0.0
H1298 H 0.92029 0.76233 0.7918 0.0
S1299 S 0.90792 0.82575 0.68051 0.0
N1300 N 0.93532 0.80744 0.68246 0.0
N1301 N 0.89206 0.81898 0.71293 0.0
C1302 C 0.90913 0.80101 0.72679 0.0
C1303 C 0.93246 0.79494 0.71056 0.0
C1304 C 0.14244 0.04068 0.89887 0.0
C1305 C 0.16698 0.0648 0.89539 0.0
C1306 C 0.12761 0.04189 0.92755 0.0
C1307 C 0.13527 0.06769 0.95558 0.0
H1308 H 0.13448 1.02003 0.87905 0.0
H1309 H 0.1094 1.02195 0.92749 0.0
S1310 S 0.19834 0.13741 0.96145 0.0
N1311 N 0.19838 0.11558 0.92502 0.0
N1312 N 0.17073 0.11809 0.97698 0.0
C1313 C 0.15976 0.09208 0.95256 0.0
C1314 C 0.17526 0.09058 0.92346 0.0
C1315 C 0.86827 0.45621 0.63509 0.0
C1316 C 0.88452 0.45961 0.60931 0.0
C1317 C 0.87791 0.44259 0.66151 0.0
C1318 C 0.90362 0.43117 0.66225 0.0
H1319 H 0.84753 0.4628 0.63414 0.0
H1320 H 0.86401 0.43848 0.68014 0.0
S1321 S 0.95446 0.43688 0.60115 0.0
N1322 N 0.92824 0.45325 0.58678 0.0
N1323 N 0.94581 0.42596 0.63596 0.0
C1324 C 0.92061 0.4359 0.63721 0.0
C1325 C 0.91114 0.45061 0.61077 0.0
C1326 C 0.51805 0.08963 0.44117 0.0
C1327 C 0.52791 0.10942 0.41841 0.0
C1328 C 0.537 0.08321 0.46542 0.0
C1329 C 0.56611 0.09791 0.46906 0.0
H1330 H 0.49594 0.07654 0.43854 0.0
H1331 H 0.52896 0.06534 0.48037 0.0
S1332 S 0.60253 0.15145 0.41544 0.0
N1333 N 0.56854 0.14263 0.39991 0.0
N1334 N 0.60416 0.13303 0.44777 0.0
C1335 C 0.57619 0.11864 0.4471 0.0
C1336 C 0.557 0.12399 0.42136 0.0
C1337 C 0.80353 0.80846 0.13196 0.0
C1338 C 0.80599 0.7757 0.11999 0.0
C1339 C 0.80863 0.82142 0.16577 0.0
C1340 C 0.81683 0.80222 0.18863 0.0
H1341 H 0.79778 0.82424 0.11514 0.0
H1342 H 0.80681 0.84679 0.17398 0.0
S1343 S 0.82539 0.71501 0.17076 0.0
N1344 N 0.81634 0.72422 0.13469 0.0
N1345 N 0.82635 0.7489 0.19731 0.0
C1346 C 0.81911 0.76956 0.17709 0.0
C1347 C 0.81358 0.75622 0.14306 0.0
C1348 C 0.17561 0.05395 0.67445 0.0
C1349 C 0.16396 0.05964 0.70448 0.0
C1350 C 0.16106 0.05603 0.64313 0.0
C1351 C 0.13393 0.0649 0.63917 0.0
H1352 H 0.19643 0.04769 0.675 0.0
H1353 H 0.17168 0.05132 0.62172 0.0
S1354 S 0.09267 0.08153 0.70874 0.0
N1355 N 0.12208 0.07349 0.72656 0.0
N1356 N 0.09606 0.07858 0.66949 0.0
C1357 C 0.12208 0.07064 0.66893 0.0
C1358 C 0.13654 0.06773 0.70067 0.0
C1359 C 0.8468 0.4221 0.40732 0.0
C1360 C 0.84612 0.41067 0.43728 0.0
C1361 C 0.85073 0.40164 0.37927 0.0
C1362 C 0.85376 0.36878 0.37999 0.0
H1363 H 0.84424 0.44708 0.40541 0.0
H1364 H 0.85027 0.41136 0.3566 0.0
S1365 S 0.85717 0.32817 0.45298 0.0
N1366 N 0.85157 0.3654 0.46667 0.0
N1367 N 0.85856 0.32668 0.41348 0.0
C1368 C 0.85449 0.35747 0.40999 0.0
C1369 C 0.85062 0.37842 0.43872 0.0
C1370 C 0.4831 0.99937 0.23219 0.0
C1371 C 0.49991 1.0273 0.25358 0.0
C1372 C 0.48921 0.99124 0.20016 0.0
C1373 C 0.51238 1.01063 0.18915 0.0
H1374 H 0.46456 0.98456 0.23978 0.0
H1375 H 0.4753 0.97065 0.18367 0.0
S1376 S 0.56209 0.08662 0.23502 0.0
N1377 N 0.54046 0.07416 0.26111 0.0
N1378 N 0.55165 0.05903 0.20138 0.0
C1379 C 0.52965 0.03795 0.2106 0.0
C1380 C 0.52351 0.04621 0.24279 0.0
C1381 C 0.82208 0.80266 0.93291 0.0
C1382 C 0.80946 0.76898 0.93133 0.0
C1383 C 0.83122 0.81507 0.90531 0.0
C1384 C 0.8279 0.79476 0.8743 0.0
H1385 H 0.82577 0.81959 0.95595 0.0
H1386 H 0.84131 0.84119 0.90862 0.0
S1387 S 0.79402 0.70496 0.85613 0.0
N1388 N 0.79302 0.71538 0.89567 0.0
N1389 N 0.80918 0.73931 0.84369 0.0
C1390 C 0.81419 0.76127 0.87198 0.0
C1391 C 0.80533 0.74828 0.90044 0.0
C1392 C 0.8847 0.12053 1.00446 0.0
C1393 C 0.87911 0.12859 0.03672 0.0
C1394 C 0.90822 0.10679 0.99768 0.0
C1395 C 0.92707 0.1011 1.02298 0.0
H1396 H 0.87059 0.12446 0.98431 0.0
H1397 H 0.91176 0.10074 0.97247 0.0
S1398 S 0.92296 0.12106 0.11186 0.0
N1399 N 0.89501 0.13224 0.09429 0.0
N1400 N 0.93917 0.106 0.08175 0.0
C1401 C 0.92207 0.11 0.05548 0.0
C1402 C 0.89803 0.1238 0.0623 0.0
C1403 C 0.48492 0.47822 0.05344 0.0
C1404 C 0.46417 0.48756 0.07274 0.0
C1405 C 0.51073 0.50084 0.05155 0.0
C1406 C 0.51688 0.53361 0.06909 0.0
H1407 H 0.48077 0.45363 0.03879 0.0
H1408 H 0.52546 0.49291 0.03556 0.0
S1409 S 0.47107 0.56929 0.12576 0.0
N1410 N 0.45281 0.53125 0.11129 0.0
N1411 N 0.50066 0.57301 0.10839 0.0
C1412 C 0.49679 0.54251 0.08952 0.0
C1413 C 0.47068 0.51977 0.09117 0.0
C1414 C 0.43485 0.71858 0.79889 0.0
C1415 C 0.42127 0.68465 0.78596 0.0
C1416 C 0.4202 0.74629 0.80087 0.0
C1417 C 0.39035 0.74274 0.79074 0.0
H1418 H 0.45745 0.7241 0.80755 0.0
H1419 H 0.43265 0.77093 0.81085 0.0
S1420 S 0.34379 0.66015 0.75386 0.0
N1421 N 0.37521 0.65072 0.76184 0.0
N1422 N 0.34844 0.70065 0.76609 0.0
C1423 C 0.37665 0.70895 0.77772 0.0
C1424 C 0.39163 0.68097 0.77523 0.0
C1425 C 0.21551 0.67366 0.55775 0.0
C1426 C 0.23156 0.64902 0.56114 0.0
C1427 C 0.1858 0.66542 0.5505 0.0
C1428 C 0.17125 0.63235 0.5466 0.0
H1429 H 0.22597 0.69959 0.56016 0.0
H1430 H 0.17418 0.68495 0.54801 0.0
S1431 S 0.20264 0.55842 0.55236 0.0
N1432 N 0.23035 0.59009 0.5596 0.0
N1433 N 0.17433 0.57469 0.54626 0.0
C1434 C 0.18676 0.60746 0.55001 0.0
C1435 C 0.21703 0.61578 0.55725 0.0
C1436 C 0.75335 1.01634 0.80785 0.0
C1437 C 0.76399 0.03937 0.78826 0.0
C1438 C 0.77179 1.00036 0.82429 0.0
C1439 C 0.80124 1.00786 0.82215 0.0
H1440 H 0.73064 1.0095 0.80917 0.0
H1441 H 0.76285 0.98047 0.83681 0.0
S1442 S 0.83976 0.06898 0.77712 0.0
N1443 N 0.8059 0.07096 0.76991 0.0
N1444 N 0.84042 0.04113 0.8013 0.0
C1445 C 0.81224 0.03262 0.80473 0.0
C1446 C 0.79357 0.04826 0.78746 0.0
C1447 C 0.80348 0.99632 0.56895 0.0
C1448 C 0.80303 0.96367 0.55363 0.0
C1449 C 0.77888 1.00968 0.56725 0.0
C1450 C 0.75293 0.99111 0.54988 0.0
H1451 H 0.82295 1.01168 0.58266 0.0
H1452 H 0.78019 0.03487 0.57953 0.0
S1453 S 0.73998 0.90482 0.50492 0.0
N1454 N 0.77402 0.91311 0.52023 0.0
N1455 N 0.72799 0.93874 0.51673 0.0
C1456 C 0.75206 0.95867 0.53407 0.0
C1457 C 0.77705 0.94482 0.53606 0.0
C1458 C 0.41114 0.46748 0.75663 0.0
C1459 C 0.41423 0.49604 0.78137 0.0
C1460 C 0.39423 0.43517 0.75862 0.0
C1461 C 0.37951 0.42876 0.7858 0.0
H1462 H 0.42133 0.47024 0.73488 0.0
H1463 H 0.3919 0.41531 0.73801 0.0
S1464 S 0.38232 0.49296 0.85904 0.0
N1465 N 0.4019 0.51359 0.83524 0.0
N1466 N 0.37105 0.45464 0.8388 0.0
C1467 C 0.38321 0.45682 0.81095 0.0
C1468 C 0.40019 0.48954 0.80889 0.0
C1469 C 0.26519 0.70082 0.2402 0.0
C1470 C 0.26158 0.67919 0.26271 0.0
C1471 C 0.27911 0.73386 0.25057 0.0
C1472 C 0.28875 0.74628 0.28382 0.0
H1473 H 0.25767 0.69205 0.21454 0.0
H1474 H 0.28234 0.74974 0.23235 0.0
S1475 S 0.2814 0.69965 0.3525 0.0
N1476 N 0.26682 0.67216 0.31968 0.0
N1477 N 0.29245 0.73485 0.33927 0.0
C1478 C 0.28419 0.72508 0.30669 0.0
C1479 C 0.27066 0.69127 0.29606 0.0
C1480 C 0.56728 0.72993 0.5141 0.0
C1481 C 0.5453 0.72417 0.4877 0.0
C1482 C 0.57629 0.70346 0.52686 0.0
C1483 C 0.56321 0.67 0.51442 0.0
H1484 H 0.57823 0.75514 0.52446 0.0
H1485 H 0.59365 0.7093 0.54665 0.0
S1486 S 0.50434 0.64121 0.44584 0.0
N1487 N 0.51077 0.68215 0.4497 0.0
N1488 N 0.5268 0.63281 0.47421 0.0
C1489 C 0.5408 0.66396 0.48852 0.0
C1490 C 0.53211 0.69085 0.47505 0.0
C1491 C 0.73713 0.34675 0.70274 0.0
C1492 C 0.71852 0.36889 0.70796 0.0
C1493 C 0.76069 0.34743 0.72603 0.0
C1494 C 0.76702 0.37064 0.75535 0.0
H1495 H 0.73305 0.32811 0.68086 0.0
H1496 H 0.77386 0.32935 0.72116 0.0
S1497 S 0.72557 0.43485 0.78043 0.0
N1498 N 0.70854 0.41505 0.7447 0.0
N1499 N 0.75271 0.41692 0.78768 0.0
C1500 C 0.74893 0.39341 0.76043 0.0
C1501 C 0.72478 0.39236 0.73703 0.0
C1502 C 0.0601 0.41727 0.02678 0.0
C1503 C 0.04773 0.40754 0.99398 0.0
C1504 C 0.06707 0.45106 0.04143 0.0
C1505 C 0.06102 0.47577 0.02391 0.0
H1506 H 0.06524 0.39884 0.04083 0.0
H1507 H 0.07721 0.45789 0.06644 0.0
S1508 S 0.02747 0.46331 0.93835 0.0
N1509 N 0.02911 0.42553 0.945 0.0
N1510 N 0.04134 0.48847 0.97288 0.0
C1511 C 0.04787 0.46626 0.99164 0.0
C1512 C 0.04142 0.43224 0.97656 0.0
C1513 C 0.04135 0.85486 0.17535 0.0
C1514 C 0.06477 0.84173 0.18582 0.0
C1515 C 1.01503 0.84666 0.18735 0.0
C1516 C 1.01103 0.82451 0.20977 0.0
H1517 H 0.04351 0.87212 0.15826 0.0
H1518 H 0.99774 0.85789 0.17918 0.0
S1519 S 0.06473 0.78007 0.24151 0.0
N1520 N 0.08156 0.80322 0.21751 0.0
N1521 N 0.03233 0.78787 0.24016 0.0
C1522 C 0.03395 0.81001 0.21918 0.0
C1523 C 0.06077 0.81864 0.20723 0.0
C1524 C 0.57003 0.36471 0.13972 0.0
C1525 C 0.54729 0.33824 0.12541 0.0
C1526 C 0.58369 0.38647 0.12088 0.0
C1527 C 0.57513 0.38211 0.08724 0.0
H1528 H 0.57736 0.36867 0.16559 0.0
H1529 H 0.60057 0.40721 0.13271 0.0
S1530 S 0.51647 0.31764 0.03826 0.0
N1531 N 0.51667 0.30933 0.07569 0.0
N1532 N 0.54255 0.35043 0.04037 0.0
C1533 C 0.55275 0.35569 0.07259 0.0
C1534 C 0.5387 0.33371 0.0917 0.0
C1535 C 0.07764 0.40799 0.3285 0.0
C1536 C 0.08376 0.38194 0.34387 0.0
C1537 C 0.05087 0.40512 0.31109 0.0
C1538 C 0.02974 0.37601 0.30839 0.0
H1539 H 0.09296 0.43139 0.3315 0.0
H1540 H 0.04606 0.42666 0.3018 0.0
S1541 S 0.03752 0.29834 0.33837 0.0
N1542 N 0.06831 0.32452 0.35141 0.0
N1543 N 1.01806 0.31889 0.31779 0.0
C1544 C 0.03664 0.34866 0.32089 0.0
C1545 C 0.06368 0.35172 0.33899 0.0
C1546 C 0.04997 0.67664 0.62143 0.0
C1547 C 0.02666 0.69162 0.61547 0.0
C1548 C 0.0621 0.66168 0.59577 0.0
C1549 C 0.05032 0.65939 0.56338 0.0
H1550 H 0.06006 0.67811 0.64604 0.0
H1551 H 0.08115 0.65239 0.60139 0.0
S1552 S 0.9912 0.69732 0.5342 0.0
N1553 N 0.99373 0.7057 0.57436 0.0
N1554 N 1.01566 0.6755 0.52614 0.0
C1555 C 0.02709 0.67425 0.55684 0.0
C1556 C 1.01524 0.69052 0.58293 0.0
C1557 C 0.7427 0.89309 0.849 0.0
C1558 C 0.71664 0.87153 0.84986 0.0
C1559 C 0.76313 0.88257 0.83094 0.0
C1560 C 0.75825 0.85012 0.81291 0.0
H1561 H 0.74775 0.91801 0.86309 0.0
H1562 H 0.78336 0.89976 0.83244 0.0
S1563 S 0.69201 0.78498 0.80491 0.0
N1564 N 0.68593 0.81696 0.82962 0.0
N1565 N 0.72442 0.7972 0.79532 0.0
C1566 C 0.73164 0.82876 0.81234 0.0
C1567 C 0.71082 0.83946 0.83093 0.0
C1568 C 0.53586 0.62292 0.68365 0.0
C1569 C 0.51635 0.59464 0.68982 0.0
C1570 C 0.55054 0.62323 0.65487 0.0
C1571 C 0.54784 0.59509 0.62958 0.0
H1572 H 0.53967 0.6457 0.70123 0.0
H1573 H 0.56457 0.64629 0.65262 0.0
S1574 S 0.50097 0.51325 0.63293 0.0
N1575 N 0.49613 0.5368 0.66659 0.0
N1576 N 0.52375 0.53714 0.61465 0.0
C1577 C 0.5288 0.56641 0.63565 0.0
C1578 C 0.51332 0.56627 0.66471 0.0
C1579 C 0.79616 0.23966 0.96996 0.0
C1580 C 0.77893 0.21577 0.98385 0.0
C1581 C 0.78398 0.26041 0.95247 0.0
C1582 C 0.75432 0.25826 0.94895 0.0
H1583 H 0.8192 0.24284 0.97326 0.0
H1584 H 0.79792 0.27897 0.94229 0.0
S1585 S 0.70014 0.20031 0.98143 0.0
N1586 N 0.73082 0.19065 0.993 0.0
N1587 N 0.70797 0.23093 0.9605 0.0
C1588 C 0.73672 0.23425 0.96224 0.0
C1589 C 0.74909 0.21256 0.97964 0.0
C1590 C 0.16072 0.58434 0.15843 0.0
C1591 C 0.15772 0.55627 0.1738 0.0
C1592 C 0.13791 0.59018 0.13909 0.0
C1593 C 0.11169 0.56731 0.13278 0.0
H1594 H 0.18027 0.60326 0.16301 0.0
H1595 H 0.14104 0.61282 0.12871 0.0
S1596 S 0.09343 0.48881 0.1653 0.0
N1597 N 0.12682 0.50511 0.18141 0.0
N1598 N 0.08399 0.51485 0.14218 0.0
C1599 C 0.10848 0.5385 0.14695 0.0
C1600 C 0.13163 0.53312 0.16791 0.0
C1601 C 0.85071 0.85181 0.45273 0.0
C1602 C 0.87074 0.88158 0.46522 0.0
C1603 C 0.84491 0.83978 0.41892 0.0
C1604 C 0.85964 0.85649 0.39661 0.0
H1605 H 0.83865 0.83844 0.46906 0.0
H1606 H 0.82871 0.81737 0.41016 0.0
S1607 S 0.91479 0.93459 0.41668 0.0
N1608 N 0.9055 0.92714 0.45237 0.0
N1609 N 0.89544 0.90371 0.38927 0.0
C1610 C 0.88033 0.88557 0.40883 0.0
C1611 C 0.88566 0.89832 0.44303 0.0
C1612 C 0.54054 0.61653 0.89478 0.0
C1613 C 0.51788 0.59131 0.87652 0.0
C1614 C 0.55447 0.61387 0.9262 0.0
C1615 C 0.54747 0.58536 0.94146 0.0
H1616 H 0.54745 0.63898 0.88492 0.0
H1617 H 0.57135 0.63437 0.93846 0.0
S1618 S 0.48969 0.51198 0.90533 0.0
N1619 N 0.4891 0.53683 0.87802 0.0
N1620 N 0.51545 0.53145 0.93469 0.0
C1621 C 0.52511 0.55996 0.92331 0.0
C1622 C 0.51045 0.56302 0.89189 0.0
C1623 C 0.82518 0.27603 0.1377 0.0
C1624 C 0.8311 0.24427 0.13852 0.0
C1625 C 0.82602 0.29841 0.1666 0.0
C1626 C 0.83237 0.28949 0.19715 0.0
H1627 H 0.81949 0.28351 0.11464 0.0
H1628 H 0.8216 0.32273 0.16503 0.0
S1629 S 0.85046 0.20946 0.21207 0.0
N1630 N 0.84477 0.20564 0.17211 0.0
N1631 N 0.84506 0.24659 0.22617 0.0
C1632 C 0.8383 0.2577 0.19809 0.0
C1633 C 0.83808 0.2354 0.16882 0.0
C1634 C 0.18899 0.67622 0.33647 0.0
C1635 C 0.17106 0.65211 0.31219 0.0
C1636 C 0.17749 0.6971 0.35847 0.0
C1637 C 0.14772 0.69207 0.35841 0.0
H1638 H 0.2118 0.67757 0.33981 0.0
H1639 H 0.19162 0.71265 0.379 0.0
S1640 S 0.09316 0.6427 0.29124 0.0
N1641 N 0.12345 0.63278 0.28239 0.0
N1642 N 0.10158 0.67058 0.32497 0.0
C1643 C 0.13033 0.67341 0.33011 0.0
C1644 C 0.14206 0.65285 0.30713 0.0
C1645 C 0.84776 0.84485 0.64204 0.0
C1646 C 0.85782 0.87953 0.64639 0.0
C1647 C 0.83686 0.82913 0.66729 0.0
C1648 C 0.83592 0.84702 0.69857 0.0
H1649 H 0.84799 0.82958 0.61874 0.0
H1650 H 0.82946 0.80236 0.66227 0.0
S1651 S 0.85706 0.93876 0.72206 0.0
N1652 N 0.86426 0.93165 0.68411 0.0
N1653 N 0.84435 0.9019 0.73127 0.0
C1654 C 0.84558 0.88172 0.70314 0.0
C1655 C 0.85633 0.89795 0.67722 0.0
C1656 C 0.76916 0.51396 0.55543 0.0
C1657 C 0.79549 0.53162 0.54893 0.0
C1658 C 0.74902 0.53071 0.56803 0.0
C1659 C 0.75473 0.56559 0.57488 0.0
H1660 H 0.7638 0.48702 0.55022 0.0
H1661 H 0.72848 0.5164 0.57145 0.0
S1662 S 0.82056 0.62342 0.56389 0.0
N1663 N 0.82646 0.58602 0.55154 0.0
N1664 N 0.78836 0.61731 0.57549 0.0
C1665 C 0.78121 0.58353 0.56976 0.0
C1666 C 0.80167 0.56657 0.55663 0.0
C1667 C 0.19134 0.17318 0.50609 0.0
C1668 C 0.21763 0.16741 0.51937 0.0
C1669 C 0.16534 0.15069 0.50665 0.0
C1670 C 0.16474 0.12227 0.52131 0.0
H1671 H 0.19095 0.19455 0.49421 0.0
H1672 H 0.14579 0.15493 0.49457 0.0
S1673 S 0.22706 0.09717 0.56188 0.0
N1674 N 0.2409 0.13176 0.54903 0.0
N1675 N 0.19233 0.09035 0.55055 0.0
C1676 C 0.19069 0.11689 0.53552 0.0
C1677 C 0.21703 0.13929 0.53456 0.0
C1678 C 0.24919 0.93988 0.77851 0.0
C1679 C 0.26012 0.9721 0.79805 0.0
C1680 C 0.2642 0.91243 0.77655 0.0
C1681 C 0.29193 0.91445 0.79357 0.0
H1682 H 0.22847 0.93558 0.76419 0.0
H1683 H 0.25385 0.88924 0.76089 0.0
S1684 S 0.33043 0.99138 0.85074 0.0
N1685 N 0.30101 1.00222 0.83658 0.0
N1686 N 0.32841 0.95276 0.8326 0.0
C1687 C 0.3029 0.94638 0.81347 0.0
C1688 C 0.28751 0.97412 0.81575 0.0
C1689 C 0.45135 1.0034 0.97567 0.0
C1690 C 0.43497 1.02014 0.9959 0.0
C1691 C 0.4808 1.01557 0.97707 0.0
C1692 C 0.49439 0.04404 0.99948 0.0
H1693 H 0.44148 0.98041 0.95937 0.0
H1694 H 0.4931 1.00194 0.96179 0.0
S1695 S 0.46099 0.09613 0.058 0.0
N1696 N 0.43437 0.06663 0.03839 0.0
N1697 N 0.48959 0.08871 0.04193 0.0
C1698 C 0.47809 0.0611 1.01936 0.0
C1699 C 0.44831 0.04934 1.01733 0.0
C1700 C 0.88653 0.59416 0.79446 0.0
C1701 C 0.9156 0.60936 0.79626 0.0
C1702 C 0.86521 0.60786 0.78006 0.0
C1703 C 0.87238 0.63712 0.7671 0.0
H1704 H 0.88009 0.57216 0.80522 0.0
H1705 H 0.84304 0.59684 0.78107 0.0
S1706 S 0.94509 0.68309 0.76058 0.0
N1707 N 0.95038 0.6527 0.78007 0.0
N1708 N 0.91012 0.67867 0.75321 0.0
C1709 C 0.90128 0.6511 0.76648 0.0
C1710 C 0.92297 0.63718 0.78109 0.0
C1711 C 0.89894 0.71531 0.02973 0.0
C1712 C 0.87303 0.70187 0.04044 0.0
C1713 C 0.92361 0.70307 0.03695 0.0
C1714 C 0.92331 0.67756 0.05574 0.0
H1715 H 0.89987 0.73446 1.01466 0.0
H1716 H 0.94291 0.7131 0.0272 0.0
S1717 S 0.86155 0.63746 0.09321 0.0
N1718 N 0.84911 0.66415 0.07326 0.0
N1719 N 0.89531 0.64125 0.08698 0.0
C1720 C 0.89788 0.66542 0.06818 0.0
C1721 C 0.87276 0.67753 0.06045 0.0
C1722 C 0.2544 0.19022 0.79923 0.0
C1723 C 0.26598 0.16208 0.80497 0.0
C1724 C 0.27185 0.22261 0.79844 0.0
C1725 C 0.30221 0.2292 0.80338 0.0
H1726 H 0.23143 0.18718 0.79493 0.0
H1727 H 0.26136 0.24241 0.79336 0.0
S1728 S 0.34387 0.1651 0.82057 0.0
N1729 N 0.31042 0.14462 0.81638 0.0
N1730 N 0.34239 0.20327 0.81529 0.0
C1731 C 0.31376 0.20123 0.80965 0.0
C1732 C 0.29612 0.16865 0.81034 0.0
C1733 C 0.41849 0.97841 0.38481 0.0
C1734 C 0.44182 0.98098 0.36682 0.0
C1735 C 0.39311 0.95546 0.3728 0.0
C1736 C 0.39046 0.9347 0.34247 0.0
H1737 H 0.41885 0.99654 0.40643 0.0
H1738 H 0.37505 0.95515 0.3865 0.0
S1739 S 0.44801 0.92608 0.29055 0.0
N1740 N 0.4629 0.95613 0.32114 0.0
N1741 N 0.41487 0.91383 0.29786 0.0
C1742 C 0.41474 0.93442 0.32629 0.0
C1743 C 0.44076 0.95703 0.33902 0.0
C1744 C 0.64588 0.47186 0.6094 0.0
C1745 C 0.63305 0.43867 0.59541 0.0
C1746 C 0.63861 0.49901 0.59633 0.0
C1747 C 0.61753 0.49426 0.56924 0.0
H1748 H 0.66152 0.47696 0.6309 0.0
H1749 H 0.64889 0.52398 0.60831 0.0
S1750 S 0.57787 0.41252 0.52292 0.0
N1751 N 0.59885 0.40284 0.55196 0.0
N1752 N 0.58458 0.45357 0.5283 0.0
C1753 C 0.6048 0.46124 0.55477 0.0
C1754 C 0.61271 0.4336 0.56758 0.0
C1755 C 0.42484 0.8036 0.40678 0.0
C1756 C 0.45126 0.81245 0.3946 0.0
C1757 C 0.39877 0.80765 0.39038 0.0
C1758 C 0.39805 0.82151 0.36154 0.0
H1759 H 0.42416 0.79268 0.42873 0.0
H1760 H 0.379 0.79919 0.39997 0.0
S1761 S 0.46125 0.8516 0.321 0.0
N1762 N 0.47467 0.83734 0.35248 0.0
N1763 N 0.42658 0.84584 0.32291 0.0
C1764 C 0.42444 0.83162 0.35002 0.0
C1765 C 0.45071 0.82693 0.36617 0.0
C1766 C 0.13963 0.74284 0.07939 0.0
C1767 C 0.12263 0.75766 0.10032 0.0
C1768 C 0.13307 0.70824 0.06774 0.0
C1769 C 0.10882 0.68758 0.07585 0.0
H1770 H 0.15862 0.75784 0.07289 0.0
H1771 H 0.14705 0.69758 0.05238 0.0
S1772 S 0.05674 0.7142 0.12861 0.0
N1773 N 0.08011 0.74878 0.12792 0.0
N1774 N 0.06755 0.68454 0.10541 0.0
C1775 C 0.09122 0.7023 0.09582 0.0
C1776 C 0.09817 0.73713 0.1082 0.0
C1777 C 0.13355 0.31128 0.91408 0.0
C1778 C 0.1093 0.32149 0.90085 0.0
C1779 C 0.1593 0.31626 0.90009 0.0
C1780 C 0.16206 0.33254 0.87293 0.0
H1781 H 0.13249 0.29892 0.93514 0.0
H1782 H 0.17729 0.30769 0.91086 0.0
S1783 S 0.10553 0.36603 0.83053 0.0
N1784 N 0.09011 0.34953 0.8597 0.0
N1785 N 0.1384 0.35964 0.83403 0.0
C1786 C 0.13814 0.3435 0.86002 0.0
C1787 C 0.11182 0.33778 0.87379 0.0
C1788 C 0.6526 0.80886 0.97102 0.0
C1789 C 0.63284 0.82683 0.95991 0.0
C1790 C 0.64428 0.78321 0.98852 0.0
C1791 C 0.61617 0.77531 0.99586 0.0
H1792 H 0.67452 0.81441 0.96591 0.0
H1793 H 0.65997 0.76973 0.99672 0.0
S1794 S 0.55623 0.81409 0.97178 0.0
N1795 N 0.58373 0.83431 0.95683 0.0
N1796 N 0.56842 0.78628 0.99033 0.0
C1797 C 0.59618 0.7928 0.98481 0.0
C1798 C 0.60447 0.81857 0.96662 0.0
C1799 C 0.12431 0.81409 0.722 0.0
C1800 C 0.10204 0.79923 0.73797 0.0
C1801 C 0.15262 0.81702 0.73459 0.0
C1802 C 0.15924 0.80515 0.76341 0.0
H1803 H 0.11988 0.82112 0.69838 0.0
H1804 H 0.16928 0.82554 0.72016 0.0
S1805 S 0.10888 0.77094 0.8176 0.0
N1806 N 0.08829 0.77784 0.78652 0.0
N1807 N 0.14209 0.78321 0.81028 0.0
C1808 C 0.13738 0.79424 0.78165 0.0
C1809 C 0.10843 0.79127 0.76883 0.0
C1810 C 0.12704 0.46604 0.47958 0.0
C1811 C 0.14694 0.47643 0.45864 0.0
C1812 C 0.11221 0.4881 0.49511 0.0
C1813 C 0.11687 0.52114 0.49021 0.0
H1814 H 0.12247 0.44049 0.48359 0.0
H1815 H 0.09752 0.47949 0.5117 0.0
S1816 S 0.16857 0.56149 0.44048 0.0
N1817 N 0.17142 0.52213 0.43483 0.0
N1818 N 0.14408 0.56422 0.46537 0.0
C1819 C 0.13701 0.53214 0.46991 0.0
C1820 C 0.15192 0.50953 0.45367 0.0
C1821 C 0.43778 0.25004 0.24521 0.0
C1822 C 0.45657 0.27574 0.23513 0.0
C1823 C 0.41634 0.25729 0.26377 0.0
C1824 C 0.41402 0.29042 0.27336 0.0
H1825 H 0.43872 0.2243 0.23729 0.0
H1826 H 0.40087 0.23695 0.26945 0.0
S1827 S 0.46077 0.36645 0.25514 0.0
N1828 N 0.47329 0.33509 0.23748 0.0
N1829 N 0.43388 0.34924 0.27285 0.0
C1830 C 0.43423 0.31635 0.26504 0.0
C1831 C 0.45534 0.30884 0.24569 0.0
C1832 C 0.6662 0.59601 0.4151 0.0
C1833 C 0.6673 0.56594 0.3938 0.0
C1834 C 0.65135 0.59711 0.44409 0.0
C1835 C 0.63654 0.56815 0.45492 0.0
H1836 H 0.67667 0.61943 0.40908 0.0
H1837 H 0.65147 0.62122 0.45808 0.0
S1838 S 0.63445 0.48238 0.41094 0.0
N1839 N 0.65251 0.50616 0.38831 0.0
N1840 N 0.62634 0.50789 0.44112 0.0
C1841 C 0.63825 0.53805 0.43425 0.0
C1842 C 0.65289 0.53702 0.40465 0.0
C1843 C 0.40299 0.97942 0.12969 0.0
C1844 C 0.39771 0.95678 0.1002 0.0
C1845 C 0.41187 0.96957 0.15892 0.0
C1846 C 0.41596 0.93701 0.15919 0.0
H1847 H 0.39812 1.00387 0.13059 0.0
H1848 H 0.41325 0.98649 0.18166 0.0
S1849 S 0.41064 0.87116 0.08701 0.0
N1850 N 0.40171 0.90277 0.07201 0.0
N1851 N 0.41808 0.884 0.12672 0.0
C1852 C 0.41392 0.91565 0.12923 0.0
C1853 C 0.40472 0.92559 0.09971 0.0
C1854 C 1.02064 0.58805 0.94194 0.0
C1855 C 0.03147 0.60305 0.91638 0.0
C1856 C 0.03893 0.58286 0.96754 0.0
C1857 C 0.06849 0.59407 0.96954 0.0
H1858 H 0.998 0.57795 0.94107 0.0
H1859 H 0.02986 0.56884 0.98515 0.0
S1860 S 0.10752 0.63399 0.90843 0.0
N1861 N 0.07349 0.62777 0.8937 0.0
N1862 N 0.10806 0.62019 0.94351 0.0
C1863 C 0.07966 0.60975 0.94456 0.0
C1864 C 0.06103 0.61391 0.91767 0.0
C1865 C 0.31862 0.2595 0.64157 0.0
C1866 C 0.30702 0.277 0.61906 0.0
C1867 C 0.32461 0.2725 0.67498 0.0
C1868 C 0.31875 0.30333 0.68771 0.0
H1869 H 0.3235 0.23551 0.63334 0.0
H1870 H 0.33364 0.25799 0.6911 0.0
S1871 S 0.28955 0.3601 0.63972 0.0
N1872 N 0.29097 0.32778 0.61211 0.0
N1873 N 0.30143 0.3517 0.67531 0.0
C1874 C 0.30715 0.32127 0.66576 0.0
C1875 C 0.30155 0.30829 0.63138 0.0
C1876 C 0.67803 0.56766 0.17615 0.0
C1877 C 0.66324 0.5588 0.20267 0.0
C1878 C 0.66389 0.57051 0.14499 0.0
C1879 C 0.63369 0.56471 0.13754 0.0
H1880 H 0.70115 0.57287 0.17954 0.0
H1881 H 0.677 0.57767 0.12647 0.0
S1882 S 0.58374 0.53927 0.19655 0.0
N1883 N 0.61547 0.5433 0.21751 0.0
N1884 N 0.58961 0.54848 0.1603 0.0
C1885 C 0.61858 0.55546 0.16357 0.0
C1886 C 0.63296 0.55259 0.19536 0.0
C1887 C 0.35172 0.91506 0.91085 0.0
C1888 C 0.33644 0.90522 0.93605 0.0
C1889 C 0.35457 0.8919 0.88444 0.0
C1890 C 0.34188 0.85813 0.88197 0.0
H1891 H 0.362 0.94084 0.91169 0.0
H1892 H 0.36608 0.90071 0.86525 0.0
S1893 S 0.29957 0.81976 0.94152 0.0
N1894 N 0.30892 0.85967 0.95749 0.0
N1895 N 0.31358 0.81574 0.90692 0.0
C1896 C 0.32691 0.84774 0.90722 0.0
C1897 C 0.32426 0.87146 0.93445 0.0
C1898 C 0.96706 0.50922 0.7217 0.0
C1899 C 0.98963 0.51811 0.74742 0.0
C1900 C 0.97232 0.50006 0.68967 0.0
C1901 C 1.00014 0.49892 0.68273 0.0
H1902 H 0.94574 0.51217 0.72585 0.0
H1903 H 0.95526 0.49749 0.67003 0.0
S1904 S 0.06498 0.51241 0.74297 0.0
N1905 N 0.03943 0.51953 0.76499 0.0
N1906 N 0.04949 0.50196 0.70492 0.0
C1907 C 1.022 0.50336 0.70892 0.0
C1908 C 1.01672 0.51325 0.74134 0.0
C1909 C 0.30442 0.25379 0.40246 0.0
C1910 C 0.31158 0.27236 0.43446 0.0
C1911 C 0.31275 0.26754 0.37479 0.0
C1912 C 0.32904 0.30019 0.37815 0.0
H1913 H 0.29223 0.22846 0.39876 0.0
H1914 H 0.30663 0.25246 0.35078 0.0
S1915 S 0.35447 0.35858 0.45679 0.0
N1916 N 0.33645 0.32477 0.46749 0.0
N1917 N 0.35235 0.35028 0.41673 0.0
C1918 C 0.33646 0.31868 0.41017 0.0
C1919 C 0.3277 0.30491 0.43793 0.0
C1920 C 0.41146 0.64481 0.54968 0.0
C1921 C 0.38283 0.62968 0.53802 0.0
C1922 C 0.43373 0.63002 0.54001 0.0
C1923 C 0.42817 0.59974 0.5181 0.0
H1924 H 0.41672 0.66814 0.56663 0.0
H1925 H 0.45548 0.64231 0.54983 0.0
S1926 S 0.35714 0.55097 0.47916 0.0
N1927 N 0.35019 0.58342 0.50242 0.0
N1928 N 0.3922 0.55556 0.48435 0.0
C1929 C 0.39974 0.58474 0.50567 0.0
C1930 C 0.37702 0.59967 0.5157 0.0
C1931 C 0.9841 0.97559 0.55793 0.0
C1932 C 0.96081 0.98666 0.57105 0.0
C1933 C 1.01007 0.9981 0.55607 0.0
C1934 C 1.01385 0.03254 0.56759 0.0
H1935 H 0.98203 0.94947 0.54833 0.0
H1936 H 0.02706 0.98853 0.54532 0.0
S1937 S 0.95964 0.07412 0.60477 0.0
N1938 N 0.94388 0.03447 0.59608 0.0
N1939 N 0.99156 0.07604 0.593 0.0
C1940 C 0.99073 0.04352 0.58117 0.0
C1941 C 0.9646 1.02088 0.58281 0.0
C1942 C 0.93804 0.22189 0.28894 0.0
C1943 C 0.92405 0.18788 0.28805 0.0
C1944 C 0.92346 0.24975 0.2907 0.0
C1945 C 0.89344 0.2466 0.2924 0.0
H1946 H 0.96083 0.22726 0.28789 0.0
H1947 H 0.93617 0.27428 0.29074 0.0
S1948 S 0.84574 0.16384 0.292 0.0
N1949 N 0.87724 0.15421 0.28934 0.0
N1950 N 0.85095 0.20451 0.29371 0.0
C1951 C 0.87945 0.21276 0.29213 0.0
C1952 C 0.89416 0.18448 0.28969 0.0
C1953 C 0.71224 0.11389 0.03172 0.0
C1954 C 0.72724 0.13525 0.05991 0.0
C1955 C 0.68314 0.11204 1.0231 0.0
C1956 C 0.66803 0.13123 0.04255 0.0
H1957 H 0.72317 0.09913 1.01566 0.0
H1958 H 0.67228 0.09481 1.00152 0.0
S1959 S 0.69715 0.19165 0.1182 0.0
N1960 N 0.72466 0.17644 0.10699 0.0
N1961 N 0.66983 0.17264 0.09062 0.0
C1962 C 0.6826 0.15264 0.07073 0.0
C1963 C 0.71222 0.15463 0.07954 0.0
C1964 C 0.28907 0.54098 0.28555 0.0
C1965 C 0.2625 0.53789 0.29756 0.0
C1966 C 0.31061 0.52768 0.29941 0.0
C1967 C 0.3061 0.51017 0.32521 0.0
H1968 H 0.29308 0.55277 0.26451 0.0
H1969 H 0.32987 0.5282 0.28776 0.0
S1970 S 0.24279 0.5006 0.36962 0.0
N1971 N 0.23467 0.52115 0.34033 0.0
N1972 N 0.27511 0.49394 0.36528 0.0
C1973 C 0.28073 0.5092 0.33934 0.0
C1974 C 0.25885 0.52359 0.32568 0.0
C1975 C 0.28024 0.44489 0.04222 0.0
C1976 C 0.30733 0.46632 0.05147 0.0
C1977 C 0.25514 0.45742 0.03929 0.0
C1978 C 0.25631 0.49183 0.04503 0.0
H1979 H 0.27835 0.41818 0.03753 0.0
H1980 H 0.23473 0.44016 0.03249 0.0
S1981 S 0.3212 0.55854 0.07046 0.0
N1982 N 0.33328 0.52381 0.06684 0.0
N1983 N 0.28624 0.54704 0.06089 0.0
C1984 C 0.28307 0.51345 0.05409 0.0
C1985 C 0.30854 0.50081 0.05741 0.0
C1986 C 0.88425 0.99002 0.27386 0.0
C1987 C 0.91447 0.9965 0.27984 0.0
C1988 C 0.86638 0.95847 0.27538 0.0
C1989 C 0.87692 0.93027 0.28278 0.0
H1990 H 0.874 1.00983 0.2682 0.0
H1991 H 0.84352 0.95634 0.2708 0.0
S1992 S 0.95453 0.93264 0.30132 0.0
N1993 N 0.95402 0.9705 0.29394 0.0
N1994 N 0.92086 0.91242 0.29683 0.0
C1995 C 0.90717 0.93619 0.28872 0.0
C1996 C 0.92555 0.96858 0.28726 0.0
C1997 C 0.79427 0.19193 0.76021 0.0
C1998 C 0.76544 0.18645 0.74698 0.0
C1999 C 0.80754 0.22165 0.78057 0.0
C2000 C 0.79228 0.24651 0.78869 0.0
H2001 H 0.80648 0.1728 0.75555 0.0
H2002 H 0.83 0.22549 0.78963 0.0
S2003 S 0.71736 0.24611 0.7588 0.0
N2004 N 0.72261 0.20961 0.74206 0.0
N2005 N 0.74784 0.26532 0.78099 0.0
C2006 C 0.76371 0.24178 0.77551 0.0
C2007 C 0.75027 0.21187 0.75422 0.0
loop_
_geom_bond_atom_site_label_1
_geom_bond_atom_site_label_2
_geom_bond_distance
_geom_bond_site_symmetry_2
_ccdc_geom_bond_type
In0 O1 2.294 . S
In0 O2 2.326 . S
In0 O6 2.266 . S
In0 O7 2.326 . S
In0 O8 2.266 . S
In0 O9 2.326 . S
In0 O11 2.294 . S
In0 O12 2.326 . S
O1 In0 2.294 . S
O1 C10 1.240 . S
O2 In0 2.326 . S
O2 C10 1.252 . S
C3 O6 1.252 . S
C3 O7 1.260 . S
C4 O11 1.240 . S
C4 O12 1.252 . S
C5 O8 1.252 . S
C5 O9 1.260 . S
O6 In0 2.266 . S
O6 C3 1.252 . S
O7 In0 2.326 . S
O7 C3 1.260 . S
O8 In0 2.266 . S
O8 C5 1.252 . S
O9 In0 2.326 . S
O9 C5 1.260 . S
C10 O1 1.240 . S
C10 O2 1.252 . S
O11 In0 2.294 . S
O11 C4 1.240 . S
O12 In0 2.326 . S
O12 C4 1.252 . S
In13 O14 2.294 . S
In13 O15 2.326 . S
In13 O19 2.266 1_455 S
In13 O20 2.326 1_455 S
In13 O21 2.266 1_455 S
In13 O22 2.326 1_455 S
In13 O24 2.294 . S
In13 O25 2.326 . S
O14 In13 2.294 . S
O14 C23 1.240 . S
O15 In13 2.326 . S
O15 C23 1.252 . S
C16 O19 1.252 . S
C16 O20 1.260 . S
C17 O24 1.240 . S
C17 O25 1.252 . S
C18 O21 1.252 . S
C18 O22 1.260 . S
O19 In13 2.266 1_655 S
O19 C16 1.252 . S
O20 In13 2.326 1_655 S
O20 C16 1.260 . S
O21 In13 2.266 1_655 S
O21 C18 1.252 . S
O22 In13 2.326 1_655 S
O22 C18 1.260 . S
C23 O14 1.240 . S
C23 O15 1.252 . S
O24 In13 2.294 . S
O24 C17 1.240 . S
O25 In13 2.326 . S
O25 C17 1.252 . S
In26 O27 2.294 . S
In26 O28 2.326 . S
In26 O32 2.266 . S
In26 O33 2.326 . S
In26 O34 2.266 . S
In26 O35 2.326 . S
In26 O37 2.294 . S
In26 O38 2.326 . S
O27 In26 2.294 . S
O27 C36 1.240 . S
O28 In26 2.326 . S
O28 C36 1.252 . S
C29 O32 1.252 . S
C29 O33 1.260 . S
C30 O37 1.240 . S
C30 O38 1.252 . S
C31 O34 1.252 . S
C31 O35 1.260 . S
O32 In26 2.266 . S
O32 C29 1.252 . S
O33 In26 2.326 . S
O33 C29 1.260 . S
O34 In26 2.266 . S
O34 C31 1.252 . S
O35 In26 2.326 . S
O35 C31 1.260 . S
C36 O27 1.240 . S
C36 O28 1.252 . S
O37 In26 2.294 . S
O37 C30 1.240 . S
O38 In26 2.326 . S
O38 C30 1.252 . S
In39 O40 2.294 . S
In39 O41 2.326 . S
In39 O45 2.266 . S
In39 O46 2.326 . S
In39 O47 2.266 . S
In39 O48 2.326 . S
In39 O50 2.294 . S
In39 O51 2.326 . S
O40 In39 2.294 . S
O40 C49 1.240 . S
O41 In39 2.326 . S
O41 C49 1.252 . S
C42 O45 1.252 . S
C42 O46 1.260 . S
C43 O50 1.240 . S
C43 O51 1.252 . S
C44 O47 1.252 . S
C44 O48 1.260 . S
O45 In39 2.266 . S
O45 C42 1.252 . S
O46 In39 2.326 . S
O46 C42 1.260 . S
O47 In39 2.266 . S
O47 C44 1.252 . S
O48 In39 2.326 . S
O48 C44 1.260 . S
C49 O40 1.240 . S
C49 O41 1.252 . S
O50 In39 2.294 . S
O50 C43 1.240 . S
O51 In39 2.326 . S
O51 C43 1.252 . S
In52 O53 2.294 . S
In52 O54 2.326 . S
In52 O58 2.266 . S
In52 O59 2.326 . S
In52 O60 2.266 . S
In52 O61 2.326 . S
In52 O63 2.294 . S
In52 O64 2.326 . S
O53 In52 2.294 . S
O53 C62 1.240 . S
O54 In52 2.326 . S
O54 C62 1.252 . S
C55 O58 1.252 . S
C55 O59 1.260 . S
C56 O63 1.240 . S
C56 O64 1.252 . S
C57 O60 1.252 . S
C57 O61 1.260 . S
O58 In52 2.266 . S
O58 C55 1.252 . S
O59 In52 2.326 . S
O59 C55 1.260 . S
O60 In52 2.266 . S
O60 C57 1.252 . S
O61 In52 2.326 . S
O61 C57 1.260 . S
C62 O53 1.240 . S
C62 O54 1.252 . S
O63 In52 2.294 . S
O63 C56 1.240 . S
O64 In52 2.326 . S
O64 C56 1.252 . S
In65 O66 2.294 . S
In65 O67 2.326 . S
In65 O71 2.266 . S
In65 O72 2.326 . S
In65 O73 2.266 . S
In65 O74 2.326 . S
In65 O76 2.294 . S
In65 O77 2.326 . S
O66 In65 2.294 . S
O66 C75 1.240 . S
O67 In65 2.326 . S
O67 C75 1.252 . S
C68 O71 1.252 . S
C68 O72 1.260 . S
C69 O76 1.240 . S
C69 O77 1.252 . S
C70 O73 1.252 . S
C70 O74 1.260 . S
O71 In65 2.266 . S
O71 C68 1.252 . S
O72 In65 2.326 . S
O72 C68 1.260 . S
O73 In65 2.266 . S
O73 C70 1.252 . S
O74 In65 2.326 . S
O74 C70 1.260 . S
C75 O66 1.240 . S
C75 O67 1.252 . S
O76 In65 2.294 . S
O76 C69 1.240 . S
O77 In65 2.326 . S
O77 C69 1.252 . S
In78 O79 2.294 . S
In78 O80 2.326 . S
In78 O84 2.266 . S
In78 O85 2.326 . S
In78 O86 2.266 . S
In78 O87 2.326 . S
In78 O89 2.294 . S
In78 O90 2.326 . S
O79 In78 2.294 . S
O79 C88 1.240 . S
O80 In78 2.326 . S
O80 C88 1.252 . S
C81 O84 1.252 . S
C81 O85 1.260 . S
C82 O89 1.240 . S
C82 O90 1.252 . S
C83 O86 1.252 . S
C83 O87 1.260 . S
O84 In78 2.266 . S
O84 C81 1.252 . S
O85 In78 2.326 . S
O85 C81 1.260 . S
O86 In78 2.266 . S
O86 C83 1.252 . S
O87 In78 2.326 . S
O87 C83 1.260 . S
C88 O79 1.240 . S
C88 O80 1.252 . S
O89 In78 2.294 . S
O89 C82 1.240 . S
O90 In78 2.326 . S
O90 C82 1.252 . S
In91 O92 2.294 . S
In91 O93 2.326 . S
In91 O97 2.266 . S
In91 O98 2.326 . S
In91 O99 2.266 1_455 S
In91 O100 2.326 1_455 S
In91 O102 2.294 . S
In91 O103 2.326 . S
O92 In91 2.294 . S
O92 C101 1.240 . S
O93 In91 2.326 . S
O93 C101 1.252 . S
C94 O97 1.252 . S
C94 O98 1.260 . S
C95 O102 1.240 . S
C95 O103 1.252 . S
C96 O99 1.252 . S
C96 O100 1.260 . S
O97 In91 2.266 . S
O97 C94 1.252 . S
O98 In91 2.326 . S
O98 C94 1.260 . S
O99 In91 2.266 1_655 S
O99 C96 1.252 . S
O100 In91 2.326 1_655 S
O100 C96 1.260 . S
C101 O92 1.240 . S
C101 O93 1.252 . S
O102 In91 2.294 . S
O102 C95 1.240 . S
O103 In91 2.326 . S
O103 C95 1.252 . S
In104 O105 2.294 . S
In104 O106 2.327 1_545 S
In104 O110 2.265 . S
In104 O111 2.325 . S
In104 O112 2.265 1_545 S
In104 O113 2.323 1_545 S
In104 O115 2.296 . S
In104 O116 2.329 . S
O105 In104 2.294 . S
O105 C114 1.240 . S
O106 In104 2.327 1_565 S
O106 C114 1.252 1_565 S
C107 O110 1.252 . S
C107 O111 1.260 . S
C108 O115 1.240 . S
C108 O116 1.252 . S
C109 O112 1.252 . S
C109 O113 1.260 . S
O110 In104 2.265 . S
O110 C107 1.252 . S
O111 In104 2.325 . S
O111 C107 1.260 . S
O112 In104 2.265 1_565 S
O112 C109 1.252 . S
O113 In104 2.323 1_565 S
O113 C109 1.260 . S
C114 O105 1.240 . S
C114 O106 1.252 1_545 S
O115 In104 2.296 . S
O115 C108 1.240 . S
O116 In104 2.329 . S
O116 C108 1.252 . S
In117 O118 2.294 . S
In117 O119 2.326 . S
In117 O123 2.266 . S
In117 O124 2.326 . S
In117 O125 2.266 . S
In117 O126 2.326 . S
In117 O128 2.294 . S
In117 O129 2.326 . S
O118 In117 2.294 . S
O118 C127 1.240 . S
O119 In117 2.326 . S
O119 C127 1.252 . S
C120 O123 1.252 . S
C120 O124 1.260 . S
C121 O128 1.240 . S
C121 O129 1.252 . S
C122 O125 1.252 . S
C122 O126 1.260 . S
O123 In117 2.266 . S
O123 C120 1.252 . S
O124 In117 2.326 . S
O124 C120 1.260 . S
O125 In117 2.266 . S
O125 C122 1.252 . S
O126 In117 2.326 . S
O126 C122 1.260 . S
C127 O118 1.240 . S
C127 O119 1.252 . S
O128 In117 2.294 . S
O128 C121 1.240 . S
O129 In117 2.326 . S
O129 C121 1.252 . S
In130 O131 2.294 . S
In130 O132 2.326 . S
In130 O136 2.266 . S
In130 O137 2.326 . S
In130 O138 2.266 . S
In130 O139 2.326 . S
In130 O141 2.294 1_545 S
In130 O142 2.326 1_545 S
O131 In130 2.294 . S
O131 C140 1.240 . S
O132 In130 2.326 . S
O132 C140 1.252 . S
C133 O136 1.252 . S
C133 O137 1.260 . S
C134 O141 1.240 . S
C134 O142 1.252 . S
C135 O138 1.252 . S
C135 O139 1.260 . S
O136 In130 2.266 . S
O136 C133 1.252 . S
O137 In130 2.326 . S
O137 C133 1.260 . S
O138 In130 2.266 . S
O138 C135 1.252 . S
O139 In130 2.326 . S
O139 C135 1.260 . S
C140 O131 1.240 . S
C140 O132 1.252 . S
O141 In130 2.294 1_565 S
O141 C134 1.240 . S
O142 In130 2.326 1_565 S
O142 C134 1.252 . S
In143 O144 2.294 . S
In143 O145 2.326 . S
In143 O149 2.266 1_554 S
In143 O150 2.326 1_554 S
In143 O151 2.266 . S
In143 O152 2.329 . S
In143 O154 2.294 . S
In143 O155 2.326 . S
O144 In143 2.294 . S
O144 C153 1.240 . S
O145 In143 2.326 . S
O145 C153 1.252 . S
C146 O149 1.252 . S
C146 O150 1.260 . S
C147 O154 1.240 . S
C147 O155 1.252 . S
C148 O151 1.252 . S
C148 O152 1.254 . S
O149 In143 2.266 1_556 S
O149 C146 1.252 . S
O150 In143 2.326 1_556 S
O150 C146 1.260 . S
O151 In143 2.266 . S
O151 C148 1.252 . S
O152 In143 2.329 . S
O152 C148 1.254 . S
C153 O144 1.240 . S
C153 O145 1.252 . S
O154 In143 2.294 . S
O154 C147 1.240 . S
O155 In143 2.326 . S
O155 C147 1.252 . S
In156 O157 2.294 . S
In156 O158 2.326 . S
In156 O162 2.266 1_554 S
In156 O163 2.326 1_554 S
In156 O164 2.266 . S
In156 O165 2.326 . S
In156 O167 2.294 . S
In156 O168 2.326 . S
O157 In156 2.294 . S
O157 C166 1.240 . S
O158 In156 2.326 . S
O158 C166 1.252 . S
C159 O162 1.252 . S
C159 O163 1.260 . S
C160 O167 1.240 . S
C160 O168 1.252 . S
C161 O164 1.252 . S
C161 O165 1.260 . S
O162 In156 2.266 1_556 S
O162 C159 1.252 . S
O163 In156 2.326 1_556 S
O163 C159 1.260 . S
O164 In156 2.266 . S
O164 C161 1.252 . S
O165 In156 2.326 . S
O165 C161 1.260 . S
C166 O157 1.240 . S
C166 O158 1.252 . S
O167 In156 2.294 . S
O167 C160 1.240 . S
O168 In156 2.326 . S
O168 C160 1.252 . S
In169 O170 2.294 . S
In169 O171 2.326 . S
In169 O175 2.266 . S
In169 O176 2.326 . S
In169 O177 2.266 . S
In169 O178 2.326 1_554 S
In169 O180 2.294 . S
In169 O181 2.326 . S
O170 In169 2.294 . S
O170 C179 1.240 . S
O171 In169 2.326 . S
O171 C179 1.252 . S
C172 O175 1.252 . S
C172 O176 1.260 . S
C173 O180 1.240 . S
C173 O181 1.252 . S
C174 O177 1.252 1_556 S
C174 O178 1.260 . S
O175 In169 2.266 . S
O175 C172 1.252 . S
O176 In169 2.326 . S
O176 C172 1.260 . S
O177 In169 2.266 . S
O177 C174 1.252 1_554 S
O178 In169 2.326 1_556 S
O178 C174 1.260 . S
C179 O170 1.240 . S
C179 O171 1.252 . S
O180 In169 2.294 . S
O180 C173 1.240 . S
O181 In169 2.326 . S
O181 C173 1.252 . S
In182 O183 2.294 . S
In182 O184 2.326 . S
In182 O188 2.266 . S
In182 O189 2.326 . S
In182 O190 2.266 . S
In182 O191 2.326 . S
In182 O193 2.294 . S
In182 O194 2.326 . S
O183 In182 2.294 . S
O183 C192 1.240 . S
O184 In182 2.326 . S
O184 C192 1.252 . S
C185 O188 1.252 . S
C185 O189 1.260 . S
C186 O193 1.240 . S
C186 O194 1.252 . S
C187 O190 1.252 . S
C187 O191 1.260 . S
O188 In182 2.266 . S
O188 C185 1.252 . S
O189 In182 2.326 . S
O189 C185 1.260 . S
O190 In182 2.266 . S
O190 C187 1.252 . S
O191 In182 2.326 . S
O191 C187 1.260 . S
C192 O183 1.240 . S
C192 O184 1.252 . S
O193 In182 2.294 . S
O193 C186 1.240 . S
O194 In182 2.326 . S
O194 C186 1.252 . S
In195 O196 2.294 . S
In195 O197 2.326 . S
In195 O201 2.266 . S
In195 O202 2.326 . S
In195 O203 2.266 . S
In195 O204 2.326 . S
In195 O206 2.294 . S
In195 O207 2.326 . S
O196 In195 2.294 . S
O196 C205 1.240 . S
O197 In195 2.326 . S
O197 C205 1.252 . S
C198 O201 1.252 . S
C198 O202 1.260 . S
C199 O206 1.240 . S
C199 O207 1.252 . S
C200 O203 1.252 . S
C200 O204 1.260 . S
O201 In195 2.266 . S
O201 C198 1.252 . S
O202 In195 2.326 . S
O202 C198 1.260 . S
O203 In195 2.266 . S
O203 C200 1.252 . S
O204 In195 2.326 . S
O204 C200 1.260 . S
C205 O196 1.240 . S
C205 O197 1.252 . S
O206 In195 2.294 . S
O206 C199 1.240 . S
O207 In195 2.326 . S
O207 C199 1.252 . S
In208 O209 2.294 . S
In208 O210 2.326 . S
In208 O214 2.266 . S
In208 O215 2.326 . S
In208 O216 2.266 . S
In208 O217 2.326 . S
In208 O219 2.294 . S
In208 O220 2.326 . S
O209 In208 2.294 . S
O209 C218 1.240 . S
O210 In208 2.326 . S
O210 C218 1.252 . S
C211 O214 1.252 . S
C211 O215 1.260 . S
C212 O219 1.240 . S
C212 O220 1.252 . S
C213 O216 1.252 . S
C213 O217 1.260 . S
O214 In208 2.266 . S
O214 C211 1.252 . S
O215 In208 2.326 . S
O215 C211 1.260 . S
O216 In208 2.266 . S
O216 C213 1.252 . S
O217 In208 2.326 . S
O217 C213 1.260 . S
C218 O209 1.240 . S
C218 O210 1.252 . S
O219 In208 2.294 . S
O219 C212 1.240 . S
O220 In208 2.326 . S
O220 C212 1.252 . S
In221 O222 2.294 . S
In221 O223 2.326 . S
In221 O227 2.266 . S
In221 O228 2.326 . S
In221 O229 2.266 . S
In221 O230 2.326 . S
In221 O232 2.294 . S
In221 O233 2.326 . S
O222 In221 2.294 . S
O222 C231 1.240 . S
O223 In221 2.326 . S
O223 C231 1.252 . S
C224 O227 1.252 . S
C224 O228 1.260 . S
C225 O232 1.240 . S
C225 O233 1.252 . S
C226 O229 1.252 . S
C226 O230 1.260 . S
O227 In221 2.266 . S
O227 C224 1.252 . S
O228 In221 2.326 . S
O228 C224 1.260 . S
O229 In221 2.266 . S
O229 C226 1.252 . S
O230 In221 2.326 . S
O230 C226 1.260 . S
C231 O222 1.240 . S
C231 O223 1.252 . S
O232 In221 2.294 . S
O232 C225 1.240 . S
O233 In221 2.326 . S
O233 C225 1.252 . S
In234 O235 2.294 . S
In234 O236 2.326 . S
In234 O240 2.266 . S
In234 O241 2.326 . S
In234 O242 2.266 . S
In234 O243 2.326 . S
In234 O245 2.294 . S
In234 O246 2.326 . S
O235 In234 2.294 . S
O235 C244 1.240 . S
O236 In234 2.326 . S
O236 C244 1.252 . S
C237 O240 1.252 . S
C237 O241 1.260 . S
C238 O245 1.240 . S
C238 O246 1.252 . S
C239 O242 1.252 . S
C239 O243 1.260 . S
O240 In234 2.266 . S
O240 C237 1.252 . S
O241 In234 2.326 . S
O241 C237 1.260 . S
O242 In234 2.266 . S
O242 C239 1.252 . S
O243 In234 2.326 . S
O243 C239 1.260 . S
C244 O235 1.240 . S
C244 O236 1.252 . S
O245 In234 2.294 . S
O245 C238 1.240 . S
O246 In234 2.326 . S
O246 C238 1.252 . S
In247 O248 2.294 . S
In247 O249 2.326 . S
In247 O253 2.266 . S
In247 O254 2.326 . S
In247 O255 2.266 . S
In247 O256 2.326 . S
In247 O258 2.294 . S
In247 O259 2.326 . S
O248 In247 2.294 . S
O248 C257 1.240 . S
O249 In247 2.326 . S
O249 C257 1.252 . S
C250 O253 1.252 . S
C250 O254 1.260 . S
C251 O258 1.240 . S
C251 O259 1.252 . S
C252 O255 1.252 . S
C252 O256 1.260 . S
O253 In247 2.266 . S
O253 C250 1.252 . S
O254 In247 2.326 . S
O254 C250 1.260 . S
O255 In247 2.266 . S
O255 C252 1.252 . S
O256 In247 2.326 . S
O256 C252 1.260 . S
C257 O248 1.240 . S
C257 O249 1.252 . S
O258 In247 2.294 . S
O258 C251 1.240 . S
O259 In247 2.326 . S
O259 C251 1.252 . S
In260 O261 2.294 . S
In260 O262 2.326 . S
In260 O266 2.266 1_554 S
In260 O267 2.326 . S
In260 O268 2.266 1_554 S
In260 O269 2.326 1_554 S
In260 O271 2.294 . S
In260 O272 2.326 . S
O261 In260 2.294 . S
O261 C270 1.240 . S
O262 In260 2.326 . S
O262 C270 1.252 . S
C263 O266 1.252 . S
C263 O267 1.260 1_556 S
C264 O271 1.240 . S
C264 O272 1.252 . S
C265 O268 1.252 . S
C265 O269 1.260 . S
O266 In260 2.266 1_556 S
O266 C263 1.252 . S
O267 In260 2.326 . S
O267 C263 1.260 1_554 S
O268 In260 2.266 1_556 S
O268 C265 1.252 . S
O269 In260 2.326 1_556 S
O269 C265 1.260 . S
C270 O261 1.240 . S
C270 O262 1.252 . S
O271 In260 2.294 . S
O271 C264 1.240 . S
O272 In260 2.326 . S
O272 C264 1.252 . S
In273 O274 2.294 . S
In273 O275 2.326 . S
In273 O279 2.266 . S
In273 O280 2.326 . S
In273 O281 2.266 . S
In273 O282 2.326 . S
In273 O284 2.294 . S
In273 O285 2.326 . S
O274 In273 2.294 . S
O274 C283 1.240 . S
O275 In273 2.326 . S
O275 C283 1.252 . S
C276 O279 1.252 . S
C276 O280 1.260 . S
C277 O284 1.240 . S
C277 O285 1.252 . S
C278 O281 1.252 . S
C278 O282 1.260 . S
O279 In273 2.266 . S
O279 C276 1.252 . S
O280 In273 2.326 . S
O280 C276 1.260 . S
O281 In273 2.266 . S
O281 C278 1.252 . S
O282 In273 2.326 . S
O282 C278 1.260 . S
C283 O274 1.240 . S
C283 O275 1.252 . S
O284 In273 2.294 . S
O284 C277 1.240 . S
O285 In273 2.326 . S
O285 C277 1.252 . S
In286 O287 2.294 . S
In286 O288 2.326 . S
In286 O292 2.266 . S
In286 O293 2.326 . S
In286 O294 2.266 . S
In286 O295 2.326 . S
In286 O297 2.294 . S
In286 O298 2.326 . S
O287 In286 2.294 . S
O287 C296 1.240 . S
O288 In286 2.326 . S
O288 C296 1.252 . S
C289 O292 1.252 . S
C289 O293 1.260 . S
C290 O297 1.240 . S
C290 O298 1.252 . S
C291 O294 1.252 . S
C291 O295 1.260 . S
O292 In286 2.266 . S
O292 C289 1.252 . S
O293 In286 2.326 . S
O293 C289 1.260 . S
O294 In286 2.266 . S
O294 C291 1.252 . S
O295 In286 2.326 . S
O295 C291 1.260 . S
C296 O287 1.240 . S
C296 O288 1.252 . S
O297 In286 2.294 . S
O297 C290 1.240 . S
O298 In286 2.326 . S
O298 C290 1.252 . S
In299 O300 2.294 . S
In299 O301 2.326 . S
In299 O305 2.266 . S
In299 O306 2.326 . S
In299 O307 2.266 . S
In299 O308 2.326 . S
In299 O310 2.294 . S
In299 O311 2.326 . S
O300 In299 2.294 . S
O300 C309 1.240 . S
O301 In299 2.326 . S
O301 C309 1.252 . S
C302 O305 1.252 . S
C302 O306 1.260 . S
C303 O310 1.240 . S
C303 O311 1.252 . S
C304 O307 1.252 . S
C304 O308 1.260 . S
O305 In299 2.266 . S
O305 C302 1.252 . S
O306 In299 2.326 . S
O306 C302 1.260 . S
O307 In299 2.266 . S
O307 C304 1.252 . S
O308 In299 2.326 . S
O308 C304 1.260 . S
C309 O300 1.240 . S
C309 O301 1.252 . S
O310 In299 2.294 . S
O310 C303 1.240 . S
O311 In299 2.326 . S
O311 C303 1.252 . S
Ho312 C315 2.808 1_454 S
Ho312 O332 2.322 . S
Ho312 O334 2.378 1_454 S
Ho312 O335 2.497 1_455 S
Ho312 O336 2.381 1_554 S
Ho312 O337 2.656 1_554 S
Ho312 O339 2.367 . S
Ho312 O343 2.305 . S
Ho313 C324 2.811 . S
Ho313 O333 2.346 . S
Ho313 O337 2.276 1_554 S
Ho313 O338 2.322 . S
Ho313 O340 2.378 . S
Ho313 O341 2.524 . S
Ho313 O342 2.381 . S
Ho313 O343 2.669 . S
C314 O332 1.259 . S
C314 O333 1.268 . S
C315 Ho312 2.808 1_656 S
C315 C316 1.492 . S
C315 O334 1.229 . S
C315 O335 1.284 1_556 S
C316 C315 1.492 . S
C316 C317 1.348 1_556 S
C316 C321 1.413 . S
C317 C316 1.348 1_554 S
C317 C318 1.442 . S
C317 H344 0.930 . S
C318 C317 1.442 . S
C318 C319 1.381 1_554 S
C318 H345 0.931 . S
C319 C318 1.381 1_556 S
C319 C320 1.321 . S
C320 C319 1.321 . S
C320 C321 1.403 . S
C320 H346 0.934 . S
C321 C316 1.413 . S
C321 C320 1.403 . S
C321 H347 0.930 . S
C322 O336 1.275 . S
C322 O337 1.292 . S
C323 O338 1.259 . S
C323 O339 1.262 . S
C324 Ho313 2.811 . S
C324 C325 1.488 . S
C324 O340 1.215 . S
C324 O341 1.289 . S
C325 C324 1.488 . S
C325 C326 1.348 . S
C325 C330 1.413 . S
C326 C325 1.348 . S
C326 C327 1.442 . S
C326 H348 0.930 . S
C327 C326 1.442 . S
C327 C328 1.381 . S
C327 H349 0.931 . S
C328 C327 1.381 . S
C328 C329 1.321 . S
C329 C328 1.321 . S
C329 C330 1.403 . S
C329 H350 0.934 . S
C330 C325 1.413 . S
C330 C329 1.403 . S
C330 H351 0.930 . S
C331 O342 1.275 . S
C331 O343 1.256 . S
O332 Ho312 2.322 . S
O332 C314 1.259 . S
O333 Ho313 2.346 . S
O333 C314 1.268 . S
O334 Ho312 2.378 1_656 S
O334 C315 1.229 . S
O335 Ho312 2.497 1_655 S
O335 C315 1.284 1_554 S
O336 Ho312 2.381 1_556 S
O336 C322 1.275 . S
O337 Ho312 2.656 1_556 S
O337 Ho313 2.276 1_556 S
O337 C322 1.292 . S
O338 Ho313 2.322 . S
O338 C323 1.259 . S
O339 Ho312 2.367 . S
O339 C323 1.262 . S
O340 Ho313 2.378 . S
O340 C324 1.215 . S
O341 Ho313 2.524 . S
O341 C324 1.289 . S
O342 Ho313 2.381 . S
O342 C331 1.275 . S
O343 Ho312 2.305 . S
O343 Ho313 2.669 . S
O343 C331 1.256 . S
H344 C317 0.930 . S
H345 C318 0.931 . S
H346 C320 0.934 . S
H347 C321 0.930 . S
H348 C326 0.930 . S
H349 C327 0.931 . S
H350 C329 0.934 . S
H351 C330 0.930 . S
Ho352 C355 2.811 . S
Ho352 O372 2.322 . S
Ho352 O374 2.378 . S
Ho352 O375 2.524 . S
Ho352 O376 2.381 . S
Ho352 O377 2.669 . S
Ho352 O379 2.346 . S
Ho352 O383 2.305 . S
Ho353 C364 2.811 . S
Ho353 O373 2.346 . S
Ho353 O377 2.305 . S
Ho353 O378 2.322 . S
Ho353 O380 2.378 . S
Ho353 O381 2.524 . S
Ho353 O382 2.381 . S
Ho353 O383 2.669 . S
C354 O372 1.259 . S
C354 O373 1.268 . S
C355 Ho352 2.811 . S
C355 C356 1.488 . S
C355 O374 1.215 . S
C355 O375 1.289 . S
C356 C355 1.488 . S
C356 C357 1.348 . S
C356 C361 1.413 . S
C357 C356 1.348 . S
C357 C358 1.442 . S
C357 H384 0.930 . S
C358 C357 1.442 . S
C358 C359 1.381 . S
C358 H385 0.931 . S
C359 C358 1.381 . S
C359 C360 1.321 . S
C360 C359 1.321 . S
C360 C361 1.403 . S
C360 H386 0.934 . S
C361 C356 1.413 . S
C361 C360 1.403 . S
C361 H387 0.930 . S
C362 O376 1.275 . S
C362 O377 1.256 . S
C363 O378 1.259 . S
C363 O379 1.268 . S
C364 Ho353 2.811 . S
C364 C365 1.488 . S
C364 O380 1.215 . S
C364 O381 1.289 . S
C365 C364 1.488 . S
C365 C366 1.348 . S
C365 C370 1.413 . S
C366 C365 1.348 . S
C366 C367 1.442 . S
C366 H388 0.930 . S
C367 C366 1.442 . S
C367 C368 1.381 . S
C367 H389 0.931 . S
C368 C367 1.381 . S
C368 C369 1.321 . S
C369 C368 1.321 . S
C369 C370 1.403 . S
C369 H390 0.934 . S
C370 C365 1.413 . S
C370 C369 1.403 . S
C370 H391 0.930 . S
C371 O382 1.275 . S
C371 O383 1.256 . S
O372 Ho352 2.322 . S
O372 C354 1.259 . S
O373 Ho353 2.346 . S
O373 C354 1.268 . S
O374 Ho352 2.378 . S
O374 C355 1.215 . S
O375 Ho352 2.524 . S
O375 C355 1.289 . S
O376 Ho352 2.381 . S
O376 C362 1.275 . S
O377 Ho352 2.669 . S
O377 Ho353 2.305 . S
O377 C362 1.256 . S
O378 Ho353 2.322 . S
O378 C363 1.259 . S
O379 Ho352 2.346 . S
O379 C363 1.268 . S
O380 Ho353 2.378 . S
O380 C364 1.215 . S
O381 Ho353 2.524 . S
O381 C364 1.289 . S
O382 Ho353 2.381 . S
O382 C371 1.275 . S
O383 Ho352 2.305 . S
O383 Ho353 2.669 . S
O383 C371 1.256 . S
H384 C357 0.930 . S
H385 C358 0.931 . S
H386 C360 0.934 . S
H387 C361 0.930 . S
H388 C366 0.930 . S
H389 C367 0.931 . S
H390 C369 0.934 . S
H391 C370 0.930 . S
Ho392 C395 2.811 . S
Ho392 O412 2.322 1_545 S
Ho392 O414 2.378 . S
Ho392 O415 2.524 . S
Ho392 O416 2.381 . S
Ho392 O417 2.669 . S
Ho392 O419 2.346 . S
Ho392 O423 2.305 . S
Ho393 C404 2.811 . S
Ho393 O413 2.346 1_545 S
Ho393 O417 2.305 . S
Ho393 O418 2.322 . S
Ho393 O420 2.378 . S
Ho393 O421 2.524 . S
Ho393 O422 2.381 . S
Ho393 O423 2.669 . S
C394 O412 1.259 . S
C394 O413 1.268 . S
C395 Ho392 2.811 . S
C395 C396 1.488 1_545 S
C395 O414 1.215 . S
C395 O415 1.289 . S
C396 C395 1.488 1_565 S
C396 C397 1.348 . S
C396 C401 1.413 . S
C397 C396 1.348 . S
C397 C398 1.442 . S
C397 H424 0.930 . S
C398 C397 1.442 . S
C398 C399 1.381 . S
C398 H425 0.931 . S
C399 C398 1.381 . S
C399 C400 1.321 . S
C400 C399 1.321 . S
C400 C401 1.403 . S
C400 H426 0.934 . S
C401 C396 1.413 . S
C401 C400 1.403 . S
C401 H427 0.930 . S
C402 O416 1.275 . S
C402 O417 1.256 . S
C403 O418 1.259 . S
C403 O419 1.268 . S
C404 Ho393 2.811 . S
C404 C405 1.488 . S
C404 O420 1.215 . S
C404 O421 1.289 . S
C405 C404 1.488 . S
C405 C406 1.348 . S
C405 C410 1.413 . S
C406 C405 1.348 . S
C406 C407 1.442 . S
C406 H428 0.930 . S
C407 C406 1.442 . S
C407 C408 1.381 . S
C407 H429 0.931 . S
C408 C407 1.381 . S
C408 C409 1.321 . S
C409 C408 1.321 . S
C409 C410 1.403 . S
C409 H430 0.934 . S
C410 C405 1.413 . S
C410 C409 1.403 . S
C410 H431 0.930 . S
C411 O422 1.275 . S
C411 O423 1.256 . S
O412 Ho392 2.322 1_565 S
O412 C394 1.259 . S
O413 Ho393 2.346 1_565 S
O413 C394 1.268 . S
O414 Ho392 2.378 . S
O414 C395 1.215 . S
O415 Ho392 2.524 . S
O415 C395 1.289 . S
O416 Ho392 2.381 . S
O416 C402 1.275 . S
O417 Ho392 2.669 . S
O417 Ho393 2.305 . S
O417 C402 1.256 . S
O418 Ho393 2.322 . S
O418 C403 1.259 . S
O419 Ho392 2.346 . S
O419 C403 1.268 . S
O420 Ho393 2.378 . S
O420 C404 1.215 . S
O421 Ho393 2.524 . S
O421 C404 1.289 . S
O422 Ho393 2.381 . S
O422 C411 1.275 . S
O423 Ho392 2.305 . S
O423 Ho393 2.669 . S
O423 C411 1.256 . S
H424 C397 0.930 . S
H425 C398 0.931 . S
H426 C400 0.934 . S
H427 C401 0.930 . S
H428 C406 0.930 . S
H429 C407 0.931 . S
H430 C409 0.934 . S
H431 C410 0.930 . S
Ho432 C435 2.811 . S
Ho432 O452 2.322 . S
Ho432 O454 2.378 . S
Ho432 O455 2.524 . S
Ho432 O456 2.381 . S
Ho432 O457 2.669 . S
Ho432 O459 2.346 . S
Ho432 O463 2.305 . S
Ho433 C444 2.811 . S
Ho433 O453 2.346 . S
Ho433 O457 2.305 . S
Ho433 O458 2.322 . S
Ho433 O460 2.378 . S
Ho433 O461 2.524 . S
Ho433 O462 2.381 . S
Ho433 O463 2.669 . S
C434 O452 1.259 . S
C434 O453 1.268 . S
C435 Ho432 2.811 . S
C435 C436 1.488 . S
C435 O454 1.215 . S
C435 O455 1.289 . S
C436 C435 1.488 . S
C436 C437 1.348 . S
C436 C441 1.413 . S
C437 C436 1.348 . S
C437 C438 1.442 . S
C437 H464 0.930 . S
C438 C437 1.442 . S
C438 C439 1.381 . S
C438 H465 0.931 . S
C439 C438 1.381 . S
C439 C440 1.321 . S
C440 C439 1.321 . S
C440 C441 1.403 . S
C440 H466 0.934 . S
C441 C436 1.413 . S
C441 C440 1.403 . S
C441 H467 0.930 . S
C442 O456 1.275 . S
C442 O457 1.256 . S
C443 O458 1.259 . S
C443 O459 1.268 . S
C444 Ho433 2.811 . S
C444 C445 1.488 . S
C444 O460 1.215 . S
C444 O461 1.289 . S
C445 C444 1.488 . S
C445 C446 1.348 . S
C445 C450 1.413 . S
C446 C445 1.348 . S
C446 C447 1.442 . S
C446 H468 0.930 . S
C447 C446 1.442 . S
C447 C448 1.381 . S
C447 H469 0.931 . S
C448 C447 1.381 . S
C448 C449 1.321 . S
C449 C448 1.321 . S
C449 C450 1.403 . S
C449 H470 0.934 . S
C450 C445 1.413 . S
C450 C449 1.403 . S
C450 H471 0.930 . S
C451 O462 1.275 . S
C451 O463 1.256 . S
O452 Ho432 2.322 . S
O452 C434 1.259 . S
O453 Ho433 2.346 . S
O453 C434 1.268 . S
O454 Ho432 2.378 . S
O454 C435 1.215 . S
O455 Ho432 2.524 . S
O455 C435 1.289 . S
O456 Ho432 2.381 . S
O456 C442 1.275 . S
O457 Ho432 2.669 . S
O457 Ho433 2.305 . S
O457 C442 1.256 . S
O458 Ho433 2.322 . S
O458 C443 1.259 . S
O459 Ho432 2.346 . S
O459 C443 1.268 . S
O460 Ho433 2.378 . S
O460 C444 1.215 . S
O461 Ho433 2.524 . S
O461 C444 1.289 . S
O462 Ho433 2.381 . S
O462 C451 1.275 . S
O463 Ho432 2.305 . S
O463 Ho433 2.669 . S
O463 C451 1.256 . S
H464 C437 0.930 . S
H465 C438 0.931 . S
H466 C440 0.934 . S
H467 C441 0.930 . S
H468 C446 0.930 . S
H469 C447 0.931 . S
H470 C449 0.934 . S
H471 C450 0.930 . S
Ho472 C475 2.811 . S
Ho472 O492 2.322 . S
Ho472 O494 2.378 . S
Ho472 O495 2.524 . S
Ho472 O496 2.381 . S
Ho472 O497 2.669 . S
Ho472 O499 2.346 . S
Ho472 O503 2.305 . S
Ho473 C484 2.811 . S
Ho473 O493 2.346 1_565 S
Ho473 O497 2.305 1_565 S
Ho473 O498 2.322 1_565 S
Ho473 O500 2.378 . S
Ho473 O501 2.524 . S
Ho473 O502 2.381 1_565 S
Ho473 O503 2.669 1_565 S
C474 O492 1.259 . S
C474 O493 1.268 . S
C475 Ho472 2.811 . S
C475 C476 1.488 . S
C475 O494 1.215 . S
C475 O495 1.289 . S
C476 C475 1.488 . S
C476 C477 1.348 . S
C476 C481 1.413 . S
C477 C476 1.348 . S
C477 C478 1.442 . S
C477 H504 0.930 . S
C478 C477 1.442 . S
C478 C479 1.381 . S
C478 H505 0.931 . S
C479 C478 1.381 . S
C479 C480 1.321 . S
C480 C479 1.321 . S
C480 C481 1.403 . S
C480 H506 0.934 . S
C481 C476 1.413 . S
C481 C480 1.403 . S
C481 H507 0.930 . S
C482 O496 1.275 . S
C482 O497 1.256 . S
C483 O498 1.259 . S
C483 O499 1.268 . S
C484 Ho473 2.811 . S
C484 C485 1.488 . S
C484 O500 1.215 . S
C484 O501 1.289 . S
C485 C484 1.488 . S
C485 C486 1.348 . S
C485 C490 1.413 . S
C486 C485 1.348 . S
C486 C487 1.442 . S
C486 H508 0.930 . S
C487 C486 1.442 . S
C487 C488 1.381 . S
C487 H509 0.931 . S
C488 C487 1.381 . S
C488 C489 1.321 . S
C489 C488 1.321 . S
C489 C490 1.403 . S
C489 H510 0.934 . S
C490 C485 1.413 . S
C490 C489 1.403 . S
C490 H511 0.930 . S
C491 O502 1.275 . S
C491 O503 1.256 . S
O492 Ho472 2.322 . S
O492 C474 1.259 . S
O493 Ho473 2.346 1_545 S
O493 C474 1.268 . S
O494 Ho472 2.378 . S
O494 C475 1.215 . S
O495 Ho472 2.524 . S
O495 C475 1.289 . S
O496 Ho472 2.381 . S
O496 C482 1.275 . S
O497 Ho472 2.669 . S
O497 Ho473 2.305 1_545 S
O497 C482 1.256 . S
O498 Ho473 2.322 1_545 S
O498 C483 1.259 . S
O499 Ho472 2.346 . S
O499 C483 1.268 . S
O500 Ho473 2.378 . S
O500 C484 1.215 . S
O501 Ho473 2.524 . S
O501 C484 1.289 . S
O502 Ho473 2.381 1_545 S
O502 C491 1.275 . S
O503 Ho472 2.305 . S
O503 Ho473 2.669 1_545 S
O503 C491 1.256 . S
H504 C477 0.930 . S
H505 C478 0.931 . S
H506 C480 0.934 . S
H507 C481 0.930 . S
H508 C486 0.930 . S
H509 C487 0.931 . S
H510 C489 0.934 . S
H511 C490 0.930 . S
Ho512 C515 2.811 . S
Ho512 O532 2.322 . S
Ho512 O534 2.378 . S
Ho512 O535 2.524 . S
Ho512 O536 2.381 . S
Ho512 O537 2.669 . S
Ho512 O539 2.346 . S
Ho512 O543 2.305 . S
Ho513 C524 2.811 . S
Ho513 O533 2.346 . S
Ho513 O537 2.305 . S
Ho513 O538 2.322 . S
Ho513 O540 2.378 . S
Ho513 O541 2.524 . S
Ho513 O542 2.381 . S
Ho513 O543 2.669 . S
C514 O532 1.259 . S
C514 O533 1.268 . S
C515 Ho512 2.811 . S
C515 C516 1.488 . S
C515 O534 1.215 . S
C515 O535 1.289 . S
C516 C515 1.488 . S
C516 C517 1.348 . S
C516 C521 1.413 . S
C517 C516 1.348 . S
C517 C518 1.442 . S
C517 H544 0.930 . S
C518 C517 1.442 . S
C518 C519 1.381 . S
C518 H545 0.931 . S
C519 C518 1.381 . S
C519 C520 1.321 . S
C520 C519 1.321 . S
C520 C521 1.403 . S
C520 H546 0.934 . S
C521 C516 1.413 . S
C521 C520 1.403 . S
C521 H547 0.930 . S
C522 O536 1.275 . S
C522 O537 1.256 . S
C523 O538 1.259 . S
C523 O539 1.268 . S
C524 Ho513 2.811 . S
C524 C525 1.488 . S
C524 O540 1.215 . S
C524 O541 1.289 . S
C525 C524 1.488 . S
C525 C526 1.348 . S
C525 C530 1.413 . S
C526 C525 1.348 . S
C526 C527 1.442 . S
C526 H548 0.930 . S
C527 C526 1.442 . S
C527 C528 1.381 . S
C527 H549 0.931 . S
C528 C527 1.381 . S
C528 C529 1.321 . S
C529 C528 1.321 . S
C529 C530 1.403 . S
C529 H550 0.934 . S
C530 C525 1.413 . S
C530 C529 1.403 . S
C530 H551 0.930 . S
C531 O542 1.275 . S
C531 O543 1.256 . S
O532 Ho512 2.322 . S
O532 C514 1.259 . S
O533 Ho513 2.346 . S
O533 C514 1.268 . S
O534 Ho512 2.378 . S
O534 C515 1.215 . S
O535 Ho512 2.524 . S
O535 C515 1.289 . S
O536 Ho512 2.381 . S
O536 C522 1.275 . S
O537 Ho512 2.669 . S
O537 Ho513 2.305 . S
O537 C522 1.256 . S
O538 Ho513 2.322 . S
O538 C523 1.259 . S
O539 Ho512 2.346 . S
O539 C523 1.268 . S
O540 Ho513 2.378 . S
O540 C524 1.215 . S
O541 Ho513 2.524 . S
O541 C524 1.289 . S
O542 Ho513 2.381 . S
O542 C531 1.275 . S
O543 Ho512 2.305 . S
O543 Ho513 2.669 . S
O543 C531 1.256 . S
H544 C517 0.930 . S
H545 C518 0.931 . S
H546 C520 0.934 . S
H547 C521 0.930 . S
H548 C526 0.930 . S
H549 C527 0.931 . S
H550 C529 0.934 . S
H551 C530 0.930 . S
Ho552 C555 2.811 . S
Ho552 O572 2.322 . S
Ho552 O574 2.378 . S
Ho552 O575 2.524 . S
Ho552 O576 2.381 . S
Ho552 O577 2.669 1_554 S
Ho552 O579 2.346 . S
Ho552 O583 2.305 . S
Ho553 C564 2.811 . S
Ho553 O573 2.346 . S
Ho553 O577 2.305 . S
Ho553 O578 2.322 . S
Ho553 O580 2.378 . S
Ho553 O581 2.524 . S
Ho553 O582 2.381 . S
Ho553 O583 2.669 1_556 S
C554 O572 1.281 . S
C554 O573 1.237 1_554 S
C555 Ho552 2.811 . S
C555 C556 1.488 . S
C555 O574 1.215 . S
C555 O575 1.289 . S
C556 C555 1.488 . S
C556 C557 1.348 . S
C556 C561 1.413 1_545 S
C557 C556 1.348 . S
C557 C558 1.442 . S
C557 H584 0.930 . S
C558 C557 1.442 . S
C558 C559 1.381 1_545 S
C558 H585 0.931 . S
C559 C558 1.381 1_565 S
C559 C560 1.321 . S
C560 C559 1.321 . S
C560 C561 1.403 . S
C560 H586 0.934 . S
C561 C556 1.413 1_565 S
C561 C560 1.403 . S
C561 H587 0.930 . S
C562 O576 1.275 1_556 S
C562 O577 1.256 . S
C563 O578 1.259 1_554 S
C563 O579 1.268 . S
C564 Ho553 2.811 . S
C564 C565 1.488 . S
C564 O580 1.215 . S
C564 O581 1.289 . S
C565 C564 1.488 . S
C565 C566 1.348 . S
C565 C570 1.413 . S
C566 C565 1.348 . S
C566 C567 1.442 . S
C566 H588 0.930 . S
C567 C566 1.442 . S
C567 C568 1.381 . S
C567 H589 0.931 . S
C568 C567 1.381 . S
C568 C569 1.321 . S
C569 C568 1.321 . S
C569 C570 1.403 . S
C569 H590 0.934 . S
C570 C565 1.413 . S
C570 C569 1.403 . S
C570 H591 0.930 . S
C571 O582 1.275 1_554 S
C571 O583 1.256 . S
O572 Ho552 2.322 . S
O572 C554 1.281 . S
O573 Ho553 2.346 . S
O573 C554 1.237 1_556 S
O574 Ho552 2.378 . S
O574 C555 1.215 . S
O575 Ho552 2.524 . S
O575 C555 1.289 . S
O576 Ho552 2.381 . S
O576 C562 1.275 1_554 S
O577 Ho552 2.669 1_556 S
O577 Ho553 2.305 . S
O577 C562 1.256 . S
O578 Ho553 2.322 . S
O578 C563 1.259 1_556 S
O579 Ho552 2.346 . S
O579 C563 1.268 . S
O580 Ho553 2.378 . S
O580 C564 1.215 . S
O581 Ho553 2.524 . S
O581 C564 1.289 . S
O582 Ho553 2.381 . S
O582 C571 1.275 1_556 S
O583 Ho552 2.305 . S
O583 Ho553 2.669 1_554 S
O583 C571 1.256 . S
H584 C557 0.930 . S
H585 C558 0.931 . S
H586 C560 0.934 . S
H587 C561 0.930 . S
H588 C566 0.930 . S
H589 C567 0.931 . S
H590 C569 0.934 . S
H591 C570 0.930 . S
Ho592 C595 2.811 . S
Ho592 O612 2.322 . S
Ho592 O614 2.378 . S
Ho592 O615 2.524 . S
Ho592 O616 2.381 . S
Ho592 O617 2.669 . S
Ho592 O619 2.346 . S
Ho592 O623 2.305 . S
Ho593 C604 2.811 . S
Ho593 O613 2.346 . S
Ho593 O617 2.305 . S
Ho593 O618 2.322 . S
Ho593 O620 2.378 . S
Ho593 O621 2.524 . S
Ho593 O622 2.381 . S
Ho593 O623 2.669 . S
C594 O612 1.259 . S
C594 O613 1.268 . S
C595 Ho592 2.811 . S
C595 C596 1.488 . S
C595 O614 1.215 . S
C595 O615 1.289 . S
C596 C595 1.488 . S
C596 C597 1.348 . S
C596 C601 1.413 . S
C597 C596 1.348 . S
C597 C598 1.442 . S
C597 H624 0.930 . S
C598 C597 1.442 . S
C598 C599 1.381 . S
C598 H625 0.931 . S
C599 C598 1.381 . S
C599 C600 1.321 . S
C600 C599 1.321 . S
C600 C601 1.403 . S
C600 H626 0.934 . S
C601 C596 1.413 . S
C601 C600 1.403 . S
C601 H627 0.930 . S
C602 O616 1.275 . S
C602 O617 1.256 . S
C603 O618 1.259 . S
C603 O619 1.268 . S
C604 Ho593 2.811 . S
C604 C605 1.488 . S
C604 O620 1.215 . S
C604 O621 1.289 . S
C605 C604 1.488 . S
C605 C606 1.348 . S
C605 C610 1.413 . S
C606 C605 1.348 . S
C606 C607 1.442 . S
C606 H628 0.930 . S
C607 C606 1.442 . S
C607 C608 1.381 . S
C607 H629 0.931 . S
C608 C607 1.381 . S
C608 C609 1.321 . S
C609 C608 1.321 . S
C609 C610 1.403 . S
C609 H630 0.934 . S
C610 C605 1.413 . S
C610 C609 1.403 . S
C610 H631 0.930 . S
C611 O622 1.275 . S
C611 O623 1.256 . S
O612 Ho592 2.322 . S
O612 C594 1.259 . S
O613 Ho593 2.346 . S
O613 C594 1.268 . S
O614 Ho592 2.378 . S
O614 C595 1.215 . S
O615 Ho592 2.524 . S
O615 C595 1.289 . S
O616 Ho592 2.381 . S
O616 C602 1.275 . S
O617 Ho592 2.669 . S
O617 Ho593 2.305 . S
O617 C602 1.256 . S
O618 Ho593 2.322 . S
O618 C603 1.259 . S
O619 Ho592 2.346 . S
O619 C603 1.268 . S
O620 Ho593 2.378 . S
O620 C604 1.215 . S
O621 Ho593 2.524 . S
O621 C604 1.289 . S
O622 Ho593 2.381 . S
O622 C611 1.275 . S
O623 Ho592 2.305 . S
O623 Ho593 2.669 . S
O623 C611 1.256 . S
H624 C597 0.930 . S
H625 C598 0.931 . S
H626 C600 0.934 . S
H627 C601 0.930 . S
H628 C606 0.930 . S
H629 C607 0.931 . S
H630 C609 0.934 . S
H631 C610 0.930 . S
Ho632 C635 2.811 1_554 S
Ho632 O652 2.322 1_554 S
Ho632 O654 2.378 . S
Ho632 O655 2.524 1_554 S
Ho632 O656 2.381 . S
Ho632 O657 2.669 . S
Ho632 O659 2.346 . S
Ho632 O663 2.305 . S
Ho633 C644 2.811 1_556 S
Ho633 O653 2.346 . S
Ho633 O657 2.305 1_556 S
Ho633 O658 2.322 1_556 S
Ho633 O660 2.378 1_556 S
Ho633 O661 2.524 1_556 S
Ho633 O662 2.381 . S
Ho633 O663 2.669 1_556 S
C634 O652 1.259 . S
C634 O653 1.268 . S
C635 Ho632 2.811 1_556 S
C635 C636 1.488 . S
C635 O654 1.215 1_556 S
C635 O655 1.289 . S
C636 C635 1.488 . S
C636 C637 1.348 . S
C636 C641 1.413 . S
C637 C636 1.348 . S
C637 C638 1.442 . S
C637 H664 0.930 . S
C638 C637 1.442 . S
C638 C639 1.381 . S
C638 H665 0.931 . S
C639 C638 1.381 . S
C639 C640 1.321 . S
C640 C639 1.321 . S
C640 C641 1.403 . S
C640 H666 0.934 . S
C641 C636 1.413 . S
C641 C640 1.403 . S
C641 H667 0.930 . S
C642 O656 1.275 . S
C642 O657 1.256 . S
C643 O658 1.259 . S
C643 O659 1.268 . S
C644 Ho633 2.811 1_554 S
C644 C645 1.488 . S
C644 O660 1.215 . S
C644 O661 1.289 . S
C645 C644 1.488 . S
C645 C646 1.348 . S
C645 C650 1.413 . S
C646 C645 1.348 . S
C646 C647 1.442 . S
C646 H668 0.930 . S
C647 C646 1.442 . S
C647 C648 1.381 . S
C647 H669 0.931 . S
C648 C647 1.381 . S
C648 C649 1.321 . S
C649 C648 1.321 . S
C649 C650 1.403 . S
C649 H670 0.934 . S
C650 C645 1.413 . S
C650 C649 1.403 . S
C650 H671 0.930 . S
C651 O662 1.275 . S
C651 O663 1.256 1_556 S
O652 Ho632 2.322 1_556 S
O652 C634 1.259 . S
O653 Ho633 2.346 . S
O653 C634 1.268 . S
O654 Ho632 2.378 . S
O654 C635 1.215 1_554 S
O655 Ho632 2.524 1_556 S
O655 C635 1.289 . S
O656 Ho632 2.381 . S
O656 C642 1.275 . S
O657 Ho632 2.669 . S
O657 Ho633 2.305 1_554 S
O657 C642 1.256 . S
O658 Ho633 2.322 1_554 S
O658 C643 1.259 . S
O659 Ho632 2.346 . S
O659 C643 1.268 . S
O660 Ho633 2.378 1_554 S
O660 C644 1.215 . S
O661 Ho633 2.524 1_554 S
O661 C644 1.289 . S
O662 Ho633 2.381 . S
O662 C651 1.275 . S
O663 Ho632 2.305 . S
O663 Ho633 2.669 1_554 S
O663 C651 1.256 1_554 S
H664 C637 0.930 . S
H665 C638 0.931 . S
H666 C640 0.934 . S
H667 C641 0.930 . S
H668 C646 0.930 . S
H669 C647 0.931 . S
H670 C649 0.934 . S
H671 C650 0.930 . S
Ho672 C675 2.811 . S
Ho672 O692 2.322 . S
Ho672 O694 2.378 . S
Ho672 O695 2.524 . S
Ho672 O696 2.381 . S
Ho672 O697 2.669 . S
Ho672 O699 2.346 . S
Ho672 O703 2.305 . S
Ho673 C684 2.811 . S
Ho673 O693 2.346 . S
Ho673 O697 2.305 . S
Ho673 O698 2.322 . S
Ho673 O700 2.378 . S
Ho673 O701 2.524 . S
Ho673 O702 2.381 . S
Ho673 O703 2.669 . S
C674 O692 1.259 . S
C674 O693 1.268 . S
C675 Ho672 2.811 . S
C675 C676 1.488 . S
C675 O694 1.215 . S
C675 O695 1.289 . S
C676 C675 1.488 . S
C676 C677 1.348 . S
C676 C681 1.413 . S
C677 C676 1.348 . S
C677 C678 1.442 . S
C677 H704 0.930 . S
C678 C677 1.442 . S
C678 C679 1.381 1_655 S
C678 H705 0.931 . S
C679 C678 1.381 1_455 S
C679 C680 1.321 1_455 S
C680 C679 1.321 1_655 S
C680 C681 1.403 . S
C680 H706 0.934 1_655 S
C681 C676 1.413 . S
C681 C680 1.403 . S
C681 H707 0.930 . S
C682 O696 1.275 . S
C682 O697 1.256 . S
C683 O698 1.259 . S
C683 O699 1.268 . S
C684 Ho673 2.811 . S
C684 C685 1.488 . S
C684 O700 1.215 . S
C684 O701 1.289 . S
C685 C684 1.488 . S
C685 C686 1.348 . S
C685 C690 1.413 . S
C686 C685 1.348 . S
C686 C687 1.442 . S
C686 H708 0.930 . S
C687 C686 1.442 . S
C687 C688 1.381 . S
C687 H709 0.931 . S
C688 C687 1.381 . S
C688 C689 1.321 . S
C689 C688 1.321 . S
C689 C690 1.403 . S
C689 H710 0.934 . S
C690 C685 1.413 . S
C690 C689 1.403 . S
C690 H711 0.930 . S
C691 O702 1.275 . S
C691 O703 1.256 . S
O692 Ho672 2.322 . S
O692 C674 1.259 . S
O693 Ho673 2.346 . S
O693 C674 1.268 . S
O694 Ho672 2.378 . S
O694 C675 1.215 . S
O695 Ho672 2.524 . S
O695 C675 1.289 . S
O696 Ho672 2.381 . S
O696 C682 1.275 . S
O697 Ho672 2.669 . S
O697 Ho673 2.305 . S
O697 C682 1.256 . S
O698 Ho673 2.322 . S
O698 C683 1.259 . S
O699 Ho672 2.346 . S
O699 C683 1.268 . S
O700 Ho673 2.378 . S
O700 C684 1.215 . S
O701 Ho673 2.524 . S
O701 C684 1.289 . S
O702 Ho673 2.381 . S
O702 C691 1.275 . S
O703 Ho672 2.305 . S
O703 Ho673 2.669 . S
O703 C691 1.256 . S
H704 C677 0.930 . S
H705 C678 0.931 . S
H706 C680 0.934 1_455 S
H707 C681 0.930 . S
H708 C686 0.930 . S
H709 C687 0.931 . S
H710 C689 0.934 . S
H711 C690 0.930 . S
Ho712 C715 2.811 . S
Ho712 O732 2.322 . S
Ho712 O734 2.378 . S
Ho712 O735 2.524 . S
Ho712 O736 2.381 . S
Ho712 O737 2.669 . S
Ho712 O739 2.346 . S
Ho712 O743 2.305 . S
Ho713 C724 2.811 . S
Ho713 O733 2.346 . S
Ho713 O737 2.305 . S
Ho713 O738 2.322 . S
Ho713 O740 2.378 . S
Ho713 O741 2.524 . S
Ho713 O742 2.381 . S
Ho713 O743 2.669 . S
C714 O732 1.259 1_655 S
C714 O733 1.268 1_655 S
C715 Ho712 2.811 . S
C715 C716 1.488 . S
C715 O734 1.215 . S
C715 O735 1.289 . S
C716 C715 1.488 . S
C716 C717 1.348 1_455 S
C716 C721 1.413 . S
C717 C716 1.348 1_655 S
C717 C718 1.442 . S
C717 H744 0.930 . S
C718 C717 1.442 . S
C718 C719 1.381 . S
C718 H745 0.931 . S
C719 C718 1.381 . S
C719 C720 1.321 . S
C720 C719 1.321 . S
C720 C721 1.403 1_655 S
C720 H746 0.939 . S
C721 C716 1.413 . S
C721 C720 1.403 1_455 S
C721 H747 0.930 . S
C722 O736 1.275 . S
C722 O737 1.256 . S
C723 O738 1.259 . S
C723 O739 1.268 . S
C724 Ho713 2.811 . S
C724 C725 1.488 . S
C724 O740 1.215 . S
C724 O741 1.289 . S
C725 C724 1.488 . S
C725 C726 1.348 . S
C725 C730 1.413 . S
C726 C725 1.348 . S
C726 C727 1.442 . S
C726 H748 0.930 . S
C727 C726 1.442 . S
C727 C728 1.381 . S
C727 H749 0.931 . S
C728 C727 1.381 . S
C728 C729 1.321 . S
C729 C728 1.321 . S
C729 C730 1.403 . S
C729 H750 0.934 . S
C730 C725 1.413 . S
C730 C729 1.403 . S
C730 H751 0.930 . S
C731 O742 1.275 . S
C731 O743 1.256 . S
O732 Ho712 2.322 . S
O732 C714 1.259 1_455 S
O733 Ho713 2.346 . S
O733 C714 1.268 1_455 S
O734 Ho712 2.378 . S
O734 C715 1.215 . S
O735 Ho712 2.524 . S
O735 C715 1.289 . S
O736 Ho712 2.381 . S
O736 C722 1.275 . S
O737 Ho712 2.669 . S
O737 Ho713 2.305 . S
O737 C722 1.256 . S
O738 Ho713 2.322 . S
O738 C723 1.259 . S
O739 Ho712 2.346 . S
O739 C723 1.268 . S
O740 Ho713 2.378 . S
O740 C724 1.215 . S
O741 Ho713 2.524 . S
O741 C724 1.289 . S
O742 Ho713 2.381 . S
O742 C731 1.275 . S
O743 Ho712 2.305 . S
O743 Ho713 2.669 . S
O743 C731 1.256 . S
H744 C717 0.930 . S
H745 C718 0.931 . S
H746 C720 0.939 . S
H747 C721 0.930 . S
H748 C726 0.930 . S
H749 C727 0.931 . S
H750 C729 0.934 . S
H751 C730 0.930 . S
Ho752 C755 2.811 . S
Ho752 O772 2.322 . S
Ho752 O774 2.378 . S
Ho752 O775 2.524 . S
Ho752 O776 2.381 . S
Ho752 O777 2.669 . S
Ho752 O779 2.346 . S
Ho752 O783 2.305 . S
Ho753 C764 2.811 . S
Ho753 O773 2.346 . S
Ho753 O777 2.305 . S
Ho753 O778 2.322 . S
Ho753 O780 2.378 . S
Ho753 O781 2.524 . S
Ho753 O782 2.381 . S
Ho753 O783 2.669 . S
C754 O772 1.259 . S
C754 O773 1.268 . S
C755 Ho752 2.811 . S
C755 C756 1.488 . S
C755 O774 1.215 . S
C755 O775 1.289 . S
C756 C755 1.488 . S
C756 C757 1.348 . S
C756 C761 1.413 . S
C757 C756 1.348 . S
C757 C758 1.442 . S
C757 H784 0.930 . S
C758 C757 1.442 . S
C758 C759 1.381 . S
C758 H785 0.931 . S
C759 C758 1.381 . S
C759 C760 1.321 . S
C760 C759 1.321 . S
C760 C761 1.403 . S
C760 H786 0.934 . S
C761 C756 1.413 . S
C761 C760 1.403 . S
C761 H787 0.930 . S
C762 O776 1.275 . S
C762 O777 1.256 . S
C763 O778 1.259 . S
C763 O779 1.268 . S
C764 Ho753 2.811 . S
C764 C765 1.488 . S
C764 O780 1.215 . S
C764 O781 1.289 . S
C765 C764 1.488 . S
C765 C766 1.348 . S
C765 C770 1.413 . S
C766 C765 1.348 . S
C766 C767 1.442 . S
C766 H788 0.930 . S
C767 C766 1.442 . S
C767 C768 1.381 . S
C767 H789 0.931 . S
C768 C767 1.381 . S
C768 C769 1.321 . S
C769 C768 1.321 . S
C769 C770 1.403 . S
C769 H790 0.934 . S
C770 C765 1.413 . S
C770 C769 1.403 . S
C770 H791 0.930 . S
C771 O782 1.275 . S
C771 O783 1.256 . S
O772 Ho752 2.322 . S
O772 C754 1.259 . S
O773 Ho753 2.346 . S
O773 C754 1.268 . S
O774 Ho752 2.378 . S
O774 C755 1.215 . S
O775 Ho752 2.524 . S
O775 C755 1.289 . S
O776 Ho752 2.381 . S
O776 C762 1.275 . S
O777 Ho752 2.669 . S
O777 Ho753 2.305 . S
O777 C762 1.256 . S
O778 Ho753 2.322 . S
O778 C763 1.259 . S
O779 Ho752 2.346 . S
O779 C763 1.268 . S
O780 Ho753 2.378 . S
O780 C764 1.215 . S
O781 Ho753 2.524 . S
O781 C764 1.289 . S
O782 Ho753 2.381 . S
O782 C771 1.275 . S
O783 Ho752 2.305 . S
O783 Ho753 2.669 . S
O783 C771 1.256 . S
H784 C757 0.930 . S
H785 C758 0.931 . S
H786 C760 0.934 . S
H787 C761 0.930 . S
H788 C766 0.930 . S
H789 C767 0.931 . S
H790 C769 0.934 . S
H791 C770 0.930 . S
Ho792 C795 2.811 . S
Ho792 O812 2.322 . S
Ho792 O814 2.378 . S
Ho792 O815 2.524 . S
Ho792 O816 2.381 . S
Ho792 O817 2.669 . S
Ho792 O819 2.346 . S
Ho792 O823 2.305 . S
Ho793 C804 2.811 . S
Ho793 O813 2.346 . S
Ho793 O817 2.305 . S
Ho793 O818 2.322 . S
Ho793 O820 2.378 . S
Ho793 O821 2.524 . S
Ho793 O822 2.381 . S
Ho793 O823 2.669 . S
C794 O812 1.259 . S
C794 O813 1.268 . S
C795 Ho792 2.811 . S
C795 C796 1.488 . S
C795 O814 1.215 . S
C795 O815 1.289 . S
C796 C795 1.488 . S
C796 C797 1.348 . S
C796 C801 1.413 . S
C797 C796 1.348 . S
C797 C798 1.442 . S
C797 H824 0.930 . S
C798 C797 1.442 . S
C798 C799 1.381 . S
C798 H825 0.931 . S
C799 C798 1.381 . S
C799 C800 1.321 . S
C800 C799 1.321 . S
C800 C801 1.403 . S
C800 H826 0.934 . S
C801 C796 1.413 . S
C801 C800 1.403 . S
C801 H827 0.930 . S
C802 O816 1.275 . S
C802 O817 1.256 . S
C803 O818 1.259 . S
C803 O819 1.268 . S
C804 Ho793 2.811 . S
C804 C805 1.488 . S
C804 O820 1.215 . S
C804 O821 1.289 . S
C805 C804 1.488 . S
C805 C806 1.348 . S
C805 C810 1.413 . S
C806 C805 1.348 . S
C806 C807 1.442 . S
C806 H828 0.930 . S
C807 C806 1.442 . S
C807 C808 1.381 . S
C807 H829 0.931 . S
C808 C807 1.381 . S
C808 C809 1.321 . S
C809 C808 1.321 . S
C809 C810 1.403 . S
C809 H830 0.934 . S
C810 C805 1.413 . S
C810 C809 1.403 . S
C810 H831 0.930 . S
C811 O822 1.275 . S
C811 O823 1.256 . S
O812 Ho792 2.322 . S
O812 C794 1.259 . S
O813 Ho793 2.346 . S
O813 C794 1.268 . S
O814 Ho792 2.378 . S
O814 C795 1.215 . S
O815 Ho792 2.524 . S
O815 C795 1.289 . S
O816 Ho792 2.381 . S
O816 C802 1.275 . S
O817 Ho792 2.669 . S
O817 Ho793 2.305 . S
O817 C802 1.256 . S
O818 Ho793 2.322 . S
O818 C803 1.259 . S
O819 Ho792 2.346 . S
O819 C803 1.268 . S
O820 Ho793 2.378 . S
O820 C804 1.215 . S
O821 Ho793 2.524 . S
O821 C804 1.289 . S
O822 Ho793 2.381 . S
O822 C811 1.275 . S
O823 Ho792 2.305 . S
O823 Ho793 2.669 . S
O823 C811 1.256 . S
H824 C797 0.930 . S
H825 C798 0.931 . S
H826 C800 0.934 . S
H827 C801 0.930 . S
H828 C806 0.930 . S
H829 C807 0.931 . S
H830 C809 0.934 . S
H831 C810 0.930 . S
Ho832 C835 2.811 . S
Ho832 O852 2.322 . S
Ho832 O854 2.378 . S
Ho832 O855 2.524 . S
Ho832 O856 2.381 . S
Ho832 O857 2.669 . S
Ho832 O859 2.346 . S
Ho832 O863 2.305 . S
Ho833 C844 2.811 . S
Ho833 O853 2.346 . S
Ho833 O857 2.305 . S
Ho833 O858 2.322 . S
Ho833 O860 2.378 . S
Ho833 O861 2.524 . S
Ho833 O862 2.381 . S
Ho833 O863 2.669 . S
C834 O852 1.259 . S
C834 O853 1.268 . S
C835 Ho832 2.811 . S
C835 C836 1.488 . S
C835 O854 1.215 . S
C835 O855 1.289 . S
C836 C835 1.488 . S
C836 C837 1.348 . S
C836 C841 1.413 . S
C837 C836 1.348 . S
C837 C838 1.442 . S
C837 H864 0.930 . S
C838 C837 1.442 . S
C838 C839 1.381 . S
C838 H865 0.931 . S
C839 C838 1.381 . S
C839 C840 1.321 . S
C840 C839 1.321 . S
C840 C841 1.403 . S
C840 H866 0.934 . S
C841 C836 1.413 . S
C841 C840 1.403 . S
C841 H867 0.930 . S
C842 O856 1.275 . S
C842 O857 1.256 . S
C843 O858 1.259 . S
C843 O859 1.268 . S
C844 Ho833 2.811 . S
C844 C845 1.488 . S
C844 O860 1.215 . S
C844 O861 1.289 . S
C845 C844 1.488 . S
C845 C846 1.348 . S
C845 C850 1.413 . S
C846 C845 1.348 . S
C846 C847 1.442 . S
C846 H868 0.930 . S
C847 C846 1.442 . S
C847 C848 1.381 . S
C847 H869 0.931 . S
C848 C847 1.381 . S
C848 C849 1.321 . S
C849 C848 1.321 . S
C849 C850 1.403 . S
C849 H870 0.934 . S
C850 C845 1.413 . S
C850 C849 1.403 . S
C850 H871 0.930 . S
C851 O862 1.275 . S
C851 O863 1.256 . S
O852 Ho832 2.322 . S
O852 C834 1.259 . S
O853 Ho833 2.346 . S
O853 C834 1.268 . S
O854 Ho832 2.378 . S
O854 C835 1.215 . S
O855 Ho832 2.524 . S
O855 C835 1.289 . S
O856 Ho832 2.381 . S
O856 C842 1.275 . S
O857 Ho832 2.669 . S
O857 Ho833 2.305 . S
O857 C842 1.256 . S
O858 Ho833 2.322 . S
O858 C843 1.259 . S
O859 Ho832 2.346 . S
O859 C843 1.268 . S
O860 Ho833 2.378 . S
O860 C844 1.215 . S
O861 Ho833 2.524 . S
O861 C844 1.289 . S
O862 Ho833 2.381 . S
O862 C851 1.275 . S
O863 Ho832 2.305 . S
O863 Ho833 2.669 . S
O863 C851 1.256 . S
H864 C837 0.930 . S
H865 C838 0.931 . S
H866 C840 0.934 . S
H867 C841 0.930 . S
H868 C846 0.930 . S
H869 C847 0.931 . S
H870 C849 0.934 . S
H871 C850 0.930 . S
Ho872 C875 2.811 . S
Ho872 O892 2.322 . S
Ho872 O894 2.378 . S
Ho872 O895 2.524 . S
Ho872 O896 2.381 . S
Ho872 O897 2.669 . S
Ho872 O899 2.346 . S
Ho872 O903 2.305 . S
Ho873 C884 2.811 . S
Ho873 O893 2.346 . S
Ho873 O897 2.305 . S
Ho873 O898 2.322 . S
Ho873 O900 2.378 . S
Ho873 O901 2.524 . S
Ho873 O902 2.381 . S
Ho873 O903 2.669 . S
C874 O892 1.259 . S
C874 O893 1.268 . S
C875 Ho872 2.811 . S
C875 C876 1.488 . S
C875 O894 1.215 . S
C875 O895 1.289 . S
C876 C875 1.488 . S
C876 C877 1.348 . S
C876 C881 1.413 . S
C877 C876 1.348 . S
C877 C878 1.442 . S
C877 H904 0.930 . S
C878 C877 1.442 . S
C878 C879 1.381 . S
C878 H905 0.931 . S
C879 C878 1.381 . S
C879 C880 1.321 . S
C880 C879 1.321 . S
C880 C881 1.403 . S
C880 H906 0.934 . S
C881 C876 1.413 . S
C881 C880 1.403 . S
C881 H907 0.930 . S
C882 O896 1.275 . S
C882 O897 1.256 . S
C883 O898 1.259 . S
C883 O899 1.268 . S
C884 Ho873 2.811 . S
C884 C885 1.488 . S
C884 O900 1.215 . S
C884 O901 1.289 . S
C885 C884 1.488 . S
C885 C886 1.348 . S
C885 C890 1.413 . S
C886 C885 1.348 . S
C886 C887 1.442 . S
C886 H908 0.930 . S
C887 C886 1.442 . S
C887 C888 1.381 . S
C887 H909 0.931 . S
C888 C887 1.381 . S
C888 C889 1.321 . S
C889 C888 1.321 . S
C889 C890 1.403 . S
C889 H910 0.934 . S
C890 C885 1.413 . S
C890 C889 1.403 . S
C890 H911 0.930 . S
C891 O902 1.275 . S
C891 O903 1.256 . S
O892 Ho872 2.322 . S
O892 C874 1.259 . S
O893 Ho873 2.346 . S
O893 C874 1.268 . S
O894 Ho872 2.378 . S
O894 C875 1.215 . S
O895 Ho872 2.524 . S
O895 C875 1.289 . S
O896 Ho872 2.381 . S
O896 C882 1.275 . S
O897 Ho872 2.669 . S
O897 Ho873 2.305 . S
O897 C882 1.256 . S
O898 Ho873 2.322 . S
O898 C883 1.259 . S
O899 Ho872 2.346 . S
O899 C883 1.268 . S
O900 Ho873 2.378 . S
O900 C884 1.215 . S
O901 Ho873 2.524 . S
O901 C884 1.289 . S
O902 Ho873 2.381 . S
O902 C891 1.275 . S
O903 Ho872 2.305 . S
O903 Ho873 2.669 . S
O903 C891 1.256 . S
H904 C877 0.930 . S
H905 C878 0.931 . S
H906 C880 0.934 . S
H907 C881 0.930 . S
H908 C886 0.930 . S
H909 C887 0.931 . S
H910 C889 0.934 . S
H911 C890 0.930 . S
Ho912 C915 2.811 . S
Ho912 O932 2.322 . S
Ho912 O934 2.378 1_554 S
Ho912 O935 2.524 . S
Ho912 O936 2.381 1_554 S
Ho912 O937 2.669 . S
Ho912 O939 2.346 . S
Ho912 O943 2.305 . S
Ho913 C924 2.811 1_455 S
Ho913 O933 2.346 . S
Ho913 O937 2.305 . S
Ho913 O938 2.322 . S
Ho913 O940 2.378 1_455 S
Ho913 O941 2.524 1_455 S
Ho913 O942 2.381 . S
Ho913 O943 2.669 . S
C914 O932 1.259 . S
C914 O933 1.268 . S
C915 Ho912 2.811 . S
C915 C916 1.488 . S
C915 O934 1.215 1_554 S
C915 O935 1.289 . S
C916 C915 1.488 . S
C916 C917 1.348 . S
C916 C921 1.413 1_554 S
C917 C916 1.348 . S
C917 C918 1.442 . S
C917 H944 0.930 . S
C918 C917 1.442 . S
C918 C919 1.381 1_554 S
C918 H945 0.931 . S
C919 C918 1.381 1_556 S
C919 C920 1.321 . S
C920 C919 1.321 . S
C920 C921 1.403 . S
C920 H946 0.934 . S
C921 C916 1.413 1_556 S
C921 C920 1.403 . S
C921 H947 0.930 . S
C922 O936 1.275 . S
C922 O937 1.256 1_556 S
C923 O938 1.259 . S
C923 O939 1.268 . S
C924 Ho913 2.811 1_655 S
C924 C925 1.488 . S
C924 O940 1.215 . S
C924 O941 1.289 . S
C925 C924 1.488 . S
C925 C926 1.348 . S
C925 C930 1.413 . S
C926 C925 1.348 . S
C926 C927 1.442 . S
C926 H948 0.930 . S
C927 C926 1.442 . S
C927 C928 1.381 . S
C927 H949 0.931 . S
C928 C927 1.381 . S
C928 C929 1.321 . S
C929 C928 1.321 . S
C929 C930 1.403 . S
C929 H950 0.934 . S
C930 C925 1.413 . S
C930 C929 1.403 . S
C930 H951 0.930 . S
C931 O942 1.275 . S
C931 O943 1.256 . S
O932 Ho912 2.322 . S
O932 C914 1.259 . S
O933 Ho913 2.346 . S
O933 C914 1.268 . S
O934 Ho912 2.378 1_556 S
O934 C915 1.215 1_556 S
O935 Ho912 2.524 . S
O935 C915 1.289 . S
O936 Ho912 2.381 1_556 S
O936 C922 1.275 . S
O937 Ho912 2.669 . S
O937 Ho913 2.305 . S
O937 C922 1.256 1_554 S
O938 Ho913 2.322 . S
O938 C923 1.259 . S
O939 Ho912 2.346 . S
O939 C923 1.268 . S
O940 Ho913 2.378 1_655 S
O940 C924 1.215 . S
O941 Ho913 2.524 1_655 S
O941 C924 1.289 . S
O942 Ho913 2.381 . S
O942 C931 1.275 . S
O943 Ho912 2.305 . S
O943 Ho913 2.669 . S
O943 C931 1.256 . S
H944 C917 0.930 . S
H945 C918 0.931 . S
H946 C920 0.934 . S
H947 C921 0.930 . S
H948 C926 0.930 . S
H949 C927 0.931 . S
H950 C929 0.934 . S
H951 C930 0.930 . S
C952 C953 1.369 . S
C952 C954 1.419 . S
C952 H956 0.930 . S
C953 C952 1.369 . S
C953 C962 1.429 1_556 S
C954 C952 1.419 . S
C954 C955 1.363 1_556 S
C954 H957 0.929 . S
C955 C954 1.363 1_554 S
C955 C961 1.428 . S
H956 C952 0.930 . S
H957 C954 0.929 . S
S958 N959 1.613 . S
S958 N960 1.610 . S
N959 S958 1.613 . S
N959 C962 1.350 . S
N960 S958 1.610 . S
N960 C961 1.351 . S
C961 C955 1.428 . S
C961 N960 1.351 . S
C961 C962 1.434 . S
C962 C953 1.429 1_554 S
C962 N959 1.350 . S
C962 C961 1.434 . S
C963 C964 1.369 . S
C963 C965 1.419 . S
C963 H967 0.930 . S
C964 C963 1.369 . S
C964 C973 1.429 . S
C965 C963 1.419 . S
C965 C966 1.363 . S
C965 H968 0.929 . S
C966 C965 1.363 . S
C966 C972 1.428 . S
H967 C963 0.930 . S
H968 C965 0.929 . S
S969 N970 1.613 . S
S969 N971 1.610 . S
N970 S969 1.613 . S
N970 C973 1.350 . S
N971 S969 1.610 . S
N971 C972 1.351 . S
C972 C966 1.428 . S
C972 N971 1.351 . S
C972 C973 1.434 . S
C973 C964 1.429 . S
C973 N970 1.350 . S
C973 C972 1.434 . S
C974 C975 1.369 . S
C974 C976 1.419 . S
C974 H978 0.930 . S
C975 C974 1.369 . S
C975 C984 1.429 . S
C976 C974 1.419 . S
C976 C977 1.363 . S
C976 H979 0.929 . S
C977 C976 1.363 . S
C977 C983 1.428 . S
H978 C974 0.930 . S
H979 C976 0.929 . S
S980 N981 1.613 . S
S980 N982 1.610 . S
N981 S980 1.613 . S
N981 C984 1.350 . S
N982 S980 1.610 . S
N982 C983 1.351 . S
C983 C977 1.428 . S
C983 N982 1.351 . S
C983 C984 1.434 . S
C984 C975 1.429 . S
C984 N981 1.350 . S
C984 C983 1.434 . S
C985 C986 1.369 . S
C985 C987 1.419 . S
C985 H989 0.930 . S
C986 C985 1.369 . S
C986 C995 1.429 . S
C987 C985 1.419 . S
C987 C988 1.363 . S
C987 H990 0.929 . S
C988 C987 1.363 . S
C988 C994 1.428 . S
H989 C985 0.930 . S
H990 C987 0.929 . S
S991 N992 1.613 . S
S991 N993 1.610 . S
N992 S991 1.613 . S
N992 C995 1.350 . S
N993 S991 1.610 . S
N993 C994 1.351 . S
C994 C988 1.428 . S
C994 N993 1.351 . S
C994 C995 1.434 . S
C995 C986 1.429 . S
C995 N992 1.350 . S
C995 C994 1.434 . S
C996 C997 1.369 . S
C996 C998 1.419 . S
C996 H1000 0.930 . S
C997 C996 1.369 . S
C997 C1006 1.429 . S
C998 C996 1.419 . S
C998 C999 1.363 . S
C998 H1001 0.929 . S
C999 C998 1.363 . S
C999 C1005 1.428 . S
H1000 C996 0.930 . S
H1001 C998 0.929 . S
S1002 N1003 1.613 . S
S1002 N1004 1.610 . S
N1003 S1002 1.613 . S
N1003 C1006 1.350 . S
N1004 S1002 1.610 . S
N1004 C1005 1.351 . S
C1005 C999 1.428 . S
C1005 N1004 1.351 . S
C1005 C1006 1.434 . S
C1006 C997 1.429 . S
C1006 N1003 1.350 . S
C1006 C1005 1.434 . S
C1007 C1008 1.369 . S
C1007 C1009 1.419 . S
C1007 H1011 0.930 . S
C1008 C1007 1.369 . S
C1008 C1017 1.429 . S
C1009 C1007 1.419 . S
C1009 C1010 1.363 . S
C1009 H1012 0.929 . S
C1010 C1009 1.363 . S
C1010 C1016 1.428 . S
H1011 C1007 0.930 . S
H1012 C1009 0.929 . S
S1013 N1014 1.613 . S
S1013 N1015 1.610 . S
N1014 S1013 1.613 . S
N1014 C1017 1.350 . S
N1015 S1013 1.610 . S
N1015 C1016 1.351 . S
C1016 C1010 1.428 . S
C1016 N1015 1.351 . S
C1016 C1017 1.434 . S
C1017 C1008 1.429 . S
C1017 N1014 1.350 . S
C1017 C1016 1.434 . S
C1018 C1019 1.369 . S
C1018 C1020 1.419 . S
C1018 H1022 0.930 . S
C1019 C1018 1.369 . S
C1019 C1028 1.429 . S
C1020 C1018 1.419 . S
C1020 C1021 1.363 . S
C1020 H1023 0.929 . S
C1021 C1020 1.363 . S
C1021 C1027 1.428 . S
H1022 C1018 0.930 . S
H1023 C1020 0.929 . S
S1024 N1025 1.613 . S
S1024 N1026 1.610 . S
N1025 S1024 1.613 . S
N1025 C1028 1.350 . S
N1026 S1024 1.610 . S
N1026 C1027 1.351 . S
C1027 C1021 1.428 . S
C1027 N1026 1.351 . S
C1027 C1028 1.434 . S
C1028 C1019 1.429 . S
C1028 N1025 1.350 . S
C1028 C1027 1.434 . S
C1029 C1030 1.369 . S
C1029 C1031 1.419 . S
C1029 H1033 0.930 . S
C1030 C1029 1.369 . S
C1030 C1039 1.429 . S
C1031 C1029 1.419 . S
C1031 C1032 1.363 . S
C1031 H1034 0.929 . S
C1032 C1031 1.363 . S
C1032 C1038 1.428 . S
H1033 C1029 0.930 . S
H1034 C1031 0.929 . S
S1035 N1036 1.613 . S
S1035 N1037 1.610 . S
N1036 S1035 1.613 . S
N1036 C1039 1.350 . S
N1037 S1035 1.610 . S
N1037 C1038 1.351 . S
C1038 C1032 1.428 . S
C1038 N1037 1.351 . S
C1038 C1039 1.434 . S
C1039 C1030 1.429 . S
C1039 N1036 1.350 . S
C1039 C1038 1.434 . S
C1040 C1041 1.369 . S
C1040 C1042 1.419 . S
C1040 H1044 0.930 . S
C1041 C1040 1.369 . S
C1041 C1050 1.429 . S
C1042 C1040 1.419 . S
C1042 C1043 1.363 . S
C1042 H1045 0.929 . S
C1043 C1042 1.363 . S
C1043 C1049 1.428 . S
H1044 C1040 0.930 . S
H1045 C1042 0.929 . S
S1046 N1047 1.613 1_565 S
S1046 N1048 1.610 1_665 S
N1047 S1046 1.613 1_545 S
N1047 C1050 1.350 1_655 S
N1048 S1046 1.610 1_445 S
N1048 C1049 1.351 . S
C1049 C1043 1.428 . S
C1049 N1048 1.351 . S
C1049 C1050 1.434 . S
C1050 C1041 1.429 . S
C1050 N1047 1.350 1_455 S
C1050 C1049 1.434 . S
C1051 C1052 1.369 . S
C1051 C1053 1.419 . S
C1051 H1055 0.930 . S
C1052 C1051 1.369 . S
C1052 C1061 1.429 . S
C1053 C1051 1.419 . S
C1053 C1054 1.363 . S
C1053 H1056 0.929 . S
C1054 C1053 1.363 . S
C1054 C1060 1.428 . S
H1055 C1051 0.930 . S
H1056 C1053 0.929 . S
S1057 N1058 1.613 . S
S1057 N1059 1.610 . S
N1058 S1057 1.613 . S
N1058 C1061 1.350 . S
N1059 S1057 1.610 . S
N1059 C1060 1.351 . S
C1060 C1054 1.428 . S
C1060 N1059 1.351 . S
C1060 C1061 1.434 . S
C1061 C1052 1.429 . S
C1061 N1058 1.350 . S
C1061 C1060 1.434 . S
C1062 C1063 1.369 . S
C1062 C1064 1.419 . S
C1062 H1066 0.930 . S
C1063 C1062 1.369 . S
C1063 C1072 1.429 . S
C1064 C1062 1.419 . S
C1064 C1065 1.363 . S
C1064 H1067 0.929 . S
C1065 C1064 1.363 . S
C1065 C1071 1.428 . S
H1066 C1062 0.930 . S
H1067 C1064 0.929 . S
S1068 N1069 1.613 1_565 S
S1068 N1070 1.610 . S
N1069 S1068 1.613 1_545 S
N1069 C1072 1.350 . S
N1070 S1068 1.610 . S
N1070 C1071 1.351 1_565 S
C1071 C1065 1.428 . S
C1071 N1070 1.351 1_545 S
C1071 C1072 1.434 . S
C1072 C1063 1.429 . S
C1072 N1069 1.350 . S
C1072 C1071 1.434 . S
C1073 C1074 1.369 . S
C1073 C1075 1.419 . S
C1073 H1077 0.930 . S
C1074 C1073 1.369 . S
C1074 C1083 1.429 . S
C1075 C1073 1.419 . S
C1075 C1076 1.363 . S
C1075 H1078 0.929 . S
C1076 C1075 1.363 . S
C1076 C1082 1.428 . S
H1077 C1073 0.930 . S
H1078 C1075 0.929 . S
S1079 N1080 1.613 . S
S1079 N1081 1.610 . S
N1080 S1079 1.613 . S
N1080 C1083 1.350 . S
N1081 S1079 1.610 . S
N1081 C1082 1.351 . S
C1082 C1076 1.428 . S
C1082 N1081 1.351 . S
C1082 C1083 1.434 . S
C1083 C1074 1.429 . S
C1083 N1080 1.350 . S
C1083 C1082 1.434 . S
C1084 C1085 1.369 . S
C1084 C1086 1.419 . S
C1084 H1088 0.930 . S
C1085 C1084 1.369 . S
C1085 C1094 1.429 1_455 S
C1086 C1084 1.419 . S
C1086 C1087 1.363 . S
C1086 H1089 0.929 . S
C1087 C1086 1.363 . S
C1087 C1093 1.428 . S
H1088 C1084 0.930 . S
H1089 C1086 0.929 . S
S1090 N1091 1.613 . S
S1090 N1092 1.610 1_655 S
N1091 S1090 1.613 . S
N1091 C1094 1.350 . S
N1092 S1090 1.610 1_455 S
N1092 C1093 1.351 . S
C1093 C1087 1.428 . S
C1093 N1092 1.351 . S
C1093 C1094 1.434 1_455 S
C1094 C1085 1.429 1_655 S
C1094 N1091 1.350 . S
C1094 C1093 1.434 1_655 S
C1095 C1096 1.369 . S
C1095 C1097 1.419 . S
C1095 H1099 0.930 . S
C1096 C1095 1.369 . S
C1096 C1105 1.429 . S
C1097 C1095 1.419 . S
C1097 C1098 1.363 . S
C1097 H1100 0.929 . S
C1098 C1097 1.363 . S
C1098 C1104 1.428 . S
H1099 C1095 0.930 . S
H1100 C1097 0.929 . S
S1101 N1102 1.613 . S
S1101 N1103 1.610 . S
N1102 S1101 1.613 . S
N1102 C1105 1.350 . S
N1103 S1101 1.610 . S
N1103 C1104 1.351 . S
C1104 C1098 1.428 . S
C1104 N1103 1.351 . S
C1104 C1105 1.434 . S
C1105 C1096 1.429 . S
C1105 N1102 1.350 . S
C1105 C1104 1.434 . S
C1106 C1107 1.369 . S
C1106 C1108 1.419 . S
C1106 H1110 0.930 . S
C1107 C1106 1.369 . S
C1107 C1116 1.429 . S
C1108 C1106 1.419 . S
C1108 C1109 1.363 . S
C1108 H1111 0.929 . S
C1109 C1108 1.363 . S
C1109 C1115 1.428 . S
H1110 C1106 0.930 . S
H1111 C1108 0.929 . S
S1112 N1113 1.613 . S
S1112 N1114 1.610 . S
N1113 S1112 1.613 . S
N1113 C1116 1.350 . S
N1114 S1112 1.610 . S
N1114 C1115 1.351 . S
C1115 C1109 1.428 . S
C1115 N1114 1.351 . S
C1115 C1116 1.434 . S
C1116 C1107 1.429 . S
C1116 N1113 1.350 . S
C1116 C1115 1.434 . S
C1117 C1118 1.369 . S
C1117 C1119 1.419 . S
C1117 H1121 0.930 . S
C1118 C1117 1.369 . S
C1118 C1127 1.429 . S
C1119 C1117 1.419 . S
C1119 C1120 1.363 . S
C1119 H1122 0.929 . S
C1120 C1119 1.363 . S
C1120 C1126 1.428 . S
H1121 C1117 0.930 . S
H1122 C1119 0.929 . S
S1123 N1124 1.613 . S
S1123 N1125 1.610 . S
N1124 S1123 1.613 . S
N1124 C1127 1.350 . S
N1125 S1123 1.610 . S
N1125 C1126 1.351 . S
C1126 C1120 1.428 . S
C1126 N1125 1.351 . S
C1126 C1127 1.434 . S
C1127 C1118 1.429 . S
C1127 N1124 1.350 . S
C1127 C1126 1.434 . S
C1128 C1129 1.369 . S
C1128 C1130 1.419 1_565 S
C1128 H1132 0.930 . S
C1129 C1128 1.369 . S
C1129 C1138 1.429 . S
C1130 C1128 1.419 1_545 S
C1130 C1131 1.363 . S
C1130 H1133 0.929 . S
C1131 C1130 1.363 . S
C1131 C1137 1.428 . S
H1132 C1128 0.930 . S
H1133 C1130 0.929 . S
S1134 N1135 1.613 . S
S1134 N1136 1.610 1_566 S
N1135 S1134 1.613 . S
N1135 C1138 1.350 1_556 S
N1136 S1134 1.610 1_544 S
N1136 C1137 1.351 . S
C1137 C1131 1.428 . S
C1137 N1136 1.351 . S
C1137 C1138 1.434 1_545 S
C1138 C1129 1.429 . S
C1138 N1135 1.350 1_554 S
C1138 C1137 1.434 1_565 S
C1139 C1140 1.369 . S
C1139 C1141 1.419 . S
C1139 H1143 0.930 . S
C1140 C1139 1.369 . S
C1140 C1149 1.429 . S
C1141 C1139 1.419 . S
C1141 C1142 1.363 . S
C1141 H1144 0.929 . S
C1142 C1141 1.363 . S
C1142 C1148 1.428 . S
H1143 C1139 0.930 . S
H1144 C1141 0.929 . S
S1145 N1146 1.613 . S
S1145 N1147 1.618 . S
N1146 S1145 1.613 . S
N1146 C1149 1.350 . S
N1147 S1145 1.618 . S
N1147 C1148 1.359 . S
C1148 C1142 1.428 . S
C1148 N1147 1.359 . S
C1148 C1149 1.434 . S
C1149 C1140 1.429 . S
C1149 N1146 1.350 . S
C1149 C1148 1.434 . S
C1150 C1151 1.369 . S
C1150 C1152 1.419 . S
C1150 H1154 0.930 . S
C1151 C1150 1.369 . S
C1151 C1160 1.429 . S
C1152 C1150 1.419 . S
C1152 C1153 1.363 . S
C1152 H1155 0.929 . S
C1153 C1152 1.363 . S
C1153 C1159 1.428 . S
H1154 C1150 0.930 . S
H1155 C1152 0.929 . S
S1156 N1157 1.613 . S
S1156 N1158 1.610 . S
N1157 S1156 1.613 . S
N1157 C1160 1.350 . S
N1158 S1156 1.610 . S
N1158 C1159 1.351 . S
C1159 C1153 1.428 . S
C1159 N1158 1.351 . S
C1159 C1160 1.434 . S
C1160 C1151 1.429 . S
C1160 N1157 1.350 . S
C1160 C1159 1.434 . S
C1161 C1162 1.369 . S
C1161 C1163 1.419 . S
C1161 H1165 0.930 . S
C1162 C1161 1.369 . S
C1162 C1171 1.429 . S
C1163 C1161 1.419 . S
C1163 C1164 1.363 . S
C1163 H1166 0.929 . S
C1164 C1163 1.363 . S
C1164 C1170 1.428 . S
H1165 C1161 0.930 . S
H1166 C1163 0.929 . S
S1167 N1168 1.613 . S
S1167 N1169 1.610 . S
N1168 S1167 1.613 . S
N1168 C1171 1.350 . S
N1169 S1167 1.610 . S
N1169 C1170 1.351 . S
C1170 C1164 1.428 . S
C1170 N1169 1.351 . S
C1170 C1171 1.434 . S
C1171 C1162 1.429 . S
C1171 N1168 1.350 . S
C1171 C1170 1.434 . S
C1172 C1173 1.369 . S
C1172 C1174 1.419 . S
C1172 H1176 0.930 . S
C1173 C1172 1.369 . S
C1173 C1182 1.429 . S
C1174 C1172 1.419 . S
C1174 C1175 1.363 . S
C1174 H1177 0.929 . S
C1175 C1174 1.363 . S
C1175 C1181 1.428 . S
H1176 C1172 0.930 . S
H1177 C1174 0.929 . S
S1178 N1179 1.613 . S
S1178 N1180 1.610 . S
N1179 S1178 1.613 . S
N1179 C1182 1.350 . S
N1180 S1178 1.610 . S
N1180 C1181 1.351 . S
C1181 C1175 1.428 . S
C1181 N1180 1.351 . S
C1181 C1182 1.434 . S
C1182 C1173 1.429 . S
C1182 N1179 1.350 . S
C1182 C1181 1.434 . S
C1183 C1184 1.369 . S
C1183 C1185 1.419 . S
C1183 H1187 0.930 . S
C1184 C1183 1.369 . S
C1184 C1193 1.429 . S
C1185 C1183 1.419 . S
C1185 C1186 1.363 . S
C1185 H1188 0.929 . S
C1186 C1185 1.363 . S
C1186 C1192 1.428 . S
H1187 C1183 0.930 . S
H1188 C1185 0.929 . S
S1189 N1190 1.613 . S
S1189 N1191 1.610 . S
N1190 S1189 1.613 . S
N1190 C1193 1.350 . S
N1191 S1189 1.610 . S
N1191 C1192 1.351 . S
C1192 C1186 1.428 . S
C1192 N1191 1.351 . S
C1192 C1193 1.434 . S
C1193 C1184 1.429 . S
C1193 N1190 1.350 . S
C1193 C1192 1.434 . S
C1194 C1195 1.369 . S
C1194 C1196 1.419 . S
C1194 H1198 0.930 . S
C1195 C1194 1.369 . S
C1195 C1204 1.429 . S
C1196 C1194 1.419 . S
C1196 C1197 1.363 . S
C1196 H1199 0.929 . S
C1197 C1196 1.363 . S
C1197 C1203 1.428 . S
H1198 C1194 0.930 . S
H1199 C1196 0.929 . S
S1200 N1201 1.613 . S
S1200 N1202 1.610 . S
N1201 S1200 1.613 . S
N1201 C1204 1.350 . S
N1202 S1200 1.610 . S
N1202 C1203 1.351 . S
C1203 C1197 1.428 . S
C1203 N1202 1.351 . S
C1203 C1204 1.434 . S
C1204 C1195 1.429 . S
C1204 N1201 1.350 . S
C1204 C1203 1.434 . S
C1205 C1206 1.369 . S
C1205 C1207 1.419 . S
C1205 H1209 0.930 . S
C1206 C1205 1.369 . S
C1206 C1215 1.429 . S
C1207 C1205 1.419 . S
C1207 C1208 1.363 . S
C1207 H1210 0.929 . S
C1208 C1207 1.363 . S
C1208 C1214 1.428 . S
H1209 C1205 0.930 . S
H1210 C1207 0.929 . S
S1211 N1212 1.613 . S
S1211 N1213 1.610 . S
N1212 S1211 1.613 . S
N1212 C1215 1.350 . S
N1213 S1211 1.610 . S
N1213 C1214 1.351 . S
C1214 C1208 1.428 . S
C1214 N1213 1.351 . S
C1214 C1215 1.434 . S
C1215 C1206 1.429 . S
C1215 N1212 1.350 . S
C1215 C1214 1.434 . S
C1216 C1217 1.369 . S
C1216 C1218 1.419 . S
C1216 H1220 0.930 . S
C1217 C1216 1.369 . S
C1217 C1226 1.429 . S
C1218 C1216 1.419 . S
C1218 C1219 1.363 . S
C1218 H1221 0.929 . S
C1219 C1218 1.363 . S
C1219 C1225 1.428 . S
H1220 C1216 0.930 . S
H1221 C1218 0.929 . S
S1222 N1223 1.613 . S
S1222 N1224 1.610 . S
N1223 S1222 1.613 . S
N1223 C1226 1.350 . S
N1224 S1222 1.610 . S
N1224 C1225 1.351 . S
C1225 C1219 1.428 . S
C1225 N1224 1.351 . S
C1225 C1226 1.434 . S
C1226 C1217 1.429 . S
C1226 N1223 1.350 . S
C1226 C1225 1.434 . S
C1227 C1228 1.369 . S
C1227 C1229 1.419 . S
C1227 H1231 0.930 . S
C1228 C1227 1.369 . S
C1228 C1237 1.429 . S
C1229 C1227 1.419 . S
C1229 C1230 1.363 . S
C1229 H1232 0.929 . S
C1230 C1229 1.363 . S
C1230 C1236 1.428 . S
H1231 C1227 0.930 . S
H1232 C1229 0.929 . S
S1233 N1234 1.613 . S
S1233 N1235 1.610 . S
N1234 S1233 1.613 . S
N1234 C1237 1.350 . S
N1235 S1233 1.610 . S
N1235 C1236 1.351 . S
C1236 C1230 1.428 . S
C1236 N1235 1.351 . S
C1236 C1237 1.434 . S
C1237 C1228 1.429 . S
C1237 N1234 1.350 . S
C1237 C1236 1.434 . S
C1238 C1239 1.369 . S
C1238 C1240 1.419 . S
C1238 H1242 0.930 . S
C1239 C1238 1.369 . S
C1239 C1248 1.429 . S
C1240 C1238 1.419 . S
C1240 C1241 1.363 . S
C1240 H1243 0.929 . S
C1241 C1240 1.363 . S
C1241 C1247 1.428 . S
H1242 C1238 0.930 . S
H1243 C1240 0.929 . S
S1244 N1245 1.613 . S
S1244 N1246 1.610 . S
N1245 S1244 1.613 . S
N1245 C1248 1.350 . S
N1246 S1244 1.610 . S
N1246 C1247 1.351 . S
C1247 C1241 1.428 . S
C1247 N1246 1.351 . S
C1247 C1248 1.434 . S
C1248 C1239 1.429 . S
C1248 N1245 1.350 . S
C1248 C1247 1.434 . S
C1249 C1250 1.369 . S
C1249 C1251 1.419 . S
C1249 H1253 0.930 . S
C1250 C1249 1.369 . S
C1250 C1259 1.429 . S
C1251 C1249 1.419 . S
C1251 C1252 1.363 . S
C1251 H1254 0.929 . S
C1252 C1251 1.363 . S
C1252 C1258 1.428 . S
H1253 C1249 0.930 . S
H1254 C1251 0.929 . S
S1255 N1256 1.613 . S
S1255 N1257 1.610 . S
N1256 S1255 1.613 . S
N1256 C1259 1.350 . S
N1257 S1255 1.610 . S
N1257 C1258 1.351 . S
C1258 C1252 1.428 . S
C1258 N1257 1.351 . S
C1258 C1259 1.434 . S
C1259 C1250 1.429 . S
C1259 N1256 1.350 . S
C1259 C1258 1.434 . S
C1260 C1261 1.369 . S
C1260 C1262 1.419 . S
C1260 H1264 0.930 . S
C1261 C1260 1.369 . S
C1261 C1270 1.429 . S
C1262 C1260 1.419 . S
C1262 C1263 1.363 . S
C1262 H1265 0.929 . S
C1263 C1262 1.363 . S
C1263 C1269 1.428 . S
H1264 C1260 0.930 . S
H1265 C1262 0.929 . S
S1266 N1267 1.613 . S
S1266 N1268 1.610 . S
N1267 S1266 1.613 . S
N1267 C1270 1.350 . S
N1268 S1266 1.610 . S
N1268 C1269 1.351 . S
C1269 C1263 1.428 . S
C1269 N1268 1.351 . S
C1269 C1270 1.434 . S
C1270 C1261 1.429 . S
C1270 N1267 1.350 . S
C1270 C1269 1.434 . S
C1271 C1272 1.369 . S
C1271 C1273 1.419 . S
C1271 H1275 0.930 . S
C1272 C1271 1.369 . S
C1272 C1281 1.429 . S
C1273 C1271 1.419 . S
C1273 C1274 1.363 . S
C1273 H1276 0.929 . S
C1274 C1273 1.363 . S
C1274 C1280 1.428 . S
H1275 C1271 0.930 . S
H1276 C1273 0.929 . S
S1277 N1278 1.613 . S
S1277 N1279 1.610 . S
N1278 S1277 1.613 . S
N1278 C1281 1.350 . S
N1279 S1277 1.610 . S
N1279 C1280 1.351 . S
C1280 C1274 1.428 . S
C1280 N1279 1.351 . S
C1280 C1281 1.434 . S
C1281 C1272 1.429 . S
C1281 N1278 1.350 . S
C1281 C1280 1.434 . S
C1282 C1283 1.369 . S
C1282 C1284 1.419 . S
C1282 H1286 0.930 . S
C1283 C1282 1.369 . S
C1283 C1292 1.429 . S
C1284 C1282 1.419 . S
C1284 C1285 1.363 . S
C1284 H1287 0.929 1_565 S
C1285 C1284 1.363 . S
C1285 C1291 1.428 . S
H1286 C1282 0.930 . S
H1287 C1284 0.929 1_545 S
S1288 N1289 1.613 1_554 S
S1288 N1290 1.616 . S
N1289 S1288 1.613 1_556 S
N1289 C1292 1.350 . S
N1290 S1288 1.616 . S
N1290 C1291 1.323 1_554 S
C1291 C1285 1.428 . S
C1291 N1290 1.323 1_556 S
C1291 C1292 1.434 . S
C1292 C1283 1.429 . S
C1292 N1289 1.350 . S
C1292 C1291 1.434 . S
C1293 C1294 1.369 . S
C1293 C1295 1.419 . S
C1293 H1297 0.930 . S
C1294 C1293 1.369 . S
C1294 C1303 1.429 . S
C1295 C1293 1.419 . S
C1295 C1296 1.363 . S
C1295 H1298 0.929 . S
C1296 C1295 1.363 . S
C1296 C1302 1.428 . S
H1297 C1293 0.930 . S
H1298 C1295 0.929 . S
S1299 N1300 1.613 . S
S1299 N1301 1.610 . S
N1300 S1299 1.613 . S
N1300 C1303 1.350 . S
N1301 S1299 1.610 . S
N1301 C1302 1.351 . S
C1302 C1296 1.428 . S
C1302 N1301 1.351 . S
C1302 C1303 1.434 . S
C1303 C1294 1.429 . S
C1303 N1300 1.350 . S
C1303 C1302 1.434 . S
C1304 C1305 1.369 . S
C1304 C1306 1.419 . S
C1304 H1308 0.930 1_545 S
C1305 C1304 1.369 . S
C1305 C1314 1.429 . S
C1306 C1304 1.419 . S
C1306 C1307 1.363 . S
C1306 H1309 0.929 1_545 S
C1307 C1306 1.363 . S
C1307 C1313 1.428 . S
H1308 C1304 0.930 1_565 S
H1309 C1306 0.929 1_565 S
S1310 N1311 1.613 . S
S1310 N1312 1.610 . S
N1311 S1310 1.613 . S
N1311 C1314 1.350 . S
N1312 S1310 1.610 . S
N1312 C1313 1.351 . S
C1313 C1307 1.428 . S
C1313 N1312 1.351 . S
C1313 C1314 1.434 . S
C1314 C1305 1.429 . S
C1314 N1311 1.350 . S
C1314 C1313 1.434 . S
C1315 C1316 1.369 . S
C1315 C1317 1.419 . S
C1315 H1319 0.930 . S
C1316 C1315 1.369 . S
C1316 C1325 1.429 . S
C1317 C1315 1.419 . S
C1317 C1318 1.363 . S
C1317 H1320 0.929 . S
C1318 C1317 1.363 . S
C1318 C1324 1.428 . S
H1319 C1315 0.930 . S
H1320 C1317 0.929 . S
S1321 N1322 1.613 . S
S1321 N1323 1.610 . S
N1322 S1321 1.613 . S
N1322 C1325 1.350 . S
N1323 S1321 1.610 . S
N1323 C1324 1.351 . S
C1324 C1318 1.428 . S
C1324 N1323 1.351 . S
C1324 C1325 1.434 . S
C1325 C1316 1.429 . S
C1325 N1322 1.350 . S
C1325 C1324 1.434 . S
C1326 C1327 1.367 . S
C1326 C1328 1.419 . S
C1326 H1330 0.932 1_545 S
C1327 C1326 1.367 . S
C1327 C1336 1.429 . S
C1328 C1326 1.419 . S
C1328 C1329 1.363 . S
C1328 H1331 0.918 1_545 S
C1329 C1328 1.363 . S
C1329 C1335 1.428 . S
H1330 C1326 0.932 1_565 S
H1331 C1328 0.918 1_565 S
S1332 N1333 1.613 . S
S1332 N1334 1.610 . S
N1333 S1332 1.613 . S
N1333 C1336 1.350 . S
N1334 S1332 1.610 . S
N1334 C1335 1.351 . S
C1335 C1329 1.428 . S
C1335 N1334 1.351 . S
C1335 C1336 1.434 . S
C1336 C1327 1.429 . S
C1336 N1333 1.350 . S
C1336 C1335 1.434 . S
C1337 C1338 1.369 . S
C1337 C1339 1.419 . S
C1337 H1341 0.930 . S
C1338 C1337 1.369 . S
C1338 C1347 1.429 . S
C1339 C1337 1.419 . S
C1339 C1340 1.363 . S
C1339 H1342 0.929 . S
C1340 C1339 1.363 . S
C1340 C1346 1.428 . S
H1341 C1337 0.930 . S
H1342 C1339 0.929 . S
S1343 N1344 1.613 . S
S1343 N1345 1.610 . S
N1344 S1343 1.613 . S
N1344 C1347 1.350 . S
N1345 S1343 1.610 . S
N1345 C1346 1.351 . S
C1346 C1340 1.428 . S
C1346 N1345 1.351 . S
C1346 C1347 1.434 . S
C1347 C1338 1.429 . S
C1347 N1344 1.350 . S
C1347 C1346 1.434 . S
C1348 C1349 1.369 . S
C1348 C1350 1.419 . S
C1348 H1352 0.930 . S
C1349 C1348 1.369 . S
C1349 C1358 1.429 . S
C1350 C1348 1.419 . S
C1350 C1351 1.363 . S
C1350 H1353 0.929 . S
C1351 C1350 1.363 . S
C1351 C1357 1.428 . S
H1352 C1348 0.930 . S
H1353 C1350 0.929 . S
S1354 N1355 1.613 . S
S1354 N1356 1.610 . S
N1355 S1354 1.613 . S
N1355 C1358 1.350 . S
N1356 S1354 1.610 . S
N1356 C1357 1.351 . S
C1357 C1351 1.428 . S
C1357 N1356 1.351 . S
C1357 C1358 1.434 . S
C1358 C1349 1.429 . S
C1358 N1355 1.350 . S
C1358 C1357 1.434 . S
C1359 C1360 1.369 . S
C1359 C1361 1.419 . S
C1359 H1363 0.930 . S
C1360 C1359 1.369 . S
C1360 C1369 1.429 . S
C1361 C1359 1.419 . S
C1361 C1362 1.363 . S
C1361 H1364 0.929 . S
C1362 C1361 1.363 . S
C1362 C1368 1.428 . S
H1363 C1359 0.930 . S
H1364 C1361 0.929 . S
S1365 N1366 1.613 . S
S1365 N1367 1.610 . S
N1366 S1365 1.613 . S
N1366 C1369 1.350 . S
N1367 S1365 1.610 . S
N1367 C1368 1.351 . S
C1368 C1362 1.428 . S
C1368 N1367 1.351 . S
C1368 C1369 1.434 . S
C1369 C1360 1.429 . S
C1369 N1366 1.350 . S
C1369 C1368 1.434 . S
C1370 C1371 1.369 1_565 S
C1370 C1372 1.419 . S
C1370 H1374 0.930 . S
C1371 C1370 1.369 1_545 S
C1371 C1380 1.429 . S
C1372 C1370 1.419 . S
C1372 C1373 1.363 . S
C1372 H1375 0.929 . S
C1373 C1372 1.363 . S
C1373 C1379 1.428 1_565 S
H1374 C1370 0.930 . S
H1375 C1372 0.929 . S
S1376 N1377 1.613 . S
S1376 N1378 1.610 . S
N1377 S1376 1.613 . S
N1377 C1380 1.350 . S
N1378 S1376 1.610 . S
N1378 C1379 1.351 . S
C1379 C1373 1.428 1_545 S
C1379 N1378 1.351 . S
C1379 C1380 1.434 . S
C1380 C1371 1.429 . S
C1380 N1377 1.350 . S
C1380 C1379 1.434 . S
C1381 C1382 1.369 . S
C1381 C1383 1.419 . S
C1381 H1385 0.930 . S
C1382 C1381 1.369 . S
C1382 C1391 1.429 . S
C1383 C1381 1.419 . S
C1383 C1384 1.363 . S
C1383 H1386 0.929 . S
C1384 C1383 1.363 . S
C1384 C1390 1.428 . S
H1385 C1381 0.930 . S
H1386 C1383 0.929 . S
S1387 N1388 1.613 . S
S1387 N1389 1.610 . S
N1388 S1387 1.613 . S
N1388 C1391 1.350 . S
N1389 S1387 1.610 . S
N1389 C1390 1.351 . S
C1390 C1384 1.428 . S
C1390 N1389 1.351 . S
C1390 C1391 1.434 . S
C1391 C1382 1.429 . S
C1391 N1388 1.350 . S
C1391 C1390 1.434 . S
C1392 C1393 1.369 1_556 S
C1392 C1394 1.419 . S
C1392 H1396 0.930 . S
C1393 C1392 1.369 1_554 S
C1393 C1402 1.429 . S
C1394 C1392 1.419 . S
C1394 C1395 1.363 . S
C1394 H1397 0.929 . S
C1395 C1394 1.363 . S
C1395 C1401 1.428 1_556 S
H1396 C1392 0.930 . S
H1397 C1394 0.929 . S
S1398 N1399 1.613 . S
S1398 N1400 1.610 . S
N1399 S1398 1.613 . S
N1399 C1402 1.350 . S
N1400 S1398 1.610 . S
N1400 C1401 1.351 . S
C1401 C1395 1.428 1_554 S
C1401 N1400 1.351 . S
C1401 C1402 1.434 . S
C1402 C1393 1.429 . S
C1402 N1399 1.350 . S
C1402 C1401 1.434 . S
C1403 C1404 1.369 . S
C1403 C1405 1.419 . S
C1403 H1407 0.930 1_554 S
C1404 C1403 1.369 . S
C1404 C1413 1.429 . S
C1405 C1403 1.419 . S
C1405 C1406 1.363 . S
C1405 H1408 0.929 1_554 S
C1406 C1405 1.363 . S
C1406 C1412 1.428 . S
H1407 C1403 0.930 1_556 S
H1408 C1405 0.929 1_556 S
S1409 N1410 1.613 . S
S1409 N1411 1.610 . S
N1410 S1409 1.613 . S
N1410 C1413 1.350 . S
N1411 S1409 1.610 . S
N1411 C1412 1.351 . S
C1412 C1406 1.428 . S
C1412 N1411 1.351 . S
C1412 C1413 1.434 . S
C1413 C1404 1.429 . S
C1413 N1410 1.350 . S
C1413 C1412 1.434 . S
C1414 C1415 1.369 . S
C1414 C1416 1.419 . S
C1414 H1418 0.930 . S
C1415 C1414 1.369 . S
C1415 C1424 1.429 . S
C1416 C1414 1.419 . S
C1416 C1417 1.363 . S
C1416 H1419 0.929 . S
C1417 C1416 1.363 . S
C1417 C1423 1.428 . S
H1418 C1414 0.930 . S
H1419 C1416 0.929 . S
S1420 N1421 1.613 . S
S1420 N1422 1.610 . S
N1421 S1420 1.613 . S
N1421 C1424 1.350 . S
N1422 S1420 1.610 . S
N1422 C1423 1.351 . S
C1423 C1417 1.428 . S
C1423 N1422 1.351 . S
C1423 C1424 1.434 . S
C1424 C1415 1.429 . S
C1424 N1421 1.350 . S
C1424 C1423 1.434 . S
C1425 C1426 1.369 . S
C1425 C1427 1.419 . S
C1425 H1429 0.930 . S
C1426 C1425 1.369 . S
C1426 C1435 1.429 . S
C1427 C1425 1.419 . S
C1427 C1428 1.363 . S
C1427 H1430 0.929 . S
C1428 C1427 1.363 . S
C1428 C1434 1.428 . S
H1429 C1425 0.930 . S
H1430 C1427 0.929 . S
S1431 N1432 1.613 . S
S1431 N1433 1.610 . S
N1432 S1431 1.613 . S
N1432 C1435 1.350 . S
N1433 S1431 1.610 . S
N1433 C1434 1.351 . S
C1434 C1428 1.428 . S
C1434 N1433 1.351 . S
C1434 C1435 1.434 . S
C1435 C1426 1.429 . S
C1435 N1432 1.350 . S
C1435 C1434 1.434 . S
C1436 C1437 1.369 . S
C1436 C1438 1.419 1_545 S
C1436 H1440 0.930 1_545 S
C1437 C1436 1.369 . S
C1437 C1446 1.429 . S
C1438 C1436 1.419 1_565 S
C1438 C1439 1.363 . S
C1438 H1441 0.929 . S
C1439 C1438 1.363 . S
C1439 C1445 1.428 1_565 S
H1440 C1436 0.930 1_565 S
H1441 C1438 0.929 . S
S1442 N1443 1.613 . S
S1442 N1444 1.610 . S
N1443 S1442 1.613 . S
N1443 C1446 1.350 . S
N1444 S1442 1.610 . S
N1444 C1445 1.351 . S
C1445 C1439 1.428 1_545 S
C1445 N1444 1.351 . S
C1445 C1446 1.434 . S
C1446 C1437 1.429 . S
C1446 N1443 1.350 . S
C1446 C1445 1.434 . S
C1447 C1448 1.369 . S
C1447 C1449 1.419 . S
C1447 H1451 0.930 . S
C1448 C1447 1.369 . S
C1448 C1457 1.429 . S
C1449 C1447 1.419 . S
C1449 C1450 1.363 . S
C1449 H1452 0.929 . S
C1450 C1449 1.363 . S
C1450 C1456 1.428 . S
H1451 C1447 0.930 . S
H1452 C1449 0.929 . S
S1453 N1454 1.613 . S
S1453 N1455 1.610 . S
N1454 S1453 1.613 . S
N1454 C1457 1.350 . S
N1455 S1453 1.610 . S
N1455 C1456 1.351 . S
C1456 C1450 1.428 . S
C1456 N1455 1.351 . S
C1456 C1457 1.434 . S
C1457 C1448 1.429 . S
C1457 N1454 1.350 . S
C1457 C1456 1.434 . S
C1458 C1459 1.369 . S
C1458 C1460 1.419 . S
C1458 H1462 0.930 . S
C1459 C1458 1.369 . S
C1459 C1468 1.429 . S
C1460 C1458 1.419 . S
C1460 C1461 1.363 . S
C1460 H1463 0.929 . S
C1461 C1460 1.363 . S
C1461 C1467 1.428 . S
H1462 C1458 0.930 . S
H1463 C1460 0.929 . S
S1464 N1465 1.613 . S
S1464 N1466 1.610 . S
N1465 S1464 1.613 . S
N1465 C1468 1.350 . S
N1466 S1464 1.610 . S
N1466 C1467 1.351 . S
C1467 C1461 1.428 . S
C1467 N1466 1.351 . S
C1467 C1468 1.434 . S
C1468 C1459 1.429 . S
C1468 N1465 1.350 . S
C1468 C1467 1.434 . S
C1469 C1470 1.369 . S
C1469 C1471 1.419 . S
C1469 H1473 0.930 . S
C1470 C1469 1.369 . S
C1470 C1479 1.429 . S
C1471 C1469 1.419 . S
C1471 C1472 1.363 . S
C1471 H1474 0.929 . S
C1472 C1471 1.363 . S
C1472 C1478 1.428 . S
H1473 C1469 0.930 . S
H1474 C1471 0.929 . S
S1475 N1476 1.613 . S
S1475 N1477 1.610 . S
N1476 S1475 1.613 . S
N1476 C1479 1.350 . S
N1477 S1475 1.610 . S
N1477 C1478 1.351 . S
C1478 C1472 1.428 . S
C1478 N1477 1.351 . S
C1478 C1479 1.434 . S
C1479 C1470 1.429 . S
C1479 N1476 1.350 . S
C1479 C1478 1.434 . S
C1480 C1481 1.369 . S
C1480 C1482 1.419 . S
C1480 H1484 0.930 . S
C1481 C1480 1.369 . S
C1481 C1490 1.429 . S
C1482 C1480 1.419 . S
C1482 C1483 1.363 . S
C1482 H1485 0.929 . S
C1483 C1482 1.363 . S
C1483 C1489 1.428 . S
H1484 C1480 0.930 . S
H1485 C1482 0.929 . S
S1486 N1487 1.613 . S
S1486 N1488 1.610 . S
N1487 S1486 1.613 . S
N1487 C1490 1.350 . S
N1488 S1486 1.610 . S
N1488 C1489 1.351 . S
C1489 C1483 1.428 . S
C1489 N1488 1.351 . S
C1489 C1490 1.434 . S
C1490 C1481 1.429 . S
C1490 N1487 1.350 . S
C1490 C1489 1.434 . S
C1491 C1492 1.369 . S
C1491 C1493 1.419 . S
C1491 H1495 0.930 . S
C1492 C1491 1.369 . S
C1492 C1501 1.429 . S
C1493 C1491 1.419 . S
C1493 C1494 1.363 . S
C1493 H1496 0.929 . S
C1494 C1493 1.363 . S
C1494 C1500 1.428 . S
H1495 C1491 0.930 . S
H1496 C1493 0.929 . S
S1497 N1498 1.613 . S
S1497 N1499 1.610 . S
N1498 S1497 1.613 . S
N1498 C1501 1.350 . S
N1499 S1497 1.610 . S
N1499 C1500 1.351 . S
C1500 C1494 1.428 . S
C1500 N1499 1.351 . S
C1500 C1501 1.434 . S
C1501 C1492 1.429 . S
C1501 N1498 1.350 . S
C1501 C1500 1.434 . S
C1502 C1503 1.369 1_554 S
C1502 C1504 1.419 . S
C1502 H1506 0.930 . S
C1503 C1502 1.369 1_556 S
C1503 C1512 1.429 . S
C1504 C1502 1.419 . S
C1504 C1505 1.363 . S
C1504 H1507 0.929 . S
C1505 C1504 1.363 . S
C1505 C1511 1.428 1_554 S
H1506 C1502 0.930 . S
H1507 C1504 0.929 . S
S1508 N1509 1.613 . S
S1508 N1510 1.610 . S
N1509 S1508 1.613 . S
N1509 C1512 1.350 . S
N1510 S1508 1.610 . S
N1510 C1511 1.351 . S
C1511 C1505 1.428 1_556 S
C1511 N1510 1.351 . S
C1511 C1512 1.434 . S
C1512 C1503 1.429 . S
C1512 N1509 1.350 . S
C1512 C1511 1.434 . S
C1513 C1514 1.369 . S
C1513 C1515 1.419 1_455 S
C1513 H1517 0.930 . S
C1514 C1513 1.369 . S
C1514 C1523 1.429 . S
C1515 C1513 1.419 1_655 S
C1515 C1516 1.363 . S
C1515 H1518 0.929 . S
C1516 C1515 1.363 . S
C1516 C1522 1.428 1_655 S
H1517 C1513 0.930 . S
H1518 C1515 0.929 . S
S1519 N1520 1.613 . S
S1519 N1521 1.610 . S
N1520 S1519 1.613 . S
N1520 C1523 1.350 . S
N1521 S1519 1.610 . S
N1521 C1522 1.351 . S
C1522 C1516 1.428 1_455 S
C1522 N1521 1.351 . S
C1522 C1523 1.434 . S
C1523 C1514 1.429 . S
C1523 N1520 1.350 . S
C1523 C1522 1.434 . S
C1524 C1525 1.369 . S
C1524 C1526 1.419 . S
C1524 H1528 0.930 . S
C1525 C1524 1.369 . S
C1525 C1534 1.429 . S
C1526 C1524 1.419 . S
C1526 C1527 1.363 . S
C1526 H1529 0.929 . S
C1527 C1526 1.363 . S
C1527 C1533 1.428 . S
H1528 C1524 0.930 . S
H1529 C1526 0.929 . S
S1530 N1531 1.613 . S
S1530 N1532 1.610 . S
N1531 S1530 1.613 . S
N1531 C1534 1.350 . S
N1532 S1530 1.610 . S
N1532 C1533 1.351 . S
C1533 C1527 1.428 . S
C1533 N1532 1.351 . S
C1533 C1534 1.434 . S
C1534 C1525 1.429 . S
C1534 N1531 1.350 . S
C1534 C1533 1.434 . S
C1535 C1536 1.369 . S
C1535 C1537 1.419 . S
C1535 H1539 0.930 . S
C1536 C1535 1.369 . S
C1536 C1545 1.429 . S
C1537 C1535 1.419 . S
C1537 C1538 1.363 . S
C1537 H1540 0.929 . S
C1538 C1537 1.363 . S
C1538 C1544 1.428 . S
H1539 C1535 0.930 . S
H1540 C1537 0.929 . S
S1541 N1542 1.613 . S
S1541 N1543 1.610 . S
N1542 S1541 1.613 . S
N1542 C1545 1.350 . S
N1543 S1541 1.610 . S
N1543 C1544 1.351 . S
C1544 C1538 1.428 . S
C1544 N1543 1.351 . S
C1544 C1545 1.434 . S
C1545 C1536 1.429 . S
C1545 N1542 1.350 . S
C1545 C1544 1.434 . S
C1546 C1547 1.369 1_455 S
C1546 C1548 1.419 . S
C1546 H1550 0.930 1_455 S
C1547 C1546 1.369 1_655 S
C1547 C1556 1.424 1_655 S
C1548 C1546 1.419 . S
C1548 C1549 1.363 . S
C1548 H1551 0.929 . S
C1549 C1548 1.363 . S
C1549 C1555 1.428 . S
H1550 C1546 0.930 1_655 S
H1551 C1548 0.929 . S
S1552 N1553 1.613 1_455 S
S1552 N1554 1.610 . S
N1553 S1552 1.613 1_655 S
N1553 C1556 1.337 1_655 S
N1554 S1552 1.610 . S
N1554 C1555 1.351 . S
C1555 C1549 1.428 . S
C1555 N1554 1.351 . S
C1555 C1556 1.452 . S
C1556 C1547 1.424 1_455 S
C1556 N1553 1.337 1_455 S
C1556 C1555 1.452 . S
C1557 C1558 1.369 . S
C1557 C1559 1.419 . S
C1557 H1561 0.930 . S
C1558 C1557 1.369 . S
C1558 C1567 1.429 . S
C1559 C1557 1.419 . S
C1559 C1560 1.363 . S
C1559 H1562 0.929 . S
C1560 C1559 1.363 . S
C1560 C1566 1.428 . S
H1561 C1557 0.930 . S
H1562 C1559 0.929 . S
S1563 N1564 1.613 . S
S1563 N1565 1.610 . S
N1564 S1563 1.613 . S
N1564 C1567 1.350 . S
N1565 S1563 1.610 . S
N1565 C1566 1.351 . S
C1566 C1560 1.428 . S
C1566 N1565 1.351 . S
C1566 C1567 1.434 . S
C1567 C1558 1.429 . S
C1567 N1564 1.350 . S
C1567 C1566 1.434 . S
C1568 C1569 1.369 . S
C1568 C1570 1.419 . S
C1568 H1572 0.930 . S
C1569 C1568 1.369 . S
C1569 C1578 1.429 . S
C1570 C1568 1.419 . S
C1570 C1571 1.363 . S
C1570 H1573 0.929 . S
C1571 C1570 1.363 . S
C1571 C1577 1.428 . S
H1572 C1568 0.930 . S
H1573 C1570 0.929 . S
S1574 N1575 1.613 . S
S1574 N1576 1.610 . S
N1575 S1574 1.613 . S
N1575 C1578 1.350 . S
N1576 S1574 1.610 . S
N1576 C1577 1.351 . S
C1577 C1571 1.428 . S
C1577 N1576 1.351 . S
C1577 C1578 1.434 . S
C1578 C1569 1.429 . S
C1578 N1575 1.350 . S
C1578 C1577 1.434 . S
C1579 C1580 1.369 . S
C1579 C1581 1.419 . S
C1579 H1583 0.930 . S
C1580 C1579 1.369 . S
C1580 C1589 1.429 . S
C1581 C1579 1.419 . S
C1581 C1582 1.363 . S
C1581 H1584 0.929 . S
C1582 C1581 1.363 . S
C1582 C1588 1.428 . S
H1583 C1579 0.930 . S
H1584 C1581 0.929 . S
S1585 N1586 1.613 . S
S1585 N1587 1.610 . S
N1586 S1585 1.613 . S
N1586 C1589 1.350 . S
N1587 S1585 1.610 . S
N1587 C1588 1.351 . S
C1588 C1582 1.428 . S
C1588 N1587 1.351 . S
C1588 C1589 1.434 . S
C1589 C1580 1.429 . S
C1589 N1586 1.350 . S
C1589 C1588 1.434 . S
C1590 C1591 1.369 . S
C1590 C1592 1.419 . S
C1590 H1594 0.930 . S
C1591 C1590 1.369 . S
C1591 C1600 1.429 . S
C1592 C1590 1.419 . S
C1592 C1593 1.363 . S
C1592 H1595 0.929 . S
C1593 C1592 1.363 . S
C1593 C1599 1.428 . S
H1594 C1590 0.930 . S
H1595 C1592 0.929 . S
S1596 N1597 1.613 . S
S1596 N1598 1.610 . S
N1597 S1596 1.613 . S
N1597 C1600 1.350 . S
N1598 S1596 1.610 . S
N1598 C1599 1.351 . S
C1599 C1593 1.428 . S
C1599 N1598 1.351 . S
C1599 C1600 1.434 . S
C1600 C1591 1.429 . S
C1600 N1597 1.350 . S
C1600 C1599 1.434 . S
C1601 C1602 1.369 . S
C1601 C1603 1.419 . S
C1601 H1605 0.930 . S
C1602 C1601 1.369 . S
C1602 C1611 1.429 . S
C1603 C1601 1.419 . S
C1603 C1604 1.363 . S
C1603 H1606 0.929 . S
C1604 C1603 1.363 . S
C1604 C1610 1.428 . S
H1605 C1601 0.930 . S
H1606 C1603 0.929 . S
S1607 N1608 1.613 . S
S1607 N1609 1.610 . S
N1608 S1607 1.613 . S
N1608 C1611 1.350 . S
N1609 S1607 1.610 . S
N1609 C1610 1.351 . S
C1610 C1604 1.428 . S
C1610 N1609 1.351 . S
C1610 C1611 1.434 . S
C1611 C1602 1.429 . S
C1611 N1608 1.350 . S
C1611 C1610 1.434 . S
C1612 C1613 1.369 . S
C1612 C1614 1.419 . S
C1612 H1616 0.930 . S
C1613 C1612 1.369 . S
C1613 C1622 1.429 . S
C1614 C1612 1.419 . S
C1614 C1615 1.363 . S
C1614 H1617 0.929 . S
C1615 C1614 1.363 . S
C1615 C1621 1.428 . S
H1616 C1612 0.930 . S
H1617 C1614 0.929 . S
S1618 N1619 1.613 . S
S1618 N1620 1.610 . S
N1619 S1618 1.613 . S
N1619 C1622 1.350 . S
N1620 S1618 1.610 . S
N1620 C1621 1.351 . S
C1621 C1615 1.428 . S
C1621 N1620 1.351 . S
C1621 C1622 1.434 . S
C1622 C1613 1.429 . S
C1622 N1619 1.350 . S
C1622 C1621 1.434 . S
C1623 C1624 1.369 . S
C1623 C1625 1.419 . S
C1623 H1627 0.930 . S
C1624 C1623 1.369 . S
C1624 C1633 1.429 . S
C1625 C1623 1.419 . S
C1625 C1626 1.363 . S
C1625 H1628 0.929 . S
C1626 C1625 1.363 . S
C1626 C1632 1.428 . S
H1627 C1623 0.930 . S
H1628 C1625 0.929 . S
S1629 N1630 1.613 . S
S1629 N1631 1.610 . S
N1630 S1629 1.613 . S
N1630 C1633 1.350 . S
N1631 S1629 1.610 . S
N1631 C1632 1.351 . S
C1632 C1626 1.428 . S
C1632 N1631 1.351 . S
C1632 C1633 1.434 . S
C1633 C1624 1.429 . S
C1633 N1630 1.350 . S
C1633 C1632 1.434 . S
C1634 C1635 1.369 . S
C1634 C1636 1.419 . S
C1634 H1638 0.930 . S
C1635 C1634 1.369 . S
C1635 C1644 1.429 . S
C1636 C1634 1.419 . S
C1636 C1637 1.363 . S
C1636 H1639 0.929 . S
C1637 C1636 1.363 . S
C1637 C1643 1.428 . S
H1638 C1634 0.930 . S
H1639 C1636 0.929 . S
S1640 N1641 1.613 . S
S1640 N1642 1.610 . S
N1641 S1640 1.613 . S
N1641 C1644 1.350 . S
N1642 S1640 1.610 . S
N1642 C1643 1.351 . S
C1643 C1637 1.428 . S
C1643 N1642 1.351 . S
C1643 C1644 1.434 . S
C1644 C1635 1.429 . S
C1644 N1641 1.350 . S
C1644 C1643 1.434 . S
C1645 C1646 1.369 . S
C1645 C1647 1.419 . S
C1645 H1649 0.930 . S
C1646 C1645 1.369 . S
C1646 C1655 1.429 . S
C1647 C1645 1.419 . S
C1647 C1648 1.363 . S
C1647 H1650 0.929 . S
C1648 C1647 1.363 . S
C1648 C1654 1.428 . S
H1649 C1645 0.930 . S
H1650 C1647 0.929 . S
S1651 N1652 1.613 . S
S1651 N1653 1.610 . S
N1652 S1651 1.613 . S
N1652 C1655 1.350 . S
N1653 S1651 1.610 . S
N1653 C1654 1.351 . S
C1654 C1648 1.428 . S
C1654 N1653 1.351 . S
C1654 C1655 1.434 . S
C1655 C1646 1.429 . S
C1655 N1652 1.350 . S
C1655 C1654 1.434 . S
C1656 C1657 1.369 . S
C1656 C1658 1.419 . S
C1656 H1660 0.930 . S
C1657 C1656 1.369 . S
C1657 C1666 1.429 . S
C1658 C1656 1.419 . S
C1658 C1659 1.363 . S
C1658 H1661 0.929 . S
C1659 C1658 1.363 . S
C1659 C1665 1.428 . S
H1660 C1656 0.930 . S
H1661 C1658 0.929 . S
S1662 N1663 1.613 . S
S1662 N1664 1.610 . S
N1663 S1662 1.613 . S
N1663 C1666 1.350 . S
N1664 S1662 1.610 . S
N1664 C1665 1.351 . S
C1665 C1659 1.428 . S
C1665 N1664 1.351 . S
C1665 C1666 1.434 . S
C1666 C1657 1.429 . S
C1666 N1663 1.350 . S
C1666 C1665 1.434 . S
C1667 C1668 1.369 . S
C1667 C1669 1.419 . S
C1667 H1671 0.930 . S
C1668 C1667 1.369 . S
C1668 C1677 1.429 . S
C1669 C1667 1.419 . S
C1669 C1670 1.363 . S
C1669 H1672 0.929 . S
C1670 C1669 1.363 . S
C1670 C1676 1.428 . S
H1671 C1667 0.930 . S
H1672 C1669 0.929 . S
S1673 N1674 1.613 . S
S1673 N1675 1.610 . S
N1674 S1673 1.613 . S
N1674 C1677 1.350 . S
N1675 S1673 1.610 . S
N1675 C1676 1.351 . S
C1676 C1670 1.428 . S
C1676 N1675 1.351 . S
C1676 C1677 1.434 . S
C1677 C1668 1.429 . S
C1677 N1674 1.350 . S
C1677 C1676 1.434 . S
C1678 C1679 1.369 . S
C1678 C1680 1.419 . S
C1678 H1682 0.930 . S
C1679 C1678 1.369 . S
C1679 C1688 1.429 . S
C1680 C1678 1.419 . S
C1680 C1681 1.363 . S
C1680 H1683 0.929 . S
C1681 C1680 1.363 . S
C1681 C1687 1.428 . S
H1682 C1678 0.930 . S
H1683 C1680 0.929 . S
S1684 N1685 1.613 . S
S1684 N1686 1.610 . S
N1685 S1684 1.613 . S
N1685 C1688 1.350 . S
N1686 S1684 1.610 . S
N1686 C1687 1.351 . S
C1687 C1681 1.428 . S
C1687 N1686 1.351 . S
C1687 C1688 1.434 . S
C1688 C1679 1.429 . S
C1688 N1685 1.350 . S
C1688 C1687 1.434 . S
C1689 C1690 1.369 1_556 S
C1689 C1691 1.419 . S
C1689 H1693 0.930 . S
C1690 C1689 1.369 1_554 S
C1690 C1699 1.429 1_565 S
C1691 C1689 1.419 . S
C1691 C1692 1.363 1_566 S
C1691 H1694 0.929 . S
C1692 C1691 1.363 1_544 S
C1692 C1698 1.428 . S
H1693 C1689 0.930 . S
H1694 C1691 0.929 . S
S1695 N1696 1.613 . S
S1695 N1697 1.610 . S
N1696 S1695 1.613 . S
N1696 C1699 1.350 . S
N1697 S1695 1.610 . S
N1697 C1698 1.351 . S
C1698 C1692 1.428 . S
C1698 N1697 1.351 . S
C1698 C1699 1.434 . S
C1699 C1690 1.429 1_545 S
C1699 N1696 1.350 . S
C1699 C1698 1.434 . S
C1700 C1701 1.369 . S
C1700 C1702 1.419 . S
C1700 H1704 0.930 . S
C1701 C1700 1.369 . S
C1701 C1710 1.429 . S
C1702 C1700 1.419 . S
C1702 C1703 1.363 . S
C1702 H1705 0.929 . S
C1703 C1702 1.363 . S
C1703 C1709 1.428 . S
H1704 C1700 0.930 . S
H1705 C1702 0.929 . S
S1706 N1707 1.613 . S
S1706 N1708 1.610 . S
N1707 S1706 1.613 . S
N1707 C1710 1.350 . S
N1708 S1706 1.610 . S
N1708 C1709 1.351 . S
C1709 C1703 1.428 . S
C1709 N1708 1.351 . S
C1709 C1710 1.434 . S
C1710 C1701 1.429 . S
C1710 N1707 1.350 . S
C1710 C1709 1.434 . S
C1711 C1712 1.369 . S
C1711 C1713 1.419 . S
C1711 H1715 0.930 . S
C1712 C1711 1.369 . S
C1712 C1721 1.429 . S
C1713 C1711 1.419 . S
C1713 C1714 1.363 . S
C1713 H1716 0.929 . S
C1714 C1713 1.363 . S
C1714 C1720 1.428 . S
H1715 C1711 0.930 . S
H1716 C1713 0.929 . S
S1717 N1718 1.613 . S
S1717 N1719 1.610 . S
N1718 S1717 1.613 . S
N1718 C1721 1.350 . S
N1719 S1717 1.610 . S
N1719 C1720 1.351 . S
C1720 C1714 1.428 . S
C1720 N1719 1.351 . S
C1720 C1721 1.434 . S
C1721 C1712 1.429 . S
C1721 N1718 1.350 . S
C1721 C1720 1.434 . S
C1722 C1723 1.369 . S
C1722 C1724 1.419 . S
C1722 H1726 0.930 . S
C1723 C1722 1.369 . S
C1723 C1732 1.429 . S
C1724 C1722 1.419 . S
C1724 C1725 1.363 . S
C1724 H1727 0.929 . S
C1725 C1724 1.363 . S
C1725 C1731 1.428 . S
H1726 C1722 0.930 . S
H1727 C1724 0.929 . S
S1728 N1729 1.613 . S
S1728 N1730 1.610 . S
N1729 S1728 1.613 . S
N1729 C1732 1.350 . S
N1730 S1728 1.610 . S
N1730 C1731 1.351 . S
C1731 C1725 1.428 . S
C1731 N1730 1.351 . S
C1731 C1732 1.434 . S
C1732 C1723 1.429 . S
C1732 N1729 1.350 . S
C1732 C1731 1.434 . S
C1733 C1734 1.369 . S
C1733 C1735 1.419 . S
C1733 H1737 0.930 . S
C1734 C1733 1.369 . S
C1734 C1743 1.429 . S
C1735 C1733 1.419 . S
C1735 C1736 1.363 . S
C1735 H1738 0.929 . S
C1736 C1735 1.363 . S
C1736 C1742 1.428 . S
H1737 C1733 0.930 . S
H1738 C1735 0.929 . S
S1739 N1740 1.613 . S
S1739 N1741 1.610 . S
N1740 S1739 1.613 . S
N1740 C1743 1.350 . S
N1741 S1739 1.610 . S
N1741 C1742 1.351 . S
C1742 C1736 1.428 . S
C1742 N1741 1.351 . S
C1742 C1743 1.434 . S
C1743 C1734 1.429 . S
C1743 N1740 1.350 . S
C1743 C1742 1.434 . S
C1744 C1745 1.369 . S
C1744 C1746 1.419 . S
C1744 H1748 0.930 . S
C1745 C1744 1.369 . S
C1745 C1754 1.429 . S
C1746 C1744 1.419 . S
C1746 C1747 1.363 . S
C1746 H1749 0.929 . S
C1747 C1746 1.363 . S
C1747 C1753 1.428 . S
H1748 C1744 0.930 . S
H1749 C1746 0.929 . S
S1750 N1751 1.613 . S
S1750 N1752 1.610 . S
N1751 S1750 1.613 . S
N1751 C1754 1.350 . S
N1752 S1750 1.610 . S
N1752 C1753 1.351 . S
C1753 C1747 1.428 . S
C1753 N1752 1.351 . S
C1753 C1754 1.434 . S
C1754 C1745 1.429 . S
C1754 N1751 1.350 . S
C1754 C1753 1.434 . S
C1755 C1756 1.369 . S
C1755 C1757 1.419 . S
C1755 H1759 0.930 . S
C1756 C1755 1.369 . S
C1756 C1765 1.429 . S
C1757 C1755 1.419 . S
C1757 C1758 1.363 . S
C1757 H1760 0.929 . S
C1758 C1757 1.363 . S
C1758 C1764 1.428 . S
H1759 C1755 0.930 . S
H1760 C1757 0.929 . S
S1761 N1762 1.613 . S
S1761 N1763 1.610 . S
N1762 S1761 1.613 . S
N1762 C1765 1.350 . S
N1763 S1761 1.610 . S
N1763 C1764 1.351 . S
C1764 C1758 1.428 . S
C1764 N1763 1.351 . S
C1764 C1765 1.434 . S
C1765 C1756 1.429 . S
C1765 N1762 1.350 . S
C1765 C1764 1.434 . S
C1766 C1767 1.369 . S
C1766 C1768 1.419 . S
C1766 H1770 0.930 . S
C1767 C1766 1.369 . S
C1767 C1776 1.429 . S
C1768 C1766 1.419 . S
C1768 C1769 1.363 . S
C1768 H1771 0.929 . S
C1769 C1768 1.363 . S
C1769 C1775 1.428 . S
H1770 C1766 0.930 . S
H1771 C1768 0.929 . S
S1772 N1773 1.613 . S
S1772 N1774 1.610 . S
N1773 S1772 1.613 . S
N1773 C1776 1.350 . S
N1774 S1772 1.610 . S
N1774 C1775 1.351 . S
C1775 C1769 1.428 . S
C1775 N1774 1.351 . S
C1775 C1776 1.434 . S
C1776 C1767 1.429 . S
C1776 N1773 1.350 . S
C1776 C1775 1.434 . S
C1777 C1778 1.369 . S
C1777 C1779 1.419 . S
C1777 H1781 0.930 . S
C1778 C1777 1.369 . S
C1778 C1787 1.429 . S
C1779 C1777 1.419 . S
C1779 C1780 1.363 . S
C1779 H1782 0.929 . S
C1780 C1779 1.363 . S
C1780 C1786 1.428 . S
H1781 C1777 0.930 . S
H1782 C1779 0.929 . S
S1783 N1784 1.613 . S
S1783 N1785 1.610 . S
N1784 S1783 1.613 . S
N1784 C1787 1.350 . S
N1785 S1783 1.610 . S
N1785 C1786 1.351 . S
C1786 C1780 1.428 . S
C1786 N1785 1.351 . S
C1786 C1787 1.434 . S
C1787 C1778 1.429 . S
C1787 N1784 1.350 . S
C1787 C1786 1.434 . S
C1788 C1789 1.369 . S
C1788 C1790 1.419 . S
C1788 H1792 0.930 . S
C1789 C1788 1.369 . S
C1789 C1798 1.429 . S
C1790 C1788 1.419 . S
C1790 C1791 1.363 . S
C1790 H1793 0.929 . S
C1791 C1790 1.363 . S
C1791 C1797 1.428 . S
H1792 C1788 0.930 . S
H1793 C1790 0.929 . S
S1794 N1795 1.613 . S
S1794 N1796 1.610 . S
N1795 S1794 1.613 . S
N1795 C1798 1.350 . S
N1796 S1794 1.610 . S
N1796 C1797 1.351 . S
C1797 C1791 1.428 . S
C1797 N1796 1.351 . S
C1797 C1798 1.434 . S
C1798 C1789 1.429 . S
C1798 N1795 1.350 . S
C1798 C1797 1.434 . S
C1799 C1800 1.369 . S
C1799 C1801 1.419 . S
C1799 H1803 0.930 . S
C1800 C1799 1.369 . S
C1800 C1809 1.429 . S
C1801 C1799 1.419 . S
C1801 C1802 1.363 . S
C1801 H1804 0.929 . S
C1802 C1801 1.363 . S
C1802 C1808 1.428 . S
H1803 C1799 0.930 . S
H1804 C1801 0.929 . S
S1805 N1806 1.613 . S
S1805 N1807 1.610 . S
N1806 S1805 1.613 . S
N1806 C1809 1.350 . S
N1807 S1805 1.610 . S
N1807 C1808 1.351 . S
C1808 C1802 1.428 . S
C1808 N1807 1.351 . S
C1808 C1809 1.434 . S
C1809 C1800 1.429 . S
C1809 N1806 1.350 . S
C1809 C1808 1.434 . S
C1810 C1811 1.369 . S
C1810 C1812 1.419 . S
C1810 H1814 0.930 . S
C1811 C1810 1.369 . S
C1811 C1820 1.429 . S
C1812 C1810 1.419 . S
C1812 C1813 1.363 . S
C1812 H1815 0.929 . S
C1813 C1812 1.363 . S
C1813 C1819 1.428 . S
H1814 C1810 0.930 . S
H1815 C1812 0.929 . S
S1816 N1817 1.613 . S
S1816 N1818 1.610 . S
N1817 S1816 1.613 . S
N1817 C1820 1.350 . S
N1818 S1816 1.610 . S
N1818 C1819 1.351 . S
C1819 C1813 1.428 . S
C1819 N1818 1.351 . S
C1819 C1820 1.434 . S
C1820 C1811 1.429 . S
C1820 N1817 1.350 . S
C1820 C1819 1.434 . S
C1821 C1822 1.369 . S
C1821 C1823 1.419 . S
C1821 H1825 0.930 . S
C1822 C1821 1.369 . S
C1822 C1831 1.429 . S
C1823 C1821 1.419 . S
C1823 C1824 1.363 . S
C1823 H1826 0.929 . S
C1824 C1823 1.363 . S
C1824 C1830 1.428 . S
H1825 C1821 0.930 . S
H1826 C1823 0.929 . S
S1827 N1828 1.613 . S
S1827 N1829 1.610 . S
N1828 S1827 1.613 . S
N1828 C1831 1.350 . S
N1829 S1827 1.610 . S
N1829 C1830 1.351 . S
C1830 C1824 1.428 . S
C1830 N1829 1.351 . S
C1830 C1831 1.434 . S
C1831 C1822 1.429 . S
C1831 N1828 1.350 . S
C1831 C1830 1.434 . S
C1832 C1833 1.369 . S
C1832 C1834 1.419 . S
C1832 H1836 0.930 . S
C1833 C1832 1.369 . S
C1833 C1842 1.429 . S
C1834 C1832 1.419 . S
C1834 C1835 1.363 . S
C1834 H1837 0.929 . S
C1835 C1834 1.363 . S
C1835 C1841 1.428 . S
H1836 C1832 0.930 . S
H1837 C1834 0.929 . S
S1838 N1839 1.613 . S
S1838 N1840 1.610 . S
N1839 S1838 1.613 . S
N1839 C1842 1.350 . S
N1840 S1838 1.610 . S
N1840 C1841 1.351 . S
C1841 C1835 1.428 . S
C1841 N1840 1.351 . S
C1841 C1842 1.434 . S
C1842 C1833 1.429 . S
C1842 N1839 1.350 . S
C1842 C1841 1.434 . S
C1843 C1844 1.369 . S
C1843 C1845 1.419 . S
C1843 H1847 0.930 . S
C1844 C1843 1.369 . S
C1844 C1853 1.429 . S
C1845 C1843 1.419 . S
C1845 C1846 1.363 . S
C1845 H1848 0.929 . S
C1846 C1845 1.363 . S
C1846 C1852 1.428 . S
H1847 C1843 0.930 . S
H1848 C1845 0.929 . S
S1849 N1850 1.613 . S
S1849 N1851 1.610 . S
N1850 S1849 1.613 . S
N1850 C1853 1.350 . S
N1851 S1849 1.610 . S
N1851 C1852 1.351 . S
C1852 C1846 1.428 . S
C1852 N1851 1.351 . S
C1852 C1853 1.434 . S
C1853 C1844 1.429 . S
C1853 N1850 1.350 . S
C1853 C1852 1.434 . S
C1854 C1855 1.369 . S
C1854 C1856 1.419 . S
C1854 H1858 0.930 . S
C1855 C1854 1.369 . S
C1855 C1864 1.429 1_655 S
C1856 C1854 1.419 . S
C1856 C1857 1.363 1_655 S
C1856 H1859 0.929 . S
C1857 C1856 1.363 1_455 S
C1857 C1863 1.428 . S
H1858 C1854 0.930 . S
H1859 C1856 0.929 . S
S1860 N1861 1.613 . S
S1860 N1862 1.610 . S
N1861 S1860 1.613 . S
N1861 C1864 1.350 . S
N1862 S1860 1.610 . S
N1862 C1863 1.351 . S
C1863 C1857 1.428 . S
C1863 N1862 1.351 . S
C1863 C1864 1.434 . S
C1864 C1855 1.429 1_455 S
C1864 N1861 1.350 . S
C1864 C1863 1.434 . S
C1865 C1866 1.369 . S
C1865 C1867 1.419 . S
C1865 H1869 0.930 . S
C1866 C1865 1.369 . S
C1866 C1875 1.429 . S
C1867 C1865 1.419 . S
C1867 C1868 1.363 . S
C1867 H1870 0.929 . S
C1868 C1867 1.363 . S
C1868 C1874 1.428 . S
H1869 C1865 0.930 . S
H1870 C1867 0.929 . S
S1871 N1872 1.613 . S
S1871 N1873 1.610 . S
N1872 S1871 1.613 . S
N1872 C1875 1.350 . S
N1873 S1871 1.610 . S
N1873 C1874 1.351 . S
C1874 C1868 1.428 . S
C1874 N1873 1.351 . S
C1874 C1875 1.434 . S
C1875 C1866 1.429 . S
C1875 N1872 1.350 . S
C1875 C1874 1.434 . S
C1876 C1877 1.369 . S
C1876 C1878 1.419 . S
C1876 H1880 0.930 . S
C1877 C1876 1.369 . S
C1877 C1886 1.429 . S
C1878 C1876 1.419 . S
C1878 C1879 1.363 . S
C1878 H1881 0.929 . S
C1879 C1878 1.363 . S
C1879 C1885 1.428 . S
H1880 C1876 0.930 . S
H1881 C1878 0.929 . S
S1882 N1883 1.613 . S
S1882 N1884 1.610 . S
N1883 S1882 1.613 . S
N1883 C1886 1.350 . S
N1884 S1882 1.610 . S
N1884 C1885 1.351 . S
C1885 C1879 1.428 . S
C1885 N1884 1.351 . S
C1885 C1886 1.434 . S
C1886 C1877 1.429 . S
C1886 N1883 1.350 . S
C1886 C1885 1.434 . S
C1887 C1888 1.369 . S
C1887 C1889 1.419 . S
C1887 H1891 0.930 . S
C1888 C1887 1.369 . S
C1888 C1897 1.429 . S
C1889 C1887 1.419 . S
C1889 C1890 1.363 . S
C1889 H1892 0.929 . S
C1890 C1889 1.363 . S
C1890 C1896 1.428 . S
H1891 C1887 0.930 . S
H1892 C1889 0.929 . S
S1893 N1894 1.613 . S
S1893 N1895 1.610 . S
N1894 S1893 1.613 . S
N1894 C1897 1.350 . S
N1895 S1893 1.610 . S
N1895 C1896 1.351 . S
C1896 C1890 1.428 . S
C1896 N1895 1.351 . S
C1896 C1897 1.434 . S
C1897 C1888 1.429 . S
C1897 N1894 1.350 . S
C1897 C1896 1.434 . S
C1898 C1899 1.369 . S
C1898 C1900 1.419 . S
C1898 H1902 0.930 . S
C1899 C1898 1.369 . S
C1899 C1908 1.429 . S
C1900 C1898 1.419 . S
C1900 C1901 1.363 . S
C1900 H1903 0.929 . S
C1901 C1900 1.363 . S
C1901 C1907 1.428 . S
H1902 C1898 0.930 . S
H1903 C1900 0.929 . S
S1904 N1905 1.613 . S
S1904 N1906 1.610 . S
N1905 S1904 1.613 . S
N1905 C1908 1.350 1_455 S
N1906 S1904 1.610 . S
N1906 C1907 1.351 1_455 S
C1907 C1901 1.428 . S
C1907 N1906 1.351 1_655 S
C1907 C1908 1.434 . S
C1908 C1899 1.429 . S
C1908 N1905 1.350 1_655 S
C1908 C1907 1.434 . S
C1909 C1910 1.369 . S
C1909 C1911 1.419 . S
C1909 H1913 0.930 . S
C1910 C1909 1.369 . S
C1910 C1919 1.429 . S
C1911 C1909 1.419 . S
C1911 C1912 1.363 . S
C1911 H1914 0.929 . S
C1912 C1911 1.363 . S
C1912 C1918 1.428 . S
H1913 C1909 0.930 . S
H1914 C1911 0.929 . S
S1915 N1916 1.613 . S
S1915 N1917 1.610 . S
N1916 S1915 1.613 . S
N1916 C1919 1.350 . S
N1917 S1915 1.610 . S
N1917 C1918 1.351 . S
C1918 C1912 1.428 . S
C1918 N1917 1.351 . S
C1918 C1919 1.434 . S
C1919 C1910 1.429 . S
C1919 N1916 1.350 . S
C1919 C1918 1.434 . S
C1920 C1921 1.369 . S
C1920 C1922 1.419 . S
C1920 H1924 0.930 . S
C1921 C1920 1.369 . S
C1921 C1930 1.429 . S
C1922 C1920 1.419 . S
C1922 C1923 1.363 . S
C1922 H1925 0.929 . S
C1923 C1922 1.363 . S
C1923 C1929 1.428 . S
H1924 C1920 0.930 . S
H1925 C1922 0.929 . S
S1926 N1927 1.613 . S
S1926 N1928 1.610 . S
N1927 S1926 1.613 . S
N1927 C1930 1.350 . S
N1928 S1926 1.610 . S
N1928 C1929 1.351 . S
C1929 C1923 1.428 . S
C1929 N1928 1.351 . S
C1929 C1930 1.434 . S
C1930 C1921 1.429 . S
C1930 N1927 1.350 . S
C1930 C1929 1.434 . S
C1931 C1932 1.369 . S
C1931 C1933 1.419 . S
C1931 H1935 0.930 . S
C1932 C1931 1.369 . S
C1932 C1941 1.429 . S
C1933 C1931 1.419 . S
C1933 C1934 1.363 . S
C1933 H1936 0.929 . S
C1934 C1933 1.363 . S
C1934 C1940 1.428 1_565 S
H1935 C1931 0.930 . S
H1936 C1933 0.929 . S
S1937 N1938 1.613 1_545 S
S1937 N1939 1.610 . S
N1938 S1937 1.613 1_565 S
N1938 C1941 1.350 . S
N1939 S1937 1.610 . S
N1939 C1940 1.351 . S
C1940 C1934 1.428 1_545 S
C1940 N1939 1.351 . S
C1940 C1941 1.434 1_545 S
C1941 C1932 1.429 . S
C1941 N1938 1.350 . S
C1941 C1940 1.434 1_565 S
C1942 C1943 1.369 . S
C1942 C1944 1.419 . S
C1942 H1946 0.930 . S
C1943 C1942 1.369 . S
C1943 C1952 1.429 . S
C1944 C1942 1.419 . S
C1944 C1945 1.363 . S
C1944 H1947 0.929 . S
C1945 C1944 1.363 . S
C1945 C1951 1.428 . S
H1946 C1942 0.930 . S
H1947 C1944 0.929 . S
S1948 N1949 1.613 . S
S1948 N1950 1.610 . S
N1949 S1948 1.613 . S
N1949 C1952 1.350 . S
N1950 S1948 1.610 . S
N1950 C1951 1.351 . S
C1951 C1945 1.428 . S
C1951 N1950 1.351 . S
C1951 C1952 1.434 . S
C1952 C1943 1.429 . S
C1952 N1949 1.350 . S
C1952 C1951 1.434 . S
C1953 C1954 1.369 1_556 S
C1953 C1955 1.419 . S
C1953 H1957 0.930 . S
C1954 C1953 1.369 1_554 S
C1954 C1963 1.429 . S
C1955 C1953 1.419 . S
C1955 C1956 1.363 1_556 S
C1955 H1958 0.929 . S
C1956 C1955 1.363 1_554 S
C1956 C1962 1.428 . S
H1957 C1953 0.930 . S
H1958 C1955 0.929 . S
S1959 N1960 1.613 . S
S1959 N1961 1.610 . S
N1960 S1959 1.613 . S
N1960 C1963 1.350 . S
N1961 S1959 1.610 . S
N1961 C1962 1.351 . S
C1962 C1956 1.428 . S
C1962 N1961 1.351 . S
C1962 C1963 1.434 . S
C1963 C1954 1.429 . S
C1963 N1960 1.350 . S
C1963 C1962 1.434 . S
C1964 C1965 1.369 . S
C1964 C1966 1.419 . S
C1964 H1968 0.930 . S
C1965 C1964 1.369 . S
C1965 C1974 1.429 . S
C1966 C1964 1.419 . S
C1966 C1967 1.363 . S
C1966 H1969 0.929 . S
C1967 C1966 1.363 . S
C1967 C1973 1.428 . S
H1968 C1964 0.930 . S
H1969 C1966 0.929 . S
S1970 N1971 1.613 . S
S1970 N1972 1.610 . S
N1971 S1970 1.613 . S
N1971 C1974 1.350 . S
N1972 S1970 1.610 . S
N1972 C1973 1.351 . S
C1973 C1967 1.428 . S
C1973 N1972 1.351 . S
C1973 C1974 1.434 . S
C1974 C1965 1.429 . S
C1974 N1971 1.350 . S
C1974 C1973 1.434 . S
C1975 C1976 1.369 . S
C1975 C1977 1.419 1_554 S
C1975 H1979 0.930 . S
C1976 C1975 1.369 . S
C1976 C1985 1.429 . S
C1977 C1975 1.419 1_556 S
C1977 C1978 1.363 . S
C1977 H1980 0.929 . S
C1978 C1977 1.363 . S
C1978 C1984 1.428 1_556 S
H1979 C1975 0.930 . S
H1980 C1977 0.929 . S
S1981 N1982 1.613 . S
S1981 N1983 1.610 . S
N1982 S1981 1.613 . S
N1982 C1985 1.350 . S
N1983 S1981 1.610 . S
N1983 C1984 1.351 . S
C1984 C1978 1.428 1_554 S
C1984 N1983 1.351 . S
C1984 C1985 1.434 . S
C1985 C1976 1.429 . S
C1985 N1982 1.350 . S
C1985 C1984 1.434 . S
C1986 C1987 1.369 . S
C1986 C1988 1.419 . S
C1986 H1990 0.930 . S
C1987 C1986 1.369 . S
C1987 C1996 1.429 . S
C1988 C1986 1.419 . S
C1988 C1989 1.363 . S
C1988 H1991 0.929 . S
C1989 C1988 1.363 . S
C1989 C1995 1.428 . S
H1990 C1986 0.930 . S
H1991 C1988 0.929 . S
S1992 N1993 1.613 . S
S1992 N1994 1.610 . S
N1993 S1992 1.613 . S
N1993 C1996 1.350 . S
N1994 S1992 1.610 . S
N1994 C1995 1.351 . S
C1995 C1989 1.428 . S
C1995 N1994 1.351 . S
C1995 C1996 1.434 . S
C1996 C1987 1.429 . S
C1996 N1993 1.350 . S
C1996 C1995 1.434 . S
C1997 C1998 1.369 . S
C1997 C1999 1.419 . S
C1997 H2001 0.930 . S
C1998 C1997 1.369 . S
C1998 C2007 1.429 . S
C1999 C1997 1.419 . S
C1999 C2000 1.363 . S
C1999 H2002 0.929 . S
C2000 C1999 1.363 . S
C2000 C2006 1.428 . S
H2001 C1997 0.930 . S
H2002 C1999 0.929 . S
S2003 N2004 1.613 . S
S2003 N2005 1.610 . S
N2004 S2003 1.613 . S
N2004 C2007 1.350 . S
N2005 S2003 1.610 . S
N2005 C2006 1.351 . S
C2006 C2000 1.428 . S
C2006 N2005 1.351 . S
C2006 C2007 1.434 . S
C2007 C1998 1.429 . S
C2007 N2004 1.350 . S
C2007 C2006 1.434 . S
C953 C101 2.315 . S
C955 C314 2.273 . S
C964 C57 2.193 . S
C966 C371 2.283 . S
C975 C70 1.265 . S
C977 C394 1.200 . S
C988 C448 1.372 . S
C986 C82 1.396 . S
C997 C23 1.780 . S
C999 C488 1.689 . S
C1010 C519 0.842 . S
C1008 C29 0.843 . S
C1021 C571 1.647 . S
C1019 C49 1.455 . S
C1030 C10 2.110 . S
C1032 C594 2.018 . S
C1043 C331 2.511 . S
C1041 C218 2.484 1_455 S
C1052 C226 1.088 . S
C1054 C368 1.009 . S
C1065 C411 1.335 . S
C1063 C251 1.285 . S
C1076 C434 1.395 . S
C1074 C159 1.430 . S
C1085 C211 2.058 1_455 S
C1087 C474 2.009 . S
C1098 C522 1.552 . S
C1096 C225 1.527 . S
C1109 C568 0.735 . S
C1107 C252 0.705 . S
C1120 C611 2.187 . S
C1118 C166 2.191 . S
C1131 C328 1.679 . S
C1129 C147 1.775 . S
C1140 C263 1.940 . S
C1142 C651 2.012 . S
C1153 C683 2.655 . S
C1151 C309 2.698 . S
C1164 C714 0.590 . S
C1162 C291 0.573 . S
C1173 C108 2.018 . S
C1175 C608 1.939 . S
C1184 C121 1.741 . S
C1186 C408 1.697 . S
C1195 C302 2.194 . S
C1197 C771 2.229 . S
C1208 C794 0.846 . S
C1206 C276 0.913 . S
C1219 C323 2.389 1_565 S
C1217 C55 2.398 . S
C1230 C802 2.405 . S
C1228 C96 2.385 . S
C1239 C88 1.556 . S
C1241 C403 1.523 . S
C1250 C75 1.554 . S
C1252 C759 1.522 . S
C1263 C479 1.619 . S
C1261 C4 1.668 . S
C1272 C44 0.869 . S
C1274 C688 0.864 . S
C1285 C562 1.874 1_565 S
C1283 C31 1.789 . S
C1296 C843 1.992 . S
C1294 C18 2.034 . S
C1307 C322 2.649 . S
C1305 C133 2.648 . S
C1318 C799 0.879 . S
C1316 C296 0.892 . S
C1327 C107 1.470 . S
C1329 C402 1.474 . S
C1338 C264 1.674 . S
C1340 C763 1.665 . S
C1349 C140 2.163 . S
C1351 C483 2.177 . S
C1362 C691 1.549 . S
C1360 C289 1.547 . S
C1371 C114 0.740 . S
C1373 C559 0.728 . S
C1382 C265 2.322 . S
C1384 C842 2.312 . S
C1393 C179 1.776 . S
C1395 C319 1.707 . S
C1404 C161 2.116 . S
C1406 C642 2.137 . S
C1415 C244 2.862 . S
C1417 C514 2.810 . S
C1426 C224 1.103 . S
C1428 C723 1.102 . S
C1439 C839 1.737 . S
C1437 C257 1.786 . S
C1448 C199 1.720 . S
C1450 C399 1.692 . S
C1461 C442 2.385 . S
C1459 C237 2.393 . S
C1472 C363 0.870 . S
C1470 C185 0.886 . S
C1481 C69 2.319 . S
C1483 C874 2.271 . S
C1494 C811 2.283 . S
C1492 C83 2.196 . S
C1503 C94 1.268 . S
C1505 C914 1.198 . S
C1514 C56 1.396 . S
C1516 C768 1.372 . S
C1525 C42 1.802 . S
C1527 C648 1.694 . S
C1538 C679 0.837 . S
C1536 C3 0.853 . S
C1549 C731 1.653 . S
C1547 C16 1.457 . S
C1560 C834 2.015 . S
C1558 C36 2.110 . S
C1571 C891 2.511 . S
C1569 C238 2.484 . S
C1580 C174 1.076 . S
C1582 C808 1.016 . S
C1593 C931 1.336 . S
C1591 C186 1.282 . S
C1604 C754 1.388 . S
C1602 C198 1.429 . S
C1615 C634 2.012 . S
C1613 C239 2.058 . S
C1624 C173 1.528 . S
C1626 C682 1.553 . S
C1637 C728 0.732 . S
C1635 C187 0.707 . S
C1646 C205 2.193 . S
C1648 C851 2.187 . S
C1659 C888 1.683 . S
C1657 C290 1.768 . S
C1668 C122 1.940 . S
C1670 C491 2.013 . S
C1681 C523 2.657 . S
C1679 C134 2.701 . S
C1692 C554 0.606 . S
C1690 C148 0.570 . S
C1703 C848 1.935 . S
C1701 C283 2.024 . S
C1712 C270 1.738 . S
C1714 C928 1.696 . S
C1725 C451 2.227 . S
C1723 C135 2.194 . S
C1736 C354 0.848 . S
C1734 C109 0.915 . S
C1745 C81 2.396 . S
C1747 C883 2.392 . S
C1758 C362 2.402 . S
C1756 C68 2.380 . S
C1767 C62 1.556 . S
C1769 C923 1.522 . S
C1778 C95 1.551 . S
C1780 C439 1.524 . S
C1789 C30 1.662 . S
C1791 C639 1.620 . S
C1802 C528 0.858 . S
C1800 C17 0.859 . S
C1811 C5 1.799 . S
C1813 C722 1.873 . S
C1822 C43 2.031 . S
C1824 C603 1.987 . S
C1835 C882 2.648 . S
C1833 C304 2.646 . S
C1844 C153 0.895 . S
C1846 C359 0.871 . S
C1857 C922 1.475 . S
C1855 C278 1.472 . S
C1866 C127 1.678 . S
C1868 C443 1.668 . S
C1877 C303 2.157 . S
C1879 C643 2.169 . S
C1890 C531 1.546 . S
C1888 C146 1.545 . S
C1899 C277 0.737 . S
C1901 C719 0.729 . S
C1912 C602 2.309 . S
C1910 C120 2.321 . S
C1923 C879 1.712 . S
C1921 C231 1.771 . S
C1934 C482 2.136 1_665 S
C1932 C200 2.114 . S
C1943 C212 2.864 . S
C1945 C674 2.814 . S
C1956 C563 1.101 . S
C1954 C172 1.096 . S
C1965 C192 1.779 . S
C1967 C599 1.744 . S
C1976 C160 1.725 . S
C1978 C919 1.686 . S
C1989 C762 2.387 . S
C1987 C213 2.396 1_565 S
C2000 C803 0.860 . S
C1998 C250 0.892 . S
