# Generated by pormake.
# Topology gar, (4,6)-cn, num edge types: 1
# Building blocks:
#     Node 0, Type 0, BuildingBlock: NAHDIM_clean_sbu_0, # of connection points: 4
#     Node 1, Type 0, BuildingBlock: NAHDIM_clean_sbu_0, # of connection points: 4
#     Node 2, Type 0, BuildingBlock: NAHDIM_clean_sbu_0, # of connection points: 4
#     Node 3, Type 0, BuildingBlock: NAHDIM_clean_sbu_0, # of connection points: 4
#     Node 4, Type 0, BuildingBlock: NAHDIM_clean_sbu_0, # of connection points: 4
#     Node 5, Type 0, BuildingBlock: NAHDIM_clean_sbu_0, # of connection points: 4
#     Node 6, Type 0, BuildingBlock: NAHDIM_clean_sbu_0, # of connection points: 4
#     Node 7, Type 0, BuildingBlock: NAHDIM_clean_sbu_0, # of connection points: 4
#     Node 8, Type 0, BuildingBlock: NAHDIM_clean_sbu_0, # of connection points: 4
#     Node 9, Type 0, BuildingBlock: NAHDIM_clean_sbu_0, # of connection points: 4
#     Node 10, Type 0, BuildingBlock: NAHDIM_clean_sbu_0, # of connection points: 4
#     Node 11, Type 0, BuildingBlock: NAHDIM_clean_sbu_0, # of connection points: 4
#     Node 12, Type 0, BuildingBlock: NAHDIM_clean_sbu_0, # of connection points: 4
#     Node 13, Type 0, BuildingBlock: NAHDIM_clean_sbu_0, # of connection points: 4
#     Node 14, Type 0, BuildingBlock: NAHDIM_clean_sbu_0, # of connection points: 4
#     Node 15, Type 0, BuildingBlock: NAHDIM_clean_sbu_0, # of connection points: 4
#     Node 16, Type 0, BuildingBlock: NAHDIM_clean_sbu_0, # of connection points: 4
#     Node 17, Type 0, BuildingBlock: NAHDIM_clean_sbu_0, # of connection points: 4
#     Node 18, Type 0, BuildingBlock: NAHDIM_clean_sbu_0, # of connection points: 4
#     Node 19, Type 0, BuildingBlock: NAHDIM_clean_sbu_0, # of connection points: 4
#     Node 20, Type 0, BuildingBlock: NAHDIM_clean_sbu_0, # of connection points: 4
#     Node 21, Type 0, BuildingBlock: NAHDIM_clean_sbu_0, # of connection points: 4
#     Node 22, Type 0, BuildingBlock: NAHDIM_clean_sbu_0, # of connection points: 4
#     Node 23, Type 0, BuildingBlock: NAHDIM_clean_sbu_0, # of connection points: 4
#     Node 24, Type 1, BuildingBlock: PAMTUU_clean_sbu_0, # of connection points: 6
#     Node 25, Type 1, BuildingBlock: PAMTUU_clean_sbu_0, # of connection points: 6
#     Node 26, Type 1, BuildingBlock: PAMTUU_clean_sbu_0, # of connection points: 6
#     Node 27, Type 1, BuildingBlock: PAMTUU_clean_sbu_0, # of connection points: 6
#     Node 28, Type 1, BuildingBlock: PAMTUU_clean_sbu_0, # of connection points: 6
#     Node 29, Type 1, BuildingBlock: PAMTUU_clean_sbu_0, # of connection points: 6
#     Node 30, Type 1, BuildingBlock: PAMTUU_clean_sbu_0, # of connection points: 6
#     Node 31, Type 1, BuildingBlock: PAMTUU_clean_sbu_0, # of connection points: 6
#     Node 32, Type 1, BuildingBlock: PAMTUU_clean_sbu_0, # of connection points: 6
#     Node 33, Type 1, BuildingBlock: PAMTUU_clean_sbu_0, # of connection points: 6
#     Node 34, Type 1, BuildingBlock: PAMTUU_clean_sbu_0, # of connection points: 6
#     Node 35, Type 1, BuildingBlock: PAMTUU_clean_sbu_0, # of connection points: 6
#     Node 36, Type 1, BuildingBlock: PAMTUU_clean_sbu_0, # of connection points: 6
#     Node 37, Type 1, BuildingBlock: PAMTUU_clean_sbu_0, # of connection points: 6
#     Node 38, Type 1, BuildingBlock: PAMTUU_clean_sbu_0, # of connection points: 6
#     Node 39, Type 1, BuildingBlock: PAMTUU_clean_sbu_0, # of connection points: 6
#     Edge 40, Type (0, 1), BuildingBlock: UVAHIK_clean_linker_0, # of connection points: 2
#     Edge 41, Type (0, 1), BuildingBlock: UVAHIK_clean_linker_0, # of connection points: 2
#     Edge 42, Type (0, 1), BuildingBlock: UVAHIK_clean_linker_0, # of connection points: 2
#     Edge 43, Type (0, 1), BuildingBlock: UVAHIK_clean_linker_0, # of connection points: 2
#     Edge 44, Type (0, 1), BuildingBlock: UVAHIK_clean_linker_0, # of connection points: 2
#     Edge 45, Type (0, 1), BuildingBlock: UVAHIK_clean_linker_0, # of connection points: 2
#     Edge 46, Type (0, 1), BuildingBlock: UVAHIK_clean_linker_0, # of connection points: 2
#     Edge 47, Type (0, 1), BuildingBlock: UVAHIK_clean_linker_0, # of connection points: 2
#     Edge 48, Type (0, 1), BuildingBlock: UVAHIK_clean_linker_0, # of connection points: 2
#     Edge 49, Type (0, 1), BuildingBlock: UVAHIK_clean_linker_0, # of connection points: 2
#     Edge 50, Type (0, 1), BuildingBlock: UVAHIK_clean_linker_0, # of connection points: 2
#     Edge 51, Type (0, 1), BuildingBlock: UVAHIK_clean_linker_0, # of connection points: 2
#     Edge 52, Type (0, 1), BuildingBlock: UVAHIK_clean_linker_0, # of connection points: 2
#     Edge 53, Type (0, 1), BuildingBlock: UVAHIK_clean_linker_0, # of connection points: 2
#     Edge 54, Type (0, 1), BuildingBlock: UVAHIK_clean_linker_0, # of connection points: 2
#     Edge 55, Type (0, 1), BuildingBlock: UVAHIK_clean_linker_0, # of connection points: 2
#     Edge 56, Type (0, 1), BuildingBlock: UVAHIK_clean_linker_0, # of connection points: 2
#     Edge 57, Type (0, 1), BuildingBlock: UVAHIK_clean_linker_0, # of connection points: 2
#     Edge 58, Type (0, 1), BuildingBlock: UVAHIK_clean_linker_0, # of connection points: 2
#     Edge 59, Type (0, 1), BuildingBlock: UVAHIK_clean_linker_0, # of connection points: 2
#     Edge 60, Type (0, 1), BuildingBlock: UVAHIK_clean_linker_0, # of connection points: 2
#     Edge 61, Type (0, 1), BuildingBlock: UVAHIK_clean_linker_0, # of connection points: 2
#     Edge 62, Type (0, 1), BuildingBlock: UVAHIK_clean_linker_0, # of connection points: 2
#     Edge 63, Type (0, 1), BuildingBlock: UVAHIK_clean_linker_0, # of connection points: 2
#     Edge 64, Type (0, 1), BuildingBlock: UVAHIK_clean_linker_0, # of connection points: 2
#     Edge 65, Type (0, 1), BuildingBlock: UVAHIK_clean_linker_0, # of connection points: 2
#     Edge 66, Type (0, 1), BuildingBlock: UVAHIK_clean_linker_0, # of connection points: 2
#     Edge 67, Type (0, 1), BuildingBlock: UVAHIK_clean_linker_0, # of connection points: 2
#     Edge 68, Type (0, 1), BuildingBlock: UVAHIK_clean_linker_0, # of connection points: 2
#     Edge 69, Type (0, 1), BuildingBlock: UVAHIK_clean_linker_0, # of connection points: 2
#     Edge 70, Type (0, 1), BuildingBlock: UVAHIK_clean_linker_0, # of connection points: 2
#     Edge 71, Type (0, 1), BuildingBlock: UVAHIK_clean_linker_0, # of connection points: 2
#     Edge 72, Type (0, 1), BuildingBlock: UVAHIK_clean_linker_0, # of connection points: 2
#     Edge 73, Type (0, 1), BuildingBlock: UVAHIK_clean_linker_0, # of connection points: 2
#     Edge 74, Type (0, 1), BuildingBlock: UVAHIK_clean_linker_0, # of connection points: 2
#     Edge 75, Type (0, 1), BuildingBlock: UVAHIK_clean_linker_0, # of connection points: 2
#     Edge 76, Type (0, 1), BuildingBlock: UVAHIK_clean_linker_0, # of connection points: 2
#     Edge 77, Type (0, 1), BuildingBlock: UVAHIK_clean_linker_0, # of connection points: 2
#     Edge 78, Type (0, 1), BuildingBlock: UVAHIK_clean_linker_0, # of connection points: 2
#     Edge 79, Type (0, 1), BuildingBlock: UVAHIK_clean_linker_0, # of connection points: 2
#     Edge 80, Type (0, 1), BuildingBlock: UVAHIK_clean_linker_0, # of connection points: 2
#     Edge 81, Type (0, 1), BuildingBlock: UVAHIK_clean_linker_0, # of connection points: 2
#     Edge 82, Type (0, 1), BuildingBlock: UVAHIK_clean_linker_0, # of connection points: 2
#     Edge 83, Type (0, 1), BuildingBlock: UVAHIK_clean_linker_0, # of connection points: 2
#     Edge 84, Type (0, 1), BuildingBlock: UVAHIK_clean_linker_0, # of connection points: 2
#     Edge 85, Type (0, 1), BuildingBlock: UVAHIK_clean_linker_0, # of connection points: 2
#     Edge 86, Type (0, 1), BuildingBlock: UVAHIK_clean_linker_0, # of connection points: 2
#     Edge 87, Type (0, 1), BuildingBlock: UVAHIK_clean_linker_0, # of connection points: 2
#     Edge 88, Type (0, 1), BuildingBlock: UVAHIK_clean_linker_0, # of connection points: 2
#     Edge 89, Type (0, 1), BuildingBlock: UVAHIK_clean_linker_0, # of connection points: 2
#     Edge 90, Type (0, 1), BuildingBlock: UVAHIK_clean_linker_0, # of connection points: 2
#     Edge 91, Type (0, 1), BuildingBlock: UVAHIK_clean_linker_0, # of connection points: 2
#     Edge 92, Type (0, 1), BuildingBlock: UVAHIK_clean_linker_0, # of connection points: 2
#     Edge 93, Type (0, 1), BuildingBlock: UVAHIK_clean_linker_0, # of connection points: 2
#     Edge 94, Type (0, 1), BuildingBlock: UVAHIK_clean_linker_0, # of connection points: 2
#     Edge 95, Type (0, 1), BuildingBlock: UVAHIK_clean_linker_0, # of connection points: 2
#     Edge 96, Type (0, 1), BuildingBlock: UVAHIK_clean_linker_0, # of connection points: 2
#     Edge 97, Type (0, 1), BuildingBlock: UVAHIK_clean_linker_0, # of connection points: 2
#     Edge 98, Type (0, 1), BuildingBlock: UVAHIK_clean_linker_0, # of connection points: 2
#     Edge 99, Type (0, 1), BuildingBlock: UVAHIK_clean_linker_0, # of connection points: 2
#     Edge 100, Type (0, 1), BuildingBlock: UVAHIK_clean_linker_0, # of connection points: 2
#     Edge 101, Type (0, 1), BuildingBlock: UVAHIK_clean_linker_0, # of connection points: 2
#     Edge 102, Type (0, 1), BuildingBlock: UVAHIK_clean_linker_0, # of connection points: 2
#     Edge 103, Type (0, 1), BuildingBlock: UVAHIK_clean_linker_0, # of connection points: 2
#     Edge 104, Type (0, 1), BuildingBlock: UVAHIK_clean_linker_0, # of connection points: 2
#     Edge 105, Type (0, 1), BuildingBlock: UVAHIK_clean_linker_0, # of connection points: 2
#     Edge 106, Type (0, 1), BuildingBlock: UVAHIK_clean_linker_0, # of connection points: 2
#     Edge 107, Type (0, 1), BuildingBlock: UVAHIK_clean_linker_0, # of connection points: 2
#     Edge 108, Type (0, 1), BuildingBlock: UVAHIK_clean_linker_0, # of connection points: 2
#     Edge 109, Type (0, 1), BuildingBlock: UVAHIK_clean_linker_0, # of connection points: 2
#     Edge 110, Type (0, 1), BuildingBlock: UVAHIK_clean_linker_0, # of connection points: 2
#     Edge 111, Type (0, 1), BuildingBlock: UVAHIK_clean_linker_0, # of connection points: 2
#     Edge 112, Type (0, 1), BuildingBlock: UVAHIK_clean_linker_0, # of connection points: 2
#     Edge 113, Type (0, 1), BuildingBlock: UVAHIK_clean_linker_0, # of connection points: 2
#     Edge 114, Type (0, 1), BuildingBlock: UVAHIK_clean_linker_0, # of connection points: 2
#     Edge 115, Type (0, 1), BuildingBlock: UVAHIK_clean_linker_0, # of connection points: 2
#     Edge 116, Type (0, 1), BuildingBlock: UVAHIK_clean_linker_0, # of connection points: 2
#     Edge 117, Type (0, 1), BuildingBlock: UVAHIK_clean_linker_0, # of connection points: 2
#     Edge 118, Type (0, 1), BuildingBlock: UVAHIK_clean_linker_0, # of connection points: 2
#     Edge 119, Type (0, 1), BuildingBlock: UVAHIK_clean_linker_0, # of connection points: 2
#     Edge 120, Type (0, 1), BuildingBlock: UVAHIK_clean_linker_0, # of connection points: 2
#     Edge 121, Type (0, 1), BuildingBlock: UVAHIK_clean_linker_0, # of connection points: 2
#     Edge 122, Type (0, 1), BuildingBlock: UVAHIK_clean_linker_0, # of connection points: 2
#     Edge 123, Type (0, 1), BuildingBlock: UVAHIK_clean_linker_0, # of connection points: 2
#     Edge 124, Type (0, 1), BuildingBlock: UVAHIK_clean_linker_0, # of connection points: 2
#     Edge 125, Type (0, 1), BuildingBlock: UVAHIK_clean_linker_0, # of connection points: 2
#     Edge 126, Type (0, 1), BuildingBlock: UVAHIK_clean_linker_0, # of connection points: 2
#     Edge 127, Type (0, 1), BuildingBlock: UVAHIK_clean_linker_0, # of connection points: 2
#     Edge 128, Type (0, 1), BuildingBlock: UVAHIK_clean_linker_0, # of connection points: 2
#     Edge 129, Type (0, 1), BuildingBlock: UVAHIK_clean_linker_0, # of connection points: 2
#     Edge 130, Type (0, 1), BuildingBlock: UVAHIK_clean_linker_0, # of connection points: 2
#     Edge 131, Type (0, 1), BuildingBlock: UVAHIK_clean_linker_0, # of connection points: 2
#     Edge 132, Type (0, 1), BuildingBlock: UVAHIK_clean_linker_0, # of connection points: 2
#     Edge 133, Type (0, 1), BuildingBlock: UVAHIK_clean_linker_0, # of connection points: 2
#     Edge 134, Type (0, 1), BuildingBlock: UVAHIK_clean_linker_0, # of connection points: 2
#     Edge 135, Type (0, 1), BuildingBlock: UVAHIK_clean_linker_0, # of connection points: 2
# Relax obj value: 0.165
# Max RMSD: 0.308
# Mean RMSD: 0.182
data_MOF--net-gar--node1-NAHDIM_clean_sbu_0--node2-PAMTUU_clean_sbu_0--edge1-UVAHIK_clean_linker_0
_symmetry_space_group_name_H-M    P1
_symmetry_Int_Tables_number       1
_symmetry_cell_setting            triclinic
loop_
_symmetry_equiv_pos_as_xyz
'x, y, z'
_cell_length_a     76.369892
_cell_length_b     71.538402
_cell_length_c     73.446269
_cell_angle_alpha  93.555478
_cell_angle_beta   93.588198
_cell_angle_gamma 106.83561
loop_
_atom_site_label
_atom_site_type_symbol
_atom_site_fract_x
_atom_site_fract_y
_atom_site_fract_z
_atom_type_partial_charge
C0 C 0.08477 0.2651 0.36661 0.0
O1 O 0.07544 0.24681 0.36829 0.0
O2 O 0.05197 0.2484 0.40348 0.0
Zn3 Zn 0.05264 0.27364 0.38772 0.0
O4 O 0.05514 0.29938 0.40596 0.0
C5 C 1.01192 0.27137 0.37747 0.0
O6 O 1.01225 0.27334 0.39541 0.0
O7 O 0.07793 0.27857 0.37285 0.0
C8 C 0.05209 0.31482 0.40006 0.0
O9 O 0.04801 0.31463 0.38239 0.0
C10 C 0.03839 0.23414 0.40745 0.0
O11 O 0.02175 0.23406 0.40162 0.0
O12 O 0.02687 0.27042 0.37059 0.0
C13 C 1.00327 0.77459 0.67792 0.0
O14 O 1.0002 0.76193 0.66349 0.0
O15 O 0.03923 0.75817 0.65047 0.0
Zn16 Zn 0.04376 0.78642 0.66555 0.0
O17 O 0.04534 0.81023 0.6477 0.0
C18 C 0.08505 0.79031 0.67475 0.0
O19 O 0.0846 0.7895 0.65681 0.0
O20 O 0.01996 0.78569 0.68185 0.0
C21 C 0.05529 0.82821 0.65111 0.0
O22 O 0.06633 0.83266 0.66622 0.0
C23 C 0.0461 0.75484 0.63548 0.0
O24 O 0.05568 0.77001 0.62753 0.0
O25 O 0.07 0.79016 0.682 0.0
C26 C 0.5844 0.76542 0.86658 0.0
O27 O 0.57501 0.7471 0.86805 0.0
O28 O 0.55152 0.7489 0.90381 0.0
Zn29 Zn 0.55225 0.77403 0.88783 0.0
O30 O 0.55501 0.79996 0.90612 0.0
C31 C 0.51105 0.77006 0.87718 0.0
O32 O 0.5108 0.77058 0.89508 0.0
O33 O 0.57759 0.77885 0.87298 0.0
C34 C 0.54791 0.81354 0.90179 0.0
O35 O 0.53928 0.81163 0.88544 0.0
C36 C 0.53805 0.73394 0.90666 0.0
O37 O 0.52164 0.73293 0.89931 0.0
O38 O 0.52645 0.77056 0.87051 0.0
C39 C 0.50423 0.27577 0.17877 0.0
O40 O 0.50121 0.263 0.16442 0.0
O41 O 0.53956 0.2595 0.15068 0.0
Zn42 Zn 0.5444 0.28758 0.166 0.0
O43 O 0.54622 0.31124 0.14799 0.0
C44 C 0.5781 0.27825 0.18541 0.0
O45 O 0.56749 0.26022 0.18136 0.0
O46 O 0.52087 0.28702 0.18259 0.0
C47 C 0.54657 0.32873 0.15385 0.0
O48 O 0.54603 0.33225 0.17154 0.0
C49 C 0.55028 0.25584 0.13903 0.0
O50 O 0.56433 0.2704 0.13546 0.0
O51 O 0.57142 0.29228 0.18128 0.0
C52 C 0.03827 0.79138 0.14186 0.0
O53 O 0.03481 0.78672 0.12413 0.0
O54 O 0.06881 0.77172 0.11752 0.0
Zn55 Zn 0.07469 0.79803 0.13177 0.0
O56 O 0.07533 0.81973 0.11534 0.0
C57 C 0.11308 0.80219 0.13917 0.0
O58 O 0.11215 0.79913 0.12127 0.0
O59 O 0.05485 0.79693 0.14864 0.0
C60 C 0.08713 0.83647 0.11858 0.0
O61 O 0.09962 0.83938 0.13243 0.0
C62 C 0.07331 0.76889 0.10145 0.0
O63 O 0.08196 0.78398 0.09283 0.0
O64 O 0.09874 0.80272 0.1468 0.0
C65 C 0.54178 0.77748 0.39978 0.0
O66 O 0.54092 0.79297 0.40984 0.0
O67 O 0.50671 0.73463 0.42955 0.0
Zn68 Zn 0.508 0.75814 0.41566 0.0
O69 O 0.51191 0.78286 0.43219 0.0
C70 C 0.46941 0.7428 0.40354 0.0
O71 O 0.46853 0.73459 0.41911 0.0
O72 O 0.52921 0.76136 0.40002 0.0
C73 C 0.49872 0.78909 0.43687 0.0
O74 O 0.48177 0.77846 0.43191 0.0
C75 C 0.51101 0.73489 0.44656 0.0
O76 O 0.51625 0.75168 0.45665 0.0
O77 O 0.48483 0.75329 0.39922 0.0
C78 C 0.54085 0.28737 0.64235 0.0
O79 O 0.53755 0.28432 0.62448 0.0
O80 O 0.57394 0.26728 0.61931 0.0
Zn81 Zn 0.57744 0.29364 0.6326 0.0
O82 O 0.57698 0.31462 0.61578 0.0
C83 C 0.61645 0.30482 0.63963 0.0
O84 O 0.61563 0.30466 0.62169 0.0
O85 O 0.55731 0.29161 0.64932 0.0
C86 C 0.58228 0.33206 0.62322 0.0
O87 O 0.58802 0.33502 0.6407 0.0
C88 C 0.56656 0.2615 0.60318 0.0
O89 O 0.56049 0.27349 0.59345 0.0
O90 O 0.60164 0.30083 0.64753 0.0
C91 C 0.04526 0.27186 0.90393 0.0
O92 O 0.04835 0.27444 0.92184 0.0
O93 O 1.01226 0.2421 0.93019 0.0
Zn94 Zn 1.00904 0.26282 0.91416 0.0
O95 O 1.01228 0.28859 0.92864 0.0
C96 C 0.97021 0.25651 0.90626 0.0
O97 O 0.97158 0.26479 0.92297 0.0
O98 O 0.0288 0.26684 0.89686 0.0
C99 C 1.00752 0.30176 0.92052 0.0
O100 O 1.00048 0.29786 0.90344 0.0
C101 C 0.99931 0.2295 0.93669 0.0
O102 O 0.98237 0.23019 0.93378 0.0
O103 O 0.98443 0.25393 0.8997 0.0
C104 C 0.41542 0.08727 0.2663 0.0
O105 O 0.43204 0.08982 0.26111 0.0
O106 O 0.44677 0.06192 0.27433 0.0
Zn107 Zn 0.4259 0.06109 0.29002 0.0
O108 O 0.43642 0.07032 0.31584 0.0
C109 C 0.40468 0.0227 0.27489 0.0
O110 O 0.4089 0.03046 0.2594 0.0
O111 O 0.4102 0.07649 0.27924 0.0
C112 C 0.44623 0.05995 0.32166 0.0
O113 O 0.44747 0.04505 0.31095 0.0
C114 C 0.46308 0.07287 0.27855 0.0
O115 O 0.46694 0.08445 0.29377 0.0
O116 O 0.4104 0.03317 0.28988 0.0
C117 C 0.32435 0.16315 0.5355 0.0
O118 O 0.31236 0.16156 0.54782 0.0
O119 O 0.3118 0.20675 0.54772 0.0
Zn120 Zn 0.30675 0.19062 0.52337 0.0
O121 O 0.31033 0.20658 0.50151 0.0
C122 C 0.2688 0.17416 0.53105 0.0
O123 O 0.27233 0.1903 0.54193 0.0
O124 O 0.32458 0.17492 0.5232 0.0
C125 C 0.2978 0.21254 0.49382 0.0
O126 O 0.28198 0.20935 0.501 0.0
C127 C 0.30788 0.2225 0.55182 0.0
O128 O 0.30023 0.23044 0.5391 0.0
O129 O 0.28125 0.17138 0.52147 0.0
C130 C 0.18087 0.98327 0.77961 0.0
O131 O 0.16704 0.98451 0.76868 0.0
O132 O 0.14592 1.00461 0.78676 0.0
Zn133 Zn 0.16691 0.00645 0.80535 0.0
O134 O 0.15761 0.9979 0.82929 0.0
C135 C 0.17441 0.04819 0.81096 0.0
O136 O 0.15647 0.04349 0.81104 0.0
O137 O 0.18306 0.99096 0.79598 0.0
C138 C 0.16734 1.00529 0.84409 0.0
O139 O 0.18382 0.01747 0.8433 0.0
C140 C 0.12976 1.00409 0.79048 0.0
O141 O 0.1257 1.00383 0.8076 0.0
O142 O 0.18204 0.03469 0.8089 0.0
C143 C 0.26577 0.94685 0.02192 0.0
O144 O 0.27172 0.93794 0.03501 0.0
O145 O 0.28657 0.90848 0.01727 0.0
Zn146 Zn 0.28699 0.92883 -0.00041 0.0
O147 O 0.28072 0.91601 0.97412 0.0
C148 C 0.32072 0.95448 0.01679 0.0
O149 O 0.31301 0.94865 0.03176 0.0
O150 O 0.26995 0.94427 0.00568 0.0
C151 C 0.28747 0.92511 0.96067 0.0
O152 O 0.2981 0.94327 0.96361 0.0
C153 C 0.2998 0.90107 0.01845 0.0
O154 O 0.31314 0.90649 0.00765 0.0
O155 O 0.31216 0.94777 0.0013 0.0
C156 C 0.25836 0.38614 0.03197 0.0
O157 O 0.25168 0.36697 0.03121 0.0
O158 O 0.29289 0.36574 0.05692 0.0
Zn159 Zn 0.29254 0.377 0.03239 0.0
O160 O 0.28477 0.35724 0.01045 0.0
C161 C 0.32644 0.40829 0.03995 0.0
O162 O 0.31894 0.4118 0.05492 0.0
O163 O 0.27563 0.39383 0.03259 0.0
C164 C 0.29465 0.34656 0.00554 0.0
O165 O 0.30913 0.34668 0.01625 0.0
C166 C 0.28405 0.34856 0.06044 0.0
O167 O 0.27411 0.33615 0.04715 0.0
O168 O 0.31772 0.39405 0.02859 0.0
C169 C 0.83464 0.12267 0.02789 0.0
O170 O 0.83471 0.1395 0.02164 0.0
O171 O 0.81609 0.1431 0.07583 0.0
Zn172 Zn 0.80732 0.13001 0.05057 0.0
O173 O 0.80271 0.14894 0.03297 0.0
C174 C 0.77703 0.1027 0.06641 0.0
O175 O 0.78701 0.10846 0.08209 0.0
O176 O 0.82462 0.11632 0.04067 0.0
C177 C 0.79361 0.14129 0.0179 0.0
O178 O 0.78824 0.1221 0.01481 0.0
C179 C 0.8224 0.16155 0.07921 0.0
O180 O 0.82435 0.17282 0.06557 0.0
O181 O 0.78319 0.10977 0.05185 0.0
C182 C 0.18116 0.47908 0.24631 0.0
O183 O 0.16492 0.47274 0.25257 0.0
O184 O 0.14427 0.48665 0.21064 0.0
Zn185 Zn 0.16342 0.50353 0.22932 0.0
O186 O 0.15275 0.50686 0.25303 0.0
C187 C 0.16519 0.54282 0.22294 0.0
O188 O 0.14827 0.53689 0.22765 0.0
O189 O 0.18369 0.4919 0.23477 0.0
C190 C 0.163 0.51899 0.26542 0.0
O191 O 0.17977 0.52867 0.26208 0.0
C192 C 0.12737 0.48461 0.21233 0.0
O193 O 0.12262 0.49338 0.22662 0.0
O194 O 0.1742 0.53049 0.22139 0.0
C195 C 0.76284 0.89597 0.54266 0.0
O196 O 0.76077 0.88325 0.5551 0.0
O197 O 0.79277 0.86939 0.55732 0.0
Zn198 Zn 0.79245 0.88041 0.5326 0.0
O199 O 0.78503 0.86038 0.51083 0.0
C200 C 0.82688 0.91089 0.54082 0.0
O201 O 0.81976 0.91374 0.55621 0.0
O202 O 0.77539 0.89722 0.53181 0.0
C203 C 0.7953 0.85019 0.5058 0.0
O204 O 0.81009 0.85093 0.51632 0.0
C205 C 0.78537 0.85175 0.56066 0.0
O206 O 0.77698 0.83873 0.54713 0.0
O207 O 0.81771 0.89741 0.52893 0.0
C208 C 0.90021 0.06732 0.25662 0.0
O209 O 0.91703 0.07097 0.26419 0.0
O210 O 0.92588 0.05345 0.21309 0.0
Zn211 Zn 0.91123 0.04026 0.23293 0.0
O212 O 0.92796 0.03687 0.25405 0.0
C213 C 0.90079 1.0024 0.21226 0.0
O214 O 0.91755 0.00827 0.20713 0.0
O215 O 0.89498 0.05528 0.24252 0.0
C216 C 0.92607 0.02064 0.261 0.0
O217 O 0.91261 1.0052 0.25442 0.0
C218 C 0.94228 0.05278 0.21255 0.0
O219 O 0.94932 0.04464 0.22554 0.0
O220 O 0.89518 0.01388 0.2227 0.0
C221 C 0.33344 0.62051 0.52397 0.0
O222 O 0.33273 0.63674 0.51694 0.0
O223 O 0.31239 0.64147 0.57068 0.0
Zn224 Zn 0.30532 0.62737 0.54559 0.0
O225 O 0.3008 0.64575 0.52742 0.0
C226 C 0.2758 0.59862 0.56084 0.0
O227 O 0.28625 0.60354 0.5763 0.0
O228 O 0.32363 0.61438 0.53696 0.0
C229 C 0.29111 0.63826 0.51261 0.0
O230 O 0.28503 0.61908 0.50963 0.0
C231 C 0.30197 0.65161 0.57532 0.0
O232 O 0.2888 0.6527 0.56339 0.0
O233 O 0.28143 0.6066 0.54648 0.0
C234 C 0.40161 0.57039 0.75992 0.0
O235 O 0.41829 0.57384 0.76781 0.0
O236 O 0.42378 0.5543 0.71303 0.0
Zn237 Zn 0.41264 0.5435 0.73555 0.0
O238 O 0.43205 0.54291 0.75523 0.0
C239 C 0.39926 0.50467 0.7163 0.0
O240 O 0.41321 0.5109 0.70638 0.0
O241 O 0.39665 0.55868 0.74557 0.0
C242 C 0.43881 0.52869 0.75613 0.0
O243 O 0.43341 0.51386 0.74357 0.0
C244 C 0.44098 0.56187 0.71277 0.0
O245 O 0.45164 0.56398 0.72796 0.0
O246 O 0.39655 0.5161 0.72904 0.0
C247 C 0.67902 0.97414 0.74453 0.0
O248 O 0.66293 0.96613 0.75057 0.0
O249 O 0.6404 0.98128 0.71117 0.0
Zn250 Zn 0.65913 0.99797 0.73023 0.0
O251 O 0.64886 0.99885 0.75457 0.0
C252 C 0.65902 0.03753 0.72819 0.0
O253 O 0.64322 0.03065 0.73517 0.0
O254 O 0.68068 0.98784 0.73399 0.0
C255 C 0.65977 0.00998 0.76718 0.0
O256 O 0.67645 0.01956 0.7635 0.0
C257 C 0.62347 0.97944 0.71229 0.0
O258 O 0.61837 0.98814 0.7264 0.0
O259 O 0.66802 0.0258 0.72367 0.0
C260 C 0.83978 0.68348 0.028 0.0
O261 O 0.84558 0.70207 0.0341 0.0
O262 O 0.8101 0.70741 0.04822 0.0
Zn263 Zn 0.80484 0.69116 0.02394 0.0
O264 O 0.80665 0.70659 0.00166 0.0
C265 C 0.76645 0.67561 0.03044 0.0
O266 O 0.76893 0.69332 0.0382 0.0
O267 O 0.82291 0.67577 0.02278 0.0
C268 C 0.80086 0.69595 0.98674 0.0
O269 O 0.79406 0.67692 0.98738 0.0
C270 C 0.80614 0.72317 0.0522 0.0
O271 O 0.79858 0.73104 0.03936 0.0
O272 O 0.77973 0.67152 0.02323 0.0
C273 C 0.91009 0.58921 0.77913 0.0
O274 O 0.92789 0.5961 0.77825 0.0
O275 O 0.93942 0.56146 0.7754 0.0
Zn276 Zn 0.92048 0.55764 0.79379 0.0
O277 O 0.93372 0.56502 0.81883 0.0
C278 C 0.91009 0.51609 0.78265 0.0
O279 O 0.92474 0.52126 0.77351 0.0
O280 O 0.90371 0.57353 0.78686 0.0
C281 C 0.94559 0.55593 0.8214 0.0
O282 O 0.94701 0.54303 0.80847 0.0
C283 C 0.95553 0.57336 0.77792 0.0
O284 O 0.96076 0.58436 0.79342 0.0
O285 O 0.90558 0.52914 0.7922 0.0
C286 C 0.75927 0.43728 0.52263 0.0
O287 O 0.75848 0.42122 0.53073 0.0
O288 O 0.78704 0.40648 0.51954 0.0
Zn289 Zn 0.78369 0.42404 0.50022 0.0
O290 O 0.77305 0.40873 0.47634 0.0
C291 C 0.81755 0.45424 0.50885 0.0
O292 O 0.81011 0.45621 0.52423 0.0
O293 O 0.76866 0.44102 0.50891 0.0
C294 C 0.77424 0.4183 0.46223 0.0
O295 O 0.78094 0.43749 0.46428 0.0
C296 C 0.80026 0.39904 0.51969 0.0
O297 O 0.81118 0.40198 0.50634 0.0
O298 O 0.80856 0.44143 0.49632 0.0
C299 C 0.69717 0.50184 0.30153 0.0
O300 O 0.70271 0.51743 0.31323 0.0
O301 O 0.64206 0.50776 0.28717 0.0
Zn302 Zn 0.66347 0.51012 0.30527 0.0
O303 O 0.65488 0.50204 0.32967 0.0
C304 C 0.66936 0.55182 0.30878 0.0
O305 O 0.65133 0.54665 0.30739 0.0
O306 O 0.68024 0.49525 0.29601 0.0
C307 C 0.66492 0.51049 0.34402 0.0
O308 O 0.6809 0.52325 0.34236 0.0
C309 C 0.62727 0.4938 0.28396 0.0
O310 O 0.62503 0.47781 0.29255 0.0
O311 O 0.6775 0.53866 0.30824 0.0
Tb312 Tb 0.06741 0.04879 0.03494 0.0
Tb313 Tb 0.02986 0.01872 0.01267 0.0
C314 C 0.02885 0.04137 0.05031 0.0
C315 C 0.11593 0.07178 0.05082 0.0
C316 C 0.15142 0.0676 0.0515 0.0
C317 C 0.14528 0.07485 0.06734 0.0
C318 C 0.12763 0.07697 0.06698 0.0
C319 C 0.12225 0.06515 0.03487 0.0
C320 C 0.13986 0.06318 0.03518 0.0
C321 C 0.09666 0.07142 0.05109 0.0
O322 O 0.06963 0.01944 0.03733 0.0
O323 O 0.03904 1.00188 0.03285 0.0
O324 O 0.05286 0.01231 0.00066 0.0
O325 O 0.07419 0.04234 0.0074 0.0
O326 O 1.00354 0.99872 0.01254 0.0
O327 O 0.01596 1.00607 0.98733 0.0
O328 O 0.03514 0.04691 0.00104 0.0
O329 O 0.05063 0.06676 0.02609 0.0
O330 O 0.04643 0.04378 0.05401 0.0
O331 O 0.02036 0.03482 0.03405 0.0
C332 C 0.05609 1.00346 0.03865 0.0
O333 O 0.08892 0.07495 0.03587 0.0
O334 O 0.08616 0.05641 0.05827 0.0
C335 C 0.06828 0.02531 0.99774 0.0
C336 C 0.98449 1.0026 0.98776 0.0
C337 C 0.95263 0.01334 0.97849 0.0
C338 C 0.95142 0.99376 0.9814 0.0
C339 C 0.96728 0.98843 0.98599 0.0
C340 C 0.98577 0.022 0.9843 0.0
C341 C 0.97002 0.0273 0.97963 0.0
C342 C 1.00089 0.99769 0.99475 0.0
C343 C 0.04087 0.06414 0.01033 0.0
H344 H 0.15393 0.07835 0.08009 0.0
H345 H 0.12289 0.08198 0.07944 0.0
H346 H 0.11334 0.06078 0.02232 0.0
H347 H 0.14403 0.05716 0.02285 0.0
H348 H 0.93819 0.9827 0.98058 0.0
H349 H 0.96606 0.97341 0.98872 0.0
H350 H 0.99891 0.03323 0.98584 0.0
H351 H 0.97141 0.04257 0.97786 0.0
Tb352 Tb 0.28293 0.78222 0.29147 0.0
Tb353 Tb 0.30409 0.77536 0.25506 0.0
C354 C 0.26766 0.78795 0.25247 0.0
C355 C 0.26425 0.77405 0.33609 0.0
C356 C 0.26089 0.75244 0.3671 0.0
C357 C 0.25762 0.77083 0.36781 0.0
C358 C 0.2593 0.78156 0.3524 0.0
C359 C 0.2671 0.75552 0.33517 0.0
C360 C 0.2654 0.74479 0.35052 0.0
C361 C 0.26786 0.78607 0.32053 0.0
O362 O 0.26805 0.7536 0.27796 0.0
O363 O 0.29169 0.74661 0.26411 0.0
O364 O 0.32296 0.77727 0.27889 0.0
O365 O 0.30187 0.76609 0.29949 0.0
O366 O 0.30404 0.75913 0.23027 0.0
O367 O 0.32753 0.78338 0.24043 0.0
O368 O 0.3071 0.80642 0.2582 0.0
O369 O 0.3047 0.80921 0.2891 0.0
O370 O 0.27027 0.79452 0.26985 0.0
O371 O 0.27729 0.77728 0.24523 0.0
C372 C 0.27515 0.74104 0.26973 0.0
O373 O 0.28518 0.79421 0.31861 0.0
O374 O 0.25881 0.77815 0.30498 0.0
C375 C 0.31854 0.76945 0.29428 0.0
C376 C 0.31891 0.77966 0.20897 0.0
C377 C 0.31592 0.79526 0.1751 0.0
C378 C 0.32601 0.7818 0.1773 0.0
C379 C 0.32745 0.774 0.19415 0.0
C380 C 0.30906 0.79327 0.20691 0.0
C381 C 0.3076 0.80102 0.19015 0.0
C382 C 0.31959 0.77103 0.22646 0.0
C383 C 0.30988 0.81704 0.27388 0.0
H384 H 0.25397 0.77702 0.38034 0.0
H385 H 0.25714 0.7959 0.35332 0.0
H386 H 0.27113 0.7496 0.32271 0.0
H387 H 0.2683 0.73083 0.3496 0.0
H388 H 0.33246 0.77701 0.16592 0.0
H389 H 0.33503 0.76342 0.19556 0.0
H390 H 0.30239 0.79779 0.21826 0.0
H391 H 0.30002 0.81162 0.189 0.0
Tb392 Tb 0.52116 0.0216 0.52352 0.0
Tb393 Tb 0.56416 0.0332 0.51308 0.0
C394 C 0.55087 0.00976 0.54691 0.0
C395 C 0.47602 0.02634 0.53345 0.0
C396 C 0.45206 0.04955 0.53612 0.0
C397 C 0.44578 0.02931 0.53812 0.0
C398 C 0.45769 0.01779 0.53676 0.0
C399 C 0.48245 0.04654 0.53169 0.0
C400 C 0.47056 0.05807 0.53301 0.0
C401 C 0.48829 0.01413 0.5313 0.0
O402 O 0.536 0.04856 0.54001 0.0
O403 O 0.55937 0.06066 0.52182 0.0
O404 O 0.54778 0.03771 0.48933 0.0
O405 O 0.52381 0.0433 0.50385 0.0
O406 O 0.59194 0.04801 0.52062 0.0
O407 O 0.58345 0.03115 0.49451 0.0
O408 O 0.55341 1.00164 0.50801 0.0
O409 O 0.52296 0.9994 0.50268 0.0
O410 O 0.53397 1.00395 0.53941 0.0
O411 O 0.56348 0.02419 0.54085 0.0
C412 C 0.549 0.06323 0.53477 0.0
O413 O 0.49311 0.01206 0.51476 0.0
O414 O 0.50226 0.01796 0.54353 0.0
C415 C 0.5336 0.0446 0.4897 0.0
C416 C 0.61098 0.0301 0.50983 0.0
C417 C 0.63725 0.01028 0.51724 0.0
C418 C 0.64244 0.02892 0.51048 0.0
C419 C 0.62938 0.03875 0.5068 0.0
C420 C 0.60572 0.01158 0.51665 0.0
C421 C 0.61872 1.00173 0.52027 0.0
C422 C 0.59729 0.04045 0.50616 0.0
C423 C 0.53667 0.99189 0.50142 0.0
H424 H 0.43156 0.02231 0.54032 0.0
H425 H 0.45254 1.00219 0.53808 0.0
H426 H 0.49662 0.05335 0.52914 0.0
H427 H 0.47586 0.07364 0.53165 0.0
H428 H 0.65662 0.03603 0.50823 0.0
H429 H 0.63366 0.05311 0.50166 0.0
H430 H 0.59154 1.00473 0.51912 0.0
H431 H 0.61419 0.9873 0.52521 0.0
Tb432 Tb 0.31616 0.27618 0.78346 0.0
Tb433 Tb 0.27703 0.28573 0.77402 0.0
C434 C 0.27848 0.24526 0.78758 0.0
C435 C 0.36214 0.27129 0.77826 0.0
C436 C 0.39157 0.27374 0.75637 0.0
C437 C 0.39197 0.26694 0.77393 0.0
C438 C 0.37735 0.26573 0.78479 0.0
C439 C 0.36162 0.27805 0.76078 0.0
C440 C 0.37622 0.27931 0.74993 0.0
C441 C 0.34677 0.26996 0.78959 0.0
O442 O 0.3062 0.26327 0.7557 0.0
O443 O 0.28756 0.28207 0.74772 0.0
O444 O 0.29914 0.31304 0.77536 0.0
O445 O 0.3223 0.30095 0.76698 0.0
O446 O 0.25086 0.27863 0.7599 0.0
O447 O 0.26141 0.30516 0.77785 0.0
O448 O 0.27959 0.28412 0.8034 0.0
O449 O 0.31099 0.2929 0.80734 0.0
O450 O 0.29549 0.25314 0.79454 0.0
O451 O 0.27014 0.2544 0.77658 0.0
C452 C 0.29713 0.27016 0.74326 0.0
O453 O 0.34368 0.28656 0.79414 0.0
O454 O 0.33164 0.25627 0.78395 0.0
C455 C 0.31487 0.31527 0.76823 0.0
C456 C 0.22997 0.2893 0.77687 0.0
C457 C 0.19812 0.28376 0.79566 0.0
C458 C 0.2003 0.29449 0.78011 0.0
C459 C 0.21615 0.29727 0.77081 0.0
C460 C 0.2277 0.27817 0.79207 0.0
C461 C 0.21189 0.27541 0.8014 0.0
C462 C 0.24716 0.29362 0.76799 0.0
C463 C 0.29497 0.29075 0.81391 0.0
H464 H 0.40347 0.2623 0.77919 0.0
H465 H 0.37788 0.26041 0.79824 0.0
H466 H 0.34993 0.28241 0.75554 0.0
H467 H 0.37558 0.28486 0.7366 0.0
H468 H 0.19004 0.30128 0.77548 0.0
H469 H 0.21779 0.30599 0.75915 0.0
H470 H 0.23831 0.27192 0.79691 0.0
H471 H 0.21049 0.26687 0.81319 0.0
Tb472 Tb 0.04897 0.04439 0.548 0.0
Tb473 Tb 0.05167 0.02016 0.50986 0.0
C474 C 0.01441 0.01736 0.52565 0.0
C475 C 0.04256 0.05685 0.59635 0.0
C476 C 0.03975 0.04813 0.63311 0.0
C477 C 0.03795 0.06605 0.62762 0.0
C478 C 0.03946 0.07041 0.60939 0.0
C479 C 0.04302 0.03844 0.60144 0.0
C480 C 0.04172 0.03413 0.61966 0.0
C481 C 0.04691 0.06257 0.57795 0.0
O482 O 0.05482 0.01765 0.55718 0.0
O483 O 0.04915 0.99808 0.53005 0.0
O484 O 0.07898 0.02956 0.52407 0.0
O485 O 0.07576 0.0572 0.5386 0.0
O486 O 0.04067 0.99576 0.49081 0.0
O487 O 0.06597 0.0177 0.48679 0.0
O488 O 0.05364 0.04997 0.50182 0.0
O489 O 0.04287 0.06281 0.52675 0.0
O490 O 0.02327 0.02167 0.54188 0.0
O491 O 0.02325 0.0202 0.51086 0.0
C492 C 0.05224 1.00032 0.5481 0.0
O493 O 0.06201 0.05976 0.57265 0.0
O494 O 0.03347 0.05686 0.56509 0.0
C495 C 0.08621 0.0472 0.53217 0.0
C496 C 0.04587 1.00399 0.46088 0.0
C497 C 0.03146 0.00689 0.42534 0.0
C498 C 0.0393 0.9918 0.42888 0.0
C499 C 0.0465 0.9904 0.44656 0.0
C500 C 0.03807 0.01904 0.45742 0.0
C501 C 0.03097 0.02051 0.43979 0.0
C502 C 0.05305 1.00236 0.47948 0.0
C503 C 0.04784 0.06391 0.5098 0.0
H504 H 0.03608 0.07701 0.63754 0.0
H505 H 0.03892 0.08465 0.60561 0.0
H506 H 0.0453 0.02776 0.59149 0.0
H507 H 0.0434 0.02028 0.62332 0.0
H508 H 0.03996 0.98118 0.41798 0.0
H509 H 0.05247 0.97869 0.44905 0.0
H510 H 0.03734 0.02956 0.46839 0.0
H511 H 0.02475 0.03209 0.43755 0.0
Tb512 Tb 0.30929 0.79877 0.76261 0.0
Tb513 Tb 0.28872 0.76232 0.78498 0.0
C514 C 0.30171 0.75539 0.74671 0.0
C515 C 0.3204 0.84693 0.74471 0.0
C516 C 0.30738 0.87972 0.74181 0.0
C517 C 0.31335 0.87138 0.72643 0.0
C518 C 0.31985 0.8551 0.7279 0.0
C519 C 0.31506 0.85567 0.76021 0.0
C520 C 0.30871 0.87195 0.75879 0.0
C521 C 0.32423 0.82801 0.74556 0.0
O522 O 0.28006 0.79843 0.76005 0.0
O523 O 0.26663 0.76658 0.76605 0.0
O524 O 0.28251 0.78751 0.79757 0.0
O525 O 0.30736 0.8113 0.78979 0.0
O526 O 0.27133 0.73361 0.78523 0.0
O527 O 0.28306 0.75122 0.81043 0.0
O528 O 0.31781 0.77139 0.79648 0.0
O529 O 0.3315 0.78658 0.77233 0.0
O530 O 0.30146 0.77306 0.74339 0.0
O531 O 0.30108 0.74978 0.76335 0.0
C532 C 0.26529 0.78303 0.75957 0.0
O533 O 0.33089 0.82457 0.76135 0.0
O534 O 0.31104 0.81296 0.73828 0.0
C535 C 0.29369 0.80534 0.8 0.0
C536 C 0.28055 0.71775 0.80926 0.0
C537 C 0.29283 0.6855 0.81729 0.0
C538 C 0.27409 0.68422 0.81737 0.0
C539 C 0.268 0.70028 0.81338 0.0
C540 C 0.2993 0.71932 0.80983 0.0
C541 C 0.30539 0.70337 0.81386 0.0
C542 C 0.27406 0.73378 0.80296 0.0
C543 C 0.33276 0.77851 0.78791 0.0
H544 H 0.31252 0.87711 0.7132 0.0
H545 H 0.32375 0.84842 0.71576 0.0
H546 H 0.31503 0.84943 0.77327 0.0
H547 H 0.30389 0.87778 0.77082 0.0
H548 H 0.26412 0.67065 0.82001 0.0
H549 H 0.25346 0.69886 0.81294 0.0
H550 H 0.30917 0.73265 0.80648 0.0
H551 H 0.31985 0.70475 0.81329 0.0
Tb552 Tb 0.54538 0.01892 0.04819 0.0
Tb553 Tb 0.55249 0.04154 0.01112 0.0
C554 C 0.58417 0.03805 0.03739 0.0
C555 C 0.54542 0.0108 0.09704 0.0
C556 C 0.55135 0.02555 0.13406 0.0
C557 C 0.55108 1.00613 0.12905 0.0
C558 C 0.54807 0.9988 0.11066 0.0
C559 C 0.5465 0.03039 0.10187 0.0
C560 C 0.54932 0.03766 0.12019 0.0
C561 C 0.54138 1.0029 0.07785 0.0
O562 O 0.54142 0.04779 0.0557 0.0
O563 O 0.55592 0.06524 0.03289 0.0
O564 O 0.52429 0.03819 0.01685 0.0
O565 O 0.51995 0.00993 0.03095 0.0
O566 O 0.56952 0.06377 0.9974 0.0
O567 O 0.54338 0.04556 0.98456 0.0
O568 O 0.54746 0.01051 0.00125 0.0
O569 O 0.55031 0.99679 0.02843 0.0
O570 O 0.57329 0.0379 0.05044 0.0
O571 O 0.57753 0.03514 0.02026 0.0
C572 C 0.5485 0.06467 0.04869 0.0
O573 O 0.52842 0.00787 0.06876 0.0
O574 O 0.55564 1.00451 0.06851 0.0
C575 C 0.51336 0.02235 0.02257 0.0
C576 C 0.56777 0.05491 0.96603 0.0
C577 C 0.58519 0.04761 0.935 0.0
C578 C 0.58241 0.06601 0.93873 0.0
C579 C 0.57368 0.0696 0.95415 0.0
C580 C 0.57079 0.03665 0.96251 0.0
C581 C 0.57933 0.03298 0.94704 0.0
C582 C 0.5588 0.05872 0.98227 0.0
C583 C 0.54898 0.99557 0.01032 0.0
H584 H 0.55285 0.99649 0.13935 0.0
H585 H 0.54751 0.9837 0.1071 0.0
H586 H 0.54467 0.03995 0.0915 0.0
H587 H 0.54911 0.05256 0.12346 0.0
H588 H 0.58672 0.07748 0.92957 0.0
H589 H 0.57153 0.08381 0.95679 0.0
H590 H 0.56654 0.02525 0.97174 0.0
H591 H 0.58153 0.01877 0.94459 0.0
Tb592 Tb 0.28783 0.25485 0.26758 0.0
Tb593 Tb 0.3074 0.2994 0.285 0.0
C594 C 0.29048 0.29072 0.24464 0.0
C595 C 0.27801 0.20786 0.23938 0.0
C596 C 0.29029 0.18099 0.21799 0.0
C597 C 0.27226 0.17573 0.22341 0.0
C598 C 0.26622 0.18906 0.23417 0.0
C599 C 0.29531 0.21381 0.23254 0.0
C600 C 0.30144 0.20047 0.22198 0.0
C601 C 0.27319 0.22032 0.25358 0.0
O602 O 0.31745 0.25926 0.26358 0.0
O603 O 0.32894 0.29274 0.26928 0.0
O604 O 0.31608 0.27964 0.30228 0.0
O605 O 0.28993 0.2544 0.29707 0.0
O606 O 0.32262 0.32853 0.28241 0.0
O607 O 0.31543 0.31853 0.30882 0.0
O608 O 0.27925 0.2928 0.29444 0.0
O609 O 0.26433 0.26438 0.27653 0.0
O610 O 0.29242 0.27317 0.24502 0.0
O611 O 0.29209 0.30213 0.25974 0.0
C612 C 0.33098 0.27577 0.26318 0.0
O613 O 0.28454 0.22487 0.26831 0.0
O614 O 0.26867 0.23544 0.24814 0.0
C615 C 0.30443 0.26417 0.30775 0.0
C616 C 0.31634 0.35077 0.3038 0.0
C617 C 0.30444 0.38421 0.30888 0.0
C618 C 0.32328 0.38588 0.31048 0.0
C619 C 0.32919 0.36922 0.30798 0.0
C620 C 0.29754 0.34895 0.30265 0.0
C621 C 0.29163 0.36553 0.30521 0.0
C622 C 0.32256 0.3336 0.29975 0.0
C623 C 0.26394 0.2788 0.28858 0.0
H624 H 0.2632 0.16098 0.22027 0.0
H625 H 0.25274 0.18434 0.23923 0.0
H626 H 0.30452 0.22837 0.23636 0.0
H627 H 0.31545 0.20507 0.21824 0.0
H628 H 0.33342 0.40008 0.31333 0.0
H629 H 0.34377 0.37079 0.30888 0.0
H630 H 0.28745 0.33479 0.29929 0.0
H631 H 0.27704 0.36379 0.30351 0.0
Tb632 Tb 0.54697 0.54412 0.04816 0.0
Tb633 Tb 0.55055 0.5205 0.01001 0.0
C634 C 0.51287 0.51726 0.02493 0.0
C635 C 0.53962 0.55373 0.09641 0.0
C636 C 0.53648 0.54086 0.13185 0.0
C637 C 0.53756 0.56041 0.12883 0.0
C638 C 0.53925 0.56681 0.11125 0.0
C639 C 0.5373 0.53396 0.09911 0.0
C640 C 0.53584 0.52758 0.11668 0.0
C641 C 0.54421 0.561 0.07855 0.0
O642 O 0.55343 0.51757 0.05698 0.0
O643 O 0.54731 0.49803 0.02988 0.0
O644 O 0.57756 0.5301 0.02489 0.0
O645 O 0.57376 0.55758 0.03913 0.0
O646 O 0.54029 0.49643 0.99049 0.0
O647 O 0.56564 0.51871 0.9874 0.0
O648 O 0.55218 0.5503 0.00218 0.0
O649 O 0.54125 0.56299 0.02712 0.0
O650 O 0.52142 0.52135 0.04131 0.0
O651 O 0.52201 0.52027 0.01035 0.0
C652 C 0.55057 0.50021 0.04791 0.0
O653 O 0.55956 0.55894 0.0732 0.0
O654 O 0.53102 0.55572 0.0654 0.0
C655 C 0.5845 0.5478 0.03296 0.0
C656 C 0.54625 0.50572 0.96095 0.0
C657 C 0.53404 0.5111 0.92527 0.0
C658 C 0.54515 0.49873 0.9281 0.0
C659 C 0.55123 0.49609 0.94585 0.0
C660 C 0.53513 0.518 0.95822 0.0
C661 C 0.52905 0.52064 0.94054 0.0
C662 C 0.55296 0.50348 0.97956 0.0
C663 C 0.54631 0.56418 0.0102 0.0
H664 H 0.53773 0.57093 0.14014 0.0
H665 H 0.54093 0.58212 0.10935 0.0
H666 H 0.53747 0.52364 0.08774 0.0
H667 H 0.53524 0.5125 0.11842 0.0
H668 H 0.54935 0.49133 0.91661 0.0
H669 H 0.55991 0.48666 0.94778 0.0
H670 H 0.53118 0.52556 0.96978 0.0
H671 H 0.52026 0.52999 0.93886 0.0
Tb672 Tb 0.80934 0.30095 0.26567 0.0
Tb673 Tb 0.78904 0.26252 0.28589 0.0
C674 C 0.80531 0.25879 0.24829 0.0
C675 C 0.82183 0.35114 0.25114 0.0
C676 C 0.81183 0.38607 0.25217 0.0
C677 C 0.8126 0.37604 0.23532 0.0
C678 C 0.81765 0.35874 0.23482 0.0
C679 C 0.82177 0.36159 0.26797 0.0
C680 C 0.81689 0.37893 0.26846 0.0
C681 C 0.82449 0.33154 0.25049 0.0
O682 O 0.77976 0.29926 0.26229 0.0
O683 O 0.76727 0.26677 0.26662 0.0
O684 O 0.78181 0.28653 0.29969 0.0
O685 O 0.80591 0.31197 0.29294 0.0
O686 O 0.77215 0.23343 0.28447 0.0
O687 O 0.78282 0.24974 0.31052 0.0
O688 O 0.81785 0.27162 0.29818 0.0
O689 O 0.83192 0.28935 0.27549 0.0
O690 O 0.80435 0.27636 0.24545 0.0
O691 O 0.80289 0.25183 0.26434 0.0
C692 C 0.76542 0.28335 0.26094 0.0
O693 O 0.83129 0.32661 0.26554 0.0
O694 O 0.81072 0.31735 0.24273 0.0
C695 C 0.79216 0.30471 0.30273 0.0
C696 C 0.78083 0.21641 0.30784 0.0
C697 C 0.79318 0.18405 0.31516 0.0
C698 C 0.77449 0.18281 0.31568 0.0
C699 C 0.76836 0.19893 0.31204 0.0
C700 C 0.79954 0.21793 0.30792 0.0
C701 C 0.80567 0.20191 0.3116 0.0
C702 C 0.77428 0.23261 0.30213 0.0
C703 C 0.83297 0.28007 0.29036 0.0
H704 H 0.80884 0.38129 0.22257 0.0
H705 H 0.8176 0.35089 0.2217 0.0
H706 H 0.8248 0.35603 0.2808 0.0
H707 H 0.81615 0.38619 0.28166 0.0
H708 H 0.76458 0.16925 0.31844 0.0
H709 H 0.75386 0.19757 0.31199 0.0
H710 H 0.80933 0.23129 0.30453 0.0
H711 H 0.82008 0.20325 0.31071 0.0
Tb712 Tb 0.04415 0.51822 0.54495 0.0
Tb713 Tb 0.05093 0.54129 0.50838 0.0
C714 C 0.08294 0.53807 0.53449 0.0
C715 C 0.04224 0.5084 0.59331 0.0
C716 C 0.04161 0.52381 0.62921 0.0
C717 C 0.03389 0.50363 0.62428 0.0
C718 C 0.03418 0.49598 0.6064 0.0
C719 C 0.05106 0.5283 0.59847 0.0
C720 C 0.05082 0.53595 0.61636 0.0
C721 C 0.03945 0.50115 0.57401 0.0
O722 O 0.03998 0.54687 0.55311 0.0
O723 O 0.05395 0.56473 0.53027 0.0
O724 O 0.0227 0.53726 0.51425 0.0
O725 O 0.01922 0.50838 0.52681 0.0
O726 O 0.06748 0.56404 0.49483 0.0
O727 O 0.04162 0.54525 0.48187 0.0
O728 O 0.04625 0.51032 0.49824 0.0
O729 O 0.05053 0.49703 0.5253 0.0
O730 O 0.07204 0.53732 0.54762 0.0
O731 O 0.0763 0.53548 0.51736 0.0
C732 C 0.04673 0.56389 0.54619 0.0
O733 O 0.02658 0.506 0.56466 0.0
O734 O 0.05425 0.50381 0.56533 0.0
C735 C 1.01212 0.52054 0.51863 0.0
C736 C 0.0659 0.55582 0.46337 0.0
C737 C 0.08403 0.55027 0.43233 0.0
C738 C 0.08107 0.56844 0.43678 0.0
C739 C 0.072 0.57118 0.4522 0.0
C740 C 0.06901 0.53773 0.4591 0.0
C741 C 0.07793 0.53494 0.44363 0.0
C742 C 0.05677 0.55888 0.47971 0.0
C743 C 0.04866 0.49565 0.50721 0.0
H744 H 0.02682 0.49397 0.63401 0.0
H745 H 0.0273 0.4806 0.60257 0.0
H746 H 0.05725 0.53809 0.58842 0.0
H747 H 0.05668 0.55158 0.61975 0.0
H748 H 0.08553 0.58043 0.42821 0.0
H749 H 0.06977 0.58526 0.45543 0.0
H750 H 0.06457 0.5258 0.46774 0.0
H751 H 0.08025 0.52087 0.44062 0.0
Tb752 Tb 0.81425 0.77799 0.28358 0.0
Tb753 Tb 0.77608 0.78949 0.27421 0.0
C754 C 0.77578 0.74851 0.28768 0.0
C755 C 0.85944 0.77124 0.27826 0.0
C756 C 0.88884 0.77354 0.25636 0.0
C757 C 0.88953 0.76747 0.2742 0.0
C758 C 0.87492 0.76634 0.28506 0.0
C759 C 0.85862 0.77723 0.26048 0.0
C760 C 0.8732 0.77839 0.24963 0.0
C761 C 0.84422 0.77039 0.28969 0.0
O762 O 0.80392 0.76519 0.25585 0.0
O763 O 0.78606 0.78482 0.24781 0.0
O764 O 0.79906 0.81598 0.27493 0.0
O765 O 0.82132 0.80238 0.26674 0.0
O766 O 0.75015 0.78393 0.25996 0.0
O767 O 0.76146 0.80985 0.2786 0.0
O768 O 0.77859 0.78773 0.30358 0.0
O769 O 0.80992 0.7955 0.30732 0.0
O770 O 0.79286 0.75572 0.29467 0.0
O771 O 0.76795 0.75813 0.2767 0.0
C772 C 0.79511 0.77235 0.24339 0.0
O773 O 0.84176 0.78727 0.29437 0.0
O774 O 0.82879 0.75718 0.28403 0.0
C775 C 0.81455 0.81722 0.26763 0.0
C776 C 0.72969 0.79551 0.27696 0.0
C777 C 0.69768 0.79082 0.29537 0.0
C778 C 0.70345 0.80632 0.28417 0.0
C779 C 0.71933 0.80863 0.27502 0.0
C780 C 0.7239 0.77985 0.28793 0.0
C781 C 0.70793 0.77745 0.29699 0.0
C782 C 0.74706 0.7991 0.26841 0.0
C783 C 0.79405 0.7939 0.31402 0.0
H784 H 0.90129 0.76342 0.27969 0.0
H785 H 0.87571 0.76166 0.29876 0.0
H786 H 0.84674 0.78113 0.25505 0.0
H787 H 0.87233 0.78339 0.23608 0.0
H788 H 0.69571 0.81671 0.28252 0.0
H789 H 0.72368 0.82084 0.26667 0.0
H790 H 0.73189 0.76971 0.28973 0.0
H791 H 0.70391 0.76549 0.30568 0.0
Tb792 Tb 0.78094 0.27596 0.78913 0.0
Tb793 Tb 0.80337 0.27067 0.753 0.0
C794 C 0.76859 0.28549 0.74991 0.0
C795 C 0.76424 0.26835 0.83453 0.0
C796 C 0.76424 0.24918 0.86687 0.0
C797 C 0.75834 0.26607 0.86653 0.0
C798 C 0.75832 0.27557 0.85044 0.0
C799 C 0.77012 0.25152 0.83481 0.0
C800 C 0.77006 0.24198 0.85081 0.0
C801 C 0.7652 0.27884 0.81792 0.0
O802 O 0.77456 0.24461 0.78241 0.0
O803 O 0.77976 0.24496 0.75196 0.0
O804 O 0.81282 0.25483 0.77382 0.0
O805 O 0.80712 0.27236 0.79877 0.0
O806 O 0.8029 0.26035 0.72557 0.0
O807 O 0.82854 0.27498 0.74134 0.0
O808 O 0.81759 0.2989 0.76756 0.0
O809 O 0.79374 0.30533 0.78157 0.0
O810 O 0.76346 0.27815 0.76538 0.0
O811 O 0.78508 0.28738 0.7446 0.0
C812 C 0.77224 0.23592 0.76579 0.0
O813 O 0.7815 0.28995 0.81524 0.0
O814 O 0.75698 0.26829 0.803 0.0
C815 C 0.81556 0.2606 0.79134 0.0
C816 C 0.82551 0.28135 0.71043 0.0
C817 C 0.82973 0.30478 0.68068 0.0
C818 C 0.83094 0.28551 0.67855 0.0
C819 C 0.8288 0.27388 0.69333 0.0
C820 C 0.82506 0.3008 0.71283 0.0
C821 C 0.82724 0.31245 0.6981 0.0
C822 C 0.82049 0.26828 0.72508 0.0
C823 C 0.81003 0.31127 0.77541 0.0
H824 H 0.7537 0.27187 0.87867 0.0
H825 H 0.75385 0.28863 0.85045 0.0
H826 H 0.77499 0.24591 0.82269 0.0
H827 H 0.77497 0.22921 0.85072 0.0
H828 H 0.83264 0.27911 0.66527 0.0
H829 H 0.82898 0.25881 0.69124 0.0
H830 H 0.82239 0.30677 0.72595 0.0
H831 H 0.8265 0.32731 0.70024 0.0
Tb832 Tb 0.78708 0.75562 0.7667 0.0
Tb833 Tb 0.80712 0.79982 0.7847 0.0
C834 C 0.79054 0.79194 0.74428 0.0
C835 C 0.77649 0.70904 0.73772 0.0
C836 C 0.78855 0.68172 0.71674 0.0
C837 C 0.77029 0.67697 0.72151 0.0
C838 C 0.76436 0.69051 0.7321 0.0
C839 C 0.794 0.71459 0.73133 0.0
C840 C 0.80003 0.70104 0.72098 0.0
C841 C 0.77181 0.72148 0.75204 0.0
O842 O 0.81661 0.75954 0.7626 0.0
O843 O 0.8286 0.79291 0.769 0.0
O844 O 0.81573 0.77981 0.80173 0.0
O845 O 0.78966 0.75442 0.79609 0.0
O846 O 0.82289 0.82878 0.78223 0.0
O847 O 0.8151 0.81895 0.80855 0.0
O848 O 0.77906 0.79333 0.79436 0.0
O849 O 0.76384 0.76543 0.7759 0.0
O850 O 0.79244 0.77436 0.7445 0.0
O851 O 0.79194 0.80306 0.75953 0.0
C852 C 0.83037 0.77592 0.76256 0.0
O853 O 0.78299 0.72546 0.76689 0.0
O854 O 0.76782 0.73697 0.74684 0.0
C855 C 0.80427 0.76393 0.80676 0.0
C856 C 0.81684 0.8514 0.80336 0.0
C857 C 0.80568 0.88539 0.80762 0.0
C858 C 0.82445 0.88673 0.80876 0.0
C859 C 0.82999 0.86979 0.80666 0.0
C860 C 0.79813 0.84995 0.80268 0.0
C861 C 0.79259 0.86681 0.80485 0.0
C862 C 0.82267 0.83392 0.79952 0.0
C863 C 0.76363 0.7796 0.7883 0.0
H864 H 0.76097 0.66239 0.71812 0.0
H865 H 0.7507 0.68612 0.73679 0.0
H866 H 0.80346 0.72895 0.73545 0.0
H867 H 0.81421 0.70529 0.71775 0.0
H868 H 0.8348 0.90085 0.8109 0.0
H869 H 0.8445 0.87108 0.80717 0.0
H870 H 0.78781 0.83584 0.79996 0.0
H871 H 0.77803 0.86532 0.80352 0.0
Tb872 Tb 0.56307 0.54195 0.53633 0.0
Tb873 Tb 0.52606 0.51324 0.51268 0.0
C874 C 0.52453 0.53613 0.55 0.0
C875 C 0.60855 0.55754 0.56107 0.0
C876 C 0.64104 0.54766 0.56929 0.0
C877 C 0.6413 0.56744 0.56971 0.0
C878 C 0.62512 0.57234 0.56562 0.0
C879 C 0.60812 0.53784 0.56124 0.0
C880 C 0.6242 0.53294 0.56538 0.0
C881 C 0.59203 0.56244 0.55459 0.0
O882 O 0.55648 0.51367 0.54792 0.0
O883 O 0.54062 0.49371 0.52294 0.0
O884 O 0.54816 0.52143 0.49478 0.0
O885 O 0.57221 0.52458 0.5159 0.0
O886 O 0.4996 0.4932 0.5115 0.0
O887 O 0.51275 0.50136 0.48691 0.0
O888 O 0.52417 0.5427 0.51086 0.0
O889 O 0.55491 0.5594 0.51595 0.0
O890 O 0.54009 0.54903 0.54748 0.0
O891 O 0.51885 0.51909 0.54031 0.0
C892 C 0.55007 0.49628 0.53892 0.0
O893 O 0.58933 0.56206 0.53685 0.0
O894 O 0.57706 0.55348 0.56191 0.0
C895 C 0.56507 0.52133 0.49893 0.0
C896 C 0.48123 0.49783 0.48644 0.0
C897 C 0.44973 0.5089 0.47637 0.0
C898 C 0.44821 0.48939 0.47984 0.0
C899 C 0.46389 0.4839 0.48484 0.0
C900 C 0.48283 0.51713 0.48236 0.0
C901 C 0.46725 0.5226 0.47733 0.0
C902 C 0.49743 0.49274 0.49374 0.0
C903 C 0.53802 0.55851 0.51008 0.0
H904 H 0.65407 0.57908 0.57274 0.0
H905 H 0.62565 0.58762 0.56545 0.0
H906 H 0.59546 0.52621 0.55752 0.0
H907 H 0.62356 0.51758 0.56456 0.0
H908 H 0.43489 0.47852 0.47914 0.0
H909 H 0.46242 0.46895 0.48799 0.0
H910 H 0.49608 0.52818 0.48365 0.0
H911 H 0.46889 0.53782 0.47513 0.0
Tb912 Tb 0.0267 0.52863 0.02421 0.0
Tb913 Tb 0.07016 0.53862 0.01592 0.0
C914 C 0.05461 0.5161 0.04944 0.0
C915 C 0.9818 0.53559 0.03127 0.0
C916 C 0.95904 0.56027 0.03186 0.0
C917 C 0.9522 0.54051 0.03559 0.0
C918 C 0.96352 0.52827 0.03528 0.0
C919 C 0.98877 0.5553 0.02772 0.0
C920 C 0.97748 0.56754 0.028 0.0
C921 C 0.99352 0.52265 0.03044 0.0
O922 O 0.04167 0.55571 0.04051 0.0
O923 O 0.06571 0.56666 0.02287 0.0
O924 O 0.05511 0.54247 0.99101 0.0
O925 O 0.03081 0.54949 0.00365 0.0
O926 O 0.09789 0.55226 0.0247 0.0
O927 O 0.09003 0.53591 0.99829 0.0
O928 O 0.05872 0.50707 0.01128 0.0
O929 O 0.02877 0.50592 0.00402 0.0
O930 O 0.03802 0.51059 0.04117 0.0
O931 O 0.06774 0.53035 0.04385 0.0
C932 C 0.05504 0.56996 0.03523 0.0
O933 O 0.99894 0.51962 0.01434 0.0
O934 O 1.00697 0.52645 0.04326 0.0
C935 C 0.04109 0.54964 0.99 0.0
C936 C 0.11636 0.53325 0.01457 0.0
C937 C 0.13995 0.51001 0.02052 0.0
C938 C 0.14498 0.52611 0.00984 0.0
C939 C 0.13324 0.53762 0.00688 0.0
C940 C 0.11137 0.51741 0.02545 0.0
C941 C 0.12309 0.50591 0.02844 0.0
C942 C 0.10354 0.54453 0.01051 0.0
C943 C 0.04221 0.49789 0.00367 0.0
H944 H 0.93814 0.53455 0.03885 0.0
H945 H 0.95798 0.51308 0.03809 0.0
H946 H 1.0029 0.56114 0.02456 0.0
H947 H 0.98311 0.58259 0.02484 0.0
H948 H 0.15776 0.5295 0.00336 0.0
H949 H 0.1372 0.54973 0.99834 0.0
H950 H 0.09832 0.5138 0.03145 0.0
H951 H 0.11892 0.4938 0.03693 0.0
C952 C 0.02098 0.21123 0.94702 0.0
C953 C 1.0032 0.21327 0.94606 0.0
C954 C 0.02453 0.19525 0.95476 0.0
C955 C 1.00155 0.1449 0.96593 0.0
H956 H 0.04766 0.15157 0.99458 0.0
C957 C 0.02676 0.07942 0.98574 0.0
C958 C 0.03581 0.08095 0.00327 0.0
C959 C 0.02215 0.09548 0.97921 0.0
C960 C 0.03463 0.14945 0.98677 0.0
H961 H 0.97527 0.20037 0.95291 0.0
H962 H 0.98156 0.17261 0.9668 0.0
H963 H 0.04063 0.18004 0.98335 0.0
H964 H 0.0467 0.10038 0.02786 0.0
H965 H 0.03843 0.12814 0.01661 0.0
H966 H 0.99542 0.11432 0.96973 0.0
C967 C 0.99268 0.1832 0.96122 0.0
C968 C 0.0307 0.16577 0.98014 0.0
C969 C 0.98911 0.19918 0.95338 0.0
C970 C 0.03992 0.09875 0.0142 0.0
C971 C 0.03525 0.11472 0.00772 0.0
C972 C 1.00546 0.12856 0.97264 0.0
C973 C 1.0104 0.18097 0.96185 0.0
C974 C 0.01417 0.16368 0.96954 0.0
C975 C 0.02644 0.11335 0.9901 0.0
C976 C 0.02209 0.13065 0.98308 0.0
H977 H 0.03215 0.22177 0.94143 0.0
H978 H 0.03827 0.19385 0.95478 0.0
H979 H 0.98878 0.14276 0.95764 0.0
H980 H 0.0234 0.06591 0.97698 0.0
H981 H 0.01554 0.094 0.96549 0.0
C982 C 0.13162 0.80795 0.16945 0.0
C983 C 0.13036 0.80399 0.15035 0.0
C984 C 0.14759 0.80846 0.18011 0.0
C985 C 0.18665 0.78865 0.17961 0.0
H986 H 0.20743 0.82739 0.22051 0.0
C987 C 0.25289 0.78928 0.22145 0.0
C988 C 0.25333 0.79243 0.24057 0.0
C989 C 0.23888 0.79254 0.21014 0.0
C990 C 0.20169 0.81636 0.20923 0.0
H991 H 0.14507 0.79805 0.12739 0.0
H992 H 0.17291 0.79893 0.14602 0.0
H993 H 0.18106 0.82986 0.20122 0.0
H994 H 0.23966 0.80191 0.26281 0.0
H995 H 0.21494 0.80718 0.24307 0.0
H996 H 0.20687 0.77484 0.18776 0.0
C997 C 0.16148 0.80146 0.15275 0.0
C998 C 0.18663 0.81781 0.19818 0.0
C999 C 0.14556 0.80105 0.14208 0.0
C1000 C 0.23971 0.79937 0.24813 0.0
C1001 C 0.22559 0.80249 0.2368 0.0
C1002 C 0.20161 0.78714 0.19069 0.0
C1003 C 0.16257 0.80493 0.17189 0.0
C1004 C 0.17894 0.80394 0.18329 0.0
C1005 C 0.2249 0.79887 0.21768 0.0
C1006 C 0.20929 0.80094 0.20566 0.0
H1007 H 0.12016 0.81033 0.17624 0.0
H1008 H 0.14798 0.81101 0.19484 0.0
H1009 H 0.18082 0.77754 0.16843 0.0
H1010 H 0.26333 0.7842 0.21517 0.0
H1011 H 0.23898 0.79001 0.19546 0.0
C1012 C 0.52065 0.82088 0.45047 0.0
C1013 C 0.50249 0.80911 0.44583 0.0
C1014 C 0.52426 0.84043 0.45726 0.0
C1015 C 0.50406 0.8811 0.45653 0.0
H1016 H 0.54138 0.90519 0.49609 0.0
C1017 C 0.51478 0.95968 0.48875 0.0
C1018 C 0.53289 0.97135 0.49379 0.0
C1019 C 0.51111 0.9399 0.48279 0.0
C1020 C 0.53108 0.89874 0.48486 0.0
H1021 H 0.47387 0.80843 0.44531 0.0
H1022 H 0.48021 0.84251 0.45724 0.0
H1023 H 0.53475 0.87034 0.48679 0.0
H1024 H 0.56141 0.97148 0.49604 0.0
H1025 H 0.55501 0.93707 0.48534 0.0
H1026 H 0.50049 0.90948 0.45444 0.0
C1027 C 0.49164 0.83668 0.4554 0.0
C1028 C 0.52725 0.87877 0.47959 0.0
C1029 C 0.48802 0.81712 0.44869 0.0
C1030 C 0.54728 0.9629 0.49234 0.0
C1031 C 0.54361 0.94313 0.48634 0.0
C1032 C 0.50793 0.90108 0.46175 0.0
C1033 C 0.50981 0.84862 0.45948 0.0
C1034 C 0.51368 0.86974 0.46538 0.0
C1035 C 0.52546 0.93134 0.48168 0.0
C1036 C 0.52148 0.91014 0.47598 0.0
H1037 H 0.53212 0.81517 0.44844 0.0
H1038 H 0.53841 0.8493 0.46017 0.0
H1039 H 0.49376 0.87463 0.44531 0.0
H1040 H 0.50335 0.96569 0.48976 0.0
H1041 H 0.49696 0.9312 0.4795 0.0
C1042 C 0.50734 0.28017 0.64655 0.0
C1043 C 0.52562 0.28599 0.65418 0.0
C1044 C 0.49294 0.2789 0.65769 0.0
C1045 C 0.4815 0.27452 0.70571 0.0
H1046 H 0.4403 0.29227 0.68903 0.0
C1047 C 0.42533 0.28174 0.7525 0.0
C1048 C 0.40706 0.27503 0.74478 0.0
C1049 C 0.43988 0.28311 0.74154 0.0
C1050 C 0.45163 0.28708 0.6938 0.0
H1051 H 0.54316 0.29514 0.6795 0.0
H1052 H 0.51806 0.29319 0.6989 0.0
H1053 H 0.46558 0.29473 0.66974 0.0
H1054 H 0.38979 0.26413 0.71952 0.0
H1055 H 0.4152 0.26665 0.70039 0.0
H1056 H 0.46755 0.26698 0.72982 0.0
C1057 C 0.51482 0.28931 0.68433 0.0
C1058 C 0.4661 0.28847 0.68274 0.0
C1059 C 0.52921 0.29053 0.6732 0.0
C1060 C 0.4037 0.26967 0.72585 0.0
C1061 C 0.41825 0.2711 0.71489 0.0
C1062 C 0.46704 0.2732 0.71679 0.0
C1063 C 0.49651 0.28347 0.67671 0.0
C1064 C 0.48119 0.28215 0.68855 0.0
C1065 C 0.4365 0.27785 0.72261 0.0
C1066 C 0.45193 0.27942 0.71093 0.0
H1067 H 0.5041 0.27649 0.63196 0.0
H1068 H 0.47899 0.27408 0.65142 0.0
H1069 H 0.49278 0.26925 0.71047 0.0
H1070 H 0.4284 0.28626 0.76698 0.0
H1071 H 0.45381 0.2886 0.74784 0.0
C1072 C 0.04049 0.843 0.62501 0.0
C1073 C 0.05457 0.84466 0.63899 0.0
C1074 C 0.03981 0.85923 0.61495 0.0
C1075 C 0.06054 0.91517 0.616 0.0
H1076 H 0.03722 0.90809 0.56676 0.0
C1077 C 0.05348 0.98322 0.5778 0.0
C1078 C 0.05251 0.98249 0.55849 0.0
C1079 C 0.05328 0.96649 0.58733 0.0
C1080 C 0.04404 0.9106 0.58043 0.0
H1081 H 0.0793 0.86524 0.65255 0.0
H1082 H 0.07851 0.89263 0.6351 0.0
H1083 H 0.03799 0.87958 0.58291 0.0
H1084 H 0.05072 0.96278 0.53437 0.0
H1085 H 0.0509 0.93418 0.55067 0.0
H1086 H 0.06716 0.9461 0.6134 0.0
C1087 C 0.06749 0.87914 0.63207 0.0
C1088 C 0.04423 0.89395 0.58995 0.0
C1089 C 0.06806 0.86309 0.64213 0.0
C1090 C 0.05144 0.96424 0.54918 0.0
C1091 C 0.05138 0.94755 0.55869 0.0
C1092 C 0.06044 0.93178 0.60647 0.0
C1093 C 0.05324 0.87783 0.61836 0.0
C1094 C 0.05258 0.89576 0.60799 0.0
C1095 C 0.05225 0.94816 0.57805 0.0
C1096 C 0.05222 0.93002 0.58839 0.0
H1097 H 0.02972 0.82926 0.62208 0.0
H1098 H 0.02844 0.85721 0.60474 0.0
H1099 H 0.06685 0.91776 0.62989 0.0
H1100 H 0.0542 0.99675 0.58569 0.0
H1101 H 0.05365 0.96802 0.6021 0.0
C1102 C 0.47652 0.76484 0.87419 0.0
C1103 C 0.4933 0.76962 0.86587 0.0
C1104 C 0.45989 0.7656 0.8651 0.0
C1105 C 0.43657 0.77066 0.81858 0.0
H1106 H 0.39991 0.78036 0.84892 0.0
C1107 C 0.36765 0.78381 0.78707 0.0
C1108 C 0.35139 0.7774 0.79611 0.0
C1109 C 0.38489 0.78283 0.79483 0.0
C1110 C 0.40973 0.77736 0.84004 0.0
H1111 H 0.50491 0.77892 0.84064 0.0
H1112 H 0.47605 0.78056 0.82479 0.0
H1113 H 0.42906 0.77906 0.863 0.0
H1114 H 0.34131 0.76469 0.82084 0.0
H1115 H 0.37086 0.76304 0.8342 0.0
H1116 H 0.41711 0.76939 0.79556 0.0
C1117 C 0.4757 0.77588 0.83852 0.0
C1118 C 0.42678 0.77654 0.84826 0.0
C1119 C 0.49248 0.77495 0.84768 0.0
C1120 C 0.35325 0.76992 0.81328 0.0
C1121 C 0.37048 0.76908 0.82109 0.0
C1122 C 0.41948 0.77162 0.81032 0.0
C1123 C 0.45894 0.77145 0.84711 0.0
C1124 C 0.44067 0.77296 0.83783 0.0
C1125 C 0.38681 0.77555 0.81213 0.0
C1126 C 0.40552 0.77483 0.82085 0.0
H1127 H 0.47614 0.76046 0.88805 0.0
H1128 H 0.44766 0.76139 0.87239 0.0
H1129 H 0.44642 0.7677 0.80972 0.0
H1130 H 0.36711 0.78968 0.77388 0.0
H1131 H 0.39683 0.78819 0.78731 0.0
C1132 C 0.53662 0.21817 0.13601 0.0
C1133 C 0.54802 0.23552 0.12988 0.0
C1134 C 0.53602 0.19942 0.12785 0.0
C1135 C 0.56252 0.17468 0.09672 0.0
H1136 H 0.51913 0.12991 0.09468 0.0
C1137 C 0.55707 0.10203 0.05234 0.0
C1138 C 0.54809 0.08377 0.05873 0.0
C1139 C 0.55673 0.11989 0.06144 0.0
C1140 C 0.53148 0.14216 0.09523 0.0
H1141 H 0.56725 0.24616 0.10969 0.0
H1142 H 0.5658 0.21427 0.09541 0.0
H1143 H 0.51882 0.16148 0.10932 0.0
H1144 H 0.53151 0.0706 0.0801 0.0
H1145 H 0.53083 0.1016 0.09585 0.0
H1146 H 0.57511 0.15551 0.0825 0.0
C1147 C 0.55769 0.21477 0.10689 0.0
C1148 C 0.53133 0.16046 0.10374 0.0
C1149 C 0.55839 0.23335 0.11507 0.0
C1150 C 0.53864 0.08418 0.07462 0.0
C1151 C 0.53815 0.1021 0.08366 0.0
C1152 C 0.56262 0.1565 0.08813 0.0
C1153 C 0.54673 0.19728 0.1132 0.0
C1154 C 0.54681 0.17724 0.10456 0.0
C1155 C 0.54726 0.12039 0.0773 0.0
C1156 C 0.54709 0.13983 0.08706 0.0
H1157 H 0.52847 0.21904 0.1474 0.0
H1158 H 0.52743 0.18658 0.1334 0.0
H1159 H 0.57502 0.18673 0.09735 0.0
H1160 H 0.56448 0.1026 0.04018 0.0
H1161 H 0.56373 0.1334 0.05577 0.0
C1162 C 0.11719 0.287 0.35976 0.0
C1163 C 0.10309 0.26893 0.35776 0.0
C1164 C 0.13453 0.28908 0.35244 0.0
C1165 C 0.16365 0.2581 0.33185 0.0
H1166 H 0.19511 0.30804 0.32001 0.0
C1167 C 0.22965 0.26268 0.29235 0.0
C1168 C 0.24562 0.27882 0.2962 0.0
C1169 C 0.21281 0.2622 0.29983 0.0
C1170 C 0.18667 0.29389 0.32331 0.0
H1171 H 0.09683 0.23913 0.34553 0.0
H1172 H 0.12582 0.24279 0.33257 0.0
H1173 H 0.16577 0.30618 0.33255 0.0
H1174 H 0.25551 0.3074 0.31127 0.0
H1175 H 0.22641 0.30668 0.32405 0.0
H1176 H 0.1844 0.24578 0.32251 0.0
C1177 C 0.12415 0.25541 0.34033 0.0
C1178 C 0.16957 0.2928 0.33066 0.0
C1179 C 0.10707 0.25332 0.34773 0.0
C1180 C 0.24377 0.29461 0.30778 0.0
C1181 C 0.22684 0.29422 0.31513 0.0
C1182 C 0.18059 0.25917 0.32439 0.0
C1183 C 0.13859 0.27322 0.34267 0.0
C1184 C 0.15745 0.27481 0.33505 0.0
C1185 C 0.2109 0.27791 0.31149 0.0
C1186 C 0.19258 0.27705 0.31981 0.0
H1187 H 0.11504 0.29947 0.3674 0.0
H1188 H 0.14491 0.30314 0.35488 0.0
H1189 H 0.15554 0.24391 0.33536 0.0
H1190 H 0.23013 0.25012 0.28359 0.0
H1191 H 0.20114 0.24939 0.29623 0.0
C1192 C 0.9688 0.05373 0.1942 0.0
C1193 C 0.95231 0.05828 0.19624 0.0
C1194 C 0.97724 0.05655 0.17792 0.0
C1195 C 0.9664 0.05988 0.12895 0.0
H1196 H 0.0191 0.07071 0.1287 0.0
C1197 C 1.00068 0.0369 0.06714 0.0
C1198 C 0.01882 0.04753 0.06481 0.0
C1199 C 0.99202 0.04192 0.08211 0.0
C1200 C 1.00439 0.06806 0.12835 0.0
H1201 H 0.93223 0.07037 0.18318 0.0
H1202 H 0.9473 0.07582 0.15479 0.0
H1203 H 1.00589 0.07446 0.15727 0.0
H1204 H 0.04168 0.07262 0.0751 0.0
H1205 H 0.02635 0.08205 0.10058 0.0
H1206 H 0.96497 0.05388 0.09991 0.0
C1207 C 0.95344 0.0696 0.16566 0.0
C1208 C 0.99678 0.06992 0.14486 0.0
C1209 C 0.94489 0.06661 0.18196 0.0
C1210 C 0.02779 0.06394 0.0769 0.0
C1211 C 0.01902 0.06926 0.09154 0.0
C1212 C 0.97405 0.05831 0.11233 0.0
C1213 C 0.96952 0.06421 0.16333 0.0
C1214 C 0.97767 0.06524 0.14546 0.0
C1215 C 1.00126 0.05795 0.09473 0.0
C1216 C 0.99311 0.06187 0.1119 0.0
H1217 H 0.97486 0.04723 0.20491 0.0
H1218 H 0.98941 0.0519 0.17653 0.0
H1219 H 0.9516 0.05605 0.1289 0.0
H1220 H 0.99352 0.0242 0.0579 0.0
H1221 H 0.97842 0.03272 0.08419 0.0
C1222 C 0.29275 0.67138 0.50217 0.0
C1223 C 0.28664 0.65086 0.49894 0.0
C1224 C 0.28849 0.68321 0.48918 0.0
C1225 C 0.25662 0.68222 0.44877 0.0
H1226 H 0.29519 0.72755 0.4372 0.0
C1227 C 0.25328 0.72124 0.38278 0.0
C1228 C 0.26074 0.74172 0.38377 0.0
C1229 C 0.25479 0.71096 0.39807 0.0
C1230 C 0.28417 0.71514 0.44047 0.0
H1231 H 0.2712 0.62666 0.47959 0.0
H1232 H 0.26401 0.64728 0.45686 0.0
H1233 H 0.30121 0.70809 0.46157 0.0
H1234 H 0.27518 0.76753 0.40176 0.0
H1235 H 0.27752 0.74961 0.42854 0.0
H1236 H 0.23969 0.68911 0.42741 0.0
C1237 C 0.27185 0.65424 0.46954 0.0
C1238 C 0.28763 0.70397 0.45443 0.0
C1239 C 0.2761 0.64242 0.48251 0.0
C1240 C 0.26916 0.75177 0.40057 0.0
C1241 C 0.27069 0.74149 0.41586 0.0
C1242 C 0.25316 0.69339 0.43479 0.0
C1243 C 0.27803 0.67476 0.4727 0.0
C1244 C 0.27397 0.68726 0.4586 0.0
C1245 C 0.26382 0.72094 0.41468 0.0
C1246 C 0.26697 0.70985 0.43036 0.0
H1247 H 0.30082 0.67833 0.51473 0.0
H1248 H 0.29329 0.69897 0.49209 0.0
H1249 H 0.24571 0.66961 0.45186 0.0
H1250 H 0.24653 0.7131 0.37007 0.0
H1251 H 0.24946 0.69512 0.39667 0.0
C1252 C 0.61476 0.95874 0.68265 0.0
C1253 C 0.61035 0.97083 0.69629 0.0
C1254 C 0.60438 0.95405 0.66578 0.0
C1255 C 0.5939 0.96497 0.62886 0.0
H1256 H 0.54417 0.9677 0.62009 0.0
C1257 C 0.57369 1.006 0.57119 0.0
C1258 C 0.55592 0.99953 0.56231 0.0
C1259 C 0.57841 0.99656 0.58593 0.0
C1260 C 0.55796 0.96653 0.62216 0.0
H1261 H 0.59066 0.98594 0.70373 0.0
H1262 H 0.5731 0.97859 0.67418 0.0
H1263 H 0.55412 0.95883 0.64962 0.0
H1264 H 0.52929 0.97766 0.56159 0.0
H1265 H 0.53764 0.96107 0.58729 0.0
H1266 H 0.59779 0.97279 0.60149 0.0
C1267 C 0.58426 0.97229 0.67644 0.0
C1268 C 0.56373 0.96165 0.63917 0.0
C1269 C 0.59444 0.97667 0.69341 0.0
C1270 C 0.54307 0.98314 0.56825 0.0
C1271 C 0.54782 0.97362 0.58298 0.0
C1272 C 0.58808 0.96961 0.61183 0.0
C1273 C 0.58965 0.96173 0.66212 0.0
C1274 C 0.58204 0.96175 0.64301 0.0
C1275 C 0.56551 0.98032 0.59206 0.0
C1276 C 0.57035 0.9714 0.60861 0.0
H1277 H 0.62678 0.95371 0.68467 0.0
H1278 H 0.60859 0.94538 0.65524 0.0
H1279 H 0.60813 0.96532 0.63124 0.0
H1280 H 0.58393 0.01856 0.56696 0.0
H1281 H 0.59205 1.00237 0.59285 0.0
C1282 C 0.30135 0.32369 0.9815 0.0
C1283 C 0.29174 0.33693 0.98669 0.0
C1284 C 0.30035 0.31652 0.96318 0.0
C1285 C 0.30643 0.31445 0.9229 0.0
H1286 H 0.26331 0.30804 0.8896 0.0
C1287 C 0.30964 0.30712 0.84456 0.0
C1288 C 0.29414 0.29524 0.83373 0.0
C1289 C 0.3088 0.3112 0.86331 0.0
C1290 C 0.27543 0.30947 0.89868 0.0
H1291 H 0.27311 0.35258 0.97675 0.0
H1292 H 0.27184 0.3407 0.9449 0.0
H1293 H 0.26191 0.31505 0.92212 0.0
H1294 H 0.26568 0.27802 0.83413 0.0
H1295 H 0.2644 0.28446 0.86683 0.0
H1296 H 0.31971 0.30805 0.89957 0.0
C1297 C 0.27982 0.33538 0.95492 0.0
C1298 C 0.27471 0.31382 0.9174 0.0
C1299 C 0.2806 0.3423 0.97326 0.0
C1300 C 0.27783 0.28741 0.84206 0.0
C1301 C 0.27707 0.29121 0.86085 0.0
C1302 C 0.30706 0.30981 0.90422 0.0
C1303 C 0.28992 0.32264 0.94955 0.0
C1304 C 0.29026 0.31662 0.92976 0.0
C1305 C 0.29253 0.30322 0.87176 0.0
C1306 C 0.29165 0.30749 0.8918 0.0
H1307 H 0.30996 0.31916 0.99155 0.0
H1308 H 0.30797 0.30637 0.95969 0.0
H1309 H 0.31879 0.31675 0.93186 0.0
H1310 H 0.32238 0.31348 0.83851 0.0
H1311 H 0.32089 0.32084 0.8711 0.0
C1312 C 0.93741 1.00113 0.28361 0.0
C1313 C 0.93873 0.01926 0.27656 0.0
C1314 C 0.94908 0.99993 0.29862 0.0
C1315 C 0.97688 0.02979 0.33839 0.0
H1316 H 0.99856 0.98714 0.34088 0.0
C1317 C 0.02624 0.02648 0.39955 0.0
C1318 C 0.02334 0.00821 0.40679 0.0
C1319 C 0.0175 0.02796 0.38267 0.0
C1320 C 0.99249 0.99905 0.34043 0.0
H1321 H 0.95357 0.0503 0.2795 0.0
H1322 H 0.97393 0.04816 0.30569 0.0
H1323 H 0.98015 0.98947 0.31315 0.0
H1324 H 1.00931 0.97711 0.40187 0.0
H1325 H 0.99393 0.97969 0.37242 0.0
H1326 H 0.98885 0.03921 0.36571 0.0
C1327 C 0.96375 0.03492 0.2997 0.0
C1328 C 0.98197 1.00039 0.32457 0.0
C1329 C 0.95214 0.03612 0.28466 0.0
C1330 C 1.01196 0.99136 0.39654 0.0
C1331 C 1.00316 0.99284 0.37967 0.0
C1332 C 0.98733 0.02843 0.35424 0.0
C1333 C 0.96226 0.01684 0.30692 0.0
C1334 C 0.97399 0.01572 0.32343 0.0
C1335 C 1.00562 0.01121 0.37268 0.0
C1336 C 0.99519 0.013 0.35548 0.0
H1337 H 0.92725 0.98787 0.27766 0.0
H1338 H 0.94749 0.98582 0.304 0.0
H1339 H 0.97065 0.0416 0.33803 0.0
H1340 H 0.03519 0.03968 0.40701 0.0
H1341 H 0.01996 0.04227 0.3775 0.0
C1342 C 0.29308 0.67348 0.59833 0.0
C1343 C 0.30338 0.66064 0.59419 0.0
C1344 C 0.29316 0.68103 0.61628 0.0
C1345 C 0.31882 0.69035 0.66172 0.0
H1346 H 0.27287 0.69661 0.67667 0.0
C1347 C 0.30836 0.72523 0.73322 0.0
C1348 C 0.30182 0.74149 0.73106 0.0
C1349 C 0.30862 0.71252 0.71799 0.0
C1350 C 0.28574 0.69477 0.67272 0.0
H1351 H 0.32215 0.64589 0.6056 0.0
H1352 H 0.32214 0.659 0.63719 0.0
H1353 H 0.27343 0.67959 0.64703 0.0
H1354 H 0.29007 0.75696 0.71147 0.0
H1355 H 0.29013 0.73462 0.68517 0.0
H1356 H 0.33105 0.70586 0.68753 0.0
C1357 C 0.31412 0.66333 0.62645 0.0
C1358 C 0.28613 0.6852 0.65572 0.0
C1359 C 0.31412 0.65583 0.60838 0.0
C1360 C 0.2953 0.74463 0.71356 0.0
C1361 C 0.29521 0.73179 0.69852 0.0
C1362 C 0.31838 0.6998 0.67889 0.0
C1363 C 0.30341 0.6758 0.63061 0.0
C1364 C 0.30277 0.68351 0.64972 0.0
C1365 C 0.3019 0.71568 0.70056 0.0
C1366 C 0.30193 0.70262 0.68422 0.0
H1367 H 0.2848 0.67764 0.58769 0.0
H1368 H 0.28516 0.69103 0.61892 0.0
H1369 H 0.33186 0.68931 0.65749 0.0
H1370 H 0.31352 0.72253 0.74658 0.0
H1371 H 0.31385 0.70015 0.71981 0.0
C1372 C 0.63673 1.00089 0.79027 0.0
C1373 C 0.65354 0.01293 0.78542 0.0
C1374 C 0.63057 1.0042 0.80732 0.0
C1375 C 0.63422 0.04309 0.84293 0.0
H1376 H 0.614 1.00061 0.87299 0.0
C1377 C 0.61024 0.05698 0.91396 0.0
C1378 C 0.59402 0.04357 0.9185 0.0
C1379 C 0.61858 0.05305 0.89839 0.0
C1380 C 0.61942 0.0126 0.86466 0.0
H1381 H 0.67721 0.03772 0.79465 0.0
H1382 H 0.66632 0.04359 0.82438 0.0
H1383 H 0.62657 0.99383 0.84442 0.0
H1384 H 0.5736 0.01574 0.9103 0.0
H1385 H 0.58785 0.00905 0.88286 0.0
H1386 H 0.62664 0.06179 0.86277 0.0
C1387 C 0.65794 0.03162 0.81497 0.0
C1388 C 0.62666 0.00871 0.84836 0.0
C1389 C 0.66419 0.02819 0.79801 0.0
C1390 C 0.58624 0.0262 0.9072 0.0
C1391 C 0.59446 0.02235 0.89154 0.0
C1392 C 0.62683 0.04696 0.85913 0.0
C1393 C 0.64104 0.01973 0.81972 0.0
C1394 C 0.63403 0.02391 0.83732 0.0
C1395 C 0.61073 0.03572 0.88696 0.0
C1396 C 0.61924 0.03173 0.87012 0.0
H1397 H 0.62826 0.98899 0.78085 0.0
H1398 H 0.61741 0.99493 0.81063 0.0
H1399 H 0.63963 0.05502 0.83451 0.0
H1400 H 0.61662 0.07038 0.9226 0.0
H1401 H 0.63125 0.06351 0.8954 0.0
C1402 C 0.27646 0.3235 0.08348 0.0
C1403 C 0.28442 0.34297 0.07955 0.0
C1404 C 0.27664 0.31837 0.10156 0.0
C1405 C 0.28056 0.33867 0.14952 0.0
H1406 H 0.29401 0.29204 0.16025 0.0
C1407 C 0.29252 0.31781 0.22378 0.0
C1408 C 0.28744 0.29774 0.22651 0.0
C1409 C 0.29148 0.32394 0.20607 0.0
C1410 C 0.28993 0.30495 0.1575 0.0
H1411 H 0.29871 0.37237 0.09159 0.0
H1412 H 0.29894 0.36339 0.1231 0.0
H1413 H 0.29345 0.30127 0.12895 0.0
H1414 H 0.2762 0.26845 0.213 0.0
H1415 H 0.27383 0.27906 0.18246 0.0
H1416 H 0.27682 0.34222 0.17807 0.0
C1417 C 0.29251 0.35211 0.1122 0.0
C1418 C 0.28967 0.31026 0.13953 0.0
C1419 C 0.29249 0.35721 0.09412 0.0
C1420 C 0.2805 0.28402 0.21134 0.0
C1421 C 0.27927 0.29012 0.19377 0.0
C1422 C 0.28067 0.33327 0.16753 0.0
C1423 C 0.28463 0.33263 0.11612 0.0
C1424 C 0.28494 0.32713 0.13531 0.0
C1425 C 0.28517 0.31012 0.19079 0.0
C1426 C 0.28527 0.31626 0.17174 0.0
H1427 H 0.2701 0.31219 0.0726 0.0
H1428 H 0.27032 0.30326 0.10416 0.0
H1429 H 0.27671 0.35169 0.14666 0.0
H1430 H 0.29798 0.32871 0.23521 0.0
H1431 H 0.29622 0.33947 0.2043 0.0
C1432 C 0.25301 0.9736 0.01295 0.0
C1433 C 0.25569 0.96109 0.02615 0.0
C1434 C 0.24417 0.98766 0.017 0.0
C1435 C 0.23012 0.01456 0.05541 0.0
H1436 H 0.19607 0.02258 0.01741 0.0
C1437 C 0.17283 0.05129 0.06617 0.0
C1438 C 0.16879 0.06236 0.05222 0.0
C1439 C 0.18671 0.04231 0.06462 0.0
C1440 C 0.20579 0.02078 0.02805 0.0
H1441 H 0.25115 0.95342 0.05394 0.0
H1442 H 0.23509 0.97765 0.06084 0.0
H1443 H 0.21273 0.99901 0.01129 0.0
H1444 H 0.17732 0.07453 0.02678 0.0
H1445 H 0.20155 0.05878 0.02405 0.0
H1446 H 0.22245 0.03593 0.07236 0.0
C1447 C 0.24023 0.97686 0.04749 0.0
C1448 C 0.21532 0.00724 0.02457 0.0
C1449 C 0.24927 0.96287 0.04349 0.0
C1450 C 0.17995 0.06577 0.03755 0.0
C1451 C 0.19378 0.05677 0.03599 0.0
C1452 C 0.22041 0.02803 0.05896 0.0
C1453 C 0.23758 0.9894 0.03427 0.0
C1454 C 0.2276 1.00395 0.03818 0.0
C1455 C 0.1967 0.04426 0.04909 0.0
C1456 C 0.20817 0.03125 0.04528 0.0
H1457 H 0.258 0.97277 -0.00047 0.0
H1458 H 0.24267 0.99732 0.00661 0.0
H1459 H 0.23966 0.01252 0.06611 0.0
H1460 H 0.16437 0.0483 0.07756 0.0
H1461 H 0.18864 0.03267 0.07487 0.0
C1462 C 0.74541 0.64174 0.02151 0.0
C1463 C 0.74864 0.66039 0.03078 0.0
C1464 C 0.72868 0.62728 0.02226 0.0
C1465 C 0.68915 0.61326 0.05008 0.0
H1466 H 0.66273 0.58383 0.00559 0.0
C1467 C 0.61182 0.5756 0.04469 0.0
C1468 C 0.60451 0.55752 0.03429 0.0
C1469 C 0.63043 0.5857 0.04513 0.0
C1470 C 0.67008 0.59164 0.01819 0.0
H1471 H 0.73681 0.67848 0.048 0.0
H1472 H 0.70769 0.6533 0.04925 0.0
H1473 H 0.69344 0.60644 0.0044 0.0
H1474 H 0.61112 0.53561 0.01651 0.0
H1475 H 0.64387 0.55337 0.01732 0.0
H1476 H 0.66575 0.59879 0.06384 0.0
C1477 C 0.71815 0.6498 0.04157 0.0
C1478 C 0.68764 0.60462 0.01749 0.0
C1479 C 0.73478 0.66428 0.04073 0.0
C1480 C 0.61635 0.54951 0.02465 0.0
C1481 C 0.63506 0.55972 0.02503 0.0
C1482 C 0.67166 0.60027 0.05078 0.0
C1483 C 0.71493 0.63113 0.03241 0.0
C1484 C 0.69715 0.61591 0.03336 0.0
C1485 C 0.64224 0.57801 0.03516 0.0
C1486 C 0.66174 0.58969 0.03477 0.0
H1487 H 0.75581 0.63829 0.01372 0.0
H1488 H 0.7266 0.61299 0.01512 0.0
H1489 H 0.69632 0.62145 0.0626 0.0
H1490 H 0.6031 0.58218 0.05231 0.0
H1491 H 0.63544 0.59988 0.05284 0.0
C1492 C 0.72906 0.49914 0.3019 0.0
C1493 C 0.71063 0.49245 0.29471 0.0
C1494 C 0.74187 0.49035 0.29559 0.0
C1495 C 0.75067 0.45966 0.2572 0.0
H1496 H 0.78199 0.44512 0.29386 0.0
C1497 C 0.78715 0.40095 0.24305 0.0
C1498 C 0.8039 0.40264 0.25305 0.0
C1499 C 0.77791 0.41489 0.24619 0.0
C1500 C 0.77367 0.44945 0.28339 0.0
H1501 H 0.69122 0.47149 0.27505 0.0
H1502 H 0.71365 0.45604 0.26408 0.0
H1503 H 0.76138 0.46346 0.30334 0.0
H1504 H 0.82484 0.42095 0.2731 0.0
H1505 H 0.80885 0.44558 0.27837 0.0
H1506 H 0.76281 0.44537 0.23725 0.0
C1507 C 0.71817 0.4682 0.27451 0.0
C1508 C 0.76179 0.45989 0.28885 0.0
C1509 C 0.70531 0.47693 0.2809 0.0
C1510 C 0.81181 0.41919 0.26539 0.0
C1511 C 0.80263 0.43321 0.26844 0.0
C1512 C 0.76265 0.44929 0.25171 0.0
C1513 C 0.73655 0.47475 0.28189 0.0
C1514 C 0.74998 0.46483 0.27585 0.0
C1515 C 0.78528 0.43086 0.25933 0.0
C1516 C 0.77408 0.4438 0.26478 0.0
H1517 H 0.73362 0.51113 0.31251 0.0
H1518 H 0.75598 0.49581 0.3014 0.0
H1519 H 0.74188 0.46354 0.24688 0.0
H1520 H 0.78062 0.38822 0.23362 0.0
H1521 H 0.76448 0.41249 0.23909 0.0
C1522 C 0.84778 0.47739 0.52148 0.0
C1523 C 0.83677 0.46533 0.50674 0.0
C1524 C 0.86649 0.48608 0.52009 0.0
C1525 C 0.90502 0.50841 0.51127 0.0
H1526 H 0.92976 0.47237 0.49139 0.0
C1527 C 0.98388 0.52929 0.50815 0.0
C1528 C 0.99204 0.51546 0.51468 0.0
C1529 C 0.9648 0.52459 0.505 0.0
C1530 C 0.92304 0.48261 0.49695 0.0
H1531 H 0.83646 0.45394 0.47858 0.0
H1532 H 0.86907 0.46923 0.47615 0.0
H1533 H 0.89638 0.46255 0.48986 0.0
H1534 H 0.98666 0.48579 0.52279 0.0
H1535 H 0.95346 0.47763 0.51732 0.0
H1536 H 0.93182 0.52817 0.51899 0.0
C1537 C 0.8633 0.47167 0.48888 0.0
C1538 C 0.90392 0.47709 0.49589 0.0
C1539 C 0.84462 0.46297 0.49027 0.0
C1540 C 0.9808 0.49678 0.51775 0.0
C1541 C 0.96179 0.49205 0.5145 0.0
C1542 C 0.92419 0.51398 0.51227 0.0
C1543 C 0.87452 0.4829 0.50392 0.0
C1544 C 0.89471 0.48978 0.50334 0.0
C1545 C 0.95359 0.50592 0.50818 0.0
C1546 C 0.93336 0.50095 0.50546 0.0
H1547 H 0.84211 0.47954 0.53433 0.0
H1548 H 0.87481 0.49453 0.53197 0.0
H1549 H 0.89827 0.51855 0.51698 0.0
H1550 H 0.99218 0.54383 0.50565 0.0
H1551 H 0.95883 0.53551 0.50002 0.0
C1552 C 0.38381 0.09008 0.25972 0.0
C1553 C 0.40232 0.09512 0.25592 0.0
C1554 C 0.3712 0.09655 0.24923 0.0
C1555 C 0.36813 0.13576 0.221 0.0
H1556 H 0.31822 0.10234 0.20915 0.0
C1557 C 0.31266 0.16999 0.19943 0.0
C1558 C 0.29866 0.16574 0.21147 0.0
C1559 C 0.3241 0.15798 0.19761 0.0
C1560 C 0.33214 0.1118 0.21219 0.0
H1561 H 0.42213 0.11095 0.23815 0.0
H1562 H 0.40006 0.12243 0.21995 0.0
H1563 H 0.34171 0.08834 0.22128 0.0
H1564 H 0.28452 0.14434 0.22943 0.0
H1565 H 0.30414 0.12354 0.2261 0.0
H1566 H 0.35846 0.15943 0.21297 0.0
C1567 C 0.39535 0.11344 0.23103 0.0
C1568 C 0.34555 0.10382 0.21921 0.0
C1569 C 0.40797 0.10689 0.24148 0.0
C1570 C 0.29503 0.14807 0.21993 0.0
C1571 C 0.30637 0.13606 0.21803 0.0
C1572 C 0.35472 0.14375 0.21404 0.0
C1573 C 0.37682 0.10826 0.23476 0.0
C1574 C 0.36349 0.11588 0.22436 0.0
C1575 C 0.32164 0.14146 0.20768 0.0
C1576 C 0.33642 0.13201 0.21027 0.0
H1577 H 0.379 0.081 0.27072 0.0
H1578 H 0.35707 0.09266 0.25267 0.0
H1579 H 0.38182 0.14544 0.22492 0.0
H1580 H 0.31554 0.18325 0.19237 0.0
H1581 H 0.33555 0.16228 0.18923 0.0
C1582 C 0.35068 0.15369 0.52315 0.0
C1583 C 0.33753 0.15156 0.53603 0.0
C1584 C 0.36322 0.14285 0.52372 0.0
C1585 C 0.37041 0.09811 0.54075 0.0
H1586 H 0.42139 0.12335 0.53325 0.0
C1587 C 0.42639 0.05911 0.55005 0.0
C1588 C 0.43927 0.06166 0.53687 0.0
C1589 C 0.41417 0.07032 0.55052 0.0
C1590 C 0.40717 0.11605 0.53519 0.0
H1591 H 0.32721 0.13636 0.5596 0.0
H1592 H 0.34917 0.1175 0.56063 0.0
H1593 H 0.39959 0.14241 0.53291 0.0
H1594 H 0.44929 0.0778 0.51372 0.0
H1595 H 0.42794 0.09733 0.5145 0.0
H1596 H 0.37795 0.07172 0.54289 0.0
C1597 C 0.34967 0.12744 0.55 0.0
C1598 C 0.39469 0.12696 0.535 0.0
C1599 C 0.33715 0.13831 0.54946 0.0
C1600 C 0.43972 0.07571 0.52422 0.0
C1601 C 0.42749 0.0869 0.52468 0.0
C1602 C 0.38288 0.08719 0.54091 0.0
C1603 C 0.36285 0.12962 0.53715 0.0
C1604 C 0.37616 0.1181 0.5377 0.0
C1605 C 0.41455 0.08431 0.5378 0.0
C1606 C 0.40139 0.09602 0.53806 0.0
H1607 H 0.35132 0.16374 0.5126 0.0
H1608 H 0.37306 0.14466 0.51349 0.0
H1609 H 0.35617 0.09081 0.54263 0.0
H1610 H 0.42588 0.04857 0.56013 0.0
H1611 H 0.40453 0.06818 0.56096 0.0
C1612 C 0.69922 0.57821 0.31455 0.0
C1613 C 0.68017 0.57267 0.31003 0.0
C1614 C 0.70969 0.59775 0.31463 0.0
C1615 C 0.70648 0.64856 0.31412 0.0
H1616 H 0.75295 0.6578 0.29244 0.0
C1617 C 0.74579 0.72257 0.28838 0.0
C1618 C 0.76492 0.72906 0.29249 0.0
C1619 C 0.73559 0.70398 0.29252 0.0
C1620 C 0.74012 0.65546 0.29874 0.0
H1621 H 0.65706 0.58328 0.30251 0.0
H1622 H 0.6754 0.61735 0.30216 0.0
H1623 H 0.7348 0.62439 0.29613 0.0
H1624 H 0.78832 0.72129 0.30446 0.0
H1625 H 0.77047 0.68875 0.31153 0.0
H1626 H 0.71168 0.67974 0.31613 0.0
C1627 C 0.68223 0.60667 0.30599 0.0
C1628 C 0.72973 0.63632 0.30092 0.0
C1629 C 0.67172 0.58713 0.30608 0.0
C1630 C 0.7736 0.71671 0.30107 0.0
C1631 C 0.76342 0.69805 0.30506 0.0
C1632 C 0.71684 0.66773 0.31179 0.0
C1633 C 0.70137 0.61216 0.31001 0.0
C1634 C 0.71274 0.63262 0.30854 0.0
C1635 C 0.74434 0.69147 0.30072 0.0
C1636 C 0.7337 0.67132 0.304 0.0
H1637 H 0.70609 0.56742 0.31787 0.0
H1638 H 0.72434 0.60154 0.31818 0.0
H1639 H 0.69359 0.64625 0.32029 0.0
H1640 H 0.73867 0.73179 0.28187 0.0
H1641 H 0.72091 0.69919 0.28889 0.0
C1642 C 0.90461 0.48083 0.77202 0.0
C1643 C 0.89912 0.49526 0.78199 0.0
C1644 C 0.89437 0.46114 0.77141 0.0
C1645 C 0.86029 0.42619 0.79581 0.0
H1646 H 0.85317 0.39364 0.75013 0.0
C1647 C 0.81301 0.34609 0.78623 0.0
C1648 C 0.81993 0.33245 0.77674 0.0
C1649 C 0.82222 0.36614 0.78704 0.0
C1650 C 0.85517 0.40251 0.76302 0.0
H1651 H 0.87852 0.50035 0.79911 0.0
H1652 H 0.86052 0.46594 0.79785 0.0
H1653 H 0.8699 0.42836 0.75111 0.0
H1654 H 0.84198 0.32919 0.76072 0.0
H1655 H 0.85802 0.36407 0.76225 0.0
H1656 H 0.84553 0.40025 0.80769 0.0
C1657 C 0.87288 0.46985 0.7907 0.0
C1658 C 0.86477 0.42239 0.76359 0.0
C1659 C 0.88315 0.48957 0.79133 0.0
C1660 C 0.83627 0.33928 0.76816 0.0
C1661 C 0.8454 0.35929 0.76892 0.0
C1662 C 0.85064 0.40628 0.79523 0.0
C1663 C 0.87838 0.45541 0.78071 0.0
C1664 C 0.86758 0.43443 0.78002 0.0
C1665 C 0.83845 0.37294 0.7783 0.0
C1666 C 0.84813 0.3942 0.77886 0.0
H1667 H 0.91689 0.48469 0.76474 0.0
H1668 H 0.89915 0.45035 0.76383 0.0
H1669 H 0.86241 0.43502 0.80873 0.0
H1670 H 0.80045 0.34132 0.79297 0.0
H1671 H 0.81645 0.37633 0.79425 0.0
C1672 C 0.07017 0.85132 0.09613 0.0
C1673 C 0.08582 0.85299 0.10798 0.0
C1674 C 0.0682 0.86749 0.08741 0.0
C1675 C 0.08485 0.92164 0.09209 0.0
H1676 H 0.06022 0.91633 0.04343 0.0
C1677 C 0.07781 0.9881 0.05451 0.0
C1678 C 0.06028 0.98635 0.04612 0.0
C1679 C 0.08179 0.97187 0.06137 0.0
C1680 C 0.06704 0.91799 0.05707 0.0
H1681 H 0.11206 0.87268 0.11931 0.0
H1682 H 0.10886 0.90074 0.10373 0.0
H1683 H 0.06615 0.88778 0.05606 0.0
H1684 H 0.03322 0.96609 0.03827 0.0
H1685 H 0.04023 0.9378 0.05022 0.0
H1686 H 0.08578 0.95189 0.09303 0.0
C1687 C 0.09786 0.88709 0.10155 0.0
C1688 C 0.07041 0.90165 0.06433 0.0
C1689 C 0.09976 0.87097 0.11039 0.0
C1690 C 0.04685 0.96798 0.04469 0.0
C1691 C 0.05089 0.95173 0.0514 0.0
C1692 C 0.08161 0.93801 0.08477 0.0
C1693 C 0.08191 0.88566 0.09022 0.0
C1694 C 0.07921 0.90323 0.08201 0.0
C1695 C 0.06839 0.95351 0.05984 0.0
C1696 C 0.07251 0.93631 0.06726 0.0
H1697 H 0.05915 0.83769 0.09403 0.0
H1698 H 0.05564 0.86589 0.07895 0.0
H1699 H 0.09135 0.92336 0.10588 0.0
H1700 H 0.08847 1.00203 0.05583 0.0
H1701 H 0.09543 0.97363 0.0677 0.0
C1702 C 0.9374 0.2561 0.90127 0.0
C1703 C 0.95264 0.2514 0.89476 0.0
C1704 C 0.92124 0.25267 0.88991 0.0
C1705 C 0.90549 0.24809 0.84122 0.0
H1706 H 0.85713 0.23284 0.85924 0.0
C1707 C 0.84077 0.24483 0.79509 0.0
C1708 C 0.82913 0.25453 0.80293 0.0
C1709 C 0.85455 0.24056 0.80598 0.0
C1710 C 0.87056 0.23713 0.85403 0.0
H1711 H 0.96263 0.23862 0.8715 0.0
H1712 H 0.93436 0.23247 0.85175 0.0
H1713 H 0.88383 0.23228 0.87909 0.0
H1714 H 0.82224 0.26649 0.82849 0.0
H1715 H 0.84635 0.25924 0.84738 0.0
H1716 H 0.89235 0.25343 0.81636 0.0
C1717 C 0.93501 0.2391 0.86553 0.0
C1718 C 0.88583 0.23683 0.86539 0.0
C1719 C 0.95118 0.24256 0.87688 0.0
C1720 C 0.83107 0.25915 0.82198 0.0
C1721 C 0.84479 0.25482 0.83285 0.0
C1722 C 0.89024 0.24836 0.82987 0.0
C1723 C 0.91998 0.24443 0.87181 0.0
C1724 C 0.90351 0.24268 0.85922 0.0
C1725 C 0.85689 0.24581 0.82494 0.0
C1726 C 0.87266 0.24326 0.83627 0.0
H1727 H 0.93808 0.26292 0.91498 0.0
H1728 H 0.90999 0.25716 0.8951 0.0
H1729 H 0.91895 0.25296 0.83613 0.0
H1730 H 0.83956 0.24098 0.78047 0.0
H1731 H 0.86354 0.2334 0.79954 0.0
C1732 C 0.55585 0.23406 0.57823 0.0
C1733 C 0.56457 0.24121 0.59575 0.0
C1734 C 0.5538 0.21473 0.57153 0.0
C1735 C 0.55344 0.16639 0.58696 0.0
H1736 H 0.56205 0.15474 0.53663 0.0
C1737 C 0.53832 0.08712 0.55428 0.0
C1738 C 0.55108 0.08337 0.54266 0.0
C1739 C 0.5397 0.10631 0.5608 0.0
C1740 C 0.55972 0.15778 0.55076 0.0
H1741 H 0.57816 0.2337 0.61989 0.0
H1742 H 0.57476 0.20023 0.60814 0.0
H1743 H 0.56505 0.18846 0.54777 0.0
H1744 H 0.5755 0.09685 0.52908 0.0
H1745 H 0.57804 0.13022 0.5407 0.0
H1746 H 0.54853 0.13581 0.59009 0.0
C1747 C 0.56923 0.20941 0.59968 0.0
C1748 C 0.56121 0.17706 0.55707 0.0
C1749 C 0.57129 0.22867 0.60636 0.0
C1750 C 0.5654 0.09921 0.53795 0.0
C1751 C 0.56678 0.11837 0.5445 0.0
C1752 C 0.55193 0.14712 0.58065 0.0
C1753 C 0.56041 0.20217 0.58222 0.0
C1754 C 0.55821 0.1816 0.57528 0.0
C1755 C 0.55387 0.12217 0.55588 0.0
C1756 C 0.55515 0.14261 0.56251 0.0
H1757 H 0.5505 0.24333 0.56974 0.0
H1758 H 0.5468 0.20954 0.55808 0.0
H1759 H 0.55082 0.16937 0.60101 0.0
H1760 H 0.52704 0.07529 0.55806 0.0
H1761 H 0.52941 0.10875 0.56939 0.0
C1762 C 0.57136 0.79642 0.38823 0.0
C1763 C 0.55743 0.77864 0.38857 0.0
C1764 C 0.58626 0.79746 0.37782 0.0
C1765 C 0.61221 0.76706 0.3567 0.0
H1766 H 0.62963 0.81125 0.32776 0.0
C1767 C 0.66822 0.77074 0.30648 0.0
C1768 C 0.68135 0.78901 0.30576 0.0
C1769 C 0.65282 0.76917 0.3163 0.0
C1770 C 0.62508 0.79893 0.33593 0.0
H1771 H 0.54819 0.74799 0.37823 0.0
H1772 H 0.57417 0.74986 0.36 0.0
H1773 H 0.60334 0.80918 0.34552 0.0
H1774 H 0.68894 0.81986 0.31511 0.0
H1775 H 0.66226 0.81712 0.33241 0.0
H1776 H 0.63406 0.7569 0.34728 0.0
C1777 C 0.57363 0.76294 0.36791 0.0
C1778 C 0.61 0.79774 0.34609 0.0
C1779 C 0.55871 0.76192 0.37828 0.0
C1780 C 0.67887 0.80564 0.31516 0.0
C1781 C 0.66357 0.80407 0.32505 0.0
C1782 C 0.62735 0.76829 0.3466 0.0
C1783 C 0.58756 0.78072 0.36758 0.0
C1784 C 0.60344 0.78183 0.35662 0.0
C1785 C 0.65032 0.78583 0.32568 0.0
C1786 C 0.634 0.78427 0.33615 0.0
H1787 H 0.57083 0.80956 0.39605 0.0
H1788 H 0.5969 0.81131 0.378 0.0
H1789 H 0.60759 0.75474 0.36488 0.0
H1790 H 0.66971 0.75771 0.29922 0.0
H1791 H 0.64276 0.75495 0.31631 0.0
C1792 C 0.05792 0.21483 0.42369 0.0
C1793 C 0.04069 0.21739 0.41842 0.0
C1794 C 0.05933 0.19874 0.43359 0.0
C1795 C 0.03185 0.15949 0.46227 0.0
H1796 H 0.06988 0.13468 0.45442 0.0
C1797 C 0.04107 0.09688 0.50725 0.0
C1798 C 0.04719 0.08161 0.4994 0.0
C1799 C 0.0407 0.11342 0.49768 0.0
C1800 C 0.05902 0.14123 0.45681 0.0
H1801 H 1.01145 0.20431 0.41988 0.0
H1802 H 0.01386 0.17691 0.43673 0.0
H1803 H 0.06864 0.16281 0.43762 0.0
H1804 H 0.05775 0.07242 0.47477 0.0
H1805 H 0.05705 0.10085 0.45823 0.0
H1806 H 0.02203 0.13784 0.4812 0.0
C1807 C 0.02645 0.18734 0.4335 0.0
C1808 C 0.05845 0.15772 0.44721 0.0
C1809 C 0.02505 0.20322 0.42358 0.0
C1810 C 0.05295 0.08368 0.48151 0.0
C1811 C 0.05267 0.10026 0.47196 0.0
C1812 C 0.03249 0.14312 0.47192 0.0
C1813 C 0.04359 0.18462 0.43881 0.0
C1814 C 0.04476 0.16721 0.4496 0.0
C1815 C 0.04651 0.11557 0.47979 0.0
C1816 C 0.04603 0.13348 0.46941 0.0
H1817 H 0.07037 0.22521 0.42008 0.0
H1818 H 0.07287 0.19757 0.43737 0.0
H1819 H 0.02117 0.16622 0.46494 0.0
H1820 H 0.03656 0.09615 0.52095 0.0
H1821 H 0.03608 0.12472 0.50457 0.0
C1822 C 0.61169 0.29921 0.19613 0.0
C1823 C 0.59761 0.28112 0.19409 0.0
C1824 C 0.62991 0.30056 0.20327 0.0
C1825 C 0.66121 0.26826 0.21324 0.0
H1826 H 0.69337 0.3149 0.24046 0.0
C1827 C 0.73118 0.26706 0.25109 0.0
C1828 C 0.74652 0.28402 0.25311 0.0
C1829 C 0.71362 0.26747 0.24391 0.0
C1830 C 0.68477 0.30171 0.23275 0.0
H1831 H 0.59243 0.25042 0.1988 0.0
H1832 H 0.62313 0.25279 0.21122 0.0
H1833 H 0.66268 0.31455 0.2283 0.0
H1834 H 0.75458 0.31496 0.2489 0.0
H1835 H 0.72427 0.3157 0.23642 0.0
H1836 H 0.68313 0.25538 0.21758 0.0
C1837 C 0.62057 0.26603 0.20692 0.0
C1838 C 0.66691 0.30152 0.22567 0.0
C1839 C 0.60257 0.26469 0.19983 0.0
C1840 C 0.74336 0.30149 0.24767 0.0
C1841 C 0.72573 0.30192 0.24053 0.0
C1842 C 0.67897 0.26844 0.22033 0.0
C1843 C 0.63487 0.28389 0.20865 0.0
C1844 C 0.65455 0.28469 0.21586 0.0
C1845 C 0.71037 0.28489 0.23838 0.0
C1846 C 0.69123 0.28509 0.23041 0.0
H1847 H 0.60874 0.31229 0.1919 0.0
H1848 H 0.64021 0.3147 0.20415 0.0
H1849 H 0.65278 0.25506 0.20543 0.0
H1850 H 0.73268 0.25326 0.2551 0.0
H1851 H 0.70246 0.25398 0.24297 0.0
C1852 C 0.5611 0.8381 0.93017 0.0
C1853 C 0.54855 0.83136 0.91455 0.0
C1854 C 0.56172 0.85554 0.94097 0.0
C1855 C 0.54469 0.90088 0.93956 0.0
H1856 H 0.56137 0.90917 0.99106 0.0
C1857 C 0.55127 0.97591 0.98073 0.0
C1858 C 0.54939 0.97676 -0.00027 0.0
C1859 C 0.55184 0.9585 0.97085 0.0
C1860 C 0.55643 0.9072 0.97674 0.0
H1861 H 0.52633 0.83782 0.89884 0.0
H1862 H 0.52688 0.867 0.91755 0.0
H1863 H 0.56073 0.87877 0.97375 0.0
H1864 H 0.54654 0.9592 0.02296 0.0
H1865 H 0.54687 0.92896 0.00588 0.0
H1866 H 0.53963 0.92877 0.94256 0.0
C1867 C 0.53688 0.85956 0.92132 0.0
C1868 C 0.55633 0.88962 0.96661 0.0
C1869 C 0.53643 0.84244 0.91051 0.0
C1870 C 0.54806 0.95939 0.00841 0.0
C1871 C 0.54841 0.94188 0.99849 0.0
C1872 C 0.54462 0.9183 0.94969 0.0
C1873 C 0.5497 0.86682 0.93667 0.0
C1874 C 0.55036 0.88596 0.94775 0.0
C1875 C 0.5503 0.94096 0.97942 0.0
C1876 C 0.55048 0.92198 0.96855 0.0
H1877 H 0.57073 0.83016 0.93384 0.0
H1878 H 0.57195 0.86035 0.95249 0.0
H1879 H 0.54034 0.89931 0.92511 0.0
H1880 H 0.55249 0.98882 0.97338 0.0
H1881 H 0.55374 0.95904 0.9564 0.0
C1882 C 0.97011 0.75998 0.68554 0.0
C1883 C 0.98679 0.77537 0.68869 0.0
C1884 C 0.95413 0.7603 0.6942 0.0
C1885 C 0.93111 0.7937 0.7193 0.0
H1886 H 0.89763 0.74469 0.7308 0.0
C1887 C 0.86401 0.79246 0.75652 0.0
C1888 C 0.84855 0.77559 0.75479 0.0
C1889 C 0.8808 0.79255 0.74913 0.0
C1890 C 0.90647 0.75864 0.72752 0.0
H1891 H 0.99891 0.80349 0.70404 0.0
H1892 H 0.97107 0.80418 0.71909 0.0
H1893 H 0.92606 0.74493 0.71757 0.0
H1894 H 0.83942 0.74542 0.7433 0.0
H1895 H 0.86808 0.74559 0.73018 0.0
H1896 H 0.91143 0.80743 0.72893 0.0
C1897 C 0.97041 0.79165 0.70973 0.0
C1898 C 0.92313 0.75877 0.71983 0.0
C1899 C 0.98661 0.79122 0.70115 0.0
C1900 C 0.85078 0.75877 0.74522 0.0
C1901 C 0.86756 0.75888 0.73767 0.0
C1902 C 0.91434 0.79357 0.72686 0.0
C1903 C 0.9537 0.77615 0.70647 0.0
C1904 C 0.93593 0.77628 0.71543 0.0
C1905 C 0.88313 0.7758 0.73939 0.0
C1906 C 0.90145 0.77601 0.73119 0.0
H1907 H 0.96927 0.74744 0.67611 0.0
H1908 H 0.94186 0.74811 0.69082 0.0
H1909 H 0.94014 0.80759 0.71606 0.0
H1910 H 0.86323 0.80581 0.76375 0.0
H1911 H 0.89207 0.80592 0.75137 0.0
C1912 C 0.16748 0.01501 0.87737 0.0
C1913 C 0.15919 1.00244 0.86178 0.0
C1914 C 0.15846 0.01424 0.89339 0.0
C1915 C 0.1391 0.00636 0.9281 0.0
H1916 H 0.0871 1.00077 0.91992 0.0
C1917 C 0.09698 0.03284 0.98131 0.0
C1918 C 0.07934 0.02044 0.98339 0.0
C1919 C 0.10728 0.02827 0.96756 0.0
C1920 C 0.10155 1.00208 0.92246 0.0
H1921 H 0.13562 0.97822 0.85113 0.0
H1922 H 0.12012 0.97647 0.87925 0.0
H1923 H 0.10431 0.99635 0.8941 0.0
H1924 H 0.05877 0.99339 0.9728 0.0
H1925 H 0.07669 0.9856 0.94871 0.0
H1926 H 0.13631 0.01289 0.95647 0.0
C1927 C 0.13332 0.98735 0.87895 0.0
C1928 C 0.11143 0.99946 0.90767 0.0
C1929 C 0.14225 0.98826 0.86287 0.0
C1930 C 0.07229 1.0033 0.97155 0.0
C1931 C 0.08252 0.99883 0.95772 0.0
C1932 C 0.12922 0.00915 0.9429 0.0
C1933 C 0.14105 1.00074 0.8942 0.0
C1934 C 0.13037 1.00177 0.91026 0.0
C1935 C 0.10005 0.01133 0.95553 0.0
C1936 C 0.11039 0.00723 0.94016 0.0
H1937 H 0.18053 0.02611 0.87695 0.0
H1938 H 0.16476 0.0249 0.90479 0.0
H1939 H 0.15361 0.00797 0.93062 0.0
H1940 H 0.10283 0.04614 0.9902 0.0
H1941 H 0.12069 0.03827 0.96604 0.0
C1942 C 0.7938 0.3877 0.55075 0.0
C1943 C 0.80423 0.38873 0.53555 0.0
C1944 C 0.79826 0.3792 0.56629 0.0
C1945 C 0.82226 0.34509 0.58271 0.0
H1946 H 0.82169 0.37199 0.63008 0.0
C1947 C 0.84137 0.31596 0.65068 0.0
C1948 C 0.82953 0.31623 0.66455 0.0
C1949 C 0.84024 0.32585 0.63501 0.0
C1950 C 0.8218 0.36423 0.61697 0.0
H1951 H 0.82727 0.3812 0.52457 0.0
H1952 H 0.835 0.36623 0.55178 0.0
H1953 H 0.81551 0.38669 0.60227 0.0
H1954 H 0.80713 0.32696 0.67273 0.0
H1955 H 0.80518 0.34414 0.64555 0.0
H1956 H 0.82817 0.32242 0.59745 0.0
C1957 C 0.82337 0.37202 0.55161 0.0
C1958 C 0.81826 0.37265 0.60105 0.0
C1959 C 0.81896 0.38064 0.53606 0.0
C1960 C 0.81673 0.3268 0.66251 0.0
C1961 C 0.8156 0.33665 0.6469 0.0
C1962 C 0.82575 0.33661 0.59867 0.0
C1963 C 0.8132 0.37146 0.56696 0.0
C1964 C 0.81815 0.36302 0.58376 0.0
C1965 C 0.82724 0.3362 0.63291 0.0
C1966 C 0.82525 0.34595 0.61598 0.0
H1967 H 0.78233 0.39375 0.5508 0.0
H1968 H 0.78998 0.37868 0.5778 0.0
H1969 H 0.82216 0.33729 0.56957 0.0
H1970 H 0.85149 0.30808 0.65194 0.0
H1971 H 0.84954 0.32541 0.62456 0.0
C1972 C 0.45315 0.07746 0.35313 0.0
C1973 C 0.45726 0.06519 0.33941 0.0
C1974 C 0.46339 0.08155 0.37016 0.0
C1975 C 0.50709 0.08041 0.39383 0.0
H1976 H 0.47864 0.06552 0.43529 0.0
C1977 C 0.53463 0.05087 0.45662 0.0
C1978 C 0.52814 0.05375 0.4737 0.0
C1979 C 0.52799 0.05791 0.44115 0.0
C1980 C 0.48688 0.07024 0.42402 0.0
H1981 H 0.47571 0.04831 0.33238 0.0
H1982 H 0.49352 0.05552 0.36189 0.0
H1983 H 0.46311 0.0683 0.4061 0.0
H1984 H 0.5106 0.06746 0.48829 0.0
H1985 H 0.49933 0.0801 0.46138 0.0
H1986 H 0.53081 0.08181 0.41157 0.0
C1987 C 0.48246 0.06198 0.35957 0.0
C1988 C 0.47795 0.07181 0.40728 0.0
C1989 C 0.47211 0.05767 0.34275 0.0
C1990 C 0.51565 0.06473 0.47522 0.0
C1991 C 0.50915 0.07194 0.4598 0.0
C1992 C 0.51606 0.07901 0.41061 0.0
C1993 C 0.47807 0.07374 0.37352 0.0
C1994 C 0.48789 0.07619 0.39189 0.0
C1995 C 0.51487 0.06817 0.4425 0.0
C1996 C 0.50597 0.07318 0.42571 0.0
H1997 H 0.4418 0.08349 0.35087 0.0
H1998 H 0.45974 0.09064 0.38074 0.0
H1999 H 0.51507 0.08406 0.38217 0.0
H2000 H 0.54426 0.04247 0.45502 0.0
H2001 H 0.53252 0.05449 0.42801 0.0
C2002 C 0.79926 0.74499 0.07714 0.0
C2003 C 0.80776 0.73082 0.07164 0.0
C2004 C 0.79904 0.75047 0.09574 0.0
C2005 C 0.80285 0.73157 0.14109 0.0
H2006 H 0.80684 0.78472 0.15957 0.0
C2007 C 0.80679 0.75478 0.21842 0.0
C2008 C 0.79649 0.7673 0.22375 0.0
C2009 C 0.80867 0.75068 0.1999 0.0
C2010 C 0.80554 0.76977 0.15458 0.0
H2011 H 0.82354 0.71206 0.08134 0.0
H2012 H 0.82348 0.72188 0.11364 0.0
H2013 H 0.80991 0.77759 0.12718 0.0
H2014 H 0.78 0.78524 0.21369 0.0
H2015 H 0.78317 0.77794 0.18145 0.0
H2016 H 0.79846 0.72374 0.16845 0.0
C2017 C 0.81656 0.72841 0.10365 0.0
C2018 C 0.8073 0.76569 0.13602 0.0
C2019 C 0.81671 0.72288 0.0851 0.0
C2020 C 0.78804 0.77553 0.21011 0.0
C2021 C 0.78996 0.77147 0.19161 0.0
C2022 C 0.80114 0.73566 0.15963 0.0
C2023 C 0.8074 0.74195 0.10923 0.0
C2024 C 0.80595 0.74653 0.12904 0.0
C2025 C 0.80034 0.75905 0.18628 0.0
C2026 C 0.80241 0.75479 0.16659 0.0
H2027 H 0.79219 0.75135 0.06712 0.0
H2028 H 0.79175 0.76084 0.09954 0.0
H2029 H 0.80137 0.71657 0.13613 0.0
H2030 H 0.81359 0.74828 0.22854 0.0
H2031 H 0.81691 0.74121 0.19625 0.0
C2032 C 0.1214 0.00718 0.75767 0.0
C2033 C 0.11654 0.00632 0.7758 0.0
C2034 C 0.11007 0.01159 0.74405 0.0
C2035 C 0.06363 0.01351 0.73079 0.0
H2036 H 0.08966 0.05268 0.69999 0.0
C2037 C 0.03588 0.02607 0.65894 0.0
C2038 C 0.04205 0.04496 0.65284 0.0
C2039 C 0.04163 0.02243 0.67646 0.0
C2040 C 0.08207 0.04199 0.70863 0.0
H2041 H 0.09546 0.00839 0.79365 0.0
H2042 H 0.07555 0.01611 0.76963 0.0
H2043 H 0.10643 0.04336 0.72526 0.0
H2044 H 0.05774 0.07517 0.66114 0.0
H2045 H 0.06709 0.06892 0.69177 0.0
H2046 H 0.03924 0.01204 0.71386 0.0
C2047 C 0.0882 0.01339 0.76609 0.0
C2048 C 0.09175 0.03644 0.72296 0.0
C2049 C 0.09961 0.00901 0.77982 0.0
C2050 C 0.05264 0.06044 0.66528 0.0
C2051 C 0.05823 0.05682 0.68282 0.0
C2052 C 0.05389 0.01903 0.71632 0.0
C2053 C 0.09359 0.01522 0.7482 0.0
C2054 C 0.08274 0.02189 0.73395 0.0
C2055 C 0.05354 0.03763 0.68827 0.0
C2056 C 0.06307 0.03316 0.70494 0.0
H2057 H 0.13424 1.00497 0.75405 0.0
H2058 H 0.11438 0.01251 0.73027 0.0
H2059 H 0.05636 1.00227 0.73911 0.0
H2060 H 0.02737 0.01389 0.64985 0.0
H2061 H 0.03774 0.00748 0.68025 0.0
C2062 C 0.76374 0.38737 0.44144 0.0
C2063 C 0.77094 0.40789 0.44375 0.0
C2064 C 0.76308 0.37733 0.42437 0.0
C2065 C 0.78838 0.38202 0.38395 0.0
H2066 H 0.74858 0.33718 0.36311 0.0
C2067 C 0.79509 0.33793 0.31785 0.0
C2068 C 0.78794 0.31745 0.31734 0.0
C2069 C 0.79113 0.34992 0.33175 0.0
C2070 C 0.75988 0.34957 0.36884 0.0
H2071 H 0.78211 0.43404 0.42974 0.0
H2072 H 0.78109 0.41645 0.39998 0.0
H2073 H 0.74428 0.35645 0.39019 0.0
H2074 H 0.77098 0.29348 0.33095 0.0
H2075 H 0.76462 0.31431 0.35553 0.0
H2076 H 0.80431 0.37479 0.36327 0.0
C2077 C 0.77607 0.40817 0.41142 0.0
C2078 C 0.75736 0.36064 0.38427 0.0
C2079 C 0.77657 0.41823 0.42844 0.0
C2080 C 0.77664 0.30922 0.33093 0.0
C2081 C 0.77287 0.32119 0.34495 0.0
C2082 C 0.79097 0.37085 0.36867 0.0
C2083 C 0.76975 0.38761 0.40934 0.0
C2084 C 0.77166 0.37684 0.39207 0.0
C2085 C 0.78012 0.3417 0.34558 0.0
C2086 C 0.77684 0.35435 0.36104 0.0
H2087 H 0.75922 0.379 0.45296 0.0
H2088 H 0.75823 0.36146 0.42316 0.0
H2089 H 0.79974 0.39426 0.38987 0.0
H2090 H 0.80364 0.34472 0.30743 0.0
H2091 H 0.79669 0.36566 0.33162 0.0
C2092 C 0.47297 0.06691 0.24767 0.0
C2093 C 0.47757 0.07239 0.26642 0.0
C2094 C 0.48653 0.0659 0.23615 0.0
C2095 C 0.52787 0.0533 0.23422 0.0
H2096 H 0.53173 0.0784 0.1887 0.0
C2097 C 0.56042 0.05249 0.15956 0.0
C2098 C 0.55183 0.03268 0.15356 0.0
C2099 C 0.55747 0.06011 0.17667 0.0
C2100 C 0.53117 0.07162 0.20152 0.0
H2101 H 0.49983 0.08109 0.28794 0.0
H2102 H 0.52361 0.07855 0.26768 0.0
H2103 H 0.51382 0.08768 0.21216 0.0
H2104 H 0.53472 1.00501 0.16161 0.0
H2105 H 0.52999 0.01821 0.19153 0.0
H2106 H 0.54407 0.03614 0.22297 0.0
C2107 C 0.50953 0.07545 0.26198 0.0
C2108 C 0.52084 0.07685 0.21485 0.0
C2109 C 0.49599 0.07692 0.27348 0.0
C2110 C 0.54169 0.02028 0.16577 0.0
C2111 C 0.53896 0.02785 0.18296 0.0
C2112 C 0.53798 0.04782 0.22074 0.0
C2113 C 0.50486 0.06996 0.24324 0.0
C2114 C 0.51866 0.0673 0.23102 0.0
C2115 C 0.54614 0.04798 0.18821 0.0
C2116 C 0.53923 0.05653 0.20405 0.0
H2117 H 0.45888 0.06343 0.24189 0.0
H2118 H 0.48264 0.06143 0.22174 0.0
H2119 H 0.52624 0.0457 0.2466 0.0
H2120 H 0.56871 0.06234 0.15068 0.0
H2121 H 0.56329 0.07566 0.18052 0.0
C2122 C 0.81266 0.72392 0.96724 0.0
C2123 C 0.80238 0.7044 0.96879 0.0
C2124 C 0.81476 0.73128 0.95 0.0
C2125 C 0.81094 0.71438 0.90061 0.0
H2126 H 0.80864 0.76675 0.8928 0.0
C2127 C 0.79684 0.73862 0.82934 0.0
C2128 C 0.80707 0.75734 0.82513 0.0
C2129 C 0.79841 0.73277 0.847 0.0
C2130 C 0.80956 0.75219 0.89484 0.0
H2131 H 0.78578 0.67749 0.95353 0.0
H2132 H 0.78904 0.69037 0.92374 0.0
H2133 H 0.8069 0.75564 0.92362 0.0
H2134 H 0.82715 0.78452 0.83611 0.0
H2135 H 0.82975 0.77428 0.86711 0.0
H2136 H 0.81306 0.71075 0.87176 0.0
C2137 C 0.79594 0.6999 0.93569 0.0
C2138 C 0.80858 0.74582 0.91249 0.0
C2139 C 0.79394 0.69255 0.95283 0.0
C2140 C 0.81914 0.76997 0.83891 0.0
C2141 C 0.82054 0.76418 0.85667 0.0
C2142 C 0.81178 0.72069 0.88299 0.0
C2143 C 0.80656 0.71927 0.934 0.0
C2144 C 0.80894 0.7267 0.91554 0.0
C2145 C 0.8101 0.74556 0.86091 0.0
C2146 C 0.81082 0.73955 0.87986 0.0
H2147 H 0.81938 0.7334 0.97928 0.0
H2148 H 0.82312 0.74624 0.94919 0.0
H2149 H 0.81173 0.69975 0.90251 0.0
H2150 H 0.78743 0.72854 0.81905 0.0
H2151 H 0.79006 0.7184 0.8499 0.0
C2152 C 0.84469 0.09237 0.02586 0.0
C2153 C 0.84505 0.11051 0.0193 0.0
C2154 C 0.85397 0.08052 0.01741 0.0
C2155 C 0.89218 0.08278 0.98902 0.0
H2156 H 0.87162 0.02619 0.98429 0.0
C2157 C 0.93506 0.03424 0.96442 0.0
C2158 C 0.93595 0.01988 0.97638 0.0
C2159 C 0.92123 0.04338 0.96522 0.0
C2160 C 0.8775 0.04197 0.98548 0.0
H2161 H 0.85535 0.13038 0.99866 0.0
H2162 H 0.87157 0.10962 0.98388 0.0
H2163 H 0.85297 0.04665 0.99475 0.0
H2164 H 0.92233 1.00288 0.99763 0.0
H2165 H 0.89823 0.01876 0.99901 0.0
H2166 H 0.91688 0.07816 0.98035 0.0
C2167 C 0.8642 0.10467 0.99565 0.0
C2168 C 0.86687 0.05368 0.99152 0.0
C2169 C 0.85491 0.11655 0.00411 0.0
C2170 C 0.92193 0.01376 0.98812 0.0
C2171 C 0.9081 0.02289 0.98891 0.0
C2172 C 0.9028 0.07109 0.98297 0.0
C2173 C 0.86382 0.08652 0.0022 0.0
C2174 C 0.87427 0.07419 0.99379 0.0
C2175 C 0.90803 0.03832 0.97798 0.0
C2176 C 0.89572 0.05055 0.98155 0.0
H2177 H 0.83723 0.08728 0.03754 0.0
H2178 H 0.8537 0.06679 0.02301 0.0
H2179 H 0.89835 0.09852 0.99081 0.0
H2180 H 0.94553 0.03901 0.95501 0.0
H2181 H 0.92131 0.05497 0.95638 0.0
C2182 C 0.35191 0.41817 0.01938 0.0
C2183 C 0.34473 0.42085 0.03619 0.0
C2184 C 0.3692 0.42996 0.01579 0.0
C2185 C 0.40466 0.47679 0.03154 0.0
H2186 H 0.43763 0.45213 0.00853 0.0
C2187 C 0.48283 0.50991 0.03855 0.0
C2188 C 0.49273 0.50863 0.02325 0.0
C2189 C 0.46399 0.5008 0.03769 0.0
C2190 C 0.42847 0.4593 0.01466 0.0
H2191 H 0.35008 0.43803 0.06241 0.0
H2192 H 0.3804 0.45832 0.05632 0.0
H2193 H 0.40617 0.43281 0.01202 0.0
H2194 H 0.49057 0.4972 0.9949 0.0
H2195 H 0.45742 0.48094 0.99347 0.0
H2196 H 0.42722 0.50311 0.03475 0.0
C2197 C 0.37252 0.44737 0.04575 0.0
C2198 C 0.41044 0.44824 0.01669 0.0
C2199 C 0.35519 0.43563 0.0493 0.0
C2200 C 0.48329 0.49842 0.0069 0.0
C2201 C 0.46437 0.48907 0.0061 0.0
C2202 C 0.4227 0.4878 0.0296 0.0
C2203 C 0.37975 0.44466 0.02896 0.0
C2204 C 0.39843 0.45677 0.02547 0.0
C2205 C 0.45459 0.49006 0.02156 0.0
C2206 C 0.43488 0.47908 0.02146 0.0
H2207 H 0.34416 0.40698 0.00893 0.0
H2208 H 0.37426 0.42764 0.00264 0.0
H2209 H 0.39565 0.48393 0.03799 0.0
H2210 H 0.48968 0.51776 0.05133 0.0
H2211 H 0.45688 0.50163 0.04988 0.0
C2212 C 0.39382 0.59297 0.78337 0.0
C2213 C 0.38828 0.57893 0.76828 0.0
C2214 C 0.38107 0.60078 0.79136 0.0
C2215 C 0.33636 0.6088 0.7804 0.0
H2216 H 0.33912 0.62253 0.83265 0.0
C2217 C 0.28945 0.65037 0.80797 0.0
C2218 C 0.29917 0.66787 0.81838 0.0
C2219 C 0.29751 0.63534 0.80523 0.0
C2220 C 0.33815 0.61868 0.81805 0.0
H2221 H 0.36496 0.56169 0.75003 0.0
H2222 H 0.34275 0.57512 0.7641 0.0
H2223 H 0.35929 0.60457 0.82057 0.0
H2224 H 0.32396 0.68243 0.83582 0.0
H2225 H 0.33821 0.65641 0.83069 0.0
H2226 H 0.31571 0.62334 0.7777 0.0
C2227 C 0.35698 0.58037 0.76956 0.0
C2228 C 0.34974 0.60851 0.81113 0.0
C2229 C 0.36972 0.57266 0.76151 0.0
C2230 C 0.31631 0.66924 0.82746 0.0
C2231 C 0.32439 0.65424 0.82466 0.0
C2232 C 0.32479 0.61888 0.7873 0.0
C2233 C 0.36252 0.59463 0.78448 0.0
C2234 C 0.3492 0.60381 0.79218 0.0
C2235 C 0.31543 0.63757 0.81279 0.0
C2236 C 0.32578 0.62427 0.80615 0.0
H2237 H 0.40803 0.59806 0.78891 0.0
H2238 H 0.38584 0.61197 0.80266 0.0
H2239 H 0.33579 0.60571 0.76571 0.0
H2240 H 0.27624 0.64885 0.80077 0.0
H2241 H 0.29016 0.62248 0.79628 0.0
C2242 C 0.24644 0.57913 0.54349 0.0
C2243 C 0.25676 0.58577 0.56037 0.0
C2244 C 0.22774 0.56931 0.54285 0.0
C2245 C 0.18884 0.56795 0.56917 0.0
H2246 H 0.16279 0.5273 0.53147 0.0
C2247 C 0.10977 0.54271 0.55746 0.0
C2248 C 0.10268 0.54091 0.53909 0.0
C2249 C 0.12837 0.54501 0.5618 0.0
C2250 C 0.16989 0.53868 0.54205 0.0
H2251 H 0.25587 0.58629 0.58986 0.0
H2252 H 0.22304 0.56911 0.58872 0.0
H2253 H 0.19618 0.53577 0.5364 0.0
H2254 H 0.1095 0.54001 0.51087 0.0
H2255 H 0.142 0.54435 0.51846 0.0
H2256 H 0.16268 0.57141 0.57437 0.0
C2257 C 0.22946 0.57167 0.576 0.0
C2258 C 0.18896 0.54346 0.54491 0.0
C2259 C 0.24824 0.58142 0.57664 0.0
C2260 C 0.11454 0.54137 0.52516 0.0
C2261 C 0.13313 0.54366 0.5295 0.0
C2262 C 0.16977 0.56318 0.5663 0.0
C2263 C 0.21895 0.56597 0.55909 0.0
C2264 C 0.19867 0.55852 0.55816 0.0
C2265 C 0.14025 0.54552 0.54786 0.0
C2266 C 0.16015 0.54887 0.55237 0.0
H2267 H 0.25264 0.58214 0.53071 0.0
H2268 H 0.22 0.56529 0.52961 0.0
H2269 H 0.19595 0.5798 0.57932 0.0
H2270 H 0.10096 0.54229 0.56852 0.0
H2271 H 0.13344 0.54626 0.57607 0.0
C2272 C 0.6941 0.95722 0.76649 0.0
C2273 C 0.6954 0.96933 0.752 0.0
C2274 C 0.70977 0.9539 0.77464 0.0
C2275 C 0.75543 0.95232 0.76559 0.0
H2276 H 0.76144 0.9509 0.81829 0.0
C2277 C 0.80763 0.91809 0.79626 0.0
C2278 C 0.79952 0.90317 0.80734 0.0
C2279 C 0.79924 0.93253 0.79255 0.0
C2280 C 0.76002 0.95135 0.80357 0.0
H2281 H 0.71411 0.98726 0.73449 0.0
H2282 H 0.74154 0.98111 0.74861 0.0
H2283 H 0.73739 0.96327 0.80476 0.0
H2284 H 0.77755 0.89289 0.8249 0.0
H2285 H 0.76262 0.91765 0.81809 0.0
H2286 H 0.77721 0.93933 0.76418 0.0
C2287 C 0.72836 0.97435 0.7537 0.0
C2288 C 0.74626 0.95839 0.79584 0.0
C2289 C 0.71267 0.9778 0.74561 0.0
C2290 C 0.78389 0.90403 0.81604 0.0
C2291 C 0.77547 0.91839 0.81229 0.0
C2292 C 0.7691 0.94517 0.77329 0.0
C2293 C 0.72706 0.96252 0.7684 0.0
C2294 C 0.74344 0.95826 0.77674 0.0
C2295 C 0.78257 0.93223 0.79982 0.0
C2296 C 0.7711 0.94393 0.79231 0.0
H2297 H 0.681 0.95051 0.77176 0.0
H2298 H 0.70834 0.94438 0.78572 0.0
H2299 H 0.75348 0.95198 0.75082 0.0
H2300 H 0.81969 0.91781 0.78936 0.0
H2301 H 0.8052 0.94322 0.78314 0.0
C2302 C 0.73708 0.90777 0.55341 0.0
C2303 C 0.75055 0.90852 0.54106 0.0
C2304 C 0.7253 0.91944 0.55171 0.0
C2305 C 0.72029 0.96353 0.53057 0.0
H2306 H 0.66872 0.94092 0.53742 0.0
C2307 C 0.66476 1.0 0.50901 0.0
C2308 C 0.65102 0.99966 0.52098 0.0
C2309 C 0.67735 0.98954 0.51224 0.0
C2310 C 0.68312 0.94752 0.53568 0.0
H2311 H 0.76225 0.92218 0.51726 0.0
H2312 H 0.74157 0.94226 0.51414 0.0
H2313 H 0.68982 0.92138 0.54161 0.0
H2314 H 0.64012 0.98847 0.54604 0.0
H2315 H 0.662 0.97006 0.55155 0.0
H2316 H 0.71349 0.98958 0.52438 0.0
C2317 C 0.74027 0.9329 0.52532 0.0
C2318 C 0.69522 0.93634 0.5381 0.0
C2319 C 0.75206 0.92128 0.52705 0.0
C2320 C 0.65031 0.98877 0.53636 0.0
C2321 C 0.66286 0.97824 0.53955 0.0
C2322 C 0.70817 0.97469 0.52809 0.0
C2323 C 0.72672 0.93209 0.5376 0.0
C2324 C 0.71394 0.94418 0.5355 0.0
C2325 C 0.67646 0.97843 0.52747 0.0
C2326 C 0.68944 0.96678 0.53055 0.0
H2327 H 0.7356 0.89817 0.56441 0.0
H2328 H 0.71518 0.91865 0.56155 0.0
H2329 H 0.73467 0.97013 0.52876 0.0
H2330 H 0.66553 0.00799 0.49689 0.0
H2331 H 0.68753 0.98976 0.50256 0.0
C2332 C 0.39515 0.46946 0.70634 0.0
C2333 C 0.38836 0.48386 0.71465 0.0
C2334 C 0.38615 0.4496 0.70747 0.0
C2335 C 0.34299 0.41474 0.71926 0.0
H2336 H 0.37503 0.38708 0.74047 0.0
C2337 C 0.31615 0.34951 0.76178 0.0
C2338 C 0.32353 0.33371 0.76007 0.0
C2339 C 0.32367 0.36652 0.75319 0.0
C2340 C 0.3659 0.3944 0.73423 0.0
H2341 H 0.36617 0.48886 0.72941 0.0
H2342 H 0.35048 0.45431 0.73127 0.0
H2343 H 0.38829 0.41895 0.72907 0.0
H2344 H 0.34462 0.32335 0.74799 0.0
H2345 H 0.35765 0.35305 0.7329 0.0
H2346 H 0.32058 0.39042 0.72484 0.0
C2347 C 0.36273 0.45828 0.72394 0.0
C2348 C 0.3735 0.41265 0.72766 0.0
C2349 C 0.37179 0.47807 0.723 0.0
C2350 C 0.33869 0.33533 0.7497 0.0
C2351 C 0.34617 0.35235 0.74105 0.0
C2352 C 0.33538 0.39646 0.72575 0.0
C2353 C 0.37011 0.44386 0.71668 0.0
C2354 C 0.3621 0.42322 0.72058 0.0
C2355 C 0.33868 0.36809 0.74263 0.0
C2356 C 0.34675 0.38636 0.73379 0.0
H2357 H 0.40788 0.47351 0.6998 0.0
H2358 H 0.39203 0.43874 0.70163 0.0
H2359 H 0.3339 0.42249 0.71366 0.0
H2360 H 0.30451 0.34875 0.76971 0.0
H2361 H 0.31783 0.37855 0.75501 0.0
C2362 C 0.19334 0.57042 0.21944 0.0
C2363 C 0.17482 0.56399 0.22321 0.0
C2364 C 0.20336 0.59019 0.22268 0.0
C2365 C 0.2043 0.63321 0.2526 0.0
H2366 H 0.24086 0.66111 0.22177 0.0
C2367 C 0.24517 0.71473 0.269 0.0
C2368 C 0.26376 0.72048 0.26543 0.0
C2369 C 0.23396 0.6958 0.26345 0.0
C2370 C 0.23085 0.65343 0.23063 0.0
H2371 H 0.15198 0.57345 0.23221 0.0
H2372 H 0.16948 0.60796 0.23778 0.0
H2373 H 0.22135 0.62816 0.21136 0.0
H2374 H 0.2853 0.71063 0.25376 0.0
H2375 H 0.26583 0.67749 0.24444 0.0
H2376 H 0.21397 0.65823 0.27203 0.0
C2377 C 0.17629 0.59765 0.23258 0.0
C2378 C 0.21963 0.63461 0.22462 0.0
C2379 C 0.16625 0.5779 0.22926 0.0
C2380 C 0.27102 0.70672 0.25665 0.0
C2381 C 0.25982 0.68776 0.25116 0.0
C2382 C 0.21556 0.65197 0.25865 0.0
C2383 C 0.19507 0.60389 0.22981 0.0
C2384 C 0.20629 0.62429 0.23558 0.0
C2385 C 0.2411 0.68217 0.25427 0.0
C2386 C 0.22903 0.66227 0.24778 0.0
H2387 H 0.20034 0.56008 0.21473 0.0
H2388 H 0.21783 0.59455 0.22049 0.0
H2389 H 0.19437 0.62547 0.26151 0.0
H2390 H 0.23911 0.72499 0.27568 0.0
H2391 H 0.21957 0.69203 0.26592 0.0
C2392 C 0.51633 0.71622 0.47316 0.0
C2393 C 0.51142 0.71648 0.45444 0.0
C2394 C 0.51778 0.69895 0.48019 0.0
C2395 C 0.50514 0.645 0.46916 0.0
H2396 H 0.54661 0.64874 0.5039 0.0
C2397 C 0.51617 0.5771 0.50094 0.0
C2398 C 0.5343 0.57623 0.50354 0.0
C2399 C 0.51265 0.59417 0.49567 0.0
C2400 C 0.53504 0.64742 0.49408 0.0
H2401 H 0.50385 0.69872 0.42849 0.0
H2402 H 0.50675 0.66891 0.44062 0.0
H2403 H 0.54144 0.67852 0.49354 0.0
H2404 H 0.56294 0.59244 0.50226 0.0
H2405 H 0.55677 0.62201 0.49255 0.0
H2406 H 0.49921 0.61392 0.46905 0.0
C2407 C 0.50917 0.68187 0.44999 0.0
C2408 C 0.5319 0.66452 0.48837 0.0
C2409 C 0.50763 0.69905 0.443 0.0
C2410 C 0.54882 0.59267 0.50047 0.0
C2411 C 0.54528 0.60969 0.49505 0.0
C2412 C 0.50835 0.62791 0.47477 0.0
C2413 C 0.51441 0.68162 0.46863 0.0
C2414 C 0.51701 0.66351 0.4757 0.0
C2415 C 0.52717 0.6107 0.49273 0.0
C2416 C 0.52344 0.62891 0.48718 0.0
H2417 H 0.51926 0.72939 0.48235 0.0
H2418 H 0.5216 0.69919 0.49468 0.0
H2419 H 0.49339 0.64369 0.45958 0.0
H2420 H 0.50466 0.56473 0.50331 0.0
H2421 H 0.49855 0.5945 0.49424 0.0
C2422 C 0.6349 0.30741 0.66951 0.0
C2423 C 0.63424 0.30815 0.65042 0.0
C2424 C 0.65143 0.309 0.67961 0.0
C2425 C 0.69595 0.30037 0.67446 0.0
H2426 H 0.70731 0.32558 0.72384 0.0
C2427 C 0.75918 0.29736 0.72049 0.0
C2428 C 0.75532 0.2919 0.73821 0.0
C2429 C 0.74622 0.3026 0.70922 0.0
C2430 C 0.70431 0.31847 0.71006 0.0
H2431 H 0.65056 0.31193 0.62703 0.0
H2432 H 0.67951 0.31488 0.64474 0.0
H2433 H 0.68135 0.3294 0.70492 0.0
H2434 H 0.735 0.28816 0.75815 0.0
H2435 H 0.71248 0.29719 0.73851 0.0
H2436 H 0.71868 0.28909 0.67977 0.0
C2437 C 0.66716 0.31278 0.65184 0.0
C2438 C 0.68944 0.32064 0.69925 0.0
C2439 C 0.65059 0.31119 0.64171 0.0
C2440 C 0.73842 0.29223 0.74456 0.0
C2441 C 0.72555 0.29757 0.73336 0.0
C2442 C 0.71086 0.29826 0.68527 0.0
C2443 C 0.6677 0.31142 0.67086 0.0
C2444 C 0.68483 0.31122 0.68148 0.0
C2445 C 0.72923 0.30263 0.71552 0.0
C2446 C 0.71491 0.3069 0.70333 0.0
H2447 H 0.62256 0.30511 0.67665 0.0
H2448 H 0.65131 0.30762 0.6942 0.0
H2449 H 0.69265 0.29274 0.66092 0.0
H2450 H 0.77209 0.2973 0.71518 0.0
H2451 H 0.74946 0.30656 0.69556 0.0
C2452 C 1.00079 0.33391 0.92294 0.0
C2453 C 1.01022 0.32137 0.9299 0.0
C2454 C 1.00373 0.35272 0.93136 0.0
C2455 C 0.0238 0.38419 0.97432 0.0
H2456 H 0.02349 0.42612 0.94338 0.0
C2457 C 0.05035 0.46654 -0.00048 0.0
C2458 C 0.03847 0.47771 0.9952 0.0
C2459 C 0.04662 0.4473 0.99183 0.0
C2460 C 0.02349 0.41451 0.95217 0.0
H2461 H 0.0301 0.31862 0.95116 0.0
H2462 H 0.03578 0.3517 0.96551 0.0
H2463 H 0.0177 0.39284 0.92953 0.0
H2464 H 0.01352 0.47758 0.97929 0.0
H2465 H 1.00725 0.44404 0.96556 0.0
H2466 H 0.03021 0.4062 0.9969 0.0
C2467 C 0.02572 0.34688 0.95384 0.0
C2468 C 0.02008 0.3954 0.94428 0.0
C2469 C 0.02255 0.32794 0.94556 0.0
C2470 C 0.0229 0.46932 0.98291 0.0
C2471 C 0.01935 0.45018 0.97499 0.0
C2472 C 0.02749 0.40337 0.98218 0.0
C2473 C 0.01641 0.35957 0.94678 0.0
C2474 C 0.0201 0.37995 0.95525 0.0
C2475 C 0.03112 0.43898 0.97946 0.0
C2476 C 0.0273 0.41868 0.97117 0.0
H2477 H 0.99105 0.32917 0.91099 0.0
H2478 H 0.99598 0.36185 0.92578 0.0
H2479 H 0.02363 0.37266 0.98326 0.0
H2480 H 0.06242 0.47257 0.00901 0.0
H2481 H 0.05597 0.43899 0.99539 0.0
C2482 C 1.00474 0.78286 0.14633 0.0
C2483 C 0.02308 0.78992 0.15374 0.0
C2484 C 0.99037 0.78126 0.15756 0.0
C2485 C 0.97968 0.7779 0.20581 0.0
H2486 H 0.9366 0.79216 0.18862 0.0
C2487 C 0.92264 0.7827 0.25245 0.0
C2488 C 0.9044 0.775 0.24483 0.0
C2489 C 0.93724 0.78451 0.24148 0.0
C2490 C 0.94846 0.78793 0.19353 0.0
H2491 H 0.04073 0.801 0.17875 0.0
H2492 H 0.01564 0.79843 0.1983 0.0
H2493 H 0.96191 0.79562 0.16921 0.0
H2494 H 0.88724 0.7627 0.21978 0.0
H2495 H 0.91272 0.76593 0.20064 0.0
H2496 H 0.96621 0.77027 0.23017 0.0
C2497 C 1.01237 0.79385 0.18385 0.0
C2498 C 0.96296 0.78991 0.18241 0.0
C2499 C 0.02675 0.79543 0.17262 0.0
C2500 C 0.90111 0.769 0.22602 0.0
C2501 C 0.91571 0.77085 0.21505 0.0
C2502 C 0.96519 0.77596 0.21695 0.0
C2503 C 0.99401 0.78671 0.17645 0.0
C2504 C 0.97871 0.78486 0.18839 0.0
C2505 C 0.93393 0.77869 0.22264 0.0
C2506 C 0.9494 0.7809 0.21091 0.0
H2507 H 1.00144 0.77843 0.13185 0.0
H2508 H 0.97639 0.77545 0.15147 0.0
H2509 H 0.9915 0.7736 0.21071 0.0
H2510 H 0.92563 0.78773 0.26684 0.0
H2511 H 0.95113 0.79083 0.24768 0.0
C2512 C 0.54653 0.34327 0.12226 0.0
C2513 C 0.54749 0.34547 0.14159 0.0
C2514 C 0.54711 0.35938 0.11158 0.0
C2515 C 0.55986 0.41536 0.11548 0.0
H2516 H 0.53192 0.4084 0.06848 0.0
C2517 C 0.55306 0.48356 0.07762 0.0
C2518 C 0.55073 0.48239 0.05831 0.0
C2519 C 0.55285 0.4669 0.08723 0.0
C2520 C 0.54007 0.41081 0.08147 0.0
H2521 H 0.54979 0.36709 0.16439 0.0
H2522 H 0.55069 0.39441 0.14623 0.0
H2523 H 0.53153 0.37994 0.08537 0.0
H2524 H 0.54638 0.46193 0.03426 0.0
H2525 H 0.54634 0.43332 0.05072 0.0
H2526 H 0.56854 0.4461 0.11166 0.0
C2527 C 0.54975 0.38042 0.13908 0.0
C2528 C 0.53982 0.39424 0.09128 0.0
C2529 C 0.54908 0.36444 0.14965 0.0
C2530 C 0.54821 0.46374 0.04907 0.0
C2531 C 0.54804 0.44708 0.05866 0.0
C2532 C 0.56015 0.43188 0.10569 0.0
C2533 C 0.54882 0.37841 0.11977 0.0
C2534 C 0.54959 0.3961 0.10863 0.0
C2535 C 0.55034 0.44818 0.07802 0.0
C2536 C 0.55017 0.43012 0.08846 0.0
H2537 H 0.54526 0.32907 0.11534 0.0
H2538 H 0.54645 0.35693 0.09683 0.0
H2539 H 0.568 0.41779 0.12849 0.0
H2540 H 0.55494 0.49743 0.08546 0.0
H2541 H 0.55437 0.46876 0.10203 0.0
C2542 C 0.97745 0.26655 0.37501 0.0
C2543 C 0.99402 0.27066 0.36632 0.0
C2544 C 0.9607 0.26701 0.36595 0.0
C2545 C 0.94 0.28661 0.32576 0.0
H2546 H 0.89473 0.2502 0.33786 0.0
C2547 C 0.86791 0.28599 0.28962 0.0
C2548 C 0.85162 0.27887 0.29843 0.0
C2549 C 0.88515 0.28475 0.29709 0.0
C2550 C 0.90703 0.26085 0.33437 0.0
H2551 H 1.0052 0.27867 0.34059 0.0
H2552 H 0.97602 0.27964 0.32474 0.0
H2553 H 0.92395 0.24847 0.35148 0.0
H2554 H 0.84149 0.26486 0.32257 0.0
H2555 H 0.87103 0.26321 0.3357 0.0
H2556 H 0.9231 0.29924 0.30889 0.0
C2557 C 0.97606 0.27596 0.33881 0.0
C2558 C 0.92412 0.25976 0.34228 0.0
C2559 C 0.99293 0.27522 0.3479 0.0
C2560 C 0.85345 0.27051 0.31513 0.0
C2561 C 0.87069 0.2694 0.32268 0.0
C2562 C 0.92286 0.28784 0.31795 0.0
C2563 C 0.95949 0.27185 0.34766 0.0
C2564 C 0.94109 0.27267 0.3383 0.0
C2565 C 0.88709 0.27642 0.31387 0.0
C2566 C 0.90582 0.27504 0.32209 0.0
H2567 H 0.97736 0.26303 0.38914 0.0
H2568 H 0.94868 0.264 0.37362 0.0
H2569 H 0.95247 0.29706 0.32228 0.0
H2570 H 0.86738 0.29247 0.27674 0.0
H2571 H 0.89694 0.29015 0.2894 0.0
C2572 C 0.05171 0.73193 0.61019 0.0
C2573 C 0.04448 0.73433 0.62712 0.0
C2574 C 0.05143 0.71333 0.60236 0.0
C2575 C 0.03042 0.65857 0.60441 0.0
H2576 H 0.0708 0.65607 0.57592 0.0
C2577 C 0.03861 0.5833 0.57343 0.0
C2578 C 0.04619 0.58288 0.55639 0.0
C2579 C 0.03812 0.60116 0.58263 0.0
C2580 C 0.0592 0.65633 0.58357 0.0
H2581 H 0.03099 0.71816 0.64883 0.0
H2582 H 0.03057 0.68569 0.63528 0.0
H2583 H 0.07031 0.68725 0.59057 0.0
H2584 H 0.05911 0.60163 0.53593 0.0
H2585 H 0.05816 0.63222 0.55162 0.0
H2586 H 0.01941 0.62747 0.5974 0.0
C2587 C 0.03639 0.69837 0.62791 0.0
C2588 C 0.0589 0.67447 0.59209 0.0
C2589 C 0.03666 0.71713 0.63579 0.0
C2590 C 0.05323 0.60106 0.549 0.0
C2591 C 0.05278 0.61884 0.55817 0.0
C2592 C 0.03072 0.64034 0.59587 0.0
C2593 C 0.04398 0.69608 0.61107 0.0
C2594 C 0.04442 0.67613 0.60256 0.0
C2595 C 0.04527 0.61938 0.57524 0.0
C2596 C 0.04505 0.63882 0.58507 0.0
H2597 H 0.05777 0.74457 0.60284 0.0
H2598 H 0.05703 0.71258 0.58926 0.0
H2599 H 0.01888 0.65892 0.61213 0.0
H2600 H 0.03305 0.56978 0.57974 0.0
H2601 H 0.03235 0.60065 0.59575 0.0
C2602 C 0.61692 0.78735 0.85999 0.0
C2603 C 0.60276 0.76932 0.85776 0.0
C2604 C 0.63428 0.78948 0.85268 0.0
C2605 C 0.66325 0.75864 0.8315 0.0
H2606 H 0.69506 0.8088 0.8206 0.0
C2607 C 0.72927 0.76364 0.79191 0.0
C2608 C 0.74534 0.77963 0.79603 0.0
C2609 C 0.71245 0.76313 0.79944 0.0
C2610 C 0.68653 0.79458 0.82364 0.0
H2611 H 0.5964 0.73968 0.84512 0.0
H2612 H 0.62541 0.74343 0.83218 0.0
H2613 H 0.66571 0.80684 0.83315 0.0
H2614 H 0.75541 0.80788 0.81164 0.0
H2615 H 0.72632 0.80711 0.82451 0.0
H2616 H 0.68392 0.74635 0.82186 0.0
C2617 C 0.62378 0.75597 0.84011 0.0
C2618 C 0.66941 0.79343 0.83099 0.0
C2619 C 0.60669 0.75383 0.84751 0.0
C2620 C 0.7436 0.79523 0.80793 0.0
C2621 C 0.72668 0.79481 0.81534 0.0
C2622 C 0.6802 0.75977 0.82402 0.0
C2623 C 0.63829 0.77372 0.84267 0.0
C2624 C 0.65716 0.77537 0.83505 0.0
C2625 C 0.71064 0.77865 0.81142 0.0
C2626 C 0.69232 0.77773 0.81978 0.0
H2627 H 0.6148 0.79973 0.86781 0.0
H2628 H 0.64469 0.80349 0.85531 0.0
H2629 H 0.65505 0.74437 0.83474 0.0
H2630 H 0.72966 0.75123 0.78289 0.0
H2631 H 0.70071 0.75045 0.79562 0.0
C2632 C 0.43765 0.56373 0.6789 0.0
C2633 C 0.44901 0.56522 0.69506 0.0
C2634 C 0.44486 0.56405 0.66188 0.0
C2635 C 0.48864 0.57425 0.63941 0.0
H2636 H 0.45943 0.53429 0.60262 0.0
C2637 C 0.5164 0.56072 0.57064 0.0
C2638 C 0.51345 0.54105 0.56423 0.0
C2639 C 0.50696 0.56555 0.58497 0.0
C2640 C 0.46779 0.54546 0.61277 0.0
H2641 H 0.47698 0.56922 0.70613 0.0
H2642 H 0.48946 0.56931 0.67652 0.0
H2643 H 0.44658 0.5403 0.6311 0.0
H2644 H 0.4979 0.51103 0.56736 0.0
H2645 H 0.48178 0.51936 0.59285 0.0
H2646 H 0.51023 0.5786 0.6216 0.0
C2647 C 0.47505 0.56821 0.67691 0.0
C2648 C 0.46032 0.54913 0.629 0.0
C2649 C 0.46787 0.56806 0.69393 0.0
C2650 C 0.50042 0.52631 0.57202 0.0
C2651 C 0.49112 0.53113 0.58656 0.0
C2652 C 0.49615 0.57046 0.62326 0.0
C2653 C 0.46354 0.56571 0.66067 0.0
C2654 C 0.47077 0.56335 0.64265 0.0
C2655 C 0.49451 0.55079 0.59339 0.0
C2656 C 0.48592 0.55582 0.60986 0.0
H2657 H 0.42308 0.56171 0.67935 0.0
H2658 H 0.4357 0.56251 0.64964 0.0
H2659 H 0.49697 0.58549 0.64952 0.0
H2660 H 0.52615 0.57244 0.56467 0.0
H2661 H 0.50958 0.58086 0.58958 0.0
C2662 C 0.79477 0.17416 0.00695 0.0
C2663 C 0.78929 0.15362 0.00387 0.0
C2664 C 0.79073 0.18566 0.99349 0.0
C2665 C 0.76034 0.18296 0.95139 0.0
H2666 H 0.79833 0.22914 0.94051 0.0
C2667 C 0.75885 0.21875 0.88351 0.0
C2668 C 0.76482 0.2393 0.88397 0.0
C2669 C 0.76043 0.20934 0.89935 0.0
C2670 C 0.78748 0.21646 0.94356 0.0
H2671 H 0.77524 0.12905 0.98428 0.0
H2672 H 0.76847 0.14904 0.96082 0.0
H2673 H 0.80389 0.2108 0.96605 0.0
H2674 H 0.77686 0.26612 0.90145 0.0
H2675 H 0.7795 0.24964 0.92923 0.0
H2676 H 0.7441 0.18838 0.92863 0.0
C2677 C 0.77561 0.1563 0.97371 0.0
C2678 C 0.79065 0.20596 0.95821 0.0
C2679 C 0.77962 0.14483 0.98713 0.0
C2680 C 0.77203 0.25027 0.90071 0.0
C2681 C 0.7737 0.24084 0.91656 0.0
C2682 C 0.75719 0.19343 0.93673 0.0
C2683 C 0.78112 0.17684 0.97671 0.0
C2684 C 0.77723 0.1889 0.9621 0.0
C2685 C 0.76807 0.22027 0.916 0.0
C2686 C 0.77082 0.21012 0.93249 0.0
H2687 H 0.80219 0.18137 0.01973 0.0
H2688 H 0.79503 0.20144 0.99628 0.0
H2689 H 0.74957 0.17011 0.95425 0.0
H2690 H 0.75308 0.20992 0.87084 0.0
H2691 H 0.75613 0.19347 0.89843 0.0
C2692 C 0.11762 0.46294 0.18331 0.0
C2693 C 0.11376 0.47556 0.19683 0.0
C2694 C 0.10663 0.4577 0.1668 0.0
C2695 C 0.09529 0.46767 0.12986 0.0
H2696 H 0.04624 0.47272 0.12233 0.0
C2697 C 0.07664 0.51108 0.07381 0.0
C2698 C 0.05889 0.50549 0.0649 0.0
C2699 C 0.08086 0.501 0.08827 0.0
C2700 C 0.05981 0.47087 0.12405 0.0
H2701 H 0.09444 0.49105 0.20455 0.0
H2702 H 0.07591 0.48287 0.17559 0.0
H2703 H 0.05629 0.46334 0.1516 0.0
H2704 H 0.03167 0.48469 0.06397 0.0
H2705 H 0.03913 0.467 0.0893 0.0
H2706 H 0.09886 0.47534 0.10242 0.0
C2707 C 0.08706 0.47651 0.17766 0.0
C2708 C 0.06566 0.4657 0.14091 0.0
C2709 C 0.09781 0.48139 0.19429 0.0
C2710 C 0.04547 0.48945 0.07065 0.0
C2711 C 0.04971 0.47931 0.08515 0.0
C2712 C 0.08937 0.47256 0.11299 0.0
C2713 C 0.09188 0.46542 0.16336 0.0
C2714 C 0.08382 0.46513 0.14435 0.0
C2715 C 0.06746 0.48501 0.09412 0.0
C2716 C 0.07196 0.47531 0.11026 0.0
H2717 H 0.12965 0.4579 0.18512 0.0
H2718 H 0.11041 0.4486 0.15633 0.0
H2719 H 0.10939 0.46745 0.13187 0.0
H2720 H 0.08732 0.52334 0.06972 0.0
H2721 H 0.09456 0.50608 0.09515 0.0
C2722 C 0.80228 0.82752 0.48176 0.0
C2723 C 0.79238 0.84045 0.48699 0.0
C2724 C 0.80119 0.82024 0.46345 0.0
C2725 C 0.80671 0.81785 0.42303 0.0
H2726 H 0.76314 0.81073 0.39021 0.0
C2727 C 0.80905 0.81025 0.34456 0.0
C2728 C 0.79345 0.79837 0.33387 0.0
C2729 C 0.80842 0.81431 0.36335 0.0
C2730 C 0.77539 0.81235 0.39915 0.0
H2731 H 0.77318 0.85549 0.47717 0.0
H2732 H 0.77177 0.84348 0.44535 0.0
H2733 H 0.76204 0.81779 0.42275 0.0
H2734 H 0.76508 0.78105 0.33456 0.0
H2735 H 0.76416 0.7874 0.36733 0.0
H2736 H 0.81983 0.81155 0.39955 0.0
C2737 C 0.78003 0.83843 0.45532 0.0
C2738 C 0.77484 0.81674 0.41788 0.0
C2739 C 0.7809 0.84543 0.47364 0.0
C2740 C 0.77728 0.79047 0.34239 0.0
C2741 C 0.77674 0.79422 0.36122 0.0
C2742 C 0.80718 0.81314 0.40434 0.0
C2743 C 0.79039 0.82597 0.44988 0.0
C2744 C 0.79056 0.81983 0.43008 0.0
C2745 C 0.79228 0.80628 0.37199 0.0
C2746 C 0.79159 0.81057 0.39207 0.0
H2747 H 0.81116 0.82329 0.49175 0.0
H2748 H 0.80902 0.81031 0.45993 0.0
H2749 H 0.81921 0.82037 0.43186 0.0
H2750 H 0.82169 0.81665 0.33836 0.0
H2751 H 0.82057 0.82399 0.37102 0.0
C2752 C 0.45634 0.51107 0.77497 0.0
C2753 C 0.45169 0.52828 0.77185 0.0
C2754 C 0.4674 0.51024 0.79061 0.0
C2755 C 0.4814 0.53424 0.83726 0.0
H2756 H 0.51655 0.50449 0.83741 0.0
C2757 C 0.52685 0.53264 0.90205 0.0
C2758 C 0.52745 0.51399 0.90652 0.0
C2759 C 0.51945 0.53518 0.88487 0.0
C2760 C 0.50672 0.51277 0.83755 0.0
H2761 H 0.45565 0.55841 0.78222 0.0
H2762 H 0.47525 0.5571 0.80927 0.0
H2763 H 0.50048 0.50782 0.80851 0.0
H2764 H 0.52119 0.48349 0.89624 0.0
H2765 H 0.50835 0.48799 0.86611 0.0
H2766 H 0.48757 0.53914 0.86626 0.0
C2767 C 0.46999 0.54408 0.79989 0.0
C2768 C 0.49749 0.51466 0.82103 0.0
C2769 C 0.45884 0.54486 0.78434 0.0
C2770 C 0.52107 0.49807 0.89317 0.0
C2771 C 0.51372 0.50064 0.87592 0.0
C2772 C 0.49069 0.53246 0.85371 0.0
C2773 C 0.47413 0.52665 0.80339 0.0
C2774 C 0.48464 0.52533 0.82072 0.0
C2775 C 0.51256 0.51916 0.87172 0.0
C2776 C 0.50335 0.52162 0.85405 0.0
H2777 H 0.45102 0.49803 0.76562 0.0
H2778 H 0.47014 0.49652 0.79297 0.0
H2779 H 0.47132 0.54221 0.83759 0.0
H2780 H 0.53201 0.54528 0.9119 0.0
H2781 H 0.51901 0.54969 0.88189 0.0
C2782 C 0.83049 0.19061 0.1023 0.0
C2783 C 0.82543 0.1702 0.09839 0.0
C2784 C 0.83143 0.19871 0.12026 0.0
C2785 C 0.81193 0.18644 0.16394 0.0
H2786 H 0.84709 0.23613 0.18188 0.0
C2787 C 0.80854 0.22716 0.23402 0.0
C2788 C 0.80979 0.24706 0.23295 0.0
C2789 C 0.8127 0.21634 0.2192 0.0
C2790 C 0.83719 0.22223 0.17706 0.0
H2791 H 0.81824 0.14228 0.11041 0.0
H2792 H 0.82006 0.15645 0.14178 0.0
H2793 H 0.8509 0.21979 0.15289 0.0
H2794 H 0.81669 0.27124 0.21561 0.0
H2795 H 0.82382 0.25247 0.19002 0.0
H2796 H 0.79798 0.18917 0.18793 0.0
C2797 C 0.82301 0.16617 0.13091 0.0
C2798 C 0.83935 0.2129 0.16045 0.0
C2799 C 0.82207 0.15808 0.11294 0.0
C2800 C 0.81551 0.25594 0.21692 0.0
C2801 C 0.81979 0.24523 0.20227 0.0
C2802 C 0.8098 0.19576 0.1806 0.0
C2803 C 0.82736 0.18656 0.13473 0.0
C2804 C 0.82648 0.19516 0.15346 0.0
C2805 C 0.81839 0.22532 0.2032 0.0
C2806 C 0.82213 0.21401 0.18706 0.0
H2807 H 0.83316 0.20036 0.09142 0.0
H2808 H 0.83461 0.21447 0.1227 0.0
H2809 H 0.80166 0.17288 0.15887 0.0
H2810 H 0.80421 0.21991 0.24619 0.0
H2811 H 0.81154 0.20101 0.22028 0.0
C2812 C 0.16615 0.53781 0.29585 0.0
C2813 C 0.15612 0.52221 0.28328 0.0
C2814 C 0.15949 0.54098 0.31267 0.0
C2815 C 0.12851 0.51631 0.3456 0.0
H2816 H 0.12663 0.56848 0.36108 0.0
C2817 C 0.08609 0.53021 0.40396 0.0
C2818 C 0.09334 0.54721 0.41587 0.0
C2819 C 0.09477 0.52728 0.38835 0.0
C2820 C 0.12733 0.55389 0.35711 0.0
H2821 H 0.13139 0.49756 0.27849 0.0
H2822 H 0.11984 0.50307 0.30793 0.0
H2823 H 0.14025 0.56307 0.3328 0.0
H2824 H 0.11547 0.57434 0.42108 0.0
H2825 H 0.13086 0.56912 0.3939 0.0
H2826 H 0.11568 0.50708 0.36988 0.0
C2827 C 0.13285 0.51279 0.30477 0.0
C2828 C 0.13508 0.55081 0.34091 0.0
C2829 C 0.13941 0.50972 0.2879 0.0
C2830 C 0.10949 0.56121 0.41197 0.0
C2831 C 0.11827 0.55823 0.39642 0.0
C2832 C 0.12088 0.51941 0.36186 0.0
C2833 C 0.14279 0.52848 0.31727 0.0
C2834 C 0.13553 0.53195 0.33492 0.0
C2835 C 0.11097 0.54124 0.38442 0.0
C2836 C 0.11999 0.53818 0.36768 0.0
H2837 H 0.17907 0.54768 0.29265 0.0
H2838 H 0.16746 0.55312 0.32214 0.0
H2839 H 0.12894 0.50168 0.34139 0.0
H2840 H 0.07351 0.51931 0.40654 0.0
H2841 H 0.0886 0.51423 0.37921 0.0
C2842 C 0.79247 0.86064 0.59448 0.0
C2843 C 0.78572 0.8462 0.57979 0.0
C2844 C 0.79258 0.8555 0.61255 0.0
C2845 C 0.79227 0.814 0.63982 0.0
H2846 H 0.77636 0.84368 0.67806 0.0
C2847 C 0.78177 0.78584 0.71073 0.0
C2848 C 0.78785 0.79929 0.72622 0.0
C2849 C 0.78088 0.79229 0.69327 0.0
C2850 C 0.78106 0.83539 0.6676 0.0
H2851 H 0.77375 0.81502 0.57262 0.0
H2852 H 0.77403 0.80604 0.60414 0.0
H2853 H 0.77633 0.85349 0.64674 0.0
H2854 H 0.79717 0.83016 0.73556 0.0
H2855 H 0.79591 0.84155 0.70484 0.0
H2856 H 0.79725 0.79605 0.66053 0.0
C2857 C 0.77933 0.82135 0.60166 0.0
C2858 C 0.78101 0.84098 0.64964 0.0
C2859 C 0.7791 0.8265 0.58359 0.0
C2860 C 0.79239 0.81944 0.72389 0.0
C2861 C 0.79164 0.82594 0.70629 0.0
C2862 C 0.79243 0.80848 0.65773 0.0
C2863 C 0.78606 0.83579 0.61635 0.0
C2864 C 0.78646 0.83023 0.63553 0.0
C2865 C 0.78623 0.8124 0.69073 0.0
C2866 C 0.78662 0.81894 0.67183 0.0
H2867 H 0.79765 0.87598 0.59205 0.0
H2868 H 0.79801 0.86694 0.62354 0.0
H2869 H 0.79691 0.80565 0.62935 0.0
H2870 H 0.7779 0.77019 0.71204 0.0
H2871 H 0.77613 0.78142 0.68171 0.0
C2872 C 0.75326 0.46981 0.52296 0.0
C2873 C 0.75008 0.45134 0.52987 0.0
C2874 C 0.74471 0.48321 0.52984 0.0
C2875 C 0.71962 0.4945 0.5687 0.0
H2876 H 0.69856 0.52114 0.53282 0.0
C2877 C 0.65921 0.52569 0.57985 0.0
C2878 C 0.6583 0.54215 0.57077 0.0
C2879 C 0.67387 0.51796 0.57791 0.0
C2880 C 0.70469 0.51418 0.5431 0.0
H2881 H 0.73561 0.43253 0.54957 0.0
H2882 H 0.72029 0.45576 0.56127 0.0
H2883 H 0.71709 0.5006 0.52299 0.0
H2884 H 0.67278 0.56437 0.55378 0.0
H2885 H 0.69855 0.55112 0.55072 0.0
H2886 H 0.70653 0.50763 0.5887 0.0
C2887 C 0.72968 0.46002 0.55077 0.0
C2888 C 0.71529 0.50235 0.53745 0.0
C2889 C 0.73832 0.44664 0.54395 0.0
C2890 C 0.67309 0.55171 0.56099 0.0
C2891 C 0.68776 0.54399 0.55907 0.0
C2892 C 0.70893 0.50633 0.57436 0.0
C2893 C 0.7327 0.47841 0.54371 0.0
C2894 C 0.72265 0.49214 0.55012 0.0
C2895 C 0.68789 0.52658 0.56685 0.0
C2896 C 0.70114 0.51606 0.56156 0.0
H2897 H 0.76241 0.47397 0.51225 0.0
H2898 H 0.74753 0.49736 0.5243 0.0
H2899 H 0.72535 0.48706 0.57884 0.0
H2900 H 0.64813 0.5182 0.58771 0.0
H2901 H 0.67355 0.5045 0.58405 0.0
C2902 C 0.23756 0.16189 0.54211 0.0
C2903 C 0.25082 0.15903 0.53072 0.0
C2904 C 0.22083 0.14743 0.54244 0.0
C2905 C 0.18892 0.10466 0.51574 0.0
H2906 H 0.16858 0.09478 0.56251 0.0
C2907 C 0.11763 0.0491 0.52245 0.0
C2908 C 0.10625 0.05665 0.53321 0.0
C2909 C 0.13635 0.05915 0.52256 0.0
C2910 C 0.17407 0.09739 0.54935 0.0
H2911 H 0.25681 0.13876 0.51054 0.0
H2912 H 0.22745 0.11342 0.51113 0.0
H2913 H 0.19928 0.11727 0.56155 0.0
H2914 H 0.10569 0.08028 0.55298 0.0
H2915 H 0.13811 0.09767 0.55317 0.0
H2916 H 0.16347 0.08507 0.50354 0.0
C2917 C 0.23005 0.12694 0.51976 0.0
C2918 C 0.19163 0.11029 0.54879 0.0
C2919 C 0.24686 0.14143 0.51947 0.0
C2920 C 0.11405 0.07407 0.54447 0.0
C2921 C 0.13269 0.08399 0.5447 0.0
C2922 C 0.17131 0.09171 0.5163 0.0
C2923 C 0.21692 0.12973 0.53138 0.0
C2924 C 0.19907 0.11445 0.53196 0.0
C2925 C 0.14403 0.07679 0.53361 0.0
C2926 C 0.16354 0.08833 0.53309 0.0
H2927 H 0.2401 0.17529 0.5509 0.0
H2928 H 0.21086 0.15019 0.55128 0.0
H2929 H 0.19425 0.10764 0.50256 0.0
H2930 H 0.11201 0.03571 0.5136 0.0
H2931 H 0.1448 0.0532 0.51396 0.0
C2932 C 0.19138 0.96407 0.75513 0.0
C2933 C 0.19446 0.97417 0.77262 0.0
C2934 C 0.20452 0.95597 0.74837 0.0
C2935 C 0.25366 0.95946 0.75443 0.0
H2936 H 0.23803 0.90518 0.73457 0.0
C2937 C 0.30116 0.91047 0.75384 0.0
C2938 C 0.29804 0.89508 0.74007 0.0
C2939 C 0.28991 0.92273 0.75412 0.0
C2940 C 0.24264 0.92049 0.73966 0.0
H2941 H 0.21376 0.98373 0.79672 0.0
H2942 H 0.23662 0.96957 0.78494 0.0
H2943 H 0.21511 0.92125 0.7424 0.0
H2944 H 0.28147 0.8813 0.71507 0.0
H2945 H 0.26207 0.90304 0.71532 0.0
H2946 H 0.28121 0.95859 0.75208 0.0
C2947 C 0.22412 0.96807 0.77639 0.0
C2948 C 0.22948 0.92966 0.74422 0.0
C2949 C 0.21094 0.97602 0.7832 0.0
C2950 C 0.28428 0.89309 0.72583 0.0
C2951 C 0.27302 0.90539 0.72609 0.0
C2952 C 0.26682 0.95033 0.74978 0.0
C2953 C 0.22106 0.95799 0.75891 0.0
C2954 C 0.23489 0.94906 0.75209 0.0
C2955 C 0.27531 0.9199 0.74059 0.0
C2956 C 0.26147 0.93058 0.74279 0.0
H2957 H 0.17882 0.96243 0.74664 0.0
H2958 H 0.20184 0.94831 0.73483 0.0
H2959 H 0.25818 0.97456 0.76018 0.0
H2960 H 0.31182 0.91249 0.76487 0.0
H2961 H 0.29201 0.93367 0.76556 0.0
C2962 C 0.3515 0.96939 0.03364 0.0
C2963 C 0.33967 0.96753 0.01781 0.0
C2964 C 0.36997 0.98012 0.03392 0.0
C2965 C 0.40563 0.99663 0.002 0.0
H2966 H 0.43502 0.02068 0.04697 0.0
C2967 C 0.48521 0.0285 0.00812 0.0
C2968 C 0.49341 0.01929 0.0211 0.0
C2969 C 0.46631 0.02589 0.00722 0.0
C2970 C 0.42691 0.01416 0.0343 0.0
H2971 H 0.33744 0.97648 0.9903 0.0
H2972 H 0.36953 0.99583 0.991 0.0
H2973 H 0.40158 0.01059 0.04647 0.0
H2974 H 0.48845 1.00052 0.0435 0.0
H2975 H 0.45554 0.99629 0.04208 0.0
H2976 H 0.43112 1.00019 0.98995 0.0
C2977 C 0.36476 0.98847 0.00299 0.0
C2978 C 0.40781 0.00826 0.03401 0.0
C2979 C 0.34636 0.97745 0.00261 0.0
C2980 C 0.48248 0.00765 0.03325 0.0
C2981 C 0.46371 1.00539 0.03259 0.0
C2982 C 0.42473 1.00285 0.00223 0.0
C2983 C 0.3769 0.9895 0.01847 0.0
C2984 C 0.39695 0.99878 0.01803 0.0
C2985 C 0.45549 0.01444 0.01957 0.0
C2986 C 0.43548 0.01105 0.01853 0.0
H2987 H 0.34671 0.96184 0.04554 0.0
H2988 H 0.37892 0.98029 0.04599 0.0
H2989 H 0.39778 0.98917 0.9895 0.0
H2990 H 0.49337 0.03756 0.99861 0.0
H2991 H 0.46016 0.03292 0.99703 0.0
C2992 C 0.90448 0.61163 0.7562 0.0
C2993 C 0.89756 0.59761 0.76856 0.0
C2994 C 0.89257 0.61814 0.74478 0.0
C2995 C 0.84373 0.60552 0.72639 0.0
H2996 H 0.85568 0.66123 0.7209 0.0
C2997 C 0.7922 0.64842 0.71956 0.0
C2998 C 0.79679 0.66606 0.71101 0.0
C2999 C 0.80366 0.63641 0.71926 0.0
C3000 C 0.85232 0.64554 0.7218 0.0
H3001 H 0.87274 0.57974 0.77893 0.0
H3002 H 0.85197 0.59164 0.75947 0.0
H3003 H 0.87808 0.64838 0.73649 0.0
H3004 H 0.81541 0.68322 0.69297 0.0
H3005 H 0.83571 0.66238 0.69285 0.0
H3006 H 0.81745 0.60302 0.71265 0.0
C3007 C 0.86658 0.59717 0.7582 0.0
C3008 C 0.86516 0.63817 0.73085 0.0
C3009 C 0.87849 0.59054 0.76953 0.0
C3010 C 0.81179 0.67005 0.70016 0.0
C3011 C 0.82338 0.6581 0.70003 0.0
C3012 C 0.83082 0.61293 0.71742 0.0
C3013 C 0.87348 0.6109 0.74556 0.0
C3014 C 0.86078 0.61818 0.73379 0.0
C3015 C 0.81999 0.64184 0.71051 0.0
C3016 C 0.83479 0.63312 0.71559 0.0
H3017 H 0.9191 0.61724 0.75499 0.0
H3018 H 0.89833 0.62862 0.73511 0.0
H3019 H 0.84013 0.58996 0.72803 0.0
H3020 H 0.78086 0.64481 0.72813 0.0
H3021 H 0.80068 0.62401 0.72752 0.0
C3022 C 0.87089 0.67925 0.03498 0.0
C3023 C 0.85254 0.67139 0.02778 0.0
C3024 C 0.88271 0.66754 0.03532 0.0
C3025 C 0.88211 0.61571 0.03404 0.0
H3026 H 0.93263 0.63594 0.02243 0.0
C3027 C 0.92874 0.56607 0.02388 0.0
C3028 C 0.94693 0.57317 0.03173 0.0
C3029 C 0.9174 0.57826 0.02352 0.0
C3030 C 0.91861 0.63016 0.0259 0.0
H3031 H 0.83229 0.64521 0.01491 0.0
H3032 H 0.85293 0.62492 0.01529 0.0
H3033 H 0.91256 0.65698 0.0213 0.0
H3034 H 0.96739 0.59857 0.04559 0.0
H3035 H 0.94758 0.61988 0.04488 0.0
H3036 H 0.88812 0.58888 0.03856 0.0
C3037 C 0.85812 0.64001 0.02098 0.0
C3038 C 0.90712 0.6422 0.02526 0.0
C3039 C 0.84632 0.65169 0.02067 0.0
C3040 C 0.95352 0.59274 0.03921 0.0
C3041 C 0.94219 0.60494 0.03881 0.0
C3042 C 0.89358 0.60367 0.03464 0.0
C3043 C 0.8764 0.64775 0.02845 0.0
C3044 C 0.88872 0.63509 0.02927 0.0
C3045 C 0.924 0.59783 0.03097 0.0
C3046 C 0.91193 0.61074 0.03053 0.0
H3047 H 0.87609 0.69437 0.04059 0.0
H3048 H 0.89667 0.67388 0.04132 0.0
H3049 H 0.86811 0.6099 0.03754 0.0
H3050 H 0.92334 0.55118 0.01771 0.0
H3051 H 0.90353 0.57244 0.01713 0.0
C3052 C 0.20475 0.07412 0.81499 0.0
C3053 C 0.18553 0.06895 0.81212 0.0
C3054 C 0.21534 0.09363 0.81494 0.0
C3055 C 0.21249 0.14481 0.81677 0.0
H3056 H 0.25697 0.15418 0.79154 0.0
C3057 C 0.24903 0.21884 0.7894 0.0
C3058 C 0.26826 0.22562 0.79252 0.0
C3059 C 0.23939 0.20015 0.79383 0.0
C3060 C 0.2447 0.15179 0.79882 0.0
H3061 H 0.1623 0.08019 0.80732 0.0
H3062 H 0.18075 0.11411 0.80667 0.0
H3063 H 0.23927 0.12071 0.79573 0.0
H3064 H 0.29244 0.21822 0.80288 0.0
H3065 H 0.27555 0.18544 0.81038 0.0
H3066 H 0.21769 0.176 0.81918 0.0
C3067 C 0.18768 0.10321 0.80938 0.0
C3068 C 0.23458 0.13261 0.8013 0.0
C3069 C 0.17709 0.08373 0.80963 0.0
C3070 C 0.27763 0.21341 0.80031 0.0
C3071 C 0.268 0.19463 0.80453 0.0
C3072 C 0.22253 0.16399 0.8141 0.0
C3073 C 0.20696 0.10838 0.8118 0.0
C3074 C 0.21826 0.12887 0.81018 0.0
C3075 C 0.2488 0.18782 0.80128 0.0
C3076 C 0.23865 0.16763 0.80498 0.0
H3077 H 0.21165 0.06307 0.81715 0.0
H3078 H 0.23012 0.09712 0.81723 0.0
H3079 H 0.20017 0.1425 0.82395 0.0
H3080 H 0.24141 0.22795 0.78353 0.0
H3081 H 0.2246 0.19517 0.79104 0.0
C3082 C 0.38908 0.99379 0.29157 0.0
C3083 C 0.39381 1.00192 0.27497 0.0
C3084 C 0.37922 0.97404 0.29171 0.0
C3085 C 0.34941 0.9316 0.26217 0.0
H3086 H 0.36425 0.90142 0.29906 0.0
C3087 C 0.3236 0.84721 0.25803 0.0
C3088 C 0.31886 0.83839 0.27433 0.0
C3089 C 0.33212 0.86734 0.25839 0.0
C3090 C 0.35979 0.9097 0.28881 0.0
H3091 H 0.39177 0.99572 0.24549 0.0
H3092 H 0.37477 0.96119 0.24577 0.0
H3093 H 0.3802 0.93628 0.29911 0.0
H3094 H 0.31928 0.84385 0.30378 0.0
H3095 H 0.33411 0.87903 0.30435 0.0
H3096 H 0.32912 0.90494 0.25177 0.0
C3097 C 0.37847 0.97016 0.25866 0.0
C3098 C 0.36892 0.92967 0.28884 0.0
C3099 C 0.38831 0.98992 0.25851 0.0
C3100 C 0.32279 0.85017 0.29098 0.0
C3101 C 0.33136 0.87031 0.29133 0.0
C3102 C 0.3403 0.91161 0.26212 0.0
C3103 C 0.37389 0.96197 0.27527 0.0
C3104 C 0.36388 0.94084 0.27547 0.0
C3105 C 0.33613 0.8791 0.27504 0.0
C3106 C 0.34545 0.90043 0.27539 0.0
H3107 H 0.39303 1.00265 0.30449 0.0
H3108 H 0.37568 0.96826 0.30472 0.0
H3109 H 0.345 0.93985 0.25187 0.0
H3110 H 0.32079 0.83858 0.24496 0.0
H3111 H 0.33583 0.87365 0.24563 0.0
C3112 C 0.57238 0.34558 0.59495 0.0
C3113 C 0.58097 0.34872 0.61283 0.0
C3114 C 0.57011 0.36134 0.58571 0.0
C3115 C 0.58684 0.4153 0.58572 0.0
H3116 H 0.53874 0.40954 0.56153 0.0
C3117 C 0.56444 0.48146 0.56363 0.0
C3118 C 0.554 0.47922 0.54674 0.0
C3119 C 0.56837 0.46537 0.57084 0.0
C3120 C 0.55233 0.41132 0.568 0.0
H3121 H 0.59439 0.37091 0.63482 0.0
H3122 H 0.59037 0.39831 0.61874 0.0
H3123 H 0.54495 0.38165 0.57513 0.0
H3124 H 0.53963 0.45828 0.52414 0.0
H3125 H 0.54662 0.43031 0.53666 0.0
H3126 H 0.5942 0.44501 0.5787 0.0
C3127 C 0.58549 0.38371 0.61181 0.0
C3128 C 0.55589 0.39533 0.57578 0.0
C3129 C 0.58768 0.36798 0.62106 0.0
C3130 C 0.54762 0.46053 0.53723 0.0
C3131 C 0.55156 0.44446 0.54444 0.0
C3132 C 0.58331 0.43129 0.57791 0.0
C3133 C 0.57648 0.38055 0.59412 0.0
C3134 C 0.57313 0.3972 0.58487 0.0
C3135 C 0.56197 0.44668 0.56133 0.0
C3136 C 0.56595 0.42953 0.5691 0.0
H3137 H 0.5671 0.33092 0.58821 0.0
H3138 H 0.5633 0.35848 0.572 0.0
H3139 H 0.60034 0.41711 0.59242 0.0
H3140 H 0.56959 0.49565 0.57132 0.0
H3141 H 0.57622 0.46753 0.584 0.0
C3142 C 0.43512 0.7332 0.39814 0.0
C3143 C 0.45251 0.74127 0.39185 0.0
C3144 C 0.41921 0.73309 0.38756 0.0
C3145 C 0.4016 0.73749 0.34056 0.0
H3146 H 0.36631 0.75799 0.36441 0.0
C3147 C 0.35052 0.76753 0.30025 0.0
C3148 C 0.3326 0.76388 0.30567 0.0
C3149 C 0.36386 0.76228 0.31084 0.0
C3150 C 0.37584 0.75191 0.35759 0.0
H3151 H 0.46683 0.75497 0.36929 0.0
H3152 H 0.43914 0.75472 0.35087 0.0
H3153 H 0.39194 0.75263 0.38271 0.0
H3154 H 0.31461 0.75176 0.32648 0.0
H3155 H 0.33798 0.74246 0.34495 0.0
H3156 H 0.38571 0.73703 0.31542 0.0
C3157 C 0.43777 0.74842 0.36393 0.0
C3158 C 0.39053 0.74884 0.36807 0.0
C3159 C 0.45365 0.74868 0.37455 0.0
C3160 C 0.32831 0.75482 0.32194 0.0
C3161 C 0.3417 0.74955 0.33256 0.0
C3162 C 0.3869 0.74048 0.3301 0.0
C3163 C 0.42041 0.74085 0.37041 0.0
C3164 C 0.40376 0.742 0.3596 0.0
C3165 C 0.35962 0.75321 0.3271 0.0
C3166 C 0.37409 0.74814 0.33845 0.0
H3167 H 0.43378 0.72737 0.41142 0.0
H3168 H 0.40599 0.72703 0.39282 0.0
H3169 H 0.41142 0.73188 0.33371 0.0
H3170 H 0.35433 0.77455 0.28784 0.0
H3171 H 0.37762 0.76565 0.30642 0.0
C3172 C 0.07872 0.74494 0.07767 0.0
C3173 C 0.07005 0.74864 0.09324 0.0
C3174 C 0.07669 0.72568 0.0708 0.0
C3175 C 0.04723 0.67482 0.07074 0.0
H3176 H 0.0913 0.66114 0.06012 0.0
C3177 C 0.04665 0.59444 0.05622 0.0
C3178 C 0.05733 0.59039 0.04246 0.0
C3179 C 0.04821 0.61379 0.06235 0.0
C3180 C 0.07882 0.66474 0.06278 0.0
H3181 H 0.05198 0.73507 0.11346 0.0
H3182 H 0.04834 0.70154 0.10137 0.0
H3183 H 0.09346 0.69494 0.07002 0.0
H3184 H 0.07806 0.60353 0.02437 0.0
H3185 H 0.08051 0.63717 0.03479 0.0
H3186 H 0.03253 0.64471 0.06334 0.0
C3187 C 0.05671 0.7135 0.09449 0.0
C3188 C 0.08007 0.68411 0.06845 0.0
C3189 C 0.05888 0.73272 0.10146 0.0
C3190 C 0.06971 0.60611 0.03508 0.0
C3191 C 0.07118 0.62544 0.04113 0.0
C3192 C 0.04595 0.65546 0.06492 0.0
C3193 C 0.06578 0.70978 0.07924 0.0
C3194 C 0.06431 0.68934 0.07257 0.0
C3195 C 0.06039 0.62954 0.05478 0.0
C3196 C 0.06174 0.65016 0.06094 0.0
H3197 H 0.08742 0.75688 0.07103 0.0
H3198 H 0.08368 0.72323 0.05891 0.0
H3199 H 0.03483 0.67848 0.07363 0.0
H3200 H 0.03699 0.58268 0.06222 0.0
H3201 H 0.0399 0.6164 0.0731 0.0
C3202 C 0.05749 0.27124 0.87309 0.0
C3203 C 0.0607 0.27408 0.89226 0.0
C3204 C 0.07209 0.27278 0.86214 0.0
C3205 C 0.12251 0.29298 0.86281 0.0
H3206 H 0.11702 0.25429 0.82181 0.0
C3207 C 0.18414 0.28459 0.82552 0.0
C3208 C 0.18194 0.28203 0.8063 0.0
C3209 C 0.16909 0.28375 0.8356 0.0
C3210 C 0.11869 0.26532 0.83308 0.0
H3211 H 0.08173 0.28089 0.91496 0.0
H3212 H 0.10711 0.28334 0.8959 0.0
H3213 H 0.09117 0.25297 0.84012 0.0
H3214 H 0.16217 0.27622 0.78259 0.0
H3215 H 0.13583 0.27493 0.80024 0.0
H3216 H 0.15006 0.30522 0.85588 0.0
C3217 C 0.09337 0.28019 0.8893 0.0
C3218 C 0.10389 0.26459 0.84356 0.0
C3219 C 0.07879 0.27867 0.90024 0.0
C3220 C 0.16431 0.2784 0.79738 0.0
C3221 C 0.14922 0.27749 0.80749 0.0
C3222 C 0.1373 0.29369 0.85237 0.0
C3223 C 0.09018 0.27718 0.87014 0.0
C3224 C 0.10567 0.27835 0.85861 0.0
C3225 C 0.15148 0.2803 0.8267 0.0
C3226 C 0.13559 0.27979 0.83747 0.0
H3227 H 0.04371 0.26775 0.86652 0.0
H3228 H 0.06921 0.27063 0.84741 0.0
H3229 H 0.12423 0.304 0.87412 0.0
H3230 H 0.19759 0.28763 0.83278 0.0
H3231 H 0.17123 0.28575 0.8504 0.0
C3232 C 0.55742 0.71545 0.92435 0.0
C3233 C 0.54023 0.71741 0.91802 0.0
C3234 C 0.55872 0.69946 0.93446 0.0
C3235 C 0.53051 0.65943 0.96185 0.0
H3236 H 0.56961 0.63574 0.95592 0.0
C3237 C 0.5392 0.59699 0.00745 0.0
C3238 C 0.54576 0.58193 -0.00017 0.0
C3239 C 0.53893 0.61354 0.99785 0.0
C3240 C 0.55846 0.64198 0.95778 0.0
H3241 H 0.51093 0.70342 0.91784 0.0
H3242 H 0.51316 0.67622 0.9351 0.0
H3243 H 0.56861 0.66386 0.93899 0.0
H3244 H 0.55719 0.57315 0.97559 0.0
H3245 H 0.5567 0.60162 0.95905 0.0
H3246 H 0.5202 0.6375 0.98043 0.0
C3247 C 0.52578 0.68701 0.93252 0.0
C3248 C 0.55801 0.65846 0.94811 0.0
C3249 C 0.5245 0.70278 0.92236 0.0
C3250 C 0.55205 0.58423 0.98215 0.0
C3251 C 0.55188 0.60084 0.97261 0.0
C3252 C 0.53104 0.64309 0.97161 0.0
C3253 C 0.54289 0.68486 0.93884 0.0
C3254 C 0.54393 0.66752 0.94978 0.0
C3255 C 0.5453 0.61593 0.98019 0.0
C3256 C 0.54496 0.63385 0.96977 0.0
H3257 H 0.56993 0.7262 0.92139 0.0
H3258 H 0.57223 0.69871 0.93904 0.0
H3259 H 0.51949 0.66582 0.96395 0.0
H3260 H 0.53427 0.59606 0.02096 0.0
H3261 H 0.53394 0.62467 0.00453 0.0
C3262 C 0.11916 0.79321 0.67605 0.0
C3263 C 0.10313 0.79083 0.68546 0.0
C3264 C 0.13606 0.79287 0.68483 0.0
C3265 C 0.15804 0.77786 0.72732 0.0
H3266 H 0.20302 0.80821 0.70877 0.0
C3267 C 0.23043 0.76833 0.75147 0.0
C3268 C 0.24657 0.7843 0.75181 0.0
C3269 C 0.21308 0.76946 0.74425 0.0
C3270 C 0.19075 0.79967 0.7144 0.0
H3271 H 0.09316 0.78614 0.71224 0.0
H3272 H 0.12264 0.78564 0.72767 0.0
H3273 H 0.1736 0.81011 0.69577 0.0
H3274 H 0.25631 0.81423 0.74454 0.0
H3275 H 0.22651 0.81627 0.73224 0.0
H3276 H 0.17533 0.76767 0.74617 0.0
C3277 C 0.12203 0.7877 0.7132 0.0
C3278 C 0.17355 0.80057 0.70664 0.0
C3279 C 0.10496 0.78814 0.70433 0.0
C3280 C 0.24448 0.80148 0.7446 0.0
C3281 C 0.22715 0.80259 0.73734 0.0
C3282 C 0.1753 0.7769 0.73505 0.0
C3283 C 0.13806 0.79009 0.70363 0.0
C3284 C 0.15668 0.7896 0.71277 0.0
C3285 C 0.21094 0.7866 0.73692 0.0
C3286 C 0.19216 0.78774 0.72877 0.0
H3287 H 0.11872 0.79522 0.66156 0.0
H3288 H 0.14756 0.79441 0.67657 0.0
H3289 H 0.14569 0.76901 0.73259 0.0
H3290 H 0.23114 0.75476 0.75677 0.0
H3291 H 0.20136 0.75659 0.74415 0.0
C3292 C 0.04998 0.34952 0.40436 0.0
C3293 C 0.05258 0.33294 0.41232 0.0
C3294 C 0.04974 0.36648 0.41505 0.0
C3295 C 0.06191 0.39302 0.4625 0.0
H3296 H 0.03079 0.42301 0.44395 0.0
C3297 C 0.05193 0.46098 0.50577 0.0
C3298 C 0.0493 0.47691 0.49665 0.0
C3299 C 0.05244 0.44348 0.49601 0.0
C3300 C 0.03981 0.4151 0.44936 0.0
H3301 H 0.05715 0.32187 0.43841 0.0
H3302 H 0.05659 0.3514 0.45717 0.0
H3303 H 0.03132 0.39303 0.42684 0.0
H3304 H 0.04531 0.48636 0.46965 0.0
H3305 H 0.04631 0.45623 0.45277 0.0
H3306 H 0.07029 0.41517 0.48512 0.0
C3307 C 0.05488 0.3513 0.44242 0.0
C3308 C 0.04013 0.39766 0.43942 0.0
C3309 C 0.05514 0.33419 0.43161 0.0
C3310 C 0.04727 0.47458 0.47734 0.0
C3311 C 0.04774 0.45706 0.46757 0.0
C3312 C 0.06157 0.4105 0.47249 0.0
C3313 C 0.05201 0.3678 0.43434 0.0
C3314 C 0.05129 0.38625 0.44563 0.0
C3315 C 0.0503 0.44105 0.47667 0.0
C3316 C 0.05059 0.42204 0.46609 0.0
H3317 H 0.04807 0.3495 0.38962 0.0
H3318 H 0.04795 0.37872 0.40799 0.0
H3319 H 0.07089 0.38505 0.46787 0.0
H3320 H 0.05354 0.46195 0.52058 0.0
H3321 H 0.05422 0.43168 0.50376 0.0
C3322 C 0.47122 0.26084 0.18663 0.0
C3323 C 0.48775 0.27646 0.18956 0.0
C3324 C 0.45521 0.26105 0.19527 0.0
C3325 C 0.43168 0.29432 0.21976 0.0
H3326 H 0.3989 0.24528 0.23212 0.0
C3327 C 0.36447 0.29266 0.2569 0.0
C3328 C 0.3492 0.2756 0.25543 0.0
C3329 C 0.3813 0.29288 0.24954 0.0
C3330 C 0.40753 0.25922 0.22859 0.0
H3331 H 0.49956 0.30487 0.20448 0.0
H3332 H 0.47166 0.30537 0.2195 0.0
H3333 H 0.4274 0.24574 0.21893 0.0
H3334 H 0.34046 0.24525 0.24445 0.0
H3335 H 0.36919 0.24565 0.23136 0.0
H3336 H 0.41172 0.3078 0.22909 0.0
C3337 C 0.47115 0.29274 0.21034 0.0
C3338 C 0.42424 0.25948 0.22093 0.0
C3339 C 0.48739 0.29241 0.20177 0.0
C3340 C 0.35167 0.25874 0.24615 0.0
C3341 C 0.36849 0.259 0.23863 0.0
C3342 C 0.41487 0.29404 0.22729 0.0
C3343 C 0.4546 0.27701 0.2073 0.0
C3344 C 0.43679 0.27702 0.21623 0.0
C3345 C 0.38386 0.2761 0.24009 0.0
C3346 C 0.40222 0.27646 0.23192 0.0
H3347 H 0.47052 0.24819 0.17739 0.0
H3348 H 0.44305 0.24868 0.19208 0.0
H3349 H 0.44051 0.3082 0.21628 0.0
H3350 H 0.3635 0.30605 0.2639 0.0
H3351 H 0.39242 0.3064 0.25156 0.0
C3352 C 0.66628 0.52175 0.37704 0.0
C3353 C 0.65766 0.50821 0.36216 0.0
C3354 C 0.65808 0.52149 0.39349 0.0
C3355 C 0.62425 0.49285 0.42173 0.0
H3356 H 0.61476 0.54223 0.43479 0.0
C3357 C 0.59205 0.51218 0.48788 0.0
C3358 C 0.5764 0.51834 0.48416 0.0
C3359 C 0.60287 0.50966 0.47381 0.0
C3360 C 0.61743 0.52842 0.43133 0.0
H3361 H 0.63438 0.48291 0.35325 0.0
H3362 H 0.62018 0.48231 0.38226 0.0
H3363 H 0.63312 0.53963 0.40919 0.0
H3364 H 0.55979 0.5267 0.46292 0.0
H3365 H 0.57905 0.52284 0.43849 0.0
H3366 H 0.60845 0.48172 0.44399 0.0
C3367 C 0.6332 0.49318 0.38104 0.0
C3368 C 0.62798 0.52696 0.41682 0.0
C3369 C 0.64127 0.4936 0.36445 0.0
C3370 C 0.57174 0.52189 0.46617 0.0
C3371 C 0.58275 0.51976 0.45223 0.0
C3372 C 0.61395 0.49444 0.43654 0.0
C3373 C 0.64128 0.50749 0.39547 0.0
C3374 C 0.63129 0.50912 0.41176 0.0
C3375 C 0.5984 0.51368 0.45595 0.0
C3376 C 0.61026 0.51216 0.44122 0.0
H3377 H 0.67894 0.53315 0.37574 0.0
H3378 H 0.66458 0.53259 0.40451 0.0
H3379 H 0.62665 0.47896 0.41802 0.0
H3380 H 0.59588 0.50924 0.50163 0.0
H3381 H 0.61495 0.50501 0.47693 0.0
C3382 C 0.28587 0.88053 0.04314 0.0
C3383 C 0.30082 0.88766 0.03271 0.0
C3384 C 0.28721 0.86888 0.0574 0.0
C3385 C 0.31472 0.83874 0.07695 0.0
H3386 H 0.29379 0.84999 0.12162 0.0
C3387 C 0.32899 0.80962 0.14676 0.0
C3388 C 0.31391 0.80335 0.15725 0.0
C3389 C 0.32725 0.81853 0.1306 0.0
C3390 C 0.29953 0.84652 0.10918 0.0
H3391 H 0.32878 0.8878 0.02877 0.0
H3392 H 0.33124 0.86776 0.05393 0.0
H3393 H 0.29098 0.86808 0.0952 0.0
H3394 H 0.28494 0.80043 0.15849 0.0
H3395 H 0.28195 0.81605 0.13041 0.0
H3396 H 0.32353 0.81736 0.09123 0.0
C3397 C 0.31838 0.87093 0.0509 0.0
C3398 C 0.29788 0.85685 0.09401 0.0
C3399 C 0.317 0.88249 0.03654 0.0
C3400 C 0.29692 0.80552 0.15092 0.0
C3401 C 0.29519 0.81443 0.13484 0.0
C3402 C 0.31644 0.82844 0.09221 0.0
C3403 C 0.30357 0.86421 0.06165 0.0
C3404 C 0.30537 0.85304 0.07768 0.0
C3405 C 0.3104 0.82133 0.12468 0.0
C3406 C 0.30877 0.83217 0.10843 0.0
H3407 H 0.27316 0.88412 0.04043 0.0
H3408 H 0.27542 0.86362 0.06517 0.0
H3409 H 0.32049 0.83533 0.06452 0.0
H3410 H 0.34229 0.80826 0.15136 0.0
H3411 H 0.33922 0.82382 0.12309 0.0
C3412 C 0.95435 0.56911 0.85415 0.0
C3413 C 0.95843 0.5604 0.83795 0.0
C3414 C 0.96623 0.57205 0.87004 0.0
C3415 C 1.00166 0.55217 0.89031 0.0
H3416 H 1.00916 0.59527 0.92752 0.0
C3417 C 0.04509 0.55494 0.95701 0.0
C3418 C 0.036 0.55697 0.97272 0.0
C3419 C 0.03868 0.55947 0.94013 0.0
C3420 C 1.00721 0.5832 0.91719 0.0
H3421 H 0.97864 0.54917 0.82522 0.0
H3422 H 0.99954 0.5548 0.85264 0.0
H3423 H 0.99184 0.59539 0.89835 0.0
H3424 H 0.01391 0.56673 0.98335 0.0
H3425 H 1.00266 0.57442 0.95386 0.0
H3426 H 0.01666 0.53978 0.90914 0.0
C3427 C 0.98692 0.55874 0.85337 0.0
C3428 C 0.99724 0.58321 0.90056 0.0
C3429 C 0.97496 0.55555 0.83764 0.0
C3430 C 0.02113 0.56482 0.97146 0.0
C3431 C 0.01476 0.5694 0.95459 0.0
C3432 C 1.01168 0.55223 0.90681 0.0
C3433 C 0.98249 0.56654 0.86988 0.0
C3434 C 0.99416 0.56754 0.88704 0.0
C3435 C 0.02312 0.56618 0.93869 0.0
C3436 C 0.01434 0.56758 0.92051 0.0
H3437 H 0.9417 0.57303 0.85471 0.0
H3438 H 0.96234 0.57794 0.88258 0.0
H3439 H 0.99922 0.53964 0.8804 0.0
H3440 H 0.0567 0.54912 0.95755 0.0
H3441 H 0.04551 0.55711 0.92809 0.0
C3442 C 0.3011 0.24415 0.57697 0.0
C3443 C 0.30959 0.23004 0.5713 0.0
C3444 C 0.30102 0.24953 0.59561 0.0
C3445 C 0.30525 0.23041 0.64078 0.0
H3446 H 0.30905 0.28341 0.65958 0.0
C3447 C 0.30927 0.25317 0.71821 0.0
C3448 C 0.29871 0.26539 0.72361 0.0
C3449 C 0.31122 0.24926 0.69968 0.0
C3450 C 0.30782 0.2685 0.6545 0.0
H3451 H 0.32548 0.21126 0.58072 0.0
H3452 H 0.32567 0.22093 0.61308 0.0
H3453 H 0.31201 0.2765 0.62713 0.0
H3454 H 0.28189 0.28306 0.71367 0.0
H3455 H 0.28523 0.27612 0.68141 0.0
H3456 H 0.30105 0.22241 0.66813 0.0
C3457 C 0.31866 0.22748 0.6032 0.0
C3458 C 0.3095 0.26454 0.63591 0.0
C3459 C 0.31866 0.22204 0.58461 0.0
C3460 C 0.29012 0.27356 0.71003 0.0
C3461 C 0.29214 0.26972 0.69152 0.0
C3462 C 0.30363 0.23438 0.65936 0.0
C3463 C 0.30951 0.24097 0.60896 0.0
C3464 C 0.3082 0.24543 0.62881 0.0
C3465 C 0.30274 0.25756 0.68613 0.0
C3466 C 0.30482 0.25345 0.66642 0.0
H3467 H 0.29395 0.25055 0.56706 0.0
H3468 H 0.29373 0.25986 0.59956 0.0
H3469 H 0.3038 0.21545 0.63574 0.0
H3470 H 0.31617 0.24671 0.72829 0.0
H3471 H 0.31963 0.23999 0.69597 0.0
C3472 C 0.61384 0.51481 0.2651 0.0
C3473 C 0.61256 0.49622 0.27108 0.0
C3474 C 0.60031 0.51745 0.2528 0.0
C3475 C 0.56664 0.49191 0.21577 0.0
H3476 H 0.55251 0.53981 0.21982 0.0
C3477 C 0.52907 0.51569 0.15501 0.0
C3478 C 0.53815 0.53483 0.15076 0.0
C3479 C 0.533 0.50924 0.17197 0.0
C3480 C 0.55622 0.52631 0.21854 0.0
H3481 H 0.59591 0.46582 0.269 0.0
H3482 H 0.57222 0.47044 0.24708 0.0
H3483 H 0.56927 0.53116 0.24577 0.0
H3484 H 0.55796 0.56237 0.16142 0.0
H3485 H 0.56449 0.55129 0.19086 0.0
H3486 H 0.5544 0.48756 0.18822 0.0
C3487 C 0.58375 0.48294 0.25208 0.0
C3488 C 0.56581 0.52136 0.23337 0.0
C3489 C 0.59728 0.48031 0.26461 0.0
C3490 C 0.55043 0.54767 0.16426 0.0
C3491 C 0.55422 0.54128 0.1812 0.0
C3492 C 0.55704 0.49687 0.2009 0.0
C3493 C 0.58518 0.50156 0.24606 0.0
C3494 C 0.57177 0.50454 0.23188 0.0
C3495 C 0.54593 0.52186 0.18507 0.0
C3496 C 0.55239 0.51453 0.2019 0.0
H3497 H 0.62538 0.52742 0.26986 0.0
H3498 H 0.60199 0.53191 0.24817 0.0
H3499 H 0.57113 0.47891 0.21419 0.0
H3500 H 0.5193 0.50551 0.14506 0.0
H3501 H 0.52627 0.49425 0.17466 0.0
C3502 C 0.29589 0.92263 0.92844 0.0
C3503 C 0.28485 0.91465 0.9423 0.0
C3504 C 0.29481 0.91174 0.91174 0.0
C3505 C 0.28162 0.86038 0.89285 0.0
H3506 H 0.2876 0.88277 0.84605 0.0
C3507 C 0.27674 0.81239 0.8263 0.0
C3508 C 0.29083 0.81891 0.81471 0.0
C3509 C 0.27451 0.8248 0.84079 0.0
C3510 C 0.28601 0.87638 0.85906 0.0
H3511 H 0.26321 0.88955 0.94915 0.0
H3512 H 0.26103 0.87074 0.9199 0.0
H3513 H 0.28581 0.90335 0.87333 0.0
H3514 H 0.31326 0.84382 0.80885 0.0
H3515 H 0.30941 0.86548 0.83432 0.0
H3516 H 0.28195 0.8335 0.87871 0.0
C3517 C 0.27089 0.88518 0.92209 0.0
C3518 C 0.28499 0.88813 0.87465 0.0
C3519 C 0.27207 0.896 0.93881 0.0
C3520 C 0.30232 0.83832 0.81759 0.0
C3521 C 0.30005 0.85077 0.83209 0.0
C3522 C 0.28255 0.84866 0.8773 0.0
C3523 C 0.28258 0.89272 0.90855 0.0
C3524 C 0.28284 0.88025 0.89173 0.0
C3525 C 0.2863 0.84401 0.84399 0.0
C3526 C 0.2848 0.85653 0.86026 0.0
H3527 H 0.30588 0.93698 0.93073 0.0
H3528 H 0.30411 0.9179 0.90165 0.0
H3529 H 0.28041 0.85396 0.90585 0.0
H3530 H 0.26755 0.79758 0.82439 0.0
H3531 H 0.26363 0.8193 0.8496 0.0
C3532 C 0.9871 0.58398 0.76704 0.0
C3533 C 0.96817 0.57469 0.76338 0.0
C3534 C 0.99902 0.58425 0.75328 0.0
C3535 C 0.99954 0.57725 0.70315 0.0
H3536 H 0.03915 0.55453 0.71325 0.0
C3537 C 0.01929 0.5276 0.65121 0.0
C3538 C 0.03752 0.5326 0.64655 0.0
C3539 C 0.01458 0.53733 0.66622 0.0
C3540 C 0.02845 0.56136 0.71036 0.0
H3541 H 0.94679 0.55891 0.74243 0.0
H3542 H 0.96746 0.5594 0.71859 0.0
H3543 H 0.02354 0.56452 0.73864 0.0
H3544 H 0.06524 0.55127 0.65419 0.0
H3545 H 0.0569 0.56812 0.68111 0.0
H3546 H 1.00351 0.57274 0.67484 0.0
C3547 C 0.97314 0.56659 0.73197 0.0
C3548 C 0.01954 0.56708 0.72482 0.0
C3549 C 0.96131 0.56614 0.74569 0.0
C3550 C 0.05109 0.54717 0.65756 0.0
C3551 C 0.04638 0.55676 0.67286 0.0
C3552 C 1.00833 0.57145 0.68877 0.0
C3553 C 0.99211 0.5755 0.73564 0.0
C3554 C 1.00444 0.57419 0.72122 0.0
C3555 C 0.028 0.55215 0.67698 0.0
C3556 C 0.02227 0.56267 0.69224 0.0
H3557 H 0.99275 0.59066 0.78059 0.0
H3558 H 0.01361 0.59116 0.75643 0.0
H3559 H 0.98815 0.58303 0.70006 0.0
H3560 H 1.0085 0.51667 0.64281 0.0
H3561 H 1.00035 0.53343 0.66933 0.0
C3562 C 0.28691 0.22827 0.46756 0.0
C3563 C 0.30036 0.221 0.47593 0.0
C3564 C 0.28855 0.23457 0.44993 0.0
C3565 C 0.32143 0.24813 0.41407 0.0
H3566 H 0.27679 0.23317 0.38155 0.0
C3567 C 0.3184 0.27219 0.34018 0.0
C3568 C 0.30646 0.25888 0.32677 0.0
C3569 C 0.31866 0.26804 0.35855 0.0
C3570 C 0.28943 0.23729 0.39037 0.0
H3571 H 0.3264 0.21523 0.47253 0.0
H3572 H 0.32905 0.22579 0.44173 0.0
H3573 H 0.27538 0.22577 0.41333 0.0
H3574 H 0.28615 0.23036 0.32196 0.0
H3575 H 0.28699 0.22288 0.3538 0.0
H3576 H 0.33555 0.25901 0.39085 0.0
C3577 C 0.31736 0.22695 0.44884 0.0
C3578 C 0.28858 0.23334 0.40873 0.0
C3579 C 0.31579 0.22078 0.46651 0.0
C3580 C 0.29538 0.24101 0.33198 0.0
C3581 C 0.29575 0.23679 0.35029 0.0
C3582 C 0.3223 0.25199 0.39565 0.0
C3583 C 0.30362 0.23363 0.4402 0.0
C3584 C 0.30456 0.23865 0.42082 0.0
C3585 C 0.30709 0.25043 0.36388 0.0
C3586 C 0.30631 0.24651 0.38354 0.0
H3587 H 0.27493 0.22878 0.47449 0.0
H3588 H 0.27789 0.24001 0.44386 0.0
H3589 H 0.33399 0.25262 0.42303 0.0
H3590 H 0.32704 0.28615 0.33661 0.0
H3591 H 0.32746 0.27895 0.36864 0.0
C3592 C 0.35385 0.61426 0.50041 0.0
C3593 C 0.3441 0.60844 0.51572 0.0
C3594 C 0.36307 0.60226 0.49202 0.0
C3595 C 0.36505 0.55111 0.48805 0.0
H3596 H 0.41518 0.5746 0.47668 0.0
C3597 C 0.41909 0.51003 0.48557 0.0
C3598 C 0.43324 0.51571 0.47389 0.0
C3599 C 0.40546 0.51944 0.48602 0.0
C3600 C 0.40105 0.56781 0.47935 0.0
H3601 H 0.33651 0.58555 0.53433 0.0
H3602 H 0.35282 0.56483 0.51989 0.0
H3603 H 0.39711 0.59553 0.48706 0.0
H3604 H 0.44321 0.53433 0.45227 0.0
H3605 H 0.41935 0.55082 0.45307 0.0
H3606 H 0.36926 0.52334 0.48095 0.0
C3607 C 0.35306 0.57848 0.51415 0.0
C3608 C 0.39072 0.57983 0.48536 0.0
C3609 C 0.34388 0.59047 0.52255 0.0
C3610 C 0.43265 0.5299 0.46164 0.0
C3611 C 0.41902 0.53934 0.46211 0.0
C3612 C 0.37539 0.53909 0.48203 0.0
C3613 C 0.36268 0.58419 0.49875 0.0
C3614 C 0.37279 0.57158 0.49025 0.0
C3615 C 0.40571 0.53473 0.4748 0.0
C3616 C 0.39366 0.5473 0.47808 0.0
H3617 H 0.35421 0.62798 0.49476 0.0
H3618 H 0.37032 0.607 0.48012 0.0
H3619 H 0.35113 0.54437 0.49137 0.0
H3620 H 0.41925 0.4993 0.4953 0.0
H3621 H 0.39551 0.51567 0.49608 0.0
C3622 C 0.8562 0.93721 0.55082 0.0
C3623 C 0.84535 0.92322 0.53726 0.0
C3624 C 0.87371 0.94867 0.54748 0.0
C3625 C 0.91121 0.94968 0.5178 0.0
H3626 H 0.92941 1.0039 0.53773 0.0
C3627 C 0.98444 0.99899 0.508 0.0
C3628 C 0.99425 0.00878 0.52437 0.0
C3629 C 0.96551 0.98984 0.50747 0.0
C3630 C 0.9245 0.98877 0.53208 0.0
H3631 H 0.84427 0.91048 0.50945 0.0
H3632 H 0.8747 0.93066 0.50357 0.0
H3633 H 0.89766 0.98527 0.54091 0.0
H3634 H 0.99184 0.01727 0.55278 0.0
H3635 H 0.95901 1.00147 0.5518 0.0
H3636 H 0.93818 0.95318 0.50919 0.0
C3637 C 0.86981 0.93257 0.51688 0.0
C3638 C 0.90635 0.97807 0.53397 0.0
C3639 C 0.85232 0.92106 0.52024 0.0
C3640 C 0.98471 0.00977 0.53997 0.0
C3641 C 0.96585 1.00084 0.53939 0.0
C3642 C 0.92935 0.96042 0.51584 0.0
C3643 C 0.88074 0.94646 0.53048 0.0
C3644 C 0.89959 0.95828 0.52718 0.0
C3645 C 0.95607 0.99059 0.52322 0.0
C3646 C 0.93628 0.97996 0.52329 0.0
H3647 H 0.85126 0.93919 0.56409 0.0
H3648 H 0.88188 0.959 0.55837 0.0
H3649 H 0.90651 0.93441 0.51258 0.0
H3650 H 0.99144 0.99799 0.49576 0.0
H3651 H 0.95826 0.98211 0.4948 0.0
C3652 C 0.86842 0.06983 0.25857 0.0
C3653 C 0.88707 0.07607 0.26507 0.0
C3654 C 0.85587 0.07774 0.26674 0.0
C3655 C 0.84939 0.10642 0.30826 0.0
H3656 H 0.81514 0.12129 0.27515 0.0
C3657 C 0.81675 0.16771 0.32483 0.0
C3658 C 0.7995 0.16639 0.31604 0.0
C3659 C 0.82468 0.15261 0.32193 0.0
C3660 C 0.82428 0.11682 0.28466 0.0
H3661 H 0.90715 0.09539 0.28531 0.0
H3662 H 0.88528 0.10962 0.29926 0.0
H3663 H 0.83485 0.10329 0.26297 0.0
H3664 H 0.77626 0.14741 0.29879 0.0
H3665 H 0.78993 0.12086 0.2941 0.0
H3666 H 0.83921 0.12077 0.32988 0.0
C3667 C 0.88031 0.0983 0.2881 0.0
C3668 C 0.83565 0.10654 0.27765 0.0
C3669 C 0.89288 0.0903 0.27999 0.0
C3670 C 0.78956 0.14888 0.30577 0.0
C3671 C 0.79747 0.13375 0.30292 0.0
C3672 C 0.83801 0.11679 0.31529 0.0
C3673 C 0.86169 0.09217 0.2815 0.0
C3674 C 0.84856 0.10153 0.28932 0.0
C3675 C 0.81546 0.13589 0.31022 0.0
C3676 C 0.82557 0.12239 0.3035 0.0
H3677 H 0.86346 0.05872 0.24722 0.0
H3678 H 0.84157 0.07251 0.26149 0.0
H3679 H 0.85901 0.10247 0.31762 0.0
H3680 H 0.82458 0.18092 0.33308 0.0
H3681 H 0.83857 0.15471 0.32775 0.0
C3682 C 0.74915 0.08564 0.08186 0.0
C3683 C 0.75801 0.08975 0.06574 0.0
C3684 C 0.73042 0.07557 0.08092 0.0
C3685 C 0.69082 0.04599 0.04938 0.0
H3686 H 0.66316 0.07334 0.07763 0.0
C3687 C 0.6159 0.0414 0.02834 0.0
C3688 C 0.6039 0.04101 0.04213 0.0
C3689 C 0.63454 0.04413 0.0329 0.0
C3690 C 0.67064 0.06528 0.06989 0.0
H3691 H 0.75455 0.08538 0.03606 0.0
H3692 H 0.72201 0.06801 0.03445 0.0
H3693 H 0.69642 0.08273 0.08312 0.0
H3694 H 0.60195 0.04282 0.07153 0.0
H3695 H 0.63448 0.04754 0.07944 0.0
H3696 H 0.66502 0.02898 0.03572 0.0
C3697 C 0.72944 0.07245 0.04781 0.0
C3698 C 0.68971 0.07062 0.07308 0.0
C3699 C 0.74808 0.08258 0.04874 0.0
C3700 C 0.61087 0.0432 0.06057 0.0
C3701 C 0.6295 0.04593 0.06512 0.0
C3702 C 0.67174 0.04063 0.04619 0.0
C3703 C 0.7203 0.06931 0.06385 0.0
C3704 C 0.70003 0.06138 0.06253 0.0
C3705 C 0.64155 0.04652 0.05133 0.0
C3706 C 0.6615 0.05057 0.0561 0.0
H3707 H 0.75647 0.0909 0.09516 0.0
H3708 H 0.72374 0.07315 0.09351 0.0
H3709 H 0.69842 0.03843 0.04122 0.0
H3710 H 0.61094 0.03974 0.01401 0.0
H3711 H 0.64353 0.04483 0.02197 0.0
C3712 C 0.21442 0.48085 0.24831 0.0
C3713 C 0.1968 0.47323 0.25424 0.0
C3714 C 0.22941 0.47628 0.25665 0.0
C3715 C 0.24489 0.45758 0.29857 0.0
H3716 H 0.27637 0.43936 0.26693 0.0
C3717 C 0.28193 0.40193 0.31732 0.0
C3718 C 0.29798 0.40181 0.30905 0.0
C3719 C 0.27342 0.41631 0.31392 0.0
C3720 C 0.26808 0.44491 0.27605 0.0
H3721 H 0.18105 0.45478 0.27348 0.0
H3722 H 0.20716 0.44656 0.28781 0.0
H3723 H 0.2534 0.4531 0.2537 0.0
H3724 H 0.31872 0.41769 0.29221 0.0
H3725 H 0.30406 0.44309 0.2866 0.0
H3726 H 0.25915 0.44865 0.32086 0.0
C3727 C 0.20943 0.45634 0.27694 0.0
C3728 C 0.25484 0.4527 0.26843 0.0
C3729 C 0.19444 0.46086 0.26858 0.0
C3730 C 0.30635 0.4174 0.29877 0.0
C3731 C 0.29786 0.43184 0.29541 0.0
C3732 C 0.25819 0.44982 0.30622 0.0
C3733 C 0.22707 0.46406 0.27111 0.0
C3734 C 0.24274 0.45852 0.27954 0.0
C3735 C 0.28086 0.43088 0.30222 0.0
C3736 C 0.26952 0.44282 0.29495 0.0
H3737 H 0.21669 0.49052 0.23735 0.0
H3738 H 0.24287 0.48246 0.25192 0.0
H3739 H 0.23594 0.46233 0.30748 0.0
H3740 H 0.27537 0.39026 0.32557 0.0
H3741 H 0.26031 0.41509 0.31934 0.0
C3742 C 0.25318 0.41918 0.03316 0.0
C3743 C 0.24597 0.39866 0.03183 0.0
C3744 C 0.24152 0.43103 0.03277 0.0
C3745 C 0.19451 0.43024 0.01743 0.0
H3746 H 0.20541 0.47763 0.05008 0.0
C3747 C 0.14438 0.47671 0.02203 0.0
C3748 C 0.15199 0.49718 0.02293 0.0
C3749 C 0.15567 0.46457 0.02381 0.0
C3750 C 0.20228 0.46454 0.04074 0.0
H3751 H 0.22082 0.37449 0.02922 0.0
H3752 H 0.20043 0.39518 0.02861 0.0
H3753 H 0.22541 0.45657 0.05194 0.0
H3754 H 0.17743 0.52095 0.02677 0.0
H3755 H 0.19717 0.49972 0.02953 0.0
H3756 H 0.17149 0.43826 0.00611 0.0
C3757 C 0.21514 0.40209 0.02977 0.0
C3758 C 0.21373 0.45248 0.04183 0.0
C3759 C 0.22681 0.39023 0.03022 0.0
C3760 C 0.17115 0.50523 0.02583 0.0
C3761 C 0.18245 0.49307 0.02761 0.0
C3762 C 0.18308 0.44231 0.01632 0.0
C3763 C 0.22236 0.42261 0.03099 0.0
C3764 C 0.20999 0.43522 0.03014 0.0
C3765 C 0.17484 0.47259 0.02653 0.0
C3766 C 0.18686 0.45963 0.02794 0.0
H3767 H 0.2679 0.42616 0.0344 0.0
H3768 H 0.2475 0.44678 0.03352 0.0
H3769 H 0.19142 0.41719 0.00804 0.0
H3770 H 0.12969 0.47002 0.01961 0.0
H3771 H 0.14936 0.44886 0.02312 0.0
C3772 C 0.89785 0.96738 0.20263 0.0
C3773 C 0.88983 0.98162 0.20908 0.0
C3774 C 0.88872 0.94747 0.20322 0.0
C3775 C 0.84434 0.91204 0.21215 0.0
H3776 H 0.87561 0.88694 0.23862 0.0
C3777 C 0.81603 0.85071 0.25853 0.0
C3778 C 0.82355 0.83497 0.25861 0.0
C3779 C 0.82377 0.86688 0.24892 0.0
C3780 C 0.86673 0.89354 0.23092 0.0
H3781 H 0.8653 0.98621 0.2195 0.0
H3782 H 0.84952 0.95164 0.22068 0.0
H3783 H 0.88925 0.91798 0.226 0.0
H3784 H 0.84517 0.8239 0.24869 0.0
H3785 H 0.85868 0.85222 0.23194 0.0
H3786 H 0.82174 0.8879 0.21775 0.0
C3787 C 0.8628 0.95573 0.21515 0.0
C3788 C 0.87455 0.91131 0.22361 0.0
C3789 C 0.87192 0.97558 0.21461 0.0
C3790 C 0.8391 0.83584 0.24902 0.0
C3791 C 0.84685 0.85205 0.2394 0.0
C3792 C 0.83651 0.89427 0.21947 0.0
C3793 C 0.87141 0.94151 0.21017 0.0
C3794 C 0.86339 0.92103 0.21462 0.0
C3795 C 0.83919 0.86768 0.23917 0.0
C3796 C 0.84759 0.88515 0.2294 0.0
H3797 H 0.91159 0.97158 0.19813 0.0
H3798 H 0.89556 0.93679 0.19903 0.0
H3799 H 0.83543 0.91908 0.20506 0.0
H3800 H 0.80405 0.8505 0.26577 0.0
H3801 H 0.81778 0.87889 0.2493 0.0
C3802 C 0.66181 0.07161 0.74068 0.0
C3803 C 0.66788 0.05887 0.72901 0.0
C3804 C 0.67186 0.09137 0.74378 0.0
C3805 C 0.706 0.13152 0.72601 0.0
H3806 H 0.72121 0.14951 0.77705 0.0
C3807 C 0.76218 0.20411 0.74657 0.0
C3808 C 0.76044 0.2155 0.76224 0.0
C3809 C 0.75039 0.18518 0.74248 0.0
C3810 C 0.71686 0.1449 0.76275 0.0
H3811 H 0.68857 0.05703 0.71063 0.0
H3812 H 0.70589 0.09176 0.71574 0.0
H3813 H 0.70042 0.11667 0.76903 0.0
H3814 H 0.74509 0.21601 0.78601 0.0
H3815 H 0.72405 0.18316 0.77859 0.0
H3816 H 0.72205 0.15977 0.71962 0.0
C3817 C 0.69347 0.08635 0.72259 0.0
C3818 C 0.70499 0.12606 0.75818 0.0
C3819 C 0.6836 0.0665 0.71971 0.0
C3820 C 0.74683 0.20749 0.7739 0.0
C3821 C 0.73481 0.18863 0.76966 0.0
C3822 C 0.71764 0.15048 0.73057 0.0
C3823 C 0.68795 0.0988 0.73503 0.0
C3824 C 0.69961 0.11916 0.73977 0.0
C3825 C 0.73636 0.17728 0.75381 0.0
C3826 C 0.72341 0.15734 0.749 0.0
H3827 H 0.64979 0.06616 0.74809 0.0
H3828 H 0.66727 0.10076 0.75332 0.0
H3829 H 0.70191 0.12654 0.71172 0.0
H3830 H 0.77268 0.20983 0.73742 0.0
H3831 H 0.75234 0.17673 0.73044 0.0
loop_
_geom_bond_atom_site_label_1
_geom_bond_atom_site_label_2
_geom_bond_distance
_geom_bond_site_symmetry_2
_ccdc_geom_bond_type
C0 O1 1.160 . S
C0 O7 1.185 . S
O1 C0 1.160 . S
O2 Zn3 1.899 . S
O2 C10 1.284 . S
Zn3 O2 1.899 . S
Zn3 O4 2.032 . S
Zn3 O7 2.086 . S
Zn3 O12 1.977 . S
O4 Zn3 2.032 . S
O4 C8 1.278 . S
C5 O6 1.203 . S
C5 O12 1.267 1_655 S
O6 C5 1.203 . S
O7 C0 1.185 . S
O7 Zn3 2.086 . S
C8 O4 1.278 . S
C8 O9 1.211 . S
O9 C8 1.211 . S
C10 O2 1.284 . S
C10 O11 1.273 . S
O11 C10 1.273 . S
O12 Zn3 1.977 . S
O12 C5 1.267 1_455 S
C13 O14 1.160 1_455 S
C13 O20 1.185 . S
O14 C13 1.160 1_655 S
O15 Zn16 1.899 . S
O15 C23 1.284 . S
Zn16 O15 1.899 . S
Zn16 O17 2.032 . S
Zn16 O20 2.086 . S
Zn16 O25 1.977 . S
O17 Zn16 2.032 . S
O17 C21 1.278 . S
C18 O19 1.203 . S
C18 O25 1.267 . S
O19 C18 1.203 . S
O20 C13 1.185 . S
O20 Zn16 2.086 . S
C21 O17 1.278 . S
C21 O22 1.211 . S
O22 C21 1.211 . S
C23 O15 1.284 . S
C23 O24 1.273 . S
O24 C23 1.273 . S
O25 Zn16 1.977 . S
O25 C18 1.267 . S
C26 O27 1.160 . S
C26 O33 1.185 . S
O27 C26 1.160 . S
O28 Zn29 1.899 . S
O28 C36 1.284 . S
Zn29 O28 1.899 . S
Zn29 O30 2.032 . S
Zn29 O33 2.086 . S
Zn29 O38 1.977 . S
O30 Zn29 2.032 . S
O30 C34 1.278 . S
C31 O32 1.203 . S
C31 O38 1.267 . S
O32 C31 1.203 . S
O33 C26 1.185 . S
O33 Zn29 2.086 . S
C34 O30 1.278 . S
C34 O35 1.211 . S
O35 C34 1.211 . S
C36 O28 1.284 . S
C36 O37 1.273 . S
O37 C36 1.273 . S
O38 Zn29 1.977 . S
O38 C31 1.267 . S
C39 O40 1.160 . S
C39 O46 1.185 . S
O40 C39 1.160 . S
O41 Zn42 1.899 . S
O41 C49 1.284 . S
Zn42 O41 1.899 . S
Zn42 O43 2.032 . S
Zn42 O46 2.086 . S
Zn42 O51 1.977 . S
O43 Zn42 2.032 . S
O43 C47 1.278 . S
C44 O45 1.203 . S
C44 O51 1.267 . S
O45 C44 1.203 . S
O46 C39 1.185 . S
O46 Zn42 2.086 . S
C47 O43 1.278 . S
C47 O48 1.211 . S
O48 C47 1.211 . S
C49 O41 1.284 . S
C49 O50 1.273 . S
O50 C49 1.273 . S
O51 Zn42 1.977 . S
O51 C44 1.267 . S
C52 O53 1.160 . S
C52 O59 1.185 . S
O53 C52 1.160 . S
O54 Zn55 1.899 . S
O54 C62 1.284 . S
Zn55 O54 1.899 . S
Zn55 O56 2.032 . S
Zn55 O59 2.086 . S
Zn55 O64 1.977 . S
O56 Zn55 2.032 . S
O56 C60 1.278 . S
C57 O58 1.203 . S
C57 O64 1.267 . S
O58 C57 1.203 . S
O59 C52 1.185 . S
O59 Zn55 2.086 . S
C60 O56 1.278 . S
C60 O61 1.211 . S
O61 C60 1.211 . S
C62 O54 1.284 . S
C62 O63 1.273 . S
O63 C62 1.273 . S
O64 Zn55 1.977 . S
O64 C57 1.267 . S
C65 O66 1.160 . S
C65 O72 1.185 . S
O66 C65 1.160 . S
O67 Zn68 1.899 . S
O67 C75 1.284 . S
Zn68 O67 1.899 . S
Zn68 O69 2.032 . S
Zn68 O72 2.086 . S
Zn68 O77 1.977 . S
O69 Zn68 2.032 . S
O69 C73 1.278 . S
C70 O71 1.203 . S
C70 O77 1.267 . S
O71 C70 1.203 . S
O72 C65 1.185 . S
O72 Zn68 2.086 . S
C73 O69 1.278 . S
C73 O74 1.211 . S
O74 C73 1.211 . S
C75 O67 1.284 . S
C75 O76 1.273 . S
O76 C75 1.273 . S
O77 Zn68 1.977 . S
O77 C70 1.267 . S
C78 O79 1.160 . S
C78 O85 1.185 . S
O79 C78 1.160 . S
O80 Zn81 1.899 . S
O80 C88 1.284 . S
Zn81 O80 1.899 . S
Zn81 O82 2.032 . S
Zn81 O85 2.086 . S
Zn81 O90 1.977 . S
O82 Zn81 2.032 . S
O82 C86 1.278 . S
C83 O84 1.203 . S
C83 O90 1.267 . S
O84 C83 1.203 . S
O85 C78 1.185 . S
O85 Zn81 2.086 . S
C86 O82 1.278 . S
C86 O87 1.211 . S
O87 C86 1.211 . S
C88 O80 1.284 . S
C88 O89 1.273 . S
O89 C88 1.273 . S
O90 Zn81 1.977 . S
O90 C83 1.267 . S
C91 O92 1.160 . S
C91 O98 1.185 . S
O92 C91 1.160 . S
O93 Zn94 1.899 1_655 S
O93 C101 1.284 . S
Zn94 O93 1.899 1_455 S
Zn94 O95 2.032 . S
Zn94 O98 2.086 . S
Zn94 O103 1.977 1_455 S
O95 Zn94 2.032 . S
O95 C99 1.278 . S
C96 O97 1.203 . S
C96 O103 1.267 . S
O97 C96 1.203 . S
O98 C91 1.185 . S
O98 Zn94 2.086 . S
C99 O95 1.278 . S
C99 O100 1.211 1_455 S
O100 C99 1.211 1_655 S
C101 O93 1.284 . S
C101 O102 1.273 . S
O102 C101 1.273 . S
O103 Zn94 1.977 1_655 S
O103 C96 1.267 . S
C104 O105 1.160 . S
C104 O111 1.185 . S
O105 C104 1.160 . S
O106 Zn107 1.899 . S
O106 C114 1.284 . S
Zn107 O106 1.899 . S
Zn107 O108 2.032 . S
Zn107 O111 2.086 . S
Zn107 O116 1.977 . S
O108 Zn107 2.032 . S
O108 C112 1.278 . S
C109 O110 1.203 . S
C109 O116 1.267 1_565 S
O110 C109 1.203 . S
O111 C104 1.185 . S
O111 Zn107 2.086 . S
C112 O108 1.278 . S
C112 O113 1.211 . S
O113 C112 1.211 . S
C114 O106 1.284 . S
C114 O115 1.273 . S
O115 C114 1.273 . S
O116 Zn107 1.977 . S
O116 C109 1.267 1_545 S
C117 O118 1.160 . S
C117 O124 1.185 . S
O118 C117 1.160 . S
O119 Zn120 1.899 . S
O119 C127 1.284 . S
Zn120 O119 1.899 . S
Zn120 O121 2.032 . S
Zn120 O124 2.086 . S
Zn120 O129 1.977 . S
O121 Zn120 2.032 . S
O121 C125 1.278 . S
C122 O123 1.203 . S
C122 O129 1.267 . S
O123 C122 1.203 . S
O124 C117 1.185 . S
O124 Zn120 2.086 . S
C125 O121 1.278 . S
C125 O126 1.211 . S
O126 C125 1.211 . S
C127 O119 1.284 . S
C127 O128 1.273 . S
O128 C127 1.273 . S
O129 Zn120 1.977 . S
O129 C122 1.267 . S
C130 O131 1.160 1_545 S
C130 O137 1.185 . S
O131 C130 1.160 1_565 S
O132 Zn133 1.899 . S
O132 C140 1.284 . S
Zn133 O132 1.899 . S
Zn133 O134 2.032 . S
Zn133 O137 2.086 . S
Zn133 O142 1.977 . S
O134 Zn133 2.032 . S
O134 C138 1.278 . S
C135 O136 1.203 . S
C135 O142 1.267 . S
O136 C135 1.203 . S
O137 C130 1.185 . S
O137 Zn133 2.086 . S
C138 O134 1.278 . S
C138 O139 1.211 . S
O139 C138 1.211 . S
C140 O132 1.284 . S
C140 O141 1.273 . S
O141 C140 1.273 . S
O142 Zn133 1.977 . S
O142 C135 1.267 . S
C143 O144 1.160 . S
C143 O150 1.185 1_554 S
O144 C143 1.160 . S
O145 Zn146 1.899 . S
O145 C153 1.284 . S
Zn146 O145 1.899 . S
Zn146 O147 2.032 1_554 S
Zn146 O150 2.086 1_554 S
Zn146 O155 1.971 1_554 S
O147 Zn146 2.032 1_556 S
O147 C151 1.278 . S
C148 O149 1.203 . S
C148 O155 1.259 1_554 S
O149 C148 1.203 . S
O150 C143 1.185 1_556 S
O150 Zn146 2.086 1_556 S
C151 O147 1.278 . S
C151 O152 1.211 . S
O152 C151 1.211 . S
C153 O145 1.284 . S
C153 O154 1.273 . S
O154 C153 1.273 . S
O155 Zn146 1.971 1_556 S
O155 C148 1.259 1_556 S
C156 O157 1.160 . S
C156 O163 1.185 . S
O157 C156 1.160 . S
O158 Zn159 1.899 . S
O158 C166 1.284 . S
Zn159 O158 1.899 . S
Zn159 O160 2.032 . S
Zn159 O163 2.086 . S
Zn159 O168 1.977 . S
O160 Zn159 2.032 . S
O160 C164 1.278 1_554 S
C161 O162 1.203 . S
C161 O168 1.267 . S
O162 C161 1.203 . S
O163 C156 1.185 . S
O163 Zn159 2.086 . S
C164 O160 1.278 1_556 S
C164 O165 1.211 . S
O165 C164 1.211 . S
C166 O158 1.284 . S
C166 O167 1.273 . S
O167 C166 1.273 . S
O168 Zn159 1.977 . S
O168 C161 1.267 . S
C169 O170 1.160 . S
C169 O176 1.185 . S
O170 C169 1.160 . S
O171 Zn172 1.899 . S
O171 C179 1.284 . S
Zn172 O171 1.899 . S
Zn172 O173 2.032 . S
Zn172 O176 2.086 . S
Zn172 O181 1.977 . S
O173 Zn172 2.032 . S
O173 C177 1.278 . S
C174 O175 1.203 . S
C174 O181 1.267 . S
O175 C174 1.203 . S
O176 C169 1.185 . S
O176 Zn172 2.086 . S
C177 O173 1.278 . S
C177 O178 1.211 . S
O178 C177 1.211 . S
C179 O171 1.284 . S
C179 O180 1.273 . S
O180 C179 1.273 . S
O181 Zn172 1.977 . S
O181 C174 1.267 . S
C182 O183 1.160 . S
C182 O189 1.185 . S
O183 C182 1.160 . S
O184 Zn185 1.899 . S
O184 C192 1.284 . S
Zn185 O184 1.899 . S
Zn185 O186 2.032 . S
Zn185 O189 2.086 . S
Zn185 O194 1.977 . S
O186 Zn185 2.032 . S
O186 C190 1.278 . S
C187 O188 1.203 . S
C187 O194 1.267 . S
O188 C187 1.203 . S
O189 C182 1.185 . S
O189 Zn185 2.086 . S
C190 O186 1.278 . S
C190 O191 1.211 . S
O191 C190 1.211 . S
C192 O184 1.284 . S
C192 O193 1.273 . S
O193 C192 1.273 . S
O194 Zn185 1.977 . S
O194 C187 1.267 . S
C195 O196 1.160 . S
C195 O202 1.185 . S
O196 C195 1.160 . S
O197 Zn198 1.899 . S
O197 C205 1.284 . S
Zn198 O197 1.899 . S
Zn198 O199 2.032 . S
Zn198 O202 2.086 . S
Zn198 O207 1.977 . S
O199 Zn198 2.032 . S
O199 C203 1.278 . S
C200 O201 1.203 . S
C200 O207 1.267 . S
O201 C200 1.203 . S
O202 C195 1.185 . S
O202 Zn198 2.086 . S
C203 O199 1.278 . S
C203 O204 1.211 . S
O204 C203 1.211 . S
C205 O197 1.284 . S
C205 O206 1.273 . S
O206 C205 1.273 . S
O207 Zn198 1.977 . S
O207 C200 1.267 . S
C208 O209 1.160 . S
C208 O215 1.185 . S
O209 C208 1.160 . S
O210 Zn211 1.899 . S
O210 C218 1.284 . S
Zn211 O210 1.899 . S
Zn211 O212 2.032 . S
Zn211 O215 2.086 . S
Zn211 O220 1.977 1_545 S
O212 Zn211 2.032 . S
O212 C216 1.278 . S
C213 O214 1.203 . S
C213 O220 1.267 . S
O214 C213 1.203 . S
O215 C208 1.185 . S
O215 Zn211 2.086 . S
C216 O212 1.278 . S
C216 O217 1.211 1_545 S
O217 C216 1.211 1_565 S
C218 O210 1.284 . S
C218 O219 1.273 . S
O219 C218 1.273 . S
O220 Zn211 1.977 1_565 S
O220 C213 1.267 . S
C221 O222 1.160 . S
C221 O228 1.185 . S
O222 C221 1.160 . S
O223 Zn224 1.899 . S
O223 C231 1.284 . S
Zn224 O223 1.899 . S
Zn224 O225 2.032 . S
Zn224 O228 2.086 . S
Zn224 O233 1.977 . S
O225 Zn224 2.032 . S
O225 C229 1.278 . S
C226 O227 1.203 . S
C226 O233 1.267 . S
O227 C226 1.203 . S
O228 C221 1.185 . S
O228 Zn224 2.086 . S
C229 O225 1.278 . S
C229 O230 1.211 . S
O230 C229 1.211 . S
C231 O223 1.284 . S
C231 O232 1.273 . S
O232 C231 1.273 . S
O233 Zn224 1.977 . S
O233 C226 1.267 . S
C234 O235 1.160 . S
C234 O241 1.185 . S
O235 C234 1.160 . S
O236 Zn237 1.899 . S
O236 C244 1.284 . S
Zn237 O236 1.899 . S
Zn237 O238 2.032 . S
Zn237 O241 2.086 . S
Zn237 O246 1.977 . S
O238 Zn237 2.032 . S
O238 C242 1.278 . S
C239 O240 1.203 . S
C239 O246 1.267 . S
O240 C239 1.203 . S
O241 C234 1.185 . S
O241 Zn237 2.086 . S
C242 O238 1.278 . S
C242 O243 1.211 . S
O243 C242 1.211 . S
C244 O236 1.284 . S
C244 O245 1.273 . S
O245 C244 1.273 . S
O246 Zn237 1.977 . S
O246 C239 1.267 . S
C247 O248 1.160 . S
C247 O254 1.185 1_565 S
O248 C247 1.160 . S
O249 Zn250 1.899 . S
O249 C257 1.284 . S
Zn250 O249 1.899 . S
Zn250 O251 2.032 . S
Zn250 O254 2.086 . S
Zn250 O259 1.977 . S
O251 Zn250 2.032 . S
O251 C255 1.278 . S
C252 O253 1.203 . S
C252 O259 1.267 . S
O253 C252 1.203 . S
O254 C247 1.185 1_545 S
O254 Zn250 2.086 . S
C255 O251 1.278 . S
C255 O256 1.211 . S
O256 C255 1.211 . S
C257 O249 1.284 . S
C257 O258 1.273 . S
O258 C257 1.273 . S
O259 Zn250 1.977 . S
O259 C252 1.267 . S
C260 O261 1.160 . S
C260 O267 1.185 . S
O261 C260 1.160 . S
O262 Zn263 1.899 . S
O262 C270 1.284 . S
Zn263 O262 1.899 . S
Zn263 O264 2.032 . S
Zn263 O267 2.086 . S
Zn263 O272 1.977 . S
O264 Zn263 2.032 . S
O264 C268 1.278 1_554 S
C265 O266 1.203 . S
C265 O272 1.267 . S
O266 C265 1.203 . S
O267 C260 1.185 . S
O267 Zn263 2.086 . S
C268 O264 1.278 1_556 S
C268 O269 1.211 . S
O269 C268 1.211 . S
C270 O262 1.284 . S
C270 O271 1.273 . S
O271 C270 1.273 . S
O272 Zn263 1.977 . S
O272 C265 1.267 . S
C273 O274 1.160 . S
C273 O280 1.185 . S
O274 C273 1.160 . S
O275 Zn276 1.899 . S
O275 C283 1.284 . S
Zn276 O275 1.899 . S
Zn276 O277 2.032 . S
Zn276 O280 2.086 . S
Zn276 O285 1.977 . S
O277 Zn276 2.032 . S
O277 C281 1.278 . S
C278 O279 1.203 . S
C278 O285 1.267 . S
O279 C278 1.203 . S
O280 C273 1.185 . S
O280 Zn276 2.086 . S
C281 O277 1.278 . S
C281 O282 1.211 . S
O282 C281 1.211 . S
C283 O275 1.284 . S
C283 O284 1.273 . S
O284 C283 1.273 . S
O285 Zn276 1.977 . S
O285 C278 1.267 . S
C286 O287 1.160 . S
C286 O293 1.185 . S
O287 C286 1.160 . S
O288 Zn289 1.899 . S
O288 C296 1.284 . S
Zn289 O288 1.899 . S
Zn289 O290 2.032 . S
Zn289 O293 2.086 . S
Zn289 O298 1.977 . S
O290 Zn289 2.032 . S
O290 C294 1.278 . S
C291 O292 1.203 . S
C291 O298 1.267 . S
O292 C291 1.203 . S
O293 C286 1.185 . S
O293 Zn289 2.086 . S
C294 O290 1.278 . S
C294 O295 1.211 . S
O295 C294 1.211 . S
C296 O288 1.284 . S
C296 O297 1.273 . S
O297 C296 1.273 . S
O298 Zn289 1.977 . S
O298 C291 1.267 . S
C299 O300 1.160 . S
C299 O306 1.185 . S
O300 C299 1.160 . S
O301 Zn302 1.899 . S
O301 C309 1.284 . S
Zn302 O301 1.899 . S
Zn302 O303 2.032 . S
Zn302 O306 2.086 . S
Zn302 O311 1.977 . S
O303 Zn302 2.032 . S
O303 C307 1.278 . S
C304 O305 1.203 . S
C304 O311 1.267 . S
O305 C304 1.203 . S
O306 C299 1.185 . S
O306 Zn302 2.086 . S
C307 O303 1.278 . S
C307 O308 1.211 . S
O308 C307 1.211 . S
C309 O301 1.284 . S
C309 O310 1.273 . S
O310 C309 1.273 . S
O311 Zn302 1.977 . S
O311 C304 1.267 . S
Tb312 C321 2.764 . S
Tb312 O322 2.325 1_545 S
Tb312 O325 2.303 . S
Tb312 O329 2.322 . S
Tb312 O330 2.349 . S
Tb312 O333 2.415 . S
Tb312 O334 2.399 . S
Tb313 O323 2.322 1_545 S
Tb313 O324 2.349 1_554 S
Tb313 O326 2.415 1_455 S
Tb313 O327 2.399 1_454 S
Tb313 O328 2.325 . S
Tb313 O331 2.303 . S
Tb313 C342 2.764 1_455 S
C314 O330 1.261 . S
C314 O331 1.257 . S
C315 C318 1.358 . S
C315 C319 1.332 . S
C315 C321 1.504 . S
C316 C317 1.373 . S
C316 C320 1.308 1_545 S
C317 C316 1.373 . S
C317 C318 1.429 . S
C317 H344 0.932 . S
C318 C315 1.358 . S
C318 C317 1.429 . S
C318 H345 0.930 . S
C319 C315 1.332 . S
C319 C320 1.394 1_545 S
C319 H346 0.932 1_545 S
C320 C316 1.308 1_565 S
C320 C319 1.394 1_565 S
C320 H347 0.929 . S
C321 Tb312 2.764 . S
C321 C315 1.504 . S
C321 O333 1.239 . S
C321 O334 1.263 . S
O322 Tb312 2.325 1_565 S
O322 C332 1.236 . S
O323 Tb313 2.322 1_565 S
O323 C332 1.257 . S
O324 Tb313 2.349 1_556 S
O324 C335 1.261 . S
O325 Tb312 2.303 . S
O325 C335 1.257 1_554 S
O326 Tb313 2.415 1_655 S
O326 C342 1.239 . S
O327 Tb313 2.399 1_656 S
O327 C342 1.263 1_556 S
O328 Tb313 2.325 . S
O328 C343 1.236 . S
O329 Tb312 2.322 . S
O329 C343 1.257 . S
O330 Tb312 2.349 . S
O330 C314 1.261 . S
O331 Tb313 2.303 . S
O331 C314 1.257 . S
C332 O322 1.236 . S
C332 O323 1.257 . S
O333 Tb312 2.415 . S
O333 C321 1.239 . S
O334 Tb312 2.399 . S
O334 C321 1.263 . S
C335 O324 1.261 . S
C335 O325 1.257 1_556 S
C336 C339 1.358 . S
C336 C340 1.332 1_556 S
C336 C342 1.504 1_556 S
C337 C338 1.373 . S
C337 C341 1.308 1_556 S
C338 C337 1.373 . S
C338 C339 1.429 . S
C338 H348 0.932 . S
C339 C336 1.358 . S
C339 C338 1.429 . S
C339 H349 0.930 . S
C340 C336 1.332 1_554 S
C340 C341 1.394 . S
C340 H350 0.932 . S
C341 C337 1.308 1_554 S
C341 C340 1.394 . S
C341 H351 0.929 . S
C342 Tb313 2.764 1_655 S
C342 O326 1.239 . S
C342 O327 1.263 1_554 S
C342 C336 1.504 1_554 S
C343 O328 1.236 . S
C343 O329 1.257 . S
H344 C317 0.932 . S
H345 C318 0.930 . S
H346 C319 0.932 1_565 S
H347 C320 0.929 . S
H348 C338 0.932 . S
H349 C339 0.930 . S
H350 C340 0.932 . S
H351 C341 0.929 . S
Tb352 C361 2.764 . S
Tb352 O362 2.325 . S
Tb352 O365 2.303 . S
Tb352 O369 2.322 . S
Tb352 O370 2.349 . S
Tb352 O373 2.415 . S
Tb352 O374 2.399 . S
Tb353 O363 2.322 . S
Tb353 O364 2.349 . S
Tb353 O366 2.415 . S
Tb353 O367 2.399 . S
Tb353 O368 2.325 . S
Tb353 O371 2.303 . S
Tb353 C382 2.764 . S
C354 O370 1.261 . S
C354 O371 1.257 . S
C355 C358 1.358 . S
C355 C359 1.332 . S
C355 C361 1.504 . S
C356 C357 1.373 . S
C356 C360 1.308 . S
C357 C356 1.373 . S
C357 C358 1.429 . S
C357 H384 0.932 . S
C358 C355 1.358 . S
C358 C357 1.429 . S
C358 H385 0.930 . S
C359 C355 1.332 . S
C359 C360 1.394 . S
C359 H386 0.932 . S
C360 C356 1.308 . S
C360 C359 1.394 . S
C360 H387 0.929 . S
C361 Tb352 2.764 . S
C361 C355 1.504 . S
C361 O373 1.239 . S
C361 O374 1.263 . S
O362 Tb352 2.325 . S
O362 C372 1.236 . S
O363 Tb353 2.322 . S
O363 C372 1.257 . S
O364 Tb353 2.349 . S
O364 C375 1.261 . S
O365 Tb352 2.303 . S
O365 C375 1.257 . S
O366 Tb353 2.415 . S
O366 C382 1.239 . S
O367 Tb353 2.399 . S
O367 C382 1.263 . S
O368 Tb353 2.325 . S
O368 C383 1.236 . S
O369 Tb352 2.322 . S
O369 C383 1.257 . S
O370 Tb352 2.349 . S
O370 C354 1.261 . S
O371 Tb353 2.303 . S
O371 C354 1.257 . S
C372 O362 1.236 . S
C372 O363 1.257 . S
O373 Tb352 2.415 . S
O373 C361 1.239 . S
O374 Tb352 2.399 . S
O374 C361 1.263 . S
C375 O364 1.261 . S
C375 O365 1.257 . S
C376 C379 1.358 . S
C376 C380 1.332 . S
C376 C382 1.504 . S
C377 C378 1.373 . S
C377 C381 1.308 . S
C378 C377 1.373 . S
C378 C379 1.429 . S
C378 H388 0.932 . S
C379 C376 1.358 . S
C379 C378 1.429 . S
C379 H389 0.930 . S
C380 C376 1.332 . S
C380 C381 1.394 . S
C380 H390 0.932 . S
C381 C377 1.308 . S
C381 C380 1.394 . S
C381 H391 0.929 . S
C382 Tb353 2.764 . S
C382 O366 1.239 . S
C382 O367 1.263 . S
C382 C376 1.504 . S
C383 O368 1.236 . S
C383 O369 1.257 . S
H384 C357 0.932 . S
H385 C358 0.930 . S
H386 C359 0.932 . S
H387 C360 0.929 . S
H388 C378 0.932 . S
H389 C379 0.930 . S
H390 C380 0.932 . S
H391 C381 0.929 . S
Tb392 C401 2.764 . S
Tb392 O402 2.325 . S
Tb392 O405 2.303 . S
Tb392 O409 2.322 1_545 S
Tb392 O410 2.349 . S
Tb392 O413 2.415 . S
Tb392 O414 2.399 . S
Tb393 O403 2.322 . S
Tb393 O404 2.349 . S
Tb393 O406 2.415 . S
Tb393 O407 2.399 . S
Tb393 O408 2.326 1_545 S
Tb393 O411 2.303 . S
Tb393 C422 2.764 . S
C394 O410 1.261 . S
C394 O411 1.257 . S
C395 C398 1.358 . S
C395 C399 1.332 . S
C395 C401 1.504 . S
C396 C397 1.373 . S
C396 C400 1.308 . S
C397 C396 1.373 . S
C397 C398 1.429 . S
C397 H424 0.932 . S
C398 C395 1.358 . S
C398 C397 1.429 . S
C398 H425 0.930 . S
C399 C395 1.332 . S
C399 C400 1.394 . S
C399 H426 0.932 . S
C400 C396 1.308 . S
C400 C399 1.394 . S
C400 H427 0.929 . S
C401 Tb392 2.764 . S
C401 C395 1.504 . S
C401 O413 1.239 . S
C401 O414 1.263 . S
O402 Tb392 2.325 . S
O402 C412 1.236 . S
O403 Tb393 2.322 . S
O403 C412 1.257 . S
O404 Tb393 2.349 . S
O404 C415 1.261 . S
O405 Tb392 2.303 . S
O405 C415 1.257 . S
O406 Tb393 2.415 . S
O406 C422 1.239 . S
O407 Tb393 2.399 . S
O407 C422 1.263 . S
O408 Tb393 2.326 1_565 S
O408 C423 1.236 . S
O409 Tb392 2.322 1_565 S
O409 C423 1.257 . S
O410 Tb392 2.349 . S
O410 C394 1.261 . S
O411 Tb393 2.303 . S
O411 C394 1.257 . S
C412 O402 1.236 . S
C412 O403 1.257 . S
O413 Tb392 2.415 . S
O413 C401 1.239 . S
O414 Tb392 2.399 . S
O414 C401 1.263 . S
C415 O404 1.261 . S
C415 O405 1.257 . S
C416 C419 1.358 . S
C416 C420 1.332 1_545 S
C416 C422 1.504 . S
C417 C418 1.373 . S
C417 C421 1.308 . S
C418 C417 1.373 . S
C418 C419 1.429 1_565 S
C418 H428 0.932 . S
C419 C416 1.358 . S
C419 C418 1.429 1_545 S
C419 H429 0.930 . S
C420 C416 1.332 1_565 S
C420 C421 1.394 . S
C420 H430 0.932 . S
C421 C417 1.308 . S
C421 C420 1.394 . S
C421 H431 0.929 . S
C422 Tb393 2.764 . S
C422 O406 1.239 . S
C422 O407 1.263 . S
C422 C416 1.504 . S
C423 O408 1.236 . S
C423 O409 1.257 . S
H424 C397 0.932 . S
H425 C398 0.930 . S
H426 C399 0.932 . S
H427 C400 0.929 . S
H428 C418 0.932 . S
H429 C419 0.930 . S
H430 C420 0.932 . S
H431 C421 0.929 . S
Tb432 C441 2.764 . S
Tb432 O442 2.325 . S
Tb432 O445 2.303 . S
Tb432 O449 2.322 . S
Tb432 O450 2.349 . S
Tb432 O453 2.415 . S
Tb432 O454 2.399 . S
Tb433 O443 2.322 . S
Tb433 O444 2.349 . S
Tb433 O446 2.415 . S
Tb433 O447 2.399 . S
Tb433 O448 2.325 . S
Tb433 O451 2.303 . S
Tb433 C462 2.764 . S
C434 O450 1.261 . S
C434 O451 1.257 . S
C435 C438 1.358 . S
C435 C439 1.332 . S
C435 C441 1.504 . S
C436 C437 1.373 . S
C436 C440 1.308 . S
C437 C436 1.373 . S
C437 C438 1.429 . S
C437 H464 0.932 . S
C438 C435 1.358 . S
C438 C437 1.429 . S
C438 H465 0.930 . S
C439 C435 1.332 . S
C439 C440 1.394 . S
C439 H466 0.932 . S
C440 C436 1.308 . S
C440 C439 1.394 . S
C440 H467 0.929 . S
C441 Tb432 2.764 . S
C441 C435 1.504 . S
C441 O453 1.239 . S
C441 O454 1.263 . S
O442 Tb432 2.325 . S
O442 C452 1.236 . S
O443 Tb433 2.322 . S
O443 C452 1.257 . S
O444 Tb433 2.349 . S
O444 C455 1.261 . S
O445 Tb432 2.303 . S
O445 C455 1.257 . S
O446 Tb433 2.415 . S
O446 C462 1.239 . S
O447 Tb433 2.399 . S
O447 C462 1.263 . S
O448 Tb433 2.325 . S
O448 C463 1.236 . S
O449 Tb432 2.322 . S
O449 C463 1.257 . S
O450 Tb432 2.349 . S
O450 C434 1.261 . S
O451 Tb433 2.303 . S
O451 C434 1.257 . S
C452 O442 1.236 . S
C452 O443 1.257 . S
O453 Tb432 2.415 . S
O453 C441 1.239 . S
O454 Tb432 2.399 . S
O454 C441 1.263 . S
C455 O444 1.261 . S
C455 O445 1.257 . S
C456 C459 1.358 . S
C456 C460 1.332 . S
C456 C462 1.504 . S
C457 C458 1.373 . S
C457 C461 1.308 . S
C458 C457 1.373 . S
C458 C459 1.429 . S
C458 H468 0.932 . S
C459 C456 1.358 . S
C459 C458 1.429 . S
C459 H469 0.930 . S
C460 C456 1.332 . S
C460 C461 1.394 . S
C460 H470 0.932 . S
C461 C457 1.308 . S
C461 C460 1.394 . S
C461 H471 0.929 . S
C462 Tb433 2.764 . S
C462 O446 1.239 . S
C462 O447 1.263 . S
C462 C456 1.504 . S
C463 O448 1.236 . S
C463 O449 1.257 . S
H464 C437 0.932 . S
H465 C438 0.930 . S
H466 C439 0.932 . S
H467 C440 0.929 . S
H468 C458 0.932 . S
H469 C459 0.930 . S
H470 C460 0.932 . S
H471 C461 0.929 . S
Tb472 C481 2.764 . S
Tb472 O482 2.325 . S
Tb472 O485 2.303 . S
Tb472 O489 2.322 . S
Tb472 O490 2.349 . S
Tb472 O493 2.415 . S
Tb472 O494 2.399 . S
Tb473 O483 2.322 1_545 S
Tb473 O484 2.349 . S
Tb473 O486 2.415 . S
Tb473 O487 2.399 . S
Tb473 O488 2.325 . S
Tb473 O491 2.303 . S
Tb473 C502 2.764 . S
C474 O490 1.261 1_655 S
C474 O491 1.257 1_655 S
C475 C478 1.358 . S
C475 C479 1.332 . S
C475 C481 1.504 . S
C476 C477 1.373 . S
C476 C480 1.308 . S
C477 C476 1.373 . S
C477 C478 1.429 . S
C477 H504 0.932 . S
C478 C475 1.358 . S
C478 C477 1.429 . S
C478 H505 0.930 . S
C479 C475 1.332 . S
C479 C480 1.394 . S
C479 H506 0.932 . S
C480 C476 1.308 . S
C480 C479 1.394 . S
C480 H507 0.929 . S
C481 Tb472 2.764 . S
C481 C475 1.504 . S
C481 O493 1.239 . S
C481 O494 1.263 . S
O482 Tb472 2.325 . S
O482 C492 1.236 1_545 S
O483 Tb473 2.322 1_565 S
O483 C492 1.257 . S
O484 Tb473 2.349 . S
O484 C495 1.261 . S
O485 Tb472 2.303 . S
O485 C495 1.257 . S
O486 Tb473 2.415 . S
O486 C502 1.239 . S
O487 Tb473 2.399 . S
O487 C502 1.263 . S
O488 Tb473 2.325 . S
O488 C503 1.236 . S
O489 Tb472 2.322 . S
O489 C503 1.257 . S
O490 Tb472 2.349 . S
O490 C474 1.261 1_455 S
O491 Tb473 2.303 . S
O491 C474 1.257 1_455 S
C492 O482 1.236 1_565 S
C492 O483 1.257 . S
O493 Tb472 2.415 . S
O493 C481 1.239 . S
O494 Tb472 2.399 . S
O494 C481 1.263 . S
C495 O484 1.261 . S
C495 O485 1.257 . S
C496 C499 1.358 . S
C496 C500 1.332 1_455 S
C496 C502 1.504 . S
C497 C498 1.395 . S
C497 C501 1.293 1_455 S
C498 C497 1.395 . S
C498 C499 1.429 . S
C498 H508 0.932 . S
C499 C496 1.358 . S
C499 C498 1.429 . S
C499 H509 0.930 . S
C500 C496 1.332 1_655 S
C500 C501 1.394 . S
C500 H510 0.932 . S
C501 C497 1.293 1_655 S
C501 C500 1.394 . S
C501 H511 0.929 . S
C502 Tb473 2.764 . S
C502 O486 1.239 . S
C502 O487 1.263 . S
C502 C496 1.504 . S
C503 O488 1.236 . S
C503 O489 1.257 . S
H504 C477 0.932 . S
H505 C478 0.930 . S
H506 C479 0.932 . S
H507 C480 0.929 . S
H508 C498 0.932 . S
H509 C499 0.930 . S
H510 C500 0.932 . S
H511 C501 0.929 . S
Tb512 C521 2.764 . S
Tb512 O522 2.325 . S
Tb512 O525 2.303 . S
Tb512 O529 2.322 . S
Tb512 O530 2.349 . S
Tb512 O533 2.415 . S
Tb512 O534 2.399 . S
Tb513 O523 2.322 . S
Tb513 O524 2.349 . S
Tb513 O526 2.415 . S
Tb513 O527 2.399 . S
Tb513 O528 2.325 . S
Tb513 O531 2.303 . S
Tb513 C542 2.764 . S
C514 O530 1.261 . S
C514 O531 1.257 . S
C515 C518 1.358 . S
C515 C519 1.332 . S
C515 C521 1.504 . S
C516 C517 1.373 . S
C516 C520 1.308 . S
C517 C516 1.373 . S
C517 C518 1.429 . S
C517 H544 0.932 . S
C518 C515 1.358 . S
C518 C517 1.429 . S
C518 H545 0.930 . S
C519 C515 1.332 . S
C519 C520 1.394 . S
C519 H546 0.932 . S
C520 C516 1.308 . S
C520 C519 1.394 . S
C520 H547 0.929 . S
C521 Tb512 2.764 . S
C521 C515 1.504 . S
C521 O533 1.239 . S
C521 O534 1.263 . S
O522 Tb512 2.325 . S
O522 C532 1.236 . S
O523 Tb513 2.322 . S
O523 C532 1.257 . S
O524 Tb513 2.349 . S
O524 C535 1.261 . S
O525 Tb512 2.303 . S
O525 C535 1.257 . S
O526 Tb513 2.415 . S
O526 C542 1.239 . S
O527 Tb513 2.399 . S
O527 C542 1.263 . S
O528 Tb513 2.325 . S
O528 C543 1.236 . S
O529 Tb512 2.322 . S
O529 C543 1.257 . S
O530 Tb512 2.349 . S
O530 C514 1.261 . S
O531 Tb513 2.303 . S
O531 C514 1.257 . S
C532 O522 1.236 . S
C532 O523 1.257 . S
O533 Tb512 2.415 . S
O533 C521 1.239 . S
O534 Tb512 2.399 . S
O534 C521 1.263 . S
C535 O524 1.261 . S
C535 O525 1.257 . S
C536 C539 1.358 . S
C536 C540 1.332 . S
C536 C542 1.504 . S
C537 C538 1.373 . S
C537 C541 1.308 . S
C538 C537 1.373 . S
C538 C539 1.429 . S
C538 H548 0.932 . S
C539 C536 1.358 . S
C539 C538 1.429 . S
C539 H549 0.930 . S
C540 C536 1.332 . S
C540 C541 1.394 . S
C540 H550 0.932 . S
C541 C537 1.308 . S
C541 C540 1.394 . S
C541 H551 0.929 . S
C542 Tb513 2.764 . S
C542 O526 1.239 . S
C542 O527 1.263 . S
C542 C536 1.504 . S
C543 O528 1.236 . S
C543 O529 1.257 . S
H544 C517 0.932 . S
H545 C518 0.930 . S
H546 C519 0.932 . S
H547 C520 0.929 . S
H548 C538 0.932 . S
H549 C539 0.930 . S
H550 C540 0.932 . S
H551 C541 0.929 . S
Tb552 C561 2.764 . S
Tb552 O562 2.325 . S
Tb552 O565 2.303 . S
Tb552 O569 2.322 1_545 S
Tb552 O570 2.349 . S
Tb552 O573 2.415 . S
Tb552 O574 2.399 . S
Tb553 O563 2.322 . S
Tb553 O564 2.349 . S
Tb553 O566 2.415 1_554 S
Tb553 O567 2.399 1_554 S
Tb553 O568 2.345 1_554 S
Tb553 O571 2.303 . S
Tb553 C582 2.764 1_554 S
C554 O570 1.261 . S
C554 O571 1.257 . S
C555 C558 1.358 . S
C555 C559 1.332 . S
C555 C561 1.504 . S
C556 C557 1.373 . S
C556 C560 1.308 . S
C557 C556 1.373 . S
C557 C558 1.429 . S
C557 H584 0.932 . S
C558 C555 1.358 . S
C558 C557 1.429 . S
C558 H585 0.930 . S
C559 C555 1.332 . S
C559 C560 1.394 . S
C559 H586 0.932 . S
C560 C556 1.308 . S
C560 C559 1.394 . S
C560 H587 0.929 . S
C561 Tb552 2.764 . S
C561 C555 1.504 . S
C561 O573 1.239 . S
C561 O574 1.263 . S
O562 Tb552 2.325 . S
O562 C572 1.236 . S
O563 Tb553 2.322 . S
O563 C572 1.257 . S
O564 Tb553 2.349 . S
O564 C575 1.261 . S
O565 Tb552 2.303 . S
O565 C575 1.257 . S
O566 Tb553 2.415 1_556 S
O566 C582 1.239 . S
O567 Tb553 2.399 1_556 S
O567 C582 1.263 . S
O568 Tb553 2.345 1_556 S
O568 C583 1.207 1_546 S
O569 Tb552 2.322 1_565 S
O569 C583 1.257 . S
O570 Tb552 2.349 . S
O570 C554 1.261 . S
O571 Tb553 2.303 . S
O571 C554 1.257 . S
C572 O562 1.236 . S
C572 O563 1.257 . S
O573 Tb552 2.415 . S
O573 C561 1.239 . S
O574 Tb552 2.399 . S
O574 C561 1.263 . S
C575 O564 1.261 . S
C575 O565 1.257 . S
C576 C579 1.358 . S
C576 C580 1.332 . S
C576 C582 1.504 . S
C577 C578 1.373 . S
C577 C581 1.308 . S
C578 C577 1.373 . S
C578 C579 1.429 . S
C578 H588 0.932 . S
C579 C576 1.358 . S
C579 C578 1.429 . S
C579 H589 0.930 . S
C580 C576 1.332 . S
C580 C581 1.394 . S
C580 H590 0.932 . S
C581 C577 1.308 . S
C581 C580 1.394 . S
C581 H591 0.929 . S
C582 Tb553 2.764 1_556 S
C582 O566 1.239 . S
C582 O567 1.263 . S
C582 C576 1.504 . S
C583 O568 1.207 1_564 S
C583 O569 1.257 . S
H584 C557 0.932 . S
H585 C558 0.930 . S
H586 C559 0.932 . S
H587 C560 0.929 . S
H588 C578 0.932 . S
H589 C579 0.930 . S
H590 C580 0.932 . S
H591 C581 0.929 . S
Tb592 C601 2.764 . S
Tb592 O602 2.325 . S
Tb592 O605 2.303 . S
Tb592 O609 2.322 . S
Tb592 O610 2.349 . S
Tb592 O613 2.415 . S
Tb592 O614 2.399 . S
Tb593 O603 2.322 . S
Tb593 O604 2.349 . S
Tb593 O606 2.415 . S
Tb593 O607 2.399 . S
Tb593 O608 2.325 . S
Tb593 O611 2.303 . S
Tb593 C622 2.764 . S
C594 O610 1.261 . S
C594 O611 1.257 . S
C595 C598 1.358 . S
C595 C599 1.332 . S
C595 C601 1.504 . S
C596 C597 1.373 . S
C596 C600 1.308 . S
C597 C596 1.373 . S
C597 C598 1.429 . S
C597 H624 0.932 . S
C598 C595 1.358 . S
C598 C597 1.429 . S
C598 H625 0.930 . S
C599 C595 1.332 . S
C599 C600 1.394 . S
C599 H626 0.932 . S
C600 C596 1.308 . S
C600 C599 1.394 . S
C600 H627 0.929 . S
C601 Tb592 2.764 . S
C601 C595 1.504 . S
C601 O613 1.239 . S
C601 O614 1.263 . S
O602 Tb592 2.325 . S
O602 C612 1.236 . S
O603 Tb593 2.322 . S
O603 C612 1.257 . S
O604 Tb593 2.349 . S
O604 C615 1.261 . S
O605 Tb592 2.303 . S
O605 C615 1.257 . S
O606 Tb593 2.415 . S
O606 C622 1.239 . S
O607 Tb593 2.399 . S
O607 C622 1.263 . S
O608 Tb593 2.325 . S
O608 C623 1.236 . S
O609 Tb592 2.322 . S
O609 C623 1.257 . S
O610 Tb592 2.349 . S
O610 C594 1.261 . S
O611 Tb593 2.303 . S
O611 C594 1.257 . S
C612 O602 1.236 . S
C612 O603 1.257 . S
O613 Tb592 2.415 . S
O613 C601 1.239 . S
O614 Tb592 2.399 . S
O614 C601 1.263 . S
C615 O604 1.261 . S
C615 O605 1.257 . S
C616 C619 1.358 . S
C616 C620 1.332 . S
C616 C622 1.504 . S
C617 C618 1.373 . S
C617 C621 1.308 . S
C618 C617 1.373 . S
C618 C619 1.429 . S
C618 H628 0.932 . S
C619 C616 1.358 . S
C619 C618 1.429 . S
C619 H629 0.930 . S
C620 C616 1.332 . S
C620 C621 1.394 . S
C620 H630 0.932 . S
C621 C617 1.308 . S
C621 C620 1.394 . S
C621 H631 0.929 . S
C622 Tb593 2.764 . S
C622 O606 1.239 . S
C622 O607 1.263 . S
C622 C616 1.504 . S
C623 O608 1.236 . S
C623 O609 1.257 . S
H624 C597 0.932 . S
H625 C598 0.930 . S
H626 C599 0.932 . S
H627 C600 0.929 . S
H628 C618 0.932 . S
H629 C619 0.930 . S
H630 C620 0.932 . S
H631 C621 0.929 . S
Tb632 C641 2.764 . S
Tb632 O642 2.325 . S
Tb632 O645 2.303 . S
Tb632 O649 2.322 . S
Tb632 O650 2.349 . S
Tb632 O653 2.415 . S
Tb632 O654 2.399 . S
Tb633 O643 2.322 . S
Tb633 O644 2.349 . S
Tb633 O646 2.415 1_554 S
Tb633 O647 2.399 1_554 S
Tb633 O648 2.325 . S
Tb633 O651 2.303 . S
Tb633 C662 2.764 1_554 S
C634 O650 1.261 . S
C634 O651 1.257 . S
C635 C638 1.358 . S
C635 C639 1.332 . S
C635 C641 1.504 . S
C636 C637 1.373 . S
C636 C640 1.308 . S
C637 C636 1.373 . S
C637 C638 1.429 . S
C637 H664 0.932 . S
C638 C635 1.358 . S
C638 C637 1.429 . S
C638 H665 0.930 . S
C639 C635 1.332 . S
C639 C640 1.394 . S
C639 H666 0.932 . S
C640 C636 1.308 . S
C640 C639 1.394 . S
C640 H667 0.929 . S
C641 Tb632 2.764 . S
C641 C635 1.504 . S
C641 O653 1.239 . S
C641 O654 1.263 . S
O642 Tb632 2.325 . S
O642 C652 1.236 . S
O643 Tb633 2.322 . S
O643 C652 1.257 . S
O644 Tb633 2.349 . S
O644 C655 1.261 . S
O645 Tb632 2.303 . S
O645 C655 1.257 . S
O646 Tb633 2.415 1_556 S
O646 C662 1.239 . S
O647 Tb633 2.399 1_556 S
O647 C662 1.263 . S
O648 Tb633 2.325 . S
O648 C663 1.236 . S
O649 Tb632 2.322 . S
O649 C663 1.257 . S
O650 Tb632 2.349 . S
O650 C634 1.261 . S
O651 Tb633 2.303 . S
O651 C634 1.257 . S
C652 O642 1.236 . S
C652 O643 1.257 . S
O653 Tb632 2.415 . S
O653 C641 1.239 . S
O654 Tb632 2.399 . S
O654 C641 1.263 . S
C655 O644 1.261 . S
C655 O645 1.257 . S
C656 C659 1.358 . S
C656 C660 1.332 . S
C656 C662 1.504 . S
C657 C658 1.373 . S
C657 C661 1.308 . S
C658 C657 1.373 . S
C658 C659 1.429 . S
C658 H668 0.932 . S
C659 C656 1.358 . S
C659 C658 1.429 . S
C659 H669 0.930 . S
C660 C656 1.332 . S
C660 C661 1.394 . S
C660 H670 0.932 . S
C661 C657 1.308 . S
C661 C660 1.394 . S
C661 H671 0.929 . S
C662 Tb633 2.764 1_556 S
C662 O646 1.239 . S
C662 O647 1.263 . S
C662 C656 1.504 . S
C663 O648 1.236 . S
C663 O649 1.257 . S
H664 C637 0.932 . S
H665 C638 0.930 . S
H666 C639 0.932 . S
H667 C640 0.929 . S
H668 C658 0.932 . S
H669 C659 0.930 . S
H670 C660 0.932 . S
H671 C661 0.929 . S
Tb672 C681 2.764 . S
Tb672 O682 2.325 . S
Tb672 O685 2.303 . S
Tb672 O689 2.322 . S
Tb672 O690 2.349 . S
Tb672 O693 2.415 . S
Tb672 O694 2.399 . S
Tb673 O683 2.322 . S
Tb673 O684 2.349 . S
Tb673 O686 2.415 . S
Tb673 O687 2.399 . S
Tb673 O688 2.325 . S
Tb673 O691 2.303 . S
Tb673 C702 2.764 . S
C674 O690 1.261 . S
C674 O691 1.257 . S
C675 C678 1.358 . S
C675 C679 1.332 . S
C675 C681 1.504 . S
C676 C677 1.373 . S
C676 C680 1.308 . S
C677 C676 1.373 . S
C677 C678 1.429 . S
C677 H704 0.932 . S
C678 C675 1.358 . S
C678 C677 1.429 . S
C678 H705 0.930 . S
C679 C675 1.332 . S
C679 C680 1.394 . S
C679 H706 0.932 . S
C680 C676 1.308 . S
C680 C679 1.394 . S
C680 H707 0.929 . S
C681 Tb672 2.764 . S
C681 C675 1.504 . S
C681 O693 1.239 . S
C681 O694 1.263 . S
O682 Tb672 2.325 . S
O682 C692 1.236 . S
O683 Tb673 2.322 . S
O683 C692 1.257 . S
O684 Tb673 2.349 . S
O684 C695 1.261 . S
O685 Tb672 2.303 . S
O685 C695 1.257 . S
O686 Tb673 2.415 . S
O686 C702 1.239 . S
O687 Tb673 2.399 . S
O687 C702 1.263 . S
O688 Tb673 2.325 . S
O688 C703 1.236 . S
O689 Tb672 2.322 . S
O689 C703 1.257 . S
O690 Tb672 2.349 . S
O690 C674 1.261 . S
O691 Tb673 2.303 . S
O691 C674 1.257 . S
C692 O682 1.236 . S
C692 O683 1.257 . S
O693 Tb672 2.415 . S
O693 C681 1.239 . S
O694 Tb672 2.399 . S
O694 C681 1.263 . S
C695 O684 1.261 . S
C695 O685 1.257 . S
C696 C699 1.358 . S
C696 C700 1.332 . S
C696 C702 1.504 . S
C697 C698 1.373 . S
C697 C701 1.308 . S
C698 C697 1.373 . S
C698 C699 1.429 . S
C698 H708 0.932 . S
C699 C696 1.358 . S
C699 C698 1.429 . S
C699 H709 0.930 . S
C700 C696 1.332 . S
C700 C701 1.394 . S
C700 H710 0.932 . S
C701 C697 1.308 . S
C701 C700 1.394 . S
C701 H711 0.929 . S
C702 Tb673 2.764 . S
C702 O686 1.239 . S
C702 O687 1.263 . S
C702 C696 1.504 . S
C703 O688 1.236 . S
C703 O689 1.257 . S
H704 C677 0.932 . S
H705 C678 0.930 . S
H706 C679 0.932 . S
H707 C680 0.929 . S
H708 C698 0.932 . S
H709 C699 0.930 . S
H710 C700 0.932 . S
H711 C701 0.929 . S
Tb712 C721 2.764 . S
Tb712 O722 2.325 . S
Tb712 O725 2.303 . S
Tb712 O729 2.322 . S
Tb712 O730 2.349 . S
Tb712 O733 2.415 . S
Tb712 O734 2.399 . S
Tb713 O723 2.322 . S
Tb713 O724 2.349 . S
Tb713 O726 2.415 . S
Tb713 O727 2.399 . S
Tb713 O728 2.325 . S
Tb713 O731 2.303 . S
Tb713 C742 2.764 . S
C714 O730 1.261 . S
C714 O731 1.257 . S
C715 C718 1.358 . S
C715 C719 1.332 . S
C715 C721 1.504 . S
C716 C717 1.373 . S
C716 C720 1.308 1_455 S
C717 C716 1.373 . S
C717 C718 1.429 . S
C717 H744 0.932 . S
C718 C715 1.358 . S
C718 C717 1.429 . S
C718 H745 0.930 . S
C719 C715 1.332 . S
C719 C720 1.394 1_455 S
C719 H746 0.932 1_455 S
C720 C716 1.308 1_655 S
C720 C719 1.394 1_655 S
C720 H747 0.929 . S
C721 Tb712 2.764 . S
C721 C715 1.504 . S
C721 O733 1.239 . S
C721 O734 1.263 . S
O722 Tb712 2.325 . S
O722 C732 1.236 . S
O723 Tb713 2.322 . S
O723 C732 1.257 . S
O724 Tb713 2.349 . S
O724 C735 1.261 . S
O725 Tb712 2.303 . S
O725 C735 1.257 . S
O726 Tb713 2.415 . S
O726 C742 1.239 . S
O727 Tb713 2.399 . S
O727 C742 1.263 . S
O728 Tb713 2.325 . S
O728 C743 1.236 . S
O729 Tb712 2.322 . S
O729 C743 1.257 . S
O730 Tb712 2.349 . S
O730 C714 1.261 . S
O731 Tb713 2.303 . S
O731 C714 1.257 . S
C732 O722 1.236 . S
C732 O723 1.257 . S
O733 Tb712 2.415 . S
O733 C721 1.239 . S
O734 Tb712 2.399 . S
O734 C721 1.263 . S
C735 O724 1.261 . S
C735 O725 1.257 . S
C736 C739 1.358 . S
C736 C740 1.332 . S
C736 C742 1.504 . S
C737 C738 1.373 . S
C737 C741 1.308 . S
C738 C737 1.373 . S
C738 C739 1.429 . S
C738 H748 0.932 . S
C739 C736 1.358 . S
C739 C738 1.429 . S
C739 H749 0.930 . S
C740 C736 1.332 . S
C740 C741 1.394 . S
C740 H750 0.932 . S
C741 C737 1.308 . S
C741 C740 1.394 . S
C741 H751 0.929 . S
C742 Tb713 2.764 . S
C742 O726 1.239 . S
C742 O727 1.263 . S
C742 C736 1.504 . S
C743 O728 1.236 . S
C743 O729 1.257 . S
H744 C717 0.932 . S
H745 C718 0.930 . S
H746 C719 0.932 1_655 S
H747 C720 0.929 . S
H748 C738 0.932 . S
H749 C739 0.930 . S
H750 C740 0.932 . S
H751 C741 0.929 . S
Tb752 C761 2.764 . S
Tb752 O762 2.325 . S
Tb752 O765 2.303 . S
Tb752 O769 2.322 . S
Tb752 O770 2.349 . S
Tb752 O773 2.415 . S
Tb752 O774 2.399 . S
Tb753 O763 2.322 . S
Tb753 O764 2.349 . S
Tb753 O766 2.415 . S
Tb753 O767 2.399 . S
Tb753 O768 2.325 . S
Tb753 O771 2.303 . S
Tb753 C782 2.764 . S
C754 O770 1.261 . S
C754 O771 1.257 . S
C755 C758 1.358 . S
C755 C759 1.332 . S
C755 C761 1.504 . S
C756 C757 1.373 . S
C756 C760 1.308 . S
C757 C756 1.373 . S
C757 C758 1.429 . S
C757 H784 0.932 . S
C758 C755 1.358 . S
C758 C757 1.429 . S
C758 H785 0.930 . S
C759 C755 1.332 . S
C759 C760 1.394 . S
C759 H786 0.932 . S
C760 C756 1.308 . S
C760 C759 1.394 . S
C760 H787 0.929 . S
C761 Tb752 2.764 . S
C761 C755 1.504 . S
C761 O773 1.239 . S
C761 O774 1.263 . S
O762 Tb752 2.325 . S
O762 C772 1.236 . S
O763 Tb753 2.322 . S
O763 C772 1.257 . S
O764 Tb753 2.349 . S
O764 C775 1.261 . S
O765 Tb752 2.303 . S
O765 C775 1.257 . S
O766 Tb753 2.415 . S
O766 C782 1.239 . S
O767 Tb753 2.399 . S
O767 C782 1.263 . S
O768 Tb753 2.325 . S
O768 C783 1.236 . S
O769 Tb752 2.322 . S
O769 C783 1.257 . S
O770 Tb752 2.349 . S
O770 C754 1.261 . S
O771 Tb753 2.303 . S
O771 C754 1.257 . S
C772 O762 1.236 . S
C772 O763 1.257 . S
O773 Tb752 2.415 . S
O773 C761 1.239 . S
O774 Tb752 2.399 . S
O774 C761 1.263 . S
C775 O764 1.261 . S
C775 O765 1.257 . S
C776 C779 1.358 . S
C776 C780 1.332 . S
C776 C782 1.504 . S
C777 C778 1.373 . S
C777 C781 1.308 . S
C778 C777 1.373 . S
C778 C779 1.429 . S
C778 H788 0.932 . S
C779 C776 1.358 . S
C779 C778 1.429 . S
C779 H789 0.930 . S
C780 C776 1.332 . S
C780 C781 1.394 . S
C780 H790 0.932 . S
C781 C777 1.308 . S
C781 C780 1.394 . S
C781 H791 0.929 . S
C782 Tb753 2.764 . S
C782 O766 1.239 . S
C782 O767 1.263 . S
C782 C776 1.504 . S
C783 O768 1.236 . S
C783 O769 1.257 . S
H784 C757 0.932 . S
H785 C758 0.930 . S
H786 C759 0.932 . S
H787 C760 0.929 . S
H788 C778 0.932 . S
H789 C779 0.930 . S
H790 C780 0.932 . S
H791 C781 0.929 . S
Tb792 C801 2.764 . S
Tb792 O802 2.325 . S
Tb792 O805 2.303 . S
Tb792 O809 2.322 . S
Tb792 O810 2.349 . S
Tb792 O813 2.415 . S
Tb792 O814 2.399 . S
Tb793 O803 2.322 . S
Tb793 O804 2.349 . S
Tb793 O806 2.415 . S
Tb793 O807 2.399 . S
Tb793 O808 2.325 . S
Tb793 O811 2.303 . S
Tb793 C822 2.764 . S
C794 O810 1.261 . S
C794 O811 1.257 . S
C795 C798 1.358 . S
C795 C799 1.332 . S
C795 C801 1.504 . S
C796 C797 1.373 . S
C796 C800 1.308 . S
C797 C796 1.373 . S
C797 C798 1.429 . S
C797 H824 0.932 . S
C798 C795 1.358 . S
C798 C797 1.429 . S
C798 H825 0.930 . S
C799 C795 1.332 . S
C799 C800 1.394 . S
C799 H826 0.932 . S
C800 C796 1.308 . S
C800 C799 1.394 . S
C800 H827 0.929 . S
C801 Tb792 2.764 . S
C801 C795 1.504 . S
C801 O813 1.239 . S
C801 O814 1.263 . S
O802 Tb792 2.325 . S
O802 C812 1.236 . S
O803 Tb793 2.322 . S
O803 C812 1.257 . S
O804 Tb793 2.349 . S
O804 C815 1.261 . S
O805 Tb792 2.303 . S
O805 C815 1.257 . S
O806 Tb793 2.415 . S
O806 C822 1.239 . S
O807 Tb793 2.399 . S
O807 C822 1.263 . S
O808 Tb793 2.325 . S
O808 C823 1.236 . S
O809 Tb792 2.322 . S
O809 C823 1.257 . S
O810 Tb792 2.349 . S
O810 C794 1.261 . S
O811 Tb793 2.303 . S
O811 C794 1.257 . S
C812 O802 1.236 . S
C812 O803 1.257 . S
O813 Tb792 2.415 . S
O813 C801 1.239 . S
O814 Tb792 2.399 . S
O814 C801 1.263 . S
C815 O804 1.261 . S
C815 O805 1.257 . S
C816 C819 1.358 . S
C816 C820 1.332 . S
C816 C822 1.504 . S
C817 C818 1.373 . S
C817 C821 1.308 . S
C818 C817 1.373 . S
C818 C819 1.429 . S
C818 H828 0.932 . S
C819 C816 1.358 . S
C819 C818 1.429 . S
C819 H829 0.930 . S
C820 C816 1.332 . S
C820 C821 1.394 . S
C820 H830 0.932 . S
C821 C817 1.308 . S
C821 C820 1.394 . S
C821 H831 0.929 . S
C822 Tb793 2.764 . S
C822 O806 1.239 . S
C822 O807 1.263 . S
C822 C816 1.504 . S
C823 O808 1.236 . S
C823 O809 1.257 . S
H824 C797 0.932 . S
H825 C798 0.930 . S
H826 C799 0.932 . S
H827 C800 0.929 . S
H828 C818 0.932 . S
H829 C819 0.930 . S
H830 C820 0.932 . S
H831 C821 0.929 . S
Tb832 C841 2.764 . S
Tb832 O842 2.325 . S
Tb832 O845 2.303 . S
Tb832 O849 2.322 . S
Tb832 O850 2.349 . S
Tb832 O853 2.415 . S
Tb832 O854 2.399 . S
Tb833 O843 2.322 . S
Tb833 O844 2.349 . S
Tb833 O846 2.415 . S
Tb833 O847 2.399 . S
Tb833 O848 2.325 . S
Tb833 O851 2.303 . S
Tb833 C862 2.764 . S
C834 O850 1.261 . S
C834 O851 1.257 . S
C835 C838 1.358 . S
C835 C839 1.332 . S
C835 C841 1.504 . S
C836 C837 1.373 . S
C836 C840 1.308 . S
C837 C836 1.373 . S
C837 C838 1.429 . S
C837 H864 0.932 . S
C838 C835 1.358 . S
C838 C837 1.429 . S
C838 H865 0.930 . S
C839 C835 1.332 . S
C839 C840 1.394 . S
C839 H866 0.932 . S
C840 C836 1.308 . S
C840 C839 1.394 . S
C840 H867 0.929 . S
C841 Tb832 2.764 . S
C841 C835 1.504 . S
C841 O853 1.239 . S
C841 O854 1.263 . S
O842 Tb832 2.325 . S
O842 C852 1.236 . S
O843 Tb833 2.322 . S
O843 C852 1.257 . S
O844 Tb833 2.349 . S
O844 C855 1.261 . S
O845 Tb832 2.303 . S
O845 C855 1.257 . S
O846 Tb833 2.415 . S
O846 C862 1.239 . S
O847 Tb833 2.399 . S
O847 C862 1.263 . S
O848 Tb833 2.325 . S
O848 C863 1.236 . S
O849 Tb832 2.322 . S
O849 C863 1.257 . S
O850 Tb832 2.349 . S
O850 C834 1.261 . S
O851 Tb833 2.303 . S
O851 C834 1.257 . S
C852 O842 1.236 . S
C852 O843 1.257 . S
O853 Tb832 2.415 . S
O853 C841 1.239 . S
O854 Tb832 2.399 . S
O854 C841 1.263 . S
C855 O844 1.261 . S
C855 O845 1.257 . S
C856 C859 1.358 . S
C856 C860 1.332 . S
C856 C862 1.504 . S
C857 C858 1.373 . S
C857 C861 1.308 . S
C858 C857 1.373 . S
C858 C859 1.429 . S
C858 H868 0.932 . S
C859 C856 1.358 . S
C859 C858 1.429 . S
C859 H869 0.930 . S
C860 C856 1.332 . S
C860 C861 1.394 . S
C860 H870 0.932 . S
C861 C857 1.308 . S
C861 C860 1.394 . S
C861 H871 0.929 . S
C862 Tb833 2.764 . S
C862 O846 1.239 . S
C862 O847 1.263 . S
C862 C856 1.504 . S
C863 O848 1.236 . S
C863 O849 1.257 . S
H864 C837 0.932 . S
H865 C838 0.930 . S
H866 C839 0.932 . S
H867 C840 0.929 . S
H868 C858 0.932 . S
H869 C859 0.930 . S
H870 C860 0.932 . S
H871 C861 0.929 . S
Tb872 C881 2.764 . S
Tb872 O882 2.325 . S
Tb872 O885 2.303 . S
Tb872 O889 2.322 . S
Tb872 O890 2.349 . S
Tb872 O893 2.415 . S
Tb872 O894 2.399 . S
Tb873 O883 2.322 . S
Tb873 O884 2.349 . S
Tb873 O886 2.415 . S
Tb873 O887 2.399 . S
Tb873 O888 2.325 . S
Tb873 O891 2.303 . S
Tb873 C902 2.764 . S
C874 O890 1.261 . S
C874 O891 1.257 . S
C875 C878 1.358 . S
C875 C879 1.332 . S
C875 C881 1.504 . S
C876 C877 1.373 . S
C876 C880 1.308 . S
C877 C876 1.373 . S
C877 C878 1.429 . S
C877 H904 0.932 . S
C878 C875 1.358 . S
C878 C877 1.429 . S
C878 H905 0.930 . S
C879 C875 1.332 . S
C879 C880 1.394 . S
C879 H906 0.932 . S
C880 C876 1.308 . S
C880 C879 1.394 . S
C880 H907 0.929 . S
C881 Tb872 2.764 . S
C881 C875 1.504 . S
C881 O893 1.239 . S
C881 O894 1.263 . S
O882 Tb872 2.325 . S
O882 C892 1.236 . S
O883 Tb873 2.322 . S
O883 C892 1.257 . S
O884 Tb873 2.349 . S
O884 C895 1.261 . S
O885 Tb872 2.303 . S
O885 C895 1.257 . S
O886 Tb873 2.415 . S
O886 C902 1.239 . S
O887 Tb873 2.399 . S
O887 C902 1.263 . S
O888 Tb873 2.325 . S
O888 C903 1.236 . S
O889 Tb872 2.322 . S
O889 C903 1.257 . S
O890 Tb872 2.349 . S
O890 C874 1.261 . S
O891 Tb873 2.303 . S
O891 C874 1.257 . S
C892 O882 1.236 . S
C892 O883 1.257 . S
O893 Tb872 2.415 . S
O893 C881 1.239 . S
O894 Tb872 2.399 . S
O894 C881 1.263 . S
C895 O884 1.261 . S
C895 O885 1.257 . S
C896 C899 1.358 . S
C896 C900 1.332 . S
C896 C902 1.504 . S
C897 C898 1.373 . S
C897 C901 1.308 . S
C898 C897 1.373 . S
C898 C899 1.429 . S
C898 H908 0.932 . S
C899 C896 1.358 . S
C899 C898 1.429 . S
C899 H909 0.930 . S
C900 C896 1.332 . S
C900 C901 1.394 . S
C900 H910 0.932 . S
C901 C897 1.308 . S
C901 C900 1.394 . S
C901 H911 0.929 . S
C902 Tb873 2.764 . S
C902 O886 1.239 . S
C902 O887 1.263 . S
C902 C896 1.504 . S
C903 O888 1.236 . S
C903 O889 1.257 . S
H904 C877 0.932 . S
H905 C878 0.930 . S
H906 C879 0.932 . S
H907 C880 0.929 . S
H908 C898 0.932 . S
H909 C899 0.930 . S
H910 C900 0.932 . S
H911 C901 0.929 . S
Tb912 C921 2.764 1_455 S
Tb912 O922 2.325 . S
Tb912 O925 2.303 . S
Tb912 O929 2.322 . S
Tb912 O930 2.349 . S
Tb912 O933 2.415 1_455 S
Tb912 O934 2.399 1_455 S
Tb913 O923 2.322 . S
Tb913 O924 2.349 1_554 S
Tb913 O926 2.415 . S
Tb913 O927 2.399 1_554 S
Tb913 O928 2.325 . S
Tb913 O931 2.303 . S
Tb913 C942 2.764 . S
C914 O930 1.261 . S
C914 O931 1.257 . S
C915 C918 1.358 . S
C915 C919 1.332 . S
C915 C921 1.504 . S
C916 C917 1.373 . S
C916 C920 1.308 . S
C917 C916 1.373 . S
C917 C918 1.429 . S
C917 H944 0.932 . S
C918 C915 1.358 . S
C918 C917 1.429 . S
C918 H945 0.930 . S
C919 C915 1.332 . S
C919 C920 1.394 . S
C919 H946 0.932 . S
C920 C916 1.308 . S
C920 C919 1.394 . S
C920 H947 0.929 . S
C921 Tb912 2.764 1_655 S
C921 C915 1.504 . S
C921 O933 1.239 . S
C921 O934 1.263 . S
O922 Tb912 2.325 . S
O922 C932 1.236 . S
O923 Tb913 2.322 . S
O923 C932 1.257 . S
O924 Tb913 2.349 1_556 S
O924 C935 1.261 . S
O925 Tb912 2.303 . S
O925 C935 1.257 1_554 S
O926 Tb913 2.415 . S
O926 C942 1.239 . S
O927 Tb913 2.399 1_556 S
O927 C942 1.263 1_556 S
O928 Tb913 2.325 . S
O928 C943 1.236 . S
O929 Tb912 2.322 . S
O929 C943 1.257 . S
O930 Tb912 2.349 . S
O930 C914 1.261 . S
O931 Tb913 2.303 . S
O931 C914 1.257 . S
C932 O922 1.236 . S
C932 O923 1.257 . S
O933 Tb912 2.415 1_655 S
O933 C921 1.239 . S
O934 Tb912 2.399 1_655 S
O934 C921 1.263 . S
C935 O924 1.261 . S
C935 O925 1.257 1_556 S
C936 C939 1.358 1_554 S
C936 C940 1.332 . S
C936 C942 1.504 . S
C937 C938 1.373 . S
C937 C941 1.308 1_556 S
C938 C937 1.373 . S
C938 C939 1.429 . S
C938 H948 0.932 . S
C939 C936 1.358 1_556 S
C939 C938 1.429 . S
C939 H949 0.930 . S
C940 C936 1.332 . S
C940 C941 1.394 . S
C940 H950 0.932 . S
C941 C937 1.308 1_554 S
C941 C940 1.394 . S
C941 H951 0.929 . S
C942 Tb913 2.764 . S
C942 O926 1.239 . S
C942 O927 1.263 1_554 S
C942 C936 1.504 . S
C943 O928 1.236 . S
C943 O929 1.257 . S
H944 C917 0.932 . S
H945 C918 0.930 . S
H946 C919 0.932 . S
H947 C920 0.929 . S
H948 C938 0.932 . S
H949 C939 0.930 . S
H950 C940 0.932 . S
H951 C941 0.929 . S
C952 C953 1.349 1_455 S
C952 C954 1.327 . S
C952 H977 0.950 . S
C953 C952 1.349 1_655 S
C953 C969 1.349 . S
C954 C952 1.327 . S
C954 C973 1.429 . S
C954 H978 0.950 . S
C955 C972 1.588 . S
C955 C974 1.368 1_655 S
C955 H979 0.949 . S
H956 C960 0.949 . S
C957 C958 1.349 . S
C957 C959 1.327 . S
C957 H980 0.950 . S
C958 C957 1.349 . S
C958 C970 1.349 1_554 S
C959 C957 1.327 . S
C959 C975 1.429 1_554 S
C959 H981 0.950 1_455 S
C960 H956 0.949 . S
C960 C968 1.574 . S
C960 C976 1.368 . S
H961 C969 0.950 . S
H962 C967 0.950 . S
H963 C968 0.949 . S
H964 C970 0.950 . S
H965 C971 0.950 . S
H966 C972 0.964 1_554 S
C967 H962 0.950 . S
C967 C969 1.327 . S
C967 C973 1.429 1_655 S
C968 C960 1.574 . S
C968 H963 0.949 . S
C968 C974 1.368 . S
C969 C953 1.349 . S
C969 H961 0.950 . S
C969 C967 1.327 . S
C970 C958 1.349 1_556 S
C970 H964 0.950 . S
C970 C971 1.327 . S
C971 H965 0.950 . S
C971 C970 1.327 . S
C971 C975 1.429 . S
C972 C955 1.588 . S
C972 H966 0.964 1_556 S
C972 C976 1.338 1_655 S
C973 C954 1.429 . S
C973 C967 1.429 1_455 S
C973 C974 1.523 . S
C974 C955 1.368 1_455 S
C974 C968 1.368 . S
C974 C973 1.523 . S
C975 C959 1.429 1_556 S
C975 C971 1.429 . S
C975 C976 1.523 . S
C976 C960 1.368 . S
C976 C972 1.338 1_455 S
C976 C975 1.523 . S
H977 C952 0.950 . S
H978 C954 0.950 . S
H979 C955 0.949 . S
H980 C957 0.950 . S
H981 C959 0.950 1_655 S
C982 C983 1.349 . S
C982 C984 1.327 . S
C982 H1007 0.950 . S
C983 C982 1.349 . S
C983 C999 1.349 . S
C984 C982 1.327 . S
C984 C1003 1.429 . S
C984 H1008 0.950 . S
C985 C1002 1.574 . S
C985 C1004 1.368 . S
C985 H1009 0.949 . S
H986 C990 0.949 . S
C987 C988 1.349 . S
C987 C989 1.327 . S
C987 H1010 0.950 . S
C988 C987 1.349 . S
C988 C1000 1.349 . S
C989 C987 1.327 . S
C989 C1005 1.429 . S
C989 H1011 0.950 . S
C990 H986 0.949 . S
C990 C998 1.574 . S
C990 C1006 1.368 . S
H991 C999 0.950 . S
H992 C997 0.950 . S
H993 C998 0.949 . S
H994 C1000 0.950 . S
H995 C1001 0.950 . S
H996 C1002 0.949 . S
C997 H992 0.950 . S
C997 C999 1.327 . S
C997 C1003 1.429 . S
C998 C990 1.574 . S
C998 H993 0.949 . S
C998 C1004 1.368 . S
C999 C983 1.349 . S
C999 H991 0.950 . S
C999 C997 1.327 . S
C1000 C988 1.349 . S
C1000 H994 0.950 . S
C1000 C1001 1.327 . S
C1001 H995 0.950 . S
C1001 C1000 1.327 . S
C1001 C1005 1.429 . S
C1002 C985 1.574 . S
C1002 H996 0.949 . S
C1002 C1006 1.368 . S
C1003 C984 1.429 . S
C1003 C997 1.429 . S
C1003 C1004 1.523 . S
C1004 C985 1.368 . S
C1004 C998 1.368 . S
C1004 C1003 1.523 . S
C1005 C989 1.429 . S
C1005 C1001 1.429 . S
C1005 C1006 1.523 . S
C1006 C990 1.368 . S
C1006 C1002 1.368 . S
C1006 C1005 1.523 . S
H1007 C982 0.950 . S
H1008 C984 0.950 . S
H1009 C985 0.949 . S
H1010 C987 0.950 . S
H1011 C989 0.950 . S
C1012 C1013 1.349 . S
C1012 C1014 1.327 . S
C1012 H1037 0.950 . S
C1013 C1012 1.349 . S
C1013 C1029 1.349 . S
C1014 C1012 1.327 . S
C1014 C1033 1.429 . S
C1014 H1038 0.950 . S
C1015 C1032 1.574 . S
C1015 C1034 1.368 . S
C1015 H1039 0.949 . S
H1016 C1020 0.949 . S
C1017 C1018 1.349 . S
C1017 C1019 1.327 . S
C1017 H1040 0.950 . S
C1018 C1017 1.349 . S
C1018 C1030 1.349 . S
C1019 C1017 1.327 . S
C1019 C1035 1.429 . S
C1019 H1041 0.950 . S
C1020 H1016 0.949 . S
C1020 C1028 1.574 . S
C1020 C1036 1.368 . S
H1021 C1029 0.950 . S
H1022 C1027 0.950 . S
H1023 C1028 0.949 . S
H1024 C1030 0.950 . S
H1025 C1031 0.950 . S
H1026 C1032 0.949 . S
C1027 H1022 0.950 . S
C1027 C1029 1.327 . S
C1027 C1033 1.429 . S
C1028 C1020 1.574 . S
C1028 H1023 0.949 . S
C1028 C1034 1.368 . S
C1029 C1013 1.349 . S
C1029 H1021 0.950 . S
C1029 C1027 1.327 . S
C1030 C1018 1.349 . S
C1030 H1024 0.950 . S
C1030 C1031 1.327 . S
C1031 H1025 0.950 . S
C1031 C1030 1.327 . S
C1031 C1035 1.429 . S
C1032 C1015 1.574 . S
C1032 H1026 0.949 . S
C1032 C1036 1.368 . S
C1033 C1014 1.429 . S
C1033 C1027 1.429 . S
C1033 C1034 1.523 . S
C1034 C1015 1.368 . S
C1034 C1028 1.368 . S
C1034 C1033 1.523 . S
C1035 C1019 1.429 . S
C1035 C1031 1.429 . S
C1035 C1036 1.523 . S
C1036 C1020 1.368 . S
C1036 C1032 1.368 . S
C1036 C1035 1.523 . S
H1037 C1012 0.950 . S
H1038 C1014 0.950 . S
H1039 C1015 0.949 . S
H1040 C1017 0.950 . S
H1041 C1019 0.950 . S
C1042 C1043 1.349 . S
C1042 C1044 1.327 . S
C1042 H1067 0.950 . S
C1043 C1042 1.349 . S
C1043 C1059 1.349 . S
C1044 C1042 1.327 . S
C1044 C1063 1.429 . S
C1044 H1068 0.950 . S
C1045 C1062 1.574 . S
C1045 C1064 1.368 . S
C1045 H1069 0.949 . S
H1046 C1050 0.949 . S
C1047 C1048 1.349 . S
C1047 C1049 1.327 . S
C1047 H1070 0.950 . S
C1048 C1047 1.349 . S
C1048 C1060 1.349 . S
C1049 C1047 1.327 . S
C1049 C1065 1.429 . S
C1049 H1071 0.950 . S
C1050 H1046 0.949 . S
C1050 C1058 1.574 . S
C1050 C1066 1.368 . S
H1051 C1059 0.950 . S
H1052 C1057 0.950 . S
H1053 C1058 0.949 . S
H1054 C1060 0.950 . S
H1055 C1061 0.950 . S
H1056 C1062 0.949 . S
C1057 H1052 0.950 . S
C1057 C1059 1.327 . S
C1057 C1063 1.429 . S
C1058 C1050 1.574 . S
C1058 H1053 0.949 . S
C1058 C1064 1.368 . S
C1059 C1043 1.349 . S
C1059 H1051 0.950 . S
C1059 C1057 1.327 . S
C1060 C1048 1.349 . S
C1060 H1054 0.950 . S
C1060 C1061 1.327 . S
C1061 H1055 0.950 . S
C1061 C1060 1.327 . S
C1061 C1065 1.429 . S
C1062 C1045 1.574 . S
C1062 H1056 0.949 . S
C1062 C1066 1.368 . S
C1063 C1044 1.429 . S
C1063 C1057 1.429 . S
C1063 C1064 1.523 . S
C1064 C1045 1.368 . S
C1064 C1058 1.368 . S
C1064 C1063 1.523 . S
C1065 C1049 1.429 . S
C1065 C1061 1.429 . S
C1065 C1066 1.523 . S
C1066 C1050 1.368 . S
C1066 C1062 1.368 . S
C1066 C1065 1.523 . S
H1067 C1042 0.950 . S
H1068 C1044 0.950 . S
H1069 C1045 0.949 . S
H1070 C1047 0.950 . S
H1071 C1049 0.950 . S
C1072 C1073 1.349 . S
C1072 C1074 1.327 . S
C1072 H1097 0.950 . S
C1073 C1072 1.349 . S
C1073 C1089 1.349 . S
C1074 C1072 1.327 . S
C1074 C1093 1.429 . S
C1074 H1098 0.950 . S
C1075 C1092 1.574 . S
C1075 C1094 1.368 . S
C1075 H1099 0.949 . S
H1076 C1080 0.949 . S
C1077 C1078 1.349 . S
C1077 C1079 1.327 . S
C1077 H1100 0.950 . S
C1078 C1077 1.349 . S
C1078 C1090 1.349 . S
C1079 C1077 1.327 . S
C1079 C1095 1.429 . S
C1079 H1101 0.950 . S
C1080 H1076 0.949 . S
C1080 C1088 1.574 . S
C1080 C1096 1.368 . S
H1081 C1089 0.950 . S
H1082 C1087 0.950 . S
H1083 C1088 0.949 . S
H1084 C1090 0.950 . S
H1085 C1091 0.950 . S
H1086 C1092 0.949 . S
C1087 H1082 0.950 . S
C1087 C1089 1.327 . S
C1087 C1093 1.429 . S
C1088 C1080 1.574 . S
C1088 H1083 0.949 . S
C1088 C1094 1.368 . S
C1089 C1073 1.349 . S
C1089 H1081 0.950 . S
C1089 C1087 1.327 . S
C1090 C1078 1.349 . S
C1090 H1084 0.950 . S
C1090 C1091 1.327 . S
C1091 H1085 0.950 . S
C1091 C1090 1.327 . S
C1091 C1095 1.429 . S
C1092 C1075 1.574 . S
C1092 H1086 0.949 . S
C1092 C1096 1.368 . S
C1093 C1074 1.429 . S
C1093 C1087 1.429 . S
C1093 C1094 1.523 . S
C1094 C1075 1.368 . S
C1094 C1088 1.368 . S
C1094 C1093 1.523 . S
C1095 C1079 1.429 . S
C1095 C1091 1.429 . S
C1095 C1096 1.523 . S
C1096 C1080 1.368 . S
C1096 C1092 1.368 . S
C1096 C1095 1.523 . S
H1097 C1072 0.950 . S
H1098 C1074 0.950 . S
H1099 C1075 0.949 . S
H1100 C1077 0.950 . S
H1101 C1079 0.950 . S
C1102 C1103 1.349 . S
C1102 C1104 1.327 . S
C1102 H1127 0.950 . S
C1103 C1102 1.349 . S
C1103 C1119 1.349 . S
C1104 C1102 1.327 . S
C1104 C1123 1.429 . S
C1104 H1128 0.950 . S
C1105 C1122 1.574 . S
C1105 C1124 1.368 . S
C1105 H1129 0.949 . S
H1106 C1110 0.949 . S
C1107 C1108 1.349 . S
C1107 C1109 1.327 . S
C1107 H1130 0.950 . S
C1108 C1107 1.349 . S
C1108 C1120 1.349 . S
C1109 C1107 1.327 . S
C1109 C1125 1.429 . S
C1109 H1131 0.950 . S
C1110 H1106 0.949 . S
C1110 C1118 1.574 . S
C1110 C1126 1.368 . S
H1111 C1119 0.950 . S
H1112 C1117 0.950 . S
H1113 C1118 0.949 . S
H1114 C1120 0.950 . S
H1115 C1121 0.950 . S
H1116 C1122 0.949 . S
C1117 H1112 0.950 . S
C1117 C1119 1.327 . S
C1117 C1123 1.429 . S
C1118 C1110 1.574 . S
C1118 H1113 0.949 . S
C1118 C1124 1.368 . S
C1119 C1103 1.349 . S
C1119 H1111 0.950 . S
C1119 C1117 1.327 . S
C1120 C1108 1.349 . S
C1120 H1114 0.950 . S
C1120 C1121 1.327 . S
C1121 H1115 0.950 . S
C1121 C1120 1.327 . S
C1121 C1125 1.429 . S
C1122 C1105 1.574 . S
C1122 H1116 0.949 . S
C1122 C1126 1.368 . S
C1123 C1104 1.429 . S
C1123 C1117 1.429 . S
C1123 C1124 1.523 . S
C1124 C1105 1.368 . S
C1124 C1118 1.368 . S
C1124 C1123 1.523 . S
C1125 C1109 1.429 . S
C1125 C1121 1.429 . S
C1125 C1126 1.523 . S
C1126 C1110 1.368 . S
C1126 C1122 1.368 . S
C1126 C1125 1.523 . S
H1127 C1102 0.950 . S
H1128 C1104 0.950 . S
H1129 C1105 0.949 . S
H1130 C1107 0.950 . S
H1131 C1109 0.950 . S
C1132 C1133 1.349 . S
C1132 C1134 1.327 . S
C1132 H1157 0.950 . S
C1133 C1132 1.349 . S
C1133 C1149 1.349 . S
C1134 C1132 1.327 . S
C1134 C1153 1.429 . S
C1134 H1158 0.950 . S
C1135 C1152 1.574 . S
C1135 C1154 1.368 . S
C1135 H1159 0.949 . S
H1136 C1140 0.949 . S
C1137 C1138 1.349 . S
C1137 C1139 1.327 . S
C1137 H1160 0.950 . S
C1138 C1137 1.349 . S
C1138 C1150 1.349 . S
C1139 C1137 1.327 . S
C1139 C1155 1.429 . S
C1139 H1161 0.950 . S
C1140 H1136 0.949 . S
C1140 C1148 1.574 . S
C1140 C1156 1.368 . S
H1141 C1149 0.950 . S
H1142 C1147 0.950 . S
H1143 C1148 0.949 . S
H1144 C1150 0.950 . S
H1145 C1151 0.950 . S
H1146 C1152 0.949 . S
C1147 H1142 0.950 . S
C1147 C1149 1.327 . S
C1147 C1153 1.429 . S
C1148 C1140 1.574 . S
C1148 H1143 0.949 . S
C1148 C1154 1.368 . S
C1149 C1133 1.349 . S
C1149 H1141 0.950 . S
C1149 C1147 1.327 . S
C1150 C1138 1.349 . S
C1150 H1144 0.950 . S
C1150 C1151 1.327 . S
C1151 H1145 0.950 . S
C1151 C1150 1.327 . S
C1151 C1155 1.429 . S
C1152 C1135 1.574 . S
C1152 H1146 0.949 . S
C1152 C1156 1.368 . S
C1153 C1134 1.429 . S
C1153 C1147 1.429 . S
C1153 C1154 1.523 . S
C1154 C1135 1.368 . S
C1154 C1148 1.368 . S
C1154 C1153 1.523 . S
C1155 C1139 1.429 . S
C1155 C1151 1.429 . S
C1155 C1156 1.523 . S
C1156 C1140 1.368 . S
C1156 C1152 1.368 . S
C1156 C1155 1.523 . S
H1157 C1132 0.950 . S
H1158 C1134 0.950 . S
H1159 C1135 0.949 . S
H1160 C1137 0.950 . S
H1161 C1139 0.950 . S
C1162 C1163 1.349 . S
C1162 C1164 1.327 . S
C1162 H1187 0.950 . S
C1163 C1162 1.349 . S
C1163 C1179 1.349 . S
C1164 C1162 1.327 . S
C1164 C1183 1.429 . S
C1164 H1188 0.950 . S
C1165 C1182 1.574 . S
C1165 C1184 1.368 . S
C1165 H1189 0.949 . S
H1166 C1170 0.949 . S
C1167 C1168 1.349 . S
C1167 C1169 1.327 . S
C1167 H1190 0.950 . S
C1168 C1167 1.349 . S
C1168 C1180 1.349 . S
C1169 C1167 1.327 . S
C1169 C1185 1.429 . S
C1169 H1191 0.950 . S
C1170 H1166 0.949 . S
C1170 C1178 1.574 . S
C1170 C1186 1.368 . S
H1171 C1179 0.950 . S
H1172 C1177 0.950 . S
H1173 C1178 0.949 . S
H1174 C1180 0.950 . S
H1175 C1181 0.950 . S
H1176 C1182 0.949 . S
C1177 H1172 0.950 . S
C1177 C1179 1.327 . S
C1177 C1183 1.429 . S
C1178 C1170 1.574 . S
C1178 H1173 0.949 . S
C1178 C1184 1.368 . S
C1179 C1163 1.349 . S
C1179 H1171 0.950 . S
C1179 C1177 1.327 . S
C1180 C1168 1.349 . S
C1180 H1174 0.950 . S
C1180 C1181 1.327 . S
C1181 H1175 0.950 . S
C1181 C1180 1.327 . S
C1181 C1185 1.429 . S
C1182 C1165 1.574 . S
C1182 H1176 0.949 . S
C1182 C1186 1.368 . S
C1183 C1164 1.429 . S
C1183 C1177 1.429 . S
C1183 C1184 1.523 . S
C1184 C1165 1.368 . S
C1184 C1178 1.368 . S
C1184 C1183 1.523 . S
C1185 C1169 1.429 . S
C1185 C1181 1.429 . S
C1185 C1186 1.523 . S
C1186 C1170 1.368 . S
C1186 C1182 1.368 . S
C1186 C1185 1.523 . S
H1187 C1162 0.950 . S
H1188 C1164 0.950 . S
H1189 C1165 0.949 . S
H1190 C1167 0.950 . S
H1191 C1169 0.950 . S
C1192 C1193 1.349 . S
C1192 C1194 1.327 . S
C1192 H1217 0.950 . S
C1193 C1192 1.349 . S
C1193 C1209 1.364 . S
C1194 C1192 1.327 . S
C1194 C1213 1.429 . S
C1194 H1218 0.950 . S
C1195 C1212 1.574 . S
C1195 C1214 1.368 . S
C1195 H1219 0.949 1_545 S
H1196 C1200 0.949 1_455 S
C1197 C1198 1.349 . S
C1197 C1199 1.327 1_455 S
C1197 H1220 0.950 1_455 S
C1198 C1197 1.349 . S
C1198 C1210 1.349 . S
C1199 C1197 1.327 1_655 S
C1199 C1215 1.429 . S
C1199 H1221 0.950 1_545 S
C1200 H1196 0.949 1_655 S
C1200 C1208 1.574 . S
C1200 C1216 1.368 . S
H1201 C1209 0.936 1_565 S
H1202 C1207 0.950 1_565 S
H1203 C1208 0.949 . S
H1204 C1210 0.950 . S
H1205 C1211 0.950 . S
H1206 C1212 0.949 1_565 S
C1207 H1202 0.950 1_545 S
C1207 C1209 1.326 . S
C1207 C1213 1.429 . S
C1208 C1200 1.574 . S
C1208 H1203 0.949 . S
C1208 C1214 1.368 . S
C1209 C1193 1.364 . S
C1209 H1201 0.936 1_545 S
C1209 C1207 1.326 . S
C1210 C1198 1.349 . S
C1210 H1204 0.950 . S
C1210 C1211 1.327 . S
C1211 H1205 0.950 . S
C1211 C1210 1.327 . S
C1211 C1215 1.429 1_455 S
C1212 C1195 1.574 . S
C1212 H1206 0.949 1_545 S
C1212 C1216 1.368 . S
C1213 C1194 1.429 . S
C1213 C1207 1.429 . S
C1213 C1214 1.523 . S
C1214 C1195 1.368 . S
C1214 C1208 1.368 . S
C1214 C1213 1.523 . S
C1215 C1199 1.429 . S
C1215 C1211 1.429 1_655 S
C1215 C1216 1.523 . S
C1216 C1200 1.368 . S
C1216 C1212 1.368 . S
C1216 C1215 1.523 . S
H1217 C1192 0.950 . S
H1218 C1194 0.950 . S
H1219 C1195 0.949 1_565 S
H1220 C1197 0.950 1_655 S
H1221 C1199 0.950 1_565 S
C1222 C1223 1.349 . S
C1222 C1224 1.327 . S
C1222 H1247 0.950 . S
C1223 C1222 1.349 . S
C1223 C1239 1.349 . S
C1224 C1222 1.327 . S
C1224 C1243 1.429 . S
C1224 H1248 0.950 . S
C1225 C1242 1.574 . S
C1225 C1244 1.368 . S
C1225 H1249 0.949 . S
H1226 C1230 0.949 . S
C1227 C1228 1.349 . S
C1227 C1229 1.327 . S
C1227 H1250 0.950 . S
C1228 C1227 1.349 . S
C1228 C1240 1.349 . S
C1229 C1227 1.327 . S
C1229 C1245 1.429 . S
C1229 H1251 0.950 . S
C1230 H1226 0.949 . S
C1230 C1238 1.574 . S
C1230 C1246 1.368 . S
H1231 C1239 0.950 . S
H1232 C1237 0.950 . S
H1233 C1238 0.949 . S
H1234 C1240 0.950 . S
H1235 C1241 0.950 . S
H1236 C1242 0.949 . S
C1237 H1232 0.950 . S
C1237 C1239 1.327 . S
C1237 C1243 1.429 . S
C1238 C1230 1.574 . S
C1238 H1233 0.949 . S
C1238 C1244 1.368 . S
C1239 C1223 1.349 . S
C1239 H1231 0.950 . S
C1239 C1237 1.327 . S
C1240 C1228 1.349 . S
C1240 H1234 0.950 . S
C1240 C1241 1.327 . S
C1241 H1235 0.950 . S
C1241 C1240 1.327 . S
C1241 C1245 1.429 . S
C1242 C1225 1.574 . S
C1242 H1236 0.949 . S
C1242 C1246 1.368 . S
C1243 C1224 1.429 . S
C1243 C1237 1.429 . S
C1243 C1244 1.523 . S
C1244 C1225 1.368 . S
C1244 C1238 1.368 . S
C1244 C1243 1.523 . S
C1245 C1229 1.429 . S
C1245 C1241 1.429 . S
C1245 C1246 1.523 . S
C1246 C1230 1.368 . S
C1246 C1242 1.368 . S
C1246 C1245 1.523 . S
H1247 C1222 0.950 . S
H1248 C1224 0.950 . S
H1249 C1225 0.949 . S
H1250 C1227 0.950 . S
H1251 C1229 0.950 . S
C1252 C1253 1.349 . S
C1252 C1254 1.327 . S
C1252 H1277 0.950 1_545 S
C1253 C1252 1.349 . S
C1253 C1269 1.349 . S
C1254 C1252 1.327 . S
C1254 C1273 1.429 . S
C1254 H1278 0.950 1_545 S
C1255 C1272 1.574 . S
C1255 C1274 1.368 . S
C1255 H1279 0.949 . S
H1256 C1260 0.949 1_565 S
C1257 C1258 1.349 . S
C1257 C1259 1.327 . S
C1257 H1280 0.950 . S
C1258 C1257 1.349 . S
C1258 C1270 1.349 . S
C1259 C1257 1.327 . S
C1259 C1275 1.429 . S
C1259 H1281 0.950 . S
C1260 H1256 0.949 1_545 S
C1260 C1268 1.574 . S
C1260 C1276 1.368 . S
H1261 C1269 0.950 . S
H1262 C1267 0.950 . S
H1263 C1268 0.949 1_565 S
H1264 C1270 0.950 1_565 S
H1265 C1271 0.950 1_565 S
H1266 C1272 0.949 . S
C1267 H1262 0.950 . S
C1267 C1269 1.327 . S
C1267 C1273 1.429 . S
C1268 C1260 1.574 . S
C1268 H1263 0.949 1_545 S
C1268 C1274 1.368 . S
C1269 C1253 1.349 . S
C1269 H1261 0.950 . S
C1269 C1267 1.327 . S
C1270 C1258 1.349 . S
C1270 H1264 0.950 1_545 S
C1270 C1271 1.327 . S
C1271 H1265 0.950 1_545 S
C1271 C1270 1.327 . S
C1271 C1275 1.429 . S
C1272 C1255 1.574 . S
C1272 H1266 0.949 . S
C1272 C1276 1.368 . S
C1273 C1254 1.429 . S
C1273 C1267 1.429 . S
C1273 C1274 1.523 . S
C1274 C1255 1.368 . S
C1274 C1268 1.368 . S
C1274 C1273 1.523 . S
C1275 C1259 1.429 . S
C1275 C1271 1.429 . S
C1275 C1276 1.523 . S
C1276 C1260 1.368 . S
C1276 C1272 1.368 . S
C1276 C1275 1.523 . S
H1277 C1252 0.950 1_565 S
H1278 C1254 0.950 1_565 S
H1279 C1255 0.949 . S
H1280 C1257 0.950 . S
H1281 C1259 0.950 . S
C1282 C1283 1.349 . S
C1282 C1284 1.327 . S
C1282 H1307 0.950 . S
C1283 C1282 1.349 . S
C1283 C1299 1.349 . S
C1284 C1282 1.327 . S
C1284 C1303 1.429 . S
C1284 H1308 0.950 . S
C1285 C1302 1.574 . S
C1285 C1304 1.368 . S
C1285 H1309 0.949 . S
H1286 C1290 0.949 . S
C1287 C1288 1.349 . S
C1287 C1289 1.327 . S
C1287 H1310 0.950 . S
C1288 C1287 1.349 . S
C1288 C1300 1.349 . S
C1289 C1287 1.327 . S
C1289 C1305 1.429 . S
C1289 H1311 0.950 . S
C1290 H1286 0.949 . S
C1290 C1298 1.574 . S
C1290 C1306 1.368 . S
H1291 C1299 0.950 . S
H1292 C1297 0.950 . S
H1293 C1298 0.949 . S
H1294 C1300 0.950 . S
H1295 C1301 0.950 . S
H1296 C1302 0.949 . S
C1297 H1292 0.950 . S
C1297 C1299 1.327 . S
C1297 C1303 1.429 . S
C1298 C1290 1.574 . S
C1298 H1293 0.949 . S
C1298 C1304 1.368 . S
C1299 C1283 1.349 . S
C1299 H1291 0.950 . S
C1299 C1297 1.327 . S
C1300 C1288 1.349 . S
C1300 H1294 0.950 . S
C1300 C1301 1.327 . S
C1301 H1295 0.950 . S
C1301 C1300 1.327 . S
C1301 C1305 1.429 . S
C1302 C1285 1.574 . S
C1302 H1296 0.949 . S
C1302 C1306 1.368 . S
C1303 C1284 1.429 . S
C1303 C1297 1.429 . S
C1303 C1304 1.523 . S
C1304 C1285 1.368 . S
C1304 C1298 1.368 . S
C1304 C1303 1.523 . S
C1305 C1289 1.429 . S
C1305 C1301 1.429 . S
C1305 C1306 1.523 . S
C1306 C1290 1.368 . S
C1306 C1302 1.368 . S
C1306 C1305 1.523 . S
H1307 C1282 0.950 . S
H1308 C1284 0.950 . S
H1309 C1285 0.949 . S
H1310 C1287 0.950 . S
H1311 C1289 0.950 . S
C1312 C1313 1.349 . S
C1312 C1314 1.327 . S
C1312 H1337 0.912 1_545 S
C1313 C1312 1.349 . S
C1313 C1329 1.349 . S
C1314 C1312 1.327 . S
C1314 C1333 1.429 . S
C1314 H1338 0.950 1_545 S
C1315 C1332 1.574 . S
C1315 C1334 1.368 . S
C1315 H1339 0.949 . S
H1316 C1320 0.949 1_565 S
C1317 C1318 1.361 . S
C1317 C1319 1.327 . S
C1317 H1340 0.950 . S
C1318 C1317 1.361 . S
C1318 C1330 1.343 1_655 S
C1319 C1317 1.327 . S
C1319 C1335 1.429 . S
C1319 H1341 0.950 . S
C1320 H1316 0.949 1_545 S
C1320 C1328 1.574 . S
C1320 C1336 1.368 . S
H1321 C1329 0.950 . S
H1322 C1327 0.950 . S
H1323 C1328 0.949 1_565 S
H1324 C1330 0.950 1_565 S
H1325 C1331 0.950 1_565 S
H1326 C1332 0.949 . S
C1327 H1322 0.950 . S
C1327 C1329 1.327 . S
C1327 C1333 1.429 . S
C1328 C1320 1.574 . S
C1328 H1323 0.949 1_545 S
C1328 C1334 1.368 . S
C1329 C1313 1.349 . S
C1329 H1321 0.950 . S
C1329 C1327 1.327 . S
C1330 C1318 1.343 1_455 S
C1330 H1324 0.950 1_545 S
C1330 C1331 1.327 1_455 S
C1331 H1325 0.950 1_545 S
C1331 C1330 1.327 1_655 S
C1331 C1335 1.429 . S
C1332 C1315 1.574 . S
C1332 H1326 0.949 . S
C1332 C1336 1.368 . S
C1333 C1314 1.429 . S
C1333 C1327 1.429 . S
C1333 C1334 1.523 . S
C1334 C1315 1.368 . S
C1334 C1328 1.368 . S
C1334 C1333 1.523 . S
C1335 C1319 1.429 . S
C1335 C1331 1.429 . S
C1335 C1336 1.523 . S
C1336 C1320 1.368 . S
C1336 C1332 1.368 . S
C1336 C1335 1.523 . S
H1337 C1312 0.912 1_565 S
H1338 C1314 0.950 1_565 S
H1339 C1315 0.949 . S
H1340 C1317 0.950 . S
H1341 C1319 0.950 . S
C1342 C1343 1.349 . S
C1342 C1344 1.327 . S
C1342 H1367 0.950 . S
C1343 C1342 1.349 . S
C1343 C1359 1.349 . S
C1344 C1342 1.327 . S
C1344 C1363 1.429 . S
C1344 H1368 0.950 . S
C1345 C1362 1.574 . S
C1345 C1364 1.368 . S
C1345 H1369 0.949 . S
H1346 C1350 0.949 . S
C1347 C1348 1.349 . S
C1347 C1349 1.327 . S
C1347 H1370 0.950 . S
C1348 C1347 1.349 . S
C1348 C1360 1.349 . S
C1349 C1347 1.327 . S
C1349 C1365 1.429 . S
C1349 H1371 0.950 . S
C1350 H1346 0.949 . S
C1350 C1358 1.574 . S
C1350 C1366 1.368 . S
H1351 C1359 0.950 . S
H1352 C1357 0.950 . S
H1353 C1358 0.949 . S
H1354 C1360 0.950 . S
H1355 C1361 0.950 . S
H1356 C1362 0.949 . S
C1357 H1352 0.950 . S
C1357 C1359 1.327 . S
C1357 C1363 1.429 . S
C1358 C1350 1.574 . S
C1358 H1353 0.949 . S
C1358 C1364 1.368 . S
C1359 C1343 1.349 . S
C1359 H1351 0.950 . S
C1359 C1357 1.327 . S
C1360 C1348 1.349 . S
C1360 H1354 0.950 . S
C1360 C1361 1.327 . S
C1361 H1355 0.950 . S
C1361 C1360 1.327 . S
C1361 C1365 1.429 . S
C1362 C1345 1.574 . S
C1362 H1356 0.949 . S
C1362 C1366 1.368 . S
C1363 C1344 1.429 . S
C1363 C1357 1.429 . S
C1363 C1364 1.523 . S
C1364 C1345 1.368 . S
C1364 C1358 1.368 . S
C1364 C1363 1.523 . S
C1365 C1349 1.429 . S
C1365 C1361 1.429 . S
C1365 C1366 1.523 . S
C1366 C1350 1.368 . S
C1366 C1362 1.368 . S
C1366 C1365 1.523 . S
H1367 C1342 0.950 . S
H1368 C1344 0.950 . S
H1369 C1345 0.949 . S
H1370 C1347 0.950 . S
H1371 C1349 0.950 . S
C1372 C1373 1.349 . S
C1372 C1374 1.327 . S
C1372 H1397 0.950 1_545 S
C1373 C1372 1.349 . S
C1373 C1389 1.349 . S
C1374 C1372 1.327 . S
C1374 C1393 1.429 . S
C1374 H1398 0.950 1_545 S
C1375 C1392 1.574 . S
C1375 C1394 1.368 . S
C1375 H1399 0.949 . S
H1376 C1380 0.917 1_565 S
C1377 C1378 1.349 . S
C1377 C1379 1.327 . S
C1377 H1400 0.950 . S
C1378 C1377 1.349 . S
C1378 C1390 1.349 . S
C1379 C1377 1.327 . S
C1379 C1395 1.429 . S
C1379 H1401 0.950 . S
C1380 H1376 0.917 1_545 S
C1380 C1388 1.574 . S
C1380 C1396 1.368 . S
H1381 C1389 0.950 . S
H1382 C1387 0.950 . S
H1383 C1388 0.949 1_565 S
H1384 C1390 0.950 . S
H1385 C1391 0.946 . S
H1386 C1392 0.949 . S
C1387 H1382 0.950 . S
C1387 C1389 1.327 . S
C1387 C1393 1.429 . S
C1388 C1380 1.574 . S
C1388 H1383 0.949 1_545 S
C1388 C1394 1.368 . S
C1389 C1373 1.349 . S
C1389 H1381 0.950 . S
C1389 C1387 1.327 . S
C1390 C1378 1.349 . S
C1390 H1384 0.950 . S
C1390 C1391 1.327 . S
C1391 H1385 0.946 . S
C1391 C1390 1.327 . S
C1391 C1395 1.429 . S
C1392 C1375 1.574 . S
C1392 H1386 0.949 . S
C1392 C1396 1.368 . S
C1393 C1374 1.429 . S
C1393 C1387 1.429 . S
C1393 C1394 1.523 . S
C1394 C1375 1.368 . S
C1394 C1388 1.368 . S
C1394 C1393 1.523 . S
C1395 C1379 1.429 . S
C1395 C1391 1.429 . S
C1395 C1396 1.523 . S
C1396 C1380 1.368 . S
C1396 C1392 1.368 . S
C1396 C1395 1.523 . S
H1397 C1372 0.950 1_565 S
H1398 C1374 0.950 1_565 S
H1399 C1375 0.949 . S
H1400 C1377 0.950 . S
H1401 C1379 0.950 . S
C1402 C1403 1.349 . S
C1402 C1404 1.327 . S
C1402 H1427 0.950 . S
C1403 C1402 1.349 . S
C1403 C1419 1.349 . S
C1404 C1402 1.327 . S
C1404 C1423 1.429 . S
C1404 H1428 0.950 . S
C1405 C1422 1.574 . S
C1405 C1424 1.368 . S
C1405 H1429 0.949 . S
H1406 C1410 0.949 . S
C1407 C1408 1.349 . S
C1407 C1409 1.327 . S
C1407 H1430 0.950 . S
C1408 C1407 1.349 . S
C1408 C1420 1.349 . S
C1409 C1407 1.327 . S
C1409 C1425 1.429 . S
C1409 H1431 0.950 . S
C1410 H1406 0.949 . S
C1410 C1418 1.574 . S
C1410 C1426 1.368 . S
H1411 C1419 0.950 . S
H1412 C1417 0.950 . S
H1413 C1418 0.949 . S
H1414 C1420 0.950 . S
H1415 C1421 0.950 . S
H1416 C1422 0.949 . S
C1417 H1412 0.950 . S
C1417 C1419 1.327 . S
C1417 C1423 1.429 . S
C1418 C1410 1.574 . S
C1418 H1413 0.949 . S
C1418 C1424 1.368 . S
C1419 C1403 1.349 . S
C1419 H1411 0.950 . S
C1419 C1417 1.327 . S
C1420 C1408 1.349 . S
C1420 H1414 0.950 . S
C1420 C1421 1.327 . S
C1421 H1415 0.950 . S
C1421 C1420 1.327 . S
C1421 C1425 1.429 . S
C1422 C1405 1.574 . S
C1422 H1416 0.949 . S
C1422 C1426 1.368 . S
C1423 C1404 1.429 . S
C1423 C1417 1.429 . S
C1423 C1424 1.523 . S
C1424 C1405 1.368 . S
C1424 C1418 1.368 . S
C1424 C1423 1.523 . S
C1425 C1409 1.429 . S
C1425 C1421 1.429 . S
C1425 C1426 1.523 . S
C1426 C1410 1.368 . S
C1426 C1422 1.368 . S
C1426 C1425 1.523 . S
H1427 C1402 0.950 . S
H1428 C1404 0.950 . S
H1429 C1405 0.949 . S
H1430 C1407 0.950 . S
H1431 C1409 0.950 . S
C1432 C1433 1.349 1_556 S
C1432 C1434 1.327 . S
C1432 H1457 0.950 . S
C1433 C1432 1.349 1_554 S
C1433 C1449 1.349 . S
C1434 C1432 1.327 . S
C1434 C1453 1.429 1_556 S
C1434 H1458 0.950 . S
C1435 C1452 1.574 . S
C1435 C1454 1.368 . S
C1435 H1459 0.949 . S
H1436 C1440 0.949 . S
C1437 C1438 1.354 1_565 S
C1437 C1439 1.327 . S
C1437 H1460 0.950 . S
C1438 C1437 1.354 1_545 S
C1438 C1450 1.348 . S
C1439 C1437 1.327 . S
C1439 C1455 1.429 . S
C1439 H1461 0.950 . S
C1440 H1436 0.949 . S
C1440 C1448 1.574 . S
C1440 C1456 1.368 . S
H1441 C1449 0.950 . S
H1442 C1447 0.950 . S
H1443 C1448 0.949 1_556 S
H1444 C1450 0.950 . S
H1445 C1451 0.950 1_545 S
H1446 C1452 0.949 . S
C1447 H1442 0.950 . S
C1447 C1449 1.327 . S
C1447 C1453 1.429 . S
C1448 C1440 1.574 . S
C1448 H1443 0.949 1_554 S
C1448 C1454 1.368 . S
C1449 C1433 1.349 . S
C1449 H1441 0.950 . S
C1449 C1447 1.327 . S
C1450 C1438 1.348 . S
C1450 H1444 0.950 . S
C1450 C1451 1.327 1_545 S
C1451 H1445 0.950 1_565 S
C1451 C1450 1.327 1_565 S
C1451 C1455 1.429 . S
C1452 C1435 1.574 . S
C1452 H1446 0.949 . S
C1452 C1456 1.368 . S
C1453 C1434 1.429 1_554 S
C1453 C1447 1.429 . S
C1453 C1454 1.523 . S
C1454 C1435 1.368 . S
C1454 C1448 1.368 . S
C1454 C1453 1.523 . S
C1455 C1439 1.429 . S
C1455 C1451 1.429 . S
C1455 C1456 1.523 . S
C1456 C1440 1.368 . S
C1456 C1452 1.368 . S
C1456 C1455 1.523 . S
H1457 C1432 0.950 . S
H1458 C1434 0.950 . S
H1459 C1435 0.949 . S
H1460 C1437 0.950 . S
H1461 C1439 0.950 . S
C1462 C1463 1.349 . S
C1462 C1464 1.327 . S
C1462 H1487 0.950 . S
C1463 C1462 1.349 . S
C1463 C1479 1.349 . S
C1464 C1462 1.327 . S
C1464 C1483 1.429 . S
C1464 H1488 0.950 . S
C1465 C1482 1.574 . S
C1465 C1484 1.368 . S
C1465 H1489 0.949 . S
H1466 C1470 0.949 . S
C1467 C1468 1.349 . S
C1467 C1469 1.327 . S
C1467 H1490 0.950 . S
C1468 C1467 1.349 . S
C1468 C1480 1.349 . S
C1469 C1467 1.327 . S
C1469 C1485 1.429 . S
C1469 H1491 0.950 . S
C1470 H1466 0.949 . S
C1470 C1478 1.574 . S
C1470 C1486 1.368 . S
H1471 C1479 0.950 . S
H1472 C1477 0.950 . S
H1473 C1478 0.949 . S
H1474 C1480 0.950 . S
H1475 C1481 0.950 . S
H1476 C1482 0.949 . S
C1477 H1472 0.950 . S
C1477 C1479 1.327 . S
C1477 C1483 1.429 . S
C1478 C1470 1.574 . S
C1478 H1473 0.949 . S
C1478 C1484 1.368 . S
C1479 C1463 1.349 . S
C1479 H1471 0.950 . S
C1479 C1477 1.327 . S
C1480 C1468 1.349 . S
C1480 H1474 0.950 . S
C1480 C1481 1.327 . S
C1481 H1475 0.950 . S
C1481 C1480 1.327 . S
C1481 C1485 1.429 . S
C1482 C1465 1.574 . S
C1482 H1476 0.949 . S
C1482 C1486 1.368 . S
C1483 C1464 1.429 . S
C1483 C1477 1.429 . S
C1483 C1484 1.523 . S
C1484 C1465 1.368 . S
C1484 C1478 1.368 . S
C1484 C1483 1.523 . S
C1485 C1469 1.429 . S
C1485 C1481 1.429 . S
C1485 C1486 1.523 . S
C1486 C1470 1.368 . S
C1486 C1482 1.368 . S
C1486 C1485 1.523 . S
H1487 C1462 0.950 . S
H1488 C1464 0.950 . S
H1489 C1465 0.949 . S
H1490 C1467 0.950 . S
H1491 C1469 0.950 . S
C1492 C1493 1.349 . S
C1492 C1494 1.327 . S
C1492 H1517 0.950 . S
C1493 C1492 1.349 . S
C1493 C1509 1.349 . S
C1494 C1492 1.327 . S
C1494 C1513 1.429 . S
C1494 H1518 0.950 . S
C1495 C1512 1.574 . S
C1495 C1514 1.368 . S
C1495 H1519 0.949 . S
H1496 C1500 0.949 . S
C1497 C1498 1.349 . S
C1497 C1499 1.327 . S
C1497 H1520 0.950 . S
C1498 C1497 1.349 . S
C1498 C1510 1.349 . S
C1499 C1497 1.327 . S
C1499 C1515 1.429 . S
C1499 H1521 0.950 . S
C1500 H1496 0.949 . S
C1500 C1508 1.574 . S
C1500 C1516 1.368 . S
H1501 C1509 0.950 . S
H1502 C1507 0.950 . S
H1503 C1508 0.949 . S
H1504 C1510 0.950 . S
H1505 C1511 0.950 . S
H1506 C1512 0.949 . S
C1507 H1502 0.950 . S
C1507 C1509 1.327 . S
C1507 C1513 1.429 . S
C1508 C1500 1.574 . S
C1508 H1503 0.949 . S
C1508 C1514 1.368 . S
C1509 C1493 1.349 . S
C1509 H1501 0.950 . S
C1509 C1507 1.327 . S
C1510 C1498 1.349 . S
C1510 H1504 0.950 . S
C1510 C1511 1.327 . S
C1511 H1505 0.950 . S
C1511 C1510 1.327 . S
C1511 C1515 1.429 . S
C1512 C1495 1.574 . S
C1512 H1506 0.949 . S
C1512 C1516 1.368 . S
C1513 C1494 1.429 . S
C1513 C1507 1.429 . S
C1513 C1514 1.523 . S
C1514 C1495 1.368 . S
C1514 C1508 1.368 . S
C1514 C1513 1.523 . S
C1515 C1499 1.429 . S
C1515 C1511 1.429 . S
C1515 C1516 1.523 . S
C1516 C1500 1.368 . S
C1516 C1512 1.368 . S
C1516 C1515 1.523 . S
H1517 C1492 0.950 . S
H1518 C1494 0.950 . S
H1519 C1495 0.949 . S
H1520 C1497 0.950 . S
H1521 C1499 0.950 . S
C1522 C1523 1.349 . S
C1522 C1524 1.327 . S
C1522 H1547 0.950 . S
C1523 C1522 1.349 . S
C1523 C1539 1.349 . S
C1524 C1522 1.327 . S
C1524 C1543 1.429 . S
C1524 H1548 0.950 . S
C1525 C1542 1.574 . S
C1525 C1544 1.368 . S
C1525 H1549 0.949 . S
H1526 C1530 0.949 . S
C1527 C1528 1.349 . S
C1527 C1529 1.327 . S
C1527 H1550 0.950 . S
C1528 C1527 1.349 . S
C1528 C1540 1.349 . S
C1529 C1527 1.327 . S
C1529 C1545 1.429 . S
C1529 H1551 0.950 . S
C1530 H1526 0.949 . S
C1530 C1538 1.574 . S
C1530 C1546 1.368 . S
H1531 C1539 0.950 . S
H1532 C1537 0.950 . S
H1533 C1538 0.949 . S
H1534 C1540 0.950 . S
H1535 C1541 0.950 . S
H1536 C1542 0.949 . S
C1537 H1532 0.950 . S
C1537 C1539 1.327 . S
C1537 C1543 1.429 . S
C1538 C1530 1.574 . S
C1538 H1533 0.949 . S
C1538 C1544 1.368 . S
C1539 C1523 1.349 . S
C1539 H1531 0.950 . S
C1539 C1537 1.327 . S
C1540 C1528 1.349 . S
C1540 H1534 0.950 . S
C1540 C1541 1.327 . S
C1541 H1535 0.950 . S
C1541 C1540 1.327 . S
C1541 C1545 1.429 . S
C1542 C1525 1.574 . S
C1542 H1536 0.949 . S
C1542 C1546 1.368 . S
C1543 C1524 1.429 . S
C1543 C1537 1.429 . S
C1543 C1544 1.523 . S
C1544 C1525 1.368 . S
C1544 C1538 1.368 . S
C1544 C1543 1.523 . S
C1545 C1529 1.429 . S
C1545 C1541 1.429 . S
C1545 C1546 1.523 . S
C1546 C1530 1.368 . S
C1546 C1542 1.368 . S
C1546 C1545 1.523 . S
H1547 C1522 0.950 . S
H1548 C1524 0.950 . S
H1549 C1525 0.949 . S
H1550 C1527 0.950 . S
H1551 C1529 0.950 . S
C1552 C1553 1.349 . S
C1552 C1554 1.327 . S
C1552 H1577 0.950 . S
C1553 C1552 1.349 . S
C1553 C1569 1.349 . S
C1554 C1552 1.327 . S
C1554 C1573 1.429 . S
C1554 H1578 0.950 . S
C1555 C1572 1.574 . S
C1555 C1574 1.368 . S
C1555 H1579 0.949 . S
H1556 C1560 0.949 . S
C1557 C1558 1.349 . S
C1557 C1559 1.327 . S
C1557 H1580 0.950 . S
C1558 C1557 1.349 . S
C1558 C1570 1.349 . S
C1559 C1557 1.327 . S
C1559 C1575 1.429 . S
C1559 H1581 0.950 . S
C1560 H1556 0.949 . S
C1560 C1568 1.574 . S
C1560 C1576 1.368 . S
H1561 C1569 0.950 . S
H1562 C1567 0.950 . S
H1563 C1568 0.949 . S
H1564 C1570 0.950 . S
H1565 C1571 0.950 . S
H1566 C1572 0.949 . S
C1567 H1562 0.950 . S
C1567 C1569 1.327 . S
C1567 C1573 1.429 . S
C1568 C1560 1.574 . S
C1568 H1563 0.949 . S
C1568 C1574 1.368 . S
C1569 C1553 1.349 . S
C1569 H1561 0.950 . S
C1569 C1567 1.327 . S
C1570 C1558 1.349 . S
C1570 H1564 0.950 . S
C1570 C1571 1.327 . S
C1571 H1565 0.950 . S
C1571 C1570 1.327 . S
C1571 C1575 1.429 . S
C1572 C1555 1.574 . S
C1572 H1566 0.949 . S
C1572 C1576 1.368 . S
C1573 C1554 1.429 . S
C1573 C1567 1.429 . S
C1573 C1574 1.523 . S
C1574 C1555 1.368 . S
C1574 C1568 1.368 . S
C1574 C1573 1.523 . S
C1575 C1559 1.429 . S
C1575 C1571 1.429 . S
C1575 C1576 1.523 . S
C1576 C1560 1.368 . S
C1576 C1572 1.368 . S
C1576 C1575 1.523 . S
H1577 C1552 0.950 . S
H1578 C1554 0.950 . S
H1579 C1555 0.949 . S
H1580 C1557 0.950 . S
H1581 C1559 0.950 . S
C1582 C1583 1.349 . S
C1582 C1584 1.327 . S
C1582 H1607 0.950 . S
C1583 C1582 1.349 . S
C1583 C1599 1.349 . S
C1584 C1582 1.327 . S
C1584 C1603 1.429 . S
C1584 H1608 0.950 . S
C1585 C1602 1.574 . S
C1585 C1604 1.368 . S
C1585 H1609 0.949 . S
H1586 C1590 0.949 . S
C1587 C1588 1.349 . S
C1587 C1589 1.327 . S
C1587 H1610 0.950 . S
C1588 C1587 1.349 . S
C1588 C1600 1.349 . S
C1589 C1587 1.327 . S
C1589 C1605 1.429 . S
C1589 H1611 0.950 . S
C1590 H1586 0.949 . S
C1590 C1598 1.574 . S
C1590 C1606 1.368 . S
H1591 C1599 0.950 . S
H1592 C1597 0.950 . S
H1593 C1598 0.949 . S
H1594 C1600 0.950 . S
H1595 C1601 0.950 . S
H1596 C1602 0.949 . S
C1597 H1592 0.950 . S
C1597 C1599 1.327 . S
C1597 C1603 1.429 . S
C1598 C1590 1.574 . S
C1598 H1593 0.949 . S
C1598 C1604 1.368 . S
C1599 C1583 1.349 . S
C1599 H1591 0.950 . S
C1599 C1597 1.327 . S
C1600 C1588 1.349 . S
C1600 H1594 0.950 . S
C1600 C1601 1.327 . S
C1601 H1595 0.950 . S
C1601 C1600 1.327 . S
C1601 C1605 1.429 . S
C1602 C1585 1.574 . S
C1602 H1596 0.949 . S
C1602 C1606 1.368 . S
C1603 C1584 1.429 . S
C1603 C1597 1.429 . S
C1603 C1604 1.523 . S
C1604 C1585 1.368 . S
C1604 C1598 1.368 . S
C1604 C1603 1.523 . S
C1605 C1589 1.429 . S
C1605 C1601 1.429 . S
C1605 C1606 1.523 . S
C1606 C1590 1.368 . S
C1606 C1602 1.368 . S
C1606 C1605 1.523 . S
H1607 C1582 0.950 . S
H1608 C1584 0.950 . S
H1609 C1585 0.949 . S
H1610 C1587 0.950 . S
H1611 C1589 0.950 . S
C1612 C1613 1.349 . S
C1612 C1614 1.327 . S
C1612 H1637 0.950 . S
C1613 C1612 1.349 . S
C1613 C1629 1.349 . S
C1614 C1612 1.327 . S
C1614 C1633 1.429 . S
C1614 H1638 0.950 . S
C1615 C1632 1.574 . S
C1615 C1634 1.368 . S
C1615 H1639 0.949 . S
H1616 C1620 0.949 . S
C1617 C1618 1.349 . S
C1617 C1619 1.327 . S
C1617 H1640 0.950 . S
C1618 C1617 1.349 . S
C1618 C1630 1.349 . S
C1619 C1617 1.327 . S
C1619 C1635 1.429 . S
C1619 H1641 0.950 . S
C1620 H1616 0.949 . S
C1620 C1628 1.574 . S
C1620 C1636 1.368 . S
H1621 C1629 0.950 . S
H1622 C1627 0.950 . S
H1623 C1628 0.949 . S
H1624 C1630 0.950 . S
H1625 C1631 0.950 . S
H1626 C1632 0.949 . S
C1627 H1622 0.950 . S
C1627 C1629 1.327 . S
C1627 C1633 1.429 . S
C1628 C1620 1.574 . S
C1628 H1623 0.949 . S
C1628 C1634 1.368 . S
C1629 C1613 1.349 . S
C1629 H1621 0.950 . S
C1629 C1627 1.327 . S
C1630 C1618 1.349 . S
C1630 H1624 0.950 . S
C1630 C1631 1.327 . S
C1631 H1625 0.950 . S
C1631 C1630 1.327 . S
C1631 C1635 1.429 . S
C1632 C1615 1.574 . S
C1632 H1626 0.949 . S
C1632 C1636 1.368 . S
C1633 C1614 1.429 . S
C1633 C1627 1.429 . S
C1633 C1634 1.523 . S
C1634 C1615 1.368 . S
C1634 C1628 1.368 . S
C1634 C1633 1.523 . S
C1635 C1619 1.429 . S
C1635 C1631 1.429 . S
C1635 C1636 1.523 . S
C1636 C1620 1.368 . S
C1636 C1632 1.368 . S
C1636 C1635 1.523 . S
H1637 C1612 0.950 . S
H1638 C1614 0.950 . S
H1639 C1615 0.949 . S
H1640 C1617 0.950 . S
H1641 C1619 0.950 . S
C1642 C1643 1.349 . S
C1642 C1644 1.327 . S
C1642 H1667 0.950 . S
C1643 C1642 1.349 . S
C1643 C1659 1.349 . S
C1644 C1642 1.327 . S
C1644 C1663 1.429 . S
C1644 H1668 0.950 . S
C1645 C1662 1.574 . S
C1645 C1664 1.368 . S
C1645 H1669 0.949 . S
H1646 C1650 0.949 . S
C1647 C1648 1.349 . S
C1647 C1649 1.327 . S
C1647 H1670 0.950 . S
C1648 C1647 1.349 . S
C1648 C1660 1.349 . S
C1649 C1647 1.327 . S
C1649 C1665 1.429 . S
C1649 H1671 0.950 . S
C1650 H1646 0.949 . S
C1650 C1658 1.574 . S
C1650 C1666 1.368 . S
H1651 C1659 0.950 . S
H1652 C1657 0.950 . S
H1653 C1658 0.949 . S
H1654 C1660 0.950 . S
H1655 C1661 0.950 . S
H1656 C1662 0.949 . S
C1657 H1652 0.950 . S
C1657 C1659 1.327 . S
C1657 C1663 1.429 . S
C1658 C1650 1.574 . S
C1658 H1653 0.949 . S
C1658 C1664 1.368 . S
C1659 C1643 1.349 . S
C1659 H1651 0.950 . S
C1659 C1657 1.327 . S
C1660 C1648 1.349 . S
C1660 H1654 0.950 . S
C1660 C1661 1.327 . S
C1661 H1655 0.950 . S
C1661 C1660 1.327 . S
C1661 C1665 1.429 . S
C1662 C1645 1.574 . S
C1662 H1656 0.949 . S
C1662 C1666 1.368 . S
C1663 C1644 1.429 . S
C1663 C1657 1.429 . S
C1663 C1664 1.523 . S
C1664 C1645 1.368 . S
C1664 C1658 1.368 . S
C1664 C1663 1.523 . S
C1665 C1649 1.429 . S
C1665 C1661 1.429 . S
C1665 C1666 1.523 . S
C1666 C1650 1.368 . S
C1666 C1662 1.368 . S
C1666 C1665 1.523 . S
H1667 C1642 0.950 . S
H1668 C1644 0.950 . S
H1669 C1645 0.949 . S
H1670 C1647 0.950 . S
H1671 C1649 0.950 . S
C1672 C1673 1.349 . S
C1672 C1674 1.327 . S
C1672 H1697 0.950 . S
C1673 C1672 1.349 . S
C1673 C1689 1.349 . S
C1674 C1672 1.327 . S
C1674 C1693 1.429 . S
C1674 H1698 0.950 . S
C1675 C1692 1.574 . S
C1675 C1694 1.368 . S
C1675 H1699 0.949 . S
H1676 C1680 0.949 . S
C1677 C1678 1.349 . S
C1677 C1679 1.327 . S
C1677 H1700 0.950 . S
C1678 C1677 1.349 . S
C1678 C1690 1.349 . S
C1679 C1677 1.327 . S
C1679 C1695 1.429 . S
C1679 H1701 0.950 . S
C1680 H1676 0.949 . S
C1680 C1688 1.574 . S
C1680 C1696 1.368 . S
H1681 C1689 0.950 . S
H1682 C1687 0.950 . S
H1683 C1688 0.949 . S
H1684 C1690 0.950 . S
H1685 C1691 0.950 . S
H1686 C1692 0.949 . S
C1687 H1682 0.950 . S
C1687 C1689 1.327 . S
C1687 C1693 1.429 . S
C1688 C1680 1.574 . S
C1688 H1683 0.949 . S
C1688 C1694 1.368 . S
C1689 C1673 1.349 . S
C1689 H1681 0.950 . S
C1689 C1687 1.327 . S
C1690 C1678 1.349 . S
C1690 H1684 0.950 . S
C1690 C1691 1.327 . S
C1691 H1685 0.950 . S
C1691 C1690 1.327 . S
C1691 C1695 1.429 . S
C1692 C1675 1.574 . S
C1692 H1686 0.949 . S
C1692 C1696 1.368 . S
C1693 C1674 1.429 . S
C1693 C1687 1.429 . S
C1693 C1694 1.523 . S
C1694 C1675 1.368 . S
C1694 C1688 1.368 . S
C1694 C1693 1.523 . S
C1695 C1679 1.429 . S
C1695 C1691 1.429 . S
C1695 C1696 1.523 . S
C1696 C1680 1.368 . S
C1696 C1692 1.368 . S
C1696 C1695 1.523 . S
H1697 C1672 0.950 . S
H1698 C1674 0.950 . S
H1699 C1675 0.949 . S
H1700 C1677 0.950 . S
H1701 C1679 0.950 . S
C1702 C1703 1.349 . S
C1702 C1704 1.327 . S
C1702 H1727 0.950 . S
C1703 C1702 1.349 . S
C1703 C1719 1.349 . S
C1704 C1702 1.327 . S
C1704 C1723 1.429 . S
C1704 H1728 0.950 . S
C1705 C1722 1.574 . S
C1705 C1724 1.368 . S
C1705 H1729 0.949 . S
H1706 C1710 0.949 . S
C1707 C1708 1.349 . S
C1707 C1709 1.327 . S
C1707 H1730 0.950 . S
C1708 C1707 1.349 . S
C1708 C1720 1.349 . S
C1709 C1707 1.327 . S
C1709 C1725 1.429 . S
C1709 H1731 0.950 . S
C1710 H1706 0.949 . S
C1710 C1718 1.574 . S
C1710 C1726 1.368 . S
H1711 C1719 0.950 . S
H1712 C1717 0.950 . S
H1713 C1718 0.949 . S
H1714 C1720 0.950 . S
H1715 C1721 0.950 . S
H1716 C1722 0.949 . S
C1717 H1712 0.950 . S
C1717 C1719 1.327 . S
C1717 C1723 1.429 . S
C1718 C1710 1.574 . S
C1718 H1713 0.949 . S
C1718 C1724 1.368 . S
C1719 C1703 1.349 . S
C1719 H1711 0.950 . S
C1719 C1717 1.327 . S
C1720 C1708 1.349 . S
C1720 H1714 0.950 . S
C1720 C1721 1.327 . S
C1721 H1715 0.950 . S
C1721 C1720 1.327 . S
C1721 C1725 1.429 . S
C1722 C1705 1.574 . S
C1722 H1716 0.949 . S
C1722 C1726 1.368 . S
C1723 C1704 1.429 . S
C1723 C1717 1.429 . S
C1723 C1724 1.523 . S
C1724 C1705 1.368 . S
C1724 C1718 1.368 . S
C1724 C1723 1.523 . S
C1725 C1709 1.429 . S
C1725 C1721 1.429 . S
C1725 C1726 1.523 . S
C1726 C1710 1.368 . S
C1726 C1722 1.368 . S
C1726 C1725 1.523 . S
H1727 C1702 0.950 . S
H1728 C1704 0.950 . S
H1729 C1705 0.949 . S
H1730 C1707 0.950 . S
H1731 C1709 0.950 . S
C1732 C1733 1.349 . S
C1732 C1734 1.327 . S
C1732 H1757 0.950 . S
C1733 C1732 1.349 . S
C1733 C1749 1.349 . S
C1734 C1732 1.327 . S
C1734 C1753 1.429 . S
C1734 H1758 0.950 . S
C1735 C1752 1.574 . S
C1735 C1754 1.368 . S
C1735 H1759 0.949 . S
H1736 C1740 0.949 . S
C1737 C1738 1.349 . S
C1737 C1739 1.327 . S
C1737 H1760 0.950 . S
C1738 C1737 1.349 . S
C1738 C1750 1.349 . S
C1739 C1737 1.327 . S
C1739 C1755 1.429 . S
C1739 H1761 0.950 . S
C1740 H1736 0.949 . S
C1740 C1748 1.574 . S
C1740 C1756 1.368 . S
H1741 C1749 0.950 . S
H1742 C1747 0.950 . S
H1743 C1748 0.949 . S
H1744 C1750 0.950 . S
H1745 C1751 0.950 . S
H1746 C1752 0.949 . S
C1747 H1742 0.950 . S
C1747 C1749 1.327 . S
C1747 C1753 1.429 . S
C1748 C1740 1.574 . S
C1748 H1743 0.949 . S
C1748 C1754 1.368 . S
C1749 C1733 1.349 . S
C1749 H1741 0.950 . S
C1749 C1747 1.327 . S
C1750 C1738 1.349 . S
C1750 H1744 0.950 . S
C1750 C1751 1.327 . S
C1751 H1745 0.950 . S
C1751 C1750 1.327 . S
C1751 C1755 1.429 . S
C1752 C1735 1.574 . S
C1752 H1746 0.949 . S
C1752 C1756 1.368 . S
C1753 C1734 1.429 . S
C1753 C1747 1.429 . S
C1753 C1754 1.523 . S
C1754 C1735 1.368 . S
C1754 C1748 1.368 . S
C1754 C1753 1.523 . S
C1755 C1739 1.429 . S
C1755 C1751 1.429 . S
C1755 C1756 1.523 . S
C1756 C1740 1.368 . S
C1756 C1752 1.368 . S
C1756 C1755 1.523 . S
H1757 C1732 0.950 . S
H1758 C1734 0.950 . S
H1759 C1735 0.949 . S
H1760 C1737 0.950 . S
H1761 C1739 0.950 . S
C1762 C1763 1.349 . S
C1762 C1764 1.327 . S
C1762 H1787 0.950 . S
C1763 C1762 1.349 . S
C1763 C1779 1.349 . S
C1764 C1762 1.327 . S
C1764 C1783 1.429 . S
C1764 H1788 0.950 . S
C1765 C1782 1.574 . S
C1765 C1784 1.368 . S
C1765 H1789 0.949 . S
H1766 C1770 0.949 . S
C1767 C1768 1.349 . S
C1767 C1769 1.327 . S
C1767 H1790 0.950 . S
C1768 C1767 1.349 . S
C1768 C1780 1.349 . S
C1769 C1767 1.327 . S
C1769 C1785 1.429 . S
C1769 H1791 0.950 . S
C1770 H1766 0.949 . S
C1770 C1778 1.574 . S
C1770 C1786 1.368 . S
H1771 C1779 0.950 . S
H1772 C1777 0.950 . S
H1773 C1778 0.949 . S
H1774 C1780 0.950 . S
H1775 C1781 0.950 . S
H1776 C1782 0.949 . S
C1777 H1772 0.950 . S
C1777 C1779 1.327 . S
C1777 C1783 1.429 . S
C1778 C1770 1.574 . S
C1778 H1773 0.949 . S
C1778 C1784 1.368 . S
C1779 C1763 1.349 . S
C1779 H1771 0.950 . S
C1779 C1777 1.327 . S
C1780 C1768 1.349 . S
C1780 H1774 0.950 . S
C1780 C1781 1.327 . S
C1781 H1775 0.950 . S
C1781 C1780 1.327 . S
C1781 C1785 1.429 . S
C1782 C1765 1.574 . S
C1782 H1776 0.949 . S
C1782 C1786 1.368 . S
C1783 C1764 1.429 . S
C1783 C1777 1.429 . S
C1783 C1784 1.523 . S
C1784 C1765 1.368 . S
C1784 C1778 1.368 . S
C1784 C1783 1.523 . S
C1785 C1769 1.429 . S
C1785 C1781 1.429 . S
C1785 C1786 1.523 . S
C1786 C1770 1.368 . S
C1786 C1782 1.368 . S
C1786 C1785 1.523 . S
H1787 C1762 0.950 . S
H1788 C1764 0.950 . S
H1789 C1765 0.949 . S
H1790 C1767 0.950 . S
H1791 C1769 0.950 . S
C1792 C1793 1.349 . S
C1792 C1794 1.327 . S
C1792 H1817 0.950 . S
C1793 C1792 1.349 . S
C1793 C1809 1.349 . S
C1794 C1792 1.327 . S
C1794 C1813 1.429 . S
C1794 H1818 0.950 . S
C1795 C1812 1.574 . S
C1795 C1814 1.368 . S
C1795 H1819 0.949 . S
H1796 C1800 0.949 . S
C1797 C1798 1.349 . S
C1797 C1799 1.327 . S
C1797 H1820 0.950 . S
C1798 C1797 1.349 . S
C1798 C1810 1.349 . S
C1799 C1797 1.327 . S
C1799 C1815 1.429 . S
C1799 H1821 0.950 . S
C1800 H1796 0.949 . S
C1800 C1808 1.574 . S
C1800 C1816 1.368 . S
H1801 C1809 0.950 . S
H1802 C1807 0.950 . S
H1803 C1808 0.949 . S
H1804 C1810 0.950 . S
H1805 C1811 0.950 . S
H1806 C1812 0.949 . S
C1807 H1802 0.950 . S
C1807 C1809 1.327 . S
C1807 C1813 1.429 . S
C1808 C1800 1.574 . S
C1808 H1803 0.949 . S
C1808 C1814 1.368 . S
C1809 C1793 1.349 . S
C1809 H1801 0.950 . S
C1809 C1807 1.327 . S
C1810 C1798 1.349 . S
C1810 H1804 0.950 . S
C1810 C1811 1.327 . S
C1811 H1805 0.950 . S
C1811 C1810 1.327 . S
C1811 C1815 1.429 . S
C1812 C1795 1.574 . S
C1812 H1806 0.949 . S
C1812 C1816 1.368 . S
C1813 C1794 1.429 . S
C1813 C1807 1.429 . S
C1813 C1814 1.523 . S
C1814 C1795 1.368 . S
C1814 C1808 1.368 . S
C1814 C1813 1.523 . S
C1815 C1799 1.429 . S
C1815 C1811 1.429 . S
C1815 C1816 1.523 . S
C1816 C1800 1.368 . S
C1816 C1812 1.368 . S
C1816 C1815 1.523 . S
H1817 C1792 0.950 . S
H1818 C1794 0.950 . S
H1819 C1795 0.949 . S
H1820 C1797 0.950 . S
H1821 C1799 0.950 . S
C1822 C1823 1.349 . S
C1822 C1824 1.327 . S
C1822 H1847 0.950 . S
C1823 C1822 1.349 . S
C1823 C1839 1.349 . S
C1824 C1822 1.327 . S
C1824 C1843 1.429 . S
C1824 H1848 0.950 . S
C1825 C1842 1.574 . S
C1825 C1844 1.368 . S
C1825 H1849 0.949 . S
H1826 C1830 0.949 . S
C1827 C1828 1.349 . S
C1827 C1829 1.327 . S
C1827 H1850 0.950 . S
C1828 C1827 1.349 . S
C1828 C1840 1.349 . S
C1829 C1827 1.327 . S
C1829 C1845 1.429 . S
C1829 H1851 0.950 . S
C1830 H1826 0.949 . S
C1830 C1838 1.574 . S
C1830 C1846 1.368 . S
H1831 C1839 0.950 . S
H1832 C1837 0.950 . S
H1833 C1838 0.949 . S
H1834 C1840 0.950 . S
H1835 C1841 0.950 . S
H1836 C1842 0.949 . S
C1837 H1832 0.950 . S
C1837 C1839 1.327 . S
C1837 C1843 1.429 . S
C1838 C1830 1.574 . S
C1838 H1833 0.949 . S
C1838 C1844 1.368 . S
C1839 C1823 1.349 . S
C1839 H1831 0.950 . S
C1839 C1837 1.327 . S
C1840 C1828 1.349 . S
C1840 H1834 0.950 . S
C1840 C1841 1.327 . S
C1841 H1835 0.950 . S
C1841 C1840 1.327 . S
C1841 C1845 1.429 . S
C1842 C1825 1.574 . S
C1842 H1836 0.949 . S
C1842 C1846 1.368 . S
C1843 C1824 1.429 . S
C1843 C1837 1.429 . S
C1843 C1844 1.523 . S
C1844 C1825 1.368 . S
C1844 C1838 1.368 . S
C1844 C1843 1.523 . S
C1845 C1829 1.429 . S
C1845 C1841 1.429 . S
C1845 C1846 1.523 . S
C1846 C1830 1.368 . S
C1846 C1842 1.368 . S
C1846 C1845 1.523 . S
H1847 C1822 0.950 . S
H1848 C1824 0.950 . S
H1849 C1825 0.949 . S
H1850 C1827 0.950 . S
H1851 C1829 0.950 . S
C1852 C1853 1.349 . S
C1852 C1854 1.327 . S
C1852 H1877 0.950 . S
C1853 C1852 1.349 . S
C1853 C1869 1.349 . S
C1854 C1852 1.327 . S
C1854 C1873 1.429 . S
C1854 H1878 0.950 . S
C1855 C1872 1.574 . S
C1855 C1874 1.368 . S
C1855 H1879 0.949 . S
H1856 C1860 0.949 . S
C1857 C1858 1.349 . S
C1857 C1859 1.327 . S
C1857 H1880 0.950 . S
C1858 C1857 1.349 . S
C1858 C1870 1.349 1_556 S
C1859 C1857 1.327 . S
C1859 C1875 1.429 . S
C1859 H1881 0.950 . S
C1860 H1856 0.949 . S
C1860 C1868 1.574 . S
C1860 C1876 1.368 . S
H1861 C1869 0.950 . S
H1862 C1867 0.950 . S
H1863 C1868 0.949 . S
H1864 C1870 0.950 . S
H1865 C1871 0.977 . S
H1866 C1872 0.949 . S
C1867 H1862 0.950 . S
C1867 C1869 1.327 . S
C1867 C1873 1.429 . S
C1868 C1860 1.574 . S
C1868 H1863 0.949 . S
C1868 C1874 1.368 . S
C1869 C1853 1.349 . S
C1869 H1861 0.950 . S
C1869 C1867 1.327 . S
C1870 C1858 1.349 1_554 S
C1870 H1864 0.950 . S
C1870 C1871 1.327 1_554 S
C1871 H1865 0.977 . S
C1871 C1870 1.327 1_556 S
C1871 C1875 1.429 . S
C1872 C1855 1.574 . S
C1872 H1866 0.949 . S
C1872 C1876 1.368 . S
C1873 C1854 1.429 . S
C1873 C1867 1.429 . S
C1873 C1874 1.523 . S
C1874 C1855 1.368 . S
C1874 C1868 1.368 . S
C1874 C1873 1.523 . S
C1875 C1859 1.429 . S
C1875 C1871 1.429 . S
C1875 C1876 1.523 . S
C1876 C1860 1.368 . S
C1876 C1872 1.368 . S
C1876 C1875 1.523 . S
H1877 C1852 0.950 . S
H1878 C1854 0.950 . S
H1879 C1855 0.949 . S
H1880 C1857 0.950 . S
H1881 C1859 0.950 . S
C1882 C1883 1.349 . S
C1882 C1884 1.327 . S
C1882 H1907 0.950 . S
C1883 C1882 1.349 . S
C1883 C1899 1.349 . S
C1884 C1882 1.327 . S
C1884 C1903 1.429 . S
C1884 H1908 0.950 . S
C1885 C1902 1.574 . S
C1885 C1904 1.368 . S
C1885 H1909 0.949 . S
H1886 C1890 0.949 . S
C1887 C1888 1.349 . S
C1887 C1889 1.327 . S
C1887 H1910 0.950 . S
C1888 C1887 1.349 . S
C1888 C1900 1.349 . S
C1889 C1887 1.327 . S
C1889 C1905 1.429 . S
C1889 H1911 0.950 . S
C1890 H1886 0.949 . S
C1890 C1898 1.574 . S
C1890 C1906 1.368 . S
H1891 C1899 0.950 . S
H1892 C1897 0.950 . S
H1893 C1898 0.949 . S
H1894 C1900 0.950 . S
H1895 C1901 0.950 . S
H1896 C1902 0.949 . S
C1897 H1892 0.950 . S
C1897 C1899 1.327 . S
C1897 C1903 1.429 . S
C1898 C1890 1.574 . S
C1898 H1893 0.949 . S
C1898 C1904 1.368 . S
C1899 C1883 1.349 . S
C1899 H1891 0.950 . S
C1899 C1897 1.327 . S
C1900 C1888 1.349 . S
C1900 H1894 0.950 . S
C1900 C1901 1.327 . S
C1901 H1895 0.950 . S
C1901 C1900 1.327 . S
C1901 C1905 1.429 . S
C1902 C1885 1.574 . S
C1902 H1896 0.949 . S
C1902 C1906 1.368 . S
C1903 C1884 1.429 . S
C1903 C1897 1.429 . S
C1903 C1904 1.523 . S
C1904 C1885 1.368 . S
C1904 C1898 1.368 . S
C1904 C1903 1.523 . S
C1905 C1889 1.429 . S
C1905 C1901 1.429 . S
C1905 C1906 1.523 . S
C1906 C1890 1.368 . S
C1906 C1902 1.368 . S
C1906 C1905 1.523 . S
H1907 C1882 0.950 . S
H1908 C1884 0.950 . S
H1909 C1885 0.949 . S
H1910 C1887 0.950 . S
H1911 C1889 0.950 . S
C1912 C1913 1.349 . S
C1912 C1914 1.327 . S
C1912 H1937 0.950 . S
C1913 C1912 1.349 . S
C1913 C1929 1.349 . S
C1914 C1912 1.327 . S
C1914 C1933 1.429 . S
C1914 H1938 0.950 . S
C1915 C1932 1.574 . S
C1915 C1934 1.368 . S
C1915 H1939 0.949 . S
H1916 C1920 0.949 . S
C1917 C1918 1.349 . S
C1917 C1919 1.327 . S
C1917 H1940 0.950 1_545 S
C1918 C1917 1.349 . S
C1918 C1930 1.349 . S
C1919 C1917 1.327 . S
C1919 C1935 1.429 . S
C1919 H1941 0.950 1_545 S
C1920 H1916 0.949 . S
C1920 C1928 1.574 . S
C1920 C1936 1.368 . S
H1921 C1929 0.950 . S
H1922 C1927 0.950 . S
H1923 C1928 0.949 . S
H1924 C1930 0.950 . S
H1925 C1931 0.950 . S
H1926 C1932 0.949 . S
C1927 H1922 0.950 . S
C1927 C1929 1.327 . S
C1927 C1933 1.429 . S
C1928 C1920 1.574 . S
C1928 H1923 0.949 . S
C1928 C1934 1.368 . S
C1929 C1913 1.349 . S
C1929 H1921 0.950 . S
C1929 C1927 1.327 . S
C1930 C1918 1.349 . S
C1930 H1924 0.950 . S
C1930 C1931 1.327 . S
C1931 H1925 0.950 . S
C1931 C1930 1.327 . S
C1931 C1935 1.429 . S
C1932 C1915 1.574 . S
C1932 H1926 0.949 . S
C1932 C1936 1.368 . S
C1933 C1914 1.429 . S
C1933 C1927 1.429 . S
C1933 C1934 1.523 . S
C1934 C1915 1.368 . S
C1934 C1928 1.368 . S
C1934 C1933 1.523 . S
C1935 C1919 1.429 . S
C1935 C1931 1.429 . S
C1935 C1936 1.523 . S
C1936 C1920 1.368 . S
C1936 C1932 1.368 . S
C1936 C1935 1.523 . S
H1937 C1912 0.950 . S
H1938 C1914 0.950 . S
H1939 C1915 0.949 . S
H1940 C1917 0.950 1_565 S
H1941 C1919 0.950 1_565 S
C1942 C1943 1.349 . S
C1942 C1944 1.327 . S
C1942 H1967 0.950 . S
C1943 C1942 1.349 . S
C1943 C1959 1.349 . S
C1944 C1942 1.327 . S
C1944 C1963 1.429 . S
C1944 H1968 0.950 . S
C1945 C1962 1.574 . S
C1945 C1964 1.368 . S
C1945 H1969 0.949 . S
H1946 C1950 0.949 . S
C1947 C1948 1.349 . S
C1947 C1949 1.327 . S
C1947 H1970 0.950 . S
C1948 C1947 1.349 . S
C1948 C1960 1.349 . S
C1949 C1947 1.327 . S
C1949 C1965 1.429 . S
C1949 H1971 0.950 . S
C1950 H1946 0.949 . S
C1950 C1958 1.574 . S
C1950 C1966 1.368 . S
H1951 C1959 0.950 . S
H1952 C1957 0.950 . S
H1953 C1958 0.949 . S
H1954 C1960 0.950 . S
H1955 C1961 0.950 . S
H1956 C1962 0.949 . S
C1957 H1952 0.950 . S
C1957 C1959 1.327 . S
C1957 C1963 1.429 . S
C1958 C1950 1.574 . S
C1958 H1953 0.949 . S
C1958 C1964 1.368 . S
C1959 C1943 1.349 . S
C1959 H1951 0.950 . S
C1959 C1957 1.327 . S
C1960 C1948 1.349 . S
C1960 H1954 0.950 . S
C1960 C1961 1.327 . S
C1961 H1955 0.950 . S
C1961 C1960 1.327 . S
C1961 C1965 1.429 . S
C1962 C1945 1.574 . S
C1962 H1956 0.949 . S
C1962 C1966 1.368 . S
C1963 C1944 1.429 . S
C1963 C1957 1.429 . S
C1963 C1964 1.523 . S
C1964 C1945 1.368 . S
C1964 C1958 1.368 . S
C1964 C1963 1.523 . S
C1965 C1949 1.429 . S
C1965 C1961 1.429 . S
C1965 C1966 1.523 . S
C1966 C1950 1.368 . S
C1966 C1962 1.368 . S
C1966 C1965 1.523 . S
H1967 C1942 0.950 . S
H1968 C1944 0.950 . S
H1969 C1945 0.949 . S
H1970 C1947 0.950 . S
H1971 C1949 0.950 . S
C1972 C1973 1.349 . S
C1972 C1974 1.327 . S
C1972 H1997 0.950 . S
C1973 C1972 1.349 . S
C1973 C1989 1.349 . S
C1974 C1972 1.327 . S
C1974 C1993 1.429 . S
C1974 H1998 0.950 . S
C1975 C1992 1.574 . S
C1975 C1994 1.368 . S
C1975 H1999 0.949 . S
H1976 C1980 0.949 . S
C1977 C1978 1.349 . S
C1977 C1979 1.327 . S
C1977 H2000 0.950 . S
C1978 C1977 1.349 . S
C1978 C1990 1.349 . S
C1979 C1977 1.327 . S
C1979 C1995 1.429 . S
C1979 H2001 0.950 . S
C1980 H1976 0.949 . S
C1980 C1988 1.574 . S
C1980 C1996 1.368 . S
H1981 C1989 0.950 . S
H1982 C1987 0.950 . S
H1983 C1988 0.949 . S
H1984 C1990 0.950 . S
H1985 C1991 0.950 . S
H1986 C1992 0.949 . S
C1987 H1982 0.950 . S
C1987 C1989 1.327 . S
C1987 C1993 1.429 . S
C1988 C1980 1.574 . S
C1988 H1983 0.949 . S
C1988 C1994 1.368 . S
C1989 C1973 1.349 . S
C1989 H1981 0.950 . S
C1989 C1987 1.327 . S
C1990 C1978 1.349 . S
C1990 H1984 0.950 . S
C1990 C1991 1.327 . S
C1991 H1985 0.950 . S
C1991 C1990 1.327 . S
C1991 C1995 1.429 . S
C1992 C1975 1.574 . S
C1992 H1986 0.949 . S
C1992 C1996 1.368 . S
C1993 C1974 1.429 . S
C1993 C1987 1.429 . S
C1993 C1994 1.523 . S
C1994 C1975 1.368 . S
C1994 C1988 1.368 . S
C1994 C1993 1.523 . S
C1995 C1979 1.429 . S
C1995 C1991 1.429 . S
C1995 C1996 1.523 . S
C1996 C1980 1.368 . S
C1996 C1992 1.368 . S
C1996 C1995 1.523 . S
H1997 C1972 0.950 . S
H1998 C1974 0.950 . S
H1999 C1975 0.949 . S
H2000 C1977 0.950 . S
H2001 C1979 0.950 . S
C2002 C2003 1.349 . S
C2002 C2004 1.327 . S
C2002 H2027 0.950 . S
C2003 C2002 1.349 . S
C2003 C2019 1.349 . S
C2004 C2002 1.327 . S
C2004 C2023 1.429 . S
C2004 H2028 0.950 . S
C2005 C2022 1.574 . S
C2005 C2024 1.368 . S
C2005 H2029 0.949 . S
H2006 C2010 0.949 . S
C2007 C2008 1.349 . S
C2007 C2009 1.327 . S
C2007 H2030 0.950 . S
C2008 C2007 1.349 . S
C2008 C2020 1.349 . S
C2009 C2007 1.327 . S
C2009 C2025 1.429 . S
C2009 H2031 0.950 . S
C2010 H2006 0.949 . S
C2010 C2018 1.574 . S
C2010 C2026 1.368 . S
H2011 C2019 0.950 . S
H2012 C2017 0.950 . S
H2013 C2018 0.949 . S
H2014 C2020 0.950 . S
H2015 C2021 0.950 . S
H2016 C2022 0.949 . S
C2017 H2012 0.950 . S
C2017 C2019 1.327 . S
C2017 C2023 1.429 . S
C2018 C2010 1.574 . S
C2018 H2013 0.949 . S
C2018 C2024 1.368 . S
C2019 C2003 1.349 . S
C2019 H2011 0.950 . S
C2019 C2017 1.327 . S
C2020 C2008 1.349 . S
C2020 H2014 0.950 . S
C2020 C2021 1.327 . S
C2021 H2015 0.950 . S
C2021 C2020 1.327 . S
C2021 C2025 1.429 . S
C2022 C2005 1.574 . S
C2022 H2016 0.949 . S
C2022 C2026 1.368 . S
C2023 C2004 1.429 . S
C2023 C2017 1.429 . S
C2023 C2024 1.523 . S
C2024 C2005 1.368 . S
C2024 C2018 1.368 . S
C2024 C2023 1.523 . S
C2025 C2009 1.429 . S
C2025 C2021 1.429 . S
C2025 C2026 1.523 . S
C2026 C2010 1.368 . S
C2026 C2022 1.368 . S
C2026 C2025 1.523 . S
H2027 C2002 0.950 . S
H2028 C2004 0.950 . S
H2029 C2005 0.949 . S
H2030 C2007 0.950 . S
H2031 C2009 0.950 . S
C2032 C2033 1.349 . S
C2032 C2034 1.327 . S
C2032 H2057 0.950 . S
C2033 C2032 1.349 . S
C2033 C2049 1.349 . S
C2034 C2032 1.327 . S
C2034 C2053 1.429 . S
C2034 H2058 0.950 . S
C2035 C2052 1.574 . S
C2035 C2054 1.368 . S
C2035 H2059 0.949 . S
H2036 C2040 0.949 . S
C2037 C2038 1.349 . S
C2037 C2039 1.327 . S
C2037 H2060 0.950 . S
C2038 C2037 1.349 . S
C2038 C2050 1.349 . S
C2039 C2037 1.327 . S
C2039 C2055 1.429 . S
C2039 H2061 0.950 . S
C2040 H2036 0.949 . S
C2040 C2048 1.574 . S
C2040 C2056 1.368 . S
H2041 C2049 0.950 . S
H2042 C2047 0.950 . S
H2043 C2048 0.949 . S
H2044 C2050 0.950 . S
H2045 C2051 0.950 . S
H2046 C2052 0.949 . S
C2047 H2042 0.950 . S
C2047 C2049 1.327 . S
C2047 C2053 1.429 . S
C2048 C2040 1.574 . S
C2048 H2043 0.949 . S
C2048 C2054 1.368 . S
C2049 C2033 1.349 . S
C2049 H2041 0.950 . S
C2049 C2047 1.327 . S
C2050 C2038 1.349 . S
C2050 H2044 0.950 . S
C2050 C2051 1.327 . S
C2051 H2045 0.950 . S
C2051 C2050 1.327 . S
C2051 C2055 1.429 . S
C2052 C2035 1.574 . S
C2052 H2046 0.949 . S
C2052 C2056 1.368 . S
C2053 C2034 1.429 . S
C2053 C2047 1.429 . S
C2053 C2054 1.523 . S
C2054 C2035 1.368 . S
C2054 C2048 1.368 . S
C2054 C2053 1.523 . S
C2055 C2039 1.429 . S
C2055 C2051 1.429 . S
C2055 C2056 1.523 . S
C2056 C2040 1.368 . S
C2056 C2052 1.368 . S
C2056 C2055 1.523 . S
H2057 C2032 0.950 . S
H2058 C2034 0.950 . S
H2059 C2035 0.949 . S
H2060 C2037 0.950 . S
H2061 C2039 0.950 . S
C2062 C2063 1.349 . S
C2062 C2064 1.327 . S
C2062 H2087 0.950 . S
C2063 C2062 1.349 . S
C2063 C2079 1.349 . S
C2064 C2062 1.327 . S
C2064 C2083 1.429 . S
C2064 H2088 0.950 . S
C2065 C2082 1.574 . S
C2065 C2084 1.368 . S
C2065 H2089 0.949 . S
H2066 C2070 0.949 . S
C2067 C2068 1.349 . S
C2067 C2069 1.327 . S
C2067 H2090 0.950 . S
C2068 C2067 1.349 . S
C2068 C2080 1.349 . S
C2069 C2067 1.327 . S
C2069 C2085 1.429 . S
C2069 H2091 0.950 . S
C2070 H2066 0.949 . S
C2070 C2078 1.574 . S
C2070 C2086 1.368 . S
H2071 C2079 0.950 . S
H2072 C2077 0.950 . S
H2073 C2078 0.949 . S
H2074 C2080 0.950 . S
H2075 C2081 0.950 . S
H2076 C2082 0.949 . S
C2077 H2072 0.950 . S
C2077 C2079 1.327 . S
C2077 C2083 1.429 . S
C2078 C2070 1.574 . S
C2078 H2073 0.949 . S
C2078 C2084 1.368 . S
C2079 C2063 1.349 . S
C2079 H2071 0.950 . S
C2079 C2077 1.327 . S
C2080 C2068 1.349 . S
C2080 H2074 0.950 . S
C2080 C2081 1.327 . S
C2081 H2075 0.950 . S
C2081 C2080 1.327 . S
C2081 C2085 1.429 . S
C2082 C2065 1.574 . S
C2082 H2076 0.949 . S
C2082 C2086 1.368 . S
C2083 C2064 1.429 . S
C2083 C2077 1.429 . S
C2083 C2084 1.523 . S
C2084 C2065 1.368 . S
C2084 C2078 1.368 . S
C2084 C2083 1.523 . S
C2085 C2069 1.429 . S
C2085 C2081 1.429 . S
C2085 C2086 1.523 . S
C2086 C2070 1.368 . S
C2086 C2082 1.368 . S
C2086 C2085 1.523 . S
H2087 C2062 0.950 . S
H2088 C2064 0.950 . S
H2089 C2065 0.949 . S
H2090 C2067 0.950 . S
H2091 C2069 0.950 . S
C2092 C2093 1.349 . S
C2092 C2094 1.327 . S
C2092 H2117 0.950 . S
C2093 C2092 1.349 . S
C2093 C2109 1.349 . S
C2094 C2092 1.327 . S
C2094 C2113 1.429 . S
C2094 H2118 0.944 1_545 S
C2095 C2112 1.574 . S
C2095 C2114 1.368 . S
C2095 H2119 0.949 . S
H2096 C2100 0.949 1_565 S
C2097 C2098 1.349 . S
C2097 C2099 1.327 . S
C2097 H2120 0.950 . S
C2098 C2097 1.349 . S
C2098 C2110 1.349 . S
C2099 C2097 1.327 . S
C2099 C2115 1.429 . S
C2099 H2121 0.950 . S
C2100 H2096 0.949 1_545 S
C2100 C2108 1.574 . S
C2100 C2116 1.368 . S
H2101 C2109 0.950 . S
H2102 C2107 0.950 . S
H2103 C2108 0.949 1_565 S
H2104 C2110 0.950 1_565 S
H2105 C2111 0.950 1_565 S
H2106 C2112 0.949 . S
C2107 H2102 0.950 . S
C2107 C2109 1.327 . S
C2107 C2113 1.429 . S
C2108 C2100 1.574 . S
C2108 H2103 0.949 1_545 S
C2108 C2114 1.368 . S
C2109 C2093 1.349 . S
C2109 H2101 0.950 . S
C2109 C2107 1.327 . S
C2110 C2098 1.349 . S
C2110 H2104 0.950 1_545 S
C2110 C2111 1.327 . S
C2111 H2105 0.950 1_545 S
C2111 C2110 1.327 . S
C2111 C2115 1.429 . S
C2112 C2095 1.574 . S
C2112 H2106 0.949 . S
C2112 C2116 1.368 . S
C2113 C2094 1.429 . S
C2113 C2107 1.429 . S
C2113 C2114 1.523 . S
C2114 C2095 1.368 . S
C2114 C2108 1.368 . S
C2114 C2113 1.523 . S
C2115 C2099 1.429 . S
C2115 C2111 1.429 . S
C2115 C2116 1.523 . S
C2116 C2100 1.368 . S
C2116 C2112 1.368 . S
C2116 C2115 1.523 . S
H2117 C2092 0.950 . S
H2118 C2094 0.944 1_565 S
H2119 C2095 0.949 . S
H2120 C2097 0.950 . S
H2121 C2099 0.950 . S
C2122 C2123 1.349 . S
C2122 C2124 1.327 . S
C2122 H2147 0.950 . S
C2123 C2122 1.349 . S
C2123 C2139 1.349 . S
C2124 C2122 1.327 . S
C2124 C2143 1.429 . S
C2124 H2148 0.950 . S
C2125 C2142 1.574 . S
C2125 C2144 1.368 . S
C2125 H2149 0.949 . S
H2126 C2130 0.949 . S
C2127 C2128 1.349 . S
C2127 C2129 1.327 . S
C2127 H2150 0.950 . S
C2128 C2127 1.349 . S
C2128 C2140 1.349 . S
C2129 C2127 1.327 . S
C2129 C2145 1.429 . S
C2129 H2151 0.950 . S
C2130 H2126 0.949 . S
C2130 C2138 1.574 . S
C2130 C2146 1.368 . S
H2131 C2139 0.950 . S
H2132 C2137 0.950 . S
H2133 C2138 0.949 . S
H2134 C2140 0.950 . S
H2135 C2141 0.950 . S
H2136 C2142 0.949 . S
C2137 H2132 0.950 . S
C2137 C2139 1.327 . S
C2137 C2143 1.429 . S
C2138 C2130 1.574 . S
C2138 H2133 0.949 . S
C2138 C2144 1.368 . S
C2139 C2123 1.349 . S
C2139 H2131 0.950 . S
C2139 C2137 1.327 . S
C2140 C2128 1.349 . S
C2140 H2134 0.950 . S
C2140 C2141 1.327 . S
C2141 H2135 0.950 . S
C2141 C2140 1.327 . S
C2141 C2145 1.429 . S
C2142 C2125 1.574 . S
C2142 H2136 0.949 . S
C2142 C2146 1.368 . S
C2143 C2124 1.429 . S
C2143 C2137 1.429 . S
C2143 C2144 1.523 . S
C2144 C2125 1.368 . S
C2144 C2138 1.368 . S
C2144 C2143 1.523 . S
C2145 C2129 1.429 . S
C2145 C2141 1.429 . S
C2145 C2146 1.523 . S
C2146 C2130 1.368 . S
C2146 C2142 1.368 . S
C2146 C2145 1.523 . S
H2147 C2122 0.950 . S
H2148 C2124 0.950 . S
H2149 C2125 0.949 . S
H2150 C2127 0.950 . S
H2151 C2129 0.950 . S
C2152 C2153 1.349 . S
C2152 C2154 1.327 . S
C2152 H2177 0.950 . S
C2153 C2152 1.349 . S
C2153 C2169 1.349 . S
C2154 C2152 1.327 . S
C2154 C2173 1.429 . S
C2154 H2178 0.950 . S
C2155 C2172 1.574 . S
C2155 C2174 1.368 . S
C2155 H2179 0.949 . S
H2156 C2160 0.949 . S
C2157 C2158 1.349 . S
C2157 C2159 1.327 . S
C2157 H2180 0.950 . S
C2158 C2157 1.349 . S
C2158 C2170 1.337 1_556 S
C2159 C2157 1.327 . S
C2159 C2175 1.429 1_556 S
C2159 H2181 0.950 . S
C2160 H2156 0.949 . S
C2160 C2168 1.574 . S
C2160 C2176 1.368 . S
H2161 C2169 0.950 . S
H2162 C2167 0.950 . S
H2163 C2168 0.949 . S
H2164 C2170 0.954 . S
H2165 C2171 0.950 . S
H2166 C2172 0.949 . S
C2167 H2162 0.950 . S
C2167 C2169 1.327 . S
C2167 C2173 1.429 . S
C2168 C2160 1.574 . S
C2168 H2163 0.949 . S
C2168 C2174 1.368 . S
C2169 C2153 1.349 . S
C2169 H2161 0.950 . S
C2169 C2167 1.327 . S
C2170 C2158 1.337 1_554 S
C2170 H2164 0.954 . S
C2170 C2171 1.336 . S
C2171 H2165 0.950 . S
C2171 C2170 1.336 . S
C2171 C2175 1.429 . S
C2172 C2155 1.574 . S
C2172 H2166 0.949 . S
C2172 C2176 1.368 . S
C2173 C2154 1.429 . S
C2173 C2167 1.429 . S
C2173 C2174 1.523 . S
C2174 C2155 1.368 . S
C2174 C2168 1.368 . S
C2174 C2173 1.523 . S
C2175 C2159 1.429 1_554 S
C2175 C2171 1.429 . S
C2175 C2176 1.523 . S
C2176 C2160 1.368 . S
C2176 C2172 1.368 . S
C2176 C2175 1.523 . S
H2177 C2152 0.950 . S
H2178 C2154 0.950 . S
H2179 C2155 0.949 . S
H2180 C2157 0.950 . S
H2181 C2159 0.950 . S
C2182 C2183 1.349 . S
C2182 C2184 1.327 . S
C2182 H2207 0.950 . S
C2183 C2182 1.349 . S
C2183 C2199 1.349 . S
C2184 C2182 1.327 . S
C2184 C2203 1.429 . S
C2184 H2208 0.950 . S
C2185 C2202 1.574 . S
C2185 C2204 1.368 . S
C2185 H2209 0.949 . S
H2186 C2190 0.949 . S
C2187 C2188 1.349 . S
C2187 C2189 1.327 . S
C2187 H2210 0.950 . S
C2188 C2187 1.349 . S
C2188 C2200 1.349 . S
C2189 C2187 1.327 . S
C2189 C2205 1.429 . S
C2189 H2211 0.950 . S
C2190 H2186 0.949 . S
C2190 C2198 1.574 . S
C2190 C2206 1.368 . S
H2191 C2199 0.950 . S
H2192 C2197 0.950 . S
H2193 C2198 0.949 . S
H2194 C2200 0.950 . S
H2195 C2201 0.950 . S
H2196 C2202 0.949 . S
C2197 H2192 0.950 . S
C2197 C2199 1.327 . S
C2197 C2203 1.429 . S
C2198 C2190 1.574 . S
C2198 H2193 0.949 . S
C2198 C2204 1.368 . S
C2199 C2183 1.349 . S
C2199 H2191 0.950 . S
C2199 C2197 1.327 . S
C2200 C2188 1.349 . S
C2200 H2194 0.950 . S
C2200 C2201 1.327 . S
C2201 H2195 0.950 . S
C2201 C2200 1.327 . S
C2201 C2205 1.429 . S
C2202 C2185 1.574 . S
C2202 H2196 0.949 . S
C2202 C2206 1.368 . S
C2203 C2184 1.429 . S
C2203 C2197 1.429 . S
C2203 C2204 1.523 . S
C2204 C2185 1.368 . S
C2204 C2198 1.368 . S
C2204 C2203 1.523 . S
C2205 C2189 1.429 . S
C2205 C2201 1.429 . S
C2205 C2206 1.523 . S
C2206 C2190 1.368 . S
C2206 C2202 1.368 . S
C2206 C2205 1.523 . S
H2207 C2182 0.950 . S
H2208 C2184 0.950 . S
H2209 C2185 0.949 . S
H2210 C2187 0.950 . S
H2211 C2189 0.950 . S
C2212 C2213 1.349 . S
C2212 C2214 1.327 . S
C2212 H2237 0.950 . S
C2213 C2212 1.349 . S
C2213 C2229 1.349 . S
C2214 C2212 1.327 . S
C2214 C2233 1.429 . S
C2214 H2238 0.950 . S
C2215 C2232 1.574 . S
C2215 C2234 1.368 . S
C2215 H2239 0.949 . S
H2216 C2220 0.949 . S
C2217 C2218 1.349 . S
C2217 C2219 1.327 . S
C2217 H2240 0.950 . S
C2218 C2217 1.349 . S
C2218 C2230 1.349 . S
C2219 C2217 1.327 . S
C2219 C2235 1.429 . S
C2219 H2241 0.950 . S
C2220 H2216 0.949 . S
C2220 C2228 1.574 . S
C2220 C2236 1.368 . S
H2221 C2229 0.950 . S
H2222 C2227 0.950 . S
H2223 C2228 0.949 . S
H2224 C2230 0.950 . S
H2225 C2231 0.950 . S
H2226 C2232 0.949 . S
C2227 H2222 0.950 . S
C2227 C2229 1.327 . S
C2227 C2233 1.429 . S
C2228 C2220 1.574 . S
C2228 H2223 0.949 . S
C2228 C2234 1.368 . S
C2229 C2213 1.349 . S
C2229 H2221 0.950 . S
C2229 C2227 1.327 . S
C2230 C2218 1.349 . S
C2230 H2224 0.950 . S
C2230 C2231 1.327 . S
C2231 H2225 0.950 . S
C2231 C2230 1.327 . S
C2231 C2235 1.429 . S
C2232 C2215 1.574 . S
C2232 H2226 0.949 . S
C2232 C2236 1.368 . S
C2233 C2214 1.429 . S
C2233 C2227 1.429 . S
C2233 C2234 1.523 . S
C2234 C2215 1.368 . S
C2234 C2228 1.368 . S
C2234 C2233 1.523 . S
C2235 C2219 1.429 . S
C2235 C2231 1.429 . S
C2235 C2236 1.523 . S
C2236 C2220 1.368 . S
C2236 C2232 1.368 . S
C2236 C2235 1.523 . S
H2237 C2212 0.950 . S
H2238 C2214 0.950 . S
H2239 C2215 0.949 . S
H2240 C2217 0.950 . S
H2241 C2219 0.950 . S
C2242 C2243 1.349 . S
C2242 C2244 1.327 . S
C2242 H2267 0.950 . S
C2243 C2242 1.349 . S
C2243 C2259 1.349 . S
C2244 C2242 1.327 . S
C2244 C2263 1.429 . S
C2244 H2268 0.950 . S
C2245 C2262 1.574 . S
C2245 C2264 1.368 . S
C2245 H2269 0.949 . S
H2246 C2250 0.949 . S
C2247 C2248 1.349 . S
C2247 C2249 1.327 . S
C2247 H2270 0.950 . S
C2248 C2247 1.349 . S
C2248 C2260 1.349 . S
C2249 C2247 1.327 . S
C2249 C2265 1.429 . S
C2249 H2271 0.950 . S
C2250 H2246 0.949 . S
C2250 C2258 1.574 . S
C2250 C2266 1.368 . S
H2251 C2259 0.950 . S
H2252 C2257 0.950 . S
H2253 C2258 0.949 . S
H2254 C2260 0.950 . S
H2255 C2261 0.950 . S
H2256 C2262 0.949 . S
C2257 H2252 0.950 . S
C2257 C2259 1.327 . S
C2257 C2263 1.429 . S
C2258 C2250 1.574 . S
C2258 H2253 0.949 . S
C2258 C2264 1.368 . S
C2259 C2243 1.349 . S
C2259 H2251 0.950 . S
C2259 C2257 1.327 . S
C2260 C2248 1.349 . S
C2260 H2254 0.950 . S
C2260 C2261 1.327 . S
C2261 H2255 0.950 . S
C2261 C2260 1.327 . S
C2261 C2265 1.429 . S
C2262 C2245 1.574 . S
C2262 H2256 0.949 . S
C2262 C2266 1.368 . S
C2263 C2244 1.429 . S
C2263 C2257 1.429 . S
C2263 C2264 1.523 . S
C2264 C2245 1.368 . S
C2264 C2258 1.368 . S
C2264 C2263 1.523 . S
C2265 C2249 1.429 . S
C2265 C2261 1.429 . S
C2265 C2266 1.523 . S
C2266 C2250 1.368 . S
C2266 C2262 1.368 . S
C2266 C2265 1.523 . S
H2267 C2242 0.950 . S
H2268 C2244 0.950 . S
H2269 C2245 0.949 . S
H2270 C2247 0.950 . S
H2271 C2249 0.950 . S
C2272 C2273 1.349 . S
C2272 C2274 1.327 . S
C2272 H2297 0.950 . S
C2273 C2272 1.349 . S
C2273 C2289 1.349 . S
C2274 C2272 1.327 . S
C2274 C2293 1.429 . S
C2274 H2298 0.950 . S
C2275 C2292 1.574 . S
C2275 C2294 1.368 . S
C2275 H2299 0.949 . S
H2276 C2280 0.949 . S
C2277 C2278 1.349 . S
C2277 C2279 1.327 . S
C2277 H2300 0.950 . S
C2278 C2277 1.349 . S
C2278 C2290 1.349 . S
C2279 C2277 1.327 . S
C2279 C2295 1.429 . S
C2279 H2301 0.950 . S
C2280 H2276 0.949 . S
C2280 C2288 1.574 . S
C2280 C2296 1.368 . S
H2281 C2289 0.950 . S
H2282 C2287 0.950 . S
H2283 C2288 0.949 . S
H2284 C2290 0.950 . S
H2285 C2291 0.950 . S
H2286 C2292 0.949 . S
C2287 H2282 0.950 . S
C2287 C2289 1.327 . S
C2287 C2293 1.429 . S
C2288 C2280 1.574 . S
C2288 H2283 0.949 . S
C2288 C2294 1.368 . S
C2289 C2273 1.349 . S
C2289 H2281 0.950 . S
C2289 C2287 1.327 . S
C2290 C2278 1.349 . S
C2290 H2284 0.950 . S
C2290 C2291 1.327 . S
C2291 H2285 0.950 . S
C2291 C2290 1.327 . S
C2291 C2295 1.429 . S
C2292 C2275 1.574 . S
C2292 H2286 0.949 . S
C2292 C2296 1.368 . S
C2293 C2274 1.429 . S
C2293 C2287 1.429 . S
C2293 C2294 1.523 . S
C2294 C2275 1.368 . S
C2294 C2288 1.368 . S
C2294 C2293 1.523 . S
C2295 C2279 1.429 . S
C2295 C2291 1.429 . S
C2295 C2296 1.523 . S
C2296 C2280 1.368 . S
C2296 C2292 1.368 . S
C2296 C2295 1.523 . S
H2297 C2272 0.950 . S
H2298 C2274 0.950 . S
H2299 C2275 0.949 . S
H2300 C2277 0.950 . S
H2301 C2279 0.950 . S
C2302 C2303 1.349 . S
C2302 C2304 1.327 . S
C2302 H2327 0.950 . S
C2303 C2302 1.349 . S
C2303 C2319 1.349 . S
C2304 C2302 1.327 . S
C2304 C2323 1.429 . S
C2304 H2328 0.950 . S
C2305 C2322 1.574 . S
C2305 C2324 1.368 . S
C2305 H2329 0.949 . S
H2306 C2310 0.949 . S
C2307 C2308 1.349 . S
C2307 C2309 1.327 . S
C2307 H2330 0.950 . S
C2308 C2307 1.349 . S
C2308 C2320 1.349 . S
C2309 C2307 1.327 . S
C2309 C2325 1.429 . S
C2309 H2331 0.950 . S
C2310 H2306 0.949 . S
C2310 C2318 1.574 . S
C2310 C2326 1.368 . S
H2311 C2319 0.950 . S
H2312 C2317 0.950 . S
H2313 C2318 0.949 . S
H2314 C2320 0.950 . S
H2315 C2321 0.950 . S
H2316 C2322 0.949 . S
C2317 H2312 0.950 . S
C2317 C2319 1.327 . S
C2317 C2323 1.429 . S
C2318 C2310 1.574 . S
C2318 H2313 0.949 . S
C2318 C2324 1.368 . S
C2319 C2303 1.349 . S
C2319 H2311 0.950 . S
C2319 C2317 1.327 . S
C2320 C2308 1.349 . S
C2320 H2314 0.950 . S
C2320 C2321 1.327 . S
C2321 H2315 0.950 . S
C2321 C2320 1.327 . S
C2321 C2325 1.429 . S
C2322 C2305 1.574 . S
C2322 H2316 0.949 . S
C2322 C2326 1.368 . S
C2323 C2304 1.429 . S
C2323 C2317 1.429 . S
C2323 C2324 1.523 . S
C2324 C2305 1.368 . S
C2324 C2318 1.368 . S
C2324 C2323 1.523 . S
C2325 C2309 1.429 . S
C2325 C2321 1.429 . S
C2325 C2326 1.523 . S
C2326 C2310 1.368 . S
C2326 C2322 1.368 . S
C2326 C2325 1.523 . S
H2327 C2302 0.950 . S
H2328 C2304 0.950 . S
H2329 C2305 0.949 . S
H2330 C2307 0.950 . S
H2331 C2309 0.950 . S
C2332 C2333 1.349 . S
C2332 C2334 1.327 . S
C2332 H2357 0.950 . S
C2333 C2332 1.349 . S
C2333 C2349 1.349 . S
C2334 C2332 1.327 . S
C2334 C2353 1.429 . S
C2334 H2358 0.950 . S
C2335 C2352 1.574 . S
C2335 C2354 1.368 . S
C2335 H2359 0.949 . S
H2336 C2340 0.949 . S
C2337 C2338 1.349 . S
C2337 C2339 1.327 . S
C2337 H2360 0.950 . S
C2338 C2337 1.349 . S
C2338 C2350 1.349 . S
C2339 C2337 1.327 . S
C2339 C2355 1.429 . S
C2339 H2361 0.950 . S
C2340 H2336 0.949 . S
C2340 C2348 1.574 . S
C2340 C2356 1.368 . S
H2341 C2349 0.950 . S
H2342 C2347 0.950 . S
H2343 C2348 0.949 . S
H2344 C2350 0.950 . S
H2345 C2351 0.950 . S
H2346 C2352 0.949 . S
C2347 H2342 0.950 . S
C2347 C2349 1.327 . S
C2347 C2353 1.429 . S
C2348 C2340 1.574 . S
C2348 H2343 0.949 . S
C2348 C2354 1.368 . S
C2349 C2333 1.349 . S
C2349 H2341 0.950 . S
C2349 C2347 1.327 . S
C2350 C2338 1.349 . S
C2350 H2344 0.950 . S
C2350 C2351 1.327 . S
C2351 H2345 0.950 . S
C2351 C2350 1.327 . S
C2351 C2355 1.429 . S
C2352 C2335 1.574 . S
C2352 H2346 0.949 . S
C2352 C2356 1.368 . S
C2353 C2334 1.429 . S
C2353 C2347 1.429 . S
C2353 C2354 1.523 . S
C2354 C2335 1.368 . S
C2354 C2348 1.368 . S
C2354 C2353 1.523 . S
C2355 C2339 1.429 . S
C2355 C2351 1.429 . S
C2355 C2356 1.523 . S
C2356 C2340 1.368 . S
C2356 C2352 1.368 . S
C2356 C2355 1.523 . S
H2357 C2332 0.950 . S
H2358 C2334 0.950 . S
H2359 C2335 0.949 . S
H2360 C2337 0.950 . S
H2361 C2339 0.950 . S
C2362 C2363 1.349 . S
C2362 C2364 1.327 . S
C2362 H2387 0.950 . S
C2363 C2362 1.349 . S
C2363 C2379 1.349 . S
C2364 C2362 1.327 . S
C2364 C2383 1.429 . S
C2364 H2388 0.950 . S
C2365 C2382 1.574 . S
C2365 C2384 1.368 . S
C2365 H2389 0.949 . S
H2366 C2370 0.949 . S
C2367 C2368 1.349 . S
C2367 C2369 1.327 . S
C2367 H2390 0.950 . S
C2368 C2367 1.349 . S
C2368 C2380 1.349 . S
C2369 C2367 1.327 . S
C2369 C2385 1.429 . S
C2369 H2391 0.950 . S
C2370 H2366 0.949 . S
C2370 C2378 1.574 . S
C2370 C2386 1.368 . S
H2371 C2379 0.950 . S
H2372 C2377 0.950 . S
H2373 C2378 0.949 . S
H2374 C2380 0.950 . S
H2375 C2381 0.950 . S
H2376 C2382 0.949 . S
C2377 H2372 0.950 . S
C2377 C2379 1.327 . S
C2377 C2383 1.429 . S
C2378 C2370 1.574 . S
C2378 H2373 0.949 . S
C2378 C2384 1.368 . S
C2379 C2363 1.349 . S
C2379 H2371 0.950 . S
C2379 C2377 1.327 . S
C2380 C2368 1.349 . S
C2380 H2374 0.950 . S
C2380 C2381 1.327 . S
C2381 H2375 0.950 . S
C2381 C2380 1.327 . S
C2381 C2385 1.429 . S
C2382 C2365 1.574 . S
C2382 H2376 0.949 . S
C2382 C2386 1.368 . S
C2383 C2364 1.429 . S
C2383 C2377 1.429 . S
C2383 C2384 1.523 . S
C2384 C2365 1.368 . S
C2384 C2378 1.368 . S
C2384 C2383 1.523 . S
C2385 C2369 1.429 . S
C2385 C2381 1.429 . S
C2385 C2386 1.523 . S
C2386 C2370 1.368 . S
C2386 C2382 1.368 . S
C2386 C2385 1.523 . S
H2387 C2362 0.950 . S
H2388 C2364 0.950 . S
H2389 C2365 0.949 . S
H2390 C2367 0.950 . S
H2391 C2369 0.950 . S
C2392 C2393 1.349 . S
C2392 C2394 1.327 . S
C2392 H2417 0.950 . S
C2393 C2392 1.349 . S
C2393 C2409 1.349 . S
C2394 C2392 1.327 . S
C2394 C2413 1.429 . S
C2394 H2418 0.950 . S
C2395 C2412 1.574 . S
C2395 C2414 1.368 . S
C2395 H2419 0.949 . S
H2396 C2400 0.949 . S
C2397 C2398 1.349 . S
C2397 C2399 1.327 . S
C2397 H2420 0.950 . S
C2398 C2397 1.349 . S
C2398 C2410 1.349 . S
C2399 C2397 1.327 . S
C2399 C2415 1.429 . S
C2399 H2421 0.950 . S
C2400 H2396 0.949 . S
C2400 C2408 1.574 . S
C2400 C2416 1.368 . S
H2401 C2409 0.950 . S
H2402 C2407 0.950 . S
H2403 C2408 0.949 . S
H2404 C2410 0.950 . S
H2405 C2411 0.950 . S
H2406 C2412 0.949 . S
C2407 H2402 0.950 . S
C2407 C2409 1.327 . S
C2407 C2413 1.429 . S
C2408 C2400 1.574 . S
C2408 H2403 0.949 . S
C2408 C2414 1.368 . S
C2409 C2393 1.349 . S
C2409 H2401 0.950 . S
C2409 C2407 1.327 . S
C2410 C2398 1.349 . S
C2410 H2404 0.950 . S
C2410 C2411 1.327 . S
C2411 H2405 0.950 . S
C2411 C2410 1.327 . S
C2411 C2415 1.429 . S
C2412 C2395 1.574 . S
C2412 H2406 0.949 . S
C2412 C2416 1.368 . S
C2413 C2394 1.429 . S
C2413 C2407 1.429 . S
C2413 C2414 1.523 . S
C2414 C2395 1.368 . S
C2414 C2408 1.368 . S
C2414 C2413 1.523 . S
C2415 C2399 1.429 . S
C2415 C2411 1.429 . S
C2415 C2416 1.523 . S
C2416 C2400 1.368 . S
C2416 C2412 1.368 . S
C2416 C2415 1.523 . S
H2417 C2392 0.950 . S
H2418 C2394 0.950 . S
H2419 C2395 0.949 . S
H2420 C2397 0.950 . S
H2421 C2399 0.950 . S
C2422 C2423 1.349 . S
C2422 C2424 1.327 . S
C2422 H2447 0.950 . S
C2423 C2422 1.349 . S
C2423 C2439 1.349 . S
C2424 C2422 1.327 . S
C2424 C2443 1.429 . S
C2424 H2448 0.950 . S
C2425 C2442 1.574 . S
C2425 C2444 1.368 . S
C2425 H2449 0.949 . S
H2426 C2430 0.949 . S
C2427 C2428 1.349 . S
C2427 C2429 1.327 . S
C2427 H2450 0.950 . S
C2428 C2427 1.349 . S
C2428 C2440 1.349 . S
C2429 C2427 1.327 . S
C2429 C2445 1.429 . S
C2429 H2451 0.950 . S
C2430 H2426 0.949 . S
C2430 C2438 1.574 . S
C2430 C2446 1.368 . S
H2431 C2439 0.950 . S
H2432 C2437 0.950 . S
H2433 C2438 0.949 . S
H2434 C2440 0.950 . S
H2435 C2441 0.950 . S
H2436 C2442 0.949 . S
C2437 H2432 0.950 . S
C2437 C2439 1.327 . S
C2437 C2443 1.429 . S
C2438 C2430 1.574 . S
C2438 H2433 0.949 . S
C2438 C2444 1.368 . S
C2439 C2423 1.349 . S
C2439 H2431 0.950 . S
C2439 C2437 1.327 . S
C2440 C2428 1.349 . S
C2440 H2434 0.950 . S
C2440 C2441 1.327 . S
C2441 H2435 0.950 . S
C2441 C2440 1.327 . S
C2441 C2445 1.429 . S
C2442 C2425 1.574 . S
C2442 H2436 0.949 . S
C2442 C2446 1.368 . S
C2443 C2424 1.429 . S
C2443 C2437 1.429 . S
C2443 C2444 1.523 . S
C2444 C2425 1.368 . S
C2444 C2438 1.368 . S
C2444 C2443 1.523 . S
C2445 C2429 1.429 . S
C2445 C2441 1.429 . S
C2445 C2446 1.523 . S
C2446 C2430 1.368 . S
C2446 C2442 1.368 . S
C2446 C2445 1.523 . S
H2447 C2422 0.950 . S
H2448 C2424 0.950 . S
H2449 C2425 0.949 . S
H2450 C2427 0.950 . S
H2451 C2429 0.950 . S
C2452 C2453 1.349 1_655 S
C2452 C2454 1.327 . S
C2452 H2477 0.950 . S
C2453 C2452 1.349 1_455 S
C2453 C2469 1.349 . S
C2454 C2452 1.327 . S
C2454 C2473 1.429 1_655 S
C2454 H2478 0.950 . S
C2455 C2472 1.574 . S
C2455 C2474 1.368 . S
C2455 H2479 0.949 . S
H2456 C2460 0.949 1_655 S
C2457 C2458 1.349 . S
C2457 C2459 1.327 1_554 S
C2457 H2480 0.950 . S
C2458 C2457 1.349 . S
C2458 C2470 1.349 . S
C2459 C2457 1.327 1_556 S
C2459 C2475 1.429 . S
C2459 H2481 0.950 . S
C2460 H2456 0.949 1_455 S
C2460 C2468 1.570 . S
C2460 C2476 1.368 . S
H2461 C2469 0.950 . S
H2462 C2467 0.950 . S
H2463 C2468 0.933 1_655 S
H2464 C2470 0.950 . S
H2465 C2471 0.952 1_656 S
H2466 C2472 0.949 . S
C2467 H2462 0.950 . S
C2467 C2469 1.327 . S
C2467 C2473 1.429 . S
C2468 C2460 1.570 . S
C2468 H2463 0.933 1_455 S
C2468 C2474 1.390 . S
C2469 C2453 1.349 . S
C2469 H2461 0.950 . S
C2469 C2467 1.327 . S
C2470 C2458 1.349 . S
C2470 H2464 0.950 . S
C2470 C2471 1.328 . S
C2471 H2465 0.952 1_454 S
C2471 C2470 1.328 . S
C2471 C2475 1.427 1_554 S
C2472 C2455 1.574 . S
C2472 H2466 0.949 . S
C2472 C2476 1.368 . S
C2473 C2454 1.429 1_455 S
C2473 C2467 1.429 . S
C2473 C2474 1.523 . S
C2474 C2455 1.368 . S
C2474 C2468 1.390 . S
C2474 C2473 1.523 . S
C2475 C2459 1.429 . S
C2475 C2471 1.427 1_556 S
C2475 C2476 1.523 . S
C2476 C2460 1.368 . S
C2476 C2472 1.368 . S
C2476 C2475 1.523 . S
H2477 C2452 0.950 . S
H2478 C2454 0.950 . S
H2479 C2455 0.949 . S
H2480 C2457 0.950 . S
H2481 C2459 0.950 . S
C2482 C2483 1.349 . S
C2482 C2484 1.327 1_455 S
C2482 H2507 0.950 . S
C2483 C2482 1.349 . S
C2483 C2499 1.349 . S
C2484 C2482 1.327 1_655 S
C2484 C2503 1.429 . S
C2484 H2508 0.950 . S
C2485 C2502 1.574 . S
C2485 C2504 1.368 . S
C2485 H2509 0.949 . S
H2486 C2490 0.949 . S
C2487 C2488 1.349 . S
C2487 C2489 1.327 . S
C2487 H2510 0.950 . S
C2488 C2487 1.349 . S
C2488 C2500 1.349 . S
C2489 C2487 1.327 . S
C2489 C2505 1.429 . S
C2489 H2511 0.950 . S
C2490 H2486 0.949 . S
C2490 C2498 1.574 . S
C2490 C2506 1.368 . S
H2491 C2499 0.950 . S
H2492 C2497 0.947 1_655 S
H2493 C2498 0.949 . S
H2494 C2500 0.950 . S
H2495 C2501 0.950 . S
H2496 C2502 0.949 . S
C2497 H2492 0.947 1_455 S
C2497 C2499 1.367 . S
C2497 C2503 1.392 1_455 S
C2498 C2490 1.574 . S
C2498 H2493 0.949 . S
C2498 C2504 1.368 . S
C2499 C2483 1.349 . S
C2499 H2491 0.950 . S
C2499 C2497 1.367 . S
C2500 C2488 1.349 . S
C2500 H2494 0.950 . S
C2500 C2501 1.327 . S
C2501 H2495 0.950 . S
C2501 C2500 1.327 . S
C2501 C2505 1.429 . S
C2502 C2485 1.574 . S
C2502 H2496 0.949 . S
C2502 C2506 1.368 . S
C2503 C2484 1.429 . S
C2503 C2497 1.392 1_655 S
C2503 C2504 1.523 . S
C2504 C2485 1.368 . S
C2504 C2498 1.368 . S
C2504 C2503 1.523 . S
C2505 C2489 1.429 . S
C2505 C2501 1.429 . S
C2505 C2506 1.523 . S
C2506 C2490 1.368 . S
C2506 C2502 1.368 . S
C2506 C2505 1.523 . S
H2507 C2482 0.950 . S
H2508 C2484 0.950 . S
H2509 C2485 0.949 . S
H2510 C2487 0.950 . S
H2511 C2489 0.950 . S
C2512 C2513 1.349 . S
C2512 C2514 1.327 . S
C2512 H2537 0.950 . S
C2513 C2512 1.349 . S
C2513 C2529 1.349 . S
C2514 C2512 1.327 . S
C2514 C2533 1.429 . S
C2514 H2538 0.950 . S
C2515 C2532 1.574 . S
C2515 C2534 1.368 . S
C2515 H2539 0.949 . S
H2516 C2520 0.949 . S
C2517 C2518 1.349 . S
C2517 C2519 1.327 . S
C2517 H2540 0.950 . S
C2518 C2517 1.349 . S
C2518 C2530 1.349 . S
C2519 C2517 1.327 . S
C2519 C2535 1.429 . S
C2519 H2541 0.950 . S
C2520 H2516 0.949 . S
C2520 C2528 1.574 . S
C2520 C2536 1.368 . S
H2521 C2529 0.950 . S
H2522 C2527 0.950 . S
H2523 C2528 0.949 . S
H2524 C2530 0.950 . S
H2525 C2531 0.950 . S
H2526 C2532 0.949 . S
C2527 H2522 0.950 . S
C2527 C2529 1.327 . S
C2527 C2533 1.429 . S
C2528 C2520 1.574 . S
C2528 H2523 0.949 . S
C2528 C2534 1.368 . S
C2529 C2513 1.349 . S
C2529 H2521 0.950 . S
C2529 C2527 1.327 . S
C2530 C2518 1.349 . S
C2530 H2524 0.950 . S
C2530 C2531 1.327 . S
C2531 H2525 0.950 . S
C2531 C2530 1.327 . S
C2531 C2535 1.429 . S
C2532 C2515 1.574 . S
C2532 H2526 0.949 . S
C2532 C2536 1.368 . S
C2533 C2514 1.429 . S
C2533 C2527 1.429 . S
C2533 C2534 1.523 . S
C2534 C2515 1.368 . S
C2534 C2528 1.368 . S
C2534 C2533 1.523 . S
C2535 C2519 1.429 . S
C2535 C2531 1.429 . S
C2535 C2536 1.523 . S
C2536 C2520 1.368 . S
C2536 C2532 1.368 . S
C2536 C2535 1.523 . S
H2537 C2512 0.950 . S
H2538 C2514 0.950 . S
H2539 C2515 0.949 . S
H2540 C2517 0.950 . S
H2541 C2519 0.950 . S
C2542 C2543 1.349 . S
C2542 C2544 1.327 . S
C2542 H2567 0.950 . S
C2543 C2542 1.349 . S
C2543 C2559 1.349 . S
C2544 C2542 1.327 . S
C2544 C2563 1.429 . S
C2544 H2568 0.950 . S
C2545 C2562 1.574 . S
C2545 C2564 1.368 . S
C2545 H2569 0.949 . S
H2546 C2550 0.949 . S
C2547 C2548 1.349 . S
C2547 C2549 1.327 . S
C2547 H2570 0.950 . S
C2548 C2547 1.349 . S
C2548 C2560 1.349 . S
C2549 C2547 1.327 . S
C2549 C2565 1.429 . S
C2549 H2571 0.950 . S
C2550 H2546 0.949 . S
C2550 C2558 1.574 . S
C2550 C2566 1.368 . S
H2551 C2559 0.950 . S
H2552 C2557 0.950 . S
H2553 C2558 0.949 . S
H2554 C2560 0.950 . S
H2555 C2561 0.950 . S
H2556 C2562 0.949 . S
C2557 H2552 0.950 . S
C2557 C2559 1.327 . S
C2557 C2563 1.429 . S
C2558 C2550 1.574 . S
C2558 H2553 0.949 . S
C2558 C2564 1.368 . S
C2559 C2543 1.349 . S
C2559 H2551 0.950 . S
C2559 C2557 1.327 . S
C2560 C2548 1.349 . S
C2560 H2554 0.950 . S
C2560 C2561 1.327 . S
C2561 H2555 0.950 . S
C2561 C2560 1.327 . S
C2561 C2565 1.429 . S
C2562 C2545 1.574 . S
C2562 H2556 0.949 . S
C2562 C2566 1.368 . S
C2563 C2544 1.429 . S
C2563 C2557 1.429 . S
C2563 C2564 1.523 . S
C2564 C2545 1.368 . S
C2564 C2558 1.368 . S
C2564 C2563 1.523 . S
C2565 C2549 1.429 . S
C2565 C2561 1.429 . S
C2565 C2566 1.523 . S
C2566 C2550 1.368 . S
C2566 C2562 1.368 . S
C2566 C2565 1.523 . S
H2567 C2542 0.950 . S
H2568 C2544 0.950 . S
H2569 C2545 0.949 . S
H2570 C2547 0.950 . S
H2571 C2549 0.950 . S
C2572 C2573 1.349 . S
C2572 C2574 1.327 . S
C2572 H2597 0.950 . S
C2573 C2572 1.349 . S
C2573 C2589 1.349 . S
C2574 C2572 1.327 . S
C2574 C2593 1.429 . S
C2574 H2598 0.950 . S
C2575 C2592 1.574 . S
C2575 C2594 1.368 . S
C2575 H2599 0.949 . S
H2576 C2580 0.949 . S
C2577 C2578 1.349 . S
C2577 C2579 1.327 . S
C2577 H2600 0.950 . S
C2578 C2577 1.349 . S
C2578 C2590 1.349 . S
C2579 C2577 1.327 . S
C2579 C2595 1.429 . S
C2579 H2601 0.950 . S
C2580 H2576 0.949 . S
C2580 C2588 1.574 . S
C2580 C2596 1.368 . S
H2581 C2589 0.950 . S
H2582 C2587 0.950 . S
H2583 C2588 0.949 . S
H2584 C2590 0.950 . S
H2585 C2591 0.950 . S
H2586 C2592 0.949 . S
C2587 H2582 0.950 . S
C2587 C2589 1.327 . S
C2587 C2593 1.429 . S
C2588 C2580 1.574 . S
C2588 H2583 0.949 . S
C2588 C2594 1.368 . S
C2589 C2573 1.349 . S
C2589 H2581 0.950 . S
C2589 C2587 1.327 . S
C2590 C2578 1.349 . S
C2590 H2584 0.950 . S
C2590 C2591 1.327 . S
C2591 H2585 0.950 . S
C2591 C2590 1.327 . S
C2591 C2595 1.429 . S
C2592 C2575 1.574 . S
C2592 H2586 0.949 . S
C2592 C2596 1.368 . S
C2593 C2574 1.429 . S
C2593 C2587 1.429 . S
C2593 C2594 1.523 . S
C2594 C2575 1.368 . S
C2594 C2588 1.368 . S
C2594 C2593 1.523 . S
C2595 C2579 1.429 . S
C2595 C2591 1.429 . S
C2595 C2596 1.523 . S
C2596 C2580 1.368 . S
C2596 C2592 1.368 . S
C2596 C2595 1.523 . S
H2597 C2572 0.950 . S
H2598 C2574 0.950 . S
H2599 C2575 0.949 . S
H2600 C2577 0.950 . S
H2601 C2579 0.950 . S
C2602 C2603 1.349 . S
C2602 C2604 1.327 . S
C2602 H2627 0.950 . S
C2603 C2602 1.349 . S
C2603 C2619 1.349 . S
C2604 C2602 1.327 . S
C2604 C2623 1.429 . S
C2604 H2628 0.950 . S
C2605 C2622 1.574 . S
C2605 C2624 1.368 . S
C2605 H2629 0.949 . S
H2606 C2610 0.949 . S
C2607 C2608 1.349 . S
C2607 C2609 1.327 . S
C2607 H2630 0.950 . S
C2608 C2607 1.349 . S
C2608 C2620 1.349 . S
C2609 C2607 1.327 . S
C2609 C2625 1.429 . S
C2609 H2631 0.950 . S
C2610 H2606 0.949 . S
C2610 C2618 1.574 . S
C2610 C2626 1.368 . S
H2611 C2619 0.950 . S
H2612 C2617 0.950 . S
H2613 C2618 0.949 . S
H2614 C2620 0.950 . S
H2615 C2621 0.950 . S
H2616 C2622 0.949 . S
C2617 H2612 0.950 . S
C2617 C2619 1.327 . S
C2617 C2623 1.429 . S
C2618 C2610 1.574 . S
C2618 H2613 0.949 . S
C2618 C2624 1.368 . S
C2619 C2603 1.349 . S
C2619 H2611 0.950 . S
C2619 C2617 1.327 . S
C2620 C2608 1.349 . S
C2620 H2614 0.950 . S
C2620 C2621 1.327 . S
C2621 H2615 0.950 . S
C2621 C2620 1.327 . S
C2621 C2625 1.429 . S
C2622 C2605 1.574 . S
C2622 H2616 0.949 . S
C2622 C2626 1.368 . S
C2623 C2604 1.429 . S
C2623 C2617 1.429 . S
C2623 C2624 1.523 . S
C2624 C2605 1.368 . S
C2624 C2618 1.368 . S
C2624 C2623 1.523 . S
C2625 C2609 1.429 . S
C2625 C2621 1.429 . S
C2625 C2626 1.523 . S
C2626 C2610 1.368 . S
C2626 C2622 1.368 . S
C2626 C2625 1.523 . S
H2627 C2602 0.950 . S
H2628 C2604 0.950 . S
H2629 C2605 0.949 . S
H2630 C2607 0.950 . S
H2631 C2609 0.950 . S
C2632 C2633 1.349 . S
C2632 C2634 1.327 . S
C2632 H2657 0.950 . S
C2633 C2632 1.349 . S
C2633 C2649 1.349 . S
C2634 C2632 1.327 . S
C2634 C2653 1.429 . S
C2634 H2658 0.950 . S
C2635 C2652 1.574 . S
C2635 C2654 1.368 . S
C2635 H2659 0.949 . S
H2636 C2640 0.949 . S
C2637 C2638 1.349 . S
C2637 C2639 1.327 . S
C2637 H2660 0.950 . S
C2638 C2637 1.349 . S
C2638 C2650 1.349 . S
C2639 C2637 1.327 . S
C2639 C2655 1.429 . S
C2639 H2661 0.950 . S
C2640 H2636 0.949 . S
C2640 C2648 1.574 . S
C2640 C2656 1.368 . S
H2641 C2649 0.950 . S
H2642 C2647 0.950 . S
H2643 C2648 0.949 . S
H2644 C2650 0.950 . S
H2645 C2651 0.950 . S
H2646 C2652 0.949 . S
C2647 H2642 0.950 . S
C2647 C2649 1.327 . S
C2647 C2653 1.429 . S
C2648 C2640 1.574 . S
C2648 H2643 0.949 . S
C2648 C2654 1.368 . S
C2649 C2633 1.349 . S
C2649 H2641 0.950 . S
C2649 C2647 1.327 . S
C2650 C2638 1.349 . S
C2650 H2644 0.950 . S
C2650 C2651 1.327 . S
C2651 H2645 0.950 . S
C2651 C2650 1.327 . S
C2651 C2655 1.429 . S
C2652 C2635 1.574 . S
C2652 H2646 0.949 . S
C2652 C2656 1.368 . S
C2653 C2634 1.429 . S
C2653 C2647 1.429 . S
C2653 C2654 1.523 . S
C2654 C2635 1.368 . S
C2654 C2648 1.368 . S
C2654 C2653 1.523 . S
C2655 C2639 1.429 . S
C2655 C2651 1.429 . S
C2655 C2656 1.523 . S
C2656 C2640 1.368 . S
C2656 C2652 1.368 . S
C2656 C2655 1.523 . S
H2657 C2632 0.950 . S
H2658 C2634 0.950 . S
H2659 C2635 0.949 . S
H2660 C2637 0.950 . S
H2661 C2639 0.950 . S
C2662 C2663 1.349 . S
C2662 C2664 1.327 1_554 S
C2662 H2687 0.950 . S
C2663 C2662 1.349 . S
C2663 C2679 1.361 . S
C2664 C2662 1.327 1_556 S
C2664 C2683 1.429 . S
C2664 H2688 0.950 . S
C2665 C2682 1.574 . S
C2665 C2684 1.368 . S
C2665 H2689 0.949 . S
H2666 C2670 0.949 . S
C2667 C2668 1.349 . S
C2667 C2669 1.327 . S
C2667 H2690 0.950 . S
C2668 C2667 1.349 . S
C2668 C2680 1.349 . S
C2669 C2667 1.327 . S
C2669 C2685 1.429 . S
C2669 H2691 0.950 . S
C2670 H2666 0.949 . S
C2670 C2678 1.574 . S
C2670 C2686 1.368 . S
H2671 C2679 0.954 . S
H2672 C2677 0.950 . S
H2673 C2678 0.949 . S
H2674 C2680 0.950 . S
H2675 C2681 0.950 . S
H2676 C2682 0.949 . S
C2677 H2672 0.950 . S
C2677 C2679 1.311 1_556 S
C2677 C2683 1.429 . S
C2678 C2670 1.574 . S
C2678 H2673 0.949 . S
C2678 C2684 1.368 . S
C2679 C2663 1.361 . S
C2679 H2671 0.954 . S
C2679 C2677 1.311 1_554 S
C2680 C2668 1.349 . S
C2680 H2674 0.950 . S
C2680 C2681 1.327 . S
C2681 H2675 0.950 . S
C2681 C2680 1.327 . S
C2681 C2685 1.429 . S
C2682 C2665 1.574 . S
C2682 H2676 0.949 . S
C2682 C2686 1.368 . S
C2683 C2664 1.429 . S
C2683 C2677 1.429 . S
C2683 C2684 1.523 . S
C2684 C2665 1.368 . S
C2684 C2678 1.368 . S
C2684 C2683 1.523 . S
C2685 C2669 1.429 . S
C2685 C2681 1.429 . S
C2685 C2686 1.523 . S
C2686 C2670 1.368 . S
C2686 C2682 1.368 . S
C2686 C2685 1.523 . S
H2687 C2662 0.950 . S
H2688 C2664 0.950 . S
H2689 C2665 0.949 . S
H2690 C2667 0.950 . S
H2691 C2669 0.950 . S
C2692 C2693 1.349 . S
C2692 C2694 1.327 . S
C2692 H2717 0.950 . S
C2693 C2692 1.349 . S
C2693 C2709 1.349 . S
C2694 C2692 1.327 . S
C2694 C2713 1.429 . S
C2694 H2718 0.950 . S
C2695 C2712 1.574 . S
C2695 C2714 1.368 . S
C2695 H2719 0.949 . S
H2696 C2700 0.949 . S
C2697 C2698 1.349 . S
C2697 C2699 1.327 . S
C2697 H2720 0.950 . S
C2698 C2697 1.349 . S
C2698 C2710 1.349 . S
C2699 C2697 1.327 . S
C2699 C2715 1.429 . S
C2699 H2721 0.950 . S
C2700 H2696 0.949 . S
C2700 C2708 1.574 . S
C2700 C2716 1.368 . S
H2701 C2709 0.950 . S
H2702 C2707 0.950 . S
H2703 C2708 0.949 . S
H2704 C2710 0.950 . S
H2705 C2711 0.950 . S
H2706 C2712 0.949 . S
C2707 H2702 0.950 . S
C2707 C2709 1.327 . S
C2707 C2713 1.429 . S
C2708 C2700 1.574 . S
C2708 H2703 0.949 . S
C2708 C2714 1.368 . S
C2709 C2693 1.349 . S
C2709 H2701 0.950 . S
C2709 C2707 1.327 . S
C2710 C2698 1.349 . S
C2710 H2704 0.950 . S
C2710 C2711 1.327 . S
C2711 H2705 0.950 . S
C2711 C2710 1.327 . S
C2711 C2715 1.429 . S
C2712 C2695 1.574 . S
C2712 H2706 0.949 . S
C2712 C2716 1.368 . S
C2713 C2694 1.429 . S
C2713 C2707 1.429 . S
C2713 C2714 1.523 . S
C2714 C2695 1.368 . S
C2714 C2708 1.368 . S
C2714 C2713 1.523 . S
C2715 C2699 1.429 . S
C2715 C2711 1.429 . S
C2715 C2716 1.523 . S
C2716 C2700 1.368 . S
C2716 C2712 1.368 . S
C2716 C2715 1.523 . S
H2717 C2692 0.950 . S
H2718 C2694 0.950 . S
H2719 C2695 0.949 . S
H2720 C2697 0.950 . S
H2721 C2699 0.950 . S
C2722 C2723 1.349 . S
C2722 C2724 1.327 . S
C2722 H2747 0.950 . S
C2723 C2722 1.349 . S
C2723 C2739 1.349 . S
C2724 C2722 1.327 . S
C2724 C2743 1.429 . S
C2724 H2748 0.950 . S
C2725 C2742 1.574 . S
C2725 C2744 1.368 . S
C2725 H2749 0.949 . S
H2726 C2730 0.949 . S
C2727 C2728 1.349 . S
C2727 C2729 1.327 . S
C2727 H2750 0.950 . S
C2728 C2727 1.349 . S
C2728 C2740 1.349 . S
C2729 C2727 1.327 . S
C2729 C2745 1.429 . S
C2729 H2751 0.950 . S
C2730 H2726 0.949 . S
C2730 C2738 1.574 . S
C2730 C2746 1.368 . S
H2731 C2739 0.950 . S
H2732 C2737 0.950 . S
H2733 C2738 0.949 . S
H2734 C2740 0.950 . S
H2735 C2741 0.950 . S
H2736 C2742 0.949 . S
C2737 H2732 0.950 . S
C2737 C2739 1.327 . S
C2737 C2743 1.429 . S
C2738 C2730 1.574 . S
C2738 H2733 0.949 . S
C2738 C2744 1.368 . S
C2739 C2723 1.349 . S
C2739 H2731 0.950 . S
C2739 C2737 1.327 . S
C2740 C2728 1.349 . S
C2740 H2734 0.950 . S
C2740 C2741 1.327 . S
C2741 H2735 0.950 . S
C2741 C2740 1.327 . S
C2741 C2745 1.429 . S
C2742 C2725 1.574 . S
C2742 H2736 0.949 . S
C2742 C2746 1.368 . S
C2743 C2724 1.429 . S
C2743 C2737 1.429 . S
C2743 C2744 1.523 . S
C2744 C2725 1.368 . S
C2744 C2738 1.368 . S
C2744 C2743 1.523 . S
C2745 C2729 1.429 . S
C2745 C2741 1.429 . S
C2745 C2746 1.523 . S
C2746 C2730 1.368 . S
C2746 C2742 1.368 . S
C2746 C2745 1.523 . S
H2747 C2722 0.950 . S
H2748 C2724 0.950 . S
H2749 C2725 0.949 . S
H2750 C2727 0.950 . S
H2751 C2729 0.950 . S
C2752 C2753 1.349 . S
C2752 C2754 1.327 . S
C2752 H2777 0.950 . S
C2753 C2752 1.349 . S
C2753 C2769 1.349 . S
C2754 C2752 1.327 . S
C2754 C2773 1.429 . S
C2754 H2778 0.950 . S
C2755 C2772 1.574 . S
C2755 C2774 1.368 . S
C2755 H2779 0.949 . S
H2756 C2760 0.949 . S
C2757 C2758 1.349 . S
C2757 C2759 1.327 . S
C2757 H2780 0.950 . S
C2758 C2757 1.349 . S
C2758 C2770 1.349 . S
C2759 C2757 1.327 . S
C2759 C2775 1.429 . S
C2759 H2781 0.950 . S
C2760 H2756 0.949 . S
C2760 C2768 1.574 . S
C2760 C2776 1.368 . S
H2761 C2769 0.950 . S
H2762 C2767 0.950 . S
H2763 C2768 0.949 . S
H2764 C2770 0.950 . S
H2765 C2771 0.950 . S
H2766 C2772 0.949 . S
C2767 H2762 0.950 . S
C2767 C2769 1.327 . S
C2767 C2773 1.429 . S
C2768 C2760 1.574 . S
C2768 H2763 0.949 . S
C2768 C2774 1.368 . S
C2769 C2753 1.349 . S
C2769 H2761 0.950 . S
C2769 C2767 1.327 . S
C2770 C2758 1.349 . S
C2770 H2764 0.950 . S
C2770 C2771 1.327 . S
C2771 H2765 0.950 . S
C2771 C2770 1.327 . S
C2771 C2775 1.429 . S
C2772 C2755 1.574 . S
C2772 H2766 0.949 . S
C2772 C2776 1.368 . S
C2773 C2754 1.429 . S
C2773 C2767 1.429 . S
C2773 C2774 1.523 . S
C2774 C2755 1.368 . S
C2774 C2768 1.368 . S
C2774 C2773 1.523 . S
C2775 C2759 1.429 . S
C2775 C2771 1.429 . S
C2775 C2776 1.523 . S
C2776 C2760 1.368 . S
C2776 C2772 1.368 . S
C2776 C2775 1.523 . S
H2777 C2752 0.950 . S
H2778 C2754 0.950 . S
H2779 C2755 0.949 . S
H2780 C2757 0.950 . S
H2781 C2759 0.950 . S
C2782 C2783 1.349 . S
C2782 C2784 1.327 . S
C2782 H2807 0.950 . S
C2783 C2782 1.349 . S
C2783 C2799 1.349 . S
C2784 C2782 1.327 . S
C2784 C2803 1.429 . S
C2784 H2808 0.950 . S
C2785 C2802 1.574 . S
C2785 C2804 1.368 . S
C2785 H2809 0.949 . S
H2786 C2790 0.949 . S
C2787 C2788 1.349 . S
C2787 C2789 1.327 . S
C2787 H2810 0.950 . S
C2788 C2787 1.349 . S
C2788 C2800 1.349 . S
C2789 C2787 1.327 . S
C2789 C2805 1.429 . S
C2789 H2811 0.950 . S
C2790 H2786 0.949 . S
C2790 C2798 1.574 . S
C2790 C2806 1.368 . S
H2791 C2799 0.950 . S
H2792 C2797 0.950 . S
H2793 C2798 0.949 . S
H2794 C2800 0.950 . S
H2795 C2801 0.950 . S
H2796 C2802 0.949 . S
C2797 H2792 0.950 . S
C2797 C2799 1.327 . S
C2797 C2803 1.429 . S
C2798 C2790 1.574 . S
C2798 H2793 0.949 . S
C2798 C2804 1.368 . S
C2799 C2783 1.349 . S
C2799 H2791 0.950 . S
C2799 C2797 1.327 . S
C2800 C2788 1.349 . S
C2800 H2794 0.950 . S
C2800 C2801 1.327 . S
C2801 H2795 0.950 . S
C2801 C2800 1.327 . S
C2801 C2805 1.429 . S
C2802 C2785 1.574 . S
C2802 H2796 0.949 . S
C2802 C2806 1.368 . S
C2803 C2784 1.429 . S
C2803 C2797 1.429 . S
C2803 C2804 1.523 . S
C2804 C2785 1.368 . S
C2804 C2798 1.368 . S
C2804 C2803 1.523 . S
C2805 C2789 1.429 . S
C2805 C2801 1.429 . S
C2805 C2806 1.523 . S
C2806 C2790 1.368 . S
C2806 C2802 1.368 . S
C2806 C2805 1.523 . S
H2807 C2782 0.950 . S
H2808 C2784 0.950 . S
H2809 C2785 0.949 . S
H2810 C2787 0.950 . S
H2811 C2789 0.950 . S
C2812 C2813 1.349 . S
C2812 C2814 1.327 . S
C2812 H2837 0.950 . S
C2813 C2812 1.349 . S
C2813 C2829 1.349 . S
C2814 C2812 1.327 . S
C2814 C2833 1.429 . S
C2814 H2838 0.950 . S
C2815 C2832 1.574 . S
C2815 C2834 1.368 . S
C2815 H2839 0.949 . S
H2816 C2820 0.949 . S
C2817 C2818 1.349 . S
C2817 C2819 1.327 . S
C2817 H2840 0.950 . S
C2818 C2817 1.349 . S
C2818 C2830 1.349 . S
C2819 C2817 1.327 . S
C2819 C2835 1.429 . S
C2819 H2841 0.950 . S
C2820 H2816 0.949 . S
C2820 C2828 1.574 . S
C2820 C2836 1.368 . S
H2821 C2829 0.950 . S
H2822 C2827 0.950 . S
H2823 C2828 0.949 . S
H2824 C2830 0.950 . S
H2825 C2831 0.950 . S
H2826 C2832 0.949 . S
C2827 H2822 0.950 . S
C2827 C2829 1.327 . S
C2827 C2833 1.429 . S
C2828 C2820 1.574 . S
C2828 H2823 0.949 . S
C2828 C2834 1.368 . S
C2829 C2813 1.349 . S
C2829 H2821 0.950 . S
C2829 C2827 1.327 . S
C2830 C2818 1.349 . S
C2830 H2824 0.950 . S
C2830 C2831 1.327 . S
C2831 H2825 0.950 . S
C2831 C2830 1.327 . S
C2831 C2835 1.429 . S
C2832 C2815 1.574 . S
C2832 H2826 0.949 . S
C2832 C2836 1.368 . S
C2833 C2814 1.429 . S
C2833 C2827 1.429 . S
C2833 C2834 1.523 . S
C2834 C2815 1.368 . S
C2834 C2828 1.368 . S
C2834 C2833 1.523 . S
C2835 C2819 1.429 . S
C2835 C2831 1.429 . S
C2835 C2836 1.523 . S
C2836 C2820 1.368 . S
C2836 C2832 1.368 . S
C2836 C2835 1.523 . S
H2837 C2812 0.950 . S
H2838 C2814 0.950 . S
H2839 C2815 0.949 . S
H2840 C2817 0.950 . S
H2841 C2819 0.950 . S
C2842 C2843 1.349 . S
C2842 C2844 1.327 . S
C2842 H2867 0.950 . S
C2843 C2842 1.349 . S
C2843 C2859 1.349 . S
C2844 C2842 1.327 . S
C2844 C2863 1.429 . S
C2844 H2868 0.950 . S
C2845 C2862 1.574 . S
C2845 C2864 1.368 . S
C2845 H2869 0.949 . S
H2846 C2850 0.949 . S
C2847 C2848 1.349 . S
C2847 C2849 1.327 . S
C2847 H2870 0.950 . S
C2848 C2847 1.349 . S
C2848 C2860 1.349 . S
C2849 C2847 1.327 . S
C2849 C2865 1.429 . S
C2849 H2871 0.950 . S
C2850 H2846 0.949 . S
C2850 C2858 1.574 . S
C2850 C2866 1.368 . S
H2851 C2859 0.950 . S
H2852 C2857 0.950 . S
H2853 C2858 0.949 . S
H2854 C2860 0.950 . S
H2855 C2861 0.950 . S
H2856 C2862 0.949 . S
C2857 H2852 0.950 . S
C2857 C2859 1.327 . S
C2857 C2863 1.429 . S
C2858 C2850 1.574 . S
C2858 H2853 0.949 . S
C2858 C2864 1.368 . S
C2859 C2843 1.349 . S
C2859 H2851 0.950 . S
C2859 C2857 1.327 . S
C2860 C2848 1.349 . S
C2860 H2854 0.950 . S
C2860 C2861 1.327 . S
C2861 H2855 0.950 . S
C2861 C2860 1.327 . S
C2861 C2865 1.429 . S
C2862 C2845 1.574 . S
C2862 H2856 0.949 . S
C2862 C2866 1.368 . S
C2863 C2844 1.429 . S
C2863 C2857 1.429 . S
C2863 C2864 1.523 . S
C2864 C2845 1.368 . S
C2864 C2858 1.368 . S
C2864 C2863 1.523 . S
C2865 C2849 1.429 . S
C2865 C2861 1.429 . S
C2865 C2866 1.523 . S
C2866 C2850 1.368 . S
C2866 C2862 1.368 . S
C2866 C2865 1.523 . S
H2867 C2842 0.950 . S
H2868 C2844 0.950 . S
H2869 C2845 0.949 . S
H2870 C2847 0.950 . S
H2871 C2849 0.950 . S
C2872 C2873 1.349 . S
C2872 C2874 1.327 . S
C2872 H2897 0.950 . S
C2873 C2872 1.349 . S
C2873 C2889 1.349 . S
C2874 C2872 1.327 . S
C2874 C2893 1.429 . S
C2874 H2898 0.950 . S
C2875 C2892 1.574 . S
C2875 C2894 1.368 . S
C2875 H2899 0.949 . S
H2876 C2880 0.949 . S
C2877 C2878 1.349 . S
C2877 C2879 1.327 . S
C2877 H2900 0.950 . S
C2878 C2877 1.349 . S
C2878 C2890 1.349 . S
C2879 C2877 1.327 . S
C2879 C2895 1.429 . S
C2879 H2901 0.950 . S
C2880 H2876 0.949 . S
C2880 C2888 1.574 . S
C2880 C2896 1.368 . S
H2881 C2889 0.950 . S
H2882 C2887 0.950 . S
H2883 C2888 0.949 . S
H2884 C2890 0.950 . S
H2885 C2891 0.950 . S
H2886 C2892 0.949 . S
C2887 H2882 0.950 . S
C2887 C2889 1.327 . S
C2887 C2893 1.429 . S
C2888 C2880 1.574 . S
C2888 H2883 0.949 . S
C2888 C2894 1.368 . S
C2889 C2873 1.349 . S
C2889 H2881 0.950 . S
C2889 C2887 1.327 . S
C2890 C2878 1.349 . S
C2890 H2884 0.950 . S
C2890 C2891 1.327 . S
C2891 H2885 0.950 . S
C2891 C2890 1.327 . S
C2891 C2895 1.429 . S
C2892 C2875 1.574 . S
C2892 H2886 0.949 . S
C2892 C2896 1.368 . S
C2893 C2874 1.429 . S
C2893 C2887 1.429 . S
C2893 C2894 1.523 . S
C2894 C2875 1.368 . S
C2894 C2888 1.368 . S
C2894 C2893 1.523 . S
C2895 C2879 1.429 . S
C2895 C2891 1.429 . S
C2895 C2896 1.523 . S
C2896 C2880 1.368 . S
C2896 C2892 1.368 . S
C2896 C2895 1.523 . S
H2897 C2872 0.950 . S
H2898 C2874 0.950 . S
H2899 C2875 0.949 . S
H2900 C2877 0.950 . S
H2901 C2879 0.950 . S
C2902 C2903 1.349 . S
C2902 C2904 1.327 . S
C2902 H2927 0.950 . S
C2903 C2902 1.349 . S
C2903 C2919 1.349 . S
C2904 C2902 1.327 . S
C2904 C2923 1.429 . S
C2904 H2928 0.950 . S
C2905 C2922 1.574 . S
C2905 C2924 1.368 . S
C2905 H2929 0.949 . S
H2906 C2910 0.949 . S
C2907 C2908 1.349 . S
C2907 C2909 1.327 . S
C2907 H2930 0.950 . S
C2908 C2907 1.349 . S
C2908 C2920 1.349 . S
C2909 C2907 1.327 . S
C2909 C2925 1.429 . S
C2909 H2931 0.950 . S
C2910 H2906 0.949 . S
C2910 C2918 1.574 . S
C2910 C2926 1.368 . S
H2911 C2919 0.950 . S
H2912 C2917 0.950 . S
H2913 C2918 0.949 . S
H2914 C2920 0.950 . S
H2915 C2921 0.950 . S
H2916 C2922 0.949 . S
C2917 H2912 0.950 . S
C2917 C2919 1.327 . S
C2917 C2923 1.429 . S
C2918 C2910 1.574 . S
C2918 H2913 0.949 . S
C2918 C2924 1.368 . S
C2919 C2903 1.349 . S
C2919 H2911 0.950 . S
C2919 C2917 1.327 . S
C2920 C2908 1.349 . S
C2920 H2914 0.950 . S
C2920 C2921 1.327 . S
C2921 H2915 0.950 . S
C2921 C2920 1.327 . S
C2921 C2925 1.429 . S
C2922 C2905 1.574 . S
C2922 H2916 0.949 . S
C2922 C2926 1.368 . S
C2923 C2904 1.429 . S
C2923 C2917 1.429 . S
C2923 C2924 1.523 . S
C2924 C2905 1.368 . S
C2924 C2918 1.368 . S
C2924 C2923 1.523 . S
C2925 C2909 1.429 . S
C2925 C2921 1.429 . S
C2925 C2926 1.523 . S
C2926 C2910 1.368 . S
C2926 C2922 1.368 . S
C2926 C2925 1.523 . S
H2927 C2902 0.950 . S
H2928 C2904 0.950 . S
H2929 C2905 0.949 . S
H2930 C2907 0.950 . S
H2931 C2909 0.950 . S
C2932 C2933 1.349 . S
C2932 C2934 1.327 . S
C2932 H2957 0.950 . S
C2933 C2932 1.349 . S
C2933 C2949 1.349 . S
C2934 C2932 1.327 . S
C2934 C2953 1.429 . S
C2934 H2958 0.950 . S
C2935 C2952 1.574 . S
C2935 C2954 1.368 . S
C2935 H2959 0.949 . S
H2936 C2940 0.949 . S
C2937 C2938 1.349 . S
C2937 C2939 1.327 . S
C2937 H2960 0.950 . S
C2938 C2937 1.349 . S
C2938 C2950 1.349 . S
C2939 C2937 1.327 . S
C2939 C2955 1.429 . S
C2939 H2961 0.950 . S
C2940 H2936 0.949 . S
C2940 C2948 1.574 . S
C2940 C2956 1.368 . S
H2941 C2949 0.950 1_545 S
H2942 C2947 0.950 . S
H2943 C2948 0.949 . S
H2944 C2950 0.950 . S
H2945 C2951 0.950 . S
H2946 C2952 0.949 . S
C2947 H2942 0.950 . S
C2947 C2949 1.327 . S
C2947 C2953 1.429 . S
C2948 C2940 1.574 . S
C2948 H2943 0.949 . S
C2948 C2954 1.368 . S
C2949 C2933 1.349 . S
C2949 H2941 0.950 1_565 S
C2949 C2947 1.327 . S
C2950 C2938 1.349 . S
C2950 H2944 0.950 . S
C2950 C2951 1.327 . S
C2951 H2945 0.950 . S
C2951 C2950 1.327 . S
C2951 C2955 1.429 . S
C2952 C2935 1.574 . S
C2952 H2946 0.949 . S
C2952 C2956 1.368 . S
C2953 C2934 1.429 . S
C2953 C2947 1.429 . S
C2953 C2954 1.523 . S
C2954 C2935 1.368 . S
C2954 C2948 1.368 . S
C2954 C2953 1.523 . S
C2955 C2939 1.429 . S
C2955 C2951 1.429 . S
C2955 C2956 1.523 . S
C2956 C2940 1.368 . S
C2956 C2952 1.368 . S
C2956 C2955 1.523 . S
H2957 C2932 0.950 . S
H2958 C2934 0.950 . S
H2959 C2935 0.949 . S
H2960 C2937 0.950 . S
H2961 C2939 0.950 . S
C2962 C2963 1.349 . S
C2962 C2964 1.327 . S
C2962 H2987 0.950 . S
C2963 C2962 1.349 . S
C2963 C2979 1.349 1_554 S
C2964 C2962 1.327 . S
C2964 C2983 1.429 . S
C2964 H2988 0.950 . S
C2965 C2982 1.574 . S
C2965 C2984 1.368 1_556 S
C2965 H2989 0.949 . S
H2966 C2970 0.949 1_545 S
C2967 C2968 1.349 1_565 S
C2967 C2969 1.327 . S
C2967 H2990 0.950 1_554 S
C2968 C2967 1.349 1_545 S
C2968 C2980 1.349 . S
C2969 C2967 1.327 . S
C2969 C2985 1.429 . S
C2969 H2991 0.950 1_554 S
C2970 H2966 0.949 1_565 S
C2970 C2978 1.574 . S
C2970 C2986 1.368 . S
H2971 C2979 0.950 . S
H2972 C2977 0.950 . S
H2973 C2978 0.949 . S
H2974 C2980 0.950 . S
H2975 C2981 0.950 . S
H2976 C2982 0.949 . S
C2977 H2972 0.950 . S
C2977 C2979 1.327 . S
C2977 C2983 1.429 1_556 S
C2978 C2970 1.574 . S
C2978 H2973 0.949 . S
C2978 C2984 1.368 . S
C2979 C2963 1.349 1_556 S
C2979 H2971 0.950 . S
C2979 C2977 1.327 . S
C2980 C2968 1.349 . S
C2980 H2974 0.950 . S
C2980 C2981 1.327 . S
C2981 H2975 0.950 . S
C2981 C2980 1.327 . S
C2981 C2985 1.429 1_545 S
C2982 C2965 1.574 . S
C2982 H2976 0.949 . S
C2982 C2986 1.368 1_556 S
C2983 C2964 1.429 . S
C2983 C2977 1.429 1_554 S
C2983 C2984 1.523 . S
C2984 C2965 1.368 1_554 S
C2984 C2978 1.368 . S
C2984 C2983 1.523 . S
C2985 C2969 1.429 . S
C2985 C2981 1.429 1_565 S
C2985 C2986 1.523 . S
C2986 C2970 1.368 . S
C2986 C2982 1.368 1_554 S
C2986 C2985 1.523 . S
H2987 C2962 0.950 . S
H2988 C2964 0.950 . S
H2989 C2965 0.949 . S
H2990 C2967 0.950 1_556 S
H2991 C2969 0.950 1_556 S
C2992 C2993 1.349 . S
C2992 C2994 1.327 . S
C2992 H3017 0.950 . S
C2993 C2992 1.349 . S
C2993 C3009 1.349 . S
C2994 C2992 1.327 . S
C2994 C3013 1.429 . S
C2994 H3018 0.950 . S
C2995 C3012 1.574 . S
C2995 C3014 1.368 . S
C2995 H3019 0.949 . S
H2996 C3000 0.949 . S
C2997 C2998 1.349 . S
C2997 C2999 1.327 . S
C2997 H3020 0.950 . S
C2998 C2997 1.349 . S
C2998 C3010 1.349 . S
C2999 C2997 1.327 . S
C2999 C3015 1.429 . S
C2999 H3021 0.950 . S
C3000 H2996 0.949 . S
C3000 C3008 1.574 . S
C3000 C3016 1.368 . S
H3001 C3009 0.950 . S
H3002 C3007 0.950 . S
H3003 C3008 0.949 . S
H3004 C3010 0.950 . S
H3005 C3011 0.950 . S
H3006 C3012 0.949 . S
C3007 H3002 0.950 . S
C3007 C3009 1.327 . S
C3007 C3013 1.429 . S
C3008 C3000 1.574 . S
C3008 H3003 0.949 . S
C3008 C3014 1.368 . S
C3009 C2993 1.349 . S
C3009 H3001 0.950 . S
C3009 C3007 1.327 . S
C3010 C2998 1.349 . S
C3010 H3004 0.950 . S
C3010 C3011 1.327 . S
C3011 H3005 0.950 . S
C3011 C3010 1.327 . S
C3011 C3015 1.429 . S
C3012 C2995 1.574 . S
C3012 H3006 0.949 . S
C3012 C3016 1.368 . S
C3013 C2994 1.429 . S
C3013 C3007 1.429 . S
C3013 C3014 1.523 . S
C3014 C2995 1.368 . S
C3014 C3008 1.368 . S
C3014 C3013 1.523 . S
C3015 C2999 1.429 . S
C3015 C3011 1.429 . S
C3015 C3016 1.523 . S
C3016 C3000 1.368 . S
C3016 C3012 1.368 . S
C3016 C3015 1.523 . S
H3017 C2992 0.950 . S
H3018 C2994 0.950 . S
H3019 C2995 0.949 . S
H3020 C2997 0.950 . S
H3021 C2999 0.950 . S
C3022 C3023 1.349 . S
C3022 C3024 1.327 . S
C3022 H3047 0.950 . S
C3023 C3022 1.349 . S
C3023 C3039 1.349 . S
C3024 C3022 1.327 . S
C3024 C3043 1.429 . S
C3024 H3048 0.950 . S
C3025 C3042 1.574 . S
C3025 C3044 1.368 . S
C3025 H3049 0.949 . S
H3026 C3030 0.949 . S
C3027 C3028 1.349 . S
C3027 C3029 1.327 . S
C3027 H3050 0.950 . S
C3028 C3027 1.349 . S
C3028 C3040 1.349 . S
C3029 C3027 1.327 . S
C3029 C3045 1.429 . S
C3029 H3051 0.950 . S
C3030 H3026 0.949 . S
C3030 C3038 1.574 . S
C3030 C3046 1.368 . S
H3031 C3039 0.950 . S
H3032 C3037 0.950 . S
H3033 C3038 0.949 . S
H3034 C3040 0.950 . S
H3035 C3041 0.950 . S
H3036 C3042 0.949 . S
C3037 H3032 0.950 . S
C3037 C3039 1.327 . S
C3037 C3043 1.429 . S
C3038 C3030 1.574 . S
C3038 H3033 0.949 . S
C3038 C3044 1.368 . S
C3039 C3023 1.349 . S
C3039 H3031 0.950 . S
C3039 C3037 1.327 . S
C3040 C3028 1.349 . S
C3040 H3034 0.950 . S
C3040 C3041 1.327 . S
C3041 H3035 0.950 . S
C3041 C3040 1.327 . S
C3041 C3045 1.429 . S
C3042 C3025 1.574 . S
C3042 H3036 0.949 . S
C3042 C3046 1.368 . S
C3043 C3024 1.429 . S
C3043 C3037 1.429 . S
C3043 C3044 1.523 . S
C3044 C3025 1.368 . S
C3044 C3038 1.368 . S
C3044 C3043 1.523 . S
C3045 C3029 1.429 . S
C3045 C3041 1.429 . S
C3045 C3046 1.523 . S
C3046 C3030 1.368 . S
C3046 C3042 1.368 . S
C3046 C3045 1.523 . S
H3047 C3022 0.950 . S
H3048 C3024 0.950 . S
H3049 C3025 0.949 . S
H3050 C3027 0.950 . S
H3051 C3029 0.950 . S
C3052 C3053 1.349 . S
C3052 C3054 1.327 . S
C3052 H3077 0.950 . S
C3053 C3052 1.349 . S
C3053 C3069 1.349 . S
C3054 C3052 1.327 . S
C3054 C3073 1.429 . S
C3054 H3078 0.950 . S
C3055 C3072 1.574 . S
C3055 C3074 1.368 . S
C3055 H3079 0.949 . S
H3056 C3060 0.949 . S
C3057 C3058 1.349 . S
C3057 C3059 1.327 . S
C3057 H3080 0.950 . S
C3058 C3057 1.349 . S
C3058 C3070 1.349 . S
C3059 C3057 1.327 . S
C3059 C3075 1.429 . S
C3059 H3081 0.950 . S
C3060 H3056 0.949 . S
C3060 C3068 1.574 . S
C3060 C3076 1.368 . S
H3061 C3069 0.950 . S
H3062 C3067 0.950 . S
H3063 C3068 0.949 . S
H3064 C3070 0.950 . S
H3065 C3071 0.950 . S
H3066 C3072 0.949 . S
C3067 H3062 0.950 . S
C3067 C3069 1.327 . S
C3067 C3073 1.429 . S
C3068 C3060 1.574 . S
C3068 H3063 0.949 . S
C3068 C3074 1.368 . S
C3069 C3053 1.349 . S
C3069 H3061 0.950 . S
C3069 C3067 1.327 . S
C3070 C3058 1.349 . S
C3070 H3064 0.950 . S
C3070 C3071 1.327 . S
C3071 H3065 0.950 . S
C3071 C3070 1.327 . S
C3071 C3075 1.429 . S
C3072 C3055 1.574 . S
C3072 H3066 0.949 . S
C3072 C3076 1.368 . S
C3073 C3054 1.429 . S
C3073 C3067 1.429 . S
C3073 C3074 1.523 . S
C3074 C3055 1.368 . S
C3074 C3068 1.368 . S
C3074 C3073 1.523 . S
C3075 C3059 1.429 . S
C3075 C3071 1.429 . S
C3075 C3076 1.523 . S
C3076 C3060 1.368 . S
C3076 C3072 1.368 . S
C3076 C3075 1.523 . S
H3077 C3052 0.950 . S
H3078 C3054 0.950 . S
H3079 C3055 0.949 . S
H3080 C3057 0.950 . S
H3081 C3059 0.950 . S
C3082 C3083 1.349 . S
C3082 C3084 1.327 . S
C3082 H3107 0.950 . S
C3083 C3082 1.349 . S
C3083 C3099 1.349 . S
C3084 C3082 1.327 . S
C3084 C3103 1.429 . S
C3084 H3108 0.950 . S
C3085 C3102 1.574 . S
C3085 C3104 1.368 . S
C3085 H3109 0.949 . S
H3086 C3090 0.949 . S
C3087 C3088 1.349 . S
C3087 C3089 1.327 . S
C3087 H3110 0.950 . S
C3088 C3087 1.349 . S
C3088 C3100 1.349 . S
C3089 C3087 1.327 . S
C3089 C3105 1.429 . S
C3089 H3111 0.950 . S
C3090 H3086 0.949 . S
C3090 C3098 1.574 . S
C3090 C3106 1.368 . S
H3091 C3099 0.950 . S
H3092 C3097 0.950 . S
H3093 C3098 0.949 . S
H3094 C3100 0.950 . S
H3095 C3101 0.950 . S
H3096 C3102 0.949 . S
C3097 H3092 0.950 . S
C3097 C3099 1.327 . S
C3097 C3103 1.429 . S
C3098 C3090 1.574 . S
C3098 H3093 0.949 . S
C3098 C3104 1.368 . S
C3099 C3083 1.349 . S
C3099 H3091 0.950 . S
C3099 C3097 1.327 . S
C3100 C3088 1.349 . S
C3100 H3094 0.950 . S
C3100 C3101 1.327 . S
C3101 H3095 0.950 . S
C3101 C3100 1.327 . S
C3101 C3105 1.429 . S
C3102 C3085 1.574 . S
C3102 H3096 0.949 . S
C3102 C3106 1.368 . S
C3103 C3084 1.429 . S
C3103 C3097 1.429 . S
C3103 C3104 1.523 . S
C3104 C3085 1.368 . S
C3104 C3098 1.368 . S
C3104 C3103 1.523 . S
C3105 C3089 1.429 . S
C3105 C3101 1.429 . S
C3105 C3106 1.523 . S
C3106 C3090 1.368 . S
C3106 C3102 1.368 . S
C3106 C3105 1.523 . S
H3107 C3082 0.950 . S
H3108 C3084 0.950 . S
H3109 C3085 0.949 . S
H3110 C3087 0.950 . S
H3111 C3089 0.950 . S
C3112 C3113 1.349 . S
C3112 C3114 1.327 . S
C3112 H3137 0.950 . S
C3113 C3112 1.349 . S
C3113 C3129 1.349 . S
C3114 C3112 1.327 . S
C3114 C3133 1.429 . S
C3114 H3138 0.950 . S
C3115 C3132 1.574 . S
C3115 C3134 1.368 . S
C3115 H3139 0.949 . S
H3116 C3120 0.949 . S
C3117 C3118 1.349 . S
C3117 C3119 1.327 . S
C3117 H3140 0.950 . S
C3118 C3117 1.349 . S
C3118 C3130 1.349 . S
C3119 C3117 1.327 . S
C3119 C3135 1.429 . S
C3119 H3141 0.950 . S
C3120 H3116 0.949 . S
C3120 C3128 1.574 . S
C3120 C3136 1.368 . S
H3121 C3129 0.950 . S
H3122 C3127 0.950 . S
H3123 C3128 0.949 . S
H3124 C3130 0.950 . S
H3125 C3131 0.950 . S
H3126 C3132 0.949 . S
C3127 H3122 0.950 . S
C3127 C3129 1.327 . S
C3127 C3133 1.429 . S
C3128 C3120 1.574 . S
C3128 H3123 0.949 . S
C3128 C3134 1.368 . S
C3129 C3113 1.349 . S
C3129 H3121 0.950 . S
C3129 C3127 1.327 . S
C3130 C3118 1.349 . S
C3130 H3124 0.950 . S
C3130 C3131 1.327 . S
C3131 H3125 0.950 . S
C3131 C3130 1.327 . S
C3131 C3135 1.429 . S
C3132 C3115 1.574 . S
C3132 H3126 0.949 . S
C3132 C3136 1.368 . S
C3133 C3114 1.429 . S
C3133 C3127 1.429 . S
C3133 C3134 1.523 . S
C3134 C3115 1.368 . S
C3134 C3128 1.368 . S
C3134 C3133 1.523 . S
C3135 C3119 1.429 . S
C3135 C3131 1.429 . S
C3135 C3136 1.523 . S
C3136 C3120 1.368 . S
C3136 C3132 1.368 . S
C3136 C3135 1.523 . S
H3137 C3112 0.950 . S
H3138 C3114 0.950 . S
H3139 C3115 0.949 . S
H3140 C3117 0.950 . S
H3141 C3119 0.950 . S
C3142 C3143 1.349 . S
C3142 C3144 1.327 . S
C3142 H3167 0.950 . S
C3143 C3142 1.349 . S
C3143 C3159 1.349 . S
C3144 C3142 1.327 . S
C3144 C3163 1.429 . S
C3144 H3168 0.950 . S
C3145 C3162 1.574 . S
C3145 C3164 1.368 . S
C3145 H3169 0.949 . S
H3146 C3150 0.949 . S
C3147 C3148 1.349 . S
C3147 C3149 1.327 . S
C3147 H3170 0.950 . S
C3148 C3147 1.349 . S
C3148 C3160 1.349 . S
C3149 C3147 1.327 . S
C3149 C3165 1.429 . S
C3149 H3171 0.950 . S
C3150 H3146 0.949 . S
C3150 C3158 1.574 . S
C3150 C3166 1.368 . S
H3151 C3159 0.950 . S
H3152 C3157 0.950 . S
H3153 C3158 0.949 . S
H3154 C3160 0.950 . S
H3155 C3161 0.950 . S
H3156 C3162 0.949 . S
C3157 H3152 0.950 . S
C3157 C3159 1.327 . S
C3157 C3163 1.429 . S
C3158 C3150 1.574 . S
C3158 H3153 0.949 . S
C3158 C3164 1.368 . S
C3159 C3143 1.349 . S
C3159 H3151 0.950 . S
C3159 C3157 1.327 . S
C3160 C3148 1.349 . S
C3160 H3154 0.950 . S
C3160 C3161 1.327 . S
C3161 H3155 0.950 . S
C3161 C3160 1.327 . S
C3161 C3165 1.429 . S
C3162 C3145 1.574 . S
C3162 H3156 0.949 . S
C3162 C3166 1.368 . S
C3163 C3144 1.429 . S
C3163 C3157 1.429 . S
C3163 C3164 1.523 . S
C3164 C3145 1.368 . S
C3164 C3158 1.368 . S
C3164 C3163 1.523 . S
C3165 C3149 1.429 . S
C3165 C3161 1.429 . S
C3165 C3166 1.523 . S
C3166 C3150 1.368 . S
C3166 C3162 1.368 . S
C3166 C3165 1.523 . S
H3167 C3142 0.950 . S
H3168 C3144 0.950 . S
H3169 C3145 0.949 . S
H3170 C3147 0.950 . S
H3171 C3149 0.950 . S
C3172 C3173 1.349 . S
C3172 C3174 1.327 . S
C3172 H3197 0.950 . S
C3173 C3172 1.349 . S
C3173 C3189 1.349 . S
C3174 C3172 1.327 . S
C3174 C3193 1.429 . S
C3174 H3198 0.950 . S
C3175 C3192 1.574 . S
C3175 C3194 1.368 . S
C3175 H3199 0.949 . S
H3176 C3180 0.949 . S
C3177 C3178 1.349 . S
C3177 C3179 1.327 . S
C3177 H3200 0.950 . S
C3178 C3177 1.349 . S
C3178 C3190 1.349 . S
C3179 C3177 1.327 . S
C3179 C3195 1.429 . S
C3179 H3201 0.950 . S
C3180 H3176 0.949 . S
C3180 C3188 1.574 . S
C3180 C3196 1.368 . S
H3181 C3189 0.950 . S
H3182 C3187 0.950 . S
H3183 C3188 0.949 . S
H3184 C3190 0.950 . S
H3185 C3191 0.950 . S
H3186 C3192 0.949 . S
C3187 H3182 0.950 . S
C3187 C3189 1.327 . S
C3187 C3193 1.429 . S
C3188 C3180 1.574 . S
C3188 H3183 0.949 . S
C3188 C3194 1.368 . S
C3189 C3173 1.349 . S
C3189 H3181 0.950 . S
C3189 C3187 1.327 . S
C3190 C3178 1.349 . S
C3190 H3184 0.950 . S
C3190 C3191 1.327 . S
C3191 H3185 0.950 . S
C3191 C3190 1.327 . S
C3191 C3195 1.429 . S
C3192 C3175 1.574 . S
C3192 H3186 0.949 . S
C3192 C3196 1.368 . S
C3193 C3174 1.429 . S
C3193 C3187 1.429 . S
C3193 C3194 1.523 . S
C3194 C3175 1.368 . S
C3194 C3188 1.368 . S
C3194 C3193 1.523 . S
C3195 C3179 1.429 . S
C3195 C3191 1.429 . S
C3195 C3196 1.523 . S
C3196 C3180 1.368 . S
C3196 C3192 1.368 . S
C3196 C3195 1.523 . S
H3197 C3172 0.950 . S
H3198 C3174 0.950 . S
H3199 C3175 0.949 . S
H3200 C3177 0.950 . S
H3201 C3179 0.950 . S
C3202 C3203 1.349 . S
C3202 C3204 1.327 . S
C3202 H3227 0.950 . S
C3203 C3202 1.349 . S
C3203 C3219 1.349 . S
C3204 C3202 1.327 . S
C3204 C3223 1.429 . S
C3204 H3228 0.950 . S
C3205 C3222 1.574 . S
C3205 C3224 1.368 . S
C3205 H3229 0.949 . S
H3206 C3210 0.949 . S
C3207 C3208 1.349 . S
C3207 C3209 1.327 . S
C3207 H3230 0.950 . S
C3208 C3207 1.349 . S
C3208 C3220 1.349 . S
C3209 C3207 1.327 . S
C3209 C3225 1.429 . S
C3209 H3231 0.950 . S
C3210 H3206 0.949 . S
C3210 C3218 1.574 . S
C3210 C3226 1.368 . S
H3211 C3219 0.950 . S
H3212 C3217 0.950 . S
H3213 C3218 0.949 . S
H3214 C3220 0.950 . S
H3215 C3221 0.950 . S
H3216 C3222 0.949 . S
C3217 H3212 0.950 . S
C3217 C3219 1.327 . S
C3217 C3223 1.429 . S
C3218 C3210 1.574 . S
C3218 H3213 0.949 . S
C3218 C3224 1.368 . S
C3219 C3203 1.349 . S
C3219 H3211 0.950 . S
C3219 C3217 1.327 . S
C3220 C3208 1.349 . S
C3220 H3214 0.950 . S
C3220 C3221 1.327 . S
C3221 H3215 0.950 . S
C3221 C3220 1.327 . S
C3221 C3225 1.429 . S
C3222 C3205 1.574 . S
C3222 H3216 0.949 . S
C3222 C3226 1.368 . S
C3223 C3204 1.429 . S
C3223 C3217 1.429 . S
C3223 C3224 1.523 . S
C3224 C3205 1.368 . S
C3224 C3218 1.368 . S
C3224 C3223 1.523 . S
C3225 C3209 1.429 . S
C3225 C3221 1.429 . S
C3225 C3226 1.523 . S
C3226 C3210 1.368 . S
C3226 C3222 1.368 . S
C3226 C3225 1.523 . S
H3227 C3202 0.950 . S
H3228 C3204 0.950 . S
H3229 C3205 0.949 . S
H3230 C3207 0.950 . S
H3231 C3209 0.950 . S
C3232 C3233 1.349 . S
C3232 C3234 1.327 . S
C3232 H3257 0.950 . S
C3233 C3232 1.349 . S
C3233 C3249 1.349 . S
C3234 C3232 1.327 . S
C3234 C3253 1.429 . S
C3234 H3258 0.950 . S
C3235 C3252 1.574 . S
C3235 C3254 1.368 . S
C3235 H3259 0.949 . S
H3236 C3240 0.949 . S
C3237 C3238 1.349 1_554 S
C3237 C3239 1.327 1_554 S
C3237 H3260 0.950 . S
C3238 C3237 1.349 1_556 S
C3238 C3250 1.349 . S
C3239 C3237 1.327 1_556 S
C3239 C3255 1.429 . S
C3239 H3261 0.950 . S
C3240 H3236 0.949 . S
C3240 C3248 1.574 . S
C3240 C3256 1.368 . S
H3241 C3249 0.950 . S
H3242 C3247 0.950 . S
H3243 C3248 0.949 . S
H3244 C3250 0.950 . S
H3245 C3251 0.950 . S
H3246 C3252 0.949 . S
C3247 H3242 0.950 . S
C3247 C3249 1.327 . S
C3247 C3253 1.429 . S
C3248 C3240 1.574 . S
C3248 H3243 0.949 . S
C3248 C3254 1.368 . S
C3249 C3233 1.349 . S
C3249 H3241 0.950 . S
C3249 C3247 1.327 . S
C3250 C3238 1.349 . S
C3250 H3244 0.950 . S
C3250 C3251 1.327 . S
C3251 H3245 0.950 . S
C3251 C3250 1.327 . S
C3251 C3255 1.429 . S
C3252 C3235 1.574 . S
C3252 H3246 0.949 . S
C3252 C3256 1.368 . S
C3253 C3234 1.429 . S
C3253 C3247 1.429 . S
C3253 C3254 1.523 . S
C3254 C3235 1.368 . S
C3254 C3248 1.368 . S
C3254 C3253 1.523 . S
C3255 C3239 1.429 . S
C3255 C3251 1.429 . S
C3255 C3256 1.523 . S
C3256 C3240 1.368 . S
C3256 C3252 1.368 . S
C3256 C3255 1.523 . S
H3257 C3232 0.950 . S
H3258 C3234 0.950 . S
H3259 C3235 0.949 . S
H3260 C3237 0.950 . S
H3261 C3239 0.950 . S
C3262 C3263 1.349 . S
C3262 C3264 1.327 . S
C3262 H3287 0.950 . S
C3263 C3262 1.349 . S
C3263 C3279 1.349 . S
C3264 C3262 1.327 . S
C3264 C3283 1.429 . S
C3264 H3288 0.950 . S
C3265 C3282 1.574 . S
C3265 C3284 1.368 . S
C3265 H3289 0.949 . S
H3266 C3270 0.949 . S
C3267 C3268 1.349 . S
C3267 C3269 1.327 . S
C3267 H3290 0.950 . S
C3268 C3267 1.349 . S
C3268 C3280 1.349 . S
C3269 C3267 1.327 . S
C3269 C3285 1.429 . S
C3269 H3291 0.950 . S
C3270 H3266 0.949 . S
C3270 C3278 1.574 . S
C3270 C3286 1.368 . S
H3271 C3279 0.950 . S
H3272 C3277 0.950 . S
H3273 C3278 0.949 . S
H3274 C3280 0.950 . S
H3275 C3281 0.950 . S
H3276 C3282 0.949 . S
C3277 H3272 0.950 . S
C3277 C3279 1.327 . S
C3277 C3283 1.429 . S
C3278 C3270 1.574 . S
C3278 H3273 0.949 . S
C3278 C3284 1.368 . S
C3279 C3263 1.349 . S
C3279 H3271 0.950 . S
C3279 C3277 1.327 . S
C3280 C3268 1.349 . S
C3280 H3274 0.950 . S
C3280 C3281 1.327 . S
C3281 H3275 0.950 . S
C3281 C3280 1.327 . S
C3281 C3285 1.429 . S
C3282 C3265 1.574 . S
C3282 H3276 0.949 . S
C3282 C3286 1.368 . S
C3283 C3264 1.429 . S
C3283 C3277 1.429 . S
C3283 C3284 1.523 . S
C3284 C3265 1.368 . S
C3284 C3278 1.368 . S
C3284 C3283 1.523 . S
C3285 C3269 1.429 . S
C3285 C3281 1.429 . S
C3285 C3286 1.523 . S
C3286 C3270 1.368 . S
C3286 C3282 1.368 . S
C3286 C3285 1.523 . S
H3287 C3262 0.950 . S
H3288 C3264 0.950 . S
H3289 C3265 0.949 . S
H3290 C3267 0.950 . S
H3291 C3269 0.950 . S
C3292 C3293 1.349 . S
C3292 C3294 1.327 . S
C3292 H3317 0.950 . S
C3293 C3292 1.349 . S
C3293 C3309 1.349 . S
C3294 C3292 1.327 . S
C3294 C3313 1.429 . S
C3294 H3318 0.950 . S
C3295 C3312 1.574 . S
C3295 C3314 1.368 . S
C3295 H3319 0.949 . S
H3296 C3300 0.949 . S
C3297 C3298 1.349 . S
C3297 C3299 1.327 . S
C3297 H3320 0.950 . S
C3298 C3297 1.349 . S
C3298 C3310 1.349 . S
C3299 C3297 1.327 . S
C3299 C3315 1.429 . S
C3299 H3321 0.950 . S
C3300 H3296 0.949 . S
C3300 C3308 1.574 . S
C3300 C3316 1.368 . S
H3301 C3309 0.950 . S
H3302 C3307 0.950 . S
H3303 C3308 0.949 . S
H3304 C3310 0.950 . S
H3305 C3311 0.950 . S
H3306 C3312 0.949 . S
C3307 H3302 0.950 . S
C3307 C3309 1.327 . S
C3307 C3313 1.429 . S
C3308 C3300 1.574 . S
C3308 H3303 0.949 . S
C3308 C3314 1.368 . S
C3309 C3293 1.349 . S
C3309 H3301 0.950 . S
C3309 C3307 1.327 . S
C3310 C3298 1.349 . S
C3310 H3304 0.950 . S
C3310 C3311 1.327 . S
C3311 H3305 0.950 . S
C3311 C3310 1.327 . S
C3311 C3315 1.429 . S
C3312 C3295 1.574 . S
C3312 H3306 0.949 . S
C3312 C3316 1.368 . S
C3313 C3294 1.429 . S
C3313 C3307 1.429 . S
C3313 C3314 1.523 . S
C3314 C3295 1.368 . S
C3314 C3308 1.368 . S
C3314 C3313 1.523 . S
C3315 C3299 1.429 . S
C3315 C3311 1.429 . S
C3315 C3316 1.523 . S
C3316 C3300 1.368 . S
C3316 C3312 1.368 . S
C3316 C3315 1.523 . S
H3317 C3292 0.950 . S
H3318 C3294 0.950 . S
H3319 C3295 0.949 . S
H3320 C3297 0.950 . S
H3321 C3299 0.950 . S
C3322 C3323 1.349 . S
C3322 C3324 1.327 . S
C3322 H3347 0.950 . S
C3323 C3322 1.349 . S
C3323 C3339 1.349 . S
C3324 C3322 1.327 . S
C3324 C3343 1.429 . S
C3324 H3348 0.950 . S
C3325 C3342 1.574 . S
C3325 C3344 1.368 . S
C3325 H3349 0.949 . S
H3326 C3330 0.949 . S
C3327 C3328 1.349 . S
C3327 C3329 1.327 . S
C3327 H3350 0.950 . S
C3328 C3327 1.349 . S
C3328 C3340 1.349 . S
C3329 C3327 1.327 . S
C3329 C3345 1.429 . S
C3329 H3351 0.950 . S
C3330 H3326 0.949 . S
C3330 C3338 1.574 . S
C3330 C3346 1.368 . S
H3331 C3339 0.950 . S
H3332 C3337 0.950 . S
H3333 C3338 0.949 . S
H3334 C3340 0.950 . S
H3335 C3341 0.950 . S
H3336 C3342 0.949 . S
C3337 H3332 0.950 . S
C3337 C3339 1.327 . S
C3337 C3343 1.429 . S
C3338 C3330 1.574 . S
C3338 H3333 0.949 . S
C3338 C3344 1.368 . S
C3339 C3323 1.349 . S
C3339 H3331 0.950 . S
C3339 C3337 1.327 . S
C3340 C3328 1.349 . S
C3340 H3334 0.950 . S
C3340 C3341 1.327 . S
C3341 H3335 0.950 . S
C3341 C3340 1.327 . S
C3341 C3345 1.429 . S
C3342 C3325 1.574 . S
C3342 H3336 0.949 . S
C3342 C3346 1.368 . S
C3343 C3324 1.429 . S
C3343 C3337 1.429 . S
C3343 C3344 1.523 . S
C3344 C3325 1.368 . S
C3344 C3338 1.368 . S
C3344 C3343 1.523 . S
C3345 C3329 1.429 . S
C3345 C3341 1.429 . S
C3345 C3346 1.523 . S
C3346 C3330 1.368 . S
C3346 C3342 1.368 . S
C3346 C3345 1.523 . S
H3347 C3322 0.950 . S
H3348 C3324 0.950 . S
H3349 C3325 0.949 . S
H3350 C3327 0.950 . S
H3351 C3329 0.950 . S
C3352 C3353 1.349 . S
C3352 C3354 1.327 . S
C3352 H3377 0.950 . S
C3353 C3352 1.349 . S
C3353 C3369 1.349 . S
C3354 C3352 1.327 . S
C3354 C3373 1.429 . S
C3354 H3378 0.950 . S
C3355 C3372 1.574 . S
C3355 C3374 1.368 . S
C3355 H3379 0.949 . S
H3356 C3360 0.949 . S
C3357 C3358 1.349 . S
C3357 C3359 1.327 . S
C3357 H3380 0.950 . S
C3358 C3357 1.349 . S
C3358 C3370 1.349 . S
C3359 C3357 1.327 . S
C3359 C3375 1.429 . S
C3359 H3381 0.950 . S
C3360 H3356 0.949 . S
C3360 C3368 1.574 . S
C3360 C3376 1.368 . S
H3361 C3369 0.950 . S
H3362 C3367 0.950 . S
H3363 C3368 0.949 . S
H3364 C3370 0.950 . S
H3365 C3371 0.950 . S
H3366 C3372 0.949 . S
C3367 H3362 0.950 . S
C3367 C3369 1.327 . S
C3367 C3373 1.429 . S
C3368 C3360 1.574 . S
C3368 H3363 0.949 . S
C3368 C3374 1.368 . S
C3369 C3353 1.349 . S
C3369 H3361 0.950 . S
C3369 C3367 1.327 . S
C3370 C3358 1.349 . S
C3370 H3364 0.950 . S
C3370 C3371 1.327 . S
C3371 H3365 0.950 . S
C3371 C3370 1.327 . S
C3371 C3375 1.429 . S
C3372 C3355 1.574 . S
C3372 H3366 0.949 . S
C3372 C3376 1.368 . S
C3373 C3354 1.429 . S
C3373 C3367 1.429 . S
C3373 C3374 1.523 . S
C3374 C3355 1.368 . S
C3374 C3368 1.368 . S
C3374 C3373 1.523 . S
C3375 C3359 1.429 . S
C3375 C3371 1.429 . S
C3375 C3376 1.523 . S
C3376 C3360 1.368 . S
C3376 C3372 1.368 . S
C3376 C3375 1.523 . S
H3377 C3352 0.950 . S
H3378 C3354 0.950 . S
H3379 C3355 0.949 . S
H3380 C3357 0.950 . S
H3381 C3359 0.950 . S
C3382 C3383 1.349 . S
C3382 C3384 1.327 . S
C3382 H3407 0.950 . S
C3383 C3382 1.349 . S
C3383 C3399 1.349 . S
C3384 C3382 1.327 . S
C3384 C3403 1.429 . S
C3384 H3408 0.950 . S
C3385 C3402 1.574 . S
C3385 C3404 1.368 . S
C3385 H3409 0.949 . S
H3386 C3390 0.949 . S
C3387 C3388 1.349 . S
C3387 C3389 1.327 . S
C3387 H3410 0.950 . S
C3388 C3387 1.349 . S
C3388 C3400 1.349 . S
C3389 C3387 1.327 . S
C3389 C3405 1.429 . S
C3389 H3411 0.950 . S
C3390 H3386 0.949 . S
C3390 C3398 1.574 . S
C3390 C3406 1.368 . S
H3391 C3399 0.950 . S
H3392 C3397 0.950 . S
H3393 C3398 0.949 . S
H3394 C3400 0.950 . S
H3395 C3401 0.950 . S
H3396 C3402 0.949 . S
C3397 H3392 0.950 . S
C3397 C3399 1.327 . S
C3397 C3403 1.429 . S
C3398 C3390 1.574 . S
C3398 H3393 0.949 . S
C3398 C3404 1.368 . S
C3399 C3383 1.349 . S
C3399 H3391 0.950 . S
C3399 C3397 1.327 . S
C3400 C3388 1.349 . S
C3400 H3394 0.950 . S
C3400 C3401 1.327 . S
C3401 H3395 0.950 . S
C3401 C3400 1.327 . S
C3401 C3405 1.429 . S
C3402 C3385 1.574 . S
C3402 H3396 0.949 . S
C3402 C3406 1.368 . S
C3403 C3384 1.429 . S
C3403 C3397 1.429 . S
C3403 C3404 1.523 . S
C3404 C3385 1.368 . S
C3404 C3398 1.368 . S
C3404 C3403 1.523 . S
C3405 C3389 1.429 . S
C3405 C3401 1.429 . S
C3405 C3406 1.523 . S
C3406 C3390 1.368 . S
C3406 C3402 1.368 . S
C3406 C3405 1.523 . S
H3407 C3382 0.950 . S
H3408 C3384 0.950 . S
H3409 C3385 0.949 . S
H3410 C3387 0.950 . S
H3411 C3389 0.950 . S
C3412 C3413 1.349 . S
C3412 C3414 1.327 . S
C3412 H3437 0.950 . S
C3413 C3412 1.349 . S
C3413 C3429 1.349 . S
C3414 C3412 1.327 . S
C3414 C3433 1.429 . S
C3414 H3438 0.950 . S
C3415 C3432 1.574 . S
C3415 C3434 1.368 . S
C3415 H3439 0.949 . S
H3416 C3420 0.949 . S
C3417 C3418 1.349 . S
C3417 C3419 1.327 . S
C3417 H3440 0.950 . S
C3418 C3417 1.349 . S
C3418 C3430 1.349 . S
C3419 C3417 1.327 . S
C3419 C3435 1.429 . S
C3419 H3441 0.950 . S
C3420 H3416 0.949 . S
C3420 C3428 1.574 . S
C3420 C3436 1.368 . S
H3421 C3429 0.950 . S
H3422 C3427 0.950 . S
H3423 C3428 0.949 . S
H3424 C3430 0.950 . S
H3425 C3431 0.950 . S
H3426 C3432 0.949 . S
C3427 H3422 0.950 . S
C3427 C3429 1.327 . S
C3427 C3433 1.429 . S
C3428 C3420 1.574 . S
C3428 H3423 0.949 . S
C3428 C3434 1.368 . S
C3429 C3413 1.349 . S
C3429 H3421 0.950 . S
C3429 C3427 1.327 . S
C3430 C3418 1.349 . S
C3430 H3424 0.950 . S
C3430 C3431 1.327 . S
C3431 H3425 0.950 . S
C3431 C3430 1.327 . S
C3431 C3435 1.429 . S
C3432 C3415 1.574 . S
C3432 H3426 0.949 . S
C3432 C3436 1.368 . S
C3433 C3414 1.429 . S
C3433 C3427 1.429 . S
C3433 C3434 1.523 . S
C3434 C3415 1.368 . S
C3434 C3428 1.368 . S
C3434 C3433 1.523 . S
C3435 C3419 1.429 . S
C3435 C3431 1.429 . S
C3435 C3436 1.523 1_455 S
C3436 C3420 1.368 . S
C3436 C3432 1.368 . S
C3436 C3435 1.523 1_655 S
H3437 C3412 0.950 . S
H3438 C3414 0.950 . S
H3439 C3415 0.949 . S
H3440 C3417 0.950 . S
H3441 C3419 0.950 . S
C3442 C3443 1.349 . S
C3442 C3444 1.327 . S
C3442 H3467 0.950 . S
C3443 C3442 1.349 . S
C3443 C3459 1.349 . S
C3444 C3442 1.327 . S
C3444 C3463 1.429 . S
C3444 H3468 0.950 . S
C3445 C3462 1.574 . S
C3445 C3464 1.368 . S
C3445 H3469 0.949 . S
H3446 C3450 0.949 . S
C3447 C3448 1.349 . S
C3447 C3449 1.327 . S
C3447 H3470 0.950 . S
C3448 C3447 1.349 . S
C3448 C3460 1.349 . S
C3449 C3447 1.327 . S
C3449 C3465 1.429 . S
C3449 H3471 0.950 . S
C3450 H3446 0.949 . S
C3450 C3458 1.574 . S
C3450 C3466 1.368 . S
H3451 C3459 0.950 . S
H3452 C3457 0.950 . S
H3453 C3458 0.949 . S
H3454 C3460 0.950 . S
H3455 C3461 0.950 . S
H3456 C3462 0.949 . S
C3457 H3452 0.950 . S
C3457 C3459 1.327 . S
C3457 C3463 1.429 . S
C3458 C3450 1.574 . S
C3458 H3453 0.949 . S
C3458 C3464 1.368 . S
C3459 C3443 1.349 . S
C3459 H3451 0.950 . S
C3459 C3457 1.327 . S
C3460 C3448 1.349 . S
C3460 H3454 0.950 . S
C3460 C3461 1.327 . S
C3461 H3455 0.950 . S
C3461 C3460 1.327 . S
C3461 C3465 1.429 . S
C3462 C3445 1.574 . S
C3462 H3456 0.949 . S
C3462 C3466 1.368 . S
C3463 C3444 1.429 . S
C3463 C3457 1.429 . S
C3463 C3464 1.523 . S
C3464 C3445 1.368 . S
C3464 C3458 1.368 . S
C3464 C3463 1.523 . S
C3465 C3449 1.429 . S
C3465 C3461 1.429 . S
C3465 C3466 1.523 . S
C3466 C3450 1.368 . S
C3466 C3462 1.368 . S
C3466 C3465 1.523 . S
H3467 C3442 0.950 . S
H3468 C3444 0.950 . S
H3469 C3445 0.949 . S
H3470 C3447 0.950 . S
H3471 C3449 0.950 . S
C3472 C3473 1.349 . S
C3472 C3474 1.327 . S
C3472 H3497 0.950 . S
C3473 C3472 1.349 . S
C3473 C3489 1.349 . S
C3474 C3472 1.327 . S
C3474 C3493 1.429 . S
C3474 H3498 0.950 . S
C3475 C3492 1.574 . S
C3475 C3494 1.368 . S
C3475 H3499 0.949 . S
H3476 C3480 0.949 . S
C3477 C3478 1.349 . S
C3477 C3479 1.327 . S
C3477 H3500 0.950 . S
C3478 C3477 1.349 . S
C3478 C3490 1.349 . S
C3479 C3477 1.327 . S
C3479 C3495 1.429 . S
C3479 H3501 0.950 . S
C3480 H3476 0.949 . S
C3480 C3488 1.574 . S
C3480 C3496 1.368 . S
H3481 C3489 0.950 . S
H3482 C3487 0.950 . S
H3483 C3488 0.949 . S
H3484 C3490 0.950 . S
H3485 C3491 0.950 . S
H3486 C3492 0.949 . S
C3487 H3482 0.950 . S
C3487 C3489 1.327 . S
C3487 C3493 1.429 . S
C3488 C3480 1.574 . S
C3488 H3483 0.949 . S
C3488 C3494 1.368 . S
C3489 C3473 1.349 . S
C3489 H3481 0.950 . S
C3489 C3487 1.327 . S
C3490 C3478 1.349 . S
C3490 H3484 0.950 . S
C3490 C3491 1.327 . S
C3491 H3485 0.950 . S
C3491 C3490 1.327 . S
C3491 C3495 1.429 . S
C3492 C3475 1.574 . S
C3492 H3486 0.949 . S
C3492 C3496 1.368 . S
C3493 C3474 1.429 . S
C3493 C3487 1.429 . S
C3493 C3494 1.523 . S
C3494 C3475 1.368 . S
C3494 C3488 1.368 . S
C3494 C3493 1.523 . S
C3495 C3479 1.429 . S
C3495 C3491 1.429 . S
C3495 C3496 1.523 . S
C3496 C3480 1.368 . S
C3496 C3492 1.368 . S
C3496 C3495 1.523 . S
H3497 C3472 0.950 . S
H3498 C3474 0.950 . S
H3499 C3475 0.949 . S
H3500 C3477 0.950 . S
H3501 C3479 0.950 . S
C3502 C3503 1.349 . S
C3502 C3504 1.327 . S
C3502 H3527 0.950 . S
C3503 C3502 1.349 . S
C3503 C3519 1.349 . S
C3504 C3502 1.327 . S
C3504 C3523 1.429 . S
C3504 H3528 0.950 . S
C3505 C3522 1.574 . S
C3505 C3524 1.368 . S
C3505 H3529 0.949 . S
H3506 C3510 0.949 . S
C3507 C3508 1.349 . S
C3507 C3509 1.327 . S
C3507 H3530 0.950 . S
C3508 C3507 1.349 . S
C3508 C3520 1.349 . S
C3509 C3507 1.327 . S
C3509 C3525 1.429 . S
C3509 H3531 0.950 . S
C3510 H3506 0.949 . S
C3510 C3518 1.574 . S
C3510 C3526 1.368 . S
H3511 C3519 0.950 . S
H3512 C3517 0.950 . S
H3513 C3518 0.949 . S
H3514 C3520 0.950 . S
H3515 C3521 0.950 . S
H3516 C3522 0.949 . S
C3517 H3512 0.950 . S
C3517 C3519 1.327 . S
C3517 C3523 1.429 . S
C3518 C3510 1.574 . S
C3518 H3513 0.949 . S
C3518 C3524 1.368 . S
C3519 C3503 1.349 . S
C3519 H3511 0.950 . S
C3519 C3517 1.327 . S
C3520 C3508 1.349 . S
C3520 H3514 0.950 . S
C3520 C3521 1.327 . S
C3521 H3515 0.950 . S
C3521 C3520 1.327 . S
C3521 C3525 1.429 . S
C3522 C3505 1.574 . S
C3522 H3516 0.949 . S
C3522 C3526 1.368 . S
C3523 C3504 1.429 . S
C3523 C3517 1.429 . S
C3523 C3524 1.523 . S
C3524 C3505 1.368 . S
C3524 C3518 1.368 . S
C3524 C3523 1.523 . S
C3525 C3509 1.429 . S
C3525 C3521 1.429 . S
C3525 C3526 1.523 . S
C3526 C3510 1.368 . S
C3526 C3522 1.368 . S
C3526 C3525 1.523 . S
H3527 C3502 0.950 . S
H3528 C3504 0.950 . S
H3529 C3505 0.949 . S
H3530 C3507 0.950 . S
H3531 C3509 0.950 . S
C3532 C3533 1.349 . S
C3532 C3534 1.327 . S
C3532 H3557 0.950 . S
C3533 C3532 1.349 . S
C3533 C3549 1.349 . S
C3534 C3532 1.327 . S
C3534 C3553 1.429 . S
C3534 H3558 0.950 . S
C3535 C3552 1.574 . S
C3535 C3554 1.368 . S
C3535 H3559 0.949 . S
H3536 C3540 0.949 1_455 S
C3537 C3538 1.349 1_655 S
C3537 C3539 1.327 . S
C3537 H3560 0.950 . S
C3538 C3537 1.349 1_455 S
C3538 C3550 1.349 . S
C3539 C3537 1.327 . S
C3539 C3555 1.429 . S
C3539 H3561 0.950 . S
C3540 H3536 0.949 1_655 S
C3540 C3548 1.574 . S
C3540 C3556 1.368 . S
H3541 C3549 0.950 . S
H3542 C3547 0.950 . S
H3543 C3548 0.949 . S
H3544 C3550 0.950 . S
H3545 C3551 0.950 . S
H3546 C3552 0.949 . S
C3547 H3542 0.950 . S
C3547 C3549 1.327 . S
C3547 C3553 1.429 . S
C3548 C3540 1.574 . S
C3548 H3543 0.949 . S
C3548 C3554 1.368 . S
C3549 C3533 1.349 . S
C3549 H3541 0.950 . S
C3549 C3547 1.327 . S
C3550 C3538 1.349 . S
C3550 H3544 0.950 . S
C3550 C3551 1.327 . S
C3551 H3545 0.950 . S
C3551 C3550 1.327 . S
C3551 C3555 1.429 1_455 S
C3552 C3535 1.574 . S
C3552 H3546 0.949 . S
C3552 C3556 1.368 . S
C3553 C3534 1.429 . S
C3553 C3547 1.429 . S
C3553 C3554 1.523 . S
C3554 C3535 1.368 . S
C3554 C3548 1.368 . S
C3554 C3553 1.523 . S
C3555 C3539 1.429 . S
C3555 C3551 1.429 1_655 S
C3555 C3556 1.523 . S
C3556 C3540 1.368 . S
C3556 C3552 1.368 . S
C3556 C3555 1.523 . S
H3557 C3532 0.950 . S
H3558 C3534 0.950 . S
H3559 C3535 0.949 . S
H3560 C3537 0.950 . S
H3561 C3539 0.950 . S
C3562 C3563 1.349 . S
C3562 C3564 1.327 . S
C3562 H3587 0.950 . S
C3563 C3562 1.349 . S
C3563 C3579 1.349 . S
C3564 C3562 1.327 . S
C3564 C3583 1.429 . S
C3564 H3588 0.950 . S
C3565 C3582 1.574 . S
C3565 C3584 1.368 . S
C3565 H3589 0.949 . S
H3566 C3570 0.949 . S
C3567 C3568 1.349 . S
C3567 C3569 1.327 . S
C3567 H3590 0.950 . S
C3568 C3567 1.349 . S
C3568 C3580 1.349 . S
C3569 C3567 1.327 . S
C3569 C3585 1.429 . S
C3569 H3591 0.950 . S
C3570 H3566 0.949 . S
C3570 C3578 1.574 . S
C3570 C3586 1.368 . S
H3571 C3579 0.950 . S
H3572 C3577 0.950 . S
H3573 C3578 0.949 . S
H3574 C3580 0.950 . S
H3575 C3581 0.950 . S
H3576 C3582 0.949 . S
C3577 H3572 0.950 . S
C3577 C3579 1.327 . S
C3577 C3583 1.429 . S
C3578 C3570 1.574 . S
C3578 H3573 0.949 . S
C3578 C3584 1.368 . S
C3579 C3563 1.349 . S
C3579 H3571 0.950 . S
C3579 C3577 1.327 . S
C3580 C3568 1.349 . S
C3580 H3574 0.950 . S
C3580 C3581 1.327 . S
C3581 H3575 0.950 . S
C3581 C3580 1.327 . S
C3581 C3585 1.429 . S
C3582 C3565 1.574 . S
C3582 H3576 0.949 . S
C3582 C3586 1.368 . S
C3583 C3564 1.429 . S
C3583 C3577 1.429 . S
C3583 C3584 1.523 . S
C3584 C3565 1.368 . S
C3584 C3578 1.368 . S
C3584 C3583 1.523 . S
C3585 C3569 1.429 . S
C3585 C3581 1.429 . S
C3585 C3586 1.523 . S
C3586 C3570 1.368 . S
C3586 C3582 1.368 . S
C3586 C3585 1.523 . S
H3587 C3562 0.950 . S
H3588 C3564 0.950 . S
H3589 C3565 0.949 . S
H3590 C3567 0.950 . S
H3591 C3569 0.950 . S
C3592 C3593 1.349 . S
C3592 C3594 1.327 . S
C3592 H3617 0.950 . S
C3593 C3592 1.349 . S
C3593 C3609 1.349 . S
C3594 C3592 1.327 . S
C3594 C3613 1.429 . S
C3594 H3618 0.950 . S
C3595 C3612 1.574 . S
C3595 C3614 1.368 . S
C3595 H3619 0.949 . S
H3596 C3600 0.949 . S
C3597 C3598 1.349 . S
C3597 C3599 1.327 . S
C3597 H3620 0.950 . S
C3598 C3597 1.349 . S
C3598 C3610 1.349 . S
C3599 C3597 1.327 . S
C3599 C3615 1.429 . S
C3599 H3621 0.950 . S
C3600 H3596 0.949 . S
C3600 C3608 1.574 . S
C3600 C3616 1.368 . S
H3601 C3609 0.950 . S
H3602 C3607 0.950 . S
H3603 C3608 0.949 . S
H3604 C3610 0.950 . S
H3605 C3611 0.950 . S
H3606 C3612 0.949 . S
C3607 H3602 0.950 . S
C3607 C3609 1.327 . S
C3607 C3613 1.429 . S
C3608 C3600 1.574 . S
C3608 H3603 0.949 . S
C3608 C3614 1.368 . S
C3609 C3593 1.349 . S
C3609 H3601 0.950 . S
C3609 C3607 1.327 . S
C3610 C3598 1.349 . S
C3610 H3604 0.950 . S
C3610 C3611 1.327 . S
C3611 H3605 0.950 . S
C3611 C3610 1.327 . S
C3611 C3615 1.429 . S
C3612 C3595 1.574 . S
C3612 H3606 0.949 . S
C3612 C3616 1.368 . S
C3613 C3594 1.429 . S
C3613 C3607 1.429 . S
C3613 C3614 1.523 . S
C3614 C3595 1.368 . S
C3614 C3608 1.368 . S
C3614 C3613 1.523 . S
C3615 C3599 1.429 . S
C3615 C3611 1.429 . S
C3615 C3616 1.523 . S
C3616 C3600 1.368 . S
C3616 C3612 1.368 . S
C3616 C3615 1.523 . S
H3617 C3592 0.950 . S
H3618 C3594 0.950 . S
H3619 C3595 0.949 . S
H3620 C3597 0.950 . S
H3621 C3599 0.950 . S
C3622 C3623 1.349 . S
C3622 C3624 1.327 . S
C3622 H3647 0.950 . S
C3623 C3622 1.349 . S
C3623 C3639 1.349 . S
C3624 C3622 1.327 . S
C3624 C3643 1.429 . S
C3624 H3648 0.950 . S
C3625 C3642 1.574 . S
C3625 C3644 1.368 . S
C3625 H3649 0.949 . S
H3626 C3630 0.949 . S
C3627 C3628 1.349 . S
C3627 C3629 1.327 1_545 S
C3627 H3650 0.950 . S
C3628 C3627 1.349 . S
C3628 C3640 1.349 1_545 S
C3629 C3627 1.327 1_565 S
C3629 C3645 1.429 . S
C3629 H3651 0.950 . S
C3630 H3626 0.949 . S
C3630 C3638 1.574 . S
C3630 C3646 1.368 . S
H3631 C3639 0.950 . S
H3632 C3637 0.950 . S
H3633 C3638 0.949 . S
H3634 C3640 0.950 . S
H3635 C3641 0.950 . S
H3636 C3642 0.949 . S
C3637 H3632 0.950 . S
C3637 C3639 1.327 . S
C3637 C3643 1.429 . S
C3638 C3630 1.574 . S
C3638 H3633 0.949 . S
C3638 C3644 1.368 . S
C3639 C3623 1.349 . S
C3639 H3631 0.950 . S
C3639 C3637 1.327 . S
C3640 C3628 1.349 1_565 S
C3640 H3634 0.950 . S
C3640 C3641 1.327 . S
C3641 H3635 0.950 . S
C3641 C3640 1.327 . S
C3641 C3645 1.429 . S
C3642 C3625 1.574 . S
C3642 H3636 0.949 . S
C3642 C3646 1.368 . S
C3643 C3624 1.429 . S
C3643 C3637 1.429 . S
C3643 C3644 1.523 . S
C3644 C3625 1.368 . S
C3644 C3638 1.368 . S
C3644 C3643 1.523 . S
C3645 C3629 1.429 . S
C3645 C3641 1.429 . S
C3645 C3646 1.523 . S
C3646 C3630 1.368 . S
C3646 C3642 1.368 . S
C3646 C3645 1.523 . S
H3647 C3622 0.950 . S
H3648 C3624 0.950 . S
H3649 C3625 0.949 . S
H3650 C3627 0.950 . S
H3651 C3629 0.950 . S
C3652 C3653 1.349 . S
C3652 C3654 1.327 . S
C3652 H3677 0.950 . S
C3653 C3652 1.349 . S
C3653 C3669 1.349 . S
C3654 C3652 1.327 . S
C3654 C3673 1.429 . S
C3654 H3678 0.950 . S
C3655 C3672 1.574 . S
C3655 C3674 1.368 . S
C3655 H3679 0.949 . S
H3656 C3660 0.949 . S
C3657 C3658 1.349 . S
C3657 C3659 1.327 . S
C3657 H3680 0.950 . S
C3658 C3657 1.349 . S
C3658 C3670 1.349 . S
C3659 C3657 1.327 . S
C3659 C3675 1.429 . S
C3659 H3681 0.950 . S
C3660 H3656 0.949 . S
C3660 C3668 1.574 . S
C3660 C3676 1.368 . S
H3661 C3669 0.950 . S
H3662 C3667 0.950 . S
H3663 C3668 0.949 . S
H3664 C3670 0.950 . S
H3665 C3671 0.950 . S
H3666 C3672 0.949 . S
C3667 H3662 0.950 . S
C3667 C3669 1.327 . S
C3667 C3673 1.429 . S
C3668 C3660 1.574 . S
C3668 H3663 0.949 . S
C3668 C3674 1.368 . S
C3669 C3653 1.349 . S
C3669 H3661 0.950 . S
C3669 C3667 1.327 . S
C3670 C3658 1.349 . S
C3670 H3664 0.950 . S
C3670 C3671 1.327 . S
C3671 H3665 0.950 . S
C3671 C3670 1.327 . S
C3671 C3675 1.429 . S
C3672 C3655 1.574 . S
C3672 H3666 0.949 . S
C3672 C3676 1.368 . S
C3673 C3654 1.429 . S
C3673 C3667 1.429 . S
C3673 C3674 1.523 . S
C3674 C3655 1.368 . S
C3674 C3668 1.368 . S
C3674 C3673 1.523 . S
C3675 C3659 1.429 . S
C3675 C3671 1.429 . S
C3675 C3676 1.523 . S
C3676 C3660 1.368 . S
C3676 C3672 1.368 . S
C3676 C3675 1.523 . S
H3677 C3652 0.950 . S
H3678 C3654 0.950 . S
H3679 C3655 0.949 . S
H3680 C3657 0.950 . S
H3681 C3659 0.950 . S
C3682 C3683 1.349 . S
C3682 C3684 1.327 . S
C3682 H3707 0.950 . S
C3683 C3682 1.349 . S
C3683 C3699 1.349 . S
C3684 C3682 1.327 . S
C3684 C3703 1.429 . S
C3684 H3708 0.950 . S
C3685 C3702 1.574 . S
C3685 C3704 1.368 . S
C3685 H3709 0.949 . S
H3686 C3690 0.949 . S
C3687 C3688 1.349 . S
C3687 C3689 1.327 . S
C3687 H3710 0.950 . S
C3688 C3687 1.349 . S
C3688 C3700 1.349 . S
C3689 C3687 1.327 . S
C3689 C3705 1.429 . S
C3689 H3711 0.950 . S
C3690 H3686 0.949 . S
C3690 C3698 1.574 . S
C3690 C3706 1.368 . S
H3691 C3699 0.950 . S
H3692 C3697 0.950 . S
H3693 C3698 0.949 . S
H3694 C3700 0.950 . S
H3695 C3701 0.950 . S
H3696 C3702 0.949 . S
C3697 H3692 0.950 . S
C3697 C3699 1.327 . S
C3697 C3703 1.429 . S
C3698 C3690 1.574 . S
C3698 H3693 0.949 . S
C3698 C3704 1.368 . S
C3699 C3683 1.349 . S
C3699 H3691 0.950 . S
C3699 C3697 1.327 . S
C3700 C3688 1.349 . S
C3700 H3694 0.950 . S
C3700 C3701 1.327 . S
C3701 H3695 0.950 . S
C3701 C3700 1.327 . S
C3701 C3705 1.429 . S
C3702 C3685 1.574 . S
C3702 H3696 0.949 . S
C3702 C3706 1.368 . S
C3703 C3684 1.429 . S
C3703 C3697 1.429 . S
C3703 C3704 1.523 . S
C3704 C3685 1.368 . S
C3704 C3698 1.368 . S
C3704 C3703 1.523 . S
C3705 C3689 1.429 . S
C3705 C3701 1.429 . S
C3705 C3706 1.523 . S
C3706 C3690 1.368 . S
C3706 C3702 1.368 . S
C3706 C3705 1.523 . S
H3707 C3682 0.950 . S
H3708 C3684 0.950 . S
H3709 C3685 0.949 . S
H3710 C3687 0.950 . S
H3711 C3689 0.950 . S
C3712 C3713 1.349 . S
C3712 C3714 1.327 . S
C3712 H3737 0.950 . S
C3713 C3712 1.349 . S
C3713 C3729 1.349 . S
C3714 C3712 1.327 . S
C3714 C3733 1.429 . S
C3714 H3738 0.950 . S
C3715 C3732 1.574 . S
C3715 C3734 1.368 . S
C3715 H3739 0.949 . S
H3716 C3720 0.949 . S
C3717 C3718 1.349 . S
C3717 C3719 1.327 . S
C3717 H3740 0.950 . S
C3718 C3717 1.349 . S
C3718 C3730 1.349 . S
C3719 C3717 1.327 . S
C3719 C3735 1.429 . S
C3719 H3741 0.950 . S
C3720 H3716 0.949 . S
C3720 C3728 1.574 . S
C3720 C3736 1.368 . S
H3721 C3729 0.950 . S
H3722 C3727 0.950 . S
H3723 C3728 0.949 . S
H3724 C3730 0.950 . S
H3725 C3731 0.950 . S
H3726 C3732 0.949 . S
C3727 H3722 0.950 . S
C3727 C3729 1.327 . S
C3727 C3733 1.429 . S
C3728 C3720 1.574 . S
C3728 H3723 0.949 . S
C3728 C3734 1.368 . S
C3729 C3713 1.349 . S
C3729 H3721 0.950 . S
C3729 C3727 1.327 . S
C3730 C3718 1.349 . S
C3730 H3724 0.950 . S
C3730 C3731 1.327 . S
C3731 H3725 0.950 . S
C3731 C3730 1.327 . S
C3731 C3735 1.429 . S
C3732 C3715 1.574 . S
C3732 H3726 0.949 . S
C3732 C3736 1.368 . S
C3733 C3714 1.429 . S
C3733 C3727 1.429 . S
C3733 C3734 1.523 . S
C3734 C3715 1.368 . S
C3734 C3728 1.368 . S
C3734 C3733 1.523 . S
C3735 C3719 1.429 . S
C3735 C3731 1.429 . S
C3735 C3736 1.523 . S
C3736 C3720 1.368 . S
C3736 C3732 1.368 . S
C3736 C3735 1.523 . S
H3737 C3712 0.950 . S
H3738 C3714 0.950 . S
H3739 C3715 0.949 . S
H3740 C3717 0.950 . S
H3741 C3719 0.950 . S
C3742 C3743 1.349 . S
C3742 C3744 1.327 . S
C3742 H3767 0.950 . S
C3743 C3742 1.349 . S
C3743 C3759 1.349 . S
C3744 C3742 1.327 . S
C3744 C3763 1.429 . S
C3744 H3768 0.950 . S
C3745 C3762 1.572 1_554 S
C3745 C3764 1.376 . S
C3745 H3769 0.944 1_554 S
H3746 C3750 0.949 . S
C3747 C3748 1.349 . S
C3747 C3749 1.327 . S
C3747 H3770 0.950 . S
C3748 C3747 1.349 . S
C3748 C3760 1.349 1_556 S
C3749 C3747 1.327 . S
C3749 C3765 1.429 1_556 S
C3749 H3771 0.950 . S
C3750 H3746 0.949 . S
C3750 C3758 1.574 . S
C3750 C3766 1.368 . S
H3751 C3759 0.950 . S
H3752 C3757 0.950 1_556 S
H3753 C3758 0.949 . S
H3754 C3760 0.950 . S
H3755 C3761 0.950 . S
H3756 C3762 0.949 . S
C3757 H3752 0.950 1_554 S
C3757 C3759 1.327 . S
C3757 C3763 1.429 . S
C3758 C3750 1.574 . S
C3758 H3753 0.949 . S
C3758 C3764 1.368 . S
C3759 C3743 1.349 . S
C3759 H3751 0.950 . S
C3759 C3757 1.327 . S
C3760 C3748 1.349 1_554 S
C3760 H3754 0.950 . S
C3760 C3761 1.327 . S
C3761 H3755 0.950 . S
C3761 C3760 1.327 . S
C3761 C3765 1.429 . S
C3762 C3745 1.572 1_556 S
C3762 H3756 0.949 . S
C3762 C3766 1.368 1_556 S
C3763 C3744 1.429 . S
C3763 C3757 1.429 . S
C3763 C3764 1.523 . S
C3764 C3745 1.376 . S
C3764 C3758 1.368 . S
C3764 C3763 1.523 . S
C3765 C3749 1.429 1_554 S
C3765 C3761 1.429 . S
C3765 C3766 1.523 . S
C3766 C3750 1.368 . S
C3766 C3762 1.368 1_554 S
C3766 C3765 1.523 . S
H3767 C3742 0.950 . S
H3768 C3744 0.950 . S
H3769 C3745 0.944 1_556 S
H3770 C3747 0.950 . S
H3771 C3749 0.950 . S
C3772 C3773 1.349 . S
C3772 C3774 1.327 . S
C3772 H3797 0.950 . S
C3773 C3772 1.349 . S
C3773 C3789 1.349 . S
C3774 C3772 1.327 . S
C3774 C3793 1.429 . S
C3774 H3798 0.950 . S
C3775 C3792 1.574 . S
C3775 C3794 1.368 . S
C3775 H3799 0.949 . S
H3776 C3780 0.949 . S
C3777 C3778 1.349 . S
C3777 C3779 1.327 . S
C3777 H3800 0.950 . S
C3778 C3777 1.349 . S
C3778 C3790 1.349 . S
C3779 C3777 1.327 . S
C3779 C3795 1.429 . S
C3779 H3801 0.950 . S
C3780 H3776 0.949 . S
C3780 C3788 1.574 . S
C3780 C3796 1.368 . S
H3781 C3789 0.950 . S
H3782 C3787 0.950 . S
H3783 C3788 0.949 . S
H3784 C3790 0.950 . S
H3785 C3791 0.950 . S
H3786 C3792 0.949 . S
C3787 H3782 0.950 . S
C3787 C3789 1.327 . S
C3787 C3793 1.429 . S
C3788 C3780 1.574 . S
C3788 H3783 0.949 . S
C3788 C3794 1.368 . S
C3789 C3773 1.349 . S
C3789 H3781 0.950 . S
C3789 C3787 1.327 . S
C3790 C3778 1.349 . S
C3790 H3784 0.950 . S
C3790 C3791 1.327 . S
C3791 H3785 0.950 . S
C3791 C3790 1.327 . S
C3791 C3795 1.429 . S
C3792 C3775 1.574 . S
C3792 H3786 0.949 . S
C3792 C3796 1.368 . S
C3793 C3774 1.429 . S
C3793 C3787 1.429 . S
C3793 C3794 1.523 . S
C3794 C3775 1.368 . S
C3794 C3788 1.368 . S
C3794 C3793 1.523 . S
C3795 C3779 1.429 . S
C3795 C3791 1.429 . S
C3795 C3796 1.523 . S
C3796 C3780 1.368 . S
C3796 C3792 1.368 . S
C3796 C3795 1.523 . S
H3797 C3772 0.950 . S
H3798 C3774 0.950 . S
H3799 C3775 0.949 . S
H3800 C3777 0.950 . S
H3801 C3779 0.950 . S
C3802 C3803 1.349 . S
C3802 C3804 1.327 . S
C3802 H3827 0.950 . S
C3803 C3802 1.349 . S
C3803 C3819 1.349 . S
C3804 C3802 1.327 . S
C3804 C3823 1.429 . S
C3804 H3828 0.950 . S
C3805 C3822 1.574 . S
C3805 C3824 1.368 . S
C3805 H3829 0.949 . S
H3806 C3810 0.949 . S
C3807 C3808 1.349 . S
C3807 C3809 1.327 . S
C3807 H3830 0.950 . S
C3808 C3807 1.349 . S
C3808 C3820 1.349 . S
C3809 C3807 1.327 . S
C3809 C3825 1.429 . S
C3809 H3831 0.950 . S
C3810 H3806 0.949 . S
C3810 C3818 1.574 . S
C3810 C3826 1.368 . S
H3811 C3819 0.950 . S
H3812 C3817 0.950 . S
H3813 C3818 0.949 . S
H3814 C3820 0.950 . S
H3815 C3821 0.950 . S
H3816 C3822 0.949 . S
C3817 H3812 0.950 . S
C3817 C3819 1.327 . S
C3817 C3823 1.429 . S
C3818 C3810 1.574 . S
C3818 H3813 0.949 . S
C3818 C3824 1.368 . S
C3819 C3803 1.349 . S
C3819 H3811 0.950 . S
C3819 C3817 1.327 . S
C3820 C3808 1.349 . S
C3820 H3814 0.950 . S
C3820 C3821 1.327 . S
C3821 H3815 0.950 . S
C3821 C3820 1.327 . S
C3821 C3825 1.429 . S
C3822 C3805 1.574 . S
C3822 H3816 0.949 . S
C3822 C3826 1.368 . S
C3823 C3804 1.429 . S
C3823 C3817 1.429 . S
C3823 C3824 1.523 . S
C3824 C3805 1.368 . S
C3824 C3818 1.368 . S
C3824 C3823 1.523 . S
C3825 C3809 1.429 . S
C3825 C3821 1.429 . S
C3825 C3826 1.523 . S
C3826 C3810 1.368 . S
C3826 C3822 1.368 . S
C3826 C3825 1.523 . S
H3827 C3802 0.950 . S
H3828 C3804 0.950 . S
H3829 C3805 0.949 . S
H3830 C3807 0.950 . S
H3831 C3809 0.950 . S
C953 C101 2.047 . S
C958 C343 2.038 . S
C983 C57 1.713 . S
C988 C354 1.744 . S
C1013 C73 1.558 . S
C1018 C423 1.597 . S
C1048 C436 1.174 . S
C1043 C78 1.160 . S
C1073 C21 2.597 . S
C1078 C492 2.584 . S
C1108 C543 1.976 . S
C1103 C31 1.949 . S
C1138 C572 2.461 . S
C1133 C49 2.469 . S
C1163 C0 2.271 . S
C1168 C623 2.323 . S
C1198 C314 1.045 . S
C1193 C218 1.048 . S
C1223 C229 0.799 . S
C1228 C356 0.802 . S
C1258 C394 1.025 . S
C1253 C257 1.034 . S
C1288 C463 1.543 . S
C1283 C164 1.464 . S
C1313 C216 0.535 . S
C1318 C497 0.480 1_655 S
C1348 C514 1.386 . S
C1343 C231 1.388 . S
C1378 C577 0.285 . S
C1373 C255 0.392 . S
C1408 C594 2.008 . S
C1403 C166 2.045 . S
C1438 C316 1.411 . S
C1433 C143 1.381 . S
C1463 C265 1.584 . S
C1468 C655 1.581 . S
C1498 C676 1.158 . S
C1493 C299 1.139 . S
C1528 C735 0.326 1_655 S
C1523 C291 0.447 . S
C1553 C104 0.730 . S
C1558 C596 0.728 . S
C1583 C117 1.265 . S
C1588 C396 1.279 . S
C1613 C304 0.818 . S
C1618 C754 0.827 . S
C1648 C823 0.825 . S
C1643 C278 0.824 . S
C1678 C332 1.971 . S
C1673 C60 2.005 . S
C1708 C815 1.630 . S
C1703 C96 1.631 . S
C1733 C88 1.496 . S
C1738 C412 1.472 . S
C1763 C65 1.104 . S
C1768 C777 1.109 . S
C1798 C503 2.451 . S
C1793 C10 2.470 . S
C1823 C44 1.853 . S
C1828 C692 1.900 . S
C1858 C583 2.345 1_556 S
C1853 C34 2.293 . S
C1888 C852 2.252 . S
C1883 C13 2.261 1_655 S
C1918 C335 0.972 . S
C1913 C138 0.969 . S
C1948 C817 0.717 . S
C1943 C296 0.713 . S
C1973 C112 0.912 . S
C1978 C415 0.925 . S
C2003 C270 1.408 . S
C2008 C772 1.404 . S
C2033 C140 0.378 . S
C2038 C476 0.407 . S
C2068 C695 1.289 . S
C2063 C294 1.276 . S
C2093 C114 0.186 . S
C2098 C556 0.248 . S
C2123 C268 1.883 . S
C2128 C855 1.907 . S
C2153 C169 1.497 . S
C2158 C337 1.423 . S
C2183 C161 1.526 . S
C2188 C634 1.509 . S
C2213 C234 1.254 . S
C2218 C537 1.175 . S
C2243 C226 0.382 . S
C2248 C714 0.267 . S
C2278 C857 0.740 . S
C2273 C247 0.739 . S
C2303 C195 1.279 . S
C2308 C417 1.252 . S
C2338 C455 0.708 . S
C2333 C239 0.710 . S
C2368 C372 0.759 . S
C2363 C187 0.760 . S
C2393 C75 2.046 . S
C2398 C903 2.038 . S
C2428 C794 1.743 . S
C2423 C83 1.712 . S
C2453 C99 1.558 . S
C2458 C943 1.597 . S
C2483 C52 1.160 . S
C2488 C756 1.174 . S
C2513 C47 2.597 . S
C2518 C652 2.584 . S
C2548 C703 1.976 . S
C2543 C5 1.949 . S
C2578 C732 2.461 . S
C2573 C23 2.470 . S
C2608 C863 2.323 . S
C2603 C26 2.272 . S
C2638 C874 1.045 . S
C2633 C244 1.047 . S
C2663 C177 0.799 . S
C2668 C796 0.802 . S
C2698 C914 1.026 . S
C2693 C192 1.035 . S
C2728 C783 1.543 . S
C2723 C203 1.464 . S
C2758 C657 0.478 . S
C2753 C242 0.535 . S
C2783 C179 1.388 . S
C2788 C674 1.387 . S
C2818 C737 0.285 . S
C2813 C190 0.391 . S
C2843 C205 2.045 . S
C2848 C834 2.008 . S
C2878 C876 1.415 . S
C2873 C286 1.382 . S
C2903 C122 1.585 . S
C2908 C495 1.581 . S
C2938 C516 1.158 . S
C2933 C130 1.139 1_565 S
C2968 C575 0.326 . S
C2963 C148 0.450 . S
C2998 C836 0.729 . S
C2993 C273 0.731 . S
C3023 C260 1.265 . S
C3028 C916 1.279 . S
C3058 C434 0.827 . S
C3053 C135 0.818 . S
C3088 C383 0.826 . S
C3083 C109 0.825 . S
C3113 C86 2.006 . S
C3118 C892 1.972 . S
C3148 C375 1.630 . S
C3143 C70 1.631 . S
C3173 C62 1.496 . S
C3178 C932 1.472 . S
C3203 C91 1.104 . S
C3208 C457 1.109 . S
C3233 C36 2.470 . S
C3238 C663 2.451 1_556 S
C3268 C532 1.900 . S
C3263 C18 1.853 . S
C3293 C8 2.293 . S
C3298 C743 2.345 . S
C3323 C39 2.261 . S
C3328 C612 2.251 . S
C3358 C895 0.972 . S
C3353 C307 0.969 . S
C3383 C153 0.713 . S
C3388 C377 0.710 . S
C3418 C935 0.925 . S
C3413 C281 0.912 . S
C3443 C127 1.408 . S
C3448 C452 1.403 . S
C3473 C309 0.379 . S
C3478 C636 0.407 . S
C3508 C535 1.289 . S
C3503 C151 1.281 . S
C3533 C283 0.186 . S
C3538 C716 0.248 . S
C3568 C615 1.907 . S
C3563 C125 1.883 . S
C3598 C897 1.422 . S
C3593 C221 1.496 . S
C3628 C474 1.509 . S
C3623 C200 1.527 . S
C3653 C208 1.253 . S
C3658 C697 1.175 . S
C3688 C554 0.267 . S
C3683 C174 0.382 . S
C3713 C182 0.738 . S
C3718 C617 0.740 . S
C3743 C156 1.280 . S
C3748 C937 1.253 . S
C3778 C775 0.708 . S
C3773 C213 0.709 . S
C3808 C812 0.760 . S
C3803 C252 0.760 . S
