# Generated by pormake.
# Topology ibd, (4,6)-cn, num edge types: 1
# Building blocks:
#     Node 0, Type 0, BuildingBlock: QUQFOY_clean_sbu_3, # of connection points: 4
#     Node 1, Type 0, BuildingBlock: QUQFOY_clean_sbu_3, # of connection points: 4
#     Node 2, Type 0, BuildingBlock: QUQFOY_clean_sbu_3, # of connection points: 4
#     Node 3, Type 0, BuildingBlock: QUQFOY_clean_sbu_3, # of connection points: 4
#     Node 4, Type 0, BuildingBlock: QUQFOY_clean_sbu_3, # of connection points: 4
#     Node 5, Type 0, BuildingBlock: QUQFOY_clean_sbu_3, # of connection points: 4
#     Node 6, Type 0, BuildingBlock: QUQFOY_clean_sbu_3, # of connection points: 4
#     Node 7, Type 0, BuildingBlock: QUQFOY_clean_sbu_3, # of connection points: 4
#     Node 8, Type 0, BuildingBlock: QUQFOY_clean_sbu_3, # of connection points: 4
#     Node 9, Type 0, BuildingBlock: QUQFOY_clean_sbu_3, # of connection points: 4
#     Node 10, Type 0, BuildingBlock: QUQFOY_clean_sbu_3, # of connection points: 4
#     Node 11, Type 0, BuildingBlock: QUQFOY_clean_sbu_3, # of connection points: 4
#     Node 12, Type 0, BuildingBlock: QUQFOY_clean_sbu_3, # of connection points: 4
#     Node 13, Type 0, BuildingBlock: QUQFOY_clean_sbu_3, # of connection points: 4
#     Node 14, Type 0, BuildingBlock: QUQFOY_clean_sbu_3, # of connection points: 4
#     Node 15, Type 0, BuildingBlock: QUQFOY_clean_sbu_3, # of connection points: 4
#     Node 16, Type 0, BuildingBlock: QUQFOY_clean_sbu_3, # of connection points: 4
#     Node 17, Type 0, BuildingBlock: QUQFOY_clean_sbu_3, # of connection points: 4
#     Node 18, Type 0, BuildingBlock: QUQFOY_clean_sbu_3, # of connection points: 4
#     Node 19, Type 0, BuildingBlock: QUQFOY_clean_sbu_3, # of connection points: 4
#     Node 20, Type 0, BuildingBlock: QUQFOY_clean_sbu_3, # of connection points: 4
#     Node 21, Type 0, BuildingBlock: QUQFOY_clean_sbu_3, # of connection points: 4
#     Node 22, Type 0, BuildingBlock: QUQFOY_clean_sbu_3, # of connection points: 4
#     Node 23, Type 0, BuildingBlock: QUQFOY_clean_sbu_3, # of connection points: 4
#     Node 24, Type 1, BuildingBlock: CIFDUS_clean_sbu_1, # of connection points: 6
#     Node 25, Type 1, BuildingBlock: CIFDUS_clean_sbu_1, # of connection points: 6
#     Node 26, Type 1, BuildingBlock: CIFDUS_clean_sbu_1, # of connection points: 6
#     Node 27, Type 1, BuildingBlock: CIFDUS_clean_sbu_1, # of connection points: 6
#     Node 28, Type 1, BuildingBlock: CIFDUS_clean_sbu_1, # of connection points: 6
#     Node 29, Type 1, BuildingBlock: CIFDUS_clean_sbu_1, # of connection points: 6
#     Node 30, Type 1, BuildingBlock: CIFDUS_clean_sbu_1, # of connection points: 6
#     Node 31, Type 1, BuildingBlock: CIFDUS_clean_sbu_1, # of connection points: 6
#     Node 32, Type 1, BuildingBlock: CIFDUS_clean_sbu_1, # of connection points: 6
#     Node 33, Type 1, BuildingBlock: CIFDUS_clean_sbu_1, # of connection points: 6
#     Node 34, Type 1, BuildingBlock: CIFDUS_clean_sbu_1, # of connection points: 6
#     Node 35, Type 1, BuildingBlock: CIFDUS_clean_sbu_1, # of connection points: 6
#     Node 36, Type 1, BuildingBlock: CIFDUS_clean_sbu_1, # of connection points: 6
#     Node 37, Type 1, BuildingBlock: CIFDUS_clean_sbu_1, # of connection points: 6
#     Node 38, Type 1, BuildingBlock: CIFDUS_clean_sbu_1, # of connection points: 6
#     Node 39, Type 1, BuildingBlock: CIFDUS_clean_sbu_1, # of connection points: 6
#     Edge 40, Type (0, 1), None
#     Edge 41, Type (0, 1), None
#     Edge 42, Type (0, 1), None
#     Edge 43, Type (0, 1), None
#     Edge 44, Type (0, 1), None
#     Edge 45, Type (0, 1), None
#     Edge 46, Type (0, 1), None
#     Edge 47, Type (0, 1), None
#     Edge 48, Type (0, 1), None
#     Edge 49, Type (0, 1), None
#     Edge 50, Type (0, 1), None
#     Edge 51, Type (0, 1), None
#     Edge 52, Type (0, 1), None
#     Edge 53, Type (0, 1), None
#     Edge 54, Type (0, 1), None
#     Edge 55, Type (0, 1), None
#     Edge 56, Type (0, 1), None
#     Edge 57, Type (0, 1), None
#     Edge 58, Type (0, 1), None
#     Edge 59, Type (0, 1), None
#     Edge 60, Type (0, 1), None
#     Edge 61, Type (0, 1), None
#     Edge 62, Type (0, 1), None
#     Edge 63, Type (0, 1), None
#     Edge 64, Type (0, 1), None
#     Edge 65, Type (0, 1), None
#     Edge 66, Type (0, 1), None
#     Edge 67, Type (0, 1), None
#     Edge 68, Type (0, 1), None
#     Edge 69, Type (0, 1), None
#     Edge 70, Type (0, 1), None
#     Edge 71, Type (0, 1), None
#     Edge 72, Type (0, 1), None
#     Edge 73, Type (0, 1), None
#     Edge 74, Type (0, 1), None
#     Edge 75, Type (0, 1), None
#     Edge 76, Type (0, 1), None
#     Edge 77, Type (0, 1), None
#     Edge 78, Type (0, 1), None
#     Edge 79, Type (0, 1), None
#     Edge 80, Type (0, 1), None
#     Edge 81, Type (0, 1), None
#     Edge 82, Type (0, 1), None
#     Edge 83, Type (0, 1), None
#     Edge 84, Type (0, 1), None
#     Edge 85, Type (0, 1), None
#     Edge 86, Type (0, 1), None
#     Edge 87, Type (0, 1), None
#     Edge 88, Type (0, 1), None
#     Edge 89, Type (0, 1), None
#     Edge 90, Type (0, 1), None
#     Edge 91, Type (0, 1), None
#     Edge 92, Type (0, 1), None
#     Edge 93, Type (0, 1), None
#     Edge 94, Type (0, 1), None
#     Edge 95, Type (0, 1), None
#     Edge 96, Type (0, 1), None
#     Edge 97, Type (0, 1), None
#     Edge 98, Type (0, 1), None
#     Edge 99, Type (0, 1), None
#     Edge 100, Type (0, 1), None
#     Edge 101, Type (0, 1), None
#     Edge 102, Type (0, 1), None
#     Edge 103, Type (0, 1), None
#     Edge 104, Type (0, 1), None
#     Edge 105, Type (0, 1), None
#     Edge 106, Type (0, 1), None
#     Edge 107, Type (0, 1), None
#     Edge 108, Type (0, 1), None
#     Edge 109, Type (0, 1), None
#     Edge 110, Type (0, 1), None
#     Edge 111, Type (0, 1), None
#     Edge 112, Type (0, 1), None
#     Edge 113, Type (0, 1), None
#     Edge 114, Type (0, 1), None
#     Edge 115, Type (0, 1), None
#     Edge 116, Type (0, 1), None
#     Edge 117, Type (0, 1), None
#     Edge 118, Type (0, 1), None
#     Edge 119, Type (0, 1), None
#     Edge 120, Type (0, 1), None
#     Edge 121, Type (0, 1), None
#     Edge 122, Type (0, 1), None
#     Edge 123, Type (0, 1), None
#     Edge 124, Type (0, 1), None
#     Edge 125, Type (0, 1), None
#     Edge 126, Type (0, 1), None
#     Edge 127, Type (0, 1), None
#     Edge 128, Type (0, 1), None
#     Edge 129, Type (0, 1), None
#     Edge 130, Type (0, 1), None
#     Edge 131, Type (0, 1), None
#     Edge 132, Type (0, 1), None
#     Edge 133, Type (0, 1), None
#     Edge 134, Type (0, 1), None
#     Edge 135, Type (0, 1), None
# Relax obj value: 0.359
# Max RMSD: 0.310
# Mean RMSD: 0.279
data_MOF--net-ibd--node1-QUQFOY_clean_sbu_3--node2-CIFDUS_clean_sbu_1--edge1-none
_symmetry_space_group_name_H-M    P1
_symmetry_Int_Tables_number       1
_symmetry_cell_setting            triclinic
loop_
_symmetry_equiv_pos_as_xyz
'x, y, z'
_cell_length_a     22.80193
_cell_length_b     23.271498
_cell_length_c     23.409223
_cell_angle_alpha  89.739866
_cell_angle_beta   90.077222
_cell_angle_gamma 94.271758
loop_
_atom_site_label
_atom_site_type_symbol
_atom_site_fract_x
_atom_site_fract_y
_atom_site_fract_z
_atom_type_partial_charge
C0 C 0.91535 0.27426 0.46654 0.0
O1 O 0.90191 0.32446 0.47883 0.0
Cd2 Cd 0.91885 0.40958 0.42343 0.0
O3 O 0.94455 0.26373 0.42157 0.0
Cd4 Cd 0.00601 0.31562 0.34732 0.0
C5 C 0.04502 0.35447 0.45576 0.0
O6 O 0.93023 0.38718 0.32296 0.0
O7 O -0.01623 0.35618 0.25529 0.0
O8 O -0.00188 0.22575 0.29587 0.0
C9 C 0.93594 0.37545 0.2702 0.0
O10 O 0.01237 0.38101 0.42307 0.0
C11 C 0.04668 0.23946 0.27061 0.0
O12 O 0.08285 0.32705 0.43058 0.0
O13 O 0.07709 0.28475 0.28626 0.0
C14 C 0.04144 0.88615 0.53827 0.0
O15 O 0.0178 0.92382 0.56733 0.0
Cd16 Cd 0.92988 0.87154 0.59167 0.0
O17 O 0.03052 0.83318 0.5505 0.0
Cd18 Cd -0.02407 0.79095 0.63696 0.0
C19 C 0.92544 0.74255 0.52237 0.0
O20 O 0.93014 0.85775 0.6931 0.0
O21 O 0.87723 0.77945 0.67125 0.0
O22 O 0.05066 0.78801 0.70704 0.0
C23 C 0.89019 0.81958 0.7067 0.0
O24 O 0.91577 0.79532 0.51697 0.0
C25 C 0.03368 0.73743 0.72379 0.0
O26 O 0.94558 0.72411 0.56872 0.0
O27 O -0.00544 0.70931 0.69472 0.0
C28 C 0.41588 0.77563 0.9711 0.0
O29 O 0.42812 0.8272 -0.01298 0.0
Cd30 Cd 0.44674 0.90397 0.91704 0.0
O31 O 0.42065 0.76147 0.91878 0.0
Cd32 Cd 0.47955 0.81694 0.84993 0.0
C33 C 0.56654 0.87444 0.94943 0.0
O34 O 0.39725 0.87289 0.83004 0.0
O35 O 0.4693 0.88546 0.77114 0.0
O36 O 0.47691 0.73302 0.78632 0.0
C37 C 0.41431 0.88188 0.77896 0.0
O38 O 0.55271 0.91688 0.91927 0.0
C39 C 0.52773 0.74867 0.76664 0.0
O40 O 0.54189 0.82567 0.93776 0.0
O41 O 0.55579 0.79187 0.78954 0.0
C42 C 0.54108 0.38868 0.03301 0.0
O43 O 0.51249 0.42585 0.05779 0.0
Cd44 Cd 0.42864 0.37211 0.08956 0.0
O45 O 0.53428 0.33608 0.04833 0.0
Cd46 Cd 0.48116 0.2922 0.13471 0.0
C47 C 0.42697 0.24194 0.02175 0.0
O48 O 0.44152 0.36318 0.1911 0.0
O49 O 0.388 0.28327 0.18024 0.0
O50 O 0.56088 0.28957 0.19756 0.0
C51 C 0.40364 0.32626 0.21142 0.0
O52 O 0.41678 0.29453 0.01602 0.0
C53 C 0.54274 0.24097 0.21853 0.0
O54 O 0.44745 0.22415 0.06818 0.0
O55 O 0.50025 0.21261 0.19439 0.0
C56 C 0.86006 0.73349 0.20243 0.0
O57 O 0.82502 0.76007 0.17189 0.0
Cd58 Cd 0.89086 0.83368 0.13739 0.0
O59 O 0.91417 0.73539 0.18867 0.0
Cd60 Cd 0.96393 0.77795 0.09767 0.0
C61 C 0.01701 0.82877 0.2136 0.0
O62 O 0.89899 0.82989 0.03386 0.0
O63 O -0.0138 0.86843 0.05147 0.0
O64 O 0.95762 0.69528 0.03976 0.0
C65 C 0.94176 0.86428 0.01852 0.0
O66 O 0.96507 0.84419 0.21669 0.0
C67 C 0.01103 0.69853 0.02374 0.0
O68 O 0.034 0.80591 0.16813 0.0
O69 O 0.04561 0.73763 0.04547 0.0
C70 C 0.56001 0.86657 0.27209 0.0
O71 O 0.54101 0.91509 0.2614 0.0
Cd72 Cd 0.4794 0.90084 0.34865 0.0
O73 O 0.57464 0.85728 0.32381 0.0
Cd74 Cd 0.53865 0.77882 0.3862 0.0
C75 C 0.43697 0.76747 0.28462 0.0
O76 O 0.5143 0.8582 0.4375 0.0
O77 O 0.45741 0.78178 0.45572 0.0
O78 O 0.59496 0.75807 0.4717 0.0
C79 C 0.47555 0.83283 0.46971 0.0
O80 O 0.42954 0.81926 0.29856 0.0
C81 C 0.58668 0.70476 0.46134 0.0
O82 O 0.47509 0.73859 0.30928 0.0
O83 O 0.58183 0.69124 0.40876 0.0
C84 C 0.36104 0.23622 0.70339 0.0
O85 O 0.32682 0.26511 0.6742 0.0
Cd86 Cd 0.39601 0.33523 0.63853 0.0
O87 O 0.41472 0.23569 0.68845 0.0
Cd88 Cd 0.46596 0.27661 0.59735 0.0
C89 C 0.52338 0.32506 0.71271 0.0
O90 O 0.40151 0.33136 0.5351 0.0
O91 O 0.49006 0.36678 0.5515 0.0
O92 O 0.45543 0.1928 0.5413 0.0
C93 C 0.44496 0.36469 0.51942 0.0
O94 O 0.47251 0.34321 0.71593 0.0
C95 C 0.50732 0.19591 0.52109 0.0
O96 O 0.53856 0.30057 0.66741 0.0
O97 O 0.54352 0.23541 0.53964 0.0
C98 C 0.07581 0.37405 0.77786 0.0
O99 O 0.06023 0.42453 0.77046 0.0
Cd100 Cd -0.0092 0.40412 0.85034 0.0
O101 O 0.08887 0.36052 0.82903 0.0
Cd102 Cd 0.04204 0.28256 0.88709 0.0
C103 C 0.94439 0.27473 0.78134 0.0
O104 O 0.01908 0.36126 0.94141 0.0
O105 O 0.95757 0.28696 0.95285 0.0
O106 O 0.09299 0.25646 0.97445 0.0
C107 C -0.02208 0.33598 0.97082 0.0
O108 O 0.93913 0.32688 0.79529 0.0
C109 C 0.08435 0.20364 0.9622 0.0
O110 O -0.02075 0.24391 0.80818 0.0
O111 O 0.07831 0.19178 0.90937 0.0
C112 C 0.45041 0.93081 0.14387 0.0
O113 O 0.44694 0.89029 0.18014 0.0
Cd114 Cd 0.38489 0.90694 0.25676 0.0
O115 O 0.41629 0.97159 0.14546 0.0
Cd116 Cd 0.33944 0.01631 0.19448 0.0
C117 C 0.45249 0.04246 0.28379 0.0
O118 O 0.29158 0.92918 0.21997 0.0
O119 O 0.27199 0.00065 0.27463 0.0
O120 O 0.24996 0.03924 0.14498 0.0
C121 C 0.25871 0.94969 0.25711 0.0
O122 O 0.44708 -0.01151 0.29239 0.0
C123 C 0.26591 0.09236 0.14531 0.0
O124 O 0.41468 0.06661 0.25391 0.0
O125 O 0.32076 0.10532 0.15001 0.0
C126 C 0.31972 0.05603 0.57402 0.0
O127 O 0.34621 0.10439 0.58482 0.0
Cd128 Cd 0.33411 0.12686 0.48434 0.0
O129 O 0.26923 0.0585 0.55278 0.0
Cd130 Cd 0.24287 0.15317 0.51231 0.0
C131 C 0.22445 0.03584 0.43779 0.0
O132 O 0.31656 0.22671 0.47433 0.0
O133 O 0.2366 0.20516 0.4255 0.0
O134 O 0.23478 0.20842 0.59299 0.0
C135 C 0.27971 0.2411 0.43719 0.0
O136 O 0.27941 0.0459 0.42979 0.0
C137 C 0.18117 0.21772 0.58491 0.0
O138 O 0.19712 0.07098 0.4673 0.0
O139 O 0.15326 0.19098 0.54486 0.0
C140 C 0.19851 0.92774 0.68542 0.0
O141 O 0.17425 0.89987 0.72688 0.0
Cd142 Cd 0.10503 0.92979 0.79151 0.0
O143 O 0.17931 0.97476 0.66722 0.0
Cd144 Cd 0.09423 0.03018 0.70145 0.0
C145 C 0.19664 0.05004 0.80586 0.0
O146 O 0.02584 0.95073 0.72758 0.0
O147 O 0.00051 0.03226 0.75401 0.0
O148 O 0.07003 0.06703 0.61181 0.0
C149 C -0.01372 0.97894 0.74975 0.0
O150 O 0.17554 0.00481 0.83144 0.0
C151 C 0.04886 0.11191 0.63225 0.0
O152 O 0.17228 0.06768 0.76105 0.0
O153 O 0.05611 0.12262 0.68488 0.0
C154 C 0.27561 0.8067 0.08076 0.0
O155 O 0.32008 0.80949 0.04862 0.0
Cd156 Cd 0.32807 0.87207 0.96858 0.0
O157 O 0.23519 0.84118 0.07465 0.0
Cd158 Cd 0.21133 0.91462 0.00509 0.0
C159 C 0.20338 0.80091 0.9211 0.0
O160 O 0.3063 0.96505 0.00239 0.0
O161 O 0.24744 -0.01355 0.93443 0.0
O162 O 0.17522 0.97648 0.07333 0.0
C163 C 0.2923 0.00078 0.9647 0.0
O164 O 0.2579 0.8136 0.913 0.0
C165 C 0.1325 -0.01075 0.04217 0.0
O166 O 0.17335 0.83078 0.95337 0.0
O167 O 0.12011 0.95919 -0.00194 0.0
C168 C 0.21868 0.30679 0.08979 0.0
O169 O 0.26539 0.32741 0.11387 0.0
Cd170 Cd 0.32467 0.38076 0.04885 0.0
O171 O 0.20149 0.32864 0.04309 0.0
Cd172 Cd 0.23975 0.41969 -0.01065 0.0
C173 C 0.29178 0.31279 0.92563 0.0
O174 O 0.28981 0.47803 0.06299 0.0
O175 O 0.3078 0.50331 0.97623 0.0
O176 O 0.14508 0.45812 -0.0045 0.0
C177 C 0.30615 0.51808 0.02816 0.0
O178 O 0.30978 0.30296 0.97548 0.0
C179 C 0.15269 0.48515 0.94844 0.0
O180 O 0.274 0.36175 0.91429 0.0
O181 O 0.1959 0.47444 0.9175 0.0
C182 C 0.72715 0.03124 0.08692 0.0
O183 O 0.77452 0.04149 0.11464 0.0
Cd184 Cd 0.83511 0.12172 0.08294 0.0
O185 O 0.71053 0.06646 0.04863 0.0
Cd186 Cd 0.73428 0.15365 -0.01339 0.0
C187 C 0.83013 0.06169 0.94783 0.0
O188 O 0.76976 0.1962 0.06722 0.0
O189 O 0.80742 0.23788 -0.00894 0.0
O190 O 0.6732 0.23709 0.96892 0.0
C191 C 0.79593 0.24021 0.04417 0.0
O192 O 0.85277 0.0705 -0.00314 0.0
C193 C 0.65671 0.21862 0.92043 0.0
O194 O 0.78783 0.08923 0.92964 0.0
O195 O 0.66596 0.16658 0.90965 0.0
C196 C 0.2441 0.55529 0.20617 0.0
O197 O 0.25142 0.51317 0.17359 0.0
Cd198 Cd 0.15974 0.45484 0.16312 0.0
O199 O 0.19448 0.56012 0.23003 0.0
Cd200 Cd 0.09524 0.53158 0.25967 0.0
C201 C 0.16732 0.4422 0.29934 0.0
O202 O 0.07779 0.51666 0.15615 0.0
O203 O 0.02578 0.465 0.21856 0.0
O204 O -5e-05 0.54756 0.29645 0.0
C205 C 0.03014 0.48748 0.16913 0.0
O206 O 0.13276 0.4291 0.25831 0.0
C207 C 0.01029 0.5994 0.31106 0.0
O208 O 0.15332 0.48148 0.3325 0.0
O209 O 0.06196 0.62194 0.30076 0.0
C210 C 0.71365 0.8115 0.58722 0.0
O211 O 0.76199 0.82847 0.61065 0.0
Cd212 Cd 0.82559 0.88116 0.54847 0.0
O213 O 0.69702 0.83506 0.54124 0.0
Cd214 Cd 0.73864 0.92358 0.48727 0.0
C215 C 0.79168 0.81559 0.4241 0.0
O216 O 0.79069 0.97832 0.56226 0.0
O217 O 0.80527 0.00855 0.47635 0.0
O218 O 0.64396 0.96265 0.49321 0.0
C219 C 0.80566 0.02025 0.52908 0.0
O220 O 0.81021 0.80534 0.47367 0.0
C221 C 0.65145 -0.01117 0.44571 0.0
O222 O 0.77349 0.86451 0.41326 0.0
O223 O 0.69492 0.97797 0.41518 0.0
C224 C 0.95012 0.04018 0.18521 0.0
O225 O 0.94555 -0.00978 0.16351 0.0
Cd226 Cd 0.88737 0.91772 0.21305 0.0
O227 O 0.91524 0.05329 0.22479 0.0
Cd228 Cd 0.83372 0.00153 0.28207 0.0
C229 C 0.95296 0.95692 0.33773 0.0
O230 O 0.78449 0.94056 0.21474 0.0
O231 O 0.76979 0.91732 0.30399 0.0
O232 O 0.77087 0.07191 0.25766 0.0
C233 C 0.7511 0.91697 0.25291 0.0
O234 O 0.95598 0.92738 0.29286 0.0
C235 C 0.75637 0.08419 0.3081 0.0
O236 O 0.90814 -0.01586 0.34807 0.0
O237 O 0.78148 0.0599 0.34912 0.0
C238 C 0.21238 0.51573 0.55676 0.0
O239 O 0.24877 0.52624 0.59712 0.0
Cd240 Cd 0.30724 0.61664 0.59149 0.0
O241 O 0.19923 0.55539 0.52207 0.0
Cd242 Cd 0.22284 0.65391 0.4869 0.0
C243 C 0.32822 0.56637 0.45823 0.0
O244 O 0.25521 0.7004 0.56793 0.0
O245 O 0.30144 0.73069 0.4909 0.0
O246 O 0.14664 0.7222 0.46362 0.0
C247 C 0.28766 0.73934 0.54255 0.0
O248 O 0.35072 0.57926 0.50673 0.0
C249 C 0.15842 0.71713 0.4109 0.0
O250 O 0.28158 0.58698 0.44047 0.0
O251 O 0.19041 0.67721 0.39659 0.0
C252 C 0.44598 0.54621 0.68311 0.0
O253 O 0.44582 0.49603 0.66222 0.0
Cd254 Cd 0.39458 0.41855 0.7102 0.0
O255 O 0.41099 0.55718 0.72326 0.0
Cd256 Cd 0.33608 0.5003 0.78249 0.0
C257 C 0.46224 0.45986 0.83261 0.0
O258 O 0.29175 0.43905 0.71381 0.0
O259 O 0.27801 0.41182 0.80239 0.0
O260 O 0.26651 0.5637 0.75685 0.0
C261 C 0.2593 0.41316 0.75126 0.0
O262 O 0.46432 0.42848 0.7889 0.0
C263 C 0.25264 0.57826 0.80676 0.0
O264 O 0.4175 0.4874 0.84291 0.0
O265 O 0.28076 0.55817 0.84836 0.0
C266 C 0.74531 0.06561 0.69716 0.0
O267 O 0.74799 0.0364 0.65195 0.0
Cd268 Cd 0.66177 0.9745 0.64709 0.0
O269 O 0.69703 0.06575 0.72466 0.0
Cd270 Cd 0.59509 0.03435 0.74729 0.0
C271 C 0.68348 0.94642 0.79405 0.0
O272 O 0.57195 0.0256 0.64685 0.0
O273 O 0.52885 0.96453 0.70709 0.0
O274 O 0.49952 0.05215 0.78597 0.0
C275 C 0.52784 -0.00866 0.65987 0.0
O276 O 0.69022 0.94261 0.74042 0.0
C277 C 0.51281 0.10176 0.80554 0.0
O278 O 0.6418 0.9731 0.8145 0.0
O279 O 0.56547 0.12212 0.79685 0.0
C280 C 0.82488 0.55826 0.08066 0.0
O281 O 0.84903 0.60786 0.09038 0.0
Cd282 Cd 0.8403 0.62575 -0.01121 0.0
O283 O 0.77386 0.55775 0.06013 0.0
Cd284 Cd 0.7476 0.65008 0.01569 0.0
C285 C 0.73202 0.53256 0.941 0.0
O286 O 0.82017 0.72382 0.97645 0.0
O287 O 0.74206 0.69549 0.92731 0.0
O288 O 0.73868 0.7137 0.08998 0.0
C289 C 0.78255 0.73443 0.93863 0.0
O290 O 0.78692 0.54431 0.9339 0.0
C291 C 0.6849 0.72141 0.0808 0.0
O292 O 0.70325 0.56641 0.97076 0.0
O293 O 0.65732 0.68924 0.04434 0.0
C294 C -0.01983 0.47059 0.66084 0.0
O295 O 0.97062 0.42179 0.68448 0.0
Cd296 Cd 0.89189 0.40851 0.74866 0.0
O297 O 0.94036 0.5063 0.65829 0.0
Cd298 Cd 0.84322 0.52224 0.69794 0.0
C299 C 0.94658 0.53982 0.79694 0.0
O300 O 0.79774 0.42907 0.71376 0.0
O301 O 0.78174 0.49344 0.77793 0.0
O302 O 0.75443 0.55591 0.64914 0.0
C303 C 0.76659 0.44537 0.75474 0.0
O304 O 0.94089 0.48552 0.80259 0.0
C305 C 0.76679 0.6059 0.66927 0.0
O306 O 0.9131 0.5661 0.76429 0.0
O307 O 0.81821 0.61694 0.68887 0.0
C308 C 0.77176 0.30921 0.58536 0.0
O309 O 0.81664 0.31545 0.55407 0.0
Cd310 Cd 0.81676 0.38185 0.4777 0.0
O311 O 0.73006 0.34241 0.58028 0.0
Cd312 Cd 0.70558 0.41777 0.51218 0.0
C313 C 0.69802 0.30608 0.42714 0.0
O314 O 0.79717 0.47434 0.51128 0.0
O315 O 0.74296 0.48567 0.43736 0.0
O316 O 0.67056 0.48119 0.57996 0.0
C317 C 0.78421 0.5059 0.46971 0.0
O318 O 0.75148 0.32296 0.41843 0.0
C319 C 0.62799 0.49352 0.5483 0.0
O320 O 0.66674 0.33259 0.4613 0.0
O321 O 0.61494 0.46211 0.50523 0.0
C322 C 0.69976 0.43249 0.18819 0.0
O323 O 0.67454 0.40565 0.22982 0.0
Cd324 Cd 0.6027 0.43339 0.29349 0.0
O325 O 0.68052 0.47869 0.16814 0.0
Cd326 Cd 0.59441 0.53276 0.20193 0.0
C327 C 0.69399 0.5526 0.30825 0.0
O328 O 0.52329 0.45688 0.23141 0.0
O329 O 0.50329 0.54066 0.25669 0.0
O330 O 0.5678 0.5659 0.11193 0.0
C331 C 0.48621 0.48783 0.25408 0.0
O332 O 0.67068 0.50893 0.33484 0.0
C333 C 0.54878 0.61219 0.13144 0.0
O334 O 0.67219 0.56923 0.26177 0.0
O335 O 0.55935 0.62557 0.18302 0.0
O336 O 0.165 0.21416 0.08765 0.0
Mn337 Mn 0.10692 0.14832 0.11935 0.0
O338 O 0.18719 0.25659 0.17133 0.0
Mn339 Mn 0.18287 0.1898 0.21599 0.0
O340 O 0.04278 0.08626 0.15585 0.0
O341 O 0.04999 0.1687 0.05712 0.0
Mn342 Mn 0.00393 0.10408 0.04947 0.0
O343 O 0.13503 0.08668 0.06668 0.0
O344 O 0.95921 0.10688 0.1134 0.0
O345 O 0.07357 0.20504 0.1801 0.0
O346 O 0.11797 0.17924 0.25996 0.0
O347 O 0.00438 0.13537 0.9791 0.0
O348 O 0.04778 0.03929 0.04891 0.0
C349 C 0.22876 0.13061 0.17528 0.0
C350 C 0.18607 0.25748 0.11702 0.0
C351 C -0.01437 0.08544 0.15508 0.0
C352 C 0.04821 0.16645 0.00126 0.0
C353 C 0.10343 0.04097 0.05333 0.0
C354 C 0.07462 0.19932 0.23524 0.0
O355 O 0.17128 0.12702 0.1739 0.0
O356 O 0.25353 0.16096 0.21628 0.0
O357 O 0.04648 0.84883 0.31186 0.0
Mn358 Mn 0.10926 0.89171 0.36527 0.0
O359 O 0.11185 0.83074 0.24683 0.0
Mn360 Mn 0.16664 0.81481 0.30102 0.0
O361 O 0.1752 0.94403 0.41181 0.0
O362 O 0.05799 0.95923 0.35648 0.0
Mn363 Mn 0.0801 0.00329 0.41476 0.0
O364 O 0.06416 0.87142 0.44009 0.0
O365 O 0.14834 0.02671 0.37882 0.0
O366 O 0.16412 0.92208 0.29633 0.0
O367 O 0.23308 0.85982 0.29338 0.0
O368 O 0.00402 0.01723 0.40364 0.0
O369 O 0.08609 0.95763 0.48048 0.0
C370 C 0.14562 0.75921 0.36692 0.0
C371 C 0.05962 0.83774 0.2601 0.0
C372 C 0.18782 -0.00165 0.40022 0.0
C373 C 0.00568 0.97319 0.37042 0.0
C374 C 0.06875 0.90434 0.48417 0.0
C375 C 0.218 0.91053 0.28761 0.0
O376 O 0.1522 0.81553 0.37667 0.0
O377 O 0.15713 0.74096 0.31621 0.0
O378 O 0.42842 0.96432 0.64418 0.0
Mn379 Mn 0.36934 0.9045 0.60926 0.0
O380 O 0.48598 -0.01745 0.56817 0.0
Mn381 Mn 0.42477 0.9757 0.51445 0.0
O382 O 0.31567 0.83631 0.57025 0.0
O383 O 0.38635 0.85529 0.67989 0.0
Mn384 Mn 0.31895 0.81159 0.67945 0.0
O385 O 0.29828 0.9356 0.65193 0.0
O386 O 0.33514 0.76151 0.62495 0.0
O387 O 0.43542 0.86861 0.55727 0.0
O388 O 0.4236 0.91148 0.47252 0.0
O389 O 0.33641 0.81581 0.75355 0.0
O390 O 0.25145 0.84972 0.6652 0.0
C391 C 0.35576 0.01814 0.54202 0.0
C392 C 0.47803 -0.01964 0.62189 0.0
C393 C 0.3205 0.78142 0.57724 0.0
C394 C 0.3754 0.85495 0.73506 0.0
C395 C 0.25098 0.90404 0.66199 0.0
C396 C 0.43807 0.86886 0.50153 0.0
O397 O 0.35487 0.96222 0.54727 0.0
O398 O 0.39138 0.04198 0.50426 0.0
O399 O 0.40168 0.21421 0.92566 0.0
Mn400 Mn 0.35082 0.15811 0.87374 0.0
O401 O 0.42465 0.14882 -0.0119 0.0
Mn402 Mn 0.43701 0.09546 0.93247 0.0
O403 O 0.29006 0.10096 0.82684 0.0
O404 O 0.2863 0.21219 0.89165 0.0
Mn405 Mn 0.24152 0.20282 0.82989 0.0
O406 O 0.37319 0.20628 0.80074 0.0
O407 O 0.20461 0.13481 0.85089 0.0
O408 O 0.32245 0.09933 0.94036 0.0
O409 O 0.38787 0.03215 0.94154 0.0
O410 O 0.23211 0.27563 0.85116 0.0
O411 O 0.28369 0.20168 0.76166 0.0
C412 C 0.48037 0.11888 0.85547 0.0
C413 C 0.41624 0.20021 0.97605 0.0
C414 C 0.23361 0.09318 0.83616 0.0
C415 C 0.27484 0.26621 0.88553 0.0
C416 C 0.33914 0.21063 0.75743 0.0
C417 C 0.3355 0.0461 0.94628 0.0
O418 O 0.42262 0.11032 0.85776 0.0
O419 O 0.5085 0.10888 0.90199 0.0
O420 O 0.5541 0.34802 0.80982 0.0
Mn421 Mn 0.61685 0.3907 0.86331 0.0
O422 O 0.61798 0.32129 0.74649 0.0
Mn423 Mn 0.67392 0.30761 0.80056 0.0
O424 O 0.68253 0.44209 0.91135 0.0
O425 O 0.56727 0.45957 0.85227 0.0
Mn426 Mn 0.58928 0.50404 0.91016 0.0
O427 O 0.56973 0.37221 0.93713 0.0
O428 O 0.65972 0.52571 0.87734 0.0
O429 O 0.67241 0.41807 0.79407 0.0
O430 O 0.73978 0.35359 0.78895 0.0
O431 O 0.51497 0.52186 0.89603 0.0
O432 O 0.59015 0.45909 0.9769 0.0
C433 C 0.6499 0.25801 0.87186 0.0
C434 C 0.56657 0.33267 0.75906 0.0
C435 C 0.6971 0.49625 0.90081 0.0
C436 C 0.51548 0.47638 0.86454 0.0
C437 C 0.57195 0.40599 0.98054 0.0
C438 C 0.7252 0.40459 0.78282 0.0
O439 O 0.6594 0.31474 0.87605 0.0
O440 O 0.66235 0.23511 0.82342 0.0
O441 O 0.93078 0.46391 0.14929 0.0
Mn442 Mn 0.87167 0.40587 0.11182 0.0
O443 O -0.00841 0.48049 0.07574 0.0
Mn444 Mn 0.93131 0.47844 0.02097 0.0
O445 O 0.8183 0.3386 0.07223 0.0
O446 O 0.88593 0.35444 0.18021 0.0
Mn447 Mn 0.81697 0.31378 0.18808 0.0
O448 O 0.79999 0.43764 0.15433 0.0
O449 O 0.83181 0.26472 0.1316 0.0
O450 O 0.93764 0.36998 0.05929 0.0
O451 O 0.92891 0.41641 0.97595 0.0
O452 O 0.84303 0.32788 0.26044 0.0
O453 O 0.75135 0.35323 0.17164 0.0
C454 C 0.8627 0.52158 0.04928 0.0
C455 C -0.01821 0.47778 0.12911 0.0
C456 C 0.822 0.28393 0.08192 0.0
C457 C 0.88394 0.36006 0.23555 0.0
C458 C 0.75209 0.40733 0.16581 0.0
C459 C 0.94121 0.3721 0.00355 0.0
O460 O 0.85977 0.46542 0.05122 0.0
O461 O 0.90085 0.54653 0.01454 0.0
O462 O 0.90002 0.71523 0.42624 0.0
Mn463 Mn 0.84835 0.65957 0.3747 0.0
O464 O 0.91927 0.64928 0.4897 0.0
Mn465 Mn 0.93113 0.59491 0.43514 0.0
O466 O 0.78733 0.60273 0.32849 0.0
O467 O 0.78489 0.71505 0.39071 0.0
Mn468 Mn 0.74022 0.70515 0.3289 0.0
O469 O 0.87209 0.70586 0.30074 0.0
O470 O 0.70245 0.6381 0.35175 0.0
O471 O 0.81759 0.60287 0.44226 0.0
O472 O 0.87987 0.53304 0.44364 0.0
O473 O 0.73317 0.77906 0.34845 0.0
O474 O 0.78275 0.70073 0.26123 0.0
C475 C -0.023 0.61794 0.35957 0.0
C476 C 0.91354 0.70104 0.47688 0.0
C477 C 0.73098 0.59575 0.33809 0.0
C478 C 0.77502 0.76927 0.38366 0.0
C479 C 0.83826 0.70911 0.25704 0.0
C480 C 0.82832 0.54908 0.44867 0.0
O481 O 0.91917 0.61019 0.36026 0.0
O482 O 0.00356 0.60695 0.40672 0.0
O483 O 0.80565 0.83501 0.91813 0.0
Mn484 Mn 0.84707 0.89796 0.86493 0.0
O485 O 0.77367 0.77382 0.85096 0.0
Mn486 Mn 0.75171 0.82948 0.80268 0.0
O487 O 0.89853 0.95418 0.80677 0.0
O488 O 0.91896 0.88956 0.91921 0.0
Mn489 Mn 0.95256 0.95952 0.90386 0.0
O490 O 0.82348 0.96557 0.91503 0.0
O491 O -0.01076 0.94544 0.83908 0.0
O492 O 0.87143 0.83645 0.80476 0.0
O493 O 0.79715 0.82915 0.74042 0.0
O494 O -0.02281 0.94885 0.97418 0.0
O495 O 0.90536 0.02115 0.90149 0.0
C496 C 0.71351 0.90549 0.82767 0.0
C497 C 0.79017 0.78382 0.90113 0.0
C498 C 0.95495 0.95273 0.79807 0.0
C499 C 0.9396 0.90436 0.97046 0.0
C500 C 0.85169 0.01525 0.91491 0.0
C501 C 0.85135 0.82966 0.75292 0.0
O502 O 0.77023 0.9043 0.81872 0.0
O503 O 0.68345 0.85652 0.82461 0.0
O504 O 0.91976 0.22615 0.6923 0.0
Mn505 Mn 0.87579 0.17837 0.62482 0.0
O506 O 0.84997 0.25645 0.75173 0.0
Mn507 Mn 0.78625 0.22941 0.71094 0.0
O508 O 0.83048 0.11799 0.56516 0.0
O509 O 0.95163 0.13511 0.61325 0.0
Mn510 Mn 0.94244 0.12552 0.53758 0.0
O511 O 0.90418 0.23855 0.56227 0.0
O512 O 0.89918 0.0589 0.53874 0.0
O513 O 0.83877 0.11738 0.68336 0.0
O514 O 0.7619 0.15634 0.72589 0.0
O515 O 0.01971 0.13899 0.54416 0.0
O516 O 0.91061 0.17835 0.49082 0.0
C517 C 0.77018 0.26841 0.63222 0.0
C518 C 0.90295 0.2496 0.73931 0.0
C519 C 0.84625 0.06725 0.54912 0.0
C520 C 0.00751 0.14154 0.598 0.0
C521 C 0.90548 0.22835 0.50859 0.0
C522 C 0.78748 0.11375 0.70746 0.0
O523 O 0.80616 0.22788 0.6384 0.0
O524 O 0.73908 0.27912 0.67663 0.0
O525 O 0.6517 0.21191 0.41206 0.0
Mn526 Mn 0.60182 0.14623 0.36941 0.0
O527 O 0.681 0.26777 0.33872 0.0
Mn528 Mn 0.68633 0.20816 0.28871 0.0
O529 O 0.5442 0.08404 0.32351 0.0
O530 O 0.53682 0.15675 0.43074 0.0
Mn531 Mn 0.51036 0.08182 0.4298 0.0
O532 O 0.63773 0.08431 0.41891 0.0
O533 O 0.45964 0.08173 0.37158 0.0
O534 O 0.56765 0.20532 0.31043 0.0
O535 O 0.63052 0.20692 0.23569 0.0
O536 O 0.49952 0.1001 0.50161 0.0
O537 O 0.55995 0.0227 0.42776 0.0
C538 C 0.72784 0.13655 0.31571 0.0
C539 C 0.67204 0.26044 0.39128 0.0
C540 C 0.48691 0.07656 0.32535 0.0
C541 C 0.52473 0.1491 0.48563 0.0
C542 C 0.61464 0.03376 0.42886 0.0
C543 C 0.58017 0.21265 0.25645 0.0
O544 O 0.67045 0.13641 0.3144 0.0
O545 O 0.75688 0.1803 0.2922 0.0
O546 O 0.58066 0.85325 0.05046 0.0
Mn547 Mn 0.61298 0.87464 0.13329 0.0
O548 O 0.60768 0.93956 0.0138 0.0
Mn549 Mn 0.57913 -0.01844 0.0736 0.0
O550 O 0.65731 0.90036 0.20961 0.0
O551 O 0.66117 0.80194 0.13661 0.0
Mn552 Mn 0.65057 0.77577 0.21046 0.0
O553 O 0.54847 0.82694 0.17703 0.0
O554 O 0.70735 0.82539 0.24055 0.0
O555 O 0.68008 0.93534 0.09937 0.0
O556 O 0.63564 0.01555 0.11773 0.0
O557 O 0.65235 0.71227 0.16993 0.0
O558 O 0.57853 0.77619 0.24599 0.0
C559 C 0.50288 0.94222 0.11014 0.0
C560 C 0.59078 0.88705 0.00686 0.0
C561 C 0.70118 0.87907 0.23581 0.0
C562 C 0.65404 0.74641 0.12627 0.0
C563 C 0.55133 0.81835 0.23104 0.0
C564 C 0.68215 -0.00934 0.10988 0.0
O565 O 0.55496 0.93698 0.13172 0.0
O566 O 0.50008 -0.01876 0.07107 0.0
O567 O 0.41576 0.71973 0.1951 0.0
Mn568 Mn 0.37455 0.6747 0.1251 0.0
O569 O 0.34325 0.74798 0.25237 0.0
Mn570 Mn 0.28095 0.72469 0.20718 0.0
O571 O 0.3305 0.61634 0.06302 0.0
O572 O 0.45052 0.63203 0.11383 0.0
Mn573 Mn 0.44105 0.62544 0.03771 0.0
O574 O 0.40689 0.73764 0.06678 0.0
O575 O 0.39949 0.55805 0.03623 0.0
O576 O 0.33412 0.61101 0.18032 0.0
O577 O 0.25452 0.65119 0.21654 0.0
O578 O 0.51813 0.64028 0.04416 0.0
O579 O 0.40688 0.67935 -0.00617 0.0
C580 C 0.27168 0.76666 0.12844 0.0
C581 C 0.39685 0.74142 0.24202 0.0
C582 C 0.34652 0.56575 0.04697 0.0
C583 C 0.50614 0.64075 0.09815 0.0
C584 C 0.40575 0.72936 0.01292 0.0
C585 C 0.28238 0.60793 0.20374 0.0
O586 O 0.30538 0.72464 0.13637 0.0
O587 O 0.23844 0.77768 0.17119 0.0
O588 O 0.15437 0.70771 0.91029 0.0
Mn589 Mn 0.10059 0.64228 0.87213 0.0
O590 O 0.17951 0.76148 0.83414 0.0
Mn591 Mn 0.17948 0.70049 0.78486 0.0
O592 O 0.03939 0.58039 0.83164 0.0
O593 O 0.03916 0.65469 0.93603 0.0
Mn594 Mn 0.0129 0.57966 0.94064 0.0
O595 O 0.13861 0.58041 0.92034 0.0
O596 O 0.95824 0.57704 0.88583 0.0
O597 O 0.06353 0.70136 0.81447 0.0
O598 O 0.11997 0.69861 0.73556 0.0
O599 O 0.01022 0.60221 0.0124 0.0
O600 O 0.06114 0.51996 0.93591 0.0
C601 C 0.22306 0.63047 0.81148 0.0
C602 C 0.17468 0.75519 0.88734 0.0
C603 C -0.01744 0.57213 0.83793 0.0
C604 C 0.03179 0.65084 -0.00815 0.0
C605 C 0.11573 0.53019 0.93238 0.0
C606 C 0.07182 0.70705 0.75959 0.0
O607 O 0.16559 0.6297 0.81367 0.0
O608 O 0.24998 0.67279 0.78365 0.0
O609 O 0.08042 0.34272 0.55197 0.0
Mn610 Mn 0.11767 0.37318 0.63175 0.0
O611 O 0.01238 0.40272 0.53232 0.0
Mn612 Mn 0.06289 0.46349 0.55192 0.0
O613 O 0.16809 0.4019 0.70318 0.0
O614 O 0.15791 0.29671 0.64202 0.0
Mn615 Mn 0.14948 0.27373 0.71612 0.0
O616 O 0.05061 0.33901 0.68315 0.0
O617 O 0.20849 0.32405 0.74258 0.0
O618 O 0.18579 0.41858 0.58709 0.0
O619 O 0.13545 0.46097 0.51881 0.0
O620 O 0.15029 0.20859 0.67584 0.0
O621 O 0.07702 0.28102 0.7483 0.0
C622 C 0.03455 0.48441 0.62978 0.0
C623 C 0.0403 0.36044 0.51847 0.0
C624 C 0.20789 0.37802 0.73315 0.0
C625 C 0.15093 0.24171 0.63144 0.0
C626 C 0.05704 0.32826 0.73647 0.0
C627 C 0.18035 0.45926 0.55025 0.0
O628 O 0.07387 0.44697 0.62394 0.0
O629 O 0.03124 0.52201 0.58894 0.0
O630 O 0.66017 0.71934 0.58728 0.0
Mn631 Mn 0.60144 0.65544 0.62048 0.0
O632 O 0.6735 0.76736 0.66866 0.0
Mn633 Mn 0.66774 0.70197 0.7151 0.0
O634 O 0.53717 0.59447 0.65653 0.0
O635 O 0.54658 0.67314 0.5556 0.0
Mn636 Mn 0.49989 0.60907 0.54796 0.0
O637 O 0.63101 0.59154 0.57133 0.0
O638 O 0.45438 0.61326 0.61143 0.0
O639 O 0.56309 0.71435 0.67739 0.0
O640 O 0.60375 0.69288 0.75991 0.0
O641 O 0.5033 0.63955 0.47685 0.0
O642 O 0.54398 0.54456 0.55054 0.0
C643 C 0.7225 0.64484 0.6862 0.0
C644 C 0.67773 0.76487 0.61477 0.0
C645 C 0.48017 0.59274 0.65409 0.0
C646 C 0.54682 0.67037 0.4998 0.0
C647 C 0.59935 0.54581 0.55774 0.0
C648 C 0.56086 0.71049 0.73275 0.0
O649 O 0.66536 0.63527 0.67826 0.0
O650 O 0.73988 0.68126 0.72579 0.0
O651 O 0.30709 0.3417 0.42028 0.0
Mn652 Mn 0.34843 0.40633 0.36883 0.0
O653 O 0.28066 0.28419 0.34908 0.0
Mn654 Mn 0.26985 0.34554 0.30231 0.0
O655 O 0.39913 0.46496 0.31266 0.0
O656 O 0.42087 0.39589 0.4221 0.0
Mn657 Mn 0.45409 0.46691 0.41099 0.0
O658 O 0.32445 0.47161 0.42178 0.0
O659 O 0.49039 0.45822 0.34494 0.0
O660 O 0.37893 0.34717 0.30814 0.0
O661 O 0.31248 0.34694 0.23913 0.0
O662 O 0.48005 0.45153 0.4797 0.0
O663 O 0.40693 0.52814 0.41448 0.0
C664 C 0.21097 0.40174 0.31355 0.0
C665 C 0.29116 0.29156 0.40108 0.0
C666 C 0.45563 0.46454 0.30406 0.0
C667 C 0.44225 0.40747 0.47383 0.0
C668 C 0.35298 0.52093 0.42638 0.0
C669 C 0.36448 0.34338 0.25471 0.0
O670 O 0.26722 0.41892 0.32511 0.0
O671 O 0.19542 0.35015 0.29574 0.0
loop_
_geom_bond_atom_site_label_1
_geom_bond_atom_site_label_2
_geom_bond_distance
_geom_bond_site_symmetry_2
_ccdc_geom_bond_type
C0 O1 1.306 . S
C0 O3 1.160 1_655 S
O1 C0 1.306 . S
O1 Cd2 2.228 . S
Cd2 O1 2.228 . S
Cd2 O6 2.273 . S
Cd2 O10 2.277 1_655 S
O3 C0 1.160 1_455 S
O3 Cd4 2.203 . S
Cd4 O3 2.203 . S
Cd4 O6 2.411 1_455 S
Cd4 O7 2.333 . S
Cd4 O8 2.352 . S
Cd4 O12 2.277 . S
Cd4 O13 2.356 . S
C5 O10 1.209 . S
C5 O12 1.226 . S
O6 Cd2 2.273 . S
O6 Cd4 2.411 1_655 S
O6 C9 1.320 . S
O7 Cd4 2.333 . S
O7 C9 1.214 1_455 S
O8 Cd4 2.352 . S
O8 C11 1.258 . S
C9 O6 1.320 . S
C9 O7 1.214 1_655 S
O10 Cd2 2.277 1_455 S
O10 C5 1.209 . S
C11 O8 1.258 . S
C11 O13 1.282 . S
O12 Cd4 2.277 . S
O12 C5 1.226 . S
O13 Cd4 2.356 . S
O13 C11 1.282 . S
C14 O15 1.306 . S
C14 O17 1.160 . S
O15 C14 1.306 . S
O15 Cd16 2.228 1_455 S
Cd16 O15 2.228 1_655 S
Cd16 O20 2.273 . S
Cd16 O24 2.277 . S
O17 C14 1.160 . S
O17 Cd18 2.203 . S
Cd18 O17 2.203 . S
Cd18 O20 2.411 1_455 S
Cd18 O21 2.333 1_455 S
Cd18 O22 2.352 . S
Cd18 O26 2.277 1_455 S
Cd18 O27 2.356 . S
C19 O24 1.209 . S
C19 O26 1.226 . S
O20 Cd16 2.273 . S
O20 Cd18 2.411 1_655 S
O20 C23 1.320 . S
O21 Cd18 2.333 1_655 S
O21 C23 1.214 . S
O22 Cd18 2.352 . S
O22 C25 1.258 . S
C23 O20 1.320 . S
C23 O21 1.214 . S
O24 Cd16 2.277 . S
O24 C19 1.209 . S
C25 O22 1.258 . S
C25 O27 1.282 . S
O26 Cd18 2.277 1_655 S
O26 C19 1.226 . S
O27 Cd18 2.356 . S
O27 C25 1.282 . S
C28 O29 1.306 . S
C28 O31 1.160 . S
O29 C28 1.306 . S
O29 Cd30 2.228 . S
Cd30 O29 2.228 . S
Cd30 O34 2.273 . S
Cd30 O38 2.277 . S
O31 C28 1.160 . S
O31 Cd32 2.203 . S
Cd32 O31 2.203 . S
Cd32 O34 2.411 . S
Cd32 O35 2.333 . S
Cd32 O36 2.352 . S
Cd32 O40 2.277 . S
Cd32 O41 2.356 . S
C33 O38 1.209 . S
C33 O40 1.226 . S
O34 Cd30 2.273 . S
O34 Cd32 2.411 . S
O34 C37 1.320 . S
O35 Cd32 2.333 . S
O35 C37 1.214 . S
O36 Cd32 2.352 . S
O36 C39 1.258 . S
C37 O34 1.320 . S
C37 O35 1.214 . S
O38 Cd30 2.277 . S
O38 C33 1.209 . S
C39 O36 1.258 . S
C39 O41 1.282 . S
O40 Cd32 2.277 . S
O40 C33 1.226 . S
O41 Cd32 2.356 . S
O41 C39 1.282 . S
C42 O43 1.306 . S
C42 O45 1.160 . S
O43 C42 1.306 . S
O43 Cd44 2.228 . S
Cd44 O43 2.228 . S
Cd44 O48 2.273 . S
Cd44 O52 2.277 . S
O45 C42 1.160 . S
O45 Cd46 2.203 . S
Cd46 O45 2.203 . S
Cd46 O48 2.411 . S
Cd46 O49 2.333 . S
Cd46 O50 2.352 . S
Cd46 O54 2.277 . S
Cd46 O55 2.356 . S
C47 O52 1.209 . S
C47 O54 1.226 . S
O48 Cd44 2.273 . S
O48 Cd46 2.411 . S
O48 C51 1.320 . S
O49 Cd46 2.333 . S
O49 C51 1.214 . S
O50 Cd46 2.352 . S
O50 C53 1.258 . S
C51 O48 1.320 . S
C51 O49 1.214 . S
O52 Cd44 2.277 . S
O52 C47 1.209 . S
C53 O50 1.258 . S
C53 O55 1.282 . S
O54 Cd46 2.277 . S
O54 C47 1.226 . S
O55 Cd46 2.356 . S
O55 C53 1.282 . S
C56 O57 1.306 . S
C56 O59 1.160 . S
O57 C56 1.306 . S
O57 Cd58 2.228 . S
Cd58 O57 2.228 . S
Cd58 O62 2.273 . S
Cd58 O66 2.277 . S
O59 C56 1.160 . S
O59 Cd60 2.203 1_655 S
Cd60 O59 2.203 1_455 S
Cd60 O62 2.411 1_455 S
Cd60 O63 2.333 . S
Cd60 O64 2.349 1_455 S
Cd60 O68 2.277 . S
Cd60 O69 2.356 . S
C61 O66 1.209 1_455 S
C61 O68 1.226 . S
O62 Cd58 2.273 . S
O62 Cd60 2.411 1_655 S
O62 C65 1.320 . S
O63 Cd60 2.333 . S
O63 C65 1.214 1_455 S
O64 Cd60 2.349 1_655 S
O64 C67 1.240 1_655 S
C65 O62 1.320 . S
C65 O63 1.214 1_655 S
O66 Cd58 2.277 . S
O66 C61 1.209 1_655 S
C67 O64 1.240 1_455 S
C67 O69 1.282 . S
O68 Cd60 2.277 . S
O68 C61 1.226 . S
O69 Cd60 2.356 . S
O69 C67 1.282 . S
C70 O71 1.306 . S
C70 O73 1.160 . S
O71 C70 1.306 . S
O71 Cd72 2.228 . S
Cd72 O71 2.228 . S
Cd72 O76 2.273 . S
Cd72 O80 2.277 . S
O73 C70 1.160 . S
O73 Cd74 2.203 . S
Cd74 O73 2.203 . S
Cd74 O76 2.411 . S
Cd74 O77 2.333 . S
Cd74 O78 2.352 . S
Cd74 O82 2.277 . S
Cd74 O83 2.356 . S
C75 O80 1.209 . S
C75 O82 1.226 . S
O76 Cd72 2.273 . S
O76 Cd74 2.411 . S
O76 C79 1.320 . S
O77 Cd74 2.333 . S
O77 C79 1.214 . S
O78 Cd74 2.352 . S
O78 C81 1.258 . S
C79 O76 1.320 . S
C79 O77 1.214 . S
O80 Cd72 2.277 . S
O80 C75 1.209 . S
C81 O78 1.258 . S
C81 O83 1.282 . S
O82 Cd74 2.277 . S
O82 C75 1.226 . S
O83 Cd74 2.356 . S
O83 C81 1.282 . S
C84 O85 1.306 . S
C84 O87 1.160 . S
O85 C84 1.306 . S
O85 Cd86 2.228 . S
Cd86 O85 2.228 . S
Cd86 O90 2.273 . S
Cd86 O94 2.277 . S
O87 C84 1.160 . S
O87 Cd88 2.203 . S
Cd88 O87 2.203 . S
Cd88 O90 2.411 . S
Cd88 O91 2.333 . S
Cd88 O92 2.352 . S
Cd88 O96 2.277 . S
Cd88 O97 2.356 . S
C89 O94 1.209 . S
C89 O96 1.226 . S
O90 Cd86 2.273 . S
O90 Cd88 2.411 . S
O90 C93 1.320 . S
O91 Cd88 2.333 . S
O91 C93 1.214 . S
O92 Cd88 2.352 . S
O92 C95 1.258 . S
C93 O90 1.320 . S
C93 O91 1.214 . S
O94 Cd86 2.277 . S
O94 C89 1.209 . S
C95 O92 1.258 . S
C95 O97 1.282 . S
O96 Cd88 2.277 . S
O96 C89 1.226 . S
O97 Cd88 2.356 . S
O97 C95 1.282 . S
C98 O99 1.306 . S
C98 O101 1.160 . S
O99 C98 1.306 . S
O99 Cd100 2.228 1_455 S
Cd100 O99 2.228 1_655 S
Cd100 O104 2.273 . S
Cd100 O108 2.277 . S
O101 C98 1.160 . S
O101 Cd102 2.203 . S
Cd102 O101 2.203 . S
Cd102 O104 2.411 1_455 S
Cd102 O105 2.333 1_455 S
Cd102 O106 2.352 . S
Cd102 O110 2.277 1_455 S
Cd102 O111 2.356 . S
C103 O108 1.209 . S
C103 O110 1.226 . S
O104 Cd100 2.273 . S
O104 Cd102 2.411 1_655 S
O104 C107 1.320 . S
O105 Cd102 2.333 1_655 S
O105 C107 1.214 . S
O106 Cd102 2.352 . S
O106 C109 1.258 . S
C107 O104 1.320 . S
C107 O105 1.214 . S
O108 Cd100 2.277 . S
O108 C103 1.209 . S
C109 O106 1.258 . S
C109 O111 1.282 . S
O110 Cd102 2.277 1_655 S
O110 C103 1.226 . S
O111 Cd102 2.356 . S
O111 C109 1.282 . S
C112 O113 1.306 . S
C112 O115 1.160 . S
O113 C112 1.306 . S
O113 Cd114 2.228 . S
Cd114 O113 2.228 . S
Cd114 O118 2.273 . S
Cd114 O122 2.277 . S
O115 C112 1.160 . S
O115 Cd116 2.203 1_565 S
Cd116 O115 2.203 1_545 S
Cd116 O118 2.411 1_545 S
Cd116 O119 2.333 . S
Cd116 O120 2.352 . S
Cd116 O124 2.277 . S
Cd116 O125 2.356 . S
C117 O122 1.209 1_545 S
C117 O124 1.226 . S
O118 Cd114 2.273 . S
O118 Cd116 2.411 1_565 S
O118 C121 1.320 . S
O119 Cd116 2.333 . S
O119 C121 1.214 1_545 S
O120 Cd116 2.352 . S
O120 C123 1.258 . S
C121 O118 1.320 . S
C121 O119 1.214 1_565 S
O122 Cd114 2.277 . S
O122 C117 1.209 1_565 S
C123 O120 1.258 . S
C123 O125 1.282 . S
O124 Cd116 2.277 . S
O124 C117 1.226 . S
O125 Cd116 2.356 . S
O125 C123 1.282 . S
C126 O127 1.306 . S
C126 O129 1.160 . S
O127 C126 1.306 . S
O127 Cd128 2.228 . S
Cd128 O127 2.228 . S
Cd128 O132 2.273 . S
Cd128 O136 2.277 . S
O129 C126 1.160 . S
O129 Cd130 2.203 . S
Cd130 O129 2.203 . S
Cd130 O132 2.411 . S
Cd130 O133 2.333 . S
Cd130 O134 2.352 . S
Cd130 O138 2.277 . S
Cd130 O139 2.356 . S
C131 O136 1.209 . S
C131 O138 1.226 . S
O132 Cd128 2.273 . S
O132 Cd130 2.411 . S
O132 C135 1.320 . S
O133 Cd130 2.333 . S
O133 C135 1.214 . S
O134 Cd130 2.352 . S
O134 C137 1.258 . S
C135 O132 1.320 . S
C135 O133 1.214 . S
O136 Cd128 2.277 . S
O136 C131 1.209 . S
C137 O134 1.258 . S
C137 O139 1.282 . S
O138 Cd130 2.277 . S
O138 C131 1.226 . S
O139 Cd130 2.356 . S
O139 C137 1.282 . S
C140 O141 1.306 1_545 S
C140 O143 1.160 . S
O141 C140 1.306 1_565 S
O141 Cd142 2.228 . S
Cd142 O141 2.228 . S
Cd142 O146 2.273 . S
Cd142 O150 2.277 1_565 S
O143 C140 1.160 . S
O143 Cd144 2.203 . S
Cd144 O143 2.203 . S
Cd144 O146 2.411 1_545 S
Cd144 O147 2.333 . S
Cd144 O148 2.352 . S
Cd144 O152 2.277 . S
Cd144 O153 2.356 . S
C145 O150 1.209 . S
C145 O152 1.226 . S
O146 Cd142 2.273 . S
O146 Cd144 2.411 1_565 S
O146 C149 1.320 1_565 S
O147 Cd144 2.333 . S
O147 C149 1.214 . S
O148 Cd144 2.352 . S
O148 C151 1.258 . S
C149 O146 1.320 1_545 S
C149 O147 1.214 . S
O150 Cd142 2.277 1_545 S
O150 C145 1.209 . S
C151 O148 1.258 . S
C151 O153 1.282 . S
O152 Cd144 2.277 . S
O152 C145 1.226 . S
O153 Cd144 2.356 . S
O153 C151 1.282 . S
C154 O155 1.306 . S
C154 O157 1.160 . S
O155 C154 1.306 . S
O155 Cd156 2.228 1_554 S
Cd156 O155 2.228 1_556 S
Cd156 O160 2.273 . S
Cd156 O164 2.277 . S
O157 C154 1.160 . S
O157 Cd158 2.203 . S
Cd158 O157 2.203 . S
Cd158 O160 2.411 1_554 S
Cd158 O161 2.327 1_564 S
Cd158 O162 2.354 . S
Cd158 O166 2.277 1_554 S
Cd158 O167 2.356 . S
C159 O164 1.209 . S
C159 O166 1.226 . S
O160 Cd156 2.273 . S
O160 Cd158 2.411 1_556 S
O160 C163 1.320 . S
O161 Cd158 2.327 1_546 S
O161 C163 1.213 1_545 S
O162 Cd158 2.354 . S
O162 C165 1.258 1_565 S
C163 O160 1.320 . S
C163 O161 1.213 1_565 S
O164 Cd156 2.277 . S
O164 C159 1.209 . S
C165 O162 1.258 1_545 S
C165 O167 1.282 1_545 S
O166 Cd158 2.277 1_556 S
O166 C159 1.226 . S
O167 Cd158 2.356 . S
O167 C165 1.282 1_565 S
C168 O169 1.306 . S
C168 O171 1.160 . S
O169 C168 1.306 . S
O169 Cd170 2.228 . S
Cd170 O169 2.228 . S
Cd170 O174 2.273 . S
Cd170 O178 2.277 . S
O171 C168 1.160 . S
O171 Cd172 2.203 1_554 S
Cd172 O171 2.203 1_556 S
Cd172 O174 2.411 1_556 S
Cd172 O175 2.333 . S
Cd172 O176 2.352 1_556 S
Cd172 O180 2.277 . S
Cd172 O181 2.356 . S
C173 O178 1.209 1_556 S
C173 O180 1.226 . S
O174 Cd170 2.273 . S
O174 Cd172 2.411 1_554 S
O174 C177 1.320 . S
O175 Cd172 2.333 . S
O175 C177 1.214 1_556 S
O176 Cd172 2.352 1_554 S
O176 C179 1.258 1_554 S
C177 O174 1.320 . S
C177 O175 1.214 1_554 S
O178 Cd170 2.277 . S
O178 C173 1.209 1_554 S
C179 O176 1.258 1_556 S
C179 O181 1.282 . S
O180 Cd172 2.277 . S
O180 C173 1.226 . S
O181 Cd172 2.356 . S
O181 C179 1.282 . S
C182 O183 1.306 . S
C182 O185 1.160 . S
O183 C182 1.306 . S
O183 Cd184 2.228 . S
Cd184 O183 2.228 . S
Cd184 O188 2.273 . S
Cd184 O192 2.277 . S
O185 C182 1.160 . S
O185 Cd186 2.203 1_554 S
Cd186 O185 2.203 1_556 S
Cd186 O188 2.411 1_556 S
Cd186 O189 2.333 . S
Cd186 O190 2.351 1_556 S
Cd186 O194 2.277 . S
Cd186 O195 2.356 . S
C187 O192 1.209 1_556 S
C187 O194 1.226 . S
O188 Cd184 2.273 . S
O188 Cd186 2.411 1_554 S
O188 C191 1.320 . S
O189 Cd186 2.333 . S
O189 C191 1.214 1_556 S
O190 Cd186 2.351 1_554 S
O190 C193 1.257 1_554 S
C191 O188 1.320 . S
C191 O189 1.214 1_554 S
O192 Cd184 2.277 . S
O192 C187 1.209 1_554 S
C193 O190 1.257 1_556 S
C193 O195 1.282 . S
O194 Cd186 2.277 . S
O194 C187 1.226 . S
O195 Cd186 2.356 . S
O195 C193 1.282 . S
C196 O197 1.306 . S
C196 O199 1.160 . S
O197 C196 1.306 . S
O197 Cd198 2.228 . S
Cd198 O197 2.228 . S
Cd198 O202 2.273 . S
Cd198 O206 2.277 . S
O199 C196 1.160 . S
O199 Cd200 2.203 . S
Cd200 O199 2.203 . S
Cd200 O202 2.411 . S
Cd200 O203 2.333 . S
Cd200 O204 2.352 . S
Cd200 O208 2.277 . S
Cd200 O209 2.356 . S
C201 O206 1.209 . S
C201 O208 1.226 . S
O202 Cd198 2.273 . S
O202 Cd200 2.411 . S
O202 C205 1.320 . S
O203 Cd200 2.333 . S
O203 C205 1.214 . S
O204 Cd200 2.352 . S
O204 C207 1.258 . S
C205 O202 1.320 . S
C205 O203 1.214 . S
O206 Cd198 2.277 . S
O206 C201 1.209 . S
C207 O204 1.258 . S
C207 O209 1.282 . S
O208 Cd200 2.277 . S
O208 C201 1.226 . S
O209 Cd200 2.356 . S
O209 C207 1.282 . S
C210 O211 1.306 . S
C210 O213 1.160 . S
O211 C210 1.306 . S
O211 Cd212 2.228 . S
Cd212 O211 2.228 . S
Cd212 O216 2.273 . S
Cd212 O220 2.277 . S
O213 C210 1.160 . S
O213 Cd214 2.203 . S
Cd214 O213 2.203 . S
Cd214 O216 2.411 . S
Cd214 O217 2.333 1_565 S
Cd214 O218 2.352 . S
Cd214 O222 2.277 . S
Cd214 O223 2.356 . S
C215 O220 1.209 . S
C215 O222 1.226 . S
O216 Cd212 2.273 . S
O216 Cd214 2.411 . S
O216 C219 1.320 1_565 S
O217 Cd214 2.333 1_545 S
O217 C219 1.214 . S
O218 Cd214 2.352 . S
O218 C221 1.258 1_565 S
C219 O216 1.320 1_545 S
C219 O217 1.214 . S
O220 Cd212 2.277 . S
O220 C215 1.209 . S
C221 O218 1.258 1_545 S
C221 O223 1.282 1_545 S
O222 Cd214 2.277 . S
O222 C215 1.226 . S
O223 Cd214 2.356 . S
O223 C221 1.282 1_565 S
C224 O225 1.306 . S
C224 O227 1.160 . S
O225 C224 1.306 . S
O225 Cd226 2.228 1_545 S
Cd226 O225 2.228 1_565 S
Cd226 O230 2.273 . S
Cd226 O234 2.277 . S
O227 C224 1.160 . S
O227 Cd228 2.203 . S
Cd228 O227 2.203 . S
Cd228 O230 2.411 1_545 S
Cd228 O231 2.333 1_545 S
Cd228 O232 2.352 . S
Cd228 O236 2.277 1_545 S
Cd228 O237 2.356 . S
C229 O234 1.209 . S
C229 O236 1.226 . S
O230 Cd226 2.273 . S
O230 Cd228 2.411 1_565 S
O230 C233 1.320 . S
O231 Cd228 2.333 1_565 S
O231 C233 1.214 . S
O232 Cd228 2.352 . S
O232 C235 1.258 . S
C233 O230 1.320 . S
C233 O231 1.214 . S
O234 Cd226 2.277 . S
O234 C229 1.209 . S
C235 O232 1.258 . S
C235 O237 1.282 . S
O236 Cd228 2.277 1_565 S
O236 C229 1.226 . S
O237 Cd228 2.356 . S
O237 C235 1.282 . S
C238 O239 1.306 . S
C238 O241 1.160 . S
O239 C238 1.306 . S
O239 Cd240 2.228 . S
Cd240 O239 2.228 . S
Cd240 O244 2.273 . S
Cd240 O248 2.277 . S
O241 C238 1.160 . S
O241 Cd242 2.203 . S
Cd242 O241 2.203 . S
Cd242 O244 2.411 . S
Cd242 O245 2.333 . S
Cd242 O246 2.352 . S
Cd242 O250 2.277 . S
Cd242 O251 2.356 . S
C243 O248 1.209 . S
C243 O250 1.226 . S
O244 Cd240 2.273 . S
O244 Cd242 2.411 . S
O244 C247 1.320 . S
O245 Cd242 2.333 . S
O245 C247 1.214 . S
O246 Cd242 2.352 . S
O246 C249 1.258 . S
C247 O244 1.320 . S
C247 O245 1.214 . S
O248 Cd240 2.277 . S
O248 C243 1.209 . S
C249 O246 1.258 . S
C249 O251 1.282 . S
O250 Cd242 2.277 . S
O250 C243 1.226 . S
O251 Cd242 2.356 . S
O251 C249 1.282 . S
C252 O253 1.306 . S
C252 O255 1.160 . S
O253 C252 1.306 . S
O253 Cd254 2.228 . S
Cd254 O253 2.228 . S
Cd254 O258 2.273 . S
Cd254 O262 2.277 . S
O255 C252 1.160 . S
O255 Cd256 2.203 . S
Cd256 O255 2.203 . S
Cd256 O258 2.411 . S
Cd256 O259 2.333 . S
Cd256 O260 2.352 . S
Cd256 O264 2.277 . S
Cd256 O265 2.356 . S
C257 O262 1.209 . S
C257 O264 1.226 . S
O258 Cd254 2.273 . S
O258 Cd256 2.411 . S
O258 C261 1.320 . S
O259 Cd256 2.333 . S
O259 C261 1.214 . S
O260 Cd256 2.352 . S
O260 C263 1.258 . S
C261 O258 1.320 . S
C261 O259 1.214 . S
O262 Cd254 2.277 . S
O262 C257 1.209 . S
C263 O260 1.258 . S
C263 O265 1.282 . S
O264 Cd256 2.277 . S
O264 C257 1.226 . S
O265 Cd256 2.356 . S
O265 C263 1.282 . S
C266 O267 1.306 . S
C266 O269 1.160 . S
O267 C266 1.306 . S
O267 Cd268 2.228 1_545 S
Cd268 O267 2.228 1_565 S
Cd268 O272 2.273 1_565 S
Cd268 O276 2.277 . S
O269 C266 1.160 . S
O269 Cd270 2.203 . S
Cd270 O269 2.203 . S
Cd270 O272 2.411 . S
Cd270 O273 2.333 1_545 S
Cd270 O274 2.352 . S
Cd270 O278 2.277 . S
Cd270 O279 2.356 . S
C271 O276 1.209 . S
C271 O278 1.226 1_565 S
O272 Cd268 2.273 1_545 S
O272 Cd270 2.411 . S
O272 C275 1.320 1_545 S
O273 Cd270 2.333 1_565 S
O273 C275 1.214 . S
O274 Cd270 2.352 . S
O274 C277 1.258 . S
C275 O272 1.320 1_565 S
C275 O273 1.214 . S
O276 Cd268 2.277 . S
O276 C271 1.209 . S
C277 O274 1.258 . S
C277 O279 1.282 . S
O278 Cd270 2.277 . S
O278 C271 1.226 1_545 S
O279 Cd270 2.356 . S
O279 C277 1.282 . S
C280 O281 1.306 . S
C280 O283 1.160 . S
O281 C280 1.306 . S
O281 Cd282 2.228 1_554 S
Cd282 O281 2.228 1_556 S
Cd282 O286 2.273 . S
Cd282 O290 2.277 . S
O283 C280 1.160 . S
O283 Cd284 2.203 . S
Cd284 O283 2.203 . S
Cd284 O286 2.411 1_554 S
Cd284 O287 2.333 1_554 S
Cd284 O288 2.352 . S
Cd284 O292 2.277 1_554 S
Cd284 O293 2.356 . S
C285 O290 1.209 . S
C285 O292 1.226 . S
O286 Cd282 2.273 . S
O286 Cd284 2.411 1_556 S
O286 C289 1.320 . S
O287 Cd284 2.333 1_556 S
O287 C289 1.214 . S
O288 Cd284 2.352 . S
O288 C291 1.258 . S
C289 O286 1.320 . S
C289 O287 1.214 . S
O290 Cd282 2.277 . S
O290 C285 1.209 . S
C291 O288 1.258 . S
C291 O293 1.282 . S
O292 Cd284 2.277 1_556 S
O292 C285 1.226 . S
O293 Cd284 2.356 . S
O293 C291 1.282 . S
C294 O295 1.306 . S
C294 O297 1.160 . S
O295 C294 1.306 . S
O295 Cd296 2.228 . S
Cd296 O295 2.228 . S
Cd296 O300 2.273 . S
Cd296 O304 2.277 . S
O297 C294 1.160 . S
O297 Cd298 2.203 . S
Cd298 O297 2.203 . S
Cd298 O300 2.411 . S
Cd298 O301 2.333 . S
Cd298 O302 2.352 . S
Cd298 O306 2.277 . S
Cd298 O307 2.356 . S
C299 O304 1.209 . S
C299 O306 1.226 . S
O300 Cd296 2.273 . S
O300 Cd298 2.411 . S
O300 C303 1.320 . S
O301 Cd298 2.333 . S
O301 C303 1.214 . S
O302 Cd298 2.352 . S
O302 C305 1.258 . S
C303 O300 1.320 . S
C303 O301 1.214 . S
O304 Cd296 2.277 . S
O304 C299 1.209 . S
C305 O302 1.258 . S
C305 O307 1.282 . S
O306 Cd298 2.277 . S
O306 C299 1.226 . S
O307 Cd298 2.356 . S
O307 C305 1.282 . S
C308 O309 1.306 . S
C308 O311 1.160 . S
O309 C308 1.306 . S
O309 Cd310 2.228 . S
Cd310 O309 2.228 . S
Cd310 O314 2.273 . S
Cd310 O318 2.277 . S
O311 C308 1.160 . S
O311 Cd312 2.203 . S
Cd312 O311 2.203 . S
Cd312 O314 2.411 . S
Cd312 O315 2.333 . S
Cd312 O316 2.352 . S
Cd312 O320 2.277 . S
Cd312 O321 2.356 . S
C313 O318 1.209 . S
C313 O320 1.226 . S
O314 Cd310 2.273 . S
O314 Cd312 2.411 . S
O314 C317 1.320 . S
O315 Cd312 2.333 . S
O315 C317 1.214 . S
O316 Cd312 2.352 . S
O316 C319 1.258 . S
C317 O314 1.320 . S
C317 O315 1.214 . S
O318 Cd310 2.277 . S
O318 C313 1.209 . S
C319 O316 1.258 . S
C319 O321 1.282 . S
O320 Cd312 2.277 . S
O320 C313 1.226 . S
O321 Cd312 2.356 . S
O321 C319 1.282 . S
C322 O323 1.306 . S
C322 O325 1.160 . S
O323 C322 1.306 . S
O323 Cd324 2.228 . S
Cd324 O323 2.228 . S
Cd324 O328 2.273 . S
Cd324 O332 2.277 . S
O325 C322 1.160 . S
O325 Cd326 2.203 . S
Cd326 O325 2.203 . S
Cd326 O328 2.411 . S
Cd326 O329 2.333 . S
Cd326 O330 2.352 . S
Cd326 O334 2.277 . S
Cd326 O335 2.356 . S
C327 O332 1.209 . S
C327 O334 1.226 . S
O328 Cd324 2.273 . S
O328 Cd326 2.411 . S
O328 C331 1.320 . S
O329 Cd326 2.333 . S
O329 C331 1.214 . S
O330 Cd326 2.352 . S
O330 C333 1.258 . S
C331 O328 1.320 . S
C331 O329 1.214 . S
O332 Cd324 2.277 . S
O332 C327 1.209 . S
C333 O330 1.258 . S
C333 O335 1.282 . S
O334 Cd326 2.277 . S
O334 C327 1.226 . S
O335 Cd326 2.356 . S
O335 C333 1.282 . S
O336 Mn337 2.163 . S
O336 C350 1.244 . S
Mn337 O336 2.163 . S
Mn337 O340 2.160 . S
Mn337 O341 2.221 . S
Mn337 O343 2.163 . S
Mn337 O345 2.160 . S
Mn337 O355 2.221 . S
O338 Mn339 2.087 . S
O338 C350 1.256 . S
Mn339 O338 2.087 . S
Mn339 O346 2.089 . S
Mn339 O355 2.290 . S
Mn339 O356 2.251 . S
O340 Mn337 2.160 . S
O340 C351 1.239 . S
O341 Mn337 2.221 . S
O341 Mn342 2.290 . S
O341 C352 1.278 . S
Mn342 O341 2.290 . S
Mn342 O344 2.089 . S
Mn342 O347 2.251 1_554 S
Mn342 O348 2.087 . S
O343 Mn337 2.163 . S
O343 C353 1.244 . S
O344 Mn342 2.089 . S
O344 C351 1.256 . S
O345 Mn337 2.160 . S
O345 C354 1.239 . S
O346 Mn339 2.089 . S
O346 C354 1.256 . S
O347 Mn342 2.251 1_556 S
O347 C352 1.241 1_556 S
O348 Mn342 2.087 . S
O348 C353 1.256 . S
C349 O355 1.278 . S
C349 O356 1.241 . S
C350 O336 1.244 . S
C350 O338 1.256 . S
C351 O340 1.239 . S
C351 O344 1.256 . S
C352 O341 1.278 . S
C352 O347 1.241 1_554 S
C353 O343 1.244 . S
C353 O348 1.256 . S
C354 O345 1.239 . S
C354 O346 1.256 . S
O355 Mn337 2.221 . S
O355 Mn339 2.290 . S
O355 C349 1.278 . S
O356 Mn339 2.251 . S
O356 C349 1.241 . S
O357 Mn358 2.163 . S
O357 C371 1.244 . S
Mn358 O357 2.163 . S
Mn358 O361 2.160 . S
Mn358 O362 2.221 . S
Mn358 O364 2.163 . S
Mn358 O366 2.160 . S
Mn358 O376 2.221 . S
O359 Mn360 2.087 . S
O359 C371 1.256 . S
Mn360 O359 2.087 . S
Mn360 O367 2.089 . S
Mn360 O376 2.290 . S
Mn360 O377 2.251 . S
O361 Mn358 2.160 . S
O361 C372 1.239 1_565 S
O362 Mn358 2.221 . S
O362 Mn363 2.290 1_565 S
O362 C373 1.278 . S
Mn363 O362 2.290 1_545 S
Mn363 O365 2.089 . S
Mn363 O368 2.251 1_455 S
Mn363 O369 2.087 1_545 S
O364 Mn358 2.163 . S
O364 C374 1.244 . S
O365 Mn363 2.089 . S
O365 C372 1.256 . S
O366 Mn358 2.160 . S
O366 C375 1.239 . S
O367 Mn360 2.089 . S
O367 C375 1.256 . S
O368 Mn363 2.251 1_655 S
O368 C373 1.241 1_645 S
O369 Mn363 2.087 1_565 S
O369 C374 1.256 . S
C370 O376 1.278 . S
C370 O377 1.241 . S
C371 O357 1.244 . S
C371 O359 1.256 . S
C372 O361 1.239 1_545 S
C372 O365 1.256 . S
C373 O362 1.278 . S
C373 O368 1.241 1_465 S
C374 O364 1.244 . S
C374 O369 1.256 . S
C375 O366 1.239 . S
C375 O367 1.256 . S
O376 Mn358 2.221 . S
O376 Mn360 2.290 . S
O376 C370 1.278 . S
O377 Mn360 2.251 . S
O377 C370 1.241 . S
O378 Mn379 2.163 . S
O378 C392 1.244 1_565 S
Mn379 O378 2.163 . S
Mn379 O382 2.160 . S
Mn379 O383 2.221 . S
Mn379 O385 2.163 . S
Mn379 O387 2.160 . S
Mn379 O397 2.221 . S
O380 Mn381 2.087 . S
O380 C392 1.256 . S
Mn381 O380 2.087 . S
Mn381 O388 2.089 1_545 S
Mn381 O397 2.290 1_545 S
Mn381 O398 2.251 . S
O382 Mn379 2.160 . S
O382 C393 1.239 . S
O383 Mn379 2.221 . S
O383 Mn384 2.290 . S
O383 C394 1.278 . S
Mn384 O383 2.290 . S
Mn384 O386 2.089 . S
Mn384 O389 2.251 . S
Mn384 O390 2.087 . S
O385 Mn379 2.163 . S
O385 C395 1.244 . S
O386 Mn384 2.089 . S
O386 C393 1.256 . S
O387 Mn379 2.160 . S
O387 C396 1.239 . S
O388 Mn381 2.089 1_565 S
O388 C396 1.256 . S
O389 Mn384 2.251 . S
O389 C394 1.241 . S
O390 Mn384 2.087 . S
O390 C395 1.256 . S
C391 O397 1.278 1_545 S
C391 O398 1.241 . S
C392 O378 1.244 1_545 S
C392 O380 1.256 . S
C393 O382 1.239 . S
C393 O386 1.256 . S
C394 O383 1.278 . S
C394 O389 1.241 . S
C395 O385 1.244 . S
C395 O390 1.256 . S
C396 O387 1.239 . S
C396 O388 1.256 . S
O397 Mn379 2.221 . S
O397 Mn381 2.290 1_565 S
O397 C391 1.278 1_565 S
O398 Mn381 2.251 . S
O398 C391 1.241 . S
O399 Mn400 2.163 . S
O399 C413 1.244 . S
Mn400 O399 2.163 . S
Mn400 O403 2.160 . S
Mn400 O404 2.221 . S
Mn400 O406 2.163 . S
Mn400 O408 2.160 . S
Mn400 O418 2.221 . S
O401 Mn402 2.087 . S
O401 C413 1.256 . S
Mn402 O401 2.087 . S
Mn402 O409 2.089 1_556 S
Mn402 O418 2.290 . S
Mn402 O419 2.251 . S
O403 Mn400 2.160 . S
O403 C414 1.239 . S
O404 Mn400 2.221 . S
O404 Mn405 2.290 . S
O404 C415 1.278 . S
Mn405 O404 2.290 . S
Mn405 O407 2.089 . S
Mn405 O410 2.251 . S
Mn405 O411 2.087 . S
O406 Mn400 2.163 . S
O406 C416 1.244 . S
O407 Mn405 2.089 . S
O407 C414 1.256 . S
O408 Mn400 2.160 . S
O408 C417 1.239 . S
O409 Mn402 2.089 1_554 S
O409 C417 1.256 1_554 S
O410 Mn405 2.251 . S
O410 C415 1.241 . S
O411 Mn405 2.087 . S
O411 C416 1.256 . S
C412 O418 1.278 . S
C412 O419 1.241 . S
C413 O399 1.244 . S
C413 O401 1.256 . S
C414 O403 1.239 . S
C414 O407 1.256 . S
C415 O404 1.278 . S
C415 O410 1.241 . S
C416 O406 1.244 . S
C416 O411 1.256 . S
C417 O408 1.239 . S
C417 O409 1.256 1_556 S
O418 Mn400 2.221 . S
O418 Mn402 2.290 . S
O418 C412 1.278 . S
O419 Mn402 2.251 . S
O419 C412 1.241 . S
O420 Mn421 2.163 . S
O420 C434 1.244 . S
Mn421 O420 2.163 . S
Mn421 O424 2.160 . S
Mn421 O425 2.221 . S
Mn421 O427 2.163 . S
Mn421 O429 2.160 . S
Mn421 O439 2.221 . S
O422 Mn423 2.087 . S
O422 C434 1.256 . S
Mn423 O422 2.087 . S
Mn423 O430 2.089 . S
Mn423 O439 2.290 . S
Mn423 O440 2.251 . S
O424 Mn421 2.160 . S
O424 C435 1.239 . S
O425 Mn421 2.221 . S
O425 Mn426 2.290 . S
O425 C436 1.278 . S
Mn426 O425 2.290 . S
Mn426 O428 2.089 1_556 S
Mn426 O431 2.251 . S
Mn426 O432 2.087 . S
O427 Mn421 2.163 . S
O427 C437 1.244 . S
O428 Mn426 2.089 1_554 S
O428 C435 1.256 1_554 S
O429 Mn421 2.160 . S
O429 C438 1.239 . S
O430 Mn423 2.089 . S
O430 C438 1.256 . S
O431 Mn426 2.251 . S
O431 C436 1.241 . S
O432 Mn426 2.087 . S
O432 C437 1.256 . S
C433 O439 1.278 . S
C433 O440 1.241 . S
C434 O420 1.244 . S
C434 O422 1.256 . S
C435 O424 1.239 . S
C435 O428 1.256 1_556 S
C436 O425 1.278 . S
C436 O431 1.241 . S
C437 O427 1.244 . S
C437 O432 1.256 . S
C438 O429 1.239 . S
C438 O430 1.256 . S
O439 Mn421 2.221 . S
O439 Mn423 2.290 . S
O439 C433 1.278 . S
O440 Mn423 2.251 . S
O440 C433 1.241 . S
O441 Mn442 2.163 . S
O441 C455 1.241 1_655 S
Mn442 O441 2.163 . S
Mn442 O445 2.160 . S
Mn442 O446 2.221 . S
Mn442 O448 2.163 . S
Mn442 O450 2.160 . S
Mn442 O460 2.221 . S
O443 Mn444 2.087 1_455 S
O443 C455 1.256 . S
Mn444 O443 2.087 1_655 S
Mn444 O451 2.089 1_655 S
Mn444 O460 2.290 . S
Mn444 O461 2.251 . S
O445 Mn442 2.160 . S
O445 C456 1.239 . S
O446 Mn442 2.221 . S
O446 Mn447 2.290 . S
O446 C457 1.278 . S
Mn447 O446 2.290 . S
Mn447 O449 2.089 . S
Mn447 O452 2.251 . S
Mn447 O453 2.087 . S
O448 Mn442 2.163 . S
O448 C458 1.244 . S
O449 Mn447 2.089 . S
O449 C456 1.256 . S
O450 Mn442 2.160 . S
O450 C459 1.239 1_655 S
O451 Mn444 2.089 1_455 S
O451 C459 1.256 . S
O452 Mn447 2.251 . S
O452 C457 1.241 . S
O453 Mn447 2.087 . S
O453 C458 1.256 . S
C454 O460 1.278 . S
C454 O461 1.241 . S
C455 O441 1.241 1_455 S
C455 O443 1.256 . S
C456 O445 1.239 . S
C456 O449 1.256 . S
C457 O446 1.278 . S
C457 O452 1.241 . S
C458 O448 1.244 . S
C458 O453 1.256 . S
C459 O450 1.239 1_455 S
C459 O451 1.256 . S
O460 Mn442 2.221 . S
O460 Mn444 2.290 . S
O460 C454 1.278 . S
O461 Mn444 2.251 . S
O461 C454 1.241 . S
O462 Mn463 2.163 . S
O462 C476 1.244 . S
Mn463 O462 2.163 . S
Mn463 O466 2.160 . S
Mn463 O467 2.221 . S
Mn463 O469 2.163 . S
Mn463 O471 2.160 . S
Mn463 O481 2.221 . S
O464 Mn465 2.087 1_455 S
O464 C476 1.256 1_455 S
Mn465 O464 2.087 1_655 S
Mn465 O472 2.089 . S
Mn465 O481 2.290 . S
Mn465 O482 2.251 1_655 S
O466 Mn463 2.160 . S
O466 C477 1.239 . S
O467 Mn463 2.221 . S
O467 Mn468 2.290 . S
O467 C478 1.278 . S
Mn468 O467 2.290 . S
Mn468 O470 2.089 . S
Mn468 O473 2.251 . S
Mn468 O474 2.087 . S
O469 Mn463 2.163 . S
O469 C479 1.244 . S
O470 Mn468 2.089 . S
O470 C477 1.256 . S
O471 Mn463 2.160 . S
O471 C480 1.239 . S
O472 Mn465 2.089 . S
O472 C480 1.256 . S
O473 Mn468 2.251 . S
O473 C478 1.241 . S
O474 Mn468 2.087 . S
O474 C479 1.256 . S
C475 O481 1.278 . S
C475 O482 1.241 1_655 S
C476 O462 1.244 . S
C476 O464 1.256 1_655 S
C477 O466 1.239 . S
C477 O470 1.256 . S
C478 O467 1.278 . S
C478 O473 1.241 . S
C479 O469 1.244 . S
C479 O474 1.256 . S
C480 O471 1.239 . S
C480 O472 1.256 . S
O481 Mn463 2.221 . S
O481 Mn465 2.290 . S
O481 C475 1.278 . S
O482 Mn465 2.251 1_455 S
O482 C475 1.241 1_455 S
O483 Mn484 2.163 . S
O483 C497 1.244 . S
Mn484 O483 2.163 . S
Mn484 O487 2.160 . S
Mn484 O488 2.221 . S
Mn484 O490 2.163 . S
Mn484 O492 2.160 . S
Mn484 O502 2.221 . S
O485 Mn486 2.087 . S
O485 C497 1.256 . S
Mn486 O485 2.087 . S
Mn486 O493 2.089 . S
Mn486 O502 2.290 . S
Mn486 O503 2.251 . S
O487 Mn484 2.160 . S
O487 C498 1.239 1_565 S
O488 Mn484 2.221 . S
O488 Mn489 2.290 1_565 S
O488 C499 1.278 . S
Mn489 O488 2.290 1_545 S
Mn489 O491 2.089 . S
Mn489 O494 2.251 1_546 S
Mn489 O495 2.087 1_556 S
O490 Mn484 2.163 . S
O490 C500 1.244 1_565 S
O491 Mn489 2.089 . S
O491 C498 1.256 . S
O492 Mn484 2.160 . S
O492 C501 1.239 . S
O493 Mn486 2.089 . S
O493 C501 1.256 . S
O494 Mn489 2.251 1_564 S
O494 C499 1.241 1_554 S
O495 Mn489 2.087 1_554 S
O495 C500 1.256 1_554 S
C496 O502 1.278 . S
C496 O503 1.241 . S
C497 O483 1.244 . S
C497 O485 1.256 . S
C498 O487 1.239 1_545 S
C498 O491 1.256 . S
C499 O488 1.278 . S
C499 O494 1.241 1_556 S
C500 O490 1.244 1_545 S
C500 O495 1.256 1_556 S
C501 O492 1.239 . S
C501 O493 1.256 . S
O502 Mn484 2.221 . S
O502 Mn486 2.290 . S
O502 C496 1.278 . S
O503 Mn486 2.251 . S
O503 C496 1.241 . S
O504 Mn505 2.163 . S
O504 C518 1.244 . S
Mn505 O504 2.163 . S
Mn505 O508 2.160 . S
Mn505 O509 2.221 . S
Mn505 O511 2.163 . S
Mn505 O513 2.160 . S
Mn505 O523 2.221 . S
O506 Mn507 2.087 . S
O506 C518 1.256 . S
Mn507 O506 2.087 . S
Mn507 O514 2.089 . S
Mn507 O523 2.290 . S
Mn507 O524 2.251 . S
O508 Mn505 2.160 . S
O508 C519 1.239 . S
O509 Mn505 2.221 . S
O509 Mn510 2.290 . S
O509 C520 1.278 1_655 S
Mn510 O509 2.290 . S
Mn510 O512 2.089 . S
Mn510 O515 2.251 1_655 S
Mn510 O516 2.087 1_655 S
O511 Mn505 2.163 . S
O511 C521 1.244 . S
O512 Mn510 2.089 . S
O512 C519 1.256 . S
O513 Mn505 2.160 . S
O513 C522 1.239 . S
O514 Mn507 2.089 . S
O514 C522 1.256 . S
O515 Mn510 2.251 1_455 S
O515 C520 1.241 . S
O516 Mn510 2.087 1_455 S
O516 C521 1.256 1_455 S
C517 O523 1.278 . S
C517 O524 1.241 . S
C518 O504 1.244 . S
C518 O506 1.256 . S
C519 O508 1.239 . S
C519 O512 1.256 . S
C520 O509 1.278 1_455 S
C520 O515 1.241 . S
C521 O511 1.244 . S
C521 O516 1.256 1_655 S
C522 O513 1.239 . S
C522 O514 1.256 . S
O523 Mn505 2.221 . S
O523 Mn507 2.290 . S
O523 C517 1.278 . S
O524 Mn507 2.251 . S
O524 C517 1.241 . S
O525 Mn526 2.163 . S
O525 C539 1.244 . S
Mn526 O525 2.163 . S
Mn526 O529 2.160 . S
Mn526 O530 2.221 . S
Mn526 O532 2.163 . S
Mn526 O534 2.160 . S
Mn526 O544 2.221 . S
O527 Mn528 2.087 . S
O527 C539 1.256 . S
Mn528 O527 2.087 . S
Mn528 O535 2.089 . S
Mn528 O544 2.290 . S
Mn528 O545 2.251 . S
O529 Mn526 2.160 . S
O529 C540 1.239 . S
O530 Mn526 2.221 . S
O530 Mn531 2.290 . S
O530 C541 1.278 . S
Mn531 O530 2.290 . S
Mn531 O533 2.089 . S
Mn531 O536 2.251 . S
Mn531 O537 2.087 . S
O532 Mn526 2.163 . S
O532 C542 1.244 . S
O533 Mn531 2.089 . S
O533 C540 1.256 . S
O534 Mn526 2.160 . S
O534 C543 1.239 . S
O535 Mn528 2.089 . S
O535 C543 1.256 . S
O536 Mn531 2.251 . S
O536 C541 1.241 . S
O537 Mn531 2.087 . S
O537 C542 1.256 . S
C538 O544 1.278 . S
C538 O545 1.241 . S
C539 O525 1.244 . S
C539 O527 1.256 . S
C540 O529 1.239 . S
C540 O533 1.256 . S
C541 O530 1.278 . S
C541 O536 1.241 . S
C542 O532 1.244 . S
C542 O537 1.256 . S
C543 O534 1.239 . S
C543 O535 1.256 . S
O544 Mn526 2.221 . S
O544 Mn528 2.290 . S
O544 C538 1.278 . S
O545 Mn528 2.251 . S
O545 C538 1.241 . S
O546 Mn547 2.163 . S
O546 C560 1.244 . S
Mn547 O546 2.163 . S
Mn547 O550 2.160 . S
Mn547 O551 2.221 . S
Mn547 O553 2.163 . S
Mn547 O555 2.160 . S
Mn547 O565 2.221 . S
O548 Mn549 2.087 1_565 S
O548 C560 1.256 . S
Mn549 O548 2.087 1_545 S
Mn549 O556 2.089 . S
Mn549 O565 2.290 1_545 S
Mn549 O566 2.251 . S
O550 Mn547 2.160 . S
O550 C561 1.239 . S
O551 Mn547 2.221 . S
O551 Mn552 2.290 . S
O551 C562 1.278 . S
Mn552 O551 2.290 . S
Mn552 O554 2.089 . S
Mn552 O557 2.251 . S
Mn552 O558 2.087 . S
O553 Mn547 2.163 . S
O553 C563 1.244 . S
O554 Mn552 2.089 . S
O554 C561 1.256 . S
O555 Mn547 2.160 . S
O555 C564 1.239 1_565 S
O556 Mn549 2.089 . S
O556 C564 1.256 . S
O557 Mn552 2.251 . S
O557 C562 1.241 . S
O558 Mn552 2.087 . S
O558 C563 1.256 . S
C559 O565 1.278 . S
C559 O566 1.241 1_565 S
C560 O546 1.244 . S
C560 O548 1.256 . S
C561 O550 1.239 . S
C561 O554 1.256 . S
C562 O551 1.278 . S
C562 O557 1.241 . S
C563 O553 1.244 . S
C563 O558 1.256 . S
C564 O555 1.239 1_545 S
C564 O556 1.256 . S
O565 Mn547 2.221 . S
O565 Mn549 2.290 1_565 S
O565 C559 1.278 . S
O566 Mn549 2.251 . S
O566 C559 1.241 1_545 S
O567 Mn568 2.163 . S
O567 C581 1.244 . S
Mn568 O567 2.163 . S
Mn568 O571 2.160 . S
Mn568 O572 2.221 . S
Mn568 O574 2.163 . S
Mn568 O576 2.160 . S
Mn568 O586 2.221 . S
O569 Mn570 2.087 . S
O569 C581 1.256 . S
Mn570 O569 2.087 . S
Mn570 O577 2.089 . S
Mn570 O586 2.290 . S
Mn570 O587 2.251 . S
O571 Mn568 2.160 . S
O571 C582 1.239 . S
O572 Mn568 2.221 . S
O572 Mn573 2.290 . S
O572 C583 1.278 . S
Mn573 O572 2.290 . S
Mn573 O575 2.089 . S
Mn573 O578 2.251 . S
Mn573 O579 2.087 . S
O574 Mn568 2.163 . S
O574 C584 1.244 . S
O575 Mn573 2.089 . S
O575 C582 1.256 . S
O576 Mn568 2.160 . S
O576 C585 1.239 . S
O577 Mn570 2.089 . S
O577 C585 1.256 . S
O578 Mn573 2.251 . S
O578 C583 1.241 . S
O579 Mn573 2.087 . S
O579 C584 1.256 . S
C580 O586 1.278 . S
C580 O587 1.241 . S
C581 O567 1.244 . S
C581 O569 1.256 . S
C582 O571 1.239 . S
C582 O575 1.256 . S
C583 O572 1.278 . S
C583 O578 1.241 . S
C584 O574 1.244 . S
C584 O579 1.256 . S
C585 O576 1.239 . S
C585 O577 1.256 . S
O586 Mn568 2.221 . S
O586 Mn570 2.290 . S
O586 C580 1.278 . S
O587 Mn570 2.251 . S
O587 C580 1.241 . S
O588 Mn589 2.163 . S
O588 C602 1.244 . S
Mn589 O588 2.163 . S
Mn589 O592 2.160 . S
Mn589 O593 2.221 . S
Mn589 O595 2.163 . S
Mn589 O597 2.160 . S
Mn589 O607 2.221 . S
O590 Mn591 2.087 . S
O590 C602 1.256 . S
Mn591 O590 2.087 . S
Mn591 O598 2.089 . S
Mn591 O607 2.290 . S
Mn591 O608 2.251 . S
O592 Mn589 2.160 . S
O592 C603 1.239 . S
O593 Mn589 2.221 . S
O593 Mn594 2.290 . S
O593 C604 1.278 . S
Mn594 O593 2.290 . S
Mn594 O596 2.089 . S
Mn594 O599 2.251 1_556 S
Mn594 O600 2.087 1_556 S
O595 Mn589 2.163 . S
O595 C605 1.244 . S
O596 Mn594 2.089 . S
O596 C603 1.256 . S
O597 Mn589 2.160 . S
O597 C606 1.239 . S
O598 Mn591 2.089 . S
O598 C606 1.256 . S
O599 Mn594 2.251 1_554 S
O599 C604 1.241 1_554 S
O600 Mn594 2.087 1_554 S
O600 C605 1.256 1_554 S
C601 O607 1.278 . S
C601 O608 1.241 . S
C602 O588 1.244 . S
C602 O590 1.256 . S
C603 O592 1.239 . S
C603 O596 1.256 . S
C604 O593 1.278 . S
C604 O599 1.241 1_556 S
C605 O595 1.244 . S
C605 O600 1.256 1_556 S
C606 O597 1.239 . S
C606 O598 1.256 . S
O607 Mn589 2.221 . S
O607 Mn591 2.290 . S
O607 C601 1.278 . S
O608 Mn591 2.251 . S
O608 C601 1.241 . S
O609 Mn610 2.163 . S
O609 C623 1.244 . S
Mn610 O609 2.163 . S
Mn610 O613 2.160 . S
Mn610 O614 2.221 . S
Mn610 O616 2.163 . S
Mn610 O618 2.160 . S
Mn610 O628 2.221 . S
O611 Mn612 2.087 . S
O611 C623 1.256 . S
Mn612 O611 2.087 . S
Mn612 O619 2.089 . S
Mn612 O628 2.290 . S
Mn612 O629 2.251 1_455 S
O613 Mn610 2.160 . S
O613 C624 1.239 . S
O614 Mn610 2.221 . S
O614 Mn615 2.290 . S
O614 C625 1.278 . S
Mn615 O614 2.290 . S
Mn615 O617 2.089 . S
Mn615 O620 2.251 . S
Mn615 O621 2.087 . S
O616 Mn610 2.163 . S
O616 C626 1.244 . S
O617 Mn615 2.089 . S
O617 C624 1.256 . S
O618 Mn610 2.160 . S
O618 C627 1.239 . S
O619 Mn612 2.089 . S
O619 C627 1.256 . S
O620 Mn615 2.251 . S
O620 C625 1.241 . S
O621 Mn615 2.087 . S
O621 C626 1.256 . S
C622 O628 1.278 . S
C622 O629 1.241 1_455 S
C623 O609 1.244 . S
C623 O611 1.256 . S
C624 O613 1.239 . S
C624 O617 1.256 . S
C625 O614 1.278 . S
C625 O620 1.241 . S
C626 O616 1.244 . S
C626 O621 1.256 . S
C627 O618 1.239 . S
C627 O619 1.256 . S
O628 Mn610 2.221 . S
O628 Mn612 2.290 . S
O628 C622 1.278 . S
O629 Mn612 2.251 1_655 S
O629 C622 1.241 1_655 S
O630 Mn631 2.163 . S
O630 C644 1.244 . S
Mn631 O630 2.163 . S
Mn631 O634 2.160 . S
Mn631 O635 2.221 . S
Mn631 O637 2.163 . S
Mn631 O639 2.160 . S
Mn631 O649 2.221 . S
O632 Mn633 2.087 . S
O632 C644 1.256 . S
Mn633 O632 2.087 . S
Mn633 O640 2.089 . S
Mn633 O649 2.290 . S
Mn633 O650 2.251 . S
O634 Mn631 2.160 . S
O634 C645 1.239 . S
O635 Mn631 2.221 . S
O635 Mn636 2.290 . S
O635 C646 1.278 . S
Mn636 O635 2.290 . S
Mn636 O638 2.089 . S
Mn636 O641 2.251 . S
Mn636 O642 2.087 . S
O637 Mn631 2.163 . S
O637 C647 1.244 . S
O638 Mn636 2.089 . S
O638 C645 1.256 . S
O639 Mn631 2.160 . S
O639 C648 1.239 . S
O640 Mn633 2.089 . S
O640 C648 1.256 . S
O641 Mn636 2.251 . S
O641 C646 1.241 . S
O642 Mn636 2.087 . S
O642 C647 1.256 . S
C643 O649 1.278 . S
C643 O650 1.241 . S
C644 O630 1.244 . S
C644 O632 1.256 . S
C645 O634 1.239 . S
C645 O638 1.256 . S
C646 O635 1.278 . S
C646 O641 1.241 . S
C647 O637 1.244 . S
C647 O642 1.256 . S
C648 O639 1.239 . S
C648 O640 1.256 . S
O649 Mn631 2.221 . S
O649 Mn633 2.290 . S
O649 C643 1.278 . S
O650 Mn633 2.251 . S
O650 C643 1.241 . S
O651 Mn652 2.163 . S
O651 C665 1.244 . S
Mn652 O651 2.163 . S
Mn652 O655 2.160 . S
Mn652 O656 2.221 . S
Mn652 O658 2.163 . S
Mn652 O660 2.160 . S
Mn652 O670 2.221 . S
O653 Mn654 2.087 . S
O653 C665 1.256 . S
Mn654 O653 2.087 . S
Mn654 O661 2.089 . S
Mn654 O670 2.290 . S
Mn654 O671 2.251 . S
O655 Mn652 2.160 . S
O655 C666 1.239 . S
O656 Mn652 2.221 . S
O656 Mn657 2.290 . S
O656 C667 1.278 . S
Mn657 O656 2.290 . S
Mn657 O659 2.089 . S
Mn657 O662 2.251 . S
Mn657 O663 2.087 . S
O658 Mn652 2.163 . S
O658 C668 1.244 . S
O659 Mn657 2.089 . S
O659 C666 1.256 . S
O660 Mn652 2.160 . S
O660 C669 1.239 . S
O661 Mn654 2.089 . S
O661 C669 1.256 . S
O662 Mn657 2.251 . S
O662 C667 1.241 . S
O663 Mn657 2.087 . S
O663 C668 1.256 . S
C664 O670 1.278 . S
C664 O671 1.241 . S
C665 O651 1.244 . S
C665 O653 1.256 . S
C666 O655 1.239 . S
C666 O659 1.256 . S
C667 O656 1.278 . S
C667 O662 1.241 . S
C668 O658 1.244 . S
C668 O663 1.256 . S
C669 O660 1.239 . S
C669 O661 1.256 . S
O670 Mn652 2.221 . S
O670 Mn654 2.290 . S
O670 C664 1.278 . S
O671 Mn654 2.251 . S
O671 C664 1.241 . S
C354 C11 1.602 . S
C14 C374 2.135 . S
C394 C37 2.055 . S
C413 C47 2.326 1_556 S
C371 C61 2.403 . S
C79 C396 2.138 . S
C416 C84 2.064 . S
C109 C352 2.024 1_556 S
C123 C349 2.237 . S
C372 C131 2.263 . S
C395 C140 2.192 1_565 S
C417 C163 2.413 1_545 S
C375 C121 1.980 . S
C391 C126 1.667 . S
C145 C414 1.858 . S
C353 C165 1.897 . S
C168 C350 2.095 . S
C193 C433 1.408 . S
C455 C205 2.232 . S
C478 C215 1.749 . S
C224 C351 1.903 1_655 S
C247 C393 2.402 . S
C475 C207 1.695 1_655 S
C436 C257 1.968 . S
C501 C23 1.739 . S
C521 C0 1.850 . S
C53 C543 1.490 . S
C33 C560 2.028 1_556 S
C103 C518 2.004 . S
C95 C541 1.174 . S
C563 C70 2.039 . S
C65 C499 1.421 1_554 S
C271 C496 1.220 . S
C519 C219 2.156 . S
C538 C235 1.527 . S
C564 C182 1.788 . S
C522 C266 1.516 . S
C542 C221 1.377 . S
C561 C233 1.649 . S
C187 C500 1.800 . S
C497 C289 1.764 . S
C154 C580 1.074 . S
C603 C299 1.662 1_455 S
C137 C625 1.352 . S
C498 C149 1.885 1_655 S
C539 C313 1.735 . S
C622 C294 1.647 1_455 S
C333 C583 0.991 . S
C39 C648 1.602 . S
C42 C437 2.135 1_554 S
C457 C9 2.055 . S
C19 C476 2.326 . S
C89 C434 2.404 . S
C107 C459 2.138 1_656 S
C479 C56 2.064 . S
C646 C81 2.024 . S
C643 C305 2.237 . S
C435 C285 2.263 . S
C458 C322 2.192 . S
C317 C480 2.413 . S
C438 C303 1.980 . S
C280 C454 1.667 . S
C477 C327 1.858 . S
C319 C647 1.897 . S
C644 C210 2.095 . S
C249 C370 1.409 . S
C392 C275 2.228 1_545 S
C173 C415 1.749 . S
C645 C252 1.903 . S
C456 C191 2.402 . S
C412 C277 1.695 . S
C373 C229 1.968 1_455 S
C51 C669 1.739 . S
C28 C584 1.850 1_556 S
C25 C606 1.490 . S
C623 C5 2.028 . S
C581 C75 2.004 . S
C67 C604 1.175 1_554 S
C626 C98 2.039 . S
C93 C667 1.422 . S
C664 C201 1.220 . S
C177 C582 2.156 . S
C263 C601 1.527 . S
C627 C238 1.788 . S
C585 C196 1.516 . S
C179 C605 1.377 . S
C624 C261 1.649 . S
C668 C243 1.800 . S
C665 C135 1.764 . S
C517 C308 1.074 . S
C117 C540 1.662 . S
C291 C562 1.352 . S
C666 C331 1.885 . S
C602 C159 1.736 . S
C559 C112 1.647 . S
C520 C151 0.991 . S
