# Generated by pormake.
# Topology pts, (4,4)-cn, num edge types: 1
# Building blocks:
#     Node 0, Type 0, BuildingBlock: KOZSID_clean_sbu_0, # of connection points: 4
#     Node 1, Type 0, BuildingBlock: KOZSID_clean_sbu_0, # of connection points: 4
#     Node 2, Type 1, BuildingBlock: UXUYUI_clean_sbu_0, # of connection points: 4
#     Node 3, Type 1, BuildingBlock: UXUYUI_clean_sbu_0, # of connection points: 4
#     Edge 4, Type (0, 1), BuildingBlock: TEMPAE_clean_linker_10, # of connection points: 2
#     Edge 5, Type (0, 1), BuildingBlock: TEMPAE_clean_linker_10, # of connection points: 2
#     Edge 6, Type (0, 1), BuildingBlock: TEMPAE_clean_linker_10, # of connection points: 2
#     Edge 7, Type (0, 1), BuildingBlock: TEMPAE_clean_linker_10, # of connection points: 2
#     Edge 8, Type (0, 1), BuildingBlock: TEMPAE_clean_linker_10, # of connection points: 2
#     Edge 9, Type (0, 1), BuildingBlock: TEMPAE_clean_linker_10, # of connection points: 2
#     Edge 10, Type (0, 1), BuildingBlock: TEMPAE_clean_linker_10, # of connection points: 2
#     Edge 11, Type (0, 1), BuildingBlock: TEMPAE_clean_linker_10, # of connection points: 2
# Relax obj value: 0.000
# Max RMSD: 0.022
# Mean RMSD: 0.015
data_MOF--net-pts--node1-KOZSID_clean_sbu_0--node2-UXUYUI_clean_sbu_0--edge1-TEMPAE_clean_linker_10
_symmetry_space_group_name_H-M    P1
_symmetry_Int_Tables_number       1
_symmetry_cell_setting            triclinic
loop_
_symmetry_equiv_pos_as_xyz
'x, y, z'
_cell_length_a     33.273532
_cell_length_b     33.25372
_cell_length_c     48.307521
_cell_angle_alpha  86.838273
_cell_angle_beta   93.182559
_cell_angle_gamma 90.077637
loop_
_atom_site_label
_atom_site_type_symbol
_atom_site_fract_x
_atom_site_fract_y
_atom_site_fract_z
_atom_type_partial_charge
C0 C 0.60808 0.08428 0.04655 0.0
C1 C 0.62294 0.12132 0.05427 0.0
C2 C 0.6005 0.15007 0.03933 0.0
C3 C 0.57352 0.12913 0.02324 0.0
N4 N 0.57681 0.08866 0.0273 0.0
Co5 Co 0.54602 0.04708 0.00614 0.0
N6 N 0.51514 0.08951 0.98267 0.0
C7 C 0.51825 0.12986 0.98444 0.0
C8 C 0.49201 0.15144 0.9665 0.0
C9 C 0.47028 0.12322 0.95273 0.0
C10 C 0.48453 0.08588 0.96319 0.0
N11 N 0.51621 0.00548 0.98439 0.0
C12 C 0.48624 0.00979 0.9642 0.0
C13 C 0.47331 0.97277 0.95515 0.0
C14 C 0.49567 0.94409 0.97025 0.0
C15 C 0.52084 0.96504 0.98763 0.0
N16 N 0.57604 0.00464 0.03013 0.0
C17 C 0.57091 0.96433 0.02967 0.0
C18 C 0.59596 0.94273 0.04844 0.0
C19 C 0.61885 0.97088 0.06146 0.0
C20 C 0.60656 0.00817 0.04969 0.0
N21 N 0.5025 0.04653 0.03302 0.0
C22 C 0.43618 0.04674 0.06722 0.0
C23 C 0.4495 0.01111 0.05674 0.0
C24 C 0.48267 0.01159 0.04013 0.0
C25 C 0.45738 0.08209 0.06101 0.0
C26 C 0.49 0.08136 0.0439 0.0
N27 N 0.58939 0.04763 0.97926 0.0
C28 C 0.64 0.01239 0.95568 0.0
C29 C 0.65474 0.04858 0.94411 0.0
C30 C 0.63541 0.08423 0.94995 0.0
C31 C 0.60309 0.08308 0.96735 0.0
C32 C 0.6076 0.01259 0.97294 0.0
H33 H 0.59004 0.11132 0.97118 0.0
H34 H 0.59808 0.98399 0.98115 0.0
H35 H 0.49133 0.9833 0.03306 0.0
H36 H 0.50418 0.10952 0.03943 0.0
C37 C 0.54578 0.14654 0.0034 0.0
C38 C 0.62588 0.04587 0.05706 0.0
C39 C 0.46735 0.04794 0.95432 0.0
C40 C 0.54573 0.94762 0.00926 0.0
H41 H 0.64805 0.1271 0.06869 0.0
H42 H 0.60417 0.1824 0.03959 0.0
H43 H 0.4887 0.18384 0.96401 0.0
H44 H 0.44628 0.12938 0.93702 0.0
H45 H 0.4493 0.96693 0.93988 0.0
H46 H 0.49271 0.91174 0.96949 0.0
H47 H 0.59839 0.91032 0.05152 0.0
H48 H 0.64262 0.96463 0.07732 0.0
H49 H 0.43446 0.98283 0.06142 0.0
H50 H 0.44814 0.11047 0.06866 0.0
H51 H 0.65329 0.98384 0.95139 0.0
H52 H 0.64573 0.11313 0.94169 0.0
C53 C 0.08262 0.48545 0.54808 0.0
C54 C 0.11984 0.46988 0.55778 0.0
C55 C 0.14827 0.49195 0.54452 0.0
C56 C 0.12701 0.51938 0.52734 0.0
N57 N 0.08663 0.51664 0.52904 0.0
Co58 Co 0.04463 0.54815 0.50545 0.0
N59 N 0.0866 0.57856 0.48456 0.0
C60 C 0.12699 0.57459 0.48853 0.0
C61 C 0.14827 0.60023 0.47169 0.0
C62 C 0.11983 0.62249 0.45632 0.0
C63 C 0.08266 0.60922 0.46483 0.0
N64 N 1.0026 0.57888 0.4814 0.0
C65 C 0.00652 0.60925 0.46174 0.0
C66 C 0.96925 0.62316 0.45087 0.0
C67 C 0.94087 0.60091 0.46406 0.0
C68 C 0.9622 0.57489 0.48228 0.0
N69 N 1.00269 0.51844 0.5268 0.0
C70 C 0.96238 0.52394 0.52379 0.0
C71 C 0.94114 0.49945 0.54143 0.0
C72 C 0.9695 0.47653 0.5564 0.0
C73 C 0.00657 0.48816 0.54681 0.0
N74 N 0.04559 0.59138 0.53255 0.0
C75 C 0.04752 0.65721 0.56727 0.0
C76 C 0.01125 0.64359 0.55522 0.0
C77 C 0.01091 0.61074 0.53834 0.0
C78 C 0.08271 0.63651 0.56233 0.0
C79 C 0.0811 0.60407 0.54497 0.0
N80 N 0.04368 0.50502 0.47834 0.0
C81 C 0.00693 0.45568 0.45186 0.0
C82 C 0.04259 0.44038 0.44252 0.0
C83 C 0.07873 0.45871 0.451 0.0
C84 C 0.07858 0.49068 0.46867 0.0
C85 C 0.00814 0.48771 0.46951 0.0
H86 H 0.10717 0.50293 0.4745 0.0
H87 H 0.97991 0.49772 0.47592 0.0
H88 H 0.98221 0.60193 0.52996 0.0
H89 H 0.10909 0.59019 0.54157 0.0
C90 C 0.14403 0.5468 0.50847 0.0
C91 C 0.04435 0.46849 0.55667 0.0
C92 C 0.04463 0.62742 0.45397 0.0
C93 C 0.94525 0.54971 0.50258 0.0
H94 H 0.12601 0.44455 0.57239 0.0
H95 H 0.18057 0.48771 0.54656 0.0
H96 H 0.18064 0.60277 0.47092 0.0
H97 H 0.12579 0.64619 0.44083 0.0
H98 H 0.96299 0.64772 0.43563 0.0
H99 H 0.90852 0.60449 0.46154 0.0
H100 H 0.9088 0.49762 0.54266 0.0
H101 H 0.9635 0.45326 0.57218 0.0
H102 H 0.98308 0.65818 0.55887 0.0
H103 H 0.11158 0.64597 0.57119 0.0
H104 H 0.97803 0.44312 0.44552 0.0
H105 H 0.10726 0.4479 0.44458 0.0
Li106 Li 0.04198 0.08037 0.2729 0.0
Li107 Li 0.04126 0.00655 0.2757 0.0
Li108 Li 0.07649 0.04353 0.23745 0.0
Li109 Li 1.00264 0.04164 0.23796 0.0
C110 C 0.10587 0.04132 0.30531 0.0
N111 N 0.13931 0.03768 0.35908 0.0
C112 C 0.08219 0.04879 0.32746 0.0
C113 C 0.14668 0.03219 0.31052 0.0
C114 C 0.09958 0.04675 0.35448 0.0
C115 C 0.16301 0.03044 0.33785 0.0
C116 C 0.97124 0.02778 0.29805 0.0
C117 C 0.92971 0.97342 0.31531 0.0
N118 N 0.92404 0.99373 0.33845 0.0
C119 C 0.96488 0.04814 0.322 0.0
C120 C 0.95342 0.99014 0.29466 0.0
C121 C 0.94096 0.03042 0.34218 0.0
C122 C 0.00775 0.14788 0.29663 0.0
N123 N 0.04315 0.12901 0.29299 0.0
C124 C 0.07938 0.17823 0.3188 0.0
C125 C 0.07868 0.1438 0.3034 0.0
C126 C 0.04319 0.19792 0.32349 0.0
C127 C 0.00705 0.1824 0.31193 0.0
H128 H 0.97993 0.13574 0.28796 0.0
H129 H 0.10656 0.12872 0.29991 0.0
C130 C 0.0557 0.92356 0.28942 0.0
N131 N 0.04435 0.95836 0.30037 0.0
C132 C 0.05722 0.88733 0.30566 0.0
C133 C 0.03572 0.92325 0.34434 0.0
C134 C 0.03513 0.95882 0.32748 0.0
C135 C 0.04667 0.88679 0.33345 0.0
H136 H 0.06326 0.92385 0.26793 0.0
H137 H 0.02658 0.98663 0.33605 0.0
C138 C 0.05733 0.12435 0.22388 0.0
N139 N 0.09619 0.19513 0.20911 0.0
C140 C 0.03822 0.1529 0.20536 0.0
C141 C 0.09621 0.13174 0.23489 0.0
C142 C 0.05837 0.18852 0.19814 0.0
C143 C 0.11534 0.16772 0.22717 0.0
C144 C 0.02102 0.97565 0.2151 0.0
C145 C 0.02723 0.98633 0.18729 0.0
C146 C 0.99358 0.94523 0.22171 0.0
C147 C 0.00542 0.96672 0.16648 0.0
C148 C 0.97236 0.92634 0.20031 0.0
N149 N 0.97863 0.93742 0.17337 0.0
C150 C 0.15735 0.02761 0.22545 0.0
C151 C 0.11917 0.06048 0.1881 0.0
C152 C 0.19158 0.02809 0.20987 0.0
N153 N 0.12214 0.04386 0.2145 0.0
C154 C 0.15252 0.06113 0.17161 0.0
C155 C 0.18962 0.04493 0.18242 0.0
H156 H 0.15891 0.01433 0.24639 0.0
H157 H 0.09083 0.07322 0.17979 0.0
C158 C 0.91935 0.02635 0.22327 0.0
N159 N 0.95417 0.04187 0.21379 0.0
C160 C 0.88437 0.02595 0.20587 0.0
C161 C 0.92123 0.05812 0.16916 0.0
C162 C 0.95561 0.05781 0.1873 0.0
C163 C 0.8849 0.04191 0.17835 0.0
H164 H 0.91848 0.01441 0.2444 0.0
H165 H 0.9836 0.07007 0.1802 0.0
O166 O 0.08944 0.04346 0.27863 0.0
O167 O 0.99482 0.04462 0.27814 0.0
O168 O 0.03791 0.08938 0.23112 0.0
O169 O 0.04114 0.99543 0.23573 0.0
H170 H 0.05071 0.0562 0.32383 0.0
H171 H 0.16566 0.02664 0.29369 0.0
H172 H 0.0815 0.05243 0.37179 0.0
H173 H 0.19454 0.02339 0.34216 0.0
H174 H 0.91601 0.94419 0.31299 0.0
H175 H 0.97841 0.07724 0.32511 0.0
H176 H 0.95843 0.97367 0.27651 0.0
H177 H 0.93592 0.04582 0.36083 0.0
H178 H 0.10805 0.18943 0.32681 0.0
H179 H 0.97837 0.19627 0.31514 0.0
H180 H 0.0657 0.85988 0.29641 0.0
H181 H 0.02788 0.92429 0.36575 0.0
H182 H 0.00812 0.14757 0.19666 0.0
H183 H 0.11152 0.10995 0.2492 0.0
H184 H 0.04395 0.21091 0.18383 0.0
H185 H 0.14543 0.17384 0.23553 0.0
H186 H 0.04822 0.0099 0.18182 0.0
H187 H 0.98868 0.93632 0.24312 0.0
H188 H 0.00969 0.97491 0.14486 0.0
H189 H 0.95088 0.90288 0.20512 0.0
H190 H 0.21941 0.01581 0.21946 0.0
H191 H 0.14902 0.07383 0.1505 0.0
H192 H 0.85697 0.0138 0.21408 0.0
H193 H 0.92323 0.07046 0.14807 0.0
Li194 Li 0.01392 0.05391 0.77338 0.0
Li195 Li 0.08879 0.052 0.77545 0.0
Li196 Li 0.04843 0.09155 0.7371 0.0
Li197 Li 0.0513 0.0174 0.73734 0.0
C198 C 0.03867 0.11994 0.79908 0.0
N199 N 0.00965 0.16005 0.84246 0.0
C200 C 0.05972 0.11831 0.82497 0.0
C201 C 0.00308 0.14233 0.79518 0.0
C202 C 0.04452 0.13873 0.84666 0.0
C203 C 0.98882 0.16227 0.81739 0.0
C204 C 0.06329 0.9743 0.79586 0.0
C205 C 0.1046 0.91506 0.80564 0.0
N206 N 0.08944 0.9102 0.83118 0.0
C207 C 0.04772 0.96835 0.82206 0.0
C208 C 0.09162 0.94713 0.78746 0.0
C209 C 0.06147 0.93593 0.83967 0.0
C210 C 0.93 0.04965 0.7826 0.0
N211 N 0.96718 0.05237 0.79556 0.0
C212 C 0.93796 0.05424 0.83972 0.0
C213 C 0.97164 0.05434 0.82363 0.0
C214 C 0.89911 0.05181 0.82691 0.0
C215 C 0.89546 0.04934 0.7979 0.0
H216 H 0.92709 0.04783 0.7603 0.0
H217 H 1.00142 0.05611 0.8336 0.0
C218 C 0.17042 0.07048 0.78983 0.0
N219 N 0.13736 0.05139 0.79945 0.0
C220 C 0.20654 0.07061 0.80613 0.0
C221 C 0.17389 0.03217 0.84228 0.0
C222 C 0.13841 0.03283 0.8253 0.0
C223 C 0.20872 0.0511 0.83275 0.0
H224 H 0.16882 0.08545 0.76934 0.0
H225 H 0.1116 0.01898 0.83299 0.0
C226 C 0.98076 0.07242 0.71088 0.0
N227 N 0.93856 0.11343 0.66724 0.0
C228 C 0.98347 0.06035 0.68379 0.0
C229 C 0.95623 0.10507 0.71581 0.0
C230 C 0.96196 0.08153 0.662 0.0
C231 C 0.93525 0.1255 0.69346 0.0
C232 C 0.12826 0.04007 0.72193 0.0
C233 C 0.13698 0.0532 0.69493 0.0
C234 C 0.15231 0.0104 0.73615 0.0
C235 C 0.16903 0.03575 0.6824 0.0
C236 C 0.18413 0.99371 0.72295 0.0
N237 N 0.19172 0.00657 0.69654 0.0
C238 C 0.04041 0.17625 0.72424 0.0
C239 C 0.05224 0.13799 0.68559 0.0
C240 C 0.0387 0.21182 0.70733 0.0
N241 N 0.04698 0.14022 0.7132 0.0
C242 C 0.05138 0.17289 0.66798 0.0
C243 C 0.04445 0.21046 0.67881 0.0
H244 H 0.03663 0.17747 0.74623 0.0
H245 H 0.0568 0.10902 0.67716 0.0
C246 C 0.0378 0.93514 0.72593 0.0
N247 N 0.05093 0.971 0.71492 0.0
C248 C 0.03779 0.90068 0.71056 0.0
C249 C 0.0632 0.94083 0.67224 0.0
C250 C 0.06318 0.97441 0.68849 0.0
C251 C 0.05063 0.90308 0.68324 0.0
H252 H 0.02743 0.93319 0.74678 0.0
H253 H 0.07246 0.00336 0.67983 0.0
O254 O 0.05292 0.09979 0.77768 0.0
O255 O 0.05014 0.00601 0.77839 0.0
O256 O 1.0024 0.05272 0.7324 0.0
O257 O 0.09674 0.05663 0.73445 0.0
H258 H 0.08743 0.1014 0.82834 0.0
H259 H 0.98637 0.14394 0.77532 0.0
H260 H 0.06042 0.13758 0.86683 0.0
H261 H 0.96116 0.17943 0.81471 0.0
H262 H 0.12657 0.8939 0.79939 0.0
H263 H 0.02542 0.98862 0.82883 0.0
H264 H 0.10305 0.9503 0.76697 0.0
H265 H 0.04987 0.9312 0.86007 0.0
H266 H 0.94239 0.05556 0.86203 0.0
H267 H 0.86618 0.04778 0.78706 0.0
H268 H 0.23262 0.08537 0.79779 0.0
H269 H 0.17383 0.0175 0.86286 0.0
H270 H 1.0022 0.03512 0.67961 0.0
H271 H 0.95366 0.1147 0.73664 0.0
H272 H 0.96397 0.07266 0.64091 0.0
H273 H 0.91639 0.151 0.69697 0.0
H274 H 0.11911 0.07646 0.68368 0.0
H275 H 0.14685 1.00067 0.75728 0.0
H276 H 0.17588 0.04544 0.66145 0.0
H277 H 0.20288 0.97065 0.73374 0.0
H278 H 0.03364 0.24022 0.71655 0.0
H279 H 0.05554 0.17047 0.64606 0.0
H280 H 0.0282 0.87238 0.7202 0.0
H281 H 0.07243 0.94467 0.65112 0.0
C282 C 0.40101 0.06627 0.10924 0.0
C283 C 0.40004 0.04703 0.08409 0.0
C284 C 0.36716 0.06624 0.12547 0.0
C285 C 0.33117 0.04718 0.1161 0.0
C286 C 0.32991 0.02819 0.09051 0.0
C287 C 0.36442 0.02804 0.07497 0.0
C288 C 0.37005 0.08621 0.15283 0.0
C289 C 0.29202 0.00818 0.07946 0.0
C290 C 0.25407 0.01385 0.1682 0.0
C291 C 0.22592 0.04553 0.16531 0.0
C292 C 0.28857 0.01427 0.15262 0.0
C293 C 0.29495 0.04674 0.13314 0.0
C294 C 0.26658 0.07859 0.12985 0.0
C295 C 0.23272 0.0778 0.14609 0.0
C296 C 0.31822 0.97987 0.157 0.0
C297 C 0.27195 0.11356 0.10909 0.0
H298 H 0.42856 0.08073 0.11647 0.0
H299 H 0.36338 0.01355 0.05538 0.0
H300 H 0.34712 0.11039 0.15279 0.0
H301 H 0.36366 0.0639 0.16995 0.0
H302 H 0.40023 0.09947 0.15727 0.0
H303 H 0.29566 0.99562 0.05891 0.0
H304 H 0.28326 0.98343 0.09425 0.0
H305 H 0.26687 0.03022 0.07744 0.0
H306 H 0.24901 0.98831 0.18247 0.0
H307 H 0.21181 0.10285 0.14389 0.0
H308 H 0.34866 0.9916 0.1626 0.0
H309 H 0.32029 0.96416 0.13746 0.0
H310 H 0.30967 0.95757 0.17362 0.0
H311 H 0.30041 0.12957 0.1143 0.0
H312 H 0.24669 0.13545 0.10849 0.0
H313 H 0.27425 0.10235 0.08802 0.0
C314 C 0.06023 0.42953 0.60208 0.0
C315 C 0.04361 0.4306 0.57476 0.0
C316 C 0.06042 0.39377 0.61904 0.0
C317 C 0.0426 0.35848 0.60866 0.0
C318 C 0.02493 0.35975 0.58124 0.0
C319 C 0.02595 0.39571 0.56455 0.0
C320 C 0.08006 0.39365 0.64797 0.0
C321 C 0.00495 0.32312 0.56952 0.0
C322 C 0.07432 0.25615 0.64229 0.0
C323 C 0.04361 0.24806 0.66055 0.0
C324 C 0.07447 0.292 0.62542 0.0
C325 C 0.04274 0.32019 0.62642 0.0
C326 C 0.01133 0.31187 0.64454 0.0
C327 C 0.01235 0.27612 0.66156 0.0
C328 C 0.10888 0.29997 0.60678 0.0
C329 C 0.97656 0.34068 0.64587 0.0
H330 H 0.07349 0.45668 0.61003 0.0
H331 H 0.01292 0.39668 0.54345 0.0
H332 H 0.05772 0.38535 0.6635 0.0
H333 H 0.10434 0.37066 0.65038 0.0
H334 H 0.09316 0.42339 0.65275 0.0
H335 H 0.99144 0.32945 0.54818 0.0
H336 H 0.02727 0.29846 0.569 0.0
H337 H 0.98098 0.31207 0.58309 0.0
H338 H 0.09875 0.23474 0.64164 0.0
H339 H 0.98835 0.26981 0.67545 0.0
H340 H 0.12413 0.32848 0.61201 0.0
H341 H 0.09727 0.30369 0.58481 0.0
H342 H 0.13148 0.27527 0.60864 0.0
H343 H 0.98778 0.37023 0.65256 0.0
H344 H 0.95397 0.32931 0.66047 0.0
H345 H 0.9614 0.34594 0.62494 0.0
C346 C 0.69965 0.03094 0.06417 0.0
C347 C 0.66419 0.04499 0.07466 0.0
C348 C 0.73609 0.02995 0.08041 0.0
C349 C 0.73705 0.04345 0.10777 0.0
C350 C 0.70111 0.05753 0.11843 0.0
C351 C 0.66506 0.05792 0.10178 0.0
C352 C 0.77357 0.0145 0.06828 0.0
C353 C 0.70075 0.07224 0.14742 0.0
C354 C 0.82188 0.00842 0.15977 0.0
C355 C 0.84765 0.04192 0.15959 0.0
C356 C 0.78607 0.00839 0.14288 0.0
C357 C 0.77555 0.0427 0.12531 0.0
C358 C 0.80159 0.07646 0.12478 0.0
C359 C 0.83729 0.07564 0.14186 0.0
C360 C 0.75935 0.97166 0.14396 0.0
C361 C 0.79146 0.11369 0.10643 0.0
H362 H 0.69878 0.02082 0.04319 0.0
H363 H 0.63746 0.06849 0.10987 0.0
H364 H 0.79698 0.03828 0.06809 0.0
H365 H 0.78602 0.98852 0.0814 0.0
H366 H 0.76773 0.0049 0.04676 0.0
H367 H 0.67042 0.08255 0.15251 0.0
H368 H 0.71078 0.04779 0.1628 0.0
H369 H 0.72222 0.09755 0.14971 0.0
H370 H 0.82986 0.98198 0.17306 0.0
H371 H 0.85669 0.10185 0.14178 0.0
H372 H 0.75484 0.95997 0.12294 0.0
H373 H 0.72926 0.97988 0.15072 0.0
H374 H 0.77207 0.94717 0.15839 0.0
H375 H 0.78744 0.10574 0.08445 0.0
H376 H 0.81513 0.13716 0.10806 0.0
H377 H 0.76255 0.12662 0.11219 0.0
C378 C 0.02737 0.72822 0.57513 0.0
C379 C 0.04858 0.69314 0.58443 0.0
C380 C 0.02807 0.76248 0.59094 0.0
C381 C 0.05009 0.76159 0.61693 0.0
C382 C 0.07147 0.7262 0.62648 0.0
C383 C 0.07071 0.69254 0.61003 0.0
C384 C 0.00539 0.79974 0.57976 0.0
C385 C 0.09483 0.72376 0.65422 0.0
C386 C 0.08078 0.8611 0.6476 0.0
C387 C 0.05064 0.86663 0.66632 0.0
C388 C 0.08091 0.82723 0.63139 0.0
C389 C 0.05053 0.79763 0.63416 0.0
C390 C 0.02027 0.80272 0.65316 0.0
C391 C 0.02049 0.83719 0.66879 0.0
C392 C 0.11353 0.82319 0.61119 0.0
C393 C 0.98749 0.77177 0.65692 0.0
H394 H 0.01063 0.72905 0.5552 0.0
H395 H 0.08688 0.66542 0.61743 0.0
H396 H 0.98226 0.80754 0.59426 0.0
H397 H 0.02633 0.82566 0.57815 0.0
H398 H 0.99031 0.79581 0.55899 0.0
H399 H 0.1097 0.69405 0.65872 0.0
H400 H 0.11819 0.74757 0.65475 0.0
H401 H 0.07437 0.72914 0.67101 0.0
H402 H 0.10467 0.88309 0.64576 0.0
H403 H 0.99659 0.84125 0.68272 0.0
H404 H 0.09983 0.82085 0.58987 0.0
H405 H 0.13097 0.79515 0.61649 0.0
H406 H 0.13463 0.8491 0.61117 0.0
H407 H 0.96941 0.76924 0.6371 0.0
H408 H 0.96697 0.77942 0.67323 0.0
H409 H 1.00099 0.74175 0.6626 0.0
C410 C 0.43008 0.0383 0.90855 0.0
C411 C 0.42948 0.04824 0.9363 0.0
C412 C 0.39449 0.03854 0.89141 0.0
C413 C 0.35752 0.04928 0.9023 0.0
C414 C 0.35698 0.0596 0.93036 0.0
C415 C 0.393 0.05893 0.94703 0.0
C416 C 0.39643 0.02727 0.86167 0.0
C417 C 0.31834 0.07135 0.94279 0.0
C418 C 0.27115 0.08518 0.85183 0.0
C419 C 0.24696 0.05062 0.8505 0.0
C420 C 0.30714 0.08516 0.86855 0.0
C421 C 0.31943 0.04971 0.88435 0.0
C422 C 0.29524 0.01471 0.88307 0.0
C423 C 0.25936 0.01559 0.86622 0.0
C424 C 0.33191 0.12319 0.86944 0.0
C425 C 0.30733 0.97624 0.89946 0.0
H426 H 0.45847 0.03027 0.90032 0.0
H427 H 0.39276 0.0667 0.96853 0.0
H428 H 0.37651 1.00115 0.85782 0.0
H429 H 0.38537 0.05264 0.84741 0.0
H430 H 0.42746 0.01945 0.85645 0.0
H431 H 0.32306 0.07872 0.96488 0.0
H432 H 0.30478 0.09788 0.93084 0.0
H433 H 0.29628 0.04639 0.94143 0.0
H434 H 0.26161 0.11255 0.84009 0.0
H435 H 0.24123 0.98857 0.86506 0.0
H436 H 0.36267 0.11733 0.86283 0.0
H437 H 0.33505 0.13304 0.89102 0.0
H438 H 0.31834 0.14818 0.85583 0.0
H439 H 0.33724 0.96614 0.89346 0.0
H440 H 0.2853 0.95159 0.89617 0.0
H441 H 0.31013 0.98164 0.92195 0.0
C442 C 0.0162 0.37263 0.42936 0.0
C443 C 0.04215 0.40529 0.42445 0.0
C444 C 0.01587 0.3391 0.41284 0.0
C445 C 0.0422 0.33797 0.39083 0.0
C446 C 0.06837 0.37085 0.38568 0.0
C447 C 0.06801 0.40405 0.4025 0.0
C448 C 0.98756 0.30467 0.4191 0.0
C449 C 0.09687 0.3709 0.36243 0.0
C450 C 0.06852 0.23569 0.36471 0.0
C451 C 0.04313 0.23404 0.34058 0.0
C452 C 0.06862 0.2693 0.38115 0.0
C453 C 0.04264 0.30221 0.3734 0.0
C454 C 0.01697 0.30081 0.34907 0.0
C455 C 0.01754 0.26683 0.33298 0.0
C456 C 0.0964 0.26949 0.40695 0.0
C457 C 0.98886 0.33525 0.34003 0.0
H458 H 0.99654 0.37293 0.4465 0.0
H459 H 0.0878 0.42929 0.39826 0.0
H460 H 0.96764 0.29932 0.40048 0.0
H461 H 0.00501 0.27662 0.42433 0.0
H462 H 0.9685 0.31044 0.43663 0.0
H463 H 0.11516 0.39884 0.36102 0.0
H464 H 0.11753 0.34469 0.36557 0.0
H465 H 0.07969 0.36785 0.34231 0.0
H466 H 0.08797 0.21033 0.37105 0.0
H467 H 0.99819 0.26617 0.31421 0.0
H468 H 0.07857 0.27221 0.42549 0.0
H469 H 0.11669 0.29596 0.40573 0.0
H470 H 0.11509 0.24177 0.40997 0.0
H471 H 0.96801 0.34047 0.35662 0.0
H472 H 0.97078 0.32954 0.32062 0.0
H473 H 0.00634 0.36335 0.33663 0.0
C474 C 0.6915 0.0753 0.9027 0.0
C475 C 0.69029 0.04913 0.92648 0.0
C476 C 0.72498 0.07625 0.88611 0.0
C477 C 0.75816 0.0504 0.89337 0.0
C478 C 0.75712 0.02389 0.9173 0.0
C479 C 0.72332 0.0236 0.93353 0.0
C480 C 0.72481 0.10491 0.86075 0.0
C481 C 0.79188 0.99593 0.92587 0.0
C482 C 0.83015 0.02616 0.83781 0.0
C483 C 0.86273 0.05178 0.84372 0.0
C484 C 0.79592 0.02555 0.85367 0.0
C485 C 0.79406 0.05118 0.87604 0.0
C486 C 0.82673 0.07725 0.88204 0.0
C487 C 0.86058 0.07723 0.86585 0.0
C488 C 0.76187 0.99717 0.84664 0.0
C489 C 0.82593 0.10518 0.90561 0.0
H490 H 0.666 0.09478 0.89684 0.0
H491 H 0.72304 0.00373 0.95207 0.0
H492 H 0.75091 0.12561 0.86237 0.0
H493 H 0.72795 0.08782 0.8419 0.0
H494 H 0.69679 0.12317 0.85798 0.0
H495 H 0.78624 0.97681 0.94484 0.0
H496 H 0.79763 0.97605 0.90881 0.0
H497 H 0.81965 0.01369 0.92985 0.0
H498 H 0.83167 0.00601 0.82102 0.0
H499 H 0.88527 0.09757 0.87036 0.0
H500 H 0.73345 0.01435 0.84228 0.0
H501 H 0.75725 0.97579 0.86463 0.0
H502 H 0.76762 0.97965 0.82833 0.0
H503 H 0.79954 0.12559 0.90245 0.0
H504 H 0.85363 0.12374 0.90751 0.0
H505 H 0.82267 0.08747 0.9255 0.0
C506 C 0.03086 0.66576 0.40811 0.0
C507 C 0.04496 0.66538 0.43598 0.0
C508 C 0.03085 0.70147 0.39109 0.0
C509 C 0.04614 0.73744 0.40209 0.0
C510 C 0.06105 0.73693 0.43018 0.0
C511 C 0.06001 0.70095 0.44683 0.0
C512 C 0.01423 0.70078 0.36141 0.0
C513 C 0.07812 0.77438 0.44264 0.0
C514 C 0.07905 0.8215 0.35138 0.0
C515 C 0.04658 0.84844 0.35091 0.0
C516 C 0.07943 0.78541 0.36804 0.0
C517 C 0.04625 0.77568 0.38431 0.0
C518 C 0.01321 0.8026 0.38369 0.0
C519 C 0.0139 0.83873 0.36717 0.0
C520 C 0.11551 0.75786 0.36842 0.0
C521 C 0.97699 0.79314 0.40037 0.0
H522 H 0.01958 0.63808 0.39972 0.0
H523 H 0.07108 0.70049 0.46838 0.0
H524 H 0.9892 0.72278 0.35774 0.0
H525 H 0.03787 0.70994 0.34704 0.0
H526 H 1.00293 0.67053 0.35616 0.0
H527 H 0.08946 0.76869 0.46457 0.0
H528 H 0.1032 0.78625 0.43038 0.0
H529 H 0.05469 0.79818 0.44181 0.0
H530 H 0.10455 0.82901 0.33907 0.0
H531 H 0.9885 0.8592 0.36663 0.0
H532 H 0.1061 0.72783 0.36153 0.0
H533 H 0.12891 0.7534 0.38992 0.0
H534 H 0.13904 0.76993 0.3548 0.0
H535 H 0.9637 0.76398 0.39451 0.0
H536 H 0.95343 0.81683 0.39722 0.0
H537 H 0.98624 0.78994 0.4228 0.0
loop_
_geom_bond_atom_site_label_1
_geom_bond_atom_site_label_2
_geom_bond_distance
_geom_bond_site_symmetry_2
_ccdc_geom_bond_type
C0 C1 1.443 . S
C0 N4 1.376 . S
C0 C38 1.389 . S
C1 C0 1.443 . S
C1 C2 1.340 . S
C1 H41 0.951 . S
C2 C1 1.340 . S
C2 C3 1.439 . S
C2 H42 0.950 . S
C3 C2 1.439 . S
C3 N4 1.374 . S
C3 C37 1.395 1_554 S
N4 C0 1.376 . S
N4 C3 1.374 . S
N4 Co5 2.008 . S
Co5 N4 2.008 . S
Co5 N6 1.995 1_554 S
Co5 N11 2.008 1_554 S
Co5 N16 2.004 . S
Co5 N21 2.282 . S
Co5 N27 2.282 1_554 S
N6 Co5 1.995 1_556 S
N6 C7 1.376 . S
N6 C10 1.383 . S
C7 N6 1.376 . S
C7 C8 1.446 . S
C7 C37 1.391 . S
C8 C7 1.446 . S
C8 C9 1.339 . S
C8 H43 0.949 . S
C9 C8 1.339 . S
C9 C10 1.439 . S
C9 H44 0.950 . S
C10 N6 1.383 . S
C10 C9 1.439 . S
C10 C39 1.392 . S
N11 Co5 2.008 1_556 S
N11 C12 1.376 . S
N11 C15 1.374 1_545 S
C12 N11 1.376 . S
C12 C13 1.443 1_545 S
C12 C39 1.389 . S
C13 C12 1.443 1_565 S
C13 C14 1.340 . S
C13 H45 0.951 . S
C14 C13 1.340 . S
C14 C15 1.439 . S
C14 H46 0.950 . S
C15 N11 1.374 1_565 S
C15 C14 1.439 . S
C15 C40 1.395 1_556 S
N16 Co5 2.004 . S
N16 C17 1.363 1_545 S
N16 C20 1.385 . S
C17 N16 1.363 1_565 S
C17 C18 1.446 . S
C17 C40 1.391 . S
C18 C17 1.446 . S
C18 C19 1.339 . S
C18 H47 0.949 . S
C19 C18 1.339 . S
C19 C20 1.439 1_565 S
C19 H48 0.950 . S
C20 N16 1.385 . S
C20 C19 1.439 1_545 S
C20 C38 1.392 . S
N21 Co5 2.282 . S
N21 C24 1.332 . S
N21 C26 1.332 . S
C22 C23 1.386 . S
C22 C25 1.388 . S
C23 C22 1.386 . S
C23 C24 1.382 . S
C23 H49 0.950 1_545 S
C24 N21 1.332 . S
C24 C23 1.382 . S
C24 H35 0.952 1_545 S
C25 C22 1.388 . S
C25 C26 1.382 . S
C25 H50 0.950 . S
C26 N21 1.332 . S
C26 C25 1.382 . S
C26 H36 0.948 . S
N27 Co5 2.282 1_556 S
N27 C31 1.332 . S
N27 C32 1.332 . S
C28 C29 1.388 . S
C28 C32 1.382 . S
C28 H51 0.950 1_545 S
C29 C28 1.388 . S
C29 C30 1.386 . S
C30 C29 1.386 . S
C30 C31 1.382 . S
C30 H52 0.950 . S
C31 N27 1.332 . S
C31 C30 1.382 . S
C31 H33 0.952 . S
C32 N27 1.332 . S
C32 C28 1.382 . S
C32 H34 0.948 1_545 S
H33 C31 0.952 . S
H34 C32 0.948 1_565 S
H35 C24 0.952 1_565 S
H36 C26 0.948 . S
C37 C3 1.395 1_556 S
C37 C7 1.391 . S
C38 C0 1.389 . S
C38 C20 1.392 . S
C39 C10 1.392 . S
C39 C12 1.389 . S
C40 C15 1.395 1_554 S
C40 C17 1.391 . S
H41 C1 0.951 . S
H42 C2 0.950 . S
H43 C8 0.949 . S
H44 C9 0.950 . S
H45 C13 0.951 . S
H46 C14 0.950 . S
H47 C18 0.949 . S
H48 C19 0.950 . S
H49 C23 0.950 1_565 S
H50 C25 0.950 . S
H51 C28 0.950 1_565 S
H52 C30 0.950 . S
C53 C54 1.443 . S
C53 N57 1.376 . S
C53 C91 1.389 . S
C54 C53 1.443 . S
C54 C55 1.340 . S
C54 H94 0.951 . S
C55 C54 1.340 . S
C55 C56 1.439 . S
C55 H95 0.950 . S
C56 C55 1.439 . S
C56 N57 1.374 . S
C56 C90 1.395 . S
N57 C53 1.376 . S
N57 C56 1.374 . S
N57 Co58 2.008 . S
Co58 N57 2.008 . S
Co58 N59 1.995 . S
Co58 N64 2.002 1_455 S
Co58 N69 1.995 . S
Co58 N74 2.282 . S
Co58 N80 2.282 . S
N59 Co58 1.995 . S
N59 C60 1.376 . S
N59 C63 1.383 . S
C60 N59 1.376 . S
C60 C61 1.446 . S
C60 C90 1.391 . S
C61 C60 1.446 . S
C61 C62 1.339 . S
C61 H96 0.949 . S
C62 C61 1.339 . S
C62 C63 1.439 . S
C62 H97 0.950 . S
C63 N59 1.383 . S
C63 C62 1.439 . S
C63 C92 1.392 . S
N64 Co58 2.002 1_655 S
N64 C65 1.375 1_655 S
N64 C68 1.382 . S
C65 N64 1.375 1_455 S
C65 C66 1.443 1_455 S
C65 C92 1.389 . S
C66 C65 1.443 1_655 S
C66 C67 1.340 . S
C66 H98 0.951 . S
C67 C66 1.340 . S
C67 C68 1.439 . S
C67 H99 0.950 . S
C68 N64 1.382 . S
C68 C67 1.439 . S
C68 C93 1.395 . S
N69 Co58 1.995 . S
N69 C70 1.376 1_455 S
N69 C73 1.383 . S
C70 N69 1.376 1_655 S
C70 C71 1.446 . S
C70 C93 1.391 . S
C71 C70 1.446 . S
C71 C72 1.339 . S
C71 H100 0.949 . S
C72 C71 1.339 . S
C72 C73 1.439 1_655 S
C72 H101 0.950 . S
C73 N69 1.383 . S
C73 C72 1.439 1_455 S
C73 C91 1.392 . S
N74 Co58 2.282 . S
N74 C77 1.332 . S
N74 C79 1.332 . S
C75 C76 1.386 . S
C75 C78 1.388 . S
C76 C75 1.386 . S
C76 C77 1.382 . S
C76 H102 0.950 1_455 S
C77 N74 1.332 . S
C77 C76 1.382 . S
C77 H88 0.952 1_455 S
C78 C75 1.388 . S
C78 C79 1.382 . S
C78 H103 0.950 . S
C79 N74 1.332 . S
C79 C78 1.382 . S
C79 H89 0.948 . S
N80 Co58 2.282 . S
N80 C84 1.332 . S
N80 C85 1.332 . S
C81 C82 1.388 . S
C81 C85 1.382 . S
C81 H104 0.950 1_455 S
C82 C81 1.388 . S
C82 C83 1.386 . S
C83 C82 1.386 . S
C83 C84 1.382 . S
C83 H105 0.950 . S
C84 N80 1.332 . S
C84 C83 1.382 . S
C84 H86 0.952 . S
C85 N80 1.332 . S
C85 C81 1.382 . S
C85 H87 0.948 1_455 S
H86 C84 0.952 . S
H87 C85 0.948 1_655 S
H88 C77 0.952 1_655 S
H89 C79 0.948 . S
C90 C56 1.395 . S
C90 C60 1.391 . S
C91 C53 1.389 . S
C91 C73 1.392 . S
C92 C63 1.392 . S
C92 C65 1.389 . S
C93 C68 1.395 . S
C93 C70 1.391 . S
H94 C54 0.951 . S
H95 C55 0.950 . S
H96 C61 0.949 . S
H97 C62 0.950 . S
H98 C66 0.951 . S
H99 C67 0.950 . S
H100 C71 0.949 . S
H101 C72 0.950 . S
H102 C76 0.950 1_655 S
H103 C78 0.950 . S
H104 C81 0.950 1_655 S
H105 C83 0.950 . S
Li106 N123 1.990 . S
Li106 O166 1.956 . S
Li106 O167 1.970 1_455 S
Li106 O168 1.961 . S
Li107 N131 1.990 . S
Li107 O166 1.970 1_565 S
Li107 O167 1.956 1_465 S
Li107 O169 1.961 . S
Li108 N153 1.990 . S
Li108 O166 1.961 . S
Li108 O168 1.956 . S
Li108 O169 1.970 1_545 S
Li109 N159 1.990 . S
Li109 O167 1.961 . S
Li109 O168 1.970 1_655 S
Li109 O169 1.956 1_645 S
C110 C112 1.348 . S
C110 C113 1.356 . S
C110 O166 1.325 . S
N111 C114 1.314 . S
N111 C115 1.279 . S
C112 C110 1.348 . S
C112 C114 1.353 . S
C112 H170 0.929 1_545 S
C113 C110 1.356 . S
C113 C115 1.358 . S
C113 H171 0.930 . S
C114 N111 1.314 . S
C114 C112 1.353 . S
C114 H172 0.930 1_545 S
C115 N111 1.279 . S
C115 C113 1.358 . S
C115 H173 0.930 . S
C116 C119 1.348 . S
C116 C120 1.356 . S
C116 O167 1.325 . S
C117 N118 1.279 . S
C117 C120 1.358 . S
C117 H174 0.930 1_545 S
N118 C117 1.279 . S
N118 C121 1.314 . S
C119 C116 1.348 . S
C119 C121 1.353 . S
C119 H175 0.929 . S
C120 C116 1.356 . S
C120 C117 1.358 . S
C120 H176 0.930 1_545 S
C121 N118 1.314 . S
C121 C119 1.353 . S
C121 H177 0.930 . S
C122 N123 1.314 . S
C122 C127 1.353 . S
C122 H128 0.917 1_455 S
N123 Li106 1.990 . S
N123 C122 1.314 . S
N123 C125 1.279 . S
C124 C125 1.358 . S
C124 C126 1.356 . S
C124 H178 0.930 . S
C125 N123 1.279 . S
C125 C124 1.358 . S
C125 H129 0.930 . S
C126 C124 1.356 . S
C126 C127 1.348 . S
C127 C122 1.353 . S
C127 C126 1.348 . S
C127 H179 0.929 1_455 S
H128 C122 0.917 1_655 S
H129 C125 0.930 . S
C130 N131 1.314 . S
C130 C132 1.353 . S
C130 H136 0.930 . S
N131 Li107 1.990 . S
N131 C130 1.314 . S
N131 C134 1.279 . S
C132 C130 1.353 . S
C132 C135 1.348 . S
C132 H180 0.929 . S
C133 C134 1.358 . S
C133 C135 1.356 . S
C133 H181 0.930 1_455 S
C134 N131 1.279 . S
C134 C133 1.358 . S
C134 H137 0.930 1_455 S
C135 C132 1.348 . S
C135 C133 1.356 . S
H136 C130 0.930 . S
H137 C134 0.930 1_655 S
C138 C140 1.348 . S
C138 C141 1.356 . S
C138 O168 1.325 . S
N139 C142 1.314 . S
N139 C143 1.279 . S
C140 C138 1.348 . S
C140 C142 1.353 . S
C140 H182 0.929 1_455 S
C141 C138 1.356 . S
C141 C143 1.358 . S
C141 H183 0.930 . S
C142 N139 1.314 . S
C142 C140 1.353 . S
C142 H184 0.930 1_455 S
C143 N139 1.279 . S
C143 C141 1.358 . S
C143 H185 0.930 . S
C144 C145 1.348 . S
C144 C146 1.356 . S
C144 O169 1.325 . S
C145 C144 1.348 . S
C145 C147 1.353 . S
C145 H186 0.929 . S
C146 C144 1.356 . S
C146 C148 1.358 . S
C146 H187 0.930 1_455 S
C147 C145 1.353 . S
C147 N149 1.314 . S
C147 H188 0.930 . S
C148 C146 1.358 . S
C148 N149 1.279 . S
C148 H189 0.930 1_455 S
N149 C147 1.314 . S
N149 C148 1.279 . S
C150 C152 1.353 . S
C150 N153 1.314 . S
C150 H156 0.917 1_545 S
C151 N153 1.279 . S
C151 C154 1.358 . S
C151 H157 0.930 . S
C152 C150 1.353 . S
C152 C155 1.348 . S
C152 H190 0.929 1_545 S
N153 Li108 1.990 . S
N153 C150 1.314 . S
N153 C151 1.279 . S
C154 C151 1.358 . S
C154 C155 1.356 . S
C154 H191 0.930 . S
C155 C152 1.348 . S
C155 C154 1.356 . S
H156 C150 0.917 1_565 S
H157 C151 0.930 . S
C158 N159 1.314 . S
C158 C160 1.353 . S
C158 H164 0.930 . S
N159 Li109 1.990 . S
N159 C158 1.314 . S
N159 C162 1.279 . S
C160 C158 1.353 . S
C160 C163 1.348 . S
C160 H192 0.929 . S
C161 C162 1.358 . S
C161 C163 1.356 . S
C161 H193 0.930 1_545 S
C162 N159 1.279 . S
C162 C161 1.358 . S
C162 H165 0.930 1_545 S
C163 C160 1.348 . S
C163 C161 1.356 . S
H164 C158 0.930 . S
H165 C162 0.930 1_565 S
O166 Li106 1.956 . S
O166 Li107 1.970 1_545 S
O166 Li108 1.961 . S
O166 C110 1.325 . S
O167 Li106 1.970 1_655 S
O167 Li107 1.956 1_645 S
O167 Li109 1.961 . S
O167 C116 1.325 . S
O168 Li106 1.961 . S
O168 Li108 1.956 . S
O168 Li109 1.970 1_455 S
O168 C138 1.325 . S
O169 Li107 1.961 . S
O169 Li108 1.970 1_565 S
O169 Li109 1.956 1_465 S
O169 C144 1.325 . S
H170 C112 0.929 1_565 S
H171 C113 0.930 . S
H172 C114 0.930 1_565 S
H173 C115 0.930 . S
H174 C117 0.930 1_565 S
H175 C119 0.929 . S
H176 C120 0.930 1_565 S
H177 C121 0.930 . S
H178 C124 0.930 . S
H179 C127 0.929 1_655 S
H180 C132 0.929 . S
H181 C133 0.930 1_655 S
H182 C140 0.929 1_655 S
H183 C141 0.930 . S
H184 C142 0.930 1_655 S
H185 C143 0.930 . S
H186 C145 0.929 . S
H187 C146 0.930 1_655 S
H188 C147 0.930 . S
H189 C148 0.930 1_655 S
H190 C152 0.929 1_565 S
H191 C154 0.930 . S
H192 C160 0.929 . S
H193 C161 0.930 1_565 S
Li194 N211 1.990 1_455 S
Li194 O254 1.956 . S
Li194 O255 1.970 . S
Li194 O256 1.961 . S
Li195 N219 1.990 . S
Li195 O254 1.970 . S
Li195 O255 1.956 . S
Li195 O257 1.961 . S
Li196 N241 1.990 . S
Li196 O254 1.961 . S
Li196 O256 1.956 . S
Li196 O257 1.970 . S
Li197 N247 1.990 1_545 S
Li197 O255 1.961 . S
Li197 O256 1.970 . S
Li197 O257 1.956 . S
C198 C200 1.348 . S
C198 C201 1.356 . S
C198 O254 1.325 . S
N199 C202 1.314 . S
N199 C203 1.279 . S
C200 C198 1.348 . S
C200 C202 1.353 . S
C200 H258 0.929 . S
C201 C198 1.356 . S
C201 C203 1.358 . S
C201 H259 0.930 . S
C202 N199 1.314 . S
C202 C200 1.353 . S
C202 H260 0.930 . S
C203 N199 1.279 . S
C203 C201 1.358 . S
C203 H261 0.930 . S
C204 C207 1.348 . S
C204 C208 1.356 . S
C204 O255 1.325 1_565 S
C205 N206 1.279 . S
C205 C208 1.358 . S
C205 H262 0.930 . S
N206 C205 1.279 . S
N206 C209 1.314 . S
C207 C204 1.348 . S
C207 C209 1.353 . S
C207 H263 0.929 . S
C208 C204 1.356 . S
C208 C205 1.358 . S
C208 H264 0.930 . S
C209 N206 1.314 . S
C209 C207 1.353 . S
C209 H265 0.930 . S
C210 N211 1.314 . S
C210 C215 1.353 . S
C210 H216 0.930 . S
N211 Li194 1.990 1_655 S
N211 C210 1.314 . S
N211 C213 1.279 . S
C212 C213 1.358 . S
C212 C214 1.356 . S
C212 H266 0.930 . S
C213 N211 1.279 . S
C213 C212 1.358 . S
C213 H217 0.930 . S
C214 C212 1.356 . S
C214 C215 1.348 . S
C215 C210 1.353 . S
C215 C214 1.348 . S
C215 H267 0.929 . S
H216 C210 0.930 . S
H217 C213 0.930 . S
C218 N219 1.314 . S
C218 C220 1.353 . S
C218 H224 0.930 . S
N219 Li195 1.990 . S
N219 C218 1.314 . S
N219 C222 1.279 . S
C220 C218 1.353 . S
C220 C223 1.348 . S
C220 H268 0.929 . S
C221 C222 1.358 . S
C221 C223 1.356 . S
C221 H269 0.930 . S
C222 N219 1.279 . S
C222 C221 1.358 . S
C222 H225 0.930 . S
C223 C220 1.348 . S
C223 C221 1.356 . S
H224 C218 0.930 . S
H225 C222 0.930 . S
C226 C228 1.348 . S
C226 C229 1.356 . S
C226 O256 1.325 1_655 S
N227 C230 1.314 . S
N227 C231 1.279 . S
C228 C226 1.348 . S
C228 C230 1.353 . S
C228 H270 0.929 . S
C229 C226 1.356 . S
C229 C231 1.358 . S
C229 H271 0.930 . S
C230 N227 1.314 . S
C230 C228 1.353 . S
C230 H272 0.930 . S
C231 N227 1.279 . S
C231 C229 1.358 . S
C231 H273 0.930 . S
C232 C233 1.348 . S
C232 C234 1.356 . S
C232 O257 1.325 . S
C233 C232 1.348 . S
C233 C235 1.353 . S
C233 H274 0.929 . S
C234 C232 1.356 . S
C234 C236 1.358 . S
C234 H275 0.930 . S
C235 C233 1.353 . S
C235 N237 1.314 . S
C235 H276 0.930 . S
C236 C234 1.358 . S
C236 N237 1.279 . S
C236 H277 0.930 . S
N237 C235 1.314 . S
N237 C236 1.279 . S
C238 C240 1.353 . S
C238 N241 1.314 . S
C238 H244 0.930 . S
C239 N241 1.279 . S
C239 C242 1.358 . S
C239 H245 0.930 . S
C240 C238 1.353 . S
C240 C243 1.348 . S
C240 H278 0.929 . S
N241 Li196 1.990 . S
N241 C238 1.314 . S
N241 C239 1.279 . S
C242 C239 1.358 . S
C242 C243 1.356 . S
C242 H279 0.930 . S
C243 C240 1.348 . S
C243 C242 1.356 . S
H244 C238 0.930 . S
H245 C239 0.930 . S
C246 N247 1.314 . S
C246 C248 1.353 . S
C246 H252 0.930 . S
N247 Li197 1.990 1_565 S
N247 C246 1.314 . S
N247 C250 1.279 . S
C248 C246 1.353 . S
C248 C251 1.348 . S
C248 H280 0.929 . S
C249 C250 1.358 . S
C249 C251 1.356 . S
C249 H281 0.930 . S
C250 N247 1.279 . S
C250 C249 1.358 . S
C250 H253 0.930 . S
C251 C248 1.348 . S
C251 C249 1.356 . S
H252 C246 0.930 . S
H253 C250 0.930 . S
O254 Li194 1.956 . S
O254 Li195 1.970 . S
O254 Li196 1.961 . S
O254 C198 1.325 . S
O255 Li194 1.970 . S
O255 Li195 1.956 . S
O255 Li197 1.961 . S
O255 C204 1.325 1_545 S
O256 Li194 1.961 . S
O256 Li196 1.956 . S
O256 Li197 1.970 . S
O256 C226 1.325 1_455 S
O257 Li195 1.961 . S
O257 Li196 1.970 . S
O257 Li197 1.956 . S
O257 C232 1.325 . S
H258 C200 0.929 . S
H259 C201 0.930 . S
H260 C202 0.930 . S
H261 C203 0.930 . S
H262 C205 0.930 . S
H263 C207 0.929 . S
H264 C208 0.930 . S
H265 C209 0.930 . S
H266 C212 0.930 . S
H267 C215 0.929 . S
H268 C220 0.929 . S
H269 C221 0.930 . S
H270 C228 0.929 . S
H271 C229 0.930 . S
H272 C230 0.930 . S
H273 C231 0.930 . S
H274 C233 0.929 . S
H275 C234 0.930 . S
H276 C235 0.930 . S
H277 C236 0.930 . S
H278 C240 0.929 . S
H279 C242 0.930 . S
H280 C248 0.929 . S
H281 C249 0.930 . S
C282 C283 1.391 . S
C282 C284 1.394 . S
C282 H298 0.931 . S
C283 C282 1.391 . S
C283 C287 1.376 . S
C284 C282 1.394 . S
C284 C285 1.369 . S
C284 C288 1.531 . S
C285 C284 1.369 . S
C285 C286 1.410 . S
C285 C293 1.503 . S
C286 C285 1.410 . S
C286 C287 1.392 . S
C286 C289 1.511 . S
C287 C283 1.376 . S
C287 C286 1.392 . S
C287 H299 0.929 . S
C288 C284 1.531 . S
C288 H300 0.960 . S
C288 H301 0.962 . S
C288 H302 0.960 . S
C289 C286 1.511 . S
C289 H303 0.961 . S
C289 H304 0.961 . S
C289 H305 0.961 . S
C290 C291 1.370 . S
C290 C292 1.363 . S
C290 H306 0.931 1_545 S
C291 C290 1.370 . S
C291 C295 1.408 . S
C292 C290 1.363 . S
C292 C293 1.370 . S
C292 C296 1.524 1_545 S
C293 C285 1.503 . S
C293 C292 1.370 . S
C293 C294 1.403 . S
C294 C293 1.403 . S
C294 C295 1.404 . S
C294 C297 1.539 . S
C295 C291 1.408 . S
C295 C294 1.404 . S
C295 H307 0.930 . S
C296 C292 1.524 1_565 S
C296 H308 0.956 . S
C296 H309 0.961 . S
C296 H310 0.961 . S
C297 C294 1.539 . S
C297 H311 0.958 . S
C297 H312 0.961 . S
C297 H313 0.960 . S
H298 C282 0.931 . S
H299 C287 0.929 . S
H300 C288 0.960 . S
H301 C288 0.962 . S
H302 C288 0.960 . S
H303 C289 0.961 . S
H304 C289 0.961 . S
H305 C289 0.961 . S
H306 C290 0.931 1_565 S
H307 C295 0.930 . S
H308 C296 0.956 . S
H309 C296 0.961 . S
H310 C296 0.961 . S
H311 C297 0.958 . S
H312 C297 0.961 . S
H313 C297 0.960 . S
C314 C315 1.391 . S
C314 C316 1.394 . S
C314 H330 0.931 . S
C315 C314 1.391 . S
C315 C319 1.376 . S
C316 C314 1.394 . S
C316 C317 1.369 . S
C316 C320 1.531 . S
C317 C316 1.369 . S
C317 C318 1.410 . S
C317 C325 1.503 . S
C318 C317 1.410 . S
C318 C319 1.392 . S
C318 C321 1.511 1_455 S
C319 C315 1.376 . S
C319 C318 1.392 . S
C319 H331 0.929 1_455 S
C320 C316 1.531 . S
C320 H332 0.960 . S
C320 H333 0.962 . S
C320 H334 0.960 . S
C321 C318 1.511 1_655 S
C321 H335 0.961 . S
C321 H336 0.961 . S
C321 H337 0.961 . S
C322 C323 1.370 . S
C322 C324 1.363 . S
C322 H338 0.931 . S
C323 C322 1.370 . S
C323 C327 1.408 . S
C324 C322 1.363 . S
C324 C325 1.370 . S
C324 C328 1.524 . S
C325 C317 1.503 . S
C325 C324 1.370 . S
C325 C326 1.403 . S
C326 C325 1.403 . S
C326 C327 1.404 . S
C326 C329 1.539 . S
C327 C323 1.408 . S
C327 C326 1.404 . S
C327 H339 0.930 . S
C328 C324 1.524 . S
C328 H340 0.956 . S
C328 H341 0.961 . S
C328 H342 0.961 . S
C329 C326 1.539 . S
C329 H343 0.958 . S
C329 H344 0.961 1_455 S
C329 H345 0.960 1_455 S
H330 C314 0.931 . S
H331 C319 0.929 1_655 S
H332 C320 0.960 . S
H333 C320 0.962 . S
H334 C320 0.960 . S
H335 C321 0.961 . S
H336 C321 0.961 . S
H337 C321 0.961 . S
H338 C322 0.931 . S
H339 C327 0.930 . S
H340 C328 0.956 . S
H341 C328 0.961 . S
H342 C328 0.961 . S
H343 C329 0.958 . S
H344 C329 0.961 1_655 S
H345 C329 0.960 1_655 S
C346 C347 1.391 . S
C346 C348 1.394 . S
C346 H362 0.931 1_545 S
C347 C346 1.391 . S
C347 C351 1.376 . S
C348 C346 1.394 . S
C348 C349 1.369 . S
C348 C352 1.531 1_545 S
C349 C348 1.369 . S
C349 C350 1.410 . S
C349 C357 1.503 . S
C350 C349 1.410 . S
C350 C351 1.392 . S
C350 C353 1.511 . S
C351 C347 1.376 . S
C351 C350 1.392 . S
C351 H363 0.929 . S
C352 C348 1.531 1_565 S
C352 H364 0.960 . S
C352 H365 0.962 . S
C352 H366 0.960 . S
C353 C350 1.511 . S
C353 H367 0.961 . S
C353 H368 0.961 . S
C353 H369 0.961 . S
C354 C355 1.370 . S
C354 C356 1.363 . S
C354 H370 0.931 . S
C355 C354 1.370 . S
C355 C359 1.408 . S
C356 C354 1.363 . S
C356 C357 1.370 . S
C356 C360 1.524 . S
C357 C349 1.503 . S
C357 C356 1.370 . S
C357 C358 1.403 . S
C358 C357 1.403 . S
C358 C359 1.404 . S
C358 C361 1.539 . S
C359 C355 1.408 . S
C359 C358 1.404 . S
C359 H371 0.930 . S
C360 C356 1.524 . S
C360 H372 0.956 1_545 S
C360 H373 0.961 . S
C360 H374 0.965 . S
C361 C358 1.539 . S
C361 H375 0.958 . S
C361 H376 0.961 . S
C361 H377 0.960 . S
H362 C346 0.931 1_565 S
H363 C351 0.929 . S
H364 C352 0.960 . S
H365 C352 0.962 . S
H366 C352 0.960 . S
H367 C353 0.961 . S
H368 C353 0.961 . S
H369 C353 0.961 . S
H370 C354 0.931 . S
H371 C359 0.930 . S
H372 C360 0.956 1_565 S
H373 C360 0.961 . S
H374 C360 0.965 . S
H375 C361 0.958 . S
H376 C361 0.961 . S
H377 C361 0.960 . S
C378 C379 1.391 . S
C378 C380 1.394 . S
C378 H394 0.931 . S
C379 C378 1.391 . S
C379 C383 1.376 . S
C380 C378 1.394 . S
C380 C381 1.369 . S
C380 C384 1.531 . S
C381 C380 1.369 . S
C381 C382 1.410 . S
C381 C389 1.503 . S
C382 C381 1.410 . S
C382 C383 1.392 . S
C382 C385 1.511 . S
C383 C379 1.376 . S
C383 C382 1.392 . S
C383 H395 0.929 . S
C384 C380 1.531 . S
C384 H396 0.960 . S
C384 H397 0.962 . S
C384 H398 0.960 . S
C385 C382 1.511 . S
C385 H399 0.961 . S
C385 H400 0.961 . S
C385 H401 0.961 . S
C386 C387 1.370 . S
C386 C388 1.363 . S
C386 H402 0.931 . S
C387 C386 1.370 . S
C387 C391 1.408 . S
C388 C386 1.363 . S
C388 C389 1.370 . S
C388 C392 1.524 . S
C389 C381 1.503 . S
C389 C388 1.370 . S
C389 C390 1.403 . S
C390 C389 1.403 . S
C390 C391 1.404 . S
C390 C393 1.539 1_455 S
C391 C387 1.408 . S
C391 C390 1.404 . S
C391 H403 0.930 1_455 S
C392 C388 1.524 . S
C392 H404 0.956 . S
C392 H405 0.961 . S
C392 H406 0.961 . S
C393 C390 1.539 1_655 S
C393 H407 0.958 . S
C393 H408 0.961 . S
C393 H409 0.960 . S
H394 C378 0.931 . S
H395 C383 0.929 . S
H396 C384 0.960 . S
H397 C384 0.962 . S
H398 C384 0.960 . S
H399 C385 0.961 . S
H400 C385 0.961 . S
H401 C385 0.961 . S
H402 C386 0.931 . S
H403 C391 0.930 1_655 S
H404 C392 0.956 . S
H405 C392 0.961 . S
H406 C392 0.961 . S
H407 C393 0.958 . S
H408 C393 0.961 . S
H409 C393 0.960 . S
C410 C411 1.391 . S
C410 C412 1.394 . S
C410 H426 0.931 . S
C411 C410 1.391 . S
C411 C415 1.376 . S
C412 C410 1.394 . S
C412 C413 1.369 . S
C412 C416 1.531 . S
C413 C412 1.369 . S
C413 C414 1.410 . S
C413 C421 1.503 . S
C414 C413 1.410 . S
C414 C415 1.392 . S
C414 C417 1.511 . S
C415 C411 1.376 . S
C415 C414 1.392 . S
C415 H427 0.929 . S
C416 C412 1.531 . S
C416 H428 0.950 1_545 S
C416 H429 0.962 . S
C416 H430 0.960 1_545 S
C417 C414 1.511 . S
C417 H431 0.961 . S
C417 H432 0.961 . S
C417 H433 0.961 . S
C418 C419 1.370 . S
C418 C420 1.363 . S
C418 H434 0.931 . S
C419 C418 1.370 . S
C419 C423 1.408 . S
C420 C418 1.363 . S
C420 C421 1.370 . S
C420 C424 1.524 . S
C421 C413 1.503 . S
C421 C420 1.370 . S
C421 C422 1.403 . S
C422 C421 1.403 . S
C422 C423 1.404 . S
C422 C425 1.539 1_545 S
C423 C419 1.408 . S
C423 C422 1.404 . S
C423 H435 0.930 1_545 S
C424 C420 1.524 . S
C424 H436 0.956 . S
C424 H437 0.961 . S
C424 H438 0.961 . S
C425 C422 1.539 1_565 S
C425 H439 0.958 . S
C425 H440 0.961 . S
C425 H441 0.960 . S
H426 C410 0.931 . S
H427 C415 0.929 . S
H428 C416 0.950 1_565 S
H429 C416 0.962 . S
H430 C416 0.960 1_565 S
H431 C417 0.961 . S
H432 C417 0.961 . S
H433 C417 0.961 . S
H434 C418 0.931 . S
H435 C423 0.930 1_565 S
H436 C424 0.956 . S
H437 C424 0.961 . S
H438 C424 0.961 . S
H439 C425 0.958 . S
H440 C425 0.961 . S
H441 C425 0.960 . S
C442 C443 1.391 . S
C442 C444 1.394 . S
C442 H458 0.931 1_455 S
C443 C442 1.391 . S
C443 C447 1.376 . S
C444 C442 1.394 . S
C444 C445 1.369 . S
C444 C448 1.531 1_455 S
C445 C444 1.369 . S
C445 C446 1.410 . S
C445 C453 1.503 . S
C446 C445 1.410 . S
C446 C447 1.392 . S
C446 C449 1.511 . S
C447 C443 1.376 . S
C447 C446 1.392 . S
C447 H459 0.929 . S
C448 C444 1.531 1_655 S
C448 H460 0.960 . S
C448 H461 0.962 . S
C448 H462 0.960 . S
C449 C446 1.511 . S
C449 H463 0.961 . S
C449 H464 0.961 . S
C449 H465 0.961 . S
C450 C451 1.370 . S
C450 C452 1.363 . S
C450 H466 0.931 . S
C451 C450 1.370 . S
C451 C455 1.408 . S
C452 C450 1.363 . S
C452 C453 1.370 . S
C452 C456 1.524 . S
C453 C445 1.503 . S
C453 C452 1.370 . S
C453 C454 1.403 . S
C454 C453 1.403 . S
C454 C455 1.404 . S
C454 C457 1.539 . S
C455 C451 1.408 . S
C455 C454 1.404 . S
C455 H467 0.930 . S
C456 C452 1.524 . S
C456 H468 0.956 . S
C456 H469 0.961 . S
C456 H470 0.961 . S
C457 C454 1.539 . S
C457 H471 0.958 1_455 S
C457 H472 0.961 . S
C457 H473 0.960 . S
H458 C442 0.931 1_655 S
H459 C447 0.929 . S
H460 C448 0.960 . S
H461 C448 0.962 . S
H462 C448 0.960 . S
H463 C449 0.961 . S
H464 C449 0.961 . S
H465 C449 0.961 . S
H466 C450 0.931 . S
H467 C455 0.930 . S
H468 C456 0.956 . S
H469 C456 0.961 . S
H470 C456 0.961 . S
H471 C457 0.958 1_655 S
H472 C457 0.961 . S
H473 C457 0.960 . S
C474 C475 1.391 . S
C474 C476 1.394 . S
C474 H490 0.931 . S
C475 C474 1.391 . S
C475 C479 1.376 . S
C476 C474 1.394 . S
C476 C477 1.369 . S
C476 C480 1.531 . S
C477 C476 1.369 . S
C477 C478 1.410 . S
C477 C485 1.503 . S
C478 C477 1.410 . S
C478 C479 1.392 . S
C478 C481 1.511 . S
C479 C475 1.376 . S
C479 C478 1.392 . S
C479 H491 0.929 . S
C480 C476 1.531 . S
C480 H492 0.960 . S
C480 H493 0.962 . S
C480 H494 0.960 . S
C481 C478 1.511 . S
C481 H495 0.961 . S
C481 H496 0.961 . S
C481 H497 0.961 . S
C482 C483 1.370 . S
C482 C484 1.363 . S
C482 H498 0.931 1_545 S
C483 C482 1.370 . S
C483 C487 1.408 . S
C484 C482 1.363 . S
C484 C485 1.370 . S
C484 C488 1.524 1_545 S
C485 C477 1.503 . S
C485 C484 1.370 . S
C485 C486 1.403 . S
C486 C485 1.403 . S
C486 C487 1.404 . S
C486 C489 1.539 . S
C487 C483 1.408 . S
C487 C486 1.404 . S
C487 H499 0.930 . S
C488 C484 1.524 1_565 S
C488 H500 0.956 . S
C488 H501 0.961 . S
C488 H502 0.961 . S
C489 C486 1.539 . S
C489 H503 0.958 . S
C489 H504 0.961 . S
C489 H505 0.960 . S
H490 C474 0.931 . S
H491 C479 0.929 . S
H492 C480 0.960 . S
H493 C480 0.962 . S
H494 C480 0.960 . S
H495 C481 0.961 . S
H496 C481 0.961 . S
H497 C481 0.961 . S
H498 C482 0.931 1_565 S
H499 C487 0.930 . S
H500 C488 0.956 . S
H501 C488 0.961 . S
H502 C488 0.961 . S
H503 C489 0.958 . S
H504 C489 0.961 . S
H505 C489 0.960 . S
C506 C507 1.391 . S
C506 C508 1.394 . S
C506 H522 0.931 . S
C507 C506 1.391 . S
C507 C511 1.376 . S
C508 C506 1.394 . S
C508 C509 1.369 . S
C508 C512 1.531 . S
C509 C508 1.369 . S
C509 C510 1.410 . S
C509 C517 1.503 . S
C510 C509 1.410 . S
C510 C511 1.392 . S
C510 C513 1.511 1_455 S
C511 C507 1.376 . S
C511 C510 1.392 . S
C511 H523 0.929 . S
C512 C508 1.531 . S
C512 H524 0.960 . S
C512 H525 0.962 . S
C512 H526 0.960 . S
C513 C510 1.511 1_655 S
C513 H527 0.961 1_655 S
C513 H528 0.961 1_655 S
C513 H529 0.961 . S
C514 C515 1.370 . S
C514 C516 1.363 . S
C514 H530 0.931 . S
C515 C514 1.370 . S
C515 C519 1.408 . S
C516 C514 1.363 . S
C516 C517 1.370 . S
C516 C520 1.524 . S
C517 C509 1.503 . S
C517 C516 1.370 . S
C517 C518 1.403 . S
C518 C517 1.403 . S
C518 C519 1.404 . S
C518 C521 1.539 1_455 S
C519 C515 1.408 . S
C519 C518 1.404 . S
C519 H531 0.930 1_455 S
C520 C516 1.524 . S
C520 H532 0.956 . S
C520 H533 0.961 . S
C520 H534 0.961 . S
C521 C518 1.539 1_655 S
C521 H535 0.958 . S
C521 H536 0.961 . S
C521 H537 0.960 . S
H522 C506 0.931 . S
H523 C511 0.929 . S
H524 C512 0.960 . S
H525 C512 0.962 . S
H526 C512 0.960 . S
H527 C513 0.961 1_455 S
H528 C513 0.961 1_455 S
H529 C513 0.961 . S
H530 C514 0.931 . S
H531 C519 0.930 1_655 S
H532 C520 0.956 . S
H533 C520 0.961 . S
H534 C520 0.961 . S
H535 C521 0.958 . S
H536 C521 0.961 . S
H537 C521 0.960 . S
C291 C155 1.490 . S
C283 C22 1.487 . S
C323 C243 1.488 . S
C315 C91 1.482 . S
C355 C163 1.489 . S
C347 C38 1.487 . S
C387 C251 1.492 . S
C379 C75 1.488 . S
C419 C223 1.487 . S
C411 C39 1.484 . S
C451 C126 1.491 . S
C443 C82 1.484 . S
C483 C214 1.490 . S
C475 C29 1.488 . S
C507 C92 1.482 . S
C515 C135 1.487 . S
