# Generated by pormake.
# Topology soc, (4,6)-cn, num edge types: 1
# Building blocks:
#     Node 0, Type 0, BuildingBlock: ESEHIV_clean_sbu_0, # of connection points: 4
#     Node 1, Type 0, BuildingBlock: ESEHIV_clean_sbu_0, # of connection points: 4
#     Node 2, Type 0, BuildingBlock: ESEHIV_clean_sbu_0, # of connection points: 4
#     Node 3, Type 0, BuildingBlock: ESEHIV_clean_sbu_0, # of connection points: 4
#     Node 4, Type 0, BuildingBlock: ESEHIV_clean_sbu_0, # of connection points: 4
#     Node 5, Type 0, BuildingBlock: ESEHIV_clean_sbu_0, # of connection points: 4
#     Node 6, Type 0, BuildingBlock: ESEHIV_clean_sbu_0, # of connection points: 4
#     Node 7, Type 0, BuildingBlock: ESEHIV_clean_sbu_0, # of connection points: 4
#     Node 8, Type 0, BuildingBlock: ESEHIV_clean_sbu_0, # of connection points: 4
#     Node 9, Type 0, BuildingBlock: ESEHIV_clean_sbu_0, # of connection points: 4
#     Node 10, Type 0, BuildingBlock: ESEHIV_clean_sbu_0, # of connection points: 4
#     Node 11, Type 0, BuildingBlock: ESEHIV_clean_sbu_0, # of connection points: 4
#     Node 12, Type 1, BuildingBlock: CUKXOW_clean_sbu_0, # of connection points: 6
#     Node 13, Type 1, BuildingBlock: CUKXOW_clean_sbu_0, # of connection points: 6
#     Node 14, Type 1, BuildingBlock: CUKXOW_clean_sbu_0, # of connection points: 6
#     Node 15, Type 1, BuildingBlock: CUKXOW_clean_sbu_0, # of connection points: 6
#     Node 16, Type 1, BuildingBlock: CUKXOW_clean_sbu_0, # of connection points: 6
#     Node 17, Type 1, BuildingBlock: CUKXOW_clean_sbu_0, # of connection points: 6
#     Node 18, Type 1, BuildingBlock: CUKXOW_clean_sbu_0, # of connection points: 6
#     Node 19, Type 1, BuildingBlock: CUKXOW_clean_sbu_0, # of connection points: 6
#     Edge 20, Type (0, 1), None
#     Edge 21, Type (0, 1), None
#     Edge 22, Type (0, 1), None
#     Edge 23, Type (0, 1), None
#     Edge 24, Type (0, 1), None
#     Edge 25, Type (0, 1), None
#     Edge 26, Type (0, 1), None
#     Edge 27, Type (0, 1), None
#     Edge 28, Type (0, 1), None
#     Edge 29, Type (0, 1), None
#     Edge 30, Type (0, 1), None
#     Edge 31, Type (0, 1), None
#     Edge 32, Type (0, 1), None
#     Edge 33, Type (0, 1), None
#     Edge 34, Type (0, 1), None
#     Edge 35, Type (0, 1), None
#     Edge 36, Type (0, 1), None
#     Edge 37, Type (0, 1), None
#     Edge 38, Type (0, 1), None
#     Edge 39, Type (0, 1), None
#     Edge 40, Type (0, 1), None
#     Edge 41, Type (0, 1), None
#     Edge 42, Type (0, 1), None
#     Edge 43, Type (0, 1), None
#     Edge 44, Type (0, 1), None
#     Edge 45, Type (0, 1), None
#     Edge 46, Type (0, 1), None
#     Edge 47, Type (0, 1), None
#     Edge 48, Type (0, 1), None
#     Edge 49, Type (0, 1), None
#     Edge 50, Type (0, 1), None
#     Edge 51, Type (0, 1), None
#     Edge 52, Type (0, 1), None
#     Edge 53, Type (0, 1), None
#     Edge 54, Type (0, 1), None
#     Edge 55, Type (0, 1), None
#     Edge 56, Type (0, 1), None
#     Edge 57, Type (0, 1), None
#     Edge 58, Type (0, 1), None
#     Edge 59, Type (0, 1), None
#     Edge 60, Type (0, 1), None
#     Edge 61, Type (0, 1), None
#     Edge 62, Type (0, 1), None
#     Edge 63, Type (0, 1), None
#     Edge 64, Type (0, 1), None
#     Edge 65, Type (0, 1), None
#     Edge 66, Type (0, 1), None
#     Edge 67, Type (0, 1), None
# Relax obj value: 0.132
# Max RMSD: 0.191
# Mean RMSD: 0.162
data_MOF--net-soc--node1-ESEHIV_clean_sbu_0--node2-CUKXOW_clean_sbu_0--edge1-none
_symmetry_space_group_name_H-M    P1
_symmetry_Int_Tables_number       1
_symmetry_cell_setting            triclinic
loop_
_symmetry_equiv_pos_as_xyz
'x, y, z'
_cell_length_a     19.556784
_cell_length_b     20.381983
_cell_length_c     22.534197
_cell_angle_alpha  101.31982
_cell_angle_beta   97.294717
_cell_angle_gamma 85.315073
loop_
_atom_site_label
_atom_site_type_symbol
_atom_site_fract_x
_atom_site_fract_y
_atom_site_fract_z
_atom_type_partial_charge
Cu0 Cu 0.07924 0.07425 0.30946 0.0
N1 N 0.12414 0.12457 0.26508 0.0
N2 N 0.19243 0.21128 0.2894 0.0
C3 C 0.18477 0.14773 0.29369 0.0
C4 C 0.13613 0.22964 0.25456 0.0
C5 C 0.09535 0.17548 0.23782 0.0
O6 O 0.15885 1.03495 0.35639 0.0
C7 C 0.96431 0.15361 0.29563 0.0
O8 O 0.96467 0.11304 0.24297 0.0
H9 H 0.21802 0.12312 0.32566 0.0
H10 H 1.04477 0.1772 0.21283 0.0
N11 N 1.03034 0.99879 0.27088 0.0
N12 N 0.96491 0.91163 0.26244 0.0
C13 C 1.00304 0.95759 0.30094 0.0
C14 C 1.01015 0.97711 0.21147 0.0
C15 C 0.96898 0.92421 0.2063 0.0
C16 C 0.19396 0.99867 0.31633 0.0
O17 O 0.16845 0.99174 0.25885 0.0
H18 H 1.00966 0.96244 0.35001 0.0
H19 H 1.02219 0.99994 0.17486 0.0
O20 O 1.00906 0.14265 0.33996 0.0
H21 H 0.12225 0.27981 0.24639 0.0
H22 H 0.94267 0.89803 0.16434 0.0
Cu23 Cu 0.09397 0.06187 0.7859 0.0
N24 N 1.01165 1.01507 0.77186 0.0
N25 N 0.9231 0.94798 0.75634 0.0
C26 C 0.97835 0.96536 0.73261 0.0
C27 C 0.92137 0.98773 0.81111 0.0
C28 C 0.97545 1.02786 0.82051 0.0
O29 O 1.04582 0.14712 0.82082 0.0
C30 C 0.18199 0.9494 0.76963 0.0
O31 O 0.1593 0.95664 0.7138 0.0
H32 H 0.99687 0.93933 0.69048 0.0
H33 H 0.98994 0.06229 0.86241 0.0
N34 N 0.14538 0.09989 0.73656 0.0
N35 N 0.21581 0.17392 0.71796 0.0
C36 C 0.19131 0.14749 0.76101 0.0
C37 C 0.14168 0.0954 0.67599 0.0
C38 C 0.18482 0.14079 0.66451 0.0
C39 C 1.00288 0.16427 0.77727 0.0
O40 O 1.00331 0.12824 0.72221 0.0
H41 H 0.20352 0.16471 0.80953 0.0
H42 H 0.10802 0.0635 0.64276 0.0
O43 O 0.16145 0.99323 0.81428 0.0
H44 H 0.88582 0.98514 0.84365 0.0
H45 H 0.19127 0.15009 0.6199 0.0
Cu46 Cu 0.43378 0.0552 0.05319 0.0
N47 N 0.43062 0.97359 -0.00347 0.0
N48 N 0.40675 0.89154 0.91576 0.0
C49 C 0.38035 0.94205 0.95687 0.0
C50 C 0.47571 0.89328 0.92869 0.0
C51 C 0.49001 0.94369 0.9775 0.0
O52 O 0.49584 1.0359 0.12579 0.0
C53 C 0.4035 0.12539 0.95712 0.0
O54 O 0.35229 0.08567 0.94886 0.0
H55 H 0.32648 0.95965 0.95439 0.0
H56 H 0.5407 0.96133 -0.00501 0.0
N57 N 0.35883 0.08847 0.09615 0.0
N58 N 0.35782 0.163 0.18441 0.0
C59 C 0.36159 0.15364 0.12375 0.0
C60 C 0.34449 0.0574 0.14044 0.0
C61 C 0.34586 0.10262 0.19511 0.0
C62 C 0.50297 0.97639 0.13784 0.0
O63 O 0.52475 0.92706 0.09673 0.0
H64 H 0.37716 0.1919 0.10182 0.0
H65 H 0.34209 1.00375 0.13516 0.0
O66 O 0.44897 0.12371 0.00353 0.0
H67 H 0.51311 0.86493 0.90059 0.0
H68 H 0.33762 0.09211 0.23887 0.0
Cu69 Cu 0.09908 0.3976 0.00899 0.0
N70 N 0.15719 0.44038 0.97012 0.0
N71 N 0.22825 0.4174 0.89641 0.0
C72 C 0.21311 0.40378 0.9495 0.0
C73 C 0.18191 0.46718 0.88422 0.0
C74 C 0.13777 0.48071 0.92934 0.0
O75 O 0.15882 0.33899 0.05047 0.0
C76 C 0.99076 0.38829 0.92374 0.0
O77 O 0.97603 0.44827 0.95461 0.0
H78 H 0.23527 0.36052 0.96789 0.0
H79 H 0.08953 0.51064 0.9274 0.0
N80 N 1.04276 0.44334 0.06785 0.0
N81 N 0.97566 0.43712 0.14014 0.0
C82 C 0.99016 0.4127 0.08279 0.0
C83 C 1.05974 0.49114 0.11672 0.0
C84 C 1.01774 0.48801 0.16108 0.0
C85 C 0.13733 0.31104 0.08932 0.0
O86 O 0.07395 0.29188 0.08151 0.0
H87 H 0.96891 0.3679 0.05485 0.0
H88 H 0.10447 0.52066 0.12256 0.0
O89 O 1.04139 0.35225 0.9428 0.0
H90 H 0.17562 0.48726 0.84266 0.0
H91 H 1.02272 0.51647 0.20715 0.0
Cu92 Cu 0.70412 0.11986 0.04782 0.0
N93 N 0.70309 0.18359 0.00051 0.0
N94 N 0.72541 0.25348 0.94365 0.0
C95 C 0.75289 0.20998 0.9789 0.0
C96 C 0.65648 0.25508 0.94286 0.0
C97 C 0.64286 0.21185 0.9787 0.0
O98 O 0.68521 0.18106 0.12563 0.0
C99 C 0.71199 1.03174 0.94229 0.0
O100 O 0.7684 0.06475 0.9522 0.0
H101 H 0.80736 0.19544 0.98663 0.0
H102 H 0.59245 0.20001 0.98712 0.0
N103 N 0.78171 0.07167 0.07744 0.0
N104 N 0.79647 0.99335 0.13528 0.0
C105 C 0.76827 1.00899 0.08223 0.0
C106 C 0.82472 0.0936 0.12802 0.0
C107 C 0.83302 0.04561 0.16407 0.0
C108 C 0.72679 0.22943 0.14166 0.0
O109 O 0.77095 0.23687 0.10481 0.0
H110 H 0.72922 0.97983 0.05273 0.0
H111 H 0.84197 0.14377 0.14207 0.0
O112 O 0.66737 0.04676 0.98129 0.0
H113 H 0.61904 0.28343 0.91663 0.0
H114 H 0.85915 0.05051 0.2098 0.0
Cu115 Cu 0.07481 0.7345 0.04094 0.0
N116 N 0.99777 0.74635 0.9807 0.0
N117 N 0.91596 0.75872 0.90245 0.0
C118 C 0.95476 0.7908 0.95318 0.0
C119 C 0.93435 0.69321 0.89936 0.0
C120 C 0.98268 0.68606 0.94703 0.0
O121 O 1.0296 0.68671 0.09204 0.0
C122 C 0.15044 0.74767 0.96003 0.0
O123 O 0.11466 0.80445 0.97526 0.0
H124 H 0.9561 0.84471 0.96663 0.0
H125 H 1.00842 0.63917 0.95541 0.0
N126 N 0.13114 0.7973 0.09762 0.0
N127 N 0.22594 0.82309 0.16473 0.0
C128 C 0.18321 0.77476 0.13576 0.0
C129 C 0.14141 0.86302 0.10299 0.0
C130 C 0.19974 0.8789 0.14408 0.0
C131 C 0.98705 0.73354 0.11364 0.0
O132 O 0.99256 0.79353 0.10218 0.0
H133 H 0.19018 0.72298 0.14138 0.0
H134 H 0.11038 0.89667 0.07738 0.0
O135 O 0.14223 0.69811 0.98518 0.0
H136 H 0.91506 0.65276 0.86394 0.0
H137 H 0.22095 0.92773 0.15771 0.0
Cu138 Cu 0.59759 0.56508 0.80414 0.0
N139 N 0.61502 0.61434 0.74522 0.0
N140 N 0.65383 0.71183 0.73395 0.0
C141 C 0.66933 0.65436 0.75549 0.0
C142 C 0.58821 0.70729 0.70794 0.0
C143 C 0.56474 0.64708 0.7139 0.0
O144 O 0.6891 0.53167 0.83584 0.0
C145 C 0.46941 0.62898 0.83618 0.0
O146 O 0.44458 0.56957 0.82066 0.0
H147 H 0.71442 0.64723 0.78734 0.0
H148 H 0.51168 0.63332 0.70455 0.0
N149 N 0.55103 0.48436 0.78172 0.0
N150 N 0.49545 0.39436 0.78967 0.0
C151 C 0.52742 0.44956 0.8202 0.0
C152 C 0.53686 0.44791 0.72572 0.0
C153 C 0.50308 0.39269 0.73045 0.0
C154 C 0.72579 0.50459 0.79313 0.0
O155 O 0.70244 0.50829 0.73662 0.0
H156 H 0.53051 0.46641 0.86906 0.0
H157 H 0.54951 0.461 0.68431 0.0
O158 O 0.53492 0.6343 0.84639 0.0
H159 H 0.55783 0.74748 0.69111 0.0
H160 H 0.48387 0.35489 0.69253 0.0
Cu161 Cu 0.5859 0.57994 0.27322 0.0
N162 N 0.52601 0.51155 0.27535 0.0
N163 N 0.44099 0.44426 0.27612 0.0
C164 C 0.46412 0.48995 0.24772 0.0
C165 C 0.48876 0.43722 0.32281 0.0
C166 C 0.53979 0.47896 0.32281 0.0
O167 O 0.53434 0.66641 0.30188 0.0
C168 C 0.68318 0.48301 0.27484 0.0
O169 O 0.64605 0.46963 0.2216 0.0
H170 H 0.43558 0.50897 0.20962 0.0
H171 H 0.58288 0.48745 0.35789 0.0
N172 N 0.63107 0.59793 0.20957 0.0
N173 N 0.70866 0.65469 0.17796 0.0
C174 C 0.68581 0.63661 0.22589 0.0
C175 C 0.62008 0.58892 0.14839 0.0
C176 C 0.66767 0.62465 0.12881 0.0
C177 C 0.50804 0.70251 0.26267 0.0
O178 O 0.51992 0.68454 0.2057 0.0
H179 H 0.70465 0.65573 0.27294 0.0
H180 H 0.57803 0.5624 0.1206 0.0
O181 O 0.66827 0.53701 0.3125 0.0
H182 H 0.48525 0.40695 0.35652 0.0
H183 H 0.66936 0.63104 0.08244 0.0
Cu184 Cu 0.95944 0.52196 0.50477 0.0
N185 N 1.00534 0.56433 0.45736 0.0
N186 N 0.9874 0.62088 0.38141 0.0
C187 C 0.97675 0.62028 0.4391 0.0
C188 C 1.02697 0.56526 0.36328 0.0
C189 C 1.03867 0.53071 0.41067 0.0
O190 O 0.9014 0.58516 0.55625 0.0
C191 C 0.93915 0.40397 0.42346 0.0
O192 O 1.00359 0.39165 0.44459 0.0
H193 H 0.93878 0.6532 0.46319 0.0
H194 H 1.06145 0.48029 0.40768 0.0
N195 N 1.01637 0.47599 0.55609 0.0
N196 N 1.00951 0.43026 0.636 0.0
C197 C 0.98553 0.43107 0.57798 0.0
C198 C 1.06583 0.50049 0.60028 0.0
C199 C 1.06094 0.47273 0.65059 0.0
C200 C 0.93244 0.62759 0.59784 0.0
O201 O 0.99905 0.63236 0.59906 0.0
H202 H 0.93738 0.41019 0.55622 0.0
H203 H 0.096 0.54235 0.59939 0.0
O204 O 0.90631 0.45723 0.44693 0.0
H205 H 1.04174 0.54831 0.31785 0.0
H206 H 0.08801 0.48749 0.6957 0.0
Cu207 Cu 0.59285 0.89104 0.51807 0.0
N208 N 0.64676 0.87735 0.44994 0.0
N209 N 0.70903 0.85569 0.36918 0.0
C210 C 0.69093 0.8325 0.41782 0.0
C211 C 0.67571 0.91626 0.3713 0.0
C212 C 0.6395 0.92951 0.4205 0.0
O213 O 0.64702 0.9297 0.59484 0.0
C214 C 0.48272 0.90019 0.43915 0.0
O215 O 0.50315 0.83655 0.43301 0.0
H216 H 0.70844 0.7842 0.42909 0.0
H217 H 0.609 0.97537 0.43405 0.0
N218 N 0.5497 0.82462 0.54614 0.0
N219 N 0.47762 0.7938 0.60469 0.0
C220 C 0.51114 0.84426 0.59302 0.0
C221 C 0.54083 0.75849 0.52775 0.0
C222 C 0.49597 0.73943 0.56372 0.0
C223 C 0.70619 0.89943 0.60275 0.0
O224 O 0.73291 0.86631 0.55428 0.0
H225 H 0.50692 0.89549 0.61754 0.0
H226 H 0.56349 0.72689 0.48996 0.0
O227 O 0.51321 0.94161 0.48263 0.0
H228 H 0.67868 0.94996 0.34013 0.0
H229 H 0.47857 0.68956 0.56015 0.0
Cu230 Cu 0.24968 0.57763 0.53824 0.0
N231 N 0.24019 0.6493 0.49692 0.0
N232 N 0.24869 0.72661 0.44151 0.0
C233 C 0.28337 0.67925 0.47001 0.0
C234 C 0.18222 0.72707 0.45118 0.0
C235 C 0.1773 0.6797 0.48577 0.0
O236 O 0.21929 0.61603 0.61948 0.0
C237 C 0.21406 0.49654 0.42061 0.0
O238 O 0.20407 0.55209 0.39887 0.0
H239 H 0.33788 0.66497 0.46926 0.0
H240 H 0.13053 0.66643 0.5004 0.0
N241 N 0.3348 0.53994 0.56521 0.0
N242 N 0.35361 0.47467 0.6356 0.0
C243 C 0.32607 0.4796 0.57887 0.0
C244 C 0.37655 0.57068 0.61313 0.0
C245 C 0.38769 0.53081 0.65687 0.0
C246 C 0.245 0.67246 0.64433 0.0
O247 O 0.27623 0.70417 0.61127 0.0
H248 H 0.28833 0.44585 0.55332 0.0
H249 H 0.38832 0.62261 0.62047 0.0
O250 O 0.21596 0.49907 0.47814 0.0
H251 H 0.14018 0.75838 0.43347 0.0
H252 H 0.41287 0.54503 0.70265 0.0
Cu253 Cu 0.61277 0.23318 0.57933 0.0
N254 N 0.6621 0.19196 0.51762 0.0
N255 N 0.71254 0.20167 0.43807 0.0
C256 C 0.69443 0.23238 0.4921 0.0
C257 C 0.69329 0.13805 0.4295 0.0
C258 C 0.66113 0.13221 0.47942 0.0
O259 O 0.68332 0.2757 0.6435 0.0
C260 C 0.50845 0.26295 0.48905 0.0
O261 O 0.5174 0.1978 0.47203 0.0
H262 H 0.69834 0.28541 0.51043 0.0
H263 H 0.63385 0.09011 0.48484 0.0
N264 N 0.56487 0.17477 0.61069 0.0
N265 N 0.48031 0.16813 0.6668 0.0
C266 C 0.49868 0.19106 0.6192 0.0
C267 C 0.58847 0.13553 0.65145 0.0
C268 C 0.53582 0.1306 0.68585 0.0
C269 C 0.74007 0.24141 0.65414 0.0
O270 O 0.74759 0.1798 0.62396 0.0
H271 H 0.469 0.22956 0.59845 0.0
H272 H 0.64221 0.12016 0.66172 0.0
O273 O 0.5436 0.29198 0.53788 0.0
H274 H 0.69754 0.10049 0.38865 0.0
H275 H 0.54178 0.11035 0.72733 0.0
Tb276 Tb 0.3558 0.31182 0.35832 0.0
C277 C 0.35403 0.22287 0.22367 0.0
Tb278 Tb 0.26241 0.35802 0.24679 0.0
O279 O 0.29618 0.22466 0.3535 0.0
O280 O 0.25222 0.30879 0.31882 0.0
O281 O 0.37602 0.22728 0.28288 0.0
C282 C 0.17182 0.32758 0.15037 0.0
O283 O 0.32102 0.27292 0.20112 0.0
C284 C 0.38035 0.41389 0.26372 0.0
C285 C 0.24253 0.43672 0.38052 0.0
O286 O 0.21004 0.28449 0.1766 0.0
O287 O 0.18382 0.38864 0.17865 0.0
O288 O 0.3308 0.42687 0.2226 0.0
O289 O 0.36098 0.37266 0.2927 0.0
O290 O 0.21661 0.42527 0.32178 0.0
O291 O 0.29828 0.40264 0.40293 0.0
C292 C 0.45783 0.29866 0.44993 0.0
O293 O 0.39164 0.30261 0.45351 0.0
O294 O 0.46574 0.30081 0.39375 0.0
C295 C 0.24383 0.24878 0.32099 0.0
Tb296 Tb 0.78359 0.29564 0.32193 0.0
C297 C 0.923 0.21676 0.2957 0.0
Tb298 Tb 0.87441 0.34788 0.2462 0.0
O299 O 0.70116 0.27287 0.2465 0.0
O300 O 0.80436 0.26962 0.22985 0.0
O301 O 0.87968 0.23561 0.33689 0.0
C302 C 0.93754 0.40851 0.17397 0.0
O303 O 0.92258 0.24754 0.24858 0.0
C304 C 0.91537 0.3698 0.36264 0.0
C305 C 0.73851 0.43316 0.28671 0.0
O306 O 0.90674 0.35238 0.1561 0.0
O307 O 0.93295 0.42972 0.23136 0.0
O308 O 0.9568 0.35697 0.32082 0.0
O309 O 0.85389 0.37322 0.33837 0.0
O310 O 0.78145 0.4154 0.24437 0.0
O311 O 0.73279 0.39567 0.32754 0.0
C312 C 0.7367 0.23315 0.3986 0.0
O313 O 0.74784 0.29666 0.40954 0.0
O314 O 0.74978 0.20499 0.34449 0.0
C315 C 0.74263 0.26499 0.20485 0.0
Tb316 Tb 0.80045 0.82231 0.19394 0.0
C317 C 0.75193 0.8288 0.32577 0.0
Tb318 Tb 0.88369 0.74409 0.27929 0.0
O319 O 0.74618 0.7399 0.13774 0.0
O320 O 0.7805 0.73748 0.23057 0.0
O321 O 0.75 0.85768 0.27727 0.0
C322 C 0.95347 0.66244 0.34628 0.0
O323 O 0.79426 0.77544 0.33163 0.0
C324 C 0.92987 0.86155 0.27476 0.0
C325 C 0.92739 0.72725 0.14565 0.0
O326 O 0.92286 0.71925 0.36758 0.0
O327 O 0.94319 0.64943 0.28718 0.0
O328 O 0.93833 0.8372 0.32425 0.0
O329 O 0.90132 0.8194 0.23405 0.0
O330 O 0.93527 0.70149 0.1963 0.0
O331 O 0.87867 0.77477 0.13703 0.0
C332 C 0.78689 0.93827 0.15756 0.0
O333 O 0.75985 0.88385 0.12598 0.0
O334 O 0.81432 0.92891 0.21062 0.0
C335 C 0.75288 0.70391 0.18037 0.0
Tb336 Tb 0.40137 0.91246 0.26836 0.0
C337 C 0.45824 0.7602 0.27735 0.0
Tb338 Tb 0.32224 0.82495 0.32854 0.0
O339 O 0.44915 0.96541 0.35861 0.0
O340 O 0.41549 0.87169 0.34651 0.0
O341 O 0.45789 0.81254 0.24966 0.0
C342 C 0.27377 0.76296 0.40599 0.0
O343 O 0.41215 0.75603 0.31418 0.0
C344 C 0.27825 0.81753 0.21071 0.0
C345 C 0.26517 0.97105 0.32786 0.0
O346 O 0.23618 0.79917 0.3714 0.0
O347 O 0.33807 0.76239 0.3982 0.0
O348 O 0.28077 0.76849 0.24029 0.0
O349 O 0.30184 0.86818 0.2475 0.0
O350 O 0.27671 0.92512 0.36285 0.0
O351 O 0.30371 0.97066 0.28278 0.0
C352 C 0.46608 0.95664 0.18517 0.0
O353 O 0.4501 0.99268 0.23652 0.0
O354 O 0.44367 0.89739 0.18056 0.0
C355 C 0.43745 0.91849 0.38711 0.0
Tb356 Tb 0.27266 0.7563 0.82734 0.0
C357 C 0.42166 0.68591 0.82401 0.0
Tb358 Tb 0.36559 0.80095 0.74595 0.0
O359 O 0.23466 0.67321 0.75356 0.0
O360 O 0.26853 0.75864 0.7335 0.0
O361 O 0.36673 0.69885 0.85414 0.0
C362 C 0.43658 0.79727 0.65021 0.0
O363 O 0.42914 0.71604 0.77783 0.0
C364 C 0.37636 0.86771 0.85912 0.0
C365 C 0.23045 0.89073 0.77707 0.0
O366 O 0.42696 0.84949 0.69253 0.0
O367 O 0.40644 0.74735 0.66139 0.0
O368 O 0.39324 0.88986 0.81277 0.0
O369 O 0.36658 0.80604 0.84119 0.0
O370 O 0.27348 0.86904 0.73479 0.0
O371 O 0.22453 0.85686 0.82072 0.0
C372 C 0.1978 0.74732 0.91541 0.0
O373 O 0.21165 0.80202 0.89959 0.0
O374 O 0.2253 0.69611 0.88107 0.0
C375 C 0.24922 0.70104 0.7102 0.0
Tb376 Tb 0.3267 0.33045 0.72779 0.0
C377 C 0.27172 0.37899 0.8585 0.0
Tb378 Tb 0.38263 0.25625 0.83194 0.0
O379 O 0.26012 0.25571 0.67732 0.0
O380 O 0.28458 0.26213 0.77355 0.0
O381 O 0.27335 0.39127 0.80268 0.0
C382 C 0.40331 0.16991 0.91163 0.0
O383 O 0.30724 0.32705 0.87748 0.0
C384 C 0.45734 0.35106 0.80976 0.0
C385 C 0.43069 0.20029 0.7009 0.0
O386 O 0.43579 0.22429 0.91657 0.0
O387 O 0.36133 0.16414 0.86155 0.0
O388 O 0.45669 0.33986 0.86464 0.0
O389 O 0.42097 0.30989 0.77471 0.0
O390 O 0.42729 0.18723 0.75625 0.0
O391 O 0.3991 0.25518 0.68365 0.0
C392 C 0.33968 0.42812 0.66753 0.0
O393 O 0.30622 0.37437 0.64493 0.0
O394 O 0.36032 0.42962 0.72465 0.0
C395 C 0.25735 0.22648 0.72353 0.0
Tb396 Tb 0.90654 0.36024 0.74917 0.0
C397 C 0.95447 0.22371 0.78316 0.0
Tb398 Tb 0.82622 0.31072 0.82492 0.0
O399 O 0.99657 0.35425 0.81628 0.0
O400 O 0.89923 0.38328 0.84391 0.0
O401 O 0.94245 0.25523 0.73664 0.0
C402 C 0.75986 0.28069 0.90803 0.0
O403 O 0.91916 0.24233 0.83038 0.0
C404 C 0.78953 0.26168 0.70874 0.0
C405 C 0.78257 0.45441 0.80093 0.0
O406 O 0.82627 0.27403 0.90853 0.0
O407 O 0.73042 0.30549 0.86196 0.0
O408 O 0.79497 0.22825 0.75226 0.0
O409 O 0.80548 0.32107 0.73078 0.0
O410 O 0.77659 0.41143 0.83664 0.0
O411 O 0.82802 0.44325 0.76035 0.0
C412 C 0.97556 0.40554 0.67425 0.0
O413 O 0.92811 0.36253 0.65708 0.0
O414 O 0.98115 0.42633 0.73244 0.0
C415 C 0.96102 0.3711 0.86177 0.0
Tb416 Tb 0.83521 0.77448 0.71563 0.0
C417 C 0.87473 0.78241 0.85641 0.0
Tb418 Tb 0.75528 0.87795 0.80096 0.0
O419 O 0.89111 0.85096 0.68776 0.0
O420 O 0.85555 0.86785 0.77268 0.0
O421 O 0.87063 0.74315 0.80158 0.0
C422 C 0.70785 0.97828 0.8872 0.0
O423 O 0.83932 0.84179 0.86608 0.0
C424 C 0.68947 0.7688 0.74832 0.0
C425 C 0.73077 0.87602 0.66031 0.0
O426 O 0.70762 0.91439 0.88703 0.0
O427 O 0.73636 0.9842 0.83952 0.0
O428 O 0.65995 0.82846 0.75982 0.0
O429 O 0.75244 0.77129 0.76842 0.0
O430 O 0.73249 0.91606 0.7147 0.0
O431 O 0.75526 0.81291 0.6538 0.0
C432 C 0.89589 0.67378 0.64319 0.0
O433 O 0.82942 0.68601 0.64168 0.0
O434 O 0.9271 0.71535 0.68735 0.0
C435 C 0.88359 0.89457 0.73673 0.0
loop_
_geom_bond_atom_site_label_1
_geom_bond_atom_site_label_2
_geom_bond_distance
_geom_bond_site_symmetry_2
_ccdc_geom_bond_type
Cu0 N1 1.999 . S
Cu0 O6 1.974 1_545 S
Cu0 N11 1.985 1_445 S
Cu0 O20 1.959 1_455 S
N1 Cu0 1.999 . S
N1 C3 1.263 . S
N1 C5 1.389 . S
N2 C3 1.358 . S
N2 C4 1.400 . S
C3 N1 1.263 . S
C3 N2 1.358 . S
C3 H9 0.930 . S
C4 N2 1.400 . S
C4 C5 1.351 . S
C4 H21 0.930 . S
C5 N1 1.389 . S
C5 C4 1.351 . S
C5 H10 0.930 . S
O6 Cu0 1.974 1_565 S
O6 C16 1.282 . S
C7 O8 1.261 . S
C7 O20 1.251 . S
O8 C7 1.261 . S
H9 C3 0.930 . S
H10 C5 0.930 . S
N11 Cu0 1.985 1_665 S
N11 C13 1.335 . S
N11 C14 1.390 . S
N12 C13 1.345 . S
N12 C15 1.336 . S
C13 N11 1.335 . S
C13 N12 1.345 . S
C13 H18 0.924 1_565 S
C14 N11 1.390 . S
C14 C15 1.346 . S
C14 H19 0.930 1_655 S
C15 N12 1.336 . S
C15 C14 1.346 . S
C15 H22 0.929 . S
C16 O6 1.282 . S
C16 O17 1.216 . S
O17 C16 1.216 . S
H18 C13 0.924 1_545 S
H19 C14 0.930 1_455 S
O20 Cu0 1.959 1_655 S
O20 C7 1.251 . S
H21 C4 0.930 . S
H22 C15 0.929 . S
Cu23 N24 1.999 1_445 S
Cu23 O29 1.974 1_455 S
Cu23 N34 1.985 . S
Cu23 O43 1.959 1_545 S
N24 Cu23 1.999 1_665 S
N24 C26 1.263 . S
N24 C28 1.389 . S
N25 C26 1.358 . S
N25 C27 1.400 . S
C26 N24 1.263 . S
C26 N25 1.358 . S
C26 H32 0.930 . S
C27 N25 1.400 . S
C27 C28 1.351 . S
C27 H44 0.930 . S
C28 N24 1.389 . S
C28 C27 1.351 . S
C28 H33 0.930 1_655 S
O29 Cu23 1.974 1_655 S
O29 C39 1.282 . S
C30 O31 1.261 . S
C30 O43 1.251 . S
O31 C30 1.261 . S
H32 C26 0.930 . S
H33 C28 0.930 1_455 S
N34 Cu23 1.985 . S
N34 C36 1.335 . S
N34 C37 1.390 . S
N35 C36 1.345 . S
N35 C38 1.336 . S
C36 N34 1.335 . S
C36 N35 1.345 . S
C36 H41 0.930 . S
C37 N34 1.390 . S
C37 C38 1.346 . S
C37 H42 0.930 . S
C38 N35 1.336 . S
C38 C37 1.346 . S
C38 H45 0.929 . S
C39 O29 1.282 . S
C39 O40 1.216 . S
O40 C39 1.216 . S
H41 C36 0.930 . S
H42 C37 0.930 . S
O43 Cu23 1.959 1_565 S
O43 C30 1.251 . S
H44 C27 0.930 . S
H45 C38 0.929 . S
Cu46 N47 2.002 1_554 S
Cu46 O52 1.977 . S
Cu46 N57 1.982 1_565 S
Cu46 O66 1.956 1_564 S
N47 Cu46 2.002 1_556 S
N47 C49 1.263 . S
N47 C51 1.389 . S
N48 C49 1.358 . S
N48 C50 1.400 . S
C49 N47 1.263 . S
C49 N48 1.358 . S
C49 H55 0.930 . S
C50 N48 1.400 . S
C50 C51 1.351 . S
C50 H67 0.930 . S
C51 N47 1.389 . S
C51 C50 1.351 . S
C51 H56 0.930 . S
O52 Cu46 1.977 . S
O52 C62 1.282 . S
C53 O54 1.261 . S
C53 O66 1.251 . S
O54 C53 1.261 . S
H55 C49 0.930 . S
H56 C51 0.930 . S
N57 Cu46 1.982 1_545 S
N57 C59 1.335 . S
N57 C60 1.390 . S
N58 C59 1.345 . S
N58 C61 1.336 . S
C59 N57 1.335 . S
C59 N58 1.345 . S
C59 H64 0.930 . S
C60 N57 1.390 . S
C60 C61 1.346 . S
C60 H65 0.930 . S
C61 N58 1.336 . S
C61 C60 1.346 . S
C61 H68 0.929 . S
C62 O52 1.282 . S
C62 O63 1.216 . S
O63 C62 1.216 . S
H64 C59 0.930 . S
H65 C60 0.930 . S
O66 Cu46 1.956 1_546 S
O66 C53 1.251 . S
H67 C50 0.930 . S
H68 C61 0.929 . S
Cu69 N70 1.986 1_654 S
Cu69 O75 1.960 1_655 S
Cu69 N80 1.998 . S
Cu69 O89 1.973 1_554 S
N70 Cu69 1.986 1_456 S
N70 C72 1.263 . S
N70 C74 1.389 . S
N71 C72 1.358 . S
N71 C73 1.400 . S
C72 N70 1.263 . S
C72 N71 1.358 . S
C72 H78 0.930 . S
C73 N71 1.400 . S
C73 C74 1.351 . S
C73 H90 0.930 . S
C74 N70 1.389 . S
C74 C73 1.351 . S
C74 H79 0.930 . S
O75 Cu69 1.960 1_455 S
O75 C85 1.282 . S
C76 O77 1.261 . S
C76 O89 1.251 . S
O77 C76 1.261 . S
H78 C72 0.930 . S
H79 C74 0.930 . S
N80 Cu69 1.998 . S
N80 C82 1.335 . S
N80 C83 1.390 . S
N81 C82 1.345 . S
N81 C84 1.336 . S
C82 N80 1.335 . S
C82 N81 1.345 . S
C82 H87 0.930 . S
C83 N80 1.390 . S
C83 C84 1.346 . S
C83 H88 0.914 1_655 S
C84 N81 1.336 . S
C84 C83 1.346 . S
C84 H91 0.929 . S
C85 O75 1.282 . S
C85 O86 1.216 . S
O86 C85 1.216 . S
H87 C82 0.930 . S
H88 C83 0.914 1_455 S
O89 Cu69 1.973 1_556 S
O89 C76 1.251 . S
H90 C73 0.930 . S
H91 C84 0.929 . S
Cu92 N93 1.999 1_554 S
Cu92 O98 1.974 . S
Cu92 N103 1.985 . S
Cu92 O112 1.959 1_544 S
N93 Cu92 1.999 1_556 S
N93 C95 1.263 . S
N93 C97 1.389 . S
N94 C95 1.358 . S
N94 C96 1.400 . S
C95 N93 1.263 . S
C95 N94 1.358 . S
C95 H101 0.930 1_556 S
C96 N94 1.400 . S
C96 C97 1.351 . S
C96 H113 0.930 . S
C97 N93 1.389 . S
C97 C96 1.351 . S
C97 H102 0.930 . S
O98 Cu92 1.974 . S
O98 C108 1.282 . S
C99 O100 1.261 . S
C99 O112 1.251 . S
O100 C99 1.261 . S
H101 C95 0.930 1_554 S
H102 C97 0.930 . S
N103 Cu92 1.985 . S
N103 C105 1.335 1_545 S
N103 C106 1.390 . S
N104 C105 1.345 . S
N104 C107 1.336 . S
C105 N103 1.335 1_565 S
C105 N104 1.345 . S
C105 H110 0.930 . S
C106 N103 1.390 . S
C106 C107 1.346 1_545 S
C106 H111 0.930 . S
C107 N104 1.336 . S
C107 C106 1.346 1_565 S
C107 H114 0.929 . S
C108 O98 1.282 . S
C108 O109 1.216 . S
O109 C108 1.216 . S
H110 C105 0.930 . S
H111 C106 0.930 . S
O112 Cu92 1.959 1_566 S
O112 C99 1.251 . S
H113 C96 0.930 . S
H114 C107 0.929 . S
Cu115 N116 1.999 1_454 S
Cu115 O121 1.974 1_455 S
Cu115 N126 1.985 . S
Cu115 O135 1.959 1_554 S
N116 Cu115 1.999 1_656 S
N116 C118 1.263 . S
N116 C120 1.389 . S
N117 C118 1.358 . S
N117 C119 1.400 . S
C118 N116 1.263 . S
C118 N117 1.358 . S
C118 H124 0.930 . S
C119 N117 1.400 . S
C119 C120 1.351 . S
C119 H136 0.930 . S
C120 N116 1.389 . S
C120 C119 1.351 . S
C120 H125 0.930 1_655 S
O121 Cu115 1.974 1_655 S
O121 C131 1.282 . S
C122 O123 1.261 . S
C122 O135 1.251 . S
O123 C122 1.261 . S
H124 C118 0.930 . S
H125 C120 0.930 1_455 S
N126 Cu115 1.985 . S
N126 C128 1.335 . S
N126 C129 1.390 . S
N127 C128 1.345 . S
N127 C130 1.336 . S
C128 N126 1.335 . S
C128 N127 1.345 . S
C128 H133 0.930 . S
C129 N126 1.390 . S
C129 C130 1.346 . S
C129 H134 0.930 . S
C130 N127 1.336 . S
C130 C129 1.346 . S
C130 H137 0.929 . S
C131 O121 1.282 . S
C131 O132 1.216 . S
O132 C131 1.216 . S
H133 C128 0.930 . S
H134 C129 0.930 . S
O135 Cu115 1.959 1_556 S
O135 C122 1.251 . S
H136 C119 0.930 . S
H137 C130 0.929 . S
Cu138 N139 1.999 . S
Cu138 O144 1.974 . S
Cu138 N149 1.985 . S
Cu138 O158 1.959 . S
N139 Cu138 1.999 . S
N139 C141 1.263 . S
N139 C143 1.389 . S
N140 C141 1.358 . S
N140 C142 1.400 . S
C141 N139 1.263 . S
C141 N140 1.358 . S
C141 H147 0.930 . S
C142 N140 1.400 . S
C142 C143 1.351 . S
C142 H159 0.930 . S
C143 N139 1.389 . S
C143 C142 1.351 . S
C143 H148 0.930 . S
O144 Cu138 1.974 . S
O144 C154 1.282 . S
C145 O146 1.261 . S
C145 O158 1.251 . S
O146 C145 1.261 . S
H147 C141 0.930 . S
H148 C143 0.930 . S
N149 Cu138 1.985 . S
N149 C151 1.335 . S
N149 C152 1.390 . S
N150 C151 1.345 . S
N150 C153 1.336 . S
C151 N149 1.335 . S
C151 N150 1.345 . S
C151 H156 0.930 . S
C152 N149 1.390 . S
C152 C153 1.346 . S
C152 H157 0.930 . S
C153 N150 1.336 . S
C153 C152 1.346 . S
C153 H160 0.929 . S
C154 O144 1.282 . S
C154 O155 1.216 . S
O155 C154 1.216 . S
H156 C151 0.930 . S
H157 C152 0.930 . S
O158 Cu138 1.959 . S
O158 C145 1.251 . S
H159 C142 0.930 . S
H160 C153 0.929 . S
Cu161 N162 1.999 . S
Cu161 O167 1.974 . S
Cu161 N172 1.985 . S
Cu161 O181 1.959 . S
N162 Cu161 1.999 . S
N162 C164 1.263 . S
N162 C166 1.389 . S
N163 C164 1.358 . S
N163 C165 1.400 . S
C164 N162 1.263 . S
C164 N163 1.358 . S
C164 H170 0.930 . S
C165 N163 1.400 . S
C165 C166 1.351 . S
C165 H182 0.930 . S
C166 N162 1.389 . S
C166 C165 1.351 . S
C166 H171 0.930 . S
O167 Cu161 1.974 . S
O167 C177 1.282 . S
C168 O169 1.261 . S
C168 O181 1.251 . S
O169 C168 1.261 . S
H170 C164 0.930 . S
H171 C166 0.930 . S
N172 Cu161 1.985 . S
N172 C174 1.335 . S
N172 C175 1.390 . S
N173 C174 1.345 . S
N173 C176 1.336 . S
C174 N172 1.335 . S
C174 N173 1.345 . S
C174 H179 0.930 . S
C175 N172 1.390 . S
C175 C176 1.346 . S
C175 H180 0.930 . S
C176 N173 1.336 . S
C176 C175 1.346 . S
C176 H183 0.929 . S
C177 O167 1.282 . S
C177 O178 1.216 . S
O178 C177 1.216 . S
H179 C174 0.930 . S
H180 C175 0.930 . S
O181 Cu161 1.959 . S
O181 C168 1.251 . S
H182 C165 0.930 . S
H183 C176 0.929 . S
Cu184 N185 1.999 . S
Cu184 O190 1.974 . S
Cu184 N195 1.985 . S
Cu184 O204 1.959 . S
N185 Cu184 1.999 . S
N185 C187 1.263 . S
N185 C189 1.389 . S
N186 C187 1.358 . S
N186 C188 1.400 . S
C187 N185 1.263 . S
C187 N186 1.358 . S
C187 H193 0.930 . S
C188 N186 1.400 . S
C188 C189 1.351 . S
C188 H205 0.930 . S
C189 N185 1.389 . S
C189 C188 1.351 . S
C189 H194 0.930 . S
O190 Cu184 1.974 . S
O190 C200 1.282 . S
C191 O192 1.261 . S
C191 O204 1.251 . S
O192 C191 1.261 . S
H193 C187 0.930 . S
H194 C189 0.930 . S
N195 Cu184 1.985 . S
N195 C197 1.335 . S
N195 C198 1.390 . S
N196 C197 1.345 . S
N196 C199 1.336 . S
C197 N195 1.335 . S
C197 N196 1.345 . S
C197 H202 0.930 . S
C198 N195 1.390 . S
C198 C199 1.346 . S
C198 H203 0.930 . S
C199 N196 1.336 . S
C199 C198 1.346 . S
C199 H206 0.929 . S
C200 O190 1.282 . S
C200 O201 1.216 . S
O201 C200 1.216 . S
H202 C197 0.930 . S
H203 C198 0.930 . S
O204 Cu184 1.959 . S
O204 C191 1.251 . S
H205 C188 0.930 . S
H206 C199 0.929 . S
Cu207 N208 1.999 . S
Cu207 O213 1.974 . S
Cu207 N218 1.985 . S
Cu207 O227 1.959 . S
N208 Cu207 1.999 . S
N208 C210 1.263 . S
N208 C212 1.389 . S
N209 C210 1.358 . S
N209 C211 1.400 . S
C210 N208 1.263 . S
C210 N209 1.358 . S
C210 H216 0.930 . S
C211 N209 1.400 . S
C211 C212 1.351 . S
C211 H228 0.930 . S
C212 N208 1.389 . S
C212 C211 1.351 . S
C212 H217 0.930 . S
O213 Cu207 1.974 . S
O213 C223 1.282 . S
C214 O215 1.261 . S
C214 O227 1.251 . S
O215 C214 1.261 . S
H216 C210 0.930 . S
H217 C212 0.930 . S
N218 Cu207 1.985 . S
N218 C220 1.335 . S
N218 C221 1.390 . S
N219 C220 1.345 . S
N219 C222 1.336 . S
C220 N218 1.335 . S
C220 N219 1.345 . S
C220 H225 0.930 . S
C221 N218 1.390 . S
C221 C222 1.346 . S
C221 H226 0.930 . S
C222 N219 1.336 . S
C222 C221 1.346 . S
C222 H229 0.929 . S
C223 O213 1.282 . S
C223 O224 1.216 . S
O224 C223 1.216 . S
H225 C220 0.930 . S
H226 C221 0.930 . S
O227 Cu207 1.959 . S
O227 C214 1.251 . S
H228 C211 0.930 . S
H229 C222 0.929 . S
Cu230 N231 1.999 . S
Cu230 O236 1.974 . S
Cu230 N241 1.985 . S
Cu230 O250 1.959 . S
N231 Cu230 1.999 . S
N231 C233 1.263 . S
N231 C235 1.389 . S
N232 C233 1.358 . S
N232 C234 1.400 . S
C233 N231 1.263 . S
C233 N232 1.358 . S
C233 H239 0.930 . S
C234 N232 1.400 . S
C234 C235 1.351 . S
C234 H251 0.930 . S
C235 N231 1.389 . S
C235 C234 1.351 . S
C235 H240 0.930 . S
O236 Cu230 1.974 . S
O236 C246 1.282 . S
C237 O238 1.261 . S
C237 O250 1.251 . S
O238 C237 1.261 . S
H239 C233 0.930 . S
H240 C235 0.930 . S
N241 Cu230 1.985 . S
N241 C243 1.335 . S
N241 C244 1.390 . S
N242 C243 1.345 . S
N242 C245 1.336 . S
C243 N241 1.335 . S
C243 N242 1.345 . S
C243 H248 0.930 . S
C244 N241 1.390 . S
C244 C245 1.346 . S
C244 H249 0.930 . S
C245 N242 1.336 . S
C245 C244 1.346 . S
C245 H252 0.929 . S
C246 O236 1.282 . S
C246 O247 1.216 . S
O247 C246 1.216 . S
H248 C243 0.930 . S
H249 C244 0.930 . S
O250 Cu230 1.959 . S
O250 C237 1.251 . S
H251 C234 0.930 . S
H252 C245 0.929 . S
Cu253 N254 1.999 . S
Cu253 O259 1.974 . S
Cu253 N264 1.985 . S
Cu253 O273 1.959 . S
N254 Cu253 1.999 . S
N254 C256 1.263 . S
N254 C258 1.389 . S
N255 C256 1.358 . S
N255 C257 1.400 . S
C256 N254 1.263 . S
C256 N255 1.358 . S
C256 H262 0.930 . S
C257 N255 1.400 . S
C257 C258 1.351 . S
C257 H274 0.930 . S
C258 N254 1.389 . S
C258 C257 1.351 . S
C258 H263 0.930 . S
O259 Cu253 1.974 . S
O259 C269 1.282 . S
C260 O261 1.261 . S
C260 O273 1.251 . S
O261 C260 1.261 . S
H262 C256 0.930 . S
H263 C258 0.930 . S
N264 Cu253 1.985 . S
N264 C266 1.335 . S
N264 C267 1.390 . S
N265 C266 1.345 . S
N265 C268 1.336 . S
C266 N264 1.335 . S
C266 N265 1.345 . S
C266 H271 0.930 . S
C267 N264 1.390 . S
C267 C268 1.346 . S
C267 H272 0.930 . S
C268 N265 1.336 . S
C268 C267 1.346 . S
C268 H275 0.929 . S
C269 O259 1.282 . S
C269 O270 1.216 . S
O270 C269 1.216 . S
H271 C266 0.930 . S
H272 C267 0.930 . S
O273 Cu253 1.959 . S
O273 C260 1.251 . S
H274 C257 0.930 . S
H275 C268 0.929 . S
Tb276 O279 2.453 . S
Tb276 O280 2.596 . S
Tb276 O281 2.374 . S
Tb276 O289 2.343 . S
Tb276 O291 2.353 . S
Tb276 O293 2.427 . S
Tb276 O294 2.513 . S
C277 O281 1.251 . S
C277 O283 1.263 . S
Tb278 O280 2.343 . S
Tb278 O283 2.353 . S
Tb278 O286 2.427 . S
Tb278 O287 2.513 . S
Tb278 O288 2.453 . S
Tb278 O289 2.596 . S
Tb278 O290 2.374 . S
O279 Tb276 2.453 . S
O279 C295 1.245 . S
O280 Tb276 2.596 . S
O280 Tb278 2.343 . S
O280 C295 1.259 . S
O281 Tb276 2.374 . S
O281 C277 1.251 . S
C282 O286 1.275 . S
C282 O287 1.246 . S
O283 C277 1.263 . S
O283 Tb278 2.353 . S
C284 O288 1.245 . S
C284 O289 1.259 . S
C285 O290 1.250 . S
C285 O291 1.263 . S
O286 Tb278 2.427 . S
O286 C282 1.275 . S
O287 Tb278 2.513 . S
O287 C282 1.246 . S
O288 Tb278 2.453 . S
O288 C284 1.245 . S
O289 Tb276 2.343 . S
O289 Tb278 2.596 . S
O289 C284 1.259 . S
O290 Tb278 2.374 . S
O290 C285 1.250 . S
O291 Tb276 2.353 . S
O291 C285 1.263 . S
C292 O293 1.275 . S
C292 O294 1.246 . S
O293 Tb276 2.427 . S
O293 C292 1.275 . S
O294 Tb276 2.513 . S
O294 C292 1.246 . S
C295 O279 1.245 . S
C295 O280 1.259 . S
Tb296 O299 2.453 . S
Tb296 O300 2.596 . S
Tb296 O301 2.374 . S
Tb296 O309 2.343 . S
Tb296 O311 2.353 . S
Tb296 O313 2.427 . S
Tb296 O314 2.513 . S
C297 O301 1.251 . S
C297 O303 1.263 . S
Tb298 O300 2.343 . S
Tb298 O303 2.353 . S
Tb298 O306 2.427 . S
Tb298 O307 2.513 . S
Tb298 O308 2.453 . S
Tb298 O309 2.596 . S
Tb298 O310 2.374 . S
O299 Tb296 2.453 . S
O299 C315 1.245 . S
O300 Tb296 2.596 . S
O300 Tb298 2.343 . S
O300 C315 1.259 . S
O301 Tb296 2.374 . S
O301 C297 1.251 . S
C302 O306 1.275 . S
C302 O307 1.246 . S
O303 C297 1.263 . S
O303 Tb298 2.353 . S
C304 O308 1.245 . S
C304 O309 1.259 . S
C305 O310 1.250 . S
C305 O311 1.263 . S
O306 Tb298 2.427 . S
O306 C302 1.275 . S
O307 Tb298 2.513 . S
O307 C302 1.246 . S
O308 Tb298 2.453 . S
O308 C304 1.245 . S
O309 Tb296 2.343 . S
O309 Tb298 2.596 . S
O309 C304 1.259 . S
O310 Tb298 2.374 . S
O310 C305 1.250 . S
O311 Tb296 2.353 . S
O311 C305 1.263 . S
C312 O313 1.275 . S
C312 O314 1.246 . S
O313 Tb296 2.427 . S
O313 C312 1.275 . S
O314 Tb296 2.513 . S
O314 C312 1.246 . S
C315 O299 1.245 . S
C315 O300 1.259 . S
Tb316 O319 2.453 . S
Tb316 O320 2.596 . S
Tb316 O321 2.374 . S
Tb316 O329 2.343 . S
Tb316 O331 2.353 . S
Tb316 O333 2.427 . S
Tb316 O334 2.513 . S
C317 O321 1.251 . S
C317 O323 1.263 . S
Tb318 O320 2.343 . S
Tb318 O323 2.353 . S
Tb318 O326 2.427 . S
Tb318 O327 2.513 . S
Tb318 O328 2.453 . S
Tb318 O329 2.596 . S
Tb318 O330 2.374 . S
O319 Tb316 2.453 . S
O319 C335 1.245 . S
O320 Tb316 2.596 . S
O320 Tb318 2.343 . S
O320 C335 1.259 . S
O321 Tb316 2.374 . S
O321 C317 1.251 . S
C322 O326 1.275 . S
C322 O327 1.246 . S
O323 C317 1.263 . S
O323 Tb318 2.353 . S
C324 O328 1.245 . S
C324 O329 1.259 . S
C325 O330 1.250 . S
C325 O331 1.263 . S
O326 Tb318 2.427 . S
O326 C322 1.275 . S
O327 Tb318 2.513 . S
O327 C322 1.246 . S
O328 Tb318 2.453 . S
O328 C324 1.245 . S
O329 Tb316 2.343 . S
O329 Tb318 2.596 . S
O329 C324 1.259 . S
O330 Tb318 2.374 . S
O330 C325 1.250 . S
O331 Tb316 2.353 . S
O331 C325 1.263 . S
C332 O333 1.275 . S
C332 O334 1.246 . S
O333 Tb316 2.427 . S
O333 C332 1.275 . S
O334 Tb316 2.513 . S
O334 C332 1.246 . S
C335 O319 1.245 . S
C335 O320 1.259 . S
Tb336 O339 2.453 . S
Tb336 O340 2.596 . S
Tb336 O341 2.374 . S
Tb336 O349 2.343 . S
Tb336 O351 2.353 . S
Tb336 O353 2.427 . S
Tb336 O354 2.513 . S
C337 O341 1.251 . S
C337 O343 1.263 . S
Tb338 O340 2.343 . S
Tb338 O343 2.353 . S
Tb338 O346 2.427 . S
Tb338 O347 2.513 . S
Tb338 O348 2.453 . S
Tb338 O349 2.596 . S
Tb338 O350 2.374 . S
O339 Tb336 2.453 . S
O339 C355 1.245 . S
O340 Tb336 2.596 . S
O340 Tb338 2.343 . S
O340 C355 1.259 . S
O341 Tb336 2.374 . S
O341 C337 1.251 . S
C342 O346 1.275 . S
C342 O347 1.246 . S
O343 C337 1.263 . S
O343 Tb338 2.353 . S
C344 O348 1.245 . S
C344 O349 1.259 . S
C345 O350 1.250 . S
C345 O351 1.263 . S
O346 Tb338 2.427 . S
O346 C342 1.275 . S
O347 Tb338 2.513 . S
O347 C342 1.246 . S
O348 Tb338 2.453 . S
O348 C344 1.245 . S
O349 Tb336 2.343 . S
O349 Tb338 2.596 . S
O349 C344 1.259 . S
O350 Tb338 2.374 . S
O350 C345 1.250 . S
O351 Tb336 2.353 . S
O351 C345 1.263 . S
C352 O353 1.275 . S
C352 O354 1.246 . S
O353 Tb336 2.427 . S
O353 C352 1.275 . S
O354 Tb336 2.513 . S
O354 C352 1.246 . S
C355 O339 1.245 . S
C355 O340 1.259 . S
Tb356 O359 2.453 . S
Tb356 O360 2.596 . S
Tb356 O361 2.374 . S
Tb356 O369 2.343 . S
Tb356 O371 2.353 . S
Tb356 O373 2.427 . S
Tb356 O374 2.513 . S
C357 O361 1.251 . S
C357 O363 1.263 . S
Tb358 O360 2.343 . S
Tb358 O363 2.353 . S
Tb358 O366 2.427 . S
Tb358 O367 2.513 . S
Tb358 O368 2.453 . S
Tb358 O369 2.596 . S
Tb358 O370 2.374 . S
O359 Tb356 2.453 . S
O359 C375 1.245 . S
O360 Tb356 2.596 . S
O360 Tb358 2.343 . S
O360 C375 1.259 . S
O361 Tb356 2.374 . S
O361 C357 1.251 . S
C362 O366 1.275 . S
C362 O367 1.246 . S
O363 C357 1.263 . S
O363 Tb358 2.353 . S
C364 O368 1.245 . S
C364 O369 1.259 . S
C365 O370 1.250 . S
C365 O371 1.263 . S
O366 Tb358 2.427 . S
O366 C362 1.275 . S
O367 Tb358 2.513 . S
O367 C362 1.246 . S
O368 Tb358 2.453 . S
O368 C364 1.245 . S
O369 Tb356 2.343 . S
O369 Tb358 2.596 . S
O369 C364 1.259 . S
O370 Tb358 2.374 . S
O370 C365 1.250 . S
O371 Tb356 2.353 . S
O371 C365 1.263 . S
C372 O373 1.275 . S
C372 O374 1.246 . S
O373 Tb356 2.427 . S
O373 C372 1.275 . S
O374 Tb356 2.513 . S
O374 C372 1.246 . S
C375 O359 1.245 . S
C375 O360 1.259 . S
Tb376 O379 2.453 . S
Tb376 O380 2.596 . S
Tb376 O381 2.374 . S
Tb376 O389 2.343 . S
Tb376 O391 2.353 . S
Tb376 O393 2.427 . S
Tb376 O394 2.513 . S
C377 O381 1.251 . S
C377 O383 1.263 . S
Tb378 O380 2.343 . S
Tb378 O383 2.353 . S
Tb378 O386 2.427 . S
Tb378 O387 2.513 . S
Tb378 O388 2.453 . S
Tb378 O389 2.596 . S
Tb378 O390 2.374 . S
O379 Tb376 2.453 . S
O379 C395 1.245 . S
O380 Tb376 2.596 . S
O380 Tb378 2.343 . S
O380 C395 1.259 . S
O381 Tb376 2.374 . S
O381 C377 1.251 . S
C382 O386 1.275 . S
C382 O387 1.246 . S
O383 C377 1.263 . S
O383 Tb378 2.353 . S
C384 O388 1.245 . S
C384 O389 1.259 . S
C385 O390 1.250 . S
C385 O391 1.263 . S
O386 Tb378 2.427 . S
O386 C382 1.275 . S
O387 Tb378 2.513 . S
O387 C382 1.246 . S
O388 Tb378 2.453 . S
O388 C384 1.245 . S
O389 Tb376 2.343 . S
O389 Tb378 2.596 . S
O389 C384 1.259 . S
O390 Tb378 2.374 . S
O390 C385 1.250 . S
O391 Tb376 2.353 . S
O391 C385 1.263 . S
C392 O393 1.275 . S
C392 O394 1.246 . S
O393 Tb376 2.427 . S
O393 C392 1.275 . S
O394 Tb376 2.513 . S
O394 C392 1.246 . S
C395 O379 1.245 . S
C395 O380 1.259 . S
Tb396 O399 2.453 . S
Tb396 O400 2.596 . S
Tb396 O401 2.374 . S
Tb396 O409 2.343 . S
Tb396 O411 2.353 . S
Tb396 O413 2.427 . S
Tb396 O414 2.513 . S
C397 O401 1.251 . S
C397 O403 1.263 . S
Tb398 O400 2.343 . S
Tb398 O403 2.353 . S
Tb398 O406 2.427 . S
Tb398 O407 2.513 . S
Tb398 O408 2.453 . S
Tb398 O409 2.596 . S
Tb398 O410 2.374 . S
O399 Tb396 2.453 . S
O399 C415 1.245 . S
O400 Tb396 2.596 . S
O400 Tb398 2.343 . S
O400 C415 1.259 . S
O401 Tb396 2.374 . S
O401 C397 1.251 . S
C402 O406 1.275 . S
C402 O407 1.246 . S
O403 C397 1.263 . S
O403 Tb398 2.353 . S
C404 O408 1.245 . S
C404 O409 1.259 . S
C405 O410 1.250 . S
C405 O411 1.263 . S
O406 Tb398 2.427 . S
O406 C402 1.275 . S
O407 Tb398 2.513 . S
O407 C402 1.246 . S
O408 Tb398 2.453 . S
O408 C404 1.245 . S
O409 Tb396 2.343 . S
O409 Tb398 2.596 . S
O409 C404 1.259 . S
O410 Tb398 2.374 . S
O410 C405 1.250 . S
O411 Tb396 2.353 . S
O411 C405 1.263 . S
C412 O413 1.275 . S
C412 O414 1.246 . S
O413 Tb396 2.427 . S
O413 C412 1.275 . S
O414 Tb396 2.513 . S
O414 C412 1.246 . S
C415 O399 1.245 . S
C415 O400 1.259 . S
Tb416 O419 2.453 . S
Tb416 O420 2.596 . S
Tb416 O421 2.374 . S
Tb416 O429 2.343 . S
Tb416 O431 2.353 . S
Tb416 O433 2.427 . S
Tb416 O434 2.513 . S
C417 O421 1.251 . S
C417 O423 1.263 . S
Tb418 O420 2.343 . S
Tb418 O423 2.353 . S
Tb418 O426 2.427 . S
Tb418 O427 2.513 . S
Tb418 O428 2.453 . S
Tb418 O429 2.596 . S
Tb418 O430 2.374 . S
O419 Tb416 2.453 . S
O419 C435 1.245 . S
O420 Tb416 2.596 . S
O420 Tb418 2.343 . S
O420 C435 1.259 . S
O421 Tb416 2.374 . S
O421 C417 1.251 . S
C422 O426 1.275 . S
C422 O427 1.246 . S
O423 C417 1.263 . S
O423 Tb418 2.353 . S
C424 O428 1.245 . S
C424 O429 1.259 . S
C425 O430 1.250 . S
C425 O431 1.263 . S
O426 Tb418 2.427 . S
O426 C422 1.275 . S
O427 Tb418 2.513 . S
O427 C422 1.246 . S
O428 Tb418 2.453 . S
O428 C424 1.245 . S
O429 Tb416 2.343 . S
O429 Tb418 2.596 . S
O429 C424 1.259 . S
O430 Tb418 2.374 . S
O430 C425 1.250 . S
O431 Tb416 2.353 . S
O431 C425 1.263 . S
C432 O433 1.275 . S
C432 O434 1.246 . S
O433 Tb416 2.427 . S
O433 C432 1.275 . S
O434 Tb416 2.513 . S
O434 C432 1.246 . S
C435 O419 1.245 . S
C435 O420 1.259 . S
C295 N2 2.197 . S
C297 C7 2.142 . S
C324 N12 1.831 . S
C16 C345 2.517 . S
C365 C30 2.351 . S
C395 N35 1.521 . S
C39 C397 2.409 . S
C435 N25 1.753 . S
C277 N58 1.275 . S
N81 C302 1.534 . S
C332 N104 0.724 . S
N127 C344 1.958 . S
C364 N48 1.471 . S
C377 N71 1.855 . S
N94 C402 0.947 . S
C417 N117 2.138 . S
C85 C282 2.074 . S
C122 C372 1.699 . S
C53 C382 1.800 . S
C415 C76 1.733 . S
C422 C99 1.897 . S
C325 C131 2.359 . S
C352 C62 1.226 . S
C108 C315 1.138 . S
C424 N140 2.398 . S
C145 C357 2.289 . S
C384 N150 1.611 . S
C154 C405 2.368 . S
C305 C168 2.184 . S
N173 C335 1.585 . S
C337 C177 2.537 . S
C284 N163 1.883 . S
C432 C200 1.721 . S
C362 N219 2.011 . S
N242 C392 1.146 . S
C404 C269 2.001 . S
C304 C191 0.812 . S
N209 C317 2.158 . S
N232 C342 1.583 . S
C260 C292 2.360 . S
C223 C425 2.110 . S
N255 C312 0.937 . S
N186 C322 1.649 . S
C355 C214 1.727 . S
C285 C237 1.901 . S
C385 N265 1.473 . S
C412 N196 0.727 . S
C375 C246 1.004 . S
