# Generated by pormake.
# Topology soc, (4,6)-cn, num edge types: 1
# Building blocks:
#     Node 0, Type 0, BuildingBlock: ESEHIV_clean_sbu_0, # of connection points: 4
#     Node 1, Type 0, BuildingBlock: ESEHIV_clean_sbu_0, # of connection points: 4
#     Node 2, Type 0, BuildingBlock: ESEHIV_clean_sbu_0, # of connection points: 4
#     Node 3, Type 0, BuildingBlock: ESEHIV_clean_sbu_0, # of connection points: 4
#     Node 4, Type 0, BuildingBlock: ESEHIV_clean_sbu_0, # of connection points: 4
#     Node 5, Type 0, BuildingBlock: ESEHIV_clean_sbu_0, # of connection points: 4
#     Node 6, Type 0, BuildingBlock: ESEHIV_clean_sbu_0, # of connection points: 4
#     Node 7, Type 0, BuildingBlock: ESEHIV_clean_sbu_0, # of connection points: 4
#     Node 8, Type 0, BuildingBlock: ESEHIV_clean_sbu_0, # of connection points: 4
#     Node 9, Type 0, BuildingBlock: ESEHIV_clean_sbu_0, # of connection points: 4
#     Node 10, Type 0, BuildingBlock: ESEHIV_clean_sbu_0, # of connection points: 4
#     Node 11, Type 0, BuildingBlock: ESEHIV_clean_sbu_0, # of connection points: 4
#     Node 12, Type 1, BuildingBlock: BETFEN_clean_sbu_0, # of connection points: 6
#     Node 13, Type 1, BuildingBlock: BETFEN_clean_sbu_0, # of connection points: 6
#     Node 14, Type 1, BuildingBlock: BETFEN_clean_sbu_0, # of connection points: 6
#     Node 15, Type 1, BuildingBlock: BETFEN_clean_sbu_0, # of connection points: 6
#     Node 16, Type 1, BuildingBlock: BETFEN_clean_sbu_0, # of connection points: 6
#     Node 17, Type 1, BuildingBlock: BETFEN_clean_sbu_0, # of connection points: 6
#     Node 18, Type 1, BuildingBlock: BETFEN_clean_sbu_0, # of connection points: 6
#     Node 19, Type 1, BuildingBlock: BETFEN_clean_sbu_0, # of connection points: 6
#     Edge 20, Type (0, 1), BuildingBlock: XIVTED_clean_linker_0, # of connection points: 2
#     Edge 21, Type (0, 1), BuildingBlock: XIVTED_clean_linker_0, # of connection points: 2
#     Edge 22, Type (0, 1), BuildingBlock: XIVTED_clean_linker_0, # of connection points: 2
#     Edge 23, Type (0, 1), BuildingBlock: XIVTED_clean_linker_0, # of connection points: 2
#     Edge 24, Type (0, 1), BuildingBlock: XIVTED_clean_linker_0, # of connection points: 2
#     Edge 25, Type (0, 1), BuildingBlock: XIVTED_clean_linker_0, # of connection points: 2
#     Edge 26, Type (0, 1), BuildingBlock: XIVTED_clean_linker_0, # of connection points: 2
#     Edge 27, Type (0, 1), BuildingBlock: XIVTED_clean_linker_0, # of connection points: 2
#     Edge 28, Type (0, 1), BuildingBlock: XIVTED_clean_linker_0, # of connection points: 2
#     Edge 29, Type (0, 1), BuildingBlock: XIVTED_clean_linker_0, # of connection points: 2
#     Edge 30, Type (0, 1), BuildingBlock: XIVTED_clean_linker_0, # of connection points: 2
#     Edge 31, Type (0, 1), BuildingBlock: XIVTED_clean_linker_0, # of connection points: 2
#     Edge 32, Type (0, 1), BuildingBlock: XIVTED_clean_linker_0, # of connection points: 2
#     Edge 33, Type (0, 1), BuildingBlock: XIVTED_clean_linker_0, # of connection points: 2
#     Edge 34, Type (0, 1), BuildingBlock: XIVTED_clean_linker_0, # of connection points: 2
#     Edge 35, Type (0, 1), BuildingBlock: XIVTED_clean_linker_0, # of connection points: 2
#     Edge 36, Type (0, 1), BuildingBlock: XIVTED_clean_linker_0, # of connection points: 2
#     Edge 37, Type (0, 1), BuildingBlock: XIVTED_clean_linker_0, # of connection points: 2
#     Edge 38, Type (0, 1), BuildingBlock: XIVTED_clean_linker_0, # of connection points: 2
#     Edge 39, Type (0, 1), BuildingBlock: XIVTED_clean_linker_0, # of connection points: 2
#     Edge 40, Type (0, 1), BuildingBlock: XIVTED_clean_linker_0, # of connection points: 2
#     Edge 41, Type (0, 1), BuildingBlock: XIVTED_clean_linker_0, # of connection points: 2
#     Edge 42, Type (0, 1), BuildingBlock: XIVTED_clean_linker_0, # of connection points: 2
#     Edge 43, Type (0, 1), BuildingBlock: XIVTED_clean_linker_0, # of connection points: 2
#     Edge 44, Type (0, 1), BuildingBlock: XIVTED_clean_linker_0, # of connection points: 2
#     Edge 45, Type (0, 1), BuildingBlock: XIVTED_clean_linker_0, # of connection points: 2
#     Edge 46, Type (0, 1), BuildingBlock: XIVTED_clean_linker_0, # of connection points: 2
#     Edge 47, Type (0, 1), BuildingBlock: XIVTED_clean_linker_0, # of connection points: 2
#     Edge 48, Type (0, 1), BuildingBlock: XIVTED_clean_linker_0, # of connection points: 2
#     Edge 49, Type (0, 1), BuildingBlock: XIVTED_clean_linker_0, # of connection points: 2
#     Edge 50, Type (0, 1), BuildingBlock: XIVTED_clean_linker_0, # of connection points: 2
#     Edge 51, Type (0, 1), BuildingBlock: XIVTED_clean_linker_0, # of connection points: 2
#     Edge 52, Type (0, 1), BuildingBlock: XIVTED_clean_linker_0, # of connection points: 2
#     Edge 53, Type (0, 1), BuildingBlock: XIVTED_clean_linker_0, # of connection points: 2
#     Edge 54, Type (0, 1), BuildingBlock: XIVTED_clean_linker_0, # of connection points: 2
#     Edge 55, Type (0, 1), BuildingBlock: XIVTED_clean_linker_0, # of connection points: 2
#     Edge 56, Type (0, 1), BuildingBlock: XIVTED_clean_linker_0, # of connection points: 2
#     Edge 57, Type (0, 1), BuildingBlock: XIVTED_clean_linker_0, # of connection points: 2
#     Edge 58, Type (0, 1), BuildingBlock: XIVTED_clean_linker_0, # of connection points: 2
#     Edge 59, Type (0, 1), BuildingBlock: XIVTED_clean_linker_0, # of connection points: 2
#     Edge 60, Type (0, 1), BuildingBlock: XIVTED_clean_linker_0, # of connection points: 2
#     Edge 61, Type (0, 1), BuildingBlock: XIVTED_clean_linker_0, # of connection points: 2
#     Edge 62, Type (0, 1), BuildingBlock: XIVTED_clean_linker_0, # of connection points: 2
#     Edge 63, Type (0, 1), BuildingBlock: XIVTED_clean_linker_0, # of connection points: 2
#     Edge 64, Type (0, 1), BuildingBlock: XIVTED_clean_linker_0, # of connection points: 2
#     Edge 65, Type (0, 1), BuildingBlock: XIVTED_clean_linker_0, # of connection points: 2
#     Edge 66, Type (0, 1), BuildingBlock: XIVTED_clean_linker_0, # of connection points: 2
#     Edge 67, Type (0, 1), BuildingBlock: XIVTED_clean_linker_0, # of connection points: 2
# Relax obj value: 0.189
# Max RMSD: 0.286
# Mean RMSD: 0.177
data_MOF--net-soc--node1-ESEHIV_clean_sbu_0--node2-BETFEN_clean_sbu_0--edge1-XIVTED_clean_linker_0
_symmetry_space_group_name_H-M    P1
_symmetry_Int_Tables_number       1
_symmetry_cell_setting            triclinic
loop_
_symmetry_equiv_pos_as_xyz
'x, y, z'
_cell_length_a     51.912777
_cell_length_b     50.179777
_cell_length_c     44.79821
_cell_angle_alpha  84.148429
_cell_angle_beta   82.692575
_cell_angle_gamma 69.498715
loop_
_atom_site_label
_atom_site_type_symbol
_atom_site_fract_x
_atom_site_fract_y
_atom_site_fract_z
_atom_type_partial_charge
Cu0 Cu 0.03153 0.03853 0.3914 0.0
N1 N 0.04559 0.05753 0.41539 0.0
N2 N 0.06997 0.0834 0.42681 0.0
C3 C 0.06809 0.06513 0.40775 0.0
C4 C 0.048 0.08697 0.44764 0.0
C5 C 0.033 0.071 0.44051 0.0
O6 O 0.06215 1.00839 0.37155 0.0
C7 C 1.00714 0.09161 0.35814 0.0
O8 O 0.02915 0.09702 0.36308 0.0
H9 H 0.08147 0.05933 0.38718 0.0
H10 H 1.01344 0.07057 0.4518 0.0
N11 N 1.01011 0.02009 0.41528 0.0
N12 N 0.98011 0.99682 0.42581 0.0
C13 C 0.99094 1.01219 0.40478 0.0
C14 C 1.01158 1.00946 0.44408 0.0
C15 C 0.99305 0.995 0.45065 0.0
C16 C 0.08031 1.01149 0.35089 0.0
O17 O 0.07787 0.03714 0.33886 0.0
H18 H 0.98615 0.01643 0.38157 0.0
H19 H 0.02571 1.01131 0.45888 0.0
O20 O 1.00588 0.06686 0.36567 0.0
H21 H 0.04247 0.10103 0.46598 0.0
H22 H 0.98982 0.98359 0.47181 0.0
Cu23 Cu 0.04971 0.04959 0.71864 0.0
N24 N 0.0332 0.03256 0.6952 0.0
N25 N 1.00654 1.00833 0.68599 0.0
C26 C 1.013 0.02233 0.70643 0.0
C27 C 0.02336 1.00984 0.66078 0.0
C28 C 0.03975 0.02495 0.66649 0.0
O29 O 0.01924 0.07873 0.74055 0.0
C30 C 0.09377 1.00061 0.725 0.0
O31 O 0.09353 1.00512 0.69564 0.0
H32 H 1.0041 0.02404 0.72966 0.0
H33 H 0.05593 0.02915 0.65117 0.0
N34 N 0.07158 0.06841 0.69589 0.0
N35 N 0.10159 0.09179 0.68794 0.0
C36 C 0.09078 0.07541 0.70759 0.0
C37 C 0.0703 0.08054 0.66764 0.0
C38 C 0.08874 0.09518 0.66273 0.0
C39 C 1.00386 0.09807 0.7233 0.0
O40 O 1.00961 0.09622 0.69402 0.0
H41 H 0.0955 0.06997 0.73076 0.0
H42 H 0.05615 0.07987 0.65221 0.0
O43 O 0.07539 0.0184 0.74186 0.0
H44 H 0.02404 1.0004 0.63989 0.0
H45 H 0.09185 0.10797 0.64256 0.0
Cu46 Cu 0.30629 0.06741 0.09185 0.0
N47 N 0.27731 0.05982 0.07806 0.0
N48 N 0.25468 0.03299 0.06466 0.0
C49 C 0.27781 0.03328 0.07519 0.0
C50 C 0.2391 0.0608 0.06047 0.0
C51 C 0.25312 0.07727 0.06875 0.0
O52 O 0.32476 0.03119 0.11548 0.0
C53 C 0.31193 0.10475 0.04295 0.0
O54 O 0.28775 0.11924 0.05632 0.0
H55 H 0.29529 0.01465 0.08028 0.0
H56 H 0.24617 0.10029 0.06779 0.0
N57 N 0.29199 0.09687 0.11839 0.0
N58 N 0.28949 0.1276 0.15227 0.0
C59 C 0.30626 0.10869 0.13267 0.0
C60 C 0.26535 0.10895 0.12912 0.0
C61 C 0.26376 0.12784 0.15005 0.0
C62 C 0.30876 0.02619 0.13794 0.0
O63 O 0.28498 0.04637 0.14421 0.0
H64 H 0.32852 0.1029 0.12947 0.0
H65 H 0.24831 0.10375 0.12291 0.0
O66 O 0.32571 0.08057 0.05529 0.0
H67 H 0.21921 0.06894 0.05157 0.0
H68 H 0.24513 0.14074 0.1627 0.0
Cu69 Cu 0.06706 0.31858 0.08798 0.0
N70 N 0.07879 0.34087 0.05653 0.0
N71 N 0.10552 0.34844 0.01517 0.0
C72 C 0.10395 0.33193 0.04075 0.0
C73 C 0.08019 0.3687 0.01498 0.0
C74 C 0.06376 0.36392 0.04039 0.0
O75 O 0.09828 0.30451 0.11344 0.0
C76 C 0.04373 0.27617 0.07202 0.0
O77 O 0.0388 0.26879 0.10058 0.0
H78 H 0.1202 0.31243 0.04693 0.0
H79 H 0.042 0.37544 0.04576 0.0
N80 N 0.03465 0.33937 0.11186 0.0
N81 N 0.99462 0.34747 0.14182 0.0
C82 C 1.01103 0.33329 0.11833 0.0
C83 C 0.03274 0.35872 0.13148 0.0
C84 C 1.00822 0.36377 0.14985 0.0
C85 C 0.09597 0.29986 0.14208 0.0
O86 O 0.07229 0.29906 0.15573 0.0
H87 H 1.00633 0.31806 0.1067 0.0
H88 H 0.04899 0.36697 0.13379 0.0
O89 O 0.05797 0.29245 0.06473 0.0
H90 H 0.07368 0.38534 0.99735 0.0
H91 H 1.00195 0.37697 0.16895 0.0
Cu92 Cu 0.78776 1.00733 0.99985 0.0
N93 N 0.80971 0.0242 0.97372 0.0
N94 N 0.81941 0.05984 0.94636 0.0
C95 C 0.80291 0.05265 0.9689 0.0
C96 C 0.83738 0.03508 0.93626 0.0
C97 C 0.83158 1.01302 0.95349 0.0
O98 O 0.76596 0.03697 0.02708 0.0
C99 C 0.78265 0.97235 0.95914 0.0
O100 O 0.80947 0.96349 0.96018 0.0
H101 H 0.78517 0.06788 0.98058 0.0
H102 H 0.8421 0.99055 0.95065 0.0
N103 N 0.8075 0.97721 0.02522 0.0
N104 N 0.81346 0.94715 0.06607 0.0
C105 C 0.79652 0.9709 0.05268 0.0
C106 C 0.8325 0.9568 0.02109 0.0
C107 C 0.83613 0.93796 0.04631 0.0
C108 C 0.78116 0.04404 0.04277 0.0
O109 O 0.80807 0.03131 0.03918 0.0
H110 H 0.77598 0.98301 0.06224 0.0
H111 H 0.84677 0.95533 1.00101 0.0
O112 O 0.76738 0.99231 0.97574 0.0
H113 H 0.85312 0.03315 0.91747 0.0
H114 H 0.85388 0.91898 0.04979 0.0
Cu115 Cu 0.02661 0.76034 0.01659 0.0
N116 N 1.01018 0.74305 0.9932 0.0
N117 N 0.9823 0.73713 0.96214 0.0
C118 C 0.98965 0.75609 0.97541 0.0
C119 C 0.99899 0.71123 0.97195 0.0
C120 C 1.01616 0.71495 0.99099 0.0
O121 O 0.99726 0.78187 0.04798 0.0
C122 C 0.06599 0.79106 0.99077 0.0
O123 O 0.06292 0.80225 0.01682 0.0
H124 H 0.97998 0.77901 0.97276 0.0
H125 H 0.03186 0.69833 1.00252 0.0
N126 N 0.05154 0.73238 0.03952 0.0
N127 N 0.08581 0.71797 0.06934 0.0
C128 C 0.07607 0.73364 0.0444 0.0
C129 C 0.04594 0.71437 0.06168 0.0
C130 C 0.06701 0.70559 0.08026 0.0
C131 C 0.97991 0.76997 0.06063 0.0
O132 O 0.9803 0.74631 0.05025 0.0
H133 H 0.08489 0.74866 0.03243 0.0
H134 H 0.02665 0.71034 0.066 0.0
O135 O 0.05069 0.77664 0.98684 0.0
H136 H 0.99904 0.69097 0.9656 0.0
H137 H 0.06713 0.69342 0.10167 0.0
Cu138 Cu 0.5316 0.5397 0.89391 0.0
N139 N 0.5448 0.55805 0.91929 0.0
N140 N 0.56737 0.58552 0.93095 0.0
C141 C 0.56732 0.5658 0.91264 0.0
C142 C 0.54407 0.59035 0.94989 0.0
C143 C 0.53022 0.57324 0.94271 0.0
O144 O 0.56413 0.51486 0.87009 0.0
C145 C 0.48706 0.57222 0.85522 0.0
O146 O 0.48745 0.54848 0.84493 0.0
H147 H 0.58192 0.55925 0.89299 0.0
H148 H 0.50986 0.57364 0.95216 0.0
N149 N 0.51347 0.5172 0.91714 0.0
N150 N 0.48526 0.49174 0.92797 0.0
C151 C 0.48975 0.5142 0.91176 0.0
C152 C 0.52405 0.49649 0.93826 0.0
C153 C 0.50672 0.48075 0.945 0.0
C154 C 0.56688 0.48951 0.86439 0.0
O155 O 0.54548 0.48095 0.8702 0.0
H156 H 0.47676 0.52735 0.89517 0.0
H157 H 0.54399 0.49183 0.94642 0.0
O158 O 0.50482 0.57153 0.87276 0.0
H159 H 0.53684 0.60627 0.96649 0.0
H160 H 0.51084 0.46141 0.95949 0.0
Cu161 Cu 0.552 0.54371 0.21648 0.0
N162 N 0.53402 0.52589 0.19581 0.0
N163 N 0.5058 0.502 0.19081 0.0
C164 C 0.51461 0.51559 0.20964 0.0
C165 C 0.52035 0.50381 0.16392 0.0
C166 C 0.53776 0.51862 0.16706 0.0
O167 O 0.52253 0.5742 0.23773 0.0
C168 C 0.596 0.49545 0.22139 0.0
O169 O 0.59429 0.50097 0.19226 0.0
H170 H 0.50782 0.51731 0.23344 0.0
H171 H 0.5525 0.52309 0.14981 0.0
N172 N 0.57373 0.56141 0.19159 0.0
N173 N 0.60588 0.58203 0.18078 0.0
C174 C 0.59335 0.56855 0.20217 0.0
C175 C 0.57367 0.57066 0.16231 0.0
C176 C 0.59351 0.58351 0.15558 0.0
C177 C 0.50665 0.59152 0.21938 0.0
O178 O 0.51223 0.58685 0.19055 0.0
H179 H 0.5976 0.56469 0.22555 0.0
H180 H 0.55988 0.56879 0.14713 0.0
O181 O 0.57828 0.51274 0.23927 0.0
H182 H 0.51866 0.49502 0.14348 0.0
H183 H 0.59824 0.59333 0.13393 0.0
Cu184 Cu 0.79877 0.57823 0.58873 0.0
N185 N 0.77995 0.60094 0.55716 0.0
N186 N 0.77611 0.62592 0.51255 0.0
C187 C 0.78939 0.61861 0.53781 0.0
C188 C 0.75695 0.61296 0.51673 0.0
C189 C 0.75944 0.59753 0.54418 0.0
O190 O 0.81338 0.60145 0.60935 0.0
C191 C 0.83562 0.54404 0.54391 0.0
O192 O 0.83727 0.56793 0.53039 0.0
H193 H 0.80758 0.62348 0.54085 0.0
H194 H 0.74858 0.58307 0.55295 0.0
N195 N 0.77544 0.56482 0.61644 0.0
N196 N 0.76484 0.53205 0.64818 0.0
C197 C 0.77867 0.537 0.62189 0.0
C198 C 0.75857 0.57806 0.63989 0.0
C199 C 0.75214 0.55779 0.65968 0.0
C200 C 0.81833 0.59699 0.63692 0.0
O201 O 0.81793 0.57306 0.65156 0.0
H202 H 0.79316 0.52036 0.60847 0.0
H203 H 0.75347 0.60034 0.64371 0.0
O204 O 0.8251 0.54407 0.57115 0.0
H205 H 0.74311 0.61327 0.50046 0.0
H206 H 0.74059 0.5614 0.68166 0.0
Cu207 Cu 0.5689 0.81355 0.58284 0.0
N208 N 0.59717 0.79505 0.5521 0.0
N209 N 0.62882 0.78886 0.51113 0.0
C210 C 0.61202 0.8073 0.53153 0.0
C211 C 0.62436 0.76406 0.51951 0.0
C212 C 0.60509 0.76789 0.54445 0.0
O213 O 0.58609 0.82843 0.61014 0.0
C214 C 0.53139 0.83084 0.54388 0.0
O215 O 0.54356 0.80353 0.53994 0.0
H216 H 0.60988 0.82959 0.53099 0.0
H217 H 0.59692 0.75203 0.55569 0.0
N218 N 0.54895 0.79157 0.60656 0.0
N219 N 0.51391 0.78148 0.63562 0.0
C220 C 0.52288 0.80211 0.62064 0.0
C221 C 0.55677 0.76328 0.61314 0.0
C222 C 0.53545 0.75706 0.6308 0.0
C223 C 0.60282 0.80919 0.62596 0.0
O224 O 0.60683 0.78236 0.62214 0.0
H225 H 0.5106 0.82455 0.61955 0.0
H226 H 0.57669 0.74811 0.60592 0.0
O227 O 0.54007 0.8423 0.56259 0.0
H228 H 0.63428 0.74434 0.50838 0.0
H229 H 0.53611 0.73601 0.63977 0.0
Cu230 Cu 0.28304 0.50976 0.50991 0.0
N231 N 0.30444 0.52736 0.48262 0.0
N232 N 0.31313 0.56241 0.45209 0.0
C233 C 0.29557 0.55552 0.47389 0.0
C234 C 0.33402 0.53768 0.44696 0.0
C235 C 0.32882 0.51621 0.46603 0.0
O236 O 0.266 0.53864 0.53868 0.0
C237 C 0.2664 0.49148 0.46112 0.0
O238 O 0.29065 0.4919 0.44914 0.0
H239 H 0.276 0.57052 0.48255 0.0
H240 H 0.34136 0.49387 0.46672 0.0
N241 N 0.30193 0.47647 0.53348 0.0
N242 N 0.30972 0.4444 0.57344 0.0
C243 C 0.29094 0.46679 0.55964 0.0
C244 C 0.32855 0.4594 0.53049 0.0
C245 C 0.33339 0.43974 0.55498 0.0
C246 C 0.2847 0.54088 0.55308 0.0
O247 O 0.31034 0.52396 0.54727 0.0
H248 H 0.26982 0.47683 0.569 0.0
H249 H 0.34362 0.46156 0.51229 0.0
O250 O 0.2579 0.49956 0.48782 0.0
H251 H 0.35164 0.53526 0.43036 0.0
H252 H 0.35301 0.42343 0.55897 0.0
Cu253 Cu 0.51493 0.26927 0.52156 0.0
N254 N 0.54559 0.24906 0.49545 0.0
N255 N 0.58455 0.24107 0.46375 0.0
C256 C 0.56469 0.25989 0.48135 0.0
C257 C 0.57728 0.21743 0.46695 0.0
C258 C 0.55336 0.22243 0.48637 0.0
O259 O 0.52803 0.29539 0.54035 0.0
C260 C 0.47353 0.26641 0.48994 0.0
O261 O 0.48508 0.23985 0.5 0.0
H262 H 0.56386 0.28129 0.48428 0.0
H263 H 0.54243 0.20768 0.49329 0.0
N264 N 0.50511 0.24666 0.55425 0.0
N265 N 0.48266 0.23607 0.59774 0.0
C266 C 0.48373 0.25631 0.57554 0.0
C267 C 0.51816 0.21931 0.56312 0.0
C268 C 0.50441 0.21271 0.58975 0.0
C269 C 0.55009 0.28199 0.55312 0.0
O270 O 0.56026 0.25408 0.55268 0.0
H271 H 0.46949 0.278 0.57468 0.0
H272 H 0.53676 0.20532 0.55148 0.0
O273 O 0.4831 0.28501 0.49698 0.0
H274 H 0.58824 0.19778 0.45608 0.0
H275 H 0.51053 0.19234 0.60242 0.0
Pr276 Pr 0.28532 0.32724 0.29482 0.0
Pr277 Pr 0.27016 0.28295 0.33721 0.0
C278 C 0.29922 0.37191 0.2685 0.0
C279 C 0.32332 0.38155 0.26148 0.0
C280 C 0.33194 0.38724 0.23126 0.0
C281 C 0.35379 0.39767 0.22393 0.0
C282 C 0.36742 0.40288 0.2467 0.0
C283 C 0.35907 0.39673 0.27699 0.0
C284 C 0.33728 0.38613 0.28432 0.0
C285 C 0.30523 0.27384 0.27142 0.0
C286 C 0.32622 0.2939 0.34988 0.0
C287 C 0.25379 0.24241 0.36995 0.0
C288 C 0.23413 0.22688 0.37287 0.0
C289 C 0.21946 0.22511 0.40107 0.0
C290 C 0.20086 0.21034 0.40523 0.0
C291 C 0.19656 0.1969 0.38124 0.0
C292 C 0.21123 0.19876 0.35285 0.0
C293 C 0.22983 0.21374 0.34865 0.0
C294 C 0.25223 0.33688 0.35957 0.0
C295 C 0.23279 0.31087 0.27909 0.0
O296 O 0.28908 0.37068 0.29666 0.0
O297 O 0.29915 0.35088 0.25364 0.0
O298 O 0.30521 0.27774 0.29898 0.0
O299 O 0.29739 0.29761 0.25521 0.0
O300 O 0.31328 0.27516 0.3539 0.0
O301 O 0.31848 0.31614 0.3303 0.0
O302 O 0.27399 0.2366 0.34832 0.0
O303 O 0.24342 0.26941 0.37511 0.0
O304 O 0.25012 0.33257 0.33271 0.0
O305 O 0.26379 0.3134 0.37503 0.0
O306 O 0.24309 0.33183 0.27647 0.0
O307 O 0.24175 0.2888 0.29848 0.0
H308 H 0.32144 0.38403 0.21324 0.0
H309 H 0.35943 0.40249 0.20041 0.0
H310 H 0.36935 0.40017 0.29506 0.0
H311 H 0.33124 0.38181 0.30784 0.0
H312 H 0.22256 0.23503 0.42006 0.0
H313 H 0.19028 0.20896 0.42747 0.0
H314 H 0.20818 0.18881 0.33387 0.0
H315 H 0.24082 0.21498 0.3266 0.0
Pr316 Pr 0.79132 0.31384 0.32829 0.0
Pr317 Pr 0.79645 0.26521 0.28314 0.0
C318 C 0.77538 0.35653 0.36588 0.0
C319 C 0.78447 0.37455 0.38312 0.0
C320 C 0.80917 0.36373 0.39702 0.0
C321 C 0.81646 0.38104 0.41459 0.0
C322 C 0.79928 0.40949 0.41836 0.0
C323 C 0.77464 0.42019 0.40427 0.0
C324 C 0.76731 0.40285 0.38689 0.0
C325 C 0.83736 0.26406 0.3325 0.0
C326 C 0.74846 0.27514 0.34095 0.0
C327 C 0.81327 0.2168 0.25366 0.0
C328 C 0.80498 0.20195 0.23193 0.0
C329 C 0.78218 0.21584 0.21544 0.0
C330 C 0.7749 0.20108 0.19482 0.0
C331 C 0.7902 0.17216 0.19056 0.0
C332 C 0.81315 0.15854 0.20703 0.0
C333 C 0.82044 0.1733 0.22746 0.0
C334 C 0.7542 0.31654 0.26802 0.0
C335 C 0.83462 0.30809 0.26742 0.0
O336 O 0.78147 0.32959 0.37515 0.0
O337 O 0.77664 0.36099 0.33644 0.0
O338 O 0.81342 0.26495 0.32833 0.0
O339 O 0.83739 0.28915 0.33735 0.0
O340 O 0.76334 0.25727 0.32037 0.0
O341 O 0.75381 0.29824 0.34571 0.0
O342 O 0.8192 0.23953 0.24329 0.0
O343 O 0.79976 0.21922 0.28056 0.0
O344 O 0.76988 0.31154 0.28851 0.0
O345 O 0.76053 0.29371 0.25329 0.0
O346 O 0.81757 0.3266 0.28634 0.0
O347 O 0.83316 0.28236 0.26607 0.0
H348 H 0.82272 0.3419 0.39442 0.0
H349 H 0.83569 0.37229 0.42492 0.0
H350 H 0.76079 0.44188 0.40704 0.0
H351 H 0.74803 0.41149 0.37661 0.0
H352 H 0.77002 0.23802 0.21859 0.0
H353 H 0.75704 0.21214 0.18261 0.0
H354 H 0.82568 0.13646 0.20392 0.0
H355 H 0.83823 0.1623 0.23981 0.0
Pr356 Pr 0.82183 0.79838 0.30478 0.0
Pr357 Pr 0.78721 0.77586 0.27194 0.0
C358 C 0.86347 0.81457 0.31735 0.0
C359 C 0.87016 0.83596 0.33212 0.0
C360 C 0.86109 0.84192 0.36242 0.0
C361 C 0.86883 0.86162 0.37588 0.0
C362 C 0.88555 0.87581 0.35918 0.0
C363 C 0.89435 0.86991 0.32882 0.0
C364 C 0.8868 0.85014 0.3155 0.0
C365 C 0.77094 0.80974 0.34139 0.0
C366 C 0.77987 0.84192 0.25689 0.0
C367 C 0.75547 0.75289 0.24761 0.0
C368 C 0.74602 0.72901 0.24384 0.0
C369 C 0.7533 0.71642 0.21602 0.0
C370 C 0.742 0.69657 0.20941 0.0
C371 C 0.72297 0.68888 0.23043 0.0
C372 C 0.71661 0.70038 0.25895 0.0
C373 C 0.72793 0.72049 0.26558 0.0
C374 C 0.83384 0.78133 0.23572 0.0
C375 C 0.82128 0.73411 0.32685 0.0
O376 O 0.85102 0.82324 0.29275 0.0
O377 O 0.85505 0.79581 0.33431 0.0
O378 O 0.77682 0.7977 0.31664 0.0
O379 O 0.79065 0.81855 0.3463 0.0
O380 O 0.76583 0.82427 0.26036 0.0
O381 O 0.80287 0.83595 0.26973 0.0
O382 O 0.74648 0.76808 0.27132 0.0
O383 O 0.78081 0.75025 0.23712 0.0
O384 O 0.8344 0.77073 0.26297 0.0
O385 O 0.80912 0.7892 0.22762 0.0
O386 O 0.83434 0.75227 0.32766 0.0
O387 O 0.80302 0.73803 0.30749 0.0
H388 H 0.84817 0.83129 0.37574 0.0
H389 H 0.86162 0.86588 0.39926 0.0
H390 H 0.90761 0.88013 0.3155 0.0
H391 H 0.89422 0.8457 0.29217 0.0
H392 H 0.76704 0.72273 0.19877 0.0
H393 H 0.74762 0.68778 0.18744 0.0
H394 H 0.70191 0.69488 0.27556 0.0
H395 H 0.72185 0.72996 0.28718 0.0
Pr396 Pr 0.2808 0.79694 0.28176 0.0
Pr397 Pr 0.31378 0.80929 0.32247 0.0
C398 C 0.23669 0.80307 0.25269 0.0
C399 C 0.22738 0.79904 0.22448 0.0
C400 C 0.23969 0.77364 0.20963 0.0
C401 C 0.22732 0.76841 0.18599 0.0
C402 C 0.20249 0.78848 0.17702 0.0
C403 C 0.19156 0.81482 0.19033 0.0
C404 C 0.20392 0.82002 0.21392 0.0
C405 C 0.33384 0.75937 0.26565 0.0
C406 C 0.31366 0.84291 0.257 0.0
C407 C 0.3414 0.81713 0.36549 0.0
C408 C 0.35915 0.80887 0.39029 0.0
C409 C 0.34778 0.81921 0.41873 0.0
C410 C 0.36493 0.8193 0.44021 0.0
C411 C 0.39372 0.80915 0.43345 0.0
C412 C 0.40505 0.79588 0.40629 0.0
C413 C 0.38787 0.79584 0.38475 0.0
C414 C 0.26062 0.84961 0.32069 0.0
C415 C 0.29462 0.75232 0.3409 0.0
O416 O 0.2472 0.82326 0.25244 0.0
O417 O 0.24869 0.78029 0.26959 0.0
O418 O 0.32865 0.77624 0.28659 0.0
O419 O 0.31244 0.76303 0.25152 0.0
O420 O 0.32935 0.83218 0.27925 0.0
O421 O 0.29216 0.8351 0.25513 0.0
O422 O 0.35236 0.8125 0.33768 0.0
O423 O 0.316 0.81728 0.37063 0.0
O424 O 0.26617 0.82292 0.32361 0.0
O425 O 0.2829 0.85596 0.31705 0.0
O426 O 0.27741 0.76239 0.31995 0.0
O427 O 0.31206 0.76513 0.34505 0.0
H428 H 0.25799 0.75727 0.21729 0.0
H429 H 0.23611 0.74787 0.17622 0.0
H430 H 0.17265 0.83079 0.18354 0.0
H431 H 0.19432 0.83986 0.22497 0.0
H432 H 0.32565 0.82943 0.42347 0.0
H433 H 0.35561 0.82966 0.46093 0.0
H434 H 0.42723 0.7873 0.40085 0.0
H435 H 0.39716 0.78749 0.36308 0.0
Pr436 Pr 0.2901 0.8118 0.82397 0.0
Pr437 Pr 0.28494 0.76651 0.7933 0.0
C438 C 0.28249 0.85806 0.85408 0.0
C439 C 0.27089 0.8683 0.88408 0.0
C440 C 0.27718 0.8504 0.91035 0.0
C441 C 0.26768 0.86136 0.9387 0.0
C442 C 0.25154 0.89026 0.94112 0.0
C443 C 0.24407 0.90762 0.91471 0.0
C444 C 0.25373 0.89672 0.88645 0.0
C445 C 0.32872 0.7586 0.8396 0.0
C446 C 0.24181 0.7835 0.85377 0.0
C447 C 0.29205 0.72023 0.76335 0.0
C448 C 0.29168 0.71267 0.7325 0.0
C449 C 0.26662 0.71525 0.72166 0.0
C450 C 0.26659 0.70398 0.6945 0.0
C451 C 0.29161 0.6898 0.67772 0.0
C452 C 0.31653 0.68934 0.68732 0.0
C453 C 0.31658 0.7005 0.71458 0.0
C454 C 0.24709 0.81934 0.77566 0.0
C455 C 0.33365 0.79493 0.76429 0.0
O456 O 0.26492 0.85687 0.83629 0.0
O457 O 0.30554 0.83635 0.85262 0.0
O458 O 0.30342 0.76288 0.83768 0.0
O459 O 0.33408 0.78209 0.83491 0.0
O460 O 0.2552 0.76196 0.83667 0.0
O461 O 0.25002 0.8058 0.85157 0.0
O462 O 0.31259 0.72779 0.76872 0.0
O463 O 0.2685 0.73497 0.77735 0.0
O464 O 0.27207 0.81527 0.77898 0.0
O465 O 0.2421 0.79569 0.77888 0.0
O466 O 0.32001 0.81661 0.7811 0.0
O467 O 0.32568 0.77239 0.76677 0.0
H468 H 0.29004 0.82819 0.909 0.0
H469 H 0.27359 0.84748 0.95868 0.0
H470 H 0.23204 0.93008 0.91577 0.0
H471 H 0.24851 0.91075 0.86641 0.0
H472 H 0.24704 0.72461 0.73487 0.0
H473 H 0.24705 0.70446 0.68793 0.0
H474 H 0.33612 0.67889 0.67461 0.0
H475 H 0.33621 0.69838 0.72228 0.0
Pr476 Pr 0.32369 0.28796 0.8261 0.0
Pr477 Pr 0.2804 0.27484 0.80196 0.0
C478 C 0.36557 0.30458 0.83735 0.0
C479 C 0.37075 0.32886 0.84833 0.0
C480 C 0.36044 0.33846 0.87736 0.0
C481 C 0.36725 0.36028 0.88781 0.0
C482 C 0.38434 0.373 0.86939 0.0
C483 C 0.39405 0.36377 0.84014 0.0
C484 C 0.38739 0.34189 0.82979 0.0
C485 C 0.27315 0.3066 0.86271 0.0
C486 C 0.29188 0.33059 0.76967 0.0
C487 C 0.23622 0.2617 0.79141 0.0
C488 C 0.22642 0.2388 0.78526 0.0
C489 C 0.24368 0.21503 0.76968 0.0
C490 C 0.23263 0.19591 0.76009 0.0
C491 C 0.20416 0.20051 0.76572 0.0
C492 C 0.18734 0.22351 0.78267 0.0
C493 C 0.19839 0.24243 0.79237 0.0
C494 C 0.33052 0.25695 0.76511 0.0
C495 C 0.31706 0.2286 0.85369 0.0
O496 O 0.35636 0.30827 0.81092 0.0
O497 O 0.35455 0.28945 0.85674 0.0
O498 O 0.27519 0.30976 0.83415 0.0
O499 O 0.29724 0.29552 0.87242 0.0
O500 O 0.27145 0.32067 0.77782 0.0
O501 O 0.31488 0.31968 0.78296 0.0
O502 O 0.24245 0.26253 0.81855 0.0
O503 O 0.25264 0.26898 0.77029 0.0
O504 O 0.32862 0.25346 0.79365 0.0
O505 O 0.30641 0.268 0.75535 0.0
O506 O 0.33587 0.2409 0.8467 0.0
O507 O 0.29344 0.23883 0.84133 0.0
H508 H 0.34743 0.32891 0.89215 0.0
H509 H 0.35926 0.36711 0.91035 0.0
H510 H 0.40757 0.37282 0.82553 0.0
H511 H 0.39571 0.33476 0.80741 0.0
H512 H 0.26542 0.21187 0.76394 0.0
H513 H 0.24606 0.17839 0.74702 0.0
H514 H 0.16542 0.2273 0.78776 0.0
H515 H 0.18477 0.26061 0.80441 0.0
Pr516 Pr 0.77182 0.29247 0.78803 0.0
Pr517 Pr 0.81247 0.3053 0.82313 0.0
C518 C 0.73106 0.28984 0.75731 0.0
C519 C 0.71428 0.2975 0.73108 0.0
C520 C 0.71942 0.27758 0.70923 0.0
C521 C 0.7017 0.28229 0.68668 0.0
C522 C 0.67814 0.30706 0.68528 0.0
C523 C 0.67328 0.32736 0.70679 0.0
C524 C 0.69111 0.32262 0.72944 0.0
C525 C 0.82604 0.25403 0.78103 0.0
C526 C 0.79838 0.34256 0.75975 0.0
C527 C 0.85357 0.30719 0.85378 0.0
C528 C 0.87106 0.29984 0.87933 0.0
C529 C 0.87351 0.32219 0.89391 0.0
C530 C 0.89224 0.31678 0.91552 0.0
C531 C 0.90909 0.28878 0.92332 0.0
C532 C 0.9059 0.26618 0.90965 0.0
C533 C 0.88721 0.27166 0.88767 0.0
C534 C 0.7582 0.34383 0.8306 0.0
C535 C 0.78549 0.25537 0.85106 0.0
O536 O 0.72684 0.3082 0.77773 0.0
O537 O 0.75672 0.2728 0.75357 0.0
O538 O 0.81971 0.28087 0.78027 0.0
O539 O 0.8043 0.24653 0.78494 0.0
O540 O 0.81748 0.33247 0.7788 0.0
O541 O 0.77805 0.3324 0.76025 0.0
O542 O 0.8574 0.28874 0.83356 0.0
O543 O 0.82807 0.32451 0.8578 0.0
O544 O 0.76452 0.31701 0.83071 0.0
O545 O 0.78008 0.35104 0.82795 0.0
O546 O 0.76604 0.26633 0.8326 0.0
O547 O 0.80621 0.265 0.8504 0.0
H548 H 0.73668 0.25772 0.71017 0.0
H549 H 0.70594 0.26586 0.67101 0.0
H550 H 0.65552 0.3468 0.70632 0.0
H551 H 0.6863 0.33829 0.74611 0.0
H552 H 0.86146 0.34411 0.88788 0.0
H553 H 0.89385 0.33467 0.92583 0.0
H554 H 0.91862 0.24437 0.91507 0.0
H555 H 0.88591 0.25396 0.87673 0.0
Pr556 Pr 0.79388 0.81985 0.77071 0.0
Pr557 Pr 0.77186 0.77616 0.81591 0.0
C558 C 0.81601 0.85666 0.73945 0.0
C559 C 0.83713 0.87042 0.73685 0.0
C560 C 0.85377 0.86942 0.70947 0.0
C561 C 0.87333 0.88304 0.7053 0.0
C562 C 0.87674 0.89805 0.72847 0.0
C563 C 0.86021 0.8988 0.75611 0.0
C564 C 0.84056 0.88507 0.7603 0.0
C565 C 0.79718 0.76937 0.747 0.0
C566 C 0.8322 0.78047 0.82513 0.0
C567 C 0.75756 0.73076 0.83783 0.0
C568 C 0.734 0.72177 0.85101 0.0
C569 C 0.73385 0.70968 0.88068 0.0
C570 C 0.71357 0.69803 0.89246 0.0
C571 C 0.693 0.69814 0.87479 0.0
C572 C 0.69254 0.71118 0.84545 0.0
C573 C 0.71287 0.72281 0.83364 0.0
C574 C 0.75569 0.82978 0.84074 0.0
C575 C 0.73111 0.82045 0.76594 0.0
O576 O 0.79467 0.86474 0.75977 0.0
O577 O 0.82483 0.82938 0.73517 0.0
O578 O 0.80298 0.77092 0.77329 0.0
O579 O 0.79033 0.79404 0.73225 0.0
O580 O 0.81674 0.76406 0.82921 0.0
O581 O 0.82645 0.80361 0.8065 0.0
O582 O 0.75839 0.73928 0.80917 0.0
O583 O 0.76679 0.74482 0.85449 0.0
O584 O 0.76881 0.82233 0.81573 0.0
O585 O 0.74906 0.80857 0.8543 0.0
O586 O 0.74749 0.83592 0.76067 0.0
O587 O 0.73724 0.7966 0.78343 0.0
H588 H 0.85134 0.85838 0.69102 0.0
H589 H 0.88529 0.88239 0.68357 0.0
H590 H 0.8625 0.90992 0.77454 0.0
H591 H 0.82801 0.88606 0.78169 0.0
H592 H 0.74991 0.70851 0.89454 0.0
H593 H 0.71427 0.68847 0.91528 0.0
H594 H 0.67713 0.71137 0.83116 0.0
H595 H 0.71242 0.73185 0.81062 0.0
H596 H 0.06125 0.13602 0.44577 0.0
H597 H 0.20387 0.14473 0.36092 0.0
H598 H 0.12149 0.06744 0.39712 0.0
H599 H 0.14561 0.21145 0.41358 0.0
H600 H 0.17328 0.11667 0.37262 0.0
H601 H 0.09184 0.16395 0.43428 0.0
C602 C 0.08103 0.12665 0.43299 0.0
C603 C 0.08872 0.09929 0.42234 0.0
C604 C 0.16716 0.13747 0.38159 0.0
C605 C 0.12372 0.13146 0.4086 0.0
C606 C 0.18452 0.1536 0.37469 0.0
C607 C 0.17736 0.18043 0.38639 0.0
C608 C 0.1424 0.14826 0.40025 0.0
C609 C 0.15216 0.19069 0.40444 0.0
C610 C 0.09842 0.14274 0.42619 0.0
C611 C 0.1145 0.08855 0.40544 0.0
N612 N 0.13564 0.17459 0.41084 0.0
N613 N 0.13101 0.10467 0.39903 0.0
H614 H 0.95483 0.09099 0.35304 0.0
H615 H 0.88999 0.26123 0.33613 0.0
H616 H 1.00252 0.14717 0.34319 0.0
H617 H 0.84164 0.20772 0.33051 0.0
H618 H 0.93121 0.21894 0.33883 0.0
H619 H 0.91322 0.13236 0.34427 0.0
C620 C 0.95668 0.1119 0.34861 0.0
C621 C 0.98233 0.11551 0.34893 0.0
C622 C 0.91168 0.21629 0.33689 0.0
C623 C 0.93466 0.163 0.33931 0.0
C624 C 0.88806 0.2405 0.33543 0.0
C625 C 0.8623 0.23802 0.33324 0.0
C626 C 0.90971 0.18912 0.3364 0.0
C627 C 0.86111 0.21057 0.33227 0.0
C628 C 0.93287 0.13553 0.34372 0.0
C629 C 0.98331 0.14321 0.34324 0.0
N630 N 0.88447 0.18713 0.33406 0.0
N631 N 0.9599 0.16577 0.33892 0.0
H632 H 0.94163 1.01341 0.38579 0.0
H633 H 0.90517 0.87 0.41445 0.0
H634 H 0.97533 0.94797 0.45456 0.0
H635 H 0.88651 0.92801 0.33585 0.0
H636 H 0.92393 0.90214 0.43488 0.0
H637 H 0.91432 0.98619 0.37284 0.0
C638 C 0.94322 0.99334 0.39826 0.0
C639 C 0.96123 0.98272 0.42092 0.0
C640 C 0.91553 0.90791 0.41327 0.0
C641 C 0.92978 0.95145 0.40632 0.0
C642 C 0.90467 0.88967 0.40169 0.0
C643 C 0.89452 0.89622 0.37327 0.0
C644 C 0.91602 0.93293 0.39639 0.0
C645 C 0.89455 0.9219 0.35761 0.0
C646 C 0.92754 0.97784 0.39091 0.0
C647 C 0.9618 0.95697 0.43691 0.0
N648 N 0.90525 0.93922 0.3693 0.0
N649 N 0.94652 0.94204 0.42908 0.0
H650 H 0.1268 1.0114 0.31408 0.0
H651 H 0.21013 0.84382 0.34135 0.0
H652 H 0.09168 0.95487 0.36983 0.0
H653 H 0.24752 0.90585 0.30407 0.0
H654 H 0.16494 0.88247 0.34657 0.0
H655 H 0.16946 0.9712 0.3045 0.0
C656 C 0.12791 0.9905 0.3241 0.0
C657 C 0.10552 0.98666 0.34288 0.0
C658 C 0.18306 0.88753 0.33713 0.0
C659 C 0.15465 0.94026 0.33203 0.0
C660 C 0.20879 0.86548 0.33406 0.0
C661 C 0.23263 0.87166 0.32245 0.0
C662 C 0.18119 0.91583 0.32813 0.0
C663 C 0.22974 0.90011 0.31336 0.0
C664 C 0.15239 0.96751 0.31872 0.0
C665 C 0.10838 0.95893 0.35526 0.0
N666 N 0.20461 0.92102 0.31639 0.0
N667 N 0.13247 0.93685 0.34969 0.0
H668 H 0.12656 0.99301 0.77166 0.0
H669 H 0.20025 0.82653 0.75072 0.0
H670 H 0.10913 0.94852 0.7037 0.0
H671 H 0.24459 0.87464 0.78256 0.0
H672 H 0.16243 0.87066 0.74103 0.0
H673 H 0.16543 0.9493 0.78434 0.0
C674 C 0.13057 0.97394 0.75989 0.0
C675 C 0.11453 0.97422 0.73678 0.0
C676 C 0.18042 0.87169 0.75007 0.0
C677 C 0.15864 0.92467 0.75088 0.0
C678 C 0.2021 0.84647 0.75557 0.0
C679 C 0.2257 0.84686 0.76741 0.0
C680 C 0.18186 0.89775 0.75695 0.0
C681 C 0.22681 0.87341 0.77333 0.0
C682 C 0.15289 0.94922 0.76681 0.0
C683 C 0.12091 0.94918 0.72174 0.0
N684 N 0.20504 0.89787 0.76828 0.0
N685 N 0.14227 0.92551 0.72913 0.0
H686 H 0.10081 0.14486 0.66802 0.0
H687 H 0.22134 0.14202 0.7649 0.0
H688 H 0.1434 0.07123 0.72378 0.0
H689 H 0.15836 0.21905 0.7352 0.0
H690 H 0.19892 0.11398 0.74266 0.0
H691 H 0.12829 0.17053 0.68455 0.0
C692 C 0.11628 0.13396 0.68334 0.0
C693 C 0.11975 0.10597 0.6947 0.0
C694 C 0.1901 0.13703 0.74103 0.0
C695 C 0.15112 0.13519 0.71387 0.0
C696 C 0.20289 0.15299 0.75361 0.0
C697 C 0.19149 0.18287 0.75217 0.0
C698 C 0.16606 0.15112 0.72648 0.0
C699 C 0.16757 0.19605 0.73727 0.0
C700 C 0.13178 0.14867 0.69298 0.0
C701 C 0.1399 0.09293 0.71481 0.0
N702 N 0.1557 0.18012 0.72499 0.0
N703 N 0.15482 0.10765 0.72383 0.0
H704 H 0.9779 0.1477 0.69214 0.0
H705 H 0.84579 0.20115 0.80861 0.0
H706 H 0.97451 0.10438 0.78006 0.0
H707 H 0.87033 0.25883 0.74288 0.0
H708 H 0.89099 0.1642 0.7976 0.0
H709 H 0.93674 0.18691 0.70867 0.0
C710 C 0.96862 0.14645 0.71507 0.0
C711 C 0.97981 0.12255 0.73474 0.0
C712 C 0.88663 0.18501 0.78581 0.0
C713 C 0.93215 0.16771 0.75376 0.0
C714 C 0.86085 0.20607 0.79201 0.0
C715 C 0.85439 0.23305 0.77661 0.0
C716 C 0.90582 0.19065 0.76336 0.0
C717 C 0.87459 0.23837 0.75539 0.0
C718 C 0.94512 0.16902 0.7245 0.0
C719 C 0.96671 0.12236 0.76417 0.0
N720 N 0.89923 0.21721 0.74901 0.0
N721 N 0.94337 0.14444 0.77268 0.0
H722 H 0.95919 0.02207 0.72335 0.0
H723 H 0.92864 0.88087 0.69782 0.0
H724 H 1.00974 0.96001 0.66092 0.0
H725 H 0.87073 0.95071 0.74678 0.0
H726 H 0.96001 0.90803 0.68654 0.0
H727 H 0.92782 0.99489 0.73441 0.0
C728 C 0.96368 1.00268 0.71198 0.0
C729 C 0.98715 0.99325 0.69125 0.0
C730 C 0.94044 0.9174 0.69975 0.0
C731 C 0.95134 0.96192 0.70383 0.0
C732 C 0.92246 0.90194 0.70617 0.0
C733 C 0.89686 0.91354 0.72319 0.0
C734 C 0.93292 0.94467 0.71053 0.0
C735 C 0.89032 0.94072 0.73389 0.0
C736 C 0.94572 0.98722 0.71822 0.0
C737 C 0.99177 0.96818 0.67685 0.0
N738 N 0.90818 0.95535 0.72734 0.0
N739 N 0.97412 0.95328 0.68355 0.0
H740 H 0.33002 0.15059 0.14043 0.0
H741 H 0.29487 0.22602 0.29681 0.0
H742 H 0.2664 0.14204 0.2086 0.0
H743 H 0.32829 0.26 0.21504 0.0
H744 H 0.29537 0.1857 0.2697 0.0
H745 H 0.34022 0.18173 0.17259 0.0
C746 C 0.3185 0.15497 0.16234 0.0
C747 C 0.29717 0.14404 0.17179 0.0
C748 C 0.30312 0.20172 0.25791 0.0
C749 C 0.3088 0.17925 0.20867 0.0
C750 C 0.30307 0.22454 0.27348 0.0
C751 C 0.31143 0.24632 0.25816 0.0
C752 C 0.31212 0.20058 0.22697 0.0
C753 C 0.32156 0.24362 0.22764 0.0
C754 C 0.32423 0.17276 0.18059 0.0
C755 C 0.2827 0.15046 0.20032 0.0
N756 N 0.32152 0.22125 0.21299 0.0
N757 N 0.28874 0.1677 0.21776 0.0
H758 H 0.97721 0.30211 0.13985 0.0
H759 H 0.84831 0.35686 0.26539 0.0
H760 H 0.95552 0.38213 0.18121 0.0
H761 H 0.87237 0.27635 0.22453 0.0
H762 H 0.88611 0.36756 0.23373 0.0
H763 H 0.93758 0.29375 0.16903 0.0
C764 C 0.96408 0.31816 0.15476 0.0
C765 C 0.9701 0.34296 0.15785 0.0
C766 C 0.88306 0.34759 0.23165 0.0
C767 C 0.92432 0.33308 0.1921 0.0
C768 C 0.86141 0.34145 0.24974 0.0
C769 C 0.85699 0.3156 0.2478 0.0
C770 C 0.90053 0.32778 0.21133 0.0
C771 C 0.87483 0.29653 0.22702 0.0
C772 C 0.94141 0.3132 0.1717 0.0
C773 C 0.95214 0.36256 0.17815 0.0
N774 N 0.89569 0.30298 0.20974 0.0
N775 N 0.93023 0.35718 0.19447 0.0
H776 H 0.78949 0.9732 0.11734 0.0
H777 H 0.76463 0.83688 0.20259 0.0
H778 H 0.82242 0.89103 0.07945 0.0
H779 H 0.78835 0.89318 0.25117 0.0
H780 H 0.77167 0.8639 0.15551 0.0
H781 H 0.77639 0.95046 0.16537 0.0
C782 C 0.79396 0.95037 0.11926 0.0
C783 C 0.80719 0.93383 0.09466 0.0
C784 C 0.77466 0.87069 0.17661 0.0
C785 C 0.79158 0.90807 0.14875 0.0
C786 C 0.77022 0.85563 0.20354 0.0
C787 C 0.77569 0.863 0.23087 0.0
C788 C 0.78389 0.89373 0.17713 0.0
C789 C 0.7837 0.887 0.23059 0.0
C790 C 0.7865 0.9375 0.1465 0.0
C791 C 0.81254 0.90436 0.09807 0.0
N792 N 0.78756 0.9016 0.20407 0.0
N793 N 0.80444 0.8924 0.12458 0.0
H794 H 0.07988 0.72802 0.1283 0.0
H795 H 0.21965 0.76084 0.12421 0.0
H796 H 0.13519 0.72194 0.04694 0.0
H797 H 0.14774 0.79626 0.18666 0.0
H798 H 0.19235 0.74149 0.09724 0.0
H799 H 0.10896 0.74628 0.15316 0.0
C800 C 0.09862 0.72976 0.11597 0.0
C801 C 0.10543 0.72318 0.08569 0.0
C802 C 0.18259 0.75377 0.11668 0.0
C803 C 0.13837 0.74469 0.11364 0.0
C804 C 0.19809 0.76479 0.132 0.0
C805 C 0.1859 0.78015 0.15765 0.0
C806 C 0.15501 0.7577 0.12758 0.0
C807 C 0.15788 0.7848 0.16681 0.0
C808 C 0.11494 0.74064 0.12996 0.0
C809 C 0.1295 0.72664 0.07042 0.0
N810 N 0.14349 0.77335 0.15198 0.0
N811 N 0.14518 0.7372 0.08455 0.0
H812 H 0.287 0.97667 0.07235 0.0
H813 H 0.2035 0.92999 0.96399 0.0
H814 H 0.20948 0.03146 0.04025 0.0
H815 H 0.28672 0.88133 0.98442 0.0
H816 H 0.19929 0.96103 1.00436 0.0
H817 H 0.28095 0.93656 0.0524 0.0
C818 C 0.2686 0.98058 0.06129 0.0
C819 C 0.2493 1.00822 0.05701 0.0
C820 C 0.21825 0.94317 1.00043 0.0
C821 C 0.24217 0.96154 0.0344 0.0
C822 C 0.22065 0.92546 0.97744 0.0
C823 C 0.24574 0.90356 0.97035 0.0
C824 C 0.24117 0.93899 0.01623 0.0
C825 C 0.26707 0.89813 0.98892 0.0
C826 C 0.26512 0.95734 0.05005 0.0
C827 C 0.22546 1.01101 0.04338 0.0
N828 N 0.26451 0.91613 0.01061 0.0
N829 N 0.22281 0.98806 0.03214 0.0
H830 H 0.10458 0.36484 0.95489 0.0
H831 H 0.26965 0.29848 0.9234 0.0
H832 H 0.15994 0.32119 0.0222 0.0
H833 H 0.2178 0.33191 0.85077 0.0
H834 H 0.22888 0.30918 0.95934 0.0
H835 H 0.14447 0.35566 0.91646 0.0
C836 C 0.12506 0.3535 0.96171 0.0
C837 C 0.12874 0.34378 0.99206 0.0
C838 C 0.22618 0.31431 0.93561 0.0
C839 C 0.1746 0.3331 0.94793 0.0
C840 C 0.2496 0.30825 0.91491 0.0
C841 C 0.24732 0.31438 0.88385 0.0
C842 C 0.19979 0.32681 0.92557 0.0
C843 C 0.22059 0.32691 0.87448 0.0
C844 C 0.14783 0.34811 0.93965 0.0
C845 C 0.15586 0.32885 0.99924 0.0
N846 N 0.19784 0.33276 0.89526 0.0
N847 N 0.17755 0.32409 0.97749 0.0
H848 H 0.81732 0.10477 0.97589 0.0
H849 H 0.76049 0.21764 0.84206 0.0
H850 H 0.81215 0.07928 0.88861 0.0
H851 H 0.81446 0.23143 0.90001 0.0
H852 H 0.76909 0.16975 0.86614 0.0
H853 H 0.80754 0.15425 0.95466 0.0
C854 C 0.81429 0.10972 0.95221 0.0
C855 C 0.81582 0.08819 0.93374 0.0
C856 C 0.77879 0.18343 0.87373 0.0
C857 C 0.80368 0.14427 0.9098 0.0
C858 C 0.77367 0.21087 0.86029 0.0
C859 C 0.78678 0.2286 0.86906 0.0
C860 C 0.79667 0.17383 0.89652 0.0
C861 C 0.80395 0.21846 0.89256 0.0
C862 C 0.8087 0.13775 0.94019 0.0
C863 C 0.81151 0.09538 0.9033 0.0
N864 N 0.80838 0.1917 0.90558 0.0
N865 N 0.80528 0.12295 0.8923 0.0
H866 H 0.9532 0.70335 0.95351 0.0
H867 H 0.86634 0.81127 0.82821 0.0
H868 H 0.96254 0.78443 0.92465 0.0
H869 H 0.85217 0.73387 0.86423 0.0
H870 H 0.90336 0.80072 0.86105 0.0
H871 H 0.91782 0.71322 0.91893 0.0
C872 C 0.94796 0.72318 0.93978 0.0
C873 C 0.96102 0.74304 0.94202 0.0
C874 C 0.8922 0.78601 0.86168 0.0
C875 C 0.92017 0.75463 0.90228 0.0
C876 C 0.87109 0.79195 0.84282 0.0
C877 C 0.856 0.77345 0.84338 0.0
C878 C 0.89838 0.76135 0.88124 0.0
C879 C 0.86313 0.74882 0.86295 0.0
C880 C 0.92759 0.72889 0.9201 0.0
C881 C 0.9529 0.76862 0.92394 0.0
N882 N 0.88373 0.74354 0.88107 0.0
N883 N 0.93308 0.77363 0.9048 0.0
H884 H 0.13909 0.32045 0.12615 0.0
H885 H 0.19918 0.27869 0.28745 0.0
H886 H 0.10309 0.27952 0.20078 0.0
H887 H 0.21877 0.34159 0.22475 0.0
H888 H 0.16733 0.27516 0.25367 0.0
H889 H 0.17202 0.32421 0.15909 0.0
C890 C 0.13833 0.31187 0.1493 0.0
C891 C 0.11822 0.29952 0.16058 0.0
C892 C 0.17844 0.28987 0.24727 0.0
C893 C 0.15594 0.30391 0.19854 0.0
C894 C 0.19671 0.29195 0.26663 0.0
C895 C 0.21173 0.31063 0.25918 0.0
C896 C 0.17518 0.30625 0.21975 0.0
C897 C 0.20752 0.32711 0.23168 0.0
C898 C 0.157 0.31428 0.16818 0.0
C899 C 0.11812 0.28918 0.19097 0.0
N900 N 0.18983 0.32439 0.21291 0.0
N901 N 0.13663 0.29152 0.20872 0.0
H902 H 0.08824 0.75929 0.94039 0.0
H903 H 0.21363 0.82084 0.89759 0.0
H904 H 0.10045 0.82245 0.98995 0.0
H905 H 0.21074 0.74765 0.85729 0.0
H906 H 0.17087 0.82331 0.92923 0.0
H907 H 0.13066 0.75682 0.90741 0.0
C908 C 0.09954 0.77292 0.94421 0.0
C909 C 0.09033 0.79121 0.96821 0.0
C910 C 0.17955 0.80661 0.91357 0.0
C911 C 0.13958 0.78827 0.93023 0.0
C912 C 0.20416 0.80512 0.89539 0.0
C913 C 0.21629 0.78386 0.87459 0.0
C914 C 0.16629 0.7869 0.91105 0.0
C915 C 0.20255 0.7643 0.87303 0.0
C916 C 0.12399 0.77133 0.9254 0.0
C917 C 0.10639 0.80804 0.9719 0.0
N918 N 0.17842 0.76636 0.89078 0.0
N919 N 0.12994 0.80617 0.9533 0.0
H920 H 0.35665 0.12171 0.02085 0.0
H921 H 0.28506 0.19506 0.86983 0.0
H922 H 0.28268 0.11375 0.99511 0.0
H923 H 0.3573 0.2085 0.89369 0.0
H924 H 0.28783 0.1607 0.91294 0.0
H925 H 0.36136 0.1486 0.97223 0.0
C926 C 0.34191 0.12485 1.00461 0.0
C927 C 0.31944 0.11511 0.01184 0.0
C928 C 0.30328 0.17091 0.90874 0.0
C929 C 0.32425 0.14639 0.95656 0.0
C930 C 0.30174 0.1906 0.88392 0.0
C931 C 0.32092 0.20493 0.8779 0.0
C932 C 0.32406 0.16536 0.92822 0.0
C933 C 0.34206 0.19801 0.89726 0.0
C934 C 0.3444 0.14048 0.977 0.0
C935 C 0.30047 0.12059 0.99034 0.0
N936 N 0.34292 0.17897 0.92161 0.0
N937 N 0.30324 0.13582 0.96394 0.0
H938 H 1.0054 0.24848 0.07878 0.0
H939 H 0.94548 0.31714 0.92258 0.0
H940 H 0.04401 0.29488 0.01235 0.0
H941 H 0.92248 0.24911 0.97178 0.0
H942 H 0.97997 0.31055 0.95745 0.0
H943 H 0.97399 0.2487 0.04192 0.0
C944 C 1.00764 0.25829 0.05637 0.0
C945 C 0.02748 0.27174 0.04885 0.0
C946 C 0.96753 0.29691 0.96064 0.0
C947 C 0.99112 0.27258 1.00675 0.0
C948 C 0.94764 0.3008 0.9408 0.0
C949 C 0.93085 0.28378 0.94428 0.0
C950 C 0.97068 0.27602 0.98462 0.0
C951 C 0.935 0.26266 0.96816 0.0
C952 C 0.9896 0.25849 0.03537 0.0
C953 C 0.02914 0.28426 0.01942 0.0
N954 N 0.95429 0.25955 0.9876 0.0
N955 N 1.01108 0.28464 0.99973 0.0
H956 H 0.80447 0.95809 0.90278 0.0
H957 H 0.72678 0.8488 0.89443 0.0
H958 H 0.73719 0.95471 0.96838 0.0
H959 H 0.77905 0.87011 0.82019 0.0
H960 H 0.72771 0.88891 0.92092 0.0
H961 H 0.79299 0.92798 0.87118 0.0
C962 C 0.78688 0.95137 0.91026 0.0
C963 C 0.77173 0.95892 0.93819 0.0
C964 C 0.7386 0.88509 0.89864 0.0
C965 C 0.75881 0.92359 0.90237 0.0
C966 C 0.73811 0.8622 0.88352 0.0
C967 C 0.75298 0.85607 0.85512 0.0
C968 C 0.75439 0.90172 0.88541 0.0
C969 C 0.7673 0.87407 0.84201 0.0
C970 C 0.78034 0.93411 0.8922 0.0
C971 C 0.74922 0.94955 0.94685 0.0
N972 N 0.76792 0.89581 0.8574 0.0
N973 N 0.74371 0.93191 0.92921 0.0
H974 H 0.9244 0.79805 0.06233 0.0
H975 H 0.89156 0.76117 0.24 0.0
H976 H 0.98938 0.76153 0.12061 0.0
H977 H 0.83038 0.80358 0.17816 0.0
H978 H 0.92809 0.76248 0.19888 0.0
H979 H 0.89017 0.80257 0.10621 0.0
C980 C 0.9315 0.79197 0.08456 0.0
C981 C 0.95993 0.78045 0.08771 0.0
C982 C 0.90661 0.77156 0.19447 0.0
C983 C 0.92044 0.78401 0.1387 0.0
C984 C 0.88573 0.77079 0.218 0.0
C985 C 0.85763 0.78207 0.21277 0.0
C986 C 0.89939 0.78366 0.16544 0.0
C987 C 0.85157 0.79436 0.18359 0.0
C988 C 0.91188 0.79412 0.10975 0.0
C989 C 0.96773 0.77153 0.11716 0.0
N990 N 0.87201 0.79467 0.16138 0.0
N991 N 0.94822 0.7733 0.14137 0.0
H992 H 0.27008 1.00906 0.1724 0.0
H993 H 0.35825 0.86256 0.24727 0.0
H994 H 0.35697 0.9776 0.14126 0.0
H995 H 0.27735 0.87862 0.21931 0.0
H996 H 0.36063 0.90546 0.21611 0.0
H997 H 0.27448 0.96341 0.19865 0.0
C998 C 0.29029 0.99263 0.17108 0.0
C999 C 0.31321 0.99753 0.15429 0.0
C1000 C 0.34262 0.8992 0.21658 0.0
C1001 C 0.31827 0.9443 0.18512 0.0
C1002 C 0.34116 0.87481 0.23442 0.0
C1003 C 0.3175 0.86684 0.23611 0.0
C1004 C 0.31998 0.91608 0.20099 0.0
C1005 C 0.29604 0.88366 0.21889 0.0
C1006 C 0.29267 0.96634 0.1861 0.0
C1007 C 0.33871 0.97488 0.15376 0.0
N1008 N 0.29764 0.90751 0.20259 0.0
N1009 N 0.34064 0.94922 0.16916 0.0
H1010 H 0.77279 0.0351 0.10304 0.0
H1011 H 0.77396 0.18925 0.13339 0.0
H1012 H 0.7683 0.1014 0.03284 0.0
H1013 H 0.7885 0.11801 0.19938 0.0
H1014 H 0.76393 0.16066 0.09808 0.0
H1015 H 0.76943 0.06868 0.14054 0.0
C1016 C 0.76995 0.05712 0.09573 0.0
C1017 C 0.77008 0.06581 0.06504 0.0
C1018 C 0.76911 0.15139 0.12038 0.0
C1019 C 0.76766 0.10404 0.1075 0.0
C1020 C 0.77474 0.16773 0.14058 0.0
C1021 C 0.78235 0.15593 0.16933 0.0
C1022 C 0.77088 0.12312 0.12906 0.0
C1023 C 0.78322 0.12785 0.17731 0.0
C1024 C 0.76847 0.0762 0.11704 0.0
C1025 C 0.76751 0.09421 0.05646 0.0
N1026 N 0.77769 0.11244 0.1573 0.0
N1027 N 0.76669 0.1123 0.07756 0.0
H1028 H 0.62299 0.56539 0.92299 0.0
H1029 H 0.63708 0.7158 0.87 0.0
H1030 H 0.5527 0.64293 0.92824 0.0
H1031 H 0.70415 0.6458 0.90501 0.0
H1032 H 0.60585 0.68886 0.88649 0.0
H1033 H 0.65357 0.59381 0.91198 0.0
C1034 C 0.61413 0.58843 0.92199 0.0
C1035 C 0.58547 0.60194 0.92668 0.0
C1036 C 0.62736 0.67958 0.8908 0.0
C1037 C 0.61995 0.63452 0.91343 0.0
C1038 C 0.6452 0.69485 0.88125 0.0
C1039 C 0.67327 0.68306 0.88617 0.0
C1040 C 0.63778 0.65214 0.90484 0.0
C1041 C 0.68264 0.65586 0.90103 0.0
C1042 C 0.63147 0.60462 0.91579 0.0
C1043 C 0.57478 0.63184 0.9251 0.0
N1044 N 0.66501 0.64123 0.90956 0.0
N1045 N 0.592 0.64719 0.91822 0.0
H1046 H 0.43749 0.5806 0.83268 0.0
H1047 H 0.38055 0.74886 0.85362 0.0
H1048 H 0.48303 0.62595 0.86742 0.0
H1049 H 0.32767 0.70441 0.83401 0.0
H1050 H 0.41868 0.70377 0.85624 0.0
H1051 H 0.39793 0.62529 0.82964 0.0
C1052 C 0.43934 0.59995 0.83932 0.0
C1053 C 0.46377 0.59942 0.85024 0.0
C1054 C 0.39877 0.70367 0.85152 0.0
C1055 C 0.41842 0.65061 0.84706 0.0
C1056 C 0.37689 0.7295 0.85008 0.0
C1057 C 0.35079 0.73045 0.84373 0.0
C1058 C 0.39486 0.6783 0.84626 0.0
C1059 C 0.34739 0.70461 0.83923 0.0
C1060 C 0.41664 0.62542 0.83781 0.0
C1061 C 0.46474 0.62518 0.85884 0.0
N1062 N 0.36923 0.67957 0.8404 0.0
N1063 N 0.44251 0.64956 0.85705 0.0
H1064 H 0.4686 0.45332 0.96565 0.0
H1065 H 0.38796 0.42237 0.84001 0.0
H1066 H 0.4563 0.49994 0.87904 0.0
H1067 H 0.4014 0.37308 0.92491 0.0
H1068 H 0.40798 0.45484 0.85702 0.0
H1069 H 0.43931 0.42742 0.95415 0.0
C1070 C 0.45968 0.45831 0.94435 0.0
C1071 C 0.46536 0.47874 0.92324 0.0
C1072 C 0.40635 0.43708 0.87209 0.0
C1073 C 0.4316 0.44924 0.91001 0.0
C1074 C 0.395 0.41847 0.86232 0.0
C1075 C 0.39331 0.39477 0.88091 0.0
C1076 C 0.41633 0.43189 0.90061 0.0
C1077 C 0.40224 0.39111 0.90985 0.0
C1078 C 0.44284 0.44357 0.93786 0.0
C1079 C 0.45265 0.4846 0.89624 0.0
N1080 N 0.41366 0.40928 0.91869 0.0
N1081 N 0.43665 0.46978 0.89035 0.0
H1082 H 0.58005 0.43323 0.8532 0.0
H1083 H 0.74373 0.40109 0.83344 0.0
H1084 H 0.61746 0.49718 0.85646 0.0
H1085 H 0.70786 0.33518 0.83625 0.0
H1086 H 0.69751 0.43659 0.83944 0.0
H1087 H 0.6261 0.3976 0.84403 0.0
C1088 C 0.5979 0.43992 0.8517 0.0
C1089 C 0.5947 0.46842 0.85562 0.0
C1090 C 0.69961 0.41441 0.83874 0.0
C1091 C 0.64779 0.42736 0.84533 0.0
C1092 C 0.72608 0.39404 0.83534 0.0
C1093 C 0.72975 0.36502 0.83443 0.0
C1094 C 0.67633 0.40592 0.84119 0.0
C1095 C 0.70602 0.35728 0.83691 0.0
C1096 C 0.62425 0.41944 0.84658 0.0
C1097 C 0.61876 0.47558 0.8535 0.0
N1098 N 0.68033 0.3776 0.84018 0.0
N1099 N 0.64417 0.45524 0.84863 0.0
H1100 H 0.61673 0.4797 0.27756 0.0
H1101 H 0.72342 0.33044 0.22061 0.0
H1102 H 0.62606 0.45112 0.18786 0.0
H1103 H 0.73164 0.36303 0.30295 0.0
H1104 H 0.68437 0.37356 0.21134 0.0
H1105 H 0.65549 0.43612 0.29059 0.0
C1106 C 0.62673 0.4643 0.26074 0.0
C1107 C 0.61811 0.46918 0.23156 0.0
C1108 C 0.69465 0.37148 0.23146 0.0
C1109 C 0.66215 0.41959 0.2462 0.0
C1110 C 0.717 0.34678 0.23674 0.0
C1111 C 0.73089 0.34323 0.26246 0.0
C1112 C 0.68577 0.39294 0.25216 0.0
C1113 C 0.72157 0.3651 0.28269 0.0
C1114 C 0.6489 0.43956 0.26811 0.0
C1115 C 0.63193 0.44854 0.2106 0.0
N1116 N 0.6995 0.38907 0.27717 0.0
N1117 N 0.65305 0.42486 0.21833 0.0
H1118 H 0.64225 0.56524 0.22333 0.0
H1119 H 0.70044 0.6932 0.17764 0.0
H1120 H 0.6168 0.62652 0.14846 0.0
H1121 H 0.71194 0.64364 0.26255 0.0
H1122 H 0.67522 0.6645 0.16304 0.0
H1123 H 0.67325 0.58922 0.23418 0.0
C1124 C 0.64314 0.58374 0.20914 0.0
C1125 C 0.62644 0.59416 0.18524 0.0
C1126 C 0.68334 0.65978 0.18481 0.0
C1127 C 0.66225 0.62154 0.1974 0.0
C1128 C 0.69789 0.67605 0.19312 0.0
C1129 C 0.70831 0.6708 0.22139 0.0
C1130 C 0.67917 0.63797 0.20485 0.0
C1131 C 0.70401 0.64859 0.24069 0.0
C1132 C 0.66095 0.59736 0.21532 0.0
C1133 C 0.6292 0.61771 0.1671 0.0
N1134 N 0.68975 0.63297 0.23205 0.0
N1135 N 0.6466 0.63072 0.17369 0.0
H1136 H 0.48983 0.61565 0.27526 0.0
H1137 H 0.3503 0.72802 0.21645 0.0
H1138 H 0.46677 0.62417 0.1846 0.0
H1139 H 0.37791 0.73725 0.30037 0.0
H1140 H 0.39239 0.68758 0.2068 0.0
H1141 H 0.44847 0.65767 0.28758 0.0
C1142 C 0.47616 0.6262 0.25804 0.0
C1143 C 0.4819 0.61626 0.22884 0.0
C1144 C 0.38949 0.69843 0.22731 0.0
C1145 C 0.43477 0.66406 0.24271 0.0
C1146 C 0.36537 0.72163 0.2328 0.0
C1147 C 0.36061 0.73616 0.25916 0.0
C1148 C 0.40915 0.68923 0.24845 0.0
C1149 C 0.38091 0.72676 0.27961 0.0
C1150 C 0.45266 0.65022 0.26502 0.0
C1151 C 0.46346 0.63089 0.2074 0.0
N1152 N 0.40427 0.70374 0.27394 0.0
N1153 N 0.44091 0.65379 0.21478 0.0
H1154 H 0.46426 0.51352 0.23617 0.0
H1155 H 0.40933 0.39069 0.20047 0.0
H1156 H 0.50136 0.45792 0.16337 0.0
H1157 H 0.37534 0.44498 0.27484 0.0
H1158 H 0.44342 0.4145 0.18646 0.0
H1159 H 0.43175 0.48828 0.25046 0.0
C1160 C 0.46571 0.49589 0.22324 0.0
C1161 C 0.48578 0.48778 0.19859 0.0
C1162 C 0.42855 0.42113 0.2059 0.0
C1163 C 0.44817 0.4588 0.21475 0.0
C1164 C 0.40902 0.40761 0.21386 0.0
C1165 C 0.38936 0.41587 0.23886 0.0
C1166 C 0.42837 0.4432 0.22295 0.0
C1167 C 0.39024 0.43765 0.25561 0.0
C1168 C 0.44699 0.48152 0.23136 0.0
C1169 C 0.48614 0.4651 0.18235 0.0
N1170 N 0.4093 0.4506 0.24728 0.0
N1171 N 0.46766 0.45137 0.19074 0.0
H1172 H 0.82654 0.59651 0.69661 0.0
H1173 H 0.7852 0.76585 0.69097 0.0
H1174 H 0.81171 0.65184 0.61559 0.0
H1175 H 0.81689 0.71292 0.7694 0.0
H1176 H 0.79254 0.72347 0.66471 0.0
H1177 H 0.82225 0.63764 0.72473 0.0
C1178 C 0.82272 0.61718 0.68463 0.0
C1179 C 0.81942 0.62065 0.65361 0.0
C1180 C 0.79803 0.72093 0.68761 0.0
C1181 C 0.81406 0.66782 0.68583 0.0
C1182 C 0.79375 0.74521 0.70274 0.0
C1183 C 0.80064 0.74296 0.7324 0.0
C1184 C 0.80922 0.69386 0.70212 0.0
C1185 C 0.81139 0.71558 0.7465 0.0
C1186 C 0.82019 0.64065 0.70076 0.0
C1187 C 0.81443 0.648 0.6394 0.0
N1188 N 0.81538 0.69201 0.73121 0.0
N1189 N 0.81169 0.67044 0.65562 0.0
H1190 H 0.48999 0.7405 0.64954 0.0
H1191 H 0.3572 0.83736 0.75169 0.0
H1192 H 0.47592 0.82878 0.66187 0.0
H1193 H 0.36935 0.75177 0.73003 0.0
H1194 H 0.40018 0.83512 0.71993 0.0
H1195 H 0.44637 0.74461 0.67971 0.0
C1196 C 0.47792 0.76081 0.65864 0.0
C1197 C 0.48724 0.78425 0.65298 0.0
C1198 C 0.39339 0.81687 0.72202 0.0
C1199 C 0.43616 0.78919 0.68806 0.0
C1200 C 0.36871 0.81813 0.7402 0.0
C1201 C 0.35922 0.79476 0.74373 0.0
C1202 C 0.40912 0.79195 0.70719 0.0
C1203 C 0.37546 0.77044 0.72815 0.0
C1204 C 0.4527 0.76317 0.67588 0.0
C1205 C 0.46987 0.81007 0.66528 0.0
N1206 N 0.39939 0.76969 0.71086 0.0
N1207 N 0.44542 0.81177 0.68223 0.0
H1208 H 0.34835 0.41846 0.61268 0.0
H1209 H 0.25146 0.35389 0.7299 0.0
H1210 H 0.26256 0.43646 0.6013 0.0
H1211 H 0.33147 0.3537 0.7469 0.0
H1212 H 0.25445 0.38302 0.6827 0.0
H1213 H 0.34232 0.39308 0.66104 0.0
C1214 C 0.32822 0.41698 0.62021 0.0
C1215 C 0.306 0.42963 0.60254 0.0
C1216 C 0.27121 0.3768 0.69695 0.0
C1217 C 0.29881 0.4003 0.65866 0.0
C1218 C 0.26946 0.36024 0.72404 0.0
C1219 C 0.2912 0.35122 0.74272 0.0
C1220 C 0.29498 0.38423 0.6882 0.0
C1221 C 0.31411 0.36001 0.73351 0.0
C1222 C 0.32472 0.40258 0.64808 0.0
C1223 C 0.28027 0.42725 0.61409 0.0
N1224 N 0.31544 0.37569 0.70704 0.0
N1225 N 0.27744 0.41275 0.64121 0.0
H1226 H 0.53275 0.32023 0.59795 0.0
H1227 H 0.68994 0.29312 0.62608 0.0
H1228 H 0.60431 0.2737 0.54072 0.0
H1229 H 0.62098 0.32924 0.69177 0.0
H1230 H 0.65768 0.29384 0.59071 0.0
H1231 H 0.56331 0.33226 0.62818 0.0
C1232 C 0.55475 0.3134 0.59118 0.0
C1233 C 0.56606 0.29612 0.56674 0.0
C1234 C 0.64951 0.30185 0.61276 0.0
C1235 C 0.6011 0.30912 0.60139 0.0
C1236 C 0.668 0.30131 0.63311 0.0
C1237 C 0.65834 0.31071 0.66229 0.0
C1238 C 0.62091 0.31183 0.62141 0.0
C1239 C 0.62951 0.32179 0.66959 0.0
C1240 C 0.57223 0.31993 0.60862 0.0
C1241 C 0.59477 0.28717 0.55935 0.0
N1242 N 0.61186 0.32176 0.64945 0.0
N1243 N 0.61123 0.29358 0.57664 0.0
H1244 H 0.83363 0.49088 0.56319 0.0
H1245 H 0.79624 0.46479 0.40456 0.0
H1246 H 0.83921 0.5443 0.48247 0.0
H1247 H 0.81991 0.3968 0.47368 0.0
H1248 H 0.80861 0.49551 0.4348 0.0
H1249 H 0.82683 0.4566 0.53241 0.0
C1250 C 0.83397 0.49516 0.53897 0.0
C1251 C 0.83703 0.52056 0.52544 0.0
C1252 C 0.81129 0.47381 0.44329 0.0
C1253 C 0.82855 0.48179 0.49029 0.0
C1254 C 0.80401 0.45633 0.42614 0.0
C1255 C 0.80708 0.42816 0.43657 0.0
C1256 C 0.82146 0.46323 0.47131 0.0
C1257 C 0.81749 0.41829 0.46464 0.0
C1258 C 0.82997 0.47564 0.52146 0.0
C1259 C 0.83708 0.52502 0.49396 0.0
N1260 N 0.82414 0.43586 0.48115 0.0
N1261 N 0.83251 0.50606 0.47756 0.0
H1262 H 0.64529 0.76078 0.45911 0.0
H1263 H 0.75381 0.83883 0.39309 0.0
H1264 H 0.65476 0.82872 0.50329 0.0
H1265 H 0.73406 0.78071 0.34321 0.0
H1266 H 0.71796 0.83572 0.43332 0.0
H1267 H 0.67776 0.76768 0.4171 0.0
C1268 C 0.65421 0.77714 0.46017 0.0
C1269 C 0.64717 0.79399 0.4853 0.0
C1270 C 0.72125 0.8238 0.41352 0.0
C1271 C 0.68489 0.80215 0.43639 0.0
C1272 C 0.74175 0.8256 0.3904 0.0
C1273 C 0.74706 0.8101 0.36445 0.0
C1274 C 0.7059 0.80602 0.41116 0.0
C1275 C 0.73071 0.79323 0.36255 0.0
C1276 C 0.67275 0.78119 0.43589 0.0
C1277 C 0.6593 0.81522 0.4846 0.0
N1278 N 0.71116 0.79149 0.38556 0.0
N1279 N 0.6776 0.8185 0.46081 0.0
H1280 H 0.31865 0.57399 0.39168 0.0
H1281 H 0.31209 0.73378 0.39738 0.0
H1282 H 0.29933 0.61366 0.47632 0.0
H1283 H 0.28001 0.70845 0.32505 0.0
H1284 H 0.31534 0.68796 0.42522 0.0
H1285 H 0.31252 0.62093 0.36503 0.0
C1286 C 0.31325 0.59261 0.40461 0.0
C1287 C 0.30949 0.58996 0.43624 0.0
C1288 C 0.30746 0.69256 0.40332 0.0
C1289 C 0.30302 0.64365 0.40596 0.0
C1290 C 0.30565 0.71867 0.38737 0.0
C1291 C 0.29559 0.72517 0.35883 0.0
C1292 C 0.29999 0.6723 0.39032 0.0
C1293 C 0.28765 0.70458 0.34703 0.0
C1294 C 0.30962 0.61937 0.38943 0.0
C1295 C 0.30229 0.61483 0.45193 0.0
N1296 N 0.29035 0.67903 0.36259 0.0
N1297 N 0.29965 0.64054 0.4367 0.0
H1298 H 0.44259 0.2337 0.48468 0.0
H1299 H 0.35573 0.33007 0.35236 0.0
H1300 H 0.45169 0.31373 0.45032 0.0
H1301 H 0.34812 0.25082 0.39212 0.0
H1302 H 0.39069 0.32537 0.38671 0.0
H1303 H 0.40763 0.24095 0.45066 0.0
C1304 C 0.4372 0.25297 0.47 0.0
C1305 C 0.45039 0.27306 0.47046 0.0
C1306 C 0.38138 0.30902 0.38783 0.0
C1307 C 0.40981 0.2815 0.43063 0.0
C1308 C 0.36146 0.31159 0.36811 0.0
C1309 C 0.34883 0.29076 0.36914 0.0
C1310 C 0.38883 0.28544 0.40882 0.0
C1311 C 0.35715 0.26744 0.39026 0.0
C1312 C 0.41709 0.25709 0.45043 0.0
C1313 C 0.44209 0.29768 0.45089 0.0
N1314 N 0.37645 0.26548 0.40909 0.0
N1315 N 0.42246 0.30114 0.43164 0.0
H1316 H 0.6211 0.77661 0.67589 0.0
H1317 H 0.71805 0.85593 0.7145 0.0
H1318 H 0.61776 0.85674 0.62822 0.0
H1319 H 0.6884 0.80026 0.77846 0.0
H1320 H 0.68248 0.85813 0.68191 0.0
H1321 H 0.64774 0.78505 0.71239 0.0
C1322 C 0.62587 0.79614 0.67321 0.0
C1323 C 0.61725 0.81598 0.64897 0.0
C1324 C 0.68351 0.84594 0.70338 0.0
C1325 C 0.64815 0.82575 0.69078 0.0
C1326 C 0.70371 0.84475 0.72204 0.0
C1327 C 0.70653 0.8275 0.74906 0.0
C1328 C 0.66634 0.82957 0.71179 0.0
C1329 C 0.68741 0.81342 0.75763 0.0
C1330 C 0.64098 0.80104 0.6942 0.0
C1331 C 0.62396 0.84097 0.64672 0.0
N1332 N 0.6685 0.81443 0.73889 0.0
N1333 N 0.63943 0.84501 0.66719 0.0
H1334 H 0.62622 0.20249 0.42981 0.0
H1335 H 0.70909 0.31047 0.37974 0.0
H1336 H 0.59848 0.28953 0.45566 0.0
H1337 H 0.7325 0.22769 0.34394 0.0
H1338 H 0.66959 0.30198 0.40925 0.0
H1339 H 0.66591 0.21027 0.4 0.0
C1340 C 0.62817 0.22326 0.42938 0.0
C1341 C 0.6084 0.24531 0.44568 0.0
C1342 C 0.68332 0.28562 0.39497 0.0
C1343 C 0.65453 0.25426 0.4112 0.0
C1344 C 0.70604 0.29042 0.37808 0.0
C1345 C 0.72437 0.26977 0.35919 0.0
C1346 C 0.67871 0.25986 0.3933 0.0
C1347 C 0.71901 0.24429 0.35808 0.0
C1348 C 0.65105 0.22765 0.4122 0.0
C1349 C 0.61276 0.27166 0.44387 0.0
N1350 N 0.69676 0.24004 0.37491 0.0
N1351 N 0.63521 0.2753 0.42709 0.0
H1352 H 0.76807 0.6196 0.45508 0.0
H1353 H 0.84294 0.72892 0.38088 0.0
H1354 H 0.80382 0.66356 0.50657 0.0
H1355 H 0.80138 0.68984 0.33076 0.0
H1356 H 0.83425 0.7004 0.42607 0.0
H1357 H 0.78382 0.64182 0.40883 0.0
C1358 C 0.77899 0.63412 0.45678 0.0
C1359 C 0.78439 0.63981 0.48498 0.0
C1360 C 0.82739 0.69776 0.40508 0.0
C1361 C 0.8031 0.66501 0.43169 0.0
C1362 C 0.83263 0.71382 0.37911 0.0
C1363 C 0.82271 0.71199 0.35191 0.0
C1364 C 0.81215 0.67967 0.40387 0.0
C1365 C 0.80926 0.69217 0.35122 0.0
C1366 C 0.78826 0.64661 0.43024 0.0
C1367 C 0.79929 0.65836 0.48544 0.0
N1368 N 0.80413 0.67705 0.37684 0.0
N1369 N 0.80804 0.67033 0.45926 0.0
H1370 H 0.52208 0.85653 0.48848 0.0
H1371 H 0.39189 0.80681 0.49535 0.0
H1372 H 0.48174 0.8324 0.5714 0.0
H1373 H 0.43463 0.83047 0.41359 0.0
H1374 H 0.41946 0.82342 0.52474 0.0
H1375 H 0.48335 0.85768 0.46202 0.0
C1376 C 0.50432 0.8529 0.50131 0.0
C1377 C 0.50475 0.84467 0.53202 0.0
C1378 C 0.42268 0.82505 0.50036 0.0
C1379 C 0.46144 0.84394 0.5019 0.0
C1380 C 0.40712 0.8154 0.48363 0.0
C1381 C 0.41138 0.81677 0.45203 0.0
C1382 C 0.44246 0.83625 0.48529 0.0
C1383 C 0.43121 0.82825 0.43792 0.0
C1384 C 0.48246 0.85298 0.48619 0.0
C1385 C 0.48179 0.83925 0.54767 0.0
N1386 N 0.44604 0.83744 0.45464 0.0
N1387 N 0.46125 0.83829 0.53229 0.0
H1388 H 0.26836 0.48925 0.40063 0.0
H1389 H 0.23966 0.34626 0.41879 0.0
H1390 H 0.23327 0.46049 0.48475 0.0
H1391 H 0.24339 0.39072 0.33168 0.0
H1392 H 0.2327 0.38992 0.4429 0.0
H1393 H 0.25507 0.45654 0.37431 0.0
C1394 C 0.25719 0.47652 0.41347 0.0
C1395 C 0.25213 0.47736 0.44496 0.0
C1396 C 0.23458 0.39038 0.41851 0.0
C1397 C 0.23739 0.43937 0.41501 0.0
C1398 C 0.23868 0.3654 0.40469 0.0
C1399 C 0.24282 0.36473 0.37316 0.0
C1400 C 0.23533 0.41481 0.40074 0.0
C1401 C 0.2409 0.39021 0.35604 0.0
C1402 C 0.24959 0.45786 0.39839 0.0
C1403 C 0.23757 0.46049 0.46047 0.0
N1404 N 0.23797 0.41413 0.37006 0.0
N1405 N 0.23126 0.44168 0.44541 0.0
H1406 H 0.47648 0.19402 0.63951 0.0
H1407 H 0.33636 0.29527 0.72059 0.0
H1408 H 0.44294 0.28484 0.61826 0.0
H1409 H 0.38193 0.21399 0.76245 0.0
H1410 H 0.37516 0.29082 0.68233 0.0
H1411 H 0.44228 0.19953 0.68335 0.0
C1412 C 0.46222 0.21516 0.64388 0.0
C1413 C 0.46288 0.23895 0.62445 0.0
C1414 C 0.37696 0.274 0.69996 0.0
C1415 C 0.42319 0.2452 0.67506 0.0
C1416 C 0.35478 0.27655 0.7219 0.0
C1417 C 0.35595 0.25502 0.74481 0.0
C1418 C 0.40049 0.24928 0.7002 0.0
C1419 C 0.3803 0.23118 0.7453 0.0
C1420 C 0.44263 0.21822 0.66913 0.0
C1421 C 0.44339 0.26566 0.63183 0.0
N1422 N 0.40151 0.22872 0.72301 0.0
N1423 N 0.42439 0.26795 0.65624 0.0
H1424 H 0.76344 0.48516 0.62477 0.0
H1425 H 0.8225 0.38192 0.76614 0.0
H1426 H 0.77626 0.5161 0.70587 0.0
H1427 H 0.77108 0.36263 0.70914 0.0
H1428 H 0.81452 0.42816 0.73807 0.0
H1429 H 0.7737 0.43719 0.65013 0.0
C1430 C 0.76825 0.48177 0.64798 0.0
C1431 C 0.76869 0.5045 0.66346 0.0
C1432 C 0.8052 0.41365 0.7316 0.0
C1433 C 0.78127 0.44993 0.69214 0.0
C1434 C 0.80997 0.38714 0.74737 0.0
C1435 C 0.79739 0.36838 0.74001 0.0
C1436 C 0.78811 0.42127 0.70799 0.0
C1437 C 0.78111 0.37648 0.71564 0.0
C1438 C 0.77413 0.45454 0.66237 0.0
C1439 C 0.77525 0.49917 0.69341 0.0
N1440 N 0.77694 0.40232 0.70047 0.0
N1441 N 0.78155 0.47236 0.70671 0.0
H1442 H 0.30786 0.53516 0.60444 0.0
H1443 H 0.25608 0.70039 0.6335 0.0
H1444 H 0.25209 0.5974 0.5474 0.0
H1445 H 0.32698 0.636 0.66916 0.0
H1446 H 0.2514 0.66463 0.60295 0.0
H1447 H 0.31 0.5732 0.63231 0.0
C1448 C 0.29556 0.55696 0.59826 0.0
C1449 C 0.27972 0.56329 0.57379 0.0
C1450 C 0.26815 0.65859 0.6172 0.0
C1451 C 0.28274 0.60716 0.60488 0.0
C1452 C 0.2709 0.67892 0.63453 0.0
C1453 C 0.29182 0.67112 0.6541 0.0
C1454 C 0.28627 0.63035 0.61989 0.0
C1455 C 0.31066 0.64315 0.65431 0.0
C1456 C 0.29706 0.57872 0.61388 0.0
C1457 C 0.26423 0.59181 0.56649 0.0
N1458 N 0.3072 0.62377 0.63779 0.0
N1459 N 0.26631 0.61291 0.58189 0.0
loop_
_geom_bond_atom_site_label_1
_geom_bond_atom_site_label_2
_geom_bond_distance
_geom_bond_site_symmetry_2
_ccdc_geom_bond_type
Cu0 N1 1.999 . S
Cu0 O6 1.974 . S
Cu0 N11 1.985 1_455 S
Cu0 O20 1.959 1_455 S
N1 Cu0 1.999 . S
N1 C3 1.263 . S
N1 C5 1.389 . S
N2 C3 1.358 . S
N2 C4 1.400 . S
C3 N1 1.263 . S
C3 N2 1.358 . S
C3 H9 0.930 . S
C4 N2 1.400 . S
C4 C5 1.351 . S
C4 H21 0.930 . S
C5 N1 1.389 . S
C5 C4 1.351 . S
C5 H10 0.930 . S
O6 Cu0 1.974 . S
O6 C16 1.282 1_545 S
C7 O8 1.261 . S
C7 O20 1.251 . S
O8 C7 1.261 . S
H9 C3 0.930 . S
H10 C5 0.930 . S
N11 Cu0 1.985 1_655 S
N11 C13 1.335 . S
N11 C14 1.390 1_645 S
N12 C13 1.345 1_565 S
N12 C15 1.336 . S
C13 N11 1.335 . S
C13 N12 1.345 1_545 S
C13 H18 0.930 . S
C14 N11 1.390 1_465 S
C14 C15 1.346 1_455 S
C14 H19 0.930 . S
C15 N12 1.336 . S
C15 C14 1.346 1_655 S
C15 H22 0.929 . S
C16 O6 1.282 1_565 S
C16 O17 1.216 1_565 S
O17 C16 1.216 1_545 S
H18 C13 0.930 . S
H19 C14 0.930 . S
O20 Cu0 1.959 1_655 S
O20 C7 1.251 . S
H21 C4 0.930 . S
H22 C15 0.929 . S
Cu23 N24 1.999 1_545 S
Cu23 O29 1.974 . S
Cu23 N34 1.985 . S
Cu23 O43 1.959 1_545 S
N24 Cu23 1.999 1_565 S
N24 C26 1.263 1_455 S
N24 C28 1.389 . S
N25 C26 1.358 . S
N25 C27 1.400 1_655 S
C26 N24 1.263 1_655 S
C26 N25 1.358 . S
C26 H32 0.930 1_565 S
C27 N25 1.400 1_455 S
C27 C28 1.351 . S
C27 H44 0.930 . S
C28 N24 1.389 . S
C28 C27 1.351 . S
C28 H33 0.930 . S
O29 Cu23 1.974 . S
O29 C39 1.282 1_455 S
C30 O31 1.261 . S
C30 O43 1.251 . S
O31 C30 1.261 . S
H32 C26 0.930 1_545 S
H33 C28 0.930 . S
N34 Cu23 1.985 . S
N34 C36 1.335 . S
N34 C37 1.390 . S
N35 C36 1.345 . S
N35 C38 1.336 . S
C36 N34 1.335 . S
C36 N35 1.345 . S
C36 H41 0.930 . S
C37 N34 1.390 . S
C37 C38 1.346 . S
C37 H42 0.930 . S
C38 N35 1.336 . S
C38 C37 1.346 . S
C38 H45 0.929 . S
C39 O29 1.282 1_655 S
C39 O40 1.216 1_655 S
O40 C39 1.216 1_455 S
H41 C36 0.930 . S
H42 C37 0.930 . S
O43 Cu23 1.959 1_565 S
O43 C30 1.251 . S
H44 C27 0.930 . S
H45 C38 0.929 . S
Cu46 N47 1.999 . S
Cu46 O52 1.974 . S
Cu46 N57 1.985 . S
Cu46 O66 1.959 . S
N47 Cu46 1.999 . S
N47 C49 1.263 . S
N47 C51 1.389 . S
N48 C49 1.358 1_565 S
N48 C50 1.400 1_565 S
C49 N47 1.263 . S
C49 N48 1.358 1_545 S
C49 H55 0.930 . S
C50 N48 1.400 1_545 S
C50 C51 1.351 . S
C50 H67 0.930 1_554 S
C51 N47 1.389 . S
C51 C50 1.351 . S
C51 H56 0.930 . S
O52 Cu46 1.974 . S
O52 C62 1.282 . S
C53 O54 1.261 . S
C53 O66 1.251 . S
O54 C53 1.261 . S
H55 C49 0.930 . S
H56 C51 0.930 . S
N57 Cu46 1.985 . S
N57 C59 1.335 . S
N57 C60 1.390 . S
N58 C59 1.345 . S
N58 C61 1.336 . S
C59 N57 1.335 . S
C59 N58 1.345 . S
C59 H64 0.930 . S
C60 N57 1.390 . S
C60 C61 1.346 . S
C60 H65 0.930 . S
C61 N58 1.336 . S
C61 C60 1.346 . S
C61 H68 0.929 . S
C62 O52 1.282 . S
C62 O63 1.216 . S
O63 C62 1.216 . S
H64 C59 0.930 . S
H65 C60 0.930 . S
O66 Cu46 1.959 . S
O66 C53 1.251 . S
H67 C50 0.930 1_556 S
H68 C61 0.929 . S
Cu69 N70 1.999 . S
Cu69 O75 1.974 . S
Cu69 N80 1.985 . S
Cu69 O89 1.959 . S
N70 Cu69 1.999 . S
N70 C72 1.263 . S
N70 C74 1.389 . S
N71 C72 1.358 . S
N71 C73 1.424 . S
C72 N70 1.263 . S
C72 N71 1.358 . S
C72 H78 0.930 . S
C73 N71 1.424 . S
C73 C74 1.372 . S
C73 H90 0.894 1_554 S
C74 N70 1.389 . S
C74 C73 1.372 . S
C74 H79 0.930 . S
O75 Cu69 1.974 . S
O75 C85 1.282 . S
C76 O77 1.261 . S
C76 O89 1.251 . S
O77 C76 1.261 . S
H78 C72 0.930 . S
H79 C74 0.930 . S
N80 Cu69 1.985 . S
N80 C82 1.335 1_455 S
N80 C83 1.390 . S
N81 C82 1.345 . S
N81 C84 1.321 1_655 S
C82 N80 1.335 1_655 S
C82 N81 1.345 . S
C82 H87 0.930 . S
C83 N80 1.390 . S
C83 C84 1.364 . S
C83 H88 0.930 . S
C84 N81 1.321 1_455 S
C84 C83 1.364 . S
C84 H91 0.926 1_455 S
C85 O75 1.282 . S
C85 O86 1.216 . S
O86 C85 1.216 . S
H87 C82 0.930 . S
H88 C83 0.930 . S
O89 Cu69 1.959 . S
O89 C76 1.251 . S
H90 C73 0.894 1_556 S
H91 C84 0.926 1_655 S
Cu92 N93 1.999 1_554 S
Cu92 O98 1.974 . S
Cu92 N103 1.985 1_545 S
Cu92 O112 1.959 1_544 S
N93 Cu92 1.999 1_556 S
N93 C95 1.263 . S
N93 C97 1.389 . S
N94 C95 1.358 . S
N94 C96 1.400 . S
C95 N93 1.263 . S
C95 N94 1.358 . S
C95 H101 0.930 . S
C96 N94 1.400 . S
C96 C97 1.351 . S
C96 H113 0.930 . S
C97 N93 1.389 . S
C97 C96 1.351 . S
C97 H102 0.930 . S
O98 Cu92 1.974 . S
O98 C108 1.282 . S
C99 O100 1.261 . S
C99 O112 1.251 . S
O100 C99 1.261 . S
H101 C95 0.930 . S
H102 C97 0.930 . S
N103 Cu92 1.985 1_565 S
N103 C105 1.335 . S
N103 C106 1.390 . S
N104 C105 1.345 . S
N104 C107 1.336 . S
C105 N103 1.335 . S
C105 N104 1.345 . S
C105 H110 0.930 . S
C106 N103 1.390 . S
C106 C107 1.346 . S
C106 H111 0.930 . S
C107 N104 1.336 . S
C107 C106 1.346 . S
C107 H114 0.929 . S
C108 O98 1.282 . S
C108 O109 1.216 . S
O109 C108 1.216 . S
H110 C105 0.930 . S
H111 C106 0.930 . S
O112 Cu92 1.959 1_566 S
O112 C99 1.251 . S
H113 C96 0.930 . S
H114 C107 0.929 . S
Cu115 N116 1.999 1_454 S
Cu115 O121 1.974 1_455 S
Cu115 N126 1.985 . S
Cu115 O135 1.959 1_554 S
N116 Cu115 1.999 1_656 S
N116 C118 1.263 . S
N116 C120 1.389 . S
N117 C118 1.358 . S
N117 C119 1.400 . S
C118 N116 1.263 . S
C118 N117 1.358 . S
C118 H124 0.930 . S
C119 N117 1.400 . S
C119 C120 1.351 . S
C119 H136 0.930 . S
C120 N116 1.389 . S
C120 C119 1.351 . S
C120 H125 0.930 1_655 S
O121 Cu115 1.974 1_655 S
O121 C131 1.282 . S
C122 O123 1.261 . S
C122 O135 1.251 . S
O123 C122 1.261 . S
H124 C118 0.930 . S
H125 C120 0.930 1_455 S
N126 Cu115 1.985 . S
N126 C128 1.335 . S
N126 C129 1.390 . S
N127 C128 1.345 . S
N127 C130 1.336 . S
C128 N126 1.335 . S
C128 N127 1.345 . S
C128 H133 0.930 . S
C129 N126 1.390 . S
C129 C130 1.346 . S
C129 H134 0.930 . S
C130 N127 1.336 . S
C130 C129 1.346 . S
C130 H137 0.929 . S
C131 O121 1.282 . S
C131 O132 1.216 . S
O132 C131 1.216 . S
H133 C128 0.930 . S
H134 C129 0.930 . S
O135 Cu115 1.959 1_556 S
O135 C122 1.251 . S
H136 C119 0.930 . S
H137 C130 0.929 . S
Cu138 N139 1.999 . S
Cu138 O144 1.974 . S
Cu138 N149 1.985 . S
Cu138 O158 1.959 . S
N139 Cu138 1.999 . S
N139 C141 1.263 . S
N139 C143 1.389 . S
N140 C141 1.358 . S
N140 C142 1.400 . S
C141 N139 1.263 . S
C141 N140 1.358 . S
C141 H147 0.930 . S
C142 N140 1.400 . S
C142 C143 1.351 . S
C142 H159 0.930 . S
C143 N139 1.389 . S
C143 C142 1.351 . S
C143 H148 0.930 . S
O144 Cu138 1.974 . S
O144 C154 1.282 . S
C145 O146 1.261 . S
C145 O158 1.251 . S
O146 C145 1.261 . S
H147 C141 0.930 . S
H148 C143 0.930 . S
N149 Cu138 1.985 . S
N149 C151 1.335 . S
N149 C152 1.390 . S
N150 C151 1.345 . S
N150 C153 1.336 . S
C151 N149 1.335 . S
C151 N150 1.345 . S
C151 H156 0.930 . S
C152 N149 1.390 . S
C152 C153 1.346 . S
C152 H157 0.930 . S
C153 N150 1.336 . S
C153 C152 1.346 . S
C153 H160 0.929 . S
C154 O144 1.282 . S
C154 O155 1.216 . S
O155 C154 1.216 . S
H156 C151 0.930 . S
H157 C152 0.930 . S
O158 Cu138 1.959 . S
O158 C145 1.251 . S
H159 C142 0.930 . S
H160 C153 0.929 . S
Cu161 N162 1.999 . S
Cu161 O167 1.974 . S
Cu161 N172 1.985 . S
Cu161 O181 1.959 . S
N162 Cu161 1.999 . S
N162 C164 1.263 . S
N162 C166 1.389 . S
N163 C164 1.358 . S
N163 C165 1.400 . S
C164 N162 1.263 . S
C164 N163 1.358 . S
C164 H170 0.930 . S
C165 N163 1.400 . S
C165 C166 1.351 . S
C165 H182 0.930 . S
C166 N162 1.389 . S
C166 C165 1.351 . S
C166 H171 0.930 . S
O167 Cu161 1.974 . S
O167 C177 1.282 . S
C168 O169 1.261 . S
C168 O181 1.251 . S
O169 C168 1.261 . S
H170 C164 0.930 . S
H171 C166 0.930 . S
N172 Cu161 1.985 . S
N172 C174 1.335 . S
N172 C175 1.390 . S
N173 C174 1.345 . S
N173 C176 1.336 . S
C174 N172 1.335 . S
C174 N173 1.345 . S
C174 H179 0.930 . S
C175 N172 1.390 . S
C175 C176 1.346 . S
C175 H180 0.930 . S
C176 N173 1.336 . S
C176 C175 1.346 . S
C176 H183 0.929 . S
C177 O167 1.282 . S
C177 O178 1.216 . S
O178 C177 1.216 . S
H179 C174 0.930 . S
H180 C175 0.930 . S
O181 Cu161 1.959 . S
O181 C168 1.251 . S
H182 C165 0.930 . S
H183 C176 0.929 . S
Cu184 N185 1.999 . S
Cu184 O190 1.974 . S
Cu184 N195 1.985 . S
Cu184 O204 1.959 . S
N185 Cu184 1.999 . S
N185 C187 1.263 . S
N185 C189 1.389 . S
N186 C187 1.358 . S
N186 C188 1.400 . S
C187 N185 1.263 . S
C187 N186 1.358 . S
C187 H193 0.930 . S
C188 N186 1.400 . S
C188 C189 1.351 . S
C188 H205 0.930 . S
C189 N185 1.389 . S
C189 C188 1.351 . S
C189 H194 0.930 . S
O190 Cu184 1.974 . S
O190 C200 1.282 . S
C191 O192 1.261 . S
C191 O204 1.251 . S
O192 C191 1.261 . S
H193 C187 0.930 . S
H194 C189 0.930 . S
N195 Cu184 1.985 . S
N195 C197 1.335 . S
N195 C198 1.390 . S
N196 C197 1.345 . S
N196 C199 1.336 . S
C197 N195 1.335 . S
C197 N196 1.345 . S
C197 H202 0.930 . S
C198 N195 1.390 . S
C198 C199 1.346 . S
C198 H203 0.930 . S
C199 N196 1.336 . S
C199 C198 1.346 . S
C199 H206 0.929 . S
C200 O190 1.282 . S
C200 O201 1.216 . S
O201 C200 1.216 . S
H202 C197 0.930 . S
H203 C198 0.930 . S
O204 Cu184 1.959 . S
O204 C191 1.251 . S
H205 C188 0.930 . S
H206 C199 0.929 . S
Cu207 N208 1.999 . S
Cu207 O213 1.974 . S
Cu207 N218 1.985 . S
Cu207 O227 1.959 . S
N208 Cu207 1.999 . S
N208 C210 1.263 . S
N208 C212 1.389 . S
N209 C210 1.358 . S
N209 C211 1.400 . S
C210 N208 1.263 . S
C210 N209 1.358 . S
C210 H216 0.930 . S
C211 N209 1.400 . S
C211 C212 1.351 . S
C211 H228 0.930 . S
C212 N208 1.389 . S
C212 C211 1.351 . S
C212 H217 0.930 . S
O213 Cu207 1.974 . S
O213 C223 1.282 . S
C214 O215 1.261 . S
C214 O227 1.251 . S
O215 C214 1.261 . S
H216 C210 0.930 . S
H217 C212 0.930 . S
N218 Cu207 1.985 . S
N218 C220 1.335 . S
N218 C221 1.390 . S
N219 C220 1.345 . S
N219 C222 1.336 . S
C220 N218 1.335 . S
C220 N219 1.345 . S
C220 H225 0.930 . S
C221 N218 1.390 . S
C221 C222 1.346 . S
C221 H226 0.930 . S
C222 N219 1.336 . S
C222 C221 1.346 . S
C222 H229 0.929 . S
C223 O213 1.282 . S
C223 O224 1.216 . S
O224 C223 1.216 . S
H225 C220 0.930 . S
H226 C221 0.930 . S
O227 Cu207 1.959 . S
O227 C214 1.251 . S
H228 C211 0.930 . S
H229 C222 0.929 . S
Cu230 N231 1.999 . S
Cu230 O236 1.974 . S
Cu230 N241 1.985 . S
Cu230 O250 1.959 . S
N231 Cu230 1.999 . S
N231 C233 1.263 . S
N231 C235 1.389 . S
N232 C233 1.358 . S
N232 C234 1.400 . S
C233 N231 1.263 . S
C233 N232 1.358 . S
C233 H239 0.930 . S
C234 N232 1.400 . S
C234 C235 1.351 . S
C234 H251 0.930 . S
C235 N231 1.389 . S
C235 C234 1.351 . S
C235 H240 0.930 . S
O236 Cu230 1.974 . S
O236 C246 1.282 . S
C237 O238 1.261 . S
C237 O250 1.251 . S
O238 C237 1.261 . S
H239 C233 0.930 . S
H240 C235 0.930 . S
N241 Cu230 1.985 . S
N241 C243 1.335 . S
N241 C244 1.390 . S
N242 C243 1.345 . S
N242 C245 1.336 . S
C243 N241 1.335 . S
C243 N242 1.345 . S
C243 H248 0.930 . S
C244 N241 1.390 . S
C244 C245 1.346 . S
C244 H249 0.930 . S
C245 N242 1.336 . S
C245 C244 1.346 . S
C245 H252 0.929 . S
C246 O236 1.282 . S
C246 O247 1.216 . S
O247 C246 1.216 . S
H248 C243 0.930 . S
H249 C244 0.930 . S
O250 Cu230 1.959 . S
O250 C237 1.251 . S
H251 C234 0.930 . S
H252 C245 0.929 . S
Cu253 N254 1.999 . S
Cu253 O259 1.974 . S
Cu253 N264 1.985 . S
Cu253 O273 1.959 . S
N254 Cu253 1.999 . S
N254 C256 1.263 . S
N254 C258 1.389 . S
N255 C256 1.358 . S
N255 C257 1.400 . S
C256 N254 1.263 . S
C256 N255 1.358 . S
C256 H262 0.930 . S
C257 N255 1.400 . S
C257 C258 1.351 . S
C257 H274 0.930 . S
C258 N254 1.389 . S
C258 C257 1.351 . S
C258 H263 0.930 . S
O259 Cu253 1.974 . S
O259 C269 1.282 . S
C260 O261 1.261 . S
C260 O273 1.251 . S
O261 C260 1.261 . S
H262 C256 0.930 . S
H263 C258 0.930 . S
N264 Cu253 1.985 . S
N264 C266 1.335 . S
N264 C267 1.390 . S
N265 C266 1.345 . S
N265 C268 1.336 . S
C266 N264 1.335 . S
C266 N265 1.345 . S
C266 H271 0.930 . S
C267 N264 1.390 . S
C267 C268 1.346 . S
C267 H272 0.930 . S
C268 N265 1.336 . S
C268 C267 1.346 . S
C268 H275 0.929 . S
C269 O259 1.282 . S
C269 O270 1.216 . S
O270 C269 1.216 . S
H271 C266 0.930 . S
H272 C267 0.930 . S
O273 Cu253 1.959 . S
O273 C260 1.251 . S
H274 C257 0.930 . S
H275 C268 0.929 . S
Pr276 C278 2.880 . S
Pr276 O296 2.562 . S
Pr276 O297 2.490 . S
Pr276 O298 2.695 . S
Pr276 O299 2.512 . S
Pr276 O301 2.437 . S
Pr276 O304 2.436 . S
Pr276 O306 2.438 . S
Pr277 C287 2.880 . S
Pr277 O298 2.436 . S
Pr277 O300 2.438 . S
Pr277 O302 2.562 . S
Pr277 O303 2.490 . S
Pr277 O304 2.695 . S
Pr277 O305 2.512 . S
Pr277 O307 2.437 . S
C278 Pr276 2.880 . S
C278 C279 1.491 . S
C278 O296 1.254 . S
C278 O297 1.225 . S
C279 C278 1.491 . S
C279 C280 1.392 . S
C279 C284 1.356 . S
C280 C279 1.392 . S
C280 C281 1.368 . S
C280 H308 0.929 . S
C281 C280 1.368 . S
C281 C282 1.386 . S
C281 H309 0.929 . S
C282 C281 1.386 . S
C282 C283 1.373 . S
C283 C282 1.373 . S
C283 C284 1.409 . S
C283 H310 0.931 . S
C284 C279 1.356 . S
C284 C283 1.409 . S
C284 H311 0.930 . S
C285 O298 1.270 . S
C285 O299 1.248 . S
C286 O300 1.267 . S
C286 O301 1.278 . S
C287 Pr277 2.880 . S
C287 C288 1.491 . S
C287 O302 1.254 . S
C287 O303 1.225 . S
C288 C287 1.491 . S
C288 C289 1.392 . S
C288 C293 1.356 . S
C289 C288 1.392 . S
C289 C290 1.368 . S
C289 H312 0.929 . S
C290 C289 1.368 . S
C290 C291 1.386 . S
C290 H313 0.929 . S
C291 C290 1.386 . S
C291 C292 1.373 . S
C292 C291 1.373 . S
C292 C293 1.409 . S
C292 H314 0.931 . S
C293 C288 1.356 . S
C293 C292 1.409 . S
C293 H315 0.930 . S
C294 O304 1.270 . S
C294 O305 1.248 . S
C295 O306 1.267 . S
C295 O307 1.278 . S
O296 Pr276 2.562 . S
O296 C278 1.254 . S
O297 Pr276 2.490 . S
O297 C278 1.225 . S
O298 Pr276 2.695 . S
O298 Pr277 2.436 . S
O298 C285 1.270 . S
O299 Pr276 2.512 . S
O299 C285 1.248 . S
O300 Pr277 2.438 . S
O300 C286 1.267 . S
O301 Pr276 2.437 . S
O301 C286 1.278 . S
O302 Pr277 2.562 . S
O302 C287 1.254 . S
O303 Pr277 2.490 . S
O303 C287 1.225 . S
O304 Pr276 2.436 . S
O304 Pr277 2.695 . S
O304 C294 1.270 . S
O305 Pr277 2.512 . S
O305 C294 1.248 . S
O306 Pr276 2.438 . S
O306 C295 1.267 . S
O307 Pr277 2.437 . S
O307 C295 1.278 . S
H308 C280 0.929 . S
H309 C281 0.929 . S
H310 C283 0.931 . S
H311 C284 0.930 . S
H312 C289 0.929 . S
H313 C290 0.929 . S
H314 C292 0.931 . S
H315 C293 0.930 . S
Pr316 C318 2.880 . S
Pr316 O336 2.562 . S
Pr316 O337 2.490 . S
Pr316 O338 2.695 . S
Pr316 O339 2.512 . S
Pr316 O341 2.437 . S
Pr316 O344 2.436 . S
Pr316 O346 2.438 . S
Pr317 C327 2.880 . S
Pr317 O338 2.436 . S
Pr317 O340 2.438 . S
Pr317 O342 2.562 . S
Pr317 O343 2.490 . S
Pr317 O344 2.695 . S
Pr317 O345 2.512 . S
Pr317 O347 2.437 . S
C318 Pr316 2.880 . S
C318 C319 1.491 . S
C318 O336 1.254 . S
C318 O337 1.225 . S
C319 C318 1.491 . S
C319 C320 1.392 . S
C319 C324 1.356 . S
C320 C319 1.392 . S
C320 C321 1.368 . S
C320 H348 0.929 . S
C321 C320 1.368 . S
C321 C322 1.386 . S
C321 H349 0.929 . S
C322 C321 1.386 . S
C322 C323 1.373 . S
C323 C322 1.373 . S
C323 C324 1.409 . S
C323 H350 0.931 . S
C324 C319 1.356 . S
C324 C323 1.409 . S
C324 H351 0.930 . S
C325 O338 1.270 . S
C325 O339 1.248 . S
C326 O340 1.267 . S
C326 O341 1.278 . S
C327 Pr317 2.880 . S
C327 C328 1.491 . S
C327 O342 1.254 . S
C327 O343 1.225 . S
C328 C327 1.491 . S
C328 C329 1.392 . S
C328 C333 1.356 . S
C329 C328 1.392 . S
C329 C330 1.368 . S
C329 H352 0.929 . S
C330 C329 1.368 . S
C330 C331 1.386 . S
C330 H353 0.929 . S
C331 C330 1.386 . S
C331 C332 1.373 . S
C332 C331 1.373 . S
C332 C333 1.409 . S
C332 H354 0.931 . S
C333 C328 1.356 . S
C333 C332 1.409 . S
C333 H355 0.930 . S
C334 O344 1.270 . S
C334 O345 1.248 . S
C335 O346 1.267 . S
C335 O347 1.278 . S
O336 Pr316 2.562 . S
O336 C318 1.254 . S
O337 Pr316 2.490 . S
O337 C318 1.225 . S
O338 Pr316 2.695 . S
O338 Pr317 2.436 . S
O338 C325 1.270 . S
O339 Pr316 2.512 . S
O339 C325 1.248 . S
O340 Pr317 2.438 . S
O340 C326 1.267 . S
O341 Pr316 2.437 . S
O341 C326 1.278 . S
O342 Pr317 2.562 . S
O342 C327 1.254 . S
O343 Pr317 2.490 . S
O343 C327 1.225 . S
O344 Pr316 2.436 . S
O344 Pr317 2.695 . S
O344 C334 1.270 . S
O345 Pr317 2.512 . S
O345 C334 1.248 . S
O346 Pr316 2.438 . S
O346 C335 1.267 . S
O347 Pr317 2.437 . S
O347 C335 1.278 . S
H348 C320 0.929 . S
H349 C321 0.929 . S
H350 C323 0.931 . S
H351 C324 0.930 . S
H352 C329 0.929 . S
H353 C330 0.929 . S
H354 C332 0.931 . S
H355 C333 0.930 . S
Pr356 C358 2.880 . S
Pr356 O376 2.562 . S
Pr356 O377 2.490 . S
Pr356 O378 2.695 . S
Pr356 O379 2.512 . S
Pr356 O381 2.437 . S
Pr356 O384 2.436 . S
Pr356 O386 2.438 . S
Pr357 C367 2.880 . S
Pr357 O378 2.436 . S
Pr357 O380 2.438 . S
Pr357 O382 2.562 . S
Pr357 O383 2.490 . S
Pr357 O384 2.695 . S
Pr357 O385 2.512 . S
Pr357 O387 2.437 . S
C358 Pr356 2.880 . S
C358 C359 1.491 . S
C358 O376 1.254 . S
C358 O377 1.225 . S
C359 C358 1.491 . S
C359 C360 1.392 . S
C359 C364 1.356 . S
C360 C359 1.392 . S
C360 C361 1.368 . S
C360 H388 0.929 . S
C361 C360 1.368 . S
C361 C362 1.386 . S
C361 H389 0.929 . S
C362 C361 1.386 . S
C362 C363 1.373 . S
C363 C362 1.373 . S
C363 C364 1.409 . S
C363 H390 0.931 . S
C364 C359 1.356 . S
C364 C363 1.409 . S
C364 H391 0.930 . S
C365 O378 1.270 . S
C365 O379 1.248 . S
C366 O380 1.267 . S
C366 O381 1.278 . S
C367 Pr357 2.880 . S
C367 C368 1.491 . S
C367 O382 1.254 . S
C367 O383 1.225 . S
C368 C367 1.491 . S
C368 C369 1.392 . S
C368 C373 1.356 . S
C369 C368 1.392 . S
C369 C370 1.368 . S
C369 H392 0.929 . S
C370 C369 1.368 . S
C370 C371 1.386 . S
C370 H393 0.929 . S
C371 C370 1.386 . S
C371 C372 1.373 . S
C372 C371 1.373 . S
C372 C373 1.409 . S
C372 H394 0.931 . S
C373 C368 1.356 . S
C373 C372 1.409 . S
C373 H395 0.930 . S
C374 O384 1.270 . S
C374 O385 1.248 . S
C375 O386 1.267 . S
C375 O387 1.278 . S
O376 Pr356 2.562 . S
O376 C358 1.254 . S
O377 Pr356 2.490 . S
O377 C358 1.225 . S
O378 Pr356 2.695 . S
O378 Pr357 2.436 . S
O378 C365 1.270 . S
O379 Pr356 2.512 . S
O379 C365 1.248 . S
O380 Pr357 2.438 . S
O380 C366 1.267 . S
O381 Pr356 2.437 . S
O381 C366 1.278 . S
O382 Pr357 2.562 . S
O382 C367 1.254 . S
O383 Pr357 2.490 . S
O383 C367 1.225 . S
O384 Pr356 2.436 . S
O384 Pr357 2.695 . S
O384 C374 1.270 . S
O385 Pr357 2.512 . S
O385 C374 1.248 . S
O386 Pr356 2.438 . S
O386 C375 1.267 . S
O387 Pr357 2.437 . S
O387 C375 1.278 . S
H388 C360 0.929 . S
H389 C361 0.929 . S
H390 C363 0.931 . S
H391 C364 0.930 . S
H392 C369 0.929 . S
H393 C370 0.929 . S
H394 C372 0.931 . S
H395 C373 0.930 . S
Pr396 C398 2.880 . S
Pr396 O416 2.562 . S
Pr396 O417 2.490 . S
Pr396 O418 2.695 . S
Pr396 O419 2.512 . S
Pr396 O421 2.437 . S
Pr396 O424 2.436 . S
Pr396 O426 2.438 . S
Pr397 C407 2.880 . S
Pr397 O418 2.436 . S
Pr397 O420 2.438 . S
Pr397 O422 2.562 . S
Pr397 O423 2.490 . S
Pr397 O424 2.695 . S
Pr397 O425 2.512 . S
Pr397 O427 2.437 . S
C398 Pr396 2.880 . S
C398 C399 1.491 . S
C398 O416 1.254 . S
C398 O417 1.225 . S
C399 C398 1.491 . S
C399 C400 1.392 . S
C399 C404 1.356 . S
C400 C399 1.392 . S
C400 C401 1.368 . S
C400 H428 0.929 . S
C401 C400 1.368 . S
C401 C402 1.386 . S
C401 H429 0.929 . S
C402 C401 1.386 . S
C402 C403 1.373 . S
C403 C402 1.373 . S
C403 C404 1.409 . S
C403 H430 0.931 . S
C404 C399 1.356 . S
C404 C403 1.409 . S
C404 H431 0.930 . S
C405 O418 1.270 . S
C405 O419 1.248 . S
C406 O420 1.267 . S
C406 O421 1.278 . S
C407 Pr397 2.880 . S
C407 C408 1.491 . S
C407 O422 1.254 . S
C407 O423 1.225 . S
C408 C407 1.491 . S
C408 C409 1.392 . S
C408 C413 1.356 . S
C409 C408 1.392 . S
C409 C410 1.368 . S
C409 H432 0.929 . S
C410 C409 1.368 . S
C410 C411 1.386 . S
C410 H433 0.929 . S
C411 C410 1.386 . S
C411 C412 1.373 . S
C412 C411 1.373 . S
C412 C413 1.409 . S
C412 H434 0.931 . S
C413 C408 1.356 . S
C413 C412 1.409 . S
C413 H435 0.930 . S
C414 O424 1.270 . S
C414 O425 1.248 . S
C415 O426 1.267 . S
C415 O427 1.278 . S
O416 Pr396 2.562 . S
O416 C398 1.254 . S
O417 Pr396 2.490 . S
O417 C398 1.225 . S
O418 Pr396 2.695 . S
O418 Pr397 2.436 . S
O418 C405 1.270 . S
O419 Pr396 2.512 . S
O419 C405 1.248 . S
O420 Pr397 2.438 . S
O420 C406 1.267 . S
O421 Pr396 2.437 . S
O421 C406 1.278 . S
O422 Pr397 2.562 . S
O422 C407 1.254 . S
O423 Pr397 2.490 . S
O423 C407 1.225 . S
O424 Pr396 2.436 . S
O424 Pr397 2.695 . S
O424 C414 1.270 . S
O425 Pr397 2.512 . S
O425 C414 1.248 . S
O426 Pr396 2.438 . S
O426 C415 1.267 . S
O427 Pr397 2.437 . S
O427 C415 1.278 . S
H428 C400 0.929 . S
H429 C401 0.929 . S
H430 C403 0.931 . S
H431 C404 0.930 . S
H432 C409 0.929 . S
H433 C410 0.929 . S
H434 C412 0.931 . S
H435 C413 0.930 . S
Pr436 C438 2.880 . S
Pr436 O456 2.562 . S
Pr436 O457 2.490 . S
Pr436 O458 2.695 . S
Pr436 O459 2.512 . S
Pr436 O461 2.437 . S
Pr436 O464 2.436 . S
Pr436 O466 2.438 . S
Pr437 C447 2.880 . S
Pr437 O458 2.436 . S
Pr437 O460 2.438 . S
Pr437 O462 2.562 . S
Pr437 O463 2.490 . S
Pr437 O464 2.695 . S
Pr437 O465 2.512 . S
Pr437 O467 2.437 . S
C438 Pr436 2.880 . S
C438 C439 1.491 . S
C438 O456 1.254 . S
C438 O457 1.225 . S
C439 C438 1.491 . S
C439 C440 1.392 . S
C439 C444 1.356 . S
C440 C439 1.392 . S
C440 C441 1.368 . S
C440 H468 0.929 . S
C441 C440 1.368 . S
C441 C442 1.386 . S
C441 H469 0.929 . S
C442 C441 1.386 . S
C442 C443 1.373 . S
C443 C442 1.373 . S
C443 C444 1.409 . S
C443 H470 0.931 . S
C444 C439 1.356 . S
C444 C443 1.409 . S
C444 H471 0.930 . S
C445 O458 1.270 . S
C445 O459 1.248 . S
C446 O460 1.267 . S
C446 O461 1.278 . S
C447 Pr437 2.880 . S
C447 C448 1.491 . S
C447 O462 1.254 . S
C447 O463 1.225 . S
C448 C447 1.491 . S
C448 C449 1.392 . S
C448 C453 1.356 . S
C449 C448 1.392 . S
C449 C450 1.368 . S
C449 H472 0.929 . S
C450 C449 1.368 . S
C450 C451 1.386 . S
C450 H473 0.929 . S
C451 C450 1.386 . S
C451 C452 1.373 . S
C452 C451 1.373 . S
C452 C453 1.409 . S
C452 H474 0.931 . S
C453 C448 1.356 . S
C453 C452 1.409 . S
C453 H475 0.930 . S
C454 O464 1.270 . S
C454 O465 1.248 . S
C455 O466 1.267 . S
C455 O467 1.278 . S
O456 Pr436 2.562 . S
O456 C438 1.254 . S
O457 Pr436 2.490 . S
O457 C438 1.225 . S
O458 Pr436 2.695 . S
O458 Pr437 2.436 . S
O458 C445 1.270 . S
O459 Pr436 2.512 . S
O459 C445 1.248 . S
O460 Pr437 2.438 . S
O460 C446 1.267 . S
O461 Pr436 2.437 . S
O461 C446 1.278 . S
O462 Pr437 2.562 . S
O462 C447 1.254 . S
O463 Pr437 2.490 . S
O463 C447 1.225 . S
O464 Pr436 2.436 . S
O464 Pr437 2.695 . S
O464 C454 1.270 . S
O465 Pr437 2.512 . S
O465 C454 1.248 . S
O466 Pr436 2.438 . S
O466 C455 1.267 . S
O467 Pr437 2.437 . S
O467 C455 1.278 . S
H468 C440 0.929 . S
H469 C441 0.929 . S
H470 C443 0.931 . S
H471 C444 0.930 . S
H472 C449 0.929 . S
H473 C450 0.929 . S
H474 C452 0.931 . S
H475 C453 0.930 . S
Pr476 C478 2.880 . S
Pr476 O496 2.562 . S
Pr476 O497 2.490 . S
Pr476 O498 2.695 . S
Pr476 O499 2.512 . S
Pr476 O501 2.437 . S
Pr476 O504 2.436 . S
Pr476 O506 2.438 . S
Pr477 C487 2.880 . S
Pr477 O498 2.436 . S
Pr477 O500 2.438 . S
Pr477 O502 2.562 . S
Pr477 O503 2.490 . S
Pr477 O504 2.695 . S
Pr477 O505 2.512 . S
Pr477 O507 2.437 . S
C478 Pr476 2.880 . S
C478 C479 1.491 . S
C478 O496 1.254 . S
C478 O497 1.225 . S
C479 C478 1.491 . S
C479 C480 1.392 . S
C479 C484 1.356 . S
C480 C479 1.392 . S
C480 C481 1.368 . S
C480 H508 0.929 . S
C481 C480 1.368 . S
C481 C482 1.386 . S
C481 H509 0.929 . S
C482 C481 1.386 . S
C482 C483 1.373 . S
C483 C482 1.373 . S
C483 C484 1.409 . S
C483 H510 0.931 . S
C484 C479 1.356 . S
C484 C483 1.409 . S
C484 H511 0.930 . S
C485 O498 1.270 . S
C485 O499 1.248 . S
C486 O500 1.267 . S
C486 O501 1.278 . S
C487 Pr477 2.880 . S
C487 C488 1.491 . S
C487 O502 1.254 . S
C487 O503 1.225 . S
C488 C487 1.491 . S
C488 C489 1.392 . S
C488 C493 1.356 . S
C489 C488 1.392 . S
C489 C490 1.368 . S
C489 H512 0.929 . S
C490 C489 1.368 . S
C490 C491 1.386 . S
C490 H513 0.929 . S
C491 C490 1.386 . S
C491 C492 1.373 . S
C492 C491 1.373 . S
C492 C493 1.409 . S
C492 H514 0.931 . S
C493 C488 1.356 . S
C493 C492 1.409 . S
C493 H515 0.930 . S
C494 O504 1.270 . S
C494 O505 1.248 . S
C495 O506 1.267 . S
C495 O507 1.278 . S
O496 Pr476 2.562 . S
O496 C478 1.254 . S
O497 Pr476 2.490 . S
O497 C478 1.225 . S
O498 Pr476 2.695 . S
O498 Pr477 2.436 . S
O498 C485 1.270 . S
O499 Pr476 2.512 . S
O499 C485 1.248 . S
O500 Pr477 2.438 . S
O500 C486 1.267 . S
O501 Pr476 2.437 . S
O501 C486 1.278 . S
O502 Pr477 2.562 . S
O502 C487 1.254 . S
O503 Pr477 2.490 . S
O503 C487 1.225 . S
O504 Pr476 2.436 . S
O504 Pr477 2.695 . S
O504 C494 1.270 . S
O505 Pr477 2.512 . S
O505 C494 1.248 . S
O506 Pr476 2.438 . S
O506 C495 1.267 . S
O507 Pr477 2.437 . S
O507 C495 1.278 . S
H508 C480 0.929 . S
H509 C481 0.929 . S
H510 C483 0.931 . S
H511 C484 0.930 . S
H512 C489 0.929 . S
H513 C490 0.929 . S
H514 C492 0.931 . S
H515 C493 0.930 . S
Pr516 C518 2.880 . S
Pr516 O536 2.562 . S
Pr516 O537 2.490 . S
Pr516 O538 2.695 . S
Pr516 O539 2.512 . S
Pr516 O541 2.437 . S
Pr516 O544 2.436 . S
Pr516 O546 2.438 . S
Pr517 C527 2.880 . S
Pr517 O538 2.436 . S
Pr517 O540 2.438 . S
Pr517 O542 2.562 . S
Pr517 O543 2.490 . S
Pr517 O544 2.695 . S
Pr517 O545 2.512 . S
Pr517 O547 2.437 . S
C518 Pr516 2.880 . S
C518 C519 1.491 . S
C518 O536 1.254 . S
C518 O537 1.225 . S
C519 C518 1.491 . S
C519 C520 1.392 . S
C519 C524 1.356 . S
C520 C519 1.392 . S
C520 C521 1.368 . S
C520 H548 0.929 . S
C521 C520 1.368 . S
C521 C522 1.386 . S
C521 H549 0.929 . S
C522 C521 1.386 . S
C522 C523 1.373 . S
C523 C522 1.373 . S
C523 C524 1.409 . S
C523 H550 0.931 . S
C524 C519 1.356 . S
C524 C523 1.409 . S
C524 H551 0.930 . S
C525 O538 1.270 . S
C525 O539 1.248 . S
C526 O540 1.267 . S
C526 O541 1.278 . S
C527 Pr517 2.880 . S
C527 C528 1.491 . S
C527 O542 1.254 . S
C527 O543 1.225 . S
C528 C527 1.491 . S
C528 C529 1.392 . S
C528 C533 1.356 . S
C529 C528 1.392 . S
C529 C530 1.368 . S
C529 H552 0.929 . S
C530 C529 1.368 . S
C530 C531 1.386 . S
C530 H553 0.929 . S
C531 C530 1.386 . S
C531 C532 1.373 . S
C532 C531 1.373 . S
C532 C533 1.409 . S
C532 H554 0.931 . S
C533 C528 1.356 . S
C533 C532 1.409 . S
C533 H555 0.930 . S
C534 O544 1.270 . S
C534 O545 1.248 . S
C535 O546 1.267 . S
C535 O547 1.278 . S
O536 Pr516 2.562 . S
O536 C518 1.254 . S
O537 Pr516 2.490 . S
O537 C518 1.225 . S
O538 Pr516 2.695 . S
O538 Pr517 2.436 . S
O538 C525 1.270 . S
O539 Pr516 2.512 . S
O539 C525 1.248 . S
O540 Pr517 2.438 . S
O540 C526 1.267 . S
O541 Pr516 2.437 . S
O541 C526 1.278 . S
O542 Pr517 2.562 . S
O542 C527 1.254 . S
O543 Pr517 2.490 . S
O543 C527 1.225 . S
O544 Pr516 2.436 . S
O544 Pr517 2.695 . S
O544 C534 1.270 . S
O545 Pr517 2.512 . S
O545 C534 1.248 . S
O546 Pr516 2.438 . S
O546 C535 1.267 . S
O547 Pr517 2.437 . S
O547 C535 1.278 . S
H548 C520 0.929 . S
H549 C521 0.929 . S
H550 C523 0.931 . S
H551 C524 0.930 . S
H552 C529 0.929 . S
H553 C530 0.929 . S
H554 C532 0.931 . S
H555 C533 0.930 . S
Pr556 C558 2.880 . S
Pr556 O576 2.562 . S
Pr556 O577 2.490 . S
Pr556 O578 2.695 . S
Pr556 O579 2.512 . S
Pr556 O581 2.437 . S
Pr556 O584 2.436 . S
Pr556 O586 2.438 . S
Pr557 C567 2.880 . S
Pr557 O578 2.436 . S
Pr557 O580 2.438 . S
Pr557 O582 2.562 . S
Pr557 O583 2.490 . S
Pr557 O584 2.695 . S
Pr557 O585 2.512 . S
Pr557 O587 2.437 . S
C558 Pr556 2.880 . S
C558 C559 1.491 . S
C558 O576 1.254 . S
C558 O577 1.225 . S
C559 C558 1.491 . S
C559 C560 1.392 . S
C559 C564 1.356 . S
C560 C559 1.392 . S
C560 C561 1.368 . S
C560 H588 0.929 . S
C561 C560 1.368 . S
C561 C562 1.386 . S
C561 H589 0.929 . S
C562 C561 1.386 . S
C562 C563 1.373 . S
C563 C562 1.373 . S
C563 C564 1.409 . S
C563 H590 0.931 . S
C564 C559 1.356 . S
C564 C563 1.409 . S
C564 H591 0.930 . S
C565 O578 1.270 . S
C565 O579 1.248 . S
C566 O580 1.267 . S
C566 O581 1.278 . S
C567 Pr557 2.880 . S
C567 C568 1.491 . S
C567 O582 1.254 . S
C567 O583 1.225 . S
C568 C567 1.491 . S
C568 C569 1.392 . S
C568 C573 1.356 . S
C569 C568 1.392 . S
C569 C570 1.368 . S
C569 H592 0.929 . S
C570 C569 1.368 . S
C570 C571 1.386 . S
C570 H593 0.929 . S
C571 C570 1.386 . S
C571 C572 1.373 . S
C572 C571 1.373 . S
C572 C573 1.409 . S
C572 H594 0.931 . S
C573 C568 1.356 . S
C573 C572 1.409 . S
C573 H595 0.930 . S
C574 O584 1.270 . S
C574 O585 1.248 . S
C575 O586 1.267 . S
C575 O587 1.278 . S
O576 Pr556 2.562 . S
O576 C558 1.254 . S
O577 Pr556 2.490 . S
O577 C558 1.225 . S
O578 Pr556 2.695 . S
O578 Pr557 2.436 . S
O578 C565 1.270 . S
O579 Pr556 2.512 . S
O579 C565 1.248 . S
O580 Pr557 2.438 . S
O580 C566 1.267 . S
O581 Pr556 2.437 . S
O581 C566 1.278 . S
O582 Pr557 2.562 . S
O582 C567 1.254 . S
O583 Pr557 2.490 . S
O583 C567 1.225 . S
O584 Pr556 2.436 . S
O584 Pr557 2.695 . S
O584 C574 1.270 . S
O585 Pr557 2.512 . S
O585 C574 1.248 . S
O586 Pr556 2.438 . S
O586 C575 1.267 . S
O587 Pr557 2.437 . S
O587 C575 1.278 . S
H588 C560 0.929 . S
H589 C561 0.929 . S
H590 C563 0.931 . S
H591 C564 0.930 . S
H592 C569 0.929 . S
H593 C570 0.929 . S
H594 C572 0.931 . S
H595 C573 0.930 . S
H596 C602 0.930 . S
H597 C606 0.930 . S
H598 C611 0.929 . S
H599 C609 0.929 . S
H600 C604 0.929 . S
H601 C610 0.929 . S
C602 H596 0.930 . S
C602 C603 1.367 . S
C602 C610 1.378 . S
C603 C602 1.367 . S
C603 C611 1.433 . S
C604 H600 0.929 . S
C604 C606 1.378 . S
C604 C608 1.350 . S
C605 C608 1.463 . S
C605 C610 1.350 . S
C605 N613 1.427 . S
C606 H597 0.930 . S
C606 C604 1.378 . S
C606 C607 1.367 . S
C607 C606 1.367 . S
C607 C609 1.433 . S
C608 C604 1.350 . S
C608 C605 1.463 . S
C608 N612 1.427 . S
C609 H599 0.929 . S
C609 C607 1.433 . S
C609 N612 1.384 . S
C610 H601 0.929 . S
C610 C602 1.378 . S
C610 C605 1.350 . S
C611 H598 0.929 . S
C611 C603 1.433 . S
C611 N613 1.384 . S
N612 C608 1.427 . S
N612 C609 1.384 . S
N613 C605 1.427 . S
N613 C611 1.384 . S
H614 C620 0.930 . S
H615 C624 0.930 . S
H616 C629 0.929 . S
H617 C627 0.929 . S
H618 C622 0.929 . S
H619 C628 0.929 . S
C620 H614 0.930 . S
C620 C621 1.367 . S
C620 C628 1.378 . S
C621 C620 1.367 . S
C621 C629 1.433 . S
C622 H618 0.929 . S
C622 C624 1.378 . S
C622 C626 1.350 . S
C623 C626 1.463 . S
C623 C628 1.350 . S
C623 N631 1.427 . S
C624 H615 0.930 . S
C624 C622 1.378 . S
C624 C625 1.367 . S
C625 C624 1.367 . S
C625 C627 1.433 . S
C626 C622 1.350 . S
C626 C623 1.463 . S
C626 N630 1.427 . S
C627 H617 0.929 . S
C627 C625 1.433 . S
C627 N630 1.384 . S
C628 H619 0.929 . S
C628 C620 1.378 . S
C628 C623 1.350 . S
C629 H616 0.929 . S
C629 C621 1.433 . S
C629 N631 1.384 . S
N630 C626 1.427 . S
N630 C627 1.384 . S
N631 C623 1.427 . S
N631 C629 1.384 . S
H632 C638 0.930 1_545 S
H633 C642 0.930 . S
H634 C647 0.929 . S
H635 C645 0.929 . S
H636 C640 0.929 . S
H637 C646 0.929 . S
C638 H632 0.930 1_565 S
C638 C639 1.367 . S
C638 C646 1.378 . S
C639 C638 1.367 . S
C639 C647 1.433 . S
C640 H636 0.929 . S
C640 C642 1.378 . S
C640 C644 1.350 . S
C641 C644 1.463 . S
C641 C646 1.350 . S
C641 N649 1.427 . S
C642 H633 0.930 . S
C642 C640 1.378 . S
C642 C643 1.367 . S
C643 C642 1.367 . S
C643 C645 1.433 . S
C644 C640 1.350 . S
C644 C641 1.463 . S
C644 N648 1.427 . S
C645 H635 0.929 . S
C645 C643 1.433 . S
C645 N648 1.384 . S
C646 H637 0.929 . S
C646 C638 1.378 . S
C646 C641 1.350 . S
C647 H634 0.929 . S
C647 C639 1.433 . S
C647 N649 1.384 . S
N648 C644 1.427 . S
N648 C645 1.384 . S
N649 C641 1.427 . S
N649 C647 1.384 . S
H650 C656 0.930 . S
H651 C660 0.930 . S
H652 C665 0.929 . S
H653 C663 0.929 . S
H654 C658 0.929 . S
H655 C664 0.929 . S
C656 H650 0.930 . S
C656 C657 1.367 . S
C656 C664 1.378 . S
C657 C656 1.367 . S
C657 C665 1.433 . S
C658 H654 0.929 . S
C658 C660 1.378 . S
C658 C662 1.350 . S
C659 C662 1.463 . S
C659 C664 1.350 . S
C659 N667 1.427 . S
C660 H651 0.930 . S
C660 C658 1.378 . S
C660 C661 1.367 . S
C661 C660 1.367 . S
C661 C663 1.433 . S
C662 C658 1.350 . S
C662 C659 1.463 . S
C662 N666 1.427 . S
C663 H653 0.929 . S
C663 C661 1.433 . S
C663 N666 1.384 . S
C664 H655 0.929 . S
C664 C656 1.378 . S
C664 C659 1.350 . S
C665 H652 0.929 . S
C665 C657 1.433 . S
C665 N667 1.384 . S
N666 C662 1.427 . S
N666 C663 1.384 . S
N667 C659 1.427 . S
N667 C665 1.384 . S
H668 C674 0.930 . S
H669 C678 0.930 . S
H670 C683 0.929 . S
H671 C681 0.929 . S
H672 C676 0.929 . S
H673 C682 0.929 . S
C674 H668 0.930 . S
C674 C675 1.367 . S
C674 C682 1.378 . S
C675 C674 1.367 . S
C675 C683 1.433 . S
C676 H672 0.929 . S
C676 C678 1.378 . S
C676 C680 1.350 . S
C677 C680 1.463 . S
C677 C682 1.350 . S
C677 N685 1.427 . S
C678 H669 0.930 . S
C678 C676 1.378 . S
C678 C679 1.367 . S
C679 C678 1.367 . S
C679 C681 1.433 . S
C680 C676 1.350 . S
C680 C677 1.463 . S
C680 N684 1.427 . S
C681 H671 0.929 . S
C681 C679 1.433 . S
C681 N684 1.384 . S
C682 H673 0.929 . S
C682 C674 1.378 . S
C682 C677 1.350 . S
C683 H670 0.929 . S
C683 C675 1.433 . S
C683 N685 1.384 . S
N684 C680 1.427 . S
N684 C681 1.384 . S
N685 C677 1.427 . S
N685 C683 1.384 . S
H686 C692 0.930 . S
H687 C696 0.930 . S
H688 C701 0.929 . S
H689 C699 0.929 . S
H690 C694 0.929 . S
H691 C700 0.929 . S
C692 H686 0.930 . S
C692 C693 1.367 . S
C692 C700 1.378 . S
C693 C692 1.367 . S
C693 C701 1.433 . S
C694 H690 0.929 . S
C694 C696 1.378 . S
C694 C698 1.350 . S
C695 C698 1.463 . S
C695 C700 1.350 . S
C695 N703 1.427 . S
C696 H687 0.930 . S
C696 C694 1.378 . S
C696 C697 1.367 . S
C697 C696 1.367 . S
C697 C699 1.433 . S
C698 C694 1.350 . S
C698 C695 1.463 . S
C698 N702 1.427 . S
C699 H689 0.929 . S
C699 C697 1.433 . S
C699 N702 1.384 . S
C700 H691 0.929 . S
C700 C692 1.378 . S
C700 C695 1.350 . S
C701 H688 0.929 . S
C701 C693 1.433 . S
C701 N703 1.384 . S
N702 C698 1.427 . S
N702 C699 1.384 . S
N703 C695 1.427 . S
N703 C701 1.384 . S
H704 C710 0.930 . S
H705 C714 0.930 . S
H706 C719 0.929 . S
H707 C717 0.929 . S
H708 C712 0.929 . S
H709 C718 0.929 . S
C710 H704 0.930 . S
C710 C711 1.367 . S
C710 C718 1.378 . S
C711 C710 1.367 . S
C711 C719 1.433 . S
C712 H708 0.929 . S
C712 C714 1.378 . S
C712 C716 1.350 . S
C713 C716 1.463 . S
C713 C718 1.350 . S
C713 N721 1.427 . S
C714 H705 0.930 . S
C714 C712 1.378 . S
C714 C715 1.367 . S
C715 C714 1.367 . S
C715 C717 1.433 . S
C716 C712 1.350 . S
C716 C713 1.463 . S
C716 N720 1.427 . S
C717 H707 0.929 . S
C717 C715 1.433 . S
C717 N720 1.384 . S
C718 H709 0.929 . S
C718 C710 1.378 . S
C718 C713 1.350 . S
C719 H706 0.929 . S
C719 C711 1.433 . S
C719 N721 1.384 . S
N720 C716 1.427 . S
N720 C717 1.384 . S
N721 C713 1.427 . S
N721 C719 1.384 . S
H722 C728 0.930 . S
H723 C732 0.930 . S
H724 C737 0.929 1_455 S
H725 C735 0.929 . S
H726 C730 0.929 . S
H727 C736 0.929 . S
C728 H722 0.930 . S
C728 C729 1.367 . S
C728 C736 1.378 . S
C729 C728 1.367 . S
C729 C737 1.433 . S
C730 H726 0.929 . S
C730 C732 1.378 . S
C730 C734 1.350 . S
C731 C734 1.463 . S
C731 C736 1.350 . S
C731 N739 1.427 . S
C732 H723 0.930 . S
C732 C730 1.378 . S
C732 C733 1.367 . S
C733 C732 1.367 . S
C733 C735 1.433 . S
C734 C730 1.350 . S
C734 C731 1.463 . S
C734 N738 1.427 . S
C735 H725 0.929 . S
C735 C733 1.433 . S
C735 N738 1.384 . S
C736 H727 0.929 . S
C736 C728 1.378 . S
C736 C731 1.350 . S
C737 H724 0.929 1_655 S
C737 C729 1.433 . S
C737 N739 1.384 . S
N738 C734 1.427 . S
N738 C735 1.384 . S
N739 C731 1.427 . S
N739 C737 1.384 . S
H740 C746 0.930 . S
H741 C750 0.930 . S
H742 C755 0.929 . S
H743 C753 0.929 . S
H744 C748 0.929 . S
H745 C754 0.929 . S
C746 H740 0.930 . S
C746 C747 1.367 . S
C746 C754 1.378 . S
C747 C746 1.367 . S
C747 C755 1.433 . S
C748 H744 0.929 . S
C748 C750 1.378 . S
C748 C752 1.350 . S
C749 C752 1.463 . S
C749 C754 1.350 . S
C749 N757 1.427 . S
C750 H741 0.930 . S
C750 C748 1.378 . S
C750 C751 1.367 . S
C751 C750 1.367 . S
C751 C753 1.433 . S
C752 C748 1.350 . S
C752 C749 1.463 . S
C752 N756 1.427 . S
C753 H743 0.929 . S
C753 C751 1.433 . S
C753 N756 1.384 . S
C754 H745 0.929 . S
C754 C746 1.378 . S
C754 C749 1.350 . S
C755 H742 0.929 . S
C755 C747 1.433 . S
C755 N757 1.384 . S
N756 C752 1.427 . S
N756 C753 1.384 . S
N757 C749 1.427 . S
N757 C755 1.384 . S
H758 C764 0.930 . S
H759 C768 0.930 . S
H760 C773 0.929 . S
H761 C771 0.929 . S
H762 C766 0.929 . S
H763 C772 0.929 . S
C764 H758 0.930 . S
C764 C765 1.367 . S
C764 C772 1.378 . S
C765 C764 1.367 . S
C765 C773 1.433 . S
C766 H762 0.929 . S
C766 C768 1.378 . S
C766 C770 1.350 . S
C767 C770 1.463 . S
C767 C772 1.350 . S
C767 N775 1.427 . S
C768 H759 0.930 . S
C768 C766 1.378 . S
C768 C769 1.367 . S
C769 C768 1.367 . S
C769 C771 1.433 . S
C770 C766 1.350 . S
C770 C767 1.463 . S
C770 N774 1.427 . S
C771 H761 0.929 . S
C771 C769 1.433 . S
C771 N774 1.384 . S
C772 H763 0.929 . S
C772 C764 1.378 . S
C772 C767 1.350 . S
C773 H760 0.929 . S
C773 C765 1.433 . S
C773 N775 1.384 . S
N774 C770 1.427 . S
N774 C771 1.384 . S
N775 C767 1.427 . S
N775 C773 1.384 . S
H776 C782 0.930 . S
H777 C786 0.930 . S
H778 C791 0.929 . S
H779 C789 0.929 . S
H780 C784 0.929 . S
H781 C790 0.929 . S
C782 H776 0.930 . S
C782 C783 1.367 . S
C782 C790 1.378 . S
C783 C782 1.367 . S
C783 C791 1.433 . S
C784 H780 0.929 . S
C784 C786 1.378 . S
C784 C788 1.350 . S
C785 C788 1.463 . S
C785 C790 1.350 . S
C785 N793 1.427 . S
C786 H777 0.930 . S
C786 C784 1.378 . S
C786 C787 1.367 . S
C787 C786 1.367 . S
C787 C789 1.433 . S
C788 C784 1.350 . S
C788 C785 1.463 . S
C788 N792 1.427 . S
C789 H779 0.929 . S
C789 C787 1.433 . S
C789 N792 1.384 . S
C790 H781 0.929 . S
C790 C782 1.378 . S
C790 C785 1.350 . S
C791 H778 0.929 . S
C791 C783 1.433 . S
C791 N793 1.384 . S
N792 C788 1.427 . S
N792 C789 1.384 . S
N793 C785 1.427 . S
N793 C791 1.384 . S
H794 C800 0.930 . S
H795 C804 0.930 . S
H796 C809 0.929 . S
H797 C807 0.929 . S
H798 C802 0.929 . S
H799 C808 0.929 . S
C800 H794 0.930 . S
C800 C801 1.367 . S
C800 C808 1.378 . S
C801 C800 1.367 . S
C801 C809 1.433 . S
C802 H798 0.929 . S
C802 C804 1.378 . S
C802 C806 1.350 . S
C803 C806 1.463 . S
C803 C808 1.350 . S
C803 N811 1.427 . S
C804 H795 0.930 . S
C804 C802 1.378 . S
C804 C805 1.367 . S
C805 C804 1.367 . S
C805 C807 1.433 . S
C806 C802 1.350 . S
C806 C803 1.463 . S
C806 N810 1.427 . S
C807 H797 0.929 . S
C807 C805 1.433 . S
C807 N810 1.384 . S
C808 H799 0.929 . S
C808 C800 1.378 . S
C808 C803 1.350 . S
C809 H796 0.929 . S
C809 C801 1.433 . S
C809 N811 1.384 . S
N810 C806 1.427 . S
N810 C807 1.384 . S
N811 C803 1.427 . S
N811 C809 1.384 . S
H812 C818 0.930 . S
H813 C822 0.930 . S
H814 C827 0.929 . S
H815 C825 0.929 . S
H816 C820 0.929 1_554 S
H817 C826 0.929 . S
C818 H812 0.930 . S
C818 C819 1.367 1_556 S
C818 C826 1.378 . S
C819 C818 1.367 1_554 S
C819 C827 1.433 . S
C820 H816 0.929 1_556 S
C820 C822 1.378 . S
C820 C824 1.350 . S
C821 C824 1.463 . S
C821 C826 1.350 . S
C821 N829 1.427 1_556 S
C822 H813 0.930 . S
C822 C820 1.378 . S
C822 C823 1.367 . S
C823 C822 1.367 . S
C823 C825 1.433 . S
C824 C820 1.350 . S
C824 C821 1.463 . S
C824 N828 1.427 . S
C825 H815 0.929 . S
C825 C823 1.433 . S
C825 N828 1.384 . S
C826 H817 0.929 . S
C826 C818 1.378 . S
C826 C821 1.350 . S
C827 H814 0.929 . S
C827 C819 1.433 . S
C827 N829 1.384 . S
N828 C824 1.427 . S
N828 C825 1.384 . S
N829 C821 1.427 1_554 S
N829 C827 1.384 . S
H830 C836 0.930 . S
H831 C840 0.930 . S
H832 C845 0.929 1_554 S
H833 C843 0.929 . S
H834 C838 0.929 . S
H835 C844 0.929 . S
C836 H830 0.930 . S
C836 C837 1.367 . S
C836 C844 1.378 . S
C837 C836 1.367 . S
C837 C845 1.433 . S
C838 H834 0.929 . S
C838 C840 1.378 . S
C838 C842 1.350 . S
C839 C842 1.463 . S
C839 C844 1.350 . S
C839 N847 1.427 . S
C840 H831 0.930 . S
C840 C838 1.378 . S
C840 C841 1.367 . S
C841 C840 1.367 . S
C841 C843 1.433 . S
C842 C838 1.350 . S
C842 C839 1.463 . S
C842 N846 1.427 . S
C843 H833 0.929 . S
C843 C841 1.433 . S
C843 N846 1.384 . S
C844 H835 0.929 . S
C844 C836 1.378 . S
C844 C839 1.350 . S
C845 H832 0.929 1_556 S
C845 C837 1.433 . S
C845 N847 1.384 . S
N846 C842 1.427 . S
N846 C843 1.384 . S
N847 C839 1.427 . S
N847 C845 1.384 . S
H848 C854 0.930 . S
H849 C858 0.930 . S
H850 C863 0.929 . S
H851 C861 0.929 . S
H852 C856 0.929 . S
H853 C862 0.929 . S
C854 H848 0.930 . S
C854 C855 1.367 . S
C854 C862 1.378 . S
C855 C854 1.367 . S
C855 C863 1.433 . S
C856 H852 0.929 . S
C856 C858 1.378 . S
C856 C860 1.350 . S
C857 C860 1.463 . S
C857 C862 1.350 . S
C857 N865 1.427 . S
C858 H849 0.930 . S
C858 C856 1.378 . S
C858 C859 1.367 . S
C859 C858 1.367 . S
C859 C861 1.433 . S
C860 C856 1.350 . S
C860 C857 1.463 . S
C860 N864 1.427 . S
C861 H851 0.929 . S
C861 C859 1.433 . S
C861 N864 1.384 . S
C862 H853 0.929 . S
C862 C854 1.378 . S
C862 C857 1.350 . S
C863 H850 0.929 . S
C863 C855 1.433 . S
C863 N865 1.384 . S
N864 C860 1.427 . S
N864 C861 1.384 . S
N865 C857 1.427 . S
N865 C863 1.384 . S
H866 C872 0.930 . S
H867 C876 0.930 . S
H868 C881 0.929 . S
H869 C879 0.929 . S
H870 C874 0.929 . S
H871 C880 0.929 . S
C872 H866 0.930 . S
C872 C873 1.367 . S
C872 C880 1.378 . S
C873 C872 1.367 . S
C873 C881 1.433 . S
C874 H870 0.929 . S
C874 C876 1.378 . S
C874 C878 1.350 . S
C875 C878 1.463 . S
C875 C880 1.350 . S
C875 N883 1.427 . S
C876 H867 0.930 . S
C876 C874 1.378 . S
C876 C877 1.367 . S
C877 C876 1.367 . S
C877 C879 1.433 . S
C878 C874 1.350 . S
C878 C875 1.463 . S
C878 N882 1.427 . S
C879 H869 0.929 . S
C879 C877 1.433 . S
C879 N882 1.384 . S
C880 H871 0.929 . S
C880 C872 1.378 . S
C880 C875 1.350 . S
C881 H868 0.929 . S
C881 C873 1.433 . S
C881 N883 1.384 . S
N882 C878 1.427 . S
N882 C879 1.384 . S
N883 C875 1.427 . S
N883 C881 1.384 . S
H884 C890 0.930 . S
H885 C894 0.930 . S
H886 C899 0.929 . S
H887 C897 0.929 . S
H888 C892 0.929 . S
H889 C898 0.929 . S
C890 H884 0.930 . S
C890 C891 1.367 . S
C890 C898 1.378 . S
C891 C890 1.367 . S
C891 C899 1.433 . S
C892 H888 0.929 . S
C892 C894 1.378 . S
C892 C896 1.350 . S
C893 C896 1.463 . S
C893 C898 1.350 . S
C893 N901 1.427 . S
C894 H885 0.930 . S
C894 C892 1.378 . S
C894 C895 1.367 . S
C895 C894 1.367 . S
C895 C897 1.433 . S
C896 C892 1.350 . S
C896 C893 1.463 . S
C896 N900 1.427 . S
C897 H887 0.929 . S
C897 C895 1.433 . S
C897 N900 1.384 . S
C898 H889 0.929 . S
C898 C890 1.378 . S
C898 C893 1.350 . S
C899 H886 0.929 . S
C899 C891 1.433 . S
C899 N901 1.384 . S
N900 C896 1.427 . S
N900 C897 1.384 . S
N901 C893 1.427 . S
N901 C899 1.384 . S
H902 C908 0.930 . S
H903 C912 0.930 . S
H904 C917 0.929 . S
H905 C915 0.929 . S
H906 C910 0.929 . S
H907 C916 0.929 . S
C908 H902 0.930 . S
C908 C909 1.367 . S
C908 C916 1.378 . S
C909 C908 1.367 . S
C909 C917 1.433 . S
C910 H906 0.929 . S
C910 C912 1.378 . S
C910 C914 1.350 . S
C911 C914 1.463 . S
C911 C916 1.350 . S
C911 N919 1.427 . S
C912 H903 0.930 . S
C912 C910 1.378 . S
C912 C913 1.367 . S
C913 C912 1.367 . S
C913 C915 1.433 . S
C914 C910 1.350 . S
C914 C911 1.463 . S
C914 N918 1.427 . S
C915 H905 0.929 . S
C915 C913 1.433 . S
C915 N918 1.384 . S
C916 H907 0.929 . S
C916 C908 1.378 . S
C916 C911 1.350 . S
C917 H904 0.929 . S
C917 C909 1.433 . S
C917 N919 1.384 . S
N918 C914 1.427 . S
N918 C915 1.384 . S
N919 C911 1.427 . S
N919 C917 1.384 . S
H920 C926 0.930 . S
H921 C930 0.930 . S
H922 C935 0.929 . S
H923 C933 0.929 . S
H924 C928 0.929 . S
H925 C934 0.929 . S
C926 H920 0.930 . S
C926 C927 1.367 . S
C926 C934 1.378 1_554 S
C927 C926 1.367 . S
C927 C935 1.433 1_554 S
C928 H924 0.929 . S
C928 C930 1.378 . S
C928 C932 1.350 . S
C929 C932 1.463 . S
C929 C934 1.350 . S
C929 N937 1.427 . S
C930 H921 0.930 . S
C930 C928 1.378 . S
C930 C931 1.367 . S
C931 C930 1.367 . S
C931 C933 1.433 . S
C932 C928 1.350 . S
C932 C929 1.463 . S
C932 N936 1.427 . S
C933 H923 0.929 . S
C933 C931 1.433 . S
C933 N936 1.384 . S
C934 H925 0.929 . S
C934 C926 1.378 1_556 S
C934 C929 1.350 . S
C935 H922 0.929 . S
C935 C927 1.433 1_556 S
C935 N937 1.384 . S
N936 C932 1.427 . S
N936 C933 1.384 . S
N937 C929 1.427 . S
N937 C935 1.384 . S
H938 C944 0.930 . S
H939 C948 0.930 . S
H940 C953 0.929 1_556 S
H941 C951 0.929 . S
H942 C946 0.929 . S
H943 C952 0.929 . S
C944 H938 0.930 . S
C944 C945 1.367 . S
C944 C952 1.378 . S
C945 C944 1.367 . S
C945 C953 1.433 . S
C946 H942 0.929 . S
C946 C948 1.378 . S
C946 C950 1.350 . S
C947 C950 1.463 1_554 S
C947 C952 1.350 . S
C947 N955 1.427 1_554 S
C948 H939 0.930 . S
C948 C946 1.378 . S
C948 C949 1.367 . S
C949 C948 1.367 . S
C949 C951 1.433 . S
C950 C946 1.350 . S
C950 C947 1.463 1_556 S
C950 N954 1.432 . S
C951 H941 0.929 . S
C951 C949 1.433 . S
C951 N954 1.393 . S
C952 H943 0.929 . S
C952 C944 1.378 . S
C952 C947 1.350 . S
C953 H940 0.929 1_554 S
C953 C945 1.433 . S
C953 N955 1.384 1_554 S
N954 C950 1.432 . S
N954 C951 1.393 . S
N955 C947 1.427 1_556 S
N955 C953 1.384 1_556 S
H956 C962 0.930 . S
H957 C966 0.930 . S
H958 C971 0.929 . S
H959 C969 0.929 . S
H960 C964 0.929 . S
H961 C970 0.929 . S
C962 H956 0.930 . S
C962 C963 1.367 . S
C962 C970 1.378 . S
C963 C962 1.367 . S
C963 C971 1.433 . S
C964 H960 0.929 . S
C964 C966 1.378 . S
C964 C968 1.350 . S
C965 C968 1.463 . S
C965 C970 1.350 . S
C965 N973 1.427 . S
C966 H957 0.930 . S
C966 C964 1.378 . S
C966 C967 1.367 . S
C967 C966 1.367 . S
C967 C969 1.433 . S
C968 C964 1.350 . S
C968 C965 1.463 . S
C968 N972 1.427 . S
C969 H959 0.929 . S
C969 C967 1.433 . S
C969 N972 1.384 . S
C970 H961 0.929 . S
C970 C962 1.378 . S
C970 C965 1.350 . S
C971 H958 0.929 . S
C971 C963 1.433 . S
C971 N973 1.384 . S
N972 C968 1.427 . S
N972 C969 1.384 . S
N973 C965 1.427 . S
N973 C971 1.384 . S
H974 C980 0.930 . S
H975 C984 0.930 . S
H976 C989 0.929 . S
H977 C987 0.929 . S
H978 C982 0.929 . S
H979 C988 0.929 . S
C980 H974 0.930 . S
C980 C981 1.367 . S
C980 C988 1.378 . S
C981 C980 1.367 . S
C981 C989 1.433 . S
C982 H978 0.929 . S
C982 C984 1.378 . S
C982 C986 1.350 . S
C983 C986 1.463 . S
C983 C988 1.350 . S
C983 N991 1.427 . S
C984 H975 0.930 . S
C984 C982 1.378 . S
C984 C985 1.367 . S
C985 C984 1.367 . S
C985 C987 1.433 . S
C986 C982 1.350 . S
C986 C983 1.463 . S
C986 N990 1.427 . S
C987 H977 0.929 . S
C987 C985 1.433 . S
C987 N990 1.384 . S
C988 H979 0.929 . S
C988 C980 1.378 . S
C988 C983 1.350 . S
C989 H976 0.929 . S
C989 C981 1.433 . S
C989 N991 1.384 . S
N990 C986 1.427 . S
N990 C987 1.384 . S
N991 C983 1.427 . S
N991 C989 1.384 . S
H992 C998 0.930 . S
H993 C1002 0.930 . S
H994 C1007 0.929 . S
H995 C1005 0.929 . S
H996 C1000 0.929 . S
H997 C1006 0.929 . S
C998 H992 0.930 . S
C998 C999 1.367 . S
C998 C1006 1.378 . S
C999 C998 1.367 . S
C999 C1007 1.433 . S
C1000 H996 0.929 . S
C1000 C1002 1.378 . S
C1000 C1004 1.350 . S
C1001 C1004 1.463 . S
C1001 C1006 1.350 . S
C1001 N1009 1.427 . S
C1002 H993 0.930 . S
C1002 C1000 1.378 . S
C1002 C1003 1.367 . S
C1003 C1002 1.367 . S
C1003 C1005 1.433 . S
C1004 C1000 1.350 . S
C1004 C1001 1.463 . S
C1004 N1008 1.427 . S
C1005 H995 0.929 . S
C1005 C1003 1.433 . S
C1005 N1008 1.384 . S
C1006 H997 0.929 . S
C1006 C998 1.378 . S
C1006 C1001 1.350 . S
C1007 H994 0.929 . S
C1007 C999 1.433 . S
C1007 N1009 1.384 . S
N1008 C1004 1.427 . S
N1008 C1005 1.384 . S
N1009 C1001 1.427 . S
N1009 C1007 1.384 . S
H1010 C1016 0.930 . S
H1011 C1020 0.930 . S
H1012 C1025 0.929 . S
H1013 C1023 0.929 . S
H1014 C1018 0.929 . S
H1015 C1024 0.929 . S
C1016 H1010 0.930 . S
C1016 C1017 1.367 . S
C1016 C1024 1.378 . S
C1017 C1016 1.367 . S
C1017 C1025 1.433 . S
C1018 H1014 0.929 . S
C1018 C1020 1.378 . S
C1018 C1022 1.350 . S
C1019 C1022 1.463 . S
C1019 C1024 1.350 . S
C1019 N1027 1.427 . S
C1020 H1011 0.930 . S
C1020 C1018 1.378 . S
C1020 C1021 1.367 . S
C1021 C1020 1.367 . S
C1021 C1023 1.433 . S
C1022 C1018 1.350 . S
C1022 C1019 1.463 . S
C1022 N1026 1.427 . S
C1023 H1013 0.929 . S
C1023 C1021 1.433 . S
C1023 N1026 1.384 . S
C1024 H1015 0.929 . S
C1024 C1016 1.378 . S
C1024 C1019 1.350 . S
C1025 H1012 0.929 . S
C1025 C1017 1.433 . S
C1025 N1027 1.384 . S
N1026 C1022 1.427 . S
N1026 C1023 1.384 . S
N1027 C1019 1.427 . S
N1027 C1025 1.384 . S
H1028 C1034 0.930 . S
H1029 C1038 0.930 . S
H1030 C1043 0.929 . S
H1031 C1041 0.929 . S
H1032 C1036 0.929 . S
H1033 C1042 0.929 . S
C1034 H1028 0.930 . S
C1034 C1035 1.367 . S
C1034 C1042 1.378 . S
C1035 C1034 1.367 . S
C1035 C1043 1.433 . S
C1036 H1032 0.929 . S
C1036 C1038 1.378 . S
C1036 C1040 1.350 . S
C1037 C1040 1.463 . S
C1037 C1042 1.350 . S
C1037 N1045 1.427 . S
C1038 H1029 0.930 . S
C1038 C1036 1.378 . S
C1038 C1039 1.367 . S
C1039 C1038 1.367 . S
C1039 C1041 1.433 . S
C1040 C1036 1.350 . S
C1040 C1037 1.463 . S
C1040 N1044 1.427 . S
C1041 H1031 0.929 . S
C1041 C1039 1.433 . S
C1041 N1044 1.384 . S
C1042 H1033 0.929 . S
C1042 C1034 1.378 . S
C1042 C1037 1.350 . S
C1043 H1030 0.929 . S
C1043 C1035 1.433 . S
C1043 N1045 1.384 . S
N1044 C1040 1.427 . S
N1044 C1041 1.384 . S
N1045 C1037 1.427 . S
N1045 C1043 1.384 . S
H1046 C1052 0.930 . S
H1047 C1056 0.930 . S
H1048 C1061 0.929 . S
H1049 C1059 0.929 . S
H1050 C1054 0.929 . S
H1051 C1060 0.929 . S
C1052 H1046 0.930 . S
C1052 C1053 1.367 . S
C1052 C1060 1.378 . S
C1053 C1052 1.367 . S
C1053 C1061 1.433 . S
C1054 H1050 0.929 . S
C1054 C1056 1.378 . S
C1054 C1058 1.350 . S
C1055 C1058 1.463 . S
C1055 C1060 1.350 . S
C1055 N1063 1.427 . S
C1056 H1047 0.930 . S
C1056 C1054 1.378 . S
C1056 C1057 1.367 . S
C1057 C1056 1.367 . S
C1057 C1059 1.433 . S
C1058 C1054 1.350 . S
C1058 C1055 1.463 . S
C1058 N1062 1.427 . S
C1059 H1049 0.929 . S
C1059 C1057 1.433 . S
C1059 N1062 1.384 . S
C1060 H1051 0.929 . S
C1060 C1052 1.378 . S
C1060 C1055 1.350 . S
C1061 H1048 0.929 . S
C1061 C1053 1.433 . S
C1061 N1063 1.384 . S
N1062 C1058 1.427 . S
N1062 C1059 1.384 . S
N1063 C1055 1.427 . S
N1063 C1061 1.384 . S
H1064 C1070 0.930 . S
H1065 C1074 0.930 . S
H1066 C1079 0.929 . S
H1067 C1077 0.929 . S
H1068 C1072 0.929 . S
H1069 C1078 0.929 . S
C1070 H1064 0.930 . S
C1070 C1071 1.367 . S
C1070 C1078 1.378 . S
C1071 C1070 1.367 . S
C1071 C1079 1.433 . S
C1072 H1068 0.929 . S
C1072 C1074 1.378 . S
C1072 C1076 1.350 . S
C1073 C1076 1.463 . S
C1073 C1078 1.350 . S
C1073 N1081 1.427 . S
C1074 H1065 0.930 . S
C1074 C1072 1.378 . S
C1074 C1075 1.367 . S
C1075 C1074 1.367 . S
C1075 C1077 1.433 . S
C1076 C1072 1.350 . S
C1076 C1073 1.463 . S
C1076 N1080 1.427 . S
C1077 H1067 0.929 . S
C1077 C1075 1.433 . S
C1077 N1080 1.384 . S
C1078 H1069 0.929 . S
C1078 C1070 1.378 . S
C1078 C1073 1.350 . S
C1079 H1066 0.929 . S
C1079 C1071 1.433 . S
C1079 N1081 1.384 . S
N1080 C1076 1.427 . S
N1080 C1077 1.384 . S
N1081 C1073 1.427 . S
N1081 C1079 1.384 . S
H1082 C1088 0.930 . S
H1083 C1092 0.930 . S
H1084 C1097 0.929 . S
H1085 C1095 0.929 . S
H1086 C1090 0.929 . S
H1087 C1096 0.929 . S
C1088 H1082 0.930 . S
C1088 C1089 1.367 . S
C1088 C1096 1.378 . S
C1089 C1088 1.367 . S
C1089 C1097 1.433 . S
C1090 H1086 0.929 . S
C1090 C1092 1.378 . S
C1090 C1094 1.350 . S
C1091 C1094 1.463 . S
C1091 C1096 1.350 . S
C1091 N1099 1.427 . S
C1092 H1083 0.930 . S
C1092 C1090 1.378 . S
C1092 C1093 1.367 . S
C1093 C1092 1.367 . S
C1093 C1095 1.433 . S
C1094 C1090 1.350 . S
C1094 C1091 1.463 . S
C1094 N1098 1.427 . S
C1095 H1085 0.929 . S
C1095 C1093 1.433 . S
C1095 N1098 1.384 . S
C1096 H1087 0.929 . S
C1096 C1088 1.378 . S
C1096 C1091 1.350 . S
C1097 H1084 0.929 . S
C1097 C1089 1.433 . S
C1097 N1099 1.384 . S
N1098 C1094 1.427 . S
N1098 C1095 1.384 . S
N1099 C1091 1.427 . S
N1099 C1097 1.384 . S
H1100 C1106 0.930 . S
H1101 C1110 0.930 . S
H1102 C1115 0.929 . S
H1103 C1113 0.929 . S
H1104 C1108 0.929 . S
H1105 C1114 0.929 . S
C1106 H1100 0.930 . S
C1106 C1107 1.367 . S
C1106 C1114 1.378 . S
C1107 C1106 1.367 . S
C1107 C1115 1.433 . S
C1108 H1104 0.929 . S
C1108 C1110 1.378 . S
C1108 C1112 1.350 . S
C1109 C1112 1.463 . S
C1109 C1114 1.350 . S
C1109 N1117 1.427 . S
C1110 H1101 0.930 . S
C1110 C1108 1.378 . S
C1110 C1111 1.367 . S
C1111 C1110 1.367 . S
C1111 C1113 1.433 . S
C1112 C1108 1.350 . S
C1112 C1109 1.463 . S
C1112 N1116 1.427 . S
C1113 H1103 0.929 . S
C1113 C1111 1.433 . S
C1113 N1116 1.384 . S
C1114 H1105 0.929 . S
C1114 C1106 1.378 . S
C1114 C1109 1.350 . S
C1115 H1102 0.929 . S
C1115 C1107 1.433 . S
C1115 N1117 1.384 . S
N1116 C1112 1.427 . S
N1116 C1113 1.384 . S
N1117 C1109 1.427 . S
N1117 C1115 1.384 . S
H1118 C1124 0.930 . S
H1119 C1128 0.930 . S
H1120 C1133 0.929 . S
H1121 C1131 0.929 . S
H1122 C1126 0.929 . S
H1123 C1132 0.929 . S
C1124 H1118 0.930 . S
C1124 C1125 1.367 . S
C1124 C1132 1.378 . S
C1125 C1124 1.367 . S
C1125 C1133 1.433 . S
C1126 H1122 0.929 . S
C1126 C1128 1.378 . S
C1126 C1130 1.350 . S
C1127 C1130 1.463 . S
C1127 C1132 1.350 . S
C1127 N1135 1.427 . S
C1128 H1119 0.930 . S
C1128 C1126 1.378 . S
C1128 C1129 1.367 . S
C1129 C1128 1.367 . S
C1129 C1131 1.433 . S
C1130 C1126 1.350 . S
C1130 C1127 1.463 . S
C1130 N1134 1.427 . S
C1131 H1121 0.929 . S
C1131 C1129 1.433 . S
C1131 N1134 1.384 . S
C1132 H1123 0.929 . S
C1132 C1124 1.378 . S
C1132 C1127 1.350 . S
C1133 H1120 0.929 . S
C1133 C1125 1.433 . S
C1133 N1135 1.384 . S
N1134 C1130 1.427 . S
N1134 C1131 1.384 . S
N1135 C1127 1.427 . S
N1135 C1133 1.384 . S
H1136 C1142 0.930 . S
H1137 C1146 0.930 . S
H1138 C1151 0.929 . S
H1139 C1149 0.929 . S
H1140 C1144 0.929 . S
H1141 C1150 0.929 . S
C1142 H1136 0.930 . S
C1142 C1143 1.367 . S
C1142 C1150 1.378 . S
C1143 C1142 1.367 . S
C1143 C1151 1.433 . S
C1144 H1140 0.929 . S
C1144 C1146 1.378 . S
C1144 C1148 1.350 . S
C1145 C1148 1.463 . S
C1145 C1150 1.350 . S
C1145 N1153 1.427 . S
C1146 H1137 0.930 . S
C1146 C1144 1.378 . S
C1146 C1147 1.367 . S
C1147 C1146 1.367 . S
C1147 C1149 1.433 . S
C1148 C1144 1.350 . S
C1148 C1145 1.463 . S
C1148 N1152 1.427 . S
C1149 H1139 0.929 . S
C1149 C1147 1.433 . S
C1149 N1152 1.384 . S
C1150 H1141 0.929 . S
C1150 C1142 1.378 . S
C1150 C1145 1.350 . S
C1151 H1138 0.929 . S
C1151 C1143 1.433 . S
C1151 N1153 1.384 . S
N1152 C1148 1.427 . S
N1152 C1149 1.384 . S
N1153 C1145 1.427 . S
N1153 C1151 1.384 . S
H1154 C1160 0.930 . S
H1155 C1164 0.930 . S
H1156 C1169 0.929 . S
H1157 C1167 0.929 . S
H1158 C1162 0.929 . S
H1159 C1168 0.929 . S
C1160 H1154 0.930 . S
C1160 C1161 1.367 . S
C1160 C1168 1.378 . S
C1161 C1160 1.367 . S
C1161 C1169 1.433 . S
C1162 H1158 0.929 . S
C1162 C1164 1.378 . S
C1162 C1166 1.350 . S
C1163 C1166 1.463 . S
C1163 C1168 1.350 . S
C1163 N1171 1.427 . S
C1164 H1155 0.930 . S
C1164 C1162 1.378 . S
C1164 C1165 1.367 . S
C1165 C1164 1.367 . S
C1165 C1167 1.433 . S
C1166 C1162 1.350 . S
C1166 C1163 1.463 . S
C1166 N1170 1.427 . S
C1167 H1157 0.929 . S
C1167 C1165 1.433 . S
C1167 N1170 1.384 . S
C1168 H1159 0.929 . S
C1168 C1160 1.378 . S
C1168 C1163 1.350 . S
C1169 H1156 0.929 . S
C1169 C1161 1.433 . S
C1169 N1171 1.384 . S
N1170 C1166 1.427 . S
N1170 C1167 1.384 . S
N1171 C1163 1.427 . S
N1171 C1169 1.384 . S
H1172 C1178 0.930 . S
H1173 C1182 0.930 . S
H1174 C1187 0.929 . S
H1175 C1185 0.929 . S
H1176 C1180 0.929 . S
H1177 C1186 0.929 . S
C1178 H1172 0.930 . S
C1178 C1179 1.367 . S
C1178 C1186 1.378 . S
C1179 C1178 1.367 . S
C1179 C1187 1.433 . S
C1180 H1176 0.929 . S
C1180 C1182 1.378 . S
C1180 C1184 1.350 . S
C1181 C1184 1.463 . S
C1181 C1186 1.350 . S
C1181 N1189 1.427 . S
C1182 H1173 0.930 . S
C1182 C1180 1.378 . S
C1182 C1183 1.367 . S
C1183 C1182 1.367 . S
C1183 C1185 1.433 . S
C1184 C1180 1.350 . S
C1184 C1181 1.463 . S
C1184 N1188 1.427 . S
C1185 H1175 0.929 . S
C1185 C1183 1.433 . S
C1185 N1188 1.384 . S
C1186 H1177 0.929 . S
C1186 C1178 1.378 . S
C1186 C1181 1.350 . S
C1187 H1174 0.929 . S
C1187 C1179 1.433 . S
C1187 N1189 1.384 . S
N1188 C1184 1.427 . S
N1188 C1185 1.384 . S
N1189 C1181 1.427 . S
N1189 C1187 1.384 . S
H1190 C1196 0.930 . S
H1191 C1200 0.930 . S
H1192 C1205 0.929 . S
H1193 C1203 0.929 . S
H1194 C1198 0.929 . S
H1195 C1204 0.929 . S
C1196 H1190 0.930 . S
C1196 C1197 1.367 . S
C1196 C1204 1.378 . S
C1197 C1196 1.367 . S
C1197 C1205 1.433 . S
C1198 H1194 0.929 . S
C1198 C1200 1.378 . S
C1198 C1202 1.350 . S
C1199 C1202 1.463 . S
C1199 C1204 1.350 . S
C1199 N1207 1.427 . S
C1200 H1191 0.930 . S
C1200 C1198 1.378 . S
C1200 C1201 1.367 . S
C1201 C1200 1.367 . S
C1201 C1203 1.433 . S
C1202 C1198 1.350 . S
C1202 C1199 1.463 . S
C1202 N1206 1.427 . S
C1203 H1193 0.929 . S
C1203 C1201 1.433 . S
C1203 N1206 1.384 . S
C1204 H1195 0.929 . S
C1204 C1196 1.378 . S
C1204 C1199 1.350 . S
C1205 H1192 0.929 . S
C1205 C1197 1.433 . S
C1205 N1207 1.384 . S
N1206 C1202 1.427 . S
N1206 C1203 1.384 . S
N1207 C1199 1.427 . S
N1207 C1205 1.384 . S
H1208 C1214 0.930 . S
H1209 C1218 0.930 . S
H1210 C1223 0.929 . S
H1211 C1221 0.929 . S
H1212 C1216 0.929 . S
H1213 C1222 0.929 . S
C1214 H1208 0.930 . S
C1214 C1215 1.367 . S
C1214 C1222 1.378 . S
C1215 C1214 1.367 . S
C1215 C1223 1.433 . S
C1216 H1212 0.929 . S
C1216 C1218 1.378 . S
C1216 C1220 1.350 . S
C1217 C1220 1.463 . S
C1217 C1222 1.350 . S
C1217 N1225 1.427 . S
C1218 H1209 0.930 . S
C1218 C1216 1.378 . S
C1218 C1219 1.367 . S
C1219 C1218 1.367 . S
C1219 C1221 1.433 . S
C1220 C1216 1.350 . S
C1220 C1217 1.463 . S
C1220 N1224 1.427 . S
C1221 H1211 0.929 . S
C1221 C1219 1.433 . S
C1221 N1224 1.384 . S
C1222 H1213 0.929 . S
C1222 C1214 1.378 . S
C1222 C1217 1.350 . S
C1223 H1210 0.929 . S
C1223 C1215 1.433 . S
C1223 N1225 1.384 . S
N1224 C1220 1.427 . S
N1224 C1221 1.384 . S
N1225 C1217 1.427 . S
N1225 C1223 1.384 . S
H1226 C1232 0.930 . S
H1227 C1236 0.930 . S
H1228 C1241 0.929 . S
H1229 C1239 0.929 . S
H1230 C1234 0.929 . S
H1231 C1240 0.929 . S
C1232 H1226 0.930 . S
C1232 C1233 1.367 . S
C1232 C1240 1.378 . S
C1233 C1232 1.367 . S
C1233 C1241 1.433 . S
C1234 H1230 0.929 . S
C1234 C1236 1.378 . S
C1234 C1238 1.350 . S
C1235 C1238 1.463 . S
C1235 C1240 1.350 . S
C1235 N1243 1.427 . S
C1236 H1227 0.930 . S
C1236 C1234 1.378 . S
C1236 C1237 1.367 . S
C1237 C1236 1.367 . S
C1237 C1239 1.433 . S
C1238 C1234 1.350 . S
C1238 C1235 1.463 . S
C1238 N1242 1.427 . S
C1239 H1229 0.929 . S
C1239 C1237 1.433 . S
C1239 N1242 1.384 . S
C1240 H1231 0.929 . S
C1240 C1232 1.378 . S
C1240 C1235 1.350 . S
C1241 H1228 0.929 . S
C1241 C1233 1.433 . S
C1241 N1243 1.384 . S
N1242 C1238 1.427 . S
N1242 C1239 1.384 . S
N1243 C1235 1.427 . S
N1243 C1241 1.384 . S
H1244 C1250 0.930 . S
H1245 C1254 0.930 . S
H1246 C1259 0.929 . S
H1247 C1257 0.929 . S
H1248 C1252 0.929 . S
H1249 C1258 0.929 . S
C1250 H1244 0.930 . S
C1250 C1251 1.367 . S
C1250 C1258 1.378 . S
C1251 C1250 1.367 . S
C1251 C1259 1.433 . S
C1252 H1248 0.929 . S
C1252 C1254 1.378 . S
C1252 C1256 1.350 . S
C1253 C1256 1.463 . S
C1253 C1258 1.350 . S
C1253 N1261 1.427 . S
C1254 H1245 0.930 . S
C1254 C1252 1.378 . S
C1254 C1255 1.367 . S
C1255 C1254 1.367 . S
C1255 C1257 1.433 . S
C1256 C1252 1.350 . S
C1256 C1253 1.463 . S
C1256 N1260 1.427 . S
C1257 H1247 0.929 . S
C1257 C1255 1.433 . S
C1257 N1260 1.384 . S
C1258 H1249 0.929 . S
C1258 C1250 1.378 . S
C1258 C1253 1.350 . S
C1259 H1246 0.929 . S
C1259 C1251 1.433 . S
C1259 N1261 1.384 . S
N1260 C1256 1.427 . S
N1260 C1257 1.384 . S
N1261 C1253 1.427 . S
N1261 C1259 1.384 . S
H1262 C1268 0.930 . S
H1263 C1272 0.930 . S
H1264 C1277 0.929 . S
H1265 C1275 0.929 . S
H1266 C1270 0.929 . S
H1267 C1276 0.929 . S
C1268 H1262 0.930 . S
C1268 C1269 1.367 . S
C1268 C1276 1.378 . S
C1269 C1268 1.367 . S
C1269 C1277 1.433 . S
C1270 H1266 0.929 . S
C1270 C1272 1.378 . S
C1270 C1274 1.350 . S
C1271 C1274 1.463 . S
C1271 C1276 1.350 . S
C1271 N1279 1.427 . S
C1272 H1263 0.930 . S
C1272 C1270 1.378 . S
C1272 C1273 1.367 . S
C1273 C1272 1.367 . S
C1273 C1275 1.433 . S
C1274 C1270 1.350 . S
C1274 C1271 1.463 . S
C1274 N1278 1.427 . S
C1275 H1265 0.929 . S
C1275 C1273 1.433 . S
C1275 N1278 1.384 . S
C1276 H1267 0.929 . S
C1276 C1268 1.378 . S
C1276 C1271 1.350 . S
C1277 H1264 0.929 . S
C1277 C1269 1.433 . S
C1277 N1279 1.384 . S
N1278 C1274 1.427 . S
N1278 C1275 1.384 . S
N1279 C1271 1.427 . S
N1279 C1277 1.384 . S
H1280 C1286 0.930 . S
H1281 C1290 0.930 . S
H1282 C1295 0.929 . S
H1283 C1293 0.929 . S
H1284 C1288 0.929 . S
H1285 C1294 0.929 . S
C1286 H1280 0.930 . S
C1286 C1287 1.367 . S
C1286 C1294 1.378 . S
C1287 C1286 1.367 . S
C1287 C1295 1.433 . S
C1288 H1284 0.929 . S
C1288 C1290 1.378 . S
C1288 C1292 1.350 . S
C1289 C1292 1.463 . S
C1289 C1294 1.350 . S
C1289 N1297 1.427 . S
C1290 H1281 0.930 . S
C1290 C1288 1.378 . S
C1290 C1291 1.367 . S
C1291 C1290 1.367 . S
C1291 C1293 1.433 . S
C1292 C1288 1.350 . S
C1292 C1289 1.463 . S
C1292 N1296 1.427 . S
C1293 H1283 0.929 . S
C1293 C1291 1.433 . S
C1293 N1296 1.384 . S
C1294 H1285 0.929 . S
C1294 C1286 1.378 . S
C1294 C1289 1.350 . S
C1295 H1282 0.929 . S
C1295 C1287 1.433 . S
C1295 N1297 1.384 . S
N1296 C1292 1.427 . S
N1296 C1293 1.384 . S
N1297 C1289 1.427 . S
N1297 C1295 1.384 . S
H1298 C1304 0.930 . S
H1299 C1308 0.930 . S
H1300 C1313 0.929 . S
H1301 C1311 0.929 . S
H1302 C1306 0.929 . S
H1303 C1312 0.929 . S
C1304 H1298 0.930 . S
C1304 C1305 1.367 . S
C1304 C1312 1.378 . S
C1305 C1304 1.367 . S
C1305 C1313 1.433 . S
C1306 H1302 0.929 . S
C1306 C1308 1.378 . S
C1306 C1310 1.350 . S
C1307 C1310 1.463 . S
C1307 C1312 1.350 . S
C1307 N1315 1.427 . S
C1308 H1299 0.930 . S
C1308 C1306 1.378 . S
C1308 C1309 1.367 . S
C1309 C1308 1.367 . S
C1309 C1311 1.433 . S
C1310 C1306 1.350 . S
C1310 C1307 1.463 . S
C1310 N1314 1.427 . S
C1311 H1301 0.929 . S
C1311 C1309 1.433 . S
C1311 N1314 1.384 . S
C1312 H1303 0.929 . S
C1312 C1304 1.378 . S
C1312 C1307 1.350 . S
C1313 H1300 0.929 . S
C1313 C1305 1.433 . S
C1313 N1315 1.384 . S
N1314 C1310 1.427 . S
N1314 C1311 1.384 . S
N1315 C1307 1.427 . S
N1315 C1313 1.384 . S
H1316 C1322 0.930 . S
H1317 C1326 0.930 . S
H1318 C1331 0.929 . S
H1319 C1329 0.929 . S
H1320 C1324 0.929 . S
H1321 C1330 0.929 . S
C1322 H1316 0.930 . S
C1322 C1323 1.367 . S
C1322 C1330 1.378 . S
C1323 C1322 1.367 . S
C1323 C1331 1.433 . S
C1324 H1320 0.929 . S
C1324 C1326 1.378 . S
C1324 C1328 1.350 . S
C1325 C1328 1.463 . S
C1325 C1330 1.350 . S
C1325 N1333 1.427 . S
C1326 H1317 0.930 . S
C1326 C1324 1.378 . S
C1326 C1327 1.367 . S
C1327 C1326 1.367 . S
C1327 C1329 1.433 . S
C1328 C1324 1.350 . S
C1328 C1325 1.463 . S
C1328 N1332 1.427 . S
C1329 H1319 0.929 . S
C1329 C1327 1.433 . S
C1329 N1332 1.384 . S
C1330 H1321 0.929 . S
C1330 C1322 1.378 . S
C1330 C1325 1.350 . S
C1331 H1318 0.929 . S
C1331 C1323 1.433 . S
C1331 N1333 1.384 . S
N1332 C1328 1.427 . S
N1332 C1329 1.384 . S
N1333 C1325 1.427 . S
N1333 C1331 1.384 . S
H1334 C1340 0.930 . S
H1335 C1344 0.930 . S
H1336 C1349 0.929 . S
H1337 C1347 0.929 . S
H1338 C1342 0.929 . S
H1339 C1348 0.929 . S
C1340 H1334 0.930 . S
C1340 C1341 1.367 . S
C1340 C1348 1.378 . S
C1341 C1340 1.367 . S
C1341 C1349 1.433 . S
C1342 H1338 0.929 . S
C1342 C1344 1.378 . S
C1342 C1346 1.350 . S
C1343 C1346 1.463 . S
C1343 C1348 1.350 . S
C1343 N1351 1.427 . S
C1344 H1335 0.930 . S
C1344 C1342 1.378 . S
C1344 C1345 1.367 . S
C1345 C1344 1.367 . S
C1345 C1347 1.433 . S
C1346 C1342 1.350 . S
C1346 C1343 1.463 . S
C1346 N1350 1.427 . S
C1347 H1337 0.929 . S
C1347 C1345 1.433 . S
C1347 N1350 1.384 . S
C1348 H1339 0.929 . S
C1348 C1340 1.378 . S
C1348 C1343 1.350 . S
C1349 H1336 0.929 . S
C1349 C1341 1.433 . S
C1349 N1351 1.384 . S
N1350 C1346 1.427 . S
N1350 C1347 1.384 . S
N1351 C1343 1.427 . S
N1351 C1349 1.384 . S
H1352 C1358 0.930 . S
H1353 C1362 0.930 . S
H1354 C1367 0.929 . S
H1355 C1365 0.929 . S
H1356 C1360 0.929 . S
H1357 C1366 0.929 . S
C1358 H1352 0.930 . S
C1358 C1359 1.367 . S
C1358 C1366 1.378 . S
C1359 C1358 1.367 . S
C1359 C1367 1.433 . S
C1360 H1356 0.929 . S
C1360 C1362 1.378 . S
C1360 C1364 1.350 . S
C1361 C1364 1.463 . S
C1361 C1366 1.350 . S
C1361 N1369 1.427 . S
C1362 H1353 0.930 . S
C1362 C1360 1.378 . S
C1362 C1363 1.367 . S
C1363 C1362 1.367 . S
C1363 C1365 1.433 . S
C1364 C1360 1.350 . S
C1364 C1361 1.463 . S
C1364 N1368 1.427 . S
C1365 H1355 0.929 . S
C1365 C1363 1.433 . S
C1365 N1368 1.384 . S
C1366 H1357 0.929 . S
C1366 C1358 1.378 . S
C1366 C1361 1.350 . S
C1367 H1354 0.929 . S
C1367 C1359 1.433 . S
C1367 N1369 1.384 . S
N1368 C1364 1.427 . S
N1368 C1365 1.384 . S
N1369 C1361 1.427 . S
N1369 C1367 1.384 . S
H1370 C1376 0.930 . S
H1371 C1380 0.930 . S
H1372 C1385 0.929 . S
H1373 C1383 0.929 . S
H1374 C1378 0.929 . S
H1375 C1384 0.929 . S
C1376 H1370 0.930 . S
C1376 C1377 1.367 . S
C1376 C1384 1.378 . S
C1377 C1376 1.367 . S
C1377 C1385 1.433 . S
C1378 H1374 0.929 . S
C1378 C1380 1.378 . S
C1378 C1382 1.350 . S
C1379 C1382 1.463 . S
C1379 C1384 1.350 . S
C1379 N1387 1.427 . S
C1380 H1371 0.930 . S
C1380 C1378 1.378 . S
C1380 C1381 1.367 . S
C1381 C1380 1.367 . S
C1381 C1383 1.433 . S
C1382 C1378 1.350 . S
C1382 C1379 1.463 . S
C1382 N1386 1.427 . S
C1383 H1373 0.929 . S
C1383 C1381 1.433 . S
C1383 N1386 1.384 . S
C1384 H1375 0.929 . S
C1384 C1376 1.378 . S
C1384 C1379 1.350 . S
C1385 H1372 0.929 . S
C1385 C1377 1.433 . S
C1385 N1387 1.384 . S
N1386 C1382 1.427 . S
N1386 C1383 1.384 . S
N1387 C1379 1.427 . S
N1387 C1385 1.384 . S
H1388 C1394 0.930 . S
H1389 C1398 0.930 . S
H1390 C1403 0.929 . S
H1391 C1401 0.929 . S
H1392 C1396 0.929 . S
H1393 C1402 0.929 . S
C1394 H1388 0.930 . S
C1394 C1395 1.367 . S
C1394 C1402 1.378 . S
C1395 C1394 1.367 . S
C1395 C1403 1.433 . S
C1396 H1392 0.929 . S
C1396 C1398 1.378 . S
C1396 C1400 1.350 . S
C1397 C1400 1.463 . S
C1397 C1402 1.350 . S
C1397 N1405 1.427 . S
C1398 H1389 0.930 . S
C1398 C1396 1.378 . S
C1398 C1399 1.367 . S
C1399 C1398 1.367 . S
C1399 C1401 1.433 . S
C1400 C1396 1.350 . S
C1400 C1397 1.463 . S
C1400 N1404 1.427 . S
C1401 H1391 0.929 . S
C1401 C1399 1.433 . S
C1401 N1404 1.384 . S
C1402 H1393 0.929 . S
C1402 C1394 1.378 . S
C1402 C1397 1.350 . S
C1403 H1390 0.929 . S
C1403 C1395 1.433 . S
C1403 N1405 1.384 . S
N1404 C1400 1.427 . S
N1404 C1401 1.384 . S
N1405 C1397 1.427 . S
N1405 C1403 1.384 . S
H1406 C1412 0.930 . S
H1407 C1416 0.930 . S
H1408 C1421 0.929 . S
H1409 C1419 0.929 . S
H1410 C1414 0.929 . S
H1411 C1420 0.929 . S
C1412 H1406 0.930 . S
C1412 C1413 1.367 . S
C1412 C1420 1.378 . S
C1413 C1412 1.367 . S
C1413 C1421 1.433 . S
C1414 H1410 0.929 . S
C1414 C1416 1.378 . S
C1414 C1418 1.350 . S
C1415 C1418 1.463 . S
C1415 C1420 1.350 . S
C1415 N1423 1.427 . S
C1416 H1407 0.930 . S
C1416 C1414 1.378 . S
C1416 C1417 1.367 . S
C1417 C1416 1.367 . S
C1417 C1419 1.433 . S
C1418 C1414 1.350 . S
C1418 C1415 1.463 . S
C1418 N1422 1.427 . S
C1419 H1409 0.929 . S
C1419 C1417 1.433 . S
C1419 N1422 1.384 . S
C1420 H1411 0.929 . S
C1420 C1412 1.378 . S
C1420 C1415 1.350 . S
C1421 H1408 0.929 . S
C1421 C1413 1.433 . S
C1421 N1423 1.384 . S
N1422 C1418 1.427 . S
N1422 C1419 1.384 . S
N1423 C1415 1.427 . S
N1423 C1421 1.384 . S
H1424 C1430 0.930 . S
H1425 C1434 0.930 . S
H1426 C1439 0.929 . S
H1427 C1437 0.929 . S
H1428 C1432 0.929 . S
H1429 C1438 0.929 . S
C1430 H1424 0.930 . S
C1430 C1431 1.367 . S
C1430 C1438 1.378 . S
C1431 C1430 1.367 . S
C1431 C1439 1.433 . S
C1432 H1428 0.929 . S
C1432 C1434 1.378 . S
C1432 C1436 1.350 . S
C1433 C1436 1.463 . S
C1433 C1438 1.350 . S
C1433 N1441 1.427 . S
C1434 H1425 0.930 . S
C1434 C1432 1.378 . S
C1434 C1435 1.367 . S
C1435 C1434 1.367 . S
C1435 C1437 1.433 . S
C1436 C1432 1.350 . S
C1436 C1433 1.463 . S
C1436 N1440 1.427 . S
C1437 H1427 0.929 . S
C1437 C1435 1.433 . S
C1437 N1440 1.384 . S
C1438 H1429 0.929 . S
C1438 C1430 1.378 . S
C1438 C1433 1.350 . S
C1439 H1426 0.929 . S
C1439 C1431 1.433 . S
C1439 N1441 1.384 . S
N1440 C1436 1.427 . S
N1440 C1437 1.384 . S
N1441 C1433 1.427 . S
N1441 C1439 1.384 . S
H1442 C1448 0.930 . S
H1443 C1452 0.930 . S
H1444 C1457 0.929 . S
H1445 C1455 0.929 . S
H1446 C1450 0.929 . S
H1447 C1456 0.929 . S
C1448 H1442 0.930 . S
C1448 C1449 1.367 . S
C1448 C1456 1.378 . S
C1449 C1448 1.367 . S
C1449 C1457 1.433 . S
C1450 H1446 0.929 . S
C1450 C1452 1.378 . S
C1450 C1454 1.350 . S
C1451 C1454 1.463 . S
C1451 C1456 1.350 . S
C1451 N1459 1.427 . S
C1452 H1443 0.930 . S
C1452 C1450 1.378 . S
C1452 C1453 1.367 . S
C1453 C1452 1.367 . S
C1453 C1455 1.433 . S
C1454 C1450 1.350 . S
C1454 C1451 1.463 . S
C1454 N1458 1.427 . S
C1455 H1445 0.929 . S
C1455 C1453 1.433 . S
C1455 N1458 1.384 . S
C1456 H1447 0.929 . S
C1456 C1448 1.378 . S
C1456 C1451 1.350 . S
C1457 H1444 0.929 . S
C1457 C1449 1.433 . S
C1457 N1459 1.384 . S
N1458 C1454 1.427 . S
N1458 C1455 1.384 . S
N1459 C1451 1.427 . S
N1459 C1457 1.384 . S
C607 C291 1.387 . S
C603 N2 1.356 . S
C625 C325 1.952 . S
C621 C7 1.986 . S
C643 C362 1.702 . S
C639 N12 1.616 . S
C657 C16 2.514 . S
C661 C414 2.542 . S
C679 C454 2.068 . S
C675 C30 2.073 . S
C697 C491 1.528 . S
C693 N35 1.517 . S
C711 C39 2.724 . S
C715 C525 2.665 . S
C733 C562 1.199 . S
C729 N25 1.119 . S
C751 C285 1.523 . S
C747 N58 1.526 . S
C765 N81 1.848 . S
C769 C335 1.805 . S
C787 C366 1.234 . S
C783 N104 1.165 . S
C801 N127 1.226 . S
C805 C402 1.221 . S
C823 C442 0.903 . S
C819 N48 0.919 . S
C841 C485 1.749 . S
C837 N71 1.757 1_556 S
C855 N94 1.504 . S
C859 C535 1.451 . S
C877 C566 1.638 . S
C873 N117 1.606 . S
C891 C85 2.169 . S
C895 C295 2.164 . S
C909 C122 2.284 . S
C913 C446 2.244 . S
C927 C53 1.768 . S
C931 C495 1.768 . S
C949 C531 1.463 . S
C945 C76 1.511 1_655 S
C967 C574 2.174 . S
C963 C99 2.264 . S
C985 C374 2.249 . S
C981 C131 2.340 . S
C1003 C406 1.896 . S
C999 C62 1.928 1_565 S
C1017 C108 1.043 . S
C1021 C331 1.027 . S
C1039 C571 1.464 . S
C1035 N140 1.440 . S
C1053 C145 1.981 . S
C1057 C445 1.946 . S
C1075 C482 1.582 . S
C1071 N150 1.486 . S
C1089 C154 2.524 . S
C1093 C534 2.546 . S
C1111 C334 2.079 . S
C1107 C168 2.082 . S
C1125 N173 1.385 . S
C1129 C371 1.389 . S
C1147 C405 2.661 . S
C1143 C177 2.724 . S
C1165 C282 1.243 . S
C1161 N163 1.142 . S
C1183 C565 2.022 . S
C1179 C200 2.070 . S
C1201 C455 2.087 . S
C1197 N219 2.128 . S
C1215 N242 1.406 . S
C1219 C486 1.491 . S
C1237 C522 1.496 . S
C1233 C269 1.571 . S
C1255 C322 1.086 . S
C1251 C191 1.141 . S
C1269 N209 2.016 . S
C1273 C365 2.005 . S
C1287 N232 1.795 . S
C1291 C415 1.762 . S
C1305 C260 2.127 . S
C1309 C286 2.122 . S
C1323 C223 1.848 . S
C1327 C575 1.848 . S
C1341 N255 1.876 . S
C1345 C326 1.863 . S
C1359 N186 1.304 . S
C1363 C375 1.356 . S
C1381 C411 1.195 . S
C1377 C214 1.226 . S
C1399 C294 1.871 . S
C1395 C237 1.953 . S
C1417 C494 1.776 . S
C1413 N265 1.787 . S
C1435 C526 1.488 . S
C1431 N196 1.506 . S
C1453 C451 0.750 . S
C1449 C246 0.747 . S
